ETAM-pdb12ca-A-LYS-213:MBZ-pdb12ca-A-PHE-260
     RDKit          3D

 26 25  0  0  0  0  0  0  0  0999 V2000
    1.2896   -2.1519    2.9095 C   0  0  0  0  0  0  0  0  0  0  0  0
    2.1048   -2.6656    2.6565 H   0  0  0  0  0  0  0  0  0  0  0  0
    0.8896   -1.7270    2.1023 H   0  0  0  0  0  0  0  0  0  0  0  0
    0.5620   -2.8508    3.3220 H   0  0  0  0  0  0  0  0  0  0  0  0
    1.6914   -1.0484    3.8975 C   0  0  0  0  0  0  0  0  0  0  0  0
    0.9640   -0.3773    3.9264 H   0  0  0  0  0  0  0  0  0  0  0  0
    1.8288   -1.4619    4.7872 H   0  0  0  0  0  0  0  0  0  0  0  0
    2.9283   -0.4418    3.4195 N   0  0  0  0  0  4  0  0  0  0  0  0
    3.7197   -0.9743    3.7350 H   0  0  0  0  0  0  0  0  0  0  0  0
    2.9357   -0.4156    2.4148 H   0  0  0  0  0  0  0  0  0  0  0  0
    3.0111    0.4977    3.7676 H   0  0  0  0  0  0  0  0  0  0  0  0
    0.0419    2.9080   -0.0274 C   0  0  0  0  0  0  0  0  0  0  0  0
    0.9135    3.1914    0.3215 H   0  0  0  0  0  0  0  0  0  0  0  0
   -0.7070    3.2392    0.5130 H   0  0  0  0  0  0  0  0  0  0  0  0
   -0.0645    3.3255   -1.0287 H   0  0  0  0  0  0  0  0  0  0  0  0
    0.0005    1.3777    0.0010 C   0  0  0  0  0  0  0  0  0  0  0  0
   -1.1629    0.7445    0.0002 C   0  0  0  0  0  0  0  0  0  0  0  0
   -2.0362    1.2472   -0.0018 H   0  0  0  0  0  0  0  0  0  0  0  0
   -1.2149   -0.6385   -0.0000 C   0  0  0  0  0  0  0  0  0  0  0  0
   -2.1121   -1.1083   -0.0126 H   0  0  0  0  0  0  0  0  0  0  0  0
   -0.0326   -1.4274    0.0190 C   0  0  0  0  0  0  0  0  0  0  0  0
   -0.0757   -2.3953    0.0435 H   0  0  0  0  0  0  0  0  0  0  0  0
    1.2149   -0.7388    0.0000 C   0  0  0  0  0  0  0  0  0  0  0  0
    2.0711   -1.2318    0.0023 H   0  0  0  0  0  0  0  0  0  0  0  0
    1.1950    0.6824   -0.0203 C   0  0  0  0  0  0  0  0  0  0  0  0
    2.0656    1.1691   -0.0510 H   0  0  0  0  0  0  0  0  0  0  0  0
  1  5  1  0
  5  8  1  0
  1  2  1  0
  1  3  1  0
  1  4  1  0
  5  6  1  0
  5  7  1  0
  8  9  1  0
  8 10  1  0
  8 11  1  0
 12 16  1  0
 16 17  2  0
 17 19  1  0
 19 21  2  0
 21 23  1  0
 23 25  2  0
 25 16  1  0
 12 13  1  0
 12 14  1  0
 12 15  1  0
 17 18  1  0
 19 20  1  0
 21 22  1  0
 23 24  1  0
 25 26  1  0
M  CHG  1   8   1
M  END
>  <PDB_ID>  (1) 
pdb12ca

>  <RESIDUE_NAME>  (1) 
LYS   PHE

>  <FRAG_NAME>  (1) 
ETAM   MBZ

>  <FRAG_ATOM_NUM>  (1) 
fragi: 11  fragj: 15

>  <atom.prop.CHAIN_ID>  (1) 
A A A A A A A A A A A Z Z Z Z Z Z Z Z Z Z Z Z Z Z Z

>  <atom.prop.IS_HEAVY_ATOM>  (1) 
1 0 0 0 1 0 0 1 0 0 0 1 0 0 0 1 1 0 1 0 1 0 1 0 1 0

>  <DIFUSE_FUNC_ATOM>  (1) 
n/a

>  <FINAL_SINGLE_POINT_ENERGY>  (1) 
0

>  <NONCOV_INTER_ENERGY_QM>  (1) 
0

>  <FF_Energy>  (1) 
1.78

>  <QM_Energy>  (1) 
-5.57

>  <source>  (1) 
ETAM_MBZ

>  <Index>  (1) 
37

$$$$
ETAM-pdb1a0j-C-LYS-188:MBZ-pdb1a0j-C-PHE-184
     RDKit          3D

 26 25  0  0  0  0  0  0  0  0999 V2000
    2.1667   -1.6212    3.6591 C   0  0  0  0  0  0  0  0  0  0  0  0
    2.0253   -1.7895    2.6788 H   0  0  0  0  0  0  0  0  0  0  0  0
    2.8802   -2.2429    3.9943 H   0  0  0  0  0  0  0  0  0  0  0  0
    2.4989   -0.5923    3.7971 H   0  0  0  0  0  0  0  0  0  0  0  0
    0.8839   -1.9284    4.3869 C   0  0  0  0  0  0  0  0  0  0  0  0
    0.8647   -2.8979    4.6106 H   0  0  0  0  0  0  0  0  0  0  0  0
    0.8466   -1.3831    5.2190 H   0  0  0  0  0  0  0  0  0  0  0  0
   -0.2270   -1.5924    3.5181 N   0  0  0  0  0  4  0  0  0  0  0  0
   -1.0938   -1.6254    4.0278 H   0  0  0  0  0  0  0  0  0  0  0  0
   -0.1122   -0.6655    3.1437 H   0  0  0  0  0  0  0  0  0  0  0  0
   -0.2825   -2.2419    2.7516 H   0  0  0  0  0  0  0  0  0  0  0  0
    0.0215    2.9071   -0.1093 C   0  0  0  0  0  0  0  0  0  0  0  0
    0.8872    3.2203    0.2089 H   0  0  0  0  0  0  0  0  0  0  0  0
   -0.7344    3.2535    0.3981 H   0  0  0  0  0  0  0  0  0  0  0  0
   -0.0932    3.2217   -1.1465 H   0  0  0  0  0  0  0  0  0  0  0  0
    0.0031    1.3950   -0.0023 C   0  0  0  0  0  0  0  0  0  0  0  0
   -1.2178    0.7131    0.0023 C   0  0  0  0  0  0  0  0  0  0  0  0
   -2.0670    1.2023    0.0055 H   0  0  0  0  0  0  0  0  0  0  0  0
   -1.2118   -0.6865    0.0000 C   0  0  0  0  0  0  0  0  0  0  0  0
   -2.0859   -1.1851    0.0021 H   0  0  0  0  0  0  0  0  0  0  0  0
    0.0007   -1.3963   -0.0030 C   0  0  0  0  0  0  0  0  0  0  0  0
   -0.0170   -2.3937   -0.0078 H   0  0  0  0  0  0  0  0  0  0  0  0
    1.2118   -0.7111   -0.0000 C   0  0  0  0  0  0  0  0  0  0  0  0
    2.0871   -1.2126    0.0015 H   0  0  0  0  0  0  0  0  0  0  0  0
    1.2140    0.6859    0.0031 C   0  0  0  0  0  0  0  0  0  0  0  0
    2.0749    1.1813    0.0079 H   0  0  0  0  0  0  0  0  0  0  0  0
  1  5  1  0
  5  8  1  0
  1  2  1  0
  1  3  1  0
  1  4  1  0
  5  6  1  0
  5  7  1  0
  8  9  1  0
  8 10  1  0
  8 11  1  0
 12 16  1  0
 16 17  2  0
 17 19  1  0
 19 21  2  0
 21 23  1  0
 23 25  2  0
 25 16  1  0
 12 13  1  0
 12 14  1  0
 12 15  1  0
 17 18  1  0
 19 20  1  0
 21 22  1  0
 23 24  1  0
 25 26  1  0
M  CHG  1   8   1
M  END
>  <PDB_ID>  (2) 
pdb1a0j

>  <RESIDUE_NAME>  (2) 
LYS   PHE

>  <FRAG_NAME>  (2) 
ETAM   MBZ

>  <FRAG_ATOM_NUM>  (2) 
fragi: 11  fragj: 15

>  <atom.prop.CHAIN_ID>  (2) 
A A A A A A A A A A A Z Z Z Z Z Z Z Z Z Z Z Z Z Z Z

>  <atom.prop.IS_HEAVY_ATOM>  (2) 
1 0 0 0 1 0 0 1 0 0 0 1 0 0 0 1 1 0 1 0 1 0 1 0 1 0

>  <DIFUSE_FUNC_ATOM>  (2) 
n/a

>  <FINAL_SINGLE_POINT_ENERGY>  (2) 
0

>  <NONCOV_INTER_ENERGY_QM>  (2) 
0

>  <FF_Energy>  (2) 
-5.94

>  <QM_Energy>  (2) 
-11.94

>  <source>  (2) 
ETAM_MBZ

>  <Index>  (2) 
65

$$$$
ETAM-pdb1a39-A-LYS-116:MBZ-pdb1a39-A-PHE-30
     RDKit          3D

 26 25  0  0  0  0  0  0  0  0999 V2000
   -0.3914    0.3318   -4.0971 C   0  0  0  0  0  0  0  0  0  0  0  0
   -0.3648    0.4183   -5.0793 H   0  0  0  0  0  0  0  0  0  0  0  0
    0.4935    0.4926   -3.6919 H   0  0  0  0  0  0  0  0  0  0  0  0
   -1.1032    1.0537   -3.6968 H   0  0  0  0  0  0  0  0  0  0  0  0
   -0.8466   -1.0677   -3.7399 C   0  0  0  0  0  0  0  0  0  0  0  0
   -1.7114   -0.9847   -3.1685 H   0  0  0  0  0  0  0  0  0  0  0  0
   -1.1755   -1.5277   -4.6118 H   0  0  0  0  0  0  0  0  0  0  0  0
    0.0840   -1.9694   -3.0557 N   0  0  0  0  0  4  0  0  0  0  0  0
   -0.1441   -2.0219   -2.0797 H   0  0  0  0  0  0  0  0  0  0  0  0
    0.0266   -2.8887   -3.4535 H   0  0  0  0  0  0  0  0  0  0  0  0
    1.0238   -1.6307   -3.1530 H   0  0  0  0  0  0  0  0  0  0  0  0
   -0.0156    2.9239    0.0260 C   0  0  0  0  0  0  0  0  0  0  0  0
   -0.8321    3.2151   -0.4886 H   0  0  0  0  0  0  0  0  0  0  0  0
    0.8004    3.2380   -0.4752 H   0  0  0  0  0  0  0  0  0  0  0  0
   -0.0301    3.4298    0.9913 H   0  0  0  0  0  0  0  0  0  0  0  0
    0.0055    1.4064    0.0054 C   0  0  0  0  0  0  0  0  0  0  0  0
   -1.1827    0.6991    0.0105 C   0  0  0  0  0  0  0  0  0  0  0  0
   -2.0543    1.1955    0.0204 H   0  0  0  0  0  0  0  0  0  0  0  0
   -1.2014   -0.6863    0.0000 C   0  0  0  0  0  0  0  0  0  0  0  0
   -2.0789   -1.1767   -0.0065 H   0  0  0  0  0  0  0  0  0  0  0  0
    0.0007   -1.3995    0.0006 C   0  0  0  0  0  0  0  0  0  0  0  0
   -0.0118   -2.3921    0.0012 H   0  0  0  0  0  0  0  0  0  0  0  0
    1.2014   -0.7019   -0.0000 C   0  0  0  0  0  0  0  0  0  0  0  0
    2.0813   -1.1934    0.0124 H   0  0  0  0  0  0  0  0  0  0  0  0
    1.1765    0.6822   -0.0165 C   0  0  0  0  0  0  0  0  0  0  0  0
    2.0617    1.1817   -0.0473 H   0  0  0  0  0  0  0  0  0  0  0  0
  1  5  1  0
  5  8  1  0
  1  2  1  0
  1  3  1  0
  1  4  1  0
  5  6  1  0
  5  7  1  0
  8  9  1  0
  8 10  1  0
  8 11  1  0
 12 16  1  0
 16 17  2  0
 17 19  1  0
 19 21  2  0
 21 23  1  0
 23 25  2  0
 25 16  1  0
 12 13  1  0
 12 14  1  0
 12 15  1  0
 17 18  1  0
 19 20  1  0
 21 22  1  0
 23 24  1  0
 25 26  1  0
M  CHG  1   8   1
M  END
>  <PDB_ID>  (3) 
pdb1a39

>  <RESIDUE_NAME>  (3) 
LYS   PHE

>  <FRAG_NAME>  (3) 
ETAM   MBZ

>  <FRAG_ATOM_NUM>  (3) 
fragi: 11  fragj: 15

>  <atom.prop.CHAIN_ID>  (3) 
A A A A A A A A A A A Z Z Z Z Z Z Z Z Z Z Z Z Z Z Z

>  <atom.prop.IS_HEAVY_ATOM>  (3) 
1 0 0 0 1 0 0 1 0 0 0 1 0 0 0 1 1 0 1 0 1 0 1 0 1 0

>  <DIFUSE_FUNC_ATOM>  (3) 
n/a

>  <FINAL_SINGLE_POINT_ENERGY>  (3) 
0

>  <NONCOV_INTER_ENERGY_QM>  (3) 
0

>  <FF_Energy>  (3) 
-5.95

>  <QM_Energy>  (3) 
-14.08

>  <source>  (3) 
ETAM_MBZ

>  <Index>  (3) 
74

$$$$
ETAM-pdb2a0u-A-LYS-22:MBZ-pdb2a0u-A-PHE-42
     RDKit          3D

 26 25  0  0  0  0  0  0  0  0999 V2000
    1.7703   -0.5396   -4.5186 C   0  0  0  0  0  0  0  0  0  0  0  0
    1.6866    0.3270   -4.0352 H   0  0  0  0  0  0  0  0  0  0  0  0
    1.3845   -0.4611   -5.4328 H   0  0  0  0  0  0  0  0  0  0  0  0
    2.8274   -0.7912   -4.6044 H   0  0  0  0  0  0  0  0  0  0  0  0
    0.9892   -1.6012   -3.7516 C   0  0  0  0  0  0  0  0  0  0  0  0
    1.2490   -2.5065   -4.0961 H   0  0  0  0  0  0  0  0  0  0  0  0
    1.2291   -1.5408   -2.7796 H   0  0  0  0  0  0  0  0  0  0  0  0
   -0.4823   -1.4233   -3.9042 N   0  0  0  0  0  4  0  0  0  0  0  0
   -0.8531   -2.1813   -4.4385 H   0  0  0  0  0  0  0  0  0  0  0  0
   -0.9089   -1.4095   -3.0007 H   0  0  0  0  0  0  0  0  0  0  0  0
   -0.6641   -0.5603   -4.3745 H   0  0  0  0  0  0  0  0  0  0  0  0
    0.0026    2.9054   -0.0013 C   0  0  0  0  0  0  0  0  0  0  0  0
   -0.8101    3.2126   -0.4737 H   0  0  0  0  0  0  0  0  0  0  0  0
    0.8220    3.2101   -0.4643 H   0  0  0  0  0  0  0  0  0  0  0  0
   -0.0024    3.3522    0.9929 H   0  0  0  0  0  0  0  0  0  0  0  0
    0.0004    1.4038    0.0034 C   0  0  0  0  0  0  0  0  0  0  0  0
   -1.1979    0.6947   -0.0010 C   0  0  0  0  0  0  0  0  0  0  0  0
   -2.0640    1.1837   -0.0064 H   0  0  0  0  0  0  0  0  0  0  0  0
   -1.2021   -0.6993    0.0000 C   0  0  0  0  0  0  0  0  0  0  0  0
   -2.0784   -1.1915    0.0018 H   0  0  0  0  0  0  0  0  0  0  0  0
   -0.0001   -1.3954   -0.0001 C   0  0  0  0  0  0  0  0  0  0  0  0
   -0.0040   -2.3937   -0.0009 H   0  0  0  0  0  0  0  0  0  0  0  0
    1.2021   -0.6987   -0.0000 C   0  0  0  0  0  0  0  0  0  0  0  0
    2.0828   -1.1960    0.0032 H   0  0  0  0  0  0  0  0  0  0  0  0
    1.1976    0.6948   -0.0024 C   0  0  0  0  0  0  0  0  0  0  0  0
    2.0663    1.1900   -0.0091 H   0  0  0  0  0  0  0  0  0  0  0  0
  1  5  1  0
  5  8  1  0
  1  2  1  0
  1  3  1  0
  1  4  1  0
  5  6  1  0
  5  7  1  0
  8  9  1  0
  8 10  1  0
  8 11  1  0
 12 16  1  0
 16 17  2  0
 17 19  1  0
 19 21  2  0
 21 23  1  0
 23 25  2  0
 25 16  1  0
 12 13  1  0
 12 14  1  0
 12 15  1  0
 17 18  1  0
 19 20  1  0
 21 22  1  0
 23 24  1  0
 25 26  1  0
M  CHG  1   8   1
M  END
>  <PDB_ID>  (4) 
pdb2a0u

>  <RESIDUE_NAME>  (4) 
LYS   PHE

>  <FRAG_NAME>  (4) 
ETAM   MBZ

>  <FRAG_ATOM_NUM>  (4) 
fragi: 11  fragj: 15

>  <atom.prop.CHAIN_ID>  (4) 
A A A A A A A A A A A Z Z Z Z Z Z Z Z Z Z Z Z Z Z Z

>  <atom.prop.IS_HEAVY_ATOM>  (4) 
1 0 0 0 1 0 0 1 0 0 0 1 0 0 0 1 1 0 1 0 1 0 1 0 1 0

>  <DIFUSE_FUNC_ATOM>  (4) 
n/a

>  <FINAL_SINGLE_POINT_ENERGY>  (4) 
0

>  <NONCOV_INTER_ENERGY_QM>  (4) 
0

>  <FF_Energy>  (4) 
-5.34

>  <QM_Energy>  (4) 
-10.65

>  <source>  (4) 
ETAM_MBZ

>  <Index>  (4) 
83

$$$$
ETAM-pdb2a2l-A-LYS-6:MBZ-pdb2a2l-D-PHE-142
     RDKit          3D

 26 25  0  0  0  0  0  0  0  0999 V2000
   -0.7687   -1.5262    3.6252 C   0  0  0  0  0  0  0  0  0  0  0  0
   -0.8069   -0.9630    2.7980 H   0  0  0  0  0  0  0  0  0  0  0  0
   -1.1490   -1.0093    4.3936 H   0  0  0  0  0  0  0  0  0  0  0  0
   -1.3876   -2.4091    3.4657 H   0  0  0  0  0  0  0  0  0  0  0  0
    0.6948   -1.8440    3.9304 C   0  0  0  0  0  0  0  0  0  0  0  0
    0.7478   -2.3075    4.8183 H   0  0  0  0  0  0  0  0  0  0  0  0
    1.0489   -2.4571    3.2199 H   0  0  0  0  0  0  0  0  0  0  0  0
    1.5425   -0.6081    3.9738 N   0  0  0  0  0  4  0  0  0  0  0  0
    2.3871   -0.8085    4.4657 H   0  0  0  0  0  0  0  0  0  0  0  0
    1.7535   -0.3245    3.0402 H   0  0  0  0  0  0  0  0  0  0  0  0
    1.0406    0.1151    4.4428 H   0  0  0  0  0  0  0  0  0  0  0  0
   -0.0034    2.9083   -0.0144 C   0  0  0  0  0  0  0  0  0  0  0  0
   -0.7786    3.2103   -0.5486 H   0  0  0  0  0  0  0  0  0  0  0  0
    0.8487    3.2122   -0.4144 H   0  0  0  0  0  0  0  0  0  0  0  0
   -0.0855    3.3595    0.9745 H   0  0  0  0  0  0  0  0  0  0  0  0
   -0.0034    1.4069   -0.0004 C   0  0  0  0  0  0  0  0  0  0  0  0
   -1.2016    0.6986    0.0026 C   0  0  0  0  0  0  0  0  0  0  0  0
   -2.0685    1.1850    0.0050 H   0  0  0  0  0  0  0  0  0  0  0  0
   -1.2050   -0.7006    0.0000 C   0  0  0  0  0  0  0  0  0  0  0  0
   -2.0774   -1.1945   -0.0060 H   0  0  0  0  0  0  0  0  0  0  0  0
    0.0070   -1.4021    0.0071 C   0  0  0  0  0  0  0  0  0  0  0  0
    0.0002   -2.3971    0.0168 H   0  0  0  0  0  0  0  0  0  0  0  0
    1.2050   -0.6995   -0.0000 C   0  0  0  0  0  0  0  0  0  0  0  0
    2.0893   -1.1929    0.0032 H   0  0  0  0  0  0  0  0  0  0  0  0
    1.1981    0.6967   -0.0093 C   0  0  0  0  0  0  0  0  0  0  0  0
    2.0639    1.1932   -0.0236 H   0  0  0  0  0  0  0  0  0  0  0  0
  1  5  1  0
  5  8  1  0
  1  2  1  0
  1  3  1  0
  1  4  1  0
  5  6  1  0
  5  7  1  0
  8  9  1  0
  8 10  1  0
  8 11  1  0
 12 16  1  0
 16 17  2  0
 17 19  1  0
 19 21  2  0
 21 23  1  0
 23 25  2  0
 25 16  1  0
 12 13  1  0
 12 14  1  0
 12 15  1  0
 17 18  1  0
 19 20  1  0
 21 22  1  0
 23 24  1  0
 25 26  1  0
M  CHG  1   8   1
M  END
>  <PDB_ID>  (5) 
pdb2a2l

>  <RESIDUE_NAME>  (5) 
LYS   PHE

>  <FRAG_NAME>  (5) 
ETAM   MBZ

>  <FRAG_ATOM_NUM>  (5) 
fragi: 11  fragj: 15

>  <atom.prop.CHAIN_ID>  (5) 
A A A A A A A A A A A Z Z Z Z Z Z Z Z Z Z Z Z Z Z Z

>  <atom.prop.IS_HEAVY_ATOM>  (5) 
1 0 0 0 1 0 0 1 0 0 0 1 0 0 0 1 1 0 1 0 1 0 1 0 1 0

>  <DIFUSE_FUNC_ATOM>  (5) 
n/a

>  <FINAL_SINGLE_POINT_ENERGY>  (5) 
0

>  <NONCOV_INTER_ENERGY_QM>  (5) 
0

>  <FF_Energy>  (5) 
-5.34

>  <QM_Energy>  (5) 
-10.35

>  <source>  (5) 
ETAM_MBZ

>  <Index>  (5) 
86

$$$$
ETAM-pdb1a1x-A-LYS-103:MBZ-pdb1a1x-A-PHE-40
     RDKit          3D

 26 25  0  0  0  0  0  0  0  0999 V2000
    2.1599    0.0016    3.8543 C   0  0  0  0  0  0  0  0  0  0  0  0
    2.4926   -0.8987    3.5992 H   0  0  0  0  0  0  0  0  0  0  0  0
    2.0808    0.0802    4.8406 H   0  0  0  0  0  0  0  0  0  0  0  0
    2.8612    0.7537    3.4930 H   0  0  0  0  0  0  0  0  0  0  0  0
    0.8043    0.2136    3.2381 C   0  0  0  0  0  0  0  0  0  0  0  0
    0.4344    1.0972    3.5490 H   0  0  0  0  0  0  0  0  0  0  0  0
    0.8979    0.2447    2.2363 H   0  0  0  0  0  0  0  0  0  0  0  0
   -0.1457   -0.8629    3.6016 N   0  0  0  0  0  4  0  0  0  0  0  0
   -0.2146   -0.9272    4.5977 H   0  0  0  0  0  0  0  0  0  0  0  0
   -1.0473   -0.6576    3.2186 H   0  0  0  0  0  0  0  0  0  0  0  0
    0.1800   -1.7356    3.2346 H   0  0  0  0  0  0  0  0  0  0  0  0
   -0.0025    2.8853   -0.0854 C   0  0  0  0  0  0  0  0  0  0  0  0
    0.8189    3.2283    0.3428 H   0  0  0  0  0  0  0  0  0  0  0  0
   -0.8141    3.2256    0.3631 H   0  0  0  0  0  0  0  0  0  0  0  0
   -0.0160    3.2602   -1.1089 H   0  0  0  0  0  0  0  0  0  0  0  0
    0.0008    1.4009   -0.0013 C   0  0  0  0  0  0  0  0  0  0  0  0
   -1.1948    0.6958    0.0026 C   0  0  0  0  0  0  0  0  0  0  0  0
   -2.0620    1.1824    0.0059 H   0  0  0  0  0  0  0  0  0  0  0  0
   -1.2005   -0.7017    0.0000 C   0  0  0  0  0  0  0  0  0  0  0  0
   -2.0789   -1.1906    0.0011 H   0  0  0  0  0  0  0  0  0  0  0  0
   -0.0016   -1.3969   -0.0026 C   0  0  0  0  0  0  0  0  0  0  0  0
   -0.0012   -2.3942   -0.0072 H   0  0  0  0  0  0  0  0  0  0  0  0
    1.2005   -0.6957   -0.0000 C   0  0  0  0  0  0  0  0  0  0  0  0
    2.0819   -1.1921    0.0028 H   0  0  0  0  0  0  0  0  0  0  0  0
    1.1956    0.6977    0.0013 C   0  0  0  0  0  0  0  0  0  0  0  0
    2.0641    1.1922    0.0031 H   0  0  0  0  0  0  0  0  0  0  0  0
  1  5  1  0
  5  8  1  0
  1  2  1  0
  1  3  1  0
  1  4  1  0
  5  6  1  0
  5  7  1  0
  8  9  1  0
  8 10  1  0
  8 11  1  0
 12 16  1  0
 16 17  2  0
 17 19  1  0
 19 21  2  0
 21 23  1  0
 23 25  2  0
 25 16  1  0
 12 13  1  0
 12 14  1  0
 12 15  1  0
 17 18  1  0
 19 20  1  0
 21 22  1  0
 23 24  1  0
 25 26  1  0
M  CHG  1   8   1
M  END
>  <PDB_ID>  (6) 
pdb1a1x

>  <RESIDUE_NAME>  (6) 
LYS   PHE

>  <FRAG_NAME>  (6) 
ETAM   MBZ

>  <FRAG_ATOM_NUM>  (6) 
fragi: 11  fragj: 15

>  <atom.prop.CHAIN_ID>  (6) 
A A A A A A A A A A A Z Z Z Z Z Z Z Z Z Z Z Z Z Z Z

>  <atom.prop.IS_HEAVY_ATOM>  (6) 
1 0 0 0 1 0 0 1 0 0 0 1 0 0 0 1 1 0 1 0 1 0 1 0 1 0

>  <DIFUSE_FUNC_ATOM>  (6) 
n/a

>  <FINAL_SINGLE_POINT_ENERGY>  (6) 
0

>  <NONCOV_INTER_ENERGY_QM>  (6) 
0

>  <FF_Energy>  (6) 
-2.38

>  <QM_Energy>  (6) 
-11.9

>  <source>  (6) 
ETAM_MBZ

>  <Index>  (6) 
97

$$$$
ETAM-pdb2a4a-A-LYS-70:MBZ-pdb2a4a-A-PHE-44
     RDKit          3D

 26 25  0  0  0  0  0  0  0  0999 V2000
    3.9637    2.5876   -1.0156 C   0  0  0  0  0  0  0  0  0  0  0  0
    4.4825    2.2242   -1.7775 H   0  0  0  0  0  0  0  0  0  0  0  0
    3.1882    2.0072   -0.8062 H   0  0  0  0  0  0  0  0  0  0  0  0
    4.6140    2.6244   -0.1416 H   0  0  0  0  0  0  0  0  0  0  0  0
    3.4388    3.9854   -1.4037 C   0  0  0  0  0  0  0  0  0  0  0  0
    4.2163    4.5614   -1.6469 H   0  0  0  0  0  0  0  0  0  0  0  0
    2.8303    3.8906   -2.1889 H   0  0  0  0  0  0  0  0  0  0  0  0
    2.6853    4.6259   -0.2696 N   0  0  0  0  0  4  0  0  0  0  0  0
    1.7171    4.6626   -0.5041 H   0  0  0  0  0  0  0  0  0  0  0  0
    2.8159    4.0800    0.5549 H   0  0  0  0  0  0  0  0  0  0  0  0
    3.0372    5.5478   -0.1280 H   0  0  0  0  0  0  0  0  0  0  0  0
    0.0044    2.9297   -0.0057 C   0  0  0  0  0  0  0  0  0  0  0  0
    0.6707    3.2296   -0.6712 H   0  0  0  0  0  0  0  0  0  0  0  0
    0.2430    3.2308    0.9043 H   0  0  0  0  0  0  0  0  0  0  0  0
   -0.9517    3.3844   -0.2650 H   0  0  0  0  0  0  0  0  0  0  0  0
   -0.0023    1.4111   -0.0068 C   0  0  0  0  0  0  0  0  0  0  0  0
   -1.2038    0.6909    0.0026 C   0  0  0  0  0  0  0  0  0  0  0  0
   -2.0702    1.1819    0.0102 H   0  0  0  0  0  0  0  0  0  0  0  0
   -1.2080   -0.7019    0.0000 C   0  0  0  0  0  0  0  0  0  0  0  0
   -2.0781   -1.1991   -0.0037 H   0  0  0  0  0  0  0  0  0  0  0  0
    0.0061   -1.3993    0.0041 C   0  0  0  0  0  0  0  0  0  0  0  0
   -0.0005   -2.3969    0.0096 H   0  0  0  0  0  0  0  0  0  0  0  0
    1.2080   -0.7019   -0.0000 C   0  0  0  0  0  0  0  0  0  0  0  0
    2.0896   -1.1919   -0.0016 H   0  0  0  0  0  0  0  0  0  0  0  0
    1.1999    0.7012    0.0001 C   0  0  0  0  0  0  0  0  0  0  0  0
    2.0669    1.1951    0.0039 H   0  0  0  0  0  0  0  0  0  0  0  0
  1  5  1  0
  5  8  1  0
  1  2  1  0
  1  3  1  0
  1  4  1  0
  5  6  1  0
  5  7  1  0
  8  9  1  0
  8 10  1  0
  8 11  1  0
 12 16  1  0
 16 17  2  0
 17 19  1  0
 19 21  2  0
 21 23  1  0
 23 25  2  0
 25 16  1  0
 12 13  1  0
 12 14  1  0
 12 15  1  0
 17 18  1  0
 19 20  1  0
 21 22  1  0
 23 24  1  0
 25 26  1  0
M  CHG  1   8   1
M  END
>  <PDB_ID>  (7) 
pdb2a4a

>  <RESIDUE_NAME>  (7) 
LYS   PHE

>  <FRAG_NAME>  (7) 
ETAM   MBZ

>  <FRAG_ATOM_NUM>  (7) 
fragi: 11  fragj: 15

>  <atom.prop.CHAIN_ID>  (7) 
A A A A A A A A A A A Z Z Z Z Z Z Z Z Z Z Z Z Z Z Z

>  <atom.prop.IS_HEAVY_ATOM>  (7) 
1 0 0 0 1 0 0 1 0 0 0 1 0 0 0 1 1 0 1 0 1 0 1 0 1 0

>  <DIFUSE_FUNC_ATOM>  (7) 
n/a

>  <FINAL_SINGLE_POINT_ENERGY>  (7) 
0

>  <NONCOV_INTER_ENERGY_QM>  (7) 
0

>  <FF_Energy>  (7) 
15.05

>  <QM_Energy>  (7) 
0.44

>  <source>  (7) 
ETAM_MBZ

>  <Index>  (7) 
101

$$$$
ETAM-pdb1a2v-A-LYS-502:MBZ-pdb1a2v-A-PHE-526
     RDKit          3D

 26 25  0  0  0  0  0  0  0  0999 V2000
   -1.5396   -2.5165    4.6269 C   0  0  0  0  0  0  0  0  0  0  0  0
   -1.1590   -2.1419    5.4682 H   0  0  0  0  0  0  0  0  0  0  0  0
   -1.0521   -3.3459    4.3695 H   0  0  0  0  0  0  0  0  0  0  0  0
   -2.5861   -2.7675    4.8002 H   0  0  0  0  0  0  0  0  0  0  0  0
   -1.3892   -1.4972    3.5250 C   0  0  0  0  0  0  0  0  0  0  0  0
   -1.3893   -1.9675    2.6406 H   0  0  0  0  0  0  0  0  0  0  0  0
   -2.1616   -0.8606    3.5593 H   0  0  0  0  0  0  0  0  0  0  0  0
   -0.1270   -0.7427    3.6776 N   0  0  0  0  0  4  0  0  0  0  0  0
   -0.3123    0.2396    3.6167 H   0  0  0  0  0  0  0  0  0  0  0  0
    0.2823   -0.9477    4.5683 H   0  0  0  0  0  0  0  0  0  0  0  0
    0.5112   -1.0046    2.9518 H   0  0  0  0  0  0  0  0  0  0  0  0
   -0.0137    2.9079    0.0023 C   0  0  0  0  0  0  0  0  0  0  0  0
    0.8493    3.2235    0.3657 H   0  0  0  0  0  0  0  0  0  0  0  0
   -0.7720    3.2090    0.5598 H   0  0  0  0  0  0  0  0  0  0  0  0
   -0.1359    3.3437   -0.9893 H   0  0  0  0  0  0  0  0  0  0  0  0
   -0.0013    1.4118   -0.0001 C   0  0  0  0  0  0  0  0  0  0  0  0
   -1.1918    0.6916   -0.0015 C   0  0  0  0  0  0  0  0  0  0  0  0
   -2.0656    1.1746   -0.0052 H   0  0  0  0  0  0  0  0  0  0  0  0
   -1.2007   -0.7141   -0.0000 C   0  0  0  0  0  0  0  0  0  0  0  0
   -2.0792   -1.1971    0.0014 H   0  0  0  0  0  0  0  0  0  0  0  0
   -0.0034   -1.4040    0.0012 C   0  0  0  0  0  0  0  0  0  0  0  0
    0.0020   -2.4028    0.0028 H   0  0  0  0  0  0  0  0  0  0  0  0
    1.2007   -0.7010   -0.0000 C   0  0  0  0  0  0  0  0  0  0  0  0
    2.0837   -1.1876    0.0004 H   0  0  0  0  0  0  0  0  0  0  0  0
    1.1965    0.7158    0.0004 C   0  0  0  0  0  0  0  0  0  0  0  0
    2.0640    1.1996    0.0002 H   0  0  0  0  0  0  0  0  0  0  0  0
  1  5  1  0
  5  8  1  0
  1  2  1  0
  1  3  1  0
  1  4  1  0
  5  6  1  0
  5  7  1  0
  8  9  1  0
  8 10  1  0
  8 11  1  0
 12 16  1  0
 16 17  2  0
 17 19  1  0
 19 21  2  0
 21 23  1  0
 23 25  2  0
 25 16  1  0
 12 13  1  0
 12 14  1  0
 12 15  1  0
 17 18  1  0
 19 20  1  0
 21 22  1  0
 23 24  1  0
 25 26  1  0
M  CHG  1   8   1
M  END
>  <PDB_ID>  (8) 
pdb1a2v

>  <RESIDUE_NAME>  (8) 
LYS   PHE

>  <FRAG_NAME>  (8) 
ETAM   MBZ

>  <FRAG_ATOM_NUM>  (8) 
fragi: 11  fragj: 15

>  <atom.prop.CHAIN_ID>  (8) 
A A A A A A A A A A A Z Z Z Z Z Z Z Z Z Z Z Z Z Z Z

>  <atom.prop.IS_HEAVY_ATOM>  (8) 
1 0 0 0 1 0 0 1 0 0 0 1 0 0 0 1 1 0 1 0 1 0 1 0 1 0

>  <DIFUSE_FUNC_ATOM>  (8) 
n/a

>  <FINAL_SINGLE_POINT_ENERGY>  (8) 
0

>  <NONCOV_INTER_ENERGY_QM>  (8) 
0

>  <FF_Energy>  (8) 
-6.8

>  <QM_Energy>  (8) 
-12.44

>  <source>  (8) 
ETAM_MBZ

>  <Index>  (8) 
110

$$$$
ETAM-pdb1a2v-B-LYS-502:MBZ-pdb1a2v-B-PHE-526
     RDKit          3D

 26 25  0  0  0  0  0  0  0  0999 V2000
   -1.5392   -2.6283    4.5833 C   0  0  0  0  0  0  0  0  0  0  0  0
   -1.0949   -2.3494    5.4299 H   0  0  0  0  0  0  0  0  0  0  0  0
   -1.1089   -3.4510    4.2244 H   0  0  0  0  0  0  0  0  0  0  0  0
   -2.5911   -2.8325    4.7835 H   0  0  0  0  0  0  0  0  0  0  0  0
   -1.3605   -1.5075    3.5557 C   0  0  0  0  0  0  0  0  0  0  0  0
   -1.5789   -1.8658    2.6480 H   0  0  0  0  0  0  0  0  0  0  0  0
   -1.9892   -0.7621    3.7800 H   0  0  0  0  0  0  0  0  0  0  0  0
    0.0398   -0.9872    3.5554 N   0  0  0  0  0  4  0  0  0  0  0  0
    0.2653   -0.6493    4.4679 H   0  0  0  0  0  0  0  0  0  0  0  0
    0.6650   -1.7252    3.3047 H   0  0  0  0  0  0  0  0  0  0  0  0
    0.1140   -0.2434    2.8932 H   0  0  0  0  0  0  0  0  0  0  0  0
   -0.0072    2.9100    0.0587 C   0  0  0  0  0  0  0  0  0  0  0  0
    0.8602    3.2000    0.4352 H   0  0  0  0  0  0  0  0  0  0  0  0
   -0.7607    3.1852    0.6372 H   0  0  0  0  0  0  0  0  0  0  0  0
   -0.1326    3.3791   -0.9172 H   0  0  0  0  0  0  0  0  0  0  0  0
   -0.0012    1.4071    0.0011 C   0  0  0  0  0  0  0  0  0  0  0  0
   -1.1981    0.6960   -0.0031 C   0  0  0  0  0  0  0  0  0  0  0  0
   -2.0655    1.1838   -0.0092 H   0  0  0  0  0  0  0  0  0  0  0  0
   -1.1998   -0.6984   -0.0000 C   0  0  0  0  0  0  0  0  0  0  0  0
   -2.0744   -1.1939    0.0025 H   0  0  0  0  0  0  0  0  0  0  0  0
    0.0066   -1.3970    0.0019 C   0  0  0  0  0  0  0  0  0  0  0  0
   -0.0051   -2.3970    0.0041 H   0  0  0  0  0  0  0  0  0  0  0  0
    1.1998   -0.7078   -0.0000 C   0  0  0  0  0  0  0  0  0  0  0  0
    2.0854   -1.1931   -0.0002 H   0  0  0  0  0  0  0  0  0  0  0  0
    1.1927    0.7001    0.0001 C   0  0  0  0  0  0  0  0  0  0  0  0
    2.0641    1.1885   -0.0014 H   0  0  0  0  0  0  0  0  0  0  0  0
  1  5  1  0
  5  8  1  0
  1  2  1  0
  1  3  1  0
  1  4  1  0
  5  6  1  0
  5  7  1  0
  8  9  1  0
  8 10  1  0
  8 11  1  0
 12 16  1  0
 16 17  2  0
 17 19  1  0
 19 21  2  0
 21 23  1  0
 23 25  2  0
 25 16  1  0
 12 13  1  0
 12 14  1  0
 12 15  1  0
 17 18  1  0
 19 20  1  0
 21 22  1  0
 23 24  1  0
 25 26  1  0
M  CHG  1   8   1
M  END
>  <PDB_ID>  (9) 
pdb1a2v

>  <RESIDUE_NAME>  (9) 
LYS   PHE

>  <FRAG_NAME>  (9) 
ETAM   MBZ

>  <FRAG_ATOM_NUM>  (9) 
fragi: 11  fragj: 15

>  <atom.prop.CHAIN_ID>  (9) 
A A A A A A A A A A A Z Z Z Z Z Z Z Z Z Z Z Z Z Z Z

>  <atom.prop.IS_HEAVY_ATOM>  (9) 
1 0 0 0 1 0 0 1 0 0 0 1 0 0 0 1 1 0 1 0 1 0 1 0 1 0

>  <DIFUSE_FUNC_ATOM>  (9) 
n/a

>  <FINAL_SINGLE_POINT_ENERGY>  (9) 
0

>  <NONCOV_INTER_ENERGY_QM>  (9) 
0

>  <FF_Energy>  (9) 
-6.99

>  <QM_Energy>  (9) 
-12.81

>  <source>  (9) 
ETAM_MBZ

>  <Index>  (9) 
111

$$$$
ETAM-pdb2a61-A-LYS-104:MBZ-pdb2a61-A-PHE-30
     RDKit          3D

 26 25  0  0  0  0  0  0  0  0999 V2000
   -1.0661   -4.7270    0.0050 C   0  0  0  0  0  0  0  0  0  0  0  0
   -0.6745   -3.9810   -0.5031 H   0  0  0  0  0  0  0  0  0  0  0  0
   -1.5159   -4.4205    0.8249 H   0  0  0  0  0  0  0  0  0  0  0  0
   -1.7946   -5.2363   -0.6259 H   0  0  0  0  0  0  0  0  0  0  0  0
    0.0683   -5.6981    0.4027 C   0  0  0  0  0  0  0  0  0  0  0  0
   -0.2634   -6.2946    1.1351 H   0  0  0  0  0  0  0  0  0  0  0  0
    0.3068   -6.2547   -0.3938 H   0  0  0  0  0  0  0  0  0  0  0  0
    1.3052   -4.9731    0.8825 N   0  0  0  0  0  4  0  0  0  0  0  0
    1.7336   -4.5223    0.1046 H   0  0  0  0  0  0  0  0  0  0  0  0
    1.0372   -4.2997    1.5654 H   0  0  0  0  0  0  0  0  0  0  0  0
    1.9300   -5.6371    1.2815 H   0  0  0  0  0  0  0  0  0  0  0  0
   -0.0033    2.9027    0.0426 C   0  0  0  0  0  0  0  0  0  0  0  0
   -0.8666    3.2316   -0.3016 H   0  0  0  0  0  0  0  0  0  0  0  0
    0.7540    3.2286   -0.4970 H   0  0  0  0  0  0  0  0  0  0  0  0
    0.1190    3.2948    1.0522 H   0  0  0  0  0  0  0  0  0  0  0  0
   -0.0108    1.4137   -0.0043 C   0  0  0  0  0  0  0  0  0  0  0  0
   -1.2022    0.7178   -0.0085 C   0  0  0  0  0  0  0  0  0  0  0  0
   -2.0723    1.2069   -0.0192 H   0  0  0  0  0  0  0  0  0  0  0  0
   -1.2232   -0.6861    0.0000 C   0  0  0  0  0  0  0  0  0  0  0  0
   -2.0900   -1.1775    0.0085 H   0  0  0  0  0  0  0  0  0  0  0  0
    0.0080   -1.4192   -0.0013 C   0  0  0  0  0  0  0  0  0  0  0  0
   -0.0208   -2.4059   -0.0041 H   0  0  0  0  0  0  0  0  0  0  0  0
    1.2232   -0.7247    0.0000 C   0  0  0  0  0  0  0  0  0  0  0  0
    2.0983   -1.2055   -0.0075 H   0  0  0  0  0  0  0  0  0  0  0  0
    1.2050    0.6986    0.0141 C   0  0  0  0  0  0  0  0  0  0  0  0
    2.0679    1.1919    0.0361 H   0  0  0  0  0  0  0  0  0  0  0  0
  1  5  1  0
  5  8  1  0
  1  2  1  0
  1  3  1  0
  1  4  1  0
  5  6  1  0
  5  7  1  0
  8  9  1  0
  8 10  1  0
  8 11  1  0
 12 16  1  0
 16 17  2  0
 17 19  1  0
 19 21  2  0
 21 23  1  0
 23 25  2  0
 25 16  1  0
 12 13  1  0
 12 14  1  0
 12 15  1  0
 17 18  1  0
 19 20  1  0
 21 22  1  0
 23 24  1  0
 25 26  1  0
M  CHG  1   8   1
M  END
>  <PDB_ID>  (10) 
pdb2a61

>  <RESIDUE_NAME>  (10) 
LYS   PHE

>  <FRAG_NAME>  (10) 
ETAM   MBZ

>  <FRAG_ATOM_NUM>  (10) 
fragi: 11  fragj: 15

>  <atom.prop.CHAIN_ID>  (10) 
A A A A A A A A A A A Z Z Z Z Z Z Z Z Z Z Z Z Z Z Z

>  <atom.prop.IS_HEAVY_ATOM>  (10) 
1 0 0 0 1 0 0 1 0 0 0 1 0 0 0 1 1 0 1 0 1 0 1 0 1 0

>  <DIFUSE_FUNC_ATOM>  (10) 
n/a

>  <FINAL_SINGLE_POINT_ENERGY>  (10) 
0

>  <NONCOV_INTER_ENERGY_QM>  (10) 
0

>  <FF_Energy>  (10) 
5.04

>  <QM_Energy>  (10) 
-1.74

>  <source>  (10) 
ETAM_MBZ

>  <Index>  (10) 
114

$$$$
ETAM-pdb1a2v-C-LYS-502:MBZ-pdb1a2v-C-PHE-526
     RDKit          3D

 26 25  0  0  0  0  0  0  0  0999 V2000
   -1.0123   -2.5330    4.7661 C   0  0  0  0  0  0  0  0  0  0  0  0
   -0.5981   -2.1088    5.5604 H   0  0  0  0  0  0  0  0  0  0  0  0
   -0.5069   -3.3403    4.4909 H   0  0  0  0  0  0  0  0  0  0  0  0
   -2.0414   -2.8084    4.9963 H   0  0  0  0  0  0  0  0  0  0  0  0
   -0.9808   -1.5332    3.6172 C   0  0  0  0  0  0  0  0  0  0  0  0
   -1.0097   -2.0349    2.7514 H   0  0  0  0  0  0  0  0  0  0  0  0
   -1.7857   -0.9406    3.6820 H   0  0  0  0  0  0  0  0  0  0  0  0
    0.2488   -0.6978    3.6610 N   0  0  0  0  0  4  0  0  0  0  0  0
    0.9251   -1.1338    4.2538 H   0  0  0  0  0  0  0  0  0  0  0  0
    0.6215   -0.6071    2.7373 H   0  0  0  0  0  0  0  0  0  0  0  0
    0.0229    0.2072    4.0206 H   0  0  0  0  0  0  0  0  0  0  0  0
    0.0037    2.9222    0.0215 C   0  0  0  0  0  0  0  0  0  0  0  0
    0.9033    3.2178    0.3029 H   0  0  0  0  0  0  0  0  0  0  0  0
   -0.6901    3.2167    0.6610 H   0  0  0  0  0  0  0  0  0  0  0  0
   -0.2141    3.3765   -0.9451 H   0  0  0  0  0  0  0  0  0  0  0  0
    0.0008    1.4116    0.0004 C   0  0  0  0  0  0  0  0  0  0  0  0
   -1.1940    0.7019   -0.0009 C   0  0  0  0  0  0  0  0  0  0  0  0
   -2.0635    1.1861   -0.0041 H   0  0  0  0  0  0  0  0  0  0  0  0
   -1.2042   -0.7058   -0.0000 C   0  0  0  0  0  0  0  0  0  0  0  0
   -2.0810   -1.1892    0.0001 H   0  0  0  0  0  0  0  0  0  0  0  0
   -0.0008   -1.4038    0.0017 C   0  0  0  0  0  0  0  0  0  0  0  0
   -0.0028   -2.3999    0.0037 H   0  0  0  0  0  0  0  0  0  0  0  0
    1.2042   -0.7023    0.0000 C   0  0  0  0  0  0  0  0  0  0  0  0
    2.0841   -1.1942    0.0010 H   0  0  0  0  0  0  0  0  0  0  0  0
    1.1940    0.6984   -0.0012 C   0  0  0  0  0  0  0  0  0  0  0  0
    2.0662    1.1911   -0.0042 H   0  0  0  0  0  0  0  0  0  0  0  0
  1  5  1  0
  5  8  1  0
  1  2  1  0
  1  3  1  0
  1  4  1  0
  5  6  1  0
  5  7  1  0
  8  9  1  0
  8 10  1  0
  8 11  1  0
 12 16  1  0
 16 17  2  0
 17 19  1  0
 19 21  2  0
 21 23  1  0
 23 25  2  0
 25 16  1  0
 12 13  1  0
 12 14  1  0
 12 15  1  0
 17 18  1  0
 19 20  1  0
 21 22  1  0
 23 24  1  0
 25 26  1  0
M  CHG  1   8   1
M  END
>  <PDB_ID>  (11) 
pdb1a2v

>  <RESIDUE_NAME>  (11) 
LYS   PHE

>  <FRAG_NAME>  (11) 
ETAM   MBZ

>  <FRAG_ATOM_NUM>  (11) 
fragi: 11  fragj: 15

>  <atom.prop.CHAIN_ID>  (11) 
A A A A A A A A A A A Z Z Z Z Z Z Z Z Z Z Z Z Z Z Z

>  <atom.prop.IS_HEAVY_ATOM>  (11) 
1 0 0 0 1 0 0 1 0 0 0 1 0 0 0 1 1 0 1 0 1 0 1 0 1 0

>  <DIFUSE_FUNC_ATOM>  (11) 
n/a

>  <FINAL_SINGLE_POINT_ENERGY>  (11) 
0

>  <NONCOV_INTER_ENERGY_QM>  (11) 
0

>  <FF_Energy>  (11) 
-7.22

>  <QM_Energy>  (11) 
-13.39

>  <source>  (11) 
ETAM_MBZ

>  <Index>  (11) 
118

$$$$
ETAM-pdb1a2v-D-LYS-502:MBZ-pdb1a2v-D-PHE-526
     RDKit          3D

 26 25  0  0  0  0  0  0  0  0999 V2000
   -1.3622   -2.5340    4.7331 C   0  0  0  0  0  0  0  0  0  0  0  0
   -1.1051   -2.0203    5.5419 H   0  0  0  0  0  0  0  0  0  0  0  0
   -0.7609   -3.3121    4.6027 H   0  0  0  0  0  0  0  0  0  0  0  0
   -2.3860   -2.8899    4.8487 H   0  0  0  0  0  0  0  0  0  0  0  0
   -1.2426   -1.6204    3.5208 C   0  0  0  0  0  0  0  0  0  0  0  0
   -1.2631   -2.1801    2.6893 H   0  0  0  0  0  0  0  0  0  0  0  0
   -2.0244   -0.9926    3.5094 H   0  0  0  0  0  0  0  0  0  0  0  0
    0.0190   -0.8309    3.5493 N   0  0  0  0  0  4  0  0  0  0  0  0
    0.2192   -0.4927    2.6299 H   0  0  0  0  0  0  0  0  0  0  0  0
   -0.0876   -0.0588    4.1753 H   0  0  0  0  0  0  0  0  0  0  0  0
    0.7685   -1.4147    3.8617 H   0  0  0  0  0  0  0  0  0  0  0  0
   -0.0059    2.9018    0.0533 C   0  0  0  0  0  0  0  0  0  0  0  0
    0.8807    3.1940    0.3739 H   0  0  0  0  0  0  0  0  0  0  0  0
   -0.7245    3.1771    0.6710 H   0  0  0  0  0  0  0  0  0  0  0  0
   -0.1900    3.3689   -0.9141 H   0  0  0  0  0  0  0  0  0  0  0  0
    0.0004    1.3890    0.0016 C   0  0  0  0  0  0  0  0  0  0  0  0
   -1.1949    0.6731   -0.0018 C   0  0  0  0  0  0  0  0  0  0  0  0
   -2.0614    1.1745   -0.0070 H   0  0  0  0  0  0  0  0  0  0  0  0
   -1.1984   -0.6938    0.0000 C   0  0  0  0  0  0  0  0  0  0  0  0
   -2.0716   -1.1988    0.0005 H   0  0  0  0  0  0  0  0  0  0  0  0
    0.0007   -1.3747    0.0029 C   0  0  0  0  0  0  0  0  0  0  0  0
    0.0019   -2.3805    0.0069 H   0  0  0  0  0  0  0  0  0  0  0  0
    1.1984   -0.6833   -0.0000 C   0  0  0  0  0  0  0  0  0  0  0  0
    2.0792   -1.1884    0.0010 H   0  0  0  0  0  0  0  0  0  0  0  0
    1.1938    0.6897   -0.0026 C   0  0  0  0  0  0  0  0  0  0  0  0
    2.0604    1.1932   -0.0083 H   0  0  0  0  0  0  0  0  0  0  0  0
  1  5  1  0
  5  8  1  0
  1  2  1  0
  1  3  1  0
  1  4  1  0
  5  6  1  0
  5  7  1  0
  8  9  1  0
  8 10  1  0
  8 11  1  0
 12 16  1  0
 16 17  2  0
 17 19  1  0
 19 21  2  0
 21 23  1  0
 23 25  2  0
 25 16  1  0
 12 13  1  0
 12 14  1  0
 12 15  1  0
 17 18  1  0
 19 20  1  0
 21 22  1  0
 23 24  1  0
 25 26  1  0
M  CHG  1   8   1
M  END
>  <PDB_ID>  (12) 
pdb1a2v

>  <RESIDUE_NAME>  (12) 
LYS   PHE

>  <FRAG_NAME>  (12) 
ETAM   MBZ

>  <FRAG_ATOM_NUM>  (12) 
fragi: 11  fragj: 15

>  <atom.prop.CHAIN_ID>  (12) 
A A A A A A A A A A A Z Z Z Z Z Z Z Z Z Z Z Z Z Z Z

>  <atom.prop.IS_HEAVY_ATOM>  (12) 
1 0 0 0 1 0 0 1 0 0 0 1 0 0 0 1 1 0 1 0 1 0 1 0 1 0

>  <DIFUSE_FUNC_ATOM>  (12) 
n/a

>  <FINAL_SINGLE_POINT_ENERGY>  (12) 
0

>  <NONCOV_INTER_ENERGY_QM>  (12) 
0

>  <FF_Energy>  (12) 
-7.62

>  <QM_Energy>  (12) 
-13.83

>  <source>  (12) 
ETAM_MBZ

>  <Index>  (12) 
125

$$$$
ETAM-pdb2a6v-B-LYS-210:MBZ-pdb2a6v-B-PHE-80
     RDKit          3D

 26 25  0  0  0  0  0  0  0  0999 V2000
   -3.8029    2.8531   -1.4982 C   0  0  0  0  0  0  0  0  0  0  0  0
   -2.8358    2.7896   -1.2649 H   0  0  0  0  0  0  0  0  0  0  0  0
   -4.3124    3.2463   -0.7381 H   0  0  0  0  0  0  0  0  0  0  0  0
   -3.9089    3.5067   -2.3641 H   0  0  0  0  0  0  0  0  0  0  0  0
   -4.3333    1.4445   -1.7628 C   0  0  0  0  0  0  0  0  0  0  0  0
   -4.7656    1.0997   -0.9257 H   0  0  0  0  0  0  0  0  0  0  0  0
   -5.0234    1.4900   -2.4898 H   0  0  0  0  0  0  0  0  0  0  0  0
   -3.2477    0.5068   -2.1762 N   0  0  0  0  0  4  0  0  0  0  0  0
   -2.3728    0.9884   -2.1603 H   0  0  0  0  0  0  0  0  0  0  0  0
   -3.2189   -0.2636   -1.5414 H   0  0  0  0  0  0  0  0  0  0  0  0
   -3.4330    0.1752   -3.1003 H   0  0  0  0  0  0  0  0  0  0  0  0
   -0.0026    2.9067    0.0020 C   0  0  0  0  0  0  0  0  0  0  0  0
   -0.7118    3.2172   -0.6075 H   0  0  0  0  0  0  0  0  0  0  0  0
    0.8888    3.2152   -0.2855 H   0  0  0  0  0  0  0  0  0  0  0  0
   -0.1998    3.3359    0.9843 H   0  0  0  0  0  0  0  0  0  0  0  0
   -0.0030    1.3991   -0.0070 C   0  0  0  0  0  0  0  0  0  0  0  0
   -1.1953    0.6886    0.0042 C   0  0  0  0  0  0  0  0  0  0  0  0
   -2.0647    1.1780    0.0140 H   0  0  0  0  0  0  0  0  0  0  0  0
   -1.2011   -0.7010   -0.0000 C   0  0  0  0  0  0  0  0  0  0  0  0
   -2.0734   -1.1968   -0.0031 H   0  0  0  0  0  0  0  0  0  0  0  0
    0.0055   -1.3917    0.0027 C   0  0  0  0  0  0  0  0  0  0  0  0
    0.0038   -2.3910    0.0057 H   0  0  0  0  0  0  0  0  0  0  0  0
    1.2011   -0.6924    0.0000 C   0  0  0  0  0  0  0  0  0  0  0  0
    2.0852   -1.1866   -0.0012 H   0  0  0  0  0  0  0  0  0  0  0  0
    1.1928    0.6974    0.0001 C   0  0  0  0  0  0  0  0  0  0  0  0
    2.0604    1.1959    0.0039 H   0  0  0  0  0  0  0  0  0  0  0  0
  1  5  1  0
  5  8  1  0
  1  2  1  0
  1  3  1  0
  1  4  1  0
  5  6  1  0
  5  7  1  0
  8  9  1  0
  8 10  1  0
  8 11  1  0
 12 16  1  0
 16 17  2  0
 17 19  1  0
 19 21  2  0
 21 23  1  0
 23 25  2  0
 25 16  1  0
 12 13  1  0
 12 14  1  0
 12 15  1  0
 17 18  1  0
 19 20  1  0
 21 22  1  0
 23 24  1  0
 25 26  1  0
M  CHG  1   8   1
M  END
>  <PDB_ID>  (13) 
pdb2a6v

>  <RESIDUE_NAME>  (13) 
LYS   PHE

>  <FRAG_NAME>  (13) 
ETAM   MBZ

>  <FRAG_ATOM_NUM>  (13) 
fragi: 11  fragj: 15

>  <atom.prop.CHAIN_ID>  (13) 
A A A A A A A A A A A Z Z Z Z Z Z Z Z Z Z Z Z Z Z Z

>  <atom.prop.IS_HEAVY_ATOM>  (13) 
1 0 0 0 1 0 0 1 0 0 0 1 0 0 0 1 1 0 1 0 1 0 1 0 1 0

>  <DIFUSE_FUNC_ATOM>  (13) 
n/a

>  <FINAL_SINGLE_POINT_ENERGY>  (13) 
0

>  <NONCOV_INTER_ENERGY_QM>  (13) 
0

>  <FF_Energy>  (13) 
-0.34

>  <QM_Energy>  (13) 
-7.45

>  <source>  (13) 
ETAM_MBZ

>  <Index>  (13) 
126

$$$$
ETAM-pdb2a0j-A-LYS-22:MBZ-pdb2a0j-A-PHE-89
     RDKit          3D

 26 25  0  0  0  0  0  0  0  0999 V2000
   -0.7788    0.4616    4.0420 C   0  0  0  0  0  0  0  0  0  0  0  0
   -0.8766    1.4035    3.7237 H   0  0  0  0  0  0  0  0  0  0  0  0
   -0.6793    0.4524    5.0363 H   0  0  0  0  0  0  0  0  0  0  0  0
   -1.6780   -0.0932    3.7743 H   0  0  0  0  0  0  0  0  0  0  0  0
    0.4629   -0.1328    3.4252 C   0  0  0  0  0  0  0  0  0  0  0  0
    0.5894   -1.0647    3.7670 H   0  0  0  0  0  0  0  0  0  0  0  0
    0.3593   -0.1587    2.4296 H   0  0  0  0  0  0  0  0  0  0  0  0
    1.6707    0.6760    3.7654 N   0  0  0  0  0  4  0  0  0  0  0  0
    1.4059    1.4247    4.3705 H   0  0  0  0  0  0  0  0  0  0  0  0
    2.3390    0.0926    4.2243 H   0  0  0  0  0  0  0  0  0  0  0  0
    2.0665    1.0456    2.9266 H   0  0  0  0  0  0  0  0  0  0  0  0
   -0.0003    2.9072    0.0041 C   0  0  0  0  0  0  0  0  0  0  0  0
   -0.6941    3.2183   -0.6298 H   0  0  0  0  0  0  0  0  0  0  0  0
    0.8992    3.2152   -0.2732 H   0  0  0  0  0  0  0  0  0  0  0  0
   -0.2172    3.3497    0.9763 H   0  0  0  0  0  0  0  0  0  0  0  0
   -0.0020    1.4098    0.0005 C   0  0  0  0  0  0  0  0  0  0  0  0
   -1.2030    0.7026    0.0016 C   0  0  0  0  0  0  0  0  0  0  0  0
   -2.0682    1.1882    0.0028 H   0  0  0  0  0  0  0  0  0  0  0  0
   -1.2080   -0.7008    0.0000 C   0  0  0  0  0  0  0  0  0  0  0  0
   -2.0796   -1.1933    0.0002 H   0  0  0  0  0  0  0  0  0  0  0  0
    0.0067   -1.4042    0.0003 C   0  0  0  0  0  0  0  0  0  0  0  0
   -0.0025   -2.3997    0.0008 H   0  0  0  0  0  0  0  0  0  0  0  0
    1.2080   -0.7047    0.0000 C   0  0  0  0  0  0  0  0  0  0  0  0
    2.0906   -1.1951    0.0028 H   0  0  0  0  0  0  0  0  0  0  0  0
    1.1983    0.6973   -0.0024 C   0  0  0  0  0  0  0  0  0  0  0  0
    2.0668    1.1922   -0.0074 H   0  0  0  0  0  0  0  0  0  0  0  0
  1  5  1  0
  5  8  1  0
  1  2  1  0
  1  3  1  0
  1  4  1  0
  5  6  1  0
  5  7  1  0
  8  9  1  0
  8 10  1  0
  8 11  1  0
 12 16  1  0
 16 17  2  0
 17 19  1  0
 19 21  2  0
 21 23  1  0
 23 25  2  0
 25 16  1  0
 12 13  1  0
 12 14  1  0
 12 15  1  0
 17 18  1  0
 19 20  1  0
 21 22  1  0
 23 24  1  0
 25 26  1  0
M  CHG  1   8   1
M  END
>  <PDB_ID>  (14) 
pdb2a0j

>  <RESIDUE_NAME>  (14) 
LYS   PHE

>  <FRAG_NAME>  (14) 
ETAM   MBZ

>  <FRAG_ATOM_NUM>  (14) 
fragi: 11  fragj: 15

>  <atom.prop.CHAIN_ID>  (14) 
A A A A A A A A A A A Z Z Z Z Z Z Z Z Z Z Z Z Z Z Z

>  <atom.prop.IS_HEAVY_ATOM>  (14) 
1 0 0 0 1 0 0 1 0 0 0 1 0 0 0 1 1 0 1 0 1 0 1 0 1 0

>  <DIFUSE_FUNC_ATOM>  (14) 
n/a

>  <FINAL_SINGLE_POINT_ENERGY>  (14) 
0

>  <NONCOV_INTER_ENERGY_QM>  (14) 
0

>  <FF_Energy>  (14) 
-5.45

>  <QM_Energy>  (14) 
-11.58

>  <source>  (14) 
ETAM_MBZ

>  <Index>  (14) 
127

$$$$
ETAM-pdb1a2v-E-LYS-502:MBZ-pdb1a2v-E-PHE-526
     RDKit          3D

 26 25  0  0  0  0  0  0  0  0999 V2000
   -1.3573   -2.4920    4.7058 C   0  0  0  0  0  0  0  0  0  0  0  0
   -0.8284   -2.1751    5.4844 H   0  0  0  0  0  0  0  0  0  0  0  0
   -1.0143   -3.3651    4.3809 H   0  0  0  0  0  0  0  0  0  0  0  0
   -2.3953   -2.6150    5.0147 H   0  0  0  0  0  0  0  0  0  0  0  0
   -1.2470   -1.4780    3.5931 C   0  0  0  0  0  0  0  0  0  0  0  0
   -1.3913   -1.9429    2.7113 H   0  0  0  0  0  0  0  0  0  0  0  0
   -1.9698   -0.7858    3.7078 H   0  0  0  0  0  0  0  0  0  0  0  0
    0.0700   -0.8090    3.5808 N   0  0  0  0  0  4  0  0  0  0  0  0
    0.1501   -0.2371    2.7626 H   0  0  0  0  0  0  0  0  0  0  0  0
    0.1648   -0.2352    4.3963 H   0  0  0  0  0  0  0  0  0  0  0  0
    0.7977   -1.4973    3.5749 H   0  0  0  0  0  0  0  0  0  0  0  0
   -0.0093    2.8775   -0.0614 C   0  0  0  0  0  0  0  0  0  0  0  0
    0.8676    3.2097    0.2533 H   0  0  0  0  0  0  0  0  0  0  0  0
   -0.7460    3.2089    0.5094 H   0  0  0  0  0  0  0  0  0  0  0  0
   -0.1694    3.2626   -1.0684 H   0  0  0  0  0  0  0  0  0  0  0  0
    0.0009    1.3957   -0.0008 C   0  0  0  0  0  0  0  0  0  0  0  0
   -1.1917    0.6877    0.0011 C   0  0  0  0  0  0  0  0  0  0  0  0
   -2.0609    1.1755    0.0018 H   0  0  0  0  0  0  0  0  0  0  0  0
   -1.1999   -0.7077    0.0000 C   0  0  0  0  0  0  0  0  0  0  0  0
   -2.0764   -1.1956    0.0010 H   0  0  0  0  0  0  0  0  0  0  0  0
   -0.0035   -1.3892   -0.0015 C   0  0  0  0  0  0  0  0  0  0  0  0
    0.0055   -2.3908   -0.0046 H   0  0  0  0  0  0  0  0  0  0  0  0
    1.1999   -0.6871   -0.0000 C   0  0  0  0  0  0  0  0  0  0  0  0
    2.0806   -1.1867    0.0021 H   0  0  0  0  0  0  0  0  0  0  0  0
    1.1943    0.7005    0.0011 C   0  0  0  0  0  0  0  0  0  0  0  0
    2.0616    1.1975    0.0025 H   0  0  0  0  0  0  0  0  0  0  0  0
  1  5  1  0
  5  8  1  0
  1  2  1  0
  1  3  1  0
  1  4  1  0
  5  6  1  0
  5  7  1  0
  8  9  1  0
  8 10  1  0
  8 11  1  0
 12 16  1  0
 16 17  2  0
 17 19  1  0
 19 21  2  0
 21 23  1  0
 23 25  2  0
 25 16  1  0
 12 13  1  0
 12 14  1  0
 12 15  1  0
 17 18  1  0
 19 20  1  0
 21 22  1  0
 23 24  1  0
 25 26  1  0
M  CHG  1   8   1
M  END
>  <PDB_ID>  (15) 
pdb1a2v

>  <RESIDUE_NAME>  (15) 
LYS   PHE

>  <FRAG_NAME>  (15) 
ETAM   MBZ

>  <FRAG_ATOM_NUM>  (15) 
fragi: 11  fragj: 15

>  <atom.prop.CHAIN_ID>  (15) 
A A A A A A A A A A A Z Z Z Z Z Z Z Z Z Z Z Z Z Z Z

>  <atom.prop.IS_HEAVY_ATOM>  (15) 
1 0 0 0 1 0 0 1 0 0 0 1 0 0 0 1 1 0 1 0 1 0 1 0 1 0

>  <DIFUSE_FUNC_ATOM>  (15) 
n/a

>  <FINAL_SINGLE_POINT_ENERGY>  (15) 
0

>  <NONCOV_INTER_ENERGY_QM>  (15) 
0

>  <FF_Energy>  (15) 
-7.46

>  <QM_Energy>  (15) 
-13.45

>  <source>  (15) 
ETAM_MBZ

>  <Index>  (15) 
128

$$$$
ETAM-pdb1a49-B-LYS-740:MBZ-pdb1a49-B-PHE-791
     RDKit          3D

 26 25  0  0  0  0  0  0  0  0999 V2000
    1.9203    3.4466    3.8349 C   0  0  0  0  0  0  0  0  0  0  0  0
    2.1915    2.6760    4.4110 H   0  0  0  0  0  0  0  0  0  0  0  0
    1.7370    4.2441    4.4084 H   0  0  0  0  0  0  0  0  0  0  0  0
    2.7436    3.6835    3.1610 H   0  0  0  0  0  0  0  0  0  0  0  0
    0.6405    3.0747    3.0983 C   0  0  0  0  0  0  0  0  0  0  0  0
    0.0151    3.8660    3.1171 H   0  0  0  0  0  0  0  0  0  0  0  0
    0.8663    2.8795    2.1341 H   0  0  0  0  0  0  0  0  0  0  0  0
   -0.0482    1.8951    3.6846 N   0  0  0  0  0  4  0  0  0  0  0  0
    0.2356    1.7839    4.6372 H   0  0  0  0  0  0  0  0  0  0  0  0
   -1.0376    2.0342    3.6445 H   0  0  0  0  0  0  0  0  0  0  0  0
    0.1962    1.0755    3.1661 H   0  0  0  0  0  0  0  0  0  0  0  0
    0.0249    2.9125   -0.1308 C   0  0  0  0  0  0  0  0  0  0  0  0
    0.8464    3.2455    0.2496 H   0  0  0  0  0  0  0  0  0  0  0  0
   -0.7856    3.2649    0.2557 H   0  0  0  0  0  0  0  0  0  0  0  0
    0.0244    3.1853   -1.1861 H   0  0  0  0  0  0  0  0  0  0  0  0
    0.0070    1.4054   -0.0075 C   0  0  0  0  0  0  0  0  0  0  0  0
   -1.2011    0.7034   -0.0157 C   0  0  0  0  0  0  0  0  0  0  0  0
   -2.0605    1.2032   -0.0338 H   0  0  0  0  0  0  0  0  0  0  0  0
   -1.2134   -0.6834    0.0000 C   0  0  0  0  0  0  0  0  0  0  0  0
   -2.0869   -1.1784    0.0124 H   0  0  0  0  0  0  0  0  0  0  0  0
   -0.0044   -1.3914    0.0001 C   0  0  0  0  0  0  0  0  0  0  0  0
   -0.0216   -2.3912   -0.0000 H   0  0  0  0  0  0  0  0  0  0  0  0
    1.2134   -0.7121   -0.0000 C   0  0  0  0  0  0  0  0  0  0  0  0
    2.0814   -1.2105   -0.0149 H   0  0  0  0  0  0  0  0  0  0  0  0
    1.1984    0.6780    0.0231 C   0  0  0  0  0  0  0  0  0  0  0  0
    2.0721    1.1777    0.0618 H   0  0  0  0  0  0  0  0  0  0  0  0
  1  5  1  0
  5  8  1  0
  1  2  1  0
  1  3  1  0
  1  4  1  0
  5  6  1  0
  5  7  1  0
  8  9  1  0
  8 10  1  0
  8 11  1  0
 12 16  1  0
 16 17  2  0
 17 19  1  0
 19 21  2  0
 21 23  1  0
 23 25  2  0
 25 16  1  0
 12 13  1  0
 12 14  1  0
 12 15  1  0
 17 18  1  0
 19 20  1  0
 21 22  1  0
 23 24  1  0
 25 26  1  0
M  CHG  1   8   1
M  END
>  <PDB_ID>  (16) 
pdb1a49

>  <RESIDUE_NAME>  (16) 
LYS   PHE

>  <FRAG_NAME>  (16) 
ETAM   MBZ

>  <FRAG_ATOM_NUM>  (16) 
fragi: 11  fragj: 15

>  <atom.prop.CHAIN_ID>  (16) 
A A A A A A A A A A A Z Z Z Z Z Z Z Z Z Z Z Z Z Z Z

>  <atom.prop.IS_HEAVY_ATOM>  (16) 
1 0 0 0 1 0 0 1 0 0 0 1 0 0 0 1 1 0 1 0 1 0 1 0 1 0

>  <DIFUSE_FUNC_ATOM>  (16) 
n/a

>  <FINAL_SINGLE_POINT_ENERGY>  (16) 
0

>  <NONCOV_INTER_ENERGY_QM>  (16) 
0

>  <FF_Energy>  (16) 
-2.45

>  <QM_Energy>  (16) 
-8.65

>  <source>  (16) 
ETAM_MBZ

>  <Index>  (16) 
165

$$$$
ETAM-pdb2a8n-B-ARG-4:MBZ-pdb2a8n-B-PHE-7
     RDKit          3D

 26 25  0  0  0  0  0  0  0  0999 V2000
    4.8619    2.4233   -2.3931 C   0  0  0  0  0  0  0  0  0  0  0  0
    5.3253    2.0620   -3.2048 H   0  0  0  0  0  0  0  0  0  0  0  0
    4.9271    3.4229   -2.3958 H   0  0  0  0  0  0  0  0  0  0  0  0
    5.3889    2.0544   -1.5132 H   0  0  0  0  0  0  0  0  0  0  0  0
    3.3804    2.0434   -2.4831 C   0  0  0  0  0  0  0  0  0  0  0  0
    3.0062    2.0347   -1.5428 H   0  0  0  0  0  0  0  0  0  0  0  0
    2.8598    2.8040   -3.0649 H   0  0  0  0  0  0  0  0  0  0  0  0
    3.2265    0.6726   -3.0483 N   0  0  0  0  0  4  0  0  0  0  0  0
    4.1224    0.2383   -3.1005 H   0  0  0  0  0  0  0  0  0  0  0  0
    2.6271    0.1399   -2.4556 H   0  0  0  0  0  0  0  0  0  0  0  0
    2.8286    0.7374   -3.9596 H   0  0  0  0  0  0  0  0  0  0  0  0
   -0.0013    2.9155    0.0122 C   0  0  0  0  0  0  0  0  0  0  0  0
    0.8779    3.2225   -0.3165 H   0  0  0  0  0  0  0  0  0  0  0  0
   -0.1660    3.2107    0.9396 H   0  0  0  0  0  0  0  0  0  0  0  0
   -0.7695    3.3578   -0.6221 H   0  0  0  0  0  0  0  0  0  0  0  0
   -0.0006    1.4056   -0.0004 C   0  0  0  0  0  0  0  0  0  0  0  0
   -1.1951    0.6938    0.0017 C   0  0  0  0  0  0  0  0  0  0  0  0
   -2.0642    1.1811    0.0032 H   0  0  0  0  0  0  0  0  0  0  0  0
   -1.2011   -0.7017   -0.0000 C   0  0  0  0  0  0  0  0  0  0  0  0
   -2.0783   -1.1928    0.0003 H   0  0  0  0  0  0  0  0  0  0  0  0
    0.0004   -1.3990   -0.0006 C   0  0  0  0  0  0  0  0  0  0  0  0
   -0.0016   -2.3955   -0.0026 H   0  0  0  0  0  0  0  0  0  0  0  0
    1.2011   -0.6973    0.0000 C   0  0  0  0  0  0  0  0  0  0  0  0
    2.0834   -1.1921    0.0024 H   0  0  0  0  0  0  0  0  0  0  0  0
    1.1953    0.6986   -0.0006 C   0  0  0  0  0  0  0  0  0  0  0  0
    2.0637    1.1932   -0.0025 H   0  0  0  0  0  0  0  0  0  0  0  0
  1  5  1  0
  5  8  1  0
  1  2  1  0
  1  3  1  0
  1  4  1  0
  5  6  1  0
  5  7  1  0
  8  9  1  0
  8 10  1  0
  8 11  1  0
 12 16  1  0
 16 17  2  0
 17 19  1  0
 19 21  2  0
 21 23  1  0
 23 25  2  0
 25 16  1  0
 12 13  1  0
 12 14  1  0
 12 15  1  0
 17 18  1  0
 19 20  1  0
 21 22  1  0
 23 24  1  0
 25 26  1  0
M  CHG  1   8   1
M  END
>  <PDB_ID>  (17) 
pdb2a8n

>  <RESIDUE_NAME>  (17) 
ARG   PHE

>  <FRAG_NAME>  (17) 
ETAM   MBZ

>  <FRAG_ATOM_NUM>  (17) 
fragi: 11  fragj: 15

>  <atom.prop.CHAIN_ID>  (17) 
A A A A A A A A A A A Z Z Z Z Z Z Z Z Z Z Z Z Z Z Z

>  <atom.prop.IS_HEAVY_ATOM>  (17) 
1 0 0 0 1 0 0 1 0 0 0 1 0 0 0 1 1 0 1 0 1 0 1 0 1 0

>  <DIFUSE_FUNC_ATOM>  (17) 
n/a

>  <FINAL_SINGLE_POINT_ENERGY>  (17) 
0

>  <NONCOV_INTER_ENERGY_QM>  (17) 
0

>  <FF_Energy>  (17) 
-1.94

>  <QM_Energy>  (17) 
-7.38

>  <source>  (17) 
ETAM_MBZ

>  <Index>  (17) 
166

$$$$
ETAM-pdb1a49-D-LYS-1940:MBZ-pdb1a49-D-PHE-1991
     RDKit          3D

 26 25  0  0  0  0  0  0  0  0999 V2000
   -1.6795    2.2009   -3.7508 C   0  0  0  0  0  0  0  0  0  0  0  0
   -2.0149    1.3491   -3.3589 H   0  0  0  0  0  0  0  0  0  0  0  0
   -1.6864    2.1473   -4.7450 H   0  0  0  0  0  0  0  0  0  0  0  0
   -2.3420    3.0094   -3.4415 H   0  0  0  0  0  0  0  0  0  0  0  0
   -0.2376    2.4177   -3.2843 C   0  0  0  0  0  0  0  0  0  0  0  0
    0.0133    3.3819   -3.4592 H   0  0  0  0  0  0  0  0  0  0  0  0
   -0.1988    2.2686   -2.2841 H   0  0  0  0  0  0  0  0  0  0  0  0
    0.7518    1.5282   -3.9486 N   0  0  0  0  0  4  0  0  0  0  0  0
    0.5674    1.5010   -4.9312 H   0  0  0  0  0  0  0  0  0  0  0  0
    1.6744    1.8815   -3.7911 H   0  0  0  0  0  0  0  0  0  0  0  0
    0.6767    0.6063   -3.5688 H   0  0  0  0  0  0  0  0  0  0  0  0
   -0.0201    2.9165    0.0085 C   0  0  0  0  0  0  0  0  0  0  0  0
   -0.8079    3.2191   -0.4616 H   0  0  0  0  0  0  0  0  0  0  0  0
    0.8210    3.2356   -0.3443 H   0  0  0  0  0  0  0  0  0  0  0  0
   -0.0978    3.2487    1.0437 H   0  0  0  0  0  0  0  0  0  0  0  0
   -0.0035    1.4094   -0.0119 C   0  0  0  0  0  0  0  0  0  0  0  0
   -1.1996    0.6810   -0.0106 C   0  0  0  0  0  0  0  0  0  0  0  0
   -2.0712    1.1726   -0.0184 H   0  0  0  0  0  0  0  0  0  0  0  0
   -1.2138   -0.7157   -0.0000 C   0  0  0  0  0  0  0  0  0  0  0  0
   -2.0787   -1.2071    0.0107 H   0  0  0  0  0  0  0  0  0  0  0  0
    0.0035   -1.3935   -0.0026 C   0  0  0  0  0  0  0  0  0  0  0  0
    0.0124   -2.3956   -0.0064 H   0  0  0  0  0  0  0  0  0  0  0  0
    1.2138   -0.6888    0.0000 C   0  0  0  0  0  0  0  0  0  0  0  0
    2.0913   -1.1828   -0.0141 H   0  0  0  0  0  0  0  0  0  0  0  0
    1.1997    0.7075    0.0251 C   0  0  0  0  0  0  0  0  0  0  0  0
    2.0628    1.2072    0.0696 H   0  0  0  0  0  0  0  0  0  0  0  0
  1  5  1  0
  5  8  1  0
  1  2  1  0
  1  3  1  0
  1  4  1  0
  5  6  1  0
  5  7  1  0
  8  9  1  0
  8 10  1  0
  8 11  1  0
 12 16  1  0
 16 17  2  0
 17 19  1  0
 19 21  2  0
 21 23  1  0
 23 25  2  0
 25 16  1  0
 12 13  1  0
 12 14  1  0
 12 15  1  0
 17 18  1  0
 19 20  1  0
 21 22  1  0
 23 24  1  0
 25 26  1  0
M  CHG  1   8   1
M  END
>  <PDB_ID>  (18) 
pdb1a49

>  <RESIDUE_NAME>  (18) 
LYS   PHE

>  <FRAG_NAME>  (18) 
ETAM   MBZ

>  <FRAG_ATOM_NUM>  (18) 
fragi: 11  fragj: 15

>  <atom.prop.CHAIN_ID>  (18) 
A A A A A A A A A A A Z Z Z Z Z Z Z Z Z Z Z Z Z Z Z

>  <atom.prop.IS_HEAVY_ATOM>  (18) 
1 0 0 0 1 0 0 1 0 0 0 1 0 0 0 1 1 0 1 0 1 0 1 0 1 0

>  <DIFUSE_FUNC_ATOM>  (18) 
n/a

>  <FINAL_SINGLE_POINT_ENERGY>  (18) 
0

>  <NONCOV_INTER_ENERGY_QM>  (18) 
0

>  <FF_Energy>  (18) 
-1.78

>  <QM_Energy>  (18) 
-8.38

>  <source>  (18) 
ETAM_MBZ

>  <Index>  (18) 
169

$$$$
ETAM-pdb1a49-F-LYS-3740:MBZ-pdb1a49-F-PHE-3791
     RDKit          3D

 26 25  0  0  0  0  0  0  0  0999 V2000
    1.6447    1.7724    3.9693 C   0  0  0  0  0  0  0  0  0  0  0  0
    2.1913    1.1093    4.4845 H   0  0  0  0  0  0  0  0  0  0  0  0
    1.0768    2.2980    4.6049 H   0  0  0  0  0  0  0  0  0  0  0  0
    2.3204    2.4573    3.4567 H   0  0  0  0  0  0  0  0  0  0  0  0
    0.7194    1.0012    3.0232 C   0  0  0  0  0  0  0  0  0  0  0  0
    0.8742    1.3378    2.0819 H   0  0  0  0  0  0  0  0  0  0  0  0
    0.9827    0.0248    3.0466 H   0  0  0  0  0  0  0  0  0  0  0  0
   -0.7186    1.1296    3.3588 N   0  0  0  0  0  4  0  0  0  0  0  0
   -1.2374    0.4168    2.8853 H   0  0  0  0  0  0  0  0  0  0  0  0
   -0.8424    1.0295    4.3465 H   0  0  0  0  0  0  0  0  0  0  0  0
   -1.0496    2.0291    3.0718 H   0  0  0  0  0  0  0  0  0  0  0  0
    0.0312    2.8988   -0.0500 C   0  0  0  0  0  0  0  0  0  0  0  0
    0.8676    3.2054    0.3308 H   0  0  0  0  0  0  0  0  0  0  0  0
   -0.7646    3.2389    0.3854 H   0  0  0  0  0  0  0  0  0  0  0  0
    0.0022    3.1968   -1.0980 H   0  0  0  0  0  0  0  0  0  0  0  0
    0.0028    1.4055    0.0144 C   0  0  0  0  0  0  0  0  0  0  0  0
   -1.1976    0.7013   -0.0188 C   0  0  0  0  0  0  0  0  0  0  0  0
   -2.0610    1.1938   -0.0580 H   0  0  0  0  0  0  0  0  0  0  0  0
   -1.2077   -0.6928    0.0000 C   0  0  0  0  0  0  0  0  0  0  0  0
   -2.0819   -1.1841    0.0079 H   0  0  0  0  0  0  0  0  0  0  0  0
   -0.0002   -1.3947    0.0090 C   0  0  0  0  0  0  0  0  0  0  0  0
   -0.0111   -2.3941    0.0220 H   0  0  0  0  0  0  0  0  0  0  0  0
    1.2077   -0.7063    0.0000 C   0  0  0  0  0  0  0  0  0  0  0  0
    2.0831   -1.2014   -0.0022 H   0  0  0  0  0  0  0  0  0  0  0  0
    1.1951    0.6870   -0.0046 C   0  0  0  0  0  0  0  0  0  0  0  0
    2.0681    1.1841   -0.0235 H   0  0  0  0  0  0  0  0  0  0  0  0
  1  5  1  0
  5  8  1  0
  1  2  1  0
  1  3  1  0
  1  4  1  0
  5  6  1  0
  5  7  1  0
  8  9  1  0
  8 10  1  0
  8 11  1  0
 12 16  1  0
 16 17  2  0
 17 19  1  0
 19 21  2  0
 21 23  1  0
 23 25  2  0
 25 16  1  0
 12 13  1  0
 12 14  1  0
 12 15  1  0
 17 18  1  0
 19 20  1  0
 21 22  1  0
 23 24  1  0
 25 26  1  0
M  CHG  1   8   1
M  END
>  <PDB_ID>  (19) 
pdb1a49

>  <RESIDUE_NAME>  (19) 
LYS   PHE

>  <FRAG_NAME>  (19) 
ETAM   MBZ

>  <FRAG_ATOM_NUM>  (19) 
fragi: 11  fragj: 15

>  <atom.prop.CHAIN_ID>  (19) 
A A A A A A A A A A A Z Z Z Z Z Z Z Z Z Z Z Z Z Z Z

>  <atom.prop.IS_HEAVY_ATOM>  (19) 
1 0 0 0 1 0 0 1 0 0 0 1 0 0 0 1 1 0 1 0 1 0 1 0 1 0

>  <DIFUSE_FUNC_ATOM>  (19) 
n/a

>  <FINAL_SINGLE_POINT_ENERGY>  (19) 
0

>  <NONCOV_INTER_ENERGY_QM>  (19) 
0

>  <FF_Energy>  (19) 
3.42

>  <QM_Energy>  (19) 
-8.93

>  <source>  (19) 
ETAM_MBZ

>  <Index>  (19) 
174

$$$$
ETAM-pdb11as-D-LYS-134:MBZ-pdb11as-D-PHE-167
     RDKit          3D

 26 25  0  0  0  0  0  0  0  0999 V2000
   -1.3320   -0.2589   -4.6041 C   0  0  0  0  0  0  0  0  0  0  0  0
   -1.1345    0.7024   -4.7532 H   0  0  0  0  0  0  0  0  0  0  0  0
   -1.3045   -0.7598   -5.4610 H   0  0  0  0  0  0  0  0  0  0  0  0
   -0.5987   -0.6772   -3.9146 H   0  0  0  0  0  0  0  0  0  0  0  0
   -2.7141   -0.3816   -4.0189 C   0  0  0  0  0  0  0  0  0  0  0  0
   -3.3380    0.2248   -4.5224 H   0  0  0  0  0  0  0  0  0  0  0  0
   -3.0323   -1.3287   -4.1249 H   0  0  0  0  0  0  0  0  0  0  0  0
   -2.7250   -0.0191   -2.5936 N   0  0  0  0  0  4  0  0  0  0  0  0
   -2.7298   -0.8490   -2.0318 H   0  0  0  0  0  0  0  0  0  0  0  0
   -1.9098    0.5218   -2.3733 H   0  0  0  0  0  0  0  0  0  0  0  0
   -3.5436    0.5223   -2.3862 H   0  0  0  0  0  0  0  0  0  0  0  0
   -0.0081    2.8886    0.1596 C   0  0  0  0  0  0  0  0  0  0  0  0
   -0.7505    3.2525   -0.3819 H   0  0  0  0  0  0  0  0  0  0  0  0
    0.8649    3.2356   -0.1457 H   0  0  0  0  0  0  0  0  0  0  0  0
   -0.1548    3.2194    1.1878 H   0  0  0  0  0  0  0  0  0  0  0  0
   -0.0006    1.3989    0.0038 C   0  0  0  0  0  0  0  0  0  0  0  0
   -1.1918    0.6905   -0.0072 C   0  0  0  0  0  0  0  0  0  0  0  0
   -2.0611    1.1834   -0.0220 H   0  0  0  0  0  0  0  0  0  0  0  0
   -1.2000   -0.6947   -0.0000 C   0  0  0  0  0  0  0  0  0  0  0  0
   -2.0799   -1.1867    0.0020 H   0  0  0  0  0  0  0  0  0  0  0  0
   -0.0053   -1.3917    0.0058 C   0  0  0  0  0  0  0  0  0  0  0  0
   -0.0073   -2.3903    0.0133 H   0  0  0  0  0  0  0  0  0  0  0  0
    1.2000   -0.6954    0.0000 C   0  0  0  0  0  0  0  0  0  0  0  0
    2.0789   -1.1968   -0.0008 H   0  0  0  0  0  0  0  0  0  0  0  0
    1.1977    0.6924   -0.0024 C   0  0  0  0  0  0  0  0  0  0  0  0
    2.0637    1.1903   -0.0096 H   0  0  0  0  0  0  0  0  0  0  0  0
  1  5  1  0
  5  8  1  0
  1  2  1  0
  1  3  1  0
  1  4  1  0
  5  6  1  0
  5  7  1  0
  8  9  1  0
  8 10  1  0
  8 11  1  0
 12 16  1  0
 16 17  2  0
 17 19  1  0
 19 21  2  0
 21 23  1  0
 23 25  2  0
 25 16  1  0
 12 13  1  0
 12 14  1  0
 12 15  1  0
 17 18  1  0
 19 20  1  0
 21 22  1  0
 23 24  1  0
 25 26  1  0
M  CHG  1   8   1
M  END
>  <PDB_ID>  (20) 
pdb11as

>  <RESIDUE_NAME>  (20) 
LYS   PHE

>  <FRAG_NAME>  (20) 
ETAM   MBZ

>  <FRAG_ATOM_NUM>  (20) 
fragi: 11  fragj: 15

>  <atom.prop.CHAIN_ID>  (20) 
A A A A A A A A A A A Z Z Z Z Z Z Z Z Z Z Z Z Z Z Z

>  <atom.prop.IS_HEAVY_ATOM>  (20) 
1 0 0 0 1 0 0 1 0 0 0 1 0 0 0 1 1 0 1 0 1 0 1 0 1 0

>  <DIFUSE_FUNC_ATOM>  (20) 
n/a

>  <FINAL_SINGLE_POINT_ENERGY>  (20) 
0

>  <NONCOV_INTER_ENERGY_QM>  (20) 
0

>  <FF_Energy>  (20) 
-2.75

>  <QM_Energy>  (20) 
-9.89

>  <source>  (20) 
ETAM_MBZ

>  <Index>  (20) 
180

$$$$
ETAM-pdb1a12-B-LYS-176:MBZ-pdb1a12-B-PHE-246
     RDKit          3D

 26 25  0  0  0  0  0  0  0  0999 V2000
    2.0797   -0.4834    5.7298 C   0  0  0  0  0  0  0  0  0  0  0  0
    2.1124   -1.4735    5.6981 H   0  0  0  0  0  0  0  0  0  0  0  0
    1.1434   -0.1619    5.7732 H   0  0  0  0  0  0  0  0  0  0  0  0
    2.6196   -0.1355    6.6105 H   0  0  0  0  0  0  0  0  0  0  0  0
    2.7209    0.0627    4.4649 C   0  0  0  0  0  0  0  0  0  0  0  0
    2.6880    1.0692    4.4932 H   0  0  0  0  0  0  0  0  0  0  0  0
    3.6879   -0.2206    4.4420 H   0  0  0  0  0  0  0  0  0  0  0  0
    2.0459   -0.4119    3.2277 N   0  0  0  0  0  4  0  0  0  0  0  0
    1.7068    0.3742    2.7115 H   0  0  0  0  0  0  0  0  0  0  0  0
    2.6980   -0.9224    2.6683 H   0  0  0  0  0  0  0  0  0  0  0  0
    1.2797   -1.0050    3.4740 H   0  0  0  0  0  0  0  0  0  0  0  0
   -0.0070    2.9035   -0.0367 C   0  0  0  0  0  0  0  0  0  0  0  0
   -0.7907    3.1956   -0.5673 H   0  0  0  0  0  0  0  0  0  0  0  0
    0.8380    3.2050   -0.4569 H   0  0  0  0  0  0  0  0  0  0  0  0
   -0.0758    3.3783    0.9421 H   0  0  0  0  0  0  0  0  0  0  0  0
   -0.0004    1.4032    0.0000 C   0  0  0  0  0  0  0  0  0  0  0  0
   -1.1977    0.6912    0.0002 C   0  0  0  0  0  0  0  0  0  0  0  0
   -2.0645    1.1823   -0.0006 H   0  0  0  0  0  0  0  0  0  0  0  0
   -1.2029   -0.6998   -0.0000 C   0  0  0  0  0  0  0  0  0  0  0  0
   -2.0774   -1.1936    0.0019 H   0  0  0  0  0  0  0  0  0  0  0  0
    0.0008   -1.3946   -0.0008 C   0  0  0  0  0  0  0  0  0  0  0  0
   -0.0017   -2.3930   -0.0030 H   0  0  0  0  0  0  0  0  0  0  0  0
    1.2029   -0.6965   -0.0000 C   0  0  0  0  0  0  0  0  0  0  0  0
    2.0840   -1.1932    0.0019 H   0  0  0  0  0  0  0  0  0  0  0  0
    1.1973    0.6966    0.0006 C   0  0  0  0  0  0  0  0  0  0  0  0
    2.0649    1.1928    0.0011 H   0  0  0  0  0  0  0  0  0  0  0  0
  1  5  1  0
  5  8  1  0
  1  2  1  0
  1  3  1  0
  1  4  1  0
  5  6  1  0
  5  7  1  0
  8  9  1  0
  8 10  1  0
  8 11  1  0
 12 16  1  0
 16 17  2  0
 17 19  1  0
 19 21  2  0
 21 23  1  0
 23 25  2  0
 25 16  1  0
 12 13  1  0
 12 14  1  0
 12 15  1  0
 17 18  1  0
 19 20  1  0
 21 22  1  0
 23 24  1  0
 25 26  1  0
M  CHG  1   8   1
M  END
>  <PDB_ID>  (21) 
pdb1a12

>  <RESIDUE_NAME>  (21) 
LYS   PHE

>  <FRAG_NAME>  (21) 
ETAM   MBZ

>  <FRAG_ATOM_NUM>  (21) 
fragi: 11  fragj: 15

>  <atom.prop.CHAIN_ID>  (21) 
A A A A A A A A A A A Z Z Z Z Z Z Z Z Z Z Z Z Z Z Z

>  <atom.prop.IS_HEAVY_ATOM>  (21) 
1 0 0 0 1 0 0 1 0 0 0 1 0 0 0 1 1 0 1 0 1 0 1 0 1 0

>  <DIFUSE_FUNC_ATOM>  (21) 
n/a

>  <FINAL_SINGLE_POINT_ENERGY>  (21) 
0

>  <NONCOV_INTER_ENERGY_QM>  (21) 
0

>  <FF_Energy>  (21) 
-4.83

>  <QM_Energy>  (21) 
-10.76

>  <source>  (21) 
ETAM_MBZ

>  <Index>  (21) 
216

$$$$
ETAM-pdb1a50-B-LYS-283:MBZ-pdb1a50-A-PHE-107
     RDKit          3D

 26 25  0  0  0  0  0  0  0  0999 V2000
   -0.5472   -3.5011   -3.7039 C   0  0  0  0  0  0  0  0  0  0  0  0
   -0.3652   -4.3239   -4.2305 H   0  0  0  0  0  0  0  0  0  0  0  0
   -0.1937   -3.5941   -2.7797 H   0  0  0  0  0  0  0  0  0  0  0  0
   -0.0654   -2.6521   -4.1888 H   0  0  0  0  0  0  0  0  0  0  0  0
   -2.0451   -3.2974   -3.6289 C   0  0  0  0  0  0  0  0  0  0  0  0
   -2.3879   -3.0588   -4.5438 H   0  0  0  0  0  0  0  0  0  0  0  0
   -2.4780   -4.1597   -3.3425 H   0  0  0  0  0  0  0  0  0  0  0  0
   -2.4137   -2.2269   -2.6760 N   0  0  0  0  0  4  0  0  0  0  0  0
   -2.1176   -1.3414   -3.0354 H   0  0  0  0  0  0  0  0  0  0  0  0
   -3.4065   -2.2176   -2.5483 H   0  0  0  0  0  0  0  0  0  0  0  0
   -1.9679   -2.3937   -1.7950 H   0  0  0  0  0  0  0  0  0  0  0  0
   -0.0021    2.8964   -0.0458 C   0  0  0  0  0  0  0  0  0  0  0  0
   -0.7508    3.1851   -0.6271 H   0  0  0  0  0  0  0  0  0  0  0  0
    0.8680    3.1946   -0.4137 H   0  0  0  0  0  0  0  0  0  0  0  0
   -0.1328    3.3721    0.9261 H   0  0  0  0  0  0  0  0  0  0  0  0
    0.0005    1.3986    0.0005 C   0  0  0  0  0  0  0  0  0  0  0  0
   -1.1962    0.6893    0.0006 C   0  0  0  0  0  0  0  0  0  0  0  0
   -2.0625    1.1823   -0.0006 H   0  0  0  0  0  0  0  0  0  0  0  0
   -1.2023   -0.6965    0.0000 C   0  0  0  0  0  0  0  0  0  0  0  0
   -2.0786   -1.1910    0.0028 H   0  0  0  0  0  0  0  0  0  0  0  0
   -0.0023   -1.3911   -0.0024 C   0  0  0  0  0  0  0  0  0  0  0  0
   -0.0040   -2.3902   -0.0063 H   0  0  0  0  0  0  0  0  0  0  0  0
    1.2023   -0.6941   -0.0000 C   0  0  0  0  0  0  0  0  0  0  0  0
    2.0812   -1.1940    0.0021 H   0  0  0  0  0  0  0  0  0  0  0  0
    1.1979    0.6938    0.0013 C   0  0  0  0  0  0  0  0  0  0  0  0
    2.0650    1.1920    0.0022 H   0  0  0  0  0  0  0  0  0  0  0  0
  1  5  1  0
  5  8  1  0
  1  2  1  0
  1  3  1  0
  1  4  1  0
  5  6  1  0
  5  7  1  0
  8  9  1  0
  8 10  1  0
  8 11  1  0
 12 16  1  0
 16 17  2  0
 17 19  1  0
 19 21  2  0
 21 23  1  0
 23 25  2  0
 25 16  1  0
 12 13  1  0
 12 14  1  0
 12 15  1  0
 17 18  1  0
 19 20  1  0
 21 22  1  0
 23 24  1  0
 25 26  1  0
M  CHG  1   8   1
M  END
>  <PDB_ID>  (22) 
pdb1a50

>  <RESIDUE_NAME>  (22) 
LYS   PHE

>  <FRAG_NAME>  (22) 
ETAM   MBZ

>  <FRAG_ATOM_NUM>  (22) 
fragi: 11  fragj: 15

>  <atom.prop.CHAIN_ID>  (22) 
A A A A A A A A A A A Z Z Z Z Z Z Z Z Z Z Z Z Z Z Z

>  <atom.prop.IS_HEAVY_ATOM>  (22) 
1 0 0 0 1 0 0 1 0 0 0 1 0 0 0 1 1 0 1 0 1 0 1 0 1 0

>  <DIFUSE_FUNC_ATOM>  (22) 
n/a

>  <FINAL_SINGLE_POINT_ENERGY>  (22) 
0

>  <NONCOV_INTER_ENERGY_QM>  (22) 
0

>  <FF_Energy>  (22) 
-2.1

>  <QM_Energy>  (22) 
-8.17

>  <source>  (22) 
ETAM_MBZ

>  <Index>  (22) 
226

$$$$
ETAM-pdb1a14-H-LYS-38:MBZ-pdb1a14-H-PHE-63
     RDKit          3D

 26 25  0  0  0  0  0  0  0  0999 V2000
    2.5759   -3.1127   -1.6490 C   0  0  0  0  0  0  0  0  0  0  0  0
    3.0792   -2.2988   -1.9598 H   0  0  0  0  0  0  0  0  0  0  0  0
    1.7354   -2.8114   -1.1860 H   0  0  0  0  0  0  0  0  0  0  0  0
    2.2995   -3.7039   -2.5220 H   0  0  0  0  0  0  0  0  0  0  0  0
    3.4465   -3.8506   -0.6260 C   0  0  0  0  0  0  0  0  0  0  0  0
    2.8980   -4.5609   -0.1856 H   0  0  0  0  0  0  0  0  0  0  0  0
    4.2197   -4.2710   -1.1005 H   0  0  0  0  0  0  0  0  0  0  0  0
    3.9739   -2.9146    0.4325 N   0  0  0  0  0  4  0  0  0  0  0  0
    4.5249   -2.1628   -0.0262 H   0  0  0  0  0  0  0  0  0  0  0  0
    3.1690   -2.5004    0.9420 H   0  0  0  0  0  0  0  0  0  0  0  0
    4.5846   -3.4396    1.0902 H   0  0  0  0  0  0  0  0  0  0  0  0
   -0.0015    2.8778    0.0212 C   0  0  0  0  0  0  0  0  0  0  0  0
   -0.8058    3.1955   -0.4565 H   0  0  0  0  0  0  0  0  0  0  0  0
    0.8262    3.1975   -0.4150 H   0  0  0  0  0  0  0  0  0  0  0  0
   -0.0277    3.2920    1.0291 H   0  0  0  0  0  0  0  0  0  0  0  0
    0.0003    1.3935    0.0008 C   0  0  0  0  0  0  0  0  0  0  0  0
   -1.1980    0.6903    0.0010 C   0  0  0  0  0  0  0  0  0  0  0  0
   -2.0625    1.1875    0.0006 H   0  0  0  0  0  0  0  0  0  0  0  0
   -1.2064   -0.6900    0.0000 C   0  0  0  0  0  0  0  0  0  0  0  0
   -2.0811   -1.1885    0.0015 H   0  0  0  0  0  0  0  0  0  0  0  0
   -0.0028   -1.3903   -0.0012 C   0  0  0  0  0  0  0  0  0  0  0  0
   -0.0076   -2.3873   -0.0029 H   0  0  0  0  0  0  0  0  0  0  0  0
    1.2064   -0.6935    0.0000 C   0  0  0  0  0  0  0  0  0  0  0  0
    2.0830   -1.1969    0.0025 H   0  0  0  0  0  0  0  0  0  0  0  0
    1.2005    0.6900   -0.0007 C   0  0  0  0  0  0  0  0  0  0  0  0
    2.0654    1.1913   -0.0029 H   0  0  0  0  0  0  0  0  0  0  0  0
  1  5  1  0
  5  8  1  0
  1  2  1  0
  1  3  1  0
  1  4  1  0
  5  6  1  0
  5  7  1  0
  8  9  1  0
  8 10  1  0
  8 11  1  0
 12 16  1  0
 16 17  2  0
 17 19  1  0
 19 21  2  0
 21 23  1  0
 23 25  2  0
 25 16  1  0
 12 13  1  0
 12 14  1  0
 12 15  1  0
 17 18  1  0
 19 20  1  0
 21 22  1  0
 23 24  1  0
 25 26  1  0
M  CHG  1   8   1
M  END
>  <PDB_ID>  (23) 
pdb1a14

>  <RESIDUE_NAME>  (23) 
LYS   PHE

>  <FRAG_NAME>  (23) 
ETAM   MBZ

>  <FRAG_ATOM_NUM>  (23) 
fragi: 11  fragj: 15

>  <atom.prop.CHAIN_ID>  (23) 
A A A A A A A A A A A Z Z Z Z Z Z Z Z Z Z Z Z Z Z Z

>  <atom.prop.IS_HEAVY_ATOM>  (23) 
1 0 0 0 1 0 0 1 0 0 0 1 0 0 0 1 1 0 1 0 1 0 1 0 1 0

>  <DIFUSE_FUNC_ATOM>  (23) 
n/a

>  <FINAL_SINGLE_POINT_ENERGY>  (23) 
0

>  <NONCOV_INTER_ENERGY_QM>  (23) 
0

>  <FF_Energy>  (23) 
4.96

>  <QM_Energy>  (23) 
-1.71

>  <source>  (23) 
ETAM_MBZ

>  <Index>  (23) 
230

$$$$
ETAM-pdb2a9v-D-LYS-195:MBZ-pdb2a9v-D-PHE-198
     RDKit          3D

 26 25  0  0  0  0  0  0  0  0999 V2000
    3.2246   -4.0728   -0.2680 C   0  0  0  0  0  0  0  0  0  0  0  0
    3.7720   -4.6164   -0.8840 H   0  0  0  0  0  0  0  0  0  0  0  0
    3.1742   -4.4800    0.6303 H   0  0  0  0  0  0  0  0  0  0  0  0
    3.6692   -3.0812   -0.1824 H   0  0  0  0  0  0  0  0  0  0  0  0
    1.7823   -3.9932   -0.8446 C   0  0  0  0  0  0  0  0  0  0  0  0
    1.4648   -3.0382   -0.7758 H   0  0  0  0  0  0  0  0  0  0  0  0
    1.8162   -4.2410   -1.8219 H   0  0  0  0  0  0  0  0  0  0  0  0
    0.7654   -4.8929   -0.1521 N   0  0  0  0  0  4  0  0  0  0  0  0
   -0.1027   -4.8108   -0.6293 H   0  0  0  0  0  0  0  0  0  0  0  0
    1.0973   -5.8292   -0.1902 H   0  0  0  0  0  0  0  0  0  0  0  0
    0.6740   -4.5942    0.7916 H   0  0  0  0  0  0  0  0  0  0  0  0
   -0.0087    2.8935   -0.0244 C   0  0  0  0  0  0  0  0  0  0  0  0
   -0.8217    3.1925   -0.5225 H   0  0  0  0  0  0  0  0  0  0  0  0
    0.8107    3.2047   -0.5053 H   0  0  0  0  0  0  0  0  0  0  0  0
   -0.0224    3.3884    0.9467 H   0  0  0  0  0  0  0  0  0  0  0  0
    0.0017    1.3995   -0.0066 C   0  0  0  0  0  0  0  0  0  0  0  0
   -1.1988    0.6919   -0.0083 C   0  0  0  0  0  0  0  0  0  0  0  0
   -2.0642    1.1932   -0.0168 H   0  0  0  0  0  0  0  0  0  0  0  0
   -1.2189   -0.6930    0.0000 C   0  0  0  0  0  0  0  0  0  0  0  0
   -2.0879   -1.1864   -0.0109 H   0  0  0  0  0  0  0  0  0  0  0  0
   -0.0061   -1.3905    0.0246 C   0  0  0  0  0  0  0  0  0  0  0  0
   -0.0117   -2.3896    0.0612 H   0  0  0  0  0  0  0  0  0  0  0  0
    1.2189   -0.7007   -0.0000 C   0  0  0  0  0  0  0  0  0  0  0  0
    2.0855   -1.2003   -0.0093 H   0  0  0  0  0  0  0  0  0  0  0  0
    1.2032    0.6927   -0.0097 C   0  0  0  0  0  0  0  0  0  0  0  0
    2.0692    1.1947   -0.0188 H   0  0  0  0  0  0  0  0  0  0  0  0
  1  5  1  0
  5  8  1  0
  1  2  1  0
  1  3  1  0
  1  4  1  0
  5  6  1  0
  5  7  1  0
  8  9  1  0
  8 10  1  0
  8 11  1  0
 12 16  1  0
 16 17  2  0
 17 19  1  0
 19 21  2  0
 21 23  1  0
 23 25  2  0
 25 16  1  0
 12 13  1  0
 12 14  1  0
 12 15  1  0
 17 18  1  0
 19 20  1  0
 21 22  1  0
 23 24  1  0
 25 26  1  0
M  CHG  1   8   1
M  END
>  <PDB_ID>  (24) 
pdb2a9v

>  <RESIDUE_NAME>  (24) 
LYS   PHE

>  <FRAG_NAME>  (24) 
ETAM   MBZ

>  <FRAG_ATOM_NUM>  (24) 
fragi: 11  fragj: 15

>  <atom.prop.CHAIN_ID>  (24) 
A A A A A A A A A A A Z Z Z Z Z Z Z Z Z Z Z Z Z Z Z

>  <atom.prop.IS_HEAVY_ATOM>  (24) 
1 0 0 0 1 0 0 1 0 0 0 1 0 0 0 1 1 0 1 0 1 0 1 0 1 0

>  <DIFUSE_FUNC_ATOM>  (24) 
n/a

>  <FINAL_SINGLE_POINT_ENERGY>  (24) 
0

>  <NONCOV_INTER_ENERGY_QM>  (24) 
0

>  <FF_Energy>  (24) 
9.2

>  <QM_Energy>  (24) 
-1.77

>  <source>  (24) 
ETAM_MBZ

>  <Index>  (24) 
234

$$$$
ETAM-pdb2a0u-A-LYS-81:MBZ-pdb2a0u-A-PHE-96
     RDKit          3D

 26 25  0  0  0  0  0  0  0  0999 V2000
   -0.1508   -1.9703   -3.7387 C   0  0  0  0  0  0  0  0  0  0  0  0
    0.2249   -1.6210   -2.8870 H   0  0  0  0  0  0  0  0  0  0  0  0
   -0.5939   -1.2411   -4.2486 H   0  0  0  0  0  0  0  0  0  0  0  0
    0.6605   -2.3802   -4.3403 H   0  0  0  0  0  0  0  0  0  0  0  0
   -1.1850   -3.0335   -3.4131 C   0  0  0  0  0  0  0  0  0  0  0  0
   -1.4150   -3.5330   -4.2522 H   0  0  0  0  0  0  0  0  0  0  0  0
   -0.7944   -3.6774   -2.7489 H   0  0  0  0  0  0  0  0  0  0  0  0
   -2.4284   -2.4412   -2.8429 N   0  0  0  0  0  4  0  0  0  0  0  0
   -2.5661   -1.5292   -3.2263 H   0  0  0  0  0  0  0  0  0  0  0  0
   -3.2078   -3.0233   -3.0727 H   0  0  0  0  0  0  0  0  0  0  0  0
   -2.3389   -2.3779   -1.8494 H   0  0  0  0  0  0  0  0  0  0  0  0
    0.0026    2.9148   -0.0036 C   0  0  0  0  0  0  0  0  0  0  0  0
   -0.6911    3.2182   -0.6404 H   0  0  0  0  0  0  0  0  0  0  0  0
    0.9022    3.2172   -0.2826 H   0  0  0  0  0  0  0  0  0  0  0  0
   -0.2148    3.3662    0.9644 H   0  0  0  0  0  0  0  0  0  0  0  0
    0.0006    1.4066    0.0038 C   0  0  0  0  0  0  0  0  0  0  0  0
   -1.1984    0.6963   -0.0026 C   0  0  0  0  0  0  0  0  0  0  0  0
   -2.0647    1.1844   -0.0102 H   0  0  0  0  0  0  0  0  0  0  0  0
   -1.2036   -0.7000   -0.0000 C   0  0  0  0  0  0  0  0  0  0  0  0
   -2.0800   -1.1908    0.0037 H   0  0  0  0  0  0  0  0  0  0  0  0
   -0.0004   -1.3987   -0.0003 C   0  0  0  0  0  0  0  0  0  0  0  0
   -0.0037   -2.3955   -0.0011 H   0  0  0  0  0  0  0  0  0  0  0  0
    1.2036   -0.6999    0.0000 C   0  0  0  0  0  0  0  0  0  0  0  0
    2.0836   -1.1960    0.0024 H   0  0  0  0  0  0  0  0  0  0  0  0
    1.1983    0.6957   -0.0009 C   0  0  0  0  0  0  0  0  0  0  0  0
    2.0662    1.1905   -0.0059 H   0  0  0  0  0  0  0  0  0  0  0  0
  1  5  1  0
  5  8  1  0
  1  2  1  0
  1  3  1  0
  1  4  1  0
  5  6  1  0
  5  7  1  0
  8  9  1  0
  8 10  1  0
  8 11  1  0
 12 16  1  0
 16 17  2  0
 17 19  1  0
 19 21  2  0
 21 23  1  0
 23 25  2  0
 25 16  1  0
 12 13  1  0
 12 14  1  0
 12 15  1  0
 17 18  1  0
 19 20  1  0
 21 22  1  0
 23 24  1  0
 25 26  1  0
M  CHG  1   8   1
M  END
>  <PDB_ID>  (25) 
pdb2a0u

>  <RESIDUE_NAME>  (25) 
LYS   PHE

>  <FRAG_NAME>  (25) 
ETAM   MBZ

>  <FRAG_ATOM_NUM>  (25) 
fragi: 11  fragj: 15

>  <atom.prop.CHAIN_ID>  (25) 
A A A A A A A A A A A Z Z Z Z Z Z Z Z Z Z Z Z Z Z Z

>  <atom.prop.IS_HEAVY_ATOM>  (25) 
1 0 0 0 1 0 0 1 0 0 0 1 0 0 0 1 1 0 1 0 1 0 1 0 1 0

>  <DIFUSE_FUNC_ATOM>  (25) 
n/a

>  <FINAL_SINGLE_POINT_ENERGY>  (25) 
0

>  <NONCOV_INTER_ENERGY_QM>  (25) 
0

>  <FF_Energy>  (25) 
-2.55

>  <QM_Energy>  (25) 
-8.4

>  <source>  (25) 
ETAM_MBZ

>  <Index>  (25) 
249

$$$$
ETAM-pdb2abq-A-LYS-33:MBZ-pdb2abq-B-PHE-62
     RDKit          3D

 26 25  0  0  0  0  0  0  0  0999 V2000
    2.3942   -3.7995    0.0519 C   0  0  0  0  0  0  0  0  0  0  0  0
    2.6454   -2.8436    0.0774 H   0  0  0  0  0  0  0  0  0  0  0  0
    1.4165   -3.9121   -0.0432 H   0  0  0  0  0  0  0  0  0  0  0  0
    2.8946   -4.2787   -0.7895 H   0  0  0  0  0  0  0  0  0  0  0  0
    2.8327   -4.4513    1.3548 C   0  0  0  0  0  0  0  0  0  0  0  0
    2.5223   -5.4073    1.3566 H   0  0  0  0  0  0  0  0  0  0  0  0
    3.8372   -4.4413    1.3980 H   0  0  0  0  0  0  0  0  0  0  0  0
    2.2830   -3.7536    2.5358 N   0  0  0  0  0  4  0  0  0  0  0  0
    2.1622   -4.4054    3.2860 H   0  0  0  0  0  0  0  0  0  0  0  0
    2.9133   -3.0307    2.8241 H   0  0  0  0  0  0  0  0  0  0  0  0
    1.3975   -3.3468    2.3054 H   0  0  0  0  0  0  0  0  0  0  0  0
   -0.0113    2.8892   -0.0280 C   0  0  0  0  0  0  0  0  0  0  0  0
   -0.9281    3.1912   -0.2474 H   0  0  0  0  0  0  0  0  0  0  0  0
    0.6364    3.1920   -0.7134 H   0  0  0  0  0  0  0  0  0  0  0  0
    0.2701    3.3524    0.9177 H   0  0  0  0  0  0  0  0  0  0  0  0
   -0.0018    1.3965   -0.0006 C   0  0  0  0  0  0  0  0  0  0  0  0
   -1.1953    0.6857    0.0014 C   0  0  0  0  0  0  0  0  0  0  0  0
   -2.0632    1.1780    0.0029 H   0  0  0  0  0  0  0  0  0  0  0  0
   -1.1995   -0.6984    0.0000 C   0  0  0  0  0  0  0  0  0  0  0  0
   -2.0728   -1.1971    0.0009 H   0  0  0  0  0  0  0  0  0  0  0  0
    0.0058   -1.3916   -0.0010 C   0  0  0  0  0  0  0  0  0  0  0  0
    0.0036   -2.3896   -0.0030 H   0  0  0  0  0  0  0  0  0  0  0  0
    1.1995   -0.6906   -0.0000 C   0  0  0  0  0  0  0  0  0  0  0  0
    2.0855   -1.1845    0.0018 H   0  0  0  0  0  0  0  0  0  0  0  0
    1.1913    0.6985    0.0002 C   0  0  0  0  0  0  0  0  0  0  0  0
    2.0599    1.1961   -0.0001 H   0  0  0  0  0  0  0  0  0  0  0  0
  1  5  1  0
  5  8  1  0
  1  2  1  0
  1  3  1  0
  1  4  1  0
  5  6  1  0
  5  7  1  0
  8  9  1  0
  8 10  1  0
  8 11  1  0
 12 16  1  0
 16 17  2  0
 17 19  1  0
 19 21  2  0
 21 23  1  0
 23 25  2  0
 25 16  1  0
 12 13  1  0
 12 14  1  0
 12 15  1  0
 17 18  1  0
 19 20  1  0
 21 22  1  0
 23 24  1  0
 25 26  1  0
M  CHG  1   8   1
M  END
>  <PDB_ID>  (26) 
pdb2abq

>  <RESIDUE_NAME>  (26) 
LYS   PHE

>  <FRAG_NAME>  (26) 
ETAM   MBZ

>  <FRAG_ATOM_NUM>  (26) 
fragi: 11  fragj: 15

>  <atom.prop.CHAIN_ID>  (26) 
A A A A A A A A A A A Z Z Z Z Z Z Z Z Z Z Z Z Z Z Z

>  <atom.prop.IS_HEAVY_ATOM>  (26) 
1 0 0 0 1 0 0 1 0 0 0 1 0 0 0 1 1 0 1 0 1 0 1 0 1 0

>  <DIFUSE_FUNC_ATOM>  (26) 
n/a

>  <FINAL_SINGLE_POINT_ENERGY>  (26) 
0

>  <NONCOV_INTER_ENERGY_QM>  (26) 
0

>  <FF_Energy>  (26) 
5.4

>  <QM_Energy>  (26) 
-2.48

>  <source>  (26) 
ETAM_MBZ

>  <Index>  (26) 
252

$$$$
ETAM-pdb1a78-B-LYS-64:MBZ-pdb1a78-B-PHE-42
     RDKit          3D

 26 25  0  0  0  0  0  0  0  0999 V2000
    3.2700    0.2845   -3.7323 C   0  0  0  0  0  0  0  0  0  0  0  0
    3.4719   -0.3101   -4.5036 H   0  0  0  0  0  0  0  0  0  0  0  0
    4.0268    0.2848   -3.0873 H   0  0  0  0  0  0  0  0  0  0  0  0
    3.1236    1.2993   -4.1021 H   0  0  0  0  0  0  0  0  0  0  0  0
    2.0355   -0.2110   -3.0399 C   0  0  0  0  0  0  0  0  0  0  0  0
    2.0616    0.0565   -2.0762 H   0  0  0  0  0  0  0  0  0  0  0  0
    1.2262    0.1865   -3.4734 H   0  0  0  0  0  0  0  0  0  0  0  0
    1.9507   -1.6947   -3.1273 N   0  0  0  0  0  4  0  0  0  0  0  0
    0.9931   -1.9758   -3.0673 H   0  0  0  0  0  0  0  0  0  0  0  0
    2.3352   -1.9976   -3.9984 H   0  0  0  0  0  0  0  0  0  0  0  0
    2.4669   -2.1013   -2.3742 H   0  0  0  0  0  0  0  0  0  0  0  0
    0.0266    2.9177    0.0333 C   0  0  0  0  0  0  0  0  0  0  0  0
    0.8775    3.2206   -0.3789 H   0  0  0  0  0  0  0  0  0  0  0  0
   -0.0245    3.2031    0.9823 H   0  0  0  0  0  0  0  0  0  0  0  0
   -0.7901    3.4020   -0.5019 H   0  0  0  0  0  0  0  0  0  0  0  0
    0.0028    1.4147   -0.0013 C   0  0  0  0  0  0  0  0  0  0  0  0
   -1.2048    0.7052    0.0012 C   0  0  0  0  0  0  0  0  0  0  0  0
   -2.0676    1.1900    0.0021 H   0  0  0  0  0  0  0  0  0  0  0  0
   -1.2107   -0.7057   -0.0000 C   0  0  0  0  0  0  0  0  0  0  0  0
   -2.0876   -1.1902   -0.0021 H   0  0  0  0  0  0  0  0  0  0  0  0
   -0.0049   -1.4079    0.0031 C   0  0  0  0  0  0  0  0  0  0  0  0
   -0.0056   -2.4024    0.0065 H   0  0  0  0  0  0  0  0  0  0  0  0
    1.2107   -0.7044    0.0000 C   0  0  0  0  0  0  0  0  0  0  0  0
    2.0869   -1.2025    0.0013 H   0  0  0  0  0  0  0  0  0  0  0  0
    1.2069    0.6980   -0.0029 C   0  0  0  0  0  0  0  0  0  0  0  0
    2.0737    1.1909   -0.0074 H   0  0  0  0  0  0  0  0  0  0  0  0
  1  5  1  0
  5  8  1  0
  1  2  1  0
  1  3  1  0
  1  4  1  0
  5  6  1  0
  5  7  1  0
  8  9  1  0
  8 10  1  0
  8 11  1  0
 12 16  1  0
 16 17  2  0
 17 19  1  0
 19 21  2  0
 21 23  1  0
 23 25  2  0
 25 16  1  0
 12 13  1  0
 12 14  1  0
 12 15  1  0
 17 18  1  0
 19 20  1  0
 21 22  1  0
 23 24  1  0
 25 26  1  0
M  CHG  1   8   1
M  END
>  <PDB_ID>  (27) 
pdb1a78

>  <RESIDUE_NAME>  (27) 
LYS   PHE

>  <FRAG_NAME>  (27) 
ETAM   MBZ

>  <FRAG_ATOM_NUM>  (27) 
fragi: 11  fragj: 15

>  <atom.prop.CHAIN_ID>  (27) 
A A A A A A A A A A A Z Z Z Z Z Z Z Z Z Z Z Z Z Z Z

>  <atom.prop.IS_HEAVY_ATOM>  (27) 
1 0 0 0 1 0 0 1 0 0 0 1 0 0 0 1 1 0 1 0 1 0 1 0 1 0

>  <DIFUSE_FUNC_ATOM>  (27) 
n/a

>  <FINAL_SINGLE_POINT_ENERGY>  (27) 
0

>  <NONCOV_INTER_ENERGY_QM>  (27) 
0

>  <FF_Energy>  (27) 
1.06

>  <QM_Energy>  (27) 
-7.67

>  <source>  (27) 
ETAM_MBZ

>  <Index>  (27) 
258

$$$$
ETAM-pdb2ad1-A-LYS-49:MBZ-pdb2ad1-A-PHE-143
     RDKit          3D

 26 25  0  0  0  0  0  0  0  0999 V2000
    0.3121    1.8467   -4.2329 C   0  0  0  0  0  0  0  0  0  0  0  0
   -0.0553    2.6311   -4.7110 H   0  0  0  0  0  0  0  0  0  0  0  0
    0.5395    1.1170   -4.8604 H   0  0  0  0  0  0  0  0  0  0  0  0
    1.2197    2.1522   -3.7123 H   0  0  0  0  0  0  0  0  0  0  0  0
   -0.7121    1.3468   -3.2416 C   0  0  0  0  0  0  0  0  0  0  0  0
   -0.2299    0.9113   -2.4564 H   0  0  0  0  0  0  0  0  0  0  0  0
   -1.2227    2.1429   -2.8605 H   0  0  0  0  0  0  0  0  0  0  0  0
   -1.7153    0.3615   -3.7808 N   0  0  0  0  0  4  0  0  0  0  0  0
   -2.6078    0.8027   -3.8282 H   0  0  0  0  0  0  0  0  0  0  0  0
   -1.4286    0.0735   -4.6909 H   0  0  0  0  0  0  0  0  0  0  0  0
   -1.7548   -0.4254   -3.1709 H   0  0  0  0  0  0  0  0  0  0  0  0
    0.0055    2.9288   -0.0376 C   0  0  0  0  0  0  0  0  0  0  0  0
   -0.0597    3.2103   -0.9845 H   0  0  0  0  0  0  0  0  0  0  0  0
    0.8505    3.2448    0.3709 H   0  0  0  0  0  0  0  0  0  0  0  0
   -0.8138    3.4059    0.5002 H   0  0  0  0  0  0  0  0  0  0  0  0
   -0.0021    1.4202    0.0056 C   0  0  0  0  0  0  0  0  0  0  0  0
   -1.2100    0.6933   -0.0051 C   0  0  0  0  0  0  0  0  0  0  0  0
   -2.0749    1.1858   -0.0179 H   0  0  0  0  0  0  0  0  0  0  0  0
   -1.2187   -0.7068    0.0000 C   0  0  0  0  0  0  0  0  0  0  0  0
   -2.0887   -1.1997    0.0039 H   0  0  0  0  0  0  0  0  0  0  0  0
   -0.0011   -1.4115    0.0020 C   0  0  0  0  0  0  0  0  0  0  0  0
   -0.0061   -2.4059    0.0039 H   0  0  0  0  0  0  0  0  0  0  0  0
    1.2187   -0.7094   -0.0000 C   0  0  0  0  0  0  0  0  0  0  0  0
    2.0934   -1.1979    0.0021 H   0  0  0  0  0  0  0  0  0  0  0  0
    1.2132    0.7141   -0.0025 C   0  0  0  0  0  0  0  0  0  0  0  0
    2.0737    1.2022   -0.0108 H   0  0  0  0  0  0  0  0  0  0  0  0
  1  5  1  0
  5  8  1  0
  1  2  1  0
  1  3  1  0
  1  4  1  0
  5  6  1  0
  5  7  1  0
  8  9  1  0
  8 10  1  0
  8 11  1  0
 12 16  1  0
 16 17  2  0
 17 19  1  0
 19 21  2  0
 21 23  1  0
 23 25  2  0
 25 16  1  0
 12 13  1  0
 12 14  1  0
 12 15  1  0
 17 18  1  0
 19 20  1  0
 21 22  1  0
 23 24  1  0
 25 26  1  0
M  CHG  1   8   1
M  END
>  <PDB_ID>  (28) 
pdb2ad1

>  <RESIDUE_NAME>  (28) 
LYS   PHE

>  <FRAG_NAME>  (28) 
ETAM   MBZ

>  <FRAG_ATOM_NUM>  (28) 
fragi: 11  fragj: 15

>  <atom.prop.CHAIN_ID>  (28) 
A A A A A A A A A A A Z Z Z Z Z Z Z Z Z Z Z Z Z Z Z

>  <atom.prop.IS_HEAVY_ATOM>  (28) 
1 0 0 0 1 0 0 1 0 0 0 1 0 0 0 1 1 0 1 0 1 0 1 0 1 0

>  <DIFUSE_FUNC_ATOM>  (28) 
n/a

>  <FINAL_SINGLE_POINT_ENERGY>  (28) 
0

>  <NONCOV_INTER_ENERGY_QM>  (28) 
0

>  <FF_Energy>  (28) 
-4.62

>  <QM_Energy>  (28) 
-9.91

>  <source>  (28) 
ETAM_MBZ

>  <Index>  (28) 
264

$$$$
ETAM-pdb1a7d-A-LYS-108:MBZ-pdb1a7d-A-PHE-14
     RDKit          3D

 26 25  0  0  0  0  0  0  0  0999 V2000
   -2.1006   -0.9041   -3.4762 C   0  0  0  0  0  0  0  0  0  0  0  0
   -2.1561   -1.4351   -2.6713 H   0  0  0  0  0  0  0  0  0  0  0  0
   -2.1804   -1.3952   -4.3041 H   0  0  0  0  0  0  0  0  0  0  0  0
   -2.8612   -0.1240   -3.4450 H   0  0  0  0  0  0  0  0  0  0  0  0
   -0.7719   -0.1469   -3.4782 C   0  0  0  0  0  0  0  0  0  0  0  0
   -0.7561    0.4426   -4.2808 H   0  0  0  0  0  0  0  0  0  0  0  0
   -0.7310    0.4032   -2.6492 H   0  0  0  0  0  0  0  0  0  0  0  0
    0.2936   -1.1004   -3.5174 N   0  0  0  0  0  4  0  0  0  0  0  0
    0.2125   -1.6768   -4.3791 H   0  0  0  0  0  0  0  0  0  0  0  0
    1.2058   -0.6007   -3.5191 H   0  0  0  0  0  0  0  0  0  0  0  0
    0.2383   -1.7175   -2.6819 H   0  0  0  0  0  0  0  0  0  0  0  0
    0.0169    2.9116   -0.0293 C   0  0  0  0  0  0  0  0  0  0  0  0
    0.8530    3.2029    0.3922 H   0  0  0  0  0  0  0  0  0  0  0  0
   -0.7790    3.2288    0.4473 H   0  0  0  0  0  0  0  0  0  0  0  0
   -0.0113    3.3086   -1.0441 H   0  0  0  0  0  0  0  0  0  0  0  0
   -0.0059    1.3884   -0.0014 C   0  0  0  0  0  0  0  0  0  0  0  0
   -1.2258    0.6886   -0.0005 C   0  0  0  0  0  0  0  0  0  0  0  0
   -2.0783    1.1754   -0.0014 H   0  0  0  0  0  0  0  0  0  0  0  0
   -1.2142   -0.7107   -0.0000 C   0  0  0  0  0  0  0  0  0  0  0  0
   -2.0772   -1.2156    0.0030 H   0  0  0  0  0  0  0  0  0  0  0  0
    0.0104   -1.3916   -0.0023 C   0  0  0  0  0  0  0  0  0  0  0  0
    0.0156   -2.3920   -0.0065 H   0  0  0  0  0  0  0  0  0  0  0  0
    1.2142   -0.6848    0.0000 C   0  0  0  0  0  0  0  0  0  0  0  0
    2.0974   -1.1872    0.0003 H   0  0  0  0  0  0  0  0  0  0  0  0
    1.2214    0.7102    0.0042 C   0  0  0  0  0  0  0  0  0  0  0  0
    2.0672    1.2096    0.0104 H   0  0  0  0  0  0  0  0  0  0  0  0
  1  5  1  0
  5  8  1  0
  1  2  1  0
  1  3  1  0
  1  4  1  0
  5  6  1  0
  5  7  1  0
  8  9  1  0
  8 10  1  0
  8 11  1  0
 12 16  1  0
 16 17  2  0
 17 19  1  0
 19 21  2  0
 21 23  1  0
 23 25  2  0
 25 16  1  0
 12 13  1  0
 12 14  1  0
 12 15  1  0
 17 18  1  0
 19 20  1  0
 21 22  1  0
 23 24  1  0
 25 26  1  0
M  CHG  1   8   1
M  END
>  <PDB_ID>  (29) 
pdb1a7d

>  <RESIDUE_NAME>  (29) 
LYS   PHE

>  <FRAG_NAME>  (29) 
ETAM   MBZ

>  <FRAG_ATOM_NUM>  (29) 
fragi: 11  fragj: 15

>  <atom.prop.CHAIN_ID>  (29) 
A A A A A A A A A A A Z Z Z Z Z Z Z Z Z Z Z Z Z Z Z

>  <atom.prop.IS_HEAVY_ATOM>  (29) 
1 0 0 0 1 0 0 1 0 0 0 1 0 0 0 1 1 0 1 0 1 0 1 0 1 0

>  <DIFUSE_FUNC_ATOM>  (29) 
n/a

>  <FINAL_SINGLE_POINT_ENERGY>  (29) 
0

>  <NONCOV_INTER_ENERGY_QM>  (29) 
0

>  <FF_Energy>  (29) 
-6.93

>  <QM_Energy>  (29) 
-14.45

>  <source>  (29) 
ETAM_MBZ

>  <Index>  (29) 
265

$$$$
ETAM-pdb1a7d-A-LYS-115:MBZ-pdb1a7d-A-PHE-112
     RDKit          3D

 26 25  0  0  0  0  0  0  0  0999 V2000
   -0.1211    1.4622    4.2799 C   0  0  0  0  0  0  0  0  0  0  0  0
    0.4222    2.0780    3.6963 H   0  0  0  0  0  0  0  0  0  0  0  0
    0.3501    1.3676    5.1649 H   0  0  0  0  0  0  0  0  0  0  0  0
   -1.0925    1.9246    4.4552 H   0  0  0  0  0  0  0  0  0  0  0  0
   -0.1985    0.1162    3.6257 C   0  0  0  0  0  0  0  0  0  0  0  0
   -0.8279   -0.4612    4.1352 H   0  0  0  0  0  0  0  0  0  0  0  0
   -0.5096    0.2242    2.6875 H   0  0  0  0  0  0  0  0  0  0  0  0
    1.1379   -0.4762    3.6393 N   0  0  0  0  0  4  0  0  0  0  0  0
    1.4638   -0.5750    4.6224 H   0  0  0  0  0  0  0  0  0  0  0  0
    1.1067   -1.4130    3.1888 H   0  0  0  0  0  0  0  0  0  0  0  0
    1.7942    0.1374    3.1162 H   0  0  0  0  0  0  0  0  0  0  0  0
    0.0508    2.9320   -0.0530 C   0  0  0  0  0  0  0  0  0  0  0  0
    0.2046    3.2148   -0.9799 H   0  0  0  0  0  0  0  0  0  0  0  0
    0.7668    3.2214    0.5534 H   0  0  0  0  0  0  0  0  0  0  0  0
   -0.8782    3.3907    0.2859 H   0  0  0  0  0  0  0  0  0  0  0  0
    0.0039    1.4127   -0.0296 C   0  0  0  0  0  0  0  0  0  0  0  0
   -1.2153    0.6967    0.0037 C   0  0  0  0  0  0  0  0  0  0  0  0
   -2.0704    1.1867    0.0285 H   0  0  0  0  0  0  0  0  0  0  0  0
   -1.2100   -0.7018   -0.0000 C   0  0  0  0  0  0  0  0  0  0  0  0
   -2.0831   -1.1999   -0.0182 H   0  0  0  0  0  0  0  0  0  0  0  0
    0.0015   -1.4025    0.0232 C   0  0  0  0  0  0  0  0  0  0  0  0
   -0.0049   -2.3982    0.0555 H   0  0  0  0  0  0  0  0  0  0  0  0
    1.2100   -0.7049    0.0000 C   0  0  0  0  0  0  0  0  0  0  0  0
    2.0891   -1.2005   -0.0173 H   0  0  0  0  0  0  0  0  0  0  0  0
    1.2099    0.6999    0.0027 C   0  0  0  0  0  0  0  0  0  0  0  0
    2.0739    1.1913    0.0274 H   0  0  0  0  0  0  0  0  0  0  0  0
  1  5  1  0
  5  8  1  0
  1  2  1  0
  1  3  1  0
  1  4  1  0
  5  6  1  0
  5  7  1  0
  8  9  1  0
  8 10  1  0
  8 11  1  0
 12 16  1  0
 16 17  2  0
 17 19  1  0
 19 21  2  0
 21 23  1  0
 23 25  2  0
 25 16  1  0
 12 13  1  0
 12 14  1  0
 12 15  1  0
 17 18  1  0
 19 20  1  0
 21 22  1  0
 23 24  1  0
 25 26  1  0
M  CHG  1   8   1
M  END
>  <PDB_ID>  (30) 
pdb1a7d

>  <RESIDUE_NAME>  (30) 
LYS   PHE

>  <FRAG_NAME>  (30) 
ETAM   MBZ

>  <FRAG_ATOM_NUM>  (30) 
fragi: 11  fragj: 15

>  <atom.prop.CHAIN_ID>  (30) 
A A A A A A A A A A A Z Z Z Z Z Z Z Z Z Z Z Z Z Z Z

>  <atom.prop.IS_HEAVY_ATOM>  (30) 
1 0 0 0 1 0 0 1 0 0 0 1 0 0 0 1 1 0 1 0 1 0 1 0 1 0

>  <DIFUSE_FUNC_ATOM>  (30) 
n/a

>  <FINAL_SINGLE_POINT_ENERGY>  (30) 
0

>  <NONCOV_INTER_ENERGY_QM>  (30) 
0

>  <FF_Energy>  (30) 
-6.77

>  <QM_Energy>  (30) 
-13.13

>  <source>  (30) 
ETAM_MBZ

>  <Index>  (30) 
266

$$$$
ETAM-pdb1a7s-A-LYS-6:MBZ-pdb1a7s-A-PHE-140
     RDKit          3D

 26 25  0  0  0  0  0  0  0  0999 V2000
    1.6419    1.9085    4.0762 C   0  0  0  0  0  0  0  0  0  0  0  0
    2.4521    1.7517    3.5317 H   0  0  0  0  0  0  0  0  0  0  0  0
    1.8153    1.7459    5.0358 H   0  0  0  0  0  0  0  0  0  0  0  0
    1.3312    2.9455    3.9484 H   0  0  0  0  0  0  0  0  0  0  0  0
    0.5431    0.9501    3.6069 C   0  0  0  0  0  0  0  0  0  0  0  0
   -0.2656    1.0917    4.1601 H   0  0  0  0  0  0  0  0  0  0  0  0
    0.3557    1.1189    2.6502 H   0  0  0  0  0  0  0  0  0  0  0  0
    1.0205   -0.4592    3.7774 N   0  0  0  0  0  4  0  0  0  0  0  0
    1.8709   -0.4554    4.3003 H   0  0  0  0  0  0  0  0  0  0  0  0
    0.3249   -0.9834    4.2657 H   0  0  0  0  0  0  0  0  0  0  0  0
    1.1789   -0.8619    2.8776 H   0  0  0  0  0  0  0  0  0  0  0  0
    0.0207    2.9086   -0.0323 C   0  0  0  0  0  0  0  0  0  0  0  0
    0.9601    3.1950    0.0738 H   0  0  0  0  0  0  0  0  0  0  0  0
   -0.5448    3.2432    0.7057 H   0  0  0  0  0  0  0  0  0  0  0  0
   -0.3566    3.3362   -0.9612 H   0  0  0  0  0  0  0  0  0  0  0  0
   -0.0091    1.3938    0.0106 C   0  0  0  0  0  0  0  0  0  0  0  0
   -1.1758    0.6969   -0.0443 C   0  0  0  0  0  0  0  0  0  0  0  0
   -2.0522    1.1744   -0.1190 H   0  0  0  0  0  0  0  0  0  0  0  0
   -1.1783   -0.6912    0.0000 C   0  0  0  0  0  0  0  0  0  0  0  0
   -2.0615   -1.1814    0.0253 H   0  0  0  0  0  0  0  0  0  0  0  0
    0.0109   -1.3873    0.0106 C   0  0  0  0  0  0  0  0  0  0  0  0
   -0.0005   -2.3878    0.0252 H   0  0  0  0  0  0  0  0  0  0  0  0
    1.1783   -0.6964   -0.0000 C   0  0  0  0  0  0  0  0  0  0  0  0
    2.0761   -1.1860   -0.0232 H   0  0  0  0  0  0  0  0  0  0  0  0
    1.1740    0.6843    0.0230 C   0  0  0  0  0  0  0  0  0  0  0  0
    2.0481    1.1802    0.0479 H   0  0  0  0  0  0  0  0  0  0  0  0
  1  5  1  0
  5  8  1  0
  1  2  1  0
  1  3  1  0
  1  4  1  0
  5  6  1  0
  5  7  1  0
  8  9  1  0
  8 10  1  0
  8 11  1  0
 12 16  1  0
 16 17  2  0
 17 19  1  0
 19 21  2  0
 21 23  1  0
 23 25  2  0
 25 16  1  0
 12 13  1  0
 12 14  1  0
 12 15  1  0
 17 18  1  0
 19 20  1  0
 21 22  1  0
 23 24  1  0
 25 26  1  0
M  CHG  1   8   1
M  END
>  <PDB_ID>  (31) 
pdb1a7s

>  <RESIDUE_NAME>  (31) 
LYS   PHE

>  <FRAG_NAME>  (31) 
ETAM   MBZ

>  <FRAG_ATOM_NUM>  (31) 
fragi: 11  fragj: 15

>  <atom.prop.CHAIN_ID>  (31) 
A A A A A A A A A A A Z Z Z Z Z Z Z Z Z Z Z Z Z Z Z

>  <atom.prop.IS_HEAVY_ATOM>  (31) 
1 0 0 0 1 0 0 1 0 0 0 1 0 0 0 1 1 0 1 0 1 0 1 0 1 0

>  <DIFUSE_FUNC_ATOM>  (31) 
n/a

>  <FINAL_SINGLE_POINT_ENERGY>  (31) 
0

>  <NONCOV_INTER_ENERGY_QM>  (31) 
0

>  <FF_Energy>  (31) 
-6.66

>  <QM_Energy>  (31) 
-12.24

>  <source>  (31) 
ETAM_MBZ

>  <Index>  (31) 
268

$$$$
ETAM-pdb1a49-B-LYS-992:MBZ-pdb1a49-B-PHE-989
     RDKit          3D

 26 25  0  0  0  0  0  0  0  0999 V2000
    2.5940   -0.9881    2.7758 C   0  0  0  0  0  0  0  0  0  0  0  0
    1.9706   -1.0897    1.9981 H   0  0  0  0  0  0  0  0  0  0  0  0
    3.2177   -0.2241    2.6008 H   0  0  0  0  0  0  0  0  0  0  0  0
    2.0042   -0.7579    3.6631 H   0  0  0  0  0  0  0  0  0  0  0  0
    3.4323   -2.2753    2.8929 C   0  0  0  0  0  0  0  0  0  0  0  0
    3.8128   -2.3307    3.8252 H   0  0  0  0  0  0  0  0  0  0  0  0
    2.8266   -3.0704    2.7551 H   0  0  0  0  0  0  0  0  0  0  0  0
    4.5807   -2.3686    1.8991 N   0  0  0  0  0  4  0  0  0  0  0  0
    5.0198   -3.2533    2.0076 H   0  0  0  0  0  0  0  0  0  0  0  0
    4.2112   -2.2744    0.9806 H   0  0  0  0  0  0  0  0  0  0  0  0
    5.2242   -1.6352    2.0917 H   0  0  0  0  0  0  0  0  0  0  0  0
   -0.0416    2.9179   -0.0256 C   0  0  0  0  0  0  0  0  0  0  0  0
    0.3650    3.2335   -0.8620 H   0  0  0  0  0  0  0  0  0  0  0  0
    0.4408    3.2332    0.7696 H   0  0  0  0  0  0  0  0  0  0  0  0
   -1.0529    3.3218    0.0217 H   0  0  0  0  0  0  0  0  0  0  0  0
   -0.0090    1.4033   -0.0276 C   0  0  0  0  0  0  0  0  0  0  0  0
   -1.1985    0.6694   -0.0065 C   0  0  0  0  0  0  0  0  0  0  0  0
   -2.0737    1.1599    0.0031 H   0  0  0  0  0  0  0  0  0  0  0  0
   -1.2071   -0.7207   -0.0000 C   0  0  0  0  0  0  0  0  0  0  0  0
   -2.0683   -1.2185   -0.0142 H   0  0  0  0  0  0  0  0  0  0  0  0
    0.0107   -1.3846    0.0290 C   0  0  0  0  0  0  0  0  0  0  0  0
    0.0235   -2.3908    0.0707 H   0  0  0  0  0  0  0  0  0  0  0  0
    1.2071   -0.6819    0.0000 C   0  0  0  0  0  0  0  0  0  0  0  0
    2.0915   -1.1719   -0.0234 H   0  0  0  0  0  0  0  0  0  0  0  0
    1.1968    0.7145    0.0051 C   0  0  0  0  0  0  0  0  0  0  0  0
    2.0570    1.2135    0.0314 H   0  0  0  0  0  0  0  0  0  0  0  0
  1  5  1  0
  5  8  1  0
  1  2  1  0
  1  3  1  0
  1  4  1  0
  5  6  1  0
  5  7  1  0
  8  9  1  0
  8 10  1  0
  8 11  1  0
 12 16  1  0
 16 17  2  0
 17 19  1  0
 19 21  2  0
 21 23  1  0
 23 25  2  0
 25 16  1  0
 12 13  1  0
 12 14  1  0
 12 15  1  0
 17 18  1  0
 19 20  1  0
 21 22  1  0
 23 24  1  0
 25 26  1  0
M  CHG  1   8   1
M  END
>  <PDB_ID>  (32) 
pdb1a49

>  <RESIDUE_NAME>  (32) 
LYS   PHE

>  <FRAG_NAME>  (32) 
ETAM   MBZ

>  <FRAG_ATOM_NUM>  (32) 
fragi: 11  fragj: 15

>  <atom.prop.CHAIN_ID>  (32) 
A A A A A A A A A A A Z Z Z Z Z Z Z Z Z Z Z Z Z Z Z

>  <atom.prop.IS_HEAVY_ATOM>  (32) 
1 0 0 0 1 0 0 1 0 0 0 1 0 0 0 1 1 0 1 0 1 0 1 0 1 0

>  <DIFUSE_FUNC_ATOM>  (32) 
n/a

>  <FINAL_SINGLE_POINT_ENERGY>  (32) 
0

>  <NONCOV_INTER_ENERGY_QM>  (32) 
0

>  <FF_Energy>  (32) 
6.74

>  <QM_Energy>  (32) 
-0.89

>  <source>  (32) 
ETAM_MBZ

>  <Index>  (32) 
269

$$$$
ETAM-pdb2aeg-A-LYS-77:MBZ-pdb2aeg-A-PHE-83
     RDKit          3D

 26 25  0  0  0  0  0  0  0  0999 V2000
   -2.8533   -3.2818   -1.6687 C   0  0  0  0  0  0  0  0  0  0  0  0
   -2.1024   -2.9839   -1.0791 H   0  0  0  0  0  0  0  0  0  0  0  0
   -2.5464   -4.0386   -2.2447 H   0  0  0  0  0  0  0  0  0  0  0  0
   -3.6668   -3.6377   -1.0366 H   0  0  0  0  0  0  0  0  0  0  0  0
   -3.2510   -2.1116   -2.5765 C   0  0  0  0  0  0  0  0  0  0  0  0
   -2.4588   -1.8749   -3.1591 H   0  0  0  0  0  0  0  0  0  0  0  0
   -3.9979   -2.4191   -3.1864 H   0  0  0  0  0  0  0  0  0  0  0  0
   -3.6958   -0.8919   -1.8402 N   0  0  0  0  0  4  0  0  0  0  0  0
   -3.0089   -0.6510   -1.1555 H   0  0  0  0  0  0  0  0  0  0  0  0
   -3.8045   -0.1381   -2.4868 H   0  0  0  0  0  0  0  0  0  0  0  0
   -4.5680   -1.0785   -1.3906 H   0  0  0  0  0  0  0  0  0  0  0  0
    0.0029    2.8967   -0.0387 C   0  0  0  0  0  0  0  0  0  0  0  0
    0.7747    3.2177    0.4883 H   0  0  0  0  0  0  0  0  0  0  0  0
   -0.8519    3.2164    0.3420 H   0  0  0  0  0  0  0  0  0  0  0  0
    0.0929    3.3046   -1.0455 H   0  0  0  0  0  0  0  0  0  0  0  0
    0.0007    1.4010    0.0006 C   0  0  0  0  0  0  0  0  0  0  0  0
   -1.1977    0.6970   -0.0005 C   0  0  0  0  0  0  0  0  0  0  0  0
   -2.0626    1.1882   -0.0024 H   0  0  0  0  0  0  0  0  0  0  0  0
   -1.2044   -0.6944   -0.0000 C   0  0  0  0  0  0  0  0  0  0  0  0
   -2.0801   -1.1885    0.0023 H   0  0  0  0  0  0  0  0  0  0  0  0
    0.0006   -1.3957   -0.0009 C   0  0  0  0  0  0  0  0  0  0  0  0
   -0.0070   -2.3929   -0.0023 H   0  0  0  0  0  0  0  0  0  0  0  0
    1.2044   -0.7006    0.0000 C   0  0  0  0  0  0  0  0  0  0  0  0
    2.0836   -1.1967    0.0019 H   0  0  0  0  0  0  0  0  0  0  0  0
    1.1965    0.6927    0.0008 C   0  0  0  0  0  0  0  0  0  0  0  0
    2.0650    1.1889    0.0008 H   0  0  0  0  0  0  0  0  0  0  0  0
  1  5  1  0
  5  8  1  0
  1  2  1  0
  1  3  1  0
  1  4  1  0
  5  6  1  0
  5  7  1  0
  8  9  1  0
  8 10  1  0
  8 11  1  0
 12 16  1  0
 16 17  2  0
 17 19  1  0
 19 21  2  0
 21 23  1  0
 23 25  2  0
 25 16  1  0
 12 13  1  0
 12 14  1  0
 12 15  1  0
 17 18  1  0
 19 20  1  0
 21 22  1  0
 23 24  1  0
 25 26  1  0
M  CHG  1   8   1
M  END
>  <PDB_ID>  (33) 
pdb2aeg

>  <RESIDUE_NAME>  (33) 
LYS   PHE

>  <FRAG_NAME>  (33) 
ETAM   MBZ

>  <FRAG_ATOM_NUM>  (33) 
fragi: 11  fragj: 15

>  <atom.prop.CHAIN_ID>  (33) 
A A A A A A A A A A A Z Z Z Z Z Z Z Z Z Z Z Z Z Z Z

>  <atom.prop.IS_HEAVY_ATOM>  (33) 
1 0 0 0 1 0 0 1 0 0 0 1 0 0 0 1 1 0 1 0 1 0 1 0 1 0

>  <DIFUSE_FUNC_ATOM>  (33) 
n/a

>  <FINAL_SINGLE_POINT_ENERGY>  (33) 
0

>  <NONCOV_INTER_ENERGY_QM>  (33) 
0

>  <FF_Energy>  (33) 
2.07

>  <QM_Energy>  (33) 
-5.22

>  <source>  (33) 
ETAM_MBZ

>  <Index>  (33) 
272

$$$$
ETAM-pdb2aeg-C-LYS-77:MBZ-pdb2aeg-C-PHE-83
     RDKit          3D

 26 25  0  0  0  0  0  0  0  0999 V2000
   -3.6155   -3.3282    1.0250 C   0  0  0  0  0  0  0  0  0  0  0  0
   -2.6538   -3.0502    1.0224 H   0  0  0  0  0  0  0  0  0  0  0  0
   -3.6944   -4.2506    0.6458 H   0  0  0  0  0  0  0  0  0  0  0  0
   -3.9795   -3.3345    2.0524 H   0  0  0  0  0  0  0  0  0  0  0  0
   -4.3905   -2.3659    0.1005 C   0  0  0  0  0  0  0  0  0  0  0  0
   -4.1008   -2.5476   -0.8613 H   0  0  0  0  0  0  0  0  0  0  0  0
   -5.3810   -2.6074    0.1493 H   0  0  0  0  0  0  0  0  0  0  0  0
   -4.2403   -0.8956    0.3786 N   0  0  0  0  0  4  0  0  0  0  0  0
   -4.7246   -0.3816   -0.3257 H   0  0  0  0  0  0  0  0  0  0  0  0
   -4.6277   -0.6939    1.2748 H   0  0  0  0  0  0  0  0  0  0  0  0
   -3.2717   -0.6614    0.3663 H   0  0  0  0  0  0  0  0  0  0  0  0
    0.0039    2.8962   -0.0574 C   0  0  0  0  0  0  0  0  0  0  0  0
    0.8766    3.2159    0.2793 H   0  0  0  0  0  0  0  0  0  0  0  0
   -0.7420    3.2287    0.4987 H   0  0  0  0  0  0  0  0  0  0  0  0
   -0.1297    3.2925   -1.0640 H   0  0  0  0  0  0  0  0  0  0  0  0
   -0.0000    1.4016   -0.0003 C   0  0  0  0  0  0  0  0  0  0  0  0
   -1.1967    0.6965    0.0002 C   0  0  0  0  0  0  0  0  0  0  0  0
   -2.0625    1.1876   -0.0004 H   0  0  0  0  0  0  0  0  0  0  0  0
   -1.2033   -0.6942   -0.0000 C   0  0  0  0  0  0  0  0  0  0  0  0
   -2.0791   -1.1880    0.0014 H   0  0  0  0  0  0  0  0  0  0  0  0
    0.0007   -1.3961   -0.0010 C   0  0  0  0  0  0  0  0  0  0  0  0
   -0.0063   -2.3932   -0.0030 H   0  0  0  0  0  0  0  0  0  0  0  0
    1.2033   -0.6999   -0.0000 C   0  0  0  0  0  0  0  0  0  0  0  0
    2.0837   -1.1963    0.0010 H   0  0  0  0  0  0  0  0  0  0  0  0
    1.1960    0.6921    0.0011 C   0  0  0  0  0  0  0  0  0  0  0  0
    2.0649    1.1883    0.0020 H   0  0  0  0  0  0  0  0  0  0  0  0
  1  5  1  0
  5  8  1  0
  1  2  1  0
  1  3  1  0
  1  4  1  0
  5  6  1  0
  5  7  1  0
  8  9  1  0
  8 10  1  0
  8 11  1  0
 12 16  1  0
 16 17  2  0
 17 19  1  0
 19 21  2  0
 21 23  1  0
 23 25  2  0
 25 16  1  0
 12 13  1  0
 12 14  1  0
 12 15  1  0
 17 18  1  0
 19 20  1  0
 21 22  1  0
 23 24  1  0
 25 26  1  0
M  CHG  1   8   1
M  END
>  <PDB_ID>  (34) 
pdb2aeg

>  <RESIDUE_NAME>  (34) 
LYS   PHE

>  <FRAG_NAME>  (34) 
ETAM   MBZ

>  <FRAG_ATOM_NUM>  (34) 
fragi: 11  fragj: 15

>  <atom.prop.CHAIN_ID>  (34) 
A A A A A A A A A A A Z Z Z Z Z Z Z Z Z Z Z Z Z Z Z

>  <atom.prop.IS_HEAVY_ATOM>  (34) 
1 0 0 0 1 0 0 1 0 0 0 1 0 0 0 1 1 0 1 0 1 0 1 0 1 0

>  <DIFUSE_FUNC_ATOM>  (34) 
n/a

>  <FINAL_SINGLE_POINT_ENERGY>  (34) 
0

>  <NONCOV_INTER_ENERGY_QM>  (34) 
0

>  <FF_Energy>  (34) 
8.86

>  <QM_Energy>  (34) 
0.15

>  <source>  (34) 
ETAM_MBZ

>  <Index>  (34) 
276

$$$$
ETAM-pdb2aeu-A-LYS-13:MBZ-pdb2aeu-A-PHE-320
     RDKit          3D

 26 25  0  0  0  0  0  0  0  0999 V2000
    1.5903   -2.3250   -3.1397 C   0  0  0  0  0  0  0  0  0  0  0  0
    1.3910   -2.8316   -3.9588 H   0  0  0  0  0  0  0  0  0  0  0  0
    0.8183   -2.2790   -2.5323 H   0  0  0  0  0  0  0  0  0  0  0  0
    2.4226   -2.8015   -2.6216 H   0  0  0  0  0  0  0  0  0  0  0  0
    1.9924   -0.9042   -3.5287 C   0  0  0  0  0  0  0  0  0  0  0  0
    2.5949   -0.5295   -2.7998 H   0  0  0  0  0  0  0  0  0  0  0  0
    2.5534   -0.9494   -4.3767 H   0  0  0  0  0  0  0  0  0  0  0  0
    0.8610    0.0389   -3.7501 N   0  0  0  0  0  4  0  0  0  0  0  0
    1.0376    0.5807   -4.5704 H   0  0  0  0  0  0  0  0  0  0  0  0
    0.0148   -0.4808   -3.8672 H   0  0  0  0  0  0  0  0  0  0  0  0
    0.7760    0.6454   -2.9600 H   0  0  0  0  0  0  0  0  0  0  0  0
    0.0070    2.8740    0.0119 C   0  0  0  0  0  0  0  0  0  0  0  0
   -0.8712    3.1953   -0.2995 H   0  0  0  0  0  0  0  0  0  0  0  0
    0.7400    3.1909   -0.5661 H   0  0  0  0  0  0  0  0  0  0  0  0
    0.1738    3.2773    1.0107 H   0  0  0  0  0  0  0  0  0  0  0  0
    0.0001    1.3909   -0.0047 C   0  0  0  0  0  0  0  0  0  0  0  0
   -1.2002    0.6899    0.0024 C   0  0  0  0  0  0  0  0  0  0  0  0
   -2.0634    1.1847    0.0082 H   0  0  0  0  0  0  0  0  0  0  0  0
   -1.2074   -0.6959   -0.0000 C   0  0  0  0  0  0  0  0  0  0  0  0
   -2.0795   -1.1927   -0.0025 H   0  0  0  0  0  0  0  0  0  0  0  0
   -0.0015   -1.3846    0.0022 C   0  0  0  0  0  0  0  0  0  0  0  0
   -0.0031   -2.3869    0.0049 H   0  0  0  0  0  0  0  0  0  0  0  0
    1.2074   -0.6918    0.0000 C   0  0  0  0  0  0  0  0  0  0  0  0
    2.0831   -1.1956    0.0001 H   0  0  0  0  0  0  0  0  0  0  0  0
    1.2015    0.6915    0.0001 C   0  0  0  0  0  0  0  0  0  0  0  0
    2.0656    1.1937    0.0028 H   0  0  0  0  0  0  0  0  0  0  0  0
  1  5  1  0
  5  8  1  0
  1  2  1  0
  1  3  1  0
  1  4  1  0
  5  6  1  0
  5  7  1  0
  8  9  1  0
  8 10  1  0
  8 11  1  0
 12 16  1  0
 16 17  2  0
 17 19  1  0
 19 21  2  0
 21 23  1  0
 23 25  2  0
 25 16  1  0
 12 13  1  0
 12 14  1  0
 12 15  1  0
 17 18  1  0
 19 20  1  0
 21 22  1  0
 23 24  1  0
 25 26  1  0
M  CHG  1   8   1
M  END
>  <PDB_ID>  (35) 
pdb2aeu

>  <RESIDUE_NAME>  (35) 
LYS   PHE

>  <FRAG_NAME>  (35) 
ETAM   MBZ

>  <FRAG_ATOM_NUM>  (35) 
fragi: 11  fragj: 15

>  <atom.prop.CHAIN_ID>  (35) 
A A A A A A A A A A A Z Z Z Z Z Z Z Z Z Z Z Z Z Z Z

>  <atom.prop.IS_HEAVY_ATOM>  (35) 
1 0 0 0 1 0 0 1 0 0 0 1 0 0 0 1 1 0 1 0 1 0 1 0 1 0

>  <DIFUSE_FUNC_ATOM>  (35) 
n/a

>  <FINAL_SINGLE_POINT_ENERGY>  (35) 
0

>  <NONCOV_INTER_ENERGY_QM>  (35) 
0

>  <FF_Energy>  (35) 
-6.95

>  <QM_Energy>  (35) 
-12.14

>  <source>  (35) 
ETAM_MBZ

>  <Index>  (35) 
277

$$$$
ETAM-pdb2afb-B-LYS-298:MBZ-pdb2afb-B-PHE-294
     RDKit          3D

 26 25  0  0  0  0  0  0  0  0999 V2000
   -0.0255    1.1245    3.7936 C   0  0  0  0  0  0  0  0  0  0  0  0
   -0.4301    1.4305    4.6379 H   0  0  0  0  0  0  0  0  0  0  0  0
   -0.5354    1.4288    3.0079 H   0  0  0  0  0  0  0  0  0  0  0  0
    1.0009    1.4858    3.7281 H   0  0  0  0  0  0  0  0  0  0  0  0
   -0.0365   -0.4264    3.7953 C   0  0  0  0  0  0  0  0  0  0  0  0
    0.4687   -0.7358    2.9907 H   0  0  0  0  0  0  0  0  0  0  0  0
    0.4308   -0.7340    4.6235 H   0  0  0  0  0  0  0  0  0  0  0  0
   -1.4072   -0.9365    3.7639 N   0  0  0  0  0  4  0  0  0  0  0  0
   -1.5367   -1.5255    2.9615 H   0  0  0  0  0  0  0  0  0  0  0  0
   -1.5948   -1.4709    4.5927 H   0  0  0  0  0  0  0  0  0  0  0  0
   -2.0574   -0.1732    3.7154 H   0  0  0  0  0  0  0  0  0  0  0  0
    0.0479    2.8773   -0.0119 C   0  0  0  0  0  0  0  0  0  0  0  0
    0.4585    3.1751   -0.8657 H   0  0  0  0  0  0  0  0  0  0  0  0
    0.5884    3.1860    0.7617 H   0  0  0  0  0  0  0  0  0  0  0  0
   -0.9269    3.3594    0.0626 H   0  0  0  0  0  0  0  0  0  0  0  0
    0.0101    1.3910    0.0007 C   0  0  0  0  0  0  0  0  0  0  0  0
   -1.1931    0.6815   -0.0131 C   0  0  0  0  0  0  0  0  0  0  0  0
   -2.0549    1.1769   -0.0341 H   0  0  0  0  0  0  0  0  0  0  0  0
   -1.1911   -0.6969   -0.0000 C   0  0  0  0  0  0  0  0  0  0  0  0
   -2.0746   -1.1915    0.0153 H   0  0  0  0  0  0  0  0  0  0  0  0
   -0.0101   -1.3731   -0.0060 C   0  0  0  0  0  0  0  0  0  0  0  0
   -0.0013   -2.3808   -0.0151 H   0  0  0  0  0  0  0  0  0  0  0  0
    1.1911   -0.6832   -0.0000 C   0  0  0  0  0  0  0  0  0  0  0  0
    2.0692   -1.1971   -0.0074 H   0  0  0  0  0  0  0  0  0  0  0  0
    1.1931    0.6808    0.0184 C   0  0  0  0  0  0  0  0  0  0  0  0
    2.0656    1.1824    0.0444 H   0  0  0  0  0  0  0  0  0  0  0  0
  1  5  1  0
  5  8  1  0
  1  2  1  0
  1  3  1  0
  1  4  1  0
  5  6  1  0
  5  7  1  0
  8  9  1  0
  8 10  1  0
  8 11  1  0
 12 16  1  0
 16 17  2  0
 17 19  1  0
 19 21  2  0
 21 23  1  0
 23 25  2  0
 25 16  1  0
 12 13  1  0
 12 14  1  0
 12 15  1  0
 17 18  1  0
 19 20  1  0
 21 22  1  0
 23 24  1  0
 25 26  1  0
M  CHG  1   8   1
M  END
>  <PDB_ID>  (36) 
pdb2afb

>  <RESIDUE_NAME>  (36) 
LYS   PHE

>  <FRAG_NAME>  (36) 
ETAM   MBZ

>  <FRAG_ATOM_NUM>  (36) 
fragi: 11  fragj: 15

>  <atom.prop.CHAIN_ID>  (36) 
A A A A A A A A A A A Z Z Z Z Z Z Z Z Z Z Z Z Z Z Z

>  <atom.prop.IS_HEAVY_ATOM>  (36) 
1 0 0 0 1 0 0 1 0 0 0 1 0 0 0 1 1 0 1 0 1 0 1 0 1 0

>  <DIFUSE_FUNC_ATOM>  (36) 
n/a

>  <FINAL_SINGLE_POINT_ENERGY>  (36) 
0

>  <NONCOV_INTER_ENERGY_QM>  (36) 
0

>  <FF_Energy>  (36) 
-6.32

>  <QM_Energy>  (36) 
-11.6

>  <source>  (36) 
ETAM_MBZ

>  <Index>  (36) 
293

$$$$
ETAM-pdb1a6j-A-LYS-28:MBZ-pdb1a6j-A-PHE-96
     RDKit          3D

 26 25  0  0  0  0  0  0  0  0999 V2000
   -0.3057    0.3040    3.9609 C   0  0  0  0  0  0  0  0  0  0  0  0
   -0.2841    1.2296    3.5851 H   0  0  0  0  0  0  0  0  0  0  0  0
   -0.3010    0.3464    4.9591 H   0  0  0  0  0  0  0  0  0  0  0  0
   -1.2173   -0.1931    3.6295 H   0  0  0  0  0  0  0  0  0  0  0  0
    0.9199   -0.4315    3.5036 C   0  0  0  0  0  0  0  0  0  0  0  0
    1.0055   -1.2928    4.0112 H   0  0  0  0  0  0  0  0  0  0  0  0
    0.8435   -0.6379    2.5243 H   0  0  0  0  0  0  0  0  0  0  0  0
    2.1645    0.3779    3.7243 N   0  0  0  0  0  4  0  0  0  0  0  0
    1.9148    1.3394    3.8170 H   0  0  0  0  0  0  0  0  0  0  0  0
    2.6144    0.0619    4.5565 H   0  0  0  0  0  0  0  0  0  0  0  0
    2.7732    0.2586    2.9431 H   0  0  0  0  0  0  0  0  0  0  0  0
   -0.0040    2.9151   -0.0791 C   0  0  0  0  0  0  0  0  0  0  0  0
   -0.7466    3.1869   -0.6752 H   0  0  0  0  0  0  0  0  0  0  0  0
    0.8705    3.2033   -0.4456 H   0  0  0  0  0  0  0  0  0  0  0  0
   -0.1448    3.4170    0.8782 H   0  0  0  0  0  0  0  0  0  0  0  0
    0.0002    1.4083   -0.0013 C   0  0  0  0  0  0  0  0  0  0  0  0
   -1.2011    0.6907    0.0011 C   0  0  0  0  0  0  0  0  0  0  0  0
   -2.0671    1.1795    0.0026 H   0  0  0  0  0  0  0  0  0  0  0  0
   -1.2055   -0.7071   -0.0000 C   0  0  0  0  0  0  0  0  0  0  0  0
   -2.0773   -1.2003    0.0022 H   0  0  0  0  0  0  0  0  0  0  0  0
    0.0040   -1.3991   -0.0019 C   0  0  0  0  0  0  0  0  0  0  0  0
    0.0044   -2.3966   -0.0053 H   0  0  0  0  0  0  0  0  0  0  0  0
    1.2055   -0.6959    0.0000 C   0  0  0  0  0  0  0  0  0  0  0  0
    2.0884   -1.1879    0.0013 H   0  0  0  0  0  0  0  0  0  0  0  0
    1.1968    0.7030    0.0021 C   0  0  0  0  0  0  0  0  0  0  0  0
    2.0654    1.1976    0.0053 H   0  0  0  0  0  0  0  0  0  0  0  0
  1  5  1  0
  5  8  1  0
  1  2  1  0
  1  3  1  0
  1  4  1  0
  5  6  1  0
  5  7  1  0
  8  9  1  0
  8 10  1  0
  8 11  1  0
 12 16  1  0
 16 17  2  0
 17 19  1  0
 19 21  2  0
 21 23  1  0
 23 25  2  0
 25 16  1  0
 12 13  1  0
 12 14  1  0
 12 15  1  0
 17 18  1  0
 19 20  1  0
 21 22  1  0
 23 24  1  0
 25 26  1  0
M  CHG  1   8   1
M  END
>  <PDB_ID>  (37) 
pdb1a6j

>  <RESIDUE_NAME>  (37) 
LYS   PHE

>  <FRAG_NAME>  (37) 
ETAM   MBZ

>  <FRAG_ATOM_NUM>  (37) 
fragi: 11  fragj: 15

>  <atom.prop.CHAIN_ID>  (37) 
A A A A A A A A A A A Z Z Z Z Z Z Z Z Z Z Z Z Z Z Z

>  <atom.prop.IS_HEAVY_ATOM>  (37) 
1 0 0 0 1 0 0 1 0 0 0 1 0 0 0 1 1 0 1 0 1 0 1 0 1 0

>  <DIFUSE_FUNC_ATOM>  (37) 
n/a

>  <FINAL_SINGLE_POINT_ENERGY>  (37) 
0

>  <NONCOV_INTER_ENERGY_QM>  (37) 
0

>  <FF_Energy>  (37) 
-4.72

>  <QM_Energy>  (37) 
-10.15

>  <source>  (37) 
ETAM_MBZ

>  <Index>  (37) 
294

$$$$
ETAM-pdb2a9f-B-LYS-95:MBZ-pdb2a9f-B-PHE-325
     RDKit          3D

 26 25  0  0  0  0  0  0  0  0999 V2000
   -0.1862   -2.1986   -3.8433 C   0  0  0  0  0  0  0  0  0  0  0  0
   -0.1736   -2.7547   -3.0180 H   0  0  0  0  0  0  0  0  0  0  0  0
    0.5687   -2.4492   -4.4410 H   0  0  0  0  0  0  0  0  0  0  0  0
   -1.1272   -2.3616   -4.3687 H   0  0  0  0  0  0  0  0  0  0  0  0
   -0.0330   -0.7481   -3.4524 C   0  0  0  0  0  0  0  0  0  0  0  0
   -0.1874   -0.1784   -4.2510 H   0  0  0  0  0  0  0  0  0  0  0  0
   -0.6875   -0.5331   -2.7373 H   0  0  0  0  0  0  0  0  0  0  0  0
    1.3340   -0.5444   -2.9528 N   0  0  0  0  0  4  0  0  0  0  0  0
    1.9824   -1.0693   -3.5094 H   0  0  0  0  0  0  0  0  0  0  0  0
    1.5734    0.4281   -3.0010 H   0  0  0  0  0  0  0  0  0  0  0  0
    1.3979   -0.8507   -1.9997 H   0  0  0  0  0  0  0  0  0  0  0  0
    0.0050    2.9097   -0.0320 C   0  0  0  0  0  0  0  0  0  0  0  0
   -0.7769    3.2128   -0.5595 H   0  0  0  0  0  0  0  0  0  0  0  0
    0.8529    3.2065   -0.4507 H   0  0  0  0  0  0  0  0  0  0  0  0
   -0.0584    3.3887    0.9452 H   0  0  0  0  0  0  0  0  0  0  0  0
   -0.0027    1.4047   -0.0002 C   0  0  0  0  0  0  0  0  0  0  0  0
   -1.1958    0.7028    0.0028 C   0  0  0  0  0  0  0  0  0  0  0  0
   -2.0636    1.1930    0.0061 H   0  0  0  0  0  0  0  0  0  0  0  0
   -1.2011   -0.6855   -0.0000 C   0  0  0  0  0  0  0  0  0  0  0  0
   -2.0763   -1.1825   -0.0001 H   0  0  0  0  0  0  0  0  0  0  0  0
    0.0075   -1.3965   -0.0013 C   0  0  0  0  0  0  0  0  0  0  0  0
   -0.0153   -2.3949   -0.0035 H   0  0  0  0  0  0  0  0  0  0  0  0
    1.2011   -0.7137    0.0000 C   0  0  0  0  0  0  0  0  0  0  0  0
    2.0847   -1.2009    0.0033 H   0  0  0  0  0  0  0  0  0  0  0  0
    1.1909    0.6882   -0.0013 C   0  0  0  0  0  0  0  0  0  0  0  0
    2.0641    1.1810   -0.0039 H   0  0  0  0  0  0  0  0  0  0  0  0
  1  5  1  0
  5  8  1  0
  1  2  1  0
  1  3  1  0
  1  4  1  0
  5  6  1  0
  5  7  1  0
  8  9  1  0
  8 10  1  0
  8 11  1  0
 12 16  1  0
 16 17  2  0
 17 19  1  0
 19 21  2  0
 21 23  1  0
 23 25  2  0
 25 16  1  0
 12 13  1  0
 12 14  1  0
 12 15  1  0
 17 18  1  0
 19 20  1  0
 21 22  1  0
 23 24  1  0
 25 26  1  0
M  CHG  1   8   1
M  END
>  <PDB_ID>  (38) 
pdb2a9f

>  <RESIDUE_NAME>  (38) 
LYS   PHE

>  <FRAG_NAME>  (38) 
ETAM   MBZ

>  <FRAG_ATOM_NUM>  (38) 
fragi: 11  fragj: 15

>  <atom.prop.CHAIN_ID>  (38) 
A A A A A A A A A A A Z Z Z Z Z Z Z Z Z Z Z Z Z Z Z

>  <atom.prop.IS_HEAVY_ATOM>  (38) 
1 0 0 0 1 0 0 1 0 0 0 1 0 0 0 1 1 0 1 0 1 0 1 0 1 0

>  <DIFUSE_FUNC_ATOM>  (38) 
n/a

>  <FINAL_SINGLE_POINT_ENERGY>  (38) 
0

>  <NONCOV_INTER_ENERGY_QM>  (38) 
0

>  <FF_Energy>  (38) 
-6.59

>  <QM_Energy>  (38) 
-15.18

>  <source>  (38) 
ETAM_MBZ

>  <Index>  (38) 
308

$$$$
ETAM-pdb2ahu-A-LYS-164:MBZ-pdb2ahu-D-PHE-168
     RDKit          3D

 26 25  0  0  0  0  0  0  0  0999 V2000
   -6.2511   -1.4212   -1.1518 C   0  0  0  0  0  0  0  0  0  0  0  0
   -6.5827   -1.7780   -2.0111 H   0  0  0  0  0  0  0  0  0  0  0  0
   -6.5751   -0.5022   -0.9911 H   0  0  0  0  0  0  0  0  0  0  0  0
   -6.6060   -2.0639   -0.3462 H   0  0  0  0  0  0  0  0  0  0  0  0
   -4.7266   -1.4058   -1.1816 C   0  0  0  0  0  0  0  0  0  0  0  0
   -4.3829   -1.4164   -0.2387 H   0  0  0  0  0  0  0  0  0  0  0  0
   -4.4020   -2.2300   -1.6541 H   0  0  0  0  0  0  0  0  0  0  0  0
   -4.1875   -0.1981   -1.8830 N   0  0  0  0  0  4  0  0  0  0  0  0
   -4.1001   -0.3973   -2.8568 H   0  0  0  0  0  0  0  0  0  0  0  0
   -4.8164    0.5655   -1.7488 H   0  0  0  0  0  0  0  0  0  0  0  0
   -3.2931    0.0288   -1.5030 H   0  0  0  0  0  0  0  0  0  0  0  0
    0.0009    2.8992   -0.0161 C   0  0  0  0  0  0  0  0  0  0  0  0
    0.8226    3.2142    0.4346 H   0  0  0  0  0  0  0  0  0  0  0  0
   -0.8097    3.2136    0.4548 H   0  0  0  0  0  0  0  0  0  0  0  0
   -0.0120    3.3330   -1.0160 H   0  0  0  0  0  0  0  0  0  0  0  0
    0.0014    1.4029   -0.0039 C   0  0  0  0  0  0  0  0  0  0  0  0
   -1.1963    0.6960   -0.0001 C   0  0  0  0  0  0  0  0  0  0  0  0
   -2.0634    1.1838    0.0012 H   0  0  0  0  0  0  0  0  0  0  0  0
   -1.2019   -0.7013   -0.0000 C   0  0  0  0  0  0  0  0  0  0  0  0
   -2.0798   -1.1900   -0.0013 H   0  0  0  0  0  0  0  0  0  0  0  0
   -0.0032   -1.3953    0.0044 C   0  0  0  0  0  0  0  0  0  0  0  0
   -0.0032   -2.3937    0.0101 H   0  0  0  0  0  0  0  0  0  0  0  0
    1.2019   -0.6970    0.0000 C   0  0  0  0  0  0  0  0  0  0  0  0
    2.0816   -1.1957   -0.0009 H   0  0  0  0  0  0  0  0  0  0  0  0
    1.1981    0.6947   -0.0005 C   0  0  0  0  0  0  0  0  0  0  0  0
    2.0661    1.1907    0.0006 H   0  0  0  0  0  0  0  0  0  0  0  0
  1  5  1  0
  5  8  1  0
  1  2  1  0
  1  3  1  0
  1  4  1  0
  5  6  1  0
  5  7  1  0
  8  9  1  0
  8 10  1  0
  8 11  1  0
 12 16  1  0
 16 17  2  0
 17 19  1  0
 19 21  2  0
 21 23  1  0
 23 25  2  0
 25 16  1  0
 12 13  1  0
 12 14  1  0
 12 15  1  0
 17 18  1  0
 19 20  1  0
 21 22  1  0
 23 24  1  0
 25 26  1  0
M  CHG  1   8   1
M  END
>  <PDB_ID>  (39) 
pdb2ahu

>  <RESIDUE_NAME>  (39) 
LYS   PHE

>  <FRAG_NAME>  (39) 
ETAM   MBZ

>  <FRAG_ATOM_NUM>  (39) 
fragi: 11  fragj: 15

>  <atom.prop.CHAIN_ID>  (39) 
A A A A A A A A A A A Z Z Z Z Z Z Z Z Z Z Z Z Z Z Z

>  <atom.prop.IS_HEAVY_ATOM>  (39) 
1 0 0 0 1 0 0 1 0 0 0 1 0 0 0 1 1 0 1 0 1 0 1 0 1 0

>  <DIFUSE_FUNC_ATOM>  (39) 
n/a

>  <FINAL_SINGLE_POINT_ENERGY>  (39) 
0

>  <NONCOV_INTER_ENERGY_QM>  (39) 
0

>  <FF_Energy>  (39) 
-0.49

>  <QM_Energy>  (39) 
-6.37

>  <source>  (39) 
ETAM_MBZ

>  <Index>  (39) 
324

$$$$
ETAM-pdb2ahu-C-LYS-164:MBZ-pdb2ahu-B-PHE-168
     RDKit          3D

 26 25  0  0  0  0  0  0  0  0999 V2000
   -5.9681   -1.4266   -1.2411 C   0  0  0  0  0  0  0  0  0  0  0  0
   -6.4373   -1.4996   -2.1119 H   0  0  0  0  0  0  0  0  0  0  0  0
   -6.1355   -0.5430   -0.8222 H   0  0  0  0  0  0  0  0  0  0  0  0
   -6.3335   -2.2092   -0.5761 H   0  0  0  0  0  0  0  0  0  0  0  0
   -4.4774   -1.5787   -1.4767 C   0  0  0  0  0  0  0  0  0  0  0  0
   -4.0279   -1.7899   -0.6037 H   0  0  0  0  0  0  0  0  0  0  0  0
   -4.3213   -2.3412   -2.1126 H   0  0  0  0  0  0  0  0  0  0  0  0
   -3.8707   -0.3394   -2.0482 N   0  0  0  0  0  4  0  0  0  0  0  0
   -4.5779    0.1864   -2.5187 H   0  0  0  0  0  0  0  0  0  0  0  0
   -3.4804    0.2070   -1.3091 H   0  0  0  0  0  0  0  0  0  0  0  0
   -3.1530   -0.5923   -2.6951 H   0  0  0  0  0  0  0  0  0  0  0  0
   -0.0049    2.9058   -0.0119 C   0  0  0  0  0  0  0  0  0  0  0  0
    0.8247    3.2194    0.4211 H   0  0  0  0  0  0  0  0  0  0  0  0
   -0.8072    3.2152    0.4725 H   0  0  0  0  0  0  0  0  0  0  0  0
   -0.0375    3.3325   -1.0144 H   0  0  0  0  0  0  0  0  0  0  0  0
   -0.0008    1.4032    0.0019 C   0  0  0  0  0  0  0  0  0  0  0  0
   -1.1986    0.6943   -0.0010 C   0  0  0  0  0  0  0  0  0  0  0  0
   -2.0653    1.1853   -0.0050 H   0  0  0  0  0  0  0  0  0  0  0  0
   -1.2040   -0.6962   -0.0000 C   0  0  0  0  0  0  0  0  0  0  0  0
   -2.0785   -1.1912    0.0011 H   0  0  0  0  0  0  0  0  0  0  0  0
    0.0027   -1.3971    0.0013 C   0  0  0  0  0  0  0  0  0  0  0  0
   -0.0041   -2.3933    0.0028 H   0  0  0  0  0  0  0  0  0  0  0  0
    1.2040   -0.6992    0.0000 C   0  0  0  0  0  0  0  0  0  0  0  0
    2.0852   -1.1936    0.0023 H   0  0  0  0  0  0  0  0  0  0  0  0
    1.1966    0.6950   -0.0022 C   0  0  0  0  0  0  0  0  0  0  0  0
    2.0644    1.1918   -0.0075 H   0  0  0  0  0  0  0  0  0  0  0  0
  1  5  1  0
  5  8  1  0
  1  2  1  0
  1  3  1  0
  1  4  1  0
  5  6  1  0
  5  7  1  0
  8  9  1  0
  8 10  1  0
  8 11  1  0
 12 16  1  0
 16 17  2  0
 17 19  1  0
 19 21  2  0
 21 23  1  0
 23 25  2  0
 25 16  1  0
 12 13  1  0
 12 14  1  0
 12 15  1  0
 17 18  1  0
 19 20  1  0
 21 22  1  0
 23 24  1  0
 25 26  1  0
M  CHG  1   8   1
M  END
>  <PDB_ID>  (40) 
pdb2ahu

>  <RESIDUE_NAME>  (40) 
LYS   PHE

>  <FRAG_NAME>  (40) 
ETAM   MBZ

>  <FRAG_ATOM_NUM>  (40) 
fragi: 11  fragj: 15

>  <atom.prop.CHAIN_ID>  (40) 
A A A A A A A A A A A Z Z Z Z Z Z Z Z Z Z Z Z Z Z Z

>  <atom.prop.IS_HEAVY_ATOM>  (40) 
1 0 0 0 1 0 0 1 0 0 0 1 0 0 0 1 1 0 1 0 1 0 1 0 1 0

>  <DIFUSE_FUNC_ATOM>  (40) 
n/a

>  <FINAL_SINGLE_POINT_ENERGY>  (40) 
0

>  <NONCOV_INTER_ENERGY_QM>  (40) 
0

>  <FF_Energy>  (40) 
-0.21

>  <QM_Energy>  (40) 
-6.14

>  <source>  (40) 
ETAM_MBZ

>  <Index>  (40) 
329

$$$$
ETAM-pdb2ai0-L-LYS-50:MBZ-pdb2ai0-L-PHE-60
     RDKit          3D

 26 25  0  0  0  0  0  0  0  0999 V2000
    5.7612    0.5235   -1.6188 C   0  0  0  0  0  0  0  0  0  0  0  0
    5.0131    0.3314   -2.2406 H   0  0  0  0  0  0  0  0  0  0  0  0
    6.1579   -0.3158   -1.2729 H   0  0  0  0  0  0  0  0  0  0  0  0
    6.5308    1.0688   -2.1651 H   0  0  0  0  0  0  0  0  0  0  0  0
    5.2334    1.3390   -0.4487 C   0  0  0  0  0  0  0  0  0  0  0  0
    6.0086    1.6642    0.0915 H   0  0  0  0  0  0  0  0  0  0  0  0
    4.7235    2.1212   -0.8055 H   0  0  0  0  0  0  0  0  0  0  0  0
    4.3501    0.5155    0.3972 N   0  0  0  0  0  4  0  0  0  0  0  0
    3.7273    1.1067    0.9126 H   0  0  0  0  0  0  0  0  0  0  0  0
    3.8142   -0.1061   -0.1775 H   0  0  0  0  0  0  0  0  0  0  0  0
    4.9003   -0.0217    1.0391 H   0  0  0  0  0  0  0  0  0  0  0  0
    0.0112    2.9198   -0.0118 C   0  0  0  0  0  0  0  0  0  0  0  0
   -0.4202    3.2161   -0.8535 H   0  0  0  0  0  0  0  0  0  0  0  0
    0.9575    3.2139    0.0234 H   0  0  0  0  0  0  0  0  0  0  0  0
   -0.5170    3.3893    0.8181 H   0  0  0  0  0  0  0  0  0  0  0  0
   -0.0015    1.4076    0.0051 C   0  0  0  0  0  0  0  0  0  0  0  0
   -1.1959    0.6985    0.0025 C   0  0  0  0  0  0  0  0  0  0  0  0
   -2.0636    1.1864    0.0011 H   0  0  0  0  0  0  0  0  0  0  0  0
   -1.2001   -0.6950    0.0000 C   0  0  0  0  0  0  0  0  0  0  0  0
   -2.0781   -1.1880   -0.0017 H   0  0  0  0  0  0  0  0  0  0  0  0
    0.0020   -1.3995    0.0023 C   0  0  0  0  0  0  0  0  0  0  0  0
   -0.0096   -2.3966    0.0049 H   0  0  0  0  0  0  0  0  0  0  0  0
    1.2001   -0.7079    0.0000 C   0  0  0  0  0  0  0  0  0  0  0  0
    2.0833   -1.1977    0.0071 H   0  0  0  0  0  0  0  0  0  0  0  0
    1.1954    0.6963   -0.0099 C   0  0  0  0  0  0  0  0  0  0  0  0
    2.0652    1.1863   -0.0285 H   0  0  0  0  0  0  0  0  0  0  0  0
  1  5  1  0
  5  8  1  0
  1  2  1  0
  1  3  1  0
  1  4  1  0
  5  6  1  0
  5  7  1  0
  8  9  1  0
  8 10  1  0
  8 11  1  0
 12 16  1  0
 16 17  2  0
 17 19  1  0
 19 21  2  0
 21 23  1  0
 23 25  2  0
 25 16  1  0
 12 13  1  0
 12 14  1  0
 12 15  1  0
 17 18  1  0
 19 20  1  0
 21 22  1  0
 23 24  1  0
 25 26  1  0
M  CHG  1   8   1
M  END
>  <PDB_ID>  (41) 
pdb2ai0

>  <RESIDUE_NAME>  (41) 
LYS   PHE

>  <FRAG_NAME>  (41) 
ETAM   MBZ

>  <FRAG_ATOM_NUM>  (41) 
fragi: 11  fragj: 15

>  <atom.prop.CHAIN_ID>  (41) 
A A A A A A A A A A A Z Z Z Z Z Z Z Z Z Z Z Z Z Z Z

>  <atom.prop.IS_HEAVY_ATOM>  (41) 
1 0 0 0 1 0 0 1 0 0 0 1 0 0 0 1 1 0 1 0 1 0 1 0 1 0

>  <DIFUSE_FUNC_ATOM>  (41) 
n/a

>  <FINAL_SINGLE_POINT_ENERGY>  (41) 
0

>  <NONCOV_INTER_ENERGY_QM>  (41) 
0

>  <FF_Energy>  (41) 
3.19

>  <QM_Energy>  (41) 
-3.57

>  <source>  (41) 
ETAM_MBZ

>  <Index>  (41) 
330

$$$$
ETAM-pdb1aaw-A-LYS-288:MBZ-pdb1aaw-A-PHE-284
     RDKit          3D

 26 25  0  0  0  0  0  0  0  0999 V2000
    2.6956   -1.4024    3.3801 C   0  0  0  0  0  0  0  0  0  0  0  0
    2.9514   -2.0835    4.0608 H   0  0  0  0  0  0  0  0  0  0  0  0
    2.4414   -1.8499    2.5271 H   0  0  0  0  0  0  0  0  0  0  0  0
    1.8639   -0.8022    3.7488 H   0  0  0  0  0  0  0  0  0  0  0  0
    3.8776   -0.5237    3.1204 C   0  0  0  0  0  0  0  0  0  0  0  0
    3.8106    0.2823    3.6873 H   0  0  0  0  0  0  0  0  0  0  0  0
    4.7048   -1.0303    3.3089 H   0  0  0  0  0  0  0  0  0  0  0  0
    3.8033   -0.1747    1.7317 N   0  0  0  0  0  4  0  0  0  0  0  0
    4.7246   -0.1304    1.3236 H   0  0  0  0  0  0  0  0  0  0  0  0
    3.2660   -0.8566    1.2180 H   0  0  0  0  0  0  0  0  0  0  0  0
    3.3637    0.7249    1.6112 H   0  0  0  0  0  0  0  0  0  0  0  0
    0.0013    2.8952   -0.0884 C   0  0  0  0  0  0  0  0  0  0  0  0
   -0.6569    3.1575   -0.7971 H   0  0  0  0  0  0  0  0  0  0  0  0
    0.9202    3.1793   -0.3707 H   0  0  0  0  0  0  0  0  0  0  0  0
   -0.2504    3.4514    0.8146 H   0  0  0  0  0  0  0  0  0  0  0  0
   -0.0014    1.3806   -0.0019 C   0  0  0  0  0  0  0  0  0  0  0  0
   -1.2005    0.6695    0.0054 C   0  0  0  0  0  0  0  0  0  0  0  0
   -2.0629    1.1578    0.0128 H   0  0  0  0  0  0  0  0  0  0  0  0
   -1.1837   -0.7068    0.0000 C   0  0  0  0  0  0  0  0  0  0  0  0
   -2.0600   -1.2117    0.0007 H   0  0  0  0  0  0  0  0  0  0  0  0
    0.0038   -1.3604   -0.0045 C   0  0  0  0  0  0  0  0  0  0  0  0
    0.0147   -2.3780   -0.0120 H   0  0  0  0  0  0  0  0  0  0  0  0
    1.1837   -0.6779   -0.0000 C   0  0  0  0  0  0  0  0  0  0  0  0
    2.0738   -1.1851    0.0038 H   0  0  0  0  0  0  0  0  0  0  0  0
    1.1981    0.6949    0.0009 C   0  0  0  0  0  0  0  0  0  0  0  0
    2.0576    1.1926    0.0025 H   0  0  0  0  0  0  0  0  0  0  0  0
  1  5  1  0
  5  8  1  0
  1  2  1  0
  1  3  1  0
  1  4  1  0
  5  6  1  0
  5  7  1  0
  8  9  1  0
  8 10  1  0
  8 11  1  0
 12 16  1  0
 16 17  2  0
 17 19  1  0
 19 21  2  0
 21 23  1  0
 23 25  2  0
 25 16  1  0
 12 13  1  0
 12 14  1  0
 12 15  1  0
 17 18  1  0
 19 20  1  0
 21 22  1  0
 23 24  1  0
 25 26  1  0
M  CHG  1   8   1
M  END
>  <PDB_ID>  (42) 
pdb1aaw

>  <RESIDUE_NAME>  (42) 
LYS   PHE

>  <FRAG_NAME>  (42) 
ETAM   MBZ

>  <FRAG_ATOM_NUM>  (42) 
fragi: 11  fragj: 15

>  <atom.prop.CHAIN_ID>  (42) 
A A A A A A A A A A A Z Z Z Z Z Z Z Z Z Z Z Z Z Z Z

>  <atom.prop.IS_HEAVY_ATOM>  (42) 
1 0 0 0 1 0 0 1 0 0 0 1 0 0 0 1 1 0 1 0 1 0 1 0 1 0

>  <DIFUSE_FUNC_ATOM>  (42) 
n/a

>  <FINAL_SINGLE_POINT_ENERGY>  (42) 
0

>  <NONCOV_INTER_ENERGY_QM>  (42) 
0

>  <FF_Energy>  (42) 
0.54

>  <QM_Energy>  (42) 
-6.02

>  <source>  (42) 
ETAM_MBZ

>  <Index>  (42) 
343

$$$$
ETAM-pdb1aaz-A-LYS-21:MBZ-pdb1aaz-A-PHE-33
     RDKit          3D

 26 25  0  0  0  0  0  0  0  0999 V2000
   -1.4724    0.8448   -4.2448 C   0  0  0  0  0  0  0  0  0  0  0  0
   -1.9102    0.2670   -3.5557 H   0  0  0  0  0  0  0  0  0  0  0  0
   -1.5679    0.4198   -5.1450 H   0  0  0  0  0  0  0  0  0  0  0  0
   -1.9693    1.8149   -4.2577 H   0  0  0  0  0  0  0  0  0  0  0  0
   -0.0032    0.9573   -3.9181 C   0  0  0  0  0  0  0  0  0  0  0  0
    0.4937    1.1906   -4.7418 H   0  0  0  0  0  0  0  0  0  0  0  0
    0.1206    1.6499   -3.2206 H   0  0  0  0  0  0  0  0  0  0  0  0
    0.4341   -0.3417   -3.4192 N   0  0  0  0  0  4  0  0  0  0  0  0
    0.2559   -1.0667   -4.1461 H   0  0  0  0  0  0  0  0  0  0  0  0
    1.4446   -0.3454   -3.1686 H   0  0  0  0  0  0  0  0  0  0  0  0
   -0.1141   -0.5689   -2.5651 H   0  0  0  0  0  0  0  0  0  0  0  0
    0.0084    2.8910    0.0301 C   0  0  0  0  0  0  0  0  0  0  0  0
   -0.5993    3.2060   -0.6633 H   0  0  0  0  0  0  0  0  0  0  0  0
    0.9295    3.1879   -0.0868 H   0  0  0  0  0  0  0  0  0  0  0  0
   -0.3484    3.2687    0.9883 H   0  0  0  0  0  0  0  0  0  0  0  0
    0.0010    1.3657    0.0010 C   0  0  0  0  0  0  0  0  0  0  0  0
   -1.2077    0.6906   -0.0007 C   0  0  0  0  0  0  0  0  0  0  0  0
   -2.0585    1.1873   -0.0035 H   0  0  0  0  0  0  0  0  0  0  0  0
   -1.1973   -0.6812    0.0000 C   0  0  0  0  0  0  0  0  0  0  0  0
   -2.0741   -1.1879    0.0009 H   0  0  0  0  0  0  0  0  0  0  0  0
   -0.0038   -1.3615    0.0018 C   0  0  0  0  0  0  0  0  0  0  0  0
   -0.0133   -2.3759    0.0037 H   0  0  0  0  0  0  0  0  0  0  0  0
    1.1973   -0.6957   -0.0000 C   0  0  0  0  0  0  0  0  0  0  0  0
    2.0726   -1.2073    0.0020 H   0  0  0  0  0  0  0  0  0  0  0  0
    1.2104    0.6821   -0.0020 C   0  0  0  0  0  0  0  0  0  0  0  0
    2.0645    1.1808   -0.0064 H   0  0  0  0  0  0  0  0  0  0  0  0
  1  5  1  0
  5  8  1  0
  1  2  1  0
  1  3  1  0
  1  4  1  0
  5  6  1  0
  5  7  1  0
  8  9  1  0
  8 10  1  0
  8 11  1  0
 12 16  1  0
 16 17  2  0
 17 19  1  0
 19 21  2  0
 21 23  1  0
 23 25  2  0
 25 16  1  0
 12 13  1  0
 12 14  1  0
 12 15  1  0
 17 18  1  0
 19 20  1  0
 21 22  1  0
 23 24  1  0
 25 26  1  0
M  CHG  1   8   1
M  END
>  <PDB_ID>  (43) 
pdb1aaz

>  <RESIDUE_NAME>  (43) 
LYS   PHE

>  <FRAG_NAME>  (43) 
ETAM   MBZ

>  <FRAG_ATOM_NUM>  (43) 
fragi: 11  fragj: 15

>  <atom.prop.CHAIN_ID>  (43) 
A A A A A A A A A A A Z Z Z Z Z Z Z Z Z Z Z Z Z Z Z

>  <atom.prop.IS_HEAVY_ATOM>  (43) 
1 0 0 0 1 0 0 1 0 0 0 1 0 0 0 1 1 0 1 0 1 0 1 0 1 0

>  <DIFUSE_FUNC_ATOM>  (43) 
n/a

>  <FINAL_SINGLE_POINT_ENERGY>  (43) 
0

>  <NONCOV_INTER_ENERGY_QM>  (43) 
0

>  <FF_Energy>  (43) 
-8.98

>  <QM_Energy>  (43) 
-15.74

>  <source>  (43) 
ETAM_MBZ

>  <Index>  (43) 
346

$$$$
ETAM-pdb2ah6-B-LYS-61:MBZ-pdb2ah6-B-PHE-93
     RDKit          3D

 26 25  0  0  0  0  0  0  0  0999 V2000
    2.0650   -0.7870   -3.7556 C   0  0  0  0  0  0  0  0  0  0  0  0
    1.6611   -1.7163   -3.7691 H   0  0  0  0  0  0  0  0  0  0  0  0
    2.6732   -0.7336   -2.9462 H   0  0  0  0  0  0  0  0  0  0  0  0
    2.6936   -0.6943   -4.6413 H   0  0  0  0  0  0  0  0  0  0  0  0
    0.9891    0.2206   -3.6355 C   0  0  0  0  0  0  0  0  0  0  0  0
    0.4427    0.2363   -4.5012 H   0  0  0  0  0  0  0  0  0  0  0  0
    0.3370   -0.0665   -2.9001 H   0  0  0  0  0  0  0  0  0  0  0  0
    1.4462    1.5882   -3.3462 N   0  0  0  0  0  4  0  0  0  0  0  0
    0.7022    2.1145   -2.9279 H   0  0  0  0  0  0  0  0  0  0  0  0
    2.2243    1.5604   -2.7146 H   0  0  0  0  0  0  0  0  0  0  0  0
    1.7289    2.0394   -4.1952 H   0  0  0  0  0  0  0  0  0  0  0  0
    0.0029    2.9301    0.0327 C   0  0  0  0  0  0  0  0  0  0  0  0
   -0.7642    3.2456   -0.4929 H   0  0  0  0  0  0  0  0  0  0  0  0
    0.8610    3.2314   -0.3359 H   0  0  0  0  0  0  0  0  0  0  0  0
   -0.0910    3.3157    1.0480 H   0  0  0  0  0  0  0  0  0  0  0  0
   -0.0047    1.3988   -0.0235 C   0  0  0  0  0  0  0  0  0  0  0  0
   -1.1944    0.6998    0.0216 C   0  0  0  0  0  0  0  0  0  0  0  0
   -2.0619    1.1730    0.0679 H   0  0  0  0  0  0  0  0  0  0  0  0
   -1.1850   -0.7053    0.0000 C   0  0  0  0  0  0  0  0  0  0  0  0
   -2.0650   -1.1940   -0.0111 H   0  0  0  0  0  0  0  0  0  0  0  0
    0.0057   -1.3770   -0.0045 C   0  0  0  0  0  0  0  0  0  0  0  0
   -0.0025   -2.3933   -0.0120 H   0  0  0  0  0  0  0  0  0  0  0  0
    1.1850   -0.7078   -0.0000 C   0  0  0  0  0  0  0  0  0  0  0  0
    2.0751   -1.1991   -0.0001 H   0  0  0  0  0  0  0  0  0  0  0  0
    1.1934    0.6916    0.0065 C   0  0  0  0  0  0  0  0  0  0  0  0
    2.0596    1.1787    0.0315 H   0  0  0  0  0  0  0  0  0  0  0  0
  1  5  1  0
  5  8  1  0
  1  2  1  0
  1  3  1  0
  1  4  1  0
  5  6  1  0
  5  7  1  0
  8  9  1  0
  8 10  1  0
  8 11  1  0
 12 16  1  0
 16 17  2  0
 17 19  1  0
 19 21  2  0
 21 23  1  0
 23 25  2  0
 25 16  1  0
 12 13  1  0
 12 14  1  0
 12 15  1  0
 17 18  1  0
 19 20  1  0
 21 22  1  0
 23 24  1  0
 25 26  1  0
M  CHG  1   8   1
M  END
>  <PDB_ID>  (44) 
pdb2ah6

>  <RESIDUE_NAME>  (44) 
LYS   PHE

>  <FRAG_NAME>  (44) 
ETAM   MBZ

>  <FRAG_ATOM_NUM>  (44) 
fragi: 11  fragj: 15

>  <atom.prop.CHAIN_ID>  (44) 
A A A A A A A A A A A Z Z Z Z Z Z Z Z Z Z Z Z Z Z Z

>  <atom.prop.IS_HEAVY_ATOM>  (44) 
1 0 0 0 1 0 0 1 0 0 0 1 0 0 0 1 1 0 1 0 1 0 1 0 1 0

>  <DIFUSE_FUNC_ATOM>  (44) 
n/a

>  <FINAL_SINGLE_POINT_ENERGY>  (44) 
0

>  <NONCOV_INTER_ENERGY_QM>  (44) 
0

>  <FF_Energy>  (44) 
-6.65

>  <QM_Energy>  (44) 
-11.77

>  <source>  (44) 
ETAM_MBZ

>  <Index>  (44) 
358

$$$$
ETAM-pdb1abr-B-LYS-6:MBZ-pdb1abr-A-PHE-245
     RDKit          3D

 26 25  0  0  0  0  0  0  0  0999 V2000
    4.8331   -2.7414    1.7150 C   0  0  0  0  0  0  0  0  0  0  0  0
    4.4066   -2.1309    2.3690 H   0  0  0  0  0  0  0  0  0  0  0  0
    5.7785   -2.4924    1.5602 H   0  0  0  0  0  0  0  0  0  0  0  0
    4.7978   -3.7570    2.1093 H   0  0  0  0  0  0  0  0  0  0  0  0
    4.0741   -2.6239    0.3742 C   0  0  0  0  0  0  0  0  0  0  0  0
    4.5128   -3.2546   -0.2906 H   0  0  0  0  0  0  0  0  0  0  0  0
    3.1266   -2.9604    0.5197 H   0  0  0  0  0  0  0  0  0  0  0  0
    4.0221   -1.2551   -0.2114 N   0  0  0  0  0  4  0  0  0  0  0  0
    3.5615   -0.6081    0.4602 H   0  0  0  0  0  0  0  0  0  0  0  0
    4.9884   -0.9229   -0.4037 H   0  0  0  0  0  0  0  0  0  0  0  0
    3.4778   -1.2898   -1.0932 H   0  0  0  0  0  0  0  0  0  0  0  0
   -0.0110    2.8750    0.0559 C   0  0  0  0  0  0  0  0  0  0  0  0
   -0.7332    3.2040   -0.5305 H   0  0  0  0  0  0  0  0  0  0  0  0
    0.8731    3.2016   -0.2368 H   0  0  0  0  0  0  0  0  0  0  0  0
   -0.1934    3.2621    1.0584 H   0  0  0  0  0  0  0  0  0  0  0  0
   -0.0028    1.3852    0.0006 C   0  0  0  0  0  0  0  0  0  0  0  0
   -1.1851    0.6779   -0.0025 C   0  0  0  0  0  0  0  0  0  0  0  0
   -2.0574    1.1621   -0.0083 H   0  0  0  0  0  0  0  0  0  0  0  0
   -1.1781   -0.7024   -0.0000 C   0  0  0  0  0  0  0  0  0  0  0  0
   -2.0570   -1.2014    0.0030 H   0  0  0  0  0  0  0  0  0  0  0  0
    0.0091   -1.3700    0.0009 C   0  0  0  0  0  0  0  0  0  0  0  0
    0.0139   -2.3797    0.0019 H   0  0  0  0  0  0  0  0  0  0  0  0
    1.1781   -0.6789    0.0000 C   0  0  0  0  0  0  0  0  0  0  0  0
    2.0738   -1.1790   -0.0001 H   0  0  0  0  0  0  0  0  0  0  0  0
    1.1789    0.6882    0.0010 C   0  0  0  0  0  0  0  0  0  0  0  0
    2.0507    1.1877    0.0013 H   0  0  0  0  0  0  0  0  0  0  0  0
  1  5  1  0
  5  8  1  0
  1  2  1  0
  1  3  1  0
  1  4  1  0
  5  6  1  0
  5  7  1  0
  8  9  1  0
  8 10  1  0
  8 11  1  0
 12 16  1  0
 16 17  2  0
 17 19  1  0
 19 21  2  0
 21 23  1  0
 23 25  2  0
 25 16  1  0
 12 13  1  0
 12 14  1  0
 12 15  1  0
 17 18  1  0
 19 20  1  0
 21 22  1  0
 23 24  1  0
 25 26  1  0
M  CHG  1   8   1
M  END
>  <PDB_ID>  (45) 
pdb1abr

>  <RESIDUE_NAME>  (45) 
LYS   PHE

>  <FRAG_NAME>  (45) 
ETAM   MBZ

>  <FRAG_ATOM_NUM>  (45) 
fragi: 11  fragj: 15

>  <atom.prop.CHAIN_ID>  (45) 
A A A A A A A A A A A Z Z Z Z Z Z Z Z Z Z Z Z Z Z Z

>  <atom.prop.IS_HEAVY_ATOM>  (45) 
1 0 0 0 1 0 0 1 0 0 0 1 0 0 0 1 1 0 1 0 1 0 1 0 1 0

>  <DIFUSE_FUNC_ATOM>  (45) 
n/a

>  <FINAL_SINGLE_POINT_ENERGY>  (45) 
0

>  <NONCOV_INTER_ENERGY_QM>  (45) 
0

>  <FF_Energy>  (45) 
30.7

>  <QM_Energy>  (45) 
2.32

>  <source>  (45) 
ETAM_MBZ

>  <Index>  (45) 
371

$$$$
ETAM-pdb1ac6-A-LYS-76:MBZ-pdb1ac6-A-PHE-61
     RDKit          3D

 26 25  0  0  0  0  0  0  0  0999 V2000
   -0.4941   -0.8598    3.4421 C   0  0  0  0  0  0  0  0  0  0  0  0
   -0.4536   -0.5115    2.5201 H   0  0  0  0  0  0  0  0  0  0  0  0
   -0.1322   -1.7740    3.5048 H   0  0  0  0  0  0  0  0  0  0  0  0
    0.0659   -0.1999    4.1047 H   0  0  0  0  0  0  0  0  0  0  0  0
   -1.9369   -0.8781    3.8907 C   0  0  0  0  0  0  0  0  0  0  0  0
   -1.9698   -1.0701    4.8712 H   0  0  0  0  0  0  0  0  0  0  0  0
   -2.3445    0.0173    3.7123 H   0  0  0  0  0  0  0  0  0  0  0  0
   -2.6827   -1.9146    3.1596 N   0  0  0  0  0  4  0  0  0  0  0  0
   -3.6613   -1.8373    3.3635 H   0  0  0  0  0  0  0  0  0  0  0  0
   -2.5434   -1.8015    2.1738 H   0  0  0  0  0  0  0  0  0  0  0  0
   -2.3604   -2.8236    3.4349 H   0  0  0  0  0  0  0  0  0  0  0  0
    0.0061    2.9030    0.0472 C   0  0  0  0  0  0  0  0  0  0  0  0
   -0.7929    3.2279   -0.4355 H   0  0  0  0  0  0  0  0  0  0  0  0
    0.8390    3.2184   -0.3817 H   0  0  0  0  0  0  0  0  0  0  0  0
   -0.0244    3.3182    1.0545 H   0  0  0  0  0  0  0  0  0  0  0  0
   -0.0015    1.3954    0.0016 C   0  0  0  0  0  0  0  0  0  0  0  0
   -1.1994    0.6924   -0.0029 C   0  0  0  0  0  0  0  0  0  0  0  0
   -2.0635    1.1858   -0.0094 H   0  0  0  0  0  0  0  0  0  0  0  0
   -1.1992   -0.6872   -0.0000 C   0  0  0  0  0  0  0  0  0  0  0  0
   -2.0739   -1.1897    0.0003 H   0  0  0  0  0  0  0  0  0  0  0  0
    0.0048   -1.3843    0.0035 C   0  0  0  0  0  0  0  0  0  0  0  0
   -0.0081   -2.3861    0.0081 H   0  0  0  0  0  0  0  0  0  0  0  0
    1.1992   -0.6998    0.0000 C   0  0  0  0  0  0  0  0  0  0  0  0
    2.0812   -1.1993    0.0002 H   0  0  0  0  0  0  0  0  0  0  0  0
    1.1962    0.6836   -0.0021 C   0  0  0  0  0  0  0  0  0  0  0  0
    2.0630    1.1832   -0.0071 H   0  0  0  0  0  0  0  0  0  0  0  0
  1  5  1  0
  5  8  1  0
  1  2  1  0
  1  3  1  0
  1  4  1  0
  5  6  1  0
  5  7  1  0
  8  9  1  0
  8 10  1  0
  8 11  1  0
 12 16  1  0
 16 17  2  0
 17 19  1  0
 19 21  2  0
 21 23  1  0
 23 25  2  0
 25 16  1  0
 12 13  1  0
 12 14  1  0
 12 15  1  0
 17 18  1  0
 19 20  1  0
 21 22  1  0
 23 24  1  0
 25 26  1  0
M  CHG  1   8   1
M  END
>  <PDB_ID>  (46) 
pdb1ac6

>  <RESIDUE_NAME>  (46) 
LYS   PHE

>  <FRAG_NAME>  (46) 
ETAM   MBZ

>  <FRAG_ATOM_NUM>  (46) 
fragi: 11  fragj: 15

>  <atom.prop.CHAIN_ID>  (46) 
A A A A A A A A A A A Z Z Z Z Z Z Z Z Z Z Z Z Z Z Z

>  <atom.prop.IS_HEAVY_ATOM>  (46) 
1 0 0 0 1 0 0 1 0 0 0 1 0 0 0 1 1 0 1 0 1 0 1 0 1 0

>  <DIFUSE_FUNC_ATOM>  (46) 
n/a

>  <FINAL_SINGLE_POINT_ENERGY>  (46) 
0

>  <NONCOV_INTER_ENERGY_QM>  (46) 
0

>  <FF_Energy>  (46) 
-2.69

>  <QM_Energy>  (46) 
-8.74

>  <source>  (46) 
ETAM_MBZ

>  <Index>  (46) 
376

$$$$
ETAM-pdb2ako-B-LYS-54:MBZ-pdb2ako-B-PHE-75
     RDKit          3D

 26 25  0  0  0  0  0  0  0  0999 V2000
    0.0048    0.4887   -5.0461 C   0  0  0  0  0  0  0  0  0  0  0  0
   -0.7609    1.0505   -5.3614 H   0  0  0  0  0  0  0  0  0  0  0  0
    0.2067   -0.2129   -5.7302 H   0  0  0  0  0  0  0  0  0  0  0  0
    0.8809    1.1272   -4.9331 H   0  0  0  0  0  0  0  0  0  0  0  0
   -0.4260   -0.2220   -3.7434 C   0  0  0  0  0  0  0  0  0  0  0  0
   -0.0892    0.3132   -2.9574 H   0  0  0  0  0  0  0  0  0  0  0  0
   -1.4343   -0.2351   -3.7019 H   0  0  0  0  0  0  0  0  0  0  0  0
    0.0803   -1.6519   -3.6037 N   0  0  0  0  0  4  0  0  0  0  0  0
   -0.6930   -2.2698   -3.6981 H   0  0  0  0  0  0  0  0  0  0  0  0
    0.7494   -1.8200   -4.3194 H   0  0  0  0  0  0  0  0  0  0  0  0
    0.4980   -1.7509   -2.7073 H   0  0  0  0  0  0  0  0  0  0  0  0
    0.0005    2.8880    0.0189 C   0  0  0  0  0  0  0  0  0  0  0  0
   -0.5838    3.2096   -0.7096 H   0  0  0  0  0  0  0  0  0  0  0  0
    0.9304    3.2003   -0.0973 H   0  0  0  0  0  0  0  0  0  0  0  0
   -0.3746    3.3094    0.9516 H   0  0  0  0  0  0  0  0  0  0  0  0
   -0.0008    1.3976    0.0017 C   0  0  0  0  0  0  0  0  0  0  0  0
   -1.1938    0.7034   -0.0019 C   0  0  0  0  0  0  0  0  0  0  0  0
   -2.0609    1.1887   -0.0075 H   0  0  0  0  0  0  0  0  0  0  0  0
   -1.2014   -0.6973    0.0000 C   0  0  0  0  0  0  0  0  0  0  0  0
   -2.0764   -1.1858    0.0048 H   0  0  0  0  0  0  0  0  0  0  0  0
    0.0043   -1.3946   -0.0032 C   0  0  0  0  0  0  0  0  0  0  0  0
   -0.0001   -2.3918   -0.0084 H   0  0  0  0  0  0  0  0  0  0  0  0
    1.2014   -0.6943    0.0000 C   0  0  0  0  0  0  0  0  0  0  0  0
    2.0836   -1.1933    0.0012 H   0  0  0  0  0  0  0  0  0  0  0  0
    1.1903    0.6852    0.0034 C   0  0  0  0  0  0  0  0  0  0  0  0
    2.0619    1.1877    0.0064 H   0  0  0  0  0  0  0  0  0  0  0  0
  1  5  1  0
  5  8  1  0
  1  2  1  0
  1  3  1  0
  1  4  1  0
  5  6  1  0
  5  7  1  0
  8  9  1  0
  8 10  1  0
  8 11  1  0
 12 16  1  0
 16 17  2  0
 17 19  1  0
 19 21  2  0
 21 23  1  0
 23 25  2  0
 25 16  1  0
 12 13  1  0
 12 14  1  0
 12 15  1  0
 17 18  1  0
 19 20  1  0
 21 22  1  0
 23 24  1  0
 25 26  1  0
M  CHG  1   8   1
M  END
>  <PDB_ID>  (47) 
pdb2ako

>  <RESIDUE_NAME>  (47) 
LYS   PHE

>  <FRAG_NAME>  (47) 
ETAM   MBZ

>  <FRAG_ATOM_NUM>  (47) 
fragi: 11  fragj: 15

>  <atom.prop.CHAIN_ID>  (47) 
A A A A A A A A A A A Z Z Z Z Z Z Z Z Z Z Z Z Z Z Z

>  <atom.prop.IS_HEAVY_ATOM>  (47) 
1 0 0 0 1 0 0 1 0 0 0 1 0 0 0 1 1 0 1 0 1 0 1 0 1 0

>  <DIFUSE_FUNC_ATOM>  (47) 
n/a

>  <FINAL_SINGLE_POINT_ENERGY>  (47) 
0

>  <NONCOV_INTER_ENERGY_QM>  (47) 
0

>  <FF_Energy>  (47) 
-6.35

>  <QM_Energy>  (47) 
-12.52

>  <source>  (47) 
ETAM_MBZ

>  <Index>  (47) 
382

$$$$
ETAM-pdb1ac6-B-LYS-76:MBZ-pdb1ac6-B-PHE-61
     RDKit          3D

 26 25  0  0  0  0  0  0  0  0999 V2000
   -0.2524   -0.7400   -3.7126 C   0  0  0  0  0  0  0  0  0  0  0  0
   -0.2259   -0.5094   -2.7557 H   0  0  0  0  0  0  0  0  0  0  0  0
   -0.5882   -1.6531   -3.8641 H   0  0  0  0  0  0  0  0  0  0  0  0
   -0.8877   -0.0274   -4.2387 H   0  0  0  0  0  0  0  0  0  0  0  0
    1.1481   -0.6370   -4.2770 C   0  0  0  0  0  0  0  0  0  0  0  0
    1.1692   -1.0634   -5.1936 H   0  0  0  0  0  0  0  0  0  0  0  0
    1.3921    0.3383   -4.3870 H   0  0  0  0  0  0  0  0  0  0  0  0
    2.2024   -1.2954   -3.4226 N   0  0  0  0  0  4  0  0  0  0  0  0
    2.2867   -2.2501   -3.6954 H   0  0  0  0  0  0  0  0  0  0  0  0
    3.0688   -0.8223   -3.5592 H   0  0  0  0  0  0  0  0  0  0  0  0
    1.9257   -1.2346   -2.4671 H   0  0  0  0  0  0  0  0  0  0  0  0
   -0.0074    2.8834    0.0559 C   0  0  0  0  0  0  0  0  0  0  0  0
    0.8656    3.1862    0.4197 H   0  0  0  0  0  0  0  0  0  0  0  0
   -0.7508    3.1680    0.6496 H   0  0  0  0  0  0  0  0  0  0  0  0
   -0.1505    3.3629   -0.9125 H   0  0  0  0  0  0  0  0  0  0  0  0
    0.0021    1.3995    0.0028 C   0  0  0  0  0  0  0  0  0  0  0  0
   -1.1989    0.6862   -0.0015 C   0  0  0  0  0  0  0  0  0  0  0  0
   -2.0644    1.1767   -0.0075 H   0  0  0  0  0  0  0  0  0  0  0  0
   -1.2023   -0.7063   -0.0000 C   0  0  0  0  0  0  0  0  0  0  0  0
   -2.0777   -1.1995    0.0029 H   0  0  0  0  0  0  0  0  0  0  0  0
   -0.0007   -1.3944   -0.0006 C   0  0  0  0  0  0  0  0  0  0  0  0
    0.0056   -2.3923   -0.0019 H   0  0  0  0  0  0  0  0  0  0  0  0
    1.2023   -0.6876    0.0000 C   0  0  0  0  0  0  0  0  0  0  0  0
    2.0846   -1.1859    0.0021 H   0  0  0  0  0  0  0  0  0  0  0  0
    1.1975    0.7026   -0.0007 C   0  0  0  0  0  0  0  0  0  0  0  0
    2.0636    1.1986   -0.0046 H   0  0  0  0  0  0  0  0  0  0  0  0
  1  5  1  0
  5  8  1  0
  1  2  1  0
  1  3  1  0
  1  4  1  0
  5  6  1  0
  5  7  1  0
  8  9  1  0
  8 10  1  0
  8 11  1  0
 12 16  1  0
 16 17  2  0
 17 19  1  0
 19 21  2  0
 21 23  1  0
 23 25  2  0
 25 16  1  0
 12 13  1  0
 12 14  1  0
 12 15  1  0
 17 18  1  0
 19 20  1  0
 21 22  1  0
 23 24  1  0
 25 26  1  0
M  CHG  1   8   1
M  END
>  <PDB_ID>  (48) 
pdb1ac6

>  <RESIDUE_NAME>  (48) 
LYS   PHE

>  <FRAG_NAME>  (48) 
ETAM   MBZ

>  <FRAG_ATOM_NUM>  (48) 
fragi: 11  fragj: 15

>  <atom.prop.CHAIN_ID>  (48) 
A A A A A A A A A A A Z Z Z Z Z Z Z Z Z Z Z Z Z Z Z

>  <atom.prop.IS_HEAVY_ATOM>  (48) 
1 0 0 0 1 0 0 1 0 0 0 1 0 0 0 1 1 0 1 0 1 0 1 0 1 0

>  <DIFUSE_FUNC_ATOM>  (48) 
n/a

>  <FINAL_SINGLE_POINT_ENERGY>  (48) 
0

>  <NONCOV_INTER_ENERGY_QM>  (48) 
0

>  <FF_Energy>  (48) 
-4.86

>  <QM_Energy>  (48) 
-11.48

>  <source>  (48) 
ETAM_MBZ

>  <Index>  (48) 
396

$$$$
ETAM-pdb1ag1-O-LYS-52:MBZ-pdb1ag1-O-PHE-86
     RDKit          3D

 26 25  0  0  0  0  0  0  0  0999 V2000
    2.8294   -0.5816    3.3047 C   0  0  0  0  0  0  0  0  0  0  0  0
    3.0452    0.3894    3.1548 H   0  0  0  0  0  0  0  0  0  0  0  0
    2.4381   -0.9575    2.4577 H   0  0  0  0  0  0  0  0  0  0  0  0
    3.7536   -1.1138    3.5299 H   0  0  0  0  0  0  0  0  0  0  0  0
    1.7743   -0.6736    4.4005 C   0  0  0  0  0  0  0  0  0  0  0  0
    1.7960   -1.6067    4.7888 H   0  0  0  0  0  0  0  0  0  0  0  0
    2.0220   -0.0287    5.1397 H   0  0  0  0  0  0  0  0  0  0  0  0
    0.4065   -0.3722    3.9288 N   0  0  0  0  0  4  0  0  0  0  0  0
    0.3477   -0.5305    2.9420 H   0  0  0  0  0  0  0  0  0  0  0  0
   -0.2495   -0.9650    4.3985 H   0  0  0  0  0  0  0  0  0  0  0  0
    0.1862    0.5855    4.1239 H   0  0  0  0  0  0  0  0  0  0  0  0
    0.0112    2.8910   -0.0145 C   0  0  0  0  0  0  0  0  0  0  0  0
   -0.5876    3.2049   -0.7168 H   0  0  0  0  0  0  0  0  0  0  0  0
    0.9297    3.2054   -0.1122 H   0  0  0  0  0  0  0  0  0  0  0  0
   -0.3676    3.2696    0.9349 H   0  0  0  0  0  0  0  0  0  0  0  0
    0.0114    1.4025   -0.0138 C   0  0  0  0  0  0  0  0  0  0  0  0
   -1.2063    0.7227    0.0035 C   0  0  0  0  0  0  0  0  0  0  0  0
   -2.0575    1.2176    0.0172 H   0  0  0  0  0  0  0  0  0  0  0  0
   -1.2150   -0.6769    0.0000 C   0  0  0  0  0  0  0  0  0  0  0  0
   -2.0955   -1.1654   -0.0085 H   0  0  0  0  0  0  0  0  0  0  0  0
   -0.0121   -1.3973    0.0100 C   0  0  0  0  0  0  0  0  0  0  0  0
   -0.0363   -2.3957    0.0240 H   0  0  0  0  0  0  0  0  0  0  0  0
    1.2150   -0.7256    0.0000 C   0  0  0  0  0  0  0  0  0  0  0  0
    2.0783   -1.2263   -0.0057 H   0  0  0  0  0  0  0  0  0  0  0  0
    1.2071    0.6746    0.0003 C   0  0  0  0  0  0  0  0  0  0  0  0
    2.0806    1.1684    0.0098 H   0  0  0  0  0  0  0  0  0  0  0  0
  1  5  1  0
  5  8  1  0
  1  2  1  0
  1  3  1  0
  1  4  1  0
  5  6  1  0
  5  7  1  0
  8  9  1  0
  8 10  1  0
  8 11  1  0
 12 16  1  0
 16 17  2  0
 17 19  1  0
 19 21  2  0
 21 23  1  0
 23 25  2  0
 25 16  1  0
 12 13  1  0
 12 14  1  0
 12 15  1  0
 17 18  1  0
 19 20  1  0
 21 22  1  0
 23 24  1  0
 25 26  1  0
M  CHG  1   8   1
M  END
>  <PDB_ID>  (49) 
pdb1ag1

>  <RESIDUE_NAME>  (49) 
LYS   PHE

>  <FRAG_NAME>  (49) 
ETAM   MBZ

>  <FRAG_ATOM_NUM>  (49) 
fragi: 11  fragj: 15

>  <atom.prop.CHAIN_ID>  (49) 
A A A A A A A A A A A Z Z Z Z Z Z Z Z Z Z Z Z Z Z Z

>  <atom.prop.IS_HEAVY_ATOM>  (49) 
1 0 0 0 1 0 0 1 0 0 0 1 0 0 0 1 1 0 1 0 1 0 1 0 1 0

>  <DIFUSE_FUNC_ATOM>  (49) 
n/a

>  <FINAL_SINGLE_POINT_ENERGY>  (49) 
0

>  <NONCOV_INTER_ENERGY_QM>  (49) 
0

>  <FF_Energy>  (49) 
-6.36

>  <QM_Energy>  (49) 
-11.41

>  <source>  (49) 
ETAM_MBZ

>  <Index>  (49) 
437

$$$$
ETAM-pdb2am1-A-LYS-350:MBZ-pdb2am1-A-PHE-339
     RDKit          3D

 26 25  0  0  0  0  0  0  0  0999 V2000
    1.0279   -2.2244    4.7720 C   0  0  0  0  0  0  0  0  0  0  0  0
    0.5283   -2.8009    4.1345 H   0  0  0  0  0  0  0  0  0  0  0  0
    0.4989   -2.0849    5.6022 H   0  0  0  0  0  0  0  0  0  0  0  0
    1.9735   -2.7043    5.0244 H   0  0  0  0  0  0  0  0  0  0  0  0
    1.2577   -0.8695    4.1156 C   0  0  0  0  0  0  0  0  0  0  0  0
    1.7295   -0.2716    4.7639 H   0  0  0  0  0  0  0  0  0  0  0  0
    1.8286   -0.9949    3.3043 H   0  0  0  0  0  0  0  0  0  0  0  0
   -0.0316   -0.2419    3.7162 N   0  0  0  0  0  4  0  0  0  0  0  0
   -0.0195    0.7260    3.9648 H   0  0  0  0  0  0  0  0  0  0  0  0
   -0.1519   -0.3327    2.7278 H   0  0  0  0  0  0  0  0  0  0  0  0
   -0.7831   -0.7001    4.1888 H   0  0  0  0  0  0  0  0  0  0  0  0
    0.0000    2.9275   -0.0324 C   0  0  0  0  0  0  0  0  0  0  0  0
   -0.5826    3.2140   -0.7775 H   0  0  0  0  0  0  0  0  0  0  0  0
    0.9325    3.2261   -0.1688 H   0  0  0  0  0  0  0  0  0  0  0  0
   -0.3705    3.3928    0.8811 H   0  0  0  0  0  0  0  0  0  0  0  0
   -0.0008    1.4123   -0.0004 C   0  0  0  0  0  0  0  0  0  0  0  0
   -1.1973    0.6965    0.0023 C   0  0  0  0  0  0  0  0  0  0  0  0
   -2.0663    1.1801    0.0051 H   0  0  0  0  0  0  0  0  0  0  0  0
   -1.1998   -0.7066   -0.0000 C   0  0  0  0  0  0  0  0  0  0  0  0
   -2.0765   -1.1954    0.0010 H   0  0  0  0  0  0  0  0  0  0  0  0
    0.0025   -1.4016   -0.0019 C   0  0  0  0  0  0  0  0  0  0  0  0
    0.0015   -2.3992   -0.0050 H   0  0  0  0  0  0  0  0  0  0  0  0
    1.1998   -0.7002   -0.0000 C   0  0  0  0  0  0  0  0  0  0  0  0
    2.0848   -1.1922    0.0025 H   0  0  0  0  0  0  0  0  0  0  0  0
    1.1957    0.6996    0.0001 C   0  0  0  0  0  0  0  0  0  0  0  0
    2.0654    1.1914   -0.0004 H   0  0  0  0  0  0  0  0  0  0  0  0
  1  5  1  0
  5  8  1  0
  1  2  1  0
  1  3  1  0
  1  4  1  0
  5  6  1  0
  5  7  1  0
  8  9  1  0
  8 10  1  0
  8 11  1  0
 12 16  1  0
 16 17  2  0
 17 19  1  0
 19 21  2  0
 21 23  1  0
 23 25  2  0
 25 16  1  0
 12 13  1  0
 12 14  1  0
 12 15  1  0
 17 18  1  0
 19 20  1  0
 21 22  1  0
 23 24  1  0
 25 26  1  0
M  CHG  1   8   1
M  END
>  <PDB_ID>  (50) 
pdb2am1

>  <RESIDUE_NAME>  (50) 
LYS   PHE

>  <FRAG_NAME>  (50) 
ETAM   MBZ

>  <FRAG_ATOM_NUM>  (50) 
fragi: 11  fragj: 15

>  <atom.prop.CHAIN_ID>  (50) 
A A A A A A A A A A A Z Z Z Z Z Z Z Z Z Z Z Z Z Z Z

>  <atom.prop.IS_HEAVY_ATOM>  (50) 
1 0 0 0 1 0 0 1 0 0 0 1 0 0 0 1 1 0 1 0 1 0 1 0 1 0

>  <DIFUSE_FUNC_ATOM>  (50) 
n/a

>  <FINAL_SINGLE_POINT_ENERGY>  (50) 
0

>  <NONCOV_INTER_ENERGY_QM>  (50) 
0

>  <FF_Energy>  (50) 
-7.51

>  <QM_Energy>  (50) 
-13.6

>  <source>  (50) 
ETAM_MBZ

>  <Index>  (50) 
448

$$$$
ETAM-pdb2afa-C-LYS-110:MBZ-pdb2afa-C-PHE-164
     RDKit          3D

 26 25  0  0  0  0  0  0  0  0999 V2000
    0.0075   -3.3801   -3.7648 C   0  0  0  0  0  0  0  0  0  0  0  0
   -0.5462   -4.2009   -3.6519 H   0  0  0  0  0  0  0  0  0  0  0  0
    0.2240   -3.2432   -4.7282 H   0  0  0  0  0  0  0  0  0  0  0  0
   -0.5576   -2.5209   -3.4034 H   0  0  0  0  0  0  0  0  0  0  0  0
    1.3175   -3.5746   -3.0007 C   0  0  0  0  0  0  0  0  0  0  0  0
    1.0964   -3.7812   -2.0317 H   0  0  0  0  0  0  0  0  0  0  0  0
    1.7920   -4.3898   -3.3768 H   0  0  0  0  0  0  0  0  0  0  0  0
    2.2498   -2.4102   -3.0465 N   0  0  0  0  0  4  0  0  0  0  0  0
    3.1275   -2.6752   -2.6489 H   0  0  0  0  0  0  0  0  0  0  0  0
    2.3813   -2.1307   -3.9969 H   0  0  0  0  0  0  0  0  0  0  0  0
    1.8581   -1.6537   -2.5242 H   0  0  0  0  0  0  0  0  0  0  0  0
   -0.0012    2.9185   -0.0057 C   0  0  0  0  0  0  0  0  0  0  0  0
    0.9153    3.2246    0.2005 H   0  0  0  0  0  0  0  0  0  0  0  0
   -0.6462    3.2261    0.6776 H   0  0  0  0  0  0  0  0  0  0  0  0
   -0.2923    3.3578   -0.9598 H   0  0  0  0  0  0  0  0  0  0  0  0
   -0.0005    1.4113    0.0003 C   0  0  0  0  0  0  0  0  0  0  0  0
   -1.2033    0.7015   -0.0005 C   0  0  0  0  0  0  0  0  0  0  0  0
   -2.0685    1.1890   -0.0027 H   0  0  0  0  0  0  0  0  0  0  0  0
   -1.2117   -0.7029   -0.0000 C   0  0  0  0  0  0  0  0  0  0  0  0
   -2.0848   -1.1922    0.0017 H   0  0  0  0  0  0  0  0  0  0  0  0
   -0.0001   -1.4056    0.0002 C   0  0  0  0  0  0  0  0  0  0  0  0
   -0.0040   -2.3999    0.0003 H   0  0  0  0  0  0  0  0  0  0  0  0
    1.2117   -0.7035    0.0000 C   0  0  0  0  0  0  0  0  0  0  0  0
    2.0887   -1.1975    0.0012 H   0  0  0  0  0  0  0  0  0  0  0  0
    1.2038    0.6993   -0.0000 C   0  0  0  0  0  0  0  0  0  0  0  0
    2.0695    1.1937   -0.0006 H   0  0  0  0  0  0  0  0  0  0  0  0
  1  5  1  0
  5  8  1  0
  1  2  1  0
  1  3  1  0
  1  4  1  0
  5  6  1  0
  5  7  1  0
  8  9  1  0
  8 10  1  0
  8 11  1  0
 12 16  1  0
 16 17  2  0
 17 19  1  0
 19 21  2  0
 21 23  1  0
 23 25  2  0
 25 16  1  0
 12 13  1  0
 12 14  1  0
 12 15  1  0
 17 18  1  0
 19 20  1  0
 21 22  1  0
 23 24  1  0
 25 26  1  0
M  CHG  1   8   1
M  END
>  <PDB_ID>  (51) 
pdb2afa

>  <RESIDUE_NAME>  (51) 
LYS   PHE

>  <FRAG_NAME>  (51) 
ETAM   MBZ

>  <FRAG_ATOM_NUM>  (51) 
fragi: 11  fragj: 15

>  <atom.prop.CHAIN_ID>  (51) 
A A A A A A A A A A A Z Z Z Z Z Z Z Z Z Z Z Z Z Z Z

>  <atom.prop.IS_HEAVY_ATOM>  (51) 
1 0 0 0 1 0 0 1 0 0 0 1 0 0 0 1 1 0 1 0 1 0 1 0 1 0

>  <DIFUSE_FUNC_ATOM>  (51) 
n/a

>  <FINAL_SINGLE_POINT_ENERGY>  (51) 
0

>  <NONCOV_INTER_ENERGY_QM>  (51) 
0

>  <FF_Energy>  (51) 
-2.92

>  <QM_Energy>  (51) 
-8.99

>  <source>  (51) 
ETAM_MBZ

>  <Index>  (51) 
450

$$$$
ETAM-pdb2afa-D-LYS-110:MBZ-pdb2afa-D-PHE-164
     RDKit          3D

 26 25  0  0  0  0  0  0  0  0999 V2000
    1.2385   -2.6233   -3.8049 C   0  0  0  0  0  0  0  0  0  0  0  0
    1.3635   -3.1710   -2.9814 H   0  0  0  0  0  0  0  0  0  0  0  0
    0.9632   -3.2089   -4.5636 H   0  0  0  0  0  0  0  0  0  0  0  0
    0.4555   -1.8869   -3.6236 H   0  0  0  0  0  0  0  0  0  0  0  0
    2.5807   -1.9752   -4.1601 C   0  0  0  0  0  0  0  0  0  0  0  0
    3.2520   -2.7074   -4.3431 H   0  0  0  0  0  0  0  0  0  0  0  0
    2.4643   -1.4425   -5.0099 H   0  0  0  0  0  0  0  0  0  0  0  0
    3.1137   -1.0804   -3.0928 N   0  0  0  0  0  4  0  0  0  0  0  0
    2.3711   -0.8230   -2.4760 H   0  0  0  0  0  0  0  0  0  0  0  0
    3.8238   -1.5628   -2.5809 H   0  0  0  0  0  0  0  0  0  0  0  0
    3.5005   -0.2605   -3.5119 H   0  0  0  0  0  0  0  0  0  0  0  0
   -0.0009    2.9145    0.0221 C   0  0  0  0  0  0  0  0  0  0  0  0
    0.9347    3.2195    0.1164 H   0  0  0  0  0  0  0  0  0  0  0  0
   -0.5545    3.2072    0.7867 H   0  0  0  0  0  0  0  0  0  0  0  0
   -0.4103    3.3697   -0.8798 H   0  0  0  0  0  0  0  0  0  0  0  0
    0.0012    1.4076    0.0000 C   0  0  0  0  0  0  0  0  0  0  0  0
   -1.2002    0.6985   -0.0002 C   0  0  0  0  0  0  0  0  0  0  0  0
   -2.0661    1.1866   -0.0020 H   0  0  0  0  0  0  0  0  0  0  0  0
   -1.2079   -0.7027    0.0000 C   0  0  0  0  0  0  0  0  0  0  0  0
   -2.0834   -1.1908    0.0003 H   0  0  0  0  0  0  0  0  0  0  0  0
   -0.0026   -1.4008    0.0017 C   0  0  0  0  0  0  0  0  0  0  0  0
   -0.0037   -2.3974    0.0035 H   0  0  0  0  0  0  0  0  0  0  0  0
    1.2079   -0.6997    0.0000 C   0  0  0  0  0  0  0  0  0  0  0  0
    2.0854   -1.1973    0.0017 H   0  0  0  0  0  0  0  0  0  0  0  0
    1.2016    0.6971   -0.0015 C   0  0  0  0  0  0  0  0  0  0  0  0
    2.0687    1.1926   -0.0043 H   0  0  0  0  0  0  0  0  0  0  0  0
  1  5  1  0
  5  8  1  0
  1  2  1  0
  1  3  1  0
  1  4  1  0
  5  6  1  0
  5  7  1  0
  8  9  1  0
  8 10  1  0
  8 11  1  0
 12 16  1  0
 16 17  2  0
 17 19  1  0
 19 21  2  0
 21 23  1  0
 23 25  2  0
 25 16  1  0
 12 13  1  0
 12 14  1  0
 12 15  1  0
 17 18  1  0
 19 20  1  0
 21 22  1  0
 23 24  1  0
 25 26  1  0
M  CHG  1   8   1
M  END
>  <PDB_ID>  (52) 
pdb2afa

>  <RESIDUE_NAME>  (52) 
LYS   PHE

>  <FRAG_NAME>  (52) 
ETAM   MBZ

>  <FRAG_ATOM_NUM>  (52) 
fragi: 11  fragj: 15

>  <atom.prop.CHAIN_ID>  (52) 
A A A A A A A A A A A Z Z Z Z Z Z Z Z Z Z Z Z Z Z Z

>  <atom.prop.IS_HEAVY_ATOM>  (52) 
1 0 0 0 1 0 0 1 0 0 0 1 0 0 0 1 1 0 1 0 1 0 1 0 1 0

>  <DIFUSE_FUNC_ATOM>  (52) 
n/a

>  <FINAL_SINGLE_POINT_ENERGY>  (52) 
0

>  <NONCOV_INTER_ENERGY_QM>  (52) 
0

>  <FF_Energy>  (52) 
-2.96

>  <QM_Energy>  (52) 
-8.56

>  <source>  (52) 
ETAM_MBZ

>  <Index>  (52) 
451

$$$$
ETAM-pdb2aj4-B-LYS-184:MBZ-pdb2aj4-B-PHE-46
     RDKit          3D

 26 25  0  0  0  0  0  0  0  0999 V2000
    0.3656    0.3328   -3.5505 C   0  0  0  0  0  0  0  0  0  0  0  0
   -0.5685    0.4559   -3.1662 H   0  0  0  0  0  0  0  0  0  0  0  0
    0.9555    0.0054   -2.7897 H   0  0  0  0  0  0  0  0  0  0  0  0
    0.3247   -0.4437   -4.3143 H   0  0  0  0  0  0  0  0  0  0  0  0
    0.8783    1.7012   -3.9875 C   0  0  0  0  0  0  0  0  0  0  0  0
    1.8599    1.6273   -4.1922 H   0  0  0  0  0  0  0  0  0  0  0  0
    0.3966    1.9730   -4.8282 H   0  0  0  0  0  0  0  0  0  0  0  0
    0.6713    2.7404   -2.9472 N   0  0  0  0  0  4  0  0  0  0  0  0
    1.5347    3.2155   -2.7740 H   0  0  0  0  0  0  0  0  0  0  0  0
   -0.0137    3.3975   -3.2636 H   0  0  0  0  0  0  0  0  0  0  0  0
    0.3532    2.3083   -2.1029 H   0  0  0  0  0  0  0  0  0  0  0  0
    0.0287    2.9477   -0.0173 C   0  0  0  0  0  0  0  0  0  0  0  0
   -0.8061    3.2560   -0.4343 H   0  0  0  0  0  0  0  0  0  0  0  0
    0.8245    3.2309   -0.5190 H   0  0  0  0  0  0  0  0  0  0  0  0
    0.0875    3.3857    0.9791 H   0  0  0  0  0  0  0  0  0  0  0  0
    0.0060    1.4231   -0.0041 C   0  0  0  0  0  0  0  0  0  0  0  0
   -1.1947    0.7066    0.0036 C   0  0  0  0  0  0  0  0  0  0  0  0
   -2.0620    1.1962    0.0106 H   0  0  0  0  0  0  0  0  0  0  0  0
   -1.2027   -0.6928   -0.0000 C   0  0  0  0  0  0  0  0  0  0  0  0
   -2.0848   -1.1803    0.0042 H   0  0  0  0  0  0  0  0  0  0  0  0
   -0.0047   -1.4095   -0.0070 C   0  0  0  0  0  0  0  0  0  0  0  0
   -0.0177   -2.4010   -0.0171 H   0  0  0  0  0  0  0  0  0  0  0  0
    1.2027   -0.7132   -0.0000 C   0  0  0  0  0  0  0  0  0  0  0  0
    2.0811   -1.2071    0.0009 H   0  0  0  0  0  0  0  0  0  0  0  0
    1.1934    0.6857    0.0075 C   0  0  0  0  0  0  0  0  0  0  0  0
    2.0724    1.1775    0.0208 H   0  0  0  0  0  0  0  0  0  0  0  0
  1  5  1  0
  5  8  1  0
  1  2  1  0
  1  3  1  0
  1  4  1  0
  5  6  1  0
  5  7  1  0
  8  9  1  0
  8 10  1  0
  8 11  1  0
 12 16  1  0
 16 17  2  0
 17 19  1  0
 19 21  2  0
 21 23  1  0
 23 25  2  0
 25 16  1  0
 12 13  1  0
 12 14  1  0
 12 15  1  0
 17 18  1  0
 19 20  1  0
 21 22  1  0
 23 24  1  0
 25 26  1  0
M  CHG  1   8   1
M  END
>  <PDB_ID>  (53) 
pdb2aj4

>  <RESIDUE_NAME>  (53) 
LYS   PHE

>  <FRAG_NAME>  (53) 
ETAM   MBZ

>  <FRAG_ATOM_NUM>  (53) 
fragi: 11  fragj: 15

>  <atom.prop.CHAIN_ID>  (53) 
A A A A A A A A A A A Z Z Z Z Z Z Z Z Z Z Z Z Z Z Z

>  <atom.prop.IS_HEAVY_ATOM>  (53) 
1 0 0 0 1 0 0 1 0 0 0 1 0 0 0 1 1 0 1 0 1 0 1 0 1 0

>  <DIFUSE_FUNC_ATOM>  (53) 
n/a

>  <FINAL_SINGLE_POINT_ENERGY>  (53) 
0

>  <NONCOV_INTER_ENERGY_QM>  (53) 
0

>  <FF_Energy>  (53) 
-4.18

>  <QM_Energy>  (53) 
-9.89

>  <source>  (53) 
ETAM_MBZ

>  <Index>  (53) 
454

$$$$
ETAM-pdb1agw-A-LYS-714:MBZ-pdb1agw-A-PHE-673
     RDKit          3D

 26 25  0  0  0  0  0  0  0  0999 V2000
    1.5134   -1.8376    3.6054 C   0  0  0  0  0  0  0  0  0  0  0  0
    1.9809   -1.6400    4.4568 H   0  0  0  0  0  0  0  0  0  0  0  0
    2.1448   -1.8156    2.8414 H   0  0  0  0  0  0  0  0  0  0  0  0
    1.0550   -2.8245    3.6675 H   0  0  0  0  0  0  0  0  0  0  0  0
    0.4487   -0.7833    3.3820 C   0  0  0  0  0  0  0  0  0  0  0  0
   -0.0572   -1.0015    2.5386 H   0  0  0  0  0  0  0  0  0  0  0  0
   -0.2003   -0.8029    4.1529 H   0  0  0  0  0  0  0  0  0  0  0  0
    1.0159    0.5896    3.2632 N   0  0  0  0  0  4  0  0  0  0  0  0
    0.7125    1.1412    4.0398 H   0  0  0  0  0  0  0  0  0  0  0  0
    2.0132    0.5359    3.2592 H   0  0  0  0  0  0  0  0  0  0  0  0
    0.6992    1.0057    2.4116 H   0  0  0  0  0  0  0  0  0  0  0  0
    0.0082    2.9099    0.0058 C   0  0  0  0  0  0  0  0  0  0  0  0
    0.9242    3.2110   -0.2148 H   0  0  0  0  0  0  0  0  0  0  0  0
   -0.2615    3.2119    0.9079 H   0  0  0  0  0  0  0  0  0  0  0  0
   -0.6738    3.3609   -0.7150 H   0  0  0  0  0  0  0  0  0  0  0  0
    0.0004    1.4036   -0.0013 C   0  0  0  0  0  0  0  0  0  0  0  0
   -1.2009    0.6967   -0.0008 C   0  0  0  0  0  0  0  0  0  0  0  0
   -2.0655    1.1876   -0.0028 H   0  0  0  0  0  0  0  0  0  0  0  0
   -1.2084   -0.6982   -0.0000 C   0  0  0  0  0  0  0  0  0  0  0  0
   -2.0809   -1.1916   -0.0002 H   0  0  0  0  0  0  0  0  0  0  0  0
    0.0019   -1.3984    0.0024 C   0  0  0  0  0  0  0  0  0  0  0  0
   -0.0011   -2.3939    0.0058 H   0  0  0  0  0  0  0  0  0  0  0  0
    1.2084   -0.6962    0.0000 C   0  0  0  0  0  0  0  0  0  0  0  0
    2.0876   -1.1942   -0.0004 H   0  0  0  0  0  0  0  0  0  0  0  0
    1.1986    0.6925   -0.0003 C   0  0  0  0  0  0  0  0  0  0  0  0
    2.0663    1.1928   -0.0004 H   0  0  0  0  0  0  0  0  0  0  0  0
  1  5  1  0
  5  8  1  0
  1  2  1  0
  1  3  1  0
  1  4  1  0
  5  6  1  0
  5  7  1  0
  8  9  1  0
  8 10  1  0
  8 11  1  0
 12 16  1  0
 16 17  2  0
 17 19  1  0
 19 21  2  0
 21 23  1  0
 23 25  2  0
 25 16  1  0
 12 13  1  0
 12 14  1  0
 12 15  1  0
 17 18  1  0
 19 20  1  0
 21 22  1  0
 23 24  1  0
 25 26  1  0
M  CHG  1   8   1
M  END
>  <PDB_ID>  (54) 
pdb1agw

>  <RESIDUE_NAME>  (54) 
LYS   PHE

>  <FRAG_NAME>  (54) 
ETAM   MBZ

>  <FRAG_ATOM_NUM>  (54) 
fragi: 11  fragj: 15

>  <atom.prop.CHAIN_ID>  (54) 
A A A A A A A A A A A Z Z Z Z Z Z Z Z Z Z Z Z Z Z Z

>  <atom.prop.IS_HEAVY_ATOM>  (54) 
1 0 0 0 1 0 0 1 0 0 0 1 0 0 0 1 1 0 1 0 1 0 1 0 1 0

>  <DIFUSE_FUNC_ATOM>  (54) 
n/a

>  <FINAL_SINGLE_POINT_ENERGY>  (54) 
0

>  <NONCOV_INTER_ENERGY_QM>  (54) 
0

>  <FF_Energy>  (54) 
-7.71

>  <QM_Energy>  (54) 
-15.03

>  <source>  (54) 
ETAM_MBZ

>  <Index>  (54) 
455

$$$$
ETAM-pdb1agw-B-LYS-714:MBZ-pdb1agw-B-PHE-673
     RDKit          3D

 26 25  0  0  0  0  0  0  0  0999 V2000
   -0.2955   -2.8812    4.7650 C   0  0  0  0  0  0  0  0  0  0  0  0
   -0.8986   -3.5790    5.1235 H   0  0  0  0  0  0  0  0  0  0  0  0
    0.2745   -2.4997    5.4770 H   0  0  0  0  0  0  0  0  0  0  0  0
    0.3372   -3.3159    3.9912 H   0  0  0  0  0  0  0  0  0  0  0  0
   -1.1572   -1.7531    4.1820 C   0  0  0  0  0  0  0  0  0  0  0  0
   -1.8281   -2.1527    3.5486 H   0  0  0  0  0  0  0  0  0  0  0  0
   -1.6533   -1.3042    4.9327 H   0  0  0  0  0  0  0  0  0  0  0  0
   -0.3508   -0.7164    3.4447 N   0  0  0  0  0  4  0  0  0  0  0  0
   -0.6642    0.1902    3.7163 H   0  0  0  0  0  0  0  0  0  0  0  0
    0.6114   -0.8291    3.6796 H   0  0  0  0  0  0  0  0  0  0  0  0
   -0.4812   -0.8438    2.4647 H   0  0  0  0  0  0  0  0  0  0  0  0
    0.0026    2.9228    0.0006 C   0  0  0  0  0  0  0  0  0  0  0  0
    0.9127    3.2236   -0.2374 H   0  0  0  0  0  0  0  0  0  0  0  0
   -0.2536    3.2257    0.9050 H   0  0  0  0  0  0  0  0  0  0  0  0
   -0.6943    3.3656   -0.7109 H   0  0  0  0  0  0  0  0  0  0  0  0
    0.0000    1.4105   -0.0003 C   0  0  0  0  0  0  0  0  0  0  0  0
   -1.1964    0.6974   -0.0004 C   0  0  0  0  0  0  0  0  0  0  0  0
   -2.0649    1.1836   -0.0015 H   0  0  0  0  0  0  0  0  0  0  0  0
   -1.2017   -0.7021    0.0000 C   0  0  0  0  0  0  0  0  0  0  0  0
   -2.0783   -1.1921    0.0008 H   0  0  0  0  0  0  0  0  0  0  0  0
    0.0016   -1.4011    0.0002 C   0  0  0  0  0  0  0  0  0  0  0  0
   -0.0040   -2.3985    0.0002 H   0  0  0  0  0  0  0  0  0  0  0  0
    1.2017   -0.7029    0.0000 C   0  0  0  0  0  0  0  0  0  0  0  0
    2.0846   -1.1941    0.0009 H   0  0  0  0  0  0  0  0  0  0  0  0
    1.1948    0.6981    0.0005 C   0  0  0  0  0  0  0  0  0  0  0  0
    2.0657    1.1906    0.0010 H   0  0  0  0  0  0  0  0  0  0  0  0
  1  5  1  0
  5  8  1  0
  1  2  1  0
  1  3  1  0
  1  4  1  0
  5  6  1  0
  5  7  1  0
  8  9  1  0
  8 10  1  0
  8 11  1  0
 12 16  1  0
 16 17  2  0
 17 19  1  0
 19 21  2  0
 21 23  1  0
 23 25  2  0
 25 16  1  0
 12 13  1  0
 12 14  1  0
 12 15  1  0
 17 18  1  0
 19 20  1  0
 21 22  1  0
 23 24  1  0
 25 26  1  0
M  CHG  1   8   1
M  END
>  <PDB_ID>  (55) 
pdb1agw

>  <RESIDUE_NAME>  (55) 
LYS   PHE

>  <FRAG_NAME>  (55) 
ETAM   MBZ

>  <FRAG_ATOM_NUM>  (55) 
fragi: 11  fragj: 15

>  <atom.prop.CHAIN_ID>  (55) 
A A A A A A A A A A A Z Z Z Z Z Z Z Z Z Z Z Z Z Z Z

>  <atom.prop.IS_HEAVY_ATOM>  (55) 
1 0 0 0 1 0 0 1 0 0 0 1 0 0 0 1 1 0 1 0 1 0 1 0 1 0

>  <DIFUSE_FUNC_ATOM>  (55) 
n/a

>  <FINAL_SINGLE_POINT_ENERGY>  (55) 
0

>  <NONCOV_INTER_ENERGY_QM>  (55) 
0

>  <FF_Energy>  (55) 
-7.69

>  <QM_Energy>  (55) 
-14.82

>  <source>  (55) 
ETAM_MBZ

>  <Index>  (55) 
457

$$$$
ETAM-pdb2afa-F-LYS-110:MBZ-pdb2afa-F-PHE-164
     RDKit          3D

 26 25  0  0  0  0  0  0  0  0999 V2000
    0.7192   -2.9872   -3.4672 C   0  0  0  0  0  0  0  0  0  0  0  0
    0.7267   -3.3187   -2.5277 H   0  0  0  0  0  0  0  0  0  0  0  0
    0.3694   -3.6927   -4.0774 H   0  0  0  0  0  0  0  0  0  0  0  0
    0.0617   -2.1197   -3.5243 H   0  0  0  0  0  0  0  0  0  0  0  0
    2.1523   -2.6561   -3.8777 C   0  0  0  0  0  0  0  0  0  0  0  0
    2.7183   -3.4856   -3.7744 H   0  0  0  0  0  0  0  0  0  0  0  0
    2.1580   -2.3966   -4.8543 H   0  0  0  0  0  0  0  0  0  0  0  0
    2.7632   -1.5490   -3.0793 N   0  0  0  0  0  4  0  0  0  0  0  0
    2.8473   -0.7370   -3.6546 H   0  0  0  0  0  0  0  0  0  0  0  0
    2.1774   -1.3483   -2.2957 H   0  0  0  0  0  0  0  0  0  0  0  0
    3.6660   -1.8328   -2.7625 H   0  0  0  0  0  0  0  0  0  0  0  0
    0.0013    2.9073    0.0167 C   0  0  0  0  0  0  0  0  0  0  0  0
    0.9328    3.2134    0.1444 H   0  0  0  0  0  0  0  0  0  0  0  0
   -0.5799    3.2072    0.7585 H   0  0  0  0  0  0  0  0  0  0  0  0
   -0.3726    3.3648   -0.8993 H   0  0  0  0  0  0  0  0  0  0  0  0
    0.0011    1.4031    0.0004 C   0  0  0  0  0  0  0  0  0  0  0  0
   -1.1993    0.6965   -0.0003 C   0  0  0  0  0  0  0  0  0  0  0  0
   -2.0639    1.1892   -0.0028 H   0  0  0  0  0  0  0  0  0  0  0  0
   -1.2092   -0.6971    0.0000 C   0  0  0  0  0  0  0  0  0  0  0  0
   -2.0837   -1.1888    0.0015 H   0  0  0  0  0  0  0  0  0  0  0  0
   -0.0034   -1.3980    0.0003 C   0  0  0  0  0  0  0  0  0  0  0  0
   -0.0072   -2.3944    0.0006 H   0  0  0  0  0  0  0  0  0  0  0  0
    1.2092   -0.6993   -0.0000 C   0  0  0  0  0  0  0  0  0  0  0  0
    2.0843   -1.1986    0.0020 H   0  0  0  0  0  0  0  0  0  0  0  0
    1.2016    0.6948   -0.0003 C   0  0  0  0  0  0  0  0  0  0  0  0
    2.0680    1.1926   -0.0020 H   0  0  0  0  0  0  0  0  0  0  0  0
  1  5  1  0
  5  8  1  0
  1  2  1  0
  1  3  1  0
  1  4  1  0
  5  6  1  0
  5  7  1  0
  8  9  1  0
  8 10  1  0
  8 11  1  0
 12 16  1  0
 16 17  2  0
 17 19  1  0
 19 21  2  0
 21 23  1  0
 23 25  2  0
 25 16  1  0
 12 13  1  0
 12 14  1  0
 12 15  1  0
 17 18  1  0
 19 20  1  0
 21 22  1  0
 23 24  1  0
 25 26  1  0
M  CHG  1   8   1
M  END
>  <PDB_ID>  (56) 
pdb2afa

>  <RESIDUE_NAME>  (56) 
LYS   PHE

>  <FRAG_NAME>  (56) 
ETAM   MBZ

>  <FRAG_ATOM_NUM>  (56) 
fragi: 11  fragj: 15

>  <atom.prop.CHAIN_ID>  (56) 
A A A A A A A A A A A Z Z Z Z Z Z Z Z Z Z Z Z Z Z Z

>  <atom.prop.IS_HEAVY_ATOM>  (56) 
1 0 0 0 1 0 0 1 0 0 0 1 0 0 0 1 1 0 1 0 1 0 1 0 1 0

>  <DIFUSE_FUNC_ATOM>  (56) 
n/a

>  <FINAL_SINGLE_POINT_ENERGY>  (56) 
0

>  <NONCOV_INTER_ENERGY_QM>  (56) 
0

>  <FF_Energy>  (56) 
-3.18

>  <QM_Energy>  (56) 
-9.23

>  <source>  (56) 
ETAM_MBZ

>  <Index>  (56) 
460

$$$$
ETAM-pdb1ah7-A-LYS-144:MBZ-pdb1ah7-A-PHE-199
     RDKit          3D

 26 25  0  0  0  0  0  0  0  0999 V2000
   -2.7759   -3.5641    0.6744 C   0  0  0  0  0  0  0  0  0  0  0  0
   -2.2644   -2.7479    0.4387 H   0  0  0  0  0  0  0  0  0  0  0  0
   -3.5628   -3.3396    1.2341 H   0  0  0  0  0  0  0  0  0  0  0  0
   -3.1181   -4.0439   -0.2426 H   0  0  0  0  0  0  0  0  0  0  0  0
   -1.8690   -4.4965    1.4621 C   0  0  0  0  0  0  0  0  0  0  0  0
   -1.9387   -4.2638    2.4467 H   0  0  0  0  0  0  0  0  0  0  0  0
   -2.2054   -5.4467    1.3533 H   0  0  0  0  0  0  0  0  0  0  0  0
   -0.4339   -4.4452    1.0554 N   0  0  0  0  0  4  0  0  0  0  0  0
    0.0835   -3.9297    1.7367 H   0  0  0  0  0  0  0  0  0  0  0  0
   -0.0748   -5.3758    0.9944 H   0  0  0  0  0  0  0  0  0  0  0  0
   -0.3590   -3.9967    0.1660 H   0  0  0  0  0  0  0  0  0  0  0  0
   -0.0104    2.8999    0.0187 C   0  0  0  0  0  0  0  0  0  0  0  0
   -0.6903    3.2121   -0.6101 H   0  0  0  0  0  0  0  0  0  0  0  0
    0.8898    3.2145   -0.1961 H   0  0  0  0  0  0  0  0  0  0  0  0
   -0.2696    3.2814    1.0064 H   0  0  0  0  0  0  0  0  0  0  0  0
   -0.0032    1.3939   -0.0015 C   0  0  0  0  0  0  0  0  0  0  0  0
   -1.1914    0.6870    0.0018 C   0  0  0  0  0  0  0  0  0  0  0  0
   -2.0615    1.1763    0.0040 H   0  0  0  0  0  0  0  0  0  0  0  0
   -1.1918   -0.6945    0.0000 C   0  0  0  0  0  0  0  0  0  0  0  0
   -2.0717   -1.1915   -0.0002 H   0  0  0  0  0  0  0  0  0  0  0  0
    0.0014   -1.3863    0.0002 C   0  0  0  0  0  0  0  0  0  0  0  0
   -0.0005   -2.3865    0.0004 H   0  0  0  0  0  0  0  0  0  0  0  0
    1.1918   -0.6894   -0.0000 C   0  0  0  0  0  0  0  0  0  0  0  0
    2.0778   -1.1921    0.0020 H   0  0  0  0  0  0  0  0  0  0  0  0
    1.1932    0.6894   -0.0006 C   0  0  0  0  0  0  0  0  0  0  0  0
    2.0592    1.1888   -0.0015 H   0  0  0  0  0  0  0  0  0  0  0  0
  1  5  1  0
  5  8  1  0
  1  2  1  0
  1  3  1  0
  1  4  1  0
  5  6  1  0
  5  7  1  0
  8  9  1  0
  8 10  1  0
  8 11  1  0
 12 16  1  0
 16 17  2  0
 17 19  1  0
 19 21  2  0
 21 23  1  0
 23 25  2  0
 25 16  1  0
 12 13  1  0
 12 14  1  0
 12 15  1  0
 17 18  1  0
 19 20  1  0
 21 22  1  0
 23 24  1  0
 25 26  1  0
M  CHG  1   8   1
M  END
>  <PDB_ID>  (57) 
pdb1ah7

>  <RESIDUE_NAME>  (57) 
LYS   PHE

>  <FRAG_NAME>  (57) 
ETAM   MBZ

>  <FRAG_ATOM_NUM>  (57) 
fragi: 11  fragj: 15

>  <atom.prop.CHAIN_ID>  (57) 
A A A A A A A A A A A Z Z Z Z Z Z Z Z Z Z Z Z Z Z Z

>  <atom.prop.IS_HEAVY_ATOM>  (57) 
1 0 0 0 1 0 0 1 0 0 0 1 0 0 0 1 1 0 1 0 1 0 1 0 1 0

>  <DIFUSE_FUNC_ATOM>  (57) 
n/a

>  <FINAL_SINGLE_POINT_ENERGY>  (57) 
0

>  <NONCOV_INTER_ENERGY_QM>  (57) 
0

>  <FF_Energy>  (57) 
17.64

>  <QM_Energy>  (57) 
0.63

>  <source>  (57) 
ETAM_MBZ

>  <Index>  (57) 
464

$$$$
ETAM-pdb1ahh-B-LYS-85:MBZ-pdb1ahh-B-PHE-81
     RDKit          3D

 26 25  0  0  0  0  0  0  0  0999 V2000
   -1.3692   -1.2922    3.5669 C   0  0  0  0  0  0  0  0  0  0  0  0
   -1.5671   -0.5597    4.2092 H   0  0  0  0  0  0  0  0  0  0  0  0
   -1.2477   -0.9277    2.6504 H   0  0  0  0  0  0  0  0  0  0  0  0
   -0.4510   -1.7927    3.8742 H   0  0  0  0  0  0  0  0  0  0  0  0
   -2.5636   -2.2543    3.5490 C   0  0  0  0  0  0  0  0  0  0  0  0
   -2.4577   -2.9147    4.3164 H   0  0  0  0  0  0  0  0  0  0  0  0
   -3.4107   -1.7222    3.7381 H   0  0  0  0  0  0  0  0  0  0  0  0
   -2.7638   -3.0319    2.2733 N   0  0  0  0  0  4  0  0  0  0  0  0
   -1.9052   -3.0473    1.7676 H   0  0  0  0  0  0  0  0  0  0  0  0
   -3.0430   -3.9606    2.5032 H   0  0  0  0  0  0  0  0  0  0  0  0
   -3.4715   -2.5860    1.7315 H   0  0  0  0  0  0  0  0  0  0  0  0
    0.0034    2.9068   -0.0089 C   0  0  0  0  0  0  0  0  0  0  0  0
   -0.7779    3.2081   -0.5347 H   0  0  0  0  0  0  0  0  0  0  0  0
    0.8507    3.2068   -0.4212 H   0  0  0  0  0  0  0  0  0  0  0  0
   -0.0658    3.3532    0.9831 H   0  0  0  0  0  0  0  0  0  0  0  0
    0.0019    1.4004    0.0003 C   0  0  0  0  0  0  0  0  0  0  0  0
   -1.1912    0.6925   -0.0003 C   0  0  0  0  0  0  0  0  0  0  0  0
   -2.0589    1.1822   -0.0021 H   0  0  0  0  0  0  0  0  0  0  0  0
   -1.1919   -0.6943   -0.0000 C   0  0  0  0  0  0  0  0  0  0  0  0
   -2.0745   -1.1867    0.0020 H   0  0  0  0  0  0  0  0  0  0  0  0
   -0.0026   -1.3885   -0.0007 C   0  0  0  0  0  0  0  0  0  0  0  0
   -0.0087   -2.3909   -0.0023 H   0  0  0  0  0  0  0  0  0  0  0  0
    1.1919   -0.7007   -0.0000 C   0  0  0  0  0  0  0  0  0  0  0  0
    2.0753   -1.1976    0.0019 H   0  0  0  0  0  0  0  0  0  0  0  0
    1.1919    0.6906    0.0006 C   0  0  0  0  0  0  0  0  0  0  0  0
    2.0639    1.1819    0.0004 H   0  0  0  0  0  0  0  0  0  0  0  0
  1  5  1  0
  5  8  1  0
  1  2  1  0
  1  3  1  0
  1  4  1  0
  5  6  1  0
  5  7  1  0
  8  9  1  0
  8 10  1  0
  8 11  1  0
 12 16  1  0
 16 17  2  0
 17 19  1  0
 19 21  2  0
 21 23  1  0
 23 25  2  0
 25 16  1  0
 12 13  1  0
 12 14  1  0
 12 15  1  0
 17 18  1  0
 19 20  1  0
 21 22  1  0
 23 24  1  0
 25 26  1  0
M  CHG  1   8   1
M  END
>  <PDB_ID>  (58) 
pdb1ahh

>  <RESIDUE_NAME>  (58) 
LYS   PHE

>  <FRAG_NAME>  (58) 
ETAM   MBZ

>  <FRAG_ATOM_NUM>  (58) 
fragi: 11  fragj: 15

>  <atom.prop.CHAIN_ID>  (58) 
A A A A A A A A A A A Z Z Z Z Z Z Z Z Z Z Z Z Z Z Z

>  <atom.prop.IS_HEAVY_ATOM>  (58) 
1 0 0 0 1 0 0 1 0 0 0 1 0 0 0 1 1 0 1 0 1 0 1 0 1 0

>  <DIFUSE_FUNC_ATOM>  (58) 
n/a

>  <FINAL_SINGLE_POINT_ENERGY>  (58) 
0

>  <NONCOV_INTER_ENERGY_QM>  (58) 
0

>  <FF_Energy>  (58) 
-1.21

>  <QM_Energy>  (58) 
-6.65

>  <source>  (58) 
ETAM_MBZ

>  <Index>  (58) 
472

$$$$
ETAM-pdb1ae1-B-LYS-229:MBZ-pdb1ae1-B-PHE-267
     RDKit          3D

 26 25  0  0  0  0  0  0  0  0999 V2000
    1.4000   -1.9086   -3.5689 C   0  0  0  0  0  0  0  0  0  0  0  0
    0.9961   -2.5702   -4.1910 H   0  0  0  0  0  0  0  0  0  0  0  0
    1.2927   -2.2068   -2.6269 H   0  0  0  0  0  0  0  0  0  0  0  0
    2.4633   -1.8203   -3.7919 H   0  0  0  0  0  0  0  0  0  0  0  0
    0.6734   -0.5754   -3.7400 C   0  0  0  0  0  0  0  0  0  0  0  0
    1.0474    0.0838   -3.0755 H   0  0  0  0  0  0  0  0  0  0  0  0
    0.8551   -0.2257   -4.6673 H   0  0  0  0  0  0  0  0  0  0  0  0
   -0.8022   -0.6840   -3.5405 N   0  0  0  0  0  4  0  0  0  0  0  0
   -0.9940   -1.4239   -2.8983 H   0  0  0  0  0  0  0  0  0  0  0  0
   -1.1490    0.1774   -3.1743 H   0  0  0  0  0  0  0  0  0  0  0  0
   -1.2395   -0.8775   -4.4171 H   0  0  0  0  0  0  0  0  0  0  0  0
    0.0034    2.9112    0.0115 C   0  0  0  0  0  0  0  0  0  0  0  0
    0.8287    3.2112    0.4647 H   0  0  0  0  0  0  0  0  0  0  0  0
   -0.8048    3.2140    0.4921 H   0  0  0  0  0  0  0  0  0  0  0  0
   -0.0128    3.3576   -0.9827 H   0  0  0  0  0  0  0  0  0  0  0  0
    0.0006    1.4037    0.0013 C   0  0  0  0  0  0  0  0  0  0  0  0
   -1.2016    0.6960    0.0010 C   0  0  0  0  0  0  0  0  0  0  0  0
   -2.0653    1.1879    0.0004 H   0  0  0  0  0  0  0  0  0  0  0  0
   -1.2064   -0.6967   -0.0000 C   0  0  0  0  0  0  0  0  0  0  0  0
   -2.0815   -1.1907    0.0010 H   0  0  0  0  0  0  0  0  0  0  0  0
   -0.0012   -1.3955   -0.0009 C   0  0  0  0  0  0  0  0  0  0  0  0
   -0.0064   -2.3931   -0.0028 H   0  0  0  0  0  0  0  0  0  0  0  0
    1.2064   -0.6995    0.0000 C   0  0  0  0  0  0  0  0  0  0  0  0
    2.0839   -1.1994    0.0029 H   0  0  0  0  0  0  0  0  0  0  0  0
    1.2022    0.6920   -0.0015 C   0  0  0  0  0  0  0  0  0  0  0  0
    2.0687    1.1898   -0.0048 H   0  0  0  0  0  0  0  0  0  0  0  0
  1  5  1  0
  5  8  1  0
  1  2  1  0
  1  3  1  0
  1  4  1  0
  5  6  1  0
  5  7  1  0
  8  9  1  0
  8 10  1  0
  8 11  1  0
 12 16  1  0
 16 17  2  0
 17 19  1  0
 19 21  2  0
 21 23  1  0
 23 25  2  0
 25 16  1  0
 12 13  1  0
 12 14  1  0
 12 15  1  0
 17 18  1  0
 19 20  1  0
 21 22  1  0
 23 24  1  0
 25 26  1  0
M  CHG  1   8   1
M  END
>  <PDB_ID>  (59) 
pdb1ae1

>  <RESIDUE_NAME>  (59) 
LYS   PHE

>  <FRAG_NAME>  (59) 
ETAM   MBZ

>  <FRAG_ATOM_NUM>  (59) 
fragi: 11  fragj: 15

>  <atom.prop.CHAIN_ID>  (59) 
A A A A A A A A A A A Z Z Z Z Z Z Z Z Z Z Z Z Z Z Z

>  <atom.prop.IS_HEAVY_ATOM>  (59) 
1 0 0 0 1 0 0 1 0 0 0 1 0 0 0 1 1 0 1 0 1 0 1 0 1 0

>  <DIFUSE_FUNC_ATOM>  (59) 
n/a

>  <FINAL_SINGLE_POINT_ENERGY>  (59) 
0

>  <NONCOV_INTER_ENERGY_QM>  (59) 
0

>  <FF_Energy>  (59) 
-7.35

>  <QM_Energy>  (59) 
-13.5

>  <source>  (59) 
ETAM_MBZ

>  <Index>  (59) 
477

$$$$
ETAM-pdb2arh-A-LYS-128:MBZ-pdb2arh-A-PHE-194
     RDKit          3D

 26 25  0  0  0  0  0  0  0  0999 V2000
    2.4601   -1.6202   -3.8332 C   0  0  0  0  0  0  0  0  0  0  0  0
    2.1081   -0.6819   -3.8394 H   0  0  0  0  0  0  0  0  0  0  0  0
    2.9696   -1.7858   -4.6799 H   0  0  0  0  0  0  0  0  0  0  0  0
    3.1602   -1.7060   -3.0021 H   0  0  0  0  0  0  0  0  0  0  0  0
    1.3240   -2.5801   -3.7381 C   0  0  0  0  0  0  0  0  0  0  0  0
    1.0117   -2.8351   -4.6664 H   0  0  0  0  0  0  0  0  0  0  0  0
    1.6277   -3.4279   -3.2754 H   0  0  0  0  0  0  0  0  0  0  0  0
    0.1379   -2.0362   -2.9808 N   0  0  0  0  0  4  0  0  0  0  0  0
   -0.6321   -1.9506   -3.6070 H   0  0  0  0  0  0  0  0  0  0  0  0
   -0.0891   -2.6665   -2.2433 H   0  0  0  0  0  0  0  0  0  0  0  0
    0.3761   -1.1434   -2.6073 H   0  0  0  0  0  0  0  0  0  0  0  0
   -0.0088    2.8872    0.0500 C   0  0  0  0  0  0  0  0  0  0  0  0
   -0.8111    3.2147   -0.4209 H   0  0  0  0  0  0  0  0  0  0  0  0
    0.8206    3.2295   -0.3605 H   0  0  0  0  0  0  0  0  0  0  0  0
   -0.0496    3.2701    1.0697 H   0  0  0  0  0  0  0  0  0  0  0  0
    0.0065    1.4068   -0.0086 C   0  0  0  0  0  0  0  0  0  0  0  0
   -1.1968    0.6898    0.0165 C   0  0  0  0  0  0  0  0  0  0  0  0
   -2.0616    1.1855    0.0451 H   0  0  0  0  0  0  0  0  0  0  0  0
   -1.2106   -0.7031    0.0000 C   0  0  0  0  0  0  0  0  0  0  0  0
   -2.0951   -1.1862   -0.0044 H   0  0  0  0  0  0  0  0  0  0  0  0
   -0.0240   -1.4004   -0.0072 C   0  0  0  0  0  0  0  0  0  0  0  0
   -0.0156   -2.3973   -0.0177 H   0  0  0  0  0  0  0  0  0  0  0  0
    1.2106   -0.7010    0.0000 C   0  0  0  0  0  0  0  0  0  0  0  0
    2.0767   -1.2058    0.0072 H   0  0  0  0  0  0  0  0  0  0  0  0
    1.2144    0.7079   -0.0007 C   0  0  0  0  0  0  0  0  0  0  0  0
    2.0756    1.1957    0.0036 H   0  0  0  0  0  0  0  0  0  0  0  0
  1  5  1  0
  5  8  1  0
  1  2  1  0
  1  3  1  0
  1  4  1  0
  5  6  1  0
  5  7  1  0
  8  9  1  0
  8 10  1  0
  8 11  1  0
 12 16  1  0
 16 17  2  0
 17 19  1  0
 19 21  2  0
 21 23  1  0
 23 25  2  0
 25 16  1  0
 12 13  1  0
 12 14  1  0
 12 15  1  0
 17 18  1  0
 19 20  1  0
 21 22  1  0
 23 24  1  0
 25 26  1  0
M  CHG  1   8   1
M  END
>  <PDB_ID>  (60) 
pdb2arh

>  <RESIDUE_NAME>  (60) 
LYS   PHE

>  <FRAG_NAME>  (60) 
ETAM   MBZ

>  <FRAG_ATOM_NUM>  (60) 
fragi: 11  fragj: 15

>  <atom.prop.CHAIN_ID>  (60) 
A A A A A A A A A A A Z Z Z Z Z Z Z Z Z Z Z Z Z Z Z

>  <atom.prop.IS_HEAVY_ATOM>  (60) 
1 0 0 0 1 0 0 1 0 0 0 1 0 0 0 1 1 0 1 0 1 0 1 0 1 0

>  <DIFUSE_FUNC_ATOM>  (60) 
n/a

>  <FINAL_SINGLE_POINT_ENERGY>  (60) 
0

>  <NONCOV_INTER_ENERGY_QM>  (60) 
0

>  <FF_Energy>  (60) 
-4.87

>  <QM_Energy>  (60) 
-12.11

>  <source>  (60) 
ETAM_MBZ

>  <Index>  (60) 
483

$$$$
ETAM-pdb2arh-C-LYS-128:MBZ-pdb2arh-C-PHE-124
     RDKit          3D

 26 25  0  0  0  0  0  0  0  0999 V2000
   -0.0504   -0.8635    4.6781 C   0  0  0  0  0  0  0  0  0  0  0  0
    0.2554   -1.7014    5.0883 H   0  0  0  0  0  0  0  0  0  0  0  0
   -1.0209   -0.7353    4.7633 H   0  0  0  0  0  0  0  0  0  0  0  0
    0.4649   -0.0259    5.1483 H   0  0  0  0  0  0  0  0  0  0  0  0
    0.3219   -0.8596    3.2270 C   0  0  0  0  0  0  0  0  0  0  0  0
    0.2114   -1.7837    2.8491 H   0  0  0  0  0  0  0  0  0  0  0  0
   -0.2836   -0.2327    2.7262 H   0  0  0  0  0  0  0  0  0  0  0  0
    1.7343   -0.4252    3.0237 N   0  0  0  0  0  4  0  0  0  0  0  0
    2.0526   -0.7443    2.1327 H   0  0  0  0  0  0  0  0  0  0  0  0
    1.7808    0.5723    3.0598 H   0  0  0  0  0  0  0  0  0  0  0  0
    2.3067   -0.8147    3.7442 H   0  0  0  0  0  0  0  0  0  0  0  0
   -0.0161    2.8890   -0.0107 C   0  0  0  0  0  0  0  0  0  0  0  0
   -0.2917    3.1936   -0.9093 H   0  0  0  0  0  0  0  0  0  0  0  0
    0.8942    3.2038    0.2130 H   0  0  0  0  0  0  0  0  0  0  0  0
   -0.7059    3.3208    0.7144 H   0  0  0  0  0  0  0  0  0  0  0  0
   -0.0107    1.3985   -0.0036 C   0  0  0  0  0  0  0  0  0  0  0  0
   -1.2106    0.6877   -0.0065 C   0  0  0  0  0  0  0  0  0  0  0  0
   -2.0749    1.1877   -0.0148 H   0  0  0  0  0  0  0  0  0  0  0  0
   -1.2139   -0.6848   -0.0000 C   0  0  0  0  0  0  0  0  0  0  0  0
   -2.0741   -1.1992    0.0018 H   0  0  0  0  0  0  0  0  0  0  0  0
    0.0186   -1.3932    0.0056 C   0  0  0  0  0  0  0  0  0  0  0  0
   -0.0030   -2.3898    0.0129 H   0  0  0  0  0  0  0  0  0  0  0  0
    1.2139   -0.7020   -0.0000 C   0  0  0  0  0  0  0  0  0  0  0  0
    2.0976   -1.1916   -0.0058 H   0  0  0  0  0  0  0  0  0  0  0  0
    1.2027    0.6938    0.0046 C   0  0  0  0  0  0  0  0  0  0  0  0
    2.0619    1.1969    0.0129 H   0  0  0  0  0  0  0  0  0  0  0  0
  1  5  1  0
  5  8  1  0
  1  2  1  0
  1  3  1  0
  1  4  1  0
  5  6  1  0
  5  7  1  0
  8  9  1  0
  8 10  1  0
  8 11  1  0
 12 16  1  0
 16 17  2  0
 17 19  1  0
 19 21  2  0
 21 23  1  0
 23 25  2  0
 25 16  1  0
 12 13  1  0
 12 14  1  0
 12 15  1  0
 17 18  1  0
 19 20  1  0
 21 22  1  0
 23 24  1  0
 25 26  1  0
M  CHG  1   8   1
M  END
>  <PDB_ID>  (61) 
pdb2arh

>  <RESIDUE_NAME>  (61) 
LYS   PHE

>  <FRAG_NAME>  (61) 
ETAM   MBZ

>  <FRAG_ATOM_NUM>  (61) 
fragi: 11  fragj: 15

>  <atom.prop.CHAIN_ID>  (61) 
A A A A A A A A A A A Z Z Z Z Z Z Z Z Z Z Z Z Z Z Z

>  <atom.prop.IS_HEAVY_ATOM>  (61) 
1 0 0 0 1 0 0 1 0 0 0 1 0 0 0 1 1 0 1 0 1 0 1 0 1 0

>  <DIFUSE_FUNC_ATOM>  (61) 
n/a

>  <FINAL_SINGLE_POINT_ENERGY>  (61) 
0

>  <NONCOV_INTER_ENERGY_QM>  (61) 
0

>  <FF_Energy>  (61) 
-5.58

>  <QM_Energy>  (61) 
-13.44

>  <source>  (61) 
ETAM_MBZ

>  <Index>  (61) 
486

$$$$
ETAM-pdb1aiq-B-LYS-48:MBZ-pdb1aiq-B-PHE-171
     RDKit          3D

 26 25  0  0  0  0  0  0  0  0999 V2000
    0.3459   -2.6809   -4.1029 C   0  0  0  0  0  0  0  0  0  0  0  0
   -0.1380   -3.2050   -3.4143 H   0  0  0  0  0  0  0  0  0  0  0  0
    1.1242   -2.2109   -3.7057 H   0  0  0  0  0  0  0  0  0  0  0  0
    0.6951   -3.3549   -4.8851 H   0  0  0  0  0  0  0  0  0  0  0  0
   -0.6153   -1.6265   -4.6688 C   0  0  0  0  0  0  0  0  0  0  0  0
   -0.1368   -1.1013   -5.3673 H   0  0  0  0  0  0  0  0  0  0  0  0
   -1.4001   -2.0922   -5.0705 H   0  0  0  0  0  0  0  0  0  0  0  0
   -1.0824   -0.7085   -3.5904 N   0  0  0  0  0  4  0  0  0  0  0  0
   -1.9282   -1.0655   -3.1955 H   0  0  0  0  0  0  0  0  0  0  0  0
   -0.3808   -0.6478   -2.8815 H   0  0  0  0  0  0  0  0  0  0  0  0
   -1.2489    0.1975   -3.9779 H   0  0  0  0  0  0  0  0  0  0  0  0
    0.0071    2.9081   -0.0077 C   0  0  0  0  0  0  0  0  0  0  0  0
    0.8418    3.2127    0.4207 H   0  0  0  0  0  0  0  0  0  0  0  0
   -0.7899    3.2198    0.4839 H   0  0  0  0  0  0  0  0  0  0  0  0
   -0.0300    3.3352   -1.0098 H   0  0  0  0  0  0  0  0  0  0  0  0
    0.0011    1.3973    0.0068 C   0  0  0  0  0  0  0  0  0  0  0  0
   -1.2005    0.6894    0.0006 C   0  0  0  0  0  0  0  0  0  0  0  0
   -2.0633    1.1823   -0.0052 H   0  0  0  0  0  0  0  0  0  0  0  0
   -1.1981   -0.6933   -0.0000 C   0  0  0  0  0  0  0  0  0  0  0  0
   -2.0742   -1.1934    0.0045 H   0  0  0  0  0  0  0  0  0  0  0  0
    0.0019   -1.3825   -0.0052 C   0  0  0  0  0  0  0  0  0  0  0  0
   -0.0037   -2.3866   -0.0133 H   0  0  0  0  0  0  0  0  0  0  0  0
    1.1981   -0.6942    0.0000 C   0  0  0  0  0  0  0  0  0  0  0  0
    2.0791   -1.1982    0.0070 H   0  0  0  0  0  0  0  0  0  0  0  0
    1.1974    0.6833   -0.0023 C   0  0  0  0  0  0  0  0  0  0  0  0
    2.0653    1.1840   -0.0110 H   0  0  0  0  0  0  0  0  0  0  0  0
  1  5  1  0
  5  8  1  0
  1  2  1  0
  1  3  1  0
  1  4  1  0
  5  6  1  0
  5  7  1  0
  8  9  1  0
  8 10  1  0
  8 11  1  0
 12 16  1  0
 16 17  2  0
 17 19  1  0
 19 21  2  0
 21 23  1  0
 23 25  2  0
 25 16  1  0
 12 13  1  0
 12 14  1  0
 12 15  1  0
 17 18  1  0
 19 20  1  0
 21 22  1  0
 23 24  1  0
 25 26  1  0
M  CHG  1   8   1
M  END
>  <PDB_ID>  (62) 
pdb1aiq

>  <RESIDUE_NAME>  (62) 
LYS   PHE

>  <FRAG_NAME>  (62) 
ETAM   MBZ

>  <FRAG_ATOM_NUM>  (62) 
fragi: 11  fragj: 15

>  <atom.prop.CHAIN_ID>  (62) 
A A A A A A A A A A A Z Z Z Z Z Z Z Z Z Z Z Z Z Z Z

>  <atom.prop.IS_HEAVY_ATOM>  (62) 
1 0 0 0 1 0 0 1 0 0 0 1 0 0 0 1 1 0 1 0 1 0 1 0 1 0

>  <DIFUSE_FUNC_ATOM>  (62) 
n/a

>  <FINAL_SINGLE_POINT_ENERGY>  (62) 
0

>  <NONCOV_INTER_ENERGY_QM>  (62) 
0

>  <FF_Energy>  (62) 
-6.31

>  <QM_Energy>  (62) 
-11.77

>  <source>  (62) 
ETAM_MBZ

>  <Index>  (62) 
513

$$$$
ETAM-pdb1akh-A-LYS-121:MBZ-pdb1akh-A-PHE-89
     RDKit          3D

 26 25  0  0  0  0  0  0  0  0999 V2000
    0.3801    0.2708   -4.3999 C   0  0  0  0  0  0  0  0  0  0  0  0
    0.1859   -0.1619   -5.2703 H   0  0  0  0  0  0  0  0  0  0  0  0
    0.1422    1.2323   -4.4207 H   0  0  0  0  0  0  0  0  0  0  0  0
   -0.1906   -0.2259   -3.6152 H   0  0  0  0  0  0  0  0  0  0  0  0
    1.8582    0.1451   -4.1170 C   0  0  0  0  0  0  0  0  0  0  0  0
    2.1071   -0.8273   -4.1082 H   0  0  0  0  0  0  0  0  0  0  0  0
    2.3711    0.6052   -4.8464 H   0  0  0  0  0  0  0  0  0  0  0  0
    2.2045    0.7516   -2.8185 N   0  0  0  0  0  4  0  0  0  0  0  0
    1.4827    0.5575   -2.1507 H   0  0  0  0  0  0  0  0  0  0  0  0
    3.0703    0.3717   -2.4877 H   0  0  0  0  0  0  0  0  0  0  0  0
    2.2989    1.7443   -2.9226 H   0  0  0  0  0  0  0  0  0  0  0  0
   -0.0052    2.9341   -0.0211 C   0  0  0  0  0  0  0  0  0  0  0  0
   -0.8067    3.2297   -0.5130 H   0  0  0  0  0  0  0  0  0  0  0  0
    0.8250    3.2346   -0.4600 H   0  0  0  0  0  0  0  0  0  0  0  0
   -0.0385    3.3788    0.9735 H   0  0  0  0  0  0  0  0  0  0  0  0
   -0.0018    1.4256   -0.0029 C   0  0  0  0  0  0  0  0  0  0  0  0
   -1.2060    0.7086    0.0016 C   0  0  0  0  0  0  0  0  0  0  0  0
   -2.0717    1.1937    0.0048 H   0  0  0  0  0  0  0  0  0  0  0  0
   -1.2110   -0.6985   -0.0000 C   0  0  0  0  0  0  0  0  0  0  0  0
   -2.0835   -1.1904   -0.0015 H   0  0  0  0  0  0  0  0  0  0  0  0
    0.0076   -1.4161    0.0026 C   0  0  0  0  0  0  0  0  0  0  0  0
   -0.0144   -2.4095    0.0059 H   0  0  0  0  0  0  0  0  0  0  0  0
    1.2110   -0.7261    0.0000 C   0  0  0  0  0  0  0  0  0  0  0  0
    2.0926   -1.2015    0.0007 H   0  0  0  0  0  0  0  0  0  0  0  0
    1.2002    0.7064   -0.0013 C   0  0  0  0  0  0  0  0  0  0  0  0
    2.0718    1.1872   -0.0019 H   0  0  0  0  0  0  0  0  0  0  0  0
  1  5  1  0
  5  8  1  0
  1  2  1  0
  1  3  1  0
  1  4  1  0
  5  6  1  0
  5  7  1  0
  8  9  1  0
  8 10  1  0
  8 11  1  0
 12 16  1  0
 16 17  2  0
 17 19  1  0
 19 21  2  0
 21 23  1  0
 23 25  2  0
 25 16  1  0
 12 13  1  0
 12 14  1  0
 12 15  1  0
 17 18  1  0
 19 20  1  0
 21 22  1  0
 23 24  1  0
 25 26  1  0
M  CHG  1   8   1
M  END
>  <PDB_ID>  (63) 
pdb1akh

>  <RESIDUE_NAME>  (63) 
LYS   PHE

>  <FRAG_NAME>  (63) 
ETAM   MBZ

>  <FRAG_ATOM_NUM>  (63) 
fragi: 11  fragj: 15

>  <atom.prop.CHAIN_ID>  (63) 
A A A A A A A A A A A Z Z Z Z Z Z Z Z Z Z Z Z Z Z Z

>  <atom.prop.IS_HEAVY_ATOM>  (63) 
1 0 0 0 1 0 0 1 0 0 0 1 0 0 0 1 1 0 1 0 1 0 1 0 1 0

>  <DIFUSE_FUNC_ATOM>  (63) 
n/a

>  <FINAL_SINGLE_POINT_ENERGY>  (63) 
0

>  <NONCOV_INTER_ENERGY_QM>  (63) 
0

>  <FF_Energy>  (63) 
-5.16

>  <QM_Energy>  (63) 
-12.65

>  <source>  (63) 
ETAM_MBZ

>  <Index>  (63) 
577

$$$$
ETAM-pdb2ao9-H-LYS-90:MBZ-pdb2ao9-H-PHE-86
     RDKit          3D

 26 25  0  0  0  0  0  0  0  0999 V2000
    1.9028   -1.2163    4.6152 C   0  0  0  0  0  0  0  0  0  0  0  0
    2.1722   -2.1579    4.8028 H   0  0  0  0  0  0  0  0  0  0  0  0
    1.5275   -0.8000    5.4394 H   0  0  0  0  0  0  0  0  0  0  0  0
    2.7891   -0.6562    4.3170 H   0  0  0  0  0  0  0  0  0  0  0  0
    0.8182   -1.2259    3.5372 C   0  0  0  0  0  0  0  0  0  0  0  0
    1.2621   -1.2936    2.6311 H   0  0  0  0  0  0  0  0  0  0  0  0
    0.2456   -2.0506    3.6596 H   0  0  0  0  0  0  0  0  0  0  0  0
   -0.0730   -0.0151    3.5475 N   0  0  0  0  0  4  0  0  0  0  0  0
   -0.0465    0.4148    2.6477 H   0  0  0  0  0  0  0  0  0  0  0  0
   -1.0041   -0.3004    3.7609 H   0  0  0  0  0  0  0  0  0  0  0  0
    0.2558    0.6231    4.2392 H   0  0  0  0  0  0  0  0  0  0  0  0
    0.0090    2.9167    0.0024 C   0  0  0  0  0  0  0  0  0  0  0  0
   -0.8299    3.2282   -0.4177 H   0  0  0  0  0  0  0  0  0  0  0  0
    0.8005    3.2200   -0.5056 H   0  0  0  0  0  0  0  0  0  0  0  0
    0.0651    3.3545    0.9991 H   0  0  0  0  0  0  0  0  0  0  0  0
    0.0014    1.4102   -0.0045 C   0  0  0  0  0  0  0  0  0  0  0  0
   -1.2103    0.7048   -0.0007 C   0  0  0  0  0  0  0  0  0  0  0  0
   -2.0691    1.1931    0.0007 H   0  0  0  0  0  0  0  0  0  0  0  0
   -1.2128   -0.6986    0.0000 C   0  0  0  0  0  0  0  0  0  0  0  0
   -2.0830   -1.1934    0.0018 H   0  0  0  0  0  0  0  0  0  0  0  0
    0.0053   -1.4021    0.0002 C   0  0  0  0  0  0  0  0  0  0  0  0
   -0.0049   -2.3984    0.0002 H   0  0  0  0  0  0  0  0  0  0  0  0
    1.2128   -0.7057   -0.0000 C   0  0  0  0  0  0  0  0  0  0  0  0
    2.0910   -1.2002   -0.0024 H   0  0  0  0  0  0  0  0  0  0  0  0
    1.2036    0.6914    0.0050 C   0  0  0  0  0  0  0  0  0  0  0  0
    2.0715    1.1887    0.0151 H   0  0  0  0  0  0  0  0  0  0  0  0
  1  5  1  0
  5  8  1  0
  1  2  1  0
  1  3  1  0
  1  4  1  0
  5  6  1  0
  5  7  1  0
  8  9  1  0
  8 10  1  0
  8 11  1  0
 12 16  1  0
 16 17  2  0
 17 19  1  0
 19 21  2  0
 21 23  1  0
 23 25  2  0
 25 16  1  0
 12 13  1  0
 12 14  1  0
 12 15  1  0
 17 18  1  0
 19 20  1  0
 21 22  1  0
 23 24  1  0
 25 26  1  0
M  CHG  1   8   1
M  END
>  <PDB_ID>  (64) 
pdb2ao9

>  <RESIDUE_NAME>  (64) 
LYS   PHE

>  <FRAG_NAME>  (64) 
ETAM   MBZ

>  <FRAG_ATOM_NUM>  (64) 
fragi: 11  fragj: 15

>  <atom.prop.CHAIN_ID>  (64) 
A A A A A A A A A A A Z Z Z Z Z Z Z Z Z Z Z Z Z Z Z

>  <atom.prop.IS_HEAVY_ATOM>  (64) 
1 0 0 0 1 0 0 1 0 0 0 1 0 0 0 1 1 0 1 0 1 0 1 0 1 0

>  <DIFUSE_FUNC_ATOM>  (64) 
n/a

>  <FINAL_SINGLE_POINT_ENERGY>  (64) 
0

>  <NONCOV_INTER_ENERGY_QM>  (64) 
0

>  <FF_Energy>  (64) 
-8.06

>  <QM_Energy>  (64) 
-14.57

>  <source>  (64) 
ETAM_MBZ

>  <Index>  (64) 
578

$$$$
ETAM-pdb2au1-A-LYS-230:MBZ-pdb2au1-A-PHE-227
     RDKit          3D

 26 25  0  0  0  0  0  0  0  0999 V2000
    5.7277    3.4767   -1.3283 C   0  0  0  0  0  0  0  0  0  0  0  0
    6.5208    3.4043   -1.9244 H   0  0  0  0  0  0  0  0  0  0  0  0
    6.0096    3.7096   -0.4035 H   0  0  0  0  0  0  0  0  0  0  0  0
    5.0750    4.2636   -1.7062 H   0  0  0  0  0  0  0  0  0  0  0  0
    5.0192    2.1335   -1.2970 C   0  0  0  0  0  0  0  0  0  0  0  0
    4.8305    1.8442   -2.2367 H   0  0  0  0  0  0  0  0  0  0  0  0
    5.6176    1.4599   -0.8591 H   0  0  0  0  0  0  0  0  0  0  0  0
    3.7432    2.2194   -0.5435 N   0  0  0  0  0  4  0  0  0  0  0  0
    3.8612    1.8068    0.3605 H   0  0  0  0  0  0  0  0  0  0  0  0
    3.4811    3.1791   -0.4397 H   0  0  0  0  0  0  0  0  0  0  0  0
    3.0274    1.7305   -1.0422 H   0  0  0  0  0  0  0  0  0  0  0  0
   -0.0047    2.9216   -0.0227 C   0  0  0  0  0  0  0  0  0  0  0  0
   -0.7596    3.2295    0.5363 H   0  0  0  0  0  0  0  0  0  0  0  0
   -0.1108    3.2099   -0.9616 H   0  0  0  0  0  0  0  0  0  0  0  0
    0.9068    3.3761    0.3655 H   0  0  0  0  0  0  0  0  0  0  0  0
    0.0010    1.4091   -0.0001 C   0  0  0  0  0  0  0  0  0  0  0  0
   -1.1997    0.6986   -0.0009 C   0  0  0  0  0  0  0  0  0  0  0  0
   -2.0652    1.1888   -0.0036 H   0  0  0  0  0  0  0  0  0  0  0  0
   -1.2080   -0.6983    0.0000 C   0  0  0  0  0  0  0  0  0  0  0  0
   -2.0836   -1.1883    0.0017 H   0  0  0  0  0  0  0  0  0  0  0  0
   -0.0030   -1.4013    0.0007 C   0  0  0  0  0  0  0  0  0  0  0  0
   -0.0073   -2.3968    0.0014 H   0  0  0  0  0  0  0  0  0  0  0  0
    1.2080   -0.7020    0.0000 C   0  0  0  0  0  0  0  0  0  0  0  0
    2.0851   -1.2003    0.0008 H   0  0  0  0  0  0  0  0  0  0  0  0
    1.2017    0.6940    0.0004 C   0  0  0  0  0  0  0  0  0  0  0  0
    2.0689    1.1905    0.0000 H   0  0  0  0  0  0  0  0  0  0  0  0
  1  5  1  0
  5  8  1  0
  1  2  1  0
  1  3  1  0
  1  4  1  0
  5  6  1  0
  5  7  1  0
  8  9  1  0
  8 10  1  0
  8 11  1  0
 12 16  1  0
 16 17  2  0
 17 19  1  0
 19 21  2  0
 21 23  1  0
 23 25  2  0
 25 16  1  0
 12 13  1  0
 12 14  1  0
 12 15  1  0
 17 18  1  0
 19 20  1  0
 21 22  1  0
 23 24  1  0
 25 26  1  0
M  CHG  1   8   1
M  END
>  <PDB_ID>  (65) 
pdb2au1

>  <RESIDUE_NAME>  (65) 
LYS   PHE

>  <FRAG_NAME>  (65) 
ETAM   MBZ

>  <FRAG_ATOM_NUM>  (65) 
fragi: 11  fragj: 15

>  <atom.prop.CHAIN_ID>  (65) 
A A A A A A A A A A A Z Z Z Z Z Z Z Z Z Z Z Z Z Z Z

>  <atom.prop.IS_HEAVY_ATOM>  (65) 
1 0 0 0 1 0 0 1 0 0 0 1 0 0 0 1 1 0 1 0 1 0 1 0 1 0

>  <DIFUSE_FUNC_ATOM>  (65) 
n/a

>  <FINAL_SINGLE_POINT_ENERGY>  (65) 
0

>  <NONCOV_INTER_ENERGY_QM>  (65) 
0

>  <FF_Energy>  (65) 
18.08

>  <QM_Energy>  (65) 
2.43

>  <source>  (65) 
ETAM_MBZ

>  <Index>  (65) 
586

$$$$
ETAM-pdb2aka-A-LYS-74:MBZ-pdb2aka-A-PHE-60
     RDKit          3D

 26 25  0  0  0  0  0  0  0  0999 V2000
   -0.3611   -1.0624    4.5595 C   0  0  0  0  0  0  0  0  0  0  0  0
   -0.5146   -0.9920    5.5406 H   0  0  0  0  0  0  0  0  0  0  0  0
   -0.5203   -1.9953    4.2518 H   0  0  0  0  0  0  0  0  0  0  0  0
   -1.0584   -0.3995    4.0469 H   0  0  0  0  0  0  0  0  0  0  0  0
    1.0855   -0.6942    4.2665 C   0  0  0  0  0  0  0  0  0  0  0  0
    1.2008    0.3037    4.4026 H   0  0  0  0  0  0  0  0  0  0  0  0
    1.6821   -1.1609    4.9406 H   0  0  0  0  0  0  0  0  0  0  0  0
    1.5397   -1.0489    2.8932 N   0  0  0  0  0  4  0  0  0  0  0  0
    1.7505   -0.2132    2.3876 H   0  0  0  0  0  0  0  0  0  0  0  0
    2.3580   -1.6199    2.9519 H   0  0  0  0  0  0  0  0  0  0  0  0
    0.8143   -1.5508    2.4241 H   0  0  0  0  0  0  0  0  0  0  0  0
   -0.0149    2.8781   -0.1077 C   0  0  0  0  0  0  0  0  0  0  0  0
   -0.9612    3.1823   -0.1118 H   0  0  0  0  0  0  0  0  0  0  0  0
    0.4341    3.1354   -0.9566 H   0  0  0  0  0  0  0  0  0  0  0  0
    0.4931    3.4023    0.7018 H   0  0  0  0  0  0  0  0  0  0  0  0
   -0.0009    1.3915   -0.0019 C   0  0  0  0  0  0  0  0  0  0  0  0
   -1.1954    0.6866    0.0018 C   0  0  0  0  0  0  0  0  0  0  0  0
   -2.0612    1.1832    0.0043 H   0  0  0  0  0  0  0  0  0  0  0  0
   -1.2013   -0.6907   -0.0000 C   0  0  0  0  0  0  0  0  0  0  0  0
   -2.0763   -1.1908    0.0020 H   0  0  0  0  0  0  0  0  0  0  0  0
    0.0000   -1.3857   -0.0024 C   0  0  0  0  0  0  0  0  0  0  0  0
   -0.0044   -2.3858   -0.0058 H   0  0  0  0  0  0  0  0  0  0  0  0
    1.2013   -0.6925    0.0000 C   0  0  0  0  0  0  0  0  0  0  0  0
    2.0812   -1.1938    0.0017 H   0  0  0  0  0  0  0  0  0  0  0  0
    1.1962    0.6907    0.0025 C   0  0  0  0  0  0  0  0  0  0  0  0
    2.0622    1.1909    0.0069 H   0  0  0  0  0  0  0  0  0  0  0  0
  1  5  1  0
  5  8  1  0
  1  2  1  0
  1  3  1  0
  1  4  1  0
  5  6  1  0
  5  7  1  0
  8  9  1  0
  8 10  1  0
  8 11  1  0
 12 16  1  0
 16 17  2  0
 17 19  1  0
 19 21  2  0
 21 23  1  0
 23 25  2  0
 25 16  1  0
 12 13  1  0
 12 14  1  0
 12 15  1  0
 17 18  1  0
 19 20  1  0
 21 22  1  0
 23 24  1  0
 25 26  1  0
M  CHG  1   8   1
M  END
>  <PDB_ID>  (66) 
pdb2aka

>  <RESIDUE_NAME>  (66) 
LYS   PHE

>  <FRAG_NAME>  (66) 
ETAM   MBZ

>  <FRAG_ATOM_NUM>  (66) 
fragi: 11  fragj: 15

>  <atom.prop.CHAIN_ID>  (66) 
A A A A A A A A A A A Z Z Z Z Z Z Z Z Z Z Z Z Z Z Z

>  <atom.prop.IS_HEAVY_ATOM>  (66) 
1 0 0 0 1 0 0 1 0 0 0 1 0 0 0 1 1 0 1 0 1 0 1 0 1 0

>  <DIFUSE_FUNC_ATOM>  (66) 
n/a

>  <FINAL_SINGLE_POINT_ENERGY>  (66) 
0

>  <NONCOV_INTER_ENERGY_QM>  (66) 
0

>  <FF_Energy>  (66) 
-4.87

>  <QM_Energy>  (66) 
-12.87

>  <source>  (66) 
ETAM_MBZ

>  <Index>  (66) 
593

$$$$
ETAM-pdb2ax3-A-LYS-79:MBZ-pdb2ax3-A-PHE-74
     RDKit          3D

 26 25  0  0  0  0  0  0  0  0999 V2000
   -0.6571   -2.1551   -4.0878 C   0  0  0  0  0  0  0  0  0  0  0  0
   -0.1059   -2.5744   -4.8008 H   0  0  0  0  0  0  0  0  0  0  0  0
   -1.5501   -1.9024   -4.4429 H   0  0  0  0  0  0  0  0  0  0  0  0
   -0.7895   -2.8731   -3.2784 H   0  0  0  0  0  0  0  0  0  0  0  0
    0.0437   -0.9077   -3.5985 C   0  0  0  0  0  0  0  0  0  0  0  0
    0.0047   -0.2031   -4.3075 H   0  0  0  0  0  0  0  0  0  0  0  0
   -0.4088   -0.5726   -2.7717 H   0  0  0  0  0  0  0  0  0  0  0  0
    1.4913   -1.1828   -3.2738 N   0  0  0  0  0  4  0  0  0  0  0  0
    1.5944   -2.1508   -3.0608 H   0  0  0  0  0  0  0  0  0  0  0  0
    2.0493   -0.9447   -4.0643 H   0  0  0  0  0  0  0  0  0  0  0  0
    1.7549   -0.6290   -2.4891 H   0  0  0  0  0  0  0  0  0  0  0  0
   -0.0289    2.8695    0.0717 C   0  0  0  0  0  0  0  0  0  0  0  0
   -0.6342    3.2237   -0.6149 H   0  0  0  0  0  0  0  0  0  0  0  0
    0.8868    3.2124   -0.0192 H   0  0  0  0  0  0  0  0  0  0  0  0
   -0.4033    3.2151    1.0353 H   0  0  0  0  0  0  0  0  0  0  0  0
   -0.0063    1.3954   -0.0148 C   0  0  0  0  0  0  0  0  0  0  0  0
   -1.2020    0.6902    0.0222 C   0  0  0  0  0  0  0  0  0  0  0  0
   -2.0654    1.1831    0.0634 H   0  0  0  0  0  0  0  0  0  0  0  0
   -1.2007   -0.6877    0.0000 C   0  0  0  0  0  0  0  0  0  0  0  0
   -2.0668   -1.1975   -0.0068 H   0  0  0  0  0  0  0  0  0  0  0  0
    0.0208   -1.3919   -0.0115 C   0  0  0  0  0  0  0  0  0  0  0  0
   -0.0001   -2.3899   -0.0286 H   0  0  0  0  0  0  0  0  0  0  0  0
    1.2007   -0.7012    0.0000 C   0  0  0  0  0  0  0  0  0  0  0  0
    2.0919   -1.1845    0.0071 H   0  0  0  0  0  0  0  0  0  0  0  0
    1.1876    0.6951    0.0041 C   0  0  0  0  0  0  0  0  0  0  0  0
    2.0563    1.1913    0.0200 H   0  0  0  0  0  0  0  0  0  0  0  0
  1  5  1  0
  5  8  1  0
  1  2  1  0
  1  3  1  0
  1  4  1  0
  5  6  1  0
  5  7  1  0
  8  9  1  0
  8 10  1  0
  8 11  1  0
 12 16  1  0
 16 17  2  0
 17 19  1  0
 19 21  2  0
 21 23  1  0
 23 25  2  0
 25 16  1  0
 12 13  1  0
 12 14  1  0
 12 15  1  0
 17 18  1  0
 19 20  1  0
 21 22  1  0
 23 24  1  0
 25 26  1  0
M  CHG  1   8   1
M  END
>  <PDB_ID>  (67) 
pdb2ax3

>  <RESIDUE_NAME>  (67) 
LYS   PHE

>  <FRAG_NAME>  (67) 
ETAM   MBZ

>  <FRAG_ATOM_NUM>  (67) 
fragi: 11  fragj: 15

>  <atom.prop.CHAIN_ID>  (67) 
A A A A A A A A A A A Z Z Z Z Z Z Z Z Z Z Z Z Z Z Z

>  <atom.prop.IS_HEAVY_ATOM>  (67) 
1 0 0 0 1 0 0 1 0 0 0 1 0 0 0 1 1 0 1 0 1 0 1 0 1 0

>  <DIFUSE_FUNC_ATOM>  (67) 
n/a

>  <FINAL_SINGLE_POINT_ENERGY>  (67) 
0

>  <NONCOV_INTER_ENERGY_QM>  (67) 
0

>  <FF_Energy>  (67) 
-6.31

>  <QM_Energy>  (67) 
-13.75

>  <source>  (67) 
ETAM_MBZ

>  <Index>  (67) 
601

$$$$
ETAM-pdb2ax4-B-HIP-34:MBZ-pdb2ax4-A-PHE-70
     RDKit          3D

 26 25  0  0  0  0  0  0  0  0999 V2000
   -5.2107    0.5883   -3.4999 C   0  0  0  0  0  0  0  0  0  0  0  0
   -5.0685    0.0339   -4.3233 H   0  0  0  0  0  0  0  0  0  0  0  0
   -6.1062    0.3652   -3.1079 H   0  0  0  0  0  0  0  0  0  0  0  0
   -5.2056    1.6412   -3.7819 H   0  0  0  0  0  0  0  0  0  0  0  0
   -4.1232    0.2376   -2.4750 C   0  0  0  0  0  0  0  0  0  0  0  0
   -4.2054    0.9644   -1.7680 H   0  0  0  0  0  0  0  0  0  0  0  0
   -4.3453   -0.7263   -2.0170 H   0  0  0  0  0  0  0  0  0  0  0  0
   -2.7510    0.3354   -3.0489 N   0  0  0  0  0  4  0  0  0  0  0  0
   -2.5138   -0.5315   -3.4799 H   0  0  0  0  0  0  0  0  0  0  0  0
   -2.7311    1.0658   -3.7273 H   0  0  0  0  0  0  0  0  0  0  0  0
   -2.1050    0.5363   -2.3171 H   0  0  0  0  0  0  0  0  0  0  0  0
    0.0019    2.9441   -0.0091 C   0  0  0  0  0  0  0  0  0  0  0  0
   -0.2702    3.2411   -0.9117 H   0  0  0  0  0  0  0  0  0  0  0  0
    0.9161    3.2491    0.2107 H   0  0  0  0  0  0  0  0  0  0  0  0
   -0.6817    3.3939    0.7110 H   0  0  0  0  0  0  0  0  0  0  0  0
    0.0018    1.4324    0.0008 C   0  0  0  0  0  0  0  0  0  0  0  0
   -1.2073    0.7027   -0.0035 C   0  0  0  0  0  0  0  0  0  0  0  0
   -2.0738    1.1852   -0.0102 H   0  0  0  0  0  0  0  0  0  0  0  0
   -1.2145   -0.7163    0.0000 C   0  0  0  0  0  0  0  0  0  0  0  0
   -2.0885   -1.1994    0.0073 H   0  0  0  0  0  0  0  0  0  0  0  0
   -0.0010   -1.4225   -0.0045 C   0  0  0  0  0  0  0  0  0  0  0  0
   -0.0013   -2.4128   -0.0115 H   0  0  0  0  0  0  0  0  0  0  0  0
    1.2145   -0.7114   -0.0000 C   0  0  0  0  0  0  0  0  0  0  0  0
    2.0934   -1.1952   -0.0008 H   0  0  0  0  0  0  0  0  0  0  0  0
    1.2065    0.7150    0.0072 C   0  0  0  0  0  0  0  0  0  0  0  0
    2.0752    1.1988    0.0162 H   0  0  0  0  0  0  0  0  0  0  0  0
  1  5  1  0
  5  8  1  0
  1  2  1  0
  1  3  1  0
  1  4  1  0
  5  6  1  0
  5  7  1  0
  8  9  1  0
  8 10  1  0
  8 11  1  0
 12 16  1  0
 16 17  2  0
 17 19  1  0
 19 21  2  0
 21 23  1  0
 23 25  2  0
 25 16  1  0
 12 13  1  0
 12 14  1  0
 12 15  1  0
 17 18  1  0
 19 20  1  0
 21 22  1  0
 23 24  1  0
 25 26  1  0
M  CHG  1   8   1
M  END
>  <PDB_ID>  (68) 
pdb2ax4

>  <RESIDUE_NAME>  (68) 
HIP   PHE

>  <FRAG_NAME>  (68) 
ETAM   MBZ

>  <FRAG_ATOM_NUM>  (68) 
fragi: 11  fragj: 15

>  <atom.prop.CHAIN_ID>  (68) 
A A A A A A A A A A A Z Z Z Z Z Z Z Z Z Z Z Z Z Z Z

>  <atom.prop.IS_HEAVY_ATOM>  (68) 
1 0 0 0 1 0 0 1 0 0 0 1 0 0 0 1 1 0 1 0 1 0 1 0 1 0

>  <DIFUSE_FUNC_ATOM>  (68) 
n/a

>  <FINAL_SINGLE_POINT_ENERGY>  (68) 
0

>  <NONCOV_INTER_ENERGY_QM>  (68) 
0

>  <FF_Energy>  (68) 
-4.06

>  <QM_Energy>  (68) 
-10.67

>  <source>  (68) 
ETAM_MBZ

>  <Index>  (68) 
602

$$$$
ETAM-pdb1amh-A-LYS-60:MBZ-pdb1amh-A-PHE-41
     RDKit          3D

 26 25  0  0  0  0  0  0  0  0999 V2000
    0.2211   -1.2617    3.4268 C   0  0  0  0  0  0  0  0  0  0  0  0
   -0.2068   -1.3793    2.5323 H   0  0  0  0  0  0  0  0  0  0  0  0
   -0.4773   -1.2722    4.1402 H   0  0  0  0  0  0  0  0  0  0  0  0
    0.9094   -2.0897    3.5967 H   0  0  0  0  0  0  0  0  0  0  0  0
    0.9157    0.1034    3.4532 C   0  0  0  0  0  0  0  0  0  0  0  0
    1.3510    0.2180    4.3566 H   0  0  0  0  0  0  0  0  0  0  0  0
    1.6458    0.0991    2.7558 H   0  0  0  0  0  0  0  0  0  0  0  0
   -0.0033    1.2219    3.2007 N   0  0  0  0  0  4  0  0  0  0  0  0
    0.1130    1.9244    3.9071 H   0  0  0  0  0  0  0  0  0  0  0  0
    0.1884    1.6253    2.3024 H   0  0  0  0  0  0  0  0  0  0  0  0
   -0.9512    0.8947    3.2171 H   0  0  0  0  0  0  0  0  0  0  0  0
    0.0067    2.9131    0.0774 C   0  0  0  0  0  0  0  0  0  0  0  0
    0.8410    3.1932    0.5329 H   0  0  0  0  0  0  0  0  0  0  0  0
   -0.7907    3.1954    0.5934 H   0  0  0  0  0  0  0  0  0  0  0  0
   -0.0288    3.4170   -0.8885 H   0  0  0  0  0  0  0  0  0  0  0  0
    0.0017    1.4089   -0.0003 C   0  0  0  0  0  0  0  0  0  0  0  0
   -1.1923    0.7022   -0.0008 C   0  0  0  0  0  0  0  0  0  0  0  0
   -2.0612    1.1851   -0.0034 H   0  0  0  0  0  0  0  0  0  0  0  0
   -1.1970   -0.7009   -0.0000 C   0  0  0  0  0  0  0  0  0  0  0  0
   -2.0806   -1.1847   -0.0003 H   0  0  0  0  0  0  0  0  0  0  0  0
   -0.0064   -1.3990    0.0025 C   0  0  0  0  0  0  0  0  0  0  0  0
   -0.0100   -2.3986    0.0055 H   0  0  0  0  0  0  0  0  0  0  0  0
    1.1970   -0.7061   -0.0000 C   0  0  0  0  0  0  0  0  0  0  0  0
    2.0772   -1.2015    0.0002 H   0  0  0  0  0  0  0  0  0  0  0  0
    1.1971    0.6949   -0.0014 C   0  0  0  0  0  0  0  0  0  0  0  0
    2.0674    1.1836   -0.0040 H   0  0  0  0  0  0  0  0  0  0  0  0
  1  5  1  0
  5  8  1  0
  1  2  1  0
  1  3  1  0
  1  4  1  0
  5  6  1  0
  5  7  1  0
  8  9  1  0
  8 10  1  0
  8 11  1  0
 12 16  1  0
 16 17  2  0
 17 19  1  0
 19 21  2  0
 21 23  1  0
 23 25  2  0
 25 16  1  0
 12 13  1  0
 12 14  1  0
 12 15  1  0
 17 18  1  0
 19 20  1  0
 21 22  1  0
 23 24  1  0
 25 26  1  0
M  CHG  1   8   1
M  END
>  <PDB_ID>  (69) 
pdb1amh

>  <RESIDUE_NAME>  (69) 
LYS   PHE

>  <FRAG_NAME>  (69) 
ETAM   MBZ

>  <FRAG_ATOM_NUM>  (69) 
fragi: 11  fragj: 15

>  <atom.prop.CHAIN_ID>  (69) 
A A A A A A A A A A A Z Z Z Z Z Z Z Z Z Z Z Z Z Z Z

>  <atom.prop.IS_HEAVY_ATOM>  (69) 
1 0 0 0 1 0 0 1 0 0 0 1 0 0 0 1 1 0 1 0 1 0 1 0 1 0

>  <DIFUSE_FUNC_ATOM>  (69) 
n/a

>  <FINAL_SINGLE_POINT_ENERGY>  (69) 
0

>  <NONCOV_INTER_ENERGY_QM>  (69) 
0

>  <FF_Energy>  (69) 
-7.93

>  <QM_Energy>  (69) 
-14.49

>  <source>  (69) 
ETAM_MBZ

>  <Index>  (69) 
606

$$$$
ETAM-pdb1amh-B-LYS-60:MBZ-pdb1amh-B-PHE-41
     RDKit          3D

 26 25  0  0  0  0  0  0  0  0999 V2000
    0.5520   -0.8482    3.8282 C   0  0  0  0  0  0  0  0  0  0  0  0
   -0.2367   -0.8853    3.2168 H   0  0  0  0  0  0  0  0  0  0  0  0
    0.2473   -0.9255    4.7758 H   0  0  0  0  0  0  0  0  0  0  0  0
    1.2080   -1.6888    3.6022 H   0  0  0  0  0  0  0  0  0  0  0  0
    1.2369    0.5103    3.6509 C   0  0  0  0  0  0  0  0  0  0  0  0
    1.7935    0.6925    4.4734 H   0  0  0  0  0  0  0  0  0  0  0  0
    1.8628    0.4480    2.8609 H   0  0  0  0  0  0  0  0  0  0  0  0
    0.2858    1.6123    3.4420 N   0  0  0  0  0  4  0  0  0  0  0  0
    0.5166    2.3799    4.0448 H   0  0  0  0  0  0  0  0  0  0  0  0
    0.3254    1.9200    2.4889 H   0  0  0  0  0  0  0  0  0  0  0  0
   -0.6452    1.3025    3.6472 H   0  0  0  0  0  0  0  0  0  0  0  0
    0.0016    2.9261    0.0153 C   0  0  0  0  0  0  0  0  0  0  0  0
    0.8742    3.2173    0.3793 H   0  0  0  0  0  0  0  0  0  0  0  0
   -0.7438    3.2168    0.5968 H   0  0  0  0  0  0  0  0  0  0  0  0
   -0.1300    3.3930   -0.9608 H   0  0  0  0  0  0  0  0  0  0  0  0
   -0.0005    1.3981   -0.0003 C   0  0  0  0  0  0  0  0  0  0  0  0
   -1.2126    0.6996    0.0006 C   0  0  0  0  0  0  0  0  0  0  0  0
   -2.0696    1.1890   -0.0001 H   0  0  0  0  0  0  0  0  0  0  0  0
   -1.2131   -0.6994    0.0000 C   0  0  0  0  0  0  0  0  0  0  0  0
   -2.0852   -1.1956    0.0005 H   0  0  0  0  0  0  0  0  0  0  0  0
   -0.0000   -1.3993    0.0003 C   0  0  0  0  0  0  0  0  0  0  0  0
   -0.0037   -2.3959    0.0005 H   0  0  0  0  0  0  0  0  0  0  0  0
    1.2131   -0.6994   -0.0000 C   0  0  0  0  0  0  0  0  0  0  0  0
    2.0892   -1.1997    0.0014 H   0  0  0  0  0  0  0  0  0  0  0  0
    1.2131    0.7003   -0.0006 C   0  0  0  0  0  0  0  0  0  0  0  0
    2.0704    1.1960   -0.0023 H   0  0  0  0  0  0  0  0  0  0  0  0
  1  5  1  0
  5  8  1  0
  1  2  1  0
  1  3  1  0
  1  4  1  0
  5  6  1  0
  5  7  1  0
  8  9  1  0
  8 10  1  0
  8 11  1  0
 12 16  1  0
 16 17  2  0
 17 19  1  0
 19 21  2  0
 21 23  1  0
 23 25  2  0
 25 16  1  0
 12 13  1  0
 12 14  1  0
 12 15  1  0
 17 18  1  0
 19 20  1  0
 21 22  1  0
 23 24  1  0
 25 26  1  0
M  CHG  1   8   1
M  END
>  <PDB_ID>  (70) 
pdb1amh

>  <RESIDUE_NAME>  (70) 
LYS   PHE

>  <FRAG_NAME>  (70) 
ETAM   MBZ

>  <FRAG_ATOM_NUM>  (70) 
fragi: 11  fragj: 15

>  <atom.prop.CHAIN_ID>  (70) 
A A A A A A A A A A A Z Z Z Z Z Z Z Z Z Z Z Z Z Z Z

>  <atom.prop.IS_HEAVY_ATOM>  (70) 
1 0 0 0 1 0 0 1 0 0 0 1 0 0 0 1 1 0 1 0 1 0 1 0 1 0

>  <DIFUSE_FUNC_ATOM>  (70) 
n/a

>  <FINAL_SINGLE_POINT_ENERGY>  (70) 
0

>  <NONCOV_INTER_ENERGY_QM>  (70) 
0

>  <FF_Energy>  (70) 
-7.83

>  <QM_Energy>  (70) 
-13.21

>  <source>  (70) 
ETAM_MBZ

>  <Index>  (70) 
607

$$$$
ETAM-pdb1an1-E-LYS-60:MBZ-pdb1an1-E-PHE-41
     RDKit          3D

 26 25  0  0  0  0  0  0  0  0999 V2000
    3.9038    0.7815   -4.1261 C   0  0  0  0  0  0  0  0  0  0  0  0
    3.9432   -0.1286   -3.7313 H   0  0  0  0  0  0  0  0  0  0  0  0
    4.7722    1.2495   -4.0128 H   0  0  0  0  0  0  0  0  0  0  0  0
    3.7027    0.6840   -5.1929 H   0  0  0  0  0  0  0  0  0  0  0  0
    2.8127    1.5890   -3.3853 C   0  0  0  0  0  0  0  0  0  0  0  0
    2.6689    2.4568   -3.8873 H   0  0  0  0  0  0  0  0  0  0  0  0
    1.9474    1.0652   -3.4324 H   0  0  0  0  0  0  0  0  0  0  0  0
    3.1248    1.8939   -1.9573 N   0  0  0  0  0  4  0  0  0  0  0  0
    3.5106    1.0802   -1.5239 H   0  0  0  0  0  0  0  0  0  0  0  0
    3.7856    2.6415   -1.9171 H   0  0  0  0  0  0  0  0  0  0  0  0
    2.2851    2.1608   -1.4861 H   0  0  0  0  0  0  0  0  0  0  0  0
    0.0235    2.9172    0.0294 C   0  0  0  0  0  0  0  0  0  0  0  0
   -0.2655    3.2453   -0.8609 H   0  0  0  0  0  0  0  0  0  0  0  0
    0.9535    3.2013    0.2242 H   0  0  0  0  0  0  0  0  0  0  0  0
   -0.6272    3.3678    0.7788 H   0  0  0  0  0  0  0  0  0  0  0  0
   -0.0048    1.4156    0.0012 C   0  0  0  0  0  0  0  0  0  0  0  0
   -1.2022    0.7166   -0.0023 C   0  0  0  0  0  0  0  0  0  0  0  0
   -2.0689    1.1966   -0.0075 H   0  0  0  0  0  0  0  0  0  0  0  0
   -1.2091   -0.6980    0.0000 C   0  0  0  0  0  0  0  0  0  0  0  0
   -2.0821   -1.1850    0.0010 H   0  0  0  0  0  0  0  0  0  0  0  0
    0.0080   -1.4116    0.0027 C   0  0  0  0  0  0  0  0  0  0  0  0
   -0.0082   -2.4035    0.0056 H   0  0  0  0  0  0  0  0  0  0  0  0
    1.2091   -0.7136   -0.0000 C   0  0  0  0  0  0  0  0  0  0  0  0
    2.0913   -1.2023    0.0002 H   0  0  0  0  0  0  0  0  0  0  0  0
    1.1990    0.6910   -0.0016 C   0  0  0  0  0  0  0  0  0  0  0  0
    2.0677    1.1858   -0.0050 H   0  0  0  0  0  0  0  0  0  0  0  0
  1  5  1  0
  5  8  1  0
  1  2  1  0
  1  3  1  0
  1  4  1  0
  5  6  1  0
  5  7  1  0
  8  9  1  0
  8 10  1  0
  8 11  1  0
 12 16  1  0
 16 17  2  0
 17 19  1  0
 19 21  2  0
 21 23  1  0
 23 25  2  0
 25 16  1  0
 12 13  1  0
 12 14  1  0
 12 15  1  0
 17 18  1  0
 19 20  1  0
 21 22  1  0
 23 24  1  0
 25 26  1  0
M  CHG  1   8   1
M  END
>  <PDB_ID>  (71) 
pdb1an1

>  <RESIDUE_NAME>  (71) 
LYS   PHE

>  <FRAG_NAME>  (71) 
ETAM   MBZ

>  <FRAG_ATOM_NUM>  (71) 
fragi: 11  fragj: 15

>  <atom.prop.CHAIN_ID>  (71) 
A A A A A A A A A A A Z Z Z Z Z Z Z Z Z Z Z Z Z Z Z

>  <atom.prop.IS_HEAVY_ATOM>  (71) 
1 0 0 0 1 0 0 1 0 0 0 1 0 0 0 1 1 0 1 0 1 0 1 0 1 0

>  <DIFUSE_FUNC_ATOM>  (71) 
n/a

>  <FINAL_SINGLE_POINT_ENERGY>  (71) 
0

>  <NONCOV_INTER_ENERGY_QM>  (71) 
0

>  <FF_Energy>  (71) 
1.93

>  <QM_Energy>  (71) 
-4.72

>  <source>  (71) 
ETAM_MBZ

>  <Index>  (71) 
613

$$$$
ETAM-pdb2b0c-A-LYS-7:MBZ-pdb2b0c-A-PHE-163
     RDKit          3D

 26 25  0  0  0  0  0  0  0  0999 V2000
   -1.1399   -4.7894   -2.1588 C   0  0  0  0  0  0  0  0  0  0  0  0
   -1.3143   -5.7188   -2.4639 H   0  0  0  0  0  0  0  0  0  0  0  0
   -0.6637   -4.2756   -2.8637 H   0  0  0  0  0  0  0  0  0  0  0  0
   -2.0962   -4.3049   -1.9619 H   0  0  0  0  0  0  0  0  0  0  0  0
   -0.2404   -4.8484   -0.9080 C   0  0  0  0  0  0  0  0  0  0  0  0
   -0.1030   -3.9121   -0.5697 H   0  0  0  0  0  0  0  0  0  0  0  0
   -0.7138   -5.3803   -0.1986 H   0  0  0  0  0  0  0  0  0  0  0  0
    1.0995   -5.4741   -1.1776 N   0  0  0  0  0  4  0  0  0  0  0  0
    1.7393   -5.1877   -0.4688 H   0  0  0  0  0  0  0  0  0  0  0  0
    1.0015   -6.4669   -1.1676 H   0  0  0  0  0  0  0  0  0  0  0  0
    1.4238   -5.1728   -2.0714 H   0  0  0  0  0  0  0  0  0  0  0  0
   -0.0043    2.9110    0.0054 C   0  0  0  0  0  0  0  0  0  0  0  0
    0.6923    3.2157    0.6388 H   0  0  0  0  0  0  0  0  0  0  0  0
   -0.9034    3.2151    0.2894 H   0  0  0  0  0  0  0  0  0  0  0  0
    0.2072    3.3653   -0.9626 H   0  0  0  0  0  0  0  0  0  0  0  0
   -0.0012    1.4075   -0.0034 C   0  0  0  0  0  0  0  0  0  0  0  0
   -1.1975    0.7028    0.0014 C   0  0  0  0  0  0  0  0  0  0  0  0
   -2.0644    1.1897    0.0045 H   0  0  0  0  0  0  0  0  0  0  0  0
   -1.2069   -0.6987   -0.0000 C   0  0  0  0  0  0  0  0  0  0  0  0
   -2.0824   -1.1872    0.0025 H   0  0  0  0  0  0  0  0  0  0  0  0
    0.0004   -1.4027   -0.0024 C   0  0  0  0  0  0  0  0  0  0  0  0
   -0.0074   -2.3984   -0.0062 H   0  0  0  0  0  0  0  0  0  0  0  0
    1.2069   -0.7049   -0.0000 C   0  0  0  0  0  0  0  0  0  0  0  0
    2.0858   -1.1980    0.0004 H   0  0  0  0  0  0  0  0  0  0  0  0
    1.1983    0.6960    0.0044 C   0  0  0  0  0  0  0  0  0  0  0  0
    2.0669    1.1905    0.0122 H   0  0  0  0  0  0  0  0  0  0  0  0
  1  5  1  0
  5  8  1  0
  1  2  1  0
  1  3  1  0
  1  4  1  0
  5  6  1  0
  5  7  1  0
  8  9  1  0
  8 10  1  0
  8 11  1  0
 12 16  1  0
 16 17  2  0
 17 19  1  0
 19 21  2  0
 21 23  1  0
 23 25  2  0
 25 16  1  0
 12 13  1  0
 12 14  1  0
 12 15  1  0
 17 18  1  0
 19 20  1  0
 21 22  1  0
 23 24  1  0
 25 26  1  0
M  CHG  1   8   1
M  END
>  <PDB_ID>  (72) 
pdb2b0c

>  <RESIDUE_NAME>  (72) 
LYS   PHE

>  <FRAG_NAME>  (72) 
ETAM   MBZ

>  <FRAG_ATOM_NUM>  (72) 
fragi: 11  fragj: 15

>  <atom.prop.CHAIN_ID>  (72) 
A A A A A A A A A A A Z Z Z Z Z Z Z Z Z Z Z Z Z Z Z

>  <atom.prop.IS_HEAVY_ATOM>  (72) 
1 0 0 0 1 0 0 1 0 0 0 1 0 0 0 1 1 0 1 0 1 0 1 0 1 0

>  <DIFUSE_FUNC_ATOM>  (72) 
n/a

>  <FINAL_SINGLE_POINT_ENERGY>  (72) 
0

>  <NONCOV_INTER_ENERGY_QM>  (72) 
0

>  <FF_Energy>  (72) 
14.8

>  <QM_Energy>  (72) 
-0.22

>  <source>  (72) 
ETAM_MBZ

>  <Index>  (72) 
624

$$$$
ETAM-pdb2ax4-D-HIP-34:MBZ-pdb2ax4-C-PHE-70
     RDKit          3D

 26 25  0  0  0  0  0  0  0  0999 V2000
   -5.3983    0.2996   -3.0273 C   0  0  0  0  0  0  0  0  0  0  0  0
   -5.2831   -0.2569   -3.8547 H   0  0  0  0  0  0  0  0  0  0  0  0
   -6.2410    0.0177   -2.5607 H   0  0  0  0  0  0  0  0  0  0  0  0
   -5.5043    1.3423   -3.3265 H   0  0  0  0  0  0  0  0  0  0  0  0
   -4.2121    0.0661   -2.0991 C   0  0  0  0  0  0  0  0  0  0  0  0
   -4.3291    0.7810   -1.3715 H   0  0  0  0  0  0  0  0  0  0  0  0
   -4.3033   -0.9163   -1.6359 H   0  0  0  0  0  0  0  0  0  0  0  0
   -2.9162    0.3777   -2.8073 N   0  0  0  0  0  4  0  0  0  0  0  0
   -2.5736   -0.4573   -3.2235 H   0  0  0  0  0  0  0  0  0  0  0  0
   -3.0924    1.0634   -3.5048 H   0  0  0  0  0  0  0  0  0  0  0  0
   -2.2648    0.7238   -2.1403 H   0  0  0  0  0  0  0  0  0  0  0  0
   -0.0010    2.9392    0.0043 C   0  0  0  0  0  0  0  0  0  0  0  0
   -0.3069    3.2479   -0.8792 H   0  0  0  0  0  0  0  0  0  0  0  0
    0.9130    3.2430    0.2061 H   0  0  0  0  0  0  0  0  0  0  0  0
   -0.6670    3.3659    0.7542 H   0  0  0  0  0  0  0  0  0  0  0  0
    0.0035    1.4218   -0.0070 C   0  0  0  0  0  0  0  0  0  0  0  0
   -1.2074    0.6981   -0.0071 C   0  0  0  0  0  0  0  0  0  0  0  0
   -2.0698    1.1929   -0.0138 H   0  0  0  0  0  0  0  0  0  0  0  0
   -1.2187   -0.7004    0.0000 C   0  0  0  0  0  0  0  0  0  0  0  0
   -2.0925   -1.1910   -0.0038 H   0  0  0  0  0  0  0  0  0  0  0  0
   -0.0085   -1.4089    0.0147 C   0  0  0  0  0  0  0  0  0  0  0  0
   -0.0165   -2.4041    0.0347 H   0  0  0  0  0  0  0  0  0  0  0  0
    1.2187   -0.7151   -0.0000 C   0  0  0  0  0  0  0  0  0  0  0  0
    2.0875   -1.2071   -0.0089 H   0  0  0  0  0  0  0  0  0  0  0  0
    1.2124    0.7045   -0.0006 C   0  0  0  0  0  0  0  0  0  0  0  0
    2.0782    1.1924    0.0028 H   0  0  0  0  0  0  0  0  0  0  0  0
  1  5  1  0
  5  8  1  0
  1  2  1  0
  1  3  1  0
  1  4  1  0
  5  6  1  0
  5  7  1  0
  8  9  1  0
  8 10  1  0
  8 11  1  0
 12 16  1  0
 16 17  2  0
 17 19  1  0
 19 21  2  0
 21 23  1  0
 23 25  2  0
 25 16  1  0
 12 13  1  0
 12 14  1  0
 12 15  1  0
 17 18  1  0
 19 20  1  0
 21 22  1  0
 23 24  1  0
 25 26  1  0
M  CHG  1   8   1
M  END
>  <PDB_ID>  (73) 
pdb2ax4

>  <RESIDUE_NAME>  (73) 
HIP   PHE

>  <FRAG_NAME>  (73) 
ETAM   MBZ

>  <FRAG_ATOM_NUM>  (73) 
fragi: 11  fragj: 15

>  <atom.prop.CHAIN_ID>  (73) 
A A A A A A A A A A A Z Z Z Z Z Z Z Z Z Z Z Z Z Z Z

>  <atom.prop.IS_HEAVY_ATOM>  (73) 
1 0 0 0 1 0 0 1 0 0 0 1 0 0 0 1 1 0 1 0 1 0 1 0 1 0

>  <DIFUSE_FUNC_ATOM>  (73) 
n/a

>  <FINAL_SINGLE_POINT_ENERGY>  (73) 
0

>  <NONCOV_INTER_ENERGY_QM>  (73) 
0

>  <FF_Energy>  (73) 
-3.43

>  <QM_Energy>  (73) 
-10.18

>  <source>  (73) 
ETAM_MBZ

>  <Index>  (73) 
655

$$$$
ETAM-pdb1apx-A-LYS-122:MBZ-pdb1apx-A-PHE-57
     RDKit          3D

 26 25  0  0  0  0  0  0  0  0999 V2000
    0.4001    2.3529    3.8169 C   0  0  0  0  0  0  0  0  0  0  0  0
    0.9572    2.3158    3.0028 H   0  0  0  0  0  0  0  0  0  0  0  0
    0.9476    2.4889    4.6268 H   0  0  0  0  0  0  0  0  0  0  0  0
   -0.3199    3.1661    3.7256 H   0  0  0  0  0  0  0  0  0  0  0  0
   -0.3452    1.0312    3.9537 C   0  0  0  0  0  0  0  0  0  0  0  0
   -0.8232    1.0206    4.8451 H   0  0  0  0  0  0  0  0  0  0  0  0
   -1.0489    0.9803    3.2288 H   0  0  0  0  0  0  0  0  0  0  0  0
    0.5347   -0.1652    3.8604 N   0  0  0  0  0  4  0  0  0  0  0  0
   -0.0276   -0.9810    3.7295 H   0  0  0  0  0  0  0  0  0  0  0  0
    1.1567   -0.0597    3.0852 H   0  0  0  0  0  0  0  0  0  0  0  0
    1.0631   -0.2549    4.7034 H   0  0  0  0  0  0  0  0  0  0  0  0
   -0.0054    2.9057   -0.1354 C   0  0  0  0  0  0  0  0  0  0  0  0
    0.8851    3.2413    0.1173 H   0  0  0  0  0  0  0  0  0  0  0  0
   -0.7142    3.2661    0.4451 H   0  0  0  0  0  0  0  0  0  0  0  0
   -0.2086    3.2412   -1.1524 H   0  0  0  0  0  0  0  0  0  0  0  0
   -0.0020    1.4110   -0.0018 C   0  0  0  0  0  0  0  0  0  0  0  0
   -1.1989    0.7006    0.0024 C   0  0  0  0  0  0  0  0  0  0  0  0
   -2.0675    1.1834    0.0062 H   0  0  0  0  0  0  0  0  0  0  0  0
   -1.2057   -0.7067   -0.0000 C   0  0  0  0  0  0  0  0  0  0  0  0
   -2.0796   -1.1939    0.0014 H   0  0  0  0  0  0  0  0  0  0  0  0
    0.0032   -1.4056   -0.0029 C   0  0  0  0  0  0  0  0  0  0  0  0
    0.0007   -2.4015   -0.0076 H   0  0  0  0  0  0  0  0  0  0  0  0
    1.2057   -0.7018   -0.0000 C   0  0  0  0  0  0  0  0  0  0  0  0
    2.0881   -1.1917    0.0021 H   0  0  0  0  0  0  0  0  0  0  0  0
    1.1976    0.7025    0.0022 C   0  0  0  0  0  0  0  0  0  0  0  0
    2.0660    1.1953    0.0062 H   0  0  0  0  0  0  0  0  0  0  0  0
  1  5  1  0
  5  8  1  0
  1  2  1  0
  1  3  1  0
  1  4  1  0
  5  6  1  0
  5  7  1  0
  8  9  1  0
  8 10  1  0
  8 11  1  0
 12 16  1  0
 16 17  2  0
 17 19  1  0
 19 21  2  0
 21 23  1  0
 23 25  2  0
 25 16  1  0
 12 13  1  0
 12 14  1  0
 12 15  1  0
 17 18  1  0
 19 20  1  0
 21 22  1  0
 23 24  1  0
 25 26  1  0
M  CHG  1   8   1
M  END
>  <PDB_ID>  (74) 
pdb1apx

>  <RESIDUE_NAME>  (74) 
LYS   PHE

>  <FRAG_NAME>  (74) 
ETAM   MBZ

>  <FRAG_ATOM_NUM>  (74) 
fragi: 11  fragj: 15

>  <atom.prop.CHAIN_ID>  (74) 
A A A A A A A A A A A Z Z Z Z Z Z Z Z Z Z Z Z Z Z Z

>  <atom.prop.IS_HEAVY_ATOM>  (74) 
1 0 0 0 1 0 0 1 0 0 0 1 0 0 0 1 1 0 1 0 1 0 1 0 1 0

>  <DIFUSE_FUNC_ATOM>  (74) 
n/a

>  <FINAL_SINGLE_POINT_ENERGY>  (74) 
0

>  <NONCOV_INTER_ENERGY_QM>  (74) 
0

>  <FF_Energy>  (74) 
-7.31

>  <QM_Energy>  (74) 
-12.36

>  <source>  (74) 
ETAM_MBZ

>  <Index>  (74) 
682

$$$$
ETAM-pdb1apx-B-LYS-122:MBZ-pdb1apx-B-PHE-57
     RDKit          3D

 26 25  0  0  0  0  0  0  0  0999 V2000
    0.8089    2.5061    3.5396 C   0  0  0  0  0  0  0  0  0  0  0  0
    0.9419    2.5145    2.5602 H   0  0  0  0  0  0  0  0  0  0  0  0
    1.6696    2.5804    4.0205 H   0  0  0  0  0  0  0  0  0  0  0  0
    0.1625    3.3364    3.8240 H   0  0  0  0  0  0  0  0  0  0  0  0
    0.1496    1.1972    3.9269 C   0  0  0  0  0  0  0  0  0  0  0  0
    0.7278    0.4349    3.6197 H   0  0  0  0  0  0  0  0  0  0  0  0
    0.0678    1.1539    4.9281 H   0  0  0  0  0  0  0  0  0  0  0  0
   -1.2082    1.0494    3.3233 N   0  0  0  0  0  4  0  0  0  0  0  0
   -1.5063    0.1005    3.4133 H   0  0  0  0  0  0  0  0  0  0  0  0
   -1.8477    1.6502    3.8010 H   0  0  0  0  0  0  0  0  0  0  0  0
   -1.1679    1.3001    2.3570 H   0  0  0  0  0  0  0  0  0  0  0  0
   -0.0078    2.9178   -0.0946 C   0  0  0  0  0  0  0  0  0  0  0  0
    0.9073    3.2373    0.0757 H   0  0  0  0  0  0  0  0  0  0  0  0
   -0.6488    3.2613    0.5688 H   0  0  0  0  0  0  0  0  0  0  0  0
   -0.3130    3.2848   -1.0746 H   0  0  0  0  0  0  0  0  0  0  0  0
   -0.0014    1.4111   -0.0009 C   0  0  0  0  0  0  0  0  0  0  0  0
   -1.1982    0.6943    0.0015 C   0  0  0  0  0  0  0  0  0  0  0  0
   -2.0672    1.1819    0.0035 H   0  0  0  0  0  0  0  0  0  0  0  0
   -1.2046   -0.7034    0.0000 C   0  0  0  0  0  0  0  0  0  0  0  0
   -2.0810   -1.1938    0.0017 H   0  0  0  0  0  0  0  0  0  0  0  0
   -0.0009   -1.4020   -0.0026 C   0  0  0  0  0  0  0  0  0  0  0  0
   -0.0038   -2.3990   -0.0064 H   0  0  0  0  0  0  0  0  0  0  0  0
    1.2046   -0.7030   -0.0000 C   0  0  0  0  0  0  0  0  0  0  0  0
    2.0848   -1.1951    0.0022 H   0  0  0  0  0  0  0  0  0  0  0  0
    1.2006    0.7031    0.0020 C   0  0  0  0  0  0  0  0  0  0  0  0
    2.0675    1.1934    0.0047 H   0  0  0  0  0  0  0  0  0  0  0  0
  1  5  1  0
  5  8  1  0
  1  2  1  0
  1  3  1  0
  1  4  1  0
  5  6  1  0
  5  7  1  0
  8  9  1  0
  8 10  1  0
  8 11  1  0
 12 16  1  0
 16 17  2  0
 17 19  1  0
 19 21  2  0
 21 23  1  0
 23 25  2  0
 25 16  1  0
 12 13  1  0
 12 14  1  0
 12 15  1  0
 17 18  1  0
 19 20  1  0
 21 22  1  0
 23 24  1  0
 25 26  1  0
M  CHG  1   8   1
M  END
>  <PDB_ID>  (75) 
pdb1apx

>  <RESIDUE_NAME>  (75) 
LYS   PHE

>  <FRAG_NAME>  (75) 
ETAM   MBZ

>  <FRAG_ATOM_NUM>  (75) 
fragi: 11  fragj: 15

>  <atom.prop.CHAIN_ID>  (75) 
A A A A A A A A A A A Z Z Z Z Z Z Z Z Z Z Z Z Z Z Z

>  <atom.prop.IS_HEAVY_ATOM>  (75) 
1 0 0 0 1 0 0 1 0 0 0 1 0 0 0 1 1 0 1 0 1 0 1 0 1 0

>  <DIFUSE_FUNC_ATOM>  (75) 
n/a

>  <FINAL_SINGLE_POINT_ENERGY>  (75) 
0

>  <NONCOV_INTER_ENERGY_QM>  (75) 
0

>  <FF_Energy>  (75) 
-7.63

>  <QM_Energy>  (75) 
-13.91

>  <source>  (75) 
ETAM_MBZ

>  <Index>  (75) 
685

$$$$
ETAM-pdb1aq2-A-LYS-212:MBZ-pdb1aq2-A-PHE-147
     RDKit          3D

 26 25  0  0  0  0  0  0  0  0999 V2000
   -0.4372   -4.9227    0.3618 C   0  0  0  0  0  0  0  0  0  0  0  0
   -0.3023   -5.7426   -0.1836 H   0  0  0  0  0  0  0  0  0  0  0  0
   -0.2000   -4.1132   -0.1653 H   0  0  0  0  0  0  0  0  0  0  0  0
   -1.4878   -4.8608    0.6457 H   0  0  0  0  0  0  0  0  0  0  0  0
    0.4602   -4.9913    1.5803 C   0  0  0  0  0  0  0  0  0  0  0  0
    1.3905   -5.2294    1.2918 H   0  0  0  0  0  0  0  0  0  0  0  0
    0.4760   -4.0958    2.0303 H   0  0  0  0  0  0  0  0  0  0  0  0
   -0.0186   -6.0169    2.5618 N   0  0  0  0  0  4  0  0  0  0  0  0
    0.7510   -6.3181    3.1208 H   0  0  0  0  0  0  0  0  0  0  0  0
   -0.7206   -5.6104    3.1427 H   0  0  0  0  0  0  0  0  0  0  0  0
   -0.3985   -6.7939    2.0639 H   0  0  0  0  0  0  0  0  0  0  0  0
   -0.0031    2.9289   -0.0043 C   0  0  0  0  0  0  0  0  0  0  0  0
    0.8323    3.2342    0.4230 H   0  0  0  0  0  0  0  0  0  0  0  0
   -0.7981    3.2318    0.4961 H   0  0  0  0  0  0  0  0  0  0  0  0
   -0.0488    3.3696   -1.0002 H   0  0  0  0  0  0  0  0  0  0  0  0
    0.0002    1.4135    0.0005 C   0  0  0  0  0  0  0  0  0  0  0  0
   -1.2012    0.6962   -0.0004 C   0  0  0  0  0  0  0  0  0  0  0  0
   -2.0674    1.1838   -0.0024 H   0  0  0  0  0  0  0  0  0  0  0  0
   -1.2072   -0.7037    0.0000 C   0  0  0  0  0  0  0  0  0  0  0  0
   -2.0833   -1.1929    0.0016 H   0  0  0  0  0  0  0  0  0  0  0  0
   -0.0030   -1.4050   -0.0000 C   0  0  0  0  0  0  0  0  0  0  0  0
   -0.0054   -2.4004   -0.0005 H   0  0  0  0  0  0  0  0  0  0  0  0
    1.2072   -0.7033    0.0000 C   0  0  0  0  0  0  0  0  0  0  0  0
    2.0856   -1.1977    0.0020 H   0  0  0  0  0  0  0  0  0  0  0  0
    1.2040    0.7024   -0.0001 C   0  0  0  0  0  0  0  0  0  0  0  0
    2.0698    1.1937   -0.0011 H   0  0  0  0  0  0  0  0  0  0  0  0
  1  5  1  0
  5  8  1  0
  1  2  1  0
  1  3  1  0
  1  4  1  0
  5  6  1  0
  5  7  1  0
  8  9  1  0
  8 10  1  0
  8 11  1  0
 12 16  1  0
 16 17  2  0
 17 19  1  0
 19 21  2  0
 21 23  1  0
 23 25  2  0
 25 16  1  0
 12 13  1  0
 12 14  1  0
 12 15  1  0
 17 18  1  0
 19 20  1  0
 21 22  1  0
 23 24  1  0
 25 26  1  0
M  CHG  1   8   1
M  END
>  <PDB_ID>  (76) 
pdb1aq2

>  <RESIDUE_NAME>  (76) 
LYS   PHE

>  <FRAG_NAME>  (76) 
ETAM   MBZ

>  <FRAG_ATOM_NUM>  (76) 
fragi: 11  fragj: 15

>  <atom.prop.CHAIN_ID>  (76) 
A A A A A A A A A A A Z Z Z Z Z Z Z Z Z Z Z Z Z Z Z

>  <atom.prop.IS_HEAVY_ATOM>  (76) 
1 0 0 0 1 0 0 1 0 0 0 1 0 0 0 1 1 0 1 0 1 0 1 0 1 0

>  <DIFUSE_FUNC_ATOM>  (76) 
n/a

>  <FINAL_SINGLE_POINT_ENERGY>  (76) 
0

>  <NONCOV_INTER_ENERGY_QM>  (76) 
0

>  <FF_Energy>  (76) 
5.5

>  <QM_Energy>  (76) 
-0.7

>  <source>  (76) 
ETAM_MBZ

>  <Index>  (76) 
692

$$$$
ETAM-pdb2b3u-A-LYS-87:MBZ-pdb2b3u-B-PHE-51
     RDKit          3D

 26 25  0  0  0  0  0  0  0  0999 V2000
    0.0715   -0.3958    4.6961 C   0  0  0  0  0  0  0  0  0  0  0  0
    1.0066   -0.0698    4.7843 H   0  0  0  0  0  0  0  0  0  0  0  0
   -0.1055   -1.1265    5.3461 H   0  0  0  0  0  0  0  0  0  0  0  0
   -0.6004    0.4321    4.9223 H   0  0  0  0  0  0  0  0  0  0  0  0
   -0.1338   -0.9304    3.2833 C   0  0  0  0  0  0  0  0  0  0  0  0
   -1.0727   -1.2692    3.1975 H   0  0  0  0  0  0  0  0  0  0  0  0
    0.0079   -0.1843    2.6296 H   0  0  0  0  0  0  0  0  0  0  0  0
    0.8175   -2.0413    2.9696 N   0  0  0  0  0  4  0  0  0  0  0  0
    0.9726   -2.0719    1.9838 H   0  0  0  0  0  0  0  0  0  0  0  0
    1.6817   -1.8763    3.4426 H   0  0  0  0  0  0  0  0  0  0  0  0
    0.4241   -2.9061    3.2767 H   0  0  0  0  0  0  0  0  0  0  0  0
    0.0006    2.9087   -0.0334 C   0  0  0  0  0  0  0  0  0  0  0  0
    0.7928    3.2245    0.4645 H   0  0  0  0  0  0  0  0  0  0  0  0
   -0.8385    3.2248    0.3807 H   0  0  0  0  0  0  0  0  0  0  0  0
    0.0523    3.3195   -1.0417 H   0  0  0  0  0  0  0  0  0  0  0  0
   -0.0013    1.4072    0.0001 C   0  0  0  0  0  0  0  0  0  0  0  0
   -1.2040    0.7012   -0.0013 C   0  0  0  0  0  0  0  0  0  0  0  0
   -2.0677    1.1909   -0.0043 H   0  0  0  0  0  0  0  0  0  0  0  0
   -1.2129   -0.6984    0.0000 C   0  0  0  0  0  0  0  0  0  0  0  0
   -2.0843   -1.1915    0.0022 H   0  0  0  0  0  0  0  0  0  0  0  0
    0.0031   -1.4061   -0.0001 C   0  0  0  0  0  0  0  0  0  0  0  0
   -0.0035   -2.3977   -0.0012 H   0  0  0  0  0  0  0  0  0  0  0  0
    1.2129   -0.7011    0.0000 C   0  0  0  0  0  0  0  0  0  0  0  0
    2.0909   -1.1950    0.0008 H   0  0  0  0  0  0  0  0  0  0  0  0
    1.2021    0.6973    0.0013 C   0  0  0  0  0  0  0  0  0  0  0  0
    2.0677    1.1956    0.0027 H   0  0  0  0  0  0  0  0  0  0  0  0
  1  5  1  0
  5  8  1  0
  1  2  1  0
  1  3  1  0
  1  4  1  0
  5  6  1  0
  5  7  1  0
  8  9  1  0
  8 10  1  0
  8 11  1  0
 12 16  1  0
 16 17  2  0
 17 19  1  0
 19 21  2  0
 21 23  1  0
 23 25  2  0
 25 16  1  0
 12 13  1  0
 12 14  1  0
 12 15  1  0
 17 18  1  0
 19 20  1  0
 21 22  1  0
 23 24  1  0
 25 26  1  0
M  CHG  1   8   1
M  END
>  <PDB_ID>  (77) 
pdb2b3u

>  <RESIDUE_NAME>  (77) 
LYS   PHE

>  <FRAG_NAME>  (77) 
ETAM   MBZ

>  <FRAG_ATOM_NUM>  (77) 
fragi: 11  fragj: 15

>  <atom.prop.CHAIN_ID>  (77) 
A A A A A A A A A A A Z Z Z Z Z Z Z Z Z Z Z Z Z Z Z

>  <atom.prop.IS_HEAVY_ATOM>  (77) 
1 0 0 0 1 0 0 1 0 0 0 1 0 0 0 1 1 0 1 0 1 0 1 0 1 0

>  <DIFUSE_FUNC_ATOM>  (77) 
n/a

>  <FINAL_SINGLE_POINT_ENERGY>  (77) 
0

>  <NONCOV_INTER_ENERGY_QM>  (77) 
0

>  <FF_Energy>  (77) 
-5.05

>  <QM_Energy>  (77) 
-13.73

>  <source>  (77) 
ETAM_MBZ

>  <Index>  (77) 
700

$$$$
ETAM-pdb1aqd-A-GLU-3:MBZ-pdb1aqd-B-PHE-18
     RDKit          3D

 26 25  0  0  0  0  0  0  0  0999 V2000
    2.7523   -1.2064    2.8593 C   0  0  0  0  0  0  0  0  0  0  0  0
    2.4452   -1.5419    1.9764 H   0  0  0  0  0  0  0  0  0  0  0  0
    3.5727   -1.6850    3.1486 H   0  0  0  0  0  0  0  0  0  0  0  0
    1.9683   -1.4091    3.5890 H   0  0  0  0  0  0  0  0  0  0  0  0
    3.1262    0.2668    2.6784 C   0  0  0  0  0  0  0  0  0  0  0  0
    2.3084    0.6678    2.2244 H   0  0  0  0  0  0  0  0  0  0  0  0
    3.2687    0.7497    3.6452 H   0  0  0  0  0  0  0  0  0  0  0  0
    4.2834    0.3778    1.7743 N   0  0  0  0  0  4  0  0  0  0  0  0
    5.1260    0.2068    2.2846 H   0  0  0  0  0  0  0  0  0  0  0  0
    4.2005   -0.2945    1.0387 H   0  0  0  0  0  0  0  0  0  0  0  0
    4.3160    1.2965    1.3812 H   0  0  0  0  0  0  0  0  0  0  0  0
   -0.0132    2.8863    0.0787 C   0  0  0  0  0  0  0  0  0  0  0  0
   -0.7193    3.2222   -0.5267 H   0  0  0  0  0  0  0  0  0  0  0  0
    0.8780    3.2197   -0.1875 H   0  0  0  0  0  0  0  0  0  0  0  0
   -0.2247    3.2581    1.0812 H   0  0  0  0  0  0  0  0  0  0  0  0
    0.0003    1.4047    0.0031 C   0  0  0  0  0  0  0  0  0  0  0  0
   -1.2034    0.6843   -0.0005 C   0  0  0  0  0  0  0  0  0  0  0  0
   -2.0688    1.1791   -0.0049 H   0  0  0  0  0  0  0  0  0  0  0  0
   -1.2110   -0.7069    0.0000 C   0  0  0  0  0  0  0  0  0  0  0  0
   -2.0825   -1.2015    0.0011 H   0  0  0  0  0  0  0  0  0  0  0  0
   -0.0024   -1.3974    0.0003 C   0  0  0  0  0  0  0  0  0  0  0  0
    0.0026   -2.3946   -0.0000 H   0  0  0  0  0  0  0  0  0  0  0  0
    1.2110   -0.6918    0.0000 C   0  0  0  0  0  0  0  0  0  0  0  0
    2.0877   -1.1897    0.0032 H   0  0  0  0  0  0  0  0  0  0  0  0
    1.2054    0.7071   -0.0029 C   0  0  0  0  0  0  0  0  0  0  0  0
    2.0676    1.2032   -0.0102 H   0  0  0  0  0  0  0  0  0  0  0  0
  1  5  1  0
  5  8  1  0
  1  2  1  0
  1  3  1  0
  1  4  1  0
  5  6  1  0
  5  7  1  0
  8  9  1  0
  8 10  1  0
  8 11  1  0
 12 16  1  0
 16 17  2  0
 17 19  1  0
 19 21  2  0
 21 23  1  0
 23 25  2  0
 25 16  1  0
 12 13  1  0
 12 14  1  0
 12 15  1  0
 17 18  1  0
 19 20  1  0
 21 22  1  0
 23 24  1  0
 25 26  1  0
M  CHG  1   8   1
M  END
>  <PDB_ID>  (78) 
pdb1aqd

>  <RESIDUE_NAME>  (78) 
GLU   PHE

>  <FRAG_NAME>  (78) 
ETAM   MBZ

>  <FRAG_ATOM_NUM>  (78) 
fragi: 11  fragj: 15

>  <atom.prop.CHAIN_ID>  (78) 
A A A A A A A A A A A Z Z Z Z Z Z Z Z Z Z Z Z Z Z Z

>  <atom.prop.IS_HEAVY_ATOM>  (78) 
1 0 0 0 1 0 0 1 0 0 0 1 0 0 0 1 1 0 1 0 1 0 1 0 1 0

>  <DIFUSE_FUNC_ATOM>  (78) 
n/a

>  <FINAL_SINGLE_POINT_ENERGY>  (78) 
0

>  <NONCOV_INTER_ENERGY_QM>  (78) 
0

>  <FF_Energy>  (78) 
2.01

>  <QM_Energy>  (78) 
-4.56

>  <source>  (78) 
ETAM_MBZ

>  <Index>  (78) 
714

$$$$
ETAM-pdb1aqd-D-GLU-3:MBZ-pdb1aqd-E-PHE-18
     RDKit          3D

 26 25  0  0  0  0  0  0  0  0999 V2000
    2.3623   -1.3733    2.7471 C   0  0  0  0  0  0  0  0  0  0  0  0
    1.7238   -1.4945    1.9813 H   0  0  0  0  0  0  0  0  0  0  0  0
    3.1791   -1.9318    2.5808 H   0  0  0  0  0  0  0  0  0  0  0  0
    1.8781   -1.7499    3.6481 H   0  0  0  0  0  0  0  0  0  0  0  0
    2.7899    0.0627    2.7554 C   0  0  0  0  0  0  0  0  0  0  0  0
    2.0660    0.5968    2.3025 H   0  0  0  0  0  0  0  0  0  0  0  0
    2.9276    0.3977    3.7835 H   0  0  0  0  0  0  0  0  0  0  0  0
    4.0395    0.2194    1.9967 N   0  0  0  0  0  4  0  0  0  0  0  0
    3.8427    0.6247    1.1035 H   0  0  0  0  0  0  0  0  0  0  0  0
    4.6663    0.8156    2.4992 H   0  0  0  0  0  0  0  0  0  0  0  0
    4.4688   -0.6749    1.8660 H   0  0  0  0  0  0  0  0  0  0  0  0
    0.0127    2.8425    0.1429 C   0  0  0  0  0  0  0  0  0  0  0  0
   -0.7484    3.2148   -0.3695 H   0  0  0  0  0  0  0  0  0  0  0  0
    0.8757    3.1879   -0.1979 H   0  0  0  0  0  0  0  0  0  0  0  0
   -0.0909    3.1761    1.1754 H   0  0  0  0  0  0  0  0  0  0  0  0
    0.0041    1.3732    0.0016 C   0  0  0  0  0  0  0  0  0  0  0  0
   -1.1845    0.6722   -0.0029 C   0  0  0  0  0  0  0  0  0  0  0  0
   -2.0521    1.1690   -0.0099 H   0  0  0  0  0  0  0  0  0  0  0  0
   -1.1889   -0.6983   -0.0000 C   0  0  0  0  0  0  0  0  0  0  0  0
   -2.0679   -1.1948   -0.0011 H   0  0  0  0  0  0  0  0  0  0  0  0
   -0.0068   -1.3589    0.0057 C   0  0  0  0  0  0  0  0  0  0  0  0
    0.0105   -2.3703    0.0133 H   0  0  0  0  0  0  0  0  0  0  0  0
    1.1889   -0.6648    0.0000 C   0  0  0  0  0  0  0  0  0  0  0  0
    2.0686   -1.1860    0.0011 H   0  0  0  0  0  0  0  0  0  0  0  0
    1.1873    0.6766   -0.0044 C   0  0  0  0  0  0  0  0  0  0  0  0
    2.0558    1.1907   -0.0130 H   0  0  0  0  0  0  0  0  0  0  0  0
  1  5  1  0
  5  8  1  0
  1  2  1  0
  1  3  1  0
  1  4  1  0
  5  6  1  0
  5  7  1  0
  8  9  1  0
  8 10  1  0
  8 11  1  0
 12 16  1  0
 16 17  2  0
 17 19  1  0
 19 21  2  0
 21 23  1  0
 23 25  2  0
 25 16  1  0
 12 13  1  0
 12 14  1  0
 12 15  1  0
 17 18  1  0
 19 20  1  0
 21 22  1  0
 23 24  1  0
 25 26  1  0
M  CHG  1   8   1
M  END
>  <PDB_ID>  (79) 
pdb1aqd

>  <RESIDUE_NAME>  (79) 
GLU   PHE

>  <FRAG_NAME>  (79) 
ETAM   MBZ

>  <FRAG_ATOM_NUM>  (79) 
fragi: 11  fragj: 15

>  <atom.prop.CHAIN_ID>  (79) 
A A A A A A A A A A A Z Z Z Z Z Z Z Z Z Z Z Z Z Z Z

>  <atom.prop.IS_HEAVY_ATOM>  (79) 
1 0 0 0 1 0 0 1 0 0 0 1 0 0 0 1 1 0 1 0 1 0 1 0 1 0

>  <DIFUSE_FUNC_ATOM>  (79) 
n/a

>  <FINAL_SINGLE_POINT_ENERGY>  (79) 
0

>  <NONCOV_INTER_ENERGY_QM>  (79) 
0

>  <FF_Energy>  (79) 
6.99

>  <QM_Energy>  (79) 
-3.97

>  <source>  (79) 
ETAM_MBZ

>  <Index>  (79) 
715

$$$$
ETAM-pdb1aqu-B-LYS-48:MBZ-pdb1aqu-B-PHE-142
     RDKit          3D

 26 25  0  0  0  0  0  0  0  0999 V2000
   -0.2820    1.6484   -3.9157 C   0  0  0  0  0  0  0  0  0  0  0  0
   -0.2976    0.9260   -4.5998 H   0  0  0  0  0  0  0  0  0  0  0  0
    0.2000    1.3428   -3.1010 H   0  0  0  0  0  0  0  0  0  0  0  0
    0.2447    2.5078   -4.3306 H   0  0  0  0  0  0  0  0  0  0  0  0
   -1.7182    1.9898   -3.5334 C   0  0  0  0  0  0  0  0  0  0  0  0
   -1.7029    2.6025   -2.7395 H   0  0  0  0  0  0  0  0  0  0  0  0
   -2.1531    2.4631   -4.3029 H   0  0  0  0  0  0  0  0  0  0  0  0
   -2.4988    0.7727   -3.2008 N   0  0  0  0  0  4  0  0  0  0  0  0
   -2.3793    0.5543   -2.2322 H   0  0  0  0  0  0  0  0  0  0  0  0
   -3.4680    0.9354   -3.3890 H   0  0  0  0  0  0  0  0  0  0  0  0
   -2.1752    0.0065   -3.7571 H   0  0  0  0  0  0  0  0  0  0  0  0
   -0.0060    2.9201   -0.0226 C   0  0  0  0  0  0  0  0  0  0  0  0
   -0.5424    3.2105   -0.7979 H   0  0  0  0  0  0  0  0  0  0  0  0
    0.9303    3.2250   -0.0922 H   0  0  0  0  0  0  0  0  0  0  0  0
   -0.4382    3.3708    0.8708 H   0  0  0  0  0  0  0  0  0  0  0  0
   -0.0015    1.4083   -0.0005 C   0  0  0  0  0  0  0  0  0  0  0  0
   -1.2003    0.6908    0.0021 C   0  0  0  0  0  0  0  0  0  0  0  0
   -2.0683    1.1801    0.0049 H   0  0  0  0  0  0  0  0  0  0  0  0
   -1.2091   -0.7077   -0.0000 C   0  0  0  0  0  0  0  0  0  0  0  0
   -2.0800   -1.1994    0.0012 H   0  0  0  0  0  0  0  0  0  0  0  0
    0.0029   -1.4013   -0.0010 C   0  0  0  0  0  0  0  0  0  0  0  0
    0.0050   -2.3969   -0.0029 H   0  0  0  0  0  0  0  0  0  0  0  0
    1.2091   -0.6944   -0.0000 C   0  0  0  0  0  0  0  0  0  0  0  0
    2.0892   -1.1873    0.0024 H   0  0  0  0  0  0  0  0  0  0  0  0
    1.1989    0.7043   -0.0006 C   0  0  0  0  0  0  0  0  0  0  0  0
    2.0654    1.2013   -0.0018 H   0  0  0  0  0  0  0  0  0  0  0  0
  1  5  1  0
  5  8  1  0
  1  2  1  0
  1  3  1  0
  1  4  1  0
  5  6  1  0
  5  7  1  0
  8  9  1  0
  8 10  1  0
  8 11  1  0
 12 16  1  0
 16 17  2  0
 17 19  1  0
 19 21  2  0
 21 23  1  0
 23 25  2  0
 25 16  1  0
 12 13  1  0
 12 14  1  0
 12 15  1  0
 17 18  1  0
 19 20  1  0
 21 22  1  0
 23 24  1  0
 25 26  1  0
M  CHG  1   8   1
M  END
>  <PDB_ID>  (80) 
pdb1aqu

>  <RESIDUE_NAME>  (80) 
LYS   PHE

>  <FRAG_NAME>  (80) 
ETAM   MBZ

>  <FRAG_ATOM_NUM>  (80) 
fragi: 11  fragj: 15

>  <atom.prop.CHAIN_ID>  (80) 
A A A A A A A A A A A Z Z Z Z Z Z Z Z Z Z Z Z Z Z Z

>  <atom.prop.IS_HEAVY_ATOM>  (80) 
1 0 0 0 1 0 0 1 0 0 0 1 0 0 0 1 1 0 1 0 1 0 1 0 1 0

>  <DIFUSE_FUNC_ATOM>  (80) 
n/a

>  <FINAL_SINGLE_POINT_ENERGY>  (80) 
0

>  <NONCOV_INTER_ENERGY_QM>  (80) 
0

>  <FF_Energy>  (80) 
-5.22

>  <QM_Energy>  (80) 
-11.33

>  <source>  (80) 
ETAM_MBZ

>  <Index>  (80) 
730

$$$$
ETAM-pdb1aq8-A-LYS-269:MBZ-pdb1aq8-A-PHE-132
     RDKit          3D

 26 25  0  0  0  0  0  0  0  0999 V2000
   -1.0624   -2.2126   -3.4346 C   0  0  0  0  0  0  0  0  0  0  0  0
   -1.1016   -2.7363   -2.5878 H   0  0  0  0  0  0  0  0  0  0  0  0
   -0.1174   -1.9968   -3.6615 H   0  0  0  0  0  0  0  0  0  0  0  0
   -1.4878   -2.8136   -4.2384 H   0  0  0  0  0  0  0  0  0  0  0  0
   -1.8235   -0.9119   -3.2367 C   0  0  0  0  0  0  0  0  0  0  0  0
   -2.8134   -1.1090   -3.2635 H   0  0  0  0  0  0  0  0  0  0  0  0
   -1.6043   -0.5444   -2.3229 H   0  0  0  0  0  0  0  0  0  0  0  0
   -1.5029    0.1110   -4.2623 N   0  0  0  0  0  4  0  0  0  0  0  0
   -1.7013   -0.2877   -5.1982 H   0  0  0  0  0  0  0  0  0  0  0  0
   -2.0907    0.9521   -4.1127 H   0  0  0  0  0  0  0  0  0  0  0  0
   -0.4956    0.3647   -4.2017 H   0  0  0  0  0  0  0  0  0  0  0  0
   -0.0035    2.9072    0.0727 C   0  0  0  0  0  0  0  0  0  0  0  0
    0.7397    3.1862    0.6657 H   0  0  0  0  0  0  0  0  0  0  0  0
   -0.8780    3.1932    0.4410 H   0  0  0  0  0  0  0  0  0  0  0  0
    0.1322    3.4046   -0.8877 H   0  0  0  0  0  0  0  0  0  0  0  0
   -0.0004    1.4030    0.0011 C   0  0  0  0  0  0  0  0  0  0  0  0
   -1.1941    0.6950   -0.0022 C   0  0  0  0  0  0  0  0  0  0  0  0
   -2.0621    1.1847   -0.0077 H   0  0  0  0  0  0  0  0  0  0  0  0
   -1.2003   -0.6962   -0.0000 C   0  0  0  0  0  0  0  0  0  0  0  0
   -2.0791   -1.1882    0.0017 H   0  0  0  0  0  0  0  0  0  0  0  0
   -0.0024   -1.3947    0.0015 C   0  0  0  0  0  0  0  0  0  0  0  0
   -0.0077   -2.3933    0.0033 H   0  0  0  0  0  0  0  0  0  0  0  0
    1.2003   -0.7004    0.0000 C   0  0  0  0  0  0  0  0  0  0  0  0
    2.0808   -1.1982    0.0002 H   0  0  0  0  0  0  0  0  0  0  0  0
    1.1969    0.6933   -0.0005 C   0  0  0  0  0  0  0  0  0  0  0  0
    2.0652    1.1879   -0.0025 H   0  0  0  0  0  0  0  0  0  0  0  0
  1  5  1  0
  5  8  1  0
  1  2  1  0
  1  3  1  0
  1  4  1  0
  5  6  1  0
  5  7  1  0
  8  9  1  0
  8 10  1  0
  8 11  1  0
 12 16  1  0
 16 17  2  0
 17 19  1  0
 19 21  2  0
 21 23  1  0
 23 25  2  0
 25 16  1  0
 12 13  1  0
 12 14  1  0
 12 15  1  0
 17 18  1  0
 19 20  1  0
 21 22  1  0
 23 24  1  0
 25 26  1  0
M  CHG  1   8   1
M  END
>  <PDB_ID>  (81) 
pdb1aq8

>  <RESIDUE_NAME>  (81) 
LYS   PHE

>  <FRAG_NAME>  (81) 
ETAM   MBZ

>  <FRAG_ATOM_NUM>  (81) 
fragi: 11  fragj: 15

>  <atom.prop.CHAIN_ID>  (81) 
A A A A A A A A A A A Z Z Z Z Z Z Z Z Z Z Z Z Z Z Z

>  <atom.prop.IS_HEAVY_ATOM>  (81) 
1 0 0 0 1 0 0 1 0 0 0 1 0 0 0 1 1 0 1 0 1 0 1 0 1 0

>  <DIFUSE_FUNC_ATOM>  (81) 
n/a

>  <FINAL_SINGLE_POINT_ENERGY>  (81) 
0

>  <NONCOV_INTER_ENERGY_QM>  (81) 
0

>  <FF_Energy>  (81) 
-2.25

>  <QM_Energy>  (81) 
-7.7

>  <source>  (81) 
ETAM_MBZ

>  <Index>  (81) 
733

$$$$
ETAM-pdb2b67-A-LYS-46:MBZ-pdb2b67-A-PHE-171
     RDKit          3D

 26 25  0  0  0  0  0  0  0  0999 V2000
    0.4600    0.9063   -4.3105 C   0  0  0  0  0  0  0  0  0  0  0  0
    0.6141    1.7446   -3.8176 H   0  0  0  0  0  0  0  0  0  0  0  0
   -0.0690    1.0500   -5.1282 H   0  0  0  0  0  0  0  0  0  0  0  0
    1.4265    0.4883   -4.5919 H   0  0  0  0  0  0  0  0  0  0  0  0
   -0.2832   -0.0721   -3.4048 C   0  0  0  0  0  0  0  0  0  0  0  0
    0.3127   -0.3144   -2.6329 H   0  0  0  0  0  0  0  0  0  0  0  0
   -1.1055    0.3800   -3.0457 H   0  0  0  0  0  0  0  0  0  0  0  0
   -0.6856   -1.3193   -4.1206 N   0  0  0  0  0  4  0  0  0  0  0  0
   -0.7567   -2.0672   -3.4629 H   0  0  0  0  0  0  0  0  0  0  0  0
   -1.5695   -1.1747   -4.5634 H   0  0  0  0  0  0  0  0  0  0  0  0
    0.0028   -1.5404   -4.8089 H   0  0  0  0  0  0  0  0  0  0  0  0
    0.0107    2.9066    0.0634 C   0  0  0  0  0  0  0  0  0  0  0  0
   -0.8301    3.2498   -0.3103 H   0  0  0  0  0  0  0  0  0  0  0  0
    0.7997    3.2433   -0.4149 H   0  0  0  0  0  0  0  0  0  0  0  0
    0.0788    3.2566    1.0935 H   0  0  0  0  0  0  0  0  0  0  0  0
   -0.0007    1.4256   -0.0156 C   0  0  0  0  0  0  0  0  0  0  0  0
   -1.2197    0.7220   -0.0025 C   0  0  0  0  0  0  0  0  0  0  0  0
   -2.0782    1.1918    0.0035 H   0  0  0  0  0  0  0  0  0  0  0  0
   -1.2198   -0.7226   -0.0000 C   0  0  0  0  0  0  0  0  0  0  0  0
   -2.0874   -1.2020   -0.0072 H   0  0  0  0  0  0  0  0  0  0  0  0
    0.0093   -1.4266    0.0142 C   0  0  0  0  0  0  0  0  0  0  0  0
    0.0104   -2.4136    0.0338 H   0  0  0  0  0  0  0  0  0  0  0  0
    1.2198   -0.7053    0.0000 C   0  0  0  0  0  0  0  0  0  0  0  0
    2.1019   -1.1939   -0.0113 H   0  0  0  0  0  0  0  0  0  0  0  0
    1.2111    0.7069    0.0039 C   0  0  0  0  0  0  0  0  0  0  0  0
    2.0748    1.2009    0.0202 H   0  0  0  0  0  0  0  0  0  0  0  0
  1  5  1  0
  5  8  1  0
  1  2  1  0
  1  3  1  0
  1  4  1  0
  5  6  1  0
  5  7  1  0
  8  9  1  0
  8 10  1  0
  8 11  1  0
 12 16  1  0
 16 17  2  0
 17 19  1  0
 19 21  2  0
 21 23  1  0
 23 25  2  0
 25 16  1  0
 12 13  1  0
 12 14  1  0
 12 15  1  0
 17 18  1  0
 19 20  1  0
 21 22  1  0
 23 24  1  0
 25 26  1  0
M  CHG  1   8   1
M  END
>  <PDB_ID>  (82) 
pdb2b67

>  <RESIDUE_NAME>  (82) 
LYS   PHE

>  <FRAG_NAME>  (82) 
ETAM   MBZ

>  <FRAG_ATOM_NUM>  (82) 
fragi: 11  fragj: 15

>  <atom.prop.CHAIN_ID>  (82) 
A A A A A A A A A A A Z Z Z Z Z Z Z Z Z Z Z Z Z Z Z

>  <atom.prop.IS_HEAVY_ATOM>  (82) 
1 0 0 0 1 0 0 1 0 0 0 1 0 0 0 1 1 0 1 0 1 0 1 0 1 0

>  <DIFUSE_FUNC_ATOM>  (82) 
n/a

>  <FINAL_SINGLE_POINT_ENERGY>  (82) 
0

>  <NONCOV_INTER_ENERGY_QM>  (82) 
0

>  <FF_Energy>  (82) 
-5.88

>  <QM_Energy>  (82) 
-10.96

>  <source>  (82) 
ETAM_MBZ

>  <Index>  (82) 
788

$$$$
ETAM-pdb2b8t-C-LYS-91:MBZ-pdb2b8t-C-PHE-117
     RDKit          3D

 26 25  0  0  0  0  0  0  0  0999 V2000
   -1.7265   -0.7076   -3.6306 C   0  0  0  0  0  0  0  0  0  0  0  0
   -1.0467   -0.1179   -4.0553 H   0  0  0  0  0  0  0  0  0  0  0  0
   -1.7611   -0.5428   -2.6499 H   0  0  0  0  0  0  0  0  0  0  0  0
   -2.7029   -0.4843   -4.0604 H   0  0  0  0  0  0  0  0  0  0  0  0
   -1.3171   -2.1629   -3.8619 C   0  0  0  0  0  0  0  0  0  0  0  0
   -1.5773   -2.4290   -4.7963 H   0  0  0  0  0  0  0  0  0  0  0  0
   -0.3178   -2.2372   -3.7750 H   0  0  0  0  0  0  0  0  0  0  0  0
   -1.9600   -3.1135   -2.8905 N   0  0  0  0  0  4  0  0  0  0  0  0
   -2.3847   -2.5881   -2.1565 H   0  0  0  0  0  0  0  0  0  0  0  0
   -2.6507   -3.6490   -3.3697 H   0  0  0  0  0  0  0  0  0  0  0  0
   -1.2603   -3.7176   -2.5165 H   0  0  0  0  0  0  0  0  0  0  0  0
   -0.0011    2.9156   -0.0103 C   0  0  0  0  0  0  0  0  0  0  0  0
    0.8455    3.2222    0.3958 H   0  0  0  0  0  0  0  0  0  0  0  0
   -0.7839    3.2205    0.5097 H   0  0  0  0  0  0  0  0  0  0  0  0
   -0.0713    3.3537   -1.0058 H   0  0  0  0  0  0  0  0  0  0  0  0
    0.0007    1.4054   -0.0049 C   0  0  0  0  0  0  0  0  0  0  0  0
   -1.1959    0.6948   -0.0028 C   0  0  0  0  0  0  0  0  0  0  0  0
   -2.0639    1.1831   -0.0044 H   0  0  0  0  0  0  0  0  0  0  0  0
   -1.2016   -0.7019   -0.0000 C   0  0  0  0  0  0  0  0  0  0  0  0
   -2.0775   -1.1925    0.0005 H   0  0  0  0  0  0  0  0  0  0  0  0
    0.0010   -1.3982    0.0039 C   0  0  0  0  0  0  0  0  0  0  0  0
   -0.0023   -2.3964    0.0089 H   0  0  0  0  0  0  0  0  0  0  0  0
    1.2016   -0.7004   -0.0000 C   0  0  0  0  0  0  0  0  0  0  0  0
    2.0840   -1.1922   -0.0037 H   0  0  0  0  0  0  0  0  0  0  0  0
    1.1942    0.7003    0.0037 C   0  0  0  0  0  0  0  0  0  0  0  0
    2.0644    1.1920    0.0117 H   0  0  0  0  0  0  0  0  0  0  0  0
  1  5  1  0
  5  8  1  0
  1  2  1  0
  1  3  1  0
  1  4  1  0
  5  6  1  0
  5  7  1  0
  8  9  1  0
  8 10  1  0
  8 11  1  0
 12 16  1  0
 16 17  2  0
 17 19  1  0
 19 21  2  0
 21 23  1  0
 23 25  2  0
 25 16  1  0
 12 13  1  0
 12 14  1  0
 12 15  1  0
 17 18  1  0
 19 20  1  0
 21 22  1  0
 23 24  1  0
 25 26  1  0
M  CHG  1   8   1
M  END
>  <PDB_ID>  (83) 
pdb2b8t

>  <RESIDUE_NAME>  (83) 
LYS   PHE

>  <FRAG_NAME>  (83) 
ETAM   MBZ

>  <FRAG_ATOM_NUM>  (83) 
fragi: 11  fragj: 15

>  <atom.prop.CHAIN_ID>  (83) 
A A A A A A A A A A A Z Z Z Z Z Z Z Z Z Z Z Z Z Z Z

>  <atom.prop.IS_HEAVY_ATOM>  (83) 
1 0 0 0 1 0 0 1 0 0 0 1 0 0 0 1 1 0 1 0 1 0 1 0 1 0

>  <DIFUSE_FUNC_ATOM>  (83) 
n/a

>  <FINAL_SINGLE_POINT_ENERGY>  (83) 
0

>  <NONCOV_INTER_ENERGY_QM>  (83) 
0

>  <FF_Energy>  (83) 
-2.29

>  <QM_Energy>  (83) 
-7.38

>  <source>  (83) 
ETAM_MBZ

>  <Index>  (83) 
813

$$$$
ETAM-pdb2b8t-C-LYS-180:MBZ-pdb2b8t-C-PHE-186
     RDKit          3D

 26 25  0  0  0  0  0  0  0  0999 V2000
    1.0415    0.5970    5.1375 C   0  0  0  0  0  0  0  0  0  0  0  0
    1.1056    0.4135    6.1157 H   0  0  0  0  0  0  0  0  0  0  0  0
    0.7352    1.5337    4.9867 H   0  0  0  0  0  0  0  0  0  0  0  0
    2.0289    0.4738    4.6926 H   0  0  0  0  0  0  0  0  0  0  0  0
    0.0261   -0.3495    4.5309 C   0  0  0  0  0  0  0  0  0  0  0  0
    0.4155   -1.2705    4.5021 H   0  0  0  0  0  0  0  0  0  0  0  0
   -0.7959   -0.3556    5.1012 H   0  0  0  0  0  0  0  0  0  0  0  0
   -0.3346    0.0734    3.1561 N   0  0  0  0  0  4  0  0  0  0  0  0
   -0.0717   -0.6405    2.5067 H   0  0  0  0  0  0  0  0  0  0  0  0
   -1.3224    0.2253    3.1015 H   0  0  0  0  0  0  0  0  0  0  0  0
    0.1458    0.9218    2.9300 H   0  0  0  0  0  0  0  0  0  0  0  0
    0.0047    2.9160    0.0015 C   0  0  0  0  0  0  0  0  0  0  0  0
    0.9371    3.2193   -0.1287 H   0  0  0  0  0  0  0  0  0  0  0  0
   -0.3549    3.2213    0.8710 H   0  0  0  0  0  0  0  0  0  0  0  0
   -0.6029    3.3654   -0.7840 H   0  0  0  0  0  0  0  0  0  0  0  0
   -0.0003    1.4084   -0.0017 C   0  0  0  0  0  0  0  0  0  0  0  0
   -1.2007    0.6966    0.0030 C   0  0  0  0  0  0  0  0  0  0  0  0
   -2.0672    1.1837    0.0071 H   0  0  0  0  0  0  0  0  0  0  0  0
   -1.2077   -0.7056   -0.0000 C   0  0  0  0  0  0  0  0  0  0  0  0
   -2.0819   -1.1941   -0.0001 H   0  0  0  0  0  0  0  0  0  0  0  0
   -0.0011   -1.4018   -0.0013 C   0  0  0  0  0  0  0  0  0  0  0  0
   -0.0006   -2.3979   -0.0037 H   0  0  0  0  0  0  0  0  0  0  0  0
    1.2077   -0.6978   -0.0000 C   0  0  0  0  0  0  0  0  0  0  0  0
    2.0869   -1.1938    0.0026 H   0  0  0  0  0  0  0  0  0  0  0  0
    1.2021    0.7003   -0.0001 C   0  0  0  0  0  0  0  0  0  0  0  0
    2.0673    1.1960    0.0005 H   0  0  0  0  0  0  0  0  0  0  0  0
  1  5  1  0
  5  8  1  0
  1  2  1  0
  1  3  1  0
  1  4  1  0
  5  6  1  0
  5  7  1  0
  8  9  1  0
  8 10  1  0
  8 11  1  0
 12 16  1  0
 16 17  2  0
 17 19  1  0
 19 21  2  0
 21 23  1  0
 23 25  2  0
 25 16  1  0
 12 13  1  0
 12 14  1  0
 12 15  1  0
 17 18  1  0
 19 20  1  0
 21 22  1  0
 23 24  1  0
 25 26  1  0
M  CHG  1   8   1
M  END
>  <PDB_ID>  (84) 
pdb2b8t

>  <RESIDUE_NAME>  (84) 
LYS   PHE

>  <FRAG_NAME>  (84) 
ETAM   MBZ

>  <FRAG_ATOM_NUM>  (84) 
fragi: 11  fragj: 15

>  <atom.prop.CHAIN_ID>  (84) 
A A A A A A A A A A A Z Z Z Z Z Z Z Z Z Z Z Z Z Z Z

>  <atom.prop.IS_HEAVY_ATOM>  (84) 
1 0 0 0 1 0 0 1 0 0 0 1 0 0 0 1 1 0 1 0 1 0 1 0 1 0

>  <DIFUSE_FUNC_ATOM>  (84) 
n/a

>  <FINAL_SINGLE_POINT_ENERGY>  (84) 
0

>  <NONCOV_INTER_ENERGY_QM>  (84) 
0

>  <FF_Energy>  (84) 
-8.97

>  <QM_Energy>  (84) 
-16.32

>  <source>  (84) 
ETAM_MBZ

>  <Index>  (84) 
814

$$$$
ETAM-pdb2b8t-D-LYS-180:MBZ-pdb2b8t-D-PHE-186
     RDKit          3D

 26 25  0  0  0  0  0  0  0  0999 V2000
    0.1373    0.8847    4.5583 C   0  0  0  0  0  0  0  0  0  0  0  0
   -0.3829    0.7992    5.3980 H   0  0  0  0  0  0  0  0  0  0  0  0
    0.0911    1.8101    4.2051 H   0  0  0  0  0  0  0  0  0  0  0  0
    1.1784    0.6310    4.7579 H   0  0  0  0  0  0  0  0  0  0  0  0
   -0.4467   -0.0590    3.5262 C   0  0  0  0  0  0  0  0  0  0  0  0
    0.1001   -0.0028    2.6858 H   0  0  0  0  0  0  0  0  0  0  0  0
   -0.4018   -0.9986    3.8782 H   0  0  0  0  0  0  0  0  0  0  0  0
   -1.8612    0.2743    3.2098 N   0  0  0  0  0  4  0  0  0  0  0  0
   -1.9053    0.7201    2.3159 H   0  0  0  0  0  0  0  0  0  0  0  0
   -2.4041   -0.5646    3.1920 H   0  0  0  0  0  0  0  0  0  0  0  0
   -2.2214    0.8908    3.9097 H   0  0  0  0  0  0  0  0  0  0  0  0
    0.0030    2.9048    0.0061 C   0  0  0  0  0  0  0  0  0  0  0  0
    0.9276    3.2095    0.1849 H   0  0  0  0  0  0  0  0  0  0  0  0
   -0.6169    3.2098    0.7150 H   0  0  0  0  0  0  0  0  0  0  0  0
   -0.3189    3.3553   -0.9328 H   0  0  0  0  0  0  0  0  0  0  0  0
   -0.0005    1.4037   -0.0024 C   0  0  0  0  0  0  0  0  0  0  0  0
   -1.1984    0.6957    0.0013 C   0  0  0  0  0  0  0  0  0  0  0  0
   -2.0651    1.1854    0.0033 H   0  0  0  0  0  0  0  0  0  0  0  0
   -1.2052   -0.7001   -0.0000 C   0  0  0  0  0  0  0  0  0  0  0  0
   -2.0800   -1.1919   -0.0000 H   0  0  0  0  0  0  0  0  0  0  0  0
    0.0004   -1.3981    0.0002 C   0  0  0  0  0  0  0  0  0  0  0  0
   -0.0021   -2.3949    0.0003 H   0  0  0  0  0  0  0  0  0  0  0  0
    1.2052   -0.6975   -0.0000 C   0  0  0  0  0  0  0  0  0  0  0  0
    2.0849   -1.1944    0.0009 H   0  0  0  0  0  0  0  0  0  0  0  0
    1.1985    0.6963    0.0008 C   0  0  0  0  0  0  0  0  0  0  0  0
    2.0659    1.1929    0.0028 H   0  0  0  0  0  0  0  0  0  0  0  0
  1  5  1  0
  5  8  1  0
  1  2  1  0
  1  3  1  0
  1  4  1  0
  5  6  1  0
  5  7  1  0
  8  9  1  0
  8 10  1  0
  8 11  1  0
 12 16  1  0
 16 17  2  0
 17 19  1  0
 19 21  2  0
 21 23  1  0
 23 25  2  0
 25 16  1  0
 12 13  1  0
 12 14  1  0
 12 15  1  0
 17 18  1  0
 19 20  1  0
 21 22  1  0
 23 24  1  0
 25 26  1  0
M  CHG  1   8   1
M  END
>  <PDB_ID>  (85) 
pdb2b8t

>  <RESIDUE_NAME>  (85) 
LYS   PHE

>  <FRAG_NAME>  (85) 
ETAM   MBZ

>  <FRAG_ATOM_NUM>  (85) 
fragi: 11  fragj: 15

>  <atom.prop.CHAIN_ID>  (85) 
A A A A A A A A A A A Z Z Z Z Z Z Z Z Z Z Z Z Z Z Z

>  <atom.prop.IS_HEAVY_ATOM>  (85) 
1 0 0 0 1 0 0 1 0 0 0 1 0 0 0 1 1 0 1 0 1 0 1 0 1 0

>  <DIFUSE_FUNC_ATOM>  (85) 
n/a

>  <FINAL_SINGLE_POINT_ENERGY>  (85) 
0

>  <NONCOV_INTER_ENERGY_QM>  (85) 
0

>  <FF_Energy>  (85) 
-6.65

>  <QM_Energy>  (85) 
-13.94

>  <source>  (85) 
ETAM_MBZ

>  <Index>  (85) 
815

$$$$
ETAM-pdb2b7j-B-LYS-213:MBZ-pdb2b7j-B-PHE-223
     RDKit          3D

 26 25  0  0  0  0  0  0  0  0999 V2000
    3.3534    0.2820   -3.7326 C   0  0  0  0  0  0  0  0  0  0  0  0
    3.6359    0.5643   -4.6444 H   0  0  0  0  0  0  0  0  0  0  0  0
    3.6064    0.9735   -3.0636 H   0  0  0  0  0  0  0  0  0  0  0  0
    2.2693    0.1683   -3.7245 H   0  0  0  0  0  0  0  0  0  0  0  0
    4.0623   -1.0174   -3.3824 C   0  0  0  0  0  0  0  0  0  0  0  0
    3.9744   -1.6538   -4.1527 H   0  0  0  0  0  0  0  0  0  0  0  0
    5.0344   -0.8256   -3.2283 H   0  0  0  0  0  0  0  0  0  0  0  0
    3.4877   -1.6449   -2.1616 N   0  0  0  0  0  4  0  0  0  0  0  0
    2.4998   -1.4926   -2.1436 H   0  0  0  0  0  0  0  0  0  0  0  0
    3.6750   -2.6273   -2.1738 H   0  0  0  0  0  0  0  0  0  0  0  0
    3.9037   -1.2351   -1.3505 H   0  0  0  0  0  0  0  0  0  0  0  0
    0.0027    2.8931   -0.0219 C   0  0  0  0  0  0  0  0  0  0  0  0
   -0.7260    3.1960   -0.6214 H   0  0  0  0  0  0  0  0  0  0  0  0
    0.8851    3.1950   -0.3564 H   0  0  0  0  0  0  0  0  0  0  0  0
   -0.1575    3.3486    0.9553 H   0  0  0  0  0  0  0  0  0  0  0  0
   -0.0016    1.4011   -0.0010 C   0  0  0  0  0  0  0  0  0  0  0  0
   -1.2038    0.6966    0.0005 C   0  0  0  0  0  0  0  0  0  0  0  0
   -2.0665    1.1903    0.0002 H   0  0  0  0  0  0  0  0  0  0  0  0
   -1.2104   -0.6925   -0.0000 C   0  0  0  0  0  0  0  0  0  0  0  0
   -2.0819   -1.1900    0.0013 H   0  0  0  0  0  0  0  0  0  0  0  0
    0.0015   -1.3963   -0.0004 C   0  0  0  0  0  0  0  0  0  0  0  0
   -0.0072   -2.3927   -0.0010 H   0  0  0  0  0  0  0  0  0  0  0  0
    1.2104   -0.7001   -0.0000 C   0  0  0  0  0  0  0  0  0  0  0  0
    2.0878   -1.1992    0.0010 H   0  0  0  0  0  0  0  0  0  0  0  0
    1.2038    0.6912    0.0009 C   0  0  0  0  0  0  0  0  0  0  0  0
    2.0673    1.1917    0.0023 H   0  0  0  0  0  0  0  0  0  0  0  0
  1  5  1  0
  5  8  1  0
  1  2  1  0
  1  3  1  0
  1  4  1  0
  5  6  1  0
  5  7  1  0
  8  9  1  0
  8 10  1  0
  8 11  1  0
 12 16  1  0
 16 17  2  0
 17 19  1  0
 19 21  2  0
 21 23  1  0
 23 25  2  0
 25 16  1  0
 12 13  1  0
 12 14  1  0
 12 15  1  0
 17 18  1  0
 19 20  1  0
 21 22  1  0
 23 24  1  0
 25 26  1  0
M  CHG  1   8   1
M  END
>  <PDB_ID>  (86) 
pdb2b7j

>  <RESIDUE_NAME>  (86) 
LYS   PHE

>  <FRAG_NAME>  (86) 
ETAM   MBZ

>  <FRAG_ATOM_NUM>  (86) 
fragi: 11  fragj: 15

>  <atom.prop.CHAIN_ID>  (86) 
A A A A A A A A A A A Z Z Z Z Z Z Z Z Z Z Z Z Z Z Z

>  <atom.prop.IS_HEAVY_ATOM>  (86) 
1 0 0 0 1 0 0 1 0 0 0 1 0 0 0 1 1 0 1 0 1 0 1 0 1 0

>  <DIFUSE_FUNC_ATOM>  (86) 
n/a

>  <FINAL_SINGLE_POINT_ENERGY>  (86) 
0

>  <NONCOV_INTER_ENERGY_QM>  (86) 
0

>  <FF_Energy>  (86) 
-0.59

>  <QM_Energy>  (86) 
-6.58

>  <source>  (86) 
ETAM_MBZ

>  <Index>  (86) 
825

$$$$
ETAM-pdb1aw7-B-LYS-267:MBZ-pdb1aw7-B-PHE-331
     RDKit          3D

 26 25  0  0  0  0  0  0  0  0999 V2000
    3.6936    0.2096    2.5569 C   0  0  0  0  0  0  0  0  0  0  0  0
    3.6240    0.9050    1.8391 H   0  0  0  0  0  0  0  0  0  0  0  0
    4.6405    0.1618    2.8800 H   0  0  0  0  0  0  0  0  0  0  0  0
    3.0747    0.5354    3.3930 H   0  0  0  0  0  0  0  0  0  0  0  0
    3.3153   -1.1694    1.9421 C   0  0  0  0  0  0  0  0  0  0  0  0
    2.3146   -1.3214    2.1009 H   0  0  0  0  0  0  0  0  0  0  0  0
    3.4264   -1.1028    0.9257 H   0  0  0  0  0  0  0  0  0  0  0  0
    4.0671   -2.4022    2.4228 N   0  0  0  0  0  4  0  0  0  0  0  0
    3.8700   -3.1529    1.8017 H   0  0  0  0  0  0  0  0  0  0  0  0
    5.0393   -2.1976    2.4235 H   0  0  0  0  0  0  0  0  0  0  0  0
    3.7571   -2.6221    3.3416 H   0  0  0  0  0  0  0  0  0  0  0  0
   -0.0068    2.9255   -0.0951 C   0  0  0  0  0  0  0  0  0  0  0  0
    0.8575    3.2425    0.2562 H   0  0  0  0  0  0  0  0  0  0  0  0
   -0.7643    3.2503    0.4459 H   0  0  0  0  0  0  0  0  0  0  0  0
   -0.1234    3.3096   -1.1085 H   0  0  0  0  0  0  0  0  0  0  0  0
   -0.0033    1.3924   -0.0011 C   0  0  0  0  0  0  0  0  0  0  0  0
   -1.1892    0.6649    0.0045 C   0  0  0  0  0  0  0  0  0  0  0  0
   -2.0643    1.1407    0.0109 H   0  0  0  0  0  0  0  0  0  0  0  0
   -1.1746   -0.7308    0.0000 C   0  0  0  0  0  0  0  0  0  0  0  0
   -2.0495   -1.2238    0.0047 H   0  0  0  0  0  0  0  0  0  0  0  0
    0.0106   -1.3614   -0.0085 C   0  0  0  0  0  0  0  0  0  0  0  0
    0.0386   -2.3810   -0.0221 H   0  0  0  0  0  0  0  0  0  0  0  0
    1.1746   -0.6649   -0.0000 C   0  0  0  0  0  0  0  0  0  0  0  0
    2.0747   -1.1669    0.0039 H   0  0  0  0  0  0  0  0  0  0  0  0
    1.1819    0.6998    0.0051 C   0  0  0  0  0  0  0  0  0  0  0  0
    2.0502    1.1992    0.0129 H   0  0  0  0  0  0  0  0  0  0  0  0
  1  5  1  0
  5  8  1  0
  1  2  1  0
  1  3  1  0
  1  4  1  0
  5  6  1  0
  5  7  1  0
  8  9  1  0
  8 10  1  0
  8 11  1  0
 12 16  1  0
 16 17  2  0
 17 19  1  0
 19 21  2  0
 21 23  1  0
 23 25  2  0
 25 16  1  0
 12 13  1  0
 12 14  1  0
 12 15  1  0
 17 18  1  0
 19 20  1  0
 21 22  1  0
 23 24  1  0
 25 26  1  0
M  CHG  1   8   1
M  END
>  <PDB_ID>  (87) 
pdb1aw7

>  <RESIDUE_NAME>  (87) 
LYS   PHE

>  <FRAG_NAME>  (87) 
ETAM   MBZ

>  <FRAG_ATOM_NUM>  (87) 
fragi: 11  fragj: 15

>  <atom.prop.CHAIN_ID>  (87) 
A A A A A A A A A A A Z Z Z Z Z Z Z Z Z Z Z Z Z Z Z

>  <atom.prop.IS_HEAVY_ATOM>  (87) 
1 0 0 0 1 0 0 1 0 0 0 1 0 0 0 1 1 0 1 0 1 0 1 0 1 0

>  <DIFUSE_FUNC_ATOM>  (87) 
n/a

>  <FINAL_SINGLE_POINT_ENERGY>  (87) 
0

>  <NONCOV_INTER_ENERGY_QM>  (87) 
0

>  <FF_Energy>  (87) 
18.36

>  <QM_Energy>  (87) 
1.54

>  <source>  (87) 
ETAM_MBZ

>  <Index>  (87) 
827

$$$$
ETAM-pdb1aw7-C-LYS-467:MBZ-pdb1aw7-C-PHE-531
     RDKit          3D

 26 25  0  0  0  0  0  0  0  0999 V2000
    2.9859    0.5119    2.9695 C   0  0  0  0  0  0  0  0  0  0  0  0
    2.6623    1.1562    2.2766 H   0  0  0  0  0  0  0  0  0  0  0  0
    3.9541    0.6774    3.1534 H   0  0  0  0  0  0  0  0  0  0  0  0
    2.4226    0.6767    3.8881 H   0  0  0  0  0  0  0  0  0  0  0  0
    2.8379   -0.9097    2.4120 C   0  0  0  0  0  0  0  0  0  0  0  0
    1.9202   -1.2690    2.6772 H   0  0  0  0  0  0  0  0  0  0  0  0
    2.8418   -0.8614    1.3931 H   0  0  0  0  0  0  0  0  0  0  0  0
    3.8837   -1.9227    2.8406 N   0  0  0  0  0  4  0  0  0  0  0  0
    4.3855   -2.2209    2.0346 H   0  0  0  0  0  0  0  0  0  0  0  0
    4.4990   -1.4878    3.4903 H   0  0  0  0  0  0  0  0  0  0  0  0
    3.4218   -2.6947    3.2656 H   0  0  0  0  0  0  0  0  0  0  0  0
   -0.0053    2.9099   -0.0751 C   0  0  0  0  0  0  0  0  0  0  0  0
    0.8663    3.2247    0.2644 H   0  0  0  0  0  0  0  0  0  0  0  0
   -0.7524    3.2389    0.4797 H   0  0  0  0  0  0  0  0  0  0  0  0
   -0.1367    3.2895   -1.0884 H   0  0  0  0  0  0  0  0  0  0  0  0
   -0.0087    1.4038   -0.0016 C   0  0  0  0  0  0  0  0  0  0  0  0
   -1.2013    0.7019    0.0055 C   0  0  0  0  0  0  0  0  0  0  0  0
   -2.0703    1.1644    0.0128 H   0  0  0  0  0  0  0  0  0  0  0  0
   -1.1841   -0.7217    0.0000 C   0  0  0  0  0  0  0  0  0  0  0  0
   -2.0619   -1.2050   -0.0029 H   0  0  0  0  0  0  0  0  0  0  0  0
    0.0078   -1.3725    0.0005 C   0  0  0  0  0  0  0  0  0  0  0  0
    0.0169   -2.3915    0.0003 H   0  0  0  0  0  0  0  0  0  0  0  0
    1.1841   -0.6925    0.0000 C   0  0  0  0  0  0  0  0  0  0  0  0
    2.0760   -1.1995    0.0045 H   0  0  0  0  0  0  0  0  0  0  0  0
    1.2022    0.6811   -0.0044 C   0  0  0  0  0  0  0  0  0  0  0  0
    2.0614    1.1812   -0.0103 H   0  0  0  0  0  0  0  0  0  0  0  0
  1  5  1  0
  5  8  1  0
  1  2  1  0
  1  3  1  0
  1  4  1  0
  5  6  1  0
  5  7  1  0
  8  9  1  0
  8 10  1  0
  8 11  1  0
 12 16  1  0
 16 17  2  0
 17 19  1  0
 19 21  2  0
 21 23  1  0
 23 25  2  0
 25 16  1  0
 12 13  1  0
 12 14  1  0
 12 15  1  0
 17 18  1  0
 19 20  1  0
 21 22  1  0
 23 24  1  0
 25 26  1  0
M  CHG  1   8   1
M  END
>  <PDB_ID>  (88) 
pdb1aw7

>  <RESIDUE_NAME>  (88) 
LYS   PHE

>  <FRAG_NAME>  (88) 
ETAM   MBZ

>  <FRAG_ATOM_NUM>  (88) 
fragi: 11  fragj: 15

>  <atom.prop.CHAIN_ID>  (88) 
A A A A A A A A A A A Z Z Z Z Z Z Z Z Z Z Z Z Z Z Z

>  <atom.prop.IS_HEAVY_ATOM>  (88) 
1 0 0 0 1 0 0 1 0 0 0 1 0 0 0 1 1 0 1 0 1 0 1 0 1 0

>  <DIFUSE_FUNC_ATOM>  (88) 
n/a

>  <FINAL_SINGLE_POINT_ENERGY>  (88) 
0

>  <NONCOV_INTER_ENERGY_QM>  (88) 
0

>  <FF_Energy>  (88) 
21.52

>  <QM_Energy>  (88) 
0.28

>  <source>  (88) 
ETAM_MBZ

>  <Index>  (88) 
829

$$$$
ETAM-pdb1aw7-D-LYS-667:MBZ-pdb1aw7-D-PHE-731
     RDKit          3D

 26 25  0  0  0  0  0  0  0  0999 V2000
    3.4431    0.6822    2.4072 C   0  0  0  0  0  0  0  0  0  0  0  0
    2.9651    1.2524    1.7441 H   0  0  0  0  0  0  0  0  0  0  0  0
    4.3987    0.9571    2.4701 H   0  0  0  0  0  0  0  0  0  0  0  0
    2.9750    0.8127    3.3829 H   0  0  0  0  0  0  0  0  0  0  0  0
    3.3841   -0.7612    1.9380 C   0  0  0  0  0  0  0  0  0  0  0  0
    2.4405   -1.1262    2.1192 H   0  0  0  0  0  0  0  0  0  0  0  0
    3.4858   -0.7770    0.9148 H   0  0  0  0  0  0  0  0  0  0  0  0
    4.3777   -1.7262    2.5206 N   0  0  0  0  0  4  0  0  0  0  0  0
    4.8254   -1.2982    3.3019 H   0  0  0  0  0  0  0  0  0  0  0  0
    3.8974   -2.5499    2.8125 H   0  0  0  0  0  0  0  0  0  0  0  0
    5.0536   -1.9553    1.8248 H   0  0  0  0  0  0  0  0  0  0  0  0
   -0.0238    2.8961   -0.1768 C   0  0  0  0  0  0  0  0  0  0  0  0
    0.8696    3.2483    0.0525 H   0  0  0  0  0  0  0  0  0  0  0  0
   -0.7227    3.2682    0.4136 H   0  0  0  0  0  0  0  0  0  0  0  0
   -0.2501    3.2252   -1.1910 H   0  0  0  0  0  0  0  0  0  0  0  0
   -0.0031    1.4035   -0.0061 C   0  0  0  0  0  0  0  0  0  0  0  0
   -1.2007    0.6762    0.0086 C   0  0  0  0  0  0  0  0  0  0  0  0
   -2.0699    1.1621    0.0241 H   0  0  0  0  0  0  0  0  0  0  0  0
   -1.1990   -0.7180    0.0000 C   0  0  0  0  0  0  0  0  0  0  0  0
   -2.0723   -1.2114    0.0003 H   0  0  0  0  0  0  0  0  0  0  0  0
   -0.0004   -1.3833   -0.0062 C   0  0  0  0  0  0  0  0  0  0  0  0
    0.0107   -2.3938   -0.0159 H   0  0  0  0  0  0  0  0  0  0  0  0
    1.1990   -0.6907   -0.0000 C   0  0  0  0  0  0  0  0  0  0  0  0
    2.0826   -1.1862    0.0031 H   0  0  0  0  0  0  0  0  0  0  0  0
    1.2041    0.7122    0.0036 C   0  0  0  0  0  0  0  0  0  0  0  0
    2.0636    1.2019    0.0122 H   0  0  0  0  0  0  0  0  0  0  0  0
  1  5  1  0
  5  8  1  0
  1  2  1  0
  1  3  1  0
  1  4  1  0
  5  6  1  0
  5  7  1  0
  8  9  1  0
  8 10  1  0
  8 11  1  0
 12 16  1  0
 16 17  2  0
 17 19  1  0
 19 21  2  0
 21 23  1  0
 23 25  2  0
 25 16  1  0
 12 13  1  0
 12 14  1  0
 12 15  1  0
 17 18  1  0
 19 20  1  0
 21 22  1  0
 23 24  1  0
 25 26  1  0
M  CHG  1   8   1
M  END
>  <PDB_ID>  (89) 
pdb1aw7

>  <RESIDUE_NAME>  (89) 
LYS   PHE

>  <FRAG_NAME>  (89) 
ETAM   MBZ

>  <FRAG_ATOM_NUM>  (89) 
fragi: 11  fragj: 15

>  <atom.prop.CHAIN_ID>  (89) 
A A A A A A A A A A A Z Z Z Z Z Z Z Z Z Z Z Z Z Z Z

>  <atom.prop.IS_HEAVY_ATOM>  (89) 
1 0 0 0 1 0 0 1 0 0 0 1 0 0 0 1 1 0 1 0 1 0 1 0 1 0

>  <DIFUSE_FUNC_ATOM>  (89) 
n/a

>  <FINAL_SINGLE_POINT_ENERGY>  (89) 
0

>  <NONCOV_INTER_ENERGY_QM>  (89) 
0

>  <FF_Energy>  (89) 
13.9

>  <QM_Energy>  (89) 
1.32

>  <source>  (89) 
ETAM_MBZ

>  <Index>  (89) 
831

$$$$
ETAM-pdb1aw7-D-LYS-670:MBZ-pdb1aw7-D-PHE-683
     RDKit          3D

 26 25  0  0  0  0  0  0  0  0999 V2000
    0.7028    1.9087    4.4435 C   0  0  0  0  0  0  0  0  0  0  0  0
    1.3263    1.3193    4.9739 H   0  0  0  0  0  0  0  0  0  0  0  0
    0.3025    2.5884    5.0725 H   0  0  0  0  0  0  0  0  0  0  0  0
    1.2974    2.4452    3.7042 H   0  0  0  0  0  0  0  0  0  0  0  0
   -0.4290    1.0390    3.8850 C   0  0  0  0  0  0  0  0  0  0  0  0
   -1.2406    1.1270    4.4833 H   0  0  0  0  0  0  0  0  0  0  0  0
   -0.6886    1.3817    2.9685 H   0  0  0  0  0  0  0  0  0  0  0  0
   -0.1036   -0.4562    3.7525 N   0  0  0  0  0  4  0  0  0  0  0  0
    0.8766   -0.5483    3.6335 H   0  0  0  0  0  0  0  0  0  0  0  0
   -0.4020   -0.9111    4.5821 H   0  0  0  0  0  0  0  0  0  0  0  0
   -0.5895   -0.8081    2.9622 H   0  0  0  0  0  0  0  0  0  0  0  0
    0.0079    2.9017   -0.0460 C   0  0  0  0  0  0  0  0  0  0  0  0
    0.8634    3.2168    0.3341 H   0  0  0  0  0  0  0  0  0  0  0  0
   -0.7624    3.2183    0.4857 H   0  0  0  0  0  0  0  0  0  0  0  0
   -0.0863    3.2869   -1.0612 H   0  0  0  0  0  0  0  0  0  0  0  0
    0.0111    1.4089    0.0003 C   0  0  0  0  0  0  0  0  0  0  0  0
   -1.2043    0.7032    0.0026 C   0  0  0  0  0  0  0  0  0  0  0  0
   -2.0630    1.2037    0.0053 H   0  0  0  0  0  0  0  0  0  0  0  0
   -1.2274   -0.6973    0.0000 C   0  0  0  0  0  0  0  0  0  0  0  0
   -2.1002   -1.1828    0.0026 H   0  0  0  0  0  0  0  0  0  0  0  0
   -0.0130   -1.4163   -0.0041 C   0  0  0  0  0  0  0  0  0  0  0  0
   -0.0111   -2.3997   -0.0100 H   0  0  0  0  0  0  0  0  0  0  0  0
    1.2274   -0.6968    0.0000 C   0  0  0  0  0  0  0  0  0  0  0  0
    2.0907   -1.1989    0.0034 H   0  0  0  0  0  0  0  0  0  0  0  0
    1.2062    0.6983    0.0012 C   0  0  0  0  0  0  0  0  0  0  0  0
    2.0773    1.1994    0.0018 H   0  0  0  0  0  0  0  0  0  0  0  0
  1  5  1  0
  5  8  1  0
  1  2  1  0
  1  3  1  0
  1  4  1  0
  5  6  1  0
  5  7  1  0
  8  9  1  0
  8 10  1  0
  8 11  1  0
 12 16  1  0
 16 17  2  0
 17 19  1  0
 19 21  2  0
 21 23  1  0
 23 25  2  0
 25 16  1  0
 12 13  1  0
 12 14  1  0
 12 15  1  0
 17 18  1  0
 19 20  1  0
 21 22  1  0
 23 24  1  0
 25 26  1  0
M  CHG  1   8   1
M  END
>  <PDB_ID>  (90) 
pdb1aw7

>  <RESIDUE_NAME>  (90) 
LYS   PHE

>  <FRAG_NAME>  (90) 
ETAM   MBZ

>  <FRAG_ATOM_NUM>  (90) 
fragi: 11  fragj: 15

>  <atom.prop.CHAIN_ID>  (90) 
A A A A A A A A A A A Z Z Z Z Z Z Z Z Z Z Z Z Z Z Z

>  <atom.prop.IS_HEAVY_ATOM>  (90) 
1 0 0 0 1 0 0 1 0 0 0 1 0 0 0 1 1 0 1 0 1 0 1 0 1 0

>  <DIFUSE_FUNC_ATOM>  (90) 
n/a

>  <FINAL_SINGLE_POINT_ENERGY>  (90) 
0

>  <NONCOV_INTER_ENERGY_QM>  (90) 
0

>  <FF_Energy>  (90) 
-7.42

>  <QM_Energy>  (90) 
-13.0

>  <source>  (90) 
ETAM_MBZ

>  <Index>  (90) 
832

$$$$
ETAM-pdb2bb0-A-LYS-130:MBZ-pdb2bb0-A-PHE-85
     RDKit          3D

 26 25  0  0  0  0  0  0  0  0999 V2000
   -3.0025    0.0675    4.9713 C   0  0  0  0  0  0  0  0  0  0  0  0
   -3.6624    0.2995    5.6852 H   0  0  0  0  0  0  0  0  0  0  0  0
   -2.4815    0.8827    4.7198 H   0  0  0  0  0  0  0  0  0  0  0  0
   -2.3118   -0.6771    5.3668 H   0  0  0  0  0  0  0  0  0  0  0  0
   -3.7565   -0.4237    3.7521 C   0  0  0  0  0  0  0  0  0  0  0  0
   -4.1464   -1.3288    3.9533 H   0  0  0  0  0  0  0  0  0  0  0  0
   -4.5105    0.2126    3.5568 H   0  0  0  0  0  0  0  0  0  0  0  0
   -2.8823   -0.5232    2.5608 N   0  0  0  0  0  4  0  0  0  0  0  0
   -3.4307   -0.7751    1.7630 H   0  0  0  0  0  0  0  0  0  0  0  0
   -2.4406    0.3588    2.3944 H   0  0  0  0  0  0  0  0  0  0  0  0
   -2.1818   -1.2214    2.7163 H   0  0  0  0  0  0  0  0  0  0  0  0
    0.0051    2.9132   -0.0260 C   0  0  0  0  0  0  0  0  0  0  0  0
   -0.7660    3.2111   -0.5685 H   0  0  0  0  0  0  0  0  0  0  0  0
    0.8605    3.2094   -0.4242 H   0  0  0  0  0  0  0  0  0  0  0  0
   -0.0814    3.3719    0.9590 H   0  0  0  0  0  0  0  0  0  0  0  0
    0.0006    1.4072   -0.0012 C   0  0  0  0  0  0  0  0  0  0  0  0
   -1.1991    0.6953    0.0019 C   0  0  0  0  0  0  0  0  0  0  0  0
   -2.0655    1.1834    0.0039 H   0  0  0  0  0  0  0  0  0  0  0  0
   -1.2051   -0.7034   -0.0000 C   0  0  0  0  0  0  0  0  0  0  0  0
   -2.0803   -1.1938    0.0012 H   0  0  0  0  0  0  0  0  0  0  0  0
   -0.0002   -1.4003   -0.0020 C   0  0  0  0  0  0  0  0  0  0  0  0
   -0.0015   -2.3967   -0.0048 H   0  0  0  0  0  0  0  0  0  0  0  0
    1.2051   -0.6981   -0.0000 C   0  0  0  0  0  0  0  0  0  0  0  0
    2.0854   -1.1933    0.0018 H   0  0  0  0  0  0  0  0  0  0  0  0
    1.1987    0.6993    0.0013 C   0  0  0  0  0  0  0  0  0  0  0  0
    2.0668    1.1940    0.0030 H   0  0  0  0  0  0  0  0  0  0  0  0
  1  5  1  0
  5  8  1  0
  1  2  1  0
  1  3  1  0
  1  4  1  0
  5  6  1  0
  5  7  1  0
  8  9  1  0
  8 10  1  0
  8 11  1  0
 12 16  1  0
 16 17  2  0
 17 19  1  0
 19 21  2  0
 21 23  1  0
 23 25  2  0
 25 16  1  0
 12 13  1  0
 12 14  1  0
 12 15  1  0
 17 18  1  0
 19 20  1  0
 21 22  1  0
 23 24  1  0
 25 26  1  0
M  CHG  1   8   1
M  END
>  <PDB_ID>  (91) 
pdb2bb0

>  <RESIDUE_NAME>  (91) 
LYS   PHE

>  <FRAG_NAME>  (91) 
ETAM   MBZ

>  <FRAG_ATOM_NUM>  (91) 
fragi: 11  fragj: 15

>  <atom.prop.CHAIN_ID>  (91) 
A A A A A A A A A A A Z Z Z Z Z Z Z Z Z Z Z Z Z Z Z

>  <atom.prop.IS_HEAVY_ATOM>  (91) 
1 0 0 0 1 0 0 1 0 0 0 1 0 0 0 1 1 0 1 0 1 0 1 0 1 0

>  <DIFUSE_FUNC_ATOM>  (91) 
n/a

>  <FINAL_SINGLE_POINT_ENERGY>  (91) 
0

>  <NONCOV_INTER_ENERGY_QM>  (91) 
0

>  <FF_Energy>  (91) 
-1.83

>  <QM_Energy>  (91) 
-8.77

>  <source>  (91) 
ETAM_MBZ

>  <Index>  (91) 
847

$$$$
ETAM-pdb2aw5-A-LYS-173:MBZ-pdb2aw5-A-PHE-458
     RDKit          3D

 26 25  0  0  0  0  0  0  0  0999 V2000
   -0.2681   -1.5687   -3.8101 C   0  0  0  0  0  0  0  0  0  0  0  0
   -0.4802   -1.7057   -2.8389 H   0  0  0  0  0  0  0  0  0  0  0  0
    0.1499   -2.4039   -4.1743 H   0  0  0  0  0  0  0  0  0  0  0  0
   -1.1893   -1.3591   -4.3536 H   0  0  0  0  0  0  0  0  0  0  0  0
    0.7545   -0.4444   -3.9160 C   0  0  0  0  0  0  0  0  0  0  0  0
    0.8468   -0.1732   -4.8698 H   0  0  0  0  0  0  0  0  0  0  0  0
    0.4505    0.3293   -3.3675 H   0  0  0  0  0  0  0  0  0  0  0  0
    2.0962   -0.9031   -3.4083 N   0  0  0  0  0  4  0  0  0  0  0  0
    1.9767   -1.7552   -2.9045 H   0  0  0  0  0  0  0  0  0  0  0  0
    2.7027   -1.0483   -4.1855 H   0  0  0  0  0  0  0  0  0  0  0  0
    2.4713   -0.2018   -2.8082 H   0  0  0  0  0  0  0  0  0  0  0  0
   -0.0063    2.9101   -0.0175 C   0  0  0  0  0  0  0  0  0  0  0  0
   -0.7708    3.2085   -0.5776 H   0  0  0  0  0  0  0  0  0  0  0  0
    0.8541    3.2133   -0.4114 H   0  0  0  0  0  0  0  0  0  0  0  0
   -0.1073    3.3925    0.9548 H   0  0  0  0  0  0  0  0  0  0  0  0
   -0.0048    1.4089    0.0111 C   0  0  0  0  0  0  0  0  0  0  0  0
   -1.2054    0.6909   -0.0095 C   0  0  0  0  0  0  0  0  0  0  0  0
   -2.0716    1.1741   -0.0326 H   0  0  0  0  0  0  0  0  0  0  0  0
   -1.2027   -0.7104    0.0000 C   0  0  0  0  0  0  0  0  0  0  0  0
   -2.0713   -1.2067    0.0090 H   0  0  0  0  0  0  0  0  0  0  0  0
    0.0125   -1.3966   -0.0009 C   0  0  0  0  0  0  0  0  0  0  0  0
    0.0106   -2.3966   -0.0027 H   0  0  0  0  0  0  0  0  0  0  0  0
    1.2027   -0.6962   -0.0000 C   0  0  0  0  0  0  0  0  0  0  0  0
    2.0915   -1.1857    0.0023 H   0  0  0  0  0  0  0  0  0  0  0  0
    1.1977    0.7033   -0.0007 C   0  0  0  0  0  0  0  0  0  0  0  0
    2.0628    1.1976   -0.0106 H   0  0  0  0  0  0  0  0  0  0  0  0
  1  5  1  0
  5  8  1  0
  1  2  1  0
  1  3  1  0
  1  4  1  0
  5  6  1  0
  5  7  1  0
  8  9  1  0
  8 10  1  0
  8 11  1  0
 12 16  1  0
 16 17  2  0
 17 19  1  0
 19 21  2  0
 21 23  1  0
 23 25  2  0
 25 16  1  0
 12 13  1  0
 12 14  1  0
 12 15  1  0
 17 18  1  0
 19 20  1  0
 21 22  1  0
 23 24  1  0
 25 26  1  0
M  CHG  1   8   1
M  END
>  <PDB_ID>  (92) 
pdb2aw5

>  <RESIDUE_NAME>  (92) 
LYS   PHE

>  <FRAG_NAME>  (92) 
ETAM   MBZ

>  <FRAG_ATOM_NUM>  (92) 
fragi: 11  fragj: 15

>  <atom.prop.CHAIN_ID>  (92) 
A A A A A A A A A A A Z Z Z Z Z Z Z Z Z Z Z Z Z Z Z

>  <atom.prop.IS_HEAVY_ATOM>  (92) 
1 0 0 0 1 0 0 1 0 0 0 1 0 0 0 1 1 0 1 0 1 0 1 0 1 0

>  <DIFUSE_FUNC_ATOM>  (92) 
n/a

>  <FINAL_SINGLE_POINT_ENERGY>  (92) 
0

>  <NONCOV_INTER_ENERGY_QM>  (92) 
0

>  <FF_Energy>  (92) 
-5.25

>  <QM_Energy>  (92) 
-11.0

>  <source>  (92) 
ETAM_MBZ

>  <Index>  (92) 
863

$$$$
ETAM-pdb1avs-B-LYS-23:MBZ-pdb1avs-B-PHE-75
     RDKit          3D

 26 25  0  0  0  0  0  0  0  0999 V2000
   -0.6178   -0.7823   -3.7931 C   0  0  0  0  0  0  0  0  0  0  0  0
   -0.7757   -0.2007   -4.6053 H   0  0  0  0  0  0  0  0  0  0  0  0
   -1.5198   -1.0273   -3.4080 H   0  0  0  0  0  0  0  0  0  0  0  0
   -0.1101   -1.6940   -4.1080 H   0  0  0  0  0  0  0  0  0  0  0  0
    0.1292    0.0413   -2.7589 C   0  0  0  0  0  0  0  0  0  0  0  0
   -0.4222    0.0875   -1.9198 H   0  0  0  0  0  0  0  0  0  0  0  0
    0.9989   -0.4151   -2.5455 H   0  0  0  0  0  0  0  0  0  0  0  0
    0.4063    1.4198   -3.2371 N   0  0  0  0  0  4  0  0  0  0  0  0
   -0.4203    1.8015   -3.6514 H   0  0  0  0  0  0  0  0  0  0  0  0
    0.6861    1.9898   -2.4652 H   0  0  0  0  0  0  0  0  0  0  0  0
    1.1394    1.3953   -3.9173 H   0  0  0  0  0  0  0  0  0  0  0  0
   -0.0239    2.9062   -0.0520 C   0  0  0  0  0  0  0  0  0  0  0  0
   -0.3018    3.1808   -0.9459 H   0  0  0  0  0  0  0  0  0  0  0  0
    0.8658    3.2208    0.1954 H   0  0  0  0  0  0  0  0  0  0  0  0
   -0.7370    3.3162    0.6632 H   0  0  0  0  0  0  0  0  0  0  0  0
   -0.0182    1.3946   -0.0045 C   0  0  0  0  0  0  0  0  0  0  0  0
   -1.2067    0.6587   -0.0136 C   0  0  0  0  0  0  0  0  0  0  0  0
   -2.0828    1.1491   -0.0313 H   0  0  0  0  0  0  0  0  0  0  0  0
   -1.2188   -0.7333   -0.0000 C   0  0  0  0  0  0  0  0  0  0  0  0
   -2.0666   -1.2359   -0.0013 H   0  0  0  0  0  0  0  0  0  0  0  0
    0.0181   -1.3827    0.0171 C   0  0  0  0  0  0  0  0  0  0  0  0
    0.0423   -2.3894    0.0421 H   0  0  0  0  0  0  0  0  0  0  0  0
    1.2188   -0.6653    0.0000 C   0  0  0  0  0  0  0  0  0  0  0  0
    2.1035   -1.1585   -0.0118 H   0  0  0  0  0  0  0  0  0  0  0  0
    1.2068    0.7281    0.0009 C   0  0  0  0  0  0  0  0  0  0  0  0
    2.0530    1.2357    0.0044 H   0  0  0  0  0  0  0  0  0  0  0  0
  1  5  1  0
  5  8  1  0
  1  2  1  0
  1  3  1  0
  1  4  1  0
  5  6  1  0
  5  7  1  0
  8  9  1  0
  8 10  1  0
  8 11  1  0
 12 16  1  0
 16 17  2  0
 17 19  1  0
 19 21  2  0
 21 23  1  0
 23 25  2  0
 25 16  1  0
 12 13  1  0
 12 14  1  0
 12 15  1  0
 17 18  1  0
 19 20  1  0
 21 22  1  0
 23 24  1  0
 25 26  1  0
M  CHG  1   8   1
M  END
>  <PDB_ID>  (93) 
pdb1avs

>  <RESIDUE_NAME>  (93) 
LYS   PHE

>  <FRAG_NAME>  (93) 
ETAM   MBZ

>  <FRAG_ATOM_NUM>  (93) 
fragi: 11  fragj: 15

>  <atom.prop.CHAIN_ID>  (93) 
A A A A A A A A A A A Z Z Z Z Z Z Z Z Z Z Z Z Z Z Z

>  <atom.prop.IS_HEAVY_ATOM>  (93) 
1 0 0 0 1 0 0 1 0 0 0 1 0 0 0 1 1 0 1 0 1 0 1 0 1 0

>  <DIFUSE_FUNC_ATOM>  (93) 
n/a

>  <FINAL_SINGLE_POINT_ENERGY>  (93) 
0

>  <NONCOV_INTER_ENERGY_QM>  (93) 
0

>  <FF_Energy>  (93) 
14.6

>  <QM_Energy>  (93) 
-7.19

>  <source>  (93) 
ETAM_MBZ

>  <Index>  (93) 
871

$$$$
ETAM-pdb1axk-A-LYS-385:MBZ-pdb1axk-A-PHE-86
     RDKit          3D

 26 25  0  0  0  0  0  0  0  0999 V2000
    0.1818   -3.2598   -2.9409 C   0  0  0  0  0  0  0  0  0  0  0  0
   -0.3647   -4.0509   -2.7628 H   0  0  0  0  0  0  0  0  0  0  0  0
    0.4258   -2.7694   -2.1309 H   0  0  0  0  0  0  0  0  0  0  0  0
    1.0797   -3.5443   -3.4894 H   0  0  0  0  0  0  0  0  0  0  0  0
   -0.6387   -2.3078   -3.8445 C   0  0  0  0  0  0  0  0  0  0  0  0
   -0.2728   -1.4056   -3.7596 H   0  0  0  0  0  0  0  0  0  0  0  0
   -0.6170   -2.6501   -4.7593 H   0  0  0  0  0  0  0  0  0  0  0  0
   -2.0337   -2.3436   -3.3201 N   0  0  0  0  0  4  0  0  0  0  0  0
   -2.0261   -2.1219   -2.3462 H   0  0  0  0  0  0  0  0  0  0  0  0
   -2.5890   -1.6739   -3.8122 H   0  0  0  0  0  0  0  0  0  0  0  0
   -2.4135   -3.2582   -3.4531 H   0  0  0  0  0  0  0  0  0  0  0  0
    0.0283    2.8987    0.0430 C   0  0  0  0  0  0  0  0  0  0  0  0
   -0.7395    3.2265   -0.4539 H   0  0  0  0  0  0  0  0  0  0  0  0
    0.8855    3.1987   -0.3026 H   0  0  0  0  0  0  0  0  0  0  0  0
   -0.0614    3.2469    1.0719 H   0  0  0  0  0  0  0  0  0  0  0  0
    0.0057    1.3921    0.0060 C   0  0  0  0  0  0  0  0  0  0  0  0
   -1.2001    0.6914    0.0101 C   0  0  0  0  0  0  0  0  0  0  0  0
   -2.0591    1.1878    0.0195 H   0  0  0  0  0  0  0  0  0  0  0  0
   -1.2023   -0.6904   -0.0000 C   0  0  0  0  0  0  0  0  0  0  0  0
   -2.0807   -1.1870    0.0130 H   0  0  0  0  0  0  0  0  0  0  0  0
   -0.0083   -1.3812   -0.0259 C   0  0  0  0  0  0  0  0  0  0  0  0
   -0.0113   -2.3844   -0.0638 H   0  0  0  0  0  0  0  0  0  0  0  0
    1.2023   -0.6955    0.0000 C   0  0  0  0  0  0  0  0  0  0  0  0
    2.0755   -1.2043    0.0134 H   0  0  0  0  0  0  0  0  0  0  0  0
    1.2027    0.6837    0.0097 C   0  0  0  0  0  0  0  0  0  0  0  0
    2.0691    1.1832    0.0185 H   0  0  0  0  0  0  0  0  0  0  0  0
  1  5  1  0
  5  8  1  0
  1  2  1  0
  1  3  1  0
  1  4  1  0
  5  6  1  0
  5  7  1  0
  8  9  1  0
  8 10  1  0
  8 11  1  0
 12 16  1  0
 16 17  2  0
 17 19  1  0
 19 21  2  0
 21 23  1  0
 23 25  2  0
 25 16  1  0
 12 13  1  0
 12 14  1  0
 12 15  1  0
 17 18  1  0
 19 20  1  0
 21 22  1  0
 23 24  1  0
 25 26  1  0
M  CHG  1   8   1
M  END
>  <PDB_ID>  (94) 
pdb1axk

>  <RESIDUE_NAME>  (94) 
LYS   PHE

>  <FRAG_NAME>  (94) 
ETAM   MBZ

>  <FRAG_ATOM_NUM>  (94) 
fragi: 11  fragj: 15

>  <atom.prop.CHAIN_ID>  (94) 
A A A A A A A A A A A Z Z Z Z Z Z Z Z Z Z Z Z Z Z Z

>  <atom.prop.IS_HEAVY_ATOM>  (94) 
1 0 0 0 1 0 0 1 0 0 0 1 0 0 0 1 1 0 1 0 1 0 1 0 1 0

>  <DIFUSE_FUNC_ATOM>  (94) 
n/a

>  <FINAL_SINGLE_POINT_ENERGY>  (94) 
0

>  <NONCOV_INTER_ENERGY_QM>  (94) 
0

>  <FF_Energy>  (94) 
-2.29

>  <QM_Energy>  (94) 
-8.03

>  <source>  (94) 
ETAM_MBZ

>  <Index>  (94) 
876

$$$$
ETAM-pdb2bdt-A-LYS-142:MBZ-pdb2bdt-A-PHE-83
     RDKit          3D

 26 25  0  0  0  0  0  0  0  0999 V2000
   -1.0136    2.0902    4.5307 C   0  0  0  0  0  0  0  0  0  0  0  0
   -0.9106    3.0464    4.2705 H   0  0  0  0  0  0  0  0  0  0  0  0
   -1.2651    2.0221    5.4925 H   0  0  0  0  0  0  0  0  0  0  0  0
   -1.8027    1.6435    3.9260 H   0  0  0  0  0  0  0  0  0  0  0  0
    0.3277    1.3878    4.3323 C   0  0  0  0  0  0  0  0  0  0  0  0
    0.9906    1.7639    4.9902 H   0  0  0  0  0  0  0  0  0  0  0  0
    0.2112    0.4063    4.5266 H   0  0  0  0  0  0  0  0  0  0  0  0
    0.8719    1.5475    2.9483 N   0  0  0  0  0  4  0  0  0  0  0  0
    0.1452    1.3696    2.2878 H   0  0  0  0  0  0  0  0  0  0  0  0
    1.2102    2.4798    2.8342 H   0  0  0  0  0  0  0  0  0  0  0  0
    1.6183    0.8980    2.8121 H   0  0  0  0  0  0  0  0  0  0  0  0
   -0.0016    2.9049   -0.0800 C   0  0  0  0  0  0  0  0  0  0  0  0
    0.9311    3.2183   -0.0081 H   0  0  0  0  0  0  0  0  0  0  0  0
   -0.5607    3.2516    0.6547 H   0  0  0  0  0  0  0  0  0  0  0  0
   -0.4089    3.2882   -1.0155 H   0  0  0  0  0  0  0  0  0  0  0  0
    0.0004    1.4060   -0.0012 C   0  0  0  0  0  0  0  0  0  0  0  0
   -1.2035    0.6971    0.0019 C   0  0  0  0  0  0  0  0  0  0  0  0
   -2.0664    1.1880    0.0043 H   0  0  0  0  0  0  0  0  0  0  0  0
   -1.2102   -0.6992    0.0000 C   0  0  0  0  0  0  0  0  0  0  0  0
   -2.0811   -1.1935    0.0012 H   0  0  0  0  0  0  0  0  0  0  0  0
    0.0028   -1.4008   -0.0019 C   0  0  0  0  0  0  0  0  0  0  0  0
   -0.0028   -2.3957   -0.0053 H   0  0  0  0  0  0  0  0  0  0  0  0
    1.2102   -0.6995   -0.0000 C   0  0  0  0  0  0  0  0  0  0  0  0
    2.0890   -1.1949    0.0025 H   0  0  0  0  0  0  0  0  0  0  0  0
    1.2003    0.6964    0.0012 C   0  0  0  0  0  0  0  0  0  0  0  0
    2.0676    1.1944    0.0028 H   0  0  0  0  0  0  0  0  0  0  0  0
  1  5  1  0
  5  8  1  0
  1  2  1  0
  1  3  1  0
  1  4  1  0
  5  6  1  0
  5  7  1  0
  8  9  1  0
  8 10  1  0
  8 11  1  0
 12 16  1  0
 16 17  2  0
 17 19  1  0
 19 21  2  0
 21 23  1  0
 23 25  2  0
 25 16  1  0
 12 13  1  0
 12 14  1  0
 12 15  1  0
 17 18  1  0
 19 20  1  0
 21 22  1  0
 23 24  1  0
 25 26  1  0
M  CHG  1   8   1
M  END
>  <PDB_ID>  (95) 
pdb2bdt

>  <RESIDUE_NAME>  (95) 
LYS   PHE

>  <FRAG_NAME>  (95) 
ETAM   MBZ

>  <FRAG_ATOM_NUM>  (95) 
fragi: 11  fragj: 15

>  <atom.prop.CHAIN_ID>  (95) 
A A A A A A A A A A A Z Z Z Z Z Z Z Z Z Z Z Z Z Z Z

>  <atom.prop.IS_HEAVY_ATOM>  (95) 
1 0 0 0 1 0 0 1 0 0 0 1 0 0 0 1 1 0 1 0 1 0 1 0 1 0

>  <DIFUSE_FUNC_ATOM>  (95) 
n/a

>  <FINAL_SINGLE_POINT_ENERGY>  (95) 
0

>  <NONCOV_INTER_ENERGY_QM>  (95) 
0

>  <FF_Energy>  (95) 
-6.82

>  <QM_Energy>  (95) 
-13.14

>  <source>  (95) 
ETAM_MBZ

>  <Index>  (95) 
891

$$$$
ETAM-pdb1azi-A-LYS-98:MBZ-pdb1azi-A-PHE-151
     RDKit          3D

 26 25  0  0  0  0  0  0  0  0999 V2000
   -3.2440   -2.5939   -3.0384 C   0  0  0  0  0  0  0  0  0  0  0  0
   -2.3832   -2.2480   -3.5347 H   0  0  0  0  0  0  0  0  0  0  0  0
   -3.9524   -2.6037   -3.8161 H   0  0  0  0  0  0  0  0  0  0  0  0
   -3.0619   -3.6269   -2.7421 H   0  0  0  0  0  0  0  0  0  0  0  0
   -3.6558   -1.5422   -2.0733 C   0  0  0  0  0  0  0  0  0  0  0  0
   -4.5933   -1.7509   -1.7202 H   0  0  0  0  0  0  0  0  0  0  0  0
   -3.0384   -1.5651   -1.2578 H   0  0  0  0  0  0  0  0  0  0  0  0
   -3.6642   -0.1426   -2.6051 N   0  0  0  0  0  4  0  0  0  0  0  0
   -2.7677    0.2701   -2.4543 H   0  0  0  0  0  0  0  0  0  0  0  0
   -3.8654   -0.1648   -3.5824 H   0  0  0  0  0  0  0  0  0  0  0  0
   -4.3640    0.3842   -2.1275 H   0  0  0  0  0  0  0  0  0  0  0  0
    0.0425    2.9108   -0.0117 C   0  0  0  0  0  0  0  0  0  0  0  0
   -0.4306    3.2164   -0.8475 H   0  0  0  0  0  0  0  0  0  0  0  0
    1.0114    3.1773   -0.0819 H   0  0  0  0  0  0  0  0  0  0  0  0
   -0.3932    3.4383    0.8369 H   0  0  0  0  0  0  0  0  0  0  0  0
   -0.0049    1.4078    0.0007 C   0  0  0  0  0  0  0  0  0  0  0  0
   -1.1940    0.7037   -0.0062 C   0  0  0  0  0  0  0  0  0  0  0  0
   -2.0658    1.1912   -0.0166 H   0  0  0  0  0  0  0  0  0  0  0  0
   -1.2100   -0.6980   -0.0000 C   0  0  0  0  0  0  0  0  0  0  0  0
   -2.0843   -1.1844    0.0108 H   0  0  0  0  0  0  0  0  0  0  0  0
    0.0007   -1.4108   -0.0074 C   0  0  0  0  0  0  0  0  0  0  0  0
   -0.0015   -2.3972   -0.0180 H   0  0  0  0  0  0  0  0  0  0  0  0
    1.2100   -0.6949    0.0000 C   0  0  0  0  0  0  0  0  0  0  0  0
    2.0891   -1.1943   -0.0029 H   0  0  0  0  0  0  0  0  0  0  0  0
    1.1982    0.6922    0.0129 C   0  0  0  0  0  0  0  0  0  0  0  0
    2.0636    1.1963    0.0307 H   0  0  0  0  0  0  0  0  0  0  0  0
  1  5  1  0
  5  8  1  0
  1  2  1  0
  1  3  1  0
  1  4  1  0
  5  6  1  0
  5  7  1  0
  8  9  1  0
  8 10  1  0
  8 11  1  0
 12 16  1  0
 16 17  2  0
 17 19  1  0
 19 21  2  0
 21 23  1  0
 23 25  2  0
 25 16  1  0
 12 13  1  0
 12 14  1  0
 12 15  1  0
 17 18  1  0
 19 20  1  0
 21 22  1  0
 23 24  1  0
 25 26  1  0
M  CHG  1   8   1
M  END
>  <PDB_ID>  (96) 
pdb1azi

>  <RESIDUE_NAME>  (96) 
LYS   PHE

>  <FRAG_NAME>  (96) 
ETAM   MBZ

>  <FRAG_ATOM_NUM>  (96) 
fragi: 11  fragj: 15

>  <atom.prop.CHAIN_ID>  (96) 
A A A A A A A A A A A Z Z Z Z Z Z Z Z Z Z Z Z Z Z Z

>  <atom.prop.IS_HEAVY_ATOM>  (96) 
1 0 0 0 1 0 0 1 0 0 0 1 0 0 0 1 1 0 1 0 1 0 1 0 1 0

>  <DIFUSE_FUNC_ATOM>  (96) 
n/a

>  <FINAL_SINGLE_POINT_ENERGY>  (96) 
0

>  <NONCOV_INTER_ENERGY_QM>  (96) 
0

>  <FF_Energy>  (96) 
12.52

>  <QM_Energy>  (96) 
-4.07

>  <source>  (96) 
ETAM_MBZ

>  <Index>  (96) 
905

$$$$
ETAM-pdb1azm-A-LYS-213:MBZ-pdb1azm-A-PHE-260
     RDKit          3D

 26 25  0  0  0  0  0  0  0  0999 V2000
   -0.0266   -1.7384    4.3406 C   0  0  0  0  0  0  0  0  0  0  0  0
   -0.2360   -1.1376    3.5964 H   0  0  0  0  0  0  0  0  0  0  0  0
   -0.5201   -1.5211    5.1579 H   0  0  0  0  0  0  0  0  0  0  0  0
   -0.2670   -2.7598    4.0456 H   0  0  0  0  0  0  0  0  0  0  0  0
    1.4860   -1.6426    4.6394 C   0  0  0  0  0  0  0  0  0  0  0  0
    1.7027   -0.7365    4.8882 H   0  0  0  0  0  0  0  0  0  0  0  0
    1.7253   -2.3203    5.2823 H   0  0  0  0  0  0  0  0  0  0  0  0
    2.1301   -1.9648    3.3053 N   0  0  0  0  0  4  0  0  0  0  0  0
    3.0834   -1.6828    3.3366 H   0  0  0  0  0  0  0  0  0  0  0  0
    2.0645   -2.9459    3.1493 H   0  0  0  0  0  0  0  0  0  0  0  0
    1.6467   -1.4689    2.5911 H   0  0  0  0  0  0  0  0  0  0  0  0
   -0.0561    2.9077   -0.0533 C   0  0  0  0  0  0  0  0  0  0  0  0
    0.8040    3.2637    0.2096 H   0  0  0  0  0  0  0  0  0  0  0  0
   -0.8066    3.2154    0.4741 H   0  0  0  0  0  0  0  0  0  0  0  0
   -0.2344    3.2145   -1.0839 H   0  0  0  0  0  0  0  0  0  0  0  0
    0.0024    1.3975    0.0250 C   0  0  0  0  0  0  0  0  0  0  0  0
   -1.2079    0.6736   -0.0355 C   0  0  0  0  0  0  0  0  0  0  0  0
   -2.0665    1.1731   -0.1061 H   0  0  0  0  0  0  0  0  0  0  0  0
   -1.2159   -0.7112    0.0000 C   0  0  0  0  0  0  0  0  0  0  0  0
   -2.0805   -1.2096    0.0285 H   0  0  0  0  0  0  0  0  0  0  0  0
   -0.0016   -1.3882   -0.0030 C   0  0  0  0  0  0  0  0  0  0  0  0
    0.0097   -2.3915   -0.0080 H   0  0  0  0  0  0  0  0  0  0  0  0
    1.2159   -0.6844   -0.0000 C   0  0  0  0  0  0  0  0  0  0  0  0
    2.0893   -1.1827   -0.0062 H   0  0  0  0  0  0  0  0  0  0  0  0
    1.2070    0.7127    0.0136 C   0  0  0  0  0  0  0  0  0  0  0  0
    2.0677    1.2106    0.0141 H   0  0  0  0  0  0  0  0  0  0  0  0
  1  5  1  0
  5  8  1  0
  1  2  1  0
  1  3  1  0
  1  4  1  0
  5  6  1  0
  5  7  1  0
  8  9  1  0
  8 10  1  0
  8 11  1  0
 12 16  1  0
 16 17  2  0
 17 19  1  0
 19 21  2  0
 21 23  1  0
 23 25  2  0
 25 16  1  0
 12 13  1  0
 12 14  1  0
 12 15  1  0
 17 18  1  0
 19 20  1  0
 21 22  1  0
 23 24  1  0
 25 26  1  0
M  CHG  1   8   1
M  END
>  <PDB_ID>  (97) 
pdb1azm

>  <RESIDUE_NAME>  (97) 
LYS   PHE

>  <FRAG_NAME>  (97) 
ETAM   MBZ

>  <FRAG_ATOM_NUM>  (97) 
fragi: 11  fragj: 15

>  <atom.prop.CHAIN_ID>  (97) 
A A A A A A A A A A A Z Z Z Z Z Z Z Z Z Z Z Z Z Z Z

>  <atom.prop.IS_HEAVY_ATOM>  (97) 
1 0 0 0 1 0 0 1 0 0 0 1 0 0 0 1 1 0 1 0 1 0 1 0 1 0

>  <DIFUSE_FUNC_ATOM>  (97) 
n/a

>  <FINAL_SINGLE_POINT_ENERGY>  (97) 
0

>  <NONCOV_INTER_ENERGY_QM>  (97) 
0

>  <FF_Energy>  (97) 
-3.72

>  <QM_Energy>  (97) 
-9.88

>  <source>  (97) 
ETAM_MBZ

>  <Index>  (97) 
907

$$$$
ETAM-pdb1azi-A-LYS-102:MBZ-pdb1azi-A-PHE-106
     RDKit          3D

 26 25  0  0  0  0  0  0  0  0999 V2000
   -1.0236   -2.7286   -3.1063 C   0  0  0  0  0  0  0  0  0  0  0  0
   -0.7545   -3.6446   -3.5064 H   0  0  0  0  0  0  0  0  0  0  0  0
   -0.1660   -2.3996   -2.6296 H   0  0  0  0  0  0  0  0  0  0  0  0
   -1.2038   -2.0547   -3.9438 H   0  0  0  0  0  0  0  0  0  0  0  0
   -2.0760   -2.9299   -2.1135 C   0  0  0  0  0  0  0  0  0  0  0  0
   -1.6238   -3.0838   -1.1724 H   0  0  0  0  0  0  0  0  0  0  0  0
   -2.5698   -2.0097   -1.9576 H   0  0  0  0  0  0  0  0  0  0  0  0
   -3.0897   -3.9523   -2.2907 N   0  0  0  0  0  4  0  0  0  0  0  0
   -3.9344   -3.5482   -2.6587 H   0  0  0  0  0  0  0  0  0  0  0  0
   -2.7673   -4.6581   -2.9318 H   0  0  0  0  0  0  0  0  0  0  0  0
   -3.3015   -4.3923   -1.4112 H   0  0  0  0  0  0  0  0  0  0  0  0
    0.1164    2.8861   -0.0317 C   0  0  0  0  0  0  0  0  0  0  0  0
    0.9609    3.1201   -0.5555 H   0  0  0  0  0  0  0  0  0  0  0  0
    0.2765    3.2067    0.9242 H   0  0  0  0  0  0  0  0  0  0  0  0
   -0.6853    3.5023   -0.4385 H   0  0  0  0  0  0  0  0  0  0  0  0
   -0.0022    1.4084   -0.0004 C   0  0  0  0  0  0  0  0  0  0  0  0
   -1.2084    0.6965   -0.0250 C   0  0  0  0  0  0  0  0  0  0  0  0
   -2.0681    1.1993   -0.0621 H   0  0  0  0  0  0  0  0  0  0  0  0
   -1.2133   -0.6751   -0.0000 C   0  0  0  0  0  0  0  0  0  0  0  0
   -2.0849   -1.1829    0.0205 H   0  0  0  0  0  0  0  0  0  0  0  0
    0.0016   -1.3956   -0.0012 C   0  0  0  0  0  0  0  0  0  0  0  0
   -0.0261   -2.3923   -0.0038 H   0  0  0  0  0  0  0  0  0  0  0  0
    1.2133   -0.7173   -0.0000 C   0  0  0  0  0  0  0  0  0  0  0  0
    2.0859   -1.2139   -0.0166 H   0  0  0  0  0  0  0  0  0  0  0  0
    1.2090    0.6830    0.0266 C   0  0  0  0  0  0  0  0  0  0  0  0
    2.0721    1.1802    0.0647 H   0  0  0  0  0  0  0  0  0  0  0  0
  1  5  1  0
  5  8  1  0
  1  2  1  0
  1  3  1  0
  1  4  1  0
  5  6  1  0
  5  7  1  0
  8  9  1  0
  8 10  1  0
  8 11  1  0
 12 16  1  0
 16 17  2  0
 17 19  1  0
 19 21  2  0
 21 23  1  0
 23 25  2  0
 25 16  1  0
 12 13  1  0
 12 14  1  0
 12 15  1  0
 17 18  1  0
 19 20  1  0
 21 22  1  0
 23 24  1  0
 25 26  1  0
M  CHG  1   8   1
M  END
>  <PDB_ID>  (98) 
pdb1azi

>  <RESIDUE_NAME>  (98) 
LYS   PHE

>  <FRAG_NAME>  (98) 
ETAM   MBZ

>  <FRAG_ATOM_NUM>  (98) 
fragi: 11  fragj: 15

>  <atom.prop.CHAIN_ID>  (98) 
A A A A A A A A A A A Z Z Z Z Z Z Z Z Z Z Z Z Z Z Z

>  <atom.prop.IS_HEAVY_ATOM>  (98) 
1 0 0 0 1 0 0 1 0 0 0 1 0 0 0 1 1 0 1 0 1 0 1 0 1 0

>  <DIFUSE_FUNC_ATOM>  (98) 
n/a

>  <FINAL_SINGLE_POINT_ENERGY>  (98) 
0

>  <NONCOV_INTER_ENERGY_QM>  (98) 
0

>  <FF_Energy>  (98) 
1.39

>  <QM_Energy>  (98) 
-3.95

>  <source>  (98) 
ETAM_MBZ

>  <Index>  (98) 
919

$$$$
ETAM-pdb1ayx-A-LYS-191:MBZ-pdb1ayx-A-PHE-242
     RDKit          3D

 26 25  0  0  0  0  0  0  0  0999 V2000
    1.2234   -1.4854   -3.6055 C   0  0  0  0  0  0  0  0  0  0  0  0
    0.8566   -2.1114   -4.1877 H   0  0  0  0  0  0  0  0  0  0  0  0
    1.0213   -1.4623   -2.6984 H   0  0  0  0  0  0  0  0  0  0  0  0
    2.3077   -1.5260   -3.7083 H   0  0  0  0  0  0  0  0  0  0  0  0
    1.0719   -0.0868   -4.1986 C   0  0  0  0  0  0  0  0  0  0  0  0
    1.9140    0.4489   -3.9678 H   0  0  0  0  0  0  0  0  0  0  0  0
    1.0703   -0.1723   -5.2197 H   0  0  0  0  0  0  0  0  0  0  0  0
   -0.1169    0.6805   -3.7783 N   0  0  0  0  0  4  0  0  0  0  0  0
   -0.9347    0.3030   -4.2155 H   0  0  0  0  0  0  0  0  0  0  0  0
   -0.2200    0.6260   -2.7835 H   0  0  0  0  0  0  0  0  0  0  0  0
   -0.0124    1.6399   -4.0475 H   0  0  0  0  0  0  0  0  0  0  0  0
   -0.0145    2.9232    0.0143 C   0  0  0  0  0  0  0  0  0  0  0  0
   -0.5497    3.2255   -0.7560 H   0  0  0  0  0  0  0  0  0  0  0  0
    0.9267    3.2063   -0.0580 H   0  0  0  0  0  0  0  0  0  0  0  0
   -0.4362    3.3614    0.9189 H   0  0  0  0  0  0  0  0  0  0  0  0
   -0.0314    1.3925    0.0073 C   0  0  0  0  0  0  0  0  0  0  0  0
   -1.1787    0.6679    0.0278 C   0  0  0  0  0  0  0  0  0  0  0  0
   -2.0737    1.1516    0.0637 H   0  0  0  0  0  0  0  0  0  0  0  0
   -1.1937   -0.7082   -0.0000 C   0  0  0  0  0  0  0  0  0  0  0  0
   -2.0579   -1.2094   -0.0075 H   0  0  0  0  0  0  0  0  0  0  0  0
    0.0228   -1.3916   -0.0151 C   0  0  0  0  0  0  0  0  0  0  0  0
    0.0317   -2.3842   -0.0365 H   0  0  0  0  0  0  0  0  0  0  0  0
    1.1937   -0.6663    0.0000 C   0  0  0  0  0  0  0  0  0  0  0  0
    2.0943   -1.1611    0.0285 H   0  0  0  0  0  0  0  0  0  0  0  0
    1.1873    0.7055   -0.0200 C   0  0  0  0  0  0  0  0  0  0  0  0
    2.0374    1.2192   -0.0539 H   0  0  0  0  0  0  0  0  0  0  0  0
  1  5  1  0
  5  8  1  0
  1  2  1  0
  1  3  1  0
  1  4  1  0
  5  6  1  0
  5  7  1  0
  8  9  1  0
  8 10  1  0
  8 11  1  0
 12 16  1  0
 16 17  2  0
 17 19  1  0
 19 21  2  0
 21 23  1  0
 23 25  2  0
 25 16  1  0
 12 13  1  0
 12 14  1  0
 12 15  1  0
 17 18  1  0
 19 20  1  0
 21 22  1  0
 23 24  1  0
 25 26  1  0
M  CHG  1   8   1
M  END
>  <PDB_ID>  (99) 
pdb1ayx

>  <RESIDUE_NAME>  (99) 
LYS   PHE

>  <FRAG_NAME>  (99) 
ETAM   MBZ

>  <FRAG_ATOM_NUM>  (99) 
fragi: 11  fragj: 15

>  <atom.prop.CHAIN_ID>  (99) 
A A A A A A A A A A A Z Z Z Z Z Z Z Z Z Z Z Z Z Z Z

>  <atom.prop.IS_HEAVY_ATOM>  (99) 
1 0 0 0 1 0 0 1 0 0 0 1 0 0 0 1 1 0 1 0 1 0 1 0 1 0

>  <DIFUSE_FUNC_ATOM>  (99) 
n/a

>  <FINAL_SINGLE_POINT_ENERGY>  (99) 
0

>  <NONCOV_INTER_ENERGY_QM>  (99) 
0

>  <FF_Energy>  (99) 
-7.55

>  <QM_Energy>  (99) 
-12.56

>  <source>  (99) 
ETAM_MBZ

>  <Index>  (99) 
925

$$$$
ETAM-pdb1b06-E-LYS-120:MBZ-pdb1b06-E-PHE-116
     RDKit          3D

 26 25  0  0  0  0  0  0  0  0999 V2000
    1.0622   -2.4189    3.3376 C   0  0  0  0  0  0  0  0  0  0  0  0
    0.5769   -3.1154    2.8205 H   0  0  0  0  0  0  0  0  0  0  0  0
    1.0367   -1.5489    2.8589 H   0  0  0  0  0  0  0  0  0  0  0  0
    0.5846   -2.3031    4.3105 H   0  0  0  0  0  0  0  0  0  0  0  0
    2.5142   -2.8480    3.4850 C   0  0  0  0  0  0  0  0  0  0  0  0
    2.7645   -2.8224    4.4536 H   0  0  0  0  0  0  0  0  0  0  0  0
    2.6143   -3.7837    3.1420 H   0  0  0  0  0  0  0  0  0  0  0  0
    3.4272   -1.9474    2.7204 N   0  0  0  0  0  4  0  0  0  0  0  0
    4.0431   -1.4855    3.3572 H   0  0  0  0  0  0  0  0  0  0  0  0
    3.9580   -2.4906    2.0718 H   0  0  0  0  0  0  0  0  0  0  0  0
    2.8838   -1.2699    2.2269 H   0  0  0  0  0  0  0  0  0  0  0  0
    0.0020    2.9007    0.0285 C   0  0  0  0  0  0  0  0  0  0  0  0
   -0.4643    3.2235   -0.7812 H   0  0  0  0  0  0  0  0  0  0  0  0
    0.9419    3.2060    0.0502 H   0  0  0  0  0  0  0  0  0  0  0  0
   -0.5058    3.3221    0.8960 H   0  0  0  0  0  0  0  0  0  0  0  0
   -0.0001    1.4017    0.0004 C   0  0  0  0  0  0  0  0  0  0  0  0
   -1.1977    0.6965   -0.0002 C   0  0  0  0  0  0  0  0  0  0  0  0
   -2.0637    1.1862   -0.0017 H   0  0  0  0  0  0  0  0  0  0  0  0
   -1.2031   -0.6971    0.0000 C   0  0  0  0  0  0  0  0  0  0  0  0
   -2.0780   -1.1905    0.0008 H   0  0  0  0  0  0  0  0  0  0  0  0
    0.0014   -1.3940    0.0007 C   0  0  0  0  0  0  0  0  0  0  0  0
   -0.0038   -2.3932    0.0017 H   0  0  0  0  0  0  0  0  0  0  0  0
    1.2031   -0.6989   -0.0000 C   0  0  0  0  0  0  0  0  0  0  0  0
    2.0831   -1.1954    0.0015 H   0  0  0  0  0  0  0  0  0  0  0  0
    1.1964    0.6918   -0.0010 C   0  0  0  0  0  0  0  0  0  0  0  0
    2.0644    1.1894   -0.0037 H   0  0  0  0  0  0  0  0  0  0  0  0
  1  5  1  0
  5  8  1  0
  1  2  1  0
  1  3  1  0
  1  4  1  0
  5  6  1  0
  5  7  1  0
  8  9  1  0
  8 10  1  0
  8 11  1  0
 12 16  1  0
 16 17  2  0
 17 19  1  0
 19 21  2  0
 21 23  1  0
 23 25  2  0
 25 16  1  0
 12 13  1  0
 12 14  1  0
 12 15  1  0
 17 18  1  0
 19 20  1  0
 21 22  1  0
 23 24  1  0
 25 26  1  0
M  CHG  1   8   1
M  END
>  <PDB_ID>  (100) 
pdb1b06

>  <RESIDUE_NAME>  (100) 
LYS   PHE

>  <FRAG_NAME>  (100) 
ETAM   MBZ

>  <FRAG_ATOM_NUM>  (100) 
fragi: 11  fragj: 15

>  <atom.prop.CHAIN_ID>  (100) 
A A A A A A A A A A A Z Z Z Z Z Z Z Z Z Z Z Z Z Z Z

>  <atom.prop.IS_HEAVY_ATOM>  (100) 
1 0 0 0 1 0 0 1 0 0 0 1 0 0 0 1 1 0 1 0 1 0 1 0 1 0

>  <DIFUSE_FUNC_ATOM>  (100) 
n/a

>  <FINAL_SINGLE_POINT_ENERGY>  (100) 
0

>  <NONCOV_INTER_ENERGY_QM>  (100) 
0

>  <FF_Energy>  (100) 
-1.94

>  <QM_Energy>  (100) 
-7.0

>  <source>  (100) 
ETAM_MBZ

>  <Index>  (100) 
939

$$$$
ETAM-pdb2bgc-A-LYS-103:MBZ-pdb2bgc-B-PHE-114
     RDKit          3D

 26 25  0  0  0  0  0  0  0  0999 V2000
   -0.2323   -0.9457    4.3150 C   0  0  0  0  0  0  0  0  0  0  0  0
   -1.1036   -0.4680    4.1355 H   0  0  0  0  0  0  0  0  0  0  0  0
   -0.2135   -1.2036    5.2908 H   0  0  0  0  0  0  0  0  0  0  0  0
   -0.2260   -1.8625    3.7255 H   0  0  0  0  0  0  0  0  0  0  0  0
    0.9186    0.0305    4.0507 C   0  0  0  0  0  0  0  0  0  0  0  0
    0.7804    0.8410    4.6142 H   0  0  0  0  0  0  0  0  0  0  0  0
    1.7746   -0.4154    4.2999 H   0  0  0  0  0  0  0  0  0  0  0  0
    0.9423    0.4054    2.6286 N   0  0  0  0  0  4  0  0  0  0  0  0
    1.6216   -0.1481    2.1421 H   0  0  0  0  0  0  0  0  0  0  0  0
    0.0395    0.2505    2.2210 H   0  0  0  0  0  0  0  0  0  0  0  0
    1.1818    1.3749    2.5366 H   0  0  0  0  0  0  0  0  0  0  0  0
   -0.0061    2.9144    0.0065 C   0  0  0  0  0  0  0  0  0  0  0  0
    0.9218    3.2246    0.1134 H   0  0  0  0  0  0  0  0  0  0  0  0
   -0.5854    3.2160    0.7429 H   0  0  0  0  0  0  0  0  0  0  0  0
   -0.3939    3.3480   -0.9153 H   0  0  0  0  0  0  0  0  0  0  0  0
    0.0038    1.3951    0.0090 C   0  0  0  0  0  0  0  0  0  0  0  0
   -1.1877    0.6843    0.0011 C   0  0  0  0  0  0  0  0  0  0  0  0
   -2.0573    1.1829   -0.0057 H   0  0  0  0  0  0  0  0  0  0  0  0
   -1.2035   -0.6959    0.0000 C   0  0  0  0  0  0  0  0  0  0  0  0
   -2.0793   -1.1888    0.0099 H   0  0  0  0  0  0  0  0  0  0  0  0
   -0.0041   -1.3924   -0.0123 C   0  0  0  0  0  0  0  0  0  0  0  0
   -0.0021   -2.3885   -0.0306 H   0  0  0  0  0  0  0  0  0  0  0  0
    1.2035   -0.6889   -0.0000 C   0  0  0  0  0  0  0  0  0  0  0  0
    2.0814   -1.1868    0.0089 H   0  0  0  0  0  0  0  0  0  0  0  0
    1.1881    0.6978    0.0022 C   0  0  0  0  0  0  0  0  0  0  0  0
    2.0606    1.1964   -0.0023 H   0  0  0  0  0  0  0  0  0  0  0  0
  1  5  1  0
  5  8  1  0
  1  2  1  0
  1  3  1  0
  1  4  1  0
  5  6  1  0
  5  7  1  0
  8  9  1  0
  8 10  1  0
  8 11  1  0
 12 16  1  0
 16 17  2  0
 17 19  1  0
 19 21  2  0
 21 23  1  0
 23 25  2  0
 25 16  1  0
 12 13  1  0
 12 14  1  0
 12 15  1  0
 17 18  1  0
 19 20  1  0
 21 22  1  0
 23 24  1  0
 25 26  1  0
M  CHG  1   8   1
M  END
>  <PDB_ID>  (101) 
pdb2bgc

>  <RESIDUE_NAME>  (101) 
LYS   PHE

>  <FRAG_NAME>  (101) 
ETAM   MBZ

>  <FRAG_ATOM_NUM>  (101) 
fragi: 11  fragj: 15

>  <atom.prop.CHAIN_ID>  (101) 
A A A A A A A A A A A Z Z Z Z Z Z Z Z Z Z Z Z Z Z Z

>  <atom.prop.IS_HEAVY_ATOM>  (101) 
1 0 0 0 1 0 0 1 0 0 0 1 0 0 0 1 1 0 1 0 1 0 1 0 1 0

>  <DIFUSE_FUNC_ATOM>  (101) 
n/a

>  <FINAL_SINGLE_POINT_ENERGY>  (101) 
0

>  <NONCOV_INTER_ENERGY_QM>  (101) 
0

>  <FF_Energy>  (101) 
0.66

>  <QM_Energy>  (101) 
-11.49

>  <source>  (101) 
ETAM_MBZ

>  <Index>  (101) 
951

$$$$
ETAM-pdb2bgc-G-LYS-103:MBZ-pdb2bgc-F-PHE-114
     RDKit          3D

 26 25  0  0  0  0  0  0  0  0999 V2000
    0.0529   -1.1090    4.6894 C   0  0  0  0  0  0  0  0  0  0  0  0
   -0.7391   -0.5631    4.9692 H   0  0  0  0  0  0  0  0  0  0  0  0
    0.3478   -1.6794    5.4582 H   0  0  0  0  0  0  0  0  0  0  0  0
   -0.2424   -1.7572    3.8643 H   0  0  0  0  0  0  0  0  0  0  0  0
    1.1765   -0.1766    4.3201 C   0  0  0  0  0  0  0  0  0  0  0  0
    1.5965    0.1764    5.1544 H   0  0  0  0  0  0  0  0  0  0  0  0
    1.8576   -0.6776    3.7884 H   0  0  0  0  0  0  0  0  0  0  0  0
    0.6541    0.9434    3.5198 N   0  0  0  0  0  4  0  0  0  0  0  0
   -0.2982    0.7632    3.2640 H   0  0  0  0  0  0  0  0  0  0  0  0
    0.6961    1.7904    4.0530 H   0  0  0  0  0  0  0  0  0  0  0  0
    1.2030    1.0507    2.6877 H   0  0  0  0  0  0  0  0  0  0  0  0
   -0.0094    2.9281   -0.0696 C   0  0  0  0  0  0  0  0  0  0  0  0
    0.9192    3.2415   -0.0133 H   0  0  0  0  0  0  0  0  0  0  0  0
   -0.5633    3.2581    0.6710 H   0  0  0  0  0  0  0  0  0  0  0  0
   -0.4327    3.3209   -0.9941 H   0  0  0  0  0  0  0  0  0  0  0  0
    0.0005    1.4110   -0.0138 C   0  0  0  0  0  0  0  0  0  0  0  0
   -1.1899    0.7075    0.0046 C   0  0  0  0  0  0  0  0  0  0  0  0
   -2.0614    1.2055    0.0202 H   0  0  0  0  0  0  0  0  0  0  0  0
   -1.2209   -0.6878    0.0000 C   0  0  0  0  0  0  0  0  0  0  0  0
   -2.0980   -1.1691   -0.0106 H   0  0  0  0  0  0  0  0  0  0  0  0
   -0.0152   -1.4126    0.0117 C   0  0  0  0  0  0  0  0  0  0  0  0
   -0.0266   -2.4007    0.0277 H   0  0  0  0  0  0  0  0  0  0  0  0
    1.2209   -0.7141    0.0000 C   0  0  0  0  0  0  0  0  0  0  0  0
    2.0846   -1.2097   -0.0042 H   0  0  0  0  0  0  0  0  0  0  0  0
    1.2047    0.6960   -0.0025 C   0  0  0  0  0  0  0  0  0  0  0  0
    2.0723    1.1909    0.0028 H   0  0  0  0  0  0  0  0  0  0  0  0
  1  5  1  0
  5  8  1  0
  1  2  1  0
  1  3  1  0
  1  4  1  0
  5  6  1  0
  5  7  1  0
  8  9  1  0
  8 10  1  0
  8 11  1  0
 12 16  1  0
 16 17  2  0
 17 19  1  0
 19 21  2  0
 21 23  1  0
 23 25  2  0
 25 16  1  0
 12 13  1  0
 12 14  1  0
 12 15  1  0
 17 18  1  0
 19 20  1  0
 21 22  1  0
 23 24  1  0
 25 26  1  0
M  CHG  1   8   1
M  END
>  <PDB_ID>  (102) 
pdb2bgc

>  <RESIDUE_NAME>  (102) 
LYS   PHE

>  <FRAG_NAME>  (102) 
ETAM   MBZ

>  <FRAG_ATOM_NUM>  (102) 
fragi: 11  fragj: 15

>  <atom.prop.CHAIN_ID>  (102) 
A A A A A A A A A A A Z Z Z Z Z Z Z Z Z Z Z Z Z Z Z

>  <atom.prop.IS_HEAVY_ATOM>  (102) 
1 0 0 0 1 0 0 1 0 0 0 1 0 0 0 1 1 0 1 0 1 0 1 0 1 0

>  <DIFUSE_FUNC_ATOM>  (102) 
n/a

>  <FINAL_SINGLE_POINT_ENERGY>  (102) 
0

>  <NONCOV_INTER_ENERGY_QM>  (102) 
0

>  <FF_Energy>  (102) 
-7.39

>  <QM_Energy>  (102) 
-12.99

>  <source>  (102) 
ETAM_MBZ

>  <Index>  (102) 
954

$$$$
ETAM-pdb2bgr-A-LYS-523:MBZ-pdb2bgr-A-PHE-516
     RDKit          3D

 26 25  0  0  0  0  0  0  0  0999 V2000
    0.7990   -0.4203    3.3913 C   0  0  0  0  0  0  0  0  0  0  0  0
    0.9528   -0.3361    2.4033 H   0  0  0  0  0  0  0  0  0  0  0  0
    0.9046   -1.3825    3.6564 H   0  0  0  0  0  0  0  0  0  0  0  0
    1.5537    0.1691    3.9119 H   0  0  0  0  0  0  0  0  0  0  0  0
   -0.6059    0.0166    3.7018 C   0  0  0  0  0  0  0  0  0  0  0  0
   -0.6272    0.4800    4.5698 H   0  0  0  0  0  0  0  0  0  0  0  0
   -0.9484    0.5837    2.9726 H   0  0  0  0  0  0  0  0  0  0  0  0
   -1.4389   -1.2235    3.7888 N   0  0  0  0  0  4  0  0  0  0  0  0
   -0.8682   -2.0165    3.5856 H   0  0  0  0  0  0  0  0  0  0  0  0
   -1.8115   -1.3037    4.7112 H   0  0  0  0  0  0  0  0  0  0  0  0
   -2.1841   -1.1649    3.1273 H   0  0  0  0  0  0  0  0  0  0  0  0
    0.0009    2.8934    0.0143 C   0  0  0  0  0  0  0  0  0  0  0  0
    0.7244    3.1957    0.6204 H   0  0  0  0  0  0  0  0  0  0  0  0
   -0.8835    3.2029    0.3379 H   0  0  0  0  0  0  0  0  0  0  0  0
    0.1734    3.3625   -0.9544 H   0  0  0  0  0  0  0  0  0  0  0  0
   -0.0018    1.3967   -0.0077 C   0  0  0  0  0  0  0  0  0  0  0  0
   -1.1933    0.6939   -0.0043 C   0  0  0  0  0  0  0  0  0  0  0  0
   -2.0609    1.1846   -0.0059 H   0  0  0  0  0  0  0  0  0  0  0  0
   -1.1947   -0.6894   -0.0000 C   0  0  0  0  0  0  0  0  0  0  0  0
   -2.0712   -1.1883    0.0065 H   0  0  0  0  0  0  0  0  0  0  0  0
    0.0061   -1.3848   -0.0030 C   0  0  0  0  0  0  0  0  0  0  0  0
   -0.0075   -2.3886   -0.0081 H   0  0  0  0  0  0  0  0  0  0  0  0
    1.1947   -0.7025    0.0000 C   0  0  0  0  0  0  0  0  0  0  0  0
    2.0795   -1.1961   -0.0069 H   0  0  0  0  0  0  0  0  0  0  0  0
    1.1890    0.6861    0.0149 C   0  0  0  0  0  0  0  0  0  0  0  0
    2.0601    1.1817    0.0423 H   0  0  0  0  0  0  0  0  0  0  0  0
  1  5  1  0
  5  8  1  0
  1  2  1  0
  1  3  1  0
  1  4  1  0
  5  6  1  0
  5  7  1  0
  8  9  1  0
  8 10  1  0
  8 11  1  0
 12 16  1  0
 16 17  2  0
 17 19  1  0
 19 21  2  0
 21 23  1  0
 23 25  2  0
 25 16  1  0
 12 13  1  0
 12 14  1  0
 12 15  1  0
 17 18  1  0
 19 20  1  0
 21 22  1  0
 23 24  1  0
 25 26  1  0
M  CHG  1   8   1
M  END
>  <PDB_ID>  (103) 
pdb2bgr

>  <RESIDUE_NAME>  (103) 
LYS   PHE

>  <FRAG_NAME>  (103) 
ETAM   MBZ

>  <FRAG_ATOM_NUM>  (103) 
fragi: 11  fragj: 15

>  <atom.prop.CHAIN_ID>  (103) 
A A A A A A A A A A A Z Z Z Z Z Z Z Z Z Z Z Z Z Z Z

>  <atom.prop.IS_HEAVY_ATOM>  (103) 
1 0 0 0 1 0 0 1 0 0 0 1 0 0 0 1 1 0 1 0 1 0 1 0 1 0

>  <DIFUSE_FUNC_ATOM>  (103) 
n/a

>  <FINAL_SINGLE_POINT_ENERGY>  (103) 
0

>  <NONCOV_INTER_ENERGY_QM>  (103) 
0

>  <FF_Energy>  (103) 
-4.08

>  <QM_Energy>  (103) 
-10.15

>  <source>  (103) 
ETAM_MBZ

>  <Index>  (103) 
961

$$$$
ETAM-pdb2bh9-A-LYS-408:MBZ-pdb2bh9-A-PHE-412
     RDKit          3D

 26 25  0  0  0  0  0  0  0  0999 V2000
   -0.3895    1.2280   -3.2839 C   0  0  0  0  0  0  0  0  0  0  0  0
    0.4442    1.2735   -3.8215 H   0  0  0  0  0  0  0  0  0  0  0  0
   -0.2310    1.5611   -2.3619 H   0  0  0  0  0  0  0  0  0  0  0  0
   -1.1531    1.8438   -3.7590 H   0  0  0  0  0  0  0  0  0  0  0  0
   -0.8303   -0.2340   -3.1996 C   0  0  0  0  0  0  0  0  0  0  0  0
   -0.8333   -0.5159   -2.2366 H   0  0  0  0  0  0  0  0  0  0  0  0
   -1.7630   -0.3119   -3.5631 H   0  0  0  0  0  0  0  0  0  0  0  0
    0.0724   -1.1439   -3.9718 N   0  0  0  0  0  4  0  0  0  0  0  0
    0.3788   -1.8840   -3.3767 H   0  0  0  0  0  0  0  0  0  0  0  0
   -0.4291   -1.5200   -4.7485 H   0  0  0  0  0  0  0  0  0  0  0  0
    0.8597   -0.6248   -4.2975 H   0  0  0  0  0  0  0  0  0  0  0  0
    0.0004    2.8697   -0.0318 C   0  0  0  0  0  0  0  0  0  0  0  0
   -0.8174    3.1652   -0.5085 H   0  0  0  0  0  0  0  0  0  0  0  0
    0.8151    3.1654   -0.5133 H   0  0  0  0  0  0  0  0  0  0  0  0
    0.0039    3.3447    0.9493 H   0  0  0  0  0  0  0  0  0  0  0  0
    0.0009    1.3821    0.0161 C   0  0  0  0  0  0  0  0  0  0  0  0
   -1.1864    0.6807    0.0014 C   0  0  0  0  0  0  0  0  0  0  0  0
   -2.0548    1.1794   -0.0094 H   0  0  0  0  0  0  0  0  0  0  0  0
   -1.1911   -0.6864    0.0000 C   0  0  0  0  0  0  0  0  0  0  0  0
   -2.0698   -1.1876   -0.0021 H   0  0  0  0  0  0  0  0  0  0  0  0
   -0.0007   -1.3714    0.0034 C   0  0  0  0  0  0  0  0  0  0  0  0
   -0.0034   -2.3775    0.0077 H   0  0  0  0  0  0  0  0  0  0  0  0
    1.1911   -0.6849   -0.0000 C   0  0  0  0  0  0  0  0  0  0  0  0
    2.0732   -1.1918    0.0142 H   0  0  0  0  0  0  0  0  0  0  0  0
    1.1862    0.6799   -0.0209 C   0  0  0  0  0  0  0  0  0  0  0  0
    2.0556    1.1851   -0.0648 H   0  0  0  0  0  0  0  0  0  0  0  0
  1  5  1  0
  5  8  1  0
  1  2  1  0
  1  3  1  0
  1  4  1  0
  5  6  1  0
  5  7  1  0
  8  9  1  0
  8 10  1  0
  8 11  1  0
 12 16  1  0
 16 17  2  0
 17 19  1  0
 19 21  2  0
 21 23  1  0
 23 25  2  0
 25 16  1  0
 12 13  1  0
 12 14  1  0
 12 15  1  0
 17 18  1  0
 19 20  1  0
 21 22  1  0
 23 24  1  0
 25 26  1  0
M  CHG  1   8   1
M  END
>  <PDB_ID>  (104) 
pdb2bh9

>  <RESIDUE_NAME>  (104) 
LYS   PHE

>  <FRAG_NAME>  (104) 
ETAM   MBZ

>  <FRAG_ATOM_NUM>  (104) 
fragi: 11  fragj: 15

>  <atom.prop.CHAIN_ID>  (104) 
A A A A A A A A A A A Z Z Z Z Z Z Z Z Z Z Z Z Z Z Z

>  <atom.prop.IS_HEAVY_ATOM>  (104) 
1 0 0 0 1 0 0 1 0 0 0 1 0 0 0 1 1 0 1 0 1 0 1 0 1 0

>  <DIFUSE_FUNC_ATOM>  (104) 
n/a

>  <FINAL_SINGLE_POINT_ENERGY>  (104) 
0

>  <NONCOV_INTER_ENERGY_QM>  (104) 
0

>  <FF_Energy>  (104) 
1.63

>  <QM_Energy>  (104) 
-9.11

>  <source>  (104) 
ETAM_MBZ

>  <Index>  (104) 
977

$$$$
ETAM-pdb1b12-B-LYS-217:MBZ-pdb1b12-B-PHE-209
     RDKit          3D

 26 25  0  0  0  0  0  0  0  0999 V2000
    1.5554    2.2737    3.5936 C   0  0  0  0  0  0  0  0  0  0  0  0
    0.9241    2.9156    3.1669 H   0  0  0  0  0  0  0  0  0  0  0  0
    2.4563    2.3514    3.1761 H   0  0  0  0  0  0  0  0  0  0  0  0
    1.6332    2.5047    4.6560 H   0  0  0  0  0  0  0  0  0  0  0  0
    1.0346    0.8529    3.3472 C   0  0  0  0  0  0  0  0  0  0  0  0
    0.1938    0.7243    3.8733 H   0  0  0  0  0  0  0  0  0  0  0  0
    0.8345    0.7494    2.3718 H   0  0  0  0  0  0  0  0  0  0  0  0
    2.0348   -0.1750    3.7567 N   0  0  0  0  0  4  0  0  0  0  0  0
    2.0033   -0.9399    3.1151 H   0  0  0  0  0  0  0  0  0  0  0  0
    2.9471    0.2316    3.7506 H   0  0  0  0  0  0  0  0  0  0  0  0
    1.8173   -0.4989    4.6763 H   0  0  0  0  0  0  0  0  0  0  0  0
    0.0075    2.9013   -0.1090 C   0  0  0  0  0  0  0  0  0  0  0  0
    0.8349    3.2373    0.3083 H   0  0  0  0  0  0  0  0  0  0  0  0
   -0.7972    3.2468    0.3436 H   0  0  0  0  0  0  0  0  0  0  0  0
   -0.0129    3.2582   -1.1388 H   0  0  0  0  0  0  0  0  0  0  0  0
    0.0011    1.4053   -0.0020 C   0  0  0  0  0  0  0  0  0  0  0  0
   -1.2014    0.6984    0.0015 C   0  0  0  0  0  0  0  0  0  0  0  0
   -2.0655    1.1890    0.0044 H   0  0  0  0  0  0  0  0  0  0  0  0
   -1.2072   -0.6966   -0.0000 C   0  0  0  0  0  0  0  0  0  0  0  0
   -2.0828   -1.1896    0.0026 H   0  0  0  0  0  0  0  0  0  0  0  0
   -0.0020   -1.3962   -0.0031 C   0  0  0  0  0  0  0  0  0  0  0  0
   -0.0084   -2.3947   -0.0079 H   0  0  0  0  0  0  0  0  0  0  0  0
    1.2072   -0.7032    0.0000 C   0  0  0  0  0  0  0  0  0  0  0  0
    2.0843   -1.2011    0.0013 H   0  0  0  0  0  0  0  0  0  0  0  0
    1.2022    0.6924    0.0036 C   0  0  0  0  0  0  0  0  0  0  0  0
    2.0694    1.1881    0.0097 H   0  0  0  0  0  0  0  0  0  0  0  0
  1  5  1  0
  5  8  1  0
  1  2  1  0
  1  3  1  0
  1  4  1  0
  5  6  1  0
  5  7  1  0
  8  9  1  0
  8 10  1  0
  8 11  1  0
 12 16  1  0
 16 17  2  0
 17 19  1  0
 19 21  2  0
 21 23  1  0
 23 25  2  0
 25 16  1  0
 12 13  1  0
 12 14  1  0
 12 15  1  0
 17 18  1  0
 19 20  1  0
 21 22  1  0
 23 24  1  0
 25 26  1  0
M  CHG  1   8   1
M  END
>  <PDB_ID>  (105) 
pdb1b12

>  <RESIDUE_NAME>  (105) 
LYS   PHE

>  <FRAG_NAME>  (105) 
ETAM   MBZ

>  <FRAG_ATOM_NUM>  (105) 
fragi: 11  fragj: 15

>  <atom.prop.CHAIN_ID>  (105) 
A A A A A A A A A A A Z Z Z Z Z Z Z Z Z Z Z Z Z Z Z

>  <atom.prop.IS_HEAVY_ATOM>  (105) 
1 0 0 0 1 0 0 1 0 0 0 1 0 0 0 1 1 0 1 0 1 0 1 0 1 0

>  <DIFUSE_FUNC_ATOM>  (105) 
n/a

>  <FINAL_SINGLE_POINT_ENERGY>  (105) 
0

>  <NONCOV_INTER_ENERGY_QM>  (105) 
0

>  <FF_Energy>  (105) 
-3.37

>  <QM_Energy>  (105) 
-9.86

>  <source>  (105) 
ETAM_MBZ

>  <Index>  (105) 
979

$$$$
ETAM-pdb2bkv-A-LYS-208:MBZ-pdb2bkv-A-PHE-218
     RDKit          3D

 26 25  0  0  0  0  0  0  0  0999 V2000
   -2.3561    0.2937   -3.7036 C   0  0  0  0  0  0  0  0  0  0  0  0
   -1.6015    0.7827   -3.2751 H   0  0  0  0  0  0  0  0  0  0  0  0
   -2.7885    0.8654   -4.3952 H   0  0  0  0  0  0  0  0  0  0  0  0
   -1.9545   -0.5932   -4.1939 H   0  0  0  0  0  0  0  0  0  0  0  0
   -3.3884   -0.0509   -2.6351 C   0  0  0  0  0  0  0  0  0  0  0  0
   -4.1567   -0.5327   -3.0618 H   0  0  0  0  0  0  0  0  0  0  0  0
   -2.9667   -0.6481   -1.9492 H   0  0  0  0  0  0  0  0  0  0  0  0
   -3.9232    1.1824   -1.9348 N   0  0  0  0  0  4  0  0  0  0  0  0
   -4.8338    1.3775   -2.2856 H   0  0  0  0  0  0  0  0  0  0  0  0
   -3.9612    1.0015   -0.9568 H   0  0  0  0  0  0  0  0  0  0  0  0
   -3.3111    1.9443   -2.1209 H   0  0  0  0  0  0  0  0  0  0  0  0
   -0.0109    2.8805   -0.0381 C   0  0  0  0  0  0  0  0  0  0  0  0
   -0.6989    3.1675   -0.6946 H   0  0  0  0  0  0  0  0  0  0  0  0
    0.8903    3.1939   -0.3153 H   0  0  0  0  0  0  0  0  0  0  0  0
   -0.2459    3.3562    0.9140 H   0  0  0  0  0  0  0  0  0  0  0  0
    0.0041    1.3906    0.0014 C   0  0  0  0  0  0  0  0  0  0  0  0
   -1.1728    0.6864   -0.0044 C   0  0  0  0  0  0  0  0  0  0  0  0
   -2.0485    1.1718   -0.0132 H   0  0  0  0  0  0  0  0  0  0  0  0
   -1.1780   -0.6986    0.0000 C   0  0  0  0  0  0  0  0  0  0  0  0
   -2.0730   -1.1791    0.0061 H   0  0  0  0  0  0  0  0  0  0  0  0
   -0.0194   -1.3732   -0.0022 C   0  0  0  0  0  0  0  0  0  0  0  0
   -0.0107   -2.3844   -0.0057 H   0  0  0  0  0  0  0  0  0  0  0  0
    1.1780   -0.6925   -0.0000 C   0  0  0  0  0  0  0  0  0  0  0  0
    2.0586   -1.2006   -0.0005 H   0  0  0  0  0  0  0  0  0  0  0  0
    1.1881    0.6875    0.0052 C   0  0  0  0  0  0  0  0  0  0  0  0
    2.0605    1.1773    0.0110 H   0  0  0  0  0  0  0  0  0  0  0  0
  1  5  1  0
  5  8  1  0
  1  2  1  0
  1  3  1  0
  1  4  1  0
  5  6  1  0
  5  7  1  0
  8  9  1  0
  8 10  1  0
  8 11  1  0
 12 16  1  0
 16 17  2  0
 17 19  1  0
 19 21  2  0
 21 23  1  0
 23 25  2  0
 25 16  1  0
 12 13  1  0
 12 14  1  0
 12 15  1  0
 17 18  1  0
 19 20  1  0
 21 22  1  0
 23 24  1  0
 25 26  1  0
M  CHG  1   8   1
M  END
>  <PDB_ID>  (106) 
pdb2bkv

>  <RESIDUE_NAME>  (106) 
LYS   PHE

>  <FRAG_NAME>  (106) 
ETAM   MBZ

>  <FRAG_ATOM_NUM>  (106) 
fragi: 11  fragj: 15

>  <atom.prop.CHAIN_ID>  (106) 
A A A A A A A A A A A Z Z Z Z Z Z Z Z Z Z Z Z Z Z Z

>  <atom.prop.IS_HEAVY_ATOM>  (106) 
1 0 0 0 1 0 0 1 0 0 0 1 0 0 0 1 1 0 1 0 1 0 1 0 1 0

>  <DIFUSE_FUNC_ATOM>  (106) 
n/a

>  <FINAL_SINGLE_POINT_ENERGY>  (106) 
0

>  <NONCOV_INTER_ENERGY_QM>  (106) 
0

>  <FF_Energy>  (106) 
-0.4

>  <QM_Energy>  (106) 
-5.65

>  <source>  (106) 
ETAM_MBZ

>  <Index>  (106) 
1010

$$$$
ETAM-pdb1b4p-A-LYS-123:MBZ-pdb1b4p-A-PHE-169
     RDKit          3D

 26 25  0  0  0  0  0  0  0  0999 V2000
   -0.3951   -3.1763    3.0940 C   0  0  0  0  0  0  0  0  0  0  0  0
   -0.7776   -2.8741    2.2162 H   0  0  0  0  0  0  0  0  0  0  0  0
   -1.1370   -3.5433    3.6615 H   0  0  0  0  0  0  0  0  0  0  0  0
    0.3180   -3.9773    2.8998 H   0  0  0  0  0  0  0  0  0  0  0  0
    0.2139   -1.9934    3.7943 C   0  0  0  0  0  0  0  0  0  0  0  0
   -0.4619   -1.6331    4.4813 H   0  0  0  0  0  0  0  0  0  0  0  0
    1.0154   -2.3174    4.3521 H   0  0  0  0  0  0  0  0  0  0  0  0
    0.6627   -0.8635    2.9432 N   0  0  0  0  0  4  0  0  0  0  0  0
    0.6764   -1.1516    1.9853 H   0  0  0  0  0  0  0  0  0  0  0  0
    0.0331   -0.0943    3.0511 H   0  0  0  0  0  0  0  0  0  0  0  0
    1.5824   -0.5829    3.2193 H   0  0  0  0  0  0  0  0  0  0  0  0
   -0.0053    2.9084    0.0294 C   0  0  0  0  0  0  0  0  0  0  0  0
   -0.6554    3.2238   -0.6741 H   0  0  0  0  0  0  0  0  0  0  0  0
    0.9157    3.2253   -0.2307 H   0  0  0  0  0  0  0  0  0  0  0  0
   -0.2660    3.4246    0.9532 H   0  0  0  0  0  0  0  0  0  0  0  0
    0.0006    1.4057    0.0136 C   0  0  0  0  0  0  0  0  0  0  0  0
   -1.2039    0.6835   -0.0172 C   0  0  0  0  0  0  0  0  0  0  0  0
   -2.0682    1.1798   -0.0538 H   0  0  0  0  0  0  0  0  0  0  0  0
   -1.2125   -0.7047   -0.0000 C   0  0  0  0  0  0  0  0  0  0  0  0
   -2.0784   -1.2019   -0.0128 H   0  0  0  0  0  0  0  0  0  0  0  0
    0.0003   -1.3836    0.0370 C   0  0  0  0  0  0  0  0  0  0  0  0
   -0.0000   -2.3900    0.0909 H   0  0  0  0  0  0  0  0  0  0  0  0
    1.2125   -0.6983    0.0000 C   0  0  0  0  0  0  0  0  0  0  0  0
    2.0853   -1.1953   -0.0008 H   0  0  0  0  0  0  0  0  0  0  0  0
    1.2030    0.6975   -0.0334 C   0  0  0  0  0  0  0  0  0  0  0  0
    2.0666    1.1947   -0.0922 H   0  0  0  0  0  0  0  0  0  0  0  0
  1  5  1  0
  5  8  1  0
  1  2  1  0
  1  3  1  0
  1  4  1  0
  5  6  1  0
  5  7  1  0
  8  9  1  0
  8 10  1  0
  8 11  1  0
 12 16  1  0
 16 17  2  0
 17 19  1  0
 19 21  2  0
 21 23  1  0
 23 25  2  0
 25 16  1  0
 12 13  1  0
 12 14  1  0
 12 15  1  0
 17 18  1  0
 19 20  1  0
 21 22  1  0
 23 24  1  0
 25 26  1  0
M  CHG  1   8   1
M  END
>  <PDB_ID>  (107) 
pdb1b4p

>  <RESIDUE_NAME>  (107) 
LYS   PHE

>  <FRAG_NAME>  (107) 
ETAM   MBZ

>  <FRAG_ATOM_NUM>  (107) 
fragi: 11  fragj: 15

>  <atom.prop.CHAIN_ID>  (107) 
A A A A A A A A A A A Z Z Z Z Z Z Z Z Z Z Z Z Z Z Z

>  <atom.prop.IS_HEAVY_ATOM>  (107) 
1 0 0 0 1 0 0 1 0 0 0 1 0 0 0 1 1 0 1 0 1 0 1 0 1 0

>  <DIFUSE_FUNC_ATOM>  (107) 
n/a

>  <FINAL_SINGLE_POINT_ENERGY>  (107) 
0

>  <NONCOV_INTER_ENERGY_QM>  (107) 
0

>  <FF_Energy>  (107) 
-7.09

>  <QM_Energy>  (107) 
-15.14

>  <source>  (107) 
ETAM_MBZ

>  <Index>  (107) 
1047

$$$$
ETAM-pdb2bmj-A-LYS-108:MBZ-pdb2bmj-A-PHE-90
     RDKit          3D

 26 25  0  0  0  0  0  0  0  0999 V2000
    1.1170   -2.0051    3.5379 C   0  0  0  0  0  0  0  0  0  0  0  0
    1.4544   -1.4060    2.8141 H   0  0  0  0  0  0  0  0  0  0  0  0
    0.6475   -2.7896    3.1362 H   0  0  0  0  0  0  0  0  0  0  0  0
    1.9606   -2.3578    4.1314 H   0  0  0  0  0  0  0  0  0  0  0  0
    0.1385   -1.2388    4.3811 C   0  0  0  0  0  0  0  0  0  0  0  0
   -0.2395   -1.8403    5.0711 H   0  0  0  0  0  0  0  0  0  0  0  0
    0.5998   -0.4675    4.7968 H   0  0  0  0  0  0  0  0  0  0  0  0
   -0.9209   -0.7679    3.4950 N   0  0  0  0  0  4  0  0  0  0  0  0
   -1.5910   -1.4998    3.3371 H   0  0  0  0  0  0  0  0  0  0  0  0
   -1.3915    0.0184    3.9057 H   0  0  0  0  0  0  0  0  0  0  0  0
   -0.5338   -0.4875    2.6117 H   0  0  0  0  0  0  0  0  0  0  0  0
   -0.0305    2.8780   -0.0232 C   0  0  0  0  0  0  0  0  0  0  0  0
   -0.5404    3.1722   -0.8199 H   0  0  0  0  0  0  0  0  0  0  0  0
    0.9015    3.2119   -0.0540 H   0  0  0  0  0  0  0  0  0  0  0  0
   -0.5058    3.3271    0.8489 H   0  0  0  0  0  0  0  0  0  0  0  0
   -0.0015    1.3918   -0.0007 C   0  0  0  0  0  0  0  0  0  0  0  0
   -1.1887    0.6688   -0.0216 C   0  0  0  0  0  0  0  0  0  0  0  0
   -2.0612    1.1592   -0.0545 H   0  0  0  0  0  0  0  0  0  0  0  0
   -1.1901   -0.7105   -0.0000 C   0  0  0  0  0  0  0  0  0  0  0  0
   -2.0630   -1.2081    0.0101 H   0  0  0  0  0  0  0  0  0  0  0  0
    0.0048   -1.3721    0.0087 C   0  0  0  0  0  0  0  0  0  0  0  0
    0.0149   -2.3844    0.0214 H   0  0  0  0  0  0  0  0  0  0  0  0
    1.1901   -0.6814   -0.0000 C   0  0  0  0  0  0  0  0  0  0  0  0
    2.0778   -1.1759   -0.0145 H   0  0  0  0  0  0  0  0  0  0  0  0
    1.1854    0.7033    0.0136 C   0  0  0  0  0  0  0  0  0  0  0  0
    2.0548    1.1991    0.0333 H   0  0  0  0  0  0  0  0  0  0  0  0
  1  5  1  0
  5  8  1  0
  1  2  1  0
  1  3  1  0
  1  4  1  0
  5  6  1  0
  5  7  1  0
  8  9  1  0
  8 10  1  0
  8 11  1  0
 12 16  1  0
 16 17  2  0
 17 19  1  0
 19 21  2  0
 21 23  1  0
 23 25  2  0
 25 16  1  0
 12 13  1  0
 12 14  1  0
 12 15  1  0
 17 18  1  0
 19 20  1  0
 21 22  1  0
 23 24  1  0
 25 26  1  0
M  CHG  1   8   1
M  END
>  <PDB_ID>  (108) 
pdb2bmj

>  <RESIDUE_NAME>  (108) 
LYS   PHE

>  <FRAG_NAME>  (108) 
ETAM   MBZ

>  <FRAG_ATOM_NUM>  (108) 
fragi: 11  fragj: 15

>  <atom.prop.CHAIN_ID>  (108) 
A A A A A A A A A A A Z Z Z Z Z Z Z Z Z Z Z Z Z Z Z

>  <atom.prop.IS_HEAVY_ATOM>  (108) 
1 0 0 0 1 0 0 1 0 0 0 1 0 0 0 1 1 0 1 0 1 0 1 0 1 0

>  <DIFUSE_FUNC_ATOM>  (108) 
n/a

>  <FINAL_SINGLE_POINT_ENERGY>  (108) 
0

>  <NONCOV_INTER_ENERGY_QM>  (108) 
0

>  <FF_Energy>  (108) 
-7.55

>  <QM_Energy>  (108) 
-13.6

>  <source>  (108) 
ETAM_MBZ

>  <Index>  (108) 
1048

$$$$
ETAM-pdb1b4u-A-LYS-101:MBZ-pdb1b4u-A-PHE-105
     RDKit          3D

 26 25  0  0  0  0  0  0  0  0999 V2000
   -0.5540    0.2045    4.0657 C   0  0  0  0  0  0  0  0  0  0  0  0
   -0.0105    0.8222    3.5232 H   0  0  0  0  0  0  0  0  0  0  0  0
   -0.3679    0.2998    5.0286 H   0  0  0  0  0  0  0  0  0  0  0  0
   -1.6097    0.4065    3.8844 H   0  0  0  0  0  0  0  0  0  0  0  0
   -0.2374   -1.2226    3.6454 C   0  0  0  0  0  0  0  0  0  0  0  0
   -0.3988   -1.8316    4.3963 H   0  0  0  0  0  0  0  0  0  0  0  0
   -0.7585   -1.4564    2.8488 H   0  0  0  0  0  0  0  0  0  0  0  0
    1.2368   -1.2588    3.2933 N   0  0  0  0  0  4  0  0  0  0  0  0
    1.6041   -2.1466    3.5524 H   0  0  0  0  0  0  0  0  0  0  0  0
    1.3326   -1.1189    2.3129 H   0  0  0  0  0  0  0  0  0  0  0  0
    1.7006   -0.5339    3.7932 H   0  0  0  0  0  0  0  0  0  0  0  0
    0.0951    2.9013   -0.0508 C   0  0  0  0  0  0  0  0  0  0  0  0
    0.9329    3.1751    0.3377 H   0  0  0  0  0  0  0  0  0  0  0  0
   -0.6979    3.2572    0.3645 H   0  0  0  0  0  0  0  0  0  0  0  0
    0.0946    3.2265   -1.0911 H   0  0  0  0  0  0  0  0  0  0  0  0
    0.0192    1.3877   -0.0176 C   0  0  0  0  0  0  0  0  0  0  0  0
   -1.1879    0.7331   -0.0091 C   0  0  0  0  0  0  0  0  0  0  0  0
   -2.0400    1.2284   -0.0100 H   0  0  0  0  0  0  0  0  0  0  0  0
   -1.2038   -0.6626   -0.0000 C   0  0  0  0  0  0  0  0  0  0  0  0
   -2.0962   -1.1415   -0.0017 H   0  0  0  0  0  0  0  0  0  0  0  0
   -0.0221   -1.3900    0.0128 C   0  0  0  0  0  0  0  0  0  0  0  0
   -0.0464   -2.3857    0.0304 H   0  0  0  0  0  0  0  0  0  0  0  0
    1.2038   -0.7187    0.0000 C   0  0  0  0  0  0  0  0  0  0  0  0
    2.0641   -1.2313   -0.0173 H   0  0  0  0  0  0  0  0  0  0  0  0
    1.1908    0.6505    0.0139 C   0  0  0  0  0  0  0  0  0  0  0  0
    2.0751    1.1529    0.0477 H   0  0  0  0  0  0  0  0  0  0  0  0
  1  5  1  0
  5  8  1  0
  1  2  1  0
  1  3  1  0
  1  4  1  0
  5  6  1  0
  5  7  1  0
  8  9  1  0
  8 10  1  0
  8 11  1  0
 12 16  1  0
 16 17  2  0
 17 19  1  0
 19 21  2  0
 21 23  1  0
 23 25  2  0
 25 16  1  0
 12 13  1  0
 12 14  1  0
 12 15  1  0
 17 18  1  0
 19 20  1  0
 21 22  1  0
 23 24  1  0
 25 26  1  0
M  CHG  1   8   1
M  END
>  <PDB_ID>  (109) 
pdb1b4u

>  <RESIDUE_NAME>  (109) 
LYS   PHE

>  <FRAG_NAME>  (109) 
ETAM   MBZ

>  <FRAG_ATOM_NUM>  (109) 
fragi: 11  fragj: 15

>  <atom.prop.CHAIN_ID>  (109) 
A A A A A A A A A A A Z Z Z Z Z Z Z Z Z Z Z Z Z Z Z

>  <atom.prop.IS_HEAVY_ATOM>  (109) 
1 0 0 0 1 0 0 1 0 0 0 1 0 0 0 1 1 0 1 0 1 0 1 0 1 0

>  <DIFUSE_FUNC_ATOM>  (109) 
n/a

>  <FINAL_SINGLE_POINT_ENERGY>  (109) 
0

>  <NONCOV_INTER_ENERGY_QM>  (109) 
0

>  <FF_Energy>  (109) 
-6.92

>  <QM_Energy>  (109) 
-14.75

>  <source>  (109) 
ETAM_MBZ

>  <Index>  (109) 
1053

$$$$
ETAM-pdb2bmv-A-LYS-79:MBZ-pdb2bmv-A-PHE-42
     RDKit          3D

 26 25  0  0  0  0  0  0  0  0999 V2000
    2.5107   -1.3450    4.1168 C   0  0  0  0  0  0  0  0  0  0  0  0
    3.3333   -0.8099    3.8972 H   0  0  0  0  0  0  0  0  0  0  0  0
    2.5008   -2.1687    3.5404 H   0  0  0  0  0  0  0  0  0  0  0  0
    2.5717   -1.6553    5.1599 H   0  0  0  0  0  0  0  0  0  0  0  0
    1.2942   -0.5169    3.8019 C   0  0  0  0  0  0  0  0  0  0  0  0
    0.8734   -0.8413    2.9711 H   0  0  0  0  0  0  0  0  0  0  0  0
    0.6656   -0.5411    4.5621 H   0  0  0  0  0  0  0  0  0  0  0  0
    1.7486    0.9030    3.5935 N   0  0  0  0  0  4  0  0  0  0  0  0
    1.2525    1.4964    4.2219 H   0  0  0  0  0  0  0  0  0  0  0  0
    2.7275    0.9581    3.7728 H   0  0  0  0  0  0  0  0  0  0  0  0
    1.5587    1.1681    2.6511 H   0  0  0  0  0  0  0  0  0  0  0  0
   -0.0013    2.9322   -0.0428 C   0  0  0  0  0  0  0  0  0  0  0  0
   -0.3844    3.2073   -0.9124 H   0  0  0  0  0  0  0  0  0  0  0  0
    0.9374    3.2302    0.0476 H   0  0  0  0  0  0  0  0  0  0  0  0
   -0.5840    3.4036    0.7487 H   0  0  0  0  0  0  0  0  0  0  0  0
   -0.0041    1.4102   -0.0027 C   0  0  0  0  0  0  0  0  0  0  0  0
   -1.1776    0.7017    0.0035 C   0  0  0  0  0  0  0  0  0  0  0  0
   -2.0584    1.1708    0.0096 H   0  0  0  0  0  0  0  0  0  0  0  0
   -1.1787   -0.7120   -0.0000 C   0  0  0  0  0  0  0  0  0  0  0  0
   -2.0675   -1.1877   -0.0017 H   0  0  0  0  0  0  0  0  0  0  0  0
    0.0010   -1.3994    0.0006 C   0  0  0  0  0  0  0  0  0  0  0  0
    0.0060   -2.3986    0.0004 H   0  0  0  0  0  0  0  0  0  0  0  0
    1.1787   -0.6954    0.0000 C   0  0  0  0  0  0  0  0  0  0  0  0
    2.0746   -1.1882    0.0017 H   0  0  0  0  0  0  0  0  0  0  0  0
    1.1807    0.6949   -0.0014 C   0  0  0  0  0  0  0  0  0  0  0  0
    2.0562    1.1846   -0.0019 H   0  0  0  0  0  0  0  0  0  0  0  0
  1  5  1  0
  5  8  1  0
  1  2  1  0
  1  3  1  0
  1  4  1  0
  5  6  1  0
  5  7  1  0
  8  9  1  0
  8 10  1  0
  8 11  1  0
 12 16  1  0
 16 17  2  0
 17 19  1  0
 19 21  2  0
 21 23  1  0
 23 25  2  0
 25 16  1  0
 12 13  1  0
 12 14  1  0
 12 15  1  0
 17 18  1  0
 19 20  1  0
 21 22  1  0
 23 24  1  0
 25 26  1  0
M  CHG  1   8   1
M  END
>  <PDB_ID>  (110) 
pdb2bmv

>  <RESIDUE_NAME>  (110) 
LYS   PHE

>  <FRAG_NAME>  (110) 
ETAM   MBZ

>  <FRAG_ATOM_NUM>  (110) 
fragi: 11  fragj: 15

>  <atom.prop.CHAIN_ID>  (110) 
A A A A A A A A A A A Z Z Z Z Z Z Z Z Z Z Z Z Z Z Z

>  <atom.prop.IS_HEAVY_ATOM>  (110) 
1 0 0 0 1 0 0 1 0 0 0 1 0 0 0 1 1 0 1 0 1 0 1 0 1 0

>  <DIFUSE_FUNC_ATOM>  (110) 
n/a

>  <FINAL_SINGLE_POINT_ENERGY>  (110) 
0

>  <NONCOV_INTER_ENERGY_QM>  (110) 
0

>  <FF_Energy>  (110) 
-6.0

>  <QM_Energy>  (110) 
-11.58

>  <source>  (110) 
ETAM_MBZ

>  <Index>  (110) 
1065

$$$$
ETAM-pdb2bnl-A-LYS-102:MBZ-pdb2bnl-A-PHE-10
     RDKit          3D

 26 25  0  0  0  0  0  0  0  0999 V2000
   -3.7838   -3.2635   -0.4803 C   0  0  0  0  0  0  0  0  0  0  0  0
   -3.4532   -3.9872    0.1137 H   0  0  0  0  0  0  0  0  0  0  0  0
   -3.0415   -2.8877   -1.0216 H   0  0  0  0  0  0  0  0  0  0  0  0
   -4.5575   -3.6562   -1.1400 H   0  0  0  0  0  0  0  0  0  0  0  0
   -4.3265   -2.1218    0.4283 C   0  0  0  0  0  0  0  0  0  0  0  0
   -4.2312   -1.2550   -0.0603 H   0  0  0  0  0  0  0  0  0  0  0  0
   -5.2927   -2.2961    0.6150 H   0  0  0  0  0  0  0  0  0  0  0  0
   -3.5816   -2.0223    1.7550 N   0  0  0  0  0  4  0  0  0  0  0  0
   -2.9371   -2.7773    1.8104 H   0  0  0  0  0  0  0  0  0  0  0  0
   -3.1019   -1.1528    1.7811 H   0  0  0  0  0  0  0  0  0  0  0  0
   -4.2460   -2.0760    2.4924 H   0  0  0  0  0  0  0  0  0  0  0  0
    0.0253    2.8791    0.0350 C   0  0  0  0  0  0  0  0  0  0  0  0
   -0.8350    3.2256   -0.2945 H   0  0  0  0  0  0  0  0  0  0  0  0
    0.7862    3.2084   -0.4952 H   0  0  0  0  0  0  0  0  0  0  0  0
    0.1549    3.2680    1.0450 H   0  0  0  0  0  0  0  0  0  0  0  0
    0.0040    1.4038   -0.0065 C   0  0  0  0  0  0  0  0  0  0  0  0
   -1.2035    0.7142    0.0171 C   0  0  0  0  0  0  0  0  0  0  0  0
   -2.0599    1.1914    0.0441 H   0  0  0  0  0  0  0  0  0  0  0  0
   -1.1875   -0.6900   -0.0000 C   0  0  0  0  0  0  0  0  0  0  0  0
   -2.0663   -1.1882   -0.0069 H   0  0  0  0  0  0  0  0  0  0  0  0
    0.0190   -1.3977   -0.0051 C   0  0  0  0  0  0  0  0  0  0  0  0
   -0.0068   -2.3962   -0.0129 H   0  0  0  0  0  0  0  0  0  0  0  0
    1.1875   -0.7130    0.0000 C   0  0  0  0  0  0  0  0  0  0  0  0
    2.0842   -1.1949    0.0096 H   0  0  0  0  0  0  0  0  0  0  0  0
    1.1805    0.6827   -0.0055 C   0  0  0  0  0  0  0  0  0  0  0  0
    2.0624    1.1710   -0.0102 H   0  0  0  0  0  0  0  0  0  0  0  0
  1  5  1  0
  5  8  1  0
  1  2  1  0
  1  3  1  0
  1  4  1  0
  5  6  1  0
  5  7  1  0
  8  9  1  0
  8 10  1  0
  8 11  1  0
 12 16  1  0
 16 17  2  0
 17 19  1  0
 19 21  2  0
 21 23  1  0
 23 25  2  0
 25 16  1  0
 12 13  1  0
 12 14  1  0
 12 15  1  0
 17 18  1  0
 19 20  1  0
 21 22  1  0
 23 24  1  0
 25 26  1  0
M  CHG  1   8   1
M  END
>  <PDB_ID>  (111) 
pdb2bnl

>  <RESIDUE_NAME>  (111) 
LYS   PHE

>  <FRAG_NAME>  (111) 
ETAM   MBZ

>  <FRAG_ATOM_NUM>  (111) 
fragi: 11  fragj: 15

>  <atom.prop.CHAIN_ID>  (111) 
A A A A A A A A A A A Z Z Z Z Z Z Z Z Z Z Z Z Z Z Z

>  <atom.prop.IS_HEAVY_ATOM>  (111) 
1 0 0 0 1 0 0 1 0 0 0 1 0 0 0 1 1 0 1 0 1 0 1 0 1 0

>  <DIFUSE_FUNC_ATOM>  (111) 
n/a

>  <FINAL_SINGLE_POINT_ENERGY>  (111) 
0

>  <NONCOV_INTER_ENERGY_QM>  (111) 
0

>  <FF_Energy>  (111) 
2.72

>  <QM_Energy>  (111) 
-5.57

>  <source>  (111) 
ETAM_MBZ

>  <Index>  (111) 
1075

$$$$
ETAM-pdb2bnq-E-LYS-138:MBZ-pdb2bnq-D-PHE-171
     RDKit          3D

 26 25  0  0  0  0  0  0  0  0999 V2000
    1.5155   -1.0640   -3.7498 C   0  0  0  0  0  0  0  0  0  0  0  0
    1.0807   -1.8269   -3.2821 H   0  0  0  0  0  0  0  0  0  0  0  0
    2.4301   -0.9122   -3.3892 H   0  0  0  0  0  0  0  0  0  0  0  0
    1.5840   -1.2910   -4.8137 H   0  0  0  0  0  0  0  0  0  0  0  0
    0.6860    0.1905   -3.4998 C   0  0  0  0  0  0  0  0  0  0  0  0
    0.7508    0.4320   -2.5255 H   0  0  0  0  0  0  0  0  0  0  0  0
    1.0718    0.9469   -4.0409 H   0  0  0  0  0  0  0  0  0  0  0  0
   -0.7464    0.0114   -3.8643 N   0  0  0  0  0  4  0  0  0  0  0  0
   -1.3063    0.0528   -3.0378 H   0  0  0  0  0  0  0  0  0  0  0  0
   -1.0221    0.7391   -4.4924 H   0  0  0  0  0  0  0  0  0  0  0  0
   -0.8671   -0.8767   -4.3067 H   0  0  0  0  0  0  0  0  0  0  0  0
    0.0013    2.9022   -0.0171 C   0  0  0  0  0  0  0  0  0  0  0  0
   -0.8096    3.2055   -0.4964 H   0  0  0  0  0  0  0  0  0  0  0  0
    0.8231    3.2037   -0.4797 H   0  0  0  0  0  0  0  0  0  0  0  0
   -0.0086    3.3592    0.9724 H   0  0  0  0  0  0  0  0  0  0  0  0
   -0.0001    1.4013   -0.0005 C   0  0  0  0  0  0  0  0  0  0  0  0
   -1.1980    0.6934    0.0020 C   0  0  0  0  0  0  0  0  0  0  0  0
   -2.0644    1.1869    0.0037 H   0  0  0  0  0  0  0  0  0  0  0  0
   -1.2059   -0.6947    0.0000 C   0  0  0  0  0  0  0  0  0  0  0  0
   -2.0809   -1.1898    0.0005 H   0  0  0  0  0  0  0  0  0  0  0  0
   -0.0005   -1.3976   -0.0002 C   0  0  0  0  0  0  0  0  0  0  0  0
   -0.0055   -2.3933   -0.0006 H   0  0  0  0  0  0  0  0  0  0  0  0
    1.2059   -0.6978    0.0000 C   0  0  0  0  0  0  0  0  0  0  0  0
    2.0846   -1.1952    0.0028 H   0  0  0  0  0  0  0  0  0  0  0  0
    1.1986    0.6954   -0.0013 C   0  0  0  0  0  0  0  0  0  0  0  0
    2.0656    1.1928   -0.0041 H   0  0  0  0  0  0  0  0  0  0  0  0
  1  5  1  0
  5  8  1  0
  1  2  1  0
  1  3  1  0
  1  4  1  0
  5  6  1  0
  5  7  1  0
  8  9  1  0
  8 10  1  0
  8 11  1  0
 12 16  1  0
 16 17  2  0
 17 19  1  0
 19 21  2  0
 21 23  1  0
 23 25  2  0
 25 16  1  0
 12 13  1  0
 12 14  1  0
 12 15  1  0
 17 18  1  0
 19 20  1  0
 21 22  1  0
 23 24  1  0
 25 26  1  0
M  CHG  1   8   1
M  END
>  <PDB_ID>  (112) 
pdb2bnq

>  <RESIDUE_NAME>  (112) 
LYS   PHE

>  <FRAG_NAME>  (112) 
ETAM   MBZ

>  <FRAG_ATOM_NUM>  (112) 
fragi: 11  fragj: 15

>  <atom.prop.CHAIN_ID>  (112) 
A A A A A A A A A A A Z Z Z Z Z Z Z Z Z Z Z Z Z Z Z

>  <atom.prop.IS_HEAVY_ATOM>  (112) 
1 0 0 0 1 0 0 1 0 0 0 1 0 0 0 1 1 0 1 0 1 0 1 0 1 0

>  <DIFUSE_FUNC_ATOM>  (112) 
n/a

>  <FINAL_SINGLE_POINT_ENERGY>  (112) 
0

>  <NONCOV_INTER_ENERGY_QM>  (112) 
0

>  <FF_Energy>  (112) 
-6.55

>  <QM_Energy>  (112) 
-12.61

>  <source>  (112) 
ETAM_MBZ

>  <Index>  (112) 
1077

$$$$
ETAM-pdb2bol-B-LYS-143:MBZ-pdb2bol-B-PHE-123
     RDKit          3D

 26 25  0  0  0  0  0  0  0  0999 V2000
    1.8920   -2.8709    2.9819 C   0  0  0  0  0  0  0  0  0  0  0  0
    1.8642   -2.6749    3.9532 H   0  0  0  0  0  0  0  0  0  0  0  0
    1.9973   -2.0397    2.4546 H   0  0  0  0  0  0  0  0  0  0  0  0
    2.7367   -3.5291    2.7787 H   0  0  0  0  0  0  0  0  0  0  0  0
    0.5805   -3.5390    2.5831 C   0  0  0  0  0  0  0  0  0  0  0  0
    0.4522   -4.3592    3.1379 H   0  0  0  0  0  0  0  0  0  0  0  0
   -0.1715   -2.9016    2.7488 H   0  0  0  0  0  0  0  0  0  0  0  0
    0.5898   -3.9193    1.1385 N   0  0  0  0  0  4  0  0  0  0  0  0
    1.1363   -3.2587    0.6277 H   0  0  0  0  0  0  0  0  0  0  0  0
    0.9863   -4.8307    1.0413 H   0  0  0  0  0  0  0  0  0  0  0  0
   -0.3465   -3.9210    0.7924 H   0  0  0  0  0  0  0  0  0  0  0  0
    0.0066    2.8980    0.0069 C   0  0  0  0  0  0  0  0  0  0  0  0
   -0.8746    3.2102   -0.3184 H   0  0  0  0  0  0  0  0  0  0  0  0
    0.7354    3.2076   -0.5877 H   0  0  0  0  0  0  0  0  0  0  0  0
    0.1721    3.3371    0.9908 H   0  0  0  0  0  0  0  0  0  0  0  0
    0.0027    1.4021    0.0000 C   0  0  0  0  0  0  0  0  0  0  0  0
   -1.1925    0.6955    0.0004 C   0  0  0  0  0  0  0  0  0  0  0  0
   -2.0604    1.1833   -0.0000 H   0  0  0  0  0  0  0  0  0  0  0  0
   -1.1977   -0.6996    0.0000 C   0  0  0  0  0  0  0  0  0  0  0  0
   -2.0801   -1.1866    0.0002 H   0  0  0  0  0  0  0  0  0  0  0  0
   -0.0073   -1.3933    0.0007 C   0  0  0  0  0  0  0  0  0  0  0  0
   -0.0081   -2.3938    0.0016 H   0  0  0  0  0  0  0  0  0  0  0  0
    1.1977   -0.6998    0.0000 C   0  0  0  0  0  0  0  0  0  0  0  0
    2.0774   -1.1984    0.0014 H   0  0  0  0  0  0  0  0  0  0  0  0
    1.1972    0.6952   -0.0011 C   0  0  0  0  0  0  0  0  0  0  0  0
    2.0662    1.1868   -0.0033 H   0  0  0  0  0  0  0  0  0  0  0  0
  1  5  1  0
  5  8  1  0
  1  2  1  0
  1  3  1  0
  1  4  1  0
  5  6  1  0
  5  7  1  0
  8  9  1  0
  8 10  1  0
  8 11  1  0
 12 16  1  0
 16 17  2  0
 17 19  1  0
 19 21  2  0
 21 23  1  0
 23 25  2  0
 25 16  1  0
 12 13  1  0
 12 14  1  0
 12 15  1  0
 17 18  1  0
 19 20  1  0
 21 22  1  0
 23 24  1  0
 25 26  1  0
M  CHG  1   8   1
M  END
>  <PDB_ID>  (113) 
pdb2bol

>  <RESIDUE_NAME>  (113) 
LYS   PHE

>  <FRAG_NAME>  (113) 
ETAM   MBZ

>  <FRAG_ATOM_NUM>  (113) 
fragi: 11  fragj: 15

>  <atom.prop.CHAIN_ID>  (113) 
A A A A A A A A A A A Z Z Z Z Z Z Z Z Z Z Z Z Z Z Z

>  <atom.prop.IS_HEAVY_ATOM>  (113) 
1 0 0 0 1 0 0 1 0 0 0 1 0 0 0 1 1 0 1 0 1 0 1 0 1 0

>  <DIFUSE_FUNC_ATOM>  (113) 
n/a

>  <FINAL_SINGLE_POINT_ENERGY>  (113) 
0

>  <NONCOV_INTER_ENERGY_QM>  (113) 
0

>  <FF_Energy>  (113) 
24.84

>  <QM_Energy>  (113) 
2.05

>  <source>  (113) 
ETAM_MBZ

>  <Index>  (113) 
1080

$$$$
ETAM-pdb2boy-F-LYS-234:MBZ-pdb2boy-F-PHE-243
     RDKit          3D

 26 25  0  0  0  0  0  0  0  0999 V2000
    3.4017   -2.4400    1.9341 C   0  0  0  0  0  0  0  0  0  0  0  0
    4.3314   -2.7462    2.1420 H   0  0  0  0  0  0  0  0  0  0  0  0
    2.7947   -2.6790    2.6934 H   0  0  0  0  0  0  0  0  0  0  0  0
    3.4084   -1.3560    1.8197 H   0  0  0  0  0  0  0  0  0  0  0  0
    2.9238   -3.1531    0.6890 C   0  0  0  0  0  0  0  0  0  0  0  0
    1.9926   -2.8547    0.4781 H   0  0  0  0  0  0  0  0  0  0  0  0
    3.5280   -2.9224   -0.0733 H   0  0  0  0  0  0  0  0  0  0  0  0
    2.9318   -4.6237    0.8912 N   0  0  0  0  0  4  0  0  0  0  0  0
    3.7859   -5.0036    0.5368 H   0  0  0  0  0  0  0  0  0  0  0  0
    2.8569   -4.8258    1.8683 H   0  0  0  0  0  0  0  0  0  0  0  0
    2.1581   -5.0309    0.4062 H   0  0  0  0  0  0  0  0  0  0  0  0
   -0.0096    2.9016   -0.0312 C   0  0  0  0  0  0  0  0  0  0  0  0
   -0.9306    3.2026   -0.2487 H   0  0  0  0  0  0  0  0  0  0  0  0
    0.6294    3.1974   -0.7318 H   0  0  0  0  0  0  0  0  0  0  0  0
    0.2829    3.3709    0.9081 H   0  0  0  0  0  0  0  0  0  0  0  0
   -0.0045    1.4098   -0.0005 C   0  0  0  0  0  0  0  0  0  0  0  0
   -1.2005    0.7022   -0.0035 C   0  0  0  0  0  0  0  0  0  0  0  0
   -2.0695    1.1885   -0.0096 H   0  0  0  0  0  0  0  0  0  0  0  0
   -1.2111   -0.7018   -0.0000 C   0  0  0  0  0  0  0  0  0  0  0  0
   -2.0828   -1.1920   -0.0044 H   0  0  0  0  0  0  0  0  0  0  0  0
    0.0051   -1.4118    0.0113 C   0  0  0  0  0  0  0  0  0  0  0  0
   -0.0022   -2.4015    0.0266 H   0  0  0  0  0  0  0  0  0  0  0  0
    1.2111   -0.7041    0.0000 C   0  0  0  0  0  0  0  0  0  0  0  0
    2.0927   -1.1914   -0.0018 H   0  0  0  0  0  0  0  0  0  0  0  0
    1.1999    0.7058   -0.0072 C   0  0  0  0  0  0  0  0  0  0  0  0
    2.0653    1.1984   -0.0178 H   0  0  0  0  0  0  0  0  0  0  0  0
  1  5  1  0
  5  8  1  0
  1  2  1  0
  1  3  1  0
  1  4  1  0
  5  6  1  0
  5  7  1  0
  8  9  1  0
  8 10  1  0
  8 11  1  0
 12 16  1  0
 16 17  2  0
 17 19  1  0
 19 21  2  0
 21 23  1  0
 23 25  2  0
 25 16  1  0
 12 13  1  0
 12 14  1  0
 12 15  1  0
 17 18  1  0
 19 20  1  0
 21 22  1  0
 23 24  1  0
 25 26  1  0
M  CHG  1   8   1
M  END
>  <PDB_ID>  (114) 
pdb2boy

>  <RESIDUE_NAME>  (114) 
LYS   PHE

>  <FRAG_NAME>  (114) 
ETAM   MBZ

>  <FRAG_ATOM_NUM>  (114) 
fragi: 11  fragj: 15

>  <atom.prop.CHAIN_ID>  (114) 
A A A A A A A A A A A Z Z Z Z Z Z Z Z Z Z Z Z Z Z Z

>  <atom.prop.IS_HEAVY_ATOM>  (114) 
1 0 0 0 1 0 0 1 0 0 0 1 0 0 0 1 1 0 1 0 1 0 1 0 1 0

>  <DIFUSE_FUNC_ATOM>  (114) 
n/a

>  <FINAL_SINGLE_POINT_ENERGY>  (114) 
0

>  <NONCOV_INTER_ENERGY_QM>  (114) 
0

>  <FF_Energy>  (114) 
16.14

>  <QM_Energy>  (114) 
0.6

>  <source>  (114) 
ETAM_MBZ

>  <Index>  (114) 
1092

$$$$
ETAM-pdb1b72-A-LYS-226:MBZ-pdb1b72-A-PHE-222
     RDKit          3D

 26 25  0  0  0  0  0  0  0  0999 V2000
   -0.4936   -1.4003    3.5136 C   0  0  0  0  0  0  0  0  0  0  0  0
   -0.5587   -1.8738    2.6500 H   0  0  0  0  0  0  0  0  0  0  0  0
   -0.5520   -0.4224    3.3971 H   0  0  0  0  0  0  0  0  0  0  0  0
   -1.3061   -1.7304    4.1610 H   0  0  0  0  0  0  0  0  0  0  0  0
    0.8473   -1.7363    4.1553 C   0  0  0  0  0  0  0  0  0  0  0  0
    0.8970   -1.2805    5.0587 H   0  0  0  0  0  0  0  0  0  0  0  0
    0.8876   -2.7356    4.3176 H   0  0  0  0  0  0  0  0  0  0  0  0
    2.0307   -1.3311    3.3442 N   0  0  0  0  0  4  0  0  0  0  0  0
    2.6416   -2.1141    3.2366 H   0  0  0  0  0  0  0  0  0  0  0  0
    1.7244   -1.0190    2.4457 H   0  0  0  0  0  0  0  0  0  0  0  0
    2.5133   -0.5909    3.8105 H   0  0  0  0  0  0  0  0  0  0  0  0
   -0.0010    2.9029    0.0142 C   0  0  0  0  0  0  0  0  0  0  0  0
   -0.5144    3.2178   -0.7693 H   0  0  0  0  0  0  0  0  0  0  0  0
    0.9375    3.2105   -0.0226 H   0  0  0  0  0  0  0  0  0  0  0  0
   -0.4573    3.3350    0.9048 H   0  0  0  0  0  0  0  0  0  0  0  0
   -0.0003    1.3998   -0.0001 C   0  0  0  0  0  0  0  0  0  0  0  0
   -1.1987    0.6924   -0.0004 C   0  0  0  0  0  0  0  0  0  0  0  0
   -2.0641    1.1872   -0.0020 H   0  0  0  0  0  0  0  0  0  0  0  0
   -1.2077   -0.6949    0.0000 C   0  0  0  0  0  0  0  0  0  0  0  0
   -2.0810   -1.1904    0.0012 H   0  0  0  0  0  0  0  0  0  0  0  0
   -0.0009   -1.3943    0.0009 C   0  0  0  0  0  0  0  0  0  0  0  0
   -0.0045   -2.3913    0.0020 H   0  0  0  0  0  0  0  0  0  0  0  0
    1.2077   -0.6961    0.0000 C   0  0  0  0  0  0  0  0  0  0  0  0
    2.0850   -1.1962    0.0015 H   0  0  0  0  0  0  0  0  0  0  0  0
    1.1999    0.6931   -0.0004 C   0  0  0  0  0  0  0  0  0  0  0  0
    2.0660    1.1930   -0.0021 H   0  0  0  0  0  0  0  0  0  0  0  0
  1  5  1  0
  5  8  1  0
  1  2  1  0
  1  3  1  0
  1  4  1  0
  5  6  1  0
  5  7  1  0
  8  9  1  0
  8 10  1  0
  8 11  1  0
 12 16  1  0
 16 17  2  0
 17 19  1  0
 19 21  2  0
 21 23  1  0
 23 25  2  0
 25 16  1  0
 12 13  1  0
 12 14  1  0
 12 15  1  0
 17 18  1  0
 19 20  1  0
 21 22  1  0
 23 24  1  0
 25 26  1  0
M  CHG  1   8   1
M  END
>  <PDB_ID>  (115) 
pdb1b72

>  <RESIDUE_NAME>  (115) 
LYS   PHE

>  <FRAG_NAME>  (115) 
ETAM   MBZ

>  <FRAG_ATOM_NUM>  (115) 
fragi: 11  fragj: 15

>  <atom.prop.CHAIN_ID>  (115) 
A A A A A A A A A A A Z Z Z Z Z Z Z Z Z Z Z Z Z Z Z

>  <atom.prop.IS_HEAVY_ATOM>  (115) 
1 0 0 0 1 0 0 1 0 0 0 1 0 0 0 1 1 0 1 0 1 0 1 0 1 0

>  <DIFUSE_FUNC_ATOM>  (115) 
n/a

>  <FINAL_SINGLE_POINT_ENERGY>  (115) 
0

>  <NONCOV_INTER_ENERGY_QM>  (115) 
0

>  <FF_Energy>  (115) 
-4.92

>  <QM_Energy>  (115) 
-11.54

>  <source>  (115) 
ETAM_MBZ

>  <Index>  (115) 
1106

$$$$
ETAM-pdb1b73-A-LYS-236:MBZ-pdb1b73-A-PHE-233
     RDKit          3D

 26 25  0  0  0  0  0  0  0  0999 V2000
    5.1479    0.6071   -2.3849 C   0  0  0  0  0  0  0  0  0  0  0  0
    6.0659    0.3483   -2.1270 H   0  0  0  0  0  0  0  0  0  0  0  0
    4.7155    1.1527   -1.6826 H   0  0  0  0  0  0  0  0  0  0  0  0
    5.1827    1.1769   -3.3135 H   0  0  0  0  0  0  0  0  0  0  0  0
    4.3218   -0.6754   -2.5747 C   0  0  0  0  0  0  0  0  0  0  0  0
    3.4574   -0.4334   -3.0352 H   0  0  0  0  0  0  0  0  0  0  0  0
    4.8337   -1.2994   -3.1797 H   0  0  0  0  0  0  0  0  0  0  0  0
    4.0101   -1.3858   -1.2936 N   0  0  0  0  0  4  0  0  0  0  0  0
    3.0195   -1.4498   -1.1874 H   0  0  0  0  0  0  0  0  0  0  0  0
    4.4067   -2.3006   -1.3228 H   0  0  0  0  0  0  0  0  0  0  0  0
    4.3996   -0.8721   -0.5319 H   0  0  0  0  0  0  0  0  0  0  0  0
    0.0197    2.8933   -0.0939 C   0  0  0  0  0  0  0  0  0  0  0  0
    0.4495    3.2494    0.7228 H   0  0  0  0  0  0  0  0  0  0  0  0
   -0.9130    3.2123   -0.1766 H   0  0  0  0  0  0  0  0  0  0  0  0
    0.5744    3.2765   -0.9504 H   0  0  0  0  0  0  0  0  0  0  0  0
   -0.0006    1.3999   -0.0018 C   0  0  0  0  0  0  0  0  0  0  0  0
   -1.1919    0.7083    0.0055 C   0  0  0  0  0  0  0  0  0  0  0  0
   -2.0598    1.1904    0.0135 H   0  0  0  0  0  0  0  0  0  0  0  0
   -1.1973   -0.6954   -0.0000 C   0  0  0  0  0  0  0  0  0  0  0  0
   -2.0808   -1.1787    0.0027 H   0  0  0  0  0  0  0  0  0  0  0  0
   -0.0058   -1.3944   -0.0065 C   0  0  0  0  0  0  0  0  0  0  0  0
   -0.0112   -2.3938   -0.0165 H   0  0  0  0  0  0  0  0  0  0  0  0
    1.1973   -0.7035    0.0000 C   0  0  0  0  0  0  0  0  0  0  0  0
    2.0771   -1.2052    0.0047 H   0  0  0  0  0  0  0  0  0  0  0  0
    1.1983    0.6851    0.0028 C   0  0  0  0  0  0  0  0  0  0  0  0
    2.0654    1.1815    0.0071 H   0  0  0  0  0  0  0  0  0  0  0  0
  1  5  1  0
  5  8  1  0
  1  2  1  0
  1  3  1  0
  1  4  1  0
  5  6  1  0
  5  7  1  0
  8  9  1  0
  8 10  1  0
  8 11  1  0
 12 16  1  0
 16 17  2  0
 17 19  1  0
 19 21  2  0
 21 23  1  0
 23 25  2  0
 25 16  1  0
 12 13  1  0
 12 14  1  0
 12 15  1  0
 17 18  1  0
 19 20  1  0
 21 22  1  0
 23 24  1  0
 25 26  1  0
M  CHG  1   8   1
M  END
>  <PDB_ID>  (116) 
pdb1b73

>  <RESIDUE_NAME>  (116) 
LYS   PHE

>  <FRAG_NAME>  (116) 
ETAM   MBZ

>  <FRAG_ATOM_NUM>  (116) 
fragi: 11  fragj: 15

>  <atom.prop.CHAIN_ID>  (116) 
A A A A A A A A A A A Z Z Z Z Z Z Z Z Z Z Z Z Z Z Z

>  <atom.prop.IS_HEAVY_ATOM>  (116) 
1 0 0 0 1 0 0 1 0 0 0 1 0 0 0 1 1 0 1 0 1 0 1 0 1 0

>  <DIFUSE_FUNC_ATOM>  (116) 
n/a

>  <FINAL_SINGLE_POINT_ENERGY>  (116) 
0

>  <NONCOV_INTER_ENERGY_QM>  (116) 
0

>  <FF_Energy>  (116) 
3.71

>  <QM_Energy>  (116) 
-3.07

>  <source>  (116) 
ETAM_MBZ

>  <Index>  (116) 
1120

$$$$
ETAM-pdb2brx-B-LYS-215:MBZ-pdb2brx-B-PHE-211
     RDKit          3D

 26 25  0  0  0  0  0  0  0  0999 V2000
    1.6984   -0.1536    5.8011 C   0  0  0  0  0  0  0  0  0  0  0  0
    2.4517   -0.7194    6.1110 H   0  0  0  0  0  0  0  0  0  0  0  0
    0.9981   -0.0837    6.4992 H   0  0  0  0  0  0  0  0  0  0  0  0
    2.0750    0.8437    5.5741 H   0  0  0  0  0  0  0  0  0  0  0  0
    1.0880   -0.7921    4.5624 C   0  0  0  0  0  0  0  0  0  0  0  0
    0.7982   -1.7226    4.7848 H   0  0  0  0  0  0  0  0  0  0  0  0
    0.2937   -0.2555    4.2769 H   0  0  0  0  0  0  0  0  0  0  0  0
    2.0729   -0.8405    3.4427 N   0  0  0  0  0  4  0  0  0  0  0  0
    1.9279   -0.0556    2.8422 H   0  0  0  0  0  0  0  0  0  0  0  0
    2.9989   -0.8114    3.8167 H   0  0  0  0  0  0  0  0  0  0  0  0
    1.9449   -1.6864    2.9272 H   0  0  0  0  0  0  0  0  0  0  0  0
   -0.0071    2.9013    0.0153 C   0  0  0  0  0  0  0  0  0  0  0  0
   -0.5717    3.2145   -0.7326 H   0  0  0  0  0  0  0  0  0  0  0  0
    0.9252    3.2144   -0.0787 H   0  0  0  0  0  0  0  0  0  0  0  0
   -0.4089    3.3251    0.9356 H   0  0  0  0  0  0  0  0  0  0  0  0
    0.0002    1.4025   -0.0003 C   0  0  0  0  0  0  0  0  0  0  0  0
   -1.1989    0.6934   -0.0003 C   0  0  0  0  0  0  0  0  0  0  0  0
   -2.0645    1.1860   -0.0024 H   0  0  0  0  0  0  0  0  0  0  0  0
   -1.2070   -0.6973    0.0000 C   0  0  0  0  0  0  0  0  0  0  0  0
   -2.0816   -1.1911    0.0006 H   0  0  0  0  0  0  0  0  0  0  0  0
   -0.0017   -1.3975    0.0009 C   0  0  0  0  0  0  0  0  0  0  0  0
   -0.0049   -2.3938    0.0013 H   0  0  0  0  0  0  0  0  0  0  0  0
    1.2070   -0.6984   -0.0000 C   0  0  0  0  0  0  0  0  0  0  0  0
    2.0844   -1.1960    0.0010 H   0  0  0  0  0  0  0  0  0  0  0  0
    1.2005    0.6973   -0.0003 C   0  0  0  0  0  0  0  0  0  0  0  0
    2.0667    1.1931   -0.0010 H   0  0  0  0  0  0  0  0  0  0  0  0
  1  5  1  0
  5  8  1  0
  1  2  1  0
  1  3  1  0
  1  4  1  0
  5  6  1  0
  5  7  1  0
  8  9  1  0
  8 10  1  0
  8 11  1  0
 12 16  1  0
 16 17  2  0
 17 19  1  0
 19 21  2  0
 21 23  1  0
 23 25  2  0
 25 16  1  0
 12 13  1  0
 12 14  1  0
 12 15  1  0
 17 18  1  0
 19 20  1  0
 21 22  1  0
 23 24  1  0
 25 26  1  0
M  CHG  1   8   1
M  END
>  <PDB_ID>  (117) 
pdb2brx

>  <RESIDUE_NAME>  (117) 
LYS   PHE

>  <FRAG_NAME>  (117) 
ETAM   MBZ

>  <FRAG_ATOM_NUM>  (117) 
fragi: 11  fragj: 15

>  <atom.prop.CHAIN_ID>  (117) 
A A A A A A A A A A A Z Z Z Z Z Z Z Z Z Z Z Z Z Z Z

>  <atom.prop.IS_HEAVY_ATOM>  (117) 
1 0 0 0 1 0 0 1 0 0 0 1 0 0 0 1 1 0 1 0 1 0 1 0 1 0

>  <DIFUSE_FUNC_ATOM>  (117) 
n/a

>  <FINAL_SINGLE_POINT_ENERGY>  (117) 
0

>  <NONCOV_INTER_ENERGY_QM>  (117) 
0

>  <FF_Energy>  (117) 
-4.42

>  <QM_Energy>  (117) 
-9.93

>  <source>  (117) 
ETAM_MBZ

>  <Index>  (117) 
1125

$$$$
ETAM-pdb2bnl-D-LYS-102:MBZ-pdb2bnl-D-PHE-10
     RDKit          3D

 26 25  0  0  0  0  0  0  0  0999 V2000
   -3.5732   -3.4018    0.0882 C   0  0  0  0  0  0  0  0  0  0  0  0
   -2.7907   -3.9570   -0.1636 H   0  0  0  0  0  0  0  0  0  0  0  0
   -3.4165   -2.4481   -0.1340 H   0  0  0  0  0  0  0  0  0  0  0  0
   -4.4595   -3.7597   -0.4356 H   0  0  0  0  0  0  0  0  0  0  0  0
   -3.6903   -3.4819    1.7009 C   0  0  0  0  0  0  0  0  0  0  0  0
   -4.3897   -2.8196    1.9876 H   0  0  0  0  0  0  0  0  0  0  0  0
   -4.0068   -4.4061    1.9368 H   0  0  0  0  0  0  0  0  0  0  0  0
   -2.3738   -3.1906    2.5185 N   0  0  0  0  0  4  0  0  0  0  0  0
   -1.6163   -3.3513    1.9094 H   0  0  0  0  0  0  0  0  0  0  0  0
   -2.4178   -2.2498    2.8092 H   0  0  0  0  0  0  0  0  0  0  0  0
   -2.3683   -3.8111    3.2845 H   0  0  0  0  0  0  0  0  0  0  0  0
    0.0691    2.9017   -0.0231 C   0  0  0  0  0  0  0  0  0  0  0  0
   -0.7748    3.2486   -0.3908 H   0  0  0  0  0  0  0  0  0  0  0  0
    0.8477    3.1802   -0.5561 H   0  0  0  0  0  0  0  0  0  0  0  0
    0.1891    3.3116    0.9798 H   0  0  0  0  0  0  0  0  0  0  0  0
    0.0048    1.4018   -0.0346 C   0  0  0  0  0  0  0  0  0  0  0  0
   -1.1980    0.7567   -0.0174 C   0  0  0  0  0  0  0  0  0  0  0  0
   -2.0537    1.2165   -0.0181 H   0  0  0  0  0  0  0  0  0  0  0  0
   -1.1883   -0.6849    0.0000 C   0  0  0  0  0  0  0  0  0  0  0  0
   -2.0682   -1.1633   -0.0410 H   0  0  0  0  0  0  0  0  0  0  0  0
    0.0178   -1.3922    0.0736 C   0  0  0  0  0  0  0  0  0  0  0  0
   -0.0226   -2.3924    0.1812 H   0  0  0  0  0  0  0  0  0  0  0  0
    1.1883   -0.7361   -0.0000 C   0  0  0  0  0  0  0  0  0  0  0  0
    2.0765   -1.2191   -0.0386 H   0  0  0  0  0  0  0  0  0  0  0  0
    1.1754    0.6547   -0.0216 C   0  0  0  0  0  0  0  0  0  0  0  0
    2.0651    1.1458   -0.0285 H   0  0  0  0  0  0  0  0  0  0  0  0
  1  5  1  0
  5  8  1  0
  1  2  1  0
  1  3  1  0
  1  4  1  0
  5  6  1  0
  5  7  1  0
  8  9  1  0
  8 10  1  0
  8 11  1  0
 12 16  1  0
 16 17  2  0
 17 19  1  0
 19 21  2  0
 21 23  1  0
 23 25  2  0
 25 16  1  0
 12 13  1  0
 12 14  1  0
 12 15  1  0
 17 18  1  0
 19 20  1  0
 21 22  1  0
 23 24  1  0
 25 26  1  0
M  CHG  1   8   1
M  END
>  <PDB_ID>  (118) 
pdb2bnl

>  <RESIDUE_NAME>  (118) 
LYS   PHE

>  <FRAG_NAME>  (118) 
ETAM   MBZ

>  <FRAG_ATOM_NUM>  (118) 
fragi: 11  fragj: 15

>  <atom.prop.CHAIN_ID>  (118) 
A A A A A A A A A A A Z Z Z Z Z Z Z Z Z Z Z Z Z Z Z

>  <atom.prop.IS_HEAVY_ATOM>  (118) 
1 0 0 0 1 0 0 1 0 0 0 1 0 0 0 1 1 0 1 0 1 0 1 0 1 0

>  <DIFUSE_FUNC_ATOM>  (118) 
n/a

>  <FINAL_SINGLE_POINT_ENERGY>  (118) 
0

>  <NONCOV_INTER_ENERGY_QM>  (118) 
0

>  <FF_Energy>  (118) 
1.21

>  <QM_Energy>  (118) 
-4.88

>  <source>  (118) 
ETAM_MBZ

>  <Index>  (118) 
1142

$$$$
ETAM-pdb1b8a-A-LYS-35:MBZ-pdb1b8a-A-PHE-60
     RDKit          3D

 26 25  0  0  0  0  0  0  0  0999 V2000
   -0.8292    0.0107    3.9406 C   0  0  0  0  0  0  0  0  0  0  0  0
   -1.0513    0.8893    3.5294 H   0  0  0  0  0  0  0  0  0  0  0  0
   -0.5930    0.1276    4.9001 H   0  0  0  0  0  0  0  0  0  0  0  0
   -1.6563   -0.6901    3.8271 H   0  0  0  0  0  0  0  0  0  0  0  0
    0.4111   -0.5281    3.2273 C   0  0  0  0  0  0  0  0  0  0  0  0
    0.2245   -0.5422    2.2267 H   0  0  0  0  0  0  0  0  0  0  0  0
    1.1747    0.1285    3.3727 H   0  0  0  0  0  0  0  0  0  0  0  0
    0.8507   -1.8835    3.6560 N   0  0  0  0  0  4  0  0  0  0  0  0
    1.3166   -2.3366    2.8968 H   0  0  0  0  0  0  0  0  0  0  0  0
    1.4770   -1.7996    4.4304 H   0  0  0  0  0  0  0  0  0  0  0  0
    0.0524   -2.4211    3.9270 H   0  0  0  0  0  0  0  0  0  0  0  0
   -0.0061    2.9125   -0.0522 C   0  0  0  0  0  0  0  0  0  0  0  0
   -0.6033    3.1926   -0.7890 H   0  0  0  0  0  0  0  0  0  0  0  0
    0.9220    3.2174   -0.2051 H   0  0  0  0  0  0  0  0  0  0  0  0
   -0.3632    3.3896    0.8605 H   0  0  0  0  0  0  0  0  0  0  0  0
   -0.0019    1.4056   -0.0010 C   0  0  0  0  0  0  0  0  0  0  0  0
   -1.1979    0.6886    0.0006 C   0  0  0  0  0  0  0  0  0  0  0  0
   -2.0672    1.1747    0.0009 H   0  0  0  0  0  0  0  0  0  0  0  0
   -1.2017   -0.7107   -0.0000 C   0  0  0  0  0  0  0  0  0  0  0  0
   -2.0721   -1.2044    0.0020 H   0  0  0  0  0  0  0  0  0  0  0  0
    0.0100   -1.3985   -0.0022 C   0  0  0  0  0  0  0  0  0  0  0  0
    0.0108   -2.3971   -0.0060 H   0  0  0  0  0  0  0  0  0  0  0  0
    1.2017   -0.6934    0.0000 C   0  0  0  0  0  0  0  0  0  0  0  0
    2.0904   -1.1785    0.0009 H   0  0  0  0  0  0  0  0  0  0  0  0
    1.1897    0.7084    0.0026 C   0  0  0  0  0  0  0  0  0  0  0  0
    2.0607    1.2009    0.0061 H   0  0  0  0  0  0  0  0  0  0  0  0
  1  5  1  0
  5  8  1  0
  1  2  1  0
  1  3  1  0
  1  4  1  0
  5  6  1  0
  5  7  1  0
  8  9  1  0
  8 10  1  0
  8 11  1  0
 12 16  1  0
 16 17  2  0
 17 19  1  0
 19 21  2  0
 21 23  1  0
 23 25  2  0
 25 16  1  0
 12 13  1  0
 12 14  1  0
 12 15  1  0
 17 18  1  0
 19 20  1  0
 21 22  1  0
 23 24  1  0
 25 26  1  0
M  CHG  1   8   1
M  END
>  <PDB_ID>  (119) 
pdb1b8a

>  <RESIDUE_NAME>  (119) 
LYS   PHE

>  <FRAG_NAME>  (119) 
ETAM   MBZ

>  <FRAG_ATOM_NUM>  (119) 
fragi: 11  fragj: 15

>  <atom.prop.CHAIN_ID>  (119) 
A A A A A A A A A A A Z Z Z Z Z Z Z Z Z Z Z Z Z Z Z

>  <atom.prop.IS_HEAVY_ATOM>  (119) 
1 0 0 0 1 0 0 1 0 0 0 1 0 0 0 1 1 0 1 0 1 0 1 0 1 0

>  <DIFUSE_FUNC_ATOM>  (119) 
n/a

>  <FINAL_SINGLE_POINT_ENERGY>  (119) 
0

>  <NONCOV_INTER_ENERGY_QM>  (119) 
0

>  <FF_Energy>  (119) 
-1.76

>  <QM_Energy>  (119) 
-10.29

>  <source>  (119) 
ETAM_MBZ

>  <Index>  (119) 
1156

$$$$
ETAM-pdb2bnl-E-LYS-102:MBZ-pdb2bnl-E-PHE-10
     RDKit          3D

 26 25  0  0  0  0  0  0  0  0999 V2000
   -3.9816   -3.1544   -0.3661 C   0  0  0  0  0  0  0  0  0  0  0  0
   -3.8959   -2.1549   -0.2640 H   0  0  0  0  0  0  0  0  0  0  0  0
   -4.8663   -3.4357    0.0280 H   0  0  0  0  0  0  0  0  0  0  0  0
   -3.9695   -3.4043   -1.4269 H   0  0  0  0  0  0  0  0  0  0  0  0
   -2.8604   -3.8075    0.4945 C   0  0  0  0  0  0  0  0  0  0  0  0
   -2.9502   -4.7849    0.4601 H   0  0  0  0  0  0  0  0  0  0  0  0
   -1.9833   -3.5012    0.1750 H   0  0  0  0  0  0  0  0  0  0  0  0
   -3.0146   -3.3599    1.9844 N   0  0  0  0  0  4  0  0  0  0  0  0
   -2.7651   -2.4046    2.0319 H   0  0  0  0  0  0  0  0  0  0  0  0
   -3.9589   -3.5009    2.2382 H   0  0  0  0  0  0  0  0  0  0  0  0
   -2.4061   -3.9209    2.5241 H   0  0  0  0  0  0  0  0  0  0  0  0
   -0.0152    2.8475   -0.0159 C   0  0  0  0  0  0  0  0  0  0  0  0
   -0.8086    3.1710   -0.5097 H   0  0  0  0  0  0  0  0  0  0  0  0
    0.8212    3.1933   -0.4137 H   0  0  0  0  0  0  0  0  0  0  0  0
   -0.0797    3.2418    0.9983 H   0  0  0  0  0  0  0  0  0  0  0  0
    0.0078    1.3802   -0.0580 C   0  0  0  0  0  0  0  0  0  0  0  0
   -1.1993    0.6822    0.0464 C   0  0  0  0  0  0  0  0  0  0  0  0
   -2.0475    1.1927    0.1538 H   0  0  0  0  0  0  0  0  0  0  0  0
   -1.2117   -0.6784   -0.0000 C   0  0  0  0  0  0  0  0  0  0  0  0
   -2.0830   -1.1862   -0.0520 H   0  0  0  0  0  0  0  0  0  0  0  0
   -0.0001   -1.4012    0.0256 C   0  0  0  0  0  0  0  0  0  0  0  0
   -0.0025   -2.3805    0.0593 H   0  0  0  0  0  0  0  0  0  0  0  0
    1.2117   -0.6762    0.0000 C   0  0  0  0  0  0  0  0  0  0  0  0
    2.0891   -1.1819   -0.0059 H   0  0  0  0  0  0  0  0  0  0  0  0
    1.1915    0.6932   -0.0140 C   0  0  0  0  0  0  0  0  0  0  0  0
    2.0612    1.2027    0.0075 H   0  0  0  0  0  0  0  0  0  0  0  0
  1  5  1  0
  5  8  1  0
  1  2  1  0
  1  3  1  0
  1  4  1  0
  5  6  1  0
  5  7  1  0
  8  9  1  0
  8 10  1  0
  8 11  1  0
 12 16  1  0
 16 17  2  0
 17 19  1  0
 19 21  2  0
 21 23  1  0
 23 25  2  0
 25 16  1  0
 12 13  1  0
 12 14  1  0
 12 15  1  0
 17 18  1  0
 19 20  1  0
 21 22  1  0
 23 24  1  0
 25 26  1  0
M  CHG  1   8   1
M  END
>  <PDB_ID>  (120) 
pdb2bnl

>  <RESIDUE_NAME>  (120) 
LYS   PHE

>  <FRAG_NAME>  (120) 
ETAM   MBZ

>  <FRAG_ATOM_NUM>  (120) 
fragi: 11  fragj: 15

>  <atom.prop.CHAIN_ID>  (120) 
A A A A A A A A A A A Z Z Z Z Z Z Z Z Z Z Z Z Z Z Z

>  <atom.prop.IS_HEAVY_ATOM>  (120) 
1 0 0 0 1 0 0 1 0 0 0 1 0 0 0 1 1 0 1 0 1 0 1 0 1 0

>  <DIFUSE_FUNC_ATOM>  (120) 
n/a

>  <FINAL_SINGLE_POINT_ENERGY>  (120) 
0

>  <NONCOV_INTER_ENERGY_QM>  (120) 
0

>  <FF_Energy>  (120) 
0.62

>  <QM_Energy>  (120) 
-5.12

>  <source>  (120) 
ETAM_MBZ

>  <Index>  (120) 
1158

$$$$
ETAM-pdb2bwj-C-LYS-12:MBZ-pdb2bwj-C-PHE-197
     RDKit          3D

 26 25  0  0  0  0  0  0  0  0999 V2000
    3.1407    1.1887   -2.2710 C   0  0  0  0  0  0  0  0  0  0  0  0
    3.3927    1.3255   -3.2284 H   0  0  0  0  0  0  0  0  0  0  0  0
    2.1458    1.1109   -2.1956 H   0  0  0  0  0  0  0  0  0  0  0  0
    3.5911    0.2603   -1.9201 H   0  0  0  0  0  0  0  0  0  0  0  0
    3.5949    2.3911   -1.4729 C   0  0  0  0  0  0  0  0  0  0  0  0
    3.3415    2.2622   -0.5143 H   0  0  0  0  0  0  0  0  0  0  0  0
    4.5884    2.4768   -1.5471 H   0  0  0  0  0  0  0  0  0  0  0  0
    2.9568    3.6296   -1.9863 N   0  0  0  0  0  4  0  0  0  0  0  0
    3.2031    3.7583   -2.9466 H   0  0  0  0  0  0  0  0  0  0  0  0
    1.9627    3.5518   -1.9038 H   0  0  0  0  0  0  0  0  0  0  0  0
    3.2749    4.4133   -1.4525 H   0  0  0  0  0  0  0  0  0  0  0  0
   -0.0050    2.9274   -0.0042 C   0  0  0  0  0  0  0  0  0  0  0  0
   -0.7609    3.2225   -0.5680 H   0  0  0  0  0  0  0  0  0  0  0  0
    0.8609    3.2285   -0.3737 H   0  0  0  0  0  0  0  0  0  0  0  0
   -0.1245    3.3760    0.9820 H   0  0  0  0  0  0  0  0  0  0  0  0
   -0.0002    1.4095    0.0013 C   0  0  0  0  0  0  0  0  0  0  0  0
   -1.1990    0.6911   -0.0032 C   0  0  0  0  0  0  0  0  0  0  0  0
   -2.0665    1.1827   -0.0100 H   0  0  0  0  0  0  0  0  0  0  0  0
   -1.2083   -0.7036   -0.0000 C   0  0  0  0  0  0  0  0  0  0  0  0
   -2.0825   -1.1946   -0.0008 H   0  0  0  0  0  0  0  0  0  0  0  0
   -0.0032   -1.3990    0.0056 C   0  0  0  0  0  0  0  0  0  0  0  0
   -0.0022   -2.3962    0.0136 H   0  0  0  0  0  0  0  0  0  0  0  0
    1.2083   -0.6976   -0.0000 C   0  0  0  0  0  0  0  0  0  0  0  0
    2.0854   -1.1958   -0.0001 H   0  0  0  0  0  0  0  0  0  0  0  0
    1.2023    0.6997   -0.0037 C   0  0  0  0  0  0  0  0  0  0  0  0
    2.0681    1.1957   -0.0103 H   0  0  0  0  0  0  0  0  0  0  0  0
  1  5  1  0
  5  8  1  0
  1  2  1  0
  1  3  1  0
  1  4  1  0
  5  6  1  0
  5  7  1  0
  8  9  1  0
  8 10  1  0
  8 11  1  0
 12 16  1  0
 16 17  2  0
 17 19  1  0
 19 21  2  0
 21 23  1  0
 23 25  2  0
 25 16  1  0
 12 13  1  0
 12 14  1  0
 12 15  1  0
 17 18  1  0
 19 20  1  0
 21 22  1  0
 23 24  1  0
 25 26  1  0
M  CHG  1   8   1
M  END
>  <PDB_ID>  (121) 
pdb2bwj

>  <RESIDUE_NAME>  (121) 
LYS   PHE

>  <FRAG_NAME>  (121) 
ETAM   MBZ

>  <FRAG_ATOM_NUM>  (121) 
fragi: 11  fragj: 15

>  <atom.prop.CHAIN_ID>  (121) 
A A A A A A A A A A A Z Z Z Z Z Z Z Z Z Z Z Z Z Z Z

>  <atom.prop.IS_HEAVY_ATOM>  (121) 
1 0 0 0 1 0 0 1 0 0 0 1 0 0 0 1 1 0 1 0 1 0 1 0 1 0

>  <DIFUSE_FUNC_ATOM>  (121) 
n/a

>  <FINAL_SINGLE_POINT_ENERGY>  (121) 
0

>  <NONCOV_INTER_ENERGY_QM>  (121) 
0

>  <FF_Energy>  (121) 
10.56

>  <QM_Energy>  (121) 
-0.37

>  <source>  (121) 
ETAM_MBZ

>  <Index>  (121) 
1193

$$$$
ETAM-pdb2bwj-F-LYS-12:MBZ-pdb2bwj-F-PHE-197
     RDKit          3D

 26 25  0  0  0  0  0  0  0  0999 V2000
   -2.9870    6.0294   -1.5261 C   0  0  0  0  0  0  0  0  0  0  0  0
   -3.4154    5.6543   -2.3494 H   0  0  0  0  0  0  0  0  0  0  0  0
   -1.9991    6.1071   -1.6744 H   0  0  0  0  0  0  0  0  0  0  0  0
   -3.3932    7.0239   -1.3414 H   0  0  0  0  0  0  0  0  0  0  0  0
   -3.2284    5.0768   -0.3774 C   0  0  0  0  0  0  0  0  0  0  0  0
   -2.7981    5.4425    0.4488 H   0  0  0  0  0  0  0  0  0  0  0  0
   -4.2144    4.9896   -0.2262 H   0  0  0  0  0  0  0  0  0  0  0  0
   -2.6598    3.7388   -0.6736 N   0  0  0  0  0  4  0  0  0  0  0  0
   -1.8837    3.5645   -0.0673 H   0  0  0  0  0  0  0  0  0  0  0  0
   -3.3592    3.0389   -0.5295 H   0  0  0  0  0  0  0  0  0  0  0  0
   -2.3513    3.7106   -1.6244 H   0  0  0  0  0  0  0  0  0  0  0  0
   -0.0073    2.8933   -0.0242 C   0  0  0  0  0  0  0  0  0  0  0  0
   -0.8218    3.1948   -0.5162 H   0  0  0  0  0  0  0  0  0  0  0  0
    0.8112    3.2051   -0.5032 H   0  0  0  0  0  0  0  0  0  0  0  0
   -0.0185    3.3843    0.9489 H   0  0  0  0  0  0  0  0  0  0  0  0
    0.0025    1.3994   -0.0072 C   0  0  0  0  0  0  0  0  0  0  0  0
   -1.1988    0.6924   -0.0080 C   0  0  0  0  0  0  0  0  0  0  0  0
   -2.0631    1.1943   -0.0168 H   0  0  0  0  0  0  0  0  0  0  0  0
   -1.2190   -0.6927    0.0000 C   0  0  0  0  0  0  0  0  0  0  0  0
   -2.0884   -1.1854   -0.0107 H   0  0  0  0  0  0  0  0  0  0  0  0
   -0.0070   -1.3904    0.0247 C   0  0  0  0  0  0  0  0  0  0  0  0
   -0.0128   -2.3896    0.0608 H   0  0  0  0  0  0  0  0  0  0  0  0
    1.2190   -0.7009   -0.0000 C   0  0  0  0  0  0  0  0  0  0  0  0
    2.0849   -1.2019   -0.0100 H   0  0  0  0  0  0  0  0  0  0  0  0
    1.2033    0.6921   -0.0094 C   0  0  0  0  0  0  0  0  0  0  0  0
    2.0698    1.1931   -0.0185 H   0  0  0  0  0  0  0  0  0  0  0  0
  1  5  1  0
  5  8  1  0
  1  2  1  0
  1  3  1  0
  1  4  1  0
  5  6  1  0
  5  7  1  0
  8  9  1  0
  8 10  1  0
  8 11  1  0
 12 16  1  0
 16 17  2  0
 17 19  1  0
 19 21  2  0
 21 23  1  0
 23 25  2  0
 25 16  1  0
 12 13  1  0
 12 14  1  0
 12 15  1  0
 17 18  1  0
 19 20  1  0
 21 22  1  0
 23 24  1  0
 25 26  1  0
M  CHG  1   8   1
M  END
>  <PDB_ID>  (122) 
pdb2bwj

>  <RESIDUE_NAME>  (122) 
LYS   PHE

>  <FRAG_NAME>  (122) 
ETAM   MBZ

>  <FRAG_ATOM_NUM>  (122) 
fragi: 11  fragj: 15

>  <atom.prop.CHAIN_ID>  (122) 
A A A A A A A A A A A Z Z Z Z Z Z Z Z Z Z Z Z Z Z Z

>  <atom.prop.IS_HEAVY_ATOM>  (122) 
1 0 0 0 1 0 0 1 0 0 0 1 0 0 0 1 1 0 1 0 1 0 1 0 1 0

>  <DIFUSE_FUNC_ATOM>  (122) 
n/a

>  <FINAL_SINGLE_POINT_ENERGY>  (122) 
0

>  <NONCOV_INTER_ENERGY_QM>  (122) 
0

>  <FF_Energy>  (122) 
32.23

>  <QM_Energy>  (122) 
11.74

>  <source>  (122) 
ETAM_MBZ

>  <Index>  (122) 
1196

$$$$
ETAM-pdb2bvf-A-LYS-348:MBZ-pdb2bvf-A-PHE-246
     RDKit          3D

 26 25  0  0  0  0  0  0  0  0999 V2000
   -4.0985    4.3828    0.0373 C   0  0  0  0  0  0  0  0  0  0  0  0
   -4.2132    4.2992   -0.9515 H   0  0  0  0  0  0  0  0  0  0  0  0
   -3.4111    5.0794    0.2374 H   0  0  0  0  0  0  0  0  0  0  0  0
   -5.0476    4.7131    0.4594 H   0  0  0  0  0  0  0  0  0  0  0  0
   -3.6292    3.0507    0.5952 C   0  0  0  0  0  0  0  0  0  0  0  0
   -2.8385    2.7209    0.0460 H   0  0  0  0  0  0  0  0  0  0  0  0
   -3.2876    3.1892    1.5436 H   0  0  0  0  0  0  0  0  0  0  0  0
   -4.6698    1.9465    0.6296 N   0  0  0  0  0  4  0  0  0  0  0  0
   -5.3529    2.1326   -0.0697 H   0  0  0  0  0  0  0  0  0  0  0  0
   -4.2172    1.0787    0.4488 H   0  0  0  0  0  0  0  0  0  0  0  0
   -5.0915    1.9356    1.5307 H   0  0  0  0  0  0  0  0  0  0  0  0
   -0.0001    2.9254   -0.0563 C   0  0  0  0  0  0  0  0  0  0  0  0
    0.8040    3.2481    0.4075 H   0  0  0  0  0  0  0  0  0  0  0  0
   -0.8285    3.2488    0.3639 H   0  0  0  0  0  0  0  0  0  0  0  0
    0.0271    3.3168   -1.0733 H   0  0  0  0  0  0  0  0  0  0  0  0
   -0.0020    1.4166   -0.0036 C   0  0  0  0  0  0  0  0  0  0  0  0
   -1.2015    0.7105   -0.0024 C   0  0  0  0  0  0  0  0  0  0  0  0
   -2.0692    1.1886   -0.0049 H   0  0  0  0  0  0  0  0  0  0  0  0
   -1.2097   -0.7099    0.0000 C   0  0  0  0  0  0  0  0  0  0  0  0
   -2.0831   -1.1912   -0.0065 H   0  0  0  0  0  0  0  0  0  0  0  0
    0.0017   -1.4068    0.0135 C   0  0  0  0  0  0  0  0  0  0  0  0
   -0.0032   -2.4052    0.0325 H   0  0  0  0  0  0  0  0  0  0  0  0
    1.2097   -0.7103    0.0000 C   0  0  0  0  0  0  0  0  0  0  0  0
    2.0889   -1.1996   -0.0027 H   0  0  0  0  0  0  0  0  0  0  0  0
    1.2018    0.6999   -0.0075 C   0  0  0  0  0  0  0  0  0  0  0  0
    2.0692    1.1911   -0.0160 H   0  0  0  0  0  0  0  0  0  0  0  0
  1  5  1  0
  5  8  1  0
  1  2  1  0
  1  3  1  0
  1  4  1  0
  5  6  1  0
  5  7  1  0
  8  9  1  0
  8 10  1  0
  8 11  1  0
 12 16  1  0
 16 17  2  0
 17 19  1  0
 19 21  2  0
 21 23  1  0
 23 25  2  0
 25 16  1  0
 12 13  1  0
 12 14  1  0
 12 15  1  0
 17 18  1  0
 19 20  1  0
 21 22  1  0
 23 24  1  0
 25 26  1  0
M  CHG  1   8   1
M  END
>  <PDB_ID>  (123) 
pdb2bvf

>  <RESIDUE_NAME>  (123) 
LYS   PHE

>  <FRAG_NAME>  (123) 
ETAM   MBZ

>  <FRAG_ATOM_NUM>  (123) 
fragi: 11  fragj: 15

>  <atom.prop.CHAIN_ID>  (123) 
A A A A A A A A A A A Z Z Z Z Z Z Z Z Z Z Z Z Z Z Z

>  <atom.prop.IS_HEAVY_ATOM>  (123) 
1 0 0 0 1 0 0 1 0 0 0 1 0 0 0 1 1 0 1 0 1 0 1 0 1 0

>  <DIFUSE_FUNC_ATOM>  (123) 
n/a

>  <FINAL_SINGLE_POINT_ENERGY>  (123) 
0

>  <NONCOV_INTER_ENERGY_QM>  (123) 
0

>  <FF_Energy>  (123) 
8.85

>  <QM_Energy>  (123) 
-0.32

>  <source>  (123) 
ETAM_MBZ

>  <Index>  (123) 
1212

$$$$
ETAM-pdb1ava-B-LYS-331:MBZ-pdb1ava-B-PHE-325
     RDKit          3D

 26 25  0  0  0  0  0  0  0  0999 V2000
    0.7182   -1.7463    4.0863 C   0  0  0  0  0  0  0  0  0  0  0  0
    1.3346   -1.3737    3.3989 H   0  0  0  0  0  0  0  0  0  0  0  0
    0.9440   -1.3828    4.9846 H   0  0  0  0  0  0  0  0  0  0  0  0
   -0.3062   -1.4713    3.8348 H   0  0  0  0  0  0  0  0  0  0  0  0
    0.9185   -3.2756    4.1267 C   0  0  0  0  0  0  0  0  0  0  0  0
    1.8512   -3.4623    4.4877 H   0  0  0  0  0  0  0  0  0  0  0  0
    0.2619   -3.6630    4.8008 H   0  0  0  0  0  0  0  0  0  0  0  0
    0.7510   -3.9882    2.8222 N   0  0  0  0  0  4  0  0  0  0  0  0
   -0.0467   -4.5864    2.8755 H   0  0  0  0  0  0  0  0  0  0  0  0
    0.6209   -3.3159    2.0963 H   0  0  0  0  0  0  0  0  0  0  0  0
    1.5685   -4.5317    2.6380 H   0  0  0  0  0  0  0  0  0  0  0  0
    0.0029    2.9143   -0.0263 C   0  0  0  0  0  0  0  0  0  0  0  0
   -0.5351    3.2075   -0.8040 H   0  0  0  0  0  0  0  0  0  0  0  0
    0.9415    3.2173   -0.1056 H   0  0  0  0  0  0  0  0  0  0  0  0
   -0.4213    3.3795    0.8636 H   0  0  0  0  0  0  0  0  0  0  0  0
    0.0008    1.4080    0.0002 C   0  0  0  0  0  0  0  0  0  0  0  0
   -1.2008    0.6974    0.0001 C   0  0  0  0  0  0  0  0  0  0  0  0
   -2.0660    1.1836   -0.0012 H   0  0  0  0  0  0  0  0  0  0  0  0
   -1.2059   -0.7048    0.0000 C   0  0  0  0  0  0  0  0  0  0  0  0
   -2.0803   -1.1945    0.0006 H   0  0  0  0  0  0  0  0  0  0  0  0
    0.0013   -1.4013    0.0008 C   0  0  0  0  0  0  0  0  0  0  0  0
    0.0009   -2.3974    0.0013 H   0  0  0  0  0  0  0  0  0  0  0  0
    1.2059   -0.6981   -0.0000 C   0  0  0  0  0  0  0  0  0  0  0  0
    2.0869   -1.1927    0.0017 H   0  0  0  0  0  0  0  0  0  0  0  0
    1.1987    0.6988   -0.0012 C   0  0  0  0  0  0  0  0  0  0  0  0
    2.0671    1.1934   -0.0041 H   0  0  0  0  0  0  0  0  0  0  0  0
  1  5  1  0
  5  8  1  0
  1  2  1  0
  1  3  1  0
  1  4  1  0
  5  6  1  0
  5  7  1  0
  8  9  1  0
  8 10  1  0
  8 11  1  0
 12 16  1  0
 16 17  2  0
 17 19  1  0
 19 21  2  0
 21 23  1  0
 23 25  2  0
 25 16  1  0
 12 13  1  0
 12 14  1  0
 12 15  1  0
 17 18  1  0
 19 20  1  0
 21 22  1  0
 23 24  1  0
 25 26  1  0
M  CHG  1   8   1
M  END
>  <PDB_ID>  (124) 
pdb1ava

>  <RESIDUE_NAME>  (124) 
LYS   PHE

>  <FRAG_NAME>  (124) 
ETAM   MBZ

>  <FRAG_ATOM_NUM>  (124) 
fragi: 11  fragj: 15

>  <atom.prop.CHAIN_ID>  (124) 
A A A A A A A A A A A Z Z Z Z Z Z Z Z Z Z Z Z Z Z Z

>  <atom.prop.IS_HEAVY_ATOM>  (124) 
1 0 0 0 1 0 0 1 0 0 0 1 0 0 0 1 1 0 1 0 1 0 1 0 1 0

>  <DIFUSE_FUNC_ATOM>  (124) 
n/a

>  <FINAL_SINGLE_POINT_ENERGY>  (124) 
0

>  <NONCOV_INTER_ENERGY_QM>  (124) 
0

>  <FF_Energy>  (124) 
-1.62

>  <QM_Energy>  (124) 
-6.71

>  <source>  (124) 
ETAM_MBZ

>  <Index>  (124) 
1219

$$$$
ETAM-pdb1b8a-B-LYS-1035:MBZ-pdb1b8a-B-PHE-1060
     RDKit          3D

 26 25  0  0  0  0  0  0  0  0999 V2000
   -0.9854   -0.2546    4.0329 C   0  0  0  0  0  0  0  0  0  0  0  0
   -1.2795    0.6428    3.7459 H   0  0  0  0  0  0  0  0  0  0  0  0
   -0.8410   -0.2954    5.0078 H   0  0  0  0  0  0  0  0  0  0  0  0
   -1.7451   -0.9846    3.7536 H   0  0  0  0  0  0  0  0  0  0  0  0
    0.3282   -0.5841    3.3317 C   0  0  0  0  0  0  0  0  0  0  0  0
    0.4987   -1.5677    3.4057 H   0  0  0  0  0  0  0  0  0  0  0  0
    0.2529   -0.3331    2.3659 H   0  0  0  0  0  0  0  0  0  0  0  0
    1.4745    0.1582    3.9417 N   0  0  0  0  0  4  0  0  0  0  0  0
    1.1204    0.8769    4.5377 H   0  0  0  0  0  0  0  0  0  0  0  0
    2.0309   -0.4774    4.4739 H   0  0  0  0  0  0  0  0  0  0  0  0
    2.0261    0.5634    3.2158 H   0  0  0  0  0  0  0  0  0  0  0  0
    0.0087    2.9363   -0.0574 C   0  0  0  0  0  0  0  0  0  0  0  0
   -0.5818    3.2151   -0.7994 H   0  0  0  0  0  0  0  0  0  0  0  0
    0.9408    3.2290   -0.2071 H   0  0  0  0  0  0  0  0  0  0  0  0
   -0.3478    3.4262    0.8487 H   0  0  0  0  0  0  0  0  0  0  0  0
   -0.0001    1.4176   -0.0004 C   0  0  0  0  0  0  0  0  0  0  0  0
   -1.2031    0.7034    0.0025 C   0  0  0  0  0  0  0  0  0  0  0  0
   -2.0705    1.1830    0.0052 H   0  0  0  0  0  0  0  0  0  0  0  0
   -1.2113   -0.7177   -0.0000 C   0  0  0  0  0  0  0  0  0  0  0  0
   -2.0833   -1.1995    0.0018 H   0  0  0  0  0  0  0  0  0  0  0  0
    0.0024   -1.4133   -0.0036 C   0  0  0  0  0  0  0  0  0  0  0  0
    0.0069   -2.4064   -0.0096 H   0  0  0  0  0  0  0  0  0  0  0  0
    1.2113   -0.6995   -0.0000 C   0  0  0  0  0  0  0  0  0  0  0  0
    2.0929   -1.1889    0.0028 H   0  0  0  0  0  0  0  0  0  0  0  0
    1.2008    0.7096    0.0015 C   0  0  0  0  0  0  0  0  0  0  0  0
    2.0687    1.2015    0.0032 H   0  0  0  0  0  0  0  0  0  0  0  0
  1  5  1  0
  5  8  1  0
  1  2  1  0
  1  3  1  0
  1  4  1  0
  5  6  1  0
  5  7  1  0
  8  9  1  0
  8 10  1  0
  8 11  1  0
 12 16  1  0
 16 17  2  0
 17 19  1  0
 19 21  2  0
 21 23  1  0
 23 25  2  0
 25 16  1  0
 12 13  1  0
 12 14  1  0
 12 15  1  0
 17 18  1  0
 19 20  1  0
 21 22  1  0
 23 24  1  0
 25 26  1  0
M  CHG  1   8   1
M  END
>  <PDB_ID>  (125) 
pdb1b8a

>  <RESIDUE_NAME>  (125) 
LYS   PHE

>  <FRAG_NAME>  (125) 
ETAM   MBZ

>  <FRAG_ATOM_NUM>  (125) 
fragi: 11  fragj: 15

>  <atom.prop.CHAIN_ID>  (125) 
A A A A A A A A A A A Z Z Z Z Z Z Z Z Z Z Z Z Z Z Z

>  <atom.prop.IS_HEAVY_ATOM>  (125) 
1 0 0 0 1 0 0 1 0 0 0 1 0 0 0 1 1 0 1 0 1 0 1 0 1 0

>  <DIFUSE_FUNC_ATOM>  (125) 
n/a

>  <FINAL_SINGLE_POINT_ENERGY>  (125) 
0

>  <NONCOV_INTER_ENERGY_QM>  (125) 
0

>  <FF_Energy>  (125) 
-4.84

>  <QM_Energy>  (125) 
-11.17

>  <source>  (125) 
ETAM_MBZ

>  <Index>  (125) 
1227

$$$$
ETAM-pdb2bw3-A-LYS-457:MBZ-pdb2bw3-A-PHE-453
     RDKit          3D

 26 25  0  0  0  0  0  0  0  0999 V2000
   -1.5797   -1.9753    3.8174 C   0  0  0  0  0  0  0  0  0  0  0  0
   -1.3063   -2.9427    3.8043 H   0  0  0  0  0  0  0  0  0  0  0  0
   -1.9705   -1.7632    4.7189 H   0  0  0  0  0  0  0  0  0  0  0  0
   -0.6935   -1.3592    3.6650 H   0  0  0  0  0  0  0  0  0  0  0  0
   -2.6501   -1.7641    2.7687 C   0  0  0  0  0  0  0  0  0  0  0  0
   -2.2095   -1.5715    1.8809 H   0  0  0  0  0  0  0  0  0  0  0  0
   -3.1890   -2.6132    2.6692 H   0  0  0  0  0  0  0  0  0  0  0  0
   -3.5874   -0.6388    3.0916 N   0  0  0  0  0  4  0  0  0  0  0  0
   -3.0925    0.0610    3.6028 H   0  0  0  0  0  0  0  0  0  0  0  0
   -3.9379   -0.2525    2.2417 H   0  0  0  0  0  0  0  0  0  0  0  0
   -4.3423   -0.9910    3.6409 H   0  0  0  0  0  0  0  0  0  0  0  0
    0.0117    2.9197   -0.0933 C   0  0  0  0  0  0  0  0  0  0  0  0
   -0.6572    3.1852   -0.7714 H   0  0  0  0  0  0  0  0  0  0  0  0
    0.9221    3.2040   -0.3552 H   0  0  0  0  0  0  0  0  0  0  0  0
   -0.2406    3.4217    0.8407 H   0  0  0  0  0  0  0  0  0  0  0  0
    0.0051    1.4147   -0.0014 C   0  0  0  0  0  0  0  0  0  0  0  0
   -1.1949    0.7090    0.0040 C   0  0  0  0  0  0  0  0  0  0  0  0
   -2.0609    1.1919    0.0091 H   0  0  0  0  0  0  0  0  0  0  0  0
   -1.2029   -0.7019   -0.0000 C   0  0  0  0  0  0  0  0  0  0  0  0
   -2.0886   -1.1808    0.0030 H   0  0  0  0  0  0  0  0  0  0  0  0
   -0.0114   -1.4087   -0.0062 C   0  0  0  0  0  0  0  0  0  0  0  0
   -0.0181   -2.4046   -0.0158 H   0  0  0  0  0  0  0  0  0  0  0  0
    1.2029   -0.7162    0.0000 C   0  0  0  0  0  0  0  0  0  0  0  0
    2.0792   -1.2057    0.0032 H   0  0  0  0  0  0  0  0  0  0  0  0
    1.2012    0.7031    0.0037 C   0  0  0  0  0  0  0  0  0  0  0  0
    2.0721    1.1838    0.0092 H   0  0  0  0  0  0  0  0  0  0  0  0
  1  5  1  0
  5  8  1  0
  1  2  1  0
  1  3  1  0
  1  4  1  0
  5  6  1  0
  5  7  1  0
  8  9  1  0
  8 10  1  0
  8 11  1  0
 12 16  1  0
 16 17  2  0
 17 19  1  0
 19 21  2  0
 21 23  1  0
 23 25  2  0
 25 16  1  0
 12 13  1  0
 12 14  1  0
 12 15  1  0
 17 18  1  0
 19 20  1  0
 21 22  1  0
 23 24  1  0
 25 26  1  0
M  CHG  1   8   1
M  END
>  <PDB_ID>  (126) 
pdb2bw3

>  <RESIDUE_NAME>  (126) 
LYS   PHE

>  <FRAG_NAME>  (126) 
ETAM   MBZ

>  <FRAG_ATOM_NUM>  (126) 
fragi: 11  fragj: 15

>  <atom.prop.CHAIN_ID>  (126) 
A A A A A A A A A A A Z Z Z Z Z Z Z Z Z Z Z Z Z Z Z

>  <atom.prop.IS_HEAVY_ATOM>  (126) 
1 0 0 0 1 0 0 1 0 0 0 1 0 0 0 1 1 0 1 0 1 0 1 0 1 0

>  <DIFUSE_FUNC_ATOM>  (126) 
n/a

>  <FINAL_SINGLE_POINT_ENERGY>  (126) 
0

>  <NONCOV_INTER_ENERGY_QM>  (126) 
0

>  <FF_Energy>  (126) 
2.5

>  <QM_Energy>  (126) 
-4.95

>  <source>  (126) 
ETAM_MBZ

>  <Index>  (126) 
1239

$$$$
ETAM-pdb1be4-A-LYS-56:MBZ-pdb1be4-A-PHE-61
     RDKit          3D

 26 25  0  0  0  0  0  0  0  0999 V2000
    1.0002   -1.7588   -4.9038 C   0  0  0  0  0  0  0  0  0  0  0  0
    1.0568   -2.7269   -4.6465 H   0  0  0  0  0  0  0  0  0  0  0  0
    1.3846   -1.6431   -5.8237 H   0  0  0  0  0  0  0  0  0  0  0  0
   -0.0494   -1.4656   -4.9249 H   0  0  0  0  0  0  0  0  0  0  0  0
    1.8635   -0.9508   -3.9198 C   0  0  0  0  0  0  0  0  0  0  0  0
    1.8169   -1.4383   -2.9930 H   0  0  0  0  0  0  0  0  0  0  0  0
    2.8656   -1.0928   -4.1955 H   0  0  0  0  0  0  0  0  0  0  0  0
    1.6496    0.5049   -3.6886 N   0  0  0  0  0  4  0  0  0  0  0  0
    2.2321    1.0276   -4.3102 H   0  0  0  0  0  0  0  0  0  0  0  0
    0.6913    0.7300   -3.8592 H   0  0  0  0  0  0  0  0  0  0  0  0
    1.8830    0.7279   -2.7427 H   0  0  0  0  0  0  0  0  0  0  0  0
   -0.2672    2.9792    0.1898 C   0  0  0  0  0  0  0  0  0  0  0  0
   -0.9572    3.2532   -0.4353 H   0  0  0  0  0  0  0  0  0  0  0  0
    0.5833    3.4347    0.0744 H   0  0  0  0  0  0  0  0  0  0  0  0
   -0.6264    3.2176    1.1909 H   0  0  0  0  0  0  0  0  0  0  0  0
   -0.0312    1.4697    0.0130 C   0  0  0  0  0  0  0  0  0  0  0  0
   -1.1475    0.6452   -0.0072 C   0  0  0  0  0  0  0  0  0  0  0  0
   -2.0795    1.1219   -0.0321 H   0  0  0  0  0  0  0  0  0  0  0  0
   -1.1881   -0.7511   -0.0000 C   0  0  0  0  0  0  0  0  0  0  0  0
   -2.0524   -1.2306    0.0163 H   0  0  0  0  0  0  0  0  0  0  0  0
    0.0265   -1.4321   -0.0147 C   0  0  0  0  0  0  0  0  0  0  0  0
    0.0585   -2.4108   -0.0354 H   0  0  0  0  0  0  0  0  0  0  0  0
    1.1881   -0.6640    0.0000 C   0  0  0  0  0  0  0  0  0  0  0  0
    2.1009   -1.1308    0.0065 H   0  0  0  0  0  0  0  0  0  0  0  0
    1.1522    0.7324    0.0089 C   0  0  0  0  0  0  0  0  0  0  0  0
    2.0350    1.2360    0.0115 H   0  0  0  0  0  0  0  0  0  0  0  0
  1  5  1  0
  5  8  1  0
  1  2  1  0
  1  3  1  0
  1  4  1  0
  5  6  1  0
  5  7  1  0
  8  9  1  0
  8 10  1  0
  8 11  1  0
 12 16  1  0
 16 17  2  0
 17 19  1  0
 19 21  2  0
 21 23  1  0
 23 25  2  0
 25 16  1  0
 12 13  1  0
 12 14  1  0
 12 15  1  0
 17 18  1  0
 19 20  1  0
 21 22  1  0
 23 24  1  0
 25 26  1  0
M  CHG  1   8   1
M  END
>  <PDB_ID>  (127) 
pdb1be4

>  <RESIDUE_NAME>  (127) 
LYS   PHE

>  <FRAG_NAME>  (127) 
ETAM   MBZ

>  <FRAG_ATOM_NUM>  (127) 
fragi: 11  fragj: 15

>  <atom.prop.CHAIN_ID>  (127) 
A A A A A A A A A A A Z Z Z Z Z Z Z Z Z Z Z Z Z Z Z

>  <atom.prop.IS_HEAVY_ATOM>  (127) 
1 0 0 0 1 0 0 1 0 0 0 1 0 0 0 1 1 0 1 0 1 0 1 0 1 0

>  <DIFUSE_FUNC_ATOM>  (127) 
n/a

>  <FINAL_SINGLE_POINT_ENERGY>  (127) 
0

>  <NONCOV_INTER_ENERGY_QM>  (127) 
0

>  <FF_Energy>  (127) 
-5.56

>  <QM_Energy>  (127) 
-10.86

>  <source>  (127) 
ETAM_MBZ

>  <Index>  (127) 
1251

$$$$
ETAM-pdb2c1w-C-LYS-224:MBZ-pdb2c1w-C-PHE-217
     RDKit          3D

 26 25  0  0  0  0  0  0  0  0999 V2000
    2.8702   -0.3230   -4.7183 C   0  0  0  0  0  0  0  0  0  0  0  0
    3.4894   -0.7501   -5.3585 H   0  0  0  0  0  0  0  0  0  0  0  0
    3.3575    0.0975   -3.9692 H   0  0  0  0  0  0  0  0  0  0  0  0
    2.2833    0.4349   -5.2371 H   0  0  0  0  0  0  0  0  0  0  0  0
    1.9384   -1.3660   -4.1697 C   0  0  0  0  0  0  0  0  0  0  0  0
    1.5348   -1.8949   -4.9187 H   0  0  0  0  0  0  0  0  0  0  0  0
    2.4356   -1.9858   -3.5593 H   0  0  0  0  0  0  0  0  0  0  0  0
    0.7910   -0.7428   -3.3675 N   0  0  0  0  0  4  0  0  0  0  0  0
    1.1835   -0.1561   -2.6695 H   0  0  0  0  0  0  0  0  0  0  0  0
    0.2270   -0.2166   -3.9913 H   0  0  0  0  0  0  0  0  0  0  0  0
    0.2669   -1.4776   -2.9549 H   0  0  0  0  0  0  0  0  0  0  0  0
   -0.0035    2.9254    0.0465 C   0  0  0  0  0  0  0  0  0  0  0  0
    0.8408    3.2156    0.4777 H   0  0  0  0  0  0  0  0  0  0  0  0
   -0.7876    3.2022    0.5872 H   0  0  0  0  0  0  0  0  0  0  0  0
   -0.0726    3.4293   -0.9176 H   0  0  0  0  0  0  0  0  0  0  0  0
    0.0049    1.4105   -0.0159 C   0  0  0  0  0  0  0  0  0  0  0  0
   -1.2050    0.6877    0.0162 C   0  0  0  0  0  0  0  0  0  0  0  0
   -2.0670    1.1792    0.0491 H   0  0  0  0  0  0  0  0  0  0  0  0
   -1.2107   -0.7122   -0.0000 C   0  0  0  0  0  0  0  0  0  0  0  0
   -2.0816   -1.2046   -0.0044 H   0  0  0  0  0  0  0  0  0  0  0  0
    0.0003   -1.4014   -0.0080 C   0  0  0  0  0  0  0  0  0  0  0  0
    0.0097   -2.3968   -0.0200 H   0  0  0  0  0  0  0  0  0  0  0  0
    1.2107   -0.6877    0.0000 C   0  0  0  0  0  0  0  0  0  0  0  0
    2.0894   -1.1864    0.0014 H   0  0  0  0  0  0  0  0  0  0  0  0
    1.1998    0.7032    0.0077 C   0  0  0  0  0  0  0  0  0  0  0  0
    2.0688    1.2012    0.0295 H   0  0  0  0  0  0  0  0  0  0  0  0
  1  5  1  0
  5  8  1  0
  1  2  1  0
  1  3  1  0
  1  4  1  0
  5  6  1  0
  5  7  1  0
  8  9  1  0
  8 10  1  0
  8 11  1  0
 12 16  1  0
 16 17  2  0
 17 19  1  0
 19 21  2  0
 21 23  1  0
 23 25  2  0
 25 16  1  0
 12 13  1  0
 12 14  1  0
 12 15  1  0
 17 18  1  0
 19 20  1  0
 21 22  1  0
 23 24  1  0
 25 26  1  0
M  CHG  1   8   1
M  END
>  <PDB_ID>  (128) 
pdb2c1w

>  <RESIDUE_NAME>  (128) 
LYS   PHE

>  <FRAG_NAME>  (128) 
ETAM   MBZ

>  <FRAG_ATOM_NUM>  (128) 
fragi: 11  fragj: 15

>  <atom.prop.CHAIN_ID>  (128) 
A A A A A A A A A A A Z Z Z Z Z Z Z Z Z Z Z Z Z Z Z

>  <atom.prop.IS_HEAVY_ATOM>  (128) 
1 0 0 0 1 0 0 1 0 0 0 1 0 0 0 1 1 0 1 0 1 0 1 0 1 0

>  <DIFUSE_FUNC_ATOM>  (128) 
n/a

>  <FINAL_SINGLE_POINT_ENERGY>  (128) 
0

>  <NONCOV_INTER_ENERGY_QM>  (128) 
0

>  <FF_Energy>  (128) 
-7.09

>  <QM_Energy>  (128) 
-13.8

>  <source>  (128) 
ETAM_MBZ

>  <Index>  (128) 
1258

$$$$
ETAM-pdb1be4-C-LYS-39:MBZ-pdb1be4-C-PHE-134
     RDKit          3D

 26 25  0  0  0  0  0  0  0  0999 V2000
   -4.5670   -1.5745   -1.9651 C   0  0  0  0  0  0  0  0  0  0  0  0
   -4.8111   -1.6246   -2.8954 H   0  0  0  0  0  0  0  0  0  0  0  0
   -5.2908   -1.4447   -1.3444 H   0  0  0  0  0  0  0  0  0  0  0  0
   -3.9882   -2.4545   -1.6846 H   0  0  0  0  0  0  0  0  0  0  0  0
   -3.5672   -0.4134   -1.7901 C   0  0  0  0  0  0  0  0  0  0  0  0
   -3.5130   -0.1979   -0.7709 H   0  0  0  0  0  0  0  0  0  0  0  0
   -2.6149   -0.7845   -2.0011 H   0  0  0  0  0  0  0  0  0  0  0  0
   -3.7334    0.8818   -2.5298 N   0  0  0  0  0  4  0  0  0  0  0  0
   -4.2566    1.5155   -1.9637 H   0  0  0  0  0  0  0  0  0  0  0  0
   -2.8325    1.2642   -2.7231 H   0  0  0  0  0  0  0  0  0  0  0  0
   -4.2195    0.7085   -3.3833 H   0  0  0  0  0  0  0  0  0  0  0  0
   -0.0473    3.0187    0.1844 C   0  0  0  0  0  0  0  0  0  0  0  0
    0.8549    3.3219    0.2351 H   0  0  0  0  0  0  0  0  0  0  0  0
   -0.6499    3.2938    0.8702 H   0  0  0  0  0  0  0  0  0  0  0  0
   -0.4480    3.4175   -0.7475 H   0  0  0  0  0  0  0  0  0  0  0  0
   -0.0464    1.4590    0.1172 C   0  0  0  0  0  0  0  0  0  0  0  0
   -1.1582    0.6121    0.0929 C   0  0  0  0  0  0  0  0  0  0  0  0
   -2.0933    1.0733    0.1501 H   0  0  0  0  0  0  0  0  0  0  0  0
   -1.1750   -0.7840    0.0000 C   0  0  0  0  0  0  0  0  0  0  0  0
   -2.0244   -1.2828    0.0396 H   0  0  0  0  0  0  0  0  0  0  0  0
    0.0532   -1.4370   -0.1478 C   0  0  0  0  0  0  0  0  0  0  0  0
    0.1127   -2.3786   -0.3377 H   0  0  0  0  0  0  0  0  0  0  0  0
    1.1750   -0.6220    0.0000 C   0  0  0  0  0  0  0  0  0  0  0  0
    2.0960   -1.0796    0.1698 H   0  0  0  0  0  0  0  0  0  0  0  0
    1.1514    0.7719   -0.0623 C   0  0  0  0  0  0  0  0  0  0  0  0
    1.9911    1.2734   -0.2359 H   0  0  0  0  0  0  0  0  0  0  0  0
  1  5  1  0
  5  8  1  0
  1  2  1  0
  1  3  1  0
  1  4  1  0
  5  6  1  0
  5  7  1  0
  8  9  1  0
  8 10  1  0
  8 11  1  0
 12 16  1  0
 16 17  2  0
 17 19  1  0
 19 21  2  0
 21 23  1  0
 23 25  2  0
 25 16  1  0
 12 13  1  0
 12 14  1  0
 12 15  1  0
 17 18  1  0
 19 20  1  0
 21 22  1  0
 23 24  1  0
 25 26  1  0
M  CHG  1   8   1
M  END
>  <PDB_ID>  (129) 
pdb1be4

>  <RESIDUE_NAME>  (129) 
LYS   PHE

>  <FRAG_NAME>  (129) 
ETAM   MBZ

>  <FRAG_ATOM_NUM>  (129) 
fragi: 11  fragj: 15

>  <atom.prop.CHAIN_ID>  (129) 
A A A A A A A A A A A Z Z Z Z Z Z Z Z Z Z Z Z Z Z Z

>  <atom.prop.IS_HEAVY_ATOM>  (129) 
1 0 0 0 1 0 0 1 0 0 0 1 0 0 0 1 1 0 1 0 1 0 1 0 1 0

>  <DIFUSE_FUNC_ATOM>  (129) 
n/a

>  <FINAL_SINGLE_POINT_ENERGY>  (129) 
0

>  <NONCOV_INTER_ENERGY_QM>  (129) 
0

>  <FF_Energy>  (129) 
4.18

>  <QM_Energy>  (129) 
-3.14

>  <source>  (129) 
ETAM_MBZ

>  <Index>  (129) 
1282

$$$$
ETAM-pdb2c3n-D-LYS-22:MBZ-pdb2c3n-D-PHE-28
     RDKit          3D

 26 25  0  0  0  0  0  0  0  0999 V2000
    3.3771   -3.9656    1.5975 C   0  0  0  0  0  0  0  0  0  0  0  0
    4.1752   -4.3239    2.0643 H   0  0  0  0  0  0  0  0  0  0  0  0
    3.4116   -2.9769    1.5418 H   0  0  0  0  0  0  0  0  0  0  0  0
    3.3473   -4.3746    0.5876 H   0  0  0  0  0  0  0  0  0  0  0  0
    2.1371   -4.3687    2.3692 C   0  0  0  0  0  0  0  0  0  0  0  0
    2.0834   -5.3663    2.3974 H   0  0  0  0  0  0  0  0  0  0  0  0
    2.2041   -4.0109    3.2995 H   0  0  0  0  0  0  0  0  0  0  0  0
    0.9329   -3.8267    1.7165 N   0  0  0  0  0  4  0  0  0  0  0  0
    0.1699   -3.8167    2.3660 H   0  0  0  0  0  0  0  0  0  0  0  0
    1.1096   -2.8913    1.4020 H   0  0  0  0  0  0  0  0  0  0  0  0
    0.6871   -4.3975    0.9297 H   0  0  0  0  0  0  0  0  0  0  0  0
   -0.0136    2.9145   -0.0222 C   0  0  0  0  0  0  0  0  0  0  0  0
   -0.8893    3.2036   -0.3783 H   0  0  0  0  0  0  0  0  0  0  0  0
    0.7284    3.2204   -0.5995 H   0  0  0  0  0  0  0  0  0  0  0  0
    0.1156    3.3801    0.9549 H   0  0  0  0  0  0  0  0  0  0  0  0
    0.0048    1.4014    0.0003 C   0  0  0  0  0  0  0  0  0  0  0  0
   -1.2035    0.6853    0.0077 C   0  0  0  0  0  0  0  0  0  0  0  0
   -2.0648    1.1891    0.0173 H   0  0  0  0  0  0  0  0  0  0  0  0
   -1.2165   -0.6944    0.0000 C   0  0  0  0  0  0  0  0  0  0  0  0
   -2.0908   -1.1893   -0.0073 H   0  0  0  0  0  0  0  0  0  0  0  0
   -0.0149   -1.3870    0.0042 C   0  0  0  0  0  0  0  0  0  0  0  0
   -0.0120   -2.3880    0.0100 H   0  0  0  0  0  0  0  0  0  0  0  0
    1.2165   -0.6946   -0.0000 C   0  0  0  0  0  0  0  0  0  0  0  0
    2.0802   -1.2073    0.0073 H   0  0  0  0  0  0  0  0  0  0  0  0
    1.2136    0.6894   -0.0122 C   0  0  0  0  0  0  0  0  0  0  0  0
    2.0751    1.1930   -0.0309 H   0  0  0  0  0  0  0  0  0  0  0  0
  1  5  1  0
  5  8  1  0
  1  2  1  0
  1  3  1  0
  1  4  1  0
  5  6  1  0
  5  7  1  0
  8  9  1  0
  8 10  1  0
  8 11  1  0
 12 16  1  0
 16 17  2  0
 17 19  1  0
 19 21  2  0
 21 23  1  0
 23 25  2  0
 25 16  1  0
 12 13  1  0
 12 14  1  0
 12 15  1  0
 17 18  1  0
 19 20  1  0
 21 22  1  0
 23 24  1  0
 25 26  1  0
M  CHG  1   8   1
M  END
>  <PDB_ID>  (130) 
pdb2c3n

>  <RESIDUE_NAME>  (130) 
LYS   PHE

>  <FRAG_NAME>  (130) 
ETAM   MBZ

>  <FRAG_ATOM_NUM>  (130) 
fragi: 11  fragj: 15

>  <atom.prop.CHAIN_ID>  (130) 
A A A A A A A A A A A Z Z Z Z Z Z Z Z Z Z Z Z Z Z Z

>  <atom.prop.IS_HEAVY_ATOM>  (130) 
1 0 0 0 1 0 0 1 0 0 0 1 0 0 0 1 1 0 1 0 1 0 1 0 1 0

>  <DIFUSE_FUNC_ATOM>  (130) 
n/a

>  <FINAL_SINGLE_POINT_ENERGY>  (130) 
0

>  <NONCOV_INTER_ENERGY_QM>  (130) 
0

>  <FF_Energy>  (130) 
1.74

>  <QM_Energy>  (130) 
-6.13

>  <source>  (130) 
ETAM_MBZ

>  <Index>  (130) 
1292

$$$$
ETAM-pdb1bhp-A-LYS-32:MBZ-pdb1bhp-A-PHE-43
     RDKit          3D

 26 25  0  0  0  0  0  0  0  0999 V2000
   -1.2012   -0.9400   -3.7652 C   0  0  0  0  0  0  0  0  0  0  0  0
   -1.4051   -0.6202   -2.8627 H   0  0  0  0  0  0  0  0  0  0  0  0
   -1.5357   -0.3463   -4.4682 H   0  0  0  0  0  0  0  0  0  0  0  0
   -0.1233   -1.0612   -3.8727 H   0  0  0  0  0  0  0  0  0  0  0  0
   -1.8766   -2.3278   -3.9468 C   0  0  0  0  0  0  0  0  0  0  0  0
   -2.7687   -2.2971   -3.5429 H   0  0  0  0  0  0  0  0  0  0  0  0
   -1.8988   -2.5425   -4.9025 H   0  0  0  0  0  0  0  0  0  0  0  0
   -1.0281   -3.3393   -3.2215 N   0  0  0  0  0  4  0  0  0  0  0  0
   -1.6057   -4.1006   -2.9370 H   0  0  0  0  0  0  0  0  0  0  0  0
   -0.3150   -3.6626   -3.8377 H   0  0  0  0  0  0  0  0  0  0  0  0
   -0.6192   -2.9044   -2.4236 H   0  0  0  0  0  0  0  0  0  0  0  0
    0.0271    2.8861    0.0206 C   0  0  0  0  0  0  0  0  0  0  0  0
   -0.7688    3.2086   -0.4772 H   0  0  0  0  0  0  0  0  0  0  0  0
    0.8632    3.1918   -0.4197 H   0  0  0  0  0  0  0  0  0  0  0  0
   -0.0032    3.3195    1.0203 H   0  0  0  0  0  0  0  0  0  0  0  0
    0.0121    1.3916   -0.0030 C   0  0  0  0  0  0  0  0  0  0  0  0
   -1.1992    0.7000   -0.0046 C   0  0  0  0  0  0  0  0  0  0  0  0
   -2.0550    1.2080   -0.0105 H   0  0  0  0  0  0  0  0  0  0  0  0
   -1.2210   -0.6798   -0.0000 C   0  0  0  0  0  0  0  0  0  0  0  0
   -2.0989   -1.1686    0.0031 H   0  0  0  0  0  0  0  0  0  0  0  0
   -0.0255   -1.3760    0.0021 C   0  0  0  0  0  0  0  0  0  0  0  0
   -0.0343   -2.3843    0.0045 H   0  0  0  0  0  0  0  0  0  0  0  0
    1.2210   -0.7103    0.0000 C   0  0  0  0  0  0  0  0  0  0  0  0
    2.0705   -1.2250   -0.0035 H   0  0  0  0  0  0  0  0  0  0  0  0
    1.2126    0.6746    0.0055 C   0  0  0  0  0  0  0  0  0  0  0  0
    2.0802    1.1772    0.0149 H   0  0  0  0  0  0  0  0  0  0  0  0
  1  5  1  0
  5  8  1  0
  1  2  1  0
  1  3  1  0
  1  4  1  0
  5  6  1  0
  5  7  1  0
  8  9  1  0
  8 10  1  0
  8 11  1  0
 12 16  1  0
 16 17  2  0
 17 19  1  0
 19 21  2  0
 21 23  1  0
 23 25  2  0
 25 16  1  0
 12 13  1  0
 12 14  1  0
 12 15  1  0
 17 18  1  0
 19 20  1  0
 21 22  1  0
 23 24  1  0
 25 26  1  0
M  CHG  1   8   1
M  END
>  <PDB_ID>  (131) 
pdb1bhp

>  <RESIDUE_NAME>  (131) 
LYS   PHE

>  <FRAG_NAME>  (131) 
ETAM   MBZ

>  <FRAG_ATOM_NUM>  (131) 
fragi: 11  fragj: 15

>  <atom.prop.CHAIN_ID>  (131) 
A A A A A A A A A A A Z Z Z Z Z Z Z Z Z Z Z Z Z Z Z

>  <atom.prop.IS_HEAVY_ATOM>  (131) 
1 0 0 0 1 0 0 1 0 0 0 1 0 0 0 1 1 0 1 0 1 0 1 0 1 0

>  <DIFUSE_FUNC_ATOM>  (131) 
n/a

>  <FINAL_SINGLE_POINT_ENERGY>  (131) 
0

>  <NONCOV_INTER_ENERGY_QM>  (131) 
0

>  <FF_Energy>  (131) 
-2.82

>  <QM_Energy>  (131) 
-8.34

>  <source>  (131) 
ETAM_MBZ

>  <Index>  (131) 
1302

$$$$
ETAM-pdb2c63-A-LYS-162:MBZ-pdb2c63-A-PHE-158
     RDKit          3D

 26 25  0  0  0  0  0  0  0  0999 V2000
    0.7316   -0.3619    4.5445 C   0  0  0  0  0  0  0  0  0  0  0  0
    1.2049    0.5145    4.5077 H   0  0  0  0  0  0  0  0  0  0  0  0
    1.0404   -0.8847    5.3345 H   0  0  0  0  0  0  0  0  0  0  0  0
   -0.3401   -0.1834    4.6316 H   0  0  0  0  0  0  0  0  0  0  0  0
    1.0875   -1.1520    3.2786 C   0  0  0  0  0  0  0  0  0  0  0  0
    1.1115   -2.1243    3.4973 H   0  0  0  0  0  0  0  0  0  0  0  0
    0.3981   -0.9771    2.5806 H   0  0  0  0  0  0  0  0  0  0  0  0
    2.4430   -0.7411    2.7381 N   0  0  0  0  0  4  0  0  0  0  0  0
    2.3689    0.1762    2.3582 H   0  0  0  0  0  0  0  0  0  0  0  0
    3.0999   -0.7537    3.4854 H   0  0  0  0  0  0  0  0  0  0  0  0
    2.7123   -1.3871    2.0306 H   0  0  0  0  0  0  0  0  0  0  0  0
    0.0367    2.9091   -0.0111 C   0  0  0  0  0  0  0  0  0  0  0  0
   -0.0089    3.2047   -0.9598 H   0  0  0  0  0  0  0  0  0  0  0  0
    0.8922    3.2050    0.4017 H   0  0  0  0  0  0  0  0  0  0  0  0
   -0.7765    3.3965    0.5268 H   0  0  0  0  0  0  0  0  0  0  0  0
    0.0070    1.4106    0.0097 C   0  0  0  0  0  0  0  0  0  0  0  0
   -1.1965    0.6864   -0.0054 C   0  0  0  0  0  0  0  0  0  0  0  0
   -2.0617    1.1871   -0.0219 H   0  0  0  0  0  0  0  0  0  0  0  0
   -1.2097   -0.6975    0.0000 C   0  0  0  0  0  0  0  0  0  0  0  0
   -2.0926   -1.1867    0.0125 H   0  0  0  0  0  0  0  0  0  0  0  0
   -0.0193   -1.4027   -0.0095 C   0  0  0  0  0  0  0  0  0  0  0  0
   -0.0153   -2.3961   -0.0237 H   0  0  0  0  0  0  0  0  0  0  0  0
    1.2097   -0.6994    0.0000 C   0  0  0  0  0  0  0  0  0  0  0  0
    2.0787   -1.2036    0.0047 H   0  0  0  0  0  0  0  0  0  0  0  0
    1.2088    0.7025    0.0052 C   0  0  0  0  0  0  0  0  0  0  0  0
    2.0749    1.1935    0.0053 H   0  0  0  0  0  0  0  0  0  0  0  0
  1  5  1  0
  5  8  1  0
  1  2  1  0
  1  3  1  0
  1  4  1  0
  5  6  1  0
  5  7  1  0
  8  9  1  0
  8 10  1  0
  8 11  1  0
 12 16  1  0
 16 17  2  0
 17 19  1  0
 19 21  2  0
 21 23  1  0
 23 25  2  0
 25 16  1  0
 12 13  1  0
 12 14  1  0
 12 15  1  0
 17 18  1  0
 19 20  1  0
 21 22  1  0
 23 24  1  0
 25 26  1  0
M  CHG  1   8   1
M  END
>  <PDB_ID>  (132) 
pdb2c63

>  <RESIDUE_NAME>  (132) 
LYS   PHE

>  <FRAG_NAME>  (132) 
ETAM   MBZ

>  <FRAG_ATOM_NUM>  (132) 
fragi: 11  fragj: 15

>  <atom.prop.CHAIN_ID>  (132) 
A A A A A A A A A A A Z Z Z Z Z Z Z Z Z Z Z Z Z Z Z

>  <atom.prop.IS_HEAVY_ATOM>  (132) 
1 0 0 0 1 0 0 1 0 0 0 1 0 0 0 1 1 0 1 0 1 0 1 0 1 0

>  <DIFUSE_FUNC_ATOM>  (132) 
n/a

>  <FINAL_SINGLE_POINT_ENERGY>  (132) 
0

>  <NONCOV_INTER_ENERGY_QM>  (132) 
0

>  <FF_Energy>  (132) 
-2.59

>  <QM_Energy>  (132) 
-10.88

>  <source>  (132) 
ETAM_MBZ

>  <Index>  (132) 
1319

$$$$
ETAM-pdb1bil-A-LYS-54:MBZ-pdb1bil-A-PHE-27
     RDKit          3D

 26 25  0  0  0  0  0  0  0  0999 V2000
   -1.4923   -0.1189   -5.0163 C   0  0  0  0  0  0  0  0  0  0  0  0
   -1.4372    0.2197   -5.9480 H   0  0  0  0  0  0  0  0  0  0  0  0
   -1.1581    0.5613   -4.3752 H   0  0  0  0  0  0  0  0  0  0  0  0
   -2.5311   -0.3512   -4.7817 H   0  0  0  0  0  0  0  0  0  0  0  0
   -0.6337   -1.3581   -4.8995 C   0  0  0  0  0  0  0  0  0  0  0  0
   -1.2359   -2.1549   -4.7284 H   0  0  0  0  0  0  0  0  0  0  0  0
   -0.1708   -1.5165   -5.7872 H   0  0  0  0  0  0  0  0  0  0  0  0
    0.3764   -1.2755   -3.8334 N   0  0  0  0  0  4  0  0  0  0  0  0
   -0.0322   -0.8826   -3.0069 H   0  0  0  0  0  0  0  0  0  0  0  0
    0.7249   -2.1919   -3.6230 H   0  0  0  0  0  0  0  0  0  0  0  0
    1.1383   -0.6952   -4.1304 H   0  0  0  0  0  0  0  0  0  0  0  0
    0.0019    2.9104    0.0073 C   0  0  0  0  0  0  0  0  0  0  0  0
    0.8322    3.2252    0.4096 H   0  0  0  0  0  0  0  0  0  0  0  0
   -0.7997    3.2291    0.4621 H   0  0  0  0  0  0  0  0  0  0  0  0
   -0.0298    3.2879   -1.0148 H   0  0  0  0  0  0  0  0  0  0  0  0
   -0.0017    1.4103    0.0241 C   0  0  0  0  0  0  0  0  0  0  0  0
   -1.1906    0.6933    0.0155 C   0  0  0  0  0  0  0  0  0  0  0  0
   -2.0642    1.1846    0.0190 H   0  0  0  0  0  0  0  0  0  0  0  0
   -1.2047   -0.6984    0.0000 C   0  0  0  0  0  0  0  0  0  0  0  0
   -2.0757   -1.1907   -0.0121 H   0  0  0  0  0  0  0  0  0  0  0  0
    0.0060   -1.3938    0.0033 C   0  0  0  0  0  0  0  0  0  0  0  0
   -0.0033   -2.3954    0.0075 H   0  0  0  0  0  0  0  0  0  0  0  0
    1.2047   -0.7039    0.0000 C   0  0  0  0  0  0  0  0  0  0  0  0
    2.0852   -1.1901    0.0293 H   0  0  0  0  0  0  0  0  0  0  0  0
    1.1863    0.6926   -0.0429 C   0  0  0  0  0  0  0  0  0  0  0  0
    2.0580    1.1878   -0.1257 H   0  0  0  0  0  0  0  0  0  0  0  0
  1  5  1  0
  5  8  1  0
  1  2  1  0
  1  3  1  0
  1  4  1  0
  5  6  1  0
  5  7  1  0
  8  9  1  0
  8 10  1  0
  8 11  1  0
 12 16  1  0
 16 17  2  0
 17 19  1  0
 19 21  2  0
 21 23  1  0
 23 25  2  0
 25 16  1  0
 12 13  1  0
 12 14  1  0
 12 15  1  0
 17 18  1  0
 19 20  1  0
 21 22  1  0
 23 24  1  0
 25 26  1  0
M  CHG  1   8   1
M  END
>  <PDB_ID>  (133) 
pdb1bil

>  <RESIDUE_NAME>  (133) 
LYS   PHE

>  <FRAG_NAME>  (133) 
ETAM   MBZ

>  <FRAG_ATOM_NUM>  (133) 
fragi: 11  fragj: 15

>  <atom.prop.CHAIN_ID>  (133) 
A A A A A A A A A A A Z Z Z Z Z Z Z Z Z Z Z Z Z Z Z

>  <atom.prop.IS_HEAVY_ATOM>  (133) 
1 0 0 0 1 0 0 1 0 0 0 1 0 0 0 1 1 0 1 0 1 0 1 0 1 0

>  <DIFUSE_FUNC_ATOM>  (133) 
n/a

>  <FINAL_SINGLE_POINT_ENERGY>  (133) 
0

>  <NONCOV_INTER_ENERGY_QM>  (133) 
0

>  <FF_Energy>  (133) 
-5.32

>  <QM_Energy>  (133) 
-10.5

>  <source>  (133) 
ETAM_MBZ

>  <Index>  (133) 
1320

$$$$
ETAM-pdb2c6c-A-LYS-499:MBZ-pdb2c6c-A-PHE-488
     RDKit          3D

 26 25  0  0  0  0  0  0  0  0999 V2000
   -3.1307   -3.5002   -0.1698 C   0  0  0  0  0  0  0  0  0  0  0  0
   -2.5230   -2.7453    0.0724 H   0  0  0  0  0  0  0  0  0  0  0  0
   -2.6687   -4.1096   -0.8136 H   0  0  0  0  0  0  0  0  0  0  0  0
   -3.3690   -4.0616    0.7336 H   0  0  0  0  0  0  0  0  0  0  0  0
   -4.3656   -2.9344   -0.8385 C   0  0  0  0  0  0  0  0  0  0  0  0
   -4.9764   -3.6841   -1.0875 H   0  0  0  0  0  0  0  0  0  0  0  0
   -4.8308   -2.3210   -0.2010 H   0  0  0  0  0  0  0  0  0  0  0  0
   -3.9944   -2.1791   -2.0619 N   0  0  0  0  0  4  0  0  0  0  0  0
   -3.0034   -2.0483   -2.0850 H   0  0  0  0  0  0  0  0  0  0  0  0
   -4.2824   -2.6922   -2.8714 H   0  0  0  0  0  0  0  0  0  0  0  0
   -4.4485   -1.2878   -2.0540 H   0  0  0  0  0  0  0  0  0  0  0  0
    0.0009    2.8477    0.0044 C   0  0  0  0  0  0  0  0  0  0  0  0
    0.8299    3.1590    0.4536 H   0  0  0  0  0  0  0  0  0  0  0  0
   -0.8025    3.1600    0.4970 H   0  0  0  0  0  0  0  0  0  0  0  0
   -0.0251    3.2965   -0.9885 H   0  0  0  0  0  0  0  0  0  0  0  0
   -0.0002    1.3734   -0.0086 C   0  0  0  0  0  0  0  0  0  0  0  0
   -1.1665    0.6833   -0.0007 C   0  0  0  0  0  0  0  0  0  0  0  0
   -2.0451    1.1658    0.0034 H   0  0  0  0  0  0  0  0  0  0  0  0
   -1.1685   -0.6962   -0.0000 C   0  0  0  0  0  0  0  0  0  0  0  0
   -2.0603   -1.1810   -0.0077 H   0  0  0  0  0  0  0  0  0  0  0  0
   -0.0072   -1.3614    0.0127 C   0  0  0  0  0  0  0  0  0  0  0  0
    0.0047   -2.3725    0.0313 H   0  0  0  0  0  0  0  0  0  0  0  0
    1.1685   -0.6738   -0.0000 C   0  0  0  0  0  0  0  0  0  0  0  0
    2.0588   -1.1877   -0.0051 H   0  0  0  0  0  0  0  0  0  0  0  0
    1.1739    0.6747   -0.0035 C   0  0  0  0  0  0  0  0  0  0  0  0
    2.0482    1.1788   -0.0030 H   0  0  0  0  0  0  0  0  0  0  0  0
  1  5  1  0
  5  8  1  0
  1  2  1  0
  1  3  1  0
  1  4  1  0
  5  6  1  0
  5  7  1  0
  8  9  1  0
  8 10  1  0
  8 11  1  0
 12 16  1  0
 16 17  2  0
 17 19  1  0
 19 21  2  0
 21 23  1  0
 23 25  2  0
 25 16  1  0
 12 13  1  0
 12 14  1  0
 12 15  1  0
 17 18  1  0
 19 20  1  0
 21 22  1  0
 23 24  1  0
 25 26  1  0
M  CHG  1   8   1
M  END
>  <PDB_ID>  (134) 
pdb2c6c

>  <RESIDUE_NAME>  (134) 
LYS   PHE

>  <FRAG_NAME>  (134) 
ETAM   MBZ

>  <FRAG_ATOM_NUM>  (134) 
fragi: 11  fragj: 15

>  <atom.prop.CHAIN_ID>  (134) 
A A A A A A A A A A A Z Z Z Z Z Z Z Z Z Z Z Z Z Z Z

>  <atom.prop.IS_HEAVY_ATOM>  (134) 
1 0 0 0 1 0 0 1 0 0 0 1 0 0 0 1 1 0 1 0 1 0 1 0 1 0

>  <DIFUSE_FUNC_ATOM>  (134) 
n/a

>  <FINAL_SINGLE_POINT_ENERGY>  (134) 
0

>  <NONCOV_INTER_ENERGY_QM>  (134) 
0

>  <FF_Energy>  (134) 
11.78

>  <QM_Energy>  (134) 
-1.75

>  <source>  (134) 
ETAM_MBZ

>  <Index>  (134) 
1322

$$$$
ETAM-pdb1biq-B-LYS-301:MBZ-pdb1biq-B-PHE-291
     RDKit          3D

 26 25  0  0  0  0  0  0  0  0999 V2000
    0.2396    4.8281   -2.9949 C   0  0  0  0  0  0  0  0  0  0  0  0
    1.1257    4.6104   -3.3725 H   0  0  0  0  0  0  0  0  0  0  0  0
   -0.2325    5.5006   -3.5433 H   0  0  0  0  0  0  0  0  0  0  0  0
   -0.3613    3.9200   -2.9443 H   0  0  0  0  0  0  0  0  0  0  0  0
    0.4277    5.3818   -1.5999 C   0  0  0  0  0  0  0  0  0  0  0  0
   -0.4658    5.3463   -1.1131 H   0  0  0  0  0  0  0  0  0  0  0  0
    1.0603    4.7682   -1.0900 H   0  0  0  0  0  0  0  0  0  0  0  0
    0.9487    6.7601   -1.5500 N   0  0  0  0  0  4  0  0  0  0  0  0
    0.2155    7.3904   -1.2857 H   0  0  0  0  0  0  0  0  0  0  0  0
    1.6898    6.8174   -0.8784 H   0  0  0  0  0  0  0  0  0  0  0  0
    1.2996    7.0223   -2.4512 H   0  0  0  0  0  0  0  0  0  0  0  0
    0.0010    2.8721    0.0546 C   0  0  0  0  0  0  0  0  0  0  0  0
   -0.7953    3.2037   -0.4225 H   0  0  0  0  0  0  0  0  0  0  0  0
    0.8365    3.1999   -0.3527 H   0  0  0  0  0  0  0  0  0  0  0  0
   -0.0417    3.2544    1.0745 H   0  0  0  0  0  0  0  0  0  0  0  0
    0.0008    1.3802   -0.0063 C   0  0  0  0  0  0  0  0  0  0  0  0
   -1.1851    0.6831    0.0026 C   0  0  0  0  0  0  0  0  0  0  0  0
   -2.0524    1.1854    0.0101 H   0  0  0  0  0  0  0  0  0  0  0  0
   -1.1898   -0.6753    0.0000 C   0  0  0  0  0  0  0  0  0  0  0  0
   -2.0689   -1.1807   -0.0019 H   0  0  0  0  0  0  0  0  0  0  0  0
    0.0003   -1.3695    0.0025 C   0  0  0  0  0  0  0  0  0  0  0  0
   -0.0139   -2.3759    0.0057 H   0  0  0  0  0  0  0  0  0  0  0  0
    1.1898   -0.6949   -0.0000 C   0  0  0  0  0  0  0  0  0  0  0  0
    2.0716   -1.1969   -0.0011 H   0  0  0  0  0  0  0  0  0  0  0  0
    1.1839    0.6764    0.0012 C   0  0  0  0  0  0  0  0  0  0  0  0
    2.0572    1.1780    0.0075 H   0  0  0  0  0  0  0  0  0  0  0  0
  1  5  1  0
  5  8  1  0
  1  2  1  0
  1  3  1  0
  1  4  1  0
  5  6  1  0
  5  7  1  0
  8  9  1  0
  8 10  1  0
  8 11  1  0
 12 16  1  0
 16 17  2  0
 17 19  1  0
 19 21  2  0
 21 23  1  0
 23 25  2  0
 25 16  1  0
 12 13  1  0
 12 14  1  0
 12 15  1  0
 17 18  1  0
 19 20  1  0
 21 22  1  0
 23 24  1  0
 25 26  1  0
M  CHG  1   8   1
M  END
>  <PDB_ID>  (135) 
pdb1biq

>  <RESIDUE_NAME>  (135) 
LYS   PHE

>  <FRAG_NAME>  (135) 
ETAM   MBZ

>  <FRAG_ATOM_NUM>  (135) 
fragi: 11  fragj: 15

>  <atom.prop.CHAIN_ID>  (135) 
A A A A A A A A A A A Z Z Z Z Z Z Z Z Z Z Z Z Z Z Z

>  <atom.prop.IS_HEAVY_ATOM>  (135) 
1 0 0 0 1 0 0 1 0 0 0 1 0 0 0 1 1 0 1 0 1 0 1 0 1 0

>  <DIFUSE_FUNC_ATOM>  (135) 
n/a

>  <FINAL_SINGLE_POINT_ENERGY>  (135) 
0

>  <NONCOV_INTER_ENERGY_QM>  (135) 
0

>  <FF_Energy>  (135) 
7.29

>  <QM_Energy>  (135) 
0.74

>  <source>  (135) 
ETAM_MBZ

>  <Index>  (135) 
1331

$$$$
ETAM-pdb1bk9-A-LYS-11:MBZ-pdb1bk9-A-PHE-75
     RDKit          3D

 26 25  0  0  0  0  0  0  0  0999 V2000
    3.4724   -3.7244    2.0106 C   0  0  0  0  0  0  0  0  0  0  0  0
    2.8602   -3.0967    2.4306 H   0  0  0  0  0  0  0  0  0  0  0  0
    4.3268   -3.3388    1.7540 H   0  0  0  0  0  0  0  0  0  0  0  0
    3.6400   -4.5707    2.6769 H   0  0  0  0  0  0  0  0  0  0  0  0
    2.8082   -4.3094    0.7813 C   0  0  0  0  0  0  0  0  0  0  0  0
    3.0551   -5.2829    0.7186 H   0  0  0  0  0  0  0  0  0  0  0  0
    1.8101   -4.2420    0.8945 H   0  0  0  0  0  0  0  0  0  0  0  0
    3.2185   -3.6138   -0.4279 N   0  0  0  0  0  4  0  0  0  0  0  0
    4.2513   -3.6723   -0.5298 H   0  0  0  0  0  0  0  0  0  0  0  0
    2.7673   -4.0606   -1.2503 H   0  0  0  0  0  0  0  0  0  0  0  0
    2.9324   -2.6146   -0.3727 H   0  0  0  0  0  0  0  0  0  0  0  0
   -0.0527    2.9074   -0.0138 C   0  0  0  0  0  0  0  0  0  0  0  0
    0.7627    3.2381    0.4748 H   0  0  0  0  0  0  0  0  0  0  0  0
   -0.8698    3.1939    0.4986 H   0  0  0  0  0  0  0  0  0  0  0  0
   -0.0810    3.4305   -0.9697 H   0  0  0  0  0  0  0  0  0  0  0  0
   -0.0109    1.3834   -0.0010 C   0  0  0  0  0  0  0  0  0  0  0  0
   -1.1979    0.6757    0.0018 C   0  0  0  0  0  0  0  0  0  0  0  0
   -2.0689    1.1600    0.0037 H   0  0  0  0  0  0  0  0  0  0  0  0
   -1.1926   -0.7114   -0.0000 C   0  0  0  0  0  0  0  0  0  0  0  0
   -2.0678   -1.2101   -0.0016 H   0  0  0  0  0  0  0  0  0  0  0  0
    0.0062   -1.3890    0.0015 C   0  0  0  0  0  0  0  0  0  0  0  0
    0.0217   -2.3864    0.0030 H   0  0  0  0  0  0  0  0  0  0  0  0
    1.1926   -0.6702    0.0000 C   0  0  0  0  0  0  0  0  0  0  0  0
    2.0865   -1.1736    0.0017 H   0  0  0  0  0  0  0  0  0  0  0  0
    1.2026    0.7115   -0.0023 C   0  0  0  0  0  0  0  0  0  0  0  0
    2.0527    1.2117   -0.0054 H   0  0  0  0  0  0  0  0  0  0  0  0
  1  5  1  0
  5  8  1  0
  1  2  1  0
  1  3  1  0
  1  4  1  0
  5  6  1  0
  5  7  1  0
  8  9  1  0
  8 10  1  0
  8 11  1  0
 12 16  1  0
 16 17  2  0
 17 19  1  0
 19 21  2  0
 21 23  1  0
 23 25  2  0
 25 16  1  0
 12 13  1  0
 12 14  1  0
 12 15  1  0
 17 18  1  0
 19 20  1  0
 21 22  1  0
 23 24  1  0
 25 26  1  0
M  CHG  1   8   1
M  END
>  <PDB_ID>  (136) 
pdb1bk9

>  <RESIDUE_NAME>  (136) 
LYS   PHE

>  <FRAG_NAME>  (136) 
ETAM   MBZ

>  <FRAG_ATOM_NUM>  (136) 
fragi: 11  fragj: 15

>  <atom.prop.CHAIN_ID>  (136) 
A A A A A A A A A A A Z Z Z Z Z Z Z Z Z Z Z Z Z Z Z

>  <atom.prop.IS_HEAVY_ATOM>  (136) 
1 0 0 0 1 0 0 1 0 0 0 1 0 0 0 1 1 0 1 0 1 0 1 0 1 0

>  <DIFUSE_FUNC_ATOM>  (136) 
n/a

>  <FINAL_SINGLE_POINT_ENERGY>  (136) 
0

>  <NONCOV_INTER_ENERGY_QM>  (136) 
0

>  <FF_Energy>  (136) 
1.28

>  <QM_Energy>  (136) 
-4.17

>  <source>  (136) 
ETAM_MBZ

>  <Index>  (136) 
1365

$$$$
ETAM-pdb1bkl-A-LYS-63:MBZ-pdb1bkl-A-PHE-69
     RDKit          3D

 26 25  0  0  0  0  0  0  0  0999 V2000
   -2.0951   -1.4104   -4.1183 C   0  0  0  0  0  0  0  0  0  0  0  0
   -2.4635   -1.9220   -4.8989 H   0  0  0  0  0  0  0  0  0  0  0  0
   -1.8752   -0.4777   -4.4142 H   0  0  0  0  0  0  0  0  0  0  0  0
   -2.8602   -1.3598   -3.3436 H   0  0  0  0  0  0  0  0  0  0  0  0
   -0.8016   -2.0884   -3.6660 C   0  0  0  0  0  0  0  0  0  0  0  0
   -0.9874   -2.6025   -2.8268 H   0  0  0  0  0  0  0  0  0  0  0  0
   -0.5071   -2.7240   -4.3821 H   0  0  0  0  0  0  0  0  0  0  0  0
    0.2680   -1.0972   -3.4129 N   0  0  0  0  0  4  0  0  0  0  0  0
   -0.0962   -0.1462   -3.1802 H   0  0  0  0  0  0  0  0  0  0  0  0
    0.8539   -1.4428   -2.6257 H   0  0  0  0  0  0  0  0  0  0  0  0
    0.8652   -1.0103   -4.2661 H   0  0  0  0  0  0  0  0  0  0  0  0
    0.0131    2.8897    0.0462 C   0  0  0  0  0  0  0  0  0  0  0  0
    0.8721    3.1781    0.4537 H   0  0  0  0  0  0  0  0  0  0  0  0
   -0.7539    3.1846    0.6046 H   0  0  0  0  0  0  0  0  0  0  0  0
   -0.0747    3.3743   -0.9262 H   0  0  0  0  0  0  0  0  0  0  0  0
    0.0027    1.3919    0.0031 C   0  0  0  0  0  0  0  0  0  0  0  0
   -1.2320    0.7056    0.0030 C   0  0  0  0  0  0  0  0  0  0  0  0
   -2.0754    1.1984    0.0038 H   0  0  0  0  0  0  0  0  0  0  0  0
   -1.2337   -0.7039   -0.0000 C   0  0  0  0  0  0  0  0  0  0  0  0
   -2.0924   -1.2013    0.0024 H   0  0  0  0  0  0  0  0  0  0  0  0
   -0.0007   -1.3889   -0.0045 C   0  0  0  0  0  0  0  0  0  0  0  0
   -0.0065   -2.3958   -0.0116 H   0  0  0  0  0  0  0  0  0  0  0  0
    1.2337   -0.7076    0.0000 C   0  0  0  0  0  0  0  0  0  0  0  0
    2.0960   -1.2083    0.0056 H   0  0  0  0  0  0  0  0  0  0  0  0
    1.2300    0.7029   -0.0016 C   0  0  0  0  0  0  0  0  0  0  0  0
    2.0794    1.1997   -0.0066 H   0  0  0  0  0  0  0  0  0  0  0  0
  1  5  1  0
  5  8  1  0
  1  2  1  0
  1  3  1  0
  1  4  1  0
  5  6  1  0
  5  7  1  0
  8  9  1  0
  8 10  1  0
  8 11  1  0
 12 16  1  0
 16 17  2  0
 17 19  1  0
 19 21  2  0
 21 23  1  0
 23 25  2  0
 25 16  1  0
 12 13  1  0
 12 14  1  0
 12 15  1  0
 17 18  1  0
 19 20  1  0
 21 22  1  0
 23 24  1  0
 25 26  1  0
M  CHG  1   8   1
M  END
>  <PDB_ID>  (137) 
pdb1bkl

>  <RESIDUE_NAME>  (137) 
LYS   PHE

>  <FRAG_NAME>  (137) 
ETAM   MBZ

>  <FRAG_ATOM_NUM>  (137) 
fragi: 11  fragj: 15

>  <atom.prop.CHAIN_ID>  (137) 
A A A A A A A A A A A Z Z Z Z Z Z Z Z Z Z Z Z Z Z Z

>  <atom.prop.IS_HEAVY_ATOM>  (137) 
1 0 0 0 1 0 0 1 0 0 0 1 0 0 0 1 1 0 1 0 1 0 1 0 1 0

>  <DIFUSE_FUNC_ATOM>  (137) 
n/a

>  <FINAL_SINGLE_POINT_ENERGY>  (137) 
0

>  <NONCOV_INTER_ENERGY_QM>  (137) 
0

>  <FF_Energy>  (137) 
-7.09

>  <QM_Energy>  (137) 
-14.32

>  <source>  (137) 
ETAM_MBZ

>  <Index>  (137) 
1368

$$$$
ETAM-pdb2c63-B-LYS-162:MBZ-pdb2c63-B-PHE-158
     RDKit          3D

 26 25  0  0  0  0  0  0  0  0999 V2000
    1.1341   -0.5990    4.5080 C   0  0  0  0  0  0  0  0  0  0  0  0
    1.6999    0.2075    4.5627 H   0  0  0  0  0  0  0  0  0  0  0  0
    1.3281   -1.2310    5.2395 H   0  0  0  0  0  0  0  0  0  0  0  0
    0.0857   -0.3046    4.5562 H   0  0  0  0  0  0  0  0  0  0  0  0
    1.4003   -1.2922    3.1819 C   0  0  0  0  0  0  0  0  0  0  0  0
    1.1992   -2.2776    3.2830 H   0  0  0  0  0  0  0  0  0  0  0  0
    0.7694   -0.9193    2.4860 H   0  0  0  0  0  0  0  0  0  0  0  0
    2.8038   -1.1343    2.6925 N   0  0  0  0  0  4  0  0  0  0  0  0
    3.2937   -0.5083    3.2972 H   0  0  0  0  0  0  0  0  0  0  0  0
    3.2533   -2.0254    2.6924 H   0  0  0  0  0  0  0  0  0  0  0  0
    2.7881   -0.7643    1.7652 H   0  0  0  0  0  0  0  0  0  0  0  0
    0.0082    2.9339   -0.0479 C   0  0  0  0  0  0  0  0  0  0  0  0
   -0.1813    3.1995   -0.9840 H   0  0  0  0  0  0  0  0  0  0  0  0
    0.9115    3.2331    0.2286 H   0  0  0  0  0  0  0  0  0  0  0  0
   -0.7213    3.4246    0.5965 H   0  0  0  0  0  0  0  0  0  0  0  0
   -0.0030    1.4086    0.0044 C   0  0  0  0  0  0  0  0  0  0  0  0
   -1.1981    0.6851   -0.0090 C   0  0  0  0  0  0  0  0  0  0  0  0
   -2.0691    1.1722   -0.0269 H   0  0  0  0  0  0  0  0  0  0  0  0
   -1.2032   -0.7122    0.0000 C   0  0  0  0  0  0  0  0  0  0  0  0
   -2.0770   -1.2042    0.0068 H   0  0  0  0  0  0  0  0  0  0  0  0
    0.0020   -1.4016    0.0010 C   0  0  0  0  0  0  0  0  0  0  0  0
    0.0118   -2.3966    0.0021 H   0  0  0  0  0  0  0  0  0  0  0  0
    1.2032   -0.6858    0.0000 C   0  0  0  0  0  0  0  0  0  0  0  0
    2.0882   -1.1833   -0.0015 H   0  0  0  0  0  0  0  0  0  0  0  0
    1.1991    0.7059    0.0035 C   0  0  0  0  0  0  0  0  0  0  0  0
    2.0630    1.2040    0.0051 H   0  0  0  0  0  0  0  0  0  0  0  0
  1  5  1  0
  5  8  1  0
  1  2  1  0
  1  3  1  0
  1  4  1  0
  5  6  1  0
  5  7  1  0
  8  9  1  0
  8 10  1  0
  8 11  1  0
 12 16  1  0
 16 17  2  0
 17 19  1  0
 19 21  2  0
 21 23  1  0
 23 25  2  0
 25 16  1  0
 12 13  1  0
 12 14  1  0
 12 15  1  0
 17 18  1  0
 19 20  1  0
 21 22  1  0
 23 24  1  0
 25 26  1  0
M  CHG  1   8   1
M  END
>  <PDB_ID>  (138) 
pdb2c63

>  <RESIDUE_NAME>  (138) 
LYS   PHE

>  <FRAG_NAME>  (138) 
ETAM   MBZ

>  <FRAG_ATOM_NUM>  (138) 
fragi: 11  fragj: 15

>  <atom.prop.CHAIN_ID>  (138) 
A A A A A A A A A A A Z Z Z Z Z Z Z Z Z Z Z Z Z Z Z

>  <atom.prop.IS_HEAVY_ATOM>  (138) 
1 0 0 0 1 0 0 1 0 0 0 1 0 0 0 1 1 0 1 0 1 0 1 0 1 0

>  <DIFUSE_FUNC_ATOM>  (138) 
n/a

>  <FINAL_SINGLE_POINT_ENERGY>  (138) 
0

>  <NONCOV_INTER_ENERGY_QM>  (138) 
0

>  <FF_Energy>  (138) 
-1.59

>  <QM_Energy>  (138) 
-9.63

>  <source>  (138) 
ETAM_MBZ

>  <Index>  (138) 
1369

$$$$
ETAM-pdb1bll-E-LYS-2:MBZ-pdb1bll-E-PHE-61
     RDKit          3D

 26 25  0  0  0  0  0  0  0  0999 V2000
   -3.1413   -1.3040   -2.9898 C   0  0  0  0  0  0  0  0  0  0  0  0
   -3.3187   -1.1768   -3.9429 H   0  0  0  0  0  0  0  0  0  0  0  0
   -2.4043   -0.7555   -2.6573 H   0  0  0  0  0  0  0  0  0  0  0  0
   -4.0433   -1.0589   -2.4292 H   0  0  0  0  0  0  0  0  0  0  0  0
   -2.8281   -2.7662   -2.7327 C   0  0  0  0  0  0  0  0  0  0  0  0
   -3.3060   -3.0469   -1.8834 H   0  0  0  0  0  0  0  0  0  0  0  0
   -3.2205   -3.3123   -3.4923 H   0  0  0  0  0  0  0  0  0  0  0  0
   -1.4104   -3.0314   -2.6140 N   0  0  0  0  0  4  0  0  0  0  0  0
   -1.1915   -3.9460   -2.9729 H   0  0  0  0  0  0  0  0  0  0  0  0
   -0.8798   -2.3506   -3.1330 H   0  0  0  0  0  0  0  0  0  0  0  0
   -1.1242   -2.9912   -1.6499 H   0  0  0  0  0  0  0  0  0  0  0  0
    0.0176    2.8614   -0.1205 C   0  0  0  0  0  0  0  0  0  0  0  0
    0.9132    3.1762    0.1348 H   0  0  0  0  0  0  0  0  0  0  0  0
   -0.6859    3.2185    0.4652 H   0  0  0  0  0  0  0  0  0  0  0  0
   -0.1846    3.1937   -1.1387 H   0  0  0  0  0  0  0  0  0  0  0  0
    0.0022    1.3646   -0.0045 C   0  0  0  0  0  0  0  0  0  0  0  0
   -1.1960    0.6927   -0.0008 C   0  0  0  0  0  0  0  0  0  0  0  0
   -2.0516    1.1881    0.0007 H   0  0  0  0  0  0  0  0  0  0  0  0
   -1.1847   -0.6725    0.0000 C   0  0  0  0  0  0  0  0  0  0  0  0
   -2.0729   -1.1765    0.0139 H   0  0  0  0  0  0  0  0  0  0  0  0
   -0.0084   -1.3656   -0.0161 C   0  0  0  0  0  0  0  0  0  0  0  0
   -0.0226   -2.3738   -0.0404 H   0  0  0  0  0  0  0  0  0  0  0  0
    1.1847   -0.6978   -0.0000 C   0  0  0  0  0  0  0  0  0  0  0  0
    2.0653   -1.2100   -0.0021 H   0  0  0  0  0  0  0  0  0  0  0  0
    1.2023    0.6786    0.0214 C   0  0  0  0  0  0  0  0  0  0  0  0
    2.0608    1.1726    0.0534 H   0  0  0  0  0  0  0  0  0  0  0  0
  1  5  1  0
  5  8  1  0
  1  2  1  0
  1  3  1  0
  1  4  1  0
  5  6  1  0
  5  7  1  0
  8  9  1  0
  8 10  1  0
  8 11  1  0
 12 16  1  0
 16 17  2  0
 17 19  1  0
 19 21  2  0
 21 23  1  0
 23 25  2  0
 25 16  1  0
 12 13  1  0
 12 14  1  0
 12 15  1  0
 17 18  1  0
 19 20  1  0
 21 22  1  0
 23 24  1  0
 25 26  1  0
M  CHG  1   8   1
M  END
>  <PDB_ID>  (139) 
pdb1bll

>  <RESIDUE_NAME>  (139) 
LYS   PHE

>  <FRAG_NAME>  (139) 
ETAM   MBZ

>  <FRAG_ATOM_NUM>  (139) 
fragi: 11  fragj: 15

>  <atom.prop.CHAIN_ID>  (139) 
A A A A A A A A A A A Z Z Z Z Z Z Z Z Z Z Z Z Z Z Z

>  <atom.prop.IS_HEAVY_ATOM>  (139) 
1 0 0 0 1 0 0 1 0 0 0 1 0 0 0 1 1 0 1 0 1 0 1 0 1 0

>  <DIFUSE_FUNC_ATOM>  (139) 
n/a

>  <FINAL_SINGLE_POINT_ENERGY>  (139) 
0

>  <NONCOV_INTER_ENERGY_QM>  (139) 
0

>  <FF_Energy>  (139) 
-2.15

>  <QM_Energy>  (139) 
-8.74

>  <source>  (139) 
ETAM_MBZ

>  <Index>  (139) 
1381

$$$$
ETAM-pdb2cb0-B-LYS-72:MBZ-pdb2cb0-B-PHE-68
     RDKit          3D

 26 25  0  0  0  0  0  0  0  0999 V2000
   -1.8876   -1.6010    3.6385 C   0  0  0  0  0  0  0  0  0  0  0  0
   -2.7955   -2.0081    3.6772 H   0  0  0  0  0  0  0  0  0  0  0  0
   -1.6692   -1.3314    2.7057 H   0  0  0  0  0  0  0  0  0  0  0  0
   -1.8686   -0.7178    4.2770 H   0  0  0  0  0  0  0  0  0  0  0  0
   -0.8686   -2.6537    4.0855 C   0  0  0  0  0  0  0  0  0  0  0  0
   -0.6813   -2.5425    5.0560 H   0  0  0  0  0  0  0  0  0  0  0  0
   -1.2298   -3.5630    3.9049 H   0  0  0  0  0  0  0  0  0  0  0  0
    0.4561   -2.5038    3.3209 N   0  0  0  0  0  4  0  0  0  0  0  0
    0.2756   -1.9939    2.4899 H   0  0  0  0  0  0  0  0  0  0  0  0
    1.0929   -2.0150    3.9029 H   0  0  0  0  0  0  0  0  0  0  0  0
    0.7941   -3.4125    3.1117 H   0  0  0  0  0  0  0  0  0  0  0  0
   -0.0187    2.8915    0.0699 C   0  0  0  0  0  0  0  0  0  0  0  0
   -0.7825    3.2288   -0.4523 H   0  0  0  0  0  0  0  0  0  0  0  0
    0.8408    3.2307   -0.2705 H   0  0  0  0  0  0  0  0  0  0  0  0
   -0.1334    3.2616    1.0887 H   0  0  0  0  0  0  0  0  0  0  0  0
   -0.0087    1.4054   -0.0041 C   0  0  0  0  0  0  0  0  0  0  0  0
   -1.2124    0.6947    0.0173 C   0  0  0  0  0  0  0  0  0  0  0  0
   -2.0755    1.1898    0.0437 H   0  0  0  0  0  0  0  0  0  0  0  0
   -1.2222   -0.6953   -0.0000 C   0  0  0  0  0  0  0  0  0  0  0  0
   -2.0783   -1.2025    0.0030 H   0  0  0  0  0  0  0  0  0  0  0  0
    0.0217   -1.4094   -0.0210 C   0  0  0  0  0  0  0  0  0  0  0  0
    0.0077   -2.3962   -0.0507 H   0  0  0  0  0  0  0  0  0  0  0  0
    1.2222   -0.6954    0.0000 C   0  0  0  0  0  0  0  0  0  0  0  0
    2.1051   -1.1823    0.0109 H   0  0  0  0  0  0  0  0  0  0  0  0
    1.1994    0.7001    0.0078 C   0  0  0  0  0  0  0  0  0  0  0  0
    2.0623    1.2060    0.0210 H   0  0  0  0  0  0  0  0  0  0  0  0
  1  5  1  0
  5  8  1  0
  1  2  1  0
  1  3  1  0
  1  4  1  0
  5  6  1  0
  5  7  1  0
  8  9  1  0
  8 10  1  0
  8 11  1  0
 12 16  1  0
 16 17  2  0
 17 19  1  0
 19 21  2  0
 21 23  1  0
 23 25  2  0
 25 16  1  0
 12 13  1  0
 12 14  1  0
 12 15  1  0
 17 18  1  0
 19 20  1  0
 21 22  1  0
 23 24  1  0
 25 26  1  0
M  CHG  1   8   1
M  END
>  <PDB_ID>  (140) 
pdb2cb0

>  <RESIDUE_NAME>  (140) 
LYS   PHE

>  <FRAG_NAME>  (140) 
ETAM   MBZ

>  <FRAG_ATOM_NUM>  (140) 
fragi: 11  fragj: 15

>  <atom.prop.CHAIN_ID>  (140) 
A A A A A A A A A A A Z Z Z Z Z Z Z Z Z Z Z Z Z Z Z

>  <atom.prop.IS_HEAVY_ATOM>  (140) 
1 0 0 0 1 0 0 1 0 0 0 1 0 0 0 1 1 0 1 0 1 0 1 0 1 0

>  <DIFUSE_FUNC_ATOM>  (140) 
n/a

>  <FINAL_SINGLE_POINT_ENERGY>  (140) 
0

>  <NONCOV_INTER_ENERGY_QM>  (140) 
0

>  <FF_Energy>  (140) 
-4.51

>  <QM_Energy>  (140) 
-11.39

>  <source>  (140) 
ETAM_MBZ

>  <Index>  (140) 
1387

$$$$
ETAM-pdb1bm8-A-LYS-49:MBZ-pdb1bm8-A-PHE-45
     RDKit          3D

 26 25  0  0  0  0  0  0  0  0999 V2000
   -1.4991    1.1672    3.8599 C   0  0  0  0  0  0  0  0  0  0  0  0
   -2.3135    1.2295    4.4180 H   0  0  0  0  0  0  0  0  0  0  0  0
   -1.6648    1.5071    2.9455 H   0  0  0  0  0  0  0  0  0  0  0  0
   -0.6983    1.7440    4.3226 H   0  0  0  0  0  0  0  0  0  0  0  0
   -1.0929   -0.2956    3.7626 C   0  0  0  0  0  0  0  0  0  0  0  0
   -0.2981   -0.3730    3.1497 H   0  0  0  0  0  0  0  0  0  0  0  0
   -0.8219   -0.6203    4.6764 H   0  0  0  0  0  0  0  0  0  0  0  0
   -2.1906   -1.1656    3.2449 N   0  0  0  0  0  4  0  0  0  0  0  0
   -3.0356   -1.0489    3.8412 H   0  0  0  0  0  0  0  0  0  0  0  0
   -2.4159   -0.8941    2.2676 H   0  0  0  0  0  0  0  0  0  0  0  0
   -1.8846   -2.1575    3.2678 H   0  0  0  0  0  0  0  0  0  0  0  0
   -0.0058    2.9062    0.0553 C   0  0  0  0  0  0  0  0  0  0  0  0
    0.7746    3.2334   -0.4547 H   0  0  0  0  0  0  0  0  0  0  0  0
    0.0437    3.1745    1.0046 H   0  0  0  0  0  0  0  0  0  0  0  0
   -0.9032    3.3496   -0.3760 H   0  0  0  0  0  0  0  0  0  0  0  0
   -0.0006    1.4073   -0.0024 C   0  0  0  0  0  0  0  0  0  0  0  0
   -1.2048    0.6864   -0.0010 C   0  0  0  0  0  0  0  0  0  0  0  0
   -2.0689    1.1812   -0.0015 H   0  0  0  0  0  0  0  0  0  0  0  0
   -1.2062   -0.6989   -0.0000 C   0  0  0  0  0  0  0  0  0  0  0  0
   -2.0788   -1.1992   -0.0013 H   0  0  0  0  0  0  0  0  0  0  0  0
    0.0013   -1.3944    0.0050 C   0  0  0  0  0  0  0  0  0  0  0  0
   -0.0033   -2.3935    0.0116 H   0  0  0  0  0  0  0  0  0  0  0  0
    1.2062   -0.6980   -0.0000 C   0  0  0  0  0  0  0  0  0  0  0  0
    2.0864   -1.1957   -0.0009 H   0  0  0  0  0  0  0  0  0  0  0  0
    1.2041    0.6977   -0.0015 C   0  0  0  0  0  0  0  0  0  0  0  0
    2.0680    1.1941   -0.0029 H   0  0  0  0  0  0  0  0  0  0  0  0
  1  5  1  0
  5  8  1  0
  1  2  1  0
  1  3  1  0
  1  4  1  0
  5  6  1  0
  5  7  1  0
  8  9  1  0
  8 10  1  0
  8 11  1  0
 12 16  1  0
 16 17  2  0
 17 19  1  0
 19 21  2  0
 21 23  1  0
 23 25  2  0
 25 16  1  0
 12 13  1  0
 12 14  1  0
 12 15  1  0
 17 18  1  0
 19 20  1  0
 21 22  1  0
 23 24  1  0
 25 26  1  0
M  CHG  1   8   1
M  END
>  <PDB_ID>  (141) 
pdb1bm8

>  <RESIDUE_NAME>  (141) 
LYS   PHE

>  <FRAG_NAME>  (141) 
ETAM   MBZ

>  <FRAG_ATOM_NUM>  (141) 
fragi: 11  fragj: 15

>  <atom.prop.CHAIN_ID>  (141) 
A A A A A A A A A A A Z Z Z Z Z Z Z Z Z Z Z Z Z Z Z

>  <atom.prop.IS_HEAVY_ATOM>  (141) 
1 0 0 0 1 0 0 1 0 0 0 1 0 0 0 1 1 0 1 0 1 0 1 0 1 0

>  <DIFUSE_FUNC_ATOM>  (141) 
n/a

>  <FINAL_SINGLE_POINT_ENERGY>  (141) 
0

>  <NONCOV_INTER_ENERGY_QM>  (141) 
0

>  <FF_Energy>  (141) 
-5.15

>  <QM_Energy>  (141) 
-11.67

>  <source>  (141) 
ETAM_MBZ

>  <Index>  (141) 
1388

$$$$
ETAM-pdb2c63-D-LYS-162:MBZ-pdb2c63-D-PHE-158
     RDKit          3D

 26 25  0  0  0  0  0  0  0  0999 V2000
    0.8368   -0.7958    4.6023 C   0  0  0  0  0  0  0  0  0  0  0  0
    1.4591   -0.1542    5.0131 H   0  0  0  0  0  0  0  0  0  0  0  0
    0.7146   -1.6019    5.1514 H   0  0  0  0  0  0  0  0  0  0  0  0
   -0.1314   -0.3078    4.4905 H   0  0  0  0  0  0  0  0  0  0  0  0
    1.3917   -1.2138    3.2232 C   0  0  0  0  0  0  0  0  0  0  0  0
    0.6488   -1.1212    2.5370 H   0  0  0  0  0  0  0  0  0  0  0  0
    2.1232   -0.5608    2.9599 H   0  0  0  0  0  0  0  0  0  0  0  0
    1.9529   -2.6218    3.1346 N   0  0  0  0  0  4  0  0  0  0  0  0
    2.2819   -2.7733    2.2082 H   0  0  0  0  0  0  0  0  0  0  0  0
    2.7002   -2.7068    3.7857 H   0  0  0  0  0  0  0  0  0  0  0  0
    1.2278   -3.2665    3.3539 H   0  0  0  0  0  0  0  0  0  0  0  0
    0.0056    2.8827   -0.0187 C   0  0  0  0  0  0  0  0  0  0  0  0
   -0.0616    3.1745   -0.9603 H   0  0  0  0  0  0  0  0  0  0  0  0
    0.8428    3.1973    0.4001 H   0  0  0  0  0  0  0  0  0  0  0  0
   -0.8245    3.3325    0.5260 H   0  0  0  0  0  0  0  0  0  0  0  0
    0.0057    1.3770    0.0067 C   0  0  0  0  0  0  0  0  0  0  0  0
   -1.1826    0.6575   -0.0206 C   0  0  0  0  0  0  0  0  0  0  0  0
   -2.0514    1.1567   -0.0573 H   0  0  0  0  0  0  0  0  0  0  0  0
   -1.1786   -0.7008    0.0000 C   0  0  0  0  0  0  0  0  0  0  0  0
   -2.0583   -1.2044    0.0115 H   0  0  0  0  0  0  0  0  0  0  0  0
   -0.0020   -1.3555    0.0066 C   0  0  0  0  0  0  0  0  0  0  0  0
    0.0152   -2.3697    0.0161 H   0  0  0  0  0  0  0  0  0  0  0  0
    1.1786   -0.6651    0.0000 C   0  0  0  0  0  0  0  0  0  0  0  0
    2.0663   -1.1765   -0.0090 H   0  0  0  0  0  0  0  0  0  0  0  0
    1.1789    0.6868    0.0073 C   0  0  0  0  0  0  0  0  0  0  0  0
    2.0528    1.1909    0.0123 H   0  0  0  0  0  0  0  0  0  0  0  0
  1  5  1  0
  5  8  1  0
  1  2  1  0
  1  3  1  0
  1  4  1  0
  5  6  1  0
  5  7  1  0
  8  9  1  0
  8 10  1  0
  8 11  1  0
 12 16  1  0
 16 17  2  0
 17 19  1  0
 19 21  2  0
 21 23  1  0
 23 25  2  0
 25 16  1  0
 12 13  1  0
 12 14  1  0
 12 15  1  0
 17 18  1  0
 19 20  1  0
 21 22  1  0
 23 24  1  0
 25 26  1  0
M  CHG  1   8   1
M  END
>  <PDB_ID>  (142) 
pdb2c63

>  <RESIDUE_NAME>  (142) 
LYS   PHE

>  <FRAG_NAME>  (142) 
ETAM   MBZ

>  <FRAG_ATOM_NUM>  (142) 
fragi: 11  fragj: 15

>  <atom.prop.CHAIN_ID>  (142) 
A A A A A A A A A A A Z Z Z Z Z Z Z Z Z Z Z Z Z Z Z

>  <atom.prop.IS_HEAVY_ATOM>  (142) 
1 0 0 0 1 0 0 1 0 0 0 1 0 0 0 1 1 0 1 0 1 0 1 0 1 0

>  <DIFUSE_FUNC_ATOM>  (142) 
n/a

>  <FINAL_SINGLE_POINT_ENERGY>  (142) 
0

>  <NONCOV_INTER_ENERGY_QM>  (142) 
0

>  <FF_Energy>  (142) 
-2.4

>  <QM_Energy>  (142) 
-7.42

>  <source>  (142) 
ETAM_MBZ

>  <Index>  (142) 
1407

$$$$
ETAM-pdb2cd9-A-LYS-137:MBZ-pdb2cd9-A-PHE-79
     RDKit          3D

 26 25  0  0  0  0  0  0  0  0999 V2000
   -2.8550   -1.6079   -4.3239 C   0  0  0  0  0  0  0  0  0  0  0  0
   -2.9648   -2.3004   -5.0247 H   0  0  0  0  0  0  0  0  0  0  0  0
   -3.2593   -0.7487   -4.6064 H   0  0  0  0  0  0  0  0  0  0  0  0
   -3.3382   -1.9473   -3.4077 H   0  0  0  0  0  0  0  0  0  0  0  0
   -1.3505   -1.3818   -4.1025 C   0  0  0  0  0  0  0  0  0  0  0  0
   -1.0549   -1.9464   -3.3179 H   0  0  0  0  0  0  0  0  0  0  0  0
   -0.8551   -1.7100   -4.9206 H   0  0  0  0  0  0  0  0  0  0  0  0
   -0.9759    0.0433   -3.8451 N   0  0  0  0  0  4  0  0  0  0  0  0
   -1.0058    0.2181   -2.8628 H   0  0  0  0  0  0  0  0  0  0  0  0
   -0.0530    0.2064   -4.1887 H   0  0  0  0  0  0  0  0  0  0  0  0
   -1.6224    0.6422   -4.3147 H   0  0  0  0  0  0  0  0  0  0  0  0
   -0.0023    2.9054   -0.0142 C   0  0  0  0  0  0  0  0  0  0  0  0
    0.7668    3.2185    0.5172 H   0  0  0  0  0  0  0  0  0  0  0  0
   -0.8585    3.2160    0.3643 H   0  0  0  0  0  0  0  0  0  0  0  0
    0.0911    3.3276   -1.0148 H   0  0  0  0  0  0  0  0  0  0  0  0
   -0.0007    1.4052   -0.0018 C   0  0  0  0  0  0  0  0  0  0  0  0
   -1.1922    0.6957    0.0026 C   0  0  0  0  0  0  0  0  0  0  0  0
   -2.0624    1.1842    0.0061 H   0  0  0  0  0  0  0  0  0  0  0  0
   -1.1982   -0.6955   -0.0000 C   0  0  0  0  0  0  0  0  0  0  0  0
   -2.0808   -1.1845   -0.0005 H   0  0  0  0  0  0  0  0  0  0  0  0
   -0.0073   -1.3955    0.0003 C   0  0  0  0  0  0  0  0  0  0  0  0
   -0.0123   -2.3950    0.0003 H   0  0  0  0  0  0  0  0  0  0  0  0
    1.1982   -0.7039   -0.0000 C   0  0  0  0  0  0  0  0  0  0  0  0
    2.0773   -1.2027    0.0018 H   0  0  0  0  0  0  0  0  0  0  0  0
    1.2002    0.6940   -0.0010 C   0  0  0  0  0  0  0  0  0  0  0  0
    2.0669    1.1854   -0.0026 H   0  0  0  0  0  0  0  0  0  0  0  0
  1  5  1  0
  5  8  1  0
  1  2  1  0
  1  3  1  0
  1  4  1  0
  5  6  1  0
  5  7  1  0
  8  9  1  0
  8 10  1  0
  8 11  1  0
 12 16  1  0
 16 17  2  0
 17 19  1  0
 19 21  2  0
 21 23  1  0
 23 25  2  0
 25 16  1  0
 12 13  1  0
 12 14  1  0
 12 15  1  0
 17 18  1  0
 19 20  1  0
 21 22  1  0
 23 24  1  0
 25 26  1  0
M  CHG  1   8   1
M  END
>  <PDB_ID>  (143) 
pdb2cd9

>  <RESIDUE_NAME>  (143) 
LYS   PHE

>  <FRAG_NAME>  (143) 
ETAM   MBZ

>  <FRAG_ATOM_NUM>  (143) 
fragi: 11  fragj: 15

>  <atom.prop.CHAIN_ID>  (143) 
A A A A A A A A A A A Z Z Z Z Z Z Z Z Z Z Z Z Z Z Z

>  <atom.prop.IS_HEAVY_ATOM>  (143) 
1 0 0 0 1 0 0 1 0 0 0 1 0 0 0 1 1 0 1 0 1 0 1 0 1 0

>  <DIFUSE_FUNC_ATOM>  (143) 
n/a

>  <FINAL_SINGLE_POINT_ENERGY>  (143) 
0

>  <NONCOV_INTER_ENERGY_QM>  (143) 
0

>  <FF_Energy>  (143) 
-6.28

>  <QM_Energy>  (143) 
-11.51

>  <source>  (143) 
ETAM_MBZ

>  <Index>  (143) 
1419

$$$$
ETAM-pdb2c89-D-LYS-159:MBZ-pdb2c89-D-PHE-155
     RDKit          3D

 26 25  0  0  0  0  0  0  0  0999 V2000
    0.2540   -2.4137    3.2925 C   0  0  0  0  0  0  0  0  0  0  0  0
    0.1009   -3.2619    3.7903 H   0  0  0  0  0  0  0  0  0  0  0  0
    0.1844   -2.5716    2.3121 H   0  0  0  0  0  0  0  0  0  0  0  0
   -0.5144   -1.6977    3.5839 H   0  0  0  0  0  0  0  0  0  0  0  0
    1.6453   -1.9032    3.6098 C   0  0  0  0  0  0  0  0  0  0  0  0
    1.6511   -0.9015    3.5355 H   0  0  0  0  0  0  0  0  0  0  0  0
    1.8805   -2.1564    4.5538 H   0  0  0  0  0  0  0  0  0  0  0  0
    2.6708   -2.4649    2.6871 N   0  0  0  0  0  4  0  0  0  0  0  0
    2.8173   -3.4302    2.9023 H   0  0  0  0  0  0  0  0  0  0  0  0
    2.3516   -2.3767    1.7445 H   0  0  0  0  0  0  0  0  0  0  0  0
    3.5276   -1.9626    2.7996 H   0  0  0  0  0  0  0  0  0  0  0  0
    0.0010    2.9065   -0.0091 C   0  0  0  0  0  0  0  0  0  0  0  0
   -0.5073    3.2065   -0.8042 H   0  0  0  0  0  0  0  0  0  0  0  0
    0.9426    3.2094   -0.0522 H   0  0  0  0  0  0  0  0  0  0  0  0
   -0.4564    3.3580    0.8713 H   0  0  0  0  0  0  0  0  0  0  0  0
   -0.0008    1.4027    0.0007 C   0  0  0  0  0  0  0  0  0  0  0  0
   -1.1958    0.6941    0.0002 C   0  0  0  0  0  0  0  0  0  0  0  0
   -2.0635    1.1805   -0.0016 H   0  0  0  0  0  0  0  0  0  0  0  0
   -1.1974   -0.6992   -0.0000 C   0  0  0  0  0  0  0  0  0  0  0  0
   -2.0751   -1.1922    0.0022 H   0  0  0  0  0  0  0  0  0  0  0  0
    0.0020   -1.3926   -0.0021 C   0  0  0  0  0  0  0  0  0  0  0  0
   -0.0032   -2.3937   -0.0058 H   0  0  0  0  0  0  0  0  0  0  0  0
    1.1974   -0.6997    0.0000 C   0  0  0  0  0  0  0  0  0  0  0  0
    2.0814   -1.1942    0.0022 H   0  0  0  0  0  0  0  0  0  0  0  0
    1.1946    0.6947    0.0012 C   0  0  0  0  0  0  0  0  0  0  0  0
    2.0639    1.1881    0.0015 H   0  0  0  0  0  0  0  0  0  0  0  0
  1  5  1  0
  5  8  1  0
  1  2  1  0
  1  3  1  0
  1  4  1  0
  5  6  1  0
  5  7  1  0
  8  9  1  0
  8 10  1  0
  8 11  1  0
 12 16  1  0
 16 17  2  0
 17 19  1  0
 19 21  2  0
 21 23  1  0
 23 25  2  0
 25 16  1  0
 12 13  1  0
 12 14  1  0
 12 15  1  0
 17 18  1  0
 19 20  1  0
 21 22  1  0
 23 24  1  0
 25 26  1  0
M  CHG  1   8   1
M  END
>  <PDB_ID>  (144) 
pdb2c89

>  <RESIDUE_NAME>  (144) 
LYS   PHE

>  <FRAG_NAME>  (144) 
ETAM   MBZ

>  <FRAG_ATOM_NUM>  (144) 
fragi: 11  fragj: 15

>  <atom.prop.CHAIN_ID>  (144) 
A A A A A A A A A A A Z Z Z Z Z Z Z Z Z Z Z Z Z Z Z

>  <atom.prop.IS_HEAVY_ATOM>  (144) 
1 0 0 0 1 0 0 1 0 0 0 1 0 0 0 1 1 0 1 0 1 0 1 0 1 0

>  <DIFUSE_FUNC_ATOM>  (144) 
n/a

>  <FINAL_SINGLE_POINT_ENERGY>  (144) 
0

>  <NONCOV_INTER_ENERGY_QM>  (144) 
0

>  <FF_Energy>  (144) 
-1.77

>  <QM_Energy>  (144) 
-7.65

>  <source>  (144) 
ETAM_MBZ

>  <Index>  (144) 
1421

$$$$
ETAM-pdb1bq4-D-LYS-97:MBZ-pdb1bq4-D-PHE-19
     RDKit          3D

 26 25  0  0  0  0  0  0  0  0999 V2000
    1.0569   -1.2750    3.6257 C   0  0  0  0  0  0  0  0  0  0  0  0
    1.1948   -1.5116    4.5793 H   0  0  0  0  0  0  0  0  0  0  0  0
    1.3921   -1.9972    3.0327 H   0  0  0  0  0  0  0  0  0  0  0  0
   -0.0068   -1.1226    3.4432 H   0  0  0  0  0  0  0  0  0  0  0  0
    1.8052   -0.0138    3.3246 C   0  0  0  0  0  0  0  0  0  0  0  0
    1.5011    0.3518    2.4359 H   0  0  0  0  0  0  0  0  0  0  0  0
    1.6027    0.6736    4.0330 H   0  0  0  0  0  0  0  0  0  0  0  0
    3.2733   -0.2327    3.2762 N   0  0  0  0  0  4  0  0  0  0  0  0
    3.4662   -1.2130    3.3273 H   0  0  0  0  0  0  0  0  0  0  0  0
    3.6367    0.1348    2.4201 H   0  0  0  0  0  0  0  0  0  0  0  0
    3.7049    0.2331    4.0493 H   0  0  0  0  0  0  0  0  0  0  0  0
   -0.0067    2.9189    0.0902 C   0  0  0  0  0  0  0  0  0  0  0  0
   -0.9302    3.2302   -0.0661 H   0  0  0  0  0  0  0  0  0  0  0  0
    0.6161    3.2686   -0.5901 H   0  0  0  0  0  0  0  0  0  0  0  0
    0.3141    3.2936    1.0622 H   0  0  0  0  0  0  0  0  0  0  0  0
   -0.0001    1.4178    0.0003 C   0  0  0  0  0  0  0  0  0  0  0  0
   -1.1983    0.7000    0.0006 C   0  0  0  0  0  0  0  0  0  0  0  0
   -2.0681    1.1898   -0.0003 H   0  0  0  0  0  0  0  0  0  0  0  0
   -1.2145   -0.7044   -0.0000 C   0  0  0  0  0  0  0  0  0  0  0  0
   -2.0891   -1.1913   -0.0004 H   0  0  0  0  0  0  0  0  0  0  0  0
    0.0001   -1.4312    0.0017 C   0  0  0  0  0  0  0  0  0  0  0  0
   -0.0052   -2.4107    0.0034 H   0  0  0  0  0  0  0  0  0  0  0  0
    1.2145   -0.7068   -0.0000 C   0  0  0  0  0  0  0  0  0  0  0  0
    2.0959   -1.1850    0.0026 H   0  0  0  0  0  0  0  0  0  0  0  0
    1.1983    0.7245   -0.0026 C   0  0  0  0  0  0  0  0  0  0  0  0
    2.0676    1.2066   -0.0072 H   0  0  0  0  0  0  0  0  0  0  0  0
  1  5  1  0
  5  8  1  0
  1  2  1  0
  1  3  1  0
  1  4  1  0
  5  6  1  0
  5  7  1  0
  8  9  1  0
  8 10  1  0
  8 11  1  0
 12 16  1  0
 16 17  2  0
 17 19  1  0
 19 21  2  0
 21 23  1  0
 23 25  2  0
 25 16  1  0
 12 13  1  0
 12 14  1  0
 12 15  1  0
 17 18  1  0
 19 20  1  0
 21 22  1  0
 23 24  1  0
 25 26  1  0
M  CHG  1   8   1
M  END
>  <PDB_ID>  (145) 
pdb1bq4

>  <RESIDUE_NAME>  (145) 
LYS   PHE

>  <FRAG_NAME>  (145) 
ETAM   MBZ

>  <FRAG_ATOM_NUM>  (145) 
fragi: 11  fragj: 15

>  <atom.prop.CHAIN_ID>  (145) 
A A A A A A A A A A A Z Z Z Z Z Z Z Z Z Z Z Z Z Z Z

>  <atom.prop.IS_HEAVY_ATOM>  (145) 
1 0 0 0 1 0 0 1 0 0 0 1 0 0 0 1 1 0 1 0 1 0 1 0 1 0

>  <DIFUSE_FUNC_ATOM>  (145) 
n/a

>  <FINAL_SINGLE_POINT_ENERGY>  (145) 
0

>  <NONCOV_INTER_ENERGY_QM>  (145) 
0

>  <FF_Energy>  (145) 
-2.46

>  <QM_Energy>  (145) 
-7.96

>  <source>  (145) 
ETAM_MBZ

>  <Index>  (145) 
1429

$$$$
ETAM-pdb2cex-C-LYS-54:MBZ-pdb2cex-C-PHE-74
     RDKit          3D

 26 25  0  0  0  0  0  0  0  0999 V2000
   -1.8177   -4.9576    2.5550 C   0  0  0  0  0  0  0  0  0  0  0  0
   -1.9408   -4.1771    3.1496 H   0  0  0  0  0  0  0  0  0  0  0  0
   -1.0581   -5.5183    2.8499 H   0  0  0  0  0  0  0  0  0  0  0  0
   -2.7198   -5.5659    2.6218 H   0  0  0  0  0  0  0  0  0  0  0  0
   -1.5136   -4.4320    1.0982 C   0  0  0  0  0  0  0  0  0  0  0  0
   -2.4090   -4.3389    0.6087 H   0  0  0  0  0  0  0  0  0  0  0  0
   -1.1465   -3.4783    1.1825 H   0  0  0  0  0  0  0  0  0  0  0  0
   -0.5579   -5.2328    0.1955 N   0  0  0  0  0  4  0  0  0  0  0  0
   -0.0887   -4.5920   -0.3984 H   0  0  0  0  0  0  0  0  0  0  0  0
    0.0856   -5.7118    0.7790 H   0  0  0  0  0  0  0  0  0  0  0  0
   -1.1001   -5.8728   -0.3335 H   0  0  0  0  0  0  0  0  0  0  0  0
   -0.0109    2.8860    0.0047 C   0  0  0  0  0  0  0  0  0  0  0  0
    0.8685    3.1955    0.3358 H   0  0  0  0  0  0  0  0  0  0  0  0
   -0.7432    3.1880    0.5981 H   0  0  0  0  0  0  0  0  0  0  0  0
   -0.1725    3.3285   -0.9782 H   0  0  0  0  0  0  0  0  0  0  0  0
   -0.0055    1.3891   -0.0016 C   0  0  0  0  0  0  0  0  0  0  0  0
   -1.2098    0.6710    0.0076 C   0  0  0  0  0  0  0  0  0  0  0  0
   -2.0715    1.1712    0.0192 H   0  0  0  0  0  0  0  0  0  0  0  0
   -1.2077   -0.6986    0.0000 C   0  0  0  0  0  0  0  0  0  0  0  0
   -2.0633   -1.2170   -0.0005 H   0  0  0  0  0  0  0  0  0  0  0  0
    0.0242   -1.3783   -0.0057 C   0  0  0  0  0  0  0  0  0  0  0  0
    0.0184   -2.3821   -0.0145 H   0  0  0  0  0  0  0  0  0  0  0  0
    1.2077   -0.6811    0.0000 C   0  0  0  0  0  0  0  0  0  0  0  0
    2.0968   -1.1721    0.0061 H   0  0  0  0  0  0  0  0  0  0  0  0
    1.1911    0.6979   -0.0003 C   0  0  0  0  0  0  0  0  0  0  0  0
    2.0561    1.2054   -0.0007 H   0  0  0  0  0  0  0  0  0  0  0  0
  1  5  1  0
  5  8  1  0
  1  2  1  0
  1  3  1  0
  1  4  1  0
  5  6  1  0
  5  7  1  0
  8  9  1  0
  8 10  1  0
  8 11  1  0
 12 16  1  0
 16 17  2  0
 17 19  1  0
 19 21  2  0
 21 23  1  0
 23 25  2  0
 25 16  1  0
 12 13  1  0
 12 14  1  0
 12 15  1  0
 17 18  1  0
 19 20  1  0
 21 22  1  0
 23 24  1  0
 25 26  1  0
M  CHG  1   8   1
M  END
>  <PDB_ID>  (146) 
pdb2cex

>  <RESIDUE_NAME>  (146) 
LYS   PHE

>  <FRAG_NAME>  (146) 
ETAM   MBZ

>  <FRAG_ATOM_NUM>  (146) 
fragi: 11  fragj: 15

>  <atom.prop.CHAIN_ID>  (146) 
A A A A A A A A A A A Z Z Z Z Z Z Z Z Z Z Z Z Z Z Z

>  <atom.prop.IS_HEAVY_ATOM>  (146) 
1 0 0 0 1 0 0 1 0 0 0 1 0 0 0 1 1 0 1 0 1 0 1 0 1 0

>  <DIFUSE_FUNC_ATOM>  (146) 
n/a

>  <FINAL_SINGLE_POINT_ENERGY>  (146) 
0

>  <NONCOV_INTER_ENERGY_QM>  (146) 
0

>  <FF_Energy>  (146) 
2.15

>  <QM_Energy>  (146) 
-3.14

>  <source>  (146) 
ETAM_MBZ

>  <Index>  (146) 
1444

$$$$
ETAM-pdb2cfe-B-LYS-74:MBZ-pdb2cfe-B-PHE-44
     RDKit          3D

 26 25  0  0  0  0  0  0  0  0999 V2000
   -0.5897   -1.0033   -4.3191 C   0  0  0  0  0  0  0  0  0  0  0  0
   -0.2177   -1.8994   -4.0745 H   0  0  0  0  0  0  0  0  0  0  0  0
   -0.4576   -0.8447   -5.2984 H   0  0  0  0  0  0  0  0  0  0  0  0
   -1.6574   -0.9940   -4.1002 H   0  0  0  0  0  0  0  0  0  0  0  0
    0.1578    0.0556   -3.5540 C   0  0  0  0  0  0  0  0  0  0  0  0
   -0.1618    0.9595   -3.8309 H   0  0  0  0  0  0  0  0  0  0  0  0
    0.0095   -0.0689   -2.5744 H   0  0  0  0  0  0  0  0  0  0  0  0
    1.6369   -0.0351   -3.8298 N   0  0  0  0  0  4  0  0  0  0  0  0
    1.8173    0.3264   -4.7414 H   0  0  0  0  0  0  0  0  0  0  0  0
    2.1253    0.5010   -3.1462 H   0  0  0  0  0  0  0  0  0  0  0  0
    1.9164   -0.9904   -3.7796 H   0  0  0  0  0  0  0  0  0  0  0  0
   -0.0022    2.9236    0.0303 C   0  0  0  0  0  0  0  0  0  0  0  0
   -0.7680    3.2395   -0.5040 H   0  0  0  0  0  0  0  0  0  0  0  0
    0.8573    3.2296   -0.3451 H   0  0  0  0  0  0  0  0  0  0  0  0
   -0.0970    3.3521    1.0280 H   0  0  0  0  0  0  0  0  0  0  0  0
   -0.0100    1.4138    0.0152 C   0  0  0  0  0  0  0  0  0  0  0  0
   -1.2054    0.7045    0.0091 C   0  0  0  0  0  0  0  0  0  0  0  0
   -2.0758    1.1840    0.0096 H   0  0  0  0  0  0  0  0  0  0  0  0
   -1.2155   -0.7129    0.0000 C   0  0  0  0  0  0  0  0  0  0  0  0
   -2.0831   -1.1971    0.0123 H   0  0  0  0  0  0  0  0  0  0  0  0
    0.0016   -1.3994   -0.0245 C   0  0  0  0  0  0  0  0  0  0  0  0
    0.0078   -2.3977   -0.0602 H   0  0  0  0  0  0  0  0  0  0  0  0
    1.2155   -0.6935    0.0000 C   0  0  0  0  0  0  0  0  0  0  0  0
    2.0908   -1.2027    0.0189 H   0  0  0  0  0  0  0  0  0  0  0  0
    1.2138    0.6874    0.0002 C   0  0  0  0  0  0  0  0  0  0  0  0
    2.0696    1.1976   -0.0107 H   0  0  0  0  0  0  0  0  0  0  0  0
  1  5  1  0
  5  8  1  0
  1  2  1  0
  1  3  1  0
  1  4  1  0
  5  6  1  0
  5  7  1  0
  8  9  1  0
  8 10  1  0
  8 11  1  0
 12 16  1  0
 16 17  2  0
 17 19  1  0
 19 21  2  0
 21 23  1  0
 23 25  2  0
 25 16  1  0
 12 13  1  0
 12 14  1  0
 12 15  1  0
 17 18  1  0
 19 20  1  0
 21 22  1  0
 23 24  1  0
 25 26  1  0
M  CHG  1   8   1
M  END
>  <PDB_ID>  (147) 
pdb2cfe

>  <RESIDUE_NAME>  (147) 
LYS   PHE

>  <FRAG_NAME>  (147) 
ETAM   MBZ

>  <FRAG_ATOM_NUM>  (147) 
fragi: 11  fragj: 15

>  <atom.prop.CHAIN_ID>  (147) 
A A A A A A A A A A A Z Z Z Z Z Z Z Z Z Z Z Z Z Z Z

>  <atom.prop.IS_HEAVY_ATOM>  (147) 
1 0 0 0 1 0 0 1 0 0 0 1 0 0 0 1 1 0 1 0 1 0 1 0 1 0

>  <DIFUSE_FUNC_ATOM>  (147) 
n/a

>  <FINAL_SINGLE_POINT_ENERGY>  (147) 
0

>  <NONCOV_INTER_ENERGY_QM>  (147) 
0

>  <FF_Energy>  (147) 
-5.97

>  <QM_Energy>  (147) 
-11.5

>  <source>  (147) 
ETAM_MBZ

>  <Index>  (147) 
1445

$$$$
ETAM-pdb2cfm-A-LYS-512:MBZ-pdb2cfm-A-PHE-520
     RDKit          3D

 26 25  0  0  0  0  0  0  0  0999 V2000
    3.1172   -2.7335    3.6557 C   0  0  0  0  0  0  0  0  0  0  0  0
    3.8452   -2.9120    3.0008 H   0  0  0  0  0  0  0  0  0  0  0  0
    3.4575   -2.8313    4.5858 H   0  0  0  0  0  0  0  0  0  0  0  0
    2.7629   -1.7121    3.5165 H   0  0  0  0  0  0  0  0  0  0  0  0
    2.0075   -3.7332    3.4352 C   0  0  0  0  0  0  0  0  0  0  0  0
    2.3839   -4.6545    3.4754 H   0  0  0  0  0  0  0  0  0  0  0  0
    1.3159   -3.6167    4.1429 H   0  0  0  0  0  0  0  0  0  0  0  0
    1.3959   -3.5085    2.1074 N   0  0  0  0  0  4  0  0  0  0  0  0
    0.9447   -2.6151    2.0924 H   0  0  0  0  0  0  0  0  0  0  0  0
    2.1056   -3.5338    1.4015 H   0  0  0  0  0  0  0  0  0  0  0  0
    0.7201   -4.2237    1.9231 H   0  0  0  0  0  0  0  0  0  0  0  0
    0.0063    2.8889   -0.0014 C   0  0  0  0  0  0  0  0  0  0  0  0
   -0.8606    3.2080   -0.3579 H   0  0  0  0  0  0  0  0  0  0  0  0
    0.7600    3.1999   -0.5627 H   0  0  0  0  0  0  0  0  0  0  0  0
    0.1338    3.3286    0.9878 H   0  0  0  0  0  0  0  0  0  0  0  0
   -0.0008    1.4033   -0.0001 C   0  0  0  0  0  0  0  0  0  0  0  0
   -1.2040    0.6909    0.0031 C   0  0  0  0  0  0  0  0  0  0  0  0
   -2.0671    1.1825    0.0065 H   0  0  0  0  0  0  0  0  0  0  0  0
   -1.2052   -0.6990   -0.0000 C   0  0  0  0  0  0  0  0  0  0  0  0
   -2.0762   -1.1990    0.0006 H   0  0  0  0  0  0  0  0  0  0  0  0
    0.0087   -1.3982   -0.0016 C   0  0  0  0  0  0  0  0  0  0  0  0
    0.0022   -2.3939   -0.0040 H   0  0  0  0  0  0  0  0  0  0  0  0
    1.2052   -0.6960   -0.0000 C   0  0  0  0  0  0  0  0  0  0  0  0
    2.0901   -1.1885    0.0034 H   0  0  0  0  0  0  0  0  0  0  0  0
    1.1961    0.6989   -0.0013 C   0  0  0  0  0  0  0  0  0  0  0  0
    2.0645    1.1952   -0.0042 H   0  0  0  0  0  0  0  0  0  0  0  0
  1  5  1  0
  5  8  1  0
  1  2  1  0
  1  3  1  0
  1  4  1  0
  5  6  1  0
  5  7  1  0
  8  9  1  0
  8 10  1  0
  8 11  1  0
 12 16  1  0
 16 17  2  0
 17 19  1  0
 19 21  2  0
 21 23  1  0
 23 25  2  0
 25 16  1  0
 12 13  1  0
 12 14  1  0
 12 15  1  0
 17 18  1  0
 19 20  1  0
 21 22  1  0
 23 24  1  0
 25 26  1  0
M  CHG  1   8   1
M  END
>  <PDB_ID>  (148) 
pdb2cfm

>  <RESIDUE_NAME>  (148) 
LYS   PHE

>  <FRAG_NAME>  (148) 
ETAM   MBZ

>  <FRAG_ATOM_NUM>  (148) 
fragi: 11  fragj: 15

>  <atom.prop.CHAIN_ID>  (148) 
A A A A A A A A A A A Z Z Z Z Z Z Z Z Z Z Z Z Z Z Z

>  <atom.prop.IS_HEAVY_ATOM>  (148) 
1 0 0 0 1 0 0 1 0 0 0 1 0 0 0 1 1 0 1 0 1 0 1 0 1 0

>  <DIFUSE_FUNC_ATOM>  (148) 
n/a

>  <FINAL_SINGLE_POINT_ENERGY>  (148) 
0

>  <NONCOV_INTER_ENERGY_QM>  (148) 
0

>  <FF_Energy>  (148) 
-0.88

>  <QM_Energy>  (148) 
-7.97

>  <source>  (148) 
ETAM_MBZ

>  <Index>  (148) 
1452

$$$$
ETAM-pdb2cfx-A-MET-1:MBZ-pdb2cfx-A-PHE-46
     RDKit          3D

 26 25  0  0  0  0  0  0  0  0999 V2000
   -0.5271    0.0112   -3.8047 C   0  0  0  0  0  0  0  0  0  0  0  0
   -0.3739   -0.2215   -2.8216 H   0  0  0  0  0  0  0  0  0  0  0  0
   -0.2541    0.9898   -3.9098 H   0  0  0  0  0  0  0  0  0  0  0  0
   -1.5957   -0.0638   -4.0067 H   0  0  0  0  0  0  0  0  0  0  0  0
    0.4218   -0.8523   -4.6629 C   0  0  0  0  0  0  0  0  0  0  0  0
   -0.0561   -1.7549   -4.7033 H   0  0  0  0  0  0  0  0  0  0  0  0
    0.4692   -0.4541   -5.6764 H   0  0  0  0  0  0  0  0  0  0  0  0
    1.7530   -1.1027   -3.9259 N   0  0  0  0  0  4  0  0  0  0  0  0
    1.5497   -1.2116   -2.9646 H   0  0  0  0  0  0  0  0  0  0  0  0
    2.1550   -1.9244   -4.3012 H   0  0  0  0  0  0  0  0  0  0  0  0
    2.3352   -0.3186   -4.0808 H   0  0  0  0  0  0  0  0  0  0  0  0
    0.0080    2.9082   -0.0139 C   0  0  0  0  0  0  0  0  0  0  0  0
   -0.8824    3.2112   -0.3150 H   0  0  0  0  0  0  0  0  0  0  0  0
    0.7196    3.2026   -0.6307 H   0  0  0  0  0  0  0  0  0  0  0  0
    0.2041    3.3395    0.9678 H   0  0  0  0  0  0  0  0  0  0  0  0
    0.0012    1.4025   -0.0068 C   0  0  0  0  0  0  0  0  0  0  0  0
   -1.2002    0.6956    0.0217 C   0  0  0  0  0  0  0  0  0  0  0  0
   -2.0634    1.1878    0.0569 H   0  0  0  0  0  0  0  0  0  0  0  0
   -1.2085   -0.6980    0.0000 C   0  0  0  0  0  0  0  0  0  0  0  0
   -2.0827   -1.1904   -0.0062 H   0  0  0  0  0  0  0  0  0  0  0  0
   -0.0013   -1.4010   -0.0110 C   0  0  0  0  0  0  0  0  0  0  0  0
    0.0001   -2.3926   -0.0267 H   0  0  0  0  0  0  0  0  0  0  0  0
    1.2085   -0.6901    0.0000 C   0  0  0  0  0  0  0  0  0  0  0  0
    2.0863   -1.1939    0.0121 H   0  0  0  0  0  0  0  0  0  0  0  0
    1.2002    0.6910   -0.0040 C   0  0  0  0  0  0  0  0  0  0  0  0
    2.0676    1.1948   -0.0057 H   0  0  0  0  0  0  0  0  0  0  0  0
  1  5  1  0
  5  8  1  0
  1  2  1  0
  1  3  1  0
  1  4  1  0
  5  6  1  0
  5  7  1  0
  8  9  1  0
  8 10  1  0
  8 11  1  0
 12 16  1  0
 16 17  2  0
 17 19  1  0
 19 21  2  0
 21 23  1  0
 23 25  2  0
 25 16  1  0
 12 13  1  0
 12 14  1  0
 12 15  1  0
 17 18  1  0
 19 20  1  0
 21 22  1  0
 23 24  1  0
 25 26  1  0
M  CHG  1   8   1
M  END
>  <PDB_ID>  (149) 
pdb2cfx

>  <RESIDUE_NAME>  (149) 
MET   PHE

>  <FRAG_NAME>  (149) 
ETAM   MBZ

>  <FRAG_ATOM_NUM>  (149) 
fragi: 11  fragj: 15

>  <atom.prop.CHAIN_ID>  (149) 
A A A A A A A A A A A Z Z Z Z Z Z Z Z Z Z Z Z Z Z Z

>  <atom.prop.IS_HEAVY_ATOM>  (149) 
1 0 0 0 1 0 0 1 0 0 0 1 0 0 0 1 1 0 1 0 1 0 1 0 1 0

>  <DIFUSE_FUNC_ATOM>  (149) 
n/a

>  <FINAL_SINGLE_POINT_ENERGY>  (149) 
0

>  <NONCOV_INTER_ENERGY_QM>  (149) 
0

>  <FF_Energy>  (149) 
-5.1

>  <QM_Energy>  (149) 
-10.34

>  <source>  (149) 
ETAM_MBZ

>  <Index>  (149) 
1462

$$$$
ETAM-pdb2cfx-C-MET-1:MBZ-pdb2cfx-C-PHE-46
     RDKit          3D

 26 25  0  0  0  0  0  0  0  0999 V2000
    0.8293    0.3994   -3.7839 C   0  0  0  0  0  0  0  0  0  0  0  0
    0.7120    0.3287   -2.7839 H   0  0  0  0  0  0  0  0  0  0  0  0
    1.2253    1.3056   -3.9875 H   0  0  0  0  0  0  0  0  0  0  0  0
   -0.1589    0.3555   -4.2417 H   0  0  0  0  0  0  0  0  0  0  0  0
    1.7991   -0.6885   -4.2530 C   0  0  0  0  0  0  0  0  0  0  0  0
    1.2661   -1.5510   -4.3629 H   0  0  0  0  0  0  0  0  0  0  0  0
    2.1787   -0.4085   -5.2356 H   0  0  0  0  0  0  0  0  0  0  0  0
    2.8318   -0.9434   -3.1726 N   0  0  0  0  0  4  0  0  0  0  0  0
    2.7529   -0.2295   -2.4874 H   0  0  0  0  0  0  0  0  0  0  0  0
    2.6522   -1.8322   -2.7692 H   0  0  0  0  0  0  0  0  0  0  0  0
    3.7332   -0.9264   -3.5892 H   0  0  0  0  0  0  0  0  0  0  0  0
    0.0203    2.8903    0.0084 C   0  0  0  0  0  0  0  0  0  0  0  0
   -0.6816    3.2135   -0.6135 H   0  0  0  0  0  0  0  0  0  0  0  0
    0.9183    3.1904   -0.2861 H   0  0  0  0  0  0  0  0  0  0  0  0
   -0.1736    3.3283    0.9875 H   0  0  0  0  0  0  0  0  0  0  0  0
    0.0001    1.4080    0.0051 C   0  0  0  0  0  0  0  0  0  0  0  0
   -1.2197    0.7097    0.0178 C   0  0  0  0  0  0  0  0  0  0  0  0
   -2.0744    1.1966    0.0378 H   0  0  0  0  0  0  0  0  0  0  0  0
   -1.2276   -0.7062    0.0000 C   0  0  0  0  0  0  0  0  0  0  0  0
   -2.0864   -1.1994   -0.0033 H   0  0  0  0  0  0  0  0  0  0  0  0
    0.0109   -1.4048   -0.0108 C   0  0  0  0  0  0  0  0  0  0  0  0
    0.0076   -2.3980   -0.0266 H   0  0  0  0  0  0  0  0  0  0  0  0
    1.2276   -0.6962   -0.0000 C   0  0  0  0  0  0  0  0  0  0  0  0
    2.1005   -1.1955    0.0178 H   0  0  0  0  0  0  0  0  0  0  0  0
    1.2086    0.6895   -0.0121 C   0  0  0  0  0  0  0  0  0  0  0  0
    2.0722    1.1990   -0.0345 H   0  0  0  0  0  0  0  0  0  0  0  0
  1  5  1  0
  5  8  1  0
  1  2  1  0
  1  3  1  0
  1  4  1  0
  5  6  1  0
  5  7  1  0
  8  9  1  0
  8 10  1  0
  8 11  1  0
 12 16  1  0
 16 17  2  0
 17 19  1  0
 19 21  2  0
 21 23  1  0
 23 25  2  0
 25 16  1  0
 12 13  1  0
 12 14  1  0
 12 15  1  0
 17 18  1  0
 19 20  1  0
 21 22  1  0
 23 24  1  0
 25 26  1  0
M  CHG  1   8   1
M  END
>  <PDB_ID>  (150) 
pdb2cfx

>  <RESIDUE_NAME>  (150) 
MET   PHE

>  <FRAG_NAME>  (150) 
ETAM   MBZ

>  <FRAG_ATOM_NUM>  (150) 
fragi: 11  fragj: 15

>  <atom.prop.CHAIN_ID>  (150) 
A A A A A A A A A A A Z Z Z Z Z Z Z Z Z Z Z Z Z Z Z

>  <atom.prop.IS_HEAVY_ATOM>  (150) 
1 0 0 0 1 0 0 1 0 0 0 1 0 0 0 1 1 0 1 0 1 0 1 0 1 0

>  <DIFUSE_FUNC_ATOM>  (150) 
n/a

>  <FINAL_SINGLE_POINT_ENERGY>  (150) 
0

>  <NONCOV_INTER_ENERGY_QM>  (150) 
0

>  <FF_Energy>  (150) 
-3.98

>  <QM_Energy>  (150) 
-9.76

>  <source>  (150) 
ETAM_MBZ

>  <Index>  (150) 
1465

$$$$
ETAM-pdb2cfx-E-MET-1:MBZ-pdb2cfx-E-PHE-46
     RDKit          3D

 26 25  0  0  0  0  0  0  0  0999 V2000
    1.0528    0.2643   -3.6488 C   0  0  0  0  0  0  0  0  0  0  0  0
    0.9039    0.1152   -2.6658 H   0  0  0  0  0  0  0  0  0  0  0  0
    1.4600    1.1746   -3.7780 H   0  0  0  0  0  0  0  0  0  0  0  0
    0.0805    0.2576   -4.1414 H   0  0  0  0  0  0  0  0  0  0  0  0
    2.0428   -0.8065   -4.1744 C   0  0  0  0  0  0  0  0  0  0  0  0
    1.5261   -1.6671   -4.2588 H   0  0  0  0  0  0  0  0  0  0  0  0
    2.3968   -0.5245   -5.1659 H   0  0  0  0  0  0  0  0  0  0  0  0
    3.1668   -1.0590   -3.1882 N   0  0  0  0  0  4  0  0  0  0  0  0
    3.8555   -0.3553   -3.3104 H   0  0  0  0  0  0  0  0  0  0  0  0
    2.7921   -1.0239   -2.2693 H   0  0  0  0  0  0  0  0  0  0  0  0
    3.5502   -1.9562   -3.3725 H   0  0  0  0  0  0  0  0  0  0  0  0
    0.0128    2.8918   -0.0270 C   0  0  0  0  0  0  0  0  0  0  0  0
   -0.7235    3.1981   -0.6175 H   0  0  0  0  0  0  0  0  0  0  0  0
    0.8919    3.1904   -0.3762 H   0  0  0  0  0  0  0  0  0  0  0  0
   -0.1305    3.3498    0.9517 H   0  0  0  0  0  0  0  0  0  0  0  0
    0.0008    1.4134    0.0037 C   0  0  0  0  0  0  0  0  0  0  0  0
   -1.2060    0.7146    0.0053 C   0  0  0  0  0  0  0  0  0  0  0  0
   -2.0680    1.2023    0.0094 H   0  0  0  0  0  0  0  0  0  0  0  0
   -1.2167   -0.6937   -0.0000 C   0  0  0  0  0  0  0  0  0  0  0  0
   -2.0918   -1.1816    0.0074 H   0  0  0  0  0  0  0  0  0  0  0  0
   -0.0024   -1.4147   -0.0139 C   0  0  0  0  0  0  0  0  0  0  0  0
   -0.0181   -2.4043   -0.0340 H   0  0  0  0  0  0  0  0  0  0  0  0
    1.2167   -0.7173   -0.0000 C   0  0  0  0  0  0  0  0  0  0  0  0
    2.0896   -1.2079    0.0082 H   0  0  0  0  0  0  0  0  0  0  0  0
    1.2077    0.6977    0.0048 C   0  0  0  0  0  0  0  0  0  0  0  0
    2.0739    1.1881    0.0081 H   0  0  0  0  0  0  0  0  0  0  0  0
  1  5  1  0
  5  8  1  0
  1  2  1  0
  1  3  1  0
  1  4  1  0
  5  6  1  0
  5  7  1  0
  8  9  1  0
  8 10  1  0
  8 11  1  0
 12 16  1  0
 16 17  2  0
 17 19  1  0
 19 21  2  0
 21 23  1  0
 23 25  2  0
 25 16  1  0
 12 13  1  0
 12 14  1  0
 12 15  1  0
 17 18  1  0
 19 20  1  0
 21 22  1  0
 23 24  1  0
 25 26  1  0
M  CHG  1   8   1
M  END
>  <PDB_ID>  (151) 
pdb2cfx

>  <RESIDUE_NAME>  (151) 
MET   PHE

>  <FRAG_NAME>  (151) 
ETAM   MBZ

>  <FRAG_ATOM_NUM>  (151) 
fragi: 11  fragj: 15

>  <atom.prop.CHAIN_ID>  (151) 
A A A A A A A A A A A Z Z Z Z Z Z Z Z Z Z Z Z Z Z Z

>  <atom.prop.IS_HEAVY_ATOM>  (151) 
1 0 0 0 1 0 0 1 0 0 0 1 0 0 0 1 1 0 1 0 1 0 1 0 1 0

>  <DIFUSE_FUNC_ATOM>  (151) 
n/a

>  <FINAL_SINGLE_POINT_ENERGY>  (151) 
0

>  <NONCOV_INTER_ENERGY_QM>  (151) 
0

>  <FF_Energy>  (151) 
-3.28

>  <QM_Energy>  (151) 
-8.98

>  <source>  (151) 
ETAM_MBZ

>  <Index>  (151) 
1467

$$$$
ETAM-pdb2cfx-G-MET-1:MBZ-pdb2cfx-G-PHE-46
     RDKit          3D

 26 25  0  0  0  0  0  0  0  0999 V2000
    1.0463   -0.2447   -3.5487 C   0  0  0  0  0  0  0  0  0  0  0  0
    0.5361   -0.7494   -2.8197 H   0  0  0  0  0  0  0  0  0  0  0  0
    1.2628    0.6739   -3.1548 H   0  0  0  0  0  0  0  0  0  0  0  0
    0.3686   -0.0961   -4.3894 H   0  0  0  0  0  0  0  0  0  0  0  0
    2.3747   -0.9854   -3.8154 C   0  0  0  0  0  0  0  0  0  0  0  0
    2.2028   -1.9413   -4.0212 H   0  0  0  0  0  0  0  0  0  0  0  0
    2.9148   -0.5382   -4.6499 H   0  0  0  0  0  0  0  0  0  0  0  0
    3.2516   -0.9536   -2.5666 N   0  0  0  0  0  4  0  0  0  0  0  0
    2.8090   -1.4940   -1.8643 H   0  0  0  0  0  0  0  0  0  0  0  0
    4.1355   -1.3375   -2.7995 H   0  0  0  0  0  0  0  0  0  0  0  0
    3.3435   -0.0105   -2.2774 H   0  0  0  0  0  0  0  0  0  0  0  0
   -0.0035    2.8743    0.0491 C   0  0  0  0  0  0  0  0  0  0  0  0
   -0.5943    3.2090   -0.6700 H   0  0  0  0  0  0  0  0  0  0  0  0
    0.9251    3.1938   -0.0719 H   0  0  0  0  0  0  0  0  0  0  0  0
   -0.3735    3.2600    0.9990 H   0  0  0  0  0  0  0  0  0  0  0  0
    0.0002    1.4012    0.0004 C   0  0  0  0  0  0  0  0  0  0  0  0
   -1.2094    0.6937    0.0109 C   0  0  0  0  0  0  0  0  0  0  0  0
   -2.0691    1.1890    0.0245 H   0  0  0  0  0  0  0  0  0  0  0  0
   -1.2176   -0.6993    0.0000 C   0  0  0  0  0  0  0  0  0  0  0  0
   -2.0829   -1.1981    0.0065 H   0  0  0  0  0  0  0  0  0  0  0  0
    0.0060   -1.4017   -0.0178 C   0  0  0  0  0  0  0  0  0  0  0  0
    0.0011   -2.3952   -0.0431 H   0  0  0  0  0  0  0  0  0  0  0  0
    1.2176   -0.6958   -0.0000 C   0  0  0  0  0  0  0  0  0  0  0  0
    2.0951   -1.1897    0.0094 H   0  0  0  0  0  0  0  0  0  0  0  0
    1.2032    0.7020    0.0066 C   0  0  0  0  0  0  0  0  0  0  0  0
    2.0674    1.2014    0.0153 H   0  0  0  0  0  0  0  0  0  0  0  0
  1  5  1  0
  5  8  1  0
  1  2  1  0
  1  3  1  0
  1  4  1  0
  5  6  1  0
  5  7  1  0
  8  9  1  0
  8 10  1  0
  8 11  1  0
 12 16  1  0
 16 17  2  0
 17 19  1  0
 19 21  2  0
 21 23  1  0
 23 25  2  0
 25 16  1  0
 12 13  1  0
 12 14  1  0
 12 15  1  0
 17 18  1  0
 19 20  1  0
 21 22  1  0
 23 24  1  0
 25 26  1  0
M  CHG  1   8   1
M  END
>  <PDB_ID>  (152) 
pdb2cfx

>  <RESIDUE_NAME>  (152) 
MET   PHE

>  <FRAG_NAME>  (152) 
ETAM   MBZ

>  <FRAG_ATOM_NUM>  (152) 
fragi: 11  fragj: 15

>  <atom.prop.CHAIN_ID>  (152) 
A A A A A A A A A A A Z Z Z Z Z Z Z Z Z Z Z Z Z Z Z

>  <atom.prop.IS_HEAVY_ATOM>  (152) 
1 0 0 0 1 0 0 1 0 0 0 1 0 0 0 1 1 0 1 0 1 0 1 0 1 0

>  <DIFUSE_FUNC_ATOM>  (152) 
n/a

>  <FINAL_SINGLE_POINT_ENERGY>  (152) 
0

>  <NONCOV_INTER_ENERGY_QM>  (152) 
0

>  <FF_Energy>  (152) 
-2.68

>  <QM_Energy>  (152) 
-8.96

>  <source>  (152) 
ETAM_MBZ

>  <Index>  (152) 
1469

$$$$
ETAM-pdb1bnd-A-LYS-25:MBZ-pdb1bnd-A-PHE-53
     RDKit          3D

 26 25  0  0  0  0  0  0  0  0999 V2000
    3.4694   -0.0861    3.7290 C   0  0  0  0  0  0  0  0  0  0  0  0
    3.2369   -0.5083    2.8546 H   0  0  0  0  0  0  0  0  0  0  0  0
    2.9617   -0.5307    4.4640 H   0  0  0  0  0  0  0  0  0  0  0  0
    4.5373   -0.2082    3.9095 H   0  0  0  0  0  0  0  0  0  0  0  0
    3.0826    1.3651    3.6835 C   0  0  0  0  0  0  0  0  0  0  0  0
    3.1646    1.7564    4.5766 H   0  0  0  0  0  0  0  0  0  0  0  0
    3.6208    1.8299    3.0110 H   0  0  0  0  0  0  0  0  0  0  0  0
    1.6609    1.3682    3.2688 N   0  0  0  0  0  4  0  0  0  0  0  0
    1.5868    1.0503    2.3226 H   0  0  0  0  0  0  0  0  0  0  0  0
    1.1362    0.7594    3.8652 H   0  0  0  0  0  0  0  0  0  0  0  0
    1.2934    2.2972    3.3364 H   0  0  0  0  0  0  0  0  0  0  0  0
   -0.0153    2.9097   -0.0814 C   0  0  0  0  0  0  0  0  0  0  0  0
    0.8663    3.2337    0.2166 H   0  0  0  0  0  0  0  0  0  0  0  0
   -0.7420    3.2324    0.5003 H   0  0  0  0  0  0  0  0  0  0  0  0
   -0.1939    3.2803   -1.0907 H   0  0  0  0  0  0  0  0  0  0  0  0
    0.0005    1.3973   -0.0007 C   0  0  0  0  0  0  0  0  0  0  0  0
   -1.1907    0.6689    0.0039 C   0  0  0  0  0  0  0  0  0  0  0  0
   -2.0625    1.1555    0.0088 H   0  0  0  0  0  0  0  0  0  0  0  0
   -1.1896   -0.7202   -0.0000 C   0  0  0  0  0  0  0  0  0  0  0  0
   -2.0676   -1.2121    0.0022 H   0  0  0  0  0  0  0  0  0  0  0  0
   -0.0014   -1.3825   -0.0049 C   0  0  0  0  0  0  0  0  0  0  0  0
    0.0235   -2.3875   -0.0126 H   0  0  0  0  0  0  0  0  0  0  0  0
    1.1896   -0.6705    0.0000 C   0  0  0  0  0  0  0  0  0  0  0  0
    2.0784   -1.1738    0.0036 H   0  0  0  0  0  0  0  0  0  0  0  0
    1.1915    0.7070    0.0017 C   0  0  0  0  0  0  0  0  0  0  0  0
    2.0580    1.2049    0.0044 H   0  0  0  0  0  0  0  0  0  0  0  0
  1  5  1  0
  5  8  1  0
  1  2  1  0
  1  3  1  0
  1  4  1  0
  5  6  1  0
  5  7  1  0
  8  9  1  0
  8 10  1  0
  8 11  1  0
 12 16  1  0
 16 17  2  0
 17 19  1  0
 19 21  2  0
 21 23  1  0
 23 25  2  0
 25 16  1  0
 12 13  1  0
 12 14  1  0
 12 15  1  0
 17 18  1  0
 19 20  1  0
 21 22  1  0
 23 24  1  0
 25 26  1  0
M  CHG  1   8   1
M  END
>  <PDB_ID>  (153) 
pdb1bnd

>  <RESIDUE_NAME>  (153) 
LYS   PHE

>  <FRAG_NAME>  (153) 
ETAM   MBZ

>  <FRAG_ATOM_NUM>  (153) 
fragi: 11  fragj: 15

>  <atom.prop.CHAIN_ID>  (153) 
A A A A A A A A A A A Z Z Z Z Z Z Z Z Z Z Z Z Z Z Z

>  <atom.prop.IS_HEAVY_ATOM>  (153) 
1 0 0 0 1 0 0 1 0 0 0 1 0 0 0 1 1 0 1 0 1 0 1 0 1 0

>  <DIFUSE_FUNC_ATOM>  (153) 
n/a

>  <FINAL_SINGLE_POINT_ENERGY>  (153) 
0

>  <NONCOV_INTER_ENERGY_QM>  (153) 
0

>  <FF_Energy>  (153) 
-6.05

>  <QM_Energy>  (153) 
-11.89

>  <source>  (153) 
ETAM_MBZ

>  <Index>  (153) 
1477

$$$$
ETAM-pdb2ch1-C-LYS-254:MBZ-pdb2ch1-C-PHE-50
     RDKit          3D

 26 25  0  0  0  0  0  0  0  0999 V2000
    0.8612   -1.0578   -3.6609 C   0  0  0  0  0  0  0  0  0  0  0  0
   -0.0355   -1.1975   -3.2626 H   0  0  0  0  0  0  0  0  0  0  0  0
    1.5606   -1.0378   -2.9584 H   0  0  0  0  0  0  0  0  0  0  0  0
    1.0729   -1.8791   -4.3457 H   0  0  0  0  0  0  0  0  0  0  0  0
    0.8678    0.2772   -4.3941 C   0  0  0  0  0  0  0  0  0  0  0  0
    1.7741    0.3927   -4.8436 H   0  0  0  0  0  0  0  0  0  0  0  0
    0.1769    0.2374   -5.1411 H   0  0  0  0  0  0  0  0  0  0  0  0
    0.5947    1.4661   -3.5484 N   0  0  0  0  0  4  0  0  0  0  0  0
   -0.2715    1.8820   -3.8275 H   0  0  0  0  0  0  0  0  0  0  0  0
    0.5370    1.1867   -2.5897 H   0  0  0  0  0  0  0  0  0  0  0  0
    1.3337    2.1310   -3.6579 H   0  0  0  0  0  0  0  0  0  0  0  0
    0.0043    2.9453   -0.0174 C   0  0  0  0  0  0  0  0  0  0  0  0
   -0.8547    3.2499    0.3644 H   0  0  0  0  0  0  0  0  0  0  0  0
    0.1035    3.2314   -0.9582 H   0  0  0  0  0  0  0  0  0  0  0  0
    0.8144    3.3867    0.5632 H   0  0  0  0  0  0  0  0  0  0  0  0
   -0.0028    1.4276   -0.0017 C   0  0  0  0  0  0  0  0  0  0  0  0
   -1.2047    0.7199    0.0120 C   0  0  0  0  0  0  0  0  0  0  0  0
   -2.0711    1.1924    0.0291 H   0  0  0  0  0  0  0  0  0  0  0  0
   -1.2042   -0.7060    0.0000 C   0  0  0  0  0  0  0  0  0  0  0  0
   -2.0839   -1.1870    0.0028 H   0  0  0  0  0  0  0  0  0  0  0  0
    0.0023   -1.4180   -0.0137 C   0  0  0  0  0  0  0  0  0  0  0  0
   -0.0112   -2.4111   -0.0339 H   0  0  0  0  0  0  0  0  0  0  0  0
    1.2042   -0.7219   -0.0000 C   0  0  0  0  0  0  0  0  0  0  0  0
    2.0880   -1.2077    0.0089 H   0  0  0  0  0  0  0  0  0  0  0  0
    1.2051    0.6984    0.0034 C   0  0  0  0  0  0  0  0  0  0  0  0
    2.0726    1.1824    0.0086 H   0  0  0  0  0  0  0  0  0  0  0  0
  1  5  1  0
  5  8  1  0
  1  2  1  0
  1  3  1  0
  1  4  1  0
  5  6  1  0
  5  7  1  0
  8  9  1  0
  8 10  1  0
  8 11  1  0
 12 16  1  0
 16 17  2  0
 17 19  1  0
 19 21  2  0
 21 23  1  0
 23 25  2  0
 25 16  1  0
 12 13  1  0
 12 14  1  0
 12 15  1  0
 17 18  1  0
 19 20  1  0
 21 22  1  0
 23 24  1  0
 25 26  1  0
M  CHG  1   8   1
M  END
>  <PDB_ID>  (154) 
pdb2ch1

>  <RESIDUE_NAME>  (154) 
LYS   PHE

>  <FRAG_NAME>  (154) 
ETAM   MBZ

>  <FRAG_ATOM_NUM>  (154) 
fragi: 11  fragj: 15

>  <atom.prop.CHAIN_ID>  (154) 
A A A A A A A A A A A Z Z Z Z Z Z Z Z Z Z Z Z Z Z Z

>  <atom.prop.IS_HEAVY_ATOM>  (154) 
1 0 0 0 1 0 0 1 0 0 0 1 0 0 0 1 1 0 1 0 1 0 1 0 1 0

>  <DIFUSE_FUNC_ATOM>  (154) 
n/a

>  <FINAL_SINGLE_POINT_ENERGY>  (154) 
0

>  <NONCOV_INTER_ENERGY_QM>  (154) 
0

>  <FF_Energy>  (154) 
-7.36

>  <QM_Energy>  (154) 
-12.65

>  <source>  (154) 
ETAM_MBZ

>  <Index>  (154) 
1481

$$$$
ETAM-pdb2che-A-LYS-7:MBZ-pdb2che-A-PHE-51
     RDKit          3D

 26 25  0  0  0  0  0  0  0  0999 V2000
   -1.4737   -0.7749   -3.9192 C   0  0  0  0  0  0  0  0  0  0  0  0
   -1.5039   -1.6682   -3.4726 H   0  0  0  0  0  0  0  0  0  0  0  0
   -1.4950   -0.8947   -4.9114 H   0  0  0  0  0  0  0  0  0  0  0  0
   -2.3761   -0.2347   -3.6330 H   0  0  0  0  0  0  0  0  0  0  0  0
   -0.2596   -0.0496   -3.5228 C   0  0  0  0  0  0  0  0  0  0  0  0
   -0.2616    0.8934   -3.9553 H   0  0  0  0  0  0  0  0  0  0  0  0
   -0.2887    0.1453   -2.5045 H   0  0  0  0  0  0  0  0  0  0  0  0
    1.0684   -0.6712   -3.8183 N   0  0  0  0  0  4  0  0  0  0  0  0
    0.9407   -1.6424   -4.0098 H   0  0  0  0  0  0  0  0  0  0  0  0
    1.4715   -0.2210   -4.6121 H   0  0  0  0  0  0  0  0  0  0  0  0
    1.6664   -0.5595   -3.0266 H   0  0  0  0  0  0  0  0  0  0  0  0
   -0.0656    2.8798   -0.1569 C   0  0  0  0  0  0  0  0  0  0  0  0
    0.7783    3.2505    0.1500 H   0  0  0  0  0  0  0  0  0  0  0  0
   -0.8456    3.2083    0.3190 H   0  0  0  0  0  0  0  0  0  0  0  0
   -0.1822    3.1651   -1.2025 H   0  0  0  0  0  0  0  0  0  0  0  0
   -0.0142    1.3870   -0.0329 C   0  0  0  0  0  0  0  0  0  0  0  0
   -1.2366    0.6589   -0.0076 C   0  0  0  0  0  0  0  0  0  0  0  0
   -2.0889    1.1738    0.0030 H   0  0  0  0  0  0  0  0  0  0  0  0
   -1.2387   -0.6989   -0.0000 C   0  0  0  0  0  0  0  0  0  0  0  0
   -2.0724   -1.2315   -0.0422 H   0  0  0  0  0  0  0  0  0  0  0  0
    0.0207   -1.3616    0.0740 C   0  0  0  0  0  0  0  0  0  0  0  0
    0.0117   -2.3710    0.1850 H   0  0  0  0  0  0  0  0  0  0  0  0
    1.2387   -0.6906   -0.0000 C   0  0  0  0  0  0  0  0  0  0  0  0
    2.1054   -1.1915   -0.0275 H   0  0  0  0  0  0  0  0  0  0  0  0
    1.2301    0.7053   -0.0335 C   0  0  0  0  0  0  0  0  0  0  0  0
    2.0681    1.2172   -0.0584 H   0  0  0  0  0  0  0  0  0  0  0  0
  1  5  1  0
  5  8  1  0
  1  2  1  0
  1  3  1  0
  1  4  1  0
  5  6  1  0
  5  7  1  0
  8  9  1  0
  8 10  1  0
  8 11  1  0
 12 16  1  0
 16 17  2  0
 17 19  1  0
 19 21  2  0
 21 23  1  0
 23 25  2  0
 25 16  1  0
 12 13  1  0
 12 14  1  0
 12 15  1  0
 17 18  1  0
 19 20  1  0
 21 22  1  0
 23 24  1  0
 25 26  1  0
M  CHG  1   8   1
M  END
>  <PDB_ID>  (155) 
pdb2che

>  <RESIDUE_NAME>  (155) 
LYS   PHE

>  <FRAG_NAME>  (155) 
ETAM   MBZ

>  <FRAG_ATOM_NUM>  (155) 
fragi: 11  fragj: 15

>  <atom.prop.CHAIN_ID>  (155) 
A A A A A A A A A A A Z Z Z Z Z Z Z Z Z Z Z Z Z Z Z

>  <atom.prop.IS_HEAVY_ATOM>  (155) 
1 0 0 0 1 0 0 1 0 0 0 1 0 0 0 1 1 0 1 0 1 0 1 0 1 0

>  <DIFUSE_FUNC_ATOM>  (155) 
n/a

>  <FINAL_SINGLE_POINT_ENERGY>  (155) 
0

>  <NONCOV_INTER_ENERGY_QM>  (155) 
0

>  <FF_Energy>  (155) 
-6.11

>  <QM_Energy>  (155) 
-12.54

>  <source>  (155) 
ETAM_MBZ

>  <Index>  (155) 
1487

$$$$
ETAM-pdb2chu-A-LYS-48:MBZ-pdb2chu-A-PHE-35
     RDKit          3D

 26 25  0  0  0  0  0  0  0  0999 V2000
    3.0181   -2.4400   -3.4490 C   0  0  0  0  0  0  0  0  0  0  0  0
    3.5313   -2.2263   -4.2761 H   0  0  0  0  0  0  0  0  0  0  0  0
    3.2096   -3.3740   -3.1589 H   0  0  0  0  0  0  0  0  0  0  0  0
    3.3249   -1.7554   -2.6581 H   0  0  0  0  0  0  0  0  0  0  0  0
    1.5201   -2.3332   -3.7707 C   0  0  0  0  0  0  0  0  0  0  0  0
    1.3665   -2.6691   -4.6989 H   0  0  0  0  0  0  0  0  0  0  0  0
    1.0109   -2.8959   -3.1219 H   0  0  0  0  0  0  0  0  0  0  0  0
    1.0381   -0.9141   -3.6746 N   0  0  0  0  0  4  0  0  0  0  0  0
    0.0403   -0.9085   -3.6802 H   0  0  0  0  0  0  0  0  0  0  0  0
    1.3752   -0.5131   -2.8260 H   0  0  0  0  0  0  0  0  0  0  0  0
    1.3857   -0.3995   -4.4548 H   0  0  0  0  0  0  0  0  0  0  0  0
    0.0034    2.8937    0.0232 C   0  0  0  0  0  0  0  0  0  0  0  0
    0.7843    3.1879    0.5533 H   0  0  0  0  0  0  0  0  0  0  0  0
   -0.8443    3.1914    0.4378 H   0  0  0  0  0  0  0  0  0  0  0  0
    0.0743    3.3490   -0.9647 H   0  0  0  0  0  0  0  0  0  0  0  0
    0.0019    1.3860    0.0023 C   0  0  0  0  0  0  0  0  0  0  0  0
   -1.1988    0.6831   -0.0051 C   0  0  0  0  0  0  0  0  0  0  0  0
   -2.0611    1.1802   -0.0153 H   0  0  0  0  0  0  0  0  0  0  0  0
   -1.2037   -0.6972    0.0000 C   0  0  0  0  0  0  0  0  0  0  0  0
   -2.0775   -1.1957    0.0132 H   0  0  0  0  0  0  0  0  0  0  0  0
   -0.0033   -1.3789   -0.0117 C   0  0  0  0  0  0  0  0  0  0  0  0
    0.0069   -2.3797   -0.0288 H   0  0  0  0  0  0  0  0  0  0  0  0
    1.2037   -0.6743   -0.0000 C   0  0  0  0  0  0  0  0  0  0  0  0
    2.0805   -1.1919   -0.0012 H   0  0  0  0  0  0  0  0  0  0  0  0
    1.2002    0.6813    0.0145 C   0  0  0  0  0  0  0  0  0  0  0  0
    2.0634    1.1946    0.0338 H   0  0  0  0  0  0  0  0  0  0  0  0
  1  5  1  0
  5  8  1  0
  1  2  1  0
  1  3  1  0
  1  4  1  0
  5  6  1  0
  5  7  1  0
  8  9  1  0
  8 10  1  0
  8 11  1  0
 12 16  1  0
 16 17  2  0
 17 19  1  0
 19 21  2  0
 21 23  1  0
 23 25  2  0
 25 16  1  0
 12 13  1  0
 12 14  1  0
 12 15  1  0
 17 18  1  0
 19 20  1  0
 21 22  1  0
 23 24  1  0
 25 26  1  0
M  CHG  1   8   1
M  END
>  <PDB_ID>  (156) 
pdb2chu

>  <RESIDUE_NAME>  (156) 
LYS   PHE

>  <FRAG_NAME>  (156) 
ETAM   MBZ

>  <FRAG_ATOM_NUM>  (156) 
fragi: 11  fragj: 15

>  <atom.prop.CHAIN_ID>  (156) 
A A A A A A A A A A A Z Z Z Z Z Z Z Z Z Z Z Z Z Z Z

>  <atom.prop.IS_HEAVY_ATOM>  (156) 
1 0 0 0 1 0 0 1 0 0 0 1 0 0 0 1 1 0 1 0 1 0 1 0 1 0

>  <DIFUSE_FUNC_ATOM>  (156) 
n/a

>  <FINAL_SINGLE_POINT_ENERGY>  (156) 
0

>  <NONCOV_INTER_ENERGY_QM>  (156) 
0

>  <FF_Energy>  (156) 
-5.93

>  <QM_Energy>  (156) 
-11.45

>  <source>  (156) 
ETAM_MBZ

>  <Index>  (156) 
1517

$$$$
ETAM-pdb1buc-A-LYS-237:MBZ-pdb1buc-A-PHE-104
     RDKit          3D

 26 25  0  0  0  0  0  0  0  0999 V2000
   -3.0689   -3.1795    2.3428 C   0  0  0  0  0  0  0  0  0  0  0  0
   -3.7850   -2.6818    2.8268 H   0  0  0  0  0  0  0  0  0  0  0  0
   -2.1887   -2.7348    2.4894 H   0  0  0  0  0  0  0  0  0  0  0  0
   -3.0186   -4.1915    2.7446 H   0  0  0  0  0  0  0  0  0  0  0  0
   -3.3841   -3.1479    0.8426 C   0  0  0  0  0  0  0  0  0  0  0  0
   -3.2582   -2.2006    0.5089 H   0  0  0  0  0  0  0  0  0  0  0  0
   -2.7121   -3.7318    0.3621 H   0  0  0  0  0  0  0  0  0  0  0  0
   -4.7614   -3.6064    0.4983 N   0  0  0  0  0  4  0  0  0  0  0  0
   -4.9883   -3.3025   -0.4260 H   0  0  0  0  0  0  0  0  0  0  0  0
   -4.7974   -4.6035    0.5432 H   0  0  0  0  0  0  0  0  0  0  0  0
   -5.4108   -3.2162    1.1490 H   0  0  0  0  0  0  0  0  0  0  0  0
    0.0003    2.9083    0.0470 C   0  0  0  0  0  0  0  0  0  0  0  0
    0.8935    3.2055    0.3540 H   0  0  0  0  0  0  0  0  0  0  0  0
   -0.7070    3.1957    0.6771 H   0  0  0  0  0  0  0  0  0  0  0  0
   -0.1964    3.3885   -0.9116 H   0  0  0  0  0  0  0  0  0  0  0  0
   -0.0000    1.4044    0.0004 C   0  0  0  0  0  0  0  0  0  0  0  0
   -1.1976    0.6949   -0.0008 C   0  0  0  0  0  0  0  0  0  0  0  0
   -2.0647    1.1841   -0.0037 H   0  0  0  0  0  0  0  0  0  0  0  0
   -1.2034   -0.7000   -0.0000 C   0  0  0  0  0  0  0  0  0  0  0  0
   -2.0789   -1.1923   -0.0002 H   0  0  0  0  0  0  0  0  0  0  0  0
    0.0008   -1.3977    0.0021 C   0  0  0  0  0  0  0  0  0  0  0  0
   -0.0014   -2.3947    0.0045 H   0  0  0  0  0  0  0  0  0  0  0  0
    1.2034   -0.6972   -0.0000 C   0  0  0  0  0  0  0  0  0  0  0  0
    2.0843   -1.1935    0.0009 H   0  0  0  0  0  0  0  0  0  0  0  0
    1.1968    0.6956   -0.0017 C   0  0  0  0  0  0  0  0  0  0  0  0
    2.0649    1.1924   -0.0053 H   0  0  0  0  0  0  0  0  0  0  0  0
  1  5  1  0
  5  8  1  0
  1  2  1  0
  1  3  1  0
  1  4  1  0
  5  6  1  0
  5  7  1  0
  8  9  1  0
  8 10  1  0
  8 11  1  0
 12 16  1  0
 16 17  2  0
 17 19  1  0
 19 21  2  0
 21 23  1  0
 23 25  2  0
 25 16  1  0
 12 13  1  0
 12 14  1  0
 12 15  1  0
 17 18  1  0
 19 20  1  0
 21 22  1  0
 23 24  1  0
 25 26  1  0
M  CHG  1   8   1
M  END
>  <PDB_ID>  (157) 
pdb1buc

>  <RESIDUE_NAME>  (157) 
LYS   PHE

>  <FRAG_NAME>  (157) 
ETAM   MBZ

>  <FRAG_ATOM_NUM>  (157) 
fragi: 11  fragj: 15

>  <atom.prop.CHAIN_ID>  (157) 
A A A A A A A A A A A Z Z Z Z Z Z Z Z Z Z Z Z Z Z Z

>  <atom.prop.IS_HEAVY_ATOM>  (157) 
1 0 0 0 1 0 0 1 0 0 0 1 0 0 0 1 1 0 1 0 1 0 1 0 1 0

>  <DIFUSE_FUNC_ATOM>  (157) 
n/a

>  <FINAL_SINGLE_POINT_ENERGY>  (157) 
0

>  <NONCOV_INTER_ENERGY_QM>  (157) 
0

>  <FF_Energy>  (157) 
13.72

>  <QM_Energy>  (157) 
-0.13

>  <source>  (157) 
ETAM_MBZ

>  <Index>  (157) 
1525

$$$$
ETAM-pdb1buc-A-LYS-277:MBZ-pdb1buc-A-PHE-282
     RDKit          3D

 26 25  0  0  0  0  0  0  0  0999 V2000
   -1.7038   -1.6506   -4.4081 C   0  0  0  0  0  0  0  0  0  0  0  0
   -1.4200   -0.8821   -3.8396 H   0  0  0  0  0  0  0  0  0  0  0  0
   -2.0766   -1.3173   -5.2699 H   0  0  0  0  0  0  0  0  0  0  0  0
   -0.8298   -2.2662   -4.6211 H   0  0  0  0  0  0  0  0  0  0  0  0
   -2.7951   -2.4225   -3.6723 C   0  0  0  0  0  0  0  0  0  0  0  0
   -3.6426   -1.8664   -3.6745 H   0  0  0  0  0  0  0  0  0  0  0  0
   -2.9925   -3.2743   -4.1852 H   0  0  0  0  0  0  0  0  0  0  0  0
   -2.4558   -2.7789   -2.2600 N   0  0  0  0  0  4  0  0  0  0  0  0
   -1.6788   -2.2281   -1.9601 H   0  0  0  0  0  0  0  0  0  0  0  0
   -3.2448   -2.5953   -1.6763 H   0  0  0  0  0  0  0  0  0  0  0  0
   -2.2201   -3.7478   -2.2141 H   0  0  0  0  0  0  0  0  0  0  0  0
   -0.0042    2.9011   -0.0444 C   0  0  0  0  0  0  0  0  0  0  0  0
    0.9297    3.2128    0.0245 H   0  0  0  0  0  0  0  0  0  0  0  0
   -0.5530    3.2283    0.7086 H   0  0  0  0  0  0  0  0  0  0  0  0
   -0.4245    3.3062   -0.9649 H   0  0  0  0  0  0  0  0  0  0  0  0
   -0.0002    1.4026   -0.0010 C   0  0  0  0  0  0  0  0  0  0  0  0
   -1.1969    0.6924    0.0006 C   0  0  0  0  0  0  0  0  0  0  0  0
   -2.0639    1.1836    0.0006 H   0  0  0  0  0  0  0  0  0  0  0  0
   -1.2036   -0.6983    0.0000 C   0  0  0  0  0  0  0  0  0  0  0  0
   -2.0782   -1.1925    0.0016 H   0  0  0  0  0  0  0  0  0  0  0  0
    0.0020   -1.3958   -0.0005 C   0  0  0  0  0  0  0  0  0  0  0  0
   -0.0027   -2.3935   -0.0016 H   0  0  0  0  0  0  0  0  0  0  0  0
    1.2036   -0.6967    0.0000 C   0  0  0  0  0  0  0  0  0  0  0  0
    2.0845   -1.1916    0.0017 H   0  0  0  0  0  0  0  0  0  0  0  0
    1.1951    0.6958    0.0009 C   0  0  0  0  0  0  0  0  0  0  0  0
    2.0635    1.1923    0.0024 H   0  0  0  0  0  0  0  0  0  0  0  0
  1  5  1  0
  5  8  1  0
  1  2  1  0
  1  3  1  0
  1  4  1  0
  5  6  1  0
  5  7  1  0
  8  9  1  0
  8 10  1  0
  8 11  1  0
 12 16  1  0
 16 17  2  0
 17 19  1  0
 19 21  2  0
 21 23  1  0
 23 25  2  0
 25 16  1  0
 12 13  1  0
 12 14  1  0
 12 15  1  0
 17 18  1  0
 19 20  1  0
 21 22  1  0
 23 24  1  0
 25 26  1  0
M  CHG  1   8   1
M  END
>  <PDB_ID>  (158) 
pdb1buc

>  <RESIDUE_NAME>  (158) 
LYS   PHE

>  <FRAG_NAME>  (158) 
ETAM   MBZ

>  <FRAG_ATOM_NUM>  (158) 
fragi: 11  fragj: 15

>  <atom.prop.CHAIN_ID>  (158) 
A A A A A A A A A A A Z Z Z Z Z Z Z Z Z Z Z Z Z Z Z

>  <atom.prop.IS_HEAVY_ATOM>  (158) 
1 0 0 0 1 0 0 1 0 0 0 1 0 0 0 1 1 0 1 0 1 0 1 0 1 0

>  <DIFUSE_FUNC_ATOM>  (158) 
n/a

>  <FINAL_SINGLE_POINT_ENERGY>  (158) 
0

>  <NONCOV_INTER_ENERGY_QM>  (158) 
0

>  <FF_Energy>  (158) 
-1.35

>  <QM_Energy>  (158) 
-8.23

>  <source>  (158) 
ETAM_MBZ

>  <Index>  (158) 
1526

$$$$
ETAM-pdb1bu8-A-LYS-1:MBZ-pdb1bu8-A-PHE-28
     RDKit          3D

 26 25  0  0  0  0  0  0  0  0999 V2000
   -0.5643   -4.9692   -0.1480 C   0  0  0  0  0  0  0  0  0  0  0  0
   -0.4664   -4.0190   -0.4560 H   0  0  0  0  0  0  0  0  0  0  0  0
   -0.1535   -5.0567    0.7640 H   0  0  0  0  0  0  0  0  0  0  0  0
   -0.0053   -5.6058   -0.8337 H   0  0  0  0  0  0  0  0  0  0  0  0
   -2.0587   -5.2790   -0.0284 C   0  0  0  0  0  0  0  0  0  0  0  0
   -2.2542   -6.0677    0.5268 H   0  0  0  0  0  0  0  0  0  0  0  0
   -2.5677   -4.4082    0.3847 H   0  0  0  0  0  0  0  0  0  0  0  0
   -2.6546   -5.4927   -1.3783 N   0  0  0  0  0  4  0  0  0  0  0  0
   -3.4815   -4.9425   -1.4605 H   0  0  0  0  0  0  0  0  0  0  0  0
   -1.9954   -5.2184   -2.0733 H   0  0  0  0  0  0  0  0  0  0  0  0
   -2.8789   -6.4576   -1.4876 H   0  0  0  0  0  0  0  0  0  0  0  0
   -0.0109    2.8836    0.0743 C   0  0  0  0  0  0  0  0  0  0  0  0
    0.8975    3.1871    0.3365 H   0  0  0  0  0  0  0  0  0  0  0  0
   -0.6821    3.1635    0.7515 H   0  0  0  0  0  0  0  0  0  0  0  0
   -0.2642    3.3863   -0.8591 H   0  0  0  0  0  0  0  0  0  0  0  0
   -0.0075    1.3956    0.0011 C   0  0  0  0  0  0  0  0  0  0  0  0
   -1.1982    0.6896   -0.0010 C   0  0  0  0  0  0  0  0  0  0  0  0
   -2.0668    1.1851   -0.0050 H   0  0  0  0  0  0  0  0  0  0  0  0
   -1.2039   -0.6862    0.0000 C   0  0  0  0  0  0  0  0  0  0  0  0
   -2.0764   -1.1899    0.0017 H   0  0  0  0  0  0  0  0  0  0  0  0
    0.0052   -1.3896    0.0010 C   0  0  0  0  0  0  0  0  0  0  0  0
   -0.0075   -2.3878    0.0016 H   0  0  0  0  0  0  0  0  0  0  0  0
    1.2039   -0.6984   -0.0000 C   0  0  0  0  0  0  0  0  0  0  0  0
    2.0849   -1.1978    0.0011 H   0  0  0  0  0  0  0  0  0  0  0  0
    1.2005    0.6890   -0.0011 C   0  0  0  0  0  0  0  0  0  0  0  0
    2.0618    1.1911   -0.0041 H   0  0  0  0  0  0  0  0  0  0  0  0
  1  5  1  0
  5  8  1  0
  1  2  1  0
  1  3  1  0
  1  4  1  0
  5  6  1  0
  5  7  1  0
  8  9  1  0
  8 10  1  0
  8 11  1  0
 12 16  1  0
 16 17  2  0
 17 19  1  0
 19 21  2  0
 21 23  1  0
 23 25  2  0
 25 16  1  0
 12 13  1  0
 12 14  1  0
 12 15  1  0
 17 18  1  0
 19 20  1  0
 21 22  1  0
 23 24  1  0
 25 26  1  0
M  CHG  1   8   1
M  END
>  <PDB_ID>  (159) 
pdb1bu8

>  <RESIDUE_NAME>  (159) 
LYS   PHE

>  <FRAG_NAME>  (159) 
ETAM   MBZ

>  <FRAG_ATOM_NUM>  (159) 
fragi: 11  fragj: 15

>  <atom.prop.CHAIN_ID>  (159) 
A A A A A A A A A A A Z Z Z Z Z Z Z Z Z Z Z Z Z Z Z

>  <atom.prop.IS_HEAVY_ATOM>  (159) 
1 0 0 0 1 0 0 1 0 0 0 1 0 0 0 1 1 0 1 0 1 0 1 0 1 0

>  <DIFUSE_FUNC_ATOM>  (159) 
n/a

>  <FINAL_SINGLE_POINT_ENERGY>  (159) 
0

>  <NONCOV_INTER_ENERGY_QM>  (159) 
0

>  <FF_Energy>  (159) 
4.82

>  <QM_Energy>  (159) 
-0.51

>  <source>  (159) 
ETAM_MBZ

>  <Index>  (159) 
1527

$$$$
ETAM-pdb2cjp-A-LYS-123:MBZ-pdb2cjp-A-PHE-100
     RDKit          3D

 26 25  0  0  0  0  0  0  0  0999 V2000
   -0.2803   -0.9393   -3.2624 C   0  0  0  0  0  0  0  0  0  0  0  0
   -0.0196   -0.9328   -2.3002 H   0  0  0  0  0  0  0  0  0  0  0  0
   -0.5665   -1.8554   -3.5322 H   0  0  0  0  0  0  0  0  0  0  0  0
   -1.1202   -0.2581   -3.3991 H   0  0  0  0  0  0  0  0  0  0  0  0
    0.9187   -0.5362   -4.0961 C   0  0  0  0  0  0  0  0  0  0  0  0
    0.7738   -0.8396   -5.0434 H   0  0  0  0  0  0  0  0  0  0  0  0
    0.9995    0.4654   -4.0882 H   0  0  0  0  0  0  0  0  0  0  0  0
    2.1746   -1.1314   -3.5794 N   0  0  0  0  0  4  0  0  0  0  0  0
    2.6662   -0.4523   -3.0329 H   0  0  0  0  0  0  0  0  0  0  0  0
    1.9584   -1.9246   -3.0087 H   0  0  0  0  0  0  0  0  0  0  0  0
    2.7483   -1.4199   -4.3472 H   0  0  0  0  0  0  0  0  0  0  0  0
    0.0078    2.9101    0.0055 C   0  0  0  0  0  0  0  0  0  0  0  0
    0.9400    3.2119    0.1360 H   0  0  0  0  0  0  0  0  0  0  0  0
   -0.5758    3.2179    0.7418 H   0  0  0  0  0  0  0  0  0  0  0  0
   -0.3591    3.3622   -0.9160 H   0  0  0  0  0  0  0  0  0  0  0  0
   -0.0015    1.4064   -0.0023 C   0  0  0  0  0  0  0  0  0  0  0  0
   -1.2008    0.7018    0.0008 C   0  0  0  0  0  0  0  0  0  0  0  0
   -2.0666    1.1870    0.0025 H   0  0  0  0  0  0  0  0  0  0  0  0
   -1.2072   -0.7018   -0.0000 C   0  0  0  0  0  0  0  0  0  0  0  0
   -2.0790   -1.1927   -0.0022 H   0  0  0  0  0  0  0  0  0  0  0  0
    0.0050   -1.4010    0.0041 C   0  0  0  0  0  0  0  0  0  0  0  0
   -0.0010   -2.3975    0.0094 H   0  0  0  0  0  0  0  0  0  0  0  0
    1.2072   -0.7013   -0.0000 C   0  0  0  0  0  0  0  0  0  0  0  0
    2.0885   -1.1941    0.0005 H   0  0  0  0  0  0  0  0  0  0  0  0
    1.1974    0.6959   -0.0026 C   0  0  0  0  0  0  0  0  0  0  0  0
    2.0659    1.1924   -0.0055 H   0  0  0  0  0  0  0  0  0  0  0  0
  1  5  1  0
  5  8  1  0
  1  2  1  0
  1  3  1  0
  1  4  1  0
  5  6  1  0
  5  7  1  0
  8  9  1  0
  8 10  1  0
  8 11  1  0
 12 16  1  0
 16 17  2  0
 17 19  1  0
 19 21  2  0
 21 23  1  0
 23 25  2  0
 25 16  1  0
 12 13  1  0
 12 14  1  0
 12 15  1  0
 17 18  1  0
 19 20  1  0
 21 22  1  0
 23 24  1  0
 25 26  1  0
M  CHG  1   8   1
M  END
>  <PDB_ID>  (160) 
pdb2cjp

>  <RESIDUE_NAME>  (160) 
LYS   PHE

>  <FRAG_NAME>  (160) 
ETAM   MBZ

>  <FRAG_ATOM_NUM>  (160) 
fragi: 11  fragj: 15

>  <atom.prop.CHAIN_ID>  (160) 
A A A A A A A A A A A Z Z Z Z Z Z Z Z Z Z Z Z Z Z Z

>  <atom.prop.IS_HEAVY_ATOM>  (160) 
1 0 0 0 1 0 0 1 0 0 0 1 0 0 0 1 1 0 1 0 1 0 1 0 1 0

>  <DIFUSE_FUNC_ATOM>  (160) 
n/a

>  <FINAL_SINGLE_POINT_ENERGY>  (160) 
0

>  <NONCOV_INTER_ENERGY_QM>  (160) 
0

>  <FF_Energy>  (160) 
-1.53

>  <QM_Energy>  (160) 
-8.37

>  <source>  (160) 
ETAM_MBZ

>  <Index>  (160) 
1535

$$$$
ETAM-pdb2chu-A-LYS-229:MBZ-pdb2chu-A-PHE-235
     RDKit          3D

 26 25  0  0  0  0  0  0  0  0999 V2000
   -1.3733   -2.9139   -4.3017 C   0  0  0  0  0  0  0  0  0  0  0  0
   -1.2008   -3.8953   -4.2320 H   0  0  0  0  0  0  0  0  0  0  0  0
   -0.5758   -2.4086   -3.9755 H   0  0  0  0  0  0  0  0  0  0  0  0
   -1.5162   -2.6727   -5.3550 H   0  0  0  0  0  0  0  0  0  0  0  0
   -2.5762   -2.5610   -3.4140 C   0  0  0  0  0  0  0  0  0  0  0  0
   -2.5674   -1.5798   -3.2245 H   0  0  0  0  0  0  0  0  0  0  0  0
   -3.4194   -2.8018   -3.8924 H   0  0  0  0  0  0  0  0  0  0  0  0
   -2.5501   -3.3091   -2.0800 N   0  0  0  0  0  4  0  0  0  0  0  0
   -2.4010   -4.2727   -2.2666 H   0  0  0  0  0  0  0  0  0  0  0  0
   -1.8102   -2.9395   -1.5310 H   0  0  0  0  0  0  0  0  0  0  0  0
   -3.4240   -3.1707   -1.6286 H   0  0  0  0  0  0  0  0  0  0  0  0
    0.0017    2.9418   -0.0028 C   0  0  0  0  0  0  0  0  0  0  0  0
   -0.8777    3.2449   -0.3283 H   0  0  0  0  0  0  0  0  0  0  0  0
    0.7345    3.2412   -0.5905 H   0  0  0  0  0  0  0  0  0  0  0  0
    0.1638    3.3744    0.9844 H   0  0  0  0  0  0  0  0  0  0  0  0
   -0.0025    1.4236   -0.0065 C   0  0  0  0  0  0  0  0  0  0  0  0
   -1.2034    0.7144   -0.0040 C   0  0  0  0  0  0  0  0  0  0  0  0
   -2.0700    1.1939   -0.0057 H   0  0  0  0  0  0  0  0  0  0  0  0
   -1.2093   -0.7022    0.0000 C   0  0  0  0  0  0  0  0  0  0  0  0
   -2.0867   -1.1863    0.0012 H   0  0  0  0  0  0  0  0  0  0  0  0
    0.0003   -1.4145    0.0037 C   0  0  0  0  0  0  0  0  0  0  0  0
   -0.0117   -2.4075    0.0081 H   0  0  0  0  0  0  0  0  0  0  0  0
    1.2093   -0.7160   -0.0000 C   0  0  0  0  0  0  0  0  0  0  0  0
    2.0884   -1.2075   -0.0063 H   0  0  0  0  0  0  0  0  0  0  0  0
    1.2056    0.6947    0.0068 C   0  0  0  0  0  0  0  0  0  0  0  0
    2.0723    1.1854    0.0203 H   0  0  0  0  0  0  0  0  0  0  0  0
  1  5  1  0
  5  8  1  0
  1  2  1  0
  1  3  1  0
  1  4  1  0
  5  6  1  0
  5  7  1  0
  8  9  1  0
  8 10  1  0
  8 11  1  0
 12 16  1  0
 16 17  2  0
 17 19  1  0
 19 21  2  0
 21 23  1  0
 23 25  2  0
 25 16  1  0
 12 13  1  0
 12 14  1  0
 12 15  1  0
 17 18  1  0
 19 20  1  0
 21 22  1  0
 23 24  1  0
 25 26  1  0
M  CHG  1   8   1
M  END
>  <PDB_ID>  (161) 
pdb2chu

>  <RESIDUE_NAME>  (161) 
LYS   PHE

>  <FRAG_NAME>  (161) 
ETAM   MBZ

>  <FRAG_ATOM_NUM>  (161) 
fragi: 11  fragj: 15

>  <atom.prop.CHAIN_ID>  (161) 
A A A A A A A A A A A Z Z Z Z Z Z Z Z Z Z Z Z Z Z Z

>  <atom.prop.IS_HEAVY_ATOM>  (161) 
1 0 0 0 1 0 0 1 0 0 0 1 0 0 0 1 1 0 1 0 1 0 1 0 1 0

>  <DIFUSE_FUNC_ATOM>  (161) 
n/a

>  <FINAL_SINGLE_POINT_ENERGY>  (161) 
0

>  <NONCOV_INTER_ENERGY_QM>  (161) 
0

>  <FF_Energy>  (161) 
-0.83

>  <QM_Energy>  (161) 
-6.91

>  <source>  (161) 
ETAM_MBZ

>  <Index>  (161) 
1541

$$$$
ETAM-pdb2ck1-A-LYS-83:MBZ-pdb2ck1-A-PHE-53
     RDKit          3D

 26 25  0  0  0  0  0  0  0  0999 V2000
   -1.1796   -0.5228   -4.2999 C   0  0  0  0  0  0  0  0  0  0  0  0
   -0.9077   -1.4649   -4.1300 H   0  0  0  0  0  0  0  0  0  0  0  0
   -1.0430   -0.2907   -5.2581 H   0  0  0  0  0  0  0  0  0  0  0  0
   -2.2357   -0.4103   -4.0551 H   0  0  0  0  0  0  0  0  0  0  0  0
   -0.3131    0.3923   -3.4525 C   0  0  0  0  0  0  0  0  0  0  0  0
   -0.6719    1.3261   -3.5061 H   0  0  0  0  0  0  0  0  0  0  0  0
   -0.3423    0.0828   -2.4997 H   0  0  0  0  0  0  0  0  0  0  0  0
    1.1083    0.3898   -3.9207 N   0  0  0  0  0  4  0  0  0  0  0  0
    1.6005    1.1356   -3.4757 H   0  0  0  0  0  0  0  0  0  0  0  0
    1.5301   -0.4834   -3.6828 H   0  0  0  0  0  0  0  0  0  0  0  0
    1.1268    0.5157   -4.9109 H   0  0  0  0  0  0  0  0  0  0  0  0
   -0.0074    2.9169   -0.0010 C   0  0  0  0  0  0  0  0  0  0  0  0
   -0.8515    3.2180   -0.4164 H   0  0  0  0  0  0  0  0  0  0  0  0
    0.7774    3.2220   -0.5183 H   0  0  0  0  0  0  0  0  0  0  0  0
    0.0536    3.3645    0.9910 H   0  0  0  0  0  0  0  0  0  0  0  0
   -0.0035    1.4069    0.0037 C   0  0  0  0  0  0  0  0  0  0  0  0
   -1.1970    0.6939    0.0029 C   0  0  0  0  0  0  0  0  0  0  0  0
   -2.0664    1.1814    0.0024 H   0  0  0  0  0  0  0  0  0  0  0  0
   -1.2011   -0.6996    0.0000 C   0  0  0  0  0  0  0  0  0  0  0  0
   -2.0768   -1.1933   -0.0026 H   0  0  0  0  0  0  0  0  0  0  0  0
    0.0036   -1.3962    0.0025 C   0  0  0  0  0  0  0  0  0  0  0  0
   -0.0036   -2.3960    0.0053 H   0  0  0  0  0  0  0  0  0  0  0  0
    1.2011   -0.7030    0.0000 C   0  0  0  0  0  0  0  0  0  0  0  0
    2.0847   -1.1943    0.0068 H   0  0  0  0  0  0  0  0  0  0  0  0
    1.1970    0.6979   -0.0091 C   0  0  0  0  0  0  0  0  0  0  0  0
    2.0641    1.1909   -0.0255 H   0  0  0  0  0  0  0  0  0  0  0  0
  1  5  1  0
  5  8  1  0
  1  2  1  0
  1  3  1  0
  1  4  1  0
  5  6  1  0
  5  7  1  0
  8  9  1  0
  8 10  1  0
  8 11  1  0
 12 16  1  0
 16 17  2  0
 17 19  1  0
 19 21  2  0
 21 23  1  0
 23 25  2  0
 25 16  1  0
 12 13  1  0
 12 14  1  0
 12 15  1  0
 17 18  1  0
 19 20  1  0
 21 22  1  0
 23 24  1  0
 25 26  1  0
M  CHG  1   8   1
M  END
>  <PDB_ID>  (162) 
pdb2ck1

>  <RESIDUE_NAME>  (162) 
LYS   PHE

>  <FRAG_NAME>  (162) 
ETAM   MBZ

>  <FRAG_ATOM_NUM>  (162) 
fragi: 11  fragj: 15

>  <atom.prop.CHAIN_ID>  (162) 
A A A A A A A A A A A Z Z Z Z Z Z Z Z Z Z Z Z Z Z Z

>  <atom.prop.IS_HEAVY_ATOM>  (162) 
1 0 0 0 1 0 0 1 0 0 0 1 0 0 0 1 1 0 1 0 1 0 1 0 1 0

>  <DIFUSE_FUNC_ATOM>  (162) 
n/a

>  <FINAL_SINGLE_POINT_ENERGY>  (162) 
0

>  <NONCOV_INTER_ENERGY_QM>  (162) 
0

>  <FF_Energy>  (162) 
-6.1

>  <QM_Energy>  (162) 
-11.19

>  <source>  (162) 
ETAM_MBZ

>  <Index>  (162) 
1542

$$$$
ETAM-pdb2ckg-B-LYS-608:MBZ-pdb2ckg-B-PHE-629
     RDKit          3D

 26 25  0  0  0  0  0  0  0  0999 V2000
   -0.2495    0.6830    4.3998 C   0  0  0  0  0  0  0  0  0  0  0  0
   -0.1653    0.1868    5.2723 H   0  0  0  0  0  0  0  0  0  0  0  0
   -0.4343    1.6522    4.6025 H   0  0  0  0  0  0  0  0  0  0  0  0
    0.7183    0.6319    3.9008 H   0  0  0  0  0  0  0  0  0  0  0  0
   -1.4329    0.1088    3.6174 C   0  0  0  0  0  0  0  0  0  0  0  0
   -2.2588    0.1726    4.1904 H   0  0  0  0  0  0  0  0  0  0  0  0
   -1.5780    0.6710    2.7933 H   0  0  0  0  0  0  0  0  0  0  0  0
   -1.2327   -1.3145    3.2077 N   0  0  0  0  0  4  0  0  0  0  0  0
   -1.3214   -1.3865    2.2160 H   0  0  0  0  0  0  0  0  0  0  0  0
   -0.3213   -1.6123    3.4874 H   0  0  0  0  0  0  0  0  0  0  0  0
   -1.9234   -1.8839    3.6499 H   0  0  0  0  0  0  0  0  0  0  0  0
    0.0180    2.9042    0.0220 C   0  0  0  0  0  0  0  0  0  0  0  0
    0.7871    3.2140   -0.5169 H   0  0  0  0  0  0  0  0  0  0  0  0
    0.0999    3.1920    0.9643 H   0  0  0  0  0  0  0  0  0  0  0  0
   -0.8781    3.3708   -0.3871 H   0  0  0  0  0  0  0  0  0  0  0  0
    0.0004    1.3981   -0.0084 C   0  0  0  0  0  0  0  0  0  0  0  0
   -1.1996    0.6923    0.0210 C   0  0  0  0  0  0  0  0  0  0  0  0
   -2.0624    1.1941    0.0564 H   0  0  0  0  0  0  0  0  0  0  0  0
   -1.2097   -0.6827   -0.0000 C   0  0  0  0  0  0  0  0  0  0  0  0
   -2.0824   -1.1851   -0.0066 H   0  0  0  0  0  0  0  0  0  0  0  0
    0.0005   -1.3945   -0.0101 C   0  0  0  0  0  0  0  0  0  0  0  0
   -0.0149   -2.3897   -0.0249 H   0  0  0  0  0  0  0  0  0  0  0  0
    1.2097   -0.7035    0.0000 C   0  0  0  0  0  0  0  0  0  0  0  0
    2.0849   -1.2001    0.0104 H   0  0  0  0  0  0  0  0  0  0  0  0
    1.1987    0.6902   -0.0025 C   0  0  0  0  0  0  0  0  0  0  0  0
    2.0663    1.1888   -0.0003 H   0  0  0  0  0  0  0  0  0  0  0  0
  1  5  1  0
  5  8  1  0
  1  2  1  0
  1  3  1  0
  1  4  1  0
  5  6  1  0
  5  7  1  0
  8  9  1  0
  8 10  1  0
  8 11  1  0
 12 16  1  0
 16 17  2  0
 17 19  1  0
 19 21  2  0
 21 23  1  0
 23 25  2  0
 25 16  1  0
 12 13  1  0
 12 14  1  0
 12 15  1  0
 17 18  1  0
 19 20  1  0
 21 22  1  0
 23 24  1  0
 25 26  1  0
M  CHG  1   8   1
M  END
>  <PDB_ID>  (163) 
pdb2ckg

>  <RESIDUE_NAME>  (163) 
LYS   PHE

>  <FRAG_NAME>  (163) 
ETAM   MBZ

>  <FRAG_ATOM_NUM>  (163) 
fragi: 11  fragj: 15

>  <atom.prop.CHAIN_ID>  (163) 
A A A A A A A A A A A Z Z Z Z Z Z Z Z Z Z Z Z Z Z Z

>  <atom.prop.IS_HEAVY_ATOM>  (163) 
1 0 0 0 1 0 0 1 0 0 0 1 0 0 0 1 1 0 1 0 1 0 1 0 1 0

>  <DIFUSE_FUNC_ATOM>  (163) 
n/a

>  <FINAL_SINGLE_POINT_ENERGY>  (163) 
0

>  <NONCOV_INTER_ENERGY_QM>  (163) 
0

>  <FF_Energy>  (163) 
-6.41

>  <QM_Energy>  (163) 
-14.09

>  <source>  (163) 
ETAM_MBZ

>  <Index>  (163) 
1556

$$$$
ETAM-pdb1bw9-B-LYS-562:MBZ-pdb1bw9-B-PHE-558
     RDKit          3D

 26 25  0  0  0  0  0  0  0  0999 V2000
    0.5774   -1.6019    3.5406 C   0  0  0  0  0  0  0  0  0  0  0  0
    0.5865   -2.5041    3.9751 H   0  0  0  0  0  0  0  0  0  0  0  0
    0.3282   -1.7016    2.5760 H   0  0  0  0  0  0  0  0  0  0  0  0
   -0.1723   -0.9837    4.0344 H   0  0  0  0  0  0  0  0  0  0  0  0
    1.9498   -1.0064    3.6284 C   0  0  0  0  0  0  0  0  0  0  0  0
    1.9557   -0.1176    3.1549 H   0  0  0  0  0  0  0  0  0  0  0  0
    2.1826   -0.8505    4.5962 H   0  0  0  0  0  0  0  0  0  0  0  0
    2.9648   -1.8854    3.0224 N   0  0  0  0  0  4  0  0  0  0  0  0
    2.9731   -1.7585    2.0279 H   0  0  0  0  0  0  0  0  0  0  0  0
    3.8702   -1.6618    3.3895 H   0  0  0  0  0  0  0  0  0  0  0  0
    2.7522   -2.8425    3.2306 H   0  0  0  0  0  0  0  0  0  0  0  0
   -0.0445    2.9245   -0.0025 C   0  0  0  0  0  0  0  0  0  0  0  0
   -0.5770    3.1989   -0.7869 H   0  0  0  0  0  0  0  0  0  0  0  0
    0.8873    3.2433   -0.0648 H   0  0  0  0  0  0  0  0  0  0  0  0
   -0.4907    3.3928    0.8750 H   0  0  0  0  0  0  0  0  0  0  0  0
   -0.0212    1.4081    0.0427 C   0  0  0  0  0  0  0  0  0  0  0  0
   -1.1939    0.6590   -0.0135 C   0  0  0  0  0  0  0  0  0  0  0  0
   -2.0794    1.1417   -0.0675 H   0  0  0  0  0  0  0  0  0  0  0  0
   -1.2052   -0.7370    0.0000 C   0  0  0  0  0  0  0  0  0  0  0  0
   -2.0647   -1.2323    0.0215 H   0  0  0  0  0  0  0  0  0  0  0  0
    0.0173   -1.4038   -0.0153 C   0  0  0  0  0  0  0  0  0  0  0  0
    0.0455   -2.3963   -0.0377 H   0  0  0  0  0  0  0  0  0  0  0  0
    1.2052   -0.6634   -0.0000 C   0  0  0  0  0  0  0  0  0  0  0  0
    2.1014   -1.1512    0.0230 H   0  0  0  0  0  0  0  0  0  0  0  0
    1.1979    0.7371   -0.0140 C   0  0  0  0  0  0  0  0  0  0  0  0
    2.0460    1.2379   -0.0645 H   0  0  0  0  0  0  0  0  0  0  0  0
  1  5  1  0
  5  8  1  0
  1  2  1  0
  1  3  1  0
  1  4  1  0
  5  6  1  0
  5  7  1  0
  8  9  1  0
  8 10  1  0
  8 11  1  0
 12 16  1  0
 16 17  2  0
 17 19  1  0
 19 21  2  0
 21 23  1  0
 23 25  2  0
 25 16  1  0
 12 13  1  0
 12 14  1  0
 12 15  1  0
 17 18  1  0
 19 20  1  0
 21 22  1  0
 23 24  1  0
 25 26  1  0
M  CHG  1   8   1
M  END
>  <PDB_ID>  (164) 
pdb1bw9

>  <RESIDUE_NAME>  (164) 
LYS   PHE

>  <FRAG_NAME>  (164) 
ETAM   MBZ

>  <FRAG_ATOM_NUM>  (164) 
fragi: 11  fragj: 15

>  <atom.prop.CHAIN_ID>  (164) 
A A A A A A A A A A A Z Z Z Z Z Z Z Z Z Z Z Z Z Z Z

>  <atom.prop.IS_HEAVY_ATOM>  (164) 
1 0 0 0 1 0 0 1 0 0 0 1 0 0 0 1 1 0 1 0 1 0 1 0 1 0

>  <DIFUSE_FUNC_ATOM>  (164) 
n/a

>  <FINAL_SINGLE_POINT_ENERGY>  (164) 
0

>  <NONCOV_INTER_ENERGY_QM>  (164) 
0

>  <FF_Energy>  (164) 
-2.57

>  <QM_Energy>  (164) 
-8.27

>  <source>  (164) 
ETAM_MBZ

>  <Index>  (164) 
1608

$$$$
ETAM-pdb1c0e-B-LYS-302:MBZ-pdb1c0e-B-PHE-282
     RDKit          3D

 26 25  0  0  0  0  0  0  0  0999 V2000
   -3.0900   -3.2870   -0.2539 C   0  0  0  0  0  0  0  0  0  0  0  0
   -2.3198   -2.8907    0.2300 H   0  0  0  0  0  0  0  0  0  0  0  0
   -3.9488   -2.9691    0.1281 H   0  0  0  0  0  0  0  0  0  0  0  0
   -3.0379   -2.9913   -1.3017 H   0  0  0  0  0  0  0  0  0  0  0  0
   -3.0260   -4.8107   -0.1014 C   0  0  0  0  0  0  0  0  0  0  0  0
   -3.7306   -5.2256   -0.6899 H   0  0  0  0  0  0  0  0  0  0  0  0
   -2.1242   -5.1304   -0.4172 H   0  0  0  0  0  0  0  0  0  0  0  0
   -3.2378   -5.2842    1.3140 N   0  0  0  0  0  4  0  0  0  0  0  0
   -2.3593   -5.5601    1.6962 H   0  0  0  0  0  0  0  0  0  0  0  0
   -3.6240   -4.5376    1.8488 H   0  0  0  0  0  0  0  0  0  0  0  0
   -3.8655   -6.0583    1.3038 H   0  0  0  0  0  0  0  0  0  0  0  0
    0.0041    2.9065   -0.0258 C   0  0  0  0  0  0  0  0  0  0  0  0
   -0.8867    3.2090   -0.3321 H   0  0  0  0  0  0  0  0  0  0  0  0
    0.7157    3.1997   -0.6479 H   0  0  0  0  0  0  0  0  0  0  0  0
    0.1978    3.3651    0.9439 H   0  0  0  0  0  0  0  0  0  0  0  0
    0.0008    1.4032   -0.0004 C   0  0  0  0  0  0  0  0  0  0  0  0
   -1.2001    0.6973    0.0022 C   0  0  0  0  0  0  0  0  0  0  0  0
   -2.0638    1.1890    0.0043 H   0  0  0  0  0  0  0  0  0  0  0  0
   -1.2064   -0.6937   -0.0000 C   0  0  0  0  0  0  0  0  0  0  0  0
   -2.0823   -1.1872    0.0023 H   0  0  0  0  0  0  0  0  0  0  0  0
   -0.0015   -1.3967   -0.0033 C   0  0  0  0  0  0  0  0  0  0  0  0
   -0.0091   -2.3933   -0.0091 H   0  0  0  0  0  0  0  0  0  0  0  0
    1.2064   -0.7016   -0.0000 C   0  0  0  0  0  0  0  0  0  0  0  0
    2.0834   -1.1999    0.0025 H   0  0  0  0  0  0  0  0  0  0  0  0
    1.2008    0.6915    0.0016 C   0  0  0  0  0  0  0  0  0  0  0  0
    2.0674    1.1883    0.0037 H   0  0  0  0  0  0  0  0  0  0  0  0
  1  5  1  0
  5  8  1  0
  1  2  1  0
  1  3  1  0
  1  4  1  0
  5  6  1  0
  5  7  1  0
  8  9  1  0
  8 10  1  0
  8 11  1  0
 12 16  1  0
 16 17  2  0
 17 19  1  0
 19 21  2  0
 21 23  1  0
 23 25  2  0
 25 16  1  0
 12 13  1  0
 12 14  1  0
 12 15  1  0
 17 18  1  0
 19 20  1  0
 21 22  1  0
 23 24  1  0
 25 26  1  0
M  CHG  1   8   1
M  END
>  <PDB_ID>  (165) 
pdb1c0e

>  <RESIDUE_NAME>  (165) 
LYS   PHE

>  <FRAG_NAME>  (165) 
ETAM   MBZ

>  <FRAG_ATOM_NUM>  (165) 
fragi: 11  fragj: 15

>  <atom.prop.CHAIN_ID>  (165) 
A A A A A A A A A A A Z Z Z Z Z Z Z Z Z Z Z Z Z Z Z

>  <atom.prop.IS_HEAVY_ATOM>  (165) 
1 0 0 0 1 0 0 1 0 0 0 1 0 0 0 1 1 0 1 0 1 0 1 0 1 0

>  <DIFUSE_FUNC_ATOM>  (165) 
n/a

>  <FINAL_SINGLE_POINT_ENERGY>  (165) 
0

>  <NONCOV_INTER_ENERGY_QM>  (165) 
0

>  <FF_Energy>  (165) 
9.53

>  <QM_Energy>  (165) 
0.79

>  <source>  (165) 
ETAM_MBZ

>  <Index>  (165) 
1610

$$$$
ETAM-pdb2cnd-A-LYS-20:MBZ-pdb2cnd-A-PHE-30
     RDKit          3D

 26 25  0  0  0  0  0  0  0  0999 V2000
   -4.4497   -1.1439   -1.2072 C   0  0  0  0  0  0  0  0  0  0  0  0
   -5.3702   -1.4098   -1.4497 H   0  0  0  0  0  0  0  0  0  0  0  0
   -3.8098   -1.8827   -1.3539 H   0  0  0  0  0  0  0  0  0  0  0  0
   -4.1536   -0.2870   -1.8124 H   0  0  0  0  0  0  0  0  0  0  0  0
   -4.4320   -0.7821    0.2896 C   0  0  0  0  0  0  0  0  0  0  0  0
   -3.5613   -0.3011    0.4866 H   0  0  0  0  0  0  0  0  0  0  0  0
   -5.1845   -0.1240    0.4636 H   0  0  0  0  0  0  0  0  0  0  0  0
   -4.5716   -1.9392    1.2102 N   0  0  0  0  0  4  0  0  0  0  0  0
   -5.1152   -1.6688    2.0045 H   0  0  0  0  0  0  0  0  0  0  0  0
   -5.0274   -2.6911    0.7337 H   0  0  0  0  0  0  0  0  0  0  0  0
   -3.6652   -2.2358    1.5117 H   0  0  0  0  0  0  0  0  0  0  0  0
    0.0019    2.8992    0.0115 C   0  0  0  0  0  0  0  0  0  0  0  0
    0.9150    3.2047    0.2580 H   0  0  0  0  0  0  0  0  0  0  0  0
   -0.6604    3.2047    0.6869 H   0  0  0  0  0  0  0  0  0  0  0  0
   -0.2559    3.3708   -0.9367 H   0  0  0  0  0  0  0  0  0  0  0  0
   -0.0018    1.4007   -0.0009 C   0  0  0  0  0  0  0  0  0  0  0  0
   -1.1976    0.6974    0.0015 C   0  0  0  0  0  0  0  0  0  0  0  0
   -2.0630    1.1908    0.0031 H   0  0  0  0  0  0  0  0  0  0  0  0
   -1.2010   -0.6843    0.0000 C   0  0  0  0  0  0  0  0  0  0  0  0
   -2.0814   -1.1822    0.0023 H   0  0  0  0  0  0  0  0  0  0  0  0
   -0.0024   -1.3945   -0.0027 C   0  0  0  0  0  0  0  0  0  0  0  0
   -0.0184   -2.3920   -0.0067 H   0  0  0  0  0  0  0  0  0  0  0  0
    1.2010   -0.7091    0.0000 C   0  0  0  0  0  0  0  0  0  0  0  0
    2.0802   -1.2059    0.0018 H   0  0  0  0  0  0  0  0  0  0  0  0
    1.2018    0.6898    0.0021 C   0  0  0  0  0  0  0  0  0  0  0  0
    2.0675    1.1825    0.0048 H   0  0  0  0  0  0  0  0  0  0  0  0
  1  5  1  0
  5  8  1  0
  1  2  1  0
  1  3  1  0
  1  4  1  0
  5  6  1  0
  5  7  1  0
  8  9  1  0
  8 10  1  0
  8 11  1  0
 12 16  1  0
 16 17  2  0
 17 19  1  0
 19 21  2  0
 21 23  1  0
 23 25  2  0
 25 16  1  0
 12 13  1  0
 12 14  1  0
 12 15  1  0
 17 18  1  0
 19 20  1  0
 21 22  1  0
 23 24  1  0
 25 26  1  0
M  CHG  1   8   1
M  END
>  <PDB_ID>  (166) 
pdb2cnd

>  <RESIDUE_NAME>  (166) 
LYS   PHE

>  <FRAG_NAME>  (166) 
ETAM   MBZ

>  <FRAG_ATOM_NUM>  (166) 
fragi: 11  fragj: 15

>  <atom.prop.CHAIN_ID>  (166) 
A A A A A A A A A A A Z Z Z Z Z Z Z Z Z Z Z Z Z Z Z

>  <atom.prop.IS_HEAVY_ATOM>  (166) 
1 0 0 0 1 0 0 1 0 0 0 1 0 0 0 1 1 0 1 0 1 0 1 0 1 0

>  <DIFUSE_FUNC_ATOM>  (166) 
n/a

>  <FINAL_SINGLE_POINT_ENERGY>  (166) 
0

>  <NONCOV_INTER_ENERGY_QM>  (166) 
0

>  <FF_Energy>  (166) 
8.77

>  <QM_Energy>  (166) 
-1.77

>  <source>  (166) 
ETAM_MBZ

>  <Index>  (166) 
1620

$$$$
ETAM-pdb1c25-A-LYS-470:MBZ-pdb1c25-A-PHE-432
     RDKit          3D

 26 25  0  0  0  0  0  0  0  0999 V2000
   -4.4739   -0.9544    0.4647 C   0  0  0  0  0  0  0  0  0  0  0  0
   -3.5811   -1.2312    0.1131 H   0  0  0  0  0  0  0  0  0  0  0  0
   -4.3823   -0.1054    0.9827 H   0  0  0  0  0  0  0  0  0  0  0  0
   -5.1422   -0.7795   -0.3784 H   0  0  0  0  0  0  0  0  0  0  0  0
   -4.9791   -2.0453    1.4117 C   0  0  0  0  0  0  0  0  0  0  0  0
   -5.8893   -1.7714    1.7508 H   0  0  0  0  0  0  0  0  0  0  0  0
   -5.0894   -2.8978    0.8813 H   0  0  0  0  0  0  0  0  0  0  0  0
   -4.0778   -2.2826    2.5478 N   0  0  0  0  0  4  0  0  0  0  0  0
   -3.2071   -2.6575    2.2203 H   0  0  0  0  0  0  0  0  0  0  0  0
   -3.9027   -1.4212    3.0300 H   0  0  0  0  0  0  0  0  0  0  0  0
   -4.4961   -2.9350    3.1840 H   0  0  0  0  0  0  0  0  0  0  0  0
   -0.0059    2.9024   -0.0443 C   0  0  0  0  0  0  0  0  0  0  0  0
    0.9050    3.2210    0.1619 H   0  0  0  0  0  0  0  0  0  0  0  0
   -0.6630    3.2286    0.6159 H   0  0  0  0  0  0  0  0  0  0  0  0
   -0.2860    3.3048   -1.0177 H   0  0  0  0  0  0  0  0  0  0  0  0
   -0.0003    1.4063   -0.0008 C   0  0  0  0  0  0  0  0  0  0  0  0
   -1.1984    0.6934    0.0009 C   0  0  0  0  0  0  0  0  0  0  0  0
   -2.0656    1.1805    0.0015 H   0  0  0  0  0  0  0  0  0  0  0  0
   -1.2040   -0.7052   -0.0000 C   0  0  0  0  0  0  0  0  0  0  0  0
   -2.0804   -1.1948    0.0015 H   0  0  0  0  0  0  0  0  0  0  0  0
   -0.0022   -1.3986   -0.0017 C   0  0  0  0  0  0  0  0  0  0  0  0
   -0.0006   -2.3968   -0.0050 H   0  0  0  0  0  0  0  0  0  0  0  0
    1.2040   -0.6976    0.0000 C   0  0  0  0  0  0  0  0  0  0  0  0
    2.0835   -1.1940    0.0013 H   0  0  0  0  0  0  0  0  0  0  0  0
    1.2010    0.7016    0.0017 C   0  0  0  0  0  0  0  0  0  0  0  0
    2.0666    1.1949    0.0042 H   0  0  0  0  0  0  0  0  0  0  0  0
  1  5  1  0
  5  8  1  0
  1  2  1  0
  1  3  1  0
  1  4  1  0
  5  6  1  0
  5  7  1  0
  8  9  1  0
  8 10  1  0
  8 11  1  0
 12 16  1  0
 16 17  2  0
 17 19  1  0
 19 21  2  0
 21 23  1  0
 23 25  2  0
 25 16  1  0
 12 13  1  0
 12 14  1  0
 12 15  1  0
 17 18  1  0
 19 20  1  0
 21 22  1  0
 23 24  1  0
 25 26  1  0
M  CHG  1   8   1
M  END
>  <PDB_ID>  (167) 
pdb1c25

>  <RESIDUE_NAME>  (167) 
LYS   PHE

>  <FRAG_NAME>  (167) 
ETAM   MBZ

>  <FRAG_ATOM_NUM>  (167) 
fragi: 11  fragj: 15

>  <atom.prop.CHAIN_ID>  (167) 
A A A A A A A A A A A Z Z Z Z Z Z Z Z Z Z Z Z Z Z Z

>  <atom.prop.IS_HEAVY_ATOM>  (167) 
1 0 0 0 1 0 0 1 0 0 0 1 0 0 0 1 1 0 1 0 1 0 1 0 1 0

>  <DIFUSE_FUNC_ATOM>  (167) 
n/a

>  <FINAL_SINGLE_POINT_ENERGY>  (167) 
0

>  <NONCOV_INTER_ENERGY_QM>  (167) 
0

>  <FF_Energy>  (167) 
30.37

>  <QM_Energy>  (167) 
1.18

>  <source>  (167) 
ETAM_MBZ

>  <Index>  (167) 
1637

$$$$
ETAM-pdb1c28-B-LYS-183:MBZ-pdb1c28-B-PHE-179
     RDKit          3D

 26 25  0  0  0  0  0  0  0  0999 V2000
   -0.9682   -1.0514    3.4235 C   0  0  0  0  0  0  0  0  0  0  0  0
   -1.7843   -0.5710    3.7081 H   0  0  0  0  0  0  0  0  0  0  0  0
   -0.5987   -0.6726    2.5884 H   0  0  0  0  0  0  0  0  0  0  0  0
   -0.2190   -0.9936    4.2131 H   0  0  0  0  0  0  0  0  0  0  0  0
   -1.3083   -2.4920    3.1938 C   0  0  0  0  0  0  0  0  0  0  0  0
   -1.3214   -2.9899    4.0920 H   0  0  0  0  0  0  0  0  0  0  0  0
   -2.2660   -2.5653    2.8303 H   0  0  0  0  0  0  0  0  0  0  0  0
   -0.4063   -3.2905    2.2501 N   0  0  0  0  0  4  0  0  0  0  0  0
    0.5367   -3.0399    2.4356 H   0  0  0  0  0  0  0  0  0  0  0  0
   -0.5525   -4.2573    2.4243 H   0  0  0  0  0  0  0  0  0  0  0  0
   -0.6533   -3.0612    1.3167 H   0  0  0  0  0  0  0  0  0  0  0  0
    0.0032    2.8811    0.0069 C   0  0  0  0  0  0  0  0  0  0  0  0
   -0.3991    3.1922   -0.8423 H   0  0  0  0  0  0  0  0  0  0  0  0
    0.9425    3.1845    0.0891 H   0  0  0  0  0  0  0  0  0  0  0  0
   -0.5643    3.3200    0.8274 H   0  0  0  0  0  0  0  0  0  0  0  0
   -0.0004    1.3827    0.0002 C   0  0  0  0  0  0  0  0  0  0  0  0
   -1.1990    0.6766   -0.0009 C   0  0  0  0  0  0  0  0  0  0  0  0
   -2.0618    1.1806   -0.0040 H   0  0  0  0  0  0  0  0  0  0  0  0
   -1.2033   -0.6879    0.0000 C   0  0  0  0  0  0  0  0  0  0  0  0
   -2.0733   -1.1953    0.0013 H   0  0  0  0  0  0  0  0  0  0  0  0
    0.0003   -1.3694    0.0002 C   0  0  0  0  0  0  0  0  0  0  0  0
    0.0005   -2.3757    0.0003 H   0  0  0  0  0  0  0  0  0  0  0  0
    1.2033   -0.6801    0.0000 C   0  0  0  0  0  0  0  0  0  0  0  0
    2.0790   -1.1952    0.0009 H   0  0  0  0  0  0  0  0  0  0  0  0
    1.1990    0.6781    0.0005 C   0  0  0  0  0  0  0  0  0  0  0  0
    2.0619    1.1915    0.0007 H   0  0  0  0  0  0  0  0  0  0  0  0
  1  5  1  0
  5  8  1  0
  1  2  1  0
  1  3  1  0
  1  4  1  0
  5  6  1  0
  5  7  1  0
  8  9  1  0
  8 10  1  0
  8 11  1  0
 12 16  1  0
 16 17  2  0
 17 19  1  0
 19 21  2  0
 21 23  1  0
 23 25  2  0
 25 16  1  0
 12 13  1  0
 12 14  1  0
 12 15  1  0
 17 18  1  0
 19 20  1  0
 21 22  1  0
 23 24  1  0
 25 26  1  0
M  CHG  1   8   1
M  END
>  <PDB_ID>  (168) 
pdb1c28

>  <RESIDUE_NAME>  (168) 
LYS   PHE

>  <FRAG_NAME>  (168) 
ETAM   MBZ

>  <FRAG_ATOM_NUM>  (168) 
fragi: 11  fragj: 15

>  <atom.prop.CHAIN_ID>  (168) 
A A A A A A A A A A A Z Z Z Z Z Z Z Z Z Z Z Z Z Z Z

>  <atom.prop.IS_HEAVY_ATOM>  (168) 
1 0 0 0 1 0 0 1 0 0 0 1 0 0 0 1 1 0 1 0 1 0 1 0 1 0

>  <DIFUSE_FUNC_ATOM>  (168) 
n/a

>  <FINAL_SINGLE_POINT_ENERGY>  (168) 
0

>  <NONCOV_INTER_ENERGY_QM>  (168) 
0

>  <FF_Energy>  (168) 
0.86

>  <QM_Energy>  (168) 
-7.02

>  <source>  (168) 
ETAM_MBZ

>  <Index>  (168) 
1640

$$$$
ETAM-pdb2csb-A-LYS-448:MBZ-pdb2csb-A-PHE-431
     RDKit          3D

 26 25  0  0  0  0  0  0  0  0999 V2000
    4.1938   -2.8169   -2.8323 C   0  0  0  0  0  0  0  0  0  0  0  0
    4.8576   -3.4853   -3.1230 H   0  0  0  0  0  0  0  0  0  0  0  0
    3.8343   -2.3001   -3.5905 H   0  0  0  0  0  0  0  0  0  0  0  0
    3.3670   -3.3448   -2.3571 H   0  0  0  0  0  0  0  0  0  0  0  0
    4.8394   -1.8675   -1.8392 C   0  0  0  0  0  0  0  0  0  0  0  0
    5.1004   -2.3803   -1.0213 H   0  0  0  0  0  0  0  0  0  0  0  0
    5.6567   -1.4681   -2.2548 H   0  0  0  0  0  0  0  0  0  0  0  0
    3.9017   -0.7822   -1.4592 N   0  0  0  0  0  4  0  0  0  0  0  0
    3.4489   -0.4300   -2.2793 H   0  0  0  0  0  0  0  0  0  0  0  0
    3.2145   -1.1414   -0.8276 H   0  0  0  0  0  0  0  0  0  0  0  0
    4.4089   -0.0427   -1.0151 H   0  0  0  0  0  0  0  0  0  0  0  0
    0.0054    2.9264    0.0473 C   0  0  0  0  0  0  0  0  0  0  0  0
   -0.9244    3.2439   -0.0149 H   0  0  0  0  0  0  0  0  0  0  0  0
    0.5592    3.2603   -0.6961 H   0  0  0  0  0  0  0  0  0  0  0  0
    0.4253    3.3232    0.9717 H   0  0  0  0  0  0  0  0  0  0  0  0
   -0.0022    1.4252   -0.0055 C   0  0  0  0  0  0  0  0  0  0  0  0
   -1.2133    0.7089    0.0147 C   0  0  0  0  0  0  0  0  0  0  0  0
   -2.0733    1.1968    0.0382 H   0  0  0  0  0  0  0  0  0  0  0  0
   -1.2099   -0.6913   -0.0000 C   0  0  0  0  0  0  0  0  0  0  0  0
   -2.0818   -1.1911   -0.0094 H   0  0  0  0  0  0  0  0  0  0  0  0
    0.0102   -1.4107    0.0005 C   0  0  0  0  0  0  0  0  0  0  0  0
   -0.0198   -2.4068    0.0005 H   0  0  0  0  0  0  0  0  0  0  0  0
    1.2099   -0.7304    0.0000 C   0  0  0  0  0  0  0  0  0  0  0  0
    2.0919   -1.2089    0.0077 H   0  0  0  0  0  0  0  0  0  0  0  0
    1.2052    0.6984   -0.0096 C   0  0  0  0  0  0  0  0  0  0  0  0
    2.0741    1.1807   -0.0206 H   0  0  0  0  0  0  0  0  0  0  0  0
  1  5  1  0
  5  8  1  0
  1  2  1  0
  1  3  1  0
  1  4  1  0
  5  6  1  0
  5  7  1  0
  8  9  1  0
  8 10  1  0
  8 11  1  0
 12 16  1  0
 16 17  2  0
 17 19  1  0
 19 21  2  0
 21 23  1  0
 23 25  2  0
 25 16  1  0
 12 13  1  0
 12 14  1  0
 12 15  1  0
 17 18  1  0
 19 20  1  0
 21 22  1  0
 23 24  1  0
 25 26  1  0
M  CHG  1   8   1
M  END
>  <PDB_ID>  (169) 
pdb2csb

>  <RESIDUE_NAME>  (169) 
LYS   PHE

>  <FRAG_NAME>  (169) 
ETAM   MBZ

>  <FRAG_ATOM_NUM>  (169) 
fragi: 11  fragj: 15

>  <atom.prop.CHAIN_ID>  (169) 
A A A A A A A A A A A Z Z Z Z Z Z Z Z Z Z Z Z Z Z Z

>  <atom.prop.IS_HEAVY_ATOM>  (169) 
1 0 0 0 1 0 0 1 0 0 0 1 0 0 0 1 1 0 1 0 1 0 1 0 1 0

>  <DIFUSE_FUNC_ATOM>  (169) 
n/a

>  <FINAL_SINGLE_POINT_ENERGY>  (169) 
0

>  <NONCOV_INTER_ENERGY_QM>  (169) 
0

>  <FF_Energy>  (169) 
4.11

>  <QM_Energy>  (169) 
-1.74

>  <source>  (169) 
ETAM_MBZ

>  <Index>  (169) 
1643

$$$$
ETAM-pdb1c3p-A-LYS-237:MBZ-pdb1c3p-A-PHE-233
     RDKit          3D

 26 25  0  0  0  0  0  0  0  0999 V2000
    0.5623   -2.7498    3.6724 C   0  0  0  0  0  0  0  0  0  0  0  0
    1.0497   -2.3689    2.9015 H   0  0  0  0  0  0  0  0  0  0  0  0
    0.6366   -3.7350    3.6949 H   0  0  0  0  0  0  0  0  0  0  0  0
    0.9740   -2.3383    4.5940 H   0  0  0  0  0  0  0  0  0  0  0  0
   -0.9103   -2.3768    3.5489 C   0  0  0  0  0  0  0  0  0  0  0  0
   -1.4058   -2.7569    4.3365 H   0  0  0  0  0  0  0  0  0  0  0  0
   -0.9929   -1.3752    3.5711 H   0  0  0  0  0  0  0  0  0  0  0  0
   -1.5135   -2.8898    2.2944 N   0  0  0  0  0  4  0  0  0  0  0  0
   -1.1750   -2.3568    1.5189 H   0  0  0  0  0  0  0  0  0  0  0  0
   -1.2641   -3.8512    2.1729 H   0  0  0  0  0  0  0  0  0  0  0  0
   -2.5095   -2.8086    2.3447 H   0  0  0  0  0  0  0  0  0  0  0  0
    0.0038    2.9150   -0.0578 C   0  0  0  0  0  0  0  0  0  0  0  0
   -0.7732    3.2015   -0.5974 H   0  0  0  0  0  0  0  0  0  0  0  0
    0.8549    3.2017   -0.4716 H   0  0  0  0  0  0  0  0  0  0  0  0
   -0.0711    3.3960    0.9174 H   0  0  0  0  0  0  0  0  0  0  0  0
   -0.0008    1.4067   -0.0015 C   0  0  0  0  0  0  0  0  0  0  0  0
   -1.1996    0.6980    0.0050 C   0  0  0  0  0  0  0  0  0  0  0  0
   -2.0663    1.1879    0.0123 H   0  0  0  0  0  0  0  0  0  0  0  0
   -1.2081   -0.6993   -0.0000 C   0  0  0  0  0  0  0  0  0  0  0  0
   -2.0794   -1.1924    0.0006 H   0  0  0  0  0  0  0  0  0  0  0  0
    0.0055   -1.4034   -0.0045 C   0  0  0  0  0  0  0  0  0  0  0  0
   -0.0021   -2.3978   -0.0109 H   0  0  0  0  0  0  0  0  0  0  0  0
    1.2081   -0.7024   -0.0000 C   0  0  0  0  0  0  0  0  0  0  0  0
    2.0899   -1.1909    0.0043 H   0  0  0  0  0  0  0  0  0  0  0  0
    1.1949    0.7004    0.0010 C   0  0  0  0  0  0  0  0  0  0  0  0
    2.0653    1.1944    0.0023 H   0  0  0  0  0  0  0  0  0  0  0  0
  1  5  1  0
  5  8  1  0
  1  2  1  0
  1  3  1  0
  1  4  1  0
  5  6  1  0
  5  7  1  0
  8  9  1  0
  8 10  1  0
  8 11  1  0
 12 16  1  0
 16 17  2  0
 17 19  1  0
 19 21  2  0
 21 23  1  0
 23 25  2  0
 25 16  1  0
 12 13  1  0
 12 14  1  0
 12 15  1  0
 17 18  1  0
 19 20  1  0
 21 22  1  0
 23 24  1  0
 25 26  1  0
M  CHG  1   8   1
M  END
>  <PDB_ID>  (170) 
pdb1c3p

>  <RESIDUE_NAME>  (170) 
LYS   PHE

>  <FRAG_NAME>  (170) 
ETAM   MBZ

>  <FRAG_ATOM_NUM>  (170) 
fragi: 11  fragj: 15

>  <atom.prop.CHAIN_ID>  (170) 
A A A A A A A A A A A Z Z Z Z Z Z Z Z Z Z Z Z Z Z Z

>  <atom.prop.IS_HEAVY_ATOM>  (170) 
1 0 0 0 1 0 0 1 0 0 0 1 0 0 0 1 1 0 1 0 1 0 1 0 1 0

>  <DIFUSE_FUNC_ATOM>  (170) 
n/a

>  <FINAL_SINGLE_POINT_ENERGY>  (170) 
0

>  <NONCOV_INTER_ENERGY_QM>  (170) 
0

>  <FF_Energy>  (170) 
-1.92

>  <QM_Energy>  (170) 
-10.38

>  <source>  (170) 
ETAM_MBZ

>  <Index>  (170) 
1670

$$$$
ETAM-pdb1c0f-S-LYS-119:MBZ-pdb1c0f-S-PHE-41
     RDKit          3D

 26 25  0  0  0  0  0  0  0  0999 V2000
    1.3473   -0.8315    3.8141 C   0  0  0  0  0  0  0  0  0  0  0  0
    1.5704   -1.6951    3.3821 H   0  0  0  0  0  0  0  0  0  0  0  0
    1.4101   -0.9006    4.7999 H   0  0  0  0  0  0  0  0  0  0  0  0
    2.0359   -0.0637    3.4614 H   0  0  0  0  0  0  0  0  0  0  0  0
   -0.0955   -0.4712    3.4491 C   0  0  0  0  0  0  0  0  0  0  0  0
   -0.4192    0.2272    4.0774 H   0  0  0  0  0  0  0  0  0  0  0  0
   -0.1142   -0.1325    2.5146 H   0  0  0  0  0  0  0  0  0  0  0  0
   -0.9584   -1.6789    3.5585 N   0  0  0  0  0  4  0  0  0  0  0  0
   -1.2984   -1.7601    4.4949 H   0  0  0  0  0  0  0  0  0  0  0  0
   -1.7290   -1.5932    2.9284 H   0  0  0  0  0  0  0  0  0  0  0  0
   -0.4241   -2.4906    3.3259 H   0  0  0  0  0  0  0  0  0  0  0  0
    0.0497    2.9135    0.0113 C   0  0  0  0  0  0  0  0  0  0  0  0
   -0.8817    3.2437    0.0136 H   0  0  0  0  0  0  0  0  0  0  0  0
    0.5343    3.2093   -0.7986 H   0  0  0  0  0  0  0  0  0  0  0  0
    0.5557    3.3444    0.8751 H   0  0  0  0  0  0  0  0  0  0  0  0
    0.0112    1.4069    0.0083 C   0  0  0  0  0  0  0  0  0  0  0  0
   -1.1865    0.7165   -0.0003 C   0  0  0  0  0  0  0  0  0  0  0  0
   -2.0495    1.2090   -0.0080 H   0  0  0  0  0  0  0  0  0  0  0  0
   -1.1967   -0.6751   -0.0000 C   0  0  0  0  0  0  0  0  0  0  0  0
   -2.0861   -1.1602    0.0085 H   0  0  0  0  0  0  0  0  0  0  0  0
   -0.0123   -1.3940   -0.0096 C   0  0  0  0  0  0  0  0  0  0  0  0
   -0.0360   -2.3923   -0.0244 H   0  0  0  0  0  0  0  0  0  0  0  0
    1.1967   -0.7210   -0.0000 C   0  0  0  0  0  0  0  0  0  0  0  0
    2.0686   -1.2212    0.0071 H   0  0  0  0  0  0  0  0  0  0  0  0
    1.1876    0.6667    0.0015 C   0  0  0  0  0  0  0  0  0  0  0  0
    2.0727    1.1595   -0.0030 H   0  0  0  0  0  0  0  0  0  0  0  0
  1  5  1  0
  5  8  1  0
  1  2  1  0
  1  3  1  0
  1  4  1  0
  5  6  1  0
  5  7  1  0
  8  9  1  0
  8 10  1  0
  8 11  1  0
 12 16  1  0
 16 17  2  0
 17 19  1  0
 19 21  2  0
 21 23  1  0
 23 25  2  0
 25 16  1  0
 12 13  1  0
 12 14  1  0
 12 15  1  0
 17 18  1  0
 19 20  1  0
 21 22  1  0
 23 24  1  0
 25 26  1  0
M  CHG  1   8   1
M  END
>  <PDB_ID>  (171) 
pdb1c0f

>  <RESIDUE_NAME>  (171) 
LYS   PHE

>  <FRAG_NAME>  (171) 
ETAM   MBZ

>  <FRAG_ATOM_NUM>  (171) 
fragi: 11  fragj: 15

>  <atom.prop.CHAIN_ID>  (171) 
A A A A A A A A A A A Z Z Z Z Z Z Z Z Z Z Z Z Z Z Z

>  <atom.prop.IS_HEAVY_ATOM>  (171) 
1 0 0 0 1 0 0 1 0 0 0 1 0 0 0 1 1 0 1 0 1 0 1 0 1 0

>  <DIFUSE_FUNC_ATOM>  (171) 
n/a

>  <FINAL_SINGLE_POINT_ENERGY>  (171) 
0

>  <NONCOV_INTER_ENERGY_QM>  (171) 
0

>  <FF_Energy>  (171) 
-5.6

>  <QM_Energy>  (171) 
-12.4

>  <source>  (171) 
ETAM_MBZ

>  <Index>  (171) 
1675

$$$$
ETAM-pdb2cov-H-LYS-423:MBZ-pdb2cov-H-PHE-428
     RDKit          3D

 26 25  0  0  0  0  0  0  0  0999 V2000
    0.9370   -2.4922    3.9474 C   0  0  0  0  0  0  0  0  0  0  0  0
    1.8263   -2.8835    4.2291 H   0  0  0  0  0  0  0  0  0  0  0  0
    0.2265   -2.8776    4.5555 H   0  0  0  0  0  0  0  0  0  0  0  0
    0.9836   -1.4227    4.1525 H   0  0  0  0  0  0  0  0  0  0  0  0
    0.6310   -3.0030    2.4586 C   0  0  0  0  0  0  0  0  0  0  0  0
   -0.2660   -2.5741    2.1433 H   0  0  0  0  0  0  0  0  0  0  0  0
    1.3329   -2.5779    1.8154 H   0  0  0  0  0  0  0  0  0  0  0  0
    0.5296   -4.5952    1.9796 N   0  0  0  0  0  4  0  0  0  0  0  0
    1.2677   -4.7085    1.3542 H   0  0  0  0  0  0  0  0  0  0  0  0
    0.6276   -5.1039    2.8045 H   0  0  0  0  0  0  0  0  0  0  0  0
   -0.3510   -4.6703    1.5706 H   0  0  0  0  0  0  0  0  0  0  0  0
    0.0030    2.8937   -0.0715 C   0  0  0  0  0  0  0  0  0  0  0  0
   -0.8195    3.1713   -0.5257 H   0  0  0  0  0  0  0  0  0  0  0  0
    0.8131    3.1629   -0.5527 H   0  0  0  0  0  0  0  0  0  0  0  0
    0.0225    3.3532    0.9167 H   0  0  0  0  0  0  0  0  0  0  0  0
   -0.0045    1.3589   -0.0091 C   0  0  0  0  0  0  0  0  0  0  0  0
   -1.1777    0.6731    0.0073 C   0  0  0  0  0  0  0  0  0  0  0  0
   -2.0511    1.1538    0.0229 H   0  0  0  0  0  0  0  0  0  0  0  0
   -1.1737   -0.7100   -0.0000 C   0  0  0  0  0  0  0  0  0  0  0  0
   -2.0477   -1.2037   -0.0243 H   0  0  0  0  0  0  0  0  0  0  0  0
    0.0081   -1.3361    0.0280 C   0  0  0  0  0  0  0  0  0  0  0  0
    0.0239   -2.3666    0.0725 H   0  0  0  0  0  0  0  0  0  0  0  0
    1.1737   -0.6691    0.0000 C   0  0  0  0  0  0  0  0  0  0  0  0
    2.0660   -1.1745    0.0002 H   0  0  0  0  0  0  0  0  0  0  0  0
    1.1741    0.6833   -0.0262 C   0  0  0  0  0  0  0  0  0  0  0  0
    2.0419    1.1891   -0.0590 H   0  0  0  0  0  0  0  0  0  0  0  0
  1  5  1  0
  5  8  1  0
  1  2  1  0
  1  3  1  0
  1  4  1  0
  5  6  1  0
  5  7  1  0
  8  9  1  0
  8 10  1  0
  8 11  1  0
 12 16  1  0
 16 17  2  0
 17 19  1  0
 19 21  2  0
 21 23  1  0
 23 25  2  0
 25 16  1  0
 12 13  1  0
 12 14  1  0
 12 15  1  0
 17 18  1  0
 19 20  1  0
 21 22  1  0
 23 24  1  0
 25 26  1  0
M  CHG  1   8   1
M  END
>  <PDB_ID>  (172) 
pdb2cov

>  <RESIDUE_NAME>  (172) 
LYS   PHE

>  <FRAG_NAME>  (172) 
ETAM   MBZ

>  <FRAG_ATOM_NUM>  (172) 
fragi: 11  fragj: 15

>  <atom.prop.CHAIN_ID>  (172) 
A A A A A A A A A A A Z Z Z Z Z Z Z Z Z Z Z Z Z Z Z

>  <atom.prop.IS_HEAVY_ATOM>  (172) 
1 0 0 0 1 0 0 1 0 0 0 1 0 0 0 1 1 0 1 0 1 0 1 0 1 0

>  <DIFUSE_FUNC_ATOM>  (172) 
n/a

>  <FINAL_SINGLE_POINT_ENERGY>  (172) 
0

>  <NONCOV_INTER_ENERGY_QM>  (172) 
0

>  <FF_Energy>  (172) 
4.13

>  <QM_Energy>  (172) 
-2.34

>  <source>  (172) 
ETAM_MBZ

>  <Index>  (172) 
1678

$$$$
ETAM-pdb1c7g-A-LYS-279:MBZ-pdb1c7g-A-PHE-275
     RDKit          3D

 26 25  0  0  0  0  0  0  0  0999 V2000
   -0.3665   -1.3557    3.2691 C   0  0  0  0  0  0  0  0  0  0  0  0
   -0.5014   -1.6788    2.3368 H   0  0  0  0  0  0  0  0  0  0  0  0
   -0.2125   -0.3720    3.2737 H   0  0  0  0  0  0  0  0  0  0  0  0
   -1.2544   -1.5830    3.8592 H   0  0  0  0  0  0  0  0  0  0  0  0
    0.8631   -2.0370    3.8409 C   0  0  0  0  0  0  0  0  0  0  0  0
    0.7428   -2.1582    4.8265 H   0  0  0  0  0  0  0  0  0  0  0  0
    0.9737   -2.9316    3.4070 H   0  0  0  0  0  0  0  0  0  0  0  0
    2.0906   -1.2223    3.5968 N   0  0  0  0  0  4  0  0  0  0  0  0
    2.1860   -1.0561    2.6161 H   0  0  0  0  0  0  0  0  0  0  0  0
    2.0090   -0.3520    4.0799 H   0  0  0  0  0  0  0  0  0  0  0  0
    2.8882   -1.7201    3.9334 H   0  0  0  0  0  0  0  0  0  0  0  0
   -0.0056    2.8930   -0.0248 C   0  0  0  0  0  0  0  0  0  0  0  0
   -0.2223    3.1862   -0.9437 H   0  0  0  0  0  0  0  0  0  0  0  0
    0.8887    3.2112    0.2524 H   0  0  0  0  0  0  0  0  0  0  0  0
   -0.7399    3.3347    0.6489 H   0  0  0  0  0  0  0  0  0  0  0  0
    0.0010    1.4001   -0.0006 C   0  0  0  0  0  0  0  0  0  0  0  0
   -1.1973    0.6889    0.0002 C   0  0  0  0  0  0  0  0  0  0  0  0
   -2.0636    1.1813   -0.0006 H   0  0  0  0  0  0  0  0  0  0  0  0
   -1.2040   -0.7013    0.0000 C   0  0  0  0  0  0  0  0  0  0  0  0
   -2.0785   -1.1950    0.0023 H   0  0  0  0  0  0  0  0  0  0  0  0
   -0.0009   -1.3939   -0.0018 C   0  0  0  0  0  0  0  0  0  0  0  0
    0.0010   -2.3922   -0.0049 H   0  0  0  0  0  0  0  0  0  0  0  0
    1.2040   -0.6917   -0.0000 C   0  0  0  0  0  0  0  0  0  0  0  0
    2.0842   -1.1900    0.0014 H   0  0  0  0  0  0  0  0  0  0  0  0
    1.1972    0.6980    0.0022 C   0  0  0  0  0  0  0  0  0  0  0  0
    2.0644    1.1952    0.0047 H   0  0  0  0  0  0  0  0  0  0  0  0
  1  5  1  0
  5  8  1  0
  1  2  1  0
  1  3  1  0
  1  4  1  0
  5  6  1  0
  5  7  1  0
  8  9  1  0
  8 10  1  0
  8 11  1  0
 12 16  1  0
 16 17  2  0
 17 19  1  0
 19 21  2  0
 21 23  1  0
 23 25  2  0
 25 16  1  0
 12 13  1  0
 12 14  1  0
 12 15  1  0
 17 18  1  0
 19 20  1  0
 21 22  1  0
 23 24  1  0
 25 26  1  0
M  CHG  1   8   1
M  END
>  <PDB_ID>  (173) 
pdb1c7g

>  <RESIDUE_NAME>  (173) 
LYS   PHE

>  <FRAG_NAME>  (173) 
ETAM   MBZ

>  <FRAG_ATOM_NUM>  (173) 
fragi: 11  fragj: 15

>  <atom.prop.CHAIN_ID>  (173) 
A A A A A A A A A A A Z Z Z Z Z Z Z Z Z Z Z Z Z Z Z

>  <atom.prop.IS_HEAVY_ATOM>  (173) 
1 0 0 0 1 0 0 1 0 0 0 1 0 0 0 1 1 0 1 0 1 0 1 0 1 0

>  <DIFUSE_FUNC_ATOM>  (173) 
n/a

>  <FINAL_SINGLE_POINT_ENERGY>  (173) 
0

>  <NONCOV_INTER_ENERGY_QM>  (173) 
0

>  <FF_Energy>  (173) 
-2.49

>  <QM_Energy>  (173) 
-8.88

>  <source>  (173) 
ETAM_MBZ

>  <Index>  (173) 
1689

$$$$
ETAM-pdb2cvy-A-LYS-387:MBZ-pdb2cvy-A-PHE-309
     RDKit          3D

 26 25  0  0  0  0  0  0  0  0999 V2000
    1.1098   -4.6446   -3.0710 C   0  0  0  0  0  0  0  0  0  0  0  0
    1.3069   -5.5124   -3.5184 H   0  0  0  0  0  0  0  0  0  0  0  0
    0.1468   -4.5981   -2.8221 H   0  0  0  0  0  0  0  0  0  0  0  0
    1.7199   -4.5570   -2.1720 H   0  0  0  0  0  0  0  0  0  0  0  0
    1.4000   -3.5189   -4.0643 C   0  0  0  0  0  0  0  0  0  0  0  0
    2.3464   -3.2452   -3.9620 H   0  0  0  0  0  0  0  0  0  0  0  0
    1.2254   -3.8542   -4.9805 H   0  0  0  0  0  0  0  0  0  0  0  0
    0.5112   -2.3986   -3.7569 N   0  0  0  0  0  4  0  0  0  0  0  0
    0.9386   -1.5339   -4.0337 H   0  0  0  0  0  0  0  0  0  0  0  0
   -0.3582   -2.5035   -4.2482 H   0  0  0  0  0  0  0  0  0  0  0  0
    0.3248   -2.3674   -2.7709 H   0  0  0  0  0  0  0  0  0  0  0  0
    0.0048    2.9177   -0.0180 C   0  0  0  0  0  0  0  0  0  0  0  0
   -0.8332    3.2257   -0.4348 H   0  0  0  0  0  0  0  0  0  0  0  0
    0.7968    3.2200   -0.5196 H   0  0  0  0  0  0  0  0  0  0  0  0
    0.0583    3.3641    0.9749 H   0  0  0  0  0  0  0  0  0  0  0  0
    0.0003    1.4041   -0.0103 C   0  0  0  0  0  0  0  0  0  0  0  0
   -1.2102    0.6990   -0.0149 C   0  0  0  0  0  0  0  0  0  0  0  0
   -2.0692    1.1980   -0.0302 H   0  0  0  0  0  0  0  0  0  0  0  0
   -1.2190   -0.6885   -0.0000 C   0  0  0  0  0  0  0  0  0  0  0  0
   -2.0830   -1.1918    0.0057 H   0  0  0  0  0  0  0  0  0  0  0  0
    0.0101   -1.4019    0.0099 C   0  0  0  0  0  0  0  0  0  0  0  0
   -0.0071   -2.3947    0.0235 H   0  0  0  0  0  0  0  0  0  0  0  0
    1.2190   -0.7044    0.0000 C   0  0  0  0  0  0  0  0  0  0  0  0
    2.0951   -1.1959   -0.0164 H   0  0  0  0  0  0  0  0  0  0  0  0
    1.1999    0.6917    0.0153 C   0  0  0  0  0  0  0  0  0  0  0  0
    2.0685    1.1929    0.0446 H   0  0  0  0  0  0  0  0  0  0  0  0
  1  5  1  0
  5  8  1  0
  1  2  1  0
  1  3  1  0
  1  4  1  0
  5  6  1  0
  5  7  1  0
  8  9  1  0
  8 10  1  0
  8 11  1  0
 12 16  1  0
 16 17  2  0
 17 19  1  0
 19 21  2  0
 21 23  1  0
 23 25  2  0
 25 16  1  0
 12 13  1  0
 12 14  1  0
 12 15  1  0
 17 18  1  0
 19 20  1  0
 21 22  1  0
 23 24  1  0
 25 26  1  0
M  CHG  1   8   1
M  END
>  <PDB_ID>  (174) 
pdb2cvy

>  <RESIDUE_NAME>  (174) 
LYS   PHE

>  <FRAG_NAME>  (174) 
ETAM   MBZ

>  <FRAG_ATOM_NUM>  (174) 
fragi: 11  fragj: 15

>  <atom.prop.CHAIN_ID>  (174) 
A A A A A A A A A A A Z Z Z Z Z Z Z Z Z Z Z Z Z Z Z

>  <atom.prop.IS_HEAVY_ATOM>  (174) 
1 0 0 0 1 0 0 1 0 0 0 1 0 0 0 1 1 0 1 0 1 0 1 0 1 0

>  <DIFUSE_FUNC_ATOM>  (174) 
n/a

>  <FINAL_SINGLE_POINT_ENERGY>  (174) 
0

>  <NONCOV_INTER_ENERGY_QM>  (174) 
0

>  <FF_Energy>  (174) 
-3.44

>  <QM_Energy>  (174) 
-8.46

>  <source>  (174) 
ETAM_MBZ

>  <Index>  (174) 
1694

$$$$
ETAM-pdb2cw6-A-LYS-58:MBZ-pdb2cw6-A-PHE-305
     RDKit          3D

 26 25  0  0  0  0  0  0  0  0999 V2000
   -0.9360   -2.5959   -3.0599 C   0  0  0  0  0  0  0  0  0  0  0  0
   -1.1880   -3.5584   -3.1203 H   0  0  0  0  0  0  0  0  0  0  0  0
   -0.8656   -2.3201   -2.1057 H   0  0  0  0  0  0  0  0  0  0  0  0
    0.0314   -2.4536   -3.5416 H   0  0  0  0  0  0  0  0  0  0  0  0
   -2.0343   -1.7670   -3.7223 C   0  0  0  0  0  0  0  0  0  0  0  0
   -2.0639   -1.9964   -4.7034 H   0  0  0  0  0  0  0  0  0  0  0  0
   -2.9207   -2.0196   -3.3134 H   0  0  0  0  0  0  0  0  0  0  0  0
   -1.8294   -0.2979   -3.5707 N   0  0  0  0  0  4  0  0  0  0  0  0
   -0.9762   -0.1327   -3.0784 H   0  0  0  0  0  0  0  0  0  0  0  0
   -1.7830    0.1238   -4.4753 H   0  0  0  0  0  0  0  0  0  0  0  0
   -2.5937    0.0909   -3.0581 H   0  0  0  0  0  0  0  0  0  0  0  0
    0.0010    2.8845    0.0885 C   0  0  0  0  0  0  0  0  0  0  0  0
   -0.6742    3.2355   -0.5424 H   0  0  0  0  0  0  0  0  0  0  0  0
    0.9066    3.2098   -0.1360 H   0  0  0  0  0  0  0  0  0  0  0  0
   -0.2481    3.2598    1.0811 H   0  0  0  0  0  0  0  0  0  0  0  0
   -0.0005    1.3997    0.0019 C   0  0  0  0  0  0  0  0  0  0  0  0
   -1.1948    0.6925   -0.0030 C   0  0  0  0  0  0  0  0  0  0  0  0
   -2.0628    1.1839   -0.0101 H   0  0  0  0  0  0  0  0  0  0  0  0
   -1.2025   -0.6965    0.0000 C   0  0  0  0  0  0  0  0  0  0  0  0
   -2.0800   -1.1887    0.0019 H   0  0  0  0  0  0  0  0  0  0  0  0
   -0.0034   -1.3934    0.0023 C   0  0  0  0  0  0  0  0  0  0  0  0
   -0.0068   -2.3920    0.0051 H   0  0  0  0  0  0  0  0  0  0  0  0
    1.2025   -0.6979   -0.0000 C   0  0  0  0  0  0  0  0  0  0  0  0
    2.0810   -1.1961    0.0011 H   0  0  0  0  0  0  0  0  0  0  0  0
    1.1987    0.6956   -0.0012 C   0  0  0  0  0  0  0  0  0  0  0  0
    2.0643    1.1914   -0.0055 H   0  0  0  0  0  0  0  0  0  0  0  0
  1  5  1  0
  5  8  1  0
  1  2  1  0
  1  3  1  0
  1  4  1  0
  5  6  1  0
  5  7  1  0
  8  9  1  0
  8 10  1  0
  8 11  1  0
 12 16  1  0
 16 17  2  0
 17 19  1  0
 19 21  2  0
 21 23  1  0
 23 25  2  0
 25 16  1  0
 12 13  1  0
 12 14  1  0
 12 15  1  0
 17 18  1  0
 19 20  1  0
 21 22  1  0
 23 24  1  0
 25 26  1  0
M  CHG  1   8   1
M  END
>  <PDB_ID>  (175) 
pdb2cw6

>  <RESIDUE_NAME>  (175) 
LYS   PHE

>  <FRAG_NAME>  (175) 
ETAM   MBZ

>  <FRAG_ATOM_NUM>  (175) 
fragi: 11  fragj: 15

>  <atom.prop.CHAIN_ID>  (175) 
A A A A A A A A A A A Z Z Z Z Z Z Z Z Z Z Z Z Z Z Z

>  <atom.prop.IS_HEAVY_ATOM>  (175) 
1 0 0 0 1 0 0 1 0 0 0 1 0 0 0 1 1 0 1 0 1 0 1 0 1 0

>  <DIFUSE_FUNC_ATOM>  (175) 
n/a

>  <FINAL_SINGLE_POINT_ENERGY>  (175) 
0

>  <NONCOV_INTER_ENERGY_QM>  (175) 
0

>  <FF_Energy>  (175) 
-4.18

>  <QM_Energy>  (175) 
-9.53

>  <source>  (175) 
ETAM_MBZ

>  <Index>  (175) 
1702

$$$$
ETAM-pdb2cw6-B-LYS-58:MBZ-pdb2cw6-B-PHE-305
     RDKit          3D

 26 25  0  0  0  0  0  0  0  0999 V2000
   -0.6622   -2.3402   -3.4861 C   0  0  0  0  0  0  0  0  0  0  0  0
   -0.8784   -3.2418   -3.8500 H   0  0  0  0  0  0  0  0  0  0  0  0
   -0.7900   -2.3284   -2.4987 H   0  0  0  0  0  0  0  0  0  0  0  0
    0.3794   -2.1104   -3.7105 H   0  0  0  0  0  0  0  0  0  0  0  0
   -1.6120   -1.3263   -4.1095 C   0  0  0  0  0  0  0  0  0  0  0  0
   -1.4347   -1.2790   -5.0978 H   0  0  0  0  0  0  0  0  0  0  0  0
   -2.5583   -1.6347   -3.9668 H   0  0  0  0  0  0  0  0  0  0  0  0
   -1.4538    0.0405   -3.5210 N   0  0  0  0  0  4  0  0  0  0  0  0
   -1.2790    0.6945   -4.2550 H   0  0  0  0  0  0  0  0  0  0  0  0
   -2.2916    0.2884   -3.0392 H   0  0  0  0  0  0  0  0  0  0  0  0
   -0.6858    0.0358   -2.8828 H   0  0  0  0  0  0  0  0  0  0  0  0
   -0.0094    2.9187    0.0645 C   0  0  0  0  0  0  0  0  0  0  0  0
   -0.5934    3.2579   -0.6539 H   0  0  0  0  0  0  0  0  0  0  0  0
    0.9195    3.2321   -0.0396 H   0  0  0  0  0  0  0  0  0  0  0  0
   -0.3877    3.3002    1.0129 H   0  0  0  0  0  0  0  0  0  0  0  0
   -0.0022    1.4103   -0.0163 C   0  0  0  0  0  0  0  0  0  0  0  0
   -1.2006    0.6955   -0.0021 C   0  0  0  0  0  0  0  0  0  0  0  0
   -2.0682    1.1874    0.0054 H   0  0  0  0  0  0  0  0  0  0  0  0
   -1.2099   -0.6987   -0.0000 C   0  0  0  0  0  0  0  0  0  0  0  0
   -2.0818   -1.1929   -0.0115 H   0  0  0  0  0  0  0  0  0  0  0  0
    0.0021   -1.4032    0.0202 C   0  0  0  0  0  0  0  0  0  0  0  0
   -0.0067   -2.3986    0.0485 H   0  0  0  0  0  0  0  0  0  0  0  0
    1.2099   -0.7062   -0.0000 C   0  0  0  0  0  0  0  0  0  0  0  0
    2.0884   -1.1957   -0.0120 H   0  0  0  0  0  0  0  0  0  0  0  0
    1.2006    0.7023   -0.0018 C   0  0  0  0  0  0  0  0  0  0  0  0
    2.0670    1.1943    0.0073 H   0  0  0  0  0  0  0  0  0  0  0  0
  1  5  1  0
  5  8  1  0
  1  2  1  0
  1  3  1  0
  1  4  1  0
  5  6  1  0
  5  7  1  0
  8  9  1  0
  8 10  1  0
  8 11  1  0
 12 16  1  0
 16 17  2  0
 17 19  1  0
 19 21  2  0
 21 23  1  0
 23 25  2  0
 25 16  1  0
 12 13  1  0
 12 14  1  0
 12 15  1  0
 17 18  1  0
 19 20  1  0
 21 22  1  0
 23 24  1  0
 25 26  1  0
M  CHG  1   8   1
M  END
>  <PDB_ID>  (176) 
pdb2cw6

>  <RESIDUE_NAME>  (176) 
LYS   PHE

>  <FRAG_NAME>  (176) 
ETAM   MBZ

>  <FRAG_ATOM_NUM>  (176) 
fragi: 11  fragj: 15

>  <atom.prop.CHAIN_ID>  (176) 
A A A A A A A A A A A Z Z Z Z Z Z Z Z Z Z Z Z Z Z Z

>  <atom.prop.IS_HEAVY_ATOM>  (176) 
1 0 0 0 1 0 0 1 0 0 0 1 0 0 0 1 1 0 1 0 1 0 1 0 1 0

>  <DIFUSE_FUNC_ATOM>  (176) 
n/a

>  <FINAL_SINGLE_POINT_ENERGY>  (176) 
0

>  <NONCOV_INTER_ENERGY_QM>  (176) 
0

>  <FF_Energy>  (176) 
-6.67

>  <QM_Energy>  (176) 
-12.0

>  <source>  (176) 
ETAM_MBZ

>  <Index>  (176) 
1704

$$$$
ETAM-pdb1c7n-H-LYS-188:MBZ-pdb1c7n-H-PHE-153
     RDKit          3D

 26 25  0  0  0  0  0  0  0  0999 V2000
   -0.4543    0.2528   -3.3947 C   0  0  0  0  0  0  0  0  0  0  0  0
   -0.8963   -0.3162   -4.0745 H   0  0  0  0  0  0  0  0  0  0  0  0
   -0.6222   -0.0903   -2.4805 H   0  0  0  0  0  0  0  0  0  0  0  0
    0.6195    0.2581   -3.5814 H   0  0  0  0  0  0  0  0  0  0  0  0
   -1.0288    1.6645   -3.4957 C   0  0  0  0  0  0  0  0  0  0  0  0
   -0.5391    2.2606   -2.8504 H   0  0  0  0  0  0  0  0  0  0  0  0
   -0.8782    2.0100   -4.4275 H   0  0  0  0  0  0  0  0  0  0  0  0
   -2.4932    1.7142   -3.1892 N   0  0  0  0  0  4  0  0  0  0  0  0
   -2.9952    1.2415   -3.9115 H   0  0  0  0  0  0  0  0  0  0  0  0
   -2.6596    1.2656   -2.3127 H   0  0  0  0  0  0  0  0  0  0  0  0
   -2.7852    2.6671   -3.1418 H   0  0  0  0  0  0  0  0  0  0  0  0
   -0.0002    2.9029    0.0361 C   0  0  0  0  0  0  0  0  0  0  0  0
   -0.8988    3.2187   -0.2267 H   0  0  0  0  0  0  0  0  0  0  0  0
    0.6925    3.2254   -0.5906 H   0  0  0  0  0  0  0  0  0  0  0  0
    0.2234    3.3165    1.0195 H   0  0  0  0  0  0  0  0  0  0  0  0
   -0.0022    1.4048    0.0001 C   0  0  0  0  0  0  0  0  0  0  0  0
   -1.1986    0.6956    0.0000 C   0  0  0  0  0  0  0  0  0  0  0  0
   -2.0662    1.1842   -0.0011 H   0  0  0  0  0  0  0  0  0  0  0  0
   -1.2036   -0.6992    0.0000 C   0  0  0  0  0  0  0  0  0  0  0  0
   -2.0776   -1.1932    0.0003 H   0  0  0  0  0  0  0  0  0  0  0  0
    0.0036   -1.3972    0.0017 C   0  0  0  0  0  0  0  0  0  0  0  0
   -0.0026   -2.3949    0.0038 H   0  0  0  0  0  0  0  0  0  0  0  0
    1.2036   -0.7001    0.0000 C   0  0  0  0  0  0  0  0  0  0  0  0
    2.0859   -1.1939    0.0013 H   0  0  0  0  0  0  0  0  0  0  0  0
    1.1973    0.6961   -0.0018 C   0  0  0  0  0  0  0  0  0  0  0  0
    2.0649    1.1915   -0.0051 H   0  0  0  0  0  0  0  0  0  0  0  0
  1  5  1  0
  5  8  1  0
  1  2  1  0
  1  3  1  0
  1  4  1  0
  5  6  1  0
  5  7  1  0
  8  9  1  0
  8 10  1  0
  8 11  1  0
 12 16  1  0
 16 17  2  0
 17 19  1  0
 19 21  2  0
 21 23  1  0
 23 25  2  0
 25 16  1  0
 12 13  1  0
 12 14  1  0
 12 15  1  0
 17 18  1  0
 19 20  1  0
 21 22  1  0
 23 24  1  0
 25 26  1  0
M  CHG  1   8   1
M  END
>  <PDB_ID>  (177) 
pdb1c7n

>  <RESIDUE_NAME>  (177) 
LYS   PHE

>  <FRAG_NAME>  (177) 
ETAM   MBZ

>  <FRAG_ATOM_NUM>  (177) 
fragi: 11  fragj: 15

>  <atom.prop.CHAIN_ID>  (177) 
A A A A A A A A A A A Z Z Z Z Z Z Z Z Z Z Z Z Z Z Z

>  <atom.prop.IS_HEAVY_ATOM>  (177) 
1 0 0 0 1 0 0 1 0 0 0 1 0 0 0 1 1 0 1 0 1 0 1 0 1 0

>  <DIFUSE_FUNC_ATOM>  (177) 
n/a

>  <FINAL_SINGLE_POINT_ENERGY>  (177) 
0

>  <NONCOV_INTER_ENERGY_QM>  (177) 
0

>  <FF_Energy>  (177) 
-4.14

>  <QM_Energy>  (177) 
-10.0

>  <source>  (177) 
ETAM_MBZ

>  <Index>  (177) 
1711

$$$$
ETAM-pdb1c9w-A-LYS-11:MBZ-pdb1c9w-A-PHE-3
     RDKit          3D

 26 25  0  0  0  0  0  0  0  0999 V2000
    0.9222   -0.4710    3.7578 C   0  0  0  0  0  0  0  0  0  0  0  0
    0.8814   -0.4589    4.7504 H   0  0  0  0  0  0  0  0  0  0  0  0
    0.1739    0.0554    3.3715 H   0  0  0  0  0  0  0  0  0  0  0  0
    1.8651   -0.0255    3.4407 H   0  0  0  0  0  0  0  0  0  0  0  0
    0.8048   -1.9090    3.2816 C   0  0  0  0  0  0  0  0  0  0  0  0
   -0.0476   -2.3024    3.6408 H   0  0  0  0  0  0  0  0  0  0  0  0
    0.7621   -1.9172    2.2765 H   0  0  0  0  0  0  0  0  0  0  0  0
    1.9537   -2.7494    3.7260 N   0  0  0  0  0  4  0  0  0  0  0  0
    2.7401   -2.5730    3.1352 H   0  0  0  0  0  0  0  0  0  0  0  0
    2.1855   -2.5194    4.6707 H   0  0  0  0  0  0  0  0  0  0  0  0
    1.6992   -3.7133    3.6678 H   0  0  0  0  0  0  0  0  0  0  0  0
    0.0064    2.8980   -0.0580 C   0  0  0  0  0  0  0  0  0  0  0  0
    0.8374    3.2193    0.3703 H   0  0  0  0  0  0  0  0  0  0  0  0
   -0.7951    3.2276    0.4162 H   0  0  0  0  0  0  0  0  0  0  0  0
   -0.0206    3.2935   -1.0734 H   0  0  0  0  0  0  0  0  0  0  0  0
    0.0007    1.4008   -0.0003 C   0  0  0  0  0  0  0  0  0  0  0  0
   -1.1987    0.6954    0.0006 C   0  0  0  0  0  0  0  0  0  0  0  0
   -2.0630    1.1876    0.0006 H   0  0  0  0  0  0  0  0  0  0  0  0
   -1.2031   -0.6939    0.0000 C   0  0  0  0  0  0  0  0  0  0  0  0
   -2.0792   -1.1892    0.0027 H   0  0  0  0  0  0  0  0  0  0  0  0
   -0.0001   -1.3928   -0.0018 C   0  0  0  0  0  0  0  0  0  0  0  0
   -0.0075   -2.3919   -0.0049 H   0  0  0  0  0  0  0  0  0  0  0  0
    1.2031   -0.6994    0.0000 C   0  0  0  0  0  0  0  0  0  0  0  0
    2.0822   -1.1981    0.0015 H   0  0  0  0  0  0  0  0  0  0  0  0
    1.1981    0.6899    0.0015 C   0  0  0  0  0  0  0  0  0  0  0  0
    2.0657    1.1874    0.0029 H   0  0  0  0  0  0  0  0  0  0  0  0
  1  5  1  0
  5  8  1  0
  1  2  1  0
  1  3  1  0
  1  4  1  0
  5  6  1  0
  5  7  1  0
  8  9  1  0
  8 10  1  0
  8 11  1  0
 12 16  1  0
 16 17  2  0
 17 19  1  0
 19 21  2  0
 21 23  1  0
 23 25  2  0
 25 16  1  0
 12 13  1  0
 12 14  1  0
 12 15  1  0
 17 18  1  0
 19 20  1  0
 21 22  1  0
 23 24  1  0
 25 26  1  0
M  CHG  1   8   1
M  END
>  <PDB_ID>  (178) 
pdb1c9w

>  <RESIDUE_NAME>  (178) 
LYS   PHE

>  <FRAG_NAME>  (178) 
ETAM   MBZ

>  <FRAG_ATOM_NUM>  (178) 
fragi: 11  fragj: 15

>  <atom.prop.CHAIN_ID>  (178) 
A A A A A A A A A A A Z Z Z Z Z Z Z Z Z Z Z Z Z Z Z

>  <atom.prop.IS_HEAVY_ATOM>  (178) 
1 0 0 0 1 0 0 1 0 0 0 1 0 0 0 1 1 0 1 0 1 0 1 0 1 0

>  <DIFUSE_FUNC_ATOM>  (178) 
n/a

>  <FINAL_SINGLE_POINT_ENERGY>  (178) 
0

>  <NONCOV_INTER_ENERGY_QM>  (178) 
0

>  <FF_Energy>  (178) 
-1.81

>  <QM_Energy>  (178) 
-7.22

>  <source>  (178) 
ETAM_MBZ

>  <Index>  (178) 
1725

$$$$
ETAM-pdb1c3c-B-LYS-269:MBZ-pdb1c3c-B-PHE-255
     RDKit          3D

 26 25  0  0  0  0  0  0  0  0999 V2000
   -1.5370   -0.5089    3.8509 C   0  0  0  0  0  0  0  0  0  0  0  0
   -1.8352   -0.0402    3.0303 H   0  0  0  0  0  0  0  0  0  0  0  0
   -0.7786   -0.0338    4.2758 H   0  0  0  0  0  0  0  0  0  0  0  0
   -2.3665   -0.5817    4.5542 H   0  0  0  0  0  0  0  0  0  0  0  0
   -1.0457   -1.9124    3.4419 C   0  0  0  0  0  0  0  0  0  0  0  0
   -0.2969   -1.8027    2.7713 H   0  0  0  0  0  0  0  0  0  0  0  0
   -0.6608   -2.3643    4.2609 H   0  0  0  0  0  0  0  0  0  0  0  0
   -2.1052   -2.7870    2.8531 N   0  0  0  0  0  4  0  0  0  0  0  0
   -1.9873   -2.8243    1.8625 H   0  0  0  0  0  0  0  0  0  0  0  0
   -2.0234   -3.7054    3.2366 H   0  0  0  0  0  0  0  0  0  0  0  0
   -3.0033   -2.4080    3.0721 H   0  0  0  0  0  0  0  0  0  0  0  0
   -0.0347    2.8949   -0.0073 C   0  0  0  0  0  0  0  0  0  0  0  0
    0.7517    3.2207    0.4862 H   0  0  0  0  0  0  0  0  0  0  0  0
   -0.8788    3.1910    0.4006 H   0  0  0  0  0  0  0  0  0  0  0  0
    0.0100    3.3119   -1.0134 H   0  0  0  0  0  0  0  0  0  0  0  0
   -0.0079    1.3957   -0.0008 C   0  0  0  0  0  0  0  0  0  0  0  0
   -1.1935    0.6842    0.0032 C   0  0  0  0  0  0  0  0  0  0  0  0
   -2.0655    1.1741    0.0070 H   0  0  0  0  0  0  0  0  0  0  0  0
   -1.1972   -0.6986    0.0000 C   0  0  0  0  0  0  0  0  0  0  0  0
   -2.0706   -1.1983    0.0049 H   0  0  0  0  0  0  0  0  0  0  0  0
    0.0074   -1.3900   -0.0082 C   0  0  0  0  0  0  0  0  0  0  0  0
    0.0058   -2.3886   -0.0208 H   0  0  0  0  0  0  0  0  0  0  0  0
    1.1972   -0.6885   -0.0000 C   0  0  0  0  0  0  0  0  0  0  0  0
    2.0848   -1.1854    0.0039 H   0  0  0  0  0  0  0  0  0  0  0  0
    1.1940    0.6973    0.0058 C   0  0  0  0  0  0  0  0  0  0  0  0
    2.0572    1.1972    0.0144 H   0  0  0  0  0  0  0  0  0  0  0  0
  1  5  1  0
  5  8  1  0
  1  2  1  0
  1  3  1  0
  1  4  1  0
  5  6  1  0
  5  7  1  0
  8  9  1  0
  8 10  1  0
  8 11  1  0
 12 16  1  0
 16 17  2  0
 17 19  1  0
 19 21  2  0
 21 23  1  0
 23 25  2  0
 25 16  1  0
 12 13  1  0
 12 14  1  0
 12 15  1  0
 17 18  1  0
 19 20  1  0
 21 22  1  0
 23 24  1  0
 25 26  1  0
M  CHG  1   8   1
M  END
>  <PDB_ID>  (179) 
pdb1c3c

>  <RESIDUE_NAME>  (179) 
LYS   PHE

>  <FRAG_NAME>  (179) 
ETAM   MBZ

>  <FRAG_ATOM_NUM>  (179) 
fragi: 11  fragj: 15

>  <atom.prop.CHAIN_ID>  (179) 
A A A A A A A A A A A Z Z Z Z Z Z Z Z Z Z Z Z Z Z Z

>  <atom.prop.IS_HEAVY_ATOM>  (179) 
1 0 0 0 1 0 0 1 0 0 0 1 0 0 0 1 1 0 1 0 1 0 1 0 1 0

>  <DIFUSE_FUNC_ATOM>  (179) 
n/a

>  <FINAL_SINGLE_POINT_ENERGY>  (179) 
0

>  <NONCOV_INTER_ENERGY_QM>  (179) 
0

>  <FF_Energy>  (179) 
-2.99

>  <QM_Energy>  (179) 
-8.9

>  <source>  (179) 
ETAM_MBZ

>  <Index>  (179) 
1743

$$$$
ETAM-pdb1bu6-Z-LYS-335:MBZ-pdb1bu6-Z-PHE-332
     RDKit          3D

 26 25  0  0  0  0  0  0  0  0999 V2000
   -3.0086    2.6738   -3.2150 C   0  0  0  0  0  0  0  0  0  0  0  0
   -2.4066    2.5499   -4.0140 H   0  0  0  0  0  0  0  0  0  0  0  0
   -2.4381    2.9526   -2.4320 H   0  0  0  0  0  0  0  0  0  0  0  0
   -3.7198    3.4706   -3.4327 H   0  0  0  0  0  0  0  0  0  0  0  0
   -3.6455    1.3356   -2.8862 C   0  0  0  0  0  0  0  0  0  0  0  0
   -4.3545    1.4765   -2.1873 H   0  0  0  0  0  0  0  0  0  0  0  0
   -4.0816    0.9706   -3.7155 H   0  0  0  0  0  0  0  0  0  0  0  0
   -2.6531    0.3555   -2.3855 N   0  0  0  0  0  4  0  0  0  0  0  0
   -2.6948    0.3178   -1.3862 H   0  0  0  0  0  0  0  0  0  0  0  0
   -2.8567   -0.5497   -2.7611 H   0  0  0  0  0  0  0  0  0  0  0  0
   -1.7353    0.6335   -2.6699 H   0  0  0  0  0  0  0  0  0  0  0  0
   -0.0064    2.8854    0.0361 C   0  0  0  0  0  0  0  0  0  0  0  0
    0.8322    3.1852    0.4433 H   0  0  0  0  0  0  0  0  0  0  0  0
   -0.7974    3.1707    0.5366 H   0  0  0  0  0  0  0  0  0  0  0  0
   -0.0685    3.2817   -0.9774 H   0  0  0  0  0  0  0  0  0  0  0  0
    0.0044    1.4010   -0.0015 C   0  0  0  0  0  0  0  0  0  0  0  0
   -1.1996    0.7027    0.0009 C   0  0  0  0  0  0  0  0  0  0  0  0
   -2.0609    1.1994    0.0018 H   0  0  0  0  0  0  0  0  0  0  0  0
   -1.2130   -0.6877   -0.0000 C   0  0  0  0  0  0  0  0  0  0  0  0
   -2.0863   -1.1805    0.0018 H   0  0  0  0  0  0  0  0  0  0  0  0
   -0.0045   -1.3903   -0.0013 C   0  0  0  0  0  0  0  0  0  0  0  0
   -0.0188   -2.3922   -0.0040 H   0  0  0  0  0  0  0  0  0  0  0  0
    1.2130   -0.7104   -0.0000 C   0  0  0  0  0  0  0  0  0  0  0  0
    2.0824   -1.2081    0.0011 H   0  0  0  0  0  0  0  0  0  0  0  0
    1.1997    0.6846    0.0019 C   0  0  0  0  0  0  0  0  0  0  0  0
    2.0710    1.1825    0.0047 H   0  0  0  0  0  0  0  0  0  0  0  0
  1  5  1  0
  5  8  1  0
  1  2  1  0
  1  3  1  0
  1  4  1  0
  5  6  1  0
  5  7  1  0
  8  9  1  0
  8 10  1  0
  8 11  1  0
 12 16  1  0
 16 17  2  0
 17 19  1  0
 19 21  2  0
 21 23  1  0
 23 25  2  0
 25 16  1  0
 12 13  1  0
 12 14  1  0
 12 15  1  0
 17 18  1  0
 19 20  1  0
 21 22  1  0
 23 24  1  0
 25 26  1  0
M  CHG  1   8   1
M  END
>  <PDB_ID>  (180) 
pdb1bu6

>  <RESIDUE_NAME>  (180) 
LYS   PHE

>  <FRAG_NAME>  (180) 
ETAM   MBZ

>  <FRAG_ATOM_NUM>  (180) 
fragi: 11  fragj: 15

>  <atom.prop.CHAIN_ID>  (180) 
A A A A A A A A A A A Z Z Z Z Z Z Z Z Z Z Z Z Z Z Z

>  <atom.prop.IS_HEAVY_ATOM>  (180) 
1 0 0 0 1 0 0 1 0 0 0 1 0 0 0 1 1 0 1 0 1 0 1 0 1 0

>  <DIFUSE_FUNC_ATOM>  (180) 
n/a

>  <FINAL_SINGLE_POINT_ENERGY>  (180) 
0

>  <NONCOV_INTER_ENERGY_QM>  (180) 
0

>  <FF_Energy>  (180) 
0.75

>  <QM_Energy>  (180) 
-6.29

>  <source>  (180) 
ETAM_MBZ

>  <Index>  (180) 
1752

$$$$
ETAM-pdb1cdk-A-LYS-266:MBZ-pdb1cdk-A-PHE-257
     RDKit          3D

 26 25  0  0  0  0  0  0  0  0999 V2000
    2.6679    2.7075    3.1355 C   0  0  0  0  0  0  0  0  0  0  0  0
    3.0451    3.0185    4.0297 H   0  0  0  0  0  0  0  0  0  0  0  0
    3.3769    2.1080    2.7156 H   0  0  0  0  0  0  0  0  0  0  0  0
    1.7635    2.1250    3.3114 H   0  0  0  0  0  0  0  0  0  0  0  0
    2.5722    3.9964    2.2181 C   0  0  0  0  0  0  0  0  0  0  0  0
    3.4230    3.9557    1.5628 H   0  0  0  0  0  0  0  0  0  0  0  0
    1.8008    3.7908    1.4986 H   0  0  0  0  0  0  0  0  0  0  0  0
    2.4051    5.4722    2.6263 N   0  0  0  0  0  4  0  0  0  0  0  0
    2.7678    6.0345    1.8951 H   0  0  0  0  0  0  0  0  0  0  0  0
    1.4377    5.6443    2.7596 H   0  0  0  0  0  0  0  0  0  0  0  0
    2.9101    5.6158    3.4674 H   0  0  0  0  0  0  0  0  0  0  0  0
    0.0160    2.9188   -0.0065 C   0  0  0  0  0  0  0  0  0  0  0  0
    0.9432    3.2257    0.1835 H   0  0  0  0  0  0  0  0  0  0  0  0
   -0.6050    3.2419    0.7009 H   0  0  0  0  0  0  0  0  0  0  0  0
   -0.2925    3.3809   -0.9443 H   0  0  0  0  0  0  0  0  0  0  0  0
    0.0015    1.4346   -0.0030 C   0  0  0  0  0  0  0  0  0  0  0  0
   -1.2159    0.7093    0.0001 C   0  0  0  0  0  0  0  0  0  0  0  0
   -2.0773    1.2032    0.0014 H   0  0  0  0  0  0  0  0  0  0  0  0
   -1.2329   -0.7016   -0.0000 C   0  0  0  0  0  0  0  0  0  0  0  0
   -2.1021   -1.1891   -0.0006 H   0  0  0  0  0  0  0  0  0  0  0  0
   -0.0082   -1.4227    0.0032 C   0  0  0  0  0  0  0  0  0  0  0  0
   -0.0268   -2.4166    0.0068 H   0  0  0  0  0  0  0  0  0  0  0  0
    1.2329   -0.7368   -0.0000 C   0  0  0  0  0  0  0  0  0  0  0  0
    2.0956   -1.2155   -0.0004 H   0  0  0  0  0  0  0  0  0  0  0  0
    1.2226    0.7172   -0.0003 C   0  0  0  0  0  0  0  0  0  0  0  0
    2.0849    1.1947    0.0003 H   0  0  0  0  0  0  0  0  0  0  0  0
  1  5  1  0
  5  8  1  0
  1  2  1  0
  1  3  1  0
  1  4  1  0
  5  6  1  0
  5  7  1  0
  8  9  1  0
  8 10  1  0
  8 11  1  0
 12 16  1  0
 16 17  2  0
 17 19  1  0
 19 21  2  0
 21 23  1  0
 23 25  2  0
 25 16  1  0
 12 13  1  0
 12 14  1  0
 12 15  1  0
 17 18  1  0
 19 20  1  0
 21 22  1  0
 23 24  1  0
 25 26  1  0
M  CHG  1   8   1
M  END
>  <PDB_ID>  (181) 
pdb1cdk

>  <RESIDUE_NAME>  (181) 
LYS   PHE

>  <FRAG_NAME>  (181) 
ETAM   MBZ

>  <FRAG_ATOM_NUM>  (181) 
fragi: 11  fragj: 15

>  <atom.prop.CHAIN_ID>  (181) 
A A A A A A A A A A A Z Z Z Z Z Z Z Z Z Z Z Z Z Z Z

>  <atom.prop.IS_HEAVY_ATOM>  (181) 
1 0 0 0 1 0 0 1 0 0 0 1 0 0 0 1 1 0 1 0 1 0 1 0 1 0

>  <DIFUSE_FUNC_ATOM>  (181) 
n/a

>  <FINAL_SINGLE_POINT_ENERGY>  (181) 
0

>  <NONCOV_INTER_ENERGY_QM>  (181) 
0

>  <FF_Energy>  (181) 
7.54

>  <QM_Energy>  (181) 
-0.71

>  <source>  (181) 
ETAM_MBZ

>  <Index>  (181) 
1788

$$$$
ETAM-pdb2cx4-B-LYS-136:MBZ-pdb2cx4-B-PHE-125
     RDKit          3D

 26 25  0  0  0  0  0  0  0  0999 V2000
    3.3562   -1.1239    2.9936 C   0  0  0  0  0  0  0  0  0  0  0  0
    3.8633   -0.6053    2.3080 H   0  0  0  0  0  0  0  0  0  0  0  0
    3.9588   -1.3630    3.7519 H   0  0  0  0  0  0  0  0  0  0  0  0
    2.5353   -0.5125    3.3683 H   0  0  0  0  0  0  0  0  0  0  0  0
    2.8491   -2.3912    2.3623 C   0  0  0  0  0  0  0  0  0  0  0  0
    2.2495   -2.8693    3.0075 H   0  0  0  0  0  0  0  0  0  0  0  0
    2.3300   -2.1682    1.5353 H   0  0  0  0  0  0  0  0  0  0  0  0
    3.9776   -3.2958    1.9928 N   0  0  0  0  0  4  0  0  0  0  0  0
    4.1781   -3.1911    1.0201 H   0  0  0  0  0  0  0  0  0  0  0  0
    4.7831   -3.0536    2.5309 H   0  0  0  0  0  0  0  0  0  0  0  0
    3.7172   -4.2412    2.1830 H   0  0  0  0  0  0  0  0  0  0  0  0
    0.0065    2.8979   -0.0706 C   0  0  0  0  0  0  0  0  0  0  0  0
   -0.6406    3.1768   -0.7683 H   0  0  0  0  0  0  0  0  0  0  0  0
    0.9247    3.1923   -0.3045 H   0  0  0  0  0  0  0  0  0  0  0  0
   -0.2735    3.3922    0.8597 H   0  0  0  0  0  0  0  0  0  0  0  0
   -0.0001    1.4045   -0.0015 C   0  0  0  0  0  0  0  0  0  0  0  0
   -1.1995    0.6971    0.0016 C   0  0  0  0  0  0  0  0  0  0  0  0
   -2.0653    1.1858    0.0034 H   0  0  0  0  0  0  0  0  0  0  0  0
   -1.2037   -0.6985    0.0000 C   0  0  0  0  0  0  0  0  0  0  0  0
   -2.0793   -1.1920    0.0023 H   0  0  0  0  0  0  0  0  0  0  0  0
    0.0022   -1.3982   -0.0031 C   0  0  0  0  0  0  0  0  0  0  0  0
   -0.0028   -2.3949   -0.0077 H   0  0  0  0  0  0  0  0  0  0  0  0
    1.2037   -0.6989    0.0000 C   0  0  0  0  0  0  0  0  0  0  0  0
    2.0858   -1.1949    0.0013 H   0  0  0  0  0  0  0  0  0  0  0  0
    1.1974    0.6940    0.0030 C   0  0  0  0  0  0  0  0  0  0  0  0
    2.0663    1.1906    0.0075 H   0  0  0  0  0  0  0  0  0  0  0  0
  1  5  1  0
  5  8  1  0
  1  2  1  0
  1  3  1  0
  1  4  1  0
  5  6  1  0
  5  7  1  0
  8  9  1  0
  8 10  1  0
  8 11  1  0
 12 16  1  0
 16 17  2  0
 17 19  1  0
 19 21  2  0
 21 23  1  0
 23 25  2  0
 25 16  1  0
 12 13  1  0
 12 14  1  0
 12 15  1  0
 17 18  1  0
 19 20  1  0
 21 22  1  0
 23 24  1  0
 25 26  1  0
M  CHG  1   8   1
M  END
>  <PDB_ID>  (182) 
pdb2cx4

>  <RESIDUE_NAME>  (182) 
LYS   PHE

>  <FRAG_NAME>  (182) 
ETAM   MBZ

>  <FRAG_ATOM_NUM>  (182) 
fragi: 11  fragj: 15

>  <atom.prop.CHAIN_ID>  (182) 
A A A A A A A A A A A Z Z Z Z Z Z Z Z Z Z Z Z Z Z Z

>  <atom.prop.IS_HEAVY_ATOM>  (182) 
1 0 0 0 1 0 0 1 0 0 0 1 0 0 0 1 1 0 1 0 1 0 1 0 1 0

>  <DIFUSE_FUNC_ATOM>  (182) 
n/a

>  <FINAL_SINGLE_POINT_ENERGY>  (182) 
0

>  <NONCOV_INTER_ENERGY_QM>  (182) 
0

>  <FF_Energy>  (182) 
4.01

>  <QM_Energy>  (182) 
-2.93

>  <source>  (182) 
ETAM_MBZ

>  <Index>  (182) 
1789

$$$$
ETAM-pdb1cdo-A-LYS-363:MBZ-pdb1cdo-A-PHE-54
     RDKit          3D

 26 25  0  0  0  0  0  0  0  0999 V2000
    2.3855   -0.8654    3.6123 C   0  0  0  0  0  0  0  0  0  0  0  0
    2.8100   -0.1620    3.0520 H   0  0  0  0  0  0  0  0  0  0  0  0
    2.1777   -1.6683    3.0650 H   0  0  0  0  0  0  0  0  0  0  0  0
    3.0789   -1.1486    4.4042 H   0  0  0  0  0  0  0  0  0  0  0  0
    1.0832   -0.3146    4.1808 C   0  0  0  0  0  0  0  0  0  0  0  0
    0.6050   -1.0529    4.6712 H   0  0  0  0  0  0  0  0  0  0  0  0
    1.2996    0.4149    4.8399 H   0  0  0  0  0  0  0  0  0  0  0  0
    0.1808    0.2337    3.1272 N   0  0  0  0  0  4  0  0  0  0  0  0
   -0.3850    0.9568    3.5217 H   0  0  0  0  0  0  0  0  0  0  0  0
    0.7322    0.6068    2.3819 H   0  0  0  0  0  0  0  0  0  0  0  0
   -0.4027   -0.4986    2.7790 H   0  0  0  0  0  0  0  0  0  0  0  0
    0.0090    2.9132    0.0556 C   0  0  0  0  0  0  0  0  0  0  0  0
    0.9441    3.2165   -0.0648 H   0  0  0  0  0  0  0  0  0  0  0  0
   -0.3430    3.1869    0.9396 H   0  0  0  0  0  0  0  0  0  0  0  0
   -0.5989    3.3962   -0.7094 H   0  0  0  0  0  0  0  0  0  0  0  0
    0.0003    1.4042    0.0008 C   0  0  0  0  0  0  0  0  0  0  0  0
   -1.1967    0.6964   -0.0006 C   0  0  0  0  0  0  0  0  0  0  0  0
   -2.0631    1.1880   -0.0028 H   0  0  0  0  0  0  0  0  0  0  0  0
   -1.2047   -0.6946    0.0000 C   0  0  0  0  0  0  0  0  0  0  0  0
   -2.0808   -1.1874    0.0012 H   0  0  0  0  0  0  0  0  0  0  0  0
   -0.0016   -1.3960    0.0008 C   0  0  0  0  0  0  0  0  0  0  0  0
   -0.0094   -2.3937    0.0012 H   0  0  0  0  0  0  0  0  0  0  0  0
    1.2047   -0.7023   -0.0000 C   0  0  0  0  0  0  0  0  0  0  0  0
    2.0824   -1.1991    0.0013 H   0  0  0  0  0  0  0  0  0  0  0  0
    1.1979    0.6923   -0.0010 C   0  0  0  0  0  0  0  0  0  0  0  0
    2.0664    1.1886   -0.0042 H   0  0  0  0  0  0  0  0  0  0  0  0
  1  5  1  0
  5  8  1  0
  1  2  1  0
  1  3  1  0
  1  4  1  0
  5  6  1  0
  5  7  1  0
  8  9  1  0
  8 10  1  0
  8 11  1  0
 12 16  1  0
 16 17  2  0
 17 19  1  0
 19 21  2  0
 21 23  1  0
 23 25  2  0
 25 16  1  0
 12 13  1  0
 12 14  1  0
 12 15  1  0
 17 18  1  0
 19 20  1  0
 21 22  1  0
 23 24  1  0
 25 26  1  0
M  CHG  1   8   1
M  END
>  <PDB_ID>  (183) 
pdb1cdo

>  <RESIDUE_NAME>  (183) 
LYS   PHE

>  <FRAG_NAME>  (183) 
ETAM   MBZ

>  <FRAG_ATOM_NUM>  (183) 
fragi: 11  fragj: 15

>  <atom.prop.CHAIN_ID>  (183) 
A A A A A A A A A A A Z Z Z Z Z Z Z Z Z Z Z Z Z Z Z

>  <atom.prop.IS_HEAVY_ATOM>  (183) 
1 0 0 0 1 0 0 1 0 0 0 1 0 0 0 1 1 0 1 0 1 0 1 0 1 0

>  <DIFUSE_FUNC_ATOM>  (183) 
n/a

>  <FINAL_SINGLE_POINT_ENERGY>  (183) 
0

>  <NONCOV_INTER_ENERGY_QM>  (183) 
0

>  <FF_Energy>  (183) 
-9.68

>  <QM_Energy>  (183) 
-17.21

>  <source>  (183) 
ETAM_MBZ

>  <Index>  (183) 
1799

$$$$
ETAM-pdb2cyc-A-LYS-247:MBZ-pdb2cyc-A-PHE-243
     RDKit          3D

 26 25  0  0  0  0  0  0  0  0999 V2000
    0.6008   -1.2496   -3.9477 C   0  0  0  0  0  0  0  0  0  0  0  0
    0.5221   -1.8753   -4.7197 H   0  0  0  0  0  0  0  0  0  0  0  0
    0.7409   -1.7646   -3.1055 H   0  0  0  0  0  0  0  0  0  0  0  0
    1.4641   -0.6042   -4.1101 H   0  0  0  0  0  0  0  0  0  0  0  0
   -0.6897   -0.4596   -3.8262 C   0  0  0  0  0  0  0  0  0  0  0  0
   -0.6267    0.1499   -3.0312 H   0  0  0  0  0  0  0  0  0  0  0  0
   -0.8109    0.0989   -4.6527 H   0  0  0  0  0  0  0  0  0  0  0  0
   -1.8767   -1.3499   -3.6635 N   0  0  0  0  0  4  0  0  0  0  0  0
   -2.0881   -1.7800   -4.5396 H   0  0  0  0  0  0  0  0  0  0  0  0
   -1.6709   -2.0533   -2.9844 H   0  0  0  0  0  0  0  0  0  0  0  0
   -2.6569   -0.8058   -3.3585 H   0  0  0  0  0  0  0  0  0  0  0  0
   -0.0129    2.9055    0.0233 C   0  0  0  0  0  0  0  0  0  0  0  0
    0.0801    3.1998    0.9651 H   0  0  0  0  0  0  0  0  0  0  0  0
   -0.8737    3.2109   -0.3604 H   0  0  0  0  0  0  0  0  0  0  0  0
    0.7890    3.3710   -0.5497 H   0  0  0  0  0  0  0  0  0  0  0  0
    0.0005    1.4049   -0.0000 C   0  0  0  0  0  0  0  0  0  0  0  0
   -1.1992    0.6928    0.0006 C   0  0  0  0  0  0  0  0  0  0  0  0
   -2.0651    1.1846    0.0005 H   0  0  0  0  0  0  0  0  0  0  0  0
   -1.2066   -0.7001    0.0000 C   0  0  0  0  0  0  0  0  0  0  0  0
   -2.0816   -1.1920    0.0018 H   0  0  0  0  0  0  0  0  0  0  0  0
   -0.0026   -1.3978   -0.0010 C   0  0  0  0  0  0  0  0  0  0  0  0
   -0.0043   -2.3950   -0.0029 H   0  0  0  0  0  0  0  0  0  0  0  0
    1.2066   -0.6980   -0.0000 C   0  0  0  0  0  0  0  0  0  0  0  0
    2.0846   -1.1957    0.0024 H   0  0  0  0  0  0  0  0  0  0  0  0
    1.2013    0.6983    0.0004 C   0  0  0  0  0  0  0  0  0  0  0  0
    2.0673    1.1937    0.0006 H   0  0  0  0  0  0  0  0  0  0  0  0
  1  5  1  0
  5  8  1  0
  1  2  1  0
  1  3  1  0
  1  4  1  0
  5  6  1  0
  5  7  1  0
  8  9  1  0
  8 10  1  0
  8 11  1  0
 12 16  1  0
 16 17  2  0
 17 19  1  0
 19 21  2  0
 21 23  1  0
 23 25  2  0
 25 16  1  0
 12 13  1  0
 12 14  1  0
 12 15  1  0
 17 18  1  0
 19 20  1  0
 21 22  1  0
 23 24  1  0
 25 26  1  0
M  CHG  1   8   1
M  END
>  <PDB_ID>  (184) 
pdb2cyc

>  <RESIDUE_NAME>  (184) 
LYS   PHE

>  <FRAG_NAME>  (184) 
ETAM   MBZ

>  <FRAG_ATOM_NUM>  (184) 
fragi: 11  fragj: 15

>  <atom.prop.CHAIN_ID>  (184) 
A A A A A A A A A A A Z Z Z Z Z Z Z Z Z Z Z Z Z Z Z

>  <atom.prop.IS_HEAVY_ATOM>  (184) 
1 0 0 0 1 0 0 1 0 0 0 1 0 0 0 1 1 0 1 0 1 0 1 0 1 0

>  <DIFUSE_FUNC_ATOM>  (184) 
n/a

>  <FINAL_SINGLE_POINT_ENERGY>  (184) 
0

>  <NONCOV_INTER_ENERGY_QM>  (184) 
0

>  <FF_Energy>  (184) 
-5.1

>  <QM_Energy>  (184) 
-10.29

>  <source>  (184) 
ETAM_MBZ

>  <Index>  (184) 
1802

$$$$
ETAM-pdb2cyc-B-LYS-247:MBZ-pdb2cyc-B-PHE-243
     RDKit          3D

 26 25  0  0  0  0  0  0  0  0999 V2000
   -0.6816   -1.3051   -4.0941 C   0  0  0  0  0  0  0  0  0  0  0  0
   -0.9750   -1.9144   -4.8287 H   0  0  0  0  0  0  0  0  0  0  0  0
   -0.2537   -1.8371   -3.3650 H   0  0  0  0  0  0  0  0  0  0  0  0
    0.0535   -0.6070   -4.4946 H   0  0  0  0  0  0  0  0  0  0  0  0
   -1.8969   -0.6003   -3.5318 C   0  0  0  0  0  0  0  0  0  0  0  0
   -1.6028    0.0649   -2.8425 H   0  0  0  0  0  0  0  0  0  0  0  0
   -2.3702   -0.1177   -4.2719 H   0  0  0  0  0  0  0  0  0  0  0  0
   -2.8408   -1.5679   -2.9015 N   0  0  0  0  0  4  0  0  0  0  0  0
   -2.8382   -1.4342   -1.9113 H   0  0  0  0  0  0  0  0  0  0  0  0
   -3.7609   -1.4128   -3.2592 H   0  0  0  0  0  0  0  0  0  0  0  0
   -2.5505   -2.4995   -3.1155 H   0  0  0  0  0  0  0  0  0  0  0  0
   -0.0083    2.8992    0.0433 C   0  0  0  0  0  0  0  0  0  0  0  0
    0.4553    3.1895    0.8703 H   0  0  0  0  0  0  0  0  0  0  0  0
   -0.9514    3.2034    0.0422 H   0  0  0  0  0  0  0  0  0  0  0  0
    0.4917    3.3771   -0.7990 H   0  0  0  0  0  0  0  0  0  0  0  0
    0.0013    1.4039    0.0012 C   0  0  0  0  0  0  0  0  0  0  0  0
   -1.2014    0.6921   -0.0007 C   0  0  0  0  0  0  0  0  0  0  0  0
   -2.0664    1.1838   -0.0035 H   0  0  0  0  0  0  0  0  0  0  0  0
   -1.2090   -0.7032   -0.0000 C   0  0  0  0  0  0  0  0  0  0  0  0
   -2.0825   -1.1958    0.0025 H   0  0  0  0  0  0  0  0  0  0  0  0
   -0.0017   -1.3983   -0.0003 C   0  0  0  0  0  0  0  0  0  0  0  0
    0.0001   -2.3945   -0.0009 H   0  0  0  0  0  0  0  0  0  0  0  0
    1.2090   -0.6941    0.0000 C   0  0  0  0  0  0  0  0  0  0  0  0
    2.0868   -1.1932    0.0017 H   0  0  0  0  0  0  0  0  0  0  0  0
    1.2018    0.6995   -0.0002 C   0  0  0  0  0  0  0  0  0  0  0  0
    2.0674    1.1968   -0.0015 H   0  0  0  0  0  0  0  0  0  0  0  0
  1  5  1  0
  5  8  1  0
  1  2  1  0
  1  3  1  0
  1  4  1  0
  5  6  1  0
  5  7  1  0
  8  9  1  0
  8 10  1  0
  8 11  1  0
 12 16  1  0
 16 17  2  0
 17 19  1  0
 19 21  2  0
 21 23  1  0
 23 25  2  0
 25 16  1  0
 12 13  1  0
 12 14  1  0
 12 15  1  0
 17 18  1  0
 19 20  1  0
 21 22  1  0
 23 24  1  0
 25 26  1  0
M  CHG  1   8   1
M  END
>  <PDB_ID>  (185) 
pdb2cyc

>  <RESIDUE_NAME>  (185) 
LYS   PHE

>  <FRAG_NAME>  (185) 
ETAM   MBZ

>  <FRAG_ATOM_NUM>  (185) 
fragi: 11  fragj: 15

>  <atom.prop.CHAIN_ID>  (185) 
A A A A A A A A A A A Z Z Z Z Z Z Z Z Z Z Z Z Z Z Z

>  <atom.prop.IS_HEAVY_ATOM>  (185) 
1 0 0 0 1 0 0 1 0 0 0 1 0 0 0 1 1 0 1 0 1 0 1 0 1 0

>  <DIFUSE_FUNC_ATOM>  (185) 
n/a

>  <FINAL_SINGLE_POINT_ENERGY>  (185) 
0

>  <NONCOV_INTER_ENERGY_QM>  (185) 
0

>  <FF_Energy>  (185) 
-3.15

>  <QM_Energy>  (185) 
-9.58

>  <source>  (185) 
ETAM_MBZ

>  <Index>  (185) 
1804

$$$$
ETAM-pdb1cb7-B-LYS-322:MBZ-pdb1cb7-B-PHE-48
     RDKit          3D

 26 25  0  0  0  0  0  0  0  0999 V2000
   -3.0647   -4.3897   -0.2405 C   0  0  0  0  0  0  0  0  0  0  0  0
   -2.1435   -4.1444   -0.5424 H   0  0  0  0  0  0  0  0  0  0  0  0
   -3.6897   -3.6324   -0.4224 H   0  0  0  0  0  0  0  0  0  0  0  0
   -3.3963   -5.2595   -0.8076 H   0  0  0  0  0  0  0  0  0  0  0  0
   -3.0322   -4.6411    1.2606 C   0  0  0  0  0  0  0  0  0  0  0  0
   -3.9580   -4.5507    1.6271 H   0  0  0  0  0  0  0  0  0  0  0  0
   -2.6950   -5.5669    1.4294 H   0  0  0  0  0  0  0  0  0  0  0  0
   -2.1352   -3.6614    1.9551 N   0  0  0  0  0  4  0  0  0  0  0  0
   -2.6833   -3.0913    2.5631 H   0  0  0  0  0  0  0  0  0  0  0  0
   -1.4528   -4.1614    2.4837 H   0  0  0  0  0  0  0  0  0  0  0  0
   -1.6835   -3.0914    1.2715 H   0  0  0  0  0  0  0  0  0  0  0  0
   -0.0345    2.9122   -0.0319 C   0  0  0  0  0  0  0  0  0  0  0  0
    0.8835    3.2280    0.1489 H   0  0  0  0  0  0  0  0  0  0  0  0
   -0.6645    3.2106    0.6682 H   0  0  0  0  0  0  0  0  0  0  0  0
   -0.3585    3.3359   -0.9825 H   0  0  0  0  0  0  0  0  0  0  0  0
   -0.0096    1.3928   -0.0094 C   0  0  0  0  0  0  0  0  0  0  0  0
   -1.1936    0.6735   -0.0202 C   0  0  0  0  0  0  0  0  0  0  0  0
   -2.0677    1.1643   -0.0439 H   0  0  0  0  0  0  0  0  0  0  0  0
   -1.1959   -0.7047    0.0000 C   0  0  0  0  0  0  0  0  0  0  0  0
   -2.0664   -1.2067   -0.0011 H   0  0  0  0  0  0  0  0  0  0  0  0
    0.0098   -1.3840    0.0232 C   0  0  0  0  0  0  0  0  0  0  0  0
    0.0144   -2.3854    0.0560 H   0  0  0  0  0  0  0  0  0  0  0  0
    1.1959   -0.6799   -0.0000 C   0  0  0  0  0  0  0  0  0  0  0  0
    2.0856   -1.1767   -0.0206 H   0  0  0  0  0  0  0  0  0  0  0  0
    1.1934    0.7024    0.0064 C   0  0  0  0  0  0  0  0  0  0  0  0
    2.0541    1.2037    0.0217 H   0  0  0  0  0  0  0  0  0  0  0  0
  1  5  1  0
  5  8  1  0
  1  2  1  0
  1  3  1  0
  1  4  1  0
  5  6  1  0
  5  7  1  0
  8  9  1  0
  8 10  1  0
  8 11  1  0
 12 16  1  0
 16 17  2  0
 17 19  1  0
 19 21  2  0
 21 23  1  0
 23 25  2  0
 25 16  1  0
 12 13  1  0
 12 14  1  0
 12 15  1  0
 17 18  1  0
 19 20  1  0
 21 22  1  0
 23 24  1  0
 25 26  1  0
M  CHG  1   8   1
M  END
>  <PDB_ID>  (186) 
pdb1cb7

>  <RESIDUE_NAME>  (186) 
LYS   PHE

>  <FRAG_NAME>  (186) 
ETAM   MBZ

>  <FRAG_ATOM_NUM>  (186) 
fragi: 11  fragj: 15

>  <atom.prop.CHAIN_ID>  (186) 
A A A A A A A A A A A Z Z Z Z Z Z Z Z Z Z Z Z Z Z Z

>  <atom.prop.IS_HEAVY_ATOM>  (186) 
1 0 0 0 1 0 0 1 0 0 0 1 0 0 0 1 1 0 1 0 1 0 1 0 1 0

>  <DIFUSE_FUNC_ATOM>  (186) 
n/a

>  <FINAL_SINGLE_POINT_ENERGY>  (186) 
0

>  <NONCOV_INTER_ENERGY_QM>  (186) 
0

>  <FF_Energy>  (186) 
-0.49

>  <QM_Energy>  (186) 
-6.12

>  <source>  (186) 
ETAM_MBZ

>  <Index>  (186) 
1806

$$$$
ETAM-pdb2cx4-C-LYS-136:MBZ-pdb2cx4-C-PHE-125
     RDKit          3D

 26 25  0  0  0  0  0  0  0  0999 V2000
    3.4178   -1.8887    2.3497 C   0  0  0  0  0  0  0  0  0  0  0  0
    3.8082   -1.3726    1.6006 H   0  0  0  0  0  0  0  0  0  0  0  0
    4.1246   -2.2386    2.9484 H   0  0  0  0  0  0  0  0  0  0  0  0
    2.7513   -1.2427    2.9211 H   0  0  0  0  0  0  0  0  0  0  0  0
    2.6456   -3.0730    1.7699 C   0  0  0  0  0  0  0  0  0  0  0  0
    2.1967   -3.5708    2.5317 H   0  0  0  0  0  0  0  0  0  0  0  0
    1.9088   -2.7168    1.1701 H   0  0  0  0  0  0  0  0  0  0  0  0
    3.4768   -4.0433    0.9860 N   0  0  0  0  0  4  0  0  0  0  0  0
    3.5381   -3.7304    0.0404 H   0  0  0  0  0  0  0  0  0  0  0  0
    4.3892   -4.0901    1.3881 H   0  0  0  0  0  0  0  0  0  0  0  0
    3.0462   -4.9427    1.0182 H   0  0  0  0  0  0  0  0  0  0  0  0
    0.0108    2.8976   -0.0562 C   0  0  0  0  0  0  0  0  0  0  0  0
   -0.6924    3.1852   -0.6933 H   0  0  0  0  0  0  0  0  0  0  0  0
    0.9070    3.1873   -0.3671 H   0  0  0  0  0  0  0  0  0  0  0  0
   -0.1850    3.3826    0.9002 H   0  0  0  0  0  0  0  0  0  0  0  0
    0.0012    1.4012   -0.0011 C   0  0  0  0  0  0  0  0  0  0  0  0
   -1.1939    0.6952    0.0023 C   0  0  0  0  0  0  0  0  0  0  0  0
   -2.0610    1.1822    0.0050 H   0  0  0  0  0  0  0  0  0  0  0  0
   -1.1981   -0.7000    0.0000 C   0  0  0  0  0  0  0  0  0  0  0  0
   -2.0775   -1.1898    0.0011 H   0  0  0  0  0  0  0  0  0  0  0  0
   -0.0015   -1.3933   -0.0019 C   0  0  0  0  0  0  0  0  0  0  0  0
   -0.0017   -2.3926   -0.0052 H   0  0  0  0  0  0  0  0  0  0  0  0
    1.1981   -0.6947   -0.0000 C   0  0  0  0  0  0  0  0  0  0  0  0
    2.0796   -1.1942    0.0024 H   0  0  0  0  0  0  0  0  0  0  0  0
    1.1942    0.6916    0.0008 C   0  0  0  0  0  0  0  0  0  0  0  0
    2.0647    1.1884    0.0021 H   0  0  0  0  0  0  0  0  0  0  0  0
  1  5  1  0
  5  8  1  0
  1  2  1  0
  1  3  1  0
  1  4  1  0
  5  6  1  0
  5  7  1  0
  8  9  1  0
  8 10  1  0
  8 11  1  0
 12 16  1  0
 16 17  2  0
 17 19  1  0
 19 21  2  0
 21 23  1  0
 23 25  2  0
 25 16  1  0
 12 13  1  0
 12 14  1  0
 12 15  1  0
 17 18  1  0
 19 20  1  0
 21 22  1  0
 23 24  1  0
 25 26  1  0
M  CHG  1   8   1
M  END
>  <PDB_ID>  (187) 
pdb2cx4

>  <RESIDUE_NAME>  (187) 
LYS   PHE

>  <FRAG_NAME>  (187) 
ETAM   MBZ

>  <FRAG_ATOM_NUM>  (187) 
fragi: 11  fragj: 15

>  <atom.prop.CHAIN_ID>  (187) 
A A A A A A A A A A A Z Z Z Z Z Z Z Z Z Z Z Z Z Z Z

>  <atom.prop.IS_HEAVY_ATOM>  (187) 
1 0 0 0 1 0 0 1 0 0 0 1 0 0 0 1 1 0 1 0 1 0 1 0 1 0

>  <DIFUSE_FUNC_ATOM>  (187) 
n/a

>  <FINAL_SINGLE_POINT_ENERGY>  (187) 
0

>  <NONCOV_INTER_ENERGY_QM>  (187) 
0

>  <FF_Energy>  (187) 
4.14

>  <QM_Energy>  (187) 
-2.8

>  <source>  (187) 
ETAM_MBZ

>  <Index>  (187) 
1817

$$$$
ETAM-pdb2czc-A-LYS-45:MBZ-pdb2czc-A-PHE-67
     RDKit          3D

 26 25  0  0  0  0  0  0  0  0999 V2000
   -0.3640   -2.7364    4.0874 C   0  0  0  0  0  0  0  0  0  0  0  0
   -1.2117   -2.3984    3.7042 H   0  0  0  0  0  0  0  0  0  0  0  0
   -0.2456   -2.4329    5.0214 H   0  0  0  0  0  0  0  0  0  0  0  0
   -0.3791   -3.8262    4.0687 H   0  0  0  0  0  0  0  0  0  0  0  0
    0.8049   -2.1796    3.2455 C   0  0  0  0  0  0  0  0  0  0  0  0
    1.6464   -2.6260    3.5366 H   0  0  0  0  0  0  0  0  0  0  0  0
    0.6272   -2.3776    2.2861 H   0  0  0  0  0  0  0  0  0  0  0  0
    0.9373   -0.6984    3.4318 N   0  0  0  0  0  4  0  0  0  0  0  0
    1.8940   -0.4759    3.6079 H   0  0  0  0  0  0  0  0  0  0  0  0
    0.6289   -0.2362    2.6031 H   0  0  0  0  0  0  0  0  0  0  0  0
    0.3754   -0.4159    4.2064 H   0  0  0  0  0  0  0  0  0  0  0  0
   -0.0028    2.9093   -0.0179 C   0  0  0  0  0  0  0  0  0  0  0  0
   -0.9287    3.2088   -0.1913 H   0  0  0  0  0  0  0  0  0  0  0  0
    0.6116    3.2050   -0.7331 H   0  0  0  0  0  0  0  0  0  0  0  0
    0.3272    3.3623    0.9170 H   0  0  0  0  0  0  0  0  0  0  0  0
    0.0003    1.4013   -0.0002 C   0  0  0  0  0  0  0  0  0  0  0  0
   -1.1956    0.6977    0.0001 C   0  0  0  0  0  0  0  0  0  0  0  0
   -2.0618    1.1889   -0.0011 H   0  0  0  0  0  0  0  0  0  0  0  0
   -1.2022   -0.6923   -0.0000 C   0  0  0  0  0  0  0  0  0  0  0  0
   -2.0799   -1.1849    0.0010 H   0  0  0  0  0  0  0  0  0  0  0  0
   -0.0016   -1.3920    0.0005 C   0  0  0  0  0  0  0  0  0  0  0  0
   -0.0118   -2.3923    0.0010 H   0  0  0  0  0  0  0  0  0  0  0  0
    1.2022   -0.7046    0.0000 C   0  0  0  0  0  0  0  0  0  0  0  0
    2.0810   -1.2007    0.0017 H   0  0  0  0  0  0  0  0  0  0  0  0
    1.1969    0.6899   -0.0003 C   0  0  0  0  0  0  0  0  0  0  0  0
    2.0659    1.1844   -0.0013 H   0  0  0  0  0  0  0  0  0  0  0  0
  1  5  1  0
  5  8  1  0
  1  2  1  0
  1  3  1  0
  1  4  1  0
  5  6  1  0
  5  7  1  0
  8  9  1  0
  8 10  1  0
  8 11  1  0
 12 16  1  0
 16 17  2  0
 17 19  1  0
 19 21  2  0
 21 23  1  0
 23 25  2  0
 25 16  1  0
 12 13  1  0
 12 14  1  0
 12 15  1  0
 17 18  1  0
 19 20  1  0
 21 22  1  0
 23 24  1  0
 25 26  1  0
M  CHG  1   8   1
M  END
>  <PDB_ID>  (188) 
pdb2czc

>  <RESIDUE_NAME>  (188) 
LYS   PHE

>  <FRAG_NAME>  (188) 
ETAM   MBZ

>  <FRAG_ATOM_NUM>  (188) 
fragi: 11  fragj: 15

>  <atom.prop.CHAIN_ID>  (188) 
A A A A A A A A A A A Z Z Z Z Z Z Z Z Z Z Z Z Z Z Z

>  <atom.prop.IS_HEAVY_ATOM>  (188) 
1 0 0 0 1 0 0 1 0 0 0 1 0 0 0 1 1 0 1 0 1 0 1 0 1 0

>  <DIFUSE_FUNC_ATOM>  (188) 
n/a

>  <FINAL_SINGLE_POINT_ENERGY>  (188) 
0

>  <NONCOV_INTER_ENERGY_QM>  (188) 
0

>  <FF_Energy>  (188) 
-6.61

>  <QM_Energy>  (188) 
-13.8

>  <source>  (188) 
ETAM_MBZ

>  <Index>  (188) 
1836

$$$$
ETAM-pdb2czc-B-LYS-45:MBZ-pdb2czc-B-PHE-67
     RDKit          3D

 26 25  0  0  0  0  0  0  0  0999 V2000
   -0.8335   -2.4262    4.0611 C   0  0  0  0  0  0  0  0  0  0  0  0
   -1.5583   -2.0661    3.4902 H   0  0  0  0  0  0  0  0  0  0  0  0
   -0.8794   -2.0498    4.9759 H   0  0  0  0  0  0  0  0  0  0  0  0
   -0.9395   -3.5095    4.1203 H   0  0  0  0  0  0  0  0  0  0  0  0
    0.5068   -2.0507    3.4445 C   0  0  0  0  0  0  0  0  0  0  0  0
    1.2423   -2.4624    3.9926 H   0  0  0  0  0  0  0  0  0  0  0  0
    0.5526   -2.4284    2.5133 H   0  0  0  0  0  0  0  0  0  0  0  0
    0.7073   -0.5789    3.3851 N   0  0  0  0  0  4  0  0  0  0  0  0
   -0.1807   -0.1208    3.4171 H   0  0  0  0  0  0  0  0  0  0  0  0
    1.2616   -0.2871    4.1640 H   0  0  0  0  0  0  0  0  0  0  0  0
    1.1751   -0.3406    2.5337 H   0  0  0  0  0  0  0  0  0  0  0  0
   -0.0018    2.9091   -0.0294 C   0  0  0  0  0  0  0  0  0  0  0  0
   -0.9051    3.2113   -0.2957 H   0  0  0  0  0  0  0  0  0  0  0  0
    0.6813    3.2030   -0.6816 H   0  0  0  0  0  0  0  0  0  0  0  0
    0.2335    3.3720    0.9290 H   0  0  0  0  0  0  0  0  0  0  0  0
   -0.0017    1.4060   -0.0007 C   0  0  0  0  0  0  0  0  0  0  0  0
   -1.1935    0.6976    0.0007 C   0  0  0  0  0  0  0  0  0  0  0  0
   -2.0636    1.1817    0.0006 H   0  0  0  0  0  0  0  0  0  0  0  0
   -1.1957   -0.7002   -0.0000 C   0  0  0  0  0  0  0  0  0  0  0  0
   -2.0733   -1.1915    0.0024 H   0  0  0  0  0  0  0  0  0  0  0  0
    0.0057   -1.3979   -0.0024 C   0  0  0  0  0  0  0  0  0  0  0  0
   -0.0024   -2.3959   -0.0061 H   0  0  0  0  0  0  0  0  0  0  0  0
    1.1957   -0.7027    0.0000 C   0  0  0  0  0  0  0  0  0  0  0  0
    2.0828   -1.1909    0.0015 H   0  0  0  0  0  0  0  0  0  0  0  0
    1.1895    0.6972    0.0024 C   0  0  0  0  0  0  0  0  0  0  0  0
    2.0617    1.1877    0.0053 H   0  0  0  0  0  0  0  0  0  0  0  0
  1  5  1  0
  5  8  1  0
  1  2  1  0
  1  3  1  0
  1  4  1  0
  5  6  1  0
  5  7  1  0
  8  9  1  0
  8 10  1  0
  8 11  1  0
 12 16  1  0
 16 17  2  0
 17 19  1  0
 19 21  2  0
 21 23  1  0
 23 25  2  0
 25 16  1  0
 12 13  1  0
 12 14  1  0
 12 15  1  0
 17 18  1  0
 19 20  1  0
 21 22  1  0
 23 24  1  0
 25 26  1  0
M  CHG  1   8   1
M  END
>  <PDB_ID>  (189) 
pdb2czc

>  <RESIDUE_NAME>  (189) 
LYS   PHE

>  <FRAG_NAME>  (189) 
ETAM   MBZ

>  <FRAG_ATOM_NUM>  (189) 
fragi: 11  fragj: 15

>  <atom.prop.CHAIN_ID>  (189) 
A A A A A A A A A A A Z Z Z Z Z Z Z Z Z Z Z Z Z Z Z

>  <atom.prop.IS_HEAVY_ATOM>  (189) 
1 0 0 0 1 0 0 1 0 0 0 1 0 0 0 1 1 0 1 0 1 0 1 0 1 0

>  <DIFUSE_FUNC_ATOM>  (189) 
n/a

>  <FINAL_SINGLE_POINT_ENERGY>  (189) 
0

>  <NONCOV_INTER_ENERGY_QM>  (189) 
0

>  <FF_Energy>  (189) 
-7.63

>  <QM_Energy>  (189) 
-15.06

>  <source>  (189) 
ETAM_MBZ

>  <Index>  (189) 
1844

$$$$
ETAM-pdb2czq-A-LYS-156:MBZ-pdb2czq-A-PHE-105
     RDKit          3D

 26 25  0  0  0  0  0  0  0  0999 V2000
   -0.9340   -2.5798    4.5723 C   0  0  0  0  0  0  0  0  0  0  0  0
   -0.8801   -2.0812    5.4296 H   0  0  0  0  0  0  0  0  0  0  0  0
   -0.0881   -3.0704    4.3988 H   0  0  0  0  0  0  0  0  0  0  0  0
   -1.7532   -3.2965    4.6312 H   0  0  0  0  0  0  0  0  0  0  0  0
   -1.1625   -1.5909    3.4468 C   0  0  0  0  0  0  0  0  0  0  0  0
   -1.1617   -2.0833    2.5719 H   0  0  0  0  0  0  0  0  0  0  0  0
   -2.0578   -1.1527    3.5703 H   0  0  0  0  0  0  0  0  0  0  0  0
   -0.1072   -0.5343    3.4087 N   0  0  0  0  0  4  0  0  0  0  0  0
    0.6713   -0.8666    2.8794 H   0  0  0  0  0  0  0  0  0  0  0  0
   -0.4800    0.2876    2.9802 H   0  0  0  0  0  0  0  0  0  0  0  0
    0.1828   -0.3259    4.3409 H   0  0  0  0  0  0  0  0  0  0  0  0
   -0.0125    2.9020    0.0039 C   0  0  0  0  0  0  0  0  0  0  0  0
   -0.7602    3.2073   -0.5632 H   0  0  0  0  0  0  0  0  0  0  0  0
    0.8568    3.2186   -0.3401 H   0  0  0  0  0  0  0  0  0  0  0  0
   -0.1527    3.3264    0.9981 H   0  0  0  0  0  0  0  0  0  0  0  0
   -0.0008    1.4020   -0.0065 C   0  0  0  0  0  0  0  0  0  0  0  0
   -1.1963    0.6915    0.0040 C   0  0  0  0  0  0  0  0  0  0  0  0
   -2.0635    1.1833    0.0136 H   0  0  0  0  0  0  0  0  0  0  0  0
   -1.2022   -0.6956    0.0000 C   0  0  0  0  0  0  0  0  0  0  0  0
   -2.0797   -1.1903   -0.0039 H   0  0  0  0  0  0  0  0  0  0  0  0
   -0.0021   -1.3939    0.0025 C   0  0  0  0  0  0  0  0  0  0  0  0
   -0.0068   -2.3925    0.0059 H   0  0  0  0  0  0  0  0  0  0  0  0
    1.2022   -0.6984   -0.0000 C   0  0  0  0  0  0  0  0  0  0  0  0
    2.0822   -1.1972   -0.0004 H   0  0  0  0  0  0  0  0  0  0  0  0
    1.1992    0.6945   -0.0001 C   0  0  0  0  0  0  0  0  0  0  0  0
    2.0650    1.1910    0.0036 H   0  0  0  0  0  0  0  0  0  0  0  0
  1  5  1  0
  5  8  1  0
  1  2  1  0
  1  3  1  0
  1  4  1  0
  5  6  1  0
  5  7  1  0
  8  9  1  0
  8 10  1  0
  8 11  1  0
 12 16  1  0
 16 17  2  0
 17 19  1  0
 19 21  2  0
 21 23  1  0
 23 25  2  0
 25 16  1  0
 12 13  1  0
 12 14  1  0
 12 15  1  0
 17 18  1  0
 19 20  1  0
 21 22  1  0
 23 24  1  0
 25 26  1  0
M  CHG  1   8   1
M  END
>  <PDB_ID>  (190) 
pdb2czq

>  <RESIDUE_NAME>  (190) 
LYS   PHE

>  <FRAG_NAME>  (190) 
ETAM   MBZ

>  <FRAG_ATOM_NUM>  (190) 
fragi: 11  fragj: 15

>  <atom.prop.CHAIN_ID>  (190) 
A A A A A A A A A A A Z Z Z Z Z Z Z Z Z Z Z Z Z Z Z

>  <atom.prop.IS_HEAVY_ATOM>  (190) 
1 0 0 0 1 0 0 1 0 0 0 1 0 0 0 1 1 0 1 0 1 0 1 0 1 0

>  <DIFUSE_FUNC_ATOM>  (190) 
n/a

>  <FINAL_SINGLE_POINT_ENERGY>  (190) 
0

>  <NONCOV_INTER_ENERGY_QM>  (190) 
0

>  <FF_Energy>  (190) 
-7.82

>  <QM_Energy>  (190) 
-14.5

>  <source>  (190) 
ETAM_MBZ

>  <Index>  (190) 
1854

$$$$
ETAM-pdb2czq-B-LYS-156:MBZ-pdb2czq-B-PHE-105
     RDKit          3D

 26 25  0  0  0  0  0  0  0  0999 V2000
   -1.2991   -2.5752    4.5936 C   0  0  0  0  0  0  0  0  0  0  0  0
   -1.2506   -2.0604    5.4412 H   0  0  0  0  0  0  0  0  0  0  0  0
   -0.4864   -3.1328    4.4744 H   0  0  0  0  0  0  0  0  0  0  0  0
   -2.1691   -3.2306    4.6341 H   0  0  0  0  0  0  0  0  0  0  0  0
   -1.4130   -1.6169    3.4397 C   0  0  0  0  0  0  0  0  0  0  0  0
   -1.3633   -2.1353    2.5722 H   0  0  0  0  0  0  0  0  0  0  0  0
   -2.3177   -1.1645    3.4729 H   0  0  0  0  0  0  0  0  0  0  0  0
   -0.3557   -0.5748    3.4361 N   0  0  0  0  0  4  0  0  0  0  0  0
    0.5273   -0.9950    3.6463 H   0  0  0  0  0  0  0  0  0  0  0  0
   -0.3138   -0.1449    2.5339 H   0  0  0  0  0  0  0  0  0  0  0  0
   -0.5675    0.1176    4.1256 H   0  0  0  0  0  0  0  0  0  0  0  0
   -0.0045    2.9092   -0.0022 C   0  0  0  0  0  0  0  0  0  0  0  0
   -0.7243    3.2108   -0.6086 H   0  0  0  0  0  0  0  0  0  0  0  0
    0.8822    3.2172   -0.3122 H   0  0  0  0  0  0  0  0  0  0  0  0
   -0.1871    3.3476    0.9790 H   0  0  0  0  0  0  0  0  0  0  0  0
    0.0010    1.4035   -0.0020 C   0  0  0  0  0  0  0  0  0  0  0  0
   -1.1969    0.6934    0.0057 C   0  0  0  0  0  0  0  0  0  0  0  0
   -2.0627    1.1854    0.0147 H   0  0  0  0  0  0  0  0  0  0  0  0
   -1.2014   -0.6943    0.0000 C   0  0  0  0  0  0  0  0  0  0  0  0
   -2.0803   -1.1883   -0.0037 H   0  0  0  0  0  0  0  0  0  0  0  0
   -0.0025   -1.3949    0.0013 C   0  0  0  0  0  0  0  0  0  0  0  0
   -0.0085   -2.3932    0.0026 H   0  0  0  0  0  0  0  0  0  0  0  0
    1.2014   -0.7010   -0.0000 C   0  0  0  0  0  0  0  0  0  0  0  0
    2.0809   -1.1985    0.0041 H   0  0  0  0  0  0  0  0  0  0  0  0
    1.1983    0.6932   -0.0051 C   0  0  0  0  0  0  0  0  0  0  0  0
    2.0669    1.1878   -0.0123 H   0  0  0  0  0  0  0  0  0  0  0  0
  1  5  1  0
  5  8  1  0
  1  2  1  0
  1  3  1  0
  1  4  1  0
  5  6  1  0
  5  7  1  0
  8  9  1  0
  8 10  1  0
  8 11  1  0
 12 16  1  0
 16 17  2  0
 17 19  1  0
 19 21  2  0
 21 23  1  0
 23 25  2  0
 25 16  1  0
 12 13  1  0
 12 14  1  0
 12 15  1  0
 17 18  1  0
 19 20  1  0
 21 22  1  0
 23 24  1  0
 25 26  1  0
M  CHG  1   8   1
M  END
>  <PDB_ID>  (191) 
pdb2czq

>  <RESIDUE_NAME>  (191) 
LYS   PHE

>  <FRAG_NAME>  (191) 
ETAM   MBZ

>  <FRAG_ATOM_NUM>  (191) 
fragi: 11  fragj: 15

>  <atom.prop.CHAIN_ID>  (191) 
A A A A A A A A A A A Z Z Z Z Z Z Z Z Z Z Z Z Z Z Z

>  <atom.prop.IS_HEAVY_ATOM>  (191) 
1 0 0 0 1 0 0 1 0 0 0 1 0 0 0 1 1 0 1 0 1 0 1 0 1 0

>  <DIFUSE_FUNC_ATOM>  (191) 
n/a

>  <FINAL_SINGLE_POINT_ENERGY>  (191) 
0

>  <NONCOV_INTER_ENERGY_QM>  (191) 
0

>  <FF_Energy>  (191) 
-8.16

>  <QM_Energy>  (191) 
-15.13

>  <source>  (191) 
ETAM_MBZ

>  <Index>  (191) 
1856

$$$$
ETAM-pdb1cez-A-LYS-412:MBZ-pdb1cez-A-PHE-182
     RDKit          3D

 26 25  0  0  0  0  0  0  0  0999 V2000
    3.3512   -2.3501    1.8474 C   0  0  0  0  0  0  0  0  0  0  0  0
    2.4773   -2.3204    2.3217 H   0  0  0  0  0  0  0  0  0  0  0  0
    3.3700   -1.6825    1.1117 H   0  0  0  0  0  0  0  0  0  0  0  0
    4.1426   -2.1112    2.5578 H   0  0  0  0  0  0  0  0  0  0  0  0
    3.5131   -3.7610    1.2226 C   0  0  0  0  0  0  0  0  0  0  0  0
    4.4582   -3.8536    0.9060 H   0  0  0  0  0  0  0  0  0  0  0  0
    3.3363   -4.4393    1.9368 H   0  0  0  0  0  0  0  0  0  0  0  0
    2.5797   -3.9750    0.0853 N   0  0  0  0  0  4  0  0  0  0  0  0
    3.0714   -4.4043   -0.6725 H   0  0  0  0  0  0  0  0  0  0  0  0
    1.8305   -4.5690    0.3774 H   0  0  0  0  0  0  0  0  0  0  0  0
    2.2108   -3.0941   -0.2127 H   0  0  0  0  0  0  0  0  0  0  0  0
   -0.0054    2.8737    0.1440 C   0  0  0  0  0  0  0  0  0  0  0  0
   -0.7527    3.2363   -0.3872 H   0  0  0  0  0  0  0  0  0  0  0  0
    0.8650    3.2199   -0.1621 H   0  0  0  0  0  0  0  0  0  0  0  0
   -0.1462    3.1892    1.1778 H   0  0  0  0  0  0  0  0  0  0  0  0
   -0.0000    1.3968    0.0011 C   0  0  0  0  0  0  0  0  0  0  0  0
   -1.1960    0.6863   -0.0011 C   0  0  0  0  0  0  0  0  0  0  0  0
   -2.0633    1.1802   -0.0043 H   0  0  0  0  0  0  0  0  0  0  0  0
   -1.2043   -0.7010    0.0000 C   0  0  0  0  0  0  0  0  0  0  0  0
   -2.0778   -1.1956   -0.0003 H   0  0  0  0  0  0  0  0  0  0  0  0
    0.0005   -1.3936    0.0038 C   0  0  0  0  0  0  0  0  0  0  0  0
    0.0040   -2.3904    0.0088 H   0  0  0  0  0  0  0  0  0  0  0  0
    1.2043   -0.6880   -0.0000 C   0  0  0  0  0  0  0  0  0  0  0  0
    2.0854   -1.1869    0.0015 H   0  0  0  0  0  0  0  0  0  0  0  0
    1.1956    0.6994   -0.0039 C   0  0  0  0  0  0  0  0  0  0  0  0
    2.0623    1.1986   -0.0115 H   0  0  0  0  0  0  0  0  0  0  0  0
  1  5  1  0
  5  8  1  0
  1  2  1  0
  1  3  1  0
  1  4  1  0
  5  6  1  0
  5  7  1  0
  8  9  1  0
  8 10  1  0
  8 11  1  0
 12 16  1  0
 16 17  2  0
 17 19  1  0
 19 21  2  0
 21 23  1  0
 23 25  2  0
 25 16  1  0
 12 13  1  0
 12 14  1  0
 12 15  1  0
 17 18  1  0
 19 20  1  0
 21 22  1  0
 23 24  1  0
 25 26  1  0
M  CHG  1   8   1
M  END
>  <PDB_ID>  (192) 
pdb1cez

>  <RESIDUE_NAME>  (192) 
LYS   PHE

>  <FRAG_NAME>  (192) 
ETAM   MBZ

>  <FRAG_ATOM_NUM>  (192) 
fragi: 11  fragj: 15

>  <atom.prop.CHAIN_ID>  (192) 
A A A A A A A A A A A Z Z Z Z Z Z Z Z Z Z Z Z Z Z Z

>  <atom.prop.IS_HEAVY_ATOM>  (192) 
1 0 0 0 1 0 0 1 0 0 0 1 0 0 0 1 1 0 1 0 1 0 1 0 1 0

>  <DIFUSE_FUNC_ATOM>  (192) 
n/a

>  <FINAL_SINGLE_POINT_ENERGY>  (192) 
0

>  <NONCOV_INTER_ENERGY_QM>  (192) 
0

>  <FF_Energy>  (192) 
6.35

>  <QM_Energy>  (192) 
-2.06

>  <source>  (192) 
ETAM_MBZ

>  <Index>  (192) 
1865

$$$$
ETAM-pdb2czs-A-LYS-52:MBZ-pdb2czs-A-PHE-46
     RDKit          3D

 26 25  0  0  0  0  0  0  0  0999 V2000
   -3.3935   -2.7555   -2.9283 C   0  0  0  0  0  0  0  0  0  0  0  0
   -3.8970   -3.4316   -2.4015 H   0  0  0  0  0  0  0  0  0  0  0  0
   -3.4906   -2.9302   -3.9015 H   0  0  0  0  0  0  0  0  0  0  0  0
   -3.7820   -1.7627   -2.7013 H   0  0  0  0  0  0  0  0  0  0  0  0
   -1.9027   -2.8805   -2.5668 C   0  0  0  0  0  0  0  0  0  0  0  0
   -1.7824   -2.6116   -1.6084 H   0  0  0  0  0  0  0  0  0  0  0  0
   -1.6267   -3.8381   -2.6741 H   0  0  0  0  0  0  0  0  0  0  0  0
   -1.0315   -2.0178   -3.4321 N   0  0  0  0  0  4  0  0  0  0  0  0
   -0.2775   -1.6626   -2.8835 H   0  0  0  0  0  0  0  0  0  0  0  0
   -0.6745   -2.5667   -4.1845 H   0  0  0  0  0  0  0  0  0  0  0  0
   -1.5754   -1.2629   -3.7908 H   0  0  0  0  0  0  0  0  0  0  0  0
   -0.0149    2.9146    0.0135 C   0  0  0  0  0  0  0  0  0  0  0  0
   -0.4845    3.2209   -0.7956 H   0  0  0  0  0  0  0  0  0  0  0  0
    0.9184    3.2256    0.0403 H   0  0  0  0  0  0  0  0  0  0  0  0
   -0.5329    3.3220    0.8816 H   0  0  0  0  0  0  0  0  0  0  0  0
   -0.0005    1.4069   -0.0027 C   0  0  0  0  0  0  0  0  0  0  0  0
   -1.2051    0.6882   -0.0007 C   0  0  0  0  0  0  0  0  0  0  0  0
   -2.0701    1.1771   -0.0012 H   0  0  0  0  0  0  0  0  0  0  0  0
   -1.2093   -0.7116    0.0000 C   0  0  0  0  0  0  0  0  0  0  0  0
   -2.0821   -1.2029    0.0022 H   0  0  0  0  0  0  0  0  0  0  0  0
   -0.0029   -1.3953   -0.0009 C   0  0  0  0  0  0  0  0  0  0  0  0
    0.0043   -2.3966   -0.0026 H   0  0  0  0  0  0  0  0  0  0  0  0
    1.2093   -0.6928   -0.0000 C   0  0  0  0  0  0  0  0  0  0  0  0
    2.0859   -1.1929   -0.0005 H   0  0  0  0  0  0  0  0  0  0  0  0
    1.2086    0.7047    0.0043 C   0  0  0  0  0  0  0  0  0  0  0  0
    2.0691    1.2007    0.0119 H   0  0  0  0  0  0  0  0  0  0  0  0
  1  5  1  0
  5  8  1  0
  1  2  1  0
  1  3  1  0
  1  4  1  0
  5  6  1  0
  5  7  1  0
  8  9  1  0
  8 10  1  0
  8 11  1  0
 12 16  1  0
 16 17  2  0
 17 19  1  0
 19 21  2  0
 21 23  1  0
 23 25  2  0
 25 16  1  0
 12 13  1  0
 12 14  1  0
 12 15  1  0
 17 18  1  0
 19 20  1  0
 21 22  1  0
 23 24  1  0
 25 26  1  0
M  CHG  1   8   1
M  END
>  <PDB_ID>  (193) 
pdb2czs

>  <RESIDUE_NAME>  (193) 
LYS   PHE

>  <FRAG_NAME>  (193) 
ETAM   MBZ

>  <FRAG_ATOM_NUM>  (193) 
fragi: 11  fragj: 15

>  <atom.prop.CHAIN_ID>  (193) 
A A A A A A A A A A A Z Z Z Z Z Z Z Z Z Z Z Z Z Z Z

>  <atom.prop.IS_HEAVY_ATOM>  (193) 
1 0 0 0 1 0 0 1 0 0 0 1 0 0 0 1 1 0 1 0 1 0 1 0 1 0

>  <DIFUSE_FUNC_ATOM>  (193) 
n/a

>  <FINAL_SINGLE_POINT_ENERGY>  (193) 
0

>  <NONCOV_INTER_ENERGY_QM>  (193) 
0

>  <FF_Energy>  (193) 
-3.07

>  <QM_Energy>  (193) 
-9.77

>  <source>  (193) 
ETAM_MBZ

>  <Index>  (193) 
1872

$$$$
ETAM-pdb2czv-B-LYS-42:MBZ-pdb2czv-B-PHE-74
     RDKit          3D

 26 25  0  0  0  0  0  0  0  0999 V2000
    3.1533   -3.3595    0.4415 C   0  0  0  0  0  0  0  0  0  0  0  0
    3.4180   -2.9592   -0.4289 H   0  0  0  0  0  0  0  0  0  0  0  0
    2.2020   -3.1530    0.6431 H   0  0  0  0  0  0  0  0  0  0  0  0
    3.2765   -4.4411    0.3850 H   0  0  0  0  0  0  0  0  0  0  0  0
    4.0223   -2.7580    1.5359 C   0  0  0  0  0  0  0  0  0  0  0  0
    3.8060   -3.2083    2.4069 H   0  0  0  0  0  0  0  0  0  0  0  0
    4.9876   -2.9281    1.3155 H   0  0  0  0  0  0  0  0  0  0  0  0
    3.8068   -1.2894    1.6794 N   0  0  0  0  0  4  0  0  0  0  0  0
    4.5413   -0.8007    1.2102 H   0  0  0  0  0  0  0  0  0  0  0  0
    2.9276   -1.0440    1.2743 H   0  0  0  0  0  0  0  0  0  0  0  0
    3.8089   -1.0487    2.6489 H   0  0  0  0  0  0  0  0  0  0  0  0
    0.0012    2.8973   -0.0139 C   0  0  0  0  0  0  0  0  0  0  0  0
   -0.9061    3.2044   -0.2635 H   0  0  0  0  0  0  0  0  0  0  0  0
    0.6753    3.1999   -0.6733 H   0  0  0  0  0  0  0  0  0  0  0  0
    0.2512    3.3495    0.9458 H   0  0  0  0  0  0  0  0  0  0  0  0
    0.0004    1.4002   -0.0003 C   0  0  0  0  0  0  0  0  0  0  0  0
   -1.1964    0.6914    0.0018 C   0  0  0  0  0  0  0  0  0  0  0  0
   -2.0632    1.1826    0.0039 H   0  0  0  0  0  0  0  0  0  0  0  0
   -1.2014   -0.6984   -0.0000 C   0  0  0  0  0  0  0  0  0  0  0  0
   -2.0778   -1.1924    0.0009 H   0  0  0  0  0  0  0  0  0  0  0  0
    0.0004   -1.3929   -0.0008 C   0  0  0  0  0  0  0  0  0  0  0  0
   -0.0023   -2.3913   -0.0028 H   0  0  0  0  0  0  0  0  0  0  0  0
    1.2014   -0.6950    0.0000 C   0  0  0  0  0  0  0  0  0  0  0  0
    2.0827   -1.1925    0.0030 H   0  0  0  0  0  0  0  0  0  0  0  0
    1.1956    0.6947   -0.0007 C   0  0  0  0  0  0  0  0  0  0  0  0
    2.0640    1.1920   -0.0020 H   0  0  0  0  0  0  0  0  0  0  0  0
  1  5  1  0
  5  8  1  0
  1  2  1  0
  1  3  1  0
  1  4  1  0
  5  6  1  0
  5  7  1  0
  8  9  1  0
  8 10  1  0
  8 11  1  0
 12 16  1  0
 16 17  2  0
 17 19  1  0
 19 21  2  0
 21 23  1  0
 23 25  2  0
 25 16  1  0
 12 13  1  0
 12 14  1  0
 12 15  1  0
 17 18  1  0
 19 20  1  0
 21 22  1  0
 23 24  1  0
 25 26  1  0
M  CHG  1   8   1
M  END
>  <PDB_ID>  (194) 
pdb2czv

>  <RESIDUE_NAME>  (194) 
LYS   PHE

>  <FRAG_NAME>  (194) 
ETAM   MBZ

>  <FRAG_ATOM_NUM>  (194) 
fragi: 11  fragj: 15

>  <atom.prop.CHAIN_ID>  (194) 
A A A A A A A A A A A Z Z Z Z Z Z Z Z Z Z Z Z Z Z Z

>  <atom.prop.IS_HEAVY_ATOM>  (194) 
1 0 0 0 1 0 0 1 0 0 0 1 0 0 0 1 1 0 1 0 1 0 1 0 1 0

>  <DIFUSE_FUNC_ATOM>  (194) 
n/a

>  <FINAL_SINGLE_POINT_ENERGY>  (194) 
0

>  <NONCOV_INTER_ENERGY_QM>  (194) 
0

>  <FF_Energy>  (194) 
4.75

>  <QM_Energy>  (194) 
-3.62

>  <source>  (194) 
ETAM_MBZ

>  <Index>  (194) 
1878

$$$$
ETAM-pdb1cfy-A-LYS-105:MBZ-pdb1cfy-A-PHE-85
     RDKit          3D

 26 25  0  0  0  0  0  0  0  0999 V2000
   -4.9149   -2.7517    2.5254 C   0  0  0  0  0  0  0  0  0  0  0  0
   -5.4709   -2.5843    1.7184 H   0  0  0  0  0  0  0  0  0  0  0  0
   -5.4300   -3.2672    3.2010 H   0  0  0  0  0  0  0  0  0  0  0  0
   -4.0350   -3.3260    2.2358 H   0  0  0  0  0  0  0  0  0  0  0  0
   -4.5222   -1.4169    3.1292 C   0  0  0  0  0  0  0  0  0  0  0  0
   -5.3494   -0.9502    3.4562 H   0  0  0  0  0  0  0  0  0  0  0  0
   -3.9127   -1.5786    3.9114 H   0  0  0  0  0  0  0  0  0  0  0  0
   -3.8283   -0.5444    2.1442 N   0  0  0  0  0  4  0  0  0  0  0  0
   -4.1609   -0.7516    1.2245 H   0  0  0  0  0  0  0  0  0  0  0  0
   -4.0161    0.4132    2.3597 H   0  0  0  0  0  0  0  0  0  0  0  0
   -2.8438   -0.7109    2.1886 H   0  0  0  0  0  0  0  0  0  0  0  0
   -0.0108    2.8912   -0.0027 C   0  0  0  0  0  0  0  0  0  0  0  0
    0.8110    3.1966    0.4770 H   0  0  0  0  0  0  0  0  0  0  0  0
   -0.8220    3.1932    0.4965 H   0  0  0  0  0  0  0  0  0  0  0  0
   -0.0241    3.3670   -0.9833 H   0  0  0  0  0  0  0  0  0  0  0  0
   -0.0073    1.3933   -0.0049 C   0  0  0  0  0  0  0  0  0  0  0  0
   -1.1896    0.6809    0.0115 C   0  0  0  0  0  0  0  0  0  0  0  0
   -2.0636    1.1722    0.0307 H   0  0  0  0  0  0  0  0  0  0  0  0
   -1.1926   -0.6955    0.0000 C   0  0  0  0  0  0  0  0  0  0  0  0
   -2.0686   -1.1957   -0.0083 H   0  0  0  0  0  0  0  0  0  0  0  0
    0.0057   -1.3857    0.0009 C   0  0  0  0  0  0  0  0  0  0  0  0
    0.0012   -2.3869    0.0018 H   0  0  0  0  0  0  0  0  0  0  0  0
    1.1926   -0.6911   -0.0000 C   0  0  0  0  0  0  0  0  0  0  0  0
    2.0816   -1.1855    0.0066 H   0  0  0  0  0  0  0  0  0  0  0  0
    1.1913    0.6981   -0.0075 C   0  0  0  0  0  0  0  0  0  0  0  0
    2.0560    1.1947   -0.0156 H   0  0  0  0  0  0  0  0  0  0  0  0
  1  5  1  0
  5  8  1  0
  1  2  1  0
  1  3  1  0
  1  4  1  0
  5  6  1  0
  5  7  1  0
  8  9  1  0
  8 10  1  0
  8 11  1  0
 12 16  1  0
 16 17  2  0
 17 19  1  0
 19 21  2  0
 21 23  1  0
 23 25  2  0
 25 16  1  0
 12 13  1  0
 12 14  1  0
 12 15  1  0
 17 18  1  0
 19 20  1  0
 21 22  1  0
 23 24  1  0
 25 26  1  0
M  CHG  1   8   1
M  END
>  <PDB_ID>  (195) 
pdb1cfy

>  <RESIDUE_NAME>  (195) 
LYS   PHE

>  <FRAG_NAME>  (195) 
ETAM   MBZ

>  <FRAG_ATOM_NUM>  (195) 
fragi: 11  fragj: 15

>  <atom.prop.CHAIN_ID>  (195) 
A A A A A A A A A A A Z Z Z Z Z Z Z Z Z Z Z Z Z Z Z

>  <atom.prop.IS_HEAVY_ATOM>  (195) 
1 0 0 0 1 0 0 1 0 0 0 1 0 0 0 1 1 0 1 0 1 0 1 0 1 0

>  <DIFUSE_FUNC_ATOM>  (195) 
n/a

>  <FINAL_SINGLE_POINT_ENERGY>  (195) 
0

>  <NONCOV_INTER_ENERGY_QM>  (195) 
0

>  <FF_Energy>  (195) 
-0.83

>  <QM_Energy>  (195) 
-6.43

>  <source>  (195) 
ETAM_MBZ

>  <Index>  (195) 
1905

$$$$
ETAM-pdb2d0t-A-LYS-323:MBZ-pdb2d0t-A-PHE-319
     RDKit          3D

 26 25  0  0  0  0  0  0  0  0999 V2000
   -3.2713   -1.6032    3.5042 C   0  0  0  0  0  0  0  0  0  0  0  0
   -2.5893   -2.3288    3.5236 H   0  0  0  0  0  0  0  0  0  0  0  0
   -4.0459   -1.8443    4.0819 H   0  0  0  0  0  0  0  0  0  0  0  0
   -2.8212   -0.6840    3.8793 H   0  0  0  0  0  0  0  0  0  0  0  0
   -3.7788   -1.4610    2.0572 C   0  0  0  0  0  0  0  0  0  0  0  0
   -3.1630   -1.9772    1.4509 H   0  0  0  0  0  0  0  0  0  0  0  0
   -4.6969   -1.8691    1.9989 H   0  0  0  0  0  0  0  0  0  0  0  0
   -3.8470   -0.0360    1.5871 N   0  0  0  0  0  4  0  0  0  0  0  0
   -3.2958    0.5321    2.1931 H   0  0  0  0  0  0  0  0  0  0  0  0
   -3.4931    0.0159    0.6560 H   0  0  0  0  0  0  0  0  0  0  0  0
   -4.7971    0.2674    1.6072 H   0  0  0  0  0  0  0  0  0  0  0  0
    0.0024    2.8869   -0.0714 C   0  0  0  0  0  0  0  0  0  0  0  0
   -0.2212    3.1541   -0.9987 H   0  0  0  0  0  0  0  0  0  0  0  0
    0.9052    3.2077    0.1825 H   0  0  0  0  0  0  0  0  0  0  0  0
   -0.7170    3.3652    0.5932 H   0  0  0  0  0  0  0  0  0  0  0  0
   -0.0008    1.3951   -0.0004 C   0  0  0  0  0  0  0  0  0  0  0  0
   -1.1850    0.6900    0.0005 C   0  0  0  0  0  0  0  0  0  0  0  0
   -2.0572    1.1764    0.0002 H   0  0  0  0  0  0  0  0  0  0  0  0
   -1.1861   -0.6953   -0.0000 C   0  0  0  0  0  0  0  0  0  0  0  0
   -2.0679   -1.1884    0.0024 H   0  0  0  0  0  0  0  0  0  0  0  0
    0.0021   -1.3829   -0.0027 C   0  0  0  0  0  0  0  0  0  0  0  0
   -0.0030   -2.3871   -0.0068 H   0  0  0  0  0  0  0  0  0  0  0  0
    1.1861   -0.6959   -0.0000 C   0  0  0  0  0  0  0  0  0  0  0  0
    2.0743   -1.1915    0.0016 H   0  0  0  0  0  0  0  0  0  0  0  0
    1.1837    0.6890    0.0025 C   0  0  0  0  0  0  0  0  0  0  0  0
    2.0573    1.1832    0.0062 H   0  0  0  0  0  0  0  0  0  0  0  0
  1  5  1  0
  5  8  1  0
  1  2  1  0
  1  3  1  0
  1  4  1  0
  5  6  1  0
  5  7  1  0
  8  9  1  0
  8 10  1  0
  8 11  1  0
 12 16  1  0
 16 17  2  0
 17 19  1  0
 19 21  2  0
 21 23  1  0
 23 25  2  0
 25 16  1  0
 12 13  1  0
 12 14  1  0
 12 15  1  0
 17 18  1  0
 19 20  1  0
 21 22  1  0
 23 24  1  0
 25 26  1  0
M  CHG  1   8   1
M  END
>  <PDB_ID>  (196) 
pdb2d0t

>  <RESIDUE_NAME>  (196) 
LYS   PHE

>  <FRAG_NAME>  (196) 
ETAM   MBZ

>  <FRAG_ATOM_NUM>  (196) 
fragi: 11  fragj: 15

>  <atom.prop.CHAIN_ID>  (196) 
A A A A A A A A A A A Z Z Z Z Z Z Z Z Z Z Z Z Z Z Z

>  <atom.prop.IS_HEAVY_ATOM>  (196) 
1 0 0 0 1 0 0 1 0 0 0 1 0 0 0 1 1 0 1 0 1 0 1 0 1 0

>  <DIFUSE_FUNC_ATOM>  (196) 
n/a

>  <FINAL_SINGLE_POINT_ENERGY>  (196) 
0

>  <NONCOV_INTER_ENERGY_QM>  (196) 
0

>  <FF_Energy>  (196) 
2.63

>  <QM_Energy>  (196) 
-5.13

>  <source>  (196) 
ETAM_MBZ

>  <Index>  (196) 
1908

$$$$
ETAM-pdb2cyb-C-LYS-127:MBZ-pdb2cyb-A-PHE-83
     RDKit          3D

 26 25  0  0  0  0  0  0  0  0999 V2000
   -5.6375   -2.4705   -0.7654 C   0  0  0  0  0  0  0  0  0  0  0  0
   -5.8188   -2.9963   -1.5875 H   0  0  0  0  0  0  0  0  0  0  0  0
   -6.4707   -2.3397   -0.2413 H   0  0  0  0  0  0  0  0  0  0  0  0
   -4.9229   -3.0197   -0.1524 H   0  0  0  0  0  0  0  0  0  0  0  0
   -5.0898   -1.1111   -1.1635 C   0  0  0  0  0  0  0  0  0  0  0  0
   -5.7193   -0.6871   -1.8204 H   0  0  0  0  0  0  0  0  0  0  0  0
   -5.0357   -0.5315   -0.3463 H   0  0  0  0  0  0  0  0  0  0  0  0
   -3.7447   -1.2214   -1.7762 N   0  0  0  0  0  4  0  0  0  0  0  0
   -3.0461   -1.0169   -1.0890 H   0  0  0  0  0  0  0  0  0  0  0  0
   -3.6092   -2.1506   -2.1224 H   0  0  0  0  0  0  0  0  0  0  0  0
   -3.6665   -0.5706   -2.5327 H   0  0  0  0  0  0  0  0  0  0  0  0
    0.0101    2.9018    0.0213 C   0  0  0  0  0  0  0  0  0  0  0  0
   -0.9240    3.2158   -0.0367 H   0  0  0  0  0  0  0  0  0  0  0  0
    0.5476    3.2168   -0.7439 H   0  0  0  0  0  0  0  0  0  0  0  0
    0.4467    3.3175    0.9294 H   0  0  0  0  0  0  0  0  0  0  0  0
    0.0002    1.4029   -0.0002 C   0  0  0  0  0  0  0  0  0  0  0  0
   -1.1971    0.6989   -0.0006 C   0  0  0  0  0  0  0  0  0  0  0  0
   -2.0628    1.1853   -0.0025 H   0  0  0  0  0  0  0  0  0  0  0  0
   -1.2016   -0.6986    0.0000 C   0  0  0  0  0  0  0  0  0  0  0  0
   -2.0774   -1.1897    0.0011 H   0  0  0  0  0  0  0  0  0  0  0  0
    0.0013   -1.3949    0.0008 C   0  0  0  0  0  0  0  0  0  0  0  0
   -0.0049   -2.3946    0.0008 H   0  0  0  0  0  0  0  0  0  0  0  0
    1.2016   -0.7018   -0.0000 C   0  0  0  0  0  0  0  0  0  0  0  0
    2.0834   -1.1966    0.0009 H   0  0  0  0  0  0  0  0  0  0  0  0
    1.1956    0.6935    0.0000 C   0  0  0  0  0  0  0  0  0  0  0  0
    2.0657    1.1880   -0.0010 H   0  0  0  0  0  0  0  0  0  0  0  0
  1  5  1  0
  5  8  1  0
  1  2  1  0
  1  3  1  0
  1  4  1  0
  5  6  1  0
  5  7  1  0
  8  9  1  0
  8 10  1  0
  8 11  1  0
 12 16  1  0
 16 17  2  0
 17 19  1  0
 19 21  2  0
 21 23  1  0
 23 25  2  0
 25 16  1  0
 12 13  1  0
 12 14  1  0
 12 15  1  0
 17 18  1  0
 19 20  1  0
 21 22  1  0
 23 24  1  0
 25 26  1  0
M  CHG  1   8   1
M  END
>  <PDB_ID>  (197) 
pdb2cyb

>  <RESIDUE_NAME>  (197) 
LYS   PHE

>  <FRAG_NAME>  (197) 
ETAM   MBZ

>  <FRAG_ATOM_NUM>  (197) 
fragi: 11  fragj: 15

>  <atom.prop.CHAIN_ID>  (197) 
A A A A A A A A A A A Z Z Z Z Z Z Z Z Z Z Z Z Z Z Z

>  <atom.prop.IS_HEAVY_ATOM>  (197) 
1 0 0 0 1 0 0 1 0 0 0 1 0 0 0 1 1 0 1 0 1 0 1 0 1 0

>  <DIFUSE_FUNC_ATOM>  (197) 
n/a

>  <FINAL_SINGLE_POINT_ENERGY>  (197) 
0

>  <NONCOV_INTER_ENERGY_QM>  (197) 
0

>  <FF_Energy>  (197) 
2.17

>  <QM_Energy>  (197) 
-3.94

>  <source>  (197) 
ETAM_MBZ

>  <Index>  (197) 
1909

$$$$
ETAM-pdb1cjy-A-LYS-58:MBZ-pdb1cjy-A-PHE-77
     RDKit          3D

 26 25  0  0  0  0  0  0  0  0999 V2000
    1.2058   -2.2159    3.4450 C   0  0  0  0  0  0  0  0  0  0  0  0
    0.8849   -2.0409    2.5225 H   0  0  0  0  0  0  0  0  0  0  0  0
    0.4540   -2.4879    4.0326 H   0  0  0  0  0  0  0  0  0  0  0  0
    1.9498   -3.0122    3.4210 H   0  0  0  0  0  0  0  0  0  0  0  0
    1.8082   -0.9305    3.9975 C   0  0  0  0  0  0  0  0  0  0  0  0
    1.1116   -0.2104    3.9774 H   0  0  0  0  0  0  0  0  0  0  0  0
    2.0926   -1.0858    4.9452 H   0  0  0  0  0  0  0  0  0  0  0  0
    2.9898   -0.4907    3.1988 N   0  0  0  0  0  4  0  0  0  0  0  0
    2.7709   -0.5507    2.2263 H   0  0  0  0  0  0  0  0  0  0  0  0
    3.2148    0.4536    3.4355 H   0  0  0  0  0  0  0  0  0  0  0  0
    3.7662   -1.0831    3.4059 H   0  0  0  0  0  0  0  0  0  0  0  0
    0.0019    2.8976   -0.0480 C   0  0  0  0  0  0  0  0  0  0  0  0
   -0.7219    3.1888   -0.6598 H   0  0  0  0  0  0  0  0  0  0  0  0
    0.8870    3.1954   -0.3808 H   0  0  0  0  0  0  0  0  0  0  0  0
   -0.1670    3.3792    0.9151 H   0  0  0  0  0  0  0  0  0  0  0  0
   -0.0004    1.4014   -0.0007 C   0  0  0  0  0  0  0  0  0  0  0  0
   -1.1969    0.6953    0.0010 C   0  0  0  0  0  0  0  0  0  0  0  0
   -2.0633    1.1880    0.0017 H   0  0  0  0  0  0  0  0  0  0  0  0
   -1.2048   -0.6940   -0.0000 C   0  0  0  0  0  0  0  0  0  0  0  0
   -2.0803   -1.1884    0.0018 H   0  0  0  0  0  0  0  0  0  0  0  0
    0.0005   -1.3960   -0.0012 C   0  0  0  0  0  0  0  0  0  0  0  0
   -0.0067   -2.3931   -0.0034 H   0  0  0  0  0  0  0  0  0  0  0  0
    1.2048   -0.6995   -0.0000 C   0  0  0  0  0  0  0  0  0  0  0  0
    2.0839   -1.1959    0.0014 H   0  0  0  0  0  0  0  0  0  0  0  0
    1.1968    0.6928    0.0009 C   0  0  0  0  0  0  0  0  0  0  0  0
    2.0654    1.1908    0.0022 H   0  0  0  0  0  0  0  0  0  0  0  0
  1  5  1  0
  5  8  1  0
  1  2  1  0
  1  3  1  0
  1  4  1  0
  5  6  1  0
  5  7  1  0
  8  9  1  0
  8 10  1  0
  8 11  1  0
 12 16  1  0
 16 17  2  0
 17 19  1  0
 19 21  2  0
 21 23  1  0
 23 25  2  0
 25 16  1  0
 12 13  1  0
 12 14  1  0
 12 15  1  0
 17 18  1  0
 19 20  1  0
 21 22  1  0
 23 24  1  0
 25 26  1  0
M  CHG  1   8   1
M  END
>  <PDB_ID>  (198) 
pdb1cjy

>  <RESIDUE_NAME>  (198) 
LYS   PHE

>  <FRAG_NAME>  (198) 
ETAM   MBZ

>  <FRAG_ATOM_NUM>  (198) 
fragi: 11  fragj: 15

>  <atom.prop.CHAIN_ID>  (198) 
A A A A A A A A A A A Z Z Z Z Z Z Z Z Z Z Z Z Z Z Z

>  <atom.prop.IS_HEAVY_ATOM>  (198) 
1 0 0 0 1 0 0 1 0 0 0 1 0 0 0 1 1 0 1 0 1 0 1 0 1 0

>  <DIFUSE_FUNC_ATOM>  (198) 
n/a

>  <FINAL_SINGLE_POINT_ENERGY>  (198) 
0

>  <NONCOV_INTER_ENERGY_QM>  (198) 
0

>  <FF_Energy>  (198) 
-3.53

>  <QM_Energy>  (198) 
-9.21

>  <source>  (198) 
ETAM_MBZ

>  <Index>  (198) 
1946

$$$$
ETAM-pdb1cki-A-LYS-160:MBZ-pdb1cki-A-PHE-127
     RDKit          3D

 26 25  0  0  0  0  0  0  0  0999 V2000
   -0.7009   -1.7377    4.0620 C   0  0  0  0  0  0  0  0  0  0  0  0
   -1.4792   -1.8136    4.6799 H   0  0  0  0  0  0  0  0  0  0  0  0
   -0.9515   -1.2009    3.2610 H   0  0  0  0  0  0  0  0  0  0  0  0
    0.1172   -1.2392    4.5820 H   0  0  0  0  0  0  0  0  0  0  0  0
   -0.2997   -3.1170    3.6154 C   0  0  0  0  0  0  0  0  0  0  0  0
    0.6011   -3.0768    3.1796 H   0  0  0  0  0  0  0  0  0  0  0  0
   -0.2529   -3.7250    4.4107 H   0  0  0  0  0  0  0  0  0  0  0  0
   -1.2835   -3.6714    2.6420 N   0  0  0  0  0  4  0  0  0  0  0  0
   -1.0843   -3.3124    1.7307 H   0  0  0  0  0  0  0  0  0  0  0  0
   -1.2137   -4.6684    2.6331 H   0  0  0  0  0  0  0  0  0  0  0  0
   -2.2059   -3.4024    2.9155 H   0  0  0  0  0  0  0  0  0  0  0  0
    0.0048    2.8999    0.0413 C   0  0  0  0  0  0  0  0  0  0  0  0
   -0.7706    3.2257   -0.4789 H   0  0  0  0  0  0  0  0  0  0  0  0
    0.8576    3.2188   -0.3461 H   0  0  0  0  0  0  0  0  0  0  0  0
   -0.0752    3.3201    1.0439 H   0  0  0  0  0  0  0  0  0  0  0  0
    0.0014    1.3988    0.0008 C   0  0  0  0  0  0  0  0  0  0  0  0
   -1.1933    0.6905   -0.0023 C   0  0  0  0  0  0  0  0  0  0  0  0
   -2.0606    1.1815   -0.0078 H   0  0  0  0  0  0  0  0  0  0  0  0
   -1.2001   -0.6987    0.0000 C   0  0  0  0  0  0  0  0  0  0  0  0
   -2.0778   -1.1912    0.0014 H   0  0  0  0  0  0  0  0  0  0  0  0
   -0.0018   -1.3934    0.0024 C   0  0  0  0  0  0  0  0  0  0  0  0
   -0.0006   -2.3907    0.0056 H   0  0  0  0  0  0  0  0  0  0  0  0
    1.2001   -0.6913   -0.0000 C   0  0  0  0  0  0  0  0  0  0  0  0
    2.0812   -1.1915    0.0004 H   0  0  0  0  0  0  0  0  0  0  0  0
    1.1937    0.6942   -0.0009 C   0  0  0  0  0  0  0  0  0  0  0  0
    2.0626    1.1921   -0.0038 H   0  0  0  0  0  0  0  0  0  0  0  0
  1  5  1  0
  5  8  1  0
  1  2  1  0
  1  3  1  0
  1  4  1  0
  5  6  1  0
  5  7  1  0
  8  9  1  0
  8 10  1  0
  8 11  1  0
 12 16  1  0
 16 17  2  0
 17 19  1  0
 19 21  2  0
 21 23  1  0
 23 25  2  0
 25 16  1  0
 12 13  1  0
 12 14  1  0
 12 15  1  0
 17 18  1  0
 19 20  1  0
 21 22  1  0
 23 24  1  0
 25 26  1  0
M  CHG  1   8   1
M  END
>  <PDB_ID>  (199) 
pdb1cki

>  <RESIDUE_NAME>  (199) 
LYS   PHE

>  <FRAG_NAME>  (199) 
ETAM   MBZ

>  <FRAG_ATOM_NUM>  (199) 
fragi: 11  fragj: 15

>  <atom.prop.CHAIN_ID>  (199) 
A A A A A A A A A A A Z Z Z Z Z Z Z Z Z Z Z Z Z Z Z

>  <atom.prop.IS_HEAVY_ATOM>  (199) 
1 0 0 0 1 0 0 1 0 0 0 1 0 0 0 1 1 0 1 0 1 0 1 0 1 0

>  <DIFUSE_FUNC_ATOM>  (199) 
n/a

>  <FINAL_SINGLE_POINT_ENERGY>  (199) 
0

>  <NONCOV_INTER_ENERGY_QM>  (199) 
0

>  <FF_Energy>  (199) 
-1.85

>  <QM_Energy>  (199) 
-7.58

>  <source>  (199) 
ETAM_MBZ

>  <Index>  (199) 
1959

$$$$
ETAM-pdb1ckm-B-ASN-11:MBZ-pdb1ckm-B-PHE-96
     RDKit          3D

 26 25  0  0  0  0  0  0  0  0999 V2000
    3.7718    0.8939    4.6952 C   0  0  0  0  0  0  0  0  0  0  0  0
    2.9201    1.2235    5.0360 H   0  0  0  0  0  0  0  0  0  0  0  0
    3.8588   -0.0766    4.7239 H   0  0  0  0  0  0  0  0  0  0  0  0
    4.5858    1.3458    5.2620 H   0  0  0  0  0  0  0  0  0  0  0  0
    3.9252    1.3532    3.2420 C   0  0  0  0  0  0  0  0  0  0  0  0
    4.4134    2.2093    3.1449 H   0  0  0  0  0  0  0  0  0  0  0  0
    4.4997    0.5858    2.7234 H   0  0  0  0  0  0  0  0  0  0  0  0
    2.6812    1.4796    2.5034 N   0  0  0  0  0  4  0  0  0  0  0  0
    2.3621    0.5763    2.2056 H   0  0  0  0  0  0  0  0  0  0  0  0
    1.9751    1.8963    3.0826 H   0  0  0  0  0  0  0  0  0  0  0  0
    2.8166    2.0574    1.6942 H   0  0  0  0  0  0  0  0  0  0  0  0
    0.0361    2.9733   -0.0082 C   0  0  0  0  0  0  0  0  0  0  0  0
    0.9481    3.2517    0.2654 H   0  0  0  0  0  0  0  0  0  0  0  0
   -0.6397    3.2869    0.6460 H   0  0  0  0  0  0  0  0  0  0  0  0
   -0.1807    3.4673   -0.9553 H   0  0  0  0  0  0  0  0  0  0  0  0
    0.0038    1.4194   -0.0001 C   0  0  0  0  0  0  0  0  0  0  0  0
   -1.2102    0.7000   -0.0054 C   0  0  0  0  0  0  0  0  0  0  0  0
   -2.0702    1.1877   -0.0138 H   0  0  0  0  0  0  0  0  0  0  0  0
   -1.2060   -0.7018   -0.0000 C   0  0  0  0  0  0  0  0  0  0  0  0
   -2.0819   -1.1967    0.0080 H   0  0  0  0  0  0  0  0  0  0  0  0
    0.0026   -1.4058   -0.0042 C   0  0  0  0  0  0  0  0  0  0  0  0
   -0.0038   -2.4004   -0.0111 H   0  0  0  0  0  0  0  0  0  0  0  0
    1.2060   -0.7043    0.0000 C   0  0  0  0  0  0  0  0  0  0  0  0
    2.0876   -1.2010   -0.0028 H   0  0  0  0  0  0  0  0  0  0  0  0
    1.2038    0.6925    0.0097 C   0  0  0  0  0  0  0  0  0  0  0  0
    2.0732    1.1866    0.0233 H   0  0  0  0  0  0  0  0  0  0  0  0
  1  5  1  0
  5  8  1  0
  1  2  1  0
  1  3  1  0
  1  4  1  0
  5  6  1  0
  5  7  1  0
  8  9  1  0
  8 10  1  0
  8 11  1  0
 12 16  1  0
 16 17  2  0
 17 19  1  0
 19 21  2  0
 21 23  1  0
 23 25  2  0
 25 16  1  0
 12 13  1  0
 12 14  1  0
 12 15  1  0
 17 18  1  0
 19 20  1  0
 21 22  1  0
 23 24  1  0
 25 26  1  0
M  CHG  1   8   1
M  END
>  <PDB_ID>  (200) 
pdb1ckm

>  <RESIDUE_NAME>  (200) 
ASN   PHE

>  <FRAG_NAME>  (200) 
ETAM   MBZ

>  <FRAG_ATOM_NUM>  (200) 
fragi: 11  fragj: 15

>  <atom.prop.CHAIN_ID>  (200) 
A A A A A A A A A A A Z Z Z Z Z Z Z Z Z Z Z Z Z Z Z

>  <atom.prop.IS_HEAVY_ATOM>  (200) 
1 0 0 0 1 0 0 1 0 0 0 1 0 0 0 1 1 0 1 0 1 0 1 0 1 0

>  <DIFUSE_FUNC_ATOM>  (200) 
n/a

>  <FINAL_SINGLE_POINT_ENERGY>  (200) 
0

>  <NONCOV_INTER_ENERGY_QM>  (200) 
0

>  <FF_Energy>  (200) 
-1.35

>  <QM_Energy>  (200) 
-7.64

>  <source>  (200) 
ETAM_MBZ

>  <Index>  (200) 
1960

$$$$
ETAM-pdb2d3w-A-LYS-212:MBZ-pdb2d3w-A-PHE-230
     RDKit          3D

 26 25  0  0  0  0  0  0  0  0999 V2000
   -2.7739    1.6362   -3.6885 C   0  0  0  0  0  0  0  0  0  0  0  0
   -3.0771    2.5623   -3.5066 H   0  0  0  0  0  0  0  0  0  0  0  0
   -3.1866    1.2843   -4.5178 H   0  0  0  0  0  0  0  0  0  0  0  0
   -1.6899    1.6346   -3.8025 H   0  0  0  0  0  0  0  0  0  0  0  0
   -3.2030    0.7472   -2.5190 C   0  0  0  0  0  0  0  0  0  0  0  0
   -2.8011    1.1147   -1.6702 H   0  0  0  0  0  0  0  0  0  0  0  0
   -4.2067    0.7894   -2.4335 H   0  0  0  0  0  0  0  0  0  0  0  0
   -2.7880   -0.6806   -2.6749 N   0  0  0  0  0  4  0  0  0  0  0  0
   -1.9027   -0.8150   -2.2341 H   0  0  0  0  0  0  0  0  0  0  0  0
   -3.4712   -1.2695   -2.2463 H   0  0  0  0  0  0  0  0  0  0  0  0
   -2.7176   -0.8973   -3.6469 H   0  0  0  0  0  0  0  0  0  0  0  0
   -0.0039    2.9073   -0.0063 C   0  0  0  0  0  0  0  0  0  0  0  0
   -0.9170    3.2137   -0.2304 H   0  0  0  0  0  0  0  0  0  0  0  0
    0.6526    3.2133   -0.6792 H   0  0  0  0  0  0  0  0  0  0  0  0
    0.2692    3.3572    0.9483 H   0  0  0  0  0  0  0  0  0  0  0  0
   -0.0029    1.4037   -0.0006 C   0  0  0  0  0  0  0  0  0  0  0  0
   -1.1977    0.6973    0.0028 C   0  0  0  0  0  0  0  0  0  0  0  0
   -2.0654    1.1837    0.0061 H   0  0  0  0  0  0  0  0  0  0  0  0
   -1.2020   -0.6995   -0.0000 C   0  0  0  0  0  0  0  0  0  0  0  0
   -2.0745   -1.1936    0.0013 H   0  0  0  0  0  0  0  0  0  0  0  0
    0.0082   -1.3950   -0.0023 C   0  0  0  0  0  0  0  0  0  0  0  0
    0.0010   -2.3938   -0.0060 H   0  0  0  0  0  0  0  0  0  0  0  0
    1.2020   -0.6982    0.0000 C   0  0  0  0  0  0  0  0  0  0  0  0
    2.0863   -1.1918    0.0033 H   0  0  0  0  0  0  0  0  0  0  0  0
    1.1924    0.6916    0.0001 C   0  0  0  0  0  0  0  0  0  0  0  0
    2.0619    1.1900   -0.0006 H   0  0  0  0  0  0  0  0  0  0  0  0
  1  5  1  0
  5  8  1  0
  1  2  1  0
  1  3  1  0
  1  4  1  0
  5  6  1  0
  5  7  1  0
  8  9  1  0
  8 10  1  0
  8 11  1  0
 12 16  1  0
 16 17  2  0
 17 19  1  0
 19 21  2  0
 21 23  1  0
 23 25  2  0
 25 16  1  0
 12 13  1  0
 12 14  1  0
 12 15  1  0
 17 18  1  0
 19 20  1  0
 21 22  1  0
 23 24  1  0
 25 26  1  0
M  CHG  1   8   1
M  END
>  <PDB_ID>  (201) 
pdb2d3w

>  <RESIDUE_NAME>  (201) 
LYS   PHE

>  <FRAG_NAME>  (201) 
ETAM   MBZ

>  <FRAG_ATOM_NUM>  (201) 
fragi: 11  fragj: 15

>  <atom.prop.CHAIN_ID>  (201) 
A A A A A A A A A A A Z Z Z Z Z Z Z Z Z Z Z Z Z Z Z

>  <atom.prop.IS_HEAVY_ATOM>  (201) 
1 0 0 0 1 0 0 1 0 0 0 1 0 0 0 1 1 0 1 0 1 0 1 0 1 0

>  <DIFUSE_FUNC_ATOM>  (201) 
n/a

>  <FINAL_SINGLE_POINT_ENERGY>  (201) 
0

>  <NONCOV_INTER_ENERGY_QM>  (201) 
0

>  <FF_Energy>  (201) 
2.2

>  <QM_Energy>  (201) 
-8.85

>  <source>  (201) 
ETAM_MBZ

>  <Index>  (201) 
1972

$$$$
ETAM-pdb2d3w-C-LYS-212:MBZ-pdb2d3w-C-PHE-230
     RDKit          3D

 26 25  0  0  0  0  0  0  0  0999 V2000
    5.2064    1.7788   -0.8067 C   0  0  0  0  0  0  0  0  0  0  0  0
    5.9675    2.0593   -1.3839 H   0  0  0  0  0  0  0  0  0  0  0  0
    5.0936    2.4175   -0.0516 H   0  0  0  0  0  0  0  0  0  0  0  0
    4.2936    1.7652   -1.4023 H   0  0  0  0  0  0  0  0  0  0  0  0
    5.5461    0.3923   -0.2109 C   0  0  0  0  0  0  0  0  0  0  0  0
    5.5925   -0.2735   -0.9707 H   0  0  0  0  0  0  0  0  0  0  0  0
    6.4652    0.4457    0.2064 H   0  0  0  0  0  0  0  0  0  0  0  0
    4.5707   -0.0948    0.8108 N   0  0  0  0  0  4  0  0  0  0  0  0
    3.8303    0.5695    0.9007 H   0  0  0  0  0  0  0  0  0  0  0  0
    4.2002   -0.9749    0.5184 H   0  0  0  0  0  0  0  0  0  0  0  0
    5.0382   -0.1998    1.6874 H   0  0  0  0  0  0  0  0  0  0  0  0
    0.0016    2.9148   -0.0193 C   0  0  0  0  0  0  0  0  0  0  0  0
    0.2511    3.2078   -0.9293 H   0  0  0  0  0  0  0  0  0  0  0  0
    0.6554    3.2266    0.6532 H   0  0  0  0  0  0  0  0  0  0  0  0
   -0.9632    3.3608    0.2220 H   0  0  0  0  0  0  0  0  0  0  0  0
   -0.0024    1.4091   -0.0004 C   0  0  0  0  0  0  0  0  0  0  0  0
   -1.1986    0.6945   -0.0007 C   0  0  0  0  0  0  0  0  0  0  0  0
   -2.0677    1.1814   -0.0029 H   0  0  0  0  0  0  0  0  0  0  0  0
   -1.2031   -0.7033    0.0000 C   0  0  0  0  0  0  0  0  0  0  0  0
   -2.0762   -1.1959    0.0006 H   0  0  0  0  0  0  0  0  0  0  0  0
    0.0054   -1.3990    0.0014 C   0  0  0  0  0  0  0  0  0  0  0  0
    0.0011   -2.3967    0.0027 H   0  0  0  0  0  0  0  0  0  0  0  0
    1.2031   -0.7001    0.0000 C   0  0  0  0  0  0  0  0  0  0  0  0
    2.0867   -1.1915    0.0003 H   0  0  0  0  0  0  0  0  0  0  0  0
    1.1956    0.6988   -0.0003 C   0  0  0  0  0  0  0  0  0  0  0  0
    2.0639    1.1928   -0.0013 H   0  0  0  0  0  0  0  0  0  0  0  0
  1  5  1  0
  5  8  1  0
  1  2  1  0
  1  3  1  0
  1  4  1  0
  5  6  1  0
  5  7  1  0
  8  9  1  0
  8 10  1  0
  8 11  1  0
 12 16  1  0
 16 17  2  0
 17 19  1  0
 19 21  2  0
 21 23  1  0
 23 25  2  0
 25 16  1  0
 12 13  1  0
 12 14  1  0
 12 15  1  0
 17 18  1  0
 19 20  1  0
 21 22  1  0
 23 24  1  0
 25 26  1  0
M  CHG  1   8   1
M  END
>  <PDB_ID>  (202) 
pdb2d3w

>  <RESIDUE_NAME>  (202) 
LYS   PHE

>  <FRAG_NAME>  (202) 
ETAM   MBZ

>  <FRAG_ATOM_NUM>  (202) 
fragi: 11  fragj: 15

>  <atom.prop.CHAIN_ID>  (202) 
A A A A A A A A A A A Z Z Z Z Z Z Z Z Z Z Z Z Z Z Z

>  <atom.prop.IS_HEAVY_ATOM>  (202) 
1 0 0 0 1 0 0 1 0 0 0 1 0 0 0 1 1 0 1 0 1 0 1 0 1 0

>  <DIFUSE_FUNC_ATOM>  (202) 
n/a

>  <FINAL_SINGLE_POINT_ENERGY>  (202) 
0

>  <NONCOV_INTER_ENERGY_QM>  (202) 
0

>  <FF_Energy>  (202) 
0.77

>  <QM_Energy>  (202) 
-4.27

>  <source>  (202) 
ETAM_MBZ

>  <Index>  (202) 
1973

$$$$
ETAM-pdb1cm8-A-LYS-52:MBZ-pdb1cm8-A-PHE-111
     RDKit          3D

 26 25  0  0  0  0  0  0  0  0999 V2000
    2.6562    0.7818   -4.0051 C   0  0  0  0  0  0  0  0  0  0  0  0
    3.3302    0.4284   -4.6457 H   0  0  0  0  0  0  0  0  0  0  0  0
    3.0723    0.9369   -3.1149 H   0  0  0  0  0  0  0  0  0  0  0  0
    2.2868    1.7346   -4.3845 H   0  0  0  0  0  0  0  0  0  0  0  0
    1.5400   -0.2467   -3.8519 C   0  0  0  0  0  0  0  0  0  0  0  0
    0.8654    0.0995   -3.1977 H   0  0  0  0  0  0  0  0  0  0  0  0
    1.0965   -0.3823   -4.7405 H   0  0  0  0  0  0  0  0  0  0  0  0
    2.0596   -1.5692   -3.3610 N   0  0  0  0  0  4  0  0  0  0  0  0
    2.1416   -2.1929   -4.1348 H   0  0  0  0  0  0  0  0  0  0  0  0
    2.9527   -1.4303   -2.9395 H   0  0  0  0  0  0  0  0  0  0  0  0
    1.4209   -1.9398   -2.6914 H   0  0  0  0  0  0  0  0  0  0  0  0
    0.0088    2.8886   -0.0671 C   0  0  0  0  0  0  0  0  0  0  0  0
   -0.6501    3.1713   -0.7533 H   0  0  0  0  0  0  0  0  0  0  0  0
    0.9234    3.1850   -0.3133 H   0  0  0  0  0  0  0  0  0  0  0  0
   -0.2579    3.3733    0.8721 H   0  0  0  0  0  0  0  0  0  0  0  0
    0.0032    1.4047   -0.0006 C   0  0  0  0  0  0  0  0  0  0  0  0
   -1.1999    0.6949    0.0028 C   0  0  0  0  0  0  0  0  0  0  0  0
   -2.0646    1.1863    0.0064 H   0  0  0  0  0  0  0  0  0  0  0  0
   -1.2100   -0.7034   -0.0000 C   0  0  0  0  0  0  0  0  0  0  0  0
   -2.0869   -1.1909    0.0015 H   0  0  0  0  0  0  0  0  0  0  0  0
   -0.0075   -1.4034   -0.0027 C   0  0  0  0  0  0  0  0  0  0  0  0
   -0.0054   -2.3978   -0.0068 H   0  0  0  0  0  0  0  0  0  0  0  0
    1.2100   -0.6982    0.0000 C   0  0  0  0  0  0  0  0  0  0  0  0
    2.0845   -1.1950    0.0030 H   0  0  0  0  0  0  0  0  0  0  0  0
    1.2042    0.7054    0.0006 C   0  0  0  0  0  0  0  0  0  0  0  0
    2.0699    1.1973    0.0014 H   0  0  0  0  0  0  0  0  0  0  0  0
  1  5  1  0
  5  8  1  0
  1  2  1  0
  1  3  1  0
  1  4  1  0
  5  6  1  0
  5  7  1  0
  8  9  1  0
  8 10  1  0
  8 11  1  0
 12 16  1  0
 16 17  2  0
 17 19  1  0
 19 21  2  0
 21 23  1  0
 23 25  2  0
 25 16  1  0
 12 13  1  0
 12 14  1  0
 12 15  1  0
 17 18  1  0
 19 20  1  0
 21 22  1  0
 23 24  1  0
 25 26  1  0
M  CHG  1   8   1
M  END
>  <PDB_ID>  (203) 
pdb1cm8

>  <RESIDUE_NAME>  (203) 
LYS   PHE

>  <FRAG_NAME>  (203) 
ETAM   MBZ

>  <FRAG_ATOM_NUM>  (203) 
fragi: 11  fragj: 15

>  <atom.prop.CHAIN_ID>  (203) 
A A A A A A A A A A A Z Z Z Z Z Z Z Z Z Z Z Z Z Z Z

>  <atom.prop.IS_HEAVY_ATOM>  (203) 
1 0 0 0 1 0 0 1 0 0 0 1 0 0 0 1 1 0 1 0 1 0 1 0 1 0

>  <DIFUSE_FUNC_ATOM>  (203) 
n/a

>  <FINAL_SINGLE_POINT_ENERGY>  (203) 
0

>  <NONCOV_INTER_ENERGY_QM>  (203) 
0

>  <FF_Energy>  (203) 
-4.53

>  <QM_Energy>  (203) 
-10.34

>  <source>  (203) 
ETAM_MBZ

>  <Index>  (203) 
1993

$$$$
ETAM-pdb1cgi-E-LYS-203:MBZ-pdb1cgi-E-PHE-130
     RDKit          3D

 26 25  0  0  0  0  0  0  0  0999 V2000
    1.2724   -4.3037    2.9474 C   0  0  0  0  0  0  0  0  0  0  0  0
    1.2814   -5.2848    2.7906 H   0  0  0  0  0  0  0  0  0  0  0  0
    0.7886   -4.0898    3.7885 H   0  0  0  0  0  0  0  0  0  0  0  0
    2.3039   -3.9674    3.0521 H   0  0  0  0  0  0  0  0  0  0  0  0
    0.5696   -3.6219    1.7855 C   0  0  0  0  0  0  0  0  0  0  0  0
    0.2570   -2.7177    2.0788 H   0  0  0  0  0  0  0  0  0  0  0  0
    1.2145   -3.5205    1.0275 H   0  0  0  0  0  0  0  0  0  0  0  0
   -0.6036   -4.4193    1.3245 N   0  0  0  0  0  4  0  0  0  0  0  0
   -1.2952   -3.8032    0.9508 H   0  0  0  0  0  0  0  0  0  0  0  0
   -0.3088   -5.0615    0.6186 H   0  0  0  0  0  0  0  0  0  0  0  0
   -0.9852   -4.9224    2.0988 H   0  0  0  0  0  0  0  0  0  0  0  0
    0.0308    2.9049    0.0059 C   0  0  0  0  0  0  0  0  0  0  0  0
   -0.7406    3.2130   -0.6076 H   0  0  0  0  0  0  0  0  0  0  0  0
    0.8889    3.1823   -0.4978 H   0  0  0  0  0  0  0  0  0  0  0  0
   -0.0192    3.5051    0.9144 H   0  0  0  0  0  0  0  0  0  0  0  0
    0.0023    1.4128    0.0168 C   0  0  0  0  0  0  0  0  0  0  0  0
   -1.1814    0.6763    0.0131 C   0  0  0  0  0  0  0  0  0  0  0  0
   -2.0628    1.1850    0.0188 H   0  0  0  0  0  0  0  0  0  0  0  0
   -1.2265   -0.7063    0.0000 C   0  0  0  0  0  0  0  0  0  0  0  0
   -2.0877   -1.1888   -0.0124 H   0  0  0  0  0  0  0  0  0  0  0  0
   -0.0132   -1.3723    0.0072 C   0  0  0  0  0  0  0  0  0  0  0  0
   -0.0159   -2.3941    0.0173 H   0  0  0  0  0  0  0  0  0  0  0  0
    1.2265   -0.7163    0.0000 C   0  0  0  0  0  0  0  0  0  0  0  0
    2.0799   -1.1975    0.0212 H   0  0  0  0  0  0  0  0  0  0  0  0
    1.1923    0.7057   -0.0370 C   0  0  0  0  0  0  0  0  0  0  0  0
    2.0658    1.1970   -0.1055 H   0  0  0  0  0  0  0  0  0  0  0  0
  1  5  1  0
  5  8  1  0
  1  2  1  0
  1  3  1  0
  1  4  1  0
  5  6  1  0
  5  7  1  0
  8  9  1  0
  8 10  1  0
  8 11  1  0
 12 16  1  0
 16 17  2  0
 17 19  1  0
 19 21  2  0
 21 23  1  0
 23 25  2  0
 25 16  1  0
 12 13  1  0
 12 14  1  0
 12 15  1  0
 17 18  1  0
 19 20  1  0
 21 22  1  0
 23 24  1  0
 25 26  1  0
M  CHG  1   8   1
M  END
>  <PDB_ID>  (204) 
pdb1cgi

>  <RESIDUE_NAME>  (204) 
LYS   PHE

>  <FRAG_NAME>  (204) 
ETAM   MBZ

>  <FRAG_ATOM_NUM>  (204) 
fragi: 11  fragj: 15

>  <atom.prop.CHAIN_ID>  (204) 
A A A A A A A A A A A Z Z Z Z Z Z Z Z Z Z Z Z Z Z Z

>  <atom.prop.IS_HEAVY_ATOM>  (204) 
1 0 0 0 1 0 0 1 0 0 0 1 0 0 0 1 1 0 1 0 1 0 1 0 1 0

>  <DIFUSE_FUNC_ATOM>  (204) 
n/a

>  <FINAL_SINGLE_POINT_ENERGY>  (204) 
0

>  <NONCOV_INTER_ENERGY_QM>  (204) 
0

>  <FF_Energy>  (204) 
10.87

>  <QM_Energy>  (204) 
-0.58

>  <source>  (204) 
ETAM_MBZ

>  <Index>  (204) 
1996

$$$$
ETAM-pdb2cxi-A-LYS-171:MBZ-pdb2cxi-A-PHE-220
     RDKit          3D

 26 25  0  0  0  0  0  0  0  0999 V2000
   -0.7893   -4.5101   -1.5623 C   0  0  0  0  0  0  0  0  0  0  0  0
   -1.5001   -4.7023   -0.8884 H   0  0  0  0  0  0  0  0  0  0  0  0
   -0.3176   -3.6636   -1.3259 H   0  0  0  0  0  0  0  0  0  0  0  0
   -0.0728   -5.3313   -1.5727 H   0  0  0  0  0  0  0  0  0  0  0  0
   -1.4708   -4.3070   -2.9262 C   0  0  0  0  0  0  0  0  0  0  0  0
   -0.7730   -4.2145   -3.6244 H   0  0  0  0  0  0  0  0  0  0  0  0
   -2.0564   -5.0847   -3.1133 H   0  0  0  0  0  0  0  0  0  0  0  0
   -2.3128   -3.0511   -2.9012 N   0  0  0  0  0  4  0  0  0  0  0  0
   -1.7999   -2.3136   -3.3316 H   0  0  0  0  0  0  0  0  0  0  0  0
   -3.1560   -3.2214   -3.4028 H   0  0  0  0  0  0  0  0  0  0  0  0
   -2.5163   -2.8218   -1.9540 H   0  0  0  0  0  0  0  0  0  0  0  0
   -0.0014    2.9251   -0.0157 C   0  0  0  0  0  0  0  0  0  0  0  0
    0.9122    3.2254    0.2067 H   0  0  0  0  0  0  0  0  0  0  0  0
   -0.6574    3.2313    0.6554 H   0  0  0  0  0  0  0  0  0  0  0  0
   -0.2759    3.3507   -0.9809 H   0  0  0  0  0  0  0  0  0  0  0  0
   -0.0039    1.4148   -0.0048 C   0  0  0  0  0  0  0  0  0  0  0  0
   -1.2049    0.7115   -0.0034 C   0  0  0  0  0  0  0  0  0  0  0  0
   -2.0709    1.1921   -0.0061 H   0  0  0  0  0  0  0  0  0  0  0  0
   -1.2133   -0.7045    0.0000 C   0  0  0  0  0  0  0  0  0  0  0  0
   -2.0870   -1.1875   -0.0062 H   0  0  0  0  0  0  0  0  0  0  0  0
   -0.0022   -1.4050    0.0132 C   0  0  0  0  0  0  0  0  0  0  0  0
   -0.0112   -2.4040    0.0315 H   0  0  0  0  0  0  0  0  0  0  0  0
    1.2133   -0.7156   -0.0000 C   0  0  0  0  0  0  0  0  0  0  0  0
    2.0874   -1.2082   -0.0045 H   0  0  0  0  0  0  0  0  0  0  0  0
    1.2110    0.6987   -0.0050 C   0  0  0  0  0  0  0  0  0  0  0  0
    2.0720    1.1890   -0.0096 H   0  0  0  0  0  0  0  0  0  0  0  0
  1  5  1  0
  5  8  1  0
  1  2  1  0
  1  3  1  0
  1  4  1  0
  5  6  1  0
  5  7  1  0
  8  9  1  0
  8 10  1  0
  8 11  1  0
 12 16  1  0
 16 17  2  0
 17 19  1  0
 19 21  2  0
 21 23  1  0
 23 25  2  0
 25 16  1  0
 12 13  1  0
 12 14  1  0
 12 15  1  0
 17 18  1  0
 19 20  1  0
 21 22  1  0
 23 24  1  0
 25 26  1  0
M  CHG  1   8   1
M  END
>  <PDB_ID>  (205) 
pdb2cxi

>  <RESIDUE_NAME>  (205) 
LYS   PHE

>  <FRAG_NAME>  (205) 
ETAM   MBZ

>  <FRAG_ATOM_NUM>  (205) 
fragi: 11  fragj: 15

>  <atom.prop.CHAIN_ID>  (205) 
A A A A A A A A A A A Z Z Z Z Z Z Z Z Z Z Z Z Z Z Z

>  <atom.prop.IS_HEAVY_ATOM>  (205) 
1 0 0 0 1 0 0 1 0 0 0 1 0 0 0 1 1 0 1 0 1 0 1 0 1 0

>  <DIFUSE_FUNC_ATOM>  (205) 
n/a

>  <FINAL_SINGLE_POINT_ENERGY>  (205) 
0

>  <NONCOV_INTER_ENERGY_QM>  (205) 
0

>  <FF_Energy>  (205) 
0.72

>  <QM_Energy>  (205) 
-4.77

>  <source>  (205) 
ETAM_MBZ

>  <Index>  (205) 
1998

$$$$
ETAM-pdb1coj-A-LYS-119:MBZ-pdb1coj-A-PHE-185
     RDKit          3D

 26 25  0  0  0  0  0  0  0  0999 V2000
    3.3091   -1.2893    4.4623 C   0  0  0  0  0  0  0  0  0  0  0  0
    3.1372   -1.8293    5.2848 H   0  0  0  0  0  0  0  0  0  0  0  0
    4.2324   -0.9093    4.4969 H   0  0  0  0  0  0  0  0  0  0  0  0
    3.2287   -1.9402    3.5917 H   0  0  0  0  0  0  0  0  0  0  0  0
    2.3152   -0.1382    4.4235 C   0  0  0  0  0  0  0  0  0  0  0  0
    1.3774   -0.5207    4.3971 H   0  0  0  0  0  0  0  0  0  0  0  0
    2.4006    0.3935    5.2815 H   0  0  0  0  0  0  0  0  0  0  0  0
    2.4964    0.7787    3.2661 N   0  0  0  0  0  4  0  0  0  0  0  0
    2.1902    1.6968    3.5190 H   0  0  0  0  0  0  0  0  0  0  0  0
    3.4632    0.8059    3.0127 H   0  0  0  0  0  0  0  0  0  0  0  0
    1.9572    0.4473    2.4930 H   0  0  0  0  0  0  0  0  0  0  0  0
   -0.0102    2.9074   -0.0312 C   0  0  0  0  0  0  0  0  0  0  0  0
    0.8398    3.2264    0.3570 H   0  0  0  0  0  0  0  0  0  0  0  0
   -0.7877    3.2191    0.4926 H   0  0  0  0  0  0  0  0  0  0  0  0
   -0.0960    3.3200   -1.0364 H   0  0  0  0  0  0  0  0  0  0  0  0
   -0.0007    1.4041    0.0003 C   0  0  0  0  0  0  0  0  0  0  0  0
   -1.1982    0.6934   -0.0000 C   0  0  0  0  0  0  0  0  0  0  0  0
   -2.0656    1.1830   -0.0019 H   0  0  0  0  0  0  0  0  0  0  0  0
   -1.2036   -0.7010   -0.0000 C   0  0  0  0  0  0  0  0  0  0  0  0
   -2.0776   -1.1940    0.0025 H   0  0  0  0  0  0  0  0  0  0  0  0
    0.0021   -1.3967   -0.0020 C   0  0  0  0  0  0  0  0  0  0  0  0
   -0.0012   -2.3945   -0.0053 H   0  0  0  0  0  0  0  0  0  0  0  0
    1.2036   -0.6979    0.0000 C   0  0  0  0  0  0  0  0  0  0  0  0
    2.0855   -1.1920    0.0022 H   0  0  0  0  0  0  0  0  0  0  0  0
    1.1968    0.6982    0.0017 C   0  0  0  0  0  0  0  0  0  0  0  0
    2.0645    1.1929    0.0036 H   0  0  0  0  0  0  0  0  0  0  0  0
  1  5  1  0
  5  8  1  0
  1  2  1  0
  1  3  1  0
  1  4  1  0
  5  6  1  0
  5  7  1  0
  8  9  1  0
  8 10  1  0
  8 11  1  0
 12 16  1  0
 16 17  2  0
 17 19  1  0
 19 21  2  0
 21 23  1  0
 23 25  2  0
 25 16  1  0
 12 13  1  0
 12 14  1  0
 12 15  1  0
 17 18  1  0
 19 20  1  0
 21 22  1  0
 23 24  1  0
 25 26  1  0
M  CHG  1   8   1
M  END
>  <PDB_ID>  (206) 
pdb1coj

>  <RESIDUE_NAME>  (206) 
LYS   PHE

>  <FRAG_NAME>  (206) 
ETAM   MBZ

>  <FRAG_ATOM_NUM>  (206) 
fragi: 11  fragj: 15

>  <atom.prop.CHAIN_ID>  (206) 
A A A A A A A A A A A Z Z Z Z Z Z Z Z Z Z Z Z Z Z Z

>  <atom.prop.IS_HEAVY_ATOM>  (206) 
1 0 0 0 1 0 0 1 0 0 0 1 0 0 0 1 1 0 1 0 1 0 1 0 1 0

>  <DIFUSE_FUNC_ATOM>  (206) 
n/a

>  <FINAL_SINGLE_POINT_ENERGY>  (206) 
0

>  <NONCOV_INTER_ENERGY_QM>  (206) 
0

>  <FF_Energy>  (206) 
-4.39

>  <QM_Energy>  (206) 
-10.09

>  <source>  (206) 
ETAM_MBZ

>  <Index>  (206) 
2050

$$$$
ETAM-pdb2db0-B-LYS-79:MBZ-pdb2db0-B-PHE-75
     RDKit          3D

 26 25  0  0  0  0  0  0  0  0999 V2000
    2.9197   -1.3129    3.8009 C   0  0  0  0  0  0  0  0  0  0  0  0
    3.3908   -0.4668    3.5174 H   0  0  0  0  0  0  0  0  0  0  0  0
    3.5030   -1.7850    4.4750 H   0  0  0  0  0  0  0  0  0  0  0  0
    1.9744   -1.0484    4.2747 H   0  0  0  0  0  0  0  0  0  0  0  0
    2.8593   -2.2581    2.5078 C   0  0  0  0  0  0  0  0  0  0  0  0
    2.0909   -2.9486    2.6525 H   0  0  0  0  0  0  0  0  0  0  0  0
    2.5116   -1.6847    1.7084 H   0  0  0  0  0  0  0  0  0  0  0  0
    4.1119   -3.1177    1.9149 N   0  0  0  0  0  4  0  0  0  0  0  0
    4.5699   -2.5160    1.2932 H   0  0  0  0  0  0  0  0  0  0  0  0
    4.6558   -3.3554    2.6926 H   0  0  0  0  0  0  0  0  0  0  0  0
    3.7099   -3.8940    1.4749 H   0  0  0  0  0  0  0  0  0  0  0  0
    0.0045    3.0199    0.0171 C   0  0  0  0  0  0  0  0  0  0  0  0
   -0.6186    3.2755   -0.7003 H   0  0  0  0  0  0  0  0  0  0  0  0
    0.9324    3.2736   -0.1893 H   0  0  0  0  0  0  0  0  0  0  0  0
   -0.3024    3.4905    0.9512 H   0  0  0  0  0  0  0  0  0  0  0  0
   -0.0062    1.4268    0.0449 C   0  0  0  0  0  0  0  0  0  0  0  0
   -1.1918    0.6981   -0.0201 C   0  0  0  0  0  0  0  0  0  0  0  0
   -2.0693    1.1508   -0.0830 H   0  0  0  0  0  0  0  0  0  0  0  0
   -1.1872   -0.7540    0.0000 C   0  0  0  0  0  0  0  0  0  0  0  0
   -2.0591   -1.2208    0.0242 H   0  0  0  0  0  0  0  0  0  0  0  0
    0.0154   -1.3948   -0.0132 C   0  0  0  0  0  0  0  0  0  0  0  0
    0.0437   -2.4059   -0.0331 H   0  0  0  0  0  0  0  0  0  0  0  0
    1.1872   -0.6826   -0.0000 C   0  0  0  0  0  0  0  0  0  0  0  0
    2.0871   -1.1706    0.0202 H   0  0  0  0  0  0  0  0  0  0  0  0
    1.1826    0.7064   -0.0116 C   0  0  0  0  0  0  0  0  0  0  0  0
    2.0550    1.2017   -0.0630 H   0  0  0  0  0  0  0  0  0  0  0  0
  1  5  1  0
  5  8  1  0
  1  2  1  0
  1  3  1  0
  1  4  1  0
  5  6  1  0
  5  7  1  0
  8  9  1  0
  8 10  1  0
  8 11  1  0
 12 16  1  0
 16 17  2  0
 17 19  1  0
 19 21  2  0
 21 23  1  0
 23 25  2  0
 25 16  1  0
 12 13  1  0
 12 14  1  0
 12 15  1  0
 17 18  1  0
 19 20  1  0
 21 22  1  0
 23 24  1  0
 25 26  1  0
M  CHG  1   8   1
M  END
>  <PDB_ID>  (207) 
pdb2db0

>  <RESIDUE_NAME>  (207) 
LYS   PHE

>  <FRAG_NAME>  (207) 
ETAM   MBZ

>  <FRAG_ATOM_NUM>  (207) 
fragi: 11  fragj: 15

>  <atom.prop.CHAIN_ID>  (207) 
A A A A A A A A A A A Z Z Z Z Z Z Z Z Z Z Z Z Z Z Z

>  <atom.prop.IS_HEAVY_ATOM>  (207) 
1 0 0 0 1 0 0 1 0 0 0 1 0 0 0 1 1 0 1 0 1 0 1 0 1 0

>  <DIFUSE_FUNC_ATOM>  (207) 
n/a

>  <FINAL_SINGLE_POINT_ENERGY>  (207) 
0

>  <NONCOV_INTER_ENERGY_QM>  (207) 
0

>  <FF_Energy>  (207) 
4.68

>  <QM_Energy>  (207) 
-2.57

>  <source>  (207) 
ETAM_MBZ

>  <Index>  (207) 
2052

$$$$
ETAM-pdb2db3-B-LYS-512:MBZ-pdb2db3-B-PHE-508
     RDKit          3D

 26 25  0  0  0  0  0  0  0  0999 V2000
   -1.9541   -1.4459    4.2395 C   0  0  0  0  0  0  0  0  0  0  0  0
   -1.0309   -1.0704    4.2968 H   0  0  0  0  0  0  0  0  0  0  0  0
   -2.0585   -2.1871    4.9005 H   0  0  0  0  0  0  0  0  0  0  0  0
   -2.6735   -0.6592    4.4669 H   0  0  0  0  0  0  0  0  0  0  0  0
   -2.1553   -2.0144    2.8461 C   0  0  0  0  0  0  0  0  0  0  0  0
   -3.1252   -2.2170    2.7104 H   0  0  0  0  0  0  0  0  0  0  0  0
   -1.8590   -1.3396    2.1694 H   0  0  0  0  0  0  0  0  0  0  0  0
   -1.3648   -3.2727    2.6561 N   0  0  0  0  0  4  0  0  0  0  0  0
   -0.4722   -3.1667    3.0894 H   0  0  0  0  0  0  0  0  0  0  0  0
   -1.8563   -4.0341    3.0752 H   0  0  0  0  0  0  0  0  0  0  0  0
   -1.2484   -3.4412    1.6789 H   0  0  0  0  0  0  0  0  0  0  0  0
    0.0167    2.9169   -0.0838 C   0  0  0  0  0  0  0  0  0  0  0  0
   -0.0952    3.1707   -1.0349 H   0  0  0  0  0  0  0  0  0  0  0  0
    0.8876    3.2314    0.2674 H   0  0  0  0  0  0  0  0  0  0  0  0
   -0.7702    3.4094    0.4874 H   0  0  0  0  0  0  0  0  0  0  0  0
    0.0001    1.4108   -0.0016 C   0  0  0  0  0  0  0  0  0  0  0  0
   -1.1988    0.7026    0.0001 C   0  0  0  0  0  0  0  0  0  0  0  0
   -2.0659    1.1869    0.0002 H   0  0  0  0  0  0  0  0  0  0  0  0
   -1.2031   -0.7009   -0.0000 C   0  0  0  0  0  0  0  0  0  0  0  0
   -2.0795   -1.1902    0.0019 H   0  0  0  0  0  0  0  0  0  0  0  0
    0.0017   -1.4016   -0.0006 C   0  0  0  0  0  0  0  0  0  0  0  0
   -0.0050   -2.3983   -0.0015 H   0  0  0  0  0  0  0  0  0  0  0  0
    1.2031   -0.7045    0.0000 C   0  0  0  0  0  0  0  0  0  0  0  0
    2.0845   -1.1980    0.0004 H   0  0  0  0  0  0  0  0  0  0  0  0
    1.1970    0.6937    0.0021 C   0  0  0  0  0  0  0  0  0  0  0  0
    2.0671    1.1873    0.0058 H   0  0  0  0  0  0  0  0  0  0  0  0
  1  5  1  0
  5  8  1  0
  1  2  1  0
  1  3  1  0
  1  4  1  0
  5  6  1  0
  5  7  1  0
  8  9  1  0
  8 10  1  0
  8 11  1  0
 12 16  1  0
 16 17  2  0
 17 19  1  0
 19 21  2  0
 21 23  1  0
 23 25  2  0
 25 16  1  0
 12 13  1  0
 12 14  1  0
 12 15  1  0
 17 18  1  0
 19 20  1  0
 21 22  1  0
 23 24  1  0
 25 26  1  0
M  CHG  1   8   1
M  END
>  <PDB_ID>  (208) 
pdb2db3

>  <RESIDUE_NAME>  (208) 
LYS   PHE

>  <FRAG_NAME>  (208) 
ETAM   MBZ

>  <FRAG_ATOM_NUM>  (208) 
fragi: 11  fragj: 15

>  <atom.prop.CHAIN_ID>  (208) 
A A A A A A A A A A A Z Z Z Z Z Z Z Z Z Z Z Z Z Z Z

>  <atom.prop.IS_HEAVY_ATOM>  (208) 
1 0 0 0 1 0 0 1 0 0 0 1 0 0 0 1 1 0 1 0 1 0 1 0 1 0

>  <DIFUSE_FUNC_ATOM>  (208) 
n/a

>  <FINAL_SINGLE_POINT_ENERGY>  (208) 
0

>  <NONCOV_INTER_ENERGY_QM>  (208) 
0

>  <FF_Energy>  (208) 
0.78

>  <QM_Energy>  (208) 
-6.81

>  <source>  (208) 
ETAM_MBZ

>  <Index>  (208) 
2057

$$$$
ETAM-pdb2db3-D-LYS-512:MBZ-pdb2db3-D-PHE-508
     RDKit          3D

 26 25  0  0  0  0  0  0  0  0999 V2000
    2.2191   -2.0301    3.3028 C   0  0  0  0  0  0  0  0  0  0  0  0
    2.3560   -1.5307    2.4596 H   0  0  0  0  0  0  0  0  0  0  0  0
    2.9300   -2.7042    3.4395 H   0  0  0  0  0  0  0  0  0  0  0  0
    2.2064   -1.3347    4.1420 H   0  0  0  0  0  0  0  0  0  0  0  0
    0.8819   -2.7578    3.2162 C   0  0  0  0  0  0  0  0  0  0  0  0
    0.7640   -3.3202    4.0387 H   0  0  0  0  0  0  0  0  0  0  0  0
    0.1433   -2.0792    3.1785 H   0  0  0  0  0  0  0  0  0  0  0  0
    0.7961   -3.6385    2.0079 N   0  0  0  0  0  4  0  0  0  0  0  0
    0.0921   -4.3301    2.1570 H   0  0  0  0  0  0  0  0  0  0  0  0
    0.5611   -3.0817    1.2134 H   0  0  0  0  0  0  0  0  0  0  0  0
    1.6789   -4.0804    1.8627 H   0  0  0  0  0  0  0  0  0  0  0  0
    0.0037    2.9023   -0.0183 C   0  0  0  0  0  0  0  0  0  0  0  0
   -0.8417    3.2074   -0.4336 H   0  0  0  0  0  0  0  0  0  0  0  0
    0.7871    3.2031   -0.5443 H   0  0  0  0  0  0  0  0  0  0  0  0
    0.0723    3.3560    0.9704 H   0  0  0  0  0  0  0  0  0  0  0  0
    0.0011    1.4067   -0.0005 C   0  0  0  0  0  0  0  0  0  0  0  0
   -1.1943    0.6999    0.0013 C   0  0  0  0  0  0  0  0  0  0  0  0
   -2.0622    1.1848    0.0018 H   0  0  0  0  0  0  0  0  0  0  0  0
   -1.1998   -0.7006    0.0000 C   0  0  0  0  0  0  0  0  0  0  0  0
   -2.0802   -1.1873    0.0007 H   0  0  0  0  0  0  0  0  0  0  0  0
   -0.0042   -1.3985   -0.0003 C   0  0  0  0  0  0  0  0  0  0  0  0
   -0.0075   -2.3968   -0.0014 H   0  0  0  0  0  0  0  0  0  0  0  0
    1.1998   -0.7031   -0.0000 C   0  0  0  0  0  0  0  0  0  0  0  0
    2.0801   -1.1985    0.0024 H   0  0  0  0  0  0  0  0  0  0  0  0
    1.1974    0.6956   -0.0005 C   0  0  0  0  0  0  0  0  0  0  0  0
    2.0666    1.1870   -0.0018 H   0  0  0  0  0  0  0  0  0  0  0  0
  1  5  1  0
  5  8  1  0
  1  2  1  0
  1  3  1  0
  1  4  1  0
  5  6  1  0
  5  7  1  0
  8  9  1  0
  8 10  1  0
  8 11  1  0
 12 16  1  0
 16 17  2  0
 17 19  1  0
 19 21  2  0
 21 23  1  0
 23 25  2  0
 25 16  1  0
 12 13  1  0
 12 14  1  0
 12 15  1  0
 17 18  1  0
 19 20  1  0
 21 22  1  0
 23 24  1  0
 25 26  1  0
M  CHG  1   8   1
M  END
>  <PDB_ID>  (209) 
pdb2db3

>  <RESIDUE_NAME>  (209) 
LYS   PHE

>  <FRAG_NAME>  (209) 
ETAM   MBZ

>  <FRAG_ATOM_NUM>  (209) 
fragi: 11  fragj: 15

>  <atom.prop.CHAIN_ID>  (209) 
A A A A A A A A A A A Z Z Z Z Z Z Z Z Z Z Z Z Z Z Z

>  <atom.prop.IS_HEAVY_ATOM>  (209) 
1 0 0 0 1 0 0 1 0 0 0 1 0 0 0 1 1 0 1 0 1 0 1 0 1 0

>  <DIFUSE_FUNC_ATOM>  (209) 
n/a

>  <FINAL_SINGLE_POINT_ENERGY>  (209) 
0

>  <NONCOV_INTER_ENERGY_QM>  (209) 
0

>  <FF_Energy>  (209) 
0.67

>  <QM_Energy>  (209) 
-6.71

>  <source>  (209) 
ETAM_MBZ

>  <Index>  (209) 
2062

$$$$
ETAM-pdb2dbb-A-LYS-48:MBZ-pdb2dbb-A-PHE-56
     RDKit          3D

 26 25  0  0  0  0  0  0  0  0999 V2000
    3.6336   -3.0724   -0.3963 C   0  0  0  0  0  0  0  0  0  0  0  0
    4.2879   -2.3589   -0.6355 H   0  0  0  0  0  0  0  0  0  0  0  0
    2.7846   -2.6609   -0.0733 H   0  0  0  0  0  0  0  0  0  0  0  0
    3.4206   -3.6647   -1.2863 H   0  0  0  0  0  0  0  0  0  0  0  0
    4.2210   -3.9147    0.7220 C   0  0  0  0  0  0  0  0  0  0  0  0
    3.5683   -4.6374    0.9649 H   0  0  0  0  0  0  0  0  0  0  0  0
    5.0710   -4.3397    0.4000 H   0  0  0  0  0  0  0  0  0  0  0  0
    4.5169   -3.0988    1.9389 N   0  0  0  0  0  4  0  0  0  0  0  0
    4.4937   -2.1303    1.6978 H   0  0  0  0  0  0  0  0  0  0  0  0
    3.8293   -3.2895    2.6374 H   0  0  0  0  0  0  0  0  0  0  0  0
    5.4223   -3.3393    2.2829 H   0  0  0  0  0  0  0  0  0  0  0  0
   -0.0056    2.9072   -0.0661 C   0  0  0  0  0  0  0  0  0  0  0  0
    0.8828    3.2276    0.2195 H   0  0  0  0  0  0  0  0  0  0  0  0
   -0.7197    3.2376    0.5295 H   0  0  0  0  0  0  0  0  0  0  0  0
   -0.1970    3.2963   -1.0661 H   0  0  0  0  0  0  0  0  0  0  0  0
   -0.0015    1.4058   -0.0004 C   0  0  0  0  0  0  0  0  0  0  0  0
   -1.2002    0.6967    0.0004 C   0  0  0  0  0  0  0  0  0  0  0  0
   -2.0663    1.1847    0.0002 H   0  0  0  0  0  0  0  0  0  0  0  0
   -1.2060   -0.7012    0.0000 C   0  0  0  0  0  0  0  0  0  0  0  0
   -2.0796   -1.1939    0.0028 H   0  0  0  0  0  0  0  0  0  0  0  0
    0.0039   -1.4012   -0.0019 C   0  0  0  0  0  0  0  0  0  0  0  0
   -0.0001   -2.3960   -0.0049 H   0  0  0  0  0  0  0  0  0  0  0  0
    1.2060   -0.6984   -0.0000 C   0  0  0  0  0  0  0  0  0  0  0  0
    2.0876   -1.1924    0.0018 H   0  0  0  0  0  0  0  0  0  0  0  0
    1.1977    0.6982    0.0019 C   0  0  0  0  0  0  0  0  0  0  0  0
    2.0648    1.1945    0.0036 H   0  0  0  0  0  0  0  0  0  0  0  0
  1  5  1  0
  5  8  1  0
  1  2  1  0
  1  3  1  0
  1  4  1  0
  5  6  1  0
  5  7  1  0
  8  9  1  0
  8 10  1  0
  8 11  1  0
 12 16  1  0
 16 17  2  0
 17 19  1  0
 19 21  2  0
 21 23  1  0
 23 25  2  0
 25 16  1  0
 12 13  1  0
 12 14  1  0
 12 15  1  0
 17 18  1  0
 19 20  1  0
 21 22  1  0
 23 24  1  0
 25 26  1  0
M  CHG  1   8   1
M  END
>  <PDB_ID>  (210) 
pdb2dbb

>  <RESIDUE_NAME>  (210) 
LYS   PHE

>  <FRAG_NAME>  (210) 
ETAM   MBZ

>  <FRAG_ATOM_NUM>  (210) 
fragi: 11  fragj: 15

>  <atom.prop.CHAIN_ID>  (210) 
A A A A A A A A A A A Z Z Z Z Z Z Z Z Z Z Z Z Z Z Z

>  <atom.prop.IS_HEAVY_ATOM>  (210) 
1 0 0 0 1 0 0 1 0 0 0 1 0 0 0 1 1 0 1 0 1 0 1 0 1 0

>  <DIFUSE_FUNC_ATOM>  (210) 
n/a

>  <FINAL_SINGLE_POINT_ENERGY>  (210) 
0

>  <NONCOV_INTER_ENERGY_QM>  (210) 
0

>  <FF_Energy>  (210) 
12.9

>  <QM_Energy>  (210) 
0.75

>  <source>  (210) 
ETAM_MBZ

>  <Index>  (210) 
2067

$$$$
ETAM-pdb1crc-B-LYS-13:MBZ-pdb1crc-B-PHE-82
     RDKit          3D

 26 25  0  0  0  0  0  0  0  0999 V2000
   -2.3835   -4.0647    0.9765 C   0  0  0  0  0  0  0  0  0  0  0  0
   -2.1651   -4.7321    1.6932 H   0  0  0  0  0  0  0  0  0  0  0  0
   -1.5655   -3.9086    0.4161 H   0  0  0  0  0  0  0  0  0  0  0  0
   -3.1693   -4.4766    0.3433 H   0  0  0  0  0  0  0  0  0  0  0  0
   -2.7491   -2.7307    1.6646 C   0  0  0  0  0  0  0  0  0  0  0  0
   -1.9683   -2.1300    1.6268 H   0  0  0  0  0  0  0  0  0  0  0  0
   -3.5318   -2.3415    1.2078 H   0  0  0  0  0  0  0  0  0  0  0  0
   -3.0974   -3.0078    3.1029 N   0  0  0  0  0  4  0  0  0  0  0  0
   -3.1895   -3.9925    3.2296 H   0  0  0  0  0  0  0  0  0  0  0  0
   -2.3693   -2.6556    3.6855 H   0  0  0  0  0  0  0  0  0  0  0  0
   -3.9578   -2.5541    3.3199 H   0  0  0  0  0  0  0  0  0  0  0  0
   -0.0084    2.9321    0.0346 C   0  0  0  0  0  0  0  0  0  0  0  0
   -0.7458    3.2369   -0.5751 H   0  0  0  0  0  0  0  0  0  0  0  0
    0.8691    3.2493   -0.3369 H   0  0  0  0  0  0  0  0  0  0  0  0
   -0.1534    3.4289    0.9940 H   0  0  0  0  0  0  0  0  0  0  0  0
    0.0059    1.4214    0.0152 C   0  0  0  0  0  0  0  0  0  0  0  0
   -1.2025    0.6874   -0.0043 C   0  0  0  0  0  0  0  0  0  0  0  0
   -2.0674    1.1766   -0.0228 H   0  0  0  0  0  0  0  0  0  0  0  0
   -1.2043   -0.7120    0.0000 C   0  0  0  0  0  0  0  0  0  0  0  0
   -2.0785   -1.2047    0.0157 H   0  0  0  0  0  0  0  0  0  0  0  0
    0.0031   -1.4080   -0.0155 C   0  0  0  0  0  0  0  0  0  0  0  0
    0.0110   -2.3991   -0.0374 H   0  0  0  0  0  0  0  0  0  0  0  0
    1.2043   -0.6886    0.0000 C   0  0  0  0  0  0  0  0  0  0  0  0
    2.0889   -1.1847    0.0094 H   0  0  0  0  0  0  0  0  0  0  0  0
    1.1935    0.6998    0.0046 C   0  0  0  0  0  0  0  0  0  0  0  0
    2.0693    1.1968   -0.0005 H   0  0  0  0  0  0  0  0  0  0  0  0
  1  5  1  0
  5  8  1  0
  1  2  1  0
  1  3  1  0
  1  4  1  0
  5  6  1  0
  5  7  1  0
  8  9  1  0
  8 10  1  0
  8 11  1  0
 12 16  1  0
 16 17  2  0
 17 19  1  0
 19 21  2  0
 21 23  1  0
 23 25  2  0
 25 16  1  0
 12 13  1  0
 12 14  1  0
 12 15  1  0
 17 18  1  0
 19 20  1  0
 21 22  1  0
 23 24  1  0
 25 26  1  0
M  CHG  1   8   1
M  END
>  <PDB_ID>  (211) 
pdb1crc

>  <RESIDUE_NAME>  (211) 
LYS   PHE

>  <FRAG_NAME>  (211) 
ETAM   MBZ

>  <FRAG_ATOM_NUM>  (211) 
fragi: 11  fragj: 15

>  <atom.prop.CHAIN_ID>  (211) 
A A A A A A A A A A A Z Z Z Z Z Z Z Z Z Z Z Z Z Z Z

>  <atom.prop.IS_HEAVY_ATOM>  (211) 
1 0 0 0 1 0 0 1 0 0 0 1 0 0 0 1 1 0 1 0 1 0 1 0 1 0

>  <DIFUSE_FUNC_ATOM>  (211) 
n/a

>  <FINAL_SINGLE_POINT_ENERGY>  (211) 
0

>  <NONCOV_INTER_ENERGY_QM>  (211) 
0

>  <FF_Energy>  (211) 
8.62

>  <QM_Energy>  (211) 
-1.43

>  <source>  (211) 
ETAM_MBZ

>  <Index>  (211) 
2091

$$$$
ETAM-pdb2dc5-A-LYS-131:MBZ-pdb2dc5-A-PHE-127
     RDKit          3D

 26 25  0  0  0  0  0  0  0  0999 V2000
    1.2818   -1.5308    3.7742 C   0  0  0  0  0  0  0  0  0  0  0  0
    1.1201   -1.0531    2.9124 H   0  0  0  0  0  0  0  0  0  0  0  0
    2.1736   -1.2733    4.1412 H   0  0  0  0  0  0  0  0  0  0  0  0
    0.5109   -1.2372    4.4867 H   0  0  0  0  0  0  0  0  0  0  0  0
    1.2854   -3.0299    3.5030 C   0  0  0  0  0  0  0  0  0  0  0  0
    2.0353   -3.2401    2.8572 H   0  0  0  0  0  0  0  0  0  0  0  0
    1.4850   -3.5156    4.3688 H   0  0  0  0  0  0  0  0  0  0  0  0
    0.0055   -3.5463    2.9429 N   0  0  0  0  0  4  0  0  0  0  0  0
    0.1039   -4.5188    2.7353 H   0  0  0  0  0  0  0  0  0  0  0  0
   -0.7252   -3.4184    3.6132 H   0  0  0  0  0  0  0  0  0  0  0  0
   -0.2161   -3.0453    2.1066 H   0  0  0  0  0  0  0  0  0  0  0  0
    0.0084    2.9006    0.0494 C   0  0  0  0  0  0  0  0  0  0  0  0
   -0.6023    3.2335   -0.6527 H   0  0  0  0  0  0  0  0  0  0  0  0
    0.9356    3.2086   -0.1020 H   0  0  0  0  0  0  0  0  0  0  0  0
   -0.3262    3.3095    1.0028 H   0  0  0  0  0  0  0  0  0  0  0  0
    0.0015    1.4010    0.0005 C   0  0  0  0  0  0  0  0  0  0  0  0
   -1.1972    0.6971   -0.0009 C   0  0  0  0  0  0  0  0  0  0  0  0
   -2.0622    1.1871   -0.0038 H   0  0  0  0  0  0  0  0  0  0  0  0
   -1.2033   -0.6959    0.0000 C   0  0  0  0  0  0  0  0  0  0  0  0
   -2.0798   -1.1878    0.0005 H   0  0  0  0  0  0  0  0  0  0  0  0
   -0.0015   -1.3950    0.0019 C   0  0  0  0  0  0  0  0  0  0  0  0
   -0.0065   -2.3930    0.0044 H   0  0  0  0  0  0  0  0  0  0  0  0
    1.2033   -0.6994   -0.0000 C   0  0  0  0  0  0  0  0  0  0  0  0
    2.0817   -1.1973    0.0012 H   0  0  0  0  0  0  0  0  0  0  0  0
    1.1972    0.6922   -0.0015 C   0  0  0  0  0  0  0  0  0  0  0  0
    2.0659    1.1886   -0.0050 H   0  0  0  0  0  0  0  0  0  0  0  0
  1  5  1  0
  5  8  1  0
  1  2  1  0
  1  3  1  0
  1  4  1  0
  5  6  1  0
  5  7  1  0
  8  9  1  0
  8 10  1  0
  8 11  1  0
 12 16  1  0
 16 17  2  0
 17 19  1  0
 19 21  2  0
 21 23  1  0
 23 25  2  0
 25 16  1  0
 12 13  1  0
 12 14  1  0
 12 15  1  0
 17 18  1  0
 19 20  1  0
 21 22  1  0
 23 24  1  0
 25 26  1  0
M  CHG  1   8   1
M  END
>  <PDB_ID>  (212) 
pdb2dc5

>  <RESIDUE_NAME>  (212) 
LYS   PHE

>  <FRAG_NAME>  (212) 
ETAM   MBZ

>  <FRAG_ATOM_NUM>  (212) 
fragi: 11  fragj: 15

>  <atom.prop.CHAIN_ID>  (212) 
A A A A A A A A A A A Z Z Z Z Z Z Z Z Z Z Z Z Z Z Z

>  <atom.prop.IS_HEAVY_ATOM>  (212) 
1 0 0 0 1 0 0 1 0 0 0 1 0 0 0 1 1 0 1 0 1 0 1 0 1 0

>  <DIFUSE_FUNC_ATOM>  (212) 
n/a

>  <FINAL_SINGLE_POINT_ENERGY>  (212) 
0

>  <NONCOV_INTER_ENERGY_QM>  (212) 
0

>  <FF_Energy>  (212) 
-2.53

>  <QM_Energy>  (212) 
-8.73

>  <source>  (212) 
ETAM_MBZ

>  <Index>  (212) 
2105

$$$$
ETAM-pdb2d5k-A-LYS-44:MBZ-pdb2d5k-D-PHE-39
     RDKit          3D

 26 25  0  0  0  0  0  0  0  0999 V2000
   -2.1357   -1.7198    3.8812 C   0  0  0  0  0  0  0  0  0  0  0  0
   -2.4312   -2.5374    3.3954 H   0  0  0  0  0  0  0  0  0  0  0  0
   -2.5878   -1.6655    4.7673 H   0  0  0  0  0  0  0  0  0  0  0  0
   -1.0587   -1.7768    4.0394 H   0  0  0  0  0  0  0  0  0  0  0  0
   -2.5255   -0.5009    3.0623 C   0  0  0  0  0  0  0  0  0  0  0  0
   -2.3804    0.3232    3.6135 H   0  0  0  0  0  0  0  0  0  0  0  0
   -1.9466   -0.4564    2.2461 H   0  0  0  0  0  0  0  0  0  0  0  0
   -3.9571   -0.5599    2.6411 N   0  0  0  0  0  4  0  0  0  0  0  0
   -4.2930   -1.4948    2.7480 H   0  0  0  0  0  0  0  0  0  0  0  0
   -4.4937    0.0584    3.2124 H   0  0  0  0  0  0  0  0  0  0  0  0
   -4.0301   -0.2823    1.6846 H   0  0  0  0  0  0  0  0  0  0  0  0
   -0.0063    2.9162   -0.0563 C   0  0  0  0  0  0  0  0  0  0  0  0
    0.9201    3.2280    0.0681 H   0  0  0  0  0  0  0  0  0  0  0  0
   -0.6033    3.2437    0.6562 H   0  0  0  0  0  0  0  0  0  0  0  0
   -0.3687    3.3091   -1.0063 H   0  0  0  0  0  0  0  0  0  0  0  0
   -0.0006    1.4070   -0.0004 C   0  0  0  0  0  0  0  0  0  0  0  0
   -1.1989    0.6938    0.0005 C   0  0  0  0  0  0  0  0  0  0  0  0
   -2.0664    1.1812   -0.0001 H   0  0  0  0  0  0  0  0  0  0  0  0
   -1.2040   -0.7039   -0.0000 C   0  0  0  0  0  0  0  0  0  0  0  0
   -2.0780   -1.1958    0.0013 H   0  0  0  0  0  0  0  0  0  0  0  0
    0.0028   -1.3990   -0.0009 C   0  0  0  0  0  0  0  0  0  0  0  0
    0.0009   -2.3966   -0.0023 H   0  0  0  0  0  0  0  0  0  0  0  0
    1.2040   -0.6981    0.0000 C   0  0  0  0  0  0  0  0  0  0  0  0
    2.0864   -1.1912    0.0011 H   0  0  0  0  0  0  0  0  0  0  0  0
    1.1967    0.7001    0.0008 C   0  0  0  0  0  0  0  0  0  0  0  0
    2.0655    1.1949    0.0015 H   0  0  0  0  0  0  0  0  0  0  0  0
  1  5  1  0
  5  8  1  0
  1  2  1  0
  1  3  1  0
  1  4  1  0
  5  6  1  0
  5  7  1  0
  8  9  1  0
  8 10  1  0
  8 11  1  0
 12 16  1  0
 16 17  2  0
 17 19  1  0
 19 21  2  0
 21 23  1  0
 23 25  2  0
 25 16  1  0
 12 13  1  0
 12 14  1  0
 12 15  1  0
 17 18  1  0
 19 20  1  0
 21 22  1  0
 23 24  1  0
 25 26  1  0
M  CHG  1   8   1
M  END
>  <PDB_ID>  (213) 
pdb2d5k

>  <RESIDUE_NAME>  (213) 
LYS   PHE

>  <FRAG_NAME>  (213) 
ETAM   MBZ

>  <FRAG_ATOM_NUM>  (213) 
fragi: 11  fragj: 15

>  <atom.prop.CHAIN_ID>  (213) 
A A A A A A A A A A A Z Z Z Z Z Z Z Z Z Z Z Z Z Z Z

>  <atom.prop.IS_HEAVY_ATOM>  (213) 
1 0 0 0 1 0 0 1 0 0 0 1 0 0 0 1 1 0 1 0 1 0 1 0 1 0

>  <DIFUSE_FUNC_ATOM>  (213) 
n/a

>  <FINAL_SINGLE_POINT_ENERGY>  (213) 
0

>  <NONCOV_INTER_ENERGY_QM>  (213) 
0

>  <FF_Energy>  (213) 
0.31

>  <QM_Energy>  (213) 
-5.56

>  <source>  (213) 
ETAM_MBZ

>  <Index>  (213) 
2113

$$$$
ETAM-pdb2db3-A-LYS-512:MBZ-pdb2db3-A-PHE-508
     RDKit          3D

 26 25  0  0  0  0  0  0  0  0999 V2000
    0.6336   -2.5222    3.4966 C   0  0  0  0  0  0  0  0  0  0  0  0
    0.8757   -1.9889    2.7006 H   0  0  0  0  0  0  0  0  0  0  0  0
    1.3414   -3.1717    3.7267 H   0  0  0  0  0  0  0  0  0  0  0  0
    0.4636   -1.8552    4.3419 H   0  0  0  0  0  0  0  0  0  0  0  0
   -0.6455   -3.2939    3.1886 C   0  0  0  0  0  0  0  0  0  0  0  0
   -0.5215   -3.7985    2.3343 H   0  0  0  0  0  0  0  0  0  0  0  0
   -0.8234   -3.9372    3.9331 H   0  0  0  0  0  0  0  0  0  0  0  0
   -1.8107   -2.3714    3.0489 N   0  0  0  0  0  4  0  0  0  0  0  0
   -2.1758   -2.4402    2.1222 H   0  0  0  0  0  0  0  0  0  0  0  0
   -2.5150   -2.6288    3.7081 H   0  0  0  0  0  0  0  0  0  0  0  0
   -1.5118   -1.4351    3.2249 H   0  0  0  0  0  0  0  0  0  0  0  0
    0.0050    2.8991    0.0215 C   0  0  0  0  0  0  0  0  0  0  0  0
   -0.7654    3.2181   -0.5114 H   0  0  0  0  0  0  0  0  0  0  0  0
    0.8603    3.2112   -0.3651 H   0  0  0  0  0  0  0  0  0  0  0  0
   -0.0832    3.3251    1.0209 H   0  0  0  0  0  0  0  0  0  0  0  0
    0.0011    1.4040    0.0004 C   0  0  0  0  0  0  0  0  0  0  0  0
   -1.1972    0.6973    0.0008 C   0  0  0  0  0  0  0  0  0  0  0  0
   -2.0638    1.1882   -0.0001 H   0  0  0  0  0  0  0  0  0  0  0  0
   -1.2075   -0.6989    0.0000 C   0  0  0  0  0  0  0  0  0  0  0  0
   -2.0842   -1.1883    0.0017 H   0  0  0  0  0  0  0  0  0  0  0  0
   -0.0044   -1.4002   -0.0005 C   0  0  0  0  0  0  0  0  0  0  0  0
   -0.0057   -2.3953   -0.0019 H   0  0  0  0  0  0  0  0  0  0  0  0
    1.2075   -0.6979    0.0000 C   0  0  0  0  0  0  0  0  0  0  0  0
    2.0842   -1.1969    0.0022 H   0  0  0  0  0  0  0  0  0  0  0  0
    1.2005    0.6957   -0.0008 C   0  0  0  0  0  0  0  0  0  0  0  0
    2.0680    1.1928   -0.0026 H   0  0  0  0  0  0  0  0  0  0  0  0
  1  5  1  0
  5  8  1  0
  1  2  1  0
  1  3  1  0
  1  4  1  0
  5  6  1  0
  5  7  1  0
  8  9  1  0
  8 10  1  0
  8 11  1  0
 12 16  1  0
 16 17  2  0
 17 19  1  0
 19 21  2  0
 21 23  1  0
 23 25  2  0
 25 16  1  0
 12 13  1  0
 12 14  1  0
 12 15  1  0
 17 18  1  0
 19 20  1  0
 21 22  1  0
 23 24  1  0
 25 26  1  0
M  CHG  1   8   1
M  END
>  <PDB_ID>  (214) 
pdb2db3

>  <RESIDUE_NAME>  (214) 
LYS   PHE

>  <FRAG_NAME>  (214) 
ETAM   MBZ

>  <FRAG_ATOM_NUM>  (214) 
fragi: 11  fragj: 15

>  <atom.prop.CHAIN_ID>  (214) 
A A A A A A A A A A A Z Z Z Z Z Z Z Z Z Z Z Z Z Z Z

>  <atom.prop.IS_HEAVY_ATOM>  (214) 
1 0 0 0 1 0 0 1 0 0 0 1 0 0 0 1 1 0 1 0 1 0 1 0 1 0

>  <DIFUSE_FUNC_ATOM>  (214) 
n/a

>  <FINAL_SINGLE_POINT_ENERGY>  (214) 
0

>  <NONCOV_INTER_ENERGY_QM>  (214) 
0

>  <FF_Energy>  (214) 
-3.38

>  <QM_Energy>  (214) 
-9.3

>  <source>  (214) 
ETAM_MBZ

>  <Index>  (214) 
2117

$$$$
ETAM-pdb2dcn-C-LYS-274:MBZ-pdb2dcn-C-PHE-270
     RDKit          3D

 26 25  0  0  0  0  0  0  0  0999 V2000
   -2.4780    0.4699   -3.5346 C   0  0  0  0  0  0  0  0  0  0  0  0
   -2.6117    0.5331   -4.5150 H   0  0  0  0  0  0  0  0  0  0  0  0
   -1.7214    1.0396   -3.2433 H   0  0  0  0  0  0  0  0  0  0  0  0
   -3.3853    0.8106   -3.0356 H   0  0  0  0  0  0  0  0  0  0  0  0
   -2.1553   -0.9874   -3.1792 C   0  0  0  0  0  0  0  0  0  0  0  0
   -1.9395   -1.0369   -2.1754 H   0  0  0  0  0  0  0  0  0  0  0  0
   -3.0095   -1.5475   -3.2975 H   0  0  0  0  0  0  0  0  0  0  0  0
   -1.0329   -1.6862   -3.9314 N   0  0  0  0  0  4  0  0  0  0  0  0
   -0.1944   -1.1682   -3.7986 H   0  0  0  0  0  0  0  0  0  0  0  0
   -0.9346   -2.6059   -3.5672 H   0  0  0  0  0  0  0  0  0  0  0  0
   -1.2722   -1.7179   -4.8962 H   0  0  0  0  0  0  0  0  0  0  0  0
   -0.0189    2.9025    0.0334 C   0  0  0  0  0  0  0  0  0  0  0  0
    0.1281    3.1902    0.9727 H   0  0  0  0  0  0  0  0  0  0  0  0
   -0.9081    3.2068   -0.2903 H   0  0  0  0  0  0  0  0  0  0  0  0
    0.7406    3.3836   -0.5828 H   0  0  0  0  0  0  0  0  0  0  0  0
    0.0001    1.4056   -0.0018 C   0  0  0  0  0  0  0  0  0  0  0  0
   -1.1992    0.6997    0.0032 C   0  0  0  0  0  0  0  0  0  0  0  0
   -2.0644    1.1886    0.0075 H   0  0  0  0  0  0  0  0  0  0  0  0
   -1.2052   -0.6964   -0.0000 C   0  0  0  0  0  0  0  0  0  0  0  0
   -2.0826   -1.1869    0.0033 H   0  0  0  0  0  0  0  0  0  0  0  0
   -0.0028   -1.3989   -0.0060 C   0  0  0  0  0  0  0  0  0  0  0  0
   -0.0088   -2.3950   -0.0145 H   0  0  0  0  0  0  0  0  0  0  0  0
    1.2052   -0.7026    0.0000 C   0  0  0  0  0  0  0  0  0  0  0  0
    2.0831   -1.2007    0.0026 H   0  0  0  0  0  0  0  0  0  0  0  0
    1.2019    0.6926    0.0045 C   0  0  0  0  0  0  0  0  0  0  0  0
    2.0683    1.1885    0.0119 H   0  0  0  0  0  0  0  0  0  0  0  0
  1  5  1  0
  5  8  1  0
  1  2  1  0
  1  3  1  0
  1  4  1  0
  5  6  1  0
  5  7  1  0
  8  9  1  0
  8 10  1  0
  8 11  1  0
 12 16  1  0
 16 17  2  0
 17 19  1  0
 19 21  2  0
 21 23  1  0
 23 25  2  0
 25 16  1  0
 12 13  1  0
 12 14  1  0
 12 15  1  0
 17 18  1  0
 19 20  1  0
 21 22  1  0
 23 24  1  0
 25 26  1  0
M  CHG  1   8   1
M  END
>  <PDB_ID>  (215) 
pdb2dcn

>  <RESIDUE_NAME>  (215) 
LYS   PHE

>  <FRAG_NAME>  (215) 
ETAM   MBZ

>  <FRAG_ATOM_NUM>  (215) 
fragi: 11  fragj: 15

>  <atom.prop.CHAIN_ID>  (215) 
A A A A A A A A A A A Z Z Z Z Z Z Z Z Z Z Z Z Z Z Z

>  <atom.prop.IS_HEAVY_ATOM>  (215) 
1 0 0 0 1 0 0 1 0 0 0 1 0 0 0 1 1 0 1 0 1 0 1 0 1 0

>  <DIFUSE_FUNC_ATOM>  (215) 
n/a

>  <FINAL_SINGLE_POINT_ENERGY>  (215) 
0

>  <NONCOV_INTER_ENERGY_QM>  (215) 
0

>  <FF_Energy>  (215) 
-1.5

>  <QM_Energy>  (215) 
-7.93

>  <source>  (215) 
ETAM_MBZ

>  <Index>  (215) 
2118

$$$$
ETAM-pdb2dcn-G-LYS-274:MBZ-pdb2dcn-G-PHE-270
     RDKit          3D

 26 25  0  0  0  0  0  0  0  0999 V2000
   -2.8406    0.3476   -2.7131 C   0  0  0  0  0  0  0  0  0  0  0  0
   -2.1758    0.2826   -1.9721 H   0  0  0  0  0  0  0  0  0  0  0  0
   -3.6699   -0.1494   -2.4690 H   0  0  0  0  0  0  0  0  0  0  0  0
   -3.0937    1.3972   -2.8630 H   0  0  0  0  0  0  0  0  0  0  0  0
   -2.2478   -0.2734   -3.9552 C   0  0  0  0  0  0  0  0  0  0  0  0
   -2.9659   -0.7791   -4.4466 H   0  0  0  0  0  0  0  0  0  0  0  0
   -1.9042    0.4558   -4.5567 H   0  0  0  0  0  0  0  0  0  0  0  0
   -1.1320   -1.2039   -3.6378 N   0  0  0  0  0  4  0  0  0  0  0  0
   -0.3459   -0.6800   -3.3097 H   0  0  0  0  0  0  0  0  0  0  0  0
   -1.4259   -1.8453   -2.9295 H   0  0  0  0  0  0  0  0  0  0  0  0
   -0.8772   -1.7097   -4.4614 H   0  0  0  0  0  0  0  0  0  0  0  0
   -0.0170    2.9149   -0.0005 C   0  0  0  0  0  0  0  0  0  0  0  0
    0.1035    3.2204    0.9347 H   0  0  0  0  0  0  0  0  0  0  0  0
   -0.8909    3.2140   -0.3612 H   0  0  0  0  0  0  0  0  0  0  0  0
    0.7636    3.3810   -0.6017 H   0  0  0  0  0  0  0  0  0  0  0  0
    0.0016    1.4127   -0.0077 C   0  0  0  0  0  0  0  0  0  0  0  0
   -1.1981    0.6994   -0.0013 C   0  0  0  0  0  0  0  0  0  0  0  0
   -2.0654    1.1816    0.0008 H   0  0  0  0  0  0  0  0  0  0  0  0
   -1.2027   -0.7097   -0.0000 C   0  0  0  0  0  0  0  0  0  0  0  0
   -2.0806   -1.1944    0.0030 H   0  0  0  0  0  0  0  0  0  0  0  0
   -0.0013   -1.4062   -0.0012 C   0  0  0  0  0  0  0  0  0  0  0  0
    0.0011   -2.4013   -0.0037 H   0  0  0  0  0  0  0  0  0  0  0  0
    1.2027   -0.6995    0.0000 C   0  0  0  0  0  0  0  0  0  0  0  0
    2.0852   -1.1920   -0.0044 H   0  0  0  0  0  0  0  0  0  0  0  0
    1.1979    0.7034    0.0102 C   0  0  0  0  0  0  0  0  0  0  0  0
    2.0670    1.1937    0.0301 H   0  0  0  0  0  0  0  0  0  0  0  0
  1  5  1  0
  5  8  1  0
  1  2  1  0
  1  3  1  0
  1  4  1  0
  5  6  1  0
  5  7  1  0
  8  9  1  0
  8 10  1  0
  8 11  1  0
 12 16  1  0
 16 17  2  0
 17 19  1  0
 19 21  2  0
 21 23  1  0
 23 25  2  0
 25 16  1  0
 12 13  1  0
 12 14  1  0
 12 15  1  0
 17 18  1  0
 19 20  1  0
 21 22  1  0
 23 24  1  0
 25 26  1  0
M  CHG  1   8   1
M  END
>  <PDB_ID>  (216) 
pdb2dcn

>  <RESIDUE_NAME>  (216) 
LYS   PHE

>  <FRAG_NAME>  (216) 
ETAM   MBZ

>  <FRAG_ATOM_NUM>  (216) 
fragi: 11  fragj: 15

>  <atom.prop.CHAIN_ID>  (216) 
A A A A A A A A A A A Z Z Z Z Z Z Z Z Z Z Z Z Z Z Z

>  <atom.prop.IS_HEAVY_ATOM>  (216) 
1 0 0 0 1 0 0 1 0 0 0 1 0 0 0 1 1 0 1 0 1 0 1 0 1 0

>  <DIFUSE_FUNC_ATOM>  (216) 
n/a

>  <FINAL_SINGLE_POINT_ENERGY>  (216) 
0

>  <NONCOV_INTER_ENERGY_QM>  (216) 
0

>  <FF_Energy>  (216) 
0.49

>  <QM_Energy>  (216) 
-7.84

>  <source>  (216) 
ETAM_MBZ

>  <Index>  (216) 
2124

$$$$
ETAM-pdb2dcn-I-LYS-274:MBZ-pdb2dcn-I-PHE-270
     RDKit          3D

 26 25  0  0  0  0  0  0  0  0999 V2000
   -2.3099    0.2558   -3.4076 C   0  0  0  0  0  0  0  0  0  0  0  0
   -1.9354   -0.5419   -2.9517 H   0  0  0  0  0  0  0  0  0  0  0  0
   -2.4439    0.0792   -4.3738 H   0  0  0  0  0  0  0  0  0  0  0  0
   -3.2691    0.5062   -2.9545 H   0  0  0  0  0  0  0  0  0  0  0  0
   -1.2693    1.4144   -3.2738 C   0  0  0  0  0  0  0  0  0  0  0  0
   -1.7707    2.3029   -3.3891 H   0  0  0  0  0  0  0  0  0  0  0  0
   -0.9266    1.4201   -2.3056 H   0  0  0  0  0  0  0  0  0  0  0  0
   -0.0539    1.4334   -4.2059 N   0  0  0  0  0  4  0  0  0  0  0  0
    0.6117    2.0693   -3.8341 H   0  0  0  0  0  0  0  0  0  0  0  0
    0.3213    0.5157   -4.2443 H   0  0  0  0  0  0  0  0  0  0  0  0
   -0.3570    1.7269   -5.1046 H   0  0  0  0  0  0  0  0  0  0  0  0
   -0.0122    2.8963    0.0031 C   0  0  0  0  0  0  0  0  0  0  0  0
    0.2417    3.2017    0.9114 H   0  0  0  0  0  0  0  0  0  0  0  0
   -0.9288    3.1974   -0.2267 H   0  0  0  0  0  0  0  0  0  0  0  0
    0.6748    3.3587   -0.7055 H   0  0  0  0  0  0  0  0  0  0  0  0
    0.0020    1.3977   -0.0059 C   0  0  0  0  0  0  0  0  0  0  0  0
   -1.1961    0.6893    0.0031 C   0  0  0  0  0  0  0  0  0  0  0  0
   -2.0611    1.1835    0.0102 H   0  0  0  0  0  0  0  0  0  0  0  0
   -1.1985   -0.6924    0.0000 C   0  0  0  0  0  0  0  0  0  0  0  0
   -2.0798   -1.1879   -0.0063 H   0  0  0  0  0  0  0  0  0  0  0  0
   -0.0064   -1.3882    0.0077 C   0  0  0  0  0  0  0  0  0  0  0  0
   -0.0092   -2.3881    0.0186 H   0  0  0  0  0  0  0  0  0  0  0  0
    1.1985   -0.6959    0.0000 C   0  0  0  0  0  0  0  0  0  0  0  0
    2.0770   -1.2007   -0.0007 H   0  0  0  0  0  0  0  0  0  0  0  0
    1.2005    0.6896   -0.0049 C   0  0  0  0  0  0  0  0  0  0  0  0
    2.0668    1.1864   -0.0084 H   0  0  0  0  0  0  0  0  0  0  0  0
  1  5  1  0
  5  8  1  0
  1  2  1  0
  1  3  1  0
  1  4  1  0
  5  6  1  0
  5  7  1  0
  8  9  1  0
  8 10  1  0
  8 11  1  0
 12 16  1  0
 16 17  2  0
 17 19  1  0
 19 21  2  0
 21 23  1  0
 23 25  2  0
 25 16  1  0
 12 13  1  0
 12 14  1  0
 12 15  1  0
 17 18  1  0
 19 20  1  0
 21 22  1  0
 23 24  1  0
 25 26  1  0
M  CHG  1   8   1
M  END
>  <PDB_ID>  (217) 
pdb2dcn

>  <RESIDUE_NAME>  (217) 
LYS   PHE

>  <FRAG_NAME>  (217) 
ETAM   MBZ

>  <FRAG_ATOM_NUM>  (217) 
fragi: 11  fragj: 15

>  <atom.prop.CHAIN_ID>  (217) 
A A A A A A A A A A A Z Z Z Z Z Z Z Z Z Z Z Z Z Z Z

>  <atom.prop.IS_HEAVY_ATOM>  (217) 
1 0 0 0 1 0 0 1 0 0 0 1 0 0 0 1 1 0 1 0 1 0 1 0 1 0

>  <DIFUSE_FUNC_ATOM>  (217) 
n/a

>  <FINAL_SINGLE_POINT_ENERGY>  (217) 
0

>  <NONCOV_INTER_ENERGY_QM>  (217) 
0

>  <FF_Energy>  (217) 
-3.18

>  <QM_Energy>  (217) 
-8.28

>  <source>  (217) 
ETAM_MBZ

>  <Index>  (217) 
2128

$$$$
ETAM-pdb2dcn-J-LYS-274:MBZ-pdb2dcn-J-PHE-270
     RDKit          3D

 26 25  0  0  0  0  0  0  0  0999 V2000
   -4.4770    0.4791   -2.9844 C   0  0  0  0  0  0  0  0  0  0  0  0
   -5.0315   -0.1223   -2.4104 H   0  0  0  0  0  0  0  0  0  0  0  0
   -5.0677    0.9869   -3.6092 H   0  0  0  0  0  0  0  0  0  0  0  0
   -3.9198    1.1749   -2.3570 H   0  0  0  0  0  0  0  0  0  0  0  0
   -3.5541   -0.4156   -3.8412 C   0  0  0  0  0  0  0  0  0  0  0  0
   -4.0870   -1.2362   -4.1222 H   0  0  0  0  0  0  0  0  0  0  0  0
   -3.3308    0.0920   -4.6951 H   0  0  0  0  0  0  0  0  0  0  0  0
   -2.2915   -0.8534   -3.1887 N   0  0  0  0  0  4  0  0  0  0  0  0
   -2.2898   -1.8495   -3.1032 H   0  0  0  0  0  0  0  0  0  0  0  0
   -1.5125   -0.5645   -3.7447 H   0  0  0  0  0  0  0  0  0  0  0  0
   -2.2257   -0.4396   -2.2808 H   0  0  0  0  0  0  0  0  0  0  0  0
   -0.0013    2.8930   -0.0078 C   0  0  0  0  0  0  0  0  0  0  0  0
    0.3128    3.2102    0.8741 H   0  0  0  0  0  0  0  0  0  0  0  0
   -0.9222    3.1996   -0.1948 H   0  0  0  0  0  0  0  0  0  0  0  0
    0.6512    3.3256   -0.7663 H   0  0  0  0  0  0  0  0  0  0  0  0
    0.0013    1.3967    0.0041 C   0  0  0  0  0  0  0  0  0  0  0  0
   -1.1919    0.6958    0.0025 C   0  0  0  0  0  0  0  0  0  0  0  0
   -2.0590    1.1920    0.0018 H   0  0  0  0  0  0  0  0  0  0  0  0
   -1.2033   -0.6850    0.0000 C   0  0  0  0  0  0  0  0  0  0  0  0
   -2.0833   -1.1793    0.0058 H   0  0  0  0  0  0  0  0  0  0  0  0
   -0.0066   -1.3917   -0.0086 C   0  0  0  0  0  0  0  0  0  0  0  0
   -0.0158   -2.3884   -0.0217 H   0  0  0  0  0  0  0  0  0  0  0  0
    1.2033   -0.7003    0.0000 C   0  0  0  0  0  0  0  0  0  0  0  0
    2.0780   -1.2032    0.0065 H   0  0  0  0  0  0  0  0  0  0  0  0
    1.1972    0.6845    0.0021 C   0  0  0  0  0  0  0  0  0  0  0  0
    2.0658    1.1844    0.0011 H   0  0  0  0  0  0  0  0  0  0  0  0
  1  5  1  0
  5  8  1  0
  1  2  1  0
  1  3  1  0
  1  4  1  0
  5  6  1  0
  5  7  1  0
  8  9  1  0
  8 10  1  0
  8 11  1  0
 12 16  1  0
 16 17  2  0
 17 19  1  0
 19 21  2  0
 21 23  1  0
 23 25  2  0
 25 16  1  0
 12 13  1  0
 12 14  1  0
 12 15  1  0
 17 18  1  0
 19 20  1  0
 21 22  1  0
 23 24  1  0
 25 26  1  0
M  CHG  1   8   1
M  END
>  <PDB_ID>  (218) 
pdb2dcn

>  <RESIDUE_NAME>  (218) 
LYS   PHE

>  <FRAG_NAME>  (218) 
ETAM   MBZ

>  <FRAG_ATOM_NUM>  (218) 
fragi: 11  fragj: 15

>  <atom.prop.CHAIN_ID>  (218) 
A A A A A A A A A A A Z Z Z Z Z Z Z Z Z Z Z Z Z Z Z

>  <atom.prop.IS_HEAVY_ATOM>  (218) 
1 0 0 0 1 0 0 1 0 0 0 1 0 0 0 1 1 0 1 0 1 0 1 0 1 0

>  <DIFUSE_FUNC_ATOM>  (218) 
n/a

>  <FINAL_SINGLE_POINT_ENERGY>  (218) 
0

>  <NONCOV_INTER_ENERGY_QM>  (218) 
0

>  <FF_Energy>  (218) 
-4.32

>  <QM_Energy>  (218) 
-10.53

>  <source>  (218) 
ETAM_MBZ

>  <Index>  (218) 
2129

$$$$
ETAM-pdb2ddr-A-LYS-139:MBZ-pdb2ddr-A-PHE-144
     RDKit          3D

 26 25  0  0  0  0  0  0  0  0999 V2000
    1.1842   -0.3161    3.3626 C   0  0  0  0  0  0  0  0  0  0  0  0
    1.2092    0.6691    3.4963 H   0  0  0  0  0  0  0  0  0  0  0  0
    1.0601   -0.5325    2.3997 H   0  0  0  0  0  0  0  0  0  0  0  0
    2.1270   -0.7437    3.7038 H   0  0  0  0  0  0  0  0  0  0  0  0
    0.0074   -0.8800    4.1412 C   0  0  0  0  0  0  0  0  0  0  0  0
    0.1150   -0.6422    5.1116 H   0  0  0  0  0  0  0  0  0  0  0  0
   -0.8399   -0.4617    3.7992 H   0  0  0  0  0  0  0  0  0  0  0  0
   -0.0912   -2.3594    4.0098 N   0  0  0  0  0  4  0  0  0  0  0  0
   -0.0928   -2.6071    3.0410 H   0  0  0  0  0  0  0  0  0  0  0  0
    0.6917   -2.7849    4.4631 H   0  0  0  0  0  0  0  0  0  0  0  0
   -0.9379   -2.6740    4.4376 H   0  0  0  0  0  0  0  0  0  0  0  0
   -0.0019    2.9053   -0.0236 C   0  0  0  0  0  0  0  0  0  0  0  0
   -0.9431    3.2124   -0.0218 H   0  0  0  0  0  0  0  0  0  0  0  0
    0.4691    3.2015   -0.8424 H   0  0  0  0  0  0  0  0  0  0  0  0
    0.4971    3.3664    0.8288 H   0  0  0  0  0  0  0  0  0  0  0  0
    0.0006    1.4041    0.0007 C   0  0  0  0  0  0  0  0  0  0  0  0
   -1.1982    0.6954   -0.0002 C   0  0  0  0  0  0  0  0  0  0  0  0
   -2.0638    1.1851   -0.0023 H   0  0  0  0  0  0  0  0  0  0  0  0
   -1.2029   -0.6985    0.0000 C   0  0  0  0  0  0  0  0  0  0  0  0
   -2.0796   -1.1908    0.0025 H   0  0  0  0  0  0  0  0  0  0  0  0
   -0.0016   -1.3955   -0.0011 C   0  0  0  0  0  0  0  0  0  0  0  0
   -0.0057   -2.3939   -0.0032 H   0  0  0  0  0  0  0  0  0  0  0  0
    1.2029   -0.6993   -0.0000 C   0  0  0  0  0  0  0  0  0  0  0  0
    2.0825   -1.1969    0.0020 H   0  0  0  0  0  0  0  0  0  0  0  0
    1.1992    0.6938    0.0006 C   0  0  0  0  0  0  0  0  0  0  0  0
    2.0669    1.1893    0.0004 H   0  0  0  0  0  0  0  0  0  0  0  0
  1  5  1  0
  5  8  1  0
  1  2  1  0
  1  3  1  0
  1  4  1  0
  5  6  1  0
  5  7  1  0
  8  9  1  0
  8 10  1  0
  8 11  1  0
 12 16  1  0
 16 17  2  0
 17 19  1  0
 19 21  2  0
 21 23  1  0
 23 25  2  0
 25 16  1  0
 12 13  1  0
 12 14  1  0
 12 15  1  0
 17 18  1  0
 19 20  1  0
 21 22  1  0
 23 24  1  0
 25 26  1  0
M  CHG  1   8   1
M  END
>  <PDB_ID>  (219) 
pdb2ddr

>  <RESIDUE_NAME>  (219) 
LYS   PHE

>  <FRAG_NAME>  (219) 
ETAM   MBZ

>  <FRAG_ATOM_NUM>  (219) 
fragi: 11  fragj: 15

>  <atom.prop.CHAIN_ID>  (219) 
A A A A A A A A A A A Z Z Z Z Z Z Z Z Z Z Z Z Z Z Z

>  <atom.prop.IS_HEAVY_ATOM>  (219) 
1 0 0 0 1 0 0 1 0 0 0 1 0 0 0 1 1 0 1 0 1 0 1 0 1 0

>  <DIFUSE_FUNC_ATOM>  (219) 
n/a

>  <FINAL_SINGLE_POINT_ENERGY>  (219) 
0

>  <NONCOV_INTER_ENERGY_QM>  (219) 
0

>  <FF_Energy>  (219) 
-2.55

>  <QM_Energy>  (219) 
-8.11

>  <source>  (219) 
ETAM_MBZ

>  <Index>  (219) 
2135

$$$$
ETAM-pdb2ddr-B-LYS-131:MBZ-pdb2ddr-B-PHE-55
     RDKit          3D

 26 25  0  0  0  0  0  0  0  0999 V2000
    3.4342   -4.7014   -0.8750 C   0  0  0  0  0  0  0  0  0  0  0  0
    4.1074   -4.0779   -0.4886 H   0  0  0  0  0  0  0  0  0  0  0  0
    2.8440   -4.2185   -1.5142 H   0  0  0  0  0  0  0  0  0  0  0  0
    3.9566   -5.4948   -1.4095 H   0  0  0  0  0  0  0  0  0  0  0  0
    2.5807   -5.2550    0.2519 C   0  0  0  0  0  0  0  0  0  0  0  0
    1.9045   -5.8928   -0.1345 H   0  0  0  0  0  0  0  0  0  0  0  0
    3.1712   -5.7639    0.8880 H   0  0  0  0  0  0  0  0  0  0  0  0
    1.8688   -4.1853    0.9995 N   0  0  0  0  0  4  0  0  0  0  0  0
    1.0918   -4.5819    1.4874 H   0  0  0  0  0  0  0  0  0  0  0  0
    2.4955   -3.7638    1.6553 H   0  0  0  0  0  0  0  0  0  0  0  0
    1.5419   -3.4925    0.3572 H   0  0  0  0  0  0  0  0  0  0  0  0
   -0.0153    2.9078   -0.0577 C   0  0  0  0  0  0  0  0  0  0  0  0
   -0.9613    3.2025   -0.0875 H   0  0  0  0  0  0  0  0  0  0  0  0
    0.4683    3.1874   -0.8761 H   0  0  0  0  0  0  0  0  0  0  0  0
    0.4593    3.3956    0.7937 H   0  0  0  0  0  0  0  0  0  0  0  0
    0.0006    1.4047   -0.0009 C   0  0  0  0  0  0  0  0  0  0  0  0
   -1.1937    0.6949    0.0024 C   0  0  0  0  0  0  0  0  0  0  0  0
   -2.0619    1.1851    0.0052 H   0  0  0  0  0  0  0  0  0  0  0  0
   -1.2005   -0.6967   -0.0000 C   0  0  0  0  0  0  0  0  0  0  0  0
   -2.0817   -1.1860    0.0016 H   0  0  0  0  0  0  0  0  0  0  0  0
   -0.0062   -1.3966   -0.0025 C   0  0  0  0  0  0  0  0  0  0  0  0
   -0.0112   -2.3960   -0.0066 H   0  0  0  0  0  0  0  0  0  0  0  0
    1.2005   -0.7042    0.0000 C   0  0  0  0  0  0  0  0  0  0  0  0
    2.0788   -1.1995    0.0029 H   0  0  0  0  0  0  0  0  0  0  0  0
    1.1993    0.6980    0.0009 C   0  0  0  0  0  0  0  0  0  0  0  0
    2.0669    1.1886    0.0021 H   0  0  0  0  0  0  0  0  0  0  0  0
  1  5  1  0
  5  8  1  0
  1  2  1  0
  1  3  1  0
  1  4  1  0
  5  6  1  0
  5  7  1  0
  8  9  1  0
  8 10  1  0
  8 11  1  0
 12 16  1  0
 16 17  2  0
 17 19  1  0
 19 21  2  0
 21 23  1  0
 23 25  2  0
 25 16  1  0
 12 13  1  0
 12 14  1  0
 12 15  1  0
 17 18  1  0
 19 20  1  0
 21 22  1  0
 23 24  1  0
 25 26  1  0
M  CHG  1   8   1
M  END
>  <PDB_ID>  (220) 
pdb2ddr

>  <RESIDUE_NAME>  (220) 
LYS   PHE

>  <FRAG_NAME>  (220) 
ETAM   MBZ

>  <FRAG_ATOM_NUM>  (220) 
fragi: 11  fragj: 15

>  <atom.prop.CHAIN_ID>  (220) 
A A A A A A A A A A A Z Z Z Z Z Z Z Z Z Z Z Z Z Z Z

>  <atom.prop.IS_HEAVY_ATOM>  (220) 
1 0 0 0 1 0 0 1 0 0 0 1 0 0 0 1 1 0 1 0 1 0 1 0 1 0

>  <DIFUSE_FUNC_ATOM>  (220) 
n/a

>  <FINAL_SINGLE_POINT_ENERGY>  (220) 
0

>  <NONCOV_INTER_ENERGY_QM>  (220) 
0

>  <FF_Energy>  (220) 
1.01

>  <QM_Energy>  (220) 
-4.57

>  <source>  (220) 
ETAM_MBZ

>  <Index>  (220) 
2136

$$$$
ETAM-pdb2ddr-B-LYS-139:MBZ-pdb2ddr-B-PHE-144
     RDKit          3D

 26 25  0  0  0  0  0  0  0  0999 V2000
    0.6169   -0.5733    3.5259 C   0  0  0  0  0  0  0  0  0  0  0  0
    0.5218    0.4139    3.5544 H   0  0  0  0  0  0  0  0  0  0  0  0
    0.5904   -0.9021    2.5902 H   0  0  0  0  0  0  0  0  0  0  0  0
    1.5687   -0.8538    3.9769 H   0  0  0  0  0  0  0  0  0  0  0  0
   -0.5454   -1.1929    4.2889 C   0  0  0  0  0  0  0  0  0  0  0  0
   -0.4158   -2.1880    4.3260 H   0  0  0  0  0  0  0  0  0  0  0  0
   -0.5468   -0.8337    5.2268 H   0  0  0  0  0  0  0  0  0  0  0  0
   -1.8585   -0.8955    3.6513 N   0  0  0  0  0  4  0  0  0  0  0  0
   -2.5753   -0.9108    4.3475 H   0  0  0  0  0  0  0  0  0  0  0  0
   -1.8227    0.0080    3.2261 H   0  0  0  0  0  0  0  0  0  0  0  0
   -2.0523   -1.5859    2.9553 H   0  0  0  0  0  0  0  0  0  0  0  0
   -0.0023    2.9020   -0.0284 C   0  0  0  0  0  0  0  0  0  0  0  0
   -0.9375    3.2073   -0.1431 H   0  0  0  0  0  0  0  0  0  0  0  0
    0.5636    3.1970   -0.7857 H   0  0  0  0  0  0  0  0  0  0  0  0
    0.3880    3.3679    0.8764 H   0  0  0  0  0  0  0  0  0  0  0  0
    0.0001    1.4021   -0.0006 C   0  0  0  0  0  0  0  0  0  0  0  0
   -1.1968    0.6958    0.0011 C   0  0  0  0  0  0  0  0  0  0  0  0
   -2.0636    1.1847    0.0019 H   0  0  0  0  0  0  0  0  0  0  0  0
   -1.2028   -0.6981   -0.0000 C   0  0  0  0  0  0  0  0  0  0  0  0
   -2.0793   -1.1895    0.0014 H   0  0  0  0  0  0  0  0  0  0  0  0
   -0.0005   -1.3944   -0.0012 C   0  0  0  0  0  0  0  0  0  0  0  0
   -0.0050   -2.3933   -0.0032 H   0  0  0  0  0  0  0  0  0  0  0  0
    1.2028   -0.6992   -0.0000 C   0  0  0  0  0  0  0  0  0  0  0  0
    2.0831   -1.1959    0.0019 H   0  0  0  0  0  0  0  0  0  0  0  0
    1.1971    0.6938    0.0007 C   0  0  0  0  0  0  0  0  0  0  0  0
    2.0656    1.1898    0.0013 H   0  0  0  0  0  0  0  0  0  0  0  0
  1  5  1  0
  5  8  1  0
  1  2  1  0
  1  3  1  0
  1  4  1  0
  5  6  1  0
  5  7  1  0
  8  9  1  0
  8 10  1  0
  8 11  1  0
 12 16  1  0
 16 17  2  0
 17 19  1  0
 19 21  2  0
 21 23  1  0
 23 25  2  0
 25 16  1  0
 12 13  1  0
 12 14  1  0
 12 15  1  0
 17 18  1  0
 19 20  1  0
 21 22  1  0
 23 24  1  0
 25 26  1  0
M  CHG  1   8   1
M  END
>  <PDB_ID>  (221) 
pdb2ddr

>  <RESIDUE_NAME>  (221) 
LYS   PHE

>  <FRAG_NAME>  (221) 
ETAM   MBZ

>  <FRAG_ATOM_NUM>  (221) 
fragi: 11  fragj: 15

>  <atom.prop.CHAIN_ID>  (221) 
A A A A A A A A A A A Z Z Z Z Z Z Z Z Z Z Z Z Z Z Z

>  <atom.prop.IS_HEAVY_ATOM>  (221) 
1 0 0 0 1 0 0 1 0 0 0 1 0 0 0 1 1 0 1 0 1 0 1 0 1 0

>  <DIFUSE_FUNC_ATOM>  (221) 
n/a

>  <FINAL_SINGLE_POINT_ENERGY>  (221) 
0

>  <NONCOV_INTER_ENERGY_QM>  (221) 
0

>  <FF_Energy>  (221) 
-4.83

>  <QM_Energy>  (221) 
-10.36

>  <source>  (221) 
ETAM_MBZ

>  <Index>  (221) 
2138

$$$$
ETAM-pdb2ddr-C-LYS-139:MBZ-pdb2ddr-C-PHE-144
     RDKit          3D

 26 25  0  0  0  0  0  0  0  0999 V2000
    1.1271   -0.3823    3.3114 C   0  0  0  0  0  0  0  0  0  0  0  0
    1.1187    0.6038    3.4415 H   0  0  0  0  0  0  0  0  0  0  0  0
    1.0743   -0.6029    2.3430 H   0  0  0  0  0  0  0  0  0  0  0  0
    2.0558   -0.7843    3.7162 H   0  0  0  0  0  0  0  0  0  0  0  0
   -0.0842   -0.9738    4.0098 C   0  0  0  0  0  0  0  0  0  0  0  0
   -0.0477   -0.7347    4.9843 H   0  0  0  0  0  0  0  0  0  0  0  0
   -0.9165   -0.5782    3.6106 H   0  0  0  0  0  0  0  0  0  0  0  0
   -0.1330   -2.4539    3.8721 N   0  0  0  0  0  4  0  0  0  0  0  0
   -0.3486   -2.8624    4.7586 H   0  0  0  0  0  0  0  0  0  0  0  0
   -0.8385   -2.7031    3.2088 H   0  0  0  0  0  0  0  0  0  0  0  0
    0.7547   -2.7874    3.5568 H   0  0  0  0  0  0  0  0  0  0  0  0
   -0.0004    2.9027   -0.0244 C   0  0  0  0  0  0  0  0  0  0  0  0
   -0.9410    3.2096   -0.0617 H   0  0  0  0  0  0  0  0  0  0  0  0
    0.5031    3.1982   -0.8239 H   0  0  0  0  0  0  0  0  0  0  0  0
    0.4641    3.3623    0.8480 H   0  0  0  0  0  0  0  0  0  0  0  0
    0.0005    1.4028    0.0001 C   0  0  0  0  0  0  0  0  0  0  0  0
   -1.1975    0.6948    0.0002 C   0  0  0  0  0  0  0  0  0  0  0  0
   -2.0632    1.1841   -0.0007 H   0  0  0  0  0  0  0  0  0  0  0  0
   -1.2026   -0.6988    0.0000 C   0  0  0  0  0  0  0  0  0  0  0  0
   -2.0790   -1.1907    0.0013 H   0  0  0  0  0  0  0  0  0  0  0  0
   -0.0012   -1.3945   -0.0009 C   0  0  0  0  0  0  0  0  0  0  0  0
   -0.0042   -2.3934   -0.0027 H   0  0  0  0  0  0  0  0  0  0  0  0
    1.2026   -0.6986    0.0000 C   0  0  0  0  0  0  0  0  0  0  0  0
    2.0821   -1.1966    0.0015 H   0  0  0  0  0  0  0  0  0  0  0  0
    1.1982    0.6943    0.0006 C   0  0  0  0  0  0  0  0  0  0  0  0
    2.0658    1.1902    0.0012 H   0  0  0  0  0  0  0  0  0  0  0  0
  1  5  1  0
  5  8  1  0
  1  2  1  0
  1  3  1  0
  1  4  1  0
  5  6  1  0
  5  7  1  0
  8  9  1  0
  8 10  1  0
  8 11  1  0
 12 16  1  0
 16 17  2  0
 17 19  1  0
 19 21  2  0
 21 23  1  0
 23 25  2  0
 25 16  1  0
 12 13  1  0
 12 14  1  0
 12 15  1  0
 17 18  1  0
 19 20  1  0
 21 22  1  0
 23 24  1  0
 25 26  1  0
M  CHG  1   8   1
M  END
>  <PDB_ID>  (222) 
pdb2ddr

>  <RESIDUE_NAME>  (222) 
LYS   PHE

>  <FRAG_NAME>  (222) 
ETAM   MBZ

>  <FRAG_ATOM_NUM>  (222) 
fragi: 11  fragj: 15

>  <atom.prop.CHAIN_ID>  (222) 
A A A A A A A A A A A Z Z Z Z Z Z Z Z Z Z Z Z Z Z Z

>  <atom.prop.IS_HEAVY_ATOM>  (222) 
1 0 0 0 1 0 0 1 0 0 0 1 0 0 0 1 1 0 1 0 1 0 1 0 1 0

>  <DIFUSE_FUNC_ATOM>  (222) 
n/a

>  <FINAL_SINGLE_POINT_ENERGY>  (222) 
0

>  <NONCOV_INTER_ENERGY_QM>  (222) 
0

>  <FF_Energy>  (222) 
-1.72

>  <QM_Energy>  (222) 
-7.71

>  <source>  (222) 
ETAM_MBZ

>  <Index>  (222) 
2139

$$$$
ETAM-pdb2ddu-A-LYS-1585:MBZ-pdb2ddu-A-PHE-1314
     RDKit          3D

 26 25  0  0  0  0  0  0  0  0999 V2000
    3.7677   -3.3024   -3.6840 C   0  0  0  0  0  0  0  0  0  0  0  0
    4.5134   -3.2933   -4.3403 H   0  0  0  0  0  0  0  0  0  0  0  0
    3.1119   -2.5860   -3.8911 H   0  0  0  0  0  0  0  0  0  0  0  0
    3.2659   -4.2690   -3.7294 H   0  0  0  0  0  0  0  0  0  0  0  0
    4.3453   -3.0405   -2.2931 C   0  0  0  0  0  0  0  0  0  0  0  0
    4.5867   -3.9079   -1.8761 H   0  0  0  0  0  0  0  0  0  0  0  0
    5.1457   -2.4601   -2.3809 H   0  0  0  0  0  0  0  0  0  0  0  0
    3.3231   -2.3519   -1.4508 N   0  0  0  0  0  4  0  0  0  0  0  0
    2.5834   -2.0206   -2.0351 H   0  0  0  0  0  0  0  0  0  0  0  0
    2.9594   -2.9977   -0.7814 H   0  0  0  0  0  0  0  0  0  0  0  0
    3.7496   -1.5818   -0.9786 H   0  0  0  0  0  0  0  0  0  0  0  0
    0.0046    2.9171   -0.0014 C   0  0  0  0  0  0  0  0  0  0  0  0
   -0.7990    3.2226   -0.4917 H   0  0  0  0  0  0  0  0  0  0  0  0
    0.8335    3.2158   -0.4507 H   0  0  0  0  0  0  0  0  0  0  0  0
   -0.0183    3.3707    0.9894 H   0  0  0  0  0  0  0  0  0  0  0  0
   -0.0011    1.4060    0.0042 C   0  0  0  0  0  0  0  0  0  0  0  0
   -1.1970    0.6994   -0.0007 C   0  0  0  0  0  0  0  0  0  0  0  0
   -2.0642    1.1841   -0.0059 H   0  0  0  0  0  0  0  0  0  0  0  0
   -1.1991   -0.6990   -0.0000 C   0  0  0  0  0  0  0  0  0  0  0  0
   -2.0765   -1.1901    0.0035 H   0  0  0  0  0  0  0  0  0  0  0  0
    0.0034   -1.3971   -0.0024 C   0  0  0  0  0  0  0  0  0  0  0  0
   -0.0026   -2.3954   -0.0060 H   0  0  0  0  0  0  0  0  0  0  0  0
    1.1991   -0.7008   -0.0000 C   0  0  0  0  0  0  0  0  0  0  0  0
    2.0832   -1.1962    0.0036 H   0  0  0  0  0  0  0  0  0  0  0  0
    1.1948    0.6914   -0.0011 C   0  0  0  0  0  0  0  0  0  0  0  0
    2.0643    1.1871   -0.0065 H   0  0  0  0  0  0  0  0  0  0  0  0
  1  5  1  0
  5  8  1  0
  1  2  1  0
  1  3  1  0
  1  4  1  0
  5  6  1  0
  5  7  1  0
  8  9  1  0
  8 10  1  0
  8 11  1  0
 12 16  1  0
 16 17  2  0
 17 19  1  0
 19 21  2  0
 21 23  1  0
 23 25  2  0
 25 16  1  0
 12 13  1  0
 12 14  1  0
 12 15  1  0
 17 18  1  0
 19 20  1  0
 21 22  1  0
 23 24  1  0
 25 26  1  0
M  CHG  1   8   1
M  END
>  <PDB_ID>  (223) 
pdb2ddu

>  <RESIDUE_NAME>  (223) 
LYS   PHE

>  <FRAG_NAME>  (223) 
ETAM   MBZ

>  <FRAG_ATOM_NUM>  (223) 
fragi: 11  fragj: 15

>  <atom.prop.CHAIN_ID>  (223) 
A A A A A A A A A A A Z Z Z Z Z Z Z Z Z Z Z Z Z Z Z

>  <atom.prop.IS_HEAVY_ATOM>  (223) 
1 0 0 0 1 0 0 1 0 0 0 1 0 0 0 1 1 0 1 0 1 0 1 0 1 0

>  <DIFUSE_FUNC_ATOM>  (223) 
n/a

>  <FINAL_SINGLE_POINT_ENERGY>  (223) 
0

>  <NONCOV_INTER_ENERGY_QM>  (223) 
0

>  <FF_Energy>  (223) 
6.26

>  <QM_Energy>  (223) 
-2.96

>  <source>  (223) 
ETAM_MBZ

>  <Index>  (223) 
2146

$$$$
ETAM-pdb1cvr-A-LYS-41:MBZ-pdb1cvr-A-PHE-58
     RDKit          3D

 26 25  0  0  0  0  0  0  0  0999 V2000
   -1.4429   -2.9919   -3.5904 C   0  0  0  0  0  0  0  0  0  0  0  0
   -1.4075   -3.6288   -4.3643 H   0  0  0  0  0  0  0  0  0  0  0  0
   -1.5857   -3.5119   -2.7452 H   0  0  0  0  0  0  0  0  0  0  0  0
   -0.4818   -2.4822   -3.5219 H   0  0  0  0  0  0  0  0  0  0  0  0
   -2.6203   -2.0526   -3.7878 C   0  0  0  0  0  0  0  0  0  0  0  0
   -2.4136   -1.4276   -4.5463 H   0  0  0  0  0  0  0  0  0  0  0  0
   -3.4307   -2.5946   -4.0281 H   0  0  0  0  0  0  0  0  0  0  0  0
   -2.9052   -1.2614   -2.5657 N   0  0  0  0  0  4  0  0  0  0  0  0
   -2.9545   -1.8732   -1.7756 H   0  0  0  0  0  0  0  0  0  0  0  0
   -2.1749   -0.5919   -2.4236 H   0  0  0  0  0  0  0  0  0  0  0  0
   -3.7780   -0.7847   -2.6728 H   0  0  0  0  0  0  0  0  0  0  0  0
   -0.0009    2.9138    0.0897 C   0  0  0  0  0  0  0  0  0  0  0  0
   -0.6353    3.2597   -0.5830 H   0  0  0  0  0  0  0  0  0  0  0  0
    0.9187    3.2300   -0.0827 H   0  0  0  0  0  0  0  0  0  0  0  0
   -0.3069    3.2937    1.0644 H   0  0  0  0  0  0  0  0  0  0  0  0
   -0.0013    1.4122    0.0007 C   0  0  0  0  0  0  0  0  0  0  0  0
   -1.1968    0.7013   -0.0010 C   0  0  0  0  0  0  0  0  0  0  0  0
   -2.0664    1.1845   -0.0039 H   0  0  0  0  0  0  0  0  0  0  0  0
   -1.2065   -0.7067   -0.0000 C   0  0  0  0  0  0  0  0  0  0  0  0
   -2.0827   -1.1920    0.0005 H   0  0  0  0  0  0  0  0  0  0  0  0
   -0.0001   -1.4091    0.0027 C   0  0  0  0  0  0  0  0  0  0  0  0
   -0.0014   -2.4017    0.0063 H   0  0  0  0  0  0  0  0  0  0  0  0
    1.2065   -0.7017    0.0000 C   0  0  0  0  0  0  0  0  0  0  0  0
    2.0878   -1.1924    0.0010 H   0  0  0  0  0  0  0  0  0  0  0  0
    1.1981    0.7040   -0.0024 C   0  0  0  0  0  0  0  0  0  0  0  0
    2.0667    1.1962   -0.0074 H   0  0  0  0  0  0  0  0  0  0  0  0
  1  5  1  0
  5  8  1  0
  1  2  1  0
  1  3  1  0
  1  4  1  0
  5  6  1  0
  5  7  1  0
  8  9  1  0
  8 10  1  0
  8 11  1  0
 12 16  1  0
 16 17  2  0
 17 19  1  0
 19 21  2  0
 21 23  1  0
 23 25  2  0
 25 16  1  0
 12 13  1  0
 12 14  1  0
 12 15  1  0
 17 18  1  0
 19 20  1  0
 21 22  1  0
 23 24  1  0
 25 26  1  0
M  CHG  1   8   1
M  END
>  <PDB_ID>  (224) 
pdb1cvr

>  <RESIDUE_NAME>  (224) 
LYS   PHE

>  <FRAG_NAME>  (224) 
ETAM   MBZ

>  <FRAG_ATOM_NUM>  (224) 
fragi: 11  fragj: 15

>  <atom.prop.CHAIN_ID>  (224) 
A A A A A A A A A A A Z Z Z Z Z Z Z Z Z Z Z Z Z Z Z

>  <atom.prop.IS_HEAVY_ATOM>  (224) 
1 0 0 0 1 0 0 1 0 0 0 1 0 0 0 1 1 0 1 0 1 0 1 0 1 0

>  <DIFUSE_FUNC_ATOM>  (224) 
n/a

>  <FINAL_SINGLE_POINT_ENERGY>  (224) 
0

>  <NONCOV_INTER_ENERGY_QM>  (224) 
0

>  <FF_Energy>  (224) 
-2.01

>  <QM_Energy>  (224) 
-8.6

>  <source>  (224) 
ETAM_MBZ

>  <Index>  (224) 
2161

$$$$
ETAM-pdb2deb-A-LYS-316:MBZ-pdb2deb-A-PHE-235
     RDKit          3D

 26 25  0  0  0  0  0  0  0  0999 V2000
   -1.5372   -4.8784   -3.4470 C   0  0  0  0  0  0  0  0  0  0  0  0
   -1.8454   -4.0184   -3.8441 H   0  0  0  0  0  0  0  0  0  0  0  0
   -1.8129   -5.6414   -4.0253 H   0  0  0  0  0  0  0  0  0  0  0  0
   -0.4491   -4.8626   -3.3843 H   0  0  0  0  0  0  0  0  0  0  0  0
   -2.1986   -5.0450   -2.0763 C   0  0  0  0  0  0  0  0  0  0  0  0
   -3.2016   -5.0072   -2.1999 H   0  0  0  0  0  0  0  0  0  0  0  0
   -1.9678   -5.9629   -1.7199 H   0  0  0  0  0  0  0  0  0  0  0  0
   -1.7882   -4.0180   -1.0868 N   0  0  0  0  0  4  0  0  0  0  0  0
   -2.5295   -3.3570   -0.9650 H   0  0  0  0  0  0  0  0  0  0  0  0
   -1.5874   -4.4594   -0.2117 H   0  0  0  0  0  0  0  0  0  0  0  0
   -0.9706   -3.5445   -1.4167 H   0  0  0  0  0  0  0  0  0  0  0  0
   -0.0095    2.8970    0.0124 C   0  0  0  0  0  0  0  0  0  0  0  0
   -0.8335    3.2008   -0.4455 H   0  0  0  0  0  0  0  0  0  0  0  0
    0.7993    3.2126   -0.4653 H   0  0  0  0  0  0  0  0  0  0  0  0
   -0.0006    3.3427    1.0071 H   0  0  0  0  0  0  0  0  0  0  0  0
    0.0006    1.3951    0.0048 C   0  0  0  0  0  0  0  0  0  0  0  0
   -1.1952    0.6847    0.0029 C   0  0  0  0  0  0  0  0  0  0  0  0
   -2.0619    1.1737    0.0022 H   0  0  0  0  0  0  0  0  0  0  0  0
   -1.1932   -0.7011    0.0000 C   0  0  0  0  0  0  0  0  0  0  0  0
   -2.0696   -1.1984    0.0031 H   0  0  0  0  0  0  0  0  0  0  0  0
    0.0030   -1.3808   -0.0055 C   0  0  0  0  0  0  0  0  0  0  0  0
    0.0021   -2.3881   -0.0139 H   0  0  0  0  0  0  0  0  0  0  0  0
    1.1932   -0.6938    0.0000 C   0  0  0  0  0  0  0  0  0  0  0  0
    2.0793   -1.1889    0.0074 H   0  0  0  0  0  0  0  0  0  0  0  0
    1.1916    0.6960   -0.0022 C   0  0  0  0  0  0  0  0  0  0  0  0
    2.0609    1.1892   -0.0096 H   0  0  0  0  0  0  0  0  0  0  0  0
  1  5  1  0
  5  8  1  0
  1  2  1  0
  1  3  1  0
  1  4  1  0
  5  6  1  0
  5  7  1  0
  8  9  1  0
  8 10  1  0
  8 11  1  0
 12 16  1  0
 16 17  2  0
 17 19  1  0
 19 21  2  0
 21 23  1  0
 23 25  2  0
 25 16  1  0
 12 13  1  0
 12 14  1  0
 12 15  1  0
 17 18  1  0
 19 20  1  0
 21 22  1  0
 23 24  1  0
 25 26  1  0
M  CHG  1   8   1
M  END
>  <PDB_ID>  (225) 
pdb2deb

>  <RESIDUE_NAME>  (225) 
LYS   PHE

>  <FRAG_NAME>  (225) 
ETAM   MBZ

>  <FRAG_ATOM_NUM>  (225) 
fragi: 11  fragj: 15

>  <atom.prop.CHAIN_ID>  (225) 
A A A A A A A A A A A Z Z Z Z Z Z Z Z Z Z Z Z Z Z Z

>  <atom.prop.IS_HEAVY_ATOM>  (225) 
1 0 0 0 1 0 0 1 0 0 0 1 0 0 0 1 1 0 1 0 1 0 1 0 1 0

>  <DIFUSE_FUNC_ATOM>  (225) 
n/a

>  <FINAL_SINGLE_POINT_ENERGY>  (225) 
0

>  <NONCOV_INTER_ENERGY_QM>  (225) 
0

>  <FF_Energy>  (225) 
1.49

>  <QM_Energy>  (225) 
-4.79

>  <source>  (225) 
ETAM_MBZ

>  <Index>  (225) 
2164

$$$$
ETAM-pdb2deb-B-LYS-316:MBZ-pdb2deb-B-PHE-235
     RDKit          3D

 26 25  0  0  0  0  0  0  0  0999 V2000
   -0.9651   -3.4933   -3.9462 C   0  0  0  0  0  0  0  0  0  0  0  0
   -0.1822   -3.0560   -3.5045 H   0  0  0  0  0  0  0  0  0  0  0  0
   -1.4176   -2.8393   -4.5514 H   0  0  0  0  0  0  0  0  0  0  0  0
   -0.6078   -4.3339   -4.5411 H   0  0  0  0  0  0  0  0  0  0  0  0
   -1.9519   -3.9171   -2.8693 C   0  0  0  0  0  0  0  0  0  0  0  0
   -2.6419   -4.5159   -3.2786 H   0  0  0  0  0  0  0  0  0  0  0  0
   -1.4595   -4.4177   -2.1562 H   0  0  0  0  0  0  0  0  0  0  0  0
   -2.6231   -2.7362   -2.2645 N   0  0  0  0  0  4  0  0  0  0  0  0
   -3.6059   -2.7848   -2.4440 H   0  0  0  0  0  0  0  0  0  0  0  0
   -2.4632   -2.7319   -1.2774 H   0  0  0  0  0  0  0  0  0  0  0  0
   -2.2501   -1.8999   -2.6661 H   0  0  0  0  0  0  0  0  0  0  0  0
    0.0000    2.8932   -0.0177 C   0  0  0  0  0  0  0  0  0  0  0  0
   -0.7922    3.1925   -0.5342 H   0  0  0  0  0  0  0  0  0  0  0  0
    0.8391    3.1954   -0.4523 H   0  0  0  0  0  0  0  0  0  0  0  0
   -0.0503    3.3515    0.9700 H   0  0  0  0  0  0  0  0  0  0  0  0
    0.0018    1.3935   -0.0024 C   0  0  0  0  0  0  0  0  0  0  0  0
   -1.1903    0.6892   -0.0031 C   0  0  0  0  0  0  0  0  0  0  0  0
   -2.0579    1.1777   -0.0068 H   0  0  0  0  0  0  0  0  0  0  0  0
   -1.1914   -0.6983   -0.0000 C   0  0  0  0  0  0  0  0  0  0  0  0
   -2.0736   -1.1894   -0.0036 H   0  0  0  0  0  0  0  0  0  0  0  0
   -0.0046   -1.3823    0.0097 C   0  0  0  0  0  0  0  0  0  0  0  0
   -0.0029   -2.3871    0.0236 H   0  0  0  0  0  0  0  0  0  0  0  0
    1.1914   -0.6931   -0.0000 C   0  0  0  0  0  0  0  0  0  0  0  0
    2.0737   -1.1945   -0.0024 H   0  0  0  0  0  0  0  0  0  0  0  0
    1.1930    0.6910   -0.0041 C   0  0  0  0  0  0  0  0  0  0  0  0
    2.0626    1.1858   -0.0089 H   0  0  0  0  0  0  0  0  0  0  0  0
  1  5  1  0
  5  8  1  0
  1  2  1  0
  1  3  1  0
  1  4  1  0
  5  6  1  0
  5  7  1  0
  8  9  1  0
  8 10  1  0
  8 11  1  0
 12 16  1  0
 16 17  2  0
 17 19  1  0
 19 21  2  0
 21 23  1  0
 23 25  2  0
 25 16  1  0
 12 13  1  0
 12 14  1  0
 12 15  1  0
 17 18  1  0
 19 20  1  0
 21 22  1  0
 23 24  1  0
 25 26  1  0
M  CHG  1   8   1
M  END
>  <PDB_ID>  (226) 
pdb2deb

>  <RESIDUE_NAME>  (226) 
LYS   PHE

>  <FRAG_NAME>  (226) 
ETAM   MBZ

>  <FRAG_ATOM_NUM>  (226) 
fragi: 11  fragj: 15

>  <atom.prop.CHAIN_ID>  (226) 
A A A A A A A A A A A Z Z Z Z Z Z Z Z Z Z Z Z Z Z Z

>  <atom.prop.IS_HEAVY_ATOM>  (226) 
1 0 0 0 1 0 0 1 0 0 0 1 0 0 0 1 1 0 1 0 1 0 1 0 1 0

>  <DIFUSE_FUNC_ATOM>  (226) 
n/a

>  <FINAL_SINGLE_POINT_ENERGY>  (226) 
0

>  <NONCOV_INTER_ENERGY_QM>  (226) 
0

>  <FF_Energy>  (226) 
-0.81

>  <QM_Energy>  (226) 
-6.56

>  <source>  (226) 
ETAM_MBZ

>  <Index>  (226) 
2169

$$$$
ETAM-pdb2dc0-B-LYS-1007:MBZ-pdb2dc0-B-PHE-1218
     RDKit          3D

 26 25  0  0  0  0  0  0  0  0999 V2000
    0.7950   -3.8395   -3.1577 C   0  0  0  0  0  0  0  0  0  0  0  0
    1.2378   -3.3162   -2.4415 H   0  0  0  0  0  0  0  0  0  0  0  0
    0.3702   -3.2413   -3.8233 H   0  0  0  0  0  0  0  0  0  0  0  0
    1.5403   -4.4574   -3.6587 H   0  0  0  0  0  0  0  0  0  0  0  0
   -0.2803   -4.7088   -2.5303 C   0  0  0  0  0  0  0  0  0  0  0  0
   -0.6718   -5.3017   -3.2387 H   0  0  0  0  0  0  0  0  0  0  0  0
    0.1391   -5.2819   -1.8209 H   0  0  0  0  0  0  0  0  0  0  0  0
   -1.3542   -3.8884   -1.9276 N   0  0  0  0  0  4  0  0  0  0  0  0
   -0.9495   -3.1740   -1.3548 H   0  0  0  0  0  0  0  0  0  0  0  0
   -1.8996   -3.4639   -2.6517 H   0  0  0  0  0  0  0  0  0  0  0  0
   -1.9449   -4.4688   -1.3660 H   0  0  0  0  0  0  0  0  0  0  0  0
    0.0140    2.9128   -0.0437 C   0  0  0  0  0  0  0  0  0  0  0  0
   -0.4019    3.1968   -0.8969 H   0  0  0  0  0  0  0  0  0  0  0  0
    0.9577    3.2110    0.0070 H   0  0  0  0  0  0  0  0  0  0  0  0
   -0.5302    3.3956    0.7681 H   0  0  0  0  0  0  0  0  0  0  0  0
   -0.0001    1.4072    0.0003 C   0  0  0  0  0  0  0  0  0  0  0  0
   -1.1962    0.7016    0.0001 C   0  0  0  0  0  0  0  0  0  0  0  0
   -2.0638    1.1876   -0.0010 H   0  0  0  0  0  0  0  0  0  0  0  0
   -1.2017   -0.6992   -0.0000 C   0  0  0  0  0  0  0  0  0  0  0  0
   -2.0796   -1.1875    0.0026 H   0  0  0  0  0  0  0  0  0  0  0  0
   -0.0013   -1.3975   -0.0012 C   0  0  0  0  0  0  0  0  0  0  0  0
   -0.0076   -2.3971   -0.0032 H   0  0  0  0  0  0  0  0  0  0  0  0
    1.2017   -0.7046   -0.0000 C   0  0  0  0  0  0  0  0  0  0  0  0
    2.0817   -1.1997    0.0016 H   0  0  0  0  0  0  0  0  0  0  0  0
    1.1976    0.6926    0.0008 C   0  0  0  0  0  0  0  0  0  0  0  0
    2.0669    1.1863    0.0009 H   0  0  0  0  0  0  0  0  0  0  0  0
  1  5  1  0
  5  8  1  0
  1  2  1  0
  1  3  1  0
  1  4  1  0
  5  6  1  0
  5  7  1  0
  8  9  1  0
  8 10  1  0
  8 11  1  0
 12 16  1  0
 16 17  2  0
 17 19  1  0
 19 21  2  0
 21 23  1  0
 23 25  2  0
 25 16  1  0
 12 13  1  0
 12 14  1  0
 12 15  1  0
 17 18  1  0
 19 20  1  0
 21 22  1  0
 23 24  1  0
 25 26  1  0
M  CHG  1   8   1
M  END
>  <PDB_ID>  (227) 
pdb2dc0

>  <RESIDUE_NAME>  (227) 
LYS   PHE

>  <FRAG_NAME>  (227) 
ETAM   MBZ

>  <FRAG_ATOM_NUM>  (227) 
fragi: 11  fragj: 15

>  <atom.prop.CHAIN_ID>  (227) 
A A A A A A A A A A A Z Z Z Z Z Z Z Z Z Z Z Z Z Z Z

>  <atom.prop.IS_HEAVY_ATOM>  (227) 
1 0 0 0 1 0 0 1 0 0 0 1 0 0 0 1 1 0 1 0 1 0 1 0 1 0

>  <DIFUSE_FUNC_ATOM>  (227) 
n/a

>  <FINAL_SINGLE_POINT_ENERGY>  (227) 
0

>  <NONCOV_INTER_ENERGY_QM>  (227) 
0

>  <FF_Energy>  (227) 
-0.34

>  <QM_Energy>  (227) 
-6.9

>  <source>  (227) 
ETAM_MBZ

>  <Index>  (227) 
2181

$$$$
ETAM-pdb1cyd-C-LYS-199:MBZ-pdb1cyd-C-PHE-196
     RDKit          3D

 26 25  0  0  0  0  0  0  0  0999 V2000
   -4.5190    1.9899    2.5924 C   0  0  0  0  0  0  0  0  0  0  0  0
   -4.3699    1.0466    2.8720 H   0  0  0  0  0  0  0  0  0  0  0  0
   -5.4806    2.2288    2.6835 H   0  0  0  0  0  0  0  0  0  0  0  0
   -3.9311    2.6439    3.2365 H   0  0  0  0  0  0  0  0  0  0  0  0
   -4.1249    2.1249    1.1153 C   0  0  0  0  0  0  0  0  0  0  0  0
   -4.4547    3.0080    0.7742 H   0  0  0  0  0  0  0  0  0  0  0  0
   -3.1249    2.1009    1.0465 H   0  0  0  0  0  0  0  0  0  0  0  0
   -4.7005    1.0282    0.2718 N   0  0  0  0  0  4  0  0  0  0  0  0
   -5.0942    0.3314    0.8668 H   0  0  0  0  0  0  0  0  0  0  0  0
   -5.4090    1.4082   -0.3192 H   0  0  0  0  0  0  0  0  0  0  0  0
   -3.9741    0.6288   -0.2837 H   0  0  0  0  0  0  0  0  0  0  0  0
    0.0006    2.9024    0.0250 C   0  0  0  0  0  0  0  0  0  0  0  0
   -0.5254    3.2250   -0.7482 H   0  0  0  0  0  0  0  0  0  0  0  0
    0.9395    3.2108   -0.0277 H   0  0  0  0  0  0  0  0  0  0  0  0
   -0.4385    3.3306    0.9261 H   0  0  0  0  0  0  0  0  0  0  0  0
   -0.0018    1.4043    0.0005 C   0  0  0  0  0  0  0  0  0  0  0  0
   -1.1956    0.6952   -0.0003 C   0  0  0  0  0  0  0  0  0  0  0  0
   -2.0640    1.1806   -0.0019 H   0  0  0  0  0  0  0  0  0  0  0  0
   -1.1991   -0.7022    0.0000 C   0  0  0  0  0  0  0  0  0  0  0  0
   -2.0749   -1.1931    0.0013 H   0  0  0  0  0  0  0  0  0  0  0  0
    0.0036   -1.3961    0.0006 C   0  0  0  0  0  0  0  0  0  0  0  0
    0.0003   -2.3949    0.0008 H   0  0  0  0  0  0  0  0  0  0  0  0
    1.1991   -0.6989   -0.0000 C   0  0  0  0  0  0  0  0  0  0  0  0
    2.0844   -1.1907    0.0013 H   0  0  0  0  0  0  0  0  0  0  0  0
    1.1937    0.6976   -0.0008 C   0  0  0  0  0  0  0  0  0  0  0  0
    2.0628    1.1912   -0.0034 H   0  0  0  0  0  0  0  0  0  0  0  0
  1  5  1  0
  5  8  1  0
  1  2  1  0
  1  3  1  0
  1  4  1  0
  5  6  1  0
  5  7  1  0
  8  9  1  0
  8 10  1  0
  8 11  1  0
 12 16  1  0
 16 17  2  0
 17 19  1  0
 19 21  2  0
 21 23  1  0
 23 25  2  0
 25 16  1  0
 12 13  1  0
 12 14  1  0
 12 15  1  0
 17 18  1  0
 19 20  1  0
 21 22  1  0
 23 24  1  0
 25 26  1  0
M  CHG  1   8   1
M  END
>  <PDB_ID>  (228) 
pdb1cyd

>  <RESIDUE_NAME>  (228) 
LYS   PHE

>  <FRAG_NAME>  (228) 
ETAM   MBZ

>  <FRAG_ATOM_NUM>  (228) 
fragi: 11  fragj: 15

>  <atom.prop.CHAIN_ID>  (228) 
A A A A A A A A A A A Z Z Z Z Z Z Z Z Z Z Z Z Z Z Z

>  <atom.prop.IS_HEAVY_ATOM>  (228) 
1 0 0 0 1 0 0 1 0 0 0 1 0 0 0 1 1 0 1 0 1 0 1 0 1 0

>  <DIFUSE_FUNC_ATOM>  (228) 
n/a

>  <FINAL_SINGLE_POINT_ENERGY>  (228) 
0

>  <NONCOV_INTER_ENERGY_QM>  (228) 
0

>  <FF_Energy>  (228) 
6.94

>  <QM_Energy>  (228) 
-1.96

>  <source>  (228) 
ETAM_MBZ

>  <Index>  (228) 
2211

$$$$
ETAM-pdb2dho-A-LYS-207:MBZ-pdb2dho-A-PHE-204
     RDKit          3D

 26 25  0  0  0  0  0  0  0  0999 V2000
   -5.6938    2.3774   -0.7555 C   0  0  0  0  0  0  0  0  0  0  0  0
   -6.1000    2.2377    0.1456 H   0  0  0  0  0  0  0  0  0  0  0  0
   -6.3227    2.0588   -1.4626 H   0  0  0  0  0  0  0  0  0  0  0  0
   -5.5213    3.4442   -0.8974 H   0  0  0  0  0  0  0  0  0  0  0  0
   -4.4122    1.5602   -0.8419 C   0  0  0  0  0  0  0  0  0  0  0  0
   -3.9772    1.7288   -1.7315 H   0  0  0  0  0  0  0  0  0  0  0  0
   -3.7848    1.8589   -0.1151 H   0  0  0  0  0  0  0  0  0  0  0  0
   -4.6607    0.0907   -0.6940 N   0  0  0  0  0  4  0  0  0  0  0  0
   -4.2247   -0.3924   -1.4504 H   0  0  0  0  0  0  0  0  0  0  0  0
   -4.2759   -0.2203    0.1729 H   0  0  0  0  0  0  0  0  0  0  0  0
   -5.6442   -0.0773   -0.7074 H   0  0  0  0  0  0  0  0  0  0  0  0
    0.0066    2.9102   -0.0038 C   0  0  0  0  0  0  0  0  0  0  0  0
    0.9408    3.2151   -0.1128 H   0  0  0  0  0  0  0  0  0  0  0  0
   -0.3754    3.2194    0.8546 H   0  0  0  0  0  0  0  0  0  0  0  0
   -0.5811    3.3575   -0.8055 H   0  0  0  0  0  0  0  0  0  0  0  0
    0.0014    1.4049   -0.0037 C   0  0  0  0  0  0  0  0  0  0  0  0
   -1.1964    0.6914    0.0026 C   0  0  0  0  0  0  0  0  0  0  0  0
   -2.0636    1.1813    0.0074 H   0  0  0  0  0  0  0  0  0  0  0  0
   -1.2020   -0.7020    0.0000 C   0  0  0  0  0  0  0  0  0  0  0  0
   -2.0788   -1.1940   -0.0012 H   0  0  0  0  0  0  0  0  0  0  0  0
   -0.0010   -1.3968    0.0004 C   0  0  0  0  0  0  0  0  0  0  0  0
   -0.0012   -2.3950    0.0009 H   0  0  0  0  0  0  0  0  0  0  0  0
    1.2020   -0.6969    0.0000 C   0  0  0  0  0  0  0  0  0  0  0  0
    2.0830   -1.1922    0.0007 H   0  0  0  0  0  0  0  0  0  0  0  0
    1.1960    0.6994    0.0007 C   0  0  0  0  0  0  0  0  0  0  0  0
    2.0649    1.1929    0.0034 H   0  0  0  0  0  0  0  0  0  0  0  0
  1  5  1  0
  5  8  1  0
  1  2  1  0
  1  3  1  0
  1  4  1  0
  5  6  1  0
  5  7  1  0
  8  9  1  0
  8 10  1  0
  8 11  1  0
 12 16  1  0
 16 17  2  0
 17 19  1  0
 19 21  2  0
 21 23  1  0
 23 25  2  0
 25 16  1  0
 12 13  1  0
 12 14  1  0
 12 15  1  0
 17 18  1  0
 19 20  1  0
 21 22  1  0
 23 24  1  0
 25 26  1  0
M  CHG  1   8   1
M  END
>  <PDB_ID>  (229) 
pdb2dho

>  <RESIDUE_NAME>  (229) 
LYS   PHE

>  <FRAG_NAME>  (229) 
ETAM   MBZ

>  <FRAG_ATOM_NUM>  (229) 
fragi: 11  fragj: 15

>  <atom.prop.CHAIN_ID>  (229) 
A A A A A A A A A A A Z Z Z Z Z Z Z Z Z Z Z Z Z Z Z

>  <atom.prop.IS_HEAVY_ATOM>  (229) 
1 0 0 0 1 0 0 1 0 0 0 1 0 0 0 1 1 0 1 0 1 0 1 0 1 0

>  <DIFUSE_FUNC_ATOM>  (229) 
n/a

>  <FINAL_SINGLE_POINT_ENERGY>  (229) 
0

>  <NONCOV_INTER_ENERGY_QM>  (229) 
0

>  <FF_Energy>  (229) 
3.82

>  <QM_Energy>  (229) 
-2.61

>  <source>  (229) 
ETAM_MBZ

>  <Index>  (229) 
2226

$$$$
ETAM-pdb2di3-A-LYS-129:MBZ-pdb2di3-A-PHE-143
     RDKit          3D

 26 25  0  0  0  0  0  0  0  0999 V2000
    0.1153   -2.4332    4.3609 C   0  0  0  0  0  0  0  0  0  0  0  0
    0.3566   -2.3478    3.3962 H   0  0  0  0  0  0  0  0  0  0  0  0
    0.3612   -3.3416    4.6926 H   0  0  0  0  0  0  0  0  0  0  0  0
    0.6740   -1.6890    4.9285 H   0  0  0  0  0  0  0  0  0  0  0  0
   -1.3844   -2.2546    4.5040 C   0  0  0  0  0  0  0  0  0  0  0  0
   -1.8216   -3.1583    4.5230 H   0  0  0  0  0  0  0  0  0  0  0  0
   -1.5775   -1.7832    5.3698 H   0  0  0  0  0  0  0  0  0  0  0  0
   -1.9603   -1.4604    3.3802 N   0  0  0  0  0  4  0  0  0  0  0  0
   -2.5693   -0.7601    3.7501 H   0  0  0  0  0  0  0  0  0  0  0  0
   -1.2191   -1.0263    2.8696 H   0  0  0  0  0  0  0  0  0  0  0  0
   -2.4739   -2.0685    2.7763 H   0  0  0  0  0  0  0  0  0  0  0  0
    0.0083    2.9102    0.0423 C   0  0  0  0  0  0  0  0  0  0  0  0
    0.9195    3.2160   -0.1906 H   0  0  0  0  0  0  0  0  0  0  0  0
   -0.2450    3.2019    0.9528 H   0  0  0  0  0  0  0  0  0  0  0  0
   -0.6868    3.3711   -0.6596 H   0  0  0  0  0  0  0  0  0  0  0  0
    0.0010    1.4055    0.0162 C   0  0  0  0  0  0  0  0  0  0  0  0
   -1.1983    0.6966    0.0002 C   0  0  0  0  0  0  0  0  0  0  0  0
   -2.0638    1.1853   -0.0123 H   0  0  0  0  0  0  0  0  0  0  0  0
   -1.2028   -0.6995   -0.0000 C   0  0  0  0  0  0  0  0  0  0  0  0
   -2.0793   -1.1909    0.0123 H   0  0  0  0  0  0  0  0  0  0  0  0
   -0.0001   -1.3976   -0.0158 C   0  0  0  0  0  0  0  0  0  0  0  0
   -0.0038   -2.3954   -0.0391 H   0  0  0  0  0  0  0  0  0  0  0  0
    1.2028   -0.6998   -0.0000 C   0  0  0  0  0  0  0  0  0  0  0  0
    2.0832   -1.1954    0.0130 H   0  0  0  0  0  0  0  0  0  0  0  0
    1.1974    0.6948   -0.0006 C   0  0  0  0  0  0  0  0  0  0  0  0
    2.0669    1.1900   -0.0142 H   0  0  0  0  0  0  0  0  0  0  0  0
  1  5  1  0
  5  8  1  0
  1  2  1  0
  1  3  1  0
  1  4  1  0
  5  6  1  0
  5  7  1  0
  8  9  1  0
  8 10  1  0
  8 11  1  0
 12 16  1  0
 16 17  2  0
 17 19  1  0
 19 21  2  0
 21 23  1  0
 23 25  2  0
 25 16  1  0
 12 13  1  0
 12 14  1  0
 12 15  1  0
 17 18  1  0
 19 20  1  0
 21 22  1  0
 23 24  1  0
 25 26  1  0
M  CHG  1   8   1
M  END
>  <PDB_ID>  (230) 
pdb2di3

>  <RESIDUE_NAME>  (230) 
LYS   PHE

>  <FRAG_NAME>  (230) 
ETAM   MBZ

>  <FRAG_ATOM_NUM>  (230) 
fragi: 11  fragj: 15

>  <atom.prop.CHAIN_ID>  (230) 
A A A A A A A A A A A Z Z Z Z Z Z Z Z Z Z Z Z Z Z Z

>  <atom.prop.IS_HEAVY_ATOM>  (230) 
1 0 0 0 1 0 0 1 0 0 0 1 0 0 0 1 1 0 1 0 1 0 1 0 1 0

>  <DIFUSE_FUNC_ATOM>  (230) 
n/a

>  <FINAL_SINGLE_POINT_ENERGY>  (230) 
0

>  <NONCOV_INTER_ENERGY_QM>  (230) 
0

>  <FF_Energy>  (230) 
-4.29

>  <QM_Energy>  (230) 
-9.76

>  <source>  (230) 
ETAM_MBZ

>  <Index>  (230) 
2227

$$$$
ETAM-pdb2di3-B-LYS-129:MBZ-pdb2di3-B-PHE-143
     RDKit          3D

 26 25  0  0  0  0  0  0  0  0999 V2000
    0.0242   -1.7681    4.6851 C   0  0  0  0  0  0  0  0  0  0  0  0
    0.3439   -2.4727    4.0588 H   0  0  0  0  0  0  0  0  0  0  0  0
   -0.5744   -2.1644    5.3736 H   0  0  0  0  0  0  0  0  0  0  0  0
    0.8852   -1.3193    5.1806 H   0  0  0  0  0  0  0  0  0  0  0  0
   -0.7650   -0.7368    3.8924 C   0  0  0  0  0  0  0  0  0  0  0  0
   -0.9606    0.0496    4.4856 H   0  0  0  0  0  0  0  0  0  0  0  0
   -0.2069   -0.4251    3.1172 H   0  0  0  0  0  0  0  0  0  0  0  0
   -2.0493   -1.2900    3.3771 N   0  0  0  0  0  4  0  0  0  0  0  0
   -1.8677   -2.1344    2.8740 H   0  0  0  0  0  0  0  0  0  0  0  0
   -2.6588   -1.4812    4.1452 H   0  0  0  0  0  0  0  0  0  0  0  0
   -2.4762   -0.6227    2.7685 H   0  0  0  0  0  0  0  0  0  0  0  0
    0.0103    2.9090    0.0617 C   0  0  0  0  0  0  0  0  0  0  0  0
    0.9010    3.2175   -0.2435 H   0  0  0  0  0  0  0  0  0  0  0  0
   -0.1615    3.1871    0.9969 H   0  0  0  0  0  0  0  0  0  0  0  0
   -0.7409    3.3828   -0.5703 H   0  0  0  0  0  0  0  0  0  0  0  0
   -0.0013    1.4059    0.0160 C   0  0  0  0  0  0  0  0  0  0  0  0
   -1.1992    0.6951   -0.0017 C   0  0  0  0  0  0  0  0  0  0  0  0
   -2.0662    1.1839   -0.0171 H   0  0  0  0  0  0  0  0  0  0  0  0
   -1.2051   -0.7018   -0.0000 C   0  0  0  0  0  0  0  0  0  0  0  0
   -2.0789   -1.1943    0.0120 H   0  0  0  0  0  0  0  0  0  0  0  0
    0.0026   -1.3986   -0.0135 C   0  0  0  0  0  0  0  0  0  0  0  0
   -0.0003   -2.3954   -0.0337 H   0  0  0  0  0  0  0  0  0  0  0  0
    1.2051   -0.6983    0.0000 C   0  0  0  0  0  0  0  0  0  0  0  0
    2.0860   -1.1927    0.0116 H   0  0  0  0  0  0  0  0  0  0  0  0
    1.1979    0.6977   -0.0007 C   0  0  0  0  0  0  0  0  0  0  0  0
    2.0647    1.1938   -0.0141 H   0  0  0  0  0  0  0  0  0  0  0  0
  1  5  1  0
  5  8  1  0
  1  2  1  0
  1  3  1  0
  1  4  1  0
  5  6  1  0
  5  7  1  0
  8  9  1  0
  8 10  1  0
  8 11  1  0
 12 16  1  0
 16 17  2  0
 17 19  1  0
 19 21  2  0
 21 23  1  0
 23 25  2  0
 25 16  1  0
 12 13  1  0
 12 14  1  0
 12 15  1  0
 17 18  1  0
 19 20  1  0
 21 22  1  0
 23 24  1  0
 25 26  1  0
M  CHG  1   8   1
M  END
>  <PDB_ID>  (231) 
pdb2di3

>  <RESIDUE_NAME>  (231) 
LYS   PHE

>  <FRAG_NAME>  (231) 
ETAM   MBZ

>  <FRAG_ATOM_NUM>  (231) 
fragi: 11  fragj: 15

>  <atom.prop.CHAIN_ID>  (231) 
A A A A A A A A A A A Z Z Z Z Z Z Z Z Z Z Z Z Z Z Z

>  <atom.prop.IS_HEAVY_ATOM>  (231) 
1 0 0 0 1 0 0 1 0 0 0 1 0 0 0 1 1 0 1 0 1 0 1 0 1 0

>  <DIFUSE_FUNC_ATOM>  (231) 
n/a

>  <FINAL_SINGLE_POINT_ENERGY>  (231) 
0

>  <NONCOV_INTER_ENERGY_QM>  (231) 
0

>  <FF_Energy>  (231) 
-4.68

>  <QM_Energy>  (231) 
-10.3

>  <source>  (231) 
ETAM_MBZ

>  <Index>  (231) 
2228

$$$$
ETAM-pdb1cz3-B-LYS-14:MBZ-pdb1cz3-A-PHE-134
     RDKit          3D

 26 25  0  0  0  0  0  0  0  0999 V2000
   -2.7537   -5.4695    2.5063 C   0  0  0  0  0  0  0  0  0  0  0  0
   -1.9896   -5.7642    1.9356 H   0  0  0  0  0  0  0  0  0  0  0  0
   -3.5905   -5.9295    2.2160 H   0  0  0  0  0  0  0  0  0  0  0  0
   -2.5437   -5.7454    3.5397 H   0  0  0  0  0  0  0  0  0  0  0  0
   -2.9417   -3.9632    2.3238 C   0  0  0  0  0  0  0  0  0  0  0  0
   -3.0149   -3.7626    1.3452 H   0  0  0  0  0  0  0  0  0  0  0  0
   -3.7890   -3.6842    2.7807 H   0  0  0  0  0  0  0  0  0  0  0  0
   -1.7981   -3.1818    2.8986 N   0  0  0  0  0  4  0  0  0  0  0  0
   -1.0275   -3.2185    2.2662 H   0  0  0  0  0  0  0  0  0  0  0  0
   -2.0842   -2.2351    3.0297 H   0  0  0  0  0  0  0  0  0  0  0  0
   -1.5377   -3.5821    3.7746 H   0  0  0  0  0  0  0  0  0  0  0  0
    0.0122    2.9245    0.0180 C   0  0  0  0  0  0  0  0  0  0  0  0
   -0.6906    3.2414   -0.5990 H   0  0  0  0  0  0  0  0  0  0  0  0
    0.9090    3.2224   -0.2702 H   0  0  0  0  0  0  0  0  0  0  0  0
   -0.1843    3.3546    1.0001 H   0  0  0  0  0  0  0  0  0  0  0  0
   -0.0025    1.4148    0.0003 C   0  0  0  0  0  0  0  0  0  0  0  0
   -1.2048    0.7100    0.0014 C   0  0  0  0  0  0  0  0  0  0  0  0
   -2.0707    1.1911    0.0022 H   0  0  0  0  0  0  0  0  0  0  0  0
   -1.2135   -0.7072    0.0000 C   0  0  0  0  0  0  0  0  0  0  0  0
   -2.0839   -1.1934    0.0005 H   0  0  0  0  0  0  0  0  0  0  0  0
    0.0063   -1.4109   -0.0004 C   0  0  0  0  0  0  0  0  0  0  0  0
    0.0013   -2.4039   -0.0017 H   0  0  0  0  0  0  0  0  0  0  0  0
    1.2135   -0.7032   -0.0000 C   0  0  0  0  0  0  0  0  0  0  0  0
    2.0935   -1.1948    0.0026 H   0  0  0  0  0  0  0  0  0  0  0  0
    1.2010    0.6966   -0.0013 C   0  0  0  0  0  0  0  0  0  0  0  0
    2.0684    1.1951   -0.0041 H   0  0  0  0  0  0  0  0  0  0  0  0
  1  5  1  0
  5  8  1  0
  1  2  1  0
  1  3  1  0
  1  4  1  0
  5  6  1  0
  5  7  1  0
  8  9  1  0
  8 10  1  0
  8 11  1  0
 12 16  1  0
 16 17  2  0
 17 19  1  0
 19 21  2  0
 21 23  1  0
 23 25  2  0
 25 16  1  0
 12 13  1  0
 12 14  1  0
 12 15  1  0
 17 18  1  0
 19 20  1  0
 21 22  1  0
 23 24  1  0
 25 26  1  0
M  CHG  1   8   1
M  END
>  <PDB_ID>  (232) 
pdb1cz3

>  <RESIDUE_NAME>  (232) 
LYS   PHE

>  <FRAG_NAME>  (232) 
ETAM   MBZ

>  <FRAG_ATOM_NUM>  (232) 
fragi: 11  fragj: 15

>  <atom.prop.CHAIN_ID>  (232) 
A A A A A A A A A A A Z Z Z Z Z Z Z Z Z Z Z Z Z Z Z

>  <atom.prop.IS_HEAVY_ATOM>  (232) 
1 0 0 0 1 0 0 1 0 0 0 1 0 0 0 1 1 0 1 0 1 0 1 0 1 0

>  <DIFUSE_FUNC_ATOM>  (232) 
n/a

>  <FINAL_SINGLE_POINT_ENERGY>  (232) 
0

>  <NONCOV_INTER_ENERGY_QM>  (232) 
0

>  <FF_Energy>  (232) 
-1.59

>  <QM_Energy>  (232) 
-6.61

>  <source>  (232) 
ETAM_MBZ

>  <Index>  (232) 
2235

$$$$
ETAM-pdb1cz3-B-LYS-92:MBZ-pdb1cz3-B-PHE-88
     RDKit          3D

 26 25  0  0  0  0  0  0  0  0999 V2000
   -0.7441   -2.1880    4.7391 C   0  0  0  0  0  0  0  0  0  0  0  0
   -0.4451   -3.0000    5.2340 H   0  0  0  0  0  0  0  0  0  0  0  0
   -1.4751   -1.7320    5.2425 H   0  0  0  0  0  0  0  0  0  0  0  0
    0.0985   -1.5040    4.6383 H   0  0  0  0  0  0  0  0  0  0  0  0
   -1.2788   -2.6136    3.3910 C   0  0  0  0  0  0  0  0  0  0  0  0
   -2.1010   -3.1566    3.5197 H   0  0  0  0  0  0  0  0  0  0  0  0
   -1.4774   -1.8067    2.8457 H   0  0  0  0  0  0  0  0  0  0  0  0
   -0.2516   -3.4352    2.6965 N   0  0  0  0  0  4  0  0  0  0  0  0
   -0.6142   -4.3526    2.5343 H   0  0  0  0  0  0  0  0  0  0  0  0
   -0.0202   -3.0081    1.8230 H   0  0  0  0  0  0  0  0  0  0  0  0
    0.5675   -3.4952    3.2667 H   0  0  0  0  0  0  0  0  0  0  0  0
   -0.0020    2.8876   -0.0250 C   0  0  0  0  0  0  0  0  0  0  0  0
   -0.6488    3.1877   -0.7137 H   0  0  0  0  0  0  0  0  0  0  0  0
    0.9154    3.1937   -0.2438 H   0  0  0  0  0  0  0  0  0  0  0  0
   -0.2881    3.3441    0.9225 H   0  0  0  0  0  0  0  0  0  0  0  0
   -0.0040    1.3984   -0.0014 C   0  0  0  0  0  0  0  0  0  0  0  0
   -1.1954    0.6928    0.0022 C   0  0  0  0  0  0  0  0  0  0  0  0
   -2.0643    1.1800    0.0053 H   0  0  0  0  0  0  0  0  0  0  0  0
   -1.1966   -0.6977    0.0000 C   0  0  0  0  0  0  0  0  0  0  0  0
   -2.0727   -1.1927    0.0016 H   0  0  0  0  0  0  0  0  0  0  0  0
    0.0044   -1.3887   -0.0021 C   0  0  0  0  0  0  0  0  0  0  0  0
   -0.0018   -2.3917   -0.0058 H   0  0  0  0  0  0  0  0  0  0  0  0
    1.1966   -0.6979   -0.0000 C   0  0  0  0  0  0  0  0  0  0  0  0
    2.0814   -1.1939    0.0018 H   0  0  0  0  0  0  0  0  0  0  0  0
    1.1950    0.6932    0.0013 C   0  0  0  0  0  0  0  0  0  0  0  0
    2.0611    1.1891    0.0035 H   0  0  0  0  0  0  0  0  0  0  0  0
  1  5  1  0
  5  8  1  0
  1  2  1  0
  1  3  1  0
  1  4  1  0
  5  6  1  0
  5  7  1  0
  8  9  1  0
  8 10  1  0
  8 11  1  0
 12 16  1  0
 16 17  2  0
 17 19  1  0
 19 21  2  0
 21 23  1  0
 23 25  2  0
 25 16  1  0
 12 13  1  0
 12 14  1  0
 12 15  1  0
 17 18  1  0
 19 20  1  0
 21 22  1  0
 23 24  1  0
 25 26  1  0
M  CHG  1   8   1
M  END
>  <PDB_ID>  (233) 
pdb1cz3

>  <RESIDUE_NAME>  (233) 
LYS   PHE

>  <FRAG_NAME>  (233) 
ETAM   MBZ

>  <FRAG_ATOM_NUM>  (233) 
fragi: 11  fragj: 15

>  <atom.prop.CHAIN_ID>  (233) 
A A A A A A A A A A A Z Z Z Z Z Z Z Z Z Z Z Z Z Z Z

>  <atom.prop.IS_HEAVY_ATOM>  (233) 
1 0 0 0 1 0 0 1 0 0 0 1 0 0 0 1 1 0 1 0 1 0 1 0 1 0

>  <DIFUSE_FUNC_ATOM>  (233) 
n/a

>  <FINAL_SINGLE_POINT_ENERGY>  (233) 
0

>  <NONCOV_INTER_ENERGY_QM>  (233) 
0

>  <FF_Energy>  (233) 
-2.04

>  <QM_Energy>  (233) 
-9.23

>  <source>  (233) 
ETAM_MBZ

>  <Index>  (233) 
2238

$$$$
ETAM-pdb2dj6-A-LYS-107:MBZ-pdb2dj6-A-PHE-32
     RDKit          3D

 26 25  0  0  0  0  0  0  0  0999 V2000
    2.0001   -0.5276    3.4277 C   0  0  0  0  0  0  0  0  0  0  0  0
    2.3978    0.2950    3.0356 H   0  0  0  0  0  0  0  0  0  0  0  0
    1.6936   -1.1414    2.7075 H   0  0  0  0  0  0  0  0  0  0  0  0
    2.7590   -1.0348    4.0233 H   0  0  0  0  0  0  0  0  0  0  0  0
    0.8018   -0.1334    4.2729 C   0  0  0  0  0  0  0  0  0  0  0  0
    0.3246   -0.9644    4.5705 H   0  0  0  0  0  0  0  0  0  0  0  0
    1.1234    0.3635    5.0840 H   0  0  0  0  0  0  0  0  0  0  0  0
   -0.1495    0.7306    3.5190 N   0  0  0  0  0  4  0  0  0  0  0  0
    0.2660    1.0015    2.6518 H   0  0  0  0  0  0  0  0  0  0  0  0
   -0.9917    0.2213    3.3435 H   0  0  0  0  0  0  0  0  0  0  0  0
   -0.3567    1.5445    4.0604 H   0  0  0  0  0  0  0  0  0  0  0  0
   -0.0028    2.8999   -0.0460 C   0  0  0  0  0  0  0  0  0  0  0  0
    0.8992    3.2161    0.2018 H   0  0  0  0  0  0  0  0  0  0  0  0
   -0.6874    3.2245    0.5865 H   0  0  0  0  0  0  0  0  0  0  0  0
   -0.2396    3.3025   -1.0309 H   0  0  0  0  0  0  0  0  0  0  0  0
   -0.0008    1.4009   -0.0013 C   0  0  0  0  0  0  0  0  0  0  0  0
   -1.1965    0.6951   -0.0000 C   0  0  0  0  0  0  0  0  0  0  0  0
   -2.0637    1.1845   -0.0002 H   0  0  0  0  0  0  0  0  0  0  0  0
   -1.2018   -0.6981   -0.0000 C   0  0  0  0  0  0  0  0  0  0  0  0
   -2.0773   -1.1909    0.0013 H   0  0  0  0  0  0  0  0  0  0  0  0
    0.0012   -1.3944   -0.0001 C   0  0  0  0  0  0  0  0  0  0  0  0
   -0.0023   -2.3929   -0.0009 H   0  0  0  0  0  0  0  0  0  0  0  0
    1.2018   -0.6962    0.0000 C   0  0  0  0  0  0  0  0  0  0  0  0
    2.0840   -1.1940    0.0005 H   0  0  0  0  0  0  0  0  0  0  0  0
    1.1961    0.6926    0.0014 C   0  0  0  0  0  0  0  0  0  0  0  0
    2.0635    1.1904    0.0034 H   0  0  0  0  0  0  0  0  0  0  0  0
  1  5  1  0
  5  8  1  0
  1  2  1  0
  1  3  1  0
  1  4  1  0
  5  6  1  0
  5  7  1  0
  8  9  1  0
  8 10  1  0
  8 11  1  0
 12 16  1  0
 16 17  2  0
 17 19  1  0
 19 21  2  0
 21 23  1  0
 23 25  2  0
 25 16  1  0
 12 13  1  0
 12 14  1  0
 12 15  1  0
 17 18  1  0
 19 20  1  0
 21 22  1  0
 23 24  1  0
 25 26  1  0
M  CHG  1   8   1
M  END
>  <PDB_ID>  (234) 
pdb2dj6

>  <RESIDUE_NAME>  (234) 
LYS   PHE

>  <FRAG_NAME>  (234) 
ETAM   MBZ

>  <FRAG_ATOM_NUM>  (234) 
fragi: 11  fragj: 15

>  <atom.prop.CHAIN_ID>  (234) 
A A A A A A A A A A A Z Z Z Z Z Z Z Z Z Z Z Z Z Z Z

>  <atom.prop.IS_HEAVY_ATOM>  (234) 
1 0 0 0 1 0 0 1 0 0 0 1 0 0 0 1 1 0 1 0 1 0 1 0 1 0

>  <DIFUSE_FUNC_ATOM>  (234) 
n/a

>  <FINAL_SINGLE_POINT_ENERGY>  (234) 
0

>  <NONCOV_INTER_ENERGY_QM>  (234) 
0

>  <FF_Energy>  (234) 
-8.35

>  <QM_Energy>  (234) 
-13.78

>  <source>  (234) 
ETAM_MBZ

>  <Index>  (234) 
2239

$$$$
ETAM-pdb2dka-B-LYS-198:MBZ-pdb2dka-B-PHE-187
     RDKit          3D

 26 25  0  0  0  0  0  0  0  0999 V2000
    1.6275   -0.6550    4.9874 C   0  0  0  0  0  0  0  0  0  0  0  0
    1.9193    0.2727    4.8040 H   0  0  0  0  0  0  0  0  0  0  0  0
    2.1577   -1.3070    4.4654 H   0  0  0  0  0  0  0  0  0  0  0  0
    1.7493   -0.8636    6.0504 H   0  0  0  0  0  0  0  0  0  0  0  0
    0.1617   -0.7905    4.5856 C   0  0  0  0  0  0  0  0  0  0  0  0
   -0.1501   -1.7183    4.8183 H   0  0  0  0  0  0  0  0  0  0  0  0
   -0.3787   -0.1290    5.1164 H   0  0  0  0  0  0  0  0  0  0  0  0
   -0.0471   -0.5486    3.1405 N   0  0  0  0  0  4  0  0  0  0  0  0
    0.0568   -1.4083    2.6377 H   0  0  0  0  0  0  0  0  0  0  0  0
   -0.9677   -0.1851    2.9906 H   0  0  0  0  0  0  0  0  0  0  0  0
    0.6283    0.1126    2.8093 H   0  0  0  0  0  0  0  0  0  0  0  0
   -0.0034    2.9137    0.0156 C   0  0  0  0  0  0  0  0  0  0  0  0
   -0.6492    3.2247   -0.6642 H   0  0  0  0  0  0  0  0  0  0  0  0
    0.9127    3.2231   -0.1874 H   0  0  0  0  0  0  0  0  0  0  0  0
   -0.2950    3.3462    0.9726 H   0  0  0  0  0  0  0  0  0  0  0  0
   -0.0002    1.4057    0.0004 C   0  0  0  0  0  0  0  0  0  0  0  0
   -1.1988    0.6924    0.0007 C   0  0  0  0  0  0  0  0  0  0  0  0
   -2.0656    1.1834    0.0005 H   0  0  0  0  0  0  0  0  0  0  0  0
   -1.2062   -0.7006    0.0000 C   0  0  0  0  0  0  0  0  0  0  0  0
   -2.0797   -1.1939    0.0012 H   0  0  0  0  0  0  0  0  0  0  0  0
    0.0004   -1.3985   -0.0005 C   0  0  0  0  0  0  0  0  0  0  0  0
   -0.0021   -2.3954   -0.0012 H   0  0  0  0  0  0  0  0  0  0  0  0
    1.2062   -0.6984   -0.0000 C   0  0  0  0  0  0  0  0  0  0  0  0
    2.0854   -1.1930    0.0022 H   0  0  0  0  0  0  0  0  0  0  0  0
    1.1986    0.6994   -0.0006 C   0  0  0  0  0  0  0  0  0  0  0  0
    2.0656    1.1945   -0.0025 H   0  0  0  0  0  0  0  0  0  0  0  0
  1  5  1  0
  5  8  1  0
  1  2  1  0
  1  3  1  0
  1  4  1  0
  5  6  1  0
  5  7  1  0
  8  9  1  0
  8 10  1  0
  8 11  1  0
 12 16  1  0
 16 17  2  0
 17 19  1  0
 19 21  2  0
 21 23  1  0
 23 25  2  0
 25 16  1  0
 12 13  1  0
 12 14  1  0
 12 15  1  0
 17 18  1  0
 19 20  1  0
 21 22  1  0
 23 24  1  0
 25 26  1  0
M  CHG  1   8   1
M  END
>  <PDB_ID>  (235) 
pdb2dka

>  <RESIDUE_NAME>  (235) 
LYS   PHE

>  <FRAG_NAME>  (235) 
ETAM   MBZ

>  <FRAG_ATOM_NUM>  (235) 
fragi: 11  fragj: 15

>  <atom.prop.CHAIN_ID>  (235) 
A A A A A A A A A A A Z Z Z Z Z Z Z Z Z Z Z Z Z Z Z

>  <atom.prop.IS_HEAVY_ATOM>  (235) 
1 0 0 0 1 0 0 1 0 0 0 1 0 0 0 1 1 0 1 0 1 0 1 0 1 0

>  <DIFUSE_FUNC_ATOM>  (235) 
n/a

>  <FINAL_SINGLE_POINT_ENERGY>  (235) 
0

>  <NONCOV_INTER_ENERGY_QM>  (235) 
0

>  <FF_Energy>  (235) 
-8.21

>  <QM_Energy>  (235) 
-15.66

>  <source>  (235) 
ETAM_MBZ

>  <Index>  (235) 
2253

$$$$
ETAM-pdb2dlc-X-LYS-68:MBZ-pdb2dlc-X-PHE-281
     RDKit          3D

 26 25  0  0  0  0  0  0  0  0999 V2000
   -0.1756   -4.0745   -4.1622 C   0  0  0  0  0  0  0  0  0  0  0  0
    0.1206   -4.5090   -5.0063 H   0  0  0  0  0  0  0  0  0  0  0  0
   -1.0491   -3.6187   -4.2939 H   0  0  0  0  0  0  0  0  0  0  0  0
   -0.2862   -4.8371   -3.3913 H   0  0  0  0  0  0  0  0  0  0  0  0
    0.8588   -3.0341   -3.7641 C   0  0  0  0  0  0  0  0  0  0  0  0
    1.2372   -3.2744   -2.8700 H   0  0  0  0  0  0  0  0  0  0  0  0
    1.5925   -3.0257   -4.4436 H   0  0  0  0  0  0  0  0  0  0  0  0
    0.2498   -1.6720   -3.6863 N   0  0  0  0  0  4  0  0  0  0  0  0
   -0.4960   -1.6831   -3.0218 H   0  0  0  0  0  0  0  0  0  0  0  0
    0.9462   -1.0162   -3.4000 H   0  0  0  0  0  0  0  0  0  0  0  0
   -0.1027   -1.4178   -4.5851 H   0  0  0  0  0  0  0  0  0  0  0  0
   -0.0095    2.9310    0.0046 C   0  0  0  0  0  0  0  0  0  0  0  0
   -0.0519    3.2364   -0.9304 H   0  0  0  0  0  0  0  0  0  0  0  0
    0.8093    3.2362    0.4574 H   0  0  0  0  0  0  0  0  0  0  0  0
   -0.8616    3.3574    0.5340 H   0  0  0  0  0  0  0  0  0  0  0  0
   -0.0012    1.4144   -0.0003 C   0  0  0  0  0  0  0  0  0  0  0  0
   -1.2047    0.6937   -0.0001 C   0  0  0  0  0  0  0  0  0  0  0  0
   -2.0708    1.1806   -0.0012 H   0  0  0  0  0  0  0  0  0  0  0  0
   -1.2107   -0.7113   -0.0000 C   0  0  0  0  0  0  0  0  0  0  0  0
   -2.0804   -1.2028    0.0015 H   0  0  0  0  0  0  0  0  0  0  0  0
    0.0050   -1.4069    0.0004 C   0  0  0  0  0  0  0  0  0  0  0  0
    0.0062   -2.4016    0.0008 H   0  0  0  0  0  0  0  0  0  0  0  0
    1.2107   -0.6977   -0.0000 C   0  0  0  0  0  0  0  0  0  0  0  0
    2.0928   -1.1874    0.0014 H   0  0  0  0  0  0  0  0  0  0  0  0
    1.2010    0.7077    0.0000 C   0  0  0  0  0  0  0  0  0  0  0  0
    2.0676    1.2016   -0.0002 H   0  0  0  0  0  0  0  0  0  0  0  0
  1  5  1  0
  5  8  1  0
  1  2  1  0
  1  3  1  0
  1  4  1  0
  5  6  1  0
  5  7  1  0
  8  9  1  0
  8 10  1  0
  8 11  1  0
 12 16  1  0
 16 17  2  0
 17 19  1  0
 19 21  2  0
 21 23  1  0
 23 25  2  0
 25 16  1  0
 12 13  1  0
 12 14  1  0
 12 15  1  0
 17 18  1  0
 19 20  1  0
 21 22  1  0
 23 24  1  0
 25 26  1  0
M  CHG  1   8   1
M  END
>  <PDB_ID>  (236) 
pdb2dlc

>  <RESIDUE_NAME>  (236) 
LYS   PHE

>  <FRAG_NAME>  (236) 
ETAM   MBZ

>  <FRAG_ATOM_NUM>  (236) 
fragi: 11  fragj: 15

>  <atom.prop.CHAIN_ID>  (236) 
A A A A A A A A A A A Z Z Z Z Z Z Z Z Z Z Z Z Z Z Z

>  <atom.prop.IS_HEAVY_ATOM>  (236) 
1 0 0 0 1 0 0 1 0 0 0 1 0 0 0 1 1 0 1 0 1 0 1 0 1 0

>  <DIFUSE_FUNC_ATOM>  (236) 
n/a

>  <FINAL_SINGLE_POINT_ENERGY>  (236) 
0

>  <NONCOV_INTER_ENERGY_QM>  (236) 
0

>  <FF_Energy>  (236) 
-4.97

>  <QM_Energy>  (236) 
-10.46

>  <source>  (236) 
ETAM_MBZ

>  <Index>  (236) 
2258

$$$$
ETAM-pdb1czp-A-LYS-15:MBZ-pdb1czp-B-PHE-65
     RDKit          3D

 26 25  0  0  0  0  0  0  0  0999 V2000
   -0.2159    0.4101    5.7461 C   0  0  0  0  0  0  0  0  0  0  0  0
    0.6096    0.7256    5.2738 H   0  0  0  0  0  0  0  0  0  0  0  0
   -0.1332   -0.5700    5.9354 H   0  0  0  0  0  0  0  0  0  0  0  0
   -0.3069    0.9452    6.6913 H   0  0  0  0  0  0  0  0  0  0  0  0
   -1.4090    0.6187    4.8162 C   0  0  0  0  0  0  0  0  0  0  0  0
   -2.2150    0.1856    5.2300 H   0  0  0  0  0  0  0  0  0  0  0  0
   -1.5787    1.6043    4.7315 H   0  0  0  0  0  0  0  0  0  0  0  0
   -1.1653    0.0411    3.4821 N   0  0  0  0  0  4  0  0  0  0  0  0
   -0.5982    0.6658    2.9410 H   0  0  0  0  0  0  0  0  0  0  0  0
   -0.6919   -0.8369    3.5744 H   0  0  0  0  0  0  0  0  0  0  0  0
   -2.0379   -0.1035    3.0117 H   0  0  0  0  0  0  0  0  0  0  0  0
   -0.1783    2.9090    0.0885 C   0  0  0  0  0  0  0  0  0  0  0  0
   -1.0020    3.1484   -0.3799 H   0  0  0  0  0  0  0  0  0  0  0  0
    0.6219    3.3061   -0.3054 H   0  0  0  0  0  0  0  0  0  0  0  0
   -0.2609    3.2802    1.1100 H   0  0  0  0  0  0  0  0  0  0  0  0
   -0.0287    1.3928    0.0379 C   0  0  0  0  0  0  0  0  0  0  0  0
   -1.2043    0.6381    0.0240 C   0  0  0  0  0  0  0  0  0  0  0  0
   -2.0888    1.1217    0.0313 H   0  0  0  0  0  0  0  0  0  0  0  0
   -1.1996   -0.7437   -0.0000 C   0  0  0  0  0  0  0  0  0  0  0  0
   -2.0463   -1.2575   -0.0023 H   0  0  0  0  0  0  0  0  0  0  0  0
    0.0359   -1.3818   -0.0187 C   0  0  0  0  0  0  0  0  0  0  0  0
    0.0667   -2.3866   -0.0468 H   0  0  0  0  0  0  0  0  0  0  0  0
    1.1996   -0.6504   -0.0000 C   0  0  0  0  0  0  0  0  0  0  0  0
    2.1062   -1.1322    0.0488 H   0  0  0  0  0  0  0  0  0  0  0  0
    1.1971    0.7449   -0.0431 C   0  0  0  0  0  0  0  0  0  0  0  0
    2.0328    1.2465   -0.1280 H   0  0  0  0  0  0  0  0  0  0  0  0
  1  5  1  0
  5  8  1  0
  1  2  1  0
  1  3  1  0
  1  4  1  0
  5  6  1  0
  5  7  1  0
  8  9  1  0
  8 10  1  0
  8 11  1  0
 12 16  1  0
 16 17  2  0
 17 19  1  0
 19 21  2  0
 21 23  1  0
 23 25  2  0
 25 16  1  0
 12 13  1  0
 12 14  1  0
 12 15  1  0
 17 18  1  0
 19 20  1  0
 21 22  1  0
 23 24  1  0
 25 26  1  0
M  CHG  1   8   1
M  END
>  <PDB_ID>  (237) 
pdb1czp

>  <RESIDUE_NAME>  (237) 
LYS   PHE

>  <FRAG_NAME>  (237) 
ETAM   MBZ

>  <FRAG_ATOM_NUM>  (237) 
fragi: 11  fragj: 15

>  <atom.prop.CHAIN_ID>  (237) 
A A A A A A A A A A A Z Z Z Z Z Z Z Z Z Z Z Z Z Z Z

>  <atom.prop.IS_HEAVY_ATOM>  (237) 
1 0 0 0 1 0 0 1 0 0 0 1 0 0 0 1 1 0 1 0 1 0 1 0 1 0

>  <DIFUSE_FUNC_ATOM>  (237) 
n/a

>  <FINAL_SINGLE_POINT_ENERGY>  (237) 
0

>  <NONCOV_INTER_ENERGY_QM>  (237) 
0

>  <FF_Energy>  (237) 
-6.52

>  <QM_Energy>  (237) 
-11.93

>  <source>  (237) 
ETAM_MBZ

>  <Index>  (237) 
2263

$$$$
ETAM-pdb2dht-B-LYS-170:MBZ-pdb2dht-A-PHE-174
     RDKit          3D

 26 25  0  0  0  0  0  0  0  0999 V2000
   -2.3431   -4.3611    1.6830 C   0  0  0  0  0  0  0  0  0  0  0  0
   -3.0983   -4.6602    2.2655 H   0  0  0  0  0  0  0  0  0  0  0  0
   -1.9487   -3.5202    2.0515 H   0  0  0  0  0  0  0  0  0  0  0  0
   -1.5756   -5.1352    1.6857 H   0  0  0  0  0  0  0  0  0  0  0  0
   -2.8947   -4.0668    0.2881 C   0  0  0  0  0  0  0  0  0  0  0  0
   -2.1291   -3.9187   -0.3390 H   0  0  0  0  0  0  0  0  0  0  0  0
   -3.4276   -4.8553   -0.0234 H   0  0  0  0  0  0  0  0  0  0  0  0
   -3.7725   -2.8506    0.2835 N   0  0  0  0  0  4  0  0  0  0  0  0
   -4.5063   -2.9754    0.9478 H   0  0  0  0  0  0  0  0  0  0  0  0
   -3.2252   -2.0535    0.5288 H   0  0  0  0  0  0  0  0  0  0  0  0
   -4.1582   -2.7306   -0.6290 H   0  0  0  0  0  0  0  0  0  0  0  0
    0.0052    2.8956   -0.0016 C   0  0  0  0  0  0  0  0  0  0  0  0
   -0.6389    3.2056   -0.6849 H   0  0  0  0  0  0  0  0  0  0  0  0
    0.9231    3.2006   -0.2106 H   0  0  0  0  0  0  0  0  0  0  0  0
   -0.2834    3.3357    0.9529 H   0  0  0  0  0  0  0  0  0  0  0  0
    0.0001    1.3997   -0.0003 C   0  0  0  0  0  0  0  0  0  0  0  0
   -1.1994    0.6961    0.0014 C   0  0  0  0  0  0  0  0  0  0  0  0
   -2.0639    1.1884    0.0018 H   0  0  0  0  0  0  0  0  0  0  0  0
   -1.2058   -0.6935    0.0000 C   0  0  0  0  0  0  0  0  0  0  0  0
   -2.0794   -1.1897    0.0004 H   0  0  0  0  0  0  0  0  0  0  0  0
    0.0022   -1.3951   -0.0008 C   0  0  0  0  0  0  0  0  0  0  0  0
   -0.0051   -2.3925   -0.0022 H   0  0  0  0  0  0  0  0  0  0  0  0
    1.2058   -0.6986   -0.0000 C   0  0  0  0  0  0  0  0  0  0  0  0
    2.0855   -1.1953    0.0021 H   0  0  0  0  0  0  0  0  0  0  0  0
    1.1971    0.6914   -0.0003 C   0  0  0  0  0  0  0  0  0  0  0  0
    2.0656    1.1907   -0.0012 H   0  0  0  0  0  0  0  0  0  0  0  0
  1  5  1  0
  5  8  1  0
  1  2  1  0
  1  3  1  0
  1  4  1  0
  5  6  1  0
  5  7  1  0
  8  9  1  0
  8 10  1  0
  8 11  1  0
 12 16  1  0
 16 17  2  0
 17 19  1  0
 19 21  2  0
 21 23  1  0
 23 25  2  0
 25 16  1  0
 12 13  1  0
 12 14  1  0
 12 15  1  0
 17 18  1  0
 19 20  1  0
 21 22  1  0
 23 24  1  0
 25 26  1  0
M  CHG  1   8   1
M  END
>  <PDB_ID>  (238) 
pdb2dht

>  <RESIDUE_NAME>  (238) 
LYS   PHE

>  <FRAG_NAME>  (238) 
ETAM   MBZ

>  <FRAG_ATOM_NUM>  (238) 
fragi: 11  fragj: 15

>  <atom.prop.CHAIN_ID>  (238) 
A A A A A A A A A A A Z Z Z Z Z Z Z Z Z Z Z Z Z Z Z

>  <atom.prop.IS_HEAVY_ATOM>  (238) 
1 0 0 0 1 0 0 1 0 0 0 1 0 0 0 1 1 0 1 0 1 0 1 0 1 0

>  <DIFUSE_FUNC_ATOM>  (238) 
n/a

>  <FINAL_SINGLE_POINT_ENERGY>  (238) 
0

>  <NONCOV_INTER_ENERGY_QM>  (238) 
0

>  <FF_Energy>  (238) 
3.49

>  <QM_Energy>  (238) 
-2.31

>  <source>  (238) 
ETAM_MBZ

>  <Index>  (238) 
2271

$$$$
ETAM-pdb1d01-F-LYS-357:MBZ-pdb1d01-F-PHE-491
     RDKit          3D

 26 25  0  0  0  0  0  0  0  0999 V2000
    2.1154   -2.8857    3.5064 C   0  0  0  0  0  0  0  0  0  0  0  0
    3.1070   -2.9454    3.3527 H   0  0  0  0  0  0  0  0  0  0  0  0
    1.9038   -3.2942    4.4008 H   0  0  0  0  0  0  0  0  0  0  0  0
    1.8350   -1.8327    3.5332 H   0  0  0  0  0  0  0  0  0  0  0  0
    1.4099   -3.6845    2.4305 C   0  0  0  0  0  0  0  0  0  0  0  0
    1.5621   -3.2237    1.5333 H   0  0  0  0  0  0  0  0  0  0  0  0
    1.8563   -4.5992    2.3609 H   0  0  0  0  0  0  0  0  0  0  0  0
   -0.0409   -3.8737    2.6330 N   0  0  0  0  0  4  0  0  0  0  0  0
   -0.2331   -3.9888    3.6088 H   0  0  0  0  0  0  0  0  0  0  0  0
   -0.5363   -3.0734    2.2913 H   0  0  0  0  0  0  0  0  0  0  0  0
   -0.3472   -4.6881    2.1374 H   0  0  0  0  0  0  0  0  0  0  0  0
    0.0128    2.9081   -0.0406 C   0  0  0  0  0  0  0  0  0  0  0  0
   -0.7529    3.2063   -0.5941 H   0  0  0  0  0  0  0  0  0  0  0  0
    0.8734    3.1979   -0.4367 H   0  0  0  0  0  0  0  0  0  0  0  0
   -0.0791    3.3828    0.9362 H   0  0  0  0  0  0  0  0  0  0  0  0
    0.0014    1.4049   -0.0019 C   0  0  0  0  0  0  0  0  0  0  0  0
   -1.1984    0.6992    0.0029 C   0  0  0  0  0  0  0  0  0  0  0  0
   -2.0636    1.1854    0.0072 H   0  0  0  0  0  0  0  0  0  0  0  0
   -1.2036   -0.7015   -0.0000 C   0  0  0  0  0  0  0  0  0  0  0  0
   -2.0801   -1.1904    0.0011 H   0  0  0  0  0  0  0  0  0  0  0  0
   -0.0010   -1.3963   -0.0016 C   0  0  0  0  0  0  0  0  0  0  0  0
   -0.0029   -2.3947   -0.0048 H   0  0  0  0  0  0  0  0  0  0  0  0
    1.2036   -0.6985   -0.0000 C   0  0  0  0  0  0  0  0  0  0  0  0
    2.0826   -1.1974    0.0026 H   0  0  0  0  0  0  0  0  0  0  0  0
    1.1980    0.6921    0.0007 C   0  0  0  0  0  0  0  0  0  0  0  0
    2.0671    1.1897    0.0023 H   0  0  0  0  0  0  0  0  0  0  0  0
  1  5  1  0
  5  8  1  0
  1  2  1  0
  1  3  1  0
  1  4  1  0
  5  6  1  0
  5  7  1  0
  8  9  1  0
  8 10  1  0
  8 11  1  0
 12 16  1  0
 16 17  2  0
 17 19  1  0
 19 21  2  0
 21 23  1  0
 23 25  2  0
 25 16  1  0
 12 13  1  0
 12 14  1  0
 12 15  1  0
 17 18  1  0
 19 20  1  0
 21 22  1  0
 23 24  1  0
 25 26  1  0
M  CHG  1   8   1
M  END
>  <PDB_ID>  (239) 
pdb1d01

>  <RESIDUE_NAME>  (239) 
LYS   PHE

>  <FRAG_NAME>  (239) 
ETAM   MBZ

>  <FRAG_ATOM_NUM>  (239) 
fragi: 11  fragj: 15

>  <atom.prop.CHAIN_ID>  (239) 
A A A A A A A A A A A Z Z Z Z Z Z Z Z Z Z Z Z Z Z Z

>  <atom.prop.IS_HEAVY_ATOM>  (239) 
1 0 0 0 1 0 0 1 0 0 0 1 0 0 0 1 1 0 1 0 1 0 1 0 1 0

>  <DIFUSE_FUNC_ATOM>  (239) 
n/a

>  <FINAL_SINGLE_POINT_ENERGY>  (239) 
0

>  <NONCOV_INTER_ENERGY_QM>  (239) 
0

>  <FF_Energy>  (239) 
-1.5

>  <QM_Energy>  (239) 
-7.4

>  <source>  (239) 
ETAM_MBZ

>  <Index>  (239) 
2277

$$$$
ETAM-pdb1d09-A-LYS-31:MBZ-pdb1d09-A-PHE-294
     RDKit          3D

 26 25  0  0  0  0  0  0  0  0999 V2000
    1.1212   -0.5542    3.3585 C   0  0  0  0  0  0  0  0  0  0  0  0
    1.1926    0.0831    2.6033 H   0  0  0  0  0  0  0  0  0  0  0  0
    1.2956   -0.1027    4.2225 H   0  0  0  0  0  0  0  0  0  0  0  0
    0.0983   -0.9302    3.3799 H   0  0  0  0  0  0  0  0  0  0  0  0
    2.0757   -1.6769    3.1689 C   0  0  0  0  0  0  0  0  0  0  0  0
    2.0766   -2.2650    3.9848 H   0  0  0  0  0  0  0  0  0  0  0  0
    1.7985   -2.2300    2.3762 H   0  0  0  0  0  0  0  0  0  0  0  0
    3.4576   -1.1776    2.9412 N   0  0  0  0  0  4  0  0  0  0  0  0
    3.4207   -0.3208    2.4266 H   0  0  0  0  0  0  0  0  0  0  0  0
    3.9032   -1.0194    3.8222 H   0  0  0  0  0  0  0  0  0  0  0  0
    3.9754   -1.8576    2.4216 H   0  0  0  0  0  0  0  0  0  0  0  0
   -0.0229    2.8991    0.1304 C   0  0  0  0  0  0  0  0  0  0  0  0
    0.9203    3.2155    0.1516 H   0  0  0  0  0  0  0  0  0  0  0  0
   -0.4792    3.1191    0.9881 H   0  0  0  0  0  0  0  0  0  0  0  0
   -0.5429    3.4097   -0.6802 H   0  0  0  0  0  0  0  0  0  0  0  0
   -0.0067    1.4322   -0.0130 C   0  0  0  0  0  0  0  0  0  0  0  0
   -1.1951    0.7216    0.0065 C   0  0  0  0  0  0  0  0  0  0  0  0
   -2.0699    1.1881    0.0242 H   0  0  0  0  0  0  0  0  0  0  0  0
   -1.1989   -0.7115    0.0000 C   0  0  0  0  0  0  0  0  0  0  0  0
   -2.0866   -1.1820   -0.0166 H   0  0  0  0  0  0  0  0  0  0  0  0
   -0.0072   -1.4231    0.0174 C   0  0  0  0  0  0  0  0  0  0  0  0
   -0.0195   -2.4177    0.0415 H   0  0  0  0  0  0  0  0  0  0  0  0
    1.1989   -0.7334   -0.0000 C   0  0  0  0  0  0  0  0  0  0  0  0
    2.0824   -1.2121   -0.0038 H   0  0  0  0  0  0  0  0  0  0  0  0
    1.2090    0.7141   -0.0108 C   0  0  0  0  0  0  0  0  0  0  0  0
    2.0725    1.1840   -0.0175 H   0  0  0  0  0  0  0  0  0  0  0  0
  1  5  1  0
  5  8  1  0
  1  2  1  0
  1  3  1  0
  1  4  1  0
  5  6  1  0
  5  7  1  0
  8  9  1  0
  8 10  1  0
  8 11  1  0
 12 16  1  0
 16 17  2  0
 17 19  1  0
 19 21  2  0
 21 23  1  0
 23 25  2  0
 25 16  1  0
 12 13  1  0
 12 14  1  0
 12 15  1  0
 17 18  1  0
 19 20  1  0
 21 22  1  0
 23 24  1  0
 25 26  1  0
M  CHG  1   8   1
M  END
>  <PDB_ID>  (240) 
pdb1d09

>  <RESIDUE_NAME>  (240) 
LYS   PHE

>  <FRAG_NAME>  (240) 
ETAM   MBZ

>  <FRAG_ATOM_NUM>  (240) 
fragi: 11  fragj: 15

>  <atom.prop.CHAIN_ID>  (240) 
A A A A A A A A A A A Z Z Z Z Z Z Z Z Z Z Z Z Z Z Z

>  <atom.prop.IS_HEAVY_ATOM>  (240) 
1 0 0 0 1 0 0 1 0 0 0 1 0 0 0 1 1 0 1 0 1 0 1 0 1 0

>  <DIFUSE_FUNC_ATOM>  (240) 
n/a

>  <FINAL_SINGLE_POINT_ENERGY>  (240) 
0

>  <NONCOV_INTER_ENERGY_QM>  (240) 
0

>  <FF_Energy>  (240) 
-2.32

>  <QM_Energy>  (240) 
-7.8

>  <source>  (240) 
ETAM_MBZ

>  <Index>  (240) 
2299

$$$$
ETAM-pdb2dpl-B-LYS-181:MBZ-pdb2dpl-B-PHE-65
     RDKit          3D

 26 25  0  0  0  0  0  0  0  0999 V2000
   -0.1917   -0.9672   -3.4479 C   0  0  0  0  0  0  0  0  0  0  0  0
   -1.0737   -1.2329   -3.8229 H   0  0  0  0  0  0  0  0  0  0  0  0
   -0.2475   -0.8748   -2.4600 H   0  0  0  0  0  0  0  0  0  0  0  0
    0.5396   -1.7385   -3.6893 H   0  0  0  0  0  0  0  0  0  0  0  0
    0.2036    0.3761   -4.0404 C   0  0  0  0  0  0  0  0  0  0  0  0
    1.0932    0.6494   -3.6644 H   0  0  0  0  0  0  0  0  0  0  0  0
    0.2899    0.2809   -5.0363 H   0  0  0  0  0  0  0  0  0  0  0  0
   -0.7997    1.4386   -3.7381 N   0  0  0  0  0  4  0  0  0  0  0  0
   -0.3501    2.3301   -3.7551 H   0  0  0  0  0  0  0  0  0  0  0  0
   -1.5239    1.4141   -4.4261 H   0  0  0  0  0  0  0  0  0  0  0  0
   -1.1899    1.2752   -2.8330 H   0  0  0  0  0  0  0  0  0  0  0  0
    0.0005    2.9055    0.0252 C   0  0  0  0  0  0  0  0  0  0  0  0
   -0.5836    3.2238   -0.7051 H   0  0  0  0  0  0  0  0  0  0  0  0
    0.9317    3.2141   -0.0963 H   0  0  0  0  0  0  0  0  0  0  0  0
   -0.3714    3.3280    0.9586 H   0  0  0  0  0  0  0  0  0  0  0  0
    0.0000    1.4032    0.0001 C   0  0  0  0  0  0  0  0  0  0  0  0
   -1.1971    0.6948    0.0005 C   0  0  0  0  0  0  0  0  0  0  0  0
   -2.0637    1.1857    0.0000 H   0  0  0  0  0  0  0  0  0  0  0  0
   -1.2030   -0.6964   -0.0000 C   0  0  0  0  0  0  0  0  0  0  0  0
   -2.0793   -1.1901    0.0007 H   0  0  0  0  0  0  0  0  0  0  0  0
   -0.0001   -1.3961    0.0004 C   0  0  0  0  0  0  0  0  0  0  0  0
   -0.0058   -2.3937    0.0003 H   0  0  0  0  0  0  0  0  0  0  0  0
    1.2030   -0.7003    0.0000 C   0  0  0  0  0  0  0  0  0  0  0  0
    2.0834   -1.1962    0.0014 H   0  0  0  0  0  0  0  0  0  0  0  0
    1.1972    0.6948   -0.0010 C   0  0  0  0  0  0  0  0  0  0  0  0
    2.0655    1.1899   -0.0031 H   0  0  0  0  0  0  0  0  0  0  0  0
  1  5  1  0
  5  8  1  0
  1  2  1  0
  1  3  1  0
  1  4  1  0
  5  6  1  0
  5  7  1  0
  8  9  1  0
  8 10  1  0
  8 11  1  0
 12 16  1  0
 16 17  2  0
 17 19  1  0
 19 21  2  0
 21 23  1  0
 23 25  2  0
 25 16  1  0
 12 13  1  0
 12 14  1  0
 12 15  1  0
 17 18  1  0
 19 20  1  0
 21 22  1  0
 23 24  1  0
 25 26  1  0
M  CHG  1   8   1
M  END
>  <PDB_ID>  (241) 
pdb2dpl

>  <RESIDUE_NAME>  (241) 
LYS   PHE

>  <FRAG_NAME>  (241) 
ETAM   MBZ

>  <FRAG_ATOM_NUM>  (241) 
fragi: 11  fragj: 15

>  <atom.prop.CHAIN_ID>  (241) 
A A A A A A A A A A A Z Z Z Z Z Z Z Z Z Z Z Z Z Z Z

>  <atom.prop.IS_HEAVY_ATOM>  (241) 
1 0 0 0 1 0 0 1 0 0 0 1 0 0 0 1 1 0 1 0 1 0 1 0 1 0

>  <DIFUSE_FUNC_ATOM>  (241) 
n/a

>  <FINAL_SINGLE_POINT_ENERGY>  (241) 
0

>  <NONCOV_INTER_ENERGY_QM>  (241) 
0

>  <FF_Energy>  (241) 
-5.73

>  <QM_Energy>  (241) 
-10.98

>  <source>  (241) 
ETAM_MBZ

>  <Index>  (241) 
2323

$$$$
ETAM-pdb1d2e-A-LYS-79:MBZ-pdb1d2e-A-PHE-89
     RDKit          3D

 26 25  0  0  0  0  0  0  0  0999 V2000
   -1.3842   -0.9059   -3.7760 C   0  0  0  0  0  0  0  0  0  0  0  0
   -1.3963   -1.6527   -3.1089 H   0  0  0  0  0  0  0  0  0  0  0  0
   -1.1254   -1.2686   -4.6729 H   0  0  0  0  0  0  0  0  0  0  0  0
   -2.3875   -0.4856   -3.8461 H   0  0  0  0  0  0  0  0  0  0  0  0
   -0.3381    0.1107   -3.3455 C   0  0  0  0  0  0  0  0  0  0  0  0
   -0.3775    0.8989   -3.9564 H   0  0  0  0  0  0  0  0  0  0  0  0
   -0.5287    0.3994   -2.4094 H   0  0  0  0  0  0  0  0  0  0  0  0
    1.0337   -0.4850   -3.4034 N   0  0  0  0  0  4  0  0  0  0  0  0
    0.9723   -1.4144   -3.7618 H   0  0  0  0  0  0  0  0  0  0  0  0
    1.6075    0.0713   -4.0025 H   0  0  0  0  0  0  0  0  0  0  0  0
    1.4219   -0.5023   -2.4837 H   0  0  0  0  0  0  0  0  0  0  0  0
   -0.0025    2.9153    0.0025 C   0  0  0  0  0  0  0  0  0  0  0  0
   -0.4124    3.2199   -0.8430 H   0  0  0  0  0  0  0  0  0  0  0  0
    0.9336    3.2202    0.0815 H   0  0  0  0  0  0  0  0  0  0  0  0
   -0.5676    3.3521    0.8259 H   0  0  0  0  0  0  0  0  0  0  0  0
   -0.0021    1.4087    0.0010 C   0  0  0  0  0  0  0  0  0  0  0  0
   -1.1975    0.6974   -0.0001 C   0  0  0  0  0  0  0  0  0  0  0  0
   -2.0661    1.1842   -0.0017 H   0  0  0  0  0  0  0  0  0  0  0  0
   -1.2056   -0.7020   -0.0000 C   0  0  0  0  0  0  0  0  0  0  0  0
   -2.0805   -1.1916    0.0016 H   0  0  0  0  0  0  0  0  0  0  0  0
    0.0010   -1.4026   -0.0008 C   0  0  0  0  0  0  0  0  0  0  0  0
   -0.0027   -2.3977   -0.0023 H   0  0  0  0  0  0  0  0  0  0  0  0
    1.2056   -0.7006    0.0000 C   0  0  0  0  0  0  0  0  0  0  0  0
    2.0865   -1.1939    0.0017 H   0  0  0  0  0  0  0  0  0  0  0  0
    1.1985    0.6991   -0.0000 C   0  0  0  0  0  0  0  0  0  0  0  0
    2.0654    1.1937   -0.0022 H   0  0  0  0  0  0  0  0  0  0  0  0
  1  5  1  0
  5  8  1  0
  1  2  1  0
  1  3  1  0
  1  4  1  0
  5  6  1  0
  5  7  1  0
  8  9  1  0
  8 10  1  0
  8 11  1  0
 12 16  1  0
 16 17  2  0
 17 19  1  0
 19 21  2  0
 21 23  1  0
 23 25  2  0
 25 16  1  0
 12 13  1  0
 12 14  1  0
 12 15  1  0
 17 18  1  0
 19 20  1  0
 21 22  1  0
 23 24  1  0
 25 26  1  0
M  CHG  1   8   1
M  END
>  <PDB_ID>  (242) 
pdb1d2e

>  <RESIDUE_NAME>  (242) 
LYS   PHE

>  <FRAG_NAME>  (242) 
ETAM   MBZ

>  <FRAG_ATOM_NUM>  (242) 
fragi: 11  fragj: 15

>  <atom.prop.CHAIN_ID>  (242) 
A A A A A A A A A A A Z Z Z Z Z Z Z Z Z Z Z Z Z Z Z

>  <atom.prop.IS_HEAVY_ATOM>  (242) 
1 0 0 0 1 0 0 1 0 0 0 1 0 0 0 1 1 0 1 0 1 0 1 0 1 0

>  <DIFUSE_FUNC_ATOM>  (242) 
n/a

>  <FINAL_SINGLE_POINT_ENERGY>  (242) 
0

>  <NONCOV_INTER_ENERGY_QM>  (242) 
0

>  <FF_Energy>  (242) 
-6.68

>  <QM_Energy>  (242) 
-15.4

>  <source>  (242) 
ETAM_MBZ

>  <Index>  (242) 
2338

$$$$
ETAM-pdb1d3y-B-LYS-263:MBZ-pdb1d3y-B-PHE-322
     RDKit          3D

 26 25  0  0  0  0  0  0  0  0999 V2000
   -2.3095   -2.5922   -4.5025 C   0  0  0  0  0  0  0  0  0  0  0  0
   -1.9130   -2.0786   -5.2412 H   0  0  0  0  0  0  0  0  0  0  0  0
   -3.0272   -2.0993   -4.0472 H   0  0  0  0  0  0  0  0  0  0  0  0
   -2.7104   -3.5273   -4.8937 H   0  0  0  0  0  0  0  0  0  0  0  0
   -1.2135   -2.9094   -3.4849 C   0  0  0  0  0  0  0  0  0  0  0  0
   -1.6288   -3.3655   -2.6992 H   0  0  0  0  0  0  0  0  0  0  0  0
   -0.5468   -3.5188   -3.9117 H   0  0  0  0  0  0  0  0  0  0  0  0
   -0.5339   -1.6687   -3.0349 N   0  0  0  0  0  4  0  0  0  0  0  0
    0.3724   -1.8955   -2.6776 H   0  0  0  0  0  0  0  0  0  0  0  0
   -0.4395   -1.0413   -3.8076 H   0  0  0  0  0  0  0  0  0  0  0  0
   -1.0763   -1.2329   -2.3164 H   0  0  0  0  0  0  0  0  0  0  0  0
   -0.0091    2.8993    0.0032 C   0  0  0  0  0  0  0  0  0  0  0  0
   -0.8596    3.2051   -0.4004 H   0  0  0  0  0  0  0  0  0  0  0  0
    0.7686    3.2140   -0.5224 H   0  0  0  0  0  0  0  0  0  0  0  0
    0.0630    3.3442    0.9956 H   0  0  0  0  0  0  0  0  0  0  0  0
   -0.0014    1.3967   -0.0029 C   0  0  0  0  0  0  0  0  0  0  0  0
   -1.1901    0.6887   -0.0010 C   0  0  0  0  0  0  0  0  0  0  0  0
   -2.0604    1.1782   -0.0013 H   0  0  0  0  0  0  0  0  0  0  0  0
   -1.1934   -0.6964   -0.0000 C   0  0  0  0  0  0  0  0  0  0  0  0
   -2.0727   -1.1899    0.0009 H   0  0  0  0  0  0  0  0  0  0  0  0
   -0.0003   -1.3869    0.0015 C   0  0  0  0  0  0  0  0  0  0  0  0
   -0.0022   -2.3885    0.0034 H   0  0  0  0  0  0  0  0  0  0  0  0
    1.1934   -0.6928   -0.0000 C   0  0  0  0  0  0  0  0  0  0  0  0
    2.0775   -1.1928   -0.0018 H   0  0  0  0  0  0  0  0  0  0  0  0
    1.1919    0.6907    0.0024 C   0  0  0  0  0  0  0  0  0  0  0  0
    2.0605    1.1875    0.0070 H   0  0  0  0  0  0  0  0  0  0  0  0
  1  5  1  0
  5  8  1  0
  1  2  1  0
  1  3  1  0
  1  4  1  0
  5  6  1  0
  5  7  1  0
  8  9  1  0
  8 10  1  0
  8 11  1  0
 12 16  1  0
 16 17  2  0
 17 19  1  0
 19 21  2  0
 21 23  1  0
 23 25  2  0
 25 16  1  0
 12 13  1  0
 12 14  1  0
 12 15  1  0
 17 18  1  0
 19 20  1  0
 21 22  1  0
 23 24  1  0
 25 26  1  0
M  CHG  1   8   1
M  END
>  <PDB_ID>  (243) 
pdb1d3y

>  <RESIDUE_NAME>  (243) 
LYS   PHE

>  <FRAG_NAME>  (243) 
ETAM   MBZ

>  <FRAG_ATOM_NUM>  (243) 
fragi: 11  fragj: 15

>  <atom.prop.CHAIN_ID>  (243) 
A A A A A A A A A A A Z Z Z Z Z Z Z Z Z Z Z Z Z Z Z

>  <atom.prop.IS_HEAVY_ATOM>  (243) 
1 0 0 0 1 0 0 1 0 0 0 1 0 0 0 1 1 0 1 0 1 0 1 0 1 0

>  <DIFUSE_FUNC_ATOM>  (243) 
n/a

>  <FINAL_SINGLE_POINT_ENERGY>  (243) 
0

>  <NONCOV_INTER_ENERGY_QM>  (243) 
0

>  <FF_Energy>  (243) 
-5.68

>  <QM_Energy>  (243) 
-13.31

>  <source>  (243) 
ETAM_MBZ

>  <Index>  (243) 
2366

$$$$
ETAM-pdb1d0g-D-LYS-201:MBZ-pdb1d0g-R-PHE-91
     RDKit          3D

 26 25  0  0  0  0  0  0  0  0999 V2000
   -2.4222   -4.1593    0.1560 C   0  0  0  0  0  0  0  0  0  0  0  0
   -3.2144   -3.7057    0.5361 H   0  0  0  0  0  0  0  0  0  0  0  0
   -1.5918   -3.6621    0.3566 H   0  0  0  0  0  0  0  0  0  0  0  0
   -2.3483   -5.1592    0.5835 H   0  0  0  0  0  0  0  0  0  0  0  0
   -2.5859   -4.2530   -1.3455 C   0  0  0  0  0  0  0  0  0  0  0  0
   -1.8168   -4.7607   -1.7235 H   0  0  0  0  0  0  0  0  0  0  0  0
   -3.4391   -4.7230   -1.5487 H   0  0  0  0  0  0  0  0  0  0  0  0
   -2.6158   -2.8998   -1.9110 N   0  0  0  0  0  4  0  0  0  0  0  0
   -3.4678   -2.4384   -1.6511 H   0  0  0  0  0  0  0  0  0  0  0  0
   -1.8387   -2.3673   -1.5668 H   0  0  0  0  0  0  0  0  0  0  0  0
   -2.5614   -2.9458   -2.9119 H   0  0  0  0  0  0  0  0  0  0  0  0
    0.0062    2.9146    0.0168 C   0  0  0  0  0  0  0  0  0  0  0  0
    0.9028    3.2153    0.3048 H   0  0  0  0  0  0  0  0  0  0  0  0
   -0.6955    3.2224    0.6412 H   0  0  0  0  0  0  0  0  0  0  0  0
   -0.1967    3.3681   -0.9534 H   0  0  0  0  0  0  0  0  0  0  0  0
   -0.0033    1.4124    0.0031 C   0  0  0  0  0  0  0  0  0  0  0  0
   -1.1976    0.7138   -0.0028 C   0  0  0  0  0  0  0  0  0  0  0  0
   -2.0650    1.1929   -0.0100 H   0  0  0  0  0  0  0  0  0  0  0  0
   -1.2019   -0.6970    0.0000 C   0  0  0  0  0  0  0  0  0  0  0  0
   -2.0796   -1.1832    0.0050 H   0  0  0  0  0  0  0  0  0  0  0  0
    0.0050   -1.4048   -0.0030 C   0  0  0  0  0  0  0  0  0  0  0  0
   -0.0096   -2.4004   -0.0075 H   0  0  0  0  0  0  0  0  0  0  0  0
    1.2019   -0.7124    0.0000 C   0  0  0  0  0  0  0  0  0  0  0  0
    2.0854   -1.2036    0.0016 H   0  0  0  0  0  0  0  0  0  0  0  0
    1.1959    0.6879    0.0026 C   0  0  0  0  0  0  0  0  0  0  0  0
    2.0658    1.1817    0.0032 H   0  0  0  0  0  0  0  0  0  0  0  0
  1  5  1  0
  5  8  1  0
  1  2  1  0
  1  3  1  0
  1  4  1  0
  5  6  1  0
  5  7  1  0
  8  9  1  0
  8 10  1  0
  8 11  1  0
 12 16  1  0
 16 17  2  0
 17 19  1  0
 19 21  2  0
 21 23  1  0
 23 25  2  0
 25 16  1  0
 12 13  1  0
 12 14  1  0
 12 15  1  0
 17 18  1  0
 19 20  1  0
 21 22  1  0
 23 24  1  0
 25 26  1  0
M  CHG  1   8   1
M  END
>  <PDB_ID>  (244) 
pdb1d0g

>  <RESIDUE_NAME>  (244) 
LYS   PHE

>  <FRAG_NAME>  (244) 
ETAM   MBZ

>  <FRAG_ATOM_NUM>  (244) 
fragi: 11  fragj: 15

>  <atom.prop.CHAIN_ID>  (244) 
A A A A A A A A A A A Z Z Z Z Z Z Z Z Z Z Z Z Z Z Z

>  <atom.prop.IS_HEAVY_ATOM>  (244) 
1 0 0 0 1 0 0 1 0 0 0 1 0 0 0 1 1 0 1 0 1 0 1 0 1 0

>  <DIFUSE_FUNC_ATOM>  (244) 
n/a

>  <FINAL_SINGLE_POINT_ENERGY>  (244) 
0

>  <NONCOV_INTER_ENERGY_QM>  (244) 
0

>  <FF_Energy>  (244) 
0.33

>  <QM_Energy>  (244) 
-7.45

>  <source>  (244) 
ETAM_MBZ

>  <Index>  (244) 
2387

$$$$
ETAM-pdb1d5a-A-LYS-360:MBZ-pdb1d5a-A-PHE-356
     RDKit          3D

 26 25  0  0  0  0  0  0  0  0999 V2000
    0.2004   -1.8491    3.9326 C   0  0  0  0  0  0  0  0  0  0  0  0
   -0.4398   -1.6198    4.6520 H   0  0  0  0  0  0  0  0  0  0  0  0
    0.1242   -1.2212    3.1713 H   0  0  0  0  0  0  0  0  0  0  0  0
    1.2147   -1.8118    4.3300 H   0  0  0  0  0  0  0  0  0  0  0  0
   -0.1150   -3.2539    3.4338 C   0  0  0  0  0  0  0  0  0  0  0  0
    0.5087   -3.4717    2.6721 H   0  0  0  0  0  0  0  0  0  0  0  0
    0.0641   -3.9081    4.1806 H   0  0  0  0  0  0  0  0  0  0  0  0
   -1.5137   -3.4006    2.9794 N   0  0  0  0  0  4  0  0  0  0  0  0
   -2.0915   -2.7287    3.4453 H   0  0  0  0  0  0  0  0  0  0  0  0
   -1.5646   -3.2511    1.9903 H   0  0  0  0  0  0  0  0  0  0  0  0
   -1.8421   -4.3227    3.1917 H   0  0  0  0  0  0  0  0  0  0  0  0
    0.0132    2.9220    0.0417 C   0  0  0  0  0  0  0  0  0  0  0  0
   -0.6490    3.2490   -0.6146 H   0  0  0  0  0  0  0  0  0  0  0  0
    0.9261    3.2252   -0.1841 H   0  0  0  0  0  0  0  0  0  0  0  0
   -0.2462    3.3424    1.0133 H   0  0  0  0  0  0  0  0  0  0  0  0
    0.0014    1.4114    0.0012 C   0  0  0  0  0  0  0  0  0  0  0  0
   -1.2029    0.7048    0.0010 C   0  0  0  0  0  0  0  0  0  0  0  0
   -2.0665    1.1871    0.0001 H   0  0  0  0  0  0  0  0  0  0  0  0
   -1.2018   -0.7026    0.0000 C   0  0  0  0  0  0  0  0  0  0  0  0
   -2.0788   -1.1923    0.0014 H   0  0  0  0  0  0  0  0  0  0  0  0
    0.0027   -1.4005   -0.0006 C   0  0  0  0  0  0  0  0  0  0  0  0
   -0.0032   -2.3990   -0.0019 H   0  0  0  0  0  0  0  0  0  0  0  0
    1.2018   -0.7041    0.0000 C   0  0  0  0  0  0  0  0  0  0  0  0
    2.0847   -1.1995    0.0028 H   0  0  0  0  0  0  0  0  0  0  0  0
    1.1989    0.6910   -0.0016 C   0  0  0  0  0  0  0  0  0  0  0  0
    2.0690    1.1856   -0.0060 H   0  0  0  0  0  0  0  0  0  0  0  0
  1  5  1  0
  5  8  1  0
  1  2  1  0
  1  3  1  0
  1  4  1  0
  5  6  1  0
  5  7  1  0
  8  9  1  0
  8 10  1  0
  8 11  1  0
 12 16  1  0
 16 17  2  0
 17 19  1  0
 19 21  2  0
 21 23  1  0
 23 25  2  0
 25 16  1  0
 12 13  1  0
 12 14  1  0
 12 15  1  0
 17 18  1  0
 19 20  1  0
 21 22  1  0
 23 24  1  0
 25 26  1  0
M  CHG  1   8   1
M  END
>  <PDB_ID>  (245) 
pdb1d5a

>  <RESIDUE_NAME>  (245) 
LYS   PHE

>  <FRAG_NAME>  (245) 
ETAM   MBZ

>  <FRAG_ATOM_NUM>  (245) 
fragi: 11  fragj: 15

>  <atom.prop.CHAIN_ID>  (245) 
A A A A A A A A A A A Z Z Z Z Z Z Z Z Z Z Z Z Z Z Z

>  <atom.prop.IS_HEAVY_ATOM>  (245) 
1 0 0 0 1 0 0 1 0 0 0 1 0 0 0 1 1 0 1 0 1 0 1 0 1 0

>  <DIFUSE_FUNC_ATOM>  (245) 
n/a

>  <FINAL_SINGLE_POINT_ENERGY>  (245) 
0

>  <NONCOV_INTER_ENERGY_QM>  (245) 
0

>  <FF_Energy>  (245) 
-2.33

>  <QM_Energy>  (245) 
-7.46

>  <source>  (245) 
ETAM_MBZ

>  <Index>  (245) 
2392

$$$$
ETAM-pdb2dt4-A-LYS-82:MBZ-pdb2dt4-A-PHE-87
     RDKit          3D

 26 25  0  0  0  0  0  0  0  0999 V2000
   -0.8176    0.5400   -3.6317 C   0  0  0  0  0  0  0  0  0  0  0  0
    0.1367    0.4155   -3.3185 H   0  0  0  0  0  0  0  0  0  0  0  0
   -1.4010    0.6212   -2.8086 H   0  0  0  0  0  0  0  0  0  0  0  0
   -0.8873    1.4582   -4.2148 H   0  0  0  0  0  0  0  0  0  0  0  0
   -1.2321   -0.7192   -4.3725 C   0  0  0  0  0  0  0  0  0  0  0  0
   -2.1716   -0.6405   -4.6623 H   0  0  0  0  0  0  0  0  0  0  0  0
   -0.6270   -0.8706   -5.1368 H   0  0  0  0  0  0  0  0  0  0  0  0
   -1.1150   -1.8954   -3.4209 N   0  0  0  0  0  4  0  0  0  0  0  0
   -1.2976   -2.7324   -3.9277 H   0  0  0  0  0  0  0  0  0  0  0  0
   -0.1927   -1.9108   -3.0476 H   0  0  0  0  0  0  0  0  0  0  0  0
   -1.7815   -1.7802   -2.6915 H   0  0  0  0  0  0  0  0  0  0  0  0
   -0.0000    2.8748    0.0159 C   0  0  0  0  0  0  0  0  0  0  0  0
   -0.8003    3.1883   -0.4792 H   0  0  0  0  0  0  0  0  0  0  0  0
    0.8324    3.1978   -0.4162 H   0  0  0  0  0  0  0  0  0  0  0  0
   -0.0405    3.3125    1.0133 H   0  0  0  0  0  0  0  0  0  0  0  0
    0.0084    1.3938    0.0089 C   0  0  0  0  0  0  0  0  0  0  0  0
   -1.1737    0.7077    0.0185 C   0  0  0  0  0  0  0  0  0  0  0  0
   -2.0456    1.1940    0.0375 H   0  0  0  0  0  0  0  0  0  0  0  0
   -1.1885   -0.6872   -0.0000 C   0  0  0  0  0  0  0  0  0  0  0  0
   -2.0887   -1.1571    0.0005 H   0  0  0  0  0  0  0  0  0  0  0  0
   -0.0321   -1.3784   -0.0161 C   0  0  0  0  0  0  0  0  0  0  0  0
   -0.0340   -2.3869   -0.0404 H   0  0  0  0  0  0  0  0  0  0  0  0
    1.1885   -0.7092    0.0000 C   0  0  0  0  0  0  0  0  0  0  0  0
    2.0540   -1.2244    0.0208 H   0  0  0  0  0  0  0  0  0  0  0  0
    1.1974    0.6733   -0.0114 C   0  0  0  0  0  0  0  0  0  0  0  0
    2.0695    1.1646   -0.0356 H   0  0  0  0  0  0  0  0  0  0  0  0
  1  5  1  0
  5  8  1  0
  1  2  1  0
  1  3  1  0
  1  4  1  0
  5  6  1  0
  5  7  1  0
  8  9  1  0
  8 10  1  0
  8 11  1  0
 12 16  1  0
 16 17  2  0
 17 19  1  0
 19 21  2  0
 21 23  1  0
 23 25  2  0
 25 16  1  0
 12 13  1  0
 12 14  1  0
 12 15  1  0
 17 18  1  0
 19 20  1  0
 21 22  1  0
 23 24  1  0
 25 26  1  0
M  CHG  1   8   1
M  END
>  <PDB_ID>  (246) 
pdb2dt4

>  <RESIDUE_NAME>  (246) 
LYS   PHE

>  <FRAG_NAME>  (246) 
ETAM   MBZ

>  <FRAG_ATOM_NUM>  (246) 
fragi: 11  fragj: 15

>  <atom.prop.CHAIN_ID>  (246) 
A A A A A A A A A A A Z Z Z Z Z Z Z Z Z Z Z Z Z Z Z

>  <atom.prop.IS_HEAVY_ATOM>  (246) 
1 0 0 0 1 0 0 1 0 0 0 1 0 0 0 1 1 0 1 0 1 0 1 0 1 0

>  <DIFUSE_FUNC_ATOM>  (246) 
n/a

>  <FINAL_SINGLE_POINT_ENERGY>  (246) 
0

>  <NONCOV_INTER_ENERGY_QM>  (246) 
0

>  <FF_Energy>  (246) 
-5.34

>  <QM_Energy>  (246) 
-11.01

>  <source>  (246) 
ETAM_MBZ

>  <Index>  (246) 
2398

$$$$
ETAM-pdb1d5r-A-LYS-267:MBZ-pdb1d5r-A-PHE-258
     RDKit          3D

 26 25  0  0  0  0  0  0  0  0999 V2000
    0.5368    2.0235   -3.4400 C   0  0  0  0  0  0  0  0  0  0  0  0
    0.0010    2.4393   -2.7139 H   0  0  0  0  0  0  0  0  0  0  0  0
    0.1787    2.2835   -4.3295 H   0  0  0  0  0  0  0  0  0  0  0  0
    1.5679    2.3675   -3.3588 H   0  0  0  0  0  0  0  0  0  0  0  0
    0.4549    0.5174   -3.3041 C   0  0  0  0  0  0  0  0  0  0  0  0
    0.7586    0.2529   -2.3877 H   0  0  0  0  0  0  0  0  0  0  0  0
   -0.4956    0.2264   -3.4315 H   0  0  0  0  0  0  0  0  0  0  0  0
    1.3125   -0.1668   -4.3163 N   0  0  0  0  0  4  0  0  0  0  0  0
    1.2412   -1.1556   -4.1935 H   0  0  0  0  0  0  0  0  0  0  0  0
    1.0030    0.0818   -5.2325 H   0  0  0  0  0  0  0  0  0  0  0  0
    2.2613    0.1195   -4.1923 H   0  0  0  0  0  0  0  0  0  0  0  0
    0.0146    2.9036   -0.0637 C   0  0  0  0  0  0  0  0  0  0  0  0
   -0.6867    3.1899   -0.7044 H   0  0  0  0  0  0  0  0  0  0  0  0
    0.9128    3.1906   -0.3739 H   0  0  0  0  0  0  0  0  0  0  0  0
   -0.1823    3.4010    0.8860 H   0  0  0  0  0  0  0  0  0  0  0  0
    0.0027    1.4036   -0.0008 C   0  0  0  0  0  0  0  0  0  0  0  0
   -1.2019    0.6978    0.0020 C   0  0  0  0  0  0  0  0  0  0  0  0
   -2.0648    1.1866    0.0039 H   0  0  0  0  0  0  0  0  0  0  0  0
   -1.2057   -0.7008   -0.0000 C   0  0  0  0  0  0  0  0  0  0  0  0
   -2.0797   -1.1935    0.0019 H   0  0  0  0  0  0  0  0  0  0  0  0
    0.0022   -1.3992   -0.0032 C   0  0  0  0  0  0  0  0  0  0  0  0
   -0.0006   -2.3955   -0.0086 H   0  0  0  0  0  0  0  0  0  0  0  0
    1.2057   -0.6974    0.0000 C   0  0  0  0  0  0  0  0  0  0  0  0
    2.0864   -1.1925    0.0026 H   0  0  0  0  0  0  0  0  0  0  0  0
    1.1970    0.6961    0.0019 C   0  0  0  0  0  0  0  0  0  0  0  0
    2.0665    1.1920    0.0049 H   0  0  0  0  0  0  0  0  0  0  0  0
  1  5  1  0
  5  8  1  0
  1  2  1  0
  1  3  1  0
  1  4  1  0
  5  6  1  0
  5  7  1  0
  8  9  1  0
  8 10  1  0
  8 11  1  0
 12 16  1  0
 16 17  2  0
 17 19  1  0
 19 21  2  0
 21 23  1  0
 23 25  2  0
 25 16  1  0
 12 13  1  0
 12 14  1  0
 12 15  1  0
 17 18  1  0
 19 20  1  0
 21 22  1  0
 23 24  1  0
 25 26  1  0
M  CHG  1   8   1
M  END
>  <PDB_ID>  (247) 
pdb1d5r

>  <RESIDUE_NAME>  (247) 
LYS   PHE

>  <FRAG_NAME>  (247) 
ETAM   MBZ

>  <FRAG_ATOM_NUM>  (247) 
fragi: 11  fragj: 15

>  <atom.prop.CHAIN_ID>  (247) 
A A A A A A A A A A A Z Z Z Z Z Z Z Z Z Z Z Z Z Z Z

>  <atom.prop.IS_HEAVY_ATOM>  (247) 
1 0 0 0 1 0 0 1 0 0 0 1 0 0 0 1 1 0 1 0 1 0 1 0 1 0

>  <DIFUSE_FUNC_ATOM>  (247) 
n/a

>  <FINAL_SINGLE_POINT_ENERGY>  (247) 
0

>  <NONCOV_INTER_ENERGY_QM>  (247) 
0

>  <FF_Energy>  (247) 
-3.57

>  <QM_Energy>  (247) 
-9.56

>  <source>  (247) 
ETAM_MBZ

>  <Index>  (247) 
2403

$$$$
ETAM-pdb1d5n-B-LYS-204:MBZ-pdb1d5n-B-PHE-201
     RDKit          3D

 26 25  0  0  0  0  0  0  0  0999 V2000
   -1.0716   -0.4296    5.6349 C   0  0  0  0  0  0  0  0  0  0  0  0
   -1.1574   -0.8251    6.5427 H   0  0  0  0  0  0  0  0  0  0  0  0
   -1.8500   -0.6796    5.0711 H   0  0  0  0  0  0  0  0  0  0  0  0
   -1.0323    0.6559    5.7247 H   0  0  0  0  0  0  0  0  0  0  0  0
    0.1909   -0.9706    4.9867 C   0  0  0  0  0  0  0  0  0  0  0  0
    0.9907   -0.5973    5.4689 H   0  0  0  0  0  0  0  0  0  0  0  0
    0.2021   -1.9725    5.0797 H   0  0  0  0  0  0  0  0  0  0  0  0
    0.2850   -0.6158    3.5430 N   0  0  0  0  0  4  0  0  0  0  0  0
   -0.0037    0.3323    3.4155 H   0  0  0  0  0  0  0  0  0  0  0  0
    1.2306   -0.7227    3.2371 H   0  0  0  0  0  0  0  0  0  0  0  0
   -0.3094   -1.2211    3.0138 H   0  0  0  0  0  0  0  0  0  0  0  0
   -0.0066    2.8967    0.0642 C   0  0  0  0  0  0  0  0  0  0  0  0
   -0.6401    3.2309   -0.6141 H   0  0  0  0  0  0  0  0  0  0  0  0
    0.9119    3.2144   -0.1062 H   0  0  0  0  0  0  0  0  0  0  0  0
   -0.3190    3.2876    1.0325 H   0  0  0  0  0  0  0  0  0  0  0  0
   -0.0017    1.3960    0.0004 C   0  0  0  0  0  0  0  0  0  0  0  0
   -1.1948    0.6883   -0.0016 C   0  0  0  0  0  0  0  0  0  0  0  0
   -2.0623    1.1811   -0.0058 H   0  0  0  0  0  0  0  0  0  0  0  0
   -1.1983   -0.6937    0.0000 C   0  0  0  0  0  0  0  0  0  0  0  0
   -2.0743   -1.1915    0.0004 H   0  0  0  0  0  0  0  0  0  0  0  0
    0.0021   -1.3867    0.0026 C   0  0  0  0  0  0  0  0  0  0  0  0
   -0.0031   -2.3877    0.0059 H   0  0  0  0  0  0  0  0  0  0  0  0
    1.1983   -0.6937    0.0000 C   0  0  0  0  0  0  0  0  0  0  0  0
    2.0806   -1.1938    0.0005 H   0  0  0  0  0  0  0  0  0  0  0  0
    1.1944    0.6898   -0.0014 C   0  0  0  0  0  0  0  0  0  0  0  0
    2.0620    1.1894   -0.0051 H   0  0  0  0  0  0  0  0  0  0  0  0
  1  5  1  0
  5  8  1  0
  1  2  1  0
  1  3  1  0
  1  4  1  0
  5  6  1  0
  5  7  1  0
  8  9  1  0
  8 10  1  0
  8 11  1  0
 12 16  1  0
 16 17  2  0
 17 19  1  0
 19 21  2  0
 21 23  1  0
 23 25  2  0
 25 16  1  0
 12 13  1  0
 12 14  1  0
 12 15  1  0
 17 18  1  0
 19 20  1  0
 21 22  1  0
 23 24  1  0
 25 26  1  0
M  CHG  1   8   1
M  END
>  <PDB_ID>  (248) 
pdb1d5n

>  <RESIDUE_NAME>  (248) 
LYS   PHE

>  <FRAG_NAME>  (248) 
ETAM   MBZ

>  <FRAG_ATOM_NUM>  (248) 
fragi: 11  fragj: 15

>  <atom.prop.CHAIN_ID>  (248) 
A A A A A A A A A A A Z Z Z Z Z Z Z Z Z Z Z Z Z Z Z

>  <atom.prop.IS_HEAVY_ATOM>  (248) 
1 0 0 0 1 0 0 1 0 0 0 1 0 0 0 1 1 0 1 0 1 0 1 0 1 0

>  <DIFUSE_FUNC_ATOM>  (248) 
n/a

>  <FINAL_SINGLE_POINT_ENERGY>  (248) 
0

>  <NONCOV_INTER_ENERGY_QM>  (248) 
0

>  <FF_Energy>  (248) 
-6.74

>  <QM_Energy>  (248) 
-12.19

>  <source>  (248) 
ETAM_MBZ

>  <Index>  (248) 
2404

$$$$
ETAM-pdb1d5t-A-LYS-118:MBZ-pdb1d5t-A-PHE-109
     RDKit          3D

 26 25  0  0  0  0  0  0  0  0999 V2000
   -2.6085   -1.8409   -2.7356 C   0  0  0  0  0  0  0  0  0  0  0  0
   -2.4732   -2.0362   -3.7041 H   0  0  0  0  0  0  0  0  0  0  0  0
   -1.9224   -1.1899   -2.4197 H   0  0  0  0  0  0  0  0  0  0  0  0
   -3.6039   -1.4230   -2.5849 H   0  0  0  0  0  0  0  0  0  0  0  0
   -2.4130   -3.1488   -1.9581 C   0  0  0  0  0  0  0  0  0  0  0  0
   -2.1908   -2.9324   -1.0335 H   0  0  0  0  0  0  0  0  0  0  0  0
   -3.2191   -3.6902   -2.0503 H   0  0  0  0  0  0  0  0  0  0  0  0
   -1.2773   -3.8034   -2.6194 N   0  0  0  0  0  4  0  0  0  0  0  0
   -1.2891   -3.5992   -3.6014 H   0  0  0  0  0  0  0  0  0  0  0  0
   -0.4164   -3.4712   -2.2272 H   0  0  0  0  0  0  0  0  0  0  0  0
   -1.3337   -4.7963   -2.4911 H   0  0  0  0  0  0  0  0  0  0  0  0
    0.0320    2.8999   -0.0232 C   0  0  0  0  0  0  0  0  0  0  0  0
    0.8746    3.2003    0.3766 H   0  0  0  0  0  0  0  0  0  0  0  0
   -0.7562    3.2359    0.4513 H   0  0  0  0  0  0  0  0  0  0  0  0
   -0.0062    3.2896   -1.0405 H   0  0  0  0  0  0  0  0  0  0  0  0
    0.0008    1.3847    0.0195 C   0  0  0  0  0  0  0  0  0  0  0  0
   -1.1901    0.7092    0.0414 C   0  0  0  0  0  0  0  0  0  0  0  0
   -2.0534    1.1952    0.0854 H   0  0  0  0  0  0  0  0  0  0  0  0
   -1.1956   -0.6832    0.0000 C   0  0  0  0  0  0  0  0  0  0  0  0
   -2.0820   -1.1689    0.0082 H   0  0  0  0  0  0  0  0  0  0  0  0
   -0.0135   -1.3772   -0.0491 C   0  0  0  0  0  0  0  0  0  0  0  0
   -0.0197   -2.3789   -0.1213 H   0  0  0  0  0  0  0  0  0  0  0  0
    1.1956   -0.6986   -0.0000 C   0  0  0  0  0  0  0  0  0  0  0  0
    2.0663   -1.2177    0.0458 H   0  0  0  0  0  0  0  0  0  0  0  0
    1.2028    0.6651   -0.0118 C   0  0  0  0  0  0  0  0  0  0  0  0
    2.0658    1.1713   -0.0443 H   0  0  0  0  0  0  0  0  0  0  0  0
  1  5  1  0
  5  8  1  0
  1  2  1  0
  1  3  1  0
  1  4  1  0
  5  6  1  0
  5  7  1  0
  8  9  1  0
  8 10  1  0
  8 11  1  0
 12 16  1  0
 16 17  2  0
 17 19  1  0
 19 21  2  0
 21 23  1  0
 23 25  2  0
 25 16  1  0
 12 13  1  0
 12 14  1  0
 12 15  1  0
 17 18  1  0
 19 20  1  0
 21 22  1  0
 23 24  1  0
 25 26  1  0
M  CHG  1   8   1
M  END
>  <PDB_ID>  (249) 
pdb1d5t

>  <RESIDUE_NAME>  (249) 
LYS   PHE

>  <FRAG_NAME>  (249) 
ETAM   MBZ

>  <FRAG_ATOM_NUM>  (249) 
fragi: 11  fragj: 15

>  <atom.prop.CHAIN_ID>  (249) 
A A A A A A A A A A A Z Z Z Z Z Z Z Z Z Z Z Z Z Z Z

>  <atom.prop.IS_HEAVY_ATOM>  (249) 
1 0 0 0 1 0 0 1 0 0 0 1 0 0 0 1 1 0 1 0 1 0 1 0 1 0

>  <DIFUSE_FUNC_ATOM>  (249) 
n/a

>  <FINAL_SINGLE_POINT_ENERGY>  (249) 
0

>  <NONCOV_INTER_ENERGY_QM>  (249) 
0

>  <FF_Energy>  (249) 
0.95

>  <QM_Energy>  (249) 
-5.92

>  <source>  (249) 
ETAM_MBZ

>  <Index>  (249) 
2407

$$$$
ETAM-pdb1d5r-A-LYS-60:MBZ-pdb1d5r-A-PHE-56
     RDKit          3D

 26 25  0  0  0  0  0  0  0  0999 V2000
   -2.2511   -1.5345    3.1457 C   0  0  0  0  0  0  0  0  0  0  0  0
   -1.6206   -1.2819    2.4208 H   0  0  0  0  0  0  0  0  0  0  0  0
   -2.1823   -2.5052    3.3456 H   0  0  0  0  0  0  0  0  0  0  0  0
   -2.0156   -0.9628    4.0433 H   0  0  0  0  0  0  0  0  0  0  0  0
   -3.6694   -1.2422    2.6708 C   0  0  0  0  0  0  0  0  0  0  0  0
   -4.3123   -1.4647    3.4086 H   0  0  0  0  0  0  0  0  0  0  0  0
   -3.7467   -0.2643    2.4588 H   0  0  0  0  0  0  0  0  0  0  0  0
   -4.0314   -2.0348    1.4542 N   0  0  0  0  0  4  0  0  0  0  0  0
   -4.2968   -2.9565    1.7305 H   0  0  0  0  0  0  0  0  0  0  0  0
   -4.7938   -1.5892    0.9877 H   0  0  0  0  0  0  0  0  0  0  0  0
   -3.2411   -2.0787    0.8451 H   0  0  0  0  0  0  0  0  0  0  0  0
    0.0014    2.8942    0.0837 C   0  0  0  0  0  0  0  0  0  0  0  0
   -0.7353    3.2342   -0.4786 H   0  0  0  0  0  0  0  0  0  0  0  0
    0.8788    3.2200   -0.2298 H   0  0  0  0  0  0  0  0  0  0  0  0
   -0.1516    3.2654    1.0971 H   0  0  0  0  0  0  0  0  0  0  0  0
    0.0008    1.4020    0.0006 C   0  0  0  0  0  0  0  0  0  0  0  0
   -1.1987    0.6939    0.0006 C   0  0  0  0  0  0  0  0  0  0  0  0
   -2.0641    1.1826   -0.0007 H   0  0  0  0  0  0  0  0  0  0  0  0
   -1.2016   -0.7009    0.0000 C   0  0  0  0  0  0  0  0  0  0  0  0
   -2.0791   -1.1924   -0.0005 H   0  0  0  0  0  0  0  0  0  0  0  0
   -0.0025   -1.3928    0.0011 C   0  0  0  0  0  0  0  0  0  0  0  0
   -0.0007   -2.3923    0.0023 H   0  0  0  0  0  0  0  0  0  0  0  0
    1.2016   -0.6940   -0.0000 C   0  0  0  0  0  0  0  0  0  0  0  0
    2.0810   -1.1969    0.0022 H   0  0  0  0  0  0  0  0  0  0  0  0
    1.2004    0.6918   -0.0023 C   0  0  0  0  0  0  0  0  0  0  0  0
    2.0664    1.1904   -0.0071 H   0  0  0  0  0  0  0  0  0  0  0  0
  1  5  1  0
  5  8  1  0
  1  2  1  0
  1  3  1  0
  1  4  1  0
  5  6  1  0
  5  7  1  0
  8  9  1  0
  8 10  1  0
  8 11  1  0
 12 16  1  0
 16 17  2  0
 17 19  1  0
 19 21  2  0
 21 23  1  0
 23 25  2  0
 25 16  1  0
 12 13  1  0
 12 14  1  0
 12 15  1  0
 17 18  1  0
 19 20  1  0
 21 22  1  0
 23 24  1  0
 25 26  1  0
M  CHG  1   8   1
M  END
>  <PDB_ID>  (250) 
pdb1d5r

>  <RESIDUE_NAME>  (250) 
LYS   PHE

>  <FRAG_NAME>  (250) 
ETAM   MBZ

>  <FRAG_ATOM_NUM>  (250) 
fragi: 11  fragj: 15

>  <atom.prop.CHAIN_ID>  (250) 
A A A A A A A A A A A Z Z Z Z Z Z Z Z Z Z Z Z Z Z Z

>  <atom.prop.IS_HEAVY_ATOM>  (250) 
1 0 0 0 1 0 0 1 0 0 0 1 0 0 0 1 1 0 1 0 1 0 1 0 1 0

>  <DIFUSE_FUNC_ATOM>  (250) 
n/a

>  <FINAL_SINGLE_POINT_ENERGY>  (250) 
0

>  <NONCOV_INTER_ENERGY_QM>  (250) 
0

>  <FF_Energy>  (250) 
1.53

>  <QM_Energy>  (250) 
-4.0

>  <source>  (250) 
ETAM_MBZ

>  <Index>  (250) 
2415

$$$$
ETAM-pdb1d6a-A-LYS-115:MBZ-pdb1d6a-A-PHE-158
     RDKit          3D

 26 25  0  0  0  0  0  0  0  0999 V2000
    0.9518   -3.4147    3.4672 C   0  0  0  0  0  0  0  0  0  0  0  0
    1.9417   -3.5004    3.5007 H   0  0  0  0  0  0  0  0  0  0  0  0
    0.6198   -3.5753    2.5448 H   0  0  0  0  0  0  0  0  0  0  0  0
    0.5073   -4.1479    4.1403 H   0  0  0  0  0  0  0  0  0  0  0  0
    0.5743   -2.0043    3.8783 C   0  0  0  0  0  0  0  0  0  0  0  0
    0.8492   -1.8571    4.8344 H   0  0  0  0  0  0  0  0  0  0  0  0
    1.0714   -1.3495    3.2985 H   0  0  0  0  0  0  0  0  0  0  0  0
   -0.8898   -1.7517    3.7498 N   0  0  0  0  0  4  0  0  0  0  0  0
   -1.1005   -0.7733    4.0361 H   0  0  0  0  0  0  0  0  0  0  0  0
   -1.4139   -2.4130    4.3574 H   0  0  0  0  0  0  0  0  0  0  0  0
   -1.1717   -1.8887    2.7584 H   0  0  0  0  0  0  0  0  0  0  0  0
    0.0083    2.9120    0.0166 C   0  0  0  0  0  0  0  0  0  0  0  0
   -0.8258    3.2271   -0.4100 H   0  0  0  0  0  0  0  0  0  0  0  0
    0.8053    3.2198   -0.4810 H   0  0  0  0  0  0  0  0  0  0  0  0
    0.0538    3.3468    1.0151 H   0  0  0  0  0  0  0  0  0  0  0  0
    0.0010    1.4047    0.0004 C   0  0  0  0  0  0  0  0  0  0  0  0
   -1.1962    0.6986   -0.0001 C   0  0  0  0  0  0  0  0  0  0  0  0
   -2.0630    1.1871   -0.0018 H   0  0  0  0  0  0  0  0  0  0  0  0
   -1.2019   -0.6979   -0.0000 C   0  0  0  0  0  0  0  0  0  0  0  0
   -2.0807   -1.1878    0.0015 H   0  0  0  0  0  0  0  0  0  0  0  0
   -0.0028   -1.3974    0.0006 C   0  0  0  0  0  0  0  0  0  0  0  0
   -0.0059   -2.3944    0.0013 H   0  0  0  0  0  0  0  0  0  0  0  0
    1.2019   -0.6990   -0.0000 C   0  0  0  0  0  0  0  0  0  0  0  0
    2.0814   -1.1983    0.0017 H   0  0  0  0  0  0  0  0  0  0  0  0
    1.1980    0.6909   -0.0008 C   0  0  0  0  0  0  0  0  0  0  0  0
    2.0665    1.1878   -0.0030 H   0  0  0  0  0  0  0  0  0  0  0  0
  1  5  1  0
  5  8  1  0
  1  2  1  0
  1  3  1  0
  1  4  1  0
  5  6  1  0
  5  7  1  0
  8  9  1  0
  8 10  1  0
  8 11  1  0
 12 16  1  0
 16 17  2  0
 17 19  1  0
 19 21  2  0
 21 23  1  0
 23 25  2  0
 25 16  1  0
 12 13  1  0
 12 14  1  0
 12 15  1  0
 17 18  1  0
 19 20  1  0
 21 22  1  0
 23 24  1  0
 25 26  1  0
M  CHG  1   8   1
M  END
>  <PDB_ID>  (251) 
pdb1d6a

>  <RESIDUE_NAME>  (251) 
LYS   PHE

>  <FRAG_NAME>  (251) 
ETAM   MBZ

>  <FRAG_ATOM_NUM>  (251) 
fragi: 11  fragj: 15

>  <atom.prop.CHAIN_ID>  (251) 
A A A A A A A A A A A Z Z Z Z Z Z Z Z Z Z Z Z Z Z Z

>  <atom.prop.IS_HEAVY_ATOM>  (251) 
1 0 0 0 1 0 0 1 0 0 0 1 0 0 0 1 1 0 1 0 1 0 1 0 1 0

>  <DIFUSE_FUNC_ATOM>  (251) 
n/a

>  <FINAL_SINGLE_POINT_ENERGY>  (251) 
0

>  <NONCOV_INTER_ENERGY_QM>  (251) 
0

>  <FF_Energy>  (251) 
-4.81

>  <QM_Energy>  (251) 
-10.29

>  <source>  (251) 
ETAM_MBZ

>  <Index>  (251) 
2417

$$$$
ETAM-pdb1d6a-B-LYS-115:MBZ-pdb1d6a-B-PHE-158
     RDKit          3D

 26 25  0  0  0  0  0  0  0  0999 V2000
    0.8940   -3.3270    3.5485 C   0  0  0  0  0  0  0  0  0  0  0  0
    1.8743   -3.4158    3.6858 H   0  0  0  0  0  0  0  0  0  0  0  0
    0.6579   -3.5043    2.6004 H   0  0  0  0  0  0  0  0  0  0  0  0
    0.3790   -4.0462    4.1854 H   0  0  0  0  0  0  0  0  0  0  0  0
    0.4802   -1.9179    3.8967 C   0  0  0  0  0  0  0  0  0  0  0  0
    0.7085   -1.7342    4.8514 H   0  0  0  0  0  0  0  0  0  0  0  0
    0.9663   -1.2764    3.3054 H   0  0  0  0  0  0  0  0  0  0  0  0
   -0.9811   -1.7516    3.7021 N   0  0  0  0  0  4  0  0  0  0  0  0
   -1.2128   -1.9437    2.7066 H   0  0  0  0  0  0  0  0  0  0  0  0
   -1.2528   -0.7753    3.9398 H   0  0  0  0  0  0  0  0  0  0  0  0
   -1.4956   -2.4158    4.3145 H   0  0  0  0  0  0  0  0  0  0  0  0
    0.0053    2.9114   -0.0161 C   0  0  0  0  0  0  0  0  0  0  0  0
   -0.8252    3.2173   -0.4563 H   0  0  0  0  0  0  0  0  0  0  0  0
    0.8063    3.2110   -0.5144 H   0  0  0  0  0  0  0  0  0  0  0  0
    0.0422    3.3699    0.9721 H   0  0  0  0  0  0  0  0  0  0  0  0
   -0.0001    1.4068    0.0004 C   0  0  0  0  0  0  0  0  0  0  0  0
   -1.1997    0.7006    0.0002 C   0  0  0  0  0  0  0  0  0  0  0  0
   -2.0649    1.1932   -0.0013 H   0  0  0  0  0  0  0  0  0  0  0  0
   -1.2087   -0.6909   -0.0000 C   0  0  0  0  0  0  0  0  0  0  0  0
   -2.0841   -1.1851    0.0013 H   0  0  0  0  0  0  0  0  0  0  0  0
   -0.0014   -1.4008   -0.0006 C   0  0  0  0  0  0  0  0  0  0  0  0
   -0.0139   -2.3956   -0.0023 H   0  0  0  0  0  0  0  0  0  0  0  0
    1.2087   -0.7072   -0.0000 C   0  0  0  0  0  0  0  0  0  0  0  0
    2.0847   -1.2031    0.0016 H   0  0  0  0  0  0  0  0  0  0  0  0
    1.2012    0.6915    0.0001 C   0  0  0  0  0  0  0  0  0  0  0  0
    2.0691    1.1873   -0.0013 H   0  0  0  0  0  0  0  0  0  0  0  0
  1  5  1  0
  5  8  1  0
  1  2  1  0
  1  3  1  0
  1  4  1  0
  5  6  1  0
  5  7  1  0
  8  9  1  0
  8 10  1  0
  8 11  1  0
 12 16  1  0
 16 17  2  0
 17 19  1  0
 19 21  2  0
 21 23  1  0
 23 25  2  0
 25 16  1  0
 12 13  1  0
 12 14  1  0
 12 15  1  0
 17 18  1  0
 19 20  1  0
 21 22  1  0
 23 24  1  0
 25 26  1  0
M  CHG  1   8   1
M  END
>  <PDB_ID>  (252) 
pdb1d6a

>  <RESIDUE_NAME>  (252) 
LYS   PHE

>  <FRAG_NAME>  (252) 
ETAM   MBZ

>  <FRAG_ATOM_NUM>  (252) 
fragi: 11  fragj: 15

>  <atom.prop.CHAIN_ID>  (252) 
A A A A A A A A A A A Z Z Z Z Z Z Z Z Z Z Z Z Z Z Z

>  <atom.prop.IS_HEAVY_ATOM>  (252) 
1 0 0 0 1 0 0 1 0 0 0 1 0 0 0 1 1 0 1 0 1 0 1 0 1 0

>  <DIFUSE_FUNC_ATOM>  (252) 
n/a

>  <FINAL_SINGLE_POINT_ENERGY>  (252) 
0

>  <NONCOV_INTER_ENERGY_QM>  (252) 
0

>  <FF_Energy>  (252) 
-4.84

>  <QM_Energy>  (252) 
-10.54

>  <source>  (252) 
ETAM_MBZ

>  <Index>  (252) 
2419

$$$$
ETAM-pdb1d7a-D-LYS-123:MBZ-pdb1d7a-D-PHE-25
     RDKit          3D

 26 25  0  0  0  0  0  0  0  0999 V2000
   -1.0820   -1.5614   -4.5208 C   0  0  0  0  0  0  0  0  0  0  0  0
   -1.9850   -1.9293   -4.3038 H   0  0  0  0  0  0  0  0  0  0  0  0
   -0.7368   -1.9886   -5.3549 H   0  0  0  0  0  0  0  0  0  0  0  0
   -1.1826   -0.4909   -4.7000 H   0  0  0  0  0  0  0  0  0  0  0  0
   -0.1284   -1.8981   -3.3696 C   0  0  0  0  0  0  0  0  0  0  0  0
   -0.4855   -1.4746   -2.5208 H   0  0  0  0  0  0  0  0  0  0  0  0
   -0.1341   -2.9023   -3.2291 H   0  0  0  0  0  0  0  0  0  0  0  0
    1.2919   -1.4488   -3.5711 N   0  0  0  0  0  4  0  0  0  0  0  0
    1.3218   -0.7983   -4.3260 H   0  0  0  0  0  0  0  0  0  0  0  0
    1.6159   -1.0149   -2.7340 H   0  0  0  0  0  0  0  0  0  0  0  0
    1.8556   -2.2436   -3.7834 H   0  0  0  0  0  0  0  0  0  0  0  0
    0.0044    2.8829    0.0888 C   0  0  0  0  0  0  0  0  0  0  0  0
   -0.8495    3.2177   -0.2769 H   0  0  0  0  0  0  0  0  0  0  0  0
    0.7772    3.2240   -0.4236 H   0  0  0  0  0  0  0  0  0  0  0  0
    0.0952    3.2497    1.1112 H   0  0  0  0  0  0  0  0  0  0  0  0
    0.0018    1.3970    0.0006 C   0  0  0  0  0  0  0  0  0  0  0  0
   -1.1938    0.6873   -0.0020 C   0  0  0  0  0  0  0  0  0  0  0  0
   -2.0611    1.1838   -0.0071 H   0  0  0  0  0  0  0  0  0  0  0  0
   -1.2052   -0.6969   -0.0000 C   0  0  0  0  0  0  0  0  0  0  0  0
   -2.0818   -1.1901   -0.0000 H   0  0  0  0  0  0  0  0  0  0  0  0
   -0.0061   -1.3927    0.0035 C   0  0  0  0  0  0  0  0  0  0  0  0
   -0.0056   -2.3907    0.0077 H   0  0  0  0  0  0  0  0  0  0  0  0
    1.2052   -0.6934    0.0000 C   0  0  0  0  0  0  0  0  0  0  0  0
    2.0817   -1.1931    0.0005 H   0  0  0  0  0  0  0  0  0  0  0  0
    1.1981    0.6987   -0.0021 C   0  0  0  0  0  0  0  0  0  0  0  0
    2.0646    1.1952   -0.0062 H   0  0  0  0  0  0  0  0  0  0  0  0
  1  5  1  0
  5  8  1  0
  1  2  1  0
  1  3  1  0
  1  4  1  0
  5  6  1  0
  5  7  1  0
  8  9  1  0
  8 10  1  0
  8 11  1  0
 12 16  1  0
 16 17  2  0
 17 19  1  0
 19 21  2  0
 21 23  1  0
 23 25  2  0
 25 16  1  0
 12 13  1  0
 12 14  1  0
 12 15  1  0
 17 18  1  0
 19 20  1  0
 21 22  1  0
 23 24  1  0
 25 26  1  0
M  CHG  1   8   1
M  END
>  <PDB_ID>  (253) 
pdb1d7a

>  <RESIDUE_NAME>  (253) 
LYS   PHE

>  <FRAG_NAME>  (253) 
ETAM   MBZ

>  <FRAG_ATOM_NUM>  (253) 
fragi: 11  fragj: 15

>  <atom.prop.CHAIN_ID>  (253) 
A A A A A A A A A A A Z Z Z Z Z Z Z Z Z Z Z Z Z Z Z

>  <atom.prop.IS_HEAVY_ATOM>  (253) 
1 0 0 0 1 0 0 1 0 0 0 1 0 0 0 1 1 0 1 0 1 0 1 0 1 0

>  <DIFUSE_FUNC_ATOM>  (253) 
n/a

>  <FINAL_SINGLE_POINT_ENERGY>  (253) 
0

>  <NONCOV_INTER_ENERGY_QM>  (253) 
0

>  <FF_Energy>  (253) 
-4.61

>  <QM_Energy>  (253) 
-11.12

>  <source>  (253) 
ETAM_MBZ

>  <Index>  (253) 
2445

$$$$
ETAM-pdb1d7a-O-LYS-123:MBZ-pdb1d7a-O-PHE-25
     RDKit          3D

 26 25  0  0  0  0  0  0  0  0999 V2000
    0.3591   -1.0123   -4.2379 C   0  0  0  0  0  0  0  0  0  0  0  0
    0.1021   -1.4965   -3.4051 H   0  0  0  0  0  0  0  0  0  0  0  0
    0.6002   -1.6652   -4.9515 H   0  0  0  0  0  0  0  0  0  0  0  0
   -0.4889   -0.4161   -4.5747 H   0  0  0  0  0  0  0  0  0  0  0  0
    1.6012   -0.1566   -3.9322 C   0  0  0  0  0  0  0  0  0  0  0  0
    1.9128    0.2704   -4.7774 H   0  0  0  0  0  0  0  0  0  0  0  0
    1.3525    0.5453   -3.2693 H   0  0  0  0  0  0  0  0  0  0  0  0
    2.7169   -0.9959   -3.3651 N   0  0  0  0  0  4  0  0  0  0  0  0
    2.4390   -1.9524   -3.3786 H   0  0  0  0  0  0  0  0  0  0  0  0
    3.5318   -0.8685   -3.9240 H   0  0  0  0  0  0  0  0  0  0  0  0
    2.8952   -0.7049   -2.4285 H   0  0  0  0  0  0  0  0  0  0  0  0
    0.0055    2.8833    0.0558 C   0  0  0  0  0  0  0  0  0  0  0  0
   -0.8480    3.2116   -0.3203 H   0  0  0  0  0  0  0  0  0  0  0  0
    0.7787    3.2094   -0.4658 H   0  0  0  0  0  0  0  0  0  0  0  0
    0.0971    3.2732    1.0695 H   0  0  0  0  0  0  0  0  0  0  0  0
   -0.0015    1.3965    0.0018 C   0  0  0  0  0  0  0  0  0  0  0  0
   -1.1936    0.6929   -0.0011 C   0  0  0  0  0  0  0  0  0  0  0  0
   -2.0616    1.1847   -0.0048 H   0  0  0  0  0  0  0  0  0  0  0  0
   -1.1988   -0.6921    0.0000 C   0  0  0  0  0  0  0  0  0  0  0  0
   -2.0744   -1.1885    0.0016 H   0  0  0  0  0  0  0  0  0  0  0  0
    0.0034   -1.3897    0.0002 C   0  0  0  0  0  0  0  0  0  0  0  0
   -0.0048   -2.3892    0.0001 H   0  0  0  0  0  0  0  0  0  0  0  0
    1.1988   -0.6975   -0.0000 C   0  0  0  0  0  0  0  0  0  0  0  0
    2.0819   -1.1935    0.0017 H   0  0  0  0  0  0  0  0  0  0  0  0
    1.1917    0.6899   -0.0010 C   0  0  0  0  0  0  0  0  0  0  0  0
    2.0616    1.1882   -0.0049 H   0  0  0  0  0  0  0  0  0  0  0  0
  1  5  1  0
  5  8  1  0
  1  2  1  0
  1  3  1  0
  1  4  1  0
  5  6  1  0
  5  7  1  0
  8  9  1  0
  8 10  1  0
  8 11  1  0
 12 16  1  0
 16 17  2  0
 17 19  1  0
 19 21  2  0
 21 23  1  0
 23 25  2  0
 25 16  1  0
 12 13  1  0
 12 14  1  0
 12 15  1  0
 17 18  1  0
 19 20  1  0
 21 22  1  0
 23 24  1  0
 25 26  1  0
M  CHG  1   8   1
M  END
>  <PDB_ID>  (254) 
pdb1d7a

>  <RESIDUE_NAME>  (254) 
LYS   PHE

>  <FRAG_NAME>  (254) 
ETAM   MBZ

>  <FRAG_ATOM_NUM>  (254) 
fragi: 11  fragj: 15

>  <atom.prop.CHAIN_ID>  (254) 
A A A A A A A A A A A Z Z Z Z Z Z Z Z Z Z Z Z Z Z Z

>  <atom.prop.IS_HEAVY_ATOM>  (254) 
1 0 0 0 1 0 0 1 0 0 0 1 0 0 0 1 1 0 1 0 1 0 1 0 1 0

>  <DIFUSE_FUNC_ATOM>  (254) 
n/a

>  <FINAL_SINGLE_POINT_ENERGY>  (254) 
0

>  <NONCOV_INTER_ENERGY_QM>  (254) 
0

>  <FF_Energy>  (254) 
-3.99

>  <QM_Energy>  (254) 
-9.16

>  <source>  (254) 
ETAM_MBZ

>  <Index>  (254) 
2449

$$$$
ETAM-pdb1d7k-B-LYS-78:MBZ-pdb1d7k-B-PHE-9
     RDKit          3D

 26 25  0  0  0  0  0  0  0  0999 V2000
    2.6737   -3.8144   -0.2884 C   0  0  0  0  0  0  0  0  0  0  0  0
    2.1290   -3.0805   -0.6921 H   0  0  0  0  0  0  0  0  0  0  0  0
    2.1726   -4.2240    0.4730 H   0  0  0  0  0  0  0  0  0  0  0  0
    2.8508   -4.5779   -1.0458 H   0  0  0  0  0  0  0  0  0  0  0  0
    3.9620   -3.2249    0.2429 C   0  0  0  0  0  0  0  0  0  0  0  0
    4.4550   -3.9376    0.7697 H   0  0  0  0  0  0  0  0  0  0  0  0
    4.5538   -2.9690   -0.5403 H   0  0  0  0  0  0  0  0  0  0  0  0
    3.7735   -2.0313    1.1108 N   0  0  0  0  0  4  0  0  0  0  0  0
    3.5456   -1.2409    0.5426 H   0  0  0  0  0  0  0  0  0  0  0  0
    3.0301   -2.2049    1.7568 H   0  0  0  0  0  0  0  0  0  0  0  0
    4.6184   -1.8504    1.6138 H   0  0  0  0  0  0  0  0  0  0  0  0
   -0.0642    2.8985   -0.0075 C   0  0  0  0  0  0  0  0  0  0  0  0
   -0.9119    3.1692   -0.4891 H   0  0  0  0  0  0  0  0  0  0  0  0
    0.7185    3.2284   -0.5573 H   0  0  0  0  0  0  0  0  0  0  0  0
   -0.0437    3.4303    0.9437 H   0  0  0  0  0  0  0  0  0  0  0  0
   -0.0089    1.4016   -0.0001 C   0  0  0  0  0  0  0  0  0  0  0  0
   -1.1853    0.6737   -0.0018 C   0  0  0  0  0  0  0  0  0  0  0  0
   -2.0666    1.1641   -0.0055 H   0  0  0  0  0  0  0  0  0  0  0  0
   -1.1956   -0.7077   -0.0000 C   0  0  0  0  0  0  0  0  0  0  0  0
   -2.0688   -1.2034    0.0004 H   0  0  0  0  0  0  0  0  0  0  0  0
    0.0057   -1.3905    0.0024 C   0  0  0  0  0  0  0  0  0  0  0  0
    0.0153   -2.3885    0.0047 H   0  0  0  0  0  0  0  0  0  0  0  0
    1.1956   -0.6780    0.0000 C   0  0  0  0  0  0  0  0  0  0  0  0
    2.0844   -1.1762    0.0004 H   0  0  0  0  0  0  0  0  0  0  0  0
    1.1886    0.7009   -0.0005 C   0  0  0  0  0  0  0  0  0  0  0  0
    2.0542    1.2042   -0.0020 H   0  0  0  0  0  0  0  0  0  0  0  0
  1  5  1  0
  5  8  1  0
  1  2  1  0
  1  3  1  0
  1  4  1  0
  5  6  1  0
  5  7  1  0
  8  9  1  0
  8 10  1  0
  8 11  1  0
 12 16  1  0
 16 17  2  0
 17 19  1  0
 19 21  2  0
 21 23  1  0
 23 25  2  0
 25 16  1  0
 12 13  1  0
 12 14  1  0
 12 15  1  0
 17 18  1  0
 19 20  1  0
 21 22  1  0
 23 24  1  0
 25 26  1  0
M  CHG  1   8   1
M  END
>  <PDB_ID>  (255) 
pdb1d7k

>  <RESIDUE_NAME>  (255) 
LYS   PHE

>  <FRAG_NAME>  (255) 
ETAM   MBZ

>  <FRAG_ATOM_NUM>  (255) 
fragi: 11  fragj: 15

>  <atom.prop.CHAIN_ID>  (255) 
A A A A A A A A A A A Z Z Z Z Z Z Z Z Z Z Z Z Z Z Z

>  <atom.prop.IS_HEAVY_ATOM>  (255) 
1 0 0 0 1 0 0 1 0 0 0 1 0 0 0 1 1 0 1 0 1 0 1 0 1 0

>  <DIFUSE_FUNC_ATOM>  (255) 
n/a

>  <FINAL_SINGLE_POINT_ENERGY>  (255) 
0

>  <NONCOV_INTER_ENERGY_QM>  (255) 
0

>  <FF_Energy>  (255) 
9.23

>  <QM_Energy>  (255) 
-0.29

>  <source>  (255) 
ETAM_MBZ

>  <Index>  (255) 
2459

$$$$
ETAM-pdb1d7k-B-LYS-185:MBZ-pdb1d7k-B-PHE-227
     RDKit          3D

 26 25  0  0  0  0  0  0  0  0999 V2000
    1.6594   -1.2941   -3.1937 C   0  0  0  0  0  0  0  0  0  0  0  0
    1.0545   -2.1077   -3.1559 H   0  0  0  0  0  0  0  0  0  0  0  0
    1.8182   -0.9951   -2.2369 H   0  0  0  0  0  0  0  0  0  0  0  0
    2.6145   -1.5964   -3.6231 H   0  0  0  0  0  0  0  0  0  0  0  0
    0.9256   -0.1891   -3.9213 C   0  0  0  0  0  0  0  0  0  0  0  0
    1.1628    0.6911   -3.5114 H   0  0  0  0  0  0  0  0  0  0  0  0
    1.1939   -0.1923   -4.8838 H   0  0  0  0  0  0  0  0  0  0  0  0
   -0.5549   -0.3836   -3.8297 N   0  0  0  0  0  4  0  0  0  0  0  0
   -0.7494   -1.1207   -3.1854 H   0  0  0  0  0  0  0  0  0  0  0  0
   -0.9780    0.4630   -3.5122 H   0  0  0  0  0  0  0  0  0  0  0  0
   -0.9102   -0.6217   -4.7320 H   0  0  0  0  0  0  0  0  0  0  0  0
    0.0038    2.8881   -0.0080 C   0  0  0  0  0  0  0  0  0  0  0  0
    0.9316    3.2039    0.0027 H   0  0  0  0  0  0  0  0  0  0  0  0
   -0.5122    3.2012    0.7646 H   0  0  0  0  0  0  0  0  0  0  0  0
   -0.4703    3.2873   -0.9046 H   0  0  0  0  0  0  0  0  0  0  0  0
    0.0120    1.3896    0.0022 C   0  0  0  0  0  0  0  0  0  0  0  0
   -1.1819    0.6957    0.0031 C   0  0  0  0  0  0  0  0  0  0  0  0
   -2.0478    1.1927    0.0044 H   0  0  0  0  0  0  0  0  0  0  0  0
   -1.1975   -0.6883   -0.0000 C   0  0  0  0  0  0  0  0  0  0  0  0
   -2.0746   -1.1778   -0.0011 H   0  0  0  0  0  0  0  0  0  0  0  0
   -0.0038   -1.3700    0.0002 C   0  0  0  0  0  0  0  0  0  0  0  0
   -0.0122   -2.3817    0.0000 H   0  0  0  0  0  0  0  0  0  0  0  0
    1.1975   -0.6989    0.0000 C   0  0  0  0  0  0  0  0  0  0  0  0
    2.0704   -1.1972    0.0056 H   0  0  0  0  0  0  0  0  0  0  0  0
    1.1737    0.6718   -0.0055 C   0  0  0  0  0  0  0  0  0  0  0  0
    2.0625    1.1744   -0.0167 H   0  0  0  0  0  0  0  0  0  0  0  0
  1  5  1  0
  5  8  1  0
  1  2  1  0
  1  3  1  0
  1  4  1  0
  5  6  1  0
  5  7  1  0
  8  9  1  0
  8 10  1  0
  8 11  1  0
 12 16  1  0
 16 17  2  0
 17 19  1  0
 19 21  2  0
 21 23  1  0
 23 25  2  0
 25 16  1  0
 12 13  1  0
 12 14  1  0
 12 15  1  0
 17 18  1  0
 19 20  1  0
 21 22  1  0
 23 24  1  0
 25 26  1  0
M  CHG  1   8   1
M  END
>  <PDB_ID>  (256) 
pdb1d7k

>  <RESIDUE_NAME>  (256) 
LYS   PHE

>  <FRAG_NAME>  (256) 
ETAM   MBZ

>  <FRAG_ATOM_NUM>  (256) 
fragi: 11  fragj: 15

>  <atom.prop.CHAIN_ID>  (256) 
A A A A A A A A A A A Z Z Z Z Z Z Z Z Z Z Z Z Z Z Z

>  <atom.prop.IS_HEAVY_ATOM>  (256) 
1 0 0 0 1 0 0 1 0 0 0 1 0 0 0 1 1 0 1 0 1 0 1 0 1 0

>  <DIFUSE_FUNC_ATOM>  (256) 
n/a

>  <FINAL_SINGLE_POINT_ENERGY>  (256) 
0

>  <NONCOV_INTER_ENERGY_QM>  (256) 
0

>  <FF_Energy>  (256) 
-4.18

>  <QM_Energy>  (256) 
-9.97

>  <source>  (256) 
ETAM_MBZ

>  <Index>  (256) 
2460

$$$$
ETAM-pdb2dw0-B-LYS-582:MBZ-pdb2dw0-B-PHE-574
     RDKit          3D

 26 25  0  0  0  0  0  0  0  0999 V2000
    1.8634   -1.6946   -3.1590 C   0  0  0  0  0  0  0  0  0  0  0  0
    2.2349   -2.3843   -3.7703 H   0  0  0  0  0  0  0  0  0  0  0  0
    1.9526   -1.9828   -2.2124 H   0  0  0  0  0  0  0  0  0  0  0  0
    2.4187   -0.7670   -3.2978 H   0  0  0  0  0  0  0  0  0  0  0  0
    0.3821   -1.5131   -3.4746 C   0  0  0  0  0  0  0  0  0  0  0  0
    0.0251   -0.7554   -2.9241 H   0  0  0  0  0  0  0  0  0  0  0  0
    0.2844   -1.2865   -4.4458 H   0  0  0  0  0  0  0  0  0  0  0  0
   -0.3968   -2.7461   -3.1770 N   0  0  0  0  0  4  0  0  0  0  0  0
   -1.0856   -2.5428   -2.4815 H   0  0  0  0  0  0  0  0  0  0  0  0
   -0.8464   -3.0635   -4.0121 H   0  0  0  0  0  0  0  0  0  0  0  0
    0.2213   -3.4548   -2.8388 H   0  0  0  0  0  0  0  0  0  0  0  0
    0.0072    2.9007    0.0683 C   0  0  0  0  0  0  0  0  0  0  0  0
   -0.8564    3.2308   -0.2794 H   0  0  0  0  0  0  0  0  0  0  0  0
    0.7662    3.2317   -0.4701 H   0  0  0  0  0  0  0  0  0  0  0  0
    0.1258    3.2883    1.0801 H   0  0  0  0  0  0  0  0  0  0  0  0
    0.0005    1.4055    0.0001 C   0  0  0  0  0  0  0  0  0  0  0  0
   -1.2018    0.7019   -0.0006 C   0  0  0  0  0  0  0  0  0  0  0  0
   -2.0655    1.1940   -0.0030 H   0  0  0  0  0  0  0  0  0  0  0  0
   -1.2110   -0.6928   -0.0000 C   0  0  0  0  0  0  0  0  0  0  0  0
   -2.0854   -1.1861   -0.0000 H   0  0  0  0  0  0  0  0  0  0  0  0
   -0.0005   -1.4027    0.0028 C   0  0  0  0  0  0  0  0  0  0  0  0
   -0.0096   -2.3952    0.0066 H   0  0  0  0  0  0  0  0  0  0  0  0
    1.2110   -0.7026    0.0000 C   0  0  0  0  0  0  0  0  0  0  0  0
    2.0874   -1.2006    0.0015 H   0  0  0  0  0  0  0  0  0  0  0  0
    1.2018    0.6907   -0.0023 C   0  0  0  0  0  0  0  0  0  0  0  0
    2.0690    1.1895   -0.0063 H   0  0  0  0  0  0  0  0  0  0  0  0
  1  5  1  0
  5  8  1  0
  1  2  1  0
  1  3  1  0
  1  4  1  0
  5  6  1  0
  5  7  1  0
  8  9  1  0
  8 10  1  0
  8 11  1  0
 12 16  1  0
 16 17  2  0
 17 19  1  0
 19 21  2  0
 21 23  1  0
 23 25  2  0
 25 16  1  0
 12 13  1  0
 12 14  1  0
 12 15  1  0
 17 18  1  0
 19 20  1  0
 21 22  1  0
 23 24  1  0
 25 26  1  0
M  CHG  1   8   1
M  END
>  <PDB_ID>  (257) 
pdb2dw0

>  <RESIDUE_NAME>  (257) 
LYS   PHE

>  <FRAG_NAME>  (257) 
ETAM   MBZ

>  <FRAG_ATOM_NUM>  (257) 
fragi: 11  fragj: 15

>  <atom.prop.CHAIN_ID>  (257) 
A A A A A A A A A A A Z Z Z Z Z Z Z Z Z Z Z Z Z Z Z

>  <atom.prop.IS_HEAVY_ATOM>  (257) 
1 0 0 0 1 0 0 1 0 0 0 1 0 0 0 1 1 0 1 0 1 0 1 0 1 0

>  <DIFUSE_FUNC_ATOM>  (257) 
n/a

>  <FINAL_SINGLE_POINT_ENERGY>  (257) 
0

>  <NONCOV_INTER_ENERGY_QM>  (257) 
0

>  <FF_Energy>  (257) 
-3.8

>  <QM_Energy>  (257) 
-10.5

>  <source>  (257) 
ETAM_MBZ

>  <Index>  (257) 
2479

$$$$
ETAM-pdb1d8h-A-LYS-474:MBZ-pdb1d8h-A-PHE-348
     RDKit          3D

 26 25  0  0  0  0  0  0  0  0999 V2000
    3.7313   -2.4228   -3.0462 C   0  0  0  0  0  0  0  0  0  0  0  0
    4.1884   -3.1853   -3.4555 H   0  0  0  0  0  0  0  0  0  0  0  0
    4.2142   -1.5795   -3.1633 H   0  0  0  0  0  0  0  0  0  0  0  0
    2.7425   -2.3262   -3.4946 H   0  0  0  0  0  0  0  0  0  0  0  0
    3.5409   -2.6880   -1.5707 C   0  0  0  0  0  0  0  0  0  0  0  0
    3.0139   -1.9607   -1.1701 H   0  0  0  0  0  0  0  0  0  0  0  0
    3.1160   -3.5656   -1.4448 H   0  0  0  0  0  0  0  0  0  0  0  0
    4.9032   -2.7074   -0.9539 N   0  0  0  0  0  4  0  0  0  0  0  0
    4.8149   -2.8341    0.0321 H   0  0  0  0  0  0  0  0  0  0  0  0
    5.4297   -3.4602   -1.3456 H   0  0  0  0  0  0  0  0  0  0  0  0
    5.3614   -1.8402   -1.1427 H   0  0  0  0  0  0  0  0  0  0  0  0
    0.0261    2.9321   -0.0577 C   0  0  0  0  0  0  0  0  0  0  0  0
   -0.7884    3.2158   -0.5582 H   0  0  0  0  0  0  0  0  0  0  0  0
    0.8444    3.2172   -0.5506 H   0  0  0  0  0  0  0  0  0  0  0  0
    0.0211    3.4432    0.9051 H   0  0  0  0  0  0  0  0  0  0  0  0
    0.0274    1.4208   -0.0047 C   0  0  0  0  0  0  0  0  0  0  0  0
   -1.2051    0.6915   -0.0104 C   0  0  0  0  0  0  0  0  0  0  0  0
   -2.0557    1.1991   -0.0229 H   0  0  0  0  0  0  0  0  0  0  0  0
   -1.2116   -0.6930   -0.0000 C   0  0  0  0  0  0  0  0  0  0  0  0
   -2.1069   -1.1773    0.0079 H   0  0  0  0  0  0  0  0  0  0  0  0
   -0.0414   -1.4044    0.0021 C   0  0  0  0  0  0  0  0  0  0  0  0
   -0.0361   -2.3985    0.0048 H   0  0  0  0  0  0  0  0  0  0  0  0
    1.2116   -0.7113    0.0000 C   0  0  0  0  0  0  0  0  0  0  0  0
    2.0667   -1.2248   -0.0087 H   0  0  0  0  0  0  0  0  0  0  0  0
    1.2191    0.6964    0.0130 C   0  0  0  0  0  0  0  0  0  0  0  0
    2.0925    1.1776    0.0340 H   0  0  0  0  0  0  0  0  0  0  0  0
  1  5  1  0
  5  8  1  0
  1  2  1  0
  1  3  1  0
  1  4  1  0
  5  6  1  0
  5  7  1  0
  8  9  1  0
  8 10  1  0
  8 11  1  0
 12 16  1  0
 16 17  2  0
 17 19  1  0
 19 21  2  0
 21 23  1  0
 23 25  2  0
 25 16  1  0
 12 13  1  0
 12 14  1  0
 12 15  1  0
 17 18  1  0
 19 20  1  0
 21 22  1  0
 23 24  1  0
 25 26  1  0
M  CHG  1   8   1
M  END
>  <PDB_ID>  (258) 
pdb1d8h

>  <RESIDUE_NAME>  (258) 
LYS   PHE

>  <FRAG_NAME>  (258) 
ETAM   MBZ

>  <FRAG_ATOM_NUM>  (258) 
fragi: 11  fragj: 15

>  <atom.prop.CHAIN_ID>  (258) 
A A A A A A A A A A A Z Z Z Z Z Z Z Z Z Z Z Z Z Z Z

>  <atom.prop.IS_HEAVY_ATOM>  (258) 
1 0 0 0 1 0 0 1 0 0 0 1 0 0 0 1 1 0 1 0 1 0 1 0 1 0

>  <DIFUSE_FUNC_ATOM>  (258) 
n/a

>  <FINAL_SINGLE_POINT_ENERGY>  (258) 
0

>  <NONCOV_INTER_ENERGY_QM>  (258) 
0

>  <FF_Energy>  (258) 
10.92

>  <QM_Energy>  (258) 
-0.4

>  <source>  (258) 
ETAM_MBZ

>  <Index>  (258) 
2483

$$$$
ETAM-pdb2dwz-A-LYS-153:MBZ-pdb2dwz-C-PHE-160
     RDKit          3D

 26 25  0  0  0  0  0  0  0  0999 V2000
   -4.0650   -1.0884    3.4011 C   0  0  0  0  0  0  0  0  0  0  0  0
   -4.8541   -0.7706    2.8822 H   0  0  0  0  0  0  0  0  0  0  0  0
   -4.3648   -1.5144    4.2514 H   0  0  0  0  0  0  0  0  0  0  0  0
   -3.5285   -1.8281    2.8070 H   0  0  0  0  0  0  0  0  0  0  0  0
   -3.1954    0.1214    3.7475 C   0  0  0  0  0  0  0  0  0  0  0  0
   -3.6060    0.5962    4.5355 H   0  0  0  0  0  0  0  0  0  0  0  0
   -2.2817   -0.2064    4.0187 H   0  0  0  0  0  0  0  0  0  0  0  0
   -3.0560    1.0789    2.6170 N   0  0  0  0  0  4  0  0  0  0  0  0
   -2.0965    1.3443    2.5236 H   0  0  0  0  0  0  0  0  0  0  0  0
   -3.3667    0.6426    1.7729 H   0  0  0  0  0  0  0  0  0  0  0  0
   -3.6114    1.8902    2.7983 H   0  0  0  0  0  0  0  0  0  0  0  0
    0.0029    2.9067   -0.0150 C   0  0  0  0  0  0  0  0  0  0  0  0
   -0.6540    3.2069   -0.6913 H   0  0  0  0  0  0  0  0  0  0  0  0
    0.9162    3.2100   -0.2429 H   0  0  0  0  0  0  0  0  0  0  0  0
   -0.2700    3.3574    0.9393 H   0  0  0  0  0  0  0  0  0  0  0  0
    0.0007    1.4074    0.0018 C   0  0  0  0  0  0  0  0  0  0  0  0
   -1.1975    0.7002    0.0020 C   0  0  0  0  0  0  0  0  0  0  0  0
   -2.0648    1.1878    0.0022 H   0  0  0  0  0  0  0  0  0  0  0  0
   -1.2073   -0.7027   -0.0000 C   0  0  0  0  0  0  0  0  0  0  0  0
   -2.0830   -1.1894    0.0025 H   0  0  0  0  0  0  0  0  0  0  0  0
   -0.0011   -1.4042   -0.0036 C   0  0  0  0  0  0  0  0  0  0  0  0
   -0.0031   -2.3987   -0.0095 H   0  0  0  0  0  0  0  0  0  0  0  0
    1.2073   -0.7003    0.0000 C   0  0  0  0  0  0  0  0  0  0  0  0
    2.0869   -1.1941    0.0043 H   0  0  0  0  0  0  0  0  0  0  0  0
    1.1979    0.6996   -0.0002 C   0  0  0  0  0  0  0  0  0  0  0  0
    2.0666    1.1943   -0.0028 H   0  0  0  0  0  0  0  0  0  0  0  0
  1  5  1  0
  5  8  1  0
  1  2  1  0
  1  3  1  0
  1  4  1  0
  5  6  1  0
  5  7  1  0
  8  9  1  0
  8 10  1  0
  8 11  1  0
 12 16  1  0
 16 17  2  0
 17 19  1  0
 19 21  2  0
 21 23  1  0
 23 25  2  0
 25 16  1  0
 12 13  1  0
 12 14  1  0
 12 15  1  0
 17 18  1  0
 19 20  1  0
 21 22  1  0
 23 24  1  0
 25 26  1  0
M  CHG  1   8   1
M  END
>  <PDB_ID>  (259) 
pdb2dwz

>  <RESIDUE_NAME>  (259) 
LYS   PHE

>  <FRAG_NAME>  (259) 
ETAM   MBZ

>  <FRAG_ATOM_NUM>  (259) 
fragi: 11  fragj: 15

>  <atom.prop.CHAIN_ID>  (259) 
A A A A A A A A A A A Z Z Z Z Z Z Z Z Z Z Z Z Z Z Z

>  <atom.prop.IS_HEAVY_ATOM>  (259) 
1 0 0 0 1 0 0 1 0 0 0 1 0 0 0 1 1 0 1 0 1 0 1 0 1 0

>  <DIFUSE_FUNC_ATOM>  (259) 
n/a

>  <FINAL_SINGLE_POINT_ENERGY>  (259) 
0

>  <NONCOV_INTER_ENERGY_QM>  (259) 
0

>  <FF_Energy>  (259) 
-2.57

>  <QM_Energy>  (259) 
-8.01

>  <source>  (259) 
ETAM_MBZ

>  <Index>  (259) 
2496

$$$$
ETAM-pdb2dy0-B-LYS-12:MBZ-pdb2dy0-B-PHE-180
     RDKit          3D

 26 25  0  0  0  0  0  0  0  0999 V2000
   -3.0660   -2.5894   -3.7554 C   0  0  0  0  0  0  0  0  0  0  0  0
   -2.7676   -2.1135   -4.5763 H   0  0  0  0  0  0  0  0  0  0  0  0
   -3.7105   -3.3106   -3.9877 H   0  0  0  0  0  0  0  0  0  0  0  0
   -2.1976   -3.0336   -3.2689 H   0  0  0  0  0  0  0  0  0  0  0  0
   -3.7638   -1.5919   -2.8448 C   0  0  0  0  0  0  0  0  0  0  0  0
   -4.5858   -1.2495   -3.3078 H   0  0  0  0  0  0  0  0  0  0  0  0
   -4.0385   -2.0595   -2.0000 H   0  0  0  0  0  0  0  0  0  0  0  0
   -2.8807   -0.4443   -2.5029 N   0  0  0  0  0  4  0  0  0  0  0  0
   -2.7427   -0.4148   -1.5131 H   0  0  0  0  0  0  0  0  0  0  0  0
   -1.9991   -0.5567   -2.9608 H   0  0  0  0  0  0  0  0  0  0  0  0
   -3.3100    0.4065   -2.8064 H   0  0  0  0  0  0  0  0  0  0  0  0
    0.0136    2.9008    0.0736 C   0  0  0  0  0  0  0  0  0  0  0  0
    0.9526    3.2055   -0.0241 H   0  0  0  0  0  0  0  0  0  0  0  0
   -0.3543    3.1695    0.9547 H   0  0  0  0  0  0  0  0  0  0  0  0
   -0.5773    3.3961   -0.6968 H   0  0  0  0  0  0  0  0  0  0  0  0
    0.0010    1.4032    0.0009 C   0  0  0  0  0  0  0  0  0  0  0  0
   -1.1986    0.6956   -0.0012 C   0  0  0  0  0  0  0  0  0  0  0  0
   -2.0638    1.1837   -0.0047 H   0  0  0  0  0  0  0  0  0  0  0  0
   -1.2015   -0.6993   -0.0000 C   0  0  0  0  0  0  0  0  0  0  0  0
   -2.0776   -1.1923    0.0016 H   0  0  0  0  0  0  0  0  0  0  0  0
    0.0015   -1.3957    0.0014 C   0  0  0  0  0  0  0  0  0  0  0  0
   -0.0022   -2.3938    0.0022 H   0  0  0  0  0  0  0  0  0  0  0  0
    1.2015   -0.6982    0.0000 C   0  0  0  0  0  0  0  0  0  0  0  0
    2.0834   -1.1941    0.0017 H   0  0  0  0  0  0  0  0  0  0  0  0
    1.1961    0.6945   -0.0011 C   0  0  0  0  0  0  0  0  0  0  0  0
    2.0655    1.1896   -0.0043 H   0  0  0  0  0  0  0  0  0  0  0  0
  1  5  1  0
  5  8  1  0
  1  2  1  0
  1  3  1  0
  1  4  1  0
  5  6  1  0
  5  7  1  0
  8  9  1  0
  8 10  1  0
  8 11  1  0
 12 16  1  0
 16 17  2  0
 17 19  1  0
 19 21  2  0
 21 23  1  0
 23 25  2  0
 25 16  1  0
 12 13  1  0
 12 14  1  0
 12 15  1  0
 17 18  1  0
 19 20  1  0
 21 22  1  0
 23 24  1  0
 25 26  1  0
M  CHG  1   8   1
M  END
>  <PDB_ID>  (260) 
pdb2dy0

>  <RESIDUE_NAME>  (260) 
LYS   PHE

>  <FRAG_NAME>  (260) 
ETAM   MBZ

>  <FRAG_ATOM_NUM>  (260) 
fragi: 11  fragj: 15

>  <atom.prop.CHAIN_ID>  (260) 
A A A A A A A A A A A Z Z Z Z Z Z Z Z Z Z Z Z Z Z Z

>  <atom.prop.IS_HEAVY_ATOM>  (260) 
1 0 0 0 1 0 0 1 0 0 0 1 0 0 0 1 1 0 1 0 1 0 1 0 1 0

>  <DIFUSE_FUNC_ATOM>  (260) 
n/a

>  <FINAL_SINGLE_POINT_ENERGY>  (260) 
0

>  <NONCOV_INTER_ENERGY_QM>  (260) 
0

>  <FF_Energy>  (260) 
-1.68

>  <QM_Energy>  (260) 
-8.45

>  <source>  (260) 
ETAM_MBZ

>  <Index>  (260) 
2513

$$$$
ETAM-pdb2du2-B-LYS-1104:MBZ-pdb2du2-B-PHE-1193
     RDKit          3D

 26 25  0  0  0  0  0  0  0  0999 V2000
    0.7230   -0.6775   -6.2560 C   0  0  0  0  0  0  0  0  0  0  0  0
    1.6675   -0.4258   -6.0106 H   0  0  0  0  0  0  0  0  0  0  0  0
    0.4061   -0.0518   -6.9790 H   0  0  0  0  0  0  0  0  0  0  0  0
    0.7445   -1.6848   -6.6719 H   0  0  0  0  0  0  0  0  0  0  0  0
   -0.1990   -0.3830   -4.9420 C   0  0  0  0  0  0  0  0  0  0  0  0
   -0.8891    0.3609   -5.2211 H   0  0  0  0  0  0  0  0  0  0  0  0
   -0.8255   -1.2200   -4.8217 H   0  0  0  0  0  0  0  0  0  0  0  0
    0.3106    0.0102   -3.4638 N   0  0  0  0  0  4  0  0  0  0  0  0
   -0.4751   -0.0559   -2.8808 H   0  0  0  0  0  0  0  0  0  0  0  0
    1.0070   -0.6419   -3.2364 H   0  0  0  0  0  0  0  0  0  0  0  0
    0.6557    0.9254   -3.5326 H   0  0  0  0  0  0  0  0  0  0  0  0
    0.0221    2.9595    0.0005 C   0  0  0  0  0  0  0  0  0  0  0  0
   -0.5105    3.2524   -0.7753 H   0  0  0  0  0  0  0  0  0  0  0  0
    0.9622    3.2468   -0.0695 H   0  0  0  0  0  0  0  0  0  0  0  0
   -0.4021    3.4249    0.8902 H   0  0  0  0  0  0  0  0  0  0  0  0
    0.0071    1.4241    0.0201 C   0  0  0  0  0  0  0  0  0  0  0  0
   -1.2053    0.7107   -0.0085 C   0  0  0  0  0  0  0  0  0  0  0  0
   -2.0666    1.1924   -0.0360 H   0  0  0  0  0  0  0  0  0  0  0  0
   -1.2084   -0.7077   -0.0000 C   0  0  0  0  0  0  0  0  0  0  0  0
   -2.0881   -1.1892    0.0055 H   0  0  0  0  0  0  0  0  0  0  0  0
   -0.0049   -1.4108    0.0022 C   0  0  0  0  0  0  0  0  0  0  0  0
   -0.0119   -2.4081    0.0043 H   0  0  0  0  0  0  0  0  0  0  0  0
    1.2084   -0.7175   -0.0000 C   0  0  0  0  0  0  0  0  0  0  0  0
    2.0853   -1.2057    0.0097 H   0  0  0  0  0  0  0  0  0  0  0  0
    1.2032    0.7011   -0.0138 C   0  0  0  0  0  0  0  0  0  0  0  0
    2.0752    1.1845   -0.0489 H   0  0  0  0  0  0  0  0  0  0  0  0
  1  5  1  0
  5  8  1  0
  1  2  1  0
  1  3  1  0
  1  4  1  0
  5  6  1  0
  5  7  1  0
  8  9  1  0
  8 10  1  0
  8 11  1  0
 12 16  1  0
 16 17  2  0
 17 19  1  0
 19 21  2  0
 21 23  1  0
 23 25  2  0
 25 16  1  0
 12 13  1  0
 12 14  1  0
 12 15  1  0
 17 18  1  0
 19 20  1  0
 21 22  1  0
 23 24  1  0
 25 26  1  0
M  CHG  1   8   1
M  END
>  <PDB_ID>  (261) 
pdb2du2

>  <RESIDUE_NAME>  (261) 
LYS   PHE

>  <FRAG_NAME>  (261) 
ETAM   MBZ

>  <FRAG_ATOM_NUM>  (261) 
fragi: 11  fragj: 15

>  <atom.prop.CHAIN_ID>  (261) 
A A A A A A A A A A A Z Z Z Z Z Z Z Z Z Z Z Z Z Z Z

>  <atom.prop.IS_HEAVY_ATOM>  (261) 
1 0 0 0 1 0 0 1 0 0 0 1 0 0 0 1 1 0 1 0 1 0 1 0 1 0

>  <DIFUSE_FUNC_ATOM>  (261) 
n/a

>  <FINAL_SINGLE_POINT_ENERGY>  (261) 
0

>  <NONCOV_INTER_ENERGY_QM>  (261) 
0

>  <FF_Energy>  (261) 
-7.31

>  <QM_Energy>  (261) 
-13.07

>  <source>  (261) 
ETAM_MBZ

>  <Index>  (261) 
2526

$$$$
ETAM-pdb1d9e-B-LYS-2138:MBZ-pdb1d9e-B-PHE-2237
     RDKit          3D

 26 25  0  0  0  0  0  0  0  0999 V2000
    1.1491   -1.2441    4.9161 C   0  0  0  0  0  0  0  0  0  0  0  0
    1.3489   -0.4222    5.4479 H   0  0  0  0  0  0  0  0  0  0  0  0
    1.7424   -1.2774    4.1130 H   0  0  0  0  0  0  0  0  0  0  0  0
    1.3697   -2.1117    5.5379 H   0  0  0  0  0  0  0  0  0  0  0  0
   -0.3202   -1.1670    4.4325 C   0  0  0  0  0  0  0  0  0  0  0  0
   -0.9276   -1.1697    5.2523 H   0  0  0  0  0  0  0  0  0  0  0  0
   -0.4600   -0.2658    3.9758 H   0  0  0  0  0  0  0  0  0  0  0  0
   -0.7991   -2.2597    3.4825 N   0  0  0  0  0  4  0  0  0  0  0  0
   -1.7452   -2.4703    3.6990 H   0  0  0  0  0  0  0  0  0  0  0  0
   -0.7214   -1.9216    2.5517 H   0  0  0  0  0  0  0  0  0  0  0  0
   -0.2254   -3.0609    3.6113 H   0  0  0  0  0  0  0  0  0  0  0  0
    0.0191    2.9111    0.1038 C   0  0  0  0  0  0  0  0  0  0  0  0
    0.9547    3.1959    0.2793 H   0  0  0  0  0  0  0  0  0  0  0  0
   -0.5729    3.1781    0.8565 H   0  0  0  0  0  0  0  0  0  0  0  0
   -0.3227    3.4420   -0.7848 H   0  0  0  0  0  0  0  0  0  0  0  0
   -0.0026    1.4157    0.0013 C   0  0  0  0  0  0  0  0  0  0  0  0
   -1.2021    0.7145   -0.0045 C   0  0  0  0  0  0  0  0  0  0  0  0
   -2.0674    1.1952   -0.0129 H   0  0  0  0  0  0  0  0  0  0  0  0
   -1.2049   -0.6965    0.0000 C   0  0  0  0  0  0  0  0  0  0  0  0
   -2.0807   -1.1853    0.0015 H   0  0  0  0  0  0  0  0  0  0  0  0
    0.0071   -1.4101    0.0044 C   0  0  0  0  0  0  0  0  0  0  0  0
   -0.0100   -2.4031    0.0101 H   0  0  0  0  0  0  0  0  0  0  0  0
    1.2049   -0.7156   -0.0000 C   0  0  0  0  0  0  0  0  0  0  0  0
    2.0892   -1.2025   -0.0009 H   0  0  0  0  0  0  0  0  0  0  0  0
    1.1976    0.6920   -0.0012 C   0  0  0  0  0  0  0  0  0  0  0  0
    2.0684    1.1833   -0.0045 H   0  0  0  0  0  0  0  0  0  0  0  0
  1  5  1  0
  5  8  1  0
  1  2  1  0
  1  3  1  0
  1  4  1  0
  5  6  1  0
  5  7  1  0
  8  9  1  0
  8 10  1  0
  8 11  1  0
 12 16  1  0
 16 17  2  0
 17 19  1  0
 19 21  2  0
 21 23  1  0
 23 25  2  0
 25 16  1  0
 12 13  1  0
 12 14  1  0
 12 15  1  0
 17 18  1  0
 19 20  1  0
 21 22  1  0
 23 24  1  0
 25 26  1  0
M  CHG  1   8   1
M  END
>  <PDB_ID>  (262) 
pdb1d9e

>  <RESIDUE_NAME>  (262) 
LYS   PHE

>  <FRAG_NAME>  (262) 
ETAM   MBZ

>  <FRAG_ATOM_NUM>  (262) 
fragi: 11  fragj: 15

>  <atom.prop.CHAIN_ID>  (262) 
A A A A A A A A A A A Z Z Z Z Z Z Z Z Z Z Z Z Z Z Z

>  <atom.prop.IS_HEAVY_ATOM>  (262) 
1 0 0 0 1 0 0 1 0 0 0 1 0 0 0 1 1 0 1 0 1 0 1 0 1 0

>  <DIFUSE_FUNC_ATOM>  (262) 
n/a

>  <FINAL_SINGLE_POINT_ENERGY>  (262) 
0

>  <NONCOV_INTER_ENERGY_QM>  (262) 
0

>  <FF_Energy>  (262) 
-4.4

>  <QM_Energy>  (262) 
-10.77

>  <source>  (262) 
ETAM_MBZ

>  <Index>  (262) 
2536

$$$$
ETAM-pdb2dzn-C-LYS-58:MBZ-pdb2dzn-C-PHE-54
     RDKit          3D

 26 25  0  0  0  0  0  0  0  0999 V2000
   -0.3324   -2.3974    4.9742 C   0  0  0  0  0  0  0  0  0  0  0  0
    0.2375   -2.9273    5.5907 H   0  0  0  0  0  0  0  0  0  0  0  0
   -1.2307   -2.2488    5.3692 H   0  0  0  0  0  0  0  0  0  0  0  0
    0.1418   -1.4339    4.7877 H   0  0  0  0  0  0  0  0  0  0  0  0
   -0.4963   -3.1736    3.6810 C   0  0  0  0  0  0  0  0  0  0  0  0
    0.4096   -3.3797    3.3068 H   0  0  0  0  0  0  0  0  0  0  0  0
   -0.9764   -4.0314    3.8733 H   0  0  0  0  0  0  0  0  0  0  0  0
   -1.2723   -2.3941    2.6794 N   0  0  0  0  0  4  0  0  0  0  0  0
   -1.0191   -1.4289    2.7418 H   0  0  0  0  0  0  0  0  0  0  0  0
   -1.0673   -2.7357    1.7625 H   0  0  0  0  0  0  0  0  0  0  0  0
   -2.2497   -2.4961    2.8640 H   0  0  0  0  0  0  0  0  0  0  0  0
   -0.0013    2.9057   -0.0382 C   0  0  0  0  0  0  0  0  0  0  0  0
   -0.5125    3.1905   -0.8351 H   0  0  0  0  0  0  0  0  0  0  0  0
    0.9388    3.2098   -0.0867 H   0  0  0  0  0  0  0  0  0  0  0  0
   -0.4590    3.3663    0.8374 H   0  0  0  0  0  0  0  0  0  0  0  0
   -0.0010    1.4041    0.0000 C   0  0  0  0  0  0  0  0  0  0  0  0
   -1.1992    0.6969    0.0014 C   0  0  0  0  0  0  0  0  0  0  0  0
   -2.0655    1.1868    0.0025 H   0  0  0  0  0  0  0  0  0  0  0  0
   -1.2055   -0.6968   -0.0000 C   0  0  0  0  0  0  0  0  0  0  0  0
   -2.0793   -1.1905    0.0019 H   0  0  0  0  0  0  0  0  0  0  0  0
    0.0024   -1.3995   -0.0024 C   0  0  0  0  0  0  0  0  0  0  0  0
   -0.0042   -2.3949   -0.0060 H   0  0  0  0  0  0  0  0  0  0  0  0
    1.2055   -0.7000   -0.0000 C   0  0  0  0  0  0  0  0  0  0  0  0
    2.0861   -1.1948    0.0025 H   0  0  0  0  0  0  0  0  0  0  0  0
    1.1978    0.6953    0.0010 C   0  0  0  0  0  0  0  0  0  0  0  0
    2.0652    1.1921    0.0014 H   0  0  0  0  0  0  0  0  0  0  0  0
  1  5  1  0
  5  8  1  0
  1  2  1  0
  1  3  1  0
  1  4  1  0
  5  6  1  0
  5  7  1  0
  8  9  1  0
  8 10  1  0
  8 11  1  0
 12 16  1  0
 16 17  2  0
 17 19  1  0
 19 21  2  0
 21 23  1  0
 23 25  2  0
 25 16  1  0
 12 13  1  0
 12 14  1  0
 12 15  1  0
 17 18  1  0
 19 20  1  0
 21 22  1  0
 23 24  1  0
 25 26  1  0
M  CHG  1   8   1
M  END
>  <PDB_ID>  (263) 
pdb2dzn

>  <RESIDUE_NAME>  (263) 
LYS   PHE

>  <FRAG_NAME>  (263) 
ETAM   MBZ

>  <FRAG_ATOM_NUM>  (263) 
fragi: 11  fragj: 15

>  <atom.prop.CHAIN_ID>  (263) 
A A A A A A A A A A A Z Z Z Z Z Z Z Z Z Z Z Z Z Z Z

>  <atom.prop.IS_HEAVY_ATOM>  (263) 
1 0 0 0 1 0 0 1 0 0 0 1 0 0 0 1 1 0 1 0 1 0 1 0 1 0

>  <DIFUSE_FUNC_ATOM>  (263) 
n/a

>  <FINAL_SINGLE_POINT_ENERGY>  (263) 
0

>  <NONCOV_INTER_ENERGY_QM>  (263) 
0

>  <FF_Energy>  (263) 
-2.66

>  <QM_Energy>  (263) 
-9.93

>  <source>  (263) 
ETAM_MBZ

>  <Index>  (263) 
2542

$$$$
ETAM-pdb2e18-A-LYS-20:MBZ-pdb2e18-A-PHE-16
     RDKit          3D

 26 25  0  0  0  0  0  0  0  0999 V2000
    1.2193   -1.4003   -4.7525 C   0  0  0  0  0  0  0  0  0  0  0  0
    1.0944   -2.3856   -4.8285 H   0  0  0  0  0  0  0  0  0  0  0  0
    1.2137   -0.9830   -5.6577 H   0  0  0  0  0  0  0  0  0  0  0  0
    0.3987   -0.9855   -4.1673 H   0  0  0  0  0  0  0  0  0  0  0  0
    2.5780   -1.1346   -4.1079 C   0  0  0  0  0  0  0  0  0  0  0  0
    3.2963   -1.4952   -4.7122 H   0  0  0  0  0  0  0  0  0  0  0  0
    2.7032   -0.1407   -4.0195 H   0  0  0  0  0  0  0  0  0  0  0  0
    2.7011   -1.7656   -2.7684 N   0  0  0  0  0  4  0  0  0  0  0  0
    2.0042   -2.4762   -2.6694 H   0  0  0  0  0  0  0  0  0  0  0  0
    3.6096   -2.1743   -2.6753 H   0  0  0  0  0  0  0  0  0  0  0  0
    2.5727   -1.0717   -2.0603 H   0  0  0  0  0  0  0  0  0  0  0  0
   -0.0001    2.9148    0.0225 C   0  0  0  0  0  0  0  0  0  0  0  0
    0.8471    3.2149    0.4353 H   0  0  0  0  0  0  0  0  0  0  0  0
   -0.7824    3.2117    0.5512 H   0  0  0  0  0  0  0  0  0  0  0  0
   -0.0708    3.3766   -0.9622 H   0  0  0  0  0  0  0  0  0  0  0  0
    0.0016    1.4074    0.0001 C   0  0  0  0  0  0  0  0  0  0  0  0
   -1.2003    0.6936   -0.0006 C   0  0  0  0  0  0  0  0  0  0  0  0
   -2.0658    1.1828   -0.0032 H   0  0  0  0  0  0  0  0  0  0  0  0
   -1.2053   -0.7047   -0.0000 C   0  0  0  0  0  0  0  0  0  0  0  0
   -2.0804   -1.1965    0.0013 H   0  0  0  0  0  0  0  0  0  0  0  0
    0.0001   -1.4020    0.0010 C   0  0  0  0  0  0  0  0  0  0  0  0
    0.0011   -2.3971    0.0015 H   0  0  0  0  0  0  0  0  0  0  0  0
    1.2053   -0.6964    0.0000 C   0  0  0  0  0  0  0  0  0  0  0  0
    2.0859   -1.1909    0.0013 H   0  0  0  0  0  0  0  0  0  0  0  0
    1.1985    0.7020   -0.0004 C   0  0  0  0  0  0  0  0  0  0  0  0
    2.0672    1.1959   -0.0018 H   0  0  0  0  0  0  0  0  0  0  0  0
  1  5  1  0
  5  8  1  0
  1  2  1  0
  1  3  1  0
  1  4  1  0
  5  6  1  0
  5  7  1  0
  8  9  1  0
  8 10  1  0
  8 11  1  0
 12 16  1  0
 16 17  2  0
 17 19  1  0
 19 21  2  0
 21 23  1  0
 23 25  2  0
 25 16  1  0
 12 13  1  0
 12 14  1  0
 12 15  1  0
 17 18  1  0
 19 20  1  0
 21 22  1  0
 23 24  1  0
 25 26  1  0
M  CHG  1   8   1
M  END
>  <PDB_ID>  (264) 
pdb2e18

>  <RESIDUE_NAME>  (264) 
LYS   PHE

>  <FRAG_NAME>  (264) 
ETAM   MBZ

>  <FRAG_ATOM_NUM>  (264) 
fragi: 11  fragj: 15

>  <atom.prop.CHAIN_ID>  (264) 
A A A A A A A A A A A Z Z Z Z Z Z Z Z Z Z Z Z Z Z Z

>  <atom.prop.IS_HEAVY_ATOM>  (264) 
1 0 0 0 1 0 0 1 0 0 0 1 0 0 0 1 1 0 1 0 1 0 1 0 1 0

>  <DIFUSE_FUNC_ATOM>  (264) 
n/a

>  <FINAL_SINGLE_POINT_ENERGY>  (264) 
0

>  <NONCOV_INTER_ENERGY_QM>  (264) 
0

>  <FF_Energy>  (264) 
-2.39

>  <QM_Energy>  (264) 
-8.86

>  <source>  (264) 
ETAM_MBZ

>  <Index>  (264) 
2554

$$$$
ETAM-pdb1d7f-B-LYS-60:MBZ-pdb1d7f-B-PHE-381
     RDKit          3D

 26 25  0  0  0  0  0  0  0  0999 V2000
   -1.2593   -0.4182    3.5364 C   0  0  0  0  0  0  0  0  0  0  0  0
   -1.5243   -0.2883    2.5793 H   0  0  0  0  0  0  0  0  0  0  0  0
   -1.7408    0.2506    4.1061 H   0  0  0  0  0  0  0  0  0  0  0  0
   -1.5354   -1.4245    3.8514 H   0  0  0  0  0  0  0  0  0  0  0  0
    0.2155   -0.1793    3.6617 C   0  0  0  0  0  0  0  0  0  0  0  0
    0.5254   -0.5113    4.5386 H   0  0  0  0  0  0  0  0  0  0  0  0
    0.6827   -0.6323    2.9176 H   0  0  0  0  0  0  0  0  0  0  0  0
    0.4040    1.2562    3.5733 N   0  0  0  0  0  4  0  0  0  0  0  0
   -0.2339    1.6527    2.9042 H   0  0  0  0  0  0  0  0  0  0  0  0
    0.2383    1.6868    4.4668 H   0  0  0  0  0  0  0  0  0  0  0  0
    1.3436    1.4691    3.2848 H   0  0  0  0  0  0  0  0  0  0  0  0
    0.0022    2.9501    0.0055 C   0  0  0  0  0  0  0  0  0  0  0  0
    0.9373    3.2367    0.1483 H   0  0  0  0  0  0  0  0  0  0  0  0
   -0.5811    3.2375    0.7498 H   0  0  0  0  0  0  0  0  0  0  0  0
   -0.3612    3.4109   -0.9130 H   0  0  0  0  0  0  0  0  0  0  0  0
   -0.0017    1.4085   -0.0003 C   0  0  0  0  0  0  0  0  0  0  0  0
   -1.2115    0.6912    0.0003 C   0  0  0  0  0  0  0  0  0  0  0  0
   -2.0720    1.1814    0.0002 H   0  0  0  0  0  0  0  0  0  0  0  0
   -1.2086   -0.7021   -0.0000 C   0  0  0  0  0  0  0  0  0  0  0  0
   -2.0803   -1.2010    0.0015 H   0  0  0  0  0  0  0  0  0  0  0  0
    0.0015   -1.3948   -0.0002 C   0  0  0  0  0  0  0  0  0  0  0  0
   -0.0033   -2.3956   -0.0013 H   0  0  0  0  0  0  0  0  0  0  0  0
    1.2086   -0.7024   -0.0000 C   0  0  0  0  0  0  0  0  0  0  0  0
    2.0874   -1.2004    0.0013 H   0  0  0  0  0  0  0  0  0  0  0  0
    1.2116    0.6996    0.0002 C   0  0  0  0  0  0  0  0  0  0  0  0
    2.0716    1.1928   -0.0005 H   0  0  0  0  0  0  0  0  0  0  0  0
  1  5  1  0
  5  8  1  0
  1  2  1  0
  1  3  1  0
  1  4  1  0
  5  6  1  0
  5  7  1  0
  8  9  1  0
  8 10  1  0
  8 11  1  0
 12 16  1  0
 16 17  2  0
 17 19  1  0
 19 21  2  0
 21 23  1  0
 23 25  2  0
 25 16  1  0
 12 13  1  0
 12 14  1  0
 12 15  1  0
 17 18  1  0
 19 20  1  0
 21 22  1  0
 23 24  1  0
 25 26  1  0
M  CHG  1   8   1
M  END
>  <PDB_ID>  (265) 
pdb1d7f

>  <RESIDUE_NAME>  (265) 
LYS   PHE

>  <FRAG_NAME>  (265) 
ETAM   MBZ

>  <FRAG_ATOM_NUM>  (265) 
fragi: 11  fragj: 15

>  <atom.prop.CHAIN_ID>  (265) 
A A A A A A A A A A A Z Z Z Z Z Z Z Z Z Z Z Z Z Z Z

>  <atom.prop.IS_HEAVY_ATOM>  (265) 
1 0 0 0 1 0 0 1 0 0 0 1 0 0 0 1 1 0 1 0 1 0 1 0 1 0

>  <DIFUSE_FUNC_ATOM>  (265) 
n/a

>  <FINAL_SINGLE_POINT_ENERGY>  (265) 
0

>  <NONCOV_INTER_ENERGY_QM>  (265) 
0

>  <FF_Energy>  (265) 
-7.29

>  <QM_Energy>  (265) 
-12.58

>  <source>  (265) 
ETAM_MBZ

>  <Index>  (265) 
2564

$$$$
ETAM-pdb1dd7-A-LYS-117:MBZ-pdb1dd7-A-PHE-482
     RDKit          3D

 26 25  0  0  0  0  0  0  0  0999 V2000
    1.4898   -1.0114   -5.5882 C   0  0  0  0  0  0  0  0  0  0  0  0
    2.4403   -0.7335   -5.6827 H   0  0  0  0  0  0  0  0  0  0  0  0
    0.9016   -0.4226   -6.1331 H   0  0  0  0  0  0  0  0  0  0  0  0
    1.3930   -2.0318   -5.9590 H   0  0  0  0  0  0  0  0  0  0  0  0
    1.0832   -0.8554   -4.0940 C   0  0  0  0  0  0  0  0  0  0  0  0
    1.5561   -1.5716   -3.5714 H   0  0  0  0  0  0  0  0  0  0  0  0
    1.4112    0.0406   -3.7794 H   0  0  0  0  0  0  0  0  0  0  0  0
   -0.3755   -0.9595   -3.8866 N   0  0  0  0  0  4  0  0  0  0  0  0
   -0.7085   -1.9057   -4.1445 H   0  0  0  0  0  0  0  0  0  0  0  0
   -0.8193   -0.2539   -4.5089 H   0  0  0  0  0  0  0  0  0  0  0  0
   -0.6421   -0.7557   -2.8965 H   0  0  0  0  0  0  0  0  0  0  0  0
    0.0047    2.8559    0.0156 C   0  0  0  0  0  0  0  0  0  0  0  0
   -0.7422    3.1823   -0.5523 H   0  0  0  0  0  0  0  0  0  0  0  0
    0.8771    3.1751   -0.3366 H   0  0  0  0  0  0  0  0  0  0  0  0
   -0.1256    3.2856    1.0088 H   0  0  0  0  0  0  0  0  0  0  0  0
    0.0008    1.3864    0.0002 C   0  0  0  0  0  0  0  0  0  0  0  0
   -1.1937    0.7000   -0.0023 C   0  0  0  0  0  0  0  0  0  0  0  0
   -2.0574    1.1967   -0.0069 H   0  0  0  0  0  0  0  0  0  0  0  0
   -1.2087   -0.6844    0.0000 C   0  0  0  0  0  0  0  0  0  0  0  0
   -2.0831   -1.1784   -0.0006 H   0  0  0  0  0  0  0  0  0  0  0  0
   -0.0035   -1.3887    0.0050 C   0  0  0  0  0  0  0  0  0  0  0  0
   -0.0113   -2.3854    0.0116 H   0  0  0  0  0  0  0  0  0  0  0  0
    1.2087   -0.6953   -0.0000 C   0  0  0  0  0  0  0  0  0  0  0  0
    2.0817   -1.1998   -0.0002 H   0  0  0  0  0  0  0  0  0  0  0  0
    1.1964    0.6820   -0.0028 C   0  0  0  0  0  0  0  0  0  0  0  0
    2.0640    1.1879   -0.0078 H   0  0  0  0  0  0  0  0  0  0  0  0
  1  5  1  0
  5  8  1  0
  1  2  1  0
  1  3  1  0
  1  4  1  0
  5  6  1  0
  5  7  1  0
  8  9  1  0
  8 10  1  0
  8 11  1  0
 12 16  1  0
 16 17  2  0
 17 19  1  0
 19 21  2  0
 21 23  1  0
 23 25  2  0
 25 16  1  0
 12 13  1  0
 12 14  1  0
 12 15  1  0
 17 18  1  0
 19 20  1  0
 21 22  1  0
 23 24  1  0
 25 26  1  0
M  CHG  1   8   1
M  END
>  <PDB_ID>  (266) 
pdb1dd7

>  <RESIDUE_NAME>  (266) 
LYS   PHE

>  <FRAG_NAME>  (266) 
ETAM   MBZ

>  <FRAG_ATOM_NUM>  (266) 
fragi: 11  fragj: 15

>  <atom.prop.CHAIN_ID>  (266) 
A A A A A A A A A A A Z Z Z Z Z Z Z Z Z Z Z Z Z Z Z

>  <atom.prop.IS_HEAVY_ATOM>  (266) 
1 0 0 0 1 0 0 1 0 0 0 1 0 0 0 1 1 0 1 0 1 0 1 0 1 0

>  <DIFUSE_FUNC_ATOM>  (266) 
n/a

>  <FINAL_SINGLE_POINT_ENERGY>  (266) 
0

>  <NONCOV_INTER_ENERGY_QM>  (266) 
0

>  <FF_Energy>  (266) 
-6.09

>  <QM_Energy>  (266) 
-11.37

>  <source>  (266) 
ETAM_MBZ

>  <Index>  (266) 
2567

$$$$
ETAM-pdb1dd8-A-LYS-320:MBZ-pdb1dd8-A-PHE-317
     RDKit          3D

 26 25  0  0  0  0  0  0  0  0999 V2000
    4.3184    1.7527   -2.2332 C   0  0  0  0  0  0  0  0  0  0  0  0
    3.3347    1.7993   -2.1973 H   0  0  0  0  0  0  0  0  0  0  0  0
    4.6360    1.2571   -3.0234 H   0  0  0  0  0  0  0  0  0  0  0  0
    4.6986    2.7719   -2.3026 H   0  0  0  0  0  0  0  0  0  0  0  0
    4.8312    1.0299   -0.9501 C   0  0  0  0  0  0  0  0  0  0  0  0
    5.8336    1.1523   -0.8942 H   0  0  0  0  0  0  0  0  0  0  0  0
    4.4231    1.4838   -0.1433 H   0  0  0  0  0  0  0  0  0  0  0  0
    4.5242   -0.4717   -0.8632 N   0  0  0  0  0  4  0  0  0  0  0  0
    4.1050   -0.7509   -1.7181 H   0  0  0  0  0  0  0  0  0  0  0  0
    5.3792   -0.9530   -0.7165 H   0  0  0  0  0  0  0  0  0  0  0  0
    3.9040   -0.6164   -0.1028 H   0  0  0  0  0  0  0  0  0  0  0  0
    0.0090    2.8902    0.0459 C   0  0  0  0  0  0  0  0  0  0  0  0
   -0.8721    3.2149   -0.2588 H   0  0  0  0  0  0  0  0  0  0  0  0
    0.7368    3.2170   -0.5364 H   0  0  0  0  0  0  0  0  0  0  0  0
    0.1809    3.2918    1.0445 H   0  0  0  0  0  0  0  0  0  0  0  0
    0.0027    1.3972   -0.0013 C   0  0  0  0  0  0  0  0  0  0  0  0
   -1.1881    0.7010   -0.0025 C   0  0  0  0  0  0  0  0  0  0  0  0
   -2.0566    1.1894   -0.0060 H   0  0  0  0  0  0  0  0  0  0  0  0
   -1.1968   -0.6931    0.0000 C   0  0  0  0  0  0  0  0  0  0  0  0
   -2.0802   -1.1791    0.0010 H   0  0  0  0  0  0  0  0  0  0  0  0
   -0.0067   -1.3925    0.0029 C   0  0  0  0  0  0  0  0  0  0  0  0
   -0.0119   -2.3921    0.0068 H   0  0  0  0  0  0  0  0  0  0  0  0
    1.1968   -0.7004   -0.0000 C   0  0  0  0  0  0  0  0  0  0  0  0
    2.0759   -1.2003   -0.0014 H   0  0  0  0  0  0  0  0  0  0  0  0
    1.1921    0.6878    0.0008 C   0  0  0  0  0  0  0  0  0  0  0  0
    2.0646    1.1833    0.0023 H   0  0  0  0  0  0  0  0  0  0  0  0
  1  5  1  0
  5  8  1  0
  1  2  1  0
  1  3  1  0
  1  4  1  0
  5  6  1  0
  5  7  1  0
  8  9  1  0
  8 10  1  0
  8 11  1  0
 12 16  1  0
 16 17  2  0
 17 19  1  0
 19 21  2  0
 21 23  1  0
 23 25  2  0
 25 16  1  0
 12 13  1  0
 12 14  1  0
 12 15  1  0
 17 18  1  0
 19 20  1  0
 21 22  1  0
 23 24  1  0
 25 26  1  0
M  CHG  1   8   1
M  END
>  <PDB_ID>  (267) 
pdb1dd8

>  <RESIDUE_NAME>  (267) 
LYS   PHE

>  <FRAG_NAME>  (267) 
ETAM   MBZ

>  <FRAG_ATOM_NUM>  (267) 
fragi: 11  fragj: 15

>  <atom.prop.CHAIN_ID>  (267) 
A A A A A A A A A A A Z Z Z Z Z Z Z Z Z Z Z Z Z Z Z

>  <atom.prop.IS_HEAVY_ATOM>  (267) 
1 0 0 0 1 0 0 1 0 0 0 1 0 0 0 1 1 0 1 0 1 0 1 0 1 0

>  <DIFUSE_FUNC_ATOM>  (267) 
n/a

>  <FINAL_SINGLE_POINT_ENERGY>  (267) 
0

>  <NONCOV_INTER_ENERGY_QM>  (267) 
0

>  <FF_Energy>  (267) 
0.73

>  <QM_Energy>  (267) 
-4.4

>  <source>  (267) 
ETAM_MBZ

>  <Index>  (267) 
2584

$$$$
ETAM-pdb1dd8-B-LYS-136:MBZ-pdb1dd8-B-PHE-112
     RDKit          3D

 26 25  0  0  0  0  0  0  0  0999 V2000
    0.6986    0.2871   -3.6035 C   0  0  0  0  0  0  0  0  0  0  0  0
    1.5774    0.7363   -3.5105 H   0  0  0  0  0  0  0  0  0  0  0  0
    0.2818    0.1374   -2.7171 H   0  0  0  0  0  0  0  0  0  0  0  0
    0.0393    0.9011   -4.2170 H   0  0  0  0  0  0  0  0  0  0  0  0
    0.8987   -1.0342   -4.2736 C   0  0  0  0  0  0  0  0  0  0  0  0
    0.0866   -1.6007   -4.1395 H   0  0  0  0  0  0  0  0  0  0  0  0
    1.0487   -0.8912   -5.2516 H   0  0  0  0  0  0  0  0  0  0  0  0
    2.0655   -1.7061   -3.6933 N   0  0  0  0  0  4  0  0  0  0  0  0
    2.8332   -1.6788   -4.3386 H   0  0  0  0  0  0  0  0  0  0  0  0
    2.3381   -1.2471   -2.8439 H   0  0  0  0  0  0  0  0  0  0  0  0
    1.8443   -2.6635   -3.4907 H   0  0  0  0  0  0  0  0  0  0  0  0
    0.0081    2.8627    0.1333 C   0  0  0  0  0  0  0  0  0  0  0  0
   -0.8723    3.2061   -0.1466 H   0  0  0  0  0  0  0  0  0  0  0  0
    0.7365    3.2240   -0.4252 H   0  0  0  0  0  0  0  0  0  0  0  0
    0.1826    3.1837    1.1602 H   0  0  0  0  0  0  0  0  0  0  0  0
    0.0014    1.3888    0.0014 C   0  0  0  0  0  0  0  0  0  0  0  0
   -1.1904    0.6943   -0.0036 C   0  0  0  0  0  0  0  0  0  0  0  0
   -2.0569    1.1907   -0.0112 H   0  0  0  0  0  0  0  0  0  0  0  0
   -1.2007   -0.6839    0.0000 C   0  0  0  0  0  0  0  0  0  0  0  0
   -2.0824   -1.1771    0.0005 H   0  0  0  0  0  0  0  0  0  0  0  0
   -0.0104   -1.3825    0.0047 C   0  0  0  0  0  0  0  0  0  0  0  0
   -0.0167   -2.3843    0.0111 H   0  0  0  0  0  0  0  0  0  0  0  0
    1.2007   -0.6978   -0.0000 C   0  0  0  0  0  0  0  0  0  0  0  0
    2.0730   -1.2063   -0.0001 H   0  0  0  0  0  0  0  0  0  0  0  0
    1.1994    0.6812   -0.0025 C   0  0  0  0  0  0  0  0  0  0  0  0
    2.0658    1.1823   -0.0076 H   0  0  0  0  0  0  0  0  0  0  0  0
  1  5  1  0
  5  8  1  0
  1  2  1  0
  1  3  1  0
  1  4  1  0
  5  6  1  0
  5  7  1  0
  8  9  1  0
  8 10  1  0
  8 11  1  0
 12 16  1  0
 16 17  2  0
 17 19  1  0
 19 21  2  0
 21 23  1  0
 23 25  2  0
 25 16  1  0
 12 13  1  0
 12 14  1  0
 12 15  1  0
 17 18  1  0
 19 20  1  0
 21 22  1  0
 23 24  1  0
 25 26  1  0
M  CHG  1   8   1
M  END
>  <PDB_ID>  (268) 
pdb1dd8

>  <RESIDUE_NAME>  (268) 
LYS   PHE

>  <FRAG_NAME>  (268) 
ETAM   MBZ

>  <FRAG_ATOM_NUM>  (268) 
fragi: 11  fragj: 15

>  <atom.prop.CHAIN_ID>  (268) 
A A A A A A A A A A A Z Z Z Z Z Z Z Z Z Z Z Z Z Z Z

>  <atom.prop.IS_HEAVY_ATOM>  (268) 
1 0 0 0 1 0 0 1 0 0 0 1 0 0 0 1 1 0 1 0 1 0 1 0 1 0

>  <DIFUSE_FUNC_ATOM>  (268) 
n/a

>  <FINAL_SINGLE_POINT_ENERGY>  (268) 
0

>  <NONCOV_INTER_ENERGY_QM>  (268) 
0

>  <FF_Energy>  (268) 
-4.3

>  <QM_Energy>  (268) 
-9.37

>  <source>  (268) 
ETAM_MBZ

>  <Index>  (268) 
2586

$$$$
ETAM-pdb1dd8-B-LYS-320:MBZ-pdb1dd8-B-PHE-317
     RDKit          3D

 26 25  0  0  0  0  0  0  0  0999 V2000
    4.2318    1.7320   -2.3689 C   0  0  0  0  0  0  0  0  0  0  0  0
    3.2579    1.7770   -2.2764 H   0  0  0  0  0  0  0  0  0  0  0  0
    4.5178    1.2285   -3.1584 H   0  0  0  0  0  0  0  0  0  0  0  0
    4.6091    2.7504   -2.4623 H   0  0  0  0  0  0  0  0  0  0  0  0
    4.8195    1.0115   -1.0829 C   0  0  0  0  0  0  0  0  0  0  0  0
    5.8236    1.1293   -1.0978 H   0  0  0  0  0  0  0  0  0  0  0  0
    4.4653    1.4977   -0.2707 H   0  0  0  0  0  0  0  0  0  0  0  0
    4.5021   -0.4813   -0.9396 N   0  0  0  0  0  4  0  0  0  0  0  0
    3.7640   -0.5793   -0.2834 H   0  0  0  0  0  0  0  0  0  0  0  0
    4.2294   -0.8262   -1.8294 H   0  0  0  0  0  0  0  0  0  0  0  0
    5.3206   -0.9419   -0.6192 H   0  0  0  0  0  0  0  0  0  0  0  0
    0.0074    2.8910    0.0430 C   0  0  0  0  0  0  0  0  0  0  0  0
   -0.8843    3.2124   -0.2360 H   0  0  0  0  0  0  0  0  0  0  0  0
    0.7156    3.2169   -0.5629 H   0  0  0  0  0  0  0  0  0  0  0  0
    0.2096    3.2902    1.0369 H   0  0  0  0  0  0  0  0  0  0  0  0
    0.0028    1.4016    0.0003 C   0  0  0  0  0  0  0  0  0  0  0  0
   -1.1942    0.6934   -0.0014 C   0  0  0  0  0  0  0  0  0  0  0  0
   -2.0607    1.1829   -0.0043 H   0  0  0  0  0  0  0  0  0  0  0  0
   -1.1968   -0.6972   -0.0000 C   0  0  0  0  0  0  0  0  0  0  0  0
   -2.0780   -1.1877    0.0015 H   0  0  0  0  0  0  0  0  0  0  0  0
   -0.0054   -1.3907    0.0014 C   0  0  0  0  0  0  0  0  0  0  0  0
   -0.0093   -2.3924    0.0024 H   0  0  0  0  0  0  0  0  0  0  0  0
    1.1968   -0.7016    0.0000 C   0  0  0  0  0  0  0  0  0  0  0  0
    2.0768   -1.1994    0.0004 H   0  0  0  0  0  0  0  0  0  0  0  0
    1.1968    0.6944   -0.0003 C   0  0  0  0  0  0  0  0  0  0  0  0
    2.0664    1.1853   -0.0025 H   0  0  0  0  0  0  0  0  0  0  0  0
  1  5  1  0
  5  8  1  0
  1  2  1  0
  1  3  1  0
  1  4  1  0
  5  6  1  0
  5  7  1  0
  8  9  1  0
  8 10  1  0
  8 11  1  0
 12 16  1  0
 16 17  2  0
 17 19  1  0
 19 21  2  0
 21 23  1  0
 23 25  2  0
 25 16  1  0
 12 13  1  0
 12 14  1  0
 12 15  1  0
 17 18  1  0
 19 20  1  0
 21 22  1  0
 23 24  1  0
 25 26  1  0
M  CHG  1   8   1
M  END
>  <PDB_ID>  (269) 
pdb1dd8

>  <RESIDUE_NAME>  (269) 
LYS   PHE

>  <FRAG_NAME>  (269) 
ETAM   MBZ

>  <FRAG_ATOM_NUM>  (269) 
fragi: 11  fragj: 15

>  <atom.prop.CHAIN_ID>  (269) 
A A A A A A A A A A A Z Z Z Z Z Z Z Z Z Z Z Z Z Z Z

>  <atom.prop.IS_HEAVY_ATOM>  (269) 
1 0 0 0 1 0 0 1 0 0 0 1 0 0 0 1 1 0 1 0 1 0 1 0 1 0

>  <DIFUSE_FUNC_ATOM>  (269) 
n/a

>  <FINAL_SINGLE_POINT_ENERGY>  (269) 
0

>  <NONCOV_INTER_ENERGY_QM>  (269) 
0

>  <FF_Energy>  (269) 
0.74

>  <QM_Energy>  (269) 
-4.41

>  <source>  (269) 
ETAM_MBZ

>  <Index>  (269) 
2588

$$$$
ETAM-pdb1dd8-C-LYS-320:MBZ-pdb1dd8-C-PHE-317
     RDKit          3D

 26 25  0  0  0  0  0  0  0  0999 V2000
    4.2530    1.7742   -2.2919 C   0  0  0  0  0  0  0  0  0  0  0  0
    3.2693    1.8071   -2.2712 H   0  0  0  0  0  0  0  0  0  0  0  0
    4.5911    1.2709   -3.0675 H   0  0  0  0  0  0  0  0  0  0  0  0
    4.6274    2.7957   -2.3572 H   0  0  0  0  0  0  0  0  0  0  0  0
    4.7480    1.0542   -0.9853 C   0  0  0  0  0  0  0  0  0  0  0  0
    5.7423    1.2212   -0.8980 H   0  0  0  0  0  0  0  0  0  0  0  0
    4.2946    1.4988   -0.1962 H   0  0  0  0  0  0  0  0  0  0  0  0
    4.4948   -0.4426   -0.9168 N   0  0  0  0  0  4  0  0  0  0  0  0
    5.3313   -0.8911   -0.6192 H   0  0  0  0  0  0  0  0  0  0  0  0
    3.7614   -0.6100   -0.2661 H   0  0  0  0  0  0  0  0  0  0  0  0
    4.2334   -0.7604   -1.8225 H   0  0  0  0  0  0  0  0  0  0  0  0
    0.0086    2.9015    0.0415 C   0  0  0  0  0  0  0  0  0  0  0  0
   -0.8784    3.2173   -0.2575 H   0  0  0  0  0  0  0  0  0  0  0  0
    0.7272    3.2194   -0.5564 H   0  0  0  0  0  0  0  0  0  0  0  0
    0.1928    3.3142    1.0334 H   0  0  0  0  0  0  0  0  0  0  0  0
    0.0034    1.3952    0.0019 C   0  0  0  0  0  0  0  0  0  0  0  0
   -1.1912    0.6904   -0.0031 C   0  0  0  0  0  0  0  0  0  0  0  0
   -2.0590    1.1776   -0.0101 H   0  0  0  0  0  0  0  0  0  0  0  0
   -1.1956   -0.7037    0.0000 C   0  0  0  0  0  0  0  0  0  0  0  0
   -2.0761   -1.1911    0.0023 H   0  0  0  0  0  0  0  0  0  0  0  0
   -0.0070   -1.3824    0.0011 C   0  0  0  0  0  0  0  0  0  0  0  0
    0.0023   -2.3867    0.0021 H   0  0  0  0  0  0  0  0  0  0  0  0
    1.1956   -0.6858   -0.0000 C   0  0  0  0  0  0  0  0  0  0  0  0
    2.0746   -1.1945    0.0002 H   0  0  0  0  0  0  0  0  0  0  0  0
    1.1947    0.6864    0.0001 C   0  0  0  0  0  0  0  0  0  0  0  0
    2.0643    1.1886   -0.0021 H   0  0  0  0  0  0  0  0  0  0  0  0
  1  5  1  0
  5  8  1  0
  1  2  1  0
  1  3  1  0
  1  4  1  0
  5  6  1  0
  5  7  1  0
  8  9  1  0
  8 10  1  0
  8 11  1  0
 12 16  1  0
 16 17  2  0
 17 19  1  0
 19 21  2  0
 21 23  1  0
 23 25  2  0
 25 16  1  0
 12 13  1  0
 12 14  1  0
 12 15  1  0
 17 18  1  0
 19 20  1  0
 21 22  1  0
 23 24  1  0
 25 26  1  0
M  CHG  1   8   1
M  END
>  <PDB_ID>  (270) 
pdb1dd8

>  <RESIDUE_NAME>  (270) 
LYS   PHE

>  <FRAG_NAME>  (270) 
ETAM   MBZ

>  <FRAG_ATOM_NUM>  (270) 
fragi: 11  fragj: 15

>  <atom.prop.CHAIN_ID>  (270) 
A A A A A A A A A A A Z Z Z Z Z Z Z Z Z Z Z Z Z Z Z

>  <atom.prop.IS_HEAVY_ATOM>  (270) 
1 0 0 0 1 0 0 1 0 0 0 1 0 0 0 1 1 0 1 0 1 0 1 0 1 0

>  <DIFUSE_FUNC_ATOM>  (270) 
n/a

>  <FINAL_SINGLE_POINT_ENERGY>  (270) 
0

>  <NONCOV_INTER_ENERGY_QM>  (270) 
0

>  <FF_Energy>  (270) 
0.95

>  <QM_Energy>  (270) 
-4.33

>  <source>  (270) 
ETAM_MBZ

>  <Index>  (270) 
2591

$$$$
ETAM-pdb1dd8-D-LYS-320:MBZ-pdb1dd8-D-PHE-317
     RDKit          3D

 26 25  0  0  0  0  0  0  0  0999 V2000
    4.2752    1.7370   -2.3588 C   0  0  0  0  0  0  0  0  0  0  0  0
    3.2992    1.7671   -2.2576 H   0  0  0  0  0  0  0  0  0  0  0  0
    4.5557    1.2457   -3.1611 H   0  0  0  0  0  0  0  0  0  0  0  0
    4.6350    2.7619   -2.4483 H   0  0  0  0  0  0  0  0  0  0  0  0
    4.8842    1.0206   -1.0980 C   0  0  0  0  0  0  0  0  0  0  0  0
    5.8934    1.1168   -1.1432 H   0  0  0  0  0  0  0  0  0  0  0  0
    4.5735    1.5253   -0.2727 H   0  0  0  0  0  0  0  0  0  0  0  0
    4.5452   -0.4603   -0.9169 N   0  0  0  0  0  4  0  0  0  0  0  0
    3.8150   -0.6912   -1.5494 H   0  0  0  0  0  0  0  0  0  0  0  0
    5.3601   -0.9918   -1.1129 H   0  0  0  0  0  0  0  0  0  0  0  0
    4.2536   -0.5993    0.0214 H   0  0  0  0  0  0  0  0  0  0  0  0
    0.0047    2.8786    0.0338 C   0  0  0  0  0  0  0  0  0  0  0  0
   -0.8832    3.1988   -0.2555 H   0  0  0  0  0  0  0  0  0  0  0  0
    0.7191    3.1996   -0.5676 H   0  0  0  0  0  0  0  0  0  0  0  0
    0.1981    3.2820    1.0278 H   0  0  0  0  0  0  0  0  0  0  0  0
   -0.0009    1.3894    0.0006 C   0  0  0  0  0  0  0  0  0  0  0  0
   -1.1907    0.6906    0.0024 C   0  0  0  0  0  0  0  0  0  0  0  0
   -2.0574    1.1840    0.0041 H   0  0  0  0  0  0  0  0  0  0  0  0
   -1.1935   -0.6865    0.0000 C   0  0  0  0  0  0  0  0  0  0  0  0
   -2.0738   -1.1844    0.0007 H   0  0  0  0  0  0  0  0  0  0  0  0
   -0.0013   -1.3812   -0.0023 C   0  0  0  0  0  0  0  0  0  0  0  0
   -0.0102   -2.3839   -0.0061 H   0  0  0  0  0  0  0  0  0  0  0  0
    1.1935   -0.6959   -0.0000 C   0  0  0  0  0  0  0  0  0  0  0  0
    2.0755   -1.1984    0.0037 H   0  0  0  0  0  0  0  0  0  0  0  0
    1.1929    0.6836   -0.0007 C   0  0  0  0  0  0  0  0  0  0  0  0
    2.0611    1.1830   -0.0025 H   0  0  0  0  0  0  0  0  0  0  0  0
  1  5  1  0
  5  8  1  0
  1  2  1  0
  1  3  1  0
  1  4  1  0
  5  6  1  0
  5  7  1  0
  8  9  1  0
  8 10  1  0
  8 11  1  0
 12 16  1  0
 16 17  2  0
 17 19  1  0
 19 21  2  0
 21 23  1  0
 23 25  2  0
 25 16  1  0
 12 13  1  0
 12 14  1  0
 12 15  1  0
 17 18  1  0
 19 20  1  0
 21 22  1  0
 23 24  1  0
 25 26  1  0
M  CHG  1   8   1
M  END
>  <PDB_ID>  (271) 
pdb1dd8

>  <RESIDUE_NAME>  (271) 
LYS   PHE

>  <FRAG_NAME>  (271) 
ETAM   MBZ

>  <FRAG_ATOM_NUM>  (271) 
fragi: 11  fragj: 15

>  <atom.prop.CHAIN_ID>  (271) 
A A A A A A A A A A A Z Z Z Z Z Z Z Z Z Z Z Z Z Z Z

>  <atom.prop.IS_HEAVY_ATOM>  (271) 
1 0 0 0 1 0 0 1 0 0 0 1 0 0 0 1 1 0 1 0 1 0 1 0 1 0

>  <DIFUSE_FUNC_ATOM>  (271) 
n/a

>  <FINAL_SINGLE_POINT_ENERGY>  (271) 
0

>  <NONCOV_INTER_ENERGY_QM>  (271) 
0

>  <FF_Energy>  (271) 
0.29

>  <QM_Energy>  (271) 
-4.76

>  <source>  (271) 
ETAM_MBZ

>  <Index>  (271) 
2595

$$$$
ETAM-pdb2e37-A-LYS-302:MBZ-pdb2e37-A-PHE-306
     RDKit          3D

 26 25  0  0  0  0  0  0  0  0999 V2000
    1.5525   -1.2755   -4.0610 C   0  0  0  0  0  0  0  0  0  0  0  0
    1.1088   -0.3913   -4.1725 H   0  0  0  0  0  0  0  0  0  0  0  0
    1.6785   -1.7124   -4.9462 H   0  0  0  0  0  0  0  0  0  0  0  0
    2.5299   -1.1202   -3.6043 H   0  0  0  0  0  0  0  0  0  0  0  0
    0.6647   -2.1616   -3.2027 C   0  0  0  0  0  0  0  0  0  0  0  0
    1.0466   -3.0896   -3.1883 H   0  0  0  0  0  0  0  0  0  0  0  0
    0.6521   -1.8014   -2.2662 H   0  0  0  0  0  0  0  0  0  0  0  0
   -0.7293   -2.2155   -3.7232 N   0  0  0  0  0  4  0  0  0  0  0  0
   -0.9113   -3.1276   -4.0902 H   0  0  0  0  0  0  0  0  0  0  0  0
   -1.3685   -2.0197   -2.9802 H   0  0  0  0  0  0  0  0  0  0  0  0
   -0.8396   -1.5350   -4.4474 H   0  0  0  0  0  0  0  0  0  0  0  0
    0.0024    2.9097    0.0225 C   0  0  0  0  0  0  0  0  0  0  0  0
    0.9084    3.2178   -0.2312 H   0  0  0  0  0  0  0  0  0  0  0  0
   -0.2318    3.2027    0.9383 H   0  0  0  0  0  0  0  0  0  0  0  0
   -0.7095    3.3663   -0.6651 H   0  0  0  0  0  0  0  0  0  0  0  0
   -0.0008    1.4073    0.0003 C   0  0  0  0  0  0  0  0  0  0  0  0
   -1.2019    0.6996    0.0009 C   0  0  0  0  0  0  0  0  0  0  0  0
   -2.0662    1.1904    0.0005 H   0  0  0  0  0  0  0  0  0  0  0  0
   -1.2098   -0.6959   -0.0000 C   0  0  0  0  0  0  0  0  0  0  0  0
   -2.0836   -1.1889    0.0017 H   0  0  0  0  0  0  0  0  0  0  0  0
   -0.0001   -1.4011   -0.0007 C   0  0  0  0  0  0  0  0  0  0  0  0
   -0.0086   -2.3964   -0.0025 H   0  0  0  0  0  0  0  0  0  0  0  0
    1.2098   -0.7040    0.0000 C   0  0  0  0  0  0  0  0  0  0  0  0
    2.0868   -1.2002    0.0021 H   0  0  0  0  0  0  0  0  0  0  0  0
    1.2029    0.6940   -0.0005 C   0  0  0  0  0  0  0  0  0  0  0  0
    2.0689    1.1909   -0.0025 H   0  0  0  0  0  0  0  0  0  0  0  0
  1  5  1  0
  5  8  1  0
  1  2  1  0
  1  3  1  0
  1  4  1  0
  5  6  1  0
  5  7  1  0
  8  9  1  0
  8 10  1  0
  8 11  1  0
 12 16  1  0
 16 17  2  0
 17 19  1  0
 19 21  2  0
 21 23  1  0
 23 25  2  0
 25 16  1  0
 12 13  1  0
 12 14  1  0
 12 15  1  0
 17 18  1  0
 19 20  1  0
 21 22  1  0
 23 24  1  0
 25 26  1  0
M  CHG  1   8   1
M  END
>  <PDB_ID>  (272) 
pdb2e37

>  <RESIDUE_NAME>  (272) 
LYS   PHE

>  <FRAG_NAME>  (272) 
ETAM   MBZ

>  <FRAG_ATOM_NUM>  (272) 
fragi: 11  fragj: 15

>  <atom.prop.CHAIN_ID>  (272) 
A A A A A A A A A A A Z Z Z Z Z Z Z Z Z Z Z Z Z Z Z

>  <atom.prop.IS_HEAVY_ATOM>  (272) 
1 0 0 0 1 0 0 1 0 0 0 1 0 0 0 1 1 0 1 0 1 0 1 0 1 0

>  <DIFUSE_FUNC_ATOM>  (272) 
n/a

>  <FINAL_SINGLE_POINT_ENERGY>  (272) 
0

>  <NONCOV_INTER_ENERGY_QM>  (272) 
0

>  <FF_Energy>  (272) 
-1.78

>  <QM_Energy>  (272) 
-8.6

>  <source>  (272) 
ETAM_MBZ

>  <Index>  (272) 
2605

$$$$
ETAM-pdb2e37-C-LYS-302:MBZ-pdb2e37-C-PHE-306
     RDKit          3D

 26 25  0  0  0  0  0  0  0  0999 V2000
    0.9909   -1.0992   -4.1887 C   0  0  0  0  0  0  0  0  0  0  0  0
    0.5876   -0.1957   -4.3521 H   0  0  0  0  0  0  0  0  0  0  0  0
    1.1011   -1.5716   -5.0655 H   0  0  0  0  0  0  0  0  0  0  0  0
    1.9733   -0.9674   -3.7354 H   0  0  0  0  0  0  0  0  0  0  0  0
    0.0417   -1.9010   -3.3249 C   0  0  0  0  0  0  0  0  0  0  0  0
    0.3794   -2.8373   -3.2417 H   0  0  0  0  0  0  0  0  0  0  0  0
   -0.0168   -1.4832   -2.4203 H   0  0  0  0  0  0  0  0  0  0  0  0
   -1.3319   -1.9345   -3.9317 N   0  0  0  0  0  4  0  0  0  0  0  0
   -2.0101   -1.8739   -3.2028 H   0  0  0  0  0  0  0  0  0  0  0  0
   -1.4312   -1.1608   -4.5537 H   0  0  0  0  0  0  0  0  0  0  0  0
   -1.4449   -2.7902   -4.4320 H   0  0  0  0  0  0  0  0  0  0  0  0
    0.0122    2.9349    0.0749 C   0  0  0  0  0  0  0  0  0  0  0  0
    0.8958    3.2454   -0.2429 H   0  0  0  0  0  0  0  0  0  0  0  0
   -0.1427    3.1923    1.0168 H   0  0  0  0  0  0  0  0  0  0  0  0
   -0.7499    3.4232   -0.5325 H   0  0  0  0  0  0  0  0  0  0  0  0
   -0.0007    1.4190    0.0007 C   0  0  0  0  0  0  0  0  0  0  0  0
   -1.2024    0.7072    0.0001 C   0  0  0  0  0  0  0  0  0  0  0  0
   -2.0689    1.1886   -0.0014 H   0  0  0  0  0  0  0  0  0  0  0  0
   -1.2055   -0.7043    0.0000 C   0  0  0  0  0  0  0  0  0  0  0  0
   -2.0820   -1.1911    0.0003 H   0  0  0  0  0  0  0  0  0  0  0  0
    0.0024   -1.4067    0.0008 C   0  0  0  0  0  0  0  0  0  0  0  0
   -0.0060   -2.4032    0.0013 H   0  0  0  0  0  0  0  0  0  0  0  0
    1.2055   -0.7105   -0.0000 C   0  0  0  0  0  0  0  0  0  0  0  0
    2.0866   -1.2016    0.0022 H   0  0  0  0  0  0  0  0  0  0  0  0
    1.2007    0.6953   -0.0016 C   0  0  0  0  0  0  0  0  0  0  0  0
    2.0706    1.1862   -0.0051 H   0  0  0  0  0  0  0  0  0  0  0  0
  1  5  1  0
  5  8  1  0
  1  2  1  0
  1  3  1  0
  1  4  1  0
  5  6  1  0
  5  7  1  0
  8  9  1  0
  8 10  1  0
  8 11  1  0
 12 16  1  0
 16 17  2  0
 17 19  1  0
 19 21  2  0
 21 23  1  0
 23 25  2  0
 25 16  1  0
 12 13  1  0
 12 14  1  0
 12 15  1  0
 17 18  1  0
 19 20  1  0
 21 22  1  0
 23 24  1  0
 25 26  1  0
M  CHG  1   8   1
M  END
>  <PDB_ID>  (273) 
pdb2e37

>  <RESIDUE_NAME>  (273) 
LYS   PHE

>  <FRAG_NAME>  (273) 
ETAM   MBZ

>  <FRAG_ATOM_NUM>  (273) 
fragi: 11  fragj: 15

>  <atom.prop.CHAIN_ID>  (273) 
A A A A A A A A A A A Z Z Z Z Z Z Z Z Z Z Z Z Z Z Z

>  <atom.prop.IS_HEAVY_ATOM>  (273) 
1 0 0 0 1 0 0 1 0 0 0 1 0 0 0 1 1 0 1 0 1 0 1 0 1 0

>  <DIFUSE_FUNC_ATOM>  (273) 
n/a

>  <FINAL_SINGLE_POINT_ENERGY>  (273) 
0

>  <NONCOV_INTER_ENERGY_QM>  (273) 
0

>  <FF_Energy>  (273) 
-2.47

>  <QM_Energy>  (273) 
-8.24

>  <source>  (273) 
ETAM_MBZ

>  <Index>  (273) 
2607

$$$$
ETAM-pdb2e37-E-LYS-302:MBZ-pdb2e37-E-PHE-306
     RDKit          3D

 26 25  0  0  0  0  0  0  0  0999 V2000
    1.9805   -1.3918   -3.9286 C   0  0  0  0  0  0  0  0  0  0  0  0
    1.5531   -0.5379   -4.2265 H   0  0  0  0  0  0  0  0  0  0  0  0
    2.2047   -1.9488   -4.7281 H   0  0  0  0  0  0  0  0  0  0  0  0
    2.9025   -1.1533   -3.3983 H   0  0  0  0  0  0  0  0  0  0  0  0
    1.0030   -2.1507   -3.0666 C   0  0  0  0  0  0  0  0  0  0  0  0
    1.3671   -3.0614   -2.8739 H   0  0  0  0  0  0  0  0  0  0  0  0
    0.8635   -1.6577   -2.2087 H   0  0  0  0  0  0  0  0  0  0  0  0
   -0.3114   -2.2918   -3.7626 N   0  0  0  0  0  4  0  0  0  0  0  0
   -0.4086   -1.5592   -4.4342 H   0  0  0  0  0  0  0  0  0  0  0  0
   -0.3468   -3.1778   -4.2226 H   0  0  0  0  0  0  0  0  0  0  0  0
   -1.0480   -2.2313   -3.0902 H   0  0  0  0  0  0  0  0  0  0  0  0
   -0.0011    2.9149    0.0247 C   0  0  0  0  0  0  0  0  0  0  0  0
    0.9130    3.2264   -0.1910 H   0  0  0  0  0  0  0  0  0  0  0  0
   -0.2751    3.2072    0.9296 H   0  0  0  0  0  0  0  0  0  0  0  0
   -0.6837    3.3720   -0.6917 H   0  0  0  0  0  0  0  0  0  0  0  0
   -0.0006    1.4116    0.0006 C   0  0  0  0  0  0  0  0  0  0  0  0
   -1.2028    0.6978    0.0003 C   0  0  0  0  0  0  0  0  0  0  0  0
   -2.0687    1.1848   -0.0009 H   0  0  0  0  0  0  0  0  0  0  0  0
   -1.2073   -0.7044    0.0000 C   0  0  0  0  0  0  0  0  0  0  0  0
   -2.0809   -1.1949    0.0012 H   0  0  0  0  0  0  0  0  0  0  0  0
    0.0022   -1.4036   -0.0004 C   0  0  0  0  0  0  0  0  0  0  0  0
   -0.0017   -2.3996   -0.0019 H   0  0  0  0  0  0  0  0  0  0  0  0
    1.2073   -0.7026   -0.0000 C   0  0  0  0  0  0  0  0  0  0  0  0
    2.0882   -1.1952    0.0021 H   0  0  0  0  0  0  0  0  0  0  0  0
    1.2012    0.7013   -0.0004 C   0  0  0  0  0  0  0  0  0  0  0  0
    2.0681    1.1937   -0.0020 H   0  0  0  0  0  0  0  0  0  0  0  0
  1  5  1  0
  5  8  1  0
  1  2  1  0
  1  3  1  0
  1  4  1  0
  5  6  1  0
  5  7  1  0
  8  9  1  0
  8 10  1  0
  8 11  1  0
 12 16  1  0
 16 17  2  0
 17 19  1  0
 19 21  2  0
 21 23  1  0
 23 25  2  0
 25 16  1  0
 12 13  1  0
 12 14  1  0
 12 15  1  0
 17 18  1  0
 19 20  1  0
 21 22  1  0
 23 24  1  0
 25 26  1  0
M  CHG  1   8   1
M  END
>  <PDB_ID>  (274) 
pdb2e37

>  <RESIDUE_NAME>  (274) 
LYS   PHE

>  <FRAG_NAME>  (274) 
ETAM   MBZ

>  <FRAG_ATOM_NUM>  (274) 
fragi: 11  fragj: 15

>  <atom.prop.CHAIN_ID>  (274) 
A A A A A A A A A A A Z Z Z Z Z Z Z Z Z Z Z Z Z Z Z

>  <atom.prop.IS_HEAVY_ATOM>  (274) 
1 0 0 0 1 0 0 1 0 0 0 1 0 0 0 1 1 0 1 0 1 0 1 0 1 0

>  <DIFUSE_FUNC_ATOM>  (274) 
n/a

>  <FINAL_SINGLE_POINT_ENERGY>  (274) 
0

>  <NONCOV_INTER_ENERGY_QM>  (274) 
0

>  <FF_Energy>  (274) 
-0.64

>  <QM_Energy>  (274) 
-7.82

>  <source>  (274) 
ETAM_MBZ

>  <Index>  (274) 
2610

$$$$
ETAM-pdb2e37-G-LYS-302:MBZ-pdb2e37-G-PHE-306
     RDKit          3D

 26 25  0  0  0  0  0  0  0  0999 V2000
    0.7859   -1.5338   -3.9868 C   0  0  0  0  0  0  0  0  0  0  0  0
    0.4753   -0.5901   -4.1052 H   0  0  0  0  0  0  0  0  0  0  0  0
    0.8351   -1.9832   -4.8788 H   0  0  0  0  0  0  0  0  0  0  0  0
    1.7846   -1.5176   -3.5504 H   0  0  0  0  0  0  0  0  0  0  0  0
   -0.2183   -2.2722   -3.1256 C   0  0  0  0  0  0  0  0  0  0  0  0
    0.0757   -3.2163   -3.0165 H   0  0  0  0  0  0  0  0  0  0  0  0
   -0.2790   -1.8264   -2.2377 H   0  0  0  0  0  0  0  0  0  0  0  0
   -1.5559   -2.2467   -3.7797 N   0  0  0  0  0  4  0  0  0  0  0  0
   -1.4690   -2.5653   -4.7233 H   0  0  0  0  0  0  0  0  0  0  0  0
   -2.1808   -2.8462   -3.2796 H   0  0  0  0  0  0  0  0  0  0  0  0
   -1.9099   -1.3122   -3.7727 H   0  0  0  0  0  0  0  0  0  0  0  0
    0.0068    2.9105    0.0646 C   0  0  0  0  0  0  0  0  0  0  0  0
    0.8899    3.2275   -0.2535 H   0  0  0  0  0  0  0  0  0  0  0  0
   -0.1493    3.1780    1.0049 H   0  0  0  0  0  0  0  0  0  0  0  0
   -0.7568    3.3904   -0.5474 H   0  0  0  0  0  0  0  0  0  0  0  0
   -0.0001    1.4085    0.0008 C   0  0  0  0  0  0  0  0  0  0  0  0
   -1.1992    0.6981   -0.0008 C   0  0  0  0  0  0  0  0  0  0  0  0
   -2.0663    1.1853   -0.0036 H   0  0  0  0  0  0  0  0  0  0  0  0
   -1.2061   -0.7022   -0.0000 C   0  0  0  0  0  0  0  0  0  0  0  0
   -2.0824   -1.1918    0.0009 H   0  0  0  0  0  0  0  0  0  0  0  0
   -0.0016   -1.4015    0.0013 C   0  0  0  0  0  0  0  0  0  0  0  0
   -0.0033   -2.3971    0.0027 H   0  0  0  0  0  0  0  0  0  0  0  0
    1.2061   -0.6998    0.0000 C   0  0  0  0  0  0  0  0  0  0  0  0
    2.0853   -1.1964    0.0019 H   0  0  0  0  0  0  0  0  0  0  0  0
    1.2009    0.6969   -0.0013 C   0  0  0  0  0  0  0  0  0  0  0  0
    2.0678    1.1925   -0.0051 H   0  0  0  0  0  0  0  0  0  0  0  0
  1  5  1  0
  5  8  1  0
  1  2  1  0
  1  3  1  0
  1  4  1  0
  5  6  1  0
  5  7  1  0
  8  9  1  0
  8 10  1  0
  8 11  1  0
 12 16  1  0
 16 17  2  0
 17 19  1  0
 19 21  2  0
 21 23  1  0
 23 25  2  0
 25 16  1  0
 12 13  1  0
 12 14  1  0
 12 15  1  0
 17 18  1  0
 19 20  1  0
 21 22  1  0
 23 24  1  0
 25 26  1  0
M  CHG  1   8   1
M  END
>  <PDB_ID>  (275) 
pdb2e37

>  <RESIDUE_NAME>  (275) 
LYS   PHE

>  <FRAG_NAME>  (275) 
ETAM   MBZ

>  <FRAG_ATOM_NUM>  (275) 
fragi: 11  fragj: 15

>  <atom.prop.CHAIN_ID>  (275) 
A A A A A A A A A A A Z Z Z Z Z Z Z Z Z Z Z Z Z Z Z

>  <atom.prop.IS_HEAVY_ATOM>  (275) 
1 0 0 0 1 0 0 1 0 0 0 1 0 0 0 1 1 0 1 0 1 0 1 0 1 0

>  <DIFUSE_FUNC_ATOM>  (275) 
n/a

>  <FINAL_SINGLE_POINT_ENERGY>  (275) 
0

>  <NONCOV_INTER_ENERGY_QM>  (275) 
0

>  <FF_Energy>  (275) 
0.12

>  <QM_Energy>  (275) 
-6.91

>  <source>  (275) 
ETAM_MBZ

>  <Index>  (275) 
2612

$$$$
ETAM-pdb2e37-H-LYS-302:MBZ-pdb2e37-H-PHE-306
     RDKit          3D

 26 25  0  0  0  0  0  0  0  0999 V2000
    0.2722   -1.1870   -4.2378 C   0  0  0  0  0  0  0  0  0  0  0  0
   -0.0300   -0.2399   -4.2328 H   0  0  0  0  0  0  0  0  0  0  0  0
    0.2546   -1.5526   -5.1618 H   0  0  0  0  0  0  0  0  0  0  0  0
    1.2929   -1.2336   -3.8582 H   0  0  0  0  0  0  0  0  0  0  0  0
   -0.6900   -2.0069   -3.3743 C   0  0  0  0  0  0  0  0  0  0  0  0
   -0.4586   -2.9805   -3.4674 H   0  0  0  0  0  0  0  0  0  0  0  0
   -0.5701   -1.7394   -2.4128 H   0  0  0  0  0  0  0  0  0  0  0  0
   -2.1271   -1.8086   -3.7594 N   0  0  0  0  0  4  0  0  0  0  0  0
   -2.4739   -2.6511   -4.1668 H   0  0  0  0  0  0  0  0  0  0  0  0
   -2.6541   -1.5842   -2.9433 H   0  0  0  0  0  0  0  0  0  0  0  0
   -2.1867   -1.0623   -4.4185 H   0  0  0  0  0  0  0  0  0  0  0  0
    0.0093    2.9244    0.0513 C   0  0  0  0  0  0  0  0  0  0  0  0
    0.8769    3.2349   -0.3108 H   0  0  0  0  0  0  0  0  0  0  0  0
   -0.1027    3.1991    0.9959 H   0  0  0  0  0  0  0  0  0  0  0  0
   -0.7810    3.4024   -0.5275 H   0  0  0  0  0  0  0  0  0  0  0  0
   -0.0019    1.4141    0.0010 C   0  0  0  0  0  0  0  0  0  0  0  0
   -1.2036    0.7041    0.0001 C   0  0  0  0  0  0  0  0  0  0  0  0
   -2.0692    1.1903   -0.0021 H   0  0  0  0  0  0  0  0  0  0  0  0
   -1.2097   -0.6994    0.0000 C   0  0  0  0  0  0  0  0  0  0  0  0
   -2.0814   -1.1917    0.0017 H   0  0  0  0  0  0  0  0  0  0  0  0
    0.0052   -1.4060   -0.0004 C   0  0  0  0  0  0  0  0  0  0  0  0
   -0.0063   -2.4012   -0.0009 H   0  0  0  0  0  0  0  0  0  0  0  0
    1.2097   -0.7090   -0.0000 C   0  0  0  0  0  0  0  0  0  0  0  0
    2.0896   -1.1991    0.0022 H   0  0  0  0  0  0  0  0  0  0  0  0
    1.2004    0.6962   -0.0008 C   0  0  0  0  0  0  0  0  0  0  0  0
    2.0686    1.1904   -0.0035 H   0  0  0  0  0  0  0  0  0  0  0  0
  1  5  1  0
  5  8  1  0
  1  2  1  0
  1  3  1  0
  1  4  1  0
  5  6  1  0
  5  7  1  0
  8  9  1  0
  8 10  1  0
  8 11  1  0
 12 16  1  0
 16 17  2  0
 17 19  1  0
 19 21  2  0
 21 23  1  0
 23 25  2  0
 25 16  1  0
 12 13  1  0
 12 14  1  0
 12 15  1  0
 17 18  1  0
 19 20  1  0
 21 22  1  0
 23 24  1  0
 25 26  1  0
M  CHG  1   8   1
M  END
>  <PDB_ID>  (276) 
pdb2e37

>  <RESIDUE_NAME>  (276) 
LYS   PHE

>  <FRAG_NAME>  (276) 
ETAM   MBZ

>  <FRAG_ATOM_NUM>  (276) 
fragi: 11  fragj: 15

>  <atom.prop.CHAIN_ID>  (276) 
A A A A A A A A A A A Z Z Z Z Z Z Z Z Z Z Z Z Z Z Z

>  <atom.prop.IS_HEAVY_ATOM>  (276) 
1 0 0 0 1 0 0 1 0 0 0 1 0 0 0 1 1 0 1 0 1 0 1 0 1 0

>  <DIFUSE_FUNC_ATOM>  (276) 
n/a

>  <FINAL_SINGLE_POINT_ENERGY>  (276) 
0

>  <NONCOV_INTER_ENERGY_QM>  (276) 
0

>  <FF_Energy>  (276) 
-2.56

>  <QM_Energy>  (276) 
-7.94

>  <source>  (276) 
ETAM_MBZ

>  <Index>  (276) 
2613

$$$$
ETAM-pdb2e3d-D-LYS-7:MBZ-pdb2e3d-D-PHE-159
     RDKit          3D

 26 25  0  0  0  0  0  0  0  0999 V2000
    3.6363   -3.2109    0.4739 C   0  0  0  0  0  0  0  0  0  0  0  0
    3.1155   -2.4360    0.1345 H   0  0  0  0  0  0  0  0  0  0  0  0
    3.6877   -3.9260   -0.2133 H   0  0  0  0  0  0  0  0  0  0  0  0
    4.6474   -2.8760    0.7050 H   0  0  0  0  0  0  0  0  0  0  0  0
    2.8970   -3.7848    1.7136 C   0  0  0  0  0  0  0  0  0  0  0  0
    2.9255   -4.8307    1.6293 H   0  0  0  0  0  0  0  0  0  0  0  0
    3.5159   -3.6142    2.5442 H   0  0  0  0  0  0  0  0  0  0  0  0
    1.5058   -3.3860    2.0811 N   0  0  0  0  0  4  0  0  0  0  0  0
    1.5152   -2.9453    2.9770 H   0  0  0  0  0  0  0  0  0  0  0  0
    1.1542   -2.7492    1.3969 H   0  0  0  0  0  0  0  0  0  0  0  0
    0.9272   -4.1997    2.1123 H   0  0  0  0  0  0  0  0  0  0  0  0
    0.0219    2.8811    0.0722 C   0  0  0  0  0  0  0  0  0  0  0  0
   -0.7041    3.2268   -0.4905 H   0  0  0  0  0  0  0  0  0  0  0  0
    0.9053    3.1929   -0.2196 H   0  0  0  0  0  0  0  0  0  0  0  0
   -0.1405    3.2478    1.0857 H   0  0  0  0  0  0  0  0  0  0  0  0
    0.0028    1.3795   -0.0033 C   0  0  0  0  0  0  0  0  0  0  0  0
   -1.2039    0.6844   -0.0264 C   0  0  0  0  0  0  0  0  0  0  0  0
   -2.0616    1.1908   -0.0638 H   0  0  0  0  0  0  0  0  0  0  0  0
   -1.2253   -0.6945   -0.0000 C   0  0  0  0  0  0  0  0  0  0  0  0
   -2.0871   -1.1933    0.0179 H   0  0  0  0  0  0  0  0  0  0  0  0
   -0.0045   -1.3796    0.0024 C   0  0  0  0  0  0  0  0  0  0  0  0
    0.0014   -2.3813    0.0053 H   0  0  0  0  0  0  0  0  0  0  0  0
    1.2253   -0.6810    0.0000 C   0  0  0  0  0  0  0  0  0  0  0  0
    2.0885   -1.1904   -0.0197 H   0  0  0  0  0  0  0  0  0  0  0  0
    1.2057    0.6912    0.0273 C   0  0  0  0  0  0  0  0  0  0  0  0
    2.0645    1.2052    0.0691 H   0  0  0  0  0  0  0  0  0  0  0  0
  1  5  1  0
  5  8  1  0
  1  2  1  0
  1  3  1  0
  1  4  1  0
  5  6  1  0
  5  7  1  0
  8  9  1  0
  8 10  1  0
  8 11  1  0
 12 16  1  0
 16 17  2  0
 17 19  1  0
 19 21  2  0
 21 23  1  0
 23 25  2  0
 25 16  1  0
 12 13  1  0
 12 14  1  0
 12 15  1  0
 17 18  1  0
 19 20  1  0
 21 22  1  0
 23 24  1  0
 25 26  1  0
M  CHG  1   8   1
M  END
>  <PDB_ID>  (277) 
pdb2e3d

>  <RESIDUE_NAME>  (277) 
LYS   PHE

>  <FRAG_NAME>  (277) 
ETAM   MBZ

>  <FRAG_ATOM_NUM>  (277) 
fragi: 11  fragj: 15

>  <atom.prop.CHAIN_ID>  (277) 
A A A A A A A A A A A Z Z Z Z Z Z Z Z Z Z Z Z Z Z Z

>  <atom.prop.IS_HEAVY_ATOM>  (277) 
1 0 0 0 1 0 0 1 0 0 0 1 0 0 0 1 1 0 1 0 1 0 1 0 1 0

>  <DIFUSE_FUNC_ATOM>  (277) 
n/a

>  <FINAL_SINGLE_POINT_ENERGY>  (277) 
0

>  <NONCOV_INTER_ENERGY_QM>  (277) 
0

>  <FF_Energy>  (277) 
11.55

>  <QM_Energy>  (277) 
-5.36

>  <source>  (277) 
ETAM_MBZ

>  <Index>  (277) 
2616

$$$$
ETAM-pdb1dej-A-ASP-1:MBZ-pdb1dej-A-PHE-21
     RDKit          3D

 26 25  0  0  0  0  0  0  0  0999 V2000
   -0.6887    0.9380    3.2451 C   0  0  0  0  0  0  0  0  0  0  0  0
    0.2764    0.8590    3.4560 H   0  0  0  0  0  0  0  0  0  0  0  0
   -0.8489    0.8369    2.2735 H   0  0  0  0  0  0  0  0  0  0  0  0
   -1.0307    1.9263    3.5527 H   0  0  0  0  0  0  0  0  0  0  0  0
   -1.4293   -0.1945    3.9718 C   0  0  0  0  0  0  0  0  0  0  0  0
   -1.3203   -0.4118    4.9393 H   0  0  0  0  0  0  0  0  0  0  0  0
   -2.4050    0.2893    3.9266 H   0  0  0  0  0  0  0  0  0  0  0  0
   -1.3827   -1.4515    3.1875 N   0  0  0  0  0  4  0  0  0  0  0  0
   -2.0910   -1.4299    2.4845 H   0  0  0  0  0  0  0  0  0  0  0  0
   -0.4870   -1.5398    2.7567 H   0  0  0  0  0  0  0  0  0  0  0  0
   -1.5393   -2.2272    3.7960 H   0  0  0  0  0  0  0  0  0  0  0  0
   -0.0727    2.8986   -0.0495 C   0  0  0  0  0  0  0  0  0  0  0  0
    0.6611    3.2603    0.4857 H   0  0  0  0  0  0  0  0  0  0  0  0
   -0.9549    3.1756    0.2708 H   0  0  0  0  0  0  0  0  0  0  0  0
    0.0426    3.2790   -1.0644 H   0  0  0  0  0  0  0  0  0  0  0  0
    0.0009    1.3994   -0.0077 C   0  0  0  0  0  0  0  0  0  0  0  0
   -1.1893    0.6784    0.0034 C   0  0  0  0  0  0  0  0  0  0  0  0
   -2.0615    1.1692    0.0128 H   0  0  0  0  0  0  0  0  0  0  0  0
   -1.1979   -0.7099    0.0000 C   0  0  0  0  0  0  0  0  0  0  0  0
   -2.0708   -1.2020    0.0102 H   0  0  0  0  0  0  0  0  0  0  0  0
    0.0025   -1.3854   -0.0156 C   0  0  0  0  0  0  0  0  0  0  0  0
    0.0118   -2.3886   -0.0386 H   0  0  0  0  0  0  0  0  0  0  0  0
    1.1979   -0.6836   -0.0000 C   0  0  0  0  0  0  0  0  0  0  0  0
    2.0819   -1.1789   -0.0019 H   0  0  0  0  0  0  0  0  0  0  0  0
    1.1859    0.7011    0.0199 C   0  0  0  0  0  0  0  0  0  0  0  0
    2.0577    1.1993    0.0547 H   0  0  0  0  0  0  0  0  0  0  0  0
  1  5  1  0
  5  8  1  0
  1  2  1  0
  1  3  1  0
  1  4  1  0
  5  6  1  0
  5  7  1  0
  8  9  1  0
  8 10  1  0
  8 11  1  0
 12 16  1  0
 16 17  2  0
 17 19  1  0
 19 21  2  0
 21 23  1  0
 23 25  2  0
 25 16  1  0
 12 13  1  0
 12 14  1  0
 12 15  1  0
 17 18  1  0
 19 20  1  0
 21 22  1  0
 23 24  1  0
 25 26  1  0
M  CHG  1   8   1
M  END
>  <PDB_ID>  (278) 
pdb1dej

>  <RESIDUE_NAME>  (278) 
ASP   PHE

>  <FRAG_NAME>  (278) 
ETAM   MBZ

>  <FRAG_ATOM_NUM>  (278) 
fragi: 11  fragj: 15

>  <atom.prop.CHAIN_ID>  (278) 
A A A A A A A A A A A Z Z Z Z Z Z Z Z Z Z Z Z Z Z Z

>  <atom.prop.IS_HEAVY_ATOM>  (278) 
1 0 0 0 1 0 0 1 0 0 0 1 0 0 0 1 1 0 1 0 1 0 1 0 1 0

>  <DIFUSE_FUNC_ATOM>  (278) 
n/a

>  <FINAL_SINGLE_POINT_ENERGY>  (278) 
0

>  <NONCOV_INTER_ENERGY_QM>  (278) 
0

>  <FF_Energy>  (278) 
-2.01

>  <QM_Energy>  (278) 
-11.2

>  <source>  (278) 
ETAM_MBZ

>  <Index>  (278) 
2619

$$$$
ETAM-pdb1dek-A-LYS-117:MBZ-pdb1dek-A-PHE-147
     RDKit          3D

 26 25  0  0  0  0  0  0  0  0999 V2000
    0.5818   -2.4393    3.8152 C   0  0  0  0  0  0  0  0  0  0  0  0
    0.1547   -1.9500    3.0791 H   0  0  0  0  0  0  0  0  0  0  0  0
    0.2157   -2.1940    4.6928 H   0  0  0  0  0  0  0  0  0  0  0  0
    0.4312   -3.5074    3.6589 H   0  0  0  0  0  0  0  0  0  0  0  0
    2.0776   -2.1448    3.8026 C   0  0  0  0  0  0  0  0  0  0  0  0
    2.4535   -2.3425    4.7144 H   0  0  0  0  0  0  0  0  0  0  0  0
    2.5219   -2.7535    3.1357 H   0  0  0  0  0  0  0  0  0  0  0  0
    2.3789   -0.7290    3.4470 N   0  0  0  0  0  4  0  0  0  0  0  0
    3.2610   -0.6866    2.9788 H   0  0  0  0  0  0  0  0  0  0  0  0
    1.6621   -0.3800    2.8443 H   0  0  0  0  0  0  0  0  0  0  0  0
    2.4140   -0.1794    4.2810 H   0  0  0  0  0  0  0  0  0  0  0  0
   -0.0177    2.8903    0.0002 C   0  0  0  0  0  0  0  0  0  0  0  0
   -0.7841    3.1845   -0.5112 H   0  0  0  0  0  0  0  0  0  0  0  0
    0.8380    3.2004   -0.3270 H   0  0  0  0  0  0  0  0  0  0  0  0
   -0.1373    3.2461    1.0235 H   0  0  0  0  0  0  0  0  0  0  0  0
   -0.0029    1.3711   -0.0029 C   0  0  0  0  0  0  0  0  0  0  0  0
   -1.1915    0.6857    0.0096 C   0  0  0  0  0  0  0  0  0  0  0  0
   -2.0574    1.1787    0.0244 H   0  0  0  0  0  0  0  0  0  0  0  0
   -1.1994   -0.6953    0.0000 C   0  0  0  0  0  0  0  0  0  0  0  0
   -2.0630   -1.1954    0.0033 H   0  0  0  0  0  0  0  0  0  0  0  0
    0.0119   -1.3573   -0.0130 C   0  0  0  0  0  0  0  0  0  0  0  0
    0.0059   -2.3760   -0.0335 H   0  0  0  0  0  0  0  0  0  0  0  0
    1.1994   -0.6886   -0.0000 C   0  0  0  0  0  0  0  0  0  0  0  0
    2.0804   -1.1838    0.0058 H   0  0  0  0  0  0  0  0  0  0  0  0
    1.1825    0.6844    0.0063 C   0  0  0  0  0  0  0  0  0  0  0  0
    2.0519    1.1904    0.0169 H   0  0  0  0  0  0  0  0  0  0  0  0
  1  5  1  0
  5  8  1  0
  1  2  1  0
  1  3  1  0
  1  4  1  0
  5  6  1  0
  5  7  1  0
  8  9  1  0
  8 10  1  0
  8 11  1  0
 12 16  1  0
 16 17  2  0
 17 19  1  0
 19 21  2  0
 21 23  1  0
 23 25  2  0
 25 16  1  0
 12 13  1  0
 12 14  1  0
 12 15  1  0
 17 18  1  0
 19 20  1  0
 21 22  1  0
 23 24  1  0
 25 26  1  0
M  CHG  1   8   1
M  END
>  <PDB_ID>  (279) 
pdb1dek

>  <RESIDUE_NAME>  (279) 
LYS   PHE

>  <FRAG_NAME>  (279) 
ETAM   MBZ

>  <FRAG_ATOM_NUM>  (279) 
fragi: 11  fragj: 15

>  <atom.prop.CHAIN_ID>  (279) 
A A A A A A A A A A A Z Z Z Z Z Z Z Z Z Z Z Z Z Z Z

>  <atom.prop.IS_HEAVY_ATOM>  (279) 
1 0 0 0 1 0 0 1 0 0 0 1 0 0 0 1 1 0 1 0 1 0 1 0 1 0

>  <DIFUSE_FUNC_ATOM>  (279) 
n/a

>  <FINAL_SINGLE_POINT_ENERGY>  (279) 
0

>  <NONCOV_INTER_ENERGY_QM>  (279) 
0

>  <FF_Energy>  (279) 
-4.46

>  <QM_Energy>  (279) 
-9.79

>  <source>  (279) 
ETAM_MBZ

>  <Index>  (279) 
2621

$$$$
ETAM-pdb1dfo-C-LYS-346:MBZ-pdb1dfo-C-PHE-357
     RDKit          3D

 26 25  0  0  0  0  0  0  0  0999 V2000
   -0.6354    0.9223    5.4675 C   0  0  0  0  0  0  0  0  0  0  0  0
   -0.0260    1.6492    5.1728 H   0  0  0  0  0  0  0  0  0  0  0  0
   -0.1181    0.1731    5.8638 H   0  0  0  0  0  0  0  0  0  0  0  0
   -1.3320    1.3132    6.2091 H   0  0  0  0  0  0  0  0  0  0  0  0
   -1.3809    0.3970    4.2459 C   0  0  0  0  0  0  0  0  0  0  0  0
   -2.0732   -0.2621    4.5473 H   0  0  0  0  0  0  0  0  0  0  0  0
   -1.8383    1.1643    3.7894 H   0  0  0  0  0  0  0  0  0  0  0  0
   -0.4606   -0.2688    3.2774 N   0  0  0  0  0  4  0  0  0  0  0  0
    0.3600    0.2900    3.1660 H   0  0  0  0  0  0  0  0  0  0  0  0
   -0.2097   -1.1701    3.6277 H   0  0  0  0  0  0  0  0  0  0  0  0
   -0.9232   -0.3673    2.3975 H   0  0  0  0  0  0  0  0  0  0  0  0
   -0.0062    2.9112    0.0510 C   0  0  0  0  0  0  0  0  0  0  0  0
   -0.6451    3.2371   -0.6267 H   0  0  0  0  0  0  0  0  0  0  0  0
    0.9108    3.2272   -0.1305 H   0  0  0  0  0  0  0  0  0  0  0  0
   -0.3118    3.3099    1.0183 H   0  0  0  0  0  0  0  0  0  0  0  0
    0.0008    1.4077    0.0000 C   0  0  0  0  0  0  0  0  0  0  0  0
   -1.1998    0.6942   -0.0014 C   0  0  0  0  0  0  0  0  0  0  0  0
   -2.0658    1.1838   -0.0044 H   0  0  0  0  0  0  0  0  0  0  0  0
   -1.2078   -0.7048    0.0000 C   0  0  0  0  0  0  0  0  0  0  0  0
   -2.0827   -1.1943    0.0002 H   0  0  0  0  0  0  0  0  0  0  0  0
   -0.0022   -1.4010    0.0024 C   0  0  0  0  0  0  0  0  0  0  0  0
   -0.0010   -2.3974    0.0058 H   0  0  0  0  0  0  0  0  0  0  0  0
    1.2078   -0.6971   -0.0000 C   0  0  0  0  0  0  0  0  0  0  0  0
    2.0863   -1.1939    0.0005 H   0  0  0  0  0  0  0  0  0  0  0  0
    1.2012    0.7010   -0.0009 C   0  0  0  0  0  0  0  0  0  0  0  0
    2.0679    1.1957   -0.0031 H   0  0  0  0  0  0  0  0  0  0  0  0
  1  5  1  0
  5  8  1  0
  1  2  1  0
  1  3  1  0
  1  4  1  0
  5  6  1  0
  5  7  1  0
  8  9  1  0
  8 10  1  0
  8 11  1  0
 12 16  1  0
 16 17  2  0
 17 19  1  0
 19 21  2  0
 21 23  1  0
 23 25  2  0
 25 16  1  0
 12 13  1  0
 12 14  1  0
 12 15  1  0
 17 18  1  0
 19 20  1  0
 21 22  1  0
 23 24  1  0
 25 26  1  0
M  CHG  1   8   1
M  END
>  <PDB_ID>  (280) 
pdb1dfo

>  <RESIDUE_NAME>  (280) 
LYS   PHE

>  <FRAG_NAME>  (280) 
ETAM   MBZ

>  <FRAG_ATOM_NUM>  (280) 
fragi: 11  fragj: 15

>  <atom.prop.CHAIN_ID>  (280) 
A A A A A A A A A A A Z Z Z Z Z Z Z Z Z Z Z Z Z Z Z

>  <atom.prop.IS_HEAVY_ATOM>  (280) 
1 0 0 0 1 0 0 1 0 0 0 1 0 0 0 1 1 0 1 0 1 0 1 0 1 0

>  <DIFUSE_FUNC_ATOM>  (280) 
n/a

>  <FINAL_SINGLE_POINT_ENERGY>  (280) 
0

>  <NONCOV_INTER_ENERGY_QM>  (280) 
0

>  <FF_Energy>  (280) 
-8.58

>  <QM_Energy>  (280) 
-16.2

>  <source>  (280) 
ETAM_MBZ

>  <Index>  (280) 
2657

$$$$
ETAM-pdb1dfo-D-LYS-346:MBZ-pdb1dfo-D-PHE-357
     RDKit          3D

 26 25  0  0  0  0  0  0  0  0999 V2000
   -0.6625    0.9764    5.4570 C   0  0  0  0  0  0  0  0  0  0  0  0
   -0.0577    1.7124    5.1796 H   0  0  0  0  0  0  0  0  0  0  0  0
   -0.1482    0.2311    5.8612 H   0  0  0  0  0  0  0  0  0  0  0  0
   -1.3704    1.3588    6.1924 H   0  0  0  0  0  0  0  0  0  0  0  0
   -1.3896    0.4548    4.2294 C   0  0  0  0  0  0  0  0  0  0  0  0
   -2.0857   -0.2064    4.5203 H   0  0  0  0  0  0  0  0  0  0  0  0
   -1.8435    1.2220    3.7690 H   0  0  0  0  0  0  0  0  0  0  0  0
   -0.4570   -0.2034    3.2772 N   0  0  0  0  0  4  0  0  0  0  0  0
   -0.6368    0.1296    2.3522 H   0  0  0  0  0  0  0  0  0  0  0  0
    0.4857    0.0116    3.5326 H   0  0  0  0  0  0  0  0  0  0  0  0
   -0.5937   -1.1931    3.3081 H   0  0  0  0  0  0  0  0  0  0  0  0
   -0.0062    2.9149    0.0430 C   0  0  0  0  0  0  0  0  0  0  0  0
   -0.6406    3.2380   -0.6398 H   0  0  0  0  0  0  0  0  0  0  0  0
    0.9119    3.2302   -0.1340 H   0  0  0  0  0  0  0  0  0  0  0  0
   -0.3179    3.3190    1.0060 H   0  0  0  0  0  0  0  0  0  0  0  0
    0.0002    1.4121    0.0005 C   0  0  0  0  0  0  0  0  0  0  0  0
   -1.2021    0.6981   -0.0002 C   0  0  0  0  0  0  0  0  0  0  0  0
   -2.0676    1.1849   -0.0022 H   0  0  0  0  0  0  0  0  0  0  0  0
   -1.2079   -0.7049   -0.0000 C   0  0  0  0  0  0  0  0  0  0  0  0
   -2.0829   -1.1943    0.0001 H   0  0  0  0  0  0  0  0  0  0  0  0
   -0.0004   -1.4054    0.0016 C   0  0  0  0  0  0  0  0  0  0  0  0
   -0.0020   -2.4002    0.0039 H   0  0  0  0  0  0  0  0  0  0  0  0
    1.2079   -0.7017    0.0000 C   0  0  0  0  0  0  0  0  0  0  0  0
    2.0875   -1.1960    0.0020 H   0  0  0  0  0  0  0  0  0  0  0  0
    1.2023    0.7018   -0.0020 C   0  0  0  0  0  0  0  0  0  0  0  0
    2.0689    1.1947   -0.0057 H   0  0  0  0  0  0  0  0  0  0  0  0
  1  5  1  0
  5  8  1  0
  1  2  1  0
  1  3  1  0
  1  4  1  0
  5  6  1  0
  5  7  1  0
  8  9  1  0
  8 10  1  0
  8 11  1  0
 12 16  1  0
 16 17  2  0
 17 19  1  0
 19 21  2  0
 21 23  1  0
 23 25  2  0
 25 16  1  0
 12 13  1  0
 12 14  1  0
 12 15  1  0
 17 18  1  0
 19 20  1  0
 21 22  1  0
 23 24  1  0
 25 26  1  0
M  CHG  1   8   1
M  END
>  <PDB_ID>  (281) 
pdb1dfo

>  <RESIDUE_NAME>  (281) 
LYS   PHE

>  <FRAG_NAME>  (281) 
ETAM   MBZ

>  <FRAG_ATOM_NUM>  (281) 
fragi: 11  fragj: 15

>  <atom.prop.CHAIN_ID>  (281) 
A A A A A A A A A A A Z Z Z Z Z Z Z Z Z Z Z Z Z Z Z

>  <atom.prop.IS_HEAVY_ATOM>  (281) 
1 0 0 0 1 0 0 1 0 0 0 1 0 0 0 1 1 0 1 0 1 0 1 0 1 0

>  <DIFUSE_FUNC_ATOM>  (281) 
n/a

>  <FINAL_SINGLE_POINT_ENERGY>  (281) 
0

>  <NONCOV_INTER_ENERGY_QM>  (281) 
0

>  <FF_Energy>  (281) 
-8.87

>  <QM_Energy>  (281) 
-16.61

>  <source>  (281) 
ETAM_MBZ

>  <Index>  (281) 
2658

$$$$
ETAM-pdb1dg3-A-LYS-209:MBZ-pdb1dg3-A-PHE-219
     RDKit          3D

 26 25  0  0  0  0  0  0  0  0999 V2000
    0.7172    0.9521   -3.7776 C   0  0  0  0  0  0  0  0  0  0  0  0
    0.4759    1.0942   -2.8238 H   0  0  0  0  0  0  0  0  0  0  0  0
    0.8679    1.8235   -4.2318 H   0  0  0  0  0  0  0  0  0  0  0  0
    1.6373    0.3694   -3.8223 H   0  0  0  0  0  0  0  0  0  0  0  0
   -0.4324    0.2342   -4.4691 C   0  0  0  0  0  0  0  0  0  0  0  0
   -1.2653    0.7862   -4.3710 H   0  0  0  0  0  0  0  0  0  0  0  0
   -0.2178    0.1418   -5.4447 H   0  0  0  0  0  0  0  0  0  0  0  0
   -0.6703   -1.1169   -3.8916 N   0  0  0  0  0  4  0  0  0  0  0  0
   -0.0352   -1.2711   -3.1354 H   0  0  0  0  0  0  0  0  0  0  0  0
   -1.6104   -1.1733   -3.5561 H   0  0  0  0  0  0  0  0  0  0  0  0
   -0.5244   -1.8093   -4.5979 H   0  0  0  0  0  0  0  0  0  0  0  0
    0.0082    2.9069   -0.0056 C   0  0  0  0  0  0  0  0  0  0  0  0
   -0.8193    3.2161   -0.4539 H   0  0  0  0  0  0  0  0  0  0  0  0
    0.8137    3.2085   -0.4972 H   0  0  0  0  0  0  0  0  0  0  0  0
    0.0366    3.3598    0.9854 H   0  0  0  0  0  0  0  0  0  0  0  0
    0.0015    1.4037    0.0003 C   0  0  0  0  0  0  0  0  0  0  0  0
   -1.1974    0.6955    0.0014 C   0  0  0  0  0  0  0  0  0  0  0  0
   -2.0635    1.1859    0.0021 H   0  0  0  0  0  0  0  0  0  0  0  0
   -1.2036   -0.6986   -0.0000 C   0  0  0  0  0  0  0  0  0  0  0  0
   -2.0793   -1.1912    0.0001 H   0  0  0  0  0  0  0  0  0  0  0  0
    0.0011   -1.3989   -0.0007 C   0  0  0  0  0  0  0  0  0  0  0  0
   -0.0024   -2.3942   -0.0021 H   0  0  0  0  0  0  0  0  0  0  0  0
    1.2036   -0.6972    0.0000 C   0  0  0  0  0  0  0  0  0  0  0  0
    2.0849   -1.1927    0.0028 H   0  0  0  0  0  0  0  0  0  0  0  0
    1.1948    0.6956   -0.0010 C   0  0  0  0  0  0  0  0  0  0  0  0
    2.0648    1.1917   -0.0036 H   0  0  0  0  0  0  0  0  0  0  0  0
  1  5  1  0
  5  8  1  0
  1  2  1  0
  1  3  1  0
  1  4  1  0
  5  6  1  0
  5  7  1  0
  8  9  1  0
  8 10  1  0
  8 11  1  0
 12 16  1  0
 16 17  2  0
 17 19  1  0
 19 21  2  0
 21 23  1  0
 23 25  2  0
 25 16  1  0
 12 13  1  0
 12 14  1  0
 12 15  1  0
 17 18  1  0
 19 20  1  0
 21 22  1  0
 23 24  1  0
 25 26  1  0
M  CHG  1   8   1
M  END
>  <PDB_ID>  (282) 
pdb1dg3

>  <RESIDUE_NAME>  (282) 
LYS   PHE

>  <FRAG_NAME>  (282) 
ETAM   MBZ

>  <FRAG_ATOM_NUM>  (282) 
fragi: 11  fragj: 15

>  <atom.prop.CHAIN_ID>  (282) 
A A A A A A A A A A A Z Z Z Z Z Z Z Z Z Z Z Z Z Z Z

>  <atom.prop.IS_HEAVY_ATOM>  (282) 
1 0 0 0 1 0 0 1 0 0 0 1 0 0 0 1 1 0 1 0 1 0 1 0 1 0

>  <DIFUSE_FUNC_ATOM>  (282) 
n/a

>  <FINAL_SINGLE_POINT_ENERGY>  (282) 
0

>  <NONCOV_INTER_ENERGY_QM>  (282) 
0

>  <FF_Energy>  (282) 
-6.15

>  <QM_Energy>  (282) 
-11.16

>  <source>  (282) 
ETAM_MBZ

>  <Index>  (282) 
2662

$$$$
ETAM-pdb1dgm-A-LYS-80:MBZ-pdb1dgm-A-PHE-358
     RDKit          3D

 26 25  0  0  0  0  0  0  0  0999 V2000
   -1.2015   -1.0077   -3.6274 C   0  0  0  0  0  0  0  0  0  0  0  0
   -1.2402   -1.4772   -2.7527 H   0  0  0  0  0  0  0  0  0  0  0  0
   -0.8508   -1.6133   -4.3327 H   0  0  0  0  0  0  0  0  0  0  0  0
   -2.2077   -0.6914   -3.9020 H   0  0  0  0  0  0  0  0  0  0  0  0
   -0.2695    0.1815   -3.5002 C   0  0  0  0  0  0  0  0  0  0  0  0
   -0.3186    0.7255   -4.3440 H   0  0  0  0  0  0  0  0  0  0  0  0
   -0.5733    0.7526   -2.7311 H   0  0  0  0  0  0  0  0  0  0  0  0
    1.1356   -0.2383   -3.2707 N   0  0  0  0  0  4  0  0  0  0  0  0
    1.3157   -1.0869   -3.7685 H   0  0  0  0  0  0  0  0  0  0  0  0
    1.7550    0.4768   -3.5965 H   0  0  0  0  0  0  0  0  0  0  0  0
    1.2837   -0.3867   -2.2929 H   0  0  0  0  0  0  0  0  0  0  0  0
   -0.0147    2.8973   -0.0287 C   0  0  0  0  0  0  0  0  0  0  0  0
    0.9183    3.2154    0.0389 H   0  0  0  0  0  0  0  0  0  0  0  0
   -0.5617    3.2148    0.7299 H   0  0  0  0  0  0  0  0  0  0  0  0
   -0.4417    3.3090   -0.9432 H   0  0  0  0  0  0  0  0  0  0  0  0
   -0.0016    1.4009   -0.0004 C   0  0  0  0  0  0  0  0  0  0  0  0
   -1.1979    0.6895    0.0009 C   0  0  0  0  0  0  0  0  0  0  0  0
   -2.0656    1.1802    0.0015 H   0  0  0  0  0  0  0  0  0  0  0  0
   -1.2029   -0.7009    0.0000 C   0  0  0  0  0  0  0  0  0  0  0  0
   -2.0769   -1.1960    0.0008 H   0  0  0  0  0  0  0  0  0  0  0  0
    0.0025   -1.3943   -0.0011 C   0  0  0  0  0  0  0  0  0  0  0  0
    0.0003   -2.3926   -0.0031 H   0  0  0  0  0  0  0  0  0  0  0  0
    1.2029   -0.6952   -0.0000 C   0  0  0  0  0  0  0  0  0  0  0  0
    2.0849   -1.1896    0.0016 H   0  0  0  0  0  0  0  0  0  0  0  0
    1.1970    0.7000    0.0006 C   0  0  0  0  0  0  0  0  0  0  0  0
    2.0635    1.1953    0.0013 H   0  0  0  0  0  0  0  0  0  0  0  0
  1  5  1  0
  5  8  1  0
  1  2  1  0
  1  3  1  0
  1  4  1  0
  5  6  1  0
  5  7  1  0
  8  9  1  0
  8 10  1  0
  8 11  1  0
 12 16  1  0
 16 17  2  0
 17 19  1  0
 19 21  2  0
 21 23  1  0
 23 25  2  0
 25 16  1  0
 12 13  1  0
 12 14  1  0
 12 15  1  0
 17 18  1  0
 19 20  1  0
 21 22  1  0
 23 24  1  0
 25 26  1  0
M  CHG  1   8   1
M  END
>  <PDB_ID>  (283) 
pdb1dgm

>  <RESIDUE_NAME>  (283) 
LYS   PHE

>  <FRAG_NAME>  (283) 
ETAM   MBZ

>  <FRAG_ATOM_NUM>  (283) 
fragi: 11  fragj: 15

>  <atom.prop.CHAIN_ID>  (283) 
A A A A A A A A A A A Z Z Z Z Z Z Z Z Z Z Z Z Z Z Z

>  <atom.prop.IS_HEAVY_ATOM>  (283) 
1 0 0 0 1 0 0 1 0 0 0 1 0 0 0 1 1 0 1 0 1 0 1 0 1 0

>  <DIFUSE_FUNC_ATOM>  (283) 
n/a

>  <FINAL_SINGLE_POINT_ENERGY>  (283) 
0

>  <NONCOV_INTER_ENERGY_QM>  (283) 
0

>  <FF_Energy>  (283) 
-8.43

>  <QM_Energy>  (283) 
-16.46

>  <source>  (283) 
ETAM_MBZ

>  <Index>  (283) 
2669

$$$$
ETAM-pdb1dhy-A-LYS-155:MBZ-pdb1dhy-A-PHE-109
     RDKit          3D

 26 25  0  0  0  0  0  0  0  0999 V2000
   -1.0112   -4.8192   -3.0630 C   0  0  0  0  0  0  0  0  0  0  0  0
   -1.2947   -4.4196   -3.9295 H   0  0  0  0  0  0  0  0  0  0  0  0
   -0.7453   -5.7689   -3.1923 H   0  0  0  0  0  0  0  0  0  0  0  0
   -0.1597   -4.2601   -2.6751 H   0  0  0  0  0  0  0  0  0  0  0  0
   -2.2183   -4.7867   -2.1032 C   0  0  0  0  0  0  0  0  0  0  0  0
   -2.9336   -5.3885   -2.4684 H   0  0  0  0  0  0  0  0  0  0  0  0
   -1.9266   -5.1365   -1.2086 H   0  0  0  0  0  0  0  0  0  0  0  0
   -2.7900   -3.4016   -1.9230 N   0  0  0  0  0  4  0  0  0  0  0  0
   -3.7043   -3.4797   -1.5340 H   0  0  0  0  0  0  0  0  0  0  0  0
   -2.1985   -2.8876   -1.3086 H   0  0  0  0  0  0  0  0  0  0  0  0
   -2.8330   -2.9537   -2.8118 H   0  0  0  0  0  0  0  0  0  0  0  0
    0.0004    2.9446   -0.0210 C   0  0  0  0  0  0  0  0  0  0  0  0
    0.9091    3.2411   -0.2574 H   0  0  0  0  0  0  0  0  0  0  0  0
   -0.2701    3.2558    0.8724 H   0  0  0  0  0  0  0  0  0  0  0  0
   -0.6903    3.3731   -0.7472 H   0  0  0  0  0  0  0  0  0  0  0  0
   -0.0002    1.4193   -0.0014 C   0  0  0  0  0  0  0  0  0  0  0  0
   -1.2038    0.6915    0.0001 C   0  0  0  0  0  0  0  0  0  0  0  0
   -2.0720    1.1712    0.0000 H   0  0  0  0  0  0  0  0  0  0  0  0
   -1.2045   -0.7219    0.0000 C   0  0  0  0  0  0  0  0  0  0  0  0
   -2.0765   -1.2082    0.0004 H   0  0  0  0  0  0  0  0  0  0  0  0
    0.0046   -1.4043    0.0012 C   0  0  0  0  0  0  0  0  0  0  0  0
    0.0133   -2.4030    0.0023 H   0  0  0  0  0  0  0  0  0  0  0  0
    1.2045   -0.6941   -0.0000 C   0  0  0  0  0  0  0  0  0  0  0  0
    2.0893   -1.1848    0.0004 H   0  0  0  0  0  0  0  0  0  0  0  0
    1.1994    0.7095    0.0001 C   0  0  0  0  0  0  0  0  0  0  0  0
    2.0670    1.2012    0.0003 H   0  0  0  0  0  0  0  0  0  0  0  0
  1  5  1  0
  5  8  1  0
  1  2  1  0
  1  3  1  0
  1  4  1  0
  5  6  1  0
  5  7  1  0
  8  9  1  0
  8 10  1  0
  8 11  1  0
 12 16  1  0
 16 17  2  0
 17 19  1  0
 19 21  2  0
 21 23  1  0
 23 25  2  0
 25 16  1  0
 12 13  1  0
 12 14  1  0
 12 15  1  0
 17 18  1  0
 19 20  1  0
 21 22  1  0
 23 24  1  0
 25 26  1  0
M  CHG  1   8   1
M  END
>  <PDB_ID>  (284) 
pdb1dhy

>  <RESIDUE_NAME>  (284) 
LYS   PHE

>  <FRAG_NAME>  (284) 
ETAM   MBZ

>  <FRAG_ATOM_NUM>  (284) 
fragi: 11  fragj: 15

>  <atom.prop.CHAIN_ID>  (284) 
A A A A A A A A A A A Z Z Z Z Z Z Z Z Z Z Z Z Z Z Z

>  <atom.prop.IS_HEAVY_ATOM>  (284) 
1 0 0 0 1 0 0 1 0 0 0 1 0 0 0 1 1 0 1 0 1 0 1 0 1 0

>  <DIFUSE_FUNC_ATOM>  (284) 
n/a

>  <FINAL_SINGLE_POINT_ENERGY>  (284) 
0

>  <NONCOV_INTER_ENERGY_QM>  (284) 
0

>  <FF_Energy>  (284) 
-0.14

>  <QM_Energy>  (284) 
-5.4

>  <source>  (284) 
ETAM_MBZ

>  <Index>  (284) 
2703

$$$$
ETAM-pdb1dio-B-LYS-215:MBZ-pdb1dio-B-PHE-108
     RDKit          3D

 26 25  0  0  0  0  0  0  0  0999 V2000
   -0.6461    0.7548   -3.2024 C   0  0  0  0  0  0  0  0  0  0  0  0
   -0.1707    1.2666   -2.4768 H   0  0  0  0  0  0  0  0  0  0  0  0
   -1.2459    0.0719   -2.7683 H   0  0  0  0  0  0  0  0  0  0  0  0
   -1.2582    1.4475   -3.7800 H   0  0  0  0  0  0  0  0  0  0  0  0
    0.3742    0.0380   -4.0304 C   0  0  0  0  0  0  0  0  0  0  0  0
    0.0720   -0.0104   -4.9677 H   0  0  0  0  0  0  0  0  0  0  0  0
    1.2482    0.4873   -3.9500 H   0  0  0  0  0  0  0  0  0  0  0  0
    0.4829   -1.3418   -3.4805 N   0  0  0  0  0  4  0  0  0  0  0  0
    1.1828   -1.8452   -3.9861 H   0  0  0  0  0  0  0  0  0  0  0  0
    0.7360   -1.2939   -2.5151 H   0  0  0  0  0  0  0  0  0  0  0  0
   -0.3976   -1.8057   -3.5746 H   0  0  0  0  0  0  0  0  0  0  0  0
   -0.1343    2.8633    0.0104 C   0  0  0  0  0  0  0  0  0  0  0  0
   -0.9581    3.1056   -0.4387 H   0  0  0  0  0  0  0  0  0  0  0  0
    0.6675    3.2471   -0.3756 H   0  0  0  0  0  0  0  0  0  0  0  0
   -0.2040    3.2042    1.0434 H   0  0  0  0  0  0  0  0  0  0  0  0
   -0.0033    1.3676   -0.0070 C   0  0  0  0  0  0  0  0  0  0  0  0
   -1.2137    0.6718   -0.0090 C   0  0  0  0  0  0  0  0  0  0  0  0
   -2.0680    1.1658   -0.0180 H   0  0  0  0  0  0  0  0  0  0  0  0
   -1.1973   -0.7009    0.0000 C   0  0  0  0  0  0  0  0  0  0  0  0
   -2.0593   -1.2162    0.0012 H   0  0  0  0  0  0  0  0  0  0  0  0
    0.0140   -1.3524    0.0097 C   0  0  0  0  0  0  0  0  0  0  0  0
    0.0134   -2.3751    0.0237 H   0  0  0  0  0  0  0  0  0  0  0  0
    1.1973   -0.6831    0.0000 C   0  0  0  0  0  0  0  0  0  0  0  0
    2.0833   -1.1841   -0.0107 H   0  0  0  0  0  0  0  0  0  0  0  0
    1.2030    0.6969    0.0064 C   0  0  0  0  0  0  0  0  0  0  0  0
    2.0574    1.1967    0.0198 H   0  0  0  0  0  0  0  0  0  0  0  0
  1  5  1  0
  5  8  1  0
  1  2  1  0
  1  3  1  0
  1  4  1  0
  5  6  1  0
  5  7  1  0
  8  9  1  0
  8 10  1  0
  8 11  1  0
 12 16  1  0
 16 17  2  0
 17 19  1  0
 19 21  2  0
 21 23  1  0
 23 25  2  0
 25 16  1  0
 12 13  1  0
 12 14  1  0
 12 15  1  0
 17 18  1  0
 19 20  1  0
 21 22  1  0
 23 24  1  0
 25 26  1  0
M  CHG  1   8   1
M  END
>  <PDB_ID>  (285) 
pdb1dio

>  <RESIDUE_NAME>  (285) 
LYS   PHE

>  <FRAG_NAME>  (285) 
ETAM   MBZ

>  <FRAG_ATOM_NUM>  (285) 
fragi: 11  fragj: 15

>  <atom.prop.CHAIN_ID>  (285) 
A A A A A A A A A A A Z Z Z Z Z Z Z Z Z Z Z Z Z Z Z

>  <atom.prop.IS_HEAVY_ATOM>  (285) 
1 0 0 0 1 0 0 1 0 0 0 1 0 0 0 1 1 0 1 0 1 0 1 0 1 0

>  <DIFUSE_FUNC_ATOM>  (285) 
n/a

>  <FINAL_SINGLE_POINT_ENERGY>  (285) 
0

>  <NONCOV_INTER_ENERGY_QM>  (285) 
0

>  <FF_Energy>  (285) 
-5.48

>  <QM_Energy>  (285) 
-13.04

>  <source>  (285) 
ETAM_MBZ

>  <Index>  (285) 
2707

$$$$
ETAM-pdb1dik-A-LYS-247:MBZ-pdb1dik-A-PHE-128
     RDKit          3D

 26 25  0  0  0  0  0  0  0  0999 V2000
    1.3989   -0.5536   -3.4372 C   0  0  0  0  0  0  0  0  0  0  0  0
    1.8528    0.1956   -3.8967 H   0  0  0  0  0  0  0  0  0  0  0  0
    1.1212   -0.2976   -2.5233 H   0  0  0  0  0  0  0  0  0  0  0  0
    0.5260   -0.8609   -4.0131 H   0  0  0  0  0  0  0  0  0  0  0  0
    2.3604   -1.7120   -3.3410 C   0  0  0  0  0  0  0  0  0  0  0  0
    2.6347   -1.9863   -4.2572 H   0  0  0  0  0  0  0  0  0  0  0  0
    3.1563   -1.4340   -2.8124 H   0  0  0  0  0  0  0  0  0  0  0  0
    1.6902   -2.8390   -2.6683 N   0  0  0  0  0  4  0  0  0  0  0  0
    2.3335   -3.5992   -2.5589 H   0  0  0  0  0  0  0  0  0  0  0  0
    1.3651   -2.5494   -1.7654 H   0  0  0  0  0  0  0  0  0  0  0  0
    0.9093   -3.1450   -3.2171 H   0  0  0  0  0  0  0  0  0  0  0  0
    0.0107    2.8604    0.0318 C   0  0  0  0  0  0  0  0  0  0  0  0
   -0.1642    3.2018   -0.8855 H   0  0  0  0  0  0  0  0  0  0  0  0
    0.8989    3.1709    0.3537 H   0  0  0  0  0  0  0  0  0  0  0  0
   -0.7419    3.2970    0.6884 H   0  0  0  0  0  0  0  0  0  0  0  0
    0.0031    1.3949    0.0016 C   0  0  0  0  0  0  0  0  0  0  0  0
   -1.1871    0.6870   -0.0027 C   0  0  0  0  0  0  0  0  0  0  0  0
   -2.0581    1.1776   -0.0097 H   0  0  0  0  0  0  0  0  0  0  0  0
   -1.1999   -0.7059   -0.0000 C   0  0  0  0  0  0  0  0  0  0  0  0
   -2.0749   -1.1942    0.0015 H   0  0  0  0  0  0  0  0  0  0  0  0
    0.0010   -1.3921    0.0018 C   0  0  0  0  0  0  0  0  0  0  0  0
    0.0072   -2.3914    0.0038 H   0  0  0  0  0  0  0  0  0  0  0  0
    1.1999   -0.6870    0.0000 C   0  0  0  0  0  0  0  0  0  0  0  0
    2.0829   -1.1788    0.0004 H   0  0  0  0  0  0  0  0  0  0  0  0
    1.1830    0.7031   -0.0007 C   0  0  0  0  0  0  0  0  0  0  0  0
    2.0584    1.1989   -0.0036 H   0  0  0  0  0  0  0  0  0  0  0  0
  1  5  1  0
  5  8  1  0
  1  2  1  0
  1  3  1  0
  1  4  1  0
  5  6  1  0
  5  7  1  0
  8  9  1  0
  8 10  1  0
  8 11  1  0
 12 16  1  0
 16 17  2  0
 17 19  1  0
 19 21  2  0
 21 23  1  0
 23 25  2  0
 25 16  1  0
 12 13  1  0
 12 14  1  0
 12 15  1  0
 17 18  1  0
 19 20  1  0
 21 22  1  0
 23 24  1  0
 25 26  1  0
M  CHG  1   8   1
M  END
>  <PDB_ID>  (286) 
pdb1dik

>  <RESIDUE_NAME>  (286) 
LYS   PHE

>  <FRAG_NAME>  (286) 
ETAM   MBZ

>  <FRAG_ATOM_NUM>  (286) 
fragi: 11  fragj: 15

>  <atom.prop.CHAIN_ID>  (286) 
A A A A A A A A A A A Z Z Z Z Z Z Z Z Z Z Z Z Z Z Z

>  <atom.prop.IS_HEAVY_ATOM>  (286) 
1 0 0 0 1 0 0 1 0 0 0 1 0 0 0 1 1 0 1 0 1 0 1 0 1 0

>  <DIFUSE_FUNC_ATOM>  (286) 
n/a

>  <FINAL_SINGLE_POINT_ENERGY>  (286) 
0

>  <NONCOV_INTER_ENERGY_QM>  (286) 
0

>  <FF_Energy>  (286) 
-2.42

>  <QM_Energy>  (286) 
-10.13

>  <source>  (286) 
ETAM_MBZ

>  <Index>  (286) 
2722

$$$$
ETAM-pdb2ea7-A-LYS-136:MBZ-pdb2ea7-A-PHE-83
     RDKit          3D

 26 25  0  0  0  0  0  0  0  0999 V2000
    0.2109    1.2858   -4.2394 C   0  0  0  0  0  0  0  0  0  0  0  0
   -0.0304    1.7212   -3.3805 H   0  0  0  0  0  0  0  0  0  0  0  0
   -0.5847    1.2051   -4.8274 H   0  0  0  0  0  0  0  0  0  0  0  0
    0.9597    1.8972   -4.7429 H   0  0  0  0  0  0  0  0  0  0  0  0
    0.7407   -0.1180   -3.9423 C   0  0  0  0  0  0  0  0  0  0  0  0
    1.0467   -0.5352   -4.8071 H   0  0  0  0  0  0  0  0  0  0  0  0
    1.5394   -0.0374   -3.3329 H   0  0  0  0  0  0  0  0  0  0  0  0
   -0.2726   -1.0039   -3.3045 N   0  0  0  0  0  4  0  0  0  0  0  0
   -0.3641   -1.8418   -3.8407 H   0  0  0  0  0  0  0  0  0  0  0  0
    0.0223   -1.2298   -2.3766 H   0  0  0  0  0  0  0  0  0  0  0  0
   -1.1517   -0.5299   -3.2700 H   0  0  0  0  0  0  0  0  0  0  0  0
   -0.0276    2.9138   -0.0575 C   0  0  0  0  0  0  0  0  0  0  0  0
   -0.9190    3.2165    0.2573 H   0  0  0  0  0  0  0  0  0  0  0  0
    0.1236    3.1871   -0.9995 H   0  0  0  0  0  0  0  0  0  0  0  0
    0.7246    3.4113    0.5547 H   0  0  0  0  0  0  0  0  0  0  0  0
   -0.0014    1.4078   -0.0000 C   0  0  0  0  0  0  0  0  0  0  0  0
   -1.1973    0.6914    0.0003 C   0  0  0  0  0  0  0  0  0  0  0  0
   -2.0664    1.1794   -0.0008 H   0  0  0  0  0  0  0  0  0  0  0  0
   -1.2041   -0.7059   -0.0000 C   0  0  0  0  0  0  0  0  0  0  0  0
   -2.0796   -1.1965    0.0015 H   0  0  0  0  0  0  0  0  0  0  0  0
    0.0004   -1.4012   -0.0009 C   0  0  0  0  0  0  0  0  0  0  0  0
    0.0022   -2.3976   -0.0023 H   0  0  0  0  0  0  0  0  0  0  0  0
    1.2041   -0.6951    0.0000 C   0  0  0  0  0  0  0  0  0  0  0  0
    2.0862   -1.1895    0.0012 H   0  0  0  0  0  0  0  0  0  0  0  0
    1.1983    0.7029    0.0006 C   0  0  0  0  0  0  0  0  0  0  0  0
    2.0648    1.1974    0.0008 H   0  0  0  0  0  0  0  0  0  0  0  0
  1  5  1  0
  5  8  1  0
  1  2  1  0
  1  3  1  0
  1  4  1  0
  5  6  1  0
  5  7  1  0
  8  9  1  0
  8 10  1  0
  8 11  1  0
 12 16  1  0
 16 17  2  0
 17 19  1  0
 19 21  2  0
 21 23  1  0
 23 25  2  0
 25 16  1  0
 12 13  1  0
 12 14  1  0
 12 15  1  0
 17 18  1  0
 19 20  1  0
 21 22  1  0
 23 24  1  0
 25 26  1  0
M  CHG  1   8   1
M  END
>  <PDB_ID>  (287) 
pdb2ea7

>  <RESIDUE_NAME>  (287) 
LYS   PHE

>  <FRAG_NAME>  (287) 
ETAM   MBZ

>  <FRAG_ATOM_NUM>  (287) 
fragi: 11  fragj: 15

>  <atom.prop.CHAIN_ID>  (287) 
A A A A A A A A A A A Z Z Z Z Z Z Z Z Z Z Z Z Z Z Z

>  <atom.prop.IS_HEAVY_ATOM>  (287) 
1 0 0 0 1 0 0 1 0 0 0 1 0 0 0 1 1 0 1 0 1 0 1 0 1 0

>  <DIFUSE_FUNC_ATOM>  (287) 
n/a

>  <FINAL_SINGLE_POINT_ENERGY>  (287) 
0

>  <NONCOV_INTER_ENERGY_QM>  (287) 
0

>  <FF_Energy>  (287) 
-8.39

>  <QM_Energy>  (287) 
-16.11

>  <source>  (287) 
ETAM_MBZ

>  <Index>  (287) 
2740

$$$$
ETAM-pdb2ea7-B-LYS-136:MBZ-pdb2ea7-B-PHE-83
     RDKit          3D

 26 25  0  0  0  0  0  0  0  0999 V2000
    0.0157    1.3367   -4.3083 C   0  0  0  0  0  0  0  0  0  0  0  0
   -0.1152    1.7393   -3.4115 H   0  0  0  0  0  0  0  0  0  0  0  0
   -0.8232    1.3698   -4.8362 H   0  0  0  0  0  0  0  0  0  0  0  0
    0.7847    1.9009   -4.8359 H   0  0  0  0  0  0  0  0  0  0  0  0
    0.4238   -0.1268   -4.1318 C   0  0  0  0  0  0  0  0  0  0  0  0
    0.6213   -0.5164   -5.0401 H   0  0  0  0  0  0  0  0  0  0  0  0
    1.2707   -0.1606   -3.5848 H   0  0  0  0  0  0  0  0  0  0  0  0
   -0.6221   -0.9521   -3.4632 N   0  0  0  0  0  4  0  0  0  0  0  0
   -0.2853   -1.8861   -3.3524 H   0  0  0  0  0  0  0  0  0  0  0  0
   -0.8284   -0.5611   -2.5672 H   0  0  0  0  0  0  0  0  0  0  0  0
   -1.4485   -0.9580   -4.0250 H   0  0  0  0  0  0  0  0  0  0  0  0
   -0.0178    2.9001   -0.0464 C   0  0  0  0  0  0  0  0  0  0  0  0
   -0.8858    3.2108    0.3210 H   0  0  0  0  0  0  0  0  0  0  0  0
    0.0832    3.1820   -0.9927 H   0  0  0  0  0  0  0  0  0  0  0  0
    0.7735    3.3839    0.5262 H   0  0  0  0  0  0  0  0  0  0  0  0
   -0.0001    1.4026   -0.0012 C   0  0  0  0  0  0  0  0  0  0  0  0
   -1.1970    0.6936   -0.0006 C   0  0  0  0  0  0  0  0  0  0  0  0
   -2.0642    1.1835   -0.0021 H   0  0  0  0  0  0  0  0  0  0  0  0
   -1.2032   -0.6993   -0.0000 C   0  0  0  0  0  0  0  0  0  0  0  0
   -2.0800   -1.1907    0.0015 H   0  0  0  0  0  0  0  0  0  0  0  0
   -0.0031   -1.3949    0.0003 C   0  0  0  0  0  0  0  0  0  0  0  0
   -0.0041   -2.3937    0.0003 H   0  0  0  0  0  0  0  0  0  0  0  0
    1.2032   -0.6977   -0.0000 C   0  0  0  0  0  0  0  0  0  0  0  0
    2.0823   -1.1972   -0.0002 H   0  0  0  0  0  0  0  0  0  0  0  0
    1.2002    0.6956    0.0015 C   0  0  0  0  0  0  0  0  0  0  0  0
    2.0665    1.1918    0.0037 H   0  0  0  0  0  0  0  0  0  0  0  0
  1  5  1  0
  5  8  1  0
  1  2  1  0
  1  3  1  0
  1  4  1  0
  5  6  1  0
  5  7  1  0
  8  9  1  0
  8 10  1  0
  8 11  1  0
 12 16  1  0
 16 17  2  0
 17 19  1  0
 19 21  2  0
 21 23  1  0
 23 25  2  0
 25 16  1  0
 12 13  1  0
 12 14  1  0
 12 15  1  0
 17 18  1  0
 19 20  1  0
 21 22  1  0
 23 24  1  0
 25 26  1  0
M  CHG  1   8   1
M  END
>  <PDB_ID>  (288) 
pdb2ea7

>  <RESIDUE_NAME>  (288) 
LYS   PHE

>  <FRAG_NAME>  (288) 
ETAM   MBZ

>  <FRAG_ATOM_NUM>  (288) 
fragi: 11  fragj: 15

>  <atom.prop.CHAIN_ID>  (288) 
A A A A A A A A A A A Z Z Z Z Z Z Z Z Z Z Z Z Z Z Z

>  <atom.prop.IS_HEAVY_ATOM>  (288) 
1 0 0 0 1 0 0 1 0 0 0 1 0 0 0 1 1 0 1 0 1 0 1 0 1 0

>  <DIFUSE_FUNC_ATOM>  (288) 
n/a

>  <FINAL_SINGLE_POINT_ENERGY>  (288) 
0

>  <NONCOV_INTER_ENERGY_QM>  (288) 
0

>  <FF_Energy>  (288) 
-7.8

>  <QM_Energy>  (288) 
-14.46

>  <source>  (288) 
ETAM_MBZ

>  <Index>  (288) 
2742

$$$$
ETAM-pdb2ea7-C-LYS-136:MBZ-pdb2ea7-C-PHE-83
     RDKit          3D

 26 25  0  0  0  0  0  0  0  0999 V2000
    0.2276    1.5049   -4.0902 C   0  0  0  0  0  0  0  0  0  0  0  0
    0.0769    1.9342   -3.2059 H   0  0  0  0  0  0  0  0  0  0  0  0
   -0.6146    1.4970   -4.6191 H   0  0  0  0  0  0  0  0  0  0  0  0
    0.9755    2.0818   -4.6343 H   0  0  0  0  0  0  0  0  0  0  0  0
    0.6738    0.0611   -3.8618 C   0  0  0  0  0  0  0  0  0  0  0  0
    0.9771   -0.3265   -4.7382 H   0  0  0  0  0  0  0  0  0  0  0  0
    1.4505    0.0591   -3.2244 H   0  0  0  0  0  0  0  0  0  0  0  0
   -0.4178   -0.7964   -3.3015 N   0  0  0  0  0  4  0  0  0  0  0  0
   -1.0125   -0.2365   -2.7274 H   0  0  0  0  0  0  0  0  0  0  0  0
   -0.9444   -1.1887   -4.0536 H   0  0  0  0  0  0  0  0  0  0  0  0
   -0.0117   -1.5273   -2.7556 H   0  0  0  0  0  0  0  0  0  0  0  0
   -0.0273    2.9045   -0.0662 C   0  0  0  0  0  0  0  0  0  0  0  0
   -0.9189    3.2106    0.2470 H   0  0  0  0  0  0  0  0  0  0  0  0
    0.1209    3.1728   -1.0116 H   0  0  0  0  0  0  0  0  0  0  0  0
    0.7254    3.4077    0.5406 H   0  0  0  0  0  0  0  0  0  0  0  0
   -0.0012    1.4044    0.0003 C   0  0  0  0  0  0  0  0  0  0  0  0
   -1.1970    0.6916    0.0008 C   0  0  0  0  0  0  0  0  0  0  0  0
   -2.0653    1.1809    0.0005 H   0  0  0  0  0  0  0  0  0  0  0  0
   -1.2021   -0.7008    0.0000 C   0  0  0  0  0  0  0  0  0  0  0  0
   -2.0768   -1.1944    0.0015 H   0  0  0  0  0  0  0  0  0  0  0  0
    0.0025   -1.3969   -0.0010 C   0  0  0  0  0  0  0  0  0  0  0  0
   -0.0013   -2.3946   -0.0031 H   0  0  0  0  0  0  0  0  0  0  0  0
    1.2021   -0.6980   -0.0000 C   0  0  0  0  0  0  0  0  0  0  0  0
    2.0848   -1.1909    0.0023 H   0  0  0  0  0  0  0  0  0  0  0  0
    1.1957    0.6997   -0.0002 C   0  0  0  0  0  0  0  0  0  0  0  0
    2.0638    1.1937   -0.0009 H   0  0  0  0  0  0  0  0  0  0  0  0
  1  5  1  0
  5  8  1  0
  1  2  1  0
  1  3  1  0
  1  4  1  0
  5  6  1  0
  5  7  1  0
  8  9  1  0
  8 10  1  0
  8 11  1  0
 12 16  1  0
 16 17  2  0
 17 19  1  0
 19 21  2  0
 21 23  1  0
 23 25  2  0
 25 16  1  0
 12 13  1  0
 12 14  1  0
 12 15  1  0
 17 18  1  0
 19 20  1  0
 21 22  1  0
 23 24  1  0
 25 26  1  0
M  CHG  1   8   1
M  END
>  <PDB_ID>  (289) 
pdb2ea7

>  <RESIDUE_NAME>  (289) 
LYS   PHE

>  <FRAG_NAME>  (289) 
ETAM   MBZ

>  <FRAG_ATOM_NUM>  (289) 
fragi: 11  fragj: 15

>  <atom.prop.CHAIN_ID>  (289) 
A A A A A A A A A A A Z Z Z Z Z Z Z Z Z Z Z Z Z Z Z

>  <atom.prop.IS_HEAVY_ATOM>  (289) 
1 0 0 0 1 0 0 1 0 0 0 1 0 0 0 1 1 0 1 0 1 0 1 0 1 0

>  <DIFUSE_FUNC_ATOM>  (289) 
n/a

>  <FINAL_SINGLE_POINT_ENERGY>  (289) 
0

>  <NONCOV_INTER_ENERGY_QM>  (289) 
0

>  <FF_Energy>  (289) 
-8.46

>  <QM_Energy>  (289) 
-15.44

>  <source>  (289) 
ETAM_MBZ

>  <Index>  (289) 
2745

$$$$
ETAM-pdb1dli-A-LYS-263:MBZ-pdb1dli-A-PHE-92
     RDKit          3D

 26 25  0  0  0  0  0  0  0  0999 V2000
   -2.3332   -2.6895    3.3812 C   0  0  0  0  0  0  0  0  0  0  0  0
   -2.2562   -1.7167    3.1966 H   0  0  0  0  0  0  0  0  0  0  0  0
   -3.0824   -2.8681    4.0077 H   0  0  0  0  0  0  0  0  0  0  0  0
   -2.5156   -3.2173    2.4452 H   0  0  0  0  0  0  0  0  0  0  0  0
   -1.0237   -3.1527    4.0584 C   0  0  0  0  0  0  0  0  0  0  0  0
   -0.8957   -2.6301    4.8905 H   0  0  0  0  0  0  0  0  0  0  0  0
   -1.0942   -4.1215    4.2559 H   0  0  0  0  0  0  0  0  0  0  0  0
    0.1352   -2.9145    3.1363 N   0  0  0  0  0  4  0  0  0  0  0  0
    0.5319   -3.7928    2.8780 H   0  0  0  0  0  0  0  0  0  0  0  0
   -0.1891   -2.4360    2.3230 H   0  0  0  0  0  0  0  0  0  0  0  0
    0.8170   -2.3592    3.6075 H   0  0  0  0  0  0  0  0  0  0  0  0
    0.0180    2.8832   -0.0342 C   0  0  0  0  0  0  0  0  0  0  0  0
    0.5179    3.1683   -0.8431 H   0  0  0  0  0  0  0  0  0  0  0  0
    0.4729    3.2032    0.7883 H   0  0  0  0  0  0  0  0  0  0  0  0
   -0.9645    3.3537   -0.0709 H   0  0  0  0  0  0  0  0  0  0  0  0
   -0.0021    1.3845   -0.0027 C   0  0  0  0  0  0  0  0  0  0  0  0
   -1.1966    0.6803    0.0021 C   0  0  0  0  0  0  0  0  0  0  0  0
   -2.0617    1.1826    0.0059 H   0  0  0  0  0  0  0  0  0  0  0  0
   -1.2022   -0.6853   -0.0000 C   0  0  0  0  0  0  0  0  0  0  0  0
   -2.0711   -1.1942   -0.0002 H   0  0  0  0  0  0  0  0  0  0  0  0
    0.0086   -1.3791   -0.0003 C   0  0  0  0  0  0  0  0  0  0  0  0
    0.0012   -2.3792   -0.0012 H   0  0  0  0  0  0  0  0  0  0  0  0
    1.2022   -0.6846    0.0000 C   0  0  0  0  0  0  0  0  0  0  0  0
    2.0851   -1.1868    0.0014 H   0  0  0  0  0  0  0  0  0  0  0  0
    1.1901    0.6841    0.0009 C   0  0  0  0  0  0  0  0  0  0  0  0
    2.0578    1.1931    0.0033 H   0  0  0  0  0  0  0  0  0  0  0  0
  1  5  1  0
  5  8  1  0
  1  2  1  0
  1  3  1  0
  1  4  1  0
  5  6  1  0
  5  7  1  0
  8  9  1  0
  8 10  1  0
  8 11  1  0
 12 16  1  0
 16 17  2  0
 17 19  1  0
 19 21  2  0
 21 23  1  0
 23 25  2  0
 25 16  1  0
 12 13  1  0
 12 14  1  0
 12 15  1  0
 17 18  1  0
 19 20  1  0
 21 22  1  0
 23 24  1  0
 25 26  1  0
M  CHG  1   8   1
M  END
>  <PDB_ID>  (290) 
pdb1dli

>  <RESIDUE_NAME>  (290) 
LYS   PHE

>  <FRAG_NAME>  (290) 
ETAM   MBZ

>  <FRAG_ATOM_NUM>  (290) 
fragi: 11  fragj: 15

>  <atom.prop.CHAIN_ID>  (290) 
A A A A A A A A A A A Z Z Z Z Z Z Z Z Z Z Z Z Z Z Z

>  <atom.prop.IS_HEAVY_ATOM>  (290) 
1 0 0 0 1 0 0 1 0 0 0 1 0 0 0 1 1 0 1 0 1 0 1 0 1 0

>  <DIFUSE_FUNC_ATOM>  (290) 
n/a

>  <FINAL_SINGLE_POINT_ENERGY>  (290) 
0

>  <NONCOV_INTER_ENERGY_QM>  (290) 
0

>  <FF_Energy>  (290) 
-3.4

>  <QM_Energy>  (290) 
-9.87

>  <source>  (290) 
ETAM_MBZ

>  <Index>  (290) 
2776

$$$$
ETAM-pdb2eb0-B-LYS-45:MBZ-pdb2eb0-B-PHE-179
     RDKit          3D

 26 25  0  0  0  0  0  0  0  0999 V2000
   -2.5832   -2.0140   -2.8862 C   0  0  0  0  0  0  0  0  0  0  0  0
   -3.4076   -1.9841   -2.3257 H   0  0  0  0  0  0  0  0  0  0  0  0
   -1.8212   -2.3706   -2.3512 H   0  0  0  0  0  0  0  0  0  0  0  0
   -2.7582   -2.6742   -3.7356 H   0  0  0  0  0  0  0  0  0  0  0  0
   -2.2452   -0.6003   -3.3256 C   0  0  0  0  0  0  0  0  0  0  0  0
   -2.8832   -0.3271   -4.0552 H   0  0  0  0  0  0  0  0  0  0  0  0
   -2.3744    0.0216   -2.5436 H   0  0  0  0  0  0  0  0  0  0  0  0
   -0.8569   -0.4810   -3.8198 N   0  0  0  0  0  4  0  0  0  0  0  0
   -0.2933   -0.0209   -3.1325 H   0  0  0  0  0  0  0  0  0  0  0  0
   -0.4839   -1.3931   -3.9972 H   0  0  0  0  0  0  0  0  0  0  0  0
   -0.8459    0.0518   -4.6680 H   0  0  0  0  0  0  0  0  0  0  0  0
    0.0043    2.9106   -0.0174 C   0  0  0  0  0  0  0  0  0  0  0  0
   -0.1039    3.2057   -0.9548 H   0  0  0  0  0  0  0  0  0  0  0  0
    0.8645    3.2192    0.3601 H   0  0  0  0  0  0  0  0  0  0  0  0
   -0.7976    3.3591    0.5690 H   0  0  0  0  0  0  0  0  0  0  0  0
    0.0006    1.4093    0.0006 C   0  0  0  0  0  0  0  0  0  0  0  0
   -1.1985    0.6992   -0.0008 C   0  0  0  0  0  0  0  0  0  0  0  0
   -2.0651    1.1849   -0.0039 H   0  0  0  0  0  0  0  0  0  0  0  0
   -1.2050   -0.7045   -0.0000 C   0  0  0  0  0  0  0  0  0  0  0  0
   -2.0809   -1.1929    0.0026 H   0  0  0  0  0  0  0  0  0  0  0  0
    0.0002   -1.4039   -0.0008 C   0  0  0  0  0  0  0  0  0  0  0  0
   -0.0017   -2.3991   -0.0024 H   0  0  0  0  0  0  0  0  0  0  0  0
    1.2050   -0.7007    0.0000 C   0  0  0  0  0  0  0  0  0  0  0  0
    2.0863   -1.1940    0.0014 H   0  0  0  0  0  0  0  0  0  0  0  0
    1.1977    0.7006    0.0011 C   0  0  0  0  0  0  0  0  0  0  0  0
    2.0670    1.1926    0.0014 H   0  0  0  0  0  0  0  0  0  0  0  0
  1  5  1  0
  5  8  1  0
  1  2  1  0
  1  3  1  0
  1  4  1  0
  5  6  1  0
  5  7  1  0
  8  9  1  0
  8 10  1  0
  8 11  1  0
 12 16  1  0
 16 17  2  0
 17 19  1  0
 19 21  2  0
 21 23  1  0
 23 25  2  0
 25 16  1  0
 12 13  1  0
 12 14  1  0
 12 15  1  0
 17 18  1  0
 19 20  1  0
 21 22  1  0
 23 24  1  0
 25 26  1  0
M  CHG  1   8   1
M  END
>  <PDB_ID>  (291) 
pdb2eb0

>  <RESIDUE_NAME>  (291) 
LYS   PHE

>  <FRAG_NAME>  (291) 
ETAM   MBZ

>  <FRAG_ATOM_NUM>  (291) 
fragi: 11  fragj: 15

>  <atom.prop.CHAIN_ID>  (291) 
A A A A A A A A A A A Z Z Z Z Z Z Z Z Z Z Z Z Z Z Z

>  <atom.prop.IS_HEAVY_ATOM>  (291) 
1 0 0 0 1 0 0 1 0 0 0 1 0 0 0 1 1 0 1 0 1 0 1 0 1 0

>  <DIFUSE_FUNC_ATOM>  (291) 
n/a

>  <FINAL_SINGLE_POINT_ENERGY>  (291) 
0

>  <NONCOV_INTER_ENERGY_QM>  (291) 
0

>  <FF_Energy>  (291) 
-6.24

>  <QM_Energy>  (291) 
-11.25

>  <source>  (291) 
ETAM_MBZ

>  <Index>  (291) 
2780

$$$$
ETAM-pdb1dlc-A-LYS-209:MBZ-pdb1dlc-A-PHE-206
     RDKit          3D

 26 25  0  0  0  0  0  0  0  0999 V2000
   -1.5453   -0.2099    4.9233 C   0  0  0  0  0  0  0  0  0  0  0  0
   -0.8191   -0.1971    5.6069 H   0  0  0  0  0  0  0  0  0  0  0  0
   -2.3328   -0.7129    5.2738 H   0  0  0  0  0  0  0  0  0  0  0  0
   -1.8456    0.8148    4.7045 H   0  0  0  0  0  0  0  0  0  0  0  0
   -1.0300   -0.9237    3.6875 C   0  0  0  0  0  0  0  0  0  0  0  0
   -0.8834   -1.8993    3.9111 H   0  0  0  0  0  0  0  0  0  0  0  0
   -1.7367   -0.8783    2.9649 H   0  0  0  0  0  0  0  0  0  0  0  0
    0.2413   -0.3553    3.1529 N   0  0  0  0  0  4  0  0  0  0  0  0
    0.4853   -0.8305    2.3085 H   0  0  0  0  0  0  0  0  0  0  0  0
    0.1152    0.6178    2.9668 H   0  0  0  0  0  0  0  0  0  0  0  0
    0.9671   -0.4765    3.8282 H   0  0  0  0  0  0  0  0  0  0  0  0
   -0.0094    2.8849    0.0426 C   0  0  0  0  0  0  0  0  0  0  0  0
   -0.5892    3.2147   -0.6866 H   0  0  0  0  0  0  0  0  0  0  0  0
    0.9196    3.2055   -0.0601 H   0  0  0  0  0  0  0  0  0  0  0  0
   -0.3958    3.2845    0.9803 H   0  0  0  0  0  0  0  0  0  0  0  0
   -0.0011    1.3985    0.0004 C   0  0  0  0  0  0  0  0  0  0  0  0
   -1.2002    0.6905   -0.0009 C   0  0  0  0  0  0  0  0  0  0  0  0
   -2.0652    1.1831   -0.0035 H   0  0  0  0  0  0  0  0  0  0  0  0
   -1.2041   -0.6957   -0.0000 C   0  0  0  0  0  0  0  0  0  0  0  0
   -2.0763   -1.1946    0.0020 H   0  0  0  0  0  0  0  0  0  0  0  0
    0.0044   -1.3919   -0.0004 C   0  0  0  0  0  0  0  0  0  0  0  0
   -0.0009   -2.3900   -0.0013 H   0  0  0  0  0  0  0  0  0  0  0  0
    1.2041   -0.6947    0.0000 C   0  0  0  0  0  0  0  0  0  0  0  0
    2.0855   -1.1926    0.0012 H   0  0  0  0  0  0  0  0  0  0  0  0
    1.1969    0.6933    0.0009 C   0  0  0  0  0  0  0  0  0  0  0  0
    2.0631    1.1928    0.0007 H   0  0  0  0  0  0  0  0  0  0  0  0
  1  5  1  0
  5  8  1  0
  1  2  1  0
  1  3  1  0
  1  4  1  0
  5  6  1  0
  5  7  1  0
  8  9  1  0
  8 10  1  0
  8 11  1  0
 12 16  1  0
 16 17  2  0
 17 19  1  0
 19 21  2  0
 21 23  1  0
 23 25  2  0
 25 16  1  0
 12 13  1  0
 12 14  1  0
 12 15  1  0
 17 18  1  0
 19 20  1  0
 21 22  1  0
 23 24  1  0
 25 26  1  0
M  CHG  1   8   1
M  END
>  <PDB_ID>  (292) 
pdb1dlc

>  <RESIDUE_NAME>  (292) 
LYS   PHE

>  <FRAG_NAME>  (292) 
ETAM   MBZ

>  <FRAG_ATOM_NUM>  (292) 
fragi: 11  fragj: 15

>  <atom.prop.CHAIN_ID>  (292) 
A A A A A A A A A A A Z Z Z Z Z Z Z Z Z Z Z Z Z Z Z

>  <atom.prop.IS_HEAVY_ATOM>  (292) 
1 0 0 0 1 0 0 1 0 0 0 1 0 0 0 1 1 0 1 0 1 0 1 0 1 0

>  <DIFUSE_FUNC_ATOM>  (292) 
n/a

>  <FINAL_SINGLE_POINT_ENERGY>  (292) 
0

>  <NONCOV_INTER_ENERGY_QM>  (292) 
0

>  <FF_Energy>  (292) 
-9.26

>  <QM_Energy>  (292) 
-17.46

>  <source>  (292) 
ETAM_MBZ

>  <Index>  (292) 
2787

$$$$
ETAM-pdb2e4u-B-LYS-199:MBZ-pdb2e4u-B-PHE-195
     RDKit          3D

 26 25  0  0  0  0  0  0  0  0999 V2000
    0.6618   -1.4074    4.6795 C   0  0  0  0  0  0  0  0  0  0  0  0
    1.4532   -1.0763    4.1877 H   0  0  0  0  0  0  0  0  0  0  0  0
    0.9009   -2.1472    5.2906 H   0  0  0  0  0  0  0  0  0  0  0  0
    0.2285   -0.5895    5.2551 H   0  0  0  0  0  0  0  0  0  0  0  0
   -0.3530   -1.9328    3.6619 C   0  0  0  0  0  0  0  0  0  0  0  0
   -1.2426   -2.0398    4.1205 H   0  0  0  0  0  0  0  0  0  0  0  0
   -0.4537   -1.2521    2.9272 H   0  0  0  0  0  0  0  0  0  0  0  0
    0.0507   -3.2391    3.0662 N   0  0  0  0  0  4  0  0  0  0  0  0
    0.2055   -3.1214    2.0863 H   0  0  0  0  0  0  0  0  0  0  0  0
    0.8918   -3.5555    3.5031 H   0  0  0  0  0  0  0  0  0  0  0  0
   -0.6772   -3.9082    3.2135 H   0  0  0  0  0  0  0  0  0  0  0  0
    0.0101    2.9009   -0.0623 C   0  0  0  0  0  0  0  0  0  0  0  0
   -0.6685    3.1849   -0.7268 H   0  0  0  0  0  0  0  0  0  0  0  0
    0.9180    3.1903   -0.3364 H   0  0  0  0  0  0  0  0  0  0  0  0
   -0.2239    3.3908    0.8828 H   0  0  0  0  0  0  0  0  0  0  0  0
    0.0002    1.3997   -0.0013 C   0  0  0  0  0  0  0  0  0  0  0  0
   -1.2000    0.6950    0.0025 C   0  0  0  0  0  0  0  0  0  0  0  0
   -2.0646    1.1885    0.0058 H   0  0  0  0  0  0  0  0  0  0  0  0
   -1.2088   -0.6953    0.0000 C   0  0  0  0  0  0  0  0  0  0  0  0
   -2.0821   -1.1903    0.0005 H   0  0  0  0  0  0  0  0  0  0  0  0
   -0.0003   -1.3950   -0.0018 C   0  0  0  0  0  0  0  0  0  0  0  0
   -0.0038   -2.3920   -0.0048 H   0  0  0  0  0  0  0  0  0  0  0  0
    1.2088   -0.6955   -0.0000 C   0  0  0  0  0  0  0  0  0  0  0  0
    2.0859   -1.1966    0.0027 H   0  0  0  0  0  0  0  0  0  0  0  0
    1.2001    0.6910    0.0006 C   0  0  0  0  0  0  0  0  0  0  0  0
    2.0666    1.1924    0.0022 H   0  0  0  0  0  0  0  0  0  0  0  0
  1  5  1  0
  5  8  1  0
  1  2  1  0
  1  3  1  0
  1  4  1  0
  5  6  1  0
  5  7  1  0
  8  9  1  0
  8 10  1  0
  8 11  1  0
 12 16  1  0
 16 17  2  0
 17 19  1  0
 19 21  2  0
 21 23  1  0
 23 25  2  0
 25 16  1  0
 12 13  1  0
 12 14  1  0
 12 15  1  0
 17 18  1  0
 19 20  1  0
 21 22  1  0
 23 24  1  0
 25 26  1  0
M  CHG  1   8   1
M  END
>  <PDB_ID>  (293) 
pdb2e4u

>  <RESIDUE_NAME>  (293) 
LYS   PHE

>  <FRAG_NAME>  (293) 
ETAM   MBZ

>  <FRAG_ATOM_NUM>  (293) 
fragi: 11  fragj: 15

>  <atom.prop.CHAIN_ID>  (293) 
A A A A A A A A A A A Z Z Z Z Z Z Z Z Z Z Z Z Z Z Z

>  <atom.prop.IS_HEAVY_ATOM>  (293) 
1 0 0 0 1 0 0 1 0 0 0 1 0 0 0 1 1 0 1 0 1 0 1 0 1 0

>  <DIFUSE_FUNC_ATOM>  (293) 
n/a

>  <FINAL_SINGLE_POINT_ENERGY>  (293) 
0

>  <NONCOV_INTER_ENERGY_QM>  (293) 
0

>  <FF_Energy>  (293) 
-3.01

>  <QM_Energy>  (293) 
-9.39

>  <source>  (293) 
ETAM_MBZ

>  <Index>  (293) 
2797

$$$$
ETAM-pdb1dmt-A-LYS-520:MBZ-pdb1dmt-A-PHE-516
     RDKit          3D

 26 25  0  0  0  0  0  0  0  0999 V2000
   -2.2504   -2.2075   -3.5737 C   0  0  0  0  0  0  0  0  0  0  0  0
   -2.0960   -1.6215   -2.7774 H   0  0  0  0  0  0  0  0  0  0  0  0
   -3.1336   -1.9822   -3.9858 H   0  0  0  0  0  0  0  0  0  0  0  0
   -1.4678   -2.0055   -4.3050 H   0  0  0  0  0  0  0  0  0  0  0  0
   -2.2982   -3.6695   -3.0968 C   0  0  0  0  0  0  0  0  0  0  0  0
   -3.1984   -3.8392   -2.6706 H   0  0  0  0  0  0  0  0  0  0  0  0
   -2.2209   -4.2739   -3.9032 H   0  0  0  0  0  0  0  0  0  0  0  0
   -1.2184   -4.0396   -2.1102 N   0  0  0  0  0  4  0  0  0  0  0  0
   -1.6413   -4.2367   -1.2301 H   0  0  0  0  0  0  0  0  0  0  0  0
   -0.7373   -4.8441   -2.4469 H   0  0  0  0  0  0  0  0  0  0  0  0
   -0.5868   -3.2745   -2.0222 H   0  0  0  0  0  0  0  0  0  0  0  0
   -0.0015    2.9246    0.0443 C   0  0  0  0  0  0  0  0  0  0  0  0
    0.7647    3.2123    0.6002 H   0  0  0  0  0  0  0  0  0  0  0  0
   -0.8607    3.2159    0.4378 H   0  0  0  0  0  0  0  0  0  0  0  0
    0.0968    3.4006   -0.9313 H   0  0  0  0  0  0  0  0  0  0  0  0
   -0.0014    1.4138    0.0001 C   0  0  0  0  0  0  0  0  0  0  0  0
   -1.2008    0.7016   -0.0006 C   0  0  0  0  0  0  0  0  0  0  0  0
   -2.0674    1.1874   -0.0030 H   0  0  0  0  0  0  0  0  0  0  0  0
   -1.2060   -0.7016   -0.0000 C   0  0  0  0  0  0  0  0  0  0  0  0
   -2.0809   -1.1918   -0.0003 H   0  0  0  0  0  0  0  0  0  0  0  0
    0.0027   -1.4044    0.0027 C   0  0  0  0  0  0  0  0  0  0  0  0
   -0.0067   -2.4008    0.0060 H   0  0  0  0  0  0  0  0  0  0  0  0
    1.2060   -0.7089   -0.0000 C   0  0  0  0  0  0  0  0  0  0  0  0
    2.0877   -1.1979    0.0014 H   0  0  0  0  0  0  0  0  0  0  0  0
    1.1994    0.6996   -0.0021 C   0  0  0  0  0  0  0  0  0  0  0  0
    2.0684    1.1900   -0.0059 H   0  0  0  0  0  0  0  0  0  0  0  0
  1  5  1  0
  5  8  1  0
  1  2  1  0
  1  3  1  0
  1  4  1  0
  5  6  1  0
  5  7  1  0
  8  9  1  0
  8 10  1  0
  8 11  1  0
 12 16  1  0
 16 17  2  0
 17 19  1  0
 19 21  2  0
 21 23  1  0
 23 25  2  0
 25 16  1  0
 12 13  1  0
 12 14  1  0
 12 15  1  0
 17 18  1  0
 19 20  1  0
 21 22  1  0
 23 24  1  0
 25 26  1  0
M  CHG  1   8   1
M  END
>  <PDB_ID>  (294) 
pdb1dmt

>  <RESIDUE_NAME>  (294) 
LYS   PHE

>  <FRAG_NAME>  (294) 
ETAM   MBZ

>  <FRAG_ATOM_NUM>  (294) 
fragi: 11  fragj: 15

>  <atom.prop.CHAIN_ID>  (294) 
A A A A A A A A A A A Z Z Z Z Z Z Z Z Z Z Z Z Z Z Z

>  <atom.prop.IS_HEAVY_ATOM>  (294) 
1 0 0 0 1 0 0 1 0 0 0 1 0 0 0 1 1 0 1 0 1 0 1 0 1 0

>  <DIFUSE_FUNC_ATOM>  (294) 
n/a

>  <FINAL_SINGLE_POINT_ENERGY>  (294) 
0

>  <NONCOV_INTER_ENERGY_QM>  (294) 
0

>  <FF_Energy>  (294) 
-0.95

>  <QM_Energy>  (294) 
-6.6

>  <source>  (294) 
ETAM_MBZ

>  <Index>  (294) 
2802

$$$$
ETAM-pdb1dm5-F-LYS-258:MBZ-pdb1dm5-F-PHE-297
     RDKit          3D

 26 25  0  0  0  0  0  0  0  0999 V2000
   -3.8212   -3.6566    0.6352 C   0  0  0  0  0  0  0  0  0  0  0  0
   -4.0803   -2.7227    0.8576 H   0  0  0  0  0  0  0  0  0  0  0  0
   -3.1454   -3.9940    1.2812 H   0  0  0  0  0  0  0  0  0  0  0  0
   -4.7071   -4.2891    0.6917 H   0  0  0  0  0  0  0  0  0  0  0  0
   -3.2104   -3.6726   -0.7610 C   0  0  0  0  0  0  0  0  0  0  0  0
   -2.2171   -3.7932   -0.6780 H   0  0  0  0  0  0  0  0  0  0  0  0
   -3.5887   -4.4509   -1.2706 H   0  0  0  0  0  0  0  0  0  0  0  0
   -3.4913   -2.4170   -1.5054 N   0  0  0  0  0  4  0  0  0  0  0  0
   -4.0059   -1.7910   -0.9192 H   0  0  0  0  0  0  0  0  0  0  0  0
   -2.6283   -1.9893   -1.7743 H   0  0  0  0  0  0  0  0  0  0  0  0
   -4.0283   -2.6275   -2.3224 H   0  0  0  0  0  0  0  0  0  0  0  0
    0.0050    2.9093    0.0213 C   0  0  0  0  0  0  0  0  0  0  0  0
    0.7820    3.2003    0.5560 H   0  0  0  0  0  0  0  0  0  0  0  0
   -0.8454    3.2036    0.4278 H   0  0  0  0  0  0  0  0  0  0  0  0
    0.0840    3.3631   -0.9666 H   0  0  0  0  0  0  0  0  0  0  0  0
    0.0031    1.3899    0.0027 C   0  0  0  0  0  0  0  0  0  0  0  0
   -1.1917    0.6938    0.0008 C   0  0  0  0  0  0  0  0  0  0  0  0
   -2.0565    1.1894   -0.0012 H   0  0  0  0  0  0  0  0  0  0  0  0
   -1.1984   -0.6859    0.0000 C   0  0  0  0  0  0  0  0  0  0  0  0
   -2.0775   -1.1811   -0.0001 H   0  0  0  0  0  0  0  0  0  0  0  0
   -0.0043   -1.3805    0.0013 C   0  0  0  0  0  0  0  0  0  0  0  0
   -0.0133   -2.3850    0.0025 H   0  0  0  0  0  0  0  0  0  0  0  0
    1.1984   -0.6993    0.0000 C   0  0  0  0  0  0  0  0  0  0  0  0
    2.0746   -1.2016    0.0035 H   0  0  0  0  0  0  0  0  0  0  0  0
    1.1929    0.6820   -0.0049 C   0  0  0  0  0  0  0  0  0  0  0  0
    2.0633    1.1812   -0.0146 H   0  0  0  0  0  0  0  0  0  0  0  0
  1  5  1  0
  5  8  1  0
  1  2  1  0
  1  3  1  0
  1  4  1  0
  5  6  1  0
  5  7  1  0
  8  9  1  0
  8 10  1  0
  8 11  1  0
 12 16  1  0
 16 17  2  0
 17 19  1  0
 19 21  2  0
 21 23  1  0
 23 25  2  0
 25 16  1  0
 12 13  1  0
 12 14  1  0
 12 15  1  0
 17 18  1  0
 19 20  1  0
 21 22  1  0
 23 24  1  0
 25 26  1  0
M  CHG  1   8   1
M  END
>  <PDB_ID>  (295) 
pdb1dm5

>  <RESIDUE_NAME>  (295) 
LYS   PHE

>  <FRAG_NAME>  (295) 
ETAM   MBZ

>  <FRAG_ATOM_NUM>  (295) 
fragi: 11  fragj: 15

>  <atom.prop.CHAIN_ID>  (295) 
A A A A A A A A A A A Z Z Z Z Z Z Z Z Z Z Z Z Z Z Z

>  <atom.prop.IS_HEAVY_ATOM>  (295) 
1 0 0 0 1 0 0 1 0 0 0 1 0 0 0 1 1 0 1 0 1 0 1 0 1 0

>  <DIFUSE_FUNC_ATOM>  (295) 
n/a

>  <FINAL_SINGLE_POINT_ENERGY>  (295) 
0

>  <NONCOV_INTER_ENERGY_QM>  (295) 
0

>  <FF_Energy>  (295) 
1.94

>  <QM_Energy>  (295) 
-5.33

>  <source>  (295) 
ETAM_MBZ

>  <Index>  (295) 
2808

$$$$
ETAM-pdb1dok-B-LYS-38:MBZ-pdb1dok-B-PHE-15
     RDKit          3D

 26 25  0  0  0  0  0  0  0  0999 V2000
   -2.2332   -3.2290   -1.9484 C   0  0  0  0  0  0  0  0  0  0  0  0
   -2.0536   -2.4355   -1.3752 H   0  0  0  0  0  0  0  0  0  0  0  0
   -1.7612   -3.1397   -2.8196 H   0  0  0  0  0  0  0  0  0  0  0  0
   -1.8559   -4.1159   -1.4392 H   0  0  0  0  0  0  0  0  0  0  0  0
   -3.7065   -3.3379   -2.1941 C   0  0  0  0  0  0  0  0  0  0  0  0
   -4.0203   -2.5531   -2.6951 H   0  0  0  0  0  0  0  0  0  0  0  0
   -3.9068   -4.1806   -2.6573 H   0  0  0  0  0  0  0  0  0  0  0  0
   -4.3423   -3.3513   -0.8519 N   0  0  0  0  0  4  0  0  0  0  0  0
   -5.3368   -3.3246   -0.9547 H   0  0  0  0  0  0  0  0  0  0  0  0
   -4.0788   -4.1858   -0.3667 H   0  0  0  0  0  0  0  0  0  0  0  0
   -4.0388   -2.5531   -0.3314 H   0  0  0  0  0  0  0  0  0  0  0  0
   -0.0017    2.9074    0.0877 C   0  0  0  0  0  0  0  0  0  0  0  0
   -0.6248    3.2559   -0.5944 H   0  0  0  0  0  0  0  0  0  0  0  0
    0.9221    3.2183   -0.0719 H   0  0  0  0  0  0  0  0  0  0  0  0
   -0.3198    3.2918    1.0568 H   0  0  0  0  0  0  0  0  0  0  0  0
   -0.0082    1.4018   -0.0000 C   0  0  0  0  0  0  0  0  0  0  0  0
   -1.2087    0.6936   -0.0045 C   0  0  0  0  0  0  0  0  0  0  0  0
   -2.0724    1.1790   -0.0117 H   0  0  0  0  0  0  0  0  0  0  0  0
   -1.2020   -0.6992   -0.0000 C   0  0  0  0  0  0  0  0  0  0  0  0
   -2.0630   -1.2073    0.0005 H   0  0  0  0  0  0  0  0  0  0  0  0
    0.0281   -1.3884    0.0054 C   0  0  0  0  0  0  0  0  0  0  0  0
    0.0137   -2.3910    0.0129 H   0  0  0  0  0  0  0  0  0  0  0  0
    1.2020   -0.6951   -0.0000 C   0  0  0  0  0  0  0  0  0  0  0  0
    2.0959   -1.1824   -0.0014 H   0  0  0  0  0  0  0  0  0  0  0  0
    1.1888    0.6873   -0.0009 C   0  0  0  0  0  0  0  0  0  0  0  0
    2.0574    1.1918   -0.0029 H   0  0  0  0  0  0  0  0  0  0  0  0
  1  5  1  0
  5  8  1  0
  1  2  1  0
  1  3  1  0
  1  4  1  0
  5  6  1  0
  5  7  1  0
  8  9  1  0
  8 10  1  0
  8 11  1  0
 12 16  1  0
 16 17  2  0
 17 19  1  0
 19 21  2  0
 21 23  1  0
 23 25  2  0
 25 16  1  0
 12 13  1  0
 12 14  1  0
 12 15  1  0
 17 18  1  0
 19 20  1  0
 21 22  1  0
 23 24  1  0
 25 26  1  0
M  CHG  1   8   1
M  END
>  <PDB_ID>  (296) 
pdb1dok

>  <RESIDUE_NAME>  (296) 
LYS   PHE

>  <FRAG_NAME>  (296) 
ETAM   MBZ

>  <FRAG_ATOM_NUM>  (296) 
fragi: 11  fragj: 15

>  <atom.prop.CHAIN_ID>  (296) 
A A A A A A A A A A A Z Z Z Z Z Z Z Z Z Z Z Z Z Z Z

>  <atom.prop.IS_HEAVY_ATOM>  (296) 
1 0 0 0 1 0 0 1 0 0 0 1 0 0 0 1 1 0 1 0 1 0 1 0 1 0

>  <DIFUSE_FUNC_ATOM>  (296) 
n/a

>  <FINAL_SINGLE_POINT_ENERGY>  (296) 
0

>  <NONCOV_INTER_ENERGY_QM>  (296) 
0

>  <FF_Energy>  (296) 
4.78

>  <QM_Energy>  (296) 
-1.22

>  <source>  (296) 
ETAM_MBZ

>  <Index>  (296) 
2818

$$$$
ETAM-pdb2een-B-LYS-54:MBZ-pdb2een-B-PHE-63
     RDKit          3D

 26 25  0  0  0  0  0  0  0  0999 V2000
   -4.3194   -0.8767   -2.2330 C   0  0  0  0  0  0  0  0  0  0  0  0
   -4.1025   -1.6406   -1.6186 H   0  0  0  0  0  0  0  0  0  0  0  0
   -4.8271   -1.2301   -3.0239 H   0  0  0  0  0  0  0  0  0  0  0  0
   -4.9623   -0.1788   -1.6967 H   0  0  0  0  0  0  0  0  0  0  0  0
   -3.0274   -0.2602   -2.7191 C   0  0  0  0  0  0  0  0  0  0  0  0
   -3.2289    0.4328   -3.4062 H   0  0  0  0  0  0  0  0  0  0  0  0
   -2.5467    0.1529   -1.9493 H   0  0  0  0  0  0  0  0  0  0  0  0
   -2.1540   -1.3104   -3.3301 N   0  0  0  0  0  4  0  0  0  0  0  0
   -1.9634   -2.0145   -2.6488 H   0  0  0  0  0  0  0  0  0  0  0  0
   -2.6260   -1.7150   -4.1117 H   0  0  0  0  0  0  0  0  0  0  0  0
   -1.2998   -0.8914   -3.6310 H   0  0  0  0  0  0  0  0  0  0  0  0
   -0.0033    2.8884    0.0568 C   0  0  0  0  0  0  0  0  0  0  0  0
   -0.7825    3.2154   -0.4569 H   0  0  0  0  0  0  0  0  0  0  0  0
    0.8451    3.2150   -0.3328 H   0  0  0  0  0  0  0  0  0  0  0  0
   -0.0799    3.2865    1.0685 H   0  0  0  0  0  0  0  0  0  0  0  0
    0.0004    1.3989    0.0025 C   0  0  0  0  0  0  0  0  0  0  0  0
   -1.1954    0.6945   -0.0015 C   0  0  0  0  0  0  0  0  0  0  0  0
   -2.0614    1.1855   -0.0069 H   0  0  0  0  0  0  0  0  0  0  0  0
   -1.2012   -0.6944    0.0000 C   0  0  0  0  0  0  0  0  0  0  0  0
   -2.0793   -1.1878    0.0034 H   0  0  0  0  0  0  0  0  0  0  0  0
   -0.0028   -1.3922   -0.0007 C   0  0  0  0  0  0  0  0  0  0  0  0
   -0.0083   -2.3919   -0.0024 H   0  0  0  0  0  0  0  0  0  0  0  0
    1.2012   -0.6998    0.0000 C   0  0  0  0  0  0  0  0  0  0  0  0
    2.0809   -1.1981    0.0025 H   0  0  0  0  0  0  0  0  0  0  0  0
    1.1978    0.6930   -0.0003 C   0  0  0  0  0  0  0  0  0  0  0  0
    2.0650    1.1880   -0.0031 H   0  0  0  0  0  0  0  0  0  0  0  0
  1  5  1  0
  5  8  1  0
  1  2  1  0
  1  3  1  0
  1  4  1  0
  5  6  1  0
  5  7  1  0
  8  9  1  0
  8 10  1  0
  8 11  1  0
 12 16  1  0
 16 17  2  0
 17 19  1  0
 19 21  2  0
 21 23  1  0
 23 25  2  0
 25 16  1  0
 12 13  1  0
 12 14  1  0
 12 15  1  0
 17 18  1  0
 19 20  1  0
 21 22  1  0
 23 24  1  0
 25 26  1  0
M  CHG  1   8   1
M  END
>  <PDB_ID>  (297) 
pdb2een

>  <RESIDUE_NAME>  (297) 
LYS   PHE

>  <FRAG_NAME>  (297) 
ETAM   MBZ

>  <FRAG_ATOM_NUM>  (297) 
fragi: 11  fragj: 15

>  <atom.prop.CHAIN_ID>  (297) 
A A A A A A A A A A A Z Z Z Z Z Z Z Z Z Z Z Z Z Z Z

>  <atom.prop.IS_HEAVY_ATOM>  (297) 
1 0 0 0 1 0 0 1 0 0 0 1 0 0 0 1 1 0 1 0 1 0 1 0 1 0

>  <DIFUSE_FUNC_ATOM>  (297) 
n/a

>  <FINAL_SINGLE_POINT_ENERGY>  (297) 
0

>  <NONCOV_INTER_ENERGY_QM>  (297) 
0

>  <FF_Energy>  (297) 
-1.35

>  <QM_Energy>  (297) 
-8.18

>  <source>  (297) 
ETAM_MBZ

>  <Index>  (297) 
2827

$$$$
ETAM-pdb1dot-A-LYS-378:MBZ-pdb1dot-A-PHE-398
     RDKit          3D

 26 25  0  0  0  0  0  0  0  0999 V2000
   -4.6588   -3.5730    0.1517 C   0  0  0  0  0  0  0  0  0  0  0  0
   -3.8395   -4.1066    0.4455 H   0  0  0  0  0  0  0  0  0  0  0  0
   -5.0969   -4.1110   -0.5976 H   0  0  0  0  0  0  0  0  0  0  0  0
   -5.3532   -3.5142    0.9899 H   0  0  0  0  0  0  0  0  0  0  0  0
   -4.1981   -2.2730   -0.4099 C   0  0  0  0  0  0  0  0  0  0  0  0
   -4.8535   -1.5470   -0.1943 H   0  0  0  0  0  0  0  0  0  0  0  0
   -3.3014   -2.0287   -0.0365 H   0  0  0  0  0  0  0  0  0  0  0  0
   -4.0629   -2.3373   -1.9317 N   0  0  0  0  0  4  0  0  0  0  0  0
   -4.3613   -1.4679   -2.3075 H   0  0  0  0  0  0  0  0  0  0  0  0
   -3.1091   -2.5057   -2.1528 H   0  0  0  0  0  0  0  0  0  0  0  0
   -4.6353   -3.0777   -2.2642 H   0  0  0  0  0  0  0  0  0  0  0  0
    0.0575    2.8712   -0.1472 C   0  0  0  0  0  0  0  0  0  0  0  0
    0.9320    3.1750    0.1355 H   0  0  0  0  0  0  0  0  0  0  0  0
   -0.6875    3.2647    0.3298 H   0  0  0  0  0  0  0  0  0  0  0  0
   -0.0555    3.1164   -1.2033 H   0  0  0  0  0  0  0  0  0  0  0  0
   -0.0066    1.3861    0.0065 C   0  0  0  0  0  0  0  0  0  0  0  0
   -1.2037    0.7189    0.0199 C   0  0  0  0  0  0  0  0  0  0  0  0
   -2.0629    1.2048    0.0421 H   0  0  0  0  0  0  0  0  0  0  0  0
   -1.2047   -0.6750    0.0000 C   0  0  0  0  0  0  0  0  0  0  0  0
   -2.0792   -1.1743   -0.0154 H   0  0  0  0  0  0  0  0  0  0  0  0
    0.0123   -1.4017    0.0031 C   0  0  0  0  0  0  0  0  0  0  0  0
   -0.0174   -2.3922    0.0068 H   0  0  0  0  0  0  0  0  0  0  0  0
    1.2047   -0.7124    0.0000 C   0  0  0  0  0  0  0  0  0  0  0  0
    2.0899   -1.2026    0.0206 H   0  0  0  0  0  0  0  0  0  0  0  0
    1.1981    0.6841   -0.0294 C   0  0  0  0  0  0  0  0  0  0  0  0
    2.0593    1.1802   -0.0772 H   0  0  0  0  0  0  0  0  0  0  0  0
  1  5  1  0
  5  8  1  0
  1  2  1  0
  1  3  1  0
  1  4  1  0
  5  6  1  0
  5  7  1  0
  8  9  1  0
  8 10  1  0
  8 11  1  0
 12 16  1  0
 16 17  2  0
 17 19  1  0
 19 21  2  0
 21 23  1  0
 23 25  2  0
 25 16  1  0
 12 13  1  0
 12 14  1  0
 12 15  1  0
 17 18  1  0
 19 20  1  0
 21 22  1  0
 23 24  1  0
 25 26  1  0
M  CHG  1   8   1
M  END
>  <PDB_ID>  (298) 
pdb1dot

>  <RESIDUE_NAME>  (298) 
LYS   PHE

>  <FRAG_NAME>  (298) 
ETAM   MBZ

>  <FRAG_ATOM_NUM>  (298) 
fragi: 11  fragj: 15

>  <atom.prop.CHAIN_ID>  (298) 
A A A A A A A A A A A Z Z Z Z Z Z Z Z Z Z Z Z Z Z Z

>  <atom.prop.IS_HEAVY_ATOM>  (298) 
1 0 0 0 1 0 0 1 0 0 0 1 0 0 0 1 1 0 1 0 1 0 1 0 1 0

>  <DIFUSE_FUNC_ATOM>  (298) 
n/a

>  <FINAL_SINGLE_POINT_ENERGY>  (298) 
0

>  <NONCOV_INTER_ENERGY_QM>  (298) 
0

>  <FF_Energy>  (298) 
39.89

>  <QM_Energy>  (298) 
0.81

>  <source>  (298) 
ETAM_MBZ

>  <Index>  (298) 
2830

$$$$
ETAM-pdb1do8-A-LYS-183:MBZ-pdb1do8-A-PHE-471
     RDKit          3D

 26 25  0  0  0  0  0  0  0  0999 V2000
    0.6820   -2.3660   -3.4693 C   0  0  0  0  0  0  0  0  0  0  0  0
    0.5792   -1.3843   -3.3561 H   0  0  0  0  0  0  0  0  0  0  0  0
    0.5147   -2.8346   -2.6092 H   0  0  0  0  0  0  0  0  0  0  0  0
   -0.0336   -2.7168   -4.2130 H   0  0  0  0  0  0  0  0  0  0  0  0
    2.1085   -2.6540   -3.9067 C   0  0  0  0  0  0  0  0  0  0  0  0
    2.2512   -3.6442   -3.9290 H   0  0  0  0  0  0  0  0  0  0  0  0
    2.2535   -2.2781   -4.8225 H   0  0  0  0  0  0  0  0  0  0  0  0
    3.0993   -2.0403   -2.9667 N   0  0  0  0  0  4  0  0  0  0  0  0
    3.7553   -1.4993   -3.4901 H   0  0  0  0  0  0  0  0  0  0  0  0
    2.6161   -1.4535   -2.3200 H   0  0  0  0  0  0  0  0  0  0  0  0
    3.5756   -2.7656   -2.4743 H   0  0  0  0  0  0  0  0  0  0  0  0
    0.0044    2.9092   -0.0572 C   0  0  0  0  0  0  0  0  0  0  0  0
   -0.7433    3.2005   -0.6386 H   0  0  0  0  0  0  0  0  0  0  0  0
    0.8753    3.2055   -0.4269 H   0  0  0  0  0  0  0  0  0  0  0  0
   -0.1226    3.4049    0.9052 H   0  0  0  0  0  0  0  0  0  0  0  0
    0.0011    1.4090   -0.0010 C   0  0  0  0  0  0  0  0  0  0  0  0
   -1.1916    0.7001   -0.0001 C   0  0  0  0  0  0  0  0  0  0  0  0
   -2.0621    1.1827   -0.0004 H   0  0  0  0  0  0  0  0  0  0  0  0
   -1.1962   -0.7030    0.0000 C   0  0  0  0  0  0  0  0  0  0  0  0
   -2.0777   -1.1888    0.0015 H   0  0  0  0  0  0  0  0  0  0  0  0
   -0.0007   -1.4017    0.0001 C   0  0  0  0  0  0  0  0  0  0  0  0
   -0.0044   -2.3987   -0.0005 H   0  0  0  0  0  0  0  0  0  0  0  0
    1.1962   -0.7038   -0.0000 C   0  0  0  0  0  0  0  0  0  0  0  0
    2.0809   -1.1938    0.0012 H   0  0  0  0  0  0  0  0  0  0  0  0
    1.1912    0.6994    0.0010 C   0  0  0  0  0  0  0  0  0  0  0  0
    2.0641    1.1873    0.0028 H   0  0  0  0  0  0  0  0  0  0  0  0
  1  5  1  0
  5  8  1  0
  1  2  1  0
  1  3  1  0
  1  4  1  0
  5  6  1  0
  5  7  1  0
  8  9  1  0
  8 10  1  0
  8 11  1  0
 12 16  1  0
 16 17  2  0
 17 19  1  0
 19 21  2  0
 21 23  1  0
 23 25  2  0
 25 16  1  0
 12 13  1  0
 12 14  1  0
 12 15  1  0
 17 18  1  0
 19 20  1  0
 21 22  1  0
 23 24  1  0
 25 26  1  0
M  CHG  1   8   1
M  END
>  <PDB_ID>  (299) 
pdb1do8

>  <RESIDUE_NAME>  (299) 
LYS   PHE

>  <FRAG_NAME>  (299) 
ETAM   MBZ

>  <FRAG_ATOM_NUM>  (299) 
fragi: 11  fragj: 15

>  <atom.prop.CHAIN_ID>  (299) 
A A A A A A A A A A A Z Z Z Z Z Z Z Z Z Z Z Z Z Z Z

>  <atom.prop.IS_HEAVY_ATOM>  (299) 
1 0 0 0 1 0 0 1 0 0 0 1 0 0 0 1 1 0 1 0 1 0 1 0 1 0

>  <DIFUSE_FUNC_ATOM>  (299) 
n/a

>  <FINAL_SINGLE_POINT_ENERGY>  (299) 
0

>  <NONCOV_INTER_ENERGY_QM>  (299) 
0

>  <FF_Energy>  (299) 
-2.33

>  <QM_Energy>  (299) 
-7.39

>  <source>  (299) 
ETAM_MBZ

>  <Index>  (299) 
2833

$$$$
ETAM-pdb2efk-A-LYS-187:MBZ-pdb2efk-A-PHE-141
     RDKit          3D

 26 25  0  0  0  0  0  0  0  0999 V2000
   -1.8921   -3.5704   -2.9085 C   0  0  0  0  0  0  0  0  0  0  0  0
   -2.3644   -3.5756   -2.0252 H   0  0  0  0  0  0  0  0  0  0  0  0
   -2.5438   -3.8010   -3.6329 H   0  0  0  0  0  0  0  0  0  0  0  0
   -1.5181   -2.5629   -3.0909 H   0  0  0  0  0  0  0  0  0  0  0  0
   -0.7980   -4.6367   -2.8811 C   0  0  0  0  0  0  0  0  0  0  0  0
   -1.2293   -5.5455   -2.9657 H   0  0  0  0  0  0  0  0  0  0  0  0
   -0.1951   -4.5024   -3.6795 H   0  0  0  0  0  0  0  0  0  0  0  0
    0.0347   -4.6098   -1.6356 N   0  0  0  0  0  4  0  0  0  0  0  0
   -0.4625   -5.0662   -0.9000 H   0  0  0  0  0  0  0  0  0  0  0  0
    0.8955   -5.0850   -1.8077 H   0  0  0  0  0  0  0  0  0  0  0  0
    0.2154   -3.6609   -1.3846 H   0  0  0  0  0  0  0  0  0  0  0  0
   -0.0010    2.9271   -0.0414 C   0  0  0  0  0  0  0  0  0  0  0  0
   -0.3355    3.2039   -0.9273 H   0  0  0  0  0  0  0  0  0  0  0  0
    0.9267    3.2277    0.1082 H   0  0  0  0  0  0  0  0  0  0  0  0
   -0.6319    3.3899    0.7174 H   0  0  0  0  0  0  0  0  0  0  0  0
   -0.0042    1.4067   -0.0014 C   0  0  0  0  0  0  0  0  0  0  0  0
   -1.1903    0.7007    0.0002 C   0  0  0  0  0  0  0  0  0  0  0  0
   -2.0632    1.1828    0.0006 H   0  0  0  0  0  0  0  0  0  0  0  0
   -1.1976   -0.7020    0.0000 C   0  0  0  0  0  0  0  0  0  0  0  0
   -2.0737   -1.1900    0.0017 H   0  0  0  0  0  0  0  0  0  0  0  0
    0.0073   -1.4022   -0.0012 C   0  0  0  0  0  0  0  0  0  0  0  0
    0.0007   -2.3976   -0.0031 H   0  0  0  0  0  0  0  0  0  0  0  0
    1.1976   -0.7001    0.0000 C   0  0  0  0  0  0  0  0  0  0  0  0
    2.0860   -1.1875    0.0008 H   0  0  0  0  0  0  0  0  0  0  0  0
    1.1872    0.6970    0.0025 C   0  0  0  0  0  0  0  0  0  0  0  0
    2.0599    1.1914    0.0065 H   0  0  0  0  0  0  0  0  0  0  0  0
  1  5  1  0
  5  8  1  0
  1  2  1  0
  1  3  1  0
  1  4  1  0
  5  6  1  0
  5  7  1  0
  8  9  1  0
  8 10  1  0
  8 11  1  0
 12 16  1  0
 16 17  2  0
 17 19  1  0
 19 21  2  0
 21 23  1  0
 23 25  2  0
 25 16  1  0
 12 13  1  0
 12 14  1  0
 12 15  1  0
 17 18  1  0
 19 20  1  0
 21 22  1  0
 23 24  1  0
 25 26  1  0
M  CHG  1   8   1
M  END
>  <PDB_ID>  (300) 
pdb2efk

>  <RESIDUE_NAME>  (300) 
LYS   PHE

>  <FRAG_NAME>  (300) 
ETAM   MBZ

>  <FRAG_ATOM_NUM>  (300) 
fragi: 11  fragj: 15

>  <atom.prop.CHAIN_ID>  (300) 
A A A A A A A A A A A Z Z Z Z Z Z Z Z Z Z Z Z Z Z Z

>  <atom.prop.IS_HEAVY_ATOM>  (300) 
1 0 0 0 1 0 0 1 0 0 0 1 0 0 0 1 1 0 1 0 1 0 1 0 1 0

>  <DIFUSE_FUNC_ATOM>  (300) 
n/a

>  <FINAL_SINGLE_POINT_ENERGY>  (300) 
0

>  <NONCOV_INTER_ENERGY_QM>  (300) 
0

>  <FF_Energy>  (300) 
0.29

>  <QM_Energy>  (300) 
-5.08

>  <source>  (300) 
ETAM_MBZ

>  <Index>  (300) 
2857

$$$$
ETAM-pdb2ebf-X-LYS-1014:MBZ-pdb2ebf-X-PHE-1009
     RDKit          3D

 26 25  0  0  0  0  0  0  0  0999 V2000
   -1.8821    0.8105   -4.0676 C   0  0  0  0  0  0  0  0  0  0  0  0
   -1.8458    0.7736   -5.0649 H   0  0  0  0  0  0  0  0  0  0  0  0
   -1.8285    1.7596   -3.7632 H   0  0  0  0  0  0  0  0  0  0  0  0
   -2.8245    0.3799   -3.7293 H   0  0  0  0  0  0  0  0  0  0  0  0
   -0.6912    0.0604   -3.5148 C   0  0  0  0  0  0  0  0  0  0  0  0
    0.1386    0.6111   -3.6542 H   0  0  0  0  0  0  0  0  0  0  0  0
   -0.8197   -0.0814   -2.5274 H   0  0  0  0  0  0  0  0  0  0  0  0
   -0.5084   -1.2648   -4.1730 N   0  0  0  0  0  4  0  0  0  0  0  0
    0.0004   -1.8695   -3.5612 H   0  0  0  0  0  0  0  0  0  0  0  0
   -1.4035   -1.6619   -4.3701 H   0  0  0  0  0  0  0  0  0  0  0  0
   -0.0006   -1.1428   -5.0245 H   0  0  0  0  0  0  0  0  0  0  0  0
    0.0021    2.9181    0.0019 C   0  0  0  0  0  0  0  0  0  0  0  0
    0.7879    3.2232    0.5188 H   0  0  0  0  0  0  0  0  0  0  0  0
   -0.8425    3.2234    0.4159 H   0  0  0  0  0  0  0  0  0  0  0  0
    0.0651    3.3604   -0.9923 H   0  0  0  0  0  0  0  0  0  0  0  0
    0.0016    1.4105    0.0020 C   0  0  0  0  0  0  0  0  0  0  0  0
   -1.2004    0.7010    0.0023 C   0  0  0  0  0  0  0  0  0  0  0  0
   -2.0661    1.1838    0.0026 H   0  0  0  0  0  0  0  0  0  0  0  0
   -1.2032   -0.7073    0.0000 C   0  0  0  0  0  0  0  0  0  0  0  0
   -2.0794   -1.1940    0.0020 H   0  0  0  0  0  0  0  0  0  0  0  0
    0.0007   -1.4015   -0.0038 C   0  0  0  0  0  0  0  0  0  0  0  0
    0.0003   -2.3988   -0.0094 H   0  0  0  0  0  0  0  0  0  0  0  0
    1.2032   -0.7010   -0.0000 C   0  0  0  0  0  0  0  0  0  0  0  0
    2.0857   -1.1949    0.0046 H   0  0  0  0  0  0  0  0  0  0  0  0
    1.1981    0.6983   -0.0006 C   0  0  0  0  0  0  0  0  0  0  0  0
    2.0672    1.1910   -0.0034 H   0  0  0  0  0  0  0  0  0  0  0  0
  1  5  1  0
  5  8  1  0
  1  2  1  0
  1  3  1  0
  1  4  1  0
  5  6  1  0
  5  7  1  0
  8  9  1  0
  8 10  1  0
  8 11  1  0
 12 16  1  0
 16 17  2  0
 17 19  1  0
 19 21  2  0
 21 23  1  0
 23 25  2  0
 25 16  1  0
 12 13  1  0
 12 14  1  0
 12 15  1  0
 17 18  1  0
 19 20  1  0
 21 22  1  0
 23 24  1  0
 25 26  1  0
M  CHG  1   8   1
M  END
>  <PDB_ID>  (301) 
pdb2ebf

>  <RESIDUE_NAME>  (301) 
LYS   PHE

>  <FRAG_NAME>  (301) 
ETAM   MBZ

>  <FRAG_ATOM_NUM>  (301) 
fragi: 11  fragj: 15

>  <atom.prop.CHAIN_ID>  (301) 
A A A A A A A A A A A Z Z Z Z Z Z Z Z Z Z Z Z Z Z Z

>  <atom.prop.IS_HEAVY_ATOM>  (301) 
1 0 0 0 1 0 0 1 0 0 0 1 0 0 0 1 1 0 1 0 1 0 1 0 1 0

>  <DIFUSE_FUNC_ATOM>  (301) 
n/a

>  <FINAL_SINGLE_POINT_ENERGY>  (301) 
0

>  <NONCOV_INTER_ENERGY_QM>  (301) 
0

>  <FF_Energy>  (301) 
-5.04

>  <QM_Energy>  (301) 
-10.11

>  <source>  (301) 
ETAM_MBZ

>  <Index>  (301) 
2867

$$$$
ETAM-pdb2egi-D-LYS-40:MBZ-pdb2egi-D-PHE-36
     RDKit          3D

 26 25  0  0  0  0  0  0  0  0999 V2000
   -1.7347   -1.7456    4.7711 C   0  0  0  0  0  0  0  0  0  0  0  0
   -1.6329   -2.6091    5.2583 H   0  0  0  0  0  0  0  0  0  0  0  0
   -2.3134   -1.1253    5.2952 H   0  0  0  0  0  0  0  0  0  0  0  0
   -0.7509   -1.2923    4.6499 H   0  0  0  0  0  0  0  0  0  0  0  0
   -2.4119   -2.0228    3.4329 C   0  0  0  0  0  0  0  0  0  0  0  0
   -3.4038   -2.1449    3.5908 H   0  0  0  0  0  0  0  0  0  0  0  0
   -2.2960   -1.2135    2.8365 H   0  0  0  0  0  0  0  0  0  0  0  0
   -1.8844   -3.2260    2.7216 N   0  0  0  0  0  4  0  0  0  0  0  0
   -1.2062   -3.6780    3.2985 H   0  0  0  0  0  0  0  0  0  0  0  0
   -2.6380   -3.8535    2.5334 H   0  0  0  0  0  0  0  0  0  0  0  0
   -1.4603   -2.9412    1.8629 H   0  0  0  0  0  0  0  0  0  0  0  0
    0.0049    2.9020    0.0009 C   0  0  0  0  0  0  0  0  0  0  0  0
   -0.6588    3.2115   -0.6656 H   0  0  0  0  0  0  0  0  0  0  0  0
    0.9169    3.2079   -0.2357 H   0  0  0  0  0  0  0  0  0  0  0  0
   -0.2561    3.3464    0.9613 H   0  0  0  0  0  0  0  0  0  0  0  0
    0.0017    1.4026   -0.0001 C   0  0  0  0  0  0  0  0  0  0  0  0
   -1.1956    0.6902   -0.0004 C   0  0  0  0  0  0  0  0  0  0  0  0
   -2.0632    1.1818   -0.0022 H   0  0  0  0  0  0  0  0  0  0  0  0
   -1.2030   -0.7006   -0.0000 C   0  0  0  0  0  0  0  0  0  0  0  0
   -2.0807   -1.1916    0.0017 H   0  0  0  0  0  0  0  0  0  0  0  0
   -0.0045   -1.3963    0.0000 C   0  0  0  0  0  0  0  0  0  0  0  0
   -0.0033   -2.3932   -0.0003 H   0  0  0  0  0  0  0  0  0  0  0  0
    1.2030   -0.6946   -0.0000 C   0  0  0  0  0  0  0  0  0  0  0  0
    2.0817   -1.1932    0.0011 H   0  0  0  0  0  0  0  0  0  0  0  0
    1.1985    0.6987    0.0004 C   0  0  0  0  0  0  0  0  0  0  0  0
    2.0658    1.1939    0.0004 H   0  0  0  0  0  0  0  0  0  0  0  0
  1  5  1  0
  5  8  1  0
  1  2  1  0
  1  3  1  0
  1  4  1  0
  5  6  1  0
  5  7  1  0
  8  9  1  0
  8 10  1  0
  8 11  1  0
 12 16  1  0
 16 17  2  0
 17 19  1  0
 19 21  2  0
 21 23  1  0
 23 25  2  0
 25 16  1  0
 12 13  1  0
 12 14  1  0
 12 15  1  0
 17 18  1  0
 19 20  1  0
 21 22  1  0
 23 24  1  0
 25 26  1  0
M  CHG  1   8   1
M  END
>  <PDB_ID>  (302) 
pdb2egi

>  <RESIDUE_NAME>  (302) 
LYS   PHE

>  <FRAG_NAME>  (302) 
ETAM   MBZ

>  <FRAG_ATOM_NUM>  (302) 
fragi: 11  fragj: 15

>  <atom.prop.CHAIN_ID>  (302) 
A A A A A A A A A A A Z Z Z Z Z Z Z Z Z Z Z Z Z Z Z

>  <atom.prop.IS_HEAVY_ATOM>  (302) 
1 0 0 0 1 0 0 1 0 0 0 1 0 0 0 1 1 0 1 0 1 0 1 0 1 0

>  <DIFUSE_FUNC_ATOM>  (302) 
n/a

>  <FINAL_SINGLE_POINT_ENERGY>  (302) 
0

>  <NONCOV_INTER_ENERGY_QM>  (302) 
0

>  <FF_Energy>  (302) 
-1.92

>  <QM_Energy>  (302) 
-7.82

>  <source>  (302) 
ETAM_MBZ

>  <Index>  (302) 
2877

$$$$
ETAM-pdb1dqt-A-LYS-55:MBZ-pdb1dqt-A-PHE-70
     RDKit          3D

 26 25  0  0  0  0  0  0  0  0999 V2000
    3.5795   -1.5297    3.6920 C   0  0  0  0  0  0  0  0  0  0  0  0
    3.8942   -1.3154    2.7781 H   0  0  0  0  0  0  0  0  0  0  0  0
    4.3351   -1.7672    4.2850 H   0  0  0  0  0  0  0  0  0  0  0  0
    3.0677   -0.6590    4.1019 H   0  0  0  0  0  0  0  0  0  0  0  0
    2.6289   -2.7187    3.6148 C   0  0  0  0  0  0  0  0  0  0  0  0
    3.1215   -3.5057    3.2492 H   0  0  0  0  0  0  0  0  0  0  0  0
    2.2930   -2.9275    4.5305 H   0  0  0  0  0  0  0  0  0  0  0  0
    1.4651   -2.4116    2.7247 N   0  0  0  0  0  4  0  0  0  0  0  0
    1.7466   -2.5081    1.7721 H   0  0  0  0  0  0  0  0  0  0  0  0
    0.7230   -3.0492    2.9247 H   0  0  0  0  0  0  0  0  0  0  0  0
    1.1613   -1.4758    2.8944 H   0  0  0  0  0  0  0  0  0  0  0  0
    0.0025    2.9083   -0.0444 C   0  0  0  0  0  0  0  0  0  0  0  0
   -0.5914    3.1955   -0.7837 H   0  0  0  0  0  0  0  0  0  0  0  0
    0.9346    3.2079   -0.2013 H   0  0  0  0  0  0  0  0  0  0  0  0
   -0.3499    3.3879    0.8688 H   0  0  0  0  0  0  0  0  0  0  0  0
   -0.0026    1.4065   -0.0005 C   0  0  0  0  0  0  0  0  0  0  0  0
   -1.1960    0.6971    0.0021 C   0  0  0  0  0  0  0  0  0  0  0  0
   -2.0655    1.1852    0.0045 H   0  0  0  0  0  0  0  0  0  0  0  0
   -1.2042   -0.6981    0.0000 C   0  0  0  0  0  0  0  0  0  0  0  0
   -2.0813   -1.1881    0.0025 H   0  0  0  0  0  0  0  0  0  0  0  0
   -0.0030   -1.3985   -0.0030 C   0  0  0  0  0  0  0  0  0  0  0  0
   -0.0092   -2.3963   -0.0078 H   0  0  0  0  0  0  0  0  0  0  0  0
    1.2042   -0.7049    0.0000 C   0  0  0  0  0  0  0  0  0  0  0  0
    2.0825   -1.1997    0.0028 H   0  0  0  0  0  0  0  0  0  0  0  0
    1.2016    0.6979    0.0014 C   0  0  0  0  0  0  0  0  0  0  0  0
    2.0663    1.1901    0.0028 H   0  0  0  0  0  0  0  0  0  0  0  0
  1  5  1  0
  5  8  1  0
  1  2  1  0
  1  3  1  0
  1  4  1  0
  5  6  1  0
  5  7  1  0
  8  9  1  0
  8 10  1  0
  8 11  1  0
 12 16  1  0
 16 17  2  0
 17 19  1  0
 19 21  2  0
 21 23  1  0
 23 25  2  0
 25 16  1  0
 12 13  1  0
 12 14  1  0
 12 15  1  0
 17 18  1  0
 19 20  1  0
 21 22  1  0
 23 24  1  0
 25 26  1  0
M  CHG  1   8   1
M  END
>  <PDB_ID>  (303) 
pdb1dqt

>  <RESIDUE_NAME>  (303) 
LYS   PHE

>  <FRAG_NAME>  (303) 
ETAM   MBZ

>  <FRAG_ATOM_NUM>  (303) 
fragi: 11  fragj: 15

>  <atom.prop.CHAIN_ID>  (303) 
A A A A A A A A A A A Z Z Z Z Z Z Z Z Z Z Z Z Z Z Z

>  <atom.prop.IS_HEAVY_ATOM>  (303) 
1 0 0 0 1 0 0 1 0 0 0 1 0 0 0 1 1 0 1 0 1 0 1 0 1 0

>  <DIFUSE_FUNC_ATOM>  (303) 
n/a

>  <FINAL_SINGLE_POINT_ENERGY>  (303) 
0

>  <NONCOV_INTER_ENERGY_QM>  (303) 
0

>  <FF_Energy>  (303) 
-2.79

>  <QM_Energy>  (303) 
-9.41

>  <source>  (303) 
ETAM_MBZ

>  <Index>  (303) 
2891

$$$$
ETAM-pdb2ebf-X-LYS-1263:MBZ-pdb2ebf-X-PHE-1271
     RDKit          3D

 26 25  0  0  0  0  0  0  0  0999 V2000
    0.8216    1.4589   -3.7475 C   0  0  0  0  0  0  0  0  0  0  0  0
    1.6916    1.3826   -3.2631 H   0  0  0  0  0  0  0  0  0  0  0  0
    0.2867    2.2093   -3.3659 H   0  0  0  0  0  0  0  0  0  0  0  0
    1.0265    1.6764   -4.7957 H   0  0  0  0  0  0  0  0  0  0  0  0
    0.0477    0.1670   -3.5666 C   0  0  0  0  0  0  0  0  0  0  0  0
    0.4949   -0.5555   -4.0893 H   0  0  0  0  0  0  0  0  0  0  0  0
    0.0376   -0.0739   -2.5986 H   0  0  0  0  0  0  0  0  0  0  0  0
   -1.3453    0.3327   -4.0467 N   0  0  0  0  0  4  0  0  0  0  0  0
   -1.5045   -0.2721   -4.8279 H   0  0  0  0  0  0  0  0  0  0  0  0
   -1.9827    0.1000   -3.3108 H   0  0  0  0  0  0  0  0  0  0  0  0
   -1.4923    1.2826   -4.3261 H   0  0  0  0  0  0  0  0  0  0  0  0
    0.0165    2.9306   -0.0087 C   0  0  0  0  0  0  0  0  0  0  0  0
   -0.2285    3.2230   -0.9193 H   0  0  0  0  0  0  0  0  0  0  0  0
    0.9264    3.2266    0.2351 H   0  0  0  0  0  0  0  0  0  0  0  0
   -0.6825    3.3910    0.6895 H   0  0  0  0  0  0  0  0  0  0  0  0
    0.0042    1.4105    0.0091 C   0  0  0  0  0  0  0  0  0  0  0  0
   -1.2011    0.6904   -0.0001 C   0  0  0  0  0  0  0  0  0  0  0  0
   -2.0667    1.1802   -0.0080 H   0  0  0  0  0  0  0  0  0  0  0  0
   -1.2086   -0.7107    0.0000 C   0  0  0  0  0  0  0  0  0  0  0  0
   -2.0843   -1.1993    0.0052 H   0  0  0  0  0  0  0  0  0  0  0  0
   -0.0047   -1.4052   -0.0055 C   0  0  0  0  0  0  0  0  0  0  0  0
    0.0044   -2.3984   -0.0136 H   0  0  0  0  0  0  0  0  0  0  0  0
    1.2086   -0.6908    0.0000 C   0  0  0  0  0  0  0  0  0  0  0  0
    2.0869   -1.1893    0.0074 H   0  0  0  0  0  0  0  0  0  0  0  0
    1.2015    0.7058   -0.0035 C   0  0  0  0  0  0  0  0  0  0  0  0
    2.0688    1.2003   -0.0157 H   0  0  0  0  0  0  0  0  0  0  0  0
  1  5  1  0
  5  8  1  0
  1  2  1  0
  1  3  1  0
  1  4  1  0
  5  6  1  0
  5  7  1  0
  8  9  1  0
  8 10  1  0
  8 11  1  0
 12 16  1  0
 16 17  2  0
 17 19  1  0
 19 21  2  0
 21 23  1  0
 23 25  2  0
 25 16  1  0
 12 13  1  0
 12 14  1  0
 12 15  1  0
 17 18  1  0
 19 20  1  0
 21 22  1  0
 23 24  1  0
 25 26  1  0
M  CHG  1   8   1
M  END
>  <PDB_ID>  (304) 
pdb2ebf

>  <RESIDUE_NAME>  (304) 
LYS   PHE

>  <FRAG_NAME>  (304) 
ETAM   MBZ

>  <FRAG_ATOM_NUM>  (304) 
fragi: 11  fragj: 15

>  <atom.prop.CHAIN_ID>  (304) 
A A A A A A A A A A A Z Z Z Z Z Z Z Z Z Z Z Z Z Z Z

>  <atom.prop.IS_HEAVY_ATOM>  (304) 
1 0 0 0 1 0 0 1 0 0 0 1 0 0 0 1 1 0 1 0 1 0 1 0 1 0

>  <DIFUSE_FUNC_ATOM>  (304) 
n/a

>  <FINAL_SINGLE_POINT_ENERGY>  (304) 
0

>  <NONCOV_INTER_ENERGY_QM>  (304) 
0

>  <FF_Energy>  (304) 
-6.25

>  <QM_Energy>  (304) 
-11.33

>  <source>  (304) 
ETAM_MBZ

>  <Index>  (304) 
2901

$$$$
ETAM-pdb2eh3-A-LYS-89:MBZ-pdb2eh3-A-PHE-16
     RDKit          3D

 26 25  0  0  0  0  0  0  0  0999 V2000
    1.2572    1.2532   -3.9866 C   0  0  0  0  0  0  0  0  0  0  0  0
    1.2363    1.7258   -4.8588 H   0  0  0  0  0  0  0  0  0  0  0  0
    1.4862    1.8799   -3.2520 H   0  0  0  0  0  0  0  0  0  0  0  0
    0.2752    0.8214   -3.7935 H   0  0  0  0  0  0  0  0  0  0  0  0
    2.3311    0.1694   -4.0489 C   0  0  0  0  0  0  0  0  0  0  0  0
    2.0630   -0.5083   -4.7434 H   0  0  0  0  0  0  0  0  0  0  0  0
    3.1977    0.5923   -4.3374 H   0  0  0  0  0  0  0  0  0  0  0  0
    2.5265   -0.5116   -2.7474 N   0  0  0  0  0  4  0  0  0  0  0  0
    2.2434    0.0970   -2.0053 H   0  0  0  0  0  0  0  0  0  0  0  0
    1.9757   -1.3471   -2.7208 H   0  0  0  0  0  0  0  0  0  0  0  0
    3.4923   -0.7471   -2.6341 H   0  0  0  0  0  0  0  0  0  0  0  0
    0.0013    2.9038    0.0141 C   0  0  0  0  0  0  0  0  0  0  0  0
   -0.5896    3.2184   -0.7133 H   0  0  0  0  0  0  0  0  0  0  0  0
    0.9323    3.2099   -0.1213 H   0  0  0  0  0  0  0  0  0  0  0  0
   -0.3583    3.3429    0.9447 H   0  0  0  0  0  0  0  0  0  0  0  0
   -0.0016    1.3981    0.0003 C   0  0  0  0  0  0  0  0  0  0  0  0
   -1.1945    0.6945   -0.0017 C   0  0  0  0  0  0  0  0  0  0  0  0
   -2.0632    1.1831   -0.0059 H   0  0  0  0  0  0  0  0  0  0  0  0
   -1.2016   -0.6988    0.0000 C   0  0  0  0  0  0  0  0  0  0  0  0
   -2.0775   -1.1902    0.0025 H   0  0  0  0  0  0  0  0  0  0  0  0
   -0.0004   -1.3918   -0.0006 C   0  0  0  0  0  0  0  0  0  0  0  0
   -0.0004   -2.3905   -0.0024 H   0  0  0  0  0  0  0  0  0  0  0  0
    1.2016   -0.6926    0.0000 C   0  0  0  0  0  0  0  0  0  0  0  0
    2.0821   -1.1937    0.0006 H   0  0  0  0  0  0  0  0  0  0  0  0
    1.1965    0.6905    0.0020 C   0  0  0  0  0  0  0  0  0  0  0  0
    2.0633    1.1912    0.0043 H   0  0  0  0  0  0  0  0  0  0  0  0
  1  5  1  0
  5  8  1  0
  1  2  1  0
  1  3  1  0
  1  4  1  0
  5  6  1  0
  5  7  1  0
  8  9  1  0
  8 10  1  0
  8 11  1  0
 12 16  1  0
 16 17  2  0
 17 19  1  0
 19 21  2  0
 21 23  1  0
 23 25  2  0
 25 16  1  0
 12 13  1  0
 12 14  1  0
 12 15  1  0
 17 18  1  0
 19 20  1  0
 21 22  1  0
 23 24  1  0
 25 26  1  0
M  CHG  1   8   1
M  END
>  <PDB_ID>  (305) 
pdb2eh3

>  <RESIDUE_NAME>  (305) 
LYS   PHE

>  <FRAG_NAME>  (305) 
ETAM   MBZ

>  <FRAG_ATOM_NUM>  (305) 
fragi: 11  fragj: 15

>  <atom.prop.CHAIN_ID>  (305) 
A A A A A A A A A A A Z Z Z Z Z Z Z Z Z Z Z Z Z Z Z

>  <atom.prop.IS_HEAVY_ATOM>  (305) 
1 0 0 0 1 0 0 1 0 0 0 1 0 0 0 1 1 0 1 0 1 0 1 0 1 0

>  <DIFUSE_FUNC_ATOM>  (305) 
n/a

>  <FINAL_SINGLE_POINT_ENERGY>  (305) 
0

>  <NONCOV_INTER_ENERGY_QM>  (305) 
0

>  <FF_Energy>  (305) 
-4.12

>  <QM_Energy>  (305) 
-11.36

>  <source>  (305) 
ETAM_MBZ

>  <Index>  (305) 
2908

$$$$
ETAM-pdb2ehd-A-LYS-141:MBZ-pdb2ehd-A-PHE-155
     RDKit          3D

 26 25  0  0  0  0  0  0  0  0999 V2000
   -2.1586   -0.2921    4.3876 C   0  0  0  0  0  0  0  0  0  0  0  0
   -2.9252   -0.8258    4.7353 H   0  0  0  0  0  0  0  0  0  0  0  0
   -1.8620    0.3661    5.0757 H   0  0  0  0  0  0  0  0  0  0  0  0
   -1.3320   -0.9674    4.1666 H   0  0  0  0  0  0  0  0  0  0  0  0
   -2.6262    0.4773    3.1528 C   0  0  0  0  0  0  0  0  0  0  0  0
   -3.2029    1.2501    3.4539 H   0  0  0  0  0  0  0  0  0  0  0  0
   -1.8159    0.8619    2.6859 H   0  0  0  0  0  0  0  0  0  0  0  0
   -3.3979   -0.3537    2.1793 N   0  0  0  0  0  4  0  0  0  0  0  0
   -4.3594   -0.0871    2.2101 H   0  0  0  0  0  0  0  0  0  0  0  0
   -3.0359   -0.2051    1.2607 H   0  0  0  0  0  0  0  0  0  0  0  0
   -3.3074   -1.3169    2.4255 H   0  0  0  0  0  0  0  0  0  0  0  0
    0.0089    2.8995   -0.0442 C   0  0  0  0  0  0  0  0  0  0  0  0
   -0.3234    3.1810   -0.9333 H   0  0  0  0  0  0  0  0  0  0  0  0
    0.9399    3.2030    0.1007 H   0  0  0  0  0  0  0  0  0  0  0  0
   -0.6187    3.3707    0.7122 H   0  0  0  0  0  0  0  0  0  0  0  0
    0.0004    1.3972   -0.0010 C   0  0  0  0  0  0  0  0  0  0  0  0
   -1.1949    0.6904    0.0015 C   0  0  0  0  0  0  0  0  0  0  0  0
   -2.0617    1.1851    0.0033 H   0  0  0  0  0  0  0  0  0  0  0  0
   -1.2014   -0.6922   -0.0000 C   0  0  0  0  0  0  0  0  0  0  0  0
   -2.0783   -1.1877    0.0017 H   0  0  0  0  0  0  0  0  0  0  0  0
   -0.0034   -1.3848   -0.0014 C   0  0  0  0  0  0  0  0  0  0  0  0
   -0.0087   -2.3874   -0.0035 H   0  0  0  0  0  0  0  0  0  0  0  0
    1.2014   -0.6976    0.0000 C   0  0  0  0  0  0  0  0  0  0  0  0
    2.0784   -1.2003    0.0020 H   0  0  0  0  0  0  0  0  0  0  0  0
    1.1979    0.6870    0.0009 C   0  0  0  0  0  0  0  0  0  0  0  0
    2.0659    1.1861    0.0020 H   0  0  0  0  0  0  0  0  0  0  0  0
  1  5  1  0
  5  8  1  0
  1  2  1  0
  1  3  1  0
  1  4  1  0
  5  6  1  0
  5  7  1  0
  8  9  1  0
  8 10  1  0
  8 11  1  0
 12 16  1  0
 16 17  2  0
 17 19  1  0
 19 21  2  0
 21 23  1  0
 23 25  2  0
 25 16  1  0
 12 13  1  0
 12 14  1  0
 12 15  1  0
 17 18  1  0
 19 20  1  0
 21 22  1  0
 23 24  1  0
 25 26  1  0
M  CHG  1   8   1
M  END
>  <PDB_ID>  (306) 
pdb2ehd

>  <RESIDUE_NAME>  (306) 
LYS   PHE

>  <FRAG_NAME>  (306) 
ETAM   MBZ

>  <FRAG_ATOM_NUM>  (306) 
fragi: 11  fragj: 15

>  <atom.prop.CHAIN_ID>  (306) 
A A A A A A A A A A A Z Z Z Z Z Z Z Z Z Z Z Z Z Z Z

>  <atom.prop.IS_HEAVY_ATOM>  (306) 
1 0 0 0 1 0 0 1 0 0 0 1 0 0 0 1 1 0 1 0 1 0 1 0 1 0

>  <DIFUSE_FUNC_ATOM>  (306) 
n/a

>  <FINAL_SINGLE_POINT_ENERGY>  (306) 
0

>  <NONCOV_INTER_ENERGY_QM>  (306) 
0

>  <FF_Energy>  (306) 
-0.92

>  <QM_Energy>  (306) 
-8.21

>  <source>  (306) 
ETAM_MBZ

>  <Index>  (306) 
2909

$$$$
ETAM-pdb2eg5-A-LYS-294:MBZ-pdb2eg5-A-PHE-355
     RDKit          3D

 26 25  0  0  0  0  0  0  0  0999 V2000
   -0.7721   -0.6731   -4.2185 C   0  0  0  0  0  0  0  0  0  0  0  0
   -0.9652   -1.5820   -3.8842 H   0  0  0  0  0  0  0  0  0  0  0  0
   -0.7955   -0.6370   -5.2049 H   0  0  0  0  0  0  0  0  0  0  0  0
   -1.5340    0.0036   -3.8314 H   0  0  0  0  0  0  0  0  0  0  0  0
    0.5895   -0.2427   -3.7354 C   0  0  0  0  0  0  0  0  0  0  0  0
    0.9861    0.4049   -4.3833 H   0  0  0  0  0  0  0  0  0  0  0  0
    0.5070    0.1881   -2.8380 H   0  0  0  0  0  0  0  0  0  0  0  0
    1.5119   -1.4281   -3.6156 N   0  0  0  0  0  4  0  0  0  0  0  0
    1.3667   -2.0296   -4.3963 H   0  0  0  0  0  0  0  0  0  0  0  0
    2.4542   -1.1034   -3.6041 H   0  0  0  0  0  0  0  0  0  0  0  0
    1.3073   -1.9112   -2.7687 H   0  0  0  0  0  0  0  0  0  0  0  0
    0.0117    2.9177   -0.0092 C   0  0  0  0  0  0  0  0  0  0  0  0
   -0.6852    3.2141   -0.6445 H   0  0  0  0  0  0  0  0  0  0  0  0
    0.9094    3.2192   -0.2930 H   0  0  0  0  0  0  0  0  0  0  0  0
   -0.2026    3.3751    0.9567 H   0  0  0  0  0  0  0  0  0  0  0  0
    0.0124    1.4097    0.0106 C   0  0  0  0  0  0  0  0  0  0  0  0
   -1.1921    0.6796    0.0111 C   0  0  0  0  0  0  0  0  0  0  0  0
   -2.0592    1.1769    0.0185 H   0  0  0  0  0  0  0  0  0  0  0  0
   -1.2084   -0.7141   -0.0000 C   0  0  0  0  0  0  0  0  0  0  0  0
   -2.0960   -1.1926   -0.0104 H   0  0  0  0  0  0  0  0  0  0  0  0
   -0.0293   -1.4068    0.0048 C   0  0  0  0  0  0  0  0  0  0  0  0
   -0.0041   -2.3986    0.0109 H   0  0  0  0  0  0  0  0  0  0  0  0
    1.2084   -0.6852    0.0000 C   0  0  0  0  0  0  0  0  0  0  0  0
    2.0758   -1.1932    0.0176 H   0  0  0  0  0  0  0  0  0  0  0  0
    1.2090    0.7167   -0.0265 C   0  0  0  0  0  0  0  0  0  0  0  0
    2.0739    1.2048   -0.0731 H   0  0  0  0  0  0  0  0  0  0  0  0
  1  5  1  0
  5  8  1  0
  1  2  1  0
  1  3  1  0
  1  4  1  0
  5  6  1  0
  5  7  1  0
  8  9  1  0
  8 10  1  0
  8 11  1  0
 12 16  1  0
 16 17  2  0
 17 19  1  0
 19 21  2  0
 21 23  1  0
 23 25  2  0
 25 16  1  0
 12 13  1  0
 12 14  1  0
 12 15  1  0
 17 18  1  0
 19 20  1  0
 21 22  1  0
 23 24  1  0
 25 26  1  0
M  CHG  1   8   1
M  END
>  <PDB_ID>  (307) 
pdb2eg5

>  <RESIDUE_NAME>  (307) 
LYS   PHE

>  <FRAG_NAME>  (307) 
ETAM   MBZ

>  <FRAG_ATOM_NUM>  (307) 
fragi: 11  fragj: 15

>  <atom.prop.CHAIN_ID>  (307) 
A A A A A A A A A A A Z Z Z Z Z Z Z Z Z Z Z Z Z Z Z

>  <atom.prop.IS_HEAVY_ATOM>  (307) 
1 0 0 0 1 0 0 1 0 0 0 1 0 0 0 1 1 0 1 0 1 0 1 0 1 0

>  <DIFUSE_FUNC_ATOM>  (307) 
n/a

>  <FINAL_SINGLE_POINT_ENERGY>  (307) 
0

>  <NONCOV_INTER_ENERGY_QM>  (307) 
0

>  <FF_Energy>  (307) 
-5.59

>  <QM_Energy>  (307) 
-11.67

>  <source>  (307) 
ETAM_MBZ

>  <Index>  (307) 
2914

$$$$
ETAM-pdb2egi-D-LYS-95:MBZ-pdb2egi-D-PHE-68
     RDKit          3D

 26 25  0  0  0  0  0  0  0  0999 V2000
    4.4548    0.6895   -4.6860 C   0  0  0  0  0  0  0  0  0  0  0  0
    3.6933    1.3164   -4.8007 H   0  0  0  0  0  0  0  0  0  0  0  0
    4.2165   -0.2169   -5.0113 H   0  0  0  0  0  0  0  0  0  0  0  0
    5.3048    1.0588   -5.2597 H   0  0  0  0  0  0  0  0  0  0  0  0
    4.7965    0.6032   -3.2103 C   0  0  0  0  0  0  0  0  0  0  0  0
    5.5346   -0.0653   -3.0835 H   0  0  0  0  0  0  0  0  0  0  0  0
    5.1149    1.5015   -2.8951 H   0  0  0  0  0  0  0  0  0  0  0  0
    3.6210    0.1901   -2.3920 N   0  0  0  0  0  4  0  0  0  0  0  0
    2.8795   -0.0943   -2.9986 H   0  0  0  0  0  0  0  0  0  0  0  0
    3.8814   -0.5712   -1.7994 H   0  0  0  0  0  0  0  0  0  0  0  0
    3.3196    0.9624   -1.8335 H   0  0  0  0  0  0  0  0  0  0  0  0
    0.0039    2.9051    0.0335 C   0  0  0  0  0  0  0  0  0  0  0  0
    0.9435    3.2107   -0.0291 H   0  0  0  0  0  0  0  0  0  0  0  0
   -0.4087    3.1960    0.8848 H   0  0  0  0  0  0  0  0  0  0  0  0
   -0.5519    3.3698   -0.7809 H   0  0  0  0  0  0  0  0  0  0  0  0
   -0.0003    1.4033    0.0036 C   0  0  0  0  0  0  0  0  0  0  0  0
   -1.1982    0.6940   -0.0009 C   0  0  0  0  0  0  0  0  0  0  0  0
   -2.0644    1.1846   -0.0065 H   0  0  0  0  0  0  0  0  0  0  0  0
   -1.2039   -0.6976   -0.0000 C   0  0  0  0  0  0  0  0  0  0  0  0
   -2.0786   -1.1912    0.0043 H   0  0  0  0  0  0  0  0  0  0  0  0
    0.0009   -1.3958   -0.0033 C   0  0  0  0  0  0  0  0  0  0  0  0
   -0.0043   -2.3930   -0.0085 H   0  0  0  0  0  0  0  0  0  0  0  0
    1.2039   -0.6982   -0.0000 C   0  0  0  0  0  0  0  0  0  0  0  0
    2.0837   -1.1952    0.0029 H   0  0  0  0  0  0  0  0  0  0  0  0
    1.1976    0.6943    0.0006 C   0  0  0  0  0  0  0  0  0  0  0  0
    2.0652    1.1905   -0.0019 H   0  0  0  0  0  0  0  0  0  0  0  0
  1  5  1  0
  5  8  1  0
  1  2  1  0
  1  3  1  0
  1  4  1  0
  5  6  1  0
  5  7  1  0
  8  9  1  0
  8 10  1  0
  8 11  1  0
 12 16  1  0
 16 17  2  0
 17 19  1  0
 19 21  2  0
 21 23  1  0
 23 25  2  0
 25 16  1  0
 12 13  1  0
 12 14  1  0
 12 15  1  0
 17 18  1  0
 19 20  1  0
 21 22  1  0
 23 24  1  0
 25 26  1  0
M  CHG  1   8   1
M  END
>  <PDB_ID>  (308) 
pdb2egi

>  <RESIDUE_NAME>  (308) 
LYS   PHE

>  <FRAG_NAME>  (308) 
ETAM   MBZ

>  <FRAG_ATOM_NUM>  (308) 
fragi: 11  fragj: 15

>  <atom.prop.CHAIN_ID>  (308) 
A A A A A A A A A A A Z Z Z Z Z Z Z Z Z Z Z Z Z Z Z

>  <atom.prop.IS_HEAVY_ATOM>  (308) 
1 0 0 0 1 0 0 1 0 0 0 1 0 0 0 1 1 0 1 0 1 0 1 0 1 0

>  <DIFUSE_FUNC_ATOM>  (308) 
n/a

>  <FINAL_SINGLE_POINT_ENERGY>  (308) 
0

>  <NONCOV_INTER_ENERGY_QM>  (308) 
0

>  <FF_Energy>  (308) 
-1.2

>  <QM_Energy>  (308) 
-6.49

>  <source>  (308) 
ETAM_MBZ

>  <Index>  (308) 
2915

$$$$
ETAM-pdb1dt0-A-LYS-29:MBZ-pdb1dt0-A-PHE-25
     RDKit          3D

 26 25  0  0  0  0  0  0  0  0999 V2000
    3.2178    0.4555    2.8296 C   0  0  0  0  0  0  0  0  0  0  0  0
    2.5112    1.1423    2.9587 H   0  0  0  0  0  0  0  0  0  0  0  0
    3.1625    0.0637    1.9191 H   0  0  0  0  0  0  0  0  0  0  0  0
    4.1955    0.9190    2.9621 H   0  0  0  0  0  0  0  0  0  0  0  0
    3.0105   -0.6483    3.8442 C   0  0  0  0  0  0  0  0  0  0  0  0
    3.9066   -0.9886    4.1461 H   0  0  0  0  0  0  0  0  0  0  0  0
    2.5219   -0.2758    4.6397 H   0  0  0  0  0  0  0  0  0  0  0  0
    2.2263   -1.7791    3.2791 N   0  0  0  0  0  4  0  0  0  0  0  0
    1.4544   -1.4183    2.7552 H   0  0  0  0  0  0  0  0  0  0  0  0
    2.8128   -2.3229    2.6795 H   0  0  0  0  0  0  0  0  0  0  0  0
    1.8866   -2.3526    4.0242 H   0  0  0  0  0  0  0  0  0  0  0  0
   -0.0052    2.8685    0.1594 C   0  0  0  0  0  0  0  0  0  0  0  0
   -0.9268    3.1985    0.0363 H   0  0  0  0  0  0  0  0  0  0  0  0
    0.6132    3.2563   -0.5042 H   0  0  0  0  0  0  0  0  0  0  0  0
    0.3289    3.1924    1.1450 H   0  0  0  0  0  0  0  0  0  0  0  0
   -0.0048    1.3914    0.0022 C   0  0  0  0  0  0  0  0  0  0  0  0
   -1.2000    0.6947   -0.0022 C   0  0  0  0  0  0  0  0  0  0  0  0
   -2.0649    1.1906   -0.0085 H   0  0  0  0  0  0  0  0  0  0  0  0
   -1.2074   -0.6852    0.0000 C   0  0  0  0  0  0  0  0  0  0  0  0
   -2.0777   -1.1870    0.0009 H   0  0  0  0  0  0  0  0  0  0  0  0
    0.0052   -1.3867    0.0035 C   0  0  0  0  0  0  0  0  0  0  0  0
   -0.0075   -2.3857    0.0076 H   0  0  0  0  0  0  0  0  0  0  0  0
    1.2074   -0.6970    0.0000 C   0  0  0  0  0  0  0  0  0  0  0  0
    2.0855   -1.1989    0.0012 H   0  0  0  0  0  0  0  0  0  0  0  0
    1.1996    0.6828   -0.0036 C   0  0  0  0  0  0  0  0  0  0  0  0
    2.0622    1.1887   -0.0112 H   0  0  0  0  0  0  0  0  0  0  0  0
  1  5  1  0
  5  8  1  0
  1  2  1  0
  1  3  1  0
  1  4  1  0
  5  6  1  0
  5  7  1  0
  8  9  1  0
  8 10  1  0
  8 11  1  0
 12 16  1  0
 16 17  2  0
 17 19  1  0
 19 21  2  0
 21 23  1  0
 23 25  2  0
 25 16  1  0
 12 13  1  0
 12 14  1  0
 12 15  1  0
 17 18  1  0
 19 20  1  0
 21 22  1  0
 23 24  1  0
 25 26  1  0
M  CHG  1   8   1
M  END
>  <PDB_ID>  (309) 
pdb1dt0

>  <RESIDUE_NAME>  (309) 
LYS   PHE

>  <FRAG_NAME>  (309) 
ETAM   MBZ

>  <FRAG_ATOM_NUM>  (309) 
fragi: 11  fragj: 15

>  <atom.prop.CHAIN_ID>  (309) 
A A A A A A A A A A A Z Z Z Z Z Z Z Z Z Z Z Z Z Z Z

>  <atom.prop.IS_HEAVY_ATOM>  (309) 
1 0 0 0 1 0 0 1 0 0 0 1 0 0 0 1 1 0 1 0 1 0 1 0 1 0

>  <DIFUSE_FUNC_ATOM>  (309) 
n/a

>  <FINAL_SINGLE_POINT_ENERGY>  (309) 
0

>  <NONCOV_INTER_ENERGY_QM>  (309) 
0

>  <FF_Energy>  (309) 
-3.59

>  <QM_Energy>  (309) 
-8.8

>  <source>  (309) 
ETAM_MBZ

>  <Index>  (309) 
2924

$$$$
ETAM-pdb1dt0-C-LYS-29:MBZ-pdb1dt0-C-PHE-25
     RDKit          3D

 26 25  0  0  0  0  0  0  0  0999 V2000
    2.7342    0.7335    3.3153 C   0  0  0  0  0  0  0  0  0  0  0  0
    2.0703    1.4460    3.1011 H   0  0  0  0  0  0  0  0  0  0  0  0
    2.9665    0.2258    2.4893 H   0  0  0  0  0  0  0  0  0  0  0  0
    3.6347    1.1879    3.7286 H   0  0  0  0  0  0  0  0  0  0  0  0
    2.1188   -0.2133    4.3028 C   0  0  0  0  0  0  0  0  0  0  0  0
    2.8038   -0.4999    4.9640 H   0  0  0  0  0  0  0  0  0  0  0  0
    1.3578    0.2305    4.7637 H   0  0  0  0  0  0  0  0  0  0  0  0
    1.6113   -1.4157    3.5781 N   0  0  0  0  0  4  0  0  0  0  0  0
    0.6121   -1.4202    3.6068 H   0  0  0  0  0  0  0  0  0  0  0  0
    1.9208   -1.3830    2.6295 H   0  0  0  0  0  0  0  0  0  0  0  0
    1.9640   -2.2390    4.0193 H   0  0  0  0  0  0  0  0  0  0  0  0
   -0.0011    2.8812    0.0903 C   0  0  0  0  0  0  0  0  0  0  0  0
   -0.8911    3.2104   -0.1791 H   0  0  0  0  0  0  0  0  0  0  0  0
    0.7096    3.2233   -0.5032 H   0  0  0  0  0  0  0  0  0  0  0  0
    0.1999    3.2463    1.0974 H   0  0  0  0  0  0  0  0  0  0  0  0
   -0.0062    1.3933    0.0050 C   0  0  0  0  0  0  0  0  0  0  0  0
   -1.1974    0.6966   -0.0028 C   0  0  0  0  0  0  0  0  0  0  0  0
   -2.0637    1.1886   -0.0117 H   0  0  0  0  0  0  0  0  0  0  0  0
   -1.1993   -0.6829   -0.0000 C   0  0  0  0  0  0  0  0  0  0  0  0
   -2.0719   -1.1860    0.0053 H   0  0  0  0  0  0  0  0  0  0  0  0
    0.0090   -1.3851   -0.0018 C   0  0  0  0  0  0  0  0  0  0  0  0
   -0.0094   -2.3867   -0.0053 H   0  0  0  0  0  0  0  0  0  0  0  0
    1.1993   -0.7027   -0.0000 C   0  0  0  0  0  0  0  0  0  0  0  0
    2.0832   -1.1992    0.0029 H   0  0  0  0  0  0  0  0  0  0  0  0
    1.1946    0.6809   -0.0004 C   0  0  0  0  0  0  0  0  0  0  0  0
    2.0609    1.1825   -0.0049 H   0  0  0  0  0  0  0  0  0  0  0  0
  1  5  1  0
  5  8  1  0
  1  2  1  0
  1  3  1  0
  1  4  1  0
  5  6  1  0
  5  7  1  0
  8  9  1  0
  8 10  1  0
  8 11  1  0
 12 16  1  0
 16 17  2  0
 17 19  1  0
 19 21  2  0
 21 23  1  0
 23 25  2  0
 25 16  1  0
 12 13  1  0
 12 14  1  0
 12 15  1  0
 17 18  1  0
 19 20  1  0
 21 22  1  0
 23 24  1  0
 25 26  1  0
M  CHG  1   8   1
M  END
>  <PDB_ID>  (310) 
pdb1dt0

>  <RESIDUE_NAME>  (310) 
LYS   PHE

>  <FRAG_NAME>  (310) 
ETAM   MBZ

>  <FRAG_ATOM_NUM>  (310) 
fragi: 11  fragj: 15

>  <atom.prop.CHAIN_ID>  (310) 
A A A A A A A A A A A Z Z Z Z Z Z Z Z Z Z Z Z Z Z Z

>  <atom.prop.IS_HEAVY_ATOM>  (310) 
1 0 0 0 1 0 0 1 0 0 0 1 0 0 0 1 1 0 1 0 1 0 1 0 1 0

>  <DIFUSE_FUNC_ATOM>  (310) 
n/a

>  <FINAL_SINGLE_POINT_ENERGY>  (310) 
0

>  <NONCOV_INTER_ENERGY_QM>  (310) 
0

>  <FF_Energy>  (310) 
-4.84

>  <QM_Energy>  (310) 
-9.85

>  <source>  (310) 
ETAM_MBZ

>  <Index>  (310) 
2926

$$$$
ETAM-pdb1dtd-C-LYS-407:MBZ-pdb1dtd-C-PHE-461
     RDKit          3D

 26 25  0  0  0  0  0  0  0  0999 V2000
   -2.1335   -2.9445   -3.1910 C   0  0  0  0  0  0  0  0  0  0  0  0
   -2.5439   -2.9378   -2.2922 H   0  0  0  0  0  0  0  0  0  0  0  0
   -2.7833   -3.2130   -3.8845 H   0  0  0  0  0  0  0  0  0  0  0  0
   -1.7680   -1.9432   -3.4188 H   0  0  0  0  0  0  0  0  0  0  0  0
   -0.9761   -3.9406   -3.1930 C   0  0  0  0  0  0  0  0  0  0  0  0
   -1.3425   -4.8623   -3.1523 H   0  0  0  0  0  0  0  0  0  0  0  0
   -0.4420   -3.8141   -4.0207 H   0  0  0  0  0  0  0  0  0  0  0  0
   -0.1083   -3.7003   -2.0020 N   0  0  0  0  0  4  0  0  0  0  0  0
   -0.6818   -3.6211   -1.1875 H   0  0  0  0  0  0  0  0  0  0  0  0
    0.5239   -4.4661   -1.8960 H   0  0  0  0  0  0  0  0  0  0  0  0
    0.4061   -2.8552   -2.1350 H   0  0  0  0  0  0  0  0  0  0  0  0
   -0.0057    2.8956   -0.0327 C   0  0  0  0  0  0  0  0  0  0  0  0
    0.7610    3.2081    0.5105 H   0  0  0  0  0  0  0  0  0  0  0  0
   -0.8648    3.1997    0.3551 H   0  0  0  0  0  0  0  0  0  0  0  0
    0.0872    3.3304   -1.0278 H   0  0  0  0  0  0  0  0  0  0  0  0
    0.0001    1.3894   -0.0143 C   0  0  0  0  0  0  0  0  0  0  0  0
   -1.1928    0.6870   -0.0043 C   0  0  0  0  0  0  0  0  0  0  0  0
   -2.0591    1.1802   -0.0009 H   0  0  0  0  0  0  0  0  0  0  0  0
   -1.1944   -0.6922    0.0000 C   0  0  0  0  0  0  0  0  0  0  0  0
   -2.0737   -1.1892   -0.0165 H   0  0  0  0  0  0  0  0  0  0  0  0
   -0.0027   -1.3812    0.0279 C   0  0  0  0  0  0  0  0  0  0  0  0
   -0.0057   -2.3841    0.0680 H   0  0  0  0  0  0  0  0  0  0  0  0
    1.1944   -0.6936   -0.0000 C   0  0  0  0  0  0  0  0  0  0  0  0
    2.0757   -1.1953   -0.0122 H   0  0  0  0  0  0  0  0  0  0  0  0
    1.1954    0.6906   -0.0093 C   0  0  0  0  0  0  0  0  0  0  0  0
    2.0616    1.1876   -0.0133 H   0  0  0  0  0  0  0  0  0  0  0  0
  1  5  1  0
  5  8  1  0
  1  2  1  0
  1  3  1  0
  1  4  1  0
  5  6  1  0
  5  7  1  0
  8  9  1  0
  8 10  1  0
  8 11  1  0
 12 16  1  0
 16 17  2  0
 17 19  1  0
 19 21  2  0
 21 23  1  0
 23 25  2  0
 25 16  1  0
 12 13  1  0
 12 14  1  0
 12 15  1  0
 17 18  1  0
 19 20  1  0
 21 22  1  0
 23 24  1  0
 25 26  1  0
M  CHG  1   8   1
M  END
>  <PDB_ID>  (311) 
pdb1dtd

>  <RESIDUE_NAME>  (311) 
LYS   PHE

>  <FRAG_NAME>  (311) 
ETAM   MBZ

>  <FRAG_ATOM_NUM>  (311) 
fragi: 11  fragj: 15

>  <atom.prop.CHAIN_ID>  (311) 
A A A A A A A A A A A Z Z Z Z Z Z Z Z Z Z Z Z Z Z Z

>  <atom.prop.IS_HEAVY_ATOM>  (311) 
1 0 0 0 1 0 0 1 0 0 0 1 0 0 0 1 1 0 1 0 1 0 1 0 1 0

>  <DIFUSE_FUNC_ATOM>  (311) 
n/a

>  <FINAL_SINGLE_POINT_ENERGY>  (311) 
0

>  <NONCOV_INTER_ENERGY_QM>  (311) 
0

>  <FF_Energy>  (311) 
0.79

>  <QM_Energy>  (311) 
-6.2

>  <source>  (311) 
ETAM_MBZ

>  <Index>  (311) 
2932

$$$$
ETAM-pdb2egi-F-LYS-95:MBZ-pdb2egi-F-PHE-68
     RDKit          3D

 26 25  0  0  0  0  0  0  0  0999 V2000
    4.8467    0.6919   -4.3166 C   0  0  0  0  0  0  0  0  0  0  0  0
    4.0002    0.9765   -4.7450 H   0  0  0  0  0  0  0  0  0  0  0  0
    4.9622   -0.2902   -4.3743 H   0  0  0  0  0  0  0  0  0  0  0  0
    5.6794    1.1756   -4.8273 H   0  0  0  0  0  0  0  0  0  0  0  0
    4.8112    1.0940   -2.8494 C   0  0  0  0  0  0  0  0  0  0  0  0
    5.6679    0.8005   -2.4108 H   0  0  0  0  0  0  0  0  0  0  0  0
    4.7492    2.0966   -2.7874 H   0  0  0  0  0  0  0  0  0  0  0  0
    3.6589    0.4908   -2.1168 N   0  0  0  0  0  4  0  0  0  0  0  0
    3.9009   -0.4337   -1.8267 H   0  0  0  0  0  0  0  0  0  0  0  0
    3.4477    1.0504   -1.3168 H   0  0  0  0  0  0  0  0  0  0  0  0
    2.8654    0.4565   -2.7224 H   0  0  0  0  0  0  0  0  0  0  0  0
    0.0052    2.9135    0.0397 C   0  0  0  0  0  0  0  0  0  0  0  0
    0.9464    3.2137    0.0806 H   0  0  0  0  0  0  0  0  0  0  0  0
   -0.4975    3.1984    0.8426 H   0  0  0  0  0  0  0  0  0  0  0  0
   -0.4579    3.3847   -0.8273 H   0  0  0  0  0  0  0  0  0  0  0  0
   -0.0004    1.4066   -0.0024 C   0  0  0  0  0  0  0  0  0  0  0  0
   -1.1986    0.6963   -0.0017 C   0  0  0  0  0  0  0  0  0  0  0  0
   -2.0656    1.1847   -0.0040 H   0  0  0  0  0  0  0  0  0  0  0  0
   -1.2051   -0.7016   -0.0000 C   0  0  0  0  0  0  0  0  0  0  0  0
   -2.0792   -1.1937   -0.0005 H   0  0  0  0  0  0  0  0  0  0  0  0
    0.0031   -1.3999    0.0039 C   0  0  0  0  0  0  0  0  0  0  0  0
   -0.0008   -2.3965    0.0084 H   0  0  0  0  0  0  0  0  0  0  0  0
    1.2051   -0.6988    0.0000 C   0  0  0  0  0  0  0  0  0  0  0  0
    2.0869   -1.1920   -0.0018 H   0  0  0  0  0  0  0  0  0  0  0  0
    1.1959    0.6975    0.0002 C   0  0  0  0  0  0  0  0  0  0  0  0
    2.0650    1.1936    0.0015 H   0  0  0  0  0  0  0  0  0  0  0  0
  1  5  1  0
  5  8  1  0
  1  2  1  0
  1  3  1  0
  1  4  1  0
  5  6  1  0
  5  7  1  0
  8  9  1  0
  8 10  1  0
  8 11  1  0
 12 16  1  0
 16 17  2  0
 17 19  1  0
 19 21  2  0
 21 23  1  0
 23 25  2  0
 25 16  1  0
 12 13  1  0
 12 14  1  0
 12 15  1  0
 17 18  1  0
 19 20  1  0
 21 22  1  0
 23 24  1  0
 25 26  1  0
M  CHG  1   8   1
M  END
>  <PDB_ID>  (312) 
pdb2egi

>  <RESIDUE_NAME>  (312) 
LYS   PHE

>  <FRAG_NAME>  (312) 
ETAM   MBZ

>  <FRAG_ATOM_NUM>  (312) 
fragi: 11  fragj: 15

>  <atom.prop.CHAIN_ID>  (312) 
A A A A A A A A A A A Z Z Z Z Z Z Z Z Z Z Z Z Z Z Z

>  <atom.prop.IS_HEAVY_ATOM>  (312) 
1 0 0 0 1 0 0 1 0 0 0 1 0 0 0 1 1 0 1 0 1 0 1 0 1 0

>  <DIFUSE_FUNC_ATOM>  (312) 
n/a

>  <FINAL_SINGLE_POINT_ENERGY>  (312) 
0

>  <NONCOV_INTER_ENERGY_QM>  (312) 
0

>  <FF_Energy>  (312) 
-0.37

>  <QM_Energy>  (312) 
-5.94

>  <source>  (312) 
ETAM_MBZ

>  <Index>  (312) 
2938

$$$$
ETAM-pdb2eba-E-LYS-308:MBZ-pdb2eba-E-PHE-246
     RDKit          3D

 26 25  0  0  0  0  0  0  0  0999 V2000
    0.1146    0.1875   -3.9169 C   0  0  0  0  0  0  0  0  0  0  0  0
   -0.3925    0.6828   -3.2287 H   0  0  0  0  0  0  0  0  0  0  0  0
    0.4961   -0.6485   -3.5538 H   0  0  0  0  0  0  0  0  0  0  0  0
   -0.5456   -0.0487   -4.7515 H   0  0  0  0  0  0  0  0  0  0  0  0
    1.2588    1.0701   -4.4012 C   0  0  0  0  0  0  0  0  0  0  0  0
    1.7067    0.6146   -5.1825 H   0  0  0  0  0  0  0  0  0  0  0  0
    0.8735    1.9434   -4.7302 H   0  0  0  0  0  0  0  0  0  0  0  0
    2.2648    1.3436   -3.3513 N   0  0  0  0  0  4  0  0  0  0  0  0
    1.9406    0.9863   -2.4737 H   0  0  0  0  0  0  0  0  0  0  0  0
    3.1293    0.8998   -3.5912 H   0  0  0  0  0  0  0  0  0  0  0  0
    2.4099    2.3316   -3.2737 H   0  0  0  0  0  0  0  0  0  0  0  0
   -0.0040    2.9082    0.0024 C   0  0  0  0  0  0  0  0  0  0  0  0
   -0.6777    3.2139   -0.6530 H   0  0  0  0  0  0  0  0  0  0  0  0
    0.9028    3.2160   -0.2422 H   0  0  0  0  0  0  0  0  0  0  0  0
   -0.2557    3.3461    0.9684 H   0  0  0  0  0  0  0  0  0  0  0  0
   -0.0011    1.4033    0.0000 C   0  0  0  0  0  0  0  0  0  0  0  0
   -1.1939    0.6946    0.0008 C   0  0  0  0  0  0  0  0  0  0  0  0
   -2.0625    1.1853    0.0005 H   0  0  0  0  0  0  0  0  0  0  0  0
   -1.1999   -0.6947    0.0000 C   0  0  0  0  0  0  0  0  0  0  0  0
   -2.0801   -1.1860    0.0028 H   0  0  0  0  0  0  0  0  0  0  0  0
   -0.0046   -1.3941   -0.0024 C   0  0  0  0  0  0  0  0  0  0  0  0
   -0.0091   -2.3923   -0.0060 H   0  0  0  0  0  0  0  0  0  0  0  0
    1.1999   -0.7003   -0.0000 C   0  0  0  0  0  0  0  0  0  0  0  0
    2.0791   -1.2011    0.0017 H   0  0  0  0  0  0  0  0  0  0  0  0
    1.1996    0.6912    0.0016 C   0  0  0  0  0  0  0  0  0  0  0  0
    2.0657    1.1871    0.0032 H   0  0  0  0  0  0  0  0  0  0  0  0
  1  5  1  0
  5  8  1  0
  1  2  1  0
  1  3  1  0
  1  4  1  0
  5  6  1  0
  5  7  1  0
  8  9  1  0
  8 10  1  0
  8 11  1  0
 12 16  1  0
 16 17  2  0
 17 19  1  0
 19 21  2  0
 21 23  1  0
 23 25  2  0
 25 16  1  0
 12 13  1  0
 12 14  1  0
 12 15  1  0
 17 18  1  0
 19 20  1  0
 21 22  1  0
 23 24  1  0
 25 26  1  0
M  CHG  1   8   1
M  END
>  <PDB_ID>  (313) 
pdb2eba

>  <RESIDUE_NAME>  (313) 
LYS   PHE

>  <FRAG_NAME>  (313) 
ETAM   MBZ

>  <FRAG_ATOM_NUM>  (313) 
fragi: 11  fragj: 15

>  <atom.prop.CHAIN_ID>  (313) 
A A A A A A A A A A A Z Z Z Z Z Z Z Z Z Z Z Z Z Z Z

>  <atom.prop.IS_HEAVY_ATOM>  (313) 
1 0 0 0 1 0 0 1 0 0 0 1 0 0 0 1 1 0 1 0 1 0 1 0 1 0

>  <DIFUSE_FUNC_ATOM>  (313) 
n/a

>  <FINAL_SINGLE_POINT_ENERGY>  (313) 
0

>  <NONCOV_INTER_ENERGY_QM>  (313) 
0

>  <FF_Energy>  (313) 
-5.39

>  <QM_Energy>  (313) 
-10.95

>  <source>  (313) 
ETAM_MBZ

>  <Index>  (313) 
2946

$$$$
ETAM-pdb2eba-F-LYS-308:MBZ-pdb2eba-F-PHE-246
     RDKit          3D

 26 25  0  0  0  0  0  0  0  0999 V2000
    0.0201    0.3870   -3.9851 C   0  0  0  0  0  0  0  0  0  0  0  0
   -0.3925    0.8735   -3.2356 H   0  0  0  0  0  0  0  0  0  0  0  0
    0.3014   -0.5201   -3.7304 H   0  0  0  0  0  0  0  0  0  0  0  0
   -0.6917    0.3263   -4.8084 H   0  0  0  0  0  0  0  0  0  0  0  0
    1.2518    1.1645   -4.4493 C   0  0  0  0  0  0  0  0  0  0  0  0
    1.6074    0.7246   -5.2927 H   0  0  0  0  0  0  0  0  0  0  0  0
    0.9586    2.1030   -4.7068 H   0  0  0  0  0  0  0  0  0  0  0  0
    2.3405    1.2522   -3.4499 N   0  0  0  0  0  4  0  0  0  0  0  0
    2.8553    2.0991   -3.5882 H   0  0  0  0  0  0  0  0  0  0  0  0
    1.9507    1.2470   -2.5279 H   0  0  0  0  0  0  0  0  0  0  0  0
    2.9555    0.4698   -3.5543 H   0  0  0  0  0  0  0  0  0  0  0  0
    0.0279    2.9168    0.0576 C   0  0  0  0  0  0  0  0  0  0  0  0
   -0.7363    3.2532   -0.4658 H   0  0  0  0  0  0  0  0  0  0  0  0
    0.8889    3.2177   -0.3160 H   0  0  0  0  0  0  0  0  0  0  0  0
   -0.0562    3.3146    1.0689 H   0  0  0  0  0  0  0  0  0  0  0  0
   -0.0001    1.4056   -0.0004 C   0  0  0  0  0  0  0  0  0  0  0  0
   -1.2048    0.6956   -0.0035 C   0  0  0  0  0  0  0  0  0  0  0  0
   -2.0671    1.1798   -0.0094 H   0  0  0  0  0  0  0  0  0  0  0  0
   -1.1977   -0.7019    0.0000 C   0  0  0  0  0  0  0  0  0  0  0  0
   -2.0694   -1.2004    0.0025 H   0  0  0  0  0  0  0  0  0  0  0  0
    0.0117   -1.3885    0.0019 C   0  0  0  0  0  0  0  0  0  0  0  0
    0.0055   -2.3927    0.0042 H   0  0  0  0  0  0  0  0  0  0  0  0
    1.1977   -0.6972   -0.0000 C   0  0  0  0  0  0  0  0  0  0  0  0
    2.0851   -1.1933   -0.0013 H   0  0  0  0  0  0  0  0  0  0  0  0
    1.1932    0.6866    0.0020 C   0  0  0  0  0  0  0  0  0  0  0  0
    2.0644    1.1852    0.0045 H   0  0  0  0  0  0  0  0  0  0  0  0
  1  5  1  0
  5  8  1  0
  1  2  1  0
  1  3  1  0
  1  4  1  0
  5  6  1  0
  5  7  1  0
  8  9  1  0
  8 10  1  0
  8 11  1  0
 12 16  1  0
 16 17  2  0
 17 19  1  0
 19 21  2  0
 21 23  1  0
 23 25  2  0
 25 16  1  0
 12 13  1  0
 12 14  1  0
 12 15  1  0
 17 18  1  0
 19 20  1  0
 21 22  1  0
 23 24  1  0
 25 26  1  0
M  CHG  1   8   1
M  END
>  <PDB_ID>  (314) 
pdb2eba

>  <RESIDUE_NAME>  (314) 
LYS   PHE

>  <FRAG_NAME>  (314) 
ETAM   MBZ

>  <FRAG_ATOM_NUM>  (314) 
fragi: 11  fragj: 15

>  <atom.prop.CHAIN_ID>  (314) 
A A A A A A A A A A A Z Z Z Z Z Z Z Z Z Z Z Z Z Z Z

>  <atom.prop.IS_HEAVY_ATOM>  (314) 
1 0 0 0 1 0 0 1 0 0 0 1 0 0 0 1 1 0 1 0 1 0 1 0 1 0

>  <DIFUSE_FUNC_ATOM>  (314) 
n/a

>  <FINAL_SINGLE_POINT_ENERGY>  (314) 
0

>  <NONCOV_INTER_ENERGY_QM>  (314) 
0

>  <FF_Energy>  (314) 
-5.01

>  <QM_Energy>  (314) 
-10.12

>  <source>  (314) 
ETAM_MBZ

>  <Index>  (314) 
2947

$$$$
ETAM-pdb2eba-H-LYS-308:MBZ-pdb2eba-H-PHE-246
     RDKit          3D

 26 25  0  0  0  0  0  0  0  0999 V2000
   -0.0954    0.2383   -3.9212 C   0  0  0  0  0  0  0  0  0  0  0  0
   -0.5690    0.7016   -3.1854 H   0  0  0  0  0  0  0  0  0  0  0  0
    0.3341   -0.5946   -3.6015 H   0  0  0  0  0  0  0  0  0  0  0  0
   -0.8048   -0.0012   -4.7133 H   0  0  0  0  0  0  0  0  0  0  0  0
    0.9721    1.1555   -4.4628 C   0  0  0  0  0  0  0  0  0  0  0  0
    1.3762    0.7389   -5.2849 H   0  0  0  0  0  0  0  0  0  0  0  0
    0.5509    2.0309   -4.7246 H   0  0  0  0  0  0  0  0  0  0  0  0
    2.0367    1.4055   -3.4693 N   0  0  0  0  0  4  0  0  0  0  0  0
    2.9245    1.1533   -3.8563 H   0  0  0  0  0  0  0  0  0  0  0  0
    2.0468    2.3756   -3.2238 H   0  0  0  0  0  0  0  0  0  0  0  0
    1.8668    0.8586   -2.6483 H   0  0  0  0  0  0  0  0  0  0  0  0
   -0.0058    2.9062    0.0498 C   0  0  0  0  0  0  0  0  0  0  0  0
   -0.7353    3.2314   -0.5311 H   0  0  0  0  0  0  0  0  0  0  0  0
    0.8756    3.2242   -0.2639 H   0  0  0  0  0  0  0  0  0  0  0  0
   -0.1692    3.3147    1.0471 H   0  0  0  0  0  0  0  0  0  0  0  0
   -0.0046    1.4009    0.0005 C   0  0  0  0  0  0  0  0  0  0  0  0
   -1.2005    0.6887    0.0009 C   0  0  0  0  0  0  0  0  0  0  0  0
   -2.0674    1.1808    0.0007 H   0  0  0  0  0  0  0  0  0  0  0  0
   -1.2037   -0.6974   -0.0000 C   0  0  0  0  0  0  0  0  0  0  0  0
   -2.0740   -1.1981    0.0001 H   0  0  0  0  0  0  0  0  0  0  0  0
    0.0080   -1.3942    0.0012 C   0  0  0  0  0  0  0  0  0  0  0  0
    0.0039   -2.3901    0.0023 H   0  0  0  0  0  0  0  0  0  0  0  0
    1.2037   -0.6912   -0.0000 C   0  0  0  0  0  0  0  0  0  0  0  0
    2.0882   -1.1892    0.0024 H   0  0  0  0  0  0  0  0  0  0  0  0
    1.1972    0.6931   -0.0025 C   0  0  0  0  0  0  0  0  0  0  0  0
    2.0624    1.1954   -0.0068 H   0  0  0  0  0  0  0  0  0  0  0  0
  1  5  1  0
  5  8  1  0
  1  2  1  0
  1  3  1  0
  1  4  1  0
  5  6  1  0
  5  7  1  0
  8  9  1  0
  8 10  1  0
  8 11  1  0
 12 16  1  0
 16 17  2  0
 17 19  1  0
 19 21  2  0
 21 23  1  0
 23 25  2  0
 25 16  1  0
 12 13  1  0
 12 14  1  0
 12 15  1  0
 17 18  1  0
 19 20  1  0
 21 22  1  0
 23 24  1  0
 25 26  1  0
M  CHG  1   8   1
M  END
>  <PDB_ID>  (315) 
pdb2eba

>  <RESIDUE_NAME>  (315) 
LYS   PHE

>  <FRAG_NAME>  (315) 
ETAM   MBZ

>  <FRAG_ATOM_NUM>  (315) 
fragi: 11  fragj: 15

>  <atom.prop.CHAIN_ID>  (315) 
A A A A A A A A A A A Z Z Z Z Z Z Z Z Z Z Z Z Z Z Z

>  <atom.prop.IS_HEAVY_ATOM>  (315) 
1 0 0 0 1 0 0 1 0 0 0 1 0 0 0 1 1 0 1 0 1 0 1 0 1 0

>  <DIFUSE_FUNC_ATOM>  (315) 
n/a

>  <FINAL_SINGLE_POINT_ENERGY>  (315) 
0

>  <NONCOV_INTER_ENERGY_QM>  (315) 
0

>  <FF_Energy>  (315) 
-5.54

>  <QM_Energy>  (315) 
-10.65

>  <source>  (315) 
ETAM_MBZ

>  <Index>  (315) 
2948

$$$$
ETAM-pdb2efc-D-LYS-102:MBZ-pdb2efc-D-PHE-98
     RDKit          3D

 26 25  0  0  0  0  0  0  0  0999 V2000
    0.5363   -1.1842    3.4274 C   0  0  0  0  0  0  0  0  0  0  0  0
    0.3357   -1.5777    2.5262 H   0  0  0  0  0  0  0  0  0  0  0  0
    0.7040   -0.2004    3.3236 H   0  0  0  0  0  0  0  0  0  0  0  0
   -0.3343   -1.3231    4.0684 H   0  0  0  0  0  0  0  0  0  0  0  0
    1.7837   -1.8325    3.9724 C   0  0  0  0  0  0  0  0  0  0  0  0
    1.8730   -1.6158    4.9424 H   0  0  0  0  0  0  0  0  0  0  0  0
    1.7229   -2.8225    3.8528 H   0  0  0  0  0  0  0  0  0  0  0  0
    2.9857   -1.3286    3.2485 N   0  0  0  0  0  4  0  0  0  0  0  0
    3.4474   -0.6441    3.8106 H   0  0  0  0  0  0  0  0  0  0  0  0
    3.6067   -2.0903    3.0688 H   0  0  0  0  0  0  0  0  0  0  0  0
    2.7013   -0.9164    2.3834 H   0  0  0  0  0  0  0  0  0  0  0  0
    0.0036    2.9233   -0.0273 C   0  0  0  0  0  0  0  0  0  0  0  0
   -0.4797    3.2084   -0.8415 H   0  0  0  0  0  0  0  0  0  0  0  0
    0.9458    3.2230   -0.0455 H   0  0  0  0  0  0  0  0  0  0  0  0
   -0.4793    3.3919    0.8302 H   0  0  0  0  0  0  0  0  0  0  0  0
   -0.0001    1.4090    0.0051 C   0  0  0  0  0  0  0  0  0  0  0  0
   -1.1965    0.6941   -0.0093 C   0  0  0  0  0  0  0  0  0  0  0  0
   -2.0655    1.1836   -0.0279 H   0  0  0  0  0  0  0  0  0  0  0  0
   -1.2072   -0.7032   -0.0000 C   0  0  0  0  0  0  0  0  0  0  0  0
   -2.0836   -1.1919    0.0040 H   0  0  0  0  0  0  0  0  0  0  0  0
   -0.0036   -1.4039    0.0049 C   0  0  0  0  0  0  0  0  0  0  0  0
   -0.0045   -2.3985    0.0111 H   0  0  0  0  0  0  0  0  0  0  0  0
    1.2072   -0.6995   -0.0000 C   0  0  0  0  0  0  0  0  0  0  0  0
    2.0854   -1.1939   -0.0018 H   0  0  0  0  0  0  0  0  0  0  0  0
    1.2002    0.7036   -0.0006 C   0  0  0  0  0  0  0  0  0  0  0  0
    2.0671    1.1966   -0.0057 H   0  0  0  0  0  0  0  0  0  0  0  0
  1  5  1  0
  5  8  1  0
  1  2  1  0
  1  3  1  0
  1  4  1  0
  5  6  1  0
  5  7  1  0
  8  9  1  0
  8 10  1  0
  8 11  1  0
 12 16  1  0
 16 17  2  0
 17 19  1  0
 19 21  2  0
 21 23  1  0
 23 25  2  0
 25 16  1  0
 12 13  1  0
 12 14  1  0
 12 15  1  0
 17 18  1  0
 19 20  1  0
 21 22  1  0
 23 24  1  0
 25 26  1  0
M  CHG  1   8   1
M  END
>  <PDB_ID>  (316) 
pdb2efc

>  <RESIDUE_NAME>  (316) 
LYS   PHE

>  <FRAG_NAME>  (316) 
ETAM   MBZ

>  <FRAG_ATOM_NUM>  (316) 
fragi: 11  fragj: 15

>  <atom.prop.CHAIN_ID>  (316) 
A A A A A A A A A A A Z Z Z Z Z Z Z Z Z Z Z Z Z Z Z

>  <atom.prop.IS_HEAVY_ATOM>  (316) 
1 0 0 0 1 0 0 1 0 0 0 1 0 0 0 1 1 0 1 0 1 0 1 0 1 0

>  <DIFUSE_FUNC_ATOM>  (316) 
n/a

>  <FINAL_SINGLE_POINT_ENERGY>  (316) 
0

>  <NONCOV_INTER_ENERGY_QM>  (316) 
0

>  <FF_Energy>  (316) 
-2.67

>  <QM_Energy>  (316) 
-8.22

>  <source>  (316) 
ETAM_MBZ

>  <Index>  (316) 
2961

$$$$
ETAM-pdb2eg5-C-LYS-294:MBZ-pdb2eg5-C-PHE-355
     RDKit          3D

 26 25  0  0  0  0  0  0  0  0999 V2000
   -0.9442   -0.6361   -4.1835 C   0  0  0  0  0  0  0  0  0  0  0  0
   -1.1097   -1.5361   -3.7803 H   0  0  0  0  0  0  0  0  0  0  0  0
   -1.0418   -0.6912   -5.1766 H   0  0  0  0  0  0  0  0  0  0  0  0
   -1.6885    0.0605   -3.7974 H   0  0  0  0  0  0  0  0  0  0  0  0
    0.4714   -0.2105   -3.8578 C   0  0  0  0  0  0  0  0  0  0  0  0
    0.8023    0.3909   -4.5719 H   0  0  0  0  0  0  0  0  0  0  0  0
    0.4791    0.2458   -2.9779 H   0  0  0  0  0  0  0  0  0  0  0  0
    1.3112   -1.4210   -3.7984 N   0  0  0  0  0  4  0  0  0  0  0  0
    1.4036   -1.8140   -4.7151 H   0  0  0  0  0  0  0  0  0  0  0  0
    2.2192   -1.1859   -3.4476 H   0  0  0  0  0  0  0  0  0  0  0  0
    0.8884   -2.0972   -3.1915 H   0  0  0  0  0  0  0  0  0  0  0  0
    0.0040    2.9112   -0.0172 C   0  0  0  0  0  0  0  0  0  0  0  0
   -0.7370    3.2061   -0.6054 H   0  0  0  0  0  0  0  0  0  0  0  0
    0.8792    3.2179   -0.3690 H   0  0  0  0  0  0  0  0  0  0  0  0
   -0.1421    3.3751    0.9582 H   0  0  0  0  0  0  0  0  0  0  0  0
    0.0115    1.4108    0.0046 C   0  0  0  0  0  0  0  0  0  0  0  0
   -1.1901    0.6954    0.0040 C   0  0  0  0  0  0  0  0  0  0  0  0
   -2.0566    1.1824    0.0055 H   0  0  0  0  0  0  0  0  0  0  0  0
   -1.1987   -0.7095    0.0000 C   0  0  0  0  0  0  0  0  0  0  0  0
   -2.0901   -1.1823   -0.0085 H   0  0  0  0  0  0  0  0  0  0  0  0
   -0.0284   -1.3918    0.0089 C   0  0  0  0  0  0  0  0  0  0  0  0
   -0.0182   -2.3988    0.0217 H   0  0  0  0  0  0  0  0  0  0  0  0
    1.1987   -0.7072   -0.0000 C   0  0  0  0  0  0  0  0  0  0  0  0
    2.0659   -1.2111    0.0075 H   0  0  0  0  0  0  0  0  0  0  0  0
    1.2071    0.7024   -0.0174 C   0  0  0  0  0  0  0  0  0  0  0  0
    2.0763    1.1832   -0.0465 H   0  0  0  0  0  0  0  0  0  0  0  0
  1  5  1  0
  5  8  1  0
  1  2  1  0
  1  3  1  0
  1  4  1  0
  5  6  1  0
  5  7  1  0
  8  9  1  0
  8 10  1  0
  8 11  1  0
 12 16  1  0
 16 17  2  0
 17 19  1  0
 19 21  2  0
 21 23  1  0
 23 25  2  0
 25 16  1  0
 12 13  1  0
 12 14  1  0
 12 15  1  0
 17 18  1  0
 19 20  1  0
 21 22  1  0
 23 24  1  0
 25 26  1  0
M  CHG  1   8   1
M  END
>  <PDB_ID>  (317) 
pdb2eg5

>  <RESIDUE_NAME>  (317) 
LYS   PHE

>  <FRAG_NAME>  (317) 
ETAM   MBZ

>  <FRAG_ATOM_NUM>  (317) 
fragi: 11  fragj: 15

>  <atom.prop.CHAIN_ID>  (317) 
A A A A A A A A A A A Z Z Z Z Z Z Z Z Z Z Z Z Z Z Z

>  <atom.prop.IS_HEAVY_ATOM>  (317) 
1 0 0 0 1 0 0 1 0 0 0 1 0 0 0 1 1 0 1 0 1 0 1 0 1 0

>  <DIFUSE_FUNC_ATOM>  (317) 
n/a

>  <FINAL_SINGLE_POINT_ENERGY>  (317) 
0

>  <NONCOV_INTER_ENERGY_QM>  (317) 
0

>  <FF_Energy>  (317) 
-5.42

>  <QM_Energy>  (317) 
-10.49

>  <source>  (317) 
ETAM_MBZ

>  <Index>  (317) 
2962

$$$$
ETAM-pdb2egi-H-LYS-95:MBZ-pdb2egi-H-PHE-68
     RDKit          3D

 26 25  0  0  0  0  0  0  0  0999 V2000
    4.8428    0.3286   -3.8714 C   0  0  0  0  0  0  0  0  0  0  0  0
    3.9961    0.5381   -4.3415 H   0  0  0  0  0  0  0  0  0  0  0  0
    5.0220   -0.6461   -3.8805 H   0  0  0  0  0  0  0  0  0  0  0  0
    5.6619    0.8446   -4.3722 H   0  0  0  0  0  0  0  0  0  0  0  0
    4.7263    0.7891   -2.4288 C   0  0  0  0  0  0  0  0  0  0  0  0
    5.5704    0.5418   -1.9411 H   0  0  0  0  0  0  0  0  0  0  0  0
    4.6337    1.7911   -2.4153 H   0  0  0  0  0  0  0  0  0  0  0  0
    3.5670    0.1807   -1.7411 N   0  0  0  0  0  4  0  0  0  0  0  0
    2.9030    0.8928   -1.5069 H   0  0  0  0  0  0  0  0  0  0  0  0
    3.1334   -0.4910   -2.3433 H   0  0  0  0  0  0  0  0  0  0  0  0
    3.8738   -0.2744   -0.9035 H   0  0  0  0  0  0  0  0  0  0  0  0
    0.0031    2.9031   -0.0076 C   0  0  0  0  0  0  0  0  0  0  0  0
    0.9391    3.2078    0.0793 H   0  0  0  0  0  0  0  0  0  0  0  0
   -0.5502    3.2172    0.7493 H   0  0  0  0  0  0  0  0  0  0  0  0
   -0.4052    3.3378   -0.9199 H   0  0  0  0  0  0  0  0  0  0  0  0
   -0.0011    1.4016    0.0023 C   0  0  0  0  0  0  0  0  0  0  0  0
   -1.1966    0.6960    0.0001 C   0  0  0  0  0  0  0  0  0  0  0  0
   -2.0640    1.1860   -0.0030 H   0  0  0  0  0  0  0  0  0  0  0  0
   -1.2038   -0.6970   -0.0000 C   0  0  0  0  0  0  0  0  0  0  0  0
   -2.0788   -1.1900    0.0037 H   0  0  0  0  0  0  0  0  0  0  0  0
    0.0021   -1.3971   -0.0029 C   0  0  0  0  0  0  0  0  0  0  0  0
   -0.0033   -2.3938   -0.0079 H   0  0  0  0  0  0  0  0  0  0  0  0
    1.2038   -0.6977    0.0000 C   0  0  0  0  0  0  0  0  0  0  0  0
    2.0846   -1.1936    0.0029 H   0  0  0  0  0  0  0  0  0  0  0  0
    1.1957    0.6943    0.0005 C   0  0  0  0  0  0  0  0  0  0  0  0
    2.0635    1.1916   -0.0016 H   0  0  0  0  0  0  0  0  0  0  0  0
  1  5  1  0
  5  8  1  0
  1  2  1  0
  1  3  1  0
  1  4  1  0
  5  6  1  0
  5  7  1  0
  8  9  1  0
  8 10  1  0
  8 11  1  0
 12 16  1  0
 16 17  2  0
 17 19  1  0
 19 21  2  0
 21 23  1  0
 23 25  2  0
 25 16  1  0
 12 13  1  0
 12 14  1  0
 12 15  1  0
 17 18  1  0
 19 20  1  0
 21 22  1  0
 23 24  1  0
 25 26  1  0
M  CHG  1   8   1
M  END
>  <PDB_ID>  (318) 
pdb2egi

>  <RESIDUE_NAME>  (318) 
LYS   PHE

>  <FRAG_NAME>  (318) 
ETAM   MBZ

>  <FRAG_ATOM_NUM>  (318) 
fragi: 11  fragj: 15

>  <atom.prop.CHAIN_ID>  (318) 
A A A A A A A A A A A Z Z Z Z Z Z Z Z Z Z Z Z Z Z Z

>  <atom.prop.IS_HEAVY_ATOM>  (318) 
1 0 0 0 1 0 0 1 0 0 0 1 0 0 0 1 1 0 1 0 1 0 1 0 1 0

>  <DIFUSE_FUNC_ATOM>  (318) 
n/a

>  <FINAL_SINGLE_POINT_ENERGY>  (318) 
0

>  <NONCOV_INTER_ENERGY_QM>  (318) 
0

>  <FF_Energy>  (318) 
2.64

>  <QM_Energy>  (318) 
-5.26

>  <source>  (318) 
ETAM_MBZ

>  <Index>  (318) 
2967

$$$$
ETAM-pdb1duv-H-LYS-86:MBZ-pdb1duv-I-PHE-277
     RDKit          3D

 26 25  0  0  0  0  0  0  0  0999 V2000
   -0.9407   -5.0179   -2.9676 C   0  0  0  0  0  0  0  0  0  0  0  0
   -0.2726   -5.4241   -2.3470 H   0  0  0  0  0  0  0  0  0  0  0  0
   -1.3517   -5.7302   -3.5338 H   0  0  0  0  0  0  0  0  0  0  0  0
   -1.7218   -4.5338   -2.3816 H   0  0  0  0  0  0  0  0  0  0  0  0
   -0.2030   -4.0403   -3.8901 C   0  0  0  0  0  0  0  0  0  0  0  0
    0.2491   -4.5767   -4.6351 H   0  0  0  0  0  0  0  0  0  0  0  0
   -0.8958   -3.4476   -4.3540 H   0  0  0  0  0  0  0  0  0  0  0  0
    0.8362   -3.1440   -3.2558 N   0  0  0  0  0  4  0  0  0  0  0  0
    1.2857   -2.6182   -3.9722 H   0  0  0  0  0  0  0  0  0  0  0  0
    0.3820   -2.5328   -2.6140 H   0  0  0  0  0  0  0  0  0  0  0  0
    1.4994   -3.7120   -2.7783 H   0  0  0  0  0  0  0  0  0  0  0  0
    0.0135    2.9187    0.0896 C   0  0  0  0  0  0  0  0  0  0  0  0
    0.9491    3.2249   -0.0351 H   0  0  0  0  0  0  0  0  0  0  0  0
   -0.3255    3.1768    0.9853 H   0  0  0  0  0  0  0  0  0  0  0  0
   -0.6022    3.4238   -0.6547 H   0  0  0  0  0  0  0  0  0  0  0  0
    0.0004    1.4191    0.0018 C   0  0  0  0  0  0  0  0  0  0  0  0
   -1.2043    0.7078   -0.0006 C   0  0  0  0  0  0  0  0  0  0  0  0
   -2.0697    1.1911   -0.0043 H   0  0  0  0  0  0  0  0  0  0  0  0
   -1.2135   -0.7061    0.0000 C   0  0  0  0  0  0  0  0  0  0  0  0
   -2.0882   -1.1905    0.0013 H   0  0  0  0  0  0  0  0  0  0  0  0
   -0.0004   -1.4159    0.0009 C   0  0  0  0  0  0  0  0  0  0  0  0
   -0.0065   -2.4073    0.0016 H   0  0  0  0  0  0  0  0  0  0  0  0
    1.2135   -0.7100   -0.0000 C   0  0  0  0  0  0  0  0  0  0  0  0
    2.0910   -1.1985    0.0019 H   0  0  0  0  0  0  0  0  0  0  0  0
    1.2043    0.7051   -0.0021 C   0  0  0  0  0  0  0  0  0  0  0  0
    2.0716    1.1949   -0.0073 H   0  0  0  0  0  0  0  0  0  0  0  0
  1  5  1  0
  5  8  1  0
  1  2  1  0
  1  3  1  0
  1  4  1  0
  5  6  1  0
  5  7  1  0
  8  9  1  0
  8 10  1  0
  8 11  1  0
 12 16  1  0
 16 17  2  0
 17 19  1  0
 19 21  2  0
 21 23  1  0
 23 25  2  0
 25 16  1  0
 12 13  1  0
 12 14  1  0
 12 15  1  0
 17 18  1  0
 19 20  1  0
 21 22  1  0
 23 24  1  0
 25 26  1  0
M  CHG  1   8   1
M  END
>  <PDB_ID>  (319) 
pdb1duv

>  <RESIDUE_NAME>  (319) 
LYS   PHE

>  <FRAG_NAME>  (319) 
ETAM   MBZ

>  <FRAG_ATOM_NUM>  (319) 
fragi: 11  fragj: 15

>  <atom.prop.CHAIN_ID>  (319) 
A A A A A A A A A A A Z Z Z Z Z Z Z Z Z Z Z Z Z Z Z

>  <atom.prop.IS_HEAVY_ATOM>  (319) 
1 0 0 0 1 0 0 1 0 0 0 1 0 0 0 1 1 0 1 0 1 0 1 0 1 0

>  <DIFUSE_FUNC_ATOM>  (319) 
n/a

>  <FINAL_SINGLE_POINT_ENERGY>  (319) 
0

>  <NONCOV_INTER_ENERGY_QM>  (319) 
0

>  <FF_Energy>  (319) 
-2.44

>  <QM_Energy>  (319) 
-7.89

>  <source>  (319) 
ETAM_MBZ

>  <Index>  (319) 
2970

$$$$
ETAM-pdb2ekc-B-LYS-140:MBZ-pdb2ekc-B-PHE-150
     RDKit          3D

 26 25  0  0  0  0  0  0  0  0999 V2000
    2.2359    0.8259   -4.2445 C   0  0  0  0  0  0  0  0  0  0  0  0
    2.5427    0.4366   -5.1032 H   0  0  0  0  0  0  0  0  0  0  0  0
    2.8470    1.5451   -3.9432 H   0  0  0  0  0  0  0  0  0  0  0  0
    1.2375    1.2416   -4.3802 H   0  0  0  0  0  0  0  0  0  0  0  0
    2.2228   -0.2741   -3.1896 C   0  0  0  0  0  0  0  0  0  0  0  0
    1.9055    0.1164   -2.3189 H   0  0  0  0  0  0  0  0  0  0  0  0
    1.5751   -0.9882   -3.4753 H   0  0  0  0  0  0  0  0  0  0  0  0
    3.5658   -0.8830   -2.9918 N   0  0  0  0  0  4  0  0  0  0  0  0
    3.7814   -0.9009   -2.0160 H   0  0  0  0  0  0  0  0  0  0  0  0
    3.5628   -1.8158   -3.3515 H   0  0  0  0  0  0  0  0  0  0  0  0
    4.2510   -0.3390   -3.4761 H   0  0  0  0  0  0  0  0  0  0  0  0
   -0.0055    2.9068    0.0329 C   0  0  0  0  0  0  0  0  0  0  0  0
   -0.4941    3.2296   -0.7618 H   0  0  0  0  0  0  0  0  0  0  0  0
    0.9317    3.2161    0.0352 H   0  0  0  0  0  0  0  0  0  0  0  0
   -0.4953    3.3171    0.9161 H   0  0  0  0  0  0  0  0  0  0  0  0
   -0.0007    1.4054   -0.0005 C   0  0  0  0  0  0  0  0  0  0  0  0
   -1.1993    0.6948   -0.0007 C   0  0  0  0  0  0  0  0  0  0  0  0
   -2.0665    1.1834   -0.0026 H   0  0  0  0  0  0  0  0  0  0  0  0
   -1.2056   -0.7014   -0.0000 C   0  0  0  0  0  0  0  0  0  0  0  0
   -2.0795   -1.1936    0.0012 H   0  0  0  0  0  0  0  0  0  0  0  0
    0.0019   -1.3991    0.0014 C   0  0  0  0  0  0  0  0  0  0  0  0
   -0.0011   -2.3956    0.0028 H   0  0  0  0  0  0  0  0  0  0  0  0
    1.2056   -0.6977    0.0000 C   0  0  0  0  0  0  0  0  0  0  0  0
    2.0866   -1.1924    0.0005 H   0  0  0  0  0  0  0  0  0  0  0  0
    1.1980    0.6981   -0.0002 C   0  0  0  0  0  0  0  0  0  0  0  0
    2.0658    1.1937   -0.0007 H   0  0  0  0  0  0  0  0  0  0  0  0
  1  5  1  0
  5  8  1  0
  1  2  1  0
  1  3  1  0
  1  4  1  0
  5  6  1  0
  5  7  1  0
  8  9  1  0
  8 10  1  0
  8 11  1  0
 12 16  1  0
 16 17  2  0
 17 19  1  0
 19 21  2  0
 21 23  1  0
 23 25  2  0
 25 16  1  0
 12 13  1  0
 12 14  1  0
 12 15  1  0
 17 18  1  0
 19 20  1  0
 21 22  1  0
 23 24  1  0
 25 26  1  0
M  CHG  1   8   1
M  END
>  <PDB_ID>  (320) 
pdb2ekc

>  <RESIDUE_NAME>  (320) 
LYS   PHE

>  <FRAG_NAME>  (320) 
ETAM   MBZ

>  <FRAG_ATOM_NUM>  (320) 
fragi: 11  fragj: 15

>  <atom.prop.CHAIN_ID>  (320) 
A A A A A A A A A A A Z Z Z Z Z Z Z Z Z Z Z Z Z Z Z

>  <atom.prop.IS_HEAVY_ATOM>  (320) 
1 0 0 0 1 0 0 1 0 0 0 1 0 0 0 1 1 0 1 0 1 0 1 0 1 0

>  <DIFUSE_FUNC_ATOM>  (320) 
n/a

>  <FINAL_SINGLE_POINT_ENERGY>  (320) 
0

>  <NONCOV_INTER_ENERGY_QM>  (320) 
0

>  <FF_Energy>  (320) 
-1.09

>  <QM_Energy>  (320) 
-6.13

>  <source>  (320) 
ETAM_MBZ

>  <Index>  (320) 
2977

$$$$
ETAM-pdb1dvp-A-LYS-8:MBZ-pdb1dvp-A-PHE-2
     RDKit          3D

 26 25  0  0  0  0  0  0  0  0999 V2000
    1.7078    0.0817    3.1108 C   0  0  0  0  0  0  0  0  0  0  0  0
    1.1917   -0.0423    2.2707 H   0  0  0  0  0  0  0  0  0  0  0  0
    2.1039    0.9926    3.1437 H   0  0  0  0  0  0  0  0  0  0  0  0
    1.0224   -0.0240    3.9517 H   0  0  0  0  0  0  0  0  0  0  0  0
    2.8357   -0.9482    3.1531 C   0  0  0  0  0  0  0  0  0  0  0  0
    2.4629   -1.8454    2.9155 H   0  0  0  0  0  0  0  0  0  0  0  0
    3.5336   -0.6901    2.4852 H   0  0  0  0  0  0  0  0  0  0  0  0
    3.4560   -1.0172    4.5097 N   0  0  0  0  0  4  0  0  0  0  0  0
    4.1805   -1.7052    4.5052 H   0  0  0  0  0  0  0  0  0  0  0  0
    3.8400   -0.1251    4.7422 H   0  0  0  0  0  0  0  0  0  0  0  0
    2.7577   -1.2678    5.1781 H   0  0  0  0  0  0  0  0  0  0  0  0
   -0.0094    2.9024    0.0644 C   0  0  0  0  0  0  0  0  0  0  0  0
    0.8526    3.2289   -0.2906 H   0  0  0  0  0  0  0  0  0  0  0  0
   -0.1365    3.1690    1.0072 H   0  0  0  0  0  0  0  0  0  0  0  0
   -0.8058    3.3618   -0.5211 H   0  0  0  0  0  0  0  0  0  0  0  0
   -0.0007    1.4010    0.0011 C   0  0  0  0  0  0  0  0  0  0  0  0
   -1.2051    0.6921   -0.0006 C   0  0  0  0  0  0  0  0  0  0  0  0
   -2.0669    1.1929   -0.0034 H   0  0  0  0  0  0  0  0  0  0  0  0
   -1.2136   -0.6856   -0.0000 C   0  0  0  0  0  0  0  0  0  0  0  0
   -2.0840   -1.1889    0.0000 H   0  0  0  0  0  0  0  0  0  0  0  0
    0.0015   -1.3988    0.0024 C   0  0  0  0  0  0  0  0  0  0  0  0
   -0.0120   -2.3923    0.0054 H   0  0  0  0  0  0  0  0  0  0  0  0
    1.2136   -0.7030    0.0000 C   0  0  0  0  0  0  0  0  0  0  0  0
    2.0890   -1.1990    0.0017 H   0  0  0  0  0  0  0  0  0  0  0  0
    1.2044    0.6942   -0.0029 C   0  0  0  0  0  0  0  0  0  0  0  0
    2.0688    1.1927   -0.0085 H   0  0  0  0  0  0  0  0  0  0  0  0
  1  5  1  0
  5  8  1  0
  1  2  1  0
  1  3  1  0
  1  4  1  0
  5  6  1  0
  5  7  1  0
  8  9  1  0
  8 10  1  0
  8 11  1  0
 12 16  1  0
 16 17  2  0
 17 19  1  0
 19 21  2  0
 21 23  1  0
 23 25  2  0
 25 16  1  0
 12 13  1  0
 12 14  1  0
 12 15  1  0
 17 18  1  0
 19 20  1  0
 21 22  1  0
 23 24  1  0
 25 26  1  0
M  CHG  1   8   1
M  END
>  <PDB_ID>  (321) 
pdb1dvp

>  <RESIDUE_NAME>  (321) 
LYS   PHE

>  <FRAG_NAME>  (321) 
ETAM   MBZ

>  <FRAG_ATOM_NUM>  (321) 
fragi: 11  fragj: 15

>  <atom.prop.CHAIN_ID>  (321) 
A A A A A A A A A A A Z Z Z Z Z Z Z Z Z Z Z Z Z Z Z

>  <atom.prop.IS_HEAVY_ATOM>  (321) 
1 0 0 0 1 0 0 1 0 0 0 1 0 0 0 1 1 0 1 0 1 0 1 0 1 0

>  <DIFUSE_FUNC_ATOM>  (321) 
n/a

>  <FINAL_SINGLE_POINT_ENERGY>  (321) 
0

>  <NONCOV_INTER_ENERGY_QM>  (321) 
0

>  <FF_Energy>  (321) 
1.31

>  <QM_Energy>  (321) 
-4.2

>  <source>  (321) 
ETAM_MBZ

>  <Index>  (321) 
3001

$$$$
ETAM-pdb1dxh-A-LYS-178:MBZ-pdb1dxh-A-PHE-204
     RDKit          3D

 26 25  0  0  0  0  0  0  0  0999 V2000
   -0.4071    0.9361    4.2788 C   0  0  0  0  0  0  0  0  0  0  0  0
   -0.8281    0.8536    5.1806 H   0  0  0  0  0  0  0  0  0  0  0  0
   -1.0437    1.3762    3.6489 H   0  0  0  0  0  0  0  0  0  0  0  0
    0.4902    1.5494    4.3619 H   0  0  0  0  0  0  0  0  0  0  0  0
   -0.0807   -0.4267    3.7678 C   0  0  0  0  0  0  0  0  0  0  0  0
    0.4335   -0.3518    2.9177 H   0  0  0  0  0  0  0  0  0  0  0  0
    0.4544   -0.9218    4.4477 H   0  0  0  0  0  0  0  0  0  0  0  0
   -1.3380   -1.1604    3.5121 N   0  0  0  0  0  4  0  0  0  0  0  0
   -1.7823   -1.3802    4.3823 H   0  0  0  0  0  0  0  0  0  0  0  0
   -1.9523   -0.5933    2.9612 H   0  0  0  0  0  0  0  0  0  0  0  0
   -1.1383   -2.0090    3.0192 H   0  0  0  0  0  0  0  0  0  0  0  0
    0.0072    2.9285    0.0388 C   0  0  0  0  0  0  0  0  0  0  0  0
    0.9318    3.2328   -0.1454 H   0  0  0  0  0  0  0  0  0  0  0  0
   -0.2867    3.2101    0.9423 H   0  0  0  0  0  0  0  0  0  0  0  0
   -0.6498    3.4074   -0.6872 H   0  0  0  0  0  0  0  0  0  0  0  0
    0.0006    1.4135   -0.0004 C   0  0  0  0  0  0  0  0  0  0  0  0
   -1.1929    0.6940   -0.0005 C   0  0  0  0  0  0  0  0  0  0  0  0
   -2.0647    1.1745   -0.0023 H   0  0  0  0  0  0  0  0  0  0  0  0
   -1.1955   -0.7125    0.0000 C   0  0  0  0  0  0  0  0  0  0  0  0
   -2.0771   -1.1957    0.0000 H   0  0  0  0  0  0  0  0  0  0  0  0
   -0.0036   -1.4011    0.0017 C   0  0  0  0  0  0  0  0  0  0  0  0
    0.0028   -2.3995    0.0032 H   0  0  0  0  0  0  0  0  0  0  0  0
    1.1955   -0.6972   -0.0000 C   0  0  0  0  0  0  0  0  0  0  0  0
    2.0805   -1.1919    0.0005 H   0  0  0  0  0  0  0  0  0  0  0  0
    1.1959    0.7033   -0.0007 C   0  0  0  0  0  0  0  0  0  0  0  0
    2.0657    1.1920   -0.0027 H   0  0  0  0  0  0  0  0  0  0  0  0
  1  5  1  0
  5  8  1  0
  1  2  1  0
  1  3  1  0
  1  4  1  0
  5  6  1  0
  5  7  1  0
  8  9  1  0
  8 10  1  0
  8 11  1  0
 12 16  1  0
 16 17  2  0
 17 19  1  0
 19 21  2  0
 21 23  1  0
 23 25  2  0
 25 16  1  0
 12 13  1  0
 12 14  1  0
 12 15  1  0
 17 18  1  0
 19 20  1  0
 21 22  1  0
 23 24  1  0
 25 26  1  0
M  CHG  1   8   1
M  END
>  <PDB_ID>  (322) 
pdb1dxh

>  <RESIDUE_NAME>  (322) 
LYS   PHE

>  <FRAG_NAME>  (322) 
ETAM   MBZ

>  <FRAG_ATOM_NUM>  (322) 
fragi: 11  fragj: 15

>  <atom.prop.CHAIN_ID>  (322) 
A A A A A A A A A A A Z Z Z Z Z Z Z Z Z Z Z Z Z Z Z

>  <atom.prop.IS_HEAVY_ATOM>  (322) 
1 0 0 0 1 0 0 1 0 0 0 1 0 0 0 1 1 0 1 0 1 0 1 0 1 0

>  <DIFUSE_FUNC_ATOM>  (322) 
n/a

>  <FINAL_SINGLE_POINT_ENERGY>  (322) 
0

>  <NONCOV_INTER_ENERGY_QM>  (322) 
0

>  <FF_Energy>  (322) 
-6.22

>  <QM_Energy>  (322) 
-12.25

>  <source>  (322) 
ETAM_MBZ

>  <Index>  (322) 
3007

$$$$
ETAM-pdb2ehh-E-LYS-253:MBZ-pdb2ehh-E-PHE-13
     RDKit          3D

 26 25  0  0  0  0  0  0  0  0999 V2000
   -5.2438    1.9756    3.5708 C   0  0  0  0  0  0  0  0  0  0  0  0
   -5.8559    1.3504    3.0935 H   0  0  0  0  0  0  0  0  0  0  0  0
   -5.0274    2.7542    2.9891 H   0  0  0  0  0  0  0  0  0  0  0  0
   -5.7413    2.3354    4.4715 H   0  0  0  0  0  0  0  0  0  0  0  0
   -3.9519    1.2379    3.8923 C   0  0  0  0  0  0  0  0  0  0  0  0
   -3.3720    1.8248    4.4552 H   0  0  0  0  0  0  0  0  0  0  0  0
   -4.1686    0.4016    4.3923 H   0  0  0  0  0  0  0  0  0  0  0  0
   -3.2147    0.8807    2.6391 N   0  0  0  0  0  4  0  0  0  0  0  0
   -2.3938    1.4443    2.5708 H   0  0  0  0  0  0  0  0  0  0  0  0
   -2.9614   -0.0838    2.6721 H   0  0  0  0  0  0  0  0  0  0  0  0
   -3.8060    1.0486    1.8522 H   0  0  0  0  0  0  0  0  0  0  0  0
   -0.0066    2.9084   -0.0343 C   0  0  0  0  0  0  0  0  0  0  0  0
   -0.9433    3.2117    0.0808 H   0  0  0  0  0  0  0  0  0  0  0  0
    0.3540    3.1965   -0.9113 H   0  0  0  0  0  0  0  0  0  0  0  0
    0.5938    3.3807    0.7432 H   0  0  0  0  0  0  0  0  0  0  0  0
    0.0022    1.4046    0.0002 C   0  0  0  0  0  0  0  0  0  0  0  0
   -1.1980    0.6961   -0.0001 C   0  0  0  0  0  0  0  0  0  0  0  0
   -2.0638    1.1856   -0.0013 H   0  0  0  0  0  0  0  0  0  0  0  0
   -1.2050   -0.7015    0.0000 C   0  0  0  0  0  0  0  0  0  0  0  0
   -2.0814   -1.1912    0.0019 H   0  0  0  0  0  0  0  0  0  0  0  0
   -0.0025   -1.3982   -0.0001 C   0  0  0  0  0  0  0  0  0  0  0  0
   -0.0038   -2.3957   -0.0009 H   0  0  0  0  0  0  0  0  0  0  0  0
    1.2050   -0.6987   -0.0000 C   0  0  0  0  0  0  0  0  0  0  0  0
    2.0841   -1.1949    0.0015 H   0  0  0  0  0  0  0  0  0  0  0  0
    1.1983    0.6977    0.0000 C   0  0  0  0  0  0  0  0  0  0  0  0
    2.0667    1.1919   -0.0009 H   0  0  0  0  0  0  0  0  0  0  0  0
  1  5  1  0
  5  8  1  0
  1  2  1  0
  1  3  1  0
  1  4  1  0
  5  6  1  0
  5  7  1  0
  8  9  1  0
  8 10  1  0
  8 11  1  0
 12 16  1  0
 16 17  2  0
 17 19  1  0
 19 21  2  0
 21 23  1  0
 23 25  2  0
 25 16  1  0
 12 13  1  0
 12 14  1  0
 12 15  1  0
 17 18  1  0
 19 20  1  0
 21 22  1  0
 23 24  1  0
 25 26  1  0
M  CHG  1   8   1
M  END
>  <PDB_ID>  (323) 
pdb2ehh

>  <RESIDUE_NAME>  (323) 
LYS   PHE

>  <FRAG_NAME>  (323) 
ETAM   MBZ

>  <FRAG_ATOM_NUM>  (323) 
fragi: 11  fragj: 15

>  <atom.prop.CHAIN_ID>  (323) 
A A A A A A A A A A A Z Z Z Z Z Z Z Z Z Z Z Z Z Z Z

>  <atom.prop.IS_HEAVY_ATOM>  (323) 
1 0 0 0 1 0 0 1 0 0 0 1 0 0 0 1 1 0 1 0 1 0 1 0 1 0

>  <DIFUSE_FUNC_ATOM>  (323) 
n/a

>  <FINAL_SINGLE_POINT_ENERGY>  (323) 
0

>  <NONCOV_INTER_ENERGY_QM>  (323) 
0

>  <FF_Energy>  (323) 
-2.17

>  <QM_Energy>  (323) 
-7.23

>  <source>  (323) 
ETAM_MBZ

>  <Index>  (323) 
3010

$$$$
ETAM-pdb2eky-D-LYS-6:MBZ-pdb2eky-D-PHE-3
     RDKit          3D

 26 25  0  0  0  0  0  0  0  0999 V2000
    1.3274   -0.3499    4.2743 C   0  0  0  0  0  0  0  0  0  0  0  0
    1.7651   -1.1949    3.9881 H   0  0  0  0  0  0  0  0  0  0  0  0
    0.9733   -0.4371    5.1985 H   0  0  0  0  0  0  0  0  0  0  0  0
    2.0636    0.4537    4.2511 H   0  0  0  0  0  0  0  0  0  0  0  0
    0.1630   -0.0636    3.3337 C   0  0  0  0  0  0  0  0  0  0  0  0
   -0.2136    0.8396    3.5489 H   0  0  0  0  0  0  0  0  0  0  0  0
    0.5013   -0.0598    2.3894 H   0  0  0  0  0  0  0  0  0  0  0  0
   -0.9179   -1.0865    3.4613 N   0  0  0  0  0  4  0  0  0  0  0  0
   -1.6936   -0.6861    3.9469 H   0  0  0  0  0  0  0  0  0  0  0  0
   -1.2042   -1.3778    2.5497 H   0  0  0  0  0  0  0  0  0  0  0  0
   -0.5695   -1.8710    3.9724 H   0  0  0  0  0  0  0  0  0  0  0  0
    0.0023    2.9070   -0.0192 C   0  0  0  0  0  0  0  0  0  0  0  0
    0.8968    3.2152    0.2667 H   0  0  0  0  0  0  0  0  0  0  0  0
   -0.7034    3.2223    0.5970 H   0  0  0  0  0  0  0  0  0  0  0  0
   -0.1989    3.3327   -1.0023 H   0  0  0  0  0  0  0  0  0  0  0  0
   -0.0002    1.4042    0.0001 C   0  0  0  0  0  0  0  0  0  0  0  0
   -1.1977    0.6957   -0.0005 C   0  0  0  0  0  0  0  0  0  0  0  0
   -2.0644    1.1840   -0.0022 H   0  0  0  0  0  0  0  0  0  0  0  0
   -1.2031   -0.6999    0.0000 C   0  0  0  0  0  0  0  0  0  0  0  0
   -2.0790   -1.1916    0.0009 H   0  0  0  0  0  0  0  0  0  0  0  0
    0.0003   -1.3964    0.0007 C   0  0  0  0  0  0  0  0  0  0  0  0
   -0.0031   -2.3949    0.0015 H   0  0  0  0  0  0  0  0  0  0  0  0
    1.2031   -0.6986   -0.0000 C   0  0  0  0  0  0  0  0  0  0  0  0
    2.0840   -1.1952    0.0010 H   0  0  0  0  0  0  0  0  0  0  0  0
    1.1976    0.6950   -0.0003 C   0  0  0  0  0  0  0  0  0  0  0  0
    2.0656    1.1916   -0.0014 H   0  0  0  0  0  0  0  0  0  0  0  0
  1  5  1  0
  5  8  1  0
  1  2  1  0
  1  3  1  0
  1  4  1  0
  5  6  1  0
  5  7  1  0
  8  9  1  0
  8 10  1  0
  8 11  1  0
 12 16  1  0
 16 17  2  0
 17 19  1  0
 19 21  2  0
 21 23  1  0
 23 25  2  0
 25 16  1  0
 12 13  1  0
 12 14  1  0
 12 15  1  0
 17 18  1  0
 19 20  1  0
 21 22  1  0
 23 24  1  0
 25 26  1  0
M  CHG  1   8   1
M  END
>  <PDB_ID>  (324) 
pdb2eky

>  <RESIDUE_NAME>  (324) 
LYS   PHE

>  <FRAG_NAME>  (324) 
ETAM   MBZ

>  <FRAG_ATOM_NUM>  (324) 
fragi: 11  fragj: 15

>  <atom.prop.CHAIN_ID>  (324) 
A A A A A A A A A A A Z Z Z Z Z Z Z Z Z Z Z Z Z Z Z

>  <atom.prop.IS_HEAVY_ATOM>  (324) 
1 0 0 0 1 0 0 1 0 0 0 1 0 0 0 1 1 0 1 0 1 0 1 0 1 0

>  <DIFUSE_FUNC_ATOM>  (324) 
n/a

>  <FINAL_SINGLE_POINT_ENERGY>  (324) 
0

>  <NONCOV_INTER_ENERGY_QM>  (324) 
0

>  <FF_Energy>  (324) 
-5.84

>  <QM_Energy>  (324) 
-14.16

>  <source>  (324) 
ETAM_MBZ

>  <Index>  (324) 
3040

$$$$
ETAM-pdb1dzf-A-LYS-20:MBZ-pdb1dzf-A-PHE-16
     RDKit          3D

 26 25  0  0  0  0  0  0  0  0999 V2000
    0.1505   -0.8357    4.3846 C   0  0  0  0  0  0  0  0  0  0  0  0
    0.6562   -1.0095    5.2227 H   0  0  0  0  0  0  0  0  0  0  0  0
    0.0610   -1.6697    3.8519 H   0  0  0  0  0  0  0  0  0  0  0  0
   -0.8430   -0.4663    4.6387 H   0  0  0  0  0  0  0  0  0  0  0  0
    0.9426    0.1853    3.5485 C   0  0  0  0  0  0  0  0  0  0  0  0
    0.4347    0.3696    2.7033 H   0  0  0  0  0  0  0  0  0  0  0  0
    1.0195    1.0385    4.0728 H   0  0  0  0  0  0  0  0  0  0  0  0
    2.3221   -0.2977    3.1957 N   0  0  0  0  0  4  0  0  0  0  0  0
    2.2535   -0.9606    2.4537 H   0  0  0  0  0  0  0  0  0  0  0  0
    2.8739    0.4812    2.9069 H   0  0  0  0  0  0  0  0  0  0  0  0
    2.7305   -0.7259    3.9983 H   0  0  0  0  0  0  0  0  0  0  0  0
    0.0402    2.9144   -0.0810 C   0  0  0  0  0  0  0  0  0  0  0  0
   -0.1318    3.1732   -1.0234 H   0  0  0  0  0  0  0  0  0  0  0  0
    0.9426    3.2133    0.2051 H   0  0  0  0  0  0  0  0  0  0  0  0
   -0.6919    3.4266    0.5432 H   0  0  0  0  0  0  0  0  0  0  0  0
    0.0047    1.4081   -0.0015 C   0  0  0  0  0  0  0  0  0  0  0  0
   -1.1958    0.7078    0.0018 C   0  0  0  0  0  0  0  0  0  0  0  0
   -2.0607    1.1940    0.0038 H   0  0  0  0  0  0  0  0  0  0  0  0
   -1.2043   -0.6981   -0.0000 C   0  0  0  0  0  0  0  0  0  0  0  0
   -2.0832   -1.1820    0.0015 H   0  0  0  0  0  0  0  0  0  0  0  0
   -0.0036   -1.4007   -0.0025 C   0  0  0  0  0  0  0  0  0  0  0  0
   -0.0097   -2.3972   -0.0063 H   0  0  0  0  0  0  0  0  0  0  0  0
    1.2043   -0.7043    0.0000 C   0  0  0  0  0  0  0  0  0  0  0  0
    2.0821   -1.2019    0.0015 H   0  0  0  0  0  0  0  0  0  0  0  0
    1.1947    0.6873    0.0021 C   0  0  0  0  0  0  0  0  0  0  0  0
    2.0687    1.1832    0.0050 H   0  0  0  0  0  0  0  0  0  0  0  0
  1  5  1  0
  5  8  1  0
  1  2  1  0
  1  3  1  0
  1  4  1  0
  5  6  1  0
  5  7  1  0
  8  9  1  0
  8 10  1  0
  8 11  1  0
 12 16  1  0
 16 17  2  0
 17 19  1  0
 19 21  2  0
 21 23  1  0
 23 25  2  0
 25 16  1  0
 12 13  1  0
 12 14  1  0
 12 15  1  0
 17 18  1  0
 19 20  1  0
 21 22  1  0
 23 24  1  0
 25 26  1  0
M  CHG  1   8   1
M  END
>  <PDB_ID>  (325) 
pdb1dzf

>  <RESIDUE_NAME>  (325) 
LYS   PHE

>  <FRAG_NAME>  (325) 
ETAM   MBZ

>  <FRAG_ATOM_NUM>  (325) 
fragi: 11  fragj: 15

>  <atom.prop.CHAIN_ID>  (325) 
A A A A A A A A A A A Z Z Z Z Z Z Z Z Z Z Z Z Z Z Z

>  <atom.prop.IS_HEAVY_ATOM>  (325) 
1 0 0 0 1 0 0 1 0 0 0 1 0 0 0 1 1 0 1 0 1 0 1 0 1 0

>  <DIFUSE_FUNC_ATOM>  (325) 
n/a

>  <FINAL_SINGLE_POINT_ENERGY>  (325) 
0

>  <NONCOV_INTER_ENERGY_QM>  (325) 
0

>  <FF_Energy>  (325) 
-5.36

>  <QM_Energy>  (325) 
-12.18

>  <source>  (325) 
ETAM_MBZ

>  <Index>  (325) 
3041

$$$$
ETAM-pdb2ery-A-LYS-53:MBZ-pdb2ery-A-PHE-34
     RDKit          3D

 26 25  0  0  0  0  0  0  0  0999 V2000
   -0.5002   -1.1241   -3.6053 C   0  0  0  0  0  0  0  0  0  0  0  0
   -0.8891   -0.2778   -3.2331 H   0  0  0  0  0  0  0  0  0  0  0  0
   -0.1938   -1.7046   -2.8471 H   0  0  0  0  0  0  0  0  0  0  0  0
   -1.2710   -1.6508   -4.1680 H   0  0  0  0  0  0  0  0  0  0  0  0
    0.7109   -0.7625   -4.4484 C   0  0  0  0  0  0  0  0  0  0  0  0
    1.0312   -1.5850   -4.9298 H   0  0  0  0  0  0  0  0  0  0  0  0
    0.4404   -0.0764   -5.1327 H   0  0  0  0  0  0  0  0  0  0  0  0
    1.8319   -0.2124   -3.6282 N   0  0  0  0  0  4  0  0  0  0  0  0
    2.0580    0.7043   -3.9535 H   0  0  0  0  0  0  0  0  0  0  0  0
    1.5496   -0.1702   -2.6717 H   0  0  0  0  0  0  0  0  0  0  0  0
    2.6282   -0.8079   -3.7176 H   0  0  0  0  0  0  0  0  0  0  0  0
    0.0102    2.8880    0.0142 C   0  0  0  0  0  0  0  0  0  0  0  0
    0.4190    3.1868    0.8640 H   0  0  0  0  0  0  0  0  0  0  0  0
   -0.9237    3.2057   -0.0656 H   0  0  0  0  0  0  0  0  0  0  0  0
    0.5805    3.3343   -0.8004 H   0  0  0  0  0  0  0  0  0  0  0  0
    0.0021    1.3948   -0.0033 C   0  0  0  0  0  0  0  0  0  0  0  0
   -1.1973    0.6847    0.0002 C   0  0  0  0  0  0  0  0  0  0  0  0
   -2.0613    1.1741    0.0015 H   0  0  0  0  0  0  0  0  0  0  0  0
   -1.1904   -0.7002    0.0000 C   0  0  0  0  0  0  0  0  0  0  0  0
   -2.0655   -1.2012   -0.0000 H   0  0  0  0  0  0  0  0  0  0  0  0
    0.0091   -1.3806    0.0008 C   0  0  0  0  0  0  0  0  0  0  0  0
    0.0078   -2.3858    0.0018 H   0  0  0  0  0  0  0  0  0  0  0  0
    1.1904   -0.6883    0.0000 C   0  0  0  0  0  0  0  0  0  0  0  0
    2.0800   -1.1851   -0.0008 H   0  0  0  0  0  0  0  0  0  0  0  0
    1.1861    0.6896    0.0023 C   0  0  0  0  0  0  0  0  0  0  0  0
    2.0590    1.1876    0.0075 H   0  0  0  0  0  0  0  0  0  0  0  0
  1  5  1  0
  5  8  1  0
  1  2  1  0
  1  3  1  0
  1  4  1  0
  5  6  1  0
  5  7  1  0
  8  9  1  0
  8 10  1  0
  8 11  1  0
 12 16  1  0
 16 17  2  0
 17 19  1  0
 19 21  2  0
 21 23  1  0
 23 25  2  0
 25 16  1  0
 12 13  1  0
 12 14  1  0
 12 15  1  0
 17 18  1  0
 19 20  1  0
 21 22  1  0
 23 24  1  0
 25 26  1  0
M  CHG  1   8   1
M  END
>  <PDB_ID>  (326) 
pdb2ery

>  <RESIDUE_NAME>  (326) 
LYS   PHE

>  <FRAG_NAME>  (326) 
ETAM   MBZ

>  <FRAG_ATOM_NUM>  (326) 
fragi: 11  fragj: 15

>  <atom.prop.CHAIN_ID>  (326) 
A A A A A A A A A A A Z Z Z Z Z Z Z Z Z Z Z Z Z Z Z

>  <atom.prop.IS_HEAVY_ATOM>  (326) 
1 0 0 0 1 0 0 1 0 0 0 1 0 0 0 1 1 0 1 0 1 0 1 0 1 0

>  <DIFUSE_FUNC_ATOM>  (326) 
n/a

>  <FINAL_SINGLE_POINT_ENERGY>  (326) 
0

>  <NONCOV_INTER_ENERGY_QM>  (326) 
0

>  <FF_Energy>  (326) 
-6.11

>  <QM_Energy>  (326) 
-11.89

>  <source>  (326) 
ETAM_MBZ

>  <Index>  (326) 
3077

$$$$
ETAM-pdb1e1d-A-LYS-47:MBZ-pdb1e1d-A-PHE-110
     RDKit          3D

 26 25  0  0  0  0  0  0  0  0999 V2000
   -1.9367   -3.2196   -4.3795 C   0  0  0  0  0  0  0  0  0  0  0  0
   -0.9873   -3.2769   -4.6486 H   0  0  0  0  0  0  0  0  0  0  0  0
   -2.1789   -2.3006   -4.1067 H   0  0  0  0  0  0  0  0  0  0  0  0
   -2.5721   -3.5377   -5.2061 H   0  0  0  0  0  0  0  0  0  0  0  0
   -2.1413   -4.1443   -3.1623 C   0  0  0  0  0  0  0  0  0  0  0  0
   -2.9921   -4.6475   -3.2888 H   0  0  0  0  0  0  0  0  0  0  0  0
   -1.3733   -4.7789   -3.1157 H   0  0  0  0  0  0  0  0  0  0  0  0
   -2.2115   -3.3511   -1.9045 N   0  0  0  0  0  4  0  0  0  0  0  0
   -3.1662   -3.2546   -1.6263 H   0  0  0  0  0  0  0  0  0  0  0  0
   -1.6997   -3.8220   -1.1864 H   0  0  0  0  0  0  0  0  0  0  0  0
   -1.8153   -2.4470   -2.0603 H   0  0  0  0  0  0  0  0  0  0  0  0
   -0.0026    2.9040   -0.0378 C   0  0  0  0  0  0  0  0  0  0  0  0
   -0.7487    3.1883   -0.6245 H   0  0  0  0  0  0  0  0  0  0  0  0
    0.8698    3.1920   -0.4066 H   0  0  0  0  0  0  0  0  0  0  0  0
   -0.1340    3.3880    0.9300 H   0  0  0  0  0  0  0  0  0  0  0  0
   -0.0055    1.3903    0.0098 C   0  0  0  0  0  0  0  0  0  0  0  0
   -1.1907    0.6983   -0.0107 C   0  0  0  0  0  0  0  0  0  0  0  0
   -2.0612    1.1795   -0.0350 H   0  0  0  0  0  0  0  0  0  0  0  0
   -1.1999   -0.7055    0.0000 C   0  0  0  0  0  0  0  0  0  0  0  0
   -2.0730   -1.1908   -0.0011 H   0  0  0  0  0  0  0  0  0  0  0  0
    0.0022   -1.3789    0.0130 C   0  0  0  0  0  0  0  0  0  0  0  0
   -0.0012   -2.3920    0.0318 H   0  0  0  0  0  0  0  0  0  0  0  0
    1.1999   -0.7027   -0.0000 C   0  0  0  0  0  0  0  0  0  0  0  0
    2.0800   -1.1937    0.0002 H   0  0  0  0  0  0  0  0  0  0  0  0
    1.1939    0.6986   -0.0120 C   0  0  0  0  0  0  0  0  0  0  0  0
    2.0583    1.1911   -0.0367 H   0  0  0  0  0  0  0  0  0  0  0  0
  1  5  1  0
  5  8  1  0
  1  2  1  0
  1  3  1  0
  1  4  1  0
  5  6  1  0
  5  7  1  0
  8  9  1  0
  8 10  1  0
  8 11  1  0
 12 16  1  0
 16 17  2  0
 17 19  1  0
 19 21  2  0
 21 23  1  0
 23 25  2  0
 25 16  1  0
 12 13  1  0
 12 14  1  0
 12 15  1  0
 17 18  1  0
 19 20  1  0
 21 22  1  0
 23 24  1  0
 25 26  1  0
M  CHG  1   8   1
M  END
>  <PDB_ID>  (327) 
pdb1e1d

>  <RESIDUE_NAME>  (327) 
LYS   PHE

>  <FRAG_NAME>  (327) 
ETAM   MBZ

>  <FRAG_ATOM_NUM>  (327) 
fragi: 11  fragj: 15

>  <atom.prop.CHAIN_ID>  (327) 
A A A A A A A A A A A Z Z Z Z Z Z Z Z Z Z Z Z Z Z Z

>  <atom.prop.IS_HEAVY_ATOM>  (327) 
1 0 0 0 1 0 0 1 0 0 0 1 0 0 0 1 1 0 1 0 1 0 1 0 1 0

>  <DIFUSE_FUNC_ATOM>  (327) 
n/a

>  <FINAL_SINGLE_POINT_ENERGY>  (327) 
0

>  <NONCOV_INTER_ENERGY_QM>  (327) 
0

>  <FF_Energy>  (327) 
-0.38

>  <QM_Energy>  (327) 
-6.72

>  <source>  (327) 
ETAM_MBZ

>  <Index>  (327) 
3084

$$$$
ETAM-pdb2es9-A-LYS-15:MBZ-pdb2es9-A-PHE-19
     RDKit          3D

 26 25  0  0  0  0  0  0  0  0999 V2000
    2.5491   -2.1503    3.5810 C   0  0  0  0  0  0  0  0  0  0  0  0
    2.7999   -1.2843    4.0033 H   0  0  0  0  0  0  0  0  0  0  0  0
    2.8601   -2.9110    4.1436 H   0  0  0  0  0  0  0  0  0  0  0  0
    1.4628   -2.1963    3.5039 H   0  0  0  0  0  0  0  0  0  0  0  0
    3.2109   -2.2429    2.2237 C   0  0  0  0  0  0  0  0  0  0  0  0
    3.0818   -3.1709    1.8579 H   0  0  0  0  0  0  0  0  0  0  0  0
    2.7708   -1.5890    1.5977 H   0  0  0  0  0  0  0  0  0  0  0  0
    4.6692   -1.9461    2.2852 N   0  0  0  0  0  4  0  0  0  0  0  0
    5.0766   -2.4445    3.0503 H   0  0  0  0  0  0  0  0  0  0  0  0
    5.1013   -2.2321    1.4311 H   0  0  0  0  0  0  0  0  0  0  0  0
    4.8019   -0.9644    2.4158 H   0  0  0  0  0  0  0  0  0  0  0  0
   -0.0207    2.9065   -0.0169 C   0  0  0  0  0  0  0  0  0  0  0  0
   -0.6582    3.2126    0.6770 H   0  0  0  0  0  0  0  0  0  0  0  0
   -0.3088    3.2005   -0.9184 H   0  0  0  0  0  0  0  0  0  0  0  0
    0.9420    3.3737    0.1902 H   0  0  0  0  0  0  0  0  0  0  0  0
   -0.0016    1.4031   -0.0010 C   0  0  0  0  0  0  0  0  0  0  0  0
   -1.1960    0.6927   -0.0003 C   0  0  0  0  0  0  0  0  0  0  0  0
   -2.0646    1.1816   -0.0010 H   0  0  0  0  0  0  0  0  0  0  0  0
   -1.2017   -0.7000    0.0000 C   0  0  0  0  0  0  0  0  0  0  0  0
   -2.0768   -1.1937    0.0003 H   0  0  0  0  0  0  0  0  0  0  0  0
    0.0028   -1.3944    0.0016 C   0  0  0  0  0  0  0  0  0  0  0  0
    0.0004   -2.3925    0.0032 H   0  0  0  0  0  0  0  0  0  0  0  0
    1.2017   -0.6954    0.0000 C   0  0  0  0  0  0  0  0  0  0  0  0
    2.0844   -1.1925    0.0006 H   0  0  0  0  0  0  0  0  0  0  0  0
    1.1949    0.6940   -0.0002 C   0  0  0  0  0  0  0  0  0  0  0  0
    2.0634    1.1921   -0.0009 H   0  0  0  0  0  0  0  0  0  0  0  0
  1  5  1  0
  5  8  1  0
  1  2  1  0
  1  3  1  0
  1  4  1  0
  5  6  1  0
  5  7  1  0
  8  9  1  0
  8 10  1  0
  8 11  1  0
 12 16  1  0
 16 17  2  0
 17 19  1  0
 19 21  2  0
 21 23  1  0
 23 25  2  0
 25 16  1  0
 12 13  1  0
 12 14  1  0
 12 15  1  0
 17 18  1  0
 19 20  1  0
 21 22  1  0
 23 24  1  0
 25 26  1  0
M  CHG  1   8   1
M  END
>  <PDB_ID>  (328) 
pdb2es9

>  <RESIDUE_NAME>  (328) 
LYS   PHE

>  <FRAG_NAME>  (328) 
ETAM   MBZ

>  <FRAG_ATOM_NUM>  (328) 
fragi: 11  fragj: 15

>  <atom.prop.CHAIN_ID>  (328) 
A A A A A A A A A A A Z Z Z Z Z Z Z Z Z Z Z Z Z Z Z

>  <atom.prop.IS_HEAVY_ATOM>  (328) 
1 0 0 0 1 0 0 1 0 0 0 1 0 0 0 1 1 0 1 0 1 0 1 0 1 0

>  <DIFUSE_FUNC_ATOM>  (328) 
n/a

>  <FINAL_SINGLE_POINT_ENERGY>  (328) 
0

>  <NONCOV_INTER_ENERGY_QM>  (328) 
0

>  <FF_Energy>  (328) 
5.16

>  <QM_Energy>  (328) 
-2.24

>  <source>  (328) 
ETAM_MBZ

>  <Index>  (328) 
3091

$$$$
ETAM-pdb1e1o-A-LYS-446:MBZ-pdb1e1o-A-PHE-455
     RDKit          3D

 26 25  0  0  0  0  0  0  0  0999 V2000
   -1.9644   -1.2796    4.9466 C   0  0  0  0  0  0  0  0  0  0  0  0
   -1.3417   -0.5091    4.9350 H   0  0  0  0  0  0  0  0  0  0  0  0
   -1.4854   -2.1261    4.7551 H   0  0  0  0  0  0  0  0  0  0  0  0
   -2.4316   -1.3466    5.9291 H   0  0  0  0  0  0  0  0  0  0  0  0
   -3.0192   -1.0677    3.8824 C   0  0  0  0  0  0  0  0  0  0  0  0
   -3.5187   -1.9244    3.7453 H   0  0  0  0  0  0  0  0  0  0  0  0
   -3.6564   -0.3602    4.1929 H   0  0  0  0  0  0  0  0  0  0  0  0
   -2.3994   -0.6503    2.6138 N   0  0  0  0  0  4  0  0  0  0  0  0
   -3.0826   -0.6642    1.8810 H   0  0  0  0  0  0  0  0  0  0  0  0
   -2.0340    0.2782    2.7041 H   0  0  0  0  0  0  0  0  0  0  0  0
   -1.6530   -1.2761    2.3785 H   0  0  0  0  0  0  0  0  0  0  0  0
    0.0184    2.8957   -0.0874 C   0  0  0  0  0  0  0  0  0  0  0  0
   -0.2527    3.1539   -1.0065 H   0  0  0  0  0  0  0  0  0  0  0  0
    0.9427    3.2037    0.1038 H   0  0  0  0  0  0  0  0  0  0  0  0
   -0.6506    3.4002    0.6098 H   0  0  0  0  0  0  0  0  0  0  0  0
    0.0001    1.3999   -0.0008 C   0  0  0  0  0  0  0  0  0  0  0  0
   -1.1940    0.6941    0.0020 C   0  0  0  0  0  0  0  0  0  0  0  0
   -2.0614    1.1827    0.0039 H   0  0  0  0  0  0  0  0  0  0  0  0
   -1.1971   -0.6977    0.0000 C   0  0  0  0  0  0  0  0  0  0  0  0
   -2.0743   -1.1913    0.0019 H   0  0  0  0  0  0  0  0  0  0  0  0
    0.0030   -1.3914   -0.0030 C   0  0  0  0  0  0  0  0  0  0  0  0
   -0.0018   -2.3914   -0.0079 H   0  0  0  0  0  0  0  0  0  0  0  0
    1.1971   -0.6962    0.0000 C   0  0  0  0  0  0  0  0  0  0  0  0
    2.0818   -1.1924    0.0018 H   0  0  0  0  0  0  0  0  0  0  0  0
    1.1909    0.6913    0.0018 C   0  0  0  0  0  0  0  0  0  0  0  0
    2.0618    1.1875    0.0040 H   0  0  0  0  0  0  0  0  0  0  0  0
  1  5  1  0
  5  8  1  0
  1  2  1  0
  1  3  1  0
  1  4  1  0
  5  6  1  0
  5  7  1  0
  8  9  1  0
  8 10  1  0
  8 11  1  0
 12 16  1  0
 16 17  2  0
 17 19  1  0
 19 21  2  0
 21 23  1  0
 23 25  2  0
 25 16  1  0
 12 13  1  0
 12 14  1  0
 12 15  1  0
 17 18  1  0
 19 20  1  0
 21 22  1  0
 23 24  1  0
 25 26  1  0
M  CHG  1   8   1
M  END
>  <PDB_ID>  (329) 
pdb1e1o

>  <RESIDUE_NAME>  (329) 
LYS   PHE

>  <FRAG_NAME>  (329) 
ETAM   MBZ

>  <FRAG_ATOM_NUM>  (329) 
fragi: 11  fragj: 15

>  <atom.prop.CHAIN_ID>  (329) 
A A A A A A A A A A A Z Z Z Z Z Z Z Z Z Z Z Z Z Z Z

>  <atom.prop.IS_HEAVY_ATOM>  (329) 
1 0 0 0 1 0 0 1 0 0 0 1 0 0 0 1 1 0 1 0 1 0 1 0 1 0

>  <DIFUSE_FUNC_ATOM>  (329) 
n/a

>  <FINAL_SINGLE_POINT_ENERGY>  (329) 
0

>  <NONCOV_INTER_ENERGY_QM>  (329) 
0

>  <FF_Energy>  (329) 
-1.39

>  <QM_Energy>  (329) 
-9.58

>  <source>  (329) 
ETAM_MBZ

>  <Index>  (329) 
3094

$$$$
ETAM-pdb1dw9-A-LYS-22:MBZ-pdb1dw9-A-PHE-29
     RDKit          3D

 26 25  0  0  0  0  0  0  0  0999 V2000
   -0.8674   -1.4708   -3.6831 C   0  0  0  0  0  0  0  0  0  0  0  0
   -1.7592   -1.1958   -3.3807 H   0  0  0  0  0  0  0  0  0  0  0  0
   -0.5799   -2.3233   -3.2930 H   0  0  0  0  0  0  0  0  0  0  0  0
   -0.9062   -1.5953   -4.7654 H   0  0  0  0  0  0  0  0  0  0  0  0
    0.1304   -0.4029   -3.3744 C   0  0  0  0  0  0  0  0  0  0  0  0
    0.0006    0.3749   -4.0073 H   0  0  0  0  0  0  0  0  0  0  0  0
   -0.0178   -0.0623   -2.4346 H   0  0  0  0  0  0  0  0  0  0  0  0
    1.5437   -0.8750   -3.4888 N   0  0  0  0  0  4  0  0  0  0  0  0
    1.5502   -1.8669   -3.6072 H   0  0  0  0  0  0  0  0  0  0  0  0
    1.9726   -0.4390   -4.2777 H   0  0  0  0  0  0  0  0  0  0  0  0
    2.0402   -0.6314   -2.6571 H   0  0  0  0  0  0  0  0  0  0  0  0
   -0.0416    2.9139   -0.0585 C   0  0  0  0  0  0  0  0  0  0  0  0
    0.8700    3.2290   -0.0168 H   0  0  0  0  0  0  0  0  0  0  0  0
   -0.6216    3.2226    0.6484 H   0  0  0  0  0  0  0  0  0  0  0  0
   -0.4672    3.2320   -1.0102 H   0  0  0  0  0  0  0  0  0  0  0  0
   -0.0167    1.3920   -0.0172 C   0  0  0  0  0  0  0  0  0  0  0  0
   -1.2021    0.6734    0.0107 C   0  0  0  0  0  0  0  0  0  0  0  0
   -2.0761    1.1577    0.0378 H   0  0  0  0  0  0  0  0  0  0  0  0
   -1.2026   -0.7178    0.0000 C   0  0  0  0  0  0  0  0  0  0  0  0
   -2.0649   -1.2190   -0.0243 H   0  0  0  0  0  0  0  0  0  0  0  0
    0.0164   -1.3877    0.0255 C   0  0  0  0  0  0  0  0  0  0  0  0
    0.0268   -2.3904    0.0620 H   0  0  0  0  0  0  0  0  0  0  0  0
    1.2026   -0.6789   -0.0000 C   0  0  0  0  0  0  0  0  0  0  0  0
    2.0946   -1.1696   -0.0036 H   0  0  0  0  0  0  0  0  0  0  0  0
    1.2024    0.7190   -0.0190 C   0  0  0  0  0  0  0  0  0  0  0  0
    2.0528    1.2173   -0.0339 H   0  0  0  0  0  0  0  0  0  0  0  0
  1  5  1  0
  5  8  1  0
  1  2  1  0
  1  3  1  0
  1  4  1  0
  5  6  1  0
  5  7  1  0
  8  9  1  0
  8 10  1  0
  8 11  1  0
 12 16  1  0
 16 17  2  0
 17 19  1  0
 19 21  2  0
 21 23  1  0
 23 25  2  0
 25 16  1  0
 12 13  1  0
 12 14  1  0
 12 15  1  0
 17 18  1  0
 19 20  1  0
 21 22  1  0
 23 24  1  0
 25 26  1  0
M  CHG  1   8   1
M  END
>  <PDB_ID>  (330) 
pdb1dw9

>  <RESIDUE_NAME>  (330) 
LYS   PHE

>  <FRAG_NAME>  (330) 
ETAM   MBZ

>  <FRAG_ATOM_NUM>  (330) 
fragi: 11  fragj: 15

>  <atom.prop.CHAIN_ID>  (330) 
A A A A A A A A A A A Z Z Z Z Z Z Z Z Z Z Z Z Z Z Z

>  <atom.prop.IS_HEAVY_ATOM>  (330) 
1 0 0 0 1 0 0 1 0 0 0 1 0 0 0 1 1 0 1 0 1 0 1 0 1 0

>  <DIFUSE_FUNC_ATOM>  (330) 
n/a

>  <FINAL_SINGLE_POINT_ENERGY>  (330) 
0

>  <NONCOV_INTER_ENERGY_QM>  (330) 
0

>  <FF_Energy>  (330) 
-5.65

>  <QM_Energy>  (330) 
-13.53

>  <source>  (330) 
ETAM_MBZ

>  <Index>  (330) 
3109

$$$$
ETAM-pdb2etl-A-LYS-123:MBZ-pdb2etl-B-PHE-181
     RDKit          3D

 26 25  0  0  0  0  0  0  0  0999 V2000
    0.8612    1.6269   -4.0558 C   0  0  0  0  0  0  0  0  0  0  0  0
    1.4212    1.0653   -3.4449 H   0  0  0  0  0  0  0  0  0  0  0  0
    1.0864    2.5921   -3.9204 H   0  0  0  0  0  0  0  0  0  0  0  0
    1.0988    1.3581   -5.0850 H   0  0  0  0  0  0  0  0  0  0  0  0
   -0.6124    1.4182   -3.6896 C   0  0  0  0  0  0  0  0  0  0  0  0
   -0.8080    1.9284   -2.8414 H   0  0  0  0  0  0  0  0  0  0  0  0
   -1.1845    1.8047   -4.4253 H   0  0  0  0  0  0  0  0  0  0  0  0
   -0.9820   -0.0180   -3.4901 N   0  0  0  0  0  4  0  0  0  0  0  0
   -0.1494   -0.5607   -3.3978 H   0  0  0  0  0  0  0  0  0  0  0  0
   -1.5331   -0.1027   -2.6622 H   0  0  0  0  0  0  0  0  0  0  0  0
   -1.5061   -0.3340   -4.2787 H   0  0  0  0  0  0  0  0  0  0  0  0
   -0.0045    2.8985    0.0879 C   0  0  0  0  0  0  0  0  0  0  0  0
   -0.5818    3.2506   -0.6316 H   0  0  0  0  0  0  0  0  0  0  0  0
    0.9254    3.2184   -0.0035 H   0  0  0  0  0  0  0  0  0  0  0  0
   -0.3902    3.2806    1.0330 H   0  0  0  0  0  0  0  0  0  0  0  0
   -0.0007    1.4048    0.0013 C   0  0  0  0  0  0  0  0  0  0  0  0
   -1.1993    0.6990   -0.0021 C   0  0  0  0  0  0  0  0  0  0  0  0
   -2.0652    1.1911   -0.0075 H   0  0  0  0  0  0  0  0  0  0  0  0
   -1.2094   -0.6945   -0.0000 C   0  0  0  0  0  0  0  0  0  0  0  0
   -2.0846   -1.1865    0.0012 H   0  0  0  0  0  0  0  0  0  0  0  0
   -0.0026   -1.4034    0.0028 C   0  0  0  0  0  0  0  0  0  0  0  0
   -0.0092   -2.3959    0.0059 H   0  0  0  0  0  0  0  0  0  0  0  0
    1.2094   -0.7021   -0.0000 C   0  0  0  0  0  0  0  0  0  0  0  0
    2.0858   -1.1987    0.0007 H   0  0  0  0  0  0  0  0  0  0  0  0
    1.2027    0.6963   -0.0020 C   0  0  0  0  0  0  0  0  0  0  0  0
    2.0685    1.1926   -0.0066 H   0  0  0  0  0  0  0  0  0  0  0  0
  1  5  1  0
  5  8  1  0
  1  2  1  0
  1  3  1  0
  1  4  1  0
  5  6  1  0
  5  7  1  0
  8  9  1  0
  8 10  1  0
  8 11  1  0
 12 16  1  0
 16 17  2  0
 17 19  1  0
 19 21  2  0
 21 23  1  0
 23 25  2  0
 25 16  1  0
 12 13  1  0
 12 14  1  0
 12 15  1  0
 17 18  1  0
 19 20  1  0
 21 22  1  0
 23 24  1  0
 25 26  1  0
M  CHG  1   8   1
M  END
>  <PDB_ID>  (331) 
pdb2etl

>  <RESIDUE_NAME>  (331) 
LYS   PHE

>  <FRAG_NAME>  (331) 
ETAM   MBZ

>  <FRAG_ATOM_NUM>  (331) 
fragi: 11  fragj: 15

>  <atom.prop.CHAIN_ID>  (331) 
A A A A A A A A A A A Z Z Z Z Z Z Z Z Z Z Z Z Z Z Z

>  <atom.prop.IS_HEAVY_ATOM>  (331) 
1 0 0 0 1 0 0 1 0 0 0 1 0 0 0 1 1 0 1 0 1 0 1 0 1 0

>  <DIFUSE_FUNC_ATOM>  (331) 
n/a

>  <FINAL_SINGLE_POINT_ENERGY>  (331) 
0

>  <NONCOV_INTER_ENERGY_QM>  (331) 
0

>  <FF_Energy>  (331) 
-7.95

>  <QM_Energy>  (331) 
-14.23

>  <source>  (331) 
ETAM_MBZ

>  <Index>  (331) 
3116

$$$$
ETAM-pdb1e1o-A-LYS-510:MBZ-pdb1e1o-A-PHE-426
     RDKit          3D

 26 25  0  0  0  0  0  0  0  0999 V2000
    1.5060   -1.6865    3.2998 C   0  0  0  0  0  0  0  0  0  0  0  0
    2.2686   -1.0471    3.2909 H   0  0  0  0  0  0  0  0  0  0  0  0
    1.5300   -2.2624    2.4880 H   0  0  0  0  0  0  0  0  0  0  0  0
    1.5852   -2.3183    4.1844 H   0  0  0  0  0  0  0  0  0  0  0  0
    0.2072   -0.8909    3.2895 C   0  0  0  0  0  0  0  0  0  0  0  0
    0.0941   -0.4412    4.1805 H   0  0  0  0  0  0  0  0  0  0  0  0
    0.2630   -0.1859    2.5768 H   0  0  0  0  0  0  0  0  0  0  0  0
   -0.9829   -1.7559    3.0260 N   0  0  0  0  0  4  0  0  0  0  0  0
   -1.5450   -1.3341    2.3166 H   0  0  0  0  0  0  0  0  0  0  0  0
   -0.6741   -2.6553    2.7215 H   0  0  0  0  0  0  0  0  0  0  0  0
   -1.5145   -1.8486    3.8660 H   0  0  0  0  0  0  0  0  0  0  0  0
    0.0212    2.9208   -0.1620 C   0  0  0  0  0  0  0  0  0  0  0  0
   -0.7332    3.1723   -0.7555 H   0  0  0  0  0  0  0  0  0  0  0  0
    0.8895    3.1737   -0.5725 H   0  0  0  0  0  0  0  0  0  0  0  0
   -0.0836    3.4893    0.7622 H   0  0  0  0  0  0  0  0  0  0  0  0
    0.0044    1.4160   -0.0022 C   0  0  0  0  0  0  0  0  0  0  0  0
   -1.1954    0.7062    0.0034 C   0  0  0  0  0  0  0  0  0  0  0  0
   -2.0619    1.1918    0.0080 H   0  0  0  0  0  0  0  0  0  0  0  0
   -1.2031   -0.6997    0.0000 C   0  0  0  0  0  0  0  0  0  0  0  0
   -2.0870   -1.1815    0.0026 H   0  0  0  0  0  0  0  0  0  0  0  0
   -0.0092   -1.4072   -0.0048 C   0  0  0  0  0  0  0  0  0  0  0  0
   -0.0141   -2.4010   -0.0123 H   0  0  0  0  0  0  0  0  0  0  0  0
    1.2031   -0.7089   -0.0000 C   0  0  0  0  0  0  0  0  0  0  0  0
    2.0794   -1.2060    0.0027 H   0  0  0  0  0  0  0  0  0  0  0  0
    1.2001    0.6936    0.0037 C   0  0  0  0  0  0  0  0  0  0  0  0
    2.0724    1.1839    0.0099 H   0  0  0  0  0  0  0  0  0  0  0  0
  1  5  1  0
  5  8  1  0
  1  2  1  0
  1  3  1  0
  1  4  1  0
  5  6  1  0
  5  7  1  0
  8  9  1  0
  8 10  1  0
  8 11  1  0
 12 16  1  0
 16 17  2  0
 17 19  1  0
 19 21  2  0
 21 23  1  0
 23 25  2  0
 25 16  1  0
 12 13  1  0
 12 14  1  0
 12 15  1  0
 17 18  1  0
 19 20  1  0
 21 22  1  0
 23 24  1  0
 25 26  1  0
M  CHG  1   8   1
M  END
>  <PDB_ID>  (332) 
pdb1e1o

>  <RESIDUE_NAME>  (332) 
LYS   PHE

>  <FRAG_NAME>  (332) 
ETAM   MBZ

>  <FRAG_ATOM_NUM>  (332) 
fragi: 11  fragj: 15

>  <atom.prop.CHAIN_ID>  (332) 
A A A A A A A A A A A Z Z Z Z Z Z Z Z Z Z Z Z Z Z Z

>  <atom.prop.IS_HEAVY_ATOM>  (332) 
1 0 0 0 1 0 0 1 0 0 0 1 0 0 0 1 1 0 1 0 1 0 1 0 1 0

>  <DIFUSE_FUNC_ATOM>  (332) 
n/a

>  <FINAL_SINGLE_POINT_ENERGY>  (332) 
0

>  <NONCOV_INTER_ENERGY_QM>  (332) 
0

>  <FF_Energy>  (332) 
-5.21

>  <QM_Energy>  (332) 
-14.47

>  <source>  (332) 
ETAM_MBZ

>  <Index>  (332) 
3129

$$$$
ETAM-pdb2euc-B-LYS-93:MBZ-pdb2euc-B-PHE-89
     RDKit          3D

 26 25  0  0  0  0  0  0  0  0999 V2000
    3.3586   -1.0783    2.4579 C   0  0  0  0  0  0  0  0  0  0  0  0
    3.9768   -1.7132    2.9192 H   0  0  0  0  0  0  0  0  0  0  0  0
    2.6735   -1.5894    1.9425 H   0  0  0  0  0  0  0  0  0  0  0  0
    2.8487   -0.4817    3.2144 H   0  0  0  0  0  0  0  0  0  0  0  0
    4.1759   -0.2342    1.4729 C   0  0  0  0  0  0  0  0  0  0  0  0
    3.5689    0.4304    1.0373 H   0  0  0  0  0  0  0  0  0  0  0  0
    4.8913    0.2493    1.9785 H   0  0  0  0  0  0  0  0  0  0  0  0
    4.8123   -1.0852    0.4149 N   0  0  0  0  0  4  0  0  0  0  0  0
    4.1909   -1.8288    0.1781 H   0  0  0  0  0  0  0  0  0  0  0  0
    4.9917   -0.5238   -0.3901 H   0  0  0  0  0  0  0  0  0  0  0  0
    5.6688   -1.4574    0.7673 H   0  0  0  0  0  0  0  0  0  0  0  0
   -0.0135    2.8843   -0.0086 C   0  0  0  0  0  0  0  0  0  0  0  0
   -0.7594    3.1846   -0.5877 H   0  0  0  0  0  0  0  0  0  0  0  0
    0.8577    3.2018   -0.3587 H   0  0  0  0  0  0  0  0  0  0  0  0
   -0.1579    3.3267    0.9770 H   0  0  0  0  0  0  0  0  0  0  0  0
    0.0007    1.3967   -0.0006 C   0  0  0  0  0  0  0  0  0  0  0  0
   -1.1916    0.6889    0.0003 C   0  0  0  0  0  0  0  0  0  0  0  0
   -2.0607    1.1792    0.0003 H   0  0  0  0  0  0  0  0  0  0  0  0
   -1.1988   -0.7001    0.0000 C   0  0  0  0  0  0  0  0  0  0  0  0
   -2.0786   -1.1901    0.0014 H   0  0  0  0  0  0  0  0  0  0  0  0
   -0.0061   -1.3906   -0.0001 C   0  0  0  0  0  0  0  0  0  0  0  0
   -0.0030   -2.3906   -0.0003 H   0  0  0  0  0  0  0  0  0  0  0  0
    1.1988   -0.6929    0.0000 C   0  0  0  0  0  0  0  0  0  0  0  0
    2.0783   -1.1932    0.0014 H   0  0  0  0  0  0  0  0  0  0  0  0
    1.1970    0.6981    0.0003 C   0  0  0  0  0  0  0  0  0  0  0  0
    2.0634    1.1931   -0.0003 H   0  0  0  0  0  0  0  0  0  0  0  0
  1  5  1  0
  5  8  1  0
  1  2  1  0
  1  3  1  0
  1  4  1  0
  5  6  1  0
  5  7  1  0
  8  9  1  0
  8 10  1  0
  8 11  1  0
 12 16  1  0
 16 17  2  0
 17 19  1  0
 19 21  2  0
 21 23  1  0
 23 25  2  0
 25 16  1  0
 12 13  1  0
 12 14  1  0
 12 15  1  0
 17 18  1  0
 19 20  1  0
 21 22  1  0
 23 24  1  0
 25 26  1  0
M  CHG  1   8   1
M  END
>  <PDB_ID>  (333) 
pdb2euc

>  <RESIDUE_NAME>  (333) 
LYS   PHE

>  <FRAG_NAME>  (333) 
ETAM   MBZ

>  <FRAG_ATOM_NUM>  (333) 
fragi: 11  fragj: 15

>  <atom.prop.CHAIN_ID>  (333) 
A A A A A A A A A A A Z Z Z Z Z Z Z Z Z Z Z Z Z Z Z

>  <atom.prop.IS_HEAVY_ATOM>  (333) 
1 0 0 0 1 0 0 1 0 0 0 1 0 0 0 1 1 0 1 0 1 0 1 0 1 0

>  <DIFUSE_FUNC_ATOM>  (333) 
n/a

>  <FINAL_SINGLE_POINT_ENERGY>  (333) 
0

>  <NONCOV_INTER_ENERGY_QM>  (333) 
0

>  <FF_Energy>  (333) 
3.85

>  <QM_Energy>  (333) 
-2.66

>  <source>  (333) 
ETAM_MBZ

>  <Index>  (333) 
3151

$$$$
ETAM-pdb2ewf-A-LYS-124:MBZ-pdb2ewf-A-PHE-121
     RDKit          3D

 26 25  0  0  0  0  0  0  0  0999 V2000
   -3.4166    1.6538    3.9171 C   0  0  0  0  0  0  0  0  0  0  0  0
   -4.3864    1.8508    4.0117 H   0  0  0  0  0  0  0  0  0  0  0  0
   -2.9995    2.2720    3.2591 H   0  0  0  0  0  0  0  0  0  0  0  0
   -2.9385    1.8045    4.8849 H   0  0  0  0  0  0  0  0  0  0  0  0
   -3.2469    0.2328    3.4336 C   0  0  0  0  0  0  0  0  0  0  0  0
   -3.9266   -0.3573    3.9022 H   0  0  0  0  0  0  0  0  0  0  0  0
   -3.4564    0.1961    2.4407 H   0  0  0  0  0  0  0  0  0  0  0  0
   -1.8895   -0.3302    3.6574 N   0  0  0  0  0  4  0  0  0  0  0  0
   -1.3016   -0.0998    2.8819 H   0  0  0  0  0  0  0  0  0  0  0  0
   -1.5036    0.0552    4.4955 H   0  0  0  0  0  0  0  0  0  0  0  0
   -1.9519   -1.3242    3.7453 H   0  0  0  0  0  0  0  0  0  0  0  0
   -0.0220    2.9349    0.0488 C   0  0  0  0  0  0  0  0  0  0  0  0
   -0.6901    3.2318   -0.5763 H   0  0  0  0  0  0  0  0  0  0  0  0
    0.8756    3.2419   -0.1111 H   0  0  0  0  0  0  0  0  0  0  0  0
   -0.3211    3.2516    1.0480 H   0  0  0  0  0  0  0  0  0  0  0  0
   -0.0002    1.3920    0.0090 C   0  0  0  0  0  0  0  0  0  0  0  0
   -1.1936    0.6823    0.0001 C   0  0  0  0  0  0  0  0  0  0  0  0
   -2.0627    1.1764   -0.0078 H   0  0  0  0  0  0  0  0  0  0  0  0
   -1.2054   -0.7056    0.0000 C   0  0  0  0  0  0  0  0  0  0  0  0
   -2.0733   -1.2004    0.0036 H   0  0  0  0  0  0  0  0  0  0  0  0
    0.0034   -1.3820   -0.0035 C   0  0  0  0  0  0  0  0  0  0  0  0
    0.0083   -2.3883   -0.0093 H   0  0  0  0  0  0  0  0  0  0  0  0
    1.2054   -0.6874   -0.0000 C   0  0  0  0  0  0  0  0  0  0  0  0
    2.0849   -1.1819    0.0086 H   0  0  0  0  0  0  0  0  0  0  0  0
    1.1904    0.7008   -0.0057 C   0  0  0  0  0  0  0  0  0  0  0  0
    2.0594    1.2006   -0.0217 H   0  0  0  0  0  0  0  0  0  0  0  0
  1  5  1  0
  5  8  1  0
  1  2  1  0
  1  3  1  0
  1  4  1  0
  5  6  1  0
  5  7  1  0
  8  9  1  0
  8 10  1  0
  8 11  1  0
 12 16  1  0
 16 17  2  0
 17 19  1  0
 19 21  2  0
 21 23  1  0
 23 25  2  0
 25 16  1  0
 12 13  1  0
 12 14  1  0
 12 15  1  0
 17 18  1  0
 19 20  1  0
 21 22  1  0
 23 24  1  0
 25 26  1  0
M  CHG  1   8   1
M  END
>  <PDB_ID>  (334) 
pdb2ewf

>  <RESIDUE_NAME>  (334) 
LYS   PHE

>  <FRAG_NAME>  (334) 
ETAM   MBZ

>  <FRAG_ATOM_NUM>  (334) 
fragi: 11  fragj: 15

>  <atom.prop.CHAIN_ID>  (334) 
A A A A A A A A A A A Z Z Z Z Z Z Z Z Z Z Z Z Z Z Z

>  <atom.prop.IS_HEAVY_ATOM>  (334) 
1 0 0 0 1 0 0 1 0 0 0 1 0 0 0 1 1 0 1 0 1 0 1 0 1 0

>  <DIFUSE_FUNC_ATOM>  (334) 
n/a

>  <FINAL_SINGLE_POINT_ENERGY>  (334) 
0

>  <NONCOV_INTER_ENERGY_QM>  (334) 
0

>  <FF_Energy>  (334) 
-5.1

>  <QM_Energy>  (334) 
-10.44

>  <source>  (334) 
ETAM_MBZ

>  <Index>  (334) 
3152

$$$$
ETAM-pdb1e5r-A-LYS-236:MBZ-pdb1e5r-A-PHE-163
     RDKit          3D

 26 25  0  0  0  0  0  0  0  0999 V2000
   -3.7634   -1.9035   -1.6088 C   0  0  0  0  0  0  0  0  0  0  0  0
   -3.2389   -1.5912   -0.8076 H   0  0  0  0  0  0  0  0  0  0  0  0
   -3.6879   -1.2039   -2.3291 H   0  0  0  0  0  0  0  0  0  0  0  0
   -3.3084   -2.8231   -1.9767 H   0  0  0  0  0  0  0  0  0  0  0  0
   -5.2023   -2.0504   -1.2214 C   0  0  0  0  0  0  0  0  0  0  0  0
   -5.6327   -2.7072   -1.7996 H   0  0  0  0  0  0  0  0  0  0  0  0
   -5.2669   -2.2640   -0.2717 H   0  0  0  0  0  0  0  0  0  0  0  0
   -5.7599   -0.7177   -1.4740 N   0  0  0  0  0  4  0  0  0  0  0  0
   -6.0851   -0.6564   -2.4211 H   0  0  0  0  0  0  0  0  0  0  0  0
   -6.5284   -0.5452   -0.8532 H   0  0  0  0  0  0  0  0  0  0  0  0
   -5.0568   -0.0181   -1.3251 H   0  0  0  0  0  0  0  0  0  0  0  0
    0.0134    2.9358    0.1590 C   0  0  0  0  0  0  0  0  0  0  0  0
    0.9495    3.2148    0.2734 H   0  0  0  0  0  0  0  0  0  0  0  0
   -0.5370    3.1512    0.9449 H   0  0  0  0  0  0  0  0  0  0  0  0
   -0.4008    3.4505   -0.7080 H   0  0  0  0  0  0  0  0  0  0  0  0
    0.0085    1.4167    0.0048 C   0  0  0  0  0  0  0  0  0  0  0  0
   -1.2009    0.7156   -0.0035 C   0  0  0  0  0  0  0  0  0  0  0  0
   -2.0594    1.2031   -0.0130 H   0  0  0  0  0  0  0  0  0  0  0  0
   -1.1957   -0.6797   -0.0000 C   0  0  0  0  0  0  0  0  0  0  0  0
   -2.0825   -1.1727   -0.0054 H   0  0  0  0  0  0  0  0  0  0  0  0
   -0.0042   -1.3972    0.0120 C   0  0  0  0  0  0  0  0  0  0  0  0
   -0.0401   -2.4016    0.0286 H   0  0  0  0  0  0  0  0  0  0  0  0
    1.1957   -0.7408   -0.0000 C   0  0  0  0  0  0  0  0  0  0  0  0
    2.0737   -1.2226    0.0016 H   0  0  0  0  0  0  0  0  0  0  0  0
    1.1967    0.6854   -0.0133 C   0  0  0  0  0  0  0  0  0  0  0  0
    2.0752    1.1591   -0.0371 H   0  0  0  0  0  0  0  0  0  0  0  0
  1  5  1  0
  5  8  1  0
  1  2  1  0
  1  3  1  0
  1  4  1  0
  5  6  1  0
  5  7  1  0
  8  9  1  0
  8 10  1  0
  8 11  1  0
 12 16  1  0
 16 17  2  0
 17 19  1  0
 19 21  2  0
 21 23  1  0
 23 25  2  0
 25 16  1  0
 12 13  1  0
 12 14  1  0
 12 15  1  0
 17 18  1  0
 19 20  1  0
 21 22  1  0
 23 24  1  0
 25 26  1  0
M  CHG  1   8   1
M  END
>  <PDB_ID>  (335) 
pdb1e5r

>  <RESIDUE_NAME>  (335) 
LYS   PHE

>  <FRAG_NAME>  (335) 
ETAM   MBZ

>  <FRAG_ATOM_NUM>  (335) 
fragi: 11  fragj: 15

>  <atom.prop.CHAIN_ID>  (335) 
A A A A A A A A A A A Z Z Z Z Z Z Z Z Z Z Z Z Z Z Z

>  <atom.prop.IS_HEAVY_ATOM>  (335) 
1 0 0 0 1 0 0 1 0 0 0 1 0 0 0 1 1 0 1 0 1 0 1 0 1 0

>  <DIFUSE_FUNC_ATOM>  (335) 
n/a

>  <FINAL_SINGLE_POINT_ENERGY>  (335) 
0

>  <NONCOV_INTER_ENERGY_QM>  (335) 
0

>  <FF_Energy>  (335) 
41.79

>  <QM_Energy>  (335) 
3.63

>  <source>  (335) 
ETAM_MBZ

>  <Index>  (335) 
3156

$$$$
ETAM-pdb2exx-B-LYS-118:MBZ-pdb2exx-A-PHE-251
     RDKit          3D

 26 25  0  0  0  0  0  0  0  0999 V2000
    1.5254    0.5925   -3.4365 C   0  0  0  0  0  0  0  0  0  0  0  0
    1.9745   -0.1901   -3.0187 H   0  0  0  0  0  0  0  0  0  0  0  0
    1.6616    1.4074   -2.8839 H   0  0  0  0  0  0  0  0  0  0  0  0
    1.9473    0.7583   -4.4277 H   0  0  0  0  0  0  0  0  0  0  0  0
    0.0239    0.3045   -3.5057 C   0  0  0  0  0  0  0  0  0  0  0  0
   -0.3616    0.3751   -2.5777 H   0  0  0  0  0  0  0  0  0  0  0  0
   -0.4130    1.0046   -4.0836 H   0  0  0  0  0  0  0  0  0  0  0  0
   -0.2911   -1.0501   -4.0618 N   0  0  0  0  0  4  0  0  0  0  0  0
   -1.0631   -0.9739   -4.6898 H   0  0  0  0  0  0  0  0  0  0  0  0
    0.5078   -1.3977   -4.5483 H   0  0  0  0  0  0  0  0  0  0  0  0
   -0.5244   -1.6651   -3.3114 H   0  0  0  0  0  0  0  0  0  0  0  0
   -0.0003    2.9035    0.0158 C   0  0  0  0  0  0  0  0  0  0  0  0
   -0.7898    3.2188   -0.4921 H   0  0  0  0  0  0  0  0  0  0  0  0
    0.8408    3.2163   -0.4016 H   0  0  0  0  0  0  0  0  0  0  0  0
   -0.0549    3.3388    1.0136 H   0  0  0  0  0  0  0  0  0  0  0  0
   -0.0012    1.4052    0.0000 C   0  0  0  0  0  0  0  0  0  0  0  0
   -1.1983    0.6975   -0.0007 C   0  0  0  0  0  0  0  0  0  0  0  0
   -2.0650    1.1861   -0.0027 H   0  0  0  0  0  0  0  0  0  0  0  0
   -1.2056   -0.6991   -0.0000 C   0  0  0  0  0  0  0  0  0  0  0  0
   -2.0790   -1.1912    0.0008 H   0  0  0  0  0  0  0  0  0  0  0  0
    0.0028   -1.4007    0.0016 C   0  0  0  0  0  0  0  0  0  0  0  0
   -0.0037   -2.3965    0.0032 H   0  0  0  0  0  0  0  0  0  0  0  0
    1.2056   -0.7011   -0.0000 C   0  0  0  0  0  0  0  0  0  0  0  0
    2.0866   -1.1934    0.0012 H   0  0  0  0  0  0  0  0  0  0  0  0
    1.1967    0.6982   -0.0009 C   0  0  0  0  0  0  0  0  0  0  0  0
    2.0653    1.1926   -0.0031 H   0  0  0  0  0  0  0  0  0  0  0  0
  1  5  1  0
  5  8  1  0
  1  2  1  0
  1  3  1  0
  1  4  1  0
  5  6  1  0
  5  7  1  0
  8  9  1  0
  8 10  1  0
  8 11  1  0
 12 16  1  0
 16 17  2  0
 17 19  1  0
 19 21  2  0
 21 23  1  0
 23 25  2  0
 25 16  1  0
 12 13  1  0
 12 14  1  0
 12 15  1  0
 17 18  1  0
 19 20  1  0
 21 22  1  0
 23 24  1  0
 25 26  1  0
M  CHG  1   8   1
M  END
>  <PDB_ID>  (336) 
pdb2exx

>  <RESIDUE_NAME>  (336) 
LYS   PHE

>  <FRAG_NAME>  (336) 
ETAM   MBZ

>  <FRAG_ATOM_NUM>  (336) 
fragi: 11  fragj: 15

>  <atom.prop.CHAIN_ID>  (336) 
A A A A A A A A A A A Z Z Z Z Z Z Z Z Z Z Z Z Z Z Z

>  <atom.prop.IS_HEAVY_ATOM>  (336) 
1 0 0 0 1 0 0 1 0 0 0 1 0 0 0 1 1 0 1 0 1 0 1 0 1 0

>  <DIFUSE_FUNC_ATOM>  (336) 
n/a

>  <FINAL_SINGLE_POINT_ENERGY>  (336) 
0

>  <NONCOV_INTER_ENERGY_QM>  (336) 
0

>  <FF_Energy>  (336) 
-6.15

>  <QM_Energy>  (336) 
-11.8

>  <source>  (336) 
ETAM_MBZ

>  <Index>  (336) 
3174

$$$$
ETAM-pdb1dw9-B-LYS-22:MBZ-pdb1dw9-B-PHE-29
     RDKit          3D

 26 25  0  0  0  0  0  0  0  0999 V2000
   -0.8282   -1.3973   -3.8127 C   0  0  0  0  0  0  0  0  0  0  0  0
   -1.7263   -1.1552   -3.5014 H   0  0  0  0  0  0  0  0  0  0  0  0
   -0.5418   -2.2804   -3.4972 H   0  0  0  0  0  0  0  0  0  0  0  0
   -0.8690   -1.4434   -4.9009 H   0  0  0  0  0  0  0  0  0  0  0  0
    0.1680   -0.3472   -3.3983 C   0  0  0  0  0  0  0  0  0  0  0  0
    0.0807    0.4445   -4.0050 H   0  0  0  0  0  0  0  0  0  0  0  0
   -0.0266   -0.0638   -2.4576 H   0  0  0  0  0  0  0  0  0  0  0  0
    1.5371   -0.8769   -3.4772 N   0  0  0  0  0  4  0  0  0  0  0  0
    2.0534   -0.6095   -2.6605 H   0  0  0  0  0  0  0  0  0  0  0  0
    1.5125   -1.8777   -3.5366 H   0  0  0  0  0  0  0  0  0  0  0  0
    1.9973   -0.5119   -4.2903 H   0  0  0  0  0  0  0  0  0  0  0  0
   -0.0614    2.8980   -0.0235 C   0  0  0  0  0  0  0  0  0  0  0  0
    0.8492    3.2120    0.1432 H   0  0  0  0  0  0  0  0  0  0  0  0
   -0.7017    3.1896    0.6553 H   0  0  0  0  0  0  0  0  0  0  0  0
   -0.3863    3.2814   -0.9907 H   0  0  0  0  0  0  0  0  0  0  0  0
   -0.0319    1.3690   -0.0013 C   0  0  0  0  0  0  0  0  0  0  0  0
   -1.2127    0.6780   -0.0181 C   0  0  0  0  0  0  0  0  0  0  0  0
   -2.0851    1.1406   -0.0440 H   0  0  0  0  0  0  0  0  0  0  0  0
   -1.1978   -0.7386    0.0000 C   0  0  0  0  0  0  0  0  0  0  0  0
   -2.0477   -1.2387    0.0087 H   0  0  0  0  0  0  0  0  0  0  0  0
    0.0339   -1.3621    0.0060 C   0  0  0  0  0  0  0  0  0  0  0  0
    0.0549   -2.3849    0.0147 H   0  0  0  0  0  0  0  0  0  0  0  0
    1.1978   -0.6665   -0.0000 C   0  0  0  0  0  0  0  0  0  0  0  0
    2.1004   -1.1606   -0.0132 H   0  0  0  0  0  0  0  0  0  0  0  0
    1.2107    0.7202    0.0135 C   0  0  0  0  0  0  0  0  0  0  0  0
    2.0408    1.2260    0.0312 H   0  0  0  0  0  0  0  0  0  0  0  0
  1  5  1  0
  5  8  1  0
  1  2  1  0
  1  3  1  0
  1  4  1  0
  5  6  1  0
  5  7  1  0
  8  9  1  0
  8 10  1  0
  8 11  1  0
 12 16  1  0
 16 17  2  0
 17 19  1  0
 19 21  2  0
 21 23  1  0
 23 25  2  0
 25 16  1  0
 12 13  1  0
 12 14  1  0
 12 15  1  0
 17 18  1  0
 19 20  1  0
 21 22  1  0
 23 24  1  0
 25 26  1  0
M  CHG  1   8   1
M  END
>  <PDB_ID>  (337) 
pdb1dw9

>  <RESIDUE_NAME>  (337) 
LYS   PHE

>  <FRAG_NAME>  (337) 
ETAM   MBZ

>  <FRAG_ATOM_NUM>  (337) 
fragi: 11  fragj: 15

>  <atom.prop.CHAIN_ID>  (337) 
A A A A A A A A A A A Z Z Z Z Z Z Z Z Z Z Z Z Z Z Z

>  <atom.prop.IS_HEAVY_ATOM>  (337) 
1 0 0 0 1 0 0 1 0 0 0 1 0 0 0 1 1 0 1 0 1 0 1 0 1 0

>  <DIFUSE_FUNC_ATOM>  (337) 
n/a

>  <FINAL_SINGLE_POINT_ENERGY>  (337) 
0

>  <NONCOV_INTER_ENERGY_QM>  (337) 
0

>  <FF_Energy>  (337) 
-5.74

>  <QM_Energy>  (337) 
-13.29

>  <source>  (337) 
ETAM_MBZ

>  <Index>  (337) 
3179

$$$$
ETAM-pdb1e5f-A-LYS-324:MBZ-pdb1e5f-A-PHE-320
     RDKit          3D

 26 25  0  0  0  0  0  0  0  0999 V2000
    0.2910   -2.4868    3.7683 C   0  0  0  0  0  0  0  0  0  0  0  0
    0.5645   -3.1369    4.4875 H   0  0  0  0  0  0  0  0  0  0  0  0
   -0.2113   -2.9932    3.0571 H   0  0  0  0  0  0  0  0  0  0  0  0
   -0.3726   -1.7402    4.2045 H   0  0  0  0  0  0  0  0  0  0  0  0
    1.5786   -1.9246    3.1252 C   0  0  0  0  0  0  0  0  0  0  0  0
    1.3872   -1.6503    2.2078 H   0  0  0  0  0  0  0  0  0  0  0  0
    1.9271   -1.2013    3.6807 H   0  0  0  0  0  0  0  0  0  0  0  0
    2.5988   -3.0636    3.0985 N   0  0  0  0  0  4  0  0  0  0  0  0
    3.4614   -2.7008    2.7672 H   0  0  0  0  0  0  0  0  0  0  0  0
    2.6978   -3.4146    4.0220 H   0  0  0  0  0  0  0  0  0  0  0  0
    2.2596   -3.7708    2.4893 H   0  0  0  0  0  0  0  0  0  0  0  0
   -0.0074    2.9241    0.1569 C   0  0  0  0  0  0  0  0  0  0  0  0
   -0.5859    3.2922   -0.5600 H   0  0  0  0  0  0  0  0  0  0  0  0
    0.9296    3.2291    0.0463 H   0  0  0  0  0  0  0  0  0  0  0  0
   -0.3733    3.3013    1.1118 H   0  0  0  0  0  0  0  0  0  0  0  0
   -0.0160    1.4117    0.0202 C   0  0  0  0  0  0  0  0  0  0  0  0
   -1.1873    0.6941    0.0092 C   0  0  0  0  0  0  0  0  0  0  0  0
   -2.0681    1.1773    0.0065 H   0  0  0  0  0  0  0  0  0  0  0  0
   -1.1885   -0.6887    0.0000 C   0  0  0  0  0  0  0  0  0  0  0  0
   -2.0665   -1.1911    0.0628 H   0  0  0  0  0  0  0  0  0  0  0  0
    0.0148   -1.4222   -0.0936 C   0  0  0  0  0  0  0  0  0  0  0  0
    0.0069   -2.3828   -0.2165 H   0  0  0  0  0  0  0  0  0  0  0  0
    1.1885   -0.6831    0.0000 C   0  0  0  0  0  0  0  0  0  0  0  0
    2.0896   -1.1842    0.0233 H   0  0  0  0  0  0  0  0  0  0  0  0
    1.1885    0.6882    0.0642 C   0  0  0  0  0  0  0  0  0  0  0  0
    2.0500    1.1926    0.1429 H   0  0  0  0  0  0  0  0  0  0  0  0
  1  5  1  0
  5  8  1  0
  1  2  1  0
  1  3  1  0
  1  4  1  0
  5  6  1  0
  5  7  1  0
  8  9  1  0
  8 10  1  0
  8 11  1  0
 12 16  1  0
 16 17  2  0
 17 19  1  0
 19 21  2  0
 21 23  1  0
 23 25  2  0
 25 16  1  0
 12 13  1  0
 12 14  1  0
 12 15  1  0
 17 18  1  0
 19 20  1  0
 21 22  1  0
 23 24  1  0
 25 26  1  0
M  CHG  1   8   1
M  END
>  <PDB_ID>  (338) 
pdb1e5f

>  <RESIDUE_NAME>  (338) 
LYS   PHE

>  <FRAG_NAME>  (338) 
ETAM   MBZ

>  <FRAG_ATOM_NUM>  (338) 
fragi: 11  fragj: 15

>  <atom.prop.CHAIN_ID>  (338) 
A A A A A A A A A A A Z Z Z Z Z Z Z Z Z Z Z Z Z Z Z

>  <atom.prop.IS_HEAVY_ATOM>  (338) 
1 0 0 0 1 0 0 1 0 0 0 1 0 0 0 1 1 0 1 0 1 0 1 0 1 0

>  <DIFUSE_FUNC_ATOM>  (338) 
n/a

>  <FINAL_SINGLE_POINT_ENERGY>  (338) 
0

>  <NONCOV_INTER_ENERGY_QM>  (338) 
0

>  <FF_Energy>  (338) 
-0.51

>  <QM_Energy>  (338) 
-5.93

>  <source>  (338) 
ETAM_MBZ

>  <Index>  (338) 
3192

$$$$
ETAM-pdb2ezv-B-LYS-81:MBZ-pdb2ezv-B-PHE-74
     RDKit          3D

 26 25  0  0  0  0  0  0  0  0999 V2000
   -2.5329   -2.5453    2.1456 C   0  0  0  0  0  0  0  0  0  0  0  0
   -2.2117   -1.6185    2.3504 H   0  0  0  0  0  0  0  0  0  0  0  0
   -2.2103   -2.8136    1.2374 H   0  0  0  0  0  0  0  0  0  0  0  0
   -2.1166   -3.2305    2.8839 H   0  0  0  0  0  0  0  0  0  0  0  0
   -4.0439   -2.5415    2.1395 C   0  0  0  0  0  0  0  0  0  0  0  0
   -4.3741   -3.4628    1.9304 H   0  0  0  0  0  0  0  0  0  0  0  0
   -4.3755   -2.2676    3.0434 H   0  0  0  0  0  0  0  0  0  0  0  0
   -4.5644   -1.5940    1.1218 N   0  0  0  0  0  4  0  0  0  0  0  0
   -4.4055   -1.9672    0.2067 H   0  0  0  0  0  0  0  0  0  0  0  0
   -5.5454   -1.4594    1.2610 H   0  0  0  0  0  0  0  0  0  0  0  0
   -4.0911   -0.7168    1.2097 H   0  0  0  0  0  0  0  0  0  0  0  0
   -0.0019    2.9047    0.0226 C   0  0  0  0  0  0  0  0  0  0  0  0
   -0.7680    3.2195   -0.5162 H   0  0  0  0  0  0  0  0  0  0  0  0
    0.8566    3.2199   -0.3527 H   0  0  0  0  0  0  0  0  0  0  0  0
   -0.1022    3.3324    1.0203 H   0  0  0  0  0  0  0  0  0  0  0  0
    0.0008    1.4007    0.0002 C   0  0  0  0  0  0  0  0  0  0  0  0
   -1.1954    0.6899    0.0004 C   0  0  0  0  0  0  0  0  0  0  0  0
   -2.0626    1.1820   -0.0012 H   0  0  0  0  0  0  0  0  0  0  0  0
   -1.2018   -0.6985    0.0000 C   0  0  0  0  0  0  0  0  0  0  0  0
   -2.0799   -1.1916    0.0010 H   0  0  0  0  0  0  0  0  0  0  0  0
   -0.0036   -1.3941    0.0007 C   0  0  0  0  0  0  0  0  0  0  0  0
   -0.0031   -2.3913    0.0016 H   0  0  0  0  0  0  0  0  0  0  0  0
    1.2018   -0.6926   -0.0000 C   0  0  0  0  0  0  0  0  0  0  0  0
    2.0810   -1.1941    0.0018 H   0  0  0  0  0  0  0  0  0  0  0  0
    1.1982    0.6946   -0.0013 C   0  0  0  0  0  0  0  0  0  0  0  0
    2.0656    1.1929   -0.0041 H   0  0  0  0  0  0  0  0  0  0  0  0
  1  5  1  0
  5  8  1  0
  1  2  1  0
  1  3  1  0
  1  4  1  0
  5  6  1  0
  5  7  1  0
  8  9  1  0
  8 10  1  0
  8 11  1  0
 12 16  1  0
 16 17  2  0
 17 19  1  0
 19 21  2  0
 21 23  1  0
 23 25  2  0
 25 16  1  0
 12 13  1  0
 12 14  1  0
 12 15  1  0
 17 18  1  0
 19 20  1  0
 21 22  1  0
 23 24  1  0
 25 26  1  0
M  CHG  1   8   1
M  END
>  <PDB_ID>  (339) 
pdb2ezv

>  <RESIDUE_NAME>  (339) 
LYS   PHE

>  <FRAG_NAME>  (339) 
ETAM   MBZ

>  <FRAG_ATOM_NUM>  (339) 
fragi: 11  fragj: 15

>  <atom.prop.CHAIN_ID>  (339) 
A A A A A A A A A A A Z Z Z Z Z Z Z Z Z Z Z Z Z Z Z

>  <atom.prop.IS_HEAVY_ATOM>  (339) 
1 0 0 0 1 0 0 1 0 0 0 1 0 0 0 1 1 0 1 0 1 0 1 0 1 0

>  <DIFUSE_FUNC_ATOM>  (339) 
n/a

>  <FINAL_SINGLE_POINT_ENERGY>  (339) 
0

>  <NONCOV_INTER_ENERGY_QM>  (339) 
0

>  <FF_Energy>  (339) 
3.08

>  <QM_Energy>  (339) 
-1.94

>  <source>  (339) 
ETAM_MBZ

>  <Index>  (339) 
3196

$$$$
ETAM-pdb2eva-A-LYS-63:MBZ-pdb2eva-A-PHE-47
     RDKit          3D

 26 25  0  0  0  0  0  0  0  0999 V2000
   -4.8725   -2.1337    2.7471 C   0  0  0  0  0  0  0  0  0  0  0  0
   -4.8291   -2.2356    3.7353 H   0  0  0  0  0  0  0  0  0  0  0  0
   -4.5484   -2.9596    2.2987 H   0  0  0  0  0  0  0  0  0  0  0  0
   -5.9052   -1.9474    2.4522 H   0  0  0  0  0  0  0  0  0  0  0  0
   -3.9780   -0.9813    2.3408 C   0  0  0  0  0  0  0  0  0  0  0  0
   -4.0296   -0.8614    1.3494 H   0  0  0  0  0  0  0  0  0  0  0  0
   -4.2939   -0.1477    2.7941 H   0  0  0  0  0  0  0  0  0  0  0  0
   -2.5735   -1.2492    2.7300 N   0  0  0  0  0  4  0  0  0  0  0  0
   -2.0076   -0.4525    2.5127 H   0  0  0  0  0  0  0  0  0  0  0  0
   -2.5279   -1.4315    3.7128 H   0  0  0  0  0  0  0  0  0  0  0  0
   -2.2329   -2.0450    2.2284 H   0  0  0  0  0  0  0  0  0  0  0  0
    0.0079    2.9145   -0.0613 C   0  0  0  0  0  0  0  0  0  0  0  0
   -0.6963    3.2003   -0.6996 H   0  0  0  0  0  0  0  0  0  0  0  0
    0.9039    3.2042   -0.3734 H   0  0  0  0  0  0  0  0  0  0  0  0
   -0.1864    3.4170    0.8863 H   0  0  0  0  0  0  0  0  0  0  0  0
   -0.0007    1.4082   -0.0009 C   0  0  0  0  0  0  0  0  0  0  0  0
   -1.1972    0.6990    0.0010 C   0  0  0  0  0  0  0  0  0  0  0  0
   -2.0646    1.1854    0.0015 H   0  0  0  0  0  0  0  0  0  0  0  0
   -1.2029   -0.7005    0.0000 C   0  0  0  0  0  0  0  0  0  0  0  0
   -2.0799   -1.1899    0.0003 H   0  0  0  0  0  0  0  0  0  0  0  0
   -0.0000   -1.4002   -0.0006 C   0  0  0  0  0  0  0  0  0  0  0  0
   -0.0049   -2.3974   -0.0021 H   0  0  0  0  0  0  0  0  0  0  0  0
    1.2029   -0.7021   -0.0000 C   0  0  0  0  0  0  0  0  0  0  0  0
    2.0842   -1.1965    0.0013 H   0  0  0  0  0  0  0  0  0  0  0  0
    1.1979    0.6958    0.0004 C   0  0  0  0  0  0  0  0  0  0  0  0
    2.0664    1.1892    0.0008 H   0  0  0  0  0  0  0  0  0  0  0  0
  1  5  1  0
  5  8  1  0
  1  2  1  0
  1  3  1  0
  1  4  1  0
  5  6  1  0
  5  7  1  0
  8  9  1  0
  8 10  1  0
  8 11  1  0
 12 16  1  0
 16 17  2  0
 17 19  1  0
 19 21  2  0
 21 23  1  0
 23 25  2  0
 25 16  1  0
 12 13  1  0
 12 14  1  0
 12 15  1  0
 17 18  1  0
 19 20  1  0
 21 22  1  0
 23 24  1  0
 25 26  1  0
M  CHG  1   8   1
M  END
>  <PDB_ID>  (340) 
pdb2eva

>  <RESIDUE_NAME>  (340) 
LYS   PHE

>  <FRAG_NAME>  (340) 
ETAM   MBZ

>  <FRAG_ATOM_NUM>  (340) 
fragi: 11  fragj: 15

>  <atom.prop.CHAIN_ID>  (340) 
A A A A A A A A A A A Z Z Z Z Z Z Z Z Z Z Z Z Z Z Z

>  <atom.prop.IS_HEAVY_ATOM>  (340) 
1 0 0 0 1 0 0 1 0 0 0 1 0 0 0 1 1 0 1 0 1 0 1 0 1 0

>  <DIFUSE_FUNC_ATOM>  (340) 
n/a

>  <FINAL_SINGLE_POINT_ENERGY>  (340) 
0

>  <NONCOV_INTER_ENERGY_QM>  (340) 
0

>  <FF_Energy>  (340) 
-2.75

>  <QM_Energy>  (340) 
-9.92

>  <source>  (340) 
ETAM_MBZ

>  <Index>  (340) 
3197

$$$$
ETAM-pdb2eyi-A-LYS-103:MBZ-pdb2eyi-A-PHE-99
     RDKit          3D

 26 25  0  0  0  0  0  0  0  0999 V2000
   -0.3747   -2.5013    3.9734 C   0  0  0  0  0  0  0  0  0  0  0  0
    0.1404   -3.3528    3.9319 H   0  0  0  0  0  0  0  0  0  0  0  0
   -0.7807   -2.3906    4.8765 H   0  0  0  0  0  0  0  0  0  0  0  0
    0.3075   -1.6708    3.7920 H   0  0  0  0  0  0  0  0  0  0  0  0
   -1.4860   -2.5535    2.9438 C   0  0  0  0  0  0  0  0  0  0  0  0
   -1.0811   -2.5697    2.0254 H   0  0  0  0  0  0  0  0  0  0  0  0
   -2.0171   -3.3952    3.0771 H   0  0  0  0  0  0  0  0  0  0  0  0
   -2.3978   -1.3805    3.0534 N   0  0  0  0  0  4  0  0  0  0  0  0
   -2.9056   -1.2751    2.1994 H   0  0  0  0  0  0  0  0  0  0  0  0
   -3.0374   -1.5273    3.8069 H   0  0  0  0  0  0  0  0  0  0  0  0
   -1.8588   -0.5575    3.2269 H   0  0  0  0  0  0  0  0  0  0  0  0
   -0.0014    2.9093    0.0315 C   0  0  0  0  0  0  0  0  0  0  0  0
   -0.6724    3.2302   -0.6196 H   0  0  0  0  0  0  0  0  0  0  0  0
    0.9070    3.2214   -0.2022 H   0  0  0  0  0  0  0  0  0  0  0  0
   -0.2567    3.3235    1.0069 H   0  0  0  0  0  0  0  0  0  0  0  0
    0.0009    1.4041   -0.0092 C   0  0  0  0  0  0  0  0  0  0  0  0
   -1.1984    0.6959   -0.0012 C   0  0  0  0  0  0  0  0  0  0  0  0
   -2.0636    1.1854    0.0028 H   0  0  0  0  0  0  0  0  0  0  0  0
   -1.2018   -0.6973   -0.0000 C   0  0  0  0  0  0  0  0  0  0  0  0
   -2.0780   -1.1909   -0.0023 H   0  0  0  0  0  0  0  0  0  0  0  0
    0.0025   -1.3975    0.0066 C   0  0  0  0  0  0  0  0  0  0  0  0
   -0.0022   -2.3934    0.0157 H   0  0  0  0  0  0  0  0  0  0  0  0
    1.2018   -0.6973    0.0000 C   0  0  0  0  0  0  0  0  0  0  0  0
    2.0840   -1.1936   -0.0057 H   0  0  0  0  0  0  0  0  0  0  0  0
    1.1950    0.6921    0.0038 C   0  0  0  0  0  0  0  0  0  0  0  0
    2.0648    1.1889    0.0154 H   0  0  0  0  0  0  0  0  0  0  0  0
  1  5  1  0
  5  8  1  0
  1  2  1  0
  1  3  1  0
  1  4  1  0
  5  6  1  0
  5  7  1  0
  8  9  1  0
  8 10  1  0
  8 11  1  0
 12 16  1  0
 16 17  2  0
 17 19  1  0
 19 21  2  0
 21 23  1  0
 23 25  2  0
 25 16  1  0
 12 13  1  0
 12 14  1  0
 12 15  1  0
 17 18  1  0
 19 20  1  0
 21 22  1  0
 23 24  1  0
 25 26  1  0
M  CHG  1   8   1
M  END
>  <PDB_ID>  (341) 
pdb2eyi

>  <RESIDUE_NAME>  (341) 
LYS   PHE

>  <FRAG_NAME>  (341) 
ETAM   MBZ

>  <FRAG_ATOM_NUM>  (341) 
fragi: 11  fragj: 15

>  <atom.prop.CHAIN_ID>  (341) 
A A A A A A A A A A A Z Z Z Z Z Z Z Z Z Z Z Z Z Z Z

>  <atom.prop.IS_HEAVY_ATOM>  (341) 
1 0 0 0 1 0 0 1 0 0 0 1 0 0 0 1 1 0 1 0 1 0 1 0 1 0

>  <DIFUSE_FUNC_ATOM>  (341) 
n/a

>  <FINAL_SINGLE_POINT_ENERGY>  (341) 
0

>  <NONCOV_INTER_ENERGY_QM>  (341) 
0

>  <FF_Energy>  (341) 
-2.56

>  <QM_Energy>  (341) 
-9.01

>  <source>  (341) 
ETAM_MBZ

>  <Index>  (341) 
3199

$$$$
ETAM-pdb1e8y-A-LYS-234:MBZ-pdb1e8y-A-PHE-221
     RDKit          3D

 26 25  0  0  0  0  0  0  0  0999 V2000
    4.3936   -0.8679    0.3045 C   0  0  0  0  0  0  0  0  0  0  0  0
    3.6000   -1.4558    0.4159 H   0  0  0  0  0  0  0  0  0  0  0  0
    4.2837   -0.2805   -0.4890 H   0  0  0  0  0  0  0  0  0  0  0  0
    4.4860   -0.2401    1.1908 H   0  0  0  0  0  0  0  0  0  0  0  0
    5.6345   -1.7643    0.0779 C   0  0  0  0  0  0  0  0  0  0  0  0
    6.3963   -1.1822   -0.2220 H   0  0  0  0  0  0  0  0  0  0  0  0
    5.8813   -2.1920    0.9532 H   0  0  0  0  0  0  0  0  0  0  0  0
    5.4082   -2.8439   -0.9487 N   0  0  0  0  0  4  0  0  0  0  0  0
    6.2915   -3.1480   -1.2963 H   0  0  0  0  0  0  0  0  0  0  0  0
    4.9310   -3.6040   -0.5168 H   0  0  0  0  0  0  0  0  0  0  0  0
    4.8579   -2.4723   -1.6914 H   0  0  0  0  0  0  0  0  0  0  0  0
   -0.0104    2.9195    0.0235 C   0  0  0  0  0  0  0  0  0  0  0  0
   -0.9426    3.2169   -0.1007 H   0  0  0  0  0  0  0  0  0  0  0  0
    0.5736    3.2346   -0.7073 H   0  0  0  0  0  0  0  0  0  0  0  0
    0.3572    3.3501    0.9549 H   0  0  0  0  0  0  0  0  0  0  0  0
   -0.0019    1.4009    0.0013 C   0  0  0  0  0  0  0  0  0  0  0  0
   -1.1969    0.6912   -0.0002 C   0  0  0  0  0  0  0  0  0  0  0  0
   -2.0641    1.1832   -0.0030 H   0  0  0  0  0  0  0  0  0  0  0  0
   -1.1999   -0.6926    0.0000 C   0  0  0  0  0  0  0  0  0  0  0  0
   -2.0757   -1.1902    0.0020 H   0  0  0  0  0  0  0  0  0  0  0  0
    0.0004   -1.3866   -0.0001 C   0  0  0  0  0  0  0  0  0  0  0  0
   -0.0081   -2.3895   -0.0006 H   0  0  0  0  0  0  0  0  0  0  0  0
    1.1999   -0.6998    0.0000 C   0  0  0  0  0  0  0  0  0  0  0  0
    2.0796   -1.2005    0.0023 H   0  0  0  0  0  0  0  0  0  0  0  0
    1.1984    0.6869   -0.0010 C   0  0  0  0  0  0  0  0  0  0  0  0
    2.0648    1.1849   -0.0041 H   0  0  0  0  0  0  0  0  0  0  0  0
  1  5  1  0
  5  8  1  0
  1  2  1  0
  1  3  1  0
  1  4  1  0
  5  6  1  0
  5  7  1  0
  8  9  1  0
  8 10  1  0
  8 11  1  0
 12 16  1  0
 16 17  2  0
 17 19  1  0
 19 21  2  0
 21 23  1  0
 23 25  2  0
 25 16  1  0
 12 13  1  0
 12 14  1  0
 12 15  1  0
 17 18  1  0
 19 20  1  0
 21 22  1  0
 23 24  1  0
 25 26  1  0
M  CHG  1   8   1
M  END
>  <PDB_ID>  (342) 
pdb1e8y

>  <RESIDUE_NAME>  (342) 
LYS   PHE

>  <FRAG_NAME>  (342) 
ETAM   MBZ

>  <FRAG_ATOM_NUM>  (342) 
fragi: 11  fragj: 15

>  <atom.prop.CHAIN_ID>  (342) 
A A A A A A A A A A A Z Z Z Z Z Z Z Z Z Z Z Z Z Z Z

>  <atom.prop.IS_HEAVY_ATOM>  (342) 
1 0 0 0 1 0 0 1 0 0 0 1 0 0 0 1 1 0 1 0 1 0 1 0 1 0

>  <DIFUSE_FUNC_ATOM>  (342) 
n/a

>  <FINAL_SINGLE_POINT_ENERGY>  (342) 
0

>  <NONCOV_INTER_ENERGY_QM>  (342) 
0

>  <FF_Energy>  (342) 
17.72

>  <QM_Energy>  (342) 
2.24

>  <source>  (342) 
ETAM_MBZ

>  <Index>  (342) 
3202

$$$$
ETAM-pdb1e8y-A-LYS-425:MBZ-pdb1e8y-A-PHE-473
     RDKit          3D

 26 25  0  0  0  0  0  0  0  0999 V2000
    1.3334   -1.4231    3.4683 C   0  0  0  0  0  0  0  0  0  0  0  0
    1.6416   -1.0436    2.6220 H   0  0  0  0  0  0  0  0  0  0  0  0
    1.3911   -2.3988    3.4976 H   0  0  0  0  0  0  0  0  0  0  0  0
    1.9180   -1.0015    4.2860 H   0  0  0  0  0  0  0  0  0  0  0  0
   -0.1301   -1.0147    3.6814 C   0  0  0  0  0  0  0  0  0  0  0  0
   -0.3175   -0.9899    4.6788 H   0  0  0  0  0  0  0  0  0  0  0  0
   -0.2573   -0.0705    3.3306 H   0  0  0  0  0  0  0  0  0  0  0  0
   -1.1528   -1.9106    3.0249 N   0  0  0  0  0  4  0  0  0  0  0  0
   -0.6861   -2.5152    2.3852 H   0  0  0  0  0  0  0  0  0  0  0  0
   -1.6106   -2.4450    3.7302 H   0  0  0  0  0  0  0  0  0  0  0  0
   -1.8126   -1.3431    2.5413 H   0  0  0  0  0  0  0  0  0  0  0  0
    0.0050    2.8745   -0.0093 C   0  0  0  0  0  0  0  0  0  0  0  0
   -0.6596    3.1909   -0.6724 H   0  0  0  0  0  0  0  0  0  0  0  0
    0.9150    3.1887   -0.2429 H   0  0  0  0  0  0  0  0  0  0  0  0
   -0.2565    3.3180    0.9515 H   0  0  0  0  0  0  0  0  0  0  0  0
    0.0007    1.3993   -0.0014 C   0  0  0  0  0  0  0  0  0  0  0  0
   -1.1974    0.6991    0.0015 C   0  0  0  0  0  0  0  0  0  0  0  0
   -2.0625    1.1875    0.0033 H   0  0  0  0  0  0  0  0  0  0  0  0
   -1.2016   -0.6966    0.0000 C   0  0  0  0  0  0  0  0  0  0  0  0
   -2.0796   -1.1875    0.0001 H   0  0  0  0  0  0  0  0  0  0  0  0
   -0.0012   -1.3958    0.0001 C   0  0  0  0  0  0  0  0  0  0  0  0
   -0.0056   -2.3938   -0.0000 H   0  0  0  0  0  0  0  0  0  0  0  0
    1.2016   -0.6991   -0.0000 C   0  0  0  0  0  0  0  0  0  0  0  0
    2.0820   -1.1969    0.0012 H   0  0  0  0  0  0  0  0  0  0  0  0
    1.1979    0.6931   -0.0002 C   0  0  0  0  0  0  0  0  0  0  0  0
    2.0652    1.1886   -0.0006 H   0  0  0  0  0  0  0  0  0  0  0  0
  1  5  1  0
  5  8  1  0
  1  2  1  0
  1  3  1  0
  1  4  1  0
  5  6  1  0
  5  7  1  0
  8  9  1  0
  8 10  1  0
  8 11  1  0
 12 16  1  0
 16 17  2  0
 17 19  1  0
 19 21  2  0
 21 23  1  0
 23 25  2  0
 25 16  1  0
 12 13  1  0
 12 14  1  0
 12 15  1  0
 17 18  1  0
 19 20  1  0
 21 22  1  0
 23 24  1  0
 25 26  1  0
M  CHG  1   8   1
M  END
>  <PDB_ID>  (343) 
pdb1e8y

>  <RESIDUE_NAME>  (343) 
LYS   PHE

>  <FRAG_NAME>  (343) 
ETAM   MBZ

>  <FRAG_ATOM_NUM>  (343) 
fragi: 11  fragj: 15

>  <atom.prop.CHAIN_ID>  (343) 
A A A A A A A A A A A Z Z Z Z Z Z Z Z Z Z Z Z Z Z Z

>  <atom.prop.IS_HEAVY_ATOM>  (343) 
1 0 0 0 1 0 0 1 0 0 0 1 0 0 0 1 1 0 1 0 1 0 1 0 1 0

>  <DIFUSE_FUNC_ATOM>  (343) 
n/a

>  <FINAL_SINGLE_POINT_ENERGY>  (343) 
0

>  <NONCOV_INTER_ENERGY_QM>  (343) 
0

>  <FF_Energy>  (343) 
-5.02

>  <QM_Energy>  (343) 
-12.5

>  <source>  (343) 
ETAM_MBZ

>  <Index>  (343) 
3203

$$$$
ETAM-pdb1e93-A-LYS-249:MBZ-pdb1e93-A-PHE-245
     RDKit          3D

 26 25  0  0  0  0  0  0  0  0999 V2000
   -4.5074   -1.0642   -2.0673 C   0  0  0  0  0  0  0  0  0  0  0  0
   -3.8510   -0.5108   -1.5714 H   0  0  0  0  0  0  0  0  0  0  0  0
   -5.4113   -0.6580   -2.0300 H   0  0  0  0  0  0  0  0  0  0  0  0
   -4.1940   -1.1278   -3.1095 H   0  0  0  0  0  0  0  0  0  0  0  0
   -4.5625   -2.4413   -1.4403 C   0  0  0  0  0  0  0  0  0  0  0  0
   -4.7993   -2.3546   -0.4735 H   0  0  0  0  0  0  0  0  0  0  0  0
   -5.2572   -2.9889   -1.9065 H   0  0  0  0  0  0  0  0  0  0  0  0
   -3.2402   -3.1349   -1.5561 N   0  0  0  0  0  4  0  0  0  0  0  0
   -3.2011   -3.8769   -0.8900 H   0  0  0  0  0  0  0  0  0  0  0  0
   -3.1435   -3.5033   -2.4785 H   0  0  0  0  0  0  0  0  0  0  0  0
   -2.5099   -2.4787   -1.3753 H   0  0  0  0  0  0  0  0  0  0  0  0
    0.0028    2.9078   -0.0292 C   0  0  0  0  0  0  0  0  0  0  0  0
    0.8257    3.2219    0.4183 H   0  0  0  0  0  0  0  0  0  0  0  0
   -0.8067    3.2243    0.4397 H   0  0  0  0  0  0  0  0  0  0  0  0
   -0.0101    3.3268   -1.0353 H   0  0  0  0  0  0  0  0  0  0  0  0
    0.0003    1.4047   -0.0002 C   0  0  0  0  0  0  0  0  0  0  0  0
   -1.1996    0.6945    0.0013 C   0  0  0  0  0  0  0  0  0  0  0  0
   -2.0652    1.1846    0.0015 H   0  0  0  0  0  0  0  0  0  0  0  0
   -1.2051   -0.6995    0.0000 C   0  0  0  0  0  0  0  0  0  0  0  0
   -2.0798   -1.1933    0.0021 H   0  0  0  0  0  0  0  0  0  0  0  0
    0.0001   -1.3967   -0.0022 C   0  0  0  0  0  0  0  0  0  0  0  0
   -0.0040   -2.3948   -0.0060 H   0  0  0  0  0  0  0  0  0  0  0  0
    1.2051   -0.6996    0.0000 C   0  0  0  0  0  0  0  0  0  0  0  0
    2.0846   -1.1954    0.0027 H   0  0  0  0  0  0  0  0  0  0  0  0
    1.1992    0.6966    0.0011 C   0  0  0  0  0  0  0  0  0  0  0  0
    2.0665    1.1917    0.0020 H   0  0  0  0  0  0  0  0  0  0  0  0
  1  5  1  0
  5  8  1  0
  1  2  1  0
  1  3  1  0
  1  4  1  0
  5  6  1  0
  5  7  1  0
  8  9  1  0
  8 10  1  0
  8 11  1  0
 12 16  1  0
 16 17  2  0
 17 19  1  0
 19 21  2  0
 21 23  1  0
 23 25  2  0
 25 16  1  0
 12 13  1  0
 12 14  1  0
 12 15  1  0
 17 18  1  0
 19 20  1  0
 21 22  1  0
 23 24  1  0
 25 26  1  0
M  CHG  1   8   1
M  END
>  <PDB_ID>  (344) 
pdb1e93

>  <RESIDUE_NAME>  (344) 
LYS   PHE

>  <FRAG_NAME>  (344) 
ETAM   MBZ

>  <FRAG_ATOM_NUM>  (344) 
fragi: 11  fragj: 15

>  <atom.prop.CHAIN_ID>  (344) 
A A A A A A A A A A A Z Z Z Z Z Z Z Z Z Z Z Z Z Z Z

>  <atom.prop.IS_HEAVY_ATOM>  (344) 
1 0 0 0 1 0 0 1 0 0 0 1 0 0 0 1 1 0 1 0 1 0 1 0 1 0

>  <DIFUSE_FUNC_ATOM>  (344) 
n/a

>  <FINAL_SINGLE_POINT_ENERGY>  (344) 
0

>  <NONCOV_INTER_ENERGY_QM>  (344) 
0

>  <FF_Energy>  (344) 
0.13

>  <QM_Energy>  (344) 
-5.56

>  <source>  (344) 
ETAM_MBZ

>  <Index>  (344) 
3208

$$$$
ETAM-pdb2ewg-B-LYS-299:MBZ-pdb2ewg-B-PHE-197
     RDKit          3D

 26 25  0  0  0  0  0  0  0  0999 V2000
   -4.4141    0.6382   -0.6792 C   0  0  0  0  0  0  0  0  0  0  0  0
   -5.3644    0.4438   -0.4634 H   0  0  0  0  0  0  0  0  0  0  0  0
   -3.8196    0.3284    0.0535 H   0  0  0  0  0  0  0  0  0  0  0  0
   -4.1468    0.1144   -1.5970 H   0  0  0  0  0  0  0  0  0  0  0  0
   -4.2487    2.1408   -0.8365 C   0  0  0  0  0  0  0  0  0  0  0  0
   -3.7331    2.3258   -1.6811 H   0  0  0  0  0  0  0  0  0  0  0  0
   -5.1582    2.5622   -0.9212 H   0  0  0  0  0  0  0  0  0  0  0  0
   -3.5326    2.7600    0.3151 N   0  0  0  0  0  4  0  0  0  0  0  0
   -3.7966    2.2927    1.1581 H   0  0  0  0  0  0  0  0  0  0  0  0
   -2.5468    2.6720    0.1774 H   0  0  0  0  0  0  0  0  0  0  0  0
   -3.7786    3.7269    0.3757 H   0  0  0  0  0  0  0  0  0  0  0  0
   -0.0461    2.9146    0.0058 C   0  0  0  0  0  0  0  0  0  0  0  0
   -0.8738    3.1986   -0.4268 H   0  0  0  0  0  0  0  0  0  0  0  0
    0.7581    3.2335   -0.4463 H   0  0  0  0  0  0  0  0  0  0  0  0
   -0.0425    3.3111    1.0212 H   0  0  0  0  0  0  0  0  0  0  0  0
   -0.0132    1.3935    0.0010 C   0  0  0  0  0  0  0  0  0  0  0  0
   -1.1876    0.6676    0.0007 C   0  0  0  0  0  0  0  0  0  0  0  0
   -2.0683    1.1544   -0.0002 H   0  0  0  0  0  0  0  0  0  0  0  0
   -1.1931   -0.7149    0.0000 C   0  0  0  0  0  0  0  0  0  0  0  0
   -2.0618   -1.2142    0.0025 H   0  0  0  0  0  0  0  0  0  0  0  0
    0.0134   -1.3883   -0.0025 C   0  0  0  0  0  0  0  0  0  0  0  0
    0.0279   -2.3871   -0.0067 H   0  0  0  0  0  0  0  0  0  0  0  0
    1.1931   -0.6699    0.0000 C   0  0  0  0  0  0  0  0  0  0  0  0
    2.0887   -1.1631    0.0027 H   0  0  0  0  0  0  0  0  0  0  0  0
    1.1874    0.7120    0.0008 C   0  0  0  0  0  0  0  0  0  0  0  0
    2.0476    1.2147    0.0005 H   0  0  0  0  0  0  0  0  0  0  0  0
  1  5  1  0
  5  8  1  0
  1  2  1  0
  1  3  1  0
  1  4  1  0
  5  6  1  0
  5  7  1  0
  8  9  1  0
  8 10  1  0
  8 11  1  0
 12 16  1  0
 16 17  2  0
 17 19  1  0
 19 21  2  0
 21 23  1  0
 23 25  2  0
 25 16  1  0
 12 13  1  0
 12 14  1  0
 12 15  1  0
 17 18  1  0
 19 20  1  0
 21 22  1  0
 23 24  1  0
 25 26  1  0
M  CHG  1   8   1
M  END
>  <PDB_ID>  (345) 
pdb2ewg

>  <RESIDUE_NAME>  (345) 
LYS   PHE

>  <FRAG_NAME>  (345) 
ETAM   MBZ

>  <FRAG_ATOM_NUM>  (345) 
fragi: 11  fragj: 15

>  <atom.prop.CHAIN_ID>  (345) 
A A A A A A A A A A A Z Z Z Z Z Z Z Z Z Z Z Z Z Z Z

>  <atom.prop.IS_HEAVY_ATOM>  (345) 
1 0 0 0 1 0 0 1 0 0 0 1 0 0 0 1 1 0 1 0 1 0 1 0 1 0

>  <DIFUSE_FUNC_ATOM>  (345) 
n/a

>  <FINAL_SINGLE_POINT_ENERGY>  (345) 
0

>  <NONCOV_INTER_ENERGY_QM>  (345) 
0

>  <FF_Energy>  (345) 
10.64

>  <QM_Energy>  (345) 
0.02

>  <source>  (345) 
ETAM_MBZ

>  <Index>  (345) 
3223

$$$$
ETAM-pdb1e5f-B-LYS-279:MBZ-pdb1e5f-B-PHE-292
     RDKit          3D

 26 25  0  0  0  0  0  0  0  0999 V2000
    1.0017   -1.4526    3.4405 C   0  0  0  0  0  0  0  0  0  0  0  0
    1.0500   -1.5508    2.4709 H   0  0  0  0  0  0  0  0  0  0  0  0
    0.1189   -1.6397    3.8096 H   0  0  0  0  0  0  0  0  0  0  0  0
    1.6865   -2.1853    3.8677 H   0  0  0  0  0  0  0  0  0  0  0  0
    1.4561   -0.0607    3.8487 C   0  0  0  0  0  0  0  0  0  0  0  0
    1.3146    0.0625    4.8265 H   0  0  0  0  0  0  0  0  0  0  0  0
    2.4188    0.0553    3.6237 H   0  0  0  0  0  0  0  0  0  0  0  0
    0.6587    1.0035    3.1106 N   0  0  0  0  0  4  0  0  0  0  0  0
   -0.3018    0.8958    3.3436 H   0  0  0  0  0  0  0  0  0  0  0  0
    0.9873    1.8975    3.3951 H   0  0  0  0  0  0  0  0  0  0  0  0
    0.7951    0.8786    2.1333 H   0  0  0  0  0  0  0  0  0  0  0  0
   -0.2583    2.8431   -0.0119 C   0  0  0  0  0  0  0  0  0  0  0  0
    0.2966    3.2175   -0.7564 H   0  0  0  0  0  0  0  0  0  0  0  0
    0.0695    3.2095    0.8607 H   0  0  0  0  0  0  0  0  0  0  0  0
   -1.2845    3.1818   -0.1546 H   0  0  0  0  0  0  0  0  0  0  0  0
   -0.0492    1.3631    0.0103 C   0  0  0  0  0  0  0  0  0  0  0  0
   -1.1969    0.5903    0.0441 C   0  0  0  0  0  0  0  0  0  0  0  0
   -2.0964    1.0927    0.1062 H   0  0  0  0  0  0  0  0  0  0  0  0
   -1.2174   -0.7521    0.0000 C   0  0  0  0  0  0  0  0  0  0  0  0
   -2.0420   -1.2806   -0.0013 H   0  0  0  0  0  0  0  0  0  0  0  0
    0.0353   -1.3583   -0.0424 C   0  0  0  0  0  0  0  0  0  0  0  0
    0.0842   -2.3698   -0.1066 H   0  0  0  0  0  0  0  0  0  0  0  0
    1.2174   -0.6254   -0.0000 C   0  0  0  0  0  0  0  0  0  0  0  0
    2.1148   -1.1071    0.0425 H   0  0  0  0  0  0  0  0  0  0  0  0
    1.2109    0.7822   -0.0120 C   0  0  0  0  0  0  0  0  0  0  0  0
    2.0215    1.2916   -0.0352 H   0  0  0  0  0  0  0  0  0  0  0  0
  1  5  1  0
  5  8  1  0
  1  2  1  0
  1  3  1  0
  1  4  1  0
  5  6  1  0
  5  7  1  0
  8  9  1  0
  8 10  1  0
  8 11  1  0
 12 16  1  0
 16 17  2  0
 17 19  1  0
 19 21  2  0
 21 23  1  0
 23 25  2  0
 25 16  1  0
 12 13  1  0
 12 14  1  0
 12 15  1  0
 17 18  1  0
 19 20  1  0
 21 22  1  0
 23 24  1  0
 25 26  1  0
M  CHG  1   8   1
M  END
>  <PDB_ID>  (346) 
pdb1e5f

>  <RESIDUE_NAME>  (346) 
LYS   PHE

>  <FRAG_NAME>  (346) 
ETAM   MBZ

>  <FRAG_ATOM_NUM>  (346) 
fragi: 11  fragj: 15

>  <atom.prop.CHAIN_ID>  (346) 
A A A A A A A A A A A Z Z Z Z Z Z Z Z Z Z Z Z Z Z Z

>  <atom.prop.IS_HEAVY_ATOM>  (346) 
1 0 0 0 1 0 0 1 0 0 0 1 0 0 0 1 1 0 1 0 1 0 1 0 1 0

>  <DIFUSE_FUNC_ATOM>  (346) 
n/a

>  <FINAL_SINGLE_POINT_ENERGY>  (346) 
0

>  <NONCOV_INTER_ENERGY_QM>  (346) 
0

>  <FF_Energy>  (346) 
-8.27

>  <QM_Energy>  (346) 
-15.11

>  <source>  (346) 
ETAM_MBZ

>  <Index>  (346) 
3242

$$$$
ETAM-pdb1dm5-B-LYS-292:MBZ-pdb1dm5-B-PHE-297
     RDKit          3D

 26 25  0  0  0  0  0  0  0  0999 V2000
    3.9119    0.3632   -1.7949 C   0  0  0  0  0  0  0  0  0  0  0  0
    4.0176   -0.5572   -2.1722 H   0  0  0  0  0  0  0  0  0  0  0  0
    3.0705    0.4072   -1.2556 H   0  0  0  0  0  0  0  0  0  0  0  0
    4.7613    0.5806   -1.1473 H   0  0  0  0  0  0  0  0  0  0  0  0
    3.7943    1.3430   -2.9477 C   0  0  0  0  0  0  0  0  0  0  0  0
    3.3377    2.1762   -2.6232 H   0  0  0  0  0  0  0  0  0  0  0  0
    4.7158    1.5841   -3.2677 H   0  0  0  0  0  0  0  0  0  0  0  0
    3.0181    0.7750   -4.0866 N   0  0  0  0  0  4  0  0  0  0  0  0
    2.4989   -0.0178   -3.7704 H   0  0  0  0  0  0  0  0  0  0  0  0
    2.3908    1.4689   -4.4375 H   0  0  0  0  0  0  0  0  0  0  0  0
    3.6491    0.4962   -4.8095 H   0  0  0  0  0  0  0  0  0  0  0  0
    0.0091    2.9149   -0.0321 C   0  0  0  0  0  0  0  0  0  0  0  0
    0.7063    3.2219    0.5815 H   0  0  0  0  0  0  0  0  0  0  0  0
   -0.8861    3.2206    0.2198 H   0  0  0  0  0  0  0  0  0  0  0  0
    0.2340    3.3039   -1.0252 H   0  0  0  0  0  0  0  0  0  0  0  0
    0.0054    1.3941   -0.0056 C   0  0  0  0  0  0  0  0  0  0  0  0
   -1.1909    0.6981   -0.0069 C   0  0  0  0  0  0  0  0  0  0  0  0
   -2.0546    1.1890   -0.0143 H   0  0  0  0  0  0  0  0  0  0  0  0
   -1.1919   -0.6859   -0.0000 C   0  0  0  0  0  0  0  0  0  0  0  0
   -2.0762   -1.1798    0.0185 H   0  0  0  0  0  0  0  0  0  0  0  0
   -0.0034   -1.3903   -0.0163 C   0  0  0  0  0  0  0  0  0  0  0  0
   -0.0132   -2.3876   -0.0405 H   0  0  0  0  0  0  0  0  0  0  0  0
    1.1919   -0.6991   -0.0000 C   0  0  0  0  0  0  0  0  0  0  0  0
    2.0742   -1.1993   -0.0074 H   0  0  0  0  0  0  0  0  0  0  0  0
    1.1889    0.6832    0.0288 C   0  0  0  0  0  0  0  0  0  0  0  0
    2.0625    1.1777    0.0751 H   0  0  0  0  0  0  0  0  0  0  0  0
  1  5  1  0
  5  8  1  0
  1  2  1  0
  1  3  1  0
  1  4  1  0
  5  6  1  0
  5  7  1  0
  8  9  1  0
  8 10  1  0
  8 11  1  0
 12 16  1  0
 16 17  2  0
 17 19  1  0
 19 21  2  0
 21 23  1  0
 23 25  2  0
 25 16  1  0
 12 13  1  0
 12 14  1  0
 12 15  1  0
 17 18  1  0
 19 20  1  0
 21 22  1  0
 23 24  1  0
 25 26  1  0
M  CHG  1   8   1
M  END
>  <PDB_ID>  (347) 
pdb1dm5

>  <RESIDUE_NAME>  (347) 
LYS   PHE

>  <FRAG_NAME>  (347) 
ETAM   MBZ

>  <FRAG_ATOM_NUM>  (347) 
fragi: 11  fragj: 15

>  <atom.prop.CHAIN_ID>  (347) 
A A A A A A A A A A A Z Z Z Z Z Z Z Z Z Z Z Z Z Z Z

>  <atom.prop.IS_HEAVY_ATOM>  (347) 
1 0 0 0 1 0 0 1 0 0 0 1 0 0 0 1 1 0 1 0 1 0 1 0 1 0

>  <DIFUSE_FUNC_ATOM>  (347) 
n/a

>  <FINAL_SINGLE_POINT_ENERGY>  (347) 
0

>  <NONCOV_INTER_ENERGY_QM>  (347) 
0

>  <FF_Energy>  (347) 
3.75

>  <QM_Energy>  (347) 
-2.56

>  <source>  (347) 
ETAM_MBZ

>  <Index>  (347) 
3252

$$$$
ETAM-pdb1eay-B-LYS-4:MBZ-pdb1eay-B-PHE-30
     RDKit          3D

 26 25  0  0  0  0  0  0  0  0999 V2000
    0.8952   -1.3554    3.5875 C   0  0  0  0  0  0  0  0  0  0  0  0
    1.3675   -1.6688    2.7688 H   0  0  0  0  0  0  0  0  0  0  0  0
    0.9715   -2.0352    4.3104 H   0  0  0  0  0  0  0  0  0  0  0  0
    1.3549   -0.4266    3.9251 H   0  0  0  0  0  0  0  0  0  0  0  0
   -0.5865   -1.1740    3.2509 C   0  0  0  0  0  0  0  0  0  0  0  0
   -0.8169   -0.1903    3.3567 H   0  0  0  0  0  0  0  0  0  0  0  0
   -0.7186   -1.4042    2.2703 H   0  0  0  0  0  0  0  0  0  0  0  0
   -1.5037   -1.9822    4.0712 N   0  0  0  0  0  4  0  0  0  0  0  0
   -2.2206   -1.3972    4.4560 H   0  0  0  0  0  0  0  0  0  0  0  0
   -1.9278   -2.6925    3.5058 H   0  0  0  0  0  0  0  0  0  0  0  0
   -0.9971   -2.4161    4.8199 H   0  0  0  0  0  0  0  0  0  0  0  0
    0.0103    2.8714    0.0458 C   0  0  0  0  0  0  0  0  0  0  0  0
   -0.7934    3.2043   -0.3974 H   0  0  0  0  0  0  0  0  0  0  0  0
    0.8386    3.1982   -0.3529 H   0  0  0  0  0  0  0  0  0  0  0  0
   -0.0167    3.2059    1.0829 H   0  0  0  0  0  0  0  0  0  0  0  0
    0.0068    1.3930   -0.0068 C   0  0  0  0  0  0  0  0  0  0  0  0
   -1.2055    0.7075    0.0283 C   0  0  0  0  0  0  0  0  0  0  0  0
   -2.0589    1.2047    0.0716 H   0  0  0  0  0  0  0  0  0  0  0  0
   -1.2137   -0.6824    0.0000 C   0  0  0  0  0  0  0  0  0  0  0  0
   -2.0884   -1.1765   -0.0023 H   0  0  0  0  0  0  0  0  0  0  0  0
   -0.0074   -1.3846   -0.0225 C   0  0  0  0  0  0  0  0  0  0  0  0
   -0.0237   -2.3880   -0.0558 H   0  0  0  0  0  0  0  0  0  0  0  0
    1.2137   -0.7124   -0.0000 C   0  0  0  0  0  0  0  0  0  0  0  0
    2.0792   -1.2153    0.0167 H   0  0  0  0  0  0  0  0  0  0  0  0
    1.2061    0.6789    0.0009 C   0  0  0  0  0  0  0  0  0  0  0  0
    2.0740    1.1773    0.0071 H   0  0  0  0  0  0  0  0  0  0  0  0
  1  5  1  0
  5  8  1  0
  1  2  1  0
  1  3  1  0
  1  4  1  0
  5  6  1  0
  5  7  1  0
  8  9  1  0
  8 10  1  0
  8 11  1  0
 12 16  1  0
 16 17  2  0
 17 19  1  0
 19 21  2  0
 21 23  1  0
 23 25  2  0
 25 16  1  0
 12 13  1  0
 12 14  1  0
 12 15  1  0
 17 18  1  0
 19 20  1  0
 21 22  1  0
 23 24  1  0
 25 26  1  0
M  CHG  1   8   1
M  END
>  <PDB_ID>  (348) 
pdb1eay

>  <RESIDUE_NAME>  (348) 
LYS   PHE

>  <FRAG_NAME>  (348) 
ETAM   MBZ

>  <FRAG_ATOM_NUM>  (348) 
fragi: 11  fragj: 15

>  <atom.prop.CHAIN_ID>  (348) 
A A A A A A A A A A A Z Z Z Z Z Z Z Z Z Z Z Z Z Z Z

>  <atom.prop.IS_HEAVY_ATOM>  (348) 
1 0 0 0 1 0 0 1 0 0 0 1 0 0 0 1 1 0 1 0 1 0 1 0 1 0

>  <DIFUSE_FUNC_ATOM>  (348) 
n/a

>  <FINAL_SINGLE_POINT_ENERGY>  (348) 
0

>  <NONCOV_INTER_ENERGY_QM>  (348) 
0

>  <FF_Energy>  (348) 
-1.06

>  <QM_Energy>  (348) 
-7.65

>  <source>  (348) 
ETAM_MBZ

>  <Index>  (348) 
3255

$$$$
ETAM-pdb2f4n-B-LYS-227:MBZ-pdb2f4n-B-PHE-245
     RDKit          3D

 26 25  0  0  0  0  0  0  0  0999 V2000
    1.1870   -0.3782   -3.3664 C   0  0  0  0  0  0  0  0  0  0  0  0
    1.7953   -0.5495   -4.1308 H   0  0  0  0  0  0  0  0  0  0  0  0
    1.6542   -0.5204   -2.5035 H   0  0  0  0  0  0  0  0  0  0  0  0
    0.8382    0.6533   -3.4160 H   0  0  0  0  0  0  0  0  0  0  0  0
    0.0169   -1.3491   -3.4500 C   0  0  0  0  0  0  0  0  0  0  0  0
   -0.5850   -1.1997   -2.6545 H   0  0  0  0  0  0  0  0  0  0  0  0
   -0.5124   -1.1486   -4.2852 H   0  0  0  0  0  0  0  0  0  0  0  0
    0.4436   -2.7755   -3.4766 N   0  0  0  0  0  4  0  0  0  0  0  0
    1.1117   -2.9077   -4.2086 H   0  0  0  0  0  0  0  0  0  0  0  0
    0.8567   -3.0138   -2.5984 H   0  0  0  0  0  0  0  0  0  0  0  0
   -0.3529   -3.3571   -3.6409 H   0  0  0  0  0  0  0  0  0  0  0  0
    0.0010    2.9025    0.0246 C   0  0  0  0  0  0  0  0  0  0  0  0
   -0.5350    3.2232   -0.7417 H   0  0  0  0  0  0  0  0  0  0  0  0
    0.9383    3.2112   -0.0390 H   0  0  0  0  0  0  0  0  0  0  0  0
   -0.4281    3.3284    0.9317 H   0  0  0  0  0  0  0  0  0  0  0  0
    0.0001    1.4042    0.0010 C   0  0  0  0  0  0  0  0  0  0  0  0
   -1.1987    0.6958   -0.0002 C   0  0  0  0  0  0  0  0  0  0  0  0
   -2.0647    1.1848   -0.0028 H   0  0  0  0  0  0  0  0  0  0  0  0
   -1.2034   -0.6993   -0.0000 C   0  0  0  0  0  0  0  0  0  0  0  0
   -2.0796   -1.1914    0.0012 H   0  0  0  0  0  0  0  0  0  0  0  0
    0.0005   -1.3973    0.0005 C   0  0  0  0  0  0  0  0  0  0  0  0
   -0.0035   -2.3954    0.0006 H   0  0  0  0  0  0  0  0  0  0  0  0
    1.2034   -0.6995   -0.0000 C   0  0  0  0  0  0  0  0  0  0  0  0
    2.0843   -1.1949    0.0019 H   0  0  0  0  0  0  0  0  0  0  0  0
    1.1981    0.6960   -0.0013 C   0  0  0  0  0  0  0  0  0  0  0  0
    2.0657    1.1911   -0.0054 H   0  0  0  0  0  0  0  0  0  0  0  0
  1  5  1  0
  5  8  1  0
  1  2  1  0
  1  3  1  0
  1  4  1  0
  5  6  1  0
  5  7  1  0
  8  9  1  0
  8 10  1  0
  8 11  1  0
 12 16  1  0
 16 17  2  0
 17 19  1  0
 19 21  2  0
 21 23  1  0
 23 25  2  0
 25 16  1  0
 12 13  1  0
 12 14  1  0
 12 15  1  0
 17 18  1  0
 19 20  1  0
 21 22  1  0
 23 24  1  0
 25 26  1  0
M  CHG  1   8   1
M  END
>  <PDB_ID>  (349) 
pdb2f4n

>  <RESIDUE_NAME>  (349) 
LYS   PHE

>  <FRAG_NAME>  (349) 
ETAM   MBZ

>  <FRAG_ATOM_NUM>  (349) 
fragi: 11  fragj: 15

>  <atom.prop.CHAIN_ID>  (349) 
A A A A A A A A A A A Z Z Z Z Z Z Z Z Z Z Z Z Z Z Z

>  <atom.prop.IS_HEAVY_ATOM>  (349) 
1 0 0 0 1 0 0 1 0 0 0 1 0 0 0 1 1 0 1 0 1 0 1 0 1 0

>  <DIFUSE_FUNC_ATOM>  (349) 
n/a

>  <FINAL_SINGLE_POINT_ENERGY>  (349) 
0

>  <NONCOV_INTER_ENERGY_QM>  (349) 
0

>  <FF_Energy>  (349) 
-3.22

>  <QM_Energy>  (349) 
-9.09

>  <source>  (349) 
ETAM_MBZ

>  <Index>  (349) 
3275

$$$$
ETAM-pdb1ebf-B-LYS-104:MBZ-pdb1ebf-B-PHE-101
     RDKit          3D

 26 25  0  0  0  0  0  0  0  0999 V2000
    4.0861    1.1458    2.0386 C   0  0  0  0  0  0  0  0  0  0  0  0
    3.1593    1.3001    1.7089 H   0  0  0  0  0  0  0  0  0  0  0  0
    4.6840    0.8954    1.2833 H   0  0  0  0  0  0  0  0  0  0  0  0
    4.4546    2.0712    2.4813 H   0  0  0  0  0  0  0  0  0  0  0  0
    4.0601   -0.0099    3.0433 C   0  0  0  0  0  0  0  0  0  0  0  0
    5.0046   -0.2536    3.2804 H   0  0  0  0  0  0  0  0  0  0  0  0
    3.5864    0.2950    3.8745 H   0  0  0  0  0  0  0  0  0  0  0  0
    3.3641   -1.2245    2.5039 N   0  0  0  0  0  4  0  0  0  0  0  0
    3.2816   -1.9026    3.2312 H   0  0  0  0  0  0  0  0  0  0  0  0
    2.4577   -0.9634    2.1791 H   0  0  0  0  0  0  0  0  0  0  0  0
    3.8996   -1.5983    1.7500 H   0  0  0  0  0  0  0  0  0  0  0  0
    0.0111    2.9129   -0.0415 C   0  0  0  0  0  0  0  0  0  0  0  0
   -0.7165    3.2093   -0.6438 H   0  0  0  0  0  0  0  0  0  0  0  0
    0.8949    3.2023   -0.3811 H   0  0  0  0  0  0  0  0  0  0  0  0
   -0.1443    3.3901    0.9261 H   0  0  0  0  0  0  0  0  0  0  0  0
   -0.0021    1.4078   -0.0013 C   0  0  0  0  0  0  0  0  0  0  0  0
   -1.2024    0.7047    0.0022 C   0  0  0  0  0  0  0  0  0  0  0  0
   -2.0671    1.1908    0.0046 H   0  0  0  0  0  0  0  0  0  0  0  0
   -1.2070   -0.6963   -0.0000 C   0  0  0  0  0  0  0  0  0  0  0  0
   -2.0799   -1.1894    0.0006 H   0  0  0  0  0  0  0  0  0  0  0  0
    0.0056   -1.4004   -0.0010 C   0  0  0  0  0  0  0  0  0  0  0  0
   -0.0067   -2.3972   -0.0030 H   0  0  0  0  0  0  0  0  0  0  0  0
    1.2070   -0.7065   -0.0000 C   0  0  0  0  0  0  0  0  0  0  0  0
    2.0874   -1.1996    0.0017 H   0  0  0  0  0  0  0  0  0  0  0  0
    1.1988    0.6907    0.0001 C   0  0  0  0  0  0  0  0  0  0  0  0
    2.0672    1.1874    0.0001 H   0  0  0  0  0  0  0  0  0  0  0  0
  1  5  1  0
  5  8  1  0
  1  2  1  0
  1  3  1  0
  1  4  1  0
  5  6  1  0
  5  7  1  0
  8  9  1  0
  8 10  1  0
  8 11  1  0
 12 16  1  0
 16 17  2  0
 17 19  1  0
 19 21  2  0
 21 23  1  0
 23 25  2  0
 25 16  1  0
 12 13  1  0
 12 14  1  0
 12 15  1  0
 17 18  1  0
 19 20  1  0
 21 22  1  0
 23 24  1  0
 25 26  1  0
M  CHG  1   8   1
M  END
>  <PDB_ID>  (350) 
pdb1ebf

>  <RESIDUE_NAME>  (350) 
LYS   PHE

>  <FRAG_NAME>  (350) 
ETAM   MBZ

>  <FRAG_ATOM_NUM>  (350) 
fragi: 11  fragj: 15

>  <atom.prop.CHAIN_ID>  (350) 
A A A A A A A A A A A Z Z Z Z Z Z Z Z Z Z Z Z Z Z Z

>  <atom.prop.IS_HEAVY_ATOM>  (350) 
1 0 0 0 1 0 0 1 0 0 0 1 0 0 0 1 1 0 1 0 1 0 1 0 1 0

>  <DIFUSE_FUNC_ATOM>  (350) 
n/a

>  <FINAL_SINGLE_POINT_ENERGY>  (350) 
0

>  <NONCOV_INTER_ENERGY_QM>  (350) 
0

>  <FF_Energy>  (350) 
-1.17

>  <QM_Energy>  (350) 
-7.57

>  <source>  (350) 
ETAM_MBZ

>  <Index>  (350) 
3285

$$$$
ETAM-pdb1eep-B-LYS-64:MBZ-pdb1eep-B-PHE-131
     RDKit          3D

 26 25  0  0  0  0  0  0  0  0999 V2000
    0.6679   -0.4084   -4.6812 C   0  0  0  0  0  0  0  0  0  0  0  0
   -0.0299   -0.5912   -5.3740 H   0  0  0  0  0  0  0  0  0  0  0  0
    1.5168   -0.8729   -4.9309 H   0  0  0  0  0  0  0  0  0  0  0  0
    0.8532    0.6652   -4.6482 H   0  0  0  0  0  0  0  0  0  0  0  0
    0.1864   -0.9637   -3.3503 C   0  0  0  0  0  0  0  0  0  0  0  0
    0.9100   -0.8582   -2.6709 H   0  0  0  0  0  0  0  0  0  0  0  0
   -0.6239   -0.4585   -3.0591 H   0  0  0  0  0  0  0  0  0  0  0  0
   -0.1598   -2.4129   -3.4752 N   0  0  0  0  0  4  0  0  0  0  0  0
    0.5935   -2.9626   -3.1186 H   0  0  0  0  0  0  0  0  0  0  0  0
   -0.9903   -2.5983   -2.9518 H   0  0  0  0  0  0  0  0  0  0  0  0
   -0.3112   -2.6328   -4.4372 H   0  0  0  0  0  0  0  0  0  0  0  0
    0.0074    2.9029    0.0578 C   0  0  0  0  0  0  0  0  0  0  0  0
   -0.8048    3.2334   -0.3959 H   0  0  0  0  0  0  0  0  0  0  0  0
    0.8286    3.2243   -0.3855 H   0  0  0  0  0  0  0  0  0  0  0  0
    0.0032    3.2952    1.0746 H   0  0  0  0  0  0  0  0  0  0  0  0
    0.0000    1.4059   -0.0004 C   0  0  0  0  0  0  0  0  0  0  0  0
   -1.1995    0.7001   -0.0003 C   0  0  0  0  0  0  0  0  0  0  0  0
   -2.0649    1.1867   -0.0011 H   0  0  0  0  0  0  0  0  0  0  0  0
   -1.2038   -0.6988    0.0000 C   0  0  0  0  0  0  0  0  0  0  0  0
   -2.0799   -1.1903    0.0002 H   0  0  0  0  0  0  0  0  0  0  0  0
    0.0008   -1.3987    0.0014 C   0  0  0  0  0  0  0  0  0  0  0  0
   -0.0042   -2.3960    0.0027 H   0  0  0  0  0  0  0  0  0  0  0  0
    1.2038   -0.7003   -0.0000 C   0  0  0  0  0  0  0  0  0  0  0  0
    2.0848   -1.1974    0.0012 H   0  0  0  0  0  0  0  0  0  0  0  0
    1.1987    0.6918   -0.0006 C   0  0  0  0  0  0  0  0  0  0  0  0
    2.0665    1.1885   -0.0024 H   0  0  0  0  0  0  0  0  0  0  0  0
  1  5  1  0
  5  8  1  0
  1  2  1  0
  1  3  1  0
  1  4  1  0
  5  6  1  0
  5  7  1  0
  8  9  1  0
  8 10  1  0
  8 11  1  0
 12 16  1  0
 16 17  2  0
 17 19  1  0
 19 21  2  0
 21 23  1  0
 23 25  2  0
 25 16  1  0
 12 13  1  0
 12 14  1  0
 12 15  1  0
 17 18  1  0
 19 20  1  0
 21 22  1  0
 23 24  1  0
 25 26  1  0
M  CHG  1   8   1
M  END
>  <PDB_ID>  (351) 
pdb1eep

>  <RESIDUE_NAME>  (351) 
LYS   PHE

>  <FRAG_NAME>  (351) 
ETAM   MBZ

>  <FRAG_ATOM_NUM>  (351) 
fragi: 11  fragj: 15

>  <atom.prop.CHAIN_ID>  (351) 
A A A A A A A A A A A Z Z Z Z Z Z Z Z Z Z Z Z Z Z Z

>  <atom.prop.IS_HEAVY_ATOM>  (351) 
1 0 0 0 1 0 0 1 0 0 0 1 0 0 0 1 1 0 1 0 1 0 1 0 1 0

>  <DIFUSE_FUNC_ATOM>  (351) 
n/a

>  <FINAL_SINGLE_POINT_ENERGY>  (351) 
0

>  <NONCOV_INTER_ENERGY_QM>  (351) 
0

>  <FF_Energy>  (351) 
-4.59

>  <QM_Energy>  (351) 
-9.97

>  <source>  (351) 
ETAM_MBZ

>  <Index>  (351) 
3303

$$$$
ETAM-pdb1efh-A-LYS-44:MBZ-pdb1efh-A-PHE-133
     RDKit          3D

 26 25  0  0  0  0  0  0  0  0999 V2000
    2.9948    1.9322   -3.3644 C   0  0  0  0  0  0  0  0  0  0  0  0
    3.2317    1.2169   -4.0200 H   0  0  0  0  0  0  0  0  0  0  0  0
    3.2715    1.6536   -2.4463 H   0  0  0  0  0  0  0  0  0  0  0  0
    3.5400    2.8378   -3.6302 H   0  0  0  0  0  0  0  0  0  0  0  0
    1.4859    2.1280   -3.3805 C   0  0  0  0  0  0  0  0  0  0  0  0
    1.2251    2.7094   -2.6106 H   0  0  0  0  0  0  0  0  0  0  0  0
    1.2242    2.5707   -4.2373 H   0  0  0  0  0  0  0  0  0  0  0  0
    0.7779    0.8202   -3.2686 N   0  0  0  0  0  4  0  0  0  0  0  0
    0.9076    0.3015   -4.1118 H   0  0  0  0  0  0  0  0  0  0  0  0
    1.1525    0.3070   -2.4978 H   0  0  0  0  0  0  0  0  0  0  0  0
   -0.1967    0.9843   -3.1219 H   0  0  0  0  0  0  0  0  0  0  0  0
   -0.0010    2.9015    0.0199 C   0  0  0  0  0  0  0  0  0  0  0  0
   -0.5659    3.2189   -0.7266 H   0  0  0  0  0  0  0  0  0  0  0  0
    0.9324    3.2108   -0.0773 H   0  0  0  0  0  0  0  0  0  0  0  0
   -0.3977    3.3277    0.9414 H   0  0  0  0  0  0  0  0  0  0  0  0
   -0.0006    1.4019    0.0008 C   0  0  0  0  0  0  0  0  0  0  0  0
   -1.1979    0.6977   -0.0005 C   0  0  0  0  0  0  0  0  0  0  0  0
   -2.0641    1.1890   -0.0031 H   0  0  0  0  0  0  0  0  0  0  0  0
   -1.2073   -0.6941    0.0000 C   0  0  0  0  0  0  0  0  0  0  0  0
   -2.0816   -1.1874    0.0021 H   0  0  0  0  0  0  0  0  0  0  0  0
    0.0001   -1.3980   -0.0012 C   0  0  0  0  0  0  0  0  0  0  0  0
   -0.0071   -2.3942   -0.0031 H   0  0  0  0  0  0  0  0  0  0  0  0
    1.2073   -0.7004   -0.0000 C   0  0  0  0  0  0  0  0  0  0  0  0
    2.0853   -1.1971    0.0017 H   0  0  0  0  0  0  0  0  0  0  0  0
    1.1984    0.6929    0.0010 C   0  0  0  0  0  0  0  0  0  0  0  0
    2.0659    1.1909    0.0010 H   0  0  0  0  0  0  0  0  0  0  0  0
  1  5  1  0
  5  8  1  0
  1  2  1  0
  1  3  1  0
  1  4  1  0
  5  6  1  0
  5  7  1  0
  8  9  1  0
  8 10  1  0
  8 11  1  0
 12 16  1  0
 16 17  2  0
 17 19  1  0
 19 21  2  0
 21 23  1  0
 23 25  2  0
 25 16  1  0
 12 13  1  0
 12 14  1  0
 12 15  1  0
 17 18  1  0
 19 20  1  0
 21 22  1  0
 23 24  1  0
 25 26  1  0
M  CHG  1   8   1
M  END
>  <PDB_ID>  (352) 
pdb1efh

>  <RESIDUE_NAME>  (352) 
LYS   PHE

>  <FRAG_NAME>  (352) 
ETAM   MBZ

>  <FRAG_ATOM_NUM>  (352) 
fragi: 11  fragj: 15

>  <atom.prop.CHAIN_ID>  (352) 
A A A A A A A A A A A Z Z Z Z Z Z Z Z Z Z Z Z Z Z Z

>  <atom.prop.IS_HEAVY_ATOM>  (352) 
1 0 0 0 1 0 0 1 0 0 0 1 0 0 0 1 1 0 1 0 1 0 1 0 1 0

>  <DIFUSE_FUNC_ATOM>  (352) 
n/a

>  <FINAL_SINGLE_POINT_ENERGY>  (352) 
0

>  <NONCOV_INTER_ENERGY_QM>  (352) 
0

>  <FF_Energy>  (352) 
-8.45

>  <QM_Energy>  (352) 
-15.18

>  <source>  (352) 
ETAM_MBZ

>  <Index>  (352) 
3312

$$$$
ETAM-pdb1efh-B-LYS-44:MBZ-pdb1efh-B-PHE-133
     RDKit          3D

 26 25  0  0  0  0  0  0  0  0999 V2000
    3.2262    2.2107   -3.3183 C   0  0  0  0  0  0  0  0  0  0  0  0
    3.5447    1.5482   -3.9917 H   0  0  0  0  0  0  0  0  0  0  0  0
    3.4760    1.9128   -2.4006 H   0  0  0  0  0  0  0  0  0  0  0  0
    3.7046    3.1696   -3.5180 H   0  0  0  0  0  0  0  0  0  0  0  0
    1.7130    2.3036   -3.4046 C   0  0  0  0  0  0  0  0  0  0  0  0
    1.3882    2.9777   -2.7372 H   0  0  0  0  0  0  0  0  0  0  0  0
    1.4560    2.6077   -4.3251 H   0  0  0  0  0  0  0  0  0  0  0  0
    1.0617    0.9905   -3.1269 N   0  0  0  0  0  4  0  0  0  0  0  0
    1.4001    0.3113   -3.7767 H   0  0  0  0  0  0  0  0  0  0  0  0
    1.2812    0.7039   -2.1951 H   0  0  0  0  0  0  0  0  0  0  0  0
    0.0718    1.0862   -3.2241 H   0  0  0  0  0  0  0  0  0  0  0  0
   -0.0022    2.8898    0.0180 C   0  0  0  0  0  0  0  0  0  0  0  0
   -0.5547    3.2075   -0.7376 H   0  0  0  0  0  0  0  0  0  0  0  0
    0.9319    3.2015   -0.0630 H   0  0  0  0  0  0  0  0  0  0  0  0
   -0.4163    3.3104    0.9345 H   0  0  0  0  0  0  0  0  0  0  0  0
    0.0000    1.3979    0.0001 C   0  0  0  0  0  0  0  0  0  0  0  0
   -1.1995    0.6908   -0.0001 C   0  0  0  0  0  0  0  0  0  0  0  0
   -2.0639    1.1835   -0.0011 H   0  0  0  0  0  0  0  0  0  0  0  0
   -1.2039   -0.6973   -0.0000 C   0  0  0  0  0  0  0  0  0  0  0  0
   -2.0781   -1.1937    0.0011 H   0  0  0  0  0  0  0  0  0  0  0  0
    0.0014   -1.3925    0.0003 C   0  0  0  0  0  0  0  0  0  0  0  0
   -0.0005   -2.3903   -0.0000 H   0  0  0  0  0  0  0  0  0  0  0  0
    1.2039   -0.6931   -0.0000 C   0  0  0  0  0  0  0  0  0  0  0  0
    2.0846   -1.1922    0.0013 H   0  0  0  0  0  0  0  0  0  0  0  0
    1.1981    0.6941   -0.0003 C   0  0  0  0  0  0  0  0  0  0  0  0
    2.0646    1.1936   -0.0010 H   0  0  0  0  0  0  0  0  0  0  0  0
  1  5  1  0
  5  8  1  0
  1  2  1  0
  1  3  1  0
  1  4  1  0
  5  6  1  0
  5  7  1  0
  8  9  1  0
  8 10  1  0
  8 11  1  0
 12 16  1  0
 16 17  2  0
 17 19  1  0
 19 21  2  0
 21 23  1  0
 23 25  2  0
 25 16  1  0
 12 13  1  0
 12 14  1  0
 12 15  1  0
 17 18  1  0
 19 20  1  0
 21 22  1  0
 23 24  1  0
 25 26  1  0
M  CHG  1   8   1
M  END
>  <PDB_ID>  (353) 
pdb1efh

>  <RESIDUE_NAME>  (353) 
LYS   PHE

>  <FRAG_NAME>  (353) 
ETAM   MBZ

>  <FRAG_ATOM_NUM>  (353) 
fragi: 11  fragj: 15

>  <atom.prop.CHAIN_ID>  (353) 
A A A A A A A A A A A Z Z Z Z Z Z Z Z Z Z Z Z Z Z Z

>  <atom.prop.IS_HEAVY_ATOM>  (353) 
1 0 0 0 1 0 0 1 0 0 0 1 0 0 0 1 1 0 1 0 1 0 1 0 1 0

>  <DIFUSE_FUNC_ATOM>  (353) 
n/a

>  <FINAL_SINGLE_POINT_ENERGY>  (353) 
0

>  <NONCOV_INTER_ENERGY_QM>  (353) 
0

>  <FF_Energy>  (353) 
-8.05

>  <QM_Energy>  (353) 
-14.9

>  <source>  (353) 
ETAM_MBZ

>  <Index>  (353) 
3315

$$$$
ETAM-pdb1egw-A-LYS-25:MBZ-pdb1egw-A-PHE-55
     RDKit          3D

 26 25  0  0  0  0  0  0  0  0999 V2000
    0.5148    2.1039   -3.5820 C   0  0  0  0  0  0  0  0  0  0  0  0
    0.7298    2.6957   -2.8012 H   0  0  0  0  0  0  0  0  0  0  0  0
   -0.4689    1.9075   -3.5809 H   0  0  0  0  0  0  0  0  0  0  0  0
    0.7624    2.6367   -4.5002 H   0  0  0  0  0  0  0  0  0  0  0  0
    1.2688    0.7851   -3.4083 C   0  0  0  0  0  0  0  0  0  0  0  0
    0.9537    0.3326   -2.5618 H   0  0  0  0  0  0  0  0  0  0  0  0
    1.0518    0.1749   -4.1839 H   0  0  0  0  0  0  0  0  0  0  0  0
    2.7886    0.9278   -3.3305 N   0  0  0  0  0  4  0  0  0  0  0  0
    3.0720    1.6048   -3.9992 H   0  0  0  0  0  0  0  0  0  0  0  0
    3.0274    1.2217   -2.4122 H   0  0  0  0  0  0  0  0  0  0  0  0
    3.1950    0.0448   -3.5319 H   0  0  0  0  0  0  0  0  0  0  0  0
   -0.0103    2.8859    0.0411 C   0  0  0  0  0  0  0  0  0  0  0  0
   -0.7946    3.2097   -0.4681 H   0  0  0  0  0  0  0  0  0  0  0  0
    0.8345    3.2120   -0.3579 H   0  0  0  0  0  0  0  0  0  0  0  0
   -0.0789    3.2948    1.0492 H   0  0  0  0  0  0  0  0  0  0  0  0
   -0.0054    1.3999    0.0000 C   0  0  0  0  0  0  0  0  0  0  0  0
   -1.1954    0.6947   -0.0024 C   0  0  0  0  0  0  0  0  0  0  0  0
   -2.0659    1.1835   -0.0070 H   0  0  0  0  0  0  0  0  0  0  0  0
   -1.2077   -0.7016   -0.0000 C   0  0  0  0  0  0  0  0  0  0  0  0
   -2.0818   -1.1904    0.0033 H   0  0  0  0  0  0  0  0  0  0  0  0
   -0.0025   -1.3991    0.0001 C   0  0  0  0  0  0  0  0  0  0  0  0
   -0.0006   -2.3939   -0.0006 H   0  0  0  0  0  0  0  0  0  0  0  0
    1.2077   -0.6922    0.0000 C   0  0  0  0  0  0  0  0  0  0  0  0
    2.0856   -1.1933   -0.0003 H   0  0  0  0  0  0  0  0  0  0  0  0
    1.2032    0.6982    0.0022 C   0  0  0  0  0  0  0  0  0  0  0  0
    2.0636    1.1988    0.0050 H   0  0  0  0  0  0  0  0  0  0  0  0
  1  5  1  0
  5  8  1  0
  1  2  1  0
  1  3  1  0
  1  4  1  0
  5  6  1  0
  5  7  1  0
  8  9  1  0
  8 10  1  0
  8 11  1  0
 12 16  1  0
 16 17  2  0
 17 19  1  0
 19 21  2  0
 21 23  1  0
 23 25  2  0
 25 16  1  0
 12 13  1  0
 12 14  1  0
 12 15  1  0
 17 18  1  0
 19 20  1  0
 21 22  1  0
 23 24  1  0
 25 26  1  0
M  CHG  1   8   1
M  END
>  <PDB_ID>  (354) 
pdb1egw

>  <RESIDUE_NAME>  (354) 
LYS   PHE

>  <FRAG_NAME>  (354) 
ETAM   MBZ

>  <FRAG_ATOM_NUM>  (354) 
fragi: 11  fragj: 15

>  <atom.prop.CHAIN_ID>  (354) 
A A A A A A A A A A A Z Z Z Z Z Z Z Z Z Z Z Z Z Z Z

>  <atom.prop.IS_HEAVY_ATOM>  (354) 
1 0 0 0 1 0 0 1 0 0 0 1 0 0 0 1 1 0 1 0 1 0 1 0 1 0

>  <DIFUSE_FUNC_ATOM>  (354) 
n/a

>  <FINAL_SINGLE_POINT_ENERGY>  (354) 
0

>  <NONCOV_INTER_ENERGY_QM>  (354) 
0

>  <FF_Energy>  (354) 
-4.11

>  <QM_Energy>  (354) 
-9.39

>  <source>  (354) 
ETAM_MBZ

>  <Index>  (354) 
3350

$$$$
ETAM-pdb1egw-B-LYS-25:MBZ-pdb1egw-B-PHE-55
     RDKit          3D

 26 25  0  0  0  0  0  0  0  0999 V2000
    0.4047    2.0691   -3.5709 C   0  0  0  0  0  0  0  0  0  0  0  0
    0.6468    2.6407   -2.7917 H   0  0  0  0  0  0  0  0  0  0  0  0
   -0.5627    1.8348   -3.5366 H   0  0  0  0  0  0  0  0  0  0  0  0
    0.5977    2.6274   -4.4869 H   0  0  0  0  0  0  0  0  0  0  0  0
    1.2190    0.7760   -3.4949 C   0  0  0  0  0  0  0  0  0  0  0  0
    0.8222    0.1820   -2.7855 H   0  0  0  0  0  0  0  0  0  0  0  0
    1.1581    0.3001   -4.3797 H   0  0  0  0  0  0  0  0  0  0  0  0
    2.6749    1.0079   -3.1714 N   0  0  0  0  0  4  0  0  0  0  0  0
    2.7561    1.2360   -2.2052 H   0  0  0  0  0  0  0  0  0  0  0  0
    3.1848    0.1757   -3.3714 H   0  0  0  0  0  0  0  0  0  0  0  0
    3.0121    1.7599   -3.7307 H   0  0  0  0  0  0  0  0  0  0  0  0
   -0.0083    2.8924    0.0247 C   0  0  0  0  0  0  0  0  0  0  0  0
   -0.8053    3.2045   -0.4740 H   0  0  0  0  0  0  0  0  0  0  0  0
    0.8266    3.2151   -0.3997 H   0  0  0  0  0  0  0  0  0  0  0  0
   -0.0568    3.3139    1.0287 H   0  0  0  0  0  0  0  0  0  0  0  0
    0.0028    1.4021    0.0002 C   0  0  0  0  0  0  0  0  0  0  0  0
   -1.1914    0.6987   -0.0005 C   0  0  0  0  0  0  0  0  0  0  0  0
   -2.0603    1.1844   -0.0031 H   0  0  0  0  0  0  0  0  0  0  0  0
   -1.2039   -0.7069    0.0000 C   0  0  0  0  0  0  0  0  0  0  0  0
   -2.0850   -1.1860    0.0026 H   0  0  0  0  0  0  0  0  0  0  0  0
   -0.0116   -1.3979   -0.0015 C   0  0  0  0  0  0  0  0  0  0  0  0
   -0.0045   -2.3967   -0.0038 H   0  0  0  0  0  0  0  0  0  0  0  0
    1.2039   -0.6962   -0.0000 C   0  0  0  0  0  0  0  0  0  0  0  0
    2.0788   -1.1965    0.0009 H   0  0  0  0  0  0  0  0  0  0  0  0
    1.2002    0.7002    0.0018 C   0  0  0  0  0  0  0  0  0  0  0  0
    2.0676    1.1933    0.0032 H   0  0  0  0  0  0  0  0  0  0  0  0
  1  5  1  0
  5  8  1  0
  1  2  1  0
  1  3  1  0
  1  4  1  0
  5  6  1  0
  5  7  1  0
  8  9  1  0
  8 10  1  0
  8 11  1  0
 12 16  1  0
 16 17  2  0
 17 19  1  0
 19 21  2  0
 21 23  1  0
 23 25  2  0
 25 16  1  0
 12 13  1  0
 12 14  1  0
 12 15  1  0
 17 18  1  0
 19 20  1  0
 21 22  1  0
 23 24  1  0
 25 26  1  0
M  CHG  1   8   1
M  END
>  <PDB_ID>  (355) 
pdb1egw

>  <RESIDUE_NAME>  (355) 
LYS   PHE

>  <FRAG_NAME>  (355) 
ETAM   MBZ

>  <FRAG_ATOM_NUM>  (355) 
fragi: 11  fragj: 15

>  <atom.prop.CHAIN_ID>  (355) 
A A A A A A A A A A A Z Z Z Z Z Z Z Z Z Z Z Z Z Z Z

>  <atom.prop.IS_HEAVY_ATOM>  (355) 
1 0 0 0 1 0 0 1 0 0 0 1 0 0 0 1 1 0 1 0 1 0 1 0 1 0

>  <DIFUSE_FUNC_ATOM>  (355) 
n/a

>  <FINAL_SINGLE_POINT_ENERGY>  (355) 
0

>  <NONCOV_INTER_ENERGY_QM>  (355) 
0

>  <FF_Energy>  (355) 
-4.79

>  <QM_Energy>  (355) 
-10.48

>  <source>  (355) 
ETAM_MBZ

>  <Index>  (355) 
3352

$$$$
ETAM-pdb1egw-D-LYS-25:MBZ-pdb1egw-D-PHE-55
     RDKit          3D

 26 25  0  0  0  0  0  0  0  0999 V2000
    0.4371    2.1162   -3.5995 C   0  0  0  0  0  0  0  0  0  0  0  0
    0.6305    2.7335   -2.8342 H   0  0  0  0  0  0  0  0  0  0  0  0
   -0.5470    1.9316   -3.6333 H   0  0  0  0  0  0  0  0  0  0  0  0
    0.7247    2.6165   -4.5242 H   0  0  0  0  0  0  0  0  0  0  0  0
    1.1703    0.8144   -3.3734 C   0  0  0  0  0  0  0  0  0  0  0  0
    0.8419    0.3897   -2.5089 H   0  0  0  0  0  0  0  0  0  0  0  0
    0.9418    0.1650   -4.1226 H   0  0  0  0  0  0  0  0  0  0  0  0
    2.6831    0.9196   -3.2949 N   0  0  0  0  0  4  0  0  0  0  0  0
    2.9174    1.6599   -2.6735 H   0  0  0  0  0  0  0  0  0  0  0  0
    3.0435    0.0569   -2.9565 H   0  0  0  0  0  0  0  0  0  0  0  0
    3.0353    1.1073   -4.2061 H   0  0  0  0  0  0  0  0  0  0  0  0
   -0.0280    2.8853    0.0451 C   0  0  0  0  0  0  0  0  0  0  0  0
   -0.8225    3.2046   -0.4538 H   0  0  0  0  0  0  0  0  0  0  0  0
    0.8078    3.2234   -0.3678 H   0  0  0  0  0  0  0  0  0  0  0  0
   -0.0857    3.2924    1.0546 H   0  0  0  0  0  0  0  0  0  0  0  0
   -0.0088    1.4045   -0.0014 C   0  0  0  0  0  0  0  0  0  0  0  0
   -1.1920    0.6948    0.0003 C   0  0  0  0  0  0  0  0  0  0  0  0
   -2.0679    1.1719    0.0004 H   0  0  0  0  0  0  0  0  0  0  0  0
   -1.1997   -0.7157    0.0000 C   0  0  0  0  0  0  0  0  0  0  0  0
   -2.0730   -1.2010    0.0012 H   0  0  0  0  0  0  0  0  0  0  0  0
    0.0081   -1.4050    0.0001 C   0  0  0  0  0  0  0  0  0  0  0  0
    0.0173   -2.3983   -0.0002 H   0  0  0  0  0  0  0  0  0  0  0  0
    1.1997   -0.6853   -0.0000 C   0  0  0  0  0  0  0  0  0  0  0  0
    2.0900   -1.1779    0.0012 H   0  0  0  0  0  0  0  0  0  0  0  0
    1.1928    0.7067    0.0010 C   0  0  0  0  0  0  0  0  0  0  0  0
    2.0571    1.2054    0.0023 H   0  0  0  0  0  0  0  0  0  0  0  0
  1  5  1  0
  5  8  1  0
  1  2  1  0
  1  3  1  0
  1  4  1  0
  5  6  1  0
  5  7  1  0
  8  9  1  0
  8 10  1  0
  8 11  1  0
 12 16  1  0
 16 17  2  0
 17 19  1  0
 19 21  2  0
 21 23  1  0
 23 25  2  0
 25 16  1  0
 12 13  1  0
 12 14  1  0
 12 15  1  0
 17 18  1  0
 19 20  1  0
 21 22  1  0
 23 24  1  0
 25 26  1  0
M  CHG  1   8   1
M  END
>  <PDB_ID>  (356) 
pdb1egw

>  <RESIDUE_NAME>  (356) 
LYS   PHE

>  <FRAG_NAME>  (356) 
ETAM   MBZ

>  <FRAG_ATOM_NUM>  (356) 
fragi: 11  fragj: 15

>  <atom.prop.CHAIN_ID>  (356) 
A A A A A A A A A A A Z Z Z Z Z Z Z Z Z Z Z Z Z Z Z

>  <atom.prop.IS_HEAVY_ATOM>  (356) 
1 0 0 0 1 0 0 1 0 0 0 1 0 0 0 1 1 0 1 0 1 0 1 0 1 0

>  <DIFUSE_FUNC_ATOM>  (356) 
n/a

>  <FINAL_SINGLE_POINT_ENERGY>  (356) 
0

>  <NONCOV_INTER_ENERGY_QM>  (356) 
0

>  <FF_Energy>  (356) 
-4.02

>  <QM_Energy>  (356) 
-9.43

>  <source>  (356) 
ETAM_MBZ

>  <Index>  (356) 
3356

$$$$
ETAM-pdb1egz-B-LYS-271:MBZ-pdb1egz-B-PHE-38
     RDKit          3D

 26 25  0  0  0  0  0  0  0  0999 V2000
    4.6690   -3.9901    2.4630 C   0  0  0  0  0  0  0  0  0  0  0  0
    3.9432   -4.5488    2.0886 H   0  0  0  0  0  0  0  0  0  0  0  0
    4.9420   -4.3101    3.3585 H   0  0  0  0  0  0  0  0  0  0  0  0
    5.5285   -4.0328    1.7940 H   0  0  0  0  0  0  0  0  0  0  0  0
    4.1836   -2.5683    2.5776 C   0  0  0  0  0  0  0  0  0  0  0  0
    3.4104   -2.5321    3.2054 H   0  0  0  0  0  0  0  0  0  0  0  0
    4.9235   -1.9920    2.9154 H   0  0  0  0  0  0  0  0  0  0  0  0
    3.7512   -2.0748    1.2424 N   0  0  0  0  0  4  0  0  0  0  0  0
    4.4019   -1.3900    0.9146 H   0  0  0  0  0  0  0  0  0  0  0  0
    3.7194   -2.8397    0.6003 H   0  0  0  0  0  0  0  0  0  0  0  0
    2.8427   -1.6632    1.3184 H   0  0  0  0  0  0  0  0  0  0  0  0
    0.0050    2.9144   -0.0454 C   0  0  0  0  0  0  0  0  0  0  0  0
   -0.7892    3.2049   -0.5580 H   0  0  0  0  0  0  0  0  0  0  0  0
    0.8426    3.2024   -0.4865 H   0  0  0  0  0  0  0  0  0  0  0  0
   -0.0368    3.3864    0.9362 H   0  0  0  0  0  0  0  0  0  0  0  0
   -0.0002    1.4081   -0.0002 C   0  0  0  0  0  0  0  0  0  0  0  0
   -1.1980    0.6988    0.0008 C   0  0  0  0  0  0  0  0  0  0  0  0
   -2.0646    1.1848    0.0010 H   0  0  0  0  0  0  0  0  0  0  0  0
   -1.2022   -0.7003    0.0000 C   0  0  0  0  0  0  0  0  0  0  0  0
   -2.0783   -1.1915    0.0023 H   0  0  0  0  0  0  0  0  0  0  0  0
    0.0020   -1.3996   -0.0022 C   0  0  0  0  0  0  0  0  0  0  0  0
   -0.0030   -2.3967   -0.0059 H   0  0  0  0  0  0  0  0  0  0  0  0
    1.2022   -0.7016   -0.0000 C   0  0  0  0  0  0  0  0  0  0  0  0
    2.0852   -1.1957    0.0022 H   0  0  0  0  0  0  0  0  0  0  0  0
    1.1963    0.6945    0.0015 C   0  0  0  0  0  0  0  0  0  0  0  0
    2.0659    1.1887    0.0031 H   0  0  0  0  0  0  0  0  0  0  0  0
  1  5  1  0
  5  8  1  0
  1  2  1  0
  1  3  1  0
  1  4  1  0
  5  6  1  0
  5  7  1  0
  8  9  1  0
  8 10  1  0
  8 11  1  0
 12 16  1  0
 16 17  2  0
 17 19  1  0
 19 21  2  0
 21 23  1  0
 23 25  2  0
 25 16  1  0
 12 13  1  0
 12 14  1  0
 12 15  1  0
 17 18  1  0
 19 20  1  0
 21 22  1  0
 23 24  1  0
 25 26  1  0
M  CHG  1   8   1
M  END
>  <PDB_ID>  (357) 
pdb1egz

>  <RESIDUE_NAME>  (357) 
LYS   PHE

>  <FRAG_NAME>  (357) 
ETAM   MBZ

>  <FRAG_ATOM_NUM>  (357) 
fragi: 11  fragj: 15

>  <atom.prop.CHAIN_ID>  (357) 
A A A A A A A A A A A Z Z Z Z Z Z Z Z Z Z Z Z Z Z Z

>  <atom.prop.IS_HEAVY_ATOM>  (357) 
1 0 0 0 1 0 0 1 0 0 0 1 0 0 0 1 1 0 1 0 1 0 1 0 1 0

>  <DIFUSE_FUNC_ATOM>  (357) 
n/a

>  <FINAL_SINGLE_POINT_ENERGY>  (357) 
0

>  <NONCOV_INTER_ENERGY_QM>  (357) 
0

>  <FF_Energy>  (357) 
5.77

>  <QM_Energy>  (357) 
-2.25

>  <source>  (357) 
ETAM_MBZ

>  <Index>  (357) 
3364

$$$$
ETAM-pdb2f9f-A-LYS-157:MBZ-pdb2f9f-A-PHE-9
     RDKit          3D

 26 25  0  0  0  0  0  0  0  0999 V2000
   -0.3370   -0.7443   -4.6973 C   0  0  0  0  0  0  0  0  0  0  0  0
   -0.7228   -1.4618   -4.1293 H   0  0  0  0  0  0  0  0  0  0  0  0
    0.2034   -1.1349   -5.4336 H   0  0  0  0  0  0  0  0  0  0  0  0
   -1.1500   -0.1591   -5.1270 H   0  0  0  0  0  0  0  0  0  0  0  0
    0.5645    0.1235   -3.8393 C   0  0  0  0  0  0  0  0  0  0  0  0
    0.9430    0.8627   -4.4086 H   0  0  0  0  0  0  0  0  0  0  0  0
    0.0147    0.5384   -3.1050 H   0  0  0  0  0  0  0  0  0  0  0  0
    1.6829   -0.6460   -3.2345 N   0  0  0  0  0  4  0  0  0  0  0  0
    2.2144   -0.0460   -2.6377 H   0  0  0  0  0  0  0  0  0  0  0  0
    1.3133   -1.4060   -2.7004 H   0  0  0  0  0  0  0  0  0  0  0  0
    2.2716   -1.0026   -3.9599 H   0  0  0  0  0  0  0  0  0  0  0  0
    0.0070    2.9033    0.0542 C   0  0  0  0  0  0  0  0  0  0  0  0
   -0.7311    3.2339   -0.5136 H   0  0  0  0  0  0  0  0  0  0  0  0
    0.8848    3.2182   -0.2743 H   0  0  0  0  0  0  0  0  0  0  0  0
   -0.1375    3.3059    1.0568 H   0  0  0  0  0  0  0  0  0  0  0  0
    0.0008    1.4014   -0.0008 C   0  0  0  0  0  0  0  0  0  0  0  0
   -1.1966    0.6955   -0.0000 C   0  0  0  0  0  0  0  0  0  0  0  0
   -2.0630    1.1870   -0.0005 H   0  0  0  0  0  0  0  0  0  0  0  0
   -1.2038   -0.6946   -0.0000 C   0  0  0  0  0  0  0  0  0  0  0  0
   -2.0808   -1.1875   -0.0003 H   0  0  0  0  0  0  0  0  0  0  0  0
   -0.0020   -1.3953    0.0022 C   0  0  0  0  0  0  0  0  0  0  0  0
   -0.0073   -2.3920    0.0052 H   0  0  0  0  0  0  0  0  0  0  0  0
    1.2038   -0.6988   -0.0000 C   0  0  0  0  0  0  0  0  0  0  0  0
    2.0823   -1.1977    0.0007 H   0  0  0  0  0  0  0  0  0  0  0  0
    1.1978    0.6918   -0.0013 C   0  0  0  0  0  0  0  0  0  0  0  0
    2.0659    1.1890   -0.0034 H   0  0  0  0  0  0  0  0  0  0  0  0
  1  5  1  0
  5  8  1  0
  1  2  1  0
  1  3  1  0
  1  4  1  0
  5  6  1  0
  5  7  1  0
  8  9  1  0
  8 10  1  0
  8 11  1  0
 12 16  1  0
 16 17  2  0
 17 19  1  0
 19 21  2  0
 21 23  1  0
 23 25  2  0
 25 16  1  0
 12 13  1  0
 12 14  1  0
 12 15  1  0
 17 18  1  0
 19 20  1  0
 21 22  1  0
 23 24  1  0
 25 26  1  0
M  CHG  1   8   1
M  END
>  <PDB_ID>  (358) 
pdb2f9f

>  <RESIDUE_NAME>  (358) 
LYS   PHE

>  <FRAG_NAME>  (358) 
ETAM   MBZ

>  <FRAG_ATOM_NUM>  (358) 
fragi: 11  fragj: 15

>  <atom.prop.CHAIN_ID>  (358) 
A A A A A A A A A A A Z Z Z Z Z Z Z Z Z Z Z Z Z Z Z

>  <atom.prop.IS_HEAVY_ATOM>  (358) 
1 0 0 0 1 0 0 1 0 0 0 1 0 0 0 1 1 0 1 0 1 0 1 0 1 0

>  <DIFUSE_FUNC_ATOM>  (358) 
n/a

>  <FINAL_SINGLE_POINT_ENERGY>  (358) 
0

>  <NONCOV_INTER_ENERGY_QM>  (358) 
0

>  <FF_Energy>  (358) 
-6.35

>  <QM_Energy>  (358) 
-13.15

>  <source>  (358) 
ETAM_MBZ

>  <Index>  (358) 
3371

$$$$
ETAM-pdb1ehi-B-LYS-404:MBZ-pdb1ehi-B-PHE-752
     RDKit          3D

 26 25  0  0  0  0  0  0  0  0999 V2000
    0.7085   -4.2828    3.7780 C   0  0  0  0  0  0  0  0  0  0  0  0
   -0.0088   -4.9664    3.8407 H   0  0  0  0  0  0  0  0  0  0  0  0
    1.4308   -4.4729    4.4314 H   0  0  0  0  0  0  0  0  0  0  0  0
    1.1246   -4.2940    2.7706 H   0  0  0  0  0  0  0  0  0  0  0  0
    0.1022   -2.9168    4.1156 C   0  0  0  0  0  0  0  0  0  0  0  0
   -0.2557   -2.9492    5.0604 H   0  0  0  0  0  0  0  0  0  0  0  0
    0.8382   -2.2232    4.0905 H   0  0  0  0  0  0  0  0  0  0  0  0
   -0.9966   -2.4926    3.1938 N   0  0  0  0  0  4  0  0  0  0  0  0
   -0.7741   -1.5990    2.8077 H   0  0  0  0  0  0  0  0  0  0  0  0
   -1.0875   -3.1643    2.4603 H   0  0  0  0  0  0  0  0  0  0  0  0
   -1.8509   -2.4353    3.7073 H   0  0  0  0  0  0  0  0  0  0  0  0
   -0.0009    2.9235   -0.0010 C   0  0  0  0  0  0  0  0  0  0  0  0
    0.9265    3.2272   -0.1554 H   0  0  0  0  0  0  0  0  0  0  0  0
   -0.3396    3.2268    0.8764 H   0  0  0  0  0  0  0  0  0  0  0  0
   -0.6300    3.3669   -0.7729 H   0  0  0  0  0  0  0  0  0  0  0  0
   -0.0000    1.4097    0.0002 C   0  0  0  0  0  0  0  0  0  0  0  0
   -1.1985    0.6992    0.0006 C   0  0  0  0  0  0  0  0  0  0  0  0
   -2.0652    1.1902   -0.0004 H   0  0  0  0  0  0  0  0  0  0  0  0
   -1.2074   -0.6955   -0.0000 C   0  0  0  0  0  0  0  0  0  0  0  0
   -2.0855   -1.1855    0.0016 H   0  0  0  0  0  0  0  0  0  0  0  0
   -0.0050   -1.4004   -0.0012 C   0  0  0  0  0  0  0  0  0  0  0  0
   -0.0142   -2.3977   -0.0034 H   0  0  0  0  0  0  0  0  0  0  0  0
    1.2074   -0.7088   -0.0000 C   0  0  0  0  0  0  0  0  0  0  0  0
    2.0835   -1.2044    0.0022 H   0  0  0  0  0  0  0  0  0  0  0  0
    1.2035    0.6958    0.0005 C   0  0  0  0  0  0  0  0  0  0  0  0
    2.0706    1.1879   -0.0002 H   0  0  0  0  0  0  0  0  0  0  0  0
  1  5  1  0
  5  8  1  0
  1  2  1  0
  1  3  1  0
  1  4  1  0
  5  6  1  0
  5  7  1  0
  8  9  1  0
  8 10  1  0
  8 11  1  0
 12 16  1  0
 16 17  2  0
 17 19  1  0
 19 21  2  0
 21 23  1  0
 23 25  2  0
 25 16  1  0
 12 13  1  0
 12 14  1  0
 12 15  1  0
 17 18  1  0
 19 20  1  0
 21 22  1  0
 23 24  1  0
 25 26  1  0
M  CHG  1   8   1
M  END
>  <PDB_ID>  (359) 
pdb1ehi

>  <RESIDUE_NAME>  (359) 
LYS   PHE

>  <FRAG_NAME>  (359) 
ETAM   MBZ

>  <FRAG_ATOM_NUM>  (359) 
fragi: 11  fragj: 15

>  <atom.prop.CHAIN_ID>  (359) 
A A A A A A A A A A A Z Z Z Z Z Z Z Z Z Z Z Z Z Z Z

>  <atom.prop.IS_HEAVY_ATOM>  (359) 
1 0 0 0 1 0 0 1 0 0 0 1 0 0 0 1 1 0 1 0 1 0 1 0 1 0

>  <DIFUSE_FUNC_ATOM>  (359) 
n/a

>  <FINAL_SINGLE_POINT_ENERGY>  (359) 
0

>  <NONCOV_INTER_ENERGY_QM>  (359) 
0

>  <FF_Energy>  (359) 
-3.7

>  <QM_Energy>  (359) 
-9.69

>  <source>  (359) 
ETAM_MBZ

>  <Index>  (359) 
3376

$$$$
ETAM-pdb2fa4-A-LYS-97:MBZ-pdb2fa4-A-PHE-44
     RDKit          3D

 26 25  0  0  0  0  0  0  0  0999 V2000
   -2.6930   -1.9430    2.6856 C   0  0  0  0  0  0  0  0  0  0  0  0
   -2.3218   -1.6738    1.8265 H   0  0  0  0  0  0  0  0  0  0  0  0
   -2.8232   -2.9032    2.7777 H   0  0  0  0  0  0  0  0  0  0  0  0
   -2.0338   -1.5954    3.4812 H   0  0  0  0  0  0  0  0  0  0  0  0
   -4.0870   -1.2437    2.8548 C   0  0  0  0  0  0  0  0  0  0  0  0
   -4.6355   -1.7670    3.4717 H   0  0  0  0  0  0  0  0  0  0  0  0
   -3.9495   -0.3216    3.1471 H   0  0  0  0  0  0  0  0  0  0  0  0
   -4.8057   -1.2150    1.4653 N   0  0  0  0  0  4  0  0  0  0  0  0
   -5.4521   -1.9609    1.4540 H   0  0  0  0  0  0  0  0  0  0  0  0
   -5.2588   -0.3413    1.3877 H   0  0  0  0  0  0  0  0  0  0  0  0
   -4.1106   -1.3265    0.7728 H   0  0  0  0  0  0  0  0  0  0  0  0
    0.0505    2.9349    0.0397 C   0  0  0  0  0  0  0  0  0  0  0  0
    0.8477    3.2236   -0.4704 H   0  0  0  0  0  0  0  0  0  0  0  0
    0.1170    3.2039    0.9904 H   0  0  0  0  0  0  0  0  0  0  0  0
   -0.8225    3.4258   -0.3906 H   0  0  0  0  0  0  0  0  0  0  0  0
    0.0032    1.4177   -0.0043 C   0  0  0  0  0  0  0  0  0  0  0  0
   -1.2072    0.7264    0.0187 C   0  0  0  0  0  0  0  0  0  0  0  0
   -2.0643    1.2131    0.0468 H   0  0  0  0  0  0  0  0  0  0  0  0
   -1.2092   -0.6775   -0.0000 C   0  0  0  0  0  0  0  0  0  0  0  0
   -2.0914   -1.1669    0.0022 H   0  0  0  0  0  0  0  0  0  0  0  0
   -0.0064   -1.4025   -0.0198 C   0  0  0  0  0  0  0  0  0  0  0  0
   -0.0346   -2.3983   -0.0482 H   0  0  0  0  0  0  0  0  0  0  0  0
    1.2092   -0.7282    0.0000 C   0  0  0  0  0  0  0  0  0  0  0  0
    2.0782   -1.2325    0.0120 H   0  0  0  0  0  0  0  0  0  0  0  0
    1.2105    0.6642    0.0053 C   0  0  0  0  0  0  0  0  0  0  0  0
    2.0806    1.1624    0.0152 H   0  0  0  0  0  0  0  0  0  0  0  0
  1  5  1  0
  5  8  1  0
  1  2  1  0
  1  3  1  0
  1  4  1  0
  5  6  1  0
  5  7  1  0
  8  9  1  0
  8 10  1  0
  8 11  1  0
 12 16  1  0
 16 17  2  0
 17 19  1  0
 19 21  2  0
 21 23  1  0
 23 25  2  0
 25 16  1  0
 12 13  1  0
 12 14  1  0
 12 15  1  0
 17 18  1  0
 19 20  1  0
 21 22  1  0
 23 24  1  0
 25 26  1  0
M  CHG  1   8   1
M  END
>  <PDB_ID>  (360) 
pdb2fa4

>  <RESIDUE_NAME>  (360) 
LYS   PHE

>  <FRAG_NAME>  (360) 
ETAM   MBZ

>  <FRAG_ATOM_NUM>  (360) 
fragi: 11  fragj: 15

>  <atom.prop.CHAIN_ID>  (360) 
A A A A A A A A A A A Z Z Z Z Z Z Z Z Z Z Z Z Z Z Z

>  <atom.prop.IS_HEAVY_ATOM>  (360) 
1 0 0 0 1 0 0 1 0 0 0 1 0 0 0 1 1 0 1 0 1 0 1 0 1 0

>  <DIFUSE_FUNC_ATOM>  (360) 
n/a

>  <FINAL_SINGLE_POINT_ENERGY>  (360) 
0

>  <NONCOV_INTER_ENERGY_QM>  (360) 
0

>  <FF_Energy>  (360) 
3.45

>  <QM_Energy>  (360) 
-2.28

>  <source>  (360) 
ETAM_MBZ

>  <Index>  (360) 
3387

$$$$
ETAM-pdb2faw-B-LYS-100:MBZ-pdb2faw-B-PHE-136
     RDKit          3D

 26 25  0  0  0  0  0  0  0  0999 V2000
    3.7333   -4.4135    1.5065 C   0  0  0  0  0  0  0  0  0  0  0  0
    3.8939   -5.2822    1.0628 H   0  0  0  0  0  0  0  0  0  0  0  0
    2.8428   -4.0502    1.2775 H   0  0  0  0  0  0  0  0  0  0  0  0
    3.7993   -4.5459    2.5865 H   0  0  0  0  0  0  0  0  0  0  0  0
    4.7974   -3.4229    1.0298 C   0  0  0  0  0  0  0  0  0  0  0  0
    5.2965   -3.0770    1.8292 H   0  0  0  0  0  0  0  0  0  0  0  0
    5.4432   -3.9069    0.4319 H   0  0  0  0  0  0  0  0  0  0  0  0
    4.2085   -2.2713    0.2840 N   0  0  0  0  0  4  0  0  0  0  0  0
    4.9206   -1.5915    0.1125 H   0  0  0  0  0  0  0  0  0  0  0  0
    3.8370   -2.5962   -0.5841 H   0  0  0  0  0  0  0  0  0  0  0  0
    3.4784   -1.8633    0.8313 H   0  0  0  0  0  0  0  0  0  0  0  0
    0.0025    2.8721   -0.0167 C   0  0  0  0  0  0  0  0  0  0  0  0
    0.9227    3.1882    0.1543 H   0  0  0  0  0  0  0  0  0  0  0  0
   -0.6248    3.1954    0.6757 H   0  0  0  0  0  0  0  0  0  0  0  0
   -0.3183    3.2793   -0.9755 H   0  0  0  0  0  0  0  0  0  0  0  0
    0.0027    1.3925    0.0049 C   0  0  0  0  0  0  0  0  0  0  0  0
   -1.2020    0.6876   -0.0010 C   0  0  0  0  0  0  0  0  0  0  0  0
   -2.0615    1.1855   -0.0070 H   0  0  0  0  0  0  0  0  0  0  0  0
   -1.2017   -0.6879    0.0000 C   0  0  0  0  0  0  0  0  0  0  0  0
   -2.0768   -1.1915    0.0001 H   0  0  0  0  0  0  0  0  0  0  0  0
    0.0006   -1.3828    0.0031 C   0  0  0  0  0  0  0  0  0  0  0  0
   -0.0088   -2.3863    0.0075 H   0  0  0  0  0  0  0  0  0  0  0  0
    1.2017   -0.6975    0.0000 C   0  0  0  0  0  0  0  0  0  0  0  0
    2.0805   -1.1980    0.0039 H   0  0  0  0  0  0  0  0  0  0  0  0
    1.1987    0.6881   -0.0070 C   0  0  0  0  0  0  0  0  0  0  0  0
    2.0661    1.1860   -0.0212 H   0  0  0  0  0  0  0  0  0  0  0  0
  1  5  1  0
  5  8  1  0
  1  2  1  0
  1  3  1  0
  1  4  1  0
  5  6  1  0
  5  7  1  0
  8  9  1  0
  8 10  1  0
  8 11  1  0
 12 16  1  0
 16 17  2  0
 17 19  1  0
 19 21  2  0
 21 23  1  0
 23 25  2  0
 25 16  1  0
 12 13  1  0
 12 14  1  0
 12 15  1  0
 17 18  1  0
 19 20  1  0
 21 22  1  0
 23 24  1  0
 25 26  1  0
M  CHG  1   8   1
M  END
>  <PDB_ID>  (361) 
pdb2faw

>  <RESIDUE_NAME>  (361) 
LYS   PHE

>  <FRAG_NAME>  (361) 
ETAM   MBZ

>  <FRAG_ATOM_NUM>  (361) 
fragi: 11  fragj: 15

>  <atom.prop.CHAIN_ID>  (361) 
A A A A A A A A A A A Z Z Z Z Z Z Z Z Z Z Z Z Z Z Z

>  <atom.prop.IS_HEAVY_ATOM>  (361) 
1 0 0 0 1 0 0 1 0 0 0 1 0 0 0 1 1 0 1 0 1 0 1 0 1 0

>  <DIFUSE_FUNC_ATOM>  (361) 
n/a

>  <FINAL_SINGLE_POINT_ENERGY>  (361) 
0

>  <NONCOV_INTER_ENERGY_QM>  (361) 
0

>  <FF_Energy>  (361) 
3.45

>  <QM_Energy>  (361) 
-2.05

>  <source>  (361) 
ETAM_MBZ

>  <Index>  (361) 
3399

$$$$
ETAM-pdb2fb9-A-LYS-262:MBZ-pdb2fb9-A-PHE-210
     RDKit          3D

 26 25  0  0  0  0  0  0  0  0999 V2000
    1.1398   -2.7842    4.5866 C   0  0  0  0  0  0  0  0  0  0  0  0
    2.1221   -2.8242    4.7307 H   0  0  0  0  0  0  0  0  0  0  0  0
    0.6556   -2.9149    5.4438 H   0  0  0  0  0  0  0  0  0  0  0  0
    0.8838   -1.8044    4.1835 H   0  0  0  0  0  0  0  0  0  0  0  0
    0.7426   -3.8970    3.6287 C   0  0  0  0  0  0  0  0  0  0  0  0
    1.1185   -4.7609    3.9639 H   0  0  0  0  0  0  0  0  0  0  0  0
   -0.2558   -3.9573    3.6003 H   0  0  0  0  0  0  0  0  0  0  0  0
    1.2596   -3.6280    2.2695 N   0  0  0  0  0  4  0  0  0  0  0  0
    2.2286   -3.8755    2.2235 H   0  0  0  0  0  0  0  0  0  0  0  0
    0.7474   -4.1704    1.6015 H   0  0  0  0  0  0  0  0  0  0  0  0
    1.1556   -2.6551    2.0570 H   0  0  0  0  0  0  0  0  0  0  0  0
    0.0058    2.8848    0.0901 C   0  0  0  0  0  0  0  0  0  0  0  0
   -0.7261    3.2353   -0.4744 H   0  0  0  0  0  0  0  0  0  0  0  0
    0.8862    3.2134   -0.2149 H   0  0  0  0  0  0  0  0  0  0  0  0
   -0.1519    3.2565    1.1026 H   0  0  0  0  0  0  0  0  0  0  0  0
    0.0003    1.4003    0.0010 C   0  0  0  0  0  0  0  0  0  0  0  0
   -1.1999    0.6938   -0.0007 C   0  0  0  0  0  0  0  0  0  0  0  0
   -2.0643    1.1875   -0.0034 H   0  0  0  0  0  0  0  0  0  0  0  0
   -1.2046   -0.6934   -0.0000 C   0  0  0  0  0  0  0  0  0  0  0  0
   -2.0793   -1.1900    0.0009 H   0  0  0  0  0  0  0  0  0  0  0  0
    0.0009   -1.3927    0.0020 C   0  0  0  0  0  0  0  0  0  0  0  0
   -0.0075   -2.3919    0.0044 H   0  0  0  0  0  0  0  0  0  0  0  0
    1.2046   -0.7003    0.0000 C   0  0  0  0  0  0  0  0  0  0  0  0
    2.0834   -1.1972    0.0019 H   0  0  0  0  0  0  0  0  0  0  0  0
    1.1987    0.6922   -0.0023 C   0  0  0  0  0  0  0  0  0  0  0  0
    2.0657    1.1893   -0.0071 H   0  0  0  0  0  0  0  0  0  0  0  0
  1  5  1  0
  5  8  1  0
  1  2  1  0
  1  3  1  0
  1  4  1  0
  5  6  1  0
  5  7  1  0
  8  9  1  0
  8 10  1  0
  8 11  1  0
 12 16  1  0
 16 17  2  0
 17 19  1  0
 19 21  2  0
 21 23  1  0
 23 25  2  0
 25 16  1  0
 12 13  1  0
 12 14  1  0
 12 15  1  0
 17 18  1  0
 19 20  1  0
 21 22  1  0
 23 24  1  0
 25 26  1  0
M  CHG  1   8   1
M  END
>  <PDB_ID>  (362) 
pdb2fb9

>  <RESIDUE_NAME>  (362) 
LYS   PHE

>  <FRAG_NAME>  (362) 
ETAM   MBZ

>  <FRAG_ATOM_NUM>  (362) 
fragi: 11  fragj: 15

>  <atom.prop.CHAIN_ID>  (362) 
A A A A A A A A A A A Z Z Z Z Z Z Z Z Z Z Z Z Z Z Z

>  <atom.prop.IS_HEAVY_ATOM>  (362) 
1 0 0 0 1 0 0 1 0 0 0 1 0 0 0 1 1 0 1 0 1 0 1 0 1 0

>  <DIFUSE_FUNC_ATOM>  (362) 
n/a

>  <FINAL_SINGLE_POINT_ENERGY>  (362) 
0

>  <NONCOV_INTER_ENERGY_QM>  (362) 
0

>  <FF_Energy>  (362) 
-1.11

>  <QM_Energy>  (362) 
-7.71

>  <source>  (362) 
ETAM_MBZ

>  <Index>  (362) 
3408

$$$$
ETAM-pdb1ej3-A-LYS-39:MBZ-pdb1ej3-A-PHE-22
     RDKit          3D

 26 25  0  0  0  0  0  0  0  0999 V2000
    2.5364   -3.4433    4.1642 C   0  0  0  0  0  0  0  0  0  0  0  0
    2.0323   -2.8212    4.7593 H   0  0  0  0  0  0  0  0  0  0  0  0
    3.4775   -3.1298    4.0637 H   0  0  0  0  0  0  0  0  0  0  0  0
    2.5411   -4.4356    4.6153 H   0  0  0  0  0  0  0  0  0  0  0  0
    1.8743   -3.4317    2.7842 C   0  0  0  0  0  0  0  0  0  0  0  0
    2.1336   -2.5735    2.3145 H   0  0  0  0  0  0  0  0  0  0  0  0
    2.2501   -4.2009    2.2445 H   0  0  0  0  0  0  0  0  0  0  0  0
    0.3988   -3.5397    2.8276 N   0  0  0  0  0  4  0  0  0  0  0  0
    0.1214   -4.4628    2.5582 H   0  0  0  0  0  0  0  0  0  0  0  0
    0.0756   -3.3539    3.7567 H   0  0  0  0  0  0  0  0  0  0  0  0
   -0.0051   -2.8754    2.1968 H   0  0  0  0  0  0  0  0  0  0  0  0
    0.0107    2.9182   -0.0317 C   0  0  0  0  0  0  0  0  0  0  0  0
   -0.6253    3.2135   -0.7299 H   0  0  0  0  0  0  0  0  0  0  0  0
    0.9321    3.2121   -0.2401 H   0  0  0  0  0  0  0  0  0  0  0  0
   -0.2844    3.3877    0.9067 H   0  0  0  0  0  0  0  0  0  0  0  0
    0.0000    1.4106   -0.0012 C   0  0  0  0  0  0  0  0  0  0  0  0
   -1.1994    0.7034    0.0023 C   0  0  0  0  0  0  0  0  0  0  0  0
   -2.0653    1.1887    0.0053 H   0  0  0  0  0  0  0  0  0  0  0  0
   -1.2052   -0.6996    0.0000 C   0  0  0  0  0  0  0  0  0  0  0  0
   -2.0822   -1.1882    0.0013 H   0  0  0  0  0  0  0  0  0  0  0  0
   -0.0007   -1.4043   -0.0019 C   0  0  0  0  0  0  0  0  0  0  0  0
   -0.0077   -2.3993   -0.0056 H   0  0  0  0  0  0  0  0  0  0  0  0
    1.2052   -0.7059   -0.0000 C   0  0  0  0  0  0  0  0  0  0  0  0
    2.0847   -1.1995    0.0023 H   0  0  0  0  0  0  0  0  0  0  0  0
    1.2001    0.6958    0.0008 C   0  0  0  0  0  0  0  0  0  0  0  0
    2.0684    1.1889    0.0022 H   0  0  0  0  0  0  0  0  0  0  0  0
  1  5  1  0
  5  8  1  0
  1  2  1  0
  1  3  1  0
  1  4  1  0
  5  6  1  0
  5  7  1  0
  8  9  1  0
  8 10  1  0
  8 11  1  0
 12 16  1  0
 16 17  2  0
 17 19  1  0
 19 21  2  0
 21 23  1  0
 23 25  2  0
 25 16  1  0
 12 13  1  0
 12 14  1  0
 12 15  1  0
 17 18  1  0
 19 20  1  0
 21 22  1  0
 23 24  1  0
 25 26  1  0
M  CHG  1   8   1
M  END
>  <PDB_ID>  (363) 
pdb1ej3

>  <RESIDUE_NAME>  (363) 
LYS   PHE

>  <FRAG_NAME>  (363) 
ETAM   MBZ

>  <FRAG_ATOM_NUM>  (363) 
fragi: 11  fragj: 15

>  <atom.prop.CHAIN_ID>  (363) 
A A A A A A A A A A A Z Z Z Z Z Z Z Z Z Z Z Z Z Z Z

>  <atom.prop.IS_HEAVY_ATOM>  (363) 
1 0 0 0 1 0 0 1 0 0 0 1 0 0 0 1 1 0 1 0 1 0 1 0 1 0

>  <DIFUSE_FUNC_ATOM>  (363) 
n/a

>  <FINAL_SINGLE_POINT_ENERGY>  (363) 
0

>  <NONCOV_INTER_ENERGY_QM>  (363) 
0

>  <FF_Energy>  (363) 
-2.02

>  <QM_Energy>  (363) 
-8.56

>  <source>  (363) 
ETAM_MBZ

>  <Index>  (363) 
3412

$$$$
ETAM-pdb1ekb-B-LYS-63:MBZ-pdb1ekb-B-PHE-35
     RDKit          3D

 26 25  0  0  0  0  0  0  0  0999 V2000
   -2.8014   -3.5107    2.8918 C   0  0  0  0  0  0  0  0  0  0  0  0
   -2.9821   -4.4128    3.2768 H   0  0  0  0  0  0  0  0  0  0  0  0
   -3.0576   -3.4941    1.9286 H   0  0  0  0  0  0  0  0  0  0  0  0
   -3.4002   -2.7742    3.4276 H   0  0  0  0  0  0  0  0  0  0  0  0
   -1.3207   -3.2215    3.0050 C   0  0  0  0  0  0  0  0  0  0  0  0
   -1.1438   -2.2855    2.6996 H   0  0  0  0  0  0  0  0  0  0  0  0
   -1.0389   -3.3167    3.9599 H   0  0  0  0  0  0  0  0  0  0  0  0
   -0.5298   -4.1650    2.1675 N   0  0  0  0  0  4  0  0  0  0  0  0
   -1.1518   -4.7842    1.6885 H   0  0  0  0  0  0  0  0  0  0  0  0
    0.0062   -3.6469    1.5013 H   0  0  0  0  0  0  0  0  0  0  0  0
    0.0840   -4.6931    2.7527 H   0  0  0  0  0  0  0  0  0  0  0  0
   -0.0022    2.9058    0.0248 C   0  0  0  0  0  0  0  0  0  0  0  0
   -0.5807    3.2221   -0.7106 H   0  0  0  0  0  0  0  0  0  0  0  0
    0.9297    3.2143   -0.0893 H   0  0  0  0  0  0  0  0  0  0  0  0
   -0.3830    3.3261    0.9557 H   0  0  0  0  0  0  0  0  0  0  0  0
   -0.0004    1.4026    0.0001 C   0  0  0  0  0  0  0  0  0  0  0  0
   -1.1979    0.6952    0.0006 C   0  0  0  0  0  0  0  0  0  0  0  0
   -2.0639    1.1859    0.0003 H   0  0  0  0  0  0  0  0  0  0  0  0
   -1.2045   -0.6970    0.0000 C   0  0  0  0  0  0  0  0  0  0  0  0
   -2.0797   -1.1904    0.0006 H   0  0  0  0  0  0  0  0  0  0  0  0
    0.0011   -1.3953   -0.0000 C   0  0  0  0  0  0  0  0  0  0  0  0
   -0.0045   -2.3938   -0.0010 H   0  0  0  0  0  0  0  0  0  0  0  0
    1.2045   -0.6997    0.0000 C   0  0  0  0  0  0  0  0  0  0  0  0
    2.0846   -1.1960    0.0022 H   0  0  0  0  0  0  0  0  0  0  0  0
    1.1972    0.6943   -0.0006 C   0  0  0  0  0  0  0  0  0  0  0  0
    2.0655    1.1909   -0.0025 H   0  0  0  0  0  0  0  0  0  0  0  0
  1  5  1  0
  5  8  1  0
  1  2  1  0
  1  3  1  0
  1  4  1  0
  5  6  1  0
  5  7  1  0
  8  9  1  0
  8 10  1  0
  8 11  1  0
 12 16  1  0
 16 17  2  0
 17 19  1  0
 19 21  2  0
 21 23  1  0
 23 25  2  0
 25 16  1  0
 12 13  1  0
 12 14  1  0
 12 15  1  0
 17 18  1  0
 19 20  1  0
 21 22  1  0
 23 24  1  0
 25 26  1  0
M  CHG  1   8   1
M  END
>  <PDB_ID>  (364) 
pdb1ekb

>  <RESIDUE_NAME>  (364) 
LYS   PHE

>  <FRAG_NAME>  (364) 
ETAM   MBZ

>  <FRAG_ATOM_NUM>  (364) 
fragi: 11  fragj: 15

>  <atom.prop.CHAIN_ID>  (364) 
A A A A A A A A A A A Z Z Z Z Z Z Z Z Z Z Z Z Z Z Z

>  <atom.prop.IS_HEAVY_ATOM>  (364) 
1 0 0 0 1 0 0 1 0 0 0 1 0 0 0 1 1 0 1 0 1 0 1 0 1 0

>  <DIFUSE_FUNC_ATOM>  (364) 
n/a

>  <FINAL_SINGLE_POINT_ENERGY>  (364) 
0

>  <NONCOV_INTER_ENERGY_QM>  (364) 
0

>  <FF_Energy>  (364) 
-0.69

>  <QM_Energy>  (364) 
-6.69

>  <source>  (364) 
ETAM_MBZ

>  <Index>  (364) 
3436

$$$$
ETAM-pdb1ekj-H-LYS-136:MBZ-pdb1ekj-H-PHE-132
     RDKit          3D

 26 25  0  0  0  0  0  0  0  0999 V2000
   -4.3386   -1.0846    1.3685 C   0  0  0  0  0  0  0  0  0  0  0  0
   -3.5138   -0.9873    0.8200 H   0  0  0  0  0  0  0  0  0  0  0  0
   -4.7563   -1.9734    1.2066 H   0  0  0  0  0  0  0  0  0  0  0  0
   -4.0697   -1.0092    2.4222 H   0  0  0  0  0  0  0  0  0  0  0  0
   -5.3281   -0.0009    0.9547 C   0  0  0  0  0  0  0  0  0  0  0  0
   -6.2190   -0.2001    1.3699 H   0  0  0  0  0  0  0  0  0  0  0  0
   -5.0017    0.8842    1.2976 H   0  0  0  0  0  0  0  0  0  0  0  0
   -5.4842    0.0754   -0.5260 N   0  0  0  0  0  4  0  0  0  0  0  0
   -6.4140   -0.1927   -0.7744 H   0  0  0  0  0  0  0  0  0  0  0  0
   -5.3127    1.0125   -0.8281 H   0  0  0  0  0  0  0  0  0  0  0  0
   -4.8291   -0.5426   -0.9594 H   0  0  0  0  0  0  0  0  0  0  0  0
    0.0034    2.8956    0.0074 C   0  0  0  0  0  0  0  0  0  0  0  0
   -0.7611    3.2097   -0.5377 H   0  0  0  0  0  0  0  0  0  0  0  0
    0.8642    3.2065   -0.3718 H   0  0  0  0  0  0  0  0  0  0  0  0
   -0.0970    3.3303    1.0019 H   0  0  0  0  0  0  0  0  0  0  0  0
    0.0006    1.4033   -0.0008 C   0  0  0  0  0  0  0  0  0  0  0  0
   -1.1933    0.6894    0.0029 C   0  0  0  0  0  0  0  0  0  0  0  0
   -2.0629    1.1787    0.0064 H   0  0  0  0  0  0  0  0  0  0  0  0
   -1.2010   -0.7042   -0.0000 C   0  0  0  0  0  0  0  0  0  0  0  0
   -2.0780   -1.1943   -0.0010 H   0  0  0  0  0  0  0  0  0  0  0  0
   -0.0017   -1.3947    0.0005 C   0  0  0  0  0  0  0  0  0  0  0  0
    0.0007   -2.3940    0.0001 H   0  0  0  0  0  0  0  0  0  0  0  0
    1.2010   -0.6944    0.0000 C   0  0  0  0  0  0  0  0  0  0  0  0
    2.0826   -1.1896    0.0029 H   0  0  0  0  0  0  0  0  0  0  0  0
    1.1943    0.7007   -0.0026 C   0  0  0  0  0  0  0  0  0  0  0  0
    2.0642    1.1947   -0.0066 H   0  0  0  0  0  0  0  0  0  0  0  0
  1  5  1  0
  5  8  1  0
  1  2  1  0
  1  3  1  0
  1  4  1  0
  5  6  1  0
  5  7  1  0
  8  9  1  0
  8 10  1  0
  8 11  1  0
 12 16  1  0
 16 17  2  0
 17 19  1  0
 19 21  2  0
 21 23  1  0
 23 25  2  0
 25 16  1  0
 12 13  1  0
 12 14  1  0
 12 15  1  0
 17 18  1  0
 19 20  1  0
 21 22  1  0
 23 24  1  0
 25 26  1  0
M  CHG  1   8   1
M  END
>  <PDB_ID>  (365) 
pdb1ekj

>  <RESIDUE_NAME>  (365) 
LYS   PHE

>  <FRAG_NAME>  (365) 
ETAM   MBZ

>  <FRAG_ATOM_NUM>  (365) 
fragi: 11  fragj: 15

>  <atom.prop.CHAIN_ID>  (365) 
A A A A A A A A A A A Z Z Z Z Z Z Z Z Z Z Z Z Z Z Z

>  <atom.prop.IS_HEAVY_ATOM>  (365) 
1 0 0 0 1 0 0 1 0 0 0 1 0 0 0 1 1 0 1 0 1 0 1 0 1 0

>  <DIFUSE_FUNC_ATOM>  (365) 
n/a

>  <FINAL_SINGLE_POINT_ENERGY>  (365) 
0

>  <NONCOV_INTER_ENERGY_QM>  (365) 
0

>  <FF_Energy>  (365) 
9.38

>  <QM_Energy>  (365) 
-0.11

>  <source>  (365) 
ETAM_MBZ

>  <Index>  (365) 
3451

$$$$
ETAM-pdb2fcr-A-LYS-141:MBZ-pdb2fcr-A-PHE-123
     RDKit          3D

 26 25  0  0  0  0  0  0  0  0999 V2000
    2.3263    1.9563    3.5249 C   0  0  0  0  0  0  0  0  0  0  0  0
    2.5431    2.5571    2.7825 H   0  0  0  0  0  0  0  0  0  0  0  0
    2.9787    1.9985    4.2545 H   0  0  0  0  0  0  0  0  0  0  0  0
    1.3441    2.2221    3.9157 H   0  0  0  0  0  0  0  0  0  0  0  0
    2.2695    0.5175    2.9961 C   0  0  0  0  0  0  0  0  0  0  0  0
    1.8770    0.5235    2.0890 H   0  0  0  0  0  0  0  0  0  0  0  0
    3.1834    0.1406    2.9898 H   0  0  0  0  0  0  0  0  0  0  0  0
    1.4026   -0.2979    3.9072 N   0  0  0  0  0  4  0  0  0  0  0  0
    0.4927   -0.3784    3.5056 H   0  0  0  0  0  0  0  0  0  0  0  0
    1.8062   -1.2038    4.0173 H   0  0  0  0  0  0  0  0  0  0  0  0
    1.3424    0.1567    4.7934 H   0  0  0  0  0  0  0  0  0  0  0  0
   -0.0684    2.9194    0.0269 C   0  0  0  0  0  0  0  0  0  0  0  0
    0.8078    3.2456   -0.2833 H   0  0  0  0  0  0  0  0  0  0  0  0
   -0.2662    3.2109    0.9467 H   0  0  0  0  0  0  0  0  0  0  0  0
   -0.8338    3.3328   -0.6299 H   0  0  0  0  0  0  0  0  0  0  0  0
   -0.0270    1.4034    0.0210 C   0  0  0  0  0  0  0  0  0  0  0  0
   -1.1922    0.6616   -0.0350 C   0  0  0  0  0  0  0  0  0  0  0  0
   -2.0792    1.1560   -0.1076 H   0  0  0  0  0  0  0  0  0  0  0  0
   -1.2211   -0.7188   -0.0000 C   0  0  0  0  0  0  0  0  0  0  0  0
   -2.0671   -1.2212    0.0293 H   0  0  0  0  0  0  0  0  0  0  0  0
    0.0230   -1.3917   -0.0066 C   0  0  0  0  0  0  0  0  0  0  0  0
    0.0288   -2.3930   -0.0167 H   0  0  0  0  0  0  0  0  0  0  0  0
    1.2211   -0.6815   -0.0000 C   0  0  0  0  0  0  0  0  0  0  0  0
    2.1064   -1.1603   -0.0083 H   0  0  0  0  0  0  0  0  0  0  0  0
    1.1963    0.7270    0.0206 C   0  0  0  0  0  0  0  0  0  0  0  0
    2.0472    1.2329    0.0341 H   0  0  0  0  0  0  0  0  0  0  0  0
  1  5  1  0
  5  8  1  0
  1  2  1  0
  1  3  1  0
  1  4  1  0
  5  6  1  0
  5  7  1  0
  8  9  1  0
  8 10  1  0
  8 11  1  0
 12 16  1  0
 16 17  2  0
 17 19  1  0
 19 21  2  0
 21 23  1  0
 23 25  2  0
 25 16  1  0
 12 13  1  0
 12 14  1  0
 12 15  1  0
 17 18  1  0
 19 20  1  0
 21 22  1  0
 23 24  1  0
 25 26  1  0
M  CHG  1   8   1
M  END
>  <PDB_ID>  (366) 
pdb2fcr

>  <RESIDUE_NAME>  (366) 
LYS   PHE

>  <FRAG_NAME>  (366) 
ETAM   MBZ

>  <FRAG_ATOM_NUM>  (366) 
fragi: 11  fragj: 15

>  <atom.prop.CHAIN_ID>  (366) 
A A A A A A A A A A A Z Z Z Z Z Z Z Z Z Z Z Z Z Z Z

>  <atom.prop.IS_HEAVY_ATOM>  (366) 
1 0 0 0 1 0 0 1 0 0 0 1 0 0 0 1 1 0 1 0 1 0 1 0 1 0

>  <DIFUSE_FUNC_ATOM>  (366) 
n/a

>  <FINAL_SINGLE_POINT_ENERGY>  (366) 
0

>  <NONCOV_INTER_ENERGY_QM>  (366) 
0

>  <FF_Energy>  (366) 
2.2

>  <QM_Energy>  (366) 
-7.34

>  <source>  (366) 
ETAM_MBZ

>  <Index>  (366) 
3455

$$$$
ETAM-pdb2f5z-A-LYS-24:MBZ-pdb2f5z-B-PHE-468
     RDKit          3D

 26 25  0  0  0  0  0  0  0  0999 V2000
    1.9695   -1.7672   -4.8504 C   0  0  0  0  0  0  0  0  0  0  0  0
    2.3507   -2.0978   -3.9924 H   0  0  0  0  0  0  0  0  0  0  0  0
    2.5808   -1.1019   -5.2675 H   0  0  0  0  0  0  0  0  0  0  0  0
    1.8498   -2.6110   -5.5301 H   0  0  0  0  0  0  0  0  0  0  0  0
    0.6402   -1.0937   -4.5650 C   0  0  0  0  0  0  0  0  0  0  0  0
    0.2472   -0.7684   -5.4275 H   0  0  0  0  0  0  0  0  0  0  0  0
    0.0179   -1.7617   -4.1512 H   0  0  0  0  0  0  0  0  0  0  0  0
    0.8051    0.0592   -3.6379 N   0  0  0  0  0  4  0  0  0  0  0  0
    1.7353    0.0597   -3.2726 H   0  0  0  0  0  0  0  0  0  0  0  0
    0.6397    0.9106   -4.1345 H   0  0  0  0  0  0  0  0  0  0  0  0
    0.1503   -0.0226   -2.8874 H   0  0  0  0  0  0  0  0  0  0  0  0
    0.0067    2.9276   -0.0159 C   0  0  0  0  0  0  0  0  0  0  0  0
   -0.6115    3.2276   -0.7255 H   0  0  0  0  0  0  0  0  0  0  0  0
    0.9325    3.2258   -0.1937 H   0  0  0  0  0  0  0  0  0  0  0  0
   -0.3141    3.3890    0.9181 H   0  0  0  0  0  0  0  0  0  0  0  0
   -0.0004    1.4127   -0.0008 C   0  0  0  0  0  0  0  0  0  0  0  0
   -1.2008    0.7009    0.0002 C   0  0  0  0  0  0  0  0  0  0  0  0
   -2.0669    1.1895   -0.0004 H   0  0  0  0  0  0  0  0  0  0  0  0
   -1.2060   -0.6973   -0.0000 C   0  0  0  0  0  0  0  0  0  0  0  0
   -2.0812   -1.1894    0.0014 H   0  0  0  0  0  0  0  0  0  0  0  0
    0.0020   -1.4030   -0.0000 C   0  0  0  0  0  0  0  0  0  0  0  0
   -0.0095   -2.3996   -0.0006 H   0  0  0  0  0  0  0  0  0  0  0  0
    1.2060   -0.7099   -0.0000 C   0  0  0  0  0  0  0  0  0  0  0  0
    2.0864   -1.1999    0.0011 H   0  0  0  0  0  0  0  0  0  0  0  0
    1.1992    0.6966    0.0007 C   0  0  0  0  0  0  0  0  0  0  0  0
    2.0690    1.1873    0.0018 H   0  0  0  0  0  0  0  0  0  0  0  0
  1  5  1  0
  5  8  1  0
  1  2  1  0
  1  3  1  0
  1  4  1  0
  5  6  1  0
  5  7  1  0
  8  9  1  0
  8 10  1  0
  8 11  1  0
 12 16  1  0
 16 17  2  0
 17 19  1  0
 19 21  2  0
 21 23  1  0
 23 25  2  0
 25 16  1  0
 12 13  1  0
 12 14  1  0
 12 15  1  0
 17 18  1  0
 19 20  1  0
 21 22  1  0
 23 24  1  0
 25 26  1  0
M  CHG  1   8   1
M  END
>  <PDB_ID>  (367) 
pdb2f5z

>  <RESIDUE_NAME>  (367) 
LYS   PHE

>  <FRAG_NAME>  (367) 
ETAM   MBZ

>  <FRAG_ATOM_NUM>  (367) 
fragi: 11  fragj: 15

>  <atom.prop.CHAIN_ID>  (367) 
A A A A A A A A A A A Z Z Z Z Z Z Z Z Z Z Z Z Z Z Z

>  <atom.prop.IS_HEAVY_ATOM>  (367) 
1 0 0 0 1 0 0 1 0 0 0 1 0 0 0 1 1 0 1 0 1 0 1 0 1 0

>  <DIFUSE_FUNC_ATOM>  (367) 
n/a

>  <FINAL_SINGLE_POINT_ENERGY>  (367) 
0

>  <NONCOV_INTER_ENERGY_QM>  (367) 
0

>  <FF_Energy>  (367) 
-7.02

>  <QM_Energy>  (367) 
-12.45

>  <source>  (367) 
ETAM_MBZ

>  <Index>  (367) 
3456

$$$$
ETAM-pdb1ehy-B-LYS-260:MBZ-pdb1ehy-B-PHE-257
     RDKit          3D

 26 25  0  0  0  0  0  0  0  0999 V2000
   -4.1610    1.5966   -1.3700 C   0  0  0  0  0  0  0  0  0  0  0  0
   -3.3472    1.9531   -0.9196 H   0  0  0  0  0  0  0  0  0  0  0  0
   -4.7058    1.0665   -0.7265 H   0  0  0  0  0  0  0  0  0  0  0  0
   -4.7574    2.4321   -1.7365 H   0  0  0  0  0  0  0  0  0  0  0  0
   -3.7233    0.6789   -2.5025 C   0  0  0  0  0  0  0  0  0  0  0  0
   -3.2952    1.2309   -3.2200 H   0  0  0  0  0  0  0  0  0  0  0  0
   -3.0538    0.0234   -2.1488 H   0  0  0  0  0  0  0  0  0  0  0  0
   -4.8786   -0.0604   -3.0752 N   0  0  0  0  0  4  0  0  0  0  0  0
   -4.7231   -0.2155   -4.0510 H   0  0  0  0  0  0  0  0  0  0  0  0
   -4.9758   -0.9390   -2.6088 H   0  0  0  0  0  0  0  0  0  0  0  0
   -5.7125    0.4772   -2.9511 H   0  0  0  0  0  0  0  0  0  0  0  0
   -0.0174    2.8931   -0.0557 C   0  0  0  0  0  0  0  0  0  0  0  0
    0.9134    3.2152    0.0061 H   0  0  0  0  0  0  0  0  0  0  0  0
   -0.5680    3.2233    0.6934 H   0  0  0  0  0  0  0  0  0  0  0  0
   -0.4451    3.2787   -0.9812 H   0  0  0  0  0  0  0  0  0  0  0  0
    0.0001    1.4006   -0.0012 C   0  0  0  0  0  0  0  0  0  0  0  0
   -1.1981    0.6892    0.0008 C   0  0  0  0  0  0  0  0  0  0  0  0
   -2.0645    1.1832    0.0018 H   0  0  0  0  0  0  0  0  0  0  0  0
   -1.2062   -0.6992   -0.0000 C   0  0  0  0  0  0  0  0  0  0  0  0
   -2.0816   -1.1934    0.0012 H   0  0  0  0  0  0  0  0  0  0  0  0
   -0.0032   -1.3956   -0.0001 C   0  0  0  0  0  0  0  0  0  0  0  0
   -0.0033   -2.3922   -0.0003 H   0  0  0  0  0  0  0  0  0  0  0  0
    1.2062   -0.6943    0.0000 C   0  0  0  0  0  0  0  0  0  0  0  0
    2.0842   -1.1935    0.0015 H   0  0  0  0  0  0  0  0  0  0  0  0
    1.2012    0.6993    0.0005 C   0  0  0  0  0  0  0  0  0  0  0  0
    2.0661    1.1960    0.0016 H   0  0  0  0  0  0  0  0  0  0  0  0
  1  5  1  0
  5  8  1  0
  1  2  1  0
  1  3  1  0
  1  4  1  0
  5  6  1  0
  5  7  1  0
  8  9  1  0
  8 10  1  0
  8 11  1  0
 12 16  1  0
 16 17  2  0
 17 19  1  0
 19 21  2  0
 21 23  1  0
 23 25  2  0
 25 16  1  0
 12 13  1  0
 12 14  1  0
 12 15  1  0
 17 18  1  0
 19 20  1  0
 21 22  1  0
 23 24  1  0
 25 26  1  0
M  CHG  1   8   1
M  END
>  <PDB_ID>  (368) 
pdb1ehy

>  <RESIDUE_NAME>  (368) 
LYS   PHE

>  <FRAG_NAME>  (368) 
ETAM   MBZ

>  <FRAG_ATOM_NUM>  (368) 
fragi: 11  fragj: 15

>  <atom.prop.CHAIN_ID>  (368) 
A A A A A A A A A A A Z Z Z Z Z Z Z Z Z Z Z Z Z Z Z

>  <atom.prop.IS_HEAVY_ATOM>  (368) 
1 0 0 0 1 0 0 1 0 0 0 1 0 0 0 1 1 0 1 0 1 0 1 0 1 0

>  <DIFUSE_FUNC_ATOM>  (368) 
n/a

>  <FINAL_SINGLE_POINT_ENERGY>  (368) 
0

>  <NONCOV_INTER_ENERGY_QM>  (368) 
0

>  <FF_Energy>  (368) 
4.02

>  <QM_Energy>  (368) 
-1.97

>  <source>  (368) 
ETAM_MBZ

>  <Index>  (368) 
3475

$$$$
ETAM-pdb2faw-A-LYS-225:MBZ-pdb2faw-A-PHE-22
     RDKit          3D

 26 25  0  0  0  0  0  0  0  0999 V2000
    0.3113   -0.9562    3.3652 C   0  0  0  0  0  0  0  0  0  0  0  0
   -0.2928   -1.7517    3.4396 H   0  0  0  0  0  0  0  0  0  0  0  0
    0.3564   -0.6624    2.4098 H   0  0  0  0  0  0  0  0  0  0  0  0
   -0.0686   -0.1442    3.9852 H   0  0  0  0  0  0  0  0  0  0  0  0
    1.6842   -1.3646    3.7978 C   0  0  0  0  0  0  0  0  0  0  0  0
    2.2814   -0.5992    3.7668 H   0  0  0  0  0  0  0  0  0  0  0  0
    1.6409   -1.8030    4.6639 H   0  0  0  0  0  0  0  0  0  0  0  0
    2.0691   -2.3407    2.7637 N   0  0  0  0  0  4  0  0  0  0  0  0
    3.0259   -2.1969    2.5007 H   0  0  0  0  0  0  0  0  0  0  0  0
    1.9623   -3.2714    3.1197 H   0  0  0  0  0  0  0  0  0  0  0  0
    1.4859   -2.2279    1.9566 H   0  0  0  0  0  0  0  0  0  0  0  0
   -0.0212    2.8521   -0.0569 C   0  0  0  0  0  0  0  0  0  0  0  0
   -0.6654    3.1347   -0.7601 H   0  0  0  0  0  0  0  0  0  0  0  0
    0.8946    3.1696   -0.2781 H   0  0  0  0  0  0  0  0  0  0  0  0
   -0.3214    3.3178    0.8817 H   0  0  0  0  0  0  0  0  0  0  0  0
   -0.0058    1.3898   -0.0013 C   0  0  0  0  0  0  0  0  0  0  0  0
   -1.2000    0.6754   -0.0087 C   0  0  0  0  0  0  0  0  0  0  0  0
   -2.0669    1.1716   -0.0218 H   0  0  0  0  0  0  0  0  0  0  0  0
   -1.2010   -0.6989    0.0000 C   0  0  0  0  0  0  0  0  0  0  0  0
   -2.0718   -1.2041   -0.0000 H   0  0  0  0  0  0  0  0  0  0  0  0
    0.0062   -1.3847    0.0109 C   0  0  0  0  0  0  0  0  0  0  0  0
    0.0056   -2.3871    0.0263 H   0  0  0  0  0  0  0  0  0  0  0  0
    1.2010   -0.6881    0.0000 C   0  0  0  0  0  0  0  0  0  0  0  0
    2.0864   -1.1828   -0.0059 H   0  0  0  0  0  0  0  0  0  0  0  0
    1.1996    0.7065   -0.0010 C   0  0  0  0  0  0  0  0  0  0  0  0
    2.0586    1.2018   -0.0025 H   0  0  0  0  0  0  0  0  0  0  0  0
  1  5  1  0
  5  8  1  0
  1  2  1  0
  1  3  1  0
  1  4  1  0
  5  6  1  0
  5  7  1  0
  8  9  1  0
  8 10  1  0
  8 11  1  0
 12 16  1  0
 16 17  2  0
 17 19  1  0
 19 21  2  0
 21 23  1  0
 23 25  2  0
 25 16  1  0
 12 13  1  0
 12 14  1  0
 12 15  1  0
 17 18  1  0
 19 20  1  0
 21 22  1  0
 23 24  1  0
 25 26  1  0
M  CHG  1   8   1
M  END
>  <PDB_ID>  (369) 
pdb2faw

>  <RESIDUE_NAME>  (369) 
LYS   PHE

>  <FRAG_NAME>  (369) 
ETAM   MBZ

>  <FRAG_ATOM_NUM>  (369) 
fragi: 11  fragj: 15

>  <atom.prop.CHAIN_ID>  (369) 
A A A A A A A A A A A Z Z Z Z Z Z Z Z Z Z Z Z Z Z Z

>  <atom.prop.IS_HEAVY_ATOM>  (369) 
1 0 0 0 1 0 0 1 0 0 0 1 0 0 0 1 1 0 1 0 1 0 1 0 1 0

>  <DIFUSE_FUNC_ATOM>  (369) 
n/a

>  <FINAL_SINGLE_POINT_ENERGY>  (369) 
0

>  <NONCOV_INTER_ENERGY_QM>  (369) 
0

>  <FF_Energy>  (369) 
-2.19

>  <QM_Energy>  (369) 
-10.47

>  <source>  (369) 
ETAM_MBZ

>  <Index>  (369) 
3490

$$$$
ETAM-pdb2fef-B-LEU-6:MBZ-pdb2fef-B-PHE-62
     RDKit          3D

 26 25  0  0  0  0  0  0  0  0999 V2000
   -2.6953   -3.4272    2.5293 C   0  0  0  0  0  0  0  0  0  0  0  0
   -2.2816   -3.1245    1.6577 H   0  0  0  0  0  0  0  0  0  0  0  0
   -3.0427   -4.3657    2.3976 H   0  0  0  0  0  0  0  0  0  0  0  0
   -3.5578   -2.7871    2.7147 H   0  0  0  0  0  0  0  0  0  0  0  0
   -1.5531   -3.5062    3.5718 C   0  0  0  0  0  0  0  0  0  0  0  0
   -1.8664   -3.8360    4.4511 H   0  0  0  0  0  0  0  0  0  0  0  0
   -0.7809   -4.1802    3.2010 H   0  0  0  0  0  0  0  0  0  0  0  0
   -0.9265   -2.1838    3.7634 N   0  0  0  0  0  4  0  0  0  0  0  0
   -1.6120   -1.5327    4.0870 H   0  0  0  0  0  0  0  0  0  0  0  0
   -0.1940   -2.2559    4.4382 H   0  0  0  0  0  0  0  0  0  0  0  0
   -0.5485   -1.8640    2.8952 H   0  0  0  0  0  0  0  0  0  0  0  0
   -0.0059    2.9143   -0.0122 C   0  0  0  0  0  0  0  0  0  0  0  0
    0.9267    3.2212    0.0494 H   0  0  0  0  0  0  0  0  0  0  0  0
   -0.5495    3.2241    0.7475 H   0  0  0  0  0  0  0  0  0  0  0  0
   -0.4377    3.3234   -0.9257 H   0  0  0  0  0  0  0  0  0  0  0  0
    0.0011    1.4043    0.0080 C   0  0  0  0  0  0  0  0  0  0  0  0
   -1.1983    0.6943   -0.0002 C   0  0  0  0  0  0  0  0  0  0  0  0
   -2.0635    1.1913   -0.0077 H   0  0  0  0  0  0  0  0  0  0  0  0
   -1.2080   -0.6909   -0.0000 C   0  0  0  0  0  0  0  0  0  0  0  0
   -2.0850   -1.1858    0.0031 H   0  0  0  0  0  0  0  0  0  0  0  0
   -0.0048   -1.4004   -0.0025 C   0  0  0  0  0  0  0  0  0  0  0  0
   -0.0145   -2.3950   -0.0065 H   0  0  0  0  0  0  0  0  0  0  0  0
    1.2080   -0.7059   -0.0000 C   0  0  0  0  0  0  0  0  0  0  0  0
    2.0836   -1.2009    0.0068 H   0  0  0  0  0  0  0  0  0  0  0  0
    1.2020    0.6986   -0.0054 C   0  0  0  0  0  0  0  0  0  0  0  0
    2.0683    1.1907   -0.0197 H   0  0  0  0  0  0  0  0  0  0  0  0
  1  5  1  0
  5  8  1  0
  1  2  1  0
  1  3  1  0
  1  4  1  0
  5  6  1  0
  5  7  1  0
  8  9  1  0
  8 10  1  0
  8 11  1  0
 12 16  1  0
 16 17  2  0
 17 19  1  0
 19 21  2  0
 21 23  1  0
 23 25  2  0
 25 16  1  0
 12 13  1  0
 12 14  1  0
 12 15  1  0
 17 18  1  0
 19 20  1  0
 21 22  1  0
 23 24  1  0
 25 26  1  0
M  CHG  1   8   1
M  END
>  <PDB_ID>  (370) 
pdb2fef

>  <RESIDUE_NAME>  (370) 
LEU   PHE

>  <FRAG_NAME>  (370) 
ETAM   MBZ

>  <FRAG_ATOM_NUM>  (370) 
fragi: 11  fragj: 15

>  <atom.prop.CHAIN_ID>  (370) 
A A A A A A A A A A A Z Z Z Z Z Z Z Z Z Z Z Z Z Z Z

>  <atom.prop.IS_HEAVY_ATOM>  (370) 
1 0 0 0 1 0 0 1 0 0 0 1 0 0 0 1 1 0 1 0 1 0 1 0 1 0

>  <DIFUSE_FUNC_ATOM>  (370) 
n/a

>  <FINAL_SINGLE_POINT_ENERGY>  (370) 
0

>  <NONCOV_INTER_ENERGY_QM>  (370) 
0

>  <FF_Energy>  (370) 
-3.96

>  <QM_Energy>  (370) 
-9.05

>  <source>  (370) 
ETAM_MBZ

>  <Index>  (370) 
3492

$$$$
ETAM-pdb2fez-A-LYS-34:MBZ-pdb2fez-A-PHE-156
     RDKit          3D

 26 25  0  0  0  0  0  0  0  0999 V2000
    2.6503   -4.2594    0.6446 C   0  0  0  0  0  0  0  0  0  0  0  0
    3.5372   -3.9617    0.3203 H   0  0  0  0  0  0  0  0  0  0  0  0
    1.9386   -3.6332    0.3614 H   0  0  0  0  0  0  0  0  0  0  0  0
    2.4369   -5.2514    0.2464 H   0  0  0  0  0  0  0  0  0  0  0  0
    2.6823   -4.2947    2.1712 C   0  0  0  0  0  0  0  0  0  0  0  0
    1.9262   -4.8639    2.4948 H   0  0  0  0  0  0  0  0  0  0  0  0
    3.5497   -4.6964    2.4652 H   0  0  0  0  0  0  0  0  0  0  0  0
    2.5522   -2.9294    2.7414 N   0  0  0  0  0  4  0  0  0  0  0  0
    2.4208   -2.2706    2.0010 H   0  0  0  0  0  0  0  0  0  0  0  0
    1.7658   -2.8994    3.3580 H   0  0  0  0  0  0  0  0  0  0  0  0
    3.3830   -2.7000    3.2487 H   0  0  0  0  0  0  0  0  0  0  0  0
    0.0031    2.9102   -0.0034 C   0  0  0  0  0  0  0  0  0  0  0  0
   -0.7495    3.2132   -0.5673 H   0  0  0  0  0  0  0  0  0  0  0  0
    0.8706    3.2127   -0.3682 H   0  0  0  0  0  0  0  0  0  0  0  0
   -0.1175    3.3594    0.9823 H   0  0  0  0  0  0  0  0  0  0  0  0
    0.0012    1.4040    0.0052 C   0  0  0  0  0  0  0  0  0  0  0  0
   -1.1980    0.6943   -0.0051 C   0  0  0  0  0  0  0  0  0  0  0  0
   -2.0638    1.1854   -0.0177 H   0  0  0  0  0  0  0  0  0  0  0  0
   -1.2063   -0.7007    0.0000 C   0  0  0  0  0  0  0  0  0  0  0  0
   -2.0814   -1.1914    0.0038 H   0  0  0  0  0  0  0  0  0  0  0  0
   -0.0025   -1.3971    0.0022 C   0  0  0  0  0  0  0  0  0  0  0  0
   -0.0028   -2.3944    0.0045 H   0  0  0  0  0  0  0  0  0  0  0  0
    1.2063   -0.6963   -0.0000 C   0  0  0  0  0  0  0  0  0  0  0  0
    2.0843   -1.1955    0.0014 H   0  0  0  0  0  0  0  0  0  0  0  0
    1.1993    0.6958   -0.0022 C   0  0  0  0  0  0  0  0  0  0  0  0
    2.0672    1.1937   -0.0101 H   0  0  0  0  0  0  0  0  0  0  0  0
  1  5  1  0
  5  8  1  0
  1  2  1  0
  1  3  1  0
  1  4  1  0
  5  6  1  0
  5  7  1  0
  8  9  1  0
  8 10  1  0
  8 11  1  0
 12 16  1  0
 16 17  2  0
 17 19  1  0
 19 21  2  0
 21 23  1  0
 23 25  2  0
 25 16  1  0
 12 13  1  0
 12 14  1  0
 12 15  1  0
 17 18  1  0
 19 20  1  0
 21 22  1  0
 23 24  1  0
 25 26  1  0
M  CHG  1   8   1
M  END
>  <PDB_ID>  (371) 
pdb2fez

>  <RESIDUE_NAME>  (371) 
LYS   PHE

>  <FRAG_NAME>  (371) 
ETAM   MBZ

>  <FRAG_ATOM_NUM>  (371) 
fragi: 11  fragj: 15

>  <atom.prop.CHAIN_ID>  (371) 
A A A A A A A A A A A Z Z Z Z Z Z Z Z Z Z Z Z Z Z Z

>  <atom.prop.IS_HEAVY_ATOM>  (371) 
1 0 0 0 1 0 0 1 0 0 0 1 0 0 0 1 1 0 1 0 1 0 1 0 1 0

>  <DIFUSE_FUNC_ATOM>  (371) 
n/a

>  <FINAL_SINGLE_POINT_ENERGY>  (371) 
0

>  <NONCOV_INTER_ENERGY_QM>  (371) 
0

>  <FF_Energy>  (371) 
-1.43

>  <QM_Energy>  (371) 
-6.75

>  <source>  (371) 
ETAM_MBZ

>  <Index>  (371) 
3504

$$$$
ETAM-pdb1elk-B-LYS-56:MBZ-pdb1elk-B-PHE-9
     RDKit          3D

 26 25  0  0  0  0  0  0  0  0999 V2000
   -1.2018   -0.5287    3.6511 C   0  0  0  0  0  0  0  0  0  0  0  0
   -0.9117   -0.0546    4.4860 H   0  0  0  0  0  0  0  0  0  0  0  0
   -0.7929   -0.0729    2.8575 H   0  0  0  0  0  0  0  0  0  0  0  0
   -0.8684   -1.5658    3.6878 H   0  0  0  0  0  0  0  0  0  0  0  0
   -2.7469   -0.3599    3.5362 C   0  0  0  0  0  0  0  0  0  0  0  0
   -3.0968   -0.9927    2.8654 H   0  0  0  0  0  0  0  0  0  0  0  0
   -3.1587   -0.5016    4.4207 H   0  0  0  0  0  0  0  0  0  0  0  0
   -3.1133    1.0917    3.0635 N   0  0  0  0  0  4  0  0  0  0  0  0
   -2.5660    1.2844    2.2653 H   0  0  0  0  0  0  0  0  0  0  0  0
   -4.0781    1.0947    2.8547 H   0  0  0  0  0  0  0  0  0  0  0  0
   -2.8995    1.7022    3.8086 H   0  0  0  0  0  0  0  0  0  0  0  0
   -0.0397    2.9076   -0.1111 C   0  0  0  0  0  0  0  0  0  0  0  0
   -0.9188    3.2190    0.2215 H   0  0  0  0  0  0  0  0  0  0  0  0
    0.0844    3.1453   -1.0644 H   0  0  0  0  0  0  0  0  0  0  0  0
    0.7341    3.4175    0.4626 H   0  0  0  0  0  0  0  0  0  0  0  0
   -0.0088    1.4040   -0.0004 C   0  0  0  0  0  0  0  0  0  0  0  0
   -1.2009    0.6751    0.0086 C   0  0  0  0  0  0  0  0  0  0  0  0
   -2.0711    1.1803    0.0203 H   0  0  0  0  0  0  0  0  0  0  0  0
   -1.2111   -0.6879   -0.0000 C   0  0  0  0  0  0  0  0  0  0  0  0
   -2.0752   -1.2023   -0.0013 H   0  0  0  0  0  0  0  0  0  0  0  0
    0.0159   -1.4101   -0.0051 C   0  0  0  0  0  0  0  0  0  0  0  0
    0.0067   -2.3902   -0.0130 H   0  0  0  0  0  0  0  0  0  0  0  0
    1.2111   -0.6845    0.0000 C   0  0  0  0  0  0  0  0  0  0  0  0
    2.0992   -1.1761    0.0081 H   0  0  0  0  0  0  0  0  0  0  0  0
    1.1938    0.7033   -0.0032 C   0  0  0  0  0  0  0  0  0  0  0  0
    2.0581    1.2092   -0.0078 H   0  0  0  0  0  0  0  0  0  0  0  0
  1  5  1  0
  5  8  1  0
  1  2  1  0
  1  3  1  0
  1  4  1  0
  5  6  1  0
  5  7  1  0
  8  9  1  0
  8 10  1  0
  8 11  1  0
 12 16  1  0
 16 17  2  0
 17 19  1  0
 19 21  2  0
 21 23  1  0
 23 25  2  0
 25 16  1  0
 12 13  1  0
 12 14  1  0
 12 15  1  0
 17 18  1  0
 19 20  1  0
 21 22  1  0
 23 24  1  0
 25 26  1  0
M  CHG  1   8   1
M  END
>  <PDB_ID>  (372) 
pdb1elk

>  <RESIDUE_NAME>  (372) 
LYS   PHE

>  <FRAG_NAME>  (372) 
ETAM   MBZ

>  <FRAG_ATOM_NUM>  (372) 
fragi: 11  fragj: 15

>  <atom.prop.CHAIN_ID>  (372) 
A A A A A A A A A A A Z Z Z Z Z Z Z Z Z Z Z Z Z Z Z

>  <atom.prop.IS_HEAVY_ATOM>  (372) 
1 0 0 0 1 0 0 1 0 0 0 1 0 0 0 1 1 0 1 0 1 0 1 0 1 0

>  <DIFUSE_FUNC_ATOM>  (372) 
n/a

>  <FINAL_SINGLE_POINT_ENERGY>  (372) 
0

>  <NONCOV_INTER_ENERGY_QM>  (372) 
0

>  <FF_Energy>  (372) 
-3.86

>  <QM_Energy>  (372) 
-9.32

>  <source>  (372) 
ETAM_MBZ

>  <Index>  (372) 
3512

$$$$
ETAM-pdb1erk-A-LYS-97:MBZ-pdb1erk-A-PHE-57
     RDKit          3D

 26 25  0  0  0  0  0  0  0  0999 V2000
    4.5482    3.9731    1.9469 C   0  0  0  0  0  0  0  0  0  0  0  0
    4.5822    4.9266    2.2317 H   0  0  0  0  0  0  0  0  0  0  0  0
    5.1558    3.8226    1.1731 H   0  0  0  0  0  0  0  0  0  0  0  0
    4.8810    3.3508    2.7776 H   0  0  0  0  0  0  0  0  0  0  0  0
    3.1178    3.6448    1.5128 C   0  0  0  0  0  0  0  0  0  0  0  0
    2.6592    3.1516    2.2567 H   0  0  0  0  0  0  0  0  0  0  0  0
    2.6270    4.5032    1.3417 H   0  0  0  0  0  0  0  0  0  0  0  0
    3.0799    2.8047    0.2735 N   0  0  0  0  0  4  0  0  0  0  0  0
    2.2907    3.0695   -0.2771 H   0  0  0  0  0  0  0  0  0  0  0  0
    3.9190    2.9513   -0.2466 H   0  0  0  0  0  0  0  0  0  0  0  0
    3.0051    1.8438    0.5321 H   0  0  0  0  0  0  0  0  0  0  0  0
   -0.0075    2.8933   -0.0345 C   0  0  0  0  0  0  0  0  0  0  0  0
    0.9238    3.2073    0.0601 H   0  0  0  0  0  0  0  0  0  0  0  0
   -0.5769    3.2151    0.7042 H   0  0  0  0  0  0  0  0  0  0  0  0
   -0.4044    3.3019   -0.9639 H   0  0  0  0  0  0  0  0  0  0  0  0
   -0.0011    1.3955   -0.0010 C   0  0  0  0  0  0  0  0  0  0  0  0
   -1.1946    0.6872   -0.0003 C   0  0  0  0  0  0  0  0  0  0  0  0
   -2.0622    1.1772   -0.0017 H   0  0  0  0  0  0  0  0  0  0  0  0
   -1.1947   -0.6965    0.0000 C   0  0  0  0  0  0  0  0  0  0  0  0
   -2.0708   -1.1944    0.0016 H   0  0  0  0  0  0  0  0  0  0  0  0
    0.0034   -1.3846    0.0002 C   0  0  0  0  0  0  0  0  0  0  0  0
    0.0005   -2.3868   -0.0003 H   0  0  0  0  0  0  0  0  0  0  0  0
    1.1947   -0.6917   -0.0000 C   0  0  0  0  0  0  0  0  0  0  0  0
    2.0798   -1.1915    0.0002 H   0  0  0  0  0  0  0  0  0  0  0  0
    1.1923    0.6901    0.0011 C   0  0  0  0  0  0  0  0  0  0  0  0
    2.0607    1.1890    0.0023 H   0  0  0  0  0  0  0  0  0  0  0  0
  1  5  1  0
  5  8  1  0
  1  2  1  0
  1  3  1  0
  1  4  1  0
  5  6  1  0
  5  7  1  0
  8  9  1  0
  8 10  1  0
  8 11  1  0
 12 16  1  0
 16 17  2  0
 17 19  1  0
 19 21  2  0
 21 23  1  0
 23 25  2  0
 25 16  1  0
 12 13  1  0
 12 14  1  0
 12 15  1  0
 17 18  1  0
 19 20  1  0
 21 22  1  0
 23 24  1  0
 25 26  1  0
M  CHG  1   8   1
M  END
>  <PDB_ID>  (373) 
pdb1erk

>  <RESIDUE_NAME>  (373) 
LYS   PHE

>  <FRAG_NAME>  (373) 
ETAM   MBZ

>  <FRAG_ATOM_NUM>  (373) 
fragi: 11  fragj: 15

>  <atom.prop.CHAIN_ID>  (373) 
A A A A A A A A A A A Z Z Z Z Z Z Z Z Z Z Z Z Z Z Z

>  <atom.prop.IS_HEAVY_ATOM>  (373) 
1 0 0 0 1 0 0 1 0 0 0 1 0 0 0 1 1 0 1 0 1 0 1 0 1 0

>  <DIFUSE_FUNC_ATOM>  (373) 
n/a

>  <FINAL_SINGLE_POINT_ENERGY>  (373) 
0

>  <NONCOV_INTER_ENERGY_QM>  (373) 
0

>  <FF_Energy>  (373) 
42.65

>  <QM_Energy>  (373) 
14.56

>  <source>  (373) 
ETAM_MBZ

>  <Index>  (373) 
3579

$$$$
ETAM-pdb2ff6-G-LYS-141:MBZ-pdb2ff6-G-PHE-63
     RDKit          3D

 26 25  0  0  0  0  0  0  0  0999 V2000
    1.4217   -0.7062    3.8639 C   0  0  0  0  0  0  0  0  0  0  0  0
    1.7441   -1.4911    3.3530 H   0  0  0  0  0  0  0  0  0  0  0  0
    1.5006   -0.8571    4.8386 H   0  0  0  0  0  0  0  0  0  0  0  0
    2.0228    0.1615    3.5918 H   0  0  0  0  0  0  0  0  0  0  0  0
   -0.0432   -0.4690    3.5233 C   0  0  0  0  0  0  0  0  0  0  0  0
   -0.3815    0.3050    4.0697 H   0  0  0  0  0  0  0  0  0  0  0  0
   -0.1148   -0.2274    2.5494 H   0  0  0  0  0  0  0  0  0  0  0  0
   -0.8909   -1.6642    3.7921 N   0  0  0  0  0  4  0  0  0  0  0  0
   -0.3301   -2.4893    3.7271 H   0  0  0  0  0  0  0  0  0  0  0  0
   -1.2796   -1.5940    4.7101 H   0  0  0  0  0  0  0  0  0  0  0  0
   -1.6280   -1.7058    3.1183 H   0  0  0  0  0  0  0  0  0  0  0  0
   -0.0117    2.9096   -0.0140 C   0  0  0  0  0  0  0  0  0  0  0  0
   -0.9556    3.2082    0.0320 H   0  0  0  0  0  0  0  0  0  0  0  0
    0.4125    3.2056   -0.8590 H   0  0  0  0  0  0  0  0  0  0  0  0
    0.5264    3.3777    0.8102 H   0  0  0  0  0  0  0  0  0  0  0  0
   -0.0014    1.4028    0.0066 C   0  0  0  0  0  0  0  0  0  0  0  0
   -1.1983    0.6941   -0.0028 C   0  0  0  0  0  0  0  0  0  0  0  0
   -2.0654    1.1856   -0.0127 H   0  0  0  0  0  0  0  0  0  0  0  0
   -1.2053   -0.6966   -0.0000 C   0  0  0  0  0  0  0  0  0  0  0  0
   -2.0796   -1.1912    0.0008 H   0  0  0  0  0  0  0  0  0  0  0  0
    0.0013   -1.3964    0.0032 C   0  0  0  0  0  0  0  0  0  0  0  0
   -0.0042   -2.3929    0.0076 H   0  0  0  0  0  0  0  0  0  0  0  0
    1.2053   -0.6981   -0.0000 C   0  0  0  0  0  0  0  0  0  0  0  0
    2.0858   -1.1948    0.0043 H   0  0  0  0  0  0  0  0  0  0  0  0
    1.1983    0.6943   -0.0070 C   0  0  0  0  0  0  0  0  0  0  0  0
    2.0651    1.1922   -0.0224 H   0  0  0  0  0  0  0  0  0  0  0  0
  1  5  1  0
  5  8  1  0
  1  2  1  0
  1  3  1  0
  1  4  1  0
  5  6  1  0
  5  7  1  0
  8  9  1  0
  8 10  1  0
  8 11  1  0
 12 16  1  0
 16 17  2  0
 17 19  1  0
 19 21  2  0
 21 23  1  0
 23 25  2  0
 25 16  1  0
 12 13  1  0
 12 14  1  0
 12 15  1  0
 17 18  1  0
 19 20  1  0
 21 22  1  0
 23 24  1  0
 25 26  1  0
M  CHG  1   8   1
M  END
>  <PDB_ID>  (374) 
pdb2ff6

>  <RESIDUE_NAME>  (374) 
LYS   PHE

>  <FRAG_NAME>  (374) 
ETAM   MBZ

>  <FRAG_ATOM_NUM>  (374) 
fragi: 11  fragj: 15

>  <atom.prop.CHAIN_ID>  (374) 
A A A A A A A A A A A Z Z Z Z Z Z Z Z Z Z Z Z Z Z Z

>  <atom.prop.IS_HEAVY_ATOM>  (374) 
1 0 0 0 1 0 0 1 0 0 0 1 0 0 0 1 1 0 1 0 1 0 1 0 1 0

>  <DIFUSE_FUNC_ATOM>  (374) 
n/a

>  <FINAL_SINGLE_POINT_ENERGY>  (374) 
0

>  <NONCOV_INTER_ENERGY_QM>  (374) 
0

>  <FF_Energy>  (374) 
-5.47

>  <QM_Energy>  (374) 
-11.5

>  <source>  (374) 
ETAM_MBZ

>  <Index>  (374) 
3581

$$$$
ETAM-pdb2fji-1-LYS-466:MBZ-pdb2fji-1-PHE-461
     RDKit          3D

 26 25  0  0  0  0  0  0  0  0999 V2000
   -3.0731   -2.6135   -4.3734 C   0  0  0  0  0  0  0  0  0  0  0  0
   -3.9865   -2.7384   -3.9893 H   0  0  0  0  0  0  0  0  0  0  0  0
   -2.7880   -3.4485   -4.8413 H   0  0  0  0  0  0  0  0  0  0  0  0
   -3.1058   -1.7987   -5.0968 H   0  0  0  0  0  0  0  0  0  0  0  0
   -2.1004   -2.3456   -3.2288 C   0  0  0  0  0  0  0  0  0  0  0  0
   -1.1715   -2.2986   -3.5957 H   0  0  0  0  0  0  0  0  0  0  0  0
   -2.3340   -1.4720   -2.8011 H   0  0  0  0  0  0  0  0  0  0  0  0
   -2.1618   -3.4287   -2.1925 N   0  0  0  0  0  4  0  0  0  0  0  0
   -1.2331   -3.6890   -1.9388 H   0  0  0  0  0  0  0  0  0  0  0  0
   -2.6493   -3.0863   -1.3918 H   0  0  0  0  0  0  0  0  0  0  0  0
   -2.6432   -4.2156   -2.5723 H   0  0  0  0  0  0  0  0  0  0  0  0
    0.0178    2.9246   -0.0939 C   0  0  0  0  0  0  0  0  0  0  0  0
   -0.5051    3.1870   -0.8953 H   0  0  0  0  0  0  0  0  0  0  0  0
    0.9630    3.2135   -0.1791 H   0  0  0  0  0  0  0  0  0  0  0  0
   -0.4092    3.4463    0.7626 H   0  0  0  0  0  0  0  0  0  0  0  0
    0.0000    1.4152   -0.0016 C   0  0  0  0  0  0  0  0  0  0  0  0
   -1.1983    0.7065    0.0018 C   0  0  0  0  0  0  0  0  0  0  0  0
   -2.0657    1.1896    0.0039 H   0  0  0  0  0  0  0  0  0  0  0  0
   -1.2024   -0.6989    0.0000 C   0  0  0  0  0  0  0  0  0  0  0  0
   -2.0804   -1.1867    0.0015 H   0  0  0  0  0  0  0  0  0  0  0  0
    0.0012   -1.4046   -0.0021 C   0  0  0  0  0  0  0  0  0  0  0  0
   -0.0097   -2.4017   -0.0058 H   0  0  0  0  0  0  0  0  0  0  0  0
    1.2024   -0.7113    0.0000 C   0  0  0  0  0  0  0  0  0  0  0  0
    2.0837   -1.2023    0.0014 H   0  0  0  0  0  0  0  0  0  0  0  0
    1.1971    0.6931    0.0019 C   0  0  0  0  0  0  0  0  0  0  0  0
    2.0689    1.1840    0.0047 H   0  0  0  0  0  0  0  0  0  0  0  0
  1  5  1  0
  5  8  1  0
  1  2  1  0
  1  3  1  0
  1  4  1  0
  5  6  1  0
  5  7  1  0
  8  9  1  0
  8 10  1  0
  8 11  1  0
 12 16  1  0
 16 17  2  0
 17 19  1  0
 19 21  2  0
 21 23  1  0
 23 25  2  0
 25 16  1  0
 12 13  1  0
 12 14  1  0
 12 15  1  0
 17 18  1  0
 19 20  1  0
 21 22  1  0
 23 24  1  0
 25 26  1  0
M  CHG  1   8   1
M  END
>  <PDB_ID>  (375) 
pdb2fji

>  <RESIDUE_NAME>  (375) 
LYS   PHE

>  <FRAG_NAME>  (375) 
ETAM   MBZ

>  <FRAG_ATOM_NUM>  (375) 
fragi: 11  fragj: 15

>  <atom.prop.CHAIN_ID>  (375) 
A A A A A A A A A A A Z Z Z Z Z Z Z Z Z Z Z Z Z Z Z

>  <atom.prop.IS_HEAVY_ATOM>  (375) 
1 0 0 0 1 0 0 1 0 0 0 1 0 0 0 1 1 0 1 0 1 0 1 0 1 0

>  <DIFUSE_FUNC_ATOM>  (375) 
n/a

>  <FINAL_SINGLE_POINT_ENERGY>  (375) 
0

>  <NONCOV_INTER_ENERGY_QM>  (375) 
0

>  <FF_Energy>  (375) 
-1.01

>  <QM_Energy>  (375) 
-6.27

>  <source>  (375) 
ETAM_MBZ

>  <Index>  (375) 
3596

$$$$
ETAM-pdb2fk7-A-LYS-296:MBZ-pdb2fk7-A-PHE-164
     RDKit          3D

 26 25  0  0  0  0  0  0  0  0999 V2000
   -0.9590    0.4061    4.1775 C   0  0  0  0  0  0  0  0  0  0  0  0
   -0.8757    1.3627    3.8958 H   0  0  0  0  0  0  0  0  0  0  0  0
   -0.8759    0.3439    5.1722 H   0  0  0  0  0  0  0  0  0  0  0  0
   -1.9561    0.0627    3.9021 H   0  0  0  0  0  0  0  0  0  0  0  0
    0.1684   -0.3970    3.5375 C   0  0  0  0  0  0  0  0  0  0  0  0
    0.1073   -1.3183    3.8324 H   0  0  0  0  0  0  0  0  0  0  0  0
    0.1374   -0.2760    2.5762 H   0  0  0  0  0  0  0  0  0  0  0  0
    1.3777    0.2378    4.0930 N   0  0  0  0  0  4  0  0  0  0  0  0
    1.9873    0.5153    3.3482 H   0  0  0  0  0  0  0  0  0  0  0  0
    1.1209    1.0464    4.6260 H   0  0  0  0  0  0  0  0  0  0  0  0
    1.8578   -0.4106    4.6871 H   0  0  0  0  0  0  0  0  0  0  0  0
   -0.0143    2.9215   -0.1016 C   0  0  0  0  0  0  0  0  0  0  0  0
   -0.8076    3.1869   -0.6319 H   0  0  0  0  0  0  0  0  0  0  0  0
    0.8229    3.2049   -0.5498 H   0  0  0  0  0  0  0  0  0  0  0  0
   -0.0685    3.4322    0.8598 H   0  0  0  0  0  0  0  0  0  0  0  0
   -0.0029    1.4246   -0.0023 C   0  0  0  0  0  0  0  0  0  0  0  0
   -1.2229    0.7120   -0.0080 C   0  0  0  0  0  0  0  0  0  0  0  0
   -2.0804    1.1955   -0.0192 H   0  0  0  0  0  0  0  0  0  0  0  0
   -1.2301   -0.7114   -0.0000 C   0  0  0  0  0  0  0  0  0  0  0  0
   -2.0916   -1.2012   -0.0156 H   0  0  0  0  0  0  0  0  0  0  0  0
    0.0066   -1.4160    0.0323 C   0  0  0  0  0  0  0  0  0  0  0  0
   -0.0011   -2.4081    0.0778 H   0  0  0  0  0  0  0  0  0  0  0  0
    1.2301   -0.7131    0.0000 C   0  0  0  0  0  0  0  0  0  0  0  0
    2.1024   -1.2038   -0.0065 H   0  0  0  0  0  0  0  0  0  0  0  0
    1.2192    0.7039   -0.0220 C   0  0  0  0  0  0  0  0  0  0  0  0
    2.0783    1.1990   -0.0523 H   0  0  0  0  0  0  0  0  0  0  0  0
  1  5  1  0
  5  8  1  0
  1  2  1  0
  1  3  1  0
  1  4  1  0
  5  6  1  0
  5  7  1  0
  8  9  1  0
  8 10  1  0
  8 11  1  0
 12 16  1  0
 16 17  2  0
 17 19  1  0
 19 21  2  0
 21 23  1  0
 23 25  2  0
 25 16  1  0
 12 13  1  0
 12 14  1  0
 12 15  1  0
 17 18  1  0
 19 20  1  0
 21 22  1  0
 23 24  1  0
 25 26  1  0
M  CHG  1   8   1
M  END
>  <PDB_ID>  (376) 
pdb2fk7

>  <RESIDUE_NAME>  (376) 
LYS   PHE

>  <FRAG_NAME>  (376) 
ETAM   MBZ

>  <FRAG_ATOM_NUM>  (376) 
fragi: 11  fragj: 15

>  <atom.prop.CHAIN_ID>  (376) 
A A A A A A A A A A A Z Z Z Z Z Z Z Z Z Z Z Z Z Z Z

>  <atom.prop.IS_HEAVY_ATOM>  (376) 
1 0 0 0 1 0 0 1 0 0 0 1 0 0 0 1 1 0 1 0 1 0 1 0 1 0

>  <DIFUSE_FUNC_ATOM>  (376) 
n/a

>  <FINAL_SINGLE_POINT_ENERGY>  (376) 
0

>  <NONCOV_INTER_ENERGY_QM>  (376) 
0

>  <FF_Energy>  (376) 
-5.81

>  <QM_Energy>  (376) 
-11.17

>  <source>  (376) 
ETAM_MBZ

>  <Index>  (376) 
3602

$$$$
ETAM-pdb1esm-A-LYS-144:MBZ-pdb1esm-A-PHE-147
     RDKit          3D

 26 25  0  0  0  0  0  0  0  0999 V2000
    1.1165    0.0476   -3.6112 C   0  0  0  0  0  0  0  0  0  0  0  0
    0.8506    0.1015   -2.6547 H   0  0  0  0  0  0  0  0  0  0  0  0
    1.1842   -0.9014   -3.8996 H   0  0  0  0  0  0  0  0  0  0  0  0
    0.3644    0.5518   -4.2179 H   0  0  0  0  0  0  0  0  0  0  0  0
    2.4808    0.6997   -3.7720 C   0  0  0  0  0  0  0  0  0  0  0  0
    2.8772    0.4150   -4.6502 H   0  0  0  0  0  0  0  0  0  0  0  0
    2.3675    1.6980   -3.7798 H   0  0  0  0  0  0  0  0  0  0  0  0
    3.4224    0.3274   -2.6710 N   0  0  0  0  0  4  0  0  0  0  0  0
    4.2024    0.9511   -2.6814 H   0  0  0  0  0  0  0  0  0  0  0  0
    2.9463    0.3966   -1.7959 H   0  0  0  0  0  0  0  0  0  0  0  0
    3.7370   -0.6098   -2.8116 H   0  0  0  0  0  0  0  0  0  0  0  0
   -0.0127    2.8970    0.0499 C   0  0  0  0  0  0  0  0  0  0  0  0
   -0.4516    3.2313   -0.7705 H   0  0  0  0  0  0  0  0  0  0  0  0
    0.9227    3.2124    0.1110 H   0  0  0  0  0  0  0  0  0  0  0  0
   -0.5567    3.2964    0.9058 H   0  0  0  0  0  0  0  0  0  0  0  0
   -0.0018    1.4083    0.0008 C   0  0  0  0  0  0  0  0  0  0  0  0
   -1.1949    0.7025   -0.0017 C   0  0  0  0  0  0  0  0  0  0  0  0
   -2.0649    1.1837   -0.0058 H   0  0  0  0  0  0  0  0  0  0  0  0
   -1.2012   -0.7045    0.0000 C   0  0  0  0  0  0  0  0  0  0  0  0
   -2.0796   -1.1895    0.0014 H   0  0  0  0  0  0  0  0  0  0  0  0
    0.0001   -1.4053    0.0017 C   0  0  0  0  0  0  0  0  0  0  0  0
   -0.0025   -2.4004    0.0041 H   0  0  0  0  0  0  0  0  0  0  0  0
    1.2012   -0.7021   -0.0000 C   0  0  0  0  0  0  0  0  0  0  0  0
    2.0848   -1.1936    0.0005 H   0  0  0  0  0  0  0  0  0  0  0  0
    1.1967    0.7010   -0.0008 C   0  0  0  0  0  0  0  0  0  0  0  0
    2.0645    1.1917   -0.0030 H   0  0  0  0  0  0  0  0  0  0  0  0
  1  5  1  0
  5  8  1  0
  1  2  1  0
  1  3  1  0
  1  4  1  0
  5  6  1  0
  5  7  1  0
  8  9  1  0
  8 10  1  0
  8 11  1  0
 12 16  1  0
 16 17  2  0
 17 19  1  0
 19 21  2  0
 21 23  1  0
 23 25  2  0
 25 16  1  0
 12 13  1  0
 12 14  1  0
 12 15  1  0
 17 18  1  0
 19 20  1  0
 21 22  1  0
 23 24  1  0
 25 26  1  0
M  CHG  1   8   1
M  END
>  <PDB_ID>  (377) 
pdb1esm

>  <RESIDUE_NAME>  (377) 
LYS   PHE

>  <FRAG_NAME>  (377) 
ETAM   MBZ

>  <FRAG_ATOM_NUM>  (377) 
fragi: 11  fragj: 15

>  <atom.prop.CHAIN_ID>  (377) 
A A A A A A A A A A A Z Z Z Z Z Z Z Z Z Z Z Z Z Z Z

>  <atom.prop.IS_HEAVY_ATOM>  (377) 
1 0 0 0 1 0 0 1 0 0 0 1 0 0 0 1 1 0 1 0 1 0 1 0 1 0

>  <DIFUSE_FUNC_ATOM>  (377) 
n/a

>  <FINAL_SINGLE_POINT_ENERGY>  (377) 
0

>  <NONCOV_INTER_ENERGY_QM>  (377) 
0

>  <FF_Energy>  (377) 
-3.2

>  <QM_Energy>  (377) 
-9.6

>  <source>  (377) 
ETAM_MBZ

>  <Index>  (377) 
3621

$$$$
ETAM-pdb2flh-A-LYS-24:MBZ-pdb2flh-A-PHE-74
     RDKit          3D

 26 25  0  0  0  0  0  0  0  0999 V2000
    1.5987   -4.1752    1.5441 C   0  0  0  0  0  0  0  0  0  0  0  0
    2.3107   -4.2877    2.2636 H   0  0  0  0  0  0  0  0  0  0  0  0
    1.9252   -3.4379    0.9236 H   0  0  0  0  0  0  0  0  0  0  0  0
    1.5272   -5.1030    0.9763 H   0  0  0  0  0  0  0  0  0  0  0  0
    0.3324   -3.7106    2.2031 C   0  0  0  0  0  0  0  0  0  0  0  0
   -0.0904   -2.9952    1.6587 H   0  0  0  0  0  0  0  0  0  0  0  0
   -0.2919   -4.4751    2.3165 H   0  0  0  0  0  0  0  0  0  0  0  0
    0.6515   -3.1480    3.5685 N   0  0  0  0  0  4  0  0  0  0  0  0
    1.1461   -2.2914    3.4546 H   0  0  0  0  0  0  0  0  0  0  0  0
   -0.2015   -2.9895    4.0567 H   0  0  0  0  0  0  0  0  0  0  0  0
    1.2131   -3.8058    4.0624 H   0  0  0  0  0  0  0  0  0  0  0  0
    0.0172    2.9068    0.0168 C   0  0  0  0  0  0  0  0  0  0  0  0
    0.9207    3.1878    0.3280 H   0  0  0  0  0  0  0  0  0  0  0  0
   -0.6775    3.2068    0.6651 H   0  0  0  0  0  0  0  0  0  0  0  0
   -0.1808    3.3701   -0.9499 H   0  0  0  0  0  0  0  0  0  0  0  0
   -0.0013    1.3945    0.0151 C   0  0  0  0  0  0  0  0  0  0  0  0
   -1.1831    0.6784    0.0040 C   0  0  0  0  0  0  0  0  0  0  0  0
   -2.0564    1.1829   -0.0025 H   0  0  0  0  0  0  0  0  0  0  0  0
   -1.1920   -0.6773    0.0000 C   0  0  0  0  0  0  0  0  0  0  0  0
   -2.0750   -1.1796    0.0161 H   0  0  0  0  0  0  0  0  0  0  0  0
   -0.0091   -1.3728   -0.0244 C   0  0  0  0  0  0  0  0  0  0  0  0
   -0.0235   -2.3797   -0.0603 H   0  0  0  0  0  0  0  0  0  0  0  0
    1.1920   -0.7035   -0.0000 C   0  0  0  0  0  0  0  0  0  0  0  0
    2.0679   -1.2071    0.0155 H   0  0  0  0  0  0  0  0  0  0  0  0
    1.1934    0.6806    0.0053 C   0  0  0  0  0  0  0  0  0  0  0  0
    2.0624    1.1766    0.0009 H   0  0  0  0  0  0  0  0  0  0  0  0
  1  5  1  0
  5  8  1  0
  1  2  1  0
  1  3  1  0
  1  4  1  0
  5  6  1  0
  5  7  1  0
  8  9  1  0
  8 10  1  0
  8 11  1  0
 12 16  1  0
 16 17  2  0
 17 19  1  0
 19 21  2  0
 21 23  1  0
 23 25  2  0
 25 16  1  0
 12 13  1  0
 12 14  1  0
 12 15  1  0
 17 18  1  0
 19 20  1  0
 21 22  1  0
 23 24  1  0
 25 26  1  0
M  CHG  1   8   1
M  END
>  <PDB_ID>  (378) 
pdb2flh

>  <RESIDUE_NAME>  (378) 
LYS   PHE

>  <FRAG_NAME>  (378) 
ETAM   MBZ

>  <FRAG_ATOM_NUM>  (378) 
fragi: 11  fragj: 15

>  <atom.prop.CHAIN_ID>  (378) 
A A A A A A A A A A A Z Z Z Z Z Z Z Z Z Z Z Z Z Z Z

>  <atom.prop.IS_HEAVY_ATOM>  (378) 
1 0 0 0 1 0 0 1 0 0 0 1 0 0 0 1 1 0 1 0 1 0 1 0 1 0

>  <DIFUSE_FUNC_ATOM>  (378) 
n/a

>  <FINAL_SINGLE_POINT_ENERGY>  (378) 
0

>  <NONCOV_INTER_ENERGY_QM>  (378) 
0

>  <FF_Energy>  (378) 
3.75

>  <QM_Energy>  (378) 
-4.86

>  <source>  (378) 
ETAM_MBZ

>  <Index>  (378) 
3626

$$$$
ETAM-pdb1eu8-A-LYS-31:MBZ-pdb1eu8-A-PHE-315
     RDKit          3D

 26 25  0  0  0  0  0  0  0  0999 V2000
   -3.4041   -2.3911   -1.9457 C   0  0  0  0  0  0  0  0  0  0  0  0
   -2.5493   -1.9275   -1.7632 H   0  0  0  0  0  0  0  0  0  0  0  0
   -4.1723   -1.7746   -1.8530 H   0  0  0  0  0  0  0  0  0  0  0  0
   -3.3845   -2.7863   -2.9614 H   0  0  0  0  0  0  0  0  0  0  0  0
   -3.5681   -3.5256   -0.9111 C   0  0  0  0  0  0  0  0  0  0  0  0
   -4.4666   -3.9656   -1.0618 H   0  0  0  0  0  0  0  0  0  0  0  0
   -2.8536   -4.2200   -1.0844 H   0  0  0  0  0  0  0  0  0  0  0  0
   -3.4772   -3.0808    0.5207 N   0  0  0  0  0  4  0  0  0  0  0  0
   -4.3995   -2.9570    0.8814 H   0  0  0  0  0  0  0  0  0  0  0  0
   -2.9967   -3.7783    1.0479 H   0  0  0  0  0  0  0  0  0  0  0  0
   -2.9775   -2.2189    0.5619 H   0  0  0  0  0  0  0  0  0  0  0  0
   -0.0007    2.9066    0.0090 C   0  0  0  0  0  0  0  0  0  0  0  0
   -0.5621    3.2184   -0.7434 H   0  0  0  0  0  0  0  0  0  0  0  0
    0.9334    3.2168   -0.0857 H   0  0  0  0  0  0  0  0  0  0  0  0
   -0.4027    3.3398    0.9249 H   0  0  0  0  0  0  0  0  0  0  0  0
    0.0021    1.4067   -0.0003 C   0  0  0  0  0  0  0  0  0  0  0  0
   -1.1911    0.7035   -0.0006 C   0  0  0  0  0  0  0  0  0  0  0  0
   -2.0596    1.1902   -0.0025 H   0  0  0  0  0  0  0  0  0  0  0  0
   -1.2004   -0.6961    0.0000 C   0  0  0  0  0  0  0  0  0  0  0  0
   -2.0840   -1.1803    0.0014 H   0  0  0  0  0  0  0  0  0  0  0  0
   -0.0087   -1.4021    0.0007 C   0  0  0  0  0  0  0  0  0  0  0  0
   -0.0142   -2.3981    0.0010 H   0  0  0  0  0  0  0  0  0  0  0  0
    1.2004   -0.7075   -0.0000 C   0  0  0  0  0  0  0  0  0  0  0  0
    2.0781   -1.2025    0.0014 H   0  0  0  0  0  0  0  0  0  0  0  0
    1.1977    0.6955    0.0002 C   0  0  0  0  0  0  0  0  0  0  0  0
    2.0680    1.1849    0.0004 H   0  0  0  0  0  0  0  0  0  0  0  0
  1  5  1  0
  5  8  1  0
  1  2  1  0
  1  3  1  0
  1  4  1  0
  5  6  1  0
  5  7  1  0
  8  9  1  0
  8 10  1  0
  8 11  1  0
 12 16  1  0
 16 17  2  0
 17 19  1  0
 19 21  2  0
 21 23  1  0
 23 25  2  0
 25 16  1  0
 12 13  1  0
 12 14  1  0
 12 15  1  0
 17 18  1  0
 19 20  1  0
 21 22  1  0
 23 24  1  0
 25 26  1  0
M  CHG  1   8   1
M  END
>  <PDB_ID>  (379) 
pdb1eu8

>  <RESIDUE_NAME>  (379) 
LYS   PHE

>  <FRAG_NAME>  (379) 
ETAM   MBZ

>  <FRAG_ATOM_NUM>  (379) 
fragi: 11  fragj: 15

>  <atom.prop.CHAIN_ID>  (379) 
A A A A A A A A A A A Z Z Z Z Z Z Z Z Z Z Z Z Z Z Z

>  <atom.prop.IS_HEAVY_ATOM>  (379) 
1 0 0 0 1 0 0 1 0 0 0 1 0 0 0 1 1 0 1 0 1 0 1 0 1 0

>  <DIFUSE_FUNC_ATOM>  (379) 
n/a

>  <FINAL_SINGLE_POINT_ENERGY>  (379) 
0

>  <NONCOV_INTER_ENERGY_QM>  (379) 
0

>  <FF_Energy>  (379) 
5.36

>  <QM_Energy>  (379) 
-1.01

>  <source>  (379) 
ETAM_MBZ

>  <Index>  (379) 
3627

$$$$
ETAM-pdb2flo-C-LYS-429:MBZ-pdb2flo-C-PHE-432
     RDKit          3D

 26 25  0  0  0  0  0  0  0  0999 V2000
    0.2670   -3.5605    3.2722 C   0  0  0  0  0  0  0  0  0  0  0  0
    0.1669   -4.2010    4.0261 H   0  0  0  0  0  0  0  0  0  0  0  0
   -0.0803   -2.6652    3.5277 H   0  0  0  0  0  0  0  0  0  0  0  0
    1.3263   -3.4679    3.0323 H   0  0  0  0  0  0  0  0  0  0  0  0
   -0.5464   -4.0775    2.0829 C   0  0  0  0  0  0  0  0  0  0  0  0
   -1.5300   -4.0138    2.3125 H   0  0  0  0  0  0  0  0  0  0  0  0
   -0.3784   -3.4719    1.2890 H   0  0  0  0  0  0  0  0  0  0  0  0
   -0.2340   -5.4905    1.6869 N   0  0  0  0  0  4  0  0  0  0  0  0
    0.5186   -5.8274    2.2491 H   0  0  0  0  0  0  0  0  0  0  0  0
   -1.0440   -6.0553    1.8292 H   0  0  0  0  0  0  0  0  0  0  0  0
    0.0270   -5.5090    0.7244 H   0  0  0  0  0  0  0  0  0  0  0  0
    0.0008    2.8898   -0.0234 C   0  0  0  0  0  0  0  0  0  0  0  0
   -0.7862    3.1919   -0.5475 H   0  0  0  0  0  0  0  0  0  0  0  0
    0.8438    3.1915   -0.4531 H   0  0  0  0  0  0  0  0  0  0  0  0
   -0.0557    3.3671    0.9549 H   0  0  0  0  0  0  0  0  0  0  0  0
   -0.0025    1.3994    0.0108 C   0  0  0  0  0  0  0  0  0  0  0  0
   -1.2018    0.6971   -0.0121 C   0  0  0  0  0  0  0  0  0  0  0  0
   -2.0653    1.1923   -0.0390 H   0  0  0  0  0  0  0  0  0  0  0  0
   -1.2129   -0.6908   -0.0000 C   0  0  0  0  0  0  0  0  0  0  0  0
   -2.0831   -1.1882    0.0087 H   0  0  0  0  0  0  0  0  0  0  0  0
    0.0032   -1.3996    0.0026 C   0  0  0  0  0  0  0  0  0  0  0  0
   -0.0072   -2.3927    0.0060 H   0  0  0  0  0  0  0  0  0  0  0  0
    1.2129   -0.7004    0.0000 C   0  0  0  0  0  0  0  0  0  0  0  0
    2.0901   -1.1962    0.0005 H   0  0  0  0  0  0  0  0  0  0  0  0
    1.2011    0.6944   -0.0013 C   0  0  0  0  0  0  0  0  0  0  0  0
    2.0660    1.1942   -0.0121 H   0  0  0  0  0  0  0  0  0  0  0  0
  1  5  1  0
  5  8  1  0
  1  2  1  0
  1  3  1  0
  1  4  1  0
  5  6  1  0
  5  7  1  0
  8  9  1  0
  8 10  1  0
  8 11  1  0
 12 16  1  0
 16 17  2  0
 17 19  1  0
 19 21  2  0
 21 23  1  0
 23 25  2  0
 25 16  1  0
 12 13  1  0
 12 14  1  0
 12 15  1  0
 17 18  1  0
 19 20  1  0
 21 22  1  0
 23 24  1  0
 25 26  1  0
M  CHG  1   8   1
M  END
>  <PDB_ID>  (380) 
pdb2flo

>  <RESIDUE_NAME>  (380) 
LYS   PHE

>  <FRAG_NAME>  (380) 
ETAM   MBZ

>  <FRAG_ATOM_NUM>  (380) 
fragi: 11  fragj: 15

>  <atom.prop.CHAIN_ID>  (380) 
A A A A A A A A A A A Z Z Z Z Z Z Z Z Z Z Z Z Z Z Z

>  <atom.prop.IS_HEAVY_ATOM>  (380) 
1 0 0 0 1 0 0 1 0 0 0 1 0 0 0 1 1 0 1 0 1 0 1 0 1 0

>  <DIFUSE_FUNC_ATOM>  (380) 
n/a

>  <FINAL_SINGLE_POINT_ENERGY>  (380) 
0

>  <NONCOV_INTER_ENERGY_QM>  (380) 
0

>  <FF_Energy>  (380) 
7.47

>  <QM_Energy>  (380) 
-1.94

>  <source>  (380) 
ETAM_MBZ

>  <Index>  (380) 
3647

$$$$
ETAM-pdb1esm-B-LYS-144:MBZ-pdb1esm-B-PHE-147
     RDKit          3D

 26 25  0  0  0  0  0  0  0  0999 V2000
    1.0724    0.0287   -3.6112 C   0  0  0  0  0  0  0  0  0  0  0  0
    0.8539    0.1847   -2.6500 H   0  0  0  0  0  0  0  0  0  0  0  0
    1.1025   -0.9505   -3.7979 H   0  0  0  0  0  0  0  0  0  0  0  0
    0.2982    0.4841   -4.2288 H   0  0  0  0  0  0  0  0  0  0  0  0
    2.4384    0.6171   -3.8977 C   0  0  0  0  0  0  0  0  0  0  0  0
    2.7765    0.2587   -4.7661 H   0  0  0  0  0  0  0  0  0  0  0  0
    2.3652    1.6112   -3.9488 H   0  0  0  0  0  0  0  0  0  0  0  0
    3.4035    0.2559   -2.8136 N   0  0  0  0  0  4  0  0  0  0  0  0
    4.0230   -0.4516   -3.1482 H   0  0  0  0  0  0  0  0  0  0  0  0
    3.9254    1.0675   -2.5552 H   0  0  0  0  0  0  0  0  0  0  0  0
    2.8971   -0.0848   -2.0241 H   0  0  0  0  0  0  0  0  0  0  0  0
   -0.0080    2.8911    0.0133 C   0  0  0  0  0  0  0  0  0  0  0  0
   -0.4407    3.2037   -0.8193 H   0  0  0  0  0  0  0  0  0  0  0  0
    0.9291    3.2028    0.0693 H   0  0  0  0  0  0  0  0  0  0  0  0
   -0.5538    3.3156    0.8559 H   0  0  0  0  0  0  0  0  0  0  0  0
   -0.0008    1.3968    0.0005 C   0  0  0  0  0  0  0  0  0  0  0  0
   -1.2001    0.6864   -0.0006 C   0  0  0  0  0  0  0  0  0  0  0  0
   -2.0652    1.1817   -0.0038 H   0  0  0  0  0  0  0  0  0  0  0  0
   -1.2075   -0.6980    0.0000 C   0  0  0  0  0  0  0  0  0  0  0  0
   -2.0777   -1.1966    0.0013 H   0  0  0  0  0  0  0  0  0  0  0  0
    0.0030   -1.3918    0.0008 C   0  0  0  0  0  0  0  0  0  0  0  0
    0.0016   -2.3895    0.0016 H   0  0  0  0  0  0  0  0  0  0  0  0
    1.2075   -0.6901   -0.0000 C   0  0  0  0  0  0  0  0  0  0  0  0
    2.0870   -1.1890    0.0015 H   0  0  0  0  0  0  0  0  0  0  0  0
    1.1979    0.6967   -0.0006 C   0  0  0  0  0  0  0  0  0  0  0  0
    2.0634    1.1980   -0.0024 H   0  0  0  0  0  0  0  0  0  0  0  0
  1  5  1  0
  5  8  1  0
  1  2  1  0
  1  3  1  0
  1  4  1  0
  5  6  1  0
  5  7  1  0
  8  9  1  0
  8 10  1  0
  8 11  1  0
 12 16  1  0
 16 17  2  0
 17 19  1  0
 19 21  2  0
 21 23  1  0
 23 25  2  0
 25 16  1  0
 12 13  1  0
 12 14  1  0
 12 15  1  0
 17 18  1  0
 19 20  1  0
 21 22  1  0
 23 24  1  0
 25 26  1  0
M  CHG  1   8   1
M  END
>  <PDB_ID>  (381) 
pdb1esm

>  <RESIDUE_NAME>  (381) 
LYS   PHE

>  <FRAG_NAME>  (381) 
ETAM   MBZ

>  <FRAG_ATOM_NUM>  (381) 
fragi: 11  fragj: 15

>  <atom.prop.CHAIN_ID>  (381) 
A A A A A A A A A A A Z Z Z Z Z Z Z Z Z Z Z Z Z Z Z

>  <atom.prop.IS_HEAVY_ATOM>  (381) 
1 0 0 0 1 0 0 1 0 0 0 1 0 0 0 1 1 0 1 0 1 0 1 0 1 0

>  <DIFUSE_FUNC_ATOM>  (381) 
n/a

>  <FINAL_SINGLE_POINT_ENERGY>  (381) 
0

>  <NONCOV_INTER_ENERGY_QM>  (381) 
0

>  <FF_Energy>  (381) 
-3.37

>  <QM_Energy>  (381) 
-9.32

>  <source>  (381) 
ETAM_MBZ

>  <Index>  (381) 
3654

$$$$
ETAM-pdb2fmk-A-LYS-7:MBZ-pdb2fmk-A-PHE-51
     RDKit          3D

 26 25  0  0  0  0  0  0  0  0999 V2000
   -0.7464    0.2312   -3.6427 C   0  0  0  0  0  0  0  0  0  0  0  0
   -0.4131    0.7269   -4.4473 H   0  0  0  0  0  0  0  0  0  0  0  0
   -0.4371    0.7032   -2.8144 H   0  0  0  0  0  0  0  0  0  0  0  0
   -1.8362    0.2444   -3.6593 H   0  0  0  0  0  0  0  0  0  0  0  0
   -0.1821   -1.1578   -3.6548 C   0  0  0  0  0  0  0  0  0  0  0  0
   -0.4080   -1.6225   -2.8088 H   0  0  0  0  0  0  0  0  0  0  0  0
   -0.5324   -1.6593   -4.4361 H   0  0  0  0  0  0  0  0  0  0  0  0
    1.3163   -1.0726   -3.7708 N   0  0  0  0  0  4  0  0  0  0  0  0
    1.5635   -0.1649   -4.1000 H   0  0  0  0  0  0  0  0  0  0  0  0
    1.7199   -1.2324   -2.8736 H   0  0  0  0  0  0  0  0  0  0  0  0
    1.6303   -1.7661   -4.4145 H   0  0  0  0  0  0  0  0  0  0  0  0
   -0.0027    2.8969   -0.0238 C   0  0  0  0  0  0  0  0  0  0  0  0
    0.8619    3.2151    0.3336 H   0  0  0  0  0  0  0  0  0  0  0  0
   -0.7604    3.2149    0.5244 H   0  0  0  0  0  0  0  0  0  0  0  0
   -0.1213    3.3098   -1.0256 H   0  0  0  0  0  0  0  0  0  0  0  0
    0.0006    1.4040    0.0024 C   0  0  0  0  0  0  0  0  0  0  0  0
   -1.1997    0.6964   -0.0014 C   0  0  0  0  0  0  0  0  0  0  0  0
   -2.0649    1.1834   -0.0068 H   0  0  0  0  0  0  0  0  0  0  0  0
   -1.2021   -0.7024    0.0000 C   0  0  0  0  0  0  0  0  0  0  0  0
   -2.0783   -1.1937   -0.0038 H   0  0  0  0  0  0  0  0  0  0  0  0
    0.0001   -1.3967    0.0082 C   0  0  0  0  0  0  0  0  0  0  0  0
   -0.0005   -2.3946    0.0189 H   0  0  0  0  0  0  0  0  0  0  0  0
    1.2021   -0.6965    0.0000 C   0  0  0  0  0  0  0  0  0  0  0  0
    2.0843   -1.1949    0.0018 H   0  0  0  0  0  0  0  0  0  0  0  0
    1.1990    0.6952   -0.0092 C   0  0  0  0  0  0  0  0  0  0  0  0
    2.0655    1.1910   -0.0246 H   0  0  0  0  0  0  0  0  0  0  0  0
  1  5  1  0
  5  8  1  0
  1  2  1  0
  1  3  1  0
  1  4  1  0
  5  6  1  0
  5  7  1  0
  8  9  1  0
  8 10  1  0
  8 11  1  0
 12 16  1  0
 16 17  2  0
 17 19  1  0
 19 21  2  0
 21 23  1  0
 23 25  2  0
 25 16  1  0
 12 13  1  0
 12 14  1  0
 12 15  1  0
 17 18  1  0
 19 20  1  0
 21 22  1  0
 23 24  1  0
 25 26  1  0
M  CHG  1   8   1
M  END
>  <PDB_ID>  (382) 
pdb2fmk

>  <RESIDUE_NAME>  (382) 
LYS   PHE

>  <FRAG_NAME>  (382) 
ETAM   MBZ

>  <FRAG_ATOM_NUM>  (382) 
fragi: 11  fragj: 15

>  <atom.prop.CHAIN_ID>  (382) 
A A A A A A A A A A A Z Z Z Z Z Z Z Z Z Z Z Z Z Z Z

>  <atom.prop.IS_HEAVY_ATOM>  (382) 
1 0 0 0 1 0 0 1 0 0 0 1 0 0 0 1 1 0 1 0 1 0 1 0 1 0

>  <DIFUSE_FUNC_ATOM>  (382) 
n/a

>  <FINAL_SINGLE_POINT_ENERGY>  (382) 
0

>  <NONCOV_INTER_ENERGY_QM>  (382) 
0

>  <FF_Energy>  (382) 
-6.01

>  <QM_Energy>  (382) 
-11.98

>  <source>  (382) 
ETAM_MBZ

>  <Index>  (382) 
3657

$$$$
ETAM-pdb1ev4-A-LYS-205:MBZ-pdb1ev4-A-PHE-34
     RDKit          3D

 26 25  0  0  0  0  0  0  0  0999 V2000
   -1.4217   -3.8643    3.4179 C   0  0  0  0  0  0  0  0  0  0  0  0
   -1.3651   -3.1757    4.0972 H   0  0  0  0  0  0  0  0  0  0  0  0
   -0.7190   -4.5302    3.4524 H   0  0  0  0  0  0  0  0  0  0  0  0
   -2.3870   -4.3637    3.5014 H   0  0  0  0  0  0  0  0  0  0  0  0
   -1.4694   -3.2476    2.0755 C   0  0  0  0  0  0  0  0  0  0  0  0
   -2.3618   -2.7839    1.9413 H   0  0  0  0  0  0  0  0  0  0  0  0
   -0.7487   -2.5365    1.9966 H   0  0  0  0  0  0  0  0  0  0  0  0
   -1.2808   -4.2252    0.9650 N   0  0  0  0  0  4  0  0  0  0  0  0
   -1.4489   -5.1490    1.3065 H   0  0  0  0  0  0  0  0  0  0  0  0
   -1.9229   -4.0158    0.2290 H   0  0  0  0  0  0  0  0  0  0  0  0
   -0.3445   -4.1591    0.6228 H   0  0  0  0  0  0  0  0  0  0  0  0
   -0.0074    2.8599    0.0488 C   0  0  0  0  0  0  0  0  0  0  0  0
    0.8780    3.1860   -0.2611 H   0  0  0  0  0  0  0  0  0  0  0  0
   -0.1753    3.1431    0.9853 H   0  0  0  0  0  0  0  0  0  0  0  0
   -0.7700    3.3199   -0.5795 H   0  0  0  0  0  0  0  0  0  0  0  0
   -0.0026    1.3809    0.0019 C   0  0  0  0  0  0  0  0  0  0  0  0
   -1.1958    0.6792   -0.0011 C   0  0  0  0  0  0  0  0  0  0  0  0
   -2.0604    1.1853   -0.0055 H   0  0  0  0  0  0  0  0  0  0  0  0
   -1.2035   -0.6800    0.0000 C   0  0  0  0  0  0  0  0  0  0  0  0
   -2.0727   -1.1907    0.0018 H   0  0  0  0  0  0  0  0  0  0  0  0
    0.0059   -1.3784    0.0005 C   0  0  0  0  0  0  0  0  0  0  0  0
   -0.0036   -2.3780    0.0007 H   0  0  0  0  0  0  0  0  0  0  0  0
    1.2035   -0.6858   -0.0000 C   0  0  0  0  0  0  0  0  0  0  0  0
    2.0841   -1.1894    0.0022 H   0  0  0  0  0  0  0  0  0  0  0  0
    1.1925    0.6841   -0.0013 C   0  0  0  0  0  0  0  0  0  0  0  0
    2.0573    1.1930   -0.0056 H   0  0  0  0  0  0  0  0  0  0  0  0
  1  5  1  0
  5  8  1  0
  1  2  1  0
  1  3  1  0
  1  4  1  0
  5  6  1  0
  5  7  1  0
  8  9  1  0
  8 10  1  0
  8 11  1  0
 12 16  1  0
 16 17  2  0
 17 19  1  0
 19 21  2  0
 21 23  1  0
 23 25  2  0
 25 16  1  0
 12 13  1  0
 12 14  1  0
 12 15  1  0
 17 18  1  0
 19 20  1  0
 21 22  1  0
 23 24  1  0
 25 26  1  0
M  CHG  1   8   1
M  END
>  <PDB_ID>  (383) 
pdb1ev4

>  <RESIDUE_NAME>  (383) 
LYS   PHE

>  <FRAG_NAME>  (383) 
ETAM   MBZ

>  <FRAG_ATOM_NUM>  (383) 
fragi: 11  fragj: 15

>  <atom.prop.CHAIN_ID>  (383) 
A A A A A A A A A A A Z Z Z Z Z Z Z Z Z Z Z Z Z Z Z

>  <atom.prop.IS_HEAVY_ATOM>  (383) 
1 0 0 0 1 0 0 1 0 0 0 1 0 0 0 1 1 0 1 0 1 0 1 0 1 0

>  <DIFUSE_FUNC_ATOM>  (383) 
n/a

>  <FINAL_SINGLE_POINT_ENERGY>  (383) 
0

>  <NONCOV_INTER_ENERGY_QM>  (383) 
0

>  <FF_Energy>  (383) 
5.12

>  <QM_Energy>  (383) 
-3.13

>  <source>  (383) 
ETAM_MBZ

>  <Index>  (383) 
3663

$$$$
ETAM-pdb1euz-A-LYS-84:MBZ-pdb1euz-A-PHE-7
     RDKit          3D

 26 25  0  0  0  0  0  0  0  0999 V2000
   -0.2271    0.7992   -4.6019 C   0  0  0  0  0  0  0  0  0  0  0  0
    0.0820    0.3122   -5.4126 H   0  0  0  0  0  0  0  0  0  0  0  0
    0.1069    1.7359   -4.6132 H   0  0  0  0  0  0  0  0  0  0  0  0
   -1.3169    0.8190   -4.6046 H   0  0  0  0  0  0  0  0  0  0  0  0
    0.2913    0.1052   -3.3807 C   0  0  0  0  0  0  0  0  0  0  0  0
    0.1826    0.7028   -2.5874 H   0  0  0  0  0  0  0  0  0  0  0  0
   -0.2217   -0.7398   -3.2349 H   0  0  0  0  0  0  0  0  0  0  0  0
    1.7201   -0.2171   -3.5561 N   0  0  0  0  0  4  0  0  0  0  0  0
    1.8823   -1.1765   -3.3184 H   0  0  0  0  0  0  0  0  0  0  0  0
    1.9862   -0.0641   -4.5100 H   0  0  0  0  0  0  0  0  0  0  0  0
    2.2739    0.3687   -2.9615 H   0  0  0  0  0  0  0  0  0  0  0  0
   -0.0079    2.8958    0.0664 C   0  0  0  0  0  0  0  0  0  0  0  0
   -0.4914    3.2363   -0.7242 H   0  0  0  0  0  0  0  0  0  0  0  0
    0.9291    3.2080    0.0809 H   0  0  0  0  0  0  0  0  0  0  0  0
   -0.5039    3.2853    0.9554 H   0  0  0  0  0  0  0  0  0  0  0  0
   -0.0005    1.4010    0.0005 C   0  0  0  0  0  0  0  0  0  0  0  0
   -1.1957    0.6895   -0.0014 C   0  0  0  0  0  0  0  0  0  0  0  0
   -2.0639    1.1804   -0.0055 H   0  0  0  0  0  0  0  0  0  0  0  0
   -1.2046   -0.7026   -0.0000 C   0  0  0  0  0  0  0  0  0  0  0  0
   -2.0788   -1.1950    0.0028 H   0  0  0  0  0  0  0  0  0  0  0  0
    0.0000   -1.3934   -0.0006 C   0  0  0  0  0  0  0  0  0  0  0  0
    0.0019   -2.3924   -0.0024 H   0  0  0  0  0  0  0  0  0  0  0  0
    1.2046   -0.6928    0.0000 C   0  0  0  0  0  0  0  0  0  0  0  0
    2.0843   -1.1902    0.0007 H   0  0  0  0  0  0  0  0  0  0  0  0
    1.1962    0.6982    0.0015 C   0  0  0  0  0  0  0  0  0  0  0  0
    2.0638    1.1959    0.0018 H   0  0  0  0  0  0  0  0  0  0  0  0
  1  5  1  0
  5  8  1  0
  1  2  1  0
  1  3  1  0
  1  4  1  0
  5  6  1  0
  5  7  1  0
  8  9  1  0
  8 10  1  0
  8 11  1  0
 12 16  1  0
 16 17  2  0
 17 19  1  0
 19 21  2  0
 21 23  1  0
 23 25  2  0
 25 16  1  0
 12 13  1  0
 12 14  1  0
 12 15  1  0
 17 18  1  0
 19 20  1  0
 21 22  1  0
 23 24  1  0
 25 26  1  0
M  CHG  1   8   1
M  END
>  <PDB_ID>  (384) 
pdb1euz

>  <RESIDUE_NAME>  (384) 
LYS   PHE

>  <FRAG_NAME>  (384) 
ETAM   MBZ

>  <FRAG_ATOM_NUM>  (384) 
fragi: 11  fragj: 15

>  <atom.prop.CHAIN_ID>  (384) 
A A A A A A A A A A A Z Z Z Z Z Z Z Z Z Z Z Z Z Z Z

>  <atom.prop.IS_HEAVY_ATOM>  (384) 
1 0 0 0 1 0 0 1 0 0 0 1 0 0 0 1 1 0 1 0 1 0 1 0 1 0

>  <DIFUSE_FUNC_ATOM>  (384) 
n/a

>  <FINAL_SINGLE_POINT_ENERGY>  (384) 
0

>  <NONCOV_INTER_ENERGY_QM>  (384) 
0

>  <FF_Energy>  (384) 
-6.05

>  <QM_Energy>  (384) 
-11.84

>  <source>  (384) 
ETAM_MBZ

>  <Index>  (384) 
3665

$$$$
ETAM-pdb2fn4-A-LYS-130:MBZ-pdb2fn4-A-PHE-135
     RDKit          3D

 26 25  0  0  0  0  0  0  0  0999 V2000
   -1.0002   -0.1071   -3.9281 C   0  0  0  0  0  0  0  0  0  0  0  0
   -1.7910   -0.3306   -3.3702 H   0  0  0  0  0  0  0  0  0  0  0  0
   -1.1859   -0.2908   -4.8866 H   0  0  0  0  0  0  0  0  0  0  0  0
   -0.7739    0.9524   -3.8087 H   0  0  0  0  0  0  0  0  0  0  0  0
    0.1661   -0.9590   -3.4852 C   0  0  0  0  0  0  0  0  0  0  0  0
    0.9687   -0.7285   -4.0494 H   0  0  0  0  0  0  0  0  0  0  0  0
    0.3837   -0.7373   -2.5258 H   0  0  0  0  0  0  0  0  0  0  0  0
   -0.1210   -2.3922   -3.6035 N   0  0  0  0  0  4  0  0  0  0  0  0
    0.0004   -2.8398   -2.7143 H   0  0  0  0  0  0  0  0  0  0  0  0
   -1.0663   -2.5281   -3.9108 H   0  0  0  0  0  0  0  0  0  0  0  0
    0.5020   -2.8124   -4.2684 H   0  0  0  0  0  0  0  0  0  0  0  0
   -0.0302    2.8630    0.0579 C   0  0  0  0  0  0  0  0  0  0  0  0
   -0.7687    3.1973   -0.5008 H   0  0  0  0  0  0  0  0  0  0  0  0
    0.8435    3.2081   -0.2400 H   0  0  0  0  0  0  0  0  0  0  0  0
   -0.1967    3.2342    1.0691 H   0  0  0  0  0  0  0  0  0  0  0  0
   -0.0103    1.3883   -0.0050 C   0  0  0  0  0  0  0  0  0  0  0  0
   -1.2040    0.6774    0.0030 C   0  0  0  0  0  0  0  0  0  0  0  0
   -2.0713    1.1679    0.0095 H   0  0  0  0  0  0  0  0  0  0  0  0
   -1.1997   -0.7027    0.0000 C   0  0  0  0  0  0  0  0  0  0  0  0
   -2.0613   -1.2124   -0.0028 H   0  0  0  0  0  0  0  0  0  0  0  0
    0.0205   -1.3783    0.0023 C   0  0  0  0  0  0  0  0  0  0  0  0
    0.0172   -2.3849    0.0050 H   0  0  0  0  0  0  0  0  0  0  0  0
    1.1997   -0.6838    0.0000 C   0  0  0  0  0  0  0  0  0  0  0  0
    2.0918   -1.1767    0.0001 H   0  0  0  0  0  0  0  0  0  0  0  0
    1.1939    0.6992   -0.0003 C   0  0  0  0  0  0  0  0  0  0  0  0
    2.0534    1.2024    0.0022 H   0  0  0  0  0  0  0  0  0  0  0  0
  1  5  1  0
  5  8  1  0
  1  2  1  0
  1  3  1  0
  1  4  1  0
  5  6  1  0
  5  7  1  0
  8  9  1  0
  8 10  1  0
  8 11  1  0
 12 16  1  0
 16 17  2  0
 17 19  1  0
 19 21  2  0
 21 23  1  0
 23 25  2  0
 25 16  1  0
 12 13  1  0
 12 14  1  0
 12 15  1  0
 17 18  1  0
 19 20  1  0
 21 22  1  0
 23 24  1  0
 25 26  1  0
M  CHG  1   8   1
M  END
>  <PDB_ID>  (385) 
pdb2fn4

>  <RESIDUE_NAME>  (385) 
LYS   PHE

>  <FRAG_NAME>  (385) 
ETAM   MBZ

>  <FRAG_ATOM_NUM>  (385) 
fragi: 11  fragj: 15

>  <atom.prop.CHAIN_ID>  (385) 
A A A A A A A A A A A Z Z Z Z Z Z Z Z Z Z Z Z Z Z Z

>  <atom.prop.IS_HEAVY_ATOM>  (385) 
1 0 0 0 1 0 0 1 0 0 0 1 0 0 0 1 1 0 1 0 1 0 1 0 1 0

>  <DIFUSE_FUNC_ATOM>  (385) 
n/a

>  <FINAL_SINGLE_POINT_ENERGY>  (385) 
0

>  <NONCOV_INTER_ENERGY_QM>  (385) 
0

>  <FF_Energy>  (385) 
-4.35

>  <QM_Energy>  (385) 
-10.66

>  <source>  (385) 
ETAM_MBZ

>  <Index>  (385) 
3670

$$$$
ETAM-pdb2fn8-A-LYS-124:MBZ-pdb2fn8-A-PHE-120
     RDKit          3D

 26 25  0  0  0  0  0  0  0  0999 V2000
   -2.4636   -2.1006   -4.2267 C   0  0  0  0  0  0  0  0  0  0  0  0
   -3.2494   -2.7115   -4.3253 H   0  0  0  0  0  0  0  0  0  0  0  0
   -2.1636   -1.7949   -5.1300 H   0  0  0  0  0  0  0  0  0  0  0  0
   -2.7680   -1.2305   -3.6450 H   0  0  0  0  0  0  0  0  0  0  0  0
   -1.3195   -2.8883   -3.5812 C   0  0  0  0  0  0  0  0  0  0  0  0
   -1.6081   -3.1703   -2.6574 H   0  0  0  0  0  0  0  0  0  0  0  0
   -1.1576   -3.7216   -4.1262 H   0  0  0  0  0  0  0  0  0  0  0  0
   -0.0565   -2.1124   -3.4847 N   0  0  0  0  0  4  0  0  0  0  0  0
    0.2531   -1.8647   -4.4021 H   0  0  0  0  0  0  0  0  0  0  0  0
   -0.2157   -1.2818   -2.9513 H   0  0  0  0  0  0  0  0  0  0  0  0
    0.6424   -2.6689   -3.0353 H   0  0  0  0  0  0  0  0  0  0  0  0
    0.0072    2.9144   -0.0018 C   0  0  0  0  0  0  0  0  0  0  0  0
    0.8754    3.2164    0.3605 H   0  0  0  0  0  0  0  0  0  0  0  0
   -0.7440    3.2195    0.5631 H   0  0  0  0  0  0  0  0  0  0  0  0
   -0.1152    3.3669   -0.9859 H   0  0  0  0  0  0  0  0  0  0  0  0
    0.0037    1.3998   -0.0044 C   0  0  0  0  0  0  0  0  0  0  0  0
   -1.1890    0.6879    0.0060 C   0  0  0  0  0  0  0  0  0  0  0  0
   -2.0569    1.1805    0.0163 H   0  0  0  0  0  0  0  0  0  0  0  0
   -1.1915   -0.6927   -0.0000 C   0  0  0  0  0  0  0  0  0  0  0  0
   -2.0735   -1.1886    0.0007 H   0  0  0  0  0  0  0  0  0  0  0  0
   -0.0014   -1.3900   -0.0049 C   0  0  0  0  0  0  0  0  0  0  0  0
   -0.0081   -2.3896   -0.0131 H   0  0  0  0  0  0  0  0  0  0  0  0
    1.1915   -0.6991    0.0000 C   0  0  0  0  0  0  0  0  0  0  0  0
    2.0759   -1.1926    0.0027 H   0  0  0  0  0  0  0  0  0  0  0  0
    1.1867    0.6940    0.0033 C   0  0  0  0  0  0  0  0  0  0  0  0
    2.0619    1.1849    0.0104 H   0  0  0  0  0  0  0  0  0  0  0  0
  1  5  1  0
  5  8  1  0
  1  2  1  0
  1  3  1  0
  1  4  1  0
  5  6  1  0
  5  7  1  0
  8  9  1  0
  8 10  1  0
  8 11  1  0
 12 16  1  0
 16 17  2  0
 17 19  1  0
 19 21  2  0
 21 23  1  0
 23 25  2  0
 25 16  1  0
 12 13  1  0
 12 14  1  0
 12 15  1  0
 17 18  1  0
 19 20  1  0
 21 22  1  0
 23 24  1  0
 25 26  1  0
M  CHG  1   8   1
M  END
>  <PDB_ID>  (386) 
pdb2fn8

>  <RESIDUE_NAME>  (386) 
LYS   PHE

>  <FRAG_NAME>  (386) 
ETAM   MBZ

>  <FRAG_ATOM_NUM>  (386) 
fragi: 11  fragj: 15

>  <atom.prop.CHAIN_ID>  (386) 
A A A A A A A A A A A Z Z Z Z Z Z Z Z Z Z Z Z Z Z Z

>  <atom.prop.IS_HEAVY_ATOM>  (386) 
1 0 0 0 1 0 0 1 0 0 0 1 0 0 0 1 1 0 1 0 1 0 1 0 1 0

>  <DIFUSE_FUNC_ATOM>  (386) 
n/a

>  <FINAL_SINGLE_POINT_ENERGY>  (386) 
0

>  <NONCOV_INTER_ENERGY_QM>  (386) 
0

>  <FF_Energy>  (386) 
-4.82

>  <QM_Energy>  (386) 
-10.48

>  <source>  (386) 
ETAM_MBZ

>  <Index>  (386) 
3681

$$$$
ETAM-pdb1ew2-A-LYS-87:MBZ-pdb1ew2-A-PHE-107
     RDKit          3D

 26 25  0  0  0  0  0  0  0  0999 V2000
    0.3926    0.7373    3.5830 C   0  0  0  0  0  0  0  0  0  0  0  0
    0.6702    0.5222    2.6546 H   0  0  0  0  0  0  0  0  0  0  0  0
    0.5661   -0.0284    4.1895 H   0  0  0  0  0  0  0  0  0  0  0  0
    0.9299    1.6182    3.9346 H   0  0  0  0  0  0  0  0  0  0  0  0
   -1.1290    0.9903    3.5707 C   0  0  0  0  0  0  0  0  0  0  0  0
   -1.4034    1.3148    4.4610 H   0  0  0  0  0  0  0  0  0  0  0  0
   -1.3358    1.6467    2.8637 H   0  0  0  0  0  0  0  0  0  0  0  0
   -1.8238   -0.3035    3.2731 N   0  0  0  0  0  4  0  0  0  0  0  0
   -1.4001   -0.7253    2.4743 H   0  0  0  0  0  0  0  0  0  0  0  0
   -1.7390   -0.9090    4.0617 H   0  0  0  0  0  0  0  0  0  0  0  0
   -2.7874   -0.1223    3.0889 H   0  0  0  0  0  0  0  0  0  0  0  0
   -0.0016    2.8829    0.0660 C   0  0  0  0  0  0  0  0  0  0  0  0
    0.8313    3.1567    0.6102 H   0  0  0  0  0  0  0  0  0  0  0  0
   -0.8011    3.1562    0.6594 H   0  0  0  0  0  0  0  0  0  0  0  0
   -0.0287    3.5196   -0.8183 H   0  0  0  0  0  0  0  0  0  0  0  0
   -0.0033    1.3914   -0.0037 C   0  0  0  0  0  0  0  0  0  0  0  0
   -1.1993    0.6945    0.0130 C   0  0  0  0  0  0  0  0  0  0  0  0
   -2.0651    1.1827    0.0332 H   0  0  0  0  0  0  0  0  0  0  0  0
   -1.2040   -0.6991    0.0000 C   0  0  0  0  0  0  0  0  0  0  0  0
   -2.0693   -1.1960    0.0107 H   0  0  0  0  0  0  0  0  0  0  0  0
    0.0106   -1.3732   -0.0262 C   0  0  0  0  0  0  0  0  0  0  0  0
    0.0015   -2.3859   -0.0664 H   0  0  0  0  0  0  0  0  0  0  0  0
    1.2040   -0.7001   -0.0000 C   0  0  0  0  0  0  0  0  0  0  0  0
    2.0844   -1.1933    0.0088 H   0  0  0  0  0  0  0  0  0  0  0  0
    1.1920    0.6865    0.0170 C   0  0  0  0  0  0  0  0  0  0  0  0
    2.0594    1.1874    0.0437 H   0  0  0  0  0  0  0  0  0  0  0  0
  1  5  1  0
  5  8  1  0
  1  2  1  0
  1  3  1  0
  1  4  1  0
  5  6  1  0
  5  7  1  0
  8  9  1  0
  8 10  1  0
  8 11  1  0
 12 16  1  0
 16 17  2  0
 17 19  1  0
 19 21  2  0
 21 23  1  0
 23 25  2  0
 25 16  1  0
 12 13  1  0
 12 14  1  0
 12 15  1  0
 17 18  1  0
 19 20  1  0
 21 22  1  0
 23 24  1  0
 25 26  1  0
M  CHG  1   8   1
M  END
>  <PDB_ID>  (387) 
pdb1ew2

>  <RESIDUE_NAME>  (387) 
LYS   PHE

>  <FRAG_NAME>  (387) 
ETAM   MBZ

>  <FRAG_ATOM_NUM>  (387) 
fragi: 11  fragj: 15

>  <atom.prop.CHAIN_ID>  (387) 
A A A A A A A A A A A Z Z Z Z Z Z Z Z Z Z Z Z Z Z Z

>  <atom.prop.IS_HEAVY_ATOM>  (387) 
1 0 0 0 1 0 0 1 0 0 0 1 0 0 0 1 1 0 1 0 1 0 1 0 1 0

>  <DIFUSE_FUNC_ATOM>  (387) 
n/a

>  <FINAL_SINGLE_POINT_ENERGY>  (387) 
0

>  <NONCOV_INTER_ENERGY_QM>  (387) 
0

>  <FF_Energy>  (387) 
-6.77

>  <QM_Energy>  (387) 
-14.07

>  <source>  (387) 
ETAM_MBZ

>  <Index>  (387) 
3687

$$$$
ETAM-pdb1ev4-C-LYS-205:MBZ-pdb1ev4-C-PHE-34
     RDKit          3D

 26 25  0  0  0  0  0  0  0  0999 V2000
   -3.1218   -3.4938    3.2787 C   0  0  0  0  0  0  0  0  0  0  0  0
   -3.2457   -2.8366    4.0061 H   0  0  0  0  0  0  0  0  0  0  0  0
   -2.5850   -4.2674    3.5769 H   0  0  0  0  0  0  0  0  0  0  0  0
   -4.0978   -3.8426    2.9413 H   0  0  0  0  0  0  0  0  0  0  0  0
   -2.4256   -2.8288    2.1316 C   0  0  0  0  0  0  0  0  0  0  0  0
   -3.0320   -2.1395    1.7235 H   0  0  0  0  0  0  0  0  0  0  0  0
   -1.5952   -2.3686    2.4627 H   0  0  0  0  0  0  0  0  0  0  0  0
   -2.0397   -3.8110    1.0770 N   0  0  0  0  0  4  0  0  0  0  0  0
   -1.0829   -3.6684    0.8269 H   0  0  0  0  0  0  0  0  0  0  0  0
   -2.1604   -4.7383    1.4298 H   0  0  0  0  0  0  0  0  0  0  0  0
   -2.6195   -3.6785    0.2747 H   0  0  0  0  0  0  0  0  0  0  0  0
    0.0026    2.8879   -0.0023 C   0  0  0  0  0  0  0  0  0  0  0  0
    0.9406    3.1961    0.0702 H   0  0  0  0  0  0  0  0  0  0  0  0
   -0.5355    3.2012    0.7680 H   0  0  0  0  0  0  0  0  0  0  0  0
   -0.4233    3.3246   -0.9057 H   0  0  0  0  0  0  0  0  0  0  0  0
   -0.0007    1.3990    0.0003 C   0  0  0  0  0  0  0  0  0  0  0  0
   -1.1974    0.6962   -0.0002 C   0  0  0  0  0  0  0  0  0  0  0  0
   -2.0631    1.1891   -0.0017 H   0  0  0  0  0  0  0  0  0  0  0  0
   -1.2040   -0.6905    0.0000 C   0  0  0  0  0  0  0  0  0  0  0  0
   -2.0791   -1.1875    0.0014 H   0  0  0  0  0  0  0  0  0  0  0  0
    0.0018   -1.3951    0.0003 C   0  0  0  0  0  0  0  0  0  0  0  0
   -0.0088   -2.3918    0.0006 H   0  0  0  0  0  0  0  0  0  0  0  0
    1.2040   -0.7019   -0.0000 C   0  0  0  0  0  0  0  0  0  0  0  0
    2.0837   -1.1972    0.0012 H   0  0  0  0  0  0  0  0  0  0  0  0
    1.1963    0.6923   -0.0004 C   0  0  0  0  0  0  0  0  0  0  0  0
    2.0644    1.1891   -0.0024 H   0  0  0  0  0  0  0  0  0  0  0  0
  1  5  1  0
  5  8  1  0
  1  2  1  0
  1  3  1  0
  1  4  1  0
  5  6  1  0
  5  7  1  0
  8  9  1  0
  8 10  1  0
  8 11  1  0
 12 16  1  0
 16 17  2  0
 17 19  1  0
 19 21  2  0
 21 23  1  0
 23 25  2  0
 25 16  1  0
 12 13  1  0
 12 14  1  0
 12 15  1  0
 17 18  1  0
 19 20  1  0
 21 22  1  0
 23 24  1  0
 25 26  1  0
M  CHG  1   8   1
M  END
>  <PDB_ID>  (388) 
pdb1ev4

>  <RESIDUE_NAME>  (388) 
LYS   PHE

>  <FRAG_NAME>  (388) 
ETAM   MBZ

>  <FRAG_ATOM_NUM>  (388) 
fragi: 11  fragj: 15

>  <atom.prop.CHAIN_ID>  (388) 
A A A A A A A A A A A Z Z Z Z Z Z Z Z Z Z Z Z Z Z Z

>  <atom.prop.IS_HEAVY_ATOM>  (388) 
1 0 0 0 1 0 0 1 0 0 0 1 0 0 0 1 1 0 1 0 1 0 1 0 1 0

>  <DIFUSE_FUNC_ATOM>  (388) 
n/a

>  <FINAL_SINGLE_POINT_ENERGY>  (388) 
0

>  <NONCOV_INTER_ENERGY_QM>  (388) 
0

>  <FF_Energy>  (388) 
2.0

>  <QM_Energy>  (388) 
-4.84

>  <source>  (388) 
ETAM_MBZ

>  <Index>  (388) 
3701

$$$$
ETAM-pdb1ex6-B-LYS-308:MBZ-pdb1ex6-B-PHE-317
     RDKit          3D

 26 25  0  0  0  0  0  0  0  0999 V2000
   -0.2481   -1.7704    4.1974 C   0  0  0  0  0  0  0  0  0  0  0  0
   -0.9252   -1.9566    4.8979 H   0  0  0  0  0  0  0  0  0  0  0  0
    0.6696   -1.8973    4.5496 H   0  0  0  0  0  0  0  0  0  0  0  0
   -0.4058   -2.4510    3.3608 H   0  0  0  0  0  0  0  0  0  0  0  0
   -0.3996   -0.3239    3.7481 C   0  0  0  0  0  0  0  0  0  0  0  0
   -0.8837   -0.3025    2.8749 H   0  0  0  0  0  0  0  0  0  0  0  0
   -0.9240    0.1773    4.4341 H   0  0  0  0  0  0  0  0  0  0  0  0
    0.9369    0.3264    3.5831 N   0  0  0  0  0  4  0  0  0  0  0  0
    0.9251    1.2184    4.0307 H   0  0  0  0  0  0  0  0  0  0  0  0
    1.6369   -0.2512    3.9995 H   0  0  0  0  0  0  0  0  0  0  0  0
    1.1287    0.4397    2.6102 H   0  0  0  0  0  0  0  0  0  0  0  0
   -0.0377    2.9230   -0.0000 C   0  0  0  0  0  0  0  0  0  0  0  0
    0.8175    3.2370    0.3435 H   0  0  0  0  0  0  0  0  0  0  0  0
   -0.8050    3.2068    0.5282 H   0  0  0  0  0  0  0  0  0  0  0  0
   -0.1600    3.3089   -1.0121 H   0  0  0  0  0  0  0  0  0  0  0  0
   -0.0093    1.4005   -0.0011 C   0  0  0  0  0  0  0  0  0  0  0  0
   -1.1872    0.6754    0.0001 C   0  0  0  0  0  0  0  0  0  0  0  0
   -2.0668    1.1619   -0.0002 H   0  0  0  0  0  0  0  0  0  0  0  0
   -1.1916   -0.7100   -0.0000 C   0  0  0  0  0  0  0  0  0  0  0  0
   -2.0667   -1.2061   -0.0015 H   0  0  0  0  0  0  0  0  0  0  0  0
    0.0080   -1.3981    0.0038 C   0  0  0  0  0  0  0  0  0  0  0  0
    0.0190   -2.3912    0.0087 H   0  0  0  0  0  0  0  0  0  0  0  0
    1.1916   -0.6764   -0.0000 C   0  0  0  0  0  0  0  0  0  0  0  0
    2.0868   -1.1714    0.0002 H   0  0  0  0  0  0  0  0  0  0  0  0
    1.1885    0.7087   -0.0029 C   0  0  0  0  0  0  0  0  0  0  0  0
    2.0528    1.2074   -0.0077 H   0  0  0  0  0  0  0  0  0  0  0  0
  1  5  1  0
  5  8  1  0
  1  2  1  0
  1  3  1  0
  1  4  1  0
  5  6  1  0
  5  7  1  0
  8  9  1  0
  8 10  1  0
  8 11  1  0
 12 16  1  0
 16 17  2  0
 17 19  1  0
 19 21  2  0
 21 23  1  0
 23 25  2  0
 25 16  1  0
 12 13  1  0
 12 14  1  0
 12 15  1  0
 17 18  1  0
 19 20  1  0
 21 22  1  0
 23 24  1  0
 25 26  1  0
M  CHG  1   8   1
M  END
>  <PDB_ID>  (389) 
pdb1ex6

>  <RESIDUE_NAME>  (389) 
LYS   PHE

>  <FRAG_NAME>  (389) 
ETAM   MBZ

>  <FRAG_ATOM_NUM>  (389) 
fragi: 11  fragj: 15

>  <atom.prop.CHAIN_ID>  (389) 
A A A A A A A A A A A Z Z Z Z Z Z Z Z Z Z Z Z Z Z Z

>  <atom.prop.IS_HEAVY_ATOM>  (389) 
1 0 0 0 1 0 0 1 0 0 0 1 0 0 0 1 1 0 1 0 1 0 1 0 1 0

>  <DIFUSE_FUNC_ATOM>  (389) 
n/a

>  <FINAL_SINGLE_POINT_ENERGY>  (389) 
0

>  <NONCOV_INTER_ENERGY_QM>  (389) 
0

>  <FF_Energy>  (389) 
-8.03

>  <QM_Energy>  (389) 
-14.42

>  <source>  (389) 
ETAM_MBZ

>  <Index>  (389) 
3704

$$$$
ETAM-pdb2fok-B-LYS-236:MBZ-pdb2fok-B-PHE-17
     RDKit          3D

 26 25  0  0  0  0  0  0  0  0999 V2000
    4.3773    0.1189    0.4860 C   0  0  0  0  0  0  0  0  0  0  0  0
    3.3917    0.2148    0.3887 H   0  0  0  0  0  0  0  0  0  0  0  0
    4.7004    0.6379    1.2709 H   0  0  0  0  0  0  0  0  0  0  0  0
    4.6148   -0.9342    0.6369 H   0  0  0  0  0  0  0  0  0  0  0  0
    5.0447    0.6815   -0.7724 C   0  0  0  0  0  0  0  0  0  0  0  0
    4.5020    0.4184   -1.5693 H   0  0  0  0  0  0  0  0  0  0  0  0
    5.0753    1.6779   -0.7033 H   0  0  0  0  0  0  0  0  0  0  0  0
    6.4365    0.1566   -0.9296 N   0  0  0  0  0  4  0  0  0  0  0  0
    6.4413   -0.8227   -0.7353 H   0  0  0  0  0  0  0  0  0  0  0  0
    6.7437    0.3161   -1.8657 H   0  0  0  0  0  0  0  0  0  0  0  0
    7.0397    0.6310   -0.2908 H   0  0  0  0  0  0  0  0  0  0  0  0
    0.0029    2.9053   -0.0012 C   0  0  0  0  0  0  0  0  0  0  0  0
    0.9223    3.2114    0.1959 H   0  0  0  0  0  0  0  0  0  0  0  0
   -0.6344    3.2141    0.6888 H   0  0  0  0  0  0  0  0  0  0  0  0
   -0.2968    3.3488   -0.9508 H   0  0  0  0  0  0  0  0  0  0  0  0
    0.0009    1.4023   -0.0002 C   0  0  0  0  0  0  0  0  0  0  0  0
   -1.1977    0.6940   -0.0007 C   0  0  0  0  0  0  0  0  0  0  0  0
   -2.0636    1.1836   -0.0028 H   0  0  0  0  0  0  0  0  0  0  0  0
   -1.2029   -0.7005   -0.0000 C   0  0  0  0  0  0  0  0  0  0  0  0
   -2.0783   -1.1929    0.0015 H   0  0  0  0  0  0  0  0  0  0  0  0
   -0.0001   -1.3946    0.0007 C   0  0  0  0  0  0  0  0  0  0  0  0
   -0.0014   -2.3932    0.0010 H   0  0  0  0  0  0  0  0  0  0  0  0
    1.2029   -0.6959    0.0000 C   0  0  0  0  0  0  0  0  0  0  0  0
    2.0833   -1.1936    0.0005 H   0  0  0  0  0  0  0  0  0  0  0  0
    1.1969    0.6948    0.0002 C   0  0  0  0  0  0  0  0  0  0  0  0
    2.0658    1.1918   -0.0001 H   0  0  0  0  0  0  0  0  0  0  0  0
  1  5  1  0
  5  8  1  0
  1  2  1  0
  1  3  1  0
  1  4  1  0
  5  6  1  0
  5  7  1  0
  8  9  1  0
  8 10  1  0
  8 11  1  0
 12 16  1  0
 16 17  2  0
 17 19  1  0
 19 21  2  0
 21 23  1  0
 23 25  2  0
 25 16  1  0
 12 13  1  0
 12 14  1  0
 12 15  1  0
 17 18  1  0
 19 20  1  0
 21 22  1  0
 23 24  1  0
 25 26  1  0
M  CHG  1   8   1
M  END
>  <PDB_ID>  (390) 
pdb2fok

>  <RESIDUE_NAME>  (390) 
LYS   PHE

>  <FRAG_NAME>  (390) 
ETAM   MBZ

>  <FRAG_ATOM_NUM>  (390) 
fragi: 11  fragj: 15

>  <atom.prop.CHAIN_ID>  (390) 
A A A A A A A A A A A Z Z Z Z Z Z Z Z Z Z Z Z Z Z Z

>  <atom.prop.IS_HEAVY_ATOM>  (390) 
1 0 0 0 1 0 0 1 0 0 0 1 0 0 0 1 1 0 1 0 1 0 1 0 1 0

>  <DIFUSE_FUNC_ATOM>  (390) 
n/a

>  <FINAL_SINGLE_POINT_ENERGY>  (390) 
0

>  <NONCOV_INTER_ENERGY_QM>  (390) 
0

>  <FF_Energy>  (390) 
13.38

>  <QM_Energy>  (390) 
1.37

>  <source>  (390) 
ETAM_MBZ

>  <Index>  (390) 
3715

$$$$
ETAM-pdb2fp8-A-LYS-233:MBZ-pdb2fp8-A-PHE-220
     RDKit          3D

 26 25  0  0  0  0  0  0  0  0999 V2000
    0.0156    1.6487   -3.6891 C   0  0  0  0  0  0  0  0  0  0  0  0
    0.3093    2.1167   -4.5254 H   0  0  0  0  0  0  0  0  0  0  0  0
    0.5788    1.9632   -2.9225 H   0  0  0  0  0  0  0  0  0  0  0  0
   -1.0155    1.9399   -3.4886 H   0  0  0  0  0  0  0  0  0  0  0  0
    0.1724    0.1839   -3.8554 C   0  0  0  0  0  0  0  0  0  0  0  0
   -0.3664   -0.3013   -3.1566 H   0  0  0  0  0  0  0  0  0  0  0  0
   -0.1622   -0.0979   -4.7630 H   0  0  0  0  0  0  0  0  0  0  0  0
    1.6017   -0.2451   -3.7282 N   0  0  0  0  0  4  0  0  0  0  0  0
    2.1085    0.0660   -4.5297 H   0  0  0  0  0  0  0  0  0  0  0  0
    1.9924    0.1590   -2.9029 H   0  0  0  0  0  0  0  0  0  0  0  0
    1.6403   -1.2412   -3.6686 H   0  0  0  0  0  0  0  0  0  0  0  0
    0.0179    2.9424   -0.0047 C   0  0  0  0  0  0  0  0  0  0  0  0
   -0.7078    3.2428   -0.6030 H   0  0  0  0  0  0  0  0  0  0  0  0
    0.9022    3.2358   -0.3320 H   0  0  0  0  0  0  0  0  0  0  0  0
   -0.1440    3.4040    0.9693 H   0  0  0  0  0  0  0  0  0  0  0  0
    0.0082    1.4240    0.0148 C   0  0  0  0  0  0  0  0  0  0  0  0
   -1.1990    0.7045    0.0024 C   0  0  0  0  0  0  0  0  0  0  0  0
   -2.0671    1.1761   -0.0064 H   0  0  0  0  0  0  0  0  0  0  0  0
   -1.2090   -0.7374   -0.0000 C   0  0  0  0  0  0  0  0  0  0  0  0
   -2.0888   -1.2006    0.0072 H   0  0  0  0  0  0  0  0  0  0  0  0
   -0.0139   -1.4122   -0.0104 C   0  0  0  0  0  0  0  0  0  0  0  0
    0.0157   -2.4081   -0.0261 H   0  0  0  0  0  0  0  0  0  0  0  0
    1.2090   -0.6879    0.0000 C   0  0  0  0  0  0  0  0  0  0  0  0
    2.0838   -1.1910    0.0144 H   0  0  0  0  0  0  0  0  0  0  0  0
    1.2048    0.7090   -0.0068 C   0  0  0  0  0  0  0  0  0  0  0  0
    2.0744    1.2025   -0.0287 H   0  0  0  0  0  0  0  0  0  0  0  0
  1  5  1  0
  5  8  1  0
  1  2  1  0
  1  3  1  0
  1  4  1  0
  5  6  1  0
  5  7  1  0
  8  9  1  0
  8 10  1  0
  8 11  1  0
 12 16  1  0
 16 17  2  0
 17 19  1  0
 19 21  2  0
 21 23  1  0
 23 25  2  0
 25 16  1  0
 12 13  1  0
 12 14  1  0
 12 15  1  0
 17 18  1  0
 19 20  1  0
 21 22  1  0
 23 24  1  0
 25 26  1  0
M  CHG  1   8   1
M  END
>  <PDB_ID>  (391) 
pdb2fp8

>  <RESIDUE_NAME>  (391) 
LYS   PHE

>  <FRAG_NAME>  (391) 
ETAM   MBZ

>  <FRAG_ATOM_NUM>  (391) 
fragi: 11  fragj: 15

>  <atom.prop.CHAIN_ID>  (391) 
A A A A A A A A A A A Z Z Z Z Z Z Z Z Z Z Z Z Z Z Z

>  <atom.prop.IS_HEAVY_ATOM>  (391) 
1 0 0 0 1 0 0 1 0 0 0 1 0 0 0 1 1 0 1 0 1 0 1 0 1 0

>  <DIFUSE_FUNC_ATOM>  (391) 
n/a

>  <FINAL_SINGLE_POINT_ENERGY>  (391) 
0

>  <NONCOV_INTER_ENERGY_QM>  (391) 
0

>  <FF_Energy>  (391) 
-6.53

>  <QM_Energy>  (391) 
-12.05

>  <source>  (391) 
ETAM_MBZ

>  <Index>  (391) 
3719

$$$$
ETAM-pdb2fpn-A-LYS-187:MBZ-pdb2fpn-A-PHE-173
     RDKit          3D

 26 25  0  0  0  0  0  0  0  0999 V2000
   -2.6961   -0.1607   -3.5886 C   0  0  0  0  0  0  0  0  0  0  0  0
   -1.7966    0.0812   -3.9349 H   0  0  0  0  0  0  0  0  0  0  0  0
   -2.9069    0.3638   -2.7718 H   0  0  0  0  0  0  0  0  0  0  0  0
   -3.4400    0.0609   -4.3538 H   0  0  0  0  0  0  0  0  0  0  0  0
   -2.6966   -1.6382   -3.2299 C   0  0  0  0  0  0  0  0  0  0  0  0
   -3.2166   -1.7667   -2.3804 H   0  0  0  0  0  0  0  0  0  0  0  0
   -3.1464   -2.1519   -3.9659 H   0  0  0  0  0  0  0  0  0  0  0  0
   -1.3160   -2.1636   -3.0415 N   0  0  0  0  0  4  0  0  0  0  0  0
   -0.6878   -1.6667   -3.6402 H   0  0  0  0  0  0  0  0  0  0  0  0
   -1.0409   -2.0381   -2.0885 H   0  0  0  0  0  0  0  0  0  0  0  0
   -1.2972   -3.1362   -3.2703 H   0  0  0  0  0  0  0  0  0  0  0  0
    0.0017    2.9200    0.0022 C   0  0  0  0  0  0  0  0  0  0  0  0
   -0.7939    3.2256   -0.4977 H   0  0  0  0  0  0  0  0  0  0  0  0
    0.8380    3.2246   -0.4273 H   0  0  0  0  0  0  0  0  0  0  0  0
   -0.0409    3.3658    0.9959 H   0  0  0  0  0  0  0  0  0  0  0  0
    0.0005    1.4100    0.0034 C   0  0  0  0  0  0  0  0  0  0  0  0
   -1.1963    0.7000   -0.0032 C   0  0  0  0  0  0  0  0  0  0  0  0
   -2.0642    1.1859   -0.0118 H   0  0  0  0  0  0  0  0  0  0  0  0
   -1.1998   -0.6984   -0.0000 C   0  0  0  0  0  0  0  0  0  0  0  0
   -2.0792   -1.1877    0.0019 H   0  0  0  0  0  0  0  0  0  0  0  0
   -0.0006   -1.4001    0.0019 C   0  0  0  0  0  0  0  0  0  0  0  0
   -0.0083   -2.3979    0.0044 H   0  0  0  0  0  0  0  0  0  0  0  0
    1.1998   -0.7062    0.0000 C   0  0  0  0  0  0  0  0  0  0  0  0
    2.0816   -1.1987    0.0014 H   0  0  0  0  0  0  0  0  0  0  0  0
    1.1965    0.6947   -0.0022 C   0  0  0  0  0  0  0  0  0  0  0  0
    2.0668    1.1852   -0.0085 H   0  0  0  0  0  0  0  0  0  0  0  0
  1  5  1  0
  5  8  1  0
  1  2  1  0
  1  3  1  0
  1  4  1  0
  5  6  1  0
  5  7  1  0
  8  9  1  0
  8 10  1  0
  8 11  1  0
 12 16  1  0
 16 17  2  0
 17 19  1  0
 19 21  2  0
 21 23  1  0
 23 25  2  0
 25 16  1  0
 12 13  1  0
 12 14  1  0
 12 15  1  0
 17 18  1  0
 19 20  1  0
 21 22  1  0
 23 24  1  0
 25 26  1  0
M  CHG  1   8   1
M  END
>  <PDB_ID>  (392) 
pdb2fpn

>  <RESIDUE_NAME>  (392) 
LYS   PHE

>  <FRAG_NAME>  (392) 
ETAM   MBZ

>  <FRAG_ATOM_NUM>  (392) 
fragi: 11  fragj: 15

>  <atom.prop.CHAIN_ID>  (392) 
A A A A A A A A A A A Z Z Z Z Z Z Z Z Z Z Z Z Z Z Z

>  <atom.prop.IS_HEAVY_ATOM>  (392) 
1 0 0 0 1 0 0 1 0 0 0 1 0 0 0 1 1 0 1 0 1 0 1 0 1 0

>  <DIFUSE_FUNC_ATOM>  (392) 
n/a

>  <FINAL_SINGLE_POINT_ENERGY>  (392) 
0

>  <NONCOV_INTER_ENERGY_QM>  (392) 
0

>  <FF_Energy>  (392) 
-4.65

>  <QM_Energy>  (392) 
-12.28

>  <source>  (392) 
ETAM_MBZ

>  <Index>  (392) 
3728

$$$$
ETAM-pdb2fpq-A-LYS-292:MBZ-pdb2fpq-A-PHE-183
     RDKit          3D

 26 25  0  0  0  0  0  0  0  0999 V2000
    0.7856   -2.0087    3.7513 C   0  0  0  0  0  0  0  0  0  0  0  0
    1.2843   -2.8721    3.7688 H   0  0  0  0  0  0  0  0  0  0  0  0
    0.0904   -2.0314    3.0372 H   0  0  0  0  0  0  0  0  0  0  0  0
    0.2842   -1.8866    4.7115 H   0  0  0  0  0  0  0  0  0  0  0  0
    1.7630   -0.8812    3.4512 C   0  0  0  0  0  0  0  0  0  0  0  0
    2.4322   -0.8205    4.2088 H   0  0  0  0  0  0  0  0  0  0  0  0
    2.2785   -1.1118    2.6106 H   0  0  0  0  0  0  0  0  0  0  0  0
    1.1186    0.4542    3.2690 N   0  0  0  0  0  4  0  0  0  0  0  0
    0.7725    0.7753    4.1494 H   0  0  0  0  0  0  0  0  0  0  0  0
    1.7945    1.0998    2.9168 H   0  0  0  0  0  0  0  0  0  0  0  0
    0.3640    0.3689    2.6206 H   0  0  0  0  0  0  0  0  0  0  0  0
    0.0052    2.9563   -0.0483 C   0  0  0  0  0  0  0  0  0  0  0  0
   -0.0794    3.2152   -0.9991 H   0  0  0  0  0  0  0  0  0  0  0  0
    0.8678    3.2568    0.3310 H   0  0  0  0  0  0  0  0  0  0  0  0
   -0.7977    3.4399    0.5082 H   0  0  0  0  0  0  0  0  0  0  0  0
   -0.0045    1.4204    0.0072 C   0  0  0  0  0  0  0  0  0  0  0  0
   -1.2120    0.6763   -0.0021 C   0  0  0  0  0  0  0  0  0  0  0  0
   -2.0800    1.1720   -0.0115 H   0  0  0  0  0  0  0  0  0  0  0  0
   -1.2211   -0.7179    0.0000 C   0  0  0  0  0  0  0  0  0  0  0  0
   -2.0786   -1.2220   -0.0014 H   0  0  0  0  0  0  0  0  0  0  0  0
    0.0190   -1.4219    0.0062 C   0  0  0  0  0  0  0  0  0  0  0  0
    0.0249   -2.4038    0.0146 H   0  0  0  0  0  0  0  0  0  0  0  0
    1.2211   -0.6834    0.0000 C   0  0  0  0  0  0  0  0  0  0  0  0
    2.1092   -1.1640    0.0055 H   0  0  0  0  0  0  0  0  0  0  0  0
    1.1975    0.7266   -0.0114 C   0  0  0  0  0  0  0  0  0  0  0  0
    2.0632    1.2234   -0.0337 H   0  0  0  0  0  0  0  0  0  0  0  0
  1  5  1  0
  5  8  1  0
  1  2  1  0
  1  3  1  0
  1  4  1  0
  5  6  1  0
  5  7  1  0
  8  9  1  0
  8 10  1  0
  8 11  1  0
 12 16  1  0
 16 17  2  0
 17 19  1  0
 19 21  2  0
 21 23  1  0
 23 25  2  0
 25 16  1  0
 12 13  1  0
 12 14  1  0
 12 15  1  0
 17 18  1  0
 19 20  1  0
 21 22  1  0
 23 24  1  0
 25 26  1  0
M  CHG  1   8   1
M  END
>  <PDB_ID>  (393) 
pdb2fpq

>  <RESIDUE_NAME>  (393) 
LYS   PHE

>  <FRAG_NAME>  (393) 
ETAM   MBZ

>  <FRAG_ATOM_NUM>  (393) 
fragi: 11  fragj: 15

>  <atom.prop.CHAIN_ID>  (393) 
A A A A A A A A A A A Z Z Z Z Z Z Z Z Z Z Z Z Z Z Z

>  <atom.prop.IS_HEAVY_ATOM>  (393) 
1 0 0 0 1 0 0 1 0 0 0 1 0 0 0 1 1 0 1 0 1 0 1 0 1 0

>  <DIFUSE_FUNC_ATOM>  (393) 
n/a

>  <FINAL_SINGLE_POINT_ENERGY>  (393) 
0

>  <NONCOV_INTER_ENERGY_QM>  (393) 
0

>  <FF_Energy>  (393) 
-8.08

>  <QM_Energy>  (393) 
-15.08

>  <source>  (393) 
ETAM_MBZ

>  <Index>  (393) 
3732

$$$$
ETAM-pdb1ev4-D-LYS-205:MBZ-pdb1ev4-D-PHE-34
     RDKit          3D

 26 25  0  0  0  0  0  0  0  0999 V2000
    0.6423   -4.6608    2.8128 C   0  0  0  0  0  0  0  0  0  0  0  0
    0.9279   -4.0400    3.5187 H   0  0  0  0  0  0  0  0  0  0  0  0
    1.3698   -5.2475    2.5105 H   0  0  0  0  0  0  0  0  0  0  0  0
   -0.1976   -5.2605    3.1637 H   0  0  0  0  0  0  0  0  0  0  0  0
    0.1476   -3.8609    1.6371 C   0  0  0  0  0  0  0  0  0  0  0  0
   -0.7823   -3.4816    1.8597 H   0  0  0  0  0  0  0  0  0  0  0  0
    0.7507   -3.0363    1.5173 H   0  0  0  0  0  0  0  0  0  0  0  0
    0.0556   -4.5616    0.3113 N   0  0  0  0  0  4  0  0  0  0  0  0
    0.7440   -5.2823    0.2762 H   0  0  0  0  0  0  0  0  0  0  0  0
   -0.8557   -4.9563    0.2155 H   0  0  0  0  0  0  0  0  0  0  0  0
    0.2180   -3.9004   -0.4170 H   0  0  0  0  0  0  0  0  0  0  0  0
   -0.0053    2.8740    0.0099 C   0  0  0  0  0  0  0  0  0  0  0  0
    0.5799    3.1909   -0.7229 H   0  0  0  0  0  0  0  0  0  0  0  0
    0.3274    3.1797    0.8905 H   0  0  0  0  0  0  0  0  0  0  0  0
   -0.9950    3.3050   -0.1416 H   0  0  0  0  0  0  0  0  0  0  0  0
   -0.0004    1.3874    0.0003 C   0  0  0  0  0  0  0  0  0  0  0  0
   -1.1993    0.6808    0.0011 C   0  0  0  0  0  0  0  0  0  0  0  0
   -2.0621    1.1829    0.0015 H   0  0  0  0  0  0  0  0  0  0  0  0
   -1.2038   -0.6864   -0.0000 C   0  0  0  0  0  0  0  0  0  0  0  0
   -2.0747   -1.1929    0.0014 H   0  0  0  0  0  0  0  0  0  0  0  0
    0.0005   -1.3751   -0.0012 C   0  0  0  0  0  0  0  0  0  0  0  0
   -0.0060   -2.3806   -0.0033 H   0  0  0  0  0  0  0  0  0  0  0  0
    1.2038   -0.6910    0.0000 C   0  0  0  0  0  0  0  0  0  0  0  0
    2.0800   -1.1962    0.0025 H   0  0  0  0  0  0  0  0  0  0  0  0
    1.1993    0.6844   -0.0002 C   0  0  0  0  0  0  0  0  0  0  0  0
    2.0634    1.1891   -0.0013 H   0  0  0  0  0  0  0  0  0  0  0  0
  1  5  1  0
  5  8  1  0
  1  2  1  0
  1  3  1  0
  1  4  1  0
  5  6  1  0
  5  7  1  0
  8  9  1  0
  8 10  1  0
  8 11  1  0
 12 16  1  0
 16 17  2  0
 17 19  1  0
 19 21  2  0
 21 23  1  0
 23 25  2  0
 25 16  1  0
 12 13  1  0
 12 14  1  0
 12 15  1  0
 17 18  1  0
 19 20  1  0
 21 22  1  0
 23 24  1  0
 25 26  1  0
M  CHG  1   8   1
M  END
>  <PDB_ID>  (394) 
pdb1ev4

>  <RESIDUE_NAME>  (394) 
LYS   PHE

>  <FRAG_NAME>  (394) 
ETAM   MBZ

>  <FRAG_ATOM_NUM>  (394) 
fragi: 11  fragj: 15

>  <atom.prop.CHAIN_ID>  (394) 
A A A A A A A A A A A Z Z Z Z Z Z Z Z Z Z Z Z Z Z Z

>  <atom.prop.IS_HEAVY_ATOM>  (394) 
1 0 0 0 1 0 0 1 0 0 0 1 0 0 0 1 1 0 1 0 1 0 1 0 1 0

>  <DIFUSE_FUNC_ATOM>  (394) 
n/a

>  <FINAL_SINGLE_POINT_ENERGY>  (394) 
0

>  <NONCOV_INTER_ENERGY_QM>  (394) 
0

>  <FF_Energy>  (394) 
19.35

>  <QM_Energy>  (394) 
2.03

>  <source>  (394) 
ETAM_MBZ

>  <Index>  (394) 
3735

$$$$
ETAM-pdb1ez4-A-LYS-244:MBZ-pdb1ez4-A-PHE-248
     RDKit          3D

 26 25  0  0  0  0  0  0  0  0999 V2000
   -2.7111   -3.8652   -3.9928 C   0  0  0  0  0  0  0  0  0  0  0  0
   -2.5719   -4.4640   -3.2241 H   0  0  0  0  0  0  0  0  0  0  0  0
   -2.2820   -4.2052   -4.8105 H   0  0  0  0  0  0  0  0  0  0  0  0
   -3.7816   -3.7649   -4.1718 H   0  0  0  0  0  0  0  0  0  0  0  0
   -2.1257   -2.4968   -3.6627 C   0  0  0  0  0  0  0  0  0  0  0  0
   -2.1159   -1.9435   -4.5104 H   0  0  0  0  0  0  0  0  0  0  0  0
   -2.7461   -2.0366   -3.0077 H   0  0  0  0  0  0  0  0  0  0  0  0
   -0.7771   -2.5625   -3.1014 N   0  0  0  0  0  4  0  0  0  0  0  0
   -0.4625   -3.5152   -3.0714 H   0  0  0  0  0  0  0  0  0  0  0  0
   -0.1415   -2.0284   -3.6663 H   0  0  0  0  0  0  0  0  0  0  0  0
   -0.7734   -2.1904   -2.1688 H   0  0  0  0  0  0  0  0  0  0  0  0
   -0.0409    2.9112   -0.1103 C   0  0  0  0  0  0  0  0  0  0  0  0
    0.7605    3.2753    0.3148 H   0  0  0  0  0  0  0  0  0  0  0  0
   -0.8724    3.2267    0.2956 H   0  0  0  0  0  0  0  0  0  0  0  0
   -0.0391    3.2477   -1.1470 H   0  0  0  0  0  0  0  0  0  0  0  0
    0.0031    1.4029   -0.0029 C   0  0  0  0  0  0  0  0  0  0  0  0
   -1.2080    0.7040    0.0032 C   0  0  0  0  0  0  0  0  0  0  0  0
   -2.0652    1.1881    0.0088 H   0  0  0  0  0  0  0  0  0  0  0  0
   -1.1993   -0.6964    0.0000 C   0  0  0  0  0  0  0  0  0  0  0  0
   -2.0881   -1.1874    0.0020 H   0  0  0  0  0  0  0  0  0  0  0  0
   -0.0113   -1.4103   -0.0038 C   0  0  0  0  0  0  0  0  0  0  0  0
   -0.0133   -2.3990   -0.0101 H   0  0  0  0  0  0  0  0  0  0  0  0
    1.1993   -0.7027   -0.0000 C   0  0  0  0  0  0  0  0  0  0  0  0
    2.0804   -1.2068    0.0016 H   0  0  0  0  0  0  0  0  0  0  0  0
    1.2163    0.7026    0.0034 C   0  0  0  0  0  0  0  0  0  0  0  0
    2.0735    1.1882    0.0093 H   0  0  0  0  0  0  0  0  0  0  0  0
  1  5  1  0
  5  8  1  0
  1  2  1  0
  1  3  1  0
  1  4  1  0
  5  6  1  0
  5  7  1  0
  8  9  1  0
  8 10  1  0
  8 11  1  0
 12 16  1  0
 16 17  2  0
 17 19  1  0
 19 21  2  0
 21 23  1  0
 23 25  2  0
 25 16  1  0
 12 13  1  0
 12 14  1  0
 12 15  1  0
 17 18  1  0
 19 20  1  0
 21 22  1  0
 23 24  1  0
 25 26  1  0
M  CHG  1   8   1
M  END
>  <PDB_ID>  (395) 
pdb1ez4

>  <RESIDUE_NAME>  (395) 
LYS   PHE

>  <FRAG_NAME>  (395) 
ETAM   MBZ

>  <FRAG_ATOM_NUM>  (395) 
fragi: 11  fragj: 15

>  <atom.prop.CHAIN_ID>  (395) 
A A A A A A A A A A A Z Z Z Z Z Z Z Z Z Z Z Z Z Z Z

>  <atom.prop.IS_HEAVY_ATOM>  (395) 
1 0 0 0 1 0 0 1 0 0 0 1 0 0 0 1 1 0 1 0 1 0 1 0 1 0

>  <DIFUSE_FUNC_ATOM>  (395) 
n/a

>  <FINAL_SINGLE_POINT_ENERGY>  (395) 
0

>  <NONCOV_INTER_ENERGY_QM>  (395) 
0

>  <FF_Energy>  (395) 
-3.7

>  <QM_Energy>  (395) 
-11.19

>  <source>  (395) 
ETAM_MBZ

>  <Index>  (395) 
3766

$$$$
ETAM-pdb1f05-A-LYS-219:MBZ-pdb1f05-A-PHE-172
     RDKit          3D

 26 25  0  0  0  0  0  0  0  0999 V2000
   -2.6004    0.9323   -3.7674 C   0  0  0  0  0  0  0  0  0  0  0  0
   -3.1034    1.4739   -4.4359 H   0  0  0  0  0  0  0  0  0  0  0  0
   -2.4449    1.4678   -2.9413 H   0  0  0  0  0  0  0  0  0  0  0  0
   -3.1980    0.0583   -3.5085 H   0  0  0  0  0  0  0  0  0  0  0  0
   -1.2490    0.5554   -4.3639 C   0  0  0  0  0  0  0  0  0  0  0  0
   -1.4021    0.0067   -5.1907 H   0  0  0  0  0  0  0  0  0  0  0  0
   -0.7616    1.3958   -4.6189 H   0  0  0  0  0  0  0  0  0  0  0  0
   -0.4139   -0.2233   -3.4075 N   0  0  0  0  0  4  0  0  0  0  0  0
    0.3901   -0.5782   -3.8829 H   0  0  0  0  0  0  0  0  0  0  0  0
   -0.1249    0.3726   -2.6590 H   0  0  0  0  0  0  0  0  0  0  0  0
   -0.9499   -0.9834   -3.0427 H   0  0  0  0  0  0  0  0  0  0  0  0
   -0.0049    2.8963    0.0496 C   0  0  0  0  0  0  0  0  0  0  0  0
   -0.5975    3.2283   -0.6666 H   0  0  0  0  0  0  0  0  0  0  0  0
    0.9227    3.2122   -0.0715 H   0  0  0  0  0  0  0  0  0  0  0  0
   -0.3710    3.2951    0.9957 H   0  0  0  0  0  0  0  0  0  0  0  0
   -0.0021    1.4042    0.0010 C   0  0  0  0  0  0  0  0  0  0  0  0
   -1.2013    0.6964   -0.0004 C   0  0  0  0  0  0  0  0  0  0  0  0
   -2.0670    1.1866   -0.0032 H   0  0  0  0  0  0  0  0  0  0  0  0
   -1.2105   -0.7003    0.0000 C   0  0  0  0  0  0  0  0  0  0  0  0
   -2.0817   -1.1931    0.0009 H   0  0  0  0  0  0  0  0  0  0  0  0
    0.0029   -1.4003    0.0008 C   0  0  0  0  0  0  0  0  0  0  0  0
   -0.0003   -2.3956    0.0016 H   0  0  0  0  0  0  0  0  0  0  0  0
    1.2105   -0.6974   -0.0000 C   0  0  0  0  0  0  0  0  0  0  0  0
    2.0893   -1.1934    0.0017 H   0  0  0  0  0  0  0  0  0  0  0  0
    1.2005    0.6974   -0.0014 C   0  0  0  0  0  0  0  0  0  0  0  0
    2.0656    1.1969   -0.0053 H   0  0  0  0  0  0  0  0  0  0  0  0
  1  5  1  0
  5  8  1  0
  1  2  1  0
  1  3  1  0
  1  4  1  0
  5  6  1  0
  5  7  1  0
  8  9  1  0
  8 10  1  0
  8 11  1  0
 12 16  1  0
 16 17  2  0
 17 19  1  0
 19 21  2  0
 21 23  1  0
 23 25  2  0
 25 16  1  0
 12 13  1  0
 12 14  1  0
 12 15  1  0
 17 18  1  0
 19 20  1  0
 21 22  1  0
 23 24  1  0
 25 26  1  0
M  CHG  1   8   1
M  END
>  <PDB_ID>  (396) 
pdb1f05

>  <RESIDUE_NAME>  (396) 
LYS   PHE

>  <FRAG_NAME>  (396) 
ETAM   MBZ

>  <FRAG_ATOM_NUM>  (396) 
fragi: 11  fragj: 15

>  <atom.prop.CHAIN_ID>  (396) 
A A A A A A A A A A A Z Z Z Z Z Z Z Z Z Z Z Z Z Z Z

>  <atom.prop.IS_HEAVY_ATOM>  (396) 
1 0 0 0 1 0 0 1 0 0 0 1 0 0 0 1 1 0 1 0 1 0 1 0 1 0

>  <DIFUSE_FUNC_ATOM>  (396) 
n/a

>  <FINAL_SINGLE_POINT_ENERGY>  (396) 
0

>  <NONCOV_INTER_ENERGY_QM>  (396) 
0

>  <FF_Energy>  (396) 
-8.62

>  <QM_Energy>  (396) 
-15.16

>  <source>  (396) 
ETAM_MBZ

>  <Index>  (396) 
3783

$$$$
ETAM-pdb1f05-B-LYS-219:MBZ-pdb1f05-B-PHE-172
     RDKit          3D

 26 25  0  0  0  0  0  0  0  0999 V2000
   -2.6694    0.9287   -3.7356 C   0  0  0  0  0  0  0  0  0  0  0  0
   -3.1850    1.4738   -4.3925 H   0  0  0  0  0  0  0  0  0  0  0  0
   -2.4927    1.4635   -2.9131 H   0  0  0  0  0  0  0  0  0  0  0  0
   -3.2655    0.0578   -3.4632 H   0  0  0  0  0  0  0  0  0  0  0  0
   -1.3378    0.5429   -4.3611 C   0  0  0  0  0  0  0  0  0  0  0  0
   -1.5162   -0.0074   -5.1876 H   0  0  0  0  0  0  0  0  0  0  0  0
   -0.8565    1.3840   -4.6429 H   0  0  0  0  0  0  0  0  0  0  0  0
   -0.4686   -0.2297   -3.4390 N   0  0  0  0  0  4  0  0  0  0  0  0
   -0.9891   -0.4833   -2.6235 H   0  0  0  0  0  0  0  0  0  0  0  0
   -0.1466   -1.0570   -3.8992 H   0  0  0  0  0  0  0  0  0  0  0  0
    0.3156    0.3309   -3.1723 H   0  0  0  0  0  0  0  0  0  0  0  0
   -0.0052    2.8915    0.0436 C   0  0  0  0  0  0  0  0  0  0  0  0
   -0.6094    3.2213   -0.6665 H   0  0  0  0  0  0  0  0  0  0  0  0
    0.9207    3.2083   -0.0959 H   0  0  0  0  0  0  0  0  0  0  0  0
   -0.3562    3.2954    0.9932 H   0  0  0  0  0  0  0  0  0  0  0  0
   -0.0019    1.4022    0.0012 C   0  0  0  0  0  0  0  0  0  0  0  0
   -1.1966    0.6981    0.0003 C   0  0  0  0  0  0  0  0  0  0  0  0
   -2.0635    1.1865   -0.0012 H   0  0  0  0  0  0  0  0  0  0  0  0
   -1.2035   -0.6961    0.0000 C   0  0  0  0  0  0  0  0  0  0  0  0
   -2.0796   -1.1878    0.0013 H   0  0  0  0  0  0  0  0  0  0  0  0
   -0.0000   -1.3980   -0.0006 C   0  0  0  0  0  0  0  0  0  0  0  0
   -0.0063   -2.3945   -0.0018 H   0  0  0  0  0  0  0  0  0  0  0  0
    1.2035   -0.7005    0.0000 C   0  0  0  0  0  0  0  0  0  0  0  0
    2.0836   -1.1970    0.0023 H   0  0  0  0  0  0  0  0  0  0  0  0
    1.1986    0.6944   -0.0009 C   0  0  0  0  0  0  0  0  0  0  0  0
    2.0650    1.1898   -0.0041 H   0  0  0  0  0  0  0  0  0  0  0  0
  1  5  1  0
  5  8  1  0
  1  2  1  0
  1  3  1  0
  1  4  1  0
  5  6  1  0
  5  7  1  0
  8  9  1  0
  8 10  1  0
  8 11  1  0
 12 16  1  0
 16 17  2  0
 17 19  1  0
 19 21  2  0
 21 23  1  0
 23 25  2  0
 25 16  1  0
 12 13  1  0
 12 14  1  0
 12 15  1  0
 17 18  1  0
 19 20  1  0
 21 22  1  0
 23 24  1  0
 25 26  1  0
M  CHG  1   8   1
M  END
>  <PDB_ID>  (397) 
pdb1f05

>  <RESIDUE_NAME>  (397) 
LYS   PHE

>  <FRAG_NAME>  (397) 
ETAM   MBZ

>  <FRAG_ATOM_NUM>  (397) 
fragi: 11  fragj: 15

>  <atom.prop.CHAIN_ID>  (397) 
A A A A A A A A A A A Z Z Z Z Z Z Z Z Z Z Z Z Z Z Z

>  <atom.prop.IS_HEAVY_ATOM>  (397) 
1 0 0 0 1 0 0 1 0 0 0 1 0 0 0 1 1 0 1 0 1 0 1 0 1 0

>  <DIFUSE_FUNC_ATOM>  (397) 
n/a

>  <FINAL_SINGLE_POINT_ENERGY>  (397) 
0

>  <NONCOV_INTER_ENERGY_QM>  (397) 
0

>  <FF_Energy>  (397) 
-8.36

>  <QM_Energy>  (397) 
-14.86

>  <source>  (397) 
ETAM_MBZ

>  <Index>  (397) 
3785

$$$$
ETAM-pdb2fts-A-MET-318:MBZ-pdb2fts-A-PHE-321
     RDKit          3D

 26 25  0  0  0  0  0  0  0  0999 V2000
    2.0966   -2.0592    4.4110 C   0  0  0  0  0  0  0  0  0  0  0  0
    3.0245   -2.1246    4.0244 H   0  0  0  0  0  0  0  0  0  0  0  0
    2.1747   -1.7866    5.3776 H   0  0  0  0  0  0  0  0  0  0  0  0
    1.6249   -3.0405    4.3596 H   0  0  0  0  0  0  0  0  0  0  0  0
    1.3231   -0.9879    3.6578 C   0  0  0  0  0  0  0  0  0  0  0  0
    0.9006   -1.3698    2.8451 H   0  0  0  0  0  0  0  0  0  0  0  0
    0.5360   -0.5645    4.2818 H   0  0  0  0  0  0  0  0  0  0  0  0
    2.2405    0.1131    3.2197 N   0  0  0  0  0  4  0  0  0  0  0  0
    1.7453    0.7214    2.6074 H   0  0  0  0  0  0  0  0  0  0  0  0
    2.5488    0.6148    4.0219 H   0  0  0  0  0  0  0  0  0  0  0  0
    3.0208   -0.2851    2.7467 H   0  0  0  0  0  0  0  0  0  0  0  0
   -0.0024    2.9595    0.0384 C   0  0  0  0  0  0  0  0  0  0  0  0
   -0.7891    3.2741   -0.4530 H   0  0  0  0  0  0  0  0  0  0  0  0
    0.8404    3.2747   -0.3478 H   0  0  0  0  0  0  0  0  0  0  0  0
   -0.0676    3.3565    1.0514 H   0  0  0  0  0  0  0  0  0  0  0  0
    0.0008    1.4307   -0.0061 C   0  0  0  0  0  0  0  0  0  0  0  0
   -1.2099    0.7067    0.0100 C   0  0  0  0  0  0  0  0  0  0  0  0
   -2.0743    1.1849    0.0277 H   0  0  0  0  0  0  0  0  0  0  0  0
   -1.2143   -0.7187   -0.0000 C   0  0  0  0  0  0  0  0  0  0  0  0
   -2.0874   -1.2014   -0.0007 H   0  0  0  0  0  0  0  0  0  0  0  0
    0.0018   -1.4230   -0.0073 C   0  0  0  0  0  0  0  0  0  0  0  0
    0.0003   -2.4144   -0.0183 H   0  0  0  0  0  0  0  0  0  0  0  0
    1.2143   -0.7127    0.0000 C   0  0  0  0  0  0  0  0  0  0  0  0
    2.0950   -1.1948    0.0042 H   0  0  0  0  0  0  0  0  0  0  0  0
    1.2073    0.7170    0.0033 C   0  0  0  0  0  0  0  0  0  0  0  0
    2.0748    1.1994    0.0114 H   0  0  0  0  0  0  0  0  0  0  0  0
  1  5  1  0
  5  8  1  0
  1  2  1  0
  1  3  1  0
  1  4  1  0
  5  6  1  0
  5  7  1  0
  8  9  1  0
  8 10  1  0
  8 11  1  0
 12 16  1  0
 16 17  2  0
 17 19  1  0
 19 21  2  0
 21 23  1  0
 23 25  2  0
 25 16  1  0
 12 13  1  0
 12 14  1  0
 12 15  1  0
 17 18  1  0
 19 20  1  0
 21 22  1  0
 23 24  1  0
 25 26  1  0
M  CHG  1   8   1
M  END
>  <PDB_ID>  (398) 
pdb2fts

>  <RESIDUE_NAME>  (398) 
MET   PHE

>  <FRAG_NAME>  (398) 
ETAM   MBZ

>  <FRAG_ATOM_NUM>  (398) 
fragi: 11  fragj: 15

>  <atom.prop.CHAIN_ID>  (398) 
A A A A A A A A A A A Z Z Z Z Z Z Z Z Z Z Z Z Z Z Z

>  <atom.prop.IS_HEAVY_ATOM>  (398) 
1 0 0 0 1 0 0 1 0 0 0 1 0 0 0 1 1 0 1 0 1 0 1 0 1 0

>  <DIFUSE_FUNC_ATOM>  (398) 
n/a

>  <FINAL_SINGLE_POINT_ENERGY>  (398) 
0

>  <NONCOV_INTER_ENERGY_QM>  (398) 
0

>  <FF_Energy>  (398) 
-5.28

>  <QM_Energy>  (398) 
-11.77

>  <source>  (398) 
ETAM_MBZ

>  <Index>  (398) 
3796

$$$$
ETAM-pdb1ez4-B-LYS-244:MBZ-pdb1ez4-B-PHE-248
     RDKit          3D

 26 25  0  0  0  0  0  0  0  0999 V2000
   -2.8800   -3.5932   -4.0068 C   0  0  0  0  0  0  0  0  0  0  0  0
   -2.6544   -4.1889   -3.2547 H   0  0  0  0  0  0  0  0  0  0  0  0
   -2.5700   -3.9560   -4.8693 H   0  0  0  0  0  0  0  0  0  0  0  0
   -3.9648   -3.4951   -4.0485 H   0  0  0  0  0  0  0  0  0  0  0  0
   -2.2561   -2.2376   -3.7787 C   0  0  0  0  0  0  0  0  0  0  0  0
   -2.2834   -1.7202   -4.6669 H   0  0  0  0  0  0  0  0  0  0  0  0
   -2.8664   -1.7075   -3.1427 H   0  0  0  0  0  0  0  0  0  0  0  0
   -0.8981   -2.2273   -3.2587 N   0  0  0  0  0  4  0  0  0  0  0  0
   -0.3570   -1.5118   -3.7121 H   0  0  0  0  0  0  0  0  0  0  0  0
   -0.9054   -2.0474   -2.2694 H   0  0  0  0  0  0  0  0  0  0  0  0
   -0.4558   -3.1158   -3.4205 H   0  0  0  0  0  0  0  0  0  0  0  0
    0.0416    2.9131   -0.0627 C   0  0  0  0  0  0  0  0  0  0  0  0
    0.9099    3.2090    0.2863 H   0  0  0  0  0  0  0  0  0  0  0  0
   -0.7121    3.2536    0.4674 H   0  0  0  0  0  0  0  0  0  0  0  0
   -0.0609    3.3032   -1.0753 H   0  0  0  0  0  0  0  0  0  0  0  0
    0.0072    1.3912   -0.0003 C   0  0  0  0  0  0  0  0  0  0  0  0
   -1.2183    0.6998    0.0060 C   0  0  0  0  0  0  0  0  0  0  0  0
   -2.0647    1.1899    0.0131 H   0  0  0  0  0  0  0  0  0  0  0  0
   -1.2047   -0.6946   -0.0000 C   0  0  0  0  0  0  0  0  0  0  0  0
   -2.0801   -1.1980    0.0017 H   0  0  0  0  0  0  0  0  0  0  0  0
    0.0042   -1.3991   -0.0065 C   0  0  0  0  0  0  0  0  0  0  0  0
   -0.0029   -2.3930   -0.0161 H   0  0  0  0  0  0  0  0  0  0  0  0
    1.2047   -0.6967   -0.0000 C   0  0  0  0  0  0  0  0  0  0  0  0
    2.0887   -1.1946    0.0057 H   0  0  0  0  0  0  0  0  0  0  0  0
    1.2069    0.6994    0.0008 C   0  0  0  0  0  0  0  0  0  0  0  0
    2.0699    1.1909    0.0014 H   0  0  0  0  0  0  0  0  0  0  0  0
  1  5  1  0
  5  8  1  0
  1  2  1  0
  1  3  1  0
  1  4  1  0
  5  6  1  0
  5  7  1  0
  8  9  1  0
  8 10  1  0
  8 11  1  0
 12 16  1  0
 16 17  2  0
 17 19  1  0
 19 21  2  0
 21 23  1  0
 23 25  2  0
 25 16  1  0
 12 13  1  0
 12 14  1  0
 12 15  1  0
 17 18  1  0
 19 20  1  0
 21 22  1  0
 23 24  1  0
 25 26  1  0
M  CHG  1   8   1
M  END
>  <PDB_ID>  (399) 
pdb1ez4

>  <RESIDUE_NAME>  (399) 
LYS   PHE

>  <FRAG_NAME>  (399) 
ETAM   MBZ

>  <FRAG_ATOM_NUM>  (399) 
fragi: 11  fragj: 15

>  <atom.prop.CHAIN_ID>  (399) 
A A A A A A A A A A A Z Z Z Z Z Z Z Z Z Z Z Z Z Z Z

>  <atom.prop.IS_HEAVY_ATOM>  (399) 
1 0 0 0 1 0 0 1 0 0 0 1 0 0 0 1 1 0 1 0 1 0 1 0 1 0

>  <DIFUSE_FUNC_ATOM>  (399) 
n/a

>  <FINAL_SINGLE_POINT_ENERGY>  (399) 
0

>  <NONCOV_INTER_ENERGY_QM>  (399) 
0

>  <FF_Energy>  (399) 
-4.22

>  <QM_Energy>  (399) 
-11.37

>  <source>  (399) 
ETAM_MBZ

>  <Index>  (399) 
3811

$$$$
ETAM-pdb2fuj-A-LYS-5:MBZ-pdb2fuj-A-PHE-80
     RDKit          3D

 26 25  0  0  0  0  0  0  0  0999 V2000
    3.9717    2.9446    4.0741 C   0  0  0  0  0  0  0  0  0  0  0  0
    4.7957    2.3857    4.0612 H   0  0  0  0  0  0  0  0  0  0  0  0
    3.8926    3.4187    4.9462 H   0  0  0  0  0  0  0  0  0  0  0  0
    4.0339    3.6829    3.2746 H   0  0  0  0  0  0  0  0  0  0  0  0
    2.7596    2.0208    3.9162 C   0  0  0  0  0  0  0  0  0  0  0  0
    2.7197    1.4039    4.7074 H   0  0  0  0  0  0  0  0  0  0  0  0
    1.9265    2.5815    3.8996 H   0  0  0  0  0  0  0  0  0  0  0  0
    2.8232    1.2038    2.6612 N   0  0  0  0  0  4  0  0  0  0  0  0
    2.4664    0.2909    2.8478 H   0  0  0  0  0  0  0  0  0  0  0  0
    2.2725    1.6459    1.9560 H   0  0  0  0  0  0  0  0  0  0  0  0
    3.7719    1.1415    2.3604 H   0  0  0  0  0  0  0  0  0  0  0  0
    0.0092    2.9042   -0.0252 C   0  0  0  0  0  0  0  0  0  0  0  0
    0.9144    3.2127    0.2288 H   0  0  0  0  0  0  0  0  0  0  0  0
   -0.6728    3.2266    0.6153 H   0  0  0  0  0  0  0  0  0  0  0  0
   -0.2246    3.3314   -1.0003 H   0  0  0  0  0  0  0  0  0  0  0  0
    0.0026    1.4047    0.0004 C   0  0  0  0  0  0  0  0  0  0  0  0
   -1.1925    0.6982    0.0017 C   0  0  0  0  0  0  0  0  0  0  0  0
   -2.0602    1.1827    0.0030 H   0  0  0  0  0  0  0  0  0  0  0  0
   -1.1970   -0.7028    0.0000 C   0  0  0  0  0  0  0  0  0  0  0  0
   -2.0797   -1.1885    0.0017 H   0  0  0  0  0  0  0  0  0  0  0  0
   -0.0052   -1.3961   -0.0025 C   0  0  0  0  0  0  0  0  0  0  0  0
   -0.0053   -2.3953   -0.0064 H   0  0  0  0  0  0  0  0  0  0  0  0
    1.1970   -0.6996   -0.0000 C   0  0  0  0  0  0  0  0  0  0  0  0
    2.0785   -1.1969    0.0032 H   0  0  0  0  0  0  0  0  0  0  0  0
    1.1951    0.6955    0.0003 C   0  0  0  0  0  0  0  0  0  0  0  0
    2.0657    1.1869    0.0001 H   0  0  0  0  0  0  0  0  0  0  0  0
  1  5  1  0
  5  8  1  0
  1  2  1  0
  1  3  1  0
  1  4  1  0
  5  6  1  0
  5  7  1  0
  8  9  1  0
  8 10  1  0
  8 11  1  0
 12 16  1  0
 16 17  2  0
 17 19  1  0
 19 21  2  0
 21 23  1  0
 23 25  2  0
 25 16  1  0
 12 13  1  0
 12 14  1  0
 12 15  1  0
 17 18  1  0
 19 20  1  0
 21 22  1  0
 23 24  1  0
 25 26  1  0
M  CHG  1   8   1
M  END
>  <PDB_ID>  (400) 
pdb2fuj

>  <RESIDUE_NAME>  (400) 
LYS   PHE

>  <FRAG_NAME>  (400) 
ETAM   MBZ

>  <FRAG_ATOM_NUM>  (400) 
fragi: 11  fragj: 15

>  <atom.prop.CHAIN_ID>  (400) 
A A A A A A A A A A A Z Z Z Z Z Z Z Z Z Z Z Z Z Z Z

>  <atom.prop.IS_HEAVY_ATOM>  (400) 
1 0 0 0 1 0 0 1 0 0 0 1 0 0 0 1 1 0 1 0 1 0 1 0 1 0

>  <DIFUSE_FUNC_ATOM>  (400) 
n/a

>  <FINAL_SINGLE_POINT_ENERGY>  (400) 
0

>  <NONCOV_INTER_ENERGY_QM>  (400) 
0

>  <FF_Energy>  (400) 
-2.7

>  <QM_Energy>  (400) 
-8.13

>  <source>  (400) 
ETAM_MBZ

>  <Index>  (400) 
3821

$$$$
ETAM-pdb1ezf-B-LYS-160:MBZ-pdb1ezf-B-PHE-157
     RDKit          3D

 26 25  0  0  0  0  0  0  0  0999 V2000
    1.6849   -0.2605    4.2939 C   0  0  0  0  0  0  0  0  0  0  0  0
    1.8123   -1.2487    4.3232 H   0  0  0  0  0  0  0  0  0  0  0  0
    1.4829    0.0854    5.2068 H   0  0  0  0  0  0  0  0  0  0  0  0
    2.6082    0.2001    3.9425 H   0  0  0  0  0  0  0  0  0  0  0  0
    0.5135    0.0523    3.3842 C   0  0  0  0  0  0  0  0  0  0  0  0
    0.4263    1.0506    3.2944 H   0  0  0  0  0  0  0  0  0  0  0  0
    0.6931   -0.3363    2.4735 H   0  0  0  0  0  0  0  0  0  0  0  0
   -0.7677   -0.5018    3.9038 N   0  0  0  0  0  4  0  0  0  0  0  0
   -1.5068   -0.2800    3.2681 H   0  0  0  0  0  0  0  0  0  0  0  0
   -0.6877   -1.4941    3.9919 H   0  0  0  0  0  0  0  0  0  0  0  0
   -0.9628   -0.1007    4.7979 H   0  0  0  0  0  0  0  0  0  0  0  0
   -0.0008    2.8951    0.0756 C   0  0  0  0  0  0  0  0  0  0  0  0
   -0.8163    3.2270   -0.3714 H   0  0  0  0  0  0  0  0  0  0  0  0
    0.8162    3.2266   -0.3683 H   0  0  0  0  0  0  0  0  0  0  0  0
   -0.0025    3.2775    1.0964 H   0  0  0  0  0  0  0  0  0  0  0  0
   -0.0010    1.3996    0.0005 C   0  0  0  0  0  0  0  0  0  0  0  0
   -1.2014    0.6890   -0.0016 C   0  0  0  0  0  0  0  0  0  0  0  0
   -2.0661    1.1831   -0.0054 H   0  0  0  0  0  0  0  0  0  0  0  0
   -1.2069   -0.6986    0.0000 C   0  0  0  0  0  0  0  0  0  0  0  0
   -2.0784   -1.1968    0.0004 H   0  0  0  0  0  0  0  0  0  0  0  0
    0.0023   -1.3935    0.0034 C   0  0  0  0  0  0  0  0  0  0  0  0
    0.0006   -2.3907    0.0077 H   0  0  0  0  0  0  0  0  0  0  0  0
    1.2069   -0.6926    0.0000 C   0  0  0  0  0  0  0  0  0  0  0  0
    2.0864   -1.1917    0.0012 H   0  0  0  0  0  0  0  0  0  0  0  0
    1.2001    0.6960   -0.0023 C   0  0  0  0  0  0  0  0  0  0  0  0
    2.0648    1.1965   -0.0073 H   0  0  0  0  0  0  0  0  0  0  0  0
  1  5  1  0
  5  8  1  0
  1  2  1  0
  1  3  1  0
  1  4  1  0
  5  6  1  0
  5  7  1  0
  8  9  1  0
  8 10  1  0
  8 11  1  0
 12 16  1  0
 16 17  2  0
 17 19  1  0
 19 21  2  0
 21 23  1  0
 23 25  2  0
 25 16  1  0
 12 13  1  0
 12 14  1  0
 12 15  1  0
 17 18  1  0
 19 20  1  0
 21 22  1  0
 23 24  1  0
 25 26  1  0
M  CHG  1   8   1
M  END
>  <PDB_ID>  (401) 
pdb1ezf

>  <RESIDUE_NAME>  (401) 
LYS   PHE

>  <FRAG_NAME>  (401) 
ETAM   MBZ

>  <FRAG_ATOM_NUM>  (401) 
fragi: 11  fragj: 15

>  <atom.prop.CHAIN_ID>  (401) 
A A A A A A A A A A A Z Z Z Z Z Z Z Z Z Z Z Z Z Z Z

>  <atom.prop.IS_HEAVY_ATOM>  (401) 
1 0 0 0 1 0 0 1 0 0 0 1 0 0 0 1 1 0 1 0 1 0 1 0 1 0

>  <DIFUSE_FUNC_ATOM>  (401) 
n/a

>  <FINAL_SINGLE_POINT_ENERGY>  (401) 
0

>  <NONCOV_INTER_ENERGY_QM>  (401) 
0

>  <FF_Energy>  (401) 
-5.71

>  <QM_Energy>  (401) 
-11.4

>  <source>  (401) 
ETAM_MBZ

>  <Index>  (401) 
3825

$$$$
ETAM-pdb1e9r-B-LYS-166:MBZ-pdb1e9r-B-PHE-495
     RDKit          3D

 26 25  0  0  0  0  0  0  0  0999 V2000
   -1.8110    4.1383   -2.6653 C   0  0  0  0  0  0  0  0  0  0  0  0
   -2.0518    3.6565   -3.5023 H   0  0  0  0  0  0  0  0  0  0  0  0
   -1.5342    3.4913   -1.9628 H   0  0  0  0  0  0  0  0  0  0  0  0
   -0.9865    4.8212   -2.8698 H   0  0  0  0  0  0  0  0  0  0  0  0
   -3.0488    4.8843   -2.1685 C   0  0  0  0  0  0  0  0  0  0  0  0
   -2.8464    5.2915   -1.2788 H   0  0  0  0  0  0  0  0  0  0  0  0
   -3.2771    5.6048   -2.8220 H   0  0  0  0  0  0  0  0  0  0  0  0
   -4.2177    3.9592   -2.0303 N   0  0  0  0  0  4  0  0  0  0  0  0
   -3.9458    3.1672   -1.4869 H   0  0  0  0  0  0  0  0  0  0  0  0
   -4.9640    4.4414   -1.5750 H   0  0  0  0  0  0  0  0  0  0  0  0
   -4.5096    3.6637   -2.9378 H   0  0  0  0  0  0  0  0  0  0  0  0
    0.0033    2.9079    0.0135 C   0  0  0  0  0  0  0  0  0  0  0  0
   -0.7737    3.2206   -0.5118 H   0  0  0  0  0  0  0  0  0  0  0  0
    0.8549    3.2154   -0.3847 H   0  0  0  0  0  0  0  0  0  0  0  0
   -0.0737    3.3422    1.0103 H   0  0  0  0  0  0  0  0  0  0  0  0
    0.0001    1.4032    0.0010 C   0  0  0  0  0  0  0  0  0  0  0  0
   -1.1989    0.6971    0.0015 C   0  0  0  0  0  0  0  0  0  0  0  0
   -2.0646    1.1857    0.0015 H   0  0  0  0  0  0  0  0  0  0  0  0
   -1.2017   -0.6971    0.0000 C   0  0  0  0  0  0  0  0  0  0  0  0
   -2.0787   -1.1903    0.0022 H   0  0  0  0  0  0  0  0  0  0  0  0
    0.0009   -1.3948   -0.0022 C   0  0  0  0  0  0  0  0  0  0  0  0
   -0.0044   -2.3935   -0.0054 H   0  0  0  0  0  0  0  0  0  0  0  0
    1.2017   -0.6992    0.0000 C   0  0  0  0  0  0  0  0  0  0  0  0
    2.0831   -1.1971    0.0031 H   0  0  0  0  0  0  0  0  0  0  0  0
    1.1979    0.6908   -0.0004 C   0  0  0  0  0  0  0  0  0  0  0  0
    2.0659    1.1878   -0.0023 H   0  0  0  0  0  0  0  0  0  0  0  0
  1  5  1  0
  5  8  1  0
  1  2  1  0
  1  3  1  0
  1  4  1  0
  5  6  1  0
  5  7  1  0
  8  9  1  0
  8 10  1  0
  8 11  1  0
 12 16  1  0
 16 17  2  0
 17 19  1  0
 19 21  2  0
 21 23  1  0
 23 25  2  0
 25 16  1  0
 12 13  1  0
 12 14  1  0
 12 15  1  0
 17 18  1  0
 19 20  1  0
 21 22  1  0
 23 24  1  0
 25 26  1  0
M  CHG  1   8   1
M  END
>  <PDB_ID>  (402) 
pdb1e9r

>  <RESIDUE_NAME>  (402) 
LYS   PHE

>  <FRAG_NAME>  (402) 
ETAM   MBZ

>  <FRAG_ATOM_NUM>  (402) 
fragi: 11  fragj: 15

>  <atom.prop.CHAIN_ID>  (402) 
A A A A A A A A A A A Z Z Z Z Z Z Z Z Z Z Z Z Z Z Z

>  <atom.prop.IS_HEAVY_ATOM>  (402) 
1 0 0 0 1 0 0 1 0 0 0 1 0 0 0 1 1 0 1 0 1 0 1 0 1 0

>  <DIFUSE_FUNC_ATOM>  (402) 
n/a

>  <FINAL_SINGLE_POINT_ENERGY>  (402) 
0

>  <NONCOV_INTER_ENERGY_QM>  (402) 
0

>  <FF_Energy>  (402) 
7.56

>  <QM_Energy>  (402) 
0.71

>  <source>  (402) 
ETAM_MBZ

>  <Index>  (402) 
3829

$$$$
ETAM-pdb1ez4-C-LYS-244:MBZ-pdb1ez4-C-PHE-248
     RDKit          3D

 26 25  0  0  0  0  0  0  0  0999 V2000
   -2.6689   -3.9649   -3.9515 C   0  0  0  0  0  0  0  0  0  0  0  0
   -2.4414   -4.5751   -3.2150 H   0  0  0  0  0  0  0  0  0  0  0  0
   -2.3093   -4.2716   -4.8137 H   0  0  0  0  0  0  0  0  0  0  0  0
   -3.7541   -3.8970   -4.0276 H   0  0  0  0  0  0  0  0  0  0  0  0
   -2.1299   -2.5949   -3.6472 C   0  0  0  0  0  0  0  0  0  0  0  0
   -2.1510   -2.0427   -4.5014 H   0  0  0  0  0  0  0  0  0  0  0  0
   -2.7586   -2.1390   -2.9894 H   0  0  0  0  0  0  0  0  0  0  0  0
   -0.7849   -2.6055   -3.1077 N   0  0  0  0  0  4  0  0  0  0  0  0
   -0.1134   -2.7604   -3.8414 H   0  0  0  0  0  0  0  0  0  0  0  0
   -0.5773   -1.7261   -2.6656 H   0  0  0  0  0  0  0  0  0  0  0  0
   -0.6867   -3.3376   -2.4238 H   0  0  0  0  0  0  0  0  0  0  0  0
   -0.0217    2.9036   -0.1330 C   0  0  0  0  0  0  0  0  0  0  0  0
    0.8038    3.2515    0.2488 H   0  0  0  0  0  0  0  0  0  0  0  0
   -0.8287    3.2364    0.3001 H   0  0  0  0  0  0  0  0  0  0  0  0
   -0.0577    3.2158   -1.1768 H   0  0  0  0  0  0  0  0  0  0  0  0
   -0.0035    1.3848   -0.0026 C   0  0  0  0  0  0  0  0  0  0  0  0
   -1.2028    0.6945    0.0056 C   0  0  0  0  0  0  0  0  0  0  0  0
   -2.0632    1.1812    0.0139 H   0  0  0  0  0  0  0  0  0  0  0  0
   -1.1928   -0.6925    0.0000 C   0  0  0  0  0  0  0  0  0  0  0  0
   -2.0710   -1.1949    0.0016 H   0  0  0  0  0  0  0  0  0  0  0  0
    0.0072   -1.3901   -0.0055 C   0  0  0  0  0  0  0  0  0  0  0  0
    0.0009   -2.3873   -0.0143 H   0  0  0  0  0  0  0  0  0  0  0  0
    1.1928   -0.6905   -0.0000 C   0  0  0  0  0  0  0  0  0  0  0  0
    2.0836   -1.1910    0.0036 H   0  0  0  0  0  0  0  0  0  0  0  0
    1.1991    0.6938    0.0026 C   0  0  0  0  0  0  0  0  0  0  0  0
    2.0599    1.1901    0.0072 H   0  0  0  0  0  0  0  0  0  0  0  0
  1  5  1  0
  5  8  1  0
  1  2  1  0
  1  3  1  0
  1  4  1  0
  5  6  1  0
  5  7  1  0
  8  9  1  0
  8 10  1  0
  8 11  1  0
 12 16  1  0
 16 17  2  0
 17 19  1  0
 19 21  2  0
 21 23  1  0
 23 25  2  0
 25 16  1  0
 12 13  1  0
 12 14  1  0
 12 15  1  0
 17 18  1  0
 19 20  1  0
 21 22  1  0
 23 24  1  0
 25 26  1  0
M  CHG  1   8   1
M  END
>  <PDB_ID>  (403) 
pdb1ez4

>  <RESIDUE_NAME>  (403) 
LYS   PHE

>  <FRAG_NAME>  (403) 
ETAM   MBZ

>  <FRAG_ATOM_NUM>  (403) 
fragi: 11  fragj: 15

>  <atom.prop.CHAIN_ID>  (403) 
A A A A A A A A A A A Z Z Z Z Z Z Z Z Z Z Z Z Z Z Z

>  <atom.prop.IS_HEAVY_ATOM>  (403) 
1 0 0 0 1 0 0 1 0 0 0 1 0 0 0 1 1 0 1 0 1 0 1 0 1 0

>  <DIFUSE_FUNC_ATOM>  (403) 
n/a

>  <FINAL_SINGLE_POINT_ENERGY>  (403) 
0

>  <NONCOV_INTER_ENERGY_QM>  (403) 
0

>  <FF_Energy>  (403) 
-3.59

>  <QM_Energy>  (403) 
-10.03

>  <source>  (403) 
ETAM_MBZ

>  <Index>  (403) 
3847

$$$$
ETAM-pdb1f2d-A-LYS-37:MBZ-pdb1f2d-A-PHE-178
     RDKit          3D

 26 25  0  0  0  0  0  0  0  0999 V2000
    1.4973   -2.1395   -2.8945 C   0  0  0  0  0  0  0  0  0  0  0  0
    0.9538   -2.5785   -3.6110 H   0  0  0  0  0  0  0  0  0  0  0  0
    0.9576   -2.0892   -2.0533 H   0  0  0  0  0  0  0  0  0  0  0  0
    2.3854   -2.7434   -2.7078 H   0  0  0  0  0  0  0  0  0  0  0  0
    1.8195   -0.7134   -3.3432 C   0  0  0  0  0  0  0  0  0  0  0  0
    0.9497   -0.2234   -3.5091 H   0  0  0  0  0  0  0  0  0  0  0  0
    2.2982   -0.2378   -2.5886 H   0  0  0  0  0  0  0  0  0  0  0  0
    2.6624   -0.6349   -4.5760 N   0  0  0  0  0  4  0  0  0  0  0  0
    3.3413    0.0881   -4.4640 H   0  0  0  0  0  0  0  0  0  0  0  0
    3.1217   -1.5101   -4.7157 H   0  0  0  0  0  0  0  0  0  0  0  0
    2.0792   -0.4309   -5.3596 H   0  0  0  0  0  0  0  0  0  0  0  0
    0.0127    2.8997    0.0269 C   0  0  0  0  0  0  0  0  0  0  0  0
    0.8996    3.1953    0.3554 H   0  0  0  0  0  0  0  0  0  0  0  0
   -0.7095    3.2009    0.6349 H   0  0  0  0  0  0  0  0  0  0  0  0
   -0.1545    3.3668   -0.9436 H   0  0  0  0  0  0  0  0  0  0  0  0
    0.0027    1.3988    0.0007 C   0  0  0  0  0  0  0  0  0  0  0  0
   -1.1942    0.6954   -0.0015 C   0  0  0  0  0  0  0  0  0  0  0  0
   -2.0597    1.1875   -0.0058 H   0  0  0  0  0  0  0  0  0  0  0  0
   -1.1994   -0.6928   -0.0000 C   0  0  0  0  0  0  0  0  0  0  0  0
   -2.0805   -1.1842    0.0019 H   0  0  0  0  0  0  0  0  0  0  0  0
   -0.0061   -1.3913    0.0011 C   0  0  0  0  0  0  0  0  0  0  0  0
   -0.0101   -2.3901    0.0026 H   0  0  0  0  0  0  0  0  0  0  0  0
    1.1994   -0.6984   -0.0000 C   0  0  0  0  0  0  0  0  0  0  0  0
    2.0776   -1.2008    0.0010 H   0  0  0  0  0  0  0  0  0  0  0  0
    1.1975    0.6884   -0.0003 C   0  0  0  0  0  0  0  0  0  0  0  0
    2.0663    1.1844   -0.0023 H   0  0  0  0  0  0  0  0  0  0  0  0
  1  5  1  0
  5  8  1  0
  1  2  1  0
  1  3  1  0
  1  4  1  0
  5  6  1  0
  5  7  1  0
  8  9  1  0
  8 10  1  0
  8 11  1  0
 12 16  1  0
 16 17  2  0
 17 19  1  0
 19 21  2  0
 21 23  1  0
 23 25  2  0
 25 16  1  0
 12 13  1  0
 12 14  1  0
 12 15  1  0
 17 18  1  0
 19 20  1  0
 21 22  1  0
 23 24  1  0
 25 26  1  0
M  CHG  1   8   1
M  END
>  <PDB_ID>  (404) 
pdb1f2d

>  <RESIDUE_NAME>  (404) 
LYS   PHE

>  <FRAG_NAME>  (404) 
ETAM   MBZ

>  <FRAG_ATOM_NUM>  (404) 
fragi: 11  fragj: 15

>  <atom.prop.CHAIN_ID>  (404) 
A A A A A A A A A A A Z Z Z Z Z Z Z Z Z Z Z Z Z Z Z

>  <atom.prop.IS_HEAVY_ATOM>  (404) 
1 0 0 0 1 0 0 1 0 0 0 1 0 0 0 1 1 0 1 0 1 0 1 0 1 0

>  <DIFUSE_FUNC_ATOM>  (404) 
n/a

>  <FINAL_SINGLE_POINT_ENERGY>  (404) 
0

>  <NONCOV_INTER_ENERGY_QM>  (404) 
0

>  <FF_Energy>  (404) 
-0.28

>  <QM_Energy>  (404) 
-5.34

>  <source>  (404) 
ETAM_MBZ

>  <Index>  (404) 
3857

$$$$
ETAM-pdb1f3d-K-LYS-64:MBZ-pdb1f3d-K-PHE-59
     RDKit          3D

 26 25  0  0  0  0  0  0  0  0999 V2000
   -1.5143    2.4748   -3.5756 C   0  0  0  0  0  0  0  0  0  0  0  0
   -1.9862    2.1818   -4.4012 H   0  0  0  0  0  0  0  0  0  0  0  0
   -0.9916    1.7207   -3.1907 H   0  0  0  0  0  0  0  0  0  0  0  0
   -0.8295    3.2835   -3.8306 H   0  0  0  0  0  0  0  0  0  0  0  0
   -2.5526    2.9175   -2.5546 C   0  0  0  0  0  0  0  0  0  0  0  0
   -2.0814    3.2684   -1.7413 H   0  0  0  0  0  0  0  0  0  0  0  0
   -3.1086    3.6521   -2.9521 H   0  0  0  0  0  0  0  0  0  0  0  0
   -3.4518    1.7926   -2.1489 N   0  0  0  0  0  4  0  0  0  0  0  0
   -4.2505    2.1644   -1.6802 H   0  0  0  0  0  0  0  0  0  0  0  0
   -3.7410    1.2932   -2.9639 H   0  0  0  0  0  0  0  0  0  0  0  0
   -2.9548    1.1811   -1.5368 H   0  0  0  0  0  0  0  0  0  0  0  0
    0.0026    2.8903   -0.0377 C   0  0  0  0  0  0  0  0  0  0  0  0
   -0.8320    3.1925   -0.4803 H   0  0  0  0  0  0  0  0  0  0  0  0
    0.7999    3.1884   -0.5488 H   0  0  0  0  0  0  0  0  0  0  0  0
    0.0449    3.3671    0.9416 H   0  0  0  0  0  0  0  0  0  0  0  0
    0.0001    1.3991   -0.0004 C   0  0  0  0  0  0  0  0  0  0  0  0
   -1.1961    0.6935    0.0004 C   0  0  0  0  0  0  0  0  0  0  0  0
   -2.0629    1.1823    0.0002 H   0  0  0  0  0  0  0  0  0  0  0  0
   -1.1998   -0.6978   -0.0000 C   0  0  0  0  0  0  0  0  0  0  0  0
   -2.0763   -1.1915    0.0009 H   0  0  0  0  0  0  0  0  0  0  0  0
    0.0010   -1.3913    0.0000 C   0  0  0  0  0  0  0  0  0  0  0  0
   -0.0019   -2.3909   -0.0007 H   0  0  0  0  0  0  0  0  0  0  0  0
    1.1998   -0.6946    0.0000 C   0  0  0  0  0  0  0  0  0  0  0  0
    2.0815   -1.1939    0.0010 H   0  0  0  0  0  0  0  0  0  0  0  0
    1.1951    0.6911    0.0000 C   0  0  0  0  0  0  0  0  0  0  0  0
    2.0636    1.1890   -0.0003 H   0  0  0  0  0  0  0  0  0  0  0  0
  1  5  1  0
  5  8  1  0
  1  2  1  0
  1  3  1  0
  1  4  1  0
  5  6  1  0
  5  7  1  0
  8  9  1  0
  8 10  1  0
  8 11  1  0
 12 16  1  0
 16 17  2  0
 17 19  1  0
 19 21  2  0
 21 23  1  0
 23 25  2  0
 25 16  1  0
 12 13  1  0
 12 14  1  0
 12 15  1  0
 17 18  1  0
 19 20  1  0
 21 22  1  0
 23 24  1  0
 25 26  1  0
M  CHG  1   8   1
M  END
>  <PDB_ID>  (405) 
pdb1f3d

>  <RESIDUE_NAME>  (405) 
LYS   PHE

>  <FRAG_NAME>  (405) 
ETAM   MBZ

>  <FRAG_ATOM_NUM>  (405) 
fragi: 11  fragj: 15

>  <atom.prop.CHAIN_ID>  (405) 
A A A A A A A A A A A Z Z Z Z Z Z Z Z Z Z Z Z Z Z Z

>  <atom.prop.IS_HEAVY_ATOM>  (405) 
1 0 0 0 1 0 0 1 0 0 0 1 0 0 0 1 1 0 1 0 1 0 1 0 1 0

>  <DIFUSE_FUNC_ATOM>  (405) 
n/a

>  <FINAL_SINGLE_POINT_ENERGY>  (405) 
0

>  <NONCOV_INTER_ENERGY_QM>  (405) 
0

>  <FF_Energy>  (405) 
2.4

>  <QM_Energy>  (405) 
-5.83

>  <source>  (405) 
ETAM_MBZ

>  <Index>  (405) 
3868

$$$$
ETAM-pdb2fxo-A-LYS-860:MBZ-pdb2fxo-A-PHE-856
     RDKit          3D

 26 25  0  0  0  0  0  0  0  0999 V2000
   -2.8777   -0.6522    4.4075 C   0  0  0  0  0  0  0  0  0  0  0  0
   -2.6655    0.0338    5.0975 H   0  0  0  0  0  0  0  0  0  0  0  0
   -3.2852   -1.4547    4.8331 H   0  0  0  0  0  0  0  0  0  0  0  0
   -3.5985   -0.2277    3.7087 H   0  0  0  0  0  0  0  0  0  0  0  0
   -1.5779   -1.0710    3.7198 C   0  0  0  0  0  0  0  0  0  0  0  0
   -1.1553   -0.2596    3.3075 H   0  0  0  0  0  0  0  0  0  0  0  0
   -0.9527   -1.4454    4.4103 H   0  0  0  0  0  0  0  0  0  0  0  0
   -1.8034   -2.0984    2.6571 N   0  0  0  0  0  4  0  0  0  0  0  0
   -1.9424   -2.9891    3.0860 H   0  0  0  0  0  0  0  0  0  0  0  0
   -2.6116   -1.8491    2.1261 H   0  0  0  0  0  0  0  0  0  0  0  0
   -1.0042   -2.1331    2.0595 H   0  0  0  0  0  0  0  0  0  0  0  0
    0.0520    2.9123    0.0058 C   0  0  0  0  0  0  0  0  0  0  0  0
    0.4752    3.2027   -0.8432 H   0  0  0  0  0  0  0  0  0  0  0  0
    0.5977    3.1953    0.7855 H   0  0  0  0  0  0  0  0  0  0  0  0
   -0.9161    3.4075    0.0811 H   0  0  0  0  0  0  0  0  0  0  0  0
    0.0033    1.3973    0.0021 C   0  0  0  0  0  0  0  0  0  0  0  0
   -1.1972    0.6857    0.0006 C   0  0  0  0  0  0  0  0  0  0  0  0
   -2.0611    1.1811   -0.0015 H   0  0  0  0  0  0  0  0  0  0  0  0
   -1.1968   -0.6917   -0.0000 C   0  0  0  0  0  0  0  0  0  0  0  0
   -2.0755   -1.1917   -0.0004 H   0  0  0  0  0  0  0  0  0  0  0  0
   -0.0027   -1.3847    0.0014 C   0  0  0  0  0  0  0  0  0  0  0  0
   -0.0058   -2.3860    0.0024 H   0  0  0  0  0  0  0  0  0  0  0  0
    1.1968   -0.6925    0.0000 C   0  0  0  0  0  0  0  0  0  0  0  0
    2.0767   -1.1978    0.0032 H   0  0  0  0  0  0  0  0  0  0  0  0
    1.1965    0.6859   -0.0040 C   0  0  0  0  0  0  0  0  0  0  0  0
    2.0650    1.1854   -0.0119 H   0  0  0  0  0  0  0  0  0  0  0  0
  1  5  1  0
  5  8  1  0
  1  2  1  0
  1  3  1  0
  1  4  1  0
  5  6  1  0
  5  7  1  0
  8  9  1  0
  8 10  1  0
  8 11  1  0
 12 16  1  0
 16 17  2  0
 17 19  1  0
 19 21  2  0
 21 23  1  0
 23 25  2  0
 25 16  1  0
 12 13  1  0
 12 14  1  0
 12 15  1  0
 17 18  1  0
 19 20  1  0
 21 22  1  0
 23 24  1  0
 25 26  1  0
M  CHG  1   8   1
M  END
>  <PDB_ID>  (406) 
pdb2fxo

>  <RESIDUE_NAME>  (406) 
LYS   PHE

>  <FRAG_NAME>  (406) 
ETAM   MBZ

>  <FRAG_ATOM_NUM>  (406) 
fragi: 11  fragj: 15

>  <atom.prop.CHAIN_ID>  (406) 
A A A A A A A A A A A Z Z Z Z Z Z Z Z Z Z Z Z Z Z Z

>  <atom.prop.IS_HEAVY_ATOM>  (406) 
1 0 0 0 1 0 0 1 0 0 0 1 0 0 0 1 1 0 1 0 1 0 1 0 1 0

>  <DIFUSE_FUNC_ATOM>  (406) 
n/a

>  <FINAL_SINGLE_POINT_ENERGY>  (406) 
0

>  <NONCOV_INTER_ENERGY_QM>  (406) 
0

>  <FF_Energy>  (406) 
-2.96

>  <QM_Energy>  (406) 
-11.0

>  <source>  (406) 
ETAM_MBZ

>  <Index>  (406) 
3869

$$$$
ETAM-pdb2fxo-D-LYS-860:MBZ-pdb2fxo-D-PHE-856
     RDKit          3D

 26 25  0  0  0  0  0  0  0  0999 V2000
    2.3712   -0.6620   -4.6172 C   0  0  0  0  0  0  0  0  0  0  0  0
    2.3702   -0.6412   -5.6132 H   0  0  0  0  0  0  0  0  0  0  0  0
    2.2845   -1.5993   -4.2926 H   0  0  0  0  0  0  0  0  0  0  0  0
    3.3099   -0.2436   -4.2539 H   0  0  0  0  0  0  0  0  0  0  0  0
    1.1413    0.1291   -4.1217 C   0  0  0  0  0  0  0  0  0  0  0  0
    1.4239    0.7161   -3.3631 H   0  0  0  0  0  0  0  0  0  0  0  0
    0.8030    0.6972   -4.8721 H   0  0  0  0  0  0  0  0  0  0  0  0
    0.0308   -0.7789   -3.6532 N   0  0  0  0  0  4  0  0  0  0  0  0
    0.2589   -1.7180   -3.8969 H   0  0  0  0  0  0  0  0  0  0  0  0
   -0.0584   -0.6938   -2.6648 H   0  0  0  0  0  0  0  0  0  0  0  0
   -0.8170   -0.5057   -4.0989 H   0  0  0  0  0  0  0  0  0  0  0  0
   -0.0614    2.9351    0.0066 C   0  0  0  0  0  0  0  0  0  0  0  0
   -0.3915    3.2123    0.9024 H   0  0  0  0  0  0  0  0  0  0  0  0
   -0.7003    3.2171   -0.7009 H   0  0  0  0  0  0  0  0  0  0  0  0
    0.8821    3.4505   -0.1733 H   0  0  0  0  0  0  0  0  0  0  0  0
   -0.0014    1.4128   -0.0100 C   0  0  0  0  0  0  0  0  0  0  0  0
   -1.1899    0.6878    0.0069 C   0  0  0  0  0  0  0  0  0  0  0  0
   -2.0642    1.1717    0.0233 H   0  0  0  0  0  0  0  0  0  0  0  0
   -1.1925   -0.7083   -0.0000 C   0  0  0  0  0  0  0  0  0  0  0  0
   -2.0758   -1.1948   -0.0048 H   0  0  0  0  0  0  0  0  0  0  0  0
   -0.0054   -1.3937    0.0024 C   0  0  0  0  0  0  0  0  0  0  0  0
   -0.0021   -2.3965    0.0054 H   0  0  0  0  0  0  0  0  0  0  0  0
    1.1925   -0.6994   -0.0000 C   0  0  0  0  0  0  0  0  0  0  0  0
    2.0766   -1.1955   -0.0009 H   0  0  0  0  0  0  0  0  0  0  0  0
    1.1967    0.7007    0.0007 C   0  0  0  0  0  0  0  0  0  0  0  0
    2.0649    1.1896    0.0079 H   0  0  0  0  0  0  0  0  0  0  0  0
  1  5  1  0
  5  8  1  0
  1  2  1  0
  1  3  1  0
  1  4  1  0
  5  6  1  0
  5  7  1  0
  8  9  1  0
  8 10  1  0
  8 11  1  0
 12 16  1  0
 16 17  2  0
 17 19  1  0
 19 21  2  0
 21 23  1  0
 23 25  2  0
 25 16  1  0
 12 13  1  0
 12 14  1  0
 12 15  1  0
 17 18  1  0
 19 20  1  0
 21 22  1  0
 23 24  1  0
 25 26  1  0
M  CHG  1   8   1
M  END
>  <PDB_ID>  (407) 
pdb2fxo

>  <RESIDUE_NAME>  (407) 
LYS   PHE

>  <FRAG_NAME>  (407) 
ETAM   MBZ

>  <FRAG_ATOM_NUM>  (407) 
fragi: 11  fragj: 15

>  <atom.prop.CHAIN_ID>  (407) 
A A A A A A A A A A A Z Z Z Z Z Z Z Z Z Z Z Z Z Z Z

>  <atom.prop.IS_HEAVY_ATOM>  (407) 
1 0 0 0 1 0 0 1 0 0 0 1 0 0 0 1 1 0 1 0 1 0 1 0 1 0

>  <DIFUSE_FUNC_ATOM>  (407) 
n/a

>  <FINAL_SINGLE_POINT_ENERGY>  (407) 
0

>  <NONCOV_INTER_ENERGY_QM>  (407) 
0

>  <FF_Energy>  (407) 
-7.5

>  <QM_Energy>  (407) 
-13.73

>  <source>  (407) 
ETAM_MBZ

>  <Index>  (407) 
3870

$$$$
ETAM-pdb1f3u-B-LYS-54:MBZ-pdb1f3u-B-PHE-91
     RDKit          3D

 26 25  0  0  0  0  0  0  0  0999 V2000
   -1.7592    2.0941   -2.9215 C   0  0  0  0  0  0  0  0  0  0  0  0
   -2.4885    2.7763   -2.9425 H   0  0  0  0  0  0  0  0  0  0  0  0
   -1.6909    1.7011   -2.0061 H   0  0  0  0  0  0  0  0  0  0  0  0
   -2.0026    1.3001   -3.6275 H   0  0  0  0  0  0  0  0  0  0  0  0
   -0.4441    2.7805   -3.2518 C   0  0  0  0  0  0  0  0  0  0  0  0
   -0.4444    3.0358   -4.2220 H   0  0  0  0  0  0  0  0  0  0  0  0
   -0.3621    3.6117   -2.6970 H   0  0  0  0  0  0  0  0  0  0  0  0
    0.7217    1.8957   -2.9798 N   0  0  0  0  0  4  0  0  0  0  0  0
    1.4614    2.1170   -3.6145 H   0  0  0  0  0  0  0  0  0  0  0  0
    1.0327    2.0370   -2.0401 H   0  0  0  0  0  0  0  0  0  0  0  0
    0.4494    0.9420   -3.1024 H   0  0  0  0  0  0  0  0  0  0  0  0
   -0.0080    2.9005    0.0396 C   0  0  0  0  0  0  0  0  0  0  0  0
   -0.6783    3.2218   -0.6113 H   0  0  0  0  0  0  0  0  0  0  0  0
    0.8988    3.2182   -0.1886 H   0  0  0  0  0  0  0  0  0  0  0  0
   -0.2683    3.3099    1.0156 H   0  0  0  0  0  0  0  0  0  0  0  0
   -0.0009    1.4008   -0.0000 C   0  0  0  0  0  0  0  0  0  0  0  0
   -1.1965    0.6933   -0.0005 C   0  0  0  0  0  0  0  0  0  0  0  0
   -2.0633    1.1852   -0.0028 H   0  0  0  0  0  0  0  0  0  0  0  0
   -1.2028   -0.6946   -0.0000 C   0  0  0  0  0  0  0  0  0  0  0  0
   -2.0786   -1.1894    0.0004 H   0  0  0  0  0  0  0  0  0  0  0  0
   -0.0007   -1.3933    0.0011 C   0  0  0  0  0  0  0  0  0  0  0  0
   -0.0059   -2.3917    0.0020 H   0  0  0  0  0  0  0  0  0  0  0  0
    1.2028   -0.6986   -0.0000 C   0  0  0  0  0  0  0  0  0  0  0  0
    2.0825   -1.1973    0.0010 H   0  0  0  0  0  0  0  0  0  0  0  0
    1.1981    0.6924   -0.0006 C   0  0  0  0  0  0  0  0  0  0  0  0
    2.0649    1.1893   -0.0019 H   0  0  0  0  0  0  0  0  0  0  0  0
  1  5  1  0
  5  8  1  0
  1  2  1  0
  1  3  1  0
  1  4  1  0
  5  6  1  0
  5  7  1  0
  8  9  1  0
  8 10  1  0
  8 11  1  0
 12 16  1  0
 16 17  2  0
 17 19  1  0
 19 21  2  0
 21 23  1  0
 23 25  2  0
 25 16  1  0
 12 13  1  0
 12 14  1  0
 12 15  1  0
 17 18  1  0
 19 20  1  0
 21 22  1  0
 23 24  1  0
 25 26  1  0
M  CHG  1   8   1
M  END
>  <PDB_ID>  (408) 
pdb1f3u

>  <RESIDUE_NAME>  (408) 
LYS   PHE

>  <FRAG_NAME>  (408) 
ETAM   MBZ

>  <FRAG_ATOM_NUM>  (408) 
fragi: 11  fragj: 15

>  <atom.prop.CHAIN_ID>  (408) 
A A A A A A A A A A A Z Z Z Z Z Z Z Z Z Z Z Z Z Z Z

>  <atom.prop.IS_HEAVY_ATOM>  (408) 
1 0 0 0 1 0 0 1 0 0 0 1 0 0 0 1 1 0 1 0 1 0 1 0 1 0

>  <DIFUSE_FUNC_ATOM>  (408) 
n/a

>  <FINAL_SINGLE_POINT_ENERGY>  (408) 
0

>  <NONCOV_INTER_ENERGY_QM>  (408) 
0

>  <FF_Energy>  (408) 
-1.49

>  <QM_Energy>  (408) 
-9.92

>  <source>  (408) 
ETAM_MBZ

>  <Index>  (408) 
3879

$$$$
ETAM-pdb1ez4-D-LYS-244:MBZ-pdb1ez4-D-PHE-248
     RDKit          3D

 26 25  0  0  0  0  0  0  0  0999 V2000
   -2.7258   -3.5841   -4.2030 C   0  0  0  0  0  0  0  0  0  0  0  0
   -2.4772   -4.2187   -3.4942 H   0  0  0  0  0  0  0  0  0  0  0  0
   -2.4040   -3.8684   -5.0878 H   0  0  0  0  0  0  0  0  0  0  0  0
   -3.8132   -3.5161   -4.2370 H   0  0  0  0  0  0  0  0  0  0  0  0
   -2.1525   -2.2200   -3.8775 C   0  0  0  0  0  0  0  0  0  0  0  0
   -2.1740   -1.6553   -4.7276 H   0  0  0  0  0  0  0  0  0  0  0  0
   -2.7796   -1.7613   -3.2152 H   0  0  0  0  0  0  0  0  0  0  0  0
   -0.8051   -2.2410   -3.3388 N   0  0  0  0  0  4  0  0  0  0  0  0
   -0.4843   -3.1891   -3.2362 H   0  0  0  0  0  0  0  0  0  0  0  0
   -0.1751   -1.7542   -3.9532 H   0  0  0  0  0  0  0  0  0  0  0  0
   -0.7818   -1.7955   -2.4377 H   0  0  0  0  0  0  0  0  0  0  0  0
   -0.0258    2.8920   -0.0416 C   0  0  0  0  0  0  0  0  0  0  0  0
    0.8022    3.2274    0.3725 H   0  0  0  0  0  0  0  0  0  0  0  0
   -0.8297    3.2026    0.4352 H   0  0  0  0  0  0  0  0  0  0  0  0
   -0.0701    3.2911   -1.0549 H   0  0  0  0  0  0  0  0  0  0  0  0
   -0.0020    1.3912   -0.0004 C   0  0  0  0  0  0  0  0  0  0  0  0
   -1.2076    0.6901    0.0022 C   0  0  0  0  0  0  0  0  0  0  0  0
   -2.0672    1.1802    0.0045 H   0  0  0  0  0  0  0  0  0  0  0  0
   -1.2054   -0.7016   -0.0000 C   0  0  0  0  0  0  0  0  0  0  0  0
   -2.0764   -1.2022    0.0008 H   0  0  0  0  0  0  0  0  0  0  0  0
    0.0074   -1.3972   -0.0022 C   0  0  0  0  0  0  0  0  0  0  0  0
    0.0061   -2.3922   -0.0060 H   0  0  0  0  0  0  0  0  0  0  0  0
    1.2054   -0.6902    0.0000 C   0  0  0  0  0  0  0  0  0  0  0  0
    2.0908   -1.1841    0.0027 H   0  0  0  0  0  0  0  0  0  0  0  0
    1.2021    0.7076    0.0003 C   0  0  0  0  0  0  0  0  0  0  0  0
    2.0625    1.2018    0.0000 H   0  0  0  0  0  0  0  0  0  0  0  0
  1  5  1  0
  5  8  1  0
  1  2  1  0
  1  3  1  0
  1  4  1  0
  5  6  1  0
  5  7  1  0
  8  9  1  0
  8 10  1  0
  8 11  1  0
 12 16  1  0
 16 17  2  0
 17 19  1  0
 19 21  2  0
 21 23  1  0
 23 25  2  0
 25 16  1  0
 12 13  1  0
 12 14  1  0
 12 15  1  0
 17 18  1  0
 19 20  1  0
 21 22  1  0
 23 24  1  0
 25 26  1  0
M  CHG  1   8   1
M  END
>  <PDB_ID>  (409) 
pdb1ez4

>  <RESIDUE_NAME>  (409) 
LYS   PHE

>  <FRAG_NAME>  (409) 
ETAM   MBZ

>  <FRAG_ATOM_NUM>  (409) 
fragi: 11  fragj: 15

>  <atom.prop.CHAIN_ID>  (409) 
A A A A A A A A A A A Z Z Z Z Z Z Z Z Z Z Z Z Z Z Z

>  <atom.prop.IS_HEAVY_ATOM>  (409) 
1 0 0 0 1 0 0 1 0 0 0 1 0 0 0 1 1 0 1 0 1 0 1 0 1 0

>  <DIFUSE_FUNC_ATOM>  (409) 
n/a

>  <FINAL_SINGLE_POINT_ENERGY>  (409) 
0

>  <NONCOV_INTER_ENERGY_QM>  (409) 
0

>  <FF_Energy>  (409) 
-4.37

>  <QM_Energy>  (409) 
-11.48

>  <source>  (409) 
ETAM_MBZ

>  <Index>  (409) 
3889

$$$$
ETAM-pdb2g02-A-LYS-247:MBZ-pdb2g02-A-PHE-243
     RDKit          3D

 26 25  0  0  0  0  0  0  0  0999 V2000
    1.2656   -2.8278    4.9386 C   0  0  0  0  0  0  0  0  0  0  0  0
    1.4570   -3.8040    5.0417 H   0  0  0  0  0  0  0  0  0  0  0  0
    1.0328   -2.4389    5.8301 H   0  0  0  0  0  0  0  0  0  0  0  0
    2.1779   -2.3438    4.5901 H   0  0  0  0  0  0  0  0  0  0  0  0
    0.0583   -2.6605    3.9979 C   0  0  0  0  0  0  0  0  0  0  0  0
   -0.7766   -2.8454    4.5188 H   0  0  0  0  0  0  0  0  0  0  0  0
    0.0394   -1.7136    3.6720 H   0  0  0  0  0  0  0  0  0  0  0  0
    0.1295   -3.5846    2.8310 N   0  0  0  0  0  4  0  0  0  0  0  0
    0.5418   -3.1067    2.0561 H   0  0  0  0  0  0  0  0  0  0  0  0
    0.6870   -4.3785    3.0708 H   0  0  0  0  0  0  0  0  0  0  0  0
   -0.7931   -3.8832    2.5886 H   0  0  0  0  0  0  0  0  0  0  0  0
   -0.0167    2.9364   -0.0178 C   0  0  0  0  0  0  0  0  0  0  0  0
   -0.8781    3.2288   -0.4075 H   0  0  0  0  0  0  0  0  0  0  0  0
    0.7469    3.2411   -0.5670 H   0  0  0  0  0  0  0  0  0  0  0  0
    0.0766    3.3991    0.9646 H   0  0  0  0  0  0  0  0  0  0  0  0
   -0.0028    1.4288    0.0036 C   0  0  0  0  0  0  0  0  0  0  0  0
   -1.2012    0.7054    0.0039 C   0  0  0  0  0  0  0  0  0  0  0  0
   -2.0729    1.1806    0.0054 H   0  0  0  0  0  0  0  0  0  0  0  0
   -1.2093   -0.7203    0.0000 C   0  0  0  0  0  0  0  0  0  0  0  0
   -2.0848   -1.1988   -0.0001 H   0  0  0  0  0  0  0  0  0  0  0  0
    0.0008   -1.4206   -0.0011 C   0  0  0  0  0  0  0  0  0  0  0  0
   -0.0004   -2.4143   -0.0030 H   0  0  0  0  0  0  0  0  0  0  0  0
    1.2093   -0.7139    0.0000 C   0  0  0  0  0  0  0  0  0  0  0  0
    2.0918   -1.1927    0.0069 H   0  0  0  0  0  0  0  0  0  0  0  0
    1.2032    0.7206   -0.0064 C   0  0  0  0  0  0  0  0  0  0  0  0
    2.0702    1.1997   -0.0181 H   0  0  0  0  0  0  0  0  0  0  0  0
  1  5  1  0
  5  8  1  0
  1  2  1  0
  1  3  1  0
  1  4  1  0
  5  6  1  0
  5  7  1  0
  8  9  1  0
  8 10  1  0
  8 11  1  0
 12 16  1  0
 16 17  2  0
 17 19  1  0
 19 21  2  0
 21 23  1  0
 23 25  2  0
 25 16  1  0
 12 13  1  0
 12 14  1  0
 12 15  1  0
 17 18  1  0
 19 20  1  0
 21 22  1  0
 23 24  1  0
 25 26  1  0
M  CHG  1   8   1
M  END
>  <PDB_ID>  (410) 
pdb2g02

>  <RESIDUE_NAME>  (410) 
LYS   PHE

>  <FRAG_NAME>  (410) 
ETAM   MBZ

>  <FRAG_ATOM_NUM>  (410) 
fragi: 11  fragj: 15

>  <atom.prop.CHAIN_ID>  (410) 
A A A A A A A A A A A Z Z Z Z Z Z Z Z Z Z Z Z Z Z Z

>  <atom.prop.IS_HEAVY_ATOM>  (410) 
1 0 0 0 1 0 0 1 0 0 0 1 0 0 0 1 1 0 1 0 1 0 1 0 1 0

>  <DIFUSE_FUNC_ATOM>  (410) 
n/a

>  <FINAL_SINGLE_POINT_ENERGY>  (410) 
0

>  <NONCOV_INTER_ENERGY_QM>  (410) 
0

>  <FF_Energy>  (410) 
-1.85

>  <QM_Energy>  (410) 
-7.82

>  <source>  (410) 
ETAM_MBZ

>  <Index>  (410) 
3896

$$$$
ETAM-pdb2g19-A-LYS-216:MBZ-pdb2g19-A-PHE-360
     RDKit          3D

 26 25  0  0  0  0  0  0  0  0999 V2000
   -4.0019   -1.9810    1.1108 C   0  0  0  0  0  0  0  0  0  0  0  0
   -3.2979   -1.7667    1.7792 H   0  0  0  0  0  0  0  0  0  0  0  0
   -3.6106   -2.0309    0.1985 H   0  0  0  0  0  0  0  0  0  0  0  0
   -4.4393   -2.9479    1.3596 H   0  0  0  0  0  0  0  0  0  0  0  0
   -5.0455   -0.8753    1.1320 C   0  0  0  0  0  0  0  0  0  0  0  0
   -5.8269   -1.1570    0.5656 H   0  0  0  0  0  0  0  0  0  0  0  0
   -5.3654   -0.7491    2.0773 H   0  0  0  0  0  0  0  0  0  0  0  0
   -4.5106    0.4130    0.6208 N   0  0  0  0  0  4  0  0  0  0  0  0
   -3.7775    0.2321   -0.0349 H   0  0  0  0  0  0  0  0  0  0  0  0
   -5.2438    0.9219    0.1696 H   0  0  0  0  0  0  0  0  0  0  0  0
   -4.1519    0.9506    1.3840 H   0  0  0  0  0  0  0  0  0  0  0  0
    0.0063    2.9036    0.0189 C   0  0  0  0  0  0  0  0  0  0  0  0
    0.7692    3.2035    0.5724 H   0  0  0  0  0  0  0  0  0  0  0  0
   -0.8540    3.2076    0.3981 H   0  0  0  0  0  0  0  0  0  0  0  0
    0.1127    3.3624   -0.9641 H   0  0  0  0  0  0  0  0  0  0  0  0
    0.0042    1.3972    0.0002 C   0  0  0  0  0  0  0  0  0  0  0  0
   -1.1919    0.6920   -0.0002 C   0  0  0  0  0  0  0  0  0  0  0  0
   -2.0574    1.1857   -0.0017 H   0  0  0  0  0  0  0  0  0  0  0  0
   -1.1978   -0.6935    0.0000 C   0  0  0  0  0  0  0  0  0  0  0  0
   -2.0784   -1.1865    0.0006 H   0  0  0  0  0  0  0  0  0  0  0  0
   -0.0048   -1.3906    0.0004 C   0  0  0  0  0  0  0  0  0  0  0  0
   -0.0071   -2.3893    0.0004 H   0  0  0  0  0  0  0  0  0  0  0  0
    1.1978   -0.6944   -0.0000 C   0  0  0  0  0  0  0  0  0  0  0  0
    2.0775   -1.1959    0.0017 H   0  0  0  0  0  0  0  0  0  0  0  0
    1.1925    0.6893   -0.0004 C   0  0  0  0  0  0  0  0  0  0  0  0
    2.0645    1.1869   -0.0017 H   0  0  0  0  0  0  0  0  0  0  0  0
  1  5  1  0
  5  8  1  0
  1  2  1  0
  1  3  1  0
  1  4  1  0
  5  6  1  0
  5  7  1  0
  8  9  1  0
  8 10  1  0
  8 11  1  0
 12 16  1  0
 16 17  2  0
 17 19  1  0
 19 21  2  0
 21 23  1  0
 23 25  2  0
 25 16  1  0
 12 13  1  0
 12 14  1  0
 12 15  1  0
 17 18  1  0
 19 20  1  0
 21 22  1  0
 23 24  1  0
 25 26  1  0
M  CHG  1   8   1
M  END
>  <PDB_ID>  (411) 
pdb2g19

>  <RESIDUE_NAME>  (411) 
LYS   PHE

>  <FRAG_NAME>  (411) 
ETAM   MBZ

>  <FRAG_ATOM_NUM>  (411) 
fragi: 11  fragj: 15

>  <atom.prop.CHAIN_ID>  (411) 
A A A A A A A A A A A Z Z Z Z Z Z Z Z Z Z Z Z Z Z Z

>  <atom.prop.IS_HEAVY_ATOM>  (411) 
1 0 0 0 1 0 0 1 0 0 0 1 0 0 0 1 1 0 1 0 1 0 1 0 1 0

>  <DIFUSE_FUNC_ATOM>  (411) 
n/a

>  <FINAL_SINGLE_POINT_ENERGY>  (411) 
0

>  <NONCOV_INTER_ENERGY_QM>  (411) 
0

>  <FF_Energy>  (411) 
8.43

>  <QM_Energy>  (411) 
-1.08

>  <source>  (411) 
ETAM_MBZ

>  <Index>  (411) 
3914

$$$$
ETAM-pdb1f2d-B-LYS-37:MBZ-pdb1f2d-B-PHE-178
     RDKit          3D

 26 25  0  0  0  0  0  0  0  0999 V2000
   -1.7633   -2.5459    2.4939 C   0  0  0  0  0  0  0  0  0  0  0  0
   -1.2442   -2.9569    3.2305 H   0  0  0  0  0  0  0  0  0  0  0  0
   -1.1844   -2.3592    1.7121 H   0  0  0  0  0  0  0  0  0  0  0  0
   -2.5520   -3.2352    2.1924 H   0  0  0  0  0  0  0  0  0  0  0  0
   -2.3572   -1.2357    2.9864 C   0  0  0  0  0  0  0  0  0  0  0  0
   -1.6118   -0.5843    3.1497 H   0  0  0  0  0  0  0  0  0  0  0  0
   -2.9604   -0.8664    2.2751 H   0  0  0  0  0  0  0  0  0  0  0  0
   -3.1288   -1.4236    4.2357 N   0  0  0  0  0  4  0  0  0  0  0  0
   -2.5060   -1.4134    5.0190 H   0  0  0  0  0  0  0  0  0  0  0  0
   -3.7961   -0.6837    4.3329 H   0  0  0  0  0  0  0  0  0  0  0  0
   -3.6093   -2.3012    4.2045 H   0  0  0  0  0  0  0  0  0  0  0  0
   -0.0015    2.9227    0.0518 C   0  0  0  0  0  0  0  0  0  0  0  0
   -0.8060    3.2434   -0.4206 H   0  0  0  0  0  0  0  0  0  0  0  0
    0.8268    3.2409   -0.3788 H   0  0  0  0  0  0  0  0  0  0  0  0
   -0.0266    3.3307    1.0622 H   0  0  0  0  0  0  0  0  0  0  0  0
   -0.0024    1.4094    0.0007 C   0  0  0  0  0  0  0  0  0  0  0  0
   -1.1976    0.6944   -0.0013 C   0  0  0  0  0  0  0  0  0  0  0  0
   -2.0668    1.1809   -0.0049 H   0  0  0  0  0  0  0  0  0  0  0  0
   -1.2039   -0.7050   -0.0000 C   0  0  0  0  0  0  0  0  0  0  0  0
   -2.0776   -1.1967    0.0004 H   0  0  0  0  0  0  0  0  0  0  0  0
    0.0052   -1.4030    0.0021 C   0  0  0  0  0  0  0  0  0  0  0  0
    0.0020   -2.3982    0.0042 H   0  0  0  0  0  0  0  0  0  0  0  0
    1.2039   -0.6991   -0.0000 C   0  0  0  0  0  0  0  0  0  0  0  0
    2.0885   -1.1885    0.0008 H   0  0  0  0  0  0  0  0  0  0  0  0
    1.1949    0.7033   -0.0016 C   0  0  0  0  0  0  0  0  0  0  0  0
    2.0635    1.1962   -0.0053 H   0  0  0  0  0  0  0  0  0  0  0  0
  1  5  1  0
  5  8  1  0
  1  2  1  0
  1  3  1  0
  1  4  1  0
  5  6  1  0
  5  7  1  0
  8  9  1  0
  8 10  1  0
  8 11  1  0
 12 16  1  0
 16 17  2  0
 17 19  1  0
 19 21  2  0
 21 23  1  0
 23 25  2  0
 25 16  1  0
 12 13  1  0
 12 14  1  0
 12 15  1  0
 17 18  1  0
 19 20  1  0
 21 22  1  0
 23 24  1  0
 25 26  1  0
M  CHG  1   8   1
M  END
>  <PDB_ID>  (412) 
pdb1f2d

>  <RESIDUE_NAME>  (412) 
LYS   PHE

>  <FRAG_NAME>  (412) 
ETAM   MBZ

>  <FRAG_ATOM_NUM>  (412) 
fragi: 11  fragj: 15

>  <atom.prop.CHAIN_ID>  (412) 
A A A A A A A A A A A Z Z Z Z Z Z Z Z Z Z Z Z Z Z Z

>  <atom.prop.IS_HEAVY_ATOM>  (412) 
1 0 0 0 1 0 0 1 0 0 0 1 0 0 0 1 1 0 1 0 1 0 1 0 1 0

>  <DIFUSE_FUNC_ATOM>  (412) 
n/a

>  <FINAL_SINGLE_POINT_ENERGY>  (412) 
0

>  <NONCOV_INTER_ENERGY_QM>  (412) 
0

>  <FF_Energy>  (412) 
3.81

>  <QM_Energy>  (412) 
-3.45

>  <source>  (412) 
ETAM_MBZ

>  <Index>  (412) 
3917

$$$$
ETAM-pdb2fuv-B-LYS-85:MBZ-pdb2fuv-B-PHE-117
     RDKit          3D

 26 25  0  0  0  0  0  0  0  0999 V2000
   -4.6367   -0.0852   -3.4531 C   0  0  0  0  0  0  0  0  0  0  0  0
   -4.9925   -0.7682   -2.8286 H   0  0  0  0  0  0  0  0  0  0  0  0
   -5.2966    0.1208   -4.1634 H   0  0  0  0  0  0  0  0  0  0  0  0
   -4.4817    0.8283   -2.8790 H   0  0  0  0  0  0  0  0  0  0  0  0
   -3.3538   -0.5833   -4.0776 C   0  0  0  0  0  0  0  0  0  0  0  0
   -3.5297   -1.4307   -4.5789 H   0  0  0  0  0  0  0  0  0  0  0  0
   -2.9950    0.1060   -4.7082 H   0  0  0  0  0  0  0  0  0  0  0  0
   -2.2887   -0.8653   -3.0277 N   0  0  0  0  0  4  0  0  0  0  0  0
   -2.7077   -0.8000   -2.1290 H   0  0  0  0  0  0  0  0  0  0  0  0
   -1.9317   -1.7806   -3.1796 H   0  0  0  0  0  0  0  0  0  0  0  0
   -1.5660   -0.1897   -3.1236 H   0  0  0  0  0  0  0  0  0  0  0  0
   -0.0067    2.9029   -0.0336 C   0  0  0  0  0  0  0  0  0  0  0  0
    0.8804    3.2257    0.2399 H   0  0  0  0  0  0  0  0  0  0  0  0
   -0.7212    3.2313    0.5563 H   0  0  0  0  0  0  0  0  0  0  0  0
   -0.2027    3.2917   -1.0328 H   0  0  0  0  0  0  0  0  0  0  0  0
   -0.0034    1.4097    0.0095 C   0  0  0  0  0  0  0  0  0  0  0  0
   -1.2092    0.6977   -0.0188 C   0  0  0  0  0  0  0  0  0  0  0  0
   -2.0701    1.1828   -0.0535 H   0  0  0  0  0  0  0  0  0  0  0  0
   -1.2004   -0.6981    0.0000 C   0  0  0  0  0  0  0  0  0  0  0  0
   -2.0736   -1.1979    0.0183 H   0  0  0  0  0  0  0  0  0  0  0  0
    0.0079   -1.3905   -0.0054 C   0  0  0  0  0  0  0  0  0  0  0  0
   -0.0111   -2.3985   -0.0138 H   0  0  0  0  0  0  0  0  0  0  0  0
    1.2004   -0.7183   -0.0000 C   0  0  0  0  0  0  0  0  0  0  0  0
    2.0852   -1.2030   -0.0043 H   0  0  0  0  0  0  0  0  0  0  0  0
    1.2046    0.6995    0.0147 C   0  0  0  0  0  0  0  0  0  0  0  0
    2.0684    1.1830    0.0276 H   0  0  0  0  0  0  0  0  0  0  0  0
  1  5  1  0
  5  8  1  0
  1  2  1  0
  1  3  1  0
  1  4  1  0
  5  6  1  0
  5  7  1  0
  8  9  1  0
  8 10  1  0
  8 11  1  0
 12 16  1  0
 16 17  2  0
 17 19  1  0
 19 21  2  0
 21 23  1  0
 23 25  2  0
 25 16  1  0
 12 13  1  0
 12 14  1  0
 12 15  1  0
 17 18  1  0
 19 20  1  0
 21 22  1  0
 23 24  1  0
 25 26  1  0
M  CHG  1   8   1
M  END
>  <PDB_ID>  (413) 
pdb2fuv

>  <RESIDUE_NAME>  (413) 
LYS   PHE

>  <FRAG_NAME>  (413) 
ETAM   MBZ

>  <FRAG_ATOM_NUM>  (413) 
fragi: 11  fragj: 15

>  <atom.prop.CHAIN_ID>  (413) 
A A A A A A A A A A A Z Z Z Z Z Z Z Z Z Z Z Z Z Z Z

>  <atom.prop.IS_HEAVY_ATOM>  (413) 
1 0 0 0 1 0 0 1 0 0 0 1 0 0 0 1 1 0 1 0 1 0 1 0 1 0

>  <DIFUSE_FUNC_ATOM>  (413) 
n/a

>  <FINAL_SINGLE_POINT_ENERGY>  (413) 
0

>  <NONCOV_INTER_ENERGY_QM>  (413) 
0

>  <FF_Energy>  (413) 
-3.63

>  <QM_Energy>  (413) 
-9.42

>  <source>  (413) 
ETAM_MBZ

>  <Index>  (413) 
3920

$$$$
ETAM-pdb1f0y-A-LYS-173:MBZ-pdb1f0y-A-PHE-182
     RDKit          3D

 26 25  0  0  0  0  0  0  0  0999 V2000
   -1.2435    1.9633   -3.6871 C   0  0  0  0  0  0  0  0  0  0  0  0
   -1.1020    0.9826   -3.5645 H   0  0  0  0  0  0  0  0  0  0  0  0
   -1.2815    2.1806   -4.6611 H   0  0  0  0  0  0  0  0  0  0  0  0
   -2.1948    2.2372   -3.2309 H   0  0  0  0  0  0  0  0  0  0  0  0
   -0.0628    2.7041   -3.0716 C   0  0  0  0  0  0  0  0  0  0  0  0
   -0.2200    3.6971   -3.1586 H   0  0  0  0  0  0  0  0  0  0  0  0
   -0.0151    2.4810   -2.0886 H   0  0  0  0  0  0  0  0  0  0  0  0
    1.2498    2.3644   -3.7083 N   0  0  0  0  0  4  0  0  0  0  0  0
    1.1112    1.6304   -4.3699 H   0  0  0  0  0  0  0  0  0  0  0  0
    1.6084    3.1740   -4.1696 H   0  0  0  0  0  0  0  0  0  0  0  0
    1.8884    2.0667   -3.0018 H   0  0  0  0  0  0  0  0  0  0  0  0
    0.0047    2.9165    0.0088 C   0  0  0  0  0  0  0  0  0  0  0  0
   -0.5719    3.2251   -0.7323 H   0  0  0  0  0  0  0  0  0  0  0  0
    0.9384    3.2173   -0.1107 H   0  0  0  0  0  0  0  0  0  0  0  0
   -0.3735    3.3536    0.9330 H   0  0  0  0  0  0  0  0  0  0  0  0
   -0.0002    1.4075    0.0014 C   0  0  0  0  0  0  0  0  0  0  0  0
   -1.1977    0.7003    0.0004 C   0  0  0  0  0  0  0  0  0  0  0  0
   -2.0645    1.1885   -0.0009 H   0  0  0  0  0  0  0  0  0  0  0  0
   -1.2060   -0.6989   -0.0000 C   0  0  0  0  0  0  0  0  0  0  0  0
   -2.0820   -1.1883    0.0026 H   0  0  0  0  0  0  0  0  0  0  0  0
   -0.0014   -1.4016   -0.0015 C   0  0  0  0  0  0  0  0  0  0  0  0
   -0.0077   -2.3974   -0.0043 H   0  0  0  0  0  0  0  0  0  0  0  0
    1.2060   -0.7042   -0.0000 C   0  0  0  0  0  0  0  0  0  0  0  0
    2.0851   -1.1981    0.0025 H   0  0  0  0  0  0  0  0  0  0  0  0
    1.1993    0.6969   -0.0004 C   0  0  0  0  0  0  0  0  0  0  0  0
    2.0676    1.1899   -0.0029 H   0  0  0  0  0  0  0  0  0  0  0  0
  1  5  1  0
  5  8  1  0
  1  2  1  0
  1  3  1  0
  1  4  1  0
  5  6  1  0
  5  7  1  0
  8  9  1  0
  8 10  1  0
  8 11  1  0
 12 16  1  0
 16 17  2  0
 17 19  1  0
 19 21  2  0
 21 23  1  0
 23 25  2  0
 25 16  1  0
 12 13  1  0
 12 14  1  0
 12 15  1  0
 17 18  1  0
 19 20  1  0
 21 22  1  0
 23 24  1  0
 25 26  1  0
M  CHG  1   8   1
M  END
>  <PDB_ID>  (414) 
pdb1f0y

>  <RESIDUE_NAME>  (414) 
LYS   PHE

>  <FRAG_NAME>  (414) 
ETAM   MBZ

>  <FRAG_ATOM_NUM>  (414) 
fragi: 11  fragj: 15

>  <atom.prop.CHAIN_ID>  (414) 
A A A A A A A A A A A Z Z Z Z Z Z Z Z Z Z Z Z Z Z Z

>  <atom.prop.IS_HEAVY_ATOM>  (414) 
1 0 0 0 1 0 0 1 0 0 0 1 0 0 0 1 1 0 1 0 1 0 1 0 1 0

>  <DIFUSE_FUNC_ATOM>  (414) 
n/a

>  <FINAL_SINGLE_POINT_ENERGY>  (414) 
0

>  <NONCOV_INTER_ENERGY_QM>  (414) 
0

>  <FF_Energy>  (414) 
19.28

>  <QM_Energy>  (414) 
-3.08

>  <source>  (414) 
ETAM_MBZ

>  <Index>  (414) 
3934

$$$$
ETAM-pdb2g3v-B-LYS-70:MBZ-pdb2g3v-B-PHE-131
     RDKit          3D

 26 25  0  0  0  0  0  0  0  0999 V2000
   -0.1341   -1.7989    4.3245 C   0  0  0  0  0  0  0  0  0  0  0  0
   -0.3970   -1.8230    5.2848 H   0  0  0  0  0  0  0  0  0  0  0  0
    0.4264   -2.5904    4.1016 H   0  0  0  0  0  0  0  0  0  0  0  0
   -1.0322   -1.8100    3.7069 H   0  0  0  0  0  0  0  0  0  0  0  0
    0.7077   -0.5364    4.0914 C   0  0  0  0  0  0  0  0  0  0  0  0
    0.1064    0.2706    4.1889 H   0  0  0  0  0  0  0  0  0  0  0  0
    1.4118   -0.4837    4.8153 H   0  0  0  0  0  0  0  0  0  0  0  0
    1.3754   -0.4890    2.7583 N   0  0  0  0  0  4  0  0  0  0  0  0
    1.1994   -1.3431    2.2701 H   0  0  0  0  0  0  0  0  0  0  0  0
    1.0111    0.2788    2.2341 H   0  0  0  0  0  0  0  0  0  0  0  0
    2.3587   -0.3721    2.8866 H   0  0  0  0  0  0  0  0  0  0  0  0
    0.0023    2.9120    0.0100 C   0  0  0  0  0  0  0  0  0  0  0  0
   -0.6361    3.2240   -0.6780 H   0  0  0  0  0  0  0  0  0  0  0  0
    0.9209    3.2206   -0.1847 H   0  0  0  0  0  0  0  0  0  0  0  0
   -0.2982    3.3475    0.9629 H   0  0  0  0  0  0  0  0  0  0  0  0
    0.0021    1.4090   -0.0001 C   0  0  0  0  0  0  0  0  0  0  0  0
   -1.1865    0.7060    0.0012 C   0  0  0  0  0  0  0  0  0  0  0  0
   -2.0573    1.1919    0.0020 H   0  0  0  0  0  0  0  0  0  0  0  0
   -1.1964   -0.6922   -0.0000 C   0  0  0  0  0  0  0  0  0  0  0  0
   -2.0863   -1.1717    0.0003 H   0  0  0  0  0  0  0  0  0  0  0  0
   -0.0160   -1.3988   -0.0003 C   0  0  0  0  0  0  0  0  0  0  0  0
   -0.0259   -2.3981   -0.0013 H   0  0  0  0  0  0  0  0  0  0  0  0
    1.1964   -0.7160    0.0000 C   0  0  0  0  0  0  0  0  0  0  0  0
    2.0712   -1.2127    0.0024 H   0  0  0  0  0  0  0  0  0  0  0  0
    1.2004    0.6921   -0.0009 C   0  0  0  0  0  0  0  0  0  0  0  0
    2.0703    1.1770   -0.0028 H   0  0  0  0  0  0  0  0  0  0  0  0
  1  5  1  0
  5  8  1  0
  1  2  1  0
  1  3  1  0
  1  4  1  0
  5  6  1  0
  5  7  1  0
  8  9  1  0
  8 10  1  0
  8 11  1  0
 12 16  1  0
 16 17  2  0
 17 19  1  0
 19 21  2  0
 21 23  1  0
 23 25  2  0
 25 16  1  0
 12 13  1  0
 12 14  1  0
 12 15  1  0
 17 18  1  0
 19 20  1  0
 21 22  1  0
 23 24  1  0
 25 26  1  0
M  CHG  1   8   1
M  END
>  <PDB_ID>  (415) 
pdb2g3v

>  <RESIDUE_NAME>  (415) 
LYS   PHE

>  <FRAG_NAME>  (415) 
ETAM   MBZ

>  <FRAG_ATOM_NUM>  (415) 
fragi: 11  fragj: 15

>  <atom.prop.CHAIN_ID>  (415) 
A A A A A A A A A A A Z Z Z Z Z Z Z Z Z Z Z Z Z Z Z

>  <atom.prop.IS_HEAVY_ATOM>  (415) 
1 0 0 0 1 0 0 1 0 0 0 1 0 0 0 1 1 0 1 0 1 0 1 0 1 0

>  <DIFUSE_FUNC_ATOM>  (415) 
n/a

>  <FINAL_SINGLE_POINT_ENERGY>  (415) 
0

>  <NONCOV_INTER_ENERGY_QM>  (415) 
0

>  <FF_Energy>  (415) 
-3.45

>  <QM_Energy>  (415) 
-12.7

>  <source>  (415) 
ETAM_MBZ

>  <Index>  (415) 
3938

$$$$
ETAM-pdb1f5z-A-LYS-224:MBZ-pdb1f5z-A-PHE-220
     RDKit          3D

 26 25  0  0  0  0  0  0  0  0999 V2000
   -1.2220   -0.7773    4.2429 C   0  0  0  0  0  0  0  0  0  0  0  0
   -1.9062   -0.3810    4.9091 H   0  0  0  0  0  0  0  0  0  0  0  0
   -1.4047   -0.2735    3.3578 H   0  0  0  0  0  0  0  0  0  0  0  0
   -0.2174   -0.5291    4.5855 H   0  0  0  0  0  0  0  0  0  0  0  0
   -1.5969   -2.2273    4.0214 C   0  0  0  0  0  0  0  0  0  0  0  0
   -1.8677   -2.6348    4.9154 H   0  0  0  0  0  0  0  0  0  0  0  0
   -2.4222   -2.2645    3.4252 H   0  0  0  0  0  0  0  0  0  0  0  0
   -0.5324   -3.0714    3.4148 N   0  0  0  0  0  4  0  0  0  0  0  0
    0.3121   -2.9698    3.9405 H   0  0  0  0  0  0  0  0  0  0  0  0
   -0.8209   -4.0284    3.4265 H   0  0  0  0  0  0  0  0  0  0  0  0
   -0.3754   -2.7811    2.4713 H   0  0  0  0  0  0  0  0  0  0  0  0
    0.0180    2.8890   -0.0472 C   0  0  0  0  0  0  0  0  0  0  0  0
   -0.4401    3.1720   -0.8818 H   0  0  0  0  0  0  0  0  0  0  0  0
    0.9630    3.1972   -0.0467 H   0  0  0  0  0  0  0  0  0  0  0  0
   -0.4858    3.3809    0.7848 H   0  0  0  0  0  0  0  0  0  0  0  0
    0.0127    1.3944    0.0059 C   0  0  0  0  0  0  0  0  0  0  0  0
   -1.1875    0.7103   -0.0136 C   0  0  0  0  0  0  0  0  0  0  0  0
   -2.0489    1.2013   -0.0389 H   0  0  0  0  0  0  0  0  0  0  0  0
   -1.2019   -0.6894   -0.0000 C   0  0  0  0  0  0  0  0  0  0  0  0
   -2.0866   -1.1680    0.0012 H   0  0  0  0  0  0  0  0  0  0  0  0
   -0.0164   -1.3858    0.0134 C   0  0  0  0  0  0  0  0  0  0  0  0
   -0.0226   -2.3902    0.0320 H   0  0  0  0  0  0  0  0  0  0  0  0
    1.2019   -0.7074    0.0000 C   0  0  0  0  0  0  0  0  0  0  0  0
    2.0699   -1.2113   -0.0039 H   0  0  0  0  0  0  0  0  0  0  0  0
    1.1911    0.6780   -0.0057 C   0  0  0  0  0  0  0  0  0  0  0  0
    2.0702    1.1734   -0.0192 H   0  0  0  0  0  0  0  0  0  0  0  0
  1  5  1  0
  5  8  1  0
  1  2  1  0
  1  3  1  0
  1  4  1  0
  5  6  1  0
  5  7  1  0
  8  9  1  0
  8 10  1  0
  8 11  1  0
 12 16  1  0
 16 17  2  0
 17 19  1  0
 19 21  2  0
 21 23  1  0
 23 25  2  0
 25 16  1  0
 12 13  1  0
 12 14  1  0
 12 15  1  0
 17 18  1  0
 19 20  1  0
 21 22  1  0
 23 24  1  0
 25 26  1  0
M  CHG  1   8   1
M  END
>  <PDB_ID>  (416) 
pdb1f5z

>  <RESIDUE_NAME>  (416) 
LYS   PHE

>  <FRAG_NAME>  (416) 
ETAM   MBZ

>  <FRAG_ATOM_NUM>  (416) 
fragi: 11  fragj: 15

>  <atom.prop.CHAIN_ID>  (416) 
A A A A A A A A A A A Z Z Z Z Z Z Z Z Z Z Z Z Z Z Z

>  <atom.prop.IS_HEAVY_ATOM>  (416) 
1 0 0 0 1 0 0 1 0 0 0 1 0 0 0 1 1 0 1 0 1 0 1 0 1 0

>  <DIFUSE_FUNC_ATOM>  (416) 
n/a

>  <FINAL_SINGLE_POINT_ENERGY>  (416) 
0

>  <NONCOV_INTER_ENERGY_QM>  (416) 
0

>  <FF_Energy>  (416) 
-3.09

>  <QM_Energy>  (416) 
-8.53

>  <source>  (416) 
ETAM_MBZ

>  <Index>  (416) 
3939

$$$$
ETAM-pdb2g3v-C-LYS-70:MBZ-pdb2g3v-C-PHE-131
     RDKit          3D

 26 25  0  0  0  0  0  0  0  0999 V2000
    0.3801   -1.7873    4.0509 C   0  0  0  0  0  0  0  0  0  0  0  0
    0.1227   -1.9932    4.9921 H   0  0  0  0  0  0  0  0  0  0  0  0
    0.9046   -2.5440    3.6691 H   0  0  0  0  0  0  0  0  0  0  0  0
   -0.5271   -1.6569    3.4610 H   0  0  0  0  0  0  0  0  0  0  0  0
    1.2606   -0.5387    4.0512 C   0  0  0  0  0  0  0  0  0  0  0  0
    0.7919    0.1820    4.5630 H   0  0  0  0  0  0  0  0  0  0  0  0
    2.1255   -0.7580    4.5031 H   0  0  0  0  0  0  0  0  0  0  0  0
    1.5226   -0.0805    2.6730 N   0  0  0  0  0  4  0  0  0  0  0  0
    0.7511   -0.3254    2.0837 H   0  0  0  0  0  0  0  0  0  0  0  0
    1.6411    0.9138    2.6647 H   0  0  0  0  0  0  0  0  0  0  0  0
    2.3553   -0.5152    2.3253 H   0  0  0  0  0  0  0  0  0  0  0  0
    0.0032    2.9302    0.0118 C   0  0  0  0  0  0  0  0  0  0  0  0
   -0.6425    3.2370   -0.6692 H   0  0  0  0  0  0  0  0  0  0  0  0
    0.9197    3.2324   -0.1971 H   0  0  0  0  0  0  0  0  0  0  0  0
   -0.2839    3.3694    0.9672 H   0  0  0  0  0  0  0  0  0  0  0  0
    0.0020    1.4109   -0.0003 C   0  0  0  0  0  0  0  0  0  0  0  0
   -1.1893    0.6940    0.0005 C   0  0  0  0  0  0  0  0  0  0  0  0
   -2.0608    1.1754   -0.0004 H   0  0  0  0  0  0  0  0  0  0  0  0
   -1.1911   -0.7079   -0.0000 C   0  0  0  0  0  0  0  0  0  0  0  0
   -2.0760   -1.1924   -0.0009 H   0  0  0  0  0  0  0  0  0  0  0  0
   -0.0032   -1.4003    0.0019 C   0  0  0  0  0  0  0  0  0  0  0  0
   -0.0031   -2.3994    0.0041 H   0  0  0  0  0  0  0  0  0  0  0  0
    1.1911   -0.7026    0.0000 C   0  0  0  0  0  0  0  0  0  0  0  0
    2.0778   -1.1913    0.0013 H   0  0  0  0  0  0  0  0  0  0  0  0
    1.1905    0.7059   -0.0021 C   0  0  0  0  0  0  0  0  0  0  0  0
    2.0640    1.1891   -0.0057 H   0  0  0  0  0  0  0  0  0  0  0  0
  1  5  1  0
  5  8  1  0
  1  2  1  0
  1  3  1  0
  1  4  1  0
  5  6  1  0
  5  7  1  0
  8  9  1  0
  8 10  1  0
  8 11  1  0
 12 16  1  0
 16 17  2  0
 17 19  1  0
 19 21  2  0
 21 23  1  0
 23 25  2  0
 25 16  1  0
 12 13  1  0
 12 14  1  0
 12 15  1  0
 17 18  1  0
 19 20  1  0
 21 22  1  0
 23 24  1  0
 25 26  1  0
M  CHG  1   8   1
M  END
>  <PDB_ID>  (417) 
pdb2g3v

>  <RESIDUE_NAME>  (417) 
LYS   PHE

>  <FRAG_NAME>  (417) 
ETAM   MBZ

>  <FRAG_ATOM_NUM>  (417) 
fragi: 11  fragj: 15

>  <atom.prop.CHAIN_ID>  (417) 
A A A A A A A A A A A Z Z Z Z Z Z Z Z Z Z Z Z Z Z Z

>  <atom.prop.IS_HEAVY_ATOM>  (417) 
1 0 0 0 1 0 0 1 0 0 0 1 0 0 0 1 1 0 1 0 1 0 1 0 1 0

>  <DIFUSE_FUNC_ATOM>  (417) 
n/a

>  <FINAL_SINGLE_POINT_ENERGY>  (417) 
0

>  <NONCOV_INTER_ENERGY_QM>  (417) 
0

>  <FF_Energy>  (417) 
-1.6

>  <QM_Energy>  (417) 
-11.38

>  <source>  (417) 
ETAM_MBZ

>  <Index>  (417) 
3940

$$$$
ETAM-pdb2g47-B-LYS-697:MBZ-pdb2g47-B-PHE-673
     RDKit          3D

 26 25  0  0  0  0  0  0  0  0999 V2000
    0.7717    1.8797   -3.1764 C   0  0  0  0  0  0  0  0  0  0  0  0
    1.4222    1.4896   -2.5338 H   0  0  0  0  0  0  0  0  0  0  0  0
    0.4554    2.7660   -2.8555 H   0  0  0  0  0  0  0  0  0  0  0  0
    1.2546    2.0002   -4.1462 H   0  0  0  0  0  0  0  0  0  0  0  0
   -0.4309    0.9458   -3.2692 C   0  0  0  0  0  0  0  0  0  0  0  0
   -0.1278    0.0666   -3.6595 H   0  0  0  0  0  0  0  0  0  0  0  0
   -0.7790    0.7731   -2.3390 H   0  0  0  0  0  0  0  0  0  0  0  0
   -1.5343    1.4962   -4.1065 N   0  0  0  0  0  4  0  0  0  0  0  0
   -1.1537    2.1238   -4.7843 H   0  0  0  0  0  0  0  0  0  0  0  0
   -2.0035    0.7459   -4.5704 H   0  0  0  0  0  0  0  0  0  0  0  0
   -2.1807    1.9853   -3.5220 H   0  0  0  0  0  0  0  0  0  0  0  0
   -0.0072    2.9049    0.0485 C   0  0  0  0  0  0  0  0  0  0  0  0
   -0.6260    3.2289   -0.6473 H   0  0  0  0  0  0  0  0  0  0  0  0
    0.9151    3.2190   -0.1081 H   0  0  0  0  0  0  0  0  0  0  0  0
   -0.3402    3.3020    1.0074 H   0  0  0  0  0  0  0  0  0  0  0  0
   -0.0009    1.4037    0.0025 C   0  0  0  0  0  0  0  0  0  0  0  0
   -1.1989    0.6935   -0.0001 C   0  0  0  0  0  0  0  0  0  0  0  0
   -2.0654    1.1821   -0.0037 H   0  0  0  0  0  0  0  0  0  0  0  0
   -1.2045   -0.7023    0.0000 C   0  0  0  0  0  0  0  0  0  0  0  0
   -2.0782   -1.1952    0.0026 H   0  0  0  0  0  0  0  0  0  0  0  0
    0.0027   -1.3977   -0.0011 C   0  0  0  0  0  0  0  0  0  0  0  0
    0.0010   -2.3946   -0.0035 H   0  0  0  0  0  0  0  0  0  0  0  0
    1.2045   -0.6963   -0.0000 C   0  0  0  0  0  0  0  0  0  0  0  0
    2.0866   -1.1908    0.0029 H   0  0  0  0  0  0  0  0  0  0  0  0
    1.1971    0.6992   -0.0012 C   0  0  0  0  0  0  0  0  0  0  0  0
    2.0643    1.1948   -0.0054 H   0  0  0  0  0  0  0  0  0  0  0  0
  1  5  1  0
  5  8  1  0
  1  2  1  0
  1  3  1  0
  1  4  1  0
  5  6  1  0
  5  7  1  0
  8  9  1  0
  8 10  1  0
  8 11  1  0
 12 16  1  0
 16 17  2  0
 17 19  1  0
 19 21  2  0
 21 23  1  0
 23 25  2  0
 25 16  1  0
 12 13  1  0
 12 14  1  0
 12 15  1  0
 17 18  1  0
 19 20  1  0
 21 22  1  0
 23 24  1  0
 25 26  1  0
M  CHG  1   8   1
M  END
>  <PDB_ID>  (418) 
pdb2g47

>  <RESIDUE_NAME>  (418) 
LYS   PHE

>  <FRAG_NAME>  (418) 
ETAM   MBZ

>  <FRAG_ATOM_NUM>  (418) 
fragi: 11  fragj: 15

>  <atom.prop.CHAIN_ID>  (418) 
A A A A A A A A A A A Z Z Z Z Z Z Z Z Z Z Z Z Z Z Z

>  <atom.prop.IS_HEAVY_ATOM>  (418) 
1 0 0 0 1 0 0 1 0 0 0 1 0 0 0 1 1 0 1 0 1 0 1 0 1 0

>  <DIFUSE_FUNC_ATOM>  (418) 
n/a

>  <FINAL_SINGLE_POINT_ENERGY>  (418) 
0

>  <NONCOV_INTER_ENERGY_QM>  (418) 
0

>  <FF_Energy>  (418) 
-1.71

>  <QM_Energy>  (418) 
-8.11

>  <source>  (418) 
ETAM_MBZ

>  <Index>  (418) 
3956

$$$$
ETAM-pdb1f4t-B-LYS-157:MBZ-pdb1f4t-B-PHE-153
     RDKit          3D

 26 25  0  0  0  0  0  0  0  0999 V2000
   -0.3975   -2.0614    3.8779 C   0  0  0  0  0  0  0  0  0  0  0  0
    0.1542   -1.5220    3.2589 H   0  0  0  0  0  0  0  0  0  0  0  0
    0.0631   -2.8987    4.1331 H   0  0  0  0  0  0  0  0  0  0  0  0
   -0.5958   -1.4771    4.7764 H   0  0  0  0  0  0  0  0  0  0  0  0
   -1.7049   -2.4180    3.1803 C   0  0  0  0  0  0  0  0  0  0  0  0
   -2.2849   -2.9332    3.8231 H   0  0  0  0  0  0  0  0  0  0  0  0
   -2.1841   -1.5663    2.9362 H   0  0  0  0  0  0  0  0  0  0  0  0
   -1.5008   -3.2315    1.9497 N   0  0  0  0  0  4  0  0  0  0  0  0
   -1.1068   -4.1158    2.1988 H   0  0  0  0  0  0  0  0  0  0  0  0
   -2.3801   -3.3719    1.4965 H   0  0  0  0  0  0  0  0  0  0  0  0
   -0.8788   -2.7495    1.3335 H   0  0  0  0  0  0  0  0  0  0  0  0
   -0.0001    2.9029    0.0396 C   0  0  0  0  0  0  0  0  0  0  0  0
   -0.5941    3.2306   -0.6785 H   0  0  0  0  0  0  0  0  0  0  0  0
    0.9281    3.2146   -0.0884 H   0  0  0  0  0  0  0  0  0  0  0  0
   -0.3608    3.3147    0.9821 H   0  0  0  0  0  0  0  0  0  0  0  0
   -0.0004    1.4041    0.0002 C   0  0  0  0  0  0  0  0  0  0  0  0
   -1.1985    0.6966   -0.0008 C   0  0  0  0  0  0  0  0  0  0  0  0
   -2.0647    1.1855   -0.0034 H   0  0  0  0  0  0  0  0  0  0  0  0
   -1.2054   -0.7011   -0.0000 C   0  0  0  0  0  0  0  0  0  0  0  0
   -2.0793   -1.1924    0.0008 H   0  0  0  0  0  0  0  0  0  0  0  0
    0.0020   -1.3986    0.0015 C   0  0  0  0  0  0  0  0  0  0  0  0
   -0.0015   -2.3955    0.0024 H   0  0  0  0  0  0  0  0  0  0  0  0
    1.2054   -0.6987   -0.0000 C   0  0  0  0  0  0  0  0  0  0  0  0
    2.0860   -1.1923    0.0016 H   0  0  0  0  0  0  0  0  0  0  0  0
    1.1968    0.6977   -0.0009 C   0  0  0  0  0  0  0  0  0  0  0  0
    2.0655    1.1929   -0.0034 H   0  0  0  0  0  0  0  0  0  0  0  0
  1  5  1  0
  5  8  1  0
  1  2  1  0
  1  3  1  0
  1  4  1  0
  5  6  1  0
  5  7  1  0
  8  9  1  0
  8 10  1  0
  8 11  1  0
 12 16  1  0
 16 17  2  0
 17 19  1  0
 19 21  2  0
 21 23  1  0
 23 25  2  0
 25 16  1  0
 12 13  1  0
 12 14  1  0
 12 15  1  0
 17 18  1  0
 19 20  1  0
 21 22  1  0
 23 24  1  0
 25 26  1  0
M  CHG  1   8   1
M  END
>  <PDB_ID>  (419) 
pdb1f4t

>  <RESIDUE_NAME>  (419) 
LYS   PHE

>  <FRAG_NAME>  (419) 
ETAM   MBZ

>  <FRAG_ATOM_NUM>  (419) 
fragi: 11  fragj: 15

>  <atom.prop.CHAIN_ID>  (419) 
A A A A A A A A A A A Z Z Z Z Z Z Z Z Z Z Z Z Z Z Z

>  <atom.prop.IS_HEAVY_ATOM>  (419) 
1 0 0 0 1 0 0 1 0 0 0 1 0 0 0 1 1 0 1 0 1 0 1 0 1 0

>  <DIFUSE_FUNC_ATOM>  (419) 
n/a

>  <FINAL_SINGLE_POINT_ENERGY>  (419) 
0

>  <NONCOV_INTER_ENERGY_QM>  (419) 
0

>  <FF_Energy>  (419) 
0.03

>  <QM_Energy>  (419) 
-8.45

>  <source>  (419) 
ETAM_MBZ

>  <Index>  (419) 
3961

$$$$
ETAM-pdb1f7u-C-LYS-428:MBZ-pdb1f7u-C-PHE-481
     RDKit          3D

 26 25  0  0  0  0  0  0  0  0999 V2000
   -5.7106   -1.1094    3.0801 C   0  0  0  0  0  0  0  0  0  0  0  0
   -5.0512   -1.4706    3.7326 H   0  0  0  0  0  0  0  0  0  0  0  0
   -6.6217   -1.4528    3.2830 H   0  0  0  0  0  0  0  0  0  0  0  0
   -5.7177   -0.0217    3.1506 H   0  0  0  0  0  0  0  0  0  0  0  0
   -5.3168   -1.5781    1.6853 C   0  0  0  0  0  0  0  0  0  0  0  0
   -5.3604   -2.5846    1.6592 H   0  0  0  0  0  0  0  0  0  0  0  0
   -5.9846   -1.2164    1.0227 H   0  0  0  0  0  0  0  0  0  0  0  0
   -3.9545   -1.1377    1.2947 N   0  0  0  0  0  4  0  0  0  0  0  0
   -3.8051   -0.1985    1.6066 H   0  0  0  0  0  0  0  0  0  0  0  0
   -3.2762   -1.7405    1.7150 H   0  0  0  0  0  0  0  0  0  0  0  0
   -3.8635   -1.1763    0.2995 H   0  0  0  0  0  0  0  0  0  0  0  0
    0.0066    2.9123    0.0188 C   0  0  0  0  0  0  0  0  0  0  0  0
    0.8888    3.2112    0.3535 H   0  0  0  0  0  0  0  0  0  0  0  0
   -0.7234    3.2141    0.6165 H   0  0  0  0  0  0  0  0  0  0  0  0
   -0.1511    3.3769   -0.9545 H   0  0  0  0  0  0  0  0  0  0  0  0
    0.0009    1.4055    0.0003 C   0  0  0  0  0  0  0  0  0  0  0  0
   -1.1952    0.7008   -0.0009 C   0  0  0  0  0  0  0  0  0  0  0  0
   -2.0618    1.1890   -0.0038 H   0  0  0  0  0  0  0  0  0  0  0  0
   -1.2027   -0.6962    0.0000 C   0  0  0  0  0  0  0  0  0  0  0  0
   -2.0812   -1.1857    0.0011 H   0  0  0  0  0  0  0  0  0  0  0  0
   -0.0025   -1.3994    0.0009 C   0  0  0  0  0  0  0  0  0  0  0  0
   -0.0090   -2.3958    0.0018 H   0  0  0  0  0  0  0  0  0  0  0  0
    1.2027   -0.7039   -0.0000 C   0  0  0  0  0  0  0  0  0  0  0  0
    2.0823   -1.1991    0.0011 H   0  0  0  0  0  0  0  0  0  0  0  0
    1.1968    0.6932   -0.0003 C   0  0  0  0  0  0  0  0  0  0  0  0
    2.0668    1.1868   -0.0020 H   0  0  0  0  0  0  0  0  0  0  0  0
  1  5  1  0
  5  8  1  0
  1  2  1  0
  1  3  1  0
  1  4  1  0
  5  6  1  0
  5  7  1  0
  8  9  1  0
  8 10  1  0
  8 11  1  0
 12 16  1  0
 16 17  2  0
 17 19  1  0
 19 21  2  0
 21 23  1  0
 23 25  2  0
 25 16  1  0
 12 13  1  0
 12 14  1  0
 12 15  1  0
 17 18  1  0
 19 20  1  0
 21 22  1  0
 23 24  1  0
 25 26  1  0
M  CHG  1   8   1
M  END
>  <PDB_ID>  (420) 
pdb1f7u

>  <RESIDUE_NAME>  (420) 
LYS   PHE

>  <FRAG_NAME>  (420) 
ETAM   MBZ

>  <FRAG_ATOM_NUM>  (420) 
fragi: 11  fragj: 15

>  <atom.prop.CHAIN_ID>  (420) 
A A A A A A A A A A A Z Z Z Z Z Z Z Z Z Z Z Z Z Z Z

>  <atom.prop.IS_HEAVY_ATOM>  (420) 
1 0 0 0 1 0 0 1 0 0 0 1 0 0 0 1 1 0 1 0 1 0 1 0 1 0

>  <DIFUSE_FUNC_ATOM>  (420) 
n/a

>  <FINAL_SINGLE_POINT_ENERGY>  (420) 
0

>  <NONCOV_INTER_ENERGY_QM>  (420) 
0

>  <FF_Energy>  (420) 
5.46

>  <QM_Energy>  (420) 
-2.48

>  <source>  (420) 
ETAM_MBZ

>  <Index>  (420) 
3973

$$$$
ETAM-pdb2g5g-X-LYS-97:MBZ-pdb2g5g-X-PHE-94
     RDKit          3D

 26 25  0  0  0  0  0  0  0  0999 V2000
   -3.5342    0.3551    4.4886 C   0  0  0  0  0  0  0  0  0  0  0  0
   -2.8142   -0.2295    4.8478 H   0  0  0  0  0  0  0  0  0  0  0  0
   -4.4207   -0.0856    4.5901 H   0  0  0  0  0  0  0  0  0  0  0  0
   -3.5379    1.2941    5.0420 H   0  0  0  0  0  0  0  0  0  0  0  0
   -3.2752    0.5782    2.9990 C   0  0  0  0  0  0  0  0  0  0  0  0
   -3.6778    1.4330    2.7284 H   0  0  0  0  0  0  0  0  0  0  0  0
   -2.3067    0.5543    2.8342 H   0  0  0  0  0  0  0  0  0  0  0  0
   -3.9352   -0.5399    2.2717 N   0  0  0  0  0  4  0  0  0  0  0  0
   -4.2836   -0.2068    1.3961 H   0  0  0  0  0  0  0  0  0  0  0  0
   -3.2711   -1.2698    2.1120 H   0  0  0  0  0  0  0  0  0  0  0  0
   -4.6929   -0.8910    2.8211 H   0  0  0  0  0  0  0  0  0  0  0  0
   -0.0265    2.9121    0.0084 C   0  0  0  0  0  0  0  0  0  0  0  0
   -0.6954    3.2157   -0.6494 H   0  0  0  0  0  0  0  0  0  0  0  0
    0.8790    3.2330   -0.2158 H   0  0  0  0  0  0  0  0  0  0  0  0
   -0.2975    3.3364    0.9752 H   0  0  0  0  0  0  0  0  0  0  0  0
   -0.0065    1.4067   -0.0025 C   0  0  0  0  0  0  0  0  0  0  0  0
   -1.1976    0.6887   -0.0003 C   0  0  0  0  0  0  0  0  0  0  0  0
   -2.0686    1.1777   -0.0001 H   0  0  0  0  0  0  0  0  0  0  0  0
   -1.2040   -0.7017    0.0000 C   0  0  0  0  0  0  0  0  0  0  0  0
   -2.0768   -1.1974    0.0005 H   0  0  0  0  0  0  0  0  0  0  0  0
    0.0056   -1.4012    0.0010 C   0  0  0  0  0  0  0  0  0  0  0  0
    0.0031   -2.3950    0.0019 H   0  0  0  0  0  0  0  0  0  0  0  0
    1.2040   -0.6940   -0.0000 C   0  0  0  0  0  0  0  0  0  0  0  0
    2.0888   -1.1880   -0.0011 H   0  0  0  0  0  0  0  0  0  0  0  0
    1.1985    0.7015    0.0019 C   0  0  0  0  0  0  0  0  0  0  0  0
    2.0620    1.1991    0.0059 H   0  0  0  0  0  0  0  0  0  0  0  0
  1  5  1  0
  5  8  1  0
  1  2  1  0
  1  3  1  0
  1  4  1  0
  5  6  1  0
  5  7  1  0
  8  9  1  0
  8 10  1  0
  8 11  1  0
 12 16  1  0
 16 17  2  0
 17 19  1  0
 19 21  2  0
 21 23  1  0
 23 25  2  0
 25 16  1  0
 12 13  1  0
 12 14  1  0
 12 15  1  0
 17 18  1  0
 19 20  1  0
 21 22  1  0
 23 24  1  0
 25 26  1  0
M  CHG  1   8   1
M  END
>  <PDB_ID>  (421) 
pdb2g5g

>  <RESIDUE_NAME>  (421) 
LYS   PHE

>  <FRAG_NAME>  (421) 
ETAM   MBZ

>  <FRAG_ATOM_NUM>  (421) 
fragi: 11  fragj: 15

>  <atom.prop.CHAIN_ID>  (421) 
A A A A A A A A A A A Z Z Z Z Z Z Z Z Z Z Z Z Z Z Z

>  <atom.prop.IS_HEAVY_ATOM>  (421) 
1 0 0 0 1 0 0 1 0 0 0 1 0 0 0 1 1 0 1 0 1 0 1 0 1 0

>  <DIFUSE_FUNC_ATOM>  (421) 
n/a

>  <FINAL_SINGLE_POINT_ENERGY>  (421) 
0

>  <NONCOV_INTER_ENERGY_QM>  (421) 
0

>  <FF_Energy>  (421) 
-1.44

>  <QM_Energy>  (421) 
-6.47

>  <source>  (421) 
ETAM_MBZ

>  <Index>  (421) 
3976

$$$$
ETAM-pdb2g47-A-LYS-206:MBZ-pdb2g47-A-PHE-215
     RDKit          3D

 26 25  0  0  0  0  0  0  0  0999 V2000
    0.3803   -0.3934   -4.8977 C   0  0  0  0  0  0  0  0  0  0  0  0
    0.1689   -0.8768   -5.7397 H   0  0  0  0  0  0  0  0  0  0  0  0
    0.3601    0.5891   -5.0445 H   0  0  0  0  0  0  0  0  0  0  0  0
   -0.3611   -0.6554   -4.1428 H   0  0  0  0  0  0  0  0  0  0  0  0
    1.7896   -0.7868   -4.4552 C   0  0  0  0  0  0  0  0  0  0  0  0
    1.7791   -1.7448   -4.1632 H   0  0  0  0  0  0  0  0  0  0  0  0
    2.4117   -0.6870   -5.2340 H   0  0  0  0  0  0  0  0  0  0  0  0
    2.2698    0.0657   -3.3308 N   0  0  0  0  0  4  0  0  0  0  0  0
    1.4865    0.3818   -2.7978 H   0  0  0  0  0  0  0  0  0  0  0  0
    2.8789   -0.4698   -2.7468 H   0  0  0  0  0  0  0  0  0  0  0  0
    2.7644    0.8514   -3.7000 H   0  0  0  0  0  0  0  0  0  0  0  0
   -0.0052    2.9195    0.0183 C   0  0  0  0  0  0  0  0  0  0  0  0
    0.5704    3.2172    0.7662 H   0  0  0  0  0  0  0  0  0  0  0  0
   -0.9400    3.2188    0.1455 H   0  0  0  0  0  0  0  0  0  0  0  0
    0.3704    3.3817   -0.8946 H   0  0  0  0  0  0  0  0  0  0  0  0
    0.0006    1.4089    0.0011 C   0  0  0  0  0  0  0  0  0  0  0  0
   -1.1962    0.6998   -0.0004 C   0  0  0  0  0  0  0  0  0  0  0  0
   -2.0638    1.1863   -0.0033 H   0  0  0  0  0  0  0  0  0  0  0  0
   -1.2045   -0.7030    0.0000 C   0  0  0  0  0  0  0  0  0  0  0  0
   -2.0826   -1.1894    0.0011 H   0  0  0  0  0  0  0  0  0  0  0  0
   -0.0020   -1.4042    0.0005 C   0  0  0  0  0  0  0  0  0  0  0  0
   -0.0033   -2.3982    0.0007 H   0  0  0  0  0  0  0  0  0  0  0  0
    1.2045   -0.7001   -0.0000 C   0  0  0  0  0  0  0  0  0  0  0  0
    2.0850   -1.1948    0.0023 H   0  0  0  0  0  0  0  0  0  0  0  0
    1.1976    0.6985   -0.0012 C   0  0  0  0  0  0  0  0  0  0  0  0
    2.0670    1.1917   -0.0046 H   0  0  0  0  0  0  0  0  0  0  0  0
  1  5  1  0
  5  8  1  0
  1  2  1  0
  1  3  1  0
  1  4  1  0
  5  6  1  0
  5  7  1  0
  8  9  1  0
  8 10  1  0
  8 11  1  0
 12 16  1  0
 16 17  2  0
 17 19  1  0
 19 21  2  0
 21 23  1  0
 23 25  2  0
 25 16  1  0
 12 13  1  0
 12 14  1  0
 12 15  1  0
 17 18  1  0
 19 20  1  0
 21 22  1  0
 23 24  1  0
 25 26  1  0
M  CHG  1   8   1
M  END
>  <PDB_ID>  (422) 
pdb2g47

>  <RESIDUE_NAME>  (422) 
LYS   PHE

>  <FRAG_NAME>  (422) 
ETAM   MBZ

>  <FRAG_ATOM_NUM>  (422) 
fragi: 11  fragj: 15

>  <atom.prop.CHAIN_ID>  (422) 
A A A A A A A A A A A Z Z Z Z Z Z Z Z Z Z Z Z Z Z Z

>  <atom.prop.IS_HEAVY_ATOM>  (422) 
1 0 0 0 1 0 0 1 0 0 0 1 0 0 0 1 1 0 1 0 1 0 1 0 1 0

>  <DIFUSE_FUNC_ATOM>  (422) 
n/a

>  <FINAL_SINGLE_POINT_ENERGY>  (422) 
0

>  <NONCOV_INTER_ENERGY_QM>  (422) 
0

>  <FF_Energy>  (422) 
-4.96

>  <QM_Energy>  (422) 
-10.52

>  <source>  (422) 
ETAM_MBZ

>  <Index>  (422) 
3982

$$$$
ETAM-pdb2g62-A-LYS-197:MBZ-pdb2g62-A-PHE-259
     RDKit          3D

 26 25  0  0  0  0  0  0  0  0999 V2000
   -4.2874   -2.4971    0.8027 C   0  0  0  0  0  0  0  0  0  0  0  0
   -4.2110   -2.1935   -0.1414 H   0  0  0  0  0  0  0  0  0  0  0  0
   -5.1911   -2.8731    0.9748 H   0  0  0  0  0  0  0  0  0  0  0  0
   -3.5651   -3.3006    0.9467 H   0  0  0  0  0  0  0  0  0  0  0  0
   -4.0565   -1.2988    1.7360 C   0  0  0  0  0  0  0  0  0  0  0  0
   -4.1854   -1.6081    2.6981 H   0  0  0  0  0  0  0  0  0  0  0  0
   -3.0842   -1.0055    1.6540 H   0  0  0  0  0  0  0  0  0  0  0  0
   -4.9383   -0.0850    1.5060 N   0  0  0  0  0  4  0  0  0  0  0  0
   -5.4000   -0.1896    0.6306 H   0  0  0  0  0  0  0  0  0  0  0  0
   -5.6028   -0.0322    2.2442 H   0  0  0  0  0  0  0  0  0  0  0  0
   -4.3637    0.7275    1.4987 H   0  0  0  0  0  0  0  0  0  0  0  0
    0.0169    2.9290   -0.0140 C   0  0  0  0  0  0  0  0  0  0  0  0
   -0.5633    3.2176   -0.7552 H   0  0  0  0  0  0  0  0  0  0  0  0
    0.9502    3.2162   -0.1440 H   0  0  0  0  0  0  0  0  0  0  0  0
   -0.3526    3.3920    0.9011 H   0  0  0  0  0  0  0  0  0  0  0  0
    0.0025    1.4045    0.0195 C   0  0  0  0  0  0  0  0  0  0  0  0
   -1.2045    0.6872   -0.0000 C   0  0  0  0  0  0  0  0  0  0  0  0
   -2.0651    1.1723   -0.0152 H   0  0  0  0  0  0  0  0  0  0  0  0
   -1.1866   -0.7008    0.0000 C   0  0  0  0  0  0  0  0  0  0  0  0
   -2.0583   -1.2072    0.0132 H   0  0  0  0  0  0  0  0  0  0  0  0
    0.0189   -1.3760   -0.0167 C   0  0  0  0  0  0  0  0  0  0  0  0
    0.0046   -2.3891   -0.0426 H   0  0  0  0  0  0  0  0  0  0  0  0
    1.1866   -0.7041    0.0000 C   0  0  0  0  0  0  0  0  0  0  0  0
    2.0821   -1.1888    0.0163 H   0  0  0  0  0  0  0  0  0  0  0  0
    1.1831    0.6891   -0.0029 C   0  0  0  0  0  0  0  0  0  0  0  0
    2.0607    1.1778   -0.0225 H   0  0  0  0  0  0  0  0  0  0  0  0
  1  5  1  0
  5  8  1  0
  1  2  1  0
  1  3  1  0
  1  4  1  0
  5  6  1  0
  5  7  1  0
  8  9  1  0
  8 10  1  0
  8 11  1  0
 12 16  1  0
 16 17  2  0
 17 19  1  0
 19 21  2  0
 21 23  1  0
 23 25  2  0
 25 16  1  0
 12 13  1  0
 12 14  1  0
 12 15  1  0
 17 18  1  0
 19 20  1  0
 21 22  1  0
 23 24  1  0
 25 26  1  0
M  CHG  1   8   1
M  END
>  <PDB_ID>  (423) 
pdb2g62

>  <RESIDUE_NAME>  (423) 
LYS   PHE

>  <FRAG_NAME>  (423) 
ETAM   MBZ

>  <FRAG_ATOM_NUM>  (423) 
fragi: 11  fragj: 15

>  <atom.prop.CHAIN_ID>  (423) 
A A A A A A A A A A A Z Z Z Z Z Z Z Z Z Z Z Z Z Z Z

>  <atom.prop.IS_HEAVY_ATOM>  (423) 
1 0 0 0 1 0 0 1 0 0 0 1 0 0 0 1 1 0 1 0 1 0 1 0 1 0

>  <DIFUSE_FUNC_ATOM>  (423) 
n/a

>  <FINAL_SINGLE_POINT_ENERGY>  (423) 
0

>  <NONCOV_INTER_ENERGY_QM>  (423) 
0

>  <FF_Energy>  (423) 
2.41

>  <QM_Energy>  (423) 
-2.93

>  <source>  (423) 
ETAM_MBZ

>  <Index>  (423) 
3987

$$$$
ETAM-pdb1f2d-D-LYS-233:MBZ-pdb1f2d-D-PHE-136
     RDKit          3D

 26 25  0  0  0  0  0  0  0  0999 V2000
    3.5872   -3.2859    4.7746 C   0  0  0  0  0  0  0  0  0  0  0  0
    2.9931   -3.3820    5.5564 H   0  0  0  0  0  0  0  0  0  0  0  0
    4.1981   -2.5171    4.8716 H   0  0  0  0  0  0  0  0  0  0  0  0
    4.1758   -4.1964    4.6625 H   0  0  0  0  0  0  0  0  0  0  0  0
    2.7109   -3.0533    3.5256 C   0  0  0  0  0  0  0  0  0  0  0  0
    3.3241   -2.9953    2.7168 H   0  0  0  0  0  0  0  0  0  0  0  0
    2.1266   -3.8753    3.3924 H   0  0  0  0  0  0  0  0  0  0  0  0
    1.8411   -1.8401    3.5656 N   0  0  0  0  0  4  0  0  0  0  0  0
    1.1414   -1.9596    4.2687 H   0  0  0  0  0  0  0  0  0  0  0  0
    2.4009   -1.0412    3.7798 H   0  0  0  0  0  0  0  0  0  0  0  0
    1.4059   -1.7176    2.6755 H   0  0  0  0  0  0  0  0  0  0  0  0
   -0.0018    2.9299    0.0183 C   0  0  0  0  0  0  0  0  0  0  0  0
   -0.4316    3.2420   -0.8115 H   0  0  0  0  0  0  0  0  0  0  0  0
    0.9337    3.2326    0.0837 H   0  0  0  0  0  0  0  0  0  0  0  0
   -0.5491    3.3587    0.8577 H   0  0  0  0  0  0  0  0  0  0  0  0
    0.0000    1.4117    0.0001 C   0  0  0  0  0  0  0  0  0  0  0  0
   -1.2008    0.6971   -0.0006 C   0  0  0  0  0  0  0  0  0  0  0  0
   -2.0669    1.1852   -0.0023 H   0  0  0  0  0  0  0  0  0  0  0  0
   -1.2058   -0.7022    0.0000 C   0  0  0  0  0  0  0  0  0  0  0  0
   -2.0815   -1.1934    0.0020 H   0  0  0  0  0  0  0  0  0  0  0  0
    0.0004   -1.4024    0.0004 C   0  0  0  0  0  0  0  0  0  0  0  0
   -0.0041   -2.3989    0.0005 H   0  0  0  0  0  0  0  0  0  0  0  0
    1.2058   -0.7029    0.0000 C   0  0  0  0  0  0  0  0  0  0  0  0
    2.0858   -1.1961    0.0008 H   0  0  0  0  0  0  0  0  0  0  0  0
    1.2003    0.6987    0.0000 C   0  0  0  0  0  0  0  0  0  0  0  0
    2.0679    1.1916   -0.0003 H   0  0  0  0  0  0  0  0  0  0  0  0
  1  5  1  0
  5  8  1  0
  1  2  1  0
  1  3  1  0
  1  4  1  0
  5  6  1  0
  5  7  1  0
  8  9  1  0
  8 10  1  0
  8 11  1  0
 12 16  1  0
 16 17  2  0
 17 19  1  0
 19 21  2  0
 21 23  1  0
 23 25  2  0
 25 16  1  0
 12 13  1  0
 12 14  1  0
 12 15  1  0
 17 18  1  0
 19 20  1  0
 21 22  1  0
 23 24  1  0
 25 26  1  0
M  CHG  1   8   1
M  END
>  <PDB_ID>  (424) 
pdb1f2d

>  <RESIDUE_NAME>  (424) 
LYS   PHE

>  <FRAG_NAME>  (424) 
ETAM   MBZ

>  <FRAG_ATOM_NUM>  (424) 
fragi: 11  fragj: 15

>  <atom.prop.CHAIN_ID>  (424) 
A A A A A A A A A A A Z Z Z Z Z Z Z Z Z Z Z Z Z Z Z

>  <atom.prop.IS_HEAVY_ATOM>  (424) 
1 0 0 0 1 0 0 1 0 0 0 1 0 0 0 1 1 0 1 0 1 0 1 0 1 0

>  <DIFUSE_FUNC_ATOM>  (424) 
n/a

>  <FINAL_SINGLE_POINT_ENERGY>  (424) 
0

>  <NONCOV_INTER_ENERGY_QM>  (424) 
0

>  <FF_Energy>  (424) 
-3.35

>  <QM_Energy>  (424) 
-8.93

>  <source>  (424) 
ETAM_MBZ

>  <Index>  (424) 
3991

$$$$
ETAM-pdb1f8r-A-LYS-312:MBZ-pdb1f8r-A-PHE-454
     RDKit          3D

 26 25  0  0  0  0  0  0  0  0999 V2000
   -1.3345   -1.7332   -3.7018 C   0  0  0  0  0  0  0  0  0  0  0  0
   -1.6888   -2.6530   -3.5548 H   0  0  0  0  0  0  0  0  0  0  0  0
   -0.5816   -1.5528   -3.0752 H   0  0  0  0  0  0  0  0  0  0  0  0
   -0.9640   -1.6604   -4.7244 H   0  0  0  0  0  0  0  0  0  0  0  0
   -2.4504   -0.7330   -3.4196 C   0  0  0  0  0  0  0  0  0  0  0  0
   -3.1867   -0.8676   -4.0964 H   0  0  0  0  0  0  0  0  0  0  0  0
   -2.8321   -0.9210   -2.5038 H   0  0  0  0  0  0  0  0  0  0  0  0
   -2.0015    0.6960   -3.4717 N   0  0  0  0  0  4  0  0  0  0  0  0
   -1.1247    0.7455   -3.9451 H   0  0  0  0  0  0  0  0  0  0  0  0
   -2.6826    1.2345   -3.9635 H   0  0  0  0  0  0  0  0  0  0  0  0
   -1.9042    1.0413   -2.5401 H   0  0  0  0  0  0  0  0  0  0  0  0
    0.0021    2.9105    0.0070 C   0  0  0  0  0  0  0  0  0  0  0  0
   -0.7259    3.2197   -0.5874 H   0  0  0  0  0  0  0  0  0  0  0  0
    0.8853    3.2139   -0.3209 H   0  0  0  0  0  0  0  0  0  0  0  0
   -0.1585    3.3503    0.9913 H   0  0  0  0  0  0  0  0  0  0  0  0
   -0.0021    1.4050   -0.0008 C   0  0  0  0  0  0  0  0  0  0  0  0
   -1.1984    0.6981    0.0007 C   0  0  0  0  0  0  0  0  0  0  0  0
   -2.0657    1.1867    0.0010 H   0  0  0  0  0  0  0  0  0  0  0  0
   -1.2053   -0.6977    0.0000 C   0  0  0  0  0  0  0  0  0  0  0  0
   -2.0800   -1.1904    0.0011 H   0  0  0  0  0  0  0  0  0  0  0  0
    0.0014   -1.3986   -0.0004 C   0  0  0  0  0  0  0  0  0  0  0  0
   -0.0059   -2.3962   -0.0012 H   0  0  0  0  0  0  0  0  0  0  0  0
    1.2053   -0.7026   -0.0000 C   0  0  0  0  0  0  0  0  0  0  0  0
    2.0853   -1.1967    0.0016 H   0  0  0  0  0  0  0  0  0  0  0  0
    1.1991    0.6957    0.0006 C   0  0  0  0  0  0  0  0  0  0  0  0
    2.0665    1.1908    0.0011 H   0  0  0  0  0  0  0  0  0  0  0  0
  1  5  1  0
  5  8  1  0
  1  2  1  0
  1  3  1  0
  1  4  1  0
  5  6  1  0
  5  7  1  0
  8  9  1  0
  8 10  1  0
  8 11  1  0
 12 16  1  0
 16 17  2  0
 17 19  1  0
 19 21  2  0
 21 23  1  0
 23 25  2  0
 25 16  1  0
 12 13  1  0
 12 14  1  0
 12 15  1  0
 17 18  1  0
 19 20  1  0
 21 22  1  0
 23 24  1  0
 25 26  1  0
M  CHG  1   8   1
M  END
>  <PDB_ID>  (425) 
pdb1f8r

>  <RESIDUE_NAME>  (425) 
LYS   PHE

>  <FRAG_NAME>  (425) 
ETAM   MBZ

>  <FRAG_ATOM_NUM>  (425) 
fragi: 11  fragj: 15

>  <atom.prop.CHAIN_ID>  (425) 
A A A A A A A A A A A Z Z Z Z Z Z Z Z Z Z Z Z Z Z Z

>  <atom.prop.IS_HEAVY_ATOM>  (425) 
1 0 0 0 1 0 0 1 0 0 0 1 0 0 0 1 1 0 1 0 1 0 1 0 1 0

>  <DIFUSE_FUNC_ATOM>  (425) 
n/a

>  <FINAL_SINGLE_POINT_ENERGY>  (425) 
0

>  <NONCOV_INTER_ENERGY_QM>  (425) 
0

>  <FF_Energy>  (425) 
-5.61

>  <QM_Energy>  (425) 
-11.24

>  <source>  (425) 
ETAM_MBZ

>  <Index>  (425) 
3997

$$$$
ETAM-pdb1f8r-B-LYS-312:MBZ-pdb1f8r-B-PHE-454
     RDKit          3D

 26 25  0  0  0  0  0  0  0  0999 V2000
   -1.3012   -1.7555   -3.7060 C   0  0  0  0  0  0  0  0  0  0  0  0
   -1.6176   -2.6901   -3.5887 H   0  0  0  0  0  0  0  0  0  0  0  0
   -0.5534   -1.5602   -3.0820 H   0  0  0  0  0  0  0  0  0  0  0  0
   -0.9442   -1.6340   -4.7288 H   0  0  0  0  0  0  0  0  0  0  0  0
   -2.4540   -0.8078   -3.3970 C   0  0  0  0  0  0  0  0  0  0  0  0
   -3.1918   -0.9697   -4.0552 H   0  0  0  0  0  0  0  0  0  0  0  0
   -2.7920   -0.9988   -2.4729 H   0  0  0  0  0  0  0  0  0  0  0  0
   -2.0317    0.6210   -3.4771 N   0  0  0  0  0  4  0  0  0  0  0  0
   -1.4706    0.8436   -2.6810 H   0  0  0  0  0  0  0  0  0  0  0  0
   -1.5022    0.7616   -4.3126 H   0  0  0  0  0  0  0  0  0  0  0  0
   -2.8427    1.2038   -3.4915 H   0  0  0  0  0  0  0  0  0  0  0  0
    0.0063    2.9008    0.0383 C   0  0  0  0  0  0  0  0  0  0  0  0
   -0.7298    3.2276   -0.5349 H   0  0  0  0  0  0  0  0  0  0  0  0
    0.8849    3.2149   -0.2881 H   0  0  0  0  0  0  0  0  0  0  0  0
   -0.1430    3.3149    1.0355 H   0  0  0  0  0  0  0  0  0  0  0  0
    0.0009    1.4025   -0.0014 C   0  0  0  0  0  0  0  0  0  0  0  0
   -1.1982    0.6957   -0.0004 C   0  0  0  0  0  0  0  0  0  0  0  0
   -2.0633    1.1856   -0.0009 H   0  0  0  0  0  0  0  0  0  0  0  0
   -1.2031   -0.6978    0.0000 C   0  0  0  0  0  0  0  0  0  0  0  0
   -2.0793   -1.1906   -0.0002 H   0  0  0  0  0  0  0  0  0  0  0  0
    0.0005   -1.3960    0.0020 C   0  0  0  0  0  0  0  0  0  0  0  0
   -0.0035   -2.3933    0.0044 H   0  0  0  0  0  0  0  0  0  0  0  0
    1.2031   -0.6981    0.0000 C   0  0  0  0  0  0  0  0  0  0  0  0
    2.0838   -1.1948    0.0003 H   0  0  0  0  0  0  0  0  0  0  0  0
    1.1968    0.6938   -0.0001 C   0  0  0  0  0  0  0  0  0  0  0  0
    2.0652    1.1900    0.0002 H   0  0  0  0  0  0  0  0  0  0  0  0
  1  5  1  0
  5  8  1  0
  1  2  1  0
  1  3  1  0
  1  4  1  0
  5  6  1  0
  5  7  1  0
  8  9  1  0
  8 10  1  0
  8 11  1  0
 12 16  1  0
 16 17  2  0
 17 19  1  0
 19 21  2  0
 21 23  1  0
 23 25  2  0
 25 16  1  0
 12 13  1  0
 12 14  1  0
 12 15  1  0
 17 18  1  0
 19 20  1  0
 21 22  1  0
 23 24  1  0
 25 26  1  0
M  CHG  1   8   1
M  END
>  <PDB_ID>  (426) 
pdb1f8r

>  <RESIDUE_NAME>  (426) 
LYS   PHE

>  <FRAG_NAME>  (426) 
ETAM   MBZ

>  <FRAG_ATOM_NUM>  (426) 
fragi: 11  fragj: 15

>  <atom.prop.CHAIN_ID>  (426) 
A A A A A A A A A A A Z Z Z Z Z Z Z Z Z Z Z Z Z Z Z

>  <atom.prop.IS_HEAVY_ATOM>  (426) 
1 0 0 0 1 0 0 1 0 0 0 1 0 0 0 1 1 0 1 0 1 0 1 0 1 0

>  <DIFUSE_FUNC_ATOM>  (426) 
n/a

>  <FINAL_SINGLE_POINT_ENERGY>  (426) 
0

>  <NONCOV_INTER_ENERGY_QM>  (426) 
0

>  <FF_Energy>  (426) 
-5.85

>  <QM_Energy>  (426) 
-11.65

>  <source>  (426) 
ETAM_MBZ

>  <Index>  (426) 
4001

$$$$
ETAM-pdb1f8r-C-LYS-312:MBZ-pdb1f8r-C-PHE-454
     RDKit          3D

 26 25  0  0  0  0  0  0  0  0999 V2000
   -1.1840   -1.7437   -3.7233 C   0  0  0  0  0  0  0  0  0  0  0  0
   -1.5002   -2.6782   -3.5998 H   0  0  0  0  0  0  0  0  0  0  0  0
   -0.4509   -1.5381   -3.0839 H   0  0  0  0  0  0  0  0  0  0  0  0
   -0.8066   -1.6319   -4.7398 H   0  0  0  0  0  0  0  0  0  0  0  0
   -2.3500   -0.7963   -3.4434 C   0  0  0  0  0  0  0  0  0  0  0  0
   -3.0371   -0.9106   -4.1626 H   0  0  0  0  0  0  0  0  0  0  0  0
   -2.7537   -1.0355   -2.5589 H   0  0  0  0  0  0  0  0  0  0  0  0
   -1.9003    0.6218   -3.4123 N   0  0  0  0  0  4  0  0  0  0  0  0
   -1.4279    0.8012   -2.5495 H   0  0  0  0  0  0  0  0  0  0  0  0
   -1.2772    0.7896   -4.1762 H   0  0  0  0  0  0  0  0  0  0  0  0
   -2.6947    1.2231   -3.4897 H   0  0  0  0  0  0  0  0  0  0  0  0
    0.0029    2.9030    0.0257 C   0  0  0  0  0  0  0  0  0  0  0  0
   -0.7289    3.2214   -0.5577 H   0  0  0  0  0  0  0  0  0  0  0  0
    0.8837    3.2132   -0.3004 H   0  0  0  0  0  0  0  0  0  0  0  0
   -0.1527    3.3272    1.0176 H   0  0  0  0  0  0  0  0  0  0  0  0
   -0.0009    1.4018    0.0003 C   0  0  0  0  0  0  0  0  0  0  0  0
   -1.1970    0.6953    0.0007 C   0  0  0  0  0  0  0  0  0  0  0  0
   -2.0636    1.1852    0.0006 H   0  0  0  0  0  0  0  0  0  0  0  0
   -1.2032   -0.6973   -0.0000 C   0  0  0  0  0  0  0  0  0  0  0  0
   -2.0789   -1.1908    0.0014 H   0  0  0  0  0  0  0  0  0  0  0  0
    0.0015   -1.3973    0.0001 C   0  0  0  0  0  0  0  0  0  0  0  0
   -0.0031   -2.3937   -0.0001 H   0  0  0  0  0  0  0  0  0  0  0  0
    1.2032   -0.6976    0.0000 C   0  0  0  0  0  0  0  0  0  0  0  0
    2.0849   -1.1933    0.0024 H   0  0  0  0  0  0  0  0  0  0  0  0
    1.1964    0.6950   -0.0011 C   0  0  0  0  0  0  0  0  0  0  0  0
    2.0641    1.1913   -0.0035 H   0  0  0  0  0  0  0  0  0  0  0  0
  1  5  1  0
  5  8  1  0
  1  2  1  0
  1  3  1  0
  1  4  1  0
  5  6  1  0
  5  7  1  0
  8  9  1  0
  8 10  1  0
  8 11  1  0
 12 16  1  0
 16 17  2  0
 17 19  1  0
 19 21  2  0
 21 23  1  0
 23 25  2  0
 25 16  1  0
 12 13  1  0
 12 14  1  0
 12 15  1  0
 17 18  1  0
 19 20  1  0
 21 22  1  0
 23 24  1  0
 25 26  1  0
M  CHG  1   8   1
M  END
>  <PDB_ID>  (427) 
pdb1f8r

>  <RESIDUE_NAME>  (427) 
LYS   PHE

>  <FRAG_NAME>  (427) 
ETAM   MBZ

>  <FRAG_ATOM_NUM>  (427) 
fragi: 11  fragj: 15

>  <atom.prop.CHAIN_ID>  (427) 
A A A A A A A A A A A Z Z Z Z Z Z Z Z Z Z Z Z Z Z Z

>  <atom.prop.IS_HEAVY_ATOM>  (427) 
1 0 0 0 1 0 0 1 0 0 0 1 0 0 0 1 1 0 1 0 1 0 1 0 1 0

>  <DIFUSE_FUNC_ATOM>  (427) 
n/a

>  <FINAL_SINGLE_POINT_ENERGY>  (427) 
0

>  <NONCOV_INTER_ENERGY_QM>  (427) 
0

>  <FF_Energy>  (427) 
-6.33

>  <QM_Energy>  (427) 
-12.63

>  <source>  (427) 
ETAM_MBZ

>  <Index>  (427) 
4004

$$$$
ETAM-pdb1fbl-A-LYS-452:MBZ-pdb1fbl-A-PHE-449
     RDKit          3D

 26 25  0  0  0  0  0  0  0  0999 V2000
   -1.6677    0.5517    4.8344 C   0  0  0  0  0  0  0  0  0  0  0  0
   -2.5290    0.1360    5.1243 H   0  0  0  0  0  0  0  0  0  0  0  0
   -1.8528    1.3900    4.3238 H   0  0  0  0  0  0  0  0  0  0  0  0
   -1.0956    0.8112    5.7253 H   0  0  0  0  0  0  0  0  0  0  0  0
   -0.9425   -0.4373    3.8973 C   0  0  0  0  0  0  0  0  0  0  0  0
   -0.3116    0.0713    3.3269 H   0  0  0  0  0  0  0  0  0  0  0  0
   -0.4583   -1.1020    4.4517 H   0  0  0  0  0  0  0  0  0  0  0  0
   -1.9419   -1.1425    3.0314 N   0  0  0  0  0  4  0  0  0  0  0  0
   -1.7859   -0.8883    2.0793 H   0  0  0  0  0  0  0  0  0  0  0  0
   -1.8314   -2.1282    3.1419 H   0  0  0  0  0  0  0  0  0  0  0  0
   -2.8621   -0.8722    3.3079 H   0  0  0  0  0  0  0  0  0  0  0  0
    0.0041    2.8608    0.0081 C   0  0  0  0  0  0  0  0  0  0  0  0
   -0.7614    3.1864   -0.5293 H   0  0  0  0  0  0  0  0  0  0  0  0
    0.8643    3.1777   -0.3673 H   0  0  0  0  0  0  0  0  0  0  0  0
   -0.0929    3.2837    1.0081 H   0  0  0  0  0  0  0  0  0  0  0  0
   -0.0034    1.3903   -0.0001 C   0  0  0  0  0  0  0  0  0  0  0  0
   -1.1917    0.7045    0.0004 C   0  0  0  0  0  0  0  0  0  0  0  0
   -2.0589    1.2002   -0.0007 H   0  0  0  0  0  0  0  0  0  0  0  0
   -1.2076   -0.6791   -0.0000 C   0  0  0  0  0  0  0  0  0  0  0  0
   -2.0804   -1.1748    0.0017 H   0  0  0  0  0  0  0  0  0  0  0  0
    0.0033   -1.3942   -0.0007 C   0  0  0  0  0  0  0  0  0  0  0  0
   -0.0158   -2.3883   -0.0019 H   0  0  0  0  0  0  0  0  0  0  0  0
    1.2076   -0.7040    0.0000 C   0  0  0  0  0  0  0  0  0  0  0  0
    2.0850   -1.1991    0.0018 H   0  0  0  0  0  0  0  0  0  0  0  0
    1.1917    0.6824    0.0004 C   0  0  0  0  0  0  0  0  0  0  0  0
    2.0610    1.1853    0.0007 H   0  0  0  0  0  0  0  0  0  0  0  0
  1  5  1  0
  5  8  1  0
  1  2  1  0
  1  3  1  0
  1  4  1  0
  5  6  1  0
  5  7  1  0
  8  9  1  0
  8 10  1  0
  8 11  1  0
 12 16  1  0
 16 17  2  0
 17 19  1  0
 19 21  2  0
 21 23  1  0
 23 25  2  0
 25 16  1  0
 12 13  1  0
 12 14  1  0
 12 15  1  0
 17 18  1  0
 19 20  1  0
 21 22  1  0
 23 24  1  0
 25 26  1  0
M  CHG  1   8   1
M  END
>  <PDB_ID>  (428) 
pdb1fbl

>  <RESIDUE_NAME>  (428) 
LYS   PHE

>  <FRAG_NAME>  (428) 
ETAM   MBZ

>  <FRAG_ATOM_NUM>  (428) 
fragi: 11  fragj: 15

>  <atom.prop.CHAIN_ID>  (428) 
A A A A A A A A A A A Z Z Z Z Z Z Z Z Z Z Z Z Z Z Z

>  <atom.prop.IS_HEAVY_ATOM>  (428) 
1 0 0 0 1 0 0 1 0 0 0 1 0 0 0 1 1 0 1 0 1 0 1 0 1 0

>  <DIFUSE_FUNC_ATOM>  (428) 
n/a

>  <FINAL_SINGLE_POINT_ENERGY>  (428) 
0

>  <NONCOV_INTER_ENERGY_QM>  (428) 
0

>  <FF_Energy>  (428) 
-5.36

>  <QM_Energy>  (428) 
-13.33

>  <source>  (428) 
ETAM_MBZ

>  <Index>  (428) 
4049

$$$$
ETAM-pdb1fc6-A-LYS-397:MBZ-pdb1fc6-A-PHE-140
     RDKit          3D

 26 25  0  0  0  0  0  0  0  0999 V2000
    2.3085   -4.3793   -4.3401 C   0  0  0  0  0  0  0  0  0  0  0  0
    2.3256   -5.1133   -3.6587 H   0  0  0  0  0  0  0  0  0  0  0  0
    2.7860   -4.6842   -5.1658 H   0  0  0  0  0  0  0  0  0  0  0  0
    1.2702   -4.1692   -4.5965 H   0  0  0  0  0  0  0  0  0  0  0  0
    3.0308   -3.1778   -3.7781 C   0  0  0  0  0  0  0  0  0  0  0  0
    3.9832   -3.4439   -3.5661 H   0  0  0  0  0  0  0  0  0  0  0  0
    3.0647   -2.4588   -4.4886 H   0  0  0  0  0  0  0  0  0  0  0  0
    2.3909   -2.6472   -2.5755 N   0  0  0  0  0  4  0  0  0  0  0  0
    1.4501   -2.9906   -2.5054 H   0  0  0  0  0  0  0  0  0  0  0  0
    2.9019   -2.9312   -1.7595 H   0  0  0  0  0  0  0  0  0  0  0  0
    2.3678   -1.6439   -2.6110 H   0  0  0  0  0  0  0  0  0  0  0  0
   -0.0258    2.9314   -0.0346 C   0  0  0  0  0  0  0  0  0  0  0  0
   -0.9401    3.2197   -0.2263 H   0  0  0  0  0  0  0  0  0  0  0  0
    0.6219    3.2282   -0.7039 H   0  0  0  0  0  0  0  0  0  0  0  0
    0.2675    3.3445    0.9304 H   0  0  0  0  0  0  0  0  0  0  0  0
   -0.0097    1.4221   -0.0066 C   0  0  0  0  0  0  0  0  0  0  0  0
   -1.1975    0.6831   -0.0225 C   0  0  0  0  0  0  0  0  0  0  0  0
   -2.0746    1.1669   -0.0522 H   0  0  0  0  0  0  0  0  0  0  0  0
   -1.2062   -0.7176    0.0000 C   0  0  0  0  0  0  0  0  0  0  0  0
   -2.0725   -1.2102    0.0153 H   0  0  0  0  0  0  0  0  0  0  0  0
    0.0117   -1.4029    0.0022 C   0  0  0  0  0  0  0  0  0  0  0  0
    0.0156   -2.4008    0.0051 H   0  0  0  0  0  0  0  0  0  0  0  0
    1.2062   -0.6944   -0.0000 C   0  0  0  0  0  0  0  0  0  0  0  0
    2.0941   -1.1804   -0.0193 H   0  0  0  0  0  0  0  0  0  0  0  0
    1.1955    0.7098    0.0269 C   0  0  0  0  0  0  0  0  0  0  0  0
    2.0596    1.2048    0.0696 H   0  0  0  0  0  0  0  0  0  0  0  0
  1  5  1  0
  5  8  1  0
  1  2  1  0
  1  3  1  0
  1  4  1  0
  5  6  1  0
  5  7  1  0
  8  9  1  0
  8 10  1  0
  8 11  1  0
 12 16  1  0
 16 17  2  0
 17 19  1  0
 19 21  2  0
 21 23  1  0
 23 25  2  0
 25 16  1  0
 12 13  1  0
 12 14  1  0
 12 15  1  0
 17 18  1  0
 19 20  1  0
 21 22  1  0
 23 24  1  0
 25 26  1  0
M  CHG  1   8   1
M  END
>  <PDB_ID>  (429) 
pdb1fc6

>  <RESIDUE_NAME>  (429) 
LYS   PHE

>  <FRAG_NAME>  (429) 
ETAM   MBZ

>  <FRAG_ATOM_NUM>  (429) 
fragi: 11  fragj: 15

>  <atom.prop.CHAIN_ID>  (429) 
A A A A A A A A A A A Z Z Z Z Z Z Z Z Z Z Z Z Z Z Z

>  <atom.prop.IS_HEAVY_ATOM>  (429) 
1 0 0 0 1 0 0 1 0 0 0 1 0 0 0 1 1 0 1 0 1 0 1 0 1 0

>  <DIFUSE_FUNC_ATOM>  (429) 
n/a

>  <FINAL_SINGLE_POINT_ENERGY>  (429) 
0

>  <NONCOV_INTER_ENERGY_QM>  (429) 
0

>  <FF_Energy>  (429) 
-1.29

>  <QM_Energy>  (429) 
-7.1

>  <source>  (429) 
ETAM_MBZ

>  <Index>  (429) 
4052

$$$$
ETAM-pdb2gai-A-LYS-232:MBZ-pdb2gai-A-PHE-419
     RDKit          3D

 26 25  0  0  0  0  0  0  0  0999 V2000
    4.6810    0.6308   -1.3986 C   0  0  0  0  0  0  0  0  0  0  0  0
    4.2925   -0.0032   -0.7406 H   0  0  0  0  0  0  0  0  0  0  0  0
    5.6708    0.5615   -1.4098 H   0  0  0  0  0  0  0  0  0  0  0  0
    4.2957    0.3949   -2.3906 H   0  0  0  0  0  0  0  0  0  0  0  0
    4.3005    2.0483   -0.9871 C   0  0  0  0  0  0  0  0  0  0  0  0
    4.5151    2.6647   -1.7179 H   0  0  0  0  0  0  0  0  0  0  0  0
    3.3526    2.0697   -0.7381 H   0  0  0  0  0  0  0  0  0  0  0  0
    5.1369    2.3741    0.2037 N   0  0  0  0  0  4  0  0  0  0  0  0
    5.7899    3.0913   -0.0375 H   0  0  0  0  0  0  0  0  0  0  0  0
    4.5474    2.6923    0.9447 H   0  0  0  0  0  0  0  0  0  0  0  0
    5.6295    1.5549    0.4954 H   0  0  0  0  0  0  0  0  0  0  0  0
   -0.0200    2.8967    0.0133 C   0  0  0  0  0  0  0  0  0  0  0  0
   -0.7583    3.2055   -0.5605 H   0  0  0  0  0  0  0  0  0  0  0  0
    0.8552    3.2127   -0.3103 H   0  0  0  0  0  0  0  0  0  0  0  0
   -0.1766    3.3077    1.0106 H   0  0  0  0  0  0  0  0  0  0  0  0
   -0.0109    1.3957   -0.0049 C   0  0  0  0  0  0  0  0  0  0  0  0
   -1.2091    0.6845   -0.0048 C   0  0  0  0  0  0  0  0  0  0  0  0
   -2.0754    1.1678   -0.0097 H   0  0  0  0  0  0  0  0  0  0  0  0
   -1.2050   -0.7125    0.0000 C   0  0  0  0  0  0  0  0  0  0  0  0
   -2.0667   -1.2162    0.0050 H   0  0  0  0  0  0  0  0  0  0  0  0
    0.0214   -1.3929    0.0001 C   0  0  0  0  0  0  0  0  0  0  0  0
    0.0277   -2.3904   -0.0002 H   0  0  0  0  0  0  0  0  0  0  0  0
    1.2050   -0.6767   -0.0000 C   0  0  0  0  0  0  0  0  0  0  0  0
    2.0976   -1.1728   -0.0057 H   0  0  0  0  0  0  0  0  0  0  0  0
    1.1985    0.7019    0.0096 C   0  0  0  0  0  0  0  0  0  0  0  0
    2.0556    1.2093    0.0255 H   0  0  0  0  0  0  0  0  0  0  0  0
  1  5  1  0
  5  8  1  0
  1  2  1  0
  1  3  1  0
  1  4  1  0
  5  6  1  0
  5  7  1  0
  8  9  1  0
  8 10  1  0
  8 11  1  0
 12 16  1  0
 16 17  2  0
 17 19  1  0
 19 21  2  0
 21 23  1  0
 23 25  2  0
 25 16  1  0
 12 13  1  0
 12 14  1  0
 12 15  1  0
 17 18  1  0
 19 20  1  0
 21 22  1  0
 23 24  1  0
 25 26  1  0
M  CHG  1   8   1
M  END
>  <PDB_ID>  (430) 
pdb2gai

>  <RESIDUE_NAME>  (430) 
LYS   PHE

>  <FRAG_NAME>  (430) 
ETAM   MBZ

>  <FRAG_ATOM_NUM>  (430) 
fragi: 11  fragj: 15

>  <atom.prop.CHAIN_ID>  (430) 
A A A A A A A A A A A Z Z Z Z Z Z Z Z Z Z Z Z Z Z Z

>  <atom.prop.IS_HEAVY_ATOM>  (430) 
1 0 0 0 1 0 0 1 0 0 0 1 0 0 0 1 1 0 1 0 1 0 1 0 1 0

>  <DIFUSE_FUNC_ATOM>  (430) 
n/a

>  <FINAL_SINGLE_POINT_ENERGY>  (430) 
0

>  <NONCOV_INTER_ENERGY_QM>  (430) 
0

>  <FF_Energy>  (430) 
6.21

>  <QM_Energy>  (430) 
-1.0

>  <source>  (430) 
ETAM_MBZ

>  <Index>  (430) 
4061

$$$$
ETAM-pdb2gan-B-LYS-74:MBZ-pdb2gan-B-PHE-118
     RDKit          3D

 26 25  0  0  0  0  0  0  0  0999 V2000
   -2.4949   -3.0956    3.1213 C   0  0  0  0  0  0  0  0  0  0  0  0
   -1.6566   -3.1358    2.5825 H   0  0  0  0  0  0  0  0  0  0  0  0
   -2.9488   -3.9826    3.1121 H   0  0  0  0  0  0  0  0  0  0  0  0
   -2.2378   -2.8435    4.1500 H   0  0  0  0  0  0  0  0  0  0  0  0
   -3.4242   -2.0678    2.4986 C   0  0  0  0  0  0  0  0  0  0  0  0
   -4.2267   -1.9540    3.0876 H   0  0  0  0  0  0  0  0  0  0  0  0
   -2.9429   -1.1921    2.4276 H   0  0  0  0  0  0  0  0  0  0  0  0
   -3.8734   -2.4887    1.1381 N   0  0  0  0  0  4  0  0  0  0  0  0
   -4.8018   -2.1552    0.9807 H   0  0  0  0  0  0  0  0  0  0  0  0
   -3.2561   -2.1029    0.4537 H   0  0  0  0  0  0  0  0  0  0  0  0
   -3.8591   -3.4854    1.0808 H   0  0  0  0  0  0  0  0  0  0  0  0
   -0.0002    2.9107   -0.0334 C   0  0  0  0  0  0  0  0  0  0  0  0
    0.8036    3.2282    0.4464 H   0  0  0  0  0  0  0  0  0  0  0  0
   -0.8295    3.2258    0.4013 H   0  0  0  0  0  0  0  0  0  0  0  0
    0.0267    3.3272   -1.0403 H   0  0  0  0  0  0  0  0  0  0  0  0
    0.0007    1.4075   -0.0003 C   0  0  0  0  0  0  0  0  0  0  0  0
   -1.1967    0.6990   -0.0008 C   0  0  0  0  0  0  0  0  0  0  0  0
   -2.0642    1.1867   -0.0031 H   0  0  0  0  0  0  0  0  0  0  0  0
   -1.2048   -0.7008   -0.0000 C   0  0  0  0  0  0  0  0  0  0  0  0
   -2.0821   -1.1889    0.0012 H   0  0  0  0  0  0  0  0  0  0  0  0
   -0.0017   -1.4046    0.0006 C   0  0  0  0  0  0  0  0  0  0  0  0
   -0.0051   -2.3982    0.0011 H   0  0  0  0  0  0  0  0  0  0  0  0
    1.2048   -0.7010    0.0000 C   0  0  0  0  0  0  0  0  0  0  0  0
    2.0848   -1.1946    0.0002 H   0  0  0  0  0  0  0  0  0  0  0  0
    1.1977    0.7000    0.0005 C   0  0  0  0  0  0  0  0  0  0  0  0
    2.0667    1.1926    0.0006 H   0  0  0  0  0  0  0  0  0  0  0  0
  1  5  1  0
  5  8  1  0
  1  2  1  0
  1  3  1  0
  1  4  1  0
  5  6  1  0
  5  7  1  0
  8  9  1  0
  8 10  1  0
  8 11  1  0
 12 16  1  0
 16 17  2  0
 17 19  1  0
 19 21  2  0
 21 23  1  0
 23 25  2  0
 25 16  1  0
 12 13  1  0
 12 14  1  0
 12 15  1  0
 17 18  1  0
 19 20  1  0
 21 22  1  0
 23 24  1  0
 25 26  1  0
M  CHG  1   8   1
M  END
>  <PDB_ID>  (431) 
pdb2gan

>  <RESIDUE_NAME>  (431) 
LYS   PHE

>  <FRAG_NAME>  (431) 
ETAM   MBZ

>  <FRAG_ATOM_NUM>  (431) 
fragi: 11  fragj: 15

>  <atom.prop.CHAIN_ID>  (431) 
A A A A A A A A A A A Z Z Z Z Z Z Z Z Z Z Z Z Z Z Z

>  <atom.prop.IS_HEAVY_ATOM>  (431) 
1 0 0 0 1 0 0 1 0 0 0 1 0 0 0 1 1 0 1 0 1 0 1 0 1 0

>  <DIFUSE_FUNC_ATOM>  (431) 
n/a

>  <FINAL_SINGLE_POINT_ENERGY>  (431) 
0

>  <NONCOV_INTER_ENERGY_QM>  (431) 
0

>  <FF_Energy>  (431) 
2.07

>  <QM_Energy>  (431) 
-3.48

>  <source>  (431) 
ETAM_MBZ

>  <Index>  (431) 
4062

$$$$
ETAM-pdb1fcb-A-LYS-420:MBZ-pdb1fcb-B-PHE-380
     RDKit          3D

 26 25  0  0  0  0  0  0  0  0999 V2000
    0.4689    1.3326    5.6159 C   0  0  0  0  0  0  0  0  0  0  0  0
    1.4473    1.1845    5.5354 H   0  0  0  0  0  0  0  0  0  0  0  0
    0.0161    0.5132    5.9458 H   0  0  0  0  0  0  0  0  0  0  0  0
    0.2917    2.1432    6.3228 H   0  0  0  0  0  0  0  0  0  0  0  0
   -0.0865    1.6656    4.2261 C   0  0  0  0  0  0  0  0  0  0  0  0
   -0.9985    2.0709    4.3321 H   0  0  0  0  0  0  0  0  0  0  0  0
    0.5179    2.3378    3.7902 H   0  0  0  0  0  0  0  0  0  0  0  0
   -0.1884    0.4559    3.3455 N   0  0  0  0  0  4  0  0  0  0  0  0
   -1.1512    0.2450    3.1919 H   0  0  0  0  0  0  0  0  0  0  0  0
    0.2601    0.6479    2.4751 H   0  0  0  0  0  0  0  0  0  0  0  0
    0.2603   -0.3132    3.7949 H   0  0  0  0  0  0  0  0  0  0  0  0
   -0.0551    2.8964    0.0138 C   0  0  0  0  0  0  0  0  0  0  0  0
    0.8068    3.2136    0.3193 H   0  0  0  0  0  0  0  0  0  0  0  0
   -0.8057    3.1524    0.5693 H   0  0  0  0  0  0  0  0  0  0  0  0
   -0.2265    3.2479   -1.0036 H   0  0  0  0  0  0  0  0  0  0  0  0
    0.0000    1.3762   -0.0069 C   0  0  0  0  0  0  0  0  0  0  0  0
   -1.2263    0.6772    0.0370 C   0  0  0  0  0  0  0  0  0  0  0  0
   -2.0714    1.1881    0.0929 H   0  0  0  0  0  0  0  0  0  0  0  0
   -1.2339   -0.6932    0.0000 C   0  0  0  0  0  0  0  0  0  0  0  0
   -2.0895   -1.2039   -0.0167 H   0  0  0  0  0  0  0  0  0  0  0  0
   -0.0062   -1.3654   -0.0116 C   0  0  0  0  0  0  0  0  0  0  0  0
   -0.0252   -2.3905   -0.0296 H   0  0  0  0  0  0  0  0  0  0  0  0
    1.2339   -0.7257    0.0000 C   0  0  0  0  0  0  0  0  0  0  0  0
    2.0892   -1.2050    0.0209 H   0  0  0  0  0  0  0  0  0  0  0  0
    1.2324    0.7308   -0.0185 C   0  0  0  0  0  0  0  0  0  0  0  0
    2.0750    1.2050   -0.0390 H   0  0  0  0  0  0  0  0  0  0  0  0
  1  5  1  0
  5  8  1  0
  1  2  1  0
  1  3  1  0
  1  4  1  0
  5  6  1  0
  5  7  1  0
  8  9  1  0
  8 10  1  0
  8 11  1  0
 12 16  1  0
 16 17  2  0
 17 19  1  0
 19 21  2  0
 21 23  1  0
 23 25  2  0
 25 16  1  0
 12 13  1  0
 12 14  1  0
 12 15  1  0
 17 18  1  0
 19 20  1  0
 21 22  1  0
 23 24  1  0
 25 26  1  0
M  CHG  1   8   1
M  END
>  <PDB_ID>  (432) 
pdb1fcb

>  <RESIDUE_NAME>  (432) 
LYS   PHE

>  <FRAG_NAME>  (432) 
ETAM   MBZ

>  <FRAG_ATOM_NUM>  (432) 
fragi: 11  fragj: 15

>  <atom.prop.CHAIN_ID>  (432) 
A A A A A A A A A A A Z Z Z Z Z Z Z Z Z Z Z Z Z Z Z

>  <atom.prop.IS_HEAVY_ATOM>  (432) 
1 0 0 0 1 0 0 1 0 0 0 1 0 0 0 1 1 0 1 0 1 0 1 0 1 0

>  <DIFUSE_FUNC_ATOM>  (432) 
n/a

>  <FINAL_SINGLE_POINT_ENERGY>  (432) 
0

>  <NONCOV_INTER_ENERGY_QM>  (432) 
0

>  <FF_Energy>  (432) 
-8.8

>  <QM_Energy>  (432) 
-15.66

>  <source>  (432) 
ETAM_MBZ

>  <Index>  (432) 
4072

$$$$
ETAM-pdb2g5c-D-LYS-86:MBZ-pdb2g5c-D-PHE-90
     RDKit          3D

 26 25  0  0  0  0  0  0  0  0999 V2000
   -0.8486   -3.4641   -3.5834 C   0  0  0  0  0  0  0  0  0  0  0  0
   -0.5795   -4.4070   -3.7229 H   0  0  0  0  0  0  0  0  0  0  0  0
   -0.2086   -2.9943   -2.9923 H   0  0  0  0  0  0  0  0  0  0  0  0
   -0.8734   -2.9588   -4.5489 H   0  0  0  0  0  0  0  0  0  0  0  0
   -2.2197   -3.4359   -2.9402 C   0  0  0  0  0  0  0  0  0  0  0  0
   -2.8343   -4.0338   -3.4500 H   0  0  0  0  0  0  0  0  0  0  0  0
   -2.1471   -3.7515   -1.9960 H   0  0  0  0  0  0  0  0  0  0  0  0
   -2.7727   -2.0470   -2.9484 N   0  0  0  0  0  4  0  0  0  0  0  0
   -2.7457   -1.6773   -2.0208 H   0  0  0  0  0  0  0  0  0  0  0  0
   -2.2210   -1.4774   -3.5555 H   0  0  0  0  0  0  0  0  0  0  0  0
   -3.7164   -2.0709   -3.2744 H   0  0  0  0  0  0  0  0  0  0  0  0
    0.0167    2.9275    0.0740 C   0  0  0  0  0  0  0  0  0  0  0  0
    0.8324    3.2437   -0.3897 H   0  0  0  0  0  0  0  0  0  0  0  0
    0.0280    3.1850    1.0304 H   0  0  0  0  0  0  0  0  0  0  0  0
   -0.8394    3.4165   -0.3909 H   0  0  0  0  0  0  0  0  0  0  0  0
   -0.0005    1.4144    0.0015 C   0  0  0  0  0  0  0  0  0  0  0  0
   -1.1996    0.7010   -0.0007 C   0  0  0  0  0  0  0  0  0  0  0  0
   -2.0670    1.1855   -0.0036 H   0  0  0  0  0  0  0  0  0  0  0  0
   -1.2050   -0.7048   -0.0000 C   0  0  0  0  0  0  0  0  0  0  0  0
   -2.0812   -1.1933    0.0009 H   0  0  0  0  0  0  0  0  0  0  0  0
    0.0027   -1.4079    0.0008 C   0  0  0  0  0  0  0  0  0  0  0  0
   -0.0020   -2.4012    0.0013 H   0  0  0  0  0  0  0  0  0  0  0  0
    1.2050   -0.7039    0.0000 C   0  0  0  0  0  0  0  0  0  0  0  0
    2.0881   -1.1933    0.0017 H   0  0  0  0  0  0  0  0  0  0  0  0
    1.1974    0.7012   -0.0016 C   0  0  0  0  0  0  0  0  0  0  0  0
    2.0667    1.1924   -0.0061 H   0  0  0  0  0  0  0  0  0  0  0  0
  1  5  1  0
  5  8  1  0
  1  2  1  0
  1  3  1  0
  1  4  1  0
  5  6  1  0
  5  7  1  0
  8  9  1  0
  8 10  1  0
  8 11  1  0
 12 16  1  0
 16 17  2  0
 17 19  1  0
 19 21  2  0
 21 23  1  0
 23 25  2  0
 25 16  1  0
 12 13  1  0
 12 14  1  0
 12 15  1  0
 17 18  1  0
 19 20  1  0
 21 22  1  0
 23 24  1  0
 25 26  1  0
M  CHG  1   8   1
M  END
>  <PDB_ID>  (433) 
pdb2g5c

>  <RESIDUE_NAME>  (433) 
LYS   PHE

>  <FRAG_NAME>  (433) 
ETAM   MBZ

>  <FRAG_ATOM_NUM>  (433) 
fragi: 11  fragj: 15

>  <atom.prop.CHAIN_ID>  (433) 
A A A A A A A A A A A Z Z Z Z Z Z Z Z Z Z Z Z Z Z Z

>  <atom.prop.IS_HEAVY_ATOM>  (433) 
1 0 0 0 1 0 0 1 0 0 0 1 0 0 0 1 1 0 1 0 1 0 1 0 1 0

>  <DIFUSE_FUNC_ATOM>  (433) 
n/a

>  <FINAL_SINGLE_POINT_ENERGY>  (433) 
0

>  <NONCOV_INTER_ENERGY_QM>  (433) 
0

>  <FF_Energy>  (433) 
-2.19

>  <QM_Energy>  (433) 
-7.94

>  <source>  (433) 
ETAM_MBZ

>  <Index>  (433) 
4081

$$$$
ETAM-pdb2gb3-E-LYS-57:MBZ-pdb2gb3-F-PHE-50
     RDKit          3D

 26 25  0  0  0  0  0  0  0  0999 V2000
   -0.7065    0.9906    4.1510 C   0  0  0  0  0  0  0  0  0  0  0  0
   -1.3060    1.7903    4.1330 H   0  0  0  0  0  0  0  0  0  0  0  0
   -0.3674    0.8471    5.0798 H   0  0  0  0  0  0  0  0  0  0  0  0
   -1.2920    0.1182    3.8607 H   0  0  0  0  0  0  0  0  0  0  0  0
    0.4613    1.2310    3.2336 C   0  0  0  0  0  0  0  0  0  0  0  0
    1.0643    0.4321    3.2492 H   0  0  0  0  0  0  0  0  0  0  0  0
    0.1272    1.3761    2.3020 H   0  0  0  0  0  0  0  0  0  0  0  0
    1.2289    2.4270    3.6668 N   0  0  0  0  0  4  0  0  0  0  0  0
    1.2212    2.4835    4.6647 H   0  0  0  0  0  0  0  0  0  0  0  0
    2.1715    2.3530    3.3426 H   0  0  0  0  0  0  0  0  0  0  0  0
    0.8080    3.2488    3.2823 H   0  0  0  0  0  0  0  0  0  0  0  0
   -0.0019    2.8976   -0.0141 C   0  0  0  0  0  0  0  0  0  0  0  0
    0.8741    3.2080    0.3210 H   0  0  0  0  0  0  0  0  0  0  0  0
   -0.7408    3.2090    0.5625 H   0  0  0  0  0  0  0  0  0  0  0  0
   -0.1502    3.3218   -1.0071 H   0  0  0  0  0  0  0  0  0  0  0  0
   -0.0011    1.3997   -0.0013 C   0  0  0  0  0  0  0  0  0  0  0  0
   -1.1941    0.6969    0.0031 C   0  0  0  0  0  0  0  0  0  0  0  0
   -2.0620    1.1854    0.0076 H   0  0  0  0  0  0  0  0  0  0  0  0
   -1.1985   -0.6933    0.0000 C   0  0  0  0  0  0  0  0  0  0  0  0
   -2.0774   -1.1858   -0.0011 H   0  0  0  0  0  0  0  0  0  0  0  0
   -0.0012   -1.3908    0.0007 C   0  0  0  0  0  0  0  0  0  0  0  0
   -0.0092   -2.3912    0.0015 H   0  0  0  0  0  0  0  0  0  0  0  0
    1.1985   -0.7019   -0.0000 C   0  0  0  0  0  0  0  0  0  0  0  0
    2.0793   -1.1997    0.0027 H   0  0  0  0  0  0  0  0  0  0  0  0
    1.1964    0.6894   -0.0025 C   0  0  0  0  0  0  0  0  0  0  0  0
    2.0639    1.1849   -0.0065 H   0  0  0  0  0  0  0  0  0  0  0  0
  1  5  1  0
  5  8  1  0
  1  2  1  0
  1  3  1  0
  1  4  1  0
  5  6  1  0
  5  7  1  0
  8  9  1  0
  8 10  1  0
  8 11  1  0
 12 16  1  0
 16 17  2  0
 17 19  1  0
 19 21  2  0
 21 23  1  0
 23 25  2  0
 25 16  1  0
 12 13  1  0
 12 14  1  0
 12 15  1  0
 17 18  1  0
 19 20  1  0
 21 22  1  0
 23 24  1  0
 25 26  1  0
M  CHG  1   8   1
M  END
>  <PDB_ID>  (434) 
pdb2gb3

>  <RESIDUE_NAME>  (434) 
LYS   PHE

>  <FRAG_NAME>  (434) 
ETAM   MBZ

>  <FRAG_ATOM_NUM>  (434) 
fragi: 11  fragj: 15

>  <atom.prop.CHAIN_ID>  (434) 
A A A A A A A A A A A Z Z Z Z Z Z Z Z Z Z Z Z Z Z Z

>  <atom.prop.IS_HEAVY_ATOM>  (434) 
1 0 0 0 1 0 0 1 0 0 0 1 0 0 0 1 1 0 1 0 1 0 1 0 1 0

>  <DIFUSE_FUNC_ATOM>  (434) 
n/a

>  <FINAL_SINGLE_POINT_ENERGY>  (434) 
0

>  <NONCOV_INTER_ENERGY_QM>  (434) 
0

>  <FF_Energy>  (434) 
-1.4

>  <QM_Energy>  (434) 
-7.27

>  <source>  (434) 
ETAM_MBZ

>  <Index>  (434) 
4086

$$$$
ETAM-pdb1fdy-A-LYS-256:MBZ-pdb1fdy-A-PHE-16
     RDKit          3D

 26 25  0  0  0  0  0  0  0  0999 V2000
    5.7057    1.1224   -3.4347 C   0  0  0  0  0  0  0  0  0  0  0  0
    6.4221    0.5822   -3.0112 H   0  0  0  0  0  0  0  0  0  0  0  0
    5.5395    1.9525   -2.9170 H   0  0  0  0  0  0  0  0  0  0  0  0
    6.0386    1.4044   -4.4336 H   0  0  0  0  0  0  0  0  0  0  0  0
    4.4417    0.3130   -3.4990 C   0  0  0  0  0  0  0  0  0  0  0  0
    3.8779    0.6245   -4.2772 H   0  0  0  0  0  0  0  0  0  0  0  0
    4.6682   -0.6596   -3.6530 H   0  0  0  0  0  0  0  0  0  0  0  0
    3.5980    0.4042   -2.2434 N   0  0  0  0  0  4  0  0  0  0  0  0
    4.0882    0.9490   -1.5698 H   0  0  0  0  0  0  0  0  0  0  0  0
    2.7319    0.8371   -2.4725 H   0  0  0  0  0  0  0  0  0  0  0  0
    3.4429   -0.5157   -1.8968 H   0  0  0  0  0  0  0  0  0  0  0  0
   -0.0005    2.9027    0.0241 C   0  0  0  0  0  0  0  0  0  0  0  0
    0.9346    3.2079    0.1415 H   0  0  0  0  0  0  0  0  0  0  0  0
   -0.5667    3.1941    0.7838 H   0  0  0  0  0  0  0  0  0  0  0  0
   -0.3909    3.3746   -0.8776 H   0  0  0  0  0  0  0  0  0  0  0  0
    0.0041    1.3892    0.0011 C   0  0  0  0  0  0  0  0  0  0  0  0
   -1.1760    0.6734   -0.0001 C   0  0  0  0  0  0  0  0  0  0  0  0
   -2.0514    1.1683   -0.0020 H   0  0  0  0  0  0  0  0  0  0  0  0
   -1.1839   -0.6988   -0.0000 C   0  0  0  0  0  0  0  0  0  0  0  0
   -2.0744   -1.1867    0.0036 H   0  0  0  0  0  0  0  0  0  0  0  0
   -0.0179   -1.3755   -0.0027 C   0  0  0  0  0  0  0  0  0  0  0  0
   -0.0025   -2.3809   -0.0068 H   0  0  0  0  0  0  0  0  0  0  0  0
    1.1839   -0.6790    0.0000 C   0  0  0  0  0  0  0  0  0  0  0  0
    2.0629   -1.1920    0.0020 H   0  0  0  0  0  0  0  0  0  0  0  0
    1.1898    0.6906    0.0018 C   0  0  0  0  0  0  0  0  0  0  0  0
    2.0598    1.1887    0.0030 H   0  0  0  0  0  0  0  0  0  0  0  0
  1  5  1  0
  5  8  1  0
  1  2  1  0
  1  3  1  0
  1  4  1  0
  5  6  1  0
  5  7  1  0
  8  9  1  0
  8 10  1  0
  8 11  1  0
 12 16  1  0
 16 17  2  0
 17 19  1  0
 19 21  2  0
 21 23  1  0
 23 25  2  0
 25 16  1  0
 12 13  1  0
 12 14  1  0
 12 15  1  0
 17 18  1  0
 19 20  1  0
 21 22  1  0
 23 24  1  0
 25 26  1  0
M  CHG  1   8   1
M  END
>  <PDB_ID>  (435) 
pdb1fdy

>  <RESIDUE_NAME>  (435) 
LYS   PHE

>  <FRAG_NAME>  (435) 
ETAM   MBZ

>  <FRAG_ATOM_NUM>  (435) 
fragi: 11  fragj: 15

>  <atom.prop.CHAIN_ID>  (435) 
A A A A A A A A A A A Z Z Z Z Z Z Z Z Z Z Z Z Z Z Z

>  <atom.prop.IS_HEAVY_ATOM>  (435) 
1 0 0 0 1 0 0 1 0 0 0 1 0 0 0 1 1 0 1 0 1 0 1 0 1 0

>  <DIFUSE_FUNC_ATOM>  (435) 
n/a

>  <FINAL_SINGLE_POINT_ENERGY>  (435) 
0

>  <NONCOV_INTER_ENERGY_QM>  (435) 
0

>  <FF_Energy>  (435) 
-1.15

>  <QM_Energy>  (435) 
-6.66

>  <source>  (435) 
ETAM_MBZ

>  <Index>  (435) 
4103

$$$$
ETAM-pdb2gai-A-LYS-264:MBZ-pdb2gai-A-PHE-260
     RDKit          3D

 26 25  0  0  0  0  0  0  0  0999 V2000
   -1.0891    1.2972    4.0051 C   0  0  0  0  0  0  0  0  0  0  0  0
   -1.7118    1.5443    4.7228 H   0  0  0  0  0  0  0  0  0  0  0  0
   -1.2911    1.7493    3.1580 H   0  0  0  0  0  0  0  0  0  0  0  0
   -0.0654    1.5153    4.3096 H   0  0  0  0  0  0  0  0  0  0  0  0
   -1.2010   -0.2159    3.7767 C   0  0  0  0  0  0  0  0  0  0  0  0
   -0.6584   -0.4709    2.9973 H   0  0  0  0  0  0  0  0  0  0  0  0
   -0.9286   -0.6921    4.5919 H   0  0  0  0  0  0  0  0  0  0  0  0
   -2.6641   -0.5485    3.4836 N   0  0  0  0  0  4  0  0  0  0  0  0
   -3.1861   -0.4170    4.3176 H   0  0  0  0  0  0  0  0  0  0  0  0
   -2.9849    0.0623    2.7696 H   0  0  0  0  0  0  0  0  0  0  0  0
   -2.7146   -1.4942    3.1838 H   0  0  0  0  0  0  0  0  0  0  0  0
    0.0296    2.9259    0.0364 C   0  0  0  0  0  0  0  0  0  0  0  0
    0.5371    3.2395   -0.7590 H   0  0  0  0  0  0  0  0  0  0  0  0
    0.4993    3.1867    0.8729 H   0  0  0  0  0  0  0  0  0  0  0  0
   -0.9363    3.4310    0.0305 H   0  0  0  0  0  0  0  0  0  0  0  0
   -0.0238    1.4173   -0.0136 C   0  0  0  0  0  0  0  0  0  0  0  0
   -1.2253    0.6851    0.0098 C   0  0  0  0  0  0  0  0  0  0  0  0
   -2.0957    1.1544    0.0325 H   0  0  0  0  0  0  0  0  0  0  0  0
   -1.2223   -0.7470   -0.0000 C   0  0  0  0  0  0  0  0  0  0  0  0
   -2.0609   -1.2465   -0.0007 H   0  0  0  0  0  0  0  0  0  0  0  0
    0.0442   -1.4091   -0.0068 C   0  0  0  0  0  0  0  0  0  0  0  0
    0.0564   -2.4075   -0.0173 H   0  0  0  0  0  0  0  0  0  0  0  0
    1.2223   -0.6801   -0.0000 C   0  0  0  0  0  0  0  0  0  0  0  0
    2.1222   -1.1525   -0.0012 H   0  0  0  0  0  0  0  0  0  0  0  0
    1.2049    0.7339    0.0105 C   0  0  0  0  0  0  0  0  0  0  0  0
    2.0538    1.2350    0.0341 H   0  0  0  0  0  0  0  0  0  0  0  0
  1  5  1  0
  5  8  1  0
  1  2  1  0
  1  3  1  0
  1  4  1  0
  5  6  1  0
  5  7  1  0
  8  9  1  0
  8 10  1  0
  8 11  1  0
 12 16  1  0
 16 17  2  0
 17 19  1  0
 19 21  2  0
 21 23  1  0
 23 25  2  0
 25 16  1  0
 12 13  1  0
 12 14  1  0
 12 15  1  0
 17 18  1  0
 19 20  1  0
 21 22  1  0
 23 24  1  0
 25 26  1  0
M  CHG  1   8   1
M  END
>  <PDB_ID>  (436) 
pdb2gai

>  <RESIDUE_NAME>  (436) 
LYS   PHE

>  <FRAG_NAME>  (436) 
ETAM   MBZ

>  <FRAG_ATOM_NUM>  (436) 
fragi: 11  fragj: 15

>  <atom.prop.CHAIN_ID>  (436) 
A A A A A A A A A A A Z Z Z Z Z Z Z Z Z Z Z Z Z Z Z

>  <atom.prop.IS_HEAVY_ATOM>  (436) 
1 0 0 0 1 0 0 1 0 0 0 1 0 0 0 1 1 0 1 0 1 0 1 0 1 0

>  <DIFUSE_FUNC_ATOM>  (436) 
n/a

>  <FINAL_SINGLE_POINT_ENERGY>  (436) 
0

>  <NONCOV_INTER_ENERGY_QM>  (436) 
0

>  <FF_Energy>  (436) 
-4.72

>  <QM_Energy>  (436) 
-9.86

>  <source>  (436) 
ETAM_MBZ

>  <Index>  (436) 
4105

$$$$
ETAM-pdb1fea-A-LYS-60:MBZ-pdb1fea-A-PHE-366
     RDKit          3D

 26 25  0  0  0  0  0  0  0  0999 V2000
   -1.1475   -0.6111    3.6514 C   0  0  0  0  0  0  0  0  0  0  0  0
   -0.9813    0.1917    3.0776 H   0  0  0  0  0  0  0  0  0  0  0  0
   -0.3571   -1.2230    3.6053 H   0  0  0  0  0  0  0  0  0  0  0  0
   -1.3122   -0.2988    4.6826 H   0  0  0  0  0  0  0  0  0  0  0  0
   -2.3588   -1.3744    3.0379 C   0  0  0  0  0  0  0  0  0  0  0  0
   -3.1913   -0.8248    3.2363 H   0  0  0  0  0  0  0  0  0  0  0  0
   -2.2371   -1.3691    2.0283 H   0  0  0  0  0  0  0  0  0  0  0  0
   -2.5322   -2.7419    3.5166 N   0  0  0  0  0  4  0  0  0  0  0  0
   -3.2206   -3.2180    2.9614 H   0  0  0  0  0  0  0  0  0  0  0  0
   -1.6640   -3.2427    3.4547 H   0  0  0  0  0  0  0  0  0  0  0  0
   -2.8353   -2.7378    4.4743 H   0  0  0  0  0  0  0  0  0  0  0  0
   -0.0016    2.8801   -0.0393 C   0  0  0  0  0  0  0  0  0  0  0  0
    0.8693    3.2035    0.2973 H   0  0  0  0  0  0  0  0  0  0  0  0
   -0.7495    3.2109    0.5151 H   0  0  0  0  0  0  0  0  0  0  0  0
   -0.1361    3.2711   -1.0478 H   0  0  0  0  0  0  0  0  0  0  0  0
   -0.0028    1.4060   -0.0005 C   0  0  0  0  0  0  0  0  0  0  0  0
   -1.1739    0.7005   -0.0023 C   0  0  0  0  0  0  0  0  0  0  0  0
   -2.0560    1.1705   -0.0060 H   0  0  0  0  0  0  0  0  0  0  0  0
   -1.1787   -0.7127   -0.0000 C   0  0  0  0  0  0  0  0  0  0  0  0
   -2.0692   -1.1853    0.0013 H   0  0  0  0  0  0  0  0  0  0  0  0
   -0.0037   -1.3934    0.0023 C   0  0  0  0  0  0  0  0  0  0  0  0
    0.0030   -2.3975    0.0054 H   0  0  0  0  0  0  0  0  0  0  0  0
    1.1787   -0.6970    0.0000 C   0  0  0  0  0  0  0  0  0  0  0  0
    2.0706   -1.1895   -0.0013 H   0  0  0  0  0  0  0  0  0  0  0  0
    1.1804    0.6966    0.0005 C   0  0  0  0  0  0  0  0  0  0  0  0
    2.0562    1.1842    0.0008 H   0  0  0  0  0  0  0  0  0  0  0  0
  1  5  1  0
  5  8  1  0
  1  2  1  0
  1  3  1  0
  1  4  1  0
  5  6  1  0
  5  7  1  0
  8  9  1  0
  8 10  1  0
  8 11  1  0
 12 16  1  0
 16 17  2  0
 17 19  1  0
 19 21  2  0
 21 23  1  0
 23 25  2  0
 25 16  1  0
 12 13  1  0
 12 14  1  0
 12 15  1  0
 17 18  1  0
 19 20  1  0
 21 22  1  0
 23 24  1  0
 25 26  1  0
M  CHG  1   8   1
M  END
>  <PDB_ID>  (437) 
pdb1fea

>  <RESIDUE_NAME>  (437) 
LYS   PHE

>  <FRAG_NAME>  (437) 
ETAM   MBZ

>  <FRAG_ATOM_NUM>  (437) 
fragi: 11  fragj: 15

>  <atom.prop.CHAIN_ID>  (437) 
A A A A A A A A A A A Z Z Z Z Z Z Z Z Z Z Z Z Z Z Z

>  <atom.prop.IS_HEAVY_ATOM>  (437) 
1 0 0 0 1 0 0 1 0 0 0 1 0 0 0 1 1 0 1 0 1 0 1 0 1 0

>  <DIFUSE_FUNC_ATOM>  (437) 
n/a

>  <FINAL_SINGLE_POINT_ENERGY>  (437) 
0

>  <NONCOV_INTER_ENERGY_QM>  (437) 
0

>  <FF_Energy>  (437) 
-0.18

>  <QM_Energy>  (437) 
-6.05

>  <source>  (437) 
ETAM_MBZ

>  <Index>  (437) 
4106

$$$$
ETAM-pdb1fea-B-LYS-60:MBZ-pdb1fea-B-PHE-366
     RDKit          3D

 26 25  0  0  0  0  0  0  0  0999 V2000
   -1.9401   -0.2482    3.3910 C   0  0  0  0  0  0  0  0  0  0  0  0
   -2.1697    0.7157    3.3904 H   0  0  0  0  0  0  0  0  0  0  0  0
   -1.1068   -0.4155    2.8818 H   0  0  0  0  0  0  0  0  0  0  0  0
   -1.7841   -0.5644    4.4224 H   0  0  0  0  0  0  0  0  0  0  0  0
   -3.0815   -1.0270    2.7371 C   0  0  0  0  0  0  0  0  0  0  0  0
   -3.9447   -0.6357    3.0151 H   0  0  0  0  0  0  0  0  0  0  0  0
   -2.9745   -1.0008    1.7547 H   0  0  0  0  0  0  0  0  0  0  0  0
   -3.0229   -2.4656    3.1994 N   0  0  0  0  0  4  0  0  0  0  0  0
   -3.3009   -3.0548    2.4465 H   0  0  0  0  0  0  0  0  0  0  0  0
   -2.0888   -2.6752    3.4736 H   0  0  0  0  0  0  0  0  0  0  0  0
   -3.6423   -2.5791    3.9709 H   0  0  0  0  0  0  0  0  0  0  0  0
   -0.0010    2.8408   -0.0285 C   0  0  0  0  0  0  0  0  0  0  0  0
    0.8228    3.1728    0.4187 H   0  0  0  0  0  0  0  0  0  0  0  0
   -0.8102    3.1603    0.4538 H   0  0  0  0  0  0  0  0  0  0  0  0
   -0.0263    3.2450   -1.0406 H   0  0  0  0  0  0  0  0  0  0  0  0
    0.0108    1.3851    0.0003 C   0  0  0  0  0  0  0  0  0  0  0  0
   -1.1849    0.6784    0.0013 C   0  0  0  0  0  0  0  0  0  0  0  0
   -2.0522    1.1751    0.0022 H   0  0  0  0  0  0  0  0  0  0  0  0
   -1.1989   -0.7065    0.0000 C   0  0  0  0  0  0  0  0  0  0  0  0
   -2.0887   -1.1851    0.0013 H   0  0  0  0  0  0  0  0  0  0  0  0
   -0.0336   -1.3720   -0.0007 C   0  0  0  0  0  0  0  0  0  0  0  0
   -0.0041   -2.3808   -0.0024 H   0  0  0  0  0  0  0  0  0  0  0  0
    1.1989   -0.6736    0.0000 C   0  0  0  0  0  0  0  0  0  0  0  0
    2.0610   -1.2032    0.0029 H   0  0  0  0  0  0  0  0  0  0  0  0
    1.2078    0.6885   -0.0009 C   0  0  0  0  0  0  0  0  0  0  0  0
    2.0699    1.1927   -0.0030 H   0  0  0  0  0  0  0  0  0  0  0  0
  1  5  1  0
  5  8  1  0
  1  2  1  0
  1  3  1  0
  1  4  1  0
  5  6  1  0
  5  7  1  0
  8  9  1  0
  8 10  1  0
  8 11  1  0
 12 16  1  0
 16 17  2  0
 17 19  1  0
 19 21  2  0
 21 23  1  0
 23 25  2  0
 25 16  1  0
 12 13  1  0
 12 14  1  0
 12 15  1  0
 17 18  1  0
 19 20  1  0
 21 22  1  0
 23 24  1  0
 25 26  1  0
M  CHG  1   8   1
M  END
>  <PDB_ID>  (438) 
pdb1fea

>  <RESIDUE_NAME>  (438) 
LYS   PHE

>  <FRAG_NAME>  (438) 
ETAM   MBZ

>  <FRAG_ATOM_NUM>  (438) 
fragi: 11  fragj: 15

>  <atom.prop.CHAIN_ID>  (438) 
A A A A A A A A A A A Z Z Z Z Z Z Z Z Z Z Z Z Z Z Z

>  <atom.prop.IS_HEAVY_ATOM>  (438) 
1 0 0 0 1 0 0 1 0 0 0 1 0 0 0 1 1 0 1 0 1 0 1 0 1 0

>  <DIFUSE_FUNC_ATOM>  (438) 
n/a

>  <FINAL_SINGLE_POINT_ENERGY>  (438) 
0

>  <NONCOV_INTER_ENERGY_QM>  (438) 
0

>  <FF_Energy>  (438) 
-0.26

>  <QM_Energy>  (438) 
-5.71

>  <source>  (438) 
ETAM_MBZ

>  <Index>  (438) 
4108

$$$$
ETAM-pdb2geq-B-LYS-289:MBZ-pdb2geq-B-PHE-286
     RDKit          3D

 26 25  0  0  0  0  0  0  0  0999 V2000
    1.7440   -1.6414    4.1963 C   0  0  0  0  0  0  0  0  0  0  0  0
    1.6590   -0.9417    3.4842 H   0  0  0  0  0  0  0  0  0  0  0  0
    2.5971   -2.1481    4.0594 H   0  0  0  0  0  0  0  0  0  0  0  0
    1.7826   -1.1476    5.1673 H   0  0  0  0  0  0  0  0  0  0  0  0
    0.5745   -2.6222    4.0475 C   0  0  0  0  0  0  0  0  0  0  0  0
    0.7638   -3.2301    3.2630 H   0  0  0  0  0  0  0  0  0  0  0  0
    0.5284   -3.1961    4.8787 H   0  0  0  0  0  0  0  0  0  0  0  0
   -0.7513   -1.9604    3.8405 N   0  0  0  0  0  4  0  0  0  0  0  0
   -1.4777   -2.6325    3.9735 H   0  0  0  0  0  0  0  0  0  0  0  0
   -0.8532   -1.2183    4.5002 H   0  0  0  0  0  0  0  0  0  0  0  0
   -0.7944   -1.5968    2.9121 H   0  0  0  0  0  0  0  0  0  0  0  0
    0.0105    2.9011   -0.0234 C   0  0  0  0  0  0  0  0  0  0  0  0
   -0.8518    3.2098   -0.3986 H   0  0  0  0  0  0  0  0  0  0  0  0
    0.7707    3.1956   -0.5853 H   0  0  0  0  0  0  0  0  0  0  0  0
    0.1275    3.3606    0.9581 H   0  0  0  0  0  0  0  0  0  0  0  0
   -0.0001    1.4032    0.0018 C   0  0  0  0  0  0  0  0  0  0  0  0
   -1.2061    0.6969    0.0016 C   0  0  0  0  0  0  0  0  0  0  0  0
   -2.0679    1.1903    0.0014 H   0  0  0  0  0  0  0  0  0  0  0  0
   -1.2172   -0.7003   -0.0000 C   0  0  0  0  0  0  0  0  0  0  0  0
   -2.0842   -1.1950    0.0024 H   0  0  0  0  0  0  0  0  0  0  0  0
    0.0038   -1.4010   -0.0037 C   0  0  0  0  0  0  0  0  0  0  0  0
    0.0013   -2.3949   -0.0100 H   0  0  0  0  0  0  0  0  0  0  0  0
    1.2172   -0.6947   -0.0000 C   0  0  0  0  0  0  0  0  0  0  0  0
    2.0926   -1.1926    0.0034 H   0  0  0  0  0  0  0  0  0  0  0  0
    1.2025    0.6959    0.0003 C   0  0  0  0  0  0  0  0  0  0  0  0
    2.0681    1.1987   -0.0013 H   0  0  0  0  0  0  0  0  0  0  0  0
  1  5  1  0
  5  8  1  0
  1  2  1  0
  1  3  1  0
  1  4  1  0
  5  6  1  0
  5  7  1  0
  8  9  1  0
  8 10  1  0
  8 11  1  0
 12 16  1  0
 16 17  2  0
 17 19  1  0
 19 21  2  0
 21 23  1  0
 23 25  2  0
 25 16  1  0
 12 13  1  0
 12 14  1  0
 12 15  1  0
 17 18  1  0
 19 20  1  0
 21 22  1  0
 23 24  1  0
 25 26  1  0
M  CHG  1   8   1
M  END
>  <PDB_ID>  (439) 
pdb2geq

>  <RESIDUE_NAME>  (439) 
LYS   PHE

>  <FRAG_NAME>  (439) 
ETAM   MBZ

>  <FRAG_ATOM_NUM>  (439) 
fragi: 11  fragj: 15

>  <atom.prop.CHAIN_ID>  (439) 
A A A A A A A A A A A Z Z Z Z Z Z Z Z Z Z Z Z Z Z Z

>  <atom.prop.IS_HEAVY_ATOM>  (439) 
1 0 0 0 1 0 0 1 0 0 0 1 0 0 0 1 1 0 1 0 1 0 1 0 1 0

>  <DIFUSE_FUNC_ATOM>  (439) 
n/a

>  <FINAL_SINGLE_POINT_ENERGY>  (439) 
0

>  <NONCOV_INTER_ENERGY_QM>  (439) 
0

>  <FF_Energy>  (439) 
-4.47

>  <QM_Energy>  (439) 
-9.98

>  <source>  (439) 
ETAM_MBZ

>  <Index>  (439) 
4140

$$$$
ETAM-pdb1ffy-A-LYS-81:MBZ-pdb1ffy-A-PHE-50
     RDKit          3D

 26 25  0  0  0  0  0  0  0  0999 V2000
   -0.6615    1.0470   -4.6173 C   0  0  0  0  0  0  0  0  0  0  0  0
   -0.7272    1.9761   -4.9840 H   0  0  0  0  0  0  0  0  0  0  0  0
   -0.5813    0.3971   -5.3745 H   0  0  0  0  0  0  0  0  0  0  0  0
    0.2373    0.9790   -4.0045 H   0  0  0  0  0  0  0  0  0  0  0  0
   -1.9346    0.7382   -3.8470 C   0  0  0  0  0  0  0  0  0  0  0  0
   -1.9607    1.3116   -3.0203 H   0  0  0  0  0  0  0  0  0  0  0  0
   -2.7268    0.9723   -4.4218 H   0  0  0  0  0  0  0  0  0  0  0  0
   -2.0229   -0.6899   -3.4537 N   0  0  0  0  0  4  0  0  0  0  0  0
   -1.1893   -1.1652   -3.7347 H   0  0  0  0  0  0  0  0  0  0  0  0
   -2.1264   -0.7572   -2.4610 H   0  0  0  0  0  0  0  0  0  0  0  0
   -2.8132   -1.1108   -3.9000 H   0  0  0  0  0  0  0  0  0  0  0  0
   -0.0029    2.9035    0.0648 C   0  0  0  0  0  0  0  0  0  0  0  0
   -0.7207    3.2333   -0.5239 H   0  0  0  0  0  0  0  0  0  0  0  0
    0.8837    3.2263   -0.2202 H   0  0  0  0  0  0  0  0  0  0  0  0
   -0.1908    3.2860    1.0680 H   0  0  0  0  0  0  0  0  0  0  0  0
    0.0019    1.4044    0.0005 C   0  0  0  0  0  0  0  0  0  0  0  0
   -1.2016    0.6916   -0.0010 C   0  0  0  0  0  0  0  0  0  0  0  0
   -2.0657    1.1835   -0.0041 H   0  0  0  0  0  0  0  0  0  0  0  0
   -1.2077   -0.7016    0.0000 C   0  0  0  0  0  0  0  0  0  0  0  0
   -2.0819   -1.1955    0.0007 H   0  0  0  0  0  0  0  0  0  0  0  0
   -0.0006   -1.3980    0.0020 C   0  0  0  0  0  0  0  0  0  0  0  0
   -0.0015   -2.3946    0.0047 H   0  0  0  0  0  0  0  0  0  0  0  0
    1.2077   -0.6959   -0.0000 C   0  0  0  0  0  0  0  0  0  0  0  0
    2.0865   -1.1924    0.0011 H   0  0  0  0  0  0  0  0  0  0  0  0
    1.2003    0.6996   -0.0015 C   0  0  0  0  0  0  0  0  0  0  0  0
    2.0670    1.1959   -0.0047 H   0  0  0  0  0  0  0  0  0  0  0  0
  1  5  1  0
  5  8  1  0
  1  2  1  0
  1  3  1  0
  1  4  1  0
  5  6  1  0
  5  7  1  0
  8  9  1  0
  8 10  1  0
  8 11  1  0
 12 16  1  0
 16 17  2  0
 17 19  1  0
 19 21  2  0
 21 23  1  0
 23 25  2  0
 25 16  1  0
 12 13  1  0
 12 14  1  0
 12 15  1  0
 17 18  1  0
 19 20  1  0
 21 22  1  0
 23 24  1  0
 25 26  1  0
M  CHG  1   8   1
M  END
>  <PDB_ID>  (440) 
pdb1ffy

>  <RESIDUE_NAME>  (440) 
LYS   PHE

>  <FRAG_NAME>  (440) 
ETAM   MBZ

>  <FRAG_ATOM_NUM>  (440) 
fragi: 11  fragj: 15

>  <atom.prop.CHAIN_ID>  (440) 
A A A A A A A A A A A Z Z Z Z Z Z Z Z Z Z Z Z Z Z Z

>  <atom.prop.IS_HEAVY_ATOM>  (440) 
1 0 0 0 1 0 0 1 0 0 0 1 0 0 0 1 1 0 1 0 1 0 1 0 1 0

>  <DIFUSE_FUNC_ATOM>  (440) 
n/a

>  <FINAL_SINGLE_POINT_ENERGY>  (440) 
0

>  <NONCOV_INTER_ENERGY_QM>  (440) 
0

>  <FF_Energy>  (440) 
-5.23

>  <QM_Energy>  (440) 
-11.29

>  <source>  (440) 
ETAM_MBZ

>  <Index>  (440) 
4141

$$$$
ETAM-pdb1fgu-A-LYS-206:MBZ-pdb1fgu-A-PHE-246
     RDKit          3D

 26 25  0  0  0  0  0  0  0  0999 V2000
   -2.3552   -1.7003    4.1522 C   0  0  0  0  0  0  0  0  0  0  0  0
   -2.4383   -1.3903    5.0951 H   0  0  0  0  0  0  0  0  0  0  0  0
   -1.7637   -2.5004    4.1056 H   0  0  0  0  0  0  0  0  0  0  0  0
   -3.3472   -2.0018    3.8161 H   0  0  0  0  0  0  0  0  0  0  0  0
   -1.7677   -0.5919    3.3084 C   0  0  0  0  0  0  0  0  0  0  0  0
   -2.2003   -0.6044    2.4094 H   0  0  0  0  0  0  0  0  0  0  0  0
   -1.9435    0.2837    3.7548 H   0  0  0  0  0  0  0  0  0  0  0  0
   -0.3189   -0.7906    3.1630 N   0  0  0  0  0  4  0  0  0  0  0  0
    0.0333   -0.2043    2.4299 H   0  0  0  0  0  0  0  0  0  0  0  0
    0.1455   -0.5572    4.0212 H   0  0  0  0  0  0  0  0  0  0  0  0
   -0.1271   -1.7483    2.9365 H   0  0  0  0  0  0  0  0  0  0  0  0
   -0.0186    2.8529    0.1373 C   0  0  0  0  0  0  0  0  0  0  0  0
   -0.6941    3.2212   -0.4817 H   0  0  0  0  0  0  0  0  0  0  0  0
    0.8840    3.2023   -0.0602 H   0  0  0  0  0  0  0  0  0  0  0  0
   -0.2851    3.1636    1.1475 H   0  0  0  0  0  0  0  0  0  0  0  0
    0.0009    1.3956    0.0013 C   0  0  0  0  0  0  0  0  0  0  0  0
   -1.1972    0.6793   -0.0016 C   0  0  0  0  0  0  0  0  0  0  0  0
   -2.0633    1.1719   -0.0058 H   0  0  0  0  0  0  0  0  0  0  0  0
   -1.1954   -0.7026   -0.0000 C   0  0  0  0  0  0  0  0  0  0  0  0
   -2.0683   -1.2045   -0.0000 H   0  0  0  0  0  0  0  0  0  0  0  0
    0.0093   -1.3903    0.0038 C   0  0  0  0  0  0  0  0  0  0  0  0
    0.0094   -2.3902    0.0085 H   0  0  0  0  0  0  0  0  0  0  0  0
    1.1954   -0.6884   -0.0000 C   0  0  0  0  0  0  0  0  0  0  0  0
    2.0857   -1.1770    0.0017 H   0  0  0  0  0  0  0  0  0  0  0  0
    1.1870    0.7064   -0.0035 C   0  0  0  0  0  0  0  0  0  0  0  0
    2.0576    1.1985   -0.0101 H   0  0  0  0  0  0  0  0  0  0  0  0
  1  5  1  0
  5  8  1  0
  1  2  1  0
  1  3  1  0
  1  4  1  0
  5  6  1  0
  5  7  1  0
  8  9  1  0
  8 10  1  0
  8 11  1  0
 12 16  1  0
 16 17  2  0
 17 19  1  0
 19 21  2  0
 21 23  1  0
 23 25  2  0
 25 16  1  0
 12 13  1  0
 12 14  1  0
 12 15  1  0
 17 18  1  0
 19 20  1  0
 21 22  1  0
 23 24  1  0
 25 26  1  0
M  CHG  1   8   1
M  END
>  <PDB_ID>  (441) 
pdb1fgu

>  <RESIDUE_NAME>  (441) 
LYS   PHE

>  <FRAG_NAME>  (441) 
ETAM   MBZ

>  <FRAG_ATOM_NUM>  (441) 
fragi: 11  fragj: 15

>  <atom.prop.CHAIN_ID>  (441) 
A A A A A A A A A A A Z Z Z Z Z Z Z Z Z Z Z Z Z Z Z

>  <atom.prop.IS_HEAVY_ATOM>  (441) 
1 0 0 0 1 0 0 1 0 0 0 1 0 0 0 1 1 0 1 0 1 0 1 0 1 0

>  <DIFUSE_FUNC_ATOM>  (441) 
n/a

>  <FINAL_SINGLE_POINT_ENERGY>  (441) 
0

>  <NONCOV_INTER_ENERGY_QM>  (441) 
0

>  <FF_Energy>  (441) 
-7.74

>  <QM_Energy>  (441) 
-15.45

>  <source>  (441) 
ETAM_MBZ

>  <Index>  (441) 
4147

$$$$
ETAM-pdb1fgu-B-LYS-206:MBZ-pdb1fgu-B-PHE-246
     RDKit          3D

 26 25  0  0  0  0  0  0  0  0999 V2000
    4.1503   -0.8930   -3.1899 C   0  0  0  0  0  0  0  0  0  0  0  0
    4.6064   -0.0566   -3.4855 H   0  0  0  0  0  0  0  0  0  0  0  0
    3.9125   -1.4493   -3.9830 H   0  0  0  0  0  0  0  0  0  0  0  0
    4.8239   -1.4578   -2.5455 H   0  0  0  0  0  0  0  0  0  0  0  0
    2.8860   -0.5234   -2.4636 C   0  0  0  0  0  0  0  0  0  0  0  0
    2.3767   -1.3582   -2.2308 H   0  0  0  0  0  0  0  0  0  0  0  0
    3.1167   -0.0417   -1.6111 H   0  0  0  0  0  0  0  0  0  0  0  0
    1.9978    0.3631   -3.2871 N   0  0  0  0  0  4  0  0  0  0  0  0
    2.2222    1.3161   -3.0961 H   0  0  0  0  0  0  0  0  0  0  0  0
    2.1472    0.1653   -4.2535 H   0  0  0  0  0  0  0  0  0  0  0  0
    1.0467    0.1838   -3.0474 H   0  0  0  0  0  0  0  0  0  0  0  0
    0.0069    2.9219   -0.0567 C   0  0  0  0  0  0  0  0  0  0  0  0
    0.2786    3.2559    0.8301 H   0  0  0  0  0  0  0  0  0  0  0  0
   -0.9001    3.2222   -0.2993 H   0  0  0  0  0  0  0  0  0  0  0  0
    0.7012    3.3254   -0.7936 H   0  0  0  0  0  0  0  0  0  0  0  0
   -0.0030    1.4111   -0.0013 C   0  0  0  0  0  0  0  0  0  0  0  0
   -1.2002    0.7062    0.0025 C   0  0  0  0  0  0  0  0  0  0  0  0
   -2.0673    1.1897    0.0063 H   0  0  0  0  0  0  0  0  0  0  0  0
   -1.2046   -0.6982   -0.0000 C   0  0  0  0  0  0  0  0  0  0  0  0
   -2.0767   -1.1900    0.0010 H   0  0  0  0  0  0  0  0  0  0  0  0
    0.0098   -1.4032   -0.0022 C   0  0  0  0  0  0  0  0  0  0  0  0
   -0.0036   -2.3990   -0.0060 H   0  0  0  0  0  0  0  0  0  0  0  0
    1.2046   -0.7075   -0.0000 C   0  0  0  0  0  0  0  0  0  0  0  0
    2.0895   -1.1958    0.0023 H   0  0  0  0  0  0  0  0  0  0  0  0
    1.1934    0.6916    0.0010 C   0  0  0  0  0  0  0  0  0  0  0  0
    2.0653    1.1869    0.0028 H   0  0  0  0  0  0  0  0  0  0  0  0
  1  5  1  0
  5  8  1  0
  1  2  1  0
  1  3  1  0
  1  4  1  0
  5  6  1  0
  5  7  1  0
  8  9  1  0
  8 10  1  0
  8 11  1  0
 12 16  1  0
 16 17  2  0
 17 19  1  0
 19 21  2  0
 21 23  1  0
 23 25  2  0
 25 16  1  0
 12 13  1  0
 12 14  1  0
 12 15  1  0
 17 18  1  0
 19 20  1  0
 21 22  1  0
 23 24  1  0
 25 26  1  0
M  CHG  1   8   1
M  END
>  <PDB_ID>  (442) 
pdb1fgu

>  <RESIDUE_NAME>  (442) 
LYS   PHE

>  <FRAG_NAME>  (442) 
ETAM   MBZ

>  <FRAG_ATOM_NUM>  (442) 
fragi: 11  fragj: 15

>  <atom.prop.CHAIN_ID>  (442) 
A A A A A A A A A A A Z Z Z Z Z Z Z Z Z Z Z Z Z Z Z

>  <atom.prop.IS_HEAVY_ATOM>  (442) 
1 0 0 0 1 0 0 1 0 0 0 1 0 0 0 1 1 0 1 0 1 0 1 0 1 0

>  <DIFUSE_FUNC_ATOM>  (442) 
n/a

>  <FINAL_SINGLE_POINT_ENERGY>  (442) 
0

>  <NONCOV_INTER_ENERGY_QM>  (442) 
0

>  <FF_Energy>  (442) 
-1.41

>  <QM_Energy>  (442) 
-7.66

>  <source>  (442) 
ETAM_MBZ

>  <Index>  (442) 
4148

$$$$
ETAM-pdb1ffy-A-LYS-71:MBZ-pdb1ffy-A-PHE-139
     RDKit          3D

 26 25  0  0  0  0  0  0  0  0999 V2000
    1.7222   -1.1203   -3.4346 C   0  0  0  0  0  0  0  0  0  0  0  0
    1.9727   -1.5037   -4.3136 H   0  0  0  0  0  0  0  0  0  0  0  0
    1.8403   -1.7863   -2.7102 H   0  0  0  0  0  0  0  0  0  0  0  0
    2.3608   -0.2606   -3.2315 H   0  0  0  0  0  0  0  0  0  0  0  0
    0.2324   -0.7213   -3.4863 C   0  0  0  0  0  0  0  0  0  0  0  0
    0.0121   -0.2098   -2.6472 H   0  0  0  0  0  0  0  0  0  0  0  0
    0.0949   -0.1102   -4.2744 H   0  0  0  0  0  0  0  0  0  0  0  0
   -0.6923   -1.8923   -3.6052 N   0  0  0  0  0  4  0  0  0  0  0  0
   -1.3282   -1.7324   -4.3575 H   0  0  0  0  0  0  0  0  0  0  0  0
   -0.1566   -2.7150   -3.7840 H   0  0  0  0  0  0  0  0  0  0  0  0
   -1.1988   -1.9978   -2.7508 H   0  0  0  0  0  0  0  0  0  0  0  0
    0.0065    2.9124   -0.0221 C   0  0  0  0  0  0  0  0  0  0  0  0
   -0.8897    3.2252    0.2493 H   0  0  0  0  0  0  0  0  0  0  0  0
    0.2295    3.2026   -0.9394 H   0  0  0  0  0  0  0  0  0  0  0  0
    0.7357    3.3568    0.6554 H   0  0  0  0  0  0  0  0  0  0  0  0
   -0.0006    1.4051   -0.0003 C   0  0  0  0  0  0  0  0  0  0  0  0
   -1.1998    0.6984    0.0007 C   0  0  0  0  0  0  0  0  0  0  0  0
   -2.0649    1.1910    0.0015 H   0  0  0  0  0  0  0  0  0  0  0  0
   -1.2062   -0.6909   -0.0000 C   0  0  0  0  0  0  0  0  0  0  0  0
   -2.0805   -1.1874    0.0004 H   0  0  0  0  0  0  0  0  0  0  0  0
    0.0029   -1.4000    0.0001 C   0  0  0  0  0  0  0  0  0  0  0  0
   -0.0101   -2.3949   -0.0003 H   0  0  0  0  0  0  0  0  0  0  0  0
    1.2062   -0.7042    0.0000 C   0  0  0  0  0  0  0  0  0  0  0  0
    2.0862   -1.1984    0.0022 H   0  0  0  0  0  0  0  0  0  0  0  0
    1.1976    0.6915   -0.0005 C   0  0  0  0  0  0  0  0  0  0  0  0
    2.0666    1.1879   -0.0017 H   0  0  0  0  0  0  0  0  0  0  0  0
  1  5  1  0
  5  8  1  0
  1  2  1  0
  1  3  1  0
  1  4  1  0
  5  6  1  0
  5  7  1  0
  8  9  1  0
  8 10  1  0
  8 11  1  0
 12 16  1  0
 16 17  2  0
 17 19  1  0
 19 21  2  0
 21 23  1  0
 23 25  2  0
 25 16  1  0
 12 13  1  0
 12 14  1  0
 12 15  1  0
 17 18  1  0
 19 20  1  0
 21 22  1  0
 23 24  1  0
 25 26  1  0
M  CHG  1   8   1
M  END
>  <PDB_ID>  (443) 
pdb1ffy

>  <RESIDUE_NAME>  (443) 
LYS   PHE

>  <FRAG_NAME>  (443) 
ETAM   MBZ

>  <FRAG_ATOM_NUM>  (443) 
fragi: 11  fragj: 15

>  <atom.prop.CHAIN_ID>  (443) 
A A A A A A A A A A A Z Z Z Z Z Z Z Z Z Z Z Z Z Z Z

>  <atom.prop.IS_HEAVY_ATOM>  (443) 
1 0 0 0 1 0 0 1 0 0 0 1 0 0 0 1 1 0 1 0 1 0 1 0 1 0

>  <DIFUSE_FUNC_ATOM>  (443) 
n/a

>  <FINAL_SINGLE_POINT_ENERGY>  (443) 
0

>  <NONCOV_INTER_ENERGY_QM>  (443) 
0

>  <FF_Energy>  (443) 
-5.62

>  <QM_Energy>  (443) 
-12.18

>  <source>  (443) 
ETAM_MBZ

>  <Index>  (443) 
4158

$$$$
ETAM-pdb2gfq-B-LYS-118:MBZ-pdb2gfq-B-PHE-189
     RDKit          3D

 26 25  0  0  0  0  0  0  0  0999 V2000
   -0.1627   -0.1194    3.3653 C   0  0  0  0  0  0  0  0  0  0  0  0
    0.1288    0.7699    3.7012 H   0  0  0  0  0  0  0  0  0  0  0  0
    0.0782   -0.2250    2.4065 H   0  0  0  0  0  0  0  0  0  0  0  0
    0.3339   -0.8978    3.9447 H   0  0  0  0  0  0  0  0  0  0  0  0
   -1.6946   -0.1996    3.4871 C   0  0  0  0  0  0  0  0  0  0  0  0
   -2.1030    0.4048    2.8011 H   0  0  0  0  0  0  0  0  0  0  0  0
   -1.9821   -1.1420    3.3071 H   0  0  0  0  0  0  0  0  0  0  0  0
   -2.1781    0.2082    4.8506 N   0  0  0  0  0  4  0  0  0  0  0  0
   -1.5007    0.8098    5.2679 H   0  0  0  0  0  0  0  0  0  0  0  0
   -3.0472    0.6884    4.7566 H   0  0  0  0  0  0  0  0  0  0  0  0
   -2.2985   -0.6083    5.4094 H   0  0  0  0  0  0  0  0  0  0  0  0
    0.0705    2.9045    0.0381 C   0  0  0  0  0  0  0  0  0  0  0  0
    0.6880    3.2021   -0.6815 H   0  0  0  0  0  0  0  0  0  0  0  0
    0.4150    3.1773    0.9289 H   0  0  0  0  0  0  0  0  0  0  0  0
   -0.8851    3.4058   -0.1156 H   0  0  0  0  0  0  0  0  0  0  0  0
    0.0079    1.4057    0.0045 C   0  0  0  0  0  0  0  0  0  0  0  0
   -1.2117    0.7039    0.0063 C   0  0  0  0  0  0  0  0  0  0  0  0
   -2.0657    1.1936    0.0111 H   0  0  0  0  0  0  0  0  0  0  0  0
   -1.2126   -0.7019    0.0000 C   0  0  0  0  0  0  0  0  0  0  0  0
   -2.0826   -1.1946    0.0154 H   0  0  0  0  0  0  0  0  0  0  0  0
    0.0014   -1.3935   -0.0256 C   0  0  0  0  0  0  0  0  0  0  0  0
   -0.0031   -2.3938   -0.0630 H   0  0  0  0  0  0  0  0  0  0  0  0
    1.2126   -0.7015   -0.0000 C   0  0  0  0  0  0  0  0  0  0  0  0
    2.0866   -1.2011    0.0089 H   0  0  0  0  0  0  0  0  0  0  0  0
    1.2023    0.6873    0.0148 C   0  0  0  0  0  0  0  0  0  0  0  0
    2.0735    1.1864    0.0326 H   0  0  0  0  0  0  0  0  0  0  0  0
  1  5  1  0
  5  8  1  0
  1  2  1  0
  1  3  1  0
  1  4  1  0
  5  6  1  0
  5  7  1  0
  8  9  1  0
  8 10  1  0
  8 11  1  0
 12 16  1  0
 16 17  2  0
 17 19  1  0
 19 21  2  0
 21 23  1  0
 23 25  2  0
 25 16  1  0
 12 13  1  0
 12 14  1  0
 12 15  1  0
 17 18  1  0
 19 20  1  0
 21 22  1  0
 23 24  1  0
 25 26  1  0
M  CHG  1   8   1
M  END
>  <PDB_ID>  (444) 
pdb2gfq

>  <RESIDUE_NAME>  (444) 
LYS   PHE

>  <FRAG_NAME>  (444) 
ETAM   MBZ

>  <FRAG_ATOM_NUM>  (444) 
fragi: 11  fragj: 15

>  <atom.prop.CHAIN_ID>  (444) 
A A A A A A A A A A A Z Z Z Z Z Z Z Z Z Z Z Z Z Z Z

>  <atom.prop.IS_HEAVY_ATOM>  (444) 
1 0 0 0 1 0 0 1 0 0 0 1 0 0 0 1 1 0 1 0 1 0 1 0 1 0

>  <DIFUSE_FUNC_ATOM>  (444) 
n/a

>  <FINAL_SINGLE_POINT_ENERGY>  (444) 
0

>  <NONCOV_INTER_ENERGY_QM>  (444) 
0

>  <FF_Energy>  (444) 
-3.59

>  <QM_Energy>  (444) 
-8.64

>  <source>  (444) 
ETAM_MBZ

>  <Index>  (444) 
4199

$$$$
ETAM-pdb2ggm-A-LYS-30:MBZ-pdb2ggm-A-PHE-86
     RDKit          3D

 26 25  0  0  0  0  0  0  0  0999 V2000
    2.7141   -5.0769   -0.5663 C   0  0  0  0  0  0  0  0  0  0  0  0
    2.9274   -5.6448   -1.3516 H   0  0  0  0  0  0  0  0  0  0  0  0
    1.7819   -4.7402   -0.6189 H   0  0  0  0  0  0  0  0  0  0  0  0
    2.7895   -5.7027    0.3229 H   0  0  0  0  0  0  0  0  0  0  0  0
    3.6740   -3.9011   -0.5181 C   0  0  0  0  0  0  0  0  0  0  0  0
    3.5721   -3.4410    0.3635 H   0  0  0  0  0  0  0  0  0  0  0  0
    4.6079   -4.2458   -0.6087 H   0  0  0  0  0  0  0  0  0  0  0  0
    3.3809   -2.9647   -1.6059 N   0  0  0  0  0  4  0  0  0  0  0  0
    2.3884   -2.8610   -1.7112 H   0  0  0  0  0  0  0  0  0  0  0  0
    3.7829   -2.0676   -1.4047 H   0  0  0  0  0  0  0  0  0  0  0  0
    3.7653   -3.3073   -2.4671 H   0  0  0  0  0  0  0  0  0  0  0  0
    0.0050    2.9111   -0.0078 C   0  0  0  0  0  0  0  0  0  0  0  0
   -0.6483    3.2083   -0.6847 H   0  0  0  0  0  0  0  0  0  0  0  0
    0.9185    3.2124   -0.2263 H   0  0  0  0  0  0  0  0  0  0  0  0
   -0.2779    3.3331    0.9566 H   0  0  0  0  0  0  0  0  0  0  0  0
    0.0083    1.4088   -0.0056 C   0  0  0  0  0  0  0  0  0  0  0  0
   -1.2032    0.6940    0.0040 C   0  0  0  0  0  0  0  0  0  0  0  0
   -2.0631    1.2006    0.0126 H   0  0  0  0  0  0  0  0  0  0  0  0
   -1.2205   -0.6869   -0.0000 C   0  0  0  0  0  0  0  0  0  0  0  0
   -2.0989   -1.1803    0.0067 H   0  0  0  0  0  0  0  0  0  0  0  0
   -0.0185   -1.4069   -0.0117 C   0  0  0  0  0  0  0  0  0  0  0  0
   -0.0280   -2.3987   -0.0287 H   0  0  0  0  0  0  0  0  0  0  0  0
    1.2205   -0.7134    0.0000 C   0  0  0  0  0  0  0  0  0  0  0  0
    2.0830   -1.2108    0.0005 H   0  0  0  0  0  0  0  0  0  0  0  0
    1.2134    0.7043    0.0132 C   0  0  0  0  0  0  0  0  0  0  0  0
    2.0787    1.1916    0.0360 H   0  0  0  0  0  0  0  0  0  0  0  0
  1  5  1  0
  5  8  1  0
  1  2  1  0
  1  3  1  0
  1  4  1  0
  5  6  1  0
  5  7  1  0
  8  9  1  0
  8 10  1  0
  8 11  1  0
 12 16  1  0
 16 17  2  0
 17 19  1  0
 19 21  2  0
 21 23  1  0
 23 25  2  0
 25 16  1  0
 12 13  1  0
 12 14  1  0
 12 15  1  0
 17 18  1  0
 19 20  1  0
 21 22  1  0
 23 24  1  0
 25 26  1  0
M  CHG  1   8   1
M  END
>  <PDB_ID>  (445) 
pdb2ggm

>  <RESIDUE_NAME>  (445) 
LYS   PHE

>  <FRAG_NAME>  (445) 
ETAM   MBZ

>  <FRAG_ATOM_NUM>  (445) 
fragi: 11  fragj: 15

>  <atom.prop.CHAIN_ID>  (445) 
A A A A A A A A A A A Z Z Z Z Z Z Z Z Z Z Z Z Z Z Z

>  <atom.prop.IS_HEAVY_ATOM>  (445) 
1 0 0 0 1 0 0 1 0 0 0 1 0 0 0 1 1 0 1 0 1 0 1 0 1 0

>  <DIFUSE_FUNC_ATOM>  (445) 
n/a

>  <FINAL_SINGLE_POINT_ENERGY>  (445) 
0

>  <NONCOV_INTER_ENERGY_QM>  (445) 
0

>  <FF_Energy>  (445) 
0.28

>  <QM_Energy>  (445) 
-5.05

>  <source>  (445) 
ETAM_MBZ

>  <Index>  (445) 
4203

$$$$
ETAM-pdb1fjr-B-LYS-49:MBZ-pdb1fjr-B-PHE-41
     RDKit          3D

 26 25  0  0  0  0  0  0  0  0999 V2000
   -0.6851    0.7647   -3.9169 C   0  0  0  0  0  0  0  0  0  0  0  0
   -0.4975    0.9823   -4.8740 H   0  0  0  0  0  0  0  0  0  0  0  0
   -0.1258    1.3438   -3.3258 H   0  0  0  0  0  0  0  0  0  0  0  0
   -1.7365    0.9665   -3.7123 H   0  0  0  0  0  0  0  0  0  0  0  0
   -0.3177   -0.6812   -3.6665 C   0  0  0  0  0  0  0  0  0  0  0  0
   -0.5488   -0.9236   -2.7280 H   0  0  0  0  0  0  0  0  0  0  0  0
   -0.8166   -1.2646   -4.3023 H   0  0  0  0  0  0  0  0  0  0  0  0
    1.1515   -0.8832   -3.8731 N   0  0  0  0  0  4  0  0  0  0  0  0
    1.5984   -0.9652   -2.9842 H   0  0  0  0  0  0  0  0  0  0  0  0
    1.2959   -1.7171   -4.4028 H   0  0  0  0  0  0  0  0  0  0  0  0
    1.5228   -0.1003   -4.3676 H   0  0  0  0  0  0  0  0  0  0  0  0
   -0.0091    2.9068    0.0758 C   0  0  0  0  0  0  0  0  0  0  0  0
   -0.7936    3.2313   -0.4277 H   0  0  0  0  0  0  0  0  0  0  0  0
    0.8353    3.2375   -0.3148 H   0  0  0  0  0  0  0  0  0  0  0  0
   -0.0806    3.2874    1.0947 H   0  0  0  0  0  0  0  0  0  0  0  0
    0.0016    1.4062    0.0014 C   0  0  0  0  0  0  0  0  0  0  0  0
   -1.1932    0.6961   -0.0022 C   0  0  0  0  0  0  0  0  0  0  0  0
   -2.0626    1.1876   -0.0080 H   0  0  0  0  0  0  0  0  0  0  0  0
   -1.2057   -0.6979    0.0000 C   0  0  0  0  0  0  0  0  0  0  0  0
   -2.0853   -1.1849    0.0030 H   0  0  0  0  0  0  0  0  0  0  0  0
   -0.0079   -1.4028   -0.0000 C   0  0  0  0  0  0  0  0  0  0  0  0
   -0.0106   -2.3968   -0.0008 H   0  0  0  0  0  0  0  0  0  0  0  0
    1.2057   -0.7012   -0.0000 C   0  0  0  0  0  0  0  0  0  0  0  0
    2.0817   -1.1984    0.0012 H   0  0  0  0  0  0  0  0  0  0  0  0
    1.1995    0.6996    0.0007 C   0  0  0  0  0  0  0  0  0  0  0  0
    2.0671    1.1923    0.0002 H   0  0  0  0  0  0  0  0  0  0  0  0
  1  5  1  0
  5  8  1  0
  1  2  1  0
  1  3  1  0
  1  4  1  0
  5  6  1  0
  5  7  1  0
  8  9  1  0
  8 10  1  0
  8 11  1  0
 12 16  1  0
 16 17  2  0
 17 19  1  0
 19 21  2  0
 21 23  1  0
 23 25  2  0
 25 16  1  0
 12 13  1  0
 12 14  1  0
 12 15  1  0
 17 18  1  0
 19 20  1  0
 21 22  1  0
 23 24  1  0
 25 26  1  0
M  CHG  1   8   1
M  END
>  <PDB_ID>  (446) 
pdb1fjr

>  <RESIDUE_NAME>  (446) 
LYS   PHE

>  <FRAG_NAME>  (446) 
ETAM   MBZ

>  <FRAG_ATOM_NUM>  (446) 
fragi: 11  fragj: 15

>  <atom.prop.CHAIN_ID>  (446) 
A A A A A A A A A A A Z Z Z Z Z Z Z Z Z Z Z Z Z Z Z

>  <atom.prop.IS_HEAVY_ATOM>  (446) 
1 0 0 0 1 0 0 1 0 0 0 1 0 0 0 1 1 0 1 0 1 0 1 0 1 0

>  <DIFUSE_FUNC_ATOM>  (446) 
n/a

>  <FINAL_SINGLE_POINT_ENERGY>  (446) 
0

>  <NONCOV_INTER_ENERGY_QM>  (446) 
0

>  <FF_Energy>  (446) 
-6.23

>  <QM_Energy>  (446) 
-12.01

>  <source>  (446) 
ETAM_MBZ

>  <Index>  (446) 
4207

$$$$
ETAM-pdb2gi3-A-LYS-41:MBZ-pdb2gi3-A-PHE-126
     RDKit          3D

 26 25  0  0  0  0  0  0  0  0999 V2000
   -0.8610    0.1450   -4.6549 C   0  0  0  0  0  0  0  0  0  0  0  0
   -1.1361   -0.8063   -4.6166 H   0  0  0  0  0  0  0  0  0  0  0  0
   -0.4605    0.3621   -5.5357 H   0  0  0  0  0  0  0  0  0  0  0  0
   -1.7324    0.7785   -4.4889 H   0  0  0  0  0  0  0  0  0  0  0  0
    0.1858    0.3879   -3.5764 C   0  0  0  0  0  0  0  0  0  0  0  0
    0.5574    1.3010   -3.6907 H   0  0  0  0  0  0  0  0  0  0  0  0
   -0.2432    0.2939   -2.6861 H   0  0  0  0  0  0  0  0  0  0  0  0
    1.2592   -0.6107   -3.7227 N   0  0  0  0  0  4  0  0  0  0  0  0
    1.5431   -0.9373   -2.8190 H   0  0  0  0  0  0  0  0  0  0  0  0
    0.9296   -1.3865   -4.2648 H   0  0  0  0  0  0  0  0  0  0  0  0
    2.0459   -0.1973   -4.1850 H   0  0  0  0  0  0  0  0  0  0  0  0
   -0.0231    2.9016    0.0035 C   0  0  0  0  0  0  0  0  0  0  0  0
   -0.6891    3.2000   -0.6634 H   0  0  0  0  0  0  0  0  0  0  0  0
    0.8850    3.2179   -0.2294 H   0  0  0  0  0  0  0  0  0  0  0  0
   -0.2914    3.3520    0.9592 H   0  0  0  0  0  0  0  0  0  0  0  0
   -0.0070    1.3936    0.0071 C   0  0  0  0  0  0  0  0  0  0  0  0
   -1.1849    0.6714   -0.0041 C   0  0  0  0  0  0  0  0  0  0  0  0
   -2.0626    1.1643   -0.0168 H   0  0  0  0  0  0  0  0  0  0  0  0
   -1.1900   -0.6998    0.0000 C   0  0  0  0  0  0  0  0  0  0  0  0
   -2.0660   -1.2002    0.0016 H   0  0  0  0  0  0  0  0  0  0  0  0
    0.0048   -1.3801    0.0032 C   0  0  0  0  0  0  0  0  0  0  0  0
    0.0085   -2.3834    0.0074 H   0  0  0  0  0  0  0  0  0  0  0  0
    1.1900   -0.6828   -0.0000 C   0  0  0  0  0  0  0  0  0  0  0  0
    2.0791   -1.1803    0.0034 H   0  0  0  0  0  0  0  0  0  0  0  0
    1.1872    0.6977   -0.0062 C   0  0  0  0  0  0  0  0  0  0  0  0
    2.0528    1.1971   -0.0209 H   0  0  0  0  0  0  0  0  0  0  0  0
  1  5  1  0
  5  8  1  0
  1  2  1  0
  1  3  1  0
  1  4  1  0
  5  6  1  0
  5  7  1  0
  8  9  1  0
  8 10  1  0
  8 11  1  0
 12 16  1  0
 16 17  2  0
 17 19  1  0
 19 21  2  0
 21 23  1  0
 23 25  2  0
 25 16  1  0
 12 13  1  0
 12 14  1  0
 12 15  1  0
 17 18  1  0
 19 20  1  0
 21 22  1  0
 23 24  1  0
 25 26  1  0
M  CHG  1   8   1
M  END
>  <PDB_ID>  (447) 
pdb2gi3

>  <RESIDUE_NAME>  (447) 
LYS   PHE

>  <FRAG_NAME>  (447) 
ETAM   MBZ

>  <FRAG_ATOM_NUM>  (447) 
fragi: 11  fragj: 15

>  <atom.prop.CHAIN_ID>  (447) 
A A A A A A A A A A A Z Z Z Z Z Z Z Z Z Z Z Z Z Z Z

>  <atom.prop.IS_HEAVY_ATOM>  (447) 
1 0 0 0 1 0 0 1 0 0 0 1 0 0 0 1 1 0 1 0 1 0 1 0 1 0

>  <DIFUSE_FUNC_ATOM>  (447) 
n/a

>  <FINAL_SINGLE_POINT_ENERGY>  (447) 
0

>  <NONCOV_INTER_ENERGY_QM>  (447) 
0

>  <FF_Energy>  (447) 
-6.58

>  <QM_Energy>  (447) 
-12.39

>  <source>  (447) 
ETAM_MBZ

>  <Index>  (447) 
4228

$$$$
ETAM-pdb1flj-A-LYS-213:MBZ-pdb1flj-A-PHE-260
     RDKit          3D

 26 25  0  0  0  0  0  0  0  0999 V2000
   -0.2634   -1.7461    3.6784 C   0  0  0  0  0  0  0  0  0  0  0  0
   -0.3487   -1.4713    2.7328 H   0  0  0  0  0  0  0  0  0  0  0  0
   -0.4805   -1.0012    4.2906 H   0  0  0  0  0  0  0  0  0  0  0  0
   -0.9226   -2.5912    3.8765 H   0  0  0  0  0  0  0  0  0  0  0  0
    1.1821   -2.1617    3.9266 C   0  0  0  0  0  0  0  0  0  0  0  0
    1.2653   -2.5033    4.8699 H   0  0  0  0  0  0  0  0  0  0  0  0
    1.4195   -2.9106    3.2963 H   0  0  0  0  0  0  0  0  0  0  0  0
    2.1574   -1.0377    3.7309 N   0  0  0  0  0  4  0  0  0  0  0  0
    1.9611   -0.2702    4.4061 H   0  0  0  0  0  0  0  0  0  0  0  0
    2.0700   -0.6779    2.7581 H   0  0  0  0  0  0  0  0  0  0  0  0
    3.1245   -1.3950    3.8812 H   0  0  0  0  0  0  0  0  0  0  0  0
   -0.0115    2.9102   -0.0134 C   0  0  0  0  0  0  0  0  0  0  0  0
    0.8313    3.2287    0.3889 H   0  0  0  0  0  0  0  0  0  0  0  0
   -0.7980    3.2154    0.4988 H   0  0  0  0  0  0  0  0  0  0  0  0
   -0.0824    3.3389   -1.0130 H   0  0  0  0  0  0  0  0  0  0  0  0
    0.0020    1.4036    0.0002 C   0  0  0  0  0  0  0  0  0  0  0  0
   -1.1930    0.6890    0.0001 C   0  0  0  0  0  0  0  0  0  0  0  0
   -2.0620    1.1811   -0.0014 H   0  0  0  0  0  0  0  0  0  0  0  0
   -1.2031   -0.7011    0.0000 C   0  0  0  0  0  0  0  0  0  0  0  0
   -2.0827   -1.1905    0.0020 H   0  0  0  0  0  0  0  0  0  0  0  0
   -0.0077   -1.3995   -0.0006 C   0  0  0  0  0  0  0  0  0  0  0  0
   -0.0046   -2.3952   -0.0018 H   0  0  0  0  0  0  0  0  0  0  0  0
    1.2031   -0.6955   -0.0000 C   0  0  0  0  0  0  0  0  0  0  0  0
    2.0809   -1.1930    0.0018 H   0  0  0  0  0  0  0  0  0  0  0  0
    1.1987    0.7035    0.0003 C   0  0  0  0  0  0  0  0  0  0  0  0
    2.0662    1.1954   -0.0000 H   0  0  0  0  0  0  0  0  0  0  0  0
  1  5  1  0
  5  8  1  0
  1  2  1  0
  1  3  1  0
  1  4  1  0
  5  6  1  0
  5  7  1  0
  8  9  1  0
  8 10  1  0
  8 11  1  0
 12 16  1  0
 16 17  2  0
 17 19  1  0
 19 21  2  0
 21 23  1  0
 23 25  2  0
 25 16  1  0
 12 13  1  0
 12 14  1  0
 12 15  1  0
 17 18  1  0
 19 20  1  0
 21 22  1  0
 23 24  1  0
 25 26  1  0
M  CHG  1   8   1
M  END
>  <PDB_ID>  (448) 
pdb1flj

>  <RESIDUE_NAME>  (448) 
LYS   PHE

>  <FRAG_NAME>  (448) 
ETAM   MBZ

>  <FRAG_ATOM_NUM>  (448) 
fragi: 11  fragj: 15

>  <atom.prop.CHAIN_ID>  (448) 
A A A A A A A A A A A Z Z Z Z Z Z Z Z Z Z Z Z Z Z Z

>  <atom.prop.IS_HEAVY_ATOM>  (448) 
1 0 0 0 1 0 0 1 0 0 0 1 0 0 0 1 1 0 1 0 1 0 1 0 1 0

>  <DIFUSE_FUNC_ATOM>  (448) 
n/a

>  <FINAL_SINGLE_POINT_ENERGY>  (448) 
0

>  <NONCOV_INTER_ENERGY_QM>  (448) 
0

>  <FF_Energy>  (448) 
-4.4

>  <QM_Energy>  (448) 
-9.98

>  <source>  (448) 
ETAM_MBZ

>  <Index>  (448) 
4231

$$$$
ETAM-pdb1fmb-A-LYS-47:MBZ-pdb1fmb-A-PHE-63
     RDKit          3D

 26 25  0  0  0  0  0  0  0  0999 V2000
   -0.6757   -0.9469   -3.8964 C   0  0  0  0  0  0  0  0  0  0  0  0
   -1.1869   -1.8019   -4.0031 H   0  0  0  0  0  0  0  0  0  0  0  0
   -0.5992   -0.4959   -4.7876 H   0  0  0  0  0  0  0  0  0  0  0  0
   -1.2245   -0.2934   -3.2183 H   0  0  0  0  0  0  0  0  0  0  0  0
    0.7238   -1.2815   -3.4055 C   0  0  0  0  0  0  0  0  0  0  0  0
    0.6919   -1.4172   -2.3994 H   0  0  0  0  0  0  0  0  0  0  0  0
    1.0104   -2.1655   -3.8153 H   0  0  0  0  0  0  0  0  0  0  0  0
    1.7568   -0.2512   -3.7184 N   0  0  0  0  0  4  0  0  0  0  0  0
    1.7135   -0.0248   -4.6901 H   0  0  0  0  0  0  0  0  0  0  0  0
    1.5803    0.5677   -3.1742 H   0  0  0  0  0  0  0  0  0  0  0  0
    2.6611   -0.6137   -3.4979 H   0  0  0  0  0  0  0  0  0  0  0  0
    0.0752    2.8412   -0.0612 C   0  0  0  0  0  0  0  0  0  0  0  0
   -0.7268    3.1542   -0.6320 H   0  0  0  0  0  0  0  0  0  0  0  0
    0.9044    3.0872   -0.6249 H   0  0  0  0  0  0  0  0  0  0  0  0
    0.0971    3.4545    0.8396 H   0  0  0  0  0  0  0  0  0  0  0  0
    0.0143    1.3745   -0.0022 C   0  0  0  0  0  0  0  0  0  0  0  0
   -1.2058    0.7149    0.0135 C   0  0  0  0  0  0  0  0  0  0  0  0
   -2.0500    1.2116    0.0325 H   0  0  0  0  0  0  0  0  0  0  0  0
   -1.2032   -0.6719    0.0000 C   0  0  0  0  0  0  0  0  0  0  0  0
   -2.0883   -1.1669   -0.0146 H   0  0  0  0  0  0  0  0  0  0  0  0
   -0.0139   -1.3768    0.0076 C   0  0  0  0  0  0  0  0  0  0  0  0
   -0.0365   -2.3842    0.0185 H   0  0  0  0  0  0  0  0  0  0  0  0
    1.2032   -0.7170   -0.0000 C   0  0  0  0  0  0  0  0  0  0  0  0
    2.0695   -1.2220    0.0094 H   0  0  0  0  0  0  0  0  0  0  0  0
    1.2054    0.6763   -0.0189 C   0  0  0  0  0  0  0  0  0  0  0  0
    2.0737    1.1657   -0.0452 H   0  0  0  0  0  0  0  0  0  0  0  0
  1  5  1  0
  5  8  1  0
  1  2  1  0
  1  3  1  0
  1  4  1  0
  5  6  1  0
  5  7  1  0
  8  9  1  0
  8 10  1  0
  8 11  1  0
 12 16  1  0
 16 17  2  0
 17 19  1  0
 19 21  2  0
 21 23  1  0
 23 25  2  0
 25 16  1  0
 12 13  1  0
 12 14  1  0
 12 15  1  0
 17 18  1  0
 19 20  1  0
 21 22  1  0
 23 24  1  0
 25 26  1  0
M  CHG  1   8   1
M  END
>  <PDB_ID>  (449) 
pdb1fmb

>  <RESIDUE_NAME>  (449) 
LYS   PHE

>  <FRAG_NAME>  (449) 
ETAM   MBZ

>  <FRAG_ATOM_NUM>  (449) 
fragi: 11  fragj: 15

>  <atom.prop.CHAIN_ID>  (449) 
A A A A A A A A A A A Z Z Z Z Z Z Z Z Z Z Z Z Z Z Z

>  <atom.prop.IS_HEAVY_ATOM>  (449) 
1 0 0 0 1 0 0 1 0 0 0 1 0 0 0 1 1 0 1 0 1 0 1 0 1 0

>  <DIFUSE_FUNC_ATOM>  (449) 
n/a

>  <FINAL_SINGLE_POINT_ENERGY>  (449) 
0

>  <NONCOV_INTER_ENERGY_QM>  (449) 
0

>  <FF_Energy>  (449) 
-4.23

>  <QM_Energy>  (449) 
-10.0

>  <source>  (449) 
ETAM_MBZ

>  <Index>  (449) 
4242

$$$$
ETAM-pdb2gk6-A-LYS-779:MBZ-pdb2gk6-A-PHE-737
     RDKit          3D

 26 25  0  0  0  0  0  0  0  0999 V2000
   -3.8923   -1.1084    2.5724 C   0  0  0  0  0  0  0  0  0  0  0  0
   -4.6224   -1.6222    3.0087 H   0  0  0  0  0  0  0  0  0  0  0  0
   -3.2196   -1.7250    2.1788 H   0  0  0  0  0  0  0  0  0  0  0  0
   -4.3151   -0.4890    1.7815 H   0  0  0  0  0  0  0  0  0  0  0  0
   -3.1974   -0.2589    3.6422 C   0  0  0  0  0  0  0  0  0  0  0  0
   -3.6337    0.6425    3.6722 H   0  0  0  0  0  0  0  0  0  0  0  0
   -3.3091   -0.7059    4.5327 H   0  0  0  0  0  0  0  0  0  0  0  0
   -1.7322   -0.0830    3.3639 N   0  0  0  0  0  4  0  0  0  0  0  0
   -1.2187   -0.7569    3.8895 H   0  0  0  0  0  0  0  0  0  0  0  0
   -1.5686   -0.2153    2.3887 H   0  0  0  0  0  0  0  0  0  0  0  0
   -1.4583    0.8376    3.6326 H   0  0  0  0  0  0  0  0  0  0  0  0
   -0.0030    2.9005   -0.0141 C   0  0  0  0  0  0  0  0  0  0  0  0
   -0.8486    3.1991   -0.4353 H   0  0  0  0  0  0  0  0  0  0  0  0
    0.7808    3.2004   -0.5411 H   0  0  0  0  0  0  0  0  0  0  0  0
    0.0610    3.3637    0.9705 H   0  0  0  0  0  0  0  0  0  0  0  0
   -0.0004    1.3972    0.0055 C   0  0  0  0  0  0  0  0  0  0  0  0
   -1.1928    0.6905   -0.0023 C   0  0  0  0  0  0  0  0  0  0  0  0
   -2.0607    1.1804   -0.0106 H   0  0  0  0  0  0  0  0  0  0  0  0
   -1.1957   -0.6958    0.0000 C   0  0  0  0  0  0  0  0  0  0  0  0
   -2.0745   -1.1899    0.0025 H   0  0  0  0  0  0  0  0  0  0  0  0
   -0.0008   -1.3876    0.0015 C   0  0  0  0  0  0  0  0  0  0  0  0
   -0.0036   -2.3891    0.0032 H   0  0  0  0  0  0  0  0  0  0  0  0
    1.1957   -0.6952   -0.0000 C   0  0  0  0  0  0  0  0  0  0  0  0
    2.0787   -1.1954    0.0041 H   0  0  0  0  0  0  0  0  0  0  0  0
    1.1940    0.6908   -0.0047 C   0  0  0  0  0  0  0  0  0  0  0  0
    2.0626    1.1874   -0.0167 H   0  0  0  0  0  0  0  0  0  0  0  0
  1  5  1  0
  5  8  1  0
  1  2  1  0
  1  3  1  0
  1  4  1  0
  5  6  1  0
  5  7  1  0
  8  9  1  0
  8 10  1  0
  8 11  1  0
 12 16  1  0
 16 17  2  0
 17 19  1  0
 19 21  2  0
 21 23  1  0
 23 25  2  0
 25 16  1  0
 12 13  1  0
 12 14  1  0
 12 15  1  0
 17 18  1  0
 19 20  1  0
 21 22  1  0
 23 24  1  0
 25 26  1  0
M  CHG  1   8   1
M  END
>  <PDB_ID>  (450) 
pdb2gk6

>  <RESIDUE_NAME>  (450) 
LYS   PHE

>  <FRAG_NAME>  (450) 
ETAM   MBZ

>  <FRAG_ATOM_NUM>  (450) 
fragi: 11  fragj: 15

>  <atom.prop.CHAIN_ID>  (450) 
A A A A A A A A A A A Z Z Z Z Z Z Z Z Z Z Z Z Z Z Z

>  <atom.prop.IS_HEAVY_ATOM>  (450) 
1 0 0 0 1 0 0 1 0 0 0 1 0 0 0 1 1 0 1 0 1 0 1 0 1 0

>  <DIFUSE_FUNC_ATOM>  (450) 
n/a

>  <FINAL_SINGLE_POINT_ENERGY>  (450) 
0

>  <NONCOV_INTER_ENERGY_QM>  (450) 
0

>  <FF_Energy>  (450) 
-6.48

>  <QM_Energy>  (450) 
-12.94

>  <source>  (450) 
ETAM_MBZ

>  <Index>  (450) 
4256

$$$$
ETAM-pdb1fne-A-LYS-74:MBZ-pdb1fne-B-PHE-7
     RDKit          3D

 26 25  0  0  0  0  0  0  0  0999 V2000
    0.2016    1.9139    3.6823 C   0  0  0  0  0  0  0  0  0  0  0  0
    0.6823    2.3053    2.9024 H   0  0  0  0  0  0  0  0  0  0  0  0
    0.5383    2.3154    4.5294 H   0  0  0  0  0  0  0  0  0  0  0  0
   -0.8600    2.1417    3.5862 H   0  0  0  0  0  0  0  0  0  0  0  0
    0.4653    0.4152    3.7155 C   0  0  0  0  0  0  0  0  0  0  0  0
    0.0126    0.0249    4.5194 H   0  0  0  0  0  0  0  0  0  0  0  0
    0.0811    0.0011    2.8886 H   0  0  0  0  0  0  0  0  0  0  0  0
    1.9186    0.1262    3.7806 N   0  0  0  0  0  4  0  0  0  0  0  0
    2.2944    0.4926    4.6317 H   0  0  0  0  0  0  0  0  0  0  0  0
    2.0643   -0.8636    3.7515 H   0  0  0  0  0  0  0  0  0  0  0  0
    2.3800    0.5538    3.0022 H   0  0  0  0  0  0  0  0  0  0  0  0
    0.0108    2.9121   -0.1010 C   0  0  0  0  0  0  0  0  0  0  0  0
    0.8662    3.2347    0.2665 H   0  0  0  0  0  0  0  0  0  0  0  0
   -0.7605    3.2559    0.4059 H   0  0  0  0  0  0  0  0  0  0  0  0
   -0.0731    3.2732   -1.1260 H   0  0  0  0  0  0  0  0  0  0  0  0
    0.0002    1.4083   -0.0016 C   0  0  0  0  0  0  0  0  0  0  0  0
   -1.2019    0.7021    0.0025 C   0  0  0  0  0  0  0  0  0  0  0  0
   -2.0664    1.1888    0.0058 H   0  0  0  0  0  0  0  0  0  0  0  0
   -1.2084   -0.7015    0.0000 C   0  0  0  0  0  0  0  0  0  0  0  0
   -2.0823   -1.1919    0.0005 H   0  0  0  0  0  0  0  0  0  0  0  0
    0.0031   -1.4038   -0.0013 C   0  0  0  0  0  0  0  0  0  0  0  0
   -0.0022   -2.3981   -0.0034 H   0  0  0  0  0  0  0  0  0  0  0  0
    1.2084   -0.7015    0.0000 C   0  0  0  0  0  0  0  0  0  0  0  0
    2.0886   -1.1944    0.0017 H   0  0  0  0  0  0  0  0  0  0  0  0
    1.1986    0.6964    0.0004 C   0  0  0  0  0  0  0  0  0  0  0  0
    2.0674    1.1924    0.0013 H   0  0  0  0  0  0  0  0  0  0  0  0
  1  5  1  0
  5  8  1  0
  1  2  1  0
  1  3  1  0
  1  4  1  0
  5  6  1  0
  5  7  1  0
  8  9  1  0
  8 10  1  0
  8 11  1  0
 12 16  1  0
 16 17  2  0
 17 19  1  0
 19 21  2  0
 21 23  1  0
 23 25  2  0
 25 16  1  0
 12 13  1  0
 12 14  1  0
 12 15  1  0
 17 18  1  0
 19 20  1  0
 21 22  1  0
 23 24  1  0
 25 26  1  0
M  CHG  1   8   1
M  END
>  <PDB_ID>  (451) 
pdb1fne

>  <RESIDUE_NAME>  (451) 
LYS   PHE

>  <FRAG_NAME>  (451) 
ETAM   MBZ

>  <FRAG_ATOM_NUM>  (451) 
fragi: 11  fragj: 15

>  <atom.prop.CHAIN_ID>  (451) 
A A A A A A A A A A A Z Z Z Z Z Z Z Z Z Z Z Z Z Z Z

>  <atom.prop.IS_HEAVY_ATOM>  (451) 
1 0 0 0 1 0 0 1 0 0 0 1 0 0 0 1 1 0 1 0 1 0 1 0 1 0

>  <DIFUSE_FUNC_ATOM>  (451) 
n/a

>  <FINAL_SINGLE_POINT_ENERGY>  (451) 
0

>  <NONCOV_INTER_ENERGY_QM>  (451) 
0

>  <FF_Energy>  (451) 
-6.12

>  <QM_Energy>  (451) 
-11.23

>  <source>  (451) 
ETAM_MBZ

>  <Index>  (451) 
4270

$$$$
ETAM-pdb1fng-A-LYS-74:MBZ-pdb1fng-B-PHE-7
     RDKit          3D

 26 25  0  0  0  0  0  0  0  0999 V2000
    0.2659    1.9127    3.6750 C   0  0  0  0  0  0  0  0  0  0  0  0
    0.7277    2.3208    2.8936 H   0  0  0  0  0  0  0  0  0  0  0  0
    0.6127    2.3032    4.5224 H   0  0  0  0  0  0  0  0  0  0  0  0
   -0.8000    2.1284    3.6015 H   0  0  0  0  0  0  0  0  0  0  0  0
    0.5460    0.4144    3.6783 C   0  0  0  0  0  0  0  0  0  0  0  0
    0.1267    0.0090    4.4932 H   0  0  0  0  0  0  0  0  0  0  0  0
    0.1354    0.0067    2.8607 H   0  0  0  0  0  0  0  0  0  0  0  0
    2.0064    0.1338    3.6859 N   0  0  0  0  0  4  0  0  0  0  0  0
    2.3253    0.0068    2.7468 H   0  0  0  0  0  0  0  0  0  0  0  0
    2.4900    0.9033    4.1021 H   0  0  0  0  0  0  0  0  0  0  0  0
    2.1822   -0.6970    4.2137 H   0  0  0  0  0  0  0  0  0  0  0  0
    0.0092    2.9137   -0.0747 C   0  0  0  0  0  0  0  0  0  0  0  0
    0.8814    3.2284    0.2613 H   0  0  0  0  0  0  0  0  0  0  0  0
   -0.7373    3.2499    0.4767 H   0  0  0  0  0  0  0  0  0  0  0  0
   -0.1200    3.2992   -1.0860 H   0  0  0  0  0  0  0  0  0  0  0  0
   -0.0006    1.4086   -0.0013 C   0  0  0  0  0  0  0  0  0  0  0  0
   -1.1997    0.7048    0.0026 C   0  0  0  0  0  0  0  0  0  0  0  0
   -2.0656    1.1921    0.0056 H   0  0  0  0  0  0  0  0  0  0  0  0
   -1.2097   -0.6990    0.0000 C   0  0  0  0  0  0  0  0  0  0  0  0
   -2.0853   -1.1857    0.0011 H   0  0  0  0  0  0  0  0  0  0  0  0
   -0.0018   -1.4043   -0.0023 C   0  0  0  0  0  0  0  0  0  0  0  0
   -0.0087   -2.3994   -0.0061 H   0  0  0  0  0  0  0  0  0  0  0  0
    1.2097   -0.7054    0.0000 C   0  0  0  0  0  0  0  0  0  0  0  0
    2.0860   -1.2001    0.0022 H   0  0  0  0  0  0  0  0  0  0  0  0
    1.2022    0.6954    0.0010 C   0  0  0  0  0  0  0  0  0  0  0  0
    2.0695    1.1906    0.0024 H   0  0  0  0  0  0  0  0  0  0  0  0
  1  5  1  0
  5  8  1  0
  1  2  1  0
  1  3  1  0
  1  4  1  0
  5  6  1  0
  5  7  1  0
  8  9  1  0
  8 10  1  0
  8 11  1  0
 12 16  1  0
 16 17  2  0
 17 19  1  0
 19 21  2  0
 21 23  1  0
 23 25  2  0
 25 16  1  0
 12 13  1  0
 12 14  1  0
 12 15  1  0
 17 18  1  0
 19 20  1  0
 21 22  1  0
 23 24  1  0
 25 26  1  0
M  CHG  1   8   1
M  END
>  <PDB_ID>  (452) 
pdb1fng

>  <RESIDUE_NAME>  (452) 
LYS   PHE

>  <FRAG_NAME>  (452) 
ETAM   MBZ

>  <FRAG_ATOM_NUM>  (452) 
fragi: 11  fragj: 15

>  <atom.prop.CHAIN_ID>  (452) 
A A A A A A A A A A A Z Z Z Z Z Z Z Z Z Z Z Z Z Z Z

>  <atom.prop.IS_HEAVY_ATOM>  (452) 
1 0 0 0 1 0 0 1 0 0 0 1 0 0 0 1 1 0 1 0 1 0 1 0 1 0

>  <DIFUSE_FUNC_ATOM>  (452) 
n/a

>  <FINAL_SINGLE_POINT_ENERGY>  (452) 
0

>  <NONCOV_INTER_ENERGY_QM>  (452) 
0

>  <FF_Energy>  (452) 
-6.23

>  <QM_Energy>  (452) 
-12.0

>  <source>  (452) 
ETAM_MBZ

>  <Index>  (452) 
4271

$$$$
ETAM-pdb2gk3-B-LYS-25:MBZ-pdb2gk3-B-PHE-30
     RDKit          3D

 26 25  0  0  0  0  0  0  0  0999 V2000
    6.2354   -1.0424   -0.2552 C   0  0  0  0  0  0  0  0  0  0  0  0
    6.7797   -0.6581   -1.0116 H   0  0  0  0  0  0  0  0  0  0  0  0
    6.7454   -1.8160    0.1395 H   0  0  0  0  0  0  0  0  0  0  0  0
    6.1071   -0.2768    0.5100 H   0  0  0  0  0  0  0  0  0  0  0  0
    4.9267   -1.5950   -0.8495 C   0  0  0  0  0  0  0  0  0  0  0  0
    4.3607   -0.8105   -1.1486 H   0  0  0  0  0  0  0  0  0  0  0  0
    5.1581   -2.1349   -1.6738 H   0  0  0  0  0  0  0  0  0  0  0  0
    4.1434   -2.4383    0.0858 N   0  0  0  0  0  4  0  0  0  0  0  0
    3.3137   -2.7603   -0.3706 H   0  0  0  0  0  0  0  0  0  0  0  0
    4.6946   -3.2237    0.3684 H   0  0  0  0  0  0  0  0  0  0  0  0
    3.8931   -1.9007    0.8916 H   0  0  0  0  0  0  0  0  0  0  0  0
    0.0023    2.9141   -0.0220 C   0  0  0  0  0  0  0  0  0  0  0  0
   -0.8106    3.2175   -0.4961 H   0  0  0  0  0  0  0  0  0  0  0  0
    0.8227    3.2136   -0.4865 H   0  0  0  0  0  0  0  0  0  0  0  0
   -0.0024    3.3694    0.9683 H   0  0  0  0  0  0  0  0  0  0  0  0
   -0.0020    1.4057   -0.0090 C   0  0  0  0  0  0  0  0  0  0  0  0
   -1.1987    0.7036   -0.0119 C   0  0  0  0  0  0  0  0  0  0  0  0
   -2.0657    1.1888   -0.0237 H   0  0  0  0  0  0  0  0  0  0  0  0
   -1.2050   -0.6997   -0.0000 C   0  0  0  0  0  0  0  0  0  0  0  0
   -2.0805   -1.1879   -0.0016 H   0  0  0  0  0  0  0  0  0  0  0  0
    0.0010   -1.3998    0.0161 C   0  0  0  0  0  0  0  0  0  0  0  0
   -0.0047   -2.3961    0.0387 H   0  0  0  0  0  0  0  0  0  0  0  0
    1.2050   -0.7022   -0.0000 C   0  0  0  0  0  0  0  0  0  0  0  0
    2.0846   -1.1989   -0.0133 H   0  0  0  0  0  0  0  0  0  0  0  0
    1.1996    0.6924    0.0048 C   0  0  0  0  0  0  0  0  0  0  0  0
    2.0668    1.1894    0.0178 H   0  0  0  0  0  0  0  0  0  0  0  0
  1  5  1  0
  5  8  1  0
  1  2  1  0
  1  3  1  0
  1  4  1  0
  5  6  1  0
  5  7  1  0
  8  9  1  0
  8 10  1  0
  8 11  1  0
 12 16  1  0
 16 17  2  0
 17 19  1  0
 19 21  2  0
 21 23  1  0
 23 25  2  0
 25 16  1  0
 12 13  1  0
 12 14  1  0
 12 15  1  0
 17 18  1  0
 19 20  1  0
 21 22  1  0
 23 24  1  0
 25 26  1  0
M  CHG  1   8   1
M  END
>  <PDB_ID>  (453) 
pdb2gk3

>  <RESIDUE_NAME>  (453) 
LYS   PHE

>  <FRAG_NAME>  (453) 
ETAM   MBZ

>  <FRAG_ATOM_NUM>  (453) 
fragi: 11  fragj: 15

>  <atom.prop.CHAIN_ID>  (453) 
A A A A A A A A A A A Z Z Z Z Z Z Z Z Z Z Z Z Z Z Z

>  <atom.prop.IS_HEAVY_ATOM>  (453) 
1 0 0 0 1 0 0 1 0 0 0 1 0 0 0 1 1 0 1 0 1 0 1 0 1 0

>  <DIFUSE_FUNC_ATOM>  (453) 
n/a

>  <FINAL_SINGLE_POINT_ENERGY>  (453) 
0

>  <NONCOV_INTER_ENERGY_QM>  (453) 
0

>  <FF_Energy>  (453) 
3.12

>  <QM_Energy>  (453) 
-2.6

>  <source>  (453) 
ETAM_MBZ

>  <Index>  (453) 
4283

$$$$
ETAM-pdb1fpz-C-LYS-86:MBZ-pdb1fpz-C-PHE-53
     RDKit          3D

 26 25  0  0  0  0  0  0  0  0999 V2000
   -3.5368   -2.5401   -3.7525 C   0  0  0  0  0  0  0  0  0  0  0  0
   -4.3055   -3.1723   -3.7677 H   0  0  0  0  0  0  0  0  0  0  0  0
   -3.1496   -2.4476   -4.6650 H   0  0  0  0  0  0  0  0  0  0  0  0
   -3.8721   -1.5660   -3.3964 H   0  0  0  0  0  0  0  0  0  0  0  0
   -2.4646   -3.1191   -2.8392 C   0  0  0  0  0  0  0  0  0  0  0  0
   -2.7108   -2.9465   -1.9009 H   0  0  0  0  0  0  0  0  0  0  0  0
   -2.3691   -4.0825   -3.0217 H   0  0  0  0  0  0  0  0  0  0  0  0
   -1.1849   -2.4239   -3.1548 N   0  0  0  0  0  4  0  0  0  0  0  0
   -1.3220   -1.4364   -3.0945 H   0  0  0  0  0  0  0  0  0  0  0  0
   -0.4854   -2.7061   -2.4996 H   0  0  0  0  0  0  0  0  0  0  0  0
   -0.8962   -2.6665   -4.0799 H   0  0  0  0  0  0  0  0  0  0  0  0
   -0.0070    2.8749    0.0357 C   0  0  0  0  0  0  0  0  0  0  0  0
   -0.6690    3.2005   -0.6245 H   0  0  0  0  0  0  0  0  0  0  0  0
    0.9031    3.1992   -0.1809 H   0  0  0  0  0  0  0  0  0  0  0  0
   -0.2807    3.2871    1.0069 H   0  0  0  0  0  0  0  0  0  0  0  0
    0.0009    1.3919    0.0013 C   0  0  0  0  0  0  0  0  0  0  0  0
   -1.1974    0.6906   -0.0012 C   0  0  0  0  0  0  0  0  0  0  0  0
   -2.0621    1.1872   -0.0056 H   0  0  0  0  0  0  0  0  0  0  0  0
   -1.2118   -0.6973    0.0000 C   0  0  0  0  0  0  0  0  0  0  0  0
   -2.0840   -1.1898    0.0021 H   0  0  0  0  0  0  0  0  0  0  0  0
   -0.0052   -1.3926   -0.0007 C   0  0  0  0  0  0  0  0  0  0  0  0
    0.0003   -2.3878   -0.0023 H   0  0  0  0  0  0  0  0  0  0  0  0
    1.2118   -0.6853   -0.0000 C   0  0  0  0  0  0  0  0  0  0  0  0
    2.0851   -1.1925    0.0009 H   0  0  0  0  0  0  0  0  0  0  0  0
    1.2017    0.6927    0.0006 C   0  0  0  0  0  0  0  0  0  0  0  0
    2.0651    1.1992   -0.0008 H   0  0  0  0  0  0  0  0  0  0  0  0
  1  5  1  0
  5  8  1  0
  1  2  1  0
  1  3  1  0
  1  4  1  0
  5  6  1  0
  5  7  1  0
  8  9  1  0
  8 10  1  0
  8 11  1  0
 12 16  1  0
 16 17  2  0
 17 19  1  0
 19 21  2  0
 21 23  1  0
 23 25  2  0
 25 16  1  0
 12 13  1  0
 12 14  1  0
 12 15  1  0
 17 18  1  0
 19 20  1  0
 21 22  1  0
 23 24  1  0
 25 26  1  0
M  CHG  1   8   1
M  END
>  <PDB_ID>  (454) 
pdb1fpz

>  <RESIDUE_NAME>  (454) 
LYS   PHE

>  <FRAG_NAME>  (454) 
ETAM   MBZ

>  <FRAG_ATOM_NUM>  (454) 
fragi: 11  fragj: 15

>  <atom.prop.CHAIN_ID>  (454) 
A A A A A A A A A A A Z Z Z Z Z Z Z Z Z Z Z Z Z Z Z

>  <atom.prop.IS_HEAVY_ATOM>  (454) 
1 0 0 0 1 0 0 1 0 0 0 1 0 0 0 1 1 0 1 0 1 0 1 0 1 0

>  <DIFUSE_FUNC_ATOM>  (454) 
n/a

>  <FINAL_SINGLE_POINT_ENERGY>  (454) 
0

>  <NONCOV_INTER_ENERGY_QM>  (454) 
0

>  <FF_Energy>  (454) 
-3.59

>  <QM_Energy>  (454) 
-9.69

>  <source>  (454) 
ETAM_MBZ

>  <Index>  (454) 
4286

$$$$
ETAM-pdb1fpz-D-LYS-86:MBZ-pdb1fpz-D-PHE-53
     RDKit          3D

 26 25  0  0  0  0  0  0  0  0999 V2000
   -3.9543   -0.8925   -4.6112 C   0  0  0  0  0  0  0  0  0  0  0  0
   -4.5285   -1.5373   -5.1014 H   0  0  0  0  0  0  0  0  0  0  0  0
   -3.0823   -0.7784   -5.0707 H   0  0  0  0  0  0  0  0  0  0  0  0
   -4.4612    0.0721   -4.5813 H   0  0  0  0  0  0  0  0  0  0  0  0
   -3.7092   -1.4165   -3.2147 C   0  0  0  0  0  0  0  0  0  0  0  0
   -4.5083   -1.9233   -2.9069 H   0  0  0  0  0  0  0  0  0  0  0  0
   -2.9071   -2.0053   -3.2185 H   0  0  0  0  0  0  0  0  0  0  0  0
   -3.4690   -0.2715   -2.2830 N   0  0  0  0  0  4  0  0  0  0  0  0
   -2.5013   -0.0264   -2.3069 H   0  0  0  0  0  0  0  0  0  0  0  0
   -4.0215    0.5081   -2.5717 H   0  0  0  0  0  0  0  0  0  0  0  0
   -3.7256   -0.5429   -1.3576 H   0  0  0  0  0  0  0  0  0  0  0  0
    0.0016    2.8830    0.0922 C   0  0  0  0  0  0  0  0  0  0  0  0
   -0.7332    3.2338   -0.4679 H   0  0  0  0  0  0  0  0  0  0  0  0
    0.8799    3.2135   -0.2174 H   0  0  0  0  0  0  0  0  0  0  0  0
   -0.1509    3.2543    1.1057 H   0  0  0  0  0  0  0  0  0  0  0  0
   -0.0025    1.3991    0.0011 C   0  0  0  0  0  0  0  0  0  0  0  0
   -1.2014    0.7003   -0.0020 C   0  0  0  0  0  0  0  0  0  0  0  0
   -2.0663    1.1911   -0.0071 H   0  0  0  0  0  0  0  0  0  0  0  0
   -1.2103   -0.6942   -0.0000 C   0  0  0  0  0  0  0  0  0  0  0  0
   -2.0814   -1.1890    0.0009 H   0  0  0  0  0  0  0  0  0  0  0  0
    0.0028   -1.3960    0.0027 C   0  0  0  0  0  0  0  0  0  0  0  0
   -0.0046   -2.3919    0.0058 H   0  0  0  0  0  0  0  0  0  0  0  0
    1.2103   -0.6980   -0.0000 C   0  0  0  0  0  0  0  0  0  0  0  0
    2.0872   -1.1979    0.0008 H   0  0  0  0  0  0  0  0  0  0  0  0
    1.2011    0.6887   -0.0018 C   0  0  0  0  0  0  0  0  0  0  0  0
    2.0661    1.1917   -0.0061 H   0  0  0  0  0  0  0  0  0  0  0  0
  1  5  1  0
  5  8  1  0
  1  2  1  0
  1  3  1  0
  1  4  1  0
  5  6  1  0
  5  7  1  0
  8  9  1  0
  8 10  1  0
  8 11  1  0
 12 16  1  0
 16 17  2  0
 17 19  1  0
 19 21  2  0
 21 23  1  0
 23 25  2  0
 25 16  1  0
 12 13  1  0
 12 14  1  0
 12 15  1  0
 17 18  1  0
 19 20  1  0
 21 22  1  0
 23 24  1  0
 25 26  1  0
M  CHG  1   8   1
M  END
>  <PDB_ID>  (455) 
pdb1fpz

>  <RESIDUE_NAME>  (455) 
LYS   PHE

>  <FRAG_NAME>  (455) 
ETAM   MBZ

>  <FRAG_ATOM_NUM>  (455) 
fragi: 11  fragj: 15

>  <atom.prop.CHAIN_ID>  (455) 
A A A A A A A A A A A Z Z Z Z Z Z Z Z Z Z Z Z Z Z Z

>  <atom.prop.IS_HEAVY_ATOM>  (455) 
1 0 0 0 1 0 0 1 0 0 0 1 0 0 0 1 1 0 1 0 1 0 1 0 1 0

>  <DIFUSE_FUNC_ATOM>  (455) 
n/a

>  <FINAL_SINGLE_POINT_ENERGY>  (455) 
0

>  <NONCOV_INTER_ENERGY_QM>  (455) 
0

>  <FF_Energy>  (455) 
-1.45

>  <QM_Energy>  (455) 
-7.92

>  <source>  (455) 
ETAM_MBZ

>  <Index>  (455) 
4287

$$$$
ETAM-pdb2gmh-A-LYS-226:MBZ-pdb2gmh-A-PHE-172
     RDKit          3D

 26 25  0  0  0  0  0  0  0  0999 V2000
    2.0553   -2.3088   -4.2174 C   0  0  0  0  0  0  0  0  0  0  0  0
    2.9219   -1.9403   -3.8937 H   0  0  0  0  0  0  0  0  0  0  0  0
    2.1916   -2.8182   -5.0611 H   0  0  0  0  0  0  0  0  0  0  0  0
    1.6443   -2.9749   -3.4588 H   0  0  0  0  0  0  0  0  0  0  0  0
    1.1152   -1.1629   -4.4906 C   0  0  0  0  0  0  0  0  0  0  0  0
    1.4270   -0.6675   -5.2976 H   0  0  0  0  0  0  0  0  0  0  0  0
    0.1964   -1.5199   -4.6460 H   0  0  0  0  0  0  0  0  0  0  0  0
    1.0937   -0.2450   -3.3299 N   0  0  0  0  0  4  0  0  0  0  0  0
    0.9237    0.6903   -3.6444 H   0  0  0  0  0  0  0  0  0  0  0  0
    0.3677   -0.5193   -2.6984 H   0  0  0  0  0  0  0  0  0  0  0  0
    1.9752   -0.2808   -2.8569 H   0  0  0  0  0  0  0  0  0  0  0  0
    0.0010    2.8984    0.0161 C   0  0  0  0  0  0  0  0  0  0  0  0
   -0.8110    3.2149   -0.4530 H   0  0  0  0  0  0  0  0  0  0  0  0
    0.8221    3.2134   -0.4384 H   0  0  0  0  0  0  0  0  0  0  0  0
   -0.0075    3.3289    1.0174 H   0  0  0  0  0  0  0  0  0  0  0  0
   -0.0000    1.4070    0.0013 C   0  0  0  0  0  0  0  0  0  0  0  0
   -1.2035    0.6973   -0.0009 C   0  0  0  0  0  0  0  0  0  0  0  0
   -2.0680    1.1854   -0.0043 H   0  0  0  0  0  0  0  0  0  0  0  0
   -1.2093   -0.7035   -0.0000 C   0  0  0  0  0  0  0  0  0  0  0  0
   -2.0825   -1.1942    0.0032 H   0  0  0  0  0  0  0  0  0  0  0  0
    0.0003   -1.4008   -0.0012 C   0  0  0  0  0  0  0  0  0  0  0  0
   -0.0011   -2.3974   -0.0029 H   0  0  0  0  0  0  0  0  0  0  0  0
    1.2093   -0.6986   -0.0000 C   0  0  0  0  0  0  0  0  0  0  0  0
    2.0878   -1.1951    0.0018 H   0  0  0  0  0  0  0  0  0  0  0  0
    1.2032    0.6986    0.0008 C   0  0  0  0  0  0  0  0  0  0  0  0
    2.0689    1.1949    0.0007 H   0  0  0  0  0  0  0  0  0  0  0  0
  1  5  1  0
  5  8  1  0
  1  2  1  0
  1  3  1  0
  1  4  1  0
  5  6  1  0
  5  7  1  0
  8  9  1  0
  8 10  1  0
  8 11  1  0
 12 16  1  0
 16 17  2  0
 17 19  1  0
 19 21  2  0
 21 23  1  0
 23 25  2  0
 25 16  1  0
 12 13  1  0
 12 14  1  0
 12 15  1  0
 17 18  1  0
 19 20  1  0
 21 22  1  0
 23 24  1  0
 25 26  1  0
M  CHG  1   8   1
M  END
>  <PDB_ID>  (456) 
pdb2gmh

>  <RESIDUE_NAME>  (456) 
LYS   PHE

>  <FRAG_NAME>  (456) 
ETAM   MBZ

>  <FRAG_ATOM_NUM>  (456) 
fragi: 11  fragj: 15

>  <atom.prop.CHAIN_ID>  (456) 
A A A A A A A A A A A Z Z Z Z Z Z Z Z Z Z Z Z Z Z Z

>  <atom.prop.IS_HEAVY_ATOM>  (456) 
1 0 0 0 1 0 0 1 0 0 0 1 0 0 0 1 1 0 1 0 1 0 1 0 1 0

>  <DIFUSE_FUNC_ATOM>  (456) 
n/a

>  <FINAL_SINGLE_POINT_ENERGY>  (456) 
0

>  <NONCOV_INTER_ENERGY_QM>  (456) 
0

>  <FF_Energy>  (456) 
-7.38

>  <QM_Energy>  (456) 
-13.84

>  <source>  (456) 
ETAM_MBZ

>  <Index>  (456) 
4303

$$$$
ETAM-pdb2gk3-C-LYS-25:MBZ-pdb2gk3-C-PHE-30
     RDKit          3D

 26 25  0  0  0  0  0  0  0  0999 V2000
    5.7273   -1.5833   -0.4235 C   0  0  0  0  0  0  0  0  0  0  0  0
    5.3912   -0.7846   -0.9024 H   0  0  0  0  0  0  0  0  0  0  0  0
    6.4925   -1.9905   -0.9023 H   0  0  0  0  0  0  0  0  0  0  0  0
    6.0453   -1.2922    0.5777 H   0  0  0  0  0  0  0  0  0  0  0  0
    4.6146   -2.5989   -0.3312 C   0  0  0  0  0  0  0  0  0  0  0  0
    5.0076   -3.5061   -0.1741 H   0  0  0  0  0  0  0  0  0  0  0  0
    4.0146   -2.3622    0.4339 H   0  0  0  0  0  0  0  0  0  0  0  0
    3.8145   -2.6260   -1.5860 N   0  0  0  0  0  4  0  0  0  0  0  0
    3.2748   -1.7871   -1.6533 H   0  0  0  0  0  0  0  0  0  0  0  0
    4.4304   -2.6913   -2.3704 H   0  0  0  0  0  0  0  0  0  0  0  0
    3.2039   -3.4171   -1.5724 H   0  0  0  0  0  0  0  0  0  0  0  0
   -0.0033    2.9071    0.0205 C   0  0  0  0  0  0  0  0  0  0  0  0
   -0.8662    3.2199   -0.3476 H   0  0  0  0  0  0  0  0  0  0  0  0
    0.7571    3.2260   -0.5250 H   0  0  0  0  0  0  0  0  0  0  0  0
    0.1044    3.3361    1.0168 H   0  0  0  0  0  0  0  0  0  0  0  0
   -0.0001    1.4063   -0.0005 C   0  0  0  0  0  0  0  0  0  0  0  0
   -1.2018    0.6960    0.0032 C   0  0  0  0  0  0  0  0  0  0  0  0
   -2.0669    1.1785    0.0072 H   0  0  0  0  0  0  0  0  0  0  0  0
   -1.2028   -0.7098    0.0000 C   0  0  0  0  0  0  0  0  0  0  0  0
   -2.0753   -1.2007   -0.0001 H   0  0  0  0  0  0  0  0  0  0  0  0
    0.0064   -1.3967   -0.0012 C   0  0  0  0  0  0  0  0  0  0  0  0
    0.0104   -2.3957   -0.0033 H   0  0  0  0  0  0  0  0  0  0  0  0
    1.2028   -0.6911   -0.0000 C   0  0  0  0  0  0  0  0  0  0  0  0
    2.0880   -1.1883    0.0034 H   0  0  0  0  0  0  0  0  0  0  0  0
    1.1955    0.6953   -0.0015 C   0  0  0  0  0  0  0  0  0  0  0  0
    2.0649    1.1951   -0.0036 H   0  0  0  0  0  0  0  0  0  0  0  0
  1  5  1  0
  5  8  1  0
  1  2  1  0
  1  3  1  0
  1  4  1  0
  5  6  1  0
  5  7  1  0
  8  9  1  0
  8 10  1  0
  8 11  1  0
 12 16  1  0
 16 17  2  0
 17 19  1  0
 19 21  2  0
 21 23  1  0
 23 25  2  0
 25 16  1  0
 12 13  1  0
 12 14  1  0
 12 15  1  0
 17 18  1  0
 19 20  1  0
 21 22  1  0
 23 24  1  0
 25 26  1  0
M  CHG  1   8   1
M  END
>  <PDB_ID>  (457) 
pdb2gk3

>  <RESIDUE_NAME>  (457) 
LYS   PHE

>  <FRAG_NAME>  (457) 
ETAM   MBZ

>  <FRAG_ATOM_NUM>  (457) 
fragi: 11  fragj: 15

>  <atom.prop.CHAIN_ID>  (457) 
A A A A A A A A A A A Z Z Z Z Z Z Z Z Z Z Z Z Z Z Z

>  <atom.prop.IS_HEAVY_ATOM>  (457) 
1 0 0 0 1 0 0 1 0 0 0 1 0 0 0 1 1 0 1 0 1 0 1 0 1 0

>  <DIFUSE_FUNC_ATOM>  (457) 
n/a

>  <FINAL_SINGLE_POINT_ENERGY>  (457) 
0

>  <NONCOV_INTER_ENERGY_QM>  (457) 
0

>  <FF_Energy>  (457) 
0.53

>  <QM_Energy>  (457) 
-4.58

>  <source>  (457) 
ETAM_MBZ

>  <Index>  (457) 
4305

$$$$
ETAM-pdb2ghi-B-LYS-81:MBZ-pdb2ghi-B-PHE-5
     RDKit          3D

 26 25  0  0  0  0  0  0  0  0999 V2000
   -3.7091   -1.6972    2.3172 C   0  0  0  0  0  0  0  0  0  0  0  0
   -3.1005   -1.5409    1.5584 H   0  0  0  0  0  0  0  0  0  0  0  0
   -3.8760   -0.8729    2.8303 H   0  0  0  0  0  0  0  0  0  0  0  0
   -4.6608   -2.0545    1.9238 H   0  0  0  0  0  0  0  0  0  0  0  0
   -3.0382   -2.7461    3.2775 C   0  0  0  0  0  0  0  0  0  0  0  0
   -3.0385   -2.3576    4.2195 H   0  0  0  0  0  0  0  0  0  0  0  0
   -3.6326   -3.5738    3.3058 H   0  0  0  0  0  0  0  0  0  0  0  0
   -1.5958   -3.2082    2.9547 N   0  0  0  0  0  4  0  0  0  0  0  0
   -1.6518   -4.1087    2.5473 H   0  0  0  0  0  0  0  0  0  0  0  0
   -1.2042   -2.5539    2.3233 H   0  0  0  0  0  0  0  0  0  0  0  0
   -1.0892   -3.2309    3.8054 H   0  0  0  0  0  0  0  0  0  0  0  0
    0.0140    2.9125    0.0385 C   0  0  0  0  0  0  0  0  0  0  0  0
   -0.7479    3.2363   -0.4983 H   0  0  0  0  0  0  0  0  0  0  0  0
    0.8758    3.2262   -0.3240 H   0  0  0  0  0  0  0  0  0  0  0  0
   -0.0910    3.3285    1.0406 H   0  0  0  0  0  0  0  0  0  0  0  0
    0.0086    1.4088    0.0054 C   0  0  0  0  0  0  0  0  0  0  0  0
   -1.2026    0.6965    0.0036 C   0  0  0  0  0  0  0  0  0  0  0  0
   -2.0620    1.1911    0.0034 H   0  0  0  0  0  0  0  0  0  0  0  0
   -1.2071   -0.6959    0.0000 C   0  0  0  0  0  0  0  0  0  0  0  0
   -2.0853   -1.1892    0.0067 H   0  0  0  0  0  0  0  0  0  0  0  0
   -0.0051   -1.4034   -0.0116 C   0  0  0  0  0  0  0  0  0  0  0  0
   -0.0122   -2.3973   -0.0287 H   0  0  0  0  0  0  0  0  0  0  0  0
    1.2071   -0.7055   -0.0000 C   0  0  0  0  0  0  0  0  0  0  0  0
    2.0839   -1.1990    0.0078 H   0  0  0  0  0  0  0  0  0  0  0  0
    1.1991    0.6994    0.0026 C   0  0  0  0  0  0  0  0  0  0  0  0
    2.0720    1.1884    0.0013 H   0  0  0  0  0  0  0  0  0  0  0  0
  1  5  1  0
  5  8  1  0
  1  2  1  0
  1  3  1  0
  1  4  1  0
  5  6  1  0
  5  7  1  0
  8  9  1  0
  8 10  1  0
  8 11  1  0
 12 16  1  0
 16 17  2  0
 17 19  1  0
 19 21  2  0
 21 23  1  0
 23 25  2  0
 25 16  1  0
 12 13  1  0
 12 14  1  0
 12 15  1  0
 17 18  1  0
 19 20  1  0
 21 22  1  0
 23 24  1  0
 25 26  1  0
M  CHG  1   8   1
M  END
>  <PDB_ID>  (458) 
pdb2ghi

>  <RESIDUE_NAME>  (458) 
LYS   PHE

>  <FRAG_NAME>  (458) 
ETAM   MBZ

>  <FRAG_ATOM_NUM>  (458) 
fragi: 11  fragj: 15

>  <atom.prop.CHAIN_ID>  (458) 
A A A A A A A A A A A Z Z Z Z Z Z Z Z Z Z Z Z Z Z Z

>  <atom.prop.IS_HEAVY_ATOM>  (458) 
1 0 0 0 1 0 0 1 0 0 0 1 0 0 0 1 1 0 1 0 1 0 1 0 1 0

>  <DIFUSE_FUNC_ATOM>  (458) 
n/a

>  <FINAL_SINGLE_POINT_ENERGY>  (458) 
0

>  <NONCOV_INTER_ENERGY_QM>  (458) 
0

>  <FF_Energy>  (458) 
-0.11

>  <QM_Energy>  (458) 
-6.53

>  <source>  (458) 
ETAM_MBZ

>  <Index>  (458) 
4317

$$$$
ETAM-pdb1fng-C-LYS-74:MBZ-pdb1fng-D-PHE-7
     RDKit          3D

 26 25  0  0  0  0  0  0  0  0999 V2000
    0.3746    2.1130    3.7575 C   0  0  0  0  0  0  0  0  0  0  0  0
    0.8104    2.5877    3.0013 H   0  0  0  0  0  0  0  0  0  0  0  0
    0.7088    2.4598    4.6264 H   0  0  0  0  0  0  0  0  0  0  0  0
   -0.7009    2.2819    3.7033 H   0  0  0  0  0  0  0  0  0  0  0  0
    0.7221    0.6243    3.6619 C   0  0  0  0  0  0  0  0  0  0  0  0
    0.4270    0.1712    4.5027 H   0  0  0  0  0  0  0  0  0  0  0  0
    0.2355    0.2299    2.8820 H   0  0  0  0  0  0  0  0  0  0  0  0
    2.1904    0.4193    3.4807 N   0  0  0  0  0  4  0  0  0  0  0  0
    2.3446   -0.4303    2.9785 H   0  0  0  0  0  0  0  0  0  0  0  0
    2.5691    1.1877    2.9666 H   0  0  0  0  0  0  0  0  0  0  0  0
    2.6278    0.3648    4.3773 H   0  0  0  0  0  0  0  0  0  0  0  0
   -0.0013    2.9017   -0.0813 C   0  0  0  0  0  0  0  0  0  0  0  0
    0.8834    3.2230    0.2109 H   0  0  0  0  0  0  0  0  0  0  0  0
   -0.7244    3.2392    0.4983 H   0  0  0  0  0  0  0  0  0  0  0  0
   -0.1784    3.2715   -1.0912 H   0  0  0  0  0  0  0  0  0  0  0  0
   -0.0013    1.4027   -0.0003 C   0  0  0  0  0  0  0  0  0  0  0  0
   -1.2007    0.6939    0.0022 C   0  0  0  0  0  0  0  0  0  0  0  0
   -2.0656    1.1844    0.0043 H   0  0  0  0  0  0  0  0  0  0  0  0
   -1.2040   -0.6974    0.0000 C   0  0  0  0  0  0  0  0  0  0  0  0
   -2.0770   -1.1933    0.0026 H   0  0  0  0  0  0  0  0  0  0  0  0
    0.0037   -1.3938   -0.0036 C   0  0  0  0  0  0  0  0  0  0  0  0
   -0.0039   -2.3932   -0.0091 H   0  0  0  0  0  0  0  0  0  0  0  0
    1.2040   -0.7004   -0.0000 C   0  0  0  0  0  0  0  0  0  0  0  0
    2.0849   -1.1947    0.0030 H   0  0  0  0  0  0  0  0  0  0  0  0
    1.1983    0.6950    0.0017 C   0  0  0  0  0  0  0  0  0  0  0  0
    2.0656    1.1905    0.0040 H   0  0  0  0  0  0  0  0  0  0  0  0
  1  5  1  0
  5  8  1  0
  1  2  1  0
  1  3  1  0
  1  4  1  0
  5  6  1  0
  5  7  1  0
  8  9  1  0
  8 10  1  0
  8 11  1  0
 12 16  1  0
 16 17  2  0
 17 19  1  0
 19 21  2  0
 21 23  1  0
 23 25  2  0
 25 16  1  0
 12 13  1  0
 12 14  1  0
 12 15  1  0
 17 18  1  0
 19 20  1  0
 21 22  1  0
 23 24  1  0
 25 26  1  0
M  CHG  1   8   1
M  END
>  <PDB_ID>  (459) 
pdb1fng

>  <RESIDUE_NAME>  (459) 
LYS   PHE

>  <FRAG_NAME>  (459) 
ETAM   MBZ

>  <FRAG_ATOM_NUM>  (459) 
fragi: 11  fragj: 15

>  <atom.prop.CHAIN_ID>  (459) 
A A A A A A A A A A A Z Z Z Z Z Z Z Z Z Z Z Z Z Z Z

>  <atom.prop.IS_HEAVY_ATOM>  (459) 
1 0 0 0 1 0 0 1 0 0 0 1 0 0 0 1 1 0 1 0 1 0 1 0 1 0

>  <DIFUSE_FUNC_ATOM>  (459) 
n/a

>  <FINAL_SINGLE_POINT_ENERGY>  (459) 
0

>  <NONCOV_INTER_ENERGY_QM>  (459) 
0

>  <FF_Energy>  (459) 
-5.97

>  <QM_Energy>  (459) 
-11.32

>  <source>  (459) 
ETAM_MBZ

>  <Index>  (459) 
4320

$$$$
ETAM-pdb2gk3-D-LYS-25:MBZ-pdb2gk3-D-PHE-30
     RDKit          3D

 26 25  0  0  0  0  0  0  0  0999 V2000
    5.2451   -1.6093    0.0060 C   0  0  0  0  0  0  0  0  0  0  0  0
    4.6795   -0.8129   -0.2086 H   0  0  0  0  0  0  0  0  0  0  0  0
    5.9863   -1.6826   -0.6610 H   0  0  0  0  0  0  0  0  0  0  0  0
    5.6704   -1.4873    1.0021 H   0  0  0  0  0  0  0  0  0  0  0  0
    4.3841   -2.8506   -0.0971 C   0  0  0  0  0  0  0  0  0  0  0  0
    4.9565   -3.6517   -0.1092 H   0  0  0  0  0  0  0  0  0  0  0  0
    3.7381   -2.8695    0.6462 H   0  0  0  0  0  0  0  0  0  0  0  0
    3.6261   -2.7728   -1.4006 N   0  0  0  0  0  4  0  0  0  0  0  0
    3.9149   -3.5258   -1.9852 H   0  0  0  0  0  0  0  0  0  0  0  0
    2.6506   -2.8420   -1.2094 H   0  0  0  0  0  0  0  0  0  0  0  0
    3.8291   -1.9008   -1.8379 H   0  0  0  0  0  0  0  0  0  0  0  0
   -0.0118    2.9115    0.0028 C   0  0  0  0  0  0  0  0  0  0  0  0
   -0.8743    3.2115   -0.3745 H   0  0  0  0  0  0  0  0  0  0  0  0
    0.7495    3.2253   -0.5449 H   0  0  0  0  0  0  0  0  0  0  0  0
    0.0889    3.3548    0.9935 H   0  0  0  0  0  0  0  0  0  0  0  0
    0.0010    1.4072    0.0016 C   0  0  0  0  0  0  0  0  0  0  0  0
   -1.1991    0.6839   -0.0005 C   0  0  0  0  0  0  0  0  0  0  0  0
   -2.0662    1.1804   -0.0042 H   0  0  0  0  0  0  0  0  0  0  0  0
   -1.2068   -0.6990   -0.0000 C   0  0  0  0  0  0  0  0  0  0  0  0
   -2.0827   -1.1954    0.0048 H   0  0  0  0  0  0  0  0  0  0  0  0
   -0.0048   -1.3981   -0.0036 C   0  0  0  0  0  0  0  0  0  0  0  0
   -0.0063   -2.3950   -0.0094 H   0  0  0  0  0  0  0  0  0  0  0  0
    1.2068   -0.6985    0.0000 C   0  0  0  0  0  0  0  0  0  0  0  0
    2.0838   -1.1943    0.0023 H   0  0  0  0  0  0  0  0  0  0  0  0
    1.2029    0.7045    0.0025 C   0  0  0  0  0  0  0  0  0  0  0  0
    2.0688    1.1964    0.0044 H   0  0  0  0  0  0  0  0  0  0  0  0
  1  5  1  0
  5  8  1  0
  1  2  1  0
  1  3  1  0
  1  4  1  0
  5  6  1  0
  5  7  1  0
  8  9  1  0
  8 10  1  0
  8 11  1  0
 12 16  1  0
 16 17  2  0
 17 19  1  0
 19 21  2  0
 21 23  1  0
 23 25  2  0
 25 16  1  0
 12 13  1  0
 12 14  1  0
 12 15  1  0
 17 18  1  0
 19 20  1  0
 21 22  1  0
 23 24  1  0
 25 26  1  0
M  CHG  1   8   1
M  END
>  <PDB_ID>  (460) 
pdb2gk3

>  <RESIDUE_NAME>  (460) 
LYS   PHE

>  <FRAG_NAME>  (460) 
ETAM   MBZ

>  <FRAG_ATOM_NUM>  (460) 
fragi: 11  fragj: 15

>  <atom.prop.CHAIN_ID>  (460) 
A A A A A A A A A A A Z Z Z Z Z Z Z Z Z Z Z Z Z Z Z

>  <atom.prop.IS_HEAVY_ATOM>  (460) 
1 0 0 0 1 0 0 1 0 0 0 1 0 0 0 1 1 0 1 0 1 0 1 0 1 0

>  <DIFUSE_FUNC_ATOM>  (460) 
n/a

>  <FINAL_SINGLE_POINT_ENERGY>  (460) 
0

>  <NONCOV_INTER_ENERGY_QM>  (460) 
0

>  <FF_Energy>  (460) 
0.83

>  <QM_Energy>  (460) 
-4.69

>  <source>  (460) 
ETAM_MBZ

>  <Index>  (460) 
4341

$$$$
ETAM-pdb2go2-A-LYS-113:MBZ-pdb2go2-A-PHE-73
     RDKit          3D

 26 25  0  0  0  0  0  0  0  0999 V2000
   -1.2166   -0.2949   -4.5603 C   0  0  0  0  0  0  0  0  0  0  0  0
   -1.7121   -1.0432   -4.9455 H   0  0  0  0  0  0  0  0  0  0  0  0
   -0.6051    0.1335   -5.1897 H   0  0  0  0  0  0  0  0  0  0  0  0
   -1.9116    0.4412   -4.1565 H   0  0  0  0  0  0  0  0  0  0  0  0
   -0.3872   -0.8283   -3.3770 C   0  0  0  0  0  0  0  0  0  0  0  0
   -0.1190   -0.0775   -2.7973 H   0  0  0  0  0  0  0  0  0  0  0  0
   -0.9129   -1.5013   -2.8830 H   0  0  0  0  0  0  0  0  0  0  0  0
    0.8937   -1.5104   -3.9076 N   0  0  0  0  0  4  0  0  0  0  0  0
    0.7276   -1.7789   -4.8468 H   0  0  0  0  0  0  0  0  0  0  0  0
    1.6331   -0.8535   -3.8506 H   0  0  0  0  0  0  0  0  0  0  0  0
    1.0741   -2.3008   -3.3378 H   0  0  0  0  0  0  0  0  0  0  0  0
   -0.0177    2.9240   -0.0338 C   0  0  0  0  0  0  0  0  0  0  0  0
    0.8589    3.2615    0.2583 H   0  0  0  0  0  0  0  0  0  0  0  0
   -0.7502    3.2541    0.5338 H   0  0  0  0  0  0  0  0  0  0  0  0
   -0.1923    3.2968   -1.0431 H   0  0  0  0  0  0  0  0  0  0  0  0
    0.0003    1.4359    0.0299 C   0  0  0  0  0  0  0  0  0  0  0  0
   -1.2196    0.6943   -0.0320 C   0  0  0  0  0  0  0  0  0  0  0  0
   -2.0845    1.1608   -0.0998 H   0  0  0  0  0  0  0  0  0  0  0  0
   -1.2378   -0.7757   -0.0000 C   0  0  0  0  0  0  0  0  0  0  0  0
   -2.0924   -1.2378    0.0383 H   0  0  0  0  0  0  0  0  0  0  0  0
    0.0043   -1.4420   -0.0248 C   0  0  0  0  0  0  0  0  0  0  0  0
    0.0422   -2.4318   -0.0602 H   0  0  0  0  0  0  0  0  0  0  0  0
    1.2378   -0.6933    0.0000 C   0  0  0  0  0  0  0  0  0  0  0  0
    2.1162   -1.1556    0.0010 H   0  0  0  0  0  0  0  0  0  0  0  0
    1.2150    0.7808    0.0268 C   0  0  0  0  0  0  0  0  0  0  0  0
    2.0726    1.2493    0.0412 H   0  0  0  0  0  0  0  0  0  0  0  0
  1  5  1  0
  5  8  1  0
  1  2  1  0
  1  3  1  0
  1  4  1  0
  5  6  1  0
  5  7  1  0
  8  9  1  0
  8 10  1  0
  8 11  1  0
 12 16  1  0
 16 17  2  0
 17 19  1  0
 19 21  2  0
 21 23  1  0
 23 25  2  0
 25 16  1  0
 12 13  1  0
 12 14  1  0
 12 15  1  0
 17 18  1  0
 19 20  1  0
 21 22  1  0
 23 24  1  0
 25 26  1  0
M  CHG  1   8   1
M  END
>  <PDB_ID>  (461) 
pdb2go2

>  <RESIDUE_NAME>  (461) 
LYS   PHE

>  <FRAG_NAME>  (461) 
ETAM   MBZ

>  <FRAG_ATOM_NUM>  (461) 
fragi: 11  fragj: 15

>  <atom.prop.CHAIN_ID>  (461) 
A A A A A A A A A A A Z Z Z Z Z Z Z Z Z Z Z Z Z Z Z

>  <atom.prop.IS_HEAVY_ATOM>  (461) 
1 0 0 0 1 0 0 1 0 0 0 1 0 0 0 1 1 0 1 0 1 0 1 0 1 0

>  <DIFUSE_FUNC_ATOM>  (461) 
n/a

>  <FINAL_SINGLE_POINT_ENERGY>  (461) 
0

>  <NONCOV_INTER_ENERGY_QM>  (461) 
0

>  <FF_Energy>  (461) 
-5.35

>  <QM_Energy>  (461) 
-10.46

>  <source>  (461) 
ETAM_MBZ

>  <Index>  (461) 
4345

$$$$
ETAM-pdb1ft5-A-LYS-115:MBZ-pdb1ft5-A-PHE-109
     RDKit          3D

 26 25  0  0  0  0  0  0  0  0999 V2000
   -5.8901   -1.2270   -1.8101 C   0  0  0  0  0  0  0  0  0  0  0  0
   -6.7398   -1.3216   -1.3177 H   0  0  0  0  0  0  0  0  0  0  0  0
   -6.0246   -1.2777   -2.7858 H   0  0  0  0  0  0  0  0  0  0  0  0
   -5.4175   -0.2799   -1.5503 H   0  0  0  0  0  0  0  0  0  0  0  0
   -4.9680   -2.3706   -1.3954 C   0  0  0  0  0  0  0  0  0  0  0  0
   -5.5169   -3.1475   -1.1054 H   0  0  0  0  0  0  0  0  0  0  0  0
   -4.3912   -2.6239   -2.1655 H   0  0  0  0  0  0  0  0  0  0  0  0
   -4.0800   -1.9460   -0.2429 N   0  0  0  0  0  4  0  0  0  0  0  0
   -3.7921   -2.7590    0.2528 H   0  0  0  0  0  0  0  0  0  0  0  0
   -3.2887   -1.4682   -0.6110 H   0  0  0  0  0  0  0  0  0  0  0  0
   -4.6001   -1.3429    0.3542 H   0  0  0  0  0  0  0  0  0  0  0  0
    0.0170    2.8822    0.0292 C   0  0  0  0  0  0  0  0  0  0  0  0
   -0.7251    3.2170   -0.5277 H   0  0  0  0  0  0  0  0  0  0  0  0
    0.8915    3.1980   -0.2990 H   0  0  0  0  0  0  0  0  0  0  0  0
   -0.1186    3.3016    1.0261 H   0  0  0  0  0  0  0  0  0  0  0  0
    0.0033    1.3888    0.0002 C   0  0  0  0  0  0  0  0  0  0  0  0
   -1.2062    0.7093   -0.0011 C   0  0  0  0  0  0  0  0  0  0  0  0
   -2.0631    1.1985   -0.0036 H   0  0  0  0  0  0  0  0  0  0  0  0
   -1.2204   -0.7011   -0.0000 C   0  0  0  0  0  0  0  0  0  0  0  0
   -2.0867   -1.1858    0.0042 H   0  0  0  0  0  0  0  0  0  0  0  0
   -0.0034   -1.3842   -0.0028 C   0  0  0  0  0  0  0  0  0  0  0  0
   -0.0106   -2.3947   -0.0074 H   0  0  0  0  0  0  0  0  0  0  0  0
    1.2204   -0.7109    0.0000 C   0  0  0  0  0  0  0  0  0  0  0  0
    2.0861   -1.2033    0.0011 H   0  0  0  0  0  0  0  0  0  0  0  0
    1.2064    0.6982    0.0037 C   0  0  0  0  0  0  0  0  0  0  0  0
    2.0699    1.1923    0.0082 H   0  0  0  0  0  0  0  0  0  0  0  0
  1  5  1  0
  5  8  1  0
  1  2  1  0
  1  3  1  0
  1  4  1  0
  5  6  1  0
  5  7  1  0
  8  9  1  0
  8 10  1  0
  8 11  1  0
 12 16  1  0
 16 17  2  0
 17 19  1  0
 19 21  2  0
 21 23  1  0
 23 25  2  0
 25 16  1  0
 12 13  1  0
 12 14  1  0
 12 15  1  0
 17 18  1  0
 19 20  1  0
 21 22  1  0
 23 24  1  0
 25 26  1  0
M  CHG  1   8   1
M  END
>  <PDB_ID>  (462) 
pdb1ft5

>  <RESIDUE_NAME>  (462) 
LYS   PHE

>  <FRAG_NAME>  (462) 
ETAM   MBZ

>  <FRAG_ATOM_NUM>  (462) 
fragi: 11  fragj: 15

>  <atom.prop.CHAIN_ID>  (462) 
A A A A A A A A A A A Z Z Z Z Z Z Z Z Z Z Z Z Z Z Z

>  <atom.prop.IS_HEAVY_ATOM>  (462) 
1 0 0 0 1 0 0 1 0 0 0 1 0 0 0 1 1 0 1 0 1 0 1 0 1 0

>  <DIFUSE_FUNC_ATOM>  (462) 
n/a

>  <FINAL_SINGLE_POINT_ENERGY>  (462) 
0

>  <NONCOV_INTER_ENERGY_QM>  (462) 
0

>  <FF_Energy>  (462) 
11.07

>  <QM_Energy>  (462) 
2.37

>  <source>  (462) 
ETAM_MBZ

>  <Index>  (462) 
4346

$$$$
ETAM-pdb2goj-B-LYS-146:MBZ-pdb2goj-B-PHE-64
     RDKit          3D

 26 25  0  0  0  0  0  0  0  0999 V2000
   -2.8694   -1.7168   -3.0478 C   0  0  0  0  0  0  0  0  0  0  0  0
   -3.4175   -1.8634   -3.8703 H   0  0  0  0  0  0  0  0  0  0  0  0
   -3.4699   -1.5983   -2.2585 H   0  0  0  0  0  0  0  0  0  0  0  0
   -2.2197   -2.5770   -2.8861 H   0  0  0  0  0  0  0  0  0  0  0  0
   -2.0781   -0.4125   -3.2363 C   0  0  0  0  0  0  0  0  0  0  0  0
   -1.4035   -0.3428   -2.5055 H   0  0  0  0  0  0  0  0  0  0  0  0
   -1.6195   -0.4449   -4.1208 H   0  0  0  0  0  0  0  0  0  0  0  0
   -2.9884    0.7611   -3.1883 N   0  0  0  0  0  4  0  0  0  0  0  0
   -3.0238    1.1916   -4.0900 H   0  0  0  0  0  0  0  0  0  0  0  0
   -3.9056    0.4604   -2.9252 H   0  0  0  0  0  0  0  0  0  0  0  0
   -2.6479    1.4192   -2.5170 H   0  0  0  0  0  0  0  0  0  0  0  0
   -0.0151    2.8844    0.0800 C   0  0  0  0  0  0  0  0  0  0  0  0
   -0.6806    3.2274   -0.5576 H   0  0  0  0  0  0  0  0  0  0  0  0
    0.8904    3.2168   -0.1127 H   0  0  0  0  0  0  0  0  0  0  0  0
   -0.2940    3.2368    1.0731 H   0  0  0  0  0  0  0  0  0  0  0  0
   -0.0003    1.3961   -0.0066 C   0  0  0  0  0  0  0  0  0  0  0  0
   -1.1991    0.6860    0.0265 C   0  0  0  0  0  0  0  0  0  0  0  0
   -2.0629    1.1807    0.0686 H   0  0  0  0  0  0  0  0  0  0  0  0
   -1.2009   -0.6945   -0.0000 C   0  0  0  0  0  0  0  0  0  0  0  0
   -2.0765   -1.1943   -0.0058 H   0  0  0  0  0  0  0  0  0  0  0  0
   -0.0002   -1.3873   -0.0165 C   0  0  0  0  0  0  0  0  0  0  0  0
   -0.0050   -2.3886   -0.0410 H   0  0  0  0  0  0  0  0  0  0  0  0
    1.2009   -0.6961   -0.0000 C   0  0  0  0  0  0  0  0  0  0  0  0
    2.0815   -1.1946    0.0163 H   0  0  0  0  0  0  0  0  0  0  0  0
    1.1996    0.6958   -0.0035 C   0  0  0  0  0  0  0  0  0  0  0  0
    2.0642    1.1913   -0.0052 H   0  0  0  0  0  0  0  0  0  0  0  0
  1  5  1  0
  5  8  1  0
  1  2  1  0
  1  3  1  0
  1  4  1  0
  5  6  1  0
  5  7  1  0
  8  9  1  0
  8 10  1  0
  8 11  1  0
 12 16  1  0
 16 17  2  0
 17 19  1  0
 19 21  2  0
 21 23  1  0
 23 25  2  0
 25 16  1  0
 12 13  1  0
 12 14  1  0
 12 15  1  0
 17 18  1  0
 19 20  1  0
 21 22  1  0
 23 24  1  0
 25 26  1  0
M  CHG  1   8   1
M  END
>  <PDB_ID>  (463) 
pdb2goj

>  <RESIDUE_NAME>  (463) 
LYS   PHE

>  <FRAG_NAME>  (463) 
ETAM   MBZ

>  <FRAG_ATOM_NUM>  (463) 
fragi: 11  fragj: 15

>  <atom.prop.CHAIN_ID>  (463) 
A A A A A A A A A A A Z Z Z Z Z Z Z Z Z Z Z Z Z Z Z

>  <atom.prop.IS_HEAVY_ATOM>  (463) 
1 0 0 0 1 0 0 1 0 0 0 1 0 0 0 1 1 0 1 0 1 0 1 0 1 0

>  <DIFUSE_FUNC_ATOM>  (463) 
n/a

>  <FINAL_SINGLE_POINT_ENERGY>  (463) 
0

>  <NONCOV_INTER_ENERGY_QM>  (463) 
0

>  <FF_Energy>  (463) 
-3.12

>  <QM_Energy>  (463) 
-8.47

>  <source>  (463) 
ETAM_MBZ

>  <Index>  (463) 
4350

$$$$
ETAM-pdb2goj-A-LYS-29:MBZ-pdb2goj-A-PHE-25
     RDKit          3D

 26 25  0  0  0  0  0  0  0  0999 V2000
    4.5213    0.7380    3.6664 C   0  0  0  0  0  0  0  0  0  0  0  0
    5.4014    1.2050    3.6758 H   0  0  0  0  0  0  0  0  0  0  0  0
    4.2924    0.4200    4.5821 H   0  0  0  0  0  0  0  0  0  0  0  0
    3.7553    1.4397    3.3362 H   0  0  0  0  0  0  0  0  0  0  0  0
    4.6302   -0.4810    2.7443 C   0  0  0  0  0  0  0  0  0  0  0  0
    5.0884   -0.2021    1.8955 H   0  0  0  0  0  0  0  0  0  0  0  0
    5.1896   -1.1793    3.1993 H   0  0  0  0  0  0  0  0  0  0  0  0
    3.2937   -1.0645    2.4107 N   0  0  0  0  0  4  0  0  0  0  0  0
    3.2097   -1.9593    2.8446 H   0  0  0  0  0  0  0  0  0  0  0  0
    2.5768   -0.4568    2.7479 H   0  0  0  0  0  0  0  0  0  0  0  0
    3.2160   -1.1603    1.4205 H   0  0  0  0  0  0  0  0  0  0  0  0
    0.0050    2.9022    0.0460 C   0  0  0  0  0  0  0  0  0  0  0  0
   -0.8418    3.2253   -0.3419 H   0  0  0  0  0  0  0  0  0  0  0  0
    0.7875    3.2269   -0.4574 H   0  0  0  0  0  0  0  0  0  0  0  0
    0.0768    3.3015    1.0577 H   0  0  0  0  0  0  0  0  0  0  0  0
    0.0035    1.4052    0.0029 C   0  0  0  0  0  0  0  0  0  0  0  0
   -1.1929    0.6918    0.0124 C   0  0  0  0  0  0  0  0  0  0  0  0
   -2.0618    1.1762    0.0271 H   0  0  0  0  0  0  0  0  0  0  0  0
   -1.1969   -0.7100    0.0000 C   0  0  0  0  0  0  0  0  0  0  0  0
   -2.0775   -1.1951   -0.0032 H   0  0  0  0  0  0  0  0  0  0  0  0
   -0.0041   -1.3979   -0.0056 C   0  0  0  0  0  0  0  0  0  0  0  0
    0.0041   -2.3966   -0.0141 H   0  0  0  0  0  0  0  0  0  0  0  0
    1.1969   -0.6924    0.0000 C   0  0  0  0  0  0  0  0  0  0  0  0
    2.0806   -1.1887    0.0123 H   0  0  0  0  0  0  0  0  0  0  0  0
    1.1935    0.7033   -0.0097 C   0  0  0  0  0  0  0  0  0  0  0  0
    2.0646    1.1937   -0.0270 H   0  0  0  0  0  0  0  0  0  0  0  0
  1  5  1  0
  5  8  1  0
  1  2  1  0
  1  3  1  0
  1  4  1  0
  5  6  1  0
  5  7  1  0
  8  9  1  0
  8 10  1  0
  8 11  1  0
 12 16  1  0
 16 17  2  0
 17 19  1  0
 19 21  2  0
 21 23  1  0
 23 25  2  0
 25 16  1  0
 12 13  1  0
 12 14  1  0
 12 15  1  0
 17 18  1  0
 19 20  1  0
 21 22  1  0
 23 24  1  0
 25 26  1  0
M  CHG  1   8   1
M  END
>  <PDB_ID>  (464) 
pdb2goj

>  <RESIDUE_NAME>  (464) 
LYS   PHE

>  <FRAG_NAME>  (464) 
ETAM   MBZ

>  <FRAG_ATOM_NUM>  (464) 
fragi: 11  fragj: 15

>  <atom.prop.CHAIN_ID>  (464) 
A A A A A A A A A A A Z Z Z Z Z Z Z Z Z Z Z Z Z Z Z

>  <atom.prop.IS_HEAVY_ATOM>  (464) 
1 0 0 0 1 0 0 1 0 0 0 1 0 0 0 1 1 0 1 0 1 0 1 0 1 0

>  <DIFUSE_FUNC_ATOM>  (464) 
n/a

>  <FINAL_SINGLE_POINT_ENERGY>  (464) 
0

>  <NONCOV_INTER_ENERGY_QM>  (464) 
0

>  <FF_Energy>  (464) 
-0.77

>  <QM_Energy>  (464) 
-6.43

>  <source>  (464) 
ETAM_MBZ

>  <Index>  (464) 
4352

$$$$
ETAM-pdb2gm3-D-LYS-28:MBZ-pdb2gm3-D-PHE-91
     RDKit          3D

 26 25  0  0  0  0  0  0  0  0999 V2000
    1.8985   -3.8840   -2.4646 C   0  0  0  0  0  0  0  0  0  0  0  0
    1.4794   -3.0088   -2.6392 H   0  0  0  0  0  0  0  0  0  0  0  0
    1.7623   -4.5125   -3.2112 H   0  0  0  0  0  0  0  0  0  0  0  0
    2.9676   -3.7424   -2.3058 H   0  0  0  0  0  0  0  0  0  0  0  0
    1.2741   -4.4805   -1.2072 C   0  0  0  0  0  0  0  0  0  0  0  0
    1.6488   -5.4029   -1.0582 H   0  0  0  0  0  0  0  0  0  0  0  0
    1.5170   -3.9092   -0.4141 H   0  0  0  0  0  0  0  0  0  0  0  0
   -0.2418   -4.5862   -1.2715 N   0  0  0  0  0  4  0  0  0  0  0  0
   -0.5938   -4.6374   -0.3425 H   0  0  0  0  0  0  0  0  0  0  0  0
   -0.5953   -3.7793   -1.7330 H   0  0  0  0  0  0  0  0  0  0  0  0
   -0.4793   -5.4081   -1.7784 H   0  0  0  0  0  0  0  0  0  0  0  0
   -0.0003    2.9068    0.0167 C   0  0  0  0  0  0  0  0  0  0  0  0
   -0.7923    3.2171   -0.4840 H   0  0  0  0  0  0  0  0  0  0  0  0
    0.8391    3.2180   -0.4001 H   0  0  0  0  0  0  0  0  0  0  0  0
   -0.0522    3.3300    1.0199 H   0  0  0  0  0  0  0  0  0  0  0  0
    0.0009    1.4041    0.0011 C   0  0  0  0  0  0  0  0  0  0  0  0
   -1.2062    0.6941    0.0086 C   0  0  0  0  0  0  0  0  0  0  0  0
   -2.0676    1.1900    0.0186 H   0  0  0  0  0  0  0  0  0  0  0  0
   -1.2135   -0.6959    0.0000 C   0  0  0  0  0  0  0  0  0  0  0  0
   -2.0825   -1.1945    0.0007 H   0  0  0  0  0  0  0  0  0  0  0  0
    0.0022   -1.3953   -0.0081 C   0  0  0  0  0  0  0  0  0  0  0  0
   -0.0056   -2.3942   -0.0203 H   0  0  0  0  0  0  0  0  0  0  0  0
    1.2135   -0.7017    0.0000 C   0  0  0  0  0  0  0  0  0  0  0  0
    2.0888   -1.1978    0.0088 H   0  0  0  0  0  0  0  0  0  0  0  0
    1.2031    0.6947   -0.0017 C   0  0  0  0  0  0  0  0  0  0  0  0
    2.0695    1.1931   -0.0057 H   0  0  0  0  0  0  0  0  0  0  0  0
  1  5  1  0
  5  8  1  0
  1  2  1  0
  1  3  1  0
  1  4  1  0
  5  6  1  0
  5  7  1  0
  8  9  1  0
  8 10  1  0
  8 11  1  0
 12 16  1  0
 16 17  2  0
 17 19  1  0
 19 21  2  0
 21 23  1  0
 23 25  2  0
 25 16  1  0
 12 13  1  0
 12 14  1  0
 12 15  1  0
 17 18  1  0
 19 20  1  0
 21 22  1  0
 23 24  1  0
 25 26  1  0
M  CHG  1   8   1
M  END
>  <PDB_ID>  (465) 
pdb2gm3

>  <RESIDUE_NAME>  (465) 
LYS   PHE

>  <FRAG_NAME>  (465) 
ETAM   MBZ

>  <FRAG_ATOM_NUM>  (465) 
fragi: 11  fragj: 15

>  <atom.prop.CHAIN_ID>  (465) 
A A A A A A A A A A A Z Z Z Z Z Z Z Z Z Z Z Z Z Z Z

>  <atom.prop.IS_HEAVY_ATOM>  (465) 
1 0 0 0 1 0 0 1 0 0 0 1 0 0 0 1 1 0 1 0 1 0 1 0 1 0

>  <DIFUSE_FUNC_ATOM>  (465) 
n/a

>  <FINAL_SINGLE_POINT_ENERGY>  (465) 
0

>  <NONCOV_INTER_ENERGY_QM>  (465) 
0

>  <FF_Energy>  (465) 
1.51

>  <QM_Energy>  (465) 
-4.99

>  <source>  (465) 
ETAM_MBZ

>  <Index>  (465) 
4362

$$$$
ETAM-pdb2gpt-A-LYS-324:MBZ-pdb2gpt-A-PHE-351
     RDKit          3D

 26 25  0  0  0  0  0  0  0  0999 V2000
    0.7347   -4.9610    3.0111 C   0  0  0  0  0  0  0  0  0  0  0  0
    0.9176   -4.5544    2.1243 H   0  0  0  0  0  0  0  0  0  0  0  0
    0.6925   -5.9503    2.9411 H   0  0  0  0  0  0  0  0  0  0  0  0
    1.5360   -4.6876    3.6975 H   0  0  0  0  0  0  0  0  0  0  0  0
   -0.6066   -4.4527    3.5118 C   0  0  0  0  0  0  0  0  0  0  0  0
   -1.3332   -4.8051    2.9234 H   0  0  0  0  0  0  0  0  0  0  0  0
   -0.7515   -4.7701    4.4481 H   0  0  0  0  0  0  0  0  0  0  0  0
   -0.6577   -2.9489    3.4968 N   0  0  0  0  0  4  0  0  0  0  0  0
   -0.0824   -2.5989    4.2315 H   0  0  0  0  0  0  0  0  0  0  0  0
   -0.3229   -2.6233    2.6167 H   0  0  0  0  0  0  0  0  0  0  0  0
   -1.6009   -2.6562    3.6333 H   0  0  0  0  0  0  0  0  0  0  0  0
    0.0018    2.8998    0.0436 C   0  0  0  0  0  0  0  0  0  0  0  0
   -0.7114    3.2246   -0.5582 H   0  0  0  0  0  0  0  0  0  0  0  0
    0.8916    3.2141   -0.2506 H   0  0  0  0  0  0  0  0  0  0  0  0
   -0.1860    3.3087    1.0364 H   0  0  0  0  0  0  0  0  0  0  0  0
    0.0004    1.4008    0.0006 C   0  0  0  0  0  0  0  0  0  0  0  0
   -1.2001    0.6918    0.0002 C   0  0  0  0  0  0  0  0  0  0  0  0
   -2.0650    1.1863   -0.0013 H   0  0  0  0  0  0  0  0  0  0  0  0
   -1.2058   -0.6945    0.0000 C   0  0  0  0  0  0  0  0  0  0  0  0
   -2.0809   -1.1910    0.0010 H   0  0  0  0  0  0  0  0  0  0  0  0
   -0.0010   -1.3940    0.0008 C   0  0  0  0  0  0  0  0  0  0  0  0
   -0.0065   -2.3916    0.0019 H   0  0  0  0  0  0  0  0  0  0  0  0
    1.2058   -0.6977    0.0000 C   0  0  0  0  0  0  0  0  0  0  0  0
    2.0841   -1.1973    0.0021 H   0  0  0  0  0  0  0  0  0  0  0  0
    1.2006    0.6936   -0.0016 C   0  0  0  0  0  0  0  0  0  0  0  0
    2.0669    1.1914   -0.0050 H   0  0  0  0  0  0  0  0  0  0  0  0
  1  5  1  0
  5  8  1  0
  1  2  1  0
  1  3  1  0
  1  4  1  0
  5  6  1  0
  5  7  1  0
  8  9  1  0
  8 10  1  0
  8 11  1  0
 12 16  1  0
 16 17  2  0
 17 19  1  0
 19 21  2  0
 21 23  1  0
 23 25  2  0
 25 16  1  0
 12 13  1  0
 12 14  1  0
 12 15  1  0
 17 18  1  0
 19 20  1  0
 21 22  1  0
 23 24  1  0
 25 26  1  0
M  CHG  1   8   1
M  END
>  <PDB_ID>  (466) 
pdb2gpt

>  <RESIDUE_NAME>  (466) 
LYS   PHE

>  <FRAG_NAME>  (466) 
ETAM   MBZ

>  <FRAG_ATOM_NUM>  (466) 
fragi: 11  fragj: 15

>  <atom.prop.CHAIN_ID>  (466) 
A A A A A A A A A A A Z Z Z Z Z Z Z Z Z Z Z Z Z Z Z

>  <atom.prop.IS_HEAVY_ATOM>  (466) 
1 0 0 0 1 0 0 1 0 0 0 1 0 0 0 1 1 0 1 0 1 0 1 0 1 0

>  <DIFUSE_FUNC_ATOM>  (466) 
n/a

>  <FINAL_SINGLE_POINT_ENERGY>  (466) 
0

>  <NONCOV_INTER_ENERGY_QM>  (466) 
0

>  <FF_Energy>  (466) 
-2.55

>  <QM_Energy>  (466) 
-7.63

>  <source>  (466) 
ETAM_MBZ

>  <Index>  (466) 
4368

$$$$
ETAM-pdb1fv1-A-GLU-3:MBZ-pdb1fv1-B-PHE-18
     RDKit          3D

 26 25  0  0  0  0  0  0  0  0999 V2000
    2.7709   -1.9063    2.8145 C   0  0  0  0  0  0  0  0  0  0  0  0
    2.5134   -2.3507    1.9722 H   0  0  0  0  0  0  0  0  0  0  0  0
    3.5520   -2.3394    3.2320 H   0  0  0  0  0  0  0  0  0  0  0  0
    1.9332   -1.9937    3.5064 H   0  0  0  0  0  0  0  0  0  0  0  0
    3.1608   -0.4709    2.4786 C   0  0  0  0  0  0  0  0  0  0  0  0
    2.3889   -0.0745    1.9660 H   0  0  0  0  0  0  0  0  0  0  0  0
    3.3269    0.0917    3.3973 H   0  0  0  0  0  0  0  0  0  0  0  0
    4.3680   -0.4676    1.6004 N   0  0  0  0  0  4  0  0  0  0  0  0
    4.7387   -1.3911    1.5532 H   0  0  0  0  0  0  0  0  0  0  0  0
    4.1073   -0.1604    0.6888 H   0  0  0  0  0  0  0  0  0  0  0  0
    5.0482    0.1508    1.9840 H   0  0  0  0  0  0  0  0  0  0  0  0
   -0.0016    2.9071    0.0468 C   0  0  0  0  0  0  0  0  0  0  0  0
   -0.7043    3.2314   -0.5672 H   0  0  0  0  0  0  0  0  0  0  0  0
    0.8930    3.2233   -0.2271 H   0  0  0  0  0  0  0  0  0  0  0  0
   -0.2094    3.3153    1.0359 H   0  0  0  0  0  0  0  0  0  0  0  0
    0.0001    1.4039    0.0012 C   0  0  0  0  0  0  0  0  0  0  0  0
   -1.1973    0.6934   -0.0012 C   0  0  0  0  0  0  0  0  0  0  0  0
   -2.0640    1.1827   -0.0048 H   0  0  0  0  0  0  0  0  0  0  0  0
   -1.2026   -0.7006    0.0000 C   0  0  0  0  0  0  0  0  0  0  0  0
   -2.0781   -1.1934    0.0018 H   0  0  0  0  0  0  0  0  0  0  0  0
    0.0012   -1.3973    0.0013 C   0  0  0  0  0  0  0  0  0  0  0  0
   -0.0004   -2.3944    0.0030 H   0  0  0  0  0  0  0  0  0  0  0  0
    1.2026   -0.6961    0.0000 C   0  0  0  0  0  0  0  0  0  0  0  0
    2.0846   -1.1923    0.0019 H   0  0  0  0  0  0  0  0  0  0  0  0
    1.1960    0.6967   -0.0013 C   0  0  0  0  0  0  0  0  0  0  0  0
    2.0652    1.1927   -0.0052 H   0  0  0  0  0  0  0  0  0  0  0  0
  1  5  1  0
  5  8  1  0
  1  2  1  0
  1  3  1  0
  1  4  1  0
  5  6  1  0
  5  7  1  0
  8  9  1  0
  8 10  1  0
  8 11  1  0
 12 16  1  0
 16 17  2  0
 17 19  1  0
 19 21  2  0
 21 23  1  0
 23 25  2  0
 25 16  1  0
 12 13  1  0
 12 14  1  0
 12 15  1  0
 17 18  1  0
 19 20  1  0
 21 22  1  0
 23 24  1  0
 25 26  1  0
M  CHG  1   8   1
M  END
>  <PDB_ID>  (467) 
pdb1fv1

>  <RESIDUE_NAME>  (467) 
GLU   PHE

>  <FRAG_NAME>  (467) 
ETAM   MBZ

>  <FRAG_ATOM_NUM>  (467) 
fragi: 11  fragj: 15

>  <atom.prop.CHAIN_ID>  (467) 
A A A A A A A A A A A Z Z Z Z Z Z Z Z Z Z Z Z Z Z Z

>  <atom.prop.IS_HEAVY_ATOM>  (467) 
1 0 0 0 1 0 0 1 0 0 0 1 0 0 0 1 1 0 1 0 1 0 1 0 1 0

>  <DIFUSE_FUNC_ATOM>  (467) 
n/a

>  <FINAL_SINGLE_POINT_ENERGY>  (467) 
0

>  <NONCOV_INTER_ENERGY_QM>  (467) 
0

>  <FF_Energy>  (467) 
3.73

>  <QM_Energy>  (467) 
-4.63

>  <source>  (467) 
ETAM_MBZ

>  <Index>  (467) 
4371

$$$$
ETAM-pdb1fwk-A-LYS-79:MBZ-pdb1fwk-A-PHE-113
     RDKit          3D

 26 25  0  0  0  0  0  0  0  0999 V2000
    4.0445   -2.7531   -0.6662 C   0  0  0  0  0  0  0  0  0  0  0  0
    3.1525   -2.3350   -0.4723 H   0  0  0  0  0  0  0  0  0  0  0  0
    4.2299   -3.4550    0.0282 H   0  0  0  0  0  0  0  0  0  0  0  0
    4.0052   -3.2277   -1.6467 H   0  0  0  0  0  0  0  0  0  0  0  0
    5.1170   -1.6646   -0.5397 C   0  0  0  0  0  0  0  0  0  0  0  0
    6.0127   -2.0825   -0.6257 H   0  0  0  0  0  0  0  0  0  0  0  0
    4.9759   -0.9878   -1.2512 H   0  0  0  0  0  0  0  0  0  0  0  0
    5.0113   -0.9972    0.8044 N   0  0  0  0  0  4  0  0  0  0  0  0
    5.8814   -1.0914    1.2813 H   0  0  0  0  0  0  0  0  0  0  0  0
    4.7992   -0.0321    0.6705 H   0  0  0  0  0  0  0  0  0  0  0  0
    4.2858   -1.4373    1.3279 H   0  0  0  0  0  0  0  0  0  0  0  0
    0.0078    2.9134    0.0050 C   0  0  0  0  0  0  0  0  0  0  0  0
   -0.9272    3.2226   -0.0430 H   0  0  0  0  0  0  0  0  0  0  0  0
    0.5340    3.2175   -0.7711 H   0  0  0  0  0  0  0  0  0  0  0  0
    0.4582    3.3329    0.9046 H   0  0  0  0  0  0  0  0  0  0  0  0
   -0.0004    1.4115   -0.0005 C   0  0  0  0  0  0  0  0  0  0  0  0
   -1.2008    0.7033    0.0005 C   0  0  0  0  0  0  0  0  0  0  0  0
   -2.0666    1.1927    0.0001 H   0  0  0  0  0  0  0  0  0  0  0  0
   -1.2099   -0.6965   -0.0000 C   0  0  0  0  0  0  0  0  0  0  0  0
   -2.0866   -1.1859    0.0014 H   0  0  0  0  0  0  0  0  0  0  0  0
   -0.0031   -1.4073   -0.0007 C   0  0  0  0  0  0  0  0  0  0  0  0
   -0.0127   -2.3999   -0.0021 H   0  0  0  0  0  0  0  0  0  0  0  0
    1.2099   -0.7088    0.0000 C   0  0  0  0  0  0  0  0  0  0  0  0
    2.0861   -1.2021    0.0018 H   0  0  0  0  0  0  0  0  0  0  0  0
    1.2043    0.6977    0.0006 C   0  0  0  0  0  0  0  0  0  0  0  0
    2.0702    1.1900    0.0014 H   0  0  0  0  0  0  0  0  0  0  0  0
  1  5  1  0
  5  8  1  0
  1  2  1  0
  1  3  1  0
  1  4  1  0
  5  6  1  0
  5  7  1  0
  8  9  1  0
  8 10  1  0
  8 11  1  0
 12 16  1  0
 16 17  2  0
 17 19  1  0
 19 21  2  0
 21 23  1  0
 23 25  2  0
 25 16  1  0
 12 13  1  0
 12 14  1  0
 12 15  1  0
 17 18  1  0
 19 20  1  0
 21 22  1  0
 23 24  1  0
 25 26  1  0
M  CHG  1   8   1
M  END
>  <PDB_ID>  (468) 
pdb1fwk

>  <RESIDUE_NAME>  (468) 
LYS   PHE

>  <FRAG_NAME>  (468) 
ETAM   MBZ

>  <FRAG_ATOM_NUM>  (468) 
fragi: 11  fragj: 15

>  <atom.prop.CHAIN_ID>  (468) 
A A A A A A A A A A A Z Z Z Z Z Z Z Z Z Z Z Z Z Z Z

>  <atom.prop.IS_HEAVY_ATOM>  (468) 
1 0 0 0 1 0 0 1 0 0 0 1 0 0 0 1 1 0 1 0 1 0 1 0 1 0

>  <DIFUSE_FUNC_ATOM>  (468) 
n/a

>  <FINAL_SINGLE_POINT_ENERGY>  (468) 
0

>  <NONCOV_INTER_ENERGY_QM>  (468) 
0

>  <FF_Energy>  (468) 
12.27

>  <QM_Energy>  (468) 
-0.36

>  <source>  (468) 
ETAM_MBZ

>  <Index>  (468) 
4403

$$$$
ETAM-pdb1fxy-A-LYS-188:MBZ-pdb1fxy-A-PHE-184
     RDKit          3D

 26 25  0  0  0  0  0  0  0  0999 V2000
   -2.1910   -1.5706   -3.9176 C   0  0  0  0  0  0  0  0  0  0  0  0
   -2.5415   -2.1908   -3.2260 H   0  0  0  0  0  0  0  0  0  0  0  0
   -2.1733   -2.0096   -4.8071 H   0  0  0  0  0  0  0  0  0  0  0  0
   -2.8346   -0.6922   -3.9663 H   0  0  0  0  0  0  0  0  0  0  0  0
   -0.7708   -1.1794   -3.5421 C   0  0  0  0  0  0  0  0  0  0  0  0
   -0.4167   -0.5384   -4.2327 H   0  0  0  0  0  0  0  0  0  0  0  0
   -0.7871   -0.7106   -2.6521 H   0  0  0  0  0  0  0  0  0  0  0  0
    0.1389   -2.3546   -3.4564 N   0  0  0  0  0  4  0  0  0  0  0  0
   -0.2449   -3.0466   -2.7835 H   0  0  0  0  0  0  0  0  0  0  0  0
    0.2291   -2.7891   -4.3945 H   0  0  0  0  0  0  0  0  0  0  0  0
    1.0737   -2.0370   -3.1294 H   0  0  0  0  0  0  0  0  0  0  0  0
    0.0015    2.9057    0.0072 C   0  0  0  0  0  0  0  0  0  0  0  0
   -0.7820    3.2133   -0.5093 H   0  0  0  0  0  0  0  0  0  0  0  0
    0.8473    3.2115   -0.4010 H   0  0  0  0  0  0  0  0  0  0  0  0
   -0.0642    3.3361    1.0065 H   0  0  0  0  0  0  0  0  0  0  0  0
   -0.0002    1.4018    0.0005 C   0  0  0  0  0  0  0  0  0  0  0  0
   -1.1957    0.6956   -0.0004 C   0  0  0  0  0  0  0  0  0  0  0  0
   -2.0633    1.1855   -0.0029 H   0  0  0  0  0  0  0  0  0  0  0  0
   -1.2027   -0.6971   -0.0000 C   0  0  0  0  0  0  0  0  0  0  0  0
   -2.0790   -1.1885    0.0015 H   0  0  0  0  0  0  0  0  0  0  0  0
   -0.0008   -1.3948   -0.0001 C   0  0  0  0  0  0  0  0  0  0  0  0
   -0.0047   -2.3932   -0.0003 H   0  0  0  0  0  0  0  0  0  0  0  0
    1.2027   -0.6979   -0.0000 C   0  0  0  0  0  0  0  0  0  0  0  0
    2.0823   -1.1963    0.0019 H   0  0  0  0  0  0  0  0  0  0  0  0
    1.1967    0.6924   -0.0000 C   0  0  0  0  0  0  0  0  0  0  0  0
    2.0653    1.1895   -0.0014 H   0  0  0  0  0  0  0  0  0  0  0  0
  1  5  1  0
  5  8  1  0
  1  2  1  0
  1  3  1  0
  1  4  1  0
  5  6  1  0
  5  7  1  0
  8  9  1  0
  8 10  1  0
  8 11  1  0
 12 16  1  0
 16 17  2  0
 17 19  1  0
 19 21  2  0
 21 23  1  0
 23 25  2  0
 25 16  1  0
 12 13  1  0
 12 14  1  0
 12 15  1  0
 17 18  1  0
 19 20  1  0
 21 22  1  0
 23 24  1  0
 25 26  1  0
M  CHG  1   8   1
M  END
>  <PDB_ID>  (469) 
pdb1fxy

>  <RESIDUE_NAME>  (469) 
LYS   PHE

>  <FRAG_NAME>  (469) 
ETAM   MBZ

>  <FRAG_ATOM_NUM>  (469) 
fragi: 11  fragj: 15

>  <atom.prop.CHAIN_ID>  (469) 
A A A A A A A A A A A Z Z Z Z Z Z Z Z Z Z Z Z Z Z Z

>  <atom.prop.IS_HEAVY_ATOM>  (469) 
1 0 0 0 1 0 0 1 0 0 0 1 0 0 0 1 1 0 1 0 1 0 1 0 1 0

>  <DIFUSE_FUNC_ATOM>  (469) 
n/a

>  <FINAL_SINGLE_POINT_ENERGY>  (469) 
0

>  <NONCOV_INTER_ENERGY_QM>  (469) 
0

>  <FF_Energy>  (469) 
-4.41

>  <QM_Energy>  (469) 
-10.37

>  <source>  (469) 
ETAM_MBZ

>  <Index>  (469) 
4425

$$$$
ETAM-pdb1fzc-B-LYS-337:MBZ-pdb1fzc-B-PHE-374
     RDKit          3D

 26 25  0  0  0  0  0  0  0  0999 V2000
   -0.6168    0.7559    4.5286 C   0  0  0  0  0  0  0  0  0  0  0  0
    0.1747    1.0444    5.0921 H   0  0  0  0  0  0  0  0  0  0  0  0
   -1.1042    0.0297    5.0410 H   0  0  0  0  0  0  0  0  0  0  0  0
   -1.2841    1.6052    4.3818 H   0  0  0  0  0  0  0  0  0  0  0  0
   -0.0657    0.1244    3.2480 C   0  0  0  0  0  0  0  0  0  0  0  0
   -0.7999   -0.3060    2.7513 H   0  0  0  0  0  0  0  0  0  0  0  0
    0.3869    0.8142    2.7094 H   0  0  0  0  0  0  0  0  0  0  0  0
    0.9557   -0.9428    3.6316 N   0  0  0  0  0  4  0  0  0  0  0  0
    1.0641   -0.9315    4.6190 H   0  0  0  0  0  0  0  0  0  0  0  0
    0.6146   -1.8250    3.3277 H   0  0  0  0  0  0  0  0  0  0  0  0
    1.8158   -0.7273    3.1842 H   0  0  0  0  0  0  0  0  0  0  0  0
   -0.0095    2.9209    0.0540 C   0  0  0  0  0  0  0  0  0  0  0  0
    0.9226    3.2389    0.1315 H   0  0  0  0  0  0  0  0  0  0  0  0
   -0.5570    3.2169    0.8217 H   0  0  0  0  0  0  0  0  0  0  0  0
   -0.4278    3.4085   -0.8265 H   0  0  0  0  0  0  0  0  0  0  0  0
   -0.0115    1.4239    0.0028 C   0  0  0  0  0  0  0  0  0  0  0  0
   -1.1879    0.6960    0.0408 C   0  0  0  0  0  0  0  0  0  0  0  0
   -2.0702    1.1789    0.0983 H   0  0  0  0  0  0  0  0  0  0  0  0
   -1.2124   -0.7106   -0.0000 C   0  0  0  0  0  0  0  0  0  0  0  0
   -2.0774   -1.1933   -0.0114 H   0  0  0  0  0  0  0  0  0  0  0  0
    0.0064   -1.3956   -0.0212 C   0  0  0  0  0  0  0  0  0  0  0  0
   -0.0000   -2.4013   -0.0533 H   0  0  0  0  0  0  0  0  0  0  0  0
    1.2124   -0.7104    0.0000 C   0  0  0  0  0  0  0  0  0  0  0  0
    2.0887   -1.1944    0.0318 H   0  0  0  0  0  0  0  0  0  0  0  0
    1.1930    0.6965   -0.0224 C   0  0  0  0  0  0  0  0  0  0  0  0
    2.0615    1.1947   -0.0583 H   0  0  0  0  0  0  0  0  0  0  0  0
  1  5  1  0
  5  8  1  0
  1  2  1  0
  1  3  1  0
  1  4  1  0
  5  6  1  0
  5  7  1  0
  8  9  1  0
  8 10  1  0
  8 11  1  0
 12 16  1  0
 16 17  2  0
 17 19  1  0
 19 21  2  0
 21 23  1  0
 23 25  2  0
 25 16  1  0
 12 13  1  0
 12 14  1  0
 12 15  1  0
 17 18  1  0
 19 20  1  0
 21 22  1  0
 23 24  1  0
 25 26  1  0
M  CHG  1   8   1
M  END
>  <PDB_ID>  (470) 
pdb1fzc

>  <RESIDUE_NAME>  (470) 
LYS   PHE

>  <FRAG_NAME>  (470) 
ETAM   MBZ

>  <FRAG_ATOM_NUM>  (470) 
fragi: 11  fragj: 15

>  <atom.prop.CHAIN_ID>  (470) 
A A A A A A A A A A A Z Z Z Z Z Z Z Z Z Z Z Z Z Z Z

>  <atom.prop.IS_HEAVY_ATOM>  (470) 
1 0 0 0 1 0 0 1 0 0 0 1 0 0 0 1 1 0 1 0 1 0 1 0 1 0

>  <DIFUSE_FUNC_ATOM>  (470) 
n/a

>  <FINAL_SINGLE_POINT_ENERGY>  (470) 
0

>  <NONCOV_INTER_ENERGY_QM>  (470) 
0

>  <FF_Energy>  (470) 
-6.51

>  <QM_Energy>  (470) 
-12.09

>  <source>  (470) 
ETAM_MBZ

>  <Index>  (470) 
4440

$$$$
ETAM-pdb2gtd-A-LYS-225:MBZ-pdb2gtd-A-PHE-233
     RDKit          3D

 26 25  0  0  0  0  0  0  0  0999 V2000
    0.3860   -0.0769   -3.8455 C   0  0  0  0  0  0  0  0  0  0  0  0
    0.5714   -0.6374   -3.0541 H   0  0  0  0  0  0  0  0  0  0  0  0
    0.7128   -0.4993   -4.6756 H   0  0  0  0  0  0  0  0  0  0  0  0
   -0.6905    0.0744   -3.9258 H   0  0  0  0  0  0  0  0  0  0  0  0
    1.0952    1.2676   -3.6693 C   0  0  0  0  0  0  0  0  0  0  0  0
    1.2162    1.6933   -4.5746 H   0  0  0  0  0  0  0  0  0  0  0  0
    0.5127    1.8730   -3.1120 H   0  0  0  0  0  0  0  0  0  0  0  0
    2.4467    1.1548   -3.0049 N   0  0  0  0  0  4  0  0  0  0  0  0
    3.0904    1.7426   -3.4862 H   0  0  0  0  0  0  0  0  0  0  0  0
    2.3621    1.4432   -2.0557 H   0  0  0  0  0  0  0  0  0  0  0  0
    2.7486    0.2065   -3.0504 H   0  0  0  0  0  0  0  0  0  0  0  0
    0.0023    2.8883    0.0141 C   0  0  0  0  0  0  0  0  0  0  0  0
   -0.5396    3.2031   -0.7477 H   0  0  0  0  0  0  0  0  0  0  0  0
    0.9369    3.1994   -0.0496 H   0  0  0  0  0  0  0  0  0  0  0  0
   -0.4267    3.3078    0.9241 H   0  0  0  0  0  0  0  0  0  0  0  0
    0.0055    1.3905   -0.0017 C   0  0  0  0  0  0  0  0  0  0  0  0
   -1.1937    0.6879   -0.0046 C   0  0  0  0  0  0  0  0  0  0  0  0
   -2.0567    1.1834   -0.0116 H   0  0  0  0  0  0  0  0  0  0  0  0
   -1.1934   -0.6899   -0.0000 C   0  0  0  0  0  0  0  0  0  0  0  0
   -2.0757   -1.1867    0.0077 H   0  0  0  0  0  0  0  0  0  0  0  0
   -0.0074   -1.3760   -0.0037 C   0  0  0  0  0  0  0  0  0  0  0  0
   -0.0066   -2.3808   -0.0099 H   0  0  0  0  0  0  0  0  0  0  0  0
    1.1934   -0.6883    0.0000 C   0  0  0  0  0  0  0  0  0  0  0  0
    2.0711   -1.2016   -0.0028 H   0  0  0  0  0  0  0  0  0  0  0  0
    1.1956    0.6757    0.0100 C   0  0  0  0  0  0  0  0  0  0  0  0
    2.0656    1.1798    0.0248 H   0  0  0  0  0  0  0  0  0  0  0  0
  1  5  1  0
  5  8  1  0
  1  2  1  0
  1  3  1  0
  1  4  1  0
  5  6  1  0
  5  7  1  0
  8  9  1  0
  8 10  1  0
  8 11  1  0
 12 16  1  0
 16 17  2  0
 17 19  1  0
 19 21  2  0
 21 23  1  0
 23 25  2  0
 25 16  1  0
 12 13  1  0
 12 14  1  0
 12 15  1  0
 17 18  1  0
 19 20  1  0
 21 22  1  0
 23 24  1  0
 25 26  1  0
M  CHG  1   8   1
M  END
>  <PDB_ID>  (471) 
pdb2gtd

>  <RESIDUE_NAME>  (471) 
LYS   PHE

>  <FRAG_NAME>  (471) 
ETAM   MBZ

>  <FRAG_ATOM_NUM>  (471) 
fragi: 11  fragj: 15

>  <atom.prop.CHAIN_ID>  (471) 
A A A A A A A A A A A Z Z Z Z Z Z Z Z Z Z Z Z Z Z Z

>  <atom.prop.IS_HEAVY_ATOM>  (471) 
1 0 0 0 1 0 0 1 0 0 0 1 0 0 0 1 1 0 1 0 1 0 1 0 1 0

>  <DIFUSE_FUNC_ATOM>  (471) 
n/a

>  <FINAL_SINGLE_POINT_ENERGY>  (471) 
0

>  <NONCOV_INTER_ENERGY_QM>  (471) 
0

>  <FF_Energy>  (471) 
-5.4

>  <QM_Energy>  (471) 
-11.2

>  <source>  (471) 
ETAM_MBZ

>  <Index>  (471) 
4441

$$$$
ETAM-pdb1fyr-C-LYS-124:MBZ-pdb1fyr-D-PHE-119
     RDKit          3D

 26 25  0  0  0  0  0  0  0  0999 V2000
   -1.2142    2.2003    3.6281 C   0  0  0  0  0  0  0  0  0  0  0  0
   -2.0392    1.9032    3.1678 H   0  0  0  0  0  0  0  0  0  0  0  0
   -0.6306    2.7163    3.0175 H   0  0  0  0  0  0  0  0  0  0  0  0
   -1.4833    2.8229    4.4813 H   0  0  0  0  0  0  0  0  0  0  0  0
   -0.4529    0.9702    4.0981 C   0  0  0  0  0  0  0  0  0  0  0  0
    0.3375    1.2676    4.6464 H   0  0  0  0  0  0  0  0  0  0  0  0
   -1.0574    0.4191    4.6856 H   0  0  0  0  0  0  0  0  0  0  0  0
    0.0258    0.1320    2.9681 N   0  0  0  0  0  4  0  0  0  0  0  0
   -0.6874    0.0770    2.2689 H   0  0  0  0  0  0  0  0  0  0  0  0
    0.8482    0.5429    2.5740 H   0  0  0  0  0  0  0  0  0  0  0  0
    0.2378   -0.7864    3.3016 H   0  0  0  0  0  0  0  0  0  0  0  0
    0.0094    2.9088   -0.0045 C   0  0  0  0  0  0  0  0  0  0  0  0
    0.9230    3.2130    0.2253 H   0  0  0  0  0  0  0  0  0  0  0  0
   -0.6500    3.2236    0.6633 H   0  0  0  0  0  0  0  0  0  0  0  0
   -0.2546    3.3567   -0.9625 H   0  0  0  0  0  0  0  0  0  0  0  0
    0.0003    1.4071   -0.0001 C   0  0  0  0  0  0  0  0  0  0  0  0
   -1.2004    0.7008   -0.0002 C   0  0  0  0  0  0  0  0  0  0  0  0
   -2.0653    1.1885   -0.0014 H   0  0  0  0  0  0  0  0  0  0  0  0
   -1.2067   -0.6988    0.0000 C   0  0  0  0  0  0  0  0  0  0  0  0
   -2.0816   -1.1896    0.0023 H   0  0  0  0  0  0  0  0  0  0  0  0
    0.0014   -1.4022   -0.0007 C   0  0  0  0  0  0  0  0  0  0  0  0
   -0.0046   -2.3971   -0.0016 H   0  0  0  0  0  0  0  0  0  0  0  0
    1.2067   -0.7020    0.0000 C   0  0  0  0  0  0  0  0  0  0  0  0
    2.0872   -1.1964    0.0013 H   0  0  0  0  0  0  0  0  0  0  0  0
    1.1987    0.6951    0.0010 C   0  0  0  0  0  0  0  0  0  0  0  0
    2.0673    1.1909    0.0019 H   0  0  0  0  0  0  0  0  0  0  0  0
  1  5  1  0
  5  8  1  0
  1  2  1  0
  1  3  1  0
  1  4  1  0
  5  6  1  0
  5  7  1  0
  8  9  1  0
  8 10  1  0
  8 11  1  0
 12 16  1  0
 16 17  2  0
 17 19  1  0
 19 21  2  0
 21 23  1  0
 23 25  2  0
 25 16  1  0
 12 13  1  0
 12 14  1  0
 12 15  1  0
 17 18  1  0
 19 20  1  0
 21 22  1  0
 23 24  1  0
 25 26  1  0
M  CHG  1   8   1
M  END
>  <PDB_ID>  (472) 
pdb1fyr

>  <RESIDUE_NAME>  (472) 
LYS   PHE

>  <FRAG_NAME>  (472) 
ETAM   MBZ

>  <FRAG_ATOM_NUM>  (472) 
fragi: 11  fragj: 15

>  <atom.prop.CHAIN_ID>  (472) 
A A A A A A A A A A A Z Z Z Z Z Z Z Z Z Z Z Z Z Z Z

>  <atom.prop.IS_HEAVY_ATOM>  (472) 
1 0 0 0 1 0 0 1 0 0 0 1 0 0 0 1 1 0 1 0 1 0 1 0 1 0

>  <DIFUSE_FUNC_ATOM>  (472) 
n/a

>  <FINAL_SINGLE_POINT_ENERGY>  (472) 
0

>  <NONCOV_INTER_ENERGY_QM>  (472) 
0

>  <FF_Energy>  (472) 
-9.96

>  <QM_Energy>  (472) 
-18.45

>  <source>  (472) 
ETAM_MBZ

>  <Index>  (472) 
4472

$$$$
ETAM-pdb2gum-A-LYS-320:MBZ-pdb2gum-A-PHE-194
     RDKit          3D

 26 25  0  0  0  0  0  0  0  0999 V2000
   -2.6480    0.7871   -3.1972 C   0  0  0  0  0  0  0  0  0  0  0  0
   -2.1973    1.0571   -2.3520 H   0  0  0  0  0  0  0  0  0  0  0  0
   -3.3625    1.4392   -3.4305 H   0  0  0  0  0  0  0  0  0  0  0  0
   -1.9107    0.7672   -3.9998 H   0  0  0  0  0  0  0  0  0  0  0  0
   -3.2907   -0.5795   -2.9877 C   0  0  0  0  0  0  0  0  0  0  0  0
   -3.8835   -0.7831   -3.7743 H   0  0  0  0  0  0  0  0  0  0  0  0
   -2.5659   -1.2761   -2.9465 H   0  0  0  0  0  0  0  0  0  0  0  0
   -4.1007   -0.6452   -1.7368 N   0  0  0  0  0  4  0  0  0  0  0  0
   -4.1092    0.2537   -1.3016 H   0  0  0  0  0  0  0  0  0  0  0  0
   -5.0354   -0.9182   -1.9629 H   0  0  0  0  0  0  0  0  0  0  0  0
   -3.6960   -1.3149   -1.1167 H   0  0  0  0  0  0  0  0  0  0  0  0
   -0.0108    2.9082   -0.0315 C   0  0  0  0  0  0  0  0  0  0  0  0
   -0.8345    3.2182    0.4215 H   0  0  0  0  0  0  0  0  0  0  0  0
    0.0060    3.1962   -0.9779 H   0  0  0  0  0  0  0  0  0  0  0  0
    0.8384    3.3715    0.4710 H   0  0  0  0  0  0  0  0  0  0  0  0
   -0.0000    1.4051   -0.0015 C   0  0  0  0  0  0  0  0  0  0  0  0
   -1.1982    0.6959   -0.0006 C   0  0  0  0  0  0  0  0  0  0  0  0
   -2.0650    1.1853   -0.0021 H   0  0  0  0  0  0  0  0  0  0  0  0
   -1.2055   -0.6993   -0.0000 C   0  0  0  0  0  0  0  0  0  0  0  0
   -2.0807   -1.1904    0.0008 H   0  0  0  0  0  0  0  0  0  0  0  0
   -0.0012   -1.3978    0.0011 C   0  0  0  0  0  0  0  0  0  0  0  0
   -0.0052   -2.3947    0.0019 H   0  0  0  0  0  0  0  0  0  0  0  0
    1.2055   -0.7000    0.0000 C   0  0  0  0  0  0  0  0  0  0  0  0
    2.0841   -1.1968   -0.0003 H   0  0  0  0  0  0  0  0  0  0  0  0
    1.1995    0.6962    0.0010 C   0  0  0  0  0  0  0  0  0  0  0  0
    2.0666    1.1914    0.0026 H   0  0  0  0  0  0  0  0  0  0  0  0
  1  5  1  0
  5  8  1  0
  1  2  1  0
  1  3  1  0
  1  4  1  0
  5  6  1  0
  5  7  1  0
  8  9  1  0
  8 10  1  0
  8 11  1  0
 12 16  1  0
 16 17  2  0
 17 19  1  0
 19 21  2  0
 21 23  1  0
 23 25  2  0
 25 16  1  0
 12 13  1  0
 12 14  1  0
 12 15  1  0
 17 18  1  0
 19 20  1  0
 21 22  1  0
 23 24  1  0
 25 26  1  0
M  CHG  1   8   1
M  END
>  <PDB_ID>  (473) 
pdb2gum

>  <RESIDUE_NAME>  (473) 
LYS   PHE

>  <FRAG_NAME>  (473) 
ETAM   MBZ

>  <FRAG_ATOM_NUM>  (473) 
fragi: 11  fragj: 15

>  <atom.prop.CHAIN_ID>  (473) 
A A A A A A A A A A A Z Z Z Z Z Z Z Z Z Z Z Z Z Z Z

>  <atom.prop.IS_HEAVY_ATOM>  (473) 
1 0 0 0 1 0 0 1 0 0 0 1 0 0 0 1 1 0 1 0 1 0 1 0 1 0

>  <DIFUSE_FUNC_ATOM>  (473) 
n/a

>  <FINAL_SINGLE_POINT_ENERGY>  (473) 
0

>  <NONCOV_INTER_ENERGY_QM>  (473) 
0

>  <FF_Energy>  (473) 
-0.03

>  <QM_Energy>  (473) 
-5.7

>  <source>  (473) 
ETAM_MBZ

>  <Index>  (473) 
4482

$$$$
ETAM-pdb2guz-B-LYS-60:MBZ-pdb2guz-A-PHE-149
     RDKit          3D

 26 25  0  0  0  0  0  0  0  0999 V2000
    0.3072    0.8233    3.7631 C   0  0  0  0  0  0  0  0  0  0  0  0
    0.3439    0.6010    4.7303 H   0  0  0  0  0  0  0  0  0  0  0  0
    0.0207    0.0335    3.2337 H   0  0  0  0  0  0  0  0  0  0  0  0
   -0.4253    1.6178    3.6209 H   0  0  0  0  0  0  0  0  0  0  0  0
    1.6685    1.2607    3.3030 C   0  0  0  0  0  0  0  0  0  0  0  0
    1.5852    1.6812    2.3781 H   0  0  0  0  0  0  0  0  0  0  0  0
    2.0080    1.9935    3.9242 H   0  0  0  0  0  0  0  0  0  0  0  0
    2.6762    0.1808    3.2463 N   0  0  0  0  0  4  0  0  0  0  0  0
    2.9319   -0.0901    4.1752 H   0  0  0  0  0  0  0  0  0  0  0  0
    2.2962   -0.6099    2.7637 H   0  0  0  0  0  0  0  0  0  0  0  0
    3.4896    0.5049    2.7601 H   0  0  0  0  0  0  0  0  0  0  0  0
    0.0091    2.9210    0.0629 C   0  0  0  0  0  0  0  0  0  0  0  0
    0.3184    3.1923    0.9576 H   0  0  0  0  0  0  0  0  0  0  0  0
   -0.9062    3.2355   -0.1217 H   0  0  0  0  0  0  0  0  0  0  0  0
    0.6719    3.3802   -0.6705 H   0  0  0  0  0  0  0  0  0  0  0  0
   -0.0013    1.4009    0.0134 C   0  0  0  0  0  0  0  0  0  0  0  0
   -1.1883    0.7002    0.0009 C   0  0  0  0  0  0  0  0  0  0  0  0
   -2.0614    1.1862   -0.0095 H   0  0  0  0  0  0  0  0  0  0  0  0
   -1.2093   -0.7062    0.0000 C   0  0  0  0  0  0  0  0  0  0  0  0
   -2.0861   -1.1846    0.0210 H   0  0  0  0  0  0  0  0  0  0  0  0
   -0.0098   -1.4001   -0.0282 C   0  0  0  0  0  0  0  0  0  0  0  0
    0.0002   -2.3938   -0.0682 H   0  0  0  0  0  0  0  0  0  0  0  0
    1.2093   -0.6892   -0.0000 C   0  0  0  0  0  0  0  0  0  0  0  0
    2.0821   -1.1948    0.0113 H   0  0  0  0  0  0  0  0  0  0  0  0
    1.1994    0.6945    0.0139 C   0  0  0  0  0  0  0  0  0  0  0  0
    2.0649    1.1982    0.0241 H   0  0  0  0  0  0  0  0  0  0  0  0
  1  5  1  0
  5  8  1  0
  1  2  1  0
  1  3  1  0
  1  4  1  0
  5  6  1  0
  5  7  1  0
  8  9  1  0
  8 10  1  0
  8 11  1  0
 12 16  1  0
 16 17  2  0
 17 19  1  0
 19 21  2  0
 21 23  1  0
 23 25  2  0
 25 16  1  0
 12 13  1  0
 12 14  1  0
 12 15  1  0
 17 18  1  0
 19 20  1  0
 21 22  1  0
 23 24  1  0
 25 26  1  0
M  CHG  1   8   1
M  END
>  <PDB_ID>  (474) 
pdb2guz

>  <RESIDUE_NAME>  (474) 
LYS   PHE

>  <FRAG_NAME>  (474) 
ETAM   MBZ

>  <FRAG_ATOM_NUM>  (474) 
fragi: 11  fragj: 15

>  <atom.prop.CHAIN_ID>  (474) 
A A A A A A A A A A A Z Z Z Z Z Z Z Z Z Z Z Z Z Z Z

>  <atom.prop.IS_HEAVY_ATOM>  (474) 
1 0 0 0 1 0 0 1 0 0 0 1 0 0 0 1 1 0 1 0 1 0 1 0 1 0

>  <DIFUSE_FUNC_ATOM>  (474) 
n/a

>  <FINAL_SINGLE_POINT_ENERGY>  (474) 
0

>  <NONCOV_INTER_ENERGY_QM>  (474) 
0

>  <FF_Energy>  (474) 
-4.37

>  <QM_Energy>  (474) 
-10.07

>  <source>  (474) 
ETAM_MBZ

>  <Index>  (474) 
4488

$$$$
ETAM-pdb2gvl-A-LYS-255:MBZ-pdb2gvl-B-PHE-414
     RDKit          3D

 26 25  0  0  0  0  0  0  0  0999 V2000
    2.2853   -4.1266    0.9948 C   0  0  0  0  0  0  0  0  0  0  0  0
    1.8761   -5.0010    0.7614 H   0  0  0  0  0  0  0  0  0  0  0  0
    1.6259   -3.3914    0.8843 H   0  0  0  0  0  0  0  0  0  0  0  0
    2.6029   -4.1576    2.0370 H   0  0  0  0  0  0  0  0  0  0  0  0
    3.4630   -3.8711    0.0389 C   0  0  0  0  0  0  0  0  0  0  0  0
    4.1107   -3.2504    0.4841 H   0  0  0  0  0  0  0  0  0  0  0  0
    3.9195   -4.7426   -0.1507 H   0  0  0  0  0  0  0  0  0  0  0  0
    3.0178   -3.2593   -1.2657 N   0  0  0  0  0  4  0  0  0  0  0  0
    2.3746   -3.8782   -1.7084 H   0  0  0  0  0  0  0  0  0  0  0  0
    2.5776   -2.3860   -1.0774 H   0  0  0  0  0  0  0  0  0  0  0  0
    3.8165   -3.1234   -1.8459 H   0  0  0  0  0  0  0  0  0  0  0  0
   -0.0024    2.9120    0.0227 C   0  0  0  0  0  0  0  0  0  0  0  0
   -0.8850    3.2220   -0.2890 H   0  0  0  0  0  0  0  0  0  0  0  0
    0.7241    3.2283   -0.5649 H   0  0  0  0  0  0  0  0  0  0  0  0
    0.1658    3.3366    1.0124 H   0  0  0  0  0  0  0  0  0  0  0  0
   -0.0010    1.4025   -0.0003 C   0  0  0  0  0  0  0  0  0  0  0  0
   -1.1968    0.6932   -0.0013 C   0  0  0  0  0  0  0  0  0  0  0  0
   -2.0645    1.1851   -0.0045 H   0  0  0  0  0  0  0  0  0  0  0  0
   -1.2053   -0.6980    0.0000 C   0  0  0  0  0  0  0  0  0  0  0  0
   -2.0786   -1.1915    0.0030 H   0  0  0  0  0  0  0  0  0  0  0  0
    0.0014   -1.3957   -0.0003 C   0  0  0  0  0  0  0  0  0  0  0  0
   -0.0019   -2.3927   -0.0009 H   0  0  0  0  0  0  0  0  0  0  0  0
    1.2053   -0.6960    0.0000 C   0  0  0  0  0  0  0  0  0  0  0  0
    2.0854   -1.1935    0.0004 H   0  0  0  0  0  0  0  0  0  0  0  0
    1.1964    0.6939    0.0018 C   0  0  0  0  0  0  0  0  0  0  0  0
    2.0641    1.1928    0.0036 H   0  0  0  0  0  0  0  0  0  0  0  0
  1  5  1  0
  5  8  1  0
  1  2  1  0
  1  3  1  0
  1  4  1  0
  5  6  1  0
  5  7  1  0
  8  9  1  0
  8 10  1  0
  8 11  1  0
 12 16  1  0
 16 17  2  0
 17 19  1  0
 19 21  2  0
 21 23  1  0
 23 25  2  0
 25 16  1  0
 12 13  1  0
 12 14  1  0
 12 15  1  0
 17 18  1  0
 19 20  1  0
 21 22  1  0
 23 24  1  0
 25 26  1  0
M  CHG  1   8   1
M  END
>  <PDB_ID>  (475) 
pdb2gvl

>  <RESIDUE_NAME>  (475) 
LYS   PHE

>  <FRAG_NAME>  (475) 
ETAM   MBZ

>  <FRAG_ATOM_NUM>  (475) 
fragi: 11  fragj: 15

>  <atom.prop.CHAIN_ID>  (475) 
A A A A A A A A A A A Z Z Z Z Z Z Z Z Z Z Z Z Z Z Z

>  <atom.prop.IS_HEAVY_ATOM>  (475) 
1 0 0 0 1 0 0 1 0 0 0 1 0 0 0 1 1 0 1 0 1 0 1 0 1 0

>  <DIFUSE_FUNC_ATOM>  (475) 
n/a

>  <FINAL_SINGLE_POINT_ENERGY>  (475) 
0

>  <NONCOV_INTER_ENERGY_QM>  (475) 
0

>  <FF_Energy>  (475) 
1.72

>  <QM_Energy>  (475) 
-5.01

>  <source>  (475) 
ETAM_MBZ

>  <Index>  (475) 
4496

$$$$
ETAM-pdb1g24-C-LYS-2081:MBZ-pdb1g24-C-PHE-2209
     RDKit          3D

 26 25  0  0  0  0  0  0  0  0999 V2000
    4.1880    1.1496    3.4709 C   0  0  0  0  0  0  0  0  0  0  0  0
    4.9934    1.7327    3.4834 H   0  0  0  0  0  0  0  0  0  0  0  0
    4.1455    0.5994    4.2978 H   0  0  0  0  0  0  0  0  0  0  0  0
    3.2992    1.7785    3.4197 H   0  0  0  0  0  0  0  0  0  0  0  0
    4.2696    0.2297    2.2765 C   0  0  0  0  0  0  0  0  0  0  0  0
    4.2310    0.7771    1.4374 H   0  0  0  0  0  0  0  0  0  0  0  0
    5.1393   -0.2672    2.3039 H   0  0  0  0  0  0  0  0  0  0  0  0
    3.1529   -0.7412    2.2782 N   0  0  0  0  0  4  0  0  0  0  0  0
    2.7213   -0.7582    1.3751 H   0  0  0  0  0  0  0  0  0  0  0  0
    3.5018   -1.6543    2.4963 H   0  0  0  0  0  0  0  0  0  0  0  0
    2.4756   -0.4733    2.9649 H   0  0  0  0  0  0  0  0  0  0  0  0
   -0.0142    2.8953   -0.1372 C   0  0  0  0  0  0  0  0  0  0  0  0
    0.8769    3.2353    0.1086 H   0  0  0  0  0  0  0  0  0  0  0  0
   -0.7212    3.2507    0.4494 H   0  0  0  0  0  0  0  0  0  0  0  0
   -0.2277    3.2229   -1.1546 H   0  0  0  0  0  0  0  0  0  0  0  0
   -0.0002    1.4035   -0.0023 C   0  0  0  0  0  0  0  0  0  0  0  0
   -1.1968    0.6904    0.0026 C   0  0  0  0  0  0  0  0  0  0  0  0
   -2.0641    1.1809    0.0067 H   0  0  0  0  0  0  0  0  0  0  0  0
   -1.2023   -0.7013    0.0000 C   0  0  0  0  0  0  0  0  0  0  0  0
   -2.0788   -1.1940    0.0010 H   0  0  0  0  0  0  0  0  0  0  0  0
   -0.0013   -1.3956   -0.0021 C   0  0  0  0  0  0  0  0  0  0  0  0
   -0.0026   -2.3946   -0.0056 H   0  0  0  0  0  0  0  0  0  0  0  0
    1.2023   -0.6982   -0.0000 C   0  0  0  0  0  0  0  0  0  0  0  0
    2.0831   -1.1929    0.0017 H   0  0  0  0  0  0  0  0  0  0  0  0
    1.1983    0.7012    0.0018 C   0  0  0  0  0  0  0  0  0  0  0  0
    2.0651    1.1941    0.0056 H   0  0  0  0  0  0  0  0  0  0  0  0
  1  5  1  0
  5  8  1  0
  1  2  1  0
  1  3  1  0
  1  4  1  0
  5  6  1  0
  5  7  1  0
  8  9  1  0
  8 10  1  0
  8 11  1  0
 12 16  1  0
 16 17  2  0
 17 19  1  0
 19 21  2  0
 21 23  1  0
 23 25  2  0
 25 16  1  0
 12 13  1  0
 12 14  1  0
 12 15  1  0
 17 18  1  0
 19 20  1  0
 21 22  1  0
 23 24  1  0
 25 26  1  0
M  CHG  1   8   1
M  END
>  <PDB_ID>  (476) 
pdb1g24

>  <RESIDUE_NAME>  (476) 
LYS   PHE

>  <FRAG_NAME>  (476) 
ETAM   MBZ

>  <FRAG_ATOM_NUM>  (476) 
fragi: 11  fragj: 15

>  <atom.prop.CHAIN_ID>  (476) 
A A A A A A A A A A A Z Z Z Z Z Z Z Z Z Z Z Z Z Z Z

>  <atom.prop.IS_HEAVY_ATOM>  (476) 
1 0 0 0 1 0 0 1 0 0 0 1 0 0 0 1 1 0 1 0 1 0 1 0 1 0

>  <DIFUSE_FUNC_ATOM>  (476) 
n/a

>  <FINAL_SINGLE_POINT_ENERGY>  (476) 
0

>  <NONCOV_INTER_ENERGY_QM>  (476) 
0

>  <FF_Energy>  (476) 
-0.1

>  <QM_Energy>  (476) 
-7.02

>  <source>  (476) 
ETAM_MBZ

>  <Index>  (476) 
4512

$$$$
ETAM-pdb1g2c-C-LYS-176:MBZ-pdb1g2c-D-PHE-505
     RDKit          3D

 26 25  0  0  0  0  0  0  0  0999 V2000
    1.9239   -1.3369   -3.7946 C   0  0  0  0  0  0  0  0  0  0  0  0
    2.6677   -1.6149   -4.3901 H   0  0  0  0  0  0  0  0  0  0  0  0
    2.2547   -0.7354   -3.0772 H   0  0  0  0  0  0  0  0  0  0  0  0
    1.1839   -0.8000   -4.3880 H   0  0  0  0  0  0  0  0  0  0  0  0
    1.3261   -2.5857   -3.1460 C   0  0  0  0  0  0  0  0  0  0  0  0
    0.5452   -2.3080   -2.5675 H   0  0  0  0  0  0  0  0  0  0  0  0
    0.9692   -3.1896   -3.8742 H   0  0  0  0  0  0  0  0  0  0  0  0
    2.2956   -3.3650   -2.3053 N   0  0  0  0  0  4  0  0  0  0  0  0
    1.8360   -4.1718   -1.9425 H   0  0  0  0  0  0  0  0  0  0  0  0
    3.0687   -3.6411   -2.8724 H   0  0  0  0  0  0  0  0  0  0  0  0
    2.6129   -2.7878   -1.5558 H   0  0  0  0  0  0  0  0  0  0  0  0
   -0.0045    2.9247   -0.0279 C   0  0  0  0  0  0  0  0  0  0  0  0
   -0.9368    3.2272    0.0881 H   0  0  0  0  0  0  0  0  0  0  0  0
    0.3659    3.2143   -0.8959 H   0  0  0  0  0  0  0  0  0  0  0  0
    0.5934    3.3868    0.7575 H   0  0  0  0  0  0  0  0  0  0  0  0
    0.0004    1.4083   -0.0008 C   0  0  0  0  0  0  0  0  0  0  0  0
   -1.1966    0.6969    0.0005 C   0  0  0  0  0  0  0  0  0  0  0  0
   -2.0647    1.1857    0.0002 H   0  0  0  0  0  0  0  0  0  0  0  0
   -1.2046   -0.6989   -0.0000 C   0  0  0  0  0  0  0  0  0  0  0  0
   -2.0814   -1.1896   -0.0006 H   0  0  0  0  0  0  0  0  0  0  0  0
   -0.0005   -1.4025    0.0016 C   0  0  0  0  0  0  0  0  0  0  0  0
   -0.0053   -2.3970    0.0038 H   0  0  0  0  0  0  0  0  0  0  0  0
    1.2046   -0.7013    0.0000 C   0  0  0  0  0  0  0  0  0  0  0  0
    2.0850   -1.1954    0.0010 H   0  0  0  0  0  0  0  0  0  0  0  0
    1.1967    0.6974   -0.0012 C   0  0  0  0  0  0  0  0  0  0  0  0
    2.0663    1.1916   -0.0037 H   0  0  0  0  0  0  0  0  0  0  0  0
  1  5  1  0
  5  8  1  0
  1  2  1  0
  1  3  1  0
  1  4  1  0
  5  6  1  0
  5  7  1  0
  8  9  1  0
  8 10  1  0
  8 11  1  0
 12 16  1  0
 16 17  2  0
 17 19  1  0
 19 21  2  0
 21 23  1  0
 23 25  2  0
 25 16  1  0
 12 13  1  0
 12 14  1  0
 12 15  1  0
 17 18  1  0
 19 20  1  0
 21 22  1  0
 23 24  1  0
 25 26  1  0
M  CHG  1   8   1
M  END
>  <PDB_ID>  (477) 
pdb1g2c

>  <RESIDUE_NAME>  (477) 
LYS   PHE

>  <FRAG_NAME>  (477) 
ETAM   MBZ

>  <FRAG_ATOM_NUM>  (477) 
fragi: 11  fragj: 15

>  <atom.prop.CHAIN_ID>  (477) 
A A A A A A A A A A A Z Z Z Z Z Z Z Z Z Z Z Z Z Z Z

>  <atom.prop.IS_HEAVY_ATOM>  (477) 
1 0 0 0 1 0 0 1 0 0 0 1 0 0 0 1 1 0 1 0 1 0 1 0 1 0

>  <DIFUSE_FUNC_ATOM>  (477) 
n/a

>  <FINAL_SINGLE_POINT_ENERGY>  (477) 
0

>  <NONCOV_INTER_ENERGY_QM>  (477) 
0

>  <FF_Energy>  (477) 
-1.56

>  <QM_Energy>  (477) 
-7.17

>  <source>  (477) 
ETAM_MBZ

>  <Index>  (477) 
4529

$$$$
ETAM-pdb1g2c-I-LYS-176:MBZ-pdb1g2c-J-PHE-505
     RDKit          3D

 26 25  0  0  0  0  0  0  0  0999 V2000
    1.7770   -1.3490   -3.8466 C   0  0  0  0  0  0  0  0  0  0  0  0
    2.6130   -1.1149   -4.3358 H   0  0  0  0  0  0  0  0  0  0  0  0
    1.7931   -0.9499   -2.9332 H   0  0  0  0  0  0  0  0  0  0  0  0
    0.9269   -0.9402   -4.3927 H   0  0  0  0  0  0  0  0  0  0  0  0
    1.6972   -2.8595   -3.7151 C   0  0  0  0  0  0  0  0  0  0  0  0
    1.3792   -3.2457   -4.5867 H   0  0  0  0  0  0  0  0  0  0  0  0
    2.6161   -3.2185   -3.5223 H   0  0  0  0  0  0  0  0  0  0  0  0
    0.7723   -3.2793   -2.6292 N   0  0  0  0  0  4  0  0  0  0  0  0
    1.1448   -2.9930   -1.7466 H   0  0  0  0  0  0  0  0  0  0  0  0
   -0.1211   -2.8516   -2.7696 H   0  0  0  0  0  0  0  0  0  0  0  0
    0.6726   -4.2739   -2.6434 H   0  0  0  0  0  0  0  0  0  0  0  0
    0.0065    2.8957   -0.0137 C   0  0  0  0  0  0  0  0  0  0  0  0
   -0.9232    3.2146    0.0926 H   0  0  0  0  0  0  0  0  0  0  0  0
    0.3939    3.1966   -0.8718 H   0  0  0  0  0  0  0  0  0  0  0  0
    0.6001    3.3350    0.7880 H   0  0  0  0  0  0  0  0  0  0  0  0
   -0.0039    1.4034   -0.0004 C   0  0  0  0  0  0  0  0  0  0  0  0
   -1.1994    0.7008    0.0003 C   0  0  0  0  0  0  0  0  0  0  0  0
   -2.0665    1.1880    0.0003 H   0  0  0  0  0  0  0  0  0  0  0  0
   -1.2049   -0.6962    0.0000 C   0  0  0  0  0  0  0  0  0  0  0  0
   -2.0770   -1.1908    0.0017 H   0  0  0  0  0  0  0  0  0  0  0  0
    0.0075   -1.3968    0.0001 C   0  0  0  0  0  0  0  0  0  0  0  0
   -0.0020   -2.3939   -0.0006 H   0  0  0  0  0  0  0  0  0  0  0  0
    1.2049   -0.7008   -0.0000 C   0  0  0  0  0  0  0  0  0  0  0  0
    2.0872   -1.1950    0.0014 H   0  0  0  0  0  0  0  0  0  0  0  0
    1.1958    0.6896    0.0000 C   0  0  0  0  0  0  0  0  0  0  0  0
    2.0633    1.1896   -0.0005 H   0  0  0  0  0  0  0  0  0  0  0  0
  1  5  1  0
  5  8  1  0
  1  2  1  0
  1  3  1  0
  1  4  1  0
  5  6  1  0
  5  7  1  0
  8  9  1  0
  8 10  1  0
  8 11  1  0
 12 16  1  0
 16 17  2  0
 17 19  1  0
 19 21  2  0
 21 23  1  0
 23 25  2  0
 25 16  1  0
 12 13  1  0
 12 14  1  0
 12 15  1  0
 17 18  1  0
 19 20  1  0
 21 22  1  0
 23 24  1  0
 25 26  1  0
M  CHG  1   8   1
M  END
>  <PDB_ID>  (478) 
pdb1g2c

>  <RESIDUE_NAME>  (478) 
LYS   PHE

>  <FRAG_NAME>  (478) 
ETAM   MBZ

>  <FRAG_ATOM_NUM>  (478) 
fragi: 11  fragj: 15

>  <atom.prop.CHAIN_ID>  (478) 
A A A A A A A A A A A Z Z Z Z Z Z Z Z Z Z Z Z Z Z Z

>  <atom.prop.IS_HEAVY_ATOM>  (478) 
1 0 0 0 1 0 0 1 0 0 0 1 0 0 0 1 1 0 1 0 1 0 1 0 1 0

>  <DIFUSE_FUNC_ATOM>  (478) 
n/a

>  <FINAL_SINGLE_POINT_ENERGY>  (478) 
0

>  <NONCOV_INTER_ENERGY_QM>  (478) 
0

>  <FF_Energy>  (478) 
-2.28

>  <QM_Energy>  (478) 
-8.66

>  <source>  (478) 
ETAM_MBZ

>  <Index>  (478) 
4533

$$$$
ETAM-pdb1g31-D-LYS-89:MBZ-pdb1g31-D-PHE-83
     RDKit          3D

 26 25  0  0  0  0  0  0  0  0999 V2000
    3.3644    2.6866    1.9592 C   0  0  0  0  0  0  0  0  0  0  0  0
    2.8722    2.4552    1.1240 H   0  0  0  0  0  0  0  0  0  0  0  0
    4.2553    3.0718    1.7351 H   0  0  0  0  0  0  0  0  0  0  0  0
    2.7873    3.4160    2.5277 H   0  0  0  0  0  0  0  0  0  0  0  0
    3.5834    1.4093    2.7540 C   0  0  0  0  0  0  0  0  0  0  0  0
    4.1339    1.6170    3.5624 H   0  0  0  0  0  0  0  0  0  0  0  0
    2.6968    1.0456    3.0411 H   0  0  0  0  0  0  0  0  0  0  0  0
    4.2913    0.3754    1.9345 N   0  0  0  0  0  4  0  0  0  0  0  0
    3.7339   -0.4514    1.8980 H   0  0  0  0  0  0  0  0  0  0  0  0
    4.4321    0.7295    1.0123 H   0  0  0  0  0  0  0  0  0  0  0  0
    5.1727    0.1709    2.3561 H   0  0  0  0  0  0  0  0  0  0  0  0
   -0.0241    2.8976   -0.0667 C   0  0  0  0  0  0  0  0  0  0  0  0
    0.6704    3.1900   -0.7038 H   0  0  0  0  0  0  0  0  0  0  0  0
    0.1440    3.2501    0.8403 H   0  0  0  0  0  0  0  0  0  0  0  0
   -0.9826    3.2887   -0.4082 H   0  0  0  0  0  0  0  0  0  0  0  0
    0.0009    1.4111   -0.0012 C   0  0  0  0  0  0  0  0  0  0  0  0
   -1.2059    0.6888    0.0005 C   0  0  0  0  0  0  0  0  0  0  0  0
   -2.0712    1.1808    0.0006 H   0  0  0  0  0  0  0  0  0  0  0  0
   -1.2169   -0.7127    0.0000 C   0  0  0  0  0  0  0  0  0  0  0  0
   -2.0851   -1.2038    0.0005 H   0  0  0  0  0  0  0  0  0  0  0  0
    0.0003   -1.4103    0.0003 C   0  0  0  0  0  0  0  0  0  0  0  0
    0.0069   -2.4015    0.0005 H   0  0  0  0  0  0  0  0  0  0  0  0
    1.2169   -0.6927   -0.0000 C   0  0  0  0  0  0  0  0  0  0  0  0
    2.0948   -1.1841    0.0010 H   0  0  0  0  0  0  0  0  0  0  0  0
    1.2047    0.7158    0.0004 C   0  0  0  0  0  0  0  0  0  0  0  0
    2.0684    1.2090    0.0006 H   0  0  0  0  0  0  0  0  0  0  0  0
  1  5  1  0
  5  8  1  0
  1  2  1  0
  1  3  1  0
  1  4  1  0
  5  6  1  0
  5  7  1  0
  8  9  1  0
  8 10  1  0
  8 11  1  0
 12 16  1  0
 16 17  2  0
 17 19  1  0
 19 21  2  0
 21 23  1  0
 23 25  2  0
 25 16  1  0
 12 13  1  0
 12 14  1  0
 12 15  1  0
 17 18  1  0
 19 20  1  0
 21 22  1  0
 23 24  1  0
 25 26  1  0
M  CHG  1   8   1
M  END
>  <PDB_ID>  (479) 
pdb1g31

>  <RESIDUE_NAME>  (479) 
LYS   PHE

>  <FRAG_NAME>  (479) 
ETAM   MBZ

>  <FRAG_ATOM_NUM>  (479) 
fragi: 11  fragj: 15

>  <atom.prop.CHAIN_ID>  (479) 
A A A A A A A A A A A Z Z Z Z Z Z Z Z Z Z Z Z Z Z Z

>  <atom.prop.IS_HEAVY_ATOM>  (479) 
1 0 0 0 1 0 0 1 0 0 0 1 0 0 0 1 1 0 1 0 1 0 1 0 1 0

>  <DIFUSE_FUNC_ATOM>  (479) 
n/a

>  <FINAL_SINGLE_POINT_ENERGY>  (479) 
0

>  <NONCOV_INTER_ENERGY_QM>  (479) 
0

>  <FF_Energy>  (479) 
1.03

>  <QM_Energy>  (479) 
-4.52

>  <source>  (479) 
ETAM_MBZ

>  <Index>  (479) 
4557

$$$$
ETAM-pdb1g3m-A-LYS-47:MBZ-pdb1g3m-A-PHE-141
     RDKit          3D

 26 25  0  0  0  0  0  0  0  0999 V2000
   -0.6539    1.3318   -3.6920 C   0  0  0  0  0  0  0  0  0  0  0  0
   -0.6416    0.5349   -4.2870 H   0  0  0  0  0  0  0  0  0  0  0  0
   -0.1511    1.1483   -2.8546 H   0  0  0  0  0  0  0  0  0  0  0  0
   -0.1619    2.1531   -4.2130 H   0  0  0  0  0  0  0  0  0  0  0  0
   -2.0970    1.6636   -3.3395 C   0  0  0  0  0  0  0  0  0  0  0  0
   -2.1018    2.4035   -2.6582 H   0  0  0  0  0  0  0  0  0  0  0  0
   -2.5663    1.9912   -4.1676 H   0  0  0  0  0  0  0  0  0  0  0  0
   -2.8344    0.4918   -2.7928 N   0  0  0  0  0  4  0  0  0  0  0  0
   -3.4688    0.1473   -3.4844 H   0  0  0  0  0  0  0  0  0  0  0  0
   -2.1824   -0.2261   -2.5482 H   0  0  0  0  0  0  0  0  0  0  0  0
   -3.3449    0.7714   -1.9805 H   0  0  0  0  0  0  0  0  0  0  0  0
    0.0001    2.9086   -0.0314 C   0  0  0  0  0  0  0  0  0  0  0  0
   -0.6079    3.1990   -0.7560 H   0  0  0  0  0  0  0  0  0  0  0  0
    0.9268    3.2115   -0.1961 H   0  0  0  0  0  0  0  0  0  0  0  0
   -0.3414    3.3685    0.8959 H   0  0  0  0  0  0  0  0  0  0  0  0
    0.0011    1.4054   -0.0010 C   0  0  0  0  0  0  0  0  0  0  0  0
   -1.1976    0.6982    0.0024 C   0  0  0  0  0  0  0  0  0  0  0  0
   -2.0639    1.1844    0.0054 H   0  0  0  0  0  0  0  0  0  0  0  0
   -1.2034   -0.7033   -0.0000 C   0  0  0  0  0  0  0  0  0  0  0  0
   -2.0806   -1.1916    0.0016 H   0  0  0  0  0  0  0  0  0  0  0  0
   -0.0019   -1.3969   -0.0026 C   0  0  0  0  0  0  0  0  0  0  0  0
   -0.0041   -2.3967   -0.0071 H   0  0  0  0  0  0  0  0  0  0  0  0
    1.2034   -0.7006    0.0000 C   0  0  0  0  0  0  0  0  0  0  0  0
    2.0832   -1.1963    0.0021 H   0  0  0  0  0  0  0  0  0  0  0  0
    1.1984    0.6972    0.0012 C   0  0  0  0  0  0  0  0  0  0  0  0
    2.0668    1.1902    0.0025 H   0  0  0  0  0  0  0  0  0  0  0  0
  1  5  1  0
  5  8  1  0
  1  2  1  0
  1  3  1  0
  1  4  1  0
  5  6  1  0
  5  7  1  0
  8  9  1  0
  8 10  1  0
  8 11  1  0
 12 16  1  0
 16 17  2  0
 17 19  1  0
 19 21  2  0
 21 23  1  0
 23 25  2  0
 25 16  1  0
 12 13  1  0
 12 14  1  0
 12 15  1  0
 17 18  1  0
 19 20  1  0
 21 22  1  0
 23 24  1  0
 25 26  1  0
M  CHG  1   8   1
M  END
>  <PDB_ID>  (480) 
pdb1g3m

>  <RESIDUE_NAME>  (480) 
LYS   PHE

>  <FRAG_NAME>  (480) 
ETAM   MBZ

>  <FRAG_ATOM_NUM>  (480) 
fragi: 11  fragj: 15

>  <atom.prop.CHAIN_ID>  (480) 
A A A A A A A A A A A Z Z Z Z Z Z Z Z Z Z Z Z Z Z Z

>  <atom.prop.IS_HEAVY_ATOM>  (480) 
1 0 0 0 1 0 0 1 0 0 0 1 0 0 0 1 1 0 1 0 1 0 1 0 1 0

>  <DIFUSE_FUNC_ATOM>  (480) 
n/a

>  <FINAL_SINGLE_POINT_ENERGY>  (480) 
0

>  <NONCOV_INTER_ENERGY_QM>  (480) 
0

>  <FF_Energy>  (480) 
-4.44

>  <QM_Energy>  (480) 
-10.87

>  <source>  (480) 
ETAM_MBZ

>  <Index>  (480) 
4565

$$$$
ETAM-pdb1g3m-B-LYS-47:MBZ-pdb1g3m-B-PHE-141
     RDKit          3D

 26 25  0  0  0  0  0  0  0  0999 V2000
   -0.3612    1.3074   -3.7705 C   0  0  0  0  0  0  0  0  0  0  0  0
   -0.3133    0.5102   -4.3644 H   0  0  0  0  0  0  0  0  0  0  0  0
    0.0916    1.1192   -2.9048 H   0  0  0  0  0  0  0  0  0  0  0  0
    0.1479    2.1382   -4.2592 H   0  0  0  0  0  0  0  0  0  0  0  0
   -1.8305    1.6187   -3.4924 C   0  0  0  0  0  0  0  0  0  0  0  0
   -1.8836    2.3640   -2.8278 H   0  0  0  0  0  0  0  0  0  0  0  0
   -2.2690    1.9021   -4.3454 H   0  0  0  0  0  0  0  0  0  0  0  0
   -2.5450    0.4235   -2.9477 N   0  0  0  0  0  4  0  0  0  0  0  0
   -2.5394    0.4645   -1.9503 H   0  0  0  0  0  0  0  0  0  0  0  0
   -3.4864    0.4244   -3.2797 H   0  0  0  0  0  0  0  0  0  0  0  0
   -2.0795   -0.4050   -3.2549 H   0  0  0  0  0  0  0  0  0  0  0  0
    0.0017    2.9107   -0.0252 C   0  0  0  0  0  0  0  0  0  0  0  0
   -0.5332    3.2042   -0.8034 H   0  0  0  0  0  0  0  0  0  0  0  0
    0.9403    3.2146   -0.1012 H   0  0  0  0  0  0  0  0  0  0  0  0
   -0.4259    3.3722    0.8649 H   0  0  0  0  0  0  0  0  0  0  0  0
    0.0003    1.4049   -0.0003 C   0  0  0  0  0  0  0  0  0  0  0  0
   -1.1974    0.6944    0.0007 C   0  0  0  0  0  0  0  0  0  0  0  0
   -2.0644    1.1846    0.0004 H   0  0  0  0  0  0  0  0  0  0  0  0
   -1.2029   -0.6987    0.0000 C   0  0  0  0  0  0  0  0  0  0  0  0
   -2.0806   -1.1903    0.0014 H   0  0  0  0  0  0  0  0  0  0  0  0
   -0.0021   -1.3974   -0.0011 C   0  0  0  0  0  0  0  0  0  0  0  0
   -0.0052   -2.3944   -0.0037 H   0  0  0  0  0  0  0  0  0  0  0  0
    1.2029   -0.6989   -0.0000 C   0  0  0  0  0  0  0  0  0  0  0  0
    2.0827   -1.1961    0.0015 H   0  0  0  0  0  0  0  0  0  0  0  0
    1.1991    0.6956    0.0007 C   0  0  0  0  0  0  0  0  0  0  0  0
    2.0662    1.1906    0.0014 H   0  0  0  0  0  0  0  0  0  0  0  0
  1  5  1  0
  5  8  1  0
  1  2  1  0
  1  3  1  0
  1  4  1  0
  5  6  1  0
  5  7  1  0
  8  9  1  0
  8 10  1  0
  8 11  1  0
 12 16  1  0
 16 17  2  0
 17 19  1  0
 19 21  2  0
 21 23  1  0
 23 25  2  0
 25 16  1  0
 12 13  1  0
 12 14  1  0
 12 15  1  0
 17 18  1  0
 19 20  1  0
 21 22  1  0
 23 24  1  0
 25 26  1  0
M  CHG  1   8   1
M  END
>  <PDB_ID>  (481) 
pdb1g3m

>  <RESIDUE_NAME>  (481) 
LYS   PHE

>  <FRAG_NAME>  (481) 
ETAM   MBZ

>  <FRAG_ATOM_NUM>  (481) 
fragi: 11  fragj: 15

>  <atom.prop.CHAIN_ID>  (481) 
A A A A A A A A A A A Z Z Z Z Z Z Z Z Z Z Z Z Z Z Z

>  <atom.prop.IS_HEAVY_ATOM>  (481) 
1 0 0 0 1 0 0 1 0 0 0 1 0 0 0 1 1 0 1 0 1 0 1 0 1 0

>  <DIFUSE_FUNC_ATOM>  (481) 
n/a

>  <FINAL_SINGLE_POINT_ENERGY>  (481) 
0

>  <NONCOV_INTER_ENERGY_QM>  (481) 
0

>  <FF_Energy>  (481) 
-5.13

>  <QM_Energy>  (481) 
-11.76

>  <source>  (481) 
ETAM_MBZ

>  <Index>  (481) 
4570

$$$$
ETAM-pdb2gzm-A-LYS-21:MBZ-pdb2gzm-A-PHE-254
     RDKit          3D

 26 25  0  0  0  0  0  0  0  0999 V2000
    1.0395   -1.8993   -3.2615 C   0  0  0  0  0  0  0  0  0  0  0  0
    0.4659   -1.6028   -2.4999 H   0  0  0  0  0  0  0  0  0  0  0  0
    0.6501   -2.7188   -3.6774 H   0  0  0  0  0  0  0  0  0  0  0  0
    1.0561   -1.1069   -4.0099 H   0  0  0  0  0  0  0  0  0  0  0  0
    2.4416   -2.2667   -2.6936 C   0  0  0  0  0  0  0  0  0  0  0  0
    2.3280   -3.0571   -2.0769 H   0  0  0  0  0  0  0  0  0  0  0  0
    3.0225   -2.5563   -3.4667 H   0  0  0  0  0  0  0  0  0  0  0  0
    3.1103   -1.1541   -1.9587 N   0  0  0  0  0  4  0  0  0  0  0  0
    3.9061   -1.5119   -1.4722 H   0  0  0  0  0  0  0  0  0  0  0  0
    3.4011   -0.4552   -2.6106 H   0  0  0  0  0  0  0  0  0  0  0  0
    2.4672   -0.7573   -1.3051 H   0  0  0  0  0  0  0  0  0  0  0  0
   -0.0015    2.8993    0.0987 C   0  0  0  0  0  0  0  0  0  0  0  0
   -0.6097    3.2522   -0.5929 H   0  0  0  0  0  0  0  0  0  0  0  0
    0.9232    3.2180   -0.0308 H   0  0  0  0  0  0  0  0  0  0  0  0
   -0.3468    3.2673    1.0649 H   0  0  0  0  0  0  0  0  0  0  0  0
   -0.0003    1.4033    0.0011 C   0  0  0  0  0  0  0  0  0  0  0  0
   -1.1941    0.6953   -0.0015 C   0  0  0  0  0  0  0  0  0  0  0  0
   -2.0632    1.1826   -0.0059 H   0  0  0  0  0  0  0  0  0  0  0  0
   -1.2008   -0.7008   -0.0000 C   0  0  0  0  0  0  0  0  0  0  0  0
   -2.0789   -1.1904    0.0007 H   0  0  0  0  0  0  0  0  0  0  0  0
   -0.0013   -1.3966    0.0028 C   0  0  0  0  0  0  0  0  0  0  0  0
   -0.0014   -2.3942    0.0063 H   0  0  0  0  0  0  0  0  0  0  0  0
    1.2008   -0.6958    0.0000 C   0  0  0  0  0  0  0  0  0  0  0  0
    2.0823   -1.1944    0.0008 H   0  0  0  0  0  0  0  0  0  0  0  0
    1.1957    0.6946   -0.0024 C   0  0  0  0  0  0  0  0  0  0  0  0
    2.0641    1.1907   -0.0072 H   0  0  0  0  0  0  0  0  0  0  0  0
  1  5  1  0
  5  8  1  0
  1  2  1  0
  1  3  1  0
  1  4  1  0
  5  6  1  0
  5  7  1  0
  8  9  1  0
  8 10  1  0
  8 11  1  0
 12 16  1  0
 16 17  2  0
 17 19  1  0
 19 21  2  0
 21 23  1  0
 23 25  2  0
 25 16  1  0
 12 13  1  0
 12 14  1  0
 12 15  1  0
 17 18  1  0
 19 20  1  0
 21 22  1  0
 23 24  1  0
 25 26  1  0
M  CHG  1   8   1
M  END
>  <PDB_ID>  (482) 
pdb2gzm

>  <RESIDUE_NAME>  (482) 
LYS   PHE

>  <FRAG_NAME>  (482) 
ETAM   MBZ

>  <FRAG_ATOM_NUM>  (482) 
fragi: 11  fragj: 15

>  <atom.prop.CHAIN_ID>  (482) 
A A A A A A A A A A A Z Z Z Z Z Z Z Z Z Z Z Z Z Z Z

>  <atom.prop.IS_HEAVY_ATOM>  (482) 
1 0 0 0 1 0 0 1 0 0 0 1 0 0 0 1 1 0 1 0 1 0 1 0 1 0

>  <DIFUSE_FUNC_ATOM>  (482) 
n/a

>  <FINAL_SINGLE_POINT_ENERGY>  (482) 
0

>  <NONCOV_INTER_ENERGY_QM>  (482) 
0

>  <FF_Energy>  (482) 
8.65

>  <QM_Energy>  (482) 
-2.28

>  <source>  (482) 
ETAM_MBZ

>  <Index>  (482) 
4575

$$$$
ETAM-pdb2gzm-B-LYS-252:MBZ-pdb2gzm-B-PHE-157
     RDKit          3D

 26 25  0  0  0  0  0  0  0  0999 V2000
    1.9679   -3.8807    0.9330 C   0  0  0  0  0  0  0  0  0  0  0  0
    2.7703   -3.3560    0.6621 H   0  0  0  0  0  0  0  0  0  0  0  0
    1.1561   -3.3046    0.9023 H   0  0  0  0  0  0  0  0  0  0  0  0
    1.8387   -4.7093    0.2368 H   0  0  0  0  0  0  0  0  0  0  0  0
    2.1642   -4.3665    2.3586 C   0  0  0  0  0  0  0  0  0  0  0  0
    1.4007   -4.9692    2.6056 H   0  0  0  0  0  0  0  0  0  0  0  0
    3.0192   -4.8897    2.4103 H   0  0  0  0  0  0  0  0  0  0  0  0
    2.2252   -3.2360    3.3256 N   0  0  0  0  0  4  0  0  0  0  0  0
    3.1350   -3.2019    3.7381 H   0  0  0  0  0  0  0  0  0  0  0  0
    2.0430   -2.3787    2.8452 H   0  0  0  0  0  0  0  0  0  0  0  0
    1.5382   -3.3728    4.0390 H   0  0  0  0  0  0  0  0  0  0  0  0
    0.0021    2.8827    0.0275 C   0  0  0  0  0  0  0  0  0  0  0  0
   -0.7460    3.2074   -0.5331 H   0  0  0  0  0  0  0  0  0  0  0  0
    0.8730    3.1998   -0.3193 H   0  0  0  0  0  0  0  0  0  0  0  0
   -0.1276    3.3004    1.0259 H   0  0  0  0  0  0  0  0  0  0  0  0
   -0.0011    1.3956   -0.0003 C   0  0  0  0  0  0  0  0  0  0  0  0
   -1.1991    0.6940   -0.0001 C   0  0  0  0  0  0  0  0  0  0  0  0
   -2.0641    1.1882   -0.0015 H   0  0  0  0  0  0  0  0  0  0  0  0
   -1.2068   -0.6924    0.0000 C   0  0  0  0  0  0  0  0  0  0  0  0
   -2.0795   -1.1888    0.0008 H   0  0  0  0  0  0  0  0  0  0  0  0
    0.0004   -1.3908    0.0011 C   0  0  0  0  0  0  0  0  0  0  0  0
   -0.0052   -2.3892    0.0020 H   0  0  0  0  0  0  0  0  0  0  0  0
    1.2068   -0.6959   -0.0000 C   0  0  0  0  0  0  0  0  0  0  0  0
    2.0841   -1.1967    0.0012 H   0  0  0  0  0  0  0  0  0  0  0  0
    1.1998    0.6894   -0.0008 C   0  0  0  0  0  0  0  0  0  0  0  0
    2.0649    1.1916   -0.0028 H   0  0  0  0  0  0  0  0  0  0  0  0
  1  5  1  0
  5  8  1  0
  1  2  1  0
  1  3  1  0
  1  4  1  0
  5  6  1  0
  5  7  1  0
  8  9  1  0
  8 10  1  0
  8 11  1  0
 12 16  1  0
 16 17  2  0
 17 19  1  0
 19 21  2  0
 21 23  1  0
 23 25  2  0
 25 16  1  0
 12 13  1  0
 12 14  1  0
 12 15  1  0
 17 18  1  0
 19 20  1  0
 21 22  1  0
 23 24  1  0
 25 26  1  0
M  CHG  1   8   1
M  END
>  <PDB_ID>  (483) 
pdb2gzm

>  <RESIDUE_NAME>  (483) 
LYS   PHE

>  <FRAG_NAME>  (483) 
ETAM   MBZ

>  <FRAG_ATOM_NUM>  (483) 
fragi: 11  fragj: 15

>  <atom.prop.CHAIN_ID>  (483) 
A A A A A A A A A A A Z Z Z Z Z Z Z Z Z Z Z Z Z Z Z

>  <atom.prop.IS_HEAVY_ATOM>  (483) 
1 0 0 0 1 0 0 1 0 0 0 1 0 0 0 1 1 0 1 0 1 0 1 0 1 0

>  <DIFUSE_FUNC_ATOM>  (483) 
n/a

>  <FINAL_SINGLE_POINT_ENERGY>  (483) 
0

>  <NONCOV_INTER_ENERGY_QM>  (483) 
0

>  <FF_Energy>  (483) 
5.96

>  <QM_Energy>  (483) 
-2.72

>  <source>  (483) 
ETAM_MBZ

>  <Index>  (483) 
4576

$$$$
ETAM-pdb1g3k-B-LYS-80:MBZ-pdb1g3k-A-PHE-54
     RDKit          3D

 26 25  0  0  0  0  0  0  0  0999 V2000
   -5.8108    1.6954    0.7242 C   0  0  0  0  0  0  0  0  0  0  0  0
   -6.0637    0.9852    1.3807 H   0  0  0  0  0  0  0  0  0  0  0  0
   -6.4059    1.6385   -0.0775 H   0  0  0  0  0  0  0  0  0  0  0  0
   -5.9428    2.6704    1.1932 H   0  0  0  0  0  0  0  0  0  0  0  0
   -4.3844    1.4611    0.2844 C   0  0  0  0  0  0  0  0  0  0  0  0
   -4.1229    2.1558   -0.3822 H   0  0  0  0  0  0  0  0  0  0  0  0
   -3.7794    1.5073    1.0768 H   0  0  0  0  0  0  0  0  0  0  0  0
   -4.2450    0.1051   -0.3509 N   0  0  0  0  0  4  0  0  0  0  0  0
   -3.2758   -0.1123   -0.4419 H   0  0  0  0  0  0  0  0  0  0  0  0
   -4.6934   -0.5717    0.2283 H   0  0  0  0  0  0  0  0  0  0  0  0
   -4.6760    0.1232   -1.2502 H   0  0  0  0  0  0  0  0  0  0  0  0
    0.0043    2.8946   -0.0677 C   0  0  0  0  0  0  0  0  0  0  0  0
    0.6529    3.2327    0.5992 H   0  0  0  0  0  0  0  0  0  0  0  0
   -0.9104    3.2160    0.1280 H   0  0  0  0  0  0  0  0  0  0  0  0
    0.2933    3.2895   -1.0417 H   0  0  0  0  0  0  0  0  0  0  0  0
    0.0002    1.4014   -0.0009 C   0  0  0  0  0  0  0  0  0  0  0  0
   -1.2009    0.6966    0.0011 C   0  0  0  0  0  0  0  0  0  0  0  0
   -2.0651    1.1870    0.0024 H   0  0  0  0  0  0  0  0  0  0  0  0
   -1.2084   -0.7000   -0.0000 C   0  0  0  0  0  0  0  0  0  0  0  0
   -2.0809   -1.1924    0.0026 H   0  0  0  0  0  0  0  0  0  0  0  0
    0.0019   -1.3982   -0.0028 C   0  0  0  0  0  0  0  0  0  0  0  0
    0.0000   -2.3936   -0.0069 H   0  0  0  0  0  0  0  0  0  0  0  0
    1.2084   -0.6950    0.0000 C   0  0  0  0  0  0  0  0  0  0  0  0
    2.0875   -1.1930    0.0015 H   0  0  0  0  0  0  0  0  0  0  0  0
    1.1988    0.6951    0.0026 C   0  0  0  0  0  0  0  0  0  0  0  0
    2.0658    1.1947    0.0067 H   0  0  0  0  0  0  0  0  0  0  0  0
  1  5  1  0
  5  8  1  0
  1  2  1  0
  1  3  1  0
  1  4  1  0
  5  6  1  0
  5  7  1  0
  8  9  1  0
  8 10  1  0
  8 11  1  0
 12 16  1  0
 16 17  2  0
 17 19  1  0
 19 21  2  0
 21 23  1  0
 23 25  2  0
 25 16  1  0
 12 13  1  0
 12 14  1  0
 12 15  1  0
 17 18  1  0
 19 20  1  0
 21 22  1  0
 23 24  1  0
 25 26  1  0
M  CHG  1   8   1
M  END
>  <PDB_ID>  (484) 
pdb1g3k

>  <RESIDUE_NAME>  (484) 
LYS   PHE

>  <FRAG_NAME>  (484) 
ETAM   MBZ

>  <FRAG_ATOM_NUM>  (484) 
fragi: 11  fragj: 15

>  <atom.prop.CHAIN_ID>  (484) 
A A A A A A A A A A A Z Z Z Z Z Z Z Z Z Z Z Z Z Z Z

>  <atom.prop.IS_HEAVY_ATOM>  (484) 
1 0 0 0 1 0 0 1 0 0 0 1 0 0 0 1 1 0 1 0 1 0 1 0 1 0

>  <DIFUSE_FUNC_ATOM>  (484) 
n/a

>  <FINAL_SINGLE_POINT_ENERGY>  (484) 
0

>  <NONCOV_INTER_ENERGY_QM>  (484) 
0

>  <FF_Energy>  (484) 
7.25

>  <QM_Energy>  (484) 
-2.33

>  <source>  (484) 
ETAM_MBZ

>  <Index>  (484) 
4579

$$$$
ETAM-pdb2h00-A-LYS-106:MBZ-pdb2h00-A-PHE-102
     RDKit          3D

 26 25  0  0  0  0  0  0  0  0999 V2000
    0.1391   -1.5747    3.1574 C   0  0  0  0  0  0  0  0  0  0  0  0
   -0.1882   -2.1680    2.4073 H   0  0  0  0  0  0  0  0  0  0  0  0
    0.5089   -0.7297    2.7436 H   0  0  0  0  0  0  0  0  0  0  0  0
   -0.7133   -1.3084    3.7823 H   0  0  0  0  0  0  0  0  0  0  0  0
    1.2842   -2.2957    3.8700 C   0  0  0  0  0  0  0  0  0  0  0  0
    1.6059   -1.7402    4.6285 H   0  0  0  0  0  0  0  0  0  0  0  0
    0.9694   -3.1802    4.1962 H   0  0  0  0  0  0  0  0  0  0  0  0
    2.4624   -2.5296    2.9131 N   0  0  0  0  0  4  0  0  0  0  0  0
    3.2454   -2.0296    3.2605 H   0  0  0  0  0  0  0  0  0  0  0  0
    2.6498   -3.5036    2.8873 H   0  0  0  0  0  0  0  0  0  0  0  0
    2.2008   -2.1969    2.0162 H   0  0  0  0  0  0  0  0  0  0  0  0
   -0.0059    2.9421   -0.0365 C   0  0  0  0  0  0  0  0  0  0  0  0
   -0.5511    3.2247   -0.8099 H   0  0  0  0  0  0  0  0  0  0  0  0
    0.9303    3.2437   -0.1226 H   0  0  0  0  0  0  0  0  0  0  0  0
   -0.4270    3.3995    0.8589 H   0  0  0  0  0  0  0  0  0  0  0  0
    0.0024    1.4189   -0.0126 C   0  0  0  0  0  0  0  0  0  0  0  0
   -1.1918    0.7086   -0.0026 C   0  0  0  0  0  0  0  0  0  0  0  0
   -2.0636    1.1852    0.0021 H   0  0  0  0  0  0  0  0  0  0  0  0
   -1.2016   -0.7138    0.0000 C   0  0  0  0  0  0  0  0  0  0  0  0
   -2.0865   -1.1852    0.0049 H   0  0  0  0  0  0  0  0  0  0  0  0
   -0.0120   -1.4102   -0.0019 C   0  0  0  0  0  0  0  0  0  0  0  0
   -0.0148   -2.4119   -0.0047 H   0  0  0  0  0  0  0  0  0  0  0  0
    1.2016   -0.7221   -0.0000 C   0  0  0  0  0  0  0  0  0  0  0  0
    2.0792   -1.2016   -0.0090 H   0  0  0  0  0  0  0  0  0  0  0  0
    1.2014    0.7184    0.0170 C   0  0  0  0  0  0  0  0  0  0  0  0
    2.0703    1.1889    0.0490 H   0  0  0  0  0  0  0  0  0  0  0  0
  1  5  1  0
  5  8  1  0
  1  2  1  0
  1  3  1  0
  1  4  1  0
  5  6  1  0
  5  7  1  0
  8  9  1  0
  8 10  1  0
  8 11  1  0
 12 16  1  0
 16 17  2  0
 17 19  1  0
 19 21  2  0
 21 23  1  0
 23 25  2  0
 25 16  1  0
 12 13  1  0
 12 14  1  0
 12 15  1  0
 17 18  1  0
 19 20  1  0
 21 22  1  0
 23 24  1  0
 25 26  1  0
M  CHG  1   8   1
M  END
>  <PDB_ID>  (485) 
pdb2h00

>  <RESIDUE_NAME>  (485) 
LYS   PHE

>  <FRAG_NAME>  (485) 
ETAM   MBZ

>  <FRAG_ATOM_NUM>  (485) 
fragi: 11  fragj: 15

>  <atom.prop.CHAIN_ID>  (485) 
A A A A A A A A A A A Z Z Z Z Z Z Z Z Z Z Z Z Z Z Z

>  <atom.prop.IS_HEAVY_ATOM>  (485) 
1 0 0 0 1 0 0 1 0 0 0 1 0 0 0 1 1 0 1 0 1 0 1 0 1 0

>  <DIFUSE_FUNC_ATOM>  (485) 
n/a

>  <FINAL_SINGLE_POINT_ENERGY>  (485) 
0

>  <NONCOV_INTER_ENERGY_QM>  (485) 
0

>  <FF_Energy>  (485) 
-1.21

>  <QM_Energy>  (485) 
-7.19

>  <source>  (485) 
ETAM_MBZ

>  <Index>  (485) 
4582

$$$$
ETAM-pdb1fzc-C-LYS-338:MBZ-pdb1fzc-C-PHE-304
     RDKit          3D

 26 25  0  0  0  0  0  0  0  0999 V2000
   -0.8637    0.9183    5.0900 C   0  0  0  0  0  0  0  0  0  0  0  0
   -0.1386    0.8748    5.7762 H   0  0  0  0  0  0  0  0  0  0  0  0
   -1.7544    0.8629    5.5393 H   0  0  0  0  0  0  0  0  0  0  0  0
   -0.7900    1.8575    4.5418 H   0  0  0  0  0  0  0  0  0  0  0  0
   -0.7207   -0.2962    4.1740 C   0  0  0  0  0  0  0  0  0  0  0  0
   -1.0408   -1.1147    4.6694 H   0  0  0  0  0  0  0  0  0  0  0  0
   -1.3157   -0.1667    3.3689 H   0  0  0  0  0  0  0  0  0  0  0  0
    0.6821   -0.5295    3.7070 N   0  0  0  0  0  4  0  0  0  0  0  0
    1.3178   -0.2062    4.4059 H   0  0  0  0  0  0  0  0  0  0  0  0
    0.8182   -1.5066    3.5531 H   0  0  0  0  0  0  0  0  0  0  0  0
    0.8309   -0.0295    2.8564 H   0  0  0  0  0  0  0  0  0  0  0  0
   -0.0094    2.9027   -0.0223 C   0  0  0  0  0  0  0  0  0  0  0  0
    0.8800    3.2037   -0.2773 H   0  0  0  0  0  0  0  0  0  0  0  0
   -0.3018    3.2220    0.8495 H   0  0  0  0  0  0  0  0  0  0  0  0
   -0.7119    3.2819   -0.7645 H   0  0  0  0  0  0  0  0  0  0  0  0
   -0.0144    1.3928   -0.0035 C   0  0  0  0  0  0  0  0  0  0  0  0
   -1.1947    0.6814   -0.0127 C   0  0  0  0  0  0  0  0  0  0  0  0
   -2.0691    1.1692   -0.0296 H   0  0  0  0  0  0  0  0  0  0  0  0
   -1.1971   -0.7001    0.0000 C   0  0  0  0  0  0  0  0  0  0  0  0
   -2.0636   -1.2064    0.0044 H   0  0  0  0  0  0  0  0  0  0  0  0
    0.0239   -1.4019    0.0086 C   0  0  0  0  0  0  0  0  0  0  0  0
    0.0240   -2.3874    0.0193 H   0  0  0  0  0  0  0  0  0  0  0  0
    1.1971   -0.6726    0.0000 C   0  0  0  0  0  0  0  0  0  0  0  0
    2.0978   -1.1654   -0.0106 H   0  0  0  0  0  0  0  0  0  0  0  0
    1.1852    0.7005    0.0076 C   0  0  0  0  0  0  0  0  0  0  0  0
    2.0480    1.2099    0.0206 H   0  0  0  0  0  0  0  0  0  0  0  0
  1  5  1  0
  5  8  1  0
  1  2  1  0
  1  3  1  0
  1  4  1  0
  5  6  1  0
  5  7  1  0
  8  9  1  0
  8 10  1  0
  8 11  1  0
 12 16  1  0
 16 17  2  0
 17 19  1  0
 19 21  2  0
 21 23  1  0
 23 25  2  0
 25 16  1  0
 12 13  1  0
 12 14  1  0
 12 15  1  0
 17 18  1  0
 19 20  1  0
 21 22  1  0
 23 24  1  0
 25 26  1  0
M  CHG  1   8   1
M  END
>  <PDB_ID>  (486) 
pdb1fzc

>  <RESIDUE_NAME>  (486) 
LYS   PHE

>  <FRAG_NAME>  (486) 
ETAM   MBZ

>  <FRAG_ATOM_NUM>  (486) 
fragi: 11  fragj: 15

>  <atom.prop.CHAIN_ID>  (486) 
A A A A A A A A A A A Z Z Z Z Z Z Z Z Z Z Z Z Z Z Z

>  <atom.prop.IS_HEAVY_ATOM>  (486) 
1 0 0 0 1 0 0 1 0 0 0 1 0 0 0 1 1 0 1 0 1 0 1 0 1 0

>  <DIFUSE_FUNC_ATOM>  (486) 
n/a

>  <FINAL_SINGLE_POINT_ENERGY>  (486) 
0

>  <NONCOV_INTER_ENERGY_QM>  (486) 
0

>  <FF_Energy>  (486) 
-6.99

>  <QM_Energy>  (486) 
-12.38

>  <source>  (486) 
ETAM_MBZ

>  <Index>  (486) 
4586

$$$$
ETAM-pdb2gvl-A-LYS-427:MBZ-pdb2gvl-A-PHE-414
     RDKit          3D

 26 25  0  0  0  0  0  0  0  0999 V2000
    1.4237    0.8551   -4.0262 C   0  0  0  0  0  0  0  0  0  0  0  0
    1.6210    0.9681   -4.9849 H   0  0  0  0  0  0  0  0  0  0  0  0
    2.0337    0.2113   -3.5975 H   0  0  0  0  0  0  0  0  0  0  0  0
    1.5205    1.8203   -3.5292 H   0  0  0  0  0  0  0  0  0  0  0  0
   -0.0196    0.3262   -3.8852 C   0  0  0  0  0  0  0  0  0  0  0  0
   -0.3884    0.6407   -2.9968 H   0  0  0  0  0  0  0  0  0  0  0  0
   -0.5847    0.7430   -4.6144 H   0  0  0  0  0  0  0  0  0  0  0  0
   -0.1550   -1.1723   -3.9634 N   0  0  0  0  0  4  0  0  0  0  0  0
   -0.9948   -1.3950   -4.4518 H   0  0  0  0  0  0  0  0  0  0  0  0
    0.6326   -1.5422   -4.4497 H   0  0  0  0  0  0  0  0  0  0  0  0
   -0.1897   -1.5417   -3.0388 H   0  0  0  0  0  0  0  0  0  0  0  0
    0.0017    2.9144    0.0113 C   0  0  0  0  0  0  0  0  0  0  0  0
   -0.8838    3.2226   -0.2962 H   0  0  0  0  0  0  0  0  0  0  0  0
    0.7230    3.2250   -0.5860 H   0  0  0  0  0  0  0  0  0  0  0  0
    0.1795    3.3449    0.9968 H   0  0  0  0  0  0  0  0  0  0  0  0
    0.0013    1.4063   -0.0013 C   0  0  0  0  0  0  0  0  0  0  0  0
   -1.1999    0.6976    0.0004 C   0  0  0  0  0  0  0  0  0  0  0  0
   -2.0647    1.1890    0.0004 H   0  0  0  0  0  0  0  0  0  0  0  0
   -1.2065   -0.6968   -0.0000 C   0  0  0  0  0  0  0  0  0  0  0  0
   -2.0827   -1.1896    0.0013 H   0  0  0  0  0  0  0  0  0  0  0  0
   -0.0013   -1.3992    0.0002 C   0  0  0  0  0  0  0  0  0  0  0  0
   -0.0076   -2.3955   -0.0003 H   0  0  0  0  0  0  0  0  0  0  0  0
    1.2065   -0.7021    0.0000 C   0  0  0  0  0  0  0  0  0  0  0  0
    2.0846   -1.1983    0.0009 H   0  0  0  0  0  0  0  0  0  0  0  0
    1.1998    0.6942    0.0007 C   0  0  0  0  0  0  0  0  0  0  0  0
    2.0684    1.1898    0.0022 H   0  0  0  0  0  0  0  0  0  0  0  0
  1  5  1  0
  5  8  1  0
  1  2  1  0
  1  3  1  0
  1  4  1  0
  5  6  1  0
  5  7  1  0
  8  9  1  0
  8 10  1  0
  8 11  1  0
 12 16  1  0
 16 17  2  0
 17 19  1  0
 19 21  2  0
 21 23  1  0
 23 25  2  0
 25 16  1  0
 12 13  1  0
 12 14  1  0
 12 15  1  0
 17 18  1  0
 19 20  1  0
 21 22  1  0
 23 24  1  0
 25 26  1  0
M  CHG  1   8   1
M  END
>  <PDB_ID>  (487) 
pdb2gvl

>  <RESIDUE_NAME>  (487) 
LYS   PHE

>  <FRAG_NAME>  (487) 
ETAM   MBZ

>  <FRAG_ATOM_NUM>  (487) 
fragi: 11  fragj: 15

>  <atom.prop.CHAIN_ID>  (487) 
A A A A A A A A A A A Z Z Z Z Z Z Z Z Z Z Z Z Z Z Z

>  <atom.prop.IS_HEAVY_ATOM>  (487) 
1 0 0 0 1 0 0 1 0 0 0 1 0 0 0 1 1 0 1 0 1 0 1 0 1 0

>  <DIFUSE_FUNC_ATOM>  (487) 
n/a

>  <FINAL_SINGLE_POINT_ENERGY>  (487) 
0

>  <NONCOV_INTER_ENERGY_QM>  (487) 
0

>  <FF_Energy>  (487) 
-6.49

>  <QM_Energy>  (487) 
-11.73

>  <source>  (487) 
ETAM_MBZ

>  <Index>  (487) 
4596

$$$$
ETAM-pdb2gzd-B-LYS-145:MBZ-pdb2gzd-B-PHE-142
     RDKit          3D

 26 25  0  0  0  0  0  0  0  0999 V2000
   -3.2128    0.5866    4.7154 C   0  0  0  0  0  0  0  0  0  0  0  0
   -2.3073    0.1871    4.7922 H   0  0  0  0  0  0  0  0  0  0  0  0
   -3.8694    0.0785    5.2588 H   0  0  0  0  0  0  0  0  0  0  0  0
   -3.1760    1.6143    5.0767 H   0  0  0  0  0  0  0  0  0  0  0  0
   -3.6497    0.5121    3.2361 C   0  0  0  0  0  0  0  0  0  0  0  0
   -4.6027    0.8166    3.1681 H   0  0  0  0  0  0  0  0  0  0  0  0
   -3.0697    1.1297    2.6999 H   0  0  0  0  0  0  0  0  0  0  0  0
   -3.5395   -0.8827    2.6647 N   0  0  0  0  0  4  0  0  0  0  0  0
   -2.5772   -1.0988    2.5322 H   0  0  0  0  0  0  0  0  0  0  0  0
   -3.9510   -1.5245    3.3060 H   0  0  0  0  0  0  0  0  0  0  0  0
   -4.0211   -0.9110    1.7936 H   0  0  0  0  0  0  0  0  0  0  0  0
    0.0042    2.9212    0.0271 C   0  0  0  0  0  0  0  0  0  0  0  0
   -0.7928    3.2387   -0.4561 H   0  0  0  0  0  0  0  0  0  0  0  0
    0.8387    3.2304   -0.3968 H   0  0  0  0  0  0  0  0  0  0  0  0
   -0.0306    3.3281    1.0378 H   0  0  0  0  0  0  0  0  0  0  0  0
   -0.0026    1.4147   -0.0037 C   0  0  0  0  0  0  0  0  0  0  0  0
   -1.1972    0.7133   -0.0056 C   0  0  0  0  0  0  0  0  0  0  0  0
   -2.0662    1.1864   -0.0120 H   0  0  0  0  0  0  0  0  0  0  0  0
   -1.1958   -0.7052   -0.0000 C   0  0  0  0  0  0  0  0  0  0  0  0
   -2.0747   -1.1889    0.0048 H   0  0  0  0  0  0  0  0  0  0  0  0
    0.0070   -1.4034    0.0008 C   0  0  0  0  0  0  0  0  0  0  0  0
   -0.0026   -2.4018    0.0019 H   0  0  0  0  0  0  0  0  0  0  0  0
    1.1958   -0.7096   -0.0000 C   0  0  0  0  0  0  0  0  0  0  0  0
    2.0843   -1.1993   -0.0052 H   0  0  0  0  0  0  0  0  0  0  0  0
    1.1929    0.6903    0.0085 C   0  0  0  0  0  0  0  0  0  0  0  0
    2.0646    1.1815    0.0228 H   0  0  0  0  0  0  0  0  0  0  0  0
  1  5  1  0
  5  8  1  0
  1  2  1  0
  1  3  1  0
  1  4  1  0
  5  6  1  0
  5  7  1  0
  8  9  1  0
  8 10  1  0
  8 11  1  0
 12 16  1  0
 16 17  2  0
 17 19  1  0
 19 21  2  0
 21 23  1  0
 23 25  2  0
 25 16  1  0
 12 13  1  0
 12 14  1  0
 12 15  1  0
 17 18  1  0
 19 20  1  0
 21 22  1  0
 23 24  1  0
 25 26  1  0
M  CHG  1   8   1
M  END
>  <PDB_ID>  (488) 
pdb2gzd

>  <RESIDUE_NAME>  (488) 
LYS   PHE

>  <FRAG_NAME>  (488) 
ETAM   MBZ

>  <FRAG_ATOM_NUM>  (488) 
fragi: 11  fragj: 15

>  <atom.prop.CHAIN_ID>  (488) 
A A A A A A A A A A A Z Z Z Z Z Z Z Z Z Z Z Z Z Z Z

>  <atom.prop.IS_HEAVY_ATOM>  (488) 
1 0 0 0 1 0 0 1 0 0 0 1 0 0 0 1 1 0 1 0 1 0 1 0 1 0

>  <DIFUSE_FUNC_ATOM>  (488) 
n/a

>  <FINAL_SINGLE_POINT_ENERGY>  (488) 
0

>  <NONCOV_INTER_ENERGY_QM>  (488) 
0

>  <FF_Energy>  (488) 
-1.94

>  <QM_Energy>  (488) 
-7.22

>  <source>  (488) 
ETAM_MBZ

>  <Index>  (488) 
4607

$$$$
ETAM-pdb1g6h-A-LYS-202:MBZ-pdb1g6h-A-PHE-140
     RDKit          3D

 26 25  0  0  0  0  0  0  0  0999 V2000
   -4.1232   -0.6389   -3.7932 C   0  0  0  0  0  0  0  0  0  0  0  0
   -3.3289   -1.1535   -3.5112 H   0  0  0  0  0  0  0  0  0  0  0  0
   -3.8930    0.0430   -4.4695 H   0  0  0  0  0  0  0  0  0  0  0  0
   -4.8787   -1.3157   -4.1923 H   0  0  0  0  0  0  0  0  0  0  0  0
   -4.6846    0.0807   -2.5647 C   0  0  0  0  0  0  0  0  0  0  0  0
   -5.4586    0.6530   -2.8539 H   0  0  0  0  0  0  0  0  0  0  0  0
   -5.0226   -0.6091   -1.9148 H   0  0  0  0  0  0  0  0  0  0  0  0
   -3.6693    0.9360   -1.8869 N   0  0  0  0  0  4  0  0  0  0  0  0
   -2.8068    0.8849   -2.3879 H   0  0  0  0  0  0  0  0  0  0  0  0
   -3.9915    1.8816   -1.8701 H   0  0  0  0  0  0  0  0  0  0  0  0
   -3.5346    0.6108   -0.9524 H   0  0  0  0  0  0  0  0  0  0  0  0
   -0.0060    2.8948    0.1076 C   0  0  0  0  0  0  0  0  0  0  0  0
   -0.7473    3.2377   -0.4469 H   0  0  0  0  0  0  0  0  0  0  0  0
    0.8679    3.2285   -0.2062 H   0  0  0  0  0  0  0  0  0  0  0  0
   -0.1552    3.2523    1.1264 H   0  0  0  0  0  0  0  0  0  0  0  0
    0.0011    1.3987    0.0022 C   0  0  0  0  0  0  0  0  0  0  0  0
   -1.1944    0.6917   -0.0021 C   0  0  0  0  0  0  0  0  0  0  0  0
   -2.0614    1.1868   -0.0083 H   0  0  0  0  0  0  0  0  0  0  0  0
   -1.2065   -0.6942   -0.0000 C   0  0  0  0  0  0  0  0  0  0  0  0
   -2.0833   -1.1866    0.0003 H   0  0  0  0  0  0  0  0  0  0  0  0
   -0.0068   -1.3923    0.0043 C   0  0  0  0  0  0  0  0  0  0  0  0
   -0.0087   -2.3907    0.0098 H   0  0  0  0  0  0  0  0  0  0  0  0
    1.2065   -0.6973    0.0000 C   0  0  0  0  0  0  0  0  0  0  0  0
    2.0806   -1.1980    0.0015 H   0  0  0  0  0  0  0  0  0  0  0  0
    1.2000    0.6934   -0.0044 C   0  0  0  0  0  0  0  0  0  0  0  0
    2.0666    1.1915   -0.0136 H   0  0  0  0  0  0  0  0  0  0  0  0
  1  5  1  0
  5  8  1  0
  1  2  1  0
  1  3  1  0
  1  4  1  0
  5  6  1  0
  5  7  1  0
  8  9  1  0
  8 10  1  0
  8 11  1  0
 12 16  1  0
 16 17  2  0
 17 19  1  0
 19 21  2  0
 21 23  1  0
 23 25  2  0
 25 16  1  0
 12 13  1  0
 12 14  1  0
 12 15  1  0
 17 18  1  0
 19 20  1  0
 21 22  1  0
 23 24  1  0
 25 26  1  0
M  CHG  1   8   1
M  END
>  <PDB_ID>  (489) 
pdb1g6h

>  <RESIDUE_NAME>  (489) 
LYS   PHE

>  <FRAG_NAME>  (489) 
ETAM   MBZ

>  <FRAG_ATOM_NUM>  (489) 
fragi: 11  fragj: 15

>  <atom.prop.CHAIN_ID>  (489) 
A A A A A A A A A A A Z Z Z Z Z Z Z Z Z Z Z Z Z Z Z

>  <atom.prop.IS_HEAVY_ATOM>  (489) 
1 0 0 0 1 0 0 1 0 0 0 1 0 0 0 1 1 0 1 0 1 0 1 0 1 0

>  <DIFUSE_FUNC_ATOM>  (489) 
n/a

>  <FINAL_SINGLE_POINT_ENERGY>  (489) 
0

>  <NONCOV_INTER_ENERGY_QM>  (489) 
0

>  <FF_Energy>  (489) 
0.76

>  <QM_Energy>  (489) 
-4.99

>  <source>  (489) 
ETAM_MBZ

>  <Index>  (489) 
4623

$$$$
ETAM-pdb1g24-D-LYS-3159:MBZ-pdb1g24-D-PHE-3155
     RDKit          3D

 26 25  0  0  0  0  0  0  0  0999 V2000
    0.7025   -1.9014    3.2043 C   0  0  0  0  0  0  0  0  0  0  0  0
    0.6955   -2.7745    3.6874 H   0  0  0  0  0  0  0  0  0  0  0  0
    0.5713   -2.0546    2.2272 H   0  0  0  0  0  0  0  0  0  0  0  0
   -0.1181   -1.2883    3.5768 H   0  0  0  0  0  0  0  0  0  0  0  0
    2.0573   -1.2427    3.4131 C   0  0  0  0  0  0  0  0  0  0  0  0
    2.0658   -0.3605    2.9412 H   0  0  0  0  0  0  0  0  0  0  0  0
    2.2000   -1.0956    4.3925 H   0  0  0  0  0  0  0  0  0  0  0  0
    3.1575   -2.0937    2.8809 N   0  0  0  0  0  4  0  0  0  0  0  0
    3.0560   -3.0240    3.2323 H   0  0  0  0  0  0  0  0  0  0  0  0
    3.1137   -2.1053    1.8826 H   0  0  0  0  0  0  0  0  0  0  0  0
    4.0363   -1.7187    3.1733 H   0  0  0  0  0  0  0  0  0  0  0  0
    0.0041    2.9033   -0.0104 C   0  0  0  0  0  0  0  0  0  0  0  0
   -0.4821    3.2066   -0.8168 H   0  0  0  0  0  0  0  0  0  0  0  0
    0.9454    3.2077   -0.0242 H   0  0  0  0  0  0  0  0  0  0  0  0
   -0.4782    3.3522    0.8579 H   0  0  0  0  0  0  0  0  0  0  0  0
    0.0003    1.4017   -0.0007 C   0  0  0  0  0  0  0  0  0  0  0  0
   -1.1966    0.6953    0.0003 C   0  0  0  0  0  0  0  0  0  0  0  0
   -2.0627    1.1855    0.0004 H   0  0  0  0  0  0  0  0  0  0  0  0
   -1.2030   -0.6971   -0.0000 C   0  0  0  0  0  0  0  0  0  0  0  0
   -2.0790   -1.1892    0.0011 H   0  0  0  0  0  0  0  0  0  0  0  0
   -0.0002   -1.3953    0.0002 C   0  0  0  0  0  0  0  0  0  0  0  0
   -0.0042   -2.3935    0.0002 H   0  0  0  0  0  0  0  0  0  0  0  0
    1.2030   -0.6977    0.0000 C   0  0  0  0  0  0  0  0  0  0  0  0
    2.0831   -1.1958    0.0011 H   0  0  0  0  0  0  0  0  0  0  0  0
    1.1966    0.6930    0.0002 C   0  0  0  0  0  0  0  0  0  0  0  0
    2.0651    1.1900    0.0003 H   0  0  0  0  0  0  0  0  0  0  0  0
  1  5  1  0
  5  8  1  0
  1  2  1  0
  1  3  1  0
  1  4  1  0
  5  6  1  0
  5  7  1  0
  8  9  1  0
  8 10  1  0
  8 11  1  0
 12 16  1  0
 16 17  2  0
 17 19  1  0
 19 21  2  0
 21 23  1  0
 23 25  2  0
 25 16  1  0
 12 13  1  0
 12 14  1  0
 12 15  1  0
 17 18  1  0
 19 20  1  0
 21 22  1  0
 23 24  1  0
 25 26  1  0
M  CHG  1   8   1
M  END
>  <PDB_ID>  (490) 
pdb1g24

>  <RESIDUE_NAME>  (490) 
LYS   PHE

>  <FRAG_NAME>  (490) 
ETAM   MBZ

>  <FRAG_ATOM_NUM>  (490) 
fragi: 11  fragj: 15

>  <atom.prop.CHAIN_ID>  (490) 
A A A A A A A A A A A Z Z Z Z Z Z Z Z Z Z Z Z Z Z Z

>  <atom.prop.IS_HEAVY_ATOM>  (490) 
1 0 0 0 1 0 0 1 0 0 0 1 0 0 0 1 1 0 1 0 1 0 1 0 1 0

>  <DIFUSE_FUNC_ATOM>  (490) 
n/a

>  <FINAL_SINGLE_POINT_ENERGY>  (490) 
0

>  <NONCOV_INTER_ENERGY_QM>  (490) 
0

>  <FF_Energy>  (490) 
-0.31

>  <QM_Energy>  (490) 
-6.25

>  <source>  (490) 
ETAM_MBZ

>  <Index>  (490) 
4652

$$$$
ETAM-pdb1g3j-C-LYS-288:MBZ-pdb1g3j-C-PHE-253
     RDKit          3D

 26 25  0  0  0  0  0  0  0  0999 V2000
    4.6789   -3.4351    1.0677 C   0  0  0  0  0  0  0  0  0  0  0  0
    5.4071   -2.8713    1.4639 H   0  0  0  0  0  0  0  0  0  0  0  0
    4.5655   -3.1939    0.1020 H   0  0  0  0  0  0  0  0  0  0  0  0
    4.9717   -4.4828    1.1354 H   0  0  0  0  0  0  0  0  0  0  0  0
    3.3897   -3.1403    1.7943 C   0  0  0  0  0  0  0  0  0  0  0  0
    2.6559   -3.6953    1.4017 H   0  0  0  0  0  0  0  0  0  0  0  0
    3.4967   -3.3727    2.7630 H   0  0  0  0  0  0  0  0  0  0  0  0
    3.0329   -1.7040    1.6750 N   0  0  0  0  0  4  0  0  0  0  0  0
    2.2085   -1.5195    2.2102 H   0  0  0  0  0  0  0  0  0  0  0  0
    3.7863   -1.1429    2.0203 H   0  0  0  0  0  0  0  0  0  0  0  0
    2.8634   -1.4813    0.7147 H   0  0  0  0  0  0  0  0  0  0  0  0
   -0.0091    2.9115   -0.0065 C   0  0  0  0  0  0  0  0  0  0  0  0
   -0.5866    3.2150    0.7376 H   0  0  0  0  0  0  0  0  0  0  0  0
   -0.3644    3.2125   -0.8801 H   0  0  0  0  0  0  0  0  0  0  0  0
    0.9728    3.3651    0.1280 H   0  0  0  0  0  0  0  0  0  0  0  0
   -0.0007    1.4044   -0.0028 C   0  0  0  0  0  0  0  0  0  0  0  0
   -1.1964    0.6947    0.0003 C   0  0  0  0  0  0  0  0  0  0  0  0
   -2.0645    1.1836    0.0014 H   0  0  0  0  0  0  0  0  0  0  0  0
   -1.2015   -0.6984    0.0000 C   0  0  0  0  0  0  0  0  0  0  0  0
   -2.0782   -1.1911   -0.0009 H   0  0  0  0  0  0  0  0  0  0  0  0
    0.0004   -1.3951    0.0026 C   0  0  0  0  0  0  0  0  0  0  0  0
   -0.0041   -2.3933    0.0061 H   0  0  0  0  0  0  0  0  0  0  0  0
    1.2015   -0.6982   -0.0000 C   0  0  0  0  0  0  0  0  0  0  0  0
    2.0829   -1.1954    0.0000 H   0  0  0  0  0  0  0  0  0  0  0  0
    1.1966    0.6927   -0.0001 C   0  0  0  0  0  0  0  0  0  0  0  0
    2.0650    1.1898    0.0007 H   0  0  0  0  0  0  0  0  0  0  0  0
  1  5  1  0
  5  8  1  0
  1  2  1  0
  1  3  1  0
  1  4  1  0
  5  6  1  0
  5  7  1  0
  8  9  1  0
  8 10  1  0
  8 11  1  0
 12 16  1  0
 16 17  2  0
 17 19  1  0
 19 21  2  0
 21 23  1  0
 23 25  2  0
 25 16  1  0
 12 13  1  0
 12 14  1  0
 12 15  1  0
 17 18  1  0
 19 20  1  0
 21 22  1  0
 23 24  1  0
 25 26  1  0
M  CHG  1   8   1
M  END
>  <PDB_ID>  (491) 
pdb1g3j

>  <RESIDUE_NAME>  (491) 
LYS   PHE

>  <FRAG_NAME>  (491) 
ETAM   MBZ

>  <FRAG_ATOM_NUM>  (491) 
fragi: 11  fragj: 15

>  <atom.prop.CHAIN_ID>  (491) 
A A A A A A A A A A A Z Z Z Z Z Z Z Z Z Z Z Z Z Z Z

>  <atom.prop.IS_HEAVY_ATOM>  (491) 
1 0 0 0 1 0 0 1 0 0 0 1 0 0 0 1 1 0 1 0 1 0 1 0 1 0

>  <DIFUSE_FUNC_ATOM>  (491) 
n/a

>  <FINAL_SINGLE_POINT_ENERGY>  (491) 
0

>  <NONCOV_INTER_ENERGY_QM>  (491) 
0

>  <FF_Energy>  (491) 
31.81

>  <QM_Energy>  (491) 
12.53

>  <source>  (491) 
ETAM_MBZ

>  <Index>  (491) 
4670

$$$$
ETAM-pdb1g3j-C-LYS-288:MBZ-pdb1g3j-C-PHE-293
     RDKit          3D

 26 25  0  0  0  0  0  0  0  0999 V2000
    2.5741    0.5003   -2.6462 C   0  0  0  0  0  0  0  0  0  0  0  0
    2.4201   -0.4491   -2.3631 H   0  0  0  0  0  0  0  0  0  0  0  0
    2.2133    1.1155   -1.9427 H   0  0  0  0  0  0  0  0  0  0  0  0
    3.6470    0.6672   -2.7412 H   0  0  0  0  0  0  0  0  0  0  0  0
    1.8277    0.7478   -3.9340 C   0  0  0  0  0  0  0  0  0  0  0  0
    1.9717    1.6950   -4.2215 H   0  0  0  0  0  0  0  0  0  0  0  0
    2.1783    0.1314   -4.6419 H   0  0  0  0  0  0  0  0  0  0  0  0
    0.3734    0.5073   -3.7561 N   0  0  0  0  0  4  0  0  0  0  0  0
   -0.0933    0.6208   -4.6332 H   0  0  0  0  0  0  0  0  0  0  0  0
    0.2276   -0.4239   -3.4196 H   0  0  0  0  0  0  0  0  0  0  0  0
    0.0056    1.1625   -3.0957 H   0  0  0  0  0  0  0  0  0  0  0  0
   -0.0002    2.9038    0.0146 C   0  0  0  0  0  0  0  0  0  0  0  0
   -0.5681    3.2187   -0.7313 H   0  0  0  0  0  0  0  0  0  0  0  0
    0.9330    3.2122   -0.0894 H   0  0  0  0  0  0  0  0  0  0  0  0
   -0.3913    3.3362    0.9355 H   0  0  0  0  0  0  0  0  0  0  0  0
   -0.0001    1.4019   -0.0011 C   0  0  0  0  0  0  0  0  0  0  0  0
   -1.1964    0.6937    0.0002 C   0  0  0  0  0  0  0  0  0  0  0  0
   -2.0631    1.1841    0.0005 H   0  0  0  0  0  0  0  0  0  0  0  0
   -1.2013   -0.6974    0.0000 C   0  0  0  0  0  0  0  0  0  0  0  0
   -2.0785   -1.1904   -0.0001 H   0  0  0  0  0  0  0  0  0  0  0  0
   -0.0000   -1.3939    0.0017 C   0  0  0  0  0  0  0  0  0  0  0  0
   -0.0039   -2.3930    0.0031 H   0  0  0  0  0  0  0  0  0  0  0  0
    1.2013   -0.6978    0.0000 C   0  0  0  0  0  0  0  0  0  0  0  0
    2.0822   -1.1953    0.0004 H   0  0  0  0  0  0  0  0  0  0  0  0
    1.1965    0.6934   -0.0007 C   0  0  0  0  0  0  0  0  0  0  0  0
    2.0644    1.1898   -0.0022 H   0  0  0  0  0  0  0  0  0  0  0  0
  1  5  1  0
  5  8  1  0
  1  2  1  0
  1  3  1  0
  1  4  1  0
  5  6  1  0
  5  7  1  0
  8  9  1  0
  8 10  1  0
  8 11  1  0
 12 16  1  0
 16 17  2  0
 17 19  1  0
 19 21  2  0
 21 23  1  0
 23 25  2  0
 25 16  1  0
 12 13  1  0
 12 14  1  0
 12 15  1  0
 17 18  1  0
 19 20  1  0
 21 22  1  0
 23 24  1  0
 25 26  1  0
M  CHG  1   8   1
M  END
>  <PDB_ID>  (492) 
pdb1g3j

>  <RESIDUE_NAME>  (492) 
LYS   PHE

>  <FRAG_NAME>  (492) 
ETAM   MBZ

>  <FRAG_ATOM_NUM>  (492) 
fragi: 11  fragj: 15

>  <atom.prop.CHAIN_ID>  (492) 
A A A A A A A A A A A Z Z Z Z Z Z Z Z Z Z Z Z Z Z Z

>  <atom.prop.IS_HEAVY_ATOM>  (492) 
1 0 0 0 1 0 0 1 0 0 0 1 0 0 0 1 1 0 1 0 1 0 1 0 1 0

>  <DIFUSE_FUNC_ATOM>  (492) 
n/a

>  <FINAL_SINGLE_POINT_ENERGY>  (492) 
0

>  <NONCOV_INTER_ENERGY_QM>  (492) 
0

>  <FF_Energy>  (492) 
0.63

>  <QM_Energy>  (492) 
-6.67

>  <source>  (492) 
ETAM_MBZ

>  <Index>  (492) 
4677

$$$$
ETAM-pdb1g59-A-LYS-423:MBZ-pdb1g59-A-PHE-419
     RDKit          3D

 26 25  0  0  0  0  0  0  0  0999 V2000
   -0.2315   -2.1353   -4.5838 C   0  0  0  0  0  0  0  0  0  0  0  0
   -0.0879   -3.1147   -4.6854 H   0  0  0  0  0  0  0  0  0  0  0  0
    0.0087   -1.6611   -5.4249 H   0  0  0  0  0  0  0  0  0  0  0  0
   -1.2825   -1.9522   -4.3603 H   0  0  0  0  0  0  0  0  0  0  0  0
    0.6799   -1.6279   -3.4667 C   0  0  0  0  0  0  0  0  0  0  0  0
    0.7749   -2.3538   -2.7717 H   0  0  0  0  0  0  0  0  0  0  0  0
    1.5961   -1.4482   -3.8524 H   0  0  0  0  0  0  0  0  0  0  0  0
    0.1828   -0.3812   -2.8001 N   0  0  0  0  0  4  0  0  0  0  0  0
    0.7916    0.3757   -3.0275 H   0  0  0  0  0  0  0  0  0  0  0  0
   -0.7390   -0.1828   -3.1248 H   0  0  0  0  0  0  0  0  0  0  0  0
    0.1708   -0.5211   -1.8122 H   0  0  0  0  0  0  0  0  0  0  0  0
   -0.0008    2.9207   -0.0012 C   0  0  0  0  0  0  0  0  0  0  0  0
    0.7263    3.2229    0.5941 H   0  0  0  0  0  0  0  0  0  0  0  0
   -0.8833    3.2237    0.3198 H   0  0  0  0  0  0  0  0  0  0  0  0
    0.1672    3.3551   -0.9867 H   0  0  0  0  0  0  0  0  0  0  0  0
   -0.0016    1.4106    0.0001 C   0  0  0  0  0  0  0  0  0  0  0  0
   -1.1982    0.6983    0.0002 C   0  0  0  0  0  0  0  0  0  0  0  0
   -2.0664    1.1844   -0.0011 H   0  0  0  0  0  0  0  0  0  0  0  0
   -1.2044   -0.7027   -0.0000 C   0  0  0  0  0  0  0  0  0  0  0  0
   -2.0803   -1.1920    0.0010 H   0  0  0  0  0  0  0  0  0  0  0  0
    0.0008   -1.4024   -0.0003 C   0  0  0  0  0  0  0  0  0  0  0  0
   -0.0026   -2.3984   -0.0011 H   0  0  0  0  0  0  0  0  0  0  0  0
    1.2044   -0.7014    0.0000 C   0  0  0  0  0  0  0  0  0  0  0  0
    2.0860   -1.1959    0.0020 H   0  0  0  0  0  0  0  0  0  0  0  0
    1.1990    0.6975    0.0000 C   0  0  0  0  0  0  0  0  0  0  0  0
    2.0671    1.1920   -0.0007 H   0  0  0  0  0  0  0  0  0  0  0  0
  1  5  1  0
  5  8  1  0
  1  2  1  0
  1  3  1  0
  1  4  1  0
  5  6  1  0
  5  7  1  0
  8  9  1  0
  8 10  1  0
  8 11  1  0
 12 16  1  0
 16 17  2  0
 17 19  1  0
 19 21  2  0
 21 23  1  0
 23 25  2  0
 25 16  1  0
 12 13  1  0
 12 14  1  0
 12 15  1  0
 17 18  1  0
 19 20  1  0
 21 22  1  0
 23 24  1  0
 25 26  1  0
M  CHG  1   8   1
M  END
>  <PDB_ID>  (493) 
pdb1g59

>  <RESIDUE_NAME>  (493) 
LYS   PHE

>  <FRAG_NAME>  (493) 
ETAM   MBZ

>  <FRAG_ATOM_NUM>  (493) 
fragi: 11  fragj: 15

>  <atom.prop.CHAIN_ID>  (493) 
A A A A A A A A A A A Z Z Z Z Z Z Z Z Z Z Z Z Z Z Z

>  <atom.prop.IS_HEAVY_ATOM>  (493) 
1 0 0 0 1 0 0 1 0 0 0 1 0 0 0 1 1 0 1 0 1 0 1 0 1 0

>  <DIFUSE_FUNC_ATOM>  (493) 
n/a

>  <FINAL_SINGLE_POINT_ENERGY>  (493) 
0

>  <NONCOV_INTER_ENERGY_QM>  (493) 
0

>  <FF_Energy>  (493) 
-8.25

>  <QM_Energy>  (493) 
-17.51

>  <source>  (493) 
ETAM_MBZ

>  <Index>  (493) 
4680

$$$$
ETAM-pdb2guz-P-LYS-109:MBZ-pdb2guz-P-PHE-80
     RDKit          3D

 26 25  0  0  0  0  0  0  0  0999 V2000
    0.0898    1.6718   -5.8071 C   0  0  0  0  0  0  0  0  0  0  0  0
   -0.8000    1.1936   -5.7113 H   0  0  0  0  0  0  0  0  0  0  0  0
    0.6604    1.1167   -6.4372 H   0  0  0  0  0  0  0  0  0  0  0  0
   -0.0998    2.6315   -6.2878 H   0  0  0  0  0  0  0  0  0  0  0  0
    0.7995    1.6369   -4.3765 C   0  0  0  0  0  0  0  0  0  0  0  0
    1.7730    1.7361   -4.4997 H   0  0  0  0  0  0  0  0  0  0  0  0
    0.4265    2.3574   -3.8165 H   0  0  0  0  0  0  0  0  0  0  0  0
    0.5540    0.2504   -3.5996 N   0  0  0  0  0  4  0  0  0  0  0  0
   -0.2736   -0.1247   -3.9693 H   0  0  0  0  0  0  0  0  0  0  0  0
    1.3391   -0.3082   -3.7864 H   0  0  0  0  0  0  0  0  0  0  0  0
    0.4723    0.4819   -2.6493 H   0  0  0  0  0  0  0  0  0  0  0  0
    0.0095    2.9092    0.0785 C   0  0  0  0  0  0  0  0  0  0  0  0
   -0.7831    3.2475   -0.3905 H   0  0  0  0  0  0  0  0  0  0  0  0
    0.8476    3.2387   -0.3120 H   0  0  0  0  0  0  0  0  0  0  0  0
   -0.0377    3.2719    1.1053 H   0  0  0  0  0  0  0  0  0  0  0  0
    0.0054    1.4041   -0.0080 C   0  0  0  0  0  0  0  0  0  0  0  0
   -1.2060    0.6931    0.0088 C   0  0  0  0  0  0  0  0  0  0  0  0
   -2.0636    1.1795    0.0257 H   0  0  0  0  0  0  0  0  0  0  0  0
   -1.1910   -0.6975    0.0000 C   0  0  0  0  0  0  0  0  0  0  0  0
   -2.0681   -1.2001    0.0063 H   0  0  0  0  0  0  0  0  0  0  0  0
    0.0099   -1.3852   -0.0152 C   0  0  0  0  0  0  0  0  0  0  0  0
   -0.0012   -2.3906   -0.0380 H   0  0  0  0  0  0  0  0  0  0  0  0
    1.1910   -0.7030   -0.0000 C   0  0  0  0  0  0  0  0  0  0  0  0
    2.0806   -1.1948    0.0022 H   0  0  0  0  0  0  0  0  0  0  0  0
    1.1907    0.6886    0.0144 C   0  0  0  0  0  0  0  0  0  0  0  0
    2.0652    1.1785    0.0408 H   0  0  0  0  0  0  0  0  0  0  0  0
  1  5  1  0
  5  8  1  0
  1  2  1  0
  1  3  1  0
  1  4  1  0
  5  6  1  0
  5  7  1  0
  8  9  1  0
  8 10  1  0
  8 11  1  0
 12 16  1  0
 16 17  2  0
 17 19  1  0
 19 21  2  0
 21 23  1  0
 23 25  2  0
 25 16  1  0
 12 13  1  0
 12 14  1  0
 12 15  1  0
 17 18  1  0
 19 20  1  0
 21 22  1  0
 23 24  1  0
 25 26  1  0
M  CHG  1   8   1
M  END
>  <PDB_ID>  (494) 
pdb2guz

>  <RESIDUE_NAME>  (494) 
LYS   PHE

>  <FRAG_NAME>  (494) 
ETAM   MBZ

>  <FRAG_ATOM_NUM>  (494) 
fragi: 11  fragj: 15

>  <atom.prop.CHAIN_ID>  (494) 
A A A A A A A A A A A Z Z Z Z Z Z Z Z Z Z Z Z Z Z Z

>  <atom.prop.IS_HEAVY_ATOM>  (494) 
1 0 0 0 1 0 0 1 0 0 0 1 0 0 0 1 1 0 1 0 1 0 1 0 1 0

>  <DIFUSE_FUNC_ATOM>  (494) 
n/a

>  <FINAL_SINGLE_POINT_ENERGY>  (494) 
0

>  <NONCOV_INTER_ENERGY_QM>  (494) 
0

>  <FF_Energy>  (494) 
-7.69

>  <QM_Energy>  (494) 
-13.17

>  <source>  (494) 
ETAM_MBZ

>  <Index>  (494) 
4686

$$$$
ETAM-pdb2gtd-F-LYS-222:MBZ-pdb2gtd-F-PHE-233
     RDKit          3D

 26 25  0  0  0  0  0  0  0  0999 V2000
    1.6551   -5.4127   -2.1120 C   0  0  0  0  0  0  0  0  0  0  0  0
    1.7692   -6.3753   -1.8848 H   0  0  0  0  0  0  0  0  0  0  0  0
    1.6293   -5.2921   -3.0992 H   0  0  0  0  0  0  0  0  0  0  0  0
    0.7176   -5.0562   -1.6853 H   0  0  0  0  0  0  0  0  0  0  0  0
    2.8653   -4.6434   -1.5657 C   0  0  0  0  0  0  0  0  0  0  0  0
    2.8190   -4.6471   -0.5516 H   0  0  0  0  0  0  0  0  0  0  0  0
    3.7098   -5.1422   -1.8268 H   0  0  0  0  0  0  0  0  0  0  0  0
    2.9852   -3.2175   -2.0361 N   0  0  0  0  0  4  0  0  0  0  0  0
    2.8490   -3.1910   -3.0230 H   0  0  0  0  0  0  0  0  0  0  0  0
    2.2900   -2.6685   -1.5801 H   0  0  0  0  0  0  0  0  0  0  0  0
    3.8937   -2.8776   -1.8067 H   0  0  0  0  0  0  0  0  0  0  0  0
   -0.0011    2.8721    0.0245 C   0  0  0  0  0  0  0  0  0  0  0  0
   -0.6730    3.1927   -0.6292 H   0  0  0  0  0  0  0  0  0  0  0  0
    0.9062    3.1888   -0.2146 H   0  0  0  0  0  0  0  0  0  0  0  0
   -0.2548    3.2946    0.9968 H   0  0  0  0  0  0  0  0  0  0  0  0
   -0.0001    1.3911    0.0076 C   0  0  0  0  0  0  0  0  0  0  0  0
   -1.1874    0.6857   -0.0061 C   0  0  0  0  0  0  0  0  0  0  0  0
   -2.0572    1.1744   -0.0221 H   0  0  0  0  0  0  0  0  0  0  0  0
   -1.1885   -0.6973    0.0000 C   0  0  0  0  0  0  0  0  0  0  0  0
   -2.0719   -1.1892    0.0090 H   0  0  0  0  0  0  0  0  0  0  0  0
   -0.0065   -1.3771   -0.0043 C   0  0  0  0  0  0  0  0  0  0  0  0
   -0.0035   -2.3842   -0.0111 H   0  0  0  0  0  0  0  0  0  0  0  0
    1.1885   -0.6903   -0.0000 C   0  0  0  0  0  0  0  0  0  0  0  0
    2.0706   -1.1965    0.0033 H   0  0  0  0  0  0  0  0  0  0  0  0
    1.1940    0.6879    0.0028 C   0  0  0  0  0  0  0  0  0  0  0  0
    2.0607    1.1849    0.0010 H   0  0  0  0  0  0  0  0  0  0  0  0
  1  5  1  0
  5  8  1  0
  1  2  1  0
  1  3  1  0
  1  4  1  0
  5  6  1  0
  5  7  1  0
  8  9  1  0
  8 10  1  0
  8 11  1  0
 12 16  1  0
 16 17  2  0
 17 19  1  0
 19 21  2  0
 21 23  1  0
 23 25  2  0
 25 16  1  0
 12 13  1  0
 12 14  1  0
 12 15  1  0
 17 18  1  0
 19 20  1  0
 21 22  1  0
 23 24  1  0
 25 26  1  0
M  CHG  1   8   1
M  END
>  <PDB_ID>  (495) 
pdb2gtd

>  <RESIDUE_NAME>  (495) 
LYS   PHE

>  <FRAG_NAME>  (495) 
ETAM   MBZ

>  <FRAG_ATOM_NUM>  (495) 
fragi: 11  fragj: 15

>  <atom.prop.CHAIN_ID>  (495) 
A A A A A A A A A A A Z Z Z Z Z Z Z Z Z Z Z Z Z Z Z

>  <atom.prop.IS_HEAVY_ATOM>  (495) 
1 0 0 0 1 0 0 1 0 0 0 1 0 0 0 1 1 0 1 0 1 0 1 0 1 0

>  <DIFUSE_FUNC_ATOM>  (495) 
n/a

>  <FINAL_SINGLE_POINT_ENERGY>  (495) 
0

>  <NONCOV_INTER_ENERGY_QM>  (495) 
0

>  <FF_Energy>  (495) 
-0.22

>  <QM_Energy>  (495) 
-5.55

>  <source>  (495) 
ETAM_MBZ

>  <Index>  (495) 
4689

$$$$
ETAM-pdb2h6d-A-LYS-62:MBZ-pdb2h6d-A-PHE-89
     RDKit          3D

 26 25  0  0  0  0  0  0  0  0999 V2000
    0.6108   -4.9880    3.4377 C   0  0  0  0  0  0  0  0  0  0  0  0
    1.3987   -5.5624    3.6194 H   0  0  0  0  0  0  0  0  0  0  0  0
   -0.2206   -5.4146    3.7691 H   0  0  0  0  0  0  0  0  0  0  0  0
    0.7457   -4.0298    3.9396 H   0  0  0  0  0  0  0  0  0  0  0  0
    0.4899   -4.7881    1.9407 C   0  0  0  0  0  0  0  0  0  0  0  0
    1.3566   -4.4202    1.5924 H   0  0  0  0  0  0  0  0  0  0  0  0
    0.3196   -5.6774    1.5083 H   0  0  0  0  0  0  0  0  0  0  0  0
   -0.6053   -3.8635    1.6125 N   0  0  0  0  0  4  0  0  0  0  0  0
   -0.2451   -3.0722    1.1132 H   0  0  0  0  0  0  0  0  0  0  0  0
   -1.2851   -4.3291    1.0412 H   0  0  0  0  0  0  0  0  0  0  0  0
   -1.0473   -3.5464    2.4543 H   0  0  0  0  0  0  0  0  0  0  0  0
    0.0179    2.9007    0.0260 C   0  0  0  0  0  0  0  0  0  0  0  0
    0.9355    3.1959    0.2559 H   0  0  0  0  0  0  0  0  0  0  0  0
   -0.6345    3.2033    0.7075 H   0  0  0  0  0  0  0  0  0  0  0  0
   -0.2539    3.3594   -0.9247 H   0  0  0  0  0  0  0  0  0  0  0  0
    0.0045    1.4050    0.0022 C   0  0  0  0  0  0  0  0  0  0  0  0
   -1.2047    0.7091    0.0028 C   0  0  0  0  0  0  0  0  0  0  0  0
   -2.0649    1.1944    0.0040 H   0  0  0  0  0  0  0  0  0  0  0  0
   -1.2124   -0.7026   -0.0000 C   0  0  0  0  0  0  0  0  0  0  0  0
   -2.0863   -1.1875    0.0025 H   0  0  0  0  0  0  0  0  0  0  0  0
   -0.0033   -1.4017   -0.0041 C   0  0  0  0  0  0  0  0  0  0  0  0
   -0.0067   -2.3986   -0.0104 H   0  0  0  0  0  0  0  0  0  0  0  0
    1.2124   -0.7045    0.0000 C   0  0  0  0  0  0  0  0  0  0  0  0
    2.0860   -1.2017    0.0051 H   0  0  0  0  0  0  0  0  0  0  0  0
    1.2035    0.6947   -0.0009 C   0  0  0  0  0  0  0  0  0  0  0  0
    2.0711    1.1898   -0.0047 H   0  0  0  0  0  0  0  0  0  0  0  0
  1  5  1  0
  5  8  1  0
  1  2  1  0
  1  3  1  0
  1  4  1  0
  5  6  1  0
  5  7  1  0
  8  9  1  0
  8 10  1  0
  8 11  1  0
 12 16  1  0
 16 17  2  0
 17 19  1  0
 19 21  2  0
 21 23  1  0
 23 25  2  0
 25 16  1  0
 12 13  1  0
 12 14  1  0
 12 15  1  0
 17 18  1  0
 19 20  1  0
 21 22  1  0
 23 24  1  0
 25 26  1  0
M  CHG  1   8   1
M  END
>  <PDB_ID>  (496) 
pdb2h6d

>  <RESIDUE_NAME>  (496) 
LYS   PHE

>  <FRAG_NAME>  (496) 
ETAM   MBZ

>  <FRAG_ATOM_NUM>  (496) 
fragi: 11  fragj: 15

>  <atom.prop.CHAIN_ID>  (496) 
A A A A A A A A A A A Z Z Z Z Z Z Z Z Z Z Z Z Z Z Z

>  <atom.prop.IS_HEAVY_ATOM>  (496) 
1 0 0 0 1 0 0 1 0 0 0 1 0 0 0 1 1 0 1 0 1 0 1 0 1 0

>  <DIFUSE_FUNC_ATOM>  (496) 
n/a

>  <FINAL_SINGLE_POINT_ENERGY>  (496) 
0

>  <NONCOV_INTER_ENERGY_QM>  (496) 
0

>  <FF_Energy>  (496) 
6.03

>  <QM_Energy>  (496) 
-2.08

>  <source>  (496) 
ETAM_MBZ

>  <Index>  (496) 
4697

$$$$
ETAM-pdb2h0q-B-LYS-547:MBZ-pdb2h0q-B-PHE-543
     RDKit          3D

 26 25  0  0  0  0  0  0  0  0999 V2000
   -0.5772   -1.3620    3.4302 C   0  0  0  0  0  0  0  0  0  0  0  0
   -0.4600   -2.0812    4.1088 H   0  0  0  0  0  0  0  0  0  0  0  0
   -0.4859   -1.7374    2.5124 H   0  0  0  0  0  0  0  0  0  0  0  0
   -1.5679   -0.9214    3.5414 H   0  0  0  0  0  0  0  0  0  0  0  0
    0.5464   -0.3269    3.6353 C   0  0  0  0  0  0  0  0  0  0  0  0
    0.3894    0.4440    3.0142 H   0  0  0  0  0  0  0  0  0  0  0  0
    0.5104    0.0019    4.5816 H   0  0  0  0  0  0  0  0  0  0  0  0
    1.9143   -0.9009    3.3677 N   0  0  0  0  0  4  0  0  0  0  0  0
    2.4025   -0.9854    4.2319 H   0  0  0  0  0  0  0  0  0  0  0  0
    1.8102   -1.7974    2.9443 H   0  0  0  0  0  0  0  0  0  0  0  0
    2.4064   -0.2879    2.7546 H   0  0  0  0  0  0  0  0  0  0  0  0
    0.0261    2.9067   -0.0151 C   0  0  0  0  0  0  0  0  0  0  0  0
   -0.1207    3.2057   -0.9487 H   0  0  0  0  0  0  0  0  0  0  0  0
    0.9108    3.2066    0.3177 H   0  0  0  0  0  0  0  0  0  0  0  0
   -0.7351    3.3809    0.6043 H   0  0  0  0  0  0  0  0  0  0  0  0
    0.0005    1.4084    0.0072 C   0  0  0  0  0  0  0  0  0  0  0  0
   -1.2019    0.7056   -0.0047 C   0  0  0  0  0  0  0  0  0  0  0  0
   -2.0654    1.1929   -0.0175 H   0  0  0  0  0  0  0  0  0  0  0  0
   -1.2074   -0.6958    0.0000 C   0  0  0  0  0  0  0  0  0  0  0  0
   -2.0841   -1.1852    0.0069 H   0  0  0  0  0  0  0  0  0  0  0  0
   -0.0019   -1.3999   -0.0033 C   0  0  0  0  0  0  0  0  0  0  0  0
   -0.0116   -2.3980   -0.0083 H   0  0  0  0  0  0  0  0  0  0  0  0
    1.2074   -0.7080   -0.0000 C   0  0  0  0  0  0  0  0  0  0  0  0
    2.0840   -1.2051    0.0037 H   0  0  0  0  0  0  0  0  0  0  0  0
    1.2032    0.6898    0.0007 C   0  0  0  0  0  0  0  0  0  0  0  0
    2.0699    1.1850   -0.0041 H   0  0  0  0  0  0  0  0  0  0  0  0
  1  5  1  0
  5  8  1  0
  1  2  1  0
  1  3  1  0
  1  4  1  0
  5  6  1  0
  5  7  1  0
  8  9  1  0
  8 10  1  0
  8 11  1  0
 12 16  1  0
 16 17  2  0
 17 19  1  0
 19 21  2  0
 21 23  1  0
 23 25  2  0
 25 16  1  0
 12 13  1  0
 12 14  1  0
 12 15  1  0
 17 18  1  0
 19 20  1  0
 21 22  1  0
 23 24  1  0
 25 26  1  0
M  CHG  1   8   1
M  END
>  <PDB_ID>  (497) 
pdb2h0q

>  <RESIDUE_NAME>  (497) 
LYS   PHE

>  <FRAG_NAME>  (497) 
ETAM   MBZ

>  <FRAG_ATOM_NUM>  (497) 
fragi: 11  fragj: 15

>  <atom.prop.CHAIN_ID>  (497) 
A A A A A A A A A A A Z Z Z Z Z Z Z Z Z Z Z Z Z Z Z

>  <atom.prop.IS_HEAVY_ATOM>  (497) 
1 0 0 0 1 0 0 1 0 0 0 1 0 0 0 1 1 0 1 0 1 0 1 0 1 0

>  <DIFUSE_FUNC_ATOM>  (497) 
n/a

>  <FINAL_SINGLE_POINT_ENERGY>  (497) 
0

>  <NONCOV_INTER_ENERGY_QM>  (497) 
0

>  <FF_Energy>  (497) 
-5.29

>  <QM_Energy>  (497) 
-11.67

>  <source>  (497) 
ETAM_MBZ

>  <Index>  (497) 
4707

$$$$
ETAM-pdb1g9i-E-LYS-60:MBZ-pdb1g9i-E-PHE-41
     RDKit          3D

 26 25  0  0  0  0  0  0  0  0999 V2000
   -0.5666   -0.8449   -3.2541 C   0  0  0  0  0  0  0  0  0  0  0  0
   -1.3665   -0.3296   -3.5557 H   0  0  0  0  0  0  0  0  0  0  0  0
   -0.3429   -0.6020   -2.3127 H   0  0  0  0  0  0  0  0  0  0  0  0
   -0.7915   -1.9103   -3.3031 H   0  0  0  0  0  0  0  0  0  0  0  0
    0.6041   -0.4782   -4.1380 C   0  0  0  0  0  0  0  0  0  0  0  0
    1.3857   -1.0535   -3.9008 H   0  0  0  0  0  0  0  0  0  0  0  0
    0.3536   -0.6324   -5.0931 H   0  0  0  0  0  0  0  0  0  0  0  0
    0.9684    0.9453   -3.9502 N   0  0  0  0  0  4  0  0  0  0  0  0
    0.8506    1.1970   -2.9888 H   0  0  0  0  0  0  0  0  0  0  0  0
    1.9234    1.0850   -4.2148 H   0  0  0  0  0  0  0  0  0  0  0  0
    0.3791    1.5205   -4.5194 H   0  0  0  0  0  0  0  0  0  0  0  0
    0.0083    2.9109   -0.0606 C   0  0  0  0  0  0  0  0  0  0  0  0
   -0.8320    3.2048   -0.4931 H   0  0  0  0  0  0  0  0  0  0  0  0
    0.7976    3.1963   -0.5851 H   0  0  0  0  0  0  0  0  0  0  0  0
    0.0658    3.4053    0.9092 H   0  0  0  0  0  0  0  0  0  0  0  0
    0.0036    1.4054   -0.0004 C   0  0  0  0  0  0  0  0  0  0  0  0
   -1.1937    0.7010   -0.0017 C   0  0  0  0  0  0  0  0  0  0  0  0
   -2.0601    1.1891   -0.0050 H   0  0  0  0  0  0  0  0  0  0  0  0
   -1.1989   -0.6945   -0.0000 C   0  0  0  0  0  0  0  0  0  0  0  0
   -2.0816   -1.1828    0.0017 H   0  0  0  0  0  0  0  0  0  0  0  0
   -0.0061   -1.3960    0.0008 C   0  0  0  0  0  0  0  0  0  0  0  0
   -0.0123   -2.3944    0.0017 H   0  0  0  0  0  0  0  0  0  0  0  0
    1.1989   -0.7047    0.0000 C   0  0  0  0  0  0  0  0  0  0  0  0
    2.0772   -1.2033   -0.0006 H   0  0  0  0  0  0  0  0  0  0  0  0
    1.1962    0.6887    0.0013 C   0  0  0  0  0  0  0  0  0  0  0  0
    2.0679    1.1814    0.0028 H   0  0  0  0  0  0  0  0  0  0  0  0
  1  5  1  0
  5  8  1  0
  1  2  1  0
  1  3  1  0
  1  4  1  0
  5  6  1  0
  5  7  1  0
  8  9  1  0
  8 10  1  0
  8 11  1  0
 12 16  1  0
 16 17  2  0
 17 19  1  0
 19 21  2  0
 21 23  1  0
 23 25  2  0
 25 16  1  0
 12 13  1  0
 12 14  1  0
 12 15  1  0
 17 18  1  0
 19 20  1  0
 21 22  1  0
 23 24  1  0
 25 26  1  0
M  CHG  1   8   1
M  END
>  <PDB_ID>  (498) 
pdb1g9i

>  <RESIDUE_NAME>  (498) 
LYS   PHE

>  <FRAG_NAME>  (498) 
ETAM   MBZ

>  <FRAG_ATOM_NUM>  (498) 
fragi: 11  fragj: 15

>  <atom.prop.CHAIN_ID>  (498) 
A A A A A A A A A A A Z Z Z Z Z Z Z Z Z Z Z Z Z Z Z

>  <atom.prop.IS_HEAVY_ATOM>  (498) 
1 0 0 0 1 0 0 1 0 0 0 1 0 0 0 1 1 0 1 0 1 0 1 0 1 0

>  <DIFUSE_FUNC_ATOM>  (498) 
n/a

>  <FINAL_SINGLE_POINT_ENERGY>  (498) 
0

>  <NONCOV_INTER_ENERGY_QM>  (498) 
0

>  <FF_Energy>  (498) 
-3.94

>  <QM_Energy>  (498) 
-9.95

>  <source>  (498) 
ETAM_MBZ

>  <Index>  (498) 
4717

$$$$
ETAM-pdb2gse-C-LYS-269:MBZ-pdb2gse-D-PHE-316
     RDKit          3D

 26 25  0  0  0  0  0  0  0  0999 V2000
   -2.8914   -5.1865    3.1353 C   0  0  0  0  0  0  0  0  0  0  0  0
   -2.3963   -5.5684    3.9004 H   0  0  0  0  0  0  0  0  0  0  0  0
   -3.4356   -5.8727    2.6780 H   0  0  0  0  0  0  0  0  0  0  0  0
   -3.5546   -4.4044    3.5050 H   0  0  0  0  0  0  0  0  0  0  0  0
   -1.8424   -4.6354    2.1061 C   0  0  0  0  0  0  0  0  0  0  0  0
   -1.3334   -3.8852    2.5489 H   0  0  0  0  0  0  0  0  0  0  0  0
   -1.1884   -5.3752    1.8980 H   0  0  0  0  0  0  0  0  0  0  0  0
   -2.4266   -4.1176    0.7887 N   0  0  0  0  0  4  0  0  0  0  0  0
   -1.6843   -4.0213    0.1366 H   0  0  0  0  0  0  0  0  0  0  0  0
   -3.0938   -4.7773    0.4652 H   0  0  0  0  0  0  0  0  0  0  0  0
   -2.8568   -3.2399    0.9641 H   0  0  0  0  0  0  0  0  0  0  0  0
    0.0045    2.8985   -0.0172 C   0  0  0  0  0  0  0  0  0  0  0  0
   -0.6377    3.2014   -0.7066 H   0  0  0  0  0  0  0  0  0  0  0  0
    0.9233    3.2022   -0.2261 H   0  0  0  0  0  0  0  0  0  0  0  0
   -0.2879    3.3477    0.9318 H   0  0  0  0  0  0  0  0  0  0  0  0
   -0.0008    1.4074    0.0023 C   0  0  0  0  0  0  0  0  0  0  0  0
   -1.1959    0.7166   -0.0120 C   0  0  0  0  0  0  0  0  0  0  0  0
   -2.0626    1.1912   -0.0323 H   0  0  0  0  0  0  0  0  0  0  0  0
   -1.2031   -0.7058   -0.0000 C   0  0  0  0  0  0  0  0  0  0  0  0
   -2.0816   -1.1828   -0.0051 H   0  0  0  0  0  0  0  0  0  0  0  0
   -0.0017   -1.4012    0.0195 C   0  0  0  0  0  0  0  0  0  0  0  0
   -0.0041   -2.3992    0.0472 H   0  0  0  0  0  0  0  0  0  0  0  0
    1.2031   -0.7046   -0.0000 C   0  0  0  0  0  0  0  0  0  0  0  0
    2.0823   -1.2034   -0.0056 H   0  0  0  0  0  0  0  0  0  0  0  0
    1.1983    0.6876   -0.0098 C   0  0  0  0  0  0  0  0  0  0  0  0
    2.0668    1.1845   -0.0269 H   0  0  0  0  0  0  0  0  0  0  0  0
  1  5  1  0
  5  8  1  0
  1  2  1  0
  1  3  1  0
  1  4  1  0
  5  6  1  0
  5  7  1  0
  8  9  1  0
  8 10  1  0
  8 11  1  0
 12 16  1  0
 16 17  2  0
 17 19  1  0
 19 21  2  0
 21 23  1  0
 23 25  2  0
 25 16  1  0
 12 13  1  0
 12 14  1  0
 12 15  1  0
 17 18  1  0
 19 20  1  0
 21 22  1  0
 23 24  1  0
 25 26  1  0
M  CHG  1   8   1
M  END
>  <PDB_ID>  (499) 
pdb2gse

>  <RESIDUE_NAME>  (499) 
LYS   PHE

>  <FRAG_NAME>  (499) 
ETAM   MBZ

>  <FRAG_ATOM_NUM>  (499) 
fragi: 11  fragj: 15

>  <atom.prop.CHAIN_ID>  (499) 
A A A A A A A A A A A Z Z Z Z Z Z Z Z Z Z Z Z Z Z Z

>  <atom.prop.IS_HEAVY_ATOM>  (499) 
1 0 0 0 1 0 0 1 0 0 0 1 0 0 0 1 1 0 1 0 1 0 1 0 1 0

>  <DIFUSE_FUNC_ATOM>  (499) 
n/a

>  <FINAL_SINGLE_POINT_ENERGY>  (499) 
0

>  <NONCOV_INTER_ENERGY_QM>  (499) 
0

>  <FF_Energy>  (499) 
0.88

>  <QM_Energy>  (499) 
-4.18

>  <source>  (499) 
ETAM_MBZ

>  <Index>  (499) 
4718

$$$$
ETAM-pdb2h6l-B-LYS-82:MBZ-pdb2h6l-B-PHE-87
     RDKit          3D

 26 25  0  0  0  0  0  0  0  0999 V2000
   -0.5829    0.3464   -3.5758 C   0  0  0  0  0  0  0  0  0  0  0  0
    0.3580    0.1338   -3.3415 H   0  0  0  0  0  0  0  0  0  0  0  0
   -1.1343    0.4510   -2.7575 H   0  0  0  0  0  0  0  0  0  0  0  0
   -0.6046    1.2788   -4.1399 H   0  0  0  0  0  0  0  0  0  0  0  0
   -1.1503   -0.8090   -4.3981 C   0  0  0  0  0  0  0  0  0  0  0  0
   -2.0721   -0.5589   -4.7121 H   0  0  0  0  0  0  0  0  0  0  0  0
   -0.5649   -0.9491   -5.2042 H   0  0  0  0  0  0  0  0  0  0  0  0
   -1.2261   -2.0800   -3.6229 N   0  0  0  0  0  4  0  0  0  0  0  0
   -2.1818   -2.2821   -3.4125 H   0  0  0  0  0  0  0  0  0  0  0  0
   -0.8377   -2.8231   -4.1675 H   0  0  0  0  0  0  0  0  0  0  0  0
   -0.7085   -1.9806   -2.7736 H   0  0  0  0  0  0  0  0  0  0  0  0
    0.0020    2.8963    0.0079 C   0  0  0  0  0  0  0  0  0  0  0  0
   -0.7317    3.2070   -0.5795 H   0  0  0  0  0  0  0  0  0  0  0  0
    0.8814    3.2031   -0.3261 H   0  0  0  0  0  0  0  0  0  0  0  0
   -0.1517    3.3297    0.9962 H   0  0  0  0  0  0  0  0  0  0  0  0
   -0.0002    1.3993   -0.0002 C   0  0  0  0  0  0  0  0  0  0  0  0
   -1.1975    0.6955    0.0012 C   0  0  0  0  0  0  0  0  0  0  0  0
   -2.0634    1.1879    0.0019 H   0  0  0  0  0  0  0  0  0  0  0  0
   -1.2060   -0.6951    0.0000 C   0  0  0  0  0  0  0  0  0  0  0  0
   -2.0813   -1.1880    0.0018 H   0  0  0  0  0  0  0  0  0  0  0  0
   -0.0020   -1.3952   -0.0010 C   0  0  0  0  0  0  0  0  0  0  0  0
   -0.0055   -2.3915   -0.0035 H   0  0  0  0  0  0  0  0  0  0  0  0
    1.2060   -0.6964    0.0000 C   0  0  0  0  0  0  0  0  0  0  0  0
    2.0834   -1.1973    0.0029 H   0  0  0  0  0  0  0  0  0  0  0  0
    1.1997    0.6918   -0.0000 C   0  0  0  0  0  0  0  0  0  0  0  0
    2.0656    1.1910   -0.0009 H   0  0  0  0  0  0  0  0  0  0  0  0
  1  5  1  0
  5  8  1  0
  1  2  1  0
  1  3  1  0
  1  4  1  0
  5  6  1  0
  5  7  1  0
  8  9  1  0
  8 10  1  0
  8 11  1  0
 12 16  1  0
 16 17  2  0
 17 19  1  0
 19 21  2  0
 21 23  1  0
 23 25  2  0
 25 16  1  0
 12 13  1  0
 12 14  1  0
 12 15  1  0
 17 18  1  0
 19 20  1  0
 21 22  1  0
 23 24  1  0
 25 26  1  0
M  CHG  1   8   1
M  END
>  <PDB_ID>  (500) 
pdb2h6l

>  <RESIDUE_NAME>  (500) 
LYS   PHE

>  <FRAG_NAME>  (500) 
ETAM   MBZ

>  <FRAG_ATOM_NUM>  (500) 
fragi: 11  fragj: 15

>  <atom.prop.CHAIN_ID>  (500) 
A A A A A A A A A A A Z Z Z Z Z Z Z Z Z Z Z Z Z Z Z

>  <atom.prop.IS_HEAVY_ATOM>  (500) 
1 0 0 0 1 0 0 1 0 0 0 1 0 0 0 1 1 0 1 0 1 0 1 0 1 0

>  <DIFUSE_FUNC_ATOM>  (500) 
n/a

>  <FINAL_SINGLE_POINT_ENERGY>  (500) 
0

>  <NONCOV_INTER_ENERGY_QM>  (500) 
0

>  <FF_Energy>  (500) 
-4.8

>  <QM_Energy>  (500) 
-10.62

>  <source>  (500) 
ETAM_MBZ

>  <Index>  (500) 
4732

$$$$
ETAM-pdb1gc5-A-LYS-61:MBZ-pdb1gc5-A-PHE-65
     RDKit          3D

 26 25  0  0  0  0  0  0  0  0999 V2000
   -3.5118   -1.5898   -4.0439 C   0  0  0  0  0  0  0  0  0  0  0  0
   -4.1428   -2.2796   -3.7055 H   0  0  0  0  0  0  0  0  0  0  0  0
   -3.4105   -1.6626   -5.0300 H   0  0  0  0  0  0  0  0  0  0  0  0
   -3.9043   -0.6025   -3.8000 H   0  0  0  0  0  0  0  0  0  0  0  0
   -2.1523   -1.8177   -3.3992 C   0  0  0  0  0  0  0  0  0  0  0  0
   -2.2705   -2.3877   -2.5861 H   0  0  0  0  0  0  0  0  0  0  0  0
   -1.5582   -2.2889   -4.0523 H   0  0  0  0  0  0  0  0  0  0  0  0
   -1.5235   -0.5269   -3.0064 N   0  0  0  0  0  4  0  0  0  0  0  0
   -1.9628    0.2211   -3.5036 H   0  0  0  0  0  0  0  0  0  0  0  0
   -1.6384   -0.3874   -2.0234 H   0  0  0  0  0  0  0  0  0  0  0  0
   -0.5496   -0.5511   -3.2293 H   0  0  0  0  0  0  0  0  0  0  0  0
   -0.0069    2.8982    0.0601 C   0  0  0  0  0  0  0  0  0  0  0  0
   -0.5903    3.2338   -0.6604 H   0  0  0  0  0  0  0  0  0  0  0  0
    0.9210    3.2148   -0.0432 H   0  0  0  0  0  0  0  0  0  0  0  0
   -0.3881    3.2855    1.0050 H   0  0  0  0  0  0  0  0  0  0  0  0
   -0.0010    1.4032    0.0006 C   0  0  0  0  0  0  0  0  0  0  0  0
   -1.1960    0.6931   -0.0010 C   0  0  0  0  0  0  0  0  0  0  0  0
   -2.0643    1.1821   -0.0035 H   0  0  0  0  0  0  0  0  0  0  0  0
   -1.2017   -0.6999   -0.0000 C   0  0  0  0  0  0  0  0  0  0  0  0
   -2.0778   -1.1926    0.0018 H   0  0  0  0  0  0  0  0  0  0  0  0
    0.0016   -1.3971    0.0010 C   0  0  0  0  0  0  0  0  0  0  0  0
   -0.0020   -2.3943    0.0016 H   0  0  0  0  0  0  0  0  0  0  0  0
    1.2017   -0.6976    0.0000 C   0  0  0  0  0  0  0  0  0  0  0  0
    2.0843   -1.1916    0.0014 H   0  0  0  0  0  0  0  0  0  0  0  0
    1.1954    0.6982   -0.0006 C   0  0  0  0  0  0  0  0  0  0  0  0
    2.0635    1.1929   -0.0021 H   0  0  0  0  0  0  0  0  0  0  0  0
  1  5  1  0
  5  8  1  0
  1  2  1  0
  1  3  1  0
  1  4  1  0
  5  6  1  0
  5  7  1  0
  8  9  1  0
  8 10  1  0
  8 11  1  0
 12 16  1  0
 16 17  2  0
 17 19  1  0
 19 21  2  0
 21 23  1  0
 23 25  2  0
 25 16  1  0
 12 13  1  0
 12 14  1  0
 12 15  1  0
 17 18  1  0
 19 20  1  0
 21 22  1  0
 23 24  1  0
 25 26  1  0
M  CHG  1   8   1
M  END
>  <PDB_ID>  (501) 
pdb1gc5

>  <RESIDUE_NAME>  (501) 
LYS   PHE

>  <FRAG_NAME>  (501) 
ETAM   MBZ

>  <FRAG_ATOM_NUM>  (501) 
fragi: 11  fragj: 15

>  <atom.prop.CHAIN_ID>  (501) 
A A A A A A A A A A A Z Z Z Z Z Z Z Z Z Z Z Z Z Z Z

>  <atom.prop.IS_HEAVY_ATOM>  (501) 
1 0 0 0 1 0 0 1 0 0 0 1 0 0 0 1 1 0 1 0 1 0 1 0 1 0

>  <DIFUSE_FUNC_ATOM>  (501) 
n/a

>  <FINAL_SINGLE_POINT_ENERGY>  (501) 
0

>  <NONCOV_INTER_ENERGY_QM>  (501) 
0

>  <FF_Energy>  (501) 
-6.25

>  <QM_Energy>  (501) 
-14.22

>  <source>  (501) 
ETAM_MBZ

>  <Index>  (501) 
4740

$$$$
ETAM-pdb1g6w-C-LYS-336:MBZ-pdb1g6w-C-PHE-295
     RDKit          3D

 26 25  0  0  0  0  0  0  0  0999 V2000
   -2.8616   -1.1948   -5.2078 C   0  0  0  0  0  0  0  0  0  0  0  0
   -3.3488   -1.5979   -4.4327 H   0  0  0  0  0  0  0  0  0  0  0  0
   -2.2241   -1.8657   -5.5871 H   0  0  0  0  0  0  0  0  0  0  0  0
   -3.5909   -0.9392   -5.9765 H   0  0  0  0  0  0  0  0  0  0  0  0
   -2.0764    0.0036   -4.7211 C   0  0  0  0  0  0  0  0  0  0  0  0
   -1.4730    0.3208   -5.4533 H   0  0  0  0  0  0  0  0  0  0  0  0
   -2.7119    0.7359   -4.4734 H   0  0  0  0  0  0  0  0  0  0  0  0
   -1.2525   -0.3487   -3.5301 N   0  0  0  0  0  4  0  0  0  0  0  0
   -0.5679   -1.0276   -3.7910 H   0  0  0  0  0  0  0  0  0  0  0  0
   -0.7975    0.4726   -3.1885 H   0  0  0  0  0  0  0  0  0  0  0  0
   -1.8445   -0.7256   -2.8187 H   0  0  0  0  0  0  0  0  0  0  0  0
    0.0108    2.9033   -0.0082 C   0  0  0  0  0  0  0  0  0  0  0  0
    0.5167    3.2110    0.7814 H   0  0  0  0  0  0  0  0  0  0  0  0
   -0.9248    3.2167    0.0139 H   0  0  0  0  0  0  0  0  0  0  0  0
    0.4843    3.3260   -0.8943 H   0  0  0  0  0  0  0  0  0  0  0  0
   -0.0003    1.4027    0.0002 C   0  0  0  0  0  0  0  0  0  0  0  0
   -1.1993    0.6974   -0.0002 C   0  0  0  0  0  0  0  0  0  0  0  0
   -2.0651    1.1848   -0.0023 H   0  0  0  0  0  0  0  0  0  0  0  0
   -1.2040   -0.7008   -0.0000 C   0  0  0  0  0  0  0  0  0  0  0  0
   -2.0783   -1.1928    0.0004 H   0  0  0  0  0  0  0  0  0  0  0  0
    0.0018   -1.3938    0.0015 C   0  0  0  0  0  0  0  0  0  0  0  0
   -0.0010   -2.3942    0.0032 H   0  0  0  0  0  0  0  0  0  0  0  0
    1.2040   -0.6974    0.0000 C   0  0  0  0  0  0  0  0  0  0  0  0
    2.0843   -1.1948    0.0014 H   0  0  0  0  0  0  0  0  0  0  0  0
    1.1978    0.6919   -0.0014 C   0  0  0  0  0  0  0  0  0  0  0  0
    2.0651    1.1906   -0.0046 H   0  0  0  0  0  0  0  0  0  0  0  0
  1  5  1  0
  5  8  1  0
  1  2  1  0
  1  3  1  0
  1  4  1  0
  5  6  1  0
  5  7  1  0
  8  9  1  0
  8 10  1  0
  8 11  1  0
 12 16  1  0
 16 17  2  0
 17 19  1  0
 19 21  2  0
 21 23  1  0
 23 25  2  0
 25 16  1  0
 12 13  1  0
 12 14  1  0
 12 15  1  0
 17 18  1  0
 19 20  1  0
 21 22  1  0
 23 24  1  0
 25 26  1  0
M  CHG  1   8   1
M  END
>  <PDB_ID>  (502) 
pdb1g6w

>  <RESIDUE_NAME>  (502) 
LYS   PHE

>  <FRAG_NAME>  (502) 
ETAM   MBZ

>  <FRAG_ATOM_NUM>  (502) 
fragi: 11  fragj: 15

>  <atom.prop.CHAIN_ID>  (502) 
A A A A A A A A A A A Z Z Z Z Z Z Z Z Z Z Z Z Z Z Z

>  <atom.prop.IS_HEAVY_ATOM>  (502) 
1 0 0 0 1 0 0 1 0 0 0 1 0 0 0 1 1 0 1 0 1 0 1 0 1 0

>  <DIFUSE_FUNC_ATOM>  (502) 
n/a

>  <FINAL_SINGLE_POINT_ENERGY>  (502) 
0

>  <NONCOV_INTER_ENERGY_QM>  (502) 
0

>  <FF_Energy>  (502) 
-5.97

>  <QM_Energy>  (502) 
-11.35

>  <source>  (502) 
ETAM_MBZ

>  <Index>  (502) 
4750

$$$$
ETAM-pdb2h9a-B-VAL-3:MBZ-pdb2h9a-A-PHE-256
     RDKit          3D

 26 25  0  0  0  0  0  0  0  0999 V2000
   -1.5359   -0.3633   -3.5197 C   0  0  0  0  0  0  0  0  0  0  0  0
   -0.8779   -0.5210   -2.7866 H   0  0  0  0  0  0  0  0  0  0  0  0
   -1.0793    0.3372   -4.2190 H   0  0  0  0  0  0  0  0  0  0  0  0
   -2.4754    0.0604   -3.1651 H   0  0  0  0  0  0  0  0  0  0  0  0
   -1.8200   -1.7439   -4.1894 C   0  0  0  0  0  0  0  0  0  0  0  0
   -2.7876   -1.6437   -4.5322 H   0  0  0  0  0  0  0  0  0  0  0  0
   -1.1820   -1.8669   -5.0646 H   0  0  0  0  0  0  0  0  0  0  0  0
   -1.8113   -2.8126   -3.1880 N   0  0  0  0  0  4  0  0  0  0  0  0
   -0.9604   -3.3346   -3.2554 H   0  0  0  0  0  0  0  0  0  0  0  0
   -1.8825   -2.4195   -2.2701 H   0  0  0  0  0  0  0  0  0  0  0  0
   -2.5856   -3.4281   -3.3415 H   0  0  0  0  0  0  0  0  0  0  0  0
   -0.0032    2.8831    0.0653 C   0  0  0  0  0  0  0  0  0  0  0  0
   -0.4112    3.2294   -0.7682 H   0  0  0  0  0  0  0  0  0  0  0  0
    0.9318    3.1949    0.1608 H   0  0  0  0  0  0  0  0  0  0  0  0
   -0.5723    3.2849    0.9037 H   0  0  0  0  0  0  0  0  0  0  0  0
    0.0027    1.3953    0.0008 C   0  0  0  0  0  0  0  0  0  0  0  0
   -1.1910    0.6850   -0.0031 C   0  0  0  0  0  0  0  0  0  0  0  0
   -2.0594    1.1765   -0.0099 H   0  0  0  0  0  0  0  0  0  0  0  0
   -1.1974   -0.7028    0.0000 C   0  0  0  0  0  0  0  0  0  0  0  0
   -2.0759   -1.1946    0.0010 H   0  0  0  0  0  0  0  0  0  0  0  0
   -0.0035   -1.3909    0.0036 C   0  0  0  0  0  0  0  0  0  0  0  0
    0.0034   -2.3894    0.0083 H   0  0  0  0  0  0  0  0  0  0  0  0
    1.1974   -0.6862   -0.0000 C   0  0  0  0  0  0  0  0  0  0  0  0
    2.0792   -1.1861   -0.0004 H   0  0  0  0  0  0  0  0  0  0  0  0
    1.1918    0.6995   -0.0013 C   0  0  0  0  0  0  0  0  0  0  0  0
    2.0612    1.1956   -0.0044 H   0  0  0  0  0  0  0  0  0  0  0  0
  1  5  1  0
  5  8  1  0
  1  2  1  0
  1  3  1  0
  1  4  1  0
  5  6  1  0
  5  7  1  0
  8  9  1  0
  8 10  1  0
  8 11  1  0
 12 16  1  0
 16 17  2  0
 17 19  1  0
 19 21  2  0
 21 23  1  0
 23 25  2  0
 25 16  1  0
 12 13  1  0
 12 14  1  0
 12 15  1  0
 17 18  1  0
 19 20  1  0
 21 22  1  0
 23 24  1  0
 25 26  1  0
M  CHG  1   8   1
M  END
>  <PDB_ID>  (503) 
pdb2h9a

>  <RESIDUE_NAME>  (503) 
VAL   PHE

>  <FRAG_NAME>  (503) 
ETAM   MBZ

>  <FRAG_ATOM_NUM>  (503) 
fragi: 11  fragj: 15

>  <atom.prop.CHAIN_ID>  (503) 
A A A A A A A A A A A Z Z Z Z Z Z Z Z Z Z Z Z Z Z Z

>  <atom.prop.IS_HEAVY_ATOM>  (503) 
1 0 0 0 1 0 0 1 0 0 0 1 0 0 0 1 1 0 1 0 1 0 1 0 1 0

>  <DIFUSE_FUNC_ATOM>  (503) 
n/a

>  <FINAL_SINGLE_POINT_ENERGY>  (503) 
0

>  <NONCOV_INTER_ENERGY_QM>  (503) 
0

>  <FF_Energy>  (503) 
-3.01

>  <QM_Energy>  (503) 
-8.12

>  <source>  (503) 
ETAM_MBZ

>  <Index>  (503) 
4757

$$$$
ETAM-pdb1gd2-F-LYS-97:MBZ-pdb1gd2-F-PHE-93
     RDKit          3D

 26 25  0  0  0  0  0  0  0  0999 V2000
    1.5867   -2.7045    3.6105 C   0  0  0  0  0  0  0  0  0  0  0  0
    2.3266   -3.2487    3.2477 H   0  0  0  0  0  0  0  0  0  0  0  0
    1.3804   -2.9488    4.5446 H   0  0  0  0  0  0  0  0  0  0  0  0
    1.8749   -1.6538    3.5778 H   0  0  0  0  0  0  0  0  0  0  0  0
    0.3310   -2.9549    2.7515 C   0  0  0  0  0  0  0  0  0  0  0  0
   -0.4873   -2.6820    3.2984 H   0  0  0  0  0  0  0  0  0  0  0  0
    0.3609   -2.3197    1.9522 H   0  0  0  0  0  0  0  0  0  0  0  0
    0.1237   -4.3538    2.2444 N   0  0  0  0  0  4  0  0  0  0  0  0
    0.5927   -4.4552    1.3706 H   0  0  0  0  0  0  0  0  0  0  0  0
    0.4977   -4.9984    2.9072 H   0  0  0  0  0  0  0  0  0  0  0  0
   -0.8532   -4.5146    2.1270 H   0  0  0  0  0  0  0  0  0  0  0  0
   -0.0029    2.9027   -0.0034 C   0  0  0  0  0  0  0  0  0  0  0  0
   -0.8207    3.2068   -0.4688 H   0  0  0  0  0  0  0  0  0  0  0  0
    0.8123    3.2096   -0.4726 H   0  0  0  0  0  0  0  0  0  0  0  0
   -0.0016    3.3453    0.9927 H   0  0  0  0  0  0  0  0  0  0  0  0
   -0.0003    1.4010   -0.0011 C   0  0  0  0  0  0  0  0  0  0  0  0
   -1.1989    0.6918    0.0006 C   0  0  0  0  0  0  0  0  0  0  0  0
   -2.0644    1.1837    0.0011 H   0  0  0  0  0  0  0  0  0  0  0  0
   -1.2029   -0.6974    0.0000 C   0  0  0  0  0  0  0  0  0  0  0  0
   -2.0783   -1.1929    0.0004 H   0  0  0  0  0  0  0  0  0  0  0  0
    0.0002   -1.3917    0.0010 C   0  0  0  0  0  0  0  0  0  0  0  0
   -0.0035   -2.3916    0.0019 H   0  0  0  0  0  0  0  0  0  0  0  0
    1.2029   -0.6961   -0.0000 C   0  0  0  0  0  0  0  0  0  0  0  0
    2.0828   -1.1958    0.0007 H   0  0  0  0  0  0  0  0  0  0  0  0
    1.1990    0.6924   -0.0005 C   0  0  0  0  0  0  0  0  0  0  0  0
    2.0650    1.1904   -0.0013 H   0  0  0  0  0  0  0  0  0  0  0  0
  1  5  1  0
  5  8  1  0
  1  2  1  0
  1  3  1  0
  1  4  1  0
  5  6  1  0
  5  7  1  0
  8  9  1  0
  8 10  1  0
  8 11  1  0
 12 16  1  0
 16 17  2  0
 17 19  1  0
 19 21  2  0
 21 23  1  0
 23 25  2  0
 25 16  1  0
 12 13  1  0
 12 14  1  0
 12 15  1  0
 17 18  1  0
 19 20  1  0
 21 22  1  0
 23 24  1  0
 25 26  1  0
M  CHG  1   8   1
M  END
>  <PDB_ID>  (504) 
pdb1gd2

>  <RESIDUE_NAME>  (504) 
LYS   PHE

>  <FRAG_NAME>  (504) 
ETAM   MBZ

>  <FRAG_ATOM_NUM>  (504) 
fragi: 11  fragj: 15

>  <atom.prop.CHAIN_ID>  (504) 
A A A A A A A A A A A Z Z Z Z Z Z Z Z Z Z Z Z Z Z Z

>  <atom.prop.IS_HEAVY_ATOM>  (504) 
1 0 0 0 1 0 0 1 0 0 0 1 0 0 0 1 1 0 1 0 1 0 1 0 1 0

>  <DIFUSE_FUNC_ATOM>  (504) 
n/a

>  <FINAL_SINGLE_POINT_ENERGY>  (504) 
0

>  <NONCOV_INTER_ENERGY_QM>  (504) 
0

>  <FF_Energy>  (504) 
6.67

>  <QM_Energy>  (504) 
-3.6

>  <source>  (504) 
ETAM_MBZ

>  <Index>  (504) 
4763

$$$$
ETAM-pdb1gbn-A-LYS-155:MBZ-pdb1gbn-B-PHE-197
     RDKit          3D

 26 25  0  0  0  0  0  0  0  0999 V2000
   -1.9382   -1.4060   -3.4386 C   0  0  0  0  0  0  0  0  0  0  0  0
   -1.9748   -0.6528   -4.0790 H   0  0  0  0  0  0  0  0  0  0  0  0
   -1.5995   -1.1126   -2.5573 H   0  0  0  0  0  0  0  0  0  0  0  0
   -2.9392   -1.8199   -3.3176 H   0  0  0  0  0  0  0  0  0  0  0  0
   -1.0030   -2.4675   -3.9894 C   0  0  0  0  0  0  0  0  0  0  0  0
   -1.1134   -3.3117   -3.4453 H   0  0  0  0  0  0  0  0  0  0  0  0
   -1.2726   -2.6766   -4.9408 H   0  0  0  0  0  0  0  0  0  0  0  0
    0.4263   -2.0608   -3.9693 N   0  0  0  0  0  4  0  0  0  0  0  0
    0.6959   -1.7765   -3.0008 H   0  0  0  0  0  0  0  0  0  0  0  0
    0.9919   -2.8855   -4.2604 H   0  0  0  0  0  0  0  0  0  0  0  0
    0.5916   -1.2663   -4.6203 H   0  0  0  0  0  0  0  0  0  0  0  0
    0.0018    2.9202   -0.0234 C   0  0  0  0  0  0  0  0  0  0  0  0
    0.9385    3.2212   -0.0711 H   0  0  0  0  0  0  0  0  0  0  0  0
   -0.4435    3.2291    0.7992 H   0  0  0  0  0  0  0  0  0  0  0  0
   -0.5330    3.3384   -0.8761 H   0  0  0  0  0  0  0  0  0  0  0  0
    0.0038    1.4063   -0.0063 C   0  0  0  0  0  0  0  0  0  0  0  0
   -1.1998    0.6990    0.0008 C   0  0  0  0  0  0  0  0  0  0  0  0
   -2.0632    1.1856    0.0050 H   0  0  0  0  0  0  0  0  0  0  0  0
   -1.2035   -0.7040    0.0000 C   0  0  0  0  0  0  0  0  0  0  0  0
   -2.0805   -1.1929   -0.0031 H   0  0  0  0  0  0  0  0  0  0  0  0
   -0.0005   -1.3992    0.0053 C   0  0  0  0  0  0  0  0  0  0  0  0
   -0.0019   -2.3974    0.0123 H   0  0  0  0  0  0  0  0  0  0  0  0
    1.2035   -0.6993   -0.0000 C   0  0  0  0  0  0  0  0  0  0  0  0
    2.0838   -1.1938   -0.0029 H   0  0  0  0  0  0  0  0  0  0  0  0
    1.1966    0.6973    0.0002 C   0  0  0  0  0  0  0  0  0  0  0  0
    2.0674    1.1903    0.0037 H   0  0  0  0  0  0  0  0  0  0  0  0
  1  5  1  0
  5  8  1  0
  1  2  1  0
  1  3  1  0
  1  4  1  0
  5  6  1  0
  5  7  1  0
  8  9  1  0
  8 10  1  0
  8 11  1  0
 12 16  1  0
 16 17  2  0
 17 19  1  0
 19 21  2  0
 21 23  1  0
 23 25  2  0
 25 16  1  0
 12 13  1  0
 12 14  1  0
 12 15  1  0
 17 18  1  0
 19 20  1  0
 21 22  1  0
 23 24  1  0
 25 26  1  0
M  CHG  1   8   1
M  END
>  <PDB_ID>  (505) 
pdb1gbn

>  <RESIDUE_NAME>  (505) 
LYS   PHE

>  <FRAG_NAME>  (505) 
ETAM   MBZ

>  <FRAG_ATOM_NUM>  (505) 
fragi: 11  fragj: 15

>  <atom.prop.CHAIN_ID>  (505) 
A A A A A A A A A A A Z Z Z Z Z Z Z Z Z Z Z Z Z Z Z

>  <atom.prop.IS_HEAVY_ATOM>  (505) 
1 0 0 0 1 0 0 1 0 0 0 1 0 0 0 1 1 0 1 0 1 0 1 0 1 0

>  <DIFUSE_FUNC_ATOM>  (505) 
n/a

>  <FINAL_SINGLE_POINT_ENERGY>  (505) 
0

>  <NONCOV_INTER_ENERGY_QM>  (505) 
0

>  <FF_Energy>  (505) 
-4.04

>  <QM_Energy>  (505) 
-9.23

>  <source>  (505) 
ETAM_MBZ

>  <Index>  (505) 
4764

$$$$
ETAM-pdb1gbn-B-LYS-155:MBZ-pdb1gbn-A-PHE-197
     RDKit          3D

 26 25  0  0  0  0  0  0  0  0999 V2000
   -1.9606   -1.3834   -3.4862 C   0  0  0  0  0  0  0  0  0  0  0  0
   -1.9915   -0.6368   -4.1341 H   0  0  0  0  0  0  0  0  0  0  0  0
   -1.6241   -1.0811   -2.6069 H   0  0  0  0  0  0  0  0  0  0  0  0
   -2.9638   -1.7921   -3.3649 H   0  0  0  0  0  0  0  0  0  0  0  0
   -1.0266   -2.4543   -4.0219 C   0  0  0  0  0  0  0  0  0  0  0  0
   -1.1365   -3.2893   -3.4674 H   0  0  0  0  0  0  0  0  0  0  0  0
   -1.2885   -2.6707   -4.9711 H   0  0  0  0  0  0  0  0  0  0  0  0
    0.4038   -2.0403   -3.9968 N   0  0  0  0  0  4  0  0  0  0  0  0
    0.6768   -1.7539   -3.0308 H   0  0  0  0  0  0  0  0  0  0  0  0
    0.9766   -2.8610   -4.2886 H   0  0  0  0  0  0  0  0  0  0  0  0
    0.5802   -1.2446   -4.6473 H   0  0  0  0  0  0  0  0  0  0  0  0
    0.0021    2.9145   -0.0299 C   0  0  0  0  0  0  0  0  0  0  0  0
    0.9398    3.2183   -0.0704 H   0  0  0  0  0  0  0  0  0  0  0  0
   -0.4517    3.2326    0.7853 H   0  0  0  0  0  0  0  0  0  0  0  0
   -0.5227    3.3297   -0.8904 H   0  0  0  0  0  0  0  0  0  0  0  0
    0.0027    1.4067   -0.0022 C   0  0  0  0  0  0  0  0  0  0  0  0
   -1.1977    0.6997   -0.0001 C   0  0  0  0  0  0  0  0  0  0  0  0
   -2.0628    1.1860   -0.0001 H   0  0  0  0  0  0  0  0  0  0  0  0
   -1.2027   -0.7019    0.0000 C   0  0  0  0  0  0  0  0  0  0  0  0
   -2.0808   -1.1907    0.0002 H   0  0  0  0  0  0  0  0  0  0  0  0
   -0.0010   -1.4013    0.0021 C   0  0  0  0  0  0  0  0  0  0  0  0
   -0.0029   -2.3977    0.0046 H   0  0  0  0  0  0  0  0  0  0  0  0
    1.2027   -0.6998   -0.0000 C   0  0  0  0  0  0  0  0  0  0  0  0
    2.0841   -1.1948    0.0002 H   0  0  0  0  0  0  0  0  0  0  0  0
    1.1960    0.6967    0.0003 C   0  0  0  0  0  0  0  0  0  0  0  0
    2.0668    1.1906    0.0017 H   0  0  0  0  0  0  0  0  0  0  0  0
  1  5  1  0
  5  8  1  0
  1  2  1  0
  1  3  1  0
  1  4  1  0
  5  6  1  0
  5  7  1  0
  8  9  1  0
  8 10  1  0
  8 11  1  0
 12 16  1  0
 16 17  2  0
 17 19  1  0
 19 21  2  0
 21 23  1  0
 23 25  2  0
 25 16  1  0
 12 13  1  0
 12 14  1  0
 12 15  1  0
 17 18  1  0
 19 20  1  0
 21 22  1  0
 23 24  1  0
 25 26  1  0
M  CHG  1   8   1
M  END
>  <PDB_ID>  (506) 
pdb1gbn

>  <RESIDUE_NAME>  (506) 
LYS   PHE

>  <FRAG_NAME>  (506) 
ETAM   MBZ

>  <FRAG_ATOM_NUM>  (506) 
fragi: 11  fragj: 15

>  <atom.prop.CHAIN_ID>  (506) 
A A A A A A A A A A A Z Z Z Z Z Z Z Z Z Z Z Z Z Z Z

>  <atom.prop.IS_HEAVY_ATOM>  (506) 
1 0 0 0 1 0 0 1 0 0 0 1 0 0 0 1 1 0 1 0 1 0 1 0 1 0

>  <DIFUSE_FUNC_ATOM>  (506) 
n/a

>  <FINAL_SINGLE_POINT_ENERGY>  (506) 
0

>  <NONCOV_INTER_ENERGY_QM>  (506) 
0

>  <FF_Energy>  (506) 
-4.15

>  <QM_Energy>  (506) 
-9.2

>  <source>  (506) 
ETAM_MBZ

>  <Index>  (506) 
4767

$$$$
ETAM-pdb1g6w-D-LYS-336:MBZ-pdb1g6w-D-PHE-295
     RDKit          3D

 26 25  0  0  0  0  0  0  0  0999 V2000
    1.8833   -0.3000    4.8304 C   0  0  0  0  0  0  0  0  0  0  0  0
    1.5333    0.5912    5.1138 H   0  0  0  0  0  0  0  0  0  0  0  0
    2.5211   -0.1844    4.0704 H   0  0  0  0  0  0  0  0  0  0  0  0
    2.4210   -0.7415    5.6695 H   0  0  0  0  0  0  0  0  0  0  0  0
    0.7376   -1.1586    4.3834 C   0  0  0  0  0  0  0  0  0  0  0  0
    1.0749   -2.0740    4.1499 H   0  0  0  0  0  0  0  0  0  0  0  0
    0.0674   -1.2376    5.1255 H   0  0  0  0  0  0  0  0  0  0  0  0
    0.0611   -0.5770    3.1852 N   0  0  0  0  0  4  0  0  0  0  0  0
   -0.9098   -0.8119    3.2092 H   0  0  0  0  0  0  0  0  0  0  0  0
    0.1682    0.4165    3.1970 H   0  0  0  0  0  0  0  0  0  0  0  0
    0.4776   -0.9510    2.3579 H   0  0  0  0  0  0  0  0  0  0  0  0
    0.0022    2.9136   -0.0256 C   0  0  0  0  0  0  0  0  0  0  0  0
   -0.4151    3.2076   -0.8727 H   0  0  0  0  0  0  0  0  0  0  0  0
    0.9405    3.2207    0.0373 H   0  0  0  0  0  0  0  0  0  0  0  0
   -0.5520    3.3719    0.7935 H   0  0  0  0  0  0  0  0  0  0  0  0
   -0.0000    1.4114   -0.0005 C   0  0  0  0  0  0  0  0  0  0  0  0
   -1.1979    0.7020    0.0004 C   0  0  0  0  0  0  0  0  0  0  0  0
   -2.0653    1.1878   -0.0001 H   0  0  0  0  0  0  0  0  0  0  0  0
   -1.2027   -0.6994    0.0000 C   0  0  0  0  0  0  0  0  0  0  0  0
   -2.0808   -1.1880    0.0017 H   0  0  0  0  0  0  0  0  0  0  0  0
   -0.0007   -1.4030   -0.0012 C   0  0  0  0  0  0  0  0  0  0  0  0
   -0.0092   -2.3997   -0.0040 H   0  0  0  0  0  0  0  0  0  0  0  0
    1.2027   -0.7084    0.0000 C   0  0  0  0  0  0  0  0  0  0  0  0
    2.0840   -1.1998    0.0014 H   0  0  0  0  0  0  0  0  0  0  0  0
    1.1986    0.6974    0.0013 C   0  0  0  0  0  0  0  0  0  0  0  0
    2.0678    1.1873    0.0024 H   0  0  0  0  0  0  0  0  0  0  0  0
  1  5  1  0
  5  8  1  0
  1  2  1  0
  1  3  1  0
  1  4  1  0
  5  6  1  0
  5  7  1  0
  8  9  1  0
  8 10  1  0
  8 11  1  0
 12 16  1  0
 16 17  2  0
 17 19  1  0
 19 21  2  0
 21 23  1  0
 23 25  2  0
 25 16  1  0
 12 13  1  0
 12 14  1  0
 12 15  1  0
 17 18  1  0
 19 20  1  0
 21 22  1  0
 23 24  1  0
 25 26  1  0
M  CHG  1   8   1
M  END
>  <PDB_ID>  (507) 
pdb1g6w

>  <RESIDUE_NAME>  (507) 
LYS   PHE

>  <FRAG_NAME>  (507) 
ETAM   MBZ

>  <FRAG_ATOM_NUM>  (507) 
fragi: 11  fragj: 15

>  <atom.prop.CHAIN_ID>  (507) 
A A A A A A A A A A A Z Z Z Z Z Z Z Z Z Z Z Z Z Z Z

>  <atom.prop.IS_HEAVY_ATOM>  (507) 
1 0 0 0 1 0 0 1 0 0 0 1 0 0 0 1 1 0 1 0 1 0 1 0 1 0

>  <DIFUSE_FUNC_ATOM>  (507) 
n/a

>  <FINAL_SINGLE_POINT_ENERGY>  (507) 
0

>  <NONCOV_INTER_ENERGY_QM>  (507) 
0

>  <FF_Energy>  (507) 
-8.56

>  <QM_Energy>  (507) 
-16.43

>  <source>  (507) 
ETAM_MBZ

>  <Index>  (507) 
4783

$$$$
ETAM-pdb1ger-A-LYS-51:MBZ-pdb1ger-A-PHE-344
     RDKit          3D

 26 25  0  0  0  0  0  0  0  0999 V2000
   -1.0479   -0.9135    3.5672 C   0  0  0  0  0  0  0  0  0  0  0  0
   -1.3408   -0.0108    3.2549 H   0  0  0  0  0  0  0  0  0  0  0  0
   -0.2524   -1.2099    3.0425 H   0  0  0  0  0  0  0  0  0  0  0  0
   -0.8076   -0.8833    4.6300 H   0  0  0  0  0  0  0  0  0  0  0  0
   -2.1832   -1.8938    3.2830 C   0  0  0  0  0  0  0  0  0  0  0  0
   -2.7984   -1.9039    4.0953 H   0  0  0  0  0  0  0  0  0  0  0  0
   -2.7321   -1.5218    2.5091 H   0  0  0  0  0  0  0  0  0  0  0  0
   -1.7522   -3.2478    2.9742 N   0  0  0  0  0  4  0  0  0  0  0  0
   -2.2939   -3.9140    3.4975 H   0  0  0  0  0  0  0  0  0  0  0  0
   -1.8707   -3.4365    1.9941 H   0  0  0  0  0  0  0  0  0  0  0  0
   -0.7824   -3.3671    3.2093 H   0  0  0  0  0  0  0  0  0  0  0  0
   -0.0284    2.8986   -0.0707 C   0  0  0  0  0  0  0  0  0  0  0  0
    0.8189    3.2305    0.2368 H   0  0  0  0  0  0  0  0  0  0  0  0
   -0.8060    3.2053    0.4017 H   0  0  0  0  0  0  0  0  0  0  0  0
   -0.1392    3.1953   -1.1137 H   0  0  0  0  0  0  0  0  0  0  0  0
    0.0027    1.3678   -0.0022 C   0  0  0  0  0  0  0  0  0  0  0  0
   -1.2018    0.7072   -0.0028 C   0  0  0  0  0  0  0  0  0  0  0  0
   -2.0538    1.2023   -0.0057 H   0  0  0  0  0  0  0  0  0  0  0  0
   -1.1982   -0.6702   -0.0000 C   0  0  0  0  0  0  0  0  0  0  0  0
   -2.0800   -1.1704    0.0027 H   0  0  0  0  0  0  0  0  0  0  0  0
   -0.0070   -1.3674    0.0012 C   0  0  0  0  0  0  0  0  0  0  0  0
   -0.0249   -2.3754    0.0031 H   0  0  0  0  0  0  0  0  0  0  0  0
    1.1982   -0.7014    0.0000 C   0  0  0  0  0  0  0  0  0  0  0  0
    2.0695   -1.2184   -0.0021 H   0  0  0  0  0  0  0  0  0  0  0  0
    1.2062    0.6640    0.0037 C   0  0  0  0  0  0  0  0  0  0  0  0
    2.0662    1.1694    0.0101 H   0  0  0  0  0  0  0  0  0  0  0  0
  1  5  1  0
  5  8  1  0
  1  2  1  0
  1  3  1  0
  1  4  1  0
  5  6  1  0
  5  7  1  0
  8  9  1  0
  8 10  1  0
  8 11  1  0
 12 16  1  0
 16 17  2  0
 17 19  1  0
 19 21  2  0
 21 23  1  0
 23 25  2  0
 25 16  1  0
 12 13  1  0
 12 14  1  0
 12 15  1  0
 17 18  1  0
 19 20  1  0
 21 22  1  0
 23 24  1  0
 25 26  1  0
M  CHG  1   8   1
M  END
>  <PDB_ID>  (508) 
pdb1ger

>  <RESIDUE_NAME>  (508) 
LYS   PHE

>  <FRAG_NAME>  (508) 
ETAM   MBZ

>  <FRAG_ATOM_NUM>  (508) 
fragi: 11  fragj: 15

>  <atom.prop.CHAIN_ID>  (508) 
A A A A A A A A A A A Z Z Z Z Z Z Z Z Z Z Z Z Z Z Z

>  <atom.prop.IS_HEAVY_ATOM>  (508) 
1 0 0 0 1 0 0 1 0 0 0 1 0 0 0 1 1 0 1 0 1 0 1 0 1 0

>  <DIFUSE_FUNC_ATOM>  (508) 
n/a

>  <FINAL_SINGLE_POINT_ENERGY>  (508) 
0

>  <NONCOV_INTER_ENERGY_QM>  (508) 
0

>  <FF_Energy>  (508) 
-2.66

>  <QM_Energy>  (508) 
-7.8

>  <source>  (508) 
ETAM_MBZ

>  <Index>  (508) 
4791

$$$$
ETAM-pdb1gkx-A-LYS-184:MBZ-pdb1gkx-A-PHE-187
     RDKit          3D

 26 25  0  0  0  0  0  0  0  0999 V2000
   -2.4504    1.6509   -4.1515 C   0  0  0  0  0  0  0  0  0  0  0  0
   -2.6513    1.2282   -5.0272 H   0  0  0  0  0  0  0  0  0  0  0  0
   -1.4768    1.8231   -4.0611 H   0  0  0  0  0  0  0  0  0  0  0  0
   -2.9881    2.5965   -4.0815 H   0  0  0  0  0  0  0  0  0  0  0  0
   -2.8746    0.6873   -3.0423 C   0  0  0  0  0  0  0  0  0  0  0  0
   -2.7749    1.1524   -2.1561 H   0  0  0  0  0  0  0  0  0  0  0  0
   -3.8436    0.4527   -3.1726 H   0  0  0  0  0  0  0  0  0  0  0  0
   -2.0648   -0.5645   -3.0320 N   0  0  0  0  0  4  0  0  0  0  0  0
   -1.8599   -0.8176   -2.0877 H   0  0  0  0  0  0  0  0  0  0  0  0
   -2.5837   -1.2972   -3.4709 H   0  0  0  0  0  0  0  0  0  0  0  0
   -1.2130   -0.4103   -3.5307 H   0  0  0  0  0  0  0  0  0  0  0  0
    0.0037    2.8994   -0.0229 C   0  0  0  0  0  0  0  0  0  0  0  0
   -0.8695    3.2063   -0.3770 H   0  0  0  0  0  0  0  0  0  0  0  0
    0.7472    3.1960   -0.6059 H   0  0  0  0  0  0  0  0  0  0  0  0
    0.1453    3.3598    0.9549 H   0  0  0  0  0  0  0  0  0  0  0  0
   -0.0017    1.4016   -0.0011 C   0  0  0  0  0  0  0  0  0  0  0  0
   -1.1986    0.6969    0.0014 C   0  0  0  0  0  0  0  0  0  0  0  0
   -2.0647    1.1860    0.0031 H   0  0  0  0  0  0  0  0  0  0  0  0
   -1.2040   -0.6972    0.0000 C   0  0  0  0  0  0  0  0  0  0  0  0
   -2.0788   -1.1902    0.0011 H   0  0  0  0  0  0  0  0  0  0  0  0
    0.0021   -1.3945   -0.0008 C   0  0  0  0  0  0  0  0  0  0  0  0
   -0.0025   -2.3925   -0.0019 H   0  0  0  0  0  0  0  0  0  0  0  0
    1.2040   -0.6971    0.0000 C   0  0  0  0  0  0  0  0  0  0  0  0
    2.0847   -1.1961    0.0017 H   0  0  0  0  0  0  0  0  0  0  0  0
    1.1982    0.6903    0.0004 C   0  0  0  0  0  0  0  0  0  0  0  0
    2.0646    1.1898    0.0012 H   0  0  0  0  0  0  0  0  0  0  0  0
  1  5  1  0
  5  8  1  0
  1  2  1  0
  1  3  1  0
  1  4  1  0
  5  6  1  0
  5  7  1  0
  8  9  1  0
  8 10  1  0
  8 11  1  0
 12 16  1  0
 16 17  2  0
 17 19  1  0
 19 21  2  0
 21 23  1  0
 23 25  2  0
 25 16  1  0
 12 13  1  0
 12 14  1  0
 12 15  1  0
 17 18  1  0
 19 20  1  0
 21 22  1  0
 23 24  1  0
 25 26  1  0
M  CHG  1   8   1
M  END
>  <PDB_ID>  (509) 
pdb1gkx

>  <RESIDUE_NAME>  (509) 
LYS   PHE

>  <FRAG_NAME>  (509) 
ETAM   MBZ

>  <FRAG_ATOM_NUM>  (509) 
fragi: 11  fragj: 15

>  <atom.prop.CHAIN_ID>  (509) 
A A A A A A A A A A A Z Z Z Z Z Z Z Z Z Z Z Z Z Z Z

>  <atom.prop.IS_HEAVY_ATOM>  (509) 
1 0 0 0 1 0 0 1 0 0 0 1 0 0 0 1 1 0 1 0 1 0 1 0 1 0

>  <DIFUSE_FUNC_ATOM>  (509) 
n/a

>  <FINAL_SINGLE_POINT_ENERGY>  (509) 
0

>  <NONCOV_INTER_ENERGY_QM>  (509) 
0

>  <FF_Energy>  (509) 
-4.93

>  <QM_Energy>  (509) 
-12.69

>  <source>  (509) 
ETAM_MBZ

>  <Index>  (509) 
4868

$$$$
ETAM-pdb1gmu-C-LYS-87:MBZ-pdb1gmu-C-PHE-83
     RDKit          3D

 26 25  0  0  0  0  0  0  0  0999 V2000
    0.3139   -1.3462   -4.6328 C   0  0  0  0  0  0  0  0  0  0  0  0
   -0.1879   -0.9400   -5.3887 H   0  0  0  0  0  0  0  0  0  0  0  0
    0.4694   -2.3139   -4.7999 H   0  0  0  0  0  0  0  0  0  0  0  0
    1.2788   -0.8466   -4.5457 H   0  0  0  0  0  0  0  0  0  0  0  0
   -0.4927   -1.1913   -3.3689 C   0  0  0  0  0  0  0  0  0  0  0  0
   -1.3585   -1.6776   -3.4672 H   0  0  0  0  0  0  0  0  0  0  0  0
    0.0203   -1.5676   -2.6002 H   0  0  0  0  0  0  0  0  0  0  0  0
   -0.7685    0.2479   -3.1114 N   0  0  0  0  0  4  0  0  0  0  0  0
    0.0669    0.7778   -3.2592 H   0  0  0  0  0  0  0  0  0  0  0  0
   -1.4811    0.5657   -3.7359 H   0  0  0  0  0  0  0  0  0  0  0  0
   -1.0754    0.3630   -2.1674 H   0  0  0  0  0  0  0  0  0  0  0  0
   -0.0134    2.9055    0.0353 C   0  0  0  0  0  0  0  0  0  0  0  0
    0.0372    3.1907    0.9825 H   0  0  0  0  0  0  0  0  0  0  0  0
   -0.8541    3.2151   -0.3855 H   0  0  0  0  0  0  0  0  0  0  0  0
    0.8156    3.3717   -0.4969 H   0  0  0  0  0  0  0  0  0  0  0  0
   -0.0006    1.4034    0.0004 C   0  0  0  0  0  0  0  0  0  0  0  0
   -1.1963    0.6925   -0.0001 C   0  0  0  0  0  0  0  0  0  0  0  0
   -2.0645    1.1833   -0.0020 H   0  0  0  0  0  0  0  0  0  0  0  0
   -1.2022   -0.6983   -0.0000 C   0  0  0  0  0  0  0  0  0  0  0  0
   -2.0785   -1.1915    0.0010 H   0  0  0  0  0  0  0  0  0  0  0  0
    0.0002   -1.3957    0.0004 C   0  0  0  0  0  0  0  0  0  0  0  0
   -0.0033   -2.3935    0.0012 H   0  0  0  0  0  0  0  0  0  0  0  0
    1.2022   -0.6978   -0.0000 C   0  0  0  0  0  0  0  0  0  0  0  0
    2.0833   -1.1940    0.0013 H   0  0  0  0  0  0  0  0  0  0  0  0
    1.1967    0.6957   -0.0007 C   0  0  0  0  0  0  0  0  0  0  0  0
    2.0648    1.1919   -0.0029 H   0  0  0  0  0  0  0  0  0  0  0  0
  1  5  1  0
  5  8  1  0
  1  2  1  0
  1  3  1  0
  1  4  1  0
  5  6  1  0
  5  7  1  0
  8  9  1  0
  8 10  1  0
  8 11  1  0
 12 16  1  0
 16 17  2  0
 17 19  1  0
 19 21  2  0
 21 23  1  0
 23 25  2  0
 25 16  1  0
 12 13  1  0
 12 14  1  0
 12 15  1  0
 17 18  1  0
 19 20  1  0
 21 22  1  0
 23 24  1  0
 25 26  1  0
M  CHG  1   8   1
M  END
>  <PDB_ID>  (510) 
pdb1gmu

>  <RESIDUE_NAME>  (510) 
LYS   PHE

>  <FRAG_NAME>  (510) 
ETAM   MBZ

>  <FRAG_ATOM_NUM>  (510) 
fragi: 11  fragj: 15

>  <atom.prop.CHAIN_ID>  (510) 
A A A A A A A A A A A Z Z Z Z Z Z Z Z Z Z Z Z Z Z Z

>  <atom.prop.IS_HEAVY_ATOM>  (510) 
1 0 0 0 1 0 0 1 0 0 0 1 0 0 0 1 1 0 1 0 1 0 1 0 1 0

>  <DIFUSE_FUNC_ATOM>  (510) 
n/a

>  <FINAL_SINGLE_POINT_ENERGY>  (510) 
0

>  <NONCOV_INTER_ENERGY_QM>  (510) 
0

>  <FF_Energy>  (510) 
-8.42

>  <QM_Energy>  (510) 
-16.53

>  <source>  (510) 
ETAM_MBZ

>  <Index>  (510) 
4873

$$$$
ETAM-pdb2hhp-A-GLN-4:MBZ-pdb2hhp-A-PHE-7
     RDKit          3D

 26 25  0  0  0  0  0  0  0  0999 V2000
   -3.4459    0.0087    2.1612 C   0  0  0  0  0  0  0  0  0  0  0  0
   -3.1891    0.1023    1.1880 H   0  0  0  0  0  0  0  0  0  0  0  0
   -2.5979    0.0647    2.7102 H   0  0  0  0  0  0  0  0  0  0  0  0
   -3.8606   -0.9901    2.2977 H   0  0  0  0  0  0  0  0  0  0  0  0
   -4.3540    1.1818    2.5435 C   0  0  0  0  0  0  0  0  0  0  0  0
   -5.0312    0.9187    3.2242 H   0  0  0  0  0  0  0  0  0  0  0  0
   -3.7503    1.9897    2.9568 H   0  0  0  0  0  0  0  0  0  0  0  0
   -5.0932    1.6905    1.3538 N   0  0  0  0  0  4  0  0  0  0  0  0
   -4.7852    1.1994    0.5424 H   0  0  0  0  0  0  0  0  0  0  0  0
   -6.0702    1.5415    1.4876 H   0  0  0  0  0  0  0  0  0  0  0  0
   -4.9115    2.6654    1.2476 H   0  0  0  0  0  0  0  0  0  0  0  0
    0.0146    2.9085    0.0177 C   0  0  0  0  0  0  0  0  0  0  0  0
   -0.9150    3.2306    0.0128 H   0  0  0  0  0  0  0  0  0  0  0  0
    0.5213    3.2245   -0.7642 H   0  0  0  0  0  0  0  0  0  0  0  0
    0.4980    3.3108    0.9080 H   0  0  0  0  0  0  0  0  0  0  0  0
   -0.0058    1.4059   -0.0087 C   0  0  0  0  0  0  0  0  0  0  0  0
   -1.2081    0.7102    0.0101 C   0  0  0  0  0  0  0  0  0  0  0  0
   -2.0698    1.1912    0.0292 H   0  0  0  0  0  0  0  0  0  0  0  0
   -1.2033   -0.6934    0.0000 C   0  0  0  0  0  0  0  0  0  0  0  0
   -2.0708   -1.1934   -0.0048 H   0  0  0  0  0  0  0  0  0  0  0  0
    0.0197   -1.3954   -0.0011 C   0  0  0  0  0  0  0  0  0  0  0  0
   -0.0018   -2.3955   -0.0035 H   0  0  0  0  0  0  0  0  0  0  0  0
    1.2033   -0.7085   -0.0000 C   0  0  0  0  0  0  0  0  0  0  0  0
    2.0923   -1.1980    0.0024 H   0  0  0  0  0  0  0  0  0  0  0  0
    1.1942    0.6813   -0.0003 C   0  0  0  0  0  0  0  0  0  0  0  0
    2.0638    1.1818    0.0050 H   0  0  0  0  0  0  0  0  0  0  0  0
  1  5  1  0
  5  8  1  0
  1  2  1  0
  1  3  1  0
  1  4  1  0
  5  6  1  0
  5  7  1  0
  8  9  1  0
  8 10  1  0
  8 11  1  0
 12 16  1  0
 16 17  2  0
 17 19  1  0
 19 21  2  0
 21 23  1  0
 23 25  2  0
 25 16  1  0
 12 13  1  0
 12 14  1  0
 12 15  1  0
 17 18  1  0
 19 20  1  0
 21 22  1  0
 23 24  1  0
 25 26  1  0
M  CHG  1   8   1
M  END
>  <PDB_ID>  (511) 
pdb2hhp

>  <RESIDUE_NAME>  (511) 
GLN   PHE

>  <FRAG_NAME>  (511) 
ETAM   MBZ

>  <FRAG_ATOM_NUM>  (511) 
fragi: 11  fragj: 15

>  <atom.prop.CHAIN_ID>  (511) 
A A A A A A A A A A A Z Z Z Z Z Z Z Z Z Z Z Z Z Z Z

>  <atom.prop.IS_HEAVY_ATOM>  (511) 
1 0 0 0 1 0 0 1 0 0 0 1 0 0 0 1 1 0 1 0 1 0 1 0 1 0

>  <DIFUSE_FUNC_ATOM>  (511) 
n/a

>  <FINAL_SINGLE_POINT_ENERGY>  (511) 
0

>  <NONCOV_INTER_ENERGY_QM>  (511) 
0

>  <FF_Energy>  (511) 
5.12

>  <QM_Energy>  (511) 
-0.15

>  <source>  (511) 
ETAM_MBZ

>  <Index>  (511) 
4875

$$$$
ETAM-pdb2hhp-A-LYS-385:MBZ-pdb2hhp-A-PHE-495
     RDKit          3D

 26 25  0  0  0  0  0  0  0  0999 V2000
   -1.8184   -3.0291   -4.1993 C   0  0  0  0  0  0  0  0  0  0  0  0
   -2.4148   -3.4972   -3.5518 H   0  0  0  0  0  0  0  0  0  0  0  0
   -1.4608   -3.6791   -4.8652 H   0  0  0  0  0  0  0  0  0  0  0  0
   -2.3995   -2.2718   -4.7257 H   0  0  0  0  0  0  0  0  0  0  0  0
   -0.6434   -2.4283   -3.4289 C   0  0  0  0  0  0  0  0  0  0  0  0
    0.0034   -2.0398   -4.0806 H   0  0  0  0  0  0  0  0  0  0  0  0
   -0.9874   -1.7131   -2.8249 H   0  0  0  0  0  0  0  0  0  0  0  0
    0.0384   -3.4740   -2.6196 N   0  0  0  0  0  4  0  0  0  0  0  0
    0.9053   -3.7166   -3.0544 H   0  0  0  0  0  0  0  0  0  0  0  0
    0.2115   -3.1217   -1.7007 H   0  0  0  0  0  0  0  0  0  0  0  0
   -0.5459   -4.2833   -2.5633 H   0  0  0  0  0  0  0  0  0  0  0  0
    0.0010    2.8986    0.0224 C   0  0  0  0  0  0  0  0  0  0  0  0
   -0.6484    3.2212   -0.6448 H   0  0  0  0  0  0  0  0  0  0  0  0
    0.9143    3.2132   -0.1714 H   0  0  0  0  0  0  0  0  0  0  0  0
   -0.2898    3.3039    0.9916 H   0  0  0  0  0  0  0  0  0  0  0  0
    0.0023    1.4021   -0.0083 C   0  0  0  0  0  0  0  0  0  0  0  0
   -1.1972    0.6929    0.0051 C   0  0  0  0  0  0  0  0  0  0  0  0
   -2.0625    1.1833    0.0172 H   0  0  0  0  0  0  0  0  0  0  0  0
   -1.2032   -0.7006    0.0000 C   0  0  0  0  0  0  0  0  0  0  0  0
   -2.0793   -1.1922   -0.0007 H   0  0  0  0  0  0  0  0  0  0  0  0
   -0.0020   -1.3964   -0.0022 C   0  0  0  0  0  0  0  0  0  0  0  0
   -0.0026   -2.3944   -0.0063 H   0  0  0  0  0  0  0  0  0  0  0  0
    1.2032   -0.6963   -0.0000 C   0  0  0  0  0  0  0  0  0  0  0  0
    2.0825   -1.1929   -0.0010 H   0  0  0  0  0  0  0  0  0  0  0  0
    1.1969    0.6983    0.0055 C   0  0  0  0  0  0  0  0  0  0  0  0
    2.0658    1.1929    0.0185 H   0  0  0  0  0  0  0  0  0  0  0  0
  1  5  1  0
  5  8  1  0
  1  2  1  0
  1  3  1  0
  1  4  1  0
  5  6  1  0
  5  7  1  0
  8  9  1  0
  8 10  1  0
  8 11  1  0
 12 16  1  0
 16 17  2  0
 17 19  1  0
 19 21  2  0
 21 23  1  0
 23 25  2  0
 25 16  1  0
 12 13  1  0
 12 14  1  0
 12 15  1  0
 17 18  1  0
 19 20  1  0
 21 22  1  0
 23 24  1  0
 25 26  1  0
M  CHG  1   8   1
M  END
>  <PDB_ID>  (512) 
pdb2hhp

>  <RESIDUE_NAME>  (512) 
LYS   PHE

>  <FRAG_NAME>  (512) 
ETAM   MBZ

>  <FRAG_ATOM_NUM>  (512) 
fragi: 11  fragj: 15

>  <atom.prop.CHAIN_ID>  (512) 
A A A A A A A A A A A Z Z Z Z Z Z Z Z Z Z Z Z Z Z Z

>  <atom.prop.IS_HEAVY_ATOM>  (512) 
1 0 0 0 1 0 0 1 0 0 0 1 0 0 0 1 1 0 1 0 1 0 1 0 1 0

>  <DIFUSE_FUNC_ATOM>  (512) 
n/a

>  <FINAL_SINGLE_POINT_ENERGY>  (512) 
0

>  <NONCOV_INTER_ENERGY_QM>  (512) 
0

>  <FF_Energy>  (512) 
-1.83

>  <QM_Energy>  (512) 
-8.82

>  <source>  (512) 
ETAM_MBZ

>  <Index>  (512) 
4877

$$$$
ETAM-pdb2hiv-A-LYS-271:MBZ-pdb2hiv-A-PHE-276
     RDKit          3D

 26 25  0  0  0  0  0  0  0  0999 V2000
   -3.1071   -3.6976   -1.4896 C   0  0  0  0  0  0  0  0  0  0  0  0
   -3.0964   -4.1402   -0.5976 H   0  0  0  0  0  0  0  0  0  0  0  0
   -3.5418   -4.2898   -2.1615 H   0  0  0  0  0  0  0  0  0  0  0  0
   -3.6799   -2.7733   -1.4144 H   0  0  0  0  0  0  0  0  0  0  0  0
   -1.6595   -3.4512   -1.9254 C   0  0  0  0  0  0  0  0  0  0  0  0
   -1.6606   -2.9889   -2.8137 H   0  0  0  0  0  0  0  0  0  0  0  0
   -1.2102   -2.8632   -1.2491 H   0  0  0  0  0  0  0  0  0  0  0  0
   -0.8706   -4.7365   -2.0490 N   0  0  0  0  0  4  0  0  0  0  0  0
   -1.4930   -5.4693   -2.3095 H   0  0  0  0  0  0  0  0  0  0  0  0
   -0.1706   -4.6157   -2.7457 H   0  0  0  0  0  0  0  0  0  0  0  0
   -0.4495   -4.9385   -1.1695 H   0  0  0  0  0  0  0  0  0  0  0  0
   -0.0015    2.8888   -0.0121 C   0  0  0  0  0  0  0  0  0  0  0  0
   -0.6694    3.1905   -0.6813 H   0  0  0  0  0  0  0  0  0  0  0  0
    0.9081    3.2000   -0.2605 H   0  0  0  0  0  0  0  0  0  0  0  0
   -0.2584    3.3493    0.9419 H   0  0  0  0  0  0  0  0  0  0  0  0
    0.0019    1.4012    0.0078 C   0  0  0  0  0  0  0  0  0  0  0  0
   -1.1946    0.6906    0.0050 C   0  0  0  0  0  0  0  0  0  0  0  0
   -2.0619    1.1850    0.0057 H   0  0  0  0  0  0  0  0  0  0  0  0
   -1.2034   -0.6958   -0.0000 C   0  0  0  0  0  0  0  0  0  0  0  0
   -2.0815   -1.1888   -0.0033 H   0  0  0  0  0  0  0  0  0  0  0  0
   -0.0041   -1.4003    0.0013 C   0  0  0  0  0  0  0  0  0  0  0  0
   -0.0118   -2.3971    0.0021 H   0  0  0  0  0  0  0  0  0  0  0  0
    1.2034   -0.7061    0.0000 C   0  0  0  0  0  0  0  0  0  0  0  0
    2.0830   -1.1925    0.0100 H   0  0  0  0  0  0  0  0  0  0  0  0
    1.1967    0.7104   -0.0141 C   0  0  0  0  0  0  0  0  0  0  0  0
    2.0644    1.1939   -0.0412 H   0  0  0  0  0  0  0  0  0  0  0  0
  1  5  1  0
  5  8  1  0
  1  2  1  0
  1  3  1  0
  1  4  1  0
  5  6  1  0
  5  7  1  0
  8  9  1  0
  8 10  1  0
  8 11  1  0
 12 16  1  0
 16 17  2  0
 17 19  1  0
 19 21  2  0
 21 23  1  0
 23 25  2  0
 25 16  1  0
 12 13  1  0
 12 14  1  0
 12 15  1  0
 17 18  1  0
 19 20  1  0
 21 22  1  0
 23 24  1  0
 25 26  1  0
M  CHG  1   8   1
M  END
>  <PDB_ID>  (513) 
pdb2hiv

>  <RESIDUE_NAME>  (513) 
LYS   PHE

>  <FRAG_NAME>  (513) 
ETAM   MBZ

>  <FRAG_ATOM_NUM>  (513) 
fragi: 11  fragj: 15

>  <atom.prop.CHAIN_ID>  (513) 
A A A A A A A A A A A Z Z Z Z Z Z Z Z Z Z Z Z Z Z Z

>  <atom.prop.IS_HEAVY_ATOM>  (513) 
1 0 0 0 1 0 0 1 0 0 0 1 0 0 0 1 1 0 1 0 1 0 1 0 1 0

>  <DIFUSE_FUNC_ATOM>  (513) 
n/a

>  <FINAL_SINGLE_POINT_ENERGY>  (513) 
0

>  <NONCOV_INTER_ENERGY_QM>  (513) 
0

>  <FF_Energy>  (513) 
8.56

>  <QM_Energy>  (513) 
-1.98

>  <source>  (513) 
ETAM_MBZ

>  <Index>  (513) 
4893

$$$$
ETAM-pdb1gpe-B-LYS-145:MBZ-pdb1gpe-B-PHE-141
     RDKit          3D

 26 25  0  0  0  0  0  0  0  0999 V2000
    0.9908   -0.9792    4.3675 C   0  0  0  0  0  0  0  0  0  0  0  0
    1.6082   -0.1846    4.3544 H   0  0  0  0  0  0  0  0  0  0  0  0
    1.2464   -1.5680    5.1432 H   0  0  0  0  0  0  0  0  0  0  0  0
   -0.0226   -0.6158    4.5378 H   0  0  0  0  0  0  0  0  0  0  0  0
    1.1607   -1.7521    3.0904 C   0  0  0  0  0  0  0  0  0  0  0  0
    0.8424   -2.6889    3.2181 H   0  0  0  0  0  0  0  0  0  0  0  0
    0.6407   -1.3155    2.3590 H   0  0  0  0  0  0  0  0  0  0  0  0
    2.6126   -1.7903    2.6877 N   0  0  0  0  0  4  0  0  0  0  0  0
    3.1598   -1.3888    3.4178 H   0  0  0  0  0  0  0  0  0  0  0  0
    2.8815   -2.7385    2.5406 H   0  0  0  0  0  0  0  0  0  0  0  0
    2.7278   -1.2673    1.8469 H   0  0  0  0  0  0  0  0  0  0  0  0
    0.0016    2.8892   -0.0281 C   0  0  0  0  0  0  0  0  0  0  0  0
   -0.3312    3.1854   -0.9214 H   0  0  0  0  0  0  0  0  0  0  0  0
    0.9427    3.1956    0.1003 H   0  0  0  0  0  0  0  0  0  0  0  0
   -0.6092    3.3815    0.7285 H   0  0  0  0  0  0  0  0  0  0  0  0
   -0.0061    1.3941   -0.0027 C   0  0  0  0  0  0  0  0  0  0  0  0
   -1.1874    0.6800    0.0051 C   0  0  0  0  0  0  0  0  0  0  0  0
   -2.0623    1.1739    0.0130 H   0  0  0  0  0  0  0  0  0  0  0  0
   -1.1951   -0.6946   -0.0000 C   0  0  0  0  0  0  0  0  0  0  0  0
   -2.0721   -1.1923   -0.0069 H   0  0  0  0  0  0  0  0  0  0  0  0
   -0.0013   -1.3811    0.0059 C   0  0  0  0  0  0  0  0  0  0  0  0
   -0.0035   -2.3860    0.0134 H   0  0  0  0  0  0  0  0  0  0  0  0
    1.1951   -0.6931   -0.0000 C   0  0  0  0  0  0  0  0  0  0  0  0
    2.0776   -1.1922    0.0032 H   0  0  0  0  0  0  0  0  0  0  0  0
    1.1948    0.6947   -0.0083 C   0  0  0  0  0  0  0  0  0  0  0  0
    2.0586    1.1920   -0.0192 H   0  0  0  0  0  0  0  0  0  0  0  0
  1  5  1  0
  5  8  1  0
  1  2  1  0
  1  3  1  0
  1  4  1  0
  5  6  1  0
  5  7  1  0
  8  9  1  0
  8 10  1  0
  8 11  1  0
 12 16  1  0
 16 17  2  0
 17 19  1  0
 19 21  2  0
 21 23  1  0
 23 25  2  0
 25 16  1  0
 12 13  1  0
 12 14  1  0
 12 15  1  0
 17 18  1  0
 19 20  1  0
 21 22  1  0
 23 24  1  0
 25 26  1  0
M  CHG  1   8   1
M  END
>  <PDB_ID>  (514) 
pdb1gpe

>  <RESIDUE_NAME>  (514) 
LYS   PHE

>  <FRAG_NAME>  (514) 
ETAM   MBZ

>  <FRAG_ATOM_NUM>  (514) 
fragi: 11  fragj: 15

>  <atom.prop.CHAIN_ID>  (514) 
A A A A A A A A A A A Z Z Z Z Z Z Z Z Z Z Z Z Z Z Z

>  <atom.prop.IS_HEAVY_ATOM>  (514) 
1 0 0 0 1 0 0 1 0 0 0 1 0 0 0 1 1 0 1 0 1 0 1 0 1 0

>  <DIFUSE_FUNC_ATOM>  (514) 
n/a

>  <FINAL_SINGLE_POINT_ENERGY>  (514) 
0

>  <NONCOV_INTER_ENERGY_QM>  (514) 
0

>  <FF_Energy>  (514) 
-0.08

>  <QM_Energy>  (514) 
-8.45

>  <source>  (514) 
ETAM_MBZ

>  <Index>  (514) 
4906

$$$$
ETAM-pdb1gjy-D-LYS-127:MBZ-pdb1gjy-D-PHE-112
     RDKit          3D

 26 25  0  0  0  0  0  0  0  0999 V2000
    1.5534   -3.2706    4.4954 C   0  0  0  0  0  0  0  0  0  0  0  0
    1.6849   -2.2865    4.4562 H   0  0  0  0  0  0  0  0  0  0  0  0
    2.2782   -3.7388    4.0040 H   0  0  0  0  0  0  0  0  0  0  0  0
    1.5698   -3.5879    5.5381 H   0  0  0  0  0  0  0  0  0  0  0  0
    0.2264   -3.6102    3.8430 C   0  0  0  0  0  0  0  0  0  0  0  0
    0.2389   -4.5672    3.5603 H   0  0  0  0  0  0  0  0  0  0  0  0
   -0.5077   -3.4625    4.5032 H   0  0  0  0  0  0  0  0  0  0  0  0
    0.0029   -2.7493    2.6575 N   0  0  0  0  0  4  0  0  0  0  0  0
   -0.9793   -2.6136    2.5230 H   0  0  0  0  0  0  0  0  0  0  0  0
    0.4452   -1.8628    2.7992 H   0  0  0  0  0  0  0  0  0  0  0  0
    0.3918   -3.1890    1.8473 H   0  0  0  0  0  0  0  0  0  0  0  0
   -0.0036    2.8967   -0.0461 C   0  0  0  0  0  0  0  0  0  0  0  0
    0.7321    3.2276    0.5254 H   0  0  0  0  0  0  0  0  0  0  0  0
   -0.8817    3.2174    0.2775 H   0  0  0  0  0  0  0  0  0  0  0  0
    0.1469    3.3035   -1.0461 H   0  0  0  0  0  0  0  0  0  0  0  0
   -0.0006    1.4071    0.0002 C   0  0  0  0  0  0  0  0  0  0  0  0
   -1.1972    0.6986    0.0018 C   0  0  0  0  0  0  0  0  0  0  0  0
   -2.0652    1.1834    0.0034 H   0  0  0  0  0  0  0  0  0  0  0  0
   -1.2036   -0.7055   -0.0000 C   0  0  0  0  0  0  0  0  0  0  0  0
   -2.0793   -1.1927    0.0026 H   0  0  0  0  0  0  0  0  0  0  0  0
    0.0015   -1.4012   -0.0041 C   0  0  0  0  0  0  0  0  0  0  0  0
   -0.0002   -2.3981   -0.0102 H   0  0  0  0  0  0  0  0  0  0  0  0
    1.2036   -0.6994   -0.0000 C   0  0  0  0  0  0  0  0  0  0  0  0
    2.0856   -1.1915    0.0027 H   0  0  0  0  0  0  0  0  0  0  0  0
    1.1963    0.7005    0.0020 C   0  0  0  0  0  0  0  0  0  0  0  0
    2.0647    1.1937    0.0041 H   0  0  0  0  0  0  0  0  0  0  0  0
  1  5  1  0
  5  8  1  0
  1  2  1  0
  1  3  1  0
  1  4  1  0
  5  6  1  0
  5  7  1  0
  8  9  1  0
  8 10  1  0
  8 11  1  0
 12 16  1  0
 16 17  2  0
 17 19  1  0
 19 21  2  0
 21 23  1  0
 23 25  2  0
 25 16  1  0
 12 13  1  0
 12 14  1  0
 12 15  1  0
 17 18  1  0
 19 20  1  0
 21 22  1  0
 23 24  1  0
 25 26  1  0
M  CHG  1   8   1
M  END
>  <PDB_ID>  (515) 
pdb1gjy

>  <RESIDUE_NAME>  (515) 
LYS   PHE

>  <FRAG_NAME>  (515) 
ETAM   MBZ

>  <FRAG_ATOM_NUM>  (515) 
fragi: 11  fragj: 15

>  <atom.prop.CHAIN_ID>  (515) 
A A A A A A A A A A A Z Z Z Z Z Z Z Z Z Z Z Z Z Z Z

>  <atom.prop.IS_HEAVY_ATOM>  (515) 
1 0 0 0 1 0 0 1 0 0 0 1 0 0 0 1 1 0 1 0 1 0 1 0 1 0

>  <DIFUSE_FUNC_ATOM>  (515) 
n/a

>  <FINAL_SINGLE_POINT_ENERGY>  (515) 
0

>  <NONCOV_INTER_ENERGY_QM>  (515) 
0

>  <FF_Energy>  (515) 
-1.59

>  <QM_Energy>  (515) 
-9.02

>  <source>  (515) 
ETAM_MBZ

>  <Index>  (515) 
4911

$$$$
ETAM-pdb1gq5-A-LYS-69:MBZ-pdb1gq5-A-PHE-98
     RDKit          3D

 26 25  0  0  0  0  0  0  0  0999 V2000
    2.5010   -1.3620   -4.5143 C   0  0  0  0  0  0  0  0  0  0  0  0
    1.8045   -2.0711   -4.6300 H   0  0  0  0  0  0  0  0  0  0  0  0
    3.4064   -1.7542   -4.6816 H   0  0  0  0  0  0  0  0  0  0  0  0
    2.3200   -0.5691   -5.2400 H   0  0  0  0  0  0  0  0  0  0  0  0
    2.4493   -0.8652   -3.0825 C   0  0  0  0  0  0  0  0  0  0  0  0
    3.1469   -0.1590   -2.9577 H   0  0  0  0  0  0  0  0  0  0  0  0
    1.5467   -0.4756   -2.9051 H   0  0  0  0  0  0  0  0  0  0  0  0
    2.7011   -1.9762   -2.1327 N   0  0  0  0  0  4  0  0  0  0  0  0
    2.7743   -1.6122   -1.2039 H   0  0  0  0  0  0  0  0  0  0  0  0
    1.9449   -2.6295   -2.1764 H   0  0  0  0  0  0  0  0  0  0  0  0
    3.5541   -2.4379   -2.3772 H   0  0  0  0  0  0  0  0  0  0  0  0
   -0.0184    2.9124    0.0248 C   0  0  0  0  0  0  0  0  0  0  0  0
   -0.7446    3.2203   -0.5660 H   0  0  0  0  0  0  0  0  0  0  0  0
    0.8627    3.2314   -0.2804 H   0  0  0  0  0  0  0  0  0  0  0  0
   -0.1974    3.3212    1.0193 H   0  0  0  0  0  0  0  0  0  0  0  0
   -0.0037    1.4077   -0.0010 C   0  0  0  0  0  0  0  0  0  0  0  0
   -1.1863    0.6925    0.0043 C   0  0  0  0  0  0  0  0  0  0  0  0
   -2.0617    1.1770    0.0107 H   0  0  0  0  0  0  0  0  0  0  0  0
   -1.1908   -0.6984    0.0000 C   0  0  0  0  0  0  0  0  0  0  0  0
   -2.0736   -1.1878    0.0045 H   0  0  0  0  0  0  0  0  0  0  0  0
    0.0000   -1.3993   -0.0081 C   0  0  0  0  0  0  0  0  0  0  0  0
   -0.0086   -2.3980   -0.0204 H   0  0  0  0  0  0  0  0  0  0  0  0
    1.1908   -0.7074    0.0000 C   0  0  0  0  0  0  0  0  0  0  0  0
    2.0791   -1.1926    0.0038 H   0  0  0  0  0  0  0  0  0  0  0  0
    1.1900    0.7049    0.0047 C   0  0  0  0  0  0  0  0  0  0  0  0
    2.0603    1.1876    0.0117 H   0  0  0  0  0  0  0  0  0  0  0  0
  1  5  1  0
  5  8  1  0
  1  2  1  0
  1  3  1  0
  1  4  1  0
  5  6  1  0
  5  7  1  0
  8  9  1  0
  8 10  1  0
  8 11  1  0
 12 16  1  0
 16 17  2  0
 17 19  1  0
 19 21  2  0
 21 23  1  0
 23 25  2  0
 25 16  1  0
 12 13  1  0
 12 14  1  0
 12 15  1  0
 17 18  1  0
 19 20  1  0
 21 22  1  0
 23 24  1  0
 25 26  1  0
M  CHG  1   8   1
M  END
>  <PDB_ID>  (516) 
pdb1gq5

>  <RESIDUE_NAME>  (516) 
LYS   PHE

>  <FRAG_NAME>  (516) 
ETAM   MBZ

>  <FRAG_ATOM_NUM>  (516) 
fragi: 11  fragj: 15

>  <atom.prop.CHAIN_ID>  (516) 
A A A A A A A A A A A Z Z Z Z Z Z Z Z Z Z Z Z Z Z Z

>  <atom.prop.IS_HEAVY_ATOM>  (516) 
1 0 0 0 1 0 0 1 0 0 0 1 0 0 0 1 1 0 1 0 1 0 1 0 1 0

>  <DIFUSE_FUNC_ATOM>  (516) 
n/a

>  <FINAL_SINGLE_POINT_ENERGY>  (516) 
0

>  <NONCOV_INTER_ENERGY_QM>  (516) 
0

>  <FF_Energy>  (516) 
3.3

>  <QM_Energy>  (516) 
-4.18

>  <source>  (516) 
ETAM_MBZ

>  <Index>  (516) 
4931

$$$$
ETAM-pdb1gjy-C-LYS-96:MBZ-pdb1gjy-C-PHE-92
     RDKit          3D

 26 25  0  0  0  0  0  0  0  0999 V2000
   -1.8644   -2.3581   -3.4910 C   0  0  0  0  0  0  0  0  0  0  0  0
   -2.3838   -2.5718   -4.3077 H   0  0  0  0  0  0  0  0  0  0  0  0
   -1.9264   -3.0936   -2.8301 H   0  0  0  0  0  0  0  0  0  0  0  0
   -0.8193   -2.2100   -3.7631 H   0  0  0  0  0  0  0  0  0  0  0  0
   -2.4493   -1.0924   -2.8626 C   0  0  0  0  0  0  0  0  0  0  0  0
   -2.2643   -1.1081   -1.8683 H   0  0  0  0  0  0  0  0  0  0  0  0
   -1.9728   -0.2873   -3.2489 H   0  0  0  0  0  0  0  0  0  0  0  0
   -3.9321   -0.9179   -3.0722 N   0  0  0  0  0  4  0  0  0  0  0  0
   -4.2640   -0.2108   -2.4533 H   0  0  0  0  0  0  0  0  0  0  0  0
   -4.0938   -0.6483   -4.0179 H   0  0  0  0  0  0  0  0  0  0  0  0
   -4.3887   -1.7826   -2.8800 H   0  0  0  0  0  0  0  0  0  0  0  0
   -0.0008    2.9301   -0.0777 C   0  0  0  0  0  0  0  0  0  0  0  0
    0.5829    3.2683    0.6415 H   0  0  0  0  0  0  0  0  0  0  0  0
   -0.9317    3.2366    0.0329 H   0  0  0  0  0  0  0  0  0  0  0  0
    0.3704    3.3257   -1.0232 H   0  0  0  0  0  0  0  0  0  0  0  0
    0.0001    1.4121   -0.0008 C   0  0  0  0  0  0  0  0  0  0  0  0
   -1.1996    0.6864    0.0026 C   0  0  0  0  0  0  0  0  0  0  0  0
   -2.0672    1.1768    0.0057 H   0  0  0  0  0  0  0  0  0  0  0  0
   -1.2013   -0.7040    0.0000 C   0  0  0  0  0  0  0  0  0  0  0  0
   -2.0755   -1.2005    0.0035 H   0  0  0  0  0  0  0  0  0  0  0  0
    0.0037   -1.3969   -0.0059 C   0  0  0  0  0  0  0  0  0  0  0  0
    0.0000   -2.3966   -0.0148 H   0  0  0  0  0  0  0  0  0  0  0  0
    1.2013   -0.7014   -0.0000 C   0  0  0  0  0  0  0  0  0  0  0  0
    2.0853   -1.1900    0.0028 H   0  0  0  0  0  0  0  0  0  0  0  0
    1.1959    0.7038    0.0041 C   0  0  0  0  0  0  0  0  0  0  0  0
    2.0658    1.1938    0.0099 H   0  0  0  0  0  0  0  0  0  0  0  0
  1  5  1  0
  5  8  1  0
  1  2  1  0
  1  3  1  0
  1  4  1  0
  5  6  1  0
  5  7  1  0
  8  9  1  0
  8 10  1  0
  8 11  1  0
 12 16  1  0
 16 17  2  0
 17 19  1  0
 19 21  2  0
 21 23  1  0
 23 25  2  0
 25 16  1  0
 12 13  1  0
 12 14  1  0
 12 15  1  0
 17 18  1  0
 19 20  1  0
 21 22  1  0
 23 24  1  0
 25 26  1  0
M  CHG  1   8   1
M  END
>  <PDB_ID>  (517) 
pdb1gjy

>  <RESIDUE_NAME>  (517) 
LYS   PHE

>  <FRAG_NAME>  (517) 
ETAM   MBZ

>  <FRAG_ATOM_NUM>  (517) 
fragi: 11  fragj: 15

>  <atom.prop.CHAIN_ID>  (517) 
A A A A A A A A A A A Z Z Z Z Z Z Z Z Z Z Z Z Z Z Z

>  <atom.prop.IS_HEAVY_ATOM>  (517) 
1 0 0 0 1 0 0 1 0 0 0 1 0 0 0 1 1 0 1 0 1 0 1 0 1 0

>  <DIFUSE_FUNC_ATOM>  (517) 
n/a

>  <FINAL_SINGLE_POINT_ENERGY>  (517) 
0

>  <NONCOV_INTER_ENERGY_QM>  (517) 
0

>  <FF_Energy>  (517) 
6.53

>  <QM_Energy>  (517) 
-3.24

>  <source>  (517) 
ETAM_MBZ

>  <Index>  (517) 
4938

$$$$
ETAM-pdb1gpu-B-LYS-322:MBZ-pdb1gpu-B-PHE-144
     RDKit          3D

 26 25  0  0  0  0  0  0  0  0999 V2000
    3.1839   -3.8543    1.8699 C   0  0  0  0  0  0  0  0  0  0  0  0
    3.6335   -4.3101    2.6280 H   0  0  0  0  0  0  0  0  0  0  0  0
    3.2946   -4.3716    1.0305 H   0  0  0  0  0  0  0  0  0  0  0  0
    2.1211   -3.7588    2.0923 H   0  0  0  0  0  0  0  0  0  0  0  0
    3.8220   -2.4843    1.6816 C   0  0  0  0  0  0  0  0  0  0  0  0
    3.4118   -2.0448    0.8774 H   0  0  0  0  0  0  0  0  0  0  0  0
    3.6268   -1.9230    2.4914 H   0  0  0  0  0  0  0  0  0  0  0  0
    5.2917   -2.5790    1.4932 N   0  0  0  0  0  4  0  0  0  0  0  0
    5.4917   -2.8108    0.5407 H   0  0  0  0  0  0  0  0  0  0  0  0
    5.7137   -1.7009    1.7175 H   0  0  0  0  0  0  0  0  0  0  0  0
    5.6595   -3.2891    2.0934 H   0  0  0  0  0  0  0  0  0  0  0  0
    0.0026    2.9190   -0.0036 C   0  0  0  0  0  0  0  0  0  0  0  0
    0.8955    3.2223    0.2927 H   0  0  0  0  0  0  0  0  0  0  0  0
   -0.7065    3.2288    0.6110 H   0  0  0  0  0  0  0  0  0  0  0  0
   -0.1900    3.3615   -0.9810 H   0  0  0  0  0  0  0  0  0  0  0  0
   -0.0027    1.4109    0.0006 C   0  0  0  0  0  0  0  0  0  0  0  0
   -1.1988    0.7001   -0.0000 C   0  0  0  0  0  0  0  0  0  0  0  0
   -2.0676    1.1832   -0.0014 H   0  0  0  0  0  0  0  0  0  0  0  0
   -1.2041   -0.7044    0.0000 C   0  0  0  0  0  0  0  0  0  0  0  0
   -2.0776   -1.1945    0.0020 H   0  0  0  0  0  0  0  0  0  0  0  0
    0.0056   -1.4044   -0.0009 C   0  0  0  0  0  0  0  0  0  0  0  0
   -0.0001   -2.4002   -0.0029 H   0  0  0  0  0  0  0  0  0  0  0  0
    1.2041   -0.7027   -0.0000 C   0  0  0  0  0  0  0  0  0  0  0  0
    2.0883   -1.1912    0.0019 H   0  0  0  0  0  0  0  0  0  0  0  0
    1.1959    0.7005    0.0003 C   0  0  0  0  0  0  0  0  0  0  0  0
    2.0651    1.1930   -0.0005 H   0  0  0  0  0  0  0  0  0  0  0  0
  1  5  1  0
  5  8  1  0
  1  2  1  0
  1  3  1  0
  1  4  1  0
  5  6  1  0
  5  7  1  0
  8  9  1  0
  8 10  1  0
  8 11  1  0
 12 16  1  0
 16 17  2  0
 17 19  1  0
 19 21  2  0
 21 23  1  0
 23 25  2  0
 25 16  1  0
 12 13  1  0
 12 14  1  0
 12 15  1  0
 17 18  1  0
 19 20  1  0
 21 22  1  0
 23 24  1  0
 25 26  1  0
M  CHG  1   8   1
M  END
>  <PDB_ID>  (518) 
pdb1gpu

>  <RESIDUE_NAME>  (518) 
LYS   PHE

>  <FRAG_NAME>  (518) 
ETAM   MBZ

>  <FRAG_ATOM_NUM>  (518) 
fragi: 11  fragj: 15

>  <atom.prop.CHAIN_ID>  (518) 
A A A A A A A A A A A Z Z Z Z Z Z Z Z Z Z Z Z Z Z Z

>  <atom.prop.IS_HEAVY_ATOM>  (518) 
1 0 0 0 1 0 0 1 0 0 0 1 0 0 0 1 1 0 1 0 1 0 1 0 1 0

>  <DIFUSE_FUNC_ATOM>  (518) 
n/a

>  <FINAL_SINGLE_POINT_ENERGY>  (518) 
0

>  <NONCOV_INTER_ENERGY_QM>  (518) 
0

>  <FF_Energy>  (518) 
3.71

>  <QM_Energy>  (518) 
-1.36

>  <source>  (518) 
ETAM_MBZ

>  <Index>  (518) 
4940

$$$$
ETAM-pdb1gqa-D-LYS-51:MBZ-pdb1gqa-D-PHE-91
     RDKit          3D

 26 25  0  0  0  0  0  0  0  0999 V2000
    2.7562   -4.3953   -0.4112 C   0  0  0  0  0  0  0  0  0  0  0  0
    2.4409   -5.2815   -0.1302 H   0  0  0  0  0  0  0  0  0  0  0  0
    2.8162   -3.7623    0.3377 H   0  0  0  0  0  0  0  0  0  0  0  0
    3.7269   -4.4858   -0.8986 H   0  0  0  0  0  0  0  0  0  0  0  0
    1.7628   -3.8352   -1.4320 C   0  0  0  0  0  0  0  0  0  0  0  0
    1.6353   -2.8478   -1.2517 H   0  0  0  0  0  0  0  0  0  0  0  0
    2.1610   -3.9286   -2.3567 H   0  0  0  0  0  0  0  0  0  0  0  0
    0.4194   -4.5063   -1.4157 N   0  0  0  0  0  4  0  0  0  0  0  0
   -0.2839   -3.8204   -1.2446 H   0  0  0  0  0  0  0  0  0  0  0  0
    0.2634   -4.9411   -2.2995 H   0  0  0  0  0  0  0  0  0  0  0  0
    0.4084   -5.1929   -0.6919 H   0  0  0  0  0  0  0  0  0  0  0  0
   -0.0098    2.9214   -0.0087 C   0  0  0  0  0  0  0  0  0  0  0  0
    0.7692    3.2310    0.5089 H   0  0  0  0  0  0  0  0  0  0  0  0
   -0.8587    3.2322    0.3841 H   0  0  0  0  0  0  0  0  0  0  0  0
    0.0671    3.3528   -1.0067 H   0  0  0  0  0  0  0  0  0  0  0  0
   -0.0113    1.4122   -0.0005 C   0  0  0  0  0  0  0  0  0  0  0  0
   -1.2221    0.6988    0.0112 C   0  0  0  0  0  0  0  0  0  0  0  0
   -2.0818    1.1863    0.0258 H   0  0  0  0  0  0  0  0  0  0  0  0
   -1.2164   -0.6990    0.0000 C   0  0  0  0  0  0  0  0  0  0  0  0
   -2.0715   -1.2091   -0.0016 H   0  0  0  0  0  0  0  0  0  0  0  0
    0.0267   -1.3923   -0.0076 C   0  0  0  0  0  0  0  0  0  0  0  0
    0.0036   -2.3968   -0.0198 H   0  0  0  0  0  0  0  0  0  0  0  0
    1.2164   -0.7117   -0.0000 C   0  0  0  0  0  0  0  0  0  0  0  0
    2.1012   -1.1969    0.0091 H   0  0  0  0  0  0  0  0  0  0  0  0
    1.2067    0.6918   -0.0031 C   0  0  0  0  0  0  0  0  0  0  0  0
    2.0668    1.1925   -0.0079 H   0  0  0  0  0  0  0  0  0  0  0  0
  1  5  1  0
  5  8  1  0
  1  2  1  0
  1  3  1  0
  1  4  1  0
  5  6  1  0
  5  7  1  0
  8  9  1  0
  8 10  1  0
  8 11  1  0
 12 16  1  0
 16 17  2  0
 17 19  1  0
 19 21  2  0
 21 23  1  0
 23 25  2  0
 25 16  1  0
 12 13  1  0
 12 14  1  0
 12 15  1  0
 17 18  1  0
 19 20  1  0
 21 22  1  0
 23 24  1  0
 25 26  1  0
M  CHG  1   8   1
M  END
>  <PDB_ID>  (519) 
pdb1gqa

>  <RESIDUE_NAME>  (519) 
LYS   PHE

>  <FRAG_NAME>  (519) 
ETAM   MBZ

>  <FRAG_ATOM_NUM>  (519) 
fragi: 11  fragj: 15

>  <atom.prop.CHAIN_ID>  (519) 
A A A A A A A A A A A Z Z Z Z Z Z Z Z Z Z Z Z Z Z Z

>  <atom.prop.IS_HEAVY_ATOM>  (519) 
1 0 0 0 1 0 0 1 0 0 0 1 0 0 0 1 1 0 1 0 1 0 1 0 1 0

>  <DIFUSE_FUNC_ATOM>  (519) 
n/a

>  <FINAL_SINGLE_POINT_ENERGY>  (519) 
0

>  <NONCOV_INTER_ENERGY_QM>  (519) 
0

>  <FF_Energy>  (519) 
4.28

>  <QM_Energy>  (519) 
-4.3

>  <source>  (519) 
ETAM_MBZ

>  <Index>  (519) 
4944

$$$$
ETAM-pdb2hke-A-LYS-233:MBZ-pdb2hke-A-PHE-174
     RDKit          3D

 26 25  0  0  0  0  0  0  0  0999 V2000
    0.0194   -4.0133    2.6637 C   0  0  0  0  0  0  0  0  0  0  0  0
   -0.4841   -4.3251    1.8715 H   0  0  0  0  0  0  0  0  0  0  0  0
    0.0211   -4.6945    3.3808 H   0  0  0  0  0  0  0  0  0  0  0  0
    1.0423   -3.7630    2.3822 H   0  0  0  0  0  0  0  0  0  0  0  0
   -0.7272   -2.7541    3.2218 C   0  0  0  0  0  0  0  0  0  0  0  0
   -0.5774   -2.7142    4.2137 H   0  0  0  0  0  0  0  0  0  0  0  0
   -0.3237   -1.9374    2.8003 H   0  0  0  0  0  0  0  0  0  0  0  0
   -2.2299   -2.7541    2.9516 N   0  0  0  0  0  4  0  0  0  0  0  0
   -2.3724   -2.5944    1.9817 H   0  0  0  0  0  0  0  0  0  0  0  0
   -2.5947   -3.6390    3.2176 H   0  0  0  0  0  0  0  0  0  0  0  0
   -2.6442   -2.0295    3.4893 H   0  0  0  0  0  0  0  0  0  0  0  0
    0.0114    2.8877   -0.0038 C   0  0  0  0  0  0  0  0  0  0  0  0
   -0.5723    3.1919   -0.7460 H   0  0  0  0  0  0  0  0  0  0  0  0
    0.9481    3.1813   -0.1505 H   0  0  0  0  0  0  0  0  0  0  0  0
   -0.3475    3.3429    0.9193 H   0  0  0  0  0  0  0  0  0  0  0  0
   -0.0035    1.3922    0.0083 C   0  0  0  0  0  0  0  0  0  0  0  0
   -1.1907    0.6786   -0.0177 C   0  0  0  0  0  0  0  0  0  0  0  0
   -2.0623    1.1650   -0.0516 H   0  0  0  0  0  0  0  0  0  0  0  0
   -1.1957   -0.7129    0.0000 C   0  0  0  0  0  0  0  0  0  0  0  0
   -2.0648   -1.2073    0.0109 H   0  0  0  0  0  0  0  0  0  0  0  0
    0.0095   -1.3812    0.0034 C   0  0  0  0  0  0  0  0  0  0  0  0
    0.0226   -2.3855    0.0077 H   0  0  0  0  0  0  0  0  0  0  0  0
    1.1957   -0.6745   -0.0000 C   0  0  0  0  0  0  0  0  0  0  0  0
    2.0842   -1.1730   -0.0057 H   0  0  0  0  0  0  0  0  0  0  0  0
    1.1848    0.6979    0.0060 C   0  0  0  0  0  0  0  0  0  0  0  0
    2.0535    1.2034    0.0080 H   0  0  0  0  0  0  0  0  0  0  0  0
  1  5  1  0
  5  8  1  0
  1  2  1  0
  1  3  1  0
  1  4  1  0
  5  6  1  0
  5  7  1  0
  8  9  1  0
  8 10  1  0
  8 11  1  0
 12 16  1  0
 16 17  2  0
 17 19  1  0
 19 21  2  0
 21 23  1  0
 23 25  2  0
 25 16  1  0
 12 13  1  0
 12 14  1  0
 12 15  1  0
 17 18  1  0
 19 20  1  0
 21 22  1  0
 23 24  1  0
 25 26  1  0
M  CHG  1   8   1
M  END
>  <PDB_ID>  (520) 
pdb2hke

>  <RESIDUE_NAME>  (520) 
LYS   PHE

>  <FRAG_NAME>  (520) 
ETAM   MBZ

>  <FRAG_ATOM_NUM>  (520) 
fragi: 11  fragj: 15

>  <atom.prop.CHAIN_ID>  (520) 
A A A A A A A A A A A Z Z Z Z Z Z Z Z Z Z Z Z Z Z Z

>  <atom.prop.IS_HEAVY_ATOM>  (520) 
1 0 0 0 1 0 0 1 0 0 0 1 0 0 0 1 1 0 1 0 1 0 1 0 1 0

>  <DIFUSE_FUNC_ATOM>  (520) 
n/a

>  <FINAL_SINGLE_POINT_ENERGY>  (520) 
0

>  <NONCOV_INTER_ENERGY_QM>  (520) 
0

>  <FF_Energy>  (520) 
-2.48

>  <QM_Energy>  (520) 
-7.67

>  <source>  (520) 
ETAM_MBZ

>  <Index>  (520) 
4950

$$$$
ETAM-pdb1gqy-A-LYS-474:MBZ-pdb1gqy-A-PHE-333
     RDKit          3D

 26 25  0  0  0  0  0  0  0  0999 V2000
   -4.3209   -3.7898   -1.2921 C   0  0  0  0  0  0  0  0  0  0  0  0
   -4.8751   -4.5991   -1.1207 H   0  0  0  0  0  0  0  0  0  0  0  0
   -3.9298   -3.8265   -2.2060 H   0  0  0  0  0  0  0  0  0  0  0  0
   -4.9484   -2.9027   -1.2062 H   0  0  0  0  0  0  0  0  0  0  0  0
   -3.1696   -3.7741   -0.2791 C   0  0  0  0  0  0  0  0  0  0  0  0
   -2.6799   -2.9082   -0.3631 H   0  0  0  0  0  0  0  0  0  0  0  0
   -3.5497   -3.8583    0.6404 H   0  0  0  0  0  0  0  0  0  0  0  0
   -2.2227   -4.9038   -0.5276 N   0  0  0  0  0  4  0  0  0  0  0  0
   -2.4133   -5.6407    0.1196 H   0  0  0  0  0  0  0  0  0  0  0  0
   -2.3447   -5.2353   -1.4619 H   0  0  0  0  0  0  0  0  0  0  0  0
   -1.2861   -4.5808   -0.4035 H   0  0  0  0  0  0  0  0  0  0  0  0
    0.0375    2.9107   -0.0138 C   0  0  0  0  0  0  0  0  0  0  0  0
    0.8337    3.2088    0.4790 H   0  0  0  0  0  0  0  0  0  0  0  0
   -0.7968    3.2395    0.3900 H   0  0  0  0  0  0  0  0  0  0  0  0
    0.1004    3.3120   -1.0252 H   0  0  0  0  0  0  0  0  0  0  0  0
    0.0086    1.4118    0.0045 C   0  0  0  0  0  0  0  0  0  0  0  0
   -1.2214    0.7148   -0.0026 C   0  0  0  0  0  0  0  0  0  0  0  0
   -2.0707    1.2043   -0.0107 H   0  0  0  0  0  0  0  0  0  0  0  0
   -1.2265   -0.7015   -0.0000 C   0  0  0  0  0  0  0  0  0  0  0  0
   -2.0926   -1.1935    0.0026 H   0  0  0  0  0  0  0  0  0  0  0  0
    0.0028   -1.4123    0.0007 C   0  0  0  0  0  0  0  0  0  0  0  0
   -0.0011   -2.4004    0.0005 H   0  0  0  0  0  0  0  0  0  0  0  0
    1.2265   -0.6989    0.0000 C   0  0  0  0  0  0  0  0  0  0  0  0
    2.0973   -1.2030    0.0027 H   0  0  0  0  0  0  0  0  0  0  0  0
    1.2100    0.6861   -0.0026 C   0  0  0  0  0  0  0  0  0  0  0  0
    2.0789    1.1930   -0.0109 H   0  0  0  0  0  0  0  0  0  0  0  0
  1  5  1  0
  5  8  1  0
  1  2  1  0
  1  3  1  0
  1  4  1  0
  5  6  1  0
  5  7  1  0
  8  9  1  0
  8 10  1  0
  8 11  1  0
 12 16  1  0
 16 17  2  0
 17 19  1  0
 19 21  2  0
 21 23  1  0
 23 25  2  0
 25 16  1  0
 12 13  1  0
 12 14  1  0
 12 15  1  0
 17 18  1  0
 19 20  1  0
 21 22  1  0
 23 24  1  0
 25 26  1  0
M  CHG  1   8   1
M  END
>  <PDB_ID>  (521) 
pdb1gqy

>  <RESIDUE_NAME>  (521) 
LYS   PHE

>  <FRAG_NAME>  (521) 
ETAM   MBZ

>  <FRAG_ATOM_NUM>  (521) 
fragi: 11  fragj: 15

>  <atom.prop.CHAIN_ID>  (521) 
A A A A A A A A A A A Z Z Z Z Z Z Z Z Z Z Z Z Z Z Z

>  <atom.prop.IS_HEAVY_ATOM>  (521) 
1 0 0 0 1 0 0 1 0 0 0 1 0 0 0 1 1 0 1 0 1 0 1 0 1 0

>  <DIFUSE_FUNC_ATOM>  (521) 
n/a

>  <FINAL_SINGLE_POINT_ENERGY>  (521) 
0

>  <NONCOV_INTER_ENERGY_QM>  (521) 
0

>  <FF_Energy>  (521) 
3.51

>  <QM_Energy>  (521) 
-2.14

>  <source>  (521) 
ETAM_MBZ

>  <Index>  (521) 
4955

$$$$
ETAM-pdb2hgs-A-LYS-108:MBZ-pdb2hgs-A-PHE-104
     RDKit          3D

 26 25  0  0  0  0  0  0  0  0999 V2000
    0.8107   -2.9690    3.7487 C   0  0  0  0  0  0  0  0  0  0  0  0
    0.9653   -3.3911    4.6343 H   0  0  0  0  0  0  0  0  0  0  0  0
   -0.0597   -2.4930    3.7346 H   0  0  0  0  0  0  0  0  0  0  0  0
    1.6113   -2.2569    3.5487 H   0  0  0  0  0  0  0  0  0  0  0  0
    0.7743   -4.0711    2.6895 C   0  0  0  0  0  0  0  0  0  0  0  0
    1.3926   -3.8309    1.9488 H   0  0  0  0  0  0  0  0  0  0  0  0
    1.0507   -4.9312    3.1053 H   0  0  0  0  0  0  0  0  0  0  0  0
   -0.6177   -4.2184    2.1375 N   0  0  0  0  0  4  0  0  0  0  0  0
   -0.7405   -5.1540    1.8158 H   0  0  0  0  0  0  0  0  0  0  0  0
   -1.2752   -4.0161    2.8599 H   0  0  0  0  0  0  0  0  0  0  0  0
   -0.7347   -3.5802    1.3815 H   0  0  0  0  0  0  0  0  0  0  0  0
    0.0306    2.8832    0.0251 C   0  0  0  0  0  0  0  0  0  0  0  0
   -0.6574    3.2150   -0.5605 H   0  0  0  0  0  0  0  0  0  0  0  0
    0.9279    3.1713   -0.1697 H   0  0  0  0  0  0  0  0  0  0  0  0
   -0.2103    3.2047    1.0383 H   0  0  0  0  0  0  0  0  0  0  0  0
   -0.0055    1.3754    0.0012 C   0  0  0  0  0  0  0  0  0  0  0  0
   -1.2043    0.6955   -0.0141 C   0  0  0  0  0  0  0  0  0  0  0  0
   -2.0644    1.1845   -0.0367 H   0  0  0  0  0  0  0  0  0  0  0  0
   -1.2066   -0.6948   -0.0000 C   0  0  0  0  0  0  0  0  0  0  0  0
   -2.0742   -1.1918    0.0096 H   0  0  0  0  0  0  0  0  0  0  0  0
    0.0012   -1.3621    0.0018 C   0  0  0  0  0  0  0  0  0  0  0  0
   -0.0049   -2.3810    0.0045 H   0  0  0  0  0  0  0  0  0  0  0  0
    1.2066   -0.6972    0.0000 C   0  0  0  0  0  0  0  0  0  0  0  0
    2.0789   -1.2040   -0.0076 H   0  0  0  0  0  0  0  0  0  0  0  0
    1.2086    0.6832    0.0110 C   0  0  0  0  0  0  0  0  0  0  0  0
    2.0623    1.1874    0.0248 H   0  0  0  0  0  0  0  0  0  0  0  0
  1  5  1  0
  5  8  1  0
  1  2  1  0
  1  3  1  0
  1  4  1  0
  5  6  1  0
  5  7  1  0
  8  9  1  0
  8 10  1  0
  8 11  1  0
 12 16  1  0
 16 17  2  0
 17 19  1  0
 19 21  2  0
 21 23  1  0
 23 25  2  0
 25 16  1  0
 12 13  1  0
 12 14  1  0
 12 15  1  0
 17 18  1  0
 19 20  1  0
 21 22  1  0
 23 24  1  0
 25 26  1  0
M  CHG  1   8   1
M  END
>  <PDB_ID>  (522) 
pdb2hgs

>  <RESIDUE_NAME>  (522) 
LYS   PHE

>  <FRAG_NAME>  (522) 
ETAM   MBZ

>  <FRAG_ATOM_NUM>  (522) 
fragi: 11  fragj: 15

>  <atom.prop.CHAIN_ID>  (522) 
A A A A A A A A A A A Z Z Z Z Z Z Z Z Z Z Z Z Z Z Z

>  <atom.prop.IS_HEAVY_ATOM>  (522) 
1 0 0 0 1 0 0 1 0 0 0 1 0 0 0 1 1 0 1 0 1 0 1 0 1 0

>  <DIFUSE_FUNC_ATOM>  (522) 
n/a

>  <FINAL_SINGLE_POINT_ENERGY>  (522) 
0

>  <NONCOV_INTER_ENERGY_QM>  (522) 
0

>  <FF_Energy>  (522) 
-0.41

>  <QM_Energy>  (522) 
-6.52

>  <source>  (522) 
ETAM_MBZ

>  <Index>  (522) 
4959

$$$$
ETAM-pdb1gtr-A-LYS-159:MBZ-pdb1gtr-A-PHE-165
     RDKit          3D

 26 25  0  0  0  0  0  0  0  0999 V2000
    1.7223   -1.4401   -3.5296 C   0  0  0  0  0  0  0  0  0  0  0  0
    1.9459   -2.1777   -4.1583 H   0  0  0  0  0  0  0  0  0  0  0  0
    1.8231   -1.7455   -2.5880 H   0  0  0  0  0  0  0  0  0  0  0  0
    2.3945   -0.6011   -3.7091 H   0  0  0  0  0  0  0  0  0  0  0  0
    0.2894   -1.0311   -3.7538 C   0  0  0  0  0  0  0  0  0  0  0  0
    0.1108   -0.1936   -3.2510 H   0  0  0  0  0  0  0  0  0  0  0  0
    0.1414   -0.8928   -4.7264 H   0  0  0  0  0  0  0  0  0  0  0  0
   -0.5611   -2.1023   -3.2638 N   0  0  0  0  0  4  0  0  0  0  0  0
   -0.2516   -2.9874   -3.6259 H   0  0  0  0  0  0  0  0  0  0  0  0
   -0.5322   -2.1393   -2.2591 H   0  0  0  0  0  0  0  0  0  0  0  0
   -1.5132   -1.9530   -3.5528 H   0  0  0  0  0  0  0  0  0  0  0  0
    0.0137    2.8893    0.0601 C   0  0  0  0  0  0  0  0  0  0  0  0
    0.9677    3.1706    0.1943 H   0  0  0  0  0  0  0  0  0  0  0  0
   -0.5195    3.1564    0.8679 H   0  0  0  0  0  0  0  0  0  0  0  0
   -0.3823    3.4246   -0.8029 H   0  0  0  0  0  0  0  0  0  0  0  0
    0.0013    1.3755    0.0008 C   0  0  0  0  0  0  0  0  0  0  0  0
   -1.1955    0.6930   -0.0004 C   0  0  0  0  0  0  0  0  0  0  0  0
   -2.0555    1.1849   -0.0023 H   0  0  0  0  0  0  0  0  0  0  0  0
   -1.1903   -0.6847   -0.0000 C   0  0  0  0  0  0  0  0  0  0  0  0
   -2.0724   -1.1849    0.0004 H   0  0  0  0  0  0  0  0  0  0  0  0
   -0.0005   -1.3792    0.0013 C   0  0  0  0  0  0  0  0  0  0  0  0
   -0.0080   -2.3808    0.0027 H   0  0  0  0  0  0  0  0  0  0  0  0
    1.1903   -0.6908    0.0000 C   0  0  0  0  0  0  0  0  0  0  0  0
    2.0751   -1.1953    0.0015 H   0  0  0  0  0  0  0  0  0  0  0  0
    1.1947    0.6861   -0.0017 C   0  0  0  0  0  0  0  0  0  0  0  0
    2.0588    1.1839   -0.0057 H   0  0  0  0  0  0  0  0  0  0  0  0
  1  5  1  0
  5  8  1  0
  1  2  1  0
  1  3  1  0
  1  4  1  0
  5  6  1  0
  5  7  1  0
  8  9  1  0
  8 10  1  0
  8 11  1  0
 12 16  1  0
 16 17  2  0
 17 19  1  0
 19 21  2  0
 21 23  1  0
 23 25  2  0
 25 16  1  0
 12 13  1  0
 12 14  1  0
 12 15  1  0
 17 18  1  0
 19 20  1  0
 21 22  1  0
 23 24  1  0
 25 26  1  0
M  CHG  1   8   1
M  END
>  <PDB_ID>  (523) 
pdb1gtr

>  <RESIDUE_NAME>  (523) 
LYS   PHE

>  <FRAG_NAME>  (523) 
ETAM   MBZ

>  <FRAG_ATOM_NUM>  (523) 
fragi: 11  fragj: 15

>  <atom.prop.CHAIN_ID>  (523) 
A A A A A A A A A A A Z Z Z Z Z Z Z Z Z Z Z Z Z Z Z

>  <atom.prop.IS_HEAVY_ATOM>  (523) 
1 0 0 0 1 0 0 1 0 0 0 1 0 0 0 1 1 0 1 0 1 0 1 0 1 0

>  <DIFUSE_FUNC_ATOM>  (523) 
n/a

>  <FINAL_SINGLE_POINT_ENERGY>  (523) 
0

>  <NONCOV_INTER_ENERGY_QM>  (523) 
0

>  <FF_Energy>  (523) 
-5.71

>  <QM_Energy>  (523) 
-13.1

>  <source>  (523) 
ETAM_MBZ

>  <Index>  (523) 
4978

$$$$
ETAM-pdb2hqe-A-LYS-823:MBZ-pdb2hqe-A-PHE-819
     RDKit          3D

 26 25  0  0  0  0  0  0  0  0999 V2000
    0.9962    0.8574    4.2178 C   0  0  0  0  0  0  0  0  0  0  0  0
    1.3072   -0.0666    4.4176 H   0  0  0  0  0  0  0  0  0  0  0  0
    0.8149    1.3505    5.0629 H   0  0  0  0  0  0  0  0  0  0  0  0
    1.7852    1.3777    3.6748 H   0  0  0  0  0  0  0  0  0  0  0  0
   -0.3059    0.7711    3.4148 C   0  0  0  0  0  0  0  0  0  0  0  0
   -0.8002    1.6420    3.5077 H   0  0  0  0  0  0  0  0  0  0  0  0
   -0.0783    0.6347    2.4440 H   0  0  0  0  0  0  0  0  0  0  0  0
   -1.1987   -0.3464    3.8674 N   0  0  0  0  0  4  0  0  0  0  0  0
   -0.6505   -1.0267    4.3490 H   0  0  0  0  0  0  0  0  0  0  0  0
   -1.8965    0.0214    4.4781 H   0  0  0  0  0  0  0  0  0  0  0  0
   -1.6311   -0.7621    3.0700 H   0  0  0  0  0  0  0  0  0  0  0  0
    0.0189    2.9144    0.0286 C   0  0  0  0  0  0  0  0  0  0  0  0
    0.9509    3.2054    0.1984 H   0  0  0  0  0  0  0  0  0  0  0  0
   -0.5820    3.2081    0.7602 H   0  0  0  0  0  0  0  0  0  0  0  0
   -0.3172    3.3947   -0.8904 H   0  0  0  0  0  0  0  0  0  0  0  0
    0.0042    1.4034   -0.0035 C   0  0  0  0  0  0  0  0  0  0  0  0
   -1.1975    0.6981   -0.0008 C   0  0  0  0  0  0  0  0  0  0  0  0
   -2.0611    1.1869   -0.0003 H   0  0  0  0  0  0  0  0  0  0  0  0
   -1.2012   -0.6984   -0.0000 C   0  0  0  0  0  0  0  0  0  0  0  0
   -2.0786   -1.1900    0.0036 H   0  0  0  0  0  0  0  0  0  0  0  0
    0.0002   -1.3948   -0.0027 C   0  0  0  0  0  0  0  0  0  0  0  0
   -0.0044   -2.3936   -0.0074 H   0  0  0  0  0  0  0  0  0  0  0  0
    1.2012   -0.6992    0.0000 C   0  0  0  0  0  0  0  0  0  0  0  0
    2.0820   -1.1957   -0.0014 H   0  0  0  0  0  0  0  0  0  0  0  0
    1.1932    0.6910    0.0069 C   0  0  0  0  0  0  0  0  0  0  0  0
    2.0661    1.1870    0.0188 H   0  0  0  0  0  0  0  0  0  0  0  0
  1  5  1  0
  5  8  1  0
  1  2  1  0
  1  3  1  0
  1  4  1  0
  5  6  1  0
  5  7  1  0
  8  9  1  0
  8 10  1  0
  8 11  1  0
 12 16  1  0
 16 17  2  0
 17 19  1  0
 19 21  2  0
 21 23  1  0
 23 25  2  0
 25 16  1  0
 12 13  1  0
 12 14  1  0
 12 15  1  0
 17 18  1  0
 19 20  1  0
 21 22  1  0
 23 24  1  0
 25 26  1  0
M  CHG  1   8   1
M  END
>  <PDB_ID>  (524) 
pdb2hqe

>  <RESIDUE_NAME>  (524) 
LYS   PHE

>  <FRAG_NAME>  (524) 
ETAM   MBZ

>  <FRAG_ATOM_NUM>  (524) 
fragi: 11  fragj: 15

>  <atom.prop.CHAIN_ID>  (524) 
A A A A A A A A A A A Z Z Z Z Z Z Z Z Z Z Z Z Z Z Z

>  <atom.prop.IS_HEAVY_ATOM>  (524) 
1 0 0 0 1 0 0 1 0 0 0 1 0 0 0 1 1 0 1 0 1 0 1 0 1 0

>  <DIFUSE_FUNC_ATOM>  (524) 
n/a

>  <FINAL_SINGLE_POINT_ENERGY>  (524) 
0

>  <NONCOV_INTER_ENERGY_QM>  (524) 
0

>  <FF_Energy>  (524) 
-5.56

>  <QM_Energy>  (524) 
-11.44

>  <source>  (524) 
ETAM_MBZ

>  <Index>  (524) 
5024

$$$$
ETAM-pdb1gv9-A-LYS-205:MBZ-pdb1gv9-A-PHE-228
     RDKit          3D

 26 25  0  0  0  0  0  0  0  0999 V2000
    0.0925   -2.1415   -3.4074 C   0  0  0  0  0  0  0  0  0  0  0  0
    0.1200   -1.2774   -2.9028 H   0  0  0  0  0  0  0  0  0  0  0  0
   -0.8087   -2.5622   -3.2988 H   0  0  0  0  0  0  0  0  0  0  0  0
    0.2415   -1.9223   -4.4646 H   0  0  0  0  0  0  0  0  0  0  0  0
    1.1390   -3.0705   -2.8512 C   0  0  0  0  0  0  0  0  0  0  0  0
    0.7872   -3.5029   -2.0111 H   0  0  0  0  0  0  0  0  0  0  0  0
    1.3273   -3.7993   -3.5222 H   0  0  0  0  0  0  0  0  0  0  0  0
    2.4185   -2.3730   -2.5308 N   0  0  0  0  0  4  0  0  0  0  0  0
    3.1689   -3.0321   -2.5558 H   0  0  0  0  0  0  0  0  0  0  0  0
    2.5799   -1.6540   -3.2055 H   0  0  0  0  0  0  0  0  0  0  0  0
    2.3548   -1.9700   -1.6188 H   0  0  0  0  0  0  0  0  0  0  0  0
   -0.0234    2.8919    0.0091 C   0  0  0  0  0  0  0  0  0  0  0  0
    0.9051    3.2090    0.1268 H   0  0  0  0  0  0  0  0  0  0  0  0
   -0.6033    3.1867    0.7519 H   0  0  0  0  0  0  0  0  0  0  0  0
   -0.4130    3.3197   -0.9147 H   0  0  0  0  0  0  0  0  0  0  0  0
   -0.0031    1.3919    0.0059 C   0  0  0  0  0  0  0  0  0  0  0  0
   -1.1836    0.6877   -0.0038 C   0  0  0  0  0  0  0  0  0  0  0  0
   -2.0570    1.1737   -0.0152 H   0  0  0  0  0  0  0  0  0  0  0  0
   -1.1836   -0.6940    0.0000 C   0  0  0  0  0  0  0  0  0  0  0  0
   -2.0662   -1.1875    0.0066 H   0  0  0  0  0  0  0  0  0  0  0  0
    0.0009   -1.3777   -0.0037 C   0  0  0  0  0  0  0  0  0  0  0  0
   -0.0032   -2.3842   -0.0094 H   0  0  0  0  0  0  0  0  0  0  0  0
    1.1836   -0.6938   -0.0000 C   0  0  0  0  0  0  0  0  0  0  0  0
    2.0719   -1.1933    0.0028 H   0  0  0  0  0  0  0  0  0  0  0  0
    1.1858    0.6860    0.0016 C   0  0  0  0  0  0  0  0  0  0  0  0
    2.0562    1.1815   -0.0014 H   0  0  0  0  0  0  0  0  0  0  0  0
  1  5  1  0
  5  8  1  0
  1  2  1  0
  1  3  1  0
  1  4  1  0
  5  6  1  0
  5  7  1  0
  8  9  1  0
  8 10  1  0
  8 11  1  0
 12 16  1  0
 16 17  2  0
 17 19  1  0
 19 21  2  0
 21 23  1  0
 23 25  2  0
 25 16  1  0
 12 13  1  0
 12 14  1  0
 12 15  1  0
 17 18  1  0
 19 20  1  0
 21 22  1  0
 23 24  1  0
 25 26  1  0
M  CHG  1   8   1
M  END
>  <PDB_ID>  (525) 
pdb1gv9

>  <RESIDUE_NAME>  (525) 
LYS   PHE

>  <FRAG_NAME>  (525) 
ETAM   MBZ

>  <FRAG_ATOM_NUM>  (525) 
fragi: 11  fragj: 15

>  <atom.prop.CHAIN_ID>  (525) 
A A A A A A A A A A A Z Z Z Z Z Z Z Z Z Z Z Z Z Z Z

>  <atom.prop.IS_HEAVY_ATOM>  (525) 
1 0 0 0 1 0 0 1 0 0 0 1 0 0 0 1 1 0 1 0 1 0 1 0 1 0

>  <DIFUSE_FUNC_ATOM>  (525) 
n/a

>  <FINAL_SINGLE_POINT_ENERGY>  (525) 
0

>  <NONCOV_INTER_ENERGY_QM>  (525) 
0

>  <FF_Energy>  (525) 
-1.93

>  <QM_Energy>  (525) 
-9.11

>  <source>  (525) 
ETAM_MBZ

>  <Index>  (525) 
5032

$$$$
ETAM-pdb2hqm-B-LYS-70:MBZ-pdb2hqm-B-PHE-377
     RDKit          3D

 26 25  0  0  0  0  0  0  0  0999 V2000
   -0.7055   -0.9289    4.5016 C   0  0  0  0  0  0  0  0  0  0  0  0
   -0.8623   -1.5531    5.2600 H   0  0  0  0  0  0  0  0  0  0  0  0
   -1.2825   -0.1237    4.5904 H   0  0  0  0  0  0  0  0  0  0  0  0
    0.3463   -0.6501    4.4383 H   0  0  0  0  0  0  0  0  0  0  0  0
   -1.1571   -1.6670    3.2104 C   0  0  0  0  0  0  0  0  0  0  0  0
   -2.1358   -1.4406    3.0499 H   0  0  0  0  0  0  0  0  0  0  0  0
   -0.6346   -1.2759    2.4296 H   0  0  0  0  0  0  0  0  0  0  0  0
   -0.9923   -3.1527    3.2131 N   0  0  0  0  0  4  0  0  0  0  0  0
   -0.0389   -3.3775    3.0178 H   0  0  0  0  0  0  0  0  0  0  0  0
   -1.2464   -3.5095    4.1104 H   0  0  0  0  0  0  0  0  0  0  0  0
   -1.5829   -3.5493    2.5129 H   0  0  0  0  0  0  0  0  0  0  0  0
   -0.0205    2.9084   -0.0384 C   0  0  0  0  0  0  0  0  0  0  0  0
    0.8812    3.2309    0.1967 H   0  0  0  0  0  0  0  0  0  0  0  0
   -0.6998    3.2257    0.6028 H   0  0  0  0  0  0  0  0  0  0  0  0
   -0.2742    3.3073   -1.0205 H   0  0  0  0  0  0  0  0  0  0  0  0
   -0.0062    1.4122    0.0003 C   0  0  0  0  0  0  0  0  0  0  0  0
   -1.1955    0.7099    0.0039 C   0  0  0  0  0  0  0  0  0  0  0  0
   -2.0670    1.1904    0.0081 H   0  0  0  0  0  0  0  0  0  0  0  0
   -1.2076   -0.7022    0.0000 C   0  0  0  0  0  0  0  0  0  0  0  0
   -2.0847   -1.1841   -0.0034 H   0  0  0  0  0  0  0  0  0  0  0  0
   -0.0021   -1.4063    0.0025 C   0  0  0  0  0  0  0  0  0  0  0  0
   -0.0089   -2.4018    0.0060 H   0  0  0  0  0  0  0  0  0  0  0  0
    1.2076   -0.7086    0.0000 C   0  0  0  0  0  0  0  0  0  0  0  0
    2.0855   -1.2035    0.0042 H   0  0  0  0  0  0  0  0  0  0  0  0
    1.2037    0.6950   -0.0067 C   0  0  0  0  0  0  0  0  0  0  0  0
    2.0671    1.1900   -0.0177 H   0  0  0  0  0  0  0  0  0  0  0  0
  1  5  1  0
  5  8  1  0
  1  2  1  0
  1  3  1  0
  1  4  1  0
  5  6  1  0
  5  7  1  0
  8  9  1  0
  8 10  1  0
  8 11  1  0
 12 16  1  0
 16 17  2  0
 17 19  1  0
 19 21  2  0
 21 23  1  0
 23 25  2  0
 25 16  1  0
 12 13  1  0
 12 14  1  0
 12 15  1  0
 17 18  1  0
 19 20  1  0
 21 22  1  0
 23 24  1  0
 25 26  1  0
M  CHG  1   8   1
M  END
>  <PDB_ID>  (526) 
pdb2hqm

>  <RESIDUE_NAME>  (526) 
LYS   PHE

>  <FRAG_NAME>  (526) 
ETAM   MBZ

>  <FRAG_ATOM_NUM>  (526) 
fragi: 11  fragj: 15

>  <atom.prop.CHAIN_ID>  (526) 
A A A A A A A A A A A Z Z Z Z Z Z Z Z Z Z Z Z Z Z Z

>  <atom.prop.IS_HEAVY_ATOM>  (526) 
1 0 0 0 1 0 0 1 0 0 0 1 0 0 0 1 1 0 1 0 1 0 1 0 1 0

>  <DIFUSE_FUNC_ATOM>  (526) 
n/a

>  <FINAL_SINGLE_POINT_ENERGY>  (526) 
0

>  <NONCOV_INTER_ENERGY_QM>  (526) 
0

>  <FF_Energy>  (526) 
-1.63

>  <QM_Energy>  (526) 
-7.1

>  <source>  (526) 
ETAM_MBZ

>  <Index>  (526) 
5035

$$$$
ETAM-pdb2hqy-A-LYS-5:MBZ-pdb2hqy-A-PHE-45
     RDKit          3D

 26 25  0  0  0  0  0  0  0  0999 V2000
    0.1776   -2.2801    4.3852 C   0  0  0  0  0  0  0  0  0  0  0  0
    0.7588   -3.0896    4.6096 H   0  0  0  0  0  0  0  0  0  0  0  0
   -0.1482   -1.9074    5.2789 H   0  0  0  0  0  0  0  0  0  0  0  0
    0.8482   -1.5300    3.9659 H   0  0  0  0  0  0  0  0  0  0  0  0
   -0.9047   -2.6419    3.5583 C   0  0  0  0  0  0  0  0  0  0  0  0
   -1.7118   -2.8847    4.0750 H   0  0  0  0  0  0  0  0  0  0  0  0
   -1.1070   -1.9558    2.8757 H   0  0  0  0  0  0  0  0  0  0  0  0
   -0.4448   -3.8756    2.8349 N   0  0  0  0  0  4  0  0  0  0  0  0
   -1.2269   -4.4781    2.6909 H   0  0  0  0  0  0  0  0  0  0  0  0
   -0.0532   -3.6097    1.9566 H   0  0  0  0  0  0  0  0  0  0  0  0
    0.2435   -4.3387    3.3881 H   0  0  0  0  0  0  0  0  0  0  0  0
    0.0112    2.9108    0.0224 C   0  0  0  0  0  0  0  0  0  0  0  0
   -0.8739    3.2276   -0.2798 H   0  0  0  0  0  0  0  0  0  0  0  0
    0.7323    3.2228   -0.5759 H   0  0  0  0  0  0  0  0  0  0  0  0
    0.1952    3.3329    1.0103 H   0  0  0  0  0  0  0  0  0  0  0  0
    0.0017    1.4032   -0.0040 C   0  0  0  0  0  0  0  0  0  0  0  0
   -1.2025    0.6924    0.0044 C   0  0  0  0  0  0  0  0  0  0  0  0
   -2.0652    1.1871    0.0122 H   0  0  0  0  0  0  0  0  0  0  0  0
   -1.2074   -0.6948    0.0000 C   0  0  0  0  0  0  0  0  0  0  0  0
   -2.0799   -1.1937    0.0025 H   0  0  0  0  0  0  0  0  0  0  0  0
    0.0032   -1.4011   -0.0066 C   0  0  0  0  0  0  0  0  0  0  0  0
   -0.0049   -2.3942   -0.0161 H   0  0  0  0  0  0  0  0  0  0  0  0
    1.2074   -0.6997   -0.0000 C   0  0  0  0  0  0  0  0  0  0  0  0
    2.0885   -1.1920    0.0017 H   0  0  0  0  0  0  0  0  0  0  0  0
    1.1977    0.6999    0.0061 C   0  0  0  0  0  0  0  0  0  0  0  0
    2.0667    1.1940    0.0167 H   0  0  0  0  0  0  0  0  0  0  0  0
  1  5  1  0
  5  8  1  0
  1  2  1  0
  1  3  1  0
  1  4  1  0
  5  6  1  0
  5  7  1  0
  8  9  1  0
  8 10  1  0
  8 11  1  0
 12 16  1  0
 16 17  2  0
 17 19  1  0
 19 21  2  0
 21 23  1  0
 23 25  2  0
 25 16  1  0
 12 13  1  0
 12 14  1  0
 12 15  1  0
 17 18  1  0
 19 20  1  0
 21 22  1  0
 23 24  1  0
 25 26  1  0
M  CHG  1   8   1
M  END
>  <PDB_ID>  (527) 
pdb2hqy

>  <RESIDUE_NAME>  (527) 
LYS   PHE

>  <FRAG_NAME>  (527) 
ETAM   MBZ

>  <FRAG_ATOM_NUM>  (527) 
fragi: 11  fragj: 15

>  <atom.prop.CHAIN_ID>  (527) 
A A A A A A A A A A A Z Z Z Z Z Z Z Z Z Z Z Z Z Z Z

>  <atom.prop.IS_HEAVY_ATOM>  (527) 
1 0 0 0 1 0 0 1 0 0 0 1 0 0 0 1 1 0 1 0 1 0 1 0 1 0

>  <DIFUSE_FUNC_ATOM>  (527) 
n/a

>  <FINAL_SINGLE_POINT_ENERGY>  (527) 
0

>  <NONCOV_INTER_ENERGY_QM>  (527) 
0

>  <FF_Energy>  (527) 
-1.84

>  <QM_Energy>  (527) 
-7.35

>  <source>  (527) 
ETAM_MBZ

>  <Index>  (527) 
5040

$$$$
ETAM-pdb1gxs-D-LYS-429:MBZ-pdb1gxs-D-PHE-425
     RDKit          3D

 26 25  0  0  0  0  0  0  0  0999 V2000
   -0.3104   -1.6174    3.7982 C   0  0  0  0  0  0  0  0  0  0  0  0
   -0.2463   -2.3352    4.4847 H   0  0  0  0  0  0  0  0  0  0  0  0
   -0.4694   -2.0135    2.8992 H   0  0  0  0  0  0  0  0  0  0  0  0
   -1.1394   -0.9559    4.0499 H   0  0  0  0  0  0  0  0  0  0  0  0
    1.0138   -0.8657    3.7638 C   0  0  0  0  0  0  0  0  0  0  0  0
    0.8799   -0.0107    3.2649 H   0  0  0  0  0  0  0  0  0  0  0  0
    1.2896   -0.6671    4.7032 H   0  0  0  0  0  0  0  0  0  0  0  0
    2.0293   -1.6787    3.1039 N   0  0  0  0  0  4  0  0  0  0  0  0
    2.0884   -1.4359    2.1309 H   0  0  0  0  0  0  0  0  0  0  0  0
    2.9264   -1.5263    3.5300 H   0  0  0  0  0  0  0  0  0  0  0  0
    1.7966   -2.6527    3.1804 H   0  0  0  0  0  0  0  0  0  0  0  0
    0.0186    2.9120   -0.0792 C   0  0  0  0  0  0  0  0  0  0  0  0
   -0.2151    3.1654   -1.0054 H   0  0  0  0  0  0  0  0  0  0  0  0
    0.9307    3.2109    0.1576 H   0  0  0  0  0  0  0  0  0  0  0  0
   -0.6867    3.3952    0.5969 H   0  0  0  0  0  0  0  0  0  0  0  0
    0.0002    1.3980   -0.0020 C   0  0  0  0  0  0  0  0  0  0  0  0
   -1.2048    0.6948    0.0030 C   0  0  0  0  0  0  0  0  0  0  0  0
   -2.0661    1.1806    0.0072 H   0  0  0  0  0  0  0  0  0  0  0  0
   -1.2023   -0.7049   -0.0000 C   0  0  0  0  0  0  0  0  0  0  0  0
   -2.0781   -1.1992    0.0018 H   0  0  0  0  0  0  0  0  0  0  0  0
    0.0039   -1.4016   -0.0030 C   0  0  0  0  0  0  0  0  0  0  0  0
    0.0047   -2.3962   -0.0070 H   0  0  0  0  0  0  0  0  0  0  0  0
    1.2023   -0.6929   -0.0000 C   0  0  0  0  0  0  0  0  0  0  0  0
    2.0877   -1.1871    0.0018 H   0  0  0  0  0  0  0  0  0  0  0  0
    1.2008    0.7066    0.0021 C   0  0  0  0  0  0  0  0  0  0  0  0
    2.0641    1.1986    0.0056 H   0  0  0  0  0  0  0  0  0  0  0  0
  1  5  1  0
  5  8  1  0
  1  2  1  0
  1  3  1  0
  1  4  1  0
  5  6  1  0
  5  7  1  0
  8  9  1  0
  8 10  1  0
  8 11  1  0
 12 16  1  0
 16 17  2  0
 17 19  1  0
 19 21  2  0
 21 23  1  0
 23 25  2  0
 25 16  1  0
 12 13  1  0
 12 14  1  0
 12 15  1  0
 17 18  1  0
 19 20  1  0
 21 22  1  0
 23 24  1  0
 25 26  1  0
M  CHG  1   8   1
M  END
>  <PDB_ID>  (528) 
pdb1gxs

>  <RESIDUE_NAME>  (528) 
LYS   PHE

>  <FRAG_NAME>  (528) 
ETAM   MBZ

>  <FRAG_ATOM_NUM>  (528) 
fragi: 11  fragj: 15

>  <atom.prop.CHAIN_ID>  (528) 
A A A A A A A A A A A Z Z Z Z Z Z Z Z Z Z Z Z Z Z Z

>  <atom.prop.IS_HEAVY_ATOM>  (528) 
1 0 0 0 1 0 0 1 0 0 0 1 0 0 0 1 1 0 1 0 1 0 1 0 1 0

>  <DIFUSE_FUNC_ATOM>  (528) 
n/a

>  <FINAL_SINGLE_POINT_ENERGY>  (528) 
0

>  <NONCOV_INTER_ENERGY_QM>  (528) 
0

>  <FF_Energy>  (528) 
-4.66

>  <QM_Energy>  (528) 
-12.13

>  <source>  (528) 
ETAM_MBZ

>  <Index>  (528) 
5054

$$$$
ETAM-pdb2hsi-A-LYS-105:MBZ-pdb2hsi-A-PHE-280
     RDKit          3D

 26 25  0  0  0  0  0  0  0  0999 V2000
    2.4721   -3.6717   -2.0666 C   0  0  0  0  0  0  0  0  0  0  0  0
    2.1801   -3.4005   -1.1607 H   0  0  0  0  0  0  0  0  0  0  0  0
    3.4491   -3.8257   -2.0956 H   0  0  0  0  0  0  0  0  0  0  0  0
    1.9580   -4.5918   -2.3443 H   0  0  0  0  0  0  0  0  0  0  0  0
    2.1250   -2.5632   -3.0425 C   0  0  0  0  0  0  0  0  0  0  0  0
    2.2892   -2.8946   -3.9842 H   0  0  0  0  0  0  0  0  0  0  0  0
    1.1374   -2.3545   -2.9617 H   0  0  0  0  0  0  0  0  0  0  0  0
    2.9015   -1.3114   -2.8294 N   0  0  0  0  0  4  0  0  0  0  0  0
    3.6667   -1.4965   -2.2126 H   0  0  0  0  0  0  0  0  0  0  0  0
    3.2505   -0.9839   -3.7072 H   0  0  0  0  0  0  0  0  0  0  0  0
    2.3066   -0.6165   -2.4258 H   0  0  0  0  0  0  0  0  0  0  0  0
    0.0023    2.9175    0.0157 C   0  0  0  0  0  0  0  0  0  0  0  0
    0.8368    3.2158    0.4606 H   0  0  0  0  0  0  0  0  0  0  0  0
   -0.7948    3.2157    0.5239 H   0  0  0  0  0  0  0  0  0  0  0  0
   -0.0361    3.3923   -0.9647 H   0  0  0  0  0  0  0  0  0  0  0  0
    0.0008    1.4075   -0.0073 C   0  0  0  0  0  0  0  0  0  0  0  0
   -1.1996    0.6910    0.0087 C   0  0  0  0  0  0  0  0  0  0  0  0
   -2.0658    1.1786    0.0248 H   0  0  0  0  0  0  0  0  0  0  0  0
   -1.2024   -0.7065   -0.0000 C   0  0  0  0  0  0  0  0  0  0  0  0
   -2.0779   -1.1977   -0.0013 H   0  0  0  0  0  0  0  0  0  0  0  0
   -0.0001   -1.3976   -0.0052 C   0  0  0  0  0  0  0  0  0  0  0  0
    0.0029   -2.3952   -0.0133 H   0  0  0  0  0  0  0  0  0  0  0  0
    1.2024   -0.6932    0.0000 C   0  0  0  0  0  0  0  0  0  0  0  0
    2.0844   -1.1913    0.0027 H   0  0  0  0  0  0  0  0  0  0  0  0
    1.1989    0.6988    0.0038 C   0  0  0  0  0  0  0  0  0  0  0  0
    2.0658    1.1945    0.0138 H   0  0  0  0  0  0  0  0  0  0  0  0
  1  5  1  0
  5  8  1  0
  1  2  1  0
  1  3  1  0
  1  4  1  0
  5  6  1  0
  5  7  1  0
  8  9  1  0
  8 10  1  0
  8 11  1  0
 12 16  1  0
 16 17  2  0
 17 19  1  0
 19 21  2  0
 21 23  1  0
 23 25  2  0
 25 16  1  0
 12 13  1  0
 12 14  1  0
 12 15  1  0
 17 18  1  0
 19 20  1  0
 21 22  1  0
 23 24  1  0
 25 26  1  0
M  CHG  1   8   1
M  END
>  <PDB_ID>  (529) 
pdb2hsi

>  <RESIDUE_NAME>  (529) 
LYS   PHE

>  <FRAG_NAME>  (529) 
ETAM   MBZ

>  <FRAG_ATOM_NUM>  (529) 
fragi: 11  fragj: 15

>  <atom.prop.CHAIN_ID>  (529) 
A A A A A A A A A A A Z Z Z Z Z Z Z Z Z Z Z Z Z Z Z

>  <atom.prop.IS_HEAVY_ATOM>  (529) 
1 0 0 0 1 0 0 1 0 0 0 1 0 0 0 1 1 0 1 0 1 0 1 0 1 0

>  <DIFUSE_FUNC_ATOM>  (529) 
n/a

>  <FINAL_SINGLE_POINT_ENERGY>  (529) 
0

>  <NONCOV_INTER_ENERGY_QM>  (529) 
0

>  <FF_Energy>  (529) 
-3.24

>  <QM_Energy>  (529) 
-9.92

>  <source>  (529) 
ETAM_MBZ

>  <Index>  (529) 
5061

$$$$
ETAM-pdb2hti-A-LYS-122:MBZ-pdb2hti-A-PHE-44
     RDKit          3D

 26 25  0  0  0  0  0  0  0  0999 V2000
    0.6590   -0.5809   -6.0147 C   0  0  0  0  0  0  0  0  0  0  0  0
    1.4131   -1.2248   -6.1352 H   0  0  0  0  0  0  0  0  0  0  0  0
    1.0121    0.2947   -5.6905 H   0  0  0  0  0  0  0  0  0  0  0  0
    0.1711   -0.4286   -6.9774 H   0  0  0  0  0  0  0  0  0  0  0  0
   -0.2891   -1.1411   -4.9545 C   0  0  0  0  0  0  0  0  0  0  0  0
   -1.2069   -0.7564   -5.1080 H   0  0  0  0  0  0  0  0  0  0  0  0
   -0.3409   -2.1407   -5.0650 H   0  0  0  0  0  0  0  0  0  0  0  0
    0.1473   -0.8251   -3.5650 N   0  0  0  0  0  4  0  0  0  0  0  0
    0.0462   -1.6382   -2.9936 H   0  0  0  0  0  0  0  0  0  0  0  0
    1.1051   -0.5391   -3.5760 H   0  0  0  0  0  0  0  0  0  0  0  0
   -0.4193   -0.0864   -3.2005 H   0  0  0  0  0  0  0  0  0  0  0  0
    0.0041    2.8841   -0.0025 C   0  0  0  0  0  0  0  0  0  0  0  0
    0.8674    3.1986    0.3565 H   0  0  0  0  0  0  0  0  0  0  0  0
   -0.7551    3.2016    0.5431 H   0  0  0  0  0  0  0  0  0  0  0  0
   -0.1103    3.3001   -1.0035 H   0  0  0  0  0  0  0  0  0  0  0  0
    0.0033    1.3955    0.0107 C   0  0  0  0  0  0  0  0  0  0  0  0
   -1.1879    0.6930    0.0021 C   0  0  0  0  0  0  0  0  0  0  0  0
   -2.0562    1.1831   -0.0042 H   0  0  0  0  0  0  0  0  0  0  0  0
   -1.1948   -0.6949   -0.0000 C   0  0  0  0  0  0  0  0  0  0  0  0
   -2.0760   -1.1854    0.0051 H   0  0  0  0  0  0  0  0  0  0  0  0
   -0.0028   -1.3932   -0.0075 C   0  0  0  0  0  0  0  0  0  0  0  0
   -0.0041   -2.3897   -0.0187 H   0  0  0  0  0  0  0  0  0  0  0  0
    1.1948   -0.6936    0.0000 C   0  0  0  0  0  0  0  0  0  0  0  0
    2.0776   -1.1910    0.0112 H   0  0  0  0  0  0  0  0  0  0  0  0
    1.1874    0.6931   -0.0053 C   0  0  0  0  0  0  0  0  0  0  0  0
    2.0607    1.1886   -0.0214 H   0  0  0  0  0  0  0  0  0  0  0  0
  1  5  1  0
  5  8  1  0
  1  2  1  0
  1  3  1  0
  1  4  1  0
  5  6  1  0
  5  7  1  0
  8  9  1  0
  8 10  1  0
  8 11  1  0
 12 16  1  0
 16 17  2  0
 17 19  1  0
 19 21  2  0
 21 23  1  0
 23 25  2  0
 25 16  1  0
 12 13  1  0
 12 14  1  0
 12 15  1  0
 17 18  1  0
 19 20  1  0
 21 22  1  0
 23 24  1  0
 25 26  1  0
M  CHG  1   8   1
M  END
>  <PDB_ID>  (530) 
pdb2hti

>  <RESIDUE_NAME>  (530) 
LYS   PHE

>  <FRAG_NAME>  (530) 
ETAM   MBZ

>  <FRAG_ATOM_NUM>  (530) 
fragi: 11  fragj: 15

>  <atom.prop.CHAIN_ID>  (530) 
A A A A A A A A A A A Z Z Z Z Z Z Z Z Z Z Z Z Z Z Z

>  <atom.prop.IS_HEAVY_ATOM>  (530) 
1 0 0 0 1 0 0 1 0 0 0 1 0 0 0 1 1 0 1 0 1 0 1 0 1 0

>  <DIFUSE_FUNC_ATOM>  (530) 
n/a

>  <FINAL_SINGLE_POINT_ENERGY>  (530) 
0

>  <NONCOV_INTER_ENERGY_QM>  (530) 
0

>  <FF_Energy>  (530) 
-6.43

>  <QM_Energy>  (530) 
-11.91

>  <source>  (530) 
ETAM_MBZ

>  <Index>  (530) 
5091

$$$$
ETAM-pdb2hvg-A-LYS-98:MBZ-pdb2hvg-A-PHE-94
     RDKit          3D

 26 25  0  0  0  0  0  0  0  0999 V2000
   -0.4352   -2.4840    3.6413 C   0  0  0  0  0  0  0  0  0  0  0  0
   -0.2080   -1.8169    2.9379 H   0  0  0  0  0  0  0  0  0  0  0  0
   -0.4042   -3.4047    3.2646 H   0  0  0  0  0  0  0  0  0  0  0  0
    0.2934   -2.4076    4.4484 H   0  0  0  0  0  0  0  0  0  0  0  0
   -1.8449   -2.2088    4.1325 C   0  0  0  0  0  0  0  0  0  0  0  0
   -2.1871   -3.0215    4.6183 H   0  0  0  0  0  0  0  0  0  0  0  0
   -1.8221   -1.4386    4.7800 H   0  0  0  0  0  0  0  0  0  0  0  0
   -2.7873   -1.8774    3.0201 N   0  0  0  0  0  4  0  0  0  0  0  0
   -2.2795   -1.4459    2.2769 H   0  0  0  0  0  0  0  0  0  0  0  0
   -3.2161   -2.7174    2.6924 H   0  0  0  0  0  0  0  0  0  0  0  0
   -3.4869   -1.2510    3.3588 H   0  0  0  0  0  0  0  0  0  0  0  0
   -0.0037    2.9356   -0.0095 C   0  0  0  0  0  0  0  0  0  0  0  0
   -0.7898    3.2298   -0.5301 H   0  0  0  0  0  0  0  0  0  0  0  0
    0.8399    3.2320   -0.4302 H   0  0  0  0  0  0  0  0  0  0  0  0
   -0.0648    3.3903    0.9793 H   0  0  0  0  0  0  0  0  0  0  0  0
   -0.0025    1.4144    0.0032 C   0  0  0  0  0  0  0  0  0  0  0  0
   -1.2029    0.7002   -0.0041 C   0  0  0  0  0  0  0  0  0  0  0  0
   -2.0703    1.1800   -0.0134 H   0  0  0  0  0  0  0  0  0  0  0  0
   -1.2058   -0.7129   -0.0000 C   0  0  0  0  0  0  0  0  0  0  0  0
   -2.0781   -1.2010    0.0043 H   0  0  0  0  0  0  0  0  0  0  0  0
    0.0074   -1.4078    0.0000 C   0  0  0  0  0  0  0  0  0  0  0  0
    0.0098   -2.4019   -0.0006 H   0  0  0  0  0  0  0  0  0  0  0  0
    1.2058   -0.6964    0.0000 C   0  0  0  0  0  0  0  0  0  0  0  0
    2.0917   -1.1875    0.0012 H   0  0  0  0  0  0  0  0  0  0  0  0
    1.1980    0.7025    0.0009 C   0  0  0  0  0  0  0  0  0  0  0  0
    2.0654    1.1981   -0.0014 H   0  0  0  0  0  0  0  0  0  0  0  0
  1  5  1  0
  5  8  1  0
  1  2  1  0
  1  3  1  0
  1  4  1  0
  5  6  1  0
  5  7  1  0
  8  9  1  0
  8 10  1  0
  8 11  1  0
 12 16  1  0
 16 17  2  0
 17 19  1  0
 19 21  2  0
 21 23  1  0
 23 25  2  0
 25 16  1  0
 12 13  1  0
 12 14  1  0
 12 15  1  0
 17 18  1  0
 19 20  1  0
 21 22  1  0
 23 24  1  0
 25 26  1  0
M  CHG  1   8   1
M  END
>  <PDB_ID>  (531) 
pdb2hvg

>  <RESIDUE_NAME>  (531) 
LYS   PHE

>  <FRAG_NAME>  (531) 
ETAM   MBZ

>  <FRAG_ATOM_NUM>  (531) 
fragi: 11  fragj: 15

>  <atom.prop.CHAIN_ID>  (531) 
A A A A A A A A A A A Z Z Z Z Z Z Z Z Z Z Z Z Z Z Z

>  <atom.prop.IS_HEAVY_ATOM>  (531) 
1 0 0 0 1 0 0 1 0 0 0 1 0 0 0 1 1 0 1 0 1 0 1 0 1 0

>  <DIFUSE_FUNC_ATOM>  (531) 
n/a

>  <FINAL_SINGLE_POINT_ENERGY>  (531) 
0

>  <NONCOV_INTER_ENERGY_QM>  (531) 
0

>  <FF_Energy>  (531) 
-2.93

>  <QM_Energy>  (531) 
-9.01

>  <source>  (531) 
ETAM_MBZ

>  <Index>  (531) 
5125

$$$$
ETAM-pdb2huh-A-LYS-217:MBZ-pdb2huh-A-PHE-94
     RDKit          3D

 26 25  0  0  0  0  0  0  0  0999 V2000
   -2.8887   -3.7785   -0.7435 C   0  0  0  0  0  0  0  0  0  0  0  0
   -2.0474   -3.8047   -1.2921 H   0  0  0  0  0  0  0  0  0  0  0  0
   -3.1209   -2.8207   -0.5517 H   0  0  0  0  0  0  0  0  0  0  0  0
   -3.6992   -4.2379   -1.3092 H   0  0  0  0  0  0  0  0  0  0  0  0
   -2.6152   -4.4728    0.5774 C   0  0  0  0  0  0  0  0  0  0  0  0
   -3.4442   -4.4441    1.1374 H   0  0  0  0  0  0  0  0  0  0  0  0
   -2.3716   -5.4284    0.3981 H   0  0  0  0  0  0  0  0  0  0  0  0
   -1.5063   -3.8129    1.3066 N   0  0  0  0  0  4  0  0  0  0  0  0
   -1.7055   -3.8121    2.2879 H   0  0  0  0  0  0  0  0  0  0  0  0
   -0.6544   -4.3099    1.1413 H   0  0  0  0  0  0  0  0  0  0  0  0
   -1.4100   -2.8698    0.9868 H   0  0  0  0  0  0  0  0  0  0  0  0
   -0.0168    2.8632   -0.1081 C   0  0  0  0  0  0  0  0  0  0  0  0
    0.8692    3.2073    0.1502 H   0  0  0  0  0  0  0  0  0  0  0  0
   -0.7328    3.2212    0.4651 H   0  0  0  0  0  0  0  0  0  0  0  0
   -0.2134    3.2069   -1.1236 H   0  0  0  0  0  0  0  0  0  0  0  0
   -0.0090    1.3886   -0.0017 C   0  0  0  0  0  0  0  0  0  0  0  0
   -1.1933    0.6852   -0.0183 C   0  0  0  0  0  0  0  0  0  0  0  0
   -2.0655    1.1717   -0.0453 H   0  0  0  0  0  0  0  0  0  0  0  0
   -1.1996   -0.7051   -0.0000 C   0  0  0  0  0  0  0  0  0  0  0  0
   -2.0602   -1.2073   -0.0149 H   0  0  0  0  0  0  0  0  0  0  0  0
    0.0253   -1.3887    0.0419 C   0  0  0  0  0  0  0  0  0  0  0  0
    0.0200   -2.3868    0.1021 H   0  0  0  0  0  0  0  0  0  0  0  0
    1.1996   -0.6869   -0.0000 C   0  0  0  0  0  0  0  0  0  0  0  0
    2.0950   -1.1649   -0.0135 H   0  0  0  0  0  0  0  0  0  0  0  0
    1.1770    0.7069   -0.0220 C   0  0  0  0  0  0  0  0  0  0  0  0
    2.0474    1.2051   -0.0538 H   0  0  0  0  0  0  0  0  0  0  0  0
  1  5  1  0
  5  8  1  0
  1  2  1  0
  1  3  1  0
  1  4  1  0
  5  6  1  0
  5  7  1  0
  8  9  1  0
  8 10  1  0
  8 11  1  0
 12 16  1  0
 16 17  2  0
 17 19  1  0
 19 21  2  0
 21 23  1  0
 23 25  2  0
 25 16  1  0
 12 13  1  0
 12 14  1  0
 12 15  1  0
 17 18  1  0
 19 20  1  0
 21 22  1  0
 23 24  1  0
 25 26  1  0
M  CHG  1   8   1
M  END
>  <PDB_ID>  (532) 
pdb2huh

>  <RESIDUE_NAME>  (532) 
LYS   PHE

>  <FRAG_NAME>  (532) 
ETAM   MBZ

>  <FRAG_ATOM_NUM>  (532) 
fragi: 11  fragj: 15

>  <atom.prop.CHAIN_ID>  (532) 
A A A A A A A A A A A Z Z Z Z Z Z Z Z Z Z Z Z Z Z Z

>  <atom.prop.IS_HEAVY_ATOM>  (532) 
1 0 0 0 1 0 0 1 0 0 0 1 0 0 0 1 1 0 1 0 1 0 1 0 1 0

>  <DIFUSE_FUNC_ATOM>  (532) 
n/a

>  <FINAL_SINGLE_POINT_ENERGY>  (532) 
0

>  <NONCOV_INTER_ENERGY_QM>  (532) 
0

>  <FF_Energy>  (532) 
3.47

>  <QM_Energy>  (532) 
-4.29

>  <source>  (532) 
ETAM_MBZ

>  <Index>  (532) 
5127

$$$$
ETAM-pdb2hx1-A-LYS-25:MBZ-pdb2hx1-A-PHE-21
     RDKit          3D

 26 25  0  0  0  0  0  0  0  0999 V2000
   -0.7006   -1.3361   -4.2611 C   0  0  0  0  0  0  0  0  0  0  0  0
   -1.2885   -2.0621   -3.9084 H   0  0  0  0  0  0  0  0  0  0  0  0
   -0.5214   -1.4878   -5.2318 H   0  0  0  0  0  0  0  0  0  0  0  0
   -1.2225   -0.3856   -4.1503 H   0  0  0  0  0  0  0  0  0  0  0  0
    0.6120   -1.3618   -3.5118 C   0  0  0  0  0  0  0  0  0  0  0  0
    1.2747   -0.7720   -3.9865 H   0  0  0  0  0  0  0  0  0  0  0  0
    0.4701   -0.9990   -2.5844 H   0  0  0  0  0  0  0  0  0  0  0  0
    1.1773   -2.7385   -3.4093 N   0  0  0  0  0  4  0  0  0  0  0  0
    1.9843   -2.7207   -2.8214 H   0  0  0  0  0  0  0  0  0  0  0  0
    0.4905   -3.3487   -3.0181 H   0  0  0  0  0  0  0  0  0  0  0  0
    1.4323   -3.0587   -4.3207 H   0  0  0  0  0  0  0  0  0  0  0  0
    0.0006    2.9253   -0.0086 C   0  0  0  0  0  0  0  0  0  0  0  0
    0.8935    3.2294    0.2830 H   0  0  0  0  0  0  0  0  0  0  0  0
   -0.7056    3.2322    0.6099 H   0  0  0  0  0  0  0  0  0  0  0  0
   -0.1979    3.3674   -0.9849 H   0  0  0  0  0  0  0  0  0  0  0  0
   -0.0020    1.4168   -0.0082 C   0  0  0  0  0  0  0  0  0  0  0  0
   -1.1955    0.7072    0.0025 C   0  0  0  0  0  0  0  0  0  0  0  0
   -2.0661    1.1854    0.0107 H   0  0  0  0  0  0  0  0  0  0  0  0
   -1.1975   -0.7041   -0.0000 C   0  0  0  0  0  0  0  0  0  0  0  0
   -2.0781   -1.1876   -0.0079 H   0  0  0  0  0  0  0  0  0  0  0  0
    0.0011   -1.4037    0.0108 C   0  0  0  0  0  0  0  0  0  0  0  0
   -0.0071   -2.4025    0.0253 H   0  0  0  0  0  0  0  0  0  0  0  0
    1.1975   -0.7111    0.0000 C   0  0  0  0  0  0  0  0  0  0  0  0
    2.0823   -1.2008   -0.0031 H   0  0  0  0  0  0  0  0  0  0  0  0
    1.1964    0.6949   -0.0051 C   0  0  0  0  0  0  0  0  0  0  0  0
    2.0665    1.1830   -0.0073 H   0  0  0  0  0  0  0  0  0  0  0  0
  1  5  1  0
  5  8  1  0
  1  2  1  0
  1  3  1  0
  1  4  1  0
  5  6  1  0
  5  7  1  0
  8  9  1  0
  8 10  1  0
  8 11  1  0
 12 16  1  0
 16 17  2  0
 17 19  1  0
 19 21  2  0
 21 23  1  0
 23 25  2  0
 25 16  1  0
 12 13  1  0
 12 14  1  0
 12 15  1  0
 17 18  1  0
 19 20  1  0
 21 22  1  0
 23 24  1  0
 25 26  1  0
M  CHG  1   8   1
M  END
>  <PDB_ID>  (533) 
pdb2hx1

>  <RESIDUE_NAME>  (533) 
LYS   PHE

>  <FRAG_NAME>  (533) 
ETAM   MBZ

>  <FRAG_ATOM_NUM>  (533) 
fragi: 11  fragj: 15

>  <atom.prop.CHAIN_ID>  (533) 
A A A A A A A A A A A Z Z Z Z Z Z Z Z Z Z Z Z Z Z Z

>  <atom.prop.IS_HEAVY_ATOM>  (533) 
1 0 0 0 1 0 0 1 0 0 0 1 0 0 0 1 1 0 1 0 1 0 1 0 1 0

>  <DIFUSE_FUNC_ATOM>  (533) 
n/a

>  <FINAL_SINGLE_POINT_ENERGY>  (533) 
0

>  <NONCOV_INTER_ENERGY_QM>  (533) 
0

>  <FF_Energy>  (533) 
-3.35

>  <QM_Energy>  (533) 
-8.68

>  <source>  (533) 
ETAM_MBZ

>  <Index>  (533) 
5140

$$$$
ETAM-pdb2hx1-B-LYS-25:MBZ-pdb2hx1-B-PHE-21
     RDKit          3D

 26 25  0  0  0  0  0  0  0  0999 V2000
    0.2296   -1.0851   -4.2943 C   0  0  0  0  0  0  0  0  0  0  0  0
   -0.2724   -1.9479   -4.2162 H   0  0  0  0  0  0  0  0  0  0  0  0
    0.7013   -1.0565   -5.1778 H   0  0  0  0  0  0  0  0  0  0  0  0
   -0.4819   -0.2607   -4.2491 H   0  0  0  0  0  0  0  0  0  0  0  0
    1.2604   -1.0237   -3.1946 C   0  0  0  0  0  0  0  0  0  0  0  0
    1.9167   -0.2943   -3.3885 H   0  0  0  0  0  0  0  0  0  0  0  0
    0.8096   -0.8400   -2.3206 H   0  0  0  0  0  0  0  0  0  0  0  0
    2.0186   -2.3282   -3.0752 N   0  0  0  0  0  4  0  0  0  0  0  0
    2.9764   -2.1618   -3.2893 H   0  0  0  0  0  0  0  0  0  0  0  0
    1.9279   -2.6660   -2.1429 H   0  0  0  0  0  0  0  0  0  0  0  0
    1.6311   -2.9824   -3.7175 H   0  0  0  0  0  0  0  0  0  0  0  0
   -0.0072    2.8658   -0.0595 C   0  0  0  0  0  0  0  0  0  0  0  0
    0.8568    3.2048    0.2788 H   0  0  0  0  0  0  0  0  0  0  0  0
   -0.7642    3.2123    0.4721 H   0  0  0  0  0  0  0  0  0  0  0  0
   -0.1276    3.2364   -1.0774 H   0  0  0  0  0  0  0  0  0  0  0  0
   -0.0056    1.4035    0.0081 C   0  0  0  0  0  0  0  0  0  0  0  0
   -1.2069    0.7106    0.0052 C   0  0  0  0  0  0  0  0  0  0  0  0
   -2.0704    1.2005    0.0058 H   0  0  0  0  0  0  0  0  0  0  0  0
   -1.2203   -0.6918   -0.0000 C   0  0  0  0  0  0  0  0  0  0  0  0
   -2.0887   -1.1849   -0.0067 H   0  0  0  0  0  0  0  0  0  0  0  0
    0.0049   -1.4095    0.0060 C   0  0  0  0  0  0  0  0  0  0  0  0
   -0.0105   -2.3994    0.0139 H   0  0  0  0  0  0  0  0  0  0  0  0
    1.2203   -0.7086    0.0000 C   0  0  0  0  0  0  0  0  0  0  0  0
    2.0958   -1.2008    0.0110 H   0  0  0  0  0  0  0  0  0  0  0  0
    1.2076    0.6959   -0.0193 C   0  0  0  0  0  0  0  0  0  0  0  0
    2.0677    1.1951   -0.0531 H   0  0  0  0  0  0  0  0  0  0  0  0
  1  5  1  0
  5  8  1  0
  1  2  1  0
  1  3  1  0
  1  4  1  0
  5  6  1  0
  5  7  1  0
  8  9  1  0
  8 10  1  0
  8 11  1  0
 12 16  1  0
 16 17  2  0
 17 19  1  0
 19 21  2  0
 21 23  1  0
 23 25  2  0
 25 16  1  0
 12 13  1  0
 12 14  1  0
 12 15  1  0
 17 18  1  0
 19 20  1  0
 21 22  1  0
 23 24  1  0
 25 26  1  0
M  CHG  1   8   1
M  END
>  <PDB_ID>  (534) 
pdb2hx1

>  <RESIDUE_NAME>  (534) 
LYS   PHE

>  <FRAG_NAME>  (534) 
ETAM   MBZ

>  <FRAG_ATOM_NUM>  (534) 
fragi: 11  fragj: 15

>  <atom.prop.CHAIN_ID>  (534) 
A A A A A A A A A A A Z Z Z Z Z Z Z Z Z Z Z Z Z Z Z

>  <atom.prop.IS_HEAVY_ATOM>  (534) 
1 0 0 0 1 0 0 1 0 0 0 1 0 0 0 1 1 0 1 0 1 0 1 0 1 0

>  <DIFUSE_FUNC_ATOM>  (534) 
n/a

>  <FINAL_SINGLE_POINT_ENERGY>  (534) 
0

>  <NONCOV_INTER_ENERGY_QM>  (534) 
0

>  <FF_Energy>  (534) 
-0.41

>  <QM_Energy>  (534) 
-8.26

>  <source>  (534) 
ETAM_MBZ

>  <Index>  (534) 
5143

$$$$
ETAM-pdb2hx1-C-LYS-25:MBZ-pdb2hx1-C-PHE-21
     RDKit          3D

 26 25  0  0  0  0  0  0  0  0999 V2000
    0.7508   -1.2276   -4.1788 C   0  0  0  0  0  0  0  0  0  0  0  0
    0.3603   -2.1210   -3.9804 H   0  0  0  0  0  0  0  0  0  0  0  0
    1.2212   -1.2431   -5.0557 H   0  0  0  0  0  0  0  0  0  0  0  0
   -0.0459   -0.4842   -4.2080 H   0  0  0  0  0  0  0  0  0  0  0  0
    1.7733   -0.9021   -3.0948 C   0  0  0  0  0  0  0  0  0  0  0  0
    2.2368   -0.0433   -3.3282 H   0  0  0  0  0  0  0  0  0  0  0  0
    1.2973   -0.7864   -2.2184 H   0  0  0  0  0  0  0  0  0  0  0  0
    2.8143   -1.9849   -2.9394 N   0  0  0  0  0  4  0  0  0  0  0  0
    2.9965   -2.1177   -1.9690 H   0  0  0  0  0  0  0  0  0  0  0  0
    2.4637   -2.8263   -3.3401 H   0  0  0  0  0  0  0  0  0  0  0  0
    3.6448   -1.7003   -3.4097 H   0  0  0  0  0  0  0  0  0  0  0  0
   -0.0181    2.8552   -0.0429 C   0  0  0  0  0  0  0  0  0  0  0  0
    0.8402    3.2040    0.2960 H   0  0  0  0  0  0  0  0  0  0  0  0
   -0.7827    3.1892    0.4838 H   0  0  0  0  0  0  0  0  0  0  0  0
   -0.1396    3.2161   -1.0642 H   0  0  0  0  0  0  0  0  0  0  0  0
    0.0020    1.3970    0.0161 C   0  0  0  0  0  0  0  0  0  0  0  0
   -1.1946    0.7025   -0.0056 C   0  0  0  0  0  0  0  0  0  0  0  0
   -2.0597    1.1968   -0.0266 H   0  0  0  0  0  0  0  0  0  0  0  0
   -1.2124   -0.6921   -0.0000 C   0  0  0  0  0  0  0  0  0  0  0  0
   -2.0916   -1.1772    0.0085 H   0  0  0  0  0  0  0  0  0  0  0  0
   -0.0135   -1.4016   -0.0042 C   0  0  0  0  0  0  0  0  0  0  0  0
   -0.0195   -2.3968   -0.0106 H   0  0  0  0  0  0  0  0  0  0  0  0
    1.2124   -0.7071    0.0000 C   0  0  0  0  0  0  0  0  0  0  0  0
    2.0811   -1.2044    0.0092 H   0  0  0  0  0  0  0  0  0  0  0  0
    1.2060    0.7013   -0.0063 C   0  0  0  0  0  0  0  0  0  0  0  0
    2.0689    1.1926   -0.0273 H   0  0  0  0  0  0  0  0  0  0  0  0
  1  5  1  0
  5  8  1  0
  1  2  1  0
  1  3  1  0
  1  4  1  0
  5  6  1  0
  5  7  1  0
  8  9  1  0
  8 10  1  0
  8 11  1  0
 12 16  1  0
 16 17  2  0
 17 19  1  0
 19 21  2  0
 21 23  1  0
 23 25  2  0
 25 16  1  0
 12 13  1  0
 12 14  1  0
 12 15  1  0
 17 18  1  0
 19 20  1  0
 21 22  1  0
 23 24  1  0
 25 26  1  0
M  CHG  1   8   1
M  END
>  <PDB_ID>  (535) 
pdb2hx1

>  <RESIDUE_NAME>  (535) 
LYS   PHE

>  <FRAG_NAME>  (535) 
ETAM   MBZ

>  <FRAG_ATOM_NUM>  (535) 
fragi: 11  fragj: 15

>  <atom.prop.CHAIN_ID>  (535) 
A A A A A A A A A A A Z Z Z Z Z Z Z Z Z Z Z Z Z Z Z

>  <atom.prop.IS_HEAVY_ATOM>  (535) 
1 0 0 0 1 0 0 1 0 0 0 1 0 0 0 1 1 0 1 0 1 0 1 0 1 0

>  <DIFUSE_FUNC_ATOM>  (535) 
n/a

>  <FINAL_SINGLE_POINT_ENERGY>  (535) 
0

>  <NONCOV_INTER_ENERGY_QM>  (535) 
0

>  <FF_Energy>  (535) 
3.28

>  <QM_Energy>  (535) 
-6.15

>  <source>  (535) 
ETAM_MBZ

>  <Index>  (535) 
5146

$$$$
ETAM-pdb1h0n-A-LYS-284:MBZ-pdb1h0n-A-PHE-278
     RDKit          3D

 26 25  0  0  0  0  0  0  0  0999 V2000
    0.7547   -2.0534    3.0726 C   0  0  0  0  0  0  0  0  0  0  0  0
    1.5372   -2.6467    2.9337 H   0  0  0  0  0  0  0  0  0  0  0  0
    0.3585   -1.7813    2.2056 H   0  0  0  0  0  0  0  0  0  0  0  0
    0.0038   -2.5841    3.6580 H   0  0  0  0  0  0  0  0  0  0  0  0
    1.2166   -0.8075    3.8071 C   0  0  0  0  0  0  0  0  0  0  0  0
    0.6440   -0.0205    3.5412 H   0  0  0  0  0  0  0  0  0  0  0  0
    1.1202   -0.9413    4.8032 H   0  0  0  0  0  0  0  0  0  0  0  0
    2.6969   -0.4077    3.5397 N   0  0  0  0  0  4  0  0  0  0  0  0
    2.6930    0.3132    2.8635 H   0  0  0  0  0  0  0  0  0  0  0  0
    3.0798   -0.0953    4.3964 H   0  0  0  0  0  0  0  0  0  0  0  0
    3.1665   -1.2110    3.2068 H   0  0  0  0  0  0  0  0  0  0  0  0
    0.0018    2.8490    0.1041 C   0  0  0  0  0  0  0  0  0  0  0  0
   -0.7041    3.2094   -0.4942 H   0  0  0  0  0  0  0  0  0  0  0  0
    0.8963    3.1806   -0.1727 H   0  0  0  0  0  0  0  0  0  0  0  0
   -0.1927    3.2296    1.1069 H   0  0  0  0  0  0  0  0  0  0  0  0
   -0.0050    1.3747    0.0041 C   0  0  0  0  0  0  0  0  0  0  0  0
   -1.1748    0.6987   -0.0032 C   0  0  0  0  0  0  0  0  0  0  0  0
   -2.0509    1.1806   -0.0123 H   0  0  0  0  0  0  0  0  0  0  0  0
   -1.1838   -0.6923    0.0000 C   0  0  0  0  0  0  0  0  0  0  0  0
   -2.0641   -1.1785    0.0042 H   0  0  0  0  0  0  0  0  0  0  0  0
    0.0030   -1.3663   -0.0006 C   0  0  0  0  0  0  0  0  0  0  0  0
    0.0016   -2.3776   -0.0023 H   0  0  0  0  0  0  0  0  0  0  0  0
    1.1838   -0.6855    0.0000 C   0  0  0  0  0  0  0  0  0  0  0  0
    2.0697   -1.1911    0.0019 H   0  0  0  0  0  0  0  0  0  0  0  0
    1.1768    0.6707   -0.0002 C   0  0  0  0  0  0  0  0  0  0  0  0
    2.0489    1.1799   -0.0046 H   0  0  0  0  0  0  0  0  0  0  0  0
  1  5  1  0
  5  8  1  0
  1  2  1  0
  1  3  1  0
  1  4  1  0
  5  6  1  0
  5  7  1  0
  8  9  1  0
  8 10  1  0
  8 11  1  0
 12 16  1  0
 16 17  2  0
 17 19  1  0
 19 21  2  0
 21 23  1  0
 23 25  2  0
 25 16  1  0
 12 13  1  0
 12 14  1  0
 12 15  1  0
 17 18  1  0
 19 20  1  0
 21 22  1  0
 23 24  1  0
 25 26  1  0
M  CHG  1   8   1
M  END
>  <PDB_ID>  (536) 
pdb1h0n

>  <RESIDUE_NAME>  (536) 
LYS   PHE

>  <FRAG_NAME>  (536) 
ETAM   MBZ

>  <FRAG_ATOM_NUM>  (536) 
fragi: 11  fragj: 15

>  <atom.prop.CHAIN_ID>  (536) 
A A A A A A A A A A A Z Z Z Z Z Z Z Z Z Z Z Z Z Z Z

>  <atom.prop.IS_HEAVY_ATOM>  (536) 
1 0 0 0 1 0 0 1 0 0 0 1 0 0 0 1 1 0 1 0 1 0 1 0 1 0

>  <DIFUSE_FUNC_ATOM>  (536) 
n/a

>  <FINAL_SINGLE_POINT_ENERGY>  (536) 
0

>  <NONCOV_INTER_ENERGY_QM>  (536) 
0

>  <FF_Energy>  (536) 
-0.2

>  <QM_Energy>  (536) 
-6.75

>  <source>  (536) 
ETAM_MBZ

>  <Index>  (536) 
5166

$$$$
ETAM-pdb2hy7-A-LYS-60:MBZ-pdb2hy7-A-PHE-92
     RDKit          3D

 26 25  0  0  0  0  0  0  0  0999 V2000
    0.1087    0.4190   -6.1535 C   0  0  0  0  0  0  0  0  0  0  0  0
    0.9807    0.8808   -6.2252 H   0  0  0  0  0  0  0  0  0  0  0  0
   -0.6263    1.0621   -5.9976 H   0  0  0  0  0  0  0  0  0  0  0  0
   -0.0829   -0.1244   -7.0788 H   0  0  0  0  0  0  0  0  0  0  0  0
    0.1697   -0.5447   -4.9542 C   0  0  0  0  0  0  0  0  0  0  0  0
   -0.6041   -1.1815   -5.0173 H   0  0  0  0  0  0  0  0  0  0  0  0
    1.0241   -1.0700   -5.0109 H   0  0  0  0  0  0  0  0  0  0  0  0
    0.1159    0.1648   -3.6372 N   0  0  0  0  0  4  0  0  0  0  0  0
   -0.6970    0.7430   -3.6100 H   0  0  0  0  0  0  0  0  0  0  0  0
    0.0751   -0.5107   -2.9027 H   0  0  0  0  0  0  0  0  0  0  0  0
    0.9347    0.7264   -3.5343 H   0  0  0  0  0  0  0  0  0  0  0  0
    0.0052    2.9070    0.0189 C   0  0  0  0  0  0  0  0  0  0  0  0
   -0.8852    3.2212   -0.2656 H   0  0  0  0  0  0  0  0  0  0  0  0
    0.7156    3.2194   -0.5891 H   0  0  0  0  0  0  0  0  0  0  0  0
    0.2052    3.3257    1.0052 H   0  0  0  0  0  0  0  0  0  0  0  0
   -0.0004    1.4016   -0.0019 C   0  0  0  0  0  0  0  0  0  0  0  0
   -1.2014    0.6984    0.0024 C   0  0  0  0  0  0  0  0  0  0  0  0
   -2.0647    1.1914    0.0062 H   0  0  0  0  0  0  0  0  0  0  0  0
   -1.2091   -0.6932    0.0000 C   0  0  0  0  0  0  0  0  0  0  0  0
   -2.0828   -1.1877    0.0006 H   0  0  0  0  0  0  0  0  0  0  0  0
   -0.0018   -1.3939   -0.0016 C   0  0  0  0  0  0  0  0  0  0  0  0
   -0.0090   -2.3923   -0.0043 H   0  0  0  0  0  0  0  0  0  0  0  0
    1.2091   -0.7011   -0.0000 C   0  0  0  0  0  0  0  0  0  0  0  0
    2.0840   -1.2022    0.0014 H   0  0  0  0  0  0  0  0  0  0  0  0
    1.2036    0.6881    0.0011 C   0  0  0  0  0  0  0  0  0  0  0  0
    2.0685    1.1885    0.0033 H   0  0  0  0  0  0  0  0  0  0  0  0
  1  5  1  0
  5  8  1  0
  1  2  1  0
  1  3  1  0
  1  4  1  0
  5  6  1  0
  5  7  1  0
  8  9  1  0
  8 10  1  0
  8 11  1  0
 12 16  1  0
 16 17  2  0
 17 19  1  0
 19 21  2  0
 21 23  1  0
 23 25  2  0
 25 16  1  0
 12 13  1  0
 12 14  1  0
 12 15  1  0
 17 18  1  0
 19 20  1  0
 21 22  1  0
 23 24  1  0
 25 26  1  0
M  CHG  1   8   1
M  END
>  <PDB_ID>  (537) 
pdb2hy7

>  <RESIDUE_NAME>  (537) 
LYS   PHE

>  <FRAG_NAME>  (537) 
ETAM   MBZ

>  <FRAG_ATOM_NUM>  (537) 
fragi: 11  fragj: 15

>  <atom.prop.CHAIN_ID>  (537) 
A A A A A A A A A A A Z Z Z Z Z Z Z Z Z Z Z Z Z Z Z

>  <atom.prop.IS_HEAVY_ATOM>  (537) 
1 0 0 0 1 0 0 1 0 0 0 1 0 0 0 1 1 0 1 0 1 0 1 0 1 0

>  <DIFUSE_FUNC_ATOM>  (537) 
n/a

>  <FINAL_SINGLE_POINT_ENERGY>  (537) 
0

>  <NONCOV_INTER_ENERGY_QM>  (537) 
0

>  <FF_Energy>  (537) 
-7.23

>  <QM_Energy>  (537) 
-12.54

>  <source>  (537) 
ETAM_MBZ

>  <Index>  (537) 
5177

$$$$
ETAM-pdb2hyi-I-LYS-296:MBZ-pdb2hyi-I-PHE-265
     RDKit          3D

 26 25  0  0  0  0  0  0  0  0999 V2000
   -0.7859   -0.8973   -4.5428 C   0  0  0  0  0  0  0  0  0  0  0  0
   -0.4640   -1.8243   -4.3938 H   0  0  0  0  0  0  0  0  0  0  0  0
   -0.5793   -0.5966   -5.4646 H   0  0  0  0  0  0  0  0  0  0  0  0
   -1.8647   -0.8658   -4.3898 H   0  0  0  0  0  0  0  0  0  0  0  0
   -0.0643    0.0273   -3.5608 C   0  0  0  0  0  0  0  0  0  0  0  0
   -0.4478    0.9524   -3.6495 H   0  0  0  0  0  0  0  0  0  0  0  0
   -0.2351   -0.3003   -2.6257 H   0  0  0  0  0  0  0  0  0  0  0  0
    1.4060    0.0815   -3.7992 N   0  0  0  0  0  4  0  0  0  0  0  0
    1.6123   -0.3267   -4.6874 H   0  0  0  0  0  0  0  0  0  0  0  0
    1.7074    1.0344   -3.7901 H   0  0  0  0  0  0  0  0  0  0  0  0
    1.8769   -0.4260   -3.0785 H   0  0  0  0  0  0  0  0  0  0  0  0
    0.0086    2.9058    0.0277 C   0  0  0  0  0  0  0  0  0  0  0  0
   -0.6257    3.2286   -0.6580 H   0  0  0  0  0  0  0  0  0  0  0  0
    0.9295    3.2125   -0.1616 H   0  0  0  0  0  0  0  0  0  0  0  0
   -0.2924    3.3311    0.9851 H   0  0  0  0  0  0  0  0  0  0  0  0
    0.0012    1.4048    0.0009 C   0  0  0  0  0  0  0  0  0  0  0  0
   -1.2021    0.6985   -0.0000 C   0  0  0  0  0  0  0  0  0  0  0  0
   -2.0651    1.1896   -0.0021 H   0  0  0  0  0  0  0  0  0  0  0  0
   -1.2096   -0.6984   -0.0000 C   0  0  0  0  0  0  0  0  0  0  0  0
   -2.0840   -1.1903    0.0012 H   0  0  0  0  0  0  0  0  0  0  0  0
   -0.0017   -1.4009   -0.0001 C   0  0  0  0  0  0  0  0  0  0  0  0
   -0.0056   -2.3956   -0.0012 H   0  0  0  0  0  0  0  0  0  0  0  0
    1.2096   -0.6994    0.0000 C   0  0  0  0  0  0  0  0  0  0  0  0
    2.0864   -1.1982    0.0021 H   0  0  0  0  0  0  0  0  0  0  0  0
    1.2026    0.6953   -0.0008 C   0  0  0  0  0  0  0  0  0  0  0  0
    2.0685    1.1931   -0.0033 H   0  0  0  0  0  0  0  0  0  0  0  0
  1  5  1  0
  5  8  1  0
  1  2  1  0
  1  3  1  0
  1  4  1  0
  5  6  1  0
  5  7  1  0
  8  9  1  0
  8 10  1  0
  8 11  1  0
 12 16  1  0
 16 17  2  0
 17 19  1  0
 19 21  2  0
 21 23  1  0
 23 25  2  0
 25 16  1  0
 12 13  1  0
 12 14  1  0
 12 15  1  0
 17 18  1  0
 19 20  1  0
 21 22  1  0
 23 24  1  0
 25 26  1  0
M  CHG  1   8   1
M  END
>  <PDB_ID>  (538) 
pdb2hyi

>  <RESIDUE_NAME>  (538) 
LYS   PHE

>  <FRAG_NAME>  (538) 
ETAM   MBZ

>  <FRAG_ATOM_NUM>  (538) 
fragi: 11  fragj: 15

>  <atom.prop.CHAIN_ID>  (538) 
A A A A A A A A A A A Z Z Z Z Z Z Z Z Z Z Z Z Z Z Z

>  <atom.prop.IS_HEAVY_ATOM>  (538) 
1 0 0 0 1 0 0 1 0 0 0 1 0 0 0 1 1 0 1 0 1 0 1 0 1 0

>  <DIFUSE_FUNC_ATOM>  (538) 
n/a

>  <FINAL_SINGLE_POINT_ENERGY>  (538) 
0

>  <NONCOV_INTER_ENERGY_QM>  (538) 
0

>  <FF_Energy>  (538) 
-6.36

>  <QM_Energy>  (538) 
-11.82

>  <source>  (538) 
ETAM_MBZ

>  <Index>  (538) 
5187

$$$$
ETAM-pdb2hvg-B-LYS-98:MBZ-pdb2hvg-B-PHE-94
     RDKit          3D

 26 25  0  0  0  0  0  0  0  0999 V2000
   -1.1021   -2.2500    4.0940 C   0  0  0  0  0  0  0  0  0  0  0  0
   -1.4182   -2.2115    5.0401 H   0  0  0  0  0  0  0  0  0  0  0  0
   -1.8480   -2.0060    3.4778 H   0  0  0  0  0  0  0  0  0  0  0  0
   -0.2906   -1.5337    3.9655 H   0  0  0  0  0  0  0  0  0  0  0  0
   -0.6633   -3.6665    3.7863 C   0  0  0  0  0  0  0  0  0  0  0  0
    0.2690   -3.8051    4.1259 H   0  0  0  0  0  0  0  0  0  0  0  0
   -1.2787   -4.3109    4.2457 H   0  0  0  0  0  0  0  0  0  0  0  0
   -0.6870   -3.9438    2.3131 N   0  0  0  0  0  4  0  0  0  0  0  0
   -0.1837   -4.7861    2.1318 H   0  0  0  0  0  0  0  0  0  0  0  0
   -1.6341   -4.0438    2.0151 H   0  0  0  0  0  0  0  0  0  0  0  0
   -0.2590   -3.1825    1.8308 H   0  0  0  0  0  0  0  0  0  0  0  0
   -0.0026    2.9104    0.0142 C   0  0  0  0  0  0  0  0  0  0  0  0
   -0.7186    3.2169   -0.5923 H   0  0  0  0  0  0  0  0  0  0  0  0
    0.8854    3.2185   -0.2860 H   0  0  0  0  0  0  0  0  0  0  0  0
   -0.1906    3.3384    0.9989 H   0  0  0  0  0  0  0  0  0  0  0  0
    0.0009    1.4004    0.0017 C   0  0  0  0  0  0  0  0  0  0  0  0
   -1.2001    0.6887   -0.0029 C   0  0  0  0  0  0  0  0  0  0  0  0
   -2.0648    1.1793   -0.0095 H   0  0  0  0  0  0  0  0  0  0  0  0
   -1.2034   -0.7021   -0.0000 C   0  0  0  0  0  0  0  0  0  0  0  0
   -2.0751   -1.1989    0.0067 H   0  0  0  0  0  0  0  0  0  0  0  0
    0.0048   -1.3943   -0.0048 C   0  0  0  0  0  0  0  0  0  0  0  0
    0.0056   -2.3915   -0.0123 H   0  0  0  0  0  0  0  0  0  0  0  0
    1.2034   -0.6887   -0.0000 C   0  0  0  0  0  0  0  0  0  0  0  0
    2.0868   -1.1864    0.0008 H   0  0  0  0  0  0  0  0  0  0  0  0
    1.1945    0.6961    0.0061 C   0  0  0  0  0  0  0  0  0  0  0  0
    2.0628    1.1962    0.0130 H   0  0  0  0  0  0  0  0  0  0  0  0
  1  5  1  0
  5  8  1  0
  1  2  1  0
  1  3  1  0
  1  4  1  0
  5  6  1  0
  5  7  1  0
  8  9  1  0
  8 10  1  0
  8 11  1  0
 12 16  1  0
 16 17  2  0
 17 19  1  0
 19 21  2  0
 21 23  1  0
 23 25  2  0
 25 16  1  0
 12 13  1  0
 12 14  1  0
 12 15  1  0
 17 18  1  0
 19 20  1  0
 21 22  1  0
 23 24  1  0
 25 26  1  0
M  CHG  1   8   1
M  END
>  <PDB_ID>  (539) 
pdb2hvg

>  <RESIDUE_NAME>  (539) 
LYS   PHE

>  <FRAG_NAME>  (539) 
ETAM   MBZ

>  <FRAG_ATOM_NUM>  (539) 
fragi: 11  fragj: 15

>  <atom.prop.CHAIN_ID>  (539) 
A A A A A A A A A A A Z Z Z Z Z Z Z Z Z Z Z Z Z Z Z

>  <atom.prop.IS_HEAVY_ATOM>  (539) 
1 0 0 0 1 0 0 1 0 0 0 1 0 0 0 1 1 0 1 0 1 0 1 0 1 0

>  <DIFUSE_FUNC_ATOM>  (539) 
n/a

>  <FINAL_SINGLE_POINT_ENERGY>  (539) 
0

>  <NONCOV_INTER_ENERGY_QM>  (539) 
0

>  <FF_Energy>  (539) 
-1.04

>  <QM_Energy>  (539) 
-7.25

>  <source>  (539) 
ETAM_MBZ

>  <Index>  (539) 
5188

$$$$
ETAM-pdb1h3n-A-LYS-640:MBZ-pdb1h3n-A-PHE-93
     RDKit          3D

 26 25  0  0  0  0  0  0  0  0999 V2000
   -1.7707   -6.3687   -1.0525 C   0  0  0  0  0  0  0  0  0  0  0  0
   -2.7089   -6.2923   -1.3899 H   0  0  0  0  0  0  0  0  0  0  0  0
   -1.7802   -6.4415   -0.0551 H   0  0  0  0  0  0  0  0  0  0  0  0
   -1.3200   -7.2704   -1.4673 H   0  0  0  0  0  0  0  0  0  0  0  0
   -1.0171   -5.1029   -1.4357 C   0  0  0  0  0  0  0  0  0  0  0  0
   -0.1226   -5.1115   -1.0027 H   0  0  0  0  0  0  0  0  0  0  0  0
   -0.9230   -5.0656   -2.4251 H   0  0  0  0  0  0  0  0  0  0  0  0
   -1.7774   -3.9012   -0.9687 N   0  0  0  0  0  4  0  0  0  0  0  0
   -2.1750   -4.0932   -0.0734 H   0  0  0  0  0  0  0  0  0  0  0  0
   -1.1540   -3.1247   -0.9028 H   0  0  0  0  0  0  0  0  0  0  0  0
   -2.5021   -3.6976   -1.6241 H   0  0  0  0  0  0  0  0  0  0  0  0
   -0.0019    2.9112    0.0410 C   0  0  0  0  0  0  0  0  0  0  0  0
   -0.7977    3.2301   -0.4488 H   0  0  0  0  0  0  0  0  0  0  0  0
    0.8336    3.2298   -0.3785 H   0  0  0  0  0  0  0  0  0  0  0  0
   -0.0458    3.3226    1.0495 H   0  0  0  0  0  0  0  0  0  0  0  0
   -0.0004    1.4064   -0.0003 C   0  0  0  0  0  0  0  0  0  0  0  0
   -1.1975    0.6966    0.0001 C   0  0  0  0  0  0  0  0  0  0  0  0
   -2.0653    1.1854   -0.0010 H   0  0  0  0  0  0  0  0  0  0  0  0
   -1.2046   -0.6999   -0.0000 C   0  0  0  0  0  0  0  0  0  0  0  0
   -2.0812   -1.1908    0.0006 H   0  0  0  0  0  0  0  0  0  0  0  0
   -0.0009   -1.3995    0.0009 C   0  0  0  0  0  0  0  0  0  0  0  0
   -0.0044   -2.3965    0.0022 H   0  0  0  0  0  0  0  0  0  0  0  0
    1.2046   -0.7004   -0.0000 C   0  0  0  0  0  0  0  0  0  0  0  0
    2.0847   -1.1959    0.0020 H   0  0  0  0  0  0  0  0  0  0  0  0
    1.1988    0.6967   -0.0008 C   0  0  0  0  0  0  0  0  0  0  0  0
    2.0664    1.1919   -0.0023 H   0  0  0  0  0  0  0  0  0  0  0  0
  1  5  1  0
  5  8  1  0
  1  2  1  0
  1  3  1  0
  1  4  1  0
  5  6  1  0
  5  7  1  0
  8  9  1  0
  8 10  1  0
  8 11  1  0
 12 16  1  0
 16 17  2  0
 17 19  1  0
 19 21  2  0
 21 23  1  0
 23 25  2  0
 25 16  1  0
 12 13  1  0
 12 14  1  0
 12 15  1  0
 17 18  1  0
 19 20  1  0
 21 22  1  0
 23 24  1  0
 25 26  1  0
M  CHG  1   8   1
M  END
>  <PDB_ID>  (540) 
pdb1h3n

>  <RESIDUE_NAME>  (540) 
LYS   PHE

>  <FRAG_NAME>  (540) 
ETAM   MBZ

>  <FRAG_ATOM_NUM>  (540) 
fragi: 11  fragj: 15

>  <atom.prop.CHAIN_ID>  (540) 
A A A A A A A A A A A Z Z Z Z Z Z Z Z Z Z Z Z Z Z Z

>  <atom.prop.IS_HEAVY_ATOM>  (540) 
1 0 0 0 1 0 0 1 0 0 0 1 0 0 0 1 1 0 1 0 1 0 1 0 1 0

>  <DIFUSE_FUNC_ATOM>  (540) 
n/a

>  <FINAL_SINGLE_POINT_ENERGY>  (540) 
0

>  <NONCOV_INTER_ENERGY_QM>  (540) 
0

>  <FF_Energy>  (540) 
2.32

>  <QM_Energy>  (540) 
-5.07

>  <source>  (540) 
ETAM_MBZ

>  <Index>  (540) 
5210

$$$$
ETAM-pdb2hzg-B-LYS-134:MBZ-pdb2hzg-B-PHE-319
     RDKit          3D

 26 25  0  0  0  0  0  0  0  0999 V2000
   -1.9863   -1.4268    3.7703 C   0  0  0  0  0  0  0  0  0  0  0  0
   -2.3538   -1.6603    2.8778 H   0  0  0  0  0  0  0  0  0  0  0  0
   -2.7136   -1.3534    4.4412 H   0  0  0  0  0  0  0  0  0  0  0  0
   -1.2778   -2.1936    4.0837 H   0  0  0  0  0  0  0  0  0  0  0  0
   -1.3019   -0.0574    3.6589 C   0  0  0  0  0  0  0  0  0  0  0  0
   -0.8818    0.1625    4.5313 H   0  0  0  0  0  0  0  0  0  0  0  0
   -0.6165   -0.0983    2.9420 H   0  0  0  0  0  0  0  0  0  0  0  0
   -2.3147    0.9923    3.3173 N   0  0  0  0  0  4  0  0  0  0  0  0
   -1.8437    1.7954    2.9566 H   0  0  0  0  0  0  0  0  0  0  0  0
   -2.9415    0.6297    2.6303 H   0  0  0  0  0  0  0  0  0  0  0  0
   -2.8209    1.2382    4.1418 H   0  0  0  0  0  0  0  0  0  0  0  0
   -0.0329    2.9688   -0.0619 C   0  0  0  0  0  0  0  0  0  0  0  0
   -0.9660    3.2489    0.1296 H   0  0  0  0  0  0  0  0  0  0  0  0
    0.2290    3.2297   -0.9840 H   0  0  0  0  0  0  0  0  0  0  0  0
    0.6211    3.4988    0.6305 H   0  0  0  0  0  0  0  0  0  0  0  0
    0.0053    1.4297    0.0067 C   0  0  0  0  0  0  0  0  0  0  0  0
   -1.1989    0.7120   -0.0116 C   0  0  0  0  0  0  0  0  0  0  0  0
   -2.0663    1.1932   -0.0347 H   0  0  0  0  0  0  0  0  0  0  0  0
   -1.2162   -0.7134   -0.0000 C   0  0  0  0  0  0  0  0  0  0  0  0
   -2.0956   -1.1854    0.0083 H   0  0  0  0  0  0  0  0  0  0  0  0
   -0.0124   -1.4253    0.0017 C   0  0  0  0  0  0  0  0  0  0  0  0
   -0.0121   -2.4143    0.0039 H   0  0  0  0  0  0  0  0  0  0  0  0
    1.2162   -0.7163   -0.0000 C   0  0  0  0  0  0  0  0  0  0  0  0
    2.0875   -1.2024   -0.0020 H   0  0  0  0  0  0  0  0  0  0  0  0
    1.2060    0.7133    0.0033 C   0  0  0  0  0  0  0  0  0  0  0  0
    2.0774    1.1947    0.0022 H   0  0  0  0  0  0  0  0  0  0  0  0
  1  5  1  0
  5  8  1  0
  1  2  1  0
  1  3  1  0
  1  4  1  0
  5  6  1  0
  5  7  1  0
  8  9  1  0
  8 10  1  0
  8 11  1  0
 12 16  1  0
 16 17  2  0
 17 19  1  0
 19 21  2  0
 21 23  1  0
 23 25  2  0
 25 16  1  0
 12 13  1  0
 12 14  1  0
 12 15  1  0
 17 18  1  0
 19 20  1  0
 21 22  1  0
 23 24  1  0
 25 26  1  0
M  CHG  1   8   1
M  END
>  <PDB_ID>  (541) 
pdb2hzg

>  <RESIDUE_NAME>  (541) 
LYS   PHE

>  <FRAG_NAME>  (541) 
ETAM   MBZ

>  <FRAG_ATOM_NUM>  (541) 
fragi: 11  fragj: 15

>  <atom.prop.CHAIN_ID>  (541) 
A A A A A A A A A A A Z Z Z Z Z Z Z Z Z Z Z Z Z Z Z

>  <atom.prop.IS_HEAVY_ATOM>  (541) 
1 0 0 0 1 0 0 1 0 0 0 1 0 0 0 1 1 0 1 0 1 0 1 0 1 0

>  <DIFUSE_FUNC_ATOM>  (541) 
n/a

>  <FINAL_SINGLE_POINT_ENERGY>  (541) 
0

>  <NONCOV_INTER_ENERGY_QM>  (541) 
0

>  <FF_Energy>  (541) 
-5.36

>  <QM_Energy>  (541) 
-10.86

>  <source>  (541) 
ETAM_MBZ

>  <Index>  (541) 
5213

$$$$
ETAM-pdb2hzm-G-LYS-149:MBZ-pdb2hzm-G-PHE-8
     RDKit          3D

 26 25  0  0  0  0  0  0  0  0999 V2000
    1.4410   -5.1726   -2.2808 C   0  0  0  0  0  0  0  0  0  0  0  0
    1.4921   -6.0846   -2.6700 H   0  0  0  0  0  0  0  0  0  0  0  0
    0.8069   -4.6076   -2.7953 H   0  0  0  0  0  0  0  0  0  0  0  0
    1.0980   -5.2450   -1.2487 H   0  0  0  0  0  0  0  0  0  0  0  0
    2.8275   -4.5363   -2.3596 C   0  0  0  0  0  0  0  0  0  0  0  0
    3.4697   -5.0962   -1.8249 H   0  0  0  0  0  0  0  0  0  0  0  0
    3.1281   -4.5348   -3.3194 H   0  0  0  0  0  0  0  0  0  0  0  0
    2.8471   -3.1384   -1.8401 N   0  0  0  0  0  4  0  0  0  0  0  0
    1.9176   -2.7717   -1.8444 H   0  0  0  0  0  0  0  0  0  0  0  0
    3.2044   -3.1386   -0.9075 H   0  0  0  0  0  0  0  0  0  0  0  0
    3.4315   -2.5771   -2.4241 H   0  0  0  0  0  0  0  0  0  0  0  0
    0.0035    2.9124   -0.0421 C   0  0  0  0  0  0  0  0  0  0  0  0
   -0.3553    3.1932   -0.9200 H   0  0  0  0  0  0  0  0  0  0  0  0
    0.9363    3.2174    0.0780 H   0  0  0  0  0  0  0  0  0  0  0  0
   -0.6033    3.3811    0.7326 H   0  0  0  0  0  0  0  0  0  0  0  0
   -0.0002    1.4047   -0.0008 C   0  0  0  0  0  0  0  0  0  0  0  0
   -1.1948    0.6979    0.0008 C   0  0  0  0  0  0  0  0  0  0  0  0
   -2.0628    1.1870    0.0015 H   0  0  0  0  0  0  0  0  0  0  0  0
   -1.2006   -0.6950   -0.0000 C   0  0  0  0  0  0  0  0  0  0  0  0
   -2.0795   -1.1859    0.0016 H   0  0  0  0  0  0  0  0  0  0  0  0
   -0.0016   -1.3956   -0.0010 C   0  0  0  0  0  0  0  0  0  0  0  0
   -0.0089   -2.3946   -0.0030 H   0  0  0  0  0  0  0  0  0  0  0  0
    1.2006   -0.7035    0.0000 C   0  0  0  0  0  0  0  0  0  0  0  0
    2.0803   -1.1998    0.0017 H   0  0  0  0  0  0  0  0  0  0  0  0
    1.1966    0.6916    0.0009 C   0  0  0  0  0  0  0  0  0  0  0  0
    2.0653    1.1858    0.0023 H   0  0  0  0  0  0  0  0  0  0  0  0
  1  5  1  0
  5  8  1  0
  1  2  1  0
  1  3  1  0
  1  4  1  0
  5  6  1  0
  5  7  1  0
  8  9  1  0
  8 10  1  0
  8 11  1  0
 12 16  1  0
 16 17  2  0
 17 19  1  0
 19 21  2  0
 21 23  1  0
 23 25  2  0
 25 16  1  0
 12 13  1  0
 12 14  1  0
 12 15  1  0
 17 18  1  0
 19 20  1  0
 21 22  1  0
 23 24  1  0
 25 26  1  0
M  CHG  1   8   1
M  END
>  <PDB_ID>  (542) 
pdb2hzm

>  <RESIDUE_NAME>  (542) 
LYS   PHE

>  <FRAG_NAME>  (542) 
ETAM   MBZ

>  <FRAG_ATOM_NUM>  (542) 
fragi: 11  fragj: 15

>  <atom.prop.CHAIN_ID>  (542) 
A A A A A A A A A A A Z Z Z Z Z Z Z Z Z Z Z Z Z Z Z

>  <atom.prop.IS_HEAVY_ATOM>  (542) 
1 0 0 0 1 0 0 1 0 0 0 1 0 0 0 1 1 0 1 0 1 0 1 0 1 0

>  <DIFUSE_FUNC_ATOM>  (542) 
n/a

>  <FINAL_SINGLE_POINT_ENERGY>  (542) 
0

>  <NONCOV_INTER_ENERGY_QM>  (542) 
0

>  <FF_Energy>  (542) 
-0.04

>  <QM_Energy>  (542) 
-5.73

>  <source>  (542) 
ETAM_MBZ

>  <Index>  (542) 
5224

$$$$
ETAM-pdb2i00-A-LYS-53:MBZ-pdb2i00-A-PHE-31
     RDKit          3D

 26 25  0  0  0  0  0  0  0  0999 V2000
    3.4385   -2.0754    3.1048 C   0  0  0  0  0  0  0  0  0  0  0  0
    3.5458   -1.1036    3.2819 H   0  0  0  0  0  0  0  0  0  0  0  0
    3.9486   -2.3416    2.2951 H   0  0  0  0  0  0  0  0  0  0  0  0
    3.8028   -2.6397    3.9632 H   0  0  0  0  0  0  0  0  0  0  0  0
    1.9423   -2.3476    2.8349 C   0  0  0  0  0  0  0  0  0  0  0  0
    1.4655   -2.4165    3.7300 H   0  0  0  0  0  0  0  0  0  0  0  0
    1.5535   -1.5392    2.3565 H   0  0  0  0  0  0  0  0  0  0  0  0
    1.6348   -3.5805    2.0276 N   0  0  0  0  0  4  0  0  0  0  0  0
    1.3007   -4.2928    2.6406 H   0  0  0  0  0  0  0  0  0  0  0  0
    0.9382   -3.3576    1.3509 H   0  0  0  0  0  0  0  0  0  0  0  0
    2.4677   -3.8849    1.5724 H   0  0  0  0  0  0  0  0  0  0  0  0
   -0.0130    2.9035   -0.0319 C   0  0  0  0  0  0  0  0  0  0  0  0
    0.8931    3.2293    0.1735 H   0  0  0  0  0  0  0  0  0  0  0  0
   -0.6796    3.2268    0.6166 H   0  0  0  0  0  0  0  0  0  0  0  0
   -0.2895    3.2967   -1.0101 H   0  0  0  0  0  0  0  0  0  0  0  0
    0.0003    1.4103    0.0065 C   0  0  0  0  0  0  0  0  0  0  0  0
   -1.2003    0.6932   -0.0041 C   0  0  0  0  0  0  0  0  0  0  0  0
   -2.0677    1.1823   -0.0167 H   0  0  0  0  0  0  0  0  0  0  0  0
   -1.2107   -0.7088   -0.0000 C   0  0  0  0  0  0  0  0  0  0  0  0
   -2.0819   -1.1987    0.0030 H   0  0  0  0  0  0  0  0  0  0  0  0
    0.0020   -1.4083    0.0019 C   0  0  0  0  0  0  0  0  0  0  0  0
    0.0041   -2.4006    0.0038 H   0  0  0  0  0  0  0  0  0  0  0  0
    1.2107   -0.6955    0.0000 C   0  0  0  0  0  0  0  0  0  0  0  0
    2.0918   -1.1860    0.0030 H   0  0  0  0  0  0  0  0  0  0  0  0
    1.1981    0.7091   -0.0043 C   0  0  0  0  0  0  0  0  0  0  0  0
    2.0662    1.2030   -0.0162 H   0  0  0  0  0  0  0  0  0  0  0  0
  1  5  1  0
  5  8  1  0
  1  2  1  0
  1  3  1  0
  1  4  1  0
  5  6  1  0
  5  7  1  0
  8  9  1  0
  8 10  1  0
  8 11  1  0
 12 16  1  0
 16 17  2  0
 17 19  1  0
 19 21  2  0
 21 23  1  0
 23 25  2  0
 25 16  1  0
 12 13  1  0
 12 14  1  0
 12 15  1  0
 17 18  1  0
 19 20  1  0
 21 22  1  0
 23 24  1  0
 25 26  1  0
M  CHG  1   8   1
M  END
>  <PDB_ID>  (543) 
pdb2i00

>  <RESIDUE_NAME>  (543) 
LYS   PHE

>  <FRAG_NAME>  (543) 
ETAM   MBZ

>  <FRAG_ATOM_NUM>  (543) 
fragi: 11  fragj: 15

>  <atom.prop.CHAIN_ID>  (543) 
A A A A A A A A A A A Z Z Z Z Z Z Z Z Z Z Z Z Z Z Z

>  <atom.prop.IS_HEAVY_ATOM>  (543) 
1 0 0 0 1 0 0 1 0 0 0 1 0 0 0 1 1 0 1 0 1 0 1 0 1 0

>  <DIFUSE_FUNC_ATOM>  (543) 
n/a

>  <FINAL_SINGLE_POINT_ENERGY>  (543) 
0

>  <NONCOV_INTER_ENERGY_QM>  (543) 
0

>  <FF_Energy>  (543) 
0.07

>  <QM_Energy>  (543) 
-7.3

>  <source>  (543) 
ETAM_MBZ

>  <Index>  (543) 
5239

$$$$
ETAM-pdb2i10-B-ASP-11:MBZ-pdb2i10-B-PHE-50
     RDKit          3D

 26 25  0  0  0  0  0  0  0  0999 V2000
   -1.6770   -6.6588   -0.9817 C   0  0  0  0  0  0  0  0  0  0  0  0
   -2.0845   -7.4396   -0.5273 H   0  0  0  0  0  0  0  0  0  0  0  0
   -1.5722   -6.8290   -1.9520 H   0  0  0  0  0  0  0  0  0  0  0  0
   -0.6900   -6.4870   -0.5521 H   0  0  0  0  0  0  0  0  0  0  0  0
   -2.6338   -5.4545   -0.8097 C   0  0  0  0  0  0  0  0  0  0  0  0
   -3.3419   -5.6544   -1.5177 H   0  0  0  0  0  0  0  0  0  0  0  0
   -3.1350   -5.4660    0.1581 H   0  0  0  0  0  0  0  0  0  0  0  0
   -1.9997   -4.1505   -1.2152 N   0  0  0  0  0  4  0  0  0  0  0  0
   -2.5196   -3.7632   -1.9698 H   0  0  0  0  0  0  0  0  0  0  0  0
   -2.0127   -3.5326   -0.4360 H   0  0  0  0  0  0  0  0  0  0  0  0
   -1.0631   -4.3255   -1.4984 H   0  0  0  0  0  0  0  0  0  0  0  0
   -0.0009    2.8990   -0.0466 C   0  0  0  0  0  0  0  0  0  0  0  0
    0.9184    3.2238    0.1026 H   0  0  0  0  0  0  0  0  0  0  0  0
   -0.6237    3.2337    0.6406 H   0  0  0  0  0  0  0  0  0  0  0  0
   -0.3316    3.3064   -1.0019 H   0  0  0  0  0  0  0  0  0  0  0  0
    0.0048    1.4063   -0.0035 C   0  0  0  0  0  0  0  0  0  0  0  0
   -1.1978    0.6965   -0.0040 C   0  0  0  0  0  0  0  0  0  0  0  0
   -2.0634    1.1879   -0.0086 H   0  0  0  0  0  0  0  0  0  0  0  0
   -1.2122   -0.7046    0.0000 C   0  0  0  0  0  0  0  0  0  0  0  0
   -2.0885   -1.1897   -0.0006 H   0  0  0  0  0  0  0  0  0  0  0  0
   -0.0082   -1.4039    0.0063 C   0  0  0  0  0  0  0  0  0  0  0  0
   -0.0055   -2.3990    0.0151 H   0  0  0  0  0  0  0  0  0  0  0  0
    1.2122   -0.7003   -0.0000 C   0  0  0  0  0  0  0  0  0  0  0  0
    2.0850   -1.1947   -0.0034 H   0  0  0  0  0  0  0  0  0  0  0  0
    1.2012    0.7060    0.0012 C   0  0  0  0  0  0  0  0  0  0  0  0
    2.0696    1.1976    0.0047 H   0  0  0  0  0  0  0  0  0  0  0  0
  1  5  1  0
  5  8  1  0
  1  2  1  0
  1  3  1  0
  1  4  1  0
  5  6  1  0
  5  7  1  0
  8  9  1  0
  8 10  1  0
  8 11  1  0
 12 16  1  0
 16 17  2  0
 17 19  1  0
 19 21  2  0
 21 23  1  0
 23 25  2  0
 25 16  1  0
 12 13  1  0
 12 14  1  0
 12 15  1  0
 17 18  1  0
 19 20  1  0
 21 22  1  0
 23 24  1  0
 25 26  1  0
M  CHG  1   8   1
M  END
>  <PDB_ID>  (544) 
pdb2i10

>  <RESIDUE_NAME>  (544) 
ASP   PHE

>  <FRAG_NAME>  (544) 
ETAM   MBZ

>  <FRAG_ATOM_NUM>  (544) 
fragi: 11  fragj: 15

>  <atom.prop.CHAIN_ID>  (544) 
A A A A A A A A A A A Z Z Z Z Z Z Z Z Z Z Z Z Z Z Z

>  <atom.prop.IS_HEAVY_ATOM>  (544) 
1 0 0 0 1 0 0 1 0 0 0 1 0 0 0 1 1 0 1 0 1 0 1 0 1 0

>  <DIFUSE_FUNC_ATOM>  (544) 
n/a

>  <FINAL_SINGLE_POINT_ENERGY>  (544) 
0

>  <NONCOV_INTER_ENERGY_QM>  (544) 
0

>  <FF_Energy>  (544) 
0.84

>  <QM_Energy>  (544) 
-4.2

>  <source>  (544) 
ETAM_MBZ

>  <Index>  (544) 
5248

$$$$
ETAM-pdb2i15-C-LYS-409:MBZ-pdb2i15-A-PHE-63
     RDKit          3D

 26 25  0  0  0  0  0  0  0  0999 V2000
    4.5789    1.4750   -1.5330 C   0  0  0  0  0  0  0  0  0  0  0  0
    3.8518    1.5948   -0.8580 H   0  0  0  0  0  0  0  0  0  0  0  0
    4.8294    2.3627   -1.9178 H   0  0  0  0  0  0  0  0  0  0  0  0
    5.4497    1.0329   -1.0490 H   0  0  0  0  0  0  0  0  0  0  0  0
    4.0406    0.6025   -2.6616 C   0  0  0  0  0  0  0  0  0  0  0  0
    3.8012    1.1896   -3.4400 H   0  0  0  0  0  0  0  0  0  0  0  0
    4.7592   -0.0373   -2.9496 H   0  0  0  0  0  0  0  0  0  0  0  0
    2.8334   -0.1761   -2.2482 N   0  0  0  0  0  4  0  0  0  0  0  0
    3.1217   -0.9704   -1.7167 H   0  0  0  0  0  0  0  0  0  0  0  0
    2.2421    0.4056   -1.6921 H   0  0  0  0  0  0  0  0  0  0  0  0
    2.3415   -0.4762   -3.0631 H   0  0  0  0  0  0  0  0  0  0  0  0
   -0.0073    2.8994   -0.0403 C   0  0  0  0  0  0  0  0  0  0  0  0
   -0.3682    3.2293    0.8200 H   0  0  0  0  0  0  0  0  0  0  0  0
   -0.5756    3.1849   -0.7991 H   0  0  0  0  0  0  0  0  0  0  0  0
    0.9805    3.3385   -0.1791 H   0  0  0  0  0  0  0  0  0  0  0  0
   -0.0008    1.4043   -0.0003 C   0  0  0  0  0  0  0  0  0  0  0  0
   -1.1992    0.6981    0.0021 C   0  0  0  0  0  0  0  0  0  0  0  0
   -2.0657    1.1875    0.0047 H   0  0  0  0  0  0  0  0  0  0  0  0
   -1.2071   -0.6978    0.0000 C   0  0  0  0  0  0  0  0  0  0  0  0
   -2.0817   -1.1900    0.0007 H   0  0  0  0  0  0  0  0  0  0  0  0
    0.0004   -1.4002   -0.0016 C   0  0  0  0  0  0  0  0  0  0  0  0
   -0.0053   -2.3961   -0.0044 H   0  0  0  0  0  0  0  0  0  0  0  0
    1.2071   -0.7003   -0.0000 C   0  0  0  0  0  0  0  0  0  0  0  0
    2.0861   -1.1965    0.0030 H   0  0  0  0  0  0  0  0  0  0  0  0
    1.1996    0.6959   -0.0002 C   0  0  0  0  0  0  0  0  0  0  0  0
    2.0663    1.1927   -0.0012 H   0  0  0  0  0  0  0  0  0  0  0  0
  1  5  1  0
  5  8  1  0
  1  2  1  0
  1  3  1  0
  1  4  1  0
  5  6  1  0
  5  7  1  0
  8  9  1  0
  8 10  1  0
  8 11  1  0
 12 16  1  0
 16 17  2  0
 17 19  1  0
 19 21  2  0
 21 23  1  0
 23 25  2  0
 25 16  1  0
 12 13  1  0
 12 14  1  0
 12 15  1  0
 17 18  1  0
 19 20  1  0
 21 22  1  0
 23 24  1  0
 25 26  1  0
M  CHG  1   8   1
M  END
>  <PDB_ID>  (545) 
pdb2i15

>  <RESIDUE_NAME>  (545) 
LYS   PHE

>  <FRAG_NAME>  (545) 
ETAM   MBZ

>  <FRAG_ATOM_NUM>  (545) 
fragi: 11  fragj: 15

>  <atom.prop.CHAIN_ID>  (545) 
A A A A A A A A A A A Z Z Z Z Z Z Z Z Z Z Z Z Z Z Z

>  <atom.prop.IS_HEAVY_ATOM>  (545) 
1 0 0 0 1 0 0 1 0 0 0 1 0 0 0 1 1 0 1 0 1 0 1 0 1 0

>  <DIFUSE_FUNC_ATOM>  (545) 
n/a

>  <FINAL_SINGLE_POINT_ENERGY>  (545) 
0

>  <NONCOV_INTER_ENERGY_QM>  (545) 
0

>  <FF_Energy>  (545) 
2.6

>  <QM_Energy>  (545) 
-6.42

>  <source>  (545) 
ETAM_MBZ

>  <Index>  (545) 
5259

$$$$
ETAM-pdb2i2q-A-LYS-20:MBZ-pdb2i2q-A-PHE-16
     RDKit          3D

 26 25  0  0  0  0  0  0  0  0999 V2000
    2.0020   -3.0840    3.3446 C   0  0  0  0  0  0  0  0  0  0  0  0
    2.4233   -3.9809    3.4637 H   0  0  0  0  0  0  0  0  0  0  0  0
    1.2139   -3.1578    2.7370 H   0  0  0  0  0  0  0  0  0  0  0  0
    1.6603   -2.7292    4.3170 H   0  0  0  0  0  0  0  0  0  0  0  0
    3.0155   -2.1485    2.7177 C   0  0  0  0  0  0  0  0  0  0  0  0
    2.5821   -1.2642    2.5439 H   0  0  0  0  0  0  0  0  0  0  0  0
    3.7810   -2.0238    3.3494 H   0  0  0  0  0  0  0  0  0  0  0  0
    3.5261   -2.7030    1.4342 N   0  0  0  0  0  4  0  0  0  0  0  0
    4.4741   -2.9975    1.5536 H   0  0  0  0  0  0  0  0  0  0  0  0
    2.9643   -3.4842    1.1635 H   0  0  0  0  0  0  0  0  0  0  0  0
    3.4812   -1.9980    0.7274 H   0  0  0  0  0  0  0  0  0  0  0  0
    0.0009    2.9053    0.0573 C   0  0  0  0  0  0  0  0  0  0  0  0
   -0.6731    3.2369   -0.5840 H   0  0  0  0  0  0  0  0  0  0  0  0
    0.9074    3.2204   -0.1747 H   0  0  0  0  0  0  0  0  0  0  0  0
   -0.2495    3.3028    1.0410 H   0  0  0  0  0  0  0  0  0  0  0  0
    0.0001    1.4049    0.0007 C   0  0  0  0  0  0  0  0  0  0  0  0
   -1.1972    0.6952   -0.0005 C   0  0  0  0  0  0  0  0  0  0  0  0
   -2.0635    1.1837   -0.0032 H   0  0  0  0  0  0  0  0  0  0  0  0
   -1.2012   -0.6990    0.0000 C   0  0  0  0  0  0  0  0  0  0  0  0
   -2.0769   -1.1924    0.0012 H   0  0  0  0  0  0  0  0  0  0  0  0
    0.0025   -1.3971    0.0013 C   0  0  0  0  0  0  0  0  0  0  0  0
   -0.0032   -2.3947    0.0030 H   0  0  0  0  0  0  0  0  0  0  0  0
    1.2012   -0.6996   -0.0000 C   0  0  0  0  0  0  0  0  0  0  0  0
    2.0836   -1.1931    0.0014 H   0  0  0  0  0  0  0  0  0  0  0  0
    1.1946    0.6956   -0.0015 C   0  0  0  0  0  0  0  0  0  0  0  0
    2.0650    1.1897   -0.0052 H   0  0  0  0  0  0  0  0  0  0  0  0
  1  5  1  0
  5  8  1  0
  1  2  1  0
  1  3  1  0
  1  4  1  0
  5  6  1  0
  5  7  1  0
  8  9  1  0
  8 10  1  0
  8 11  1  0
 12 16  1  0
 16 17  2  0
 17 19  1  0
 19 21  2  0
 21 23  1  0
 23 25  2  0
 25 16  1  0
 12 13  1  0
 12 14  1  0
 12 15  1  0
 17 18  1  0
 19 20  1  0
 21 22  1  0
 23 24  1  0
 25 26  1  0
M  CHG  1   8   1
M  END
>  <PDB_ID>  (546) 
pdb2i2q

>  <RESIDUE_NAME>  (546) 
LYS   PHE

>  <FRAG_NAME>  (546) 
ETAM   MBZ

>  <FRAG_ATOM_NUM>  (546) 
fragi: 11  fragj: 15

>  <atom.prop.CHAIN_ID>  (546) 
A A A A A A A A A A A Z Z Z Z Z Z Z Z Z Z Z Z Z Z Z

>  <atom.prop.IS_HEAVY_ATOM>  (546) 
1 0 0 0 1 0 0 1 0 0 0 1 0 0 0 1 1 0 1 0 1 0 1 0 1 0

>  <DIFUSE_FUNC_ATOM>  (546) 
n/a

>  <FINAL_SINGLE_POINT_ENERGY>  (546) 
0

>  <NONCOV_INTER_ENERGY_QM>  (546) 
0

>  <FF_Energy>  (546) 
1.19

>  <QM_Energy>  (546) 
-4.64

>  <source>  (546) 
ETAM_MBZ

>  <Index>  (546) 
5289

$$$$
ETAM-pdb2i33-A-LYS-210:MBZ-pdb2i33-A-PHE-177
     RDKit          3D

 26 25  0  0  0  0  0  0  0  0999 V2000
    5.5903   -0.7025    0.6718 C   0  0  0  0  0  0  0  0  0  0  0  0
    6.5272   -1.0159    0.5336 H   0  0  0  0  0  0  0  0  0  0  0  0
    5.4292   -0.5333    1.6427 H   0  0  0  0  0  0  0  0  0  0  0  0
    5.4597    0.2363    0.1335 H   0  0  0  0  0  0  0  0  0  0  0  0
    4.6371   -1.7767    0.1960 C   0  0  0  0  0  0  0  0  0  0  0  0
    3.6979   -1.4639    0.3336 H   0  0  0  0  0  0  0  0  0  0  0  0
    4.7947   -1.9471   -0.7752 H   0  0  0  0  0  0  0  0  0  0  0  0
    4.8525   -3.0313    0.9555 N   0  0  0  0  0  4  0  0  0  0  0  0
    4.7367   -2.8540    1.9336 H   0  0  0  0  0  0  0  0  0  0  0  0
    4.1868   -3.7189    0.6617 H   0  0  0  0  0  0  0  0  0  0  0  0
    5.7777   -3.3707    0.7862 H   0  0  0  0  0  0  0  0  0  0  0  0
    0.0157    2.8543   -0.0330 C   0  0  0  0  0  0  0  0  0  0  0  0
    0.7921    3.1799    0.4901 H   0  0  0  0  0  0  0  0  0  0  0  0
   -0.8349    3.1841    0.3529 H   0  0  0  0  0  0  0  0  0  0  0  0
    0.1011    3.2633   -1.0397 H   0  0  0  0  0  0  0  0  0  0  0  0
    0.0091    1.3856   -0.0030 C   0  0  0  0  0  0  0  0  0  0  0  0
   -1.1851    0.6851   -0.0080 C   0  0  0  0  0  0  0  0  0  0  0  0
   -2.0494    1.1901   -0.0182 H   0  0  0  0  0  0  0  0  0  0  0  0
   -1.1915   -0.6747    0.0000 C   0  0  0  0  0  0  0  0  0  0  0  0
   -2.0818   -1.1711   -0.0059 H   0  0  0  0  0  0  0  0  0  0  0  0
   -0.0208   -1.3722    0.0173 C   0  0  0  0  0  0  0  0  0  0  0  0
   -0.0319   -2.3790    0.0423 H   0  0  0  0  0  0  0  0  0  0  0  0
    1.1915   -0.7041    0.0000 C   0  0  0  0  0  0  0  0  0  0  0  0
    2.0613   -1.2135   -0.0059 H   0  0  0  0  0  0  0  0  0  0  0  0
    1.1967    0.6803   -0.0063 C   0  0  0  0  0  0  0  0  0  0  0  0
    2.0675    1.1723   -0.0147 H   0  0  0  0  0  0  0  0  0  0  0  0
  1  5  1  0
  5  8  1  0
  1  2  1  0
  1  3  1  0
  1  4  1  0
  5  6  1  0
  5  7  1  0
  8  9  1  0
  8 10  1  0
  8 11  1  0
 12 16  1  0
 16 17  2  0
 17 19  1  0
 19 21  2  0
 21 23  1  0
 23 25  2  0
 25 16  1  0
 12 13  1  0
 12 14  1  0
 12 15  1  0
 17 18  1  0
 19 20  1  0
 21 22  1  0
 23 24  1  0
 25 26  1  0
M  CHG  1   8   1
M  END
>  <PDB_ID>  (547) 
pdb2i33

>  <RESIDUE_NAME>  (547) 
LYS   PHE

>  <FRAG_NAME>  (547) 
ETAM   MBZ

>  <FRAG_ATOM_NUM>  (547) 
fragi: 11  fragj: 15

>  <atom.prop.CHAIN_ID>  (547) 
A A A A A A A A A A A Z Z Z Z Z Z Z Z Z Z Z Z Z Z Z

>  <atom.prop.IS_HEAVY_ATOM>  (547) 
1 0 0 0 1 0 0 1 0 0 0 1 0 0 0 1 1 0 1 0 1 0 1 0 1 0

>  <DIFUSE_FUNC_ATOM>  (547) 
n/a

>  <FINAL_SINGLE_POINT_ENERGY>  (547) 
0

>  <NONCOV_INTER_ENERGY_QM>  (547) 
0

>  <FF_Energy>  (547) 
8.87

>  <QM_Energy>  (547) 
-0.26

>  <source>  (547) 
ETAM_MBZ

>  <Index>  (547) 
5290

$$$$
ETAM-pdb2i44-B-LYS-225:MBZ-pdb2i44-B-PHE-221
     RDKit          3D

 26 25  0  0  0  0  0  0  0  0999 V2000
    2.2550   -1.9092    3.1435 C   0  0  0  0  0  0  0  0  0  0  0  0
    2.2310   -2.8056    3.5828 H   0  0  0  0  0  0  0  0  0  0  0  0
    1.4541   -1.7978    2.5594 H   0  0  0  0  0  0  0  0  0  0  0  0
    2.2264   -1.1440    3.9191 H   0  0  0  0  0  0  0  0  0  0  0  0
    3.5084   -1.8276    2.2721 C   0  0  0  0  0  0  0  0  0  0  0  0
    3.4982   -0.9594    1.7709 H   0  0  0  0  0  0  0  0  0  0  0  0
    4.3173   -1.8540    2.8638 H   0  0  0  0  0  0  0  0  0  0  0  0
    3.5877   -2.9579    1.2885 N   0  0  0  0  0  4  0  0  0  0  0  0
    2.8817   -2.8358    0.5948 H   0  0  0  0  0  0  0  0  0  0  0  0
    4.4886   -2.9545    0.8609 H   0  0  0  0  0  0  0  0  0  0  0  0
    3.4451   -3.8195    1.7704 H   0  0  0  0  0  0  0  0  0  0  0  0
    0.0011    2.9086   -0.0036 C   0  0  0  0  0  0  0  0  0  0  0  0
   -0.7658    3.2124   -0.5473 H   0  0  0  0  0  0  0  0  0  0  0  0
    0.8590    3.2114   -0.3885 H   0  0  0  0  0  0  0  0  0  0  0  0
   -0.0950    3.3513    0.9879 H   0  0  0  0  0  0  0  0  0  0  0  0
   -0.0008    1.4024   -0.0003 C   0  0  0  0  0  0  0  0  0  0  0  0
   -1.1984    0.6935    0.0006 C   0  0  0  0  0  0  0  0  0  0  0  0
   -2.0642    1.1851    0.0003 H   0  0  0  0  0  0  0  0  0  0  0  0
   -1.2039   -0.6963    0.0000 C   0  0  0  0  0  0  0  0  0  0  0  0
   -2.0788   -1.1919    0.0022 H   0  0  0  0  0  0  0  0  0  0  0  0
    0.0014   -1.3948   -0.0015 C   0  0  0  0  0  0  0  0  0  0  0  0
   -0.0048   -2.3935   -0.0043 H   0  0  0  0  0  0  0  0  0  0  0  0
    1.2039   -0.6992   -0.0000 C   0  0  0  0  0  0  0  0  0  0  0  0
    2.0847   -1.1952    0.0023 H   0  0  0  0  0  0  0  0  0  0  0  0
    1.1977    0.6944    0.0011 C   0  0  0  0  0  0  0  0  0  0  0  0
    2.0654    1.1908    0.0024 H   0  0  0  0  0  0  0  0  0  0  0  0
  1  5  1  0
  5  8  1  0
  1  2  1  0
  1  3  1  0
  1  4  1  0
  5  6  1  0
  5  7  1  0
  8  9  1  0
  8 10  1  0
  8 11  1  0
 12 16  1  0
 16 17  2  0
 17 19  1  0
 19 21  2  0
 21 23  1  0
 23 25  2  0
 25 16  1  0
 12 13  1  0
 12 14  1  0
 12 15  1  0
 17 18  1  0
 19 20  1  0
 21 22  1  0
 23 24  1  0
 25 26  1  0
M  CHG  1   8   1
M  END
>  <PDB_ID>  (548) 
pdb2i44

>  <RESIDUE_NAME>  (548) 
LYS   PHE

>  <FRAG_NAME>  (548) 
ETAM   MBZ

>  <FRAG_ATOM_NUM>  (548) 
fragi: 11  fragj: 15

>  <atom.prop.CHAIN_ID>  (548) 
A A A A A A A A A A A Z Z Z Z Z Z Z Z Z Z Z Z Z Z Z

>  <atom.prop.IS_HEAVY_ATOM>  (548) 
1 0 0 0 1 0 0 1 0 0 0 1 0 0 0 1 1 0 1 0 1 0 1 0 1 0

>  <DIFUSE_FUNC_ATOM>  (548) 
n/a

>  <FINAL_SINGLE_POINT_ENERGY>  (548) 
0

>  <NONCOV_INTER_ENERGY_QM>  (548) 
0

>  <FF_Energy>  (548) 
0.93

>  <QM_Energy>  (548) 
-4.91

>  <source>  (548) 
ETAM_MBZ

>  <Index>  (548) 
5313

$$$$
ETAM-pdb2i4i-A-LYS-255:MBZ-pdb2i4i-A-PHE-340
     RDKit          3D

 26 25  0  0  0  0  0  0  0  0999 V2000
   -0.9958   -3.2825    3.1035 C   0  0  0  0  0  0  0  0  0  0  0  0
   -0.7281   -2.8970    2.2169 H   0  0  0  0  0  0  0  0  0  0  0  0
   -1.8536   -3.7912    2.9936 H   0  0  0  0  0  0  0  0  0  0  0  0
   -0.2164   -3.9617    3.4489 H   0  0  0  0  0  0  0  0  0  0  0  0
   -1.2264   -2.1581    4.0640 C   0  0  0  0  0  0  0  0  0  0  0  0
   -1.9368   -2.4076    4.7052 H   0  0  0  0  0  0  0  0  0  0  0  0
   -0.3827   -1.9396    4.5314 H   0  0  0  0  0  0  0  0  0  0  0  0
   -1.6670   -0.9855    3.2745 N   0  0  0  0  0  4  0  0  0  0  0  0
   -2.6285   -1.0964    3.0171 H   0  0  0  0  0  0  0  0  0  0  0  0
   -1.5638   -0.1538    3.8224 H   0  0  0  0  0  0  0  0  0  0  0  0
   -1.1085   -0.9091    2.4477 H   0  0  0  0  0  0  0  0  0  0  0  0
   -0.0091    2.9116    0.0068 C   0  0  0  0  0  0  0  0  0  0  0  0
    0.9264    3.2211   -0.0033 H   0  0  0  0  0  0  0  0  0  0  0  0
   -0.4884    3.2154    0.8131 H   0  0  0  0  0  0  0  0  0  0  0  0
   -0.5109    3.3431   -0.8594 H   0  0  0  0  0  0  0  0  0  0  0  0
   -0.0039    1.4041    0.0049 C   0  0  0  0  0  0  0  0  0  0  0  0
   -1.2006    0.6918    0.0067 C   0  0  0  0  0  0  0  0  0  0  0  0
   -2.0661    1.1879    0.0117 H   0  0  0  0  0  0  0  0  0  0  0  0
   -1.2024   -0.6848    0.0000 C   0  0  0  0  0  0  0  0  0  0  0  0
   -2.0757   -1.1898    0.0008 H   0  0  0  0  0  0  0  0  0  0  0  0
    0.0071   -1.3919   -0.0065 C   0  0  0  0  0  0  0  0  0  0  0  0
   -0.0186   -2.3946   -0.0167 H   0  0  0  0  0  0  0  0  0  0  0  0
    1.2024   -0.7185   -0.0000 C   0  0  0  0  0  0  0  0  0  0  0  0
    2.0846   -1.1999    0.0097 H   0  0  0  0  0  0  0  0  0  0  0  0
    1.1974    0.6994   -0.0051 C   0  0  0  0  0  0  0  0  0  0  0  0
    2.0646    1.1843   -0.0168 H   0  0  0  0  0  0  0  0  0  0  0  0
  1  5  1  0
  5  8  1  0
  1  2  1  0
  1  3  1  0
  1  4  1  0
  5  6  1  0
  5  7  1  0
  8  9  1  0
  8 10  1  0
  8 11  1  0
 12 16  1  0
 16 17  2  0
 17 19  1  0
 19 21  2  0
 21 23  1  0
 23 25  2  0
 25 16  1  0
 12 13  1  0
 12 14  1  0
 12 15  1  0
 17 18  1  0
 19 20  1  0
 21 22  1  0
 23 24  1  0
 25 26  1  0
M  CHG  1   8   1
M  END
>  <PDB_ID>  (549) 
pdb2i4i

>  <RESIDUE_NAME>  (549) 
LYS   PHE

>  <FRAG_NAME>  (549) 
ETAM   MBZ

>  <FRAG_ATOM_NUM>  (549) 
fragi: 11  fragj: 15

>  <atom.prop.CHAIN_ID>  (549) 
A A A A A A A A A A A Z Z Z Z Z Z Z Z Z Z Z Z Z Z Z

>  <atom.prop.IS_HEAVY_ATOM>  (549) 
1 0 0 0 1 0 0 1 0 0 0 1 0 0 0 1 1 0 1 0 1 0 1 0 1 0

>  <DIFUSE_FUNC_ATOM>  (549) 
n/a

>  <FINAL_SINGLE_POINT_ENERGY>  (549) 
0

>  <NONCOV_INTER_ENERGY_QM>  (549) 
0

>  <FF_Energy>  (549) 
-5.9

>  <QM_Energy>  (549) 
-12.7

>  <source>  (549) 
ETAM_MBZ

>  <Index>  (549) 
5327

$$$$
ETAM-pdb2i53-A-LYS-105:MBZ-pdb2i53-A-PHE-101
     RDKit          3D

 26 25  0  0  0  0  0  0  0  0999 V2000
   -0.2511   -1.7268    4.3724 C   0  0  0  0  0  0  0  0  0  0  0  0
   -0.1301   -2.5145    4.9776 H   0  0  0  0  0  0  0  0  0  0  0  0
   -0.6688   -2.0259    3.5143 H   0  0  0  0  0  0  0  0  0  0  0  0
   -0.9076   -1.0037    4.8565 H   0  0  0  0  0  0  0  0  0  0  0  0
    1.0855   -1.1339    4.0772 C   0  0  0  0  0  0  0  0  0  0  0  0
    0.9756   -0.3074    3.5170 H   0  0  0  0  0  0  0  0  0  0  0  0
    1.5447   -0.8841    4.9347 H   0  0  0  0  0  0  0  0  0  0  0  0
    1.9613   -2.0975    3.3342 N   0  0  0  0  0  4  0  0  0  0  0  0
    1.8003   -1.9952    2.3545 H   0  0  0  0  0  0  0  0  0  0  0  0
    2.9164   -1.8985    3.5443 H   0  0  0  0  0  0  0  0  0  0  0  0
    1.7386   -3.0274    3.6187 H   0  0  0  0  0  0  0  0  0  0  0  0
    0.0287    2.9058   -0.0449 C   0  0  0  0  0  0  0  0  0  0  0  0
   -0.4377    3.1786   -0.8778 H   0  0  0  0  0  0  0  0  0  0  0  0
    0.9779    3.1964   -0.0651 H   0  0  0  0  0  0  0  0  0  0  0  0
   -0.4590    3.4013    0.7946 H   0  0  0  0  0  0  0  0  0  0  0  0
    0.0170    1.3905    0.0083 C   0  0  0  0  0  0  0  0  0  0  0  0
   -1.2046    0.7156   -0.0041 C   0  0  0  0  0  0  0  0  0  0  0  0
   -2.0557    1.2048   -0.0168 H   0  0  0  0  0  0  0  0  0  0  0  0
   -1.2267   -0.7097   -0.0000 C   0  0  0  0  0  0  0  0  0  0  0  0
   -2.1018   -1.1793   -0.0022 H   0  0  0  0  0  0  0  0  0  0  0  0
   -0.0231   -1.3976    0.0089 C   0  0  0  0  0  0  0  0  0  0  0  0
   -0.0144   -2.4011    0.0210 H   0  0  0  0  0  0  0  0  0  0  0  0
    1.2267   -0.7070   -0.0000 C   0  0  0  0  0  0  0  0  0  0  0  0
    2.0820   -1.2051    0.0043 H   0  0  0  0  0  0  0  0  0  0  0  0
    1.2108    0.7082   -0.0130 C   0  0  0  0  0  0  0  0  0  0  0  0
    2.0783    1.1961   -0.0387 H   0  0  0  0  0  0  0  0  0  0  0  0
  1  5  1  0
  5  8  1  0
  1  2  1  0
  1  3  1  0
  1  4  1  0
  5  6  1  0
  5  7  1  0
  8  9  1  0
  8 10  1  0
  8 11  1  0
 12 16  1  0
 16 17  2  0
 17 19  1  0
 19 21  2  0
 21 23  1  0
 23 25  2  0
 25 16  1  0
 12 13  1  0
 12 14  1  0
 12 15  1  0
 17 18  1  0
 19 20  1  0
 21 22  1  0
 23 24  1  0
 25 26  1  0
M  CHG  1   8   1
M  END
>  <PDB_ID>  (550) 
pdb2i53

>  <RESIDUE_NAME>  (550) 
LYS   PHE

>  <FRAG_NAME>  (550) 
ETAM   MBZ

>  <FRAG_ATOM_NUM>  (550) 
fragi: 11  fragj: 15

>  <atom.prop.CHAIN_ID>  (550) 
A A A A A A A A A A A Z Z Z Z Z Z Z Z Z Z Z Z Z Z Z

>  <atom.prop.IS_HEAVY_ATOM>  (550) 
1 0 0 0 1 0 0 1 0 0 0 1 0 0 0 1 1 0 1 0 1 0 1 0 1 0

>  <DIFUSE_FUNC_ATOM>  (550) 
n/a

>  <FINAL_SINGLE_POINT_ENERGY>  (550) 
0

>  <NONCOV_INTER_ENERGY_QM>  (550) 
0

>  <FF_Energy>  (550) 
-3.81

>  <QM_Energy>  (550) 
-10.06

>  <source>  (550) 
ETAM_MBZ

>  <Index>  (550) 
5336

$$$$
ETAM-pdb1h91-B-LYS-166:MBZ-pdb1h91-B-PHE-38
     RDKit          3D

 26 25  0  0  0  0  0  0  0  0999 V2000
   -1.1169   -2.5593    4.3201 C   0  0  0  0  0  0  0  0  0  0  0  0
   -0.4343   -3.2754    4.4147 H   0  0  0  0  0  0  0  0  0  0  0  0
   -1.8436   -2.6807    4.9864 H   0  0  0  0  0  0  0  0  0  0  0  0
   -0.6388   -1.5955    4.4945 H   0  0  0  0  0  0  0  0  0  0  0  0
   -1.7146   -2.6349    2.9264 C   0  0  0  0  0  0  0  0  0  0  0  0
   -2.6416   -3.0232    2.9883 H   0  0  0  0  0  0  0  0  0  0  0  0
   -1.7852   -1.7044    2.5500 H   0  0  0  0  0  0  0  0  0  0  0  0
   -0.8994   -3.4727    1.9987 N   0  0  0  0  0  4  0  0  0  0  0  0
   -1.1904   -3.3015    1.0587 H   0  0  0  0  0  0  0  0  0  0  0  0
    0.0647   -3.2341    2.1007 H   0  0  0  0  0  0  0  0  0  0  0  0
   -1.0325   -4.4371    2.2226 H   0  0  0  0  0  0  0  0  0  0  0  0
    0.0677    2.9070   -0.0143 C   0  0  0  0  0  0  0  0  0  0  0  0
   -0.6260    3.2351   -0.6441 H   0  0  0  0  0  0  0  0  0  0  0  0
    0.9725    3.1856   -0.3148 H   0  0  0  0  0  0  0  0  0  0  0  0
   -0.1161    3.3813    0.9497 H   0  0  0  0  0  0  0  0  0  0  0  0
    0.0194    1.4061   -0.0051 C   0  0  0  0  0  0  0  0  0  0  0  0
   -1.1909    0.7051    0.0081 C   0  0  0  0  0  0  0  0  0  0  0  0
   -2.0467    1.2064    0.0224 H   0  0  0  0  0  0  0  0  0  0  0  0
   -1.1909   -0.6679    0.0000 C   0  0  0  0  0  0  0  0  0  0  0  0
   -2.0866   -1.1621   -0.0204 H   0  0  0  0  0  0  0  0  0  0  0  0
   -0.0171   -1.3975    0.0206 C   0  0  0  0  0  0  0  0  0  0  0  0
   -0.0369   -2.3879    0.0492 H   0  0  0  0  0  0  0  0  0  0  0  0
    1.1909   -0.7122    0.0000 C   0  0  0  0  0  0  0  0  0  0  0  0
    2.0658   -1.2195    0.0032 H   0  0  0  0  0  0  0  0  0  0  0  0
    1.1885    0.6663   -0.0236 C   0  0  0  0  0  0  0  0  0  0  0  0
    2.0750    1.1574   -0.0563 H   0  0  0  0  0  0  0  0  0  0  0  0
  1  5  1  0
  5  8  1  0
  1  2  1  0
  1  3  1  0
  1  4  1  0
  5  6  1  0
  5  7  1  0
  8  9  1  0
  8 10  1  0
  8 11  1  0
 12 16  1  0
 16 17  2  0
 17 19  1  0
 19 21  2  0
 21 23  1  0
 23 25  2  0
 25 16  1  0
 12 13  1  0
 12 14  1  0
 12 15  1  0
 17 18  1  0
 19 20  1  0
 21 22  1  0
 23 24  1  0
 25 26  1  0
M  CHG  1   8   1
M  END
>  <PDB_ID>  (551) 
pdb1h91

>  <RESIDUE_NAME>  (551) 
LYS   PHE

>  <FRAG_NAME>  (551) 
ETAM   MBZ

>  <FRAG_ATOM_NUM>  (551) 
fragi: 11  fragj: 15

>  <atom.prop.CHAIN_ID>  (551) 
A A A A A A A A A A A Z Z Z Z Z Z Z Z Z Z Z Z Z Z Z

>  <atom.prop.IS_HEAVY_ATOM>  (551) 
1 0 0 0 1 0 0 1 0 0 0 1 0 0 0 1 1 0 1 0 1 0 1 0 1 0

>  <DIFUSE_FUNC_ATOM>  (551) 
n/a

>  <FINAL_SINGLE_POINT_ENERGY>  (551) 
0

>  <NONCOV_INTER_ENERGY_QM>  (551) 
0

>  <FF_Energy>  (551) 
2.29

>  <QM_Energy>  (551) 
-5.74

>  <source>  (551) 
ETAM_MBZ

>  <Index>  (551) 
5343

$$$$
ETAM-pdb1h99-A-LYS-123:MBZ-pdb1h99-A-PHE-130
     RDKit          3D

 26 25  0  0  0  0  0  0  0  0999 V2000
    0.8264   -1.8716   -3.6077 C   0  0  0  0  0  0  0  0  0  0  0  0
    0.8052   -2.0259   -4.5943 H   0  0  0  0  0  0  0  0  0  0  0  0
    1.7727   -1.7948   -3.2991 H   0  0  0  0  0  0  0  0  0  0  0  0
    0.3114   -0.9357   -3.3909 H   0  0  0  0  0  0  0  0  0  0  0  0
    0.1854   -3.0603   -2.9162 C   0  0  0  0  0  0  0  0  0  0  0  0
    0.2334   -2.9280   -1.9253 H   0  0  0  0  0  0  0  0  0  0  0  0
   -0.7736   -3.1239   -3.1952 H   0  0  0  0  0  0  0  0  0  0  0  0
    0.8826   -4.3301   -3.2732 N   0  0  0  0  0  4  0  0  0  0  0  0
    1.8210   -4.2982   -2.9309 H   0  0  0  0  0  0  0  0  0  0  0  0
    0.3991   -5.0996   -2.8582 H   0  0  0  0  0  0  0  0  0  0  0  0
    0.8904   -4.4338   -4.2665 H   0  0  0  0  0  0  0  0  0  0  0  0
   -0.0115    2.8949    0.0854 C   0  0  0  0  0  0  0  0  0  0  0  0
   -0.6782    3.2362   -0.5546 H   0  0  0  0  0  0  0  0  0  0  0  0
    0.8953    3.2228   -0.1191 H   0  0  0  0  0  0  0  0  0  0  0  0
   -0.2820    3.2617    1.0755 H   0  0  0  0  0  0  0  0  0  0  0  0
   -0.0005    1.4017    0.0008 C   0  0  0  0  0  0  0  0  0  0  0  0
   -1.1957    0.6924   -0.0017 C   0  0  0  0  0  0  0  0  0  0  0  0
   -2.0637    1.1820   -0.0066 H   0  0  0  0  0  0  0  0  0  0  0  0
   -1.2020   -0.7003    0.0000 C   0  0  0  0  0  0  0  0  0  0  0  0
   -2.0787   -1.1919    0.0010 H   0  0  0  0  0  0  0  0  0  0  0  0
   -0.0007   -1.3952    0.0025 C   0  0  0  0  0  0  0  0  0  0  0  0
   -0.0014   -2.3936    0.0054 H   0  0  0  0  0  0  0  0  0  0  0  0
    1.2020   -0.6961   -0.0000 C   0  0  0  0  0  0  0  0  0  0  0  0
    2.0825   -1.1929    0.0008 H   0  0  0  0  0  0  0  0  0  0  0  0
    1.1969    0.6976   -0.0015 C   0  0  0  0  0  0  0  0  0  0  0  0
    2.0641    1.1928   -0.0053 H   0  0  0  0  0  0  0  0  0  0  0  0
  1  5  1  0
  5  8  1  0
  1  2  1  0
  1  3  1  0
  1  4  1  0
  5  6  1  0
  5  7  1  0
  8  9  1  0
  8 10  1  0
  8 11  1  0
 12 16  1  0
 16 17  2  0
 17 19  1  0
 19 21  2  0
 21 23  1  0
 23 25  2  0
 25 16  1  0
 12 13  1  0
 12 14  1  0
 12 15  1  0
 17 18  1  0
 19 20  1  0
 21 22  1  0
 23 24  1  0
 25 26  1  0
M  CHG  1   8   1
M  END
>  <PDB_ID>  (552) 
pdb1h99

>  <RESIDUE_NAME>  (552) 
LYS   PHE

>  <FRAG_NAME>  (552) 
ETAM   MBZ

>  <FRAG_ATOM_NUM>  (552) 
fragi: 11  fragj: 15

>  <atom.prop.CHAIN_ID>  (552) 
A A A A A A A A A A A Z Z Z Z Z Z Z Z Z Z Z Z Z Z Z

>  <atom.prop.IS_HEAVY_ATOM>  (552) 
1 0 0 0 1 0 0 1 0 0 0 1 0 0 0 1 1 0 1 0 1 0 1 0 1 0

>  <DIFUSE_FUNC_ATOM>  (552) 
n/a

>  <FINAL_SINGLE_POINT_ENERGY>  (552) 
0

>  <NONCOV_INTER_ENERGY_QM>  (552) 
0

>  <FF_Energy>  (552) 
-0.11

>  <QM_Energy>  (552) 
-5.15

>  <source>  (552) 
ETAM_MBZ

>  <Index>  (552) 
5349

$$$$
ETAM-pdb1hah-H-LYS-236:MBZ-pdb1hah-H-PHE-232
     RDKit          3D

 26 25  0  0  0  0  0  0  0  0999 V2000
   -1.2980   -3.7085    5.1536 C   0  0  0  0  0  0  0  0  0  0  0  0
   -0.9427   -4.6312    5.0076 H   0  0  0  0  0  0  0  0  0  0  0  0
   -2.2931   -3.7431    5.2424 H   0  0  0  0  0  0  0  0  0  0  0  0
   -0.8745   -3.3089    6.0751 H   0  0  0  0  0  0  0  0  0  0  0  0
   -0.9583   -2.8645    3.9119 C   0  0  0  0  0  0  0  0  0  0  0  0
   -1.2373   -1.9298    4.0695 H   0  0  0  0  0  0  0  0  0  0  0  0
    0.0120   -2.9265    3.7333 H   0  0  0  0  0  0  0  0  0  0  0  0
   -1.7146   -3.4065    2.7093 N   0  0  0  0  0  4  0  0  0  0  0  0
   -2.6478   -3.6074    2.9875 H   0  0  0  0  0  0  0  0  0  0  0  0
   -1.7065   -2.7158    1.9942 H   0  0  0  0  0  0  0  0  0  0  0  0
   -1.2597   -4.2338    2.3977 H   0  0  0  0  0  0  0  0  0  0  0  0
    0.0121    2.9277    0.1578 C   0  0  0  0  0  0  0  0  0  0  0  0
   -0.7218    3.2775   -0.3319 H   0  0  0  0  0  0  0  0  0  0  0  0
    0.8850    3.2436   -0.0412 H   0  0  0  0  0  0  0  0  0  0  0  0
   -0.1760    3.1054    1.2167 H   0  0  0  0  0  0  0  0  0  0  0  0
    0.0115    1.3902   -0.0215 C   0  0  0  0  0  0  0  0  0  0  0  0
   -1.2154    0.6999    0.1197 C   0  0  0  0  0  0  0  0  0  0  0  0
   -2.0411    1.1766    0.2917 H   0  0  0  0  0  0  0  0  0  0  0  0
   -1.2020   -0.7034    0.0000 C   0  0  0  0  0  0  0  0  0  0  0  0
   -2.0971   -1.1863   -0.0323 H   0  0  0  0  0  0  0  0  0  0  0  0
   -0.0265   -1.4068   -0.0703 C   0  0  0  0  0  0  0  0  0  0  0  0
   -0.0125   -2.3899   -0.1684 H   0  0  0  0  0  0  0  0  0  0  0  0
    1.2020   -0.6930   -0.0000 C   0  0  0  0  0  0  0  0  0  0  0  0
    2.0707   -1.2081    0.0734 H   0  0  0  0  0  0  0  0  0  0  0  0
    1.2304    0.7131   -0.0279 C   0  0  0  0  0  0  0  0  0  0  0  0
    2.0790    1.1939   -0.0516 H   0  0  0  0  0  0  0  0  0  0  0  0
  1  5  1  0
  5  8  1  0
  1  2  1  0
  1  3  1  0
  1  4  1  0
  5  6  1  0
  5  7  1  0
  8  9  1  0
  8 10  1  0
  8 11  1  0
 12 16  1  0
 16 17  2  0
 17 19  1  0
 19 21  2  0
 21 23  1  0
 23 25  2  0
 25 16  1  0
 12 13  1  0
 12 14  1  0
 12 15  1  0
 17 18  1  0
 19 20  1  0
 21 22  1  0
 23 24  1  0
 25 26  1  0
M  CHG  1   8   1
M  END
>  <PDB_ID>  (553) 
pdb1hah

>  <RESIDUE_NAME>  (553) 
LYS   PHE

>  <FRAG_NAME>  (553) 
ETAM   MBZ

>  <FRAG_ATOM_NUM>  (553) 
fragi: 11  fragj: 15

>  <atom.prop.CHAIN_ID>  (553) 
A A A A A A A A A A A Z Z Z Z Z Z Z Z Z Z Z Z Z Z Z

>  <atom.prop.IS_HEAVY_ATOM>  (553) 
1 0 0 0 1 0 0 1 0 0 0 1 0 0 0 1 1 0 1 0 1 0 1 0 1 0

>  <DIFUSE_FUNC_ATOM>  (553) 
n/a

>  <FINAL_SINGLE_POINT_ENERGY>  (553) 
0

>  <NONCOV_INTER_ENERGY_QM>  (553) 
0

>  <FF_Energy>  (553) 
-1.57

>  <QM_Energy>  (553) 
-7.43

>  <source>  (553) 
ETAM_MBZ

>  <Index>  (553) 
5364

$$$$
ETAM-pdb1h80-A-LYS-31:MBZ-pdb1h80-A-PHE-263
     RDKit          3D

 26 25  0  0  0  0  0  0  0  0999 V2000
    2.9704   -4.7859    1.5187 C   0  0  0  0  0  0  0  0  0  0  0  0
    2.3910   -5.1672    0.8065 H   0  0  0  0  0  0  0  0  0  0  0  0
    3.0122   -5.4004    2.2988 H   0  0  0  0  0  0  0  0  0  0  0  0
    3.9762   -4.6505    1.1208 H   0  0  0  0  0  0  0  0  0  0  0  0
    2.3735   -3.4638    1.9738 C   0  0  0  0  0  0  0  0  0  0  0  0
    2.9564   -3.0751    2.6947 H   0  0  0  0  0  0  0  0  0  0  0  0
    2.3584   -2.8284    1.1948 H   0  0  0  0  0  0  0  0  0  0  0  0
    0.9900   -3.6246    2.4984 N   0  0  0  0  0  4  0  0  0  0  0  0
    0.9483   -3.2801    3.4358 H   0  0  0  0  0  0  0  0  0  0  0  0
    0.3553   -3.1088    1.9238 H   0  0  0  0  0  0  0  0  0  0  0  0
    0.7412   -4.5926    2.4862 H   0  0  0  0  0  0  0  0  0  0  0  0
    0.0076    2.8976    0.0431 C   0  0  0  0  0  0  0  0  0  0  0  0
   -0.7118    3.2271   -0.5480 H   0  0  0  0  0  0  0  0  0  0  0  0
    0.8949    3.2115   -0.2580 H   0  0  0  0  0  0  0  0  0  0  0  0
   -0.1680    3.3050    1.0388 H   0  0  0  0  0  0  0  0  0  0  0  0
    0.0006    1.4011    0.0004 C   0  0  0  0  0  0  0  0  0  0  0  0
   -1.1975    0.6957   -0.0003 C   0  0  0  0  0  0  0  0  0  0  0  0
   -2.0631    1.1849   -0.0024 H   0  0  0  0  0  0  0  0  0  0  0  0
   -1.2034   -0.6986    0.0000 C   0  0  0  0  0  0  0  0  0  0  0  0
   -2.0792   -1.1905    0.0007 H   0  0  0  0  0  0  0  0  0  0  0  0
   -0.0005   -1.3943    0.0008 C   0  0  0  0  0  0  0  0  0  0  0  0
   -0.0047   -2.3932    0.0016 H   0  0  0  0  0  0  0  0  0  0  0  0
    1.2034   -0.6990   -0.0000 C   0  0  0  0  0  0  0  0  0  0  0  0
    2.0832   -1.1950    0.0017 H   0  0  0  0  0  0  0  0  0  0  0  0
    1.1973    0.6950   -0.0009 C   0  0  0  0  0  0  0  0  0  0  0  0
    2.0654    1.1903   -0.0032 H   0  0  0  0  0  0  0  0  0  0  0  0
  1  5  1  0
  5  8  1  0
  1  2  1  0
  1  3  1  0
  1  4  1  0
  5  6  1  0
  5  7  1  0
  8  9  1  0
  8 10  1  0
  8 11  1  0
 12 16  1  0
 16 17  2  0
 17 19  1  0
 19 21  2  0
 21 23  1  0
 23 25  2  0
 25 16  1  0
 12 13  1  0
 12 14  1  0
 12 15  1  0
 17 18  1  0
 19 20  1  0
 21 22  1  0
 23 24  1  0
 25 26  1  0
M  CHG  1   8   1
M  END
>  <PDB_ID>  (554) 
pdb1h80

>  <RESIDUE_NAME>  (554) 
LYS   PHE

>  <FRAG_NAME>  (554) 
ETAM   MBZ

>  <FRAG_ATOM_NUM>  (554) 
fragi: 11  fragj: 15

>  <atom.prop.CHAIN_ID>  (554) 
A A A A A A A A A A A Z Z Z Z Z Z Z Z Z Z Z Z Z Z Z

>  <atom.prop.IS_HEAVY_ATOM>  (554) 
1 0 0 0 1 0 0 1 0 0 0 1 0 0 0 1 1 0 1 0 1 0 1 0 1 0

>  <DIFUSE_FUNC_ATOM>  (554) 
n/a

>  <FINAL_SINGLE_POINT_ENERGY>  (554) 
0

>  <NONCOV_INTER_ENERGY_QM>  (554) 
0

>  <FF_Energy>  (554) 
-0.35

>  <QM_Energy>  (554) 
-7.34

>  <source>  (554) 
ETAM_MBZ

>  <Index>  (554) 
5365

$$$$
ETAM-pdb2i75-A-LYS-840:MBZ-pdb2i75-A-PHE-794
     RDKit          3D

 26 25  0  0  0  0  0  0  0  0999 V2000
   -3.6508   -0.4145    4.1722 C   0  0  0  0  0  0  0  0  0  0  0  0
   -3.8544   -1.0471    3.4298 H   0  0  0  0  0  0  0  0  0  0  0  0
   -4.0040    0.4918    3.9574 H   0  0  0  0  0  0  0  0  0  0  0  0
   -4.1182   -0.7745    5.0888 H   0  0  0  0  0  0  0  0  0  0  0  0
   -2.1377   -0.3165    4.3157 C   0  0  0  0  0  0  0  0  0  0  0  0
   -1.9209    0.1823    5.1517 H   0  0  0  0  0  0  0  0  0  0  0  0
   -1.7534   -1.2357    4.3608 H   0  0  0  0  0  0  0  0  0  0  0  0
   -1.5418    0.4053    3.1461 N   0  0  0  0  0  4  0  0  0  0  0  0
   -0.5468    0.3385    3.1936 H   0  0  0  0  0  0  0  0  0  0  0  0
   -1.8693   -0.0139    2.3019 H   0  0  0  0  0  0  0  0  0  0  0  0
   -1.8186    1.3635    3.1785 H   0  0  0  0  0  0  0  0  0  0  0  0
    0.0003    2.8937    0.0101 C   0  0  0  0  0  0  0  0  0  0  0  0
    0.9283    3.2072    0.1458 H   0  0  0  0  0  0  0  0  0  0  0  0
   -0.5916    3.1995    0.7412 H   0  0  0  0  0  0  0  0  0  0  0  0
   -0.3636    3.3444   -0.9132 H   0  0  0  0  0  0  0  0  0  0  0  0
    0.0048    1.3953    0.0023 C   0  0  0  0  0  0  0  0  0  0  0  0
   -1.1841    0.6842    0.0073 C   0  0  0  0  0  0  0  0  0  0  0  0
   -2.0539    1.1772    0.0154 H   0  0  0  0  0  0  0  0  0  0  0  0
   -1.1873   -0.6948   -0.0000 C   0  0  0  0  0  0  0  0  0  0  0  0
   -2.0754   -1.1845    0.0013 H   0  0  0  0  0  0  0  0  0  0  0  0
   -0.0129   -1.3812   -0.0069 C   0  0  0  0  0  0  0  0  0  0  0  0
   -0.0113   -2.3863   -0.0173 H   0  0  0  0  0  0  0  0  0  0  0  0
    1.1873   -0.6950    0.0000 C   0  0  0  0  0  0  0  0  0  0  0  0
    2.0673   -1.1982    0.0085 H   0  0  0  0  0  0  0  0  0  0  0  0
    1.1922    0.6915   -0.0026 C   0  0  0  0  0  0  0  0  0  0  0  0
    2.0632    1.1822   -0.0087 H   0  0  0  0  0  0  0  0  0  0  0  0
  1  5  1  0
  5  8  1  0
  1  2  1  0
  1  3  1  0
  1  4  1  0
  5  6  1  0
  5  7  1  0
  8  9  1  0
  8 10  1  0
  8 11  1  0
 12 16  1  0
 16 17  2  0
 17 19  1  0
 19 21  2  0
 21 23  1  0
 23 25  2  0
 25 16  1  0
 12 13  1  0
 12 14  1  0
 12 15  1  0
 17 18  1  0
 19 20  1  0
 21 22  1  0
 23 24  1  0
 25 26  1  0
M  CHG  1   8   1
M  END
>  <PDB_ID>  (555) 
pdb2i75

>  <RESIDUE_NAME>  (555) 
LYS   PHE

>  <FRAG_NAME>  (555) 
ETAM   MBZ

>  <FRAG_ATOM_NUM>  (555) 
fragi: 11  fragj: 15

>  <atom.prop.CHAIN_ID>  (555) 
A A A A A A A A A A A Z Z Z Z Z Z Z Z Z Z Z Z Z Z Z

>  <atom.prop.IS_HEAVY_ATOM>  (555) 
1 0 0 0 1 0 0 1 0 0 0 1 0 0 0 1 1 0 1 0 1 0 1 0 1 0

>  <DIFUSE_FUNC_ATOM>  (555) 
n/a

>  <FINAL_SINGLE_POINT_ENERGY>  (555) 
0

>  <NONCOV_INTER_ENERGY_QM>  (555) 
0

>  <FF_Energy>  (555) 
-6.33

>  <QM_Energy>  (555) 
-12.25

>  <source>  (555) 
ETAM_MBZ

>  <Index>  (555) 
5366

$$$$
ETAM-pdb2i33-B-LYS-210:MBZ-pdb2i33-B-PHE-177
     RDKit          3D

 26 25  0  0  0  0  0  0  0  0999 V2000
    5.5448   -0.8484    0.9614 C   0  0  0  0  0  0  0  0  0  0  0  0
    6.4807   -1.1461    0.7805 H   0  0  0  0  0  0  0  0  0  0  0  0
    5.4195   -0.7068    1.9413 H   0  0  0  0  0  0  0  0  0  0  0  0
    5.3795    0.0999    0.4502 H   0  0  0  0  0  0  0  0  0  0  0  0
    4.5911   -1.9235    0.4968 C   0  0  0  0  0  0  0  0  0  0  0  0
    3.6527   -1.6311    0.6768 H   0  0  0  0  0  0  0  0  0  0  0  0
    4.7134   -2.0712   -0.4837 H   0  0  0  0  0  0  0  0  0  0  0  0
    4.8524   -3.1956    1.2180 N   0  0  0  0  0  4  0  0  0  0  0  0
    3.9912   -3.6876    1.3490 H   0  0  0  0  0  0  0  0  0  0  0  0
    5.4806   -3.7598    0.6823 H   0  0  0  0  0  0  0  0  0  0  0  0
    5.2602   -2.9958    2.1091 H   0  0  0  0  0  0  0  0  0  0  0  0
    0.0359    2.8639   -0.0085 C   0  0  0  0  0  0  0  0  0  0  0  0
    0.7899    3.1604    0.5656 H   0  0  0  0  0  0  0  0  0  0  0  0
   -0.8284    3.1934    0.3509 H   0  0  0  0  0  0  0  0  0  0  0  0
    0.1758    3.3009   -0.9972 H   0  0  0  0  0  0  0  0  0  0  0  0
    0.0051    1.3838   -0.0083 C   0  0  0  0  0  0  0  0  0  0  0  0
   -1.1906    0.6972    0.0021 C   0  0  0  0  0  0  0  0  0  0  0  0
   -2.0510    1.2005    0.0103 H   0  0  0  0  0  0  0  0  0  0  0  0
   -1.1948   -0.6662    0.0000 C   0  0  0  0  0  0  0  0  0  0  0  0
   -2.0818   -1.1664   -0.0065 H   0  0  0  0  0  0  0  0  0  0  0  0
   -0.0131   -1.3741    0.0089 C   0  0  0  0  0  0  0  0  0  0  0  0
   -0.0325   -2.3775    0.0208 H   0  0  0  0  0  0  0  0  0  0  0  0
    1.1948   -0.7053    0.0000 C   0  0  0  0  0  0  0  0  0  0  0  0
    2.0655   -1.2188   -0.0031 H   0  0  0  0  0  0  0  0  0  0  0  0
    1.1986    0.6646   -0.0027 C   0  0  0  0  0  0  0  0  0  0  0  0
    2.0679    1.1666   -0.0014 H   0  0  0  0  0  0  0  0  0  0  0  0
  1  5  1  0
  5  8  1  0
  1  2  1  0
  1  3  1  0
  1  4  1  0
  5  6  1  0
  5  7  1  0
  8  9  1  0
  8 10  1  0
  8 11  1  0
 12 16  1  0
 16 17  2  0
 17 19  1  0
 19 21  2  0
 21 23  1  0
 23 25  2  0
 25 16  1  0
 12 13  1  0
 12 14  1  0
 12 15  1  0
 17 18  1  0
 19 20  1  0
 21 22  1  0
 23 24  1  0
 25 26  1  0
M  CHG  1   8   1
M  END
>  <PDB_ID>  (556) 
pdb2i33

>  <RESIDUE_NAME>  (556) 
LYS   PHE

>  <FRAG_NAME>  (556) 
ETAM   MBZ

>  <FRAG_ATOM_NUM>  (556) 
fragi: 11  fragj: 15

>  <atom.prop.CHAIN_ID>  (556) 
A A A A A A A A A A A Z Z Z Z Z Z Z Z Z Z Z Z Z Z Z

>  <atom.prop.IS_HEAVY_ATOM>  (556) 
1 0 0 0 1 0 0 1 0 0 0 1 0 0 0 1 1 0 1 0 1 0 1 0 1 0

>  <DIFUSE_FUNC_ATOM>  (556) 
n/a

>  <FINAL_SINGLE_POINT_ENERGY>  (556) 
0

>  <NONCOV_INTER_ENERGY_QM>  (556) 
0

>  <FF_Energy>  (556) 
4.98

>  <QM_Energy>  (556) 
-0.73

>  <source>  (556) 
ETAM_MBZ

>  <Index>  (556) 
5371

$$$$
ETAM-pdb1h7z-C-LYS-162:MBZ-pdb1h7z-C-PHE-229
     RDKit          3D

 26 25  0  0  0  0  0  0  0  0999 V2000
    0.7072   -1.2945    4.0758 C   0  0  0  0  0  0  0  0  0  0  0  0
    0.7104   -2.2150    3.7404 H   0  0  0  0  0  0  0  0  0  0  0  0
    0.6090   -1.2431    5.0487 H   0  0  0  0  0  0  0  0  0  0  0  0
    1.6435   -0.8147    3.7908 H   0  0  0  0  0  0  0  0  0  0  0  0
   -0.4577   -0.5349    3.4223 C   0  0  0  0  0  0  0  0  0  0  0  0
   -0.4896    0.3740    3.7682 H   0  0  0  0  0  0  0  0  0  0  0  0
   -0.3803   -0.5886    2.4539 H   0  0  0  0  0  0  0  0  0  0  0  0
   -1.7309   -1.2701    3.8548 N   0  0  0  0  0  4  0  0  0  0  0  0
   -1.6057   -1.5832    4.7883 H   0  0  0  0  0  0  0  0  0  0  0  0
   -2.4912   -0.6343    3.7961 H   0  0  0  0  0  0  0  0  0  0  0  0
   -1.8679   -2.0384    3.2421 H   0  0  0  0  0  0  0  0  0  0  0  0
    0.0081    2.8884    0.0092 C   0  0  0  0  0  0  0  0  0  0  0  0
   -0.8165    3.2141   -0.4271 H   0  0  0  0  0  0  0  0  0  0  0  0
    0.8160    3.2004   -0.4684 H   0  0  0  0  0  0  0  0  0  0  0  0
    0.0371    3.3258    1.0072 H   0  0  0  0  0  0  0  0  0  0  0  0
   -0.0043    1.4096    0.0150 C   0  0  0  0  0  0  0  0  0  0  0  0
   -1.1908    0.6774    0.0246 C   0  0  0  0  0  0  0  0  0  0  0  0
   -2.0652    1.1703    0.0492 H   0  0  0  0  0  0  0  0  0  0  0  0
   -1.1937   -0.6994   -0.0000 C   0  0  0  0  0  0  0  0  0  0  0  0
   -2.0649   -1.2052   -0.0036 H   0  0  0  0  0  0  0  0  0  0  0  0
    0.0191   -1.4038   -0.0180 C   0  0  0  0  0  0  0  0  0  0  0  0
    0.0200   -2.3882   -0.0436 H   0  0  0  0  0  0  0  0  0  0  0  0
    1.1937   -0.6751   -0.0000 C   0  0  0  0  0  0  0  0  0  0  0  0
    2.0918   -1.1688    0.0318 H   0  0  0  0  0  0  0  0  0  0  0  0
    1.1760    0.6912   -0.0216 C   0  0  0  0  0  0  0  0  0  0  0  0
    2.0523    1.1996   -0.0663 H   0  0  0  0  0  0  0  0  0  0  0  0
  1  5  1  0
  5  8  1  0
  1  2  1  0
  1  3  1  0
  1  4  1  0
  5  6  1  0
  5  7  1  0
  8  9  1  0
  8 10  1  0
  8 11  1  0
 12 16  1  0
 16 17  2  0
 17 19  1  0
 19 21  2  0
 21 23  1  0
 23 25  2  0
 25 16  1  0
 12 13  1  0
 12 14  1  0
 12 15  1  0
 17 18  1  0
 19 20  1  0
 21 22  1  0
 23 24  1  0
 25 26  1  0
M  CHG  1   8   1
M  END
>  <PDB_ID>  (557) 
pdb1h7z

>  <RESIDUE_NAME>  (557) 
LYS   PHE

>  <FRAG_NAME>  (557) 
ETAM   MBZ

>  <FRAG_ATOM_NUM>  (557) 
fragi: 11  fragj: 15

>  <atom.prop.CHAIN_ID>  (557) 
A A A A A A A A A A A Z Z Z Z Z Z Z Z Z Z Z Z Z Z Z

>  <atom.prop.IS_HEAVY_ATOM>  (557) 
1 0 0 0 1 0 0 1 0 0 0 1 0 0 0 1 1 0 1 0 1 0 1 0 1 0

>  <DIFUSE_FUNC_ATOM>  (557) 
n/a

>  <FINAL_SINGLE_POINT_ENERGY>  (557) 
0

>  <NONCOV_INTER_ENERGY_QM>  (557) 
0

>  <FF_Energy>  (557) 
-4.26

>  <QM_Energy>  (557) 
-10.0

>  <source>  (557) 
ETAM_MBZ

>  <Index>  (557) 
5380

$$$$
ETAM-pdb1hdf-B-LYS-29:MBZ-pdb1hdf-B-PHE-16
     RDKit          3D

 26 25  0  0  0  0  0  0  0  0999 V2000
   -3.8169   -2.6148    0.6164 C   0  0  0  0  0  0  0  0  0  0  0  0
   -3.9567   -2.9663   -0.3054 H   0  0  0  0  0  0  0  0  0  0  0  0
   -2.8440   -2.4854    0.7900 H   0  0  0  0  0  0  0  0  0  0  0  0
   -4.3215   -1.6528    0.7048 H   0  0  0  0  0  0  0  0  0  0  0  0
   -4.3562   -3.6255    1.6090 C   0  0  0  0  0  0  0  0  0  0  0  0
   -4.2989   -3.2429    2.5301 H   0  0  0  0  0  0  0  0  0  0  0  0
   -5.3087   -3.8262    1.3867 H   0  0  0  0  0  0  0  0  0  0  0  0
   -3.5650   -4.8862    1.5534 N   0  0  0  0  0  4  0  0  0  0  0  0
   -4.1567   -5.6584    1.7816 H   0  0  0  0  0  0  0  0  0  0  0  0
   -3.1972   -5.0062    0.6319 H   0  0  0  0  0  0  0  0  0  0  0  0
   -2.8127   -4.8338    2.2100 H   0  0  0  0  0  0  0  0  0  0  0  0
    0.0177    2.9241    0.0289 C   0  0  0  0  0  0  0  0  0  0  0  0
    0.5209    3.2353   -0.7641 H   0  0  0  0  0  0  0  0  0  0  0  0
    0.4624    3.2062    0.8673 H   0  0  0  0  0  0  0  0  0  0  0  0
   -0.9683    3.3879    0.0019 H   0  0  0  0  0  0  0  0  0  0  0  0
   -0.0012    1.4116    0.0009 C   0  0  0  0  0  0  0  0  0  0  0  0
   -1.1992    0.7033   -0.0015 C   0  0  0  0  0  0  0  0  0  0  0  0
   -2.0664    1.1887   -0.0052 H   0  0  0  0  0  0  0  0  0  0  0  0
   -1.2065   -0.7011   -0.0000 C   0  0  0  0  0  0  0  0  0  0  0  0
   -2.0828   -1.1894    0.0011 H   0  0  0  0  0  0  0  0  0  0  0  0
    0.0008   -1.4057    0.0023 C   0  0  0  0  0  0  0  0  0  0  0  0
   -0.0044   -2.3998    0.0054 H   0  0  0  0  0  0  0  0  0  0  0  0
    1.2065   -0.7037   -0.0000 C   0  0  0  0  0  0  0  0  0  0  0  0
    2.0873   -1.1979    0.0012 H   0  0  0  0  0  0  0  0  0  0  0  0
    1.1996    0.6956   -0.0018 C   0  0  0  0  0  0  0  0  0  0  0  0
    2.0682    1.1905   -0.0062 H   0  0  0  0  0  0  0  0  0  0  0  0
  1  5  1  0
  5  8  1  0
  1  2  1  0
  1  3  1  0
  1  4  1  0
  5  6  1  0
  5  7  1  0
  8  9  1  0
  8 10  1  0
  8 11  1  0
 12 16  1  0
 16 17  2  0
 17 19  1  0
 19 21  2  0
 21 23  1  0
 23 25  2  0
 25 16  1  0
 12 13  1  0
 12 14  1  0
 12 15  1  0
 17 18  1  0
 19 20  1  0
 21 22  1  0
 23 24  1  0
 25 26  1  0
M  CHG  1   8   1
M  END
>  <PDB_ID>  (558) 
pdb1hdf

>  <RESIDUE_NAME>  (558) 
LYS   PHE

>  <FRAG_NAME>  (558) 
ETAM   MBZ

>  <FRAG_ATOM_NUM>  (558) 
fragi: 11  fragj: 15

>  <atom.prop.CHAIN_ID>  (558) 
A A A A A A A A A A A Z Z Z Z Z Z Z Z Z Z Z Z Z Z Z

>  <atom.prop.IS_HEAVY_ATOM>  (558) 
1 0 0 0 1 0 0 1 0 0 0 1 0 0 0 1 1 0 1 0 1 0 1 0 1 0

>  <DIFUSE_FUNC_ATOM>  (558) 
n/a

>  <FINAL_SINGLE_POINT_ENERGY>  (558) 
0

>  <NONCOV_INTER_ENERGY_QM>  (558) 
0

>  <FF_Energy>  (558) 
10.63

>  <QM_Energy>  (558) 
1.23

>  <source>  (558) 
ETAM_MBZ

>  <Index>  (558) 
5403

$$$$
ETAM-pdb1h4o-H-LYS-22:MBZ-pdb1h4o-H-PHE-15
     RDKit          3D

 26 25  0  0  0  0  0  0  0  0999 V2000
    1.0142   -0.0830    3.7041 C   0  0  0  0  0  0  0  0  0  0  0  0
    0.3469    0.4657    4.1820 H   0  0  0  0  0  0  0  0  0  0  0  0
    1.0479    0.1399    2.7430 H   0  0  0  0  0  0  0  0  0  0  0  0
    1.9953    0.1039    4.1406 H   0  0  0  0  0  0  0  0  0  0  0  0
    0.6506   -1.5492    3.8581 C   0  0  0  0  0  0  0  0  0  0  0  0
    1.2083   -2.0923    3.2564 H   0  0  0  0  0  0  0  0  0  0  0  0
    0.7536   -1.8181    4.7998 H   0  0  0  0  0  0  0  0  0  0  0  0
   -0.7947   -1.7031    3.4598 N   0  0  0  0  0  4  0  0  0  0  0  0
   -1.2796   -0.8599    3.6754 H   0  0  0  0  0  0  0  0  0  0  0  0
   -0.8414   -1.8842    2.4809 H   0  0  0  0  0  0  0  0  0  0  0  0
   -1.1901   -2.4641    3.9677 H   0  0  0  0  0  0  0  0  0  0  0  0
   -0.0012    2.8765   -0.0537 C   0  0  0  0  0  0  0  0  0  0  0  0
   -0.7517    3.1656   -0.6499 H   0  0  0  0  0  0  0  0  0  0  0  0
    0.8696    3.1693   -0.4512 H   0  0  0  0  0  0  0  0  0  0  0  0
   -0.1187    3.3983    0.8960 H   0  0  0  0  0  0  0  0  0  0  0  0
   -0.0060    1.3967    0.0133 C   0  0  0  0  0  0  0  0  0  0  0  0
   -1.1900    0.6881    0.0007 C   0  0  0  0  0  0  0  0  0  0  0  0
   -2.0616    1.1700   -0.0090 H   0  0  0  0  0  0  0  0  0  0  0  0
   -1.1793   -0.6964    0.0000 C   0  0  0  0  0  0  0  0  0  0  0  0
   -2.0567   -1.1987    0.0031 H   0  0  0  0  0  0  0  0  0  0  0  0
    0.0181   -1.3798   -0.0033 C   0  0  0  0  0  0  0  0  0  0  0  0
    0.0050   -2.3874   -0.0085 H   0  0  0  0  0  0  0  0  0  0  0  0
    1.1793   -0.6980   -0.0000 C   0  0  0  0  0  0  0  0  0  0  0  0
    2.0793   -1.1832    0.0118 H   0  0  0  0  0  0  0  0  0  0  0  0
    1.1779    0.6895   -0.0106 C   0  0  0  0  0  0  0  0  0  0  0  0
    2.0521    1.1812   -0.0366 H   0  0  0  0  0  0  0  0  0  0  0  0
  1  5  1  0
  5  8  1  0
  1  2  1  0
  1  3  1  0
  1  4  1  0
  5  6  1  0
  5  7  1  0
  8  9  1  0
  8 10  1  0
  8 11  1  0
 12 16  1  0
 16 17  2  0
 17 19  1  0
 19 21  2  0
 21 23  1  0
 23 25  2  0
 25 16  1  0
 12 13  1  0
 12 14  1  0
 12 15  1  0
 17 18  1  0
 19 20  1  0
 21 22  1  0
 23 24  1  0
 25 26  1  0
M  CHG  1   8   1
M  END
>  <PDB_ID>  (559) 
pdb1h4o

>  <RESIDUE_NAME>  (559) 
LYS   PHE

>  <FRAG_NAME>  (559) 
ETAM   MBZ

>  <FRAG_ATOM_NUM>  (559) 
fragi: 11  fragj: 15

>  <atom.prop.CHAIN_ID>  (559) 
A A A A A A A A A A A Z Z Z Z Z Z Z Z Z Z Z Z Z Z Z

>  <atom.prop.IS_HEAVY_ATOM>  (559) 
1 0 0 0 1 0 0 1 0 0 0 1 0 0 0 1 1 0 1 0 1 0 1 0 1 0

>  <DIFUSE_FUNC_ATOM>  (559) 
n/a

>  <FINAL_SINGLE_POINT_ENERGY>  (559) 
0

>  <NONCOV_INTER_ENERGY_QM>  (559) 
0

>  <FF_Energy>  (559) 
-6.11

>  <QM_Energy>  (559) 
-12.89

>  <source>  (559) 
ETAM_MBZ

>  <Index>  (559) 
5404

$$$$
ETAM-pdb1hgx-A-LYS-127:MBZ-pdb1hgx-A-PHE-34
     RDKit          3D

 26 25  0  0  0  0  0  0  0  0999 V2000
    2.1226   -0.8974   -4.1066 C   0  0  0  0  0  0  0  0  0  0  0  0
    2.5271   -0.4924   -3.2973 H   0  0  0  0  0  0  0  0  0  0  0  0
    1.9966   -0.2192   -4.8180 H   0  0  0  0  0  0  0  0  0  0  0  0
    2.7767   -1.6872   -4.4760 H   0  0  0  0  0  0  0  0  0  0  0  0
    0.7756   -1.4729   -3.7400 C   0  0  0  0  0  0  0  0  0  0  0  0
    0.3755   -1.9183   -4.5527 H   0  0  0  0  0  0  0  0  0  0  0  0
    0.9013   -2.1802   -3.0302 H   0  0  0  0  0  0  0  0  0  0  0  0
   -0.1779   -0.4479   -3.2348 N   0  0  0  0  0  4  0  0  0  0  0  0
   -0.1267   -0.4099   -2.2374 H   0  0  0  0  0  0  0  0  0  0  0  0
    0.0620    0.4444   -3.6167 H   0  0  0  0  0  0  0  0  0  0  0  0
   -1.1056   -0.6932   -3.5129 H   0  0  0  0  0  0  0  0  0  0  0  0
   -0.0003    2.9055   -0.0102 C   0  0  0  0  0  0  0  0  0  0  0  0
   -0.7077    3.2094   -0.6330 H   0  0  0  0  0  0  0  0  0  0  0  0
    0.8930    3.2110   -0.3080 H   0  0  0  0  0  0  0  0  0  0  0  0
   -0.1971    3.3613    0.9602 H   0  0  0  0  0  0  0  0  0  0  0  0
   -0.0010    1.4022    0.0006 C   0  0  0  0  0  0  0  0  0  0  0  0
   -1.1954    0.6919   -0.0005 C   0  0  0  0  0  0  0  0  0  0  0  0
   -2.0634    1.1819   -0.0029 H   0  0  0  0  0  0  0  0  0  0  0  0
   -1.2002   -0.6972   -0.0000 C   0  0  0  0  0  0  0  0  0  0  0  0
   -2.0770   -1.1909    0.0019 H   0  0  0  0  0  0  0  0  0  0  0  0
    0.0003   -1.3951   -0.0004 C   0  0  0  0  0  0  0  0  0  0  0  0
   -0.0041   -2.3934   -0.0016 H   0  0  0  0  0  0  0  0  0  0  0  0
    1.2002   -0.6986    0.0000 C   0  0  0  0  0  0  0  0  0  0  0  0
    2.0823   -1.1939    0.0018 H   0  0  0  0  0  0  0  0  0  0  0  0
    1.1960    0.6968    0.0003 C   0  0  0  0  0  0  0  0  0  0  0  0
    2.0639    1.1905   -0.0001 H   0  0  0  0  0  0  0  0  0  0  0  0
  1  5  1  0
  5  8  1  0
  1  2  1  0
  1  3  1  0
  1  4  1  0
  5  6  1  0
  5  7  1  0
  8  9  1  0
  8 10  1  0
  8 11  1  0
 12 16  1  0
 16 17  2  0
 17 19  1  0
 19 21  2  0
 21 23  1  0
 23 25  2  0
 25 16  1  0
 12 13  1  0
 12 14  1  0
 12 15  1  0
 17 18  1  0
 19 20  1  0
 21 22  1  0
 23 24  1  0
 25 26  1  0
M  CHG  1   8   1
M  END
>  <PDB_ID>  (560) 
pdb1hgx

>  <RESIDUE_NAME>  (560) 
LYS   PHE

>  <FRAG_NAME>  (560) 
ETAM   MBZ

>  <FRAG_ATOM_NUM>  (560) 
fragi: 11  fragj: 15

>  <atom.prop.CHAIN_ID>  (560) 
A A A A A A A A A A A Z Z Z Z Z Z Z Z Z Z Z Z Z Z Z

>  <atom.prop.IS_HEAVY_ATOM>  (560) 
1 0 0 0 1 0 0 1 0 0 0 1 0 0 0 1 1 0 1 0 1 0 1 0 1 0

>  <DIFUSE_FUNC_ATOM>  (560) 
n/a

>  <FINAL_SINGLE_POINT_ENERGY>  (560) 
0

>  <NONCOV_INTER_ENERGY_QM>  (560) 
0

>  <FF_Energy>  (560) 
-9.7

>  <QM_Energy>  (560) 
-17.72

>  <source>  (560) 
ETAM_MBZ

>  <Index>  (560) 
5428

$$$$
ETAM-pdb1hgx-B-LYS-127:MBZ-pdb1hgx-B-PHE-34
     RDKit          3D

 26 25  0  0  0  0  0  0  0  0999 V2000
    2.1036   -0.8775   -4.1589 C   0  0  0  0  0  0  0  0  0  0  0  0
    2.5152   -0.5227   -3.3248 H   0  0  0  0  0  0  0  0  0  0  0  0
    2.0437   -0.1623   -4.8471 H   0  0  0  0  0  0  0  0  0  0  0  0
    2.7220   -1.6894   -4.5419 H   0  0  0  0  0  0  0  0  0  0  0  0
    0.7210   -1.3700   -3.8482 C   0  0  0  0  0  0  0  0  0  0  0  0
    0.3193   -1.7761   -4.6712 H   0  0  0  0  0  0  0  0  0  0  0  0
    0.7693   -2.0669   -3.1297 H   0  0  0  0  0  0  0  0  0  0  0  0
   -0.1434   -0.2578   -3.3855 N   0  0  0  0  0  4  0  0  0  0  0  0
   -0.5197   -0.4782   -2.4848 H   0  0  0  0  0  0  0  0  0  0  0  0
    0.3973    0.5825   -3.3240 H   0  0  0  0  0  0  0  0  0  0  0  0
   -0.8924   -0.1244   -4.0349 H   0  0  0  0  0  0  0  0  0  0  0  0
    0.0004    2.9074   -0.0309 C   0  0  0  0  0  0  0  0  0  0  0  0
   -0.6973    3.2008   -0.6676 H   0  0  0  0  0  0  0  0  0  0  0  0
    0.8977    3.2085   -0.3197 H   0  0  0  0  0  0  0  0  0  0  0  0
   -0.2117    3.3721    0.9320 H   0  0  0  0  0  0  0  0  0  0  0  0
    0.0011    1.4044   -0.0013 C   0  0  0  0  0  0  0  0  0  0  0  0
   -1.1937    0.6935    0.0019 C   0  0  0  0  0  0  0  0  0  0  0  0
   -2.0629    1.1815    0.0043 H   0  0  0  0  0  0  0  0  0  0  0  0
   -1.2001   -0.7023   -0.0000 C   0  0  0  0  0  0  0  0  0  0  0  0
   -2.0793   -1.1911    0.0000 H   0  0  0  0  0  0  0  0  0  0  0  0
   -0.0023   -1.3991    0.0000 C   0  0  0  0  0  0  0  0  0  0  0  0
   -0.0009   -2.3950   -0.0001 H   0  0  0  0  0  0  0  0  0  0  0  0
    1.2001   -0.6948    0.0000 C   0  0  0  0  0  0  0  0  0  0  0  0
    2.0821   -1.1921    0.0016 H   0  0  0  0  0  0  0  0  0  0  0  0
    1.1949    0.6983   -0.0006 C   0  0  0  0  0  0  0  0  0  0  0  0
    2.0644    1.1930   -0.0019 H   0  0  0  0  0  0  0  0  0  0  0  0
  1  5  1  0
  5  8  1  0
  1  2  1  0
  1  3  1  0
  1  4  1  0
  5  6  1  0
  5  7  1  0
  8  9  1  0
  8 10  1  0
  8 11  1  0
 12 16  1  0
 16 17  2  0
 17 19  1  0
 19 21  2  0
 21 23  1  0
 23 25  2  0
 25 16  1  0
 12 13  1  0
 12 14  1  0
 12 15  1  0
 17 18  1  0
 19 20  1  0
 21 22  1  0
 23 24  1  0
 25 26  1  0
M  CHG  1   8   1
M  END
>  <PDB_ID>  (561) 
pdb1hgx

>  <RESIDUE_NAME>  (561) 
LYS   PHE

>  <FRAG_NAME>  (561) 
ETAM   MBZ

>  <FRAG_ATOM_NUM>  (561) 
fragi: 11  fragj: 15

>  <atom.prop.CHAIN_ID>  (561) 
A A A A A A A A A A A Z Z Z Z Z Z Z Z Z Z Z Z Z Z Z

>  <atom.prop.IS_HEAVY_ATOM>  (561) 
1 0 0 0 1 0 0 1 0 0 0 1 0 0 0 1 1 0 1 0 1 0 1 0 1 0

>  <DIFUSE_FUNC_ATOM>  (561) 
n/a

>  <FINAL_SINGLE_POINT_ENERGY>  (561) 
0

>  <NONCOV_INTER_ENERGY_QM>  (561) 
0

>  <FF_Energy>  (561) 
-9.01

>  <QM_Energy>  (561) 
-16.48

>  <source>  (561) 
ETAM_MBZ

>  <Index>  (561) 
5429

$$$$
ETAM-pdb1hmd-A-LYS-103:MBZ-pdb1hmd-A-PHE-14
     RDKit          3D

 26 25  0  0  0  0  0  0  0  0999 V2000
    1.8356   -1.3825    3.7279 C   0  0  0  0  0  0  0  0  0  0  0  0
    1.8040   -2.0241    2.9792 H   0  0  0  0  0  0  0  0  0  0  0  0
    1.9149   -1.8410    4.5977 H   0  0  0  0  0  0  0  0  0  0  0  0
    2.6904   -0.7197    3.5935 H   0  0  0  0  0  0  0  0  0  0  0  0
    0.5487   -0.5651    3.7244 C   0  0  0  0  0  0  0  0  0  0  0  0
    0.5555    0.0470    4.5175 H   0  0  0  0  0  0  0  0  0  0  0  0
    0.5202   -0.0153    2.8867 H   0  0  0  0  0  0  0  0  0  0  0  0
   -0.6400   -1.4382    3.7838 N   0  0  0  0  0  4  0  0  0  0  0  0
   -0.8895   -1.6044    4.7395 H   0  0  0  0  0  0  0  0  0  0  0  0
   -1.4068   -0.9968    3.3145 H   0  0  0  0  0  0  0  0  0  0  0  0
   -0.4397   -2.3123    3.3382 H   0  0  0  0  0  0  0  0  0  0  0  0
    0.0469    2.8909    0.0287 C   0  0  0  0  0  0  0  0  0  0  0  0
   -0.7852    3.2184   -0.3468 H   0  0  0  0  0  0  0  0  0  0  0  0
    0.8460    3.1992   -0.4261 H   0  0  0  0  0  0  0  0  0  0  0  0
    0.1015    3.2370    1.0609 H   0  0  0  0  0  0  0  0  0  0  0  0
    0.0273    1.3789   -0.0082 C   0  0  0  0  0  0  0  0  0  0  0  0
   -1.2042    0.7255   -0.0042 C   0  0  0  0  0  0  0  0  0  0  0  0
   -2.0431    1.2376   -0.0052 H   0  0  0  0  0  0  0  0  0  0  0  0
   -1.2285   -0.6632   -0.0000 C   0  0  0  0  0  0  0  0  0  0  0  0
   -2.1064   -1.1497    0.0180 H   0  0  0  0  0  0  0  0  0  0  0  0
   -0.0250   -1.3819   -0.0186 C   0  0  0  0  0  0  0  0  0  0  0  0
   -0.0516   -2.3859   -0.0461 H   0  0  0  0  0  0  0  0  0  0  0  0
    1.2285   -0.7275   -0.0000 C   0  0  0  0  0  0  0  0  0  0  0  0
    2.0721   -1.2306   -0.0074 H   0  0  0  0  0  0  0  0  0  0  0  0
    1.2020    0.6682    0.0309 C   0  0  0  0  0  0  0  0  0  0  0  0
    2.0823    1.1634    0.0836 H   0  0  0  0  0  0  0  0  0  0  0  0
  1  5  1  0
  5  8  1  0
  1  2  1  0
  1  3  1  0
  1  4  1  0
  5  6  1  0
  5  7  1  0
  8  9  1  0
  8 10  1  0
  8 11  1  0
 12 16  1  0
 16 17  2  0
 17 19  1  0
 19 21  2  0
 21 23  1  0
 23 25  2  0
 25 16  1  0
 12 13  1  0
 12 14  1  0
 12 15  1  0
 17 18  1  0
 19 20  1  0
 21 22  1  0
 23 24  1  0
 25 26  1  0
M  CHG  1   8   1
M  END
>  <PDB_ID>  (562) 
pdb1hmd

>  <RESIDUE_NAME>  (562) 
LYS   PHE

>  <FRAG_NAME>  (562) 
ETAM   MBZ

>  <FRAG_ATOM_NUM>  (562) 
fragi: 11  fragj: 15

>  <atom.prop.CHAIN_ID>  (562) 
A A A A A A A A A A A Z Z Z Z Z Z Z Z Z Z Z Z Z Z Z

>  <atom.prop.IS_HEAVY_ATOM>  (562) 
1 0 0 0 1 0 0 1 0 0 0 1 0 0 0 1 1 0 1 0 1 0 1 0 1 0

>  <DIFUSE_FUNC_ATOM>  (562) 
n/a

>  <FINAL_SINGLE_POINT_ENERGY>  (562) 
0

>  <NONCOV_INTER_ENERGY_QM>  (562) 
0

>  <FF_Energy>  (562) 
-5.83

>  <QM_Energy>  (562) 
-11.42

>  <source>  (562) 
ETAM_MBZ

>  <Index>  (562) 
5495

$$$$
ETAM-pdb2icw-D-GLU-3:MBZ-pdb2icw-E-PHE-18
     RDKit          3D

 26 25  0  0  0  0  0  0  0  0999 V2000
    2.8790   -1.3145    3.0059 C   0  0  0  0  0  0  0  0  0  0  0  0
    2.8427   -1.8877    2.2102 H   0  0  0  0  0  0  0  0  0  0  0  0
    3.5777   -1.5903    3.6371 H   0  0  0  0  0  0  0  0  0  0  0  0
    1.9186   -1.3898    3.5158 H   0  0  0  0  0  0  0  0  0  0  0  0
    3.2028    0.1038    2.5421 C   0  0  0  0  0  0  0  0  0  0  0  0
    2.3947    0.4536    2.0624 H   0  0  0  0  0  0  0  0  0  0  0  0
    3.4228    0.7280    3.4081 H   0  0  0  0  0  0  0  0  0  0  0  0
    4.3563    0.0858    1.5887 N   0  0  0  0  0  4  0  0  0  0  0  0
    4.6788    1.0185    1.4519 H   0  0  0  0  0  0  0  0  0  0  0  0
    5.0857   -0.4727    1.9737 H   0  0  0  0  0  0  0  0  0  0  0  0
    4.0533   -0.2996    0.7217 H   0  0  0  0  0  0  0  0  0  0  0  0
    0.0010    2.9079   -0.0139 C   0  0  0  0  0  0  0  0  0  0  0  0
   -0.7267    3.2121   -0.6093 H   0  0  0  0  0  0  0  0  0  0  0  0
    0.8841    3.2108   -0.3400 H   0  0  0  0  0  0  0  0  0  0  0  0
   -0.1620    3.3591    0.9648 H   0  0  0  0  0  0  0  0  0  0  0  0
   -0.0021    1.4051   -0.0006 C   0  0  0  0  0  0  0  0  0  0  0  0
   -1.1999    0.6982    0.0014 C   0  0  0  0  0  0  0  0  0  0  0  0
   -2.0663    1.1868    0.0025 H   0  0  0  0  0  0  0  0  0  0  0  0
   -1.2049   -0.6973   -0.0000 C   0  0  0  0  0  0  0  0  0  0  0  0
   -2.0773   -1.1926    0.0004 H   0  0  0  0  0  0  0  0  0  0  0  0
    0.0064   -1.3989   -0.0005 C   0  0  0  0  0  0  0  0  0  0  0  0
   -0.0028   -2.3954   -0.0021 H   0  0  0  0  0  0  0  0  0  0  0  0
    1.2049   -0.7017    0.0000 C   0  0  0  0  0  0  0  0  0  0  0  0
    2.0878   -1.1931    0.0021 H   0  0  0  0  0  0  0  0  0  0  0  0
    1.1956    0.6947   -0.0003 C   0  0  0  0  0  0  0  0  0  0  0  0
    2.0646    1.1913   -0.0016 H   0  0  0  0  0  0  0  0  0  0  0  0
  1  5  1  0
  5  8  1  0
  1  2  1  0
  1  3  1  0
  1  4  1  0
  5  6  1  0
  5  7  1  0
  8  9  1  0
  8 10  1  0
  8 11  1  0
 12 16  1  0
 16 17  2  0
 17 19  1  0
 19 21  2  0
 21 23  1  0
 23 25  2  0
 25 16  1  0
 12 13  1  0
 12 14  1  0
 12 15  1  0
 17 18  1  0
 19 20  1  0
 21 22  1  0
 23 24  1  0
 25 26  1  0
M  CHG  1   8   1
M  END
>  <PDB_ID>  (563) 
pdb2icw

>  <RESIDUE_NAME>  (563) 
GLU   PHE

>  <FRAG_NAME>  (563) 
ETAM   MBZ

>  <FRAG_ATOM_NUM>  (563) 
fragi: 11  fragj: 15

>  <atom.prop.CHAIN_ID>  (563) 
A A A A A A A A A A A Z Z Z Z Z Z Z Z Z Z Z Z Z Z Z

>  <atom.prop.IS_HEAVY_ATOM>  (563) 
1 0 0 0 1 0 0 1 0 0 0 1 0 0 0 1 1 0 1 0 1 0 1 0 1 0

>  <DIFUSE_FUNC_ATOM>  (563) 
n/a

>  <FINAL_SINGLE_POINT_ENERGY>  (563) 
0

>  <NONCOV_INTER_ENERGY_QM>  (563) 
0

>  <FF_Energy>  (563) 
1.81

>  <QM_Energy>  (563) 
-5.2

>  <source>  (563) 
ETAM_MBZ

>  <Index>  (563) 
5536

$$$$
ETAM-pdb1hpl-B-LYS-399:MBZ-pdb1hpl-B-PHE-360
     RDKit          3D

 26 25  0  0  0  0  0  0  0  0999 V2000
   -1.9268   -2.3094   -3.0032 C   0  0  0  0  0  0  0  0  0  0  0  0
   -1.7261   -2.3601   -2.0178 H   0  0  0  0  0  0  0  0  0  0  0  0
   -2.3581   -3.1753   -3.2842 H   0  0  0  0  0  0  0  0  0  0  0  0
   -2.6358   -1.4985   -3.1701 H   0  0  0  0  0  0  0  0  0  0  0  0
   -0.6256   -2.1541   -3.7524 C   0  0  0  0  0  0  0  0  0  0  0  0
   -0.0364   -2.9382   -3.5356 H   0  0  0  0  0  0  0  0  0  0  0  0
   -0.8207   -2.1600   -4.7376 H   0  0  0  0  0  0  0  0  0  0  0  0
    0.0301   -0.9198   -3.3807 N   0  0  0  0  0  4  0  0  0  0  0  0
   -0.4752   -0.4606   -2.6406 H   0  0  0  0  0  0  0  0  0  0  0  0
    0.9670   -1.1010   -3.0611 H   0  0  0  0  0  0  0  0  0  0  0  0
    0.0778   -0.2949   -4.1686 H   0  0  0  0  0  0  0  0  0  0  0  0
    0.0299    2.9096    0.1199 C   0  0  0  0  0  0  0  0  0  0  0  0
   -0.6723    3.2638   -0.4586 H   0  0  0  0  0  0  0  0  0  0  0  0
    0.9255    3.2076   -0.1285 H   0  0  0  0  0  0  0  0  0  0  0  0
   -0.1705    3.2252    1.1438 H   0  0  0  0  0  0  0  0  0  0  0  0
    0.0017    1.3935    0.0019 C   0  0  0  0  0  0  0  0  0  0  0  0
   -1.1874    0.6972   -0.0052 C   0  0  0  0  0  0  0  0  0  0  0  0
   -2.0544    1.1832   -0.0154 H   0  0  0  0  0  0  0  0  0  0  0  0
   -1.1851   -0.6894   -0.0000 C   0  0  0  0  0  0  0  0  0  0  0  0
   -2.0726   -1.1812   -0.0010 H   0  0  0  0  0  0  0  0  0  0  0  0
   -0.0026   -1.3911    0.0087 C   0  0  0  0  0  0  0  0  0  0  0  0
   -0.0096   -2.3887    0.0200 H   0  0  0  0  0  0  0  0  0  0  0  0
    1.1851   -0.6973   -0.0000 C   0  0  0  0  0  0  0  0  0  0  0  0
    2.0729   -1.1973   -0.0011 H   0  0  0  0  0  0  0  0  0  0  0  0
    1.1882    0.6871   -0.0054 C   0  0  0  0  0  0  0  0  0  0  0  0
    2.0605    1.1791   -0.0152 H   0  0  0  0  0  0  0  0  0  0  0  0
  1  5  1  0
  5  8  1  0
  1  2  1  0
  1  3  1  0
  1  4  1  0
  5  6  1  0
  5  7  1  0
  8  9  1  0
  8 10  1  0
  8 11  1  0
 12 16  1  0
 16 17  2  0
 17 19  1  0
 19 21  2  0
 21 23  1  0
 23 25  2  0
 25 16  1  0
 12 13  1  0
 12 14  1  0
 12 15  1  0
 17 18  1  0
 19 20  1  0
 21 22  1  0
 23 24  1  0
 25 26  1  0
M  CHG  1   8   1
M  END
>  <PDB_ID>  (564) 
pdb1hpl

>  <RESIDUE_NAME>  (564) 
LYS   PHE

>  <FRAG_NAME>  (564) 
ETAM   MBZ

>  <FRAG_ATOM_NUM>  (564) 
fragi: 11  fragj: 15

>  <atom.prop.CHAIN_ID>  (564) 
A A A A A A A A A A A Z Z Z Z Z Z Z Z Z Z Z Z Z Z Z

>  <atom.prop.IS_HEAVY_ATOM>  (564) 
1 0 0 0 1 0 0 1 0 0 0 1 0 0 0 1 1 0 1 0 1 0 1 0 1 0

>  <DIFUSE_FUNC_ATOM>  (564) 
n/a

>  <FINAL_SINGLE_POINT_ENERGY>  (564) 
0

>  <NONCOV_INTER_ENERGY_QM>  (564) 
0

>  <FF_Energy>  (564) 
-7.52

>  <QM_Energy>  (564) 
-14.3

>  <source>  (564) 
ETAM_MBZ

>  <Index>  (564) 
5547

$$$$
ETAM-pdb2ido-A-LYS-76:MBZ-pdb2ido-A-PHE-72
     RDKit          3D

 26 25  0  0  0  0  0  0  0  0999 V2000
    1.8026   -1.6954    4.9115 C   0  0  0  0  0  0  0  0  0  0  0  0
    2.4720   -2.4317    4.8852 H   0  0  0  0  0  0  0  0  0  0  0  0
    1.2671   -1.7443    5.7484 H   0  0  0  0  0  0  0  0  0  0  0  0
    2.3253   -0.7395    4.8789 H   0  0  0  0  0  0  0  0  0  0  0  0
    0.8547   -1.8639    3.7230 C   0  0  0  0  0  0  0  0  0  0  0  0
    1.3937   -1.8107    2.8733 H   0  0  0  0  0  0  0  0  0  0  0  0
    0.4361   -2.7796    3.7741 H   0  0  0  0  0  0  0  0  0  0  0  0
   -0.2201   -0.8358    3.6862 N   0  0  0  0  0  4  0  0  0  0  0  0
   -0.2849   -0.4566    2.7636 H   0  0  0  0  0  0  0  0  0  0  0  0
   -1.0915   -1.2576    3.9371 H   0  0  0  0  0  0  0  0  0  0  0  0
   -0.0024   -0.1054    4.3328 H   0  0  0  0  0  0  0  0  0  0  0  0
    0.0037    2.9042   -0.0118 C   0  0  0  0  0  0  0  0  0  0  0  0
   -0.6722    3.2094   -0.6665 H   0  0  0  0  0  0  0  0  0  0  0  0
    0.9108    3.2082   -0.2652 H   0  0  0  0  0  0  0  0  0  0  0  0
   -0.2398    3.3578    0.9489 H   0  0  0  0  0  0  0  0  0  0  0  0
   -0.0000    1.4033   -0.0007 C   0  0  0  0  0  0  0  0  0  0  0  0
   -1.2000    0.6964   -0.0004 C   0  0  0  0  0  0  0  0  0  0  0  0
   -2.0650    1.1865   -0.0021 H   0  0  0  0  0  0  0  0  0  0  0  0
   -1.2059   -0.6972   -0.0000 C   0  0  0  0  0  0  0  0  0  0  0  0
   -2.0812   -1.1908    0.0022 H   0  0  0  0  0  0  0  0  0  0  0  0
   -0.0000   -1.3981   -0.0008 C   0  0  0  0  0  0  0  0  0  0  0  0
   -0.0055   -2.3950   -0.0024 H   0  0  0  0  0  0  0  0  0  0  0  0
    1.2059   -0.6994    0.0000 C   0  0  0  0  0  0  0  0  0  0  0  0
    2.0849   -1.1962    0.0007 H   0  0  0  0  0  0  0  0  0  0  0  0
    1.2000    0.6950    0.0019 C   0  0  0  0  0  0  0  0  0  0  0  0
    2.0665    1.1915    0.0043 H   0  0  0  0  0  0  0  0  0  0  0  0
  1  5  1  0
  5  8  1  0
  1  2  1  0
  1  3  1  0
  1  4  1  0
  5  6  1  0
  5  7  1  0
  8  9  1  0
  8 10  1  0
  8 11  1  0
 12 16  1  0
 16 17  2  0
 17 19  1  0
 19 21  2  0
 21 23  1  0
 23 25  2  0
 25 16  1  0
 12 13  1  0
 12 14  1  0
 12 15  1  0
 17 18  1  0
 19 20  1  0
 21 22  1  0
 23 24  1  0
 25 26  1  0
M  CHG  1   8   1
M  END
>  <PDB_ID>  (565) 
pdb2ido

>  <RESIDUE_NAME>  (565) 
LYS   PHE

>  <FRAG_NAME>  (565) 
ETAM   MBZ

>  <FRAG_ATOM_NUM>  (565) 
fragi: 11  fragj: 15

>  <atom.prop.CHAIN_ID>  (565) 
A A A A A A A A A A A Z Z Z Z Z Z Z Z Z Z Z Z Z Z Z

>  <atom.prop.IS_HEAVY_ATOM>  (565) 
1 0 0 0 1 0 0 1 0 0 0 1 0 0 0 1 1 0 1 0 1 0 1 0 1 0

>  <DIFUSE_FUNC_ATOM>  (565) 
n/a

>  <FINAL_SINGLE_POINT_ENERGY>  (565) 
0

>  <NONCOV_INTER_ENERGY_QM>  (565) 
0

>  <FF_Energy>  (565) 
-7.03

>  <QM_Energy>  (565) 
-13.1

>  <source>  (565) 
ETAM_MBZ

>  <Index>  (565) 
5557

$$$$
ETAM-pdb2ifa-D-LYS-85:MBZ-pdb2ifa-D-PHE-89
     RDKit          3D

 26 25  0  0  0  0  0  0  0  0999 V2000
    1.1656   -3.7888   -2.9545 C   0  0  0  0  0  0  0  0  0  0  0  0
    1.6375   -4.4717   -3.5092 H   0  0  0  0  0  0  0  0  0  0  0  0
    0.9357   -4.1778   -2.0643 H   0  0  0  0  0  0  0  0  0  0  0  0
    1.8323   -2.9397   -2.8038 H   0  0  0  0  0  0  0  0  0  0  0  0
   -0.1284   -3.4017   -3.6614 C   0  0  0  0  0  0  0  0  0  0  0  0
    0.0962   -2.8341   -4.4588 H   0  0  0  0  0  0  0  0  0  0  0  0
   -0.5864   -4.2369   -3.9789 H   0  0  0  0  0  0  0  0  0  0  0  0
   -1.0495   -2.6485   -2.7671 N   0  0  0  0  0  4  0  0  0  0  0  0
   -1.5235   -3.2892   -2.1638 H   0  0  0  0  0  0  0  0  0  0  0  0
   -0.5226   -1.9999   -2.2193 H   0  0  0  0  0  0  0  0  0  0  0  0
   -1.7184   -2.1529   -3.3211 H   0  0  0  0  0  0  0  0  0  0  0  0
    0.0045    2.9127    0.0535 C   0  0  0  0  0  0  0  0  0  0  0  0
    0.8898    3.2258   -0.2554 H   0  0  0  0  0  0  0  0  0  0  0  0
   -0.1665    3.1851    0.9888 H   0  0  0  0  0  0  0  0  0  0  0  0
   -0.7539    3.3801   -0.5747 H   0  0  0  0  0  0  0  0  0  0  0  0
    0.0003    1.4064    0.0007 C   0  0  0  0  0  0  0  0  0  0  0  0
   -1.1987    0.6956    0.0006 C   0  0  0  0  0  0  0  0  0  0  0  0
   -2.0655    1.1841   -0.0006 H   0  0  0  0  0  0  0  0  0  0  0  0
   -1.2045   -0.7010    0.0000 C   0  0  0  0  0  0  0  0  0  0  0  0
   -2.0804   -1.1926    0.0010 H   0  0  0  0  0  0  0  0  0  0  0  0
    0.0004   -1.3983    0.0001 C   0  0  0  0  0  0  0  0  0  0  0  0
   -0.0022   -2.3962   -0.0002 H   0  0  0  0  0  0  0  0  0  0  0  0
    1.2045   -0.6987   -0.0000 C   0  0  0  0  0  0  0  0  0  0  0  0
    2.0847   -1.1944    0.0025 H   0  0  0  0  0  0  0  0  0  0  0  0
    1.1980    0.6959   -0.0014 C   0  0  0  0  0  0  0  0  0  0  0  0
    2.0665    1.1913   -0.0048 H   0  0  0  0  0  0  0  0  0  0  0  0
  1  5  1  0
  5  8  1  0
  1  2  1  0
  1  3  1  0
  1  4  1  0
  5  6  1  0
  5  7  1  0
  8  9  1  0
  8 10  1  0
  8 11  1  0
 12 16  1  0
 16 17  2  0
 17 19  1  0
 19 21  2  0
 21 23  1  0
 23 25  2  0
 25 16  1  0
 12 13  1  0
 12 14  1  0
 12 15  1  0
 17 18  1  0
 19 20  1  0
 21 22  1  0
 23 24  1  0
 25 26  1  0
M  CHG  1   8   1
M  END
>  <PDB_ID>  (566) 
pdb2ifa

>  <RESIDUE_NAME>  (566) 
LYS   PHE

>  <FRAG_NAME>  (566) 
ETAM   MBZ

>  <FRAG_ATOM_NUM>  (566) 
fragi: 11  fragj: 15

>  <atom.prop.CHAIN_ID>  (566) 
A A A A A A A A A A A Z Z Z Z Z Z Z Z Z Z Z Z Z Z Z

>  <atom.prop.IS_HEAVY_ATOM>  (566) 
1 0 0 0 1 0 0 1 0 0 0 1 0 0 0 1 1 0 1 0 1 0 1 0 1 0

>  <DIFUSE_FUNC_ATOM>  (566) 
n/a

>  <FINAL_SINGLE_POINT_ENERGY>  (566) 
0

>  <NONCOV_INTER_ENERGY_QM>  (566) 
0

>  <FF_Energy>  (566) 
-3.61

>  <QM_Energy>  (566) 
-11.24

>  <source>  (566) 
ETAM_MBZ

>  <Index>  (566) 
5563

$$$$
ETAM-pdb2ifx-A-LYS-92:MBZ-pdb2ifx-A-PHE-88
     RDKit          3D

 26 25  0  0  0  0  0  0  0  0999 V2000
    3.6556    3.2398    4.1097 C   0  0  0  0  0  0  0  0  0  0  0  0
    4.5050    2.7836    4.3380 H   0  0  0  0  0  0  0  0  0  0  0  0
    2.8778    2.7458    4.4717 H   0  0  0  0  0  0  0  0  0  0  0  0
    3.6693    4.2370    4.5496 H   0  0  0  0  0  0  0  0  0  0  0  0
    3.5272    3.2916    2.5702 C   0  0  0  0  0  0  0  0  0  0  0  0
    2.6342    3.6806    2.3407 H   0  0  0  0  0  0  0  0  0  0  0  0
    4.2487    3.8858    2.2120 H   0  0  0  0  0  0  0  0  0  0  0  0
    3.6504    1.9331    1.9496 N   0  0  0  0  0  4  0  0  0  0  0  0
    2.7463    1.6200    1.6666 H   0  0  0  0  0  0  0  0  0  0  0  0
    4.2525    1.9904    1.1561 H   0  0  0  0  0  0  0  0  0  0  0  0
    4.0332    1.3010    2.6202 H   0  0  0  0  0  0  0  0  0  0  0  0
    0.0083    2.8998   -0.0132 C   0  0  0  0  0  0  0  0  0  0  0  0
   -0.1368    3.1957   -0.9454 H   0  0  0  0  0  0  0  0  0  0  0  0
    0.8817    3.2090    0.3313 H   0  0  0  0  0  0  0  0  0  0  0  0
   -0.7685    3.3539    0.6020 H   0  0  0  0  0  0  0  0  0  0  0  0
    0.0018    1.3982    0.0081 C   0  0  0  0  0  0  0  0  0  0  0  0
   -1.1952    0.6927   -0.0051 C   0  0  0  0  0  0  0  0  0  0  0  0
   -2.0615    1.1849   -0.0191 H   0  0  0  0  0  0  0  0  0  0  0  0
   -1.2008   -0.6954   -0.0000 C   0  0  0  0  0  0  0  0  0  0  0  0
   -2.0748   -1.1907    0.0053 H   0  0  0  0  0  0  0  0  0  0  0  0
    0.0042   -1.3914   -0.0004 C   0  0  0  0  0  0  0  0  0  0  0  0
   -0.0030   -2.3916   -0.0017 H   0  0  0  0  0  0  0  0  0  0  0  0
    1.2008   -0.6981    0.0000 C   0  0  0  0  0  0  0  0  0  0  0  0
    2.0836   -1.1899    0.0041 H   0  0  0  0  0  0  0  0  0  0  0  0
    1.1893    0.6940   -0.0026 C   0  0  0  0  0  0  0  0  0  0  0  0
    2.0620    1.1893   -0.0130 H   0  0  0  0  0  0  0  0  0  0  0  0
  1  5  1  0
  5  8  1  0
  1  2  1  0
  1  3  1  0
  1  4  1  0
  5  6  1  0
  5  7  1  0
  8  9  1  0
  8 10  1  0
  8 11  1  0
 12 16  1  0
 16 17  2  0
 17 19  1  0
 19 21  2  0
 21 23  1  0
 23 25  2  0
 25 16  1  0
 12 13  1  0
 12 14  1  0
 12 15  1  0
 17 18  1  0
 19 20  1  0
 21 22  1  0
 23 24  1  0
 25 26  1  0
M  CHG  1   8   1
M  END
>  <PDB_ID>  (567) 
pdb2ifx

>  <RESIDUE_NAME>  (567) 
LYS   PHE

>  <FRAG_NAME>  (567) 
ETAM   MBZ

>  <FRAG_ATOM_NUM>  (567) 
fragi: 11  fragj: 15

>  <atom.prop.CHAIN_ID>  (567) 
A A A A A A A A A A A Z Z Z Z Z Z Z Z Z Z Z Z Z Z Z

>  <atom.prop.IS_HEAVY_ATOM>  (567) 
1 0 0 0 1 0 0 1 0 0 0 1 0 0 0 1 1 0 1 0 1 0 1 0 1 0

>  <DIFUSE_FUNC_ATOM>  (567) 
n/a

>  <FINAL_SINGLE_POINT_ENERGY>  (567) 
0

>  <NONCOV_INTER_ENERGY_QM>  (567) 
0

>  <FF_Energy>  (567) 
-0.51

>  <QM_Energy>  (567) 
-5.74

>  <source>  (567) 
ETAM_MBZ

>  <Index>  (567) 
5564

$$$$
ETAM-pdb1hr6-G-ALA-14:MBZ-pdb1hr6-G-PHE-19
     RDKit          3D

 26 25  0  0  0  0  0  0  0  0999 V2000
    4.1899    2.6911   -2.6042 C   0  0  0  0  0  0  0  0  0  0  0  0
    3.5910    2.7388   -3.4039 H   0  0  0  0  0  0  0  0  0  0  0  0
    5.0382    3.1858   -2.7963 H   0  0  0  0  0  0  0  0  0  0  0  0
    4.4027    1.7340   -2.4075 H   0  0  0  0  0  0  0  0  0  0  0  0
    3.4942    3.3156   -1.4077 C   0  0  0  0  0  0  0  0  0  0  0  0
    3.5529    2.6430   -0.6559 H   0  0  0  0  0  0  0  0  0  0  0  0
    4.0107    4.2224   -1.0928 H   0  0  0  0  0  0  0  0  0  0  0  0
    2.0965    3.5699   -1.7089 N   0  0  0  0  0  4  0  0  0  0  0  0
    1.7113    2.8078   -2.2357 H   0  0  0  0  0  0  0  0  0  0  0  0
    1.5721    3.6721   -0.8598 H   0  0  0  0  0  0  0  0  0  0  0  0
    2.0061    4.4116   -2.2469 H   0  0  0  0  0  0  0  0  0  0  0  0
   -0.0150    2.8986   -0.0136 C   0  0  0  0  0  0  0  0  0  0  0  0
   -0.6147    3.1901   -0.7451 H   0  0  0  0  0  0  0  0  0  0  0  0
    0.9122    3.2085   -0.1664 H   0  0  0  0  0  0  0  0  0  0  0  0
   -0.3724    3.3413    0.9162 H   0  0  0  0  0  0  0  0  0  0  0  0
   -0.0020    1.3985    0.0011 C   0  0  0  0  0  0  0  0  0  0  0  0
   -1.1983    0.6835    0.0006 C   0  0  0  0  0  0  0  0  0  0  0  0
   -2.0648    1.1807   -0.0006 H   0  0  0  0  0  0  0  0  0  0  0  0
   -1.2024   -0.6913   -0.0000 C   0  0  0  0  0  0  0  0  0  0  0  0
   -2.0788   -1.1917    0.0019 H   0  0  0  0  0  0  0  0  0  0  0  0
   -0.0035   -1.3874   -0.0018 C   0  0  0  0  0  0  0  0  0  0  0  0
   -0.0092   -2.3881   -0.0049 H   0  0  0  0  0  0  0  0  0  0  0  0
    1.2024   -0.6969   -0.0000 C   0  0  0  0  0  0  0  0  0  0  0  0
    2.0804   -1.1991    0.0021 H   0  0  0  0  0  0  0  0  0  0  0  0
    1.2038    0.6937    0.0002 C   0  0  0  0  0  0  0  0  0  0  0  0
    2.0656    1.1908   -0.0015 H   0  0  0  0  0  0  0  0  0  0  0  0
  1  5  1  0
  5  8  1  0
  1  2  1  0
  1  3  1  0
  1  4  1  0
  5  6  1  0
  5  7  1  0
  8  9  1  0
  8 10  1  0
  8 11  1  0
 12 16  1  0
 16 17  2  0
 17 19  1  0
 19 21  2  0
 21 23  1  0
 23 25  2  0
 25 16  1  0
 12 13  1  0
 12 14  1  0
 12 15  1  0
 17 18  1  0
 19 20  1  0
 21 22  1  0
 23 24  1  0
 25 26  1  0
M  CHG  1   8   1
M  END
>  <PDB_ID>  (568) 
pdb1hr6

>  <RESIDUE_NAME>  (568) 
ALA   PHE

>  <FRAG_NAME>  (568) 
ETAM   MBZ

>  <FRAG_ATOM_NUM>  (568) 
fragi: 11  fragj: 15

>  <atom.prop.CHAIN_ID>  (568) 
A A A A A A A A A A A Z Z Z Z Z Z Z Z Z Z Z Z Z Z Z

>  <atom.prop.IS_HEAVY_ATOM>  (568) 
1 0 0 0 1 0 0 1 0 0 0 1 0 0 0 1 1 0 1 0 1 0 1 0 1 0

>  <DIFUSE_FUNC_ATOM>  (568) 
n/a

>  <FINAL_SINGLE_POINT_ENERGY>  (568) 
0

>  <NONCOV_INTER_ENERGY_QM>  (568) 
0

>  <FF_Energy>  (568) 
26.7

>  <QM_Energy>  (568) 
13.18

>  <source>  (568) 
ETAM_MBZ

>  <Index>  (568) 
5579

$$$$
ETAM-pdb1ht0-B-LYS-185:MBZ-pdb1ht0-B-PHE-322
     RDKit          3D

 26 25  0  0  0  0  0  0  0  0999 V2000
    2.1892    0.6193    3.7304 C   0  0  0  0  0  0  0  0  0  0  0  0
    1.6342    0.1948    3.0263 H   0  0  0  0  0  0  0  0  0  0  0  0
    2.0811    1.6046    3.7197 H   0  0  0  0  0  0  0  0  0  0  0  0
    1.8811    0.2377    4.7037 H   0  0  0  0  0  0  0  0  0  0  0  0
    3.6496    0.2890    3.4619 C   0  0  0  0  0  0  0  0  0  0  0  0
    4.2081    1.0968    3.6753 H   0  0  0  0  0  0  0  0  0  0  0  0
    3.9286   -0.4622    4.0688 H   0  0  0  0  0  0  0  0  0  0  0  0
    3.8830   -0.1094    2.0516 N   0  0  0  0  0  4  0  0  0  0  0  0
    4.6338   -0.7695    2.0107 H   0  0  0  0  0  0  0  0  0  0  0  0
    3.0529   -0.5266    1.6806 H   0  0  0  0  0  0  0  0  0  0  0  0
    4.1199    0.6984    1.5113 H   0  0  0  0  0  0  0  0  0  0  0  0
    0.0007    2.9002   -0.0624 C   0  0  0  0  0  0  0  0  0  0  0  0
   -0.9363    3.2055   -0.1627 H   0  0  0  0  0  0  0  0  0  0  0  0
    0.5502    3.1779   -0.8384 H   0  0  0  0  0  0  0  0  0  0  0  0
    0.4118    3.3881    0.8215 H   0  0  0  0  0  0  0  0  0  0  0  0
    0.0011    1.4010   -0.0009 C   0  0  0  0  0  0  0  0  0  0  0  0
   -1.1940    0.6952    0.0005 C   0  0  0  0  0  0  0  0  0  0  0  0
   -2.0618    1.1830    0.0002 H   0  0  0  0  0  0  0  0  0  0  0  0
   -1.2013   -0.7021    0.0000 C   0  0  0  0  0  0  0  0  0  0  0  0
   -2.0803   -1.1898    0.0011 H   0  0  0  0  0  0  0  0  0  0  0  0
   -0.0055   -1.3930    0.0003 C   0  0  0  0  0  0  0  0  0  0  0  0
   -0.0017   -2.3918    0.0004 H   0  0  0  0  0  0  0  0  0  0  0  0
    1.2013   -0.6923   -0.0000 C   0  0  0  0  0  0  0  0  0  0  0  0
    2.0794   -1.1962    0.0017 H   0  0  0  0  0  0  0  0  0  0  0  0
    1.1984    0.6911    0.0002 C   0  0  0  0  0  0  0  0  0  0  0  0
    2.0654    1.1909   -0.0001 H   0  0  0  0  0  0  0  0  0  0  0  0
  1  5  1  0
  5  8  1  0
  1  2  1  0
  1  3  1  0
  1  4  1  0
  5  6  1  0
  5  7  1  0
  8  9  1  0
  8 10  1  0
  8 11  1  0
 12 16  1  0
 16 17  2  0
 17 19  1  0
 19 21  2  0
 21 23  1  0
 23 25  2  0
 25 16  1  0
 12 13  1  0
 12 14  1  0
 12 15  1  0
 17 18  1  0
 19 20  1  0
 21 22  1  0
 23 24  1  0
 25 26  1  0
M  CHG  1   8   1
M  END
>  <PDB_ID>  (569) 
pdb1ht0

>  <RESIDUE_NAME>  (569) 
LYS   PHE

>  <FRAG_NAME>  (569) 
ETAM   MBZ

>  <FRAG_ATOM_NUM>  (569) 
fragi: 11  fragj: 15

>  <atom.prop.CHAIN_ID>  (569) 
A A A A A A A A A A A Z Z Z Z Z Z Z Z Z Z Z Z Z Z Z

>  <atom.prop.IS_HEAVY_ATOM>  (569) 
1 0 0 0 1 0 0 1 0 0 0 1 0 0 0 1 1 0 1 0 1 0 1 0 1 0

>  <DIFUSE_FUNC_ATOM>  (569) 
n/a

>  <FINAL_SINGLE_POINT_ENERGY>  (569) 
0

>  <NONCOV_INTER_ENERGY_QM>  (569) 
0

>  <FF_Energy>  (569) 
-1.63

>  <QM_Energy>  (569) 
-7.98

>  <source>  (569) 
ETAM_MBZ

>  <Index>  (569) 
5583

$$$$
ETAM-pdb2ifx-B-LYS-99:MBZ-pdb2ifx-A-PHE-55
     RDKit          3D

 26 25  0  0  0  0  0  0  0  0999 V2000
    0.3647   -3.0225    3.1156 C   0  0  0  0  0  0  0  0  0  0  0  0
   -0.3982   -2.6078    2.6425 H   0  0  0  0  0  0  0  0  0  0  0  0
    1.1802   -2.4678    3.0379 H   0  0  0  0  0  0  0  0  0  0  0  0
    0.1114   -3.1495    4.1681 H   0  0  0  0  0  0  0  0  0  0  0  0
    0.6542   -4.3911    2.4457 C   0  0  0  0  0  0  0  0  0  0  0  0
    1.2770   -4.9062    3.0440 H   0  0  0  0  0  0  0  0  0  0  0  0
   -0.2133   -4.8966    2.3790 H   0  0  0  0  0  0  0  0  0  0  0  0
    1.2613   -4.2672    1.0863 N   0  0  0  0  0  4  0  0  0  0  0  0
    1.7947   -3.4238    1.0400 H   0  0  0  0  0  0  0  0  0  0  0  0
    1.8565   -5.0514    0.9189 H   0  0  0  0  0  0  0  0  0  0  0  0
    0.5336   -4.2442    0.4028 H   0  0  0  0  0  0  0  0  0  0  0  0
   -0.0188    2.8959    0.0029 C   0  0  0  0  0  0  0  0  0  0  0  0
   -0.7539    3.1976   -0.5852 H   0  0  0  0  0  0  0  0  0  0  0  0
    0.8575    3.2163   -0.3219 H   0  0  0  0  0  0  0  0  0  0  0  0
   -0.1844    3.3289    0.9894 H   0  0  0  0  0  0  0  0  0  0  0  0
   -0.0012    1.4003    0.0012 C   0  0  0  0  0  0  0  0  0  0  0  0
   -1.1955    0.6958   -0.0001 C   0  0  0  0  0  0  0  0  0  0  0  0
   -2.0621    1.1901   -0.0026 H   0  0  0  0  0  0  0  0  0  0  0  0
   -1.2046   -0.6888    0.0000 C   0  0  0  0  0  0  0  0  0  0  0  0
   -2.0816   -1.1837    0.0020 H   0  0  0  0  0  0  0  0  0  0  0  0
   -0.0019   -1.3979   -0.0002 C   0  0  0  0  0  0  0  0  0  0  0  0
   -0.0136   -2.3934   -0.0011 H   0  0  0  0  0  0  0  0  0  0  0  0
    1.2046   -0.7047   -0.0000 C   0  0  0  0  0  0  0  0  0  0  0  0
    2.0825   -1.1991    0.0021 H   0  0  0  0  0  0  0  0  0  0  0  0
    1.1986    0.6953   -0.0008 C   0  0  0  0  0  0  0  0  0  0  0  0
    2.0655    1.1889   -0.0039 H   0  0  0  0  0  0  0  0  0  0  0  0
  1  5  1  0
  5  8  1  0
  1  2  1  0
  1  3  1  0
  1  4  1  0
  5  6  1  0
  5  7  1  0
  8  9  1  0
  8 10  1  0
  8 11  1  0
 12 16  1  0
 16 17  2  0
 17 19  1  0
 19 21  2  0
 21 23  1  0
 23 25  2  0
 25 16  1  0
 12 13  1  0
 12 14  1  0
 12 15  1  0
 17 18  1  0
 19 20  1  0
 21 22  1  0
 23 24  1  0
 25 26  1  0
M  CHG  1   8   1
M  END
>  <PDB_ID>  (570) 
pdb2ifx

>  <RESIDUE_NAME>  (570) 
LYS   PHE

>  <FRAG_NAME>  (570) 
ETAM   MBZ

>  <FRAG_ATOM_NUM>  (570) 
fragi: 11  fragj: 15

>  <atom.prop.CHAIN_ID>  (570) 
A A A A A A A A A A A Z Z Z Z Z Z Z Z Z Z Z Z Z Z Z

>  <atom.prop.IS_HEAVY_ATOM>  (570) 
1 0 0 0 1 0 0 1 0 0 0 1 0 0 0 1 1 0 1 0 1 0 1 0 1 0

>  <DIFUSE_FUNC_ATOM>  (570) 
n/a

>  <FINAL_SINGLE_POINT_ENERGY>  (570) 
0

>  <NONCOV_INTER_ENERGY_QM>  (570) 
0

>  <FF_Energy>  (570) 
1.4

>  <QM_Energy>  (570) 
-4.79

>  <source>  (570) 
ETAM_MBZ

>  <Index>  (570) 
5588

$$$$
ETAM-pdb2ido-C-LYS-76:MBZ-pdb2ido-C-PHE-72
     RDKit          3D

 26 25  0  0  0  0  0  0  0  0999 V2000
    1.2165   -1.4083    4.8948 C   0  0  0  0  0  0  0  0  0  0  0  0
    1.9374   -2.0931    4.9735 H   0  0  0  0  0  0  0  0  0  0  0  0
    0.5505   -1.5302    5.6267 H   0  0  0  0  0  0  0  0  0  0  0  0
    1.6629   -0.4181    4.9869 H   0  0  0  0  0  0  0  0  0  0  0  0
    0.5109   -1.5993    3.5610 C   0  0  0  0  0  0  0  0  0  0  0  0
    1.1389   -1.3238    2.8198 H   0  0  0  0  0  0  0  0  0  0  0  0
    0.3024   -2.5800    3.4424 H   0  0  0  0  0  0  0  0  0  0  0  0
   -0.7473   -0.8177    3.4479 N   0  0  0  0  0  4  0  0  0  0  0  0
   -1.4551   -1.3846    3.0256 H   0  0  0  0  0  0  0  0  0  0  0  0
   -1.0461   -0.5348    4.3588 H   0  0  0  0  0  0  0  0  0  0  0  0
   -0.5869   -0.0086    2.8823 H   0  0  0  0  0  0  0  0  0  0  0  0
    0.0033    2.9061   -0.0318 C   0  0  0  0  0  0  0  0  0  0  0  0
   -0.5458    3.2004   -0.8007 H   0  0  0  0  0  0  0  0  0  0  0  0
    0.9398    3.2110   -0.1225 H   0  0  0  0  0  0  0  0  0  0  0  0
   -0.4089    3.3698    0.8644 H   0  0  0  0  0  0  0  0  0  0  0  0
    0.0003    1.4061   -0.0009 C   0  0  0  0  0  0  0  0  0  0  0  0
   -1.1985    0.6978    0.0005 C   0  0  0  0  0  0  0  0  0  0  0  0
   -2.0650    1.1860    0.0007 H   0  0  0  0  0  0  0  0  0  0  0  0
   -1.2037   -0.6991    0.0000 C   0  0  0  0  0  0  0  0  0  0  0  0
   -2.0798   -1.1906    0.0013 H   0  0  0  0  0  0  0  0  0  0  0  0
    0.0008   -1.4004    0.0000 C   0  0  0  0  0  0  0  0  0  0  0  0
   -0.0045   -2.3966   -0.0008 H   0  0  0  0  0  0  0  0  0  0  0  0
    1.2037   -0.7013   -0.0000 C   0  0  0  0  0  0  0  0  0  0  0  0
    2.0849   -1.1950    0.0009 H   0  0  0  0  0  0  0  0  0  0  0  0
    1.1974    0.6969    0.0004 C   0  0  0  0  0  0  0  0  0  0  0  0
    2.0659    1.1911    0.0007 H   0  0  0  0  0  0  0  0  0  0  0  0
  1  5  1  0
  5  8  1  0
  1  2  1  0
  1  3  1  0
  1  4  1  0
  5  6  1  0
  5  7  1  0
  8  9  1  0
  8 10  1  0
  8 11  1  0
 12 16  1  0
 16 17  2  0
 17 19  1  0
 19 21  2  0
 21 23  1  0
 23 25  2  0
 25 16  1  0
 12 13  1  0
 12 14  1  0
 12 15  1  0
 17 18  1  0
 19 20  1  0
 21 22  1  0
 23 24  1  0
 25 26  1  0
M  CHG  1   8   1
M  END
>  <PDB_ID>  (571) 
pdb2ido

>  <RESIDUE_NAME>  (571) 
LYS   PHE

>  <FRAG_NAME>  (571) 
ETAM   MBZ

>  <FRAG_ATOM_NUM>  (571) 
fragi: 11  fragj: 15

>  <atom.prop.CHAIN_ID>  (571) 
A A A A A A A A A A A Z Z Z Z Z Z Z Z Z Z Z Z Z Z Z

>  <atom.prop.IS_HEAVY_ATOM>  (571) 
1 0 0 0 1 0 0 1 0 0 0 1 0 0 0 1 1 0 1 0 1 0 1 0 1 0

>  <DIFUSE_FUNC_ATOM>  (571) 
n/a

>  <FINAL_SINGLE_POINT_ENERGY>  (571) 
0

>  <NONCOV_INTER_ENERGY_QM>  (571) 
0

>  <FF_Energy>  (571) 
-7.13

>  <QM_Energy>  (571) 
-13.41

>  <source>  (571) 
ETAM_MBZ

>  <Index>  (571) 
5590

$$$$
ETAM-pdb1hur-B-LYS-59:MBZ-pdb1hur-B-PHE-13
     RDKit          3D

 26 25  0  0  0  0  0  0  0  0999 V2000
    0.3881   -1.9391    3.1171 C   0  0  0  0  0  0  0  0  0  0  0  0
    0.3164   -2.9294    3.2230 H   0  0  0  0  0  0  0  0  0  0  0  0
    0.0253   -1.6676    2.2269 H   0  0  0  0  0  0  0  0  0  0  0  0
   -0.1893   -1.4527    3.9034 H   0  0  0  0  0  0  0  0  0  0  0  0
    1.8517   -1.5551    3.1756 C   0  0  0  0  0  0  0  0  0  0  0  0
    2.2291   -1.8334    4.0646 H   0  0  0  0  0  0  0  0  0  0  0  0
    2.3493   -2.0427    2.4498 H   0  0  0  0  0  0  0  0  0  0  0  0
    2.0571   -0.0871    3.0005 N   0  0  0  0  0  4  0  0  0  0  0  0
    1.5680    0.2190    2.1855 H   0  0  0  0  0  0  0  0  0  0  0  0
    1.7068    0.3926    3.8033 H   0  0  0  0  0  0  0  0  0  0  0  0
    3.0336    0.0989    2.8971 H   0  0  0  0  0  0  0  0  0  0  0  0
   -0.0090    2.9149   -0.1083 C   0  0  0  0  0  0  0  0  0  0  0  0
    0.6486    3.1886   -0.7862 H   0  0  0  0  0  0  0  0  0  0  0  0
    0.1881    3.2943    0.7771 H   0  0  0  0  0  0  0  0  0  0  0  0
   -0.9668    3.3322   -0.4189 H   0  0  0  0  0  0  0  0  0  0  0  0
    0.0004    1.4063   -0.0028 C   0  0  0  0  0  0  0  0  0  0  0  0
   -1.1953    0.6838    0.0031 C   0  0  0  0  0  0  0  0  0  0  0  0
   -2.0655    1.1749    0.0084 H   0  0  0  0  0  0  0  0  0  0  0  0
   -1.2017   -0.7063   -0.0000 C   0  0  0  0  0  0  0  0  0  0  0  0
   -2.0783   -1.1978    0.0047 H   0  0  0  0  0  0  0  0  0  0  0  0
   -0.0041   -1.3925   -0.0077 C   0  0  0  0  0  0  0  0  0  0  0  0
    0.0010   -2.3935   -0.0191 H   0  0  0  0  0  0  0  0  0  0  0  0
    1.2017   -0.6929   -0.0000 C   0  0  0  0  0  0  0  0  0  0  0  0
    2.0814   -1.1921    0.0019 H   0  0  0  0  0  0  0  0  0  0  0  0
    1.1990    0.7016    0.0074 C   0  0  0  0  0  0  0  0  0  0  0  0
    2.0653    1.1960    0.0196 H   0  0  0  0  0  0  0  0  0  0  0  0
  1  5  1  0
  5  8  1  0
  1  2  1  0
  1  3  1  0
  1  4  1  0
  5  6  1  0
  5  7  1  0
  8  9  1  0
  8 10  1  0
  8 11  1  0
 12 16  1  0
 16 17  2  0
 17 19  1  0
 19 21  2  0
 21 23  1  0
 23 25  2  0
 25 16  1  0
 12 13  1  0
 12 14  1  0
 12 15  1  0
 17 18  1  0
 19 20  1  0
 21 22  1  0
 23 24  1  0
 25 26  1  0
M  CHG  1   8   1
M  END
>  <PDB_ID>  (572) 
pdb1hur

>  <RESIDUE_NAME>  (572) 
LYS   PHE

>  <FRAG_NAME>  (572) 
ETAM   MBZ

>  <FRAG_ATOM_NUM>  (572) 
fragi: 11  fragj: 15

>  <atom.prop.CHAIN_ID>  (572) 
A A A A A A A A A A A Z Z Z Z Z Z Z Z Z Z Z Z Z Z Z

>  <atom.prop.IS_HEAVY_ATOM>  (572) 
1 0 0 0 1 0 0 1 0 0 0 1 0 0 0 1 1 0 1 0 1 0 1 0 1 0

>  <DIFUSE_FUNC_ATOM>  (572) 
n/a

>  <FINAL_SINGLE_POINT_ENERGY>  (572) 
0

>  <NONCOV_INTER_ENERGY_QM>  (572) 
0

>  <FF_Energy>  (572) 
-1.44

>  <QM_Energy>  (572) 
-11.95

>  <source>  (572) 
ETAM_MBZ

>  <Index>  (572) 
5608

$$$$
ETAM-pdb2ije-S-LYS-1134:MBZ-pdb2ije-S-PHE-1131
     RDKit          3D

 26 25  0  0  0  0  0  0  0  0999 V2000
    3.4837   -0.2820    5.1613 C   0  0  0  0  0  0  0  0  0  0  0  0
    3.1812   -1.1707    5.4843 H   0  0  0  0  0  0  0  0  0  0  0  0
    2.7198    0.3497    5.1086 H   0  0  0  0  0  0  0  0  0  0  0  0
    4.2218    0.1139    5.8588 H   0  0  0  0  0  0  0  0  0  0  0  0
    4.0675   -0.4535    3.7497 C   0  0  0  0  0  0  0  0  0  0  0  0
    4.3558    0.4468    3.4114 H   0  0  0  0  0  0  0  0  0  0  0  0
    4.8741   -1.0491    3.8071 H   0  0  0  0  0  0  0  0  0  0  0  0
    3.0861   -1.0482    2.7885 N   0  0  0  0  0  4  0  0  0  0  0  0
    2.3970   -1.5593    3.2989 H   0  0  0  0  0  0  0  0  0  0  0  0
    2.6498   -0.3150    2.2713 H   0  0  0  0  0  0  0  0  0  0  0  0
    3.5685   -1.6609    2.1661 H   0  0  0  0  0  0  0  0  0  0  0  0
    0.0008    2.9122   -0.0184 C   0  0  0  0  0  0  0  0  0  0  0  0
   -0.7956    3.2110   -0.5252 H   0  0  0  0  0  0  0  0  0  0  0  0
    0.8366    3.2121   -0.4566 H   0  0  0  0  0  0  0  0  0  0  0  0
   -0.0410    3.3702    0.9699 H   0  0  0  0  0  0  0  0  0  0  0  0
    0.0010    1.4072    0.0002 C   0  0  0  0  0  0  0  0  0  0  0  0
   -1.1997    0.6985    0.0018 C   0  0  0  0  0  0  0  0  0  0  0  0
   -2.0650    1.1865    0.0036 H   0  0  0  0  0  0  0  0  0  0  0  0
   -1.2061   -0.7018    0.0000 C   0  0  0  0  0  0  0  0  0  0  0  0
   -2.0810   -1.1911    0.0009 H   0  0  0  0  0  0  0  0  0  0  0  0
   -0.0001   -1.4009   -0.0014 C   0  0  0  0  0  0  0  0  0  0  0  0
   -0.0039   -2.3978   -0.0044 H   0  0  0  0  0  0  0  0  0  0  0  0
    1.2061   -0.7020   -0.0000 C   0  0  0  0  0  0  0  0  0  0  0  0
    2.0858   -1.1953    0.0030 H   0  0  0  0  0  0  0  0  0  0  0  0
    1.1988    0.6991   -0.0007 C   0  0  0  0  0  0  0  0  0  0  0  0
    2.0676    1.1924   -0.0019 H   0  0  0  0  0  0  0  0  0  0  0  0
  1  5  1  0
  5  8  1  0
  1  2  1  0
  1  3  1  0
  1  4  1  0
  5  6  1  0
  5  7  1  0
  8  9  1  0
  8 10  1  0
  8 11  1  0
 12 16  1  0
 16 17  2  0
 17 19  1  0
 19 21  2  0
 21 23  1  0
 23 25  2  0
 25 16  1  0
 12 13  1  0
 12 14  1  0
 12 15  1  0
 17 18  1  0
 19 20  1  0
 21 22  1  0
 23 24  1  0
 25 26  1  0
M  CHG  1   8   1
M  END
>  <PDB_ID>  (573) 
pdb2ije

>  <RESIDUE_NAME>  (573) 
LYS   PHE

>  <FRAG_NAME>  (573) 
ETAM   MBZ

>  <FRAG_ATOM_NUM>  (573) 
fragi: 11  fragj: 15

>  <atom.prop.CHAIN_ID>  (573) 
A A A A A A A A A A A Z Z Z Z Z Z Z Z Z Z Z Z Z Z Z

>  <atom.prop.IS_HEAVY_ATOM>  (573) 
1 0 0 0 1 0 0 1 0 0 0 1 0 0 0 1 1 0 1 0 1 0 1 0 1 0

>  <DIFUSE_FUNC_ATOM>  (573) 
n/a

>  <FINAL_SINGLE_POINT_ENERGY>  (573) 
0

>  <NONCOV_INTER_ENERGY_QM>  (573) 
0

>  <FF_Energy>  (573) 
-2.21

>  <QM_Energy>  (573) 
-8.14

>  <source>  (573) 
ETAM_MBZ

>  <Index>  (573) 
5616

$$$$
ETAM-pdb1hx1-B-LYS-243:MBZ-pdb1hx1-B-PHE-247
     RDKit          3D

 26 25  0  0  0  0  0  0  0  0999 V2000
   -3.4746   -2.5557    2.4121 C   0  0  0  0  0  0  0  0  0  0  0  0
   -4.4118   -2.6325    2.7208 H   0  0  0  0  0  0  0  0  0  0  0  0
   -3.4181   -2.6037    1.4252 H   0  0  0  0  0  0  0  0  0  0  0  0
   -3.0837   -1.5905    2.7341 H   0  0  0  0  0  0  0  0  0  0  0  0
   -2.6622   -3.6948    3.0091 C   0  0  0  0  0  0  0  0  0  0  0  0
   -2.7324   -3.6640    4.0037 H   0  0  0  0  0  0  0  0  0  0  0  0
   -3.0157   -4.5647    2.6720 H   0  0  0  0  0  0  0  0  0  0  0  0
   -1.2092   -3.5795    2.6220 N   0  0  0  0  0  4  0  0  0  0  0  0
   -1.1097   -2.8399    1.9616 H   0  0  0  0  0  0  0  0  0  0  0  0
   -0.6734   -3.3840    3.4385 H   0  0  0  0  0  0  0  0  0  0  0  0
   -0.9146   -4.4411    2.2175 H   0  0  0  0  0  0  0  0  0  0  0  0
    0.0048    2.8941   -0.0502 C   0  0  0  0  0  0  0  0  0  0  0  0
   -0.8893    3.2151    0.2290 H   0  0  0  0  0  0  0  0  0  0  0  0
    0.2081    3.1710   -0.9788 H   0  0  0  0  0  0  0  0  0  0  0  0
    0.7452    3.3531    0.6051 H   0  0  0  0  0  0  0  0  0  0  0  0
    0.0007    1.4030    0.0003 C   0  0  0  0  0  0  0  0  0  0  0  0
   -1.1939    0.7039    0.0020 C   0  0  0  0  0  0  0  0  0  0  0  0
   -2.0611    1.1898    0.0033 H   0  0  0  0  0  0  0  0  0  0  0  0
   -1.2029   -0.6966    0.0000 C   0  0  0  0  0  0  0  0  0  0  0  0
   -2.0853   -1.1801    0.0010 H   0  0  0  0  0  0  0  0  0  0  0  0
   -0.0105   -1.3963   -0.0014 C   0  0  0  0  0  0  0  0  0  0  0  0
   -0.0131   -2.3950   -0.0042 H   0  0  0  0  0  0  0  0  0  0  0  0
    1.2029   -0.7040    0.0000 C   0  0  0  0  0  0  0  0  0  0  0  0
    2.0774   -1.2073    0.0035 H   0  0  0  0  0  0  0  0  0  0  0  0
    1.2037    0.6899   -0.0009 C   0  0  0  0  0  0  0  0  0  0  0  0
    2.0689    1.1847   -0.0033 H   0  0  0  0  0  0  0  0  0  0  0  0
  1  5  1  0
  5  8  1  0
  1  2  1  0
  1  3  1  0
  1  4  1  0
  5  6  1  0
  5  7  1  0
  8  9  1  0
  8 10  1  0
  8 11  1  0
 12 16  1  0
 16 17  2  0
 17 19  1  0
 19 21  2  0
 21 23  1  0
 23 25  2  0
 25 16  1  0
 12 13  1  0
 12 14  1  0
 12 15  1  0
 17 18  1  0
 19 20  1  0
 21 22  1  0
 23 24  1  0
 25 26  1  0
M  CHG  1   8   1
M  END
>  <PDB_ID>  (574) 
pdb1hx1

>  <RESIDUE_NAME>  (574) 
LYS   PHE

>  <FRAG_NAME>  (574) 
ETAM   MBZ

>  <FRAG_ATOM_NUM>  (574) 
fragi: 11  fragj: 15

>  <atom.prop.CHAIN_ID>  (574) 
A A A A A A A A A A A Z Z Z Z Z Z Z Z Z Z Z Z Z Z Z

>  <atom.prop.IS_HEAVY_ATOM>  (574) 
1 0 0 0 1 0 0 1 0 0 0 1 0 0 0 1 1 0 1 0 1 0 1 0 1 0

>  <DIFUSE_FUNC_ATOM>  (574) 
n/a

>  <FINAL_SINGLE_POINT_ENERGY>  (574) 
0

>  <NONCOV_INTER_ENERGY_QM>  (574) 
0

>  <FF_Energy>  (574) 
-1.74

>  <QM_Energy>  (574) 
-7.69

>  <source>  (574) 
ETAM_MBZ

>  <Index>  (574) 
5639

$$$$
ETAM-pdb1hwu-B-LYS-34:MBZ-pdb1hwu-B-PHE-55
     RDKit          3D

 26 25  0  0  0  0  0  0  0  0999 V2000
    0.3197    0.7567    3.3286 C   0  0  0  0  0  0  0  0  0  0  0  0
   -0.3090    0.3006    2.7124 H   0  0  0  0  0  0  0  0  0  0  0  0
    1.0313    1.2275    2.8236 H   0  0  0  0  0  0  0  0  0  0  0  0
   -0.2344    1.4857    3.9197 H   0  0  0  0  0  0  0  0  0  0  0  0
    0.9650   -0.2852    4.2262 C   0  0  0  0  0  0  0  0  0  0  0  0
    1.9250   -0.0322    4.3815 H   0  0  0  0  0  0  0  0  0  0  0  0
    0.4878   -0.2950    5.1102 H   0  0  0  0  0  0  0  0  0  0  0  0
    0.9126   -1.6508    3.6303 N   0  0  0  0  0  4  0  0  0  0  0  0
   -0.0334   -1.9732    3.6262 H   0  0  0  0  0  0  0  0  0  0  0  0
    1.2605   -1.6160    2.6940 H   0  0  0  0  0  0  0  0  0  0  0  0
    1.4767   -2.2703    4.1749 H   0  0  0  0  0  0  0  0  0  0  0  0
   -0.0171    2.8842    0.0194 C   0  0  0  0  0  0  0  0  0  0  0  0
    0.8840    3.2129   -0.2011 H   0  0  0  0  0  0  0  0  0  0  0  0
   -0.3115    3.1792    0.9112 H   0  0  0  0  0  0  0  0  0  0  0  0
   -0.7086    3.3053   -0.7104 H   0  0  0  0  0  0  0  0  0  0  0  0
    0.0068    1.3882   -0.0007 C   0  0  0  0  0  0  0  0  0  0  0  0
   -1.1956    0.6830    0.0176 C   0  0  0  0  0  0  0  0  0  0  0  0
   -2.0579    1.1776    0.0425 H   0  0  0  0  0  0  0  0  0  0  0  0
   -1.1990   -0.7019   -0.0000 C   0  0  0  0  0  0  0  0  0  0  0  0
   -2.0827   -1.1938    0.0074 H   0  0  0  0  0  0  0  0  0  0  0  0
   -0.0130   -1.3958   -0.0248 C   0  0  0  0  0  0  0  0  0  0  0  0
    0.0008   -2.3885   -0.0601 H   0  0  0  0  0  0  0  0  0  0  0  0
    1.1990   -0.6818    0.0000 C   0  0  0  0  0  0  0  0  0  0  0  0
    2.0773   -1.1879    0.0140 H   0  0  0  0  0  0  0  0  0  0  0  0
    1.2018    0.7082    0.0079 C   0  0  0  0  0  0  0  0  0  0  0  0
    2.0656    1.2008    0.0185 H   0  0  0  0  0  0  0  0  0  0  0  0
  1  5  1  0
  5  8  1  0
  1  2  1  0
  1  3  1  0
  1  4  1  0
  5  6  1  0
  5  7  1  0
  8  9  1  0
  8 10  1  0
  8 11  1  0
 12 16  1  0
 16 17  2  0
 17 19  1  0
 19 21  2  0
 21 23  1  0
 23 25  2  0
 25 16  1  0
 12 13  1  0
 12 14  1  0
 12 15  1  0
 17 18  1  0
 19 20  1  0
 21 22  1  0
 23 24  1  0
 25 26  1  0
M  CHG  1   8   1
M  END
>  <PDB_ID>  (575) 
pdb1hwu

>  <RESIDUE_NAME>  (575) 
LYS   PHE

>  <FRAG_NAME>  (575) 
ETAM   MBZ

>  <FRAG_ATOM_NUM>  (575) 
fragi: 11  fragj: 15

>  <atom.prop.CHAIN_ID>  (575) 
A A A A A A A A A A A Z Z Z Z Z Z Z Z Z Z Z Z Z Z Z

>  <atom.prop.IS_HEAVY_ATOM>  (575) 
1 0 0 0 1 0 0 1 0 0 0 1 0 0 0 1 1 0 1 0 1 0 1 0 1 0

>  <DIFUSE_FUNC_ATOM>  (575) 
n/a

>  <FINAL_SINGLE_POINT_ENERGY>  (575) 
0

>  <NONCOV_INTER_ENERGY_QM>  (575) 
0

>  <FF_Energy>  (575) 
-5.49

>  <QM_Energy>  (575) 
-11.76

>  <source>  (575) 
ETAM_MBZ

>  <Index>  (575) 
5645

$$$$
ETAM-pdb2imz-A-LYS-74:MBZ-pdb2imz-B-PHE-49
     RDKit          3D

 26 25  0  0  0  0  0  0  0  0999 V2000
    0.5537   -1.7931    4.8484 C   0  0  0  0  0  0  0  0  0  0  0  0
   -0.2734   -1.6703    5.3820 H   0  0  0  0  0  0  0  0  0  0  0  0
    1.3430   -1.8968    5.4393 H   0  0  0  0  0  0  0  0  0  0  0  0
    0.4506   -2.6829    4.2274 H   0  0  0  0  0  0  0  0  0  0  0  0
    0.7566   -0.5643    3.9826 C   0  0  0  0  0  0  0  0  0  0  0  0
   -0.0888   -0.3776    3.4780 H   0  0  0  0  0  0  0  0  0  0  0  0
    0.9644    0.2195    4.5719 H   0  0  0  0  0  0  0  0  0  0  0  0
    1.8685   -0.7607    3.0196 N   0  0  0  0  0  4  0  0  0  0  0  0
    2.5777   -0.0759    3.1845 H   0  0  0  0  0  0  0  0  0  0  0  0
    2.2554   -1.6755    3.1380 H   0  0  0  0  0  0  0  0  0  0  0  0
    1.5225   -0.6636    2.0864 H   0  0  0  0  0  0  0  0  0  0  0  0
    0.0039    2.9074   -0.0160 C   0  0  0  0  0  0  0  0  0  0  0  0
    0.8822    3.2151    0.3183 H   0  0  0  0  0  0  0  0  0  0  0  0
   -0.7317    3.2216    0.5658 H   0  0  0  0  0  0  0  0  0  0  0  0
   -0.1466    3.3398   -1.0052 H   0  0  0  0  0  0  0  0  0  0  0  0
    0.0008    1.4040   -0.0002 C   0  0  0  0  0  0  0  0  0  0  0  0
   -1.1984    0.6952   -0.0005 C   0  0  0  0  0  0  0  0  0  0  0  0
   -2.0641    1.1836   -0.0022 H   0  0  0  0  0  0  0  0  0  0  0  0
   -1.2022   -0.6993    0.0000 C   0  0  0  0  0  0  0  0  0  0  0  0
   -2.0780   -1.1927    0.0014 H   0  0  0  0  0  0  0  0  0  0  0  0
    0.0012   -1.3968    0.0005 C   0  0  0  0  0  0  0  0  0  0  0  0
   -0.0028   -2.3944    0.0010 H   0  0  0  0  0  0  0  0  0  0  0  0
    1.2022   -0.6982    0.0000 C   0  0  0  0  0  0  0  0  0  0  0  0
    2.0842   -1.1943    0.0010 H   0  0  0  0  0  0  0  0  0  0  0  0
    1.1964    0.6950    0.0002 C   0  0  0  0  0  0  0  0  0  0  0  0
    2.0656    1.1907   -0.0002 H   0  0  0  0  0  0  0  0  0  0  0  0
  1  5  1  0
  5  8  1  0
  1  2  1  0
  1  3  1  0
  1  4  1  0
  5  6  1  0
  5  7  1  0
  8  9  1  0
  8 10  1  0
  8 11  1  0
 12 16  1  0
 16 17  2  0
 17 19  1  0
 19 21  2  0
 21 23  1  0
 23 25  2  0
 25 16  1  0
 12 13  1  0
 12 14  1  0
 12 15  1  0
 17 18  1  0
 19 20  1  0
 21 22  1  0
 23 24  1  0
 25 26  1  0
M  CHG  1   8   1
M  END
>  <PDB_ID>  (576) 
pdb2imz

>  <RESIDUE_NAME>  (576) 
LYS   PHE

>  <FRAG_NAME>  (576) 
ETAM   MBZ

>  <FRAG_ATOM_NUM>  (576) 
fragi: 11  fragj: 15

>  <atom.prop.CHAIN_ID>  (576) 
A A A A A A A A A A A Z Z Z Z Z Z Z Z Z Z Z Z Z Z Z

>  <atom.prop.IS_HEAVY_ATOM>  (576) 
1 0 0 0 1 0 0 1 0 0 0 1 0 0 0 1 1 0 1 0 1 0 1 0 1 0

>  <DIFUSE_FUNC_ATOM>  (576) 
n/a

>  <FINAL_SINGLE_POINT_ENERGY>  (576) 
0

>  <NONCOV_INTER_ENERGY_QM>  (576) 
0

>  <FF_Energy>  (576) 
-6.03

>  <QM_Energy>  (576) 
-14.15

>  <source>  (576) 
ETAM_MBZ

>  <Index>  (576) 
5680

$$$$
ETAM-pdb1hzi-A-LYS-123:MBZ-pdb1hzi-A-PHE-45
     RDKit          3D

 26 25  0  0  0  0  0  0  0  0999 V2000
   -0.5477   -4.6770   -0.7098 C   0  0  0  0  0  0  0  0  0  0  0  0
   -1.0669   -4.4055    0.0750 H   0  0  0  0  0  0  0  0  0  0  0  0
    0.4189   -4.6690   -0.5513 H   0  0  0  0  0  0  0  0  0  0  0  0
   -0.8561   -5.6759   -1.0184 H   0  0  0  0  0  0  0  0  0  0  0  0
   -0.8692   -3.7852   -1.8493 C   0  0  0  0  0  0  0  0  0  0  0  0
   -1.8168   -3.5407   -1.8325 H   0  0  0  0  0  0  0  0  0  0  0  0
   -0.2742   -3.0072   -1.8516 H   0  0  0  0  0  0  0  0  0  0  0  0
   -0.5992   -4.6083   -3.0551 N   0  0  0  0  0  4  0  0  0  0  0  0
   -0.5378   -4.0145   -3.8579 H   0  0  0  0  0  0  0  0  0  0  0  0
    0.2639   -5.0998   -2.9376 H   0  0  0  0  0  0  0  0  0  0  0  0
   -1.3423   -5.2654   -3.1836 H   0  0  0  0  0  0  0  0  0  0  0  0
   -0.0013    2.9025    0.0337 C   0  0  0  0  0  0  0  0  0  0  0  0
    0.8487    3.2188   -0.3599 H   0  0  0  0  0  0  0  0  0  0  0  0
   -0.0911    3.1872    0.9762 H   0  0  0  0  0  0  0  0  0  0  0  0
   -0.8192    3.3500   -0.5310 H   0  0  0  0  0  0  0  0  0  0  0  0
    0.0011    1.4013    0.0002 C   0  0  0  0  0  0  0  0  0  0  0  0
   -1.1979    0.6913   -0.0001 C   0  0  0  0  0  0  0  0  0  0  0  0
   -2.0636    1.1836   -0.0019 H   0  0  0  0  0  0  0  0  0  0  0  0
   -1.2035   -0.6981    0.0000 C   0  0  0  0  0  0  0  0  0  0  0  0
   -2.0791   -1.1922    0.0004 H   0  0  0  0  0  0  0  0  0  0  0  0
   -0.0015   -1.3937    0.0011 C   0  0  0  0  0  0  0  0  0  0  0  0
   -0.0037   -2.3929    0.0020 H   0  0  0  0  0  0  0  0  0  0  0  0
    1.2035   -0.6966    0.0000 C   0  0  0  0  0  0  0  0  0  0  0  0
    2.0827   -1.1948    0.0013 H   0  0  0  0  0  0  0  0  0  0  0  0
    1.1983    0.6958   -0.0012 C   0  0  0  0  0  0  0  0  0  0  0  0
    2.0660    1.1918   -0.0036 H   0  0  0  0  0  0  0  0  0  0  0  0
  1  5  1  0
  5  8  1  0
  1  2  1  0
  1  3  1  0
  1  4  1  0
  5  6  1  0
  5  7  1  0
  8  9  1  0
  8 10  1  0
  8 11  1  0
 12 16  1  0
 16 17  2  0
 17 19  1  0
 19 21  2  0
 21 23  1  0
 23 25  2  0
 25 16  1  0
 12 13  1  0
 12 14  1  0
 12 15  1  0
 17 18  1  0
 19 20  1  0
 21 22  1  0
 23 24  1  0
 25 26  1  0
M  CHG  1   8   1
M  END
>  <PDB_ID>  (577) 
pdb1hzi

>  <RESIDUE_NAME>  (577) 
LYS   PHE

>  <FRAG_NAME>  (577) 
ETAM   MBZ

>  <FRAG_ATOM_NUM>  (577) 
fragi: 11  fragj: 15

>  <atom.prop.CHAIN_ID>  (577) 
A A A A A A A A A A A Z Z Z Z Z Z Z Z Z Z Z Z Z Z Z

>  <atom.prop.IS_HEAVY_ATOM>  (577) 
1 0 0 0 1 0 0 1 0 0 0 1 0 0 0 1 1 0 1 0 1 0 1 0 1 0

>  <DIFUSE_FUNC_ATOM>  (577) 
n/a

>  <FINAL_SINGLE_POINT_ENERGY>  (577) 
0

>  <NONCOV_INTER_ENERGY_QM>  (577) 
0

>  <FF_Energy>  (577) 
4.67

>  <QM_Energy>  (577) 
-2.65

>  <source>  (577) 
ETAM_MBZ

>  <Index>  (577) 
5688

$$$$
ETAM-pdb2iod-B-LYS-156:MBZ-pdb2iod-B-PHE-152
     RDKit          3D

 26 25  0  0  0  0  0  0  0  0999 V2000
   -0.7794   -2.7517    2.7620 C   0  0  0  0  0  0  0  0  0  0  0  0
   -1.3632   -2.5002    1.9906 H   0  0  0  0  0  0  0  0  0  0  0  0
    0.0975   -2.2784    2.6881 H   0  0  0  0  0  0  0  0  0  0  0  0
   -1.2678   -2.4362    3.6840 H   0  0  0  0  0  0  0  0  0  0  0  0
   -0.5330   -4.2423    2.7209 C   0  0  0  0  0  0  0  0  0  0  0  0
    0.0524   -4.5003    3.4893 H   0  0  0  0  0  0  0  0  0  0  0  0
   -1.4076   -4.7222    2.7926 H   0  0  0  0  0  0  0  0  0  0  0  0
    0.1318   -4.6259    1.4503 N   0  0  0  0  0  4  0  0  0  0  0  0
    1.0064   -4.1476    1.3738 H   0  0  0  0  0  0  0  0  0  0  0  0
    0.2902   -5.6135    1.4412 H   0  0  0  0  0  0  0  0  0  0  0  0
   -0.4536   -4.3760    0.6789 H   0  0  0  0  0  0  0  0  0  0  0  0
   -0.0128    2.8760   -0.0103 C   0  0  0  0  0  0  0  0  0  0  0  0
   -0.4790    3.1750   -0.8298 H   0  0  0  0  0  0  0  0  0  0  0  0
    0.9225    3.1969    0.0090 H   0  0  0  0  0  0  0  0  0  0  0  0
   -0.5311    3.3105    0.8444 H   0  0  0  0  0  0  0  0  0  0  0  0
    0.0053    1.3837    0.0002 C   0  0  0  0  0  0  0  0  0  0  0  0
   -1.1788    0.6843   -0.0039 C   0  0  0  0  0  0  0  0  0  0  0  0
   -2.0496    1.1850   -0.0105 H   0  0  0  0  0  0  0  0  0  0  0  0
   -1.1951   -0.6867    0.0000 C   0  0  0  0  0  0  0  0  0  0  0  0
   -2.0793   -1.1777    0.0088 H   0  0  0  0  0  0  0  0  0  0  0  0
   -0.0127   -1.3847   -0.0068 C   0  0  0  0  0  0  0  0  0  0  0  0
   -0.0099   -2.3818   -0.0173 H   0  0  0  0  0  0  0  0  0  0  0  0
    1.1951   -0.6856    0.0000 C   0  0  0  0  0  0  0  0  0  0  0  0
    2.0710   -1.1917   -0.0015 H   0  0  0  0  0  0  0  0  0  0  0  0
    1.1862    0.6889    0.0105 C   0  0  0  0  0  0  0  0  0  0  0  0
    2.0586    1.1893    0.0252 H   0  0  0  0  0  0  0  0  0  0  0  0
  1  5  1  0
  5  8  1  0
  1  2  1  0
  1  3  1  0
  1  4  1  0
  5  6  1  0
  5  7  1  0
  8  9  1  0
  8 10  1  0
  8 11  1  0
 12 16  1  0
 16 17  2  0
 17 19  1  0
 19 21  2  0
 21 23  1  0
 23 25  2  0
 25 16  1  0
 12 13  1  0
 12 14  1  0
 12 15  1  0
 17 18  1  0
 19 20  1  0
 21 22  1  0
 23 24  1  0
 25 26  1  0
M  CHG  1   8   1
M  END
>  <PDB_ID>  (578) 
pdb2iod

>  <RESIDUE_NAME>  (578) 
LYS   PHE

>  <FRAG_NAME>  (578) 
ETAM   MBZ

>  <FRAG_ATOM_NUM>  (578) 
fragi: 11  fragj: 15

>  <atom.prop.CHAIN_ID>  (578) 
A A A A A A A A A A A Z Z Z Z Z Z Z Z Z Z Z Z Z Z Z

>  <atom.prop.IS_HEAVY_ATOM>  (578) 
1 0 0 0 1 0 0 1 0 0 0 1 0 0 0 1 1 0 1 0 1 0 1 0 1 0

>  <DIFUSE_FUNC_ATOM>  (578) 
n/a

>  <FINAL_SINGLE_POINT_ENERGY>  (578) 
0

>  <NONCOV_INTER_ENERGY_QM>  (578) 
0

>  <FF_Energy>  (578) 
1.65

>  <QM_Energy>  (578) 
-3.36

>  <source>  (578) 
ETAM_MBZ

>  <Index>  (578) 
5690

$$$$
ETAM-pdb2iod-C-LYS-156:MBZ-pdb2iod-C-PHE-152
     RDKit          3D

 26 25  0  0  0  0  0  0  0  0999 V2000
   -4.4173   -0.3791   -0.2191 C   0  0  0  0  0  0  0  0  0  0  0  0
   -3.5072   -0.7763   -0.1542 H   0  0  0  0  0  0  0  0  0  0  0  0
   -5.1084   -1.0950   -0.1809 H   0  0  0  0  0  0  0  0  0  0  0  0
   -4.5612    0.2752    0.6408 H   0  0  0  0  0  0  0  0  0  0  0  0
   -4.5452    0.3653   -1.5265 C   0  0  0  0  0  0  0  0  0  0  0  0
   -5.4560    0.7679   -1.5878 H   0  0  0  0  0  0  0  0  0  0  0  0
   -3.8549    1.0868   -1.5620 H   0  0  0  0  0  0  0  0  0  0  0  0
   -4.3419   -0.5630   -2.6653 N   0  0  0  0  0  4  0  0  0  0  0  0
   -4.2395   -1.4966   -2.3196 H   0  0  0  0  0  0  0  0  0  0  0  0
   -5.1323   -0.5196   -3.2768 H   0  0  0  0  0  0  0  0  0  0  0  0
   -3.5169   -0.3018   -3.1667 H   0  0  0  0  0  0  0  0  0  0  0  0
   -0.0091    2.9193    0.0251 C   0  0  0  0  0  0  0  0  0  0  0  0
   -0.4648    3.2198   -0.8000 H   0  0  0  0  0  0  0  0  0  0  0  0
    0.9341    3.2176    0.0435 H   0  0  0  0  0  0  0  0  0  0  0  0
   -0.5217    3.3671    0.8765 H   0  0  0  0  0  0  0  0  0  0  0  0
   -0.0089    1.3999    0.0217 C   0  0  0  0  0  0  0  0  0  0  0  0
   -1.1860    0.7011   -0.0015 C   0  0  0  0  0  0  0  0  0  0  0  0
   -2.0614    1.1788   -0.0205 H   0  0  0  0  0  0  0  0  0  0  0  0
   -1.1875   -0.6981    0.0000 C   0  0  0  0  0  0  0  0  0  0  0  0
   -2.0690   -1.1843    0.0223 H   0  0  0  0  0  0  0  0  0  0  0  0
    0.0017   -1.3843   -0.0277 C   0  0  0  0  0  0  0  0  0  0  0  0
   -0.0056   -2.3899   -0.0686 H   0  0  0  0  0  0  0  0  0  0  0  0
    1.1875   -0.7031   -0.0000 C   0  0  0  0  0  0  0  0  0  0  0  0
    2.0738   -1.2019    0.0171 H   0  0  0  0  0  0  0  0  0  0  0  0
    1.1932    0.6846    0.0075 C   0  0  0  0  0  0  0  0  0  0  0  0
    2.0579    1.1800    0.0021 H   0  0  0  0  0  0  0  0  0  0  0  0
  1  5  1  0
  5  8  1  0
  1  2  1  0
  1  3  1  0
  1  4  1  0
  5  6  1  0
  5  7  1  0
  8  9  1  0
  8 10  1  0
  8 11  1  0
 12 16  1  0
 16 17  2  0
 17 19  1  0
 19 21  2  0
 21 23  1  0
 23 25  2  0
 25 16  1  0
 12 13  1  0
 12 14  1  0
 12 15  1  0
 17 18  1  0
 19 20  1  0
 21 22  1  0
 23 24  1  0
 25 26  1  0
M  CHG  1   8   1
M  END
>  <PDB_ID>  (579) 
pdb2iod

>  <RESIDUE_NAME>  (579) 
LYS   PHE

>  <FRAG_NAME>  (579) 
ETAM   MBZ

>  <FRAG_ATOM_NUM>  (579) 
fragi: 11  fragj: 15

>  <atom.prop.CHAIN_ID>  (579) 
A A A A A A A A A A A Z Z Z Z Z Z Z Z Z Z Z Z Z Z Z

>  <atom.prop.IS_HEAVY_ATOM>  (579) 
1 0 0 0 1 0 0 1 0 0 0 1 0 0 0 1 1 0 1 0 1 0 1 0 1 0

>  <DIFUSE_FUNC_ATOM>  (579) 
n/a

>  <FINAL_SINGLE_POINT_ENERGY>  (579) 
0

>  <NONCOV_INTER_ENERGY_QM>  (579) 
0

>  <FF_Energy>  (579) 
31.37

>  <QM_Energy>  (579) 
0.46

>  <source>  (579) 
ETAM_MBZ

>  <Index>  (579) 
5695

$$$$
ETAM-pdb1i0i-A-LYS-27:MBZ-pdb1i0i-A-PHE-68
     RDKit          3D

 26 25  0  0  0  0  0  0  0  0999 V2000
    0.0648   -3.8517   -2.0148 C   0  0  0  0  0  0  0  0  0  0  0  0
   -0.2895   -4.4666   -2.7218 H   0  0  0  0  0  0  0  0  0  0  0  0
    1.0335   -3.6707   -2.1892 H   0  0  0  0  0  0  0  0  0  0  0  0
   -0.4832   -2.9107   -2.0634 H   0  0  0  0  0  0  0  0  0  0  0  0
   -0.0648   -4.5337   -0.6727 C   0  0  0  0  0  0  0  0  0  0  0  0
    0.2911   -3.9277    0.0400 H   0  0  0  0  0  0  0  0  0  0  0  0
   -1.0306   -4.7239   -0.4922 H   0  0  0  0  0  0  0  0  0  0  0  0
    0.6957   -5.8081   -0.6536 N   0  0  0  0  0  4  0  0  0  0  0  0
    1.6023   -5.6497   -0.2632 H   0  0  0  0  0  0  0  0  0  0  0  0
    0.2058   -6.4809   -0.0988 H   0  0  0  0  0  0  0  0  0  0  0  0
    0.7904   -6.1537   -1.5883 H   0  0  0  0  0  0  0  0  0  0  0  0
   -0.0056    2.9101    0.0383 C   0  0  0  0  0  0  0  0  0  0  0  0
   -0.9408    3.2122   -0.0385 H   0  0  0  0  0  0  0  0  0  0  0  0
    0.5480    3.2340   -0.7097 H   0  0  0  0  0  0  0  0  0  0  0  0
    0.4055    3.3165    0.9624 H   0  0  0  0  0  0  0  0  0  0  0  0
   -0.0004    1.4024    0.0008 C   0  0  0  0  0  0  0  0  0  0  0  0
   -1.1875    0.6882   -0.0034 C   0  0  0  0  0  0  0  0  0  0  0  0
   -2.0598    1.1781   -0.0102 H   0  0  0  0  0  0  0  0  0  0  0  0
   -1.1963   -0.6996    0.0000 C   0  0  0  0  0  0  0  0  0  0  0  0
   -2.0790   -1.1883    0.0023 H   0  0  0  0  0  0  0  0  0  0  0  0
   -0.0069   -1.3941    0.0015 C   0  0  0  0  0  0  0  0  0  0  0  0
   -0.0065   -2.3929    0.0031 H   0  0  0  0  0  0  0  0  0  0  0  0
    1.1963   -0.6975   -0.0000 C   0  0  0  0  0  0  0  0  0  0  0  0
    2.0769   -1.1940   -0.0006 H   0  0  0  0  0  0  0  0  0  0  0  0
    1.1948    0.7006    0.0011 C   0  0  0  0  0  0  0  0  0  0  0  0
    2.0631    1.1912    0.0015 H   0  0  0  0  0  0  0  0  0  0  0  0
  1  5  1  0
  5  8  1  0
  1  2  1  0
  1  3  1  0
  1  4  1  0
  5  6  1  0
  5  7  1  0
  8  9  1  0
  8 10  1  0
  8 11  1  0
 12 16  1  0
 16 17  2  0
 17 19  1  0
 19 21  2  0
 21 23  1  0
 23 25  2  0
 25 16  1  0
 12 13  1  0
 12 14  1  0
 12 15  1  0
 17 18  1  0
 19 20  1  0
 21 22  1  0
 23 24  1  0
 25 26  1  0
M  CHG  1   8   1
M  END
>  <PDB_ID>  (580) 
pdb1i0i

>  <RESIDUE_NAME>  (580) 
LYS   PHE

>  <FRAG_NAME>  (580) 
ETAM   MBZ

>  <FRAG_ATOM_NUM>  (580) 
fragi: 11  fragj: 15

>  <atom.prop.CHAIN_ID>  (580) 
A A A A A A A A A A A Z Z Z Z Z Z Z Z Z Z Z Z Z Z Z

>  <atom.prop.IS_HEAVY_ATOM>  (580) 
1 0 0 0 1 0 0 1 0 0 0 1 0 0 0 1 1 0 1 0 1 0 1 0 1 0

>  <DIFUSE_FUNC_ATOM>  (580) 
n/a

>  <FINAL_SINGLE_POINT_ENERGY>  (580) 
0

>  <NONCOV_INTER_ENERGY_QM>  (580) 
0

>  <FF_Energy>  (580) 
28.76

>  <QM_Energy>  (580) 
2.21

>  <source>  (580) 
ETAM_MBZ

>  <Index>  (580) 
5697

$$$$
ETAM-pdb1i12-B-LYS-159:MBZ-pdb1i12-D-PHE-124
     RDKit          3D

 26 25  0  0  0  0  0  0  0  0999 V2000
    2.5800    0.0841    2.4384 C   0  0  0  0  0  0  0  0  0  0  0  0
    2.5954   -0.3687    1.5468 H   0  0  0  0  0  0  0  0  0  0  0  0
    2.2652    1.0266    2.3293 H   0  0  0  0  0  0  0  0  0  0  0  0
    1.8814   -0.4456    3.0861 H   0  0  0  0  0  0  0  0  0  0  0  0
    3.9863    0.1038    2.9967 C   0  0  0  0  0  0  0  0  0  0  0  0
    3.9789    0.5585    3.8872 H   0  0  0  0  0  0  0  0  0  0  0  0
    4.3094   -0.8358    3.1052 H   0  0  0  0  0  0  0  0  0  0  0  0
    4.9010    0.8334    2.0827 N   0  0  0  0  0  4  0  0  0  0  0  0
    4.5279    0.8181    1.1555 H   0  0  0  0  0  0  0  0  0  0  0  0
    4.9922    1.7815    2.3890 H   0  0  0  0  0  0  0  0  0  0  0  0
    5.7989    0.3934    2.0888 H   0  0  0  0  0  0  0  0  0  0  0  0
    0.0147    2.8935    0.0105 C   0  0  0  0  0  0  0  0  0  0  0  0
    0.8563    3.1983   -0.4147 H   0  0  0  0  0  0  0  0  0  0  0  0
   -0.0353    3.1980    0.9523 H   0  0  0  0  0  0  0  0  0  0  0  0
   -0.8144    3.3503   -0.5300 H   0  0  0  0  0  0  0  0  0  0  0  0
   -0.0002    1.4031    0.0005 C   0  0  0  0  0  0  0  0  0  0  0  0
   -1.2127    0.6912    0.0035 C   0  0  0  0  0  0  0  0  0  0  0  0
   -2.0716    1.1785    0.0066 H   0  0  0  0  0  0  0  0  0  0  0  0
   -1.2070   -0.7083    0.0000 C   0  0  0  0  0  0  0  0  0  0  0  0
   -2.0724   -1.2088    0.0008 H   0  0  0  0  0  0  0  0  0  0  0  0
    0.0133   -1.3915   -0.0026 C   0  0  0  0  0  0  0  0  0  0  0  0
    0.0149   -2.3914   -0.0065 H   0  0  0  0  0  0  0  0  0  0  0  0
    1.2070   -0.6866   -0.0000 C   0  0  0  0  0  0  0  0  0  0  0  0
    2.0925   -1.1861    0.0045 H   0  0  0  0  0  0  0  0  0  0  0  0
    1.1996    0.6922   -0.0014 C   0  0  0  0  0  0  0  0  0  0  0  0
    2.0659    1.1967   -0.0045 H   0  0  0  0  0  0  0  0  0  0  0  0
  1  5  1  0
  5  8  1  0
  1  2  1  0
  1  3  1  0
  1  4  1  0
  5  6  1  0
  5  7  1  0
  8  9  1  0
  8 10  1  0
  8 11  1  0
 12 16  1  0
 16 17  2  0
 17 19  1  0
 19 21  2  0
 21 23  1  0
 23 25  2  0
 25 16  1  0
 12 13  1  0
 12 14  1  0
 12 15  1  0
 17 18  1  0
 19 20  1  0
 21 22  1  0
 23 24  1  0
 25 26  1  0
M  CHG  1   8   1
M  END
>  <PDB_ID>  (581) 
pdb1i12

>  <RESIDUE_NAME>  (581) 
LYS   PHE

>  <FRAG_NAME>  (581) 
ETAM   MBZ

>  <FRAG_ATOM_NUM>  (581) 
fragi: 11  fragj: 15

>  <atom.prop.CHAIN_ID>  (581) 
A A A A A A A A A A A Z Z Z Z Z Z Z Z Z Z Z Z Z Z Z

>  <atom.prop.IS_HEAVY_ATOM>  (581) 
1 0 0 0 1 0 0 1 0 0 0 1 0 0 0 1 1 0 1 0 1 0 1 0 1 0

>  <DIFUSE_FUNC_ATOM>  (581) 
n/a

>  <FINAL_SINGLE_POINT_ENERGY>  (581) 
0

>  <NONCOV_INTER_ENERGY_QM>  (581) 
0

>  <FF_Energy>  (581) 
19.54

>  <QM_Energy>  (581) 
4.45

>  <source>  (581) 
ETAM_MBZ

>  <Index>  (581) 
5710

$$$$
ETAM-pdb2ip2-B-LYS-21:MBZ-pdb2ip2-B-PHE-68
     RDKit          3D

 26 25  0  0  0  0  0  0  0  0999 V2000
    0.1727   -1.4106    3.7406 C   0  0  0  0  0  0  0  0  0  0  0  0
    0.2027   -1.8453    2.8421 H   0  0  0  0  0  0  0  0  0  0  0  0
   -0.2219   -2.0401    4.4071 H   0  0  0  0  0  0  0  0  0  0  0  0
    1.1999   -1.2076    4.0436 H   0  0  0  0  0  0  0  0  0  0  0  0
   -0.7156   -0.1568    3.6566 C   0  0  0  0  0  0  0  0  0  0  0  0
   -0.7665    0.2697    4.5558 H   0  0  0  0  0  0  0  0  0  0  0  0
   -0.3225    0.4802    2.9982 H   0  0  0  0  0  0  0  0  0  0  0  0
   -2.1412   -0.4991    3.2039 N   0  0  0  0  0  4  0  0  0  0  0  0
   -2.6731   -0.7329    4.0085 H   0  0  0  0  0  0  0  0  0  0  0  0
   -2.5212    0.2975    2.7507 H   0  0  0  0  0  0  0  0  0  0  0  0
   -2.0906   -1.2685    2.5791 H   0  0  0  0  0  0  0  0  0  0  0  0
   -0.0064    2.8922    0.0390 C   0  0  0  0  0  0  0  0  0  0  0  0
    0.8997    3.2056    0.2716 H   0  0  0  0  0  0  0  0  0  0  0  0
   -0.6757    3.1839    0.7029 H   0  0  0  0  0  0  0  0  0  0  0  0
   -0.2749    3.3371   -0.9191 H   0  0  0  0  0  0  0  0  0  0  0  0
    0.0058    1.3982    0.0092 C   0  0  0  0  0  0  0  0  0  0  0  0
   -1.1973    0.6783   -0.0249 C   0  0  0  0  0  0  0  0  0  0  0  0
   -2.0616    1.1686   -0.0686 H   0  0  0  0  0  0  0  0  0  0  0  0
   -1.2027   -0.7180    0.0000 C   0  0  0  0  0  0  0  0  0  0  0  0
   -2.0727   -1.2107    0.0077 H   0  0  0  0  0  0  0  0  0  0  0  0
    0.0047   -1.3947    0.0148 C   0  0  0  0  0  0  0  0  0  0  0  0
    0.0193   -2.3936    0.0357 H   0  0  0  0  0  0  0  0  0  0  0  0
    1.2027   -0.6799   -0.0000 C   0  0  0  0  0  0  0  0  0  0  0  0
    2.0883   -1.1683   -0.0103 H   0  0  0  0  0  0  0  0  0  0  0  0
    1.1868    0.7162    0.0009 C   0  0  0  0  0  0  0  0  0  0  0  0
    2.0602    1.2091   -0.0057 H   0  0  0  0  0  0  0  0  0  0  0  0
  1  5  1  0
  5  8  1  0
  1  2  1  0
  1  3  1  0
  1  4  1  0
  5  6  1  0
  5  7  1  0
  8  9  1  0
  8 10  1  0
  8 11  1  0
 12 16  1  0
 16 17  2  0
 17 19  1  0
 19 21  2  0
 21 23  1  0
 23 25  2  0
 25 16  1  0
 12 13  1  0
 12 14  1  0
 12 15  1  0
 17 18  1  0
 19 20  1  0
 21 22  1  0
 23 24  1  0
 25 26  1  0
M  CHG  1   8   1
M  END
>  <PDB_ID>  (582) 
pdb2ip2

>  <RESIDUE_NAME>  (582) 
LYS   PHE

>  <FRAG_NAME>  (582) 
ETAM   MBZ

>  <FRAG_ATOM_NUM>  (582) 
fragi: 11  fragj: 15

>  <atom.prop.CHAIN_ID>  (582) 
A A A A A A A A A A A Z Z Z Z Z Z Z Z Z Z Z Z Z Z Z

>  <atom.prop.IS_HEAVY_ATOM>  (582) 
1 0 0 0 1 0 0 1 0 0 0 1 0 0 0 1 1 0 1 0 1 0 1 0 1 0

>  <DIFUSE_FUNC_ATOM>  (582) 
n/a

>  <FINAL_SINGLE_POINT_ENERGY>  (582) 
0

>  <NONCOV_INTER_ENERGY_QM>  (582) 
0

>  <FF_Energy>  (582) 
-5.93

>  <QM_Energy>  (582) 
-12.22

>  <source>  (582) 
ETAM_MBZ

>  <Index>  (582) 
5724

$$$$
ETAM-pdb1i1r-B-LYS-38:MBZ-pdb1i1r-B-PHE-27
     RDKit          3D

 26 25  0  0  0  0  0  0  0  0999 V2000
    0.4505   -1.3154   -3.9256 C   0  0  0  0  0  0  0  0  0  0  0  0
    0.3664   -0.6363   -3.2115 H   0  0  0  0  0  0  0  0  0  0  0  0
   -0.4328   -1.6742   -4.1864 H   0  0  0  0  0  0  0  0  0  0  0  0
    0.9139   -0.8529   -4.7970 H   0  0  0  0  0  0  0  0  0  0  0  0
    1.3116   -2.4663   -3.4057 C   0  0  0  0  0  0  0  0  0  0  0  0
    1.7780   -2.8971   -4.1863 H   0  0  0  0  0  0  0  0  0  0  0  0
    2.0106   -2.0914   -2.7856 H   0  0  0  0  0  0  0  0  0  0  0  0
    0.5175   -3.4977   -2.6804 N   0  0  0  0  0  4  0  0  0  0  0  0
    0.7608   -3.4810   -1.7112 H   0  0  0  0  0  0  0  0  0  0  0  0
   -0.4565   -3.2998   -2.7851 H   0  0  0  0  0  0  0  0  0  0  0  0
    0.7194   -4.3991   -3.0616 H   0  0  0  0  0  0  0  0  0  0  0  0
   -0.0281    2.9130   -0.1107 C   0  0  0  0  0  0  0  0  0  0  0  0
   -0.9734    3.2071   -0.0698 H   0  0  0  0  0  0  0  0  0  0  0  0
    0.3850    3.1641   -0.9751 H   0  0  0  0  0  0  0  0  0  0  0  0
    0.5135    3.4365    0.6770 H   0  0  0  0  0  0  0  0  0  0  0  0
   -0.0024    1.4102   -0.0010 C   0  0  0  0  0  0  0  0  0  0  0  0
   -1.1909    0.6937    0.0025 C   0  0  0  0  0  0  0  0  0  0  0  0
   -2.0647    1.1816    0.0059 H   0  0  0  0  0  0  0  0  0  0  0  0
   -1.2046   -0.7058    0.0000 C   0  0  0  0  0  0  0  0  0  0  0  0
   -2.0824   -1.1912    0.0023 H   0  0  0  0  0  0  0  0  0  0  0  0
   -0.0033   -1.4081   -0.0043 C   0  0  0  0  0  0  0  0  0  0  0  0
   -0.0024   -2.4015   -0.0108 H   0  0  0  0  0  0  0  0  0  0  0  0
    1.2046   -0.7011   -0.0000 C   0  0  0  0  0  0  0  0  0  0  0  0
    2.0854   -1.1896    0.0022 H   0  0  0  0  0  0  0  0  0  0  0  0
    1.1966    0.7110    0.0028 C   0  0  0  0  0  0  0  0  0  0  0  0
    2.0639    1.1992    0.0072 H   0  0  0  0  0  0  0  0  0  0  0  0
  1  5  1  0
  5  8  1  0
  1  2  1  0
  1  3  1  0
  1  4  1  0
  5  6  1  0
  5  7  1  0
  8  9  1  0
  8 10  1  0
  8 11  1  0
 12 16  1  0
 16 17  2  0
 17 19  1  0
 19 21  2  0
 21 23  1  0
 23 25  2  0
 25 16  1  0
 12 13  1  0
 12 14  1  0
 12 15  1  0
 17 18  1  0
 19 20  1  0
 21 22  1  0
 23 24  1  0
 25 26  1  0
M  CHG  1   8   1
M  END
>  <PDB_ID>  (583) 
pdb1i1r

>  <RESIDUE_NAME>  (583) 
LYS   PHE

>  <FRAG_NAME>  (583) 
ETAM   MBZ

>  <FRAG_ATOM_NUM>  (583) 
fragi: 11  fragj: 15

>  <atom.prop.CHAIN_ID>  (583) 
A A A A A A A A A A A Z Z Z Z Z Z Z Z Z Z Z Z Z Z Z

>  <atom.prop.IS_HEAVY_ATOM>  (583) 
1 0 0 0 1 0 0 1 0 0 0 1 0 0 0 1 1 0 1 0 1 0 1 0 1 0

>  <DIFUSE_FUNC_ATOM>  (583) 
n/a

>  <FINAL_SINGLE_POINT_ENERGY>  (583) 
0

>  <NONCOV_INTER_ENERGY_QM>  (583) 
0

>  <FF_Energy>  (583) 
-2.4

>  <QM_Energy>  (583) 
-8.55

>  <source>  (583) 
ETAM_MBZ

>  <Index>  (583) 
5753

$$$$
ETAM-pdb1i2s-B-LYS-43:MBZ-pdb1i2s-B-PHE-66
     RDKit          3D

 26 25  0  0  0  0  0  0  0  0999 V2000
    1.2757   -4.2573    3.5813 C   0  0  0  0  0  0  0  0  0  0  0  0
    0.7716   -4.9963    4.0158 H   0  0  0  0  0  0  0  0  0  0  0  0
    2.1810   -4.1719    3.9843 H   0  0  0  0  0  0  0  0  0  0  0  0
    1.3821   -4.4811    2.5199 H   0  0  0  0  0  0  0  0  0  0  0  0
    0.5167   -2.9502    3.8136 C   0  0  0  0  0  0  0  0  0  0  0  0
   -0.3317   -2.9680    3.2717 H   0  0  0  0  0  0  0  0  0  0  0  0
    0.2686   -2.8882    4.7879 H   0  0  0  0  0  0  0  0  0  0  0  0
    1.3098   -1.7352    3.4359 N   0  0  0  0  0  4  0  0  0  0  0  0
    1.9887   -1.5559    4.1452 H   0  0  0  0  0  0  0  0  0  0  0  0
    1.7660   -1.9022    2.5645 H   0  0  0  0  0  0  0  0  0  0  0  0
    0.6924   -0.9563    3.3519 H   0  0  0  0  0  0  0  0  0  0  0  0
    0.0030    2.8950   -0.0380 C   0  0  0  0  0  0  0  0  0  0  0  0
   -0.7155    3.1932   -0.6542 H   0  0  0  0  0  0  0  0  0  0  0  0
    0.8910    3.1991   -0.3603 H   0  0  0  0  0  0  0  0  0  0  0  0
   -0.1747    3.3717    0.9260 H   0  0  0  0  0  0  0  0  0  0  0  0
    0.0019    1.4045   -0.0007 C   0  0  0  0  0  0  0  0  0  0  0  0
   -1.2004    0.6972    0.0009 C   0  0  0  0  0  0  0  0  0  0  0  0
   -2.0650    1.1863    0.0010 H   0  0  0  0  0  0  0  0  0  0  0  0
   -1.2096   -0.7042    0.0000 C   0  0  0  0  0  0  0  0  0  0  0  0
   -2.0833   -1.1928    0.0012 H   0  0  0  0  0  0  0  0  0  0  0  0
   -0.0023   -1.4007   -0.0008 C   0  0  0  0  0  0  0  0  0  0  0  0
   -0.0007   -2.3964   -0.0018 H   0  0  0  0  0  0  0  0  0  0  0  0
    1.2096   -0.6957    0.0000 C   0  0  0  0  0  0  0  0  0  0  0  0
    2.0870   -1.1939    0.0016 H   0  0  0  0  0  0  0  0  0  0  0  0
    1.2009    0.6989    0.0006 C   0  0  0  0  0  0  0  0  0  0  0  0
    2.0683    1.1962    0.0015 H   0  0  0  0  0  0  0  0  0  0  0  0
  1  5  1  0
  5  8  1  0
  1  2  1  0
  1  3  1  0
  1  4  1  0
  5  6  1  0
  5  7  1  0
  8  9  1  0
  8 10  1  0
  8 11  1  0
 12 16  1  0
 16 17  2  0
 17 19  1  0
 19 21  2  0
 21 23  1  0
 23 25  2  0
 25 16  1  0
 12 13  1  0
 12 14  1  0
 12 15  1  0
 17 18  1  0
 19 20  1  0
 21 22  1  0
 23 24  1  0
 25 26  1  0
M  CHG  1   8   1
M  END
>  <PDB_ID>  (584) 
pdb1i2s

>  <RESIDUE_NAME>  (584) 
LYS   PHE

>  <FRAG_NAME>  (584) 
ETAM   MBZ

>  <FRAG_ATOM_NUM>  (584) 
fragi: 11  fragj: 15

>  <atom.prop.CHAIN_ID>  (584) 
A A A A A A A A A A A Z Z Z Z Z Z Z Z Z Z Z Z Z Z Z

>  <atom.prop.IS_HEAVY_ATOM>  (584) 
1 0 0 0 1 0 0 1 0 0 0 1 0 0 0 1 1 0 1 0 1 0 1 0 1 0

>  <DIFUSE_FUNC_ATOM>  (584) 
n/a

>  <FINAL_SINGLE_POINT_ENERGY>  (584) 
0

>  <NONCOV_INTER_ENERGY_QM>  (584) 
0

>  <FF_Energy>  (584) 
-4.48

>  <QM_Energy>  (584) 
-10.16

>  <source>  (584) 
ETAM_MBZ

>  <Index>  (584) 
5770

$$$$
ETAM-pdb1i3r-A-LYS-147:MBZ-pdb1i3r-A-PHE-137
     RDKit          3D

 26 25  0  0  0  0  0  0  0  0999 V2000
   -1.7869   -0.8559   -3.6510 C   0  0  0  0  0  0  0  0  0  0  0  0
   -1.6826   -0.5527   -2.7208 H   0  0  0  0  0  0  0  0  0  0  0  0
   -2.4095   -1.6136   -3.7280 H   0  0  0  0  0  0  0  0  0  0  0  0
   -2.1607   -0.0276   -4.2528 H   0  0  0  0  0  0  0  0  0  0  0  0
   -0.4234   -1.2848   -4.1833 C   0  0  0  0  0  0  0  0  0  0  0  0
   -0.4877   -1.3773   -5.1934 H   0  0  0  0  0  0  0  0  0  0  0  0
    0.2431   -0.5404   -3.9965 H   0  0  0  0  0  0  0  0  0  0  0  0
    0.0922   -2.5510   -3.6125 N   0  0  0  0  0  4  0  0  0  0  0  0
    0.9608   -2.7868   -4.0502 H   0  0  0  0  0  0  0  0  0  0  0  0
    0.2351   -2.4406   -2.6283 H   0  0  0  0  0  0  0  0  0  0  0  0
   -0.5702   -3.2841   -3.7717 H   0  0  0  0  0  0  0  0  0  0  0  0
    0.0021    2.8910   -0.1385 C   0  0  0  0  0  0  0  0  0  0  0  0
    0.8400    3.2361    0.2481 H   0  0  0  0  0  0  0  0  0  0  0  0
   -0.7908    3.2468    0.3247 H   0  0  0  0  0  0  0  0  0  0  0  0
   -0.0448    3.2195   -1.1767 H   0  0  0  0  0  0  0  0  0  0  0  0
   -0.0010    1.4025   -0.0017 C   0  0  0  0  0  0  0  0  0  0  0  0
   -1.1994    0.6934    0.0017 C   0  0  0  0  0  0  0  0  0  0  0  0
   -2.0650    1.1803    0.0039 H   0  0  0  0  0  0  0  0  0  0  0  0
   -1.2008   -0.7024   -0.0000 C   0  0  0  0  0  0  0  0  0  0  0  0
   -2.0728   -1.1987    0.0025 H   0  0  0  0  0  0  0  0  0  0  0  0
    0.0095   -1.3969   -0.0032 C   0  0  0  0  0  0  0  0  0  0  0  0
    0.0055   -2.3937   -0.0085 H   0  0  0  0  0  0  0  0  0  0  0  0
    1.2008   -0.6941    0.0000 C   0  0  0  0  0  0  0  0  0  0  0  0
    2.0882   -1.1848    0.0012 H   0  0  0  0  0  0  0  0  0  0  0  0
    1.1909    0.6974    0.0033 C   0  0  0  0  0  0  0  0  0  0  0  0
    2.0609    1.1940    0.0089 H   0  0  0  0  0  0  0  0  0  0  0  0
  1  5  1  0
  5  8  1  0
  1  2  1  0
  1  3  1  0
  1  4  1  0
  5  6  1  0
  5  7  1  0
  8  9  1  0
  8 10  1  0
  8 11  1  0
 12 16  1  0
 16 17  2  0
 17 19  1  0
 19 21  2  0
 21 23  1  0
 23 25  2  0
 25 16  1  0
 12 13  1  0
 12 14  1  0
 12 15  1  0
 17 18  1  0
 19 20  1  0
 21 22  1  0
 23 24  1  0
 25 26  1  0
M  CHG  1   8   1
M  END
>  <PDB_ID>  (585) 
pdb1i3r

>  <RESIDUE_NAME>  (585) 
LYS   PHE

>  <FRAG_NAME>  (585) 
ETAM   MBZ

>  <FRAG_ATOM_NUM>  (585) 
fragi: 11  fragj: 15

>  <atom.prop.CHAIN_ID>  (585) 
A A A A A A A A A A A Z Z Z Z Z Z Z Z Z Z Z Z Z Z Z

>  <atom.prop.IS_HEAVY_ATOM>  (585) 
1 0 0 0 1 0 0 1 0 0 0 1 0 0 0 1 1 0 1 0 1 0 1 0 1 0

>  <DIFUSE_FUNC_ATOM>  (585) 
n/a

>  <FINAL_SINGLE_POINT_ENERGY>  (585) 
0

>  <NONCOV_INTER_ENERGY_QM>  (585) 
0

>  <FF_Energy>  (585) 
-4.17

>  <QM_Energy>  (585) 
-9.8

>  <source>  (585) 
ETAM_MBZ

>  <Index>  (585) 
5779

$$$$
ETAM-pdb1i45-B-LYS-112:MBZ-pdb1i45-B-PHE-108
     RDKit          3D

 26 25  0  0  0  0  0  0  0  0999 V2000
    0.4515   -0.0485    4.5926 C   0  0  0  0  0  0  0  0  0  0  0  0
    1.0064    0.7731    4.5195 H   0  0  0  0  0  0  0  0  0  0  0  0
    0.7087   -0.5706    5.3986 H   0  0  0  0  0  0  0  0  0  0  0  0
   -0.5955    0.2418    4.6801 H   0  0  0  0  0  0  0  0  0  0  0  0
    0.6879   -0.9069    3.3620 C   0  0  0  0  0  0  0  0  0  0  0  0
    0.0861   -1.7070    3.4003 H   0  0  0  0  0  0  0  0  0  0  0  0
    0.4699   -0.3724    2.5432 H   0  0  0  0  0  0  0  0  0  0  0  0
    2.1071   -1.3686    3.2773 N   0  0  0  0  0  4  0  0  0  0  0  0
    2.3591   -1.4822    2.3178 H   0  0  0  0  0  0  0  0  0  0  0  0
    2.6999   -0.6870    3.7040 H   0  0  0  0  0  0  0  0  0  0  0  0
    2.1971   -2.2408    3.7548 H   0  0  0  0  0  0  0  0  0  0  0  0
    0.0154    2.9262   -0.0968 C   0  0  0  0  0  0  0  0  0  0  0  0
   -0.0796    3.1696   -1.0510 H   0  0  0  0  0  0  0  0  0  0  0  0
    0.8775    3.2444    0.2699 H   0  0  0  0  0  0  0  0  0  0  0  0
   -0.7835    3.4230    0.4536 H   0  0  0  0  0  0  0  0  0  0  0  0
    0.0012    1.4127   -0.0007 C   0  0  0  0  0  0  0  0  0  0  0  0
   -1.1990    0.7020    0.0009 C   0  0  0  0  0  0  0  0  0  0  0  0
   -2.0655    1.1894    0.0014 H   0  0  0  0  0  0  0  0  0  0  0  0
   -1.2089   -0.7025   -0.0000 C   0  0  0  0  0  0  0  0  0  0  0  0
   -2.0851   -1.1887    0.0020 H   0  0  0  0  0  0  0  0  0  0  0  0
   -0.0025   -1.4068   -0.0022 C   0  0  0  0  0  0  0  0  0  0  0  0
   -0.0050   -2.4003   -0.0055 H   0  0  0  0  0  0  0  0  0  0  0  0
    1.2089   -0.7025   -0.0000 C   0  0  0  0  0  0  0  0  0  0  0  0
    2.0861   -1.1979    0.0016 H   0  0  0  0  0  0  0  0  0  0  0  0
    1.2003    0.6970    0.0020 C   0  0  0  0  0  0  0  0  0  0  0  0
    2.0697    1.1922    0.0049 H   0  0  0  0  0  0  0  0  0  0  0  0
  1  5  1  0
  5  8  1  0
  1  2  1  0
  1  3  1  0
  1  4  1  0
  5  6  1  0
  5  7  1  0
  8  9  1  0
  8 10  1  0
  8 11  1  0
 12 16  1  0
 16 17  2  0
 17 19  1  0
 19 21  2  0
 21 23  1  0
 23 25  2  0
 25 16  1  0
 12 13  1  0
 12 14  1  0
 12 15  1  0
 17 18  1  0
 19 20  1  0
 21 22  1  0
 23 24  1  0
 25 26  1  0
M  CHG  1   8   1
M  END
>  <PDB_ID>  (586) 
pdb1i45

>  <RESIDUE_NAME>  (586) 
LYS   PHE

>  <FRAG_NAME>  (586) 
ETAM   MBZ

>  <FRAG_ATOM_NUM>  (586) 
fragi: 11  fragj: 15

>  <atom.prop.CHAIN_ID>  (586) 
A A A A A A A A A A A Z Z Z Z Z Z Z Z Z Z Z Z Z Z Z

>  <atom.prop.IS_HEAVY_ATOM>  (586) 
1 0 0 0 1 0 0 1 0 0 0 1 0 0 0 1 1 0 1 0 1 0 1 0 1 0

>  <DIFUSE_FUNC_ATOM>  (586) 
n/a

>  <FINAL_SINGLE_POINT_ENERGY>  (586) 
0

>  <NONCOV_INTER_ENERGY_QM>  (586) 
0

>  <FF_Energy>  (586) 
-4.24

>  <QM_Energy>  (586) 
-11.13

>  <source>  (586) 
ETAM_MBZ

>  <Index>  (586) 
5808

$$$$
ETAM-pdb1i3r-C-LYS-74:MBZ-pdb1i3r-D-PHE-33
     RDKit          3D

 26 25  0  0  0  0  0  0  0  0999 V2000
    0.0723    2.0612    3.6813 C   0  0  0  0  0  0  0  0  0  0  0  0
    0.5674    2.5496    2.9650 H   0  0  0  0  0  0  0  0  0  0  0  0
    0.4131    2.3397    4.5772 H   0  0  0  0  0  0  0  0  0  0  0  0
   -0.9869    2.3088    3.6117 H   0  0  0  0  0  0  0  0  0  0  0  0
    0.3285    0.5707    3.5120 C   0  0  0  0  0  0  0  0  0  0  0  0
   -0.1095    0.0794    4.2632 H   0  0  0  0  0  0  0  0  0  0  0  0
   -0.0622    0.2718    2.6425 H   0  0  0  0  0  0  0  0  0  0  0  0
    1.7856    0.2891    3.5208 N   0  0  0  0  0  4  0  0  0  0  0  0
    2.2728    1.0361    3.0674 H   0  0  0  0  0  0  0  0  0  0  0  0
    2.1048    0.2087    4.4654 H   0  0  0  0  0  0  0  0  0  0  0  0
    1.9627   -0.5677    3.0353 H   0  0  0  0  0  0  0  0  0  0  0  0
   -0.0005    2.8971   -0.1621 C   0  0  0  0  0  0  0  0  0  0  0  0
    0.8560    3.2452    0.1738 H   0  0  0  0  0  0  0  0  0  0  0  0
   -0.7689    3.2615    0.3309 H   0  0  0  0  0  0  0  0  0  0  0  0
   -0.0979    3.2045   -1.2033 H   0  0  0  0  0  0  0  0  0  0  0  0
   -0.0007    1.4090   -0.0022 C   0  0  0  0  0  0  0  0  0  0  0  0
   -1.2005    0.6976    0.0027 C   0  0  0  0  0  0  0  0  0  0  0  0
   -2.0671    1.1827    0.0070 H   0  0  0  0  0  0  0  0  0  0  0  0
   -1.2060   -0.7062    0.0000 C   0  0  0  0  0  0  0  0  0  0  0  0
   -2.0791   -1.1962    0.0017 H   0  0  0  0  0  0  0  0  0  0  0  0
    0.0029   -1.4001   -0.0031 C   0  0  0  0  0  0  0  0  0  0  0  0
    0.0020   -2.3976   -0.0076 H   0  0  0  0  0  0  0  0  0  0  0  0
    1.2060   -0.6983   -0.0000 C   0  0  0  0  0  0  0  0  0  0  0  0
    2.0873   -1.1929    0.0019 H   0  0  0  0  0  0  0  0  0  0  0  0
    1.1983    0.6980    0.0026 C   0  0  0  0  0  0  0  0  0  0  0  0
    2.0664    1.1942    0.0072 H   0  0  0  0  0  0  0  0  0  0  0  0
  1  5  1  0
  5  8  1  0
  1  2  1  0
  1  3  1  0
  1  4  1  0
  5  6  1  0
  5  7  1  0
  8  9  1  0
  8 10  1  0
  8 11  1  0
 12 16  1  0
 16 17  2  0
 17 19  1  0
 19 21  2  0
 21 23  1  0
 23 25  2  0
 25 16  1  0
 12 13  1  0
 12 14  1  0
 12 15  1  0
 17 18  1  0
 19 20  1  0
 21 22  1  0
 23 24  1  0
 25 26  1  0
M  CHG  1   8   1
M  END
>  <PDB_ID>  (587) 
pdb1i3r

>  <RESIDUE_NAME>  (587) 
LYS   PHE

>  <FRAG_NAME>  (587) 
ETAM   MBZ

>  <FRAG_ATOM_NUM>  (587) 
fragi: 11  fragj: 15

>  <atom.prop.CHAIN_ID>  (587) 
A A A A A A A A A A A Z Z Z Z Z Z Z Z Z Z Z Z Z Z Z

>  <atom.prop.IS_HEAVY_ATOM>  (587) 
1 0 0 0 1 0 0 1 0 0 0 1 0 0 0 1 1 0 1 0 1 0 1 0 1 0

>  <DIFUSE_FUNC_ATOM>  (587) 
n/a

>  <FINAL_SINGLE_POINT_ENERGY>  (587) 
0

>  <NONCOV_INTER_ENERGY_QM>  (587) 
0

>  <FF_Energy>  (587) 
-6.62

>  <QM_Energy>  (587) 
-12.83

>  <source>  (587) 
ETAM_MBZ

>  <Index>  (587) 
5821

$$$$
ETAM-pdb1i8d-B-LYS-18:MBZ-pdb1i8d-B-PHE-21
     RDKit          3D

 26 25  0  0  0  0  0  0  0  0999 V2000
    0.7811   -2.8603   -3.3006 C   0  0  0  0  0  0  0  0  0  0  0  0
    0.2264   -3.3610   -2.6378 H   0  0  0  0  0  0  0  0  0  0  0  0
    0.4968   -3.1007   -4.2275 H   0  0  0  0  0  0  0  0  0  0  0  0
    0.6324   -1.7911   -3.1497 H   0  0  0  0  0  0  0  0  0  0  0  0
    2.2379   -3.2804   -3.1217 C   0  0  0  0  0  0  0  0  0  0  0  0
    2.2879   -4.2873   -3.1792 H   0  0  0  0  0  0  0  0  0  0  0  0
    2.7759   -2.8978   -3.8859 H   0  0  0  0  0  0  0  0  0  0  0  0
    2.8118   -2.8310   -1.8423 N   0  0  0  0  0  4  0  0  0  0  0  0
    3.7249   -3.2270   -1.7224 H   0  0  0  0  0  0  0  0  0  0  0  0
    2.8835   -1.8318   -1.8347 H   0  0  0  0  0  0  0  0  0  0  0  0
    2.2241   -3.1237   -1.0855 H   0  0  0  0  0  0  0  0  0  0  0  0
   -0.0293    2.9116   -0.0132 C   0  0  0  0  0  0  0  0  0  0  0  0
    0.8307    3.2352    0.2855 H   0  0  0  0  0  0  0  0  0  0  0  0
   -0.7860    3.2065    0.5112 H   0  0  0  0  0  0  0  0  0  0  0  0
   -0.1786    3.2466   -1.0396 H   0  0  0  0  0  0  0  0  0  0  0  0
    0.0006    1.3974    0.0100 C   0  0  0  0  0  0  0  0  0  0  0  0
   -1.1972    0.6906   -0.0036 C   0  0  0  0  0  0  0  0  0  0  0  0
   -2.0632    1.1862   -0.0172 H   0  0  0  0  0  0  0  0  0  0  0  0
   -1.2098   -0.6976   -0.0000 C   0  0  0  0  0  0  0  0  0  0  0  0
   -2.0807   -1.1902    0.0078 H   0  0  0  0  0  0  0  0  0  0  0  0
   -0.0042   -1.3808   -0.0063 C   0  0  0  0  0  0  0  0  0  0  0  0
   -0.0090   -2.3901   -0.0163 H   0  0  0  0  0  0  0  0  0  0  0  0
    1.2098   -0.7022   -0.0000 C   0  0  0  0  0  0  0  0  0  0  0  0
    2.0803   -1.2000    0.0060 H   0  0  0  0  0  0  0  0  0  0  0  0
    1.2008    0.6925   -0.0001 C   0  0  0  0  0  0  0  0  0  0  0  0
    2.0671    1.1906   -0.0081 H   0  0  0  0  0  0  0  0  0  0  0  0
  1  5  1  0
  5  8  1  0
  1  2  1  0
  1  3  1  0
  1  4  1  0
  5  6  1  0
  5  7  1  0
  8  9  1  0
  8 10  1  0
  8 11  1  0
 12 16  1  0
 16 17  2  0
 17 19  1  0
 19 21  2  0
 21 23  1  0
 23 25  2  0
 25 16  1  0
 12 13  1  0
 12 14  1  0
 12 15  1  0
 17 18  1  0
 19 20  1  0
 21 22  1  0
 23 24  1  0
 25 26  1  0
M  CHG  1   8   1
M  END
>  <PDB_ID>  (588) 
pdb1i8d

>  <RESIDUE_NAME>  (588) 
LYS   PHE

>  <FRAG_NAME>  (588) 
ETAM   MBZ

>  <FRAG_ATOM_NUM>  (588) 
fragi: 11  fragj: 15

>  <atom.prop.CHAIN_ID>  (588) 
A A A A A A A A A A A Z Z Z Z Z Z Z Z Z Z Z Z Z Z Z

>  <atom.prop.IS_HEAVY_ATOM>  (588) 
1 0 0 0 1 0 0 1 0 0 0 1 0 0 0 1 1 0 1 0 1 0 1 0 1 0

>  <DIFUSE_FUNC_ATOM>  (588) 
n/a

>  <FINAL_SINGLE_POINT_ENERGY>  (588) 
0

>  <NONCOV_INTER_ENERGY_QM>  (588) 
0

>  <FF_Energy>  (588) 
0.17

>  <QM_Energy>  (588) 
-6.16

>  <source>  (588) 
ETAM_MBZ

>  <Index>  (588) 
5836

$$$$
ETAM-pdb1i8t-B-LYS-169:MBZ-pdb1i8t-B-PHE-166
     RDKit          3D

 26 25  0  0  0  0  0  0  0  0999 V2000
   -0.7095   -0.6738   -4.7682 C   0  0  0  0  0  0  0  0  0  0  0  0
   -1.2624   -1.3477   -5.2440 H   0  0  0  0  0  0  0  0  0  0  0  0
    0.2177   -0.6676   -5.1244 H   0  0  0  0  0  0  0  0  0  0  0  0
   -1.1524    0.3121   -4.9095 H   0  0  0  0  0  0  0  0  0  0  0  0
   -0.6529   -1.0571   -3.2848 C   0  0  0  0  0  0  0  0  0  0  0  0
   -0.1772   -1.9293   -3.1979 H   0  0  0  0  0  0  0  0  0  0  0  0
   -0.1552   -0.3483   -2.7903 H   0  0  0  0  0  0  0  0  0  0  0  0
   -2.0265   -1.1830   -2.7236 N   0  0  0  0  0  4  0  0  0  0  0  0
   -2.1738   -2.1230   -2.4162 H   0  0  0  0  0  0  0  0  0  0  0  0
   -2.1268   -0.5582   -1.9503 H   0  0  0  0  0  0  0  0  0  0  0  0
   -2.6954   -0.9519   -3.4295 H   0  0  0  0  0  0  0  0  0  0  0  0
    0.0136    2.9045    0.0637 C   0  0  0  0  0  0  0  0  0  0  0  0
    0.9375    3.1977    0.2737 H   0  0  0  0  0  0  0  0  0  0  0  0
   -0.6168    3.1904    0.7741 H   0  0  0  0  0  0  0  0  0  0  0  0
   -0.2852    3.4040   -0.8579 H   0  0  0  0  0  0  0  0  0  0  0  0
    0.0000    1.4032    0.0008 C   0  0  0  0  0  0  0  0  0  0  0  0
   -1.1974    0.6965   -0.0010 C   0  0  0  0  0  0  0  0  0  0  0  0
   -2.0639    1.1855   -0.0046 H   0  0  0  0  0  0  0  0  0  0  0  0
   -1.2025   -0.6973   -0.0000 C   0  0  0  0  0  0  0  0  0  0  0  0
   -2.0784   -1.1902    0.0012 H   0  0  0  0  0  0  0  0  0  0  0  0
    0.0004   -1.3962    0.0013 C   0  0  0  0  0  0  0  0  0  0  0  0
   -0.0046   -2.3936    0.0027 H   0  0  0  0  0  0  0  0  0  0  0  0
    1.2025   -0.6995    0.0000 C   0  0  0  0  0  0  0  0  0  0  0  0
    2.0831   -1.1957    0.0014 H   0  0  0  0  0  0  0  0  0  0  0  0
    1.1969    0.6933   -0.0011 C   0  0  0  0  0  0  0  0  0  0  0  0
    2.0653    1.1896   -0.0044 H   0  0  0  0  0  0  0  0  0  0  0  0
  1  5  1  0
  5  8  1  0
  1  2  1  0
  1  3  1  0
  1  4  1  0
  5  6  1  0
  5  7  1  0
  8  9  1  0
  8 10  1  0
  8 11  1  0
 12 16  1  0
 16 17  2  0
 17 19  1  0
 19 21  2  0
 21 23  1  0
 23 25  2  0
 25 16  1  0
 12 13  1  0
 12 14  1  0
 12 15  1  0
 17 18  1  0
 19 20  1  0
 21 22  1  0
 23 24  1  0
 25 26  1  0
M  CHG  1   8   1
M  END
>  <PDB_ID>  (589) 
pdb1i8t

>  <RESIDUE_NAME>  (589) 
LYS   PHE

>  <FRAG_NAME>  (589) 
ETAM   MBZ

>  <FRAG_ATOM_NUM>  (589) 
fragi: 11  fragj: 15

>  <atom.prop.CHAIN_ID>  (589) 
A A A A A A A A A A A Z Z Z Z Z Z Z Z Z Z Z Z Z Z Z

>  <atom.prop.IS_HEAVY_ATOM>  (589) 
1 0 0 0 1 0 0 1 0 0 0 1 0 0 0 1 1 0 1 0 1 0 1 0 1 0

>  <DIFUSE_FUNC_ATOM>  (589) 
n/a

>  <FINAL_SINGLE_POINT_ENERGY>  (589) 
0

>  <NONCOV_INTER_ENERGY_QM>  (589) 
0

>  <FF_Energy>  (589) 
-2.91

>  <QM_Energy>  (589) 
-11.93

>  <source>  (589) 
ETAM_MBZ

>  <Index>  (589) 
5842

$$$$
ETAM-pdb2inp-B-LYS-176:MBZ-pdb2inp-D-PHE-45
     RDKit          3D

 26 25  0  0  0  0  0  0  0  0999 V2000
    4.4049    1.0491    4.9528 C   0  0  0  0  0  0  0  0  0  0  0  0
    4.4948    0.1519    5.3684 H   0  0  0  0  0  0  0  0  0  0  0  0
    4.4240    1.7595    5.6461 H   0  0  0  0  0  0  0  0  0  0  0  0
    5.2452    1.2024    4.2756 H   0  0  0  0  0  0  0  0  0  0  0  0
    3.0630    1.1173    4.2190 C   0  0  0  0  0  0  0  0  0  0  0  0
    2.3142    1.2079    4.9299 H   0  0  0  0  0  0  0  0  0  0  0  0
    3.0253    2.0169    3.7035 H   0  0  0  0  0  0  0  0  0  0  0  0
    2.6743    0.0215    3.2705 N   0  0  0  0  0  4  0  0  0  0  0  0
    1.8075   -0.3729    3.5674 H   0  0  0  0  0  0  0  0  0  0  0  0
    2.5774    0.4034    2.3539 H   0  0  0  0  0  0  0  0  0  0  0  0
    3.3853   -0.6791    3.2734 H   0  0  0  0  0  0  0  0  0  0  0  0
    0.0260    2.9105    0.1086 C   0  0  0  0  0  0  0  0  0  0  0  0
   -0.8792    3.2546   -0.0453 H   0  0  0  0  0  0  0  0  0  0  0  0
    0.6790    3.2624   -0.5324 H   0  0  0  0  0  0  0  0  0  0  0  0
    0.3355    3.2354    1.1020 H   0  0  0  0  0  0  0  0  0  0  0  0
   -0.0045    1.4179   -0.0121 C   0  0  0  0  0  0  0  0  0  0  0  0
   -1.2275    0.7132    0.0408 C   0  0  0  0  0  0  0  0  0  0  0  0
   -2.0773    1.1905    0.1033 H   0  0  0  0  0  0  0  0  0  0  0  0
   -1.2111   -0.7024   -0.0000 C   0  0  0  0  0  0  0  0  0  0  0  0
   -2.0799   -1.1995   -0.0276 H   0  0  0  0  0  0  0  0  0  0  0  0
    0.0108   -1.3965   -0.0002 C   0  0  0  0  0  0  0  0  0  0  0  0
   -0.0012   -2.3989   -0.0014 H   0  0  0  0  0  0  0  0  0  0  0  0
    1.2111   -0.7089    0.0000 C   0  0  0  0  0  0  0  0  0  0  0  0
    2.0910   -1.2154    0.0228 H   0  0  0  0  0  0  0  0  0  0  0  0
    1.2212    0.6767   -0.0285 C   0  0  0  0  0  0  0  0  0  0  0  0
    2.0776    1.1797   -0.0614 H   0  0  0  0  0  0  0  0  0  0  0  0
  1  5  1  0
  5  8  1  0
  1  2  1  0
  1  3  1  0
  1  4  1  0
  5  6  1  0
  5  7  1  0
  8  9  1  0
  8 10  1  0
  8 11  1  0
 12 16  1  0
 16 17  2  0
 17 19  1  0
 19 21  2  0
 21 23  1  0
 23 25  2  0
 25 16  1  0
 12 13  1  0
 12 14  1  0
 12 15  1  0
 17 18  1  0
 19 20  1  0
 21 22  1  0
 23 24  1  0
 25 26  1  0
M  CHG  1   8   1
M  END
>  <PDB_ID>  (590) 
pdb2inp

>  <RESIDUE_NAME>  (590) 
LYS   PHE

>  <FRAG_NAME>  (590) 
ETAM   MBZ

>  <FRAG_ATOM_NUM>  (590) 
fragi: 11  fragj: 15

>  <atom.prop.CHAIN_ID>  (590) 
A A A A A A A A A A A Z Z Z Z Z Z Z Z Z Z Z Z Z Z Z

>  <atom.prop.IS_HEAVY_ATOM>  (590) 
1 0 0 0 1 0 0 1 0 0 0 1 0 0 0 1 1 0 1 0 1 0 1 0 1 0

>  <DIFUSE_FUNC_ATOM>  (590) 
n/a

>  <FINAL_SINGLE_POINT_ENERGY>  (590) 
0

>  <NONCOV_INTER_ENERGY_QM>  (590) 
0

>  <FF_Energy>  (590) 
-3.51

>  <QM_Energy>  (590) 
-8.81

>  <source>  (590) 
ETAM_MBZ

>  <Index>  (590) 
5850

$$$$
ETAM-pdb1i7d-A-LYS-8:MBZ-pdb1i7d-A-PHE-328
     RDKit          3D

 26 25  0  0  0  0  0  0  0  0999 V2000
    4.4410   -0.9954    3.1431 C   0  0  0  0  0  0  0  0  0  0  0  0
    4.5608   -0.4214    2.3453 H   0  0  0  0  0  0  0  0  0  0  0  0
    4.3581   -1.9482    2.8869 H   0  0  0  0  0  0  0  0  0  0  0  0
    5.3015   -0.8752    3.8011 H   0  0  0  0  0  0  0  0  0  0  0  0
    3.1687   -0.5735    3.8583 C   0  0  0  0  0  0  0  0  0  0  0  0
    3.2543   -0.7960    4.8343 H   0  0  0  0  0  0  0  0  0  0  0  0
    3.0566    0.4215    3.7650 H   0  0  0  0  0  0  0  0  0  0  0  0
    1.9617   -1.2526    3.3086 N   0  0  0  0  0  4  0  0  0  0  0  0
    2.1349   -2.2349    3.2459 H   0  0  0  0  0  0  0  0  0  0  0  0
    1.1846   -1.0870    3.9144 H   0  0  0  0  0  0  0  0  0  0  0  0
    1.7627   -0.8888    2.3998 H   0  0  0  0  0  0  0  0  0  0  0  0
   -0.0249    2.8909   -0.0809 C   0  0  0  0  0  0  0  0  0  0  0  0
    0.6424    3.2420    0.5535 H   0  0  0  0  0  0  0  0  0  0  0  0
   -0.9353    3.1998    0.1360 H   0  0  0  0  0  0  0  0  0  0  0  0
    0.2273    3.2693   -1.0715 H   0  0  0  0  0  0  0  0  0  0  0  0
   -0.0055    1.3985   -0.0067 C   0  0  0  0  0  0  0  0  0  0  0  0
   -1.1953    0.6916   -0.0002 C   0  0  0  0  0  0  0  0  0  0  0  0
   -2.0658    1.1801    0.0030 H   0  0  0  0  0  0  0  0  0  0  0  0
   -1.2016   -0.6998   -0.0000 C   0  0  0  0  0  0  0  0  0  0  0  0
   -2.0751   -1.1936   -0.0024 H   0  0  0  0  0  0  0  0  0  0  0  0
    0.0040   -1.3906    0.0048 C   0  0  0  0  0  0  0  0  0  0  0  0
    0.0012   -2.3907    0.0117 H   0  0  0  0  0  0  0  0  0  0  0  0
    1.2016   -0.6942   -0.0000 C   0  0  0  0  0  0  0  0  0  0  0  0
    2.0851   -1.1914   -0.0033 H   0  0  0  0  0  0  0  0  0  0  0  0
    1.1967    0.6945    0.0021 C   0  0  0  0  0  0  0  0  0  0  0  0
    2.0607    1.1942    0.0093 H   0  0  0  0  0  0  0  0  0  0  0  0
  1  5  1  0
  5  8  1  0
  1  2  1  0
  1  3  1  0
  1  4  1  0
  5  6  1  0
  5  7  1  0
  8  9  1  0
  8 10  1  0
  8 11  1  0
 12 16  1  0
 16 17  2  0
 17 19  1  0
 19 21  2  0
 21 23  1  0
 23 25  2  0
 25 16  1  0
 12 13  1  0
 12 14  1  0
 12 15  1  0
 17 18  1  0
 19 20  1  0
 21 22  1  0
 23 24  1  0
 25 26  1  0
M  CHG  1   8   1
M  END
>  <PDB_ID>  (591) 
pdb1i7d

>  <RESIDUE_NAME>  (591) 
LYS   PHE

>  <FRAG_NAME>  (591) 
ETAM   MBZ

>  <FRAG_ATOM_NUM>  (591) 
fragi: 11  fragj: 15

>  <atom.prop.CHAIN_ID>  (591) 
A A A A A A A A A A A Z Z Z Z Z Z Z Z Z Z Z Z Z Z Z

>  <atom.prop.IS_HEAVY_ATOM>  (591) 
1 0 0 0 1 0 0 1 0 0 0 1 0 0 0 1 1 0 1 0 1 0 1 0 1 0

>  <DIFUSE_FUNC_ATOM>  (591) 
n/a

>  <FINAL_SINGLE_POINT_ENERGY>  (591) 
0

>  <NONCOV_INTER_ENERGY_QM>  (591) 
0

>  <FF_Energy>  (591) 
-4.68

>  <QM_Energy>  (591) 
-11.32

>  <source>  (591) 
ETAM_MBZ

>  <Index>  (591) 
5852

$$$$
ETAM-pdb2iv0-B-LYS-96:MBZ-pdb2iv0-B-PHE-33
     RDKit          3D

 26 25  0  0  0  0  0  0  0  0999 V2000
   -1.0107   -4.1668    2.1436 C   0  0  0  0  0  0  0  0  0  0  0  0
   -0.0975   -4.0473    1.7576 H   0  0  0  0  0  0  0  0  0  0  0  0
   -1.1221   -5.1051    2.4655 H   0  0  0  0  0  0  0  0  0  0  0  0
   -1.1350   -3.4829    2.9832 H   0  0  0  0  0  0  0  0  0  0  0  0
   -2.0352   -3.9197    1.0316 C   0  0  0  0  0  0  0  0  0  0  0  0
   -2.0837   -2.9184    0.8554 H   0  0  0  0  0  0  0  0  0  0  0  0
   -1.6912   -4.3500    0.1753 H   0  0  0  0  0  0  0  0  0  0  0  0
   -3.4217   -4.4275    1.2994 N   0  0  0  0  0  4  0  0  0  0  0  0
   -3.4811   -5.3802    1.0094 H   0  0  0  0  0  0  0  0  0  0  0  0
   -3.6104   -4.3582    2.2769 H   0  0  0  0  0  0  0  0  0  0  0  0
   -4.0755   -3.8744    0.7870 H   0  0  0  0  0  0  0  0  0  0  0  0
   -0.0045    2.9013    0.0146 C   0  0  0  0  0  0  0  0  0  0  0  0
   -0.7899    3.2070   -0.5017 H   0  0  0  0  0  0  0  0  0  0  0  0
    0.8399    3.2116   -0.3962 H   0  0  0  0  0  0  0  0  0  0  0  0
   -0.0698    3.3372    1.0115 H   0  0  0  0  0  0  0  0  0  0  0  0
   -0.0003    1.3950    0.0045 C   0  0  0  0  0  0  0  0  0  0  0  0
   -1.1904    0.6848    0.0053 C   0  0  0  0  0  0  0  0  0  0  0  0
   -2.0602    1.1807    0.0085 H   0  0  0  0  0  0  0  0  0  0  0  0
   -1.1976   -0.6929   -0.0000 C   0  0  0  0  0  0  0  0  0  0  0  0
   -2.0742   -1.1905    0.0030 H   0  0  0  0  0  0  0  0  0  0  0  0
   -0.0008   -1.3857   -0.0069 C   0  0  0  0  0  0  0  0  0  0  0  0
   -0.0044   -2.3869   -0.0178 H   0  0  0  0  0  0  0  0  0  0  0  0
    1.1976   -0.6928    0.0000 C   0  0  0  0  0  0  0  0  0  0  0  0
    2.0791   -1.1912    0.0088 H   0  0  0  0  0  0  0  0  0  0  0  0
    1.1914    0.6917   -0.0029 C   0  0  0  0  0  0  0  0  0  0  0  0
    2.0613    1.1899   -0.0115 H   0  0  0  0  0  0  0  0  0  0  0  0
  1  5  1  0
  5  8  1  0
  1  2  1  0
  1  3  1  0
  1  4  1  0
  5  6  1  0
  5  7  1  0
  8  9  1  0
  8 10  1  0
  8 11  1  0
 12 16  1  0
 16 17  2  0
 17 19  1  0
 19 21  2  0
 21 23  1  0
 23 25  2  0
 25 16  1  0
 12 13  1  0
 12 14  1  0
 12 15  1  0
 17 18  1  0
 19 20  1  0
 21 22  1  0
 23 24  1  0
 25 26  1  0
M  CHG  1   8   1
M  END
>  <PDB_ID>  (592) 
pdb2iv0

>  <RESIDUE_NAME>  (592) 
LYS   PHE

>  <FRAG_NAME>  (592) 
ETAM   MBZ

>  <FRAG_ATOM_NUM>  (592) 
fragi: 11  fragj: 15

>  <atom.prop.CHAIN_ID>  (592) 
A A A A A A A A A A A Z Z Z Z Z Z Z Z Z Z Z Z Z Z Z

>  <atom.prop.IS_HEAVY_ATOM>  (592) 
1 0 0 0 1 0 0 1 0 0 0 1 0 0 0 1 1 0 1 0 1 0 1 0 1 0

>  <DIFUSE_FUNC_ATOM>  (592) 
n/a

>  <FINAL_SINGLE_POINT_ENERGY>  (592) 
0

>  <NONCOV_INTER_ENERGY_QM>  (592) 
0

>  <FF_Energy>  (592) 
2.87

>  <QM_Energy>  (592) 
-2.61

>  <source>  (592) 
ETAM_MBZ

>  <Index>  (592) 
5858

$$$$
ETAM-pdb2iy4-I-LYS-45:MBZ-pdb2iy4-G-PHE-40
     RDKit          3D

 26 25  0  0  0  0  0  0  0  0999 V2000
   -2.0102    0.5692    3.9336 C   0  0  0  0  0  0  0  0  0  0  0  0
   -2.2605    1.2557    4.6106 H   0  0  0  0  0  0  0  0  0  0  0  0
   -1.7508    1.0084    3.0788 H   0  0  0  0  0  0  0  0  0  0  0  0
   -1.1614   -0.0024    4.3090 H   0  0  0  0  0  0  0  0  0  0  0  0
   -3.2177   -0.3192    3.6748 C   0  0  0  0  0  0  0  0  0  0  0  0
   -3.4819   -0.7587    4.5509 H   0  0  0  0  0  0  0  0  0  0  0  0
   -3.9933    0.2730    3.3934 H   0  0  0  0  0  0  0  0  0  0  0  0
   -2.9906   -1.3457    2.6595 N   0  0  0  0  0  4  0  0  0  0  0  0
   -3.8189   -1.4727    2.1064 H   0  0  0  0  0  0  0  0  0  0  0  0
   -2.2360   -1.0731    2.0558 H   0  0  0  0  0  0  0  0  0  0  0  0
   -2.7558   -2.2181    3.0979 H   0  0  0  0  0  0  0  0  0  0  0  0
    0.0030    2.9114   -0.0164 C   0  0  0  0  0  0  0  0  0  0  0  0
    0.9133    3.2166    0.2015 H   0  0  0  0  0  0  0  0  0  0  0  0
   -0.6591    3.2244    0.6414 H   0  0  0  0  0  0  0  0  0  0  0  0
   -0.2670    3.3259   -0.9877 H   0  0  0  0  0  0  0  0  0  0  0  0
    0.0016    1.4002    0.0054 C   0  0  0  0  0  0  0  0  0  0  0  0
   -1.1939    0.6975   -0.0099 C   0  0  0  0  0  0  0  0  0  0  0  0
   -2.0599    1.1926   -0.0296 H   0  0  0  0  0  0  0  0  0  0  0  0
   -1.2019   -0.6860    0.0000 C   0  0  0  0  0  0  0  0  0  0  0  0
   -2.0816   -1.1805    0.0062 H   0  0  0  0  0  0  0  0  0  0  0  0
   -0.0048   -1.3913    0.0035 C   0  0  0  0  0  0  0  0  0  0  0  0
   -0.0187   -2.3912    0.0078 H   0  0  0  0  0  0  0  0  0  0  0  0
    1.2019   -0.7089    0.0000 C   0  0  0  0  0  0  0  0  0  0  0  0
    2.0785   -1.2055   -0.0020 H   0  0  0  0  0  0  0  0  0  0  0  0
    1.1971    0.6884    0.0010 C   0  0  0  0  0  0  0  0  0  0  0  0
    2.0674    1.1816   -0.0021 H   0  0  0  0  0  0  0  0  0  0  0  0
  1  5  1  0
  5  8  1  0
  1  2  1  0
  1  3  1  0
  1  4  1  0
  5  6  1  0
  5  7  1  0
  8  9  1  0
  8 10  1  0
  8 11  1  0
 12 16  1  0
 16 17  2  0
 17 19  1  0
 19 21  2  0
 21 23  1  0
 23 25  2  0
 25 16  1  0
 12 13  1  0
 12 14  1  0
 12 15  1  0
 17 18  1  0
 19 20  1  0
 21 22  1  0
 23 24  1  0
 25 26  1  0
M  CHG  1   8   1
M  END
>  <PDB_ID>  (593) 
pdb2iy4

>  <RESIDUE_NAME>  (593) 
LYS   PHE

>  <FRAG_NAME>  (593) 
ETAM   MBZ

>  <FRAG_ATOM_NUM>  (593) 
fragi: 11  fragj: 15

>  <atom.prop.CHAIN_ID>  (593) 
A A A A A A A A A A A Z Z Z Z Z Z Z Z Z Z Z Z Z Z Z

>  <atom.prop.IS_HEAVY_ATOM>  (593) 
1 0 0 0 1 0 0 1 0 0 0 1 0 0 0 1 1 0 1 0 1 0 1 0 1 0

>  <DIFUSE_FUNC_ATOM>  (593) 
n/a

>  <FINAL_SINGLE_POINT_ENERGY>  (593) 
0

>  <NONCOV_INTER_ENERGY_QM>  (593) 
0

>  <FF_Energy>  (593) 
-2.9

>  <QM_Energy>  (593) 
-9.81

>  <source>  (593) 
ETAM_MBZ

>  <Index>  (593) 
5872

$$$$
ETAM-pdb2iy4-J-LYS-45:MBZ-pdb2iy4-F-PHE-40
     RDKit          3D

 26 25  0  0  0  0  0  0  0  0999 V2000
   -2.1161    0.4196    4.2480 C   0  0  0  0  0  0  0  0  0  0  0  0
   -2.4247    0.8303    5.0939 H   0  0  0  0  0  0  0  0  0  0  0  0
   -2.0338    1.0955    3.5302 H   0  0  0  0  0  0  0  0  0  0  0  0
   -1.1426   -0.0416    4.4143 H   0  0  0  0  0  0  0  0  0  0  0  0
   -3.1220   -0.6292    3.8175 C   0  0  0  0  0  0  0  0  0  0  0  0
   -3.0427   -1.4242    4.4320 H   0  0  0  0  0  0  0  0  0  0  0  0
   -4.0492   -0.2465    3.9148 H   0  0  0  0  0  0  0  0  0  0  0  0
   -2.9129   -1.0612    2.4269 N   0  0  0  0  0  4  0  0  0  0  0  0
   -3.1121   -0.3036    1.8018 H   0  0  0  0  0  0  0  0  0  0  0  0
   -1.9614   -1.3497    2.3000 H   0  0  0  0  0  0  0  0  0  0  0  0
   -3.5204   -1.8303    2.2149 H   0  0  0  0  0  0  0  0  0  0  0  0
   -0.0003    2.9126   -0.0028 C   0  0  0  0  0  0  0  0  0  0  0  0
    0.9007    3.2192    0.2509 H   0  0  0  0  0  0  0  0  0  0  0  0
   -0.6861    3.2181    0.6363 H   0  0  0  0  0  0  0  0  0  0  0  0
   -0.2381    3.3370   -0.9782 H   0  0  0  0  0  0  0  0  0  0  0  0
    0.0031    1.4035    0.0051 C   0  0  0  0  0  0  0  0  0  0  0  0
   -1.2031    0.6872    0.0099 C   0  0  0  0  0  0  0  0  0  0  0  0
   -2.0648    1.1850    0.0190 H   0  0  0  0  0  0  0  0  0  0  0  0
   -1.2044   -0.6919    0.0000 C   0  0  0  0  0  0  0  0  0  0  0  0
   -2.0800   -1.1942   -0.0014 H   0  0  0  0  0  0  0  0  0  0  0  0
   -0.0010   -1.3949   -0.0065 C   0  0  0  0  0  0  0  0  0  0  0  0
   -0.0102   -2.3925   -0.0165 H   0  0  0  0  0  0  0  0  0  0  0  0
    1.2044   -0.7023   -0.0000 C   0  0  0  0  0  0  0  0  0  0  0  0
    2.0837   -1.1975    0.0124 H   0  0  0  0  0  0  0  0  0  0  0  0
    1.2010    0.6985   -0.0085 C   0  0  0  0  0  0  0  0  0  0  0  0
    2.0684    1.1904   -0.0252 H   0  0  0  0  0  0  0  0  0  0  0  0
  1  5  1  0
  5  8  1  0
  1  2  1  0
  1  3  1  0
  1  4  1  0
  5  6  1  0
  5  7  1  0
  8  9  1  0
  8 10  1  0
  8 11  1  0
 12 16  1  0
 16 17  2  0
 17 19  1  0
 19 21  2  0
 21 23  1  0
 23 25  2  0
 25 16  1  0
 12 13  1  0
 12 14  1  0
 12 15  1  0
 17 18  1  0
 19 20  1  0
 21 22  1  0
 23 24  1  0
 25 26  1  0
M  CHG  1   8   1
M  END
>  <PDB_ID>  (594) 
pdb2iy4

>  <RESIDUE_NAME>  (594) 
LYS   PHE

>  <FRAG_NAME>  (594) 
ETAM   MBZ

>  <FRAG_ATOM_NUM>  (594) 
fragi: 11  fragj: 15

>  <atom.prop.CHAIN_ID>  (594) 
A A A A A A A A A A A Z Z Z Z Z Z Z Z Z Z Z Z Z Z Z

>  <atom.prop.IS_HEAVY_ATOM>  (594) 
1 0 0 0 1 0 0 1 0 0 0 1 0 0 0 1 1 0 1 0 1 0 1 0 1 0

>  <DIFUSE_FUNC_ATOM>  (594) 
n/a

>  <FINAL_SINGLE_POINT_ENERGY>  (594) 
0

>  <NONCOV_INTER_ENERGY_QM>  (594) 
0

>  <FF_Energy>  (594) 
-1.12

>  <QM_Energy>  (594) 
-8.46

>  <source>  (594) 
ETAM_MBZ

>  <Index>  (594) 
5875

$$$$
ETAM-pdb2iy4-J-LYS-45:MBZ-pdb2iy4-J-PHE-146
     RDKit          3D

 26 25  0  0  0  0  0  0  0  0999 V2000
    0.2361   -4.9858   -3.1034 C   0  0  0  0  0  0  0  0  0  0  0  0
    0.3338   -5.9686   -3.0399 H   0  0  0  0  0  0  0  0  0  0  0  0
   -0.0537   -4.7120   -4.0089 H   0  0  0  0  0  0  0  0  0  0  0  0
   -0.5086   -4.6578   -2.3783 H   0  0  0  0  0  0  0  0  0  0  0  0
    1.5742   -4.3404   -2.8033 C   0  0  0  0  0  0  0  0  0  0  0  0
    1.7619   -4.4297   -1.8171 H   0  0  0  0  0  0  0  0  0  0  0  0
    2.2922   -4.8364   -3.3074 H   0  0  0  0  0  0  0  0  0  0  0  0
    1.6021   -2.9189   -3.1812 N   0  0  0  0  0  4  0  0  0  0  0  0
    1.5400   -2.8306   -4.1777 H   0  0  0  0  0  0  0  0  0  0  0  0
    0.8284   -2.4402   -2.7606 H   0  0  0  0  0  0  0  0  0  0  0  0
    2.4575   -2.5004   -2.8671 H   0  0  0  0  0  0  0  0  0  0  0  0
   -0.0059    2.8958    0.0154 C   0  0  0  0  0  0  0  0  0  0  0  0
    0.8798    3.2060    0.3269 H   0  0  0  0  0  0  0  0  0  0  0  0
   -0.7263    3.1925    0.6238 H   0  0  0  0  0  0  0  0  0  0  0  0
   -0.1904    3.3352   -0.9650 H   0  0  0  0  0  0  0  0  0  0  0  0
    0.0043    1.3995    0.0036 C   0  0  0  0  0  0  0  0  0  0  0  0
   -1.1956    0.6823    0.0002 C   0  0  0  0  0  0  0  0  0  0  0  0
   -2.0615    1.1769   -0.0036 H   0  0  0  0  0  0  0  0  0  0  0  0
   -1.1978   -0.6994   -0.0000 C   0  0  0  0  0  0  0  0  0  0  0  0
   -2.0761   -1.1961    0.0096 H   0  0  0  0  0  0  0  0  0  0  0  0
   -0.0037   -1.3888   -0.0114 C   0  0  0  0  0  0  0  0  0  0  0  0
   -0.0033   -2.3899   -0.0282 H   0  0  0  0  0  0  0  0  0  0  0  0
    1.1978   -0.6939   -0.0000 C   0  0  0  0  0  0  0  0  0  0  0  0
    2.0792   -1.1910    0.0037 H   0  0  0  0  0  0  0  0  0  0  0  0
    1.1951    0.7004    0.0076 C   0  0  0  0  0  0  0  0  0  0  0  0
    2.0649    1.1917    0.0154 H   0  0  0  0  0  0  0  0  0  0  0  0
  1  5  1  0
  5  8  1  0
  1  2  1  0
  1  3  1  0
  1  4  1  0
  5  6  1  0
  5  7  1  0
  8  9  1  0
  8 10  1  0
  8 11  1  0
 12 16  1  0
 16 17  2  0
 17 19  1  0
 19 21  2  0
 21 23  1  0
 23 25  2  0
 25 16  1  0
 12 13  1  0
 12 14  1  0
 12 15  1  0
 17 18  1  0
 19 20  1  0
 21 22  1  0
 23 24  1  0
 25 26  1  0
M  CHG  1   8   1
M  END
>  <PDB_ID>  (595) 
pdb2iy4

>  <RESIDUE_NAME>  (595) 
LYS   PHE

>  <FRAG_NAME>  (595) 
ETAM   MBZ

>  <FRAG_ATOM_NUM>  (595) 
fragi: 11  fragj: 15

>  <atom.prop.CHAIN_ID>  (595) 
A A A A A A A A A A A Z Z Z Z Z Z Z Z Z Z Z Z Z Z Z

>  <atom.prop.IS_HEAVY_ATOM>  (595) 
1 0 0 0 1 0 0 1 0 0 0 1 0 0 0 1 1 0 1 0 1 0 1 0 1 0

>  <DIFUSE_FUNC_ATOM>  (595) 
n/a

>  <FINAL_SINGLE_POINT_ENERGY>  (595) 
0

>  <NONCOV_INTER_ENERGY_QM>  (595) 
0

>  <FF_Energy>  (595) 
-2.32

>  <QM_Energy>  (595) 
-7.46

>  <source>  (595) 
ETAM_MBZ

>  <Index>  (595) 
5876

$$$$
ETAM-pdb2iy4-M-LYS-45:MBZ-pdb2iy4-X-PHE-40
     RDKit          3D

 26 25  0  0  0  0  0  0  0  0999 V2000
   -1.8608    0.3812    4.1040 C   0  0  0  0  0  0  0  0  0  0  0  0
   -2.3146    0.7958    4.8713 H   0  0  0  0  0  0  0  0  0  0  0  0
   -1.7207    1.0142    3.3651 H   0  0  0  0  0  0  0  0  0  0  0  0
   -0.8912    0.0072    4.4329 H   0  0  0  0  0  0  0  0  0  0  0  0
   -2.7203   -0.7862    3.5955 C   0  0  0  0  0  0  0  0  0  0  0  0
   -2.1263   -1.4305    3.1036 H   0  0  0  0  0  0  0  0  0  0  0  0
   -3.1187   -1.2589    4.3878 H   0  0  0  0  0  0  0  0  0  0  0  0
   -3.8215   -0.3421    2.6849 N   0  0  0  0  0  4  0  0  0  0  0  0
   -4.1860    0.5279    3.0121 H   0  0  0  0  0  0  0  0  0  0  0  0
   -3.4577   -0.2306    1.7613 H   0  0  0  0  0  0  0  0  0  0  0  0
   -4.5434   -1.0318    2.6836 H   0  0  0  0  0  0  0  0  0  0  0  0
    0.0045    2.9077   -0.0320 C   0  0  0  0  0  0  0  0  0  0  0  0
    0.9144    3.2185    0.1836 H   0  0  0  0  0  0  0  0  0  0  0  0
   -0.6591    3.2323    0.6207 H   0  0  0  0  0  0  0  0  0  0  0  0
   -0.2636    3.3118   -1.0082 H   0  0  0  0  0  0  0  0  0  0  0  0
    0.0018    1.4061    0.0053 C   0  0  0  0  0  0  0  0  0  0  0  0
   -1.2069    0.6982   -0.0042 C   0  0  0  0  0  0  0  0  0  0  0  0
   -2.0674    1.1898   -0.0149 H   0  0  0  0  0  0  0  0  0  0  0  0
   -1.2105   -0.6973   -0.0000 C   0  0  0  0  0  0  0  0  0  0  0  0
   -2.0850   -1.1913    0.0005 H   0  0  0  0  0  0  0  0  0  0  0  0
   -0.0038   -1.3939    0.0051 C   0  0  0  0  0  0  0  0  0  0  0  0
   -0.0071   -2.3935    0.0117 H   0  0  0  0  0  0  0  0  0  0  0  0
    1.2105   -0.6992   -0.0000 C   0  0  0  0  0  0  0  0  0  0  0  0
    2.0839   -1.2062    0.0025 H   0  0  0  0  0  0  0  0  0  0  0  0
    1.2089    0.6861   -0.0062 C   0  0  0  0  0  0  0  0  0  0  0  0
    2.0729    1.1885   -0.0196 H   0  0  0  0  0  0  0  0  0  0  0  0
  1  5  1  0
  5  8  1  0
  1  2  1  0
  1  3  1  0
  1  4  1  0
  5  6  1  0
  5  7  1  0
  8  9  1  0
  8 10  1  0
  8 11  1  0
 12 16  1  0
 16 17  2  0
 17 19  1  0
 19 21  2  0
 21 23  1  0
 23 25  2  0
 25 16  1  0
 12 13  1  0
 12 14  1  0
 12 15  1  0
 17 18  1  0
 19 20  1  0
 21 22  1  0
 23 24  1  0
 25 26  1  0
M  CHG  1   8   1
M  END
>  <PDB_ID>  (596) 
pdb2iy4

>  <RESIDUE_NAME>  (596) 
LYS   PHE

>  <FRAG_NAME>  (596) 
ETAM   MBZ

>  <FRAG_ATOM_NUM>  (596) 
fragi: 11  fragj: 15

>  <atom.prop.CHAIN_ID>  (596) 
A A A A A A A A A A A Z Z Z Z Z Z Z Z Z Z Z Z Z Z Z

>  <atom.prop.IS_HEAVY_ATOM>  (596) 
1 0 0 0 1 0 0 1 0 0 0 1 0 0 0 1 1 0 1 0 1 0 1 0 1 0

>  <DIFUSE_FUNC_ATOM>  (596) 
n/a

>  <FINAL_SINGLE_POINT_ENERGY>  (596) 
0

>  <NONCOV_INTER_ENERGY_QM>  (596) 
0

>  <FF_Energy>  (596) 
-2.37

>  <QM_Energy>  (596) 
-7.42

>  <source>  (596) 
ETAM_MBZ

>  <Index>  (596) 
5879

$$$$
ETAM-pdb2iy4-Q-LYS-45:MBZ-pdb2iy4-O-PHE-40
     RDKit          3D

 26 25  0  0  0  0  0  0  0  0999 V2000
   -2.2123    0.7773    3.9593 C   0  0  0  0  0  0  0  0  0  0  0  0
   -2.5955    1.3302    4.6932 H   0  0  0  0  0  0  0  0  0  0  0  0
   -1.7269    1.3556    3.3103 H   0  0  0  0  0  0  0  0  0  0  0  0
   -1.5139    0.0568    4.3852 H   0  0  0  0  0  0  0  0  0  0  0  0
   -3.3722    0.0927    3.2177 C   0  0  0  0  0  0  0  0  0  0  0  0
   -4.1931    0.1360    3.8058 H   0  0  0  0  0  0  0  0  0  0  0  0
   -3.5675    0.6216    2.3787 H   0  0  0  0  0  0  0  0  0  0  0  0
   -3.1022   -1.3215    2.8546 N   0  0  0  0  0  4  0  0  0  0  0  0
   -3.6864   -1.9227    3.4002 H   0  0  0  0  0  0  0  0  0  0  0  0
   -3.2956   -1.4590    1.8832 H   0  0  0  0  0  0  0  0  0  0  0  0
   -2.1423   -1.5345    3.0368 H   0  0  0  0  0  0  0  0  0  0  0  0
   -0.0183    2.8937   -0.0046 C   0  0  0  0  0  0  0  0  0  0  0  0
    0.8827    3.2105    0.2476 H   0  0  0  0  0  0  0  0  0  0  0  0
   -0.7027    3.1969    0.6405 H   0  0  0  0  0  0  0  0  0  0  0  0
   -0.2638    3.3140   -0.9799 H   0  0  0  0  0  0  0  0  0  0  0  0
   -0.0032    1.3984    0.0034 C   0  0  0  0  0  0  0  0  0  0  0  0
   -1.2030    0.6810   -0.0042 C   0  0  0  0  0  0  0  0  0  0  0  0
   -2.0680    1.1764   -0.0137 H   0  0  0  0  0  0  0  0  0  0  0  0
   -1.2060   -0.6998    0.0000 C   0  0  0  0  0  0  0  0  0  0  0  0
   -2.0755   -1.2028    0.0021 H   0  0  0  0  0  0  0  0  0  0  0  0
    0.0052   -1.3913    0.0038 C   0  0  0  0  0  0  0  0  0  0  0  0
    0.0029   -2.3911    0.0088 H   0  0  0  0  0  0  0  0  0  0  0  0
    1.2060   -0.6924   -0.0000 C   0  0  0  0  0  0  0  0  0  0  0  0
    2.0880   -1.1868    0.0006 H   0  0  0  0  0  0  0  0  0  0  0  0
    1.2010    0.7041   -0.0030 C   0  0  0  0  0  0  0  0  0  0  0  0
    2.0633    1.2004   -0.0107 H   0  0  0  0  0  0  0  0  0  0  0  0
  1  5  1  0
  5  8  1  0
  1  2  1  0
  1  3  1  0
  1  4  1  0
  5  6  1  0
  5  7  1  0
  8  9  1  0
  8 10  1  0
  8 11  1  0
 12 16  1  0
 16 17  2  0
 17 19  1  0
 19 21  2  0
 21 23  1  0
 23 25  2  0
 25 16  1  0
 12 13  1  0
 12 14  1  0
 12 15  1  0
 17 18  1  0
 19 20  1  0
 21 22  1  0
 23 24  1  0
 25 26  1  0
M  CHG  1   8   1
M  END
>  <PDB_ID>  (597) 
pdb2iy4

>  <RESIDUE_NAME>  (597) 
LYS   PHE

>  <FRAG_NAME>  (597) 
ETAM   MBZ

>  <FRAG_ATOM_NUM>  (597) 
fragi: 11  fragj: 15

>  <atom.prop.CHAIN_ID>  (597) 
A A A A A A A A A A A Z Z Z Z Z Z Z Z Z Z Z Z Z Z Z

>  <atom.prop.IS_HEAVY_ATOM>  (597) 
1 0 0 0 1 0 0 1 0 0 0 1 0 0 0 1 1 0 1 0 1 0 1 0 1 0

>  <DIFUSE_FUNC_ATOM>  (597) 
n/a

>  <FINAL_SINGLE_POINT_ENERGY>  (597) 
0

>  <NONCOV_INTER_ENERGY_QM>  (597) 
0

>  <FF_Energy>  (597) 
-2.64

>  <QM_Energy>  (597) 
-7.77

>  <source>  (597) 
ETAM_MBZ

>  <Index>  (597) 
5885

$$$$
ETAM-pdb2iy4-R-LYS-45:MBZ-pdb2iy4-N-PHE-40
     RDKit          3D

 26 25  0  0  0  0  0  0  0  0999 V2000
   -1.8675    0.6763    4.1702 C   0  0  0  0  0  0  0  0  0  0  0  0
   -2.0130    1.4494    4.7800 H   0  0  0  0  0  0  0  0  0  0  0  0
   -1.6491    0.9975    3.2534 H   0  0  0  0  0  0  0  0  0  0  0  0
   -1.0356    0.0803    4.5452 H   0  0  0  0  0  0  0  0  0  0  0  0
   -3.1364   -0.1384    4.1093 C   0  0  0  0  0  0  0  0  0  0  0  0
   -3.2466   -0.6364    4.9721 H   0  0  0  0  0  0  0  0  0  0  0  0
   -3.9155    0.4797    3.9864 H   0  0  0  0  0  0  0  0  0  0  0  0
   -3.0901   -1.0974    2.9921 N   0  0  0  0  0  4  0  0  0  0  0  0
   -2.3684   -0.8344    2.3487 H   0  0  0  0  0  0  0  0  0  0  0  0
   -2.8986   -2.0171    3.3417 H   0  0  0  0  0  0  0  0  0  0  0  0
   -3.9708   -1.1041    2.5144 H   0  0  0  0  0  0  0  0  0  0  0  0
   -0.0002    2.8844   -0.0268 C   0  0  0  0  0  0  0  0  0  0  0  0
    0.9101    3.2046    0.1763 H   0  0  0  0  0  0  0  0  0  0  0  0
   -0.6598    3.2139    0.6280 H   0  0  0  0  0  0  0  0  0  0  0  0
   -0.2792    3.2804   -1.0033 H   0  0  0  0  0  0  0  0  0  0  0  0
    0.0018    1.3990    0.0099 C   0  0  0  0  0  0  0  0  0  0  0  0
   -1.1953    0.6941    0.0062 C   0  0  0  0  0  0  0  0  0  0  0  0
   -2.0614    1.1780    0.0072 H   0  0  0  0  0  0  0  0  0  0  0  0
   -1.1926   -0.7031   -0.0000 C   0  0  0  0  0  0  0  0  0  0  0  0
   -2.0724   -1.1941    0.0030 H   0  0  0  0  0  0  0  0  0  0  0  0
    0.0006   -1.3864   -0.0087 C   0  0  0  0  0  0  0  0  0  0  0  0
   -0.0013   -2.3924   -0.0221 H   0  0  0  0  0  0  0  0  0  0  0  0
    1.1926   -0.6981   -0.0000 C   0  0  0  0  0  0  0  0  0  0  0  0
    2.0778   -1.1939    0.0131 H   0  0  0  0  0  0  0  0  0  0  0  0
    1.1929    0.6945   -0.0075 C   0  0  0  0  0  0  0  0  0  0  0  0
    2.0625    1.1858   -0.0266 H   0  0  0  0  0  0  0  0  0  0  0  0
  1  5  1  0
  5  8  1  0
  1  2  1  0
  1  3  1  0
  1  4  1  0
  5  6  1  0
  5  7  1  0
  8  9  1  0
  8 10  1  0
  8 11  1  0
 12 16  1  0
 16 17  2  0
 17 19  1  0
 19 21  2  0
 21 23  1  0
 23 25  2  0
 25 16  1  0
 12 13  1  0
 12 14  1  0
 12 15  1  0
 17 18  1  0
 19 20  1  0
 21 22  1  0
 23 24  1  0
 25 26  1  0
M  CHG  1   8   1
M  END
>  <PDB_ID>  (598) 
pdb2iy4

>  <RESIDUE_NAME>  (598) 
LYS   PHE

>  <FRAG_NAME>  (598) 
ETAM   MBZ

>  <FRAG_ATOM_NUM>  (598) 
fragi: 11  fragj: 15

>  <atom.prop.CHAIN_ID>  (598) 
A A A A A A A A A A A Z Z Z Z Z Z Z Z Z Z Z Z Z Z Z

>  <atom.prop.IS_HEAVY_ATOM>  (598) 
1 0 0 0 1 0 0 1 0 0 0 1 0 0 0 1 1 0 1 0 1 0 1 0 1 0

>  <DIFUSE_FUNC_ATOM>  (598) 
n/a

>  <FINAL_SINGLE_POINT_ENERGY>  (598) 
0

>  <NONCOV_INTER_ENERGY_QM>  (598) 
0

>  <FF_Energy>  (598) 
-3.17

>  <QM_Energy>  (598) 
-9.03

>  <source>  (598) 
ETAM_MBZ

>  <Index>  (598) 
5887

$$$$
ETAM-pdb2iy4-T-LYS-45:MBZ-pdb2iy4-M-PHE-40
     RDKit          3D

 26 25  0  0  0  0  0  0  0  0999 V2000
   -1.7907    0.3979    4.0635 C   0  0  0  0  0  0  0  0  0  0  0  0
   -1.9750    1.1165    4.7285 H   0  0  0  0  0  0  0  0  0  0  0  0
   -1.6336    0.7941    3.1636 H   0  0  0  0  0  0  0  0  0  0  0  0
   -0.8914   -0.1363    4.3701 H   0  0  0  0  0  0  0  0  0  0  0  0
   -3.0042   -0.5195    3.9876 C   0  0  0  0  0  0  0  0  0  0  0  0
   -3.0467   -1.0671    4.8383 H   0  0  0  0  0  0  0  0  0  0  0  0
   -3.8386    0.0533    3.9540 H   0  0  0  0  0  0  0  0  0  0  0  0
   -2.9913   -1.4299    2.8220 N   0  0  0  0  0  4  0  0  0  0  0  0
   -3.9305   -1.6169    2.5312 H   0  0  0  0  0  0  0  0  0  0  0  0
   -2.4892   -1.0036    2.0685 H   0  0  0  0  0  0  0  0  0  0  0  0
   -2.5450   -2.2903    3.0728 H   0  0  0  0  0  0  0  0  0  0  0  0
    0.0063    2.9075   -0.0026 C   0  0  0  0  0  0  0  0  0  0  0  0
    0.9309    3.2131    0.1598 H   0  0  0  0  0  0  0  0  0  0  0  0
   -0.6084    3.2200    0.7032 H   0  0  0  0  0  0  0  0  0  0  0  0
   -0.3255    3.3391   -0.9469 H   0  0  0  0  0  0  0  0  0  0  0  0
    0.0014    1.4065    0.0028 C   0  0  0  0  0  0  0  0  0  0  0  0
   -1.1994    0.7010    0.0002 C   0  0  0  0  0  0  0  0  0  0  0  0
   -2.0644    1.1857   -0.0024 H   0  0  0  0  0  0  0  0  0  0  0  0
   -1.2044   -0.7048   -0.0000 C   0  0  0  0  0  0  0  0  0  0  0  0
   -2.0801   -1.1921    0.0020 H   0  0  0  0  0  0  0  0  0  0  0  0
    0.0008   -1.4003   -0.0014 C   0  0  0  0  0  0  0  0  0  0  0  0
   -0.0005   -2.3974   -0.0040 H   0  0  0  0  0  0  0  0  0  0  0  0
    1.2044   -0.6993   -0.0000 C   0  0  0  0  0  0  0  0  0  0  0  0
    2.0858   -1.1940    0.0038 H   0  0  0  0  0  0  0  0  0  0  0  0
    1.1972    0.6969   -0.0016 C   0  0  0  0  0  0  0  0  0  0  0  0
    2.0661    1.1919   -0.0066 H   0  0  0  0  0  0  0  0  0  0  0  0
  1  5  1  0
  5  8  1  0
  1  2  1  0
  1  3  1  0
  1  4  1  0
  5  6  1  0
  5  7  1  0
  8  9  1  0
  8 10  1  0
  8 11  1  0
 12 16  1  0
 16 17  2  0
 17 19  1  0
 19 21  2  0
 21 23  1  0
 23 25  2  0
 25 16  1  0
 12 13  1  0
 12 14  1  0
 12 15  1  0
 17 18  1  0
 19 20  1  0
 21 22  1  0
 23 24  1  0
 25 26  1  0
M  CHG  1   8   1
M  END
>  <PDB_ID>  (599) 
pdb2iy4

>  <RESIDUE_NAME>  (599) 
LYS   PHE

>  <FRAG_NAME>  (599) 
ETAM   MBZ

>  <FRAG_ATOM_NUM>  (599) 
fragi: 11  fragj: 15

>  <atom.prop.CHAIN_ID>  (599) 
A A A A A A A A A A A Z Z Z Z Z Z Z Z Z Z Z Z Z Z Z

>  <atom.prop.IS_HEAVY_ATOM>  (599) 
1 0 0 0 1 0 0 1 0 0 0 1 0 0 0 1 1 0 1 0 1 0 1 0 1 0

>  <DIFUSE_FUNC_ATOM>  (599) 
n/a

>  <FINAL_SINGLE_POINT_ENERGY>  (599) 
0

>  <NONCOV_INTER_ENERGY_QM>  (599) 
0

>  <FF_Energy>  (599) 
-2.93

>  <QM_Energy>  (599) 
-9.39

>  <source>  (599) 
ETAM_MBZ

>  <Index>  (599) 
5891

$$$$
ETAM-pdb1i3r-E-LYS-74:MBZ-pdb1i3r-F-PHE-33
     RDKit          3D

 26 25  0  0  0  0  0  0  0  0999 V2000
    0.2781    2.0001    3.8197 C   0  0  0  0  0  0  0  0  0  0  0  0
    0.7868    2.4220    3.0750 H   0  0  0  0  0  0  0  0  0  0  0  0
    0.6793    2.2484    4.6962 H   0  0  0  0  0  0  0  0  0  0  0  0
   -0.7532    2.3518    3.7887 H   0  0  0  0  0  0  0  0  0  0  0  0
    0.3612    0.4850    3.6629 C   0  0  0  0  0  0  0  0  0  0  0  0
   -0.1418    0.0554    4.4137 H   0  0  0  0  0  0  0  0  0  0  0  0
   -0.0593    0.2273    2.7916 H   0  0  0  0  0  0  0  0  0  0  0  0
    1.7716    0.0217    3.6849 N   0  0  0  0  0  4  0  0  0  0  0  0
    1.7968   -0.9755    3.6070 H   0  0  0  0  0  0  0  0  0  0  0  0
    2.2687    0.4283    2.9181 H   0  0  0  0  0  0  0  0  0  0  0  0
    2.2010    0.2998    4.5450 H   0  0  0  0  0  0  0  0  0  0  0  0
    0.0040    2.9047   -0.0853 C   0  0  0  0  0  0  0  0  0  0  0  0
    0.8641    3.2291    0.2693 H   0  0  0  0  0  0  0  0  0  0  0  0
   -0.7599    3.2432    0.4372 H   0  0  0  0  0  0  0  0  0  0  0  0
   -0.0984    3.2755   -1.1051 H   0  0  0  0  0  0  0  0  0  0  0  0
   -0.0007    1.4036   -0.0002 C   0  0  0  0  0  0  0  0  0  0  0  0
   -1.1986    0.6968    0.0012 C   0  0  0  0  0  0  0  0  0  0  0  0
   -2.0647    1.1843    0.0017 H   0  0  0  0  0  0  0  0  0  0  0  0
   -1.2015   -0.6985   -0.0000 C   0  0  0  0  0  0  0  0  0  0  0  0
   -2.0769   -1.1918    0.0025 H   0  0  0  0  0  0  0  0  0  0  0  0
    0.0028   -1.3946   -0.0027 C   0  0  0  0  0  0  0  0  0  0  0  0
   -0.0028   -2.3937   -0.0070 H   0  0  0  0  0  0  0  0  0  0  0  0
    1.2015   -0.6991   -0.0000 C   0  0  0  0  0  0  0  0  0  0  0  0
    2.0843   -1.1955    0.0023 H   0  0  0  0  0  0  0  0  0  0  0  0
    1.1965    0.6919    0.0018 C   0  0  0  0  0  0  0  0  0  0  0  0
    2.0654    1.1890    0.0036 H   0  0  0  0  0  0  0  0  0  0  0  0
  1  5  1  0
  5  8  1  0
  1  2  1  0
  1  3  1  0
  1  4  1  0
  5  6  1  0
  5  7  1  0
  8  9  1  0
  8 10  1  0
  8 11  1  0
 12 16  1  0
 16 17  2  0
 17 19  1  0
 19 21  2  0
 21 23  1  0
 23 25  2  0
 25 16  1  0
 12 13  1  0
 12 14  1  0
 12 15  1  0
 17 18  1  0
 19 20  1  0
 21 22  1  0
 23 24  1  0
 25 26  1  0
M  CHG  1   8   1
M  END
>  <PDB_ID>  (600) 
pdb1i3r

>  <RESIDUE_NAME>  (600) 
LYS   PHE

>  <FRAG_NAME>  (600) 
ETAM   MBZ

>  <FRAG_ATOM_NUM>  (600) 
fragi: 11  fragj: 15

>  <atom.prop.CHAIN_ID>  (600) 
A A A A A A A A A A A Z Z Z Z Z Z Z Z Z Z Z Z Z Z Z

>  <atom.prop.IS_HEAVY_ATOM>  (600) 
1 0 0 0 1 0 0 1 0 0 0 1 0 0 0 1 1 0 1 0 1 0 1 0 1 0

>  <DIFUSE_FUNC_ATOM>  (600) 
n/a

>  <FINAL_SINGLE_POINT_ENERGY>  (600) 
0

>  <NONCOV_INTER_ENERGY_QM>  (600) 
0

>  <FF_Energy>  (600) 
-6.45

>  <QM_Energy>  (600) 
-11.94

>  <source>  (600) 
ETAM_MBZ

>  <Index>  (600) 
5897

$$$$
ETAM-pdb1iat-A-LYS-225:MBZ-pdb1iat-A-PHE-255
     RDKit          3D

 26 25  0  0  0  0  0  0  0  0999 V2000
   -1.3382   -2.3829   -3.8487 C   0  0  0  0  0  0  0  0  0  0  0  0
   -1.9951   -1.9523   -4.4573 H   0  0  0  0  0  0  0  0  0  0  0  0
   -1.5631   -2.1908   -2.9007 H   0  0  0  0  0  0  0  0  0  0  0  0
   -1.3898   -3.4611   -4.0005 H   0  0  0  0  0  0  0  0  0  0  0  0
    0.0463   -1.8372   -4.1492 C   0  0  0  0  0  0  0  0  0  0  0  0
    0.7248   -2.5406   -3.9633 H   0  0  0  0  0  0  0  0  0  0  0  0
    0.0909   -1.5600   -5.1048 H   0  0  0  0  0  0  0  0  0  0  0  0
    0.3304   -0.6450   -3.2828 N   0  0  0  0  0  4  0  0  0  0  0  0
   -0.3775   -0.5749   -2.5838 H   0  0  0  0  0  0  0  0  0  0  0  0
    1.2223   -0.7609   -2.8519 H   0  0  0  0  0  0  0  0  0  0  0  0
    0.3310    0.1760   -3.8494 H   0  0  0  0  0  0  0  0  0  0  0  0
   -0.0221    2.9160    0.0036 C   0  0  0  0  0  0  0  0  0  0  0  0
    0.6972    3.2288    0.6000 H   0  0  0  0  0  0  0  0  0  0  0  0
   -0.9097    3.2138    0.3095 H   0  0  0  0  0  0  0  0  0  0  0  0
    0.1512    3.3542   -0.9792 H   0  0  0  0  0  0  0  0  0  0  0  0
   -0.0087    1.3975    0.0100 C   0  0  0  0  0  0  0  0  0  0  0  0
   -1.1918    0.6807    0.0047 C   0  0  0  0  0  0  0  0  0  0  0  0
   -2.0657    1.1659    0.0031 H   0  0  0  0  0  0  0  0  0  0  0  0
   -1.1874   -0.7007   -0.0000 C   0  0  0  0  0  0  0  0  0  0  0  0
   -2.0598   -1.2026    0.0105 H   0  0  0  0  0  0  0  0  0  0  0  0
    0.0142   -1.3797   -0.0170 C   0  0  0  0  0  0  0  0  0  0  0  0
    0.0104   -2.3858   -0.0428 H   0  0  0  0  0  0  0  0  0  0  0  0
    1.1874   -0.6892   -0.0000 C   0  0  0  0  0  0  0  0  0  0  0  0
    2.0817   -1.1832    0.0131 H   0  0  0  0  0  0  0  0  0  0  0  0
    1.1863    0.6914    0.0024 C   0  0  0  0  0  0  0  0  0  0  0  0
    2.0535    1.1906   -0.0025 H   0  0  0  0  0  0  0  0  0  0  0  0
  1  5  1  0
  5  8  1  0
  1  2  1  0
  1  3  1  0
  1  4  1  0
  5  6  1  0
  5  7  1  0
  8  9  1  0
  8 10  1  0
  8 11  1  0
 12 16  1  0
 16 17  2  0
 17 19  1  0
 19 21  2  0
 21 23  1  0
 23 25  2  0
 25 16  1  0
 12 13  1  0
 12 14  1  0
 12 15  1  0
 17 18  1  0
 19 20  1  0
 21 22  1  0
 23 24  1  0
 25 26  1  0
M  CHG  1   8   1
M  END
>  <PDB_ID>  (601) 
pdb1iat

>  <RESIDUE_NAME>  (601) 
LYS   PHE

>  <FRAG_NAME>  (601) 
ETAM   MBZ

>  <FRAG_ATOM_NUM>  (601) 
fragi: 11  fragj: 15

>  <atom.prop.CHAIN_ID>  (601) 
A A A A A A A A A A A Z Z Z Z Z Z Z Z Z Z Z Z Z Z Z

>  <atom.prop.IS_HEAVY_ATOM>  (601) 
1 0 0 0 1 0 0 1 0 0 0 1 0 0 0 1 1 0 1 0 1 0 1 0 1 0

>  <DIFUSE_FUNC_ATOM>  (601) 
n/a

>  <FINAL_SINGLE_POINT_ENERGY>  (601) 
0

>  <NONCOV_INTER_ENERGY_QM>  (601) 
0

>  <FF_Energy>  (601) 
-8.32

>  <QM_Energy>  (601) 
-15.43

>  <source>  (601) 
ETAM_MBZ

>  <Index>  (601) 
5900

$$$$
ETAM-pdb1i3r-E-LYS-147:MBZ-pdb1i3r-E-PHE-137
     RDKit          3D

 26 25  0  0  0  0  0  0  0  0999 V2000
   -1.5844   -0.6737   -3.8560 C   0  0  0  0  0  0  0  0  0  0  0  0
   -1.4104   -0.3411   -2.9438 H   0  0  0  0  0  0  0  0  0  0  0  0
   -2.2099   -1.4364   -3.8534 H   0  0  0  0  0  0  0  0  0  0  0  0
   -2.0131    0.1336   -4.4497 H   0  0  0  0  0  0  0  0  0  0  0  0
   -0.2701   -1.1201   -4.4749 C   0  0  0  0  0  0  0  0  0  0  0  0
   -0.4394   -1.3838   -5.4315 H   0  0  0  0  0  0  0  0  0  0  0  0
    0.3680   -0.3417   -4.4686 H   0  0  0  0  0  0  0  0  0  0  0  0
    0.3254   -2.2512   -3.7495 N   0  0  0  0  0  4  0  0  0  0  0  0
    1.3228   -2.2361   -3.8538 H   0  0  0  0  0  0  0  0  0  0  0  0
    0.0968   -2.1892   -2.7752 H   0  0  0  0  0  0  0  0  0  0  0  0
   -0.0288   -3.1148   -4.1150 H   0  0  0  0  0  0  0  0  0  0  0  0
    0.0040    2.9054   -0.0987 C   0  0  0  0  0  0  0  0  0  0  0  0
    0.8445    3.2333    0.2959 H   0  0  0  0  0  0  0  0  0  0  0  0
   -0.7861    3.2423    0.3846 H   0  0  0  0  0  0  0  0  0  0  0  0
   -0.0499    3.2645   -1.1264 H   0  0  0  0  0  0  0  0  0  0  0  0
    0.0009    1.4028   -0.0015 C   0  0  0  0  0  0  0  0  0  0  0  0
   -1.1948    0.6914    0.0029 C   0  0  0  0  0  0  0  0  0  0  0  0
   -2.0617    1.1823    0.0071 H   0  0  0  0  0  0  0  0  0  0  0  0
   -1.1979   -0.6957   -0.0000 C   0  0  0  0  0  0  0  0  0  0  0  0
   -2.0764   -1.1907    0.0019 H   0  0  0  0  0  0  0  0  0  0  0  0
    0.0001   -1.3949   -0.0028 C   0  0  0  0  0  0  0  0  0  0  0  0
   -0.0057   -2.3927   -0.0073 H   0  0  0  0  0  0  0  0  0  0  0  0
    1.1979   -0.6989   -0.0000 C   0  0  0  0  0  0  0  0  0  0  0  0
    2.0811   -1.1935    0.0027 H   0  0  0  0  0  0  0  0  0  0  0  0
    1.1938    0.6953    0.0014 C   0  0  0  0  0  0  0  0  0  0  0  0
    2.0642    1.1890    0.0038 H   0  0  0  0  0  0  0  0  0  0  0  0
  1  5  1  0
  5  8  1  0
  1  2  1  0
  1  3  1  0
  1  4  1  0
  5  6  1  0
  5  7  1  0
  8  9  1  0
  8 10  1  0
  8 11  1  0
 12 16  1  0
 16 17  2  0
 17 19  1  0
 19 21  2  0
 21 23  1  0
 23 25  2  0
 25 16  1  0
 12 13  1  0
 12 14  1  0
 12 15  1  0
 17 18  1  0
 19 20  1  0
 21 22  1  0
 23 24  1  0
 25 26  1  0
M  CHG  1   8   1
M  END
>  <PDB_ID>  (602) 
pdb1i3r

>  <RESIDUE_NAME>  (602) 
LYS   PHE

>  <FRAG_NAME>  (602) 
ETAM   MBZ

>  <FRAG_ATOM_NUM>  (602) 
fragi: 11  fragj: 15

>  <atom.prop.CHAIN_ID>  (602) 
A A A A A A A A A A A Z Z Z Z Z Z Z Z Z Z Z Z Z Z Z

>  <atom.prop.IS_HEAVY_ATOM>  (602) 
1 0 0 0 1 0 0 1 0 0 0 1 0 0 0 1 1 0 1 0 1 0 1 0 1 0

>  <DIFUSE_FUNC_ATOM>  (602) 
n/a

>  <FINAL_SINGLE_POINT_ENERGY>  (602) 
0

>  <NONCOV_INTER_ENERGY_QM>  (602) 
0

>  <FF_Energy>  (602) 
-4.52

>  <QM_Energy>  (602) 
-9.92

>  <source>  (602) 
ETAM_MBZ

>  <Index>  (602) 
5902

$$$$
ETAM-pdb2izp-A-LYS-1265:MBZ-pdb2izp-A-PHE-1061
     RDKit          3D

 26 25  0  0  0  0  0  0  0  0999 V2000
    1.6802   -2.4539    4.0106 C   0  0  0  0  0  0  0  0  0  0  0  0
    0.7068   -2.4855    4.1874 H   0  0  0  0  0  0  0  0  0  0  0  0
    2.1819   -2.9789    4.6838 H   0  0  0  0  0  0  0  0  0  0  0  0
    1.8698   -2.8764    3.0238 H   0  0  0  0  0  0  0  0  0  0  0  0
    2.1442   -1.0054    4.0737 C   0  0  0  0  0  0  0  0  0  0  0  0
    2.3966   -0.7874    5.0162 H   0  0  0  0  0  0  0  0  0  0  0  0
    2.9428   -0.8945    3.4812 H   0  0  0  0  0  0  0  0  0  0  0  0
    1.0685   -0.0822    3.6271 N   0  0  0  0  0  4  0  0  0  0  0  0
    0.1813   -0.4376    3.9226 H   0  0  0  0  0  0  0  0  0  0  0  0
    1.2171    0.8210    4.0288 H   0  0  0  0  0  0  0  0  0  0  0  0
    1.0848   -0.0099    2.6298 H   0  0  0  0  0  0  0  0  0  0  0  0
   -0.0000    2.9092   -0.0021 C   0  0  0  0  0  0  0  0  0  0  0  0
   -0.8390    3.2066   -0.4345 H   0  0  0  0  0  0  0  0  0  0  0  0
    0.7918    3.2083   -0.5141 H   0  0  0  0  0  0  0  0  0  0  0  0
    0.0481    3.3599    0.9892 H   0  0  0  0  0  0  0  0  0  0  0  0
    0.0016    1.3926    0.0014 C   0  0  0  0  0  0  0  0  0  0  0  0
   -1.1879    0.6884    0.0019 C   0  0  0  0  0  0  0  0  0  0  0  0
   -2.0569    1.1829    0.0020 H   0  0  0  0  0  0  0  0  0  0  0  0
   -1.1952   -0.6909   -0.0000 C   0  0  0  0  0  0  0  0  0  0  0  0
   -2.0741   -1.1863    0.0018 H   0  0  0  0  0  0  0  0  0  0  0  0
   -0.0024   -1.3822   -0.0024 C   0  0  0  0  0  0  0  0  0  0  0  0
   -0.0073   -2.3854   -0.0060 H   0  0  0  0  0  0  0  0  0  0  0  0
    1.1952   -0.6941   -0.0000 C   0  0  0  0  0  0  0  0  0  0  0  0
    2.0754   -1.1949    0.0044 H   0  0  0  0  0  0  0  0  0  0  0  0
    1.1888    0.6861   -0.0010 C   0  0  0  0  0  0  0  0  0  0  0  0
    2.0609    1.1851   -0.0048 H   0  0  0  0  0  0  0  0  0  0  0  0
  1  5  1  0
  5  8  1  0
  1  2  1  0
  1  3  1  0
  1  4  1  0
  5  6  1  0
  5  7  1  0
  8  9  1  0
  8 10  1  0
  8 11  1  0
 12 16  1  0
 16 17  2  0
 17 19  1  0
 19 21  2  0
 21 23  1  0
 23 25  2  0
 25 16  1  0
 12 13  1  0
 12 14  1  0
 12 15  1  0
 17 18  1  0
 19 20  1  0
 21 22  1  0
 23 24  1  0
 25 26  1  0
M  CHG  1   8   1
M  END
>  <PDB_ID>  (603) 
pdb2izp

>  <RESIDUE_NAME>  (603) 
LYS   PHE

>  <FRAG_NAME>  (603) 
ETAM   MBZ

>  <FRAG_ATOM_NUM>  (603) 
fragi: 11  fragj: 15

>  <atom.prop.CHAIN_ID>  (603) 
A A A A A A A A A A A Z Z Z Z Z Z Z Z Z Z Z Z Z Z Z

>  <atom.prop.IS_HEAVY_ATOM>  (603) 
1 0 0 0 1 0 0 1 0 0 0 1 0 0 0 1 1 0 1 0 1 0 1 0 1 0

>  <DIFUSE_FUNC_ATOM>  (603) 
n/a

>  <FINAL_SINGLE_POINT_ENERGY>  (603) 
0

>  <NONCOV_INTER_ENERGY_QM>  (603) 
0

>  <FF_Energy>  (603) 
-6.99

>  <QM_Energy>  (603) 
-12.99

>  <source>  (603) 
ETAM_MBZ

>  <Index>  (603) 
5909

$$$$
ETAM-pdb2ix2-C-LYS-250:MBZ-pdb2ix2-C-PHE-242
     RDKit          3D

 26 25  0  0  0  0  0  0  0  0999 V2000
   -1.5444   -4.6128    1.0185 C   0  0  0  0  0  0  0  0  0  0  0  0
   -1.0656   -3.7323    1.0614 H   0  0  0  0  0  0  0  0  0  0  0  0
   -1.6941   -4.9480    1.9516 H   0  0  0  0  0  0  0  0  0  0  0  0
   -2.5033   -4.4836    0.5165 H   0  0  0  0  0  0  0  0  0  0  0  0
   -0.6066   -5.6169    0.3103 C   0  0  0  0  0  0  0  0  0  0  0  0
   -0.2136   -6.2247    0.9991 H   0  0  0  0  0  0  0  0  0  0  0  0
   -1.1460   -6.1522   -0.3392 H   0  0  0  0  0  0  0  0  0  0  0  0
    0.5053   -4.9213   -0.4265 N   0  0  0  0  0  4  0  0  0  0  0  0
    1.3319   -4.9556    0.1289 H   0  0  0  0  0  0  0  0  0  0  0  0
    0.6582   -5.3865   -1.2951 H   0  0  0  0  0  0  0  0  0  0  0  0
    0.2425   -3.9736   -0.5886 H   0  0  0  0  0  0  0  0  0  0  0  0
   -0.0050    2.9060    0.0320 C   0  0  0  0  0  0  0  0  0  0  0  0
   -0.4865    3.2205   -0.7683 H   0  0  0  0  0  0  0  0  0  0  0  0
    0.9309    3.2144    0.0414 H   0  0  0  0  0  0  0  0  0  0  0  0
   -0.5036    3.3203    0.9083 H   0  0  0  0  0  0  0  0  0  0  0  0
    0.0032    1.3961    0.0058 C   0  0  0  0  0  0  0  0  0  0  0  0
   -1.1887    0.6829   -0.0079 C   0  0  0  0  0  0  0  0  0  0  0  0
   -2.0576    1.1807   -0.0255 H   0  0  0  0  0  0  0  0  0  0  0  0
   -1.2001   -0.6956   -0.0000 C   0  0  0  0  0  0  0  0  0  0  0  0
   -2.0793   -1.1891    0.0127 H   0  0  0  0  0  0  0  0  0  0  0  0
   -0.0072   -1.3918   -0.0072 C   0  0  0  0  0  0  0  0  0  0  0  0
   -0.0036   -2.3882   -0.0180 H   0  0  0  0  0  0  0  0  0  0  0  0
    1.2001   -0.6891    0.0000 C   0  0  0  0  0  0  0  0  0  0  0  0
    2.0785   -1.1897   -0.0001 H   0  0  0  0  0  0  0  0  0  0  0  0
    1.1927    0.6975    0.0094 C   0  0  0  0  0  0  0  0  0  0  0  0
    2.0629    1.1949    0.0184 H   0  0  0  0  0  0  0  0  0  0  0  0
  1  5  1  0
  5  8  1  0
  1  2  1  0
  1  3  1  0
  1  4  1  0
  5  6  1  0
  5  7  1  0
  8  9  1  0
  8 10  1  0
  8 11  1  0
 12 16  1  0
 16 17  2  0
 17 19  1  0
 19 21  2  0
 21 23  1  0
 23 25  2  0
 25 16  1  0
 12 13  1  0
 12 14  1  0
 12 15  1  0
 17 18  1  0
 19 20  1  0
 21 22  1  0
 23 24  1  0
 25 26  1  0
M  CHG  1   8   1
M  END
>  <PDB_ID>  (604) 
pdb2ix2

>  <RESIDUE_NAME>  (604) 
LYS   PHE

>  <FRAG_NAME>  (604) 
ETAM   MBZ

>  <FRAG_ATOM_NUM>  (604) 
fragi: 11  fragj: 15

>  <atom.prop.CHAIN_ID>  (604) 
A A A A A A A A A A A Z Z Z Z Z Z Z Z Z Z Z Z Z Z Z

>  <atom.prop.IS_HEAVY_ATOM>  (604) 
1 0 0 0 1 0 0 1 0 0 0 1 0 0 0 1 1 0 1 0 1 0 1 0 1 0

>  <DIFUSE_FUNC_ATOM>  (604) 
n/a

>  <FINAL_SINGLE_POINT_ENERGY>  (604) 
0

>  <NONCOV_INTER_ENERGY_QM>  (604) 
0

>  <FF_Energy>  (604) 
2.54

>  <QM_Energy>  (604) 
-2.77

>  <source>  (604) 
ETAM_MBZ

>  <Index>  (604) 
5919

$$$$
ETAM-pdb2j1o-A-LYS-186:MBZ-pdb2j1o-A-PHE-272
     RDKit          3D

 26 25  0  0  0  0  0  0  0  0999 V2000
    0.9310   -5.3684   -2.2299 C   0  0  0  0  0  0  0  0  0  0  0  0
    1.2383   -4.4296   -2.3442 H   0  0  0  0  0  0  0  0  0  0  0  0
    0.6186   -5.7407   -3.0964 H   0  0  0  0  0  0  0  0  0  0  0  0
    1.7827   -5.9617   -1.8970 H   0  0  0  0  0  0  0  0  0  0  0  0
   -0.2287   -5.3937   -1.2309 C   0  0  0  0  0  0  0  0  0  0  0  0
   -0.7229   -6.2465   -1.3244 H   0  0  0  0  0  0  0  0  0  0  0  0
    0.1266   -5.2875   -0.3128 H   0  0  0  0  0  0  0  0  0  0  0  0
   -1.1814   -4.2442   -1.5209 N   0  0  0  0  0  4  0  0  0  0  0  0
   -0.6757   -3.5255   -1.9855 H   0  0  0  0  0  0  0  0  0  0  0  0
   -1.9155   -4.5817   -2.1004 H   0  0  0  0  0  0  0  0  0  0  0  0
   -1.5448   -3.9108   -0.6576 H   0  0  0  0  0  0  0  0  0  0  0  0
    0.0119    2.9131   -0.0075 C   0  0  0  0  0  0  0  0  0  0  0  0
   -0.2353    3.2080   -0.9204 H   0  0  0  0  0  0  0  0  0  0  0  0
    0.9259    3.2180    0.2278 H   0  0  0  0  0  0  0  0  0  0  0  0
   -0.6819    3.3827    0.6899 H   0  0  0  0  0  0  0  0  0  0  0  0
    0.0015    1.4095    0.0154 C   0  0  0  0  0  0  0  0  0  0  0  0
   -1.1959    0.7038   -0.0156 C   0  0  0  0  0  0  0  0  0  0  0  0
   -2.0611    1.1869   -0.0504 H   0  0  0  0  0  0  0  0  0  0  0  0
   -1.1975   -0.6989   -0.0000 C   0  0  0  0  0  0  0  0  0  0  0  0
   -2.0814   -1.1844    0.0182 H   0  0  0  0  0  0  0  0  0  0  0  0
   -0.0062   -1.4018   -0.0085 C   0  0  0  0  0  0  0  0  0  0  0  0
   -0.0131   -2.3994   -0.0208 H   0  0  0  0  0  0  0  0  0  0  0  0
    1.1975   -0.7095    0.0000 C   0  0  0  0  0  0  0  0  0  0  0  0
    2.0789   -1.2041    0.0015 H   0  0  0  0  0  0  0  0  0  0  0  0
    1.2007    0.6968    0.0087 C   0  0  0  0  0  0  0  0  0  0  0  0
    2.0687    1.1829    0.0095 H   0  0  0  0  0  0  0  0  0  0  0  0
  1  5  1  0
  5  8  1  0
  1  2  1  0
  1  3  1  0
  1  4  1  0
  5  6  1  0
  5  7  1  0
  8  9  1  0
  8 10  1  0
  8 11  1  0
 12 16  1  0
 16 17  2  0
 17 19  1  0
 19 21  2  0
 21 23  1  0
 23 25  2  0
 25 16  1  0
 12 13  1  0
 12 14  1  0
 12 15  1  0
 17 18  1  0
 19 20  1  0
 21 22  1  0
 23 24  1  0
 25 26  1  0
M  CHG  1   8   1
M  END
>  <PDB_ID>  (605) 
pdb2j1o

>  <RESIDUE_NAME>  (605) 
LYS   PHE

>  <FRAG_NAME>  (605) 
ETAM   MBZ

>  <FRAG_ATOM_NUM>  (605) 
fragi: 11  fragj: 15

>  <atom.prop.CHAIN_ID>  (605) 
A A A A A A A A A A A Z Z Z Z Z Z Z Z Z Z Z Z Z Z Z

>  <atom.prop.IS_HEAVY_ATOM>  (605) 
1 0 0 0 1 0 0 1 0 0 0 1 0 0 0 1 1 0 1 0 1 0 1 0 1 0

>  <DIFUSE_FUNC_ATOM>  (605) 
n/a

>  <FINAL_SINGLE_POINT_ENERGY>  (605) 
0

>  <NONCOV_INTER_ENERGY_QM>  (605) 
0

>  <FF_Energy>  (605) 
0.64

>  <QM_Energy>  (605) 
-5.06

>  <source>  (605) 
ETAM_MBZ

>  <Index>  (605) 
5924

$$$$
ETAM-pdb1id2-B-LYS-59:MBZ-pdb1id2-B-PHE-92
     RDKit          3D

 26 25  0  0  0  0  0  0  0  0999 V2000
   -3.1678   -1.4501    3.5032 C   0  0  0  0  0  0  0  0  0  0  0  0
   -3.3683   -0.6670    2.9257 H   0  0  0  0  0  0  0  0  0  0  0  0
   -3.8764   -1.5694    4.1887 H   0  0  0  0  0  0  0  0  0  0  0  0
   -3.1241   -2.3445    2.8817 H   0  0  0  0  0  0  0  0  0  0  0  0
   -1.8311   -1.1786    4.2350 C   0  0  0  0  0  0  0  0  0  0  0  0
   -2.0346   -0.6631    5.0841 H   0  0  0  0  0  0  0  0  0  0  0  0
   -1.4351   -2.0701    4.5119 H   0  0  0  0  0  0  0  0  0  0  0  0
   -0.8067   -0.4180    3.4379 N   0  0  0  0  0  4  0  0  0  0  0  0
    0.0784   -0.8658    3.5370 H   0  0  0  0  0  0  0  0  0  0  0  0
   -1.0807   -0.4134    2.4794 H   0  0  0  0  0  0  0  0  0  0  0  0
   -0.7570    0.5164    3.7826 H   0  0  0  0  0  0  0  0  0  0  0  0
    0.0036    2.8868   -0.0354 C   0  0  0  0  0  0  0  0  0  0  0  0
    0.9100    3.2013    0.2018 H   0  0  0  0  0  0  0  0  0  0  0  0
   -0.6704    3.2124    0.6109 H   0  0  0  0  0  0  0  0  0  0  0  0
   -0.2460    3.3024   -1.0118 H   0  0  0  0  0  0  0  0  0  0  0  0
    0.0022    1.3929   -0.0011 C   0  0  0  0  0  0  0  0  0  0  0  0
   -1.1933    0.6904   -0.0032 C   0  0  0  0  0  0  0  0  0  0  0  0
   -2.0581    1.1888   -0.0085 H   0  0  0  0  0  0  0  0  0  0  0  0
   -1.1991   -0.6831    0.0000 C   0  0  0  0  0  0  0  0  0  0  0  0
   -2.0794   -1.1826    0.0015 H   0  0  0  0  0  0  0  0  0  0  0  0
   -0.0048   -1.3891    0.0034 C   0  0  0  0  0  0  0  0  0  0  0  0
   -0.0152   -2.3864    0.0073 H   0  0  0  0  0  0  0  0  0  0  0  0
    1.1991   -0.6985   -0.0000 C   0  0  0  0  0  0  0  0  0  0  0  0
    2.0767   -1.2001   -0.0016 H   0  0  0  0  0  0  0  0  0  0  0  0
    1.1958    0.6874    0.0009 C   0  0  0  0  0  0  0  0  0  0  0  0
    2.0649    1.1845    0.0024 H   0  0  0  0  0  0  0  0  0  0  0  0
  1  5  1  0
  5  8  1  0
  1  2  1  0
  1  3  1  0
  1  4  1  0
  5  6  1  0
  5  7  1  0
  8  9  1  0
  8 10  1  0
  8 11  1  0
 12 16  1  0
 16 17  2  0
 17 19  1  0
 19 21  2  0
 21 23  1  0
 23 25  2  0
 25 16  1  0
 12 13  1  0
 12 14  1  0
 12 15  1  0
 17 18  1  0
 19 20  1  0
 21 22  1  0
 23 24  1  0
 25 26  1  0
M  CHG  1   8   1
M  END
>  <PDB_ID>  (606) 
pdb1id2

>  <RESIDUE_NAME>  (606) 
LYS   PHE

>  <FRAG_NAME>  (606) 
ETAM   MBZ

>  <FRAG_ATOM_NUM>  (606) 
fragi: 11  fragj: 15

>  <atom.prop.CHAIN_ID>  (606) 
A A A A A A A A A A A Z Z Z Z Z Z Z Z Z Z Z Z Z Z Z

>  <atom.prop.IS_HEAVY_ATOM>  (606) 
1 0 0 0 1 0 0 1 0 0 0 1 0 0 0 1 1 0 1 0 1 0 1 0 1 0

>  <DIFUSE_FUNC_ATOM>  (606) 
n/a

>  <FINAL_SINGLE_POINT_ENERGY>  (606) 
0

>  <NONCOV_INTER_ENERGY_QM>  (606) 
0

>  <FF_Energy>  (606) 
-7.71

>  <QM_Energy>  (606) 
-14.29

>  <source>  (606) 
ETAM_MBZ

>  <Index>  (606) 
5926

$$$$
ETAM-pdb2iuk-A-LYS-478:MBZ-pdb2iuk-A-PHE-740
     RDKit          3D

 26 25  0  0  0  0  0  0  0  0999 V2000
   -1.8382   -2.2737    2.8036 C   0  0  0  0  0  0  0  0  0  0  0  0
   -1.2364   -3.0593    2.9168 H   0  0  0  0  0  0  0  0  0  0  0  0
   -1.7170   -1.8739    1.8999 H   0  0  0  0  0  0  0  0  0  0  0  0
   -2.8725   -2.5994    2.9137 H   0  0  0  0  0  0  0  0  0  0  0  0
   -1.4674   -1.2283    3.8460 C   0  0  0  0  0  0  0  0  0  0  0  0
   -2.0164   -0.4191    3.6840 H   0  0  0  0  0  0  0  0  0  0  0  0
   -1.6518   -1.6057    4.7446 H   0  0  0  0  0  0  0  0  0  0  0  0
   -0.0712   -0.9435    3.6858 N   0  0  0  0  0  4  0  0  0  0  0  0
    0.0634   -0.0392    3.2587 H   0  0  0  0  0  0  0  0  0  0  0  0
    0.3989   -0.9415    4.5785 H   0  0  0  0  0  0  0  0  0  0  0  0
    0.3714   -1.6363    3.1004 H   0  0  0  0  0  0  0  0  0  0  0  0
   -0.0134    2.8960   -0.0793 C   0  0  0  0  0  0  0  0  0  0  0  0
    0.9184    3.1946   -0.1631 H   0  0  0  0  0  0  0  0  0  0  0  0
   -0.4428    3.2294    0.7388 H   0  0  0  0  0  0  0  0  0  0  0  0
   -0.5748    3.2554   -0.9416 H   0  0  0  0  0  0  0  0  0  0  0  0
   -0.0014    1.3831   -0.0020 C   0  0  0  0  0  0  0  0  0  0  0  0
   -1.2013    0.6856    0.0031 C   0  0  0  0  0  0  0  0  0  0  0  0
   -2.0622    1.1790    0.0078 H   0  0  0  0  0  0  0  0  0  0  0  0
   -1.1985   -0.6942    0.0000 C   0  0  0  0  0  0  0  0  0  0  0  0
   -2.0763   -1.1946    0.0011 H   0  0  0  0  0  0  0  0  0  0  0  0
   -0.0021   -1.3878   -0.0027 C   0  0  0  0  0  0  0  0  0  0  0  0
   -0.0012   -2.3857   -0.0067 H   0  0  0  0  0  0  0  0  0  0  0  0
    1.1985   -0.6877    0.0000 C   0  0  0  0  0  0  0  0  0  0  0  0
    2.0815   -1.1917    0.0025 H   0  0  0  0  0  0  0  0  0  0  0  0
    1.2047    0.7010    0.0015 C   0  0  0  0  0  0  0  0  0  0  0  0
    2.0618    1.1962    0.0039 H   0  0  0  0  0  0  0  0  0  0  0  0
  1  5  1  0
  5  8  1  0
  1  2  1  0
  1  3  1  0
  1  4  1  0
  5  6  1  0
  5  7  1  0
  8  9  1  0
  8 10  1  0
  8 11  1  0
 12 16  1  0
 16 17  2  0
 17 19  1  0
 19 21  2  0
 21 23  1  0
 23 25  2  0
 25 16  1  0
 12 13  1  0
 12 14  1  0
 12 15  1  0
 17 18  1  0
 19 20  1  0
 21 22  1  0
 23 24  1  0
 25 26  1  0
M  CHG  1   8   1
M  END
>  <PDB_ID>  (607) 
pdb2iuk

>  <RESIDUE_NAME>  (607) 
LYS   PHE

>  <FRAG_NAME>  (607) 
ETAM   MBZ

>  <FRAG_ATOM_NUM>  (607) 
fragi: 11  fragj: 15

>  <atom.prop.CHAIN_ID>  (607) 
A A A A A A A A A A A Z Z Z Z Z Z Z Z Z Z Z Z Z Z Z

>  <atom.prop.IS_HEAVY_ATOM>  (607) 
1 0 0 0 1 0 0 1 0 0 0 1 0 0 0 1 1 0 1 0 1 0 1 0 1 0

>  <DIFUSE_FUNC_ATOM>  (607) 
n/a

>  <FINAL_SINGLE_POINT_ENERGY>  (607) 
0

>  <NONCOV_INTER_ENERGY_QM>  (607) 
0

>  <FF_Energy>  (607) 
-2.61

>  <QM_Energy>  (607) 
-9.83

>  <source>  (607) 
ETAM_MBZ

>  <Index>  (607) 
5934

$$$$
ETAM-pdb1iby-C-LYS-87:MBZ-pdb1iby-C-PHE-67
     RDKit          3D

 26 25  0  0  0  0  0  0  0  0999 V2000
    3.3322   -2.1625    4.0689 C   0  0  0  0  0  0  0  0  0  0  0  0
    2.7675   -2.7119    4.6757 H   0  0  0  0  0  0  0  0  0  0  0  0
    4.1542   -1.8609    4.5406 H   0  0  0  0  0  0  0  0  0  0  0  0
    3.6203   -2.7697    3.2106 H   0  0  0  0  0  0  0  0  0  0  0  0
    2.5382   -0.9360    3.6448 C   0  0  0  0  0  0  0  0  0  0  0  0
    1.7272   -1.2332    3.1368 H   0  0  0  0  0  0  0  0  0  0  0  0
    2.2458   -0.4376    4.4642 H   0  0  0  0  0  0  0  0  0  0  0  0
    3.3483   -0.0265    2.7834 N   0  0  0  0  0  4  0  0  0  0  0  0
    3.9061   -0.5724    2.1599 H   0  0  0  0  0  0  0  0  0  0  0  0
    2.7360    0.5621    2.2577 H   0  0  0  0  0  0  0  0  0  0  0  0
    3.9408    0.5342    3.3608 H   0  0  0  0  0  0  0  0  0  0  0  0
    0.0098    2.8944    0.0944 C   0  0  0  0  0  0  0  0  0  0  0  0
   -0.8871    3.2244   -0.1500 H   0  0  0  0  0  0  0  0  0  0  0  0
    0.7039    3.2372   -0.5165 H   0  0  0  0  0  0  0  0  0  0  0  0
    0.2380    3.2566    1.0968 H   0  0  0  0  0  0  0  0  0  0  0  0
    0.0003    1.4021    0.0007 C   0  0  0  0  0  0  0  0  0  0  0  0
   -1.1970    0.6948   -0.0009 C   0  0  0  0  0  0  0  0  0  0  0  0
   -2.0630    1.1849   -0.0045 H   0  0  0  0  0  0  0  0  0  0  0  0
   -1.2023   -0.6967   -0.0000 C   0  0  0  0  0  0  0  0  0  0  0  0
   -2.0787   -1.1898    0.0006 H   0  0  0  0  0  0  0  0  0  0  0  0
   -0.0000   -1.3958    0.0017 C   0  0  0  0  0  0  0  0  0  0  0  0
   -0.0048   -2.3935    0.0042 H   0  0  0  0  0  0  0  0  0  0  0  0
    1.2023   -0.6990    0.0000 C   0  0  0  0  0  0  0  0  0  0  0  0
    2.0831   -1.1956    0.0016 H   0  0  0  0  0  0  0  0  0  0  0  0
    1.1967    0.6946   -0.0015 C   0  0  0  0  0  0  0  0  0  0  0  0
    2.0652    1.1900   -0.0057 H   0  0  0  0  0  0  0  0  0  0  0  0
  1  5  1  0
  5  8  1  0
  1  2  1  0
  1  3  1  0
  1  4  1  0
  5  6  1  0
  5  7  1  0
  8  9  1  0
  8 10  1  0
  8 11  1  0
 12 16  1  0
 16 17  2  0
 17 19  1  0
 19 21  2  0
 21 23  1  0
 23 25  2  0
 25 16  1  0
 12 13  1  0
 12 14  1  0
 12 15  1  0
 17 18  1  0
 19 20  1  0
 21 22  1  0
 23 24  1  0
 25 26  1  0
M  CHG  1   8   1
M  END
>  <PDB_ID>  (608) 
pdb1iby

>  <RESIDUE_NAME>  (608) 
LYS   PHE

>  <FRAG_NAME>  (608) 
ETAM   MBZ

>  <FRAG_ATOM_NUM>  (608) 
fragi: 11  fragj: 15

>  <atom.prop.CHAIN_ID>  (608) 
A A A A A A A A A A A Z Z Z Z Z Z Z Z Z Z Z Z Z Z Z

>  <atom.prop.IS_HEAVY_ATOM>  (608) 
1 0 0 0 1 0 0 1 0 0 0 1 0 0 0 1 1 0 1 0 1 0 1 0 1 0

>  <DIFUSE_FUNC_ATOM>  (608) 
n/a

>  <FINAL_SINGLE_POINT_ENERGY>  (608) 
0

>  <NONCOV_INTER_ENERGY_QM>  (608) 
0

>  <FF_Energy>  (608) 
-2.81

>  <QM_Energy>  (608) 
-8.58

>  <source>  (608) 
ETAM_MBZ

>  <Index>  (608) 
5951

$$$$
ETAM-pdb1iea-A-LYS-74:MBZ-pdb1iea-B-PHE-7
     RDKit          3D

 26 25  0  0  0  0  0  0  0  0999 V2000
    0.3259    2.0586    3.6335 C   0  0  0  0  0  0  0  0  0  0  0  0
    0.7765    2.5339    2.8881 H   0  0  0  0  0  0  0  0  0  0  0  0
    0.6377    2.4022    4.5106 H   0  0  0  0  0  0  0  0  0  0  0  0
   -0.7489    2.2218    3.5543 H   0  0  0  0  0  0  0  0  0  0  0  0
    0.6537    0.5815    3.5415 C   0  0  0  0  0  0  0  0  0  0  0  0
    0.1155    0.0861    4.2406 H   0  0  0  0  0  0  0  0  0  0  0  0
    0.3639    0.2409    2.6348 H   0  0  0  0  0  0  0  0  0  0  0  0
    2.0881    0.2902    3.7347 N   0  0  0  0  0  4  0  0  0  0  0  0
    2.4952    0.0062    2.8646 H   0  0  0  0  0  0  0  0  0  0  0  0
    2.5574    1.1108    4.0667 H   0  0  0  0  0  0  0  0  0  0  0  0
    2.1960   -0.4460    4.4050 H   0  0  0  0  0  0  0  0  0  0  0  0
    0.0005    2.9063   -0.1323 C   0  0  0  0  0  0  0  0  0  0  0  0
    0.8753    3.2446    0.1672 H   0  0  0  0  0  0  0  0  0  0  0  0
   -0.7388    3.2639    0.4123 H   0  0  0  0  0  0  0  0  0  0  0  0
   -0.1505    3.2479   -1.1562 H   0  0  0  0  0  0  0  0  0  0  0  0
    0.0021    1.4101   -0.0020 C   0  0  0  0  0  0  0  0  0  0  0  0
   -1.1940    0.6989    0.0036 C   0  0  0  0  0  0  0  0  0  0  0  0
   -2.0613    1.1888    0.0091 H   0  0  0  0  0  0  0  0  0  0  0  0
   -1.2011   -0.6949   -0.0000 C   0  0  0  0  0  0  0  0  0  0  0  0
   -2.0844   -1.1828    0.0020 H   0  0  0  0  0  0  0  0  0  0  0  0
   -0.0077   -1.4036   -0.0046 C   0  0  0  0  0  0  0  0  0  0  0  0
   -0.0174   -2.3997   -0.0122 H   0  0  0  0  0  0  0  0  0  0  0  0
    1.2011   -0.7115   -0.0000 C   0  0  0  0  0  0  0  0  0  0  0  0
    2.0795   -1.2030    0.0023 H   0  0  0  0  0  0  0  0  0  0  0  0
    1.1995    0.7011    0.0030 C   0  0  0  0  0  0  0  0  0  0  0  0
    2.0691    1.1861    0.0080 H   0  0  0  0  0  0  0  0  0  0  0  0
  1  5  1  0
  5  8  1  0
  1  2  1  0
  1  3  1  0
  1  4  1  0
  5  6  1  0
  5  7  1  0
  8  9  1  0
  8 10  1  0
  8 11  1  0
 12 16  1  0
 16 17  2  0
 17 19  1  0
 19 21  2  0
 21 23  1  0
 23 25  2  0
 25 16  1  0
 12 13  1  0
 12 14  1  0
 12 15  1  0
 17 18  1  0
 19 20  1  0
 21 22  1  0
 23 24  1  0
 25 26  1  0
M  CHG  1   8   1
M  END
>  <PDB_ID>  (609) 
pdb1iea

>  <RESIDUE_NAME>  (609) 
LYS   PHE

>  <FRAG_NAME>  (609) 
ETAM   MBZ

>  <FRAG_ATOM_NUM>  (609) 
fragi: 11  fragj: 15

>  <atom.prop.CHAIN_ID>  (609) 
A A A A A A A A A A A Z Z Z Z Z Z Z Z Z Z Z Z Z Z Z

>  <atom.prop.IS_HEAVY_ATOM>  (609) 
1 0 0 0 1 0 0 1 0 0 0 1 0 0 0 1 1 0 1 0 1 0 1 0 1 0

>  <DIFUSE_FUNC_ATOM>  (609) 
n/a

>  <FINAL_SINGLE_POINT_ENERGY>  (609) 
0

>  <NONCOV_INTER_ENERGY_QM>  (609) 
0

>  <FF_Energy>  (609) 
-5.81

>  <QM_Energy>  (609) 
-11.39

>  <source>  (609) 
ETAM_MBZ

>  <Index>  (609) 
5952

$$$$
ETAM-pdb1ig3-B-LYS-100:MBZ-pdb1ig3-B-PHE-92
     RDKit          3D

 26 25  0  0  0  0  0  0  0  0999 V2000
   -0.1141    1.1984   -4.2138 C   0  0  0  0  0  0  0  0  0  0  0  0
    0.3638    1.7642   -3.5506 H   0  0  0  0  0  0  0  0  0  0  0  0
   -0.7167    1.7546   -4.7761 H   0  0  0  0  0  0  0  0  0  0  0  0
    0.6199    0.7124   -4.8564 H   0  0  0  0  0  0  0  0  0  0  0  0
   -0.9545    0.1776   -3.4654 C   0  0  0  0  0  0  0  0  0  0  0  0
   -1.3582   -0.4592   -4.1242 H   0  0  0  0  0  0  0  0  0  0  0  0
   -0.3657   -0.3304   -2.8343 H   0  0  0  0  0  0  0  0  0  0  0  0
   -2.0473    0.8360   -2.6902 N   0  0  0  0  0  4  0  0  0  0  0  0
   -1.8130    0.8278   -1.7196 H   0  0  0  0  0  0  0  0  0  0  0  0
   -2.1515    1.7789   -3.0028 H   0  0  0  0  0  0  0  0  0  0  0  0
   -2.9000    0.3374   -2.8352 H   0  0  0  0  0  0  0  0  0  0  0  0
   -0.0212    2.9102   -0.0327 C   0  0  0  0  0  0  0  0  0  0  0  0
   -0.6953    3.2223    0.6174 H   0  0  0  0  0  0  0  0  0  0  0  0
   -0.2449    3.1918   -0.9518 H   0  0  0  0  0  0  0  0  0  0  0  0
    0.9374    3.3554    0.2337 H   0  0  0  0  0  0  0  0  0  0  0  0
   -0.0087    1.4060   -0.0006 C   0  0  0  0  0  0  0  0  0  0  0  0
   -1.2021    0.6858    0.0014 C   0  0  0  0  0  0  0  0  0  0  0  0
   -2.0727    1.1729    0.0026 H   0  0  0  0  0  0  0  0  0  0  0  0
   -1.2028   -0.7062   -0.0000 C   0  0  0  0  0  0  0  0  0  0  0  0
   -2.0719   -1.2045    0.0020 H   0  0  0  0  0  0  0  0  0  0  0  0
    0.0095   -1.3899   -0.0022 C   0  0  0  0  0  0  0  0  0  0  0  0
    0.0084   -2.3928   -0.0055 H   0  0  0  0  0  0  0  0  0  0  0  0
    1.2028   -0.6938   -0.0000 C   0  0  0  0  0  0  0  0  0  0  0  0
    2.0882   -1.1890    0.0023 H   0  0  0  0  0  0  0  0  0  0  0  0
    1.2013    0.6981    0.0014 C   0  0  0  0  0  0  0  0  0  0  0  0
    2.0618    1.1979    0.0031 H   0  0  0  0  0  0  0  0  0  0  0  0
  1  5  1  0
  5  8  1  0
  1  2  1  0
  1  3  1  0
  1  4  1  0
  5  6  1  0
  5  7  1  0
  8  9  1  0
  8 10  1  0
  8 11  1  0
 12 16  1  0
 16 17  2  0
 17 19  1  0
 19 21  2  0
 21 23  1  0
 23 25  2  0
 25 16  1  0
 12 13  1  0
 12 14  1  0
 12 15  1  0
 17 18  1  0
 19 20  1  0
 21 22  1  0
 23 24  1  0
 25 26  1  0
M  CHG  1   8   1
M  END
>  <PDB_ID>  (610) 
pdb1ig3

>  <RESIDUE_NAME>  (610) 
LYS   PHE

>  <FRAG_NAME>  (610) 
ETAM   MBZ

>  <FRAG_ATOM_NUM>  (610) 
fragi: 11  fragj: 15

>  <atom.prop.CHAIN_ID>  (610) 
A A A A A A A A A A A Z Z Z Z Z Z Z Z Z Z Z Z Z Z Z

>  <atom.prop.IS_HEAVY_ATOM>  (610) 
1 0 0 0 1 0 0 1 0 0 0 1 0 0 0 1 1 0 1 0 1 0 1 0 1 0

>  <DIFUSE_FUNC_ATOM>  (610) 
n/a

>  <FINAL_SINGLE_POINT_ENERGY>  (610) 
0

>  <NONCOV_INTER_ENERGY_QM>  (610) 
0

>  <FF_Energy>  (610) 
-3.48

>  <QM_Energy>  (610) 
-11.8

>  <source>  (610) 
ETAM_MBZ

>  <Index>  (610) 
5957

$$$$
ETAM-pdb1igo-A-LYS-164:MBZ-pdb1igo-A-PHE-114
     RDKit          3D

 26 25  0  0  0  0  0  0  0  0999 V2000
   -1.0468   -2.0624   -3.2206 C   0  0  0  0  0  0  0  0  0  0  0  0
   -1.0631   -2.3338   -4.1809 H   0  0  0  0  0  0  0  0  0  0  0  0
   -0.2185   -2.4108   -2.7859 H   0  0  0  0  0  0  0  0  0  0  0  0
   -1.0367   -0.9738   -3.1667 H   0  0  0  0  0  0  0  0  0  0  0  0
   -2.2527   -2.6678   -2.5237 C   0  0  0  0  0  0  0  0  0  0  0  0
   -2.2634   -2.3685   -1.5712 H   0  0  0  0  0  0  0  0  0  0  0  0
   -3.0843   -2.3586   -2.9826 H   0  0  0  0  0  0  0  0  0  0  0  0
   -2.1917   -4.1545   -2.5699 N   0  0  0  0  0  4  0  0  0  0  0  0
   -1.4309   -4.4725   -2.0043 H   0  0  0  0  0  0  0  0  0  0  0  0
   -3.0490   -4.5321   -2.2216 H   0  0  0  0  0  0  0  0  0  0  0  0
   -2.0543   -4.4509   -3.5144 H   0  0  0  0  0  0  0  0  0  0  0  0
    0.0283    2.8967   -0.0900 C   0  0  0  0  0  0  0  0  0  0  0  0
   -0.2140    3.1558   -1.0186 H   0  0  0  0  0  0  0  0  0  0  0  0
    0.9499    3.2015    0.1261 H   0  0  0  0  0  0  0  0  0  0  0  0
   -0.6547    3.4140    0.5838 H   0  0  0  0  0  0  0  0  0  0  0  0
    0.0003    1.4003   -0.0014 C   0  0  0  0  0  0  0  0  0  0  0  0
   -1.1994    0.7007    0.0011 C   0  0  0  0  0  0  0  0  0  0  0  0
   -2.0637    1.1911    0.0020 H   0  0  0  0  0  0  0  0  0  0  0  0
   -1.2064   -0.6939   -0.0000 C   0  0  0  0  0  0  0  0  0  0  0  0
   -2.0805   -1.1872    0.0012 H   0  0  0  0  0  0  0  0  0  0  0  0
    0.0024   -1.3968   -0.0015 C   0  0  0  0  0  0  0  0  0  0  0  0
   -0.0037   -2.3921   -0.0042 H   0  0  0  0  0  0  0  0  0  0  0  0
    1.2064   -0.6963    0.0000 C   0  0  0  0  0  0  0  0  0  0  0  0
    2.0855   -1.1965    0.0015 H   0  0  0  0  0  0  0  0  0  0  0  0
    1.1966    0.6861    0.0018 C   0  0  0  0  0  0  0  0  0  0  0  0
    2.0657    1.1893    0.0048 H   0  0  0  0  0  0  0  0  0  0  0  0
  1  5  1  0
  5  8  1  0
  1  2  1  0
  1  3  1  0
  1  4  1  0
  5  6  1  0
  5  7  1  0
  8  9  1  0
  8 10  1  0
  8 11  1  0
 12 16  1  0
 16 17  2  0
 17 19  1  0
 19 21  2  0
 21 23  1  0
 23 25  2  0
 25 16  1  0
 12 13  1  0
 12 14  1  0
 12 15  1  0
 17 18  1  0
 19 20  1  0
 21 22  1  0
 23 24  1  0
 25 26  1  0
M  CHG  1   8   1
M  END
>  <PDB_ID>  (611) 
pdb1igo

>  <RESIDUE_NAME>  (611) 
LYS   PHE

>  <FRAG_NAME>  (611) 
ETAM   MBZ

>  <FRAG_ATOM_NUM>  (611) 
fragi: 11  fragj: 15

>  <atom.prop.CHAIN_ID>  (611) 
A A A A A A A A A A A Z Z Z Z Z Z Z Z Z Z Z Z Z Z Z

>  <atom.prop.IS_HEAVY_ATOM>  (611) 
1 0 0 0 1 0 0 1 0 0 0 1 0 0 0 1 1 0 1 0 1 0 1 0 1 0

>  <DIFUSE_FUNC_ATOM>  (611) 
n/a

>  <FINAL_SINGLE_POINT_ENERGY>  (611) 
0

>  <NONCOV_INTER_ENERGY_QM>  (611) 
0

>  <FF_Energy>  (611) 
0.68

>  <QM_Energy>  (611) 
-4.65

>  <source>  (611) 
ETAM_MBZ

>  <Index>  (611) 
5997

$$$$
ETAM-pdb1ih7-A-LYS-560:MBZ-pdb1ih7-A-PHE-282
     RDKit          3D

 26 25  0  0  0  0  0  0  0  0999 V2000
   -0.5624   -3.4858   -3.0886 C   0  0  0  0  0  0  0  0  0  0  0  0
   -1.3069   -3.6712   -3.7202 H   0  0  0  0  0  0  0  0  0  0  0  0
   -0.8973   -3.4527   -2.1541 H   0  0  0  0  0  0  0  0  0  0  0  0
    0.1799   -4.2796   -3.1729 H   0  0  0  0  0  0  0  0  0  0  0  0
    0.0397   -2.1289   -3.4347 C   0  0  0  0  0  0  0  0  0  0  0  0
    0.8658   -1.9890   -2.8818 H   0  0  0  0  0  0  0  0  0  0  0  0
    0.2959   -2.1248   -4.4058 H   0  0  0  0  0  0  0  0  0  0  0  0
   -0.9143   -1.0061   -3.1778 N   0  0  0  0  0  4  0  0  0  0  0  0
   -0.8065   -0.6936   -2.2359 H   0  0  0  0  0  0  0  0  0  0  0  0
   -0.7160   -0.2559   -3.8069 H   0  0  0  0  0  0  0  0  0  0  0  0
   -1.8478   -1.3300   -3.3224 H   0  0  0  0  0  0  0  0  0  0  0  0
   -0.0316    2.9035   -0.0069 C   0  0  0  0  0  0  0  0  0  0  0  0
   -0.9722    3.1959   -0.1104 H   0  0  0  0  0  0  0  0  0  0  0  0
    0.5252    3.2202   -0.7624 H   0  0  0  0  0  0  0  0  0  0  0  0
    0.3565    3.3622    0.9026 H   0  0  0  0  0  0  0  0  0  0  0  0
   -0.0048    1.4017   -0.0036 C   0  0  0  0  0  0  0  0  0  0  0  0
   -1.1977    0.6945   -0.0009 C   0  0  0  0  0  0  0  0  0  0  0  0
   -2.0661    1.1871   -0.0008 H   0  0  0  0  0  0  0  0  0  0  0  0
   -1.2055   -0.6913   -0.0000 C   0  0  0  0  0  0  0  0  0  0  0  0
   -2.0824   -1.1861   -0.0018 H   0  0  0  0  0  0  0  0  0  0  0  0
   -0.0045   -1.3926    0.0053 C   0  0  0  0  0  0  0  0  0  0  0  0
   -0.0155   -2.3936    0.0121 H   0  0  0  0  0  0  0  0  0  0  0  0
    1.2055   -0.7082    0.0000 C   0  0  0  0  0  0  0  0  0  0  0  0
    2.0817   -1.2052   -0.0019 H   0  0  0  0  0  0  0  0  0  0  0  0
    1.2070    0.6959   -0.0009 C   0  0  0  0  0  0  0  0  0  0  0  0
    2.0670    1.1886    0.0000 H   0  0  0  0  0  0  0  0  0  0  0  0
  1  5  1  0
  5  8  1  0
  1  2  1  0
  1  3  1  0
  1  4  1  0
  5  6  1  0
  5  7  1  0
  8  9  1  0
  8 10  1  0
  8 11  1  0
 12 16  1  0
 16 17  2  0
 17 19  1  0
 19 21  2  0
 21 23  1  0
 23 25  2  0
 25 16  1  0
 12 13  1  0
 12 14  1  0
 12 15  1  0
 17 18  1  0
 19 20  1  0
 21 22  1  0
 23 24  1  0
 25 26  1  0
M  CHG  1   8   1
M  END
>  <PDB_ID>  (612) 
pdb1ih7

>  <RESIDUE_NAME>  (612) 
LYS   PHE

>  <FRAG_NAME>  (612) 
ETAM   MBZ

>  <FRAG_ATOM_NUM>  (612) 
fragi: 11  fragj: 15

>  <atom.prop.CHAIN_ID>  (612) 
A A A A A A A A A A A Z Z Z Z Z Z Z Z Z Z Z Z Z Z Z

>  <atom.prop.IS_HEAVY_ATOM>  (612) 
1 0 0 0 1 0 0 1 0 0 0 1 0 0 0 1 1 0 1 0 1 0 1 0 1 0

>  <DIFUSE_FUNC_ATOM>  (612) 
n/a

>  <FINAL_SINGLE_POINT_ENERGY>  (612) 
0

>  <NONCOV_INTER_ENERGY_QM>  (612) 
0

>  <FF_Energy>  (612) 
-7.84

>  <QM_Energy>  (612) 
-15.97

>  <source>  (612) 
ETAM_MBZ

>  <Index>  (612) 
6014

$$$$
ETAM-pdb1ij8-B-LYS-245:MBZ-pdb1ij8-B-PHE-272
     RDKit          3D

 26 25  0  0  0  0  0  0  0  0999 V2000
    2.1736    0.6355   -4.5633 C   0  0  0  0  0  0  0  0  0  0  0  0
    1.4223    1.1597   -4.9517 H   0  0  0  0  0  0  0  0  0  0  0  0
    2.9879    0.7278   -5.1267 H   0  0  0  0  0  0  0  0  0  0  0  0
    2.3901    1.0209   -3.5669 H   0  0  0  0  0  0  0  0  0  0  0  0
    1.7725   -0.8369   -4.5285 C   0  0  0  0  0  0  0  0  0  0  0  0
    1.5394   -1.1297   -5.4622 H   0  0  0  0  0  0  0  0  0  0  0  0
    2.5594   -1.3790   -4.2129 H   0  0  0  0  0  0  0  0  0  0  0  0
    0.6113   -1.0939   -3.6311 N   0  0  0  0  0  4  0  0  0  0  0  0
    0.3961   -0.2612   -3.1217 H   0  0  0  0  0  0  0  0  0  0  0  0
   -0.1780   -1.3643   -4.1810 H   0  0  0  0  0  0  0  0  0  0  0  0
    0.8425   -1.8277   -2.9930 H   0  0  0  0  0  0  0  0  0  0  0  0
    0.0072    2.9047   -0.0013 C   0  0  0  0  0  0  0  0  0  0  0  0
   -0.7313    3.2159   -0.5828 H   0  0  0  0  0  0  0  0  0  0  0  0
    0.8846    3.2089   -0.3437 H   0  0  0  0  0  0  0  0  0  0  0  0
   -0.1361    3.3530    0.9818 H   0  0  0  0  0  0  0  0  0  0  0  0
    0.0005    1.4040    0.0001 C   0  0  0  0  0  0  0  0  0  0  0  0
   -1.1987    0.6988    0.0005 C   0  0  0  0  0  0  0  0  0  0  0  0
   -2.0637    1.1879    0.0004 H   0  0  0  0  0  0  0  0  0  0  0  0
   -1.2031   -0.6951   -0.0000 C   0  0  0  0  0  0  0  0  0  0  0  0
   -2.0799   -1.1886    0.0016 H   0  0  0  0  0  0  0  0  0  0  0  0
    0.0006   -1.3966   -0.0002 C   0  0  0  0  0  0  0  0  0  0  0  0
   -0.0082   -2.3942   -0.0011 H   0  0  0  0  0  0  0  0  0  0  0  0
    1.2031   -0.7027    0.0000 C   0  0  0  0  0  0  0  0  0  0  0  0
    2.0828   -1.1987    0.0017 H   0  0  0  0  0  0  0  0  0  0  0  0
    1.1976    0.6916   -0.0004 C   0  0  0  0  0  0  0  0  0  0  0  0
    2.0665    1.1869   -0.0020 H   0  0  0  0  0  0  0  0  0  0  0  0
  1  5  1  0
  5  8  1  0
  1  2  1  0
  1  3  1  0
  1  4  1  0
  5  6  1  0
  5  7  1  0
  8  9  1  0
  8 10  1  0
  8 11  1  0
 12 16  1  0
 16 17  2  0
 17 19  1  0
 19 21  2  0
 21 23  1  0
 23 25  2  0
 25 16  1  0
 12 13  1  0
 12 14  1  0
 12 15  1  0
 17 18  1  0
 19 20  1  0
 21 22  1  0
 23 24  1  0
 25 26  1  0
M  CHG  1   8   1
M  END
>  <PDB_ID>  (613) 
pdb1ij8

>  <RESIDUE_NAME>  (613) 
LYS   PHE

>  <FRAG_NAME>  (613) 
ETAM   MBZ

>  <FRAG_ATOM_NUM>  (613) 
fragi: 11  fragj: 15

>  <atom.prop.CHAIN_ID>  (613) 
A A A A A A A A A A A Z Z Z Z Z Z Z Z Z Z Z Z Z Z Z

>  <atom.prop.IS_HEAVY_ATOM>  (613) 
1 0 0 0 1 0 0 1 0 0 0 1 0 0 0 1 1 0 1 0 1 0 1 0 1 0

>  <DIFUSE_FUNC_ATOM>  (613) 
n/a

>  <FINAL_SINGLE_POINT_ENERGY>  (613) 
0

>  <NONCOV_INTER_ENERGY_QM>  (613) 
0

>  <FF_Energy>  (613) 
-6.15

>  <QM_Energy>  (613) 
-11.49

>  <source>  (613) 
ETAM_MBZ

>  <Index>  (613) 
6026

$$$$
ETAM-pdb2j8x-A-LYS-246:MBZ-pdb2j8x-A-PHE-242
     RDKit          3D

 26 25  0  0  0  0  0  0  0  0999 V2000
   -0.5405   -2.1879    4.4795 C   0  0  0  0  0  0  0  0  0  0  0  0
    0.0774   -2.8954    4.8090 H   0  0  0  0  0  0  0  0  0  0  0  0
   -1.0478   -1.7929    5.2394 H   0  0  0  0  0  0  0  0  0  0  0  0
    0.0469   -1.4034    4.0024 H   0  0  0  0  0  0  0  0  0  0  0  0
   -1.5294   -2.8185    3.5114 C   0  0  0  0  0  0  0  0  0  0  0  0
   -1.0289   -3.1397    2.7019 H   0  0  0  0  0  0  0  0  0  0  0  0
   -1.9610   -3.6089    3.9574 H   0  0  0  0  0  0  0  0  0  0  0  0
   -2.5810   -1.8607    3.0897 N   0  0  0  0  0  4  0  0  0  0  0  0
   -2.6327   -1.1101    3.7491 H   0  0  0  0  0  0  0  0  0  0  0  0
   -2.3565   -1.4947    2.1862 H   0  0  0  0  0  0  0  0  0  0  0  0
   -3.4638   -2.3302    3.0495 H   0  0  0  0  0  0  0  0  0  0  0  0
   -0.0015    2.9057   -0.0014 C   0  0  0  0  0  0  0  0  0  0  0  0
   -0.7569    3.2093   -0.5632 H   0  0  0  0  0  0  0  0  0  0  0  0
    0.8639    3.2102   -0.3717 H   0  0  0  0  0  0  0  0  0  0  0  0
   -0.1184    3.3572    0.9838 H   0  0  0  0  0  0  0  0  0  0  0  0
   -0.0011    1.4005    0.0043 C   0  0  0  0  0  0  0  0  0  0  0  0
   -1.1960    0.6892    0.0028 C   0  0  0  0  0  0  0  0  0  0  0  0
   -2.0640    1.1788    0.0025 H   0  0  0  0  0  0  0  0  0  0  0  0
   -1.1970   -0.6988   -0.0000 C   0  0  0  0  0  0  0  0  0  0  0  0
   -2.0733   -1.1952    0.0024 H   0  0  0  0  0  0  0  0  0  0  0  0
    0.0027   -1.3893   -0.0046 C   0  0  0  0  0  0  0  0  0  0  0  0
   -0.0008   -2.3908   -0.0117 H   0  0  0  0  0  0  0  0  0  0  0  0
    1.1970   -0.6957   -0.0000 C   0  0  0  0  0  0  0  0  0  0  0  0
    2.0817   -1.1921    0.0063 H   0  0  0  0  0  0  0  0  0  0  0  0
    1.1943    0.6941   -0.0024 C   0  0  0  0  0  0  0  0  0  0  0  0
    2.0629    1.1896   -0.0094 H   0  0  0  0  0  0  0  0  0  0  0  0
  1  5  1  0
  5  8  1  0
  1  2  1  0
  1  3  1  0
  1  4  1  0
  5  6  1  0
  5  7  1  0
  8  9  1  0
  8 10  1  0
  8 11  1  0
 12 16  1  0
 16 17  2  0
 17 19  1  0
 19 21  2  0
 21 23  1  0
 23 25  2  0
 25 16  1  0
 12 13  1  0
 12 14  1  0
 12 15  1  0
 17 18  1  0
 19 20  1  0
 21 22  1  0
 23 24  1  0
 25 26  1  0
M  CHG  1   8   1
M  END
>  <PDB_ID>  (614) 
pdb2j8x

>  <RESIDUE_NAME>  (614) 
LYS   PHE

>  <FRAG_NAME>  (614) 
ETAM   MBZ

>  <FRAG_ATOM_NUM>  (614) 
fragi: 11  fragj: 15

>  <atom.prop.CHAIN_ID>  (614) 
A A A A A A A A A A A Z Z Z Z Z Z Z Z Z Z Z Z Z Z Z

>  <atom.prop.IS_HEAVY_ATOM>  (614) 
1 0 0 0 1 0 0 1 0 0 0 1 0 0 0 1 1 0 1 0 1 0 1 0 1 0

>  <DIFUSE_FUNC_ATOM>  (614) 
n/a

>  <FINAL_SINGLE_POINT_ENERGY>  (614) 
0

>  <NONCOV_INTER_ENERGY_QM>  (614) 
0

>  <FF_Energy>  (614) 
-2.88

>  <QM_Energy>  (614) 
-9.07

>  <source>  (614) 
ETAM_MBZ

>  <Index>  (614) 
6028

$$$$
ETAM-pdb2ide-G-LYS-104:MBZ-pdb2ide-G-PHE-23
     RDKit          3D

 26 25  0  0  0  0  0  0  0  0999 V2000
   -4.3017   -0.8320   -0.9591 C   0  0  0  0  0  0  0  0  0  0  0  0
   -3.9969   -1.1560   -1.8517 H   0  0  0  0  0  0  0  0  0  0  0  0
   -3.6474   -1.1040   -0.2573 H   0  0  0  0  0  0  0  0  0  0  0  0
   -4.3626    0.2561   -0.9820 H   0  0  0  0  0  0  0  0  0  0  0  0
   -5.6420   -1.4697   -0.6439 C   0  0  0  0  0  0  0  0  0  0  0  0
   -6.0069   -1.0634    0.1944 H   0  0  0  0  0  0  0  0  0  0  0  0
   -6.2728   -1.2946   -1.4001 H   0  0  0  0  0  0  0  0  0  0  0  0
   -5.4968   -2.9353   -0.4562 N   0  0  0  0  0  4  0  0  0  0  0  0
   -6.3304   -3.3948   -0.7636 H   0  0  0  0  0  0  0  0  0  0  0  0
   -4.7173   -3.2644   -0.9900 H   0  0  0  0  0  0  0  0  0  0  0  0
   -5.3443   -3.1334    0.5121 H   0  0  0  0  0  0  0  0  0  0  0  0
    0.0083    2.8995    0.0586 C   0  0  0  0  0  0  0  0  0  0  0  0
    0.9263    3.2118   -0.1449 H   0  0  0  0  0  0  0  0  0  0  0  0
   -0.2646    3.1747    0.9705 H   0  0  0  0  0  0  0  0  0  0  0  0
   -0.6689    3.3788   -0.6485 H   0  0  0  0  0  0  0  0  0  0  0  0
    0.0015    1.4026    0.0015 C   0  0  0  0  0  0  0  0  0  0  0  0
   -1.1956    0.6961   -0.0010 C   0  0  0  0  0  0  0  0  0  0  0  0
   -2.0620    1.1855   -0.0046 H   0  0  0  0  0  0  0  0  0  0  0  0
   -1.2027   -0.6979   -0.0000 C   0  0  0  0  0  0  0  0  0  0  0  0
   -2.0806   -1.1876    0.0014 H   0  0  0  0  0  0  0  0  0  0  0  0
   -0.0033   -1.3959    0.0009 C   0  0  0  0  0  0  0  0  0  0  0  0
   -0.0060   -2.3933    0.0023 H   0  0  0  0  0  0  0  0  0  0  0  0
    1.2027   -0.6987    0.0000 C   0  0  0  0  0  0  0  0  0  0  0  0
    2.0810   -1.1972    0.0020 H   0  0  0  0  0  0  0  0  0  0  0  0
    1.1974    0.6938   -0.0014 C   0  0  0  0  0  0  0  0  0  0  0  0
    2.0657    1.1895   -0.0051 H   0  0  0  0  0  0  0  0  0  0  0  0
  1  5  1  0
  5  8  1  0
  1  2  1  0
  1  3  1  0
  1  4  1  0
  5  6  1  0
  5  7  1  0
  8  9  1  0
  8 10  1  0
  8 11  1  0
 12 16  1  0
 16 17  2  0
 17 19  1  0
 19 21  2  0
 21 23  1  0
 23 25  2  0
 25 16  1  0
 12 13  1  0
 12 14  1  0
 12 15  1  0
 17 18  1  0
 19 20  1  0
 21 22  1  0
 23 24  1  0
 25 26  1  0
M  CHG  1   8   1
M  END
>  <PDB_ID>  (615) 
pdb2ide

>  <RESIDUE_NAME>  (615) 
LYS   PHE

>  <FRAG_NAME>  (615) 
ETAM   MBZ

>  <FRAG_ATOM_NUM>  (615) 
fragi: 11  fragj: 15

>  <atom.prop.CHAIN_ID>  (615) 
A A A A A A A A A A A Z Z Z Z Z Z Z Z Z Z Z Z Z Z Z

>  <atom.prop.IS_HEAVY_ATOM>  (615) 
1 0 0 0 1 0 0 1 0 0 0 1 0 0 0 1 1 0 1 0 1 0 1 0 1 0

>  <DIFUSE_FUNC_ATOM>  (615) 
n/a

>  <FINAL_SINGLE_POINT_ENERGY>  (615) 
0

>  <NONCOV_INTER_ENERGY_QM>  (615) 
0

>  <FF_Energy>  (615) 
17.45

>  <QM_Energy>  (615) 
1.97

>  <source>  (615) 
ETAM_MBZ

>  <Index>  (615) 
6030

$$$$
ETAM-pdb2jam-A-LYS-74:MBZ-pdb2jam-D-PHE-18
     RDKit          3D

 26 25  0  0  0  0  0  0  0  0999 V2000
    5.7023    2.3733   -0.5416 C   0  0  0  0  0  0  0  0  0  0  0  0
    6.3491    1.7605   -0.1034 H   0  0  0  0  0  0  0  0  0  0  0  0
    5.5970    3.2071   -0.0129 H   0  0  0  0  0  0  0  0  0  0  0  0
    6.0926    2.6367   -1.5246 H   0  0  0  0  0  0  0  0  0  0  0  0
    4.3545    1.6793   -0.6435 C   0  0  0  0  0  0  0  0  0  0  0  0
    3.7003    2.2891   -1.1033 H   0  0  0  0  0  0  0  0  0  0  0  0
    4.4511    0.8424   -1.1932 H   0  0  0  0  0  0  0  0  0  0  0  0
    3.7768    1.2955    0.7085 N   0  0  0  0  0  4  0  0  0  0  0  0
    3.1276    0.5539    0.5758 H   0  0  0  0  0  0  0  0  0  0  0  0
    4.5213    1.0024    1.2984 H   0  0  0  0  0  0  0  0  0  0  0  0
    3.3210    2.0908    1.0943 H   0  0  0  0  0  0  0  0  0  0  0  0
    0.0570    2.8142   -0.0353 C   0  0  0  0  0  0  0  0  0  0  0  0
    0.0401    3.0994   -0.9878 H   0  0  0  0  0  0  0  0  0  0  0  0
    0.8948    3.1212    0.4037 H   0  0  0  0  0  0  0  0  0  0  0  0
   -0.7754    3.3053    0.4687 H   0  0  0  0  0  0  0  0  0  0  0  0
    0.0096    1.3442    0.0165 C   0  0  0  0  0  0  0  0  0  0  0  0
   -1.1745    0.6463   -0.0016 C   0  0  0  0  0  0  0  0  0  0  0  0
   -2.0361    1.1653   -0.0168 H   0  0  0  0  0  0  0  0  0  0  0  0
   -1.1551   -0.6534    0.0000 C   0  0  0  0  0  0  0  0  0  0  0  0
   -2.0420   -1.1873    0.0052 H   0  0  0  0  0  0  0  0  0  0  0  0
    0.0034   -1.3158   -0.0034 C   0  0  0  0  0  0  0  0  0  0  0  0
   -0.0112   -2.3426   -0.0090 H   0  0  0  0  0  0  0  0  0  0  0  0
    1.1551   -0.6697    0.0000 C   0  0  0  0  0  0  0  0  0  0  0  0
    2.0477   -1.1894    0.0128 H   0  0  0  0  0  0  0  0  0  0  0  0
    1.1614    0.6484   -0.0115 C   0  0  0  0  0  0  0  0  0  0  0  0
    2.0443    1.1583   -0.0429 H   0  0  0  0  0  0  0  0  0  0  0  0
  1  5  1  0
  5  8  1  0
  1  2  1  0
  1  3  1  0
  1  4  1  0
  5  6  1  0
  5  7  1  0
  8  9  1  0
  8 10  1  0
  8 11  1  0
 12 16  1  0
 16 17  2  0
 17 19  1  0
 19 21  2  0
 21 23  1  0
 23 25  2  0
 25 16  1  0
 12 13  1  0
 12 14  1  0
 12 15  1  0
 17 18  1  0
 19 20  1  0
 21 22  1  0
 23 24  1  0
 25 26  1  0
M  CHG  1   8   1
M  END
>  <PDB_ID>  (616) 
pdb2jam

>  <RESIDUE_NAME>  (616) 
LYS   PHE

>  <FRAG_NAME>  (616) 
ETAM   MBZ

>  <FRAG_ATOM_NUM>  (616) 
fragi: 11  fragj: 15

>  <atom.prop.CHAIN_ID>  (616) 
A A A A A A A A A A A Z Z Z Z Z Z Z Z Z Z Z Z Z Z Z

>  <atom.prop.IS_HEAVY_ATOM>  (616) 
1 0 0 0 1 0 0 1 0 0 0 1 0 0 0 1 1 0 1 0 1 0 1 0 1 0

>  <DIFUSE_FUNC_ATOM>  (616) 
n/a

>  <FINAL_SINGLE_POINT_ENERGY>  (616) 
0

>  <NONCOV_INTER_ENERGY_QM>  (616) 
0

>  <FF_Energy>  (616) 
46.07

>  <QM_Energy>  (616) 
7.39

>  <source>  (616) 
ETAM_MBZ

>  <Index>  (616) 
6039

$$$$
ETAM-pdb2jam-A-LYS-233:MBZ-pdb2jam-A-PHE-229
     RDKit          3D

 26 25  0  0  0  0  0  0  0  0999 V2000
    1.9973   -2.0276    4.2307 C   0  0  0  0  0  0  0  0  0  0  0  0
    2.8688   -2.5132    4.2505 H   0  0  0  0  0  0  0  0  0  0  0  0
    1.5468   -2.1020    5.1170 H   0  0  0  0  0  0  0  0  0  0  0  0
    2.1629   -0.9787    3.9843 H   0  0  0  0  0  0  0  0  0  0  0  0
    1.1079   -2.7027    3.1949 C   0  0  0  0  0  0  0  0  0  0  0  0
    1.4333   -2.4490    2.2813 H   0  0  0  0  0  0  0  0  0  0  0  0
    1.1858   -3.6965    3.3060 H   0  0  0  0  0  0  0  0  0  0  0  0
   -0.2926   -2.2933    3.3549 N   0  0  0  0  0  4  0  0  0  0  0  0
   -0.4095   -1.3458    3.0472 H   0  0  0  0  0  0  0  0  0  0  0  0
   -0.8873   -2.8888    2.8100 H   0  0  0  0  0  0  0  0  0  0  0  0
   -0.5596   -2.3590    4.3198 H   0  0  0  0  0  0  0  0  0  0  0  0
   -0.0091    2.8994   -0.0039 C   0  0  0  0  0  0  0  0  0  0  0  0
   -0.8251    3.1969   -0.4796 H   0  0  0  0  0  0  0  0  0  0  0  0
    0.8086    3.2119   -0.4679 H   0  0  0  0  0  0  0  0  0  0  0  0
   -0.0204    3.3549    0.9863 H   0  0  0  0  0  0  0  0  0  0  0  0
    0.0044    1.3997    0.0080 C   0  0  0  0  0  0  0  0  0  0  0  0
   -1.2024    0.6876   -0.0123 C   0  0  0  0  0  0  0  0  0  0  0  0
   -2.0627    1.1825   -0.0367 H   0  0  0  0  0  0  0  0  0  0  0  0
   -1.1996   -0.6940   -0.0000 C   0  0  0  0  0  0  0  0  0  0  0  0
   -2.0752   -1.1958    0.0103 H   0  0  0  0  0  0  0  0  0  0  0  0
    0.0027   -1.3907   -0.0005 C   0  0  0  0  0  0  0  0  0  0  0  0
   -0.0049   -2.3910   -0.0020 H   0  0  0  0  0  0  0  0  0  0  0  0
    1.1996   -0.6981   -0.0000 C   0  0  0  0  0  0  0  0  0  0  0  0
    2.0826   -1.1929   -0.0015 H   0  0  0  0  0  0  0  0  0  0  0  0
    1.1953    0.6955    0.0048 C   0  0  0  0  0  0  0  0  0  0  0  0
    2.0661    1.1884    0.0054 H   0  0  0  0  0  0  0  0  0  0  0  0
  1  5  1  0
  5  8  1  0
  1  2  1  0
  1  3  1  0
  1  4  1  0
  5  6  1  0
  5  7  1  0
  8  9  1  0
  8 10  1  0
  8 11  1  0
 12 16  1  0
 16 17  2  0
 17 19  1  0
 19 21  2  0
 21 23  1  0
 23 25  2  0
 25 16  1  0
 12 13  1  0
 12 14  1  0
 12 15  1  0
 17 18  1  0
 19 20  1  0
 21 22  1  0
 23 24  1  0
 25 26  1  0
M  CHG  1   8   1
M  END
>  <PDB_ID>  (617) 
pdb2jam

>  <RESIDUE_NAME>  (617) 
LYS   PHE

>  <FRAG_NAME>  (617) 
ETAM   MBZ

>  <FRAG_ATOM_NUM>  (617) 
fragi: 11  fragj: 15

>  <atom.prop.CHAIN_ID>  (617) 
A A A A A A A A A A A Z Z Z Z Z Z Z Z Z Z Z Z Z Z Z

>  <atom.prop.IS_HEAVY_ATOM>  (617) 
1 0 0 0 1 0 0 1 0 0 0 1 0 0 0 1 1 0 1 0 1 0 1 0 1 0

>  <DIFUSE_FUNC_ATOM>  (617) 
n/a

>  <FINAL_SINGLE_POINT_ENERGY>  (617) 
0

>  <NONCOV_INTER_ENERGY_QM>  (617) 
0

>  <FF_Energy>  (617) 
-4.46

>  <QM_Energy>  (617) 
-10.4

>  <source>  (617) 
ETAM_MBZ

>  <Index>  (617) 
6041

$$$$
ETAM-pdb1inp-A-LYS-270:MBZ-pdb1inp-A-PHE-308
     RDKit          3D

 26 25  0  0  0  0  0  0  0  0999 V2000
    3.9075   -5.4463   -1.6550 C   0  0  0  0  0  0  0  0  0  0  0  0
    3.2515   -6.1646   -1.8660 H   0  0  0  0  0  0  0  0  0  0  0  0
    4.4120   -5.6721   -0.8277 H   0  0  0  0  0  0  0  0  0  0  0  0
    4.6113   -5.3616   -2.4830 H   0  0  0  0  0  0  0  0  0  0  0  0
    3.1528   -4.1481   -1.4261 C   0  0  0  0  0  0  0  0  0  0  0  0
    3.6344   -3.6185   -0.7276 H   0  0  0  0  0  0  0  0  0  0  0  0
    3.1395   -3.6326   -2.2836 H   0  0  0  0  0  0  0  0  0  0  0  0
    1.7918   -4.4301   -0.9906 N   0  0  0  0  0  4  0  0  0  0  0  0
    1.8284   -5.0038   -0.1237 H   0  0  0  0  0  0  0  0  0  0  0  0
    1.2941   -3.5373   -0.7952 H   0  0  0  0  0  0  0  0  0  0  0  0
    1.2897   -4.9514   -1.7356 H   0  0  0  0  0  0  0  0  0  0  0  0
    0.0086    2.9394   -0.0929 C   0  0  0  0  0  0  0  0  0  0  0  0
    0.8475    3.2568    0.3123 H   0  0  0  0  0  0  0  0  0  0  0  0
   -0.7833    3.2695    0.3885 H   0  0  0  0  0  0  0  0  0  0  0  0
   -0.0362    3.3322   -1.1087 H   0  0  0  0  0  0  0  0  0  0  0  0
    0.0013    1.3999   -0.0015 C   0  0  0  0  0  0  0  0  0  0  0  0
   -1.2116    0.6982    0.0060 C   0  0  0  0  0  0  0  0  0  0  0  0
   -2.0665    1.1892    0.0147 H   0  0  0  0  0  0  0  0  0  0  0  0
   -1.2006   -0.6883    0.0000 C   0  0  0  0  0  0  0  0  0  0  0  0
   -2.0784   -1.1914    0.0046 H   0  0  0  0  0  0  0  0  0  0  0  0
    0.0014   -1.3898   -0.0104 C   0  0  0  0  0  0  0  0  0  0  0  0
   -0.0127   -2.3906   -0.0256 H   0  0  0  0  0  0  0  0  0  0  0  0
    1.2006   -0.7057   -0.0000 C   0  0  0  0  0  0  0  0  0  0  0  0
    2.0811   -1.2077    0.0049 H   0  0  0  0  0  0  0  0  0  0  0  0
    1.2089    0.6858    0.0059 C   0  0  0  0  0  0  0  0  0  0  0  0
    2.0706    1.1805    0.0143 H   0  0  0  0  0  0  0  0  0  0  0  0
  1  5  1  0
  5  8  1  0
  1  2  1  0
  1  3  1  0
  1  4  1  0
  5  6  1  0
  5  7  1  0
  8  9  1  0
  8 10  1  0
  8 11  1  0
 12 16  1  0
 16 17  2  0
 17 19  1  0
 19 21  2  0
 21 23  1  0
 23 25  2  0
 25 16  1  0
 12 13  1  0
 12 14  1  0
 12 15  1  0
 17 18  1  0
 19 20  1  0
 21 22  1  0
 23 24  1  0
 25 26  1  0
M  CHG  1   8   1
M  END
>  <PDB_ID>  (618) 
pdb1inp

>  <RESIDUE_NAME>  (618) 
LYS   PHE

>  <FRAG_NAME>  (618) 
ETAM   MBZ

>  <FRAG_ATOM_NUM>  (618) 
fragi: 11  fragj: 15

>  <atom.prop.CHAIN_ID>  (618) 
A A A A A A A A A A A Z Z Z Z Z Z Z Z Z Z Z Z Z Z Z

>  <atom.prop.IS_HEAVY_ATOM>  (618) 
1 0 0 0 1 0 0 1 0 0 0 1 0 0 0 1 1 0 1 0 1 0 1 0 1 0

>  <DIFUSE_FUNC_ATOM>  (618) 
n/a

>  <FINAL_SINGLE_POINT_ENERGY>  (618) 
0

>  <NONCOV_INTER_ENERGY_QM>  (618) 
0

>  <FF_Energy>  (618) 
0.96

>  <QM_Energy>  (618) 
-4.57

>  <source>  (618) 
ETAM_MBZ

>  <Index>  (618) 
6054

$$$$
ETAM-pdb1iic-B-LYS-277:MBZ-pdb1iic-B-PHE-273
     RDKit          3D

 26 25  0  0  0  0  0  0  0  0999 V2000
    1.3545   -1.3202    3.9201 C   0  0  0  0  0  0  0  0  0  0  0  0
    1.7970   -0.4339    3.7628 H   0  0  0  0  0  0  0  0  0  0  0  0
    1.7996   -1.7767    4.6934 H   0  0  0  0  0  0  0  0  0  0  0  0
    0.3097   -1.1440    4.1764 H   0  0  0  0  0  0  0  0  0  0  0  0
    1.5227   -2.1738    2.6893 C   0  0  0  0  0  0  0  0  0  0  0  0
    1.1467   -3.0847    2.8631 H   0  0  0  0  0  0  0  0  0  0  0  0
    1.0340   -1.7530    1.9246 H   0  0  0  0  0  0  0  0  0  0  0  0
    2.9633   -2.3049    2.3306 N   0  0  0  0  0  4  0  0  0  0  0  0
    3.5242   -1.9507    3.0782 H   0  0  0  0  0  0  0  0  0  0  0  0
    3.1791   -3.2685    2.1774 H   0  0  0  0  0  0  0  0  0  0  0  0
    3.1453   -1.7825    1.4980 H   0  0  0  0  0  0  0  0  0  0  0  0
    0.0073    2.8975   -0.0310 C   0  0  0  0  0  0  0  0  0  0  0  0
   -0.4842    3.1911   -0.8391 H   0  0  0  0  0  0  0  0  0  0  0  0
    0.9497    3.2014   -0.0581 H   0  0  0  0  0  0  0  0  0  0  0  0
   -0.4663    3.3638    0.8329 H   0  0  0  0  0  0  0  0  0  0  0  0
    0.0012    1.3979   -0.0007 C   0  0  0  0  0  0  0  0  0  0  0  0
   -1.1926    0.6920   -0.0001 C   0  0  0  0  0  0  0  0  0  0  0  0
   -2.0602    1.1847   -0.0005 H   0  0  0  0  0  0  0  0  0  0  0  0
   -1.2015   -0.6954    0.0000 C   0  0  0  0  0  0  0  0  0  0  0  0
   -2.0811   -1.1867    0.0023 H   0  0  0  0  0  0  0  0  0  0  0  0
   -0.0061   -1.3922   -0.0010 C   0  0  0  0  0  0  0  0  0  0  0  0
   -0.0058   -2.3900   -0.0026 H   0  0  0  0  0  0  0  0  0  0  0  0
    1.2015   -0.6929   -0.0000 C   0  0  0  0  0  0  0  0  0  0  0  0
    2.0792   -1.1972    0.0005 H   0  0  0  0  0  0  0  0  0  0  0  0
    1.1975    0.6905    0.0018 C   0  0  0  0  0  0  0  0  0  0  0  0
    2.0653    1.1903    0.0041 H   0  0  0  0  0  0  0  0  0  0  0  0
  1  5  1  0
  5  8  1  0
  1  2  1  0
  1  3  1  0
  1  4  1  0
  5  6  1  0
  5  7  1  0
  8  9  1  0
  8 10  1  0
  8 11  1  0
 12 16  1  0
 16 17  2  0
 17 19  1  0
 19 21  2  0
 21 23  1  0
 23 25  2  0
 25 16  1  0
 12 13  1  0
 12 14  1  0
 12 15  1  0
 17 18  1  0
 19 20  1  0
 21 22  1  0
 23 24  1  0
 25 26  1  0
M  CHG  1   8   1
M  END
>  <PDB_ID>  (619) 
pdb1iic

>  <RESIDUE_NAME>  (619) 
LYS   PHE

>  <FRAG_NAME>  (619) 
ETAM   MBZ

>  <FRAG_ATOM_NUM>  (619) 
fragi: 11  fragj: 15

>  <atom.prop.CHAIN_ID>  (619) 
A A A A A A A A A A A Z Z Z Z Z Z Z Z Z Z Z Z Z Z Z

>  <atom.prop.IS_HEAVY_ATOM>  (619) 
1 0 0 0 1 0 0 1 0 0 0 1 0 0 0 1 1 0 1 0 1 0 1 0 1 0

>  <DIFUSE_FUNC_ATOM>  (619) 
n/a

>  <FINAL_SINGLE_POINT_ENERGY>  (619) 
0

>  <NONCOV_INTER_ENERGY_QM>  (619) 
0

>  <FF_Energy>  (619) 
10.96

>  <QM_Energy>  (619) 
-3.91

>  <source>  (619) 
ETAM_MBZ

>  <Index>  (619) 
6070

$$$$
ETAM-pdb1ioo-B-LYS-188:MBZ-pdb1ioo-B-PHE-134
     RDKit          3D

 26 25  0  0  0  0  0  0  0  0999 V2000
    0.2599    1.7993   -4.1092 C   0  0  0  0  0  0  0  0  0  0  0  0
   -0.6041    2.2591   -3.9425 H   0  0  0  0  0  0  0  0  0  0  0  0
    0.3437    1.5490   -5.0662 H   0  0  0  0  0  0  0  0  0  0  0  0
    1.0765    2.4707   -3.8439 H   0  0  0  0  0  0  0  0  0  0  0  0
    0.3048    0.5342   -3.2721 C   0  0  0  0  0  0  0  0  0  0  0  0
    0.1602    0.7750   -2.3098 H   0  0  0  0  0  0  0  0  0  0  0  0
   -0.4307   -0.0793   -3.5696 H   0  0  0  0  0  0  0  0  0  0  0  0
    1.6095   -0.1634   -3.4101 N   0  0  0  0  0  4  0  0  0  0  0  0
    2.2957    0.4790   -3.7529 H   0  0  0  0  0  0  0  0  0  0  0  0
    1.8960   -0.5136   -2.5182 H   0  0  0  0  0  0  0  0  0  0  0  0
    1.5145   -0.9239   -4.0524 H   0  0  0  0  0  0  0  0  0  0  0  0
    0.0041    2.9026    0.0184 C   0  0  0  0  0  0  0  0  0  0  0  0
   -0.8148    3.2179   -0.4354 H   0  0  0  0  0  0  0  0  0  0  0  0
    0.8181    3.2143   -0.4475 H   0  0  0  0  0  0  0  0  0  0  0  0
    0.0121    3.3269    1.0224 H   0  0  0  0  0  0  0  0  0  0  0  0
    0.0009    1.4035   -0.0001 C   0  0  0  0  0  0  0  0  0  0  0  0
   -1.1975    0.6956    0.0013 C   0  0  0  0  0  0  0  0  0  0  0  0
   -2.0631    1.1877    0.0019 H   0  0  0  0  0  0  0  0  0  0  0  0
   -1.2057   -0.6962   -0.0000 C   0  0  0  0  0  0  0  0  0  0  0  0
   -2.0819   -1.1884    0.0005 H   0  0  0  0  0  0  0  0  0  0  0  0
   -0.0026   -1.3975   -0.0008 C   0  0  0  0  0  0  0  0  0  0  0  0
   -0.0070   -2.3941   -0.0025 H   0  0  0  0  0  0  0  0  0  0  0  0
    1.2057   -0.6998    0.0000 C   0  0  0  0  0  0  0  0  0  0  0  0
    2.0830   -1.1971    0.0023 H   0  0  0  0  0  0  0  0  0  0  0  0
    1.1992    0.6943   -0.0005 C   0  0  0  0  0  0  0  0  0  0  0  0
    2.0672    1.1903   -0.0019 H   0  0  0  0  0  0  0  0  0  0  0  0
  1  5  1  0
  5  8  1  0
  1  2  1  0
  1  3  1  0
  1  4  1  0
  5  6  1  0
  5  7  1  0
  8  9  1  0
  8 10  1  0
  8 11  1  0
 12 16  1  0
 16 17  2  0
 17 19  1  0
 19 21  2  0
 21 23  1  0
 23 25  2  0
 25 16  1  0
 12 13  1  0
 12 14  1  0
 12 15  1  0
 17 18  1  0
 19 20  1  0
 21 22  1  0
 23 24  1  0
 25 26  1  0
M  CHG  1   8   1
M  END
>  <PDB_ID>  (620) 
pdb1ioo

>  <RESIDUE_NAME>  (620) 
LYS   PHE

>  <FRAG_NAME>  (620) 
ETAM   MBZ

>  <FRAG_ATOM_NUM>  (620) 
fragi: 11  fragj: 15

>  <atom.prop.CHAIN_ID>  (620) 
A A A A A A A A A A A Z Z Z Z Z Z Z Z Z Z Z Z Z Z Z

>  <atom.prop.IS_HEAVY_ATOM>  (620) 
1 0 0 0 1 0 0 1 0 0 0 1 0 0 0 1 1 0 1 0 1 0 1 0 1 0

>  <DIFUSE_FUNC_ATOM>  (620) 
n/a

>  <FINAL_SINGLE_POINT_ENERGY>  (620) 
0

>  <NONCOV_INTER_ENERGY_QM>  (620) 
0

>  <FF_Energy>  (620) 
-4.19

>  <QM_Energy>  (620) 
-13.06

>  <source>  (620) 
ETAM_MBZ

>  <Index>  (620) 
6074

$$$$
ETAM-pdb1iqa-B-LYS-281:MBZ-pdb1iqa-B-PHE-212
     RDKit          3D

 26 25  0  0  0  0  0  0  0  0999 V2000
    1.9356   -2.0307    2.7262 C   0  0  0  0  0  0  0  0  0  0  0  0
    1.1655   -1.5257    3.1000 H   0  0  0  0  0  0  0  0  0  0  0  0
    1.8556   -2.1072    1.7388 H   0  0  0  0  0  0  0  0  0  0  0  0
    2.8596   -1.5071    2.9713 H   0  0  0  0  0  0  0  0  0  0  0  0
    1.9147   -3.4454    3.3201 C   0  0  0  0  0  0  0  0  0  0  0  0
    2.8579   -3.7891    3.3669 H   0  0  0  0  0  0  0  0  0  0  0  0
    1.5444   -3.3980    4.2533 H   0  0  0  0  0  0  0  0  0  0  0  0
    1.0852   -4.4055    2.5149 N   0  0  0  0  0  4  0  0  0  0  0  0
    1.5789   -4.6401    1.6811 H   0  0  0  0  0  0  0  0  0  0  0  0
    0.9226   -5.2266    3.0564 H   0  0  0  0  0  0  0  0  0  0  0  0
    0.2171   -3.9708    2.2854 H   0  0  0  0  0  0  0  0  0  0  0  0
   -0.0024    2.8826    0.0049 C   0  0  0  0  0  0  0  0  0  0  0  0
   -0.9369    3.1893    0.1184 H   0  0  0  0  0  0  0  0  0  0  0  0
    0.3738    3.1966   -0.8554 H   0  0  0  0  0  0  0  0  0  0  0  0
    0.5917    3.3195    0.8076 H   0  0  0  0  0  0  0  0  0  0  0  0
    0.0027    1.3928    0.0002 C   0  0  0  0  0  0  0  0  0  0  0  0
   -1.1993    0.6860   -0.0007 C   0  0  0  0  0  0  0  0  0  0  0  0
   -2.0616    1.1863   -0.0031 H   0  0  0  0  0  0  0  0  0  0  0  0
   -1.2074   -0.6912   -0.0000 C   0  0  0  0  0  0  0  0  0  0  0  0
   -2.0845   -1.1881    0.0018 H   0  0  0  0  0  0  0  0  0  0  0  0
   -0.0103   -1.3849   -0.0004 C   0  0  0  0  0  0  0  0  0  0  0  0
   -0.0100   -2.3861   -0.0017 H   0  0  0  0  0  0  0  0  0  0  0  0
    1.2074   -0.6928    0.0000 C   0  0  0  0  0  0  0  0  0  0  0  0
    2.0786   -1.2024    0.0012 H   0  0  0  0  0  0  0  0  0  0  0  0
    1.2070    0.6901    0.0010 C   0  0  0  0  0  0  0  0  0  0  0  0
    2.0685    1.1911    0.0013 H   0  0  0  0  0  0  0  0  0  0  0  0
  1  5  1  0
  5  8  1  0
  1  2  1  0
  1  3  1  0
  1  4  1  0
  5  6  1  0
  5  7  1  0
  8  9  1  0
  8 10  1  0
  8 11  1  0
 12 16  1  0
 16 17  2  0
 17 19  1  0
 19 21  2  0
 21 23  1  0
 23 25  2  0
 25 16  1  0
 12 13  1  0
 12 14  1  0
 12 15  1  0
 17 18  1  0
 19 20  1  0
 21 22  1  0
 23 24  1  0
 25 26  1  0
M  CHG  1   8   1
M  END
>  <PDB_ID>  (621) 
pdb1iqa

>  <RESIDUE_NAME>  (621) 
LYS   PHE

>  <FRAG_NAME>  (621) 
ETAM   MBZ

>  <FRAG_ATOM_NUM>  (621) 
fragi: 11  fragj: 15

>  <atom.prop.CHAIN_ID>  (621) 
A A A A A A A A A A A Z Z Z Z Z Z Z Z Z Z Z Z Z Z Z

>  <atom.prop.IS_HEAVY_ATOM>  (621) 
1 0 0 0 1 0 0 1 0 0 0 1 0 0 0 1 1 0 1 0 1 0 1 0 1 0

>  <DIFUSE_FUNC_ATOM>  (621) 
n/a

>  <FINAL_SINGLE_POINT_ENERGY>  (621) 
0

>  <NONCOV_INTER_ENERGY_QM>  (621) 
0

>  <FF_Energy>  (621) 
3.38

>  <QM_Energy>  (621) 
-2.42

>  <source>  (621) 
ETAM_MBZ

>  <Index>  (621) 
6094

$$$$
ETAM-pdb1im3-A-LYS-176:MBZ-pdb1im3-D-PHE-72
     RDKit          3D

 26 25  0  0  0  0  0  0  0  0999 V2000
    0.5726   -2.1847   -5.4436 C   0  0  0  0  0  0  0  0  0  0  0  0
    0.3226   -3.0430   -4.9902 H   0  0  0  0  0  0  0  0  0  0  0  0
    1.4491   -1.8638   -5.0788 H   0  0  0  0  0  0  0  0  0  0  0  0
    0.7049   -2.3926   -6.5054 H   0  0  0  0  0  0  0  0  0  0  0  0
   -0.4869   -1.1504   -5.1631 C   0  0  0  0  0  0  0  0  0  0  0  0
   -0.2001   -0.2693   -5.5361 H   0  0  0  0  0  0  0  0  0  0  0  0
   -1.3469   -1.4289   -5.5894 H   0  0  0  0  0  0  0  0  0  0  0  0
   -0.7050   -1.0030   -3.6888 N   0  0  0  0  0  4  0  0  0  0  0  0
    0.1705   -0.8202   -3.2458 H   0  0  0  0  0  0  0  0  0  0  0  0
   -1.3321   -0.2439   -3.5260 H   0  0  0  0  0  0  0  0  0  0  0  0
   -1.0956   -1.8487   -3.3298 H   0  0  0  0  0  0  0  0  0  0  0  0
   -0.0040    2.9262   -0.1565 C   0  0  0  0  0  0  0  0  0  0  0  0
    0.8888    3.2547    0.0941 H   0  0  0  0  0  0  0  0  0  0  0  0
   -0.7103    3.2870    0.4262 H   0  0  0  0  0  0  0  0  0  0  0  0
   -0.2101    3.2461   -1.1779 H   0  0  0  0  0  0  0  0  0  0  0  0
   -0.0018    1.4204   -0.0021 C   0  0  0  0  0  0  0  0  0  0  0  0
   -1.2061    0.7062    0.0012 C   0  0  0  0  0  0  0  0  0  0  0  0
   -2.0719    1.1987    0.0031 H   0  0  0  0  0  0  0  0  0  0  0  0
   -1.2230   -0.6974    0.0000 C   0  0  0  0  0  0  0  0  0  0  0  0
   -2.0918   -1.1881    0.0023 H   0  0  0  0  0  0  0  0  0  0  0  0
    0.0018   -1.4207   -0.0025 C   0  0  0  0  0  0  0  0  0  0  0  0
   -0.0104   -2.4061   -0.0058 H   0  0  0  0  0  0  0  0  0  0  0  0
    1.2230   -0.7113    0.0000 C   0  0  0  0  0  0  0  0  0  0  0  0
    2.0967   -1.1999    0.0008 H   0  0  0  0  0  0  0  0  0  0  0  0
    1.2062    0.7028    0.0034 C   0  0  0  0  0  0  0  0  0  0  0  0
    2.0725    1.1978    0.0092 H   0  0  0  0  0  0  0  0  0  0  0  0
  1  5  1  0
  5  8  1  0
  1  2  1  0
  1  3  1  0
  1  4  1  0
  5  6  1  0
  5  7  1  0
  8  9  1  0
  8 10  1  0
  8 11  1  0
 12 16  1  0
 16 17  2  0
 17 19  1  0
 19 21  2  0
 21 23  1  0
 23 25  2  0
 25 16  1  0
 12 13  1  0
 12 14  1  0
 12 15  1  0
 17 18  1  0
 19 20  1  0
 21 22  1  0
 23 24  1  0
 25 26  1  0
M  CHG  1   8   1
M  END
>  <PDB_ID>  (622) 
pdb1im3

>  <RESIDUE_NAME>  (622) 
LYS   PHE

>  <FRAG_NAME>  (622) 
ETAM   MBZ

>  <FRAG_ATOM_NUM>  (622) 
fragi: 11  fragj: 15

>  <atom.prop.CHAIN_ID>  (622) 
A A A A A A A A A A A Z Z Z Z Z Z Z Z Z Z Z Z Z Z Z

>  <atom.prop.IS_HEAVY_ATOM>  (622) 
1 0 0 0 1 0 0 1 0 0 0 1 0 0 0 1 1 0 1 0 1 0 1 0 1 0

>  <DIFUSE_FUNC_ATOM>  (622) 
n/a

>  <FINAL_SINGLE_POINT_ENERGY>  (622) 
0

>  <NONCOV_INTER_ENERGY_QM>  (622) 
0

>  <FF_Energy>  (622) 
-5.42

>  <QM_Energy>  (622) 
-10.56

>  <source>  (622) 
ETAM_MBZ

>  <Index>  (622) 
6098

$$$$
ETAM-pdb1iqc-D-LYS-23:MBZ-pdb1iqc-D-PHE-289
     RDKit          3D

 26 25  0  0  0  0  0  0  0  0999 V2000
   -1.0067    1.3441   -5.3542 C   0  0  0  0  0  0  0  0  0  0  0  0
   -0.0218    1.4989   -5.3812 H   0  0  0  0  0  0  0  0  0  0  0  0
   -1.4788    2.0716   -5.8472 H   0  0  0  0  0  0  0  0  0  0  0  0
   -1.2246    0.3928   -5.8398 H   0  0  0  0  0  0  0  0  0  0  0  0
   -1.4614    1.3722   -3.8985 C   0  0  0  0  0  0  0  0  0  0  0  0
   -1.3227    2.3023   -3.5339 H   0  0  0  0  0  0  0  0  0  0  0  0
   -2.4486    1.1669   -3.8637 H   0  0  0  0  0  0  0  0  0  0  0  0
   -0.7320    0.3984   -3.0365 N   0  0  0  0  0  4  0  0  0  0  0  0
   -0.7394   -0.4999   -3.4741 H   0  0  0  0  0  0  0  0  0  0  0  0
    0.2110    0.7055   -2.9163 H   0  0  0  0  0  0  0  0  0  0  0  0
   -1.1835    0.3429   -2.1463 H   0  0  0  0  0  0  0  0  0  0  0  0
    0.0054    2.9066    0.0006 C   0  0  0  0  0  0  0  0  0  0  0  0
   -0.6365    3.2170   -0.6844 H   0  0  0  0  0  0  0  0  0  0  0  0
    0.9238    3.2117   -0.2050 H   0  0  0  0  0  0  0  0  0  0  0  0
   -0.2852    3.3519    0.9521 H   0  0  0  0  0  0  0  0  0  0  0  0
    0.0004    1.4051   -0.0004 C   0  0  0  0  0  0  0  0  0  0  0  0
   -1.1962    0.6963   -0.0000 C   0  0  0  0  0  0  0  0  0  0  0  0
   -2.0633    1.1857   -0.0005 H   0  0  0  0  0  0  0  0  0  0  0  0
   -1.2031   -0.6980   -0.0000 C   0  0  0  0  0  0  0  0  0  0  0  0
   -2.0804   -1.1884    0.0013 H   0  0  0  0  0  0  0  0  0  0  0  0
   -0.0019   -1.3972    0.0002 C   0  0  0  0  0  0  0  0  0  0  0  0
   -0.0062   -2.3949    0.0003 H   0  0  0  0  0  0  0  0  0  0  0  0
    1.2031   -0.7012    0.0000 C   0  0  0  0  0  0  0  0  0  0  0  0
    2.0820   -1.1971    0.0010 H   0  0  0  0  0  0  0  0  0  0  0  0
    1.1977    0.6951    0.0002 C   0  0  0  0  0  0  0  0  0  0  0  0
    2.0664    1.1894   -0.0002 H   0  0  0  0  0  0  0  0  0  0  0  0
  1  5  1  0
  5  8  1  0
  1  2  1  0
  1  3  1  0
  1  4  1  0
  5  6  1  0
  5  7  1  0
  8  9  1  0
  8 10  1  0
  8 11  1  0
 12 16  1  0
 16 17  2  0
 17 19  1  0
 19 21  2  0
 21 23  1  0
 23 25  2  0
 25 16  1  0
 12 13  1  0
 12 14  1  0
 12 15  1  0
 17 18  1  0
 19 20  1  0
 21 22  1  0
 23 24  1  0
 25 26  1  0
M  CHG  1   8   1
M  END
>  <PDB_ID>  (623) 
pdb1iqc

>  <RESIDUE_NAME>  (623) 
LYS   PHE

>  <FRAG_NAME>  (623) 
ETAM   MBZ

>  <FRAG_ATOM_NUM>  (623) 
fragi: 11  fragj: 15

>  <atom.prop.CHAIN_ID>  (623) 
A A A A A A A A A A A Z Z Z Z Z Z Z Z Z Z Z Z Z Z Z

>  <atom.prop.IS_HEAVY_ATOM>  (623) 
1 0 0 0 1 0 0 1 0 0 0 1 0 0 0 1 1 0 1 0 1 0 1 0 1 0

>  <DIFUSE_FUNC_ATOM>  (623) 
n/a

>  <FINAL_SINGLE_POINT_ENERGY>  (623) 
0

>  <NONCOV_INTER_ENERGY_QM>  (623) 
0

>  <FF_Energy>  (623) 
-8.59

>  <QM_Energy>  (623) 
-16.08

>  <source>  (623) 
ETAM_MBZ

>  <Index>  (623) 
6100

$$$$
ETAM-pdb2jfx-A-LYS-225:MBZ-pdb2jfx-A-PHE-25
     RDKit          3D

 26 25  0  0  0  0  0  0  0  0999 V2000
    2.1334    0.5411    3.9837 C   0  0  0  0  0  0  0  0  0  0  0  0
    1.8148   -0.3276    3.5667 H   0  0  0  0  0  0  0  0  0  0  0  0
    1.6269    1.2946    3.5312 H   0  0  0  0  0  0  0  0  0  0  0  0
    1.9540    0.5435    5.0588 H   0  0  0  0  0  0  0  0  0  0  0  0
    3.6043    0.7032    3.5933 C   0  0  0  0  0  0  0  0  0  0  0  0
    3.9407    1.5716    3.9687 H   0  0  0  0  0  0  0  0  0  0  0  0
    4.1283   -0.0494    4.0036 H   0  0  0  0  0  0  0  0  0  0  0  0
    3.7953    0.6926    2.1236 N   0  0  0  0  0  4  0  0  0  0  0  0
    2.9517    0.9892    1.6742 H   0  0  0  0  0  0  0  0  0  0  0  0
    4.5391    1.3161    1.8783 H   0  0  0  0  0  0  0  0  0  0  0  0
    4.0249   -0.2332    1.8228 H   0  0  0  0  0  0  0  0  0  0  0  0
   -0.0007    2.9062    0.0377 C   0  0  0  0  0  0  0  0  0  0  0  0
   -0.7457    3.2274   -0.5273 H   0  0  0  0  0  0  0  0  0  0  0  0
    0.8716    3.2226   -0.3023 H   0  0  0  0  0  0  0  0  0  0  0  0
   -0.1376    3.3222    1.0358 H   0  0  0  0  0  0  0  0  0  0  0  0
    0.0002    1.4039    0.0002 C   0  0  0  0  0  0  0  0  0  0  0  0
   -1.1951    0.6944   -0.0002 C   0  0  0  0  0  0  0  0  0  0  0  0
   -2.0631    1.1819   -0.0022 H   0  0  0  0  0  0  0  0  0  0  0  0
   -1.2014   -0.7017   -0.0000 C   0  0  0  0  0  0  0  0  0  0  0  0
   -2.0781   -1.1920    0.0005 H   0  0  0  0  0  0  0  0  0  0  0  0
   -0.0009   -1.3959    0.0009 C   0  0  0  0  0  0  0  0  0  0  0  0
   -0.0018   -2.3949    0.0015 H   0  0  0  0  0  0  0  0  0  0  0  0
    1.2014   -0.6975   -0.0000 C   0  0  0  0  0  0  0  0  0  0  0  0
    2.0820   -1.1930    0.0012 H   0  0  0  0  0  0  0  0  0  0  0  0
    1.1958    0.6968   -0.0010 C   0  0  0  0  0  0  0  0  0  0  0  0
    2.0646    1.1914   -0.0029 H   0  0  0  0  0  0  0  0  0  0  0  0
  1  5  1  0
  5  8  1  0
  1  2  1  0
  1  3  1  0
  1  4  1  0
  5  6  1  0
  5  7  1  0
  8  9  1  0
  8 10  1  0
  8 11  1  0
 12 16  1  0
 16 17  2  0
 17 19  1  0
 19 21  2  0
 21 23  1  0
 23 25  2  0
 25 16  1  0
 12 13  1  0
 12 14  1  0
 12 15  1  0
 17 18  1  0
 19 20  1  0
 21 22  1  0
 23 24  1  0
 25 26  1  0
M  CHG  1   8   1
M  END
>  <PDB_ID>  (624) 
pdb2jfx

>  <RESIDUE_NAME>  (624) 
LYS   PHE

>  <FRAG_NAME>  (624) 
ETAM   MBZ

>  <FRAG_ATOM_NUM>  (624) 
fragi: 11  fragj: 15

>  <atom.prop.CHAIN_ID>  (624) 
A A A A A A A A A A A Z Z Z Z Z Z Z Z Z Z Z Z Z Z Z

>  <atom.prop.IS_HEAVY_ATOM>  (624) 
1 0 0 0 1 0 0 1 0 0 0 1 0 0 0 1 1 0 1 0 1 0 1 0 1 0

>  <DIFUSE_FUNC_ATOM>  (624) 
n/a

>  <FINAL_SINGLE_POINT_ENERGY>  (624) 
0

>  <NONCOV_INTER_ENERGY_QM>  (624) 
0

>  <FF_Energy>  (624) 
-1.52

>  <QM_Energy>  (624) 
-7.43

>  <source>  (624) 
ETAM_MBZ

>  <Index>  (624) 
6112

$$$$
ETAM-pdb2jer-C-LYS-280:MBZ-pdb2jer-C-PHE-283
     RDKit          3D

 26 25  0  0  0  0  0  0  0  0999 V2000
    2.0395   -2.5287    2.7633 C   0  0  0  0  0  0  0  0  0  0  0  0
    2.2557   -1.8381    2.0797 H   0  0  0  0  0  0  0  0  0  0  0  0
    2.8754   -2.8626    3.1898 H   0  0  0  0  0  0  0  0  0  0  0  0
    1.4046   -2.0820    3.5285 H   0  0  0  0  0  0  0  0  0  0  0  0
    1.3615   -3.7189    2.0427 C   0  0  0  0  0  0  0  0  0  0  0  0
    0.7326   -4.1554    2.6874 H   0  0  0  0  0  0  0  0  0  0  0  0
    0.8406   -3.3578    1.2669 H   0  0  0  0  0  0  0  0  0  0  0  0
    2.3545   -4.7094    1.5624 N   0  0  0  0  0  4  0  0  0  0  0  0
    1.8786   -5.5100    1.1965 H   0  0  0  0  0  0  0  0  0  0  0  0
    2.9159   -4.2983    0.8435 H   0  0  0  0  0  0  0  0  0  0  0  0
    2.9417   -4.9901    2.3232 H   0  0  0  0  0  0  0  0  0  0  0  0
   -0.0206    2.9198    0.0053 C   0  0  0  0  0  0  0  0  0  0  0  0
   -0.5708    3.2149    0.7745 H   0  0  0  0  0  0  0  0  0  0  0  0
   -0.4150    3.2230   -0.8514 H   0  0  0  0  0  0  0  0  0  0  0  0
    0.9597    3.3868    0.1009 H   0  0  0  0  0  0  0  0  0  0  0  0
    0.0040    1.4152    0.0003 C   0  0  0  0  0  0  0  0  0  0  0  0
   -1.2013    0.6969    0.0135 C   0  0  0  0  0  0  0  0  0  0  0  0
   -2.0675    1.1789    0.0319 H   0  0  0  0  0  0  0  0  0  0  0  0
   -1.2128   -0.7235    0.0000 C   0  0  0  0  0  0  0  0  0  0  0  0
   -2.0895   -1.2000    0.0025 H   0  0  0  0  0  0  0  0  0  0  0  0
   -0.0103   -1.4107   -0.0143 C   0  0  0  0  0  0  0  0  0  0  0  0
    0.0093   -2.4032   -0.0347 H   0  0  0  0  0  0  0  0  0  0  0  0
    1.2128   -0.6892   -0.0000 C   0  0  0  0  0  0  0  0  0  0  0  0
    2.0875   -1.1907    0.0113 H   0  0  0  0  0  0  0  0  0  0  0  0
    1.2076    0.7113    0.0005 C   0  0  0  0  0  0  0  0  0  0  0  0
    2.0720    1.2058   -0.0000 H   0  0  0  0  0  0  0  0  0  0  0  0
  1  5  1  0
  5  8  1  0
  1  2  1  0
  1  3  1  0
  1  4  1  0
  5  6  1  0
  5  7  1  0
  8  9  1  0
  8 10  1  0
  8 11  1  0
 12 16  1  0
 16 17  2  0
 17 19  1  0
 19 21  2  0
 21 23  1  0
 23 25  2  0
 25 16  1  0
 12 13  1  0
 12 14  1  0
 12 15  1  0
 17 18  1  0
 19 20  1  0
 21 22  1  0
 23 24  1  0
 25 26  1  0
M  CHG  1   8   1
M  END
>  <PDB_ID>  (625) 
pdb2jer

>  <RESIDUE_NAME>  (625) 
LYS   PHE

>  <FRAG_NAME>  (625) 
ETAM   MBZ

>  <FRAG_ATOM_NUM>  (625) 
fragi: 11  fragj: 15

>  <atom.prop.CHAIN_ID>  (625) 
A A A A A A A A A A A Z Z Z Z Z Z Z Z Z Z Z Z Z Z Z

>  <atom.prop.IS_HEAVY_ATOM>  (625) 
1 0 0 0 1 0 0 1 0 0 0 1 0 0 0 1 1 0 1 0 1 0 1 0 1 0

>  <DIFUSE_FUNC_ATOM>  (625) 
n/a

>  <FINAL_SINGLE_POINT_ENERGY>  (625) 
0

>  <NONCOV_INTER_ENERGY_QM>  (625) 
0

>  <FF_Energy>  (625) 
4.71

>  <QM_Energy>  (625) 
-2.69

>  <source>  (625) 
ETAM_MBZ

>  <Index>  (625) 
6114

$$$$
ETAM-pdb2jg5-A-LYS-94:MBZ-pdb2jg5-A-PHE-16
     RDKit          3D

 26 25  0  0  0  0  0  0  0  0999 V2000
    0.2944   -2.0569    3.5176 C   0  0  0  0  0  0  0  0  0  0  0  0
   -0.4055   -2.6766    3.8624 H   0  0  0  0  0  0  0  0  0  0  0  0
   -0.0174   -1.6257    2.6747 H   0  0  0  0  0  0  0  0  0  0  0  0
    0.4772   -1.2831    4.2633 H   0  0  0  0  0  0  0  0  0  0  0  0
    1.5495   -2.8693    3.2086 C   0  0  0  0  0  0  0  0  0  0  0  0
    2.3426   -2.2559    3.2105 H   0  0  0  0  0  0  0  0  0  0  0  0
    1.6716   -3.5641    3.9207 H   0  0  0  0  0  0  0  0  0  0  0  0
    1.4654   -3.5519    1.8739 N   0  0  0  0  0  4  0  0  0  0  0  0
    0.9892   -4.4213    1.9829 H   0  0  0  0  0  0  0  0  0  0  0  0
    0.9637   -2.9665    1.2407 H   0  0  0  0  0  0  0  0  0  0  0  0
    2.3882   -3.7106    1.5313 H   0  0  0  0  0  0  0  0  0  0  0  0
    0.0043    2.9054    0.0091 C   0  0  0  0  0  0  0  0  0  0  0  0
   -0.6812    3.2134   -0.6327 H   0  0  0  0  0  0  0  0  0  0  0  0
    0.9072    3.2115   -0.2535 H   0  0  0  0  0  0  0  0  0  0  0  0
   -0.2270    3.3419    0.9808 H   0  0  0  0  0  0  0  0  0  0  0  0
    0.0032    1.4025    0.0047 C   0  0  0  0  0  0  0  0  0  0  0  0
   -1.1987    0.6917    0.0001 C   0  0  0  0  0  0  0  0  0  0  0  0
   -2.0623    1.1834   -0.0048 H   0  0  0  0  0  0  0  0  0  0  0  0
   -1.2014   -0.6989   -0.0000 C   0  0  0  0  0  0  0  0  0  0  0  0
   -2.0786   -1.1931    0.0050 H   0  0  0  0  0  0  0  0  0  0  0  0
   -0.0016   -1.3961   -0.0048 C   0  0  0  0  0  0  0  0  0  0  0  0
   -0.0041   -2.3933   -0.0121 H   0  0  0  0  0  0  0  0  0  0  0  0
    1.2014   -0.6971   -0.0000 C   0  0  0  0  0  0  0  0  0  0  0  0
    2.0827   -1.1938    0.0052 H   0  0  0  0  0  0  0  0  0  0  0  0
    1.1972    0.6979   -0.0000 C   0  0  0  0  0  0  0  0  0  0  0  0
    2.0667    1.1907   -0.0047 H   0  0  0  0  0  0  0  0  0  0  0  0
  1  5  1  0
  5  8  1  0
  1  2  1  0
  1  3  1  0
  1  4  1  0
  5  6  1  0
  5  7  1  0
  8  9  1  0
  8 10  1  0
  8 11  1  0
 12 16  1  0
 16 17  2  0
 17 19  1  0
 19 21  2  0
 21 23  1  0
 23 25  2  0
 25 16  1  0
 12 13  1  0
 12 14  1  0
 12 15  1  0
 17 18  1  0
 19 20  1  0
 21 22  1  0
 23 24  1  0
 25 26  1  0
M  CHG  1   8   1
M  END
>  <PDB_ID>  (626) 
pdb2jg5

>  <RESIDUE_NAME>  (626) 
LYS   PHE

>  <FRAG_NAME>  (626) 
ETAM   MBZ

>  <FRAG_ATOM_NUM>  (626) 
fragi: 11  fragj: 15

>  <atom.prop.CHAIN_ID>  (626) 
A A A A A A A A A A A Z Z Z Z Z Z Z Z Z Z Z Z Z Z Z

>  <atom.prop.IS_HEAVY_ATOM>  (626) 
1 0 0 0 1 0 0 1 0 0 0 1 0 0 0 1 1 0 1 0 1 0 1 0 1 0

>  <DIFUSE_FUNC_ATOM>  (626) 
n/a

>  <FINAL_SINGLE_POINT_ENERGY>  (626) 
0

>  <NONCOV_INTER_ENERGY_QM>  (626) 
0

>  <FF_Energy>  (626) 
-0.31

>  <QM_Energy>  (626) 
-7.91

>  <source>  (626) 
ETAM_MBZ

>  <Index>  (626) 
6136

$$$$
ETAM-pdb2jgq-A-LYS-107:MBZ-pdb2jgq-A-PHE-103
     RDKit          3D

 26 25  0  0  0  0  0  0  0  0999 V2000
    0.3433   -0.7594    4.7082 C   0  0  0  0  0  0  0  0  0  0  0  0
    0.9956   -0.0165    4.7755 H   0  0  0  0  0  0  0  0  0  0  0  0
    0.4431   -1.3908    5.4651 H   0  0  0  0  0  0  0  0  0  0  0  0
   -0.6656   -0.3471    4.7193 H   0  0  0  0  0  0  0  0  0  0  0  0
    0.6165   -1.5249    3.4025 C   0  0  0  0  0  0  0  0  0  0  0  0
   -0.0520   -2.2732    3.3263 H   0  0  0  0  0  0  0  0  0  0  0  0
    0.4788   -0.8951    2.6294 H   0  0  0  0  0  0  0  0  0  0  0  0
    1.9970   -2.0906    3.3355 N   0  0  0  0  0  4  0  0  0  0  0  0
    2.6380   -1.3656    3.0876 H   0  0  0  0  0  0  0  0  0  0  0  0
    2.2417   -2.4671    4.2277 H   0  0  0  0  0  0  0  0  0  0  0  0
    2.0235   -2.8129    2.6458 H   0  0  0  0  0  0  0  0  0  0  0  0
    0.0083    2.9137   -0.0469 C   0  0  0  0  0  0  0  0  0  0  0  0
   -0.0722    3.1903   -0.9926 H   0  0  0  0  0  0  0  0  0  0  0  0
    0.8589    3.2268    0.3490 H   0  0  0  0  0  0  0  0  0  0  0  0
   -0.8056    3.3839    0.5049 H   0  0  0  0  0  0  0  0  0  0  0  0
   -0.0002    1.4038   -0.0004 C   0  0  0  0  0  0  0  0  0  0  0  0
   -1.1995    0.6919   -0.0007 C   0  0  0  0  0  0  0  0  0  0  0  0
   -2.0654    1.1843   -0.0032 H   0  0  0  0  0  0  0  0  0  0  0  0
   -1.2026   -0.6956   -0.0000 C   0  0  0  0  0  0  0  0  0  0  0  0
   -2.0771   -1.1935    0.0021 H   0  0  0  0  0  0  0  0  0  0  0  0
    0.0034   -1.3946   -0.0004 C   0  0  0  0  0  0  0  0  0  0  0  0
   -0.0038   -2.3923   -0.0019 H   0  0  0  0  0  0  0  0  0  0  0  0
    1.2026   -0.6990   -0.0000 C   0  0  0  0  0  0  0  0  0  0  0  0
    2.0846   -1.1943    0.0007 H   0  0  0  0  0  0  0  0  0  0  0  0
    1.1962    0.6935    0.0015 C   0  0  0  0  0  0  0  0  0  0  0  0
    2.0650    1.1896    0.0030 H   0  0  0  0  0  0  0  0  0  0  0  0
  1  5  1  0
  5  8  1  0
  1  2  1  0
  1  3  1  0
  1  4  1  0
  5  6  1  0
  5  7  1  0
  8  9  1  0
  8 10  1  0
  8 11  1  0
 12 16  1  0
 16 17  2  0
 17 19  1  0
 19 21  2  0
 21 23  1  0
 23 25  2  0
 25 16  1  0
 12 13  1  0
 12 14  1  0
 12 15  1  0
 17 18  1  0
 19 20  1  0
 21 22  1  0
 23 24  1  0
 25 26  1  0
M  CHG  1   8   1
M  END
>  <PDB_ID>  (627) 
pdb2jgq

>  <RESIDUE_NAME>  (627) 
LYS   PHE

>  <FRAG_NAME>  (627) 
ETAM   MBZ

>  <FRAG_ATOM_NUM>  (627) 
fragi: 11  fragj: 15

>  <atom.prop.CHAIN_ID>  (627) 
A A A A A A A A A A A Z Z Z Z Z Z Z Z Z Z Z Z Z Z Z

>  <atom.prop.IS_HEAVY_ATOM>  (627) 
1 0 0 0 1 0 0 1 0 0 0 1 0 0 0 1 1 0 1 0 1 0 1 0 1 0

>  <DIFUSE_FUNC_ATOM>  (627) 
n/a

>  <FINAL_SINGLE_POINT_ENERGY>  (627) 
0

>  <NONCOV_INTER_ENERGY_QM>  (627) 
0

>  <FF_Energy>  (627) 
-3.5

>  <QM_Energy>  (627) 
-8.69

>  <source>  (627) 
ETAM_MBZ

>  <Index>  (627) 
6170

$$$$
ETAM-pdb1ist-A-LYS-29:MBZ-pdb1ist-A-PHE-81
     RDKit          3D

 26 25  0  0  0  0  0  0  0  0999 V2000
   -4.2371    1.3476   -3.0518 C   0  0  0  0  0  0  0  0  0  0  0  0
   -4.1646    2.1423   -3.6278 H   0  0  0  0  0  0  0  0  0  0  0  0
   -5.1708    1.0601   -2.9330 H   0  0  0  0  0  0  0  0  0  0  0  0
   -3.6671    0.5328   -3.4982 H   0  0  0  0  0  0  0  0  0  0  0  0
   -3.6573    1.7003   -1.6625 C   0  0  0  0  0  0  0  0  0  0  0  0
   -2.9620    0.9603   -1.4279 H   0  0  0  0  0  0  0  0  0  0  0  0
   -3.0668    2.5498   -1.7876 H   0  0  0  0  0  0  0  0  0  0  0  0
   -4.5481    1.9013   -0.5173 N   0  0  0  0  0  4  0  0  0  0  0  0
   -4.3727    2.7966   -0.0990 H   0  0  0  0  0  0  0  0  0  0  0  0
   -5.5051    1.8635   -0.8161 H   0  0  0  0  0  0  0  0  0  0  0  0
   -4.3930    1.1856    0.1686 H   0  0  0  0  0  0  0  0  0  0  0  0
   -0.0215    2.9070   -0.0221 C   0  0  0  0  0  0  0  0  0  0  0  0
   -0.9101    3.2067   -0.3787 H   0  0  0  0  0  0  0  0  0  0  0  0
    0.7011    3.2165   -0.6449 H   0  0  0  0  0  0  0  0  0  0  0  0
    0.1305    3.4344    0.9197 H   0  0  0  0  0  0  0  0  0  0  0  0
   -0.0089    1.3941   -0.0066 C   0  0  0  0  0  0  0  0  0  0  0  0
   -1.1986    0.6830    0.0014 C   0  0  0  0  0  0  0  0  0  0  0  0
   -2.0678    1.1736    0.0074 H   0  0  0  0  0  0  0  0  0  0  0  0
   -1.1970   -0.6955    0.0000 C   0  0  0  0  0  0  0  0  0  0  0  0
   -2.0684   -1.2017   -0.0067 H   0  0  0  0  0  0  0  0  0  0  0  0
    0.0142   -1.3962    0.0097 C   0  0  0  0  0  0  0  0  0  0  0  0
    0.0044   -2.3914    0.0225 H   0  0  0  0  0  0  0  0  0  0  0  0
    1.1970   -0.6949    0.0000 C   0  0  0  0  0  0  0  0  0  0  0  0
    2.0903   -1.1793   -0.0029 H   0  0  0  0  0  0  0  0  0  0  0  0
    1.1933    0.7095   -0.0044 C   0  0  0  0  0  0  0  0  0  0  0  0
    2.0550    1.2006   -0.0062 H   0  0  0  0  0  0  0  0  0  0  0  0
  1  5  1  0
  5  8  1  0
  1  2  1  0
  1  3  1  0
  1  4  1  0
  5  6  1  0
  5  7  1  0
  8  9  1  0
  8 10  1  0
  8 11  1  0
 12 16  1  0
 16 17  2  0
 17 19  1  0
 19 21  2  0
 21 23  1  0
 23 25  2  0
 25 16  1  0
 12 13  1  0
 12 14  1  0
 12 15  1  0
 17 18  1  0
 19 20  1  0
 21 22  1  0
 23 24  1  0
 25 26  1  0
M  CHG  1   8   1
M  END
>  <PDB_ID>  (628) 
pdb1ist

>  <RESIDUE_NAME>  (628) 
LYS   PHE

>  <FRAG_NAME>  (628) 
ETAM   MBZ

>  <FRAG_ATOM_NUM>  (628) 
fragi: 11  fragj: 15

>  <atom.prop.CHAIN_ID>  (628) 
A A A A A A A A A A A Z Z Z Z Z Z Z Z Z Z Z Z Z Z Z

>  <atom.prop.IS_HEAVY_ATOM>  (628) 
1 0 0 0 1 0 0 1 0 0 0 1 0 0 0 1 1 0 1 0 1 0 1 0 1 0

>  <DIFUSE_FUNC_ATOM>  (628) 
n/a

>  <FINAL_SINGLE_POINT_ENERGY>  (628) 
0

>  <NONCOV_INTER_ENERGY_QM>  (628) 
0

>  <FF_Energy>  (628) 
13.56

>  <QM_Energy>  (628) 
0.69

>  <source>  (628) 
ETAM_MBZ

>  <Index>  (628) 
6185

$$$$
ETAM-pdb1ist-A-LYS-74:MBZ-pdb1ist-A-PHE-44
     RDKit          3D

 26 25  0  0  0  0  0  0  0  0999 V2000
    1.0879   -1.7388    4.5206 C   0  0  0  0  0  0  0  0  0  0  0  0
    0.7869   -2.4553    3.9170 H   0  0  0  0  0  0  0  0  0  0  0  0
    0.9739   -1.9785    5.4680 H   0  0  0  0  0  0  0  0  0  0  0  0
    2.1424   -1.5378    4.3310 H   0  0  0  0  0  0  0  0  0  0  0  0
    0.2783   -0.4793    4.2311 C   0  0  0  0  0  0  0  0  0  0  0  0
    0.2322    0.0664    5.0810 H   0  0  0  0  0  0  0  0  0  0  0  0
    0.7807    0.0655    3.5437 H   0  0  0  0  0  0  0  0  0  0  0  0
   -1.0609   -0.7726    3.7535 N   0  0  0  0  0  4  0  0  0  0  0  0
   -1.6476   -1.0676    4.5157 H   0  0  0  0  0  0  0  0  0  0  0  0
   -1.4686    0.0448    3.3328 H   0  0  0  0  0  0  0  0  0  0  0  0
   -1.0340   -1.5072    3.0670 H   0  0  0  0  0  0  0  0  0  0  0  0
    0.0504    2.9135    0.0148 C   0  0  0  0  0  0  0  0  0  0  0  0
    0.8664    3.1964    0.5025 H   0  0  0  0  0  0  0  0  0  0  0  0
   -0.7659    3.2401    0.4745 H   0  0  0  0  0  0  0  0  0  0  0  0
    0.0801    3.3886   -0.9657 H   0  0  0  0  0  0  0  0  0  0  0  0
    0.0103    1.4044    0.0003 C   0  0  0  0  0  0  0  0  0  0  0  0
   -1.2053    0.7272   -0.0026 C   0  0  0  0  0  0  0  0  0  0  0  0
   -2.0556    1.2190   -0.0082 H   0  0  0  0  0  0  0  0  0  0  0  0
   -1.2025   -0.6666   -0.0000 C   0  0  0  0  0  0  0  0  0  0  0  0
   -2.0917   -1.1584    0.0018 H   0  0  0  0  0  0  0  0  0  0  0  0
   -0.0115   -1.3991    0.0021 C   0  0  0  0  0  0  0  0  0  0  0  0
   -0.0470   -2.3959    0.0047 H   0  0  0  0  0  0  0  0  0  0  0  0
    1.2025   -0.7348   -0.0000 C   0  0  0  0  0  0  0  0  0  0  0  0
    2.0726   -1.2343   -0.0001 H   0  0  0  0  0  0  0  0  0  0  0  0
    1.2066    0.6689    0.0003 C   0  0  0  0  0  0  0  0  0  0  0  0
    2.0804    1.1553   -0.0007 H   0  0  0  0  0  0  0  0  0  0  0  0
  1  5  1  0
  5  8  1  0
  1  2  1  0
  1  3  1  0
  1  4  1  0
  5  6  1  0
  5  7  1  0
  8  9  1  0
  8 10  1  0
  8 11  1  0
 12 16  1  0
 16 17  2  0
 17 19  1  0
 19 21  2  0
 21 23  1  0
 23 25  2  0
 25 16  1  0
 12 13  1  0
 12 14  1  0
 12 15  1  0
 17 18  1  0
 19 20  1  0
 21 22  1  0
 23 24  1  0
 25 26  1  0
M  CHG  1   8   1
M  END
>  <PDB_ID>  (629) 
pdb1ist

>  <RESIDUE_NAME>  (629) 
LYS   PHE

>  <FRAG_NAME>  (629) 
ETAM   MBZ

>  <FRAG_ATOM_NUM>  (629) 
fragi: 11  fragj: 15

>  <atom.prop.CHAIN_ID>  (629) 
A A A A A A A A A A A Z Z Z Z Z Z Z Z Z Z Z Z Z Z Z

>  <atom.prop.IS_HEAVY_ATOM>  (629) 
1 0 0 0 1 0 0 1 0 0 0 1 0 0 0 1 1 0 1 0 1 0 1 0 1 0

>  <DIFUSE_FUNC_ATOM>  (629) 
n/a

>  <FINAL_SINGLE_POINT_ENERGY>  (629) 
0

>  <NONCOV_INTER_ENERGY_QM>  (629) 
0

>  <FF_Energy>  (629) 
-5.91

>  <QM_Energy>  (629) 
-11.11

>  <source>  (629) 
ETAM_MBZ

>  <Index>  (629) 
6186

$$$$
ETAM-pdb1ist-B-LYS-74:MBZ-pdb1ist-B-PHE-44
     RDKit          3D

 26 25  0  0  0  0  0  0  0  0999 V2000
    0.6843   -1.1697    4.3323 C   0  0  0  0  0  0  0  0  0  0  0  0
    0.5023   -2.0345    3.9076 H   0  0  0  0  0  0  0  0  0  0  0  0
    0.4233   -1.1464    5.2765 H   0  0  0  0  0  0  0  0  0  0  0  0
    1.7443   -0.9336    4.2393 H   0  0  0  0  0  0  0  0  0  0  0  0
   -0.1087   -0.0895    3.5861 C   0  0  0  0  0  0  0  0  0  0  0  0
   -0.0275    0.7666    4.1018 H   0  0  0  0  0  0  0  0  0  0  0  0
    0.3069    0.0324    2.6819 H   0  0  0  0  0  0  0  0  0  0  0  0
   -1.5031   -0.4708    3.4545 N   0  0  0  0  0  4  0  0  0  0  0  0
   -1.7016   -1.2750    4.0248 H   0  0  0  0  0  0  0  0  0  0  0  0
   -2.1013    0.2836    3.7457 H   0  0  0  0  0  0  0  0  0  0  0  0
   -1.7150   -0.6968    2.4977 H   0  0  0  0  0  0  0  0  0  0  0  0
    0.0072    2.9245    0.0144 C   0  0  0  0  0  0  0  0  0  0  0  0
    0.7774    3.2243    0.5535 H   0  0  0  0  0  0  0  0  0  0  0  0
   -0.8483    3.2284    0.3997 H   0  0  0  0  0  0  0  0  0  0  0  0
    0.1009    3.3810   -0.9710 H   0  0  0  0  0  0  0  0  0  0  0  0
    0.0053    1.4075   -0.0001 C   0  0  0  0  0  0  0  0  0  0  0  0
   -1.1976    0.7082    0.0015 C   0  0  0  0  0  0  0  0  0  0  0  0
   -2.0606    1.1904    0.0026 H   0  0  0  0  0  0  0  0  0  0  0  0
   -1.1968   -0.6988   -0.0000 C   0  0  0  0  0  0  0  0  0  0  0  0
   -2.0832   -1.1829    0.0008 H   0  0  0  0  0  0  0  0  0  0  0  0
   -0.0074   -1.4011   -0.0004 C   0  0  0  0  0  0  0  0  0  0  0  0
   -0.0123   -2.3987   -0.0018 H   0  0  0  0  0  0  0  0  0  0  0  0
    1.1968   -0.7063    0.0000 C   0  0  0  0  0  0  0  0  0  0  0  0
    2.0770   -1.2056    0.0026 H   0  0  0  0  0  0  0  0  0  0  0  0
    1.1997    0.6905   -0.0010 C   0  0  0  0  0  0  0  0  0  0  0  0
    2.0703    1.1798   -0.0034 H   0  0  0  0  0  0  0  0  0  0  0  0
  1  5  1  0
  5  8  1  0
  1  2  1  0
  1  3  1  0
  1  4  1  0
  5  6  1  0
  5  7  1  0
  8  9  1  0
  8 10  1  0
  8 11  1  0
 12 16  1  0
 16 17  2  0
 17 19  1  0
 19 21  2  0
 21 23  1  0
 23 25  2  0
 25 16  1  0
 12 13  1  0
 12 14  1  0
 12 15  1  0
 17 18  1  0
 19 20  1  0
 21 22  1  0
 23 24  1  0
 25 26  1  0
M  CHG  1   8   1
M  END
>  <PDB_ID>  (630) 
pdb1ist

>  <RESIDUE_NAME>  (630) 
LYS   PHE

>  <FRAG_NAME>  (630) 
ETAM   MBZ

>  <FRAG_ATOM_NUM>  (630) 
fragi: 11  fragj: 15

>  <atom.prop.CHAIN_ID>  (630) 
A A A A A A A A A A A Z Z Z Z Z Z Z Z Z Z Z Z Z Z Z

>  <atom.prop.IS_HEAVY_ATOM>  (630) 
1 0 0 0 1 0 0 1 0 0 0 1 0 0 0 1 1 0 1 0 1 0 1 0 1 0

>  <DIFUSE_FUNC_ATOM>  (630) 
n/a

>  <FINAL_SINGLE_POINT_ENERGY>  (630) 
0

>  <NONCOV_INTER_ENERGY_QM>  (630) 
0

>  <FF_Energy>  (630) 
-6.91

>  <QM_Energy>  (630) 
-14.3

>  <source>  (630) 
ETAM_MBZ

>  <Index>  (630) 
6187

$$$$
ETAM-pdb2jjz-D-LYS-55:MBZ-pdb2jjz-D-PHE-59
     RDKit          3D

 26 25  0  0  0  0  0  0  0  0999 V2000
   -3.8052   -3.6437    1.7310 C   0  0  0  0  0  0  0  0  0  0  0  0
   -4.2061   -4.4581    1.3169 H   0  0  0  0  0  0  0  0  0  0  0  0
   -3.8445   -2.8815    1.0890 H   0  0  0  0  0  0  0  0  0  0  0  0
   -4.3738   -3.3850    2.6243 H   0  0  0  0  0  0  0  0  0  0  0  0
   -2.3307   -3.9377    2.0361 C   0  0  0  0  0  0  0  0  0  0  0  0
   -1.9253   -3.1385    2.4690 H   0  0  0  0  0  0  0  0  0  0  0  0
   -2.2780   -4.7220    2.6462 H   0  0  0  0  0  0  0  0  0  0  0  0
   -1.5834   -4.2456    0.7706 N   0  0  0  0  0  4  0  0  0  0  0  0
   -0.6071   -4.1233    0.9318 H   0  0  0  0  0  0  0  0  0  0  0  0
   -1.7688   -5.1886    0.5051 H   0  0  0  0  0  0  0  0  0  0  0  0
   -1.8896   -3.6245    0.0527 H   0  0  0  0  0  0  0  0  0  0  0  0
   -0.0039    2.8983   -0.0028 C   0  0  0  0  0  0  0  0  0  0  0  0
   -0.8189    3.2022   -0.4763 H   0  0  0  0  0  0  0  0  0  0  0  0
    0.8141    3.2066   -0.4683 H   0  0  0  0  0  0  0  0  0  0  0  0
   -0.0102    3.3499    0.9893 H   0  0  0  0  0  0  0  0  0  0  0  0
    0.0006    1.4004    0.0059 C   0  0  0  0  0  0  0  0  0  0  0  0
   -1.1916    0.6916    0.0005 C   0  0  0  0  0  0  0  0  0  0  0  0
   -2.0608    1.1818   -0.0039 H   0  0  0  0  0  0  0  0  0  0  0  0
   -1.2007   -0.6992    0.0000 C   0  0  0  0  0  0  0  0  0  0  0  0
   -2.0804   -1.1883   -0.0001 H   0  0  0  0  0  0  0  0  0  0  0  0
   -0.0066   -1.3947    0.0010 C   0  0  0  0  0  0  0  0  0  0  0  0
   -0.0062   -2.3929    0.0023 H   0  0  0  0  0  0  0  0  0  0  0  0
    1.2007   -0.6967   -0.0000 C   0  0  0  0  0  0  0  0  0  0  0  0
    2.0788   -1.1954    0.0063 H   0  0  0  0  0  0  0  0  0  0  0  0
    1.1975    0.6986   -0.0074 C   0  0  0  0  0  0  0  0  0  0  0  0
    2.0647    1.1926   -0.0232 H   0  0  0  0  0  0  0  0  0  0  0  0
  1  5  1  0
  5  8  1  0
  1  2  1  0
  1  3  1  0
  1  4  1  0
  5  6  1  0
  5  7  1  0
  8  9  1  0
  8 10  1  0
  8 11  1  0
 12 16  1  0
 16 17  2  0
 17 19  1  0
 19 21  2  0
 21 23  1  0
 23 25  2  0
 25 16  1  0
 12 13  1  0
 12 14  1  0
 12 15  1  0
 17 18  1  0
 19 20  1  0
 21 22  1  0
 23 24  1  0
 25 26  1  0
M  CHG  1   8   1
M  END
>  <PDB_ID>  (631) 
pdb2jjz

>  <RESIDUE_NAME>  (631) 
LYS   PHE

>  <FRAG_NAME>  (631) 
ETAM   MBZ

>  <FRAG_ATOM_NUM>  (631) 
fragi: 11  fragj: 15

>  <atom.prop.CHAIN_ID>  (631) 
A A A A A A A A A A A Z Z Z Z Z Z Z Z Z Z Z Z Z Z Z

>  <atom.prop.IS_HEAVY_ATOM>  (631) 
1 0 0 0 1 0 0 1 0 0 0 1 0 0 0 1 1 0 1 0 1 0 1 0 1 0

>  <DIFUSE_FUNC_ATOM>  (631) 
n/a

>  <FINAL_SINGLE_POINT_ENERGY>  (631) 
0

>  <NONCOV_INTER_ENERGY_QM>  (631) 
0

>  <FF_Energy>  (631) 
1.6

>  <QM_Energy>  (631) 
-4.64

>  <source>  (631) 
ETAM_MBZ

>  <Index>  (631) 
6203

$$$$
ETAM-pdb2jjz-D-LYS-55:MBZ-pdb2jjz-D-PHE-108
     RDKit          3D

 26 25  0  0  0  0  0  0  0  0999 V2000
   -0.4200   -4.8442   -0.3310 C   0  0  0  0  0  0  0  0  0  0  0  0
   -0.1286   -4.5459    0.5755 H   0  0  0  0  0  0  0  0  0  0  0  0
   -0.3527   -4.0864   -0.9760 H   0  0  0  0  0  0  0  0  0  0  0  0
    0.2316   -5.6523   -0.6635 H   0  0  0  0  0  0  0  0  0  0  0  0
   -1.8910   -5.2712   -0.2451 C   0  0  0  0  0  0  0  0  0  0  0  0
   -2.1868   -5.5907   -1.1400 H   0  0  0  0  0  0  0  0  0  0  0  0
   -1.9759   -6.0017    0.4252 H   0  0  0  0  0  0  0  0  0  0  0  0
   -2.7506   -4.1138    0.1745 N   0  0  0  0  0  4  0  0  0  0  0  0
   -3.6971   -4.3052   -0.0736 H   0  0  0  0  0  0  0  0  0  0  0  0
   -2.6753   -3.9942    1.1616 H   0  0  0  0  0  0  0  0  0  0  0  0
   -2.4371   -3.2898   -0.2920 H   0  0  0  0  0  0  0  0  0  0  0  0
    0.0008    2.9065   -0.0023 C   0  0  0  0  0  0  0  0  0  0  0  0
   -0.7792    3.2145   -0.5311 H   0  0  0  0  0  0  0  0  0  0  0  0
    0.8499    3.2094   -0.4145 H   0  0  0  0  0  0  0  0  0  0  0  0
   -0.0688    3.3632    0.9850 H   0  0  0  0  0  0  0  0  0  0  0  0
   -0.0043    1.4092    0.0089 C   0  0  0  0  0  0  0  0  0  0  0  0
   -1.2015    0.7052   -0.0117 C   0  0  0  0  0  0  0  0  0  0  0  0
   -2.0687    1.1812   -0.0358 H   0  0  0  0  0  0  0  0  0  0  0  0
   -1.2021   -0.7097   -0.0000 C   0  0  0  0  0  0  0  0  0  0  0  0
   -2.0727   -1.1985    0.0060 H   0  0  0  0  0  0  0  0  0  0  0  0
    0.0146   -1.4043    0.0047 C   0  0  0  0  0  0  0  0  0  0  0  0
    0.0101   -2.4003    0.0104 H   0  0  0  0  0  0  0  0  0  0  0  0
    1.2021   -0.6986    0.0000 C   0  0  0  0  0  0  0  0  0  0  0  0
    2.0921   -1.1853   -0.0001 H   0  0  0  0  0  0  0  0  0  0  0  0
    1.1911    0.6982   -0.0019 C   0  0  0  0  0  0  0  0  0  0  0  0
    2.0610    1.1942   -0.0124 H   0  0  0  0  0  0  0  0  0  0  0  0
  1  5  1  0
  5  8  1  0
  1  2  1  0
  1  3  1  0
  1  4  1  0
  5  6  1  0
  5  7  1  0
  8  9  1  0
  8 10  1  0
  8 11  1  0
 12 16  1  0
 16 17  2  0
 17 19  1  0
 19 21  2  0
 21 23  1  0
 23 25  2  0
 25 16  1  0
 12 13  1  0
 12 14  1  0
 12 15  1  0
 17 18  1  0
 19 20  1  0
 21 22  1  0
 23 24  1  0
 25 26  1  0
M  CHG  1   8   1
M  END
>  <PDB_ID>  (632) 
pdb2jjz

>  <RESIDUE_NAME>  (632) 
LYS   PHE

>  <FRAG_NAME>  (632) 
ETAM   MBZ

>  <FRAG_ATOM_NUM>  (632) 
fragi: 11  fragj: 15

>  <atom.prop.CHAIN_ID>  (632) 
A A A A A A A A A A A Z Z Z Z Z Z Z Z Z Z Z Z Z Z Z

>  <atom.prop.IS_HEAVY_ATOM>  (632) 
1 0 0 0 1 0 0 1 0 0 0 1 0 0 0 1 1 0 1 0 1 0 1 0 1 0

>  <DIFUSE_FUNC_ATOM>  (632) 
n/a

>  <FINAL_SINGLE_POINT_ENERGY>  (632) 
0

>  <NONCOV_INTER_ENERGY_QM>  (632) 
0

>  <FF_Energy>  (632) 
2.91

>  <QM_Energy>  (632) 
-2.71

>  <source>  (632) 
ETAM_MBZ

>  <Index>  (632) 
6204

$$$$
ETAM-pdb1in0-B-LYS-148:MBZ-pdb1in0-B-PHE-158
     RDKit          3D

 26 25  0  0  0  0  0  0  0  0999 V2000
    4.0074   -1.8246    2.6108 C   0  0  0  0  0  0  0  0  0  0  0  0
    3.4246   -1.8995    3.4069 H   0  0  0  0  0  0  0  0  0  0  0  0
    4.9630   -1.8035    2.8664 H   0  0  0  0  0  0  0  0  0  0  0  0
    3.8314   -2.6814    1.9605 H   0  0  0  0  0  0  0  0  0  0  0  0
    3.6709   -0.5269    1.8823 C   0  0  0  0  0  0  0  0  0  0  0  0
    4.1836   -0.5123    0.9913 H   0  0  0  0  0  0  0  0  0  0  0  0
    2.6767   -0.5493    1.6201 H   0  0  0  0  0  0  0  0  0  0  0  0
    3.9365    0.7707    2.5970 N   0  0  0  0  0  4  0  0  0  0  0  0
    4.9090    0.9830    2.5315 H   0  0  0  0  0  0  0  0  0  0  0  0
    3.4001    1.4922    2.1671 H   0  0  0  0  0  0  0  0  0  0  0  0
    3.6718    0.6735    3.5534 H   0  0  0  0  0  0  0  0  0  0  0  0
   -0.0742    2.9096    0.0099 C   0  0  0  0  0  0  0  0  0  0  0  0
    0.8277    3.2590    0.1537 H   0  0  0  0  0  0  0  0  0  0  0  0
   -0.7122    3.1984    0.6933 H   0  0  0  0  0  0  0  0  0  0  0  0
   -0.4253    3.2855   -0.9512 H   0  0  0  0  0  0  0  0  0  0  0  0
   -0.0108    1.4121    0.0215 C   0  0  0  0  0  0  0  0  0  0  0  0
   -1.1911    0.6709   -0.0209 C   0  0  0  0  0  0  0  0  0  0  0  0
   -2.0722    1.1518   -0.0691 H   0  0  0  0  0  0  0  0  0  0  0  0
   -1.2006   -0.7330   -0.0000 C   0  0  0  0  0  0  0  0  0  0  0  0
   -2.0652   -1.2216    0.0245 H   0  0  0  0  0  0  0  0  0  0  0  0
    0.0140   -1.3999   -0.0126 C   0  0  0  0  0  0  0  0  0  0  0  0
    0.0376   -2.3968   -0.0309 H   0  0  0  0  0  0  0  0  0  0  0  0
    1.2006   -0.6715    0.0000 C   0  0  0  0  0  0  0  0  0  0  0  0
    2.0949   -1.1596    0.0025 H   0  0  0  0  0  0  0  0  0  0  0  0
    1.1879    0.7214    0.0119 C   0  0  0  0  0  0  0  0  0  0  0  0
    2.0528    1.2210    0.0131 H   0  0  0  0  0  0  0  0  0  0  0  0
  1  5  1  0
  5  8  1  0
  1  2  1  0
  1  3  1  0
  1  4  1  0
  5  6  1  0
  5  7  1  0
  8  9  1  0
  8 10  1  0
  8 11  1  0
 12 16  1  0
 16 17  2  0
 17 19  1  0
 19 21  2  0
 21 23  1  0
 23 25  2  0
 25 16  1  0
 12 13  1  0
 12 14  1  0
 12 15  1  0
 17 18  1  0
 19 20  1  0
 21 22  1  0
 23 24  1  0
 25 26  1  0
M  CHG  1   8   1
M  END
>  <PDB_ID>  (633) 
pdb1in0

>  <RESIDUE_NAME>  (633) 
LYS   PHE

>  <FRAG_NAME>  (633) 
ETAM   MBZ

>  <FRAG_ATOM_NUM>  (633) 
fragi: 11  fragj: 15

>  <atom.prop.CHAIN_ID>  (633) 
A A A A A A A A A A A Z Z Z Z Z Z Z Z Z Z Z Z Z Z Z

>  <atom.prop.IS_HEAVY_ATOM>  (633) 
1 0 0 0 1 0 0 1 0 0 0 1 0 0 0 1 1 0 1 0 1 0 1 0 1 0

>  <DIFUSE_FUNC_ATOM>  (633) 
n/a

>  <FINAL_SINGLE_POINT_ENERGY>  (633) 
0

>  <NONCOV_INTER_ENERGY_QM>  (633) 
0

>  <FF_Energy>  (633) 
9.79

>  <QM_Energy>  (633) 
-2.28

>  <source>  (633) 
ETAM_MBZ

>  <Index>  (633) 
6221

$$$$
ETAM-pdb2ide-J-LYS-104:MBZ-pdb2ide-J-PHE-23
     RDKit          3D

 26 25  0  0  0  0  0  0  0  0999 V2000
    4.4726   -1.5563    0.1112 C   0  0  0  0  0  0  0  0  0  0  0  0
    5.1028   -1.7765    0.8511 H   0  0  0  0  0  0  0  0  0  0  0  0
    3.5317   -1.6798    0.4146 H   0  0  0  0  0  0  0  0  0  0  0  0
    4.6161   -0.5136   -0.1721 H   0  0  0  0  0  0  0  0  0  0  0  0
    4.7373   -2.4964   -1.0486 C   0  0  0  0  0  0  0  0  0  0  0  0
    4.2354   -2.1694   -1.8555 H   0  0  0  0  0  0  0  0  0  0  0  0
    5.7202   -2.4891   -1.2573 H   0  0  0  0  0  0  0  0  0  0  0  0
    4.3147   -3.8890   -0.7441 N   0  0  0  0  0  4  0  0  0  0  0  0
    3.9819   -3.9365    0.1977 H   0  0  0  0  0  0  0  0  0  0  0  0
    3.5840   -4.1594   -1.3714 H   0  0  0  0  0  0  0  0  0  0  0  0
    5.0949   -4.5042   -0.8543 H   0  0  0  0  0  0  0  0  0  0  0  0
   -0.0069    2.9076   -0.0201 C   0  0  0  0  0  0  0  0  0  0  0  0
   -0.8067    3.2165    0.4737 H   0  0  0  0  0  0  0  0  0  0  0  0
   -0.0332    3.2006   -0.9644 H   0  0  0  0  0  0  0  0  0  0  0  0
    0.8677    3.3622    0.4450 H   0  0  0  0  0  0  0  0  0  0  0  0
    0.0006    1.4034    0.0004 C   0  0  0  0  0  0  0  0  0  0  0  0
   -1.1962    0.6953   -0.0005 C   0  0  0  0  0  0  0  0  0  0  0  0
   -2.0632    1.1850   -0.0027 H   0  0  0  0  0  0  0  0  0  0  0  0
   -1.2016   -0.6975    0.0000 C   0  0  0  0  0  0  0  0  0  0  0  0
   -2.0792   -1.1892    0.0017 H   0  0  0  0  0  0  0  0  0  0  0  0
   -0.0013   -1.3953   -0.0003 C   0  0  0  0  0  0  0  0  0  0  0  0
   -0.0060   -2.3941   -0.0012 H   0  0  0  0  0  0  0  0  0  0  0  0
    1.2016   -0.7003   -0.0000 C   0  0  0  0  0  0  0  0  0  0  0  0
    2.0818   -1.1967    0.0016 H   0  0  0  0  0  0  0  0  0  0  0  0
    1.1969    0.6943    0.0004 C   0  0  0  0  0  0  0  0  0  0  0  0
    2.0657    1.1888    0.0000 H   0  0  0  0  0  0  0  0  0  0  0  0
  1  5  1  0
  5  8  1  0
  1  2  1  0
  1  3  1  0
  1  4  1  0
  5  6  1  0
  5  7  1  0
  8  9  1  0
  8 10  1  0
  8 11  1  0
 12 16  1  0
 16 17  2  0
 17 19  1  0
 19 21  2  0
 21 23  1  0
 23 25  2  0
 25 16  1  0
 12 13  1  0
 12 14  1  0
 12 15  1  0
 17 18  1  0
 19 20  1  0
 21 22  1  0
 23 24  1  0
 25 26  1  0
M  CHG  1   8   1
M  END
>  <PDB_ID>  (634) 
pdb2ide

>  <RESIDUE_NAME>  (634) 
LYS   PHE

>  <FRAG_NAME>  (634) 
ETAM   MBZ

>  <FRAG_ATOM_NUM>  (634) 
fragi: 11  fragj: 15

>  <atom.prop.CHAIN_ID>  (634) 
A A A A A A A A A A A Z Z Z Z Z Z Z Z Z Z Z Z Z Z Z

>  <atom.prop.IS_HEAVY_ATOM>  (634) 
1 0 0 0 1 0 0 1 0 0 0 1 0 0 0 1 1 0 1 0 1 0 1 0 1 0

>  <DIFUSE_FUNC_ATOM>  (634) 
n/a

>  <FINAL_SINGLE_POINT_ENERGY>  (634) 
0

>  <NONCOV_INTER_ENERGY_QM>  (634) 
0

>  <FF_Energy>  (634) 
17.85

>  <QM_Energy>  (634) 
1.4

>  <source>  (634) 
ETAM_MBZ

>  <Index>  (634) 
6228

$$$$
ETAM-pdb2jkb-A-LYS-297:MBZ-pdb2jkb-A-PHE-294
     RDKit          3D

 26 25  0  0  0  0  0  0  0  0999 V2000
    2.2029    2.1047    3.1803 C   0  0  0  0  0  0  0  0  0  0  0  0
    1.8539    2.1941    2.2488 H   0  0  0  0  0  0  0  0  0  0  0  0
    3.0788    2.5780    3.2581 H   0  0  0  0  0  0  0  0  0  0  0  0
    1.4934    2.5762    3.8603 H   0  0  0  0  0  0  0  0  0  0  0  0
    2.4018    0.6490    3.4927 C   0  0  0  0  0  0  0  0  0  0  0  0
    2.6389    0.5360    4.4542 H   0  0  0  0  0  0  0  0  0  0  0  0
    1.5709    0.1387    3.2848 H   0  0  0  0  0  0  0  0  0  0  0  0
    3.5318    0.0759    2.6554 N   0  0  0  0  0  4  0  0  0  0  0  0
    4.1031   -0.4907    3.2404 H   0  0  0  0  0  0  0  0  0  0  0  0
    3.1371   -0.4695    1.9225 H   0  0  0  0  0  0  0  0  0  0  0  0
    4.0614    0.8290    2.2805 H   0  0  0  0  0  0  0  0  0  0  0  0
   -0.0115    2.8842   -0.0307 C   0  0  0  0  0  0  0  0  0  0  0  0
    0.9199    3.2009    0.0728 H   0  0  0  0  0  0  0  0  0  0  0  0
   -0.5799    3.1929    0.7188 H   0  0  0  0  0  0  0  0  0  0  0  0
   -0.4103    3.3106   -0.9513 H   0  0  0  0  0  0  0  0  0  0  0  0
    0.0029    1.3857   -0.0149 C   0  0  0  0  0  0  0  0  0  0  0  0
   -1.1791    0.6863    0.0078 C   0  0  0  0  0  0  0  0  0  0  0  0
   -2.0505    1.1822    0.0293 H   0  0  0  0  0  0  0  0  0  0  0  0
   -1.1904   -0.6879    0.0000 C   0  0  0  0  0  0  0  0  0  0  0  0
   -2.0768   -1.1782   -0.0106 H   0  0  0  0  0  0  0  0  0  0  0  0
   -0.0116   -1.3789    0.0084 C   0  0  0  0  0  0  0  0  0  0  0  0
   -0.0150   -2.3838    0.0203 H   0  0  0  0  0  0  0  0  0  0  0  0
    1.1904   -0.6961   -0.0000 C   0  0  0  0  0  0  0  0  0  0  0  0
    2.0684   -1.1967   -0.0040 H   0  0  0  0  0  0  0  0  0  0  0  0
    1.1879    0.6909   -0.0014 C   0  0  0  0  0  0  0  0  0  0  0  0
    2.0595    1.1832    0.0070 H   0  0  0  0  0  0  0  0  0  0  0  0
  1  5  1  0
  5  8  1  0
  1  2  1  0
  1  3  1  0
  1  4  1  0
  5  6  1  0
  5  7  1  0
  8  9  1  0
  8 10  1  0
  8 11  1  0
 12 16  1  0
 16 17  2  0
 17 19  1  0
 19 21  2  0
 21 23  1  0
 23 25  2  0
 25 16  1  0
 12 13  1  0
 12 14  1  0
 12 15  1  0
 17 18  1  0
 19 20  1  0
 21 22  1  0
 23 24  1  0
 25 26  1  0
M  CHG  1   8   1
M  END
>  <PDB_ID>  (635) 
pdb2jkb

>  <RESIDUE_NAME>  (635) 
LYS   PHE

>  <FRAG_NAME>  (635) 
ETAM   MBZ

>  <FRAG_ATOM_NUM>  (635) 
fragi: 11  fragj: 15

>  <atom.prop.CHAIN_ID>  (635) 
A A A A A A A A A A A Z Z Z Z Z Z Z Z Z Z Z Z Z Z Z

>  <atom.prop.IS_HEAVY_ATOM>  (635) 
1 0 0 0 1 0 0 1 0 0 0 1 0 0 0 1 1 0 1 0 1 0 1 0 1 0

>  <DIFUSE_FUNC_ATOM>  (635) 
n/a

>  <FINAL_SINGLE_POINT_ENERGY>  (635) 
0

>  <NONCOV_INTER_ENERGY_QM>  (635) 
0

>  <FF_Energy>  (635) 
-3.04

>  <QM_Energy>  (635) 
-8.71

>  <source>  (635) 
ETAM_MBZ

>  <Index>  (635) 
6241

$$$$
ETAM-pdb1iv7-B-LYS-117:MBZ-pdb1iv7-B-PHE-134
     RDKit          3D

 26 25  0  0  0  0  0  0  0  0999 V2000
   -2.1937   -0.7399    4.1408 C   0  0  0  0  0  0  0  0  0  0  0  0
   -1.8171   -1.2662    4.8840 H   0  0  0  0  0  0  0  0  0  0  0  0
   -2.9186   -0.1440    4.4424 H   0  0  0  0  0  0  0  0  0  0  0  0
   -1.3992   -0.1309    3.7095 H   0  0  0  0  0  0  0  0  0  0  0  0
   -2.7420   -1.6922    3.0872 C   0  0  0  0  0  0  0  0  0  0  0  0
   -2.0081   -1.9958    2.5148 H   0  0  0  0  0  0  0  0  0  0  0  0
   -3.2103   -2.4295    3.5311 H   0  0  0  0  0  0  0  0  0  0  0  0
   -3.7072   -0.8958    2.2867 N   0  0  0  0  0  4  0  0  0  0  0  0
   -4.2802   -0.3521    2.9002 H   0  0  0  0  0  0  0  0  0  0  0  0
   -3.2067   -0.2867    1.6708 H   0  0  0  0  0  0  0  0  0  0  0  0
   -4.2836   -1.5122    1.7507 H   0  0  0  0  0  0  0  0  0  0  0  0
   -0.0033    2.9879    0.0879 C   0  0  0  0  0  0  0  0  0  0  0  0
    0.7013    3.2424    0.7221 H   0  0  0  0  0  0  0  0  0  0  0  0
   -0.8967    3.2615    0.3898 H   0  0  0  0  0  0  0  0  0  0  0  0
    0.2019    3.4621   -0.8719 H   0  0  0  0  0  0  0  0  0  0  0  0
   -0.0088    1.4320    0.0253 C   0  0  0  0  0  0  0  0  0  0  0  0
   -1.1928    0.7031    0.0076 C   0  0  0  0  0  0  0  0  0  0  0  0
   -2.0705    1.1670   -0.0017 H   0  0  0  0  0  0  0  0  0  0  0  0
   -1.1815   -0.7188    0.0000 C   0  0  0  0  0  0  0  0  0  0  0  0
   -2.0666   -1.2010    0.0271 H   0  0  0  0  0  0  0  0  0  0  0  0
    0.0093   -1.4113   -0.0413 C   0  0  0  0  0  0  0  0  0  0  0  0
    0.0047   -2.4072   -0.1010 H   0  0  0  0  0  0  0  0  0  0  0  0
    1.1815   -0.7124    0.0000 C   0  0  0  0  0  0  0  0  0  0  0  0
    2.0821   -1.1924    0.0273 H   0  0  0  0  0  0  0  0  0  0  0  0
    1.1923    0.7074    0.0085 C   0  0  0  0  0  0  0  0  0  0  0  0
    2.0620    1.1853    0.0014 H   0  0  0  0  0  0  0  0  0  0  0  0
  1  5  1  0
  5  8  1  0
  1  2  1  0
  1  3  1  0
  1  4  1  0
  5  6  1  0
  5  7  1  0
  8  9  1  0
  8 10  1  0
  8 11  1  0
 12 16  1  0
 16 17  2  0
 17 19  1  0
 19 21  2  0
 21 23  1  0
 23 25  2  0
 25 16  1  0
 12 13  1  0
 12 14  1  0
 12 15  1  0
 17 18  1  0
 19 20  1  0
 21 22  1  0
 23 24  1  0
 25 26  1  0
M  CHG  1   8   1
M  END
>  <PDB_ID>  (636) 
pdb1iv7

>  <RESIDUE_NAME>  (636) 
LYS   PHE

>  <FRAG_NAME>  (636) 
ETAM   MBZ

>  <FRAG_ATOM_NUM>  (636) 
fragi: 11  fragj: 15

>  <atom.prop.CHAIN_ID>  (636) 
A A A A A A A A A A A Z Z Z Z Z Z Z Z Z Z Z Z Z Z Z

>  <atom.prop.IS_HEAVY_ATOM>  (636) 
1 0 0 0 1 0 0 1 0 0 0 1 0 0 0 1 1 0 1 0 1 0 1 0 1 0

>  <DIFUSE_FUNC_ATOM>  (636) 
n/a

>  <FINAL_SINGLE_POINT_ENERGY>  (636) 
0

>  <NONCOV_INTER_ENERGY_QM>  (636) 
0

>  <FF_Energy>  (636) 
-1.55

>  <QM_Energy>  (636) 
-8.16

>  <source>  (636) 
ETAM_MBZ

>  <Index>  (636) 
6242

$$$$
ETAM-pdb2ide-K-LYS-104:MBZ-pdb2ide-K-PHE-23
     RDKit          3D

 26 25  0  0  0  0  0  0  0  0999 V2000
   -2.7342   -1.4427   -2.5876 C   0  0  0  0  0  0  0  0  0  0  0  0
   -2.0790   -1.6938   -3.2993 H   0  0  0  0  0  0  0  0  0  0  0  0
   -2.3290   -1.5979   -1.6873 H   0  0  0  0  0  0  0  0  0  0  0  0
   -2.9630   -0.3816   -2.6865 H   0  0  0  0  0  0  0  0  0  0  0  0
   -3.9639   -2.3242   -2.7263 C   0  0  0  0  0  0  0  0  0  0  0  0
   -4.7057   -1.9373   -2.1856 H   0  0  0  0  0  0  0  0  0  0  0  0
   -4.2284   -2.3676   -3.6858 H   0  0  0  0  0  0  0  0  0  0  0  0
   -3.6678   -3.7025   -2.2368 N   0  0  0  0  0  4  0  0  0  0  0  0
   -2.7342   -3.9489   -2.4912 H   0  0  0  0  0  0  0  0  0  0  0  0
   -3.7636   -3.7271   -1.2426 H   0  0  0  0  0  0  0  0  0  0  0  0
   -4.3105   -4.3453   -2.6523 H   0  0  0  0  0  0  0  0  0  0  0  0
    0.0011    2.9075   -0.0170 C   0  0  0  0  0  0  0  0  0  0  0  0
    0.9124    3.2159    0.2095 H   0  0  0  0  0  0  0  0  0  0  0  0
   -0.6623    3.2224    0.6446 H   0  0  0  0  0  0  0  0  0  0  0  0
   -0.2648    3.3326   -0.9849 H   0  0  0  0  0  0  0  0  0  0  0  0
    0.0008    1.4058    0.0026 C   0  0  0  0  0  0  0  0  0  0  0  0
   -1.1972    0.6958   -0.0003 C   0  0  0  0  0  0  0  0  0  0  0  0
   -2.0646    1.1831   -0.0035 H   0  0  0  0  0  0  0  0  0  0  0  0
   -1.2026   -0.7027   -0.0000 C   0  0  0  0  0  0  0  0  0  0  0  0
   -2.0792   -1.1920    0.0041 H   0  0  0  0  0  0  0  0  0  0  0  0
   -0.0012   -1.3984   -0.0031 C   0  0  0  0  0  0  0  0  0  0  0  0
   -0.0019   -2.3963   -0.0082 H   0  0  0  0  0  0  0  0  0  0  0  0
    1.2026   -0.6982    0.0000 C   0  0  0  0  0  0  0  0  0  0  0  0
    2.0836   -1.1941    0.0029 H   0  0  0  0  0  0  0  0  0  0  0  0
    1.1976    0.6978    0.0008 C   0  0  0  0  0  0  0  0  0  0  0  0
    2.0657    1.1922   -0.0010 H   0  0  0  0  0  0  0  0  0  0  0  0
  1  5  1  0
  5  8  1  0
  1  2  1  0
  1  3  1  0
  1  4  1  0
  5  6  1  0
  5  7  1  0
  8  9  1  0
  8 10  1  0
  8 11  1  0
 12 16  1  0
 16 17  2  0
 17 19  1  0
 19 21  2  0
 21 23  1  0
 23 25  2  0
 25 16  1  0
 12 13  1  0
 12 14  1  0
 12 15  1  0
 17 18  1  0
 19 20  1  0
 21 22  1  0
 23 24  1  0
 25 26  1  0
M  CHG  1   8   1
M  END
>  <PDB_ID>  (637) 
pdb2ide

>  <RESIDUE_NAME>  (637) 
LYS   PHE

>  <FRAG_NAME>  (637) 
ETAM   MBZ

>  <FRAG_ATOM_NUM>  (637) 
fragi: 11  fragj: 15

>  <atom.prop.CHAIN_ID>  (637) 
A A A A A A A A A A A Z Z Z Z Z Z Z Z Z Z Z Z Z Z Z

>  <atom.prop.IS_HEAVY_ATOM>  (637) 
1 0 0 0 1 0 0 1 0 0 0 1 0 0 0 1 1 0 1 0 1 0 1 0 1 0

>  <DIFUSE_FUNC_ATOM>  (637) 
n/a

>  <FINAL_SINGLE_POINT_ENERGY>  (637) 
0

>  <NONCOV_INTER_ENERGY_QM>  (637) 
0

>  <FF_Energy>  (637) 
9.2

>  <QM_Energy>  (637) 
0.45

>  <source>  (637) 
ETAM_MBZ

>  <Index>  (637) 
6270

$$$$
ETAM-pdb2mpr-C-LYS-244:MBZ-pdb2mpr-C-PHE-117
     RDKit          3D

 26 25  0  0  0  0  0  0  0  0999 V2000
   -1.4069   -1.8450    5.7498 C   0  0  0  0  0  0  0  0  0  0  0  0
   -1.8467   -1.9999    6.6301 H   0  0  0  0  0  0  0  0  0  0  0  0
   -0.8130   -1.0468    5.7989 H   0  0  0  0  0  0  0  0  0  0  0  0
   -0.8078   -2.7188    5.4935 H   0  0  0  0  0  0  0  0  0  0  0  0
   -2.4864   -1.5802    4.7118 C   0  0  0  0  0  0  0  0  0  0  0  0
   -3.1269   -2.3730    4.7042 H   0  0  0  0  0  0  0  0  0  0  0  0
   -3.0315   -0.7729    5.0122 H   0  0  0  0  0  0  0  0  0  0  0  0
   -1.9958   -1.3438    3.3351 N   0  0  0  0  0  4  0  0  0  0  0  0
   -1.2810   -0.6437    3.3491 H   0  0  0  0  0  0  0  0  0  0  0  0
   -1.6208   -2.1934    2.9617 H   0  0  0  0  0  0  0  0  0  0  0  0
   -2.7529   -1.0335    2.7580 H   0  0  0  0  0  0  0  0  0  0  0  0
    0.0004    2.8867   -0.0081 C   0  0  0  0  0  0  0  0  0  0  0  0
   -0.6527    3.1936   -0.6849 H   0  0  0  0  0  0  0  0  0  0  0  0
    0.9142    3.1993   -0.2258 H   0  0  0  0  0  0  0  0  0  0  0  0
   -0.2806    3.3333    0.9456 H   0  0  0  0  0  0  0  0  0  0  0  0
    0.0031    1.3941   -0.0004 C   0  0  0  0  0  0  0  0  0  0  0  0
   -1.1950    0.6884    0.0005 C   0  0  0  0  0  0  0  0  0  0  0  0
   -2.0593    1.1879    0.0003 H   0  0  0  0  0  0  0  0  0  0  0  0
   -1.2036   -0.6879   -0.0000 C   0  0  0  0  0  0  0  0  0  0  0  0
   -2.0822   -1.1844    0.0007 H   0  0  0  0  0  0  0  0  0  0  0  0
   -0.0080   -1.3876    0.0003 C   0  0  0  0  0  0  0  0  0  0  0  0
   -0.0124   -2.3868    0.0005 H   0  0  0  0  0  0  0  0  0  0  0  0
    1.2036   -0.6961    0.0000 C   0  0  0  0  0  0  0  0  0  0  0  0
    2.0776   -1.2011    0.0017 H   0  0  0  0  0  0  0  0  0  0  0  0
    1.1999    0.6892   -0.0004 C   0  0  0  0  0  0  0  0  0  0  0  0
    2.0668    1.1883   -0.0016 H   0  0  0  0  0  0  0  0  0  0  0  0
  1  5  1  0
  5  8  1  0
  1  2  1  0
  1  3  1  0
  1  4  1  0
  5  6  1  0
  5  7  1  0
  8  9  1  0
  8 10  1  0
  8 11  1  0
 12 16  1  0
 16 17  2  0
 17 19  1  0
 19 21  2  0
 21 23  1  0
 23 25  2  0
 25 16  1  0
 12 13  1  0
 12 14  1  0
 12 15  1  0
 17 18  1  0
 19 20  1  0
 21 22  1  0
 23 24  1  0
 25 26  1  0
M  CHG  1   8   1
M  END
>  <PDB_ID>  (638) 
pdb2mpr

>  <RESIDUE_NAME>  (638) 
LYS   PHE

>  <FRAG_NAME>  (638) 
ETAM   MBZ

>  <FRAG_ATOM_NUM>  (638) 
fragi: 11  fragj: 15

>  <atom.prop.CHAIN_ID>  (638) 
A A A A A A A A A A A Z Z Z Z Z Z Z Z Z Z Z Z Z Z Z

>  <atom.prop.IS_HEAVY_ATOM>  (638) 
1 0 0 0 1 0 0 1 0 0 0 1 0 0 0 1 1 0 1 0 1 0 1 0 1 0

>  <DIFUSE_FUNC_ATOM>  (638) 
n/a

>  <FINAL_SINGLE_POINT_ENERGY>  (638) 
0

>  <NONCOV_INTER_ENERGY_QM>  (638) 
0

>  <FF_Energy>  (638) 
-3.68

>  <QM_Energy>  (638) 
-8.78

>  <source>  (638) 
ETAM_MBZ

>  <Index>  (638) 
6275

$$$$
ETAM-pdb1iyk-B-LYS-317:MBZ-pdb1iyk-B-PHE-386
     RDKit          3D

 26 25  0  0  0  0  0  0  0  0999 V2000
   -0.6977   -1.6869   -3.7552 C   0  0  0  0  0  0  0  0  0  0  0  0
   -0.7502   -2.3731   -3.0341 H   0  0  0  0  0  0  0  0  0  0  0  0
   -0.5430   -2.1270   -4.6354 H   0  0  0  0  0  0  0  0  0  0  0  0
   -1.6459   -1.1510   -3.7947 H   0  0  0  0  0  0  0  0  0  0  0  0
    0.4741   -0.7611   -3.4616 C   0  0  0  0  0  0  0  0  0  0  0  0
    0.5008   -0.0381   -4.1472 H   0  0  0  0  0  0  0  0  0  0  0  0
    0.3597   -0.3651   -2.5542 H   0  0  0  0  0  0  0  0  0  0  0  0
    1.7703   -1.5197   -3.5025 N   0  0  0  0  0  4  0  0  0  0  0  0
    1.7816   -2.0996   -4.3141 H   0  0  0  0  0  0  0  0  0  0  0  0
    2.5257   -0.8698   -3.5382 H   0  0  0  0  0  0  0  0  0  0  0  0
    1.8442   -2.0810   -2.6817 H   0  0  0  0  0  0  0  0  0  0  0  0
    0.0018    2.9095    0.0582 C   0  0  0  0  0  0  0  0  0  0  0  0
   -0.9343    3.2191    0.0317 H   0  0  0  0  0  0  0  0  0  0  0  0
    0.5201    3.2456   -0.7102 H   0  0  0  0  0  0  0  0  0  0  0  0
    0.4579    3.3046    0.9660 H   0  0  0  0  0  0  0  0  0  0  0  0
   -0.0003    1.4078    0.0003 C   0  0  0  0  0  0  0  0  0  0  0  0
   -1.1987    0.6977    0.0000 C   0  0  0  0  0  0  0  0  0  0  0  0
   -2.0656    1.1867   -0.0011 H   0  0  0  0  0  0  0  0  0  0  0  0
   -1.2070   -0.7000    0.0000 C   0  0  0  0  0  0  0  0  0  0  0  0
   -2.0834   -1.1893   -0.0004 H   0  0  0  0  0  0  0  0  0  0  0  0
   -0.0035   -1.4020    0.0016 C   0  0  0  0  0  0  0  0  0  0  0  0
   -0.0071   -2.3975    0.0033 H   0  0  0  0  0  0  0  0  0  0  0  0
    1.2070   -0.7017   -0.0000 C   0  0  0  0  0  0  0  0  0  0  0  0
    2.0851   -1.1986    0.0018 H   0  0  0  0  0  0  0  0  0  0  0  0
    1.2025    0.6984   -0.0019 C   0  0  0  0  0  0  0  0  0  0  0  0
    2.0682    1.1921   -0.0058 H   0  0  0  0  0  0  0  0  0  0  0  0
  1  5  1  0
  5  8  1  0
  1  2  1  0
  1  3  1  0
  1  4  1  0
  5  6  1  0
  5  7  1  0
  8  9  1  0
  8 10  1  0
  8 11  1  0
 12 16  1  0
 16 17  2  0
 17 19  1  0
 19 21  2  0
 21 23  1  0
 23 25  2  0
 25 16  1  0
 12 13  1  0
 12 14  1  0
 12 15  1  0
 17 18  1  0
 19 20  1  0
 21 22  1  0
 23 24  1  0
 25 26  1  0
M  CHG  1   8   1
M  END
>  <PDB_ID>  (639) 
pdb1iyk

>  <RESIDUE_NAME>  (639) 
LYS   PHE

>  <FRAG_NAME>  (639) 
ETAM   MBZ

>  <FRAG_ATOM_NUM>  (639) 
fragi: 11  fragj: 15

>  <atom.prop.CHAIN_ID>  (639) 
A A A A A A A A A A A Z Z Z Z Z Z Z Z Z Z Z Z Z Z Z

>  <atom.prop.IS_HEAVY_ATOM>  (639) 
1 0 0 0 1 0 0 1 0 0 0 1 0 0 0 1 1 0 1 0 1 0 1 0 1 0

>  <DIFUSE_FUNC_ATOM>  (639) 
n/a

>  <FINAL_SINGLE_POINT_ENERGY>  (639) 
0

>  <NONCOV_INTER_ENERGY_QM>  (639) 
0

>  <FF_Energy>  (639) 
-4.84

>  <QM_Energy>  (639) 
-11.32

>  <source>  (639) 
ETAM_MBZ

>  <Index>  (639) 
6293

$$$$
ETAM-pdb1j06-A-LYS-348:MBZ-pdb1j06-A-PHE-80
     RDKit          3D

 26 25  0  0  0  0  0  0  0  0999 V2000
    0.9772   -0.6882   -3.6383 C   0  0  0  0  0  0  0  0  0  0  0  0
    0.8369   -1.2520   -2.8308 H   0  0  0  0  0  0  0  0  0  0  0  0
    1.8982   -0.3136   -3.6423 H   0  0  0  0  0  0  0  0  0  0  0  0
    0.8364   -1.3002   -4.5292 H   0  0  0  0  0  0  0  0  0  0  0  0
   -0.0127    0.4686   -3.5956 C   0  0  0  0  0  0  0  0  0  0  0  0
    0.1990    1.0536   -2.8119 H   0  0  0  0  0  0  0  0  0  0  0  0
    0.0681    1.0022   -4.4386 H   0  0  0  0  0  0  0  0  0  0  0  0
   -1.4358   -0.0175   -3.4667 N   0  0  0  0  0  4  0  0  0  0  0  0
   -1.5676   -0.3837   -2.5499 H   0  0  0  0  0  0  0  0  0  0  0  0
   -2.0525    0.7490   -3.6219 H   0  0  0  0  0  0  0  0  0  0  0  0
   -1.5947   -0.7281   -4.1466 H   0  0  0  0  0  0  0  0  0  0  0  0
    0.0081    2.9014   -0.0543 C   0  0  0  0  0  0  0  0  0  0  0  0
   -0.3929    3.1818   -0.9177 H   0  0  0  0  0  0  0  0  0  0  0  0
    0.9492    3.2086    0.0121 H   0  0  0  0  0  0  0  0  0  0  0  0
   -0.5529    3.3899    0.7424 H   0  0  0  0  0  0  0  0  0  0  0  0
    0.0007    1.4009   -0.0009 C   0  0  0  0  0  0  0  0  0  0  0  0
   -1.2011    0.6885    0.0008 C   0  0  0  0  0  0  0  0  0  0  0  0
   -2.0644    1.1912    0.0017 H   0  0  0  0  0  0  0  0  0  0  0  0
   -1.2100   -0.6838   -0.0000 C   0  0  0  0  0  0  0  0  0  0  0  0
   -2.0831   -1.1874    0.0010 H   0  0  0  0  0  0  0  0  0  0  0  0
   -0.0018   -1.3927   -0.0004 C   0  0  0  0  0  0  0  0  0  0  0  0
   -0.0159   -2.3903   -0.0016 H   0  0  0  0  0  0  0  0  0  0  0  0
    1.2100   -0.7045    0.0000 C   0  0  0  0  0  0  0  0  0  0  0  0
    2.0835   -1.2018    0.0014 H   0  0  0  0  0  0  0  0  0  0  0  0
    1.2021    0.6917    0.0005 C   0  0  0  0  0  0  0  0  0  0  0  0
    2.0687    1.1891    0.0010 H   0  0  0  0  0  0  0  0  0  0  0  0
  1  5  1  0
  5  8  1  0
  1  2  1  0
  1  3  1  0
  1  4  1  0
  5  6  1  0
  5  7  1  0
  8  9  1  0
  8 10  1  0
  8 11  1  0
 12 16  1  0
 16 17  2  0
 17 19  1  0
 19 21  2  0
 21 23  1  0
 23 25  2  0
 25 16  1  0
 12 13  1  0
 12 14  1  0
 12 15  1  0
 17 18  1  0
 19 20  1  0
 21 22  1  0
 23 24  1  0
 25 26  1  0
M  CHG  1   8   1
M  END
>  <PDB_ID>  (640) 
pdb1j06

>  <RESIDUE_NAME>  (640) 
LYS   PHE

>  <FRAG_NAME>  (640) 
ETAM   MBZ

>  <FRAG_ATOM_NUM>  (640) 
fragi: 11  fragj: 15

>  <atom.prop.CHAIN_ID>  (640) 
A A A A A A A A A A A Z Z Z Z Z Z Z Z Z Z Z Z Z Z Z

>  <atom.prop.IS_HEAVY_ATOM>  (640) 
1 0 0 0 1 0 0 1 0 0 0 1 0 0 0 1 1 0 1 0 1 0 1 0 1 0

>  <DIFUSE_FUNC_ATOM>  (640) 
n/a

>  <FINAL_SINGLE_POINT_ENERGY>  (640) 
0

>  <NONCOV_INTER_ENERGY_QM>  (640) 
0

>  <FF_Energy>  (640) 
-7.57

>  <QM_Energy>  (640) 
-14.11

>  <source>  (640) 
ETAM_MBZ

>  <Index>  (640) 
6358

$$$$
ETAM-pdb2jlc-B-LYS-220:MBZ-pdb2jlc-B-PHE-216
     RDKit          3D

 26 25  0  0  0  0  0  0  0  0999 V2000
   -0.1728   -2.4168    3.7220 C   0  0  0  0  0  0  0  0  0  0  0  0
    0.3345   -2.6322    2.9005 H   0  0  0  0  0  0  0  0  0  0  0  0
   -0.2351   -3.2019    4.3206 H   0  0  0  0  0  0  0  0  0  0  0  0
    0.3333   -1.6077    4.2486 H   0  0  0  0  0  0  0  0  0  0  0  0
   -1.5969   -2.0015    3.3172 C   0  0  0  0  0  0  0  0  0  0  0  0
   -2.1111   -1.7692    4.1487 H   0  0  0  0  0  0  0  0  0  0  0  0
   -1.5395   -1.1833    2.7361 H   0  0  0  0  0  0  0  0  0  0  0  0
   -2.3288   -3.0787    2.5737 N   0  0  0  0  0  4  0  0  0  0  0  0
   -3.2303   -2.7394    2.3122 H   0  0  0  0  0  0  0  0  0  0  0  0
   -1.8091   -3.3228    1.7582 H   0  0  0  0  0  0  0  0  0  0  0  0
   -2.4251   -3.8758    3.1660 H   0  0  0  0  0  0  0  0  0  0  0  0
    0.0041    2.9286    0.0068 C   0  0  0  0  0  0  0  0  0  0  0  0
   -0.6626    3.2401   -0.6527 H   0  0  0  0  0  0  0  0  0  0  0  0
    0.9142    3.2319   -0.2297 H   0  0  0  0  0  0  0  0  0  0  0  0
   -0.2520    3.3686    0.9706 H   0  0  0  0  0  0  0  0  0  0  0  0
   -0.0020    1.4227    0.0011 C   0  0  0  0  0  0  0  0  0  0  0  0
   -1.2048    0.7163    0.0059 C   0  0  0  0  0  0  0  0  0  0  0  0
   -2.0707    1.1994    0.0122 H   0  0  0  0  0  0  0  0  0  0  0  0
   -1.2160   -0.7005   -0.0000 C   0  0  0  0  0  0  0  0  0  0  0  0
   -2.0906   -1.1846   -0.0041 H   0  0  0  0  0  0  0  0  0  0  0  0
    0.0013   -1.4264    0.0012 C   0  0  0  0  0  0  0  0  0  0  0  0
   -0.0129   -2.4119    0.0022 H   0  0  0  0  0  0  0  0  0  0  0  0
    1.2160   -0.7187    0.0000 C   0  0  0  0  0  0  0  0  0  0  0  0
    2.0951   -1.2019    0.0064 H   0  0  0  0  0  0  0  0  0  0  0  0
    1.2055    0.7066   -0.0083 C   0  0  0  0  0  0  0  0  0  0  0  0
    2.0725    1.1933   -0.0217 H   0  0  0  0  0  0  0  0  0  0  0  0
  1  5  1  0
  5  8  1  0
  1  2  1  0
  1  3  1  0
  1  4  1  0
  5  6  1  0
  5  7  1  0
  8  9  1  0
  8 10  1  0
  8 11  1  0
 12 16  1  0
 16 17  2  0
 17 19  1  0
 19 21  2  0
 21 23  1  0
 23 25  2  0
 25 16  1  0
 12 13  1  0
 12 14  1  0
 12 15  1  0
 17 18  1  0
 19 20  1  0
 21 22  1  0
 23 24  1  0
 25 26  1  0
M  CHG  1   8   1
M  END
>  <PDB_ID>  (641) 
pdb2jlc

>  <RESIDUE_NAME>  (641) 
LYS   PHE

>  <FRAG_NAME>  (641) 
ETAM   MBZ

>  <FRAG_ATOM_NUM>  (641) 
fragi: 11  fragj: 15

>  <atom.prop.CHAIN_ID>  (641) 
A A A A A A A A A A A Z Z Z Z Z Z Z Z Z Z Z Z Z Z Z

>  <atom.prop.IS_HEAVY_ATOM>  (641) 
1 0 0 0 1 0 0 1 0 0 0 1 0 0 0 1 1 0 1 0 1 0 1 0 1 0

>  <DIFUSE_FUNC_ATOM>  (641) 
n/a

>  <FINAL_SINGLE_POINT_ENERGY>  (641) 
0

>  <NONCOV_INTER_ENERGY_QM>  (641) 
0

>  <FF_Energy>  (641) 
-2.13

>  <QM_Energy>  (641) 
-7.72

>  <source>  (641) 
ETAM_MBZ

>  <Index>  (641) 
6361

$$$$
ETAM-pdb1j0h-B-LYS-297:MBZ-pdb1j0h-A-PHE-119
     RDKit          3D

 26 25  0  0  0  0  0  0  0  0999 V2000
   -1.1991   -1.8798   -3.6297 C   0  0  0  0  0  0  0  0  0  0  0  0
   -2.0807   -1.6217   -3.2491 H   0  0  0  0  0  0  0  0  0  0  0  0
   -0.8275   -2.6627   -3.1422 H   0  0  0  0  0  0  0  0  0  0  0  0
   -1.3339   -2.1486   -4.6774 H   0  0  0  0  0  0  0  0  0  0  0  0
   -0.2402   -0.7092   -3.4719 C   0  0  0  0  0  0  0  0  0  0  0  0
   -0.1260   -0.5114   -2.4940 H   0  0  0  0  0  0  0  0  0  0  0  0
    0.6521   -0.9653   -3.8545 H   0  0  0  0  0  0  0  0  0  0  0  0
   -0.7327    0.5182   -4.1637 N   0  0  0  0  0  4  0  0  0  0  0  0
   -1.5631    0.2985   -4.6724 H   0  0  0  0  0  0  0  0  0  0  0  0
   -0.9311    1.2224   -3.4836 H   0  0  0  0  0  0  0  0  0  0  0  0
   -0.0297    0.8463   -4.7928 H   0  0  0  0  0  0  0  0  0  0  0  0
   -0.0001    2.9139    0.0231 C   0  0  0  0  0  0  0  0  0  0  0  0
   -0.8269    3.2248   -0.4191 H   0  0  0  0  0  0  0  0  0  0  0  0
    0.8060    3.2271   -0.4540 H   0  0  0  0  0  0  0  0  0  0  0  0
    0.0208    3.3399    1.0262 H   0  0  0  0  0  0  0  0  0  0  0  0
    0.0018    1.4069    0.0006 C   0  0  0  0  0  0  0  0  0  0  0  0
   -1.1960    0.6967   -0.0001 C   0  0  0  0  0  0  0  0  0  0  0  0
   -2.0633    1.1850   -0.0022 H   0  0  0  0  0  0  0  0  0  0  0  0
   -1.2036   -0.7018   -0.0000 C   0  0  0  0  0  0  0  0  0  0  0  0
   -2.0810   -1.1907    0.0015 H   0  0  0  0  0  0  0  0  0  0  0  0
   -0.0028   -1.3994   -0.0002 C   0  0  0  0  0  0  0  0  0  0  0  0
   -0.0034   -2.3964   -0.0010 H   0  0  0  0  0  0  0  0  0  0  0  0
    1.2036   -0.6987   -0.0000 C   0  0  0  0  0  0  0  0  0  0  0  0
    2.0825   -1.1955    0.0018 H   0  0  0  0  0  0  0  0  0  0  0  0
    1.1971    0.6962   -0.0003 C   0  0  0  0  0  0  0  0  0  0  0  0
    2.0669    1.1911   -0.0024 H   0  0  0  0  0  0  0  0  0  0  0  0
  1  5  1  0
  5  8  1  0
  1  2  1  0
  1  3  1  0
  1  4  1  0
  5  6  1  0
  5  7  1  0
  8  9  1  0
  8 10  1  0
  8 11  1  0
 12 16  1  0
 16 17  2  0
 17 19  1  0
 19 21  2  0
 21 23  1  0
 23 25  2  0
 25 16  1  0
 12 13  1  0
 12 14  1  0
 12 15  1  0
 17 18  1  0
 19 20  1  0
 21 22  1  0
 23 24  1  0
 25 26  1  0
M  CHG  1   8   1
M  END
>  <PDB_ID>  (642) 
pdb1j0h

>  <RESIDUE_NAME>  (642) 
LYS   PHE

>  <FRAG_NAME>  (642) 
ETAM   MBZ

>  <FRAG_ATOM_NUM>  (642) 
fragi: 11  fragj: 15

>  <atom.prop.CHAIN_ID>  (642) 
A A A A A A A A A A A Z Z Z Z Z Z Z Z Z Z Z Z Z Z Z

>  <atom.prop.IS_HEAVY_ATOM>  (642) 
1 0 0 0 1 0 0 1 0 0 0 1 0 0 0 1 1 0 1 0 1 0 1 0 1 0

>  <DIFUSE_FUNC_ATOM>  (642) 
n/a

>  <FINAL_SINGLE_POINT_ENERGY>  (642) 
0

>  <NONCOV_INTER_ENERGY_QM>  (642) 
0

>  <FF_Energy>  (642) 
-5.75

>  <QM_Energy>  (642) 
-10.88

>  <source>  (642) 
ETAM_MBZ

>  <Index>  (642) 
6367

$$$$
ETAM-pdb2ns2-A-LYS-191:MBZ-pdb2ns2-B-PHE-69
     RDKit          3D

 26 25  0  0  0  0  0  0  0  0999 V2000
    1.9183   -3.4741    3.4425 C   0  0  0  0  0  0  0  0  0  0  0  0
    2.4343   -3.5350    2.5962 H   0  0  0  0  0  0  0  0  0  0  0  0
    1.3081   -4.2504    3.5383 H   0  0  0  0  0  0  0  0  0  0  0  0
    2.6088   -3.4496    4.2855 H   0  0  0  0  0  0  0  0  0  0  0  0
    1.0785   -2.2057    3.4024 C   0  0  0  0  0  0  0  0  0  0  0  0
    0.5637   -2.1856    2.5381 H   0  0  0  0  0  0  0  0  0  0  0  0
    0.4211   -2.2288    4.1633 H   0  0  0  0  0  0  0  0  0  0  0  0
    1.9054   -0.9765    3.5082 N   0  0  0  0  0  4  0  0  0  0  0  0
    2.7433   -1.1811    4.0149 H   0  0  0  0  0  0  0  0  0  0  0  0
    2.1409   -0.6535    2.5920 H   0  0  0  0  0  0  0  0  0  0  0  0
    1.3892   -0.2681    3.9889 H   0  0  0  0  0  0  0  0  0  0  0  0
   -0.0247    2.9052   -0.0515 C   0  0  0  0  0  0  0  0  0  0  0  0
   -0.5730    3.2282    0.7086 H   0  0  0  0  0  0  0  0  0  0  0  0
   -0.4255    3.1772   -0.9172 H   0  0  0  0  0  0  0  0  0  0  0  0
    0.9541    3.3792    0.0222 H   0  0  0  0  0  0  0  0  0  0  0  0
    0.0015    1.4045   -0.0020 C   0  0  0  0  0  0  0  0  0  0  0  0
   -1.1956    0.6880    0.0011 C   0  0  0  0  0  0  0  0  0  0  0  0
   -2.0638    1.1804    0.0032 H   0  0  0  0  0  0  0  0  0  0  0  0
   -1.2054   -0.7041    0.0000 C   0  0  0  0  0  0  0  0  0  0  0  0
   -2.0824   -1.1937    0.0014 H   0  0  0  0  0  0  0  0  0  0  0  0
   -0.0062   -1.3968   -0.0014 C   0  0  0  0  0  0  0  0  0  0  0  0
   -0.0013   -2.3947   -0.0040 H   0  0  0  0  0  0  0  0  0  0  0  0
    1.2054   -0.6934   -0.0000 C   0  0  0  0  0  0  0  0  0  0  0  0
    2.0819   -1.1926    0.0007 H   0  0  0  0  0  0  0  0  0  0  0  0
    1.2003    0.7018    0.0024 C   0  0  0  0  0  0  0  0  0  0  0  0
    2.0672    1.1970    0.0062 H   0  0  0  0  0  0  0  0  0  0  0  0
  1  5  1  0
  5  8  1  0
  1  2  1  0
  1  3  1  0
  1  4  1  0
  5  6  1  0
  5  7  1  0
  8  9  1  0
  8 10  1  0
  8 11  1  0
 12 16  1  0
 16 17  2  0
 17 19  1  0
 19 21  2  0
 21 23  1  0
 23 25  2  0
 25 16  1  0
 12 13  1  0
 12 14  1  0
 12 15  1  0
 17 18  1  0
 19 20  1  0
 21 22  1  0
 23 24  1  0
 25 26  1  0
M  CHG  1   8   1
M  END
>  <PDB_ID>  (643) 
pdb2ns2

>  <RESIDUE_NAME>  (643) 
LYS   PHE

>  <FRAG_NAME>  (643) 
ETAM   MBZ

>  <FRAG_ATOM_NUM>  (643) 
fragi: 11  fragj: 15

>  <atom.prop.CHAIN_ID>  (643) 
A A A A A A A A A A A Z Z Z Z Z Z Z Z Z Z Z Z Z Z Z

>  <atom.prop.IS_HEAVY_ATOM>  (643) 
1 0 0 0 1 0 0 1 0 0 0 1 0 0 0 1 1 0 1 0 1 0 1 0 1 0

>  <DIFUSE_FUNC_ATOM>  (643) 
n/a

>  <FINAL_SINGLE_POINT_ENERGY>  (643) 
0

>  <NONCOV_INTER_ENERGY_QM>  (643) 
0

>  <FF_Energy>  (643) 
-4.68

>  <QM_Energy>  (643) 
-10.92

>  <source>  (643) 
ETAM_MBZ

>  <Index>  (643) 
6371

$$$$
ETAM-pdb2nru-C-LYS-213:MBZ-pdb2nru-C-PHE-197
     RDKit          3D

 26 25  0  0  0  0  0  0  0  0999 V2000
   -1.4923   -1.5813   -4.2016 C   0  0  0  0  0  0  0  0  0  0  0  0
   -0.7131   -1.9937   -4.6706 H   0  0  0  0  0  0  0  0  0  0  0  0
   -1.2015   -0.7514   -3.7300 H   0  0  0  0  0  0  0  0  0  0  0  0
   -2.2464   -1.3171   -4.9430 H   0  0  0  0  0  0  0  0  0  0  0  0
   -2.0009   -2.5830   -3.1417 C   0  0  0  0  0  0  0  0  0  0  0  0
   -2.2364   -3.4428   -3.5990 H   0  0  0  0  0  0  0  0  0  0  0  0
   -1.2663   -2.7538   -2.4817 H   0  0  0  0  0  0  0  0  0  0  0  0
   -3.2195   -2.0783   -2.3948 N   0  0  0  0  0  4  0  0  0  0  0  0
   -2.9849   -1.9821   -1.4325 H   0  0  0  0  0  0  0  0  0  0  0  0
   -3.4840   -1.1981   -2.7759 H   0  0  0  0  0  0  0  0  0  0  0  0
   -3.9559   -2.7372   -2.5062 H   0  0  0  0  0  0  0  0  0  0  0  0
    0.0347    2.9169    0.0178 C   0  0  0  0  0  0  0  0  0  0  0  0
    0.8998    3.2085   -0.3682 H   0  0  0  0  0  0  0  0  0  0  0  0
   -0.0437    3.2035    0.9636 H   0  0  0  0  0  0  0  0  0  0  0  0
   -0.7587    3.4118   -0.5422 H   0  0  0  0  0  0  0  0  0  0  0  0
   -0.0009    1.4012   -0.0128 C   0  0  0  0  0  0  0  0  0  0  0  0
   -1.1926    0.6947    0.0155 C   0  0  0  0  0  0  0  0  0  0  0  0
   -2.0593    1.1916    0.0468 H   0  0  0  0  0  0  0  0  0  0  0  0
   -1.1989   -0.6800   -0.0000 C   0  0  0  0  0  0  0  0  0  0  0  0
   -2.0790   -1.1787   -0.0100 H   0  0  0  0  0  0  0  0  0  0  0  0
   -0.0028   -1.3897   -0.0005 C   0  0  0  0  0  0  0  0  0  0  0  0
   -0.0221   -2.3893   -0.0019 H   0  0  0  0  0  0  0  0  0  0  0  0
    1.1989   -0.7096    0.0000 C   0  0  0  0  0  0  0  0  0  0  0  0
    2.0771   -1.2068    0.0038 H   0  0  0  0  0  0  0  0  0  0  0  0
    1.1963    0.6835   -0.0022 C   0  0  0  0  0  0  0  0  0  0  0  0
    2.0655    1.1783    0.0027 H   0  0  0  0  0  0  0  0  0  0  0  0
  1  5  1  0
  5  8  1  0
  1  2  1  0
  1  3  1  0
  1  4  1  0
  5  6  1  0
  5  7  1  0
  8  9  1  0
  8 10  1  0
  8 11  1  0
 12 16  1  0
 16 17  2  0
 17 19  1  0
 19 21  2  0
 21 23  1  0
 23 25  2  0
 25 16  1  0
 12 13  1  0
 12 14  1  0
 12 15  1  0
 17 18  1  0
 19 20  1  0
 21 22  1  0
 23 24  1  0
 25 26  1  0
M  CHG  1   8   1
M  END
>  <PDB_ID>  (644) 
pdb2nru

>  <RESIDUE_NAME>  (644) 
LYS   PHE

>  <FRAG_NAME>  (644) 
ETAM   MBZ

>  <FRAG_ATOM_NUM>  (644) 
fragi: 11  fragj: 15

>  <atom.prop.CHAIN_ID>  (644) 
A A A A A A A A A A A Z Z Z Z Z Z Z Z Z Z Z Z Z Z Z

>  <atom.prop.IS_HEAVY_ATOM>  (644) 
1 0 0 0 1 0 0 1 0 0 0 1 0 0 0 1 1 0 1 0 1 0 1 0 1 0

>  <DIFUSE_FUNC_ATOM>  (644) 
n/a

>  <FINAL_SINGLE_POINT_ENERGY>  (644) 
0

>  <NONCOV_INTER_ENERGY_QM>  (644) 
0

>  <FF_Energy>  (644) 
-1.12

>  <QM_Energy>  (644) 
-7.04

>  <source>  (644) 
ETAM_MBZ

>  <Index>  (644) 
6373

$$$$
ETAM-pdb2ns7-D-LYS-108:MBZ-pdb2ns7-D-PHE-67
     RDKit          3D

 26 25  0  0  0  0  0  0  0  0999 V2000
    0.6706   -2.5828    5.1853 C   0  0  0  0  0  0  0  0  0  0  0  0
    1.6092   -2.8200    5.4283 H   0  0  0  0  0  0  0  0  0  0  0  0
    0.0434   -3.2748    5.5362 H   0  0  0  0  0  0  0  0  0  0  0  0
    0.4237   -1.6224    5.6378 H   0  0  0  0  0  0  0  0  0  0  0  0
    0.5564   -2.5535    3.6660 C   0  0  0  0  0  0  0  0  0  0  0  0
    0.5791   -3.4960    3.3218 H   0  0  0  0  0  0  0  0  0  0  0  0
   -0.3216   -2.1380    3.4151 H   0  0  0  0  0  0  0  0  0  0  0  0
    1.6621   -1.7766    3.0390 N   0  0  0  0  0  4  0  0  0  0  0  0
    2.2908   -1.4634    3.7499 H   0  0  0  0  0  0  0  0  0  0  0  0
    2.1520   -2.3609    2.3929 H   0  0  0  0  0  0  0  0  0  0  0  0
    1.2809   -0.9885    2.5571 H   0  0  0  0  0  0  0  0  0  0  0  0
   -0.0000    2.8972    0.0001 C   0  0  0  0  0  0  0  0  0  0  0  0
    0.7277    3.2067    0.5959 H   0  0  0  0  0  0  0  0  0  0  0  0
   -0.8826    3.2072    0.3248 H   0  0  0  0  0  0  0  0  0  0  0  0
    0.1647    3.3498   -0.9777 H   0  0  0  0  0  0  0  0  0  0  0  0
    0.0001    1.3984   -0.0041 C   0  0  0  0  0  0  0  0  0  0  0  0
   -1.1944    0.6936   -0.0015 C   0  0  0  0  0  0  0  0  0  0  0  0
   -2.0611    1.1844   -0.0020 H   0  0  0  0  0  0  0  0  0  0  0  0
   -1.2003   -0.6961    0.0000 C   0  0  0  0  0  0  0  0  0  0  0  0
   -2.0761   -1.1898    0.0012 H   0  0  0  0  0  0  0  0  0  0  0  0
    0.0015   -1.3914    0.0008 C   0  0  0  0  0  0  0  0  0  0  0  0
   -0.0019   -2.3899    0.0018 H   0  0  0  0  0  0  0  0  0  0  0  0
    1.2003   -0.6938    0.0000 C   0  0  0  0  0  0  0  0  0  0  0  0
    2.0823   -1.1934   -0.0027 H   0  0  0  0  0  0  0  0  0  0  0  0
    1.1928    0.6893    0.0047 C   0  0  0  0  0  0  0  0  0  0  0  0
    2.0627    1.1891    0.0132 H   0  0  0  0  0  0  0  0  0  0  0  0
  1  5  1  0
  5  8  1  0
  1  2  1  0
  1  3  1  0
  1  4  1  0
  5  6  1  0
  5  7  1  0
  8  9  1  0
  8 10  1  0
  8 11  1  0
 12 16  1  0
 16 17  2  0
 17 19  1  0
 19 21  2  0
 21 23  1  0
 23 25  2  0
 25 16  1  0
 12 13  1  0
 12 14  1  0
 12 15  1  0
 17 18  1  0
 19 20  1  0
 21 22  1  0
 23 24  1  0
 25 26  1  0
M  CHG  1   8   1
M  END
>  <PDB_ID>  (645) 
pdb2ns7

>  <RESIDUE_NAME>  (645) 
LYS   PHE

>  <FRAG_NAME>  (645) 
ETAM   MBZ

>  <FRAG_ATOM_NUM>  (645) 
fragi: 11  fragj: 15

>  <atom.prop.CHAIN_ID>  (645) 
A A A A A A A A A A A Z Z Z Z Z Z Z Z Z Z Z Z Z Z Z

>  <atom.prop.IS_HEAVY_ATOM>  (645) 
1 0 0 0 1 0 0 1 0 0 0 1 0 0 0 1 1 0 1 0 1 0 1 0 1 0

>  <DIFUSE_FUNC_ATOM>  (645) 
n/a

>  <FINAL_SINGLE_POINT_ENERGY>  (645) 
0

>  <NONCOV_INTER_ENERGY_QM>  (645) 
0

>  <FF_Energy>  (645) 
-4.51

>  <QM_Energy>  (645) 
-11.34

>  <source>  (645) 
ETAM_MBZ

>  <Index>  (645) 
6378

$$$$
ETAM-pdb1j31-A-LYS-90:MBZ-pdb1j31-A-PHE-57
     RDKit          3D

 26 25  0  0  0  0  0  0  0  0999 V2000
   -0.2151   -1.9919    3.9985 C   0  0  0  0  0  0  0  0  0  0  0  0
    0.0910   -1.9940    4.9429 H   0  0  0  0  0  0  0  0  0  0  0  0
    0.1473   -2.7779    3.5113 H   0  0  0  0  0  0  0  0  0  0  0  0
   -1.3040   -2.0369    3.9812 H   0  0  0  0  0  0  0  0  0  0  0  0
    0.2821   -0.7304    3.3272 C   0  0  0  0  0  0  0  0  0  0  0  0
    0.0563   -0.7547    2.3581 H   0  0  0  0  0  0  0  0  0  0  0  0
   -0.1345    0.0649    3.7565 H   0  0  0  0  0  0  0  0  0  0  0  0
    1.7883   -0.6157    3.4663 N   0  0  0  0  0  4  0  0  0  0  0  0
    2.0072   -0.4552    4.4230 H   0  0  0  0  0  0  0  0  0  0  0  0
    2.2017   -1.4657    3.1551 H   0  0  0  0  0  0  0  0  0  0  0  0
    2.1011    0.1457    2.9083 H   0  0  0  0  0  0  0  0  0  0  0  0
   -0.0117    2.9073    0.0535 C   0  0  0  0  0  0  0  0  0  0  0  0
   -0.8045    3.2244   -0.4403 H   0  0  0  0  0  0  0  0  0  0  0  0
    0.8266    3.2343   -0.3500 H   0  0  0  0  0  0  0  0  0  0  0  0
   -0.0698    3.2992    1.0688 H   0  0  0  0  0  0  0  0  0  0  0  0
   -0.0001    1.4055    0.0004 C   0  0  0  0  0  0  0  0  0  0  0  0
   -1.1904    0.6963    0.0008 C   0  0  0  0  0  0  0  0  0  0  0  0
   -2.0620    1.1774    0.0004 H   0  0  0  0  0  0  0  0  0  0  0  0
   -1.1968   -0.7096   -0.0000 C   0  0  0  0  0  0  0  0  0  0  0  0
   -2.0797   -1.1910    0.0013 H   0  0  0  0  0  0  0  0  0  0  0  0
   -0.0074   -1.3972   -0.0002 C   0  0  0  0  0  0  0  0  0  0  0  0
   -0.0040   -2.3992   -0.0007 H   0  0  0  0  0  0  0  0  0  0  0  0
    1.1968   -0.7030    0.0000 C   0  0  0  0  0  0  0  0  0  0  0  0
    2.0781   -1.1942    0.0021 H   0  0  0  0  0  0  0  0  0  0  0  0
    1.1979    0.7081   -0.0010 C   0  0  0  0  0  0  0  0  0  0  0  0
    2.0647    1.1926   -0.0032 H   0  0  0  0  0  0  0  0  0  0  0  0
  1  5  1  0
  5  8  1  0
  1  2  1  0
  1  3  1  0
  1  4  1  0
  5  6  1  0
  5  7  1  0
  8  9  1  0
  8 10  1  0
  8 11  1  0
 12 16  1  0
 16 17  2  0
 17 19  1  0
 19 21  2  0
 21 23  1  0
 23 25  2  0
 25 16  1  0
 12 13  1  0
 12 14  1  0
 12 15  1  0
 17 18  1  0
 19 20  1  0
 21 22  1  0
 23 24  1  0
 25 26  1  0
M  CHG  1   8   1
M  END
>  <PDB_ID>  (646) 
pdb1j31

>  <RESIDUE_NAME>  (646) 
LYS   PHE

>  <FRAG_NAME>  (646) 
ETAM   MBZ

>  <FRAG_ATOM_NUM>  (646) 
fragi: 11  fragj: 15

>  <atom.prop.CHAIN_ID>  (646) 
A A A A A A A A A A A Z Z Z Z Z Z Z Z Z Z Z Z Z Z Z

>  <atom.prop.IS_HEAVY_ATOM>  (646) 
1 0 0 0 1 0 0 1 0 0 0 1 0 0 0 1 1 0 1 0 1 0 1 0 1 0

>  <DIFUSE_FUNC_ATOM>  (646) 
n/a

>  <FINAL_SINGLE_POINT_ENERGY>  (646) 
0

>  <NONCOV_INTER_ENERGY_QM>  (646) 
0

>  <FF_Energy>  (646) 
-3.87

>  <QM_Energy>  (646) 
-11.58

>  <source>  (646) 
ETAM_MBZ

>  <Index>  (646) 
6423

$$$$
ETAM-pdb1j31-B-LYS-90:MBZ-pdb1j31-B-PHE-57
     RDKit          3D

 26 25  0  0  0  0  0  0  0  0999 V2000
   -0.5876   -1.5051    3.4004 C   0  0  0  0  0  0  0  0  0  0  0  0
   -0.1884   -2.1540    2.7431 H   0  0  0  0  0  0  0  0  0  0  0  0
   -0.9212   -0.7025    2.8944 H   0  0  0  0  0  0  0  0  0  0  0  0
   -1.4375   -1.9852    3.8853 H   0  0  0  0  0  0  0  0  0  0  0  0
    0.4557   -1.0780    4.3606 C   0  0  0  0  0  0  0  0  0  0  0  0
    0.1291   -0.3098    4.9087 H   0  0  0  0  0  0  0  0  0  0  0  0
    0.7072   -1.8358    4.9588 H   0  0  0  0  0  0  0  0  0  0  0  0
    1.6844   -0.6373    3.6151 N   0  0  0  0  0  4  0  0  0  0  0  0
    2.4603   -1.1858    3.9173 H   0  0  0  0  0  0  0  0  0  0  0  0
    1.5350   -0.7674    2.6381 H   0  0  0  0  0  0  0  0  0  0  0  0
    1.8526    0.3266    3.8087 H   0  0  0  0  0  0  0  0  0  0  0  0
   -0.0129    2.9075    0.0421 C   0  0  0  0  0  0  0  0  0  0  0  0
   -0.7622    3.2254   -0.5172 H   0  0  0  0  0  0  0  0  0  0  0  0
    0.8560    3.2285   -0.2994 H   0  0  0  0  0  0  0  0  0  0  0  0
   -0.1488    3.3158    1.0436 H   0  0  0  0  0  0  0  0  0  0  0  0
   -0.0041    1.4052    0.0007 C   0  0  0  0  0  0  0  0  0  0  0  0
   -1.1965    0.6949   -0.0012 C   0  0  0  0  0  0  0  0  0  0  0  0
   -2.0661    1.1829   -0.0046 H   0  0  0  0  0  0  0  0  0  0  0  0
   -1.2002   -0.6962   -0.0000 C   0  0  0  0  0  0  0  0  0  0  0  0
   -2.0775   -1.1904    0.0017 H   0  0  0  0  0  0  0  0  0  0  0  0
    0.0019   -1.3965    0.0013 C   0  0  0  0  0  0  0  0  0  0  0  0
   -0.0060   -2.3942    0.0029 H   0  0  0  0  0  0  0  0  0  0  0  0
    1.2002   -0.7017   -0.0000 C   0  0  0  0  0  0  0  0  0  0  0  0
    2.0838   -1.1970    0.0013 H   0  0  0  0  0  0  0  0  0  0  0  0
    1.1988    0.6943   -0.0008 C   0  0  0  0  0  0  0  0  0  0  0  0
    2.0647    1.1898   -0.0032 H   0  0  0  0  0  0  0  0  0  0  0  0
  1  5  1  0
  5  8  1  0
  1  2  1  0
  1  3  1  0
  1  4  1  0
  5  6  1  0
  5  7  1  0
  8  9  1  0
  8 10  1  0
  8 11  1  0
 12 16  1  0
 16 17  2  0
 17 19  1  0
 19 21  2  0
 21 23  1  0
 23 25  2  0
 25 16  1  0
 12 13  1  0
 12 14  1  0
 12 15  1  0
 17 18  1  0
 19 20  1  0
 21 22  1  0
 23 24  1  0
 25 26  1  0
M  CHG  1   8   1
M  END
>  <PDB_ID>  (647) 
pdb1j31

>  <RESIDUE_NAME>  (647) 
LYS   PHE

>  <FRAG_NAME>  (647) 
ETAM   MBZ

>  <FRAG_ATOM_NUM>  (647) 
fragi: 11  fragj: 15

>  <atom.prop.CHAIN_ID>  (647) 
A A A A A A A A A A A Z Z Z Z Z Z Z Z Z Z Z Z Z Z Z

>  <atom.prop.IS_HEAVY_ATOM>  (647) 
1 0 0 0 1 0 0 1 0 0 0 1 0 0 0 1 1 0 1 0 1 0 1 0 1 0

>  <DIFUSE_FUNC_ATOM>  (647) 
n/a

>  <FINAL_SINGLE_POINT_ENERGY>  (647) 
0

>  <NONCOV_INTER_ENERGY_QM>  (647) 
0

>  <FF_Energy>  (647) 
-5.81

>  <QM_Energy>  (647) 
-11.61

>  <source>  (647) 
ETAM_MBZ

>  <Index>  (647) 
6425

$$$$
ETAM-pdb1j31-D-LYS-161:MBZ-pdb1j31-C-PHE-261
     RDKit          3D

 26 25  0  0  0  0  0  0  0  0999 V2000
    4.8183   -0.1846    2.5471 C   0  0  0  0  0  0  0  0  0  0  0  0
    5.6525    0.1418    2.0957 H   0  0  0  0  0  0  0  0  0  0  0  0
    5.0529   -0.9481    3.1535 H   0  0  0  0  0  0  0  0  0  0  0  0
    4.4003    0.6260    3.1441 H   0  0  0  0  0  0  0  0  0  0  0  0
    3.8638   -0.6657    1.5115 C   0  0  0  0  0  0  0  0  0  0  0  0
    2.9985   -0.9189    1.9384 H   0  0  0  0  0  0  0  0  0  0  0  0
    3.7095    0.0497    0.8334 H   0  0  0  0  0  0  0  0  0  0  0  0
    4.4314   -1.8596    0.8300 N   0  0  0  0  0  4  0  0  0  0  0  0
    4.5899   -1.6480   -0.1341 H   0  0  0  0  0  0  0  0  0  0  0  0
    5.2969   -2.1096    1.2639 H   0  0  0  0  0  0  0  0  0  0  0  0
    3.7881   -2.6208    0.9044 H   0  0  0  0  0  0  0  0  0  0  0  0
   -0.0075    2.8958   -0.1413 C   0  0  0  0  0  0  0  0  0  0  0  0
    0.8915    3.2240    0.0761 H   0  0  0  0  0  0  0  0  0  0  0  0
   -0.6942    3.2506    0.4630 H   0  0  0  0  0  0  0  0  0  0  0  0
   -0.2510    3.1966   -1.1602 H   0  0  0  0  0  0  0  0  0  0  0  0
    0.0008    1.4036   -0.0029 C   0  0  0  0  0  0  0  0  0  0  0  0
   -1.1972    0.6969    0.0026 C   0  0  0  0  0  0  0  0  0  0  0  0
   -2.0625    1.1878    0.0071 H   0  0  0  0  0  0  0  0  0  0  0  0
   -1.1990   -0.6901   -0.0000 C   0  0  0  0  0  0  0  0  0  0  0  0
   -2.0763   -1.1874   -0.0003 H   0  0  0  0  0  0  0  0  0  0  0  0
    0.0018   -1.3896   -0.0006 C   0  0  0  0  0  0  0  0  0  0  0  0
   -0.0129   -2.3921   -0.0024 H   0  0  0  0  0  0  0  0  0  0  0  0
    1.1990   -0.7084   -0.0000 C   0  0  0  0  0  0  0  0  0  0  0  0
    2.0800   -1.2024    0.0013 H   0  0  0  0  0  0  0  0  0  0  0  0
    1.1947    0.6876    0.0010 C   0  0  0  0  0  0  0  0  0  0  0  0
    2.0660    1.1807    0.0041 H   0  0  0  0  0  0  0  0  0  0  0  0
  1  5  1  0
  5  8  1  0
  1  2  1  0
  1  3  1  0
  1  4  1  0
  5  6  1  0
  5  7  1  0
  8  9  1  0
  8 10  1  0
  8 11  1  0
 12 16  1  0
 16 17  2  0
 17 19  1  0
 19 21  2  0
 21 23  1  0
 23 25  2  0
 25 16  1  0
 12 13  1  0
 12 14  1  0
 12 15  1  0
 17 18  1  0
 19 20  1  0
 21 22  1  0
 23 24  1  0
 25 26  1  0
M  CHG  1   8   1
M  END
>  <PDB_ID>  (648) 
pdb1j31

>  <RESIDUE_NAME>  (648) 
LYS   PHE

>  <FRAG_NAME>  (648) 
ETAM   MBZ

>  <FRAG_ATOM_NUM>  (648) 
fragi: 11  fragj: 15

>  <atom.prop.CHAIN_ID>  (648) 
A A A A A A A A A A A Z Z Z Z Z Z Z Z Z Z Z Z Z Z Z

>  <atom.prop.IS_HEAVY_ATOM>  (648) 
1 0 0 0 1 0 0 1 0 0 0 1 0 0 0 1 1 0 1 0 1 0 1 0 1 0

>  <DIFUSE_FUNC_ATOM>  (648) 
n/a

>  <FINAL_SINGLE_POINT_ENERGY>  (648) 
0

>  <NONCOV_INTER_ENERGY_QM>  (648) 
0

>  <FF_Energy>  (648) 
5.33

>  <QM_Energy>  (648) 
-1.7

>  <source>  (648) 
ETAM_MBZ

>  <Index>  (648) 
6431

$$$$
ETAM-pdb1j36-B-LYS-241:MBZ-pdb1j36-B-PHE-237
     RDKit          3D

 26 25  0  0  0  0  0  0  0  0999 V2000
    1.1723   -2.1165    4.1922 C   0  0  0  0  0  0  0  0  0  0  0  0
    1.0510   -1.5145    3.3995 H   0  0  0  0  0  0  0  0  0  0  0  0
    2.0530   -1.9125    4.6259 H   0  0  0  0  0  0  0  0  0  0  0  0
    0.3821   -1.8945    4.9095 H   0  0  0  0  0  0  0  0  0  0  0  0
    1.1930   -3.5680    3.7041 C   0  0  0  0  0  0  0  0  0  0  0  0
    2.1209   -3.7797    3.3557 H   0  0  0  0  0  0  0  0  0  0  0  0
    1.0221   -4.1784    4.4946 H   0  0  0  0  0  0  0  0  0  0  0  0
    0.1914   -3.8874    2.6259 N   0  0  0  0  0  4  0  0  0  0  0  0
    0.3283   -4.8282    2.3270 H   0  0  0  0  0  0  0  0  0  0  0  0
   -0.7276   -3.7769    2.9961 H   0  0  0  0  0  0  0  0  0  0  0  0
    0.3297   -3.2625    1.8619 H   0  0  0  0  0  0  0  0  0  0  0  0
    0.0087    2.9038   -0.0200 C   0  0  0  0  0  0  0  0  0  0  0  0
   -0.5118    3.2045   -0.8067 H   0  0  0  0  0  0  0  0  0  0  0  0
    0.9502    3.2054   -0.0780 H   0  0  0  0  0  0  0  0  0  0  0  0
   -0.4327    3.3613    0.8654 H   0  0  0  0  0  0  0  0  0  0  0  0
   -0.0005    1.4055    0.0000 C   0  0  0  0  0  0  0  0  0  0  0  0
   -1.1979    0.7057   -0.0002 C   0  0  0  0  0  0  0  0  0  0  0  0
   -2.0641    1.1889   -0.0016 H   0  0  0  0  0  0  0  0  0  0  0  0
   -1.2015   -0.6991    0.0000 C   0  0  0  0  0  0  0  0  0  0  0  0
   -2.0772   -1.1883    0.0025 H   0  0  0  0  0  0  0  0  0  0  0  0
    0.0055   -1.4012   -0.0018 C   0  0  0  0  0  0  0  0  0  0  0  0
   -0.0041   -2.3981   -0.0046 H   0  0  0  0  0  0  0  0  0  0  0  0
    1.2015   -0.7050    0.0000 C   0  0  0  0  0  0  0  0  0  0  0  0
    2.0861   -1.1949    0.0010 H   0  0  0  0  0  0  0  0  0  0  0  0
    1.1929    0.6941    0.0020 C   0  0  0  0  0  0  0  0  0  0  0  0
    2.0641    1.1872    0.0036 H   0  0  0  0  0  0  0  0  0  0  0  0
  1  5  1  0
  5  8  1  0
  1  2  1  0
  1  3  1  0
  1  4  1  0
  5  6  1  0
  5  7  1  0
  8  9  1  0
  8 10  1  0
  8 11  1  0
 12 16  1  0
 16 17  2  0
 17 19  1  0
 19 21  2  0
 21 23  1  0
 23 25  2  0
 25 16  1  0
 12 13  1  0
 12 14  1  0
 12 15  1  0
 17 18  1  0
 19 20  1  0
 21 22  1  0
 23 24  1  0
 25 26  1  0
M  CHG  1   8   1
M  END
>  <PDB_ID>  (649) 
pdb1j36

>  <RESIDUE_NAME>  (649) 
LYS   PHE

>  <FRAG_NAME>  (649) 
ETAM   MBZ

>  <FRAG_ATOM_NUM>  (649) 
fragi: 11  fragj: 15

>  <atom.prop.CHAIN_ID>  (649) 
A A A A A A A A A A A Z Z Z Z Z Z Z Z Z Z Z Z Z Z Z

>  <atom.prop.IS_HEAVY_ATOM>  (649) 
1 0 0 0 1 0 0 1 0 0 0 1 0 0 0 1 1 0 1 0 1 0 1 0 1 0

>  <DIFUSE_FUNC_ATOM>  (649) 
n/a

>  <FINAL_SINGLE_POINT_ENERGY>  (649) 
0

>  <NONCOV_INTER_ENERGY_QM>  (649) 
0

>  <FF_Energy>  (649) 
-1.42

>  <QM_Energy>  (649) 
-7.36

>  <source>  (649) 
ETAM_MBZ

>  <Index>  (649) 
6439

$$$$
ETAM-pdb1j1t-A-LYS-137:MBZ-pdb1j1t-A-PHE-112
     RDKit          3D

 26 25  0  0  0  0  0  0  0  0999 V2000
    2.1398   -3.4326    2.2493 C   0  0  0  0  0  0  0  0  0  0  0  0
    1.6981   -3.0606    1.4316 H   0  0  0  0  0  0  0  0  0  0  0  0
    1.8950   -4.3980    2.3478 H   0  0  0  0  0  0  0  0  0  0  0  0
    3.2197   -3.3620    2.1188 H   0  0  0  0  0  0  0  0  0  0  0  0
    1.6364   -2.6760    3.4625 C   0  0  0  0  0  0  0  0  0  0  0  0
    2.0600   -3.0517    4.2833 H   0  0  0  0  0  0  0  0  0  0  0  0
    1.8743   -1.7111    3.3705 H   0  0  0  0  0  0  0  0  0  0  0  0
    0.1525   -2.8035    3.5769 N   0  0  0  0  0  4  0  0  0  0  0  0
   -0.0850   -3.7629    3.7191 H   0  0  0  0  0  0  0  0  0  0  0  0
   -0.1659   -2.2591    4.3512 H   0  0  0  0  0  0  0  0  0  0  0  0
   -0.2719   -2.4730    2.7352 H   0  0  0  0  0  0  0  0  0  0  0  0
   -0.0009    2.9069    0.0499 C   0  0  0  0  0  0  0  0  0  0  0  0
   -0.9337    3.2104    0.1542 H   0  0  0  0  0  0  0  0  0  0  0  0
    0.3998    3.2402   -0.7883 H   0  0  0  0  0  0  0  0  0  0  0  0
    0.5775    3.3112    0.8806 H   0  0  0  0  0  0  0  0  0  0  0  0
   -0.0024    1.4046    0.0009 C   0  0  0  0  0  0  0  0  0  0  0  0
   -1.1976    0.6992   -0.0024 C   0  0  0  0  0  0  0  0  0  0  0  0
   -2.0651    1.1851   -0.0074 H   0  0  0  0  0  0  0  0  0  0  0  0
   -1.2023   -0.6986    0.0000 C   0  0  0  0  0  0  0  0  0  0  0  0
   -2.0773   -1.1908    0.0021 H   0  0  0  0  0  0  0  0  0  0  0  0
    0.0040   -1.3978    0.0014 C   0  0  0  0  0  0  0  0  0  0  0  0
   -0.0024   -2.3953    0.0026 H   0  0  0  0  0  0  0  0  0  0  0  0
    1.2023   -0.7000    0.0000 C   0  0  0  0  0  0  0  0  0  0  0  0
    2.0853   -1.1955    0.0002 H   0  0  0  0  0  0  0  0  0  0  0  0
    1.1959    0.6926    0.0001 C   0  0  0  0  0  0  0  0  0  0  0  0
    2.0644    1.1899   -0.0013 H   0  0  0  0  0  0  0  0  0  0  0  0
  1  5  1  0
  5  8  1  0
  1  2  1  0
  1  3  1  0
  1  4  1  0
  5  6  1  0
  5  7  1  0
  8  9  1  0
  8 10  1  0
  8 11  1  0
 12 16  1  0
 16 17  2  0
 17 19  1  0
 19 21  2  0
 21 23  1  0
 23 25  2  0
 25 16  1  0
 12 13  1  0
 12 14  1  0
 12 15  1  0
 17 18  1  0
 19 20  1  0
 21 22  1  0
 23 24  1  0
 25 26  1  0
M  CHG  1   8   1
M  END
>  <PDB_ID>  (650) 
pdb1j1t

>  <RESIDUE_NAME>  (650) 
LYS   PHE

>  <FRAG_NAME>  (650) 
ETAM   MBZ

>  <FRAG_ATOM_NUM>  (650) 
fragi: 11  fragj: 15

>  <atom.prop.CHAIN_ID>  (650) 
A A A A A A A A A A A Z Z Z Z Z Z Z Z Z Z Z Z Z Z Z

>  <atom.prop.IS_HEAVY_ATOM>  (650) 
1 0 0 0 1 0 0 1 0 0 0 1 0 0 0 1 1 0 1 0 1 0 1 0 1 0

>  <DIFUSE_FUNC_ATOM>  (650) 
n/a

>  <FINAL_SINGLE_POINT_ENERGY>  (650) 
0

>  <NONCOV_INTER_ENERGY_QM>  (650) 
0

>  <FF_Energy>  (650) 
-3.08

>  <QM_Energy>  (650) 
-8.56

>  <source>  (650) 
ETAM_MBZ

>  <Index>  (650) 
6446

$$$$
ETAM-pdb2nvp-A-LYS-278:MBZ-pdb2nvp-A-PHE-297
     RDKit          3D

 26 25  0  0  0  0  0  0  0  0999 V2000
   -0.5396   -1.4182    4.6834 C   0  0  0  0  0  0  0  0  0  0  0  0
   -0.5954   -0.6974    5.3608 H   0  0  0  0  0  0  0  0  0  0  0  0
    0.0866   -2.1301    4.9702 H   0  0  0  0  0  0  0  0  0  0  0  0
   -1.5302   -1.8483    4.5349 H   0  0  0  0  0  0  0  0  0  0  0  0
   -0.0355   -0.8246    3.3846 C   0  0  0  0  0  0  0  0  0  0  0  0
    0.0128   -1.5487    2.6922 H   0  0  0  0  0  0  0  0  0  0  0  0
   -0.6806   -0.1216    3.0746 H   0  0  0  0  0  0  0  0  0  0  0  0
    1.3060   -0.2174    3.5515 N   0  0  0  0  0  4  0  0  0  0  0  0
    1.7434   -0.5925    4.3696 H   0  0  0  0  0  0  0  0  0  0  0  0
    1.8682   -0.4233    2.7502 H   0  0  0  0  0  0  0  0  0  0  0  0
    1.2155    0.7745    3.6478 H   0  0  0  0  0  0  0  0  0  0  0  0
   -0.0126    2.9071   -0.0364 C   0  0  0  0  0  0  0  0  0  0  0  0
    0.9153    3.2239    0.0726 H   0  0  0  0  0  0  0  0  0  0  0  0
   -0.5949    3.2259    0.6933 H   0  0  0  0  0  0  0  0  0  0  0  0
   -0.3967    3.3144   -0.9717 H   0  0  0  0  0  0  0  0  0  0  0  0
   -0.0001    1.4049   -0.0005 C   0  0  0  0  0  0  0  0  0  0  0  0
   -1.1953    0.6934    0.0008 C   0  0  0  0  0  0  0  0  0  0  0  0
   -2.0636    1.1842    0.0010 H   0  0  0  0  0  0  0  0  0  0  0  0
   -1.2029   -0.6987   -0.0000 C   0  0  0  0  0  0  0  0  0  0  0  0
   -2.0800   -1.1895    0.0020 H   0  0  0  0  0  0  0  0  0  0  0  0
   -0.0028   -1.3972   -0.0015 C   0  0  0  0  0  0  0  0  0  0  0  0
   -0.0066   -2.3952   -0.0036 H   0  0  0  0  0  0  0  0  0  0  0  0
    1.2029   -0.7009    0.0000 C   0  0  0  0  0  0  0  0  0  0  0  0
    2.0826   -1.1959    0.0021 H   0  0  0  0  0  0  0  0  0  0  0  0
    1.1983    0.6985    0.0012 C   0  0  0  0  0  0  0  0  0  0  0  0
    2.0659    1.1920    0.0025 H   0  0  0  0  0  0  0  0  0  0  0  0
  1  5  1  0
  5  8  1  0
  1  2  1  0
  1  3  1  0
  1  4  1  0
  5  6  1  0
  5  7  1  0
  8  9  1  0
  8 10  1  0
  8 11  1  0
 12 16  1  0
 16 17  2  0
 17 19  1  0
 19 21  2  0
 21 23  1  0
 23 25  2  0
 25 16  1  0
 12 13  1  0
 12 14  1  0
 12 15  1  0
 17 18  1  0
 19 20  1  0
 21 22  1  0
 23 24  1  0
 25 26  1  0
M  CHG  1   8   1
M  END
>  <PDB_ID>  (651) 
pdb2nvp

>  <RESIDUE_NAME>  (651) 
LYS   PHE

>  <FRAG_NAME>  (651) 
ETAM   MBZ

>  <FRAG_ATOM_NUM>  (651) 
fragi: 11  fragj: 15

>  <atom.prop.CHAIN_ID>  (651) 
A A A A A A A A A A A Z Z Z Z Z Z Z Z Z Z Z Z Z Z Z

>  <atom.prop.IS_HEAVY_ATOM>  (651) 
1 0 0 0 1 0 0 1 0 0 0 1 0 0 0 1 1 0 1 0 1 0 1 0 1 0

>  <DIFUSE_FUNC_ATOM>  (651) 
n/a

>  <FINAL_SINGLE_POINT_ENERGY>  (651) 
0

>  <NONCOV_INTER_ENERGY_QM>  (651) 
0

>  <FF_Energy>  (651) 
-6.65

>  <QM_Energy>  (651) 
-12.3

>  <source>  (651) 
ETAM_MBZ

>  <Index>  (651) 
6462

$$$$
ETAM-pdb2nw2-B-LYS-143:MBZ-pdb2nw2-A-PHE-173
     RDKit          3D

 26 25  0  0  0  0  0  0  0  0999 V2000
    1.4892   -1.2553   -3.8335 C   0  0  0  0  0  0  0  0  0  0  0  0
    0.9906   -2.0709   -3.5563 H   0  0  0  0  0  0  0  0  0  0  0  0
    2.3227   -1.1610   -3.2979 H   0  0  0  0  0  0  0  0  0  0  0  0
    1.7493   -1.3378   -4.8888 H   0  0  0  0  0  0  0  0  0  0  0  0
    0.6166   -0.0477   -3.5863 C   0  0  0  0  0  0  0  0  0  0  0  0
    0.5915    0.1451   -2.6028 H   0  0  0  0  0  0  0  0  0  0  0  0
    1.0051    0.7437   -4.0638 H   0  0  0  0  0  0  0  0  0  0  0  0
   -0.7720   -0.2750   -4.0729 N   0  0  0  0  0  4  0  0  0  0  0  0
   -0.7558   -0.4298   -5.0601 H   0  0  0  0  0  0  0  0  0  0  0  0
   -1.1562   -1.0761   -3.6150 H   0  0  0  0  0  0  0  0  0  0  0  0
   -1.3300    0.5281   -3.8685 H   0  0  0  0  0  0  0  0  0  0  0  0
    0.0005    2.9094    0.0210 C   0  0  0  0  0  0  0  0  0  0  0  0
   -0.8103    3.2252   -0.4465 H   0  0  0  0  0  0  0  0  0  0  0  0
    0.8219    3.2204   -0.4305 H   0  0  0  0  0  0  0  0  0  0  0  0
   -0.0081    3.3397    1.0224 H   0  0  0  0  0  0  0  0  0  0  0  0
   -0.0038    1.4054    0.0031 C   0  0  0  0  0  0  0  0  0  0  0  0
   -1.2028    0.6966    0.0024 C   0  0  0  0  0  0  0  0  0  0  0  0
   -2.0688    1.1837    0.0020 H   0  0  0  0  0  0  0  0  0  0  0  0
   -1.2055   -0.7002   -0.0000 C   0  0  0  0  0  0  0  0  0  0  0  0
   -2.0776   -1.1960    0.0023 H   0  0  0  0  0  0  0  0  0  0  0  0
    0.0070   -1.3999   -0.0039 C   0  0  0  0  0  0  0  0  0  0  0  0
    0.0019   -2.3952   -0.0097 H   0  0  0  0  0  0  0  0  0  0  0  0
    1.2055   -0.6972    0.0000 C   0  0  0  0  0  0  0  0  0  0  0  0
    2.0893   -1.1928    0.0054 H   0  0  0  0  0  0  0  0  0  0  0  0
    1.1996    0.6953   -0.0016 C   0  0  0  0  0  0  0  0  0  0  0  0
    2.0647    1.1938   -0.0076 H   0  0  0  0  0  0  0  0  0  0  0  0
  1  5  1  0
  5  8  1  0
  1  2  1  0
  1  3  1  0
  1  4  1  0
  5  6  1  0
  5  7  1  0
  8  9  1  0
  8 10  1  0
  8 11  1  0
 12 16  1  0
 16 17  2  0
 17 19  1  0
 19 21  2  0
 21 23  1  0
 23 25  2  0
 25 16  1  0
 12 13  1  0
 12 14  1  0
 12 15  1  0
 17 18  1  0
 19 20  1  0
 21 22  1  0
 23 24  1  0
 25 26  1  0
M  CHG  1   8   1
M  END
>  <PDB_ID>  (652) 
pdb2nw2

>  <RESIDUE_NAME>  (652) 
LYS   PHE

>  <FRAG_NAME>  (652) 
ETAM   MBZ

>  <FRAG_ATOM_NUM>  (652) 
fragi: 11  fragj: 15

>  <atom.prop.CHAIN_ID>  (652) 
A A A A A A A A A A A Z Z Z Z Z Z Z Z Z Z Z Z Z Z Z

>  <atom.prop.IS_HEAVY_ATOM>  (652) 
1 0 0 0 1 0 0 1 0 0 0 1 0 0 0 1 1 0 1 0 1 0 1 0 1 0

>  <DIFUSE_FUNC_ATOM>  (652) 
n/a

>  <FINAL_SINGLE_POINT_ENERGY>  (652) 
0

>  <NONCOV_INTER_ENERGY_QM>  (652) 
0

>  <FF_Energy>  (652) 
-6.13

>  <QM_Energy>  (652) 
-11.21

>  <source>  (652) 
ETAM_MBZ

>  <Index>  (652) 
6470

$$$$
ETAM-pdb2nv9-H-LYS-75:MBZ-pdb2nv9-H-PHE-101
     RDKit          3D

 26 25  0  0  0  0  0  0  0  0999 V2000
    0.0288   -3.8304   -3.5748 C   0  0  0  0  0  0  0  0  0  0  0  0
    0.4694   -4.2851   -4.3278 H   0  0  0  0  0  0  0  0  0  0  0  0
   -0.8219   -4.2582   -3.3279 H   0  0  0  0  0  0  0  0  0  0  0  0
    0.6966   -3.8476   -2.7135 H   0  0  0  0  0  0  0  0  0  0  0  0
   -0.2515   -2.3776   -3.9759 C   0  0  0  0  0  0  0  0  0  0  0  0
    0.5387   -1.8203   -3.7297 H   0  0  0  0  0  0  0  0  0  0  0  0
   -0.3975   -2.3415   -4.9621 H   0  0  0  0  0  0  0  0  0  0  0  0
   -1.4590   -1.8648   -3.2754 N   0  0  0  0  0  4  0  0  0  0  0  0
   -1.4438   -0.8650   -3.2758 H   0  0  0  0  0  0  0  0  0  0  0  0
   -2.2789   -2.1868   -3.7483 H   0  0  0  0  0  0  0  0  0  0  0  0
   -1.4631   -2.1983   -2.3335 H   0  0  0  0  0  0  0  0  0  0  0  0
   -0.0114    2.8949   -0.0105 C   0  0  0  0  0  0  0  0  0  0  0  0
   -0.6888    3.1985   -0.6643 H   0  0  0  0  0  0  0  0  0  0  0  0
    0.8917    3.2158   -0.2565 H   0  0  0  0  0  0  0  0  0  0  0  0
   -0.2651    3.3348    0.9540 H   0  0  0  0  0  0  0  0  0  0  0  0
    0.0046    1.4017   -0.0088 C   0  0  0  0  0  0  0  0  0  0  0  0
   -1.2129    0.6775    0.0080 C   0  0  0  0  0  0  0  0  0  0  0  0
   -2.0691    1.1772    0.0241 H   0  0  0  0  0  0  0  0  0  0  0  0
   -1.2113   -0.7037    0.0000 C   0  0  0  0  0  0  0  0  0  0  0  0
   -2.0750   -1.2115   -0.0057 H   0  0  0  0  0  0  0  0  0  0  0  0
    0.0096   -1.3897    0.0021 C   0  0  0  0  0  0  0  0  0  0  0  0
    0.0104   -2.3891    0.0050 H   0  0  0  0  0  0  0  0  0  0  0  0
    1.2113   -0.6865    0.0000 C   0  0  0  0  0  0  0  0  0  0  0  0
    2.0920   -1.1822    0.0009 H   0  0  0  0  0  0  0  0  0  0  0  0
    1.1986    0.7008   -0.0014 C   0  0  0  0  0  0  0  0  0  0  0  0
    2.0667    1.2015    0.0022 H   0  0  0  0  0  0  0  0  0  0  0  0
  1  5  1  0
  5  8  1  0
  1  2  1  0
  1  3  1  0
  1  4  1  0
  5  6  1  0
  5  7  1  0
  8  9  1  0
  8 10  1  0
  8 11  1  0
 12 16  1  0
 16 17  2  0
 17 19  1  0
 19 21  2  0
 21 23  1  0
 23 25  2  0
 25 16  1  0
 12 13  1  0
 12 14  1  0
 12 15  1  0
 17 18  1  0
 19 20  1  0
 21 22  1  0
 23 24  1  0
 25 26  1  0
M  CHG  1   8   1
M  END
>  <PDB_ID>  (653) 
pdb2nv9

>  <RESIDUE_NAME>  (653) 
LYS   PHE

>  <FRAG_NAME>  (653) 
ETAM   MBZ

>  <FRAG_ATOM_NUM>  (653) 
fragi: 11  fragj: 15

>  <atom.prop.CHAIN_ID>  (653) 
A A A A A A A A A A A Z Z Z Z Z Z Z Z Z Z Z Z Z Z Z

>  <atom.prop.IS_HEAVY_ATOM>  (653) 
1 0 0 0 1 0 0 1 0 0 0 1 0 0 0 1 1 0 1 0 1 0 1 0 1 0

>  <DIFUSE_FUNC_ATOM>  (653) 
n/a

>  <FINAL_SINGLE_POINT_ENERGY>  (653) 
0

>  <NONCOV_INTER_ENERGY_QM>  (653) 
0

>  <FF_Energy>  (653) 
-4.41

>  <QM_Energy>  (653) 
-10.47

>  <source>  (653) 
ETAM_MBZ

>  <Index>  (653) 
6472

$$$$
ETAM-pdb1j0h-A-LYS-297:MBZ-pdb1j0h-B-PHE-119
     RDKit          3D

 26 25  0  0  0  0  0  0  0  0999 V2000
   -0.9634   -1.8659   -3.6552 C   0  0  0  0  0  0  0  0  0  0  0  0
   -1.8902   -1.6101   -3.3955 H   0  0  0  0  0  0  0  0  0  0  0  0
   -0.6523   -2.6367   -3.1079 H   0  0  0  0  0  0  0  0  0  0  0  0
   -0.9613   -2.1563   -4.7058 H   0  0  0  0  0  0  0  0  0  0  0  0
   -0.0421   -0.6828   -3.3939 C   0  0  0  0  0  0  0  0  0  0  0  0
   -0.0703   -0.4584   -2.4106 H   0  0  0  0  0  0  0  0  0  0  0  0
    0.9038   -0.9480   -3.6259 H   0  0  0  0  0  0  0  0  0  0  0  0
   -0.4082    0.5360   -4.1787 N   0  0  0  0  0  4  0  0  0  0  0  0
   -1.2062    0.3343   -4.7443 H   0  0  0  0  0  0  0  0  0  0  0  0
   -0.6204    1.2805   -3.5489 H   0  0  0  0  0  0  0  0  0  0  0  0
    0.3607    0.7956   -4.7598 H   0  0  0  0  0  0  0  0  0  0  0  0
   -0.0068    2.9131    0.0374 C   0  0  0  0  0  0  0  0  0  0  0  0
   -0.7805    3.2274   -0.4896 H   0  0  0  0  0  0  0  0  0  0  0  0
    0.8461    3.2313   -0.3461 H   0  0  0  0  0  0  0  0  0  0  0  0
   -0.0964    3.3279    1.0414 H   0  0  0  0  0  0  0  0  0  0  0  0
   -0.0006    1.4059    0.0004 C   0  0  0  0  0  0  0  0  0  0  0  0
   -1.1977    0.6929    0.0002 C   0  0  0  0  0  0  0  0  0  0  0  0
   -2.0654    1.1822   -0.0012 H   0  0  0  0  0  0  0  0  0  0  0  0
   -1.2035   -0.7012    0.0000 C   0  0  0  0  0  0  0  0  0  0  0  0
   -2.0794   -1.1937    0.0003 H   0  0  0  0  0  0  0  0  0  0  0  0
    0.0009   -1.3984    0.0006 C   0  0  0  0  0  0  0  0  0  0  0  0
   -0.0008   -2.3952    0.0007 H   0  0  0  0  0  0  0  0  0  0  0  0
    1.2035   -0.6972    0.0000 C   0  0  0  0  0  0  0  0  0  0  0  0
    2.0846   -1.1924    0.0016 H   0  0  0  0  0  0  0  0  0  0  0  0
    1.1974    0.6980   -0.0012 C   0  0  0  0  0  0  0  0  0  0  0  0
    2.0647    1.1935   -0.0043 H   0  0  0  0  0  0  0  0  0  0  0  0
  1  5  1  0
  5  8  1  0
  1  2  1  0
  1  3  1  0
  1  4  1  0
  5  6  1  0
  5  7  1  0
  8  9  1  0
  8 10  1  0
  8 11  1  0
 12 16  1  0
 16 17  2  0
 17 19  1  0
 19 21  2  0
 21 23  1  0
 23 25  2  0
 25 16  1  0
 12 13  1  0
 12 14  1  0
 12 15  1  0
 17 18  1  0
 19 20  1  0
 21 22  1  0
 23 24  1  0
 25 26  1  0
M  CHG  1   8   1
M  END
>  <PDB_ID>  (654) 
pdb1j0h

>  <RESIDUE_NAME>  (654) 
LYS   PHE

>  <FRAG_NAME>  (654) 
ETAM   MBZ

>  <FRAG_ATOM_NUM>  (654) 
fragi: 11  fragj: 15

>  <atom.prop.CHAIN_ID>  (654) 
A A A A A A A A A A A Z Z Z Z Z Z Z Z Z Z Z Z Z Z Z

>  <atom.prop.IS_HEAVY_ATOM>  (654) 
1 0 0 0 1 0 0 1 0 0 0 1 0 0 0 1 1 0 1 0 1 0 1 0 1 0

>  <DIFUSE_FUNC_ATOM>  (654) 
n/a

>  <FINAL_SINGLE_POINT_ENERGY>  (654) 
0

>  <NONCOV_INTER_ENERGY_QM>  (654) 
0

>  <FF_Energy>  (654) 
-5.45

>  <QM_Energy>  (654) 
-10.93

>  <source>  (654) 
ETAM_MBZ

>  <Index>  (654) 
6475

$$$$
ETAM-pdb1j36-A-LYS-102:MBZ-pdb1j36-A-PHE-197
     RDKit          3D

 26 25  0  0  0  0  0  0  0  0999 V2000
    0.7465   -5.2840   -1.0034 C   0  0  0  0  0  0  0  0  0  0  0  0
    0.5546   -6.2043   -0.6806 H   0  0  0  0  0  0  0  0  0  0  0  0
    0.9302   -4.6775   -0.2373 H   0  0  0  0  0  0  0  0  0  0  0  0
    1.6223   -5.3121   -1.6517 H   0  0  0  0  0  0  0  0  0  0  0  0
   -0.4876   -4.7653   -1.7442 C   0  0  0  0  0  0  0  0  0  0  0  0
   -0.6755   -5.3741   -2.5235 H   0  0  0  0  0  0  0  0  0  0  0  0
   -1.2766   -4.7971   -1.1196 H   0  0  0  0  0  0  0  0  0  0  0  0
   -0.3220   -3.3657   -2.2485 N   0  0  0  0  0  4  0  0  0  0  0  0
    0.6370   -3.1010   -2.1693 H   0  0  0  0  0  0  0  0  0  0  0  0
   -0.6057   -3.3265   -3.2053 H   0  0  0  0  0  0  0  0  0  0  0  0
   -0.8890   -2.7519   -1.7025 H   0  0  0  0  0  0  0  0  0  0  0  0
    0.0087    2.9065   -0.0149 C   0  0  0  0  0  0  0  0  0  0  0  0
    0.9336    3.2108    0.1605 H   0  0  0  0  0  0  0  0  0  0  0  0
   -0.6136    3.2273    0.6836 H   0  0  0  0  0  0  0  0  0  0  0  0
   -0.3074    3.3445   -0.9615 H   0  0  0  0  0  0  0  0  0  0  0  0
   -0.0017    1.4044    0.0009 C   0  0  0  0  0  0  0  0  0  0  0  0
   -1.1970    0.7009    0.0002 C   0  0  0  0  0  0  0  0  0  0  0  0
   -2.0641    1.1867   -0.0012 H   0  0  0  0  0  0  0  0  0  0  0  0
   -1.1995   -0.6944    0.0000 C   0  0  0  0  0  0  0  0  0  0  0  0
   -2.0759   -1.1877    0.0023 H   0  0  0  0  0  0  0  0  0  0  0  0
    0.0040   -1.3963   -0.0021 C   0  0  0  0  0  0  0  0  0  0  0  0
   -0.0079   -2.3946   -0.0055 H   0  0  0  0  0  0  0  0  0  0  0  0
    1.1995   -0.7058   -0.0000 C   0  0  0  0  0  0  0  0  0  0  0  0
    2.0826   -1.1979    0.0024 H   0  0  0  0  0  0  0  0  0  0  0  0
    1.1947    0.6912    0.0010 C   0  0  0  0  0  0  0  0  0  0  0  0
    2.0642    1.1847    0.0007 H   0  0  0  0  0  0  0  0  0  0  0  0
  1  5  1  0
  5  8  1  0
  1  2  1  0
  1  3  1  0
  1  4  1  0
  5  6  1  0
  5  7  1  0
  8  9  1  0
  8 10  1  0
  8 11  1  0
 12 16  1  0
 16 17  2  0
 17 19  1  0
 19 21  2  0
 21 23  1  0
 23 25  2  0
 25 16  1  0
 12 13  1  0
 12 14  1  0
 12 15  1  0
 17 18  1  0
 19 20  1  0
 21 22  1  0
 23 24  1  0
 25 26  1  0
M  CHG  1   8   1
M  END
>  <PDB_ID>  (655) 
pdb1j36

>  <RESIDUE_NAME>  (655) 
LYS   PHE

>  <FRAG_NAME>  (655) 
ETAM   MBZ

>  <FRAG_ATOM_NUM>  (655) 
fragi: 11  fragj: 15

>  <atom.prop.CHAIN_ID>  (655) 
A A A A A A A A A A A Z Z Z Z Z Z Z Z Z Z Z Z Z Z Z

>  <atom.prop.IS_HEAVY_ATOM>  (655) 
1 0 0 0 1 0 0 1 0 0 0 1 0 0 0 1 1 0 1 0 1 0 1 0 1 0

>  <DIFUSE_FUNC_ATOM>  (655) 
n/a

>  <FINAL_SINGLE_POINT_ENERGY>  (655) 
0

>  <NONCOV_INTER_ENERGY_QM>  (655) 
0

>  <FF_Energy>  (655) 
0.47

>  <QM_Energy>  (655) 
-7.39

>  <source>  (655) 
ETAM_MBZ

>  <Index>  (655) 
6477

$$$$
ETAM-pdb1j53-A-LYS-76:MBZ-pdb1j53-A-PHE-72
     RDKit          3D

 26 25  0  0  0  0  0  0  0  0999 V2000
    1.3979   -1.5904    5.0308 C   0  0  0  0  0  0  0  0  0  0  0  0
    2.0771   -2.3168    5.0628 H   0  0  0  0  0  0  0  0  0  0  0  0
    0.7430   -1.6970    5.7718 H   0  0  0  0  0  0  0  0  0  0  0  0
    1.9022   -0.6301    5.1383 H   0  0  0  0  0  0  0  0  0  0  0  0
    0.6511   -1.6844    3.7077 C   0  0  0  0  0  0  0  0  0  0  0  0
    1.3073   -1.5747    2.9564 H   0  0  0  0  0  0  0  0  0  0  0  0
    0.2271   -2.5911    3.6378 H   0  0  0  0  0  0  0  0  0  0  0  0
   -0.4056   -0.6409    3.5910 N   0  0  0  0  0  4  0  0  0  0  0  0
   -1.2694   -1.0046    3.9388 H   0  0  0  0  0  0  0  0  0  0  0  0
   -0.1391    0.1607    4.1250 H   0  0  0  0  0  0  0  0  0  0  0  0
   -0.5130   -0.3842    2.6312 H   0  0  0  0  0  0  0  0  0  0  0  0
   -0.0006    2.9094    0.0052 C   0  0  0  0  0  0  0  0  0  0  0  0
   -0.6103    3.2181   -0.7087 H   0  0  0  0  0  0  0  0  0  0  0  0
    0.9255    3.2157   -0.1557 H   0  0  0  0  0  0  0  0  0  0  0  0
   -0.3373    3.3513    0.9429 H   0  0  0  0  0  0  0  0  0  0  0  0
   -0.0016    1.4046    0.0013 C   0  0  0  0  0  0  0  0  0  0  0  0
   -1.1972    0.6966   -0.0000 C   0  0  0  0  0  0  0  0  0  0  0  0
   -2.0650    1.1841   -0.0020 H   0  0  0  0  0  0  0  0  0  0  0  0
   -1.2023   -0.6992   -0.0000 C   0  0  0  0  0  0  0  0  0  0  0  0
   -2.0786   -1.1912    0.0025 H   0  0  0  0  0  0  0  0  0  0  0  0
    0.0011   -1.3981   -0.0021 C   0  0  0  0  0  0  0  0  0  0  0  0
   -0.0033   -2.3952   -0.0059 H   0  0  0  0  0  0  0  0  0  0  0  0
    1.2023   -0.6992    0.0000 C   0  0  0  0  0  0  0  0  0  0  0  0
    2.0841   -1.1956    0.0025 H   0  0  0  0  0  0  0  0  0  0  0  0
    1.1977    0.6954    0.0008 C   0  0  0  0  0  0  0  0  0  0  0  0
    2.0643    1.1910    0.0002 H   0  0  0  0  0  0  0  0  0  0  0  0
  1  5  1  0
  5  8  1  0
  1  2  1  0
  1  3  1  0
  1  4  1  0
  5  6  1  0
  5  7  1  0
  8  9  1  0
  8 10  1  0
  8 11  1  0
 12 16  1  0
 16 17  2  0
 17 19  1  0
 19 21  2  0
 21 23  1  0
 23 25  2  0
 25 16  1  0
 12 13  1  0
 12 14  1  0
 12 15  1  0
 17 18  1  0
 19 20  1  0
 21 22  1  0
 23 24  1  0
 25 26  1  0
M  CHG  1   8   1
M  END
>  <PDB_ID>  (656) 
pdb1j53

>  <RESIDUE_NAME>  (656) 
LYS   PHE

>  <FRAG_NAME>  (656) 
ETAM   MBZ

>  <FRAG_ATOM_NUM>  (656) 
fragi: 11  fragj: 15

>  <atom.prop.CHAIN_ID>  (656) 
A A A A A A A A A A A Z Z Z Z Z Z Z Z Z Z Z Z Z Z Z

>  <atom.prop.IS_HEAVY_ATOM>  (656) 
1 0 0 0 1 0 0 1 0 0 0 1 0 0 0 1 1 0 1 0 1 0 1 0 1 0

>  <DIFUSE_FUNC_ATOM>  (656) 
n/a

>  <FINAL_SINGLE_POINT_ENERGY>  (656) 
0

>  <NONCOV_INTER_ENERGY_QM>  (656) 
0

>  <FF_Energy>  (656) 
-7.62

>  <QM_Energy>  (656) 
-14.13

>  <source>  (656) 
ETAM_MBZ

>  <Index>  (656) 
6496

$$$$
ETAM-pdb2nxz-A-LYS-490:MBZ-pdb2nxz-A-PHE-223
     RDKit          3D

 26 25  0  0  0  0  0  0  0  0999 V2000
    2.6740   -1.9218    2.4393 C   0  0  0  0  0  0  0  0  0  0  0  0
    2.2770   -1.4052    1.6898 H   0  0  0  0  0  0  0  0  0  0  0  0
    3.6646   -1.8549    2.4248 H   0  0  0  0  0  0  0  0  0  0  0  0
    2.3042   -1.5186    3.3820 H   0  0  0  0  0  0  0  0  0  0  0  0
    2.2878   -3.3939    2.2696 C   0  0  0  0  0  0  0  0  0  0  0  0
    2.3444   -3.6307    1.2906 H   0  0  0  0  0  0  0  0  0  0  0  0
    2.9556   -3.9618    2.7685 H   0  0  0  0  0  0  0  0  0  0  0  0
    0.9127   -3.7094    2.7675 N   0  0  0  0  0  4  0  0  0  0  0  0
    0.2474   -3.4783    2.0601 H   0  0  0  0  0  0  0  0  0  0  0  0
    0.8563   -4.6838    2.9790 H   0  0  0  0  0  0  0  0  0  0  0  0
    0.7313   -3.1737    3.5905 H   0  0  0  0  0  0  0  0  0  0  0  0
   -0.0022    2.8906   -0.0001 C   0  0  0  0  0  0  0  0  0  0  0  0
   -0.6613    3.1988   -0.6710 H   0  0  0  0  0  0  0  0  0  0  0  0
    0.9105    3.2010   -0.2243 H   0  0  0  0  0  0  0  0  0  0  0  0
   -0.2751    3.3305    0.9591 H   0  0  0  0  0  0  0  0  0  0  0  0
   -0.0001    1.3938    0.0006 C   0  0  0  0  0  0  0  0  0  0  0  0
   -1.1933    0.6852   -0.0028 C   0  0  0  0  0  0  0  0  0  0  0  0
   -2.0606    1.1785   -0.0085 H   0  0  0  0  0  0  0  0  0  0  0  0
   -1.1980   -0.6959   -0.0000 C   0  0  0  0  0  0  0  0  0  0  0  0
   -2.0739   -1.1932    0.0029 H   0  0  0  0  0  0  0  0  0  0  0  0
    0.0002   -1.3862    0.0010 C   0  0  0  0  0  0  0  0  0  0  0  0
   -0.0006   -2.3867    0.0014 H   0  0  0  0  0  0  0  0  0  0  0  0
    1.1980   -0.6900    0.0000 C   0  0  0  0  0  0  0  0  0  0  0  0
    2.0799   -1.1899   -0.0005 H   0  0  0  0  0  0  0  0  0  0  0  0
    1.1932    0.6930    0.0012 C   0  0  0  0  0  0  0  0  0  0  0  0
    2.0615    1.1918    0.0022 H   0  0  0  0  0  0  0  0  0  0  0  0
  1  5  1  0
  5  8  1  0
  1  2  1  0
  1  3  1  0
  1  4  1  0
  5  6  1  0
  5  7  1  0
  8  9  1  0
  8 10  1  0
  8 11  1  0
 12 16  1  0
 16 17  2  0
 17 19  1  0
 19 21  2  0
 21 23  1  0
 23 25  2  0
 25 16  1  0
 12 13  1  0
 12 14  1  0
 12 15  1  0
 17 18  1  0
 19 20  1  0
 21 22  1  0
 23 24  1  0
 25 26  1  0
M  CHG  1   8   1
M  END
>  <PDB_ID>  (657) 
pdb2nxz

>  <RESIDUE_NAME>  (657) 
LYS   PHE

>  <FRAG_NAME>  (657) 
ETAM   MBZ

>  <FRAG_ATOM_NUM>  (657) 
fragi: 11  fragj: 15

>  <atom.prop.CHAIN_ID>  (657) 
A A A A A A A A A A A Z Z Z Z Z Z Z Z Z Z Z Z Z Z Z

>  <atom.prop.IS_HEAVY_ATOM>  (657) 
1 0 0 0 1 0 0 1 0 0 0 1 0 0 0 1 1 0 1 0 1 0 1 0 1 0

>  <DIFUSE_FUNC_ATOM>  (657) 
n/a

>  <FINAL_SINGLE_POINT_ENERGY>  (657) 
0

>  <NONCOV_INTER_ENERGY_QM>  (657) 
0

>  <FF_Energy>  (657) 
12.95

>  <QM_Energy>  (657) 
-2.32

>  <source>  (657) 
ETAM_MBZ

>  <Index>  (657) 
6511

$$$$
ETAM-pdb1j6p-A-LYS-10:MBZ-pdb1j6p-A-PHE-17
     RDKit          3D

 26 25  0  0  0  0  0  0  0  0999 V2000
    3.2613   -3.4264   -1.1876 C   0  0  0  0  0  0  0  0  0  0  0  0
    3.6914   -2.5930   -1.5248 H   0  0  0  0  0  0  0  0  0  0  0  0
    3.7783   -4.2231   -1.4887 H   0  0  0  0  0  0  0  0  0  0  0  0
    3.2569   -3.4020   -0.0979 H   0  0  0  0  0  0  0  0  0  0  0  0
    1.8572   -3.5142   -1.7590 C   0  0  0  0  0  0  0  0  0  0  0  0
    1.4195   -4.3515   -1.4207 H   0  0  0  0  0  0  0  0  0  0  0  0
    1.3274   -2.7213   -1.4456 H   0  0  0  0  0  0  0  0  0  0  0  0
    1.8670   -3.5359   -3.2481 N   0  0  0  0  0  4  0  0  0  0  0  0
    2.6364   -2.9928   -3.5820 H   0  0  0  0  0  0  0  0  0  0  0  0
    1.9606   -4.4787   -3.5654 H   0  0  0  0  0  0  0  0  0  0  0  0
    1.0110   -3.1505   -3.5900 H   0  0  0  0  0  0  0  0  0  0  0  0
    0.0064    2.9121    0.0449 C   0  0  0  0  0  0  0  0  0  0  0  0
   -0.7452    3.2393   -0.5089 H   0  0  0  0  0  0  0  0  0  0  0  0
    0.8752    3.2258   -0.3088 H   0  0  0  0  0  0  0  0  0  0  0  0
   -0.1132    3.3316    1.0437 H   0  0  0  0  0  0  0  0  0  0  0  0
   -0.0004    1.4065    0.0006 C   0  0  0  0  0  0  0  0  0  0  0  0
   -1.2007    0.6976   -0.0014 C   0  0  0  0  0  0  0  0  0  0  0  0
   -2.0668    1.1842   -0.0053 H   0  0  0  0  0  0  0  0  0  0  0  0
   -1.2052   -0.7038   -0.0000 C   0  0  0  0  0  0  0  0  0  0  0  0
   -2.0799   -1.1938    0.0005 H   0  0  0  0  0  0  0  0  0  0  0  0
    0.0010   -1.3992    0.0028 C   0  0  0  0  0  0  0  0  0  0  0  0
    0.0003   -2.3968    0.0067 H   0  0  0  0  0  0  0  0  0  0  0  0
    1.2052   -0.6974    0.0000 C   0  0  0  0  0  0  0  0  0  0  0  0
    2.0859   -1.1943    0.0005 H   0  0  0  0  0  0  0  0  0  0  0  0
    1.2001    0.6963   -0.0020 C   0  0  0  0  0  0  0  0  0  0  0  0
    2.0665    1.1925   -0.0062 H   0  0  0  0  0  0  0  0  0  0  0  0
  1  5  1  0
  5  8  1  0
  1  2  1  0
  1  3  1  0
  1  4  1  0
  5  6  1  0
  5  7  1  0
  8  9  1  0
  8 10  1  0
  8 11  1  0
 12 16  1  0
 16 17  2  0
 17 19  1  0
 19 21  2  0
 21 23  1  0
 23 25  2  0
 25 16  1  0
 12 13  1  0
 12 14  1  0
 12 15  1  0
 17 18  1  0
 19 20  1  0
 21 22  1  0
 23 24  1  0
 25 26  1  0
M  CHG  1   8   1
M  END
>  <PDB_ID>  (658) 
pdb1j6p

>  <RESIDUE_NAME>  (658) 
LYS   PHE

>  <FRAG_NAME>  (658) 
ETAM   MBZ

>  <FRAG_ATOM_NUM>  (658) 
fragi: 11  fragj: 15

>  <atom.prop.CHAIN_ID>  (658) 
A A A A A A A A A A A Z Z Z Z Z Z Z Z Z Z Z Z Z Z Z

>  <atom.prop.IS_HEAVY_ATOM>  (658) 
1 0 0 0 1 0 0 1 0 0 0 1 0 0 0 1 1 0 1 0 1 0 1 0 1 0

>  <DIFUSE_FUNC_ATOM>  (658) 
n/a

>  <FINAL_SINGLE_POINT_ENERGY>  (658) 
0

>  <NONCOV_INTER_ENERGY_QM>  (658) 
0

>  <FF_Energy>  (658) 
3.34

>  <QM_Energy>  (658) 
-3.86

>  <source>  (658) 
ETAM_MBZ

>  <Index>  (658) 
6512

$$$$
ETAM-pdb1j6p-A-LYS-45:MBZ-pdb1j6p-A-PHE-369
     RDKit          3D

 26 25  0  0  0  0  0  0  0  0999 V2000
    1.2522    0.7265   -3.8480 C   0  0  0  0  0  0  0  0  0  0  0  0
    1.7790   -0.0622   -4.1409 H   0  0  0  0  0  0  0  0  0  0  0  0
    1.7401    1.2353   -3.1501 H   0  0  0  0  0  0  0  0  0  0  0  0
    1.0548    1.3727   -4.7034 H   0  0  0  0  0  0  0  0  0  0  0  0
   -0.0529    0.2362   -3.2570 C   0  0  0  0  0  0  0  0  0  0  0  0
    0.1533   -0.3649   -2.4675 H   0  0  0  0  0  0  0  0  0  0  0  0
   -0.5686    1.0333   -2.9024 H   0  0  0  0  0  0  0  0  0  0  0  0
   -0.9011   -0.5000   -4.2181 N   0  0  0  0  0  4  0  0  0  0  0  0
   -1.5546    0.1297   -4.6413 H   0  0  0  0  0  0  0  0  0  0  0  0
   -0.3268   -0.9085   -4.9299 H   0  0  0  0  0  0  0  0  0  0  0  0
   -1.4004   -1.2246   -3.7401 H   0  0  0  0  0  0  0  0  0  0  0  0
    0.0080    2.9013    0.0848 C   0  0  0  0  0  0  0  0  0  0  0  0
   -0.6898    3.2492   -0.5208 H   0  0  0  0  0  0  0  0  0  0  0  0
    0.9052    3.2267   -0.1704 H   0  0  0  0  0  0  0  0  0  0  0  0
   -0.2057    3.2843    1.0826 H   0  0  0  0  0  0  0  0  0  0  0  0
    0.0049    1.4074    0.0019 C   0  0  0  0  0  0  0  0  0  0  0  0
   -1.2019    0.7038   -0.0005 C   0  0  0  0  0  0  0  0  0  0  0  0
   -2.0636    1.1868   -0.0039 H   0  0  0  0  0  0  0  0  0  0  0  0
   -1.2023   -0.7057   -0.0000 C   0  0  0  0  0  0  0  0  0  0  0  0
   -2.0778   -1.1939   -0.0005 H   0  0  0  0  0  0  0  0  0  0  0  0
    0.0040   -1.4025    0.0033 C   0  0  0  0  0  0  0  0  0  0  0  0
   -0.0053   -2.4028    0.0075 H   0  0  0  0  0  0  0  0  0  0  0  0
    1.2023   -0.7128    0.0000 C   0  0  0  0  0  0  0  0  0  0  0  0
    2.0861   -1.1915    0.0020 H   0  0  0  0  0  0  0  0  0  0  0  0
    1.1930    0.7098   -0.0047 C   0  0  0  0  0  0  0  0  0  0  0  0
    2.0671    1.1894   -0.0137 H   0  0  0  0  0  0  0  0  0  0  0  0
  1  5  1  0
  5  8  1  0
  1  2  1  0
  1  3  1  0
  1  4  1  0
  5  6  1  0
  5  7  1  0
  8  9  1  0
  8 10  1  0
  8 11  1  0
 12 16  1  0
 16 17  2  0
 17 19  1  0
 19 21  2  0
 21 23  1  0
 23 25  2  0
 25 16  1  0
 12 13  1  0
 12 14  1  0
 12 15  1  0
 17 18  1  0
 19 20  1  0
 21 22  1  0
 23 24  1  0
 25 26  1  0
M  CHG  1   8   1
M  END
>  <PDB_ID>  (659) 
pdb1j6p

>  <RESIDUE_NAME>  (659) 
LYS   PHE

>  <FRAG_NAME>  (659) 
ETAM   MBZ

>  <FRAG_ATOM_NUM>  (659) 
fragi: 11  fragj: 15

>  <atom.prop.CHAIN_ID>  (659) 
A A A A A A A A A A A Z Z Z Z Z Z Z Z Z Z Z Z Z Z Z

>  <atom.prop.IS_HEAVY_ATOM>  (659) 
1 0 0 0 1 0 0 1 0 0 0 1 0 0 0 1 1 0 1 0 1 0 1 0 1 0

>  <DIFUSE_FUNC_ATOM>  (659) 
n/a

>  <FINAL_SINGLE_POINT_ENERGY>  (659) 
0

>  <NONCOV_INTER_ENERGY_QM>  (659) 
0

>  <FF_Energy>  (659) 
-5.63

>  <QM_Energy>  (659) 
-10.88

>  <source>  (659) 
ETAM_MBZ

>  <Index>  (659) 
6513

$$$$
ETAM-pdb1j08-F-LYS-68:MBZ-pdb1j08-F-PHE-62
     RDKit          3D

 26 25  0  0  0  0  0  0  0  0999 V2000
    0.6716   -1.2144    5.1288 C   0  0  0  0  0  0  0  0  0  0  0  0
    0.6910   -1.0795    6.1112 H   0  0  0  0  0  0  0  0  0  0  0  0
    0.5951   -2.1777    4.9060 H   0  0  0  0  0  0  0  0  0  0  0  0
   -0.1814   -0.6799    4.7108 H   0  0  0  0  0  0  0  0  0  0  0  0
    1.9736   -0.6856    4.5439 C   0  0  0  0  0  0  0  0  0  0  0  0
    2.0632    0.2857    4.7778 H   0  0  0  0  0  0  0  0  0  0  0  0
    2.7402   -1.1897    4.9491 H   0  0  0  0  0  0  0  0  0  0  0  0
    2.0174   -0.8380    3.0633 N   0  0  0  0  0  4  0  0  0  0  0  0
    1.3331   -1.5083    2.7789 H   0  0  0  0  0  0  0  0  0  0  0  0
    1.8215    0.0432    2.6341 H   0  0  0  0  0  0  0  0  0  0  0  0
    2.9264   -1.1500    2.7894 H   0  0  0  0  0  0  0  0  0  0  0  0
   -0.0024    2.9186    0.0238 C   0  0  0  0  0  0  0  0  0  0  0  0
   -0.6203    3.2329   -0.6791 H   0  0  0  0  0  0  0  0  0  0  0  0
    0.9211    3.2269   -0.1409 H   0  0  0  0  0  0  0  0  0  0  0  0
   -0.3317    3.3428    0.9722 H   0  0  0  0  0  0  0  0  0  0  0  0
   -0.0005    1.4099   -0.0002 C   0  0  0  0  0  0  0  0  0  0  0  0
   -1.1970    0.6986    0.0006 C   0  0  0  0  0  0  0  0  0  0  0  0
   -2.0656    1.1841    0.0003 H   0  0  0  0  0  0  0  0  0  0  0  0
   -1.2038   -0.7040    0.0000 C   0  0  0  0  0  0  0  0  0  0  0  0
   -2.0800   -1.1921   -0.0001 H   0  0  0  0  0  0  0  0  0  0  0  0
    0.0008   -1.4038    0.0016 C   0  0  0  0  0  0  0  0  0  0  0  0
   -0.0014   -2.3990    0.0030 H   0  0  0  0  0  0  0  0  0  0  0  0
    1.2038   -0.7003   -0.0000 C   0  0  0  0  0  0  0  0  0  0  0  0
    2.0856   -1.1934    0.0018 H   0  0  0  0  0  0  0  0  0  0  0  0
    1.1966    0.6996   -0.0020 C   0  0  0  0  0  0  0  0  0  0  0  0
    2.0657    1.1932   -0.0055 H   0  0  0  0  0  0  0  0  0  0  0  0
  1  5  1  0
  5  8  1  0
  1  2  1  0
  1  3  1  0
  1  4  1  0
  5  6  1  0
  5  7  1  0
  8  9  1  0
  8 10  1  0
  8 11  1  0
 12 16  1  0
 16 17  2  0
 17 19  1  0
 19 21  2  0
 21 23  1  0
 23 25  2  0
 25 16  1  0
 12 13  1  0
 12 14  1  0
 12 15  1  0
 17 18  1  0
 19 20  1  0
 21 22  1  0
 23 24  1  0
 25 26  1  0
M  CHG  1   8   1
M  END
>  <PDB_ID>  (660) 
pdb1j08

>  <RESIDUE_NAME>  (660) 
LYS   PHE

>  <FRAG_NAME>  (660) 
ETAM   MBZ

>  <FRAG_ATOM_NUM>  (660) 
fragi: 11  fragj: 15

>  <atom.prop.CHAIN_ID>  (660) 
A A A A A A A A A A A Z Z Z Z Z Z Z Z Z Z Z Z Z Z Z

>  <atom.prop.IS_HEAVY_ATOM>  (660) 
1 0 0 0 1 0 0 1 0 0 0 1 0 0 0 1 1 0 1 0 1 0 1 0 1 0

>  <DIFUSE_FUNC_ATOM>  (660) 
n/a

>  <FINAL_SINGLE_POINT_ENERGY>  (660) 
0

>  <NONCOV_INTER_ENERGY_QM>  (660) 
0

>  <FF_Energy>  (660) 
-4.69

>  <QM_Energy>  (660) 
-11.44

>  <source>  (660) 
ETAM_MBZ

>  <Index>  (660) 
6514

$$$$
ETAM-pdb2nvk-X-LYS-408:MBZ-pdb2nvk-X-PHE-403
     RDKit          3D

 26 25  0  0  0  0  0  0  0  0999 V2000
    0.8020    0.9419   -4.1270 C   0  0  0  0  0  0  0  0  0  0  0  0
    1.4079    0.8903   -4.9099 H   0  0  0  0  0  0  0  0  0  0  0  0
    1.2070    1.4788   -3.3988 H   0  0  0  0  0  0  0  0  0  0  0  0
   -0.1328    1.4106   -4.4347 H   0  0  0  0  0  0  0  0  0  0  0  0
    0.5495   -0.4656   -3.6120 C   0  0  0  0  0  0  0  0  0  0  0  0
    0.0056   -0.4050   -2.7683 H   0  0  0  0  0  0  0  0  0  0  0  0
    0.0158   -0.9679   -4.3006 H   0  0  0  0  0  0  0  0  0  0  0  0
    1.8023   -1.1794   -3.3417 N   0  0  0  0  0  4  0  0  0  0  0  0
    1.6819   -2.1603   -3.5145 H   0  0  0  0  0  0  0  0  0  0  0  0
    2.5303   -0.8299   -3.9370 H   0  0  0  0  0  0  0  0  0  0  0  0
    2.0720   -1.0477   -2.3846 H   0  0  0  0  0  0  0  0  0  0  0  0
   -0.0223    2.9251    0.0074 C   0  0  0  0  0  0  0  0  0  0  0  0
    0.0085    3.2233    0.9516 H   0  0  0  0  0  0  0  0  0  0  0  0
   -0.8601    3.2187   -0.4310 H   0  0  0  0  0  0  0  0  0  0  0  0
    0.8103    3.3934   -0.5176 H   0  0  0  0  0  0  0  0  0  0  0  0
   -0.0009    1.4135   -0.0012 C   0  0  0  0  0  0  0  0  0  0  0  0
   -1.2018    0.7025    0.0020 C   0  0  0  0  0  0  0  0  0  0  0  0
   -2.0676    1.1929    0.0048 H   0  0  0  0  0  0  0  0  0  0  0  0
   -1.2115   -0.6970   -0.0000 C   0  0  0  0  0  0  0  0  0  0  0  0
   -2.0853   -1.1890   -0.0126 H   0  0  0  0  0  0  0  0  0  0  0  0
    0.0013   -1.4115    0.0169 C   0  0  0  0  0  0  0  0  0  0  0  0
   -0.0095   -2.4017    0.0396 H   0  0  0  0  0  0  0  0  0  0  0  0
    1.2115   -0.7087    0.0000 C   0  0  0  0  0  0  0  0  0  0  0  0
    2.0903   -1.1976    0.0017 H   0  0  0  0  0  0  0  0  0  0  0  0
    1.2014    0.7011   -0.0177 C   0  0  0  0  0  0  0  0  0  0  0  0
    2.0688    1.1928   -0.0429 H   0  0  0  0  0  0  0  0  0  0  0  0
  1  5  1  0
  5  8  1  0
  1  2  1  0
  1  3  1  0
  1  4  1  0
  5  6  1  0
  5  7  1  0
  8  9  1  0
  8 10  1  0
  8 11  1  0
 12 16  1  0
 16 17  2  0
 17 19  1  0
 19 21  2  0
 21 23  1  0
 23 25  2  0
 25 16  1  0
 12 13  1  0
 12 14  1  0
 12 15  1  0
 17 18  1  0
 19 20  1  0
 21 22  1  0
 23 24  1  0
 25 26  1  0
M  CHG  1   8   1
M  END
>  <PDB_ID>  (661) 
pdb2nvk

>  <RESIDUE_NAME>  (661) 
LYS   PHE

>  <FRAG_NAME>  (661) 
ETAM   MBZ

>  <FRAG_ATOM_NUM>  (661) 
fragi: 11  fragj: 15

>  <atom.prop.CHAIN_ID>  (661) 
A A A A A A A A A A A Z Z Z Z Z Z Z Z Z Z Z Z Z Z Z

>  <atom.prop.IS_HEAVY_ATOM>  (661) 
1 0 0 0 1 0 0 1 0 0 0 1 0 0 0 1 1 0 1 0 1 0 1 0 1 0

>  <DIFUSE_FUNC_ATOM>  (661) 
n/a

>  <FINAL_SINGLE_POINT_ENERGY>  (661) 
0

>  <NONCOV_INTER_ENERGY_QM>  (661) 
0

>  <FF_Energy>  (661) 
-5.9

>  <QM_Energy>  (661) 
-13.42

>  <source>  (661) 
ETAM_MBZ

>  <Index>  (661) 
6519

$$$$
ETAM-pdb2nru-D-LYS-214:MBZ-pdb2nru-D-PHE-180
     RDKit          3D

 26 25  0  0  0  0  0  0  0  0999 V2000
    1.2449    0.8690   -2.8655 C   0  0  0  0  0  0  0  0  0  0  0  0
    0.5510    0.5692   -2.1961 H   0  0  0  0  0  0  0  0  0  0  0  0
    2.0271    1.2498   -2.3518 H   0  0  0  0  0  0  0  0  0  0  0  0
    1.5908   -0.0084   -3.4119 H   0  0  0  0  0  0  0  0  0  0  0  0
    0.6465    1.9712   -3.7204 C   0  0  0  0  0  0  0  0  0  0  0  0
    0.1278    2.5939   -3.1299 H   0  0  0  0  0  0  0  0  0  0  0  0
    1.3904    2.4814   -4.1587 H   0  0  0  0  0  0  0  0  0  0  0  0
   -0.2493    1.4195   -4.7602 N   0  0  0  0  0  4  0  0  0  0  0  0
   -0.1845    1.9766   -5.5899 H   0  0  0  0  0  0  0  0  0  0  0  0
    0.0197    0.4783   -4.9710 H   0  0  0  0  0  0  0  0  0  0  0  0
   -1.1936    1.4270   -4.4287 H   0  0  0  0  0  0  0  0  0  0  0  0
   -0.0163    2.9692   -0.0402 C   0  0  0  0  0  0  0  0  0  0  0  0
   -0.9063    3.2391   -0.3689 H   0  0  0  0  0  0  0  0  0  0  0  0
    0.7018    3.2482   -0.6548 H   0  0  0  0  0  0  0  0  0  0  0  0
    0.1536    3.4409    0.9276 H   0  0  0  0  0  0  0  0  0  0  0  0
   -0.0003    1.4286    0.0017 C   0  0  0  0  0  0  0  0  0  0  0  0
   -1.1995    0.7045    0.0016 C   0  0  0  0  0  0  0  0  0  0  0  0
   -2.0706    1.1840    0.0019 H   0  0  0  0  0  0  0  0  0  0  0  0
   -1.2079   -0.7148   -0.0000 C   0  0  0  0  0  0  0  0  0  0  0  0
   -2.0909   -1.1902   -0.0012 H   0  0  0  0  0  0  0  0  0  0  0  0
   -0.0135   -1.4121    0.0025 C   0  0  0  0  0  0  0  0  0  0  0  0
   -0.0117   -2.4106    0.0053 H   0  0  0  0  0  0  0  0  0  0  0  0
    1.2079   -0.7157    0.0000 C   0  0  0  0  0  0  0  0  0  0  0  0
    2.0820   -1.2083    0.0035 H   0  0  0  0  0  0  0  0  0  0  0  0
    1.2132    0.7095   -0.0058 C   0  0  0  0  0  0  0  0  0  0  0  0
    2.0762    1.1907   -0.0159 H   0  0  0  0  0  0  0  0  0  0  0  0
  1  5  1  0
  5  8  1  0
  1  2  1  0
  1  3  1  0
  1  4  1  0
  5  6  1  0
  5  7  1  0
  8  9  1  0
  8 10  1  0
  8 11  1  0
 12 16  1  0
 16 17  2  0
 17 19  1  0
 19 21  2  0
 21 23  1  0
 23 25  2  0
 25 16  1  0
 12 13  1  0
 12 14  1  0
 12 15  1  0
 17 18  1  0
 19 20  1  0
 21 22  1  0
 23 24  1  0
 25 26  1  0
M  CHG  1   8   1
M  END
>  <PDB_ID>  (662) 
pdb2nru

>  <RESIDUE_NAME>  (662) 
LYS   PHE

>  <FRAG_NAME>  (662) 
ETAM   MBZ

>  <FRAG_ATOM_NUM>  (662) 
fragi: 11  fragj: 15

>  <atom.prop.CHAIN_ID>  (662) 
A A A A A A A A A A A Z Z Z Z Z Z Z Z Z Z Z Z Z Z Z

>  <atom.prop.IS_HEAVY_ATOM>  (662) 
1 0 0 0 1 0 0 1 0 0 0 1 0 0 0 1 1 0 1 0 1 0 1 0 1 0

>  <DIFUSE_FUNC_ATOM>  (662) 
n/a

>  <FINAL_SINGLE_POINT_ENERGY>  (662) 
0

>  <NONCOV_INTER_ENERGY_QM>  (662) 
0

>  <FF_Energy>  (662) 
4.66

>  <QM_Energy>  (662) 
-2.59

>  <source>  (662) 
ETAM_MBZ

>  <Index>  (662) 
6537

$$$$
ETAM-pdb2nyf-A-LYS-240:MBZ-pdb2nyf-A-PHE-563
     RDKit          3D

 26 25  0  0  0  0  0  0  0  0999 V2000
    3.4063   -2.5180    1.5041 C   0  0  0  0  0  0  0  0  0  0  0  0
    3.2081   -1.6980    0.9745 H   0  0  0  0  0  0  0  0  0  0  0  0
    4.3891   -2.6674    1.5496 H   0  0  0  0  0  0  0  0  0  0  0  0
    3.0230   -2.3843    2.5157 H   0  0  0  0  0  0  0  0  0  0  0  0
    2.7674   -3.7161    0.7983 C   0  0  0  0  0  0  0  0  0  0  0  0
    3.4749   -4.4218    0.6488 H   0  0  0  0  0  0  0  0  0  0  0  0
    2.0603   -4.1120    1.4022 H   0  0  0  0  0  0  0  0  0  0  0  0
    2.1306   -3.3864   -0.5326 N   0  0  0  0  0  4  0  0  0  0  0  0
    2.5641   -2.5689   -0.9002 H   0  0  0  0  0  0  0  0  0  0  0  0
    2.2653   -4.1555   -1.1509 H   0  0  0  0  0  0  0  0  0  0  0  0
    1.1580   -3.2263   -0.3909 H   0  0  0  0  0  0  0  0  0  0  0  0
   -0.0183    2.9103   -0.0548 C   0  0  0  0  0  0  0  0  0  0  0  0
   -0.5724    3.2361    0.6977 H   0  0  0  0  0  0  0  0  0  0  0  0
   -0.4037    3.1805   -0.9255 H   0  0  0  0  0  0  0  0  0  0  0  0
    0.9652    3.3723    0.0316 H   0  0  0  0  0  0  0  0  0  0  0  0
   -0.0007    1.4068   -0.0017 C   0  0  0  0  0  0  0  0  0  0  0  0
   -1.1953    0.6991    0.0005 C   0  0  0  0  0  0  0  0  0  0  0  0
   -2.0633    1.1866    0.0012 H   0  0  0  0  0  0  0  0  0  0  0  0
   -1.2028   -0.6978    0.0000 C   0  0  0  0  0  0  0  0  0  0  0  0
   -2.0806   -1.1873    0.0021 H   0  0  0  0  0  0  0  0  0  0  0  0
   -0.0008   -1.3992   -0.0014 C   0  0  0  0  0  0  0  0  0  0  0  0
   -0.0066   -2.3954   -0.0036 H   0  0  0  0  0  0  0  0  0  0  0  0
    1.2028   -0.7021   -0.0000 C   0  0  0  0  0  0  0  0  0  0  0  0
    2.0830   -1.1981    0.0005 H   0  0  0  0  0  0  0  0  0  0  0  0
    1.1968    0.6931    0.0026 C   0  0  0  0  0  0  0  0  0  0  0  0
    2.0655    1.1880    0.0068 H   0  0  0  0  0  0  0  0  0  0  0  0
  1  5  1  0
  5  8  1  0
  1  2  1  0
  1  3  1  0
  1  4  1  0
  5  6  1  0
  5  7  1  0
  8  9  1  0
  8 10  1  0
  8 11  1  0
 12 16  1  0
 16 17  2  0
 17 19  1  0
 19 21  2  0
 21 23  1  0
 23 25  2  0
 25 16  1  0
 12 13  1  0
 12 14  1  0
 12 15  1  0
 17 18  1  0
 19 20  1  0
 21 22  1  0
 23 24  1  0
 25 26  1  0
M  CHG  1   8   1
M  END
>  <PDB_ID>  (663) 
pdb2nyf

>  <RESIDUE_NAME>  (663) 
LYS   PHE

>  <FRAG_NAME>  (663) 
ETAM   MBZ

>  <FRAG_ATOM_NUM>  (663) 
fragi: 11  fragj: 15

>  <atom.prop.CHAIN_ID>  (663) 
A A A A A A A A A A A Z Z Z Z Z Z Z Z Z Z Z Z Z Z Z

>  <atom.prop.IS_HEAVY_ATOM>  (663) 
1 0 0 0 1 0 0 1 0 0 0 1 0 0 0 1 1 0 1 0 1 0 1 0 1 0

>  <DIFUSE_FUNC_ATOM>  (663) 
n/a

>  <FINAL_SINGLE_POINT_ENERGY>  (663) 
0

>  <NONCOV_INTER_ENERGY_QM>  (663) 
0

>  <FF_Energy>  (663) 
32.25

>  <QM_Energy>  (663) 
4.32

>  <source>  (663) 
ETAM_MBZ

>  <Index>  (663) 
6546

$$$$
ETAM-pdb2nts-A-LYS-200:MBZ-pdb2nts-A-PHE-176
     RDKit          3D

 26 25  0  0  0  0  0  0  0  0999 V2000
   -0.5417   -0.5682   -4.1917 C   0  0  0  0  0  0  0  0  0  0  0  0
   -0.4917   -0.3662   -5.1630 H   0  0  0  0  0  0  0  0  0  0  0  0
   -1.3555   -0.1641   -3.7917 H   0  0  0  0  0  0  0  0  0  0  0  0
   -0.5835   -1.6493   -4.0597 H   0  0  0  0  0  0  0  0  0  0  0  0
    0.6802    0.0207   -3.5073 C   0  0  0  0  0  0  0  0  0  0  0  0
    0.7426    0.9988   -3.7343 H   0  0  0  0  0  0  0  0  0  0  0  0
    0.5721   -0.0691   -2.5116 H   0  0  0  0  0  0  0  0  0  0  0  0
    1.9464   -0.6543   -3.9206 N   0  0  0  0  0  4  0  0  0  0  0  0
    1.8320   -1.6438   -3.8436 H   0  0  0  0  0  0  0  0  0  0  0  0
    2.1544   -0.4120   -4.8670 H   0  0  0  0  0  0  0  0  0  0  0  0
    2.6896   -0.3534   -3.3244 H   0  0  0  0  0  0  0  0  0  0  0  0
   -0.0147    2.9199   -0.1166 C   0  0  0  0  0  0  0  0  0  0  0  0
   -0.8518    3.1829   -0.5782 H   0  0  0  0  0  0  0  0  0  0  0  0
    0.7800    3.1925   -0.6434 H   0  0  0  0  0  0  0  0  0  0  0  0
    0.0206    3.4582    0.8305 H   0  0  0  0  0  0  0  0  0  0  0  0
   -0.0015    1.4101   -0.0017 C   0  0  0  0  0  0  0  0  0  0  0  0
   -1.1966    0.6955    0.0043 C   0  0  0  0  0  0  0  0  0  0  0  0
   -2.0660    1.1837    0.0105 H   0  0  0  0  0  0  0  0  0  0  0  0
   -1.2051   -0.7022   -0.0000 C   0  0  0  0  0  0  0  0  0  0  0  0
   -2.0819   -1.1906    0.0006 H   0  0  0  0  0  0  0  0  0  0  0  0
   -0.0035   -1.4007   -0.0038 C   0  0  0  0  0  0  0  0  0  0  0  0
   -0.0056   -2.3982   -0.0097 H   0  0  0  0  0  0  0  0  0  0  0  0
    1.2051   -0.7025    0.0000 C   0  0  0  0  0  0  0  0  0  0  0  0
    2.0835   -1.1975    0.0035 H   0  0  0  0  0  0  0  0  0  0  0  0
    1.2015    0.6999    0.0011 C   0  0  0  0  0  0  0  0  0  0  0  0
    2.0670    1.1925    0.0034 H   0  0  0  0  0  0  0  0  0  0  0  0
  1  5  1  0
  5  8  1  0
  1  2  1  0
  1  3  1  0
  1  4  1  0
  5  6  1  0
  5  7  1  0
  8  9  1  0
  8 10  1  0
  8 11  1  0
 12 16  1  0
 16 17  2  0
 17 19  1  0
 19 21  2  0
 21 23  1  0
 23 25  2  0
 25 16  1  0
 12 13  1  0
 12 14  1  0
 12 15  1  0
 17 18  1  0
 19 20  1  0
 21 22  1  0
 23 24  1  0
 25 26  1  0
M  CHG  1   8   1
M  END
>  <PDB_ID>  (664) 
pdb2nts

>  <RESIDUE_NAME>  (664) 
LYS   PHE

>  <FRAG_NAME>  (664) 
ETAM   MBZ

>  <FRAG_ATOM_NUM>  (664) 
fragi: 11  fragj: 15

>  <atom.prop.CHAIN_ID>  (664) 
A A A A A A A A A A A Z Z Z Z Z Z Z Z Z Z Z Z Z Z Z

>  <atom.prop.IS_HEAVY_ATOM>  (664) 
1 0 0 0 1 0 0 1 0 0 0 1 0 0 0 1 1 0 1 0 1 0 1 0 1 0

>  <DIFUSE_FUNC_ATOM>  (664) 
n/a

>  <FINAL_SINGLE_POINT_ENERGY>  (664) 
0

>  <NONCOV_INTER_ENERGY_QM>  (664) 
0

>  <FF_Energy>  (664) 
-4.81

>  <QM_Energy>  (664) 
-9.81

>  <source>  (664) 
ETAM_MBZ

>  <Index>  (664) 
6554

$$$$
ETAM-pdb2nzh-B-LYS-32:MBZ-pdb2nzh-B-PHE-23
     RDKit          3D

 26 25  0  0  0  0  0  0  0  0999 V2000
    0.3021    1.0475   -4.0057 C   0  0  0  0  0  0  0  0  0  0  0  0
   -0.2769    1.8366   -3.7741 H   0  0  0  0  0  0  0  0  0  0  0  0
    0.3838    0.9940   -5.0068 H   0  0  0  0  0  0  0  0  0  0  0  0
    1.2945    1.2164   -3.5877 H   0  0  0  0  0  0  0  0  0  0  0  0
   -0.3732   -0.2123   -3.5073 C   0  0  0  0  0  0  0  0  0  0  0  0
    0.0849   -1.0096   -3.8859 H   0  0  0  0  0  0  0  0  0  0  0  0
   -0.3449   -0.2371   -2.5131 H   0  0  0  0  0  0  0  0  0  0  0  0
   -1.8245   -0.2382   -3.9465 N   0  0  0  0  0  4  0  0  0  0  0  0
   -2.4006   -0.2706   -3.1360 H   0  0  0  0  0  0  0  0  0  0  0  0
   -2.0117    0.5858   -4.4715 H   0  0  0  0  0  0  0  0  0  0  0  0
   -1.9723   -1.0463   -4.5080 H   0  0  0  0  0  0  0  0  0  0  0  0
    0.0260    2.9325    0.0105 C   0  0  0  0  0  0  0  0  0  0  0  0
    0.7678    3.2245   -0.5776 H   0  0  0  0  0  0  0  0  0  0  0  0
    0.1849    3.2135    0.9482 H   0  0  0  0  0  0  0  0  0  0  0  0
   -0.8887    3.4140   -0.3356 H   0  0  0  0  0  0  0  0  0  0  0  0
    0.0006    1.4074   -0.0107 C   0  0  0  0  0  0  0  0  0  0  0  0
   -1.1969    0.6916    0.0037 C   0  0  0  0  0  0  0  0  0  0  0  0
   -2.0644    1.1831    0.0154 H   0  0  0  0  0  0  0  0  0  0  0  0
   -1.2013   -0.6964   -0.0000 C   0  0  0  0  0  0  0  0  0  0  0  0
   -2.0780   -1.1909   -0.0037 H   0  0  0  0  0  0  0  0  0  0  0  0
   -0.0010   -1.3909    0.0027 C   0  0  0  0  0  0  0  0  0  0  0  0
   -0.0092   -2.3933    0.0062 H   0  0  0  0  0  0  0  0  0  0  0  0
    1.2013   -0.7053   -0.0000 C   0  0  0  0  0  0  0  0  0  0  0  0
    2.0807   -1.1997   -0.0037 H   0  0  0  0  0  0  0  0  0  0  0  0
    1.1973    0.6936    0.0043 C   0  0  0  0  0  0  0  0  0  0  0  0
    2.0668    1.1861    0.0175 H   0  0  0  0  0  0  0  0  0  0  0  0
  1  5  1  0
  5  8  1  0
  1  2  1  0
  1  3  1  0
  1  4  1  0
  5  6  1  0
  5  7  1  0
  8  9  1  0
  8 10  1  0
  8 11  1  0
 12 16  1  0
 16 17  2  0
 17 19  1  0
 19 21  2  0
 21 23  1  0
 23 25  2  0
 25 16  1  0
 12 13  1  0
 12 14  1  0
 12 15  1  0
 17 18  1  0
 19 20  1  0
 21 22  1  0
 23 24  1  0
 25 26  1  0
M  CHG  1   8   1
M  END
>  <PDB_ID>  (665) 
pdb2nzh

>  <RESIDUE_NAME>  (665) 
LYS   PHE

>  <FRAG_NAME>  (665) 
ETAM   MBZ

>  <FRAG_ATOM_NUM>  (665) 
fragi: 11  fragj: 15

>  <atom.prop.CHAIN_ID>  (665) 
A A A A A A A A A A A Z Z Z Z Z Z Z Z Z Z Z Z Z Z Z

>  <atom.prop.IS_HEAVY_ATOM>  (665) 
1 0 0 0 1 0 0 1 0 0 0 1 0 0 0 1 1 0 1 0 1 0 1 0 1 0

>  <DIFUSE_FUNC_ATOM>  (665) 
n/a

>  <FINAL_SINGLE_POINT_ENERGY>  (665) 
0

>  <NONCOV_INTER_ENERGY_QM>  (665) 
0

>  <FF_Energy>  (665) 
-5.42

>  <QM_Energy>  (665) 
-10.99

>  <source>  (665) 
ETAM_MBZ

>  <Index>  (665) 
6557

$$$$
ETAM-pdb1j36-B-LYS-102:MBZ-pdb1j36-B-PHE-197
     RDKit          3D

 26 25  0  0  0  0  0  0  0  0999 V2000
    0.7294   -5.2921   -0.9966 C   0  0  0  0  0  0  0  0  0  0  0  0
    0.5374   -6.2113   -0.6732 H   0  0  0  0  0  0  0  0  0  0  0  0
    0.9102   -4.6827   -0.2331 H   0  0  0  0  0  0  0  0  0  0  0  0
    1.6021   -5.3181   -1.6492 H   0  0  0  0  0  0  0  0  0  0  0  0
   -0.5105   -4.7757   -1.7385 C   0  0  0  0  0  0  0  0  0  0  0  0
   -0.6975   -5.3896   -2.5154 H   0  0  0  0  0  0  0  0  0  0  0  0
   -1.2986   -4.8143   -1.1109 H   0  0  0  0  0  0  0  0  0  0  0  0
   -0.3576   -3.3779   -2.2455 N   0  0  0  0  0  4  0  0  0  0  0  0
   -0.3100   -3.3934   -3.2429 H   0  0  0  0  0  0  0  0  0  0  0  0
   -1.1433   -2.8349   -1.9538 H   0  0  0  0  0  0  0  0  0  0  0  0
    0.4817   -2.9833   -1.8742 H   0  0  0  0  0  0  0  0  0  0  0  0
    0.0023    2.9085   -0.0230 C   0  0  0  0  0  0  0  0  0  0  0  0
    0.9259    3.2166    0.1464 H   0  0  0  0  0  0  0  0  0  0  0  0
   -0.6187    3.2306    0.6759 H   0  0  0  0  0  0  0  0  0  0  0  0
   -0.3185    3.3414   -0.9705 H   0  0  0  0  0  0  0  0  0  0  0  0
   -0.0031    1.4050   -0.0003 C   0  0  0  0  0  0  0  0  0  0  0  0
   -1.2017    0.6987    0.0007 C   0  0  0  0  0  0  0  0  0  0  0  0
   -2.0668    1.1873    0.0013 H   0  0  0  0  0  0  0  0  0  0  0  0
   -1.2042   -0.6947   -0.0000 C   0  0  0  0  0  0  0  0  0  0  0  0
   -2.0765   -1.1916    0.0009 H   0  0  0  0  0  0  0  0  0  0  0  0
    0.0071   -1.3970   -0.0006 C   0  0  0  0  0  0  0  0  0  0  0  0
   -0.0041   -2.3941   -0.0022 H   0  0  0  0  0  0  0  0  0  0  0  0
    1.2042   -0.7027   -0.0000 C   0  0  0  0  0  0  0  0  0  0  0  0
    2.0873   -1.1965    0.0024 H   0  0  0  0  0  0  0  0  0  0  0  0
    1.1976    0.6907    0.0002 C   0  0  0  0  0  0  0  0  0  0  0  0
    2.0648    1.1881   -0.0002 H   0  0  0  0  0  0  0  0  0  0  0  0
  1  5  1  0
  5  8  1  0
  1  2  1  0
  1  3  1  0
  1  4  1  0
  5  6  1  0
  5  7  1  0
  8  9  1  0
  8 10  1  0
  8 11  1  0
 12 16  1  0
 16 17  2  0
 17 19  1  0
 19 21  2  0
 21 23  1  0
 23 25  2  0
 25 16  1  0
 12 13  1  0
 12 14  1  0
 12 15  1  0
 17 18  1  0
 19 20  1  0
 21 22  1  0
 23 24  1  0
 25 26  1  0
M  CHG  1   8   1
M  END
>  <PDB_ID>  (666) 
pdb1j36

>  <RESIDUE_NAME>  (666) 
LYS   PHE

>  <FRAG_NAME>  (666) 
ETAM   MBZ

>  <FRAG_ATOM_NUM>  (666) 
fragi: 11  fragj: 15

>  <atom.prop.CHAIN_ID>  (666) 
A A A A A A A A A A A Z Z Z Z Z Z Z Z Z Z Z Z Z Z Z

>  <atom.prop.IS_HEAVY_ATOM>  (666) 
1 0 0 0 1 0 0 1 0 0 0 1 0 0 0 1 1 0 1 0 1 0 1 0 1 0

>  <DIFUSE_FUNC_ATOM>  (666) 
n/a

>  <FINAL_SINGLE_POINT_ENERGY>  (666) 
0

>  <NONCOV_INTER_ENERGY_QM>  (666) 
0

>  <FF_Energy>  (666) 
0.41

>  <QM_Energy>  (666) 
-7.41

>  <source>  (666) 
ETAM_MBZ

>  <Index>  (666) 
6561

$$$$
ETAM-pdb1j3u-B-LYS-54:MBZ-pdb1j3u-B-PHE-253
     RDKit          3D

 26 25  0  0  0  0  0  0  0  0999 V2000
   -0.1408   -0.1506   -4.3807 C   0  0  0  0  0  0  0  0  0  0  0  0
    0.4500   -0.1557   -5.1825 H   0  0  0  0  0  0  0  0  0  0  0  0
   -0.1398    0.7525   -3.9602 H   0  0  0  0  0  0  0  0  0  0  0  0
   -1.1568   -0.4022   -4.6850 H   0  0  0  0  0  0  0  0  0  0  0  0
    0.3981   -1.1493   -3.3782 C   0  0  0  0  0  0  0  0  0  0  0  0
   -0.1324   -1.0887   -2.5360 H   0  0  0  0  0  0  0  0  0  0  0  0
    0.3254   -2.0689   -3.7583 H   0  0  0  0  0  0  0  0  0  0  0  0
    1.8310   -0.8581   -3.0751 N   0  0  0  0  0  4  0  0  0  0  0  0
    2.4109   -1.4851   -3.5929 H   0  0  0  0  0  0  0  0  0  0  0  0
    2.0376    0.0840   -3.3353 H   0  0  0  0  0  0  0  0  0  0  0  0
    1.9922   -0.9807   -2.0970 H   0  0  0  0  0  0  0  0  0  0  0  0
    0.0079    2.9005   -0.0039 C   0  0  0  0  0  0  0  0  0  0  0  0
   -0.9269    3.2128    0.0605 H   0  0  0  0  0  0  0  0  0  0  0  0
    0.4328    3.2042   -0.8432 H   0  0  0  0  0  0  0  0  0  0  0  0
    0.5630    3.3355    0.8272 H   0  0  0  0  0  0  0  0  0  0  0  0
    0.0004    1.4028    0.0003 C   0  0  0  0  0  0  0  0  0  0  0  0
   -1.2010    0.6981    0.0009 C   0  0  0  0  0  0  0  0  0  0  0  0
   -2.0653    1.1891    0.0004 H   0  0  0  0  0  0  0  0  0  0  0  0
   -1.2094   -0.6968   -0.0000 C   0  0  0  0  0  0  0  0  0  0  0  0
   -2.0828   -1.1895    0.0014 H   0  0  0  0  0  0  0  0  0  0  0  0
   -0.0003   -1.3970   -0.0011 C   0  0  0  0  0  0  0  0  0  0  0  0
   -0.0055   -2.3936   -0.0029 H   0  0  0  0  0  0  0  0  0  0  0  0
    1.2094   -0.6988    0.0000 C   0  0  0  0  0  0  0  0  0  0  0  0
    2.0860   -1.1982    0.0027 H   0  0  0  0  0  0  0  0  0  0  0  0
    1.2009    0.6918   -0.0001 C   0  0  0  0  0  0  0  0  0  0  0  0
    2.0674    1.1909   -0.0015 H   0  0  0  0  0  0  0  0  0  0  0  0
  1  5  1  0
  5  8  1  0
  1  2  1  0
  1  3  1  0
  1  4  1  0
  5  6  1  0
  5  7  1  0
  8  9  1  0
  8 10  1  0
  8 11  1  0
 12 16  1  0
 16 17  2  0
 17 19  1  0
 19 21  2  0
 21 23  1  0
 23 25  2  0
 25 16  1  0
 12 13  1  0
 12 14  1  0
 12 15  1  0
 17 18  1  0
 19 20  1  0
 21 22  1  0
 23 24  1  0
 25 26  1  0
M  CHG  1   8   1
M  END
>  <PDB_ID>  (667) 
pdb1j3u

>  <RESIDUE_NAME>  (667) 
LYS   PHE

>  <FRAG_NAME>  (667) 
ETAM   MBZ

>  <FRAG_ATOM_NUM>  (667) 
fragi: 11  fragj: 15

>  <atom.prop.CHAIN_ID>  (667) 
A A A A A A A A A A A Z Z Z Z Z Z Z Z Z Z Z Z Z Z Z

>  <atom.prop.IS_HEAVY_ATOM>  (667) 
1 0 0 0 1 0 0 1 0 0 0 1 0 0 0 1 1 0 1 0 1 0 1 0 1 0

>  <DIFUSE_FUNC_ATOM>  (667) 
n/a

>  <FINAL_SINGLE_POINT_ENERGY>  (667) 
0

>  <NONCOV_INTER_ENERGY_QM>  (667) 
0

>  <FF_Energy>  (667) 
-4.81

>  <QM_Energy>  (667) 
-13.17

>  <source>  (667) 
ETAM_MBZ

>  <Index>  (667) 
6580

$$$$
ETAM-pdb1j7l-A-LYS-61:MBZ-pdb1j7l-A-PHE-79
     RDKit          3D

 26 25  0  0  0  0  0  0  0  0999 V2000
    0.4601    2.5891   -3.2227 C   0  0  0  0  0  0  0  0  0  0  0  0
    1.0480    3.3841   -3.0834 H   0  0  0  0  0  0  0  0  0  0  0  0
    0.3636    2.0873   -2.3654 H   0  0  0  0  0  0  0  0  0  0  0  0
   -0.5241    2.9330   -3.5405 H   0  0  0  0  0  0  0  0  0  0  0  0
    1.0866    1.6918   -4.2454 C   0  0  0  0  0  0  0  0  0  0  0  0
    0.3891    1.0753   -4.6242 H   0  0  0  0  0  0  0  0  0  0  0  0
    1.4647    2.2464   -4.9930 H   0  0  0  0  0  0  0  0  0  0  0  0
    2.1828    0.8706   -3.6565 N   0  0  0  0  0  4  0  0  0  0  0  0
    3.0511    1.3529   -3.7631 H   0  0  0  0  0  0  0  0  0  0  0  0
    1.9987    0.7216   -2.6864 H   0  0  0  0  0  0  0  0  0  0  0  0
    2.2272   -0.0086   -4.1293 H   0  0  0  0  0  0  0  0  0  0  0  0
    0.0009    2.8977    0.1500 C   0  0  0  0  0  0  0  0  0  0  0  0
   -0.7314    3.2589   -0.4009 H   0  0  0  0  0  0  0  0  0  0  0  0
    0.8814    3.2323   -0.1389 H   0  0  0  0  0  0  0  0  0  0  0  0
   -0.1610    3.2195    1.1788 H   0  0  0  0  0  0  0  0  0  0  0  0
    0.0006    1.4011    0.0011 C   0  0  0  0  0  0  0  0  0  0  0  0
   -1.1966    0.6953   -0.0031 C   0  0  0  0  0  0  0  0  0  0  0  0
   -2.0624    1.1865   -0.0099 H   0  0  0  0  0  0  0  0  0  0  0  0
   -1.2048   -0.6963   -0.0000 C   0  0  0  0  0  0  0  0  0  0  0  0
   -2.0810   -1.1884   -0.0007 H   0  0  0  0  0  0  0  0  0  0  0  0
   -0.0025   -1.3943    0.0067 C   0  0  0  0  0  0  0  0  0  0  0  0
   -0.0047   -2.3916    0.0153 H   0  0  0  0  0  0  0  0  0  0  0  0
    1.2048   -0.6959   -0.0000 C   0  0  0  0  0  0  0  0  0  0  0  0
    2.0827   -1.1977   -0.0002 H   0  0  0  0  0  0  0  0  0  0  0  0
    1.1985    0.6902   -0.0046 C   0  0  0  0  0  0  0  0  0  0  0  0
    2.0658    1.1903   -0.0133 H   0  0  0  0  0  0  0  0  0  0  0  0
  1  5  1  0
  5  8  1  0
  1  2  1  0
  1  3  1  0
  1  4  1  0
  5  6  1  0
  5  7  1  0
  8  9  1  0
  8 10  1  0
  8 11  1  0
 12 16  1  0
 16 17  2  0
 17 19  1  0
 19 21  2  0
 21 23  1  0
 23 25  2  0
 25 16  1  0
 12 13  1  0
 12 14  1  0
 12 15  1  0
 17 18  1  0
 19 20  1  0
 21 22  1  0
 23 24  1  0
 25 26  1  0
M  CHG  1   8   1
M  END
>  <PDB_ID>  (668) 
pdb1j7l

>  <RESIDUE_NAME>  (668) 
LYS   PHE

>  <FRAG_NAME>  (668) 
ETAM   MBZ

>  <FRAG_ATOM_NUM>  (668) 
fragi: 11  fragj: 15

>  <atom.prop.CHAIN_ID>  (668) 
A A A A A A A A A A A Z Z Z Z Z Z Z Z Z Z Z Z Z Z Z

>  <atom.prop.IS_HEAVY_ATOM>  (668) 
1 0 0 0 1 0 0 1 0 0 0 1 0 0 0 1 1 0 1 0 1 0 1 0 1 0

>  <DIFUSE_FUNC_ATOM>  (668) 
n/a

>  <FINAL_SINGLE_POINT_ENERGY>  (668) 
0

>  <NONCOV_INTER_ENERGY_QM>  (668) 
0

>  <FF_Energy>  (668) 
-3.7

>  <QM_Energy>  (668) 
-9.65

>  <source>  (668) 
ETAM_MBZ

>  <Index>  (668) 
6581

$$$$
ETAM-pdb2o05-A-LYS-186:MBZ-pdb2o05-A-PHE-157
     RDKit          3D

 26 25  0  0  0  0  0  0  0  0999 V2000
   -0.4299   -1.7956   -4.3592 C   0  0  0  0  0  0  0  0  0  0  0  0
   -0.4811   -2.7726   -4.1196 H   0  0  0  0  0  0  0  0  0  0  0  0
   -0.1136   -1.7189   -5.3125 H   0  0  0  0  0  0  0  0  0  0  0  0
   -1.4284   -1.3646   -4.2857 H   0  0  0  0  0  0  0  0  0  0  0  0
    0.6252   -1.1407   -3.4559 C   0  0  0  0  0  0  0  0  0  0  0  0
    0.4265   -1.3962   -2.4880 H   0  0  0  0  0  0  0  0  0  0  0  0
    1.5360   -1.5433   -3.6768 H   0  0  0  0  0  0  0  0  0  0  0  0
    0.7450    0.3695   -3.5314 N   0  0  0  0  0  4  0  0  0  0  0  0
    1.7065    0.6073   -3.6240 H   0  0  0  0  0  0  0  0  0  0  0  0
    0.2312    0.6891   -4.3214 H   0  0  0  0  0  0  0  0  0  0  0  0
    0.3720    0.7592   -2.6953 H   0  0  0  0  0  0  0  0  0  0  0  0
   -0.0102    2.9307    0.0313 C   0  0  0  0  0  0  0  0  0  0  0  0
   -0.8077    3.2527   -0.4457 H   0  0  0  0  0  0  0  0  0  0  0  0
    0.8247    3.2509   -0.3794 H   0  0  0  0  0  0  0  0  0  0  0  0
   -0.0512    3.3325    1.0437 H   0  0  0  0  0  0  0  0  0  0  0  0
   -0.0099    1.4182   -0.0149 C   0  0  0  0  0  0  0  0  0  0  0  0
   -1.2073    0.7096    0.0020 C   0  0  0  0  0  0  0  0  0  0  0  0
   -2.0760    1.1927    0.0145 H   0  0  0  0  0  0  0  0  0  0  0  0
   -1.2168   -0.7013   -0.0000 C   0  0  0  0  0  0  0  0  0  0  0  0
   -2.0827   -1.1922   -0.0066 H   0  0  0  0  0  0  0  0  0  0  0  0
    0.0101   -1.4087    0.0088 C   0  0  0  0  0  0  0  0  0  0  0  0
   -0.0097   -2.4064    0.0211 H   0  0  0  0  0  0  0  0  0  0  0  0
    1.2168   -0.7226    0.0000 C   0  0  0  0  0  0  0  0  0  0  0  0
    2.0957   -1.2019   -0.0077 H   0  0  0  0  0  0  0  0  0  0  0  0
    1.2071    0.7048    0.0041 C   0  0  0  0  0  0  0  0  0  0  0  0
    2.0689    1.1935    0.0199 H   0  0  0  0  0  0  0  0  0  0  0  0
  1  5  1  0
  5  8  1  0
  1  2  1  0
  1  3  1  0
  1  4  1  0
  5  6  1  0
  5  7  1  0
  8  9  1  0
  8 10  1  0
  8 11  1  0
 12 16  1  0
 16 17  2  0
 17 19  1  0
 19 21  2  0
 21 23  1  0
 23 25  2  0
 25 16  1  0
 12 13  1  0
 12 14  1  0
 12 15  1  0
 17 18  1  0
 19 20  1  0
 21 22  1  0
 23 24  1  0
 25 26  1  0
M  CHG  1   8   1
M  END
>  <PDB_ID>  (669) 
pdb2o05

>  <RESIDUE_NAME>  (669) 
LYS   PHE

>  <FRAG_NAME>  (669) 
ETAM   MBZ

>  <FRAG_ATOM_NUM>  (669) 
fragi: 11  fragj: 15

>  <atom.prop.CHAIN_ID>  (669) 
A A A A A A A A A A A Z Z Z Z Z Z Z Z Z Z Z Z Z Z Z

>  <atom.prop.IS_HEAVY_ATOM>  (669) 
1 0 0 0 1 0 0 1 0 0 0 1 0 0 0 1 1 0 1 0 1 0 1 0 1 0

>  <DIFUSE_FUNC_ATOM>  (669) 
n/a

>  <FINAL_SINGLE_POINT_ENERGY>  (669) 
0

>  <NONCOV_INTER_ENERGY_QM>  (669) 
0

>  <FF_Energy>  (669) 
-7.12

>  <QM_Energy>  (669) 
-13.84

>  <source>  (669) 
ETAM_MBZ

>  <Index>  (669) 
6582

$$$$
ETAM-pdb2o05-B-LYS-186:MBZ-pdb2o05-B-PHE-157
     RDKit          3D

 26 25  0  0  0  0  0  0  0  0999 V2000
   -1.0009   -1.5723   -3.9045 C   0  0  0  0  0  0  0  0  0  0  0  0
   -1.0101   -1.5522   -2.9072 H   0  0  0  0  0  0  0  0  0  0  0  0
   -0.5702   -2.4136   -4.2233 H   0  0  0  0  0  0  0  0  0  0  0  0
   -2.0192   -1.5060   -4.2875 H   0  0  0  0  0  0  0  0  0  0  0  0
   -0.1733   -0.4079   -4.3900 C   0  0  0  0  0  0  0  0  0  0  0  0
    0.1789   -0.6057   -5.3005 H   0  0  0  0  0  0  0  0  0  0  0  0
   -0.7356    0.4149   -4.4129 H   0  0  0  0  0  0  0  0  0  0  0  0
    0.9848   -0.1756   -3.4641 N   0  0  0  0  0  4  0  0  0  0  0  0
    1.1433    0.8056   -3.3809 H   0  0  0  0  0  0  0  0  0  0  0  0
    0.7693   -0.5613   -2.5700 H   0  0  0  0  0  0  0  0  0  0  0  0
    1.7958   -0.6201   -3.8390 H   0  0  0  0  0  0  0  0  0  0  0  0
   -0.0059    2.9397    0.0403 C   0  0  0  0  0  0  0  0  0  0  0  0
   -0.7954    3.2532   -0.4501 H   0  0  0  0  0  0  0  0  0  0  0  0
    0.8347    3.2572   -0.3539 H   0  0  0  0  0  0  0  0  0  0  0  0
   -0.0658    3.3433    1.0511 H   0  0  0  0  0  0  0  0  0  0  0  0
   -0.0001    1.4117   -0.0046 C   0  0  0  0  0  0  0  0  0  0  0  0
   -1.2067    0.6933   -0.0069 C   0  0  0  0  0  0  0  0  0  0  0  0
   -2.0693    1.1849   -0.0148 H   0  0  0  0  0  0  0  0  0  0  0  0
   -1.2067   -0.6971   -0.0000 C   0  0  0  0  0  0  0  0  0  0  0  0
   -2.0822   -1.1950   -0.0006 H   0  0  0  0  0  0  0  0  0  0  0  0
   -0.0011   -1.3963    0.0098 C   0  0  0  0  0  0  0  0  0  0  0  0
   -0.0136   -2.3982    0.0232 H   0  0  0  0  0  0  0  0  0  0  0  0
    1.2067   -0.7140    0.0000 C   0  0  0  0  0  0  0  0  0  0  0  0
    2.0844   -1.2046   -0.0072 H   0  0  0  0  0  0  0  0  0  0  0  0
    1.2079    0.7023    0.0017 C   0  0  0  0  0  0  0  0  0  0  0  0
    2.0716    1.1874    0.0068 H   0  0  0  0  0  0  0  0  0  0  0  0
  1  5  1  0
  5  8  1  0
  1  2  1  0
  1  3  1  0
  1  4  1  0
  5  6  1  0
  5  7  1  0
  8  9  1  0
  8 10  1  0
  8 11  1  0
 12 16  1  0
 16 17  2  0
 17 19  1  0
 19 21  2  0
 21 23  1  0
 23 25  2  0
 25 16  1  0
 12 13  1  0
 12 14  1  0
 12 15  1  0
 17 18  1  0
 19 20  1  0
 21 22  1  0
 23 24  1  0
 25 26  1  0
M  CHG  1   8   1
M  END
>  <PDB_ID>  (670) 
pdb2o05

>  <RESIDUE_NAME>  (670) 
LYS   PHE

>  <FRAG_NAME>  (670) 
ETAM   MBZ

>  <FRAG_ATOM_NUM>  (670) 
fragi: 11  fragj: 15

>  <atom.prop.CHAIN_ID>  (670) 
A A A A A A A A A A A Z Z Z Z Z Z Z Z Z Z Z Z Z Z Z

>  <atom.prop.IS_HEAVY_ATOM>  (670) 
1 0 0 0 1 0 0 1 0 0 0 1 0 0 0 1 1 0 1 0 1 0 1 0 1 0

>  <DIFUSE_FUNC_ATOM>  (670) 
n/a

>  <FINAL_SINGLE_POINT_ENERGY>  (670) 
0

>  <NONCOV_INTER_ENERGY_QM>  (670) 
0

>  <FF_Energy>  (670) 
-8.01

>  <QM_Energy>  (670) 
-14.72

>  <source>  (670) 
ETAM_MBZ

>  <Index>  (670) 
6583

$$$$
ETAM-pdb2o08-B-LYS-167:MBZ-pdb2o08-B-PHE-163
     RDKit          3D

 26 25  0  0  0  0  0  0  0  0999 V2000
   -0.1761   -2.3713    4.4554 C   0  0  0  0  0  0  0  0  0  0  0  0
    0.4075   -3.0526    4.9104 H   0  0  0  0  0  0  0  0  0  0  0  0
   -0.7394   -1.9148    5.1525 H   0  0  0  0  0  0  0  0  0  0  0  0
    0.4685   -1.6243    3.9922 H   0  0  0  0  0  0  0  0  0  0  0  0
   -1.0833   -3.0784    3.4840 C   0  0  0  0  0  0  0  0  0  0  0  0
   -0.5286   -3.6833    2.9022 H   0  0  0  0  0  0  0  0  0  0  0  0
   -1.7354   -3.6439    4.0006 H   0  0  0  0  0  0  0  0  0  0  0  0
   -1.8118   -2.1261    2.6502 N   0  0  0  0  0  4  0  0  0  0  0  0
   -1.1866   -1.6904    1.9966 H   0  0  0  0  0  0  0  0  0  0  0  0
   -2.5365   -2.5981    2.1400 H   0  0  0  0  0  0  0  0  0  0  0  0
   -2.2301   -1.4146    3.2225 H   0  0  0  0  0  0  0  0  0  0  0  0
    0.0007    2.8802    0.0166 C   0  0  0  0  0  0  0  0  0  0  0  0
   -0.8123    3.2086   -0.4419 H   0  0  0  0  0  0  0  0  0  0  0  0
    0.8207    3.2008   -0.4348 H   0  0  0  0  0  0  0  0  0  0  0  0
   -0.0016    3.2953    1.0245 H   0  0  0  0  0  0  0  0  0  0  0  0
   -0.0062    1.3993   -0.0113 C   0  0  0  0  0  0  0  0  0  0  0  0
   -1.2012    0.7127    0.0205 C   0  0  0  0  0  0  0  0  0  0  0  0
   -2.0643    1.1951    0.0564 H   0  0  0  0  0  0  0  0  0  0  0  0
   -1.1992   -0.6847    0.0000 C   0  0  0  0  0  0  0  0  0  0  0  0
   -2.0749   -1.1813   -0.0132 H   0  0  0  0  0  0  0  0  0  0  0  0
    0.0095   -1.3911   -0.0006 C   0  0  0  0  0  0  0  0  0  0  0  0
   -0.0151   -2.3931   -0.0018 H   0  0  0  0  0  0  0  0  0  0  0  0
    1.1992   -0.7156    0.0000 C   0  0  0  0  0  0  0  0  0  0  0  0
    2.0829   -1.2082    0.0084 H   0  0  0  0  0  0  0  0  0  0  0  0
    1.1979    0.6795   -0.0087 C   0  0  0  0  0  0  0  0  0  0  0  0
    2.0642    1.1748   -0.0136 H   0  0  0  0  0  0  0  0  0  0  0  0
  1  5  1  0
  5  8  1  0
  1  2  1  0
  1  3  1  0
  1  4  1  0
  5  6  1  0
  5  7  1  0
  8  9  1  0
  8 10  1  0
  8 11  1  0
 12 16  1  0
 16 17  2  0
 17 19  1  0
 19 21  2  0
 21 23  1  0
 23 25  2  0
 25 16  1  0
 12 13  1  0
 12 14  1  0
 12 15  1  0
 17 18  1  0
 19 20  1  0
 21 22  1  0
 23 24  1  0
 25 26  1  0
M  CHG  1   8   1
M  END
>  <PDB_ID>  (671) 
pdb2o08

>  <RESIDUE_NAME>  (671) 
LYS   PHE

>  <FRAG_NAME>  (671) 
ETAM   MBZ

>  <FRAG_ATOM_NUM>  (671) 
fragi: 11  fragj: 15

>  <atom.prop.CHAIN_ID>  (671) 
A A A A A A A A A A A Z Z Z Z Z Z Z Z Z Z Z Z Z Z Z

>  <atom.prop.IS_HEAVY_ATOM>  (671) 
1 0 0 0 1 0 0 1 0 0 0 1 0 0 0 1 1 0 1 0 1 0 1 0 1 0

>  <DIFUSE_FUNC_ATOM>  (671) 
n/a

>  <FINAL_SINGLE_POINT_ENERGY>  (671) 
0

>  <NONCOV_INTER_ENERGY_QM>  (671) 
0

>  <FF_Energy>  (671) 
-3.25

>  <QM_Energy>  (671) 
-11.75

>  <source>  (671) 
ETAM_MBZ

>  <Index>  (671) 
6587

$$$$
ETAM-pdb2o18-B-LYS-21:MBZ-pdb2o18-B-PHE-26
     RDKit          3D

 26 25  0  0  0  0  0  0  0  0999 V2000
   -3.4695   -1.3367   -2.9353 C   0  0  0  0  0  0  0  0  0  0  0  0
   -4.1328   -1.6003   -3.6306 H   0  0  0  0  0  0  0  0  0  0  0  0
   -2.5439   -1.4974   -3.2665 H   0  0  0  0  0  0  0  0  0  0  0  0
   -3.5895   -0.2763   -2.7130 H   0  0  0  0  0  0  0  0  0  0  0  0
   -3.6964   -2.2212   -1.6991 C   0  0  0  0  0  0  0  0  0  0  0  0
   -2.9648   -2.0392   -1.0331 H   0  0  0  0  0  0  0  0  0  0  0  0
   -4.5769   -1.9721   -1.2800 H   0  0  0  0  0  0  0  0  0  0  0  0
   -3.7107   -3.7015   -2.0111 N   0  0  0  0  0  4  0  0  0  0  0  0
   -4.6467   -4.0332   -1.9428 H   0  0  0  0  0  0  0  0  0  0  0  0
   -3.3636   -3.8361   -2.9345 H   0  0  0  0  0  0  0  0  0  0  0  0
   -3.1307   -4.1719   -1.3528 H   0  0  0  0  0  0  0  0  0  0  0  0
    0.0066    2.9002   -0.0388 C   0  0  0  0  0  0  0  0  0  0  0  0
    0.8748    3.2143    0.3146 H   0  0  0  0  0  0  0  0  0  0  0  0
   -0.7463    3.2247    0.5135 H   0  0  0  0  0  0  0  0  0  0  0  0
   -0.1139    3.3123   -1.0406 H   0  0  0  0  0  0  0  0  0  0  0  0
    0.0019    1.4025   -0.0004 C   0  0  0  0  0  0  0  0  0  0  0  0
   -1.1980    0.6947    0.0002 C   0  0  0  0  0  0  0  0  0  0  0  0
   -2.0629    1.1872   -0.0006 H   0  0  0  0  0  0  0  0  0  0  0  0
   -1.2067   -0.6965    0.0000 C   0  0  0  0  0  0  0  0  0  0  0  0
   -2.0835   -1.1878    0.0019 H   0  0  0  0  0  0  0  0  0  0  0  0
   -0.0054   -1.3951   -0.0008 C   0  0  0  0  0  0  0  0  0  0  0  0
   -0.0078   -2.3934   -0.0020 H   0  0  0  0  0  0  0  0  0  0  0  0
    1.2067   -0.6986    0.0000 C   0  0  0  0  0  0  0  0  0  0  0  0
    2.0818   -1.1998    0.0015 H   0  0  0  0  0  0  0  0  0  0  0  0
    1.2014    0.6930    0.0009 C   0  0  0  0  0  0  0  0  0  0  0  0
    2.0679    1.1902    0.0016 H   0  0  0  0  0  0  0  0  0  0  0  0
  1  5  1  0
  5  8  1  0
  1  2  1  0
  1  3  1  0
  1  4  1  0
  5  6  1  0
  5  7  1  0
  8  9  1  0
  8 10  1  0
  8 11  1  0
 12 16  1  0
 16 17  2  0
 17 19  1  0
 19 21  2  0
 21 23  1  0
 23 25  2  0
 25 16  1  0
 12 13  1  0
 12 14  1  0
 12 15  1  0
 17 18  1  0
 19 20  1  0
 21 22  1  0
 23 24  1  0
 25 26  1  0
M  CHG  1   8   1
M  END
>  <PDB_ID>  (672) 
pdb2o18

>  <RESIDUE_NAME>  (672) 
LYS   PHE

>  <FRAG_NAME>  (672) 
ETAM   MBZ

>  <FRAG_ATOM_NUM>  (672) 
fragi: 11  fragj: 15

>  <atom.prop.CHAIN_ID>  (672) 
A A A A A A A A A A A Z Z Z Z Z Z Z Z Z Z Z Z Z Z Z

>  <atom.prop.IS_HEAVY_ATOM>  (672) 
1 0 0 0 1 0 0 1 0 0 0 1 0 0 0 1 1 0 1 0 1 0 1 0 1 0

>  <DIFUSE_FUNC_ATOM>  (672) 
n/a

>  <FINAL_SINGLE_POINT_ENERGY>  (672) 
0

>  <NONCOV_INTER_ENERGY_QM>  (672) 
0

>  <FF_Energy>  (672) 
16.8

>  <QM_Energy>  (672) 
-0.51

>  <source>  (672) 
ETAM_MBZ

>  <Index>  (672) 
6606

$$$$
ETAM-pdb2o0p-A-LYS-6:MBZ-pdb2o0p-A-PHE-22
     RDKit          3D

 26 25  0  0  0  0  0  0  0  0999 V2000
    4.6272   -2.6778   -1.6746 C   0  0  0  0  0  0  0  0  0  0  0  0
    5.1150   -3.3782   -2.1857 H   0  0  0  0  0  0  0  0  0  0  0  0
    5.2282   -2.2568   -1.0032 H   0  0  0  0  0  0  0  0  0  0  0  0
    4.2910   -1.9096   -2.3711 H   0  0  0  0  0  0  0  0  0  0  0  0
    3.4612   -3.3255   -0.9494 C   0  0  0  0  0  0  0  0  0  0  0  0
    2.9581   -2.6181   -0.4416 H   0  0  0  0  0  0  0  0  0  0  0  0
    2.8394   -3.7340   -1.6275 H   0  0  0  0  0  0  0  0  0  0  0  0
    3.9003   -4.3879    0.0060 N   0  0  0  0  0  4  0  0  0  0  0  0
    3.6301   -5.2814   -0.3500 H   0  0  0  0  0  0  0  0  0  0  0  0
    4.8927   -4.3507    0.1050 H   0  0  0  0  0  0  0  0  0  0  0  0
    3.4669   -4.2326    0.8920 H   0  0  0  0  0  0  0  0  0  0  0  0
    0.0161    2.9106   -0.0514 C   0  0  0  0  0  0  0  0  0  0  0  0
   -0.4261    3.1914   -0.8908 H   0  0  0  0  0  0  0  0  0  0  0  0
    0.9597    3.2086   -0.0279 H   0  0  0  0  0  0  0  0  0  0  0  0
   -0.5052    3.3900    0.7772 H   0  0  0  0  0  0  0  0  0  0  0  0
    0.0027    1.4061   -0.0005 C   0  0  0  0  0  0  0  0  0  0  0  0
   -1.1989    0.7018    0.0010 C   0  0  0  0  0  0  0  0  0  0  0  0
   -2.0632    1.1886    0.0016 H   0  0  0  0  0  0  0  0  0  0  0  0
   -1.2042   -0.6992    0.0000 C   0  0  0  0  0  0  0  0  0  0  0  0
   -2.0829   -1.1868    0.0015 H   0  0  0  0  0  0  0  0  0  0  0  0
   -0.0044   -1.3979   -0.0018 C   0  0  0  0  0  0  0  0  0  0  0  0
   -0.0074   -2.3956   -0.0049 H   0  0  0  0  0  0  0  0  0  0  0  0
    1.2042   -0.7009    0.0000 C   0  0  0  0  0  0  0  0  0  0  0  0
    2.0811   -1.2019    0.0020 H   0  0  0  0  0  0  0  0  0  0  0  0
    1.2006    0.6901    0.0013 C   0  0  0  0  0  0  0  0  0  0  0  0
    2.0695    1.1861    0.0028 H   0  0  0  0  0  0  0  0  0  0  0  0
  1  5  1  0
  5  8  1  0
  1  2  1  0
  1  3  1  0
  1  4  1  0
  5  6  1  0
  5  7  1  0
  8  9  1  0
  8 10  1  0
  8 11  1  0
 12 16  1  0
 16 17  2  0
 17 19  1  0
 19 21  2  0
 21 23  1  0
 23 25  2  0
 25 16  1  0
 12 13  1  0
 12 14  1  0
 12 15  1  0
 17 18  1  0
 19 20  1  0
 21 22  1  0
 23 24  1  0
 25 26  1  0
M  CHG  1   8   1
M  END
>  <PDB_ID>  (673) 
pdb2o0p

>  <RESIDUE_NAME>  (673) 
LYS   PHE

>  <FRAG_NAME>  (673) 
ETAM   MBZ

>  <FRAG_ATOM_NUM>  (673) 
fragi: 11  fragj: 15

>  <atom.prop.CHAIN_ID>  (673) 
A A A A A A A A A A A Z Z Z Z Z Z Z Z Z Z Z Z Z Z Z

>  <atom.prop.IS_HEAVY_ATOM>  (673) 
1 0 0 0 1 0 0 1 0 0 0 1 0 0 0 1 1 0 1 0 1 0 1 0 1 0

>  <DIFUSE_FUNC_ATOM>  (673) 
n/a

>  <FINAL_SINGLE_POINT_ENERGY>  (673) 
0

>  <NONCOV_INTER_ENERGY_QM>  (673) 
0

>  <FF_Energy>  (673) 
7.01

>  <QM_Energy>  (673) 
-0.93

>  <source>  (673) 
ETAM_MBZ

>  <Index>  (673) 
6612

$$$$
ETAM-pdb1j7n-A-LYS-380:MBZ-pdb1j7n-A-PHE-329
     RDKit          3D

 26 25  0  0  0  0  0  0  0  0999 V2000
    1.4932   -0.8864    3.2753 C   0  0  0  0  0  0  0  0  0  0  0  0
    1.5067   -0.0435    2.7467 H   0  0  0  0  0  0  0  0  0  0  0  0
    1.3174   -1.6638    2.6796 H   0  0  0  0  0  0  0  0  0  0  0  0
    2.4611   -1.0183    3.7589 H   0  0  0  0  0  0  0  0  0  0  0  0
    0.3751   -0.7989    4.2963 C   0  0  0  0  0  0  0  0  0  0  0  0
    0.3489   -1.6481    4.8275 H   0  0  0  0  0  0  0  0  0  0  0  0
    0.5532   -0.0297    4.9133 H   0  0  0  0  0  0  0  0  0  0  0  0
   -0.9487   -0.5965    3.6361 N   0  0  0  0  0  4  0  0  0  0  0  0
   -1.3246   -1.4837    3.3729 H   0  0  0  0  0  0  0  0  0  0  0  0
   -1.5690   -0.1439    4.2743 H   0  0  0  0  0  0  0  0  0  0  0  0
   -0.8279   -0.0277    2.8235 H   0  0  0  0  0  0  0  0  0  0  0  0
    0.0008    2.9061   -0.0322 C   0  0  0  0  0  0  0  0  0  0  0  0
   -0.3593    3.1954   -0.9072 H   0  0  0  0  0  0  0  0  0  0  0  0
    0.9324    3.2160    0.0927 H   0  0  0  0  0  0  0  0  0  0  0  0
   -0.6089    3.3650    0.7461 H   0  0  0  0  0  0  0  0  0  0  0  0
    0.0004    1.4056   -0.0008 C   0  0  0  0  0  0  0  0  0  0  0  0
   -1.1972    0.6964   -0.0002 C   0  0  0  0  0  0  0  0  0  0  0  0
   -2.0642    1.1847   -0.0011 H   0  0  0  0  0  0  0  0  0  0  0  0
   -1.2021   -0.6990   -0.0000 C   0  0  0  0  0  0  0  0  0  0  0  0
   -2.0799   -1.1905    0.0020 H   0  0  0  0  0  0  0  0  0  0  0  0
   -0.0009   -1.3988   -0.0002 C   0  0  0  0  0  0  0  0  0  0  0  0
   -0.0052   -2.3952   -0.0008 H   0  0  0  0  0  0  0  0  0  0  0  0
    1.2021   -0.7006   -0.0000 C   0  0  0  0  0  0  0  0  0  0  0  0
    2.0830   -1.1960    0.0006 H   0  0  0  0  0  0  0  0  0  0  0  0
    1.1978    0.6964    0.0011 C   0  0  0  0  0  0  0  0  0  0  0  0
    2.0659    1.1897    0.0021 H   0  0  0  0  0  0  0  0  0  0  0  0
  1  5  1  0
  5  8  1  0
  1  2  1  0
  1  3  1  0
  1  4  1  0
  5  6  1  0
  5  7  1  0
  8  9  1  0
  8 10  1  0
  8 11  1  0
 12 16  1  0
 16 17  2  0
 17 19  1  0
 19 21  2  0
 21 23  1  0
 23 25  2  0
 25 16  1  0
 12 13  1  0
 12 14  1  0
 12 15  1  0
 17 18  1  0
 19 20  1  0
 21 22  1  0
 23 24  1  0
 25 26  1  0
M  CHG  1   8   1
M  END
>  <PDB_ID>  (674) 
pdb1j7n

>  <RESIDUE_NAME>  (674) 
LYS   PHE

>  <FRAG_NAME>  (674) 
ETAM   MBZ

>  <FRAG_ATOM_NUM>  (674) 
fragi: 11  fragj: 15

>  <atom.prop.CHAIN_ID>  (674) 
A A A A A A A A A A A Z Z Z Z Z Z Z Z Z Z Z Z Z Z Z

>  <atom.prop.IS_HEAVY_ATOM>  (674) 
1 0 0 0 1 0 0 1 0 0 0 1 0 0 0 1 1 0 1 0 1 0 1 0 1 0

>  <DIFUSE_FUNC_ATOM>  (674) 
n/a

>  <FINAL_SINGLE_POINT_ENERGY>  (674) 
0

>  <NONCOV_INTER_ENERGY_QM>  (674) 
0

>  <FF_Energy>  (674) 
-6.65

>  <QM_Energy>  (674) 
-12.33

>  <source>  (674) 
ETAM_MBZ

>  <Index>  (674) 
6627

$$$$
ETAM-pdb2o1o-B-LYS-45:MBZ-pdb2o1o-A-PHE-178
     RDKit          3D

 26 25  0  0  0  0  0  0  0  0999 V2000
    4.6562   -1.1005    2.5334 C   0  0  0  0  0  0  0  0  0  0  0  0
    3.6660   -1.0107    2.4990 H   0  0  0  0  0  0  0  0  0  0  0  0
    5.0757   -0.2218    2.7391 H   0  0  0  0  0  0  0  0  0  0  0  0
    4.9203   -1.8124    3.3154 H   0  0  0  0  0  0  0  0  0  0  0  0
    5.1460   -1.5554    1.1523 C   0  0  0  0  0  0  0  0  0  0  0  0
    6.1447   -1.4829    1.1282 H   0  0  0  0  0  0  0  0  0  0  0  0
    4.8834   -2.5134    1.0194 H   0  0  0  0  0  0  0  0  0  0  0  0
    4.5642   -0.7277    0.0573 N   0  0  0  0  0  4  0  0  0  0  0  0
    3.7066   -1.1401   -0.2487 H   0  0  0  0  0  0  0  0  0  0  0  0
    4.3903    0.1953    0.3977 H   0  0  0  0  0  0  0  0  0  0  0  0
    5.2085   -0.6891   -0.7052 H   0  0  0  0  0  0  0  0  0  0  0  0
    0.0036    2.9219    0.0065 C   0  0  0  0  0  0  0  0  0  0  0  0
   -0.4775    3.2227   -0.7985 H   0  0  0  0  0  0  0  0  0  0  0  0
    0.9436    3.2157    0.0045 H   0  0  0  0  0  0  0  0  0  0  0  0
   -0.4861    3.3560    0.8782 H   0  0  0  0  0  0  0  0  0  0  0  0
   -0.0013    1.3967    0.0013 C   0  0  0  0  0  0  0  0  0  0  0  0
   -1.1917    0.6870    0.0031 C   0  0  0  0  0  0  0  0  0  0  0  0
   -2.0620    1.1809    0.0054 H   0  0  0  0  0  0  0  0  0  0  0  0
   -1.2007   -0.6965   -0.0000 C   0  0  0  0  0  0  0  0  0  0  0  0
   -2.0769   -1.1909    0.0052 H   0  0  0  0  0  0  0  0  0  0  0  0
   -0.0009   -1.3907   -0.0080 C   0  0  0  0  0  0  0  0  0  0  0  0
   -0.0014   -2.3885   -0.0200 H   0  0  0  0  0  0  0  0  0  0  0  0
    1.2007   -0.6905    0.0000 C   0  0  0  0  0  0  0  0  0  0  0  0
    2.0815   -1.1904    0.0051 H   0  0  0  0  0  0  0  0  0  0  0  0
    1.1939    0.6940    0.0036 C   0  0  0  0  0  0  0  0  0  0  0  0
    2.0612    1.1938    0.0074 H   0  0  0  0  0  0  0  0  0  0  0  0
  1  5  1  0
  5  8  1  0
  1  2  1  0
  1  3  1  0
  1  4  1  0
  5  6  1  0
  5  7  1  0
  8  9  1  0
  8 10  1  0
  8 11  1  0
 12 16  1  0
 16 17  2  0
 17 19  1  0
 19 21  2  0
 21 23  1  0
 23 25  2  0
 25 16  1  0
 12 13  1  0
 12 14  1  0
 12 15  1  0
 17 18  1  0
 19 20  1  0
 21 22  1  0
 23 24  1  0
 25 26  1  0
M  CHG  1   8   1
M  END
>  <PDB_ID>  (675) 
pdb2o1o

>  <RESIDUE_NAME>  (675) 
LYS   PHE

>  <FRAG_NAME>  (675) 
ETAM   MBZ

>  <FRAG_ATOM_NUM>  (675) 
fragi: 11  fragj: 15

>  <atom.prop.CHAIN_ID>  (675) 
A A A A A A A A A A A Z Z Z Z Z Z Z Z Z Z Z Z Z Z Z

>  <atom.prop.IS_HEAVY_ATOM>  (675) 
1 0 0 0 1 0 0 1 0 0 0 1 0 0 0 1 1 0 1 0 1 0 1 0 1 0

>  <DIFUSE_FUNC_ATOM>  (675) 
n/a

>  <FINAL_SINGLE_POINT_ENERGY>  (675) 
0

>  <NONCOV_INTER_ENERGY_QM>  (675) 
0

>  <FF_Energy>  (675) 
2.32

>  <QM_Energy>  (675) 
-3.04

>  <source>  (675) 
ETAM_MBZ

>  <Index>  (675) 
6630

$$$$
ETAM-pdb2o2c-A-LYS-88:MBZ-pdb2o2c-A-PHE-98
     RDKit          3D

 26 25  0  0  0  0  0  0  0  0999 V2000
   -0.4070    1.1997   -4.0612 C   0  0  0  0  0  0  0  0  0  0  0  0
   -0.9677    0.3920   -3.8862 H   0  0  0  0  0  0  0  0  0  0  0  0
   -0.1280    1.2148   -5.0203 H   0  0  0  0  0  0  0  0  0  0  0  0
   -1.0033    2.0888   -3.8564 H   0  0  0  0  0  0  0  0  0  0  0  0
    0.8305    1.1303   -3.1956 C   0  0  0  0  0  0  0  0  0  0  0  0
    0.5568    0.8973   -2.2490 H   0  0  0  0  0  0  0  0  0  0  0  0
    1.4255    0.3831   -3.5316 H   0  0  0  0  0  0  0  0  0  0  0  0
    1.6176    2.3949   -3.1706 N   0  0  0  0  0  4  0  0  0  0  0  0
    2.3739    2.3271   -3.8201 H   0  0  0  0  0  0  0  0  0  0  0  0
    1.0250    3.1590   -3.4247 H   0  0  0  0  0  0  0  0  0  0  0  0
    1.9781    2.5416   -2.2502 H   0  0  0  0  0  0  0  0  0  0  0  0
    0.0007    2.9330    0.0235 C   0  0  0  0  0  0  0  0  0  0  0  0
   -0.7489    3.2471   -0.5364 H   0  0  0  0  0  0  0  0  0  0  0  0
    0.8705    3.2427   -0.3267 H   0  0  0  0  0  0  0  0  0  0  0  0
   -0.1267    3.3619    1.0174 H   0  0  0  0  0  0  0  0  0  0  0  0
   -0.0009    1.4207    0.0012 C   0  0  0  0  0  0  0  0  0  0  0  0
   -1.2125    0.6945   -0.0060 C   0  0  0  0  0  0  0  0  0  0  0  0
   -2.0764    1.1834   -0.0173 H   0  0  0  0  0  0  0  0  0  0  0  0
   -1.2215   -0.7155   -0.0000 C   0  0  0  0  0  0  0  0  0  0  0  0
   -2.0888   -1.2043    0.0044 H   0  0  0  0  0  0  0  0  0  0  0  0
   -0.0008   -1.4127    0.0021 C   0  0  0  0  0  0  0  0  0  0  0  0
    0.0058   -2.4048    0.0044 H   0  0  0  0  0  0  0  0  0  0  0  0
    1.2215   -0.6978    0.0000 C   0  0  0  0  0  0  0  0  0  0  0  0
    2.0961   -1.1933   -0.0016 H   0  0  0  0  0  0  0  0  0  0  0  0
    1.2143    0.7108    0.0027 C   0  0  0  0  0  0  0  0  0  0  0  0
    2.0745    1.2069    0.0049 H   0  0  0  0  0  0  0  0  0  0  0  0
  1  5  1  0
  5  8  1  0
  1  2  1  0
  1  3  1  0
  1  4  1  0
  5  6  1  0
  5  7  1  0
  8  9  1  0
  8 10  1  0
  8 11  1  0
 12 16  1  0
 16 17  2  0
 17 19  1  0
 19 21  2  0
 21 23  1  0
 23 25  2  0
 25 16  1  0
 12 13  1  0
 12 14  1  0
 12 15  1  0
 17 18  1  0
 19 20  1  0
 21 22  1  0
 23 24  1  0
 25 26  1  0
M  CHG  1   8   1
M  END
>  <PDB_ID>  (676) 
pdb2o2c

>  <RESIDUE_NAME>  (676) 
LYS   PHE

>  <FRAG_NAME>  (676) 
ETAM   MBZ

>  <FRAG_ATOM_NUM>  (676) 
fragi: 11  fragj: 15

>  <atom.prop.CHAIN_ID>  (676) 
A A A A A A A A A A A Z Z Z Z Z Z Z Z Z Z Z Z Z Z Z

>  <atom.prop.IS_HEAVY_ATOM>  (676) 
1 0 0 0 1 0 0 1 0 0 0 1 0 0 0 1 1 0 1 0 1 0 1 0 1 0

>  <DIFUSE_FUNC_ATOM>  (676) 
n/a

>  <FINAL_SINGLE_POINT_ENERGY>  (676) 
0

>  <NONCOV_INTER_ENERGY_QM>  (676) 
0

>  <FF_Energy>  (676) 
-0.58

>  <QM_Energy>  (676) 
-8.3

>  <source>  (676) 
ETAM_MBZ

>  <Index>  (676) 
6643

$$$$
ETAM-pdb2o2c-B-LYS-88:MBZ-pdb2o2c-B-PHE-98
     RDKit          3D

 26 25  0  0  0  0  0  0  0  0999 V2000
    0.1153    1.6898   -4.1900 C   0  0  0  0  0  0  0  0  0  0  0  0
   -0.0042    1.4514   -5.1512 H   0  0  0  0  0  0  0  0  0  0  0  0
    0.9593    2.2067   -4.0701 H   0  0  0  0  0  0  0  0  0  0  0  0
   -0.7237    2.3118   -3.8781 H   0  0  0  0  0  0  0  0  0  0  0  0
    0.2048    0.4175   -3.3799 C   0  0  0  0  0  0  0  0  0  0  0  0
    0.4108    0.6501   -2.4224 H   0  0  0  0  0  0  0  0  0  0  0  0
   -0.6845   -0.0538   -3.4075 H   0  0  0  0  0  0  0  0  0  0  0  0
    1.2563   -0.5038   -3.8904 N   0  0  0  0  0  4  0  0  0  0  0  0
    2.1332   -0.0236   -3.9175 H   0  0  0  0  0  0  0  0  0  0  0  0
    1.3266   -1.2955   -3.2837 H   0  0  0  0  0  0  0  0  0  0  0  0
    1.0124   -0.8080   -4.8106 H   0  0  0  0  0  0  0  0  0  0  0  0
    0.0071    2.9335    0.0473 C   0  0  0  0  0  0  0  0  0  0  0  0
   -0.7234    3.2612   -0.5304 H   0  0  0  0  0  0  0  0  0  0  0  0
    0.8879    3.2470   -0.2701 H   0  0  0  0  0  0  0  0  0  0  0  0
   -0.1499    3.3502    1.0422 H   0  0  0  0  0  0  0  0  0  0  0  0
    0.0009    1.4239    0.0020 C   0  0  0  0  0  0  0  0  0  0  0  0
   -1.2155    0.6952   -0.0031 C   0  0  0  0  0  0  0  0  0  0  0  0
   -2.0779    1.1826   -0.0104 H   0  0  0  0  0  0  0  0  0  0  0  0
   -1.2242   -0.7204   -0.0000 C   0  0  0  0  0  0  0  0  0  0  0  0
   -2.0901   -1.2083    0.0022 H   0  0  0  0  0  0  0  0  0  0  0  0
    0.0005   -1.4177    0.0024 C   0  0  0  0  0  0  0  0  0  0  0  0
    0.0099   -2.4076    0.0051 H   0  0  0  0  0  0  0  0  0  0  0  0
    1.2242   -0.6962   -0.0000 C   0  0  0  0  0  0  0  0  0  0  0  0
    2.0988   -1.1902    0.0012 H   0  0  0  0  0  0  0  0  0  0  0  0
    1.2142    0.7152   -0.0012 C   0  0  0  0  0  0  0  0  0  0  0  0
    2.0754    1.2103   -0.0055 H   0  0  0  0  0  0  0  0  0  0  0  0
  1  5  1  0
  5  8  1  0
  1  2  1  0
  1  3  1  0
  1  4  1  0
  5  6  1  0
  5  7  1  0
  8  9  1  0
  8 10  1  0
  8 11  1  0
 12 16  1  0
 16 17  2  0
 17 19  1  0
 19 21  2  0
 21 23  1  0
 23 25  2  0
 25 16  1  0
 12 13  1  0
 12 14  1  0
 12 15  1  0
 17 18  1  0
 19 20  1  0
 21 22  1  0
 23 24  1  0
 25 26  1  0
M  CHG  1   8   1
M  END
>  <PDB_ID>  (677) 
pdb2o2c

>  <RESIDUE_NAME>  (677) 
LYS   PHE

>  <FRAG_NAME>  (677) 
ETAM   MBZ

>  <FRAG_ATOM_NUM>  (677) 
fragi: 11  fragj: 15

>  <atom.prop.CHAIN_ID>  (677) 
A A A A A A A A A A A Z Z Z Z Z Z Z Z Z Z Z Z Z Z Z

>  <atom.prop.IS_HEAVY_ATOM>  (677) 
1 0 0 0 1 0 0 1 0 0 0 1 0 0 0 1 1 0 1 0 1 0 1 0 1 0

>  <DIFUSE_FUNC_ATOM>  (677) 
n/a

>  <FINAL_SINGLE_POINT_ENERGY>  (677) 
0

>  <NONCOV_INTER_ENERGY_QM>  (677) 
0

>  <FF_Energy>  (677) 
-5.22

>  <QM_Energy>  (677) 
-11.39

>  <source>  (677) 
ETAM_MBZ

>  <Index>  (677) 
6644

$$$$
ETAM-pdb1jdp-A-LYS-268:MBZ-pdb1jdp-A-PHE-265
     RDKit          3D

 26 25  0  0  0  0  0  0  0  0999 V2000
   -3.9504    0.0578    4.3797 C   0  0  0  0  0  0  0  0  0  0  0  0
   -4.6049   -0.6266    4.6813 H   0  0  0  0  0  0  0  0  0  0  0  0
   -4.4178    0.8192    3.9456 H   0  0  0  0  0  0  0  0  0  0  0  0
   -3.4023    0.4274    5.2464 H   0  0  0  0  0  0  0  0  0  0  0  0
   -3.0157   -0.5840    3.3568 C   0  0  0  0  0  0  0  0  0  0  0  0
   -2.3602    0.1045    3.0415 H   0  0  0  0  0  0  0  0  0  0  0  0
   -2.5193   -1.3343    3.7978 H   0  0  0  0  0  0  0  0  0  0  0  0
   -3.7698   -1.1176    2.1844 N   0  0  0  0  0  4  0  0  0  0  0  0
   -4.6238   -0.6093    2.0824 H   0  0  0  0  0  0  0  0  0  0  0  0
   -3.2154   -1.0122    1.3606 H   0  0  0  0  0  0  0  0  0  0  0  0
   -3.9702   -2.0846    2.3339 H   0  0  0  0  0  0  0  0  0  0  0  0
   -0.0126    2.9100    0.1049 C   0  0  0  0  0  0  0  0  0  0  0  0
   -0.7020    3.2536   -0.5085 H   0  0  0  0  0  0  0  0  0  0  0  0
    0.8854    3.2383   -0.1291 H   0  0  0  0  0  0  0  0  0  0  0  0
   -0.2482    3.2665    1.1076 H   0  0  0  0  0  0  0  0  0  0  0  0
   -0.0023    1.4081    0.0013 C   0  0  0  0  0  0  0  0  0  0  0  0
   -1.1956    0.6982   -0.0022 C   0  0  0  0  0  0  0  0  0  0  0  0
   -2.0652    1.1797   -0.0073 H   0  0  0  0  0  0  0  0  0  0  0  0
   -1.1998   -0.7066    0.0000 C   0  0  0  0  0  0  0  0  0  0  0  0
   -2.0760   -1.1940    0.0011 H   0  0  0  0  0  0  0  0  0  0  0  0
    0.0031   -1.4009    0.0025 C   0  0  0  0  0  0  0  0  0  0  0  0
    0.0020   -2.3979    0.0056 H   0  0  0  0  0  0  0  0  0  0  0  0
    1.1998   -0.6992   -0.0000 C   0  0  0  0  0  0  0  0  0  0  0  0
    2.0848   -1.1906    0.0003 H   0  0  0  0  0  0  0  0  0  0  0  0
    1.1947    0.7003   -0.0016 C   0  0  0  0  0  0  0  0  0  0  0  0
    2.0632    1.1935   -0.0058 H   0  0  0  0  0  0  0  0  0  0  0  0
  1  5  1  0
  5  8  1  0
  1  2  1  0
  1  3  1  0
  1  4  1  0
  5  6  1  0
  5  7  1  0
  8  9  1  0
  8 10  1  0
  8 11  1  0
 12 16  1  0
 16 17  2  0
 17 19  1  0
 19 21  2  0
 21 23  1  0
 23 25  2  0
 25 16  1  0
 12 13  1  0
 12 14  1  0
 12 15  1  0
 17 18  1  0
 19 20  1  0
 21 22  1  0
 23 24  1  0
 25 26  1  0
M  CHG  1   8   1
M  END
>  <PDB_ID>  (678) 
pdb1jdp

>  <RESIDUE_NAME>  (678) 
LYS   PHE

>  <FRAG_NAME>  (678) 
ETAM   MBZ

>  <FRAG_ATOM_NUM>  (678) 
fragi: 11  fragj: 15

>  <atom.prop.CHAIN_ID>  (678) 
A A A A A A A A A A A Z Z Z Z Z Z Z Z Z Z Z Z Z Z Z

>  <atom.prop.IS_HEAVY_ATOM>  (678) 
1 0 0 0 1 0 0 1 0 0 0 1 0 0 0 1 1 0 1 0 1 0 1 0 1 0

>  <DIFUSE_FUNC_ATOM>  (678) 
n/a

>  <FINAL_SINGLE_POINT_ENERGY>  (678) 
0

>  <NONCOV_INTER_ENERGY_QM>  (678) 
0

>  <FF_Energy>  (678) 
-0.73

>  <QM_Energy>  (678) 
-6.6

>  <source>  (678) 
ETAM_MBZ

>  <Index>  (678) 
6677

$$$$
ETAM-pdb1jal-B-LYS-341:MBZ-pdb1jal-B-PHE-330
     RDKit          3D

 26 25  0  0  0  0  0  0  0  0999 V2000
    3.8034   -3.5929   -1.2771 C   0  0  0  0  0  0  0  0  0  0  0  0
    3.4276   -3.8083   -2.1691 H   0  0  0  0  0  0  0  0  0  0  0  0
    4.7888   -3.7038   -1.2732 H   0  0  0  0  0  0  0  0  0  0  0  0
    3.5621   -2.5587   -1.0318 H   0  0  0  0  0  0  0  0  0  0  0  0
    3.2031   -4.5515   -0.2530 C   0  0  0  0  0  0  0  0  0  0  0  0
    3.0886   -5.4495   -0.6800 H   0  0  0  0  0  0  0  0  0  0  0  0
    3.8315   -4.6324    0.5224 H   0  0  0  0  0  0  0  0  0  0  0  0
    1.8814   -4.0673    0.2358 N   0  0  0  0  0  4  0  0  0  0  0  0
    1.5333   -3.3694   -0.3885 H   0  0  0  0  0  0  0  0  0  0  0  0
    1.2413   -4.8337    0.2725 H   0  0  0  0  0  0  0  0  0  0  0  0
    1.9894   -3.6764    1.1492 H   0  0  0  0  0  0  0  0  0  0  0  0
   -0.0138    2.8861    0.0081 C   0  0  0  0  0  0  0  0  0  0  0  0
    0.5776    3.2017   -0.7176 H   0  0  0  0  0  0  0  0  0  0  0  0
    0.3021    3.1935    0.8919 H   0  0  0  0  0  0  0  0  0  0  0  0
   -1.0056    3.3063   -0.1591 H   0  0  0  0  0  0  0  0  0  0  0  0
   -0.0001    1.3917    0.0029 C   0  0  0  0  0  0  0  0  0  0  0  0
   -1.1938    0.6847   -0.0006 C   0  0  0  0  0  0  0  0  0  0  0  0
   -2.0603    1.1832   -0.0052 H   0  0  0  0  0  0  0  0  0  0  0  0
   -1.2004   -0.6898    0.0000 C   0  0  0  0  0  0  0  0  0  0  0  0
   -2.0774   -1.1895    0.0037 H   0  0  0  0  0  0  0  0  0  0  0  0
   -0.0021   -1.3864   -0.0033 C   0  0  0  0  0  0  0  0  0  0  0  0
   -0.0067   -2.3853   -0.0087 H   0  0  0  0  0  0  0  0  0  0  0  0
    1.2004   -0.6925   -0.0000 C   0  0  0  0  0  0  0  0  0  0  0  0
    2.0796   -1.1933    0.0034 H   0  0  0  0  0  0  0  0  0  0  0  0
    1.1960    0.6923    0.0010 C   0  0  0  0  0  0  0  0  0  0  0  0
    2.0619    1.1912   -0.0000 H   0  0  0  0  0  0  0  0  0  0  0  0
  1  5  1  0
  5  8  1  0
  1  2  1  0
  1  3  1  0
  1  4  1  0
  5  6  1  0
  5  7  1  0
  8  9  1  0
  8 10  1  0
  8 11  1  0
 12 16  1  0
 16 17  2  0
 17 19  1  0
 19 21  2  0
 21 23  1  0
 23 25  2  0
 25 16  1  0
 12 13  1  0
 12 14  1  0
 12 15  1  0
 17 18  1  0
 19 20  1  0
 21 22  1  0
 23 24  1  0
 25 26  1  0
M  CHG  1   8   1
M  END
>  <PDB_ID>  (679) 
pdb1jal

>  <RESIDUE_NAME>  (679) 
LYS   PHE

>  <FRAG_NAME>  (679) 
ETAM   MBZ

>  <FRAG_ATOM_NUM>  (679) 
fragi: 11  fragj: 15

>  <atom.prop.CHAIN_ID>  (679) 
A A A A A A A A A A A Z Z Z Z Z Z Z Z Z Z Z Z Z Z Z

>  <atom.prop.IS_HEAVY_ATOM>  (679) 
1 0 0 0 1 0 0 1 0 0 0 1 0 0 0 1 1 0 1 0 1 0 1 0 1 0

>  <DIFUSE_FUNC_ATOM>  (679) 
n/a

>  <FINAL_SINGLE_POINT_ENERGY>  (679) 
0

>  <NONCOV_INTER_ENERGY_QM>  (679) 
0

>  <FF_Energy>  (679) 
2.21

>  <QM_Energy>  (679) 
-4.58

>  <source>  (679) 
ETAM_MBZ

>  <Index>  (679) 
6701

$$$$
ETAM-pdb1jey-A-LYS-253:MBZ-pdb1jey-B-PHE-435
     RDKit          3D

 26 25  0  0  0  0  0  0  0  0999 V2000
    1.5781   -0.5678    3.8975 C   0  0  0  0  0  0  0  0  0  0  0  0
    2.3297   -0.5565    4.5497 H   0  0  0  0  0  0  0  0  0  0  0  0
    1.8715   -0.9830    3.0421 H   0  0  0  0  0  0  0  0  0  0  0  0
    0.7619   -1.1583    4.3138 H   0  0  0  0  0  0  0  0  0  0  0  0
    1.1496    0.8608    3.6228 C   0  0  0  0  0  0  0  0  0  0  0  0
    0.3540    0.8521    3.0008 H   0  0  0  0  0  0  0  0  0  0  0  0
    0.8588    1.2900    4.4900 H   0  0  0  0  0  0  0  0  0  0  0  0
    2.2277    1.7049    3.0091 N   0  0  0  0  0  4  0  0  0  0  0  0
    2.6718    1.1875    2.2809 H   0  0  0  0  0  0  0  0  0  0  0  0
    1.8187    2.5339    2.6346 H   0  0  0  0  0  0  0  0  0  0  0  0
    2.8945    1.9427    3.7119 H   0  0  0  0  0  0  0  0  0  0  0  0
    0.0098    2.8899    0.0027 C   0  0  0  0  0  0  0  0  0  0  0  0
   -0.6449    3.2036   -0.6699 H   0  0  0  0  0  0  0  0  0  0  0  0
    0.9258    3.1893   -0.2237 H   0  0  0  0  0  0  0  0  0  0  0  0
   -0.2582    3.3319    0.9623 H   0  0  0  0  0  0  0  0  0  0  0  0
   -0.0034    1.3918   -0.0004 C   0  0  0  0  0  0  0  0  0  0  0  0
   -1.1993    0.6971    0.0001 C   0  0  0  0  0  0  0  0  0  0  0  0
   -2.0629    1.1892   -0.0007 H   0  0  0  0  0  0  0  0  0  0  0  0
   -1.2016   -0.6862   -0.0000 C   0  0  0  0  0  0  0  0  0  0  0  0
   -2.0727   -1.1882    0.0008 H   0  0  0  0  0  0  0  0  0  0  0  0
    0.0092   -1.3838    0.0000 C   0  0  0  0  0  0  0  0  0  0  0  0
   -0.0039   -2.3842   -0.0005 H   0  0  0  0  0  0  0  0  0  0  0  0
    1.2016   -0.6948    0.0000 C   0  0  0  0  0  0  0  0  0  0  0  0
    2.0844   -1.1973    0.0008 H   0  0  0  0  0  0  0  0  0  0  0  0
    1.1935    0.6760    0.0003 C   0  0  0  0  0  0  0  0  0  0  0  0
    2.0616    1.1841   -0.0002 H   0  0  0  0  0  0  0  0  0  0  0  0
  1  5  1  0
  5  8  1  0
  1  2  1  0
  1  3  1  0
  1  4  1  0
  5  6  1  0
  5  7  1  0
  8  9  1  0
  8 10  1  0
  8 11  1  0
 12 16  1  0
 16 17  2  0
 17 19  1  0
 19 21  2  0
 21 23  1  0
 23 25  2  0
 25 16  1  0
 12 13  1  0
 12 14  1  0
 12 15  1  0
 17 18  1  0
 19 20  1  0
 21 22  1  0
 23 24  1  0
 25 26  1  0
M  CHG  1   8   1
M  END
>  <PDB_ID>  (680) 
pdb1jey

>  <RESIDUE_NAME>  (680) 
LYS   PHE

>  <FRAG_NAME>  (680) 
ETAM   MBZ

>  <FRAG_ATOM_NUM>  (680) 
fragi: 11  fragj: 15

>  <atom.prop.CHAIN_ID>  (680) 
A A A A A A A A A A A Z Z Z Z Z Z Z Z Z Z Z Z Z Z Z

>  <atom.prop.IS_HEAVY_ATOM>  (680) 
1 0 0 0 1 0 0 1 0 0 0 1 0 0 0 1 1 0 1 0 1 0 1 0 1 0

>  <DIFUSE_FUNC_ATOM>  (680) 
n/a

>  <FINAL_SINGLE_POINT_ENERGY>  (680) 
0

>  <NONCOV_INTER_ENERGY_QM>  (680) 
0

>  <FF_Energy>  (680) 
-5.11

>  <QM_Energy>  (680) 
-10.59

>  <source>  (680) 
ETAM_MBZ

>  <Index>  (680) 
6703

$$$$
ETAM-pdb1jey-B-LYS-35:MBZ-pdb1jey-B-PHE-31
     RDKit          3D

 26 25  0  0  0  0  0  0  0  0999 V2000
    1.8537   -1.7707    3.3228 C   0  0  0  0  0  0  0  0  0  0  0  0
    2.0135   -2.7417    3.1653 H   0  0  0  0  0  0  0  0  0  0  0  0
    0.9440   -1.5183    3.0047 H   0  0  0  0  0  0  0  0  0  0  0  0
    1.9187   -1.5747    4.3931 H   0  0  0  0  0  0  0  0  0  0  0  0
    2.8869   -0.9729    2.5109 C   0  0  0  0  0  0  0  0  0  0  0  0
    2.5921   -0.9651    1.5415 H   0  0  0  0  0  0  0  0  0  0  0  0
    2.8760   -0.0131    2.8366 H   0  0  0  0  0  0  0  0  0  0  0  0
    4.2817   -1.4986    2.5916 N   0  0  0  0  0  4  0  0  0  0  0  0
    4.4348   -2.1429    1.8443 H   0  0  0  0  0  0  0  0  0  0  0  0
    4.9254   -0.7384    2.5166 H   0  0  0  0  0  0  0  0  0  0  0  0
    4.4092   -1.9625    3.4676 H   0  0  0  0  0  0  0  0  0  0  0  0
   -0.0014    2.9149   -0.0103 C   0  0  0  0  0  0  0  0  0  0  0  0
   -0.7477    3.2150   -0.5844 H   0  0  0  0  0  0  0  0  0  0  0  0
    0.8707    3.2148   -0.3678 H   0  0  0  0  0  0  0  0  0  0  0  0
   -0.1331    3.3646    0.9739 H   0  0  0  0  0  0  0  0  0  0  0  0
   -0.0031    1.4055   -0.0008 C   0  0  0  0  0  0  0  0  0  0  0  0
   -1.1924    0.6990    0.0001 C   0  0  0  0  0  0  0  0  0  0  0  0
   -2.0631    1.1834   -0.0009 H   0  0  0  0  0  0  0  0  0  0  0  0
   -1.1986   -0.6996    0.0000 C   0  0  0  0  0  0  0  0  0  0  0  0
   -2.0759   -1.1886    0.0015 H   0  0  0  0  0  0  0  0  0  0  0  0
    0.0029   -1.3977   -0.0005 C   0  0  0  0  0  0  0  0  0  0  0  0
   -0.0042   -2.3961   -0.0018 H   0  0  0  0  0  0  0  0  0  0  0  0
    1.1986   -0.7031   -0.0000 C   0  0  0  0  0  0  0  0  0  0  0  0
    2.0830   -1.1936    0.0009 H   0  0  0  0  0  0  0  0  0  0  0  0
    1.1927    0.6959    0.0013 C   0  0  0  0  0  0  0  0  0  0  0  0
    2.0621    1.1889    0.0032 H   0  0  0  0  0  0  0  0  0  0  0  0
  1  5  1  0
  5  8  1  0
  1  2  1  0
  1  3  1  0
  1  4  1  0
  5  6  1  0
  5  7  1  0
  8  9  1  0
  8 10  1  0
  8 11  1  0
 12 16  1  0
 16 17  2  0
 17 19  1  0
 19 21  2  0
 21 23  1  0
 23 25  2  0
 25 16  1  0
 12 13  1  0
 12 14  1  0
 12 15  1  0
 17 18  1  0
 19 20  1  0
 21 22  1  0
 23 24  1  0
 25 26  1  0
M  CHG  1   8   1
M  END
>  <PDB_ID>  (681) 
pdb1jey

>  <RESIDUE_NAME>  (681) 
LYS   PHE

>  <FRAG_NAME>  (681) 
ETAM   MBZ

>  <FRAG_ATOM_NUM>  (681) 
fragi: 11  fragj: 15

>  <atom.prop.CHAIN_ID>  (681) 
A A A A A A A A A A A Z Z Z Z Z Z Z Z Z Z Z Z Z Z Z

>  <atom.prop.IS_HEAVY_ATOM>  (681) 
1 0 0 0 1 0 0 1 0 0 0 1 0 0 0 1 1 0 1 0 1 0 1 0 1 0

>  <DIFUSE_FUNC_ATOM>  (681) 
n/a

>  <FINAL_SINGLE_POINT_ENERGY>  (681) 
0

>  <NONCOV_INTER_ENERGY_QM>  (681) 
0

>  <FF_Energy>  (681) 
22.65

>  <QM_Energy>  (681) 
-0.86

>  <source>  (681) 
ETAM_MBZ

>  <Index>  (681) 
6709

$$$$
ETAM-pdb2o3c-A-LYS-56:MBZ-pdb2o3c-A-PHE-307
     RDKit          3D

 26 25  0  0  0  0  0  0  0  0999 V2000
    2.0668   -2.6451    3.1307 C   0  0  0  0  0  0  0  0  0  0  0  0
    2.6679   -2.3899    2.3827 H   0  0  0  0  0  0  0  0  0  0  0  0
    2.5593   -3.1802    3.8078 H   0  0  0  0  0  0  0  0  0  0  0  0
    1.6959   -1.7366    3.6051 H   0  0  0  0  0  0  0  0  0  0  0  0
    0.9280   -3.4796    2.5812 C   0  0  0  0  0  0  0  0  0  0  0  0
    0.3337   -3.7626    3.3388 H   0  0  0  0  0  0  0  0  0  0  0  0
    0.3938   -2.9232    1.9395 H   0  0  0  0  0  0  0  0  0  0  0  0
    1.4274   -4.6915    1.8752 N   0  0  0  0  0  4  0  0  0  0  0  0
    0.9049   -5.4890    2.1752 H   0  0  0  0  0  0  0  0  0  0  0  0
    1.3163   -4.5695    0.8895 H   0  0  0  0  0  0  0  0  0  0  0  0
    2.3946   -4.8254    2.0892 H   0  0  0  0  0  0  0  0  0  0  0  0
    0.0093    2.9100    0.0305 C   0  0  0  0  0  0  0  0  0  0  0  0
   -0.7845    3.2298   -0.4619 H   0  0  0  0  0  0  0  0  0  0  0  0
    0.8465    3.2185   -0.3917 H   0  0  0  0  0  0  0  0  0  0  0  0
   -0.0310    3.3248    1.0377 H   0  0  0  0  0  0  0  0  0  0  0  0
    0.0004    1.4054    0.0002 C   0  0  0  0  0  0  0  0  0  0  0  0
   -1.1962    0.7017    0.0016 C   0  0  0  0  0  0  0  0  0  0  0  0
   -2.0628    1.1880    0.0024 H   0  0  0  0  0  0  0  0  0  0  0  0
   -1.2025   -0.6984    0.0000 C   0  0  0  0  0  0  0  0  0  0  0  0
   -2.0810   -1.1869    0.0011 H   0  0  0  0  0  0  0  0  0  0  0  0
   -0.0012   -1.3989   -0.0007 C   0  0  0  0  0  0  0  0  0  0  0  0
   -0.0068   -2.3956   -0.0025 H   0  0  0  0  0  0  0  0  0  0  0  0
    1.2025   -0.7016   -0.0000 C   0  0  0  0  0  0  0  0  0  0  0  0
    2.0824   -1.1989    0.0025 H   0  0  0  0  0  0  0  0  0  0  0  0
    1.1970    0.6917   -0.0010 C   0  0  0  0  0  0  0  0  0  0  0  0
    2.0663    1.1874   -0.0035 H   0  0  0  0  0  0  0  0  0  0  0  0
  1  5  1  0
  5  8  1  0
  1  2  1  0
  1  3  1  0
  1  4  1  0
  5  6  1  0
  5  7  1  0
  8  9  1  0
  8 10  1  0
  8 11  1  0
 12 16  1  0
 16 17  2  0
 17 19  1  0
 19 21  2  0
 21 23  1  0
 23 25  2  0
 25 16  1  0
 12 13  1  0
 12 14  1  0
 12 15  1  0
 17 18  1  0
 19 20  1  0
 21 22  1  0
 23 24  1  0
 25 26  1  0
M  CHG  1   8   1
M  END
>  <PDB_ID>  (682) 
pdb2o3c

>  <RESIDUE_NAME>  (682) 
LYS   PHE

>  <FRAG_NAME>  (682) 
ETAM   MBZ

>  <FRAG_ATOM_NUM>  (682) 
fragi: 11  fragj: 15

>  <atom.prop.CHAIN_ID>  (682) 
A A A A A A A A A A A Z Z Z Z Z Z Z Z Z Z Z Z Z Z Z

>  <atom.prop.IS_HEAVY_ATOM>  (682) 
1 0 0 0 1 0 0 1 0 0 0 1 0 0 0 1 1 0 1 0 1 0 1 0 1 0

>  <DIFUSE_FUNC_ATOM>  (682) 
n/a

>  <FINAL_SINGLE_POINT_ENERGY>  (682) 
0

>  <NONCOV_INTER_ENERGY_QM>  (682) 
0

>  <FF_Energy>  (682) 
0.79

>  <QM_Energy>  (682) 
-4.45

>  <source>  (682) 
ETAM_MBZ

>  <Index>  (682) 
6714

$$$$
ETAM-pdb2nv9-G-LYS-271:MBZ-pdb2nv9-H-PHE-116
     RDKit          3D

 26 25  0  0  0  0  0  0  0  0999 V2000
    0.3603   -1.0048    3.6937 C   0  0  0  0  0  0  0  0  0  0  0  0
   -0.2014   -0.8918    4.5124 H   0  0  0  0  0  0  0  0  0  0  0  0
   -0.1574   -0.7173    2.8896 H   0  0  0  0  0  0  0  0  0  0  0  0
    1.2502   -0.3822    3.7854 H   0  0  0  0  0  0  0  0  0  0  0  0
    0.6883   -2.4969    3.5418 C   0  0  0  0  0  0  0  0  0  0  0  0
    1.2010   -2.6264    2.6916 H   0  0  0  0  0  0  0  0  0  0  0  0
    1.2560   -2.7796    4.3168 H   0  0  0  0  0  0  0  0  0  0  0  0
   -0.5470   -3.3312    3.5052 N   0  0  0  0  0  4  0  0  0  0  0  0
   -0.2927   -4.2957    3.4429 H   0  0  0  0  0  0  0  0  0  0  0  0
   -1.0749   -3.1763    4.3391 H   0  0  0  0  0  0  0  0  0  0  0  0
   -1.0943   -3.0760    2.7086 H   0  0  0  0  0  0  0  0  0  0  0  0
    0.0193    2.8834    0.0078 C   0  0  0  0  0  0  0  0  0  0  0  0
    0.9018    3.1879    0.3447 H   0  0  0  0  0  0  0  0  0  0  0  0
   -0.7127    3.2104    0.5931 H   0  0  0  0  0  0  0  0  0  0  0  0
   -0.1269    3.3229   -0.9789 H   0  0  0  0  0  0  0  0  0  0  0  0
   -0.0012    1.4087    0.0088 C   0  0  0  0  0  0  0  0  0  0  0  0
   -1.1993    0.7192    0.0115 C   0  0  0  0  0  0  0  0  0  0  0  0
   -2.0646    1.1969    0.0205 H   0  0  0  0  0  0  0  0  0  0  0  0
   -1.2056   -0.6989    0.0000 C   0  0  0  0  0  0  0  0  0  0  0  0
   -2.0864   -1.1783    0.0104 H   0  0  0  0  0  0  0  0  0  0  0  0
   -0.0050   -1.4047   -0.0229 C   0  0  0  0  0  0  0  0  0  0  0  0
   -0.0116   -2.3990   -0.0563 H   0  0  0  0  0  0  0  0  0  0  0  0
    1.2056   -0.7082    0.0000 C   0  0  0  0  0  0  0  0  0  0  0  0
    2.0815   -1.2110    0.0163 H   0  0  0  0  0  0  0  0  0  0  0  0
    1.2055    0.6839    0.0026 C   0  0  0  0  0  0  0  0  0  0  0  0
    2.0708    1.1817   -0.0010 H   0  0  0  0  0  0  0  0  0  0  0  0
  1  5  1  0
  5  8  1  0
  1  2  1  0
  1  3  1  0
  1  4  1  0
  5  6  1  0
  5  7  1  0
  8  9  1  0
  8 10  1  0
  8 11  1  0
 12 16  1  0
 16 17  2  0
 17 19  1  0
 19 21  2  0
 21 23  1  0
 23 25  2  0
 25 16  1  0
 12 13  1  0
 12 14  1  0
 12 15  1  0
 17 18  1  0
 19 20  1  0
 21 22  1  0
 23 24  1  0
 25 26  1  0
M  CHG  1   8   1
M  END
>  <PDB_ID>  (683) 
pdb2nv9

>  <RESIDUE_NAME>  (683) 
LYS   PHE

>  <FRAG_NAME>  (683) 
ETAM   MBZ

>  <FRAG_ATOM_NUM>  (683) 
fragi: 11  fragj: 15

>  <atom.prop.CHAIN_ID>  (683) 
A A A A A A A A A A A Z Z Z Z Z Z Z Z Z Z Z Z Z Z Z

>  <atom.prop.IS_HEAVY_ATOM>  (683) 
1 0 0 0 1 0 0 1 0 0 0 1 0 0 0 1 1 0 1 0 1 0 1 0 1 0

>  <DIFUSE_FUNC_ATOM>  (683) 
n/a

>  <FINAL_SINGLE_POINT_ENERGY>  (683) 
0

>  <NONCOV_INTER_ENERGY_QM>  (683) 
0

>  <FF_Energy>  (683) 
-3.42

>  <QM_Energy>  (683) 
-8.45

>  <source>  (683) 
ETAM_MBZ

>  <Index>  (683) 
6731

$$$$
ETAM-pdb2nzw-A-LYS-154:MBZ-pdb2nzw-A-PHE-49
     RDKit          3D

 26 25  0  0  0  0  0  0  0  0999 V2000
    4.7038   -3.9677    2.8145 C   0  0  0  0  0  0  0  0  0  0  0  0
    4.2995   -3.9953    3.7231 H   0  0  0  0  0  0  0  0  0  0  0  0
    5.6421   -3.6422    2.8631 H   0  0  0  0  0  0  0  0  0  0  0  0
    4.7093   -4.9793    2.4086 H   0  0  0  0  0  0  0  0  0  0  0  0
    3.8872   -2.9649    1.9512 C   0  0  0  0  0  0  0  0  0  0  0  0
    4.3804   -2.8141    1.0880 H   0  0  0  0  0  0  0  0  0  0  0  0
    2.9956   -3.3800    1.7399 H   0  0  0  0  0  0  0  0  0  0  0  0
    3.6526   -1.6194    2.6204 N   0  0  0  0  0  4  0  0  0  0  0  0
    3.2521   -1.7787    3.5167 H   0  0  0  0  0  0  0  0  0  0  0  0
    4.5275   -1.1546    2.7090 H   0  0  0  0  0  0  0  0  0  0  0  0
    3.0322   -1.0887    2.0520 H   0  0  0  0  0  0  0  0  0  0  0  0
   -0.0324    2.9275   -0.0322 C   0  0  0  0  0  0  0  0  0  0  0  0
    0.4334    3.2648    0.7690 H   0  0  0  0  0  0  0  0  0  0  0  0
   -0.9735    3.2209   -0.0588 H   0  0  0  0  0  0  0  0  0  0  0  0
    0.4662    3.3533   -0.9029 H   0  0  0  0  0  0  0  0  0  0  0  0
   -0.0036    1.4291   -0.0017 C   0  0  0  0  0  0  0  0  0  0  0  0
   -1.2053    0.7080   -0.0024 C   0  0  0  0  0  0  0  0  0  0  0  0
   -2.0759    1.1899   -0.0056 H   0  0  0  0  0  0  0  0  0  0  0  0
   -1.2259   -0.7177   -0.0000 C   0  0  0  0  0  0  0  0  0  0  0  0
   -2.1023   -1.1894    0.0028 H   0  0  0  0  0  0  0  0  0  0  0  0
   -0.0174   -1.4240    0.0003 C   0  0  0  0  0  0  0  0  0  0  0  0
   -0.0190   -2.4198    0.0003 H   0  0  0  0  0  0  0  0  0  0  0  0
    1.2259   -0.7282   -0.0000 C   0  0  0  0  0  0  0  0  0  0  0  0
    2.0910   -1.2088   -0.0015 H   0  0  0  0  0  0  0  0  0  0  0  0
    1.2264    0.7328    0.0037 C   0  0  0  0  0  0  0  0  0  0  0  0
    2.0800    1.2041    0.0086 H   0  0  0  0  0  0  0  0  0  0  0  0
  1  5  1  0
  5  8  1  0
  1  2  1  0
  1  3  1  0
  1  4  1  0
  5  6  1  0
  5  7  1  0
  8  9  1  0
  8 10  1  0
  8 11  1  0
 12 16  1  0
 16 17  2  0
 17 19  1  0
 19 21  2  0
 21 23  1  0
 23 25  2  0
 25 16  1  0
 12 13  1  0
 12 14  1  0
 12 15  1  0
 17 18  1  0
 19 20  1  0
 21 22  1  0
 23 24  1  0
 25 26  1  0
M  CHG  1   8   1
M  END
>  <PDB_ID>  (684) 
pdb2nzw

>  <RESIDUE_NAME>  (684) 
LYS   PHE

>  <FRAG_NAME>  (684) 
ETAM   MBZ

>  <FRAG_ATOM_NUM>  (684) 
fragi: 11  fragj: 15

>  <atom.prop.CHAIN_ID>  (684) 
A A A A A A A A A A A Z Z Z Z Z Z Z Z Z Z Z Z Z Z Z

>  <atom.prop.IS_HEAVY_ATOM>  (684) 
1 0 0 0 1 0 0 1 0 0 0 1 0 0 0 1 1 0 1 0 1 0 1 0 1 0

>  <DIFUSE_FUNC_ATOM>  (684) 
n/a

>  <FINAL_SINGLE_POINT_ENERGY>  (684) 
0

>  <NONCOV_INTER_ENERGY_QM>  (684) 
0

>  <FF_Energy>  (684) 
-1.13

>  <QM_Energy>  (684) 
-6.58

>  <source>  (684) 
ETAM_MBZ

>  <Index>  (684) 
6735

$$$$
ETAM-pdb1ji6-A-LYS-120:MBZ-pdb1ji6-A-PHE-190
     RDKit          3D

 26 25  0  0  0  0  0  0  0  0999 V2000
    5.9929   -1.1442    1.6469 C   0  0  0  0  0  0  0  0  0  0  0  0
    6.5634   -1.1309    2.4683 H   0  0  0  0  0  0  0  0  0  0  0  0
    5.8687   -0.2104    1.3122 H   0  0  0  0  0  0  0  0  0  0  0  0
    6.4996   -1.7279    0.8782 H   0  0  0  0  0  0  0  0  0  0  0  0
    4.6240   -1.7083    2.0200 C   0  0  0  0  0  0  0  0  0  0  0  0
    4.2796   -2.2488    1.2399 H   0  0  0  0  0  0  0  0  0  0  0  0
    4.7413   -2.3369    2.8027 H   0  0  0  0  0  0  0  0  0  0  0  0
    3.6468   -0.6659    2.3672 N   0  0  0  0  0  4  0  0  0  0  0  0
    2.8367   -1.0841    2.7850 H   0  0  0  0  0  0  0  0  0  0  0  0
    4.0546   -0.0202    3.0174 H   0  0  0  0  0  0  0  0  0  0  0  0
    3.3709   -0.1694    1.5408 H   0  0  0  0  0  0  0  0  0  0  0  0
    0.0133    2.9038    0.0239 C   0  0  0  0  0  0  0  0  0  0  0  0
   -0.9071    3.2081    0.1407 H   0  0  0  0  0  0  0  0  0  0  0  0
    0.4220    3.2112   -0.8084 H   0  0  0  0  0  0  0  0  0  0  0  0
    0.6077    3.2773    0.8577 H   0  0  0  0  0  0  0  0  0  0  0  0
    0.0006    1.3889    0.0013 C   0  0  0  0  0  0  0  0  0  0  0  0
   -1.2133    0.7013   -0.0003 C   0  0  0  0  0  0  0  0  0  0  0  0
   -2.0674    1.1928   -0.0026 H   0  0  0  0  0  0  0  0  0  0  0  0
   -1.2148   -0.6961   -0.0000 C   0  0  0  0  0  0  0  0  0  0  0  0
   -2.0868   -1.1929   -0.0007 H   0  0  0  0  0  0  0  0  0  0  0  0
   -0.0014   -1.3960    0.0030 C   0  0  0  0  0  0  0  0  0  0  0  0
   -0.0055   -2.3931    0.0066 H   0  0  0  0  0  0  0  0  0  0  0  0
    1.2148   -0.6977    0.0000 C   0  0  0  0  0  0  0  0  0  0  0  0
    2.0893   -1.1992    0.0020 H   0  0  0  0  0  0  0  0  0  0  0  0
    1.2140    0.6997   -0.0040 C   0  0  0  0  0  0  0  0  0  0  0  0
    2.0695    1.1974   -0.0110 H   0  0  0  0  0  0  0  0  0  0  0  0
  1  5  1  0
  5  8  1  0
  1  2  1  0
  1  3  1  0
  1  4  1  0
  5  6  1  0
  5  7  1  0
  8  9  1  0
  8 10  1  0
  8 11  1  0
 12 16  1  0
 16 17  2  0
 17 19  1  0
 19 21  2  0
 21 23  1  0
 23 25  2  0
 25 16  1  0
 12 13  1  0
 12 14  1  0
 12 15  1  0
 17 18  1  0
 19 20  1  0
 21 22  1  0
 23 24  1  0
 25 26  1  0
M  CHG  1   8   1
M  END
>  <PDB_ID>  (685) 
pdb1ji6

>  <RESIDUE_NAME>  (685) 
LYS   PHE

>  <FRAG_NAME>  (685) 
ETAM   MBZ

>  <FRAG_ATOM_NUM>  (685) 
fragi: 11  fragj: 15

>  <atom.prop.CHAIN_ID>  (685) 
A A A A A A A A A A A Z Z Z Z Z Z Z Z Z Z Z Z Z Z Z

>  <atom.prop.IS_HEAVY_ATOM>  (685) 
1 0 0 0 1 0 0 1 0 0 0 1 0 0 0 1 1 0 1 0 1 0 1 0 1 0

>  <DIFUSE_FUNC_ATOM>  (685) 
n/a

>  <FINAL_SINGLE_POINT_ENERGY>  (685) 
0

>  <NONCOV_INTER_ENERGY_QM>  (685) 
0

>  <FF_Energy>  (685) 
-1.19

>  <QM_Energy>  (685) 
-6.95

>  <source>  (685) 
ETAM_MBZ

>  <Index>  (685) 
6755

$$$$
ETAM-pdb1jkf-A-LYS-327:MBZ-pdb1jkf-B-PHE-335
     RDKit          3D

 26 25  0  0  0  0  0  0  0  0999 V2000
    3.1655   -3.5604   -0.6070 C   0  0  0  0  0  0  0  0  0  0  0  0
    2.3629   -4.1609   -0.6849 H   0  0  0  0  0  0  0  0  0  0  0  0
    2.8517   -2.6065   -0.5730 H   0  0  0  0  0  0  0  0  0  0  0  0
    3.6649   -3.7861    0.3353 H   0  0  0  0  0  0  0  0  0  0  0  0
    4.0365   -3.7459   -1.8313 C   0  0  0  0  0  0  0  0  0  0  0  0
    4.8260   -3.1459   -1.7697 H   0  0  0  0  0  0  0  0  0  0  0  0
    4.3238   -4.6945   -1.8932 H   0  0  0  0  0  0  0  0  0  0  0  0
    3.2521   -3.3941   -3.0619 N   0  0  0  0  0  4  0  0  0  0  0  0
    3.7780   -2.7460   -3.6089 H   0  0  0  0  0  0  0  0  0  0  0  0
    3.0834   -4.2239   -3.5878 H   0  0  0  0  0  0  0  0  0  0  0  0
    2.3851   -2.9828   -2.7883 H   0  0  0  0  0  0  0  0  0  0  0  0
   -0.0100    2.8995   -0.0004 C   0  0  0  0  0  0  0  0  0  0  0  0
    0.7694    3.2123    0.5217 H   0  0  0  0  0  0  0  0  0  0  0  0
   -0.8586    3.2033    0.4053 H   0  0  0  0  0  0  0  0  0  0  0  0
    0.0584    3.3375   -0.9962 H   0  0  0  0  0  0  0  0  0  0  0  0
   -0.0021    1.4045   -0.0012 C   0  0  0  0  0  0  0  0  0  0  0  0
   -1.1974    0.6972   -0.0009 C   0  0  0  0  0  0  0  0  0  0  0  0
   -2.0656    1.1830   -0.0025 H   0  0  0  0  0  0  0  0  0  0  0  0
   -1.2011   -0.7013    0.0000 C   0  0  0  0  0  0  0  0  0  0  0  0
   -2.0755   -1.1942    0.0006 H   0  0  0  0  0  0  0  0  0  0  0  0
    0.0062   -1.3984    0.0025 C   0  0  0  0  0  0  0  0  0  0  0  0
   -0.0007   -2.3962    0.0056 H   0  0  0  0  0  0  0  0  0  0  0  0
    1.2011   -0.7006   -0.0000 C   0  0  0  0  0  0  0  0  0  0  0  0
    2.0860   -1.1901    0.0001 H   0  0  0  0  0  0  0  0  0  0  0  0
    1.1933    0.6986   -0.0003 C   0  0  0  0  0  0  0  0  0  0  0  0
    2.0627    1.1916   -0.0010 H   0  0  0  0  0  0  0  0  0  0  0  0
  1  5  1  0
  5  8  1  0
  1  2  1  0
  1  3  1  0
  1  4  1  0
  5  6  1  0
  5  7  1  0
  8  9  1  0
  8 10  1  0
  8 11  1  0
 12 16  1  0
 16 17  2  0
 17 19  1  0
 19 21  2  0
 21 23  1  0
 23 25  2  0
 25 16  1  0
 12 13  1  0
 12 14  1  0
 12 15  1  0
 17 18  1  0
 19 20  1  0
 21 22  1  0
 23 24  1  0
 25 26  1  0
M  CHG  1   8   1
M  END
>  <PDB_ID>  (686) 
pdb1jkf

>  <RESIDUE_NAME>  (686) 
LYS   PHE

>  <FRAG_NAME>  (686) 
ETAM   MBZ

>  <FRAG_ATOM_NUM>  (686) 
fragi: 11  fragj: 15

>  <atom.prop.CHAIN_ID>  (686) 
A A A A A A A A A A A Z Z Z Z Z Z Z Z Z Z Z Z Z Z Z

>  <atom.prop.IS_HEAVY_ATOM>  (686) 
1 0 0 0 1 0 0 1 0 0 0 1 0 0 0 1 1 0 1 0 1 0 1 0 1 0

>  <DIFUSE_FUNC_ATOM>  (686) 
n/a

>  <FINAL_SINGLE_POINT_ENERGY>  (686) 
0

>  <NONCOV_INTER_ENERGY_QM>  (686) 
0

>  <FF_Energy>  (686) 
5.79

>  <QM_Energy>  (686) 
-1.65

>  <source>  (686) 
ETAM_MBZ

>  <Index>  (686) 
6799

$$$$
ETAM-pdb1jkf-B-LYS-39:MBZ-pdb1jkf-B-PHE-45
     RDKit          3D

 26 25  0  0  0  0  0  0  0  0999 V2000
    1.9029   -1.8920    2.9463 C   0  0  0  0  0  0  0  0  0  0  0  0
    1.2878   -2.2466    3.6498 H   0  0  0  0  0  0  0  0  0  0  0  0
    1.3913   -1.7324    2.1024 H   0  0  0  0  0  0  0  0  0  0  0  0
    2.2954   -0.9354    3.2912 H   0  0  0  0  0  0  0  0  0  0  0  0
    2.9879   -2.9293    2.6737 C   0  0  0  0  0  0  0  0  0  0  0  0
    3.7610   -2.7546    3.2732 H   0  0  0  0  0  0  0  0  0  0  0  0
    2.6182   -3.8366    2.8414 H   0  0  0  0  0  0  0  0  0  0  0  0
    3.4356   -2.8347    1.2506 N   0  0  0  0  0  4  0  0  0  0  0  0
    3.3142   -1.8972    0.9295 H   0  0  0  0  0  0  0  0  0  0  0  0
    4.3993   -3.0888    1.1918 H   0  0  0  0  0  0  0  0  0  0  0  0
    2.8888   -3.4558    0.6921 H   0  0  0  0  0  0  0  0  0  0  0  0
   -0.0027    2.9141   -0.0469 C   0  0  0  0  0  0  0  0  0  0  0  0
   -0.8797    3.2069   -0.3974 H   0  0  0  0  0  0  0  0  0  0  0  0
    0.7363    3.2038   -0.6367 H   0  0  0  0  0  0  0  0  0  0  0  0
    0.1416    3.3905    0.9228 H   0  0  0  0  0  0  0  0  0  0  0  0
    0.0017    1.4072   -0.0002 C   0  0  0  0  0  0  0  0  0  0  0  0
   -1.1994    0.6958    0.0028 C   0  0  0  0  0  0  0  0  0  0  0  0
   -2.0661    1.1837    0.0058 H   0  0  0  0  0  0  0  0  0  0  0  0
   -1.2082   -0.7064    0.0000 C   0  0  0  0  0  0  0  0  0  0  0  0
   -2.0838   -1.1933    0.0019 H   0  0  0  0  0  0  0  0  0  0  0  0
   -0.0038   -1.4042   -0.0039 C   0  0  0  0  0  0  0  0  0  0  0  0
    0.0002   -2.3985   -0.0098 H   0  0  0  0  0  0  0  0  0  0  0  0
    1.2082   -0.6949   -0.0000 C   0  0  0  0  0  0  0  0  0  0  0  0
    2.0858   -1.1930    0.0036 H   0  0  0  0  0  0  0  0  0  0  0  0
    1.2015    0.7025    0.0013 C   0  0  0  0  0  0  0  0  0  0  0  0
    2.0684    1.1974    0.0024 H   0  0  0  0  0  0  0  0  0  0  0  0
  1  5  1  0
  5  8  1  0
  1  2  1  0
  1  3  1  0
  1  4  1  0
  5  6  1  0
  5  7  1  0
  8  9  1  0
  8 10  1  0
  8 11  1  0
 12 16  1  0
 16 17  2  0
 17 19  1  0
 19 21  2  0
 21 23  1  0
 23 25  2  0
 25 16  1  0
 12 13  1  0
 12 14  1  0
 12 15  1  0
 17 18  1  0
 19 20  1  0
 21 22  1  0
 23 24  1  0
 25 26  1  0
M  CHG  1   8   1
M  END
>  <PDB_ID>  (687) 
pdb1jkf

>  <RESIDUE_NAME>  (687) 
LYS   PHE

>  <FRAG_NAME>  (687) 
ETAM   MBZ

>  <FRAG_ATOM_NUM>  (687) 
fragi: 11  fragj: 15

>  <atom.prop.CHAIN_ID>  (687) 
A A A A A A A A A A A Z Z Z Z Z Z Z Z Z Z Z Z Z Z Z

>  <atom.prop.IS_HEAVY_ATOM>  (687) 
1 0 0 0 1 0 0 1 0 0 0 1 0 0 0 1 1 0 1 0 1 0 1 0 1 0

>  <DIFUSE_FUNC_ATOM>  (687) 
n/a

>  <FINAL_SINGLE_POINT_ENERGY>  (687) 
0

>  <NONCOV_INTER_ENERGY_QM>  (687) 
0

>  <FF_Energy>  (687) 
4.82

>  <QM_Energy>  (687) 
-1.99

>  <source>  (687) 
ETAM_MBZ

>  <Index>  (687) 
6802

$$$$
ETAM-pdb1jkf-B-LYS-462:MBZ-pdb1jkf-B-PHE-474
     RDKit          3D

 26 25  0  0  0  0  0  0  0  0999 V2000
   -0.3837   -1.3184    3.5776 C   0  0  0  0  0  0  0  0  0  0  0  0
   -0.1359   -1.1711    2.6171 H   0  0  0  0  0  0  0  0  0  0  0  0
    0.1152   -2.1146    3.9270 H   0  0  0  0  0  0  0  0  0  0  0  0
   -0.0917   -0.4402    4.1534 H   0  0  0  0  0  0  0  0  0  0  0  0
   -1.8919   -1.6395    3.6362 C   0  0  0  0  0  0  0  0  0  0  0  0
   -2.1335   -1.8837    4.5749 H   0  0  0  0  0  0  0  0  0  0  0  0
   -2.4065   -0.8285    3.3597 H   0  0  0  0  0  0  0  0  0  0  0  0
   -2.2738   -2.7936    2.7192 N   0  0  0  0  0  4  0  0  0  0  0  0
   -3.2178   -3.0432    2.9049 H   0  0  0  0  0  0  0  0  0  0  0  0
   -2.1723   -2.4936    1.7768 H   0  0  0  0  0  0  0  0  0  0  0  0
   -1.6679   -3.5585    2.9077 H   0  0  0  0  0  0  0  0  0  0  0  0
   -0.0072    2.9188    0.0627 C   0  0  0  0  0  0  0  0  0  0  0  0
   -0.4812    3.2531   -0.7362 H   0  0  0  0  0  0  0  0  0  0  0  0
    0.9309    3.2265    0.0850 H   0  0  0  0  0  0  0  0  0  0  0  0
   -0.5114    3.3177    0.9429 H   0  0  0  0  0  0  0  0  0  0  0  0
   -0.0005    1.4117    0.0013 C   0  0  0  0  0  0  0  0  0  0  0  0
   -1.2013    0.6971   -0.0028 C   0  0  0  0  0  0  0  0  0  0  0  0
   -2.0675    1.1846   -0.0095 H   0  0  0  0  0  0  0  0  0  0  0  0
   -1.2049   -0.7025    0.0000 C   0  0  0  0  0  0  0  0  0  0  0  0
   -2.0805   -1.1941    0.0012 H   0  0  0  0  0  0  0  0  0  0  0  0
    0.0016   -1.4030    0.0032 C   0  0  0  0  0  0  0  0  0  0  0  0
   -0.0039   -2.3992    0.0074 H   0  0  0  0  0  0  0  0  0  0  0  0
    1.2049   -0.7046    0.0000 C   0  0  0  0  0  0  0  0  0  0  0  0
    2.0867   -1.1958   -0.0002 H   0  0  0  0  0  0  0  0  0  0  0  0
    1.2003    0.7012   -0.0017 C   0  0  0  0  0  0  0  0  0  0  0  0
    2.0678    1.1920   -0.0062 H   0  0  0  0  0  0  0  0  0  0  0  0
  1  5  1  0
  5  8  1  0
  1  2  1  0
  1  3  1  0
  1  4  1  0
  5  6  1  0
  5  7  1  0
  8  9  1  0
  8 10  1  0
  8 11  1  0
 12 16  1  0
 16 17  2  0
 17 19  1  0
 19 21  2  0
 21 23  1  0
 23 25  2  0
 25 16  1  0
 12 13  1  0
 12 14  1  0
 12 15  1  0
 17 18  1  0
 19 20  1  0
 21 22  1  0
 23 24  1  0
 25 26  1  0
M  CHG  1   8   1
M  END
>  <PDB_ID>  (688) 
pdb1jkf

>  <RESIDUE_NAME>  (688) 
LYS   PHE

>  <FRAG_NAME>  (688) 
ETAM   MBZ

>  <FRAG_ATOM_NUM>  (688) 
fragi: 11  fragj: 15

>  <atom.prop.CHAIN_ID>  (688) 
A A A A A A A A A A A Z Z Z Z Z Z Z Z Z Z Z Z Z Z Z

>  <atom.prop.IS_HEAVY_ATOM>  (688) 
1 0 0 0 1 0 0 1 0 0 0 1 0 0 0 1 1 0 1 0 1 0 1 0 1 0

>  <DIFUSE_FUNC_ATOM>  (688) 
n/a

>  <FINAL_SINGLE_POINT_ENERGY>  (688) 
0

>  <NONCOV_INTER_ENERGY_QM>  (688) 
0

>  <FF_Energy>  (688) 
-2.31

>  <QM_Energy>  (688) 
-8.67

>  <source>  (688) 
ETAM_MBZ

>  <Index>  (688) 
6806

$$$$
ETAM-pdb1jih-A-LYS-457:MBZ-pdb1jih-A-PHE-480
     RDKit          3D

 26 25  0  0  0  0  0  0  0  0999 V2000
   -0.6015    1.6513    3.5358 C   0  0  0  0  0  0  0  0  0  0  0  0
   -0.6637    2.5776    3.8875 H   0  0  0  0  0  0  0  0  0  0  0  0
   -0.6859    1.6443    2.5471 H   0  0  0  0  0  0  0  0  0  0  0  0
    0.3630    1.2278    3.8161 H   0  0  0  0  0  0  0  0  0  0  0  0
   -1.7464    0.8334    4.1226 C   0  0  0  0  0  0  0  0  0  0  0  0
   -1.7754    0.9834    5.1162 H   0  0  0  0  0  0  0  0  0  0  0  0
   -2.6118    1.1561    3.7251 H   0  0  0  0  0  0  0  0  0  0  0  0
   -1.5992   -0.6241    3.8524 N   0  0  0  0  0  4  0  0  0  0  0  0
   -2.2995   -1.1271    4.3573 H   0  0  0  0  0  0  0  0  0  0  0  0
   -1.7077   -0.7914    2.8731 H   0  0  0  0  0  0  0  0  0  0  0  0
   -0.6927   -0.9247    4.1465 H   0  0  0  0  0  0  0  0  0  0  0  0
    0.0106    2.9162   -0.0007 C   0  0  0  0  0  0  0  0  0  0  0  0
    0.2574    3.2187   -0.9094 H   0  0  0  0  0  0  0  0  0  0  0  0
    0.6724    3.2168    0.6704 H   0  0  0  0  0  0  0  0  0  0  0  0
   -0.9482    3.3689    0.2519 H   0  0  0  0  0  0  0  0  0  0  0  0
    0.0006    1.4070    0.0004 C   0  0  0  0  0  0  0  0  0  0  0  0
   -1.1993    0.6958   -0.0008 C   0  0  0  0  0  0  0  0  0  0  0  0
   -2.0653    1.1857   -0.0038 H   0  0  0  0  0  0  0  0  0  0  0  0
   -1.2043   -0.6986    0.0000 C   0  0  0  0  0  0  0  0  0  0  0  0
   -2.0799   -1.1916    0.0012 H   0  0  0  0  0  0  0  0  0  0  0  0
    0.0013   -1.3994    0.0008 C   0  0  0  0  0  0  0  0  0  0  0  0
   -0.0049   -2.3957    0.0014 H   0  0  0  0  0  0  0  0  0  0  0  0
    1.2043   -0.7017   -0.0000 C   0  0  0  0  0  0  0  0  0  0  0  0
    2.0855   -1.1950    0.0008 H   0  0  0  0  0  0  0  0  0  0  0  0
    1.1974    0.6969   -0.0004 C   0  0  0  0  0  0  0  0  0  0  0  0
    2.0666    1.1905   -0.0018 H   0  0  0  0  0  0  0  0  0  0  0  0
  1  5  1  0
  5  8  1  0
  1  2  1  0
  1  3  1  0
  1  4  1  0
  5  6  1  0
  5  7  1  0
  8  9  1  0
  8 10  1  0
  8 11  1  0
 12 16  1  0
 16 17  2  0
 17 19  1  0
 19 21  2  0
 21 23  1  0
 23 25  2  0
 25 16  1  0
 12 13  1  0
 12 14  1  0
 12 15  1  0
 17 18  1  0
 19 20  1  0
 21 22  1  0
 23 24  1  0
 25 26  1  0
M  CHG  1   8   1
M  END
>  <PDB_ID>  (689) 
pdb1jih

>  <RESIDUE_NAME>  (689) 
LYS   PHE

>  <FRAG_NAME>  (689) 
ETAM   MBZ

>  <FRAG_ATOM_NUM>  (689) 
fragi: 11  fragj: 15

>  <atom.prop.CHAIN_ID>  (689) 
A A A A A A A A A A A Z Z Z Z Z Z Z Z Z Z Z Z Z Z Z

>  <atom.prop.IS_HEAVY_ATOM>  (689) 
1 0 0 0 1 0 0 1 0 0 0 1 0 0 0 1 1 0 1 0 1 0 1 0 1 0

>  <DIFUSE_FUNC_ATOM>  (689) 
n/a

>  <FINAL_SINGLE_POINT_ENERGY>  (689) 
0

>  <NONCOV_INTER_ENERGY_QM>  (689) 
0

>  <FF_Energy>  (689) 
-5.24

>  <QM_Energy>  (689) 
-10.69

>  <source>  (689) 
ETAM_MBZ

>  <Index>  (689) 
6818

$$$$
ETAM-pdb2nzw-B-LYS-132:MBZ-pdb2nzw-B-PHE-256
     RDKit          3D

 26 25  0  0  0  0  0  0  0  0999 V2000
   -1.6016    2.0985   -3.0110 C   0  0  0  0  0  0  0  0  0  0  0  0
   -2.3941    2.3281   -2.4615 H   0  0  0  0  0  0  0  0  0  0  0  0
   -0.8871    1.6978   -2.4544 H   0  0  0  0  0  0  0  0  0  0  0  0
   -1.8977    1.3830   -3.7780 H   0  0  0  0  0  0  0  0  0  0  0  0
   -1.0762    3.3459   -3.6579 C   0  0  0  0  0  0  0  0  0  0  0  0
   -0.4970    3.1058   -4.4199 H   0  0  0  0  0  0  0  0  0  0  0  0
   -1.8312    3.9157   -3.9396 H   0  0  0  0  0  0  0  0  0  0  0  0
   -0.2795    4.0515   -2.6345 N   0  0  0  0  0  4  0  0  0  0  0  0
    0.4906    4.5199   -3.0702 H   0  0  0  0  0  0  0  0  0  0  0  0
   -0.8543    4.7246   -2.1651 H   0  0  0  0  0  0  0  0  0  0  0  0
    0.0698    3.3923   -1.9663 H   0  0  0  0  0  0  0  0  0  0  0  0
   -0.0164    2.8786   -0.0365 C   0  0  0  0  0  0  0  0  0  0  0  0
   -0.7469    3.1669   -0.6427 H   0  0  0  0  0  0  0  0  0  0  0  0
    0.8646    3.1838   -0.3753 H   0  0  0  0  0  0  0  0  0  0  0  0
   -0.1830    3.3359    0.9388 H   0  0  0  0  0  0  0  0  0  0  0  0
   -0.0063    1.3927   -0.0008 C   0  0  0  0  0  0  0  0  0  0  0  0
   -1.1949    0.6903   -0.0010 C   0  0  0  0  0  0  0  0  0  0  0  0
   -2.0638    1.1782   -0.0031 H   0  0  0  0  0  0  0  0  0  0  0  0
   -1.1967   -0.6959   -0.0000 C   0  0  0  0  0  0  0  0  0  0  0  0
   -2.0728   -1.1927    0.0028 H   0  0  0  0  0  0  0  0  0  0  0  0
    0.0038   -1.3888   -0.0016 C   0  0  0  0  0  0  0  0  0  0  0  0
   -0.0030   -2.3904   -0.0047 H   0  0  0  0  0  0  0  0  0  0  0  0
    1.1967   -0.6972    0.0000 C   0  0  0  0  0  0  0  0  0  0  0  0
    2.0826   -1.1920    0.0002 H   0  0  0  0  0  0  0  0  0  0  0  0
    1.1974    0.6989    0.0034 C   0  0  0  0  0  0  0  0  0  0  0  0
    2.0597    1.1926    0.0081 H   0  0  0  0  0  0  0  0  0  0  0  0
  1  5  1  0
  5  8  1  0
  1  2  1  0
  1  3  1  0
  1  4  1  0
  5  6  1  0
  5  7  1  0
  8  9  1  0
  8 10  1  0
  8 11  1  0
 12 16  1  0
 16 17  2  0
 17 19  1  0
 19 21  2  0
 21 23  1  0
 23 25  2  0
 25 16  1  0
 12 13  1  0
 12 14  1  0
 12 15  1  0
 17 18  1  0
 19 20  1  0
 21 22  1  0
 23 24  1  0
 25 26  1  0
M  CHG  1   8   1
M  END
>  <PDB_ID>  (690) 
pdb2nzw

>  <RESIDUE_NAME>  (690) 
LYS   PHE

>  <FRAG_NAME>  (690) 
ETAM   MBZ

>  <FRAG_ATOM_NUM>  (690) 
fragi: 11  fragj: 15

>  <atom.prop.CHAIN_ID>  (690) 
A A A A A A A A A A A Z Z Z Z Z Z Z Z Z Z Z Z Z Z Z

>  <atom.prop.IS_HEAVY_ATOM>  (690) 
1 0 0 0 1 0 0 1 0 0 0 1 0 0 0 1 1 0 1 0 1 0 1 0 1 0

>  <DIFUSE_FUNC_ATOM>  (690) 
n/a

>  <FINAL_SINGLE_POINT_ENERGY>  (690) 
0

>  <NONCOV_INTER_ENERGY_QM>  (690) 
0

>  <FF_Energy>  (690) 
5.82

>  <QM_Energy>  (690) 
-0.1

>  <source>  (690) 
ETAM_MBZ

>  <Index>  (690) 
6824

$$$$
ETAM-pdb2ocd-C-LYS-33:MBZ-pdb2ocd-C-PHE-30
     RDKit          3D

 26 25  0  0  0  0  0  0  0  0999 V2000
   -5.0461    3.7669    2.9298 C   0  0  0  0  0  0  0  0  0  0  0  0
   -5.2809    3.8118    3.8986 H   0  0  0  0  0  0  0  0  0  0  0  0
   -5.7218    3.2195    2.4417 H   0  0  0  0  0  0  0  0  0  0  0  0
   -5.0860    4.7802    2.5302 H   0  0  0  0  0  0  0  0  0  0  0  0
   -3.6674    3.0933    2.7866 C   0  0  0  0  0  0  0  0  0  0  0  0
   -2.9552    3.7660    3.0159 H   0  0  0  0  0  0  0  0  0  0  0  0
   -3.6092    2.3338    3.4454 H   0  0  0  0  0  0  0  0  0  0  0  0
   -3.3939    2.5525    1.3984 N   0  0  0  0  0  4  0  0  0  0  0  0
   -3.9940    1.7761    1.2353 H   0  0  0  0  0  0  0  0  0  0  0  0
   -3.5737    3.2720    0.7353 H   0  0  0  0  0  0  0  0  0  0  0  0
   -2.4416    2.2684    1.3494 H   0  0  0  0  0  0  0  0  0  0  0  0
    0.0067    3.0006    0.0322 C   0  0  0  0  0  0  0  0  0  0  0  0
    0.8844    3.2702    0.3912 H   0  0  0  0  0  0  0  0  0  0  0  0
   -0.7317    3.2684    0.6274 H   0  0  0  0  0  0  0  0  0  0  0  0
   -0.1353    3.4804   -0.9362 H   0  0  0  0  0  0  0  0  0  0  0  0
    0.0020    1.4358   -0.0051 C   0  0  0  0  0  0  0  0  0  0  0  0
   -1.2043    0.7047    0.0066 C   0  0  0  0  0  0  0  0  0  0  0  0
   -2.0720    1.1850    0.0187 H   0  0  0  0  0  0  0  0  0  0  0  0
   -1.2087   -0.7137    0.0000 C   0  0  0  0  0  0  0  0  0  0  0  0
   -2.0882   -1.1948    0.0022 H   0  0  0  0  0  0  0  0  0  0  0  0
   -0.0056   -1.4205   -0.0080 C   0  0  0  0  0  0  0  0  0  0  0  0
   -0.0095   -2.4131   -0.0196 H   0  0  0  0  0  0  0  0  0  0  0  0
    1.2087   -0.7179    0.0000 C   0  0  0  0  0  0  0  0  0  0  0  0
    2.0879   -1.2036    0.0025 H   0  0  0  0  0  0  0  0  0  0  0  0
    1.2078    0.7114    0.0065 C   0  0  0  0  0  0  0  0  0  0  0  0
    2.0772    1.1909    0.0185 H   0  0  0  0  0  0  0  0  0  0  0  0
  1  5  1  0
  5  8  1  0
  1  2  1  0
  1  3  1  0
  1  4  1  0
  5  6  1  0
  5  7  1  0
  8  9  1  0
  8 10  1  0
  8 11  1  0
 12 16  1  0
 16 17  2  0
 17 19  1  0
 19 21  2  0
 21 23  1  0
 23 25  2  0
 25 16  1  0
 12 13  1  0
 12 14  1  0
 12 15  1  0
 17 18  1  0
 19 20  1  0
 21 22  1  0
 23 24  1  0
 25 26  1  0
M  CHG  1   8   1
M  END
>  <PDB_ID>  (691) 
pdb2ocd

>  <RESIDUE_NAME>  (691) 
LYS   PHE

>  <FRAG_NAME>  (691) 
ETAM   MBZ

>  <FRAG_ATOM_NUM>  (691) 
fragi: 11  fragj: 15

>  <atom.prop.CHAIN_ID>  (691) 
A A A A A A A A A A A Z Z Z Z Z Z Z Z Z Z Z Z Z Z Z

>  <atom.prop.IS_HEAVY_ATOM>  (691) 
1 0 0 0 1 0 0 1 0 0 0 1 0 0 0 1 1 0 1 0 1 0 1 0 1 0

>  <DIFUSE_FUNC_ATOM>  (691) 
n/a

>  <FINAL_SINGLE_POINT_ENERGY>  (691) 
0

>  <NONCOV_INTER_ENERGY_QM>  (691) 
0

>  <FF_Energy>  (691) 
2.61

>  <QM_Energy>  (691) 
-3.05

>  <source>  (691) 
ETAM_MBZ

>  <Index>  (691) 
6830

$$$$
ETAM-pdb2odp-A-LYS-530:MBZ-pdb2odp-A-PHE-527
     RDKit          3D

 26 25  0  0  0  0  0  0  0  0999 V2000
    2.3303    2.0884   -3.3959 C   0  0  0  0  0  0  0  0  0  0  0  0
    2.0451    1.8049   -2.4835 H   0  0  0  0  0  0  0  0  0  0  0  0
    1.5572    2.4869   -3.8848 H   0  0  0  0  0  0  0  0  0  0  0  0
    3.1075    2.8462   -3.2967 H   0  0  0  0  0  0  0  0  0  0  0  0
    2.8007    0.8449   -4.1653 C   0  0  0  0  0  0  0  0  0  0  0  0
    2.6113    0.9735   -5.1430 H   0  0  0  0  0  0  0  0  0  0  0  0
    3.7899    0.7360   -4.0382 H   0  0  0  0  0  0  0  0  0  0  0  0
    2.1141   -0.4399   -3.7079 N   0  0  0  0  0  4  0  0  0  0  0  0
    1.3270   -0.5991   -4.2929 H   0  0  0  0  0  0  0  0  0  0  0  0
    2.7648   -1.1872   -3.7865 H   0  0  0  0  0  0  0  0  0  0  0  0
    1.8297   -0.3223   -2.7633 H   0  0  0  0  0  0  0  0  0  0  0  0
    0.0094    2.9149    0.0450 C   0  0  0  0  0  0  0  0  0  0  0  0
   -0.9181    3.2270    0.1668 H   0  0  0  0  0  0  0  0  0  0  0  0
    0.3996    3.2484   -0.7968 H   0  0  0  0  0  0  0  0  0  0  0  0
    0.6019    3.3224    0.8641 H   0  0  0  0  0  0  0  0  0  0  0  0
   -0.0010    1.4129   -0.0025 C   0  0  0  0  0  0  0  0  0  0  0  0
   -1.2076    0.7039    0.0089 C   0  0  0  0  0  0  0  0  0  0  0  0
   -2.0697    1.1843    0.0214 H   0  0  0  0  0  0  0  0  0  0  0  0
   -1.2018   -0.7052   -0.0000 C   0  0  0  0  0  0  0  0  0  0  0  0
   -2.0709   -1.2017   -0.0024 H   0  0  0  0  0  0  0  0  0  0  0  0
    0.0188   -1.4044   -0.0044 C   0  0  0  0  0  0  0  0  0  0  0  0
    0.0053   -2.4020   -0.0112 H   0  0  0  0  0  0  0  0  0  0  0  0
    1.2018   -0.7073    0.0000 C   0  0  0  0  0  0  0  0  0  0  0  0
    2.0940   -1.1869    0.0063 H   0  0  0  0  0  0  0  0  0  0  0  0
    1.1899    0.7001   -0.0020 C   0  0  0  0  0  0  0  0  0  0  0  0
    2.0635    1.1898   -0.0040 H   0  0  0  0  0  0  0  0  0  0  0  0
  1  5  1  0
  5  8  1  0
  1  2  1  0
  1  3  1  0
  1  4  1  0
  5  6  1  0
  5  7  1  0
  8  9  1  0
  8 10  1  0
  8 11  1  0
 12 16  1  0
 16 17  2  0
 17 19  1  0
 19 21  2  0
 21 23  1  0
 23 25  2  0
 25 16  1  0
 12 13  1  0
 12 14  1  0
 12 15  1  0
 17 18  1  0
 19 20  1  0
 21 22  1  0
 23 24  1  0
 25 26  1  0
M  CHG  1   8   1
M  END
>  <PDB_ID>  (692) 
pdb2odp

>  <RESIDUE_NAME>  (692) 
LYS   PHE

>  <FRAG_NAME>  (692) 
ETAM   MBZ

>  <FRAG_ATOM_NUM>  (692) 
fragi: 11  fragj: 15

>  <atom.prop.CHAIN_ID>  (692) 
A A A A A A A A A A A Z Z Z Z Z Z Z Z Z Z Z Z Z Z Z

>  <atom.prop.IS_HEAVY_ATOM>  (692) 
1 0 0 0 1 0 0 1 0 0 0 1 0 0 0 1 1 0 1 0 1 0 1 0 1 0

>  <DIFUSE_FUNC_ATOM>  (692) 
n/a

>  <FINAL_SINGLE_POINT_ENERGY>  (692) 
0

>  <NONCOV_INTER_ENERGY_QM>  (692) 
0

>  <FF_Energy>  (692) 
-4.92

>  <QM_Energy>  (692) 
-9.98

>  <source>  (692) 
ETAM_MBZ

>  <Index>  (692) 
6850

$$$$
ETAM-pdb2ody-D-LYS-235:MBZ-pdb2ody-C-PHE-1
     RDKit          3D

 26 25  0  0  0  0  0  0  0  0999 V2000
    1.7118   -1.0798   -4.3878 C   0  0  0  0  0  0  0  0  0  0  0  0
    2.6963   -1.1794   -4.5033 H   0  0  0  0  0  0  0  0  0  0  0  0
    1.2668   -1.0285   -5.2785 H   0  0  0  0  0  0  0  0  0  0  0  0
    1.3273   -1.9436   -3.8454 H   0  0  0  0  0  0  0  0  0  0  0  0
    1.4459    0.2240   -3.6424 C   0  0  0  0  0  0  0  0  0  0  0  0
    1.7835    0.1282   -2.6949 H   0  0  0  0  0  0  0  0  0  0  0  0
    1.9761    0.9631   -4.0844 H   0  0  0  0  0  0  0  0  0  0  0  0
    0.0078    0.6105   -3.6096 N   0  0  0  0  0  4  0  0  0  0  0  0
   -0.4459    0.2685   -4.4323 H   0  0  0  0  0  0  0  0  0  0  0  0
   -0.4230    0.2142   -2.7990 H   0  0  0  0  0  0  0  0  0  0  0  0
   -0.0663    1.6067   -3.5757 H   0  0  0  0  0  0  0  0  0  0  0  0
   -0.0016    2.9146    0.0110 C   0  0  0  0  0  0  0  0  0  0  0  0
   -0.7789    3.2223   -0.5136 H   0  0  0  0  0  0  0  0  0  0  0  0
    0.8489    3.2212   -0.3831 H   0  0  0  0  0  0  0  0  0  0  0  0
   -0.0809    3.3430    1.0102 H   0  0  0  0  0  0  0  0  0  0  0  0
   -0.0020    1.4053    0.0003 C   0  0  0  0  0  0  0  0  0  0  0  0
   -1.1974    0.6967    0.0009 C   0  0  0  0  0  0  0  0  0  0  0  0
   -2.0656    1.1837    0.0009 H   0  0  0  0  0  0  0  0  0  0  0  0
   -1.2012   -0.6997    0.0000 C   0  0  0  0  0  0  0  0  0  0  0  0
   -2.0758   -1.1924    0.0024 H   0  0  0  0  0  0  0  0  0  0  0  0
    0.0044   -1.3973   -0.0027 C   0  0  0  0  0  0  0  0  0  0  0  0
   -0.0010   -2.3949   -0.0074 H   0  0  0  0  0  0  0  0  0  0  0  0
    1.2012   -0.6995    0.0000 C   0  0  0  0  0  0  0  0  0  0  0  0
    2.0847   -1.1937    0.0025 H   0  0  0  0  0  0  0  0  0  0  0  0
    1.1950    0.6944    0.0015 C   0  0  0  0  0  0  0  0  0  0  0  0
    2.0637    1.1903    0.0030 H   0  0  0  0  0  0  0  0  0  0  0  0
  1  5  1  0
  5  8  1  0
  1  2  1  0
  1  3  1  0
  1  4  1  0
  5  6  1  0
  5  7  1  0
  8  9  1  0
  8 10  1  0
  8 11  1  0
 12 16  1  0
 16 17  2  0
 17 19  1  0
 19 21  2  0
 21 23  1  0
 23 25  2  0
 25 16  1  0
 12 13  1  0
 12 14  1  0
 12 15  1  0
 17 18  1  0
 19 20  1  0
 21 22  1  0
 23 24  1  0
 25 26  1  0
M  CHG  1   8   1
M  END
>  <PDB_ID>  (693) 
pdb2ody

>  <RESIDUE_NAME>  (693) 
LYS   PHE

>  <FRAG_NAME>  (693) 
ETAM   MBZ

>  <FRAG_ATOM_NUM>  (693) 
fragi: 11  fragj: 15

>  <atom.prop.CHAIN_ID>  (693) 
A A A A A A A A A A A Z Z Z Z Z Z Z Z Z Z Z Z Z Z Z

>  <atom.prop.IS_HEAVY_ATOM>  (693) 
1 0 0 0 1 0 0 1 0 0 0 1 0 0 0 1 1 0 1 0 1 0 1 0 1 0

>  <DIFUSE_FUNC_ATOM>  (693) 
n/a

>  <FINAL_SINGLE_POINT_ENERGY>  (693) 
0

>  <NONCOV_INTER_ENERGY_QM>  (693) 
0

>  <FF_Energy>  (693) 
-8.0

>  <QM_Energy>  (693) 
-13.44

>  <source>  (693) 
ETAM_MBZ

>  <Index>  (693) 
6861

$$$$
ETAM-pdb1jmm-A-LYS-709:MBZ-pdb1jmm-A-PHE-671
     RDKit          3D

 26 25  0  0  0  0  0  0  0  0999 V2000
   -1.7411   -1.3878    4.6338 C   0  0  0  0  0  0  0  0  0  0  0  0
   -1.6268   -1.7735    5.5496 H   0  0  0  0  0  0  0  0  0  0  0  0
   -1.7385   -2.1272    3.9593 H   0  0  0  0  0  0  0  0  0  0  0  0
   -2.7038   -0.8786    4.5887 H   0  0  0  0  0  0  0  0  0  0  0  0
   -0.5685   -0.4655    4.3467 C   0  0  0  0  0  0  0  0  0  0  0  0
   -0.6272    0.3324    4.9574 H   0  0  0  0  0  0  0  0  0  0  0  0
    0.2864   -0.9567    4.5458 H   0  0  0  0  0  0  0  0  0  0  0  0
   -0.5519   -0.0055    2.9401 N   0  0  0  0  0  4  0  0  0  0  0  0
   -0.2421    0.9459    2.9018 H   0  0  0  0  0  0  0  0  0  0  0  0
    0.0715   -0.5788    2.4062 H   0  0  0  0  0  0  0  0  0  0  0  0
   -1.4738   -0.0707    2.5550 H   0  0  0  0  0  0  0  0  0  0  0  0
   -0.0003    2.9164    0.0165 C   0  0  0  0  0  0  0  0  0  0  0  0
    0.9174    3.2181    0.2255 H   0  0  0  0  0  0  0  0  0  0  0  0
   -0.6434    3.2126    0.7055 H   0  0  0  0  0  0  0  0  0  0  0  0
   -0.2943    3.3660   -0.9319 H   0  0  0  0  0  0  0  0  0  0  0  0
    0.0001    1.4090    0.0001 C   0  0  0  0  0  0  0  0  0  0  0  0
   -1.2012    0.7014   -0.0000 C   0  0  0  0  0  0  0  0  0  0  0  0
   -2.0662    1.1902   -0.0012 H   0  0  0  0  0  0  0  0  0  0  0  0
   -1.2090   -0.6994    0.0000 C   0  0  0  0  0  0  0  0  0  0  0  0
   -2.0831   -1.1900    0.0008 H   0  0  0  0  0  0  0  0  0  0  0  0
    0.0015   -1.4045    0.0009 C   0  0  0  0  0  0  0  0  0  0  0  0
   -0.0063   -2.3996    0.0014 H   0  0  0  0  0  0  0  0  0  0  0  0
    1.2090   -0.7054    0.0000 C   0  0  0  0  0  0  0  0  0  0  0  0
    2.0876   -1.1967    0.0019 H   0  0  0  0  0  0  0  0  0  0  0  0
    1.1997    0.6988   -0.0009 C   0  0  0  0  0  0  0  0  0  0  0  0
    2.0687    1.1917   -0.0031 H   0  0  0  0  0  0  0  0  0  0  0  0
  1  5  1  0
  5  8  1  0
  1  2  1  0
  1  3  1  0
  1  4  1  0
  5  6  1  0
  5  7  1  0
  8  9  1  0
  8 10  1  0
  8 11  1  0
 12 16  1  0
 16 17  2  0
 17 19  1  0
 19 21  2  0
 21 23  1  0
 23 25  2  0
 25 16  1  0
 12 13  1  0
 12 14  1  0
 12 15  1  0
 17 18  1  0
 19 20  1  0
 21 22  1  0
 23 24  1  0
 25 26  1  0
M  CHG  1   8   1
M  END
>  <PDB_ID>  (694) 
pdb1jmm

>  <RESIDUE_NAME>  (694) 
LYS   PHE

>  <FRAG_NAME>  (694) 
ETAM   MBZ

>  <FRAG_ATOM_NUM>  (694) 
fragi: 11  fragj: 15

>  <atom.prop.CHAIN_ID>  (694) 
A A A A A A A A A A A Z Z Z Z Z Z Z Z Z Z Z Z Z Z Z

>  <atom.prop.IS_HEAVY_ATOM>  (694) 
1 0 0 0 1 0 0 1 0 0 0 1 0 0 0 1 1 0 1 0 1 0 1 0 1 0

>  <DIFUSE_FUNC_ATOM>  (694) 
n/a

>  <FINAL_SINGLE_POINT_ENERGY>  (694) 
0

>  <NONCOV_INTER_ENERGY_QM>  (694) 
0

>  <FF_Energy>  (694) 
-8.29

>  <QM_Energy>  (694) 
-16.47

>  <source>  (694) 
ETAM_MBZ

>  <Index>  (694) 
6888

$$$$
ETAM-pdb1jm6-B-LYS-1246:MBZ-pdb1jm6-B-PHE-1242
     RDKit          3D

 26 25  0  0  0  0  0  0  0  0999 V2000
    0.1312   -2.3712    3.5692 C   0  0  0  0  0  0  0  0  0  0  0  0
   -0.1555   -3.2630    3.8994 H   0  0  0  0  0  0  0  0  0  0  0  0
    0.0608   -2.3249    2.5799 H   0  0  0  0  0  0  0  0  0  0  0  0
   -0.5213   -1.6132    4.0025 H   0  0  0  0  0  0  0  0  0  0  0  0
    1.5906   -2.1503    3.9649 C   0  0  0  0  0  0  0  0  0  0  0  0
    1.6258   -1.4474    4.6815 H   0  0  0  0  0  0  0  0  0  0  0  0
    1.9555   -3.0090    4.3380 H   0  0  0  0  0  0  0  0  0  0  0  0
    2.4252   -1.7202    2.8136 N   0  0  0  0  0  4  0  0  0  0  0  0
    2.4612   -0.7216    2.7834 H   0  0  0  0  0  0  0  0  0  0  0  0
    3.3510   -2.0843    2.9190 H   0  0  0  0  0  0  0  0  0  0  0  0
    2.0246   -2.0654    1.9647 H   0  0  0  0  0  0  0  0  0  0  0  0
    0.0002    2.9171    0.0244 C   0  0  0  0  0  0  0  0  0  0  0  0
   -0.5350    3.2224   -0.7287 H   0  0  0  0  0  0  0  0  0  0  0  0
    0.9266    3.2120    0.0004 H   0  0  0  0  0  0  0  0  0  0  0  0
   -0.4541    3.2922    0.9415 H   0  0  0  0  0  0  0  0  0  0  0  0
   -0.0017    1.3890    0.0064 C   0  0  0  0  0  0  0  0  0  0  0  0
   -1.1961    0.6819   -0.0092 C   0  0  0  0  0  0  0  0  0  0  0  0
   -2.0633    1.1702   -0.0283 H   0  0  0  0  0  0  0  0  0  0  0  0
   -1.1996   -0.7100    0.0000 C   0  0  0  0  0  0  0  0  0  0  0  0
   -2.0739   -1.2025    0.0166 H   0  0  0  0  0  0  0  0  0  0  0  0
   -0.0016   -1.3828   -0.0116 C   0  0  0  0  0  0  0  0  0  0  0  0
    0.0116   -2.3878   -0.0292 H   0  0  0  0  0  0  0  0  0  0  0  0
    1.1996   -0.6806   -0.0000 C   0  0  0  0  0  0  0  0  0  0  0  0
    2.0811   -1.1844   -0.0005 H   0  0  0  0  0  0  0  0  0  0  0  0
    1.1994    0.7025    0.0144 C   0  0  0  0  0  0  0  0  0  0  0  0
    2.0603    1.2019    0.0296 H   0  0  0  0  0  0  0  0  0  0  0  0
  1  5  1  0
  5  8  1  0
  1  2  1  0
  1  3  1  0
  1  4  1  0
  5  6  1  0
  5  7  1  0
  8  9  1  0
  8 10  1  0
  8 11  1  0
 12 16  1  0
 16 17  2  0
 17 19  1  0
 19 21  2  0
 21 23  1  0
 23 25  2  0
 25 16  1  0
 12 13  1  0
 12 14  1  0
 12 15  1  0
 17 18  1  0
 19 20  1  0
 21 22  1  0
 23 24  1  0
 25 26  1  0
M  CHG  1   8   1
M  END
>  <PDB_ID>  (695) 
pdb1jm6

>  <RESIDUE_NAME>  (695) 
LYS   PHE

>  <FRAG_NAME>  (695) 
ETAM   MBZ

>  <FRAG_ATOM_NUM>  (695) 
fragi: 11  fragj: 15

>  <atom.prop.CHAIN_ID>  (695) 
A A A A A A A A A A A Z Z Z Z Z Z Z Z Z Z Z Z Z Z Z

>  <atom.prop.IS_HEAVY_ATOM>  (695) 
1 0 0 0 1 0 0 1 0 0 0 1 0 0 0 1 1 0 1 0 1 0 1 0 1 0

>  <DIFUSE_FUNC_ATOM>  (695) 
n/a

>  <FINAL_SINGLE_POINT_ENERGY>  (695) 
0

>  <NONCOV_INTER_ENERGY_QM>  (695) 
0

>  <FF_Energy>  (695) 
-2.91

>  <QM_Energy>  (695) 
-9.41

>  <source>  (695) 
ETAM_MBZ

>  <Index>  (695) 
6900

$$$$
ETAM-pdb1jqb-C-LYS-3338:MBZ-pdb1jqb-C-PHE-3045
     RDKit          3D

 26 25  0  0  0  0  0  0  0  0999 V2000
    0.0141   -1.1894   -4.0524 C   0  0  0  0  0  0  0  0  0  0  0  0
   -0.5064   -1.4184   -3.2349 H   0  0  0  0  0  0  0  0  0  0  0  0
    0.3136   -2.0208   -4.5123 H   0  0  0  0  0  0  0  0  0  0  0  0
   -0.6249   -0.6220   -4.7290 H   0  0  0  0  0  0  0  0  0  0  0  0
    1.2405   -0.3951   -3.6398 C   0  0  0  0  0  0  0  0  0  0  0  0
    1.7380   -0.1119   -4.4618 H   0  0  0  0  0  0  0  0  0  0  0  0
    0.9475    0.4196   -3.1362 H   0  0  0  0  0  0  0  0  0  0  0  0
    2.1458   -1.2035   -2.7756 N   0  0  0  0  0  4  0  0  0  0  0  0
    1.6020   -1.7003   -2.0998 H   0  0  0  0  0  0  0  0  0  0  0  0
    2.6515   -1.8532   -3.3425 H   0  0  0  0  0  0  0  0  0  0  0  0
    2.7872   -0.5955   -2.3090 H   0  0  0  0  0  0  0  0  0  0  0  0
   -0.0002    2.9019    0.0058 C   0  0  0  0  0  0  0  0  0  0  0  0
   -0.6905    3.2117   -0.6308 H   0  0  0  0  0  0  0  0  0  0  0  0
    0.9003    3.2116   -0.2628 H   0  0  0  0  0  0  0  0  0  0  0  0
   -0.2251    3.3401    0.9782 H   0  0  0  0  0  0  0  0  0  0  0  0
    0.0008    1.4030    0.0006 C   0  0  0  0  0  0  0  0  0  0  0  0
   -1.1973    0.6946    0.0008 C   0  0  0  0  0  0  0  0  0  0  0  0
   -2.0632    1.1853    0.0001 H   0  0  0  0  0  0  0  0  0  0  0  0
   -1.2038   -0.6982    0.0000 C   0  0  0  0  0  0  0  0  0  0  0  0
   -2.0800   -1.1910    0.0015 H   0  0  0  0  0  0  0  0  0  0  0  0
   -0.0011   -1.3973   -0.0013 C   0  0  0  0  0  0  0  0  0  0  0  0
   -0.0040   -2.3938   -0.0038 H   0  0  0  0  0  0  0  0  0  0  0  0
    1.2038   -0.6980   -0.0000 C   0  0  0  0  0  0  0  0  0  0  0  0
    2.0837   -1.1946    0.0027 H   0  0  0  0  0  0  0  0  0  0  0  0
    1.1976    0.6959   -0.0000 C   0  0  0  0  0  0  0  0  0  0  0  0
    2.0653    1.1916   -0.0012 H   0  0  0  0  0  0  0  0  0  0  0  0
  1  5  1  0
  5  8  1  0
  1  2  1  0
  1  3  1  0
  1  4  1  0
  5  6  1  0
  5  7  1  0
  8  9  1  0
  8 10  1  0
  8 11  1  0
 12 16  1  0
 16 17  2  0
 17 19  1  0
 19 21  2  0
 21 23  1  0
 23 25  2  0
 25 16  1  0
 12 13  1  0
 12 14  1  0
 12 15  1  0
 17 18  1  0
 19 20  1  0
 21 22  1  0
 23 24  1  0
 25 26  1  0
M  CHG  1   8   1
M  END
>  <PDB_ID>  (696) 
pdb1jqb

>  <RESIDUE_NAME>  (696) 
LYS   PHE

>  <FRAG_NAME>  (696) 
ETAM   MBZ

>  <FRAG_ATOM_NUM>  (696) 
fragi: 11  fragj: 15

>  <atom.prop.CHAIN_ID>  (696) 
A A A A A A A A A A A Z Z Z Z Z Z Z Z Z Z Z Z Z Z Z

>  <atom.prop.IS_HEAVY_ATOM>  (696) 
1 0 0 0 1 0 0 1 0 0 0 1 0 0 0 1 1 0 1 0 1 0 1 0 1 0

>  <DIFUSE_FUNC_ATOM>  (696) 
n/a

>  <FINAL_SINGLE_POINT_ENERGY>  (696) 
0

>  <NONCOV_INTER_ENERGY_QM>  (696) 
0

>  <FF_Energy>  (696) 
-3.9

>  <QM_Energy>  (696) 
-11.9

>  <source>  (696) 
ETAM_MBZ

>  <Index>  (696) 
6916

$$$$
ETAM-pdb1jqb-D-LYS-4338:MBZ-pdb1jqb-D-PHE-4045
     RDKit          3D

 26 25  0  0  0  0  0  0  0  0999 V2000
    2.5087   -0.7548    3.2041 C   0  0  0  0  0  0  0  0  0  0  0  0
    2.5119   -0.7184    2.2131 H   0  0  0  0  0  0  0  0  0  0  0  0
    2.4513   -1.6914    3.5236 H   0  0  0  0  0  0  0  0  0  0  0  0
    3.4293   -0.3069    3.5782 H   0  0  0  0  0  0  0  0  0  0  0  0
    1.2914    0.0074    3.7142 C   0  0  0  0  0  0  0  0  0  0  0  0
    0.4676   -0.3709    3.2873 H   0  0  0  0  0  0  0  0  0  0  0  0
    1.2284   -0.1074    4.7075 H   0  0  0  0  0  0  0  0  0  0  0  0
    1.3791    1.4672    3.3965 N   0  0  0  0  0  4  0  0  0  0  0  0
    1.4643    1.5829    2.4088 H   0  0  0  0  0  0  0  0  0  0  0  0
    0.5516    1.9227    3.7196 H   0  0  0  0  0  0  0  0  0  0  0  0
    2.1787    1.8535    3.8524 H   0  0  0  0  0  0  0  0  0  0  0  0
   -0.0006    2.9056   -0.0347 C   0  0  0  0  0  0  0  0  0  0  0  0
    0.9302    3.2149    0.0777 H   0  0  0  0  0  0  0  0  0  0  0  0
   -0.5812    3.2297    0.6953 H   0  0  0  0  0  0  0  0  0  0  0  0
   -0.3794    3.3175   -0.9701 H   0  0  0  0  0  0  0  0  0  0  0  0
   -0.0005    1.4057   -0.0006 C   0  0  0  0  0  0  0  0  0  0  0  0
   -1.1979    0.6969    0.0005 C   0  0  0  0  0  0  0  0  0  0  0  0
   -2.0649    1.1849    0.0009 H   0  0  0  0  0  0  0  0  0  0  0  0
   -1.2039   -0.7000    0.0000 C   0  0  0  0  0  0  0  0  0  0  0  0
   -2.0795   -1.1915    0.0011 H   0  0  0  0  0  0  0  0  0  0  0  0
    0.0015   -1.3993    0.0000 C   0  0  0  0  0  0  0  0  0  0  0  0
   -0.0031   -2.3958   -0.0001 H   0  0  0  0  0  0  0  0  0  0  0  0
    1.2039   -0.6999   -0.0000 C   0  0  0  0  0  0  0  0  0  0  0  0
    2.0849   -1.1946    0.0014 H   0  0  0  0  0  0  0  0  0  0  0  0
    1.1969    0.6965   -0.0000 C   0  0  0  0  0  0  0  0  0  0  0  0
    2.0655    1.1916   -0.0004 H   0  0  0  0  0  0  0  0  0  0  0  0
  1  5  1  0
  5  8  1  0
  1  2  1  0
  1  3  1  0
  1  4  1  0
  5  6  1  0
  5  7  1  0
  8  9  1  0
  8 10  1  0
  8 11  1  0
 12 16  1  0
 16 17  2  0
 17 19  1  0
 19 21  2  0
 21 23  1  0
 23 25  2  0
 25 16  1  0
 12 13  1  0
 12 14  1  0
 12 15  1  0
 17 18  1  0
 19 20  1  0
 21 22  1  0
 23 24  1  0
 25 26  1  0
M  CHG  1   8   1
M  END
>  <PDB_ID>  (697) 
pdb1jqb

>  <RESIDUE_NAME>  (697) 
LYS   PHE

>  <FRAG_NAME>  (697) 
ETAM   MBZ

>  <FRAG_ATOM_NUM>  (697) 
fragi: 11  fragj: 15

>  <atom.prop.CHAIN_ID>  (697) 
A A A A A A A A A A A Z Z Z Z Z Z Z Z Z Z Z Z Z Z Z

>  <atom.prop.IS_HEAVY_ATOM>  (697) 
1 0 0 0 1 0 0 1 0 0 0 1 0 0 0 1 1 0 1 0 1 0 1 0 1 0

>  <DIFUSE_FUNC_ATOM>  (697) 
n/a

>  <FINAL_SINGLE_POINT_ENERGY>  (697) 
0

>  <NONCOV_INTER_ENERGY_QM>  (697) 
0

>  <FF_Energy>  (697) 
-6.06

>  <QM_Energy>  (697) 
-11.66

>  <source>  (697) 
ETAM_MBZ

>  <Index>  (697) 
6918

$$$$
ETAM-pdb1jnr-A-LYS-499:MBZ-pdb1jnr-A-PHE-495
     RDKit          3D

 26 25  0  0  0  0  0  0  0  0999 V2000
    1.3044   -1.2924    3.6530 C   0  0  0  0  0  0  0  0  0  0  0  0
    1.1629   -1.0181    2.7069 H   0  0  0  0  0  0  0  0  0  0  0  0
    2.1877   -0.9691    3.9779 H   0  0  0  0  0  0  0  0  0  0  0  0
    0.5202   -0.8503    4.2676 H   0  0  0  0  0  0  0  0  0  0  0  0
    1.2891   -2.8151    3.7240 C   0  0  0  0  0  0  0  0  0  0  0  0
    2.0218   -3.1744    3.1326 H   0  0  0  0  0  0  0  0  0  0  0  0
    1.4844   -3.0981    4.6722 H   0  0  0  0  0  0  0  0  0  0  0  0
   -0.0129   -3.4099    3.2993 N   0  0  0  0  0  4  0  0  0  0  0  0
   -0.7237   -3.1424    3.9474 H   0  0  0  0  0  0  0  0  0  0  0  0
   -0.2460   -3.0760    2.3872 H   0  0  0  0  0  0  0  0  0  0  0  0
    0.0696   -4.4045    3.2825 H   0  0  0  0  0  0  0  0  0  0  0  0
    0.0007    2.9082    0.0397 C   0  0  0  0  0  0  0  0  0  0  0  0
   -0.5773    3.2334   -0.6917 H   0  0  0  0  0  0  0  0  0  0  0  0
    0.9323    3.2168   -0.0678 H   0  0  0  0  0  0  0  0  0  0  0  0
   -0.3809    3.3192    0.9744 H   0  0  0  0  0  0  0  0  0  0  0  0
    0.0005    1.4050    0.0004 C   0  0  0  0  0  0  0  0  0  0  0  0
   -1.1988    0.6969   -0.0001 C   0  0  0  0  0  0  0  0  0  0  0  0
   -2.0642    1.1868   -0.0012 H   0  0  0  0  0  0  0  0  0  0  0  0
   -1.2047   -0.6973   -0.0000 C   0  0  0  0  0  0  0  0  0  0  0  0
   -2.0801   -1.1898    0.0006 H   0  0  0  0  0  0  0  0  0  0  0  0
    0.0003   -1.3978    0.0006 C   0  0  0  0  0  0  0  0  0  0  0  0
   -0.0060   -2.3947    0.0007 H   0  0  0  0  0  0  0  0  0  0  0  0
    1.2047   -0.7010    0.0000 C   0  0  0  0  0  0  0  0  0  0  0  0
    2.0845   -1.1962    0.0015 H   0  0  0  0  0  0  0  0  0  0  0  0
    1.1980    0.6942   -0.0009 C   0  0  0  0  0  0  0  0  0  0  0  0
    2.0669    1.1893   -0.0033 H   0  0  0  0  0  0  0  0  0  0  0  0
  1  5  1  0
  5  8  1  0
  1  2  1  0
  1  3  1  0
  1  4  1  0
  5  6  1  0
  5  7  1  0
  8  9  1  0
  8 10  1  0
  8 11  1  0
 12 16  1  0
 16 17  2  0
 17 19  1  0
 19 21  2  0
 21 23  1  0
 23 25  2  0
 25 16  1  0
 12 13  1  0
 12 14  1  0
 12 15  1  0
 17 18  1  0
 19 20  1  0
 21 22  1  0
 23 24  1  0
 25 26  1  0
M  CHG  1   8   1
M  END
>  <PDB_ID>  (698) 
pdb1jnr

>  <RESIDUE_NAME>  (698) 
LYS   PHE

>  <FRAG_NAME>  (698) 
ETAM   MBZ

>  <FRAG_ATOM_NUM>  (698) 
fragi: 11  fragj: 15

>  <atom.prop.CHAIN_ID>  (698) 
A A A A A A A A A A A Z Z Z Z Z Z Z Z Z Z Z Z Z Z Z

>  <atom.prop.IS_HEAVY_ATOM>  (698) 
1 0 0 0 1 0 0 1 0 0 0 1 0 0 0 1 1 0 1 0 1 0 1 0 1 0

>  <DIFUSE_FUNC_ATOM>  (698) 
n/a

>  <FINAL_SINGLE_POINT_ENERGY>  (698) 
0

>  <NONCOV_INTER_ENERGY_QM>  (698) 
0

>  <FF_Energy>  (698) 
-2.65

>  <QM_Energy>  (698) 
-8.06

>  <source>  (698) 
ETAM_MBZ

>  <Index>  (698) 
6930

$$$$
ETAM-pdb1jqp-A-LYS-284:MBZ-pdb1jqp-A-PHE-78
     RDKit          3D

 26 25  0  0  0  0  0  0  0  0999 V2000
    1.4185    2.4651   -3.5621 C   0  0  0  0  0  0  0  0  0  0  0  0
    0.4552    2.6438   -3.7002 H   0  0  0  0  0  0  0  0  0  0  0  0
    1.5674    1.5504   -3.2167 H   0  0  0  0  0  0  0  0  0  0  0  0
    1.9382    2.5742   -4.5139 H   0  0  0  0  0  0  0  0  0  0  0  0
    1.9636    3.4587   -2.5685 C   0  0  0  0  0  0  0  0  0  0  0  0
    1.4472    3.3923   -1.7172 H   0  0  0  0  0  0  0  0  0  0  0  0
    2.9264    3.2604   -2.3963 H   0  0  0  0  0  0  0  0  0  0  0  0
    1.8382    4.8368   -3.1085 N   0  0  0  0  0  4  0  0  0  0  0  0
    2.7480    5.1964   -3.3174 H   0  0  0  0  0  0  0  0  0  0  0  0
    1.2865    4.8184   -3.9426 H   0  0  0  0  0  0  0  0  0  0  0  0
    1.3962    5.4226   -2.4286 H   0  0  0  0  0  0  0  0  0  0  0  0
   -0.0045    2.8969    0.1177 C   0  0  0  0  0  0  0  0  0  0  0  0
   -0.5577    3.2589   -0.6117 H   0  0  0  0  0  0  0  0  0  0  0  0
    0.9275    3.2113    0.0662 H   0  0  0  0  0  0  0  0  0  0  0  0
   -0.4237    3.2466    1.0612 H   0  0  0  0  0  0  0  0  0  0  0  0
   -0.0005    1.3995    0.0017 C   0  0  0  0  0  0  0  0  0  0  0  0
   -1.1981    0.6923   -0.0032 C   0  0  0  0  0  0  0  0  0  0  0  0
   -2.0637    1.1859   -0.0107 H   0  0  0  0  0  0  0  0  0  0  0  0
   -1.2059   -0.6944   -0.0000 C   0  0  0  0  0  0  0  0  0  0  0  0
   -2.0803   -1.1906    0.0017 H   0  0  0  0  0  0  0  0  0  0  0  0
    0.0002   -1.3937    0.0030 C   0  0  0  0  0  0  0  0  0  0  0  0
   -0.0048   -2.3906    0.0067 H   0  0  0  0  0  0  0  0  0  0  0  0
    1.2059   -0.6964   -0.0000 C   0  0  0  0  0  0  0  0  0  0  0  0
    2.0841   -1.1952   -0.0002 H   0  0  0  0  0  0  0  0  0  0  0  0
    1.1984    0.6927   -0.0014 C   0  0  0  0  0  0  0  0  0  0  0  0
    2.0653    1.1925   -0.0056 H   0  0  0  0  0  0  0  0  0  0  0  0
  1  5  1  0
  5  8  1  0
  1  2  1  0
  1  3  1  0
  1  4  1  0
  5  6  1  0
  5  7  1  0
  8  9  1  0
  8 10  1  0
  8 11  1  0
 12 16  1  0
 16 17  2  0
 17 19  1  0
 19 21  2  0
 21 23  1  0
 23 25  2  0
 25 16  1  0
 12 13  1  0
 12 14  1  0
 12 15  1  0
 17 18  1  0
 19 20  1  0
 21 22  1  0
 23 24  1  0
 25 26  1  0
M  CHG  1   8   1
M  END
>  <PDB_ID>  (699) 
pdb1jqp

>  <RESIDUE_NAME>  (699) 
LYS   PHE

>  <FRAG_NAME>  (699) 
ETAM   MBZ

>  <FRAG_ATOM_NUM>  (699) 
fragi: 11  fragj: 15

>  <atom.prop.CHAIN_ID>  (699) 
A A A A A A A A A A A Z Z Z Z Z Z Z Z Z Z Z Z Z Z Z

>  <atom.prop.IS_HEAVY_ATOM>  (699) 
1 0 0 0 1 0 0 1 0 0 0 1 0 0 0 1 1 0 1 0 1 0 1 0 1 0

>  <DIFUSE_FUNC_ATOM>  (699) 
n/a

>  <FINAL_SINGLE_POINT_ENERGY>  (699) 
0

>  <NONCOV_INTER_ENERGY_QM>  (699) 
0

>  <FF_Energy>  (699) 
2.02

>  <QM_Energy>  (699) 
-3.2

>  <source>  (699) 
ETAM_MBZ

>  <Index>  (699) 
6936

$$$$
ETAM-pdb2oif-H-LYS-66:MBZ-pdb2oif-H-PHE-53
     RDKit          3D

 26 25  0  0  0  0  0  0  0  0999 V2000
    0.6742    1.3585   -4.5892 C   0  0  0  0  0  0  0  0  0  0  0  0
    0.1504    1.0517   -5.3774 H   0  0  0  0  0  0  0  0  0  0  0  0
    1.0598    2.2593   -4.7585 H   0  0  0  0  0  0  0  0  0  0  0  0
   -0.0006    1.4284   -3.7360 H   0  0  0  0  0  0  0  0  0  0  0  0
    1.8233    0.3703   -4.3488 C   0  0  0  0  0  0  0  0  0  0  0  0
    1.4566   -0.5559   -4.3802 H   0  0  0  0  0  0  0  0  0  0  0  0
    2.5028    0.4927   -5.0683 H   0  0  0  0  0  0  0  0  0  0  0  0
    2.4455    0.6169   -3.0277 N   0  0  0  0  0  4  0  0  0  0  0  0
    2.8180    1.5451   -3.0007 H   0  0  0  0  0  0  0  0  0  0  0  0
    1.7566    0.5151   -2.3082 H   0  0  0  0  0  0  0  0  0  0  0  0
    3.1834   -0.0415   -2.8764 H   0  0  0  0  0  0  0  0  0  0  0  0
   -0.0080    2.9449   -0.0019 C   0  0  0  0  0  0  0  0  0  0  0  0
   -0.7974    3.2356   -0.5112 H   0  0  0  0  0  0  0  0  0  0  0  0
    0.8325    3.2485   -0.4139 H   0  0  0  0  0  0  0  0  0  0  0  0
   -0.0711    3.3799    0.9956 H   0  0  0  0  0  0  0  0  0  0  0  0
    0.0038    1.4199    0.0031 C   0  0  0  0  0  0  0  0  0  0  0  0
   -1.2066    0.6968   -0.0030 C   0  0  0  0  0  0  0  0  0  0  0  0
   -2.0704    1.1838   -0.0107 H   0  0  0  0  0  0  0  0  0  0  0  0
   -1.2150   -0.7141   -0.0000 C   0  0  0  0  0  0  0  0  0  0  0  0
   -2.0905   -1.1987   -0.0000 H   0  0  0  0  0  0  0  0  0  0  0  0
   -0.0071   -1.4147    0.0049 C   0  0  0  0  0  0  0  0  0  0  0  0
   -0.0059   -2.4098    0.0116 H   0  0  0  0  0  0  0  0  0  0  0  0
    1.2150   -0.7115    0.0000 C   0  0  0  0  0  0  0  0  0  0  0  0
    2.0899   -1.1953    0.0012 H   0  0  0  0  0  0  0  0  0  0  0  0
    1.2099    0.7236   -0.0049 C   0  0  0  0  0  0  0  0  0  0  0  0
    2.0746    1.2012   -0.0146 H   0  0  0  0  0  0  0  0  0  0  0  0
  1  5  1  0
  5  8  1  0
  1  2  1  0
  1  3  1  0
  1  4  1  0
  5  6  1  0
  5  7  1  0
  8  9  1  0
  8 10  1  0
  8 11  1  0
 12 16  1  0
 16 17  2  0
 17 19  1  0
 19 21  2  0
 21 23  1  0
 23 25  2  0
 25 16  1  0
 12 13  1  0
 12 14  1  0
 12 15  1  0
 17 18  1  0
 19 20  1  0
 21 22  1  0
 23 24  1  0
 25 26  1  0
M  CHG  1   8   1
M  END
>  <PDB_ID>  (700) 
pdb2oif

>  <RESIDUE_NAME>  (700) 
LYS   PHE

>  <FRAG_NAME>  (700) 
ETAM   MBZ

>  <FRAG_ATOM_NUM>  (700) 
fragi: 11  fragj: 15

>  <atom.prop.CHAIN_ID>  (700) 
A A A A A A A A A A A Z Z Z Z Z Z Z Z Z Z Z Z Z Z Z

>  <atom.prop.IS_HEAVY_ATOM>  (700) 
1 0 0 0 1 0 0 1 0 0 0 1 0 0 0 1 1 0 1 0 1 0 1 0 1 0

>  <DIFUSE_FUNC_ATOM>  (700) 
n/a

>  <FINAL_SINGLE_POINT_ENERGY>  (700) 
0

>  <NONCOV_INTER_ENERGY_QM>  (700) 
0

>  <FF_Energy>  (700) 
-5.11

>  <QM_Energy>  (700) 
-11.96

>  <source>  (700) 
ETAM_MBZ

>  <Index>  (700) 
6945

$$$$
ETAM-pdb2oi2-A-LYS-137:MBZ-pdb2oi2-A-PHE-153
     RDKit          3D

 26 25  0  0  0  0  0  0  0  0999 V2000
    2.3601   -0.5456   -3.4641 C   0  0  0  0  0  0  0  0  0  0  0  0
    3.1861   -0.3046   -3.9735 H   0  0  0  0  0  0  0  0  0  0  0  0
    2.4793   -0.3012   -2.5020 H   0  0  0  0  0  0  0  0  0  0  0  0
    1.5165    0.0117   -3.8713 H   0  0  0  0  0  0  0  0  0  0  0  0
    2.1508   -2.0336   -3.5608 C   0  0  0  0  0  0  0  0  0  0  0  0
    2.0111   -2.2884   -4.5323 H   0  0  0  0  0  0  0  0  0  0  0  0
    2.9876   -2.5101   -3.2423 H   0  0  0  0  0  0  0  0  0  0  0  0
    0.9849   -2.5442   -2.7656 N   0  0  0  0  0  4  0  0  0  0  0  0
    1.3211   -3.1466   -2.0453 H   0  0  0  0  0  0  0  0  0  0  0  0
    0.5016   -1.7703   -2.3631 H   0  0  0  0  0  0  0  0  0  0  0  0
    0.3739   -3.0481   -3.3715 H   0  0  0  0  0  0  0  0  0  0  0  0
   -0.0050    2.9555   -0.0139 C   0  0  0  0  0  0  0  0  0  0  0  0
   -0.9078    3.2496   -0.2835 H   0  0  0  0  0  0  0  0  0  0  0  0
    0.6820    3.2498   -0.6577 H   0  0  0  0  0  0  0  0  0  0  0  0
    0.2223    3.4088    0.9510 H   0  0  0  0  0  0  0  0  0  0  0  0
   -0.0010    1.4313   -0.0009 C   0  0  0  0  0  0  0  0  0  0  0  0
   -1.1949    0.7183    0.0024 C   0  0  0  0  0  0  0  0  0  0  0  0
   -2.0673    1.1870    0.0057 H   0  0  0  0  0  0  0  0  0  0  0  0
   -1.1984   -0.7142   -0.0000 C   0  0  0  0  0  0  0  0  0  0  0  0
   -2.0825   -1.1879   -0.0028 H   0  0  0  0  0  0  0  0  0  0  0  0
    0.0012   -1.4265    0.0028 C   0  0  0  0  0  0  0  0  0  0  0  0
   -0.0068   -2.4168    0.0063 H   0  0  0  0  0  0  0  0  0  0  0  0
    1.1984   -0.7216   -0.0000 C   0  0  0  0  0  0  0  0  0  0  0  0
    2.0873   -1.1976    0.0025 H   0  0  0  0  0  0  0  0  0  0  0  0
    1.1946    0.7126   -0.0043 C   0  0  0  0  0  0  0  0  0  0  0  0
    2.0690    1.1870   -0.0106 H   0  0  0  0  0  0  0  0  0  0  0  0
  1  5  1  0
  5  8  1  0
  1  2  1  0
  1  3  1  0
  1  4  1  0
  5  6  1  0
  5  7  1  0
  8  9  1  0
  8 10  1  0
  8 11  1  0
 12 16  1  0
 16 17  2  0
 17 19  1  0
 19 21  2  0
 21 23  1  0
 23 25  2  0
 25 16  1  0
 12 13  1  0
 12 14  1  0
 12 15  1  0
 17 18  1  0
 19 20  1  0
 21 22  1  0
 23 24  1  0
 25 26  1  0
M  CHG  1   8   1
M  END
>  <PDB_ID>  (701) 
pdb2oi2

>  <RESIDUE_NAME>  (701) 
LYS   PHE

>  <FRAG_NAME>  (701) 
ETAM   MBZ

>  <FRAG_ATOM_NUM>  (701) 
fragi: 11  fragj: 15

>  <atom.prop.CHAIN_ID>  (701) 
A A A A A A A A A A A Z Z Z Z Z Z Z Z Z Z Z Z Z Z Z

>  <atom.prop.IS_HEAVY_ATOM>  (701) 
1 0 0 0 1 0 0 1 0 0 0 1 0 0 0 1 1 0 1 0 1 0 1 0 1 0

>  <DIFUSE_FUNC_ATOM>  (701) 
n/a

>  <FINAL_SINGLE_POINT_ENERGY>  (701) 
0

>  <NONCOV_INTER_ENERGY_QM>  (701) 
0

>  <FF_Energy>  (701) 
-3.91

>  <QM_Energy>  (701) 
-11.1

>  <source>  (701) 
ETAM_MBZ

>  <Index>  (701) 
6948

$$$$
ETAM-pdb1jqb-B-LYS-2338:MBZ-pdb1jqb-B-PHE-2045
     RDKit          3D

 26 25  0  0  0  0  0  0  0  0999 V2000
    1.2442   -0.5212    3.3394 C   0  0  0  0  0  0  0  0  0  0  0  0
    0.5892    0.2013    3.5369 H   0  0  0  0  0  0  0  0  0  0  0  0
    1.2277   -0.7472    2.3711 H   0  0  0  0  0  0  0  0  0  0  0  0
    2.2427   -0.1732    3.6041 H   0  0  0  0  0  0  0  0  0  0  0  0
    0.8545   -1.7602    4.1337 C   0  0  0  0  0  0  0  0  0  0  0  0
    1.4831   -2.5060    3.9013 H   0  0  0  0  0  0  0  0  0  0  0  0
    0.9357   -1.5578    5.1120 H   0  0  0  0  0  0  0  0  0  0  0  0
   -0.5431   -2.1892    3.8377 N   0  0  0  0  0  4  0  0  0  0  0  0
   -1.1767   -1.6628    4.4036 H   0  0  0  0  0  0  0  0  0  0  0  0
   -0.7408   -2.0266    2.8719 H   0  0  0  0  0  0  0  0  0  0  0  0
   -0.6394   -3.1623    4.0415 H   0  0  0  0  0  0  0  0  0  0  0  0
    0.0003    2.9054   -0.0190 C   0  0  0  0  0  0  0  0  0  0  0  0
    0.9394    3.2116   -0.0362 H   0  0  0  0  0  0  0  0  0  0  0  0
   -0.4688    3.2226    0.7912 H   0  0  0  0  0  0  0  0  0  0  0  0
   -0.5055    3.3333   -0.8845 H   0  0  0  0  0  0  0  0  0  0  0  0
   -0.0002    1.4038   -0.0009 C   0  0  0  0  0  0  0  0  0  0  0  0
   -1.1967    0.6951    0.0009 C   0  0  0  0  0  0  0  0  0  0  0  0
   -2.0644    1.1846    0.0015 H   0  0  0  0  0  0  0  0  0  0  0  0
   -1.2038   -0.6998   -0.0000 C   0  0  0  0  0  0  0  0  0  0  0  0
   -2.0791   -1.1917    0.0004 H   0  0  0  0  0  0  0  0  0  0  0  0
    0.0003   -1.3979    0.0001 C   0  0  0  0  0  0  0  0  0  0  0  0
   -0.0024   -2.3949   -0.0002 H   0  0  0  0  0  0  0  0  0  0  0  0
    1.2038   -0.6980   -0.0000 C   0  0  0  0  0  0  0  0  0  0  0  0
    2.0843   -1.1939    0.0008 H   0  0  0  0  0  0  0  0  0  0  0  0
    1.1967    0.6968   -0.0000 C   0  0  0  0  0  0  0  0  0  0  0  0
    2.0649    1.1926    0.0000 H   0  0  0  0  0  0  0  0  0  0  0  0
  1  5  1  0
  5  8  1  0
  1  2  1  0
  1  3  1  0
  1  4  1  0
  5  6  1  0
  5  7  1  0
  8  9  1  0
  8 10  1  0
  8 11  1  0
 12 16  1  0
 16 17  2  0
 17 19  1  0
 19 21  2  0
 21 23  1  0
 23 25  2  0
 25 16  1  0
 12 13  1  0
 12 14  1  0
 12 15  1  0
 17 18  1  0
 19 20  1  0
 21 22  1  0
 23 24  1  0
 25 26  1  0
M  CHG  1   8   1
M  END
>  <PDB_ID>  (702) 
pdb1jqb

>  <RESIDUE_NAME>  (702) 
LYS   PHE

>  <FRAG_NAME>  (702) 
ETAM   MBZ

>  <FRAG_ATOM_NUM>  (702) 
fragi: 11  fragj: 15

>  <atom.prop.CHAIN_ID>  (702) 
A A A A A A A A A A A Z Z Z Z Z Z Z Z Z Z Z Z Z Z Z

>  <atom.prop.IS_HEAVY_ATOM>  (702) 
1 0 0 0 1 0 0 1 0 0 0 1 0 0 0 1 1 0 1 0 1 0 1 0 1 0

>  <DIFUSE_FUNC_ATOM>  (702) 
n/a

>  <FINAL_SINGLE_POINT_ENERGY>  (702) 
0

>  <NONCOV_INTER_ENERGY_QM>  (702) 
0

>  <FF_Energy>  (702) 
-2.42

>  <QM_Energy>  (702) 
-8.73

>  <source>  (702) 
ETAM_MBZ

>  <Index>  (702) 
6955

$$$$
ETAM-pdb2ok9-A-LYS-122:MBZ-pdb2ok9-B-PHE-3
     RDKit          3D

 26 25  0  0  0  0  0  0  0  0999 V2000
   -4.5953    1.4188    0.9012 C   0  0  0  0  0  0  0  0  0  0  0  0
   -4.6215    2.3554    1.2260 H   0  0  0  0  0  0  0  0  0  0  0  0
   -3.6994    1.0191    1.0469 H   0  0  0  0  0  0  0  0  0  0  0  0
   -5.3447    0.8320    1.4324 H   0  0  0  0  0  0  0  0  0  0  0  0
   -4.8846    1.4190   -0.5913 C   0  0  0  0  0  0  0  0  0  0  0  0
   -4.9087    0.4716   -0.9194 H   0  0  0  0  0  0  0  0  0  0  0  0
   -5.7804    1.8418   -0.7512 H   0  0  0  0  0  0  0  0  0  0  0  0
   -3.8471    2.1731   -1.3596 N   0  0  0  0  0  4  0  0  0  0  0  0
   -4.1159    3.1326   -1.4187 H   0  0  0  0  0  0  0  0  0  0  0  0
   -2.9695    2.0970   -0.8884 H   0  0  0  0  0  0  0  0  0  0  0  0
   -3.7722    1.7862   -2.2770 H   0  0  0  0  0  0  0  0  0  0  0  0
    0.0060    2.9214    0.0623 C   0  0  0  0  0  0  0  0  0  0  0  0
   -0.8810    3.2389   -0.2313 H   0  0  0  0  0  0  0  0  0  0  0  0
    0.7234    3.2433   -0.5339 H   0  0  0  0  0  0  0  0  0  0  0  0
    0.1934    3.3172    1.0604 H   0  0  0  0  0  0  0  0  0  0  0  0
   -0.0013    1.4109    0.0027 C   0  0  0  0  0  0  0  0  0  0  0  0
   -1.1995    0.7004   -0.0004 C   0  0  0  0  0  0  0  0  0  0  0  0
   -2.0670    1.1867   -0.0044 H   0  0  0  0  0  0  0  0  0  0  0  0
   -1.2039   -0.6989    0.0000 C   0  0  0  0  0  0  0  0  0  0  0  0
   -2.0792   -1.1905    0.0014 H   0  0  0  0  0  0  0  0  0  0  0  0
    0.0035   -1.4016    0.0002 C   0  0  0  0  0  0  0  0  0  0  0  0
   -0.0059   -2.3988    0.0002 H   0  0  0  0  0  0  0  0  0  0  0  0
    1.2039   -0.7068    0.0000 C   0  0  0  0  0  0  0  0  0  0  0  0
    2.0858   -1.1977    0.0028 H   0  0  0  0  0  0  0  0  0  0  0  0
    1.1973    0.6960   -0.0025 C   0  0  0  0  0  0  0  0  0  0  0  0
    2.0669    1.1882   -0.0094 H   0  0  0  0  0  0  0  0  0  0  0  0
  1  5  1  0
  5  8  1  0
  1  2  1  0
  1  3  1  0
  1  4  1  0
  5  6  1  0
  5  7  1  0
  8  9  1  0
  8 10  1  0
  8 11  1  0
 12 16  1  0
 16 17  2  0
 17 19  1  0
 19 21  2  0
 21 23  1  0
 23 25  2  0
 25 16  1  0
 12 13  1  0
 12 14  1  0
 12 15  1  0
 17 18  1  0
 19 20  1  0
 21 22  1  0
 23 24  1  0
 25 26  1  0
M  CHG  1   8   1
M  END
>  <PDB_ID>  (703) 
pdb2ok9

>  <RESIDUE_NAME>  (703) 
LYS   PHE

>  <FRAG_NAME>  (703) 
ETAM   MBZ

>  <FRAG_ATOM_NUM>  (703) 
fragi: 11  fragj: 15

>  <atom.prop.CHAIN_ID>  (703) 
A A A A A A A A A A A Z Z Z Z Z Z Z Z Z Z Z Z Z Z Z

>  <atom.prop.IS_HEAVY_ATOM>  (703) 
1 0 0 0 1 0 0 1 0 0 0 1 0 0 0 1 1 0 1 0 1 0 1 0 1 0

>  <DIFUSE_FUNC_ATOM>  (703) 
n/a

>  <FINAL_SINGLE_POINT_ENERGY>  (703) 
0

>  <NONCOV_INTER_ENERGY_QM>  (703) 
0

>  <FF_Energy>  (703) 
3.15

>  <QM_Energy>  (703) 
-2.08

>  <source>  (703) 
ETAM_MBZ

>  <Index>  (703) 
6957

$$$$
ETAM-pdb1jqb-B-LYS-2318:MBZ-pdb1jqb-B-PHE-2209
     RDKit          3D

 26 25  0  0  0  0  0  0  0  0999 V2000
    0.3749    0.0653   -3.9580 C   0  0  0  0  0  0  0  0  0  0  0  0
    0.2954    1.0387   -3.7623 H   0  0  0  0  0  0  0  0  0  0  0  0
    0.4796   -0.0799   -4.9377 H   0  0  0  0  0  0  0  0  0  0  0  0
    1.2527   -0.3283   -3.4455 H   0  0  0  0  0  0  0  0  0  0  0  0
   -0.9123   -0.6236   -3.5042 C   0  0  0  0  0  0  0  0  0  0  0  0
   -0.9416   -0.6227   -2.4984 H   0  0  0  0  0  0  0  0  0  0  0  0
   -1.6986   -0.0964   -3.8451 H   0  0  0  0  0  0  0  0  0  0  0  0
   -1.0203   -2.0312   -3.9943 N   0  0  0  0  0  4  0  0  0  0  0  0
   -1.4477   -2.5928   -3.2875 H   0  0  0  0  0  0  0  0  0  0  0  0
   -1.5779   -2.0486   -4.8221 H   0  0  0  0  0  0  0  0  0  0  0  0
   -0.1066   -2.3796   -4.1958 H   0  0  0  0  0  0  0  0  0  0  0  0
    0.0017    2.9201    0.0321 C   0  0  0  0  0  0  0  0  0  0  0  0
   -0.7171    3.2371   -0.5632 H   0  0  0  0  0  0  0  0  0  0  0  0
    0.8894    3.2274   -0.2705 H   0  0  0  0  0  0  0  0  0  0  0  0
   -0.1768    3.3353    1.0240 H   0  0  0  0  0  0  0  0  0  0  0  0
   -0.0018    1.4084    0.0003 C   0  0  0  0  0  0  0  0  0  0  0  0
   -1.2016    0.7000    0.0005 C   0  0  0  0  0  0  0  0  0  0  0  0
   -2.0676    1.1858    0.0000 H   0  0  0  0  0  0  0  0  0  0  0  0
   -1.2074   -0.7024    0.0000 C   0  0  0  0  0  0  0  0  0  0  0  0
   -2.0791   -1.1940    0.0001 H   0  0  0  0  0  0  0  0  0  0  0  0
    0.0052   -1.4030    0.0010 C   0  0  0  0  0  0  0  0  0  0  0  0
    0.0006   -2.3982    0.0018 H   0  0  0  0  0  0  0  0  0  0  0  0
    1.2074   -0.6993   -0.0000 C   0  0  0  0  0  0  0  0  0  0  0  0
    2.0896   -1.1932    0.0016 H   0  0  0  0  0  0  0  0  0  0  0  0
    1.1983    0.6964   -0.0018 C   0  0  0  0  0  0  0  0  0  0  0  0
    2.0660    1.1940   -0.0050 H   0  0  0  0  0  0  0  0  0  0  0  0
  1  5  1  0
  5  8  1  0
  1  2  1  0
  1  3  1  0
  1  4  1  0
  5  6  1  0
  5  7  1  0
  8  9  1  0
  8 10  1  0
  8 11  1  0
 12 16  1  0
 16 17  2  0
 17 19  1  0
 19 21  2  0
 21 23  1  0
 23 25  2  0
 25 16  1  0
 12 13  1  0
 12 14  1  0
 12 15  1  0
 17 18  1  0
 19 20  1  0
 21 22  1  0
 23 24  1  0
 25 26  1  0
M  CHG  1   8   1
M  END
>  <PDB_ID>  (704) 
pdb1jqb

>  <RESIDUE_NAME>  (704) 
LYS   PHE

>  <FRAG_NAME>  (704) 
ETAM   MBZ

>  <FRAG_ATOM_NUM>  (704) 
fragi: 11  fragj: 15

>  <atom.prop.CHAIN_ID>  (704) 
A A A A A A A A A A A Z Z Z Z Z Z Z Z Z Z Z Z Z Z Z

>  <atom.prop.IS_HEAVY_ATOM>  (704) 
1 0 0 0 1 0 0 1 0 0 0 1 0 0 0 1 1 0 1 0 1 0 1 0 1 0

>  <DIFUSE_FUNC_ATOM>  (704) 
n/a

>  <FINAL_SINGLE_POINT_ENERGY>  (704) 
0

>  <NONCOV_INTER_ENERGY_QM>  (704) 
0

>  <FF_Energy>  (704) 
-3.91

>  <QM_Energy>  (704) 
-9.19

>  <source>  (704) 
ETAM_MBZ

>  <Index>  (704) 
6974

$$$$
ETAM-pdb1js4-A-LYS-263:MBZ-pdb1js4-A-PHE-64
     RDKit          3D

 26 25  0  0  0  0  0  0  0  0999 V2000
   -2.2938   -5.0228    3.4593 C   0  0  0  0  0  0  0  0  0  0  0  0
   -1.4684   -5.5767    3.3978 H   0  0  0  0  0  0  0  0  0  0  0  0
   -2.7598   -5.0016    2.5798 H   0  0  0  0  0  0  0  0  0  0  0  0
   -2.9591   -5.4561    4.2062 H   0  0  0  0  0  0  0  0  0  0  0  0
   -1.9118   -3.6235    3.8393 C   0  0  0  0  0  0  0  0  0  0  0  0
   -2.6534   -3.2096    4.3673 H   0  0  0  0  0  0  0  0  0  0  0  0
   -1.0800   -3.6460    4.3938 H   0  0  0  0  0  0  0  0  0  0  0  0
   -1.6687   -2.8220    2.6274 N   0  0  0  0  0  4  0  0  0  0  0  0
   -0.7466   -2.4300    2.6588 H   0  0  0  0  0  0  0  0  0  0  0  0
   -1.7514   -3.4026    1.8147 H   0  0  0  0  0  0  0  0  0  0  0  0
   -2.3399   -2.0794    2.5715 H   0  0  0  0  0  0  0  0  0  0  0  0
    0.0229    2.9138    0.0035 C   0  0  0  0  0  0  0  0  0  0  0  0
    0.0933    3.2170   -0.9361 H   0  0  0  0  0  0  0  0  0  0  0  0
    0.8030    3.2108    0.5349 H   0  0  0  0  0  0  0  0  0  0  0  0
   -0.8634    3.3809    0.4330 H   0  0  0  0  0  0  0  0  0  0  0  0
    0.0018    1.4036    0.0078 C   0  0  0  0  0  0  0  0  0  0  0  0
   -1.1957    0.6975   -0.0014 C   0  0  0  0  0  0  0  0  0  0  0  0
   -2.0613    1.1875   -0.0106 H   0  0  0  0  0  0  0  0  0  0  0  0
   -1.2019   -0.6951    0.0000 C   0  0  0  0  0  0  0  0  0  0  0  0
   -2.0805   -1.1863    0.0073 H   0  0  0  0  0  0  0  0  0  0  0  0
   -0.0035   -1.3947   -0.0069 C   0  0  0  0  0  0  0  0  0  0  0  0
   -0.0083   -2.3925   -0.0168 H   0  0  0  0  0  0  0  0  0  0  0  0
    1.2019   -0.6996   -0.0000 C   0  0  0  0  0  0  0  0  0  0  0  0
    2.0804   -1.1999    0.0063 H   0  0  0  0  0  0  0  0  0  0  0  0
    1.1974    0.6884    0.0005 C   0  0  0  0  0  0  0  0  0  0  0  0
    2.0667    1.1858   -0.0057 H   0  0  0  0  0  0  0  0  0  0  0  0
  1  5  1  0
  5  8  1  0
  1  2  1  0
  1  3  1  0
  1  4  1  0
  5  6  1  0
  5  7  1  0
  8  9  1  0
  8 10  1  0
  8 11  1  0
 12 16  1  0
 16 17  2  0
 17 19  1  0
 19 21  2  0
 21 23  1  0
 23 25  2  0
 25 16  1  0
 12 13  1  0
 12 14  1  0
 12 15  1  0
 17 18  1  0
 19 20  1  0
 21 22  1  0
 23 24  1  0
 25 26  1  0
M  CHG  1   8   1
M  END
>  <PDB_ID>  (705) 
pdb1js4

>  <RESIDUE_NAME>  (705) 
LYS   PHE

>  <FRAG_NAME>  (705) 
ETAM   MBZ

>  <FRAG_ATOM_NUM>  (705) 
fragi: 11  fragj: 15

>  <atom.prop.CHAIN_ID>  (705) 
A A A A A A A A A A A Z Z Z Z Z Z Z Z Z Z Z Z Z Z Z

>  <atom.prop.IS_HEAVY_ATOM>  (705) 
1 0 0 0 1 0 0 1 0 0 0 1 0 0 0 1 1 0 1 0 1 0 1 0 1 0

>  <DIFUSE_FUNC_ATOM>  (705) 
n/a

>  <FINAL_SINGLE_POINT_ENERGY>  (705) 
0

>  <NONCOV_INTER_ENERGY_QM>  (705) 
0

>  <FF_Energy>  (705) 
-1.91

>  <QM_Energy>  (705) 
-8.28

>  <source>  (705) 
ETAM_MBZ

>  <Index>  (705) 
6991

$$$$
ETAM-pdb1ju2-A-LYS-148:MBZ-pdb1ju2-A-PHE-173
     RDKit          3D

 26 25  0  0  0  0  0  0  0  0999 V2000
    1.1377    0.3333   -4.0722 C   0  0  0  0  0  0  0  0  0  0  0  0
    1.8083    0.1892   -3.3529 H   0  0  0  0  0  0  0  0  0  0  0  0
    1.4846    0.0025   -4.9423 H   0  0  0  0  0  0  0  0  0  0  0  0
    0.2304   -0.2165   -3.8218 H   0  0  0  0  0  0  0  0  0  0  0  0
    0.8652    1.8228   -4.1918 C   0  0  0  0  0  0  0  0  0  0  0  0
    1.7288    2.2953   -4.3997 H   0  0  0  0  0  0  0  0  0  0  0  0
    0.2279    1.9765   -4.9559 H   0  0  0  0  0  0  0  0  0  0  0  0
    0.2836    2.3933   -2.9494 N   0  0  0  0  0  4  0  0  0  0  0  0
    0.7776    3.2273   -2.7027 H   0  0  0  0  0  0  0  0  0  0  0  0
   -0.6809    2.6100   -3.1022 H   0  0  0  0  0  0  0  0  0  0  0  0
    0.3632    1.7275   -2.2079 H   0  0  0  0  0  0  0  0  0  0  0  0
   -0.0000    2.9090    0.0732 C   0  0  0  0  0  0  0  0  0  0  0  0
   -0.6114    3.2477   -0.6222 H   0  0  0  0  0  0  0  0  0  0  0  0
    0.9242    3.2208   -0.0657 H   0  0  0  0  0  0  0  0  0  0  0  0
   -0.3419    3.2907    1.0352 H   0  0  0  0  0  0  0  0  0  0  0  0
    0.0005    1.4052    0.0009 C   0  0  0  0  0  0  0  0  0  0  0  0
   -1.1967    0.6938   -0.0009 C   0  0  0  0  0  0  0  0  0  0  0  0
   -2.0640    1.1841   -0.0045 H   0  0  0  0  0  0  0  0  0  0  0  0
   -1.2042   -0.7007   -0.0000 C   0  0  0  0  0  0  0  0  0  0  0  0
   -2.0799   -1.1924    0.0009 H   0  0  0  0  0  0  0  0  0  0  0  0
   -0.0005   -1.3988    0.0013 C   0  0  0  0  0  0  0  0  0  0  0  0
   -0.0024   -2.3950    0.0031 H   0  0  0  0  0  0  0  0  0  0  0  0
    1.2042   -0.6976    0.0000 C   0  0  0  0  0  0  0  0  0  0  0  0
    2.0850   -1.1926    0.0015 H   0  0  0  0  0  0  0  0  0  0  0  0
    1.1967    0.6983   -0.0014 C   0  0  0  0  0  0  0  0  0  0  0  0
    2.0653    1.1936   -0.0046 H   0  0  0  0  0  0  0  0  0  0  0  0
  1  5  1  0
  5  8  1  0
  1  2  1  0
  1  3  1  0
  1  4  1  0
  5  6  1  0
  5  7  1  0
  8  9  1  0
  8 10  1  0
  8 11  1  0
 12 16  1  0
 16 17  2  0
 17 19  1  0
 19 21  2  0
 21 23  1  0
 23 25  2  0
 25 16  1  0
 12 13  1  0
 12 14  1  0
 12 15  1  0
 17 18  1  0
 19 20  1  0
 21 22  1  0
 23 24  1  0
 25 26  1  0
M  CHG  1   8   1
M  END
>  <PDB_ID>  (706) 
pdb1ju2

>  <RESIDUE_NAME>  (706) 
LYS   PHE

>  <FRAG_NAME>  (706) 
ETAM   MBZ

>  <FRAG_ATOM_NUM>  (706) 
fragi: 11  fragj: 15

>  <atom.prop.CHAIN_ID>  (706) 
A A A A A A A A A A A Z Z Z Z Z Z Z Z Z Z Z Z Z Z Z

>  <atom.prop.IS_HEAVY_ATOM>  (706) 
1 0 0 0 1 0 0 1 0 0 0 1 0 0 0 1 1 0 1 0 1 0 1 0 1 0

>  <DIFUSE_FUNC_ATOM>  (706) 
n/a

>  <FINAL_SINGLE_POINT_ENERGY>  (706) 
0

>  <NONCOV_INTER_ENERGY_QM>  (706) 
0

>  <FF_Energy>  (706) 
-5.5

>  <QM_Energy>  (706) 
-12.24

>  <source>  (706) 
ETAM_MBZ

>  <Index>  (706) 
7001

$$$$
ETAM-pdb2odf-F-LYS-41:MBZ-pdb2odf-F-PHE-7
     RDKit          3D

 26 25  0  0  0  0  0  0  0  0999 V2000
    1.8390    0.2169   -4.4687 C   0  0  0  0  0  0  0  0  0  0  0  0
    1.9942    1.1774   -4.6481 H   0  0  0  0  0  0  0  0  0  0  0  0
    1.1954    0.0885   -3.7289 H   0  0  0  0  0  0  0  0  0  0  0  0
    1.4420   -0.2518   -5.3691 H   0  0  0  0  0  0  0  0  0  0  0  0
    3.1845   -0.4213   -4.0564 C   0  0  0  0  0  0  0  0  0  0  0  0
    3.1884   -1.3810   -4.3621 H   0  0  0  0  0  0  0  0  0  0  0  0
    3.9272    0.0649   -4.5330 H   0  0  0  0  0  0  0  0  0  0  0  0
    3.4495   -0.3808   -2.5718 N   0  0  0  0  0  4  0  0  0  0  0  0
    3.3526    0.5586   -2.2531 H   0  0  0  0  0  0  0  0  0  0  0  0
    2.7901   -0.9687   -2.1111 H   0  0  0  0  0  0  0  0  0  0  0  0
    4.3753   -0.7061   -2.4014 H   0  0  0  0  0  0  0  0  0  0  0  0
   -0.0053    2.8973    0.0748 C   0  0  0  0  0  0  0  0  0  0  0  0
    0.7887    3.1791    0.6058 H   0  0  0  0  0  0  0  0  0  0  0  0
   -0.8431    3.1734    0.5385 H   0  0  0  0  0  0  0  0  0  0  0  0
    0.0321    3.4193   -0.8814 H   0  0  0  0  0  0  0  0  0  0  0  0
    0.0032    1.3941   -0.0038 C   0  0  0  0  0  0  0  0  0  0  0  0
   -1.1876    0.6784    0.0054 C   0  0  0  0  0  0  0  0  0  0  0  0
   -2.0578    1.1732    0.0149 H   0  0  0  0  0  0  0  0  0  0  0  0
   -1.1917   -0.6993    0.0000 C   0  0  0  0  0  0  0  0  0  0  0  0
   -2.0741   -1.1939    0.0048 H   0  0  0  0  0  0  0  0  0  0  0  0
   -0.0063   -1.3836   -0.0104 C   0  0  0  0  0  0  0  0  0  0  0  0
    0.0018   -2.3844   -0.0262 H   0  0  0  0  0  0  0  0  0  0  0  0
    1.1917   -0.6833    0.0000 C   0  0  0  0  0  0  0  0  0  0  0  0
    2.0745   -1.1883    0.0032 H   0  0  0  0  0  0  0  0  0  0  0  0
    1.1907    0.6937    0.0088 C   0  0  0  0  0  0  0  0  0  0  0  0
    2.0606    1.1918    0.0239 H   0  0  0  0  0  0  0  0  0  0  0  0
  1  5  1  0
  5  8  1  0
  1  2  1  0
  1  3  1  0
  1  4  1  0
  5  6  1  0
  5  7  1  0
  8  9  1  0
  8 10  1  0
  8 11  1  0
 12 16  1  0
 16 17  2  0
 17 19  1  0
 19 21  2  0
 21 23  1  0
 23 25  2  0
 25 16  1  0
 12 13  1  0
 12 14  1  0
 12 15  1  0
 17 18  1  0
 19 20  1  0
 21 22  1  0
 23 24  1  0
 25 26  1  0
M  CHG  1   8   1
M  END
>  <PDB_ID>  (707) 
pdb2odf

>  <RESIDUE_NAME>  (707) 
LYS   PHE

>  <FRAG_NAME>  (707) 
ETAM   MBZ

>  <FRAG_ATOM_NUM>  (707) 
fragi: 11  fragj: 15

>  <atom.prop.CHAIN_ID>  (707) 
A A A A A A A A A A A Z Z Z Z Z Z Z Z Z Z Z Z Z Z Z

>  <atom.prop.IS_HEAVY_ATOM>  (707) 
1 0 0 0 1 0 0 1 0 0 0 1 0 0 0 1 1 0 1 0 1 0 1 0 1 0

>  <DIFUSE_FUNC_ATOM>  (707) 
n/a

>  <FINAL_SINGLE_POINT_ENERGY>  (707) 
0

>  <NONCOV_INTER_ENERGY_QM>  (707) 
0

>  <FF_Energy>  (707) 
-2.33

>  <QM_Energy>  (707) 
-8.19

>  <source>  (707) 
ETAM_MBZ

>  <Index>  (707) 
7010

$$$$
ETAM-pdb2olj-A-LYS-66:MBZ-pdb2olj-A-PHE-53
     RDKit          3D

 26 25  0  0  0  0  0  0  0  0999 V2000
    0.1639   -2.5412    3.6809 C   0  0  0  0  0  0  0  0  0  0  0  0
    0.8492   -3.0070    4.2247 H   0  0  0  0  0  0  0  0  0  0  0  0
    0.4212   -2.5262    2.7234 H   0  0  0  0  0  0  0  0  0  0  0  0
   -0.7863   -3.0651    3.7847 H   0  0  0  0  0  0  0  0  0  0  0  0
    0.0313   -1.1210    4.1733 C   0  0  0  0  0  0  0  0  0  0  0  0
   -0.2470   -1.1290    5.1306 H   0  0  0  0  0  0  0  0  0  0  0  0
    0.9081   -0.6559    4.0789 H   0  0  0  0  0  0  0  0  0  0  0  0
   -0.9929   -0.4000    3.3721 N   0  0  0  0  0  4  0  0  0  0  0  0
   -1.6167    0.0832    3.9869 H   0  0  0  0  0  0  0  0  0  0  0  0
   -0.5412    0.2581    2.7702 H   0  0  0  0  0  0  0  0  0  0  0  0
   -1.5078   -1.0577    2.8224 H   0  0  0  0  0  0  0  0  0  0  0  0
   -0.0021    2.9016   -0.0596 C   0  0  0  0  0  0  0  0  0  0  0  0
   -0.9099    3.1973   -0.3258 H   0  0  0  0  0  0  0  0  0  0  0  0
    0.6740    3.1845   -0.7273 H   0  0  0  0  0  0  0  0  0  0  0  0
    0.2415    3.3891    0.8844 H   0  0  0  0  0  0  0  0  0  0  0  0
    0.0003    1.4020   -0.0013 C   0  0  0  0  0  0  0  0  0  0  0  0
   -1.1957    0.6930    0.0022 C   0  0  0  0  0  0  0  0  0  0  0  0
   -2.0627    1.1844    0.0047 H   0  0  0  0  0  0  0  0  0  0  0  0
   -1.2006   -0.6951    0.0000 C   0  0  0  0  0  0  0  0  0  0  0  0
   -2.0777   -1.1900    0.0019 H   0  0  0  0  0  0  0  0  0  0  0  0
    0.0004   -1.3942   -0.0019 C   0  0  0  0  0  0  0  0  0  0  0  0
   -0.0062   -2.3923   -0.0054 H   0  0  0  0  0  0  0  0  0  0  0  0
    1.2006   -0.6996   -0.0000 C   0  0  0  0  0  0  0  0  0  0  0  0
    2.0819   -1.1955    0.0020 H   0  0  0  0  0  0  0  0  0  0  0  0
    1.1951    0.6939    0.0011 C   0  0  0  0  0  0  0  0  0  0  0  0
    2.0648    1.1890    0.0027 H   0  0  0  0  0  0  0  0  0  0  0  0
  1  5  1  0
  5  8  1  0
  1  2  1  0
  1  3  1  0
  1  4  1  0
  5  6  1  0
  5  7  1  0
  8  9  1  0
  8 10  1  0
  8 11  1  0
 12 16  1  0
 16 17  2  0
 17 19  1  0
 19 21  2  0
 21 23  1  0
 23 25  2  0
 25 16  1  0
 12 13  1  0
 12 14  1  0
 12 15  1  0
 17 18  1  0
 19 20  1  0
 21 22  1  0
 23 24  1  0
 25 26  1  0
M  CHG  1   8   1
M  END
>  <PDB_ID>  (708) 
pdb2olj

>  <RESIDUE_NAME>  (708) 
LYS   PHE

>  <FRAG_NAME>  (708) 
ETAM   MBZ

>  <FRAG_ATOM_NUM>  (708) 
fragi: 11  fragj: 15

>  <atom.prop.CHAIN_ID>  (708) 
A A A A A A A A A A A Z Z Z Z Z Z Z Z Z Z Z Z Z Z Z

>  <atom.prop.IS_HEAVY_ATOM>  (708) 
1 0 0 0 1 0 0 1 0 0 0 1 0 0 0 1 1 0 1 0 1 0 1 0 1 0

>  <DIFUSE_FUNC_ATOM>  (708) 
n/a

>  <FINAL_SINGLE_POINT_ENERGY>  (708) 
0

>  <NONCOV_INTER_ENERGY_QM>  (708) 
0

>  <FF_Energy>  (708) 
-7.74

>  <QM_Energy>  (708) 
-14.23

>  <source>  (708) 
ETAM_MBZ

>  <Index>  (708) 
7017

$$$$
ETAM-pdb2olc-A-LYS-212:MBZ-pdb2olc-A-PHE-187
     RDKit          3D

 26 25  0  0  0  0  0  0  0  0999 V2000
    0.7920   -1.3908    5.0583 C   0  0  0  0  0  0  0  0  0  0  0  0
    0.6598   -0.4996    5.4936 H   0  0  0  0  0  0  0  0  0  0  0  0
    1.5662   -1.8587    5.4856 H   0  0  0  0  0  0  0  0  0  0  0  0
   -0.1082   -1.9908    5.1907 H   0  0  0  0  0  0  0  0  0  0  0  0
    1.1191   -1.1649    3.5970 C   0  0  0  0  0  0  0  0  0  0  0  0
    1.4868   -2.0072    3.2080 H   0  0  0  0  0  0  0  0  0  0  0  0
    0.2880   -0.9035    3.1097 H   0  0  0  0  0  0  0  0  0  0  0  0
    2.1334   -0.0756    3.4461 N   0  0  0  0  0  4  0  0  0  0  0  0
    1.8448    0.5429    2.7173 H   0  0  0  0  0  0  0  0  0  0  0  0
    2.2051    0.4266    4.3057 H   0  0  0  0  0  0  0  0  0  0  0  0
    3.0171   -0.4803    3.2162 H   0  0  0  0  0  0  0  0  0  0  0  0
    0.0052    2.8934   -0.0012 C   0  0  0  0  0  0  0  0  0  0  0  0
   -0.7146    3.1993   -0.6097 H   0  0  0  0  0  0  0  0  0  0  0  0
    0.8924    3.2001   -0.3201 H   0  0  0  0  0  0  0  0  0  0  0  0
   -0.1703    3.3504    0.9726 H   0  0  0  0  0  0  0  0  0  0  0  0
    0.0035    1.3976    0.0112 C   0  0  0  0  0  0  0  0  0  0  0  0
   -1.1998    0.6831   -0.0096 C   0  0  0  0  0  0  0  0  0  0  0  0
   -2.0619    1.1803   -0.0331 H   0  0  0  0  0  0  0  0  0  0  0  0
   -1.2006   -0.6946    0.0000 C   0  0  0  0  0  0  0  0  0  0  0  0
   -2.0757   -1.1960    0.0101 H   0  0  0  0  0  0  0  0  0  0  0  0
    0.0002   -1.3847   -0.0020 C   0  0  0  0  0  0  0  0  0  0  0  0
   -0.0037   -2.3876   -0.0055 H   0  0  0  0  0  0  0  0  0  0  0  0
    1.2006   -0.6943    0.0000 C   0  0  0  0  0  0  0  0  0  0  0  0
    2.0811   -1.1929    0.0027 H   0  0  0  0  0  0  0  0  0  0  0  0
    1.1961    0.6928    0.0004 C   0  0  0  0  0  0  0  0  0  0  0  0
    2.0656    1.1900   -0.0077 H   0  0  0  0  0  0  0  0  0  0  0  0
  1  5  1  0
  5  8  1  0
  1  2  1  0
  1  3  1  0
  1  4  1  0
  5  6  1  0
  5  7  1  0
  8  9  1  0
  8 10  1  0
  8 11  1  0
 12 16  1  0
 16 17  2  0
 17 19  1  0
 19 21  2  0
 21 23  1  0
 23 25  2  0
 25 16  1  0
 12 13  1  0
 12 14  1  0
 12 15  1  0
 17 18  1  0
 19 20  1  0
 21 22  1  0
 23 24  1  0
 25 26  1  0
M  CHG  1   8   1
M  END
>  <PDB_ID>  (709) 
pdb2olc

>  <RESIDUE_NAME>  (709) 
LYS   PHE

>  <FRAG_NAME>  (709) 
ETAM   MBZ

>  <FRAG_ATOM_NUM>  (709) 
fragi: 11  fragj: 15

>  <atom.prop.CHAIN_ID>  (709) 
A A A A A A A A A A A Z Z Z Z Z Z Z Z Z Z Z Z Z Z Z

>  <atom.prop.IS_HEAVY_ATOM>  (709) 
1 0 0 0 1 0 0 1 0 0 0 1 0 0 0 1 1 0 1 0 1 0 1 0 1 0

>  <DIFUSE_FUNC_ATOM>  (709) 
n/a

>  <FINAL_SINGLE_POINT_ENERGY>  (709) 
0

>  <NONCOV_INTER_ENERGY_QM>  (709) 
0

>  <FF_Energy>  (709) 
-5.57

>  <QM_Energy>  (709) 
-11.09

>  <source>  (709) 
ETAM_MBZ

>  <Index>  (709) 
7020

$$$$
ETAM-pdb1jwi-A-LYS-21:MBZ-pdb1jwi-A-PHE-31
     RDKit          3D

 26 25  0  0  0  0  0  0  0  0999 V2000
    1.1603   -1.2476    3.8257 C   0  0  0  0  0  0  0  0  0  0  0  0
    1.6489   -2.1020    3.6875 H   0  0  0  0  0  0  0  0  0  0  0  0
    0.4952   -1.1039    3.1014 H   0  0  0  0  0  0  0  0  0  0  0  0
    0.6367   -1.2938    4.7806 H   0  0  0  0  0  0  0  0  0  0  0  0
    2.1635   -0.1026    3.7984 C   0  0  0  0  0  0  0  0  0  0  0  0
    1.6758    0.7616    3.9518 H   0  0  0  0  0  0  0  0  0  0  0  0
    2.8283   -0.2348    4.5387 H   0  0  0  0  0  0  0  0  0  0  0  0
    2.8921   -0.0258    2.4967 N   0  0  0  0  0  4  0  0  0  0  0  0
    3.2890   -0.9183    2.2893 H   0  0  0  0  0  0  0  0  0  0  0  0
    2.2518    0.2343    1.7764 H   0  0  0  0  0  0  0  0  0  0  0  0
    3.6177    0.6573    2.5653 H   0  0  0  0  0  0  0  0  0  0  0  0
    0.0002    2.9158   -0.0207 C   0  0  0  0  0  0  0  0  0  0  0  0
    0.8581    3.2252    0.3591 H   0  0  0  0  0  0  0  0  0  0  0  0
   -0.7676    3.2287    0.5170 H   0  0  0  0  0  0  0  0  0  0  0  0
   -0.0958    3.3459   -1.0176 H   0  0  0  0  0  0  0  0  0  0  0  0
   -0.0011    1.4070   -0.0008 C   0  0  0  0  0  0  0  0  0  0  0  0
   -1.1973    0.6975   -0.0002 C   0  0  0  0  0  0  0  0  0  0  0  0
   -2.0648    1.1862   -0.0008 H   0  0  0  0  0  0  0  0  0  0  0  0
   -1.2042   -0.6983    0.0000 C   0  0  0  0  0  0  0  0  0  0  0  0
   -2.0805   -1.1890    0.0007 H   0  0  0  0  0  0  0  0  0  0  0  0
   -0.0007   -1.3994    0.0007 C   0  0  0  0  0  0  0  0  0  0  0  0
   -0.0063   -2.3957    0.0016 H   0  0  0  0  0  0  0  0  0  0  0  0
    1.2042   -0.7015   -0.0000 C   0  0  0  0  0  0  0  0  0  0  0  0
    2.0842   -1.1978    0.0007 H   0  0  0  0  0  0  0  0  0  0  0  0
    1.1991    0.6947    0.0003 C   0  0  0  0  0  0  0  0  0  0  0  0
    2.0668    1.1905    0.0005 H   0  0  0  0  0  0  0  0  0  0  0  0
  1  5  1  0
  5  8  1  0
  1  2  1  0
  1  3  1  0
  1  4  1  0
  5  6  1  0
  5  7  1  0
  8  9  1  0
  8 10  1  0
  8 11  1  0
 12 16  1  0
 16 17  2  0
 17 19  1  0
 19 21  2  0
 21 23  1  0
 23 25  2  0
 25 16  1  0
 12 13  1  0
 12 14  1  0
 12 15  1  0
 17 18  1  0
 19 20  1  0
 21 22  1  0
 23 24  1  0
 25 26  1  0
M  CHG  1   8   1
M  END
>  <PDB_ID>  (710) 
pdb1jwi

>  <RESIDUE_NAME>  (710) 
LYS   PHE

>  <FRAG_NAME>  (710) 
ETAM   MBZ

>  <FRAG_ATOM_NUM>  (710) 
fragi: 11  fragj: 15

>  <atom.prop.CHAIN_ID>  (710) 
A A A A A A A A A A A Z Z Z Z Z Z Z Z Z Z Z Z Z Z Z

>  <atom.prop.IS_HEAVY_ATOM>  (710) 
1 0 0 0 1 0 0 1 0 0 0 1 0 0 0 1 1 0 1 0 1 0 1 0 1 0

>  <DIFUSE_FUNC_ATOM>  (710) 
n/a

>  <FINAL_SINGLE_POINT_ENERGY>  (710) 
0

>  <NONCOV_INTER_ENERGY_QM>  (710) 
0

>  <FF_Energy>  (710) 
-3.23

>  <QM_Energy>  (710) 
-11.22

>  <source>  (710) 
ETAM_MBZ

>  <Index>  (710) 
7046

$$$$
ETAM-pdb2omd-B-LYS-138:MBZ-pdb2omd-B-PHE-134
     RDKit          3D

 26 25  0  0  0  0  0  0  0  0999 V2000
    0.4502    1.4201    3.7076 C   0  0  0  0  0  0  0  0  0  0  0  0
    0.5643    1.6830    2.7592 H   0  0  0  0  0  0  0  0  0  0  0  0
    1.1888    1.7715    4.2658 H   0  0  0  0  0  0  0  0  0  0  0  0
   -0.4959    1.8168    4.0759 H   0  0  0  0  0  0  0  0  0  0  0  0
    0.4598   -0.1003    3.7930 C   0  0  0  0  0  0  0  0  0  0  0  0
    0.2381   -0.3730    4.7350 H   0  0  0  0  0  0  0  0  0  0  0  0
   -0.2502   -0.4638    3.1801 H   0  0  0  0  0  0  0  0  0  0  0  0
    1.7771   -0.6827    3.4137 N   0  0  0  0  0  4  0  0  0  0  0  0
    2.1419   -1.2049    4.1835 H   0  0  0  0  0  0  0  0  0  0  0  0
    1.6580   -1.2858    2.6261 H   0  0  0  0  0  0  0  0  0  0  0  0
    2.4098    0.0546    3.1786 H   0  0  0  0  0  0  0  0  0  0  0  0
   -0.0039    2.9036   -0.0329 C   0  0  0  0  0  0  0  0  0  0  0  0
    0.8565    3.2203    0.3337 H   0  0  0  0  0  0  0  0  0  0  0  0
   -0.7667    3.2217    0.5083 H   0  0  0  0  0  0  0  0  0  0  0  0
   -0.1115    3.3174   -1.0355 H   0  0  0  0  0  0  0  0  0  0  0  0
   -0.0015    1.4034   -0.0002 C   0  0  0  0  0  0  0  0  0  0  0  0
   -1.1972    0.6928    0.0001 C   0  0  0  0  0  0  0  0  0  0  0  0
   -2.0651    1.1815   -0.0013 H   0  0  0  0  0  0  0  0  0  0  0  0
   -1.2035   -0.7009    0.0000 C   0  0  0  0  0  0  0  0  0  0  0  0
   -2.0775   -1.1944    0.0023 H   0  0  0  0  0  0  0  0  0  0  0  0
    0.0027   -1.3974   -0.0014 C   0  0  0  0  0  0  0  0  0  0  0  0
    0.0006   -2.3939   -0.0043 H   0  0  0  0  0  0  0  0  0  0  0  0
    1.2035   -0.6958   -0.0000 C   0  0  0  0  0  0  0  0  0  0  0  0
    2.0858   -1.1908    0.0008 H   0  0  0  0  0  0  0  0  0  0  0  0
    1.1961    0.6979    0.0016 C   0  0  0  0  0  0  0  0  0  0  0  0
    2.0633    1.1949    0.0036 H   0  0  0  0  0  0  0  0  0  0  0  0
  1  5  1  0
  5  8  1  0
  1  2  1  0
  1  3  1  0
  1  4  1  0
  5  6  1  0
  5  7  1  0
  8  9  1  0
  8 10  1  0
  8 11  1  0
 12 16  1  0
 16 17  2  0
 17 19  1  0
 19 21  2  0
 21 23  1  0
 23 25  2  0
 25 16  1  0
 12 13  1  0
 12 14  1  0
 12 15  1  0
 17 18  1  0
 19 20  1  0
 21 22  1  0
 23 24  1  0
 25 26  1  0
M  CHG  1   8   1
M  END
>  <PDB_ID>  (711) 
pdb2omd

>  <RESIDUE_NAME>  (711) 
LYS   PHE

>  <FRAG_NAME>  (711) 
ETAM   MBZ

>  <FRAG_ATOM_NUM>  (711) 
fragi: 11  fragj: 15

>  <atom.prop.CHAIN_ID>  (711) 
A A A A A A A A A A A Z Z Z Z Z Z Z Z Z Z Z Z Z Z Z

>  <atom.prop.IS_HEAVY_ATOM>  (711) 
1 0 0 0 1 0 0 1 0 0 0 1 0 0 0 1 1 0 1 0 1 0 1 0 1 0

>  <DIFUSE_FUNC_ATOM>  (711) 
n/a

>  <FINAL_SINGLE_POINT_ENERGY>  (711) 
0

>  <NONCOV_INTER_ENERGY_QM>  (711) 
0

>  <FF_Energy>  (711) 
-6.46

>  <QM_Energy>  (711) 
-12.93

>  <source>  (711) 
ETAM_MBZ

>  <Index>  (711) 
7052

$$$$
ETAM-pdb2odf-G-LYS-41:MBZ-pdb2odf-G-PHE-7
     RDKit          3D

 26 25  0  0  0  0  0  0  0  0999 V2000
    1.0404   -0.2857   -4.3200 C   0  0  0  0  0  0  0  0  0  0  0  0
    1.0364    0.6975   -4.4837 H   0  0  0  0  0  0  0  0  0  0  0  0
    0.6956   -0.4822   -3.4067 H   0  0  0  0  0  0  0  0  0  0  0  0
    0.3835   -0.7608   -5.0487 H   0  0  0  0  0  0  0  0  0  0  0  0
    2.5002   -0.7850   -4.4045 C   0  0  0  0  0  0  0  0  0  0  0  0
    2.5155   -1.6517   -4.9105 H   0  0  0  0  0  0  0  0  0  0  0  0
    3.0441   -0.1068   -4.9066 H   0  0  0  0  0  0  0  0  0  0  0  0
    3.1421   -1.0082   -3.0421 N   0  0  0  0  0  4  0  0  0  0  0  0
    2.4632   -0.8222   -2.3407 H   0  0  0  0  0  0  0  0  0  0  0  0
    3.4474   -1.9529   -2.9887 H   0  0  0  0  0  0  0  0  0  0  0  0
    3.9134   -0.3880   -2.9526 H   0  0  0  0  0  0  0  0  0  0  0  0
   -0.0038    2.9301    0.0100 C   0  0  0  0  0  0  0  0  0  0  0  0
    0.8185    3.2275    0.4697 H   0  0  0  0  0  0  0  0  0  0  0  0
   -0.8140    3.2273    0.4902 H   0  0  0  0  0  0  0  0  0  0  0  0
   -0.0164    3.3860   -0.9800 H   0  0  0  0  0  0  0  0  0  0  0  0
   -0.0042    1.4132   -0.0041 C   0  0  0  0  0  0  0  0  0  0  0  0
   -1.1989    0.7000    0.0024 C   0  0  0  0  0  0  0  0  0  0  0  0
   -2.0684    1.1807    0.0076 H   0  0  0  0  0  0  0  0  0  0  0  0
   -1.1992   -0.7049   -0.0000 C   0  0  0  0  0  0  0  0  0  0  0  0
   -2.0742   -1.1964    0.0008 H   0  0  0  0  0  0  0  0  0  0  0  0
    0.0086   -1.4027   -0.0010 C   0  0  0  0  0  0  0  0  0  0  0  0
    0.0013   -2.3995   -0.0035 H   0  0  0  0  0  0  0  0  0  0  0  0
    1.1992   -0.7037    0.0000 C   0  0  0  0  0  0  0  0  0  0  0  0
    2.0879   -1.1921   -0.0002 H   0  0  0  0  0  0  0  0  0  0  0  0
    1.1945    0.6981    0.0027 C   0  0  0  0  0  0  0  0  0  0  0  0
    2.0637    1.1899    0.0090 H   0  0  0  0  0  0  0  0  0  0  0  0
  1  5  1  0
  5  8  1  0
  1  2  1  0
  1  3  1  0
  1  4  1  0
  5  6  1  0
  5  7  1  0
  8  9  1  0
  8 10  1  0
  8 11  1  0
 12 16  1  0
 16 17  2  0
 17 19  1  0
 19 21  2  0
 21 23  1  0
 23 25  2  0
 25 16  1  0
 12 13  1  0
 12 14  1  0
 12 15  1  0
 17 18  1  0
 19 20  1  0
 21 22  1  0
 23 24  1  0
 25 26  1  0
M  CHG  1   8   1
M  END
>  <PDB_ID>  (712) 
pdb2odf

>  <RESIDUE_NAME>  (712) 
LYS   PHE

>  <FRAG_NAME>  (712) 
ETAM   MBZ

>  <FRAG_ATOM_NUM>  (712) 
fragi: 11  fragj: 15

>  <atom.prop.CHAIN_ID>  (712) 
A A A A A A A A A A A Z Z Z Z Z Z Z Z Z Z Z Z Z Z Z

>  <atom.prop.IS_HEAVY_ATOM>  (712) 
1 0 0 0 1 0 0 1 0 0 0 1 0 0 0 1 1 0 1 0 1 0 1 0 1 0

>  <DIFUSE_FUNC_ATOM>  (712) 
n/a

>  <FINAL_SINGLE_POINT_ENERGY>  (712) 
0

>  <NONCOV_INTER_ENERGY_QM>  (712) 
0

>  <FF_Energy>  (712) 
-3.17

>  <QM_Energy>  (712) 
-9.13

>  <source>  (712) 
ETAM_MBZ

>  <Index>  (712) 
7058

$$$$
ETAM-pdb2okc-A-LYS-13:MBZ-pdb2okc-B-PHE-52
     RDKit          3D

 26 25  0  0  0  0  0  0  0  0999 V2000
    2.5631    0.6523    3.3399 C   0  0  0  0  0  0  0  0  0  0  0  0
    3.3590    0.4223    3.8963 H   0  0  0  0  0  0  0  0  0  0  0  0
    2.6305    0.2019    2.4512 H   0  0  0  0  0  0  0  0  0  0  0  0
    1.6674    0.2930    3.8467 H   0  0  0  0  0  0  0  0  0  0  0  0
    2.5384    2.1510    3.1234 C   0  0  0  0  0  0  0  0  0  0  0  0
    2.0146    2.5795    3.8585 H   0  0  0  0  0  0  0  0  0  0  0  0
    3.4752    2.4991    3.1324 H   0  0  0  0  0  0  0  0  0  0  0  0
    1.9084    2.4773    1.8186 N   0  0  0  0  0  4  0  0  0  0  0  0
    1.0127    2.0344    1.7610 H   0  0  0  0  0  0  0  0  0  0  0  0
    1.7961    3.4681    1.7407 H   0  0  0  0  0  0  0  0  0  0  0  0
    2.4915    2.1484    1.0753 H   0  0  0  0  0  0  0  0  0  0  0  0
    0.0137    2.9257   -0.0131 C   0  0  0  0  0  0  0  0  0  0  0  0
    0.8996    3.2231   -0.3303 H   0  0  0  0  0  0  0  0  0  0  0  0
   -0.1673    3.2352    0.9063 H   0  0  0  0  0  0  0  0  0  0  0  0
   -0.7376    3.3718   -0.6648 H   0  0  0  0  0  0  0  0  0  0  0  0
    0.0054    1.4083   -0.0053 C   0  0  0  0  0  0  0  0  0  0  0  0
   -1.1843    0.6851    0.0038 C   0  0  0  0  0  0  0  0  0  0  0  0
   -2.0580    1.1686    0.0123 H   0  0  0  0  0  0  0  0  0  0  0  0
   -1.1863   -0.7122   -0.0000 C   0  0  0  0  0  0  0  0  0  0  0  0
   -2.0720   -1.1957    0.0007 H   0  0  0  0  0  0  0  0  0  0  0  0
   -0.0068   -1.3922   -0.0033 C   0  0  0  0  0  0  0  0  0  0  0  0
    0.0045   -2.3951   -0.0083 H   0  0  0  0  0  0  0  0  0  0  0  0
    1.1863   -0.6916    0.0000 C   0  0  0  0  0  0  0  0  0  0  0  0
    2.0733   -1.1861    0.0007 H   0  0  0  0  0  0  0  0  0  0  0  0
    1.1857    0.7025    0.0048 C   0  0  0  0  0  0  0  0  0  0  0  0
    2.0622    1.1891    0.0152 H   0  0  0  0  0  0  0  0  0  0  0  0
  1  5  1  0
  5  8  1  0
  1  2  1  0
  1  3  1  0
  1  4  1  0
  5  6  1  0
  5  7  1  0
  8  9  1  0
  8 10  1  0
  8 11  1  0
 12 16  1  0
 16 17  2  0
 17 19  1  0
 19 21  2  0
 21 23  1  0
 23 25  2  0
 25 16  1  0
 12 13  1  0
 12 14  1  0
 12 15  1  0
 17 18  1  0
 19 20  1  0
 21 22  1  0
 23 24  1  0
 25 26  1  0
M  CHG  1   8   1
M  END
>  <PDB_ID>  (713) 
pdb2okc

>  <RESIDUE_NAME>  (713) 
LYS   PHE

>  <FRAG_NAME>  (713) 
ETAM   MBZ

>  <FRAG_ATOM_NUM>  (713) 
fragi: 11  fragj: 15

>  <atom.prop.CHAIN_ID>  (713) 
A A A A A A A A A A A Z Z Z Z Z Z Z Z Z Z Z Z Z Z Z

>  <atom.prop.IS_HEAVY_ATOM>  (713) 
1 0 0 0 1 0 0 1 0 0 0 1 0 0 0 1 1 0 1 0 1 0 1 0 1 0

>  <DIFUSE_FUNC_ATOM>  (713) 
n/a

>  <FINAL_SINGLE_POINT_ENERGY>  (713) 
0

>  <NONCOV_INTER_ENERGY_QM>  (713) 
0

>  <FF_Energy>  (713) 
22.86

>  <QM_Energy>  (713) 
5.09

>  <source>  (713) 
ETAM_MBZ

>  <Index>  (713) 
7059

$$$$
ETAM-pdb1jxv-E-LYS-56:MBZ-pdb1jxv-E-PHE-61
     RDKit          3D

 26 25  0  0  0  0  0  0  0  0999 V2000
   -0.0656   -3.2495   -4.6692 C   0  0  0  0  0  0  0  0  0  0  0  0
   -0.8667   -3.4848   -5.2112 H   0  0  0  0  0  0  0  0  0  0  0  0
    0.7620   -3.5711   -5.1185 H   0  0  0  0  0  0  0  0  0  0  0  0
   -0.0145   -2.1651   -4.5712 H   0  0  0  0  0  0  0  0  0  0  0  0
   -0.1796   -3.9547   -3.3065 C   0  0  0  0  0  0  0  0  0  0  0  0
   -0.8768   -3.4799   -2.7591 H   0  0  0  0  0  0  0  0  0  0  0  0
   -0.4838   -4.9010   -3.4612 H   0  0  0  0  0  0  0  0  0  0  0  0
    1.1110   -3.9732   -2.5469 N   0  0  0  0  0  4  0  0  0  0  0  0
    1.3339   -3.0446   -2.2581 H   0  0  0  0  0  0  0  0  0  0  0  0
    1.0114   -4.5619   -1.7471 H   0  0  0  0  0  0  0  0  0  0  0  0
    1.8331   -4.3259   -3.1388 H   0  0  0  0  0  0  0  0  0  0  0  0
    0.0040    2.9094   -0.0529 C   0  0  0  0  0  0  0  0  0  0  0  0
   -0.7611    3.1956   -0.6112 H   0  0  0  0  0  0  0  0  0  0  0  0
    0.8639    3.2008   -0.4453 H   0  0  0  0  0  0  0  0  0  0  0  0
   -0.0967    3.3907    0.9199 H   0  0  0  0  0  0  0  0  0  0  0  0
    0.0032    1.4031   -0.0001 C   0  0  0  0  0  0  0  0  0  0  0  0
   -1.1928    0.6927   -0.0011 C   0  0  0  0  0  0  0  0  0  0  0  0
   -2.0606    1.1826   -0.0042 H   0  0  0  0  0  0  0  0  0  0  0  0
   -1.2001   -0.7007    0.0000 C   0  0  0  0  0  0  0  0  0  0  0  0
   -2.0818   -1.1884    0.0046 H   0  0  0  0  0  0  0  0  0  0  0  0
   -0.0091   -1.3954   -0.0034 C   0  0  0  0  0  0  0  0  0  0  0  0
   -0.0058   -2.3933   -0.0088 H   0  0  0  0  0  0  0  0  0  0  0  0
    1.2001   -0.6960   -0.0000 C   0  0  0  0  0  0  0  0  0  0  0  0
    2.0777   -1.1979    0.0002 H   0  0  0  0  0  0  0  0  0  0  0  0
    1.1988    0.6962    0.0047 C   0  0  0  0  0  0  0  0  0  0  0  0
    2.0668    1.1896    0.0109 H   0  0  0  0  0  0  0  0  0  0  0  0
  1  5  1  0
  5  8  1  0
  1  2  1  0
  1  3  1  0
  1  4  1  0
  5  6  1  0
  5  7  1  0
  8  9  1  0
  8 10  1  0
  8 11  1  0
 12 16  1  0
 16 17  2  0
 17 19  1  0
 19 21  2  0
 21 23  1  0
 23 25  2  0
 25 16  1  0
 12 13  1  0
 12 14  1  0
 12 15  1  0
 17 18  1  0
 19 20  1  0
 21 22  1  0
 23 24  1  0
 25 26  1  0
M  CHG  1   8   1
M  END
>  <PDB_ID>  (714) 
pdb1jxv

>  <RESIDUE_NAME>  (714) 
LYS   PHE

>  <FRAG_NAME>  (714) 
ETAM   MBZ

>  <FRAG_ATOM_NUM>  (714) 
fragi: 11  fragj: 15

>  <atom.prop.CHAIN_ID>  (714) 
A A A A A A A A A A A Z Z Z Z Z Z Z Z Z Z Z Z Z Z Z

>  <atom.prop.IS_HEAVY_ATOM>  (714) 
1 0 0 0 1 0 0 1 0 0 0 1 0 0 0 1 1 0 1 0 1 0 1 0 1 0

>  <DIFUSE_FUNC_ATOM>  (714) 
n/a

>  <FINAL_SINGLE_POINT_ENERGY>  (714) 
0

>  <NONCOV_INTER_ENERGY_QM>  (714) 
0

>  <FF_Energy>  (714) 
-1.11

>  <QM_Energy>  (714) 
-6.14

>  <source>  (714) 
ETAM_MBZ

>  <Index>  (714) 
7078

$$$$
ETAM-pdb2on5-E-LYS-138:MBZ-pdb2on5-E-PHE-135
     RDKit          3D

 26 25  0  0  0  0  0  0  0  0999 V2000
    4.7391    2.5512   -1.0690 C   0  0  0  0  0  0  0  0  0  0  0  0
    3.7365    2.6617   -0.9465 H   0  0  0  0  0  0  0  0  0  0  0  0
    4.9605    2.8822   -2.0042 H   0  0  0  0  0  0  0  0  0  0  0  0
    5.2266    3.2235   -0.3630 H   0  0  0  0  0  0  0  0  0  0  0  0
    5.0730    1.0445   -0.9968 C   0  0  0  0  0  0  0  0  0  0  0  0
    4.6108    0.5765   -1.7868 H   0  0  0  0  0  0  0  0  0  0  0  0
    6.0802    0.9317   -1.1707 H   0  0  0  0  0  0  0  0  0  0  0  0
    4.7265    0.2804    0.2693 N   0  0  0  0  0  4  0  0  0  0  0  0
    5.2135    0.6940    1.0321 H   0  0  0  0  0  0  0  0  0  0  0  0
    3.7440    0.3375    0.4142 H   0  0  0  0  0  0  0  0  0  0  0  0
    5.0050   -0.6673    0.1531 H   0  0  0  0  0  0  0  0  0  0  0  0
   -0.0156    2.9102   -0.0215 C   0  0  0  0  0  0  0  0  0  0  0  0
   -0.9070    3.2128    0.2832 H   0  0  0  0  0  0  0  0  0  0  0  0
    0.1636    3.2042   -0.9498 H   0  0  0  0  0  0  0  0  0  0  0  0
    0.7324    3.3694    0.6248 H   0  0  0  0  0  0  0  0  0  0  0  0
   -0.0023    1.4094   -0.0002 C   0  0  0  0  0  0  0  0  0  0  0  0
   -1.1908    0.7057   -0.0012 C   0  0  0  0  0  0  0  0  0  0  0  0
   -2.0618    1.1850   -0.0042 H   0  0  0  0  0  0  0  0  0  0  0  0
   -1.1921   -0.6988   -0.0000 C   0  0  0  0  0  0  0  0  0  0  0  0
   -2.0786   -1.1812   -0.0016 H   0  0  0  0  0  0  0  0  0  0  0  0
   -0.0059   -1.3951    0.0051 C   0  0  0  0  0  0  0  0  0  0  0  0
   -0.0168   -2.3994    0.0121 H   0  0  0  0  0  0  0  0  0  0  0  0
    1.1921   -0.7163   -0.0000 C   0  0  0  0  0  0  0  0  0  0  0  0
    2.0742   -1.2079   -0.0001 H   0  0  0  0  0  0  0  0  0  0  0  0
    1.1990    0.6951   -0.0037 C   0  0  0  0  0  0  0  0  0  0  0  0
    2.0663    1.1777   -0.0097 H   0  0  0  0  0  0  0  0  0  0  0  0
  1  5  1  0
  5  8  1  0
  1  2  1  0
  1  3  1  0
  1  4  1  0
  5  6  1  0
  5  7  1  0
  8  9  1  0
  8 10  1  0
  8 11  1  0
 12 16  1  0
 16 17  2  0
 17 19  1  0
 19 21  2  0
 21 23  1  0
 23 25  2  0
 25 16  1  0
 12 13  1  0
 12 14  1  0
 12 15  1  0
 17 18  1  0
 19 20  1  0
 21 22  1  0
 23 24  1  0
 25 26  1  0
M  CHG  1   8   1
M  END
>  <PDB_ID>  (715) 
pdb2on5

>  <RESIDUE_NAME>  (715) 
LYS   PHE

>  <FRAG_NAME>  (715) 
ETAM   MBZ

>  <FRAG_ATOM_NUM>  (715) 
fragi: 11  fragj: 15

>  <atom.prop.CHAIN_ID>  (715) 
A A A A A A A A A A A Z Z Z Z Z Z Z Z Z Z Z Z Z Z Z

>  <atom.prop.IS_HEAVY_ATOM>  (715) 
1 0 0 0 1 0 0 1 0 0 0 1 0 0 0 1 1 0 1 0 1 0 1 0 1 0

>  <DIFUSE_FUNC_ATOM>  (715) 
n/a

>  <FINAL_SINGLE_POINT_ENERGY>  (715) 
0

>  <NONCOV_INTER_ENERGY_QM>  (715) 
0

>  <FF_Energy>  (715) 
0.53

>  <QM_Energy>  (715) 
-4.48

>  <source>  (715) 
ETAM_MBZ

>  <Index>  (715) 
7081

$$$$
ETAM-pdb1jx4-A-LYS-152:MBZ-pdb1jx4-A-PHE-5
     RDKit          3D

 26 25  0  0  0  0  0  0  0  0999 V2000
    0.7374   -2.6874   -4.3521 C   0  0  0  0  0  0  0  0  0  0  0  0
   -0.1102   -2.3209   -3.9813 H   0  0  0  0  0  0  0  0  0  0  0  0
    0.7151   -2.6709   -5.3460 H   0  0  0  0  0  0  0  0  0  0  0  0
    1.5612   -2.0587   -4.0142 H   0  0  0  0  0  0  0  0  0  0  0  0
    0.9170   -4.0935   -3.8843 C   0  0  0  0  0  0  0  0  0  0  0  0
    0.1939   -4.6644   -4.2555 H   0  0  0  0  0  0  0  0  0  0  0  0
    1.8068   -4.4305   -4.1695 H   0  0  0  0  0  0  0  0  0  0  0  0
    0.8402   -4.1040   -2.4103 N   0  0  0  0  0  4  0  0  0  0  0  0
    0.8032   -3.1638   -2.0675 H   0  0  0  0  0  0  0  0  0  0  0  0
    0.0172   -4.5941   -2.1184 H   0  0  0  0  0  0  0  0  0  0  0  0
    1.6479   -4.5611   -2.0330 H   0  0  0  0  0  0  0  0  0  0  0  0
    0.0427    2.8897   -0.0996 C   0  0  0  0  0  0  0  0  0  0  0  0
   -0.4936    3.1691   -0.8876 H   0  0  0  0  0  0  0  0  0  0  0  0
    0.9894    3.1720   -0.2051 H   0  0  0  0  0  0  0  0  0  0  0  0
   -0.3565    3.4173    0.7668 H   0  0  0  0  0  0  0  0  0  0  0  0
    0.0048    1.3931   -0.0122 C   0  0  0  0  0  0  0  0  0  0  0  0
   -1.1960    0.7127    0.0028 C   0  0  0  0  0  0  0  0  0  0  0  0
   -2.0570    1.2093    0.0148 H   0  0  0  0  0  0  0  0  0  0  0  0
   -1.2168   -0.6820    0.0000 C   0  0  0  0  0  0  0  0  0  0  0  0
   -2.0922   -1.1688   -0.0059 H   0  0  0  0  0  0  0  0  0  0  0  0
   -0.0084   -1.3970    0.0073 C   0  0  0  0  0  0  0  0  0  0  0  0
   -0.0215   -2.3917    0.0167 H   0  0  0  0  0  0  0  0  0  0  0  0
    1.2168   -0.7067    0.0000 C   0  0  0  0  0  0  0  0  0  0  0  0
    2.0824   -1.2096   -0.0050 H   0  0  0  0  0  0  0  0  0  0  0  0
    1.1997    0.6799    0.0021 C   0  0  0  0  0  0  0  0  0  0  0  0
    2.0705    1.1832    0.0131 H   0  0  0  0  0  0  0  0  0  0  0  0
  1  5  1  0
  5  8  1  0
  1  2  1  0
  1  3  1  0
  1  4  1  0
  5  6  1  0
  5  7  1  0
  8  9  1  0
  8 10  1  0
  8 11  1  0
 12 16  1  0
 16 17  2  0
 17 19  1  0
 19 21  2  0
 21 23  1  0
 23 25  2  0
 25 16  1  0
 12 13  1  0
 12 14  1  0
 12 15  1  0
 17 18  1  0
 19 20  1  0
 21 22  1  0
 23 24  1  0
 25 26  1  0
M  CHG  1   8   1
M  END
>  <PDB_ID>  (716) 
pdb1jx4

>  <RESIDUE_NAME>  (716) 
LYS   PHE

>  <FRAG_NAME>  (716) 
ETAM   MBZ

>  <FRAG_ATOM_NUM>  (716) 
fragi: 11  fragj: 15

>  <atom.prop.CHAIN_ID>  (716) 
A A A A A A A A A A A Z Z Z Z Z Z Z Z Z Z Z Z Z Z Z

>  <atom.prop.IS_HEAVY_ATOM>  (716) 
1 0 0 0 1 0 0 1 0 0 0 1 0 0 0 1 1 0 1 0 1 0 1 0 1 0

>  <DIFUSE_FUNC_ATOM>  (716) 
n/a

>  <FINAL_SINGLE_POINT_ENERGY>  (716) 
0

>  <NONCOV_INTER_ENERGY_QM>  (716) 
0

>  <FF_Energy>  (716) 
-0.99

>  <QM_Energy>  (716) 
-6.39

>  <source>  (716) 
ETAM_MBZ

>  <Index>  (716) 
7087

$$$$
ETAM-pdb1js4-B-LYS-263:MBZ-pdb1js4-B-PHE-64
     RDKit          3D

 26 25  0  0  0  0  0  0  0  0999 V2000
   -2.2801   -5.0760    3.4371 C   0  0  0  0  0  0  0  0  0  0  0  0
   -1.4543   -5.6197    3.3438 H   0  0  0  0  0  0  0  0  0  0  0  0
   -2.7853   -5.0568    2.5824 H   0  0  0  0  0  0  0  0  0  0  0  0
   -2.9078   -5.5128    4.2138 H   0  0  0  0  0  0  0  0  0  0  0  0
   -1.8905   -3.6611    3.8015 C   0  0  0  0  0  0  0  0  0  0  0  0
   -2.6320   -3.2425    4.3245 H   0  0  0  0  0  0  0  0  0  0  0  0
   -1.0601   -3.6830    4.3574 H   0  0  0  0  0  0  0  0  0  0  0  0
   -1.6410   -2.8626    2.5785 N   0  0  0  0  0  4  0  0  0  0  0  0
   -2.0826   -1.9693    2.6657 H   0  0  0  0  0  0  0  0  0  0  0  0
   -0.6560   -2.7360    2.4568 H   0  0  0  0  0  0  0  0  0  0  0  0
   -2.0155   -3.3421    1.7834 H   0  0  0  0  0  0  0  0  0  0  0  0
    0.0189    2.9176   -0.0140 C   0  0  0  0  0  0  0  0  0  0  0  0
    0.0898    3.2095   -0.9561 H   0  0  0  0  0  0  0  0  0  0  0  0
    0.7993    3.2181    0.5139 H   0  0  0  0  0  0  0  0  0  0  0  0
   -0.8692    3.3839    0.4123 H   0  0  0  0  0  0  0  0  0  0  0  0
    0.0003    1.4047    0.0037 C   0  0  0  0  0  0  0  0  0  0  0  0
   -1.1990    0.6947   -0.0001 C   0  0  0  0  0  0  0  0  0  0  0  0
   -2.0643    1.1858   -0.0045 H   0  0  0  0  0  0  0  0  0  0  0  0
   -1.2036   -0.6967   -0.0000 C   0  0  0  0  0  0  0  0  0  0  0  0
   -2.0774   -1.1920    0.0050 H   0  0  0  0  0  0  0  0  0  0  0  0
    0.0033   -1.3953   -0.0044 C   0  0  0  0  0  0  0  0  0  0  0  0
   -0.0034   -2.3933   -0.0108 H   0  0  0  0  0  0  0  0  0  0  0  0
    1.2036   -0.6992    0.0000 C   0  0  0  0  0  0  0  0  0  0  0  0
    2.0849   -1.1951    0.0039 H   0  0  0  0  0  0  0  0  0  0  0  0
    1.1955    0.6917    0.0007 C   0  0  0  0  0  0  0  0  0  0  0  0
    2.0655    1.1890   -0.0014 H   0  0  0  0  0  0  0  0  0  0  0  0
  1  5  1  0
  5  8  1  0
  1  2  1  0
  1  3  1  0
  1  4  1  0
  5  6  1  0
  5  7  1  0
  8  9  1  0
  8 10  1  0
  8 11  1  0
 12 16  1  0
 16 17  2  0
 17 19  1  0
 19 21  2  0
 21 23  1  0
 23 25  2  0
 25 16  1  0
 12 13  1  0
 12 14  1  0
 12 15  1  0
 17 18  1  0
 19 20  1  0
 21 22  1  0
 23 24  1  0
 25 26  1  0
M  CHG  1   8   1
M  END
>  <PDB_ID>  (717) 
pdb1js4

>  <RESIDUE_NAME>  (717) 
LYS   PHE

>  <FRAG_NAME>  (717) 
ETAM   MBZ

>  <FRAG_ATOM_NUM>  (717) 
fragi: 11  fragj: 15

>  <atom.prop.CHAIN_ID>  (717) 
A A A A A A A A A A A Z Z Z Z Z Z Z Z Z Z Z Z Z Z Z

>  <atom.prop.IS_HEAVY_ATOM>  (717) 
1 0 0 0 1 0 0 1 0 0 0 1 0 0 0 1 1 0 1 0 1 0 1 0 1 0

>  <DIFUSE_FUNC_ATOM>  (717) 
n/a

>  <FINAL_SINGLE_POINT_ENERGY>  (717) 
0

>  <NONCOV_INTER_ENERGY_QM>  (717) 
0

>  <FF_Energy>  (717) 
-1.77

>  <QM_Energy>  (717) 
-8.27

>  <source>  (717) 
ETAM_MBZ

>  <Index>  (717) 
7104

$$$$
ETAM-pdb1jyk-A-LYS-62:MBZ-pdb1jyk-A-PHE-78
     RDKit          3D

 26 25  0  0  0  0  0  0  0  0999 V2000
    1.4287    0.5624    3.3199 C   0  0  0  0  0  0  0  0  0  0  0  0
    1.4009    1.5497    3.2127 H   0  0  0  0  0  0  0  0  0  0  0  0
    1.6786    0.1261    2.4632 H   0  0  0  0  0  0  0  0  0  0  0  0
    2.1757    0.3122    4.0732 H   0  0  0  0  0  0  0  0  0  0  0  0
    0.0577    0.0778    3.7335 C   0  0  0  0  0  0  0  0  0  0  0  0
   -0.1829    0.4859    4.6120 H   0  0  0  0  0  0  0  0  0  0  0  0
   -0.6088    0.3501    3.0423 H   0  0  0  0  0  0  0  0  0  0  0  0
    0.0546   -1.3998    3.8618 N   0  0  0  0  0  4  0  0  0  0  0  0
   -0.5724   -1.6703    4.5929 H   0  0  0  0  0  0  0  0  0  0  0  0
   -0.2435   -1.8099    2.9991 H   0  0  0  0  0  0  0  0  0  0  0  0
    0.9781   -1.7182    4.0806 H   0  0  0  0  0  0  0  0  0  0  0  0
   -0.0054    2.9086    0.0089 C   0  0  0  0  0  0  0  0  0  0  0  0
    0.0791    3.2098    0.9471 H   0  0  0  0  0  0  0  0  0  0  0  0
   -0.8573    3.2147   -0.3899 H   0  0  0  0  0  0  0  0  0  0  0  0
    0.8076    3.3608   -0.5591 H   0  0  0  0  0  0  0  0  0  0  0  0
   -0.0003    1.4037    0.0003 C   0  0  0  0  0  0  0  0  0  0  0  0
   -1.1965    0.6970   -0.0004 C   0  0  0  0  0  0  0  0  0  0  0  0
   -2.0627    1.1861   -0.0026 H   0  0  0  0  0  0  0  0  0  0  0  0
   -1.2013   -0.6947   -0.0000 C   0  0  0  0  0  0  0  0  0  0  0  0
   -2.0779   -1.1889    0.0015 H   0  0  0  0  0  0  0  0  0  0  0  0
    0.0014   -1.3961    0.0001 C   0  0  0  0  0  0  0  0  0  0  0  0
   -0.0079   -2.3938   -0.0003 H   0  0  0  0  0  0  0  0  0  0  0  0
    1.2013   -0.7026   -0.0000 C   0  0  0  0  0  0  0  0  0  0  0  0
    2.0833   -1.1965    0.0016 H   0  0  0  0  0  0  0  0  0  0  0  0
    1.1954    0.6927   -0.0000 C   0  0  0  0  0  0  0  0  0  0  0  0
    2.0650    1.1869   -0.0007 H   0  0  0  0  0  0  0  0  0  0  0  0
  1  5  1  0
  5  8  1  0
  1  2  1  0
  1  3  1  0
  1  4  1  0
  5  6  1  0
  5  7  1  0
  8  9  1  0
  8 10  1  0
  8 11  1  0
 12 16  1  0
 16 17  2  0
 17 19  1  0
 19 21  2  0
 21 23  1  0
 23 25  2  0
 25 16  1  0
 12 13  1  0
 12 14  1  0
 12 15  1  0
 17 18  1  0
 19 20  1  0
 21 22  1  0
 23 24  1  0
 25 26  1  0
M  CHG  1   8   1
M  END
>  <PDB_ID>  (718) 
pdb1jyk

>  <RESIDUE_NAME>  (718) 
LYS   PHE

>  <FRAG_NAME>  (718) 
ETAM   MBZ

>  <FRAG_ATOM_NUM>  (718) 
fragi: 11  fragj: 15

>  <atom.prop.CHAIN_ID>  (718) 
A A A A A A A A A A A Z Z Z Z Z Z Z Z Z Z Z Z Z Z Z

>  <atom.prop.IS_HEAVY_ATOM>  (718) 
1 0 0 0 1 0 0 1 0 0 0 1 0 0 0 1 1 0 1 0 1 0 1 0 1 0

>  <DIFUSE_FUNC_ATOM>  (718) 
n/a

>  <FINAL_SINGLE_POINT_ENERGY>  (718) 
0

>  <NONCOV_INTER_ENERGY_QM>  (718) 
0

>  <FF_Energy>  (718) 
-5.47

>  <QM_Energy>  (718) 
-11.1

>  <source>  (718) 
ETAM_MBZ

>  <Index>  (718) 
7108

$$$$
ETAM-pdb2opc-A-LYS-143:MBZ-pdb2opc-A-PHE-131
     RDKit          3D

 26 25  0  0  0  0  0  0  0  0999 V2000
    0.8217   -1.1404    3.7806 C   0  0  0  0  0  0  0  0  0  0  0  0
    0.9041   -1.8175    3.0539 H   0  0  0  0  0  0  0  0  0  0  0  0
    0.7926   -1.5940    4.6676 H   0  0  0  0  0  0  0  0  0  0  0  0
    1.7349   -0.5455    3.7607 H   0  0  0  0  0  0  0  0  0  0  0  0
   -0.3905   -0.3125    3.5820 C   0  0  0  0  0  0  0  0  0  0  0  0
   -0.4153    0.4208    4.2488 H   0  0  0  0  0  0  0  0  0  0  0  0
   -0.4083    0.0496    2.6588 H   0  0  0  0  0  0  0  0  0  0  0  0
   -1.5683   -1.1873    3.7813 N   0  0  0  0  0  4  0  0  0  0  0  0
   -1.2977   -2.1448    3.6720 H   0  0  0  0  0  0  0  0  0  0  0  0
   -1.9360   -1.0495    4.7018 H   0  0  0  0  0  0  0  0  0  0  0  0
   -2.2714   -0.9619    3.1057 H   0  0  0  0  0  0  0  0  0  0  0  0
   -0.0099    2.9109   -0.0796 C   0  0  0  0  0  0  0  0  0  0  0  0
    0.7673    3.2393    0.4328 H   0  0  0  0  0  0  0  0  0  0  0  0
   -0.8612    3.2299    0.3054 H   0  0  0  0  0  0  0  0  0  0  0  0
    0.0671    3.3033   -1.0936 H   0  0  0  0  0  0  0  0  0  0  0  0
   -0.0062    1.4087   -0.0179 C   0  0  0  0  0  0  0  0  0  0  0  0
   -1.2137    0.6880    0.0006 C   0  0  0  0  0  0  0  0  0  0  0  0
   -2.0770    1.1851    0.0136 H   0  0  0  0  0  0  0  0  0  0  0  0
   -1.2231   -0.7019    0.0000 C   0  0  0  0  0  0  0  0  0  0  0  0
   -2.0841   -1.2053   -0.0191 H   0  0  0  0  0  0  0  0  0  0  0  0
    0.0082   -1.4066    0.0285 C   0  0  0  0  0  0  0  0  0  0  0  0
    0.0053   -2.3954    0.0676 H   0  0  0  0  0  0  0  0  0  0  0  0
    1.2231   -0.6933   -0.0000 C   0  0  0  0  0  0  0  0  0  0  0  0
    2.1003   -1.1894   -0.0107 H   0  0  0  0  0  0  0  0  0  0  0  0
    1.2116    0.7051   -0.0113 C   0  0  0  0  0  0  0  0  0  0  0  0
    2.0689    1.2084   -0.0151 H   0  0  0  0  0  0  0  0  0  0  0  0
  1  5  1  0
  5  8  1  0
  1  2  1  0
  1  3  1  0
  1  4  1  0
  5  6  1  0
  5  7  1  0
  8  9  1  0
  8 10  1  0
  8 11  1  0
 12 16  1  0
 16 17  2  0
 17 19  1  0
 19 21  2  0
 21 23  1  0
 23 25  2  0
 25 16  1  0
 12 13  1  0
 12 14  1  0
 12 15  1  0
 17 18  1  0
 19 20  1  0
 21 22  1  0
 23 24  1  0
 25 26  1  0
M  CHG  1   8   1
M  END
>  <PDB_ID>  (719) 
pdb2opc

>  <RESIDUE_NAME>  (719) 
LYS   PHE

>  <FRAG_NAME>  (719) 
ETAM   MBZ

>  <FRAG_ATOM_NUM>  (719) 
fragi: 11  fragj: 15

>  <atom.prop.CHAIN_ID>  (719) 
A A A A A A A A A A A Z Z Z Z Z Z Z Z Z Z Z Z Z Z Z

>  <atom.prop.IS_HEAVY_ATOM>  (719) 
1 0 0 0 1 0 0 1 0 0 0 1 0 0 0 1 1 0 1 0 1 0 1 0 1 0

>  <DIFUSE_FUNC_ATOM>  (719) 
n/a

>  <FINAL_SINGLE_POINT_ENERGY>  (719) 
0

>  <NONCOV_INTER_ENERGY_QM>  (719) 
0

>  <FF_Energy>  (719) 
-5.55

>  <QM_Energy>  (719) 
-11.47

>  <source>  (719) 
ETAM_MBZ

>  <Index>  (719) 
7116

$$$$
ETAM-pdb1jzn-C-LYS-75:MBZ-pdb1jzn-C-PHE-105
     RDKit          3D

 26 25  0  0  0  0  0  0  0  0999 V2000
    0.3508   -1.4467   -4.1168 C   0  0  0  0  0  0  0  0  0  0  0  0
    0.7556   -1.9027   -4.9024 H   0  0  0  0  0  0  0  0  0  0  0  0
    0.0781   -2.1131   -3.4308 H   0  0  0  0  0  0  0  0  0  0  0  0
    1.0850   -0.7680   -3.6827 H   0  0  0  0  0  0  0  0  0  0  0  0
   -0.8931   -0.6971   -4.5813 C   0  0  0  0  0  0  0  0  0  0  0  0
   -0.6125    0.0562   -5.1824 H   0  0  0  0  0  0  0  0  0  0  0  0
   -1.4761   -1.3275   -5.1023 H   0  0  0  0  0  0  0  0  0  0  0  0
   -1.6744   -0.1426   -3.4368 N   0  0  0  0  0  4  0  0  0  0  0  0
   -2.3427   -0.8208   -3.1345 H   0  0  0  0  0  0  0  0  0  0  0  0
   -1.0518    0.0728   -2.6868 H   0  0  0  0  0  0  0  0  0  0  0  0
   -2.1460    0.6871   -3.7315 H   0  0  0  0  0  0  0  0  0  0  0  0
   -0.0012    2.9166    0.0292 C   0  0  0  0  0  0  0  0  0  0  0  0
   -0.8435    3.2298   -0.3794 H   0  0  0  0  0  0  0  0  0  0  0  0
    0.7864    3.2316   -0.4760 H   0  0  0  0  0  0  0  0  0  0  0  0
    0.0582    3.3371    1.0330 H   0  0  0  0  0  0  0  0  0  0  0  0
   -0.0013    1.4080    0.0001 C   0  0  0  0  0  0  0  0  0  0  0  0
   -1.2006    0.6976    0.0001 C   0  0  0  0  0  0  0  0  0  0  0  0
   -2.0671    1.1843   -0.0007 H   0  0  0  0  0  0  0  0  0  0  0  0
   -1.2051   -0.7020    0.0000 C   0  0  0  0  0  0  0  0  0  0  0  0
   -2.0788   -1.1939    0.0011 H   0  0  0  0  0  0  0  0  0  0  0  0
    0.0040   -1.4001    0.0006 C   0  0  0  0  0  0  0  0  0  0  0  0
   -0.0010   -2.3968    0.0013 H   0  0  0  0  0  0  0  0  0  0  0  0
    1.2051   -0.7005   -0.0000 C   0  0  0  0  0  0  0  0  0  0  0  0
    2.0876   -1.1935    0.0020 H   0  0  0  0  0  0  0  0  0  0  0  0
    1.1979    0.6970   -0.0009 C   0  0  0  0  0  0  0  0  0  0  0  0
    2.0661    1.1925   -0.0026 H   0  0  0  0  0  0  0  0  0  0  0  0
  1  5  1  0
  5  8  1  0
  1  2  1  0
  1  3  1  0
  1  4  1  0
  5  6  1  0
  5  7  1  0
  8  9  1  0
  8 10  1  0
  8 11  1  0
 12 16  1  0
 16 17  2  0
 17 19  1  0
 19 21  2  0
 21 23  1  0
 23 25  2  0
 25 16  1  0
 12 13  1  0
 12 14  1  0
 12 15  1  0
 17 18  1  0
 19 20  1  0
 21 22  1  0
 23 24  1  0
 25 26  1  0
M  CHG  1   8   1
M  END
>  <PDB_ID>  (720) 
pdb1jzn

>  <RESIDUE_NAME>  (720) 
LYS   PHE

>  <FRAG_NAME>  (720) 
ETAM   MBZ

>  <FRAG_ATOM_NUM>  (720) 
fragi: 11  fragj: 15

>  <atom.prop.CHAIN_ID>  (720) 
A A A A A A A A A A A Z Z Z Z Z Z Z Z Z Z Z Z Z Z Z

>  <atom.prop.IS_HEAVY_ATOM>  (720) 
1 0 0 0 1 0 0 1 0 0 0 1 0 0 0 1 1 0 1 0 1 0 1 0 1 0

>  <DIFUSE_FUNC_ATOM>  (720) 
n/a

>  <FINAL_SINGLE_POINT_ENERGY>  (720) 
0

>  <NONCOV_INTER_ENERGY_QM>  (720) 
0

>  <FF_Energy>  (720) 
-6.6

>  <QM_Energy>  (720) 
-12.51

>  <source>  (720) 
ETAM_MBZ

>  <Index>  (720) 
7131

$$$$
ETAM-pdb2ols-A-LYS-256:MBZ-pdb2ols-A-PHE-290
     RDKit          3D

 26 25  0  0  0  0  0  0  0  0999 V2000
    1.5216   -1.6038    4.3771 C   0  0  0  0  0  0  0  0  0  0  0  0
    2.1472   -1.7001    5.1474 H   0  0  0  0  0  0  0  0  0  0  0  0
    1.9190   -2.0172    3.5618 H   0  0  0  0  0  0  0  0  0  0  0  0
    0.5817   -2.1029    4.6128 H   0  0  0  0  0  0  0  0  0  0  0  0
    1.3047   -0.1362    4.1142 C   0  0  0  0  0  0  0  0  0  0  0  0
    0.4653   -0.0248    3.5761 H   0  0  0  0  0  0  0  0  0  0  0  0
    1.1945    0.3371    4.9920 H   0  0  0  0  0  0  0  0  0  0  0  0
    2.4363    0.4244    3.3885 N   0  0  0  0  0  4  0  0  0  0  0  0
    2.8653    1.1571    3.9255 H   0  0  0  0  0  0  0  0  0  0  0  0
    3.1228   -0.2882    3.2108 H   0  0  0  0  0  0  0  0  0  0  0  0
    2.1320    0.8050    2.5094 H   0  0  0  0  0  0  0  0  0  0  0  0
    0.0180    2.9212    0.0146 C   0  0  0  0  0  0  0  0  0  0  0  0
    0.9607    3.2076    0.1094 H   0  0  0  0  0  0  0  0  0  0  0  0
   -0.5254    3.2218    0.7847 H   0  0  0  0  0  0  0  0  0  0  0  0
   -0.3856    3.3905   -0.8826 H   0  0  0  0  0  0  0  0  0  0  0  0
   -0.0039    1.4036   -0.0010 C   0  0  0  0  0  0  0  0  0  0  0  0
   -1.1944    0.7088    0.0003 C   0  0  0  0  0  0  0  0  0  0  0  0
   -2.0615    1.1923    0.0001 H   0  0  0  0  0  0  0  0  0  0  0  0
   -1.1905   -0.6828    0.0000 C   0  0  0  0  0  0  0  0  0  0  0  0
   -2.0695   -1.1794    0.0032 H   0  0  0  0  0  0  0  0  0  0  0  0
    0.0101   -1.3855   -0.0030 C   0  0  0  0  0  0  0  0  0  0  0  0
   -0.0171   -2.3916   -0.0084 H   0  0  0  0  0  0  0  0  0  0  0  0
    1.1905   -0.7167   -0.0000 C   0  0  0  0  0  0  0  0  0  0  0  0
    2.0774   -1.2084    0.0006 H   0  0  0  0  0  0  0  0  0  0  0  0
    1.1882    0.6726    0.0038 C   0  0  0  0  0  0  0  0  0  0  0  0
    2.0626    1.1678    0.0097 H   0  0  0  0  0  0  0  0  0  0  0  0
  1  5  1  0
  5  8  1  0
  1  2  1  0
  1  3  1  0
  1  4  1  0
  5  6  1  0
  5  7  1  0
  8  9  1  0
  8 10  1  0
  8 11  1  0
 12 16  1  0
 16 17  2  0
 17 19  1  0
 19 21  2  0
 21 23  1  0
 23 25  2  0
 25 16  1  0
 12 13  1  0
 12 14  1  0
 12 15  1  0
 17 18  1  0
 19 20  1  0
 21 22  1  0
 23 24  1  0
 25 26  1  0
M  CHG  1   8   1
M  END
>  <PDB_ID>  (721) 
pdb2ols

>  <RESIDUE_NAME>  (721) 
LYS   PHE

>  <FRAG_NAME>  (721) 
ETAM   MBZ

>  <FRAG_ATOM_NUM>  (721) 
fragi: 11  fragj: 15

>  <atom.prop.CHAIN_ID>  (721) 
A A A A A A A A A A A Z Z Z Z Z Z Z Z Z Z Z Z Z Z Z

>  <atom.prop.IS_HEAVY_ATOM>  (721) 
1 0 0 0 1 0 0 1 0 0 0 1 0 0 0 1 1 0 1 0 1 0 1 0 1 0

>  <DIFUSE_FUNC_ATOM>  (721) 
n/a

>  <FINAL_SINGLE_POINT_ENERGY>  (721) 
0

>  <NONCOV_INTER_ENERGY_QM>  (721) 
0

>  <FF_Energy>  (721) 
-4.81

>  <QM_Energy>  (721) 
-10.47

>  <source>  (721) 
ETAM_MBZ

>  <Index>  (721) 
7140

$$$$
ETAM-pdb2oq0-D-LYS-63:MBZ-pdb2oq0-D-PHE-42
     RDKit          3D

 26 25  0  0  0  0  0  0  0  0999 V2000
   -1.0133    0.1481    3.5435 C   0  0  0  0  0  0  0  0  0  0  0  0
   -1.0775   -0.2773    2.6457 H   0  0  0  0  0  0  0  0  0  0  0  0
   -1.6037    0.9491    3.5875 H   0  0  0  0  0  0  0  0  0  0  0  0
   -1.3560   -0.5712    4.2873 H   0  0  0  0  0  0  0  0  0  0  0  0
    0.4220    0.5795    3.7828 C   0  0  0  0  0  0  0  0  0  0  0  0
    0.7015    1.2075    3.0587 H   0  0  0  0  0  0  0  0  0  0  0  0
    0.4843    1.0373    4.6676 H   0  0  0  0  0  0  0  0  0  0  0  0
    1.3393   -0.6040    3.7818 N   0  0  0  0  0  4  0  0  0  0  0  0
    1.6222   -0.7975    2.8449 H   0  0  0  0  0  0  0  0  0  0  0  0
    2.1398   -0.3982    4.3418 H   0  0  0  0  0  0  0  0  0  0  0  0
    0.8562   -1.3924    4.1590 H   0  0  0  0  0  0  0  0  0  0  0  0
   -0.0004    2.9230    0.0148 C   0  0  0  0  0  0  0  0  0  0  0  0
    0.8149    3.2192    0.4950 H   0  0  0  0  0  0  0  0  0  0  0  0
   -0.8174    3.2220    0.4903 H   0  0  0  0  0  0  0  0  0  0  0  0
    0.0031    3.4061   -0.9624 H   0  0  0  0  0  0  0  0  0  0  0  0
   -0.0030    1.4115   -0.0129 C   0  0  0  0  0  0  0  0  0  0  0  0
   -1.1986    0.7006   -0.0030 C   0  0  0  0  0  0  0  0  0  0  0  0
   -2.0663    1.1869    0.0007 H   0  0  0  0  0  0  0  0  0  0  0  0
   -1.2029   -0.6967    0.0000 C   0  0  0  0  0  0  0  0  0  0  0  0
   -2.0794   -1.1889    0.0013 H   0  0  0  0  0  0  0  0  0  0  0  0
    0.0024   -1.4025    0.0030 C   0  0  0  0  0  0  0  0  0  0  0  0
   -0.0077   -2.3978    0.0072 H   0  0  0  0  0  0  0  0  0  0  0  0
    1.2029   -0.7059   -0.0000 C   0  0  0  0  0  0  0  0  0  0  0  0
    2.0853   -1.2000   -0.0096 H   0  0  0  0  0  0  0  0  0  0  0  0
    1.1992    0.6930    0.0129 C   0  0  0  0  0  0  0  0  0  0  0  0
    2.0666    1.1871    0.0404 H   0  0  0  0  0  0  0  0  0  0  0  0
  1  5  1  0
  5  8  1  0
  1  2  1  0
  1  3  1  0
  1  4  1  0
  5  6  1  0
  5  7  1  0
  8  9  1  0
  8 10  1  0
  8 11  1  0
 12 16  1  0
 16 17  2  0
 17 19  1  0
 19 21  2  0
 21 23  1  0
 23 25  2  0
 25 16  1  0
 12 13  1  0
 12 14  1  0
 12 15  1  0
 17 18  1  0
 19 20  1  0
 21 22  1  0
 23 24  1  0
 25 26  1  0
M  CHG  1   8   1
M  END
>  <PDB_ID>  (722) 
pdb2oq0

>  <RESIDUE_NAME>  (722) 
LYS   PHE

>  <FRAG_NAME>  (722) 
ETAM   MBZ

>  <FRAG_ATOM_NUM>  (722) 
fragi: 11  fragj: 15

>  <atom.prop.CHAIN_ID>  (722) 
A A A A A A A A A A A Z Z Z Z Z Z Z Z Z Z Z Z Z Z Z

>  <atom.prop.IS_HEAVY_ATOM>  (722) 
1 0 0 0 1 0 0 1 0 0 0 1 0 0 0 1 1 0 1 0 1 0 1 0 1 0

>  <DIFUSE_FUNC_ATOM>  (722) 
n/a

>  <FINAL_SINGLE_POINT_ENERGY>  (722) 
0

>  <NONCOV_INTER_ENERGY_QM>  (722) 
0

>  <FF_Energy>  (722) 
-6.39

>  <QM_Energy>  (722) 
-12.27

>  <source>  (722) 
ETAM_MBZ

>  <Index>  (722) 
7142

$$$$
ETAM-pdb2on5-B-LYS-96:MBZ-pdb2on5-B-PHE-65
     RDKit          3D

 26 25  0  0  0  0  0  0  0  0999 V2000
   -2.5315   -0.4520   -3.6055 C   0  0  0  0  0  0  0  0  0  0  0  0
   -1.7017   -0.0480   -3.2558 H   0  0  0  0  0  0  0  0  0  0  0  0
   -2.7097   -0.1728   -4.5350 H   0  0  0  0  0  0  0  0  0  0  0  0
   -2.4317   -1.5370   -3.5778 H   0  0  0  0  0  0  0  0  0  0  0  0
   -3.6903   -0.0335   -2.7330 C   0  0  0  0  0  0  0  0  0  0  0  0
   -4.5458   -0.2588   -3.1977 H   0  0  0  0  0  0  0  0  0  0  0  0
   -3.6411   -0.5294   -1.8662 H   0  0  0  0  0  0  0  0  0  0  0  0
   -3.6350    1.4144   -2.4768 N   0  0  0  0  0  4  0  0  0  0  0  0
   -2.7453    1.6568   -2.0849 H   0  0  0  0  0  0  0  0  0  0  0  0
   -3.7638    1.9170   -3.3348 H   0  0  0  0  0  0  0  0  0  0  0  0
   -4.3581    1.6741   -1.8330 H   0  0  0  0  0  0  0  0  0  0  0  0
   -0.0238    2.9522    0.0480 C   0  0  0  0  0  0  0  0  0  0  0  0
   -0.7999    3.2502   -0.4772 H   0  0  0  0  0  0  0  0  0  0  0  0
    0.8272    3.2627   -0.3334 H   0  0  0  0  0  0  0  0  0  0  0  0
   -0.1158    3.3616    1.0540 H   0  0  0  0  0  0  0  0  0  0  0  0
   -0.0089    1.4157    0.0113 C   0  0  0  0  0  0  0  0  0  0  0  0
   -1.2083    0.6990    0.0118 C   0  0  0  0  0  0  0  0  0  0  0  0
   -2.0778    1.1787    0.0199 H   0  0  0  0  0  0  0  0  0  0  0  0
   -1.2184   -0.7200    0.0000 C   0  0  0  0  0  0  0  0  0  0  0  0
   -2.0769   -1.2109    0.0192 H   0  0  0  0  0  0  0  0  0  0  0  0
    0.0180   -1.4135   -0.0378 C   0  0  0  0  0  0  0  0  0  0  0  0
    0.0234   -2.4010   -0.0906 H   0  0  0  0  0  0  0  0  0  0  0  0
    1.2184   -0.6876    0.0000 C   0  0  0  0  0  0  0  0  0  0  0  0
    2.1040   -1.1770    0.0178 H   0  0  0  0  0  0  0  0  0  0  0  0
    1.1992    0.7065    0.0147 C   0  0  0  0  0  0  0  0  0  0  0  0
    2.0623    1.2117    0.0274 H   0  0  0  0  0  0  0  0  0  0  0  0
  1  5  1  0
  5  8  1  0
  1  2  1  0
  1  3  1  0
  1  4  1  0
  5  6  1  0
  5  7  1  0
  8  9  1  0
  8 10  1  0
  8 11  1  0
 12 16  1  0
 16 17  2  0
 17 19  1  0
 19 21  2  0
 21 23  1  0
 23 25  2  0
 25 16  1  0
 12 13  1  0
 12 14  1  0
 12 15  1  0
 17 18  1  0
 19 20  1  0
 21 22  1  0
 23 24  1  0
 25 26  1  0
M  CHG  1   8   1
M  END
>  <PDB_ID>  (723) 
pdb2on5

>  <RESIDUE_NAME>  (723) 
LYS   PHE

>  <FRAG_NAME>  (723) 
ETAM   MBZ

>  <FRAG_ATOM_NUM>  (723) 
fragi: 11  fragj: 15

>  <atom.prop.CHAIN_ID>  (723) 
A A A A A A A A A A A Z Z Z Z Z Z Z Z Z Z Z Z Z Z Z

>  <atom.prop.IS_HEAVY_ATOM>  (723) 
1 0 0 0 1 0 0 1 0 0 0 1 0 0 0 1 1 0 1 0 1 0 1 0 1 0

>  <DIFUSE_FUNC_ATOM>  (723) 
n/a

>  <FINAL_SINGLE_POINT_ENERGY>  (723) 
0

>  <NONCOV_INTER_ENERGY_QM>  (723) 
0

>  <FF_Energy>  (723) 
-2.39

>  <QM_Energy>  (723) 
-7.43

>  <source>  (723) 
ETAM_MBZ

>  <Index>  (723) 
7146

$$$$
ETAM-pdb2opo-B-LYS-27:MBZ-pdb2opo-A-PHE-62
     RDKit          3D

 26 25  0  0  0  0  0  0  0  0999 V2000
   -0.1613    1.3084    3.8451 C   0  0  0  0  0  0  0  0  0  0  0  0
    0.3586    1.9220    3.2731 H   0  0  0  0  0  0  0  0  0  0  0  0
   -0.0312    1.5044    4.8031 H   0  0  0  0  0  0  0  0  0  0  0  0
   -1.2147    1.4784    3.6224 H   0  0  0  0  0  0  0  0  0  0  0  0
    0.1712   -0.0890    3.5484 C   0  0  0  0  0  0  0  0  0  0  0  0
   -0.3665   -0.7125    4.1286 H   0  0  0  0  0  0  0  0  0  0  0  0
   -0.0266   -0.3048    2.5849 H   0  0  0  0  0  0  0  0  0  0  0  0
    1.6332   -0.3809    3.7927 N   0  0  0  0  0  4  0  0  0  0  0  0
    2.1276    0.4822    3.8481 H   0  0  0  0  0  0  0  0  0  0  0  0
    1.7207   -0.8824    4.6489 H   0  0  0  0  0  0  0  0  0  0  0  0
    1.9812   -0.9276    3.0369 H   0  0  0  0  0  0  0  0  0  0  0  0
   -0.0378    2.8941    0.0731 C   0  0  0  0  0  0  0  0  0  0  0  0
    0.8301    3.2099    0.4204 H   0  0  0  0  0  0  0  0  0  0  0  0
   -0.7853    3.1721    0.6541 H   0  0  0  0  0  0  0  0  0  0  0  0
   -0.1896    3.3534   -0.9038 H   0  0  0  0  0  0  0  0  0  0  0  0
   -0.0121    1.4126    0.0131 C   0  0  0  0  0  0  0  0  0  0  0  0
   -1.2045    0.6865    0.0100 C   0  0  0  0  0  0  0  0  0  0  0  0
   -2.0779    1.1566    0.0137 H   0  0  0  0  0  0  0  0  0  0  0  0
   -1.1960   -0.7318    0.0000 C   0  0  0  0  0  0  0  0  0  0  0  0
   -2.0566   -1.2277    0.0218 H   0  0  0  0  0  0  0  0  0  0  0  0
    0.0314   -1.4037   -0.0386 C   0  0  0  0  0  0  0  0  0  0  0  0
    0.0319   -2.4049   -0.0956 H   0  0  0  0  0  0  0  0  0  0  0  0
    1.1960   -0.6984   -0.0000 C   0  0  0  0  0  0  0  0  0  0  0  0
    2.1009   -1.1599    0.0201 H   0  0  0  0  0  0  0  0  0  0  0  0
    1.1853    0.7347    0.0155 C   0  0  0  0  0  0  0  0  0  0  0  0
    2.0516    1.2127    0.0275 H   0  0  0  0  0  0  0  0  0  0  0  0
  1  5  1  0
  5  8  1  0
  1  2  1  0
  1  3  1  0
  1  4  1  0
  5  6  1  0
  5  7  1  0
  8  9  1  0
  8 10  1  0
  8 11  1  0
 12 16  1  0
 16 17  2  0
 17 19  1  0
 19 21  2  0
 21 23  1  0
 23 25  2  0
 25 16  1  0
 12 13  1  0
 12 14  1  0
 12 15  1  0
 17 18  1  0
 19 20  1  0
 21 22  1  0
 23 24  1  0
 25 26  1  0
M  CHG  1   8   1
M  END
>  <PDB_ID>  (724) 
pdb2opo

>  <RESIDUE_NAME>  (724) 
LYS   PHE

>  <FRAG_NAME>  (724) 
ETAM   MBZ

>  <FRAG_ATOM_NUM>  (724) 
fragi: 11  fragj: 15

>  <atom.prop.CHAIN_ID>  (724) 
A A A A A A A A A A A Z Z Z Z Z Z Z Z Z Z Z Z Z Z Z

>  <atom.prop.IS_HEAVY_ATOM>  (724) 
1 0 0 0 1 0 0 1 0 0 0 1 0 0 0 1 1 0 1 0 1 0 1 0 1 0

>  <DIFUSE_FUNC_ATOM>  (724) 
n/a

>  <FINAL_SINGLE_POINT_ENERGY>  (724) 
0

>  <NONCOV_INTER_ENERGY_QM>  (724) 
0

>  <FF_Energy>  (724) 
-6.26

>  <QM_Energy>  (724) 
-12.16

>  <source>  (724) 
ETAM_MBZ

>  <Index>  (724) 
7155

$$$$
ETAM-pdb1k1x-A-LYS-622:MBZ-pdb1k1x-A-PHE-633
     RDKit          3D

 26 25  0  0  0  0  0  0  0  0999 V2000
    1.6107   -0.5140    3.6332 C   0  0  0  0  0  0  0  0  0  0  0  0
    1.0606   -0.0876    2.9212 H   0  0  0  0  0  0  0  0  0  0  0  0
    1.3390   -0.1747    4.5285 H   0  0  0  0  0  0  0  0  0  0  0  0
    1.4648   -1.5937    3.5993 H   0  0  0  0  0  0  0  0  0  0  0  0
    3.0667   -0.1474    3.4018 C   0  0  0  0  0  0  0  0  0  0  0  0
    3.1731    0.8477    3.5068 H   0  0  0  0  0  0  0  0  0  0  0  0
    3.6322   -0.6048    4.0960 H   0  0  0  0  0  0  0  0  0  0  0  0
    3.5430   -0.5465    2.0467 N   0  0  0  0  0  4  0  0  0  0  0  0
    3.8363    0.2673    1.5463 H   0  0  0  0  0  0  0  0  0  0  0  0
    4.3112   -1.1780    2.1397 H   0  0  0  0  0  0  0  0  0  0  0  0
    2.7979   -0.9933    1.5528 H   0  0  0  0  0  0  0  0  0  0  0  0
   -0.0114    2.9095   -0.0101 C   0  0  0  0  0  0  0  0  0  0  0  0
   -0.2915    3.2076   -0.9081 H   0  0  0  0  0  0  0  0  0  0  0  0
    0.8980    3.2235    0.2110 H   0  0  0  0  0  0  0  0  0  0  0  0
   -0.7001    3.3416    0.7159 H   0  0  0  0  0  0  0  0  0  0  0  0
   -0.0002    1.4066   -0.0003 C   0  0  0  0  0  0  0  0  0  0  0  0
   -1.1956    0.6947   -0.0008 C   0  0  0  0  0  0  0  0  0  0  0  0
   -2.0637    1.1826   -0.0033 H   0  0  0  0  0  0  0  0  0  0  0  0
   -1.2016   -0.7014    0.0000 C   0  0  0  0  0  0  0  0  0  0  0  0
   -2.0786   -1.1920    0.0013 H   0  0  0  0  0  0  0  0  0  0  0  0
    0.0002   -1.4004    0.0007 C   0  0  0  0  0  0  0  0  0  0  0  0
   -0.0037   -2.3974    0.0011 H   0  0  0  0  0  0  0  0  0  0  0  0
    1.2016   -0.7013    0.0000 C   0  0  0  0  0  0  0  0  0  0  0  0
    2.0838   -1.1922    0.0007 H   0  0  0  0  0  0  0  0  0  0  0  0
    1.1956    0.7019    0.0004 C   0  0  0  0  0  0  0  0  0  0  0  0
    2.0645    1.1926    0.0003 H   0  0  0  0  0  0  0  0  0  0  0  0
  1  5  1  0
  5  8  1  0
  1  2  1  0
  1  3  1  0
  1  4  1  0
  5  6  1  0
  5  7  1  0
  8  9  1  0
  8 10  1  0
  8 11  1  0
 12 16  1  0
 16 17  2  0
 17 19  1  0
 19 21  2  0
 21 23  1  0
 23 25  2  0
 25 16  1  0
 12 13  1  0
 12 14  1  0
 12 15  1  0
 17 18  1  0
 19 20  1  0
 21 22  1  0
 23 24  1  0
 25 26  1  0
M  CHG  1   8   1
M  END
>  <PDB_ID>  (725) 
pdb1k1x

>  <RESIDUE_NAME>  (725) 
LYS   PHE

>  <FRAG_NAME>  (725) 
ETAM   MBZ

>  <FRAG_ATOM_NUM>  (725) 
fragi: 11  fragj: 15

>  <atom.prop.CHAIN_ID>  (725) 
A A A A A A A A A A A Z Z Z Z Z Z Z Z Z Z Z Z Z Z Z

>  <atom.prop.IS_HEAVY_ATOM>  (725) 
1 0 0 0 1 0 0 1 0 0 0 1 0 0 0 1 1 0 1 0 1 0 1 0 1 0

>  <DIFUSE_FUNC_ATOM>  (725) 
n/a

>  <FINAL_SINGLE_POINT_ENERGY>  (725) 
0

>  <NONCOV_INTER_ENERGY_QM>  (725) 
0

>  <FF_Energy>  (725) 
-0.7

>  <QM_Energy>  (725) 
-7.87

>  <source>  (725) 
ETAM_MBZ

>  <Index>  (725) 
7159

$$$$
ETAM-pdb1k0f-A-LYS-214:MBZ-pdb1k0f-A-PHE-236
     RDKit          3D

 26 25  0  0  0  0  0  0  0  0999 V2000
    1.5351   -1.2072   -4.4319 C   0  0  0  0  0  0  0  0  0  0  0  0
    1.7862   -0.2580   -4.2460 H   0  0  0  0  0  0  0  0  0  0  0  0
    1.7954   -1.4471   -5.3654 H   0  0  0  0  0  0  0  0  0  0  0  0
    2.0783   -1.8524   -3.7415 H   0  0  0  0  0  0  0  0  0  0  0  0
    0.0242   -1.3445   -4.2998 C   0  0  0  0  0  0  0  0  0  0  0  0
   -0.3685   -0.4458   -4.0953 H   0  0  0  0  0  0  0  0  0  0  0  0
   -0.3504   -1.6778   -5.1667 H   0  0  0  0  0  0  0  0  0  0  0  0
   -0.3514   -2.2999   -3.2085 N   0  0  0  0  0  4  0  0  0  0  0  0
   -1.3214   -2.5213   -3.2882 H   0  0  0  0  0  0  0  0  0  0  0  0
    0.1936   -3.1304   -3.2997 H   0  0  0  0  0  0  0  0  0  0  0  0
   -0.1726   -1.8728   -2.3250 H   0  0  0  0  0  0  0  0  0  0  0  0
   -0.0046    2.8867    0.0117 C   0  0  0  0  0  0  0  0  0  0  0  0
   -0.5954    3.2003   -0.7161 H   0  0  0  0  0  0  0  0  0  0  0  0
    0.9238    3.2034   -0.1169 H   0  0  0  0  0  0  0  0  0  0  0  0
   -0.3745    3.3054    0.9477 H   0  0  0  0  0  0  0  0  0  0  0  0
    0.0030    1.4020   -0.0005 C   0  0  0  0  0  0  0  0  0  0  0  0
   -1.2011    0.6940    0.0006 C   0  0  0  0  0  0  0  0  0  0  0  0
   -2.0640    1.1910    0.0006 H   0  0  0  0  0  0  0  0  0  0  0  0
   -1.2160   -0.6987    0.0000 C   0  0  0  0  0  0  0  0  0  0  0  0
   -2.0887   -1.1902    0.0015 H   0  0  0  0  0  0  0  0  0  0  0  0
   -0.0060   -1.4030   -0.0002 C   0  0  0  0  0  0  0  0  0  0  0  0
   -0.0058   -2.3956   -0.0003 H   0  0  0  0  0  0  0  0  0  0  0  0
    1.2160   -0.6966   -0.0000 C   0  0  0  0  0  0  0  0  0  0  0  0
    2.0881   -1.1949    0.0020 H   0  0  0  0  0  0  0  0  0  0  0  0
    1.2040    0.7022    0.0000 C   0  0  0  0  0  0  0  0  0  0  0  0
    2.0693    1.1994    0.0002 H   0  0  0  0  0  0  0  0  0  0  0  0
  1  5  1  0
  5  8  1  0
  1  2  1  0
  1  3  1  0
  1  4  1  0
  5  6  1  0
  5  7  1  0
  8  9  1  0
  8 10  1  0
  8 11  1  0
 12 16  1  0
 16 17  2  0
 17 19  1  0
 19 21  2  0
 21 23  1  0
 23 25  2  0
 25 16  1  0
 12 13  1  0
 12 14  1  0
 12 15  1  0
 17 18  1  0
 19 20  1  0
 21 22  1  0
 23 24  1  0
 25 26  1  0
M  CHG  1   8   1
M  END
>  <PDB_ID>  (726) 
pdb1k0f

>  <RESIDUE_NAME>  (726) 
LYS   PHE

>  <FRAG_NAME>  (726) 
ETAM   MBZ

>  <FRAG_ATOM_NUM>  (726) 
fragi: 11  fragj: 15

>  <atom.prop.CHAIN_ID>  (726) 
A A A A A A A A A A A Z Z Z Z Z Z Z Z Z Z Z Z Z Z Z

>  <atom.prop.IS_HEAVY_ATOM>  (726) 
1 0 0 0 1 0 0 1 0 0 0 1 0 0 0 1 1 0 1 0 1 0 1 0 1 0

>  <DIFUSE_FUNC_ATOM>  (726) 
n/a

>  <FINAL_SINGLE_POINT_ENERGY>  (726) 
0

>  <NONCOV_INTER_ENERGY_QM>  (726) 
0

>  <FF_Energy>  (726) 
-5.06

>  <QM_Energy>  (726) 
-12.7

>  <source>  (726) 
ETAM_MBZ

>  <Index>  (726) 
7172

$$$$
ETAM-pdb1k3b-B-LYS-285:MBZ-pdb1k3b-A-PHE-78
     RDKit          3D

 26 25  0  0  0  0  0  0  0  0999 V2000
   -1.2574    2.4988    3.6382 C   0  0  0  0  0  0  0  0  0  0  0  0
   -0.2871    2.6523    3.7659 H   0  0  0  0  0  0  0  0  0  0  0  0
   -1.4295    1.6005    3.2577 H   0  0  0  0  0  0  0  0  0  0  0  0
   -1.7593    2.5798    4.6023 H   0  0  0  0  0  0  0  0  0  0  0  0
   -1.7890    3.5487    2.6595 C   0  0  0  0  0  0  0  0  0  0  0  0
   -1.3408    3.4109    1.7698 H   0  0  0  0  0  0  0  0  0  0  0  0
   -2.7783    3.4058    2.5442 H   0  0  0  0  0  0  0  0  0  0  0  0
   -1.5421    4.9328    3.1271 N   0  0  0  0  0  4  0  0  0  0  0  0
   -0.6207    4.9965    3.5130 H   0  0  0  0  0  0  0  0  0  0  0  0
   -1.6246    5.5661    2.3570 H   0  0  0  0  0  0  0  0  0  0  0  0
   -2.2134    5.1740    3.8295 H   0  0  0  0  0  0  0  0  0  0  0  0
    0.0130    2.9083   -0.0731 C   0  0  0  0  0  0  0  0  0  0  0  0
    0.5246    3.2425    0.6989 H   0  0  0  0  0  0  0  0  0  0  0  0
   -0.9211    3.2200   -0.0599 H   0  0  0  0  0  0  0  0  0  0  0  0
    0.4838    3.2858   -0.9809 H   0  0  0  0  0  0  0  0  0  0  0  0
   -0.0006    1.4006   -0.0013 C   0  0  0  0  0  0  0  0  0  0  0  0
   -1.1960    0.7032   -0.0008 C   0  0  0  0  0  0  0  0  0  0  0  0
   -2.0616    1.1926   -0.0020 H   0  0  0  0  0  0  0  0  0  0  0  0
   -1.2036   -0.6904    0.0000 C   0  0  0  0  0  0  0  0  0  0  0  0
   -2.0787   -1.1828    0.0016 H   0  0  0  0  0  0  0  0  0  0  0  0
    0.0025   -1.3932    0.0003 C   0  0  0  0  0  0  0  0  0  0  0  0
   -0.0091   -2.3910   -0.0001 H   0  0  0  0  0  0  0  0  0  0  0  0
    1.2036   -0.7023   -0.0000 C   0  0  0  0  0  0  0  0  0  0  0  0
    2.0829   -1.2005    0.0004 H   0  0  0  0  0  0  0  0  0  0  0  0
    1.1941    0.6822    0.0018 C   0  0  0  0  0  0  0  0  0  0  0  0
    2.0643    1.1836    0.0047 H   0  0  0  0  0  0  0  0  0  0  0  0
  1  5  1  0
  5  8  1  0
  1  2  1  0
  1  3  1  0
  1  4  1  0
  5  6  1  0
  5  7  1  0
  8  9  1  0
  8 10  1  0
  8 11  1  0
 12 16  1  0
 16 17  2  0
 17 19  1  0
 19 21  2  0
 21 23  1  0
 23 25  2  0
 25 16  1  0
 12 13  1  0
 12 14  1  0
 12 15  1  0
 17 18  1  0
 19 20  1  0
 21 22  1  0
 23 24  1  0
 25 26  1  0
M  CHG  1   8   1
M  END
>  <PDB_ID>  (727) 
pdb1k3b

>  <RESIDUE_NAME>  (727) 
LYS   PHE

>  <FRAG_NAME>  (727) 
ETAM   MBZ

>  <FRAG_ATOM_NUM>  (727) 
fragi: 11  fragj: 15

>  <atom.prop.CHAIN_ID>  (727) 
A A A A A A A A A A A Z Z Z Z Z Z Z Z Z Z Z Z Z Z Z

>  <atom.prop.IS_HEAVY_ATOM>  (727) 
1 0 0 0 1 0 0 1 0 0 0 1 0 0 0 1 1 0 1 0 1 0 1 0 1 0

>  <DIFUSE_FUNC_ATOM>  (727) 
n/a

>  <FINAL_SINGLE_POINT_ENERGY>  (727) 
0

>  <NONCOV_INTER_ENERGY_QM>  (727) 
0

>  <FF_Energy>  (727) 
2.79

>  <QM_Energy>  (727) 
-2.87

>  <source>  (727) 
ETAM_MBZ

>  <Index>  (727) 
7187

$$$$
ETAM-pdb2on5-D-LYS-96:MBZ-pdb2on5-D-PHE-65
     RDKit          3D

 26 25  0  0  0  0  0  0  0  0999 V2000
   -2.3058   -0.5189   -4.0768 C   0  0  0  0  0  0  0  0  0  0  0  0
   -1.4243   -0.0696   -4.0843 H   0  0  0  0  0  0  0  0  0  0  0  0
   -2.8276   -0.3020   -4.8883 H   0  0  0  0  0  0  0  0  0  0  0  0
   -2.1376   -1.5956   -4.0571 H   0  0  0  0  0  0  0  0  0  0  0  0
   -3.0805   -0.0797   -2.8529 C   0  0  0  0  0  0  0  0  0  0  0  0
   -4.0502   -0.3426   -2.9703 H   0  0  0  0  0  0  0  0  0  0  0  0
   -2.7250   -0.5766   -2.0469 H   0  0  0  0  0  0  0  0  0  0  0  0
   -2.9981    1.3741   -2.6018 N   0  0  0  0  0  4  0  0  0  0  0  0
   -2.6861    1.8418   -3.4303 H   0  0  0  0  0  0  0  0  0  0  0  0
   -3.9010    1.7238   -2.3451 H   0  0  0  0  0  0  0  0  0  0  0  0
   -2.3513    1.5510   -1.8580 H   0  0  0  0  0  0  0  0  0  0  0  0
   -0.0022    2.9500   -0.0205 C   0  0  0  0  0  0  0  0  0  0  0  0
   -0.7296    3.2415   -0.6145 H   0  0  0  0  0  0  0  0  0  0  0  0
    0.8800    3.2437   -0.3399 H   0  0  0  0  0  0  0  0  0  0  0  0
   -0.1704    3.3822    0.9659 H   0  0  0  0  0  0  0  0  0  0  0  0
   -0.0014    1.4196   -0.0158 C   0  0  0  0  0  0  0  0  0  0  0  0
   -1.2139    0.6970   -0.0011 C   0  0  0  0  0  0  0  0  0  0  0  0
   -2.0765    1.1809    0.0081 H   0  0  0  0  0  0  0  0  0  0  0  0
   -1.2179   -0.7184    0.0000 C   0  0  0  0  0  0  0  0  0  0  0  0
   -2.0767   -1.2138    0.0025 H   0  0  0  0  0  0  0  0  0  0  0  0
    0.0203   -1.4133   -0.0008 C   0  0  0  0  0  0  0  0  0  0  0  0
    0.0196   -2.4052   -0.0021 H   0  0  0  0  0  0  0  0  0  0  0  0
    1.2179   -0.6964    0.0000 C   0  0  0  0  0  0  0  0  0  0  0  0
    2.1045   -1.1763   -0.0105 H   0  0  0  0  0  0  0  0  0  0  0  0
    1.1950    0.7116    0.0177 C   0  0  0  0  0  0  0  0  0  0  0  0
    2.0650    1.2080    0.0543 H   0  0  0  0  0  0  0  0  0  0  0  0
  1  5  1  0
  5  8  1  0
  1  2  1  0
  1  3  1  0
  1  4  1  0
  5  6  1  0
  5  7  1  0
  8  9  1  0
  8 10  1  0
  8 11  1  0
 12 16  1  0
 16 17  2  0
 17 19  1  0
 19 21  2  0
 21 23  1  0
 23 25  2  0
 25 16  1  0
 12 13  1  0
 12 14  1  0
 12 15  1  0
 17 18  1  0
 19 20  1  0
 21 22  1  0
 23 24  1  0
 25 26  1  0
M  CHG  1   8   1
M  END
>  <PDB_ID>  (728) 
pdb2on5

>  <RESIDUE_NAME>  (728) 
LYS   PHE

>  <FRAG_NAME>  (728) 
ETAM   MBZ

>  <FRAG_ATOM_NUM>  (728) 
fragi: 11  fragj: 15

>  <atom.prop.CHAIN_ID>  (728) 
A A A A A A A A A A A Z Z Z Z Z Z Z Z Z Z Z Z Z Z Z

>  <atom.prop.IS_HEAVY_ATOM>  (728) 
1 0 0 0 1 0 0 1 0 0 0 1 0 0 0 1 1 0 1 0 1 0 1 0 1 0

>  <DIFUSE_FUNC_ATOM>  (728) 
n/a

>  <FINAL_SINGLE_POINT_ENERGY>  (728) 
0

>  <NONCOV_INTER_ENERGY_QM>  (728) 
0

>  <FF_Energy>  (728) 
-1.8

>  <QM_Energy>  (728) 
-8.79

>  <source>  (728) 
ETAM_MBZ

>  <Index>  (728) 
7194

$$$$
ETAM-pdb2osd-A-GLU-5:MBZ-pdb2osd-A-PHE-8
     RDKit          3D

 26 25  0  0  0  0  0  0  0  0999 V2000
    0.2209   -0.3639   -3.7331 C   0  0  0  0  0  0  0  0  0  0  0  0
   -0.0845   -0.0340   -2.8381 H   0  0  0  0  0  0  0  0  0  0  0  0
   -0.5051   -0.2132   -4.4051 H   0  0  0  0  0  0  0  0  0  0  0  0
    0.3692   -1.4406   -3.6496 H   0  0  0  0  0  0  0  0  0  0  0  0
    1.4159    0.5017   -4.1528 C   0  0  0  0  0  0  0  0  0  0  0  0
    1.7146    0.1373   -5.0361 H   0  0  0  0  0  0  0  0  0  0  0  0
    1.1260    1.5463   -4.2654 H   0  0  0  0  0  0  0  0  0  0  0  0
    2.5293    0.3603   -3.1673 N   0  0  0  0  0  4  0  0  0  0  0  0
    2.2043   -0.1575   -2.3804 H   0  0  0  0  0  0  0  0  0  0  0  0
    3.2870   -0.1215   -3.5993 H   0  0  0  0  0  0  0  0  0  0  0  0
    2.8251    1.2670   -2.8781 H   0  0  0  0  0  0  0  0  0  0  0  0
    0.0205    2.9437    0.0208 C   0  0  0  0  0  0  0  0  0  0  0  0
    0.6279    3.2493   -0.6933 H   0  0  0  0  0  0  0  0  0  0  0  0
    0.3354    3.2237    0.9127 H   0  0  0  0  0  0  0  0  0  0  0  0
   -0.9528    3.4040   -0.1493 H   0  0  0  0  0  0  0  0  0  0  0  0
    0.0036    1.4187   -0.0069 C   0  0  0  0  0  0  0  0  0  0  0  0
   -1.1932    0.6887    0.0043 C   0  0  0  0  0  0  0  0  0  0  0  0
   -2.0650    1.1724    0.0145 H   0  0  0  0  0  0  0  0  0  0  0  0
   -1.1972   -0.7155   -0.0000 C   0  0  0  0  0  0  0  0  0  0  0  0
   -2.0785   -1.2000   -0.0023 H   0  0  0  0  0  0  0  0  0  0  0  0
   -0.0045   -1.4044    0.0008 C   0  0  0  0  0  0  0  0  0  0  0  0
    0.0040   -2.4019    0.0020 H   0  0  0  0  0  0  0  0  0  0  0  0
    1.1972   -0.6967    0.0000 C   0  0  0  0  0  0  0  0  0  0  0  0
    2.0810   -1.1881   -0.0005 H   0  0  0  0  0  0  0  0  0  0  0  0
    1.1941    0.7092    0.0018 C   0  0  0  0  0  0  0  0  0  0  0  0
    2.0666    1.1952    0.0088 H   0  0  0  0  0  0  0  0  0  0  0  0
  1  5  1  0
  5  8  1  0
  1  2  1  0
  1  3  1  0
  1  4  1  0
  5  6  1  0
  5  7  1  0
  8  9  1  0
  8 10  1  0
  8 11  1  0
 12 16  1  0
 16 17  2  0
 17 19  1  0
 19 21  2  0
 21 23  1  0
 23 25  2  0
 25 16  1  0
 12 13  1  0
 12 14  1  0
 12 15  1  0
 17 18  1  0
 19 20  1  0
 21 22  1  0
 23 24  1  0
 25 26  1  0
M  CHG  1   8   1
M  END
>  <PDB_ID>  (729) 
pdb2osd

>  <RESIDUE_NAME>  (729) 
GLU   PHE

>  <FRAG_NAME>  (729) 
ETAM   MBZ

>  <FRAG_ATOM_NUM>  (729) 
fragi: 11  fragj: 15

>  <atom.prop.CHAIN_ID>  (729) 
A A A A A A A A A A A Z Z Z Z Z Z Z Z Z Z Z Z Z Z Z

>  <atom.prop.IS_HEAVY_ATOM>  (729) 
1 0 0 0 1 0 0 1 0 0 0 1 0 0 0 1 1 0 1 0 1 0 1 0 1 0

>  <DIFUSE_FUNC_ATOM>  (729) 
n/a

>  <FINAL_SINGLE_POINT_ENERGY>  (729) 
0

>  <NONCOV_INTER_ENERGY_QM>  (729) 
0

>  <FF_Energy>  (729) 
-5.44

>  <QM_Energy>  (729) 
-11.94

>  <source>  (729) 
ETAM_MBZ

>  <Index>  (729) 
7209

$$$$
ETAM-pdb2on5-F-LYS-96:MBZ-pdb2on5-F-PHE-65
     RDKit          3D

 26 25  0  0  0  0  0  0  0  0999 V2000
   -2.4420   -0.4843   -4.0658 C   0  0  0  0  0  0  0  0  0  0  0  0
   -1.6435   -0.0652   -4.4636 H   0  0  0  0  0  0  0  0  0  0  0  0
   -3.2549   -0.3000   -4.5916 H   0  0  0  0  0  0  0  0  0  0  0  0
   -2.2885   -1.5619   -4.0077 H   0  0  0  0  0  0  0  0  0  0  0  0
   -2.6361    0.0778   -2.6583 C   0  0  0  0  0  0  0  0  0  0  0  0
   -3.2678   -0.5305   -2.1571 H   0  0  0  0  0  0  0  0  0  0  0  0
   -1.7452    0.0583   -2.1819 H   0  0  0  0  0  0  0  0  0  0  0  0
   -3.1669    1.4525   -2.6522 N   0  0  0  0  0  4  0  0  0  0  0  0
   -2.5391    2.0556   -2.1567 H   0  0  0  0  0  0  0  0  0  0  0  0
   -3.2659    1.7815   -3.5935 H   0  0  0  0  0  0  0  0  0  0  0  0
   -4.0618    1.4682   -2.2023 H   0  0  0  0  0  0  0  0  0  0  0  0
    0.0050    2.9118    0.0324 C   0  0  0  0  0  0  0  0  0  0  0  0
   -0.7516    3.2280   -0.5090 H   0  0  0  0  0  0  0  0  0  0  0  0
    0.8695    3.2227   -0.3156 H   0  0  0  0  0  0  0  0  0  0  0  0
   -0.1145    3.3018    1.0432 H   0  0  0  0  0  0  0  0  0  0  0  0
    0.0052    1.4042   -0.0045 C   0  0  0  0  0  0  0  0  0  0  0  0
   -1.2052    0.6885   -0.0035 C   0  0  0  0  0  0  0  0  0  0  0  0
   -2.0659    1.1786   -0.0066 H   0  0  0  0  0  0  0  0  0  0  0  0
   -1.2075   -0.7105   -0.0000 C   0  0  0  0  0  0  0  0  0  0  0  0
   -2.0746   -1.2063    0.0117 H   0  0  0  0  0  0  0  0  0  0  0  0
    0.0093   -1.3966   -0.0116 C   0  0  0  0  0  0  0  0  0  0  0  0
    0.0135   -2.3944   -0.0287 H   0  0  0  0  0  0  0  0  0  0  0  0
    1.2075   -0.6872    0.0000 C   0  0  0  0  0  0  0  0  0  0  0  0
    2.0919   -1.1792   -0.0048 H   0  0  0  0  0  0  0  0  0  0  0  0
    1.1907    0.7015    0.0195 C   0  0  0  0  0  0  0  0  0  0  0  0
    2.0644    1.2001    0.0513 H   0  0  0  0  0  0  0  0  0  0  0  0
  1  5  1  0
  5  8  1  0
  1  2  1  0
  1  3  1  0
  1  4  1  0
  5  6  1  0
  5  7  1  0
  8  9  1  0
  8 10  1  0
  8 11  1  0
 12 16  1  0
 16 17  2  0
 17 19  1  0
 19 21  2  0
 21 23  1  0
 23 25  2  0
 25 16  1  0
 12 13  1  0
 12 14  1  0
 12 15  1  0
 17 18  1  0
 19 20  1  0
 21 22  1  0
 23 24  1  0
 25 26  1  0
M  CHG  1   8   1
M  END
>  <PDB_ID>  (730) 
pdb2on5

>  <RESIDUE_NAME>  (730) 
LYS   PHE

>  <FRAG_NAME>  (730) 
ETAM   MBZ

>  <FRAG_ATOM_NUM>  (730) 
fragi: 11  fragj: 15

>  <atom.prop.CHAIN_ID>  (730) 
A A A A A A A A A A A Z Z Z Z Z Z Z Z Z Z Z Z Z Z Z

>  <atom.prop.IS_HEAVY_ATOM>  (730) 
1 0 0 0 1 0 0 1 0 0 0 1 0 0 0 1 1 0 1 0 1 0 1 0 1 0

>  <DIFUSE_FUNC_ATOM>  (730) 
n/a

>  <FINAL_SINGLE_POINT_ENERGY>  (730) 
0

>  <NONCOV_INTER_ENERGY_QM>  (730) 
0

>  <FF_Energy>  (730) 
3.19

>  <QM_Energy>  (730) 
-4.45

>  <source>  (730) 
ETAM_MBZ

>  <Index>  (730) 
7222

$$$$
ETAM-pdb2on5-G-LYS-96:MBZ-pdb2on5-G-PHE-65
     RDKit          3D

 26 25  0  0  0  0  0  0  0  0999 V2000
   -2.1098   -0.6033   -4.0124 C   0  0  0  0  0  0  0  0  0  0  0  0
   -1.2210   -0.1623   -4.0481 H   0  0  0  0  0  0  0  0  0  0  0  0
   -2.6237   -0.4255   -4.8418 H   0  0  0  0  0  0  0  0  0  0  0  0
   -1.9819   -1.6778   -3.8809 H   0  0  0  0  0  0  0  0  0  0  0  0
   -2.8857   -0.0119   -2.8384 C   0  0  0  0  0  0  0  0  0  0  0  0
   -3.7509   -0.5237   -2.7351 H   0  0  0  0  0  0  0  0  0  0  0  0
   -2.3449   -0.1472   -1.9948 H   0  0  0  0  0  0  0  0  0  0  0  0
   -3.1905    1.4337   -2.9952 N   0  0  0  0  0  4  0  0  0  0  0  0
   -3.4856    1.6121   -3.9344 H   0  0  0  0  0  0  0  0  0  0  0  0
   -3.9199    1.6905   -2.3614 H   0  0  0  0  0  0  0  0  0  0  0  0
   -2.3706    1.9700   -2.7949 H   0  0  0  0  0  0  0  0  0  0  0  0
    0.0062    2.9319    0.0021 C   0  0  0  0  0  0  0  0  0  0  0  0
   -0.7023    3.2323   -0.6144 H   0  0  0  0  0  0  0  0  0  0  0  0
    0.8985    3.2334   -0.2906 H   0  0  0  0  0  0  0  0  0  0  0  0
   -0.1912    3.3783    0.9767 H   0  0  0  0  0  0  0  0  0  0  0  0
    0.0059    1.4160    0.0097 C   0  0  0  0  0  0  0  0  0  0  0  0
   -1.2066    0.7028   -0.0048 C   0  0  0  0  0  0  0  0  0  0  0  0
   -2.0678    1.1902   -0.0198 H   0  0  0  0  0  0  0  0  0  0  0  0
   -1.2141   -0.7073   -0.0000 C   0  0  0  0  0  0  0  0  0  0  0  0
   -2.0842   -1.1982    0.0070 H   0  0  0  0  0  0  0  0  0  0  0  0
    0.0067   -1.4165   -0.0030 C   0  0  0  0  0  0  0  0  0  0  0  0
    0.0033   -2.4048   -0.0074 H   0  0  0  0  0  0  0  0  0  0  0  0
    1.2141   -0.7012    0.0000 C   0  0  0  0  0  0  0  0  0  0  0  0
    2.0958   -1.1862    0.0046 H   0  0  0  0  0  0  0  0  0  0  0  0
    1.1940    0.7062   -0.0020 C   0  0  0  0  0  0  0  0  0  0  0  0
    2.0700    1.1985   -0.0125 H   0  0  0  0  0  0  0  0  0  0  0  0
  1  5  1  0
  5  8  1  0
  1  2  1  0
  1  3  1  0
  1  4  1  0
  5  6  1  0
  5  7  1  0
  8  9  1  0
  8 10  1  0
  8 11  1  0
 12 16  1  0
 16 17  2  0
 17 19  1  0
 19 21  2  0
 21 23  1  0
 23 25  2  0
 25 16  1  0
 12 13  1  0
 12 14  1  0
 12 15  1  0
 17 18  1  0
 19 20  1  0
 21 22  1  0
 23 24  1  0
 25 26  1  0
M  CHG  1   8   1
M  END
>  <PDB_ID>  (731) 
pdb2on5

>  <RESIDUE_NAME>  (731) 
LYS   PHE

>  <FRAG_NAME>  (731) 
ETAM   MBZ

>  <FRAG_ATOM_NUM>  (731) 
fragi: 11  fragj: 15

>  <atom.prop.CHAIN_ID>  (731) 
A A A A A A A A A A A Z Z Z Z Z Z Z Z Z Z Z Z Z Z Z

>  <atom.prop.IS_HEAVY_ATOM>  (731) 
1 0 0 0 1 0 0 1 0 0 0 1 0 0 0 1 1 0 1 0 1 0 1 0 1 0

>  <DIFUSE_FUNC_ATOM>  (731) 
n/a

>  <FINAL_SINGLE_POINT_ENERGY>  (731) 
0

>  <NONCOV_INTER_ENERGY_QM>  (731) 
0

>  <FF_Energy>  (731) 
0.87

>  <QM_Energy>  (731) 
-5.58

>  <source>  (731) 
ETAM_MBZ

>  <Index>  (731) 
7223

$$$$
ETAM-pdb2on5-H-LYS-96:MBZ-pdb2on5-H-PHE-65
     RDKit          3D

 26 25  0  0  0  0  0  0  0  0999 V2000
   -2.5165   -0.6442   -4.0389 C   0  0  0  0  0  0  0  0  0  0  0  0
   -1.6612   -0.2097   -4.3018 H   0  0  0  0  0  0  0  0  0  0  0  0
   -3.2007   -0.5202   -4.7504 H   0  0  0  0  0  0  0  0  0  0  0  0
   -2.3406   -1.7110   -3.9009 H   0  0  0  0  0  0  0  0  0  0  0  0
   -3.0140   -0.0151   -2.7670 C   0  0  0  0  0  0  0  0  0  0  0  0
   -3.9416   -0.3475   -2.5733 H   0  0  0  0  0  0  0  0  0  0  0  0
   -2.4112   -0.2801   -2.0083 H   0  0  0  0  0  0  0  0  0  0  0  0
   -3.0413    1.4633   -2.8705 N   0  0  0  0  0  4  0  0  0  0  0  0
   -2.1667    1.8370   -2.5593 H   0  0  0  0  0  0  0  0  0  0  0  0
   -3.1957    1.7292   -3.8223 H   0  0  0  0  0  0  0  0  0  0  0  0
   -3.7794    1.8249   -2.3001 H   0  0  0  0  0  0  0  0  0  0  0  0
    0.0017    2.9161   -0.0153 C   0  0  0  0  0  0  0  0  0  0  0  0
   -0.7196    3.2128   -0.6210 H   0  0  0  0  0  0  0  0  0  0  0  0
    0.8876    3.2164   -0.3318 H   0  0  0  0  0  0  0  0  0  0  0  0
   -0.1756    3.3620    0.9633 H   0  0  0  0  0  0  0  0  0  0  0  0
    0.0031    1.4054   -0.0032 C   0  0  0  0  0  0  0  0  0  0  0  0
   -1.2055    0.6917   -0.0122 C   0  0  0  0  0  0  0  0  0  0  0  0
   -2.0664    1.1852   -0.0284 H   0  0  0  0  0  0  0  0  0  0  0  0
   -1.2096   -0.6998    0.0000 C   0  0  0  0  0  0  0  0  0  0  0  0
   -2.0786   -1.1986    0.0094 H   0  0  0  0  0  0  0  0  0  0  0  0
    0.0062   -1.3971    0.0008 C   0  0  0  0  0  0  0  0  0  0  0  0
    0.0024   -2.3936    0.0018 H   0  0  0  0  0  0  0  0  0  0  0  0
    1.2096   -0.6954   -0.0000 C   0  0  0  0  0  0  0  0  0  0  0  0
    2.0903   -1.1901   -0.0096 H   0  0  0  0  0  0  0  0  0  0  0  0
    1.1962    0.6953    0.0146 C   0  0  0  0  0  0  0  0  0  0  0  0
    2.0671    1.1943    0.0373 H   0  0  0  0  0  0  0  0  0  0  0  0
  1  5  1  0
  5  8  1  0
  1  2  1  0
  1  3  1  0
  1  4  1  0
  5  6  1  0
  5  7  1  0
  8  9  1  0
  8 10  1  0
  8 11  1  0
 12 16  1  0
 16 17  2  0
 17 19  1  0
 19 21  2  0
 21 23  1  0
 23 25  2  0
 25 16  1  0
 12 13  1  0
 12 14  1  0
 12 15  1  0
 17 18  1  0
 19 20  1  0
 21 22  1  0
 23 24  1  0
 25 26  1  0
M  CHG  1   8   1
M  END
>  <PDB_ID>  (732) 
pdb2on5

>  <RESIDUE_NAME>  (732) 
LYS   PHE

>  <FRAG_NAME>  (732) 
ETAM   MBZ

>  <FRAG_ATOM_NUM>  (732) 
fragi: 11  fragj: 15

>  <atom.prop.CHAIN_ID>  (732) 
A A A A A A A A A A A Z Z Z Z Z Z Z Z Z Z Z Z Z Z Z

>  <atom.prop.IS_HEAVY_ATOM>  (732) 
1 0 0 0 1 0 0 1 0 0 0 1 0 0 0 1 1 0 1 0 1 0 1 0 1 0

>  <DIFUSE_FUNC_ATOM>  (732) 
n/a

>  <FINAL_SINGLE_POINT_ENERGY>  (732) 
0

>  <NONCOV_INTER_ENERGY_QM>  (732) 
0

>  <FF_Energy>  (732) 
0.1

>  <QM_Energy>  (732) 
-6.45

>  <source>  (732) 
ETAM_MBZ

>  <Index>  (732) 
7224

$$$$
ETAM-pdb2ov5-A-ALA-30:MBZ-pdb2ov5-A-PHE-33
     RDKit          3D

 26 25  0  0  0  0  0  0  0  0999 V2000
   -5.0379    3.0514    1.1341 C   0  0  0  0  0  0  0  0  0  0  0  0
   -5.4792    3.6602    1.7925 H   0  0  0  0  0  0  0  0  0  0  0  0
   -5.0771    3.4629    0.2242 H   0  0  0  0  0  0  0  0  0  0  0  0
   -5.5157    2.1729    1.1228 H   0  0  0  0  0  0  0  0  0  0  0  0
   -3.5860    2.8364    1.5334 C   0  0  0  0  0  0  0  0  0  0  0  0
   -3.0578    2.5632    0.7307 H   0  0  0  0  0  0  0  0  0  0  0  0
   -3.1643    3.7537    1.9442 H   0  0  0  0  0  0  0  0  0  0  0  0
   -3.4929    1.7361    2.5429 N   0  0  0  0  0  4  0  0  0  0  0  0
   -3.4623    2.1346    3.4553 H   0  0  0  0  0  0  0  0  0  0  0  0
   -4.2918    1.1481    2.4556 H   0  0  0  0  0  0  0  0  0  0  0  0
   -2.6638    1.2106    2.3737 H   0  0  0  0  0  0  0  0  0  0  0  0
    0.0042    2.9082    0.0098 C   0  0  0  0  0  0  0  0  0  0  0  0
   -0.9104    3.2167    0.2225 H   0  0  0  0  0  0  0  0  0  0  0  0
    0.2924    3.2193   -0.8829 H   0  0  0  0  0  0  0  0  0  0  0  0
    0.6814    3.3394    0.7470 H   0  0  0  0  0  0  0  0  0  0  0  0
   -0.0012    1.4050    0.0003 C   0  0  0  0  0  0  0  0  0  0  0  0
   -1.2003    0.7002   -0.0009 C   0  0  0  0  0  0  0  0  0  0  0  0
   -2.0657    1.1902   -0.0040 H   0  0  0  0  0  0  0  0  0  0  0  0
   -1.2064   -0.6948   -0.0000 C   0  0  0  0  0  0  0  0  0  0  0  0
   -2.0807   -1.1885    0.0013 H   0  0  0  0  0  0  0  0  0  0  0  0
    0.0023   -1.3981    0.0013 C   0  0  0  0  0  0  0  0  0  0  0  0
   -0.0074   -2.3949    0.0029 H   0  0  0  0  0  0  0  0  0  0  0  0
    1.2064   -0.7042    0.0000 C   0  0  0  0  0  0  0  0  0  0  0  0
    2.0857   -1.1996    0.0006 H   0  0  0  0  0  0  0  0  0  0  0  0
    1.1992    0.6918   -0.0007 C   0  0  0  0  0  0  0  0  0  0  0  0
    2.0668    1.1886   -0.0027 H   0  0  0  0  0  0  0  0  0  0  0  0
  1  5  1  0
  5  8  1  0
  1  2  1  0
  1  3  1  0
  1  4  1  0
  5  6  1  0
  5  7  1  0
  8  9  1  0
  8 10  1  0
  8 11  1  0
 12 16  1  0
 16 17  2  0
 17 19  1  0
 19 21  2  0
 21 23  1  0
 23 25  2  0
 25 16  1  0
 12 13  1  0
 12 14  1  0
 12 15  1  0
 17 18  1  0
 19 20  1  0
 21 22  1  0
 23 24  1  0
 25 26  1  0
M  CHG  1   8   1
M  END
>  <PDB_ID>  (733) 
pdb2ov5

>  <RESIDUE_NAME>  (733) 
ALA   PHE

>  <FRAG_NAME>  (733) 
ETAM   MBZ

>  <FRAG_ATOM_NUM>  (733) 
fragi: 11  fragj: 15

>  <atom.prop.CHAIN_ID>  (733) 
A A A A A A A A A A A Z Z Z Z Z Z Z Z Z Z Z Z Z Z Z

>  <atom.prop.IS_HEAVY_ATOM>  (733) 
1 0 0 0 1 0 0 1 0 0 0 1 0 0 0 1 1 0 1 0 1 0 1 0 1 0

>  <DIFUSE_FUNC_ATOM>  (733) 
n/a

>  <FINAL_SINGLE_POINT_ENERGY>  (733) 
0

>  <NONCOV_INTER_ENERGY_QM>  (733) 
0

>  <FF_Energy>  (733) 
0.95

>  <QM_Energy>  (733) 
-5.2

>  <source>  (733) 
ETAM_MBZ

>  <Index>  (733) 
7235

$$$$
ETAM-pdb2oug-B-LYS-151:MBZ-pdb2oug-B-PHE-81
     RDKit          3D

 26 25  0  0  0  0  0  0  0  0999 V2000
   -2.9536   -4.4645    0.0621 C   0  0  0  0  0  0  0  0  0  0  0  0
   -3.7489   -4.7043   -0.4806 H   0  0  0  0  0  0  0  0  0  0  0  0
   -2.5318   -5.2778    0.4447 H   0  0  0  0  0  0  0  0  0  0  0  0
   -2.2296   -3.9727   -0.5876 H   0  0  0  0  0  0  0  0  0  0  0  0
   -3.3857   -3.5536    1.1956 C   0  0  0  0  0  0  0  0  0  0  0  0
   -3.9667   -2.8366    0.8309 H   0  0  0  0  0  0  0  0  0  0  0  0
   -3.8758   -4.0889    1.8732 H   0  0  0  0  0  0  0  0  0  0  0  0
   -2.1834   -2.9540    1.8110 N   0  0  0  0  0  4  0  0  0  0  0  0
   -2.2501   -3.0133    2.8084 H   0  0  0  0  0  0  0  0  0  0  0  0
   -1.3667   -3.4462    1.5045 H   0  0  0  0  0  0  0  0  0  0  0  0
   -2.1101   -1.9924    1.5405 H   0  0  0  0  0  0  0  0  0  0  0  0
   -0.0025    2.8984    0.0945 C   0  0  0  0  0  0  0  0  0  0  0  0
   -0.6540    3.2530   -0.5548 H   0  0  0  0  0  0  0  0  0  0  0  0
    0.9091    3.2277   -0.0839 H   0  0  0  0  0  0  0  0  0  0  0  0
   -0.2927    3.2658    1.0790 H   0  0  0  0  0  0  0  0  0  0  0  0
    0.0008    1.4111    0.0032 C   0  0  0  0  0  0  0  0  0  0  0  0
   -1.1983    0.7150   -0.0003 C   0  0  0  0  0  0  0  0  0  0  0  0
   -2.0628    1.2017   -0.0050 H   0  0  0  0  0  0  0  0  0  0  0  0
   -1.2045   -0.6852   -0.0000 C   0  0  0  0  0  0  0  0  0  0  0  0
   -2.0884   -1.1733    0.0018 H   0  0  0  0  0  0  0  0  0  0  0  0
   -0.0057   -1.4088   -0.0009 C   0  0  0  0  0  0  0  0  0  0  0  0
   -0.0306   -2.4031   -0.0029 H   0  0  0  0  0  0  0  0  0  0  0  0
    1.2045   -0.7284    0.0000 C   0  0  0  0  0  0  0  0  0  0  0  0
    2.0810   -1.2140    0.0035 H   0  0  0  0  0  0  0  0  0  0  0  0
    1.2032    0.6962   -0.0020 C   0  0  0  0  0  0  0  0  0  0  0  0
    2.0722    1.1772   -0.0073 H   0  0  0  0  0  0  0  0  0  0  0  0
  1  5  1  0
  5  8  1  0
  1  2  1  0
  1  3  1  0
  1  4  1  0
  5  6  1  0
  5  7  1  0
  8  9  1  0
  8 10  1  0
  8 11  1  0
 12 16  1  0
 16 17  2  0
 17 19  1  0
 19 21  2  0
 21 23  1  0
 23 25  2  0
 25 16  1  0
 12 13  1  0
 12 14  1  0
 12 15  1  0
 17 18  1  0
 19 20  1  0
 21 22  1  0
 23 24  1  0
 25 26  1  0
M  CHG  1   8   1
M  END
>  <PDB_ID>  (734) 
pdb2oug

>  <RESIDUE_NAME>  (734) 
LYS   PHE

>  <FRAG_NAME>  (734) 
ETAM   MBZ

>  <FRAG_ATOM_NUM>  (734) 
fragi: 11  fragj: 15

>  <atom.prop.CHAIN_ID>  (734) 
A A A A A A A A A A A Z Z Z Z Z Z Z Z Z Z Z Z Z Z Z

>  <atom.prop.IS_HEAVY_ATOM>  (734) 
1 0 0 0 1 0 0 1 0 0 0 1 0 0 0 1 1 0 1 0 1 0 1 0 1 0

>  <DIFUSE_FUNC_ATOM>  (734) 
n/a

>  <FINAL_SINGLE_POINT_ENERGY>  (734) 
0

>  <NONCOV_INTER_ENERGY_QM>  (734) 
0

>  <FF_Energy>  (734) 
1.09

>  <QM_Energy>  (734) 
-7.34

>  <source>  (734) 
ETAM_MBZ

>  <Index>  (734) 
7241

$$$$
ETAM-pdb1k9e-A-LYS-418:MBZ-pdb1k9e-A-PHE-433
     RDKit          3D

 26 25  0  0  0  0  0  0  0  0999 V2000
   -4.1682   -1.0520   -2.8917 C   0  0  0  0  0  0  0  0  0  0  0  0
   -3.4760   -0.8200   -3.5718 H   0  0  0  0  0  0  0  0  0  0  0  0
   -5.0789   -0.9490   -3.2856 H   0  0  0  0  0  0  0  0  0  0  0  0
   -4.0311   -2.0915   -2.5935 H   0  0  0  0  0  0  0  0  0  0  0  0
   -4.0349   -0.1057   -1.7200 C   0  0  0  0  0  0  0  0  0  0  0  0
   -4.6636   -0.3893   -0.9954 H   0  0  0  0  0  0  0  0  0  0  0  0
   -3.0959   -0.1385   -1.3751 H   0  0  0  0  0  0  0  0  0  0  0  0
   -4.3566    1.2903   -2.1250 N   0  0  0  0  0  4  0  0  0  0  0  0
   -5.1070    1.6341   -1.5615 H   0  0  0  0  0  0  0  0  0  0  0  0
   -3.5501    1.8669   -1.9968 H   0  0  0  0  0  0  0  0  0  0  0  0
   -4.6275    1.3020   -3.0867 H   0  0  0  0  0  0  0  0  0  0  0  0
   -0.0001    2.9043    0.0445 C   0  0  0  0  0  0  0  0  0  0  0  0
    0.9389    3.2126    0.0100 H   0  0  0  0  0  0  0  0  0  0  0  0
   -0.4402    3.1876    0.8849 H   0  0  0  0  0  0  0  0  0  0  0  0
   -0.5335    3.3719   -0.7832 H   0  0  0  0  0  0  0  0  0  0  0  0
    0.0001    1.4038    0.0011 C   0  0  0  0  0  0  0  0  0  0  0  0
   -1.1977    0.6953   -0.0015 C   0  0  0  0  0  0  0  0  0  0  0  0
   -2.0647    1.1847   -0.0059 H   0  0  0  0  0  0  0  0  0  0  0  0
   -1.2045   -0.6995    0.0000 C   0  0  0  0  0  0  0  0  0  0  0  0
   -2.0810   -1.1912    0.0015 H   0  0  0  0  0  0  0  0  0  0  0  0
   -0.0012   -1.3978    0.0014 C   0  0  0  0  0  0  0  0  0  0  0  0
   -0.0026   -2.3949    0.0029 H   0  0  0  0  0  0  0  0  0  0  0  0
    1.2045   -0.6967    0.0000 C   0  0  0  0  0  0  0  0  0  0  0  0
    2.0844   -1.1951    0.0015 H   0  0  0  0  0  0  0  0  0  0  0  0
    1.1987    0.6949   -0.0009 C   0  0  0  0  0  0  0  0  0  0  0  0
    2.0662    1.1924   -0.0038 H   0  0  0  0  0  0  0  0  0  0  0  0
  1  5  1  0
  5  8  1  0
  1  2  1  0
  1  3  1  0
  1  4  1  0
  5  6  1  0
  5  7  1  0
  8  9  1  0
  8 10  1  0
  8 11  1  0
 12 16  1  0
 16 17  2  0
 17 19  1  0
 19 21  2  0
 21 23  1  0
 23 25  2  0
 25 16  1  0
 12 13  1  0
 12 14  1  0
 12 15  1  0
 17 18  1  0
 19 20  1  0
 21 22  1  0
 23 24  1  0
 25 26  1  0
M  CHG  1   8   1
M  END
>  <PDB_ID>  (735) 
pdb1k9e

>  <RESIDUE_NAME>  (735) 
LYS   PHE

>  <FRAG_NAME>  (735) 
ETAM   MBZ

>  <FRAG_ATOM_NUM>  (735) 
fragi: 11  fragj: 15

>  <atom.prop.CHAIN_ID>  (735) 
A A A A A A A A A A A Z Z Z Z Z Z Z Z Z Z Z Z Z Z Z

>  <atom.prop.IS_HEAVY_ATOM>  (735) 
1 0 0 0 1 0 0 1 0 0 0 1 0 0 0 1 1 0 1 0 1 0 1 0 1 0

>  <DIFUSE_FUNC_ATOM>  (735) 
n/a

>  <FINAL_SINGLE_POINT_ENERGY>  (735) 
0

>  <NONCOV_INTER_ENERGY_QM>  (735) 
0

>  <FF_Energy>  (735) 
3.27

>  <QM_Energy>  (735) 
-3.45

>  <source>  (735) 
ETAM_MBZ

>  <Index>  (735) 
7245

$$$$
ETAM-pdb2ovr-A-LYS-1121:MBZ-pdb2ovr-B-PHE-2295
     RDKit          3D

 26 25  0  0  0  0  0  0  0  0999 V2000
    4.8532    0.1531   -1.6279 C   0  0  0  0  0  0  0  0  0  0  0  0
    5.4947   -0.1672   -2.3105 H   0  0  0  0  0  0  0  0  0  0  0  0
    5.3048    0.7162   -0.9508 H   0  0  0  0  0  0  0  0  0  0  0  0
    4.0790    0.7422   -2.1195 H   0  0  0  0  0  0  0  0  0  0  0  0
    4.2506   -1.0682   -0.9183 C   0  0  0  0  0  0  0  0  0  0  0  0
    3.5348   -0.7466   -0.2781 H   0  0  0  0  0  0  0  0  0  0  0  0
    3.7977   -1.6506   -1.6115 H   0  0  0  0  0  0  0  0  0  0  0  0
    5.2406   -1.9005   -0.1588 N   0  0  0  0  0  4  0  0  0  0  0  0
    6.1212   -1.8665   -0.6267 H   0  0  0  0  0  0  0  0  0  0  0  0
    5.3327   -1.5347    0.7649 H   0  0  0  0  0  0  0  0  0  0  0  0
    4.9129   -2.8424   -0.1198 H   0  0  0  0  0  0  0  0  0  0  0  0
   -0.0065    2.8945    0.0063 C   0  0  0  0  0  0  0  0  0  0  0  0
   -0.5867    3.2058   -0.7340 H   0  0  0  0  0  0  0  0  0  0  0  0
    0.9238    3.2113   -0.1133 H   0  0  0  0  0  0  0  0  0  0  0  0
   -0.3870    3.3309    0.9298 H   0  0  0  0  0  0  0  0  0  0  0  0
    0.0017    1.4015   -0.0006 C   0  0  0  0  0  0  0  0  0  0  0  0
   -1.1916    0.6918   -0.0002 C   0  0  0  0  0  0  0  0  0  0  0  0
   -2.0605    1.1813   -0.0014 H   0  0  0  0  0  0  0  0  0  0  0  0
   -1.2001   -0.7012   -0.0000 C   0  0  0  0  0  0  0  0  0  0  0  0
   -2.0809   -1.1889    0.0005 H   0  0  0  0  0  0  0  0  0  0  0  0
   -0.0068   -1.3963    0.0015 C   0  0  0  0  0  0  0  0  0  0  0  0
   -0.0039   -2.3940    0.0035 H   0  0  0  0  0  0  0  0  0  0  0  0
    1.2001   -0.6956    0.0000 C   0  0  0  0  0  0  0  0  0  0  0  0
    2.0797   -1.1939    0.0011 H   0  0  0  0  0  0  0  0  0  0  0  0
    1.1967    0.6998   -0.0007 C   0  0  0  0  0  0  0  0  0  0  0  0
    2.0651    1.1926   -0.0024 H   0  0  0  0  0  0  0  0  0  0  0  0
  1  5  1  0
  5  8  1  0
  1  2  1  0
  1  3  1  0
  1  4  1  0
  5  6  1  0
  5  7  1  0
  8  9  1  0
  8 10  1  0
  8 11  1  0
 12 16  1  0
 16 17  2  0
 17 19  1  0
 19 21  2  0
 21 23  1  0
 23 25  2  0
 25 16  1  0
 12 13  1  0
 12 14  1  0
 12 15  1  0
 17 18  1  0
 19 20  1  0
 21 22  1  0
 23 24  1  0
 25 26  1  0
M  CHG  1   8   1
M  END
>  <PDB_ID>  (736) 
pdb2ovr

>  <RESIDUE_NAME>  (736) 
LYS   PHE

>  <FRAG_NAME>  (736) 
ETAM   MBZ

>  <FRAG_ATOM_NUM>  (736) 
fragi: 11  fragj: 15

>  <atom.prop.CHAIN_ID>  (736) 
A A A A A A A A A A A Z Z Z Z Z Z Z Z Z Z Z Z Z Z Z

>  <atom.prop.IS_HEAVY_ATOM>  (736) 
1 0 0 0 1 0 0 1 0 0 0 1 0 0 0 1 1 0 1 0 1 0 1 0 1 0

>  <DIFUSE_FUNC_ATOM>  (736) 
n/a

>  <FINAL_SINGLE_POINT_ENERGY>  (736) 
0

>  <NONCOV_INTER_ENERGY_QM>  (736) 
0

>  <FF_Energy>  (736) 
28.93

>  <QM_Energy>  (736) 
1.92

>  <source>  (736) 
ETAM_MBZ

>  <Index>  (736) 
7246

$$$$
ETAM-pdb1k9o-E-LYS-60:MBZ-pdb1k9o-E-PHE-41
     RDKit          3D

 26 25  0  0  0  0  0  0  0  0999 V2000
   -0.0559   -0.8389   -3.6766 C   0  0  0  0  0  0  0  0  0  0  0  0
    0.1695   -0.9211   -2.7107 H   0  0  0  0  0  0  0  0  0  0  0  0
    0.7040   -1.1561   -4.2359 H   0  0  0  0  0  0  0  0  0  0  0  0
   -0.9325   -1.4510   -3.8884 H   0  0  0  0  0  0  0  0  0  0  0  0
   -0.3289    0.5953   -3.9937 C   0  0  0  0  0  0  0  0  0  0  0  0
   -0.4963    0.6950   -4.9718 H   0  0  0  0  0  0  0  0  0  0  0  0
   -1.1253    0.9057   -3.4796 H   0  0  0  0  0  0  0  0  0  0  0  0
    0.8421    1.4071   -3.6140 N   0  0  0  0  0  4  0  0  0  0  0  0
    0.9673    1.3763   -2.6209 H   0  0  0  0  0  0  0  0  0  0  0  0
    1.6634    1.0462   -4.0613 H   0  0  0  0  0  0  0  0  0  0  0  0
    0.7022    2.3573   -3.8998 H   0  0  0  0  0  0  0  0  0  0  0  0
    0.0001    2.8858   -0.0256 C   0  0  0  0  0  0  0  0  0  0  0  0
   -0.8710    3.1948   -0.3869 H   0  0  0  0  0  0  0  0  0  0  0  0
    0.7478    3.1905   -0.6023 H   0  0  0  0  0  0  0  0  0  0  0  0
    0.1316    3.3533    0.9503 H   0  0  0  0  0  0  0  0  0  0  0  0
   -0.0010    1.3994    0.0007 C   0  0  0  0  0  0  0  0  0  0  0  0
   -1.1955    0.6926   -0.0007 C   0  0  0  0  0  0  0  0  0  0  0  0
   -2.0629    1.1795   -0.0037 H   0  0  0  0  0  0  0  0  0  0  0  0
   -1.1955   -0.6995   -0.0000 C   0  0  0  0  0  0  0  0  0  0  0  0
   -2.0712   -1.1943    0.0021 H   0  0  0  0  0  0  0  0  0  0  0  0
    0.0052   -1.3879   -0.0010 C   0  0  0  0  0  0  0  0  0  0  0  0
    0.0007   -2.3912   -0.0030 H   0  0  0  0  0  0  0  0  0  0  0  0
    1.1955   -0.6974    0.0000 C   0  0  0  0  0  0  0  0  0  0  0  0
    2.0817   -1.1916    0.0014 H   0  0  0  0  0  0  0  0  0  0  0  0
    1.1913    0.6927    0.0010 C   0  0  0  0  0  0  0  0  0  0  0  0
    2.0616    1.1873    0.0006 H   0  0  0  0  0  0  0  0  0  0  0  0
  1  5  1  0
  5  8  1  0
  1  2  1  0
  1  3  1  0
  1  4  1  0
  5  6  1  0
  5  7  1  0
  8  9  1  0
  8 10  1  0
  8 11  1  0
 12 16  1  0
 16 17  2  0
 17 19  1  0
 19 21  2  0
 21 23  1  0
 23 25  2  0
 25 16  1  0
 12 13  1  0
 12 14  1  0
 12 15  1  0
 17 18  1  0
 19 20  1  0
 21 22  1  0
 23 24  1  0
 25 26  1  0
M  CHG  1   8   1
M  END
>  <PDB_ID>  (737) 
pdb1k9o

>  <RESIDUE_NAME>  (737) 
LYS   PHE

>  <FRAG_NAME>  (737) 
ETAM   MBZ

>  <FRAG_ATOM_NUM>  (737) 
fragi: 11  fragj: 15

>  <atom.prop.CHAIN_ID>  (737) 
A A A A A A A A A A A Z Z Z Z Z Z Z Z Z Z Z Z Z Z Z

>  <atom.prop.IS_HEAVY_ATOM>  (737) 
1 0 0 0 1 0 0 1 0 0 0 1 0 0 0 1 1 0 1 0 1 0 1 0 1 0

>  <DIFUSE_FUNC_ATOM>  (737) 
n/a

>  <FINAL_SINGLE_POINT_ENERGY>  (737) 
0

>  <NONCOV_INTER_ENERGY_QM>  (737) 
0

>  <FF_Energy>  (737) 
-7.28

>  <QM_Energy>  (737) 
-12.7

>  <source>  (737) 
ETAM_MBZ

>  <Index>  (737) 
7249

$$$$
ETAM-pdb2ox8-A-LYS-638:MBZ-pdb2ox8-A-PHE-634
     RDKit          3D

 26 25  0  0  0  0  0  0  0  0999 V2000
    0.9414   -1.0923    4.3093 C   0  0  0  0  0  0  0  0  0  0  0  0
    1.0749   -2.0103    4.6665 H   0  0  0  0  0  0  0  0  0  0  0  0
    0.7478   -0.4561    5.0478 H   0  0  0  0  0  0  0  0  0  0  0  0
    1.8471   -0.7753    3.7922 H   0  0  0  0  0  0  0  0  0  0  0  0
   -0.2524   -1.1115    3.3643 C   0  0  0  0  0  0  0  0  0  0  0  0
   -0.0581   -1.7646    2.6128 H   0  0  0  0  0  0  0  0  0  0  0  0
   -1.0573   -1.4693    3.8687 H   0  0  0  0  0  0  0  0  0  0  0  0
   -0.5952    0.2093    2.7811 N   0  0  0  0  0  4  0  0  0  0  0  0
   -1.1200    0.0764    1.9396 H   0  0  0  0  0  0  0  0  0  0  0  0
   -1.1420    0.7316    3.4365 H   0  0  0  0  0  0  0  0  0  0  0  0
    0.2452    0.7104    2.5732 H   0  0  0  0  0  0  0  0  0  0  0  0
    0.0042    2.9076   -0.0023 C   0  0  0  0  0  0  0  0  0  0  0  0
   -0.9049    3.2172   -0.2389 H   0  0  0  0  0  0  0  0  0  0  0  0
    0.6716    3.2116   -0.6662 H   0  0  0  0  0  0  0  0  0  0  0  0
    0.2660    3.3516    0.9581 H   0  0  0  0  0  0  0  0  0  0  0  0
   -0.0010    1.4053    0.0007 C   0  0  0  0  0  0  0  0  0  0  0  0
   -1.1977    0.7039    0.0000 C   0  0  0  0  0  0  0  0  0  0  0  0
   -2.0647    1.1924   -0.0013 H   0  0  0  0  0  0  0  0  0  0  0  0
   -1.2086   -0.6958   -0.0000 C   0  0  0  0  0  0  0  0  0  0  0  0
   -2.0857   -1.1823    0.0013 H   0  0  0  0  0  0  0  0  0  0  0  0
   -0.0056   -1.3976   -0.0005 C   0  0  0  0  0  0  0  0  0  0  0  0
   -0.0113   -2.3949   -0.0022 H   0  0  0  0  0  0  0  0  0  0  0  0
    1.2086   -0.7034    0.0000 C   0  0  0  0  0  0  0  0  0  0  0  0
    2.0819   -1.2061    0.0016 H   0  0  0  0  0  0  0  0  0  0  0  0
    1.2043    0.6876   -0.0002 C   0  0  0  0  0  0  0  0  0  0  0  0
    2.0690    1.1873   -0.0021 H   0  0  0  0  0  0  0  0  0  0  0  0
  1  5  1  0
  5  8  1  0
  1  2  1  0
  1  3  1  0
  1  4  1  0
  5  6  1  0
  5  7  1  0
  8  9  1  0
  8 10  1  0
  8 11  1  0
 12 16  1  0
 16 17  2  0
 17 19  1  0
 19 21  2  0
 21 23  1  0
 23 25  2  0
 25 16  1  0
 12 13  1  0
 12 14  1  0
 12 15  1  0
 17 18  1  0
 19 20  1  0
 21 22  1  0
 23 24  1  0
 25 26  1  0
M  CHG  1   8   1
M  END
>  <PDB_ID>  (738) 
pdb2ox8

>  <RESIDUE_NAME>  (738) 
LYS   PHE

>  <FRAG_NAME>  (738) 
ETAM   MBZ

>  <FRAG_ATOM_NUM>  (738) 
fragi: 11  fragj: 15

>  <atom.prop.CHAIN_ID>  (738) 
A A A A A A A A A A A Z Z Z Z Z Z Z Z Z Z Z Z Z Z Z

>  <atom.prop.IS_HEAVY_ATOM>  (738) 
1 0 0 0 1 0 0 1 0 0 0 1 0 0 0 1 1 0 1 0 1 0 1 0 1 0

>  <DIFUSE_FUNC_ATOM>  (738) 
n/a

>  <FINAL_SINGLE_POINT_ENERGY>  (738) 
0

>  <NONCOV_INTER_ENERGY_QM>  (738) 
0

>  <FF_Energy>  (738) 
-6.38

>  <QM_Energy>  (738) 
-15.82

>  <source>  (738) 
ETAM_MBZ

>  <Index>  (738) 
7277

$$$$
ETAM-pdb2ox8-C-LYS-632:MBZ-pdb2ox8-C-PHE-628
     RDKit          3D

 26 25  0  0  0  0  0  0  0  0999 V2000
    2.1459   -2.3445    3.1786 C   0  0  0  0  0  0  0  0  0  0  0  0
    2.0166   -1.5235    2.6243 H   0  0  0  0  0  0  0  0  0  0  0  0
    3.0814   -2.3700    3.5280 H   0  0  0  0  0  0  0  0  0  0  0  0
    1.4582   -2.3073    4.0234 H   0  0  0  0  0  0  0  0  0  0  0  0
    1.9207   -3.5612    2.3047 C   0  0  0  0  0  0  0  0  0  0  0  0
    2.1635   -4.3844    2.8194 H   0  0  0  0  0  0  0  0  0  0  0  0
    0.9543   -3.6062    2.0463 H   0  0  0  0  0  0  0  0  0  0  0  0
    2.7531   -3.4965    1.0680 N   0  0  0  0  0  4  0  0  0  0  0  0
    2.6765   -2.5852    0.6671 H   0  0  0  0  0  0  0  0  0  0  0  0
    3.7067   -3.6824    1.3019 H   0  0  0  0  0  0  0  0  0  0  0  0
    2.4279   -4.1798    0.4158 H   0  0  0  0  0  0  0  0  0  0  0  0
    0.0015    2.9045    0.0351 C   0  0  0  0  0  0  0  0  0  0  0  0
   -0.6876    3.2241   -0.5955 H   0  0  0  0  0  0  0  0  0  0  0  0
    0.9020    3.2164   -0.2241 H   0  0  0  0  0  0  0  0  0  0  0  0
   -0.2259    3.3167    1.0182 H   0  0  0  0  0  0  0  0  0  0  0  0
    0.0016    1.4019    0.0002 C   0  0  0  0  0  0  0  0  0  0  0  0
   -1.1943    0.6926    0.0003 C   0  0  0  0  0  0  0  0  0  0  0  0
   -2.0616    1.1804   -0.0010 H   0  0  0  0  0  0  0  0  0  0  0  0
   -1.1997   -0.7034   -0.0000 C   0  0  0  0  0  0  0  0  0  0  0  0
   -2.0779   -1.1927    0.0010 H   0  0  0  0  0  0  0  0  0  0  0  0
   -0.0025   -1.3934    0.0005 C   0  0  0  0  0  0  0  0  0  0  0  0
    0.0009   -2.3929    0.0008 H   0  0  0  0  0  0  0  0  0  0  0  0
    1.1997   -0.6931    0.0000 C   0  0  0  0  0  0  0  0  0  0  0  0
    2.0807   -1.1926    0.0022 H   0  0  0  0  0  0  0  0  0  0  0  0
    1.1951    0.6954   -0.0010 C   0  0  0  0  0  0  0  0  0  0  0  0
    2.0642    1.1914   -0.0036 H   0  0  0  0  0  0  0  0  0  0  0  0
  1  5  1  0
  5  8  1  0
  1  2  1  0
  1  3  1  0
  1  4  1  0
  5  6  1  0
  5  7  1  0
  8  9  1  0
  8 10  1  0
  8 11  1  0
 12 16  1  0
 16 17  2  0
 17 19  1  0
 19 21  2  0
 21 23  1  0
 23 25  2  0
 25 16  1  0
 12 13  1  0
 12 14  1  0
 12 15  1  0
 17 18  1  0
 19 20  1  0
 21 22  1  0
 23 24  1  0
 25 26  1  0
M  CHG  1   8   1
M  END
>  <PDB_ID>  (739) 
pdb2ox8

>  <RESIDUE_NAME>  (739) 
LYS   PHE

>  <FRAG_NAME>  (739) 
ETAM   MBZ

>  <FRAG_ATOM_NUM>  (739) 
fragi: 11  fragj: 15

>  <atom.prop.CHAIN_ID>  (739) 
A A A A A A A A A A A Z Z Z Z Z Z Z Z Z Z Z Z Z Z Z

>  <atom.prop.IS_HEAVY_ATOM>  (739) 
1 0 0 0 1 0 0 1 0 0 0 1 0 0 0 1 1 0 1 0 1 0 1 0 1 0

>  <DIFUSE_FUNC_ATOM>  (739) 
n/a

>  <FINAL_SINGLE_POINT_ENERGY>  (739) 
0

>  <NONCOV_INTER_ENERGY_QM>  (739) 
0

>  <FF_Energy>  (739) 
1.02

>  <QM_Energy>  (739) 
-5.22

>  <source>  (739) 
ETAM_MBZ

>  <Index>  (739) 
7279

$$$$
ETAM-pdb2ox9-D-LYS-638:MBZ-pdb2ox9-D-PHE-634
     RDKit          3D

 26 25  0  0  0  0  0  0  0  0999 V2000
    2.0061   -2.1092    4.1317 C   0  0  0  0  0  0  0  0  0  0  0  0
    2.6194   -2.8852    4.0290 H   0  0  0  0  0  0  0  0  0  0  0  0
    1.7533   -1.9898    5.0859 H   0  0  0  0  0  0  0  0  0  0  0  0
    2.5135   -1.2092    3.7843 H   0  0  0  0  0  0  0  0  0  0  0  0
    0.7435   -2.3793    3.3259 C   0  0  0  0  0  0  0  0  0  0  0  0
    0.9878   -2.4689    2.3583 H   0  0  0  0  0  0  0  0  0  0  0  0
    0.3320   -3.2362    3.6422 H   0  0  0  0  0  0  0  0  0  0  0  0
   -0.2519   -1.2752    3.4781 N   0  0  0  0  0  4  0  0  0  0  0  0
   -1.0601   -1.4841    2.9306 H   0  0  0  0  0  0  0  0  0  0  0  0
   -0.5076   -1.1939    4.4395 H   0  0  0  0  0  0  0  0  0  0  0  0
    0.1562   -0.4193    3.1639 H   0  0  0  0  0  0  0  0  0  0  0  0
    0.0032    2.9082    0.0335 C   0  0  0  0  0  0  0  0  0  0  0  0
   -0.8439    3.2218   -0.3652 H   0  0  0  0  0  0  0  0  0  0  0  0
    0.7846    3.2226   -0.4824 H   0  0  0  0  0  0  0  0  0  0  0  0
    0.0755    3.3225    1.0391 H   0  0  0  0  0  0  0  0  0  0  0  0
    0.0010    1.4021    0.0003 C   0  0  0  0  0  0  0  0  0  0  0  0
   -1.1966    0.6942    0.0006 C   0  0  0  0  0  0  0  0  0  0  0  0
   -2.0628    1.1862    0.0003 H   0  0  0  0  0  0  0  0  0  0  0  0
   -1.2022   -0.6945    0.0000 C   0  0  0  0  0  0  0  0  0  0  0  0
   -2.0794   -1.1889    0.0007 H   0  0  0  0  0  0  0  0  0  0  0  0
   -0.0006   -1.3942    0.0004 C   0  0  0  0  0  0  0  0  0  0  0  0
   -0.0064   -2.3924    0.0008 H   0  0  0  0  0  0  0  0  0  0  0  0
    1.2022   -0.6989    0.0000 C   0  0  0  0  0  0  0  0  0  0  0  0
    2.0820   -1.1963    0.0021 H   0  0  0  0  0  0  0  0  0  0  0  0
    1.1962    0.6913   -0.0013 C   0  0  0  0  0  0  0  0  0  0  0  0
    2.0659    1.1884   -0.0045 H   0  0  0  0  0  0  0  0  0  0  0  0
  1  5  1  0
  5  8  1  0
  1  2  1  0
  1  3  1  0
  1  4  1  0
  5  6  1  0
  5  7  1  0
  8  9  1  0
  8 10  1  0
  8 11  1  0
 12 16  1  0
 16 17  2  0
 17 19  1  0
 19 21  2  0
 21 23  1  0
 23 25  2  0
 25 16  1  0
 12 13  1  0
 12 14  1  0
 12 15  1  0
 17 18  1  0
 19 20  1  0
 21 22  1  0
 23 24  1  0
 25 26  1  0
M  CHG  1   8   1
M  END
>  <PDB_ID>  (740) 
pdb2ox9

>  <RESIDUE_NAME>  (740) 
LYS   PHE

>  <FRAG_NAME>  (740) 
ETAM   MBZ

>  <FRAG_ATOM_NUM>  (740) 
fragi: 11  fragj: 15

>  <atom.prop.CHAIN_ID>  (740) 
A A A A A A A A A A A Z Z Z Z Z Z Z Z Z Z Z Z Z Z Z

>  <atom.prop.IS_HEAVY_ATOM>  (740) 
1 0 0 0 1 0 0 1 0 0 0 1 0 0 0 1 1 0 1 0 1 0 1 0 1 0

>  <DIFUSE_FUNC_ATOM>  (740) 
n/a

>  <FINAL_SINGLE_POINT_ENERGY>  (740) 
0

>  <NONCOV_INTER_ENERGY_QM>  (740) 
0

>  <FF_Energy>  (740) 
-6.22

>  <QM_Energy>  (740) 
-12.32

>  <source>  (740) 
ETAM_MBZ

>  <Index>  (740) 
7282

$$$$
ETAM-pdb2ox9-A-LYS-638:MBZ-pdb2ox9-A-PHE-634
     RDKit          3D

 26 25  0  0  0  0  0  0  0  0999 V2000
    1.8681   -1.4125    4.4312 C   0  0  0  0  0  0  0  0  0  0  0  0
    2.2759   -2.3120    4.5144 H   0  0  0  0  0  0  0  0  0  0  0  0
    1.5856   -1.0675    5.3164 H   0  0  0  0  0  0  0  0  0  0  0  0
    2.5920   -0.7274    3.9900 H   0  0  0  0  0  0  0  0  0  0  0  0
    0.6235   -1.5307    3.5441 C   0  0  0  0  0  0  0  0  0  0  0  0
    0.9037   -1.8448    2.6346 H   0  0  0  0  0  0  0  0  0  0  0  0
    0.0023   -2.2065    3.9465 H   0  0  0  0  0  0  0  0  0  0  0  0
   -0.1031   -0.2217    3.4071 N   0  0  0  0  0  4  0  0  0  0  0  0
    0.0475    0.1386    2.4897 H   0  0  0  0  0  0  0  0  0  0  0  0
   -1.0768   -0.3746    3.5572 H   0  0  0  0  0  0  0  0  0  0  0  0
    0.2502    0.4178    4.0866 H   0  0  0  0  0  0  0  0  0  0  0  0
    0.0017    2.8992   -0.0555 C   0  0  0  0  0  0  0  0  0  0  0  0
   -0.8686    3.1957   -0.4238 H   0  0  0  0  0  0  0  0  0  0  0  0
    0.7501    3.1874   -0.6369 H   0  0  0  0  0  0  0  0  0  0  0  0
    0.1316    3.3796    0.9141 H   0  0  0  0  0  0  0  0  0  0  0  0
    0.0009    1.4044   -0.0015 C   0  0  0  0  0  0  0  0  0  0  0  0
   -1.1968    0.6990    0.0021 C   0  0  0  0  0  0  0  0  0  0  0  0
   -2.0633    1.1852    0.0048 H   0  0  0  0  0  0  0  0  0  0  0  0
   -1.2027   -0.7006    0.0000 C   0  0  0  0  0  0  0  0  0  0  0  0
   -2.0801   -1.1890    0.0018 H   0  0  0  0  0  0  0  0  0  0  0  0
   -0.0027   -1.3969   -0.0022 C   0  0  0  0  0  0  0  0  0  0  0  0
   -0.0051   -2.3949   -0.0060 H   0  0  0  0  0  0  0  0  0  0  0  0
    1.2027   -0.7005    0.0000 C   0  0  0  0  0  0  0  0  0  0  0  0
    2.0819   -1.1978    0.0024 H   0  0  0  0  0  0  0  0  0  0  0  0
    1.1986    0.6946    0.0017 C   0  0  0  0  0  0  0  0  0  0  0  0
    2.0665    1.1888    0.0041 H   0  0  0  0  0  0  0  0  0  0  0  0
  1  5  1  0
  5  8  1  0
  1  2  1  0
  1  3  1  0
  1  4  1  0
  5  6  1  0
  5  7  1  0
  8  9  1  0
  8 10  1  0
  8 11  1  0
 12 16  1  0
 16 17  2  0
 17 19  1  0
 19 21  2  0
 21 23  1  0
 23 25  2  0
 25 16  1  0
 12 13  1  0
 12 14  1  0
 12 15  1  0
 17 18  1  0
 19 20  1  0
 21 22  1  0
 23 24  1  0
 25 26  1  0
M  CHG  1   8   1
M  END
>  <PDB_ID>  (741) 
pdb2ox9

>  <RESIDUE_NAME>  (741) 
LYS   PHE

>  <FRAG_NAME>  (741) 
ETAM   MBZ

>  <FRAG_ATOM_NUM>  (741) 
fragi: 11  fragj: 15

>  <atom.prop.CHAIN_ID>  (741) 
A A A A A A A A A A A Z Z Z Z Z Z Z Z Z Z Z Z Z Z Z

>  <atom.prop.IS_HEAVY_ATOM>  (741) 
1 0 0 0 1 0 0 1 0 0 0 1 0 0 0 1 1 0 1 0 1 0 1 0 1 0

>  <DIFUSE_FUNC_ATOM>  (741) 
n/a

>  <FINAL_SINGLE_POINT_ENERGY>  (741) 
0

>  <NONCOV_INTER_ENERGY_QM>  (741) 
0

>  <FF_Energy>  (741) 
-8.79

>  <QM_Energy>  (741) 
-15.95

>  <source>  (741) 
ETAM_MBZ

>  <Index>  (741) 
7288

$$$$
ETAM-pdb2ou4-B-LYS-288:MBZ-pdb2ou4-B-PHE-284
     RDKit          3D

 26 25  0  0  0  0  0  0  0  0999 V2000
    0.4870   -1.5411    3.9556 C   0  0  0  0  0  0  0  0  0  0  0  0
   -0.0265   -1.1898    4.7231 H   0  0  0  0  0  0  0  0  0  0  0  0
    0.4658   -0.9177    3.1900 H   0  0  0  0  0  0  0  0  0  0  0  0
    1.5215   -1.7009    4.2599 H   0  0  0  0  0  0  0  0  0  0  0  0
   -0.1332   -2.8633    3.5221 C   0  0  0  0  0  0  0  0  0  0  0  0
    0.4302   -3.2582    2.7776 H   0  0  0  0  0  0  0  0  0  0  0  0
   -0.0970   -3.5102    4.3014 H   0  0  0  0  0  0  0  0  0  0  0  0
   -1.5472   -2.7564    3.0502 N   0  0  0  0  0  4  0  0  0  0  0  0
   -1.6222   -1.9958    2.4068 H   0  0  0  0  0  0  0  0  0  0  0  0
   -1.8082   -3.6081    2.5976 H   0  0  0  0  0  0  0  0  0  0  0  0
   -2.1435   -2.5949    3.8346 H   0  0  0  0  0  0  0  0  0  0  0  0
    0.0040    2.9012    0.0083 C   0  0  0  0  0  0  0  0  0  0  0  0
   -0.8087    3.2123   -0.4619 H   0  0  0  0  0  0  0  0  0  0  0  0
    0.8244    3.2070   -0.4525 H   0  0  0  0  0  0  0  0  0  0  0  0
   -0.0001    3.3358    1.0079 H   0  0  0  0  0  0  0  0  0  0  0  0
   -0.0008    1.4010    0.0018 C   0  0  0  0  0  0  0  0  0  0  0  0
   -1.1969    0.7003    0.0012 C   0  0  0  0  0  0  0  0  0  0  0  0
   -2.0630    1.1913    0.0003 H   0  0  0  0  0  0  0  0  0  0  0  0
   -1.2045   -0.6916   -0.0000 C   0  0  0  0  0  0  0  0  0  0  0  0
   -2.0823   -1.1833    0.0023 H   0  0  0  0  0  0  0  0  0  0  0  0
   -0.0034   -1.3947   -0.0019 C   0  0  0  0  0  0  0  0  0  0  0  0
   -0.0123   -2.3924   -0.0048 H   0  0  0  0  0  0  0  0  0  0  0  0
    1.2045   -0.7030   -0.0000 C   0  0  0  0  0  0  0  0  0  0  0  0
    2.0811   -1.2039    0.0041 H   0  0  0  0  0  0  0  0  0  0  0  0
    1.2011    0.6880   -0.0011 C   0  0  0  0  0  0  0  0  0  0  0  0
    2.0670    1.1855   -0.0053 H   0  0  0  0  0  0  0  0  0  0  0  0
  1  5  1  0
  5  8  1  0
  1  2  1  0
  1  3  1  0
  1  4  1  0
  5  6  1  0
  5  7  1  0
  8  9  1  0
  8 10  1  0
  8 11  1  0
 12 16  1  0
 16 17  2  0
 17 19  1  0
 19 21  2  0
 21 23  1  0
 23 25  2  0
 25 16  1  0
 12 13  1  0
 12 14  1  0
 12 15  1  0
 17 18  1  0
 19 20  1  0
 21 22  1  0
 23 24  1  0
 25 26  1  0
M  CHG  1   8   1
M  END
>  <PDB_ID>  (742) 
pdb2ou4

>  <RESIDUE_NAME>  (742) 
LYS   PHE

>  <FRAG_NAME>  (742) 
ETAM   MBZ

>  <FRAG_ATOM_NUM>  (742) 
fragi: 11  fragj: 15

>  <atom.prop.CHAIN_ID>  (742) 
A A A A A A A A A A A Z Z Z Z Z Z Z Z Z Z Z Z Z Z Z

>  <atom.prop.IS_HEAVY_ATOM>  (742) 
1 0 0 0 1 0 0 1 0 0 0 1 0 0 0 1 1 0 1 0 1 0 1 0 1 0

>  <DIFUSE_FUNC_ATOM>  (742) 
n/a

>  <FINAL_SINGLE_POINT_ENERGY>  (742) 
0

>  <NONCOV_INTER_ENERGY_QM>  (742) 
0

>  <FF_Energy>  (742) 
-3.59

>  <QM_Energy>  (742) 
-10.12

>  <source>  (742) 
ETAM_MBZ

>  <Index>  (742) 
7291

$$$$
ETAM-pdb2ox9-B-LYS-638:MBZ-pdb2ox9-B-PHE-634
     RDKit          3D

 26 25  0  0  0  0  0  0  0  0999 V2000
    1.7954   -2.0502    4.4732 C   0  0  0  0  0  0  0  0  0  0  0  0
    2.3158   -2.8705    4.6756 H   0  0  0  0  0  0  0  0  0  0  0  0
    1.4630   -1.6291    5.3070 H   0  0  0  0  0  0  0  0  0  0  0  0
    2.4382   -1.3427    3.9493 H   0  0  0  0  0  0  0  0  0  0  0  0
    0.5971   -2.4357    3.6143 C   0  0  0  0  0  0  0  0  0  0  0  0
    0.9244   -2.9169    2.7978 H   0  0  0  0  0  0  0  0  0  0  0  0
    0.0045   -3.0506    4.1401 H   0  0  0  0  0  0  0  0  0  0  0  0
   -0.1913   -1.2394    3.1935 N   0  0  0  0  0  4  0  0  0  0  0  0
   -1.0367   -1.1990    3.7240 H   0  0  0  0  0  0  0  0  0  0  0  0
    0.3484   -0.4156    3.3567 H   0  0  0  0  0  0  0  0  0  0  0  0
   -0.4079   -1.3135    2.2215 H   0  0  0  0  0  0  0  0  0  0  0  0
    0.0059    2.9087   -0.0030 C   0  0  0  0  0  0  0  0  0  0  0  0
   -0.8726    3.2170   -0.3362 H   0  0  0  0  0  0  0  0  0  0  0  0
    0.7405    3.2096   -0.5921 H   0  0  0  0  0  0  0  0  0  0  0  0
    0.1646    3.3483    0.9818 H   0  0  0  0  0  0  0  0  0  0  0  0
   -0.0006    1.4054   -0.0000 C   0  0  0  0  0  0  0  0  0  0  0  0
   -1.1983    0.7026    0.0015 C   0  0  0  0  0  0  0  0  0  0  0  0
   -2.0638    1.1896    0.0025 H   0  0  0  0  0  0  0  0  0  0  0  0
   -1.2050   -0.6963   -0.0000 C   0  0  0  0  0  0  0  0  0  0  0  0
   -2.0800   -1.1876    0.0008 H   0  0  0  0  0  0  0  0  0  0  0  0
    0.0025   -1.3999   -0.0012 C   0  0  0  0  0  0  0  0  0  0  0  0
   -0.0064   -2.3957   -0.0036 H   0  0  0  0  0  0  0  0  0  0  0  0
    1.2050   -0.7030    0.0000 C   0  0  0  0  0  0  0  0  0  0  0  0
    2.0857   -1.1977    0.0029 H   0  0  0  0  0  0  0  0  0  0  0  0
    1.1963    0.6912   -0.0003 C   0  0  0  0  0  0  0  0  0  0  0  0
    2.0662    1.1883   -0.0017 H   0  0  0  0  0  0  0  0  0  0  0  0
  1  5  1  0
  5  8  1  0
  1  2  1  0
  1  3  1  0
  1  4  1  0
  5  6  1  0
  5  7  1  0
  8  9  1  0
  8 10  1  0
  8 11  1  0
 12 16  1  0
 16 17  2  0
 17 19  1  0
 19 21  2  0
 21 23  1  0
 23 25  2  0
 25 16  1  0
 12 13  1  0
 12 14  1  0
 12 15  1  0
 17 18  1  0
 19 20  1  0
 21 22  1  0
 23 24  1  0
 25 26  1  0
M  CHG  1   8   1
M  END
>  <PDB_ID>  (743) 
pdb2ox9

>  <RESIDUE_NAME>  (743) 
LYS   PHE

>  <FRAG_NAME>  (743) 
ETAM   MBZ

>  <FRAG_ATOM_NUM>  (743) 
fragi: 11  fragj: 15

>  <atom.prop.CHAIN_ID>  (743) 
A A A A A A A A A A A Z Z Z Z Z Z Z Z Z Z Z Z Z Z Z

>  <atom.prop.IS_HEAVY_ATOM>  (743) 
1 0 0 0 1 0 0 1 0 0 0 1 0 0 0 1 1 0 1 0 1 0 1 0 1 0

>  <DIFUSE_FUNC_ATOM>  (743) 
n/a

>  <FINAL_SINGLE_POINT_ENERGY>  (743) 
0

>  <NONCOV_INTER_ENERGY_QM>  (743) 
0

>  <FF_Energy>  (743) 
-7.46

>  <QM_Energy>  (743) 
-15.87

>  <source>  (743) 
ETAM_MBZ

>  <Index>  (743) 
7303

$$$$
ETAM-pdb1kcx-A-LYS-94:MBZ-pdb1kcx-A-PHE-90
     RDKit          3D

 26 25  0  0  0  0  0  0  0  0999 V2000
    1.5321   -2.4862    4.5176 C   0  0  0  0  0  0  0  0  0  0  0  0
    2.2693   -1.9381    4.9005 H   0  0  0  0  0  0  0  0  0  0  0  0
    1.7386   -3.4554    4.6103 H   0  0  0  0  0  0  0  0  0  0  0  0
    0.6155   -2.2692    5.0660 H   0  0  0  0  0  0  0  0  0  0  0  0
    1.3872   -2.1552    3.0520 C   0  0  0  0  0  0  0  0  0  0  0  0
    0.7747   -2.8186    2.6213 H   0  0  0  0  0  0  0  0  0  0  0  0
    1.0014   -1.2371    2.9558 H   0  0  0  0  0  0  0  0  0  0  0  0
    2.7107   -2.1988    2.3616 N   0  0  0  0  0  4  0  0  0  0  0  0
    3.4284   -1.9465    3.0088 H   0  0  0  0  0  0  0  0  0  0  0  0
    2.8740   -3.1230    2.0211 H   0  0  0  0  0  0  0  0  0  0  0  0
    2.7046   -1.5554    1.5984 H   0  0  0  0  0  0  0  0  0  0  0  0
   -0.0043    2.9010    0.0570 C   0  0  0  0  0  0  0  0  0  0  0  0
   -0.5692    3.2344   -0.6798 H   0  0  0  0  0  0  0  0  0  0  0  0
    0.9269    3.2145   -0.0257 H   0  0  0  0  0  0  0  0  0  0  0  0
   -0.4072    3.2932    0.9908 H   0  0  0  0  0  0  0  0  0  0  0  0
    0.0003    1.4024    0.0007 C   0  0  0  0  0  0  0  0  0  0  0  0
   -1.1942    0.6967   -0.0000 C   0  0  0  0  0  0  0  0  0  0  0  0
   -2.0626    1.1877   -0.0020 H   0  0  0  0  0  0  0  0  0  0  0  0
   -1.2088   -0.7003    0.0000 C   0  0  0  0  0  0  0  0  0  0  0  0
   -2.0856   -1.1875    0.0021 H   0  0  0  0  0  0  0  0  0  0  0  0
   -0.0050   -1.4035   -0.0007 C   0  0  0  0  0  0  0  0  0  0  0  0
   -0.0038   -2.3960   -0.0022 H   0  0  0  0  0  0  0  0  0  0  0  0
    1.2088   -0.6960    0.0000 C   0  0  0  0  0  0  0  0  0  0  0  0
    2.0854   -1.1933    0.0024 H   0  0  0  0  0  0  0  0  0  0  0  0
    1.1989    0.7008    0.0001 C   0  0  0  0  0  0  0  0  0  0  0  0
    2.0650    1.1972   -0.0013 H   0  0  0  0  0  0  0  0  0  0  0  0
  1  5  1  0
  5  8  1  0
  1  2  1  0
  1  3  1  0
  1  4  1  0
  5  6  1  0
  5  7  1  0
  8  9  1  0
  8 10  1  0
  8 11  1  0
 12 16  1  0
 16 17  2  0
 17 19  1  0
 19 21  2  0
 21 23  1  0
 23 25  2  0
 25 16  1  0
 12 13  1  0
 12 14  1  0
 12 15  1  0
 17 18  1  0
 19 20  1  0
 21 22  1  0
 23 24  1  0
 25 26  1  0
M  CHG  1   8   1
M  END
>  <PDB_ID>  (744) 
pdb1kcx

>  <RESIDUE_NAME>  (744) 
LYS   PHE

>  <FRAG_NAME>  (744) 
ETAM   MBZ

>  <FRAG_ATOM_NUM>  (744) 
fragi: 11  fragj: 15

>  <atom.prop.CHAIN_ID>  (744) 
A A A A A A A A A A A Z Z Z Z Z Z Z Z Z Z Z Z Z Z Z

>  <atom.prop.IS_HEAVY_ATOM>  (744) 
1 0 0 0 1 0 0 1 0 0 0 1 0 0 0 1 1 0 1 0 1 0 1 0 1 0

>  <DIFUSE_FUNC_ATOM>  (744) 
n/a

>  <FINAL_SINGLE_POINT_ENERGY>  (744) 
0

>  <NONCOV_INTER_ENERGY_QM>  (744) 
0

>  <FF_Energy>  (744) 
-0.94

>  <QM_Energy>  (744) 
-7.75

>  <source>  (744) 
ETAM_MBZ

>  <Index>  (744) 
7314

$$$$
ETAM-pdb1kfu-L-LYS-578:MBZ-pdb1kfu-L-PHE-551
     RDKit          3D

 26 25  0  0  0  0  0  0  0  0999 V2000
   -2.5330   -2.7329    4.2449 C   0  0  0  0  0  0  0  0  0  0  0  0
   -1.9357   -3.4857    4.5121 H   0  0  0  0  0  0  0  0  0  0  0  0
   -3.4867   -2.9882    4.3874 H   0  0  0  0  0  0  0  0  0  0  0  0
   -2.3000   -1.8573    4.8508 H   0  0  0  0  0  0  0  0  0  0  0  0
   -2.3262   -2.4589    2.7683 C   0  0  0  0  0  0  0  0  0  0  0  0
   -1.4138   -2.0640    2.6308 H   0  0  0  0  0  0  0  0  0  0  0  0
   -2.3843   -3.3232    2.2608 H   0  0  0  0  0  0  0  0  0  0  0  0
   -3.3502   -1.5091    2.2239 N   0  0  0  0  0  4  0  0  0  0  0  0
   -3.2061   -1.4011    1.2421 H   0  0  0  0  0  0  0  0  0  0  0  0
   -4.2615   -1.8786    2.3943 H   0  0  0  0  0  0  0  0  0  0  0  0
   -3.2515   -0.6269    2.6792 H   0  0  0  0  0  0  0  0  0  0  0  0
   -0.0058    2.8976    0.0348 C   0  0  0  0  0  0  0  0  0  0  0  0
   -0.8430    3.2137   -0.3879 H   0  0  0  0  0  0  0  0  0  0  0  0
    0.7893    3.2236   -0.4550 H   0  0  0  0  0  0  0  0  0  0  0  0
    0.0335    3.3163    1.0405 H   0  0  0  0  0  0  0  0  0  0  0  0
    0.0021    1.4031    0.0012 C   0  0  0  0  0  0  0  0  0  0  0  0
   -1.1970    0.6824    0.0001 C   0  0  0  0  0  0  0  0  0  0  0  0
   -2.0639    1.1789   -0.0016 H   0  0  0  0  0  0  0  0  0  0  0  0
   -1.2067   -0.7027   -0.0000 C   0  0  0  0  0  0  0  0  0  0  0  0
   -2.0820   -1.1962    0.0019 H   0  0  0  0  0  0  0  0  0  0  0  0
   -0.0059   -1.3949   -0.0001 C   0  0  0  0  0  0  0  0  0  0  0  0
   -0.0025   -2.3937   -0.0013 H   0  0  0  0  0  0  0  0  0  0  0  0
    1.2067   -0.6945    0.0000 C   0  0  0  0  0  0  0  0  0  0  0  0
    2.0830   -1.1904    0.0020 H   0  0  0  0  0  0  0  0  0  0  0  0
    1.2007    0.7065   -0.0012 C   0  0  0  0  0  0  0  0  0  0  0  0
    2.0662    1.1993   -0.0047 H   0  0  0  0  0  0  0  0  0  0  0  0
  1  5  1  0
  5  8  1  0
  1  2  1  0
  1  3  1  0
  1  4  1  0
  5  6  1  0
  5  7  1  0
  8  9  1  0
  8 10  1  0
  8 11  1  0
 12 16  1  0
 16 17  2  0
 17 19  1  0
 19 21  2  0
 21 23  1  0
 23 25  2  0
 25 16  1  0
 12 13  1  0
 12 14  1  0
 12 15  1  0
 17 18  1  0
 19 20  1  0
 21 22  1  0
 23 24  1  0
 25 26  1  0
M  CHG  1   8   1
M  END
>  <PDB_ID>  (745) 
pdb1kfu

>  <RESIDUE_NAME>  (745) 
LYS   PHE

>  <FRAG_NAME>  (745) 
ETAM   MBZ

>  <FRAG_ATOM_NUM>  (745) 
fragi: 11  fragj: 15

>  <atom.prop.CHAIN_ID>  (745) 
A A A A A A A A A A A Z Z Z Z Z Z Z Z Z Z Z Z Z Z Z

>  <atom.prop.IS_HEAVY_ATOM>  (745) 
1 0 0 0 1 0 0 1 0 0 0 1 0 0 0 1 1 0 1 0 1 0 1 0 1 0

>  <DIFUSE_FUNC_ATOM>  (745) 
n/a

>  <FINAL_SINGLE_POINT_ENERGY>  (745) 
0

>  <NONCOV_INTER_ENERGY_QM>  (745) 
0

>  <FF_Energy>  (745) 
0.13

>  <QM_Energy>  (745) 
-5.95

>  <source>  (745) 
ETAM_MBZ

>  <Index>  (745) 
7315

$$$$
ETAM-pdb2ox8-C-LYS-638:MBZ-pdb2ox8-C-PHE-634
     RDKit          3D

 26 25  0  0  0  0  0  0  0  0999 V2000
    0.2200   -1.5946    4.4282 C   0  0  0  0  0  0  0  0  0  0  0  0
    0.7032   -2.4608    4.5190 H   0  0  0  0  0  0  0  0  0  0  0  0
   -0.3672   -1.4455    5.2190 H   0  0  0  0  0  0  0  0  0  0  0  0
    0.9512   -0.7881    4.3741 H   0  0  0  0  0  0  0  0  0  0  0  0
   -0.6443   -1.6493    3.1852 C   0  0  0  0  0  0  0  0  0  0  0  0
   -0.0510   -1.6242    2.3727 H   0  0  0  0  0  0  0  0  0  0  0  0
   -1.1553   -2.5162    3.1792 H   0  0  0  0  0  0  0  0  0  0  0  0
   -1.6071   -0.5175    3.1188 N   0  0  0  0  0  4  0  0  0  0  0  0
   -1.7361   -0.1373    4.0338 H   0  0  0  0  0  0  0  0  0  0  0  0
   -1.2472    0.1898    2.5110 H   0  0  0  0  0  0  0  0  0  0  0  0
   -2.4830   -0.8470    2.7666 H   0  0  0  0  0  0  0  0  0  0  0  0
    0.0029    2.9006   -0.0100 C   0  0  0  0  0  0  0  0  0  0  0  0
   -0.6585    3.2044   -0.6799 H   0  0  0  0  0  0  0  0  0  0  0  0
    0.9146    3.2045   -0.2433 H   0  0  0  0  0  0  0  0  0  0  0  0
   -0.2630    3.3445    0.9494 H   0  0  0  0  0  0  0  0  0  0  0  0
    0.0001    1.4026   -0.0005 C   0  0  0  0  0  0  0  0  0  0  0  0
   -1.1972    0.6978    0.0008 C   0  0  0  0  0  0  0  0  0  0  0  0
   -2.0632    1.1876    0.0014 H   0  0  0  0  0  0  0  0  0  0  0  0
   -1.2028   -0.6949    0.0000 C   0  0  0  0  0  0  0  0  0  0  0  0
   -2.0789   -1.1880    0.0009 H   0  0  0  0  0  0  0  0  0  0  0  0
    0.0012   -1.3970   -0.0005 C   0  0  0  0  0  0  0  0  0  0  0  0
   -0.0067   -2.3943   -0.0015 H   0  0  0  0  0  0  0  0  0  0  0  0
    1.2028   -0.7014   -0.0000 C   0  0  0  0  0  0  0  0  0  0  0  0
    2.0837   -1.1964    0.0016 H   0  0  0  0  0  0  0  0  0  0  0  0
    1.1958    0.6928    0.0002 C   0  0  0  0  0  0  0  0  0  0  0  0
    2.0649    1.1886   -0.0003 H   0  0  0  0  0  0  0  0  0  0  0  0
  1  5  1  0
  5  8  1  0
  1  2  1  0
  1  3  1  0
  1  4  1  0
  5  6  1  0
  5  7  1  0
  8  9  1  0
  8 10  1  0
  8 11  1  0
 12 16  1  0
 16 17  2  0
 17 19  1  0
 19 21  2  0
 21 23  1  0
 23 25  2  0
 25 16  1  0
 12 13  1  0
 12 14  1  0
 12 15  1  0
 17 18  1  0
 19 20  1  0
 21 22  1  0
 23 24  1  0
 25 26  1  0
M  CHG  1   8   1
M  END
>  <PDB_ID>  (746) 
pdb2ox8

>  <RESIDUE_NAME>  (746) 
LYS   PHE

>  <FRAG_NAME>  (746) 
ETAM   MBZ

>  <FRAG_ATOM_NUM>  (746) 
fragi: 11  fragj: 15

>  <atom.prop.CHAIN_ID>  (746) 
A A A A A A A A A A A Z Z Z Z Z Z Z Z Z Z Z Z Z Z Z

>  <atom.prop.IS_HEAVY_ATOM>  (746) 
1 0 0 0 1 0 0 1 0 0 0 1 0 0 0 1 1 0 1 0 1 0 1 0 1 0

>  <DIFUSE_FUNC_ATOM>  (746) 
n/a

>  <FINAL_SINGLE_POINT_ENERGY>  (746) 
0

>  <NONCOV_INTER_ENERGY_QM>  (746) 
0

>  <FF_Energy>  (746) 
-4.01

>  <QM_Energy>  (746) 
-12.53

>  <source>  (746) 
ETAM_MBZ

>  <Index>  (746) 
7316

$$$$
ETAM-pdb1kfi-A-LYS-359:MBZ-pdb1kfi-A-PHE-533
     RDKit          3D

 26 25  0  0  0  0  0  0  0  0999 V2000
   -0.5239   -1.6593   -4.0627 C   0  0  0  0  0  0  0  0  0  0  0  0
   -0.3298   -2.4505   -3.4965 H   0  0  0  0  0  0  0  0  0  0  0  0
   -0.2986   -1.8415   -5.0109 H   0  0  0  0  0  0  0  0  0  0  0  0
   -1.5850   -1.4213   -3.9880 H   0  0  0  0  0  0  0  0  0  0  0  0
    0.3258   -0.4945   -3.5781 C   0  0  0  0  0  0  0  0  0  0  0  0
    0.2374    0.2670   -4.2358 H   0  0  0  0  0  0  0  0  0  0  0  0
   -0.0355   -0.1771   -2.6891 H   0  0  0  0  0  0  0  0  0  0  0  0
    1.7655   -0.8365   -3.4221 N   0  0  0  0  0  4  0  0  0  0  0  0
    1.8545   -1.6346   -2.8263 H   0  0  0  0  0  0  0  0  0  0  0  0
    2.1564   -1.0423   -4.3184 H   0  0  0  0  0  0  0  0  0  0  0  0
    2.2484   -0.0611   -3.0168 H   0  0  0  0  0  0  0  0  0  0  0  0
    0.0037    2.9085    0.0089 C   0  0  0  0  0  0  0  0  0  0  0  0
   -0.6031    3.2201   -0.7073 H   0  0  0  0  0  0  0  0  0  0  0  0
    0.9310    3.2123   -0.1469 H   0  0  0  0  0  0  0  0  0  0  0  0
   -0.3374    3.3414    0.9493 H   0  0  0  0  0  0  0  0  0  0  0  0
   -0.0001    1.4057   -0.0006 C   0  0  0  0  0  0  0  0  0  0  0  0
   -1.1951    0.6969   -0.0000 C   0  0  0  0  0  0  0  0  0  0  0  0
   -2.0637    1.1825   -0.0003 H   0  0  0  0  0  0  0  0  0  0  0  0
   -1.1999   -0.7021    0.0000 C   0  0  0  0  0  0  0  0  0  0  0  0
   -2.0776   -1.1907    0.0013 H   0  0  0  0  0  0  0  0  0  0  0  0
   -0.0013   -1.3956    0.0005 C   0  0  0  0  0  0  0  0  0  0  0  0
   -0.0029   -2.3948    0.0005 H   0  0  0  0  0  0  0  0  0  0  0  0
    1.1999   -0.6988   -0.0000 C   0  0  0  0  0  0  0  0  0  0  0  0
    2.0818   -1.1959    0.0010 H   0  0  0  0  0  0  0  0  0  0  0  0
    1.1965    0.6941    0.0001 C   0  0  0  0  0  0  0  0  0  0  0  0
    2.0654    1.1889    0.0001 H   0  0  0  0  0  0  0  0  0  0  0  0
  1  5  1  0
  5  8  1  0
  1  2  1  0
  1  3  1  0
  1  4  1  0
  5  6  1  0
  5  7  1  0
  8  9  1  0
  8 10  1  0
  8 11  1  0
 12 16  1  0
 16 17  2  0
 17 19  1  0
 19 21  2  0
 21 23  1  0
 23 25  2  0
 25 16  1  0
 12 13  1  0
 12 14  1  0
 12 15  1  0
 17 18  1  0
 19 20  1  0
 21 22  1  0
 23 24  1  0
 25 26  1  0
M  CHG  1   8   1
M  END
>  <PDB_ID>  (747) 
pdb1kfi

>  <RESIDUE_NAME>  (747) 
LYS   PHE

>  <FRAG_NAME>  (747) 
ETAM   MBZ

>  <FRAG_ATOM_NUM>  (747) 
fragi: 11  fragj: 15

>  <atom.prop.CHAIN_ID>  (747) 
A A A A A A A A A A A Z Z Z Z Z Z Z Z Z Z Z Z Z Z Z

>  <atom.prop.IS_HEAVY_ATOM>  (747) 
1 0 0 0 1 0 0 1 0 0 0 1 0 0 0 1 1 0 1 0 1 0 1 0 1 0

>  <DIFUSE_FUNC_ATOM>  (747) 
n/a

>  <FINAL_SINGLE_POINT_ENERGY>  (747) 
0

>  <NONCOV_INTER_ENERGY_QM>  (747) 
0

>  <FF_Energy>  (747) 
-5.95

>  <QM_Energy>  (747) 
-12.42

>  <source>  (747) 
ETAM_MBZ

>  <Index>  (747) 
7317

$$$$
ETAM-pdb1kfi-B-LYS-359:MBZ-pdb1kfi-B-PHE-533
     RDKit          3D

 26 25  0  0  0  0  0  0  0  0999 V2000
   -0.4685   -1.9014   -3.9645 C   0  0  0  0  0  0  0  0  0  0  0  0
   -0.1005   -2.6786   -3.4689 H   0  0  0  0  0  0  0  0  0  0  0  0
   -0.2507   -1.9641   -4.9304 H   0  0  0  0  0  0  0  0  0  0  0  0
   -1.5519   -1.8877   -3.8459 H   0  0  0  0  0  0  0  0  0  0  0  0
    0.1543   -0.6304   -3.4074 C   0  0  0  0  0  0  0  0  0  0  0  0
   -0.2032    0.1590   -3.9227 H   0  0  0  0  0  0  0  0  0  0  0  0
   -0.1229   -0.5277   -2.4435 H   0  0  0  0  0  0  0  0  0  0  0  0
    1.6417   -0.6298   -3.4874 N   0  0  0  0  0  4  0  0  0  0  0  0
    2.0180   -1.0388   -2.6564 H   0  0  0  0  0  0  0  0  0  0  0  0
    1.9304   -1.1610   -4.2825 H   0  0  0  0  0  0  0  0  0  0  0  0
    1.9676    0.3109   -3.5761 H   0  0  0  0  0  0  0  0  0  0  0  0
   -0.0116    2.9141    0.0836 C   0  0  0  0  0  0  0  0  0  0  0  0
   -0.5059    3.2573   -0.6955 H   0  0  0  0  0  0  0  0  0  0  0  0
    0.9229    3.2255    0.0939 H   0  0  0  0  0  0  0  0  0  0  0  0
   -0.5001    3.2882    0.9833 H   0  0  0  0  0  0  0  0  0  0  0  0
   -0.0001    1.4091    0.0017 C   0  0  0  0  0  0  0  0  0  0  0  0
   -1.1983    0.6945   -0.0028 C   0  0  0  0  0  0  0  0  0  0  0  0
   -2.0662    1.1833   -0.0095 H   0  0  0  0  0  0  0  0  0  0  0  0
   -1.2034   -0.7008   -0.0000 C   0  0  0  0  0  0  0  0  0  0  0  0
   -2.0807   -1.1927    0.0027 H   0  0  0  0  0  0  0  0  0  0  0  0
   -0.0008   -1.4016    0.0013 C   0  0  0  0  0  0  0  0  0  0  0  0
   -0.0058   -2.3982    0.0023 H   0  0  0  0  0  0  0  0  0  0  0  0
    1.2034   -0.7029   -0.0000 C   0  0  0  0  0  0  0  0  0  0  0  0
    2.0845   -1.1954    0.0001 H   0  0  0  0  0  0  0  0  0  0  0  0
    1.1992    0.7018   -0.0002 C   0  0  0  0  0  0  0  0  0  0  0  0
    2.0672    1.1925   -0.0023 H   0  0  0  0  0  0  0  0  0  0  0  0
  1  5  1  0
  5  8  1  0
  1  2  1  0
  1  3  1  0
  1  4  1  0
  5  6  1  0
  5  7  1  0
  8  9  1  0
  8 10  1  0
  8 11  1  0
 12 16  1  0
 16 17  2  0
 17 19  1  0
 19 21  2  0
 21 23  1  0
 23 25  2  0
 25 16  1  0
 12 13  1  0
 12 14  1  0
 12 15  1  0
 17 18  1  0
 19 20  1  0
 21 22  1  0
 23 24  1  0
 25 26  1  0
M  CHG  1   8   1
M  END
>  <PDB_ID>  (748) 
pdb1kfi

>  <RESIDUE_NAME>  (748) 
LYS   PHE

>  <FRAG_NAME>  (748) 
ETAM   MBZ

>  <FRAG_ATOM_NUM>  (748) 
fragi: 11  fragj: 15

>  <atom.prop.CHAIN_ID>  (748) 
A A A A A A A A A A A Z Z Z Z Z Z Z Z Z Z Z Z Z Z Z

>  <atom.prop.IS_HEAVY_ATOM>  (748) 
1 0 0 0 1 0 0 1 0 0 0 1 0 0 0 1 1 0 1 0 1 0 1 0 1 0

>  <DIFUSE_FUNC_ATOM>  (748) 
n/a

>  <FINAL_SINGLE_POINT_ENERGY>  (748) 
0

>  <NONCOV_INTER_ENERGY_QM>  (748) 
0

>  <FF_Energy>  (748) 
-5.34

>  <QM_Energy>  (748) 
-12.81

>  <source>  (748) 
ETAM_MBZ

>  <Index>  (748) 
7318

$$$$
ETAM-pdb2ox9-C-LYS-638:MBZ-pdb2ox9-C-PHE-634
     RDKit          3D

 26 25  0  0  0  0  0  0  0  0999 V2000
    1.7348   -2.2059    4.5675 C   0  0  0  0  0  0  0  0  0  0  0  0
    2.3769   -2.9188    4.8182 H   0  0  0  0  0  0  0  0  0  0  0  0
    1.2908   -1.8323    5.3725 H   0  0  0  0  0  0  0  0  0  0  0  0
    2.2708   -1.4089    4.0522 H   0  0  0  0  0  0  0  0  0  0  0  0
    0.6660   -2.8135    3.6646 C   0  0  0  0  0  0  0  0  0  0  0  0
    1.1179   -3.2584    2.8839 H   0  0  0  0  0  0  0  0  0  0  0  0
    0.1643   -3.5129    4.1844 H   0  0  0  0  0  0  0  0  0  0  0  0
   -0.2930   -1.7958    3.1602 N   0  0  0  0  0  4  0  0  0  0  0  0
   -0.7766   -1.3834    3.9321 H   0  0  0  0  0  0  0  0  0  0  0  0
    0.2062   -1.0876    2.6616 H   0  0  0  0  0  0  0  0  0  0  0  0
   -0.9519   -2.2333    2.5487 H   0  0  0  0  0  0  0  0  0  0  0  0
    0.0022    2.9210    0.0214 C   0  0  0  0  0  0  0  0  0  0  0  0
   -0.8296    3.2330   -0.4086 H   0  0  0  0  0  0  0  0  0  0  0  0
    0.8019    3.2301   -0.4673 H   0  0  0  0  0  0  0  0  0  0  0  0
    0.0389    3.3446    1.0250 H   0  0  0  0  0  0  0  0  0  0  0  0
   -0.0007    1.4107   -0.0003 C   0  0  0  0  0  0  0  0  0  0  0  0
   -1.1992    0.7012    0.0003 C   0  0  0  0  0  0  0  0  0  0  0  0
   -2.0658    1.1857   -0.0004 H   0  0  0  0  0  0  0  0  0  0  0  0
   -1.2046   -0.7023   -0.0000 C   0  0  0  0  0  0  0  0  0  0  0  0
   -2.0801   -1.1920    0.0012 H   0  0  0  0  0  0  0  0  0  0  0  0
    0.0027   -1.4034   -0.0001 C   0  0  0  0  0  0  0  0  0  0  0  0
   -0.0026   -2.3995   -0.0005 H   0  0  0  0  0  0  0  0  0  0  0  0
    1.2046   -0.7034   -0.0000 C   0  0  0  0  0  0  0  0  0  0  0  0
    2.0867   -1.1959    0.0015 H   0  0  0  0  0  0  0  0  0  0  0  0
    1.1972    0.6972    0.0001 C   0  0  0  0  0  0  0  0  0  0  0  0
    2.0671    1.1908   -0.0008 H   0  0  0  0  0  0  0  0  0  0  0  0
  1  5  1  0
  5  8  1  0
  1  2  1  0
  1  3  1  0
  1  4  1  0
  5  6  1  0
  5  7  1  0
  8  9  1  0
  8 10  1  0
  8 11  1  0
 12 16  1  0
 16 17  2  0
 17 19  1  0
 19 21  2  0
 21 23  1  0
 23 25  2  0
 25 16  1  0
 12 13  1  0
 12 14  1  0
 12 15  1  0
 17 18  1  0
 19 20  1  0
 21 22  1  0
 23 24  1  0
 25 26  1  0
M  CHG  1   8   1
M  END
>  <PDB_ID>  (749) 
pdb2ox9

>  <RESIDUE_NAME>  (749) 
LYS   PHE

>  <FRAG_NAME>  (749) 
ETAM   MBZ

>  <FRAG_ATOM_NUM>  (749) 
fragi: 11  fragj: 15

>  <atom.prop.CHAIN_ID>  (749) 
A A A A A A A A A A A Z Z Z Z Z Z Z Z Z Z Z Z Z Z Z

>  <atom.prop.IS_HEAVY_ATOM>  (749) 
1 0 0 0 1 0 0 1 0 0 0 1 0 0 0 1 1 0 1 0 1 0 1 0 1 0

>  <DIFUSE_FUNC_ATOM>  (749) 
n/a

>  <FINAL_SINGLE_POINT_ENERGY>  (749) 
0

>  <NONCOV_INTER_ENERGY_QM>  (749) 
0

>  <FF_Energy>  (749) 
-5.74

>  <QM_Energy>  (749) 
-12.89

>  <source>  (749) 
ETAM_MBZ

>  <Index>  (749) 
7319

$$$$
ETAM-pdb2p0d-A-LYS-333:MBZ-pdb2p0d-A-PHE-413
     RDKit          3D

 26 25  0  0  0  0  0  0  0  0999 V2000
   -1.2072   -0.9990   -3.7765 C   0  0  0  0  0  0  0  0  0  0  0  0
   -1.3253   -1.2197   -4.7504 H   0  0  0  0  0  0  0  0  0  0  0  0
   -0.6473   -0.1669   -3.7005 H   0  0  0  0  0  0  0  0  0  0  0  0
   -2.1899   -0.7891   -3.3541 H   0  0  0  0  0  0  0  0  0  0  0  0
   -0.4290   -2.1634   -3.1109 C   0  0  0  0  0  0  0  0  0  0  0  0
    0.5692   -1.9738   -3.2066 H   0  0  0  0  0  0  0  0  0  0  0  0
   -0.6277   -2.1478   -2.1098 H   0  0  0  0  0  0  0  0  0  0  0  0
   -0.7013   -3.5639   -3.6296 N   0  0  0  0  0  4  0  0  0  0  0  0
   -0.0655   -3.7568   -4.3705 H   0  0  0  0  0  0  0  0  0  0  0  0
   -0.5691   -4.2093   -2.8840 H   0  0  0  0  0  0  0  0  0  0  0  0
   -1.6393   -3.6024   -3.9586 H   0  0  0  0  0  0  0  0  0  0  0  0
   -0.0083    2.9409    0.0272 C   0  0  0  0  0  0  0  0  0  0  0  0
    0.7572    3.2353    0.5830 H   0  0  0  0  0  0  0  0  0  0  0  0
   -0.8680    3.2317    0.4254 H   0  0  0  0  0  0  0  0  0  0  0  0
    0.0847    3.4314   -0.9418 H   0  0  0  0  0  0  0  0  0  0  0  0
   -0.0013    1.4205   -0.0074 C   0  0  0  0  0  0  0  0  0  0  0  0
   -1.2114    0.7033    0.0036 C   0  0  0  0  0  0  0  0  0  0  0  0
   -2.0751    1.1925    0.0127 H   0  0  0  0  0  0  0  0  0  0  0  0
   -1.2239   -0.7080   -0.0000 C   0  0  0  0  0  0  0  0  0  0  0  0
   -2.0910   -1.1968    0.0084 H   0  0  0  0  0  0  0  0  0  0  0  0
    0.0008   -1.4179   -0.0140 C   0  0  0  0  0  0  0  0  0  0  0  0
   -0.0014   -2.4064   -0.0344 H   0  0  0  0  0  0  0  0  0  0  0  0
    1.2239   -0.7040    0.0000 C   0  0  0  0  0  0  0  0  0  0  0  0
    2.0976   -1.1975   -0.0008 H   0  0  0  0  0  0  0  0  0  0  0  0
    1.2119    0.7060    0.0178 C   0  0  0  0  0  0  0  0  0  0  0  0
    2.0737    1.2020    0.0480 H   0  0  0  0  0  0  0  0  0  0  0  0
  1  5  1  0
  5  8  1  0
  1  2  1  0
  1  3  1  0
  1  4  1  0
  5  6  1  0
  5  7  1  0
  8  9  1  0
  8 10  1  0
  8 11  1  0
 12 16  1  0
 16 17  2  0
 17 19  1  0
 19 21  2  0
 21 23  1  0
 23 25  2  0
 25 16  1  0
 12 13  1  0
 12 14  1  0
 12 15  1  0
 17 18  1  0
 19 20  1  0
 21 22  1  0
 23 24  1  0
 25 26  1  0
M  CHG  1   8   1
M  END
>  <PDB_ID>  (750) 
pdb2p0d

>  <RESIDUE_NAME>  (750) 
LYS   PHE

>  <FRAG_NAME>  (750) 
ETAM   MBZ

>  <FRAG_ATOM_NUM>  (750) 
fragi: 11  fragj: 15

>  <atom.prop.CHAIN_ID>  (750) 
A A A A A A A A A A A Z Z Z Z Z Z Z Z Z Z Z Z Z Z Z

>  <atom.prop.IS_HEAVY_ATOM>  (750) 
1 0 0 0 1 0 0 1 0 0 0 1 0 0 0 1 1 0 1 0 1 0 1 0 1 0

>  <DIFUSE_FUNC_ATOM>  (750) 
n/a

>  <FINAL_SINGLE_POINT_ENERGY>  (750) 
0

>  <NONCOV_INTER_ENERGY_QM>  (750) 
0

>  <FF_Energy>  (750) 
0.93

>  <QM_Energy>  (750) 
-5.76

>  <source>  (750) 
ETAM_MBZ

>  <Index>  (750) 
7326

$$$$
ETAM-pdb2ou4-C-LYS-288:MBZ-pdb2ou4-C-PHE-284
     RDKit          3D

 26 25  0  0  0  0  0  0  0  0999 V2000
    0.6240   -1.4860    3.4413 C   0  0  0  0  0  0  0  0  0  0  0  0
    0.2069   -0.5965    3.2957 H   0  0  0  0  0  0  0  0  0  0  0  0
    1.4267   -1.5944    2.8682 H   0  0  0  0  0  0  0  0  0  0  0  0
    0.9089   -1.5861    4.4886 H   0  0  0  0  0  0  0  0  0  0  0  0
   -0.3916   -2.5593    3.0488 C   0  0  0  0  0  0  0  0  0  0  0  0
   -0.5774   -2.4773    2.0576 H   0  0  0  0  0  0  0  0  0  0  0  0
    0.0247   -3.4681    3.2075 H   0  0  0  0  0  0  0  0  0  0  0  0
   -1.6769   -2.4757    3.7936 N   0  0  0  0  0  4  0  0  0  0  0  0
   -2.3478   -1.9806    3.2432 H   0  0  0  0  0  0  0  0  0  0  0  0
   -2.0125   -3.3983    3.9809 H   0  0  0  0  0  0  0  0  0  0  0  0
   -1.5294   -1.9926    4.6560 H   0  0  0  0  0  0  0  0  0  0  0  0
    0.0068    2.9073    0.0127 C   0  0  0  0  0  0  0  0  0  0  0  0
   -0.7537    3.2237   -0.5357 H   0  0  0  0  0  0  0  0  0  0  0  0
    0.8702    3.2141   -0.3620 H   0  0  0  0  0  0  0  0  0  0  0  0
   -0.0969    3.3430    1.0065 H   0  0  0  0  0  0  0  0  0  0  0  0
   -0.0008    1.4058   -0.0021 C   0  0  0  0  0  0  0  0  0  0  0  0
   -1.2010    0.6984    0.0001 C   0  0  0  0  0  0  0  0  0  0  0  0
   -2.0665    1.1857    0.0010 H   0  0  0  0  0  0  0  0  0  0  0  0
   -1.2051   -0.7005    0.0000 C   0  0  0  0  0  0  0  0  0  0  0  0
   -2.0789   -1.1931    0.0002 H   0  0  0  0  0  0  0  0  0  0  0  0
    0.0027   -1.3992    0.0018 C   0  0  0  0  0  0  0  0  0  0  0  0
   -0.0026   -2.3966    0.0037 H   0  0  0  0  0  0  0  0  0  0  0  0
    1.2051   -0.7003    0.0000 C   0  0  0  0  0  0  0  0  0  0  0  0
    2.0860   -1.1954   -0.0004 H   0  0  0  0  0  0  0  0  0  0  0  0
    1.1991    0.6957    0.0001 C   0  0  0  0  0  0  0  0  0  0  0  0
    2.0665    1.1914    0.0012 H   0  0  0  0  0  0  0  0  0  0  0  0
  1  5  1  0
  5  8  1  0
  1  2  1  0
  1  3  1  0
  1  4  1  0
  5  6  1  0
  5  7  1  0
  8  9  1  0
  8 10  1  0
  8 11  1  0
 12 16  1  0
 16 17  2  0
 17 19  1  0
 19 21  2  0
 21 23  1  0
 23 25  2  0
 25 16  1  0
 12 13  1  0
 12 14  1  0
 12 15  1  0
 17 18  1  0
 19 20  1  0
 21 22  1  0
 23 24  1  0
 25 26  1  0
M  CHG  1   8   1
M  END
>  <PDB_ID>  (751) 
pdb2ou4

>  <RESIDUE_NAME>  (751) 
LYS   PHE

>  <FRAG_NAME>  (751) 
ETAM   MBZ

>  <FRAG_ATOM_NUM>  (751) 
fragi: 11  fragj: 15

>  <atom.prop.CHAIN_ID>  (751) 
A A A A A A A A A A A Z Z Z Z Z Z Z Z Z Z Z Z Z Z Z

>  <atom.prop.IS_HEAVY_ATOM>  (751) 
1 0 0 0 1 0 0 1 0 0 0 1 0 0 0 1 1 0 1 0 1 0 1 0 1 0

>  <DIFUSE_FUNC_ATOM>  (751) 
n/a

>  <FINAL_SINGLE_POINT_ENERGY>  (751) 
0

>  <NONCOV_INTER_ENERGY_QM>  (751) 
0

>  <FF_Energy>  (751) 
-0.91

>  <QM_Energy>  (751) 
-7.02

>  <source>  (751) 
ETAM_MBZ

>  <Index>  (751) 
7328

$$$$
ETAM-pdb2ox8-D-LYS-638:MBZ-pdb2ox8-D-PHE-634
     RDKit          3D

 26 25  0  0  0  0  0  0  0  0999 V2000
   -0.1890   -1.4819    4.5840 C   0  0  0  0  0  0  0  0  0  0  0  0
    0.0983   -2.4118    4.7899 H   0  0  0  0  0  0  0  0  0  0  0  0
   -0.6262   -1.0710    5.3765 H   0  0  0  0  0  0  0  0  0  0  0  0
    0.6900   -0.8931    4.3219 H   0  0  0  0  0  0  0  0  0  0  0  0
   -1.1855   -1.5206    3.4432 C   0  0  0  0  0  0  0  0  0  0  0  0
   -0.7459   -1.9350    2.6382 H   0  0  0  0  0  0  0  0  0  0  0  0
   -1.9669   -2.0972    3.7093 H   0  0  0  0  0  0  0  0  0  0  0  0
   -1.6867   -0.1651    3.0781 N   0  0  0  0  0  4  0  0  0  0  0  0
   -1.4782    0.0164    2.1177 H   0  0  0  0  0  0  0  0  0  0  0  0
   -2.6750   -0.1290    3.2196 H   0  0  0  0  0  0  0  0  0  0  0  0
   -1.2399    0.5187    3.6543 H   0  0  0  0  0  0  0  0  0  0  0  0
    0.0012    2.9011    0.0297 C   0  0  0  0  0  0  0  0  0  0  0  0
   -0.7034    3.2191   -0.5854 H   0  0  0  0  0  0  0  0  0  0  0  0
    0.8957    3.2117   -0.2513 H   0  0  0  0  0  0  0  0  0  0  0  0
   -0.2030    3.3127    1.0181 H   0  0  0  0  0  0  0  0  0  0  0  0
    0.0006    1.4014    0.0002 C   0  0  0  0  0  0  0  0  0  0  0  0
   -1.1959    0.6952   -0.0008 C   0  0  0  0  0  0  0  0  0  0  0  0
   -2.0632    1.1851   -0.0032 H   0  0  0  0  0  0  0  0  0  0  0  0
   -1.2019   -0.6975   -0.0000 C   0  0  0  0  0  0  0  0  0  0  0  0
   -2.0791   -1.1891    0.0011 H   0  0  0  0  0  0  0  0  0  0  0  0
   -0.0010   -1.3952    0.0004 C   0  0  0  0  0  0  0  0  0  0  0  0
   -0.0033   -2.3923    0.0005 H   0  0  0  0  0  0  0  0  0  0  0  0
    1.2019   -0.6966   -0.0000 C   0  0  0  0  0  0  0  0  0  0  0  0
    2.0819   -1.1949    0.0012 H   0  0  0  0  0  0  0  0  0  0  0  0
    1.1963    0.6928    0.0001 C   0  0  0  0  0  0  0  0  0  0  0  0
    2.0648    1.1905   -0.0007 H   0  0  0  0  0  0  0  0  0  0  0  0
  1  5  1  0
  5  8  1  0
  1  2  1  0
  1  3  1  0
  1  4  1  0
  5  6  1  0
  5  7  1  0
  8  9  1  0
  8 10  1  0
  8 11  1  0
 12 16  1  0
 16 17  2  0
 17 19  1  0
 19 21  2  0
 21 23  1  0
 23 25  2  0
 25 16  1  0
 12 13  1  0
 12 14  1  0
 12 15  1  0
 17 18  1  0
 19 20  1  0
 21 22  1  0
 23 24  1  0
 25 26  1  0
M  CHG  1   8   1
M  END
>  <PDB_ID>  (752) 
pdb2ox8

>  <RESIDUE_NAME>  (752) 
LYS   PHE

>  <FRAG_NAME>  (752) 
ETAM   MBZ

>  <FRAG_ATOM_NUM>  (752) 
fragi: 11  fragj: 15

>  <atom.prop.CHAIN_ID>  (752) 
A A A A A A A A A A A Z Z Z Z Z Z Z Z Z Z Z Z Z Z Z

>  <atom.prop.IS_HEAVY_ATOM>  (752) 
1 0 0 0 1 0 0 1 0 0 0 1 0 0 0 1 1 0 1 0 1 0 1 0 1 0

>  <DIFUSE_FUNC_ATOM>  (752) 
n/a

>  <FINAL_SINGLE_POINT_ENERGY>  (752) 
0

>  <NONCOV_INTER_ENERGY_QM>  (752) 
0

>  <FF_Energy>  (752) 
-6.74

>  <QM_Energy>  (752) 
-14.99

>  <source>  (752) 
ETAM_MBZ

>  <Index>  (752) 
7338

$$$$
ETAM-pdb1kit-A-LYS-773:MBZ-pdb1kit-A-PHE-696
     RDKit          3D

 26 25  0  0  0  0  0  0  0  0999 V2000
    1.8031   -1.9455   -3.4111 C   0  0  0  0  0  0  0  0  0  0  0  0
    1.1333   -1.2472   -3.6013 H   0  0  0  0  0  0  0  0  0  0  0  0
    1.7370   -2.2730   -2.4834 H   0  0  0  0  0  0  0  0  0  0  0  0
    1.6431   -2.7810   -4.0924 H   0  0  0  0  0  0  0  0  0  0  0  0
    3.2080   -1.3436   -3.6170 C   0  0  0  0  0  0  0  0  0  0  0  0
    3.8926   -2.0532   -3.4216 H   0  0  0  0  0  0  0  0  0  0  0  0
    3.2996   -1.0652   -4.5789 H   0  0  0  0  0  0  0  0  0  0  0  0
    3.4784   -0.1492   -2.7356 N   0  0  0  0  0  4  0  0  0  0  0  0
    4.4561   -0.1030   -2.5472 H   0  0  0  0  0  0  0  0  0  0  0  0
    3.1824    0.6744   -3.2113 H   0  0  0  0  0  0  0  0  0  0  0  0
    2.9704   -0.2555   -1.8851 H   0  0  0  0  0  0  0  0  0  0  0  0
    0.0112    2.9314    0.0127 C   0  0  0  0  0  0  0  0  0  0  0  0
   -0.7306    3.2453   -0.5562 H   0  0  0  0  0  0  0  0  0  0  0  0
    0.8868    3.2316   -0.3279 H   0  0  0  0  0  0  0  0  0  0  0  0
   -0.1238    3.3799    0.9970 H   0  0  0  0  0  0  0  0  0  0  0  0
   -0.0017    1.4111    0.0088 C   0  0  0  0  0  0  0  0  0  0  0  0
   -1.2072    0.6924   -0.0112 C   0  0  0  0  0  0  0  0  0  0  0  0
   -2.0710    1.1807   -0.0346 H   0  0  0  0  0  0  0  0  0  0  0  0
   -1.2050   -0.7032    0.0000 C   0  0  0  0  0  0  0  0  0  0  0  0
   -2.0731   -1.2037    0.0020 H   0  0  0  0  0  0  0  0  0  0  0  0
    0.0141   -1.4010    0.0103 C   0  0  0  0  0  0  0  0  0  0  0  0
    0.0053   -2.3979    0.0250 H   0  0  0  0  0  0  0  0  0  0  0  0
    1.2050   -0.7008    0.0000 C   0  0  0  0  0  0  0  0  0  0  0  0
    2.0925   -1.1862   -0.0006 H   0  0  0  0  0  0  0  0  0  0  0  0
    1.1948    0.7016   -0.0079 C   0  0  0  0  0  0  0  0  0  0  0  0
    2.0642    1.1947   -0.0268 H   0  0  0  0  0  0  0  0  0  0  0  0
  1  5  1  0
  5  8  1  0
  1  2  1  0
  1  3  1  0
  1  4  1  0
  5  6  1  0
  5  7  1  0
  8  9  1  0
  8 10  1  0
  8 11  1  0
 12 16  1  0
 16 17  2  0
 17 19  1  0
 19 21  2  0
 21 23  1  0
 23 25  2  0
 25 16  1  0
 12 13  1  0
 12 14  1  0
 12 15  1  0
 17 18  1  0
 19 20  1  0
 21 22  1  0
 23 24  1  0
 25 26  1  0
M  CHG  1   8   1
M  END
>  <PDB_ID>  (753) 
pdb1kit

>  <RESIDUE_NAME>  (753) 
LYS   PHE

>  <FRAG_NAME>  (753) 
ETAM   MBZ

>  <FRAG_ATOM_NUM>  (753) 
fragi: 11  fragj: 15

>  <atom.prop.CHAIN_ID>  (753) 
A A A A A A A A A A A Z Z Z Z Z Z Z Z Z Z Z Z Z Z Z

>  <atom.prop.IS_HEAVY_ATOM>  (753) 
1 0 0 0 1 0 0 1 0 0 0 1 0 0 0 1 1 0 1 0 1 0 1 0 1 0

>  <DIFUSE_FUNC_ATOM>  (753) 
n/a

>  <FINAL_SINGLE_POINT_ENERGY>  (753) 
0

>  <NONCOV_INTER_ENERGY_QM>  (753) 
0

>  <FF_Energy>  (753) 
-2.65

>  <QM_Energy>  (753) 
-8.31

>  <source>  (753) 
ETAM_MBZ

>  <Index>  (753) 
7357

$$$$
ETAM-pdb1kit-A-LYS-773:MBZ-pdb1kit-A-PHE-721
     RDKit          3D

 26 25  0  0  0  0  0  0  0  0999 V2000
   -2.8772   -3.1671    2.0919 C   0  0  0  0  0  0  0  0  0  0  0  0
   -2.3195   -2.9536    1.3071 H   0  0  0  0  0  0  0  0  0  0  0  0
   -3.8217   -3.3030    1.8436 H   0  0  0  0  0  0  0  0  0  0  0  0
   -2.4993   -4.0791    2.5540 H   0  0  0  0  0  0  0  0  0  0  0  0
   -2.7979   -1.9881    3.0828 C   0  0  0  0  0  0  0  0  0  0  0  0
   -3.3674   -2.2027    3.8828 H   0  0  0  0  0  0  0  0  0  0  0  0
   -1.8442   -1.8871    3.3851 H   0  0  0  0  0  0  0  0  0  0  0  0
   -3.2626   -0.6807    2.4900 N   0  0  0  0  0  4  0  0  0  0  0  0
   -3.6363   -0.1119    3.2182 H   0  0  0  0  0  0  0  0  0  0  0  0
   -2.4844   -0.2259    2.0660 H   0  0  0  0  0  0  0  0  0  0  0  0
   -3.9640   -0.8682    1.8077 H   0  0  0  0  0  0  0  0  0  0  0  0
   -0.0146    2.9197   -0.0989 C   0  0  0  0  0  0  0  0  0  0  0  0
    0.9057    3.2374    0.0323 H   0  0  0  0  0  0  0  0  0  0  0  0
   -0.6291    3.2583    0.5886 H   0  0  0  0  0  0  0  0  0  0  0  0
   -0.3617    3.2725   -1.0701 H   0  0  0  0  0  0  0  0  0  0  0  0
    0.0007    1.4071   -0.0007 C   0  0  0  0  0  0  0  0  0  0  0  0
   -1.1976    0.6967   -0.0095 C   0  0  0  0  0  0  0  0  0  0  0  0
   -2.0644    1.1834   -0.0237 H   0  0  0  0  0  0  0  0  0  0  0  0
   -1.2016   -0.7029    0.0000 C   0  0  0  0  0  0  0  0  0  0  0  0
   -2.0795   -1.1922   -0.0150 H   0  0  0  0  0  0  0  0  0  0  0  0
   -0.0011   -1.3990    0.0317 C   0  0  0  0  0  0  0  0  0  0  0  0
   -0.0029   -2.3951    0.0772 H   0  0  0  0  0  0  0  0  0  0  0  0
    1.2016   -0.6995    0.0000 C   0  0  0  0  0  0  0  0  0  0  0  0
    2.0827   -1.1958   -0.0060 H   0  0  0  0  0  0  0  0  0  0  0  0
    1.1980    0.6975   -0.0215 C   0  0  0  0  0  0  0  0  0  0  0  0
    2.0656    1.1906   -0.0528 H   0  0  0  0  0  0  0  0  0  0  0  0
  1  5  1  0
  5  8  1  0
  1  2  1  0
  1  3  1  0
  1  4  1  0
  5  6  1  0
  5  7  1  0
  8  9  1  0
  8 10  1  0
  8 11  1  0
 12 16  1  0
 16 17  2  0
 17 19  1  0
 19 21  2  0
 21 23  1  0
 23 25  2  0
 25 16  1  0
 12 13  1  0
 12 14  1  0
 12 15  1  0
 17 18  1  0
 19 20  1  0
 21 22  1  0
 23 24  1  0
 25 26  1  0
M  CHG  1   8   1
M  END
>  <PDB_ID>  (754) 
pdb1kit

>  <RESIDUE_NAME>  (754) 
LYS   PHE

>  <FRAG_NAME>  (754) 
ETAM   MBZ

>  <FRAG_ATOM_NUM>  (754) 
fragi: 11  fragj: 15

>  <atom.prop.CHAIN_ID>  (754) 
A A A A A A A A A A A Z Z Z Z Z Z Z Z Z Z Z Z Z Z Z

>  <atom.prop.IS_HEAVY_ATOM>  (754) 
1 0 0 0 1 0 0 1 0 0 0 1 0 0 0 1 1 0 1 0 1 0 1 0 1 0

>  <DIFUSE_FUNC_ATOM>  (754) 
n/a

>  <FINAL_SINGLE_POINT_ENERGY>  (754) 
0

>  <NONCOV_INTER_ENERGY_QM>  (754) 
0

>  <FF_Energy>  (754) 
-2.37

>  <QM_Energy>  (754) 
-9.66

>  <source>  (754) 
ETAM_MBZ

>  <Index>  (754) 
7358

$$$$
ETAM-pdb2p0a-A-LYS-260:MBZ-pdb2p0a-A-PHE-286
     RDKit          3D

 26 25  0  0  0  0  0  0  0  0999 V2000
   -1.1455   -0.2711   -3.6079 C   0  0  0  0  0  0  0  0  0  0  0  0
   -1.4591   -0.5872   -2.7157 H   0  0  0  0  0  0  0  0  0  0  0  0
   -1.4676   -0.8879   -4.3210 H   0  0  0  0  0  0  0  0  0  0  0  0
   -1.5433    0.7269   -3.7920 H   0  0  0  0  0  0  0  0  0  0  0  0
    0.3689   -0.2734   -3.6159 C   0  0  0  0  0  0  0  0  0  0  0  0
    0.6927    0.2339   -4.4224 H   0  0  0  0  0  0  0  0  0  0  0  0
    0.7019    0.1974   -2.7905 H   0  0  0  0  0  0  0  0  0  0  0  0
    0.9333   -1.6500   -3.6496 N   0  0  0  0  0  4  0  0  0  0  0  0
    1.4353   -1.7813   -4.5036 H   0  0  0  0  0  0  0  0  0  0  0  0
    1.5524   -1.7736   -2.8750 H   0  0  0  0  0  0  0  0  0  0  0  0
    0.1894   -2.3154   -3.5929 H   0  0  0  0  0  0  0  0  0  0  0  0
   -0.0033    2.8960    0.0056 C   0  0  0  0  0  0  0  0  0  0  0  0
   -0.7582    3.1997   -0.5594 H   0  0  0  0  0  0  0  0  0  0  0  0
    0.8636    3.2038   -0.3614 H   0  0  0  0  0  0  0  0  0  0  0  0
   -0.1249    3.3361    0.9954 H   0  0  0  0  0  0  0  0  0  0  0  0
   -0.0000    1.3983    0.0067 C   0  0  0  0  0  0  0  0  0  0  0  0
   -1.1999    0.6905    0.0053 C   0  0  0  0  0  0  0  0  0  0  0  0
   -2.0633    1.1872    0.0071 H   0  0  0  0  0  0  0  0  0  0  0  0
   -1.2011   -0.6857   -0.0000 C   0  0  0  0  0  0  0  0  0  0  0  0
   -2.0776   -1.1873    0.0083 H   0  0  0  0  0  0  0  0  0  0  0  0
   -0.0010   -1.3834   -0.0145 C   0  0  0  0  0  0  0  0  0  0  0  0
   -0.0148   -2.3870   -0.0362 H   0  0  0  0  0  0  0  0  0  0  0  0
    1.2011   -0.7050   -0.0000 C   0  0  0  0  0  0  0  0  0  0  0  0
    2.0782   -1.2052    0.0099 H   0  0  0  0  0  0  0  0  0  0  0  0
    1.2010    0.6853    0.0025 C   0  0  0  0  0  0  0  0  0  0  0  0
    2.0675    1.1812    0.0006 H   0  0  0  0  0  0  0  0  0  0  0  0
  1  5  1  0
  5  8  1  0
  1  2  1  0
  1  3  1  0
  1  4  1  0
  5  6  1  0
  5  7  1  0
  8  9  1  0
  8 10  1  0
  8 11  1  0
 12 16  1  0
 16 17  2  0
 17 19  1  0
 19 21  2  0
 21 23  1  0
 23 25  2  0
 25 16  1  0
 12 13  1  0
 12 14  1  0
 12 15  1  0
 17 18  1  0
 19 20  1  0
 21 22  1  0
 23 24  1  0
 25 26  1  0
M  CHG  1   8   1
M  END
>  <PDB_ID>  (755) 
pdb2p0a

>  <RESIDUE_NAME>  (755) 
LYS   PHE

>  <FRAG_NAME>  (755) 
ETAM   MBZ

>  <FRAG_ATOM_NUM>  (755) 
fragi: 11  fragj: 15

>  <atom.prop.CHAIN_ID>  (755) 
A A A A A A A A A A A Z Z Z Z Z Z Z Z Z Z Z Z Z Z Z

>  <atom.prop.IS_HEAVY_ATOM>  (755) 
1 0 0 0 1 0 0 1 0 0 0 1 0 0 0 1 1 0 1 0 1 0 1 0 1 0

>  <DIFUSE_FUNC_ATOM>  (755) 
n/a

>  <FINAL_SINGLE_POINT_ENERGY>  (755) 
0

>  <NONCOV_INTER_ENERGY_QM>  (755) 
0

>  <FF_Energy>  (755) 
-5.81

>  <QM_Energy>  (755) 
-11.78

>  <source>  (755) 
ETAM_MBZ

>  <Index>  (755) 
7360

$$$$
ETAM-pdb1k9e-A-LYS-359:MBZ-pdb1k9e-A-PHE-320
     RDKit          3D

 26 25  0  0  0  0  0  0  0  0999 V2000
   -2.3029    1.0105   -3.5683 C   0  0  0  0  0  0  0  0  0  0  0  0
   -2.6127    0.8441   -2.6430 H   0  0  0  0  0  0  0  0  0  0  0  0
   -2.6479    0.3202   -4.1893 H   0  0  0  0  0  0  0  0  0  0  0  0
   -2.6627    1.9878   -3.8902 H   0  0  0  0  0  0  0  0  0  0  0  0
   -0.7748    0.9608   -3.5856 C   0  0  0  0  0  0  0  0  0  0  0  0
   -0.4535    1.2175   -4.5034 H   0  0  0  0  0  0  0  0  0  0  0  0
   -0.4212    1.6320   -2.9250 H   0  0  0  0  0  0  0  0  0  0  0  0
   -0.2343   -0.3930   -3.2407 N   0  0  0  0  0  4  0  0  0  0  0  0
   -0.8424   -1.0921   -3.6112 H   0  0  0  0  0  0  0  0  0  0  0  0
    0.6763   -0.4925   -3.6368 H   0  0  0  0  0  0  0  0  0  0  0  0
   -0.1829   -0.4814   -2.2477 H   0  0  0  0  0  0  0  0  0  0  0  0
   -0.0022    2.9103   -0.0119 C   0  0  0  0  0  0  0  0  0  0  0  0
   -0.4117    3.2093   -0.8605 H   0  0  0  0  0  0  0  0  0  0  0  0
    0.9336    3.2196    0.0652 H   0  0  0  0  0  0  0  0  0  0  0  0
   -0.5684    3.3550    0.8064 H   0  0  0  0  0  0  0  0  0  0  0  0
    0.0008    1.4072    0.0000 C   0  0  0  0  0  0  0  0  0  0  0  0
   -1.1997    0.6966    0.0008 C   0  0  0  0  0  0  0  0  0  0  0  0
   -2.0654    1.1835    0.0007 H   0  0  0  0  0  0  0  0  0  0  0  0
   -1.2050   -0.7039   -0.0000 C   0  0  0  0  0  0  0  0  0  0  0  0
   -2.0807   -1.1935    0.0008 H   0  0  0  0  0  0  0  0  0  0  0  0
   -0.0006   -1.4004   -0.0006 C   0  0  0  0  0  0  0  0  0  0  0  0
   -0.0009   -2.3971   -0.0021 H   0  0  0  0  0  0  0  0  0  0  0  0
    1.2050   -0.6975    0.0000 C   0  0  0  0  0  0  0  0  0  0  0  0
    2.0854   -1.1944    0.0016 H   0  0  0  0  0  0  0  0  0  0  0  0
    1.1995    0.6979   -0.0002 C   0  0  0  0  0  0  0  0  0  0  0  0
    2.0671    1.1932   -0.0021 H   0  0  0  0  0  0  0  0  0  0  0  0
  1  5  1  0
  5  8  1  0
  1  2  1  0
  1  3  1  0
  1  4  1  0
  5  6  1  0
  5  7  1  0
  8  9  1  0
  8 10  1  0
  8 11  1  0
 12 16  1  0
 16 17  2  0
 17 19  1  0
 19 21  2  0
 21 23  1  0
 23 25  2  0
 25 16  1  0
 12 13  1  0
 12 14  1  0
 12 15  1  0
 17 18  1  0
 19 20  1  0
 21 22  1  0
 23 24  1  0
 25 26  1  0
M  CHG  1   8   1
M  END
>  <PDB_ID>  (756) 
pdb1k9e

>  <RESIDUE_NAME>  (756) 
LYS   PHE

>  <FRAG_NAME>  (756) 
ETAM   MBZ

>  <FRAG_ATOM_NUM>  (756) 
fragi: 11  fragj: 15

>  <atom.prop.CHAIN_ID>  (756) 
A A A A A A A A A A A Z Z Z Z Z Z Z Z Z Z Z Z Z Z Z

>  <atom.prop.IS_HEAVY_ATOM>  (756) 
1 0 0 0 1 0 0 1 0 0 0 1 0 0 0 1 1 0 1 0 1 0 1 0 1 0

>  <DIFUSE_FUNC_ATOM>  (756) 
n/a

>  <FINAL_SINGLE_POINT_ENERGY>  (756) 
0

>  <NONCOV_INTER_ENERGY_QM>  (756) 
0

>  <FF_Energy>  (756) 
-10.06

>  <QM_Energy>  (756) 
-17.82

>  <source>  (756) 
ETAM_MBZ

>  <Index>  (756) 
7370

$$$$
ETAM-pdb1k9d-A-LYS-359:MBZ-pdb1k9d-A-PHE-320
     RDKit          3D

 26 25  0  0  0  0  0  0  0  0999 V2000
   -2.6825    0.7184   -3.4340 C   0  0  0  0  0  0  0  0  0  0  0  0
   -2.9398    0.5389   -2.4968 H   0  0  0  0  0  0  0  0  0  0  0  0
   -2.9878   -0.0034   -4.0358 H   0  0  0  0  0  0  0  0  0  0  0  0
   -3.1292    1.6605   -3.7518 H   0  0  0  0  0  0  0  0  0  0  0  0
   -1.1629    0.8074   -3.5125 C   0  0  0  0  0  0  0  0  0  0  0  0
   -0.9027    1.0742   -4.4471 H   0  0  0  0  0  0  0  0  0  0  0  0
   -0.8473    1.5224   -2.8780 H   0  0  0  0  0  0  0  0  0  0  0  0
   -0.4965   -0.4786   -3.1681 N   0  0  0  0  0  4  0  0  0  0  0  0
   -1.0061   -1.2351   -3.5766 H   0  0  0  0  0  0  0  0  0  0  0  0
    0.4382   -0.4727   -3.5228 H   0  0  0  0  0  0  0  0  0  0  0  0
   -0.4768   -0.5856   -2.1746 H   0  0  0  0  0  0  0  0  0  0  0  0
   -0.0028    2.9116    0.0043 C   0  0  0  0  0  0  0  0  0  0  0  0
   -0.3973    3.2187   -0.8473 H   0  0  0  0  0  0  0  0  0  0  0  0
    0.9316    3.2192    0.1011 H   0  0  0  0  0  0  0  0  0  0  0  0
   -0.5831    3.3478    0.8174 H   0  0  0  0  0  0  0  0  0  0  0  0
    0.0000    1.4063    0.0002 C   0  0  0  0  0  0  0  0  0  0  0  0
   -1.1989    0.6946    0.0003 C   0  0  0  0  0  0  0  0  0  0  0  0
   -2.0654    1.1834   -0.0002 H   0  0  0  0  0  0  0  0  0  0  0  0
   -1.2050   -0.7026    0.0000 C   0  0  0  0  0  0  0  0  0  0  0  0
   -2.0809   -1.1938    0.0009 H   0  0  0  0  0  0  0  0  0  0  0  0
   -0.0002   -1.3988    0.0004 C   0  0  0  0  0  0  0  0  0  0  0  0
   -0.0014   -2.3963    0.0004 H   0  0  0  0  0  0  0  0  0  0  0  0
    1.2050   -0.6978   -0.0000 C   0  0  0  0  0  0  0  0  0  0  0  0
    2.0848   -1.1935    0.0017 H   0  0  0  0  0  0  0  0  0  0  0  0
    1.1990    0.6983   -0.0009 C   0  0  0  0  0  0  0  0  0  0  0  0
    2.0665    1.1937   -0.0034 H   0  0  0  0  0  0  0  0  0  0  0  0
  1  5  1  0
  5  8  1  0
  1  2  1  0
  1  3  1  0
  1  4  1  0
  5  6  1  0
  5  7  1  0
  8  9  1  0
  8 10  1  0
  8 11  1  0
 12 16  1  0
 16 17  2  0
 17 19  1  0
 19 21  2  0
 21 23  1  0
 23 25  2  0
 25 16  1  0
 12 13  1  0
 12 14  1  0
 12 15  1  0
 17 18  1  0
 19 20  1  0
 21 22  1  0
 23 24  1  0
 25 26  1  0
M  CHG  1   8   1
M  END
>  <PDB_ID>  (757) 
pdb1k9d

>  <RESIDUE_NAME>  (757) 
LYS   PHE

>  <FRAG_NAME>  (757) 
ETAM   MBZ

>  <FRAG_ATOM_NUM>  (757) 
fragi: 11  fragj: 15

>  <atom.prop.CHAIN_ID>  (757) 
A A A A A A A A A A A Z Z Z Z Z Z Z Z Z Z Z Z Z Z Z

>  <atom.prop.IS_HEAVY_ATOM>  (757) 
1 0 0 0 1 0 0 1 0 0 0 1 0 0 0 1 1 0 1 0 1 0 1 0 1 0

>  <DIFUSE_FUNC_ATOM>  (757) 
n/a

>  <FINAL_SINGLE_POINT_ENERGY>  (757) 
0

>  <NONCOV_INTER_ENERGY_QM>  (757) 
0

>  <FF_Energy>  (757) 
-9.72

>  <QM_Energy>  (757) 
-17.83

>  <source>  (757) 
ETAM_MBZ

>  <Index>  (757) 
7371

$$$$
ETAM-pdb1kij-A-LYS-163:MBZ-pdb1kij-A-PHE-134
     RDKit          3D

 26 25  0  0  0  0  0  0  0  0999 V2000
   -0.1591    1.0665   -4.4001 C   0  0  0  0  0  0  0  0  0  0  0  0
   -1.1025    1.2898   -4.6425 H   0  0  0  0  0  0  0  0  0  0  0  0
    0.3152    0.7000   -5.2000 H   0  0  0  0  0  0  0  0  0  0  0  0
    0.3467    1.9750   -4.0731 H   0  0  0  0  0  0  0  0  0  0  0  0
   -0.1836   -0.0110   -3.3213 C   0  0  0  0  0  0  0  0  0  0  0  0
    0.7504   -0.3161   -3.1463 H   0  0  0  0  0  0  0  0  0  0  0  0
   -0.5748    0.3735   -2.4871 H   0  0  0  0  0  0  0  0  0  0  0  0
   -1.0076   -1.1794   -3.7572 N   0  0  0  0  0  4  0  0  0  0  0  0
   -1.9663   -0.9034   -3.8112 H   0  0  0  0  0  0  0  0  0  0  0  0
   -0.6937   -1.4865   -4.6538 H   0  0  0  0  0  0  0  0  0  0  0  0
   -0.9064   -1.9188   -3.0940 H   0  0  0  0  0  0  0  0  0  0  0  0
    0.0052    2.9091    0.0562 C   0  0  0  0  0  0  0  0  0  0  0  0
   -0.8587    3.2290   -0.2952 H   0  0  0  0  0  0  0  0  0  0  0  0
    0.7623    3.2331   -0.4863 H   0  0  0  0  0  0  0  0  0  0  0  0
    0.1234    3.3043    1.0651 H   0  0  0  0  0  0  0  0  0  0  0  0
    0.0026    1.4046    0.0007 C   0  0  0  0  0  0  0  0  0  0  0  0
   -1.1980    0.6922   -0.0004 C   0  0  0  0  0  0  0  0  0  0  0  0
   -2.0641    1.1840   -0.0026 H   0  0  0  0  0  0  0  0  0  0  0  0
   -1.2043   -0.7005   -0.0000 C   0  0  0  0  0  0  0  0  0  0  0  0
   -2.0816   -1.1921    0.0010 H   0  0  0  0  0  0  0  0  0  0  0  0
   -0.0035   -1.3972    0.0004 C   0  0  0  0  0  0  0  0  0  0  0  0
   -0.0037   -2.3944   -0.0000 H   0  0  0  0  0  0  0  0  0  0  0  0
    1.2043   -0.6973    0.0000 C   0  0  0  0  0  0  0  0  0  0  0  0
    2.0832   -1.1950    0.0016 H   0  0  0  0  0  0  0  0  0  0  0  0
    1.1989    0.6981   -0.0007 C   0  0  0  0  0  0  0  0  0  0  0  0
    2.0672    1.1923   -0.0028 H   0  0  0  0  0  0  0  0  0  0  0  0
  1  5  1  0
  5  8  1  0
  1  2  1  0
  1  3  1  0
  1  4  1  0
  5  6  1  0
  5  7  1  0
  8  9  1  0
  8 10  1  0
  8 11  1  0
 12 16  1  0
 16 17  2  0
 17 19  1  0
 19 21  2  0
 21 23  1  0
 23 25  2  0
 25 16  1  0
 12 13  1  0
 12 14  1  0
 12 15  1  0
 17 18  1  0
 19 20  1  0
 21 22  1  0
 23 24  1  0
 25 26  1  0
M  CHG  1   8   1
M  END
>  <PDB_ID>  (758) 
pdb1kij

>  <RESIDUE_NAME>  (758) 
LYS   PHE

>  <FRAG_NAME>  (758) 
ETAM   MBZ

>  <FRAG_ATOM_NUM>  (758) 
fragi: 11  fragj: 15

>  <atom.prop.CHAIN_ID>  (758) 
A A A A A A A A A A A Z Z Z Z Z Z Z Z Z Z Z Z Z Z Z

>  <atom.prop.IS_HEAVY_ATOM>  (758) 
1 0 0 0 1 0 0 1 0 0 0 1 0 0 0 1 1 0 1 0 1 0 1 0 1 0

>  <DIFUSE_FUNC_ATOM>  (758) 
n/a

>  <FINAL_SINGLE_POINT_ENERGY>  (758) 
0

>  <NONCOV_INTER_ENERGY_QM>  (758) 
0

>  <FF_Energy>  (758) 
-5.56

>  <QM_Energy>  (758) 
-11.56

>  <source>  (758) 
ETAM_MBZ

>  <Index>  (758) 
7373

$$$$
ETAM-pdb2p18-A-LYS-7:MBZ-pdb2p18-A-PHE-205
     RDKit          3D

 26 25  0  0  0  0  0  0  0  0999 V2000
   -0.1187    0.2256    4.2259 C   0  0  0  0  0  0  0  0  0  0  0  0
   -0.4081   -0.0953    5.1201 H   0  0  0  0  0  0  0  0  0  0  0  0
   -0.9046    0.4376    3.6583 H   0  0  0  0  0  0  0  0  0  0  0  0
    0.4688    1.1342    4.3582 H   0  0  0  0  0  0  0  0  0  0  0  0
    0.6964   -0.8568    3.5545 C   0  0  0  0  0  0  0  0  0  0  0  0
    0.9146   -0.5792    2.6152 H   0  0  0  0  0  0  0  0  0  0  0  0
    1.5530   -0.9949    4.0592 H   0  0  0  0  0  0  0  0  0  0  0  0
   -0.0391   -2.1844    3.4978 N   0  0  0  0  0  4  0  0  0  0  0  0
    0.5469   -2.8874    3.8883 H   0  0  0  0  0  0  0  0  0  0  0  0
   -0.8798   -2.1035    4.0231 H   0  0  0  0  0  0  0  0  0  0  0  0
   -0.2439   -2.3923    2.5472 H   0  0  0  0  0  0  0  0  0  0  0  0
    0.0248    2.9233   -0.0532 C   0  0  0  0  0  0  0  0  0  0  0  0
    0.8686    3.2336    0.3371 H   0  0  0  0  0  0  0  0  0  0  0  0
   -0.7610    3.2555    0.4298 H   0  0  0  0  0  0  0  0  0  0  0  0
   -0.0285    3.2966   -1.0759 H   0  0  0  0  0  0  0  0  0  0  0  0
    0.0076    1.4134    0.0056 C   0  0  0  0  0  0  0  0  0  0  0  0
   -1.2049    0.7094   -0.0026 C   0  0  0  0  0  0  0  0  0  0  0  0
   -2.0630    1.2028   -0.0118 H   0  0  0  0  0  0  0  0  0  0  0  0
   -1.2113   -0.6881   -0.0000 C   0  0  0  0  0  0  0  0  0  0  0  0
   -2.0893   -1.1795   -0.0040 H   0  0  0  0  0  0  0  0  0  0  0  0
   -0.0057   -1.4034    0.0097 C   0  0  0  0  0  0  0  0  0  0  0  0
   -0.0313   -2.4039    0.0228 H   0  0  0  0  0  0  0  0  0  0  0  0
    1.2113   -0.7322    0.0000 C   0  0  0  0  0  0  0  0  0  0  0  0
    2.0824   -1.2129    0.0027 H   0  0  0  0  0  0  0  0  0  0  0  0
    1.2030    0.7010   -0.0127 C   0  0  0  0  0  0  0  0  0  0  0  0
    2.0763    1.1775   -0.0360 H   0  0  0  0  0  0  0  0  0  0  0  0
  1  5  1  0
  5  8  1  0
  1  2  1  0
  1  3  1  0
  1  4  1  0
  5  6  1  0
  5  7  1  0
  8  9  1  0
  8 10  1  0
  8 11  1  0
 12 16  1  0
 16 17  2  0
 17 19  1  0
 19 21  2  0
 21 23  1  0
 23 25  2  0
 25 16  1  0
 12 13  1  0
 12 14  1  0
 12 15  1  0
 17 18  1  0
 19 20  1  0
 21 22  1  0
 23 24  1  0
 25 26  1  0
M  CHG  1   8   1
M  END
>  <PDB_ID>  (759) 
pdb2p18

>  <RESIDUE_NAME>  (759) 
LYS   PHE

>  <FRAG_NAME>  (759) 
ETAM   MBZ

>  <FRAG_ATOM_NUM>  (759) 
fragi: 11  fragj: 15

>  <atom.prop.CHAIN_ID>  (759) 
A A A A A A A A A A A Z Z Z Z Z Z Z Z Z Z Z Z Z Z Z

>  <atom.prop.IS_HEAVY_ATOM>  (759) 
1 0 0 0 1 0 0 1 0 0 0 1 0 0 0 1 1 0 1 0 1 0 1 0 1 0

>  <DIFUSE_FUNC_ATOM>  (759) 
n/a

>  <FINAL_SINGLE_POINT_ENERGY>  (759) 
0

>  <NONCOV_INTER_ENERGY_QM>  (759) 
0

>  <FF_Energy>  (759) 
-5.02

>  <QM_Energy>  (759) 
-12.09

>  <source>  (759) 
ETAM_MBZ

>  <Index>  (759) 
7380

$$$$
ETAM-pdb1kl9-A-LYS-77:MBZ-pdb1kl9-A-PHE-12
     RDKit          3D

 26 25  0  0  0  0  0  0  0  0999 V2000
   -1.7734    0.6786   -4.0516 C   0  0  0  0  0  0  0  0  0  0  0  0
   -1.4477    1.2646   -4.7992 H   0  0  0  0  0  0  0  0  0  0  0  0
   -2.5248    0.1068   -4.3925 H   0  0  0  0  0  0  0  0  0  0  0  0
   -0.9562    0.0287   -3.7386 H   0  0  0  0  0  0  0  0  0  0  0  0
   -2.3051    1.5629   -2.9417 C   0  0  0  0  0  0  0  0  0  0  0  0
   -2.0393    1.1712   -2.0552 H   0  0  0  0  0  0  0  0  0  0  0  0
   -1.8941    2.4771   -3.0247 H   0  0  0  0  0  0  0  0  0  0  0  0
   -3.7890    1.6924   -2.9897 N   0  0  0  0  0  4  0  0  0  0  0  0
   -4.0514    2.1808   -3.8215 H   0  0  0  0  0  0  0  0  0  0  0  0
   -4.2005    0.7820   -2.9906 H   0  0  0  0  0  0  0  0  0  0  0  0
   -4.1022    2.2009   -2.1885 H   0  0  0  0  0  0  0  0  0  0  0  0
   -0.0042    2.8836   -0.0250 C   0  0  0  0  0  0  0  0  0  0  0  0
   -0.7157    3.1838   -0.6470 H   0  0  0  0  0  0  0  0  0  0  0  0
    0.8874    3.1895   -0.3356 H   0  0  0  0  0  0  0  0  0  0  0  0
   -0.1940    3.3504    0.9415 H   0  0  0  0  0  0  0  0  0  0  0  0
   -0.0040    1.3914    0.0021 C   0  0  0  0  0  0  0  0  0  0  0  0
   -1.1897    0.6887   -0.0081 C   0  0  0  0  0  0  0  0  0  0  0  0
   -2.0600    1.1776   -0.0229 H   0  0  0  0  0  0  0  0  0  0  0  0
   -1.1906   -0.6935    0.0000 C   0  0  0  0  0  0  0  0  0  0  0  0
   -2.0691   -1.1896   -0.0008 H   0  0  0  0  0  0  0  0  0  0  0  0
    0.0030   -1.3816    0.0112 C   0  0  0  0  0  0  0  0  0  0  0  0
   -0.0022   -2.3852    0.0275 H   0  0  0  0  0  0  0  0  0  0  0  0
    1.1906   -0.6931   -0.0000 C   0  0  0  0  0  0  0  0  0  0  0  0
    2.0774   -1.1922   -0.0028 H   0  0  0  0  0  0  0  0  0  0  0  0
    1.1907    0.6880   -0.0052 C   0  0  0  0  0  0  0  0  0  0  0  0
    2.0579    1.1858   -0.0151 H   0  0  0  0  0  0  0  0  0  0  0  0
  1  5  1  0
  5  8  1  0
  1  2  1  0
  1  3  1  0
  1  4  1  0
  5  6  1  0
  5  7  1  0
  8  9  1  0
  8 10  1  0
  8 11  1  0
 12 16  1  0
 16 17  2  0
 17 19  1  0
 19 21  2  0
 21 23  1  0
 23 25  2  0
 25 16  1  0
 12 13  1  0
 12 14  1  0
 12 15  1  0
 17 18  1  0
 19 20  1  0
 21 22  1  0
 23 24  1  0
 25 26  1  0
M  CHG  1   8   1
M  END
>  <PDB_ID>  (760) 
pdb1kl9

>  <RESIDUE_NAME>  (760) 
LYS   PHE

>  <FRAG_NAME>  (760) 
ETAM   MBZ

>  <FRAG_ATOM_NUM>  (760) 
fragi: 11  fragj: 15

>  <atom.prop.CHAIN_ID>  (760) 
A A A A A A A A A A A Z Z Z Z Z Z Z Z Z Z Z Z Z Z Z

>  <atom.prop.IS_HEAVY_ATOM>  (760) 
1 0 0 0 1 0 0 1 0 0 0 1 0 0 0 1 1 0 1 0 1 0 1 0 1 0

>  <DIFUSE_FUNC_ATOM>  (760) 
n/a

>  <FINAL_SINGLE_POINT_ENERGY>  (760) 
0

>  <NONCOV_INTER_ENERGY_QM>  (760) 
0

>  <FF_Energy>  (760) 
2.19

>  <QM_Energy>  (760) 
-4.15

>  <source>  (760) 
ETAM_MBZ

>  <Index>  (760) 
7409

$$$$
ETAM-pdb1kij-B-LYS-163:MBZ-pdb1kij-B-PHE-134
     RDKit          3D

 26 25  0  0  0  0  0  0  0  0999 V2000
    1.4655    0.9533   -4.2459 C   0  0  0  0  0  0  0  0  0  0  0  0
    1.3229    0.7715   -5.2172 H   0  0  0  0  0  0  0  0  0  0  0  0
    2.4297    0.8294   -4.0183 H   0  0  0  0  0  0  0  0  0  0  0  0
    1.1839    1.9855   -4.0375 H   0  0  0  0  0  0  0  0  0  0  0  0
    0.6474   -0.0554   -3.4407 C   0  0  0  0  0  0  0  0  0  0  0  0
    0.9714   -0.9853   -3.6697 H   0  0  0  0  0  0  0  0  0  0  0  0
    0.8266    0.0981   -2.4579 H   0  0  0  0  0  0  0  0  0  0  0  0
   -0.8120    0.0294   -3.6898 N   0  0  0  0  0  4  0  0  0  0  0  0
   -1.2782    0.3170   -2.8523 H   0  0  0  0  0  0  0  0  0  0  0  0
   -0.9890    0.6957   -4.4154 H   0  0  0  0  0  0  0  0  0  0  0  0
   -1.1561   -0.8674   -3.9706 H   0  0  0  0  0  0  0  0  0  0  0  0
    0.0014    2.9145    0.0658 C   0  0  0  0  0  0  0  0  0  0  0  0
   -0.7808    3.2436   -0.4372 H   0  0  0  0  0  0  0  0  0  0  0  0
    0.8487    3.2371   -0.3231 H   0  0  0  0  0  0  0  0  0  0  0  0
   -0.0680    3.3042    1.0813 H   0  0  0  0  0  0  0  0  0  0  0  0
   -0.0002    1.4102    0.0003 C   0  0  0  0  0  0  0  0  0  0  0  0
   -1.1994    0.6983   -0.0001 C   0  0  0  0  0  0  0  0  0  0  0  0
   -2.0664    1.1862   -0.0014 H   0  0  0  0  0  0  0  0  0  0  0  0
   -1.2058   -0.7015   -0.0000 C   0  0  0  0  0  0  0  0  0  0  0  0
   -2.0820   -1.1910    0.0006 H   0  0  0  0  0  0  0  0  0  0  0  0
   -0.0008   -1.4043    0.0015 C   0  0  0  0  0  0  0  0  0  0  0  0
   -0.0048   -2.3992    0.0027 H   0  0  0  0  0  0  0  0  0  0  0  0
    1.2058   -0.7030    0.0000 C   0  0  0  0  0  0  0  0  0  0  0  0
    2.0862   -1.1966    0.0017 H   0  0  0  0  0  0  0  0  0  0  0  0
    1.2004    0.7003   -0.0016 C   0  0  0  0  0  0  0  0  0  0  0  0
    2.0677    1.1922   -0.0043 H   0  0  0  0  0  0  0  0  0  0  0  0
  1  5  1  0
  5  8  1  0
  1  2  1  0
  1  3  1  0
  1  4  1  0
  5  6  1  0
  5  7  1  0
  8  9  1  0
  8 10  1  0
  8 11  1  0
 12 16  1  0
 16 17  2  0
 17 19  1  0
 19 21  2  0
 21 23  1  0
 23 25  2  0
 25 16  1  0
 12 13  1  0
 12 14  1  0
 12 15  1  0
 17 18  1  0
 19 20  1  0
 21 22  1  0
 23 24  1  0
 25 26  1  0
M  CHG  1   8   1
M  END
>  <PDB_ID>  (761) 
pdb1kij

>  <RESIDUE_NAME>  (761) 
LYS   PHE

>  <FRAG_NAME>  (761) 
ETAM   MBZ

>  <FRAG_ATOM_NUM>  (761) 
fragi: 11  fragj: 15

>  <atom.prop.CHAIN_ID>  (761) 
A A A A A A A A A A A Z Z Z Z Z Z Z Z Z Z Z Z Z Z Z

>  <atom.prop.IS_HEAVY_ATOM>  (761) 
1 0 0 0 1 0 0 1 0 0 0 1 0 0 0 1 1 0 1 0 1 0 1 0 1 0

>  <DIFUSE_FUNC_ATOM>  (761) 
n/a

>  <FINAL_SINGLE_POINT_ENERGY>  (761) 
0

>  <NONCOV_INTER_ENERGY_QM>  (761) 
0

>  <FF_Energy>  (761) 
-6.49

>  <QM_Energy>  (761) 
-13.28

>  <source>  (761) 
ETAM_MBZ

>  <Index>  (761) 
7417

$$$$
ETAM-pdb2p0i-B-LYS-262:MBZ-pdb2p0i-B-PHE-270
     RDKit          3D

 26 25  0  0  0  0  0  0  0  0999 V2000
    5.1850    1.7315    1.7736 C   0  0  0  0  0  0  0  0  0  0  0  0
    6.0432    2.2159    1.8895 H   0  0  0  0  0  0  0  0  0  0  0  0
    5.3452    0.7818    1.5394 H   0  0  0  0  0  0  0  0  0  0  0  0
    4.6250    1.7764    2.7077 H   0  0  0  0  0  0  0  0  0  0  0  0
    4.4021    2.3840    0.6616 C   0  0  0  0  0  0  0  0  0  0  0  0
    3.4837    1.9675    0.6189 H   0  0  0  0  0  0  0  0  0  0  0  0
    4.2876    3.3650    0.8733 H   0  0  0  0  0  0  0  0  0  0  0  0
    5.0586    2.2455   -0.6547 N   0  0  0  0  0  4  0  0  0  0  0  0
    4.7275    2.9600   -1.2731 H   0  0  0  0  0  0  0  0  0  0  0  0
    6.0500    2.3350   -0.5476 H   0  0  0  0  0  0  0  0  0  0  0  0
    4.8473    1.3471   -1.0431 H   0  0  0  0  0  0  0  0  0  0  0  0
   -0.0014    2.8960   -0.0793 C   0  0  0  0  0  0  0  0  0  0  0  0
    0.8351    3.2308    0.3214 H   0  0  0  0  0  0  0  0  0  0  0  0
   -0.7967    3.2294    0.3987 H   0  0  0  0  0  0  0  0  0  0  0  0
   -0.0504    3.2731   -1.1007 H   0  0  0  0  0  0  0  0  0  0  0  0
    0.0032    1.4012   -0.0027 C   0  0  0  0  0  0  0  0  0  0  0  0
   -1.2046    0.6944   -0.0052 C   0  0  0  0  0  0  0  0  0  0  0  0
   -2.0636    1.1956   -0.0117 H   0  0  0  0  0  0  0  0  0  0  0  0
   -1.2105   -0.6832   -0.0000 C   0  0  0  0  0  0  0  0  0  0  0  0
   -2.0817   -1.1877   -0.0064 H   0  0  0  0  0  0  0  0  0  0  0  0
    0.0027   -1.3950    0.0158 C   0  0  0  0  0  0  0  0  0  0  0  0
   -0.0172   -2.3920    0.0378 H   0  0  0  0  0  0  0  0  0  0  0  0
    1.2105   -0.7102    0.0000 C   0  0  0  0  0  0  0  0  0  0  0  0
    2.0861   -1.2013   -0.0041 H   0  0  0  0  0  0  0  0  0  0  0  0
    1.1987    0.6928   -0.0078 C   0  0  0  0  0  0  0  0  0  0  0  0
    2.0693    1.1857   -0.0180 H   0  0  0  0  0  0  0  0  0  0  0  0
  1  5  1  0
  5  8  1  0
  1  2  1  0
  1  3  1  0
  1  4  1  0
  5  6  1  0
  5  7  1  0
  8  9  1  0
  8 10  1  0
  8 11  1  0
 12 16  1  0
 16 17  2  0
 17 19  1  0
 19 21  2  0
 21 23  1  0
 23 25  2  0
 25 16  1  0
 12 13  1  0
 12 14  1  0
 12 15  1  0
 17 18  1  0
 19 20  1  0
 21 22  1  0
 23 24  1  0
 25 26  1  0
M  CHG  1   8   1
M  END
>  <PDB_ID>  (762) 
pdb2p0i

>  <RESIDUE_NAME>  (762) 
LYS   PHE

>  <FRAG_NAME>  (762) 
ETAM   MBZ

>  <FRAG_ATOM_NUM>  (762) 
fragi: 11  fragj: 15

>  <atom.prop.CHAIN_ID>  (762) 
A A A A A A A A A A A Z Z Z Z Z Z Z Z Z Z Z Z Z Z Z

>  <atom.prop.IS_HEAVY_ATOM>  (762) 
1 0 0 0 1 0 0 1 0 0 0 1 0 0 0 1 1 0 1 0 1 0 1 0 1 0

>  <DIFUSE_FUNC_ATOM>  (762) 
n/a

>  <FINAL_SINGLE_POINT_ENERGY>  (762) 
0

>  <NONCOV_INTER_ENERGY_QM>  (762) 
0

>  <FF_Energy>  (762) 
5.89

>  <QM_Energy>  (762) 
-0.75

>  <source>  (762) 
ETAM_MBZ

>  <Index>  (762) 
7429

$$$$
ETAM-pdb2p4z-B-LYS-163:MBZ-pdb2p4z-B-PHE-160
     RDKit          3D

 26 25  0  0  0  0  0  0  0  0999 V2000
    2.5694    1.6624   -4.5618 C   0  0  0  0  0  0  0  0  0  0  0  0
    3.3374    1.4519   -5.1404 H   0  0  0  0  0  0  0  0  0  0  0  0
    2.7759    2.3730   -3.9140 H   0  0  0  0  0  0  0  0  0  0  0  0
    1.7318    1.9783   -5.1838 H   0  0  0  0  0  0  0  0  0  0  0  0
    2.1866    0.3889   -3.7796 C   0  0  0  0  0  0  0  0  0  0  0  0
    1.4481    0.6229   -3.1346 H   0  0  0  0  0  0  0  0  0  0  0  0
    1.8289   -0.2902   -4.4331 H   0  0  0  0  0  0  0  0  0  0  0  0
    3.3284   -0.2162   -3.0202 N   0  0  0  0  0  4  0  0  0  0  0  0
    3.3656   -1.1950   -3.2121 H   0  0  0  0  0  0  0  0  0  0  0  0
    4.1790    0.2180   -3.3088 H   0  0  0  0  0  0  0  0  0  0  0  0
    3.1864   -0.0671   -2.0441 H   0  0  0  0  0  0  0  0  0  0  0  0
    0.0061    2.8999   -0.0366 C   0  0  0  0  0  0  0  0  0  0  0  0
    0.7954    3.2217    0.4553 H   0  0  0  0  0  0  0  0  0  0  0  0
   -0.8350    3.2209    0.3617 H   0  0  0  0  0  0  0  0  0  0  0  0
    0.0640    3.2917   -1.0520 H   0  0  0  0  0  0  0  0  0  0  0  0
    0.0037    1.3989    0.0091 C   0  0  0  0  0  0  0  0  0  0  0  0
   -1.1993    0.6914   -0.0006 C   0  0  0  0  0  0  0  0  0  0  0  0
   -2.0625    1.1876   -0.0089 H   0  0  0  0  0  0  0  0  0  0  0  0
   -1.2071   -0.6958    0.0000 C   0  0  0  0  0  0  0  0  0  0  0  0
   -2.0845   -1.1895    0.0002 H   0  0  0  0  0  0  0  0  0  0  0  0
   -0.0080   -1.3934    0.0019 C   0  0  0  0  0  0  0  0  0  0  0  0
   -0.0070   -2.3902    0.0041 H   0  0  0  0  0  0  0  0  0  0  0  0
    1.2071   -0.6935    0.0000 C   0  0  0  0  0  0  0  0  0  0  0  0
    2.0810   -1.1994    0.0078 H   0  0  0  0  0  0  0  0  0  0  0  0
    1.2035    0.6925   -0.0104 C   0  0  0  0  0  0  0  0  0  0  0  0
    2.0687    1.1914   -0.0329 H   0  0  0  0  0  0  0  0  0  0  0  0
  1  5  1  0
  5  8  1  0
  1  2  1  0
  1  3  1  0
  1  4  1  0
  5  6  1  0
  5  7  1  0
  8  9  1  0
  8 10  1  0
  8 11  1  0
 12 16  1  0
 16 17  2  0
 17 19  1  0
 19 21  2  0
 21 23  1  0
 23 25  2  0
 25 16  1  0
 12 13  1  0
 12 14  1  0
 12 15  1  0
 17 18  1  0
 19 20  1  0
 21 22  1  0
 23 24  1  0
 25 26  1  0
M  CHG  1   8   1
M  END
>  <PDB_ID>  (763) 
pdb2p4z

>  <RESIDUE_NAME>  (763) 
LYS   PHE

>  <FRAG_NAME>  (763) 
ETAM   MBZ

>  <FRAG_ATOM_NUM>  (763) 
fragi: 11  fragj: 15

>  <atom.prop.CHAIN_ID>  (763) 
A A A A A A A A A A A Z Z Z Z Z Z Z Z Z Z Z Z Z Z Z

>  <atom.prop.IS_HEAVY_ATOM>  (763) 
1 0 0 0 1 0 0 1 0 0 0 1 0 0 0 1 1 0 1 0 1 0 1 0 1 0

>  <DIFUSE_FUNC_ATOM>  (763) 
n/a

>  <FINAL_SINGLE_POINT_ENERGY>  (763) 
0

>  <NONCOV_INTER_ENERGY_QM>  (763) 
0

>  <FF_Energy>  (763) 
-2.99

>  <QM_Energy>  (763) 
-8.05

>  <source>  (763) 
ETAM_MBZ

>  <Index>  (763) 
7461

$$$$
ETAM-pdb1kp9-A-LYS-234:MBZ-pdb1kp9-A-PHE-38
     RDKit          3D

 26 25  0  0  0  0  0  0  0  0999 V2000
    0.3550   -0.3624   -3.6738 C   0  0  0  0  0  0  0  0  0  0  0  0
    0.1954    0.2990   -4.3976 H   0  0  0  0  0  0  0  0  0  0  0  0
    0.0867    0.0122   -2.7939 H   0  0  0  0  0  0  0  0  0  0  0  0
   -0.2312   -1.2593   -3.8742 H   0  0  0  0  0  0  0  0  0  0  0  0
    1.8466   -0.6766   -3.6289 C   0  0  0  0  0  0  0  0  0  0  0  0
    2.0102   -1.3790   -2.9341 H   0  0  0  0  0  0  0  0  0  0  0  0
    2.1329   -1.0266   -4.5232 H   0  0  0  0  0  0  0  0  0  0  0  0
    2.6606    0.5363   -3.2970 N   0  0  0  0  0  4  0  0  0  0  0  0
    3.6267    0.3298   -3.4378 H   0  0  0  0  0  0  0  0  0  0  0  0
    2.3849    1.2882   -3.8928 H   0  0  0  0  0  0  0  0  0  0  0  0
    2.5032    0.7845   -2.3434 H   0  0  0  0  0  0  0  0  0  0  0  0
    0.0018    2.9079    0.0943 C   0  0  0  0  0  0  0  0  0  0  0  0
   -0.7471    3.2506   -0.4491 H   0  0  0  0  0  0  0  0  0  0  0  0
    0.8716    3.2367   -0.2360 H   0  0  0  0  0  0  0  0  0  0  0  0
   -0.1283    3.2813    1.1100 H   0  0  0  0  0  0  0  0  0  0  0  0
    0.0013    1.4076    0.0012 C   0  0  0  0  0  0  0  0  0  0  0  0
   -1.2014    0.6945   -0.0020 C   0  0  0  0  0  0  0  0  0  0  0  0
   -2.0657    1.1837   -0.0070 H   0  0  0  0  0  0  0  0  0  0  0  0
   -1.2063   -0.7024   -0.0000 C   0  0  0  0  0  0  0  0  0  0  0  0
   -2.0811   -1.1953    0.0006 H   0  0  0  0  0  0  0  0  0  0  0  0
    0.0001   -1.4007    0.0030 C   0  0  0  0  0  0  0  0  0  0  0  0
   -0.0011   -2.3962    0.0065 H   0  0  0  0  0  0  0  0  0  0  0  0
    1.2063   -0.6973   -0.0000 C   0  0  0  0  0  0  0  0  0  0  0  0
    2.0864   -1.1940    0.0007 H   0  0  0  0  0  0  0  0  0  0  0  0
    1.2000    0.6984   -0.0022 C   0  0  0  0  0  0  0  0  0  0  0  0
    2.0673    1.1942   -0.0076 H   0  0  0  0  0  0  0  0  0  0  0  0
  1  5  1  0
  5  8  1  0
  1  2  1  0
  1  3  1  0
  1  4  1  0
  5  6  1  0
  5  7  1  0
  8  9  1  0
  8 10  1  0
  8 11  1  0
 12 16  1  0
 16 17  2  0
 17 19  1  0
 19 21  2  0
 21 23  1  0
 23 25  2  0
 25 16  1  0
 12 13  1  0
 12 14  1  0
 12 15  1  0
 17 18  1  0
 19 20  1  0
 21 22  1  0
 23 24  1  0
 25 26  1  0
M  CHG  1   8   1
M  END
>  <PDB_ID>  (764) 
pdb1kp9

>  <RESIDUE_NAME>  (764) 
LYS   PHE

>  <FRAG_NAME>  (764) 
ETAM   MBZ

>  <FRAG_ATOM_NUM>  (764) 
fragi: 11  fragj: 15

>  <atom.prop.CHAIN_ID>  (764) 
A A A A A A A A A A A Z Z Z Z Z Z Z Z Z Z Z Z Z Z Z

>  <atom.prop.IS_HEAVY_ATOM>  (764) 
1 0 0 0 1 0 0 1 0 0 0 1 0 0 0 1 1 0 1 0 1 0 1 0 1 0

>  <DIFUSE_FUNC_ATOM>  (764) 
n/a

>  <FINAL_SINGLE_POINT_ENERGY>  (764) 
0

>  <NONCOV_INTER_ENERGY_QM>  (764) 
0

>  <FF_Energy>  (764) 
-5.09

>  <QM_Energy>  (764) 
-11.47

>  <source>  (764) 
ETAM_MBZ

>  <Index>  (764) 
7467

$$$$
ETAM-pdb2p5u-C-LYS-147:MBZ-pdb2p5u-C-PHE-114
     RDKit          3D

 26 25  0  0  0  0  0  0  0  0999 V2000
    0.7336   -4.4221    1.8208 C   0  0  0  0  0  0  0  0  0  0  0  0
    1.1165   -3.5028    1.7958 H   0  0  0  0  0  0  0  0  0  0  0  0
    0.2176   -4.6015    0.9882 H   0  0  0  0  0  0  0  0  0  0  0  0
    1.5463   -5.1442    1.9004 H   0  0  0  0  0  0  0  0  0  0  0  0
   -0.2079   -4.5212    3.0024 C   0  0  0  0  0  0  0  0  0  0  0  0
   -0.7138   -5.3842    2.9487 H   0  0  0  0  0  0  0  0  0  0  0  0
    0.3256   -4.5060    3.8506 H   0  0  0  0  0  0  0  0  0  0  0  0
   -1.1799   -3.3882    3.0195 N   0  0  0  0  0  4  0  0  0  0  0  0
   -0.9374   -2.7351    2.3037 H   0  0  0  0  0  0  0  0  0  0  0  0
   -2.0997   -3.7412    2.8549 H   0  0  0  0  0  0  0  0  0  0  0  0
   -1.1460   -2.9387    3.9113 H   0  0  0  0  0  0  0  0  0  0  0  0
    0.0048    2.9262   -0.0706 C   0  0  0  0  0  0  0  0  0  0  0  0
   -0.4478    3.1906   -0.9089 H   0  0  0  0  0  0  0  0  0  0  0  0
    0.9471    3.2254   -0.0613 H   0  0  0  0  0  0  0  0  0  0  0  0
   -0.5108    3.4132    0.7572 H   0  0  0  0  0  0  0  0  0  0  0  0
    0.0008    1.4122   -0.0015 C   0  0  0  0  0  0  0  0  0  0  0  0
   -1.1987    0.7005    0.0023 C   0  0  0  0  0  0  0  0  0  0  0  0
   -2.0653    1.1867    0.0052 H   0  0  0  0  0  0  0  0  0  0  0  0
   -1.2060   -0.7033    0.0000 C   0  0  0  0  0  0  0  0  0  0  0  0
   -2.0837   -1.1903    0.0014 H   0  0  0  0  0  0  0  0  0  0  0  0
   -0.0029   -1.4061   -0.0028 C   0  0  0  0  0  0  0  0  0  0  0  0
   -0.0050   -2.3994   -0.0073 H   0  0  0  0  0  0  0  0  0  0  0  0
    1.2060   -0.7023   -0.0000 C   0  0  0  0  0  0  0  0  0  0  0  0
    2.0850   -1.1972    0.0024 H   0  0  0  0  0  0  0  0  0  0  0  0
    1.2008    0.6990    0.0021 C   0  0  0  0  0  0  0  0  0  0  0  0
    2.0691    1.1919    0.0059 H   0  0  0  0  0  0  0  0  0  0  0  0
  1  5  1  0
  5  8  1  0
  1  2  1  0
  1  3  1  0
  1  4  1  0
  5  6  1  0
  5  7  1  0
  8  9  1  0
  8 10  1  0
  8 11  1  0
 12 16  1  0
 16 17  2  0
 17 19  1  0
 19 21  2  0
 21 23  1  0
 23 25  2  0
 25 16  1  0
 12 13  1  0
 12 14  1  0
 12 15  1  0
 17 18  1  0
 19 20  1  0
 21 22  1  0
 23 24  1  0
 25 26  1  0
M  CHG  1   8   1
M  END
>  <PDB_ID>  (765) 
pdb2p5u

>  <RESIDUE_NAME>  (765) 
LYS   PHE

>  <FRAG_NAME>  (765) 
ETAM   MBZ

>  <FRAG_ATOM_NUM>  (765) 
fragi: 11  fragj: 15

>  <atom.prop.CHAIN_ID>  (765) 
A A A A A A A A A A A Z Z Z Z Z Z Z Z Z Z Z Z Z Z Z

>  <atom.prop.IS_HEAVY_ATOM>  (765) 
1 0 0 0 1 0 0 1 0 0 0 1 0 0 0 1 1 0 1 0 1 0 1 0 1 0

>  <DIFUSE_FUNC_ATOM>  (765) 
n/a

>  <FINAL_SINGLE_POINT_ENERGY>  (765) 
0

>  <NONCOV_INTER_ENERGY_QM>  (765) 
0

>  <FF_Energy>  (765) 
-1.98

>  <QM_Energy>  (765) 
-7.47

>  <source>  (765) 
ETAM_MBZ

>  <Index>  (765) 
7482

$$$$
ETAM-pdb1kqw-A-LYS-31:MBZ-pdb1kqw-A-PHE-27
     RDKit          3D

 26 25  0  0  0  0  0  0  0  0999 V2000
   -2.6433   -1.8358    2.7431 C   0  0  0  0  0  0  0  0  0  0  0  0
   -3.2030   -2.0054    3.5515 H   0  0  0  0  0  0  0  0  0  0  0  0
   -3.0010   -1.0522    2.2404 H   0  0  0  0  0  0  0  0  0  0  0  0
   -1.6284   -1.6058    3.0674 H   0  0  0  0  0  0  0  0  0  0  0  0
   -2.7027   -3.0619    1.8426 C   0  0  0  0  0  0  0  0  0  0  0  0
   -2.1844   -2.8737    1.0049 H   0  0  0  0  0  0  0  0  0  0  0  0
   -2.2791   -3.8361    2.3205 H   0  0  0  0  0  0  0  0  0  0  0  0
   -4.1023   -3.4146    1.4834 N   0  0  0  0  0  4  0  0  0  0  0  0
   -4.4097   -2.8301    0.7322 H   0  0  0  0  0  0  0  0  0  0  0  0
   -4.1413   -4.3727    1.1995 H   0  0  0  0  0  0  0  0  0  0  0  0
   -4.6935   -3.2774    2.2779 H   0  0  0  0  0  0  0  0  0  0  0  0
   -0.0062    2.9343    0.0102 C   0  0  0  0  0  0  0  0  0  0  0  0
   -0.3872    3.2411   -0.8401 H   0  0  0  0  0  0  0  0  0  0  0  0
    0.9211    3.2284    0.1365 H   0  0  0  0  0  0  0  0  0  0  0  0
   -0.6045    3.3570    0.8174 H   0  0  0  0  0  0  0  0  0  0  0  0
   -0.0136    1.4097   -0.0000 C   0  0  0  0  0  0  0  0  0  0  0  0
   -1.1798    0.6718    0.0056 C   0  0  0  0  0  0  0  0  0  0  0  0
   -2.0690    1.1604    0.0132 H   0  0  0  0  0  0  0  0  0  0  0  0
   -1.1983   -0.7140   -0.0000 C   0  0  0  0  0  0  0  0  0  0  0  0
   -2.0668   -1.2057   -0.0070 H   0  0  0  0  0  0  0  0  0  0  0  0
    0.0105   -1.3964    0.0065 C   0  0  0  0  0  0  0  0  0  0  0  0
    0.0233   -2.3904    0.0156 H   0  0  0  0  0  0  0  0  0  0  0  0
    1.1983   -0.6740   -0.0000 C   0  0  0  0  0  0  0  0  0  0  0  0
    2.0891   -1.1684    0.0059 H   0  0  0  0  0  0  0  0  0  0  0  0
    1.1828    0.7029   -0.0121 C   0  0  0  0  0  0  0  0  0  0  0  0
    2.0498    1.2109   -0.0310 H   0  0  0  0  0  0  0  0  0  0  0  0
  1  5  1  0
  5  8  1  0
  1  2  1  0
  1  3  1  0
  1  4  1  0
  5  6  1  0
  5  7  1  0
  8  9  1  0
  8 10  1  0
  8 11  1  0
 12 16  1  0
 16 17  2  0
 17 19  1  0
 19 21  2  0
 21 23  1  0
 23 25  2  0
 25 16  1  0
 12 13  1  0
 12 14  1  0
 12 15  1  0
 17 18  1  0
 19 20  1  0
 21 22  1  0
 23 24  1  0
 25 26  1  0
M  CHG  1   8   1
M  END
>  <PDB_ID>  (766) 
pdb1kqw

>  <RESIDUE_NAME>  (766) 
LYS   PHE

>  <FRAG_NAME>  (766) 
ETAM   MBZ

>  <FRAG_ATOM_NUM>  (766) 
fragi: 11  fragj: 15

>  <atom.prop.CHAIN_ID>  (766) 
A A A A A A A A A A A Z Z Z Z Z Z Z Z Z Z Z Z Z Z Z

>  <atom.prop.IS_HEAVY_ATOM>  (766) 
1 0 0 0 1 0 0 1 0 0 0 1 0 0 0 1 1 0 1 0 1 0 1 0 1 0

>  <DIFUSE_FUNC_ATOM>  (766) 
n/a

>  <FINAL_SINGLE_POINT_ENERGY>  (766) 
0

>  <NONCOV_INTER_ENERGY_QM>  (766) 
0

>  <FF_Energy>  (766) 
2.32

>  <QM_Energy>  (766) 
-3.11

>  <source>  (766) 
ETAM_MBZ

>  <Index>  (766) 
7495

$$$$
ETAM-pdb1krm-A-LYS-309:MBZ-pdb1krm-A-PHE-319
     RDKit          3D

 26 25  0  0  0  0  0  0  0  0999 V2000
   -3.4335   -4.3842   -1.4401 C   0  0  0  0  0  0  0  0  0  0  0  0
   -3.5970   -4.3829   -2.4259 H   0  0  0  0  0  0  0  0  0  0  0  0
   -4.1652   -4.8846   -0.9793 H   0  0  0  0  0  0  0  0  0  0  0  0
   -2.4899   -4.8945   -1.2472 H   0  0  0  0  0  0  0  0  0  0  0  0
   -3.4528   -2.9335   -0.9432 C   0  0  0  0  0  0  0  0  0  0  0  0
   -2.9263   -2.8832   -0.0863 H   0  0  0  0  0  0  0  0  0  0  0  0
   -2.9954   -2.3559   -1.6291 H   0  0  0  0  0  0  0  0  0  0  0  0
   -4.8271   -2.4236   -0.7077 N   0  0  0  0  0  4  0  0  0  0  0  0
   -4.8097   -1.7467    0.0288 H   0  0  0  0  0  0  0  0  0  0  0  0
   -5.1722   -1.9969   -1.5444 H   0  0  0  0  0  0  0  0  0  0  0  0
   -5.4250   -3.1826   -0.4486 H   0  0  0  0  0  0  0  0  0  0  0  0
   -0.0186    2.8955    0.0199 C   0  0  0  0  0  0  0  0  0  0  0  0
   -0.9152    3.1937   -0.3404 H   0  0  0  0  0  0  0  0  0  0  0  0
    0.6928    3.2157   -0.6239 H   0  0  0  0  0  0  0  0  0  0  0  0
    0.1392    3.4250    0.9595 H   0  0  0  0  0  0  0  0  0  0  0  0
    0.0012    1.3944    0.0109 C   0  0  0  0  0  0  0  0  0  0  0  0
   -1.2166    0.7041   -0.0052 C   0  0  0  0  0  0  0  0  0  0  0  0
   -2.0697    1.1946   -0.0211 H   0  0  0  0  0  0  0  0  0  0  0  0
   -1.2223   -0.7027    0.0000 C   0  0  0  0  0  0  0  0  0  0  0  0
   -2.0869   -1.1969    0.0041 H   0  0  0  0  0  0  0  0  0  0  0  0
    0.0043   -1.4015    0.0018 C   0  0  0  0  0  0  0  0  0  0  0  0
   -0.0002   -2.3981    0.0034 H   0  0  0  0  0  0  0  0  0  0  0  0
    1.2223   -0.7011   -0.0000 C   0  0  0  0  0  0  0  0  0  0  0  0
    2.0960   -1.1933    0.0053 H   0  0  0  0  0  0  0  0  0  0  0  0
    1.2110    0.7068   -0.0076 C   0  0  0  0  0  0  0  0  0  0  0  0
    2.0697    1.2016   -0.0268 H   0  0  0  0  0  0  0  0  0  0  0  0
  1  5  1  0
  5  8  1  0
  1  2  1  0
  1  3  1  0
  1  4  1  0
  5  6  1  0
  5  7  1  0
  8  9  1  0
  8 10  1  0
  8 11  1  0
 12 16  1  0
 16 17  2  0
 17 19  1  0
 19 21  2  0
 21 23  1  0
 23 25  2  0
 25 16  1  0
 12 13  1  0
 12 14  1  0
 12 15  1  0
 17 18  1  0
 19 20  1  0
 21 22  1  0
 23 24  1  0
 25 26  1  0
M  CHG  1   8   1
M  END
>  <PDB_ID>  (767) 
pdb1krm

>  <RESIDUE_NAME>  (767) 
LYS   PHE

>  <FRAG_NAME>  (767) 
ETAM   MBZ

>  <FRAG_ATOM_NUM>  (767) 
fragi: 11  fragj: 15

>  <atom.prop.CHAIN_ID>  (767) 
A A A A A A A A A A A Z Z Z Z Z Z Z Z Z Z Z Z Z Z Z

>  <atom.prop.IS_HEAVY_ATOM>  (767) 
1 0 0 0 1 0 0 1 0 0 0 1 0 0 0 1 1 0 1 0 1 0 1 0 1 0

>  <DIFUSE_FUNC_ATOM>  (767) 
n/a

>  <FINAL_SINGLE_POINT_ENERGY>  (767) 
0

>  <NONCOV_INTER_ENERGY_QM>  (767) 
0

>  <FF_Energy>  (767) 
4.69

>  <QM_Energy>  (767) 
-0.51

>  <source>  (767) 
ETAM_MBZ

>  <Index>  (767) 
7500

$$$$
ETAM-pdb2p6z-A-LYS-113:MBZ-pdb2p6z-A-PHE-95
     RDKit          3D

 26 25  0  0  0  0  0  0  0  0999 V2000
   -0.1324    1.7104   -3.9211 C   0  0  0  0  0  0  0  0  0  0  0  0
    0.1741    1.8341   -4.8566 H   0  0  0  0  0  0  0  0  0  0  0  0
    0.3400    2.3333   -3.3108 H   0  0  0  0  0  0  0  0  0  0  0  0
   -1.2041    1.9020   -3.8687 H   0  0  0  0  0  0  0  0  0  0  0  0
    0.1847    0.2825   -3.4932 C   0  0  0  0  0  0  0  0  0  0  0  0
   -0.1732    0.1337   -2.5766 H   0  0  0  0  0  0  0  0  0  0  0  0
   -0.2417   -0.3489   -4.1345 H   0  0  0  0  0  0  0  0  0  0  0  0
    1.6530    0.0714   -3.4921 N   0  0  0  0  0  4  0  0  0  0  0  0
    1.8839   -0.6721   -4.1208 H   0  0  0  0  0  0  0  0  0  0  0  0
    2.1116    0.9104   -3.7867 H   0  0  0  0  0  0  0  0  0  0  0  0
    1.9557   -0.1667   -2.5686 H   0  0  0  0  0  0  0  0  0  0  0  0
   -0.0117    2.9172    0.0044 C   0  0  0  0  0  0  0  0  0  0  0  0
   -0.8956    3.2179   -0.3161 H   0  0  0  0  0  0  0  0  0  0  0  0
    0.7144    3.2267   -0.5889 H   0  0  0  0  0  0  0  0  0  0  0  0
    0.1528    3.3562    0.9884 H   0  0  0  0  0  0  0  0  0  0  0  0
   -0.0046    1.4073    0.0006 C   0  0  0  0  0  0  0  0  0  0  0  0
   -1.2018    0.6962   -0.0031 C   0  0  0  0  0  0  0  0  0  0  0  0
   -2.0697    1.1815   -0.0091 H   0  0  0  0  0  0  0  0  0  0  0  0
   -1.2082   -0.7066   -0.0000 C   0  0  0  0  0  0  0  0  0  0  0  0
   -2.0783   -1.1983    0.0016 H   0  0  0  0  0  0  0  0  0  0  0  0
    0.0057   -1.3992    0.0027 C   0  0  0  0  0  0  0  0  0  0  0  0
    0.0027   -2.3981    0.0057 H   0  0  0  0  0  0  0  0  0  0  0  0
    1.2082   -0.7000   -0.0000 C   0  0  0  0  0  0  0  0  0  0  0  0
    2.0899   -1.1913   -0.0006 H   0  0  0  0  0  0  0  0  0  0  0  0
    1.2007    0.7024   -0.0002 C   0  0  0  0  0  0  0  0  0  0  0  0
    2.0650    1.1975   -0.0019 H   0  0  0  0  0  0  0  0  0  0  0  0
  1  5  1  0
  5  8  1  0
  1  2  1  0
  1  3  1  0
  1  4  1  0
  5  6  1  0
  5  7  1  0
  8  9  1  0
  8 10  1  0
  8 11  1  0
 12 16  1  0
 16 17  2  0
 17 19  1  0
 19 21  2  0
 21 23  1  0
 23 25  2  0
 25 16  1  0
 12 13  1  0
 12 14  1  0
 12 15  1  0
 17 18  1  0
 19 20  1  0
 21 22  1  0
 23 24  1  0
 25 26  1  0
M  CHG  1   8   1
M  END
>  <PDB_ID>  (768) 
pdb2p6z

>  <RESIDUE_NAME>  (768) 
LYS   PHE

>  <FRAG_NAME>  (768) 
ETAM   MBZ

>  <FRAG_ATOM_NUM>  (768) 
fragi: 11  fragj: 15

>  <atom.prop.CHAIN_ID>  (768) 
A A A A A A A A A A A Z Z Z Z Z Z Z Z Z Z Z Z Z Z Z

>  <atom.prop.IS_HEAVY_ATOM>  (768) 
1 0 0 0 1 0 0 1 0 0 0 1 0 0 0 1 1 0 1 0 1 0 1 0 1 0

>  <DIFUSE_FUNC_ATOM>  (768) 
n/a

>  <FINAL_SINGLE_POINT_ENERGY>  (768) 
0

>  <NONCOV_INTER_ENERGY_QM>  (768) 
0

>  <FF_Energy>  (768) 
-6.93

>  <QM_Energy>  (768) 
-14.09

>  <source>  (768) 
ETAM_MBZ

>  <Index>  (768) 
7507

$$$$
ETAM-pdb1ktd-D-LYS-39:MBZ-pdb1ktd-D-PHE-58
     RDKit          3D

 26 25  0  0  0  0  0  0  0  0999 V2000
   -3.4126   -3.2821   -2.9628 C   0  0  0  0  0  0  0  0  0  0  0  0
   -3.7362   -4.2162   -3.0915 H   0  0  0  0  0  0  0  0  0  0  0  0
   -3.1821   -2.8761   -3.8432 H   0  0  0  0  0  0  0  0  0  0  0  0
   -4.2089   -2.6962   -2.5036 H   0  0  0  0  0  0  0  0  0  0  0  0
   -2.1714   -3.3116   -2.1003 C   0  0  0  0  0  0  0  0  0  0  0  0
   -1.9545   -2.3773   -1.8062 H   0  0  0  0  0  0  0  0  0  0  0  0
   -2.3494   -3.8738   -1.2877 H   0  0  0  0  0  0  0  0  0  0  0  0
   -1.0120   -3.8729   -2.8360 N   0  0  0  0  0  4  0  0  0  0  0  0
   -1.0913   -4.8697   -2.8740 H   0  0  0  0  0  0  0  0  0  0  0  0
   -0.9965   -3.5048   -3.7665 H   0  0  0  0  0  0  0  0  0  0  0  0
   -0.1650   -3.6235   -2.3656 H   0  0  0  0  0  0  0  0  0  0  0  0
    0.0034    2.8942   -0.0638 C   0  0  0  0  0  0  0  0  0  0  0  0
   -0.6452    3.1772   -0.7581 H   0  0  0  0  0  0  0  0  0  0  0  0
    0.9210    3.1915   -0.2953 H   0  0  0  0  0  0  0  0  0  0  0  0
   -0.2765    3.3882    0.8666 H   0  0  0  0  0  0  0  0  0  0  0  0
   -0.0016    1.3975   -0.0005 C   0  0  0  0  0  0  0  0  0  0  0  0
   -1.1974    0.6932    0.0026 C   0  0  0  0  0  0  0  0  0  0  0  0
   -2.0633    1.1865    0.0052 H   0  0  0  0  0  0  0  0  0  0  0  0
   -1.2033   -0.6915    0.0000 C   0  0  0  0  0  0  0  0  0  0  0  0
   -2.0755   -1.1903    0.0018 H   0  0  0  0  0  0  0  0  0  0  0  0
    0.0052   -1.3904   -0.0037 C   0  0  0  0  0  0  0  0  0  0  0  0
   -0.0048   -2.3900   -0.0093 H   0  0  0  0  0  0  0  0  0  0  0  0
    1.2033   -0.6991    0.0000 C   0  0  0  0  0  0  0  0  0  0  0  0
    2.0845   -1.1944    0.0028 H   0  0  0  0  0  0  0  0  0  0  0  0
    1.1938    0.6902    0.0015 C   0  0  0  0  0  0  0  0  0  0  0  0
    2.0622    1.1889    0.0035 H   0  0  0  0  0  0  0  0  0  0  0  0
  1  5  1  0
  5  8  1  0
  1  2  1  0
  1  3  1  0
  1  4  1  0
  5  6  1  0
  5  7  1  0
  8  9  1  0
  8 10  1  0
  8 11  1  0
 12 16  1  0
 16 17  2  0
 17 19  1  0
 19 21  2  0
 21 23  1  0
 23 25  2  0
 25 16  1  0
 12 13  1  0
 12 14  1  0
 12 15  1  0
 17 18  1  0
 19 20  1  0
 21 22  1  0
 23 24  1  0
 25 26  1  0
M  CHG  1   8   1
M  END
>  <PDB_ID>  (769) 
pdb1ktd

>  <RESIDUE_NAME>  (769) 
LYS   PHE

>  <FRAG_NAME>  (769) 
ETAM   MBZ

>  <FRAG_ATOM_NUM>  (769) 
fragi: 11  fragj: 15

>  <atom.prop.CHAIN_ID>  (769) 
A A A A A A A A A A A Z Z Z Z Z Z Z Z Z Z Z Z Z Z Z

>  <atom.prop.IS_HEAVY_ATOM>  (769) 
1 0 0 0 1 0 0 1 0 0 0 1 0 0 0 1 1 0 1 0 1 0 1 0 1 0

>  <DIFUSE_FUNC_ATOM>  (769) 
n/a

>  <FINAL_SINGLE_POINT_ENERGY>  (769) 
0

>  <NONCOV_INTER_ENERGY_QM>  (769) 
0

>  <FF_Energy>  (769) 
-0.31

>  <QM_Energy>  (769) 
-5.47

>  <source>  (769) 
ETAM_MBZ

>  <Index>  (769) 
7523

$$$$
ETAM-pdb1kq4-C-LYS-2:MBZ-pdb1kq4-C-PHE-10
     RDKit          3D

 26 25  0  0  0  0  0  0  0  0999 V2000
    0.1975    1.4135    4.4834 C   0  0  0  0  0  0  0  0  0  0  0  0
    0.7653    0.6719    4.8213 H   0  0  0  0  0  0  0  0  0  0  0  0
   -0.4668    1.6859    5.1685 H   0  0  0  0  0  0  0  0  0  0  0  0
    0.8369    2.2667    4.2571 H   0  0  0  0  0  0  0  0  0  0  0  0
   -0.5371    0.9453    3.2474 C   0  0  0  0  0  0  0  0  0  0  0  0
   -1.1285    1.6905    2.9140 H   0  0  0  0  0  0  0  0  0  0  0  0
    0.1353    0.7329    2.5253 H   0  0  0  0  0  0  0  0  0  0  0  0
   -1.3741   -0.2606    3.4959 N   0  0  0  0  0  4  0  0  0  0  0  0
   -1.3311   -0.8635    2.6997 H   0  0  0  0  0  0  0  0  0  0  0  0
   -1.0290   -0.7428    4.3004 H   0  0  0  0  0  0  0  0  0  0  0  0
   -2.3201    0.0194    3.6534 H   0  0  0  0  0  0  0  0  0  0  0  0
   -0.0061    2.9208    0.0518 C   0  0  0  0  0  0  0  0  0  0  0  0
    0.5817    3.2049    0.7952 H   0  0  0  0  0  0  0  0  0  0  0  0
   -0.9384    3.2166    0.1985 H   0  0  0  0  0  0  0  0  0  0  0  0
    0.3536    3.4072   -0.8549 H   0  0  0  0  0  0  0  0  0  0  0  0
    0.0021    1.4088    0.0005 C   0  0  0  0  0  0  0  0  0  0  0  0
   -1.2015    0.6960   -0.0011 C   0  0  0  0  0  0  0  0  0  0  0  0
   -2.0671    1.1862   -0.0045 H   0  0  0  0  0  0  0  0  0  0  0  0
   -1.2126   -0.7068    0.0000 C   0  0  0  0  0  0  0  0  0  0  0  0
   -2.0859   -1.1947    0.0005 H   0  0  0  0  0  0  0  0  0  0  0  0
   -0.0040   -1.4037    0.0023 C   0  0  0  0  0  0  0  0  0  0  0  0
    0.0011   -2.3974    0.0049 H   0  0  0  0  0  0  0  0  0  0  0  0
    1.2126   -0.6941    0.0000 C   0  0  0  0  0  0  0  0  0  0  0  0
    2.0875   -1.1935    0.0011 H   0  0  0  0  0  0  0  0  0  0  0  0
    1.2034    0.6998   -0.0017 C   0  0  0  0  0  0  0  0  0  0  0  0
    2.0695    1.1986   -0.0057 H   0  0  0  0  0  0  0  0  0  0  0  0
  1  5  1  0
  5  8  1  0
  1  2  1  0
  1  3  1  0
  1  4  1  0
  5  6  1  0
  5  7  1  0
  8  9  1  0
  8 10  1  0
  8 11  1  0
 12 16  1  0
 16 17  2  0
 17 19  1  0
 19 21  2  0
 21 23  1  0
 23 25  2  0
 25 16  1  0
 12 13  1  0
 12 14  1  0
 12 15  1  0
 17 18  1  0
 19 20  1  0
 21 22  1  0
 23 24  1  0
 25 26  1  0
M  CHG  1   8   1
M  END
>  <PDB_ID>  (770) 
pdb1kq4

>  <RESIDUE_NAME>  (770) 
LYS   PHE

>  <FRAG_NAME>  (770) 
ETAM   MBZ

>  <FRAG_ATOM_NUM>  (770) 
fragi: 11  fragj: 15

>  <atom.prop.CHAIN_ID>  (770) 
A A A A A A A A A A A Z Z Z Z Z Z Z Z Z Z Z Z Z Z Z

>  <atom.prop.IS_HEAVY_ATOM>  (770) 
1 0 0 0 1 0 0 1 0 0 0 1 0 0 0 1 1 0 1 0 1 0 1 0 1 0

>  <DIFUSE_FUNC_ATOM>  (770) 
n/a

>  <FINAL_SINGLE_POINT_ENERGY>  (770) 
0

>  <NONCOV_INTER_ENERGY_QM>  (770) 
0

>  <FF_Energy>  (770) 
-6.43

>  <QM_Energy>  (770) 
-12.98

>  <source>  (770) 
ETAM_MBZ

>  <Index>  (770) 
7527

$$$$
ETAM-pdb2p0i-A-LYS-200:MBZ-pdb2p0i-A-PHE-189
     RDKit          3D

 26 25  0  0  0  0  0  0  0  0999 V2000
    1.3794   -1.3228    4.4416 C   0  0  0  0  0  0  0  0  0  0  0  0
    1.3747   -1.8640    5.2823 H   0  0  0  0  0  0  0  0  0  0  0  0
    1.2343   -0.3596    4.6626 H   0  0  0  0  0  0  0  0  0  0  0  0
    2.3534   -1.4294    3.9642 H   0  0  0  0  0  0  0  0  0  0  0  0
    0.2317   -1.7941    3.5566 C   0  0  0  0  0  0  0  0  0  0  0  0
    0.5246   -1.7604    2.5959 H   0  0  0  0  0  0  0  0  0  0  0  0
    0.0087   -2.7464    3.7900 H   0  0  0  0  0  0  0  0  0  0  0  0
   -1.0042   -0.9553    3.7157 N   0  0  0  0  0  4  0  0  0  0  0  0
   -1.0567   -0.6290    4.6570 H   0  0  0  0  0  0  0  0  0  0  0  0
   -0.9535   -0.1807    3.0894 H   0  0  0  0  0  0  0  0  0  0  0  0
   -1.8041   -1.5127    3.5039 H   0  0  0  0  0  0  0  0  0  0  0  0
   -0.0054    2.9103   -0.0311 C   0  0  0  0  0  0  0  0  0  0  0  0
    0.9079    3.2215    0.1689 H   0  0  0  0  0  0  0  0  0  0  0  0
   -0.6576    3.2286    0.6363 H   0  0  0  0  0  0  0  0  0  0  0  0
   -0.2936    3.3141   -1.0016 H   0  0  0  0  0  0  0  0  0  0  0  0
   -0.0009    1.4024    0.0063 C   0  0  0  0  0  0  0  0  0  0  0  0
   -1.1952    0.6880   -0.0079 C   0  0  0  0  0  0  0  0  0  0  0  0
   -2.0634    1.1804   -0.0254 H   0  0  0  0  0  0  0  0  0  0  0  0
   -1.2016   -0.6976   -0.0000 C   0  0  0  0  0  0  0  0  0  0  0  0
   -2.0764   -1.1937    0.0056 H   0  0  0  0  0  0  0  0  0  0  0  0
    0.0016   -1.3945    0.0013 C   0  0  0  0  0  0  0  0  0  0  0  0
   -0.0040   -2.3937    0.0030 H   0  0  0  0  0  0  0  0  0  0  0  0
    1.2016   -0.6992   -0.0000 C   0  0  0  0  0  0  0  0  0  0  0  0
    2.0837   -1.1906    0.0006 H   0  0  0  0  0  0  0  0  0  0  0  0
    1.1945    0.7009    0.0003 C   0  0  0  0  0  0  0  0  0  0  0  0
    2.0632    1.1936   -0.0042 H   0  0  0  0  0  0  0  0  0  0  0  0
  1  5  1  0
  5  8  1  0
  1  2  1  0
  1  3  1  0
  1  4  1  0
  5  6  1  0
  5  7  1  0
  8  9  1  0
  8 10  1  0
  8 11  1  0
 12 16  1  0
 16 17  2  0
 17 19  1  0
 19 21  2  0
 21 23  1  0
 23 25  2  0
 25 16  1  0
 12 13  1  0
 12 14  1  0
 12 15  1  0
 17 18  1  0
 19 20  1  0
 21 22  1  0
 23 24  1  0
 25 26  1  0
M  CHG  1   8   1
M  END
>  <PDB_ID>  (771) 
pdb2p0i

>  <RESIDUE_NAME>  (771) 
LYS   PHE

>  <FRAG_NAME>  (771) 
ETAM   MBZ

>  <FRAG_ATOM_NUM>  (771) 
fragi: 11  fragj: 15

>  <atom.prop.CHAIN_ID>  (771) 
A A A A A A A A A A A Z Z Z Z Z Z Z Z Z Z Z Z Z Z Z

>  <atom.prop.IS_HEAVY_ATOM>  (771) 
1 0 0 0 1 0 0 1 0 0 0 1 0 0 0 1 1 0 1 0 1 0 1 0 1 0

>  <DIFUSE_FUNC_ATOM>  (771) 
n/a

>  <FINAL_SINGLE_POINT_ENERGY>  (771) 
0

>  <NONCOV_INTER_ENERGY_QM>  (771) 
0

>  <FF_Energy>  (771) 
-5.75

>  <QM_Energy>  (771) 
-11.16

>  <source>  (771) 
ETAM_MBZ

>  <Index>  (771) 
7536

$$$$
ETAM-pdb1ks2-B-LYS-94:MBZ-pdb1ks2-B-PHE-113
     RDKit          3D

 26 25  0  0  0  0  0  0  0  0999 V2000
    1.2990   -5.0634    1.5184 C   0  0  0  0  0  0  0  0  0  0  0  0
    0.4772   -4.4955    1.5372 H   0  0  0  0  0  0  0  0  0  0  0  0
    2.0458   -4.5901    1.9819 H   0  0  0  0  0  0  0  0  0  0  0  0
    1.0918   -5.9916    2.0510 H   0  0  0  0  0  0  0  0  0  0  0  0
    1.6953   -5.2976    0.0708 C   0  0  0  0  0  0  0  0  0  0  0  0
    2.6637   -5.5606    0.0367 H   0  0  0  0  0  0  0  0  0  0  0  0
    1.1436   -6.0499   -0.3007 H   0  0  0  0  0  0  0  0  0  0  0  0
    1.4892   -4.0831   -0.7627 N   0  0  0  0  0  4  0  0  0  0  0  0
    0.9976   -4.3325   -1.5973 H   0  0  0  0  0  0  0  0  0  0  0  0
    0.9552   -3.4139   -0.2475 H   0  0  0  0  0  0  0  0  0  0  0  0
    2.3762   -3.6901   -1.0024 H   0  0  0  0  0  0  0  0  0  0  0  0
    0.0094    2.9235    0.0376 C   0  0  0  0  0  0  0  0  0  0  0  0
    0.9498    3.2217   -0.0222 H   0  0  0  0  0  0  0  0  0  0  0  0
   -0.4065    3.2080    0.8880 H   0  0  0  0  0  0  0  0  0  0  0  0
   -0.5417    3.3937   -0.7768 H   0  0  0  0  0  0  0  0  0  0  0  0
   -0.0003    1.4102    0.0004 C   0  0  0  0  0  0  0  0  0  0  0  0
   -1.1981    0.6989   -0.0005 C   0  0  0  0  0  0  0  0  0  0  0  0
   -2.0657    1.1848   -0.0031 H   0  0  0  0  0  0  0  0  0  0  0  0
   -1.2031   -0.7020   -0.0000 C   0  0  0  0  0  0  0  0  0  0  0  0
   -2.0790   -1.1926    0.0012 H   0  0  0  0  0  0  0  0  0  0  0  0
    0.0026   -1.4022    0.0005 C   0  0  0  0  0  0  0  0  0  0  0  0
   -0.0021   -2.3984    0.0010 H   0  0  0  0  0  0  0  0  0  0  0  0
    1.2031   -0.7022   -0.0000 C   0  0  0  0  0  0  0  0  0  0  0  0
    2.0859   -1.1942    0.0017 H   0  0  0  0  0  0  0  0  0  0  0  0
    1.1958    0.6972   -0.0005 C   0  0  0  0  0  0  0  0  0  0  0  0
    2.0663    1.1912   -0.0024 H   0  0  0  0  0  0  0  0  0  0  0  0
  1  5  1  0
  5  8  1  0
  1  2  1  0
  1  3  1  0
  1  4  1  0
  5  6  1  0
  5  7  1  0
  8  9  1  0
  8 10  1  0
  8 11  1  0
 12 16  1  0
 16 17  2  0
 17 19  1  0
 19 21  2  0
 21 23  1  0
 23 25  2  0
 25 16  1  0
 12 13  1  0
 12 14  1  0
 12 15  1  0
 17 18  1  0
 19 20  1  0
 21 22  1  0
 23 24  1  0
 25 26  1  0
M  CHG  1   8   1
M  END
>  <PDB_ID>  (772) 
pdb1ks2

>  <RESIDUE_NAME>  (772) 
LYS   PHE

>  <FRAG_NAME>  (772) 
ETAM   MBZ

>  <FRAG_ATOM_NUM>  (772) 
fragi: 11  fragj: 15

>  <atom.prop.CHAIN_ID>  (772) 
A A A A A A A A A A A Z Z Z Z Z Z Z Z Z Z Z Z Z Z Z

>  <atom.prop.IS_HEAVY_ATOM>  (772) 
1 0 0 0 1 0 0 1 0 0 0 1 0 0 0 1 1 0 1 0 1 0 1 0 1 0

>  <DIFUSE_FUNC_ATOM>  (772) 
n/a

>  <FINAL_SINGLE_POINT_ENERGY>  (772) 
0

>  <NONCOV_INTER_ENERGY_QM>  (772) 
0

>  <FF_Energy>  (772) 
4.31

>  <QM_Energy>  (772) 
-1.85

>  <source>  (772) 
ETAM_MBZ

>  <Index>  (772) 
7539

$$$$
ETAM-pdb2p85-F-LYS-251:MBZ-pdb2p85-F-PHE-187
     RDKit          3D

 26 25  0  0  0  0  0  0  0  0999 V2000
   -3.7751    0.3388    3.7929 C   0  0  0  0  0  0  0  0  0  0  0  0
   -4.5538    0.8584    4.1282 H   0  0  0  0  0  0  0  0  0  0  0  0
   -3.3170   -0.1241    4.5437 H   0  0  0  0  0  0  0  0  0  0  0  0
   -4.1287   -0.4069    3.0808 H   0  0  0  0  0  0  0  0  0  0  0  0
   -2.7909    1.3041    3.1458 C   0  0  0  0  0  0  0  0  0  0  0  0
   -2.5116    1.9873    3.8279 H   0  0  0  0  0  0  0  0  0  0  0  0
   -1.9768    0.7910    2.8549 H   0  0  0  0  0  0  0  0  0  0  0  0
   -3.3751    2.0004    1.9674 N   0  0  0  0  0  4  0  0  0  0  0  0
   -4.2886    2.3342    2.1983 H   0  0  0  0  0  0  0  0  0  0  0  0
   -2.7904    2.7712    1.7145 H   0  0  0  0  0  0  0  0  0  0  0  0
   -3.4361    1.3611    1.2016 H   0  0  0  0  0  0  0  0  0  0  0  0
   -0.0100    2.8956   -0.0213 C   0  0  0  0  0  0  0  0  0  0  0  0
    0.9241    3.2088   -0.0887 H   0  0  0  0  0  0  0  0  0  0  0  0
   -0.4392    3.2123    0.8096 H   0  0  0  0  0  0  0  0  0  0  0  0
   -0.5643    3.3093   -0.8637 H   0  0  0  0  0  0  0  0  0  0  0  0
   -0.0001    1.4008   -0.0004 C   0  0  0  0  0  0  0  0  0  0  0  0
   -1.2025    0.6922   -0.0003 C   0  0  0  0  0  0  0  0  0  0  0  0
   -2.0658    1.1861   -0.0017 H   0  0  0  0  0  0  0  0  0  0  0  0
   -1.2107   -0.6978   -0.0000 C   0  0  0  0  0  0  0  0  0  0  0  0
   -2.0830   -1.1929    0.0010 H   0  0  0  0  0  0  0  0  0  0  0  0
   -0.0014   -1.3958    0.0007 C   0  0  0  0  0  0  0  0  0  0  0  0
   -0.0033   -2.3930    0.0014 H   0  0  0  0  0  0  0  0  0  0  0  0
    1.2107   -0.6955   -0.0000 C   0  0  0  0  0  0  0  0  0  0  0  0
    2.0863   -1.1959    0.0011 H   0  0  0  0  0  0  0  0  0  0  0  0
    1.2040    0.6961   -0.0000 C   0  0  0  0  0  0  0  0  0  0  0  0
    2.0679    1.1958   -0.0010 H   0  0  0  0  0  0  0  0  0  0  0  0
  1  5  1  0
  5  8  1  0
  1  2  1  0
  1  3  1  0
  1  4  1  0
  5  6  1  0
  5  7  1  0
  8  9  1  0
  8 10  1  0
  8 11  1  0
 12 16  1  0
 16 17  2  0
 17 19  1  0
 19 21  2  0
 21 23  1  0
 23 25  2  0
 25 16  1  0
 12 13  1  0
 12 14  1  0
 12 15  1  0
 17 18  1  0
 19 20  1  0
 21 22  1  0
 23 24  1  0
 25 26  1  0
M  CHG  1   8   1
M  END
>  <PDB_ID>  (773) 
pdb2p85

>  <RESIDUE_NAME>  (773) 
LYS   PHE

>  <FRAG_NAME>  (773) 
ETAM   MBZ

>  <FRAG_ATOM_NUM>  (773) 
fragi: 11  fragj: 15

>  <atom.prop.CHAIN_ID>  (773) 
A A A A A A A A A A A Z Z Z Z Z Z Z Z Z Z Z Z Z Z Z

>  <atom.prop.IS_HEAVY_ATOM>  (773) 
1 0 0 0 1 0 0 1 0 0 0 1 0 0 0 1 1 0 1 0 1 0 1 0 1 0

>  <DIFUSE_FUNC_ATOM>  (773) 
n/a

>  <FINAL_SINGLE_POINT_ENERGY>  (773) 
0

>  <NONCOV_INTER_ENERGY_QM>  (773) 
0

>  <FF_Energy>  (773) 
-0.2

>  <QM_Energy>  (773) 
-5.22

>  <source>  (773) 
ETAM_MBZ

>  <Index>  (773) 
7542

$$$$
ETAM-pdb2p8u-A-LYS-219:MBZ-pdb2p8u-A-PHE-311
     RDKit          3D

 26 25  0  0  0  0  0  0  0  0999 V2000
   -0.8731   -1.6819   -4.4037 C   0  0  0  0  0  0  0  0  0  0  0  0
   -0.1979   -1.6110   -5.1309 H   0  0  0  0  0  0  0  0  0  0  0  0
   -1.7028   -2.1143   -4.7433 H   0  0  0  0  0  0  0  0  0  0  0  0
   -0.4595   -2.3062   -3.6117 H   0  0  0  0  0  0  0  0  0  0  0  0
   -1.2117   -0.2872   -3.9084 C   0  0  0  0  0  0  0  0  0  0  0  0
   -0.3747    0.1483   -3.5662 H   0  0  0  0  0  0  0  0  0  0  0  0
   -1.5673    0.2533   -4.6768 H   0  0  0  0  0  0  0  0  0  0  0  0
   -2.2239   -0.3204   -2.8240 N   0  0  0  0  0  4  0  0  0  0  0  0
   -2.2766   -1.2444   -2.4452 H   0  0  0  0  0  0  0  0  0  0  0  0
   -1.9617    0.3214   -2.1026 H   0  0  0  0  0  0  0  0  0  0  0  0
   -3.1162   -0.0599   -3.1923 H   0  0  0  0  0  0  0  0  0  0  0  0
    0.0073    2.9004    0.0231 C   0  0  0  0  0  0  0  0  0  0  0  0
   -0.8920    3.2228   -0.2179 H   0  0  0  0  0  0  0  0  0  0  0  0
    0.6940    3.2222   -0.6057 H   0  0  0  0  0  0  0  0  0  0  0  0
    0.2477    3.3070    1.0055 H   0  0  0  0  0  0  0  0  0  0  0  0
   -0.0006    1.4048   -0.0090 C   0  0  0  0  0  0  0  0  0  0  0  0
   -1.2037    0.7006    0.0020 C   0  0  0  0  0  0  0  0  0  0  0  0
   -2.0676    1.1858    0.0100 H   0  0  0  0  0  0  0  0  0  0  0  0
   -1.2069   -0.7030   -0.0000 C   0  0  0  0  0  0  0  0  0  0  0  0
   -2.0769   -1.1964   -0.0032 H   0  0  0  0  0  0  0  0  0  0  0  0
    0.0090   -1.3997    0.0050 C   0  0  0  0  0  0  0  0  0  0  0  0
    0.0028   -2.3969    0.0118 H   0  0  0  0  0  0  0  0  0  0  0  0
    1.2069   -0.6999    0.0000 C   0  0  0  0  0  0  0  0  0  0  0  0
    2.0904   -1.1898   -0.0041 H   0  0  0  0  0  0  0  0  0  0  0  0
    1.1954    0.6973    0.0020 C   0  0  0  0  0  0  0  0  0  0  0  0
    2.0652    1.1934    0.0110 H   0  0  0  0  0  0  0  0  0  0  0  0
  1  5  1  0
  5  8  1  0
  1  2  1  0
  1  3  1  0
  1  4  1  0
  5  6  1  0
  5  7  1  0
  8  9  1  0
  8 10  1  0
  8 11  1  0
 12 16  1  0
 16 17  2  0
 17 19  1  0
 19 21  2  0
 21 23  1  0
 23 25  2  0
 25 16  1  0
 12 13  1  0
 12 14  1  0
 12 15  1  0
 17 18  1  0
 19 20  1  0
 21 22  1  0
 23 24  1  0
 25 26  1  0
M  CHG  1   8   1
M  END
>  <PDB_ID>  (774) 
pdb2p8u

>  <RESIDUE_NAME>  (774) 
LYS   PHE

>  <FRAG_NAME>  (774) 
ETAM   MBZ

>  <FRAG_ATOM_NUM>  (774) 
fragi: 11  fragj: 15

>  <atom.prop.CHAIN_ID>  (774) 
A A A A A A A A A A A Z Z Z Z Z Z Z Z Z Z Z Z Z Z Z

>  <atom.prop.IS_HEAVY_ATOM>  (774) 
1 0 0 0 1 0 0 1 0 0 0 1 0 0 0 1 1 0 1 0 1 0 1 0 1 0

>  <DIFUSE_FUNC_ATOM>  (774) 
n/a

>  <FINAL_SINGLE_POINT_ENERGY>  (774) 
0

>  <NONCOV_INTER_ENERGY_QM>  (774) 
0

>  <FF_Energy>  (774) 
-4.64

>  <QM_Energy>  (774) 
-12.45

>  <source>  (774) 
ETAM_MBZ

>  <Index>  (774) 
7548

$$$$
ETAM-pdb2p8u-B-ASN-9:MBZ-pdb2p8u-B-PHE-12
     RDKit          3D

 26 25  0  0  0  0  0  0  0  0999 V2000
   -5.1122    1.1315    3.6316 C   0  0  0  0  0  0  0  0  0  0  0  0
   -4.9533    1.0855    4.6177 H   0  0  0  0  0  0  0  0  0  0  0  0
   -5.8774    1.7478    3.4439 H   0  0  0  0  0  0  0  0  0  0  0  0
   -5.3714    0.1351    3.2737 H   0  0  0  0  0  0  0  0  0  0  0  0
   -3.8554    1.7131    2.9709 C   0  0  0  0  0  0  0  0  0  0  0  0
   -3.9643    1.7454    1.9740 H   0  0  0  0  0  0  0  0  0  0  0  0
   -3.6809    2.7337    3.3119 H   0  0  0  0  0  0  0  0  0  0  0  0
   -2.6715    0.8377    3.2389 N   0  0  0  0  0  4  0  0  0  0  0  0
   -2.0283    1.3313    3.8173 H   0  0  0  0  0  0  0  0  0  0  0  0
   -2.9787    0.0108    3.7008 H   0  0  0  0  0  0  0  0  0  0  0  0
   -2.2399    0.6036    2.3726 H   0  0  0  0  0  0  0  0  0  0  0  0
   -0.0235    2.9397   -0.0030 C   0  0  0  0  0  0  0  0  0  0  0  0
   -0.9479    3.2294    0.1911 H   0  0  0  0  0  0  0  0  0  0  0  0
    0.2712    3.2443   -0.8951 H   0  0  0  0  0  0  0  0  0  0  0  0
    0.6297    3.4039    0.7360 H   0  0  0  0  0  0  0  0  0  0  0  0
   -0.0020    1.4176   -0.0004 C   0  0  0  0  0  0  0  0  0  0  0  0
   -1.1982    0.6926    0.0014 C   0  0  0  0  0  0  0  0  0  0  0  0
   -2.0688    1.1751    0.0023 H   0  0  0  0  0  0  0  0  0  0  0  0
   -1.2021   -0.7136   -0.0000 C   0  0  0  0  0  0  0  0  0  0  0  0
   -2.0774   -1.2008    0.0026 H   0  0  0  0  0  0  0  0  0  0  0  0
    0.0026   -1.4050   -0.0026 C   0  0  0  0  0  0  0  0  0  0  0  0
    0.0030   -2.4039   -0.0073 H   0  0  0  0  0  0  0  0  0  0  0  0
    1.2021   -0.7032    0.0000 C   0  0  0  0  0  0  0  0  0  0  0  0
    2.0870   -1.1890    0.0020 H   0  0  0  0  0  0  0  0  0  0  0  0
    1.1976    0.7117    0.0017 C   0  0  0  0  0  0  0  0  0  0  0  0
    2.0658    1.1970    0.0037 H   0  0  0  0  0  0  0  0  0  0  0  0
  1  5  1  0
  5  8  1  0
  1  2  1  0
  1  3  1  0
  1  4  1  0
  5  6  1  0
  5  7  1  0
  8  9  1  0
  8 10  1  0
  8 11  1  0
 12 16  1  0
 16 17  2  0
 17 19  1  0
 19 21  2  0
 21 23  1  0
 23 25  2  0
 25 16  1  0
 12 13  1  0
 12 14  1  0
 12 15  1  0
 17 18  1  0
 19 20  1  0
 21 22  1  0
 23 24  1  0
 25 26  1  0
M  CHG  1   8   1
M  END
>  <PDB_ID>  (775) 
pdb2p8u

>  <RESIDUE_NAME>  (775) 
ASN   PHE

>  <FRAG_NAME>  (775) 
ETAM   MBZ

>  <FRAG_ATOM_NUM>  (775) 
fragi: 11  fragj: 15

>  <atom.prop.CHAIN_ID>  (775) 
A A A A A A A A A A A Z Z Z Z Z Z Z Z Z Z Z Z Z Z Z

>  <atom.prop.IS_HEAVY_ATOM>  (775) 
1 0 0 0 1 0 0 1 0 0 0 1 0 0 0 1 1 0 1 0 1 0 1 0 1 0

>  <DIFUSE_FUNC_ATOM>  (775) 
n/a

>  <FINAL_SINGLE_POINT_ENERGY>  (775) 
0

>  <NONCOV_INTER_ENERGY_QM>  (775) 
0

>  <FF_Energy>  (775) 
-3.87

>  <QM_Energy>  (775) 
-9.67

>  <source>  (775) 
ETAM_MBZ

>  <Index>  (775) 
7551

$$$$
ETAM-pdb2p9r-A-LYS-148:MBZ-pdb2p9r-A-PHE-176
     RDKit          3D

 26 25  0  0  0  0  0  0  0  0999 V2000
    0.2936   -0.3440   -4.7881 C   0  0  0  0  0  0  0  0  0  0  0  0
    0.1110   -1.1123   -5.3923 H   0  0  0  0  0  0  0  0  0  0  0  0
    0.4119    0.4918   -5.3142 H   0  0  0  0  0  0  0  0  0  0  0  0
   -0.5520   -0.2190   -4.1117 H   0  0  0  0  0  0  0  0  0  0  0  0
    1.5908   -0.6243   -4.0284 C   0  0  0  0  0  0  0  0  0  0  0  0
    1.5052   -1.5158   -3.5651 H   0  0  0  0  0  0  0  0  0  0  0  0
    2.3462   -0.6884   -4.6938 H   0  0  0  0  0  0  0  0  0  0  0  0
    1.9170    0.4214   -3.0197 N   0  0  0  0  0  4  0  0  0  0  0  0
    1.1819    1.0987   -2.9953 H   0  0  0  0  0  0  0  0  0  0  0  0
    2.0111   -0.0033   -2.1201 H   0  0  0  0  0  0  0  0  0  0  0  0
    2.7752    0.8674   -3.2712 H   0  0  0  0  0  0  0  0  0  0  0  0
   -0.0017    2.8975   -0.0293 C   0  0  0  0  0  0  0  0  0  0  0  0
   -0.9377    3.2074    0.0646 H   0  0  0  0  0  0  0  0  0  0  0  0
    0.3867    3.1906   -0.8915 H   0  0  0  0  0  0  0  0  0  0  0  0
    0.5811    3.3562    0.7695 H   0  0  0  0  0  0  0  0  0  0  0  0
   -0.0002    1.4010   -0.0014 C   0  0  0  0  0  0  0  0  0  0  0  0
   -1.1986    0.6924   -0.0008 C   0  0  0  0  0  0  0  0  0  0  0  0
   -2.0644    1.1854   -0.0019 H   0  0  0  0  0  0  0  0  0  0  0  0
   -1.2062   -0.6969    0.0000 C   0  0  0  0  0  0  0  0  0  0  0  0
   -2.0802   -1.1919    0.0011 H   0  0  0  0  0  0  0  0  0  0  0  0
   -0.0004   -1.3954    0.0010 C   0  0  0  0  0  0  0  0  0  0  0  0
   -0.0027   -2.3914    0.0019 H   0  0  0  0  0  0  0  0  0  0  0  0
    1.2062   -0.6945    0.0000 C   0  0  0  0  0  0  0  0  0  0  0  0
    2.0849   -1.1941    0.0001 H   0  0  0  0  0  0  0  0  0  0  0  0
    1.1992    0.6935    0.0012 C   0  0  0  0  0  0  0  0  0  0  0  0
    2.0653    1.1934    0.0035 H   0  0  0  0  0  0  0  0  0  0  0  0
  1  5  1  0
  5  8  1  0
  1  2  1  0
  1  3  1  0
  1  4  1  0
  5  6  1  0
  5  7  1  0
  8  9  1  0
  8 10  1  0
  8 11  1  0
 12 16  1  0
 16 17  2  0
 17 19  1  0
 19 21  2  0
 21 23  1  0
 23 25  2  0
 25 16  1  0
 12 13  1  0
 12 14  1  0
 12 15  1  0
 17 18  1  0
 19 20  1  0
 21 22  1  0
 23 24  1  0
 25 26  1  0
M  CHG  1   8   1
M  END
>  <PDB_ID>  (776) 
pdb2p9r

>  <RESIDUE_NAME>  (776) 
LYS   PHE

>  <FRAG_NAME>  (776) 
ETAM   MBZ

>  <FRAG_ATOM_NUM>  (776) 
fragi: 11  fragj: 15

>  <atom.prop.CHAIN_ID>  (776) 
A A A A A A A A A A A Z Z Z Z Z Z Z Z Z Z Z Z Z Z Z

>  <atom.prop.IS_HEAVY_ATOM>  (776) 
1 0 0 0 1 0 0 1 0 0 0 1 0 0 0 1 1 0 1 0 1 0 1 0 1 0

>  <DIFUSE_FUNC_ATOM>  (776) 
n/a

>  <FINAL_SINGLE_POINT_ENERGY>  (776) 
0

>  <NONCOV_INTER_ENERGY_QM>  (776) 
0

>  <FF_Energy>  (776) 
-5.87

>  <QM_Energy>  (776) 
-12.44

>  <source>  (776) 
ETAM_MBZ

>  <Index>  (776) 
7560

$$$$
ETAM-pdb2p9j-F-LYS-7:MBZ-pdb2p9j-B-PHE-158
     RDKit          3D

 26 25  0  0  0  0  0  0  0  0999 V2000
   -0.2760   -5.5093   -0.6357 C   0  0  0  0  0  0  0  0  0  0  0  0
   -0.1814   -5.8557    0.2902 H   0  0  0  0  0  0  0  0  0  0  0  0
   -0.2398   -6.2526   -1.2927 H   0  0  0  0  0  0  0  0  0  0  0  0
   -1.2385   -5.0059   -0.7258 H   0  0  0  0  0  0  0  0  0  0  0  0
    0.8815   -4.5546   -0.9179 C   0  0  0  0  0  0  0  0  0  0  0  0
    0.8916   -3.8365   -0.2100 H   0  0  0  0  0  0  0  0  0  0  0  0
    1.7483   -5.0663   -0.8584 H   0  0  0  0  0  0  0  0  0  0  0  0
    0.8028   -3.8972   -2.2700 N   0  0  0  0  0  4  0  0  0  0  0  0
    1.7007   -3.9368   -2.7008 H   0  0  0  0  0  0  0  0  0  0  0  0
    0.1341   -4.3834   -2.8274 H   0  0  0  0  0  0  0  0  0  0  0  0
    0.5230   -2.9478   -2.1515 H   0  0  0  0  0  0  0  0  0  0  0  0
    0.0038    2.8839    0.0280 C   0  0  0  0  0  0  0  0  0  0  0  0
   -0.7141    3.2075   -0.5686 H   0  0  0  0  0  0  0  0  0  0  0  0
    0.8919    3.1974   -0.2705 H   0  0  0  0  0  0  0  0  0  0  0  0
   -0.1778    3.2993    1.0193 H   0  0  0  0  0  0  0  0  0  0  0  0
    0.0004    1.3895   -0.0019 C   0  0  0  0  0  0  0  0  0  0  0  0
   -1.1915    0.6904    0.0105 C   0  0  0  0  0  0  0  0  0  0  0  0
   -2.0574    1.1866    0.0261 H   0  0  0  0  0  0  0  0  0  0  0  0
   -1.1941   -0.6832    0.0000 C   0  0  0  0  0  0  0  0  0  0  0  0
   -2.0755   -1.1818   -0.0023 H   0  0  0  0  0  0  0  0  0  0  0  0
   -0.0041   -1.3789   -0.0056 C   0  0  0  0  0  0  0  0  0  0  0  0
   -0.0133   -2.3827   -0.0141 H   0  0  0  0  0  0  0  0  0  0  0  0
    1.1941   -0.6963   -0.0000 C   0  0  0  0  0  0  0  0  0  0  0  0
    2.0730   -1.2037    0.0082 H   0  0  0  0  0  0  0  0  0  0  0  0
    1.1952    0.6785   -0.0030 C   0  0  0  0  0  0  0  0  0  0  0  0
    2.0629    1.1790   -0.0067 H   0  0  0  0  0  0  0  0  0  0  0  0
  1  5  1  0
  5  8  1  0
  1  2  1  0
  1  3  1  0
  1  4  1  0
  5  6  1  0
  5  7  1  0
  8  9  1  0
  8 10  1  0
  8 11  1  0
 12 16  1  0
 16 17  2  0
 17 19  1  0
 19 21  2  0
 21 23  1  0
 23 25  2  0
 25 16  1  0
 12 13  1  0
 12 14  1  0
 12 15  1  0
 17 18  1  0
 19 20  1  0
 21 22  1  0
 23 24  1  0
 25 26  1  0
M  CHG  1   8   1
M  END
>  <PDB_ID>  (777) 
pdb2p9j

>  <RESIDUE_NAME>  (777) 
LYS   PHE

>  <FRAG_NAME>  (777) 
ETAM   MBZ

>  <FRAG_ATOM_NUM>  (777) 
fragi: 11  fragj: 15

>  <atom.prop.CHAIN_ID>  (777) 
A A A A A A A A A A A Z Z Z Z Z Z Z Z Z Z Z Z Z Z Z

>  <atom.prop.IS_HEAVY_ATOM>  (777) 
1 0 0 0 1 0 0 1 0 0 0 1 0 0 0 1 1 0 1 0 1 0 1 0 1 0

>  <DIFUSE_FUNC_ATOM>  (777) 
n/a

>  <FINAL_SINGLE_POINT_ENERGY>  (777) 
0

>  <NONCOV_INTER_ENERGY_QM>  (777) 
0

>  <FF_Energy>  (777) 
6.5

>  <QM_Energy>  (777) 
-5.48

>  <source>  (777) 
ETAM_MBZ

>  <Index>  (777) 
7570

$$$$
ETAM-pdb1kkc-A-LYS-126:MBZ-pdb1kkc-A-PHE-122
     RDKit          3D

 26 25  0  0  0  0  0  0  0  0999 V2000
    0.3020   -0.9227    3.2262 C   0  0  0  0  0  0  0  0  0  0  0  0
    0.2121   -1.2525    2.2854 H   0  0  0  0  0  0  0  0  0  0  0  0
    0.3171    0.0773    3.2276 H   0  0  0  0  0  0  0  0  0  0  0  0
   -0.5637   -1.2592    3.7967 H   0  0  0  0  0  0  0  0  0  0  0  0
    1.5973   -1.4302    3.7984 C   0  0  0  0  0  0  0  0  0  0  0  0
    1.6685   -1.1462    4.7630 H   0  0  0  0  0  0  0  0  0  0  0  0
    1.6032   -2.4375    3.7665 H   0  0  0  0  0  0  0  0  0  0  0  0
    2.7849   -0.9200    3.0586 N   0  0  0  0  0  4  0  0  0  0  0  0
    2.5621   -0.0390    2.6423 H   0  0  0  0  0  0  0  0  0  0  0  0
    3.5476   -0.8070    3.6947 H   0  0  0  0  0  0  0  0  0  0  0  0
    3.0367   -1.5740    2.3456 H   0  0  0  0  0  0  0  0  0  0  0  0
   -0.0003    2.9065    0.0000 C   0  0  0  0  0  0  0  0  0  0  0  0
   -0.3000    3.2097   -0.8920 H   0  0  0  0  0  0  0  0  0  0  0  0
    0.9184    3.2147    0.1961 H   0  0  0  0  0  0  0  0  0  0  0  0
   -0.6655    3.3470    0.7427 H   0  0  0  0  0  0  0  0  0  0  0  0
    0.0014    1.4038    0.0045 C   0  0  0  0  0  0  0  0  0  0  0  0
   -1.1942    0.6956   -0.0011 C   0  0  0  0  0  0  0  0  0  0  0  0
   -2.0618    1.1848   -0.0078 H   0  0  0  0  0  0  0  0  0  0  0  0
   -1.2011   -0.6992    0.0000 C   0  0  0  0  0  0  0  0  0  0  0  0
   -2.0786   -1.1887    0.0051 H   0  0  0  0  0  0  0  0  0  0  0  0
   -0.0015   -1.3962   -0.0039 C   0  0  0  0  0  0  0  0  0  0  0  0
   -0.0055   -2.3951   -0.0096 H   0  0  0  0  0  0  0  0  0  0  0  0
    1.2011   -0.7007   -0.0000 C   0  0  0  0  0  0  0  0  0  0  0  0
    2.0820   -1.1944    0.0038 H   0  0  0  0  0  0  0  0  0  0  0  0
    1.1944    0.6966    0.0005 C   0  0  0  0  0  0  0  0  0  0  0  0
    2.0646    1.1894   -0.0030 H   0  0  0  0  0  0  0  0  0  0  0  0
  1  5  1  0
  5  8  1  0
  1  2  1  0
  1  3  1  0
  1  4  1  0
  5  6  1  0
  5  7  1  0
  8  9  1  0
  8 10  1  0
  8 11  1  0
 12 16  1  0
 16 17  2  0
 17 19  1  0
 19 21  2  0
 21 23  1  0
 23 25  2  0
 25 16  1  0
 12 13  1  0
 12 14  1  0
 12 15  1  0
 17 18  1  0
 19 20  1  0
 21 22  1  0
 23 24  1  0
 25 26  1  0
M  CHG  1   8   1
M  END
>  <PDB_ID>  (778) 
pdb1kkc

>  <RESIDUE_NAME>  (778) 
LYS   PHE

>  <FRAG_NAME>  (778) 
ETAM   MBZ

>  <FRAG_ATOM_NUM>  (778) 
fragi: 11  fragj: 15

>  <atom.prop.CHAIN_ID>  (778) 
A A A A A A A A A A A Z Z Z Z Z Z Z Z Z Z Z Z Z Z Z

>  <atom.prop.IS_HEAVY_ATOM>  (778) 
1 0 0 0 1 0 0 1 0 0 0 1 0 0 0 1 1 0 1 0 1 0 1 0 1 0

>  <DIFUSE_FUNC_ATOM>  (778) 
n/a

>  <FINAL_SINGLE_POINT_ENERGY>  (778) 
0

>  <NONCOV_INTER_ENERGY_QM>  (778) 
0

>  <FF_Energy>  (778) 
-0.12

>  <QM_Energy>  (778) 
-7.98

>  <source>  (778) 
ETAM_MBZ

>  <Index>  (778) 
7585

$$$$
ETAM-pdb1ktd-C-LYS-74:MBZ-pdb1ktd-D-PHE-34
     RDKit          3D

 26 25  0  0  0  0  0  0  0  0999 V2000
    0.0356    1.7378    3.6601 C   0  0  0  0  0  0  0  0  0  0  0  0
    0.5421    2.1322    2.9005 H   0  0  0  0  0  0  0  0  0  0  0  0
    0.3911    2.0716    4.5258 H   0  0  0  0  0  0  0  0  0  0  0  0
   -1.0130    2.0225    3.5728 H   0  0  0  0  0  0  0  0  0  0  0  0
    0.2035    0.2245    3.6195 C   0  0  0  0  0  0  0  0  0  0  0  0
   -0.3968   -0.1858    4.3186 H   0  0  0  0  0  0  0  0  0  0  0  0
   -0.0969   -0.1098    2.7164 H   0  0  0  0  0  0  0  0  0  0  0  0
    1.6017   -0.2108    3.8601 N   0  0  0  0  0  4  0  0  0  0  0  0
    1.8829   -0.8449    3.1394 H   0  0  0  0  0  0  0  0  0  0  0  0
    2.2053    0.5867    3.8559 H   0  0  0  0  0  0  0  0  0  0  0  0
    1.6612   -0.6686    4.7476 H   0  0  0  0  0  0  0  0  0  0  0  0
    0.0068    2.9115   -0.0987 C   0  0  0  0  0  0  0  0  0  0  0  0
    0.8495    3.2383    0.2932 H   0  0  0  0  0  0  0  0  0  0  0  0
   -0.7805    3.2518    0.3867 H   0  0  0  0  0  0  0  0  0  0  0  0
   -0.0497    3.2756   -1.1246 H   0  0  0  0  0  0  0  0  0  0  0  0
    0.0007    1.4073   -0.0008 C   0  0  0  0  0  0  0  0  0  0  0  0
   -1.1981    0.6981    0.0011 C   0  0  0  0  0  0  0  0  0  0  0  0
   -2.0646    1.1857    0.0018 H   0  0  0  0  0  0  0  0  0  0  0  0
   -1.2025   -0.6991    0.0000 C   0  0  0  0  0  0  0  0  0  0  0  0
   -2.0800   -1.1903    0.0024 H   0  0  0  0  0  0  0  0  0  0  0  0
   -0.0001   -1.3976   -0.0025 C   0  0  0  0  0  0  0  0  0  0  0  0
   -0.0057   -2.3959   -0.0070 H   0  0  0  0  0  0  0  0  0  0  0  0
    1.2025   -0.7029    0.0000 C   0  0  0  0  0  0  0  0  0  0  0  0
    2.0832   -1.1974    0.0016 H   0  0  0  0  0  0  0  0  0  0  0  0
    1.1974    0.6942    0.0022 C   0  0  0  0  0  0  0  0  0  0  0  0
    2.0667    1.1878    0.0055 H   0  0  0  0  0  0  0  0  0  0  0  0
  1  5  1  0
  5  8  1  0
  1  2  1  0
  1  3  1  0
  1  4  1  0
  5  6  1  0
  5  7  1  0
  8  9  1  0
  8 10  1  0
  8 11  1  0
 12 16  1  0
 16 17  2  0
 17 19  1  0
 19 21  2  0
 21 23  1  0
 23 25  2  0
 25 16  1  0
 12 13  1  0
 12 14  1  0
 12 15  1  0
 17 18  1  0
 19 20  1  0
 21 22  1  0
 23 24  1  0
 25 26  1  0
M  CHG  1   8   1
M  END
>  <PDB_ID>  (779) 
pdb1ktd

>  <RESIDUE_NAME>  (779) 
LYS   PHE

>  <FRAG_NAME>  (779) 
ETAM   MBZ

>  <FRAG_ATOM_NUM>  (779) 
fragi: 11  fragj: 15

>  <atom.prop.CHAIN_ID>  (779) 
A A A A A A A A A A A Z Z Z Z Z Z Z Z Z Z Z Z Z Z Z

>  <atom.prop.IS_HEAVY_ATOM>  (779) 
1 0 0 0 1 0 0 1 0 0 0 1 0 0 0 1 1 0 1 0 1 0 1 0 1 0

>  <DIFUSE_FUNC_ATOM>  (779) 
n/a

>  <FINAL_SINGLE_POINT_ENERGY>  (779) 
0

>  <NONCOV_INTER_ENERGY_QM>  (779) 
0

>  <FF_Energy>  (779) 
-6.44

>  <QM_Energy>  (779) 
-11.93

>  <source>  (779) 
ETAM_MBZ

>  <Index>  (779) 
7590

$$$$
ETAM-pdb1ky7-A-LYS-841:MBZ-pdb1ky7-P-PHE-323
     RDKit          3D

 26 25  0  0  0  0  0  0  0  0999 V2000
    3.5237   -2.1338   -3.6642 C   0  0  0  0  0  0  0  0  0  0  0  0
    3.0347   -2.8754   -3.2283 H   0  0  0  0  0  0  0  0  0  0  0  0
    4.4893   -2.1665   -3.4543 H   0  0  0  0  0  0  0  0  0  0  0  0
    3.3836   -2.1927   -4.7436 H   0  0  0  0  0  0  0  0  0  0  0  0
    2.9631   -0.8162   -3.1430 C   0  0  0  0  0  0  0  0  0  0  0  0
    3.2414   -0.0754   -3.7689 H   0  0  0  0  0  0  0  0  0  0  0  0
    1.9554   -0.8675   -3.1490 H   0  0  0  0  0  0  0  0  0  0  0  0
    3.4242   -0.4875   -1.7657 N   0  0  0  0  0  4  0  0  0  0  0  0
    3.4013   -1.3135   -1.2028 H   0  0  0  0  0  0  0  0  0  0  0  0
    4.3584   -0.1335   -1.8052 H   0  0  0  0  0  0  0  0  0  0  0  0
    2.8204    0.2040   -1.3699 H   0  0  0  0  0  0  0  0  0  0  0  0
   -0.0024    2.9230    0.0240 C   0  0  0  0  0  0  0  0  0  0  0  0
    0.9164    3.2302   -0.1691 H   0  0  0  0  0  0  0  0  0  0  0  0
   -0.3010    3.2112    0.9206 H   0  0  0  0  0  0  0  0  0  0  0  0
   -0.6681    3.3742   -0.7118 H   0  0  0  0  0  0  0  0  0  0  0  0
   -0.0005    1.4110    0.0002 C   0  0  0  0  0  0  0  0  0  0  0  0
   -1.1968    0.6942   -0.0005 C   0  0  0  0  0  0  0  0  0  0  0  0
   -2.0655    1.1832   -0.0027 H   0  0  0  0  0  0  0  0  0  0  0  0
   -1.2050   -0.7029    0.0000 C   0  0  0  0  0  0  0  0  0  0  0  0
   -2.0822   -1.1920    0.0010 H   0  0  0  0  0  0  0  0  0  0  0  0
   -0.0026   -1.4024    0.0006 C   0  0  0  0  0  0  0  0  0  0  0  0
   -0.0041   -2.3980    0.0006 H   0  0  0  0  0  0  0  0  0  0  0  0
    1.2050   -0.7011    0.0000 C   0  0  0  0  0  0  0  0  0  0  0  0
    2.0847   -1.1956    0.0012 H   0  0  0  0  0  0  0  0  0  0  0  0
    1.1999    0.7012   -0.0003 C   0  0  0  0  0  0  0  0  0  0  0  0
    2.0676    1.1934   -0.0020 H   0  0  0  0  0  0  0  0  0  0  0  0
  1  5  1  0
  5  8  1  0
  1  2  1  0
  1  3  1  0
  1  4  1  0
  5  6  1  0
  5  7  1  0
  8  9  1  0
  8 10  1  0
  8 11  1  0
 12 16  1  0
 16 17  2  0
 17 19  1  0
 19 21  2  0
 21 23  1  0
 23 25  2  0
 25 16  1  0
 12 13  1  0
 12 14  1  0
 12 15  1  0
 17 18  1  0
 19 20  1  0
 21 22  1  0
 23 24  1  0
 25 26  1  0
M  CHG  1   8   1
M  END
>  <PDB_ID>  (780) 
pdb1ky7

>  <RESIDUE_NAME>  (780) 
LYS   PHE

>  <FRAG_NAME>  (780) 
ETAM   MBZ

>  <FRAG_ATOM_NUM>  (780) 
fragi: 11  fragj: 15

>  <atom.prop.CHAIN_ID>  (780) 
A A A A A A A A A A A Z Z Z Z Z Z Z Z Z Z Z Z Z Z Z

>  <atom.prop.IS_HEAVY_ATOM>  (780) 
1 0 0 0 1 0 0 1 0 0 0 1 0 0 0 1 1 0 1 0 1 0 1 0 1 0

>  <DIFUSE_FUNC_ATOM>  (780) 
n/a

>  <FINAL_SINGLE_POINT_ENERGY>  (780) 
0

>  <NONCOV_INTER_ENERGY_QM>  (780) 
0

>  <FF_Energy>  (780) 
5.22

>  <QM_Energy>  (780) 
-4.81

>  <source>  (780) 
ETAM_MBZ

>  <Index>  (780) 
7601

$$$$
ETAM-pdb2pbq-B-LYS-35:MBZ-pdb2pbq-B-PHE-42
     RDKit          3D

 26 25  0  0  0  0  0  0  0  0999 V2000
   -0.0367   -4.1079    2.4390 C   0  0  0  0  0  0  0  0  0  0  0  0
    0.6705   -4.2439    3.1223 H   0  0  0  0  0  0  0  0  0  0  0  0
    0.2664   -3.4707    1.7412 H   0  0  0  0  0  0  0  0  0  0  0  0
   -0.2650   -5.0653    1.9704 H   0  0  0  0  0  0  0  0  0  0  0  0
   -1.2683   -3.5277    3.1242 C   0  0  0  0  0  0  0  0  0  0  0  0
   -2.0046   -3.4390    2.4461 H   0  0  0  0  0  0  0  0  0  0  0  0
   -1.5698   -4.1639    3.8418 H   0  0  0  0  0  0  0  0  0  0  0  0
   -1.0022   -2.1944    3.7339 N   0  0  0  0  0  4  0  0  0  0  0  0
   -0.5135   -1.6216    3.0764 H   0  0  0  0  0  0  0  0  0  0  0  0
   -1.8702   -1.7619    3.9754 H   0  0  0  0  0  0  0  0  0  0  0  0
   -0.4455   -2.3116    4.5552 H   0  0  0  0  0  0  0  0  0  0  0  0
   -0.0078    2.9134    0.0130 C   0  0  0  0  0  0  0  0  0  0  0  0
   -0.8449    3.2201   -0.4136 H   0  0  0  0  0  0  0  0  0  0  0  0
    0.7865    3.2254   -0.4840 H   0  0  0  0  0  0  0  0  0  0  0  0
    0.0341    3.3482    1.0116 H   0  0  0  0  0  0  0  0  0  0  0  0
   -0.0033    1.4050    0.0002 C   0  0  0  0  0  0  0  0  0  0  0  0
   -1.1987    0.6929   -0.0002 C   0  0  0  0  0  0  0  0  0  0  0  0
   -2.0665    1.1830   -0.0019 H   0  0  0  0  0  0  0  0  0  0  0  0
   -1.2051   -0.6993    0.0000 C   0  0  0  0  0  0  0  0  0  0  0  0
   -2.0787   -1.1945    0.0017 H   0  0  0  0  0  0  0  0  0  0  0  0
    0.0038   -1.3990   -0.0001 C   0  0  0  0  0  0  0  0  0  0  0  0
   -0.0001   -2.3946   -0.0007 H   0  0  0  0  0  0  0  0  0  0  0  0
    1.2051   -0.6963   -0.0000 C   0  0  0  0  0  0  0  0  0  0  0  0
    2.0872   -1.1919    0.0014 H   0  0  0  0  0  0  0  0  0  0  0  0
    1.1982    0.6967    0.0001 C   0  0  0  0  0  0  0  0  0  0  0  0
    2.0645    1.1949   -0.0009 H   0  0  0  0  0  0  0  0  0  0  0  0
  1  5  1  0
  5  8  1  0
  1  2  1  0
  1  3  1  0
  1  4  1  0
  5  6  1  0
  5  7  1  0
  8  9  1  0
  8 10  1  0
  8 11  1  0
 12 16  1  0
 16 17  2  0
 17 19  1  0
 19 21  2  0
 21 23  1  0
 23 25  2  0
 25 16  1  0
 12 13  1  0
 12 14  1  0
 12 15  1  0
 17 18  1  0
 19 20  1  0
 21 22  1  0
 23 24  1  0
 25 26  1  0
M  CHG  1   8   1
M  END
>  <PDB_ID>  (781) 
pdb2pbq

>  <RESIDUE_NAME>  (781) 
LYS   PHE

>  <FRAG_NAME>  (781) 
ETAM   MBZ

>  <FRAG_ATOM_NUM>  (781) 
fragi: 11  fragj: 15

>  <atom.prop.CHAIN_ID>  (781) 
A A A A A A A A A A A Z Z Z Z Z Z Z Z Z Z Z Z Z Z Z

>  <atom.prop.IS_HEAVY_ATOM>  (781) 
1 0 0 0 1 0 0 1 0 0 0 1 0 0 0 1 1 0 1 0 1 0 1 0 1 0

>  <DIFUSE_FUNC_ATOM>  (781) 
n/a

>  <FINAL_SINGLE_POINT_ENERGY>  (781) 
0

>  <NONCOV_INTER_ENERGY_QM>  (781) 
0

>  <FF_Energy>  (781) 
-3.31

>  <QM_Energy>  (781) 
-8.37

>  <source>  (781) 
ETAM_MBZ

>  <Index>  (781) 
7602

$$$$
ETAM-pdb1kyt-B-LYS-157:MBZ-pdb1kyt-B-PHE-80
     RDKit          3D

 26 25  0  0  0  0  0  0  0  0999 V2000
   -1.0125   -2.5320    3.8568 C   0  0  0  0  0  0  0  0  0  0  0  0
   -1.5640   -2.9650    3.1533 H   0  0  0  0  0  0  0  0  0  0  0  0
   -1.5221   -2.4577    4.7050 H   0  0  0  0  0  0  0  0  0  0  0  0
   -0.1249   -3.1403    4.0306 H   0  0  0  0  0  0  0  0  0  0  0  0
   -0.6329   -1.1402    3.3926 C   0  0  0  0  0  0  0  0  0  0  0  0
   -0.1925   -0.6499    4.1501 H   0  0  0  0  0  0  0  0  0  0  0  0
    0.0215   -1.2133    2.6336 H   0  0  0  0  0  0  0  0  0  0  0  0
   -1.8199   -0.3572    2.9345 N   0  0  0  0  0  4  0  0  0  0  0  0
   -1.8483   -0.3568    1.9366 H   0  0  0  0  0  0  0  0  0  0  0  0
   -2.6507   -0.7779    3.2948 H   0  0  0  0  0  0  0  0  0  0  0  0
   -1.7447    0.5809    3.2699 H   0  0  0  0  0  0  0  0  0  0  0  0
   -0.0291    2.8713   -0.0821 C   0  0  0  0  0  0  0  0  0  0  0  0
    0.9012    3.2031   -0.0490 H   0  0  0  0  0  0  0  0  0  0  0  0
   -0.5639    3.2200    0.6713 H   0  0  0  0  0  0  0  0  0  0  0  0
   -0.4796    3.2352   -1.0055 H   0  0  0  0  0  0  0  0  0  0  0  0
   -0.0062    1.3963   -0.0013 C   0  0  0  0  0  0  0  0  0  0  0  0
   -1.2014    0.6860    0.0006 C   0  0  0  0  0  0  0  0  0  0  0  0
   -2.0685    1.1788    0.0014 H   0  0  0  0  0  0  0  0  0  0  0  0
   -1.2052   -0.6968   -0.0000 C   0  0  0  0  0  0  0  0  0  0  0  0
   -2.0749   -1.1990    0.0009 H   0  0  0  0  0  0  0  0  0  0  0  0
    0.0066   -1.3903   -0.0004 C   0  0  0  0  0  0  0  0  0  0  0  0
    0.0036   -2.3888   -0.0016 H   0  0  0  0  0  0  0  0  0  0  0  0
    1.2052   -0.6903    0.0000 C   0  0  0  0  0  0  0  0  0  0  0  0
    2.0883   -1.1903    0.0007 H   0  0  0  0  0  0  0  0  0  0  0  0
    1.2009    0.6951    0.0011 C   0  0  0  0  0  0  0  0  0  0  0  0
    2.0612    1.1983    0.0031 H   0  0  0  0  0  0  0  0  0  0  0  0
  1  5  1  0
  5  8  1  0
  1  2  1  0
  1  3  1  0
  1  4  1  0
  5  6  1  0
  5  7  1  0
  8  9  1  0
  8 10  1  0
  8 11  1  0
 12 16  1  0
 16 17  2  0
 17 19  1  0
 19 21  2  0
 21 23  1  0
 23 25  2  0
 25 16  1  0
 12 13  1  0
 12 14  1  0
 12 15  1  0
 17 18  1  0
 19 20  1  0
 21 22  1  0
 23 24  1  0
 25 26  1  0
M  CHG  1   8   1
M  END
>  <PDB_ID>  (782) 
pdb1kyt

>  <RESIDUE_NAME>  (782) 
LYS   PHE

>  <FRAG_NAME>  (782) 
ETAM   MBZ

>  <FRAG_ATOM_NUM>  (782) 
fragi: 11  fragj: 15

>  <atom.prop.CHAIN_ID>  (782) 
A A A A A A A A A A A Z Z Z Z Z Z Z Z Z Z Z Z Z Z Z

>  <atom.prop.IS_HEAVY_ATOM>  (782) 
1 0 0 0 1 0 0 1 0 0 0 1 0 0 0 1 1 0 1 0 1 0 1 0 1 0

>  <DIFUSE_FUNC_ATOM>  (782) 
n/a

>  <FINAL_SINGLE_POINT_ENERGY>  (782) 
0

>  <NONCOV_INTER_ENERGY_QM>  (782) 
0

>  <FF_Energy>  (782) 
-5.38

>  <QM_Energy>  (782) 
-13.91

>  <source>  (782) 
ETAM_MBZ

>  <Index>  (782) 
7624

$$$$
ETAM-pdb1kyt-B-LYS-157:MBZ-pdb1kyt-B-PHE-153
     RDKit          3D

 26 25  0  0  0  0  0  0  0  0999 V2000
    2.2454   -2.8780    4.4076 C   0  0  0  0  0  0  0  0  0  0  0  0
    2.6542   -3.7786    4.4993 H   0  0  0  0  0  0  0  0  0  0  0  0
    1.3790   -2.8359    4.8895 H   0  0  0  0  0  0  0  0  0  0  0  0
    2.9236   -2.1397    4.8355 H   0  0  0  0  0  0  0  0  0  0  0  0
    1.9997   -2.6002    2.9381 C   0  0  0  0  0  0  0  0  0  0  0  0
    1.4663   -1.7544    2.8483 H   0  0  0  0  0  0  0  0  0  0  0  0
    2.8824   -2.4741    2.4748 H   0  0  0  0  0  0  0  0  0  0  0  0
    1.2582   -3.7131    2.2720 N   0  0  0  0  0  4  0  0  0  0  0  0
    1.9012   -4.2710    1.7507 H   0  0  0  0  0  0  0  0  0  0  0  0
    0.8124   -4.2741    2.9674 H   0  0  0  0  0  0  0  0  0  0  0  0
    0.5704   -3.3287    1.6576 H   0  0  0  0  0  0  0  0  0  0  0  0
    0.0127    2.9017    0.0291 C   0  0  0  0  0  0  0  0  0  0  0  0
   -0.7671    3.2233   -0.4872 H   0  0  0  0  0  0  0  0  0  0  0  0
    0.8620    3.2101   -0.3729 H   0  0  0  0  0  0  0  0  0  0  0  0
   -0.0545    3.3224    1.0324 H   0  0  0  0  0  0  0  0  0  0  0  0
    0.0026    1.4014    0.0007 C   0  0  0  0  0  0  0  0  0  0  0  0
   -1.1938    0.6988    0.0001 C   0  0  0  0  0  0  0  0  0  0  0  0
   -2.0605    1.1838   -0.0010 H   0  0  0  0  0  0  0  0  0  0  0  0
   -1.1984   -0.7019    0.0000 C   0  0  0  0  0  0  0  0  0  0  0  0
   -2.0797   -1.1876    0.0025 H   0  0  0  0  0  0  0  0  0  0  0  0
   -0.0058   -1.3908   -0.0013 C   0  0  0  0  0  0  0  0  0  0  0  0
   -0.0023   -2.3914   -0.0043 H   0  0  0  0  0  0  0  0  0  0  0  0
    1.1984   -0.6926    0.0000 C   0  0  0  0  0  0  0  0  0  0  0  0
    2.0770   -1.1991    0.0019 H   0  0  0  0  0  0  0  0  0  0  0  0
    1.1970    0.6852    0.0006 C   0  0  0  0  0  0  0  0  0  0  0  0
    2.0667    1.1861   -0.0000 H   0  0  0  0  0  0  0  0  0  0  0  0
  1  5  1  0
  5  8  1  0
  1  2  1  0
  1  3  1  0
  1  4  1  0
  5  6  1  0
  5  7  1  0
  8  9  1  0
  8 10  1  0
  8 11  1  0
 12 16  1  0
 16 17  2  0
 17 19  1  0
 19 21  2  0
 21 23  1  0
 23 25  2  0
 25 16  1  0
 12 13  1  0
 12 14  1  0
 12 15  1  0
 17 18  1  0
 19 20  1  0
 21 22  1  0
 23 24  1  0
 25 26  1  0
M  CHG  1   8   1
M  END
>  <PDB_ID>  (783) 
pdb1kyt

>  <RESIDUE_NAME>  (783) 
LYS   PHE

>  <FRAG_NAME>  (783) 
ETAM   MBZ

>  <FRAG_ATOM_NUM>  (783) 
fragi: 11  fragj: 15

>  <atom.prop.CHAIN_ID>  (783) 
A A A A A A A A A A A Z Z Z Z Z Z Z Z Z Z Z Z Z Z Z

>  <atom.prop.IS_HEAVY_ATOM>  (783) 
1 0 0 0 1 0 0 1 0 0 0 1 0 0 0 1 1 0 1 0 1 0 1 0 1 0

>  <DIFUSE_FUNC_ATOM>  (783) 
n/a

>  <FINAL_SINGLE_POINT_ENERGY>  (783) 
0

>  <NONCOV_INTER_ENERGY_QM>  (783) 
0

>  <FF_Energy>  (783) 
-1.13

>  <QM_Energy>  (783) 
-7.47

>  <source>  (783) 
ETAM_MBZ

>  <Index>  (783) 
7625

$$$$
ETAM-pdb2pc5-B-LYS-37:MBZ-pdb2pc5-B-PHE-128
     RDKit          3D

 26 25  0  0  0  0  0  0  0  0999 V2000
   -0.9413    0.9399   -4.7156 C   0  0  0  0  0  0  0  0  0  0  0  0
   -1.9367    0.9857   -4.6668 H   0  0  0  0  0  0  0  0  0  0  0  0
   -0.6637    0.1266   -5.2228 H   0  0  0  0  0  0  0  0  0  0  0  0
   -0.5846    1.8177   -5.2544 H   0  0  0  0  0  0  0  0  0  0  0  0
   -0.3805    0.8702   -3.3248 C   0  0  0  0  0  0  0  0  0  0  0  0
   -0.0152    1.7641   -3.0541 H   0  0  0  0  0  0  0  0  0  0  0  0
   -1.0977    0.6024   -2.6753 H   0  0  0  0  0  0  0  0  0  0  0  0
    0.7616   -0.1532   -3.1993 N   0  0  0  0  0  4  0  0  0  0  0  0
    1.0379   -0.1888   -2.2474 H   0  0  0  0  0  0  0  0  0  0  0  0
    0.4187   -1.0331   -3.5016 H   0  0  0  0  0  0  0  0  0  0  0  0
    1.5100    0.1509   -3.7745 H   0  0  0  0  0  0  0  0  0  0  0  0
    0.0083    2.9185    0.0161 C   0  0  0  0  0  0  0  0  0  0  0  0
   -0.6209    3.2483   -0.6745 H   0  0  0  0  0  0  0  0  0  0  0  0
    0.9306    3.2317   -0.1658 H   0  0  0  0  0  0  0  0  0  0  0  0
   -0.2944    3.3829    0.9546 H   0  0  0  0  0  0  0  0  0  0  0  0
   -0.0076    1.4288    0.0173 C   0  0  0  0  0  0  0  0  0  0  0  0
   -1.2119    0.7204   -0.0069 C   0  0  0  0  0  0  0  0  0  0  0  0
   -2.0799    1.1924   -0.0303 H   0  0  0  0  0  0  0  0  0  0  0  0
   -1.2302   -0.7258   -0.0000 C   0  0  0  0  0  0  0  0  0  0  0  0
   -2.0899   -1.2035    0.0087 H   0  0  0  0  0  0  0  0  0  0  0  0
    0.0169   -1.4431   -0.0047 C   0  0  0  0  0  0  0  0  0  0  0  0
    0.0168   -2.4203   -0.0118 H   0  0  0  0  0  0  0  0  0  0  0  0
    1.2302   -0.7044   -0.0000 C   0  0  0  0  0  0  0  0  0  0  0  0
    2.1134   -1.1784    0.0091 H   0  0  0  0  0  0  0  0  0  0  0  0
    1.2026    0.7241   -0.0056 C   0  0  0  0  0  0  0  0  0  0  0  0
    2.0678    1.2169   -0.0269 H   0  0  0  0  0  0  0  0  0  0  0  0
  1  5  1  0
  5  8  1  0
  1  2  1  0
  1  3  1  0
  1  4  1  0
  5  6  1  0
  5  7  1  0
  8  9  1  0
  8 10  1  0
  8 11  1  0
 12 16  1  0
 16 17  2  0
 17 19  1  0
 19 21  2  0
 21 23  1  0
 23 25  2  0
 25 16  1  0
 12 13  1  0
 12 14  1  0
 12 15  1  0
 17 18  1  0
 19 20  1  0
 21 22  1  0
 23 24  1  0
 25 26  1  0
M  CHG  1   8   1
M  END
>  <PDB_ID>  (784) 
pdb2pc5

>  <RESIDUE_NAME>  (784) 
LYS   PHE

>  <FRAG_NAME>  (784) 
ETAM   MBZ

>  <FRAG_ATOM_NUM>  (784) 
fragi: 11  fragj: 15

>  <atom.prop.CHAIN_ID>  (784) 
A A A A A A A A A A A Z Z Z Z Z Z Z Z Z Z Z Z Z Z Z

>  <atom.prop.IS_HEAVY_ATOM>  (784) 
1 0 0 0 1 0 0 1 0 0 0 1 0 0 0 1 1 0 1 0 1 0 1 0 1 0

>  <DIFUSE_FUNC_ATOM>  (784) 
n/a

>  <FINAL_SINGLE_POINT_ENERGY>  (784) 
0

>  <NONCOV_INTER_ENERGY_QM>  (784) 
0

>  <FF_Energy>  (784) 
-8.88

>  <QM_Energy>  (784) 
-16.96

>  <source>  (784) 
ETAM_MBZ

>  <Index>  (784) 
7626

$$$$
ETAM-pdb1l2l-A-LYS-85:MBZ-pdb1l2l-A-PHE-193
     RDKit          3D

 26 25  0  0  0  0  0  0  0  0999 V2000
   -0.7582   -1.0931   -4.2484 C   0  0  0  0  0  0  0  0  0  0  0  0
   -1.1863   -1.1279   -3.3546 H   0  0  0  0  0  0  0  0  0  0  0  0
   -1.1154   -1.8046   -4.8398 H   0  0  0  0  0  0  0  0  0  0  0  0
   -0.9661   -0.1228   -4.6995 H   0  0  0  0  0  0  0  0  0  0  0  0
    0.7420   -1.3071   -4.0797 C   0  0  0  0  0  0  0  0  0  0  0  0
    1.1733   -1.3049   -4.9914 H   0  0  0  0  0  0  0  0  0  0  0  0
    1.1212   -0.5372   -3.5515 H   0  0  0  0  0  0  0  0  0  0  0  0
    1.0735   -2.5831   -3.3866 N   0  0  0  0  0  4  0  0  0  0  0  0
    0.4789   -2.6912   -2.5909 H   0  0  0  0  0  0  0  0  0  0  0  0
    0.9342   -3.3471   -4.0152 H   0  0  0  0  0  0  0  0  0  0  0  0
    2.0286   -2.5615   -3.0914 H   0  0  0  0  0  0  0  0  0  0  0  0
   -0.0090    2.9037   -0.0285 C   0  0  0  0  0  0  0  0  0  0  0  0
   -0.8096    3.2156    0.4631 H   0  0  0  0  0  0  0  0  0  0  0  0
   -0.0348    3.1930   -0.9743 H   0  0  0  0  0  0  0  0  0  0  0  0
    0.8644    3.3623    0.4351 H   0  0  0  0  0  0  0  0  0  0  0  0
   -0.0002    1.4029   -0.0005 C   0  0  0  0  0  0  0  0  0  0  0  0
   -1.1973    0.6936    0.0000 C   0  0  0  0  0  0  0  0  0  0  0  0
   -2.0643    1.1832   -0.0013 H   0  0  0  0  0  0  0  0  0  0  0  0
   -1.2035   -0.6997    0.0000 C   0  0  0  0  0  0  0  0  0  0  0  0
   -2.0796   -1.1926    0.0014 H   0  0  0  0  0  0  0  0  0  0  0  0
   -0.0006   -1.3958   -0.0001 C   0  0  0  0  0  0  0  0  0  0  0  0
   -0.0020   -2.3934   -0.0003 H   0  0  0  0  0  0  0  0  0  0  0  0
    1.2035   -0.6954    0.0000 C   0  0  0  0  0  0  0  0  0  0  0  0
    2.0833   -1.1942    0.0010 H   0  0  0  0  0  0  0  0  0  0  0  0
    1.1981    0.6945    0.0006 C   0  0  0  0  0  0  0  0  0  0  0  0
    2.0651    1.1923    0.0008 H   0  0  0  0  0  0  0  0  0  0  0  0
  1  5  1  0
  5  8  1  0
  1  2  1  0
  1  3  1  0
  1  4  1  0
  5  6  1  0
  5  7  1  0
  8  9  1  0
  8 10  1  0
  8 11  1  0
 12 16  1  0
 16 17  2  0
 17 19  1  0
 19 21  2  0
 21 23  1  0
 23 25  2  0
 25 16  1  0
 12 13  1  0
 12 14  1  0
 12 15  1  0
 17 18  1  0
 19 20  1  0
 21 22  1  0
 23 24  1  0
 25 26  1  0
M  CHG  1   8   1
M  END
>  <PDB_ID>  (785) 
pdb1l2l

>  <RESIDUE_NAME>  (785) 
LYS   PHE

>  <FRAG_NAME>  (785) 
ETAM   MBZ

>  <FRAG_ATOM_NUM>  (785) 
fragi: 11  fragj: 15

>  <atom.prop.CHAIN_ID>  (785) 
A A A A A A A A A A A Z Z Z Z Z Z Z Z Z Z Z Z Z Z Z

>  <atom.prop.IS_HEAVY_ATOM>  (785) 
1 0 0 0 1 0 0 1 0 0 0 1 0 0 0 1 1 0 1 0 1 0 1 0 1 0

>  <DIFUSE_FUNC_ATOM>  (785) 
n/a

>  <FINAL_SINGLE_POINT_ENERGY>  (785) 
0

>  <NONCOV_INTER_ENERGY_QM>  (785) 
0

>  <FF_Energy>  (785) 
-3.9

>  <QM_Energy>  (785) 
-9.48

>  <source>  (785) 
ETAM_MBZ

>  <Index>  (785) 
7662

$$$$
ETAM-pdb1l0q-A-LYS-161:MBZ-pdb1l0q-A-PHE-177
     RDKit          3D

 26 25  0  0  0  0  0  0  0  0999 V2000
   -1.2159    2.3745   -3.5627 C   0  0  0  0  0  0  0  0  0  0  0  0
   -1.7175    2.1868   -2.7271 H   0  0  0  0  0  0  0  0  0  0  0  0
   -1.6648    1.9578   -4.3435 H   0  0  0  0  0  0  0  0  0  0  0  0
   -1.1798    3.4534   -3.7135 H   0  0  0  0  0  0  0  0  0  0  0  0
    0.1867    1.7812   -3.4337 C   0  0  0  0  0  0  0  0  0  0  0  0
    0.7235    2.0435   -4.2472 H   0  0  0  0  0  0  0  0  0  0  0  0
    0.6347    2.1859   -2.6238 H   0  0  0  0  0  0  0  0  0  0  0  0
    0.1989    0.2936   -3.3023 N   0  0  0  0  0  4  0  0  0  0  0  0
    0.5288    0.0458   -2.3925 H   0  0  0  0  0  0  0  0  0  0  0  0
   -0.7279   -0.0553   -3.4308 H   0  0  0  0  0  0  0  0  0  0  0  0
    0.8036   -0.0927   -3.9966 H   0  0  0  0  0  0  0  0  0  0  0  0
   -0.0035    2.9058   -0.0423 C   0  0  0  0  0  0  0  0  0  0  0  0
   -0.7018    3.1917   -0.6825 H   0  0  0  0  0  0  0  0  0  0  0  0
    0.8940    3.2021   -0.3343 H   0  0  0  0  0  0  0  0  0  0  0  0
   -0.2166    3.3714    0.9200 H   0  0  0  0  0  0  0  0  0  0  0  0
   -0.0018    1.4020   -0.0014 C   0  0  0  0  0  0  0  0  0  0  0  0
   -1.2004    0.6942    0.0025 C   0  0  0  0  0  0  0  0  0  0  0  0
   -2.0657    1.1876    0.0054 H   0  0  0  0  0  0  0  0  0  0  0  0
   -1.2082   -0.6948   -0.0000 C   0  0  0  0  0  0  0  0  0  0  0  0
   -2.0803   -1.1910    0.0015 H   0  0  0  0  0  0  0  0  0  0  0  0
    0.0028   -1.3969   -0.0028 C   0  0  0  0  0  0  0  0  0  0  0  0
   -0.0038   -2.3922   -0.0072 H   0  0  0  0  0  0  0  0  0  0  0  0
    1.2082   -0.6970   -0.0000 C   0  0  0  0  0  0  0  0  0  0  0  0
    2.0874   -1.1952    0.0025 H   0  0  0  0  0  0  0  0  0  0  0  0
    1.1994    0.6926    0.0017 C   0  0  0  0  0  0  0  0  0  0  0  0
    2.0652    1.1932    0.0047 H   0  0  0  0  0  0  0  0  0  0  0  0
  1  5  1  0
  5  8  1  0
  1  2  1  0
  1  3  1  0
  1  4  1  0
  5  6  1  0
  5  7  1  0
  8  9  1  0
  8 10  1  0
  8 11  1  0
 12 16  1  0
 16 17  2  0
 17 19  1  0
 19 21  2  0
 21 23  1  0
 23 25  2  0
 25 16  1  0
 12 13  1  0
 12 14  1  0
 12 15  1  0
 17 18  1  0
 19 20  1  0
 21 22  1  0
 23 24  1  0
 25 26  1  0
M  CHG  1   8   1
M  END
>  <PDB_ID>  (786) 
pdb1l0q

>  <RESIDUE_NAME>  (786) 
LYS   PHE

>  <FRAG_NAME>  (786) 
ETAM   MBZ

>  <FRAG_ATOM_NUM>  (786) 
fragi: 11  fragj: 15

>  <atom.prop.CHAIN_ID>  (786) 
A A A A A A A A A A A Z Z Z Z Z Z Z Z Z Z Z Z Z Z Z

>  <atom.prop.IS_HEAVY_ATOM>  (786) 
1 0 0 0 1 0 0 1 0 0 0 1 0 0 0 1 1 0 1 0 1 0 1 0 1 0

>  <DIFUSE_FUNC_ATOM>  (786) 
n/a

>  <FINAL_SINGLE_POINT_ENERGY>  (786) 
0

>  <NONCOV_INTER_ENERGY_QM>  (786) 
0

>  <FF_Energy>  (786) 
-9.45

>  <QM_Energy>  (786) 
-17.54

>  <source>  (786) 
ETAM_MBZ

>  <Index>  (786) 
7676

$$$$
ETAM-pdb2pg0-A-LYS-268:MBZ-pdb2pg0-A-PHE-264
     RDKit          3D

 26 25  0  0  0  0  0  0  0  0999 V2000
    2.3425   -2.8911    3.1146 C   0  0  0  0  0  0  0  0  0  0  0  0
    2.5090   -3.8731    3.1017 H   0  0  0  0  0  0  0  0  0  0  0  0
    1.6625   -2.6485    2.4292 H   0  0  0  0  0  0  0  0  0  0  0  0
    1.9656   -2.6125    4.0987 H   0  0  0  0  0  0  0  0  0  0  0  0
    3.6448   -2.1734    2.7805 C   0  0  0  0  0  0  0  0  0  0  0  0
    3.5638   -1.2073    3.0436 H   0  0  0  0  0  0  0  0  0  0  0  0
    4.3928   -2.5890    3.3074 H   0  0  0  0  0  0  0  0  0  0  0  0
    3.9867   -2.2477    1.3160 N   0  0  0  0  0  4  0  0  0  0  0  0
    4.0231   -1.3229    0.9454 H   0  0  0  0  0  0  0  0  0  0  0  0
    4.8737   -2.6917    1.2130 H   0  0  0  0  0  0  0  0  0  0  0  0
    3.2835   -2.7764    0.8469 H   0  0  0  0  0  0  0  0  0  0  0  0
   -0.0001    2.9037    0.0124 C   0  0  0  0  0  0  0  0  0  0  0  0
   -0.7610    3.2181   -0.5334 H   0  0  0  0  0  0  0  0  0  0  0  0
    0.8619    3.2138   -0.3580 H   0  0  0  0  0  0  0  0  0  0  0  0
   -0.1069    3.3337    1.0083 H   0  0  0  0  0  0  0  0  0  0  0  0
   -0.0020    1.4032   -0.0013 C   0  0  0  0  0  0  0  0  0  0  0  0
   -1.1978    0.7030    0.0051 C   0  0  0  0  0  0  0  0  0  0  0  0
   -2.0638    1.1907    0.0124 H   0  0  0  0  0  0  0  0  0  0  0  0
   -1.2038   -0.6925    0.0000 C   0  0  0  0  0  0  0  0  0  0  0  0
   -2.0807   -1.1844    0.0007 H   0  0  0  0  0  0  0  0  0  0  0  0
    0.0008   -1.3962   -0.0041 C   0  0  0  0  0  0  0  0  0  0  0  0
   -0.0122   -2.3950   -0.0107 H   0  0  0  0  0  0  0  0  0  0  0  0
    1.2038   -0.7083    0.0000 C   0  0  0  0  0  0  0  0  0  0  0  0
    2.0837   -1.2026    0.0043 H   0  0  0  0  0  0  0  0  0  0  0  0
    1.1990    0.6908    0.0003 C   0  0  0  0  0  0  0  0  0  0  0  0
    2.0663    1.1849    0.0009 H   0  0  0  0  0  0  0  0  0  0  0  0
  1  5  1  0
  5  8  1  0
  1  2  1  0
  1  3  1  0
  1  4  1  0
  5  6  1  0
  5  7  1  0
  8  9  1  0
  8 10  1  0
  8 11  1  0
 12 16  1  0
 16 17  2  0
 17 19  1  0
 19 21  2  0
 21 23  1  0
 23 25  2  0
 25 16  1  0
 12 13  1  0
 12 14  1  0
 12 15  1  0
 17 18  1  0
 19 20  1  0
 21 22  1  0
 23 24  1  0
 25 26  1  0
M  CHG  1   8   1
M  END
>  <PDB_ID>  (787) 
pdb2pg0

>  <RESIDUE_NAME>  (787) 
LYS   PHE

>  <FRAG_NAME>  (787) 
ETAM   MBZ

>  <FRAG_ATOM_NUM>  (787) 
fragi: 11  fragj: 15

>  <atom.prop.CHAIN_ID>  (787) 
A A A A A A A A A A A Z Z Z Z Z Z Z Z Z Z Z Z Z Z Z

>  <atom.prop.IS_HEAVY_ATOM>  (787) 
1 0 0 0 1 0 0 1 0 0 0 1 0 0 0 1 1 0 1 0 1 0 1 0 1 0

>  <DIFUSE_FUNC_ATOM>  (787) 
n/a

>  <FINAL_SINGLE_POINT_ENERGY>  (787) 
0

>  <NONCOV_INTER_ENERGY_QM>  (787) 
0

>  <FF_Energy>  (787) 
1.09

>  <QM_Energy>  (787) 
-4.14

>  <source>  (787) 
ETAM_MBZ

>  <Index>  (787) 
7715

$$$$
ETAM-pdb1l3l-C-LYS-7:MBZ-pdb1l3l-C-PHE-32
     RDKit          3D

 26 25  0  0  0  0  0  0  0  0999 V2000
    3.3467   -3.4118    0.0288 C   0  0  0  0  0  0  0  0  0  0  0  0
    2.6936   -3.8046   -0.6080 H   0  0  0  0  0  0  0  0  0  0  0  0
    3.3053   -2.4202    0.0063 H   0  0  0  0  0  0  0  0  0  0  0  0
    3.1088   -3.7542    1.0359 H   0  0  0  0  0  0  0  0  0  0  0  0
    4.7287   -3.8521   -0.3543 C   0  0  0  0  0  0  0  0  0  0  0  0
    4.8732   -3.6910   -1.3319 H   0  0  0  0  0  0  0  0  0  0  0  0
    5.4044   -3.3297    0.1683 H   0  0  0  0  0  0  0  0  0  0  0  0
    4.9213   -5.3048   -0.0724 N   0  0  0  0  0  4  0  0  0  0  0  0
    4.7787   -5.8256   -0.9134 H   0  0  0  0  0  0  0  0  0  0  0  0
    5.8500   -5.4553    0.2625 H   0  0  0  0  0  0  0  0  0  0  0  0
    4.2629   -5.5958    0.6195 H   0  0  0  0  0  0  0  0  0  0  0  0
   -0.0036    2.9016   -0.0845 C   0  0  0  0  0  0  0  0  0  0  0  0
    0.8039    3.2348    0.3737 H   0  0  0  0  0  0  0  0  0  0  0  0
   -0.8289    3.2299    0.3438 H   0  0  0  0  0  0  0  0  0  0  0  0
    0.0138    3.2710   -1.1098 H   0  0  0  0  0  0  0  0  0  0  0  0
   -0.0012    1.4034   -0.0010 C   0  0  0  0  0  0  0  0  0  0  0  0
   -1.2006    0.6927    0.0002 C   0  0  0  0  0  0  0  0  0  0  0  0
   -2.0666    1.1849   -0.0003 H   0  0  0  0  0  0  0  0  0  0  0  0
   -1.2054   -0.6959   -0.0000 C   0  0  0  0  0  0  0  0  0  0  0  0
   -2.0781   -1.1939    0.0006 H   0  0  0  0  0  0  0  0  0  0  0  0
    0.0038   -1.3961    0.0002 C   0  0  0  0  0  0  0  0  0  0  0  0
   -0.0044   -2.3935    0.0000 H   0  0  0  0  0  0  0  0  0  0  0  0
    1.2054   -0.7001    0.0000 C   0  0  0  0  0  0  0  0  0  0  0  0
    2.0865   -1.1940    0.0010 H   0  0  0  0  0  0  0  0  0  0  0  0
    1.1980    0.6960    0.0006 C   0  0  0  0  0  0  0  0  0  0  0  0
    2.0653    1.1923    0.0018 H   0  0  0  0  0  0  0  0  0  0  0  0
  1  5  1  0
  5  8  1  0
  1  2  1  0
  1  3  1  0
  1  4  1  0
  5  6  1  0
  5  7  1  0
  8  9  1  0
  8 10  1  0
  8 11  1  0
 12 16  1  0
 16 17  2  0
 17 19  1  0
 19 21  2  0
 21 23  1  0
 23 25  2  0
 25 16  1  0
 12 13  1  0
 12 14  1  0
 12 15  1  0
 17 18  1  0
 19 20  1  0
 21 22  1  0
 23 24  1  0
 25 26  1  0
M  CHG  1   8   1
M  END
>  <PDB_ID>  (788) 
pdb1l3l

>  <RESIDUE_NAME>  (788) 
LYS   PHE

>  <FRAG_NAME>  (788) 
ETAM   MBZ

>  <FRAG_ATOM_NUM>  (788) 
fragi: 11  fragj: 15

>  <atom.prop.CHAIN_ID>  (788) 
A A A A A A A A A A A Z Z Z Z Z Z Z Z Z Z Z Z Z Z Z

>  <atom.prop.IS_HEAVY_ATOM>  (788) 
1 0 0 0 1 0 0 1 0 0 0 1 0 0 0 1 1 0 1 0 1 0 1 0 1 0

>  <DIFUSE_FUNC_ATOM>  (788) 
n/a

>  <FINAL_SINGLE_POINT_ENERGY>  (788) 
0

>  <NONCOV_INTER_ENERGY_QM>  (788) 
0

>  <FF_Energy>  (788) 
6.19

>  <QM_Energy>  (788) 
0.56

>  <source>  (788) 
ETAM_MBZ

>  <Index>  (788) 
7726

$$$$
ETAM-pdb1l0q-B-LYS-161:MBZ-pdb1l0q-B-PHE-177
     RDKit          3D

 26 25  0  0  0  0  0  0  0  0999 V2000
   -1.4732    2.3514   -3.4605 C   0  0  0  0  0  0  0  0  0  0  0  0
   -1.8756    2.1955   -2.5688 H   0  0  0  0  0  0  0  0  0  0  0  0
   -1.9763    1.8748   -4.1678 H   0  0  0  0  0  0  0  0  0  0  0  0
   -1.4780    3.4201   -3.6742 H   0  0  0  0  0  0  0  0  0  0  0  0
   -0.0384    1.8096   -3.4426 C   0  0  0  0  0  0  0  0  0  0  0  0
    0.3867    1.9980   -4.3372 H   0  0  0  0  0  0  0  0  0  0  0  0
    0.4823    2.3057   -2.7360 H   0  0  0  0  0  0  0  0  0  0  0  0
    0.0375    0.3432   -3.1654 N   0  0  0  0  0  4  0  0  0  0  0  0
    0.1192   -0.1502   -4.0292 H   0  0  0  0  0  0  0  0  0  0  0  0
    0.8353    0.1582   -2.5938 H   0  0  0  0  0  0  0  0  0  0  0  0
   -0.7916    0.0555   -2.6904 H   0  0  0  0  0  0  0  0  0  0  0  0
    0.0006    2.9051   -0.0447 C   0  0  0  0  0  0  0  0  0  0  0  0
   -0.7221    3.1947   -0.6551 H   0  0  0  0  0  0  0  0  0  0  0  0
    0.8865    3.2011   -0.3736 H   0  0  0  0  0  0  0  0  0  0  0  0
   -0.1709    3.3741    0.9241 H   0  0  0  0  0  0  0  0  0  0  0  0
   -0.0001    1.4029   -0.0050 C   0  0  0  0  0  0  0  0  0  0  0  0
   -1.2019    0.6932    0.0017 C   0  0  0  0  0  0  0  0  0  0  0  0
   -2.0658    1.1860    0.0068 H   0  0  0  0  0  0  0  0  0  0  0  0
   -1.2077   -0.6968    0.0000 C   0  0  0  0  0  0  0  0  0  0  0  0
   -2.0797   -1.1939   -0.0008 H   0  0  0  0  0  0  0  0  0  0  0  0
    0.0033   -1.3977    0.0019 C   0  0  0  0  0  0  0  0  0  0  0  0
   -0.0023   -2.3939    0.0041 H   0  0  0  0  0  0  0  0  0  0  0  0
    1.2077   -0.6979   -0.0000 C   0  0  0  0  0  0  0  0  0  0  0  0
    2.0881   -1.1930   -0.0005 H   0  0  0  0  0  0  0  0  0  0  0  0
    1.1986    0.6964    0.0014 C   0  0  0  0  0  0  0  0  0  0  0  0
    2.0659    1.1938    0.0067 H   0  0  0  0  0  0  0  0  0  0  0  0
  1  5  1  0
  5  8  1  0
  1  2  1  0
  1  3  1  0
  1  4  1  0
  5  6  1  0
  5  7  1  0
  8  9  1  0
  8 10  1  0
  8 11  1  0
 12 16  1  0
 16 17  2  0
 17 19  1  0
 19 21  2  0
 21 23  1  0
 23 25  2  0
 25 16  1  0
 12 13  1  0
 12 14  1  0
 12 15  1  0
 17 18  1  0
 19 20  1  0
 21 22  1  0
 23 24  1  0
 25 26  1  0
M  CHG  1   8   1
M  END
>  <PDB_ID>  (789) 
pdb1l0q

>  <RESIDUE_NAME>  (789) 
LYS   PHE

>  <FRAG_NAME>  (789) 
ETAM   MBZ

>  <FRAG_ATOM_NUM>  (789) 
fragi: 11  fragj: 15

>  <atom.prop.CHAIN_ID>  (789) 
A A A A A A A A A A A Z Z Z Z Z Z Z Z Z Z Z Z Z Z Z

>  <atom.prop.IS_HEAVY_ATOM>  (789) 
1 0 0 0 1 0 0 1 0 0 0 1 0 0 0 1 1 0 1 0 1 0 1 0 1 0

>  <DIFUSE_FUNC_ATOM>  (789) 
n/a

>  <FINAL_SINGLE_POINT_ENERGY>  (789) 
0

>  <NONCOV_INTER_ENERGY_QM>  (789) 
0

>  <FF_Energy>  (789) 
-9.5

>  <QM_Energy>  (789) 
-17.86

>  <source>  (789) 
ETAM_MBZ

>  <Index>  (789) 
7727

$$$$
ETAM-pdb1l9m-B-LYS-651:MBZ-pdb1l9m-A-PHE-117
     RDKit          3D

 26 25  0  0  0  0  0  0  0  0999 V2000
   -2.2882    2.5269    2.3909 C   0  0  0  0  0  0  0  0  0  0  0  0
   -1.6017    2.2574    1.7177 H   0  0  0  0  0  0  0  0  0  0  0  0
   -3.1268    2.0061    2.2429 H   0  0  0  0  0  0  0  0  0  0  0  0
   -1.9079    2.3115    3.3895 H   0  0  0  0  0  0  0  0  0  0  0  0
   -2.6008    4.0062    2.1934 C   0  0  0  0  0  0  0  0  0  0  0  0
   -1.7661    4.5410    2.3825 H   0  0  0  0  0  0  0  0  0  0  0  0
   -2.8547    4.1569    1.2286 H   0  0  0  0  0  0  0  0  0  0  0  0
   -3.7014    4.4974    3.0682 N   0  0  0  0  0  4  0  0  0  0  0  0
   -3.6701    4.0141    3.9426 H   0  0  0  0  0  0  0  0  0  0  0  0
   -3.5893    5.4787    3.2230 H   0  0  0  0  0  0  0  0  0  0  0  0
   -4.5800    4.3276    2.6224 H   0  0  0  0  0  0  0  0  0  0  0  0
    0.0023    2.9066   -0.0412 C   0  0  0  0  0  0  0  0  0  0  0  0
    0.7817    3.2247    0.4742 H   0  0  0  0  0  0  0  0  0  0  0  0
   -0.8464    3.2238    0.3519 H   0  0  0  0  0  0  0  0  0  0  0  0
    0.0778    3.3119   -1.0502 H   0  0  0  0  0  0  0  0  0  0  0  0
    0.0004    1.4045   -0.0004 C   0  0  0  0  0  0  0  0  0  0  0  0
   -1.1975    0.6949   -0.0004 C   0  0  0  0  0  0  0  0  0  0  0  0
   -2.0644    1.1857   -0.0020 H   0  0  0  0  0  0  0  0  0  0  0  0
   -1.2047   -0.6988   -0.0000 C   0  0  0  0  0  0  0  0  0  0  0  0
   -2.0801   -1.1913    0.0019 H   0  0  0  0  0  0  0  0  0  0  0  0
   -0.0003   -1.3983   -0.0007 C   0  0  0  0  0  0  0  0  0  0  0  0
   -0.0037   -2.3949   -0.0019 H   0  0  0  0  0  0  0  0  0  0  0  0
    1.2047   -0.6980   -0.0000 C   0  0  0  0  0  0  0  0  0  0  0  0
    2.0841   -1.1943    0.0009 H   0  0  0  0  0  0  0  0  0  0  0  0
    1.1974    0.6957    0.0015 C   0  0  0  0  0  0  0  0  0  0  0  0
    2.0658    1.1915    0.0030 H   0  0  0  0  0  0  0  0  0  0  0  0
  1  5  1  0
  5  8  1  0
  1  2  1  0
  1  3  1  0
  1  4  1  0
  5  6  1  0
  5  7  1  0
  8  9  1  0
  8 10  1  0
  8 11  1  0
 12 16  1  0
 16 17  2  0
 17 19  1  0
 19 21  2  0
 21 23  1  0
 23 25  2  0
 25 16  1  0
 12 13  1  0
 12 14  1  0
 12 15  1  0
 17 18  1  0
 19 20  1  0
 21 22  1  0
 23 24  1  0
 25 26  1  0
M  CHG  1   8   1
M  END
>  <PDB_ID>  (790) 
pdb1l9m

>  <RESIDUE_NAME>  (790) 
LYS   PHE

>  <FRAG_NAME>  (790) 
ETAM   MBZ

>  <FRAG_ATOM_NUM>  (790) 
fragi: 11  fragj: 15

>  <atom.prop.CHAIN_ID>  (790) 
A A A A A A A A A A A Z Z Z Z Z Z Z Z Z Z Z Z Z Z Z

>  <atom.prop.IS_HEAVY_ATOM>  (790) 
1 0 0 0 1 0 0 1 0 0 0 1 0 0 0 1 1 0 1 0 1 0 1 0 1 0

>  <DIFUSE_FUNC_ATOM>  (790) 
n/a

>  <FINAL_SINGLE_POINT_ENERGY>  (790) 
0

>  <NONCOV_INTER_ENERGY_QM>  (790) 
0

>  <FF_Energy>  (790) 
6.82

>  <QM_Energy>  (790) 
0.21

>  <source>  (790) 
ETAM_MBZ

>  <Index>  (790) 
7749

$$$$
ETAM-pdb2ph4-B-LYS-122:MBZ-pdb2ph4-B-PHE-119
     RDKit          3D

 26 25  0  0  0  0  0  0  0  0999 V2000
   -0.8129    3.2472    3.3259 C   0  0  0  0  0  0  0  0  0  0  0  0
   -0.3831    2.9980    2.4623 H   0  0  0  0  0  0  0  0  0  0  0  0
   -0.1206    3.3533    4.0343 H   0  0  0  0  0  0  0  0  0  0  0  0
   -1.3690    4.1772    3.2073 H   0  0  0  0  0  0  0  0  0  0  0  0
   -1.7359    2.1050    3.7390 C   0  0  0  0  0  0  0  0  0  0  0  0
   -1.9883    2.2244    4.6862 H   0  0  0  0  0  0  0  0  0  0  0  0
   -2.5299    2.1076    3.1509 H   0  0  0  0  0  0  0  0  0  0  0  0
   -0.9913    0.8409    3.5729 N   0  0  0  0  0  4  0  0  0  0  0  0
   -0.5694    0.8148    2.6646 H   0  0  0  0  0  0  0  0  0  0  0  0
   -0.2767    0.7761    4.2718 H   0  0  0  0  0  0  0  0  0  0  0  0
   -1.6174    0.0649    3.6686 H   0  0  0  0  0  0  0  0  0  0  0  0
    0.0181    2.8599   -0.0648 C   0  0  0  0  0  0  0  0  0  0  0  0
    0.7298    3.1913    0.5351 H   0  0  0  0  0  0  0  0  0  0  0  0
   -0.8705    3.1953    0.2092 H   0  0  0  0  0  0  0  0  0  0  0  0
    0.2242    3.2289   -1.0695 H   0  0  0  0  0  0  0  0  0  0  0  0
    0.0010    1.3850    0.0012 C   0  0  0  0  0  0  0  0  0  0  0  0
   -1.2164    0.6851   -0.0039 C   0  0  0  0  0  0  0  0  0  0  0  0
   -2.0673    1.1850   -0.0114 H   0  0  0  0  0  0  0  0  0  0  0  0
   -1.2061   -0.6865   -0.0000 C   0  0  0  0  0  0  0  0  0  0  0  0
   -2.0669   -1.2050    0.0101 H   0  0  0  0  0  0  0  0  0  0  0  0
    0.0197   -1.3763   -0.0089 C   0  0  0  0  0  0  0  0  0  0  0  0
    0.0074   -2.3791   -0.0228 H   0  0  0  0  0  0  0  0  0  0  0  0
    1.2061   -0.6860    0.0000 C   0  0  0  0  0  0  0  0  0  0  0  0
    2.0918   -1.1882   -0.0003 H   0  0  0  0  0  0  0  0  0  0  0  0
    1.1958    0.6786    0.0116 C   0  0  0  0  0  0  0  0  0  0  0  0
    2.0628    1.1899    0.0274 H   0  0  0  0  0  0  0  0  0  0  0  0
  1  5  1  0
  5  8  1  0
  1  2  1  0
  1  3  1  0
  1  4  1  0
  5  6  1  0
  5  7  1  0
  8  9  1  0
  8 10  1  0
  8 11  1  0
 12 16  1  0
 16 17  2  0
 17 19  1  0
 19 21  2  0
 21 23  1  0
 23 25  2  0
 25 16  1  0
 12 13  1  0
 12 14  1  0
 12 15  1  0
 17 18  1  0
 19 20  1  0
 21 22  1  0
 23 24  1  0
 25 26  1  0
M  CHG  1   8   1
M  END
>  <PDB_ID>  (791) 
pdb2ph4

>  <RESIDUE_NAME>  (791) 
LYS   PHE

>  <FRAG_NAME>  (791) 
ETAM   MBZ

>  <FRAG_ATOM_NUM>  (791) 
fragi: 11  fragj: 15

>  <atom.prop.CHAIN_ID>  (791) 
A A A A A A A A A A A Z Z Z Z Z Z Z Z Z Z Z Z Z Z Z

>  <atom.prop.IS_HEAVY_ATOM>  (791) 
1 0 0 0 1 0 0 1 0 0 0 1 0 0 0 1 1 0 1 0 1 0 1 0 1 0

>  <DIFUSE_FUNC_ATOM>  (791) 
n/a

>  <FINAL_SINGLE_POINT_ENERGY>  (791) 
0

>  <NONCOV_INTER_ENERGY_QM>  (791) 
0

>  <FF_Energy>  (791) 
-6.76

>  <QM_Energy>  (791) 
-12.72

>  <source>  (791) 
ETAM_MBZ

>  <Index>  (791) 
7752

$$$$
ETAM-pdb2pgs-A-LYS-359:MBZ-pdb2pgs-A-PHE-354
     RDKit          3D

 26 25  0  0  0  0  0  0  0  0999 V2000
   -2.7170    1.7910    3.9918 C   0  0  0  0  0  0  0  0  0  0  0  0
   -3.1627    2.6695    3.9153 H   0  0  0  0  0  0  0  0  0  0  0  0
   -1.7690    1.8416    3.7180 H   0  0  0  0  0  0  0  0  0  0  0  0
   -2.7835    1.4352    5.0199 H   0  0  0  0  0  0  0  0  0  0  0  0
   -3.4276    0.8108    3.0870 C   0  0  0  0  0  0  0  0  0  0  0  0
   -2.9590   -0.0782    3.1333 H   0  0  0  0  0  0  0  0  0  0  0  0
   -4.3732    0.6907    3.4096 H   0  0  0  0  0  0  0  0  0  0  0  0
   -3.4528    1.2730    1.6738 N   0  0  0  0  0  4  0  0  0  0  0  0
   -3.6049    2.2607    1.6499 H   0  0  0  0  0  0  0  0  0  0  0  0
   -2.5786    1.0596    1.2387 H   0  0  0  0  0  0  0  0  0  0  0  0
   -4.1910    0.8089    1.1853 H   0  0  0  0  0  0  0  0  0  0  0  0
   -0.0032    2.8956    0.0524 C   0  0  0  0  0  0  0  0  0  0  0  0
   -0.7275    3.2237   -0.5353 H   0  0  0  0  0  0  0  0  0  0  0  0
    0.8812    3.2172   -0.2520 H   0  0  0  0  0  0  0  0  0  0  0  0
   -0.1770    3.2983    1.0502 H   0  0  0  0  0  0  0  0  0  0  0  0
   -0.0008    1.4011    0.0003 C   0  0  0  0  0  0  0  0  0  0  0  0
   -1.1980    0.6946   -0.0014 C   0  0  0  0  0  0  0  0  0  0  0  0
   -2.0648    1.1852   -0.0049 H   0  0  0  0  0  0  0  0  0  0  0  0
   -1.2049   -0.6981   -0.0000 C   0  0  0  0  0  0  0  0  0  0  0  0
   -2.0798   -1.1914    0.0009 H   0  0  0  0  0  0  0  0  0  0  0  0
    0.0004   -1.3961    0.0017 C   0  0  0  0  0  0  0  0  0  0  0  0
   -0.0028   -2.3931    0.0038 H   0  0  0  0  0  0  0  0  0  0  0  0
    1.2049   -0.6965   -0.0000 C   0  0  0  0  0  0  0  0  0  0  0  0
    2.0846   -1.1936    0.0004 H   0  0  0  0  0  0  0  0  0  0  0  0
    1.1984    0.6951   -0.0006 C   0  0  0  0  0  0  0  0  0  0  0  0
    2.0652    1.1927   -0.0026 H   0  0  0  0  0  0  0  0  0  0  0  0
  1  5  1  0
  5  8  1  0
  1  2  1  0
  1  3  1  0
  1  4  1  0
  5  6  1  0
  5  7  1  0
  8  9  1  0
  8 10  1  0
  8 11  1  0
 12 16  1  0
 16 17  2  0
 17 19  1  0
 19 21  2  0
 21 23  1  0
 23 25  2  0
 25 16  1  0
 12 13  1  0
 12 14  1  0
 12 15  1  0
 17 18  1  0
 19 20  1  0
 21 22  1  0
 23 24  1  0
 25 26  1  0
M  CHG  1   8   1
M  END
>  <PDB_ID>  (792) 
pdb2pgs

>  <RESIDUE_NAME>  (792) 
LYS   PHE

>  <FRAG_NAME>  (792) 
ETAM   MBZ

>  <FRAG_ATOM_NUM>  (792) 
fragi: 11  fragj: 15

>  <atom.prop.CHAIN_ID>  (792) 
A A A A A A A A A A A Z Z Z Z Z Z Z Z Z Z Z Z Z Z Z

>  <atom.prop.IS_HEAVY_ATOM>  (792) 
1 0 0 0 1 0 0 1 0 0 0 1 0 0 0 1 1 0 1 0 1 0 1 0 1 0

>  <DIFUSE_FUNC_ATOM>  (792) 
n/a

>  <FINAL_SINGLE_POINT_ENERGY>  (792) 
0

>  <NONCOV_INTER_ENERGY_QM>  (792) 
0

>  <FF_Energy>  (792) 
8.13

>  <QM_Energy>  (792) 
-1.11

>  <source>  (792) 
ETAM_MBZ

>  <Index>  (792) 
7776

$$$$
ETAM-pdb2pii-A-LYS-34:MBZ-pdb2pii-A-PHE-55
     RDKit          3D

 26 25  0  0  0  0  0  0  0  0999 V2000
   -0.4915    0.4736   -3.5538 C   0  0  0  0  0  0  0  0  0  0  0  0
    0.3133    0.8065   -4.0164 H   0  0  0  0  0  0  0  0  0  0  0  0
   -0.3782    0.4748   -2.5743 H   0  0  0  0  0  0  0  0  0  0  0  0
   -1.3470    1.0933   -3.8224 H   0  0  0  0  0  0  0  0  0  0  0  0
   -0.7270   -0.9952   -4.0038 C   0  0  0  0  0  0  0  0  0  0  0  0
   -1.5868   -1.3160   -3.5780 H   0  0  0  0  0  0  0  0  0  0  0  0
   -0.8656   -0.9941   -5.0058 H   0  0  0  0  0  0  0  0  0  0  0  0
    0.3770   -1.9343   -3.6582 N   0  0  0  0  0  4  0  0  0  0  0  0
    1.2517   -1.5278   -3.9208 H   0  0  0  0  0  0  0  0  0  0  0  0
    0.3694   -2.1064   -2.6737 H   0  0  0  0  0  0  0  0  0  0  0  0
    0.2461   -2.7944   -4.1502 H   0  0  0  0  0  0  0  0  0  0  0  0
   -0.0012    2.8844    0.0168 C   0  0  0  0  0  0  0  0  0  0  0  0
   -0.7441    3.2052   -0.5540 H   0  0  0  0  0  0  0  0  0  0  0  0
    0.8728    3.2008   -0.3256 H   0  0  0  0  0  0  0  0  0  0  0  0
   -0.1403    3.3124    1.0096 H   0  0  0  0  0  0  0  0  0  0  0  0
   -0.0034    1.3990    0.0005 C   0  0  0  0  0  0  0  0  0  0  0  0
   -1.2074    0.6954   -0.0018 C   0  0  0  0  0  0  0  0  0  0  0  0
   -2.0696    1.1904   -0.0063 H   0  0  0  0  0  0  0  0  0  0  0  0
   -1.2151   -0.6936    0.0000 C   0  0  0  0  0  0  0  0  0  0  0  0
   -2.0798   -1.1955    0.0016 H   0  0  0  0  0  0  0  0  0  0  0  0
    0.0099   -1.3968    0.0022 C   0  0  0  0  0  0  0  0  0  0  0  0
    0.0006   -2.3914    0.0044 H   0  0  0  0  0  0  0  0  0  0  0  0
    1.2151   -0.6950   -0.0000 C   0  0  0  0  0  0  0  0  0  0  0  0
    2.0937   -1.1922    0.0001 H   0  0  0  0  0  0  0  0  0  0  0  0
    1.2010    0.6911   -0.0010 C   0  0  0  0  0  0  0  0  0  0  0  0
    2.0646    1.1968   -0.0037 H   0  0  0  0  0  0  0  0  0  0  0  0
  1  5  1  0
  5  8  1  0
  1  2  1  0
  1  3  1  0
  1  4  1  0
  5  6  1  0
  5  7  1  0
  8  9  1  0
  8 10  1  0
  8 11  1  0
 12 16  1  0
 16 17  2  0
 17 19  1  0
 19 21  2  0
 21 23  1  0
 23 25  2  0
 25 16  1  0
 12 13  1  0
 12 14  1  0
 12 15  1  0
 17 18  1  0
 19 20  1  0
 21 22  1  0
 23 24  1  0
 25 26  1  0
M  CHG  1   8   1
M  END
>  <PDB_ID>  (793) 
pdb2pii

>  <RESIDUE_NAME>  (793) 
LYS   PHE

>  <FRAG_NAME>  (793) 
ETAM   MBZ

>  <FRAG_ATOM_NUM>  (793) 
fragi: 11  fragj: 15

>  <atom.prop.CHAIN_ID>  (793) 
A A A A A A A A A A A Z Z Z Z Z Z Z Z Z Z Z Z Z Z Z

>  <atom.prop.IS_HEAVY_ATOM>  (793) 
1 0 0 0 1 0 0 1 0 0 0 1 0 0 0 1 1 0 1 0 1 0 1 0 1 0

>  <DIFUSE_FUNC_ATOM>  (793) 
n/a

>  <FINAL_SINGLE_POINT_ENERGY>  (793) 
0

>  <NONCOV_INTER_ENERGY_QM>  (793) 
0

>  <FF_Energy>  (793) 
-5.42

>  <QM_Energy>  (793) 
-12.25

>  <source>  (793) 
ETAM_MBZ

>  <Index>  (793) 
7780

$$$$
ETAM-pdb1lbq-B-LYS-297:MBZ-pdb1lbq-B-PHE-293
     RDKit          3D

 26 25  0  0  0  0  0  0  0  0999 V2000
    1.0302   -0.4446    4.6101 C   0  0  0  0  0  0  0  0  0  0  0  0
    0.6887    0.3375    5.1227 H   0  0  0  0  0  0  0  0  0  0  0  0
    1.6358   -0.1398    3.8810 H   0  0  0  0  0  0  0  0  0  0  0  0
    1.5838   -1.0980    5.2844 H   0  0  0  0  0  0  0  0  0  0  0  0
   -0.1553   -1.1637    3.9817 C   0  0  0  0  0  0  0  0  0  0  0  0
    0.1831   -1.8194    3.3063 H   0  0  0  0  0  0  0  0  0  0  0  0
   -0.6553   -1.6539    4.6973 H   0  0  0  0  0  0  0  0  0  0  0  0
   -1.0792   -0.2022    3.3107 N   0  0  0  0  0  4  0  0  0  0  0  0
   -1.6480    0.2447    4.0000 H   0  0  0  0  0  0  0  0  0  0  0  0
   -0.5426    0.4840    2.8217 H   0  0  0  0  0  0  0  0  0  0  0  0
   -1.6589   -0.6983    2.6661 H   0  0  0  0  0  0  0  0  0  0  0  0
   -0.0008    2.8993   -0.0166 C   0  0  0  0  0  0  0  0  0  0  0  0
   -0.7071    3.1992   -0.6421 H   0  0  0  0  0  0  0  0  0  0  0  0
    0.8931    3.2026   -0.3167 H   0  0  0  0  0  0  0  0  0  0  0  0
   -0.1992    3.3506    0.9555 H   0  0  0  0  0  0  0  0  0  0  0  0
   -0.0005    1.4020   -0.0006 C   0  0  0  0  0  0  0  0  0  0  0  0
   -1.1952    0.6905    0.0020 C   0  0  0  0  0  0  0  0  0  0  0  0
   -2.0634    1.1785    0.0039 H   0  0  0  0  0  0  0  0  0  0  0  0
   -1.2002   -0.7043   -0.0000 C   0  0  0  0  0  0  0  0  0  0  0  0
   -2.0770   -1.1955    0.0018 H   0  0  0  0  0  0  0  0  0  0  0  0
   -0.0005   -1.3942   -0.0022 C   0  0  0  0  0  0  0  0  0  0  0  0
    0.0023   -2.3931   -0.0062 H   0  0  0  0  0  0  0  0  0  0  0  0
    1.2002   -0.6922    0.0000 C   0  0  0  0  0  0  0  0  0  0  0  0
    2.0828   -1.1903    0.0030 H   0  0  0  0  0  0  0  0  0  0  0  0
    1.1962    0.6982    0.0008 C   0  0  0  0  0  0  0  0  0  0  0  0
    2.0633    1.1944    0.0017 H   0  0  0  0  0  0  0  0  0  0  0  0
  1  5  1  0
  5  8  1  0
  1  2  1  0
  1  3  1  0
  1  4  1  0
  5  6  1  0
  5  7  1  0
  8  9  1  0
  8 10  1  0
  8 11  1  0
 12 16  1  0
 16 17  2  0
 17 19  1  0
 19 21  2  0
 21 23  1  0
 23 25  2  0
 25 16  1  0
 12 13  1  0
 12 14  1  0
 12 15  1  0
 17 18  1  0
 19 20  1  0
 21 22  1  0
 23 24  1  0
 25 26  1  0
M  CHG  1   8   1
M  END
>  <PDB_ID>  (794) 
pdb1lbq

>  <RESIDUE_NAME>  (794) 
LYS   PHE

>  <FRAG_NAME>  (794) 
ETAM   MBZ

>  <FRAG_ATOM_NUM>  (794) 
fragi: 11  fragj: 15

>  <atom.prop.CHAIN_ID>  (794) 
A A A A A A A A A A A Z Z Z Z Z Z Z Z Z Z Z Z Z Z Z

>  <atom.prop.IS_HEAVY_ATOM>  (794) 
1 0 0 0 1 0 0 1 0 0 0 1 0 0 0 1 1 0 1 0 1 0 1 0 1 0

>  <DIFUSE_FUNC_ATOM>  (794) 
n/a

>  <FINAL_SINGLE_POINT_ENERGY>  (794) 
0

>  <NONCOV_INTER_ENERGY_QM>  (794) 
0

>  <FF_Energy>  (794) 
-7.7

>  <QM_Energy>  (794) 
-14.33

>  <source>  (794) 
ETAM_MBZ

>  <Index>  (794) 
7786

$$$$
ETAM-pdb1lbv-A-LYS-210:MBZ-pdb1lbv-A-PHE-206
     RDKit          3D

 26 25  0  0  0  0  0  0  0  0999 V2000
    0.5962   -2.2928    4.5790 C   0  0  0  0  0  0  0  0  0  0  0  0
    1.3928   -2.8405    4.7942 H   0  0  0  0  0  0  0  0  0  0  0  0
   -0.0060   -2.2167    5.3621 H   0  0  0  0  0  0  0  0  0  0  0  0
    0.9250   -1.2948    4.2893 H   0  0  0  0  0  0  0  0  0  0  0  0
   -0.1659   -2.9661    3.4408 C   0  0  0  0  0  0  0  0  0  0  0  0
    0.3289   -2.8119    2.5849 H   0  0  0  0  0  0  0  0  0  0  0  0
   -0.2160   -3.9490    3.6223 H   0  0  0  0  0  0  0  0  0  0  0  0
   -1.5458   -2.4174    3.3166 N   0  0  0  0  0  4  0  0  0  0  0  0
   -1.5029   -1.5031    2.9163 H   0  0  0  0  0  0  0  0  0  0  0  0
   -2.0876   -3.0163    2.7290 H   0  0  0  0  0  0  0  0  0  0  0  0
   -1.9645   -2.3680    4.2227 H   0  0  0  0  0  0  0  0  0  0  0  0
    0.0064    2.9235   -0.0140 C   0  0  0  0  0  0  0  0  0  0  0  0
   -0.6359    3.2186   -0.7012 H   0  0  0  0  0  0  0  0  0  0  0  0
    0.9266    3.2082   -0.2255 H   0  0  0  0  0  0  0  0  0  0  0  0
   -0.2811    3.3685    0.9386 H   0  0  0  0  0  0  0  0  0  0  0  0
   -0.0071    1.3973   -0.0032 C   0  0  0  0  0  0  0  0  0  0  0  0
   -1.1907    0.6790   -0.0008 C   0  0  0  0  0  0  0  0  0  0  0  0
   -2.0659    1.1643   -0.0006 H   0  0  0  0  0  0  0  0  0  0  0  0
   -1.1944   -0.7114   -0.0000 C   0  0  0  0  0  0  0  0  0  0  0  0
   -2.0680   -1.2046    0.0023 H   0  0  0  0  0  0  0  0  0  0  0  0
    0.0053   -1.3874   -0.0012 C   0  0  0  0  0  0  0  0  0  0  0  0
    0.0179   -2.3878   -0.0038 H   0  0  0  0  0  0  0  0  0  0  0  0
    1.1944   -0.6775   -0.0000 C   0  0  0  0  0  0  0  0  0  0  0  0
    2.0836   -1.1785   -0.0017 H   0  0  0  0  0  0  0  0  0  0  0  0
    1.1925    0.7001    0.0052 C   0  0  0  0  0  0  0  0  0  0  0  0
    2.0554    1.2028    0.0147 H   0  0  0  0  0  0  0  0  0  0  0  0
  1  5  1  0
  5  8  1  0
  1  2  1  0
  1  3  1  0
  1  4  1  0
  5  6  1  0
  5  7  1  0
  8  9  1  0
  8 10  1  0
  8 11  1  0
 12 16  1  0
 16 17  2  0
 17 19  1  0
 19 21  2  0
 21 23  1  0
 23 25  2  0
 25 16  1  0
 12 13  1  0
 12 14  1  0
 12 15  1  0
 17 18  1  0
 19 20  1  0
 21 22  1  0
 23 24  1  0
 25 26  1  0
M  CHG  1   8   1
M  END
>  <PDB_ID>  (795) 
pdb1lbv

>  <RESIDUE_NAME>  (795) 
LYS   PHE

>  <FRAG_NAME>  (795) 
ETAM   MBZ

>  <FRAG_ATOM_NUM>  (795) 
fragi: 11  fragj: 15

>  <atom.prop.CHAIN_ID>  (795) 
A A A A A A A A A A A Z Z Z Z Z Z Z Z Z Z Z Z Z Z Z

>  <atom.prop.IS_HEAVY_ATOM>  (795) 
1 0 0 0 1 0 0 1 0 0 0 1 0 0 0 1 1 0 1 0 1 0 1 0 1 0

>  <DIFUSE_FUNC_ATOM>  (795) 
n/a

>  <FINAL_SINGLE_POINT_ENERGY>  (795) 
0

>  <NONCOV_INTER_ENERGY_QM>  (795) 
0

>  <FF_Energy>  (795) 
-3.48

>  <QM_Energy>  (795) 
-8.89

>  <source>  (795) 
ETAM_MBZ

>  <Index>  (795) 
7788

$$$$
ETAM-pdb1l7j-B-LYS-223:MBZ-pdb1l7j-B-PHE-219
     RDKit          3D

 26 25  0  0  0  0  0  0  0  0999 V2000
    1.4572   -0.1929    4.0755 C   0  0  0  0  0  0  0  0  0  0  0  0
    1.7529   -0.1013    5.0376 H   0  0  0  0  0  0  0  0  0  0  0  0
    1.1636    0.7185    3.7537 H   0  0  0  0  0  0  0  0  0  0  0  0
    2.3166   -0.5050    3.4821 H   0  0  0  0  0  0  0  0  0  0  0  0
    0.2468   -1.1277    4.0346 C   0  0  0  0  0  0  0  0  0  0  0  0
    0.3802   -1.7889    3.2856 H   0  0  0  0  0  0  0  0  0  0  0  0
    0.2094   -1.6398    4.9028 H   0  0  0  0  0  0  0  0  0  0  0  0
   -1.0324   -0.4075    3.8333 N   0  0  0  0  0  4  0  0  0  0  0  0
   -1.2945    0.0528    4.6824 H   0  0  0  0  0  0  0  0  0  0  0  0
   -0.9233    0.2722    3.1068 H   0  0  0  0  0  0  0  0  0  0  0  0
   -1.7465   -1.0590    3.5748 H   0  0  0  0  0  0  0  0  0  0  0  0
   -0.0071    2.9222   -0.0644 C   0  0  0  0  0  0  0  0  0  0  0  0
   -0.7274    3.1985   -0.6794 H   0  0  0  0  0  0  0  0  0  0  0  0
    0.8790    3.2154   -0.3856 H   0  0  0  0  0  0  0  0  0  0  0  0
   -0.1890    3.3891    0.9036 H   0  0  0  0  0  0  0  0  0  0  0  0
    0.0001    1.4084   -0.0138 C   0  0  0  0  0  0  0  0  0  0  0  0
   -1.1964    0.7010   -0.0021 C   0  0  0  0  0  0  0  0  0  0  0  0
   -2.0636    1.1892    0.0033 H   0  0  0  0  0  0  0  0  0  0  0  0
   -1.2031   -0.6951    0.0000 C   0  0  0  0  0  0  0  0  0  0  0  0
   -2.0822   -1.1852   -0.0151 H   0  0  0  0  0  0  0  0  0  0  0  0
   -0.0017   -1.4040    0.0240 C   0  0  0  0  0  0  0  0  0  0  0  0
   -0.0097   -2.3966    0.0577 H   0  0  0  0  0  0  0  0  0  0  0  0
    1.2031   -0.7039    0.0000 C   0  0  0  0  0  0  0  0  0  0  0  0
    2.0827   -1.1994   -0.0100 H   0  0  0  0  0  0  0  0  0  0  0  0
    1.1980    0.6936   -0.0082 C   0  0  0  0  0  0  0  0  0  0  0  0
    2.0674    1.1874   -0.0105 H   0  0  0  0  0  0  0  0  0  0  0  0
  1  5  1  0
  5  8  1  0
  1  2  1  0
  1  3  1  0
  1  4  1  0
  5  6  1  0
  5  7  1  0
  8  9  1  0
  8 10  1  0
  8 11  1  0
 12 16  1  0
 16 17  2  0
 17 19  1  0
 19 21  2  0
 21 23  1  0
 23 25  2  0
 25 16  1  0
 12 13  1  0
 12 14  1  0
 12 15  1  0
 17 18  1  0
 19 20  1  0
 21 22  1  0
 23 24  1  0
 25 26  1  0
M  CHG  1   8   1
M  END
>  <PDB_ID>  (796) 
pdb1l7j

>  <RESIDUE_NAME>  (796) 
LYS   PHE

>  <FRAG_NAME>  (796) 
ETAM   MBZ

>  <FRAG_ATOM_NUM>  (796) 
fragi: 11  fragj: 15

>  <atom.prop.CHAIN_ID>  (796) 
A A A A A A A A A A A Z Z Z Z Z Z Z Z Z Z Z Z Z Z Z

>  <atom.prop.IS_HEAVY_ATOM>  (796) 
1 0 0 0 1 0 0 1 0 0 0 1 0 0 0 1 1 0 1 0 1 0 1 0 1 0

>  <DIFUSE_FUNC_ATOM>  (796) 
n/a

>  <FINAL_SINGLE_POINT_ENERGY>  (796) 
0

>  <NONCOV_INTER_ENERGY_QM>  (796) 
0

>  <FF_Energy>  (796) 
-6.42

>  <QM_Energy>  (796) 
-11.44

>  <source>  (796) 
ETAM_MBZ

>  <Index>  (796) 
7802

$$$$
ETAM-pdb2ph4-A-LYS-122:MBZ-pdb2ph4-A-PHE-119
     RDKit          3D

 26 25  0  0  0  0  0  0  0  0999 V2000
    2.8478    3.0263    2.3451 C   0  0  0  0  0  0  0  0  0  0  0  0
    2.5961    2.8580    1.3840 H   0  0  0  0  0  0  0  0  0  0  0  0
    3.8372    3.2151    2.3841 H   0  0  0  0  0  0  0  0  0  0  0  0
    2.3374    3.9395    2.6512 H   0  0  0  0  0  0  0  0  0  0  0  0
    2.5493    1.7627    3.1673 C   0  0  0  0  0  0  0  0  0  0  0  0
    3.0076    1.8222    4.0326 H   0  0  0  0  0  0  0  0  0  0  0  0
    1.5781    1.6565    3.2600 H   0  0  0  0  0  0  0  0  0  0  0  0
    3.1032    0.5686    2.3985 N   0  0  0  0  0  4  0  0  0  0  0  0
    3.7596    0.9024    1.7316 H   0  0  0  0  0  0  0  0  0  0  0  0
    3.5442   -0.0438    3.0453 H   0  0  0  0  0  0  0  0  0  0  0  0
    2.3477    0.1098    1.9447 H   0  0  0  0  0  0  0  0  0  0  0  0
    0.0107    2.8836   -0.0426 C   0  0  0  0  0  0  0  0  0  0  0  0
    0.8822    3.2097    0.2812 H   0  0  0  0  0  0  0  0  0  0  0  0
   -0.7357    3.2174    0.5073 H   0  0  0  0  0  0  0  0  0  0  0  0
   -0.1285    3.2686   -1.0528 H   0  0  0  0  0  0  0  0  0  0  0  0
    0.0107    1.3970    0.0100 C   0  0  0  0  0  0  0  0  0  0  0  0
   -1.1833    0.6943   -0.0134 C   0  0  0  0  0  0  0  0  0  0  0  0
   -2.0511    1.1872   -0.0411 H   0  0  0  0  0  0  0  0  0  0  0  0
   -1.1979   -0.6971   -0.0000 C   0  0  0  0  0  0  0  0  0  0  0  0
   -2.0890   -1.1748    0.0044 H   0  0  0  0  0  0  0  0  0  0  0  0
   -0.0267   -1.3862    0.0085 C   0  0  0  0  0  0  0  0  0  0  0  0
   -0.0239   -2.3924    0.0211 H   0  0  0  0  0  0  0  0  0  0  0  0
    1.1979   -0.7064   -0.0000 C   0  0  0  0  0  0  0  0  0  0  0  0
    2.0647   -1.2078   -0.0008 H   0  0  0  0  0  0  0  0  0  0  0  0
    1.1993    0.6984   -0.0051 C   0  0  0  0  0  0  0  0  0  0  0  0
    2.0711    1.1822   -0.0207 H   0  0  0  0  0  0  0  0  0  0  0  0
  1  5  1  0
  5  8  1  0
  1  2  1  0
  1  3  1  0
  1  4  1  0
  5  6  1  0
  5  7  1  0
  8  9  1  0
  8 10  1  0
  8 11  1  0
 12 16  1  0
 16 17  2  0
 17 19  1  0
 19 21  2  0
 21 23  1  0
 23 25  2  0
 25 16  1  0
 12 13  1  0
 12 14  1  0
 12 15  1  0
 17 18  1  0
 19 20  1  0
 21 22  1  0
 23 24  1  0
 25 26  1  0
M  CHG  1   8   1
M  END
>  <PDB_ID>  (797) 
pdb2ph4

>  <RESIDUE_NAME>  (797) 
LYS   PHE

>  <FRAG_NAME>  (797) 
ETAM   MBZ

>  <FRAG_ATOM_NUM>  (797) 
fragi: 11  fragj: 15

>  <atom.prop.CHAIN_ID>  (797) 
A A A A A A A A A A A Z Z Z Z Z Z Z Z Z Z Z Z Z Z Z

>  <atom.prop.IS_HEAVY_ATOM>  (797) 
1 0 0 0 1 0 0 1 0 0 0 1 0 0 0 1 1 0 1 0 1 0 1 0 1 0

>  <DIFUSE_FUNC_ATOM>  (797) 
n/a

>  <FINAL_SINGLE_POINT_ENERGY>  (797) 
0

>  <NONCOV_INTER_ENERGY_QM>  (797) 
0

>  <FF_Energy>  (797) 
-2.3

>  <QM_Energy>  (797) 
-9.77

>  <source>  (797) 
ETAM_MBZ

>  <Index>  (797) 
7811

$$$$
ETAM-pdb2pm6-B-LYS-249:MBZ-pdb2pm6-B-PHE-253
     RDKit          3D

 26 25  0  0  0  0  0  0  0  0999 V2000
   -0.1836   -1.4874    3.8445 C   0  0  0  0  0  0  0  0  0  0  0  0
    0.2399   -1.6627    4.7267 H   0  0  0  0  0  0  0  0  0  0  0  0
    0.1314   -2.1475    3.1708 H   0  0  0  0  0  0  0  0  0  0  0  0
   -1.2647   -1.5789    3.9491 H   0  0  0  0  0  0  0  0  0  0  0  0
    0.2149   -0.0950    3.3828 C   0  0  0  0  0  0  0  0  0  0  0  0
   -0.2779    0.1196    2.5355 H   0  0  0  0  0  0  0  0  0  0  0  0
   -0.0479    0.5690    4.0881 H   0  0  0  0  0  0  0  0  0  0  0  0
    1.6784    0.0061    3.1366 N   0  0  0  0  0  4  0  0  0  0  0  0
    2.1692   -0.5223    3.8297 H   0  0  0  0  0  0  0  0  0  0  0  0
    1.8879   -0.3570    2.2291 H   0  0  0  0  0  0  0  0  0  0  0  0
    1.9577    0.9649    3.1867 H   0  0  0  0  0  0  0  0  0  0  0  0
    0.0065    2.9197   -0.0492 C   0  0  0  0  0  0  0  0  0  0  0  0
   -0.8441    3.2131   -0.4620 H   0  0  0  0  0  0  0  0  0  0  0  0
    0.7843    3.2033   -0.5913 H   0  0  0  0  0  0  0  0  0  0  0  0
    0.0875    3.4025    0.9247 H   0  0  0  0  0  0  0  0  0  0  0  0
    0.0011    1.4070   -0.0007 C   0  0  0  0  0  0  0  0  0  0  0  0
   -1.1963    0.6972    0.0014 C   0  0  0  0  0  0  0  0  0  0  0  0
   -2.0628    1.1862    0.0024 H   0  0  0  0  0  0  0  0  0  0  0  0
   -1.2013   -0.6974   -0.0000 C   0  0  0  0  0  0  0  0  0  0  0  0
   -2.0800   -1.1884    0.0010 H   0  0  0  0  0  0  0  0  0  0  0  0
   -0.0017   -1.3976   -0.0016 C   0  0  0  0  0  0  0  0  0  0  0  0
   -0.0086   -2.3955   -0.0047 H   0  0  0  0  0  0  0  0  0  0  0  0
    1.2013   -0.7037   -0.0000 C   0  0  0  0  0  0  0  0  0  0  0  0
    2.0816   -1.1985    0.0023 H   0  0  0  0  0  0  0  0  0  0  0  0
    1.1969    0.6944    0.0009 C   0  0  0  0  0  0  0  0  0  0  0  0
    2.0673    1.1870    0.0020 H   0  0  0  0  0  0  0  0  0  0  0  0
  1  5  1  0
  5  8  1  0
  1  2  1  0
  1  3  1  0
  1  4  1  0
  5  6  1  0
  5  7  1  0
  8  9  1  0
  8 10  1  0
  8 11  1  0
 12 16  1  0
 16 17  2  0
 17 19  1  0
 19 21  2  0
 21 23  1  0
 23 25  2  0
 25 16  1  0
 12 13  1  0
 12 14  1  0
 12 15  1  0
 17 18  1  0
 19 20  1  0
 21 22  1  0
 23 24  1  0
 25 26  1  0
M  CHG  1   8   1
M  END
>  <PDB_ID>  (798) 
pdb2pm6

>  <RESIDUE_NAME>  (798) 
LYS   PHE

>  <FRAG_NAME>  (798) 
ETAM   MBZ

>  <FRAG_ATOM_NUM>  (798) 
fragi: 11  fragj: 15

>  <atom.prop.CHAIN_ID>  (798) 
A A A A A A A A A A A Z Z Z Z Z Z Z Z Z Z Z Z Z Z Z

>  <atom.prop.IS_HEAVY_ATOM>  (798) 
1 0 0 0 1 0 0 1 0 0 0 1 0 0 0 1 1 0 1 0 1 0 1 0 1 0

>  <DIFUSE_FUNC_ATOM>  (798) 
n/a

>  <FINAL_SINGLE_POINT_ENERGY>  (798) 
0

>  <NONCOV_INTER_ENERGY_QM>  (798) 
0

>  <FF_Energy>  (798) 
-6.77

>  <QM_Energy>  (798) 
-15.27

>  <source>  (798) 
ETAM_MBZ

>  <Index>  (798) 
7853

$$$$
ETAM-pdb2pm6-C-LYS-702:MBZ-pdb2pm6-C-PHE-652
     RDKit          3D

 26 25  0  0  0  0  0  0  0  0999 V2000
    0.2076   -0.9174   -4.1662 C   0  0  0  0  0  0  0  0  0  0  0  0
   -0.0775   -0.1440   -4.7080 H   0  0  0  0  0  0  0  0  0  0  0  0
   -0.5149   -1.2377   -3.5766 H   0  0  0  0  0  0  0  0  0  0  0  0
    0.5255   -1.7253   -4.8253 H   0  0  0  0  0  0  0  0  0  0  0  0
    1.3839   -0.4949   -3.3032 C   0  0  0  0  0  0  0  0  0  0  0  0
    1.4206   -1.0846   -2.4913 H   0  0  0  0  0  0  0  0  0  0  0  0
    2.2325   -0.6152   -3.8272 H   0  0  0  0  0  0  0  0  0  0  0  0
    1.2750    0.9239   -2.8707 N   0  0  0  0  0  4  0  0  0  0  0  0
    1.8881    1.4877   -3.4232 H   0  0  0  0  0  0  0  0  0  0  0  0
    0.3328    1.2367   -2.9921 H   0  0  0  0  0  0  0  0  0  0  0  0
    1.5311    0.9973   -1.9068 H   0  0  0  0  0  0  0  0  0  0  0  0
   -0.0003    2.9092   -0.0196 C   0  0  0  0  0  0  0  0  0  0  0  0
   -0.7114    3.2070   -0.6384 H   0  0  0  0  0  0  0  0  0  0  0  0
    0.8910    3.2119   -0.3221 H   0  0  0  0  0  0  0  0  0  0  0  0
   -0.1932    3.3636    0.9521 H   0  0  0  0  0  0  0  0  0  0  0  0
    0.0004    1.4053   -0.0009 C   0  0  0  0  0  0  0  0  0  0  0  0
   -1.1958    0.6981    0.0010 C   0  0  0  0  0  0  0  0  0  0  0  0
   -2.0635    1.1871    0.0017 H   0  0  0  0  0  0  0  0  0  0  0  0
   -1.2021   -0.6967    0.0000 C   0  0  0  0  0  0  0  0  0  0  0  0
   -2.0811   -1.1870    0.0014 H   0  0  0  0  0  0  0  0  0  0  0  0
   -0.0034   -1.3976   -0.0010 C   0  0  0  0  0  0  0  0  0  0  0  0
   -0.0093   -2.3959   -0.0030 H   0  0  0  0  0  0  0  0  0  0  0  0
    1.2021   -0.7030   -0.0000 C   0  0  0  0  0  0  0  0  0  0  0  0
    2.0814   -1.2001    0.0011 H   0  0  0  0  0  0  0  0  0  0  0  0
    1.1989    0.6939    0.0009 C   0  0  0  0  0  0  0  0  0  0  0  0
    2.0667    1.1872    0.0017 H   0  0  0  0  0  0  0  0  0  0  0  0
  1  5  1  0
  5  8  1  0
  1  2  1  0
  1  3  1  0
  1  4  1  0
  5  6  1  0
  5  7  1  0
  8  9  1  0
  8 10  1  0
  8 11  1  0
 12 16  1  0
 16 17  2  0
 17 19  1  0
 19 21  2  0
 21 23  1  0
 23 25  2  0
 25 16  1  0
 12 13  1  0
 12 14  1  0
 12 15  1  0
 17 18  1  0
 19 20  1  0
 21 22  1  0
 23 24  1  0
 25 26  1  0
M  CHG  1   8   1
M  END
>  <PDB_ID>  (799) 
pdb2pm6

>  <RESIDUE_NAME>  (799) 
LYS   PHE

>  <FRAG_NAME>  (799) 
ETAM   MBZ

>  <FRAG_ATOM_NUM>  (799) 
fragi: 11  fragj: 15

>  <atom.prop.CHAIN_ID>  (799) 
A A A A A A A A A A A Z Z Z Z Z Z Z Z Z Z Z Z Z Z Z

>  <atom.prop.IS_HEAVY_ATOM>  (799) 
1 0 0 0 1 0 0 1 0 0 0 1 0 0 0 1 1 0 1 0 1 0 1 0 1 0

>  <DIFUSE_FUNC_ATOM>  (799) 
n/a

>  <FINAL_SINGLE_POINT_ENERGY>  (799) 
0

>  <NONCOV_INTER_ENERGY_QM>  (799) 
0

>  <FF_Energy>  (799) 
-4.86

>  <QM_Energy>  (799) 
-13.19

>  <source>  (799) 
ETAM_MBZ

>  <Index>  (799) 
7855

$$$$
ETAM-pdb1l0l-G-LYS-70:MBZ-pdb1l0l-G-PHE-66
     RDKit          3D

 26 25  0  0  0  0  0  0  0  0999 V2000
   -2.9965   -2.7326    3.7390 C   0  0  0  0  0  0  0  0  0  0  0  0
   -2.0204   -2.6328    3.5778 H   0  0  0  0  0  0  0  0  0  0  0  0
   -3.2238   -3.6826    3.9226 H   0  0  0  0  0  0  0  0  0  0  0  0
   -3.2633   -2.1382    4.6128 H   0  0  0  0  0  0  0  0  0  0  0  0
   -3.7489   -2.2785    2.4990 C   0  0  0  0  0  0  0  0  0  0  0  0
   -4.7344   -2.4107    2.6429 H   0  0  0  0  0  0  0  0  0  0  0  0
   -3.5746   -1.3016    2.3447 H   0  0  0  0  0  0  0  0  0  0  0  0
   -3.3390   -3.0398    1.2580 N   0  0  0  0  0  4  0  0  0  0  0  0
   -3.4864   -4.0114    1.4162 H   0  0  0  0  0  0  0  0  0  0  0  0
   -3.8953   -2.7281    0.4939 H   0  0  0  0  0  0  0  0  0  0  0  0
   -2.3761   -2.8615    1.0778 H   0  0  0  0  0  0  0  0  0  0  0  0
    0.0064    2.9032   -0.0078 C   0  0  0  0  0  0  0  0  0  0  0  0
   -0.5209    3.2117   -0.7857 H   0  0  0  0  0  0  0  0  0  0  0  0
    0.9449    3.2104   -0.0649 H   0  0  0  0  0  0  0  0  0  0  0  0
   -0.4309    3.3550    0.8826 H   0  0  0  0  0  0  0  0  0  0  0  0
    0.0010    1.4026    0.0004 C   0  0  0  0  0  0  0  0  0  0  0  0
   -1.1988    0.6958   -0.0011 C   0  0  0  0  0  0  0  0  0  0  0  0
   -2.0638    1.1862   -0.0040 H   0  0  0  0  0  0  0  0  0  0  0  0
   -1.2044   -0.6989    0.0000 C   0  0  0  0  0  0  0  0  0  0  0  0
   -2.0816   -1.1894   -0.0011 H   0  0  0  0  0  0  0  0  0  0  0  0
   -0.0043   -1.3940    0.0046 C   0  0  0  0  0  0  0  0  0  0  0  0
   -0.0044   -2.3927    0.0112 H   0  0  0  0  0  0  0  0  0  0  0  0
    1.2044   -0.6963   -0.0000 C   0  0  0  0  0  0  0  0  0  0  0  0
    2.0810   -1.1998    0.0012 H   0  0  0  0  0  0  0  0  0  0  0  0
    1.2021    0.6907   -0.0039 C   0  0  0  0  0  0  0  0  0  0  0  0
    2.0683    1.1893   -0.0106 H   0  0  0  0  0  0  0  0  0  0  0  0
  1  5  1  0
  5  8  1  0
  1  2  1  0
  1  3  1  0
  1  4  1  0
  5  6  1  0
  5  7  1  0
  8  9  1  0
  8 10  1  0
  8 11  1  0
 12 16  1  0
 16 17  2  0
 17 19  1  0
 19 21  2  0
 21 23  1  0
 23 25  2  0
 25 16  1  0
 12 13  1  0
 12 14  1  0
 12 15  1  0
 17 18  1  0
 19 20  1  0
 21 22  1  0
 23 24  1  0
 25 26  1  0
M  CHG  1   8   1
M  END
>  <PDB_ID>  (800) 
pdb1l0l

>  <RESIDUE_NAME>  (800) 
LYS   PHE

>  <FRAG_NAME>  (800) 
ETAM   MBZ

>  <FRAG_ATOM_NUM>  (800) 
fragi: 11  fragj: 15

>  <atom.prop.CHAIN_ID>  (800) 
A A A A A A A A A A A Z Z Z Z Z Z Z Z Z Z Z Z Z Z Z

>  <atom.prop.IS_HEAVY_ATOM>  (800) 
1 0 0 0 1 0 0 1 0 0 0 1 0 0 0 1 1 0 1 0 1 0 1 0 1 0

>  <DIFUSE_FUNC_ATOM>  (800) 
n/a

>  <FINAL_SINGLE_POINT_ENERGY>  (800) 
0

>  <NONCOV_INTER_ENERGY_QM>  (800) 
0

>  <FF_Energy>  (800) 
1.07

>  <QM_Energy>  (800) 
-4.88

>  <source>  (800) 
ETAM_MBZ

>  <Index>  (800) 
7869

$$$$
ETAM-pdb2pnq-A-LYS-123:MBZ-pdb2pnq-A-PHE-129
     RDKit          3D

 26 25  0  0  0  0  0  0  0  0999 V2000
    3.3706   -0.8731   -3.4798 C   0  0  0  0  0  0  0  0  0  0  0  0
    3.3708    0.0192   -3.9223 H   0  0  0  0  0  0  0  0  0  0  0  0
    2.4561   -1.0940   -3.1524 H   0  0  0  0  0  0  0  0  0  0  0  0
    3.6607   -1.6213   -4.2175 H   0  0  0  0  0  0  0  0  0  0  0  0
    4.3218   -0.8293   -2.2859 C   0  0  0  0  0  0  0  0  0  0  0  0
    5.2677   -0.7445   -2.6258 H   0  0  0  0  0  0  0  0  0  0  0  0
    4.1149   -0.0102   -1.7333 H   0  0  0  0  0  0  0  0  0  0  0  0
    4.2363   -2.0425   -1.3987 N   0  0  0  0  0  4  0  0  0  0  0  0
    3.3846   -2.0049   -0.8820 H   0  0  0  0  0  0  0  0  0  0  0  0
    4.2541   -2.8608   -1.9675 H   0  0  0  0  0  0  0  0  0  0  0  0
    5.0148   -2.0428   -0.7762 H   0  0  0  0  0  0  0  0  0  0  0  0
    0.0099    2.9110   -0.0339 C   0  0  0  0  0  0  0  0  0  0  0  0
    0.9312    3.2202    0.1527 H   0  0  0  0  0  0  0  0  0  0  0  0
   -0.6229    3.2394    0.6539 H   0  0  0  0  0  0  0  0  0  0  0  0
   -0.2930    3.3391   -0.9895 H   0  0  0  0  0  0  0  0  0  0  0  0
    0.0026    1.4117   -0.0004 C   0  0  0  0  0  0  0  0  0  0  0  0
   -1.2066    0.6977    0.0012 C   0  0  0  0  0  0  0  0  0  0  0  0
   -2.0696    1.1853    0.0022 H   0  0  0  0  0  0  0  0  0  0  0  0
   -1.2150   -0.7110   -0.0000 C   0  0  0  0  0  0  0  0  0  0  0  0
   -2.0875   -1.1980    0.0018 H   0  0  0  0  0  0  0  0  0  0  0  0
   -0.0048   -1.4038   -0.0021 C   0  0  0  0  0  0  0  0  0  0  0  0
    0.0003   -2.4002   -0.0054 H   0  0  0  0  0  0  0  0  0  0  0  0
    1.2150   -0.6987   -0.0000 C   0  0  0  0  0  0  0  0  0  0  0  0
    2.0883   -1.1965    0.0020 H   0  0  0  0  0  0  0  0  0  0  0  0
    1.2088    0.7040    0.0013 C   0  0  0  0  0  0  0  0  0  0  0  0
    2.0731    1.1985    0.0026 H   0  0  0  0  0  0  0  0  0  0  0  0
  1  5  1  0
  5  8  1  0
  1  2  1  0
  1  3  1  0
  1  4  1  0
  5  6  1  0
  5  7  1  0
  8  9  1  0
  8 10  1  0
  8 11  1  0
 12 16  1  0
 16 17  2  0
 17 19  1  0
 19 21  2  0
 21 23  1  0
 23 25  2  0
 25 16  1  0
 12 13  1  0
 12 14  1  0
 12 15  1  0
 17 18  1  0
 19 20  1  0
 21 22  1  0
 23 24  1  0
 25 26  1  0
M  CHG  1   8   1
M  END
>  <PDB_ID>  (801) 
pdb2pnq

>  <RESIDUE_NAME>  (801) 
LYS   PHE

>  <FRAG_NAME>  (801) 
ETAM   MBZ

>  <FRAG_ATOM_NUM>  (801) 
fragi: 11  fragj: 15

>  <atom.prop.CHAIN_ID>  (801) 
A A A A A A A A A A A Z Z Z Z Z Z Z Z Z Z Z Z Z Z Z

>  <atom.prop.IS_HEAVY_ATOM>  (801) 
1 0 0 0 1 0 0 1 0 0 0 1 0 0 0 1 1 0 1 0 1 0 1 0 1 0

>  <DIFUSE_FUNC_ATOM>  (801) 
n/a

>  <FINAL_SINGLE_POINT_ENERGY>  (801) 
0

>  <NONCOV_INTER_ENERGY_QM>  (801) 
0

>  <FF_Energy>  (801) 
0.57

>  <QM_Energy>  (801) 
-4.46

>  <source>  (801) 
ETAM_MBZ

>  <Index>  (801) 
7875

$$$$
ETAM-pdb2pnq-B-LYS-123:MBZ-pdb2pnq-B-PHE-129
     RDKit          3D

 26 25  0  0  0  0  0  0  0  0999 V2000
    3.0565   -1.0802   -3.5775 C   0  0  0  0  0  0  0  0  0  0  0  0
    3.2440   -0.2151   -4.0405 H   0  0  0  0  0  0  0  0  0  0  0  0
    2.1117   -1.0905   -3.2527 H   0  0  0  0  0  0  0  0  0  0  0  0
    3.1803   -1.8879   -4.2988 H   0  0  0  0  0  0  0  0  0  0  0  0
    3.9888   -1.1986   -2.3672 C   0  0  0  0  0  0  0  0  0  0  0  0
    4.9199   -1.4015   -2.6942 H   0  0  0  0  0  0  0  0  0  0  0  0
    4.0097   -0.3130   -1.8866 H   0  0  0  0  0  0  0  0  0  0  0  0
    3.5743   -2.2690   -1.3929 N   0  0  0  0  0  4  0  0  0  0  0  0
    2.6492   -2.0762   -1.0748 H   0  0  0  0  0  0  0  0  0  0  0  0
    3.5992   -3.1524   -1.8532 H   0  0  0  0  0  0  0  0  0  0  0  0
    4.2075   -2.2675   -0.6224 H   0  0  0  0  0  0  0  0  0  0  0  0
   -0.0001    2.9257   -0.0022 C   0  0  0  0  0  0  0  0  0  0  0  0
    0.9185    3.2307    0.2006 H   0  0  0  0  0  0  0  0  0  0  0  0
   -0.6399    3.2322    0.6875 H   0  0  0  0  0  0  0  0  0  0  0  0
   -0.2962    3.3729   -0.9511 H   0  0  0  0  0  0  0  0  0  0  0  0
   -0.0005    1.4162   -0.0001 C   0  0  0  0  0  0  0  0  0  0  0  0
   -1.2086    0.6989   -0.0004 C   0  0  0  0  0  0  0  0  0  0  0  0
   -2.0731    1.1832   -0.0022 H   0  0  0  0  0  0  0  0  0  0  0  0
   -1.2150   -0.7151   -0.0000 C   0  0  0  0  0  0  0  0  0  0  0  0
   -2.0841   -1.2037    0.0012 H   0  0  0  0  0  0  0  0  0  0  0  0
    0.0041   -1.4123    0.0001 C   0  0  0  0  0  0  0  0  0  0  0  0
    0.0089   -2.4038    0.0000 H   0  0  0  0  0  0  0  0  0  0  0  0
    1.2150   -0.6963    0.0000 C   0  0  0  0  0  0  0  0  0  0  0  0
    2.0951   -1.1885    0.0015 H   0  0  0  0  0  0  0  0  0  0  0  0
    1.2050    0.7086    0.0004 C   0  0  0  0  0  0  0  0  0  0  0  0
    2.0699    1.2040   -0.0001 H   0  0  0  0  0  0  0  0  0  0  0  0
  1  5  1  0
  5  8  1  0
  1  2  1  0
  1  3  1  0
  1  4  1  0
  5  6  1  0
  5  7  1  0
  8  9  1  0
  8 10  1  0
  8 11  1  0
 12 16  1  0
 16 17  2  0
 17 19  1  0
 19 21  2  0
 21 23  1  0
 23 25  2  0
 25 16  1  0
 12 13  1  0
 12 14  1  0
 12 15  1  0
 17 18  1  0
 19 20  1  0
 21 22  1  0
 23 24  1  0
 25 26  1  0
M  CHG  1   8   1
M  END
>  <PDB_ID>  (802) 
pdb2pnq

>  <RESIDUE_NAME>  (802) 
LYS   PHE

>  <FRAG_NAME>  (802) 
ETAM   MBZ

>  <FRAG_ATOM_NUM>  (802) 
fragi: 11  fragj: 15

>  <atom.prop.CHAIN_ID>  (802) 
A A A A A A A A A A A Z Z Z Z Z Z Z Z Z Z Z Z Z Z Z

>  <atom.prop.IS_HEAVY_ATOM>  (802) 
1 0 0 0 1 0 0 1 0 0 0 1 0 0 0 1 1 0 1 0 1 0 1 0 1 0

>  <DIFUSE_FUNC_ATOM>  (802) 
n/a

>  <FINAL_SINGLE_POINT_ENERGY>  (802) 
0

>  <NONCOV_INTER_ENERGY_QM>  (802) 
0

>  <FF_Energy>  (802) 
4.06

>  <QM_Energy>  (802) 
-3.33

>  <source>  (802) 
ETAM_MBZ

>  <Index>  (802) 
7876

$$$$
ETAM-pdb1k9a-C-LYS-222:MBZ-pdb1k9a-C-PHE-233
     RDKit          3D

 26 25  0  0  0  0  0  0  0  0999 V2000
    1.2032    0.9308   -3.9387 C   0  0  0  0  0  0  0  0  0  0  0  0
    1.3645    1.2406   -3.0102 H   0  0  0  0  0  0  0  0  0  0  0  0
    1.0041    1.6964   -4.5368 H   0  0  0  0  0  0  0  0  0  0  0  0
    2.0906    0.4129   -4.3024 H   0  0  0  0  0  0  0  0  0  0  0  0
   -0.0051   -0.0028   -3.9318 C   0  0  0  0  0  0  0  0  0  0  0  0
   -0.7817    0.4772   -3.5066 H   0  0  0  0  0  0  0  0  0  0  0  0
   -0.2519   -0.2204   -4.8840 H   0  0  0  0  0  0  0  0  0  0  0  0
    0.2452   -1.2758   -3.1907 N   0  0  0  0  0  4  0  0  0  0  0  0
    1.0914   -1.1905   -2.6679 H   0  0  0  0  0  0  0  0  0  0  0  0
   -0.5178   -1.4503   -2.5705 H   0  0  0  0  0  0  0  0  0  0  0  0
    0.3266   -2.0267   -3.8446 H   0  0  0  0  0  0  0  0  0  0  0  0
    0.0074    2.9070    0.0878 C   0  0  0  0  0  0  0  0  0  0  0  0
   -0.8233    3.2429   -0.3258 H   0  0  0  0  0  0  0  0  0  0  0  0
    0.8093    3.2366   -0.3842 H   0  0  0  0  0  0  0  0  0  0  0  0
    0.0456    3.2773    1.1122 H   0  0  0  0  0  0  0  0  0  0  0  0
   -0.0019    1.4089    0.0012 C   0  0  0  0  0  0  0  0  0  0  0  0
   -1.1955    0.7029   -0.0011 C   0  0  0  0  0  0  0  0  0  0  0  0
   -2.0644    1.1901   -0.0044 H   0  0  0  0  0  0  0  0  0  0  0  0
   -1.2028   -0.6939    0.0000 C   0  0  0  0  0  0  0  0  0  0  0  0
   -2.0804   -1.1845    0.0007 H   0  0  0  0  0  0  0  0  0  0  0  0
    0.0009   -1.4035    0.0020 C   0  0  0  0  0  0  0  0  0  0  0  0
   -0.0112   -2.3987    0.0044 H   0  0  0  0  0  0  0  0  0  0  0  0
    1.2028   -0.7093    0.0000 C   0  0  0  0  0  0  0  0  0  0  0  0
    2.0840   -1.1997    0.0015 H   0  0  0  0  0  0  0  0  0  0  0  0
    1.1964    0.6949   -0.0021 C   0  0  0  0  0  0  0  0  0  0  0  0
    2.0663    1.1862   -0.0066 H   0  0  0  0  0  0  0  0  0  0  0  0
  1  5  1  0
  5  8  1  0
  1  2  1  0
  1  3  1  0
  1  4  1  0
  5  6  1  0
  5  7  1  0
  8  9  1  0
  8 10  1  0
  8 11  1  0
 12 16  1  0
 16 17  2  0
 17 19  1  0
 19 21  2  0
 21 23  1  0
 23 25  2  0
 25 16  1  0
 12 13  1  0
 12 14  1  0
 12 15  1  0
 17 18  1  0
 19 20  1  0
 21 22  1  0
 23 24  1  0
 25 26  1  0
M  CHG  1   8   1
M  END
>  <PDB_ID>  (803) 
pdb1k9a

>  <RESIDUE_NAME>  (803) 
LYS   PHE

>  <FRAG_NAME>  (803) 
ETAM   MBZ

>  <FRAG_ATOM_NUM>  (803) 
fragi: 11  fragj: 15

>  <atom.prop.CHAIN_ID>  (803) 
A A A A A A A A A A A Z Z Z Z Z Z Z Z Z Z Z Z Z Z Z

>  <atom.prop.IS_HEAVY_ATOM>  (803) 
1 0 0 0 1 0 0 1 0 0 0 1 0 0 0 1 1 0 1 0 1 0 1 0 1 0

>  <DIFUSE_FUNC_ATOM>  (803) 
n/a

>  <FINAL_SINGLE_POINT_ENERGY>  (803) 
0

>  <NONCOV_INTER_ENERGY_QM>  (803) 
0

>  <FF_Energy>  (803) 
-7.73

>  <QM_Energy>  (803) 
-15.29

>  <source>  (803) 
ETAM_MBZ

>  <Index>  (803) 
7878

$$$$
ETAM-pdb1ldn-C-LYS-69:MBZ-pdb1ldn-B-PHE-172
     RDKit          3D

 26 25  0  0  0  0  0  0  0  0999 V2000
   -3.6332    0.5747   -3.3635 C   0  0  0  0  0  0  0  0  0  0  0  0
   -4.1424    0.0506   -4.0467 H   0  0  0  0  0  0  0  0  0  0  0  0
   -2.7556    0.1282   -3.1876 H   0  0  0  0  0  0  0  0  0  0  0  0
   -3.4474    1.5747   -3.7555 H   0  0  0  0  0  0  0  0  0  0  0  0
   -4.4337    0.5885   -2.0712 C   0  0  0  0  0  0  0  0  0  0  0  0
   -4.4456    1.5190   -1.7048 H   0  0  0  0  0  0  0  0  0  0  0  0
   -5.3711    0.2958   -2.2643 H   0  0  0  0  0  0  0  0  0  0  0  0
   -3.8353   -0.3286   -1.0563 N   0  0  0  0  0  4  0  0  0  0  0  0
   -3.6850   -1.2251   -1.4710 H   0  0  0  0  0  0  0  0  0  0  0  0
   -2.9643    0.0483   -0.7450 H   0  0  0  0  0  0  0  0  0  0  0  0
   -4.4607   -0.4159   -0.2819 H   0  0  0  0  0  0  0  0  0  0  0  0
    0.0332    2.8927    0.0019 C   0  0  0  0  0  0  0  0  0  0  0  0
   -0.6723    3.2158   -0.6148 H   0  0  0  0  0  0  0  0  0  0  0  0
    0.9318    3.1765   -0.3067 H   0  0  0  0  0  0  0  0  0  0  0  0
   -0.1447    3.3339    0.9826 H   0  0  0  0  0  0  0  0  0  0  0  0
   -0.0017    1.3919   -0.0068 C   0  0  0  0  0  0  0  0  0  0  0  0
   -1.2186    0.7034    0.0125 C   0  0  0  0  0  0  0  0  0  0  0  0
   -2.0700    1.1948    0.0335 H   0  0  0  0  0  0  0  0  0  0  0  0
   -1.2146   -0.6909    0.0000 C   0  0  0  0  0  0  0  0  0  0  0  0
   -2.0774   -1.1982   -0.0031 H   0  0  0  0  0  0  0  0  0  0  0  0
    0.0172   -1.3950   -0.0071 C   0  0  0  0  0  0  0  0  0  0  0  0
    0.0010   -2.3914   -0.0176 H   0  0  0  0  0  0  0  0  0  0  0  0
    1.2146   -0.6993   -0.0000 C   0  0  0  0  0  0  0  0  0  0  0  0
    2.0967   -1.1931    0.0062 H   0  0  0  0  0  0  0  0  0  0  0  0
    1.2032    0.6900    0.0015 C   0  0  0  0  0  0  0  0  0  0  0  0
    2.0660    1.1928    0.0076 H   0  0  0  0  0  0  0  0  0  0  0  0
  1  5  1  0
  5  8  1  0
  1  2  1  0
  1  3  1  0
  1  4  1  0
  5  6  1  0
  5  7  1  0
  8  9  1  0
  8 10  1  0
  8 11  1  0
 12 16  1  0
 16 17  2  0
 17 19  1  0
 19 21  2  0
 21 23  1  0
 23 25  2  0
 25 16  1  0
 12 13  1  0
 12 14  1  0
 12 15  1  0
 17 18  1  0
 19 20  1  0
 21 22  1  0
 23 24  1  0
 25 26  1  0
M  CHG  1   8   1
M  END
>  <PDB_ID>  (804) 
pdb1ldn

>  <RESIDUE_NAME>  (804) 
LYS   PHE

>  <FRAG_NAME>  (804) 
ETAM   MBZ

>  <FRAG_ATOM_NUM>  (804) 
fragi: 11  fragj: 15

>  <atom.prop.CHAIN_ID>  (804) 
A A A A A A A A A A A Z Z Z Z Z Z Z Z Z Z Z Z Z Z Z

>  <atom.prop.IS_HEAVY_ATOM>  (804) 
1 0 0 0 1 0 0 1 0 0 0 1 0 0 0 1 1 0 1 0 1 0 1 0 1 0

>  <DIFUSE_FUNC_ATOM>  (804) 
n/a

>  <FINAL_SINGLE_POINT_ENERGY>  (804) 
0

>  <NONCOV_INTER_ENERGY_QM>  (804) 
0

>  <FF_Energy>  (804) 
9.34

>  <QM_Energy>  (804) 
-1.36

>  <source>  (804) 
ETAM_MBZ

>  <Index>  (804) 
7891

$$$$
ETAM-pdb1lga-A-LYS-260:MBZ-pdb1lga-A-PHE-254
     RDKit          3D

 26 25  0  0  0  0  0  0  0  0999 V2000
   -2.9777   -0.4423   -3.7261 C   0  0  0  0  0  0  0  0  0  0  0  0
   -3.5729   -0.0088   -4.3887 H   0  0  0  0  0  0  0  0  0  0  0  0
   -2.4489    0.2317   -3.2282 H   0  0  0  0  0  0  0  0  0  0  0  0
   -3.6017   -0.9785   -3.0111 H   0  0  0  0  0  0  0  0  0  0  0  0
   -2.0369   -1.3868   -4.4422 C   0  0  0  0  0  0  0  0  0  0  0  0
   -2.5782   -2.0559   -4.9417 H   0  0  0  0  0  0  0  0  0  0  0  0
   -1.4767   -0.8585   -5.0739 H   0  0  0  0  0  0  0  0  0  0  0  0
   -1.2091   -2.0396   -3.4563 N   0  0  0  0  0  4  0  0  0  0  0  0
   -0.2338   -1.8908   -3.6587 H   0  0  0  0  0  0  0  0  0  0  0  0
   -1.4014   -1.6769   -2.5364 H   0  0  0  0  0  0  0  0  0  0  0  0
   -1.3834   -3.0320   -3.4487 H   0  0  0  0  0  0  0  0  0  0  0  0
   -0.0563    2.8805   -0.0026 C   0  0  0  0  0  0  0  0  0  0  0  0
    0.8597    3.2104   -0.0805 H   0  0  0  0  0  0  0  0  0  0  0  0
   -0.5041    3.1696    0.8170 H   0  0  0  0  0  0  0  0  0  0  0  0
   -0.6282    3.2485   -0.8544 H   0  0  0  0  0  0  0  0  0  0  0  0
   -0.0086    1.3742    0.0003 C   0  0  0  0  0  0  0  0  0  0  0  0
   -1.1983    0.6600    0.0030 C   0  0  0  0  0  0  0  0  0  0  0  0
   -2.0684    1.1459    0.0057 H   0  0  0  0  0  0  0  0  0  0  0  0
   -1.1927   -0.7242    0.0000 C   0  0  0  0  0  0  0  0  0  0  0  0
   -2.0593   -1.2262   -0.0003 H   0  0  0  0  0  0  0  0  0  0  0  0
    0.0103   -1.3743   -0.0005 C   0  0  0  0  0  0  0  0  0  0  0  0
    0.0381   -2.3814   -0.0014 H   0  0  0  0  0  0  0  0  0  0  0  0
    1.1927   -0.6584   -0.0000 C   0  0  0  0  0  0  0  0  0  0  0  0
    2.0874   -1.1580    0.0037 H   0  0  0  0  0  0  0  0  0  0  0  0
    1.1966    0.7227   -0.0028 C   0  0  0  0  0  0  0  0  0  0  0  0
    2.0486    1.2218   -0.0076 H   0  0  0  0  0  0  0  0  0  0  0  0
  1  5  1  0
  5  8  1  0
  1  2  1  0
  1  3  1  0
  1  4  1  0
  5  6  1  0
  5  7  1  0
  8  9  1  0
  8 10  1  0
  8 11  1  0
 12 16  1  0
 16 17  2  0
 17 19  1  0
 19 21  2  0
 21 23  1  0
 23 25  2  0
 25 16  1  0
 12 13  1  0
 12 14  1  0
 12 15  1  0
 17 18  1  0
 19 20  1  0
 21 22  1  0
 23 24  1  0
 25 26  1  0
M  CHG  1   8   1
M  END
>  <PDB_ID>  (805) 
pdb1lga

>  <RESIDUE_NAME>  (805) 
LYS   PHE

>  <FRAG_NAME>  (805) 
ETAM   MBZ

>  <FRAG_ATOM_NUM>  (805) 
fragi: 11  fragj: 15

>  <atom.prop.CHAIN_ID>  (805) 
A A A A A A A A A A A Z Z Z Z Z Z Z Z Z Z Z Z Z Z Z

>  <atom.prop.IS_HEAVY_ATOM>  (805) 
1 0 0 0 1 0 0 1 0 0 0 1 0 0 0 1 1 0 1 0 1 0 1 0 1 0

>  <DIFUSE_FUNC_ATOM>  (805) 
n/a

>  <FINAL_SINGLE_POINT_ENERGY>  (805) 
0

>  <NONCOV_INTER_ENERGY_QM>  (805) 
0

>  <FF_Energy>  (805) 
-4.38

>  <QM_Energy>  (805) 
-10.3

>  <source>  (805) 
ETAM_MBZ

>  <Index>  (805) 
7895

$$$$
ETAM-pdb2pm6-A-LYS-702:MBZ-pdb2pm6-A-PHE-652
     RDKit          3D

 26 25  0  0  0  0  0  0  0  0999 V2000
    0.4329   -0.5551   -4.4057 C   0  0  0  0  0  0  0  0  0  0  0  0
   -0.1538    0.1733   -4.7213 H   0  0  0  0  0  0  0  0  0  0  0  0
    0.0734   -0.9865   -3.5945 H   0  0  0  0  0  0  0  0  0  0  0  0
    0.5447   -1.2984   -5.1952 H   0  0  0  0  0  0  0  0  0  0  0  0
    1.7971    0.0333   -4.0741 C   0  0  0  0  0  0  0  0  0  0  0  0
    2.3853   -0.6970   -3.7078 H   0  0  0  0  0  0  0  0  0  0  0  0
    2.2161    0.3817   -4.9212 H   0  0  0  0  0  0  0  0  0  0  0  0
    1.7204    1.1406   -3.0794 N   0  0  0  0  0  4  0  0  0  0  0  0
    1.2417    0.8193   -2.2634 H   0  0  0  0  0  0  0  0  0  0  0  0
    2.6456    1.4293   -2.8348 H   0  0  0  0  0  0  0  0  0  0  0  0
    1.2229    1.9098   -3.4788 H   0  0  0  0  0  0  0  0  0  0  0  0
    0.0024    2.9078   -0.0453 C   0  0  0  0  0  0  0  0  0  0  0  0
   -0.7069    3.1969   -0.6715 H   0  0  0  0  0  0  0  0  0  0  0  0
    0.8949    3.2030   -0.3544 H   0  0  0  0  0  0  0  0  0  0  0  0
   -0.1898    3.3812    0.9175 H   0  0  0  0  0  0  0  0  0  0  0  0
   -0.0001    1.4057   -0.0004 C   0  0  0  0  0  0  0  0  0  0  0  0
   -1.1978    0.6972    0.0020 C   0  0  0  0  0  0  0  0  0  0  0  0
   -2.0641    1.1844    0.0043 H   0  0  0  0  0  0  0  0  0  0  0  0
   -1.2013   -0.6992    0.0000 C   0  0  0  0  0  0  0  0  0  0  0  0
   -2.0780   -1.1911    0.0014 H   0  0  0  0  0  0  0  0  0  0  0  0
    0.0018   -1.3964   -0.0024 C   0  0  0  0  0  0  0  0  0  0  0  0
   -0.0038   -2.3946   -0.0064 H   0  0  0  0  0  0  0  0  0  0  0  0
    1.2013   -0.7001   -0.0000 C   0  0  0  0  0  0  0  0  0  0  0  0
    2.0833   -1.1962    0.0025 H   0  0  0  0  0  0  0  0  0  0  0  0
    1.1961    0.6928    0.0008 C   0  0  0  0  0  0  0  0  0  0  0  0
    2.0660    1.1883    0.0015 H   0  0  0  0  0  0  0  0  0  0  0  0
  1  5  1  0
  5  8  1  0
  1  2  1  0
  1  3  1  0
  1  4  1  0
  5  6  1  0
  5  7  1  0
  8  9  1  0
  8 10  1  0
  8 11  1  0
 12 16  1  0
 16 17  2  0
 17 19  1  0
 19 21  2  0
 21 23  1  0
 23 25  2  0
 25 16  1  0
 12 13  1  0
 12 14  1  0
 12 15  1  0
 17 18  1  0
 19 20  1  0
 21 22  1  0
 23 24  1  0
 25 26  1  0
M  CHG  1   8   1
M  END
>  <PDB_ID>  (806) 
pdb2pm6

>  <RESIDUE_NAME>  (806) 
LYS   PHE

>  <FRAG_NAME>  (806) 
ETAM   MBZ

>  <FRAG_ATOM_NUM>  (806) 
fragi: 11  fragj: 15

>  <atom.prop.CHAIN_ID>  (806) 
A A A A A A A A A A A Z Z Z Z Z Z Z Z Z Z Z Z Z Z Z

>  <atom.prop.IS_HEAVY_ATOM>  (806) 
1 0 0 0 1 0 0 1 0 0 0 1 0 0 0 1 1 0 1 0 1 0 1 0 1 0

>  <DIFUSE_FUNC_ATOM>  (806) 
n/a

>  <FINAL_SINGLE_POINT_ENERGY>  (806) 
0

>  <NONCOV_INTER_ENERGY_QM>  (806) 
0

>  <FF_Energy>  (806) 
-6.69

>  <QM_Energy>  (806) 
-13.39

>  <source>  (806) 
ETAM_MBZ

>  <Index>  (806) 
7898

$$$$
ETAM-pdb2ppw-A-LYS-208:MBZ-pdb2ppw-A-PHE-195
     RDKit          3D

 26 25  0  0  0  0  0  0  0  0999 V2000
   -1.1535   -0.5115    3.4581 C   0  0  0  0  0  0  0  0  0  0  0  0
   -0.8144   -1.1080    2.7370 H   0  0  0  0  0  0  0  0  0  0  0  0
   -1.6449    0.2594    3.0661 H   0  0  0  0  0  0  0  0  0  0  0  0
   -1.8431   -1.0811    4.0809 H   0  0  0  0  0  0  0  0  0  0  0  0
    0.0328    0.0176    4.2552 C   0  0  0  0  0  0  0  0  0  0  0  0
   -0.2614    0.8262    4.7803 H   0  0  0  0  0  0  0  0  0  0  0  0
    0.3295   -0.6905    4.9083 H   0  0  0  0  0  0  0  0  0  0  0  0
    1.2009    0.3991    3.3943 N   0  0  0  0  0  4  0  0  0  0  0  0
    2.0289   -0.0139    3.7675 H   0  0  0  0  0  0  0  0  0  0  0  0
    1.0441    0.0664    2.4673 H   0  0  0  0  0  0  0  0  0  0  0  0
    1.2908    1.3931    3.3885 H   0  0  0  0  0  0  0  0  0  0  0  0
    0.0036    2.9079   -0.0297 C   0  0  0  0  0  0  0  0  0  0  0  0
    0.8973    3.2218    0.2395 H   0  0  0  0  0  0  0  0  0  0  0  0
   -0.6987    3.2293    0.5821 H   0  0  0  0  0  0  0  0  0  0  0  0
   -0.2070    3.3118   -1.0199 H   0  0  0  0  0  0  0  0  0  0  0  0
    0.0040    1.4086    0.0027 C   0  0  0  0  0  0  0  0  0  0  0  0
   -1.2003    0.6977   -0.0008 C   0  0  0  0  0  0  0  0  0  0  0  0
   -2.0647    1.1887   -0.0055 H   0  0  0  0  0  0  0  0  0  0  0  0
   -1.2111   -0.7041    0.0000 C   0  0  0  0  0  0  0  0  0  0  0  0
   -2.0877   -1.1898   -0.0047 H   0  0  0  0  0  0  0  0  0  0  0  0
   -0.0080   -1.4037    0.0088 C   0  0  0  0  0  0  0  0  0  0  0  0
   -0.0042   -2.3979    0.0210 H   0  0  0  0  0  0  0  0  0  0  0  0
    1.2111   -0.6974   -0.0000 C   0  0  0  0  0  0  0  0  0  0  0  0
    2.0845   -1.1983    0.0030 H   0  0  0  0  0  0  0  0  0  0  0  0
    1.2043    0.6989   -0.0108 C   0  0  0  0  0  0  0  0  0  0  0  0
    2.0711    1.1948   -0.0290 H   0  0  0  0  0  0  0  0  0  0  0  0
  1  5  1  0
  5  8  1  0
  1  2  1  0
  1  3  1  0
  1  4  1  0
  5  6  1  0
  5  7  1  0
  8  9  1  0
  8 10  1  0
  8 11  1  0
 12 16  1  0
 16 17  2  0
 17 19  1  0
 19 21  2  0
 21 23  1  0
 23 25  2  0
 25 16  1  0
 12 13  1  0
 12 14  1  0
 12 15  1  0
 17 18  1  0
 19 20  1  0
 21 22  1  0
 23 24  1  0
 25 26  1  0
M  CHG  1   8   1
M  END
>  <PDB_ID>  (807) 
pdb2ppw

>  <RESIDUE_NAME>  (807) 
LYS   PHE

>  <FRAG_NAME>  (807) 
ETAM   MBZ

>  <FRAG_ATOM_NUM>  (807) 
fragi: 11  fragj: 15

>  <atom.prop.CHAIN_ID>  (807) 
A A A A A A A A A A A Z Z Z Z Z Z Z Z Z Z Z Z Z Z Z

>  <atom.prop.IS_HEAVY_ATOM>  (807) 
1 0 0 0 1 0 0 1 0 0 0 1 0 0 0 1 1 0 1 0 1 0 1 0 1 0

>  <DIFUSE_FUNC_ATOM>  (807) 
n/a

>  <FINAL_SINGLE_POINT_ENERGY>  (807) 
0

>  <NONCOV_INTER_ENERGY_QM>  (807) 
0

>  <FF_Energy>  (807) 
-8.09

>  <QM_Energy>  (807) 
-14.55

>  <source>  (807) 
ETAM_MBZ

>  <Index>  (807) 
7916

$$$$
ETAM-pdb2pqi-A-LYS-270:MBZ-pdb2pqi-A-PHE-58
     RDKit          3D

 26 25  0  0  0  0  0  0  0  0999 V2000
   -4.6366   -0.5205    0.6139 C   0  0  0  0  0  0  0  0  0  0  0  0
   -3.6701   -0.7176    0.4683 H   0  0  0  0  0  0  0  0  0  0  0  0
   -4.8037    0.4566    0.5065 H   0  0  0  0  0  0  0  0  0  0  0  0
   -5.2118   -1.0522   -0.1441 H   0  0  0  0  0  0  0  0  0  0  0  0
   -5.0114   -0.9291    2.0337 C   0  0  0  0  0  0  0  0  0  0  0  0
   -5.8811   -0.5003    2.2762 H   0  0  0  0  0  0  0  0  0  0  0  0
   -5.1074   -1.9232    2.0713 H   0  0  0  0  0  0  0  0  0  0  0  0
   -3.9642   -0.5010    3.0077 N   0  0  0  0  0  4  0  0  0  0  0  0
   -4.2708   -0.7120    3.9351 H   0  0  0  0  0  0  0  0  0  0  0  0
   -3.1147   -0.9905    2.8144 H   0  0  0  0  0  0  0  0  0  0  0  0
   -3.8136    0.4822    2.9182 H   0  0  0  0  0  0  0  0  0  0  0  0
    0.0018    2.9042    0.0405 C   0  0  0  0  0  0  0  0  0  0  0  0
   -0.8484    3.2238   -0.3497 H   0  0  0  0  0  0  0  0  0  0  0  0
    0.7804    3.2258   -0.4776 H   0  0  0  0  0  0  0  0  0  0  0  0
    0.0804    3.3193    1.0453 H   0  0  0  0  0  0  0  0  0  0  0  0
    0.0004    1.4077    0.0055 C   0  0  0  0  0  0  0  0  0  0  0  0
   -1.1979    0.6958   -0.0002 C   0  0  0  0  0  0  0  0  0  0  0  0
   -2.0652    1.1823   -0.0052 H   0  0  0  0  0  0  0  0  0  0  0  0
   -1.2042   -0.7058    0.0000 C   0  0  0  0  0  0  0  0  0  0  0  0
   -2.0818   -1.1937    0.0043 H   0  0  0  0  0  0  0  0  0  0  0  0
   -0.0024   -1.4025   -0.0041 C   0  0  0  0  0  0  0  0  0  0  0  0
    0.0004   -2.3977   -0.0107 H   0  0  0  0  0  0  0  0  0  0  0  0
    1.2042   -0.6968    0.0000 C   0  0  0  0  0  0  0  0  0  0  0  0
    2.0848   -1.1934    0.0056 H   0  0  0  0  0  0  0  0  0  0  0  0
    1.1998    0.7015   -0.0012 C   0  0  0  0  0  0  0  0  0  0  0  0
    2.0671    1.1947   -0.0074 H   0  0  0  0  0  0  0  0  0  0  0  0
  1  5  1  0
  5  8  1  0
  1  2  1  0
  1  3  1  0
  1  4  1  0
  5  6  1  0
  5  7  1  0
  8  9  1  0
  8 10  1  0
  8 11  1  0
 12 16  1  0
 16 17  2  0
 17 19  1  0
 19 21  2  0
 21 23  1  0
 23 25  2  0
 25 16  1  0
 12 13  1  0
 12 14  1  0
 12 15  1  0
 17 18  1  0
 19 20  1  0
 21 22  1  0
 23 24  1  0
 25 26  1  0
M  CHG  1   8   1
M  END
>  <PDB_ID>  (808) 
pdb2pqi

>  <RESIDUE_NAME>  (808) 
LYS   PHE

>  <FRAG_NAME>  (808) 
ETAM   MBZ

>  <FRAG_ATOM_NUM>  (808) 
fragi: 11  fragj: 15

>  <atom.prop.CHAIN_ID>  (808) 
A A A A A A A A A A A Z Z Z Z Z Z Z Z Z Z Z Z Z Z Z

>  <atom.prop.IS_HEAVY_ATOM>  (808) 
1 0 0 0 1 0 0 1 0 0 0 1 0 0 0 1 1 0 1 0 1 0 1 0 1 0

>  <DIFUSE_FUNC_ATOM>  (808) 
n/a

>  <FINAL_SINGLE_POINT_ENERGY>  (808) 
0

>  <NONCOV_INTER_ENERGY_QM>  (808) 
0

>  <FF_Energy>  (808) 
4.8

>  <QM_Energy>  (808) 
-3.19

>  <source>  (808) 
ETAM_MBZ

>  <Index>  (808) 
7943

$$$$
ETAM-pdb1lga-B-LYS-260:MBZ-pdb1lga-B-PHE-254
     RDKit          3D

 26 25  0  0  0  0  0  0  0  0999 V2000
   -2.7911   -0.7415   -3.9792 C   0  0  0  0  0  0  0  0  0  0  0  0
   -3.3318   -0.6092   -4.7826 H   0  0  0  0  0  0  0  0  0  0  0  0
   -2.3931    0.0835   -3.6392 H   0  0  0  0  0  0  0  0  0  0  0  0
   -3.4164   -1.1795   -3.2013 H   0  0  0  0  0  0  0  0  0  0  0  0
   -1.6796   -1.7368   -4.2875 C   0  0  0  0  0  0  0  0  0  0  0  0
   -2.0932   -2.5826   -4.6048 H   0  0  0  0  0  0  0  0  0  0  0  0
   -1.0961   -1.3501   -4.9930 H   0  0  0  0  0  0  0  0  0  0  0  0
   -0.9174   -1.9697   -3.0719 N   0  0  0  0  0  4  0  0  0  0  0  0
    0.0221   -1.6269   -3.1775 H   0  0  0  0  0  0  0  0  0  0  0  0
   -1.3464   -1.4968   -2.2958 H   0  0  0  0  0  0  0  0  0  0  0  0
   -0.8790   -2.9532   -2.8668 H   0  0  0  0  0  0  0  0  0  0  0  0
   -0.0868    2.8791    0.0188 C   0  0  0  0  0  0  0  0  0  0  0  0
    0.8213    3.2246    0.0164 H   0  0  0  0  0  0  0  0  0  0  0  0
   -0.6160    3.1485    0.7879 H   0  0  0  0  0  0  0  0  0  0  0  0
   -0.5891    3.2329   -0.8816 H   0  0  0  0  0  0  0  0  0  0  0  0
   -0.0173    1.3733    0.0002 C   0  0  0  0  0  0  0  0  0  0  0  0
   -1.2053    0.6513    0.0002 C   0  0  0  0  0  0  0  0  0  0  0  0
   -2.0770    1.1346   -0.0008 H   0  0  0  0  0  0  0  0  0  0  0  0
   -1.1912   -0.7294   -0.0000 C   0  0  0  0  0  0  0  0  0  0  0  0
   -2.0543   -1.2397   -0.0008 H   0  0  0  0  0  0  0  0  0  0  0  0
    0.0200   -1.3824    0.0027 C   0  0  0  0  0  0  0  0  0  0  0  0
    0.0525   -2.3819    0.0059 H   0  0  0  0  0  0  0  0  0  0  0  0
    1.1912   -0.6471   -0.0000 C   0  0  0  0  0  0  0  0  0  0  0  0
    2.0963   -1.1461    0.0023 H   0  0  0  0  0  0  0  0  0  0  0  0
    1.2025    0.7344   -0.0031 C   0  0  0  0  0  0  0  0  0  0  0  0
    2.0430    1.2352   -0.0085 H   0  0  0  0  0  0  0  0  0  0  0  0
  1  5  1  0
  5  8  1  0
  1  2  1  0
  1  3  1  0
  1  4  1  0
  5  6  1  0
  5  7  1  0
  8  9  1  0
  8 10  1  0
  8 11  1  0
 12 16  1  0
 16 17  2  0
 17 19  1  0
 19 21  2  0
 21 23  1  0
 23 25  2  0
 25 16  1  0
 12 13  1  0
 12 14  1  0
 12 15  1  0
 17 18  1  0
 19 20  1  0
 21 22  1  0
 23 24  1  0
 25 26  1  0
M  CHG  1   8   1
M  END
>  <PDB_ID>  (809) 
pdb1lga

>  <RESIDUE_NAME>  (809) 
LYS   PHE

>  <FRAG_NAME>  (809) 
ETAM   MBZ

>  <FRAG_ATOM_NUM>  (809) 
fragi: 11  fragj: 15

>  <atom.prop.CHAIN_ID>  (809) 
A A A A A A A A A A A Z Z Z Z Z Z Z Z Z Z Z Z Z Z Z

>  <atom.prop.IS_HEAVY_ATOM>  (809) 
1 0 0 0 1 0 0 1 0 0 0 1 0 0 0 1 1 0 1 0 1 0 1 0 1 0

>  <DIFUSE_FUNC_ATOM>  (809) 
n/a

>  <FINAL_SINGLE_POINT_ENERGY>  (809) 
0

>  <NONCOV_INTER_ENERGY_QM>  (809) 
0

>  <FF_Energy>  (809) 
-4.92

>  <QM_Energy>  (809) 
-12.13

>  <source>  (809) 
ETAM_MBZ

>  <Index>  (809) 
7969

$$$$
ETAM-pdb1lqv-C-LYS-28:MBZ-pdb1lqv-C-PHE-24
     RDKit          3D

 26 25  0  0  0  0  0  0  0  0999 V2000
   -0.2015   -0.0934    4.4744 C   0  0  0  0  0  0  0  0  0  0  0  0
    0.0045    0.8943    4.4951 H   0  0  0  0  0  0  0  0  0  0  0  0
   -0.1117   -0.4511    5.4138 H   0  0  0  0  0  0  0  0  0  0  0  0
   -1.2415   -0.2104    4.1695 H   0  0  0  0  0  0  0  0  0  0  0  0
    0.7729   -0.7825    3.5899 C   0  0  0  0  0  0  0  0  0  0  0  0
    0.7493   -1.7676    3.7528 H   0  0  0  0  0  0  0  0  0  0  0  0
    0.5602   -0.5962    2.6312 H   0  0  0  0  0  0  0  0  0  0  0  0
    2.1664   -0.2899    3.8687 N   0  0  0  0  0  4  0  0  0  0  0  0
    2.3348    0.5301    3.3266 H   0  0  0  0  0  0  0  0  0  0  0  0
    2.2469   -0.0790    4.8398 H   0  0  0  0  0  0  0  0  0  0  0  0
    2.8178   -1.0030    3.6198 H   0  0  0  0  0  0  0  0  0  0  0  0
    0.0675    2.9522   -0.0238 C   0  0  0  0  0  0  0  0  0  0  0  0
    0.2366    3.2314   -0.9636 H   0  0  0  0  0  0  0  0  0  0  0  0
    0.8250    3.2297    0.5593 H   0  0  0  0  0  0  0  0  0  0  0  0
   -0.8250    3.4738    0.3220 H   0  0  0  0  0  0  0  0  0  0  0  0
    0.0011    1.4354   -0.0007 C   0  0  0  0  0  0  0  0  0  0  0  0
   -1.2250    0.6994   -0.0027 C   0  0  0  0  0  0  0  0  0  0  0  0
   -2.0822    1.1857   -0.0074 H   0  0  0  0  0  0  0  0  0  0  0  0
   -1.2246   -0.7176    0.0000 C   0  0  0  0  0  0  0  0  0  0  0  0
   -2.0853   -1.2148    0.0002 H   0  0  0  0  0  0  0  0  0  0  0  0
    0.0150   -1.4252    0.0043 C   0  0  0  0  0  0  0  0  0  0  0  0
    0.0081   -2.4143    0.0092 H   0  0  0  0  0  0  0  0  0  0  0  0
    1.2246   -0.7106    0.0000 C   0  0  0  0  0  0  0  0  0  0  0  0
    2.1064   -1.1878   -0.0010 H   0  0  0  0  0  0  0  0  0  0  0  0
    1.2089    0.7186   -0.0009 C   0  0  0  0  0  0  0  0  0  0  0  0
    2.0767    1.2057   -0.0027 H   0  0  0  0  0  0  0  0  0  0  0  0
  1  5  1  0
  5  8  1  0
  1  2  1  0
  1  3  1  0
  1  4  1  0
  5  6  1  0
  5  7  1  0
  8  9  1  0
  8 10  1  0
  8 11  1  0
 12 16  1  0
 16 17  2  0
 17 19  1  0
 19 21  2  0
 21 23  1  0
 23 25  2  0
 25 16  1  0
 12 13  1  0
 12 14  1  0
 12 15  1  0
 17 18  1  0
 19 20  1  0
 21 22  1  0
 23 24  1  0
 25 26  1  0
M  CHG  1   8   1
M  END
>  <PDB_ID>  (810) 
pdb1lqv

>  <RESIDUE_NAME>  (810) 
LYS   PHE

>  <FRAG_NAME>  (810) 
ETAM   MBZ

>  <FRAG_ATOM_NUM>  (810) 
fragi: 11  fragj: 15

>  <atom.prop.CHAIN_ID>  (810) 
A A A A A A A A A A A Z Z Z Z Z Z Z Z Z Z Z Z Z Z Z

>  <atom.prop.IS_HEAVY_ATOM>  (810) 
1 0 0 0 1 0 0 1 0 0 0 1 0 0 0 1 1 0 1 0 1 0 1 0 1 0

>  <DIFUSE_FUNC_ATOM>  (810) 
n/a

>  <FINAL_SINGLE_POINT_ENERGY>  (810) 
0

>  <NONCOV_INTER_ENERGY_QM>  (810) 
0

>  <FF_Energy>  (810) 
-4.67

>  <QM_Energy>  (810) 
-9.69

>  <source>  (810) 
ETAM_MBZ

>  <Index>  (810) 
7976

$$$$
ETAM-pdb1lqv-D-LYS-28:MBZ-pdb1lqv-D-PHE-24
     RDKit          3D

 26 25  0  0  0  0  0  0  0  0999 V2000
   -0.2040   -1.0940    4.1109 C   0  0  0  0  0  0  0  0  0  0  0  0
   -0.0010   -1.3492    5.0594 H   0  0  0  0  0  0  0  0  0  0  0  0
   -0.0654   -1.8926    3.5203 H   0  0  0  0  0  0  0  0  0  0  0  0
   -1.2453   -0.7789    4.0440 H   0  0  0  0  0  0  0  0  0  0  0  0
    0.7579   -0.0136    3.6891 C   0  0  0  0  0  0  0  0  0  0  0  0
    0.4396    0.4087    2.8445 H   0  0  0  0  0  0  0  0  0  0  0  0
    0.8264    0.6749    4.4072 H   0  0  0  0  0  0  0  0  0  0  0  0
    2.1264   -0.5954    3.4492 N   0  0  0  0  0  4  0  0  0  0  0  0
    2.0671   -1.5891    3.4981 H   0  0  0  0  0  0  0  0  0  0  0  0
    2.4419   -0.3162    2.5458 H   0  0  0  0  0  0  0  0  0  0  0  0
    2.7487   -0.2546    4.1496 H   0  0  0  0  0  0  0  0  0  0  0  0
    0.0639    2.9366    0.0098 C   0  0  0  0  0  0  0  0  0  0  0  0
    0.1442    3.2411   -0.9304 H   0  0  0  0  0  0  0  0  0  0  0  0
    0.8598    3.2079    0.5373 H   0  0  0  0  0  0  0  0  0  0  0  0
   -0.8062    3.4278    0.4454 H   0  0  0  0  0  0  0  0  0  0  0  0
    0.0088    1.4236    0.0016 C   0  0  0  0  0  0  0  0  0  0  0  0
   -1.2127    0.6987   -0.0028 C   0  0  0  0  0  0  0  0  0  0  0  0
   -2.0702    1.1929   -0.0090 H   0  0  0  0  0  0  0  0  0  0  0  0
   -1.2210   -0.7074    0.0000 C   0  0  0  0  0  0  0  0  0  0  0  0
   -2.0936   -1.1968    0.0032 H   0  0  0  0  0  0  0  0  0  0  0  0
   -0.0063   -1.4160    0.0002 C   0  0  0  0  0  0  0  0  0  0  0  0
   -0.0076   -2.4065   -0.0005 H   0  0  0  0  0  0  0  0  0  0  0  0
    1.2210   -0.7081   -0.0000 C   0  0  0  0  0  0  0  0  0  0  0  0
    2.0920   -1.1996    0.0002 H   0  0  0  0  0  0  0  0  0  0  0  0
    1.2103    0.7092    0.0010 C   0  0  0  0  0  0  0  0  0  0  0  0
    2.0795    1.1978    0.0000 H   0  0  0  0  0  0  0  0  0  0  0  0
  1  5  1  0
  5  8  1  0
  1  2  1  0
  1  3  1  0
  1  4  1  0
  5  6  1  0
  5  7  1  0
  8  9  1  0
  8 10  1  0
  8 11  1  0
 12 16  1  0
 16 17  2  0
 17 19  1  0
 19 21  2  0
 21 23  1  0
 23 25  2  0
 25 16  1  0
 12 13  1  0
 12 14  1  0
 12 15  1  0
 17 18  1  0
 19 20  1  0
 21 22  1  0
 23 24  1  0
 25 26  1  0
M  CHG  1   8   1
M  END
>  <PDB_ID>  (811) 
pdb1lqv

>  <RESIDUE_NAME>  (811) 
LYS   PHE

>  <FRAG_NAME>  (811) 
ETAM   MBZ

>  <FRAG_ATOM_NUM>  (811) 
fragi: 11  fragj: 15

>  <atom.prop.CHAIN_ID>  (811) 
A A A A A A A A A A A Z Z Z Z Z Z Z Z Z Z Z Z Z Z Z

>  <atom.prop.IS_HEAVY_ATOM>  (811) 
1 0 0 0 1 0 0 1 0 0 0 1 0 0 0 1 1 0 1 0 1 0 1 0 1 0

>  <DIFUSE_FUNC_ATOM>  (811) 
n/a

>  <FINAL_SINGLE_POINT_ENERGY>  (811) 
0

>  <NONCOV_INTER_ENERGY_QM>  (811) 
0

>  <FF_Energy>  (811) 
-5.65

>  <QM_Energy>  (811) 
-12.17

>  <source>  (811) 
ETAM_MBZ

>  <Index>  (811) 
7977

$$$$
ETAM-pdb1llq-A-LYS-199:MBZ-pdb1llq-A-PHE-483
     RDKit          3D

 26 25  0  0  0  0  0  0  0  0999 V2000
    0.1231   -1.7112   -4.2141 C   0  0  0  0  0  0  0  0  0  0  0  0
    0.0533   -2.3801   -3.4808 H   0  0  0  0  0  0  0  0  0  0  0  0
    0.6884   -2.0661   -4.9522 H   0  0  0  0  0  0  0  0  0  0  0  0
   -0.8755   -1.5074   -4.6006 H   0  0  0  0  0  0  0  0  0  0  0  0
    0.7824   -0.4527   -3.6618 C   0  0  0  0  0  0  0  0  0  0  0  0
    0.7872    0.2503   -4.3732 H   0  0  0  0  0  0  0  0  0  0  0  0
    0.2536   -0.1262   -2.8775 H   0  0  0  0  0  0  0  0  0  0  0  0
    2.1873   -0.7194   -3.2276 N   0  0  0  0  0  4  0  0  0  0  0  0
    2.7235   -1.0198   -4.0146 H   0  0  0  0  0  0  0  0  0  0  0  0
    2.5793    0.1188   -2.8523 H   0  0  0  0  0  0  0  0  0  0  0  0
    2.1852   -1.4329   -2.5299 H   0  0  0  0  0  0  0  0  0  0  0  0
    0.0063    2.9208   -0.0371 C   0  0  0  0  0  0  0  0  0  0  0  0
   -0.6407    3.2133   -0.7290 H   0  0  0  0  0  0  0  0  0  0  0  0
    0.9245    3.2192   -0.2623 H   0  0  0  0  0  0  0  0  0  0  0  0
   -0.2739    3.4048    0.8985 H   0  0  0  0  0  0  0  0  0  0  0  0
    0.0005    1.4117    0.0005 C   0  0  0  0  0  0  0  0  0  0  0  0
   -1.1993    0.6980   -0.0005 C   0  0  0  0  0  0  0  0  0  0  0  0
   -2.0662    1.1831   -0.0032 H   0  0  0  0  0  0  0  0  0  0  0  0
   -1.2032   -0.7045    0.0000 C   0  0  0  0  0  0  0  0  0  0  0  0
   -2.0792   -1.1945    0.0026 H   0  0  0  0  0  0  0  0  0  0  0  0
    0.0020   -1.4057   -0.0006 C   0  0  0  0  0  0  0  0  0  0  0  0
   -0.0016   -2.4003   -0.0017 H   0  0  0  0  0  0  0  0  0  0  0  0
    1.2032   -0.7014    0.0000 C   0  0  0  0  0  0  0  0  0  0  0  0
    2.0872   -1.1922    0.0012 H   0  0  0  0  0  0  0  0  0  0  0  0
    1.1967    0.7020    0.0006 C   0  0  0  0  0  0  0  0  0  0  0  0
    2.0667    1.1929    0.0005 H   0  0  0  0  0  0  0  0  0  0  0  0
  1  5  1  0
  5  8  1  0
  1  2  1  0
  1  3  1  0
  1  4  1  0
  5  6  1  0
  5  7  1  0
  8  9  1  0
  8 10  1  0
  8 11  1  0
 12 16  1  0
 16 17  2  0
 17 19  1  0
 19 21  2  0
 21 23  1  0
 23 25  2  0
 25 16  1  0
 12 13  1  0
 12 14  1  0
 12 15  1  0
 17 18  1  0
 19 20  1  0
 21 22  1  0
 23 24  1  0
 25 26  1  0
M  CHG  1   8   1
M  END
>  <PDB_ID>  (812) 
pdb1llq

>  <RESIDUE_NAME>  (812) 
LYS   PHE

>  <FRAG_NAME>  (812) 
ETAM   MBZ

>  <FRAG_ATOM_NUM>  (812) 
fragi: 11  fragj: 15

>  <atom.prop.CHAIN_ID>  (812) 
A A A A A A A A A A A Z Z Z Z Z Z Z Z Z Z Z Z Z Z Z

>  <atom.prop.IS_HEAVY_ATOM>  (812) 
1 0 0 0 1 0 0 1 0 0 0 1 0 0 0 1 1 0 1 0 1 0 1 0 1 0

>  <DIFUSE_FUNC_ATOM>  (812) 
n/a

>  <FINAL_SINGLE_POINT_ENERGY>  (812) 
0

>  <NONCOV_INTER_ENERGY_QM>  (812) 
0

>  <FF_Energy>  (812) 
-5.34

>  <QM_Energy>  (812) 
-11.94

>  <source>  (812) 
ETAM_MBZ

>  <Index>  (812) 
7997

$$$$
ETAM-pdb1ls6-A-LYS-48:MBZ-pdb1ls6-A-PHE-142
     RDKit          3D

 26 25  0  0  0  0  0  0  0  0999 V2000
    1.6983    1.5160   -3.4471 C   0  0  0  0  0  0  0  0  0  0  0  0
    1.9639    0.6840   -3.9281 H   0  0  0  0  0  0  0  0  0  0  0  0
    1.8560    1.4110   -2.4693 H   0  0  0  0  0  0  0  0  0  0  0  0
    2.3161    2.3368   -3.8114 H   0  0  0  0  0  0  0  0  0  0  0  0
    0.2064    1.7579   -3.6772 C   0  0  0  0  0  0  0  0  0  0  0  0
   -0.1057    2.4753   -3.0517 H   0  0  0  0  0  0  0  0  0  0  0  0
    0.0693    2.0637   -4.6210 H   0  0  0  0  0  0  0  0  0  0  0  0
   -0.6038    0.5185   -3.4424 N   0  0  0  0  0  4  0  0  0  0  0  0
   -0.6933    0.0192   -4.3019 H   0  0  0  0  0  0  0  0  0  0  0  0
   -0.1399   -0.0508   -2.7663 H   0  0  0  0  0  0  0  0  0  0  0  0
   -1.5066    0.7778   -3.1055 H   0  0  0  0  0  0  0  0  0  0  0  0
    0.0068    2.9095   -0.0662 C   0  0  0  0  0  0  0  0  0  0  0  0
   -0.3918    3.1798   -0.9307 H   0  0  0  0  0  0  0  0  0  0  0  0
    0.9446    3.2167    0.0080 H   0  0  0  0  0  0  0  0  0  0  0  0
   -0.5630    3.3943    0.7265 H   0  0  0  0  0  0  0  0  0  0  0  0
    0.0020    1.4039   -0.0011 C   0  0  0  0  0  0  0  0  0  0  0  0
   -1.1955    0.6928    0.0008 C   0  0  0  0  0  0  0  0  0  0  0  0
   -2.0624    1.1856    0.0017 H   0  0  0  0  0  0  0  0  0  0  0  0
   -1.2023   -0.6950    0.0000 C   0  0  0  0  0  0  0  0  0  0  0  0
   -2.0809   -1.1878    0.0013 H   0  0  0  0  0  0  0  0  0  0  0  0
   -0.0044   -1.3948   -0.0014 C   0  0  0  0  0  0  0  0  0  0  0  0
   -0.0085   -2.3928   -0.0035 H   0  0  0  0  0  0  0  0  0  0  0  0
    1.2023   -0.6997   -0.0000 C   0  0  0  0  0  0  0  0  0  0  0  0
    2.0802   -1.1980    0.0016 H   0  0  0  0  0  0  0  0  0  0  0  0
    1.1979    0.6928    0.0016 C   0  0  0  0  0  0  0  0  0  0  0  0
    2.0669    1.1887    0.0039 H   0  0  0  0  0  0  0  0  0  0  0  0
  1  5  1  0
  5  8  1  0
  1  2  1  0
  1  3  1  0
  1  4  1  0
  5  6  1  0
  5  7  1  0
  8  9  1  0
  8 10  1  0
  8 11  1  0
 12 16  1  0
 16 17  2  0
 17 19  1  0
 19 21  2  0
 21 23  1  0
 23 25  2  0
 25 16  1  0
 12 13  1  0
 12 14  1  0
 12 15  1  0
 17 18  1  0
 19 20  1  0
 21 22  1  0
 23 24  1  0
 25 26  1  0
M  CHG  1   8   1
M  END
>  <PDB_ID>  (813) 
pdb1ls6

>  <RESIDUE_NAME>  (813) 
LYS   PHE

>  <FRAG_NAME>  (813) 
ETAM   MBZ

>  <FRAG_ATOM_NUM>  (813) 
fragi: 11  fragj: 15

>  <atom.prop.CHAIN_ID>  (813) 
A A A A A A A A A A A Z Z Z Z Z Z Z Z Z Z Z Z Z Z Z

>  <atom.prop.IS_HEAVY_ATOM>  (813) 
1 0 0 0 1 0 0 1 0 0 0 1 0 0 0 1 1 0 1 0 1 0 1 0 1 0

>  <DIFUSE_FUNC_ATOM>  (813) 
n/a

>  <FINAL_SINGLE_POINT_ENERGY>  (813) 
0

>  <NONCOV_INTER_ENERGY_QM>  (813) 
0

>  <FF_Energy>  (813) 
-8.24

>  <QM_Energy>  (813) 
-13.96

>  <source>  (813) 
ETAM_MBZ

>  <Index>  (813) 
8000

$$$$
ETAM-pdb1k9a-D-LYS-222:MBZ-pdb1k9a-D-PHE-233
     RDKit          3D

 26 25  0  0  0  0  0  0  0  0999 V2000
    1.7825    0.3009   -3.2263 C   0  0  0  0  0  0  0  0  0  0  0  0
    2.4392   -0.2908   -2.7743 H   0  0  0  0  0  0  0  0  0  0  0  0
    1.7429    1.1864   -2.7776 H   0  0  0  0  0  0  0  0  0  0  0  0
    2.0705    0.4337   -4.2692 H   0  0  0  0  0  0  0  0  0  0  0  0
    0.4188   -0.3416   -3.1411 C   0  0  0  0  0  0  0  0  0  0  0  0
    0.1121   -0.3412   -2.1885 H   0  0  0  0  0  0  0  0  0  0  0  0
   -0.2288    0.1833   -3.6963 H   0  0  0  0  0  0  0  0  0  0  0  0
    0.4572   -1.7463   -3.6381 N   0  0  0  0  0  4  0  0  0  0  0  0
    0.5333   -2.3698   -2.8604 H   0  0  0  0  0  0  0  0  0  0  0  0
   -0.3823   -1.9408   -4.1433 H   0  0  0  0  0  0  0  0  0  0  0  0
    1.2465   -1.8622   -4.2397 H   0  0  0  0  0  0  0  0  0  0  0  0
    0.0092    2.9126    0.0324 C   0  0  0  0  0  0  0  0  0  0  0  0
   -0.7701    3.2323   -0.4819 H   0  0  0  0  0  0  0  0  0  0  0  0
    0.8588    3.2212   -0.3635 H   0  0  0  0  0  0  0  0  0  0  0  0
   -0.0611    3.3249    1.0390 H   0  0  0  0  0  0  0  0  0  0  0  0
    0.0016    1.4063   -0.0001 C   0  0  0  0  0  0  0  0  0  0  0  0
   -1.1987    0.6982    0.0006 C   0  0  0  0  0  0  0  0  0  0  0  0
   -2.0640    1.1863    0.0004 H   0  0  0  0  0  0  0  0  0  0  0  0
   -1.2051   -0.7010    0.0000 C   0  0  0  0  0  0  0  0  0  0  0  0
   -2.0817   -1.1910    0.0002 H   0  0  0  0  0  0  0  0  0  0  0  0
   -0.0013   -1.4002    0.0006 C   0  0  0  0  0  0  0  0  0  0  0  0
   -0.0030   -2.3959    0.0010 H   0  0  0  0  0  0  0  0  0  0  0  0
    1.2051   -0.6974   -0.0000 C   0  0  0  0  0  0  0  0  0  0  0  0
    2.0849   -1.1957    0.0015 H   0  0  0  0  0  0  0  0  0  0  0  0
    1.1984    0.6942   -0.0010 C   0  0  0  0  0  0  0  0  0  0  0  0
    2.0672    1.1913   -0.0033 H   0  0  0  0  0  0  0  0  0  0  0  0
  1  5  1  0
  5  8  1  0
  1  2  1  0
  1  3  1  0
  1  4  1  0
  5  6  1  0
  5  7  1  0
  8  9  1  0
  8 10  1  0
  8 11  1  0
 12 16  1  0
 16 17  2  0
 17 19  1  0
 19 21  2  0
 21 23  1  0
 23 25  2  0
 25 16  1  0
 12 13  1  0
 12 14  1  0
 12 15  1  0
 17 18  1  0
 19 20  1  0
 21 22  1  0
 23 24  1  0
 25 26  1  0
M  CHG  1   8   1
M  END
>  <PDB_ID>  (814) 
pdb1k9a

>  <RESIDUE_NAME>  (814) 
LYS   PHE

>  <FRAG_NAME>  (814) 
ETAM   MBZ

>  <FRAG_ATOM_NUM>  (814) 
fragi: 11  fragj: 15

>  <atom.prop.CHAIN_ID>  (814) 
A A A A A A A A A A A Z Z Z Z Z Z Z Z Z Z Z Z Z Z Z

>  <atom.prop.IS_HEAVY_ATOM>  (814) 
1 0 0 0 1 0 0 1 0 0 0 1 0 0 0 1 1 0 1 0 1 0 1 0 1 0

>  <DIFUSE_FUNC_ATOM>  (814) 
n/a

>  <FINAL_SINGLE_POINT_ENERGY>  (814) 
0

>  <NONCOV_INTER_ENERGY_QM>  (814) 
0

>  <FF_Energy>  (814) 
-1.47

>  <QM_Energy>  (814) 
-11.56

>  <source>  (814) 
ETAM_MBZ

>  <Index>  (814) 
8012

$$$$
ETAM-pdb2pth-A-LYS-43:MBZ-pdb2pth-A-PHE-80
     RDKit          3D

 26 25  0  0  0  0  0  0  0  0999 V2000
   -2.1574   -0.2651   -4.7981 C   0  0  0  0  0  0  0  0  0  0  0  0
   -2.4677   -1.0591   -5.3203 H   0  0  0  0  0  0  0  0  0  0  0  0
   -1.1601   -0.2790   -4.7301 H   0  0  0  0  0  0  0  0  0  0  0  0
   -2.4589    0.6386   -5.3279 H   0  0  0  0  0  0  0  0  0  0  0  0
   -2.7402   -0.3465   -3.3991 C   0  0  0  0  0  0  0  0  0  0  0  0
   -2.2787    0.3082   -2.8122 H   0  0  0  0  0  0  0  0  0  0  0  0
   -3.7139   -0.1530   -3.4365 H   0  0  0  0  0  0  0  0  0  0  0  0
   -2.5362   -1.7260   -2.8495 N   0  0  0  0  0  4  0  0  0  0  0  0
   -3.3118   -2.2980   -3.1084 H   0  0  0  0  0  0  0  0  0  0  0  0
   -1.6938   -2.1061   -3.2267 H   0  0  0  0  0  0  0  0  0  0  0  0
   -2.4697   -1.6743   -1.8547 H   0  0  0  0  0  0  0  0  0  0  0  0
   -0.0022    2.9027    0.0018 C   0  0  0  0  0  0  0  0  0  0  0  0
   -0.7347    3.2067   -0.5877 H   0  0  0  0  0  0  0  0  0  0  0  0
    0.8769    3.2124   -0.3252 H   0  0  0  0  0  0  0  0  0  0  0  0
   -0.1640    3.3360    0.9888 H   0  0  0  0  0  0  0  0  0  0  0  0
    0.0032    1.4018    0.0002 C   0  0  0  0  0  0  0  0  0  0  0  0
   -1.1978    0.6922   -0.0008 C   0  0  0  0  0  0  0  0  0  0  0  0
   -2.0626    1.1837   -0.0033 H   0  0  0  0  0  0  0  0  0  0  0  0
   -1.2024   -0.6985   -0.0000 C   0  0  0  0  0  0  0  0  0  0  0  0
   -2.0801   -1.1910    0.0020 H   0  0  0  0  0  0  0  0  0  0  0  0
   -0.0037   -1.3943   -0.0007 C   0  0  0  0  0  0  0  0  0  0  0  0
   -0.0049   -2.3931   -0.0026 H   0  0  0  0  0  0  0  0  0  0  0  0
    1.2024   -0.6973    0.0000 C   0  0  0  0  0  0  0  0  0  0  0  0
    2.0815   -1.1952    0.0013 H   0  0  0  0  0  0  0  0  0  0  0  0
    1.1982    0.6961    0.0013 C   0  0  0  0  0  0  0  0  0  0  0  0
    2.0674    1.1906    0.0019 H   0  0  0  0  0  0  0  0  0  0  0  0
  1  5  1  0
  5  8  1  0
  1  2  1  0
  1  3  1  0
  1  4  1  0
  5  6  1  0
  5  7  1  0
  8  9  1  0
  8 10  1  0
  8 11  1  0
 12 16  1  0
 16 17  2  0
 17 19  1  0
 19 21  2  0
 21 23  1  0
 23 25  2  0
 25 16  1  0
 12 13  1  0
 12 14  1  0
 12 15  1  0
 17 18  1  0
 19 20  1  0
 21 22  1  0
 23 24  1  0
 25 26  1  0
M  CHG  1   8   1
M  END
>  <PDB_ID>  (815) 
pdb2pth

>  <RESIDUE_NAME>  (815) 
LYS   PHE

>  <FRAG_NAME>  (815) 
ETAM   MBZ

>  <FRAG_ATOM_NUM>  (815) 
fragi: 11  fragj: 15

>  <atom.prop.CHAIN_ID>  (815) 
A A A A A A A A A A A Z Z Z Z Z Z Z Z Z Z Z Z Z Z Z

>  <atom.prop.IS_HEAVY_ATOM>  (815) 
1 0 0 0 1 0 0 1 0 0 0 1 0 0 0 1 1 0 1 0 1 0 1 0 1 0

>  <DIFUSE_FUNC_ATOM>  (815) 
n/a

>  <FINAL_SINGLE_POINT_ENERGY>  (815) 
0

>  <NONCOV_INTER_ENERGY_QM>  (815) 
0

>  <FF_Energy>  (815) 
-2.72

>  <QM_Energy>  (815) 
-9.3

>  <source>  (815) 
ETAM_MBZ

>  <Index>  (815) 
8021

$$$$
ETAM-pdb2pm6-D-LYS-249:MBZ-pdb2pm6-D-PHE-253
     RDKit          3D

 26 25  0  0  0  0  0  0  0  0999 V2000
   -1.1882   -1.9217    3.5321 C   0  0  0  0  0  0  0  0  0  0  0  0
   -0.9851   -2.1998    4.4637 H   0  0  0  0  0  0  0  0  0  0  0  0
   -0.6871   -2.4829    2.8829 H   0  0  0  0  0  0  0  0  0  0  0  0
   -2.2547   -2.0629    3.3568 H   0  0  0  0  0  0  0  0  0  0  0  0
   -0.8049   -0.4860    3.3472 C   0  0  0  0  0  0  0  0  0  0  0  0
   -1.2949   -0.1073    2.5705 H   0  0  0  0  0  0  0  0  0  0  0  0
   -1.0148    0.0243    4.1739 H   0  0  0  0  0  0  0  0  0  0  0  0
    0.6505   -0.4174    3.0873 N   0  0  0  0  0  4  0  0  0  0  0  0
    1.0484   -1.3322    3.1650 H   0  0  0  0  0  0  0  0  0  0  0  0
    0.8103   -0.0635    2.1646 H   0  0  0  0  0  0  0  0  0  0  0  0
    1.0831    0.1907    3.7552 H   0  0  0  0  0  0  0  0  0  0  0  0
    0.0019    2.8914    0.0283 C   0  0  0  0  0  0  0  0  0  0  0  0
   -0.6403    3.2152   -0.6516 H   0  0  0  0  0  0  0  0  0  0  0  0
    0.9201    3.2051   -0.1683 H   0  0  0  0  0  0  0  0  0  0  0  0
   -0.2927    3.3135    0.9891 H   0  0  0  0  0  0  0  0  0  0  0  0
    0.0005    1.3985    0.0004 C   0  0  0  0  0  0  0  0  0  0  0  0
   -1.1983    0.6921   -0.0006 C   0  0  0  0  0  0  0  0  0  0  0  0
   -2.0639    1.1839   -0.0034 H   0  0  0  0  0  0  0  0  0  0  0  0
   -1.2075   -0.7011   -0.0000 C   0  0  0  0  0  0  0  0  0  0  0  0
   -2.0796   -1.1939    0.0011 H   0  0  0  0  0  0  0  0  0  0  0  0
    0.0014   -1.3948    0.0006 C   0  0  0  0  0  0  0  0  0  0  0  0
    0.0008   -2.3926    0.0013 H   0  0  0  0  0  0  0  0  0  0  0  0
    1.2075   -0.6935   -0.0000 C   0  0  0  0  0  0  0  0  0  0  0  0
    2.0869   -1.1894    0.0010 H   0  0  0  0  0  0  0  0  0  0  0  0
    1.1963    0.6989   -0.0004 C   0  0  0  0  0  0  0  0  0  0  0  0
    2.0642    1.1969   -0.0016 H   0  0  0  0  0  0  0  0  0  0  0  0
  1  5  1  0
  5  8  1  0
  1  2  1  0
  1  3  1  0
  1  4  1  0
  5  6  1  0
  5  7  1  0
  8  9  1  0
  8 10  1  0
  8 11  1  0
 12 16  1  0
 16 17  2  0
 17 19  1  0
 19 21  2  0
 21 23  1  0
 23 25  2  0
 25 16  1  0
 12 13  1  0
 12 14  1  0
 12 15  1  0
 17 18  1  0
 19 20  1  0
 21 22  1  0
 23 24  1  0
 25 26  1  0
M  CHG  1   8   1
M  END
>  <PDB_ID>  (816) 
pdb2pm6

>  <RESIDUE_NAME>  (816) 
LYS   PHE

>  <FRAG_NAME>  (816) 
ETAM   MBZ

>  <FRAG_ATOM_NUM>  (816) 
fragi: 11  fragj: 15

>  <atom.prop.CHAIN_ID>  (816) 
A A A A A A A A A A A Z Z Z Z Z Z Z Z Z Z Z Z Z Z Z

>  <atom.prop.IS_HEAVY_ATOM>  (816) 
1 0 0 0 1 0 0 1 0 0 0 1 0 0 0 1 1 0 1 0 1 0 1 0 1 0

>  <DIFUSE_FUNC_ATOM>  (816) 
n/a

>  <FINAL_SINGLE_POINT_ENERGY>  (816) 
0

>  <NONCOV_INTER_ENERGY_QM>  (816) 
0

>  <FF_Energy>  (816) 
-8.59

>  <QM_Energy>  (816) 
-17.38

>  <source>  (816) 
ETAM_MBZ

>  <Index>  (816) 
8030

$$$$
ETAM-pdb2pux-B-LYS-126:MBZ-pdb2pux-B-PHE-232
     RDKit          3D

 26 25  0  0  0  0  0  0  0  0999 V2000
    2.2268   -4.7276   -2.0954 C   0  0  0  0  0  0  0  0  0  0  0  0
    1.7226   -5.5035   -1.7405 H   0  0  0  0  0  0  0  0  0  0  0  0
    3.1461   -4.9913   -2.3571 H   0  0  0  0  0  0  0  0  0  0  0  0
    1.7064   -4.3391   -2.9707 H   0  0  0  0  0  0  0  0  0  0  0  0
    2.3211   -3.6665   -0.9962 C   0  0  0  0  0  0  0  0  0  0  0  0
    2.8803   -2.8982   -1.3369 H   0  0  0  0  0  0  0  0  0  0  0  0
    1.3935   -3.3156   -0.8057 H   0  0  0  0  0  0  0  0  0  0  0  0
    2.9200   -4.1742    0.2798 N   0  0  0  0  0  4  0  0  0  0  0  0
    3.8298   -3.7805    0.3926 H   0  0  0  0  0  0  0  0  0  0  0  0
    2.3372   -3.9048    1.0439 H   0  0  0  0  0  0  0  0  0  0  0  0
    2.9840   -5.1690    0.2375 H   0  0  0  0  0  0  0  0  0  0  0  0
   -0.0106    2.9158    0.0353 C   0  0  0  0  0  0  0  0  0  0  0  0
   -0.5880    3.2331   -0.6993 H   0  0  0  0  0  0  0  0  0  0  0  0
    0.9200    3.2270   -0.0712 H   0  0  0  0  0  0  0  0  0  0  0  0
   -0.3967    3.3275    0.9678 H   0  0  0  0  0  0  0  0  0  0  0  0
   -0.0024    1.4068    0.0006 C   0  0  0  0  0  0  0  0  0  0  0  0
   -1.2022    0.6934   -0.0006 C   0  0  0  0  0  0  0  0  0  0  0  0
   -2.0686    1.1849   -0.0033 H   0  0  0  0  0  0  0  0  0  0  0  0
   -1.2103   -0.7005   -0.0000 C   0  0  0  0  0  0  0  0  0  0  0  0
   -2.0827   -1.1944    0.0024 H   0  0  0  0  0  0  0  0  0  0  0  0
    0.0013   -1.4031   -0.0009 C   0  0  0  0  0  0  0  0  0  0  0  0
   -0.0006   -2.3963   -0.0030 H   0  0  0  0  0  0  0  0  0  0  0  0
    1.2103   -0.6964    0.0000 C   0  0  0  0  0  0  0  0  0  0  0  0
    2.0889   -1.1933    0.0012 H   0  0  0  0  0  0  0  0  0  0  0  0
    1.2034    0.6998    0.0009 C   0  0  0  0  0  0  0  0  0  0  0  0
    2.0666    1.1983    0.0008 H   0  0  0  0  0  0  0  0  0  0  0  0
  1  5  1  0
  5  8  1  0
  1  2  1  0
  1  3  1  0
  1  4  1  0
  5  6  1  0
  5  7  1  0
  8  9  1  0
  8 10  1  0
  8 11  1  0
 12 16  1  0
 16 17  2  0
 17 19  1  0
 19 21  2  0
 21 23  1  0
 23 25  2  0
 25 16  1  0
 12 13  1  0
 12 14  1  0
 12 15  1  0
 17 18  1  0
 19 20  1  0
 21 22  1  0
 23 24  1  0
 25 26  1  0
M  CHG  1   8   1
M  END
>  <PDB_ID>  (817) 
pdb2pux

>  <RESIDUE_NAME>  (817) 
LYS   PHE

>  <FRAG_NAME>  (817) 
ETAM   MBZ

>  <FRAG_ATOM_NUM>  (817) 
fragi: 11  fragj: 15

>  <atom.prop.CHAIN_ID>  (817) 
A A A A A A A A A A A Z Z Z Z Z Z Z Z Z Z Z Z Z Z Z

>  <atom.prop.IS_HEAVY_ATOM>  (817) 
1 0 0 0 1 0 0 1 0 0 0 1 0 0 0 1 1 0 1 0 1 0 1 0 1 0

>  <DIFUSE_FUNC_ATOM>  (817) 
n/a

>  <FINAL_SINGLE_POINT_ENERGY>  (817) 
0

>  <NONCOV_INTER_ENERGY_QM>  (817) 
0

>  <FF_Energy>  (817) 
4.81

>  <QM_Energy>  (817) 
-2.45

>  <source>  (817) 
ETAM_MBZ

>  <Index>  (817) 
8042

$$$$
ETAM-pdb2ptq-A-LYS-103:MBZ-pdb2ptq-A-PHE-99
     RDKit          3D

 26 25  0  0  0  0  0  0  0  0999 V2000
   -0.7959   -2.6939    4.0291 C   0  0  0  0  0  0  0  0  0  0  0  0
   -0.1629   -3.4627    4.0202 H   0  0  0  0  0  0  0  0  0  0  0  0
   -1.2549   -2.6387    4.9110 H   0  0  0  0  0  0  0  0  0  0  0  0
   -0.2336   -1.7744    3.8664 H   0  0  0  0  0  0  0  0  0  0  0  0
   -1.8433   -2.9154    2.9501 C   0  0  0  0  0  0  0  0  0  0  0  0
   -1.4146   -2.7999    2.0497 H   0  0  0  0  0  0  0  0  0  0  0  0
   -2.1962   -3.8520    3.0242 H   0  0  0  0  0  0  0  0  0  0  0  0
   -2.9839   -1.9562    3.0725 N   0  0  0  0  0  4  0  0  0  0  0  0
   -2.9944   -1.5759    3.9953 H   0  0  0  0  0  0  0  0  0  0  0  0
   -2.8680   -1.2223    2.4059 H   0  0  0  0  0  0  0  0  0  0  0  0
   -3.8396   -2.4398    2.8970 H   0  0  0  0  0  0  0  0  0  0  0  0
    0.0063    2.9167    0.0174 C   0  0  0  0  0  0  0  0  0  0  0  0
   -0.6829    3.2315   -0.6155 H   0  0  0  0  0  0  0  0  0  0  0  0
    0.9080    3.2202   -0.2485 H   0  0  0  0  0  0  0  0  0  0  0  0
   -0.2157    3.3479    0.9935 H   0  0  0  0  0  0  0  0  0  0  0  0
   -0.0004    1.4064   -0.0000 C   0  0  0  0  0  0  0  0  0  0  0  0
   -1.1969    0.6981    0.0000 C   0  0  0  0  0  0  0  0  0  0  0  0
   -2.0645    1.1855   -0.0012 H   0  0  0  0  0  0  0  0  0  0  0  0
   -1.2036   -0.6990   -0.0000 C   0  0  0  0  0  0  0  0  0  0  0  0
   -2.0803   -1.1894    0.0010 H   0  0  0  0  0  0  0  0  0  0  0  0
   -0.0001   -1.3994    0.0002 C   0  0  0  0  0  0  0  0  0  0  0  0
   -0.0063   -2.3966   -0.0003 H   0  0  0  0  0  0  0  0  0  0  0  0
    1.2036   -0.7024   -0.0000 C   0  0  0  0  0  0  0  0  0  0  0  0
    2.0840   -1.1962    0.0012 H   0  0  0  0  0  0  0  0  0  0  0  0
    1.1975    0.6962   -0.0002 C   0  0  0  0  0  0  0  0  0  0  0  0
    2.0664    1.1902   -0.0008 H   0  0  0  0  0  0  0  0  0  0  0  0
  1  5  1  0
  5  8  1  0
  1  2  1  0
  1  3  1  0
  1  4  1  0
  5  6  1  0
  5  7  1  0
  8  9  1  0
  8 10  1  0
  8 11  1  0
 12 16  1  0
 16 17  2  0
 17 19  1  0
 19 21  2  0
 21 23  1  0
 23 25  2  0
 25 16  1  0
 12 13  1  0
 12 14  1  0
 12 15  1  0
 17 18  1  0
 19 20  1  0
 21 22  1  0
 23 24  1  0
 25 26  1  0
M  CHG  1   8   1
M  END
>  <PDB_ID>  (818) 
pdb2ptq

>  <RESIDUE_NAME>  (818) 
LYS   PHE

>  <FRAG_NAME>  (818) 
ETAM   MBZ

>  <FRAG_ATOM_NUM>  (818) 
fragi: 11  fragj: 15

>  <atom.prop.CHAIN_ID>  (818) 
A A A A A A A A A A A Z Z Z Z Z Z Z Z Z Z Z Z Z Z Z

>  <atom.prop.IS_HEAVY_ATOM>  (818) 
1 0 0 0 1 0 0 1 0 0 0 1 0 0 0 1 1 0 1 0 1 0 1 0 1 0

>  <DIFUSE_FUNC_ATOM>  (818) 
n/a

>  <FINAL_SINGLE_POINT_ENERGY>  (818) 
0

>  <NONCOV_INTER_ENERGY_QM>  (818) 
0

>  <FF_Energy>  (818) 
-2.21

>  <QM_Energy>  (818) 
-7.51

>  <source>  (818) 
ETAM_MBZ

>  <Index>  (818) 
8048

$$$$
ETAM-pdb2pux-B-LYS-107:MBZ-pdb2pux-B-PHE-245
     RDKit          3D

 26 25  0  0  0  0  0  0  0  0999 V2000
   -3.1854    0.5226    3.7707 C   0  0  0  0  0  0  0  0  0  0  0  0
   -3.2694    0.9966    2.9030 H   0  0  0  0  0  0  0  0  0  0  0  0
   -2.9035    1.1487    4.4867 H   0  0  0  0  0  0  0  0  0  0  0  0
   -4.1497    0.0881    4.0343 H   0  0  0  0  0  0  0  0  0  0  0  0
   -2.1045   -0.5595    3.6251 C   0  0  0  0  0  0  0  0  0  0  0  0
   -2.1728   -1.1879    4.4002 H   0  0  0  0  0  0  0  0  0  0  0  0
   -2.2661   -1.0623    2.7752 H   0  0  0  0  0  0  0  0  0  0  0  0
   -0.7253    0.0310    3.5917 N   0  0  0  0  0  4  0  0  0  0  0  0
   -0.3510    0.0366    4.5168 H   0  0  0  0  0  0  0  0  0  0  0  0
   -0.1486   -0.5232    2.9951 H   0  0  0  0  0  0  0  0  0  0  0  0
   -0.7792    0.9631    3.2421 H   0  0  0  0  0  0  0  0  0  0  0  0
   -0.0114    2.8875    0.1472 C   0  0  0  0  0  0  0  0  0  0  0  0
    0.8505    3.2311   -0.1976 H   0  0  0  0  0  0  0  0  0  0  0  0
   -0.1239    3.1025    1.1069 H   0  0  0  0  0  0  0  0  0  0  0  0
   -0.8149    3.3755   -0.4046 H   0  0  0  0  0  0  0  0  0  0  0  0
   -0.0088    1.4014    0.0025 C   0  0  0  0  0  0  0  0  0  0  0  0
   -1.1987    0.6922   -0.0052 C   0  0  0  0  0  0  0  0  0  0  0  0
   -2.0689    1.1769   -0.0156 H   0  0  0  0  0  0  0  0  0  0  0  0
   -1.1963   -0.6982   -0.0000 C   0  0  0  0  0  0  0  0  0  0  0  0
   -2.0682   -1.1987    0.0004 H   0  0  0  0  0  0  0  0  0  0  0  0
    0.0143   -1.3927    0.0067 C   0  0  0  0  0  0  0  0  0  0  0  0
    0.0078   -2.3898    0.0160 H   0  0  0  0  0  0  0  0  0  0  0  0
    1.1963   -0.6909   -0.0000 C   0  0  0  0  0  0  0  0  0  0  0  0
    2.0883   -1.1881   -0.0007 H   0  0  0  0  0  0  0  0  0  0  0  0
    1.1931    0.6883   -0.0040 C   0  0  0  0  0  0  0  0  0  0  0  0
    2.0578    1.1919   -0.0126 H   0  0  0  0  0  0  0  0  0  0  0  0
  1  5  1  0
  5  8  1  0
  1  2  1  0
  1  3  1  0
  1  4  1  0
  5  6  1  0
  5  7  1  0
  8  9  1  0
  8 10  1  0
  8 11  1  0
 12 16  1  0
 16 17  2  0
 17 19  1  0
 19 21  2  0
 21 23  1  0
 23 25  2  0
 25 16  1  0
 12 13  1  0
 12 14  1  0
 12 15  1  0
 17 18  1  0
 19 20  1  0
 21 22  1  0
 23 24  1  0
 25 26  1  0
M  CHG  1   8   1
M  END
>  <PDB_ID>  (819) 
pdb2pux

>  <RESIDUE_NAME>  (819) 
LYS   PHE

>  <FRAG_NAME>  (819) 
ETAM   MBZ

>  <FRAG_ATOM_NUM>  (819) 
fragi: 11  fragj: 15

>  <atom.prop.CHAIN_ID>  (819) 
A A A A A A A A A A A Z Z Z Z Z Z Z Z Z Z Z Z Z Z Z

>  <atom.prop.IS_HEAVY_ATOM>  (819) 
1 0 0 0 1 0 0 1 0 0 0 1 0 0 0 1 1 0 1 0 1 0 1 0 1 0

>  <DIFUSE_FUNC_ATOM>  (819) 
n/a

>  <FINAL_SINGLE_POINT_ENERGY>  (819) 
0

>  <NONCOV_INTER_ENERGY_QM>  (819) 
0

>  <FF_Energy>  (819) 
-7.45

>  <QM_Energy>  (819) 
-12.55

>  <source>  (819) 
ETAM_MBZ

>  <Index>  (819) 
8049

$$$$
ETAM-pdb2pvu-A-LYS-301:MBZ-pdb2pvu-B-PHE-31
     RDKit          3D

 26 25  0  0  0  0  0  0  0  0999 V2000
    0.5231   -1.4751    3.6219 C   0  0  0  0  0  0  0  0  0  0  0  0
    0.9523   -1.5365    4.5056 H   0  0  0  0  0  0  0  0  0  0  0  0
    1.1567   -1.6420    2.8883 H   0  0  0  0  0  0  0  0  0  0  0  0
   -0.2692   -2.2220    3.5708 H   0  0  0  0  0  0  0  0  0  0  0  0
   -0.0765   -0.0866    3.4554 C   0  0  0  0  0  0  0  0  0  0  0  0
   -0.4053    0.0350    2.5265 H   0  0  0  0  0  0  0  0  0  0  0  0
   -0.8135    0.0485    4.1071 H   0  0  0  0  0  0  0  0  0  0  0  0
    0.9904    1.0194    3.7214 N   0  0  0  0  0  4  0  0  0  0  0  0
    0.7548    1.4585    4.5743 H   0  0  0  0  0  0  0  0  0  0  0  0
    1.8712    0.5742    3.7759 H   0  0  0  0  0  0  0  0  0  0  0  0
    0.9532    1.6548    2.9658 H   0  0  0  0  0  0  0  0  0  0  0  0
   -0.0089    2.9224    0.0223 C   0  0  0  0  0  0  0  0  0  0  0  0
    0.4767    3.2225    0.8313 H   0  0  0  0  0  0  0  0  0  0  0  0
   -0.9526    3.2234    0.0420 H   0  0  0  0  0  0  0  0  0  0  0  0
    0.4672    3.3904   -0.8393 H   0  0  0  0  0  0  0  0  0  0  0  0
   -0.0002    1.4142    0.0048 C   0  0  0  0  0  0  0  0  0  0  0  0
   -1.2050    0.7153   -0.0089 C   0  0  0  0  0  0  0  0  0  0  0  0
   -2.0687    1.2002   -0.0265 H   0  0  0  0  0  0  0  0  0  0  0  0
   -1.2236   -0.7034   -0.0000 C   0  0  0  0  0  0  0  0  0  0  0  0
   -2.0999   -1.1803    0.0053 H   0  0  0  0  0  0  0  0  0  0  0  0
   -0.0141   -1.4125    0.0025 C   0  0  0  0  0  0  0  0  0  0  0  0
   -0.0150   -2.4044    0.0059 H   0  0  0  0  0  0  0  0  0  0  0  0
    1.2236   -0.7099   -0.0000 C   0  0  0  0  0  0  0  0  0  0  0  0
    2.0871   -1.2136   -0.0017 H   0  0  0  0  0  0  0  0  0  0  0  0
    1.2193    0.6963    0.0015 C   0  0  0  0  0  0  0  0  0  0  0  0
    2.0780    1.1937   -0.0006 H   0  0  0  0  0  0  0  0  0  0  0  0
  1  5  1  0
  5  8  1  0
  1  2  1  0
  1  3  1  0
  1  4  1  0
  5  6  1  0
  5  7  1  0
  8  9  1  0
  8 10  1  0
  8 11  1  0
 12 16  1  0
 16 17  2  0
 17 19  1  0
 19 21  2  0
 21 23  1  0
 23 25  2  0
 25 16  1  0
 12 13  1  0
 12 14  1  0
 12 15  1  0
 17 18  1  0
 19 20  1  0
 21 22  1  0
 23 24  1  0
 25 26  1  0
M  CHG  1   8   1
M  END
>  <PDB_ID>  (820) 
pdb2pvu

>  <RESIDUE_NAME>  (820) 
LYS   PHE

>  <FRAG_NAME>  (820) 
ETAM   MBZ

>  <FRAG_ATOM_NUM>  (820) 
fragi: 11  fragj: 15

>  <atom.prop.CHAIN_ID>  (820) 
A A A A A A A A A A A Z Z Z Z Z Z Z Z Z Z Z Z Z Z Z

>  <atom.prop.IS_HEAVY_ATOM>  (820) 
1 0 0 0 1 0 0 1 0 0 0 1 0 0 0 1 1 0 1 0 1 0 1 0 1 0

>  <DIFUSE_FUNC_ATOM>  (820) 
n/a

>  <FINAL_SINGLE_POINT_ENERGY>  (820) 
0

>  <NONCOV_INTER_ENERGY_QM>  (820) 
0

>  <FF_Energy>  (820) 
-6.76

>  <QM_Energy>  (820) 
-12.54

>  <source>  (820) 
ETAM_MBZ

>  <Index>  (820) 
8068

$$$$
ETAM-pdb2pyw-B-LYS-362:MBZ-pdb2pyw-B-PHE-266
     RDKit          3D

 26 25  0  0  0  0  0  0  0  0999 V2000
   -1.2482   -2.6371    3.7018 C   0  0  0  0  0  0  0  0  0  0  0  0
   -1.1795   -3.6130    3.8731 H   0  0  0  0  0  0  0  0  0  0  0  0
   -1.8000   -2.4616    2.8950 H   0  0  0  0  0  0  0  0  0  0  0  0
   -1.6491   -2.1160    4.5712 H   0  0  0  0  0  0  0  0  0  0  0  0
    0.1291   -2.1134    3.4440 C   0  0  0  0  0  0  0  0  0  0  0  0
    0.0717   -1.2853    2.9104 H   0  0  0  0  0  0  0  0  0  0  0  0
    0.5906   -1.9630    4.3026 H   0  0  0  0  0  0  0  0  0  0  0  0
    0.8192   -3.1508    2.6824 N   0  0  0  0  0  4  0  0  0  0  0  0
    0.8856   -2.8835    1.7165 H   0  0  0  0  0  0  0  0  0  0  0  0
    1.7457   -3.2872    3.0455 H   0  0  0  0  0  0  0  0  0  0  0  0
    0.3162   -4.0176    2.7451 H   0  0  0  0  0  0  0  0  0  0  0  0
    0.0017    2.9297    0.0410 C   0  0  0  0  0  0  0  0  0  0  0  0
   -0.7638    3.2454   -0.4920 H   0  0  0  0  0  0  0  0  0  0  0  0
    0.8605    3.2407   -0.3258 H   0  0  0  0  0  0  0  0  0  0  0  0
   -0.0998    3.3279    1.0506 H   0  0  0  0  0  0  0  0  0  0  0  0
    0.0016    1.4133   -0.0055 C   0  0  0  0  0  0  0  0  0  0  0  0
   -1.2093    0.7049    0.0185 C   0  0  0  0  0  0  0  0  0  0  0  0
   -2.0696    1.1916    0.0474 H   0  0  0  0  0  0  0  0  0  0  0  0
   -1.2170   -0.7046    0.0000 C   0  0  0  0  0  0  0  0  0  0  0  0
   -2.0866   -1.1950   -0.0075 H   0  0  0  0  0  0  0  0  0  0  0  0
    0.0034   -1.4119   -0.0056 C   0  0  0  0  0  0  0  0  0  0  0  0
    0.0008   -2.4012   -0.0135 H   0  0  0  0  0  0  0  0  0  0  0  0
    1.2170   -0.6990   -0.0000 C   0  0  0  0  0  0  0  0  0  0  0  0
    2.0948   -1.1949    0.0106 H   0  0  0  0  0  0  0  0  0  0  0  0
    1.2043    0.6973   -0.0074 C   0  0  0  0  0  0  0  0  0  0  0  0
    2.0720    1.1972   -0.0149 H   0  0  0  0  0  0  0  0  0  0  0  0
  1  5  1  0
  5  8  1  0
  1  2  1  0
  1  3  1  0
  1  4  1  0
  5  6  1  0
  5  7  1  0
  8  9  1  0
  8 10  1  0
  8 11  1  0
 12 16  1  0
 16 17  2  0
 17 19  1  0
 19 21  2  0
 21 23  1  0
 23 25  2  0
 25 16  1  0
 12 13  1  0
 12 14  1  0
 12 15  1  0
 17 18  1  0
 19 20  1  0
 21 22  1  0
 23 24  1  0
 25 26  1  0
M  CHG  1   8   1
M  END
>  <PDB_ID>  (821) 
pdb2pyw

>  <RESIDUE_NAME>  (821) 
LYS   PHE

>  <FRAG_NAME>  (821) 
ETAM   MBZ

>  <FRAG_ATOM_NUM>  (821) 
fragi: 11  fragj: 15

>  <atom.prop.CHAIN_ID>  (821) 
A A A A A A A A A A A Z Z Z Z Z Z Z Z Z Z Z Z Z Z Z

>  <atom.prop.IS_HEAVY_ATOM>  (821) 
1 0 0 0 1 0 0 1 0 0 0 1 0 0 0 1 1 0 1 0 1 0 1 0 1 0

>  <DIFUSE_FUNC_ATOM>  (821) 
n/a

>  <FINAL_SINGLE_POINT_ENERGY>  (821) 
0

>  <NONCOV_INTER_ENERGY_QM>  (821) 
0

>  <FF_Energy>  (821) 
-2.79

>  <QM_Energy>  (821) 
-10.62

>  <source>  (821) 
ETAM_MBZ

>  <Index>  (821) 
8112

$$$$
ETAM-pdb2pyx-A-LYS-88:MBZ-pdb2pyx-A-PHE-112
     RDKit          3D

 26 25  0  0  0  0  0  0  0  0999 V2000
    2.6089   -4.0898   -1.5668 C   0  0  0  0  0  0  0  0  0  0  0  0
    3.0224   -4.9521   -1.8357 H   0  0  0  0  0  0  0  0  0  0  0  0
    2.6279   -3.9871   -0.5790 H   0  0  0  0  0  0  0  0  0  0  0  0
    3.1746   -3.2737   -2.0165 H   0  0  0  0  0  0  0  0  0  0  0  0
    1.1806   -4.0646   -2.0345 C   0  0  0  0  0  0  0  0  0  0  0  0
    0.8100   -3.1493   -1.9260 H   0  0  0  0  0  0  0  0  0  0  0  0
    1.1351   -4.3484   -2.9861 H   0  0  0  0  0  0  0  0  0  0  0  0
    0.3808   -5.0148   -1.2055 N   0  0  0  0  0  4  0  0  0  0  0  0
    0.9926   -5.6902   -0.7967 H   0  0  0  0  0  0  0  0  0  0  0  0
   -0.0899   -4.5068   -0.4852 H   0  0  0  0  0  0  0  0  0  0  0  0
   -0.2896   -5.4749   -1.7868 H   0  0  0  0  0  0  0  0  0  0  0  0
    0.0520    2.8915   -0.0054 C   0  0  0  0  0  0  0  0  0  0  0  0
    0.8986    3.1901   -0.4269 H   0  0  0  0  0  0  0  0  0  0  0  0
    0.0093    3.1794    0.9428 H   0  0  0  0  0  0  0  0  0  0  0  0
   -0.7699    3.3733   -0.5351 H   0  0  0  0  0  0  0  0  0  0  0  0
    0.0223    1.3892   -0.0372 C   0  0  0  0  0  0  0  0  0  0  0  0
   -1.1910    0.7079    0.0101 C   0  0  0  0  0  0  0  0  0  0  0  0
   -2.0412    1.2157    0.0499 H   0  0  0  0  0  0  0  0  0  0  0  0
   -1.2069   -0.6687   -0.0000 C   0  0  0  0  0  0  0  0  0  0  0  0
   -2.0985   -1.1526   -0.0286 H   0  0  0  0  0  0  0  0  0  0  0  0
   -0.0356   -1.3741    0.0301 C   0  0  0  0  0  0  0  0  0  0  0  0
   -0.0475   -2.3802    0.0737 H   0  0  0  0  0  0  0  0  0  0  0  0
    1.2069   -0.7139    0.0000 C   0  0  0  0  0  0  0  0  0  0  0  0
    2.0567   -1.2358   -0.0168 H   0  0  0  0  0  0  0  0  0  0  0  0
    1.2043    0.6596   -0.0029 C   0  0  0  0  0  0  0  0  0  0  0  0
    2.0817    1.1587    0.0197 H   0  0  0  0  0  0  0  0  0  0  0  0
  1  5  1  0
  5  8  1  0
  1  2  1  0
  1  3  1  0
  1  4  1  0
  5  6  1  0
  5  7  1  0
  8  9  1  0
  8 10  1  0
  8 11  1  0
 12 16  1  0
 16 17  2  0
 17 19  1  0
 19 21  2  0
 21 23  1  0
 23 25  2  0
 25 16  1  0
 12 13  1  0
 12 14  1  0
 12 15  1  0
 17 18  1  0
 19 20  1  0
 21 22  1  0
 23 24  1  0
 25 26  1  0
M  CHG  1   8   1
M  END
>  <PDB_ID>  (822) 
pdb2pyx

>  <RESIDUE_NAME>  (822) 
LYS   PHE

>  <FRAG_NAME>  (822) 
ETAM   MBZ

>  <FRAG_ATOM_NUM>  (822) 
fragi: 11  fragj: 15

>  <atom.prop.CHAIN_ID>  (822) 
A A A A A A A A A A A Z Z Z Z Z Z Z Z Z Z Z Z Z Z Z

>  <atom.prop.IS_HEAVY_ATOM>  (822) 
1 0 0 0 1 0 0 1 0 0 0 1 0 0 0 1 1 0 1 0 1 0 1 0 1 0

>  <DIFUSE_FUNC_ATOM>  (822) 
n/a

>  <FINAL_SINGLE_POINT_ENERGY>  (822) 
0

>  <NONCOV_INTER_ENERGY_QM>  (822) 
0

>  <FF_Energy>  (822) 
0.32

>  <QM_Energy>  (822) 
-4.73

>  <source>  (822) 
ETAM_MBZ

>  <Index>  (822) 
8115

$$$$
ETAM-pdb1lq8-E-LYS-162:MBZ-pdb1lq8-E-PHE-185
     RDKit          3D

 26 25  0  0  0  0  0  0  0  0999 V2000
    0.2071    0.0561   -3.1846 C   0  0  0  0  0  0  0  0  0  0  0  0
   -0.6838    0.4704   -3.3486 H   0  0  0  0  0  0  0  0  0  0  0  0
    0.4994    0.2332   -2.2489 H   0  0  0  0  0  0  0  0  0  0  0  0
    0.1269   -1.0208   -3.3322 H   0  0  0  0  0  0  0  0  0  0  0  0
    1.2168    0.6884   -4.1339 C   0  0  0  0  0  0  0  0  0  0  0  0
    0.9177    0.5184   -5.0810 H   0  0  0  0  0  0  0  0  0  0  0  0
    1.2238    1.6840   -3.9796 H   0  0  0  0  0  0  0  0  0  0  0  0
    2.5832    0.1541   -3.9477 N   0  0  0  0  0  4  0  0  0  0  0  0
    2.5446   -0.6875   -3.4069 H   0  0  0  0  0  0  0  0  0  0  0  0
    2.9911   -0.0439   -4.8399 H   0  0  0  0  0  0  0  0  0  0  0  0
    3.1464    0.8295   -3.4685 H   0  0  0  0  0  0  0  0  0  0  0  0
   -0.0020    2.8874    0.0771 C   0  0  0  0  0  0  0  0  0  0  0  0
   -0.6572    3.2311   -0.5780 H   0  0  0  0  0  0  0  0  0  0  0  0
    0.9109    3.2096   -0.1214 H   0  0  0  0  0  0  0  0  0  0  0  0
   -0.2832    3.2635    1.0607 H   0  0  0  0  0  0  0  0  0  0  0  0
   -0.0008    1.4018    0.0010 C   0  0  0  0  0  0  0  0  0  0  0  0
   -1.1957    0.6988   -0.0013 C   0  0  0  0  0  0  0  0  0  0  0  0
   -2.0629    1.1853   -0.0051 H   0  0  0  0  0  0  0  0  0  0  0  0
   -1.2010   -0.6989    0.0000 C   0  0  0  0  0  0  0  0  0  0  0  0
   -2.0781   -1.1885    0.0017 H   0  0  0  0  0  0  0  0  0  0  0  0
    0.0002   -1.3949    0.0010 C   0  0  0  0  0  0  0  0  0  0  0  0
   -0.0046   -2.3943    0.0016 H   0  0  0  0  0  0  0  0  0  0  0  0
    1.2010   -0.6995    0.0000 C   0  0  0  0  0  0  0  0  0  0  0  0
    2.0820   -1.1967    0.0015 H   0  0  0  0  0  0  0  0  0  0  0  0
    1.1963    0.6927   -0.0006 C   0  0  0  0  0  0  0  0  0  0  0  0
    2.0644    1.1886   -0.0033 H   0  0  0  0  0  0  0  0  0  0  0  0
  1  5  1  0
  5  8  1  0
  1  2  1  0
  1  3  1  0
  1  4  1  0
  5  6  1  0
  5  7  1  0
  8  9  1  0
  8 10  1  0
  8 11  1  0
 12 16  1  0
 16 17  2  0
 17 19  1  0
 19 21  2  0
 21 23  1  0
 23 25  2  0
 25 16  1  0
 12 13  1  0
 12 14  1  0
 12 15  1  0
 17 18  1  0
 19 20  1  0
 21 22  1  0
 23 24  1  0
 25 26  1  0
M  CHG  1   8   1
M  END
>  <PDB_ID>  (823) 
pdb1lq8

>  <RESIDUE_NAME>  (823) 
LYS   PHE

>  <FRAG_NAME>  (823) 
ETAM   MBZ

>  <FRAG_ATOM_NUM>  (823) 
fragi: 11  fragj: 15

>  <atom.prop.CHAIN_ID>  (823) 
A A A A A A A A A A A Z Z Z Z Z Z Z Z Z Z Z Z Z Z Z

>  <atom.prop.IS_HEAVY_ATOM>  (823) 
1 0 0 0 1 0 0 1 0 0 0 1 0 0 0 1 1 0 1 0 1 0 1 0 1 0

>  <DIFUSE_FUNC_ATOM>  (823) 
n/a

>  <FINAL_SINGLE_POINT_ENERGY>  (823) 
0

>  <NONCOV_INTER_ENERGY_QM>  (823) 
0

>  <FF_Energy>  (823) 
-1.15

>  <QM_Energy>  (823) 
-7.19

>  <source>  (823) 
ETAM_MBZ

>  <Index>  (823) 
8119

$$$$
ETAM-pdb2pzh-D-LYS-108:MBZ-pdb2pzh-D-PHE-79
     RDKit          3D

 26 25  0  0  0  0  0  0  0  0999 V2000
   -1.5557    1.2125   -4.7007 C   0  0  0  0  0  0  0  0  0  0  0  0
   -2.1011    0.4318   -5.0034 H   0  0  0  0  0  0  0  0  0  0  0  0
   -1.2666    1.7476   -5.4938 H   0  0  0  0  0  0  0  0  0  0  0  0
   -2.1808    1.8431   -4.0685 H   0  0  0  0  0  0  0  0  0  0  0  0
   -0.3202    0.6965   -3.9840 C   0  0  0  0  0  0  0  0  0  0  0  0
   -0.5854   -0.0485   -3.3811 H   0  0  0  0  0  0  0  0  0  0  0  0
    0.3344    0.3748   -4.6613 H   0  0  0  0  0  0  0  0  0  0  0  0
    0.2745    1.7887   -3.1954 N   0  0  0  0  0  4  0  0  0  0  0  0
    0.9002    1.4104   -2.5100 H   0  0  0  0  0  0  0  0  0  0  0  0
    0.7824    2.4062   -3.7999 H   0  0  0  0  0  0  0  0  0  0  0  0
   -0.4483    2.3046   -2.7315 H   0  0  0  0  0  0  0  0  0  0  0  0
    0.0010    2.9061   -0.0202 C   0  0  0  0  0  0  0  0  0  0  0  0
   -0.7652    3.2058   -0.5724 H   0  0  0  0  0  0  0  0  0  0  0  0
    0.8598    3.2060   -0.4129 H   0  0  0  0  0  0  0  0  0  0  0  0
   -0.0949    3.3763    0.9585 H   0  0  0  0  0  0  0  0  0  0  0  0
   -0.0012    1.4034    0.0056 C   0  0  0  0  0  0  0  0  0  0  0  0
   -1.1967    0.6917    0.0008 C   0  0  0  0  0  0  0  0  0  0  0  0
   -2.0651    1.1823   -0.0030 H   0  0  0  0  0  0  0  0  0  0  0  0
   -1.2051   -0.7011    0.0000 C   0  0  0  0  0  0  0  0  0  0  0  0
   -2.0789   -1.1943    0.0047 H   0  0  0  0  0  0  0  0  0  0  0  0
    0.0015   -1.3994   -0.0047 C   0  0  0  0  0  0  0  0  0  0  0  0
    0.0029   -2.3930   -0.0118 H   0  0  0  0  0  0  0  0  0  0  0  0
    1.2051   -0.6910    0.0000 C   0  0  0  0  0  0  0  0  0  0  0  0
    2.0864   -1.1897    0.0063 H   0  0  0  0  0  0  0  0  0  0  0  0
    1.1964    0.6964   -0.0017 C   0  0  0  0  0  0  0  0  0  0  0  0
    2.0635    1.1970   -0.0090 H   0  0  0  0  0  0  0  0  0  0  0  0
  1  5  1  0
  5  8  1  0
  1  2  1  0
  1  3  1  0
  1  4  1  0
  5  6  1  0
  5  7  1  0
  8  9  1  0
  8 10  1  0
  8 11  1  0
 12 16  1  0
 16 17  2  0
 17 19  1  0
 19 21  2  0
 21 23  1  0
 23 25  2  0
 25 16  1  0
 12 13  1  0
 12 14  1  0
 12 15  1  0
 17 18  1  0
 19 20  1  0
 21 22  1  0
 23 24  1  0
 25 26  1  0
M  CHG  1   8   1
M  END
>  <PDB_ID>  (824) 
pdb2pzh

>  <RESIDUE_NAME>  (824) 
LYS   PHE

>  <FRAG_NAME>  (824) 
ETAM   MBZ

>  <FRAG_ATOM_NUM>  (824) 
fragi: 11  fragj: 15

>  <atom.prop.CHAIN_ID>  (824) 
A A A A A A A A A A A Z Z Z Z Z Z Z Z Z Z Z Z Z Z Z

>  <atom.prop.IS_HEAVY_ATOM>  (824) 
1 0 0 0 1 0 0 1 0 0 0 1 0 0 0 1 1 0 1 0 1 0 1 0 1 0

>  <DIFUSE_FUNC_ATOM>  (824) 
n/a

>  <FINAL_SINGLE_POINT_ENERGY>  (824) 
0

>  <NONCOV_INTER_ENERGY_QM>  (824) 
0

>  <FF_Energy>  (824) 
-7.19

>  <QM_Energy>  (824) 
-12.88

>  <source>  (824) 
ETAM_MBZ

>  <Index>  (824) 
8124

$$$$
ETAM-pdb2pzz-B-LYS-16:MBZ-pdb2pzz-B-PHE-34
     RDKit          3D

 26 25  0  0  0  0  0  0  0  0999 V2000
   -0.0743    0.0432   -4.3782 C   0  0  0  0  0  0  0  0  0  0  0  0
    0.4896    0.4084   -5.1105 H   0  0  0  0  0  0  0  0  0  0  0  0
   -0.2861    0.7502   -3.7137 H   0  0  0  0  0  0  0  0  0  0  0  0
   -1.0062   -0.3273   -4.8055 H   0  0  0  0  0  0  0  0  0  0  0  0
    0.6968   -1.0686   -3.6775 C   0  0  0  0  0  0  0  0  0  0  0  0
    0.1728   -1.3703   -2.8748 H   0  0  0  0  0  0  0  0  0  0  0  0
    0.7936   -1.8433   -4.3090 H   0  0  0  0  0  0  0  0  0  0  0  0
    2.0490   -0.6237   -3.2388 N   0  0  0  0  0  4  0  0  0  0  0  0
    2.7347   -0.9674   -3.8800 H   0  0  0  0  0  0  0  0  0  0  0  0
    2.0792    0.3749   -3.2195 H   0  0  0  0  0  0  0  0  0  0  0  0
    2.2352   -0.9829   -2.3244 H   0  0  0  0  0  0  0  0  0  0  0  0
    0.0011    2.9061    0.0149 C   0  0  0  0  0  0  0  0  0  0  0  0
   -0.6490    3.2204   -0.6601 H   0  0  0  0  0  0  0  0  0  0  0  0
    0.9167    3.2150   -0.1934 H   0  0  0  0  0  0  0  0  0  0  0  0
   -0.2835    3.3340    0.9762 H   0  0  0  0  0  0  0  0  0  0  0  0
    0.0008    1.4033   -0.0018 C   0  0  0  0  0  0  0  0  0  0  0  0
   -1.1981    0.6932    0.0005 C   0  0  0  0  0  0  0  0  0  0  0  0
   -2.0636    1.1838    0.0008 H   0  0  0  0  0  0  0  0  0  0  0  0
   -1.2033   -0.6994   -0.0000 C   0  0  0  0  0  0  0  0  0  0  0  0
   -2.0794   -1.1929   -0.0007 H   0  0  0  0  0  0  0  0  0  0  0  0
   -0.0002   -1.3954    0.0019 C   0  0  0  0  0  0  0  0  0  0  0  0
   -0.0023   -2.3936    0.0047 H   0  0  0  0  0  0  0  0  0  0  0  0
    1.2033   -0.6967   -0.0000 C   0  0  0  0  0  0  0  0  0  0  0  0
    2.0831   -1.1938    0.0007 H   0  0  0  0  0  0  0  0  0  0  0  0
    1.1976    0.6952   -0.0005 C   0  0  0  0  0  0  0  0  0  0  0  0
    2.0654    1.1918   -0.0005 H   0  0  0  0  0  0  0  0  0  0  0  0
  1  5  1  0
  5  8  1  0
  1  2  1  0
  1  3  1  0
  1  4  1  0
  5  6  1  0
  5  7  1  0
  8  9  1  0
  8 10  1  0
  8 11  1  0
 12 16  1  0
 16 17  2  0
 17 19  1  0
 19 21  2  0
 21 23  1  0
 23 25  2  0
 25 16  1  0
 12 13  1  0
 12 14  1  0
 12 15  1  0
 17 18  1  0
 19 20  1  0
 21 22  1  0
 23 24  1  0
 25 26  1  0
M  CHG  1   8   1
M  END
>  <PDB_ID>  (825) 
pdb2pzz

>  <RESIDUE_NAME>  (825) 
LYS   PHE

>  <FRAG_NAME>  (825) 
ETAM   MBZ

>  <FRAG_ATOM_NUM>  (825) 
fragi: 11  fragj: 15

>  <atom.prop.CHAIN_ID>  (825) 
A A A A A A A A A A A Z Z Z Z Z Z Z Z Z Z Z Z Z Z Z

>  <atom.prop.IS_HEAVY_ATOM>  (825) 
1 0 0 0 1 0 0 1 0 0 0 1 0 0 0 1 1 0 1 0 1 0 1 0 1 0

>  <DIFUSE_FUNC_ATOM>  (825) 
n/a

>  <FINAL_SINGLE_POINT_ENERGY>  (825) 
0

>  <NONCOV_INTER_ENERGY_QM>  (825) 
0

>  <FF_Energy>  (825) 
-5.56

>  <QM_Energy>  (825) 
-12.32

>  <source>  (825) 
ETAM_MBZ

>  <Index>  (825) 
8136

$$$$
ETAM-pdb1m08-B-LYS-498:MBZ-pdb1m08-B-PHE-489
     RDKit          3D

 26 25  0  0  0  0  0  0  0  0999 V2000
   -4.5325   -0.6081   -0.4513 C   0  0  0  0  0  0  0  0  0  0  0  0
   -3.6061   -0.3387   -0.2039 H   0  0  0  0  0  0  0  0  0  0  0  0
   -4.5172   -1.4598   -0.9655 H   0  0  0  0  0  0  0  0  0  0  0  0
   -5.1169   -0.7496    0.4578 H   0  0  0  0  0  0  0  0  0  0  0  0
   -5.1289    0.4785   -1.3378 C   0  0  0  0  0  0  0  0  0  0  0  0
   -5.1338    1.3429   -0.8339 H   0  0  0  0  0  0  0  0  0  0  0  0
   -4.5618    0.5770   -2.1570 H   0  0  0  0  0  0  0  0  0  0  0  0
   -6.5265    0.1438   -1.7472 N   0  0  0  0  0  4  0  0  0  0  0  0
   -6.8299   -0.6675   -1.2488 H   0  0  0  0  0  0  0  0  0  0  0  0
   -7.1254    0.9145   -1.5336 H   0  0  0  0  0  0  0  0  0  0  0  0
   -6.5468   -0.0359   -2.7290 H   0  0  0  0  0  0  0  0  0  0  0  0
   -0.0064    2.8923   -0.1352 C   0  0  0  0  0  0  0  0  0  0  0  0
    0.8696    3.2323    0.1612 H   0  0  0  0  0  0  0  0  0  0  0  0
   -0.7445    3.2508    0.4103 H   0  0  0  0  0  0  0  0  0  0  0  0
   -0.1612    3.2238   -1.1619 H   0  0  0  0  0  0  0  0  0  0  0  0
   -0.0026    1.4036   -0.0021 C   0  0  0  0  0  0  0  0  0  0  0  0
   -1.2003    0.6979    0.0010 C   0  0  0  0  0  0  0  0  0  0  0  0
   -2.0662    1.1898    0.0029 H   0  0  0  0  0  0  0  0  0  0  0  0
   -1.2070   -0.6920    0.0000 C   0  0  0  0  0  0  0  0  0  0  0  0
   -2.0802   -1.1886    0.0032 H   0  0  0  0  0  0  0  0  0  0  0  0
    0.0036   -1.3986   -0.0030 C   0  0  0  0  0  0  0  0  0  0  0  0
   -0.0092   -2.3950   -0.0073 H   0  0  0  0  0  0  0  0  0  0  0  0
    1.2070   -0.7055    0.0000 C   0  0  0  0  0  0  0  0  0  0  0  0
    2.0870   -1.1975    0.0008 H   0  0  0  0  0  0  0  0  0  0  0  0
    1.1993    0.6946    0.0041 C   0  0  0  0  0  0  0  0  0  0  0  0
    2.0657    1.1902    0.0109 H   0  0  0  0  0  0  0  0  0  0  0  0
  1  5  1  0
  5  8  1  0
  1  2  1  0
  1  3  1  0
  1  4  1  0
  5  6  1  0
  5  7  1  0
  8  9  1  0
  8 10  1  0
  8 11  1  0
 12 16  1  0
 16 17  2  0
 17 19  1  0
 19 21  2  0
 21 23  1  0
 23 25  2  0
 25 16  1  0
 12 13  1  0
 12 14  1  0
 12 15  1  0
 17 18  1  0
 19 20  1  0
 21 22  1  0
 23 24  1  0
 25 26  1  0
M  CHG  1   8   1
M  END
>  <PDB_ID>  (826) 
pdb1m08

>  <RESIDUE_NAME>  (826) 
LYS   PHE

>  <FRAG_NAME>  (826) 
ETAM   MBZ

>  <FRAG_ATOM_NUM>  (826) 
fragi: 11  fragj: 15

>  <atom.prop.CHAIN_ID>  (826) 
A A A A A A A A A A A Z Z Z Z Z Z Z Z Z Z Z Z Z Z Z

>  <atom.prop.IS_HEAVY_ATOM>  (826) 
1 0 0 0 1 0 0 1 0 0 0 1 0 0 0 1 1 0 1 0 1 0 1 0 1 0

>  <DIFUSE_FUNC_ATOM>  (826) 
n/a

>  <FINAL_SINGLE_POINT_ENERGY>  (826) 
0

>  <NONCOV_INTER_ENERGY_QM>  (826) 
0

>  <FF_Energy>  (826) 
6.47

>  <QM_Energy>  (826) 
0.19

>  <source>  (826) 
ETAM_MBZ

>  <Index>  (826) 
8148

$$$$
ETAM-pdb2pyx-A-LYS-154:MBZ-pdb2pyx-A-PHE-522
     RDKit          3D

 26 25  0  0  0  0  0  0  0  0999 V2000
   -0.5767   -2.2994    3.4019 C   0  0  0  0  0  0  0  0  0  0  0  0
   -0.2300   -2.6242    4.2868 H   0  0  0  0  0  0  0  0  0  0  0  0
    0.1277   -2.4516    2.7028 H   0  0  0  0  0  0  0  0  0  0  0  0
   -1.4642   -2.8752    3.1393 H   0  0  0  0  0  0  0  0  0  0  0  0
   -0.8311   -0.8050    3.5073 C   0  0  0  0  0  0  0  0  0  0  0  0
   -1.1570   -0.4586    2.6226 H   0  0  0  0  0  0  0  0  0  0  0  0
   -1.5383   -0.6344    4.1998 H   0  0  0  0  0  0  0  0  0  0  0  0
    0.4139   -0.0151    3.8969 N   0  0  0  0  0  4  0  0  0  0  0  0
    0.8985   -0.5219    4.6011 H   0  0  0  0  0  0  0  0  0  0  0  0
    0.9824    0.0913    3.0893 H   0  0  0  0  0  0  0  0  0  0  0  0
    0.1271    0.8714    4.2412 H   0  0  0  0  0  0  0  0  0  0  0  0
   -0.0209    2.9005   -0.0148 C   0  0  0  0  0  0  0  0  0  0  0  0
    0.9159    3.2147    0.0658 H   0  0  0  0  0  0  0  0  0  0  0  0
   -0.5637    3.2034    0.7579 H   0  0  0  0  0  0  0  0  0  0  0  0
   -0.4439    3.3529   -0.9117 H   0  0  0  0  0  0  0  0  0  0  0  0
   -0.0115    1.4011   -0.0201 C   0  0  0  0  0  0  0  0  0  0  0  0
   -1.2014    0.6889    0.0188 C   0  0  0  0  0  0  0  0  0  0  0  0
   -2.0703    1.1763    0.0594 H   0  0  0  0  0  0  0  0  0  0  0  0
   -1.2001   -0.6966   -0.0000 C   0  0  0  0  0  0  0  0  0  0  0  0
   -2.0676   -1.2007   -0.0238 H   0  0  0  0  0  0  0  0  0  0  0  0
    0.0154   -1.3897    0.0156 C   0  0  0  0  0  0  0  0  0  0  0  0
    0.0046   -2.3901    0.0381 H   0  0  0  0  0  0  0  0  0  0  0  0
    1.2001   -0.6958    0.0000 C   0  0  0  0  0  0  0  0  0  0  0  0
    2.0898   -1.1900    0.0007 H   0  0  0  0  0  0  0  0  0  0  0  0
    1.1975    0.6921   -0.0144 C   0  0  0  0  0  0  0  0  0  0  0  0
    2.0585    1.1940   -0.0219 H   0  0  0  0  0  0  0  0  0  0  0  0
  1  5  1  0
  5  8  1  0
  1  2  1  0
  1  3  1  0
  1  4  1  0
  5  6  1  0
  5  7  1  0
  8  9  1  0
  8 10  1  0
  8 11  1  0
 12 16  1  0
 16 17  2  0
 17 19  1  0
 19 21  2  0
 21 23  1  0
 23 25  2  0
 25 16  1  0
 12 13  1  0
 12 14  1  0
 12 15  1  0
 17 18  1  0
 19 20  1  0
 21 22  1  0
 23 24  1  0
 25 26  1  0
M  CHG  1   8   1
M  END
>  <PDB_ID>  (827) 
pdb2pyx

>  <RESIDUE_NAME>  (827) 
LYS   PHE

>  <FRAG_NAME>  (827) 
ETAM   MBZ

>  <FRAG_ATOM_NUM>  (827) 
fragi: 11  fragj: 15

>  <atom.prop.CHAIN_ID>  (827) 
A A A A A A A A A A A Z Z Z Z Z Z Z Z Z Z Z Z Z Z Z

>  <atom.prop.IS_HEAVY_ATOM>  (827) 
1 0 0 0 1 0 0 1 0 0 0 1 0 0 0 1 1 0 1 0 1 0 1 0 1 0

>  <DIFUSE_FUNC_ATOM>  (827) 
n/a

>  <FINAL_SINGLE_POINT_ENERGY>  (827) 
0

>  <NONCOV_INTER_ENERGY_QM>  (827) 
0

>  <FF_Energy>  (827) 
-6.58

>  <QM_Energy>  (827) 
-11.89

>  <source>  (827) 
ETAM_MBZ

>  <Index>  (827) 
8149

$$$$
ETAM-pdb2q0k-A-LYS-86:MBZ-pdb2q0k-A-PHE-91
     RDKit          3D

 26 25  0  0  0  0  0  0  0  0999 V2000
    1.2161   -2.2250    4.0675 C   0  0  0  0  0  0  0  0  0  0  0  0
    1.4028   -2.7096    3.2231 H   0  0  0  0  0  0  0  0  0  0  0  0
    1.8187   -2.5312    4.7922 H   0  0  0  0  0  0  0  0  0  0  0  0
    1.3609   -1.1567    3.9072 H   0  0  0  0  0  0  0  0  0  0  0  0
   -0.2239   -2.5159    4.4826 C   0  0  0  0  0  0  0  0  0  0  0  0
   -0.2933   -3.4878    4.7431 H   0  0  0  0  0  0  0  0  0  0  0  0
   -0.4440   -1.9589    5.2940 H   0  0  0  0  0  0  0  0  0  0  0  0
   -1.2121   -2.2258    3.4095 N   0  0  0  0  0  4  0  0  0  0  0  0
   -2.1059   -2.0469    3.8205 H   0  0  0  0  0  0  0  0  0  0  0  0
   -0.9152   -1.4231    2.8919 H   0  0  0  0  0  0  0  0  0  0  0  0
   -1.2775   -3.0129    2.7970 H   0  0  0  0  0  0  0  0  0  0  0  0
    0.0145    2.8684    0.0104 C   0  0  0  0  0  0  0  0  0  0  0  0
   -0.7951    3.1930   -0.4528 H   0  0  0  0  0  0  0  0  0  0  0  0
    0.8379    3.1773   -0.4395 H   0  0  0  0  0  0  0  0  0  0  0  0
    0.0104    3.2811    1.0193 H   0  0  0  0  0  0  0  0  0  0  0  0
    0.0002    1.3871   -0.0032 C   0  0  0  0  0  0  0  0  0  0  0  0
   -1.1985    0.6921    0.0092 C   0  0  0  0  0  0  0  0  0  0  0  0
   -2.0601    1.1906    0.0235 H   0  0  0  0  0  0  0  0  0  0  0  0
   -1.2026   -0.6815   -0.0000 C   0  0  0  0  0  0  0  0  0  0  0  0
   -2.0797   -1.1818   -0.0164 H   0  0  0  0  0  0  0  0  0  0  0  0
   -0.0067   -1.3743    0.0143 C   0  0  0  0  0  0  0  0  0  0  0  0
   -0.0141   -2.3785    0.0348 H   0  0  0  0  0  0  0  0  0  0  0  0
    1.2026   -0.6932    0.0000 C   0  0  0  0  0  0  0  0  0  0  0  0
    2.0746   -1.2107    0.0066 H   0  0  0  0  0  0  0  0  0  0  0  0
    1.2050    0.6697   -0.0203 C   0  0  0  0  0  0  0  0  0  0  0  0
    2.0673    1.1791   -0.0486 H   0  0  0  0  0  0  0  0  0  0  0  0
  1  5  1  0
  5  8  1  0
  1  2  1  0
  1  3  1  0
  1  4  1  0
  5  6  1  0
  5  7  1  0
  8  9  1  0
  8 10  1  0
  8 11  1  0
 12 16  1  0
 16 17  2  0
 17 19  1  0
 19 21  2  0
 21 23  1  0
 23 25  2  0
 25 16  1  0
 12 13  1  0
 12 14  1  0
 12 15  1  0
 17 18  1  0
 19 20  1  0
 21 22  1  0
 23 24  1  0
 25 26  1  0
M  CHG  1   8   1
M  END
>  <PDB_ID>  (828) 
pdb2q0k

>  <RESIDUE_NAME>  (828) 
LYS   PHE

>  <FRAG_NAME>  (828) 
ETAM   MBZ

>  <FRAG_ATOM_NUM>  (828) 
fragi: 11  fragj: 15

>  <atom.prop.CHAIN_ID>  (828) 
A A A A A A A A A A A Z Z Z Z Z Z Z Z Z Z Z Z Z Z Z

>  <atom.prop.IS_HEAVY_ATOM>  (828) 
1 0 0 0 1 0 0 1 0 0 0 1 0 0 0 1 1 0 1 0 1 0 1 0 1 0

>  <DIFUSE_FUNC_ATOM>  (828) 
n/a

>  <FINAL_SINGLE_POINT_ENERGY>  (828) 
0

>  <NONCOV_INTER_ENERGY_QM>  (828) 
0

>  <FF_Energy>  (828) 
-4.08

>  <QM_Energy>  (828) 
-9.6

>  <source>  (828) 
ETAM_MBZ

>  <Index>  (828) 
8155

$$$$
ETAM-pdb2q0k-B-LYS-144:MBZ-pdb2q0k-B-PHE-140
     RDKit          3D

 26 25  0  0  0  0  0  0  0  0999 V2000
    1.7007   -0.4221    5.2503 C   0  0  0  0  0  0  0  0  0  0  0  0
    2.0842    0.3314    4.7344 H   0  0  0  0  0  0  0  0  0  0  0  0
    2.1067   -1.2837    4.9782 H   0  0  0  0  0  0  0  0  0  0  0  0
    1.9003   -0.2585    6.3093 H   0  0  0  0  0  0  0  0  0  0  0  0
    0.1960   -0.4843    4.9770 C   0  0  0  0  0  0  0  0  0  0  0  0
   -0.2003   -1.2236    5.5323 H   0  0  0  0  0  0  0  0  0  0  0  0
   -0.2175    0.3866    5.2623 H   0  0  0  0  0  0  0  0  0  0  0  0
   -0.1133   -0.7284    3.5420 N   0  0  0  0  0  4  0  0  0  0  0  0
    0.2820   -1.6027    3.2614 H   0  0  0  0  0  0  0  0  0  0  0  0
   -1.1048   -0.7536    3.4158 H   0  0  0  0  0  0  0  0  0  0  0  0
    0.2758    0.0076    2.9891 H   0  0  0  0  0  0  0  0  0  0  0  0
   -0.0005    2.8949    0.0024 C   0  0  0  0  0  0  0  0  0  0  0  0
   -0.5463    3.2009   -0.7622 H   0  0  0  0  0  0  0  0  0  0  0  0
    0.9360    3.1995   -0.0777 H   0  0  0  0  0  0  0  0  0  0  0  0
   -0.4190    3.3290    0.9104 H   0  0  0  0  0  0  0  0  0  0  0  0
   -0.0017    1.3950    0.0022 C   0  0  0  0  0  0  0  0  0  0  0  0
   -1.1937    0.6916    0.0016 C   0  0  0  0  0  0  0  0  0  0  0  0
   -2.0612    1.1839    0.0015 H   0  0  0  0  0  0  0  0  0  0  0  0
   -1.1976   -0.6900   -0.0000 C   0  0  0  0  0  0  0  0  0  0  0  0
   -2.0727   -1.1883    0.0065 H   0  0  0  0  0  0  0  0  0  0  0  0
    0.0038   -1.3848   -0.0084 C   0  0  0  0  0  0  0  0  0  0  0  0
   -0.0063   -2.3873   -0.0216 H   0  0  0  0  0  0  0  0  0  0  0  0
    1.1976   -0.6991   -0.0000 C   0  0  0  0  0  0  0  0  0  0  0  0
    2.0801   -1.1951    0.0043 H   0  0  0  0  0  0  0  0  0  0  0  0
    1.1916    0.6873    0.0046 C   0  0  0  0  0  0  0  0  0  0  0  0
    2.0616    1.1851    0.0088 H   0  0  0  0  0  0  0  0  0  0  0  0
  1  5  1  0
  5  8  1  0
  1  2  1  0
  1  3  1  0
  1  4  1  0
  5  6  1  0
  5  7  1  0
  8  9  1  0
  8 10  1  0
  8 11  1  0
 12 16  1  0
 16 17  2  0
 17 19  1  0
 19 21  2  0
 21 23  1  0
 23 25  2  0
 25 16  1  0
 12 13  1  0
 12 14  1  0
 12 15  1  0
 17 18  1  0
 19 20  1  0
 21 22  1  0
 23 24  1  0
 25 26  1  0
M  CHG  1   8   1
M  END
>  <PDB_ID>  (829) 
pdb2q0k

>  <RESIDUE_NAME>  (829) 
LYS   PHE

>  <FRAG_NAME>  (829) 
ETAM   MBZ

>  <FRAG_ATOM_NUM>  (829) 
fragi: 11  fragj: 15

>  <atom.prop.CHAIN_ID>  (829) 
A A A A A A A A A A A Z Z Z Z Z Z Z Z Z Z Z Z Z Z Z

>  <atom.prop.IS_HEAVY_ATOM>  (829) 
1 0 0 0 1 0 0 1 0 0 0 1 0 0 0 1 1 0 1 0 1 0 1 0 1 0

>  <DIFUSE_FUNC_ATOM>  (829) 
n/a

>  <FINAL_SINGLE_POINT_ENERGY>  (829) 
0

>  <NONCOV_INTER_ENERGY_QM>  (829) 
0

>  <FF_Energy>  (829) 
-6.9

>  <QM_Energy>  (829) 
-12.53

>  <source>  (829) 
ETAM_MBZ

>  <Index>  (829) 
8158

$$$$
ETAM-pdb2q0k-B-LYS-189:MBZ-pdb2q0k-B-PHE-196
     RDKit          3D

 26 25  0  0  0  0  0  0  0  0999 V2000
   -0.2571   -0.5865   -3.9239 C   0  0  0  0  0  0  0  0  0  0  0  0
   -0.7104   -0.0689   -4.6455 H   0  0  0  0  0  0  0  0  0  0  0  0
   -0.6983   -0.4072   -3.0475 H   0  0  0  0  0  0  0  0  0  0  0  0
   -0.3391   -1.6499   -4.1487 H   0  0  0  0  0  0  0  0  0  0  0  0
    1.1882   -0.1352   -3.8396 C   0  0  0  0  0  0  0  0  0  0  0  0
    1.6777   -0.7212   -3.1946 H   0  0  0  0  0  0  0  0  0  0  0  0
    1.6092   -0.2109   -4.7437 H   0  0  0  0  0  0  0  0  0  0  0  0
    1.2799    1.2815   -3.3772 N   0  0  0  0  0  4  0  0  0  0  0  0
    0.8655    1.8794   -4.0623 H   0  0  0  0  0  0  0  0  0  0  0  0
    0.7949    1.3765   -2.5094 H   0  0  0  0  0  0  0  0  0  0  0  0
    2.2401    1.5264   -3.2543 H   0  0  0  0  0  0  0  0  0  0  0  0
    0.0043    2.9008   -0.0161 C   0  0  0  0  0  0  0  0  0  0  0  0
   -0.4984    3.1971   -0.8153 H   0  0  0  0  0  0  0  0  0  0  0  0
    0.9453    3.2045   -0.0527 H   0  0  0  0  0  0  0  0  0  0  0  0
   -0.4591    3.3611    0.8566 H   0  0  0  0  0  0  0  0  0  0  0  0
    0.0012    1.3973    0.0050 C   0  0  0  0  0  0  0  0  0  0  0  0
   -1.1929    0.6902   -0.0042 C   0  0  0  0  0  0  0  0  0  0  0  0
   -2.0604    1.1775   -0.0150 H   0  0  0  0  0  0  0  0  0  0  0  0
   -1.1927   -0.6990    0.0000 C   0  0  0  0  0  0  0  0  0  0  0  0
   -2.0709   -1.1942    0.0019 H   0  0  0  0  0  0  0  0  0  0  0  0
    0.0038   -1.3885    0.0031 C   0  0  0  0  0  0  0  0  0  0  0  0
    0.0017   -2.3895    0.0069 H   0  0  0  0  0  0  0  0  0  0  0  0
    1.1927   -0.6931    0.0000 C   0  0  0  0  0  0  0  0  0  0  0  0
    2.0805   -1.1882    0.0024 H   0  0  0  0  0  0  0  0  0  0  0  0
    1.1878    0.6931   -0.0039 C   0  0  0  0  0  0  0  0  0  0  0  0
    2.0605    1.1881   -0.0142 H   0  0  0  0  0  0  0  0  0  0  0  0
  1  5  1  0
  5  8  1  0
  1  2  1  0
  1  3  1  0
  1  4  1  0
  5  6  1  0
  5  7  1  0
  8  9  1  0
  8 10  1  0
  8 11  1  0
 12 16  1  0
 16 17  2  0
 17 19  1  0
 19 21  2  0
 21 23  1  0
 23 25  2  0
 25 16  1  0
 12 13  1  0
 12 14  1  0
 12 15  1  0
 17 18  1  0
 19 20  1  0
 21 22  1  0
 23 24  1  0
 25 26  1  0
M  CHG  1   8   1
M  END
>  <PDB_ID>  (830) 
pdb2q0k

>  <RESIDUE_NAME>  (830) 
LYS   PHE

>  <FRAG_NAME>  (830) 
ETAM   MBZ

>  <FRAG_ATOM_NUM>  (830) 
fragi: 11  fragj: 15

>  <atom.prop.CHAIN_ID>  (830) 
A A A A A A A A A A A Z Z Z Z Z Z Z Z Z Z Z Z Z Z Z

>  <atom.prop.IS_HEAVY_ATOM>  (830) 
1 0 0 0 1 0 0 1 0 0 0 1 0 0 0 1 1 0 1 0 1 0 1 0 1 0

>  <DIFUSE_FUNC_ATOM>  (830) 
n/a

>  <FINAL_SINGLE_POINT_ENERGY>  (830) 
0

>  <NONCOV_INTER_ENERGY_QM>  (830) 
0

>  <FF_Energy>  (830) 
-7.59

>  <QM_Energy>  (830) 
-13.28

>  <source>  (830) 
ETAM_MBZ

>  <Index>  (830) 
8159

$$$$
ETAM-pdb2q14-F-LYS-188:MBZ-pdb2q14-H-PHE-15
     RDKit          3D

 26 25  0  0  0  0  0  0  0  0999 V2000
   -0.7876    0.9556   -3.4501 C   0  0  0  0  0  0  0  0  0  0  0  0
   -0.3846    0.1596   -3.0433 H   0  0  0  0  0  0  0  0  0  0  0  0
   -0.5564    1.7827   -2.9784 H   0  0  0  0  0  0  0  0  0  0  0  0
   -0.4888    1.0280   -4.4959 H   0  0  0  0  0  0  0  0  0  0  0  0
   -2.3129    0.7932   -3.4101 C   0  0  0  0  0  0  0  0  0  0  0  0
   -2.7133    1.6464   -3.0718 H   0  0  0  0  0  0  0  0  0  0  0  0
   -2.6379    0.6240   -4.3417 H   0  0  0  0  0  0  0  0  0  0  0  0
   -2.7143   -0.3278   -2.5318 N   0  0  0  0  0  4  0  0  0  0  0  0
   -3.5296   -0.0714   -2.0112 H   0  0  0  0  0  0  0  0  0  0  0  0
   -2.9174   -1.1341   -3.0885 H   0  0  0  0  0  0  0  0  0  0  0  0
   -1.9698   -0.5414   -1.8973 H   0  0  0  0  0  0  0  0  0  0  0  0
    0.0059    2.8996    0.0546 C   0  0  0  0  0  0  0  0  0  0  0  0
   -0.6339    3.2306   -0.6098 H   0  0  0  0  0  0  0  0  0  0  0  0
    0.9215    3.2066   -0.1123 H   0  0  0  0  0  0  0  0  0  0  0  0
   -0.3010    3.2682    1.0334 H   0  0  0  0  0  0  0  0  0  0  0  0
    0.0047    1.3830   -0.0134 C   0  0  0  0  0  0  0  0  0  0  0  0
   -1.1923    0.6768    0.0097 C   0  0  0  0  0  0  0  0  0  0  0  0
   -2.0554    1.1791    0.0323 H   0  0  0  0  0  0  0  0  0  0  0  0
   -1.1927   -0.6856   -0.0000 C   0  0  0  0  0  0  0  0  0  0  0  0
   -2.0702   -1.1922   -0.0020 H   0  0  0  0  0  0  0  0  0  0  0  0
    0.0004   -1.3744   -0.0056 C   0  0  0  0  0  0  0  0  0  0  0  0
   -0.0023   -2.3771   -0.0145 H   0  0  0  0  0  0  0  0  0  0  0  0
    1.1927   -0.6832    0.0000 C   0  0  0  0  0  0  0  0  0  0  0  0
    2.0752   -1.1891   -0.0016 H   0  0  0  0  0  0  0  0  0  0  0  0
    1.1872    0.6833    0.0092 C   0  0  0  0  0  0  0  0  0  0  0  0
    2.0586    1.1869    0.0317 H   0  0  0  0  0  0  0  0  0  0  0  0
  1  5  1  0
  5  8  1  0
  1  2  1  0
  1  3  1  0
  1  4  1  0
  5  6  1  0
  5  7  1  0
  8  9  1  0
  8 10  1  0
  8 11  1  0
 12 16  1  0
 16 17  2  0
 17 19  1  0
 19 21  2  0
 21 23  1  0
 23 25  2  0
 25 16  1  0
 12 13  1  0
 12 14  1  0
 12 15  1  0
 17 18  1  0
 19 20  1  0
 21 22  1  0
 23 24  1  0
 25 26  1  0
M  CHG  1   8   1
M  END
>  <PDB_ID>  (831) 
pdb2q14

>  <RESIDUE_NAME>  (831) 
LYS   PHE

>  <FRAG_NAME>  (831) 
ETAM   MBZ

>  <FRAG_ATOM_NUM>  (831) 
fragi: 11  fragj: 15

>  <atom.prop.CHAIN_ID>  (831) 
A A A A A A A A A A A Z Z Z Z Z Z Z Z Z Z Z Z Z Z Z

>  <atom.prop.IS_HEAVY_ATOM>  (831) 
1 0 0 0 1 0 0 1 0 0 0 1 0 0 0 1 1 0 1 0 1 0 1 0 1 0

>  <DIFUSE_FUNC_ATOM>  (831) 
n/a

>  <FINAL_SINGLE_POINT_ENERGY>  (831) 
0

>  <NONCOV_INTER_ENERGY_QM>  (831) 
0

>  <FF_Energy>  (831) 
-3.49

>  <QM_Energy>  (831) 
-11.76

>  <source>  (831) 
ETAM_MBZ

>  <Index>  (831) 
8196

$$$$
ETAM-pdb1m4u-A-LYS-174:MBZ-pdb1m4u-A-PHE-78
     RDKit          3D

 26 25  0  0  0  0  0  0  0  0999 V2000
    2.4823   -0.2206    4.3307 C   0  0  0  0  0  0  0  0  0  0  0  0
    2.5683   -0.6262    3.4039 H   0  0  0  0  0  0  0  0  0  0  0  0
    2.9470   -0.8515    4.9762 H   0  0  0  0  0  0  0  0  0  0  0  0
    3.0034    0.7366    4.3421 H   0  0  0  0  0  0  0  0  0  0  0  0
    1.1349   -0.0701    4.6765 C   0  0  0  0  0  0  0  0  0  0  0  0
    0.9591   -0.3441    5.6357 H   0  0  0  0  0  0  0  0  0  0  0  0
    0.8242    0.8885    4.5743 H   0  0  0  0  0  0  0  0  0  0  0  0
    0.2903   -0.9080    3.8107 N   0  0  0  0  0  4  0  0  0  0  0  0
   -0.5309   -1.1933    4.3100 H   0  0  0  0  0  0  0  0  0  0  0  0
    0.0167   -0.3895    2.9980 H   0  0  0  0  0  0  0  0  0  0  0  0
    0.7997   -1.7221    3.5238 H   0  0  0  0  0  0  0  0  0  0  0  0
    0.0050    2.8521    0.0029 C   0  0  0  0  0  0  0  0  0  0  0  0
   -0.7492    3.1850   -0.5448 H   0  0  0  0  0  0  0  0  0  0  0  0
    0.8713    3.1780   -0.3476 H   0  0  0  0  0  0  0  0  0  0  0  0
   -0.1152    3.2689    1.0029 H   0  0  0  0  0  0  0  0  0  0  0  0
   -0.0003    1.3998   -0.0024 C   0  0  0  0  0  0  0  0  0  0  0  0
   -1.1966    0.7065   -0.0093 C   0  0  0  0  0  0  0  0  0  0  0  0
   -2.0617    1.1924   -0.0217 H   0  0  0  0  0  0  0  0  0  0  0  0
   -1.2005   -0.6914    0.0000 C   0  0  0  0  0  0  0  0  0  0  0  0
   -2.0717   -1.1898   -0.0075 H   0  0  0  0  0  0  0  0  0  0  0  0
    0.0210   -1.4122    0.0221 C   0  0  0  0  0  0  0  0  0  0  0  0
    0.0008   -2.3981    0.0522 H   0  0  0  0  0  0  0  0  0  0  0  0
    1.2005   -0.7044   -0.0000 C   0  0  0  0  0  0  0  0  0  0  0  0
    2.0946   -1.1776   -0.0075 H   0  0  0  0  0  0  0  0  0  0  0  0
    1.1760    0.7017   -0.0104 C   0  0  0  0  0  0  0  0  0  0  0  0
    2.0556    1.1917   -0.0245 H   0  0  0  0  0  0  0  0  0  0  0  0
  1  5  1  0
  5  8  1  0
  1  2  1  0
  1  3  1  0
  1  4  1  0
  5  6  1  0
  5  7  1  0
  8  9  1  0
  8 10  1  0
  8 11  1  0
 12 16  1  0
 16 17  2  0
 17 19  1  0
 19 21  2  0
 21 23  1  0
 23 25  2  0
 25 16  1  0
 12 13  1  0
 12 14  1  0
 12 15  1  0
 17 18  1  0
 19 20  1  0
 21 22  1  0
 23 24  1  0
 25 26  1  0
M  CHG  1   8   1
M  END
>  <PDB_ID>  (832) 
pdb1m4u

>  <RESIDUE_NAME>  (832) 
LYS   PHE

>  <FRAG_NAME>  (832) 
ETAM   MBZ

>  <FRAG_ATOM_NUM>  (832) 
fragi: 11  fragj: 15

>  <atom.prop.CHAIN_ID>  (832) 
A A A A A A A A A A A Z Z Z Z Z Z Z Z Z Z Z Z Z Z Z

>  <atom.prop.IS_HEAVY_ATOM>  (832) 
1 0 0 0 1 0 0 1 0 0 0 1 0 0 0 1 1 0 1 0 1 0 1 0 1 0

>  <DIFUSE_FUNC_ATOM>  (832) 
n/a

>  <FINAL_SINGLE_POINT_ENERGY>  (832) 
0

>  <NONCOV_INTER_ENERGY_QM>  (832) 
0

>  <FF_Energy>  (832) 
-6.26

>  <QM_Energy>  (832) 
-11.38

>  <source>  (832) 
ETAM_MBZ

>  <Index>  (832) 
8212

$$$$
ETAM-pdb1m56-A-LYS-308:MBZ-pdb1m56-B-PHE-94
     RDKit          3D

 26 25  0  0  0  0  0  0  0  0999 V2000
    0.3277   -1.5507    5.1719 C   0  0  0  0  0  0  0  0  0  0  0  0
    1.2699   -1.3847    4.9826 H   0  0  0  0  0  0  0  0  0  0  0  0
    0.0929   -2.4965    5.2015 H   0  0  0  0  0  0  0  0  0  0  0  0
    0.0695   -1.0887    6.1248 H   0  0  0  0  0  0  0  0  0  0  0  0
   -0.5181   -0.8640    4.1168 C   0  0  0  0  0  0  0  0  0  0  0  0
   -1.2676   -0.3818    4.5660 H   0  0  0  0  0  0  0  0  0  0  0  0
    0.0510   -0.2126    3.6183 H   0  0  0  0  0  0  0  0  0  0  0  0
   -1.0653   -1.8616    3.1769 N   0  0  0  0  0  4  0  0  0  0  0  0
   -2.0002   -1.6072    2.9207 H   0  0  0  0  0  0  0  0  0  0  0  0
   -0.4959   -1.8983    2.3543 H   0  0  0  0  0  0  0  0  0  0  0  0
   -1.0767   -2.7645    3.6106 H   0  0  0  0  0  0  0  0  0  0  0  0
   -0.0449    2.8905    0.0032 C   0  0  0  0  0  0  0  0  0  0  0  0
   -0.8577    3.1682   -0.4761 H   0  0  0  0  0  0  0  0  0  0  0  0
    0.7740    3.2185   -0.4304 H   0  0  0  0  0  0  0  0  0  0  0  0
   -0.0856    3.3043    1.0108 H   0  0  0  0  0  0  0  0  0  0  0  0
    0.0020    1.3838    0.0014 C   0  0  0  0  0  0  0  0  0  0  0  0
   -1.1916    0.6835   -0.0046 C   0  0  0  0  0  0  0  0  0  0  0  0
   -2.0556    1.1629   -0.0136 H   0  0  0  0  0  0  0  0  0  0  0  0
   -1.1716   -0.7034   -0.0000 C   0  0  0  0  0  0  0  0  0  0  0  0
   -2.0655   -1.1994    0.0055 H   0  0  0  0  0  0  0  0  0  0  0  0
    0.0003   -1.3981   -0.0008 C   0  0  0  0  0  0  0  0  0  0  0  0
    0.0137   -2.3877   -0.0024 H   0  0  0  0  0  0  0  0  0  0  0  0
    1.1716   -0.6734    0.0000 C   0  0  0  0  0  0  0  0  0  0  0  0
    2.0746   -1.1755   -0.0014 H   0  0  0  0  0  0  0  0  0  0  0  0
    1.1892    0.7075    0.0039 C   0  0  0  0  0  0  0  0  0  0  0  0
    2.0539    1.1947    0.0076 H   0  0  0  0  0  0  0  0  0  0  0  0
  1  5  1  0
  5  8  1  0
  1  2  1  0
  1  3  1  0
  1  4  1  0
  5  6  1  0
  5  7  1  0
  8  9  1  0
  8 10  1  0
  8 11  1  0
 12 16  1  0
 16 17  2  0
 17 19  1  0
 19 21  2  0
 21 23  1  0
 23 25  2  0
 25 16  1  0
 12 13  1  0
 12 14  1  0
 12 15  1  0
 17 18  1  0
 19 20  1  0
 21 22  1  0
 23 24  1  0
 25 26  1  0
M  CHG  1   8   1
M  END
>  <PDB_ID>  (833) 
pdb1m56

>  <RESIDUE_NAME>  (833) 
LYS   PHE

>  <FRAG_NAME>  (833) 
ETAM   MBZ

>  <FRAG_ATOM_NUM>  (833) 
fragi: 11  fragj: 15

>  <atom.prop.CHAIN_ID>  (833) 
A A A A A A A A A A A Z Z Z Z Z Z Z Z Z Z Z Z Z Z Z

>  <atom.prop.IS_HEAVY_ATOM>  (833) 
1 0 0 0 1 0 0 1 0 0 0 1 0 0 0 1 1 0 1 0 1 0 1 0 1 0

>  <DIFUSE_FUNC_ATOM>  (833) 
n/a

>  <FINAL_SINGLE_POINT_ENERGY>  (833) 
0

>  <NONCOV_INTER_ENERGY_QM>  (833) 
0

>  <FF_Energy>  (833) 
-5.21

>  <QM_Energy>  (833) 
-12.31

>  <source>  (833) 
ETAM_MBZ

>  <Index>  (833) 
8233

$$$$
ETAM-pdb1m56-G-LYS-308:MBZ-pdb1m56-H-PHE-94
     RDKit          3D

 26 25  0  0  0  0  0  0  0  0999 V2000
    0.8101   -1.4988    5.0663 C   0  0  0  0  0  0  0  0  0  0  0  0
    1.7880   -1.4863    4.9275 H   0  0  0  0  0  0  0  0  0  0  0  0
    0.4691   -2.4192    5.1704 H   0  0  0  0  0  0  0  0  0  0  0  0
    0.5765   -0.9332    5.9683 H   0  0  0  0  0  0  0  0  0  0  0  0
    0.1354   -0.8590    3.8615 C   0  0  0  0  0  0  0  0  0  0  0  0
   -0.5028   -0.1629    4.1762 H   0  0  0  0  0  0  0  0  0  0  0  0
    0.8302   -0.4491    3.2781 H   0  0  0  0  0  0  0  0  0  0  0  0
   -0.6122   -1.8932    3.0822 N   0  0  0  0  0  4  0  0  0  0  0  0
   -0.0342   -2.6998    2.9689 H   0  0  0  0  0  0  0  0  0  0  0  0
   -1.4431   -2.1398    3.5775 H   0  0  0  0  0  0  0  0  0  0  0  0
   -0.8508   -1.5209    2.1868 H   0  0  0  0  0  0  0  0  0  0  0  0
    0.0236    2.8874   -0.0147 C   0  0  0  0  0  0  0  0  0  0  0  0
   -0.7610    3.1998   -0.5551 H   0  0  0  0  0  0  0  0  0  0  0  0
    0.8693    3.1798   -0.4665 H   0  0  0  0  0  0  0  0  0  0  0  0
   -0.0226    3.3842    0.9544 H   0  0  0  0  0  0  0  0  0  0  0  0
    0.0046    1.3955   -0.0018 C   0  0  0  0  0  0  0  0  0  0  0  0
   -1.1869    0.7008   -0.0019 C   0  0  0  0  0  0  0  0  0  0  0  0
   -2.0532    1.1988   -0.0047 H   0  0  0  0  0  0  0  0  0  0  0  0
   -1.1980   -0.6749    0.0000 C   0  0  0  0  0  0  0  0  0  0  0  0
   -2.0874   -1.1659    0.0007 H   0  0  0  0  0  0  0  0  0  0  0  0
   -0.0172   -1.3905    0.0027 C   0  0  0  0  0  0  0  0  0  0  0  0
   -0.0310   -2.3866    0.0061 H   0  0  0  0  0  0  0  0  0  0  0  0
    1.1980   -0.7076    0.0000 C   0  0  0  0  0  0  0  0  0  0  0  0
    2.0687   -1.2160   -0.0015 H   0  0  0  0  0  0  0  0  0  0  0  0
    1.1995    0.6766    0.0009 C   0  0  0  0  0  0  0  0  0  0  0  0
    2.0692    1.1731    0.0023 H   0  0  0  0  0  0  0  0  0  0  0  0
  1  5  1  0
  5  8  1  0
  1  2  1  0
  1  3  1  0
  1  4  1  0
  5  6  1  0
  5  7  1  0
  8  9  1  0
  8 10  1  0
  8 11  1  0
 12 16  1  0
 16 17  2  0
 17 19  1  0
 19 21  2  0
 21 23  1  0
 23 25  2  0
 25 16  1  0
 12 13  1  0
 12 14  1  0
 12 15  1  0
 17 18  1  0
 19 20  1  0
 21 22  1  0
 23 24  1  0
 25 26  1  0
M  CHG  1   8   1
M  END
>  <PDB_ID>  (834) 
pdb1m56

>  <RESIDUE_NAME>  (834) 
LYS   PHE

>  <FRAG_NAME>  (834) 
ETAM   MBZ

>  <FRAG_ATOM_NUM>  (834) 
fragi: 11  fragj: 15

>  <atom.prop.CHAIN_ID>  (834) 
A A A A A A A A A A A Z Z Z Z Z Z Z Z Z Z Z Z Z Z Z

>  <atom.prop.IS_HEAVY_ATOM>  (834) 
1 0 0 0 1 0 0 1 0 0 0 1 0 0 0 1 1 0 1 0 1 0 1 0 1 0

>  <DIFUSE_FUNC_ATOM>  (834) 
n/a

>  <FINAL_SINGLE_POINT_ENERGY>  (834) 
0

>  <NONCOV_INTER_ENERGY_QM>  (834) 
0

>  <FF_Energy>  (834) 
-6.05

>  <QM_Energy>  (834) 
-13.9

>  <source>  (834) 
ETAM_MBZ

>  <Index>  (834) 
8234

$$$$
ETAM-pdb1m5x-B-LYS-273:MBZ-pdb1m5x-B-PHE-255
     RDKit          3D

 26 25  0  0  0  0  0  0  0  0999 V2000
    1.4598    0.9545   -2.9871 C   0  0  0  0  0  0  0  0  0  0  0  0
    1.0373    1.7945   -3.3033 H   0  0  0  0  0  0  0  0  0  0  0  0
    1.7891    1.0545   -2.0569 H   0  0  0  0  0  0  0  0  0  0  0  0
    0.7213    0.1535   -3.0184 H   0  0  0  0  0  0  0  0  0  0  0  0
    2.6400    0.6342   -3.8887 C   0  0  0  0  0  0  0  0  0  0  0  0
    3.0755   -0.2115   -3.5670 H   0  0  0  0  0  0  0  0  0  0  0  0
    2.3054    0.4896   -4.8241 H   0  0  0  0  0  0  0  0  0  0  0  0
    3.6474    1.7303   -3.8953 N   0  0  0  0  0  4  0  0  0  0  0  0
    4.4811    1.4173   -3.4403 H   0  0  0  0  0  0  0  0  0  0  0  0
    3.8560    1.9832   -4.8398 H   0  0  0  0  0  0  0  0  0  0  0  0
    3.2787    2.5222   -3.4100 H   0  0  0  0  0  0  0  0  0  0  0  0
   -0.0014    2.9074    0.0132 C   0  0  0  0  0  0  0  0  0  0  0  0
   -0.6554    3.2230   -0.6574 H   0  0  0  0  0  0  0  0  0  0  0  0
    0.9131    3.2153   -0.2023 H   0  0  0  0  0  0  0  0  0  0  0  0
   -0.2782    3.3384    0.9753 H   0  0  0  0  0  0  0  0  0  0  0  0
   -0.0036    1.4041   -0.0034 C   0  0  0  0  0  0  0  0  0  0  0  0
   -1.1986    0.6960   -0.0007 C   0  0  0  0  0  0  0  0  0  0  0  0
   -2.0665    1.1836   -0.0007 H   0  0  0  0  0  0  0  0  0  0  0  0
   -1.2013   -0.6979    0.0000 C   0  0  0  0  0  0  0  0  0  0  0  0
   -2.0744   -1.1939   -0.0002 H   0  0  0  0  0  0  0  0  0  0  0  0
    0.0075   -1.3966    0.0031 C   0  0  0  0  0  0  0  0  0  0  0  0
   -0.0007   -2.3942    0.0067 H   0  0  0  0  0  0  0  0  0  0  0  0
    1.2013   -0.6998   -0.0000 C   0  0  0  0  0  0  0  0  0  0  0  0
    2.0869   -1.1921   -0.0016 H   0  0  0  0  0  0  0  0  0  0  0  0
    1.1948    0.6941    0.0010 C   0  0  0  0  0  0  0  0  0  0  0  0
    2.0627    1.1910    0.0043 H   0  0  0  0  0  0  0  0  0  0  0  0
  1  5  1  0
  5  8  1  0
  1  2  1  0
  1  3  1  0
  1  4  1  0
  5  6  1  0
  5  7  1  0
  8  9  1  0
  8 10  1  0
  8 11  1  0
 12 16  1  0
 16 17  2  0
 17 19  1  0
 19 21  2  0
 21 23  1  0
 23 25  2  0
 25 16  1  0
 12 13  1  0
 12 14  1  0
 12 15  1  0
 17 18  1  0
 19 20  1  0
 21 22  1  0
 23 24  1  0
 25 26  1  0
M  CHG  1   8   1
M  END
>  <PDB_ID>  (835) 
pdb1m5x

>  <RESIDUE_NAME>  (835) 
LYS   PHE

>  <FRAG_NAME>  (835) 
ETAM   MBZ

>  <FRAG_ATOM_NUM>  (835) 
fragi: 11  fragj: 15

>  <atom.prop.CHAIN_ID>  (835) 
A A A A A A A A A A A Z Z Z Z Z Z Z Z Z Z Z Z Z Z Z

>  <atom.prop.IS_HEAVY_ATOM>  (835) 
1 0 0 0 1 0 0 1 0 0 0 1 0 0 0 1 1 0 1 0 1 0 1 0 1 0

>  <DIFUSE_FUNC_ATOM>  (835) 
n/a

>  <FINAL_SINGLE_POINT_ENERGY>  (835) 
0

>  <NONCOV_INTER_ENERGY_QM>  (835) 
0

>  <FF_Energy>  (835) 
5.48

>  <QM_Energy>  (835) 
-1.65

>  <source>  (835) 
ETAM_MBZ

>  <Index>  (835) 
8239

$$$$
ETAM-pdb2q2x-A-LYS-86:MBZ-pdb2q2x-A-PHE-244
     RDKit          3D

 26 25  0  0  0  0  0  0  0  0999 V2000
    0.8947   -1.9784   -4.4321 C   0  0  0  0  0  0  0  0  0  0  0  0
    1.3136   -1.7082   -5.2975 H   0  0  0  0  0  0  0  0  0  0  0  0
    0.2462   -2.7210   -4.5873 H   0  0  0  0  0  0  0  0  0  0  0  0
    1.6786   -2.3355   -3.7641 H   0  0  0  0  0  0  0  0  0  0  0  0
    0.1372   -0.7833   -3.8642 C   0  0  0  0  0  0  0  0  0  0  0  0
   -0.4995   -0.4340   -4.5749 H   0  0  0  0  0  0  0  0  0  0  0  0
   -0.4337   -1.1004   -3.0854 H   0  0  0  0  0  0  0  0  0  0  0  0
    0.9991    0.3508   -3.3956 N   0  0  0  0  0  4  0  0  0  0  0  0
    1.7409    0.4875   -4.0487 H   0  0  0  0  0  0  0  0  0  0  0  0
    0.4447    1.1785   -3.3344 H   0  0  0  0  0  0  0  0  0  0  0  0
    1.3735    0.1259   -2.4980 H   0  0  0  0  0  0  0  0  0  0  0  0
   -0.0149    2.9128    0.0282 C   0  0  0  0  0  0  0  0  0  0  0  0
   -0.7624    3.2194   -0.5396 H   0  0  0  0  0  0  0  0  0  0  0  0
    0.8555    3.2292   -0.3168 H   0  0  0  0  0  0  0  0  0  0  0  0
   -0.1552    3.3274    1.0264 H   0  0  0  0  0  0  0  0  0  0  0  0
   -0.0018    1.4107    0.0040 C   0  0  0  0  0  0  0  0  0  0  0  0
   -1.1988    0.7025   -0.0013 C   0  0  0  0  0  0  0  0  0  0  0  0
   -2.0669    1.1871   -0.0070 H   0  0  0  0  0  0  0  0  0  0  0  0
   -1.2060   -0.7021   -0.0000 C   0  0  0  0  0  0  0  0  0  0  0  0
   -2.0843   -1.1874    0.0054 H   0  0  0  0  0  0  0  0  0  0  0  0
   -0.0049   -1.4005   -0.0042 C   0  0  0  0  0  0  0  0  0  0  0  0
   -0.0103   -2.4003   -0.0107 H   0  0  0  0  0  0  0  0  0  0  0  0
    1.2060   -0.7092    0.0000 C   0  0  0  0  0  0  0  0  0  0  0  0
    2.0831   -1.2042    0.0033 H   0  0  0  0  0  0  0  0  0  0  0  0
    1.2055    0.6987    0.0015 C   0  0  0  0  0  0  0  0  0  0  0  0
    2.0701    1.1889    0.0006 H   0  0  0  0  0  0  0  0  0  0  0  0
  1  5  1  0
  5  8  1  0
  1  2  1  0
  1  3  1  0
  1  4  1  0
  5  6  1  0
  5  7  1  0
  8  9  1  0
  8 10  1  0
  8 11  1  0
 12 16  1  0
 16 17  2  0
 17 19  1  0
 19 21  2  0
 21 23  1  0
 23 25  2  0
 25 16  1  0
 12 13  1  0
 12 14  1  0
 12 15  1  0
 17 18  1  0
 19 20  1  0
 21 22  1  0
 23 24  1  0
 25 26  1  0
M  CHG  1   8   1
M  END
>  <PDB_ID>  (836) 
pdb2q2x

>  <RESIDUE_NAME>  (836) 
LYS   PHE

>  <FRAG_NAME>  (836) 
ETAM   MBZ

>  <FRAG_ATOM_NUM>  (836) 
fragi: 11  fragj: 15

>  <atom.prop.CHAIN_ID>  (836) 
A A A A A A A A A A A Z Z Z Z Z Z Z Z Z Z Z Z Z Z Z

>  <atom.prop.IS_HEAVY_ATOM>  (836) 
1 0 0 0 1 0 0 1 0 0 0 1 0 0 0 1 1 0 1 0 1 0 1 0 1 0

>  <DIFUSE_FUNC_ATOM>  (836) 
n/a

>  <FINAL_SINGLE_POINT_ENERGY>  (836) 
0

>  <NONCOV_INTER_ENERGY_QM>  (836) 
0

>  <FF_Energy>  (836) 
-8.04

>  <QM_Energy>  (836) 
-14.75

>  <source>  (836) 
ETAM_MBZ

>  <Index>  (836) 
8246

$$$$
ETAM-pdb2q6d-A-LYS-254:MBZ-pdb2q6d-A-PHE-298
     RDKit          3D

 26 25  0  0  0  0  0  0  0  0999 V2000
   -0.4211   -1.7239   -3.6946 C   0  0  0  0  0  0  0  0  0  0  0  0
   -0.7109   -1.9704   -2.7726 H   0  0  0  0  0  0  0  0  0  0  0  0
   -0.0037   -2.5119   -4.1414 H   0  0  0  0  0  0  0  0  0  0  0  0
   -1.2972   -1.4199   -4.2674 H   0  0  0  0  0  0  0  0  0  0  0  0
    0.6191   -0.6160   -3.5952 C   0  0  0  0  0  0  0  0  0  0  0  0
    0.8593   -0.3117   -4.5203 H   0  0  0  0  0  0  0  0  0  0  0  0
    0.2251    0.1550   -3.0893 H   0  0  0  0  0  0  0  0  0  0  0  0
    1.8543   -1.0788   -2.8967 N   0  0  0  0  0  4  0  0  0  0  0  0
    2.6533   -0.6697   -3.3352 H   0  0  0  0  0  0  0  0  0  0  0  0
    1.8153   -0.7988   -1.9392 H   0  0  0  0  0  0  0  0  0  0  0  0
    1.9120   -2.0743   -2.9544 H   0  0  0  0  0  0  0  0  0  0  0  0
    0.0043    2.9072    0.0275 C   0  0  0  0  0  0  0  0  0  0  0  0
   -0.5967    3.2248   -0.6878 H   0  0  0  0  0  0  0  0  0  0  0  0
    0.9322    3.2132   -0.1145 H   0  0  0  0  0  0  0  0  0  0  0  0
   -0.3451    3.3304    0.9692 H   0  0  0  0  0  0  0  0  0  0  0  0
    0.0003    1.4026    0.0058 C   0  0  0  0  0  0  0  0  0  0  0  0
   -1.1968    0.6964    0.0007 C   0  0  0  0  0  0  0  0  0  0  0  0
   -2.0629    1.1861   -0.0037 H   0  0  0  0  0  0  0  0  0  0  0  0
   -1.2019   -0.6962   -0.0000 C   0  0  0  0  0  0  0  0  0  0  0  0
   -2.0794   -1.1887    0.0046 H   0  0  0  0  0  0  0  0  0  0  0  0
   -0.0005   -1.3955   -0.0053 C   0  0  0  0  0  0  0  0  0  0  0  0
   -0.0060   -2.3929   -0.0136 H   0  0  0  0  0  0  0  0  0  0  0  0
    1.2019   -0.6992   -0.0000 C   0  0  0  0  0  0  0  0  0  0  0  0
    2.0828   -1.1967    0.0058 H   0  0  0  0  0  0  0  0  0  0  0  0
    1.1970    0.6919   -0.0012 C   0  0  0  0  0  0  0  0  0  0  0  0
    2.0655    1.1882   -0.0082 H   0  0  0  0  0  0  0  0  0  0  0  0
  1  5  1  0
  5  8  1  0
  1  2  1  0
  1  3  1  0
  1  4  1  0
  5  6  1  0
  5  7  1  0
  8  9  1  0
  8 10  1  0
  8 11  1  0
 12 16  1  0
 16 17  2  0
 17 19  1  0
 19 21  2  0
 21 23  1  0
 23 25  2  0
 25 16  1  0
 12 13  1  0
 12 14  1  0
 12 15  1  0
 17 18  1  0
 19 20  1  0
 21 22  1  0
 23 24  1  0
 25 26  1  0
M  CHG  1   8   1
M  END
>  <PDB_ID>  (837) 
pdb2q6d

>  <RESIDUE_NAME>  (837) 
LYS   PHE

>  <FRAG_NAME>  (837) 
ETAM   MBZ

>  <FRAG_ATOM_NUM>  (837) 
fragi: 11  fragj: 15

>  <atom.prop.CHAIN_ID>  (837) 
A A A A A A A A A A A Z Z Z Z Z Z Z Z Z Z Z Z Z Z Z

>  <atom.prop.IS_HEAVY_ATOM>  (837) 
1 0 0 0 1 0 0 1 0 0 0 1 0 0 0 1 1 0 1 0 1 0 1 0 1 0

>  <DIFUSE_FUNC_ATOM>  (837) 
n/a

>  <FINAL_SINGLE_POINT_ENERGY>  (837) 
0

>  <NONCOV_INTER_ENERGY_QM>  (837) 
0

>  <FF_Energy>  (837) 
-5.43

>  <QM_Energy>  (837) 
-13.96

>  <source>  (837) 
ETAM_MBZ

>  <Index>  (837) 
8299

$$$$
ETAM-pdb1m7j-A-LYS-293:MBZ-pdb1m7j-A-PHE-191
     RDKit          3D

 26 25  0  0  0  0  0  0  0  0999 V2000
    1.7193   -2.9103    3.2292 C   0  0  0  0  0  0  0  0  0  0  0  0
    2.6157   -2.5742    3.0077 H   0  0  0  0  0  0  0  0  0  0  0  0
    1.2247   -3.2102    2.4351 H   0  0  0  0  0  0  0  0  0  0  0  0
    1.8101   -3.7396    3.9307 H   0  0  0  0  0  0  0  0  0  0  0  0
    0.9393   -1.8167    3.9095 C   0  0  0  0  0  0  0  0  0  0  0  0
    0.3328   -2.2160    4.5749 H   0  0  0  0  0  0  0  0  0  0  0  0
    1.5664   -1.1781    4.3206 H   0  0  0  0  0  0  0  0  0  0  0  0
    0.1657   -1.1547    2.8595 N   0  0  0  0  0  4  0  0  0  0  0  0
    0.3838   -1.5569    1.9659 H   0  0  0  0  0  0  0  0  0  0  0  0
   -0.8170   -1.2648    3.0347 H   0  0  0  0  0  0  0  0  0  0  0  0
    0.3838   -0.1747    2.8361 H   0  0  0  0  0  0  0  0  0  0  0  0
   -0.0022    2.9157    0.0162 C   0  0  0  0  0  0  0  0  0  0  0  0
   -0.6336    3.2344   -0.6795 H   0  0  0  0  0  0  0  0  0  0  0  0
    0.9205    3.2230   -0.1779 H   0  0  0  0  0  0  0  0  0  0  0  0
   -0.3046    3.3615    0.9638 H   0  0  0  0  0  0  0  0  0  0  0  0
   -0.0079    1.4153    0.0000 C   0  0  0  0  0  0  0  0  0  0  0  0
   -1.1994    0.7080   -0.0043 C   0  0  0  0  0  0  0  0  0  0  0  0
   -2.0721    1.1764   -0.0120 H   0  0  0  0  0  0  0  0  0  0  0  0
   -1.2038   -0.7224   -0.0000 C   0  0  0  0  0  0  0  0  0  0  0  0
   -2.0794   -1.1996    0.0028 H   0  0  0  0  0  0  0  0  0  0  0  0
    0.0049   -1.4179    0.0021 C   0  0  0  0  0  0  0  0  0  0  0  0
    0.0128   -2.4085    0.0045 H   0  0  0  0  0  0  0  0  0  0  0  0
    1.2038   -0.6963    0.0000 C   0  0  0  0  0  0  0  0  0  0  0  0
    2.0923   -1.1860   -0.0014 H   0  0  0  0  0  0  0  0  0  0  0  0
    1.2024    0.7132    0.0022 C   0  0  0  0  0  0  0  0  0  0  0  0
    2.0630    1.2037    0.0045 H   0  0  0  0  0  0  0  0  0  0  0  0
  1  5  1  0
  5  8  1  0
  1  2  1  0
  1  3  1  0
  1  4  1  0
  5  6  1  0
  5  7  1  0
  8  9  1  0
  8 10  1  0
  8 11  1  0
 12 16  1  0
 16 17  2  0
 17 19  1  0
 19 21  2  0
 21 23  1  0
 23 25  2  0
 25 16  1  0
 12 13  1  0
 12 14  1  0
 12 15  1  0
 17 18  1  0
 19 20  1  0
 21 22  1  0
 23 24  1  0
 25 26  1  0
M  CHG  1   8   1
M  END
>  <PDB_ID>  (838) 
pdb1m7j

>  <RESIDUE_NAME>  (838) 
LYS   PHE

>  <FRAG_NAME>  (838) 
ETAM   MBZ

>  <FRAG_ATOM_NUM>  (838) 
fragi: 11  fragj: 15

>  <atom.prop.CHAIN_ID>  (838) 
A A A A A A A A A A A Z Z Z Z Z Z Z Z Z Z Z Z Z Z Z

>  <atom.prop.IS_HEAVY_ATOM>  (838) 
1 0 0 0 1 0 0 1 0 0 0 1 0 0 0 1 1 0 1 0 1 0 1 0 1 0

>  <DIFUSE_FUNC_ATOM>  (838) 
n/a

>  <FINAL_SINGLE_POINT_ENERGY>  (838) 
0

>  <NONCOV_INTER_ENERGY_QM>  (838) 
0

>  <FF_Energy>  (838) 
-5.83

>  <QM_Energy>  (838) 
-14.11

>  <source>  (838) 
ETAM_MBZ

>  <Index>  (838) 
8305

$$$$
ETAM-pdb2q7v-B-LYS-153:MBZ-pdb2q7v-B-PHE-149
     RDKit          3D

 26 25  0  0  0  0  0  0  0  0999 V2000
   -1.7505   -0.1913   -5.1755 C   0  0  0  0  0  0  0  0  0  0  0  0
   -2.0782    0.5612   -4.6110 H   0  0  0  0  0  0  0  0  0  0  0  0
   -2.4138   -0.9342   -5.1744 H   0  0  0  0  0  0  0  0  0  0  0  0
   -1.6441    0.1705   -6.1981 H   0  0  0  0  0  0  0  0  0  0  0  0
   -0.4420   -0.6964   -4.6144 C   0  0  0  0  0  0  0  0  0  0  0  0
   -0.2603   -1.6133   -4.9709 H   0  0  0  0  0  0  0  0  0  0  0  0
    0.2975   -0.0806   -4.8901 H   0  0  0  0  0  0  0  0  0  0  0  0
   -0.4861   -0.7594   -3.1183 N   0  0  0  0  0  4  0  0  0  0  0  0
    0.2284   -0.1702   -2.7457 H   0  0  0  0  0  0  0  0  0  0  0  0
   -1.3808   -0.4478   -2.8046 H   0  0  0  0  0  0  0  0  0  0  0  0
   -0.3341   -1.7019   -2.8265 H   0  0  0  0  0  0  0  0  0  0  0  0
   -0.0090    2.9324    0.0101 C   0  0  0  0  0  0  0  0  0  0  0  0
    0.4419    3.2344    0.8383 H   0  0  0  0  0  0  0  0  0  0  0  0
   -0.9546    3.2279   -0.0074 H   0  0  0  0  0  0  0  0  0  0  0  0
    0.5004    3.3943   -0.8356 H   0  0  0  0  0  0  0  0  0  0  0  0
    0.0018    1.4169    0.0057 C   0  0  0  0  0  0  0  0  0  0  0  0
   -1.1974    0.7006   -0.0085 C   0  0  0  0  0  0  0  0  0  0  0  0
   -2.0651    1.1818   -0.0263 H   0  0  0  0  0  0  0  0  0  0  0  0
   -1.2016   -0.7104    0.0000 C   0  0  0  0  0  0  0  0  0  0  0  0
   -2.0846   -1.1900    0.0081 H   0  0  0  0  0  0  0  0  0  0  0  0
   -0.0112   -1.4001   -0.0011 C   0  0  0  0  0  0  0  0  0  0  0  0
   -0.0089   -2.4022   -0.0035 H   0  0  0  0  0  0  0  0  0  0  0  0
    1.2016   -0.7077   -0.0000 C   0  0  0  0  0  0  0  0  0  0  0  0
    2.0782   -1.2056   -0.0005 H   0  0  0  0  0  0  0  0  0  0  0  0
    1.2068    0.7006    0.0039 C   0  0  0  0  0  0  0  0  0  0  0  0
    2.0721    1.1872    0.0052 H   0  0  0  0  0  0  0  0  0  0  0  0
  1  5  1  0
  5  8  1  0
  1  2  1  0
  1  3  1  0
  1  4  1  0
  5  6  1  0
  5  7  1  0
  8  9  1  0
  8 10  1  0
  8 11  1  0
 12 16  1  0
 16 17  2  0
 17 19  1  0
 19 21  2  0
 21 23  1  0
 23 25  2  0
 25 16  1  0
 12 13  1  0
 12 14  1  0
 12 15  1  0
 17 18  1  0
 19 20  1  0
 21 22  1  0
 23 24  1  0
 25 26  1  0
M  CHG  1   8   1
M  END
>  <PDB_ID>  (839) 
pdb2q7v

>  <RESIDUE_NAME>  (839) 
LYS   PHE

>  <FRAG_NAME>  (839) 
ETAM   MBZ

>  <FRAG_ATOM_NUM>  (839) 
fragi: 11  fragj: 15

>  <atom.prop.CHAIN_ID>  (839) 
A A A A A A A A A A A Z Z Z Z Z Z Z Z Z Z Z Z Z Z Z

>  <atom.prop.IS_HEAVY_ATOM>  (839) 
1 0 0 0 1 0 0 1 0 0 0 1 0 0 0 1 1 0 1 0 1 0 1 0 1 0

>  <DIFUSE_FUNC_ATOM>  (839) 
n/a

>  <FINAL_SINGLE_POINT_ENERGY>  (839) 
0

>  <NONCOV_INTER_ENERGY_QM>  (839) 
0

>  <FF_Energy>  (839) 
-7.46

>  <QM_Energy>  (839) 
-15.04

>  <source>  (839) 
ETAM_MBZ

>  <Index>  (839) 
8313

$$$$
ETAM-pdb1m9c-A-LYS-76:MBZ-pdb1m9c-A-PHE-46
     RDKit          3D

 26 25  0  0  0  0  0  0  0  0999 V2000
   -1.0598   -1.3342   -4.2793 C   0  0  0  0  0  0  0  0  0  0  0  0
   -0.6234   -2.2217   -4.2903 H   0  0  0  0  0  0  0  0  0  0  0  0
   -1.1168   -0.9500   -5.1889 H   0  0  0  0  0  0  0  0  0  0  0  0
   -2.0644   -1.4347   -3.8683 H   0  0  0  0  0  0  0  0  0  0  0  0
   -0.2326   -0.3981   -3.4092 C   0  0  0  0  0  0  0  0  0  0  0  0
   -0.5345    0.5418   -3.5623 H   0  0  0  0  0  0  0  0  0  0  0  0
   -0.3651   -0.6416   -2.4498 H   0  0  0  0  0  0  0  0  0  0  0  0
    1.2225   -0.5051   -3.7437 N   0  0  0  0  0  4  0  0  0  0  0  0
    1.5429   -1.4242   -3.5219 H   0  0  0  0  0  0  0  0  0  0  0  0
    1.3478   -0.3303   -4.7182 H   0  0  0  0  0  0  0  0  0  0  0  0
    1.7317    0.1687   -3.2109 H   0  0  0  0  0  0  0  0  0  0  0  0
    0.0301    2.8812   -0.0422 C   0  0  0  0  0  0  0  0  0  0  0  0
   -0.7258    3.1946   -0.6056 H   0  0  0  0  0  0  0  0  0  0  0  0
    0.8976    3.1688   -0.4337 H   0  0  0  0  0  0  0  0  0  0  0  0
   -0.0656    3.3558    0.9344 H   0  0  0  0  0  0  0  0  0  0  0  0
    0.0024    1.3976   -0.0085 C   0  0  0  0  0  0  0  0  0  0  0  0
   -1.1791    0.7275   -0.0191 C   0  0  0  0  0  0  0  0  0  0  0  0
   -2.0486    1.2072   -0.0414 H   0  0  0  0  0  0  0  0  0  0  0  0
   -1.1880   -0.6744    0.0000 C   0  0  0  0  0  0  0  0  0  0  0  0
   -2.0822   -1.1528   -0.0073 H   0  0  0  0  0  0  0  0  0  0  0  0
   -0.0090   -1.3970    0.0300 C   0  0  0  0  0  0  0  0  0  0  0  0
   -0.0321   -2.3912    0.0724 H   0  0  0  0  0  0  0  0  0  0  0  0
    1.1880   -0.7175    0.0000 C   0  0  0  0  0  0  0  0  0  0  0  0
    2.0674   -1.2193   -0.0192 H   0  0  0  0  0  0  0  0  0  0  0  0
    1.1857    0.6638   -0.0024 C   0  0  0  0  0  0  0  0  0  0  0  0
    2.0649    1.1600   -0.0004 H   0  0  0  0  0  0  0  0  0  0  0  0
  1  5  1  0
  5  8  1  0
  1  2  1  0
  1  3  1  0
  1  4  1  0
  5  6  1  0
  5  7  1  0
  8  9  1  0
  8 10  1  0
  8 11  1  0
 12 16  1  0
 16 17  2  0
 17 19  1  0
 19 21  2  0
 21 23  1  0
 23 25  2  0
 25 16  1  0
 12 13  1  0
 12 14  1  0
 12 15  1  0
 17 18  1  0
 19 20  1  0
 21 22  1  0
 23 24  1  0
 25 26  1  0
M  CHG  1   8   1
M  END
>  <PDB_ID>  (840) 
pdb1m9c

>  <RESIDUE_NAME>  (840) 
LYS   PHE

>  <FRAG_NAME>  (840) 
ETAM   MBZ

>  <FRAG_ATOM_NUM>  (840) 
fragi: 11  fragj: 15

>  <atom.prop.CHAIN_ID>  (840) 
A A A A A A A A A A A Z Z Z Z Z Z Z Z Z Z Z Z Z Z Z

>  <atom.prop.IS_HEAVY_ATOM>  (840) 
1 0 0 0 1 0 0 1 0 0 0 1 0 0 0 1 1 0 1 0 1 0 1 0 1 0

>  <DIFUSE_FUNC_ATOM>  (840) 
n/a

>  <FINAL_SINGLE_POINT_ENERGY>  (840) 
0

>  <NONCOV_INTER_ENERGY_QM>  (840) 
0

>  <FF_Energy>  (840) 
-5.53

>  <QM_Energy>  (840) 
-11.52

>  <source>  (840) 
ETAM_MBZ

>  <Index>  (840) 
8326

$$$$
ETAM-pdb1m9c-B-LYS-76:MBZ-pdb1m9c-B-PHE-46
     RDKit          3D

 26 25  0  0  0  0  0  0  0  0999 V2000
   -0.6400   -1.6723   -4.5070 C   0  0  0  0  0  0  0  0  0  0  0  0
   -0.1479   -2.5286   -4.4379 H   0  0  0  0  0  0  0  0  0  0  0  0
   -0.6472   -1.3391   -5.4390 H   0  0  0  0  0  0  0  0  0  0  0  0
   -1.6672   -1.8252   -4.1760 H   0  0  0  0  0  0  0  0  0  0  0  0
    0.0386   -0.6467   -3.6272 C   0  0  0  0  0  0  0  0  0  0  0  0
   -0.2086    0.2728   -3.9482 H   0  0  0  0  0  0  0  0  0  0  0  0
   -0.2905   -0.7559   -2.6835 H   0  0  0  0  0  0  0  0  0  0  0  0
    1.5097   -0.7928   -3.6504 N   0  0  0  0  0  4  0  0  0  0  0  0
    1.8625   -0.7909   -2.7134 H   0  0  0  0  0  0  0  0  0  0  0  0
    1.7548   -1.6554   -4.0949 H   0  0  0  0  0  0  0  0  0  0  0  0
    1.9154   -0.0320   -4.1585 H   0  0  0  0  0  0  0  0  0  0  0  0
    0.0657    2.9226   -0.0144 C   0  0  0  0  0  0  0  0  0  0  0  0
   -0.5615    3.2094   -0.7335 H   0  0  0  0  0  0  0  0  0  0  0  0
    0.9990    3.1773   -0.2546 H   0  0  0  0  0  0  0  0  0  0  0  0
   -0.2046    3.4492    0.9009 H   0  0  0  0  0  0  0  0  0  0  0  0
    0.0124    1.4158    0.0603 C   0  0  0  0  0  0  0  0  0  0  0  0
   -1.1800    0.7211   -0.0255 C   0  0  0  0  0  0  0  0  0  0  0  0
   -2.0431    1.1941   -0.1059 H   0  0  0  0  0  0  0  0  0  0  0  0
   -1.1800   -0.6966    0.0000 C   0  0  0  0  0  0  0  0  0  0  0  0
   -2.0762   -1.1684    0.0358 H   0  0  0  0  0  0  0  0  0  0  0  0
   -0.0081   -1.4016   -0.0211 C   0  0  0  0  0  0  0  0  0  0  0  0
   -0.0189   -2.3999   -0.0515 H   0  0  0  0  0  0  0  0  0  0  0  0
    1.1800   -0.7158   -0.0000 C   0  0  0  0  0  0  0  0  0  0  0  0
    2.0659   -1.2077    0.0265 H   0  0  0  0  0  0  0  0  0  0  0  0
    1.1758    0.6770   -0.0137 C   0  0  0  0  0  0  0  0  0  0  0  0
    2.0634    1.1609   -0.0808 H   0  0  0  0  0  0  0  0  0  0  0  0
  1  5  1  0
  5  8  1  0
  1  2  1  0
  1  3  1  0
  1  4  1  0
  5  6  1  0
  5  7  1  0
  8  9  1  0
  8 10  1  0
  8 11  1  0
 12 16  1  0
 16 17  2  0
 17 19  1  0
 19 21  2  0
 21 23  1  0
 23 25  2  0
 25 16  1  0
 12 13  1  0
 12 14  1  0
 12 15  1  0
 17 18  1  0
 19 20  1  0
 21 22  1  0
 23 24  1  0
 25 26  1  0
M  CHG  1   8   1
M  END
>  <PDB_ID>  (841) 
pdb1m9c

>  <RESIDUE_NAME>  (841) 
LYS   PHE

>  <FRAG_NAME>  (841) 
ETAM   MBZ

>  <FRAG_ATOM_NUM>  (841) 
fragi: 11  fragj: 15

>  <atom.prop.CHAIN_ID>  (841) 
A A A A A A A A A A A Z Z Z Z Z Z Z Z Z Z Z Z Z Z Z

>  <atom.prop.IS_HEAVY_ATOM>  (841) 
1 0 0 0 1 0 0 1 0 0 0 1 0 0 0 1 1 0 1 0 1 0 1 0 1 0

>  <DIFUSE_FUNC_ATOM>  (841) 
n/a

>  <FINAL_SINGLE_POINT_ENERGY>  (841) 
0

>  <NONCOV_INTER_ENERGY_QM>  (841) 
0

>  <FF_Energy>  (841) 
-5.66

>  <QM_Energy>  (841) 
-11.87

>  <source>  (841) 
ETAM_MBZ

>  <Index>  (841) 
8327

$$$$
ETAM-pdb1mb4-B-LYS-79:MBZ-pdb1mb4-B-PHE-57
     RDKit          3D

 26 25  0  0  0  0  0  0  0  0999 V2000
   -3.4926   -1.2198    2.4864 C   0  0  0  0  0  0  0  0  0  0  0  0
   -3.5482   -2.1176    2.9113 H   0  0  0  0  0  0  0  0  0  0  0  0
   -2.9179   -1.2569    1.6753 H   0  0  0  0  0  0  0  0  0  0  0  0
   -4.4949   -0.9065    2.1945 H   0  0  0  0  0  0  0  0  0  0  0  0
   -2.8628   -0.2504    3.4830 C   0  0  0  0  0  0  0  0  0  0  0  0
   -2.8422    0.6669    3.0747 H   0  0  0  0  0  0  0  0  0  0  0  0
   -3.4293   -0.2220    4.3123 H   0  0  0  0  0  0  0  0  0  0  0  0
   -1.4671   -0.6459    3.8612 N   0  0  0  0  0  4  0  0  0  0  0  0
   -1.1591   -0.0726    4.6173 H   0  0  0  0  0  0  0  0  0  0  0  0
   -1.4635   -1.6041    4.1393 H   0  0  0  0  0  0  0  0  0  0  0  0
   -0.8675   -0.5198    3.0732 H   0  0  0  0  0  0  0  0  0  0  0  0
   -0.0056    2.8999    0.0160 C   0  0  0  0  0  0  0  0  0  0  0  0
    0.9100    3.2107    0.2259 H   0  0  0  0  0  0  0  0  0  0  0  0
   -0.6516    3.1981    0.7036 H   0  0  0  0  0  0  0  0  0  0  0  0
   -0.2998    3.3446   -0.9347 H   0  0  0  0  0  0  0  0  0  0  0  0
    0.0014    1.4056    0.0002 C   0  0  0  0  0  0  0  0  0  0  0  0
   -1.2013    0.6955   -0.0015 C   0  0  0  0  0  0  0  0  0  0  0  0
   -2.0661    1.1861   -0.0052 H   0  0  0  0  0  0  0  0  0  0  0  0
   -1.2091   -0.7018   -0.0000 C   0  0  0  0  0  0  0  0  0  0  0  0
   -2.0840   -1.1925    0.0008 H   0  0  0  0  0  0  0  0  0  0  0  0
   -0.0029   -1.4000    0.0021 C   0  0  0  0  0  0  0  0  0  0  0  0
   -0.0037   -2.3969    0.0046 H   0  0  0  0  0  0  0  0  0  0  0  0
    1.2091   -0.6995    0.0000 C   0  0  0  0  0  0  0  0  0  0  0  0
    2.0855   -1.1961    0.0007 H   0  0  0  0  0  0  0  0  0  0  0  0
    1.2028    0.7002   -0.0008 C   0  0  0  0  0  0  0  0  0  0  0  0
    2.0687    1.1951   -0.0031 H   0  0  0  0  0  0  0  0  0  0  0  0
  1  5  1  0
  5  8  1  0
  1  2  1  0
  1  3  1  0
  1  4  1  0
  5  6  1  0
  5  7  1  0
  8  9  1  0
  8 10  1  0
  8 11  1  0
 12 16  1  0
 16 17  2  0
 17 19  1  0
 19 21  2  0
 21 23  1  0
 23 25  2  0
 25 16  1  0
 12 13  1  0
 12 14  1  0
 12 15  1  0
 17 18  1  0
 19 20  1  0
 21 22  1  0
 23 24  1  0
 25 26  1  0
M  CHG  1   8   1
M  END
>  <PDB_ID>  (842) 
pdb1mb4

>  <RESIDUE_NAME>  (842) 
LYS   PHE

>  <FRAG_NAME>  (842) 
ETAM   MBZ

>  <FRAG_ATOM_NUM>  (842) 
fragi: 11  fragj: 15

>  <atom.prop.CHAIN_ID>  (842) 
A A A A A A A A A A A Z Z Z Z Z Z Z Z Z Z Z Z Z Z Z

>  <atom.prop.IS_HEAVY_ATOM>  (842) 
1 0 0 0 1 0 0 1 0 0 0 1 0 0 0 1 1 0 1 0 1 0 1 0 1 0

>  <DIFUSE_FUNC_ATOM>  (842) 
n/a

>  <FINAL_SINGLE_POINT_ENERGY>  (842) 
0

>  <NONCOV_INTER_ENERGY_QM>  (842) 
0

>  <FF_Energy>  (842) 
-2.41

>  <QM_Energy>  (842) 
-8.54

>  <source>  (842) 
ETAM_MBZ

>  <Index>  (842) 
8337

$$$$
ETAM-pdb1m53-A-LYS-233:MBZ-pdb1m53-A-PHE-123
     RDKit          3D

 26 25  0  0  0  0  0  0  0  0999 V2000
    5.6508   -0.1218   -2.6149 C   0  0  0  0  0  0  0  0  0  0  0  0
    5.8930    0.5741   -1.9473 H   0  0  0  0  0  0  0  0  0  0  0  0
    5.8723    0.1881   -3.5336 H   0  0  0  0  0  0  0  0  0  0  0  0
    6.2176   -1.0279   -2.4010 H   0  0  0  0  0  0  0  0  0  0  0  0
    4.1724   -0.3846   -2.5311 C   0  0  0  0  0  0  0  0  0  0  0  0
    3.8922   -0.9455   -3.3123 H   0  0  0  0  0  0  0  0  0  0  0  0
    3.9730   -0.8792   -1.6824 H   0  0  0  0  0  0  0  0  0  0  0  0
    3.4166    0.8835   -2.5457 N   0  0  0  0  0  4  0  0  0  0  0  0
    4.0412    1.6500   -2.3876 H   0  0  0  0  0  0  0  0  0  0  0  0
    2.9693    0.9994   -3.4341 H   0  0  0  0  0  0  0  0  0  0  0  0
    2.7206    0.8699   -1.8252 H   0  0  0  0  0  0  0  0  0  0  0  0
    0.0012    2.9230    0.0747 C   0  0  0  0  0  0  0  0  0  0  0  0
   -0.7803    3.2532   -0.4275 H   0  0  0  0  0  0  0  0  0  0  0  0
    0.8487    3.2462   -0.3103 H   0  0  0  0  0  0  0  0  0  0  0  0
   -0.0701    3.3092    1.0915 H   0  0  0  0  0  0  0  0  0  0  0  0
    0.0001    1.4143    0.0016 C   0  0  0  0  0  0  0  0  0  0  0  0
   -1.2003    0.7032   -0.0014 C   0  0  0  0  0  0  0  0  0  0  0  0
   -2.0670    1.1871   -0.0057 H   0  0  0  0  0  0  0  0  0  0  0  0
   -1.2059   -0.7035    0.0000 C   0  0  0  0  0  0  0  0  0  0  0  0
   -2.0828   -1.1906    0.0020 H   0  0  0  0  0  0  0  0  0  0  0  0
    0.0004   -1.4076    0.0008 C   0  0  0  0  0  0  0  0  0  0  0  0
   -0.0046   -2.4011    0.0014 H   0  0  0  0  0  0  0  0  0  0  0  0
    1.2059   -0.7057   -0.0000 C   0  0  0  0  0  0  0  0  0  0  0  0
    2.0869   -1.1975    0.0020 H   0  0  0  0  0  0  0  0  0  0  0  0
    1.1998    0.6993   -0.0010 C   0  0  0  0  0  0  0  0  0  0  0  0
    2.0690    1.1913   -0.0043 H   0  0  0  0  0  0  0  0  0  0  0  0
  1  5  1  0
  5  8  1  0
  1  2  1  0
  1  3  1  0
  1  4  1  0
  5  6  1  0
  5  7  1  0
  8  9  1  0
  8 10  1  0
  8 11  1  0
 12 16  1  0
 16 17  2  0
 17 19  1  0
 19 21  2  0
 21 23  1  0
 23 25  2  0
 25 16  1  0
 12 13  1  0
 12 14  1  0
 12 15  1  0
 17 18  1  0
 19 20  1  0
 21 22  1  0
 23 24  1  0
 25 26  1  0
M  CHG  1   8   1
M  END
>  <PDB_ID>  (843) 
pdb1m53

>  <RESIDUE_NAME>  (843) 
LYS   PHE

>  <FRAG_NAME>  (843) 
ETAM   MBZ

>  <FRAG_ATOM_NUM>  (843) 
fragi: 11  fragj: 15

>  <atom.prop.CHAIN_ID>  (843) 
A A A A A A A A A A A Z Z Z Z Z Z Z Z Z Z Z Z Z Z Z

>  <atom.prop.IS_HEAVY_ATOM>  (843) 
1 0 0 0 1 0 0 1 0 0 0 1 0 0 0 1 1 0 1 0 1 0 1 0 1 0

>  <DIFUSE_FUNC_ATOM>  (843) 
n/a

>  <FINAL_SINGLE_POINT_ENERGY>  (843) 
0

>  <NONCOV_INTER_ENERGY_QM>  (843) 
0

>  <FF_Energy>  (843) 
-2.13

>  <QM_Energy>  (843) 
-8.49

>  <source>  (843) 
ETAM_MBZ

>  <Index>  (843) 
8344

$$$$
ETAM-pdb1mbq-A-LYS-60:MBZ-pdb1mbq-A-PHE-41
     RDKit          3D

 26 25  0  0  0  0  0  0  0  0999 V2000
    0.0780   -2.6477    3.6924 C   0  0  0  0  0  0  0  0  0  0  0  0
   -0.2291   -2.5817    2.7486 H   0  0  0  0  0  0  0  0  0  0  0  0
   -0.6078   -3.1043    4.2492 H   0  0  0  0  0  0  0  0  0  0  0  0
    0.9989   -3.2301    3.7214 H   0  0  0  0  0  0  0  0  0  0  0  0
    0.2910   -1.2448    4.2344 C   0  0  0  0  0  0  0  0  0  0  0  0
   -0.5741   -0.7386    4.1736 H   0  0  0  0  0  0  0  0  0  0  0  0
    0.5629   -1.3066    5.1985 H   0  0  0  0  0  0  0  0  0  0  0  0
    1.3378   -0.5186    3.4760 N   0  0  0  0  0  4  0  0  0  0  0  0
    2.1047   -0.3085    4.0827 H   0  0  0  0  0  0  0  0  0  0  0  0
    1.6586   -1.0889    2.7187 H   0  0  0  0  0  0  0  0  0  0  0  0
    0.9581    0.3328    3.1126 H   0  0  0  0  0  0  0  0  0  0  0  0
    0.0108    2.9087    0.0000 C   0  0  0  0  0  0  0  0  0  0  0  0
    0.8866    3.2116    0.3469 H   0  0  0  0  0  0  0  0  0  0  0  0
   -0.7300    3.2214    0.5772 H   0  0  0  0  0  0  0  0  0  0  0  0
   -0.1265    3.3584   -0.9833 H   0  0  0  0  0  0  0  0  0  0  0  0
    0.0015    1.4056   -0.0003 C   0  0  0  0  0  0  0  0  0  0  0  0
   -1.1977    0.6994    0.0001 C   0  0  0  0  0  0  0  0  0  0  0  0
   -2.0633    1.1873   -0.0007 H   0  0  0  0  0  0  0  0  0  0  0  0
   -1.2040   -0.7001   -0.0000 C   0  0  0  0  0  0  0  0  0  0  0  0
   -2.0814   -1.1895    0.0014 H   0  0  0  0  0  0  0  0  0  0  0  0
   -0.0019   -1.3994   -0.0002 C   0  0  0  0  0  0  0  0  0  0  0  0
   -0.0047   -2.3961   -0.0013 H   0  0  0  0  0  0  0  0  0  0  0  0
    1.2040   -0.7006    0.0000 C   0  0  0  0  0  0  0  0  0  0  0  0
    2.0832   -1.1974    0.0018 H   0  0  0  0  0  0  0  0  0  0  0  0
    1.1982    0.6952    0.0004 C   0  0  0  0  0  0  0  0  0  0  0  0
    2.0675    1.1893    0.0007 H   0  0  0  0  0  0  0  0  0  0  0  0
  1  5  1  0
  5  8  1  0
  1  2  1  0
  1  3  1  0
  1  4  1  0
  5  6  1  0
  5  7  1  0
  8  9  1  0
  8 10  1  0
  8 11  1  0
 12 16  1  0
 16 17  2  0
 17 19  1  0
 19 21  2  0
 21 23  1  0
 23 25  2  0
 25 16  1  0
 12 13  1  0
 12 14  1  0
 12 15  1  0
 17 18  1  0
 19 20  1  0
 21 22  1  0
 23 24  1  0
 25 26  1  0
M  CHG  1   8   1
M  END
>  <PDB_ID>  (844) 
pdb1mbq

>  <RESIDUE_NAME>  (844) 
LYS   PHE

>  <FRAG_NAME>  (844) 
ETAM   MBZ

>  <FRAG_ATOM_NUM>  (844) 
fragi: 11  fragj: 15

>  <atom.prop.CHAIN_ID>  (844) 
A A A A A A A A A A A Z Z Z Z Z Z Z Z Z Z Z Z Z Z Z

>  <atom.prop.IS_HEAVY_ATOM>  (844) 
1 0 0 0 1 0 0 1 0 0 0 1 0 0 0 1 1 0 1 0 1 0 1 0 1 0

>  <DIFUSE_FUNC_ATOM>  (844) 
n/a

>  <FINAL_SINGLE_POINT_ENERGY>  (844) 
0

>  <NONCOV_INTER_ENERGY_QM>  (844) 
0

>  <FF_Energy>  (844) 
-6.57

>  <QM_Energy>  (844) 
-12.46

>  <source>  (844) 
ETAM_MBZ

>  <Index>  (844) 
8355

$$$$
ETAM-pdb2q8u-B-LYS-163:MBZ-pdb2q8u-B-PHE-119
     RDKit          3D

 26 25  0  0  0  0  0  0  0  0999 V2000
    5.7025    0.0662    1.1208 C   0  0  0  0  0  0  0  0  0  0  0  0
    5.9740   -0.5855    1.8297 H   0  0  0  0  0  0  0  0  0  0  0  0
    4.8409    0.5015    1.3816 H   0  0  0  0  0  0  0  0  0  0  0  0
    6.4715    0.8346    1.0407 H   0  0  0  0  0  0  0  0  0  0  0  0
    5.4642   -0.7220   -0.1882 C   0  0  0  0  0  0  0  0  0  0  0  0
    6.2736   -0.6105   -0.7815 H   0  0  0  0  0  0  0  0  0  0  0  0
    5.3807   -1.7026    0.0383 H   0  0  0  0  0  0  0  0  0  0  0  0
    4.2305   -0.3012   -0.9698 N   0  0  0  0  0  4  0  0  0  0  0  0
    3.7265    0.3649   -0.4303 H   0  0  0  0  0  0  0  0  0  0  0  0
    4.5238    0.0999   -1.8312 H   0  0  0  0  0  0  0  0  0  0  0  0
    3.6714   -1.1069   -1.1354 H   0  0  0  0  0  0  0  0  0  0  0  0
   -0.0050    2.9061   -0.0180 C   0  0  0  0  0  0  0  0  0  0  0  0
    0.8843    3.2191    0.2749 H   0  0  0  0  0  0  0  0  0  0  0  0
   -0.7172    3.2164    0.5913 H   0  0  0  0  0  0  0  0  0  0  0  0
   -0.1993    3.3394   -0.9990 H   0  0  0  0  0  0  0  0  0  0  0  0
    0.0002    1.3965   -0.0026 C   0  0  0  0  0  0  0  0  0  0  0  0
   -1.1888    0.6866    0.0111 C   0  0  0  0  0  0  0  0  0  0  0  0
   -2.0588    1.1773    0.0279 H   0  0  0  0  0  0  0  0  0  0  0  0
   -1.1934   -0.6962    0.0000 C   0  0  0  0  0  0  0  0  0  0  0  0
   -2.0735   -1.1903   -0.0071 H   0  0  0  0  0  0  0  0  0  0  0  0
   -0.0020   -1.3880   -0.0001 C   0  0  0  0  0  0  0  0  0  0  0  0
   -0.0021   -2.3883   -0.0006 H   0  0  0  0  0  0  0  0  0  0  0  0
    1.1934   -0.6919   -0.0000 C   0  0  0  0  0  0  0  0  0  0  0  0
    2.0774   -1.1910    0.0077 H   0  0  0  0  0  0  0  0  0  0  0  0
    1.1907    0.6930   -0.0084 C   0  0  0  0  0  0  0  0  0  0  0  0
    2.0606    1.1888   -0.0194 H   0  0  0  0  0  0  0  0  0  0  0  0
  1  5  1  0
  5  8  1  0
  1  2  1  0
  1  3  1  0
  1  4  1  0
  5  6  1  0
  5  7  1  0
  8  9  1  0
  8 10  1  0
  8 11  1  0
 12 16  1  0
 16 17  2  0
 17 19  1  0
 19 21  2  0
 21 23  1  0
 23 25  2  0
 25 16  1  0
 12 13  1  0
 12 14  1  0
 12 15  1  0
 17 18  1  0
 19 20  1  0
 21 22  1  0
 23 24  1  0
 25 26  1  0
M  CHG  1   8   1
M  END
>  <PDB_ID>  (845) 
pdb2q8u

>  <RESIDUE_NAME>  (845) 
LYS   PHE

>  <FRAG_NAME>  (845) 
ETAM   MBZ

>  <FRAG_ATOM_NUM>  (845) 
fragi: 11  fragj: 15

>  <atom.prop.CHAIN_ID>  (845) 
A A A A A A A A A A A Z Z Z Z Z Z Z Z Z Z Z Z Z Z Z

>  <atom.prop.IS_HEAVY_ATOM>  (845) 
1 0 0 0 1 0 0 1 0 0 0 1 0 0 0 1 1 0 1 0 1 0 1 0 1 0

>  <DIFUSE_FUNC_ATOM>  (845) 
n/a

>  <FINAL_SINGLE_POINT_ENERGY>  (845) 
0

>  <NONCOV_INTER_ENERGY_QM>  (845) 
0

>  <FF_Energy>  (845) 
2.36

>  <QM_Energy>  (845) 
-3.98

>  <source>  (845) 
ETAM_MBZ

>  <Index>  (845) 
8356

$$$$
ETAM-pdb1mct-A-LYS-60:MBZ-pdb1mct-A-PHE-41
     RDKit          3D

 26 25  0  0  0  0  0  0  0  0999 V2000
   -0.0277   -1.2594    3.6728 C   0  0  0  0  0  0  0  0  0  0  0  0
   -0.5115   -1.3195    2.8007 H   0  0  0  0  0  0  0  0  0  0  0  0
   -0.6780   -1.3546    4.4254 H   0  0  0  0  0  0  0  0  0  0  0  0
    0.7144   -2.0556    3.7314 H   0  0  0  0  0  0  0  0  0  0  0  0
    0.6062    0.1257    3.7676 C   0  0  0  0  0  0  0  0  0  0  0  0
    0.9509    0.2599    4.6953 H   0  0  0  0  0  0  0  0  0  0  0  0
    1.3631    0.1799    3.1178 H   0  0  0  0  0  0  0  0  0  0  0  0
   -0.3904    1.1876    3.4532 N   0  0  0  0  0  4  0  0  0  0  0  0
   -1.2387    1.1164    4.0585 H   0  0  0  0  0  0  0  0  0  0  0  0
    0.0461    2.1401    3.5141 H   0  0  0  0  0  0  0  0  0  0  0  0
   -0.7339    1.0435    2.4888 H   0  0  0  0  0  0  0  0  0  0  0  0
   -0.0034    2.8784   -0.0826 C   0  0  0  0  0  0  0  0  0  0  0  0
    0.8420    3.2196    0.3198 H   0  0  0  0  0  0  0  0  0  0  0  0
   -0.7872    3.2208    0.4283 H   0  0  0  0  0  0  0  0  0  0  0  0
   -0.0696    3.3103   -1.0812 H   0  0  0  0  0  0  0  0  0  0  0  0
    0.0003    1.3821   -0.0021 C   0  0  0  0  0  0  0  0  0  0  0  0
   -1.2046    0.6757    0.0041 C   0  0  0  0  0  0  0  0  0  0  0  0
   -2.0638    1.1715    0.0099 H   0  0  0  0  0  0  0  0  0  0  0  0
   -1.1977   -0.6994   -0.0000 C   0  0  0  0  0  0  0  0  0  0  0  0
   -2.0712   -1.2046    0.0020 H   0  0  0  0  0  0  0  0  0  0  0  0
    0.0006   -1.3735   -0.0052 C   0  0  0  0  0  0  0  0  0  0  0  0
    0.0060   -2.3817   -0.0134 H   0  0  0  0  0  0  0  0  0  0  0  0
    1.1977   -0.6824   -0.0000 C   0  0  0  0  0  0  0  0  0  0  0  0
    2.0794   -1.1884    0.0028 H   0  0  0  0  0  0  0  0  0  0  0  0
    1.2036    0.6975    0.0032 C   0  0  0  0  0  0  0  0  0  0  0  0
    2.0626    1.1966    0.0085 H   0  0  0  0  0  0  0  0  0  0  0  0
  1  5  1  0
  5  8  1  0
  1  2  1  0
  1  3  1  0
  1  4  1  0
  5  6  1  0
  5  7  1  0
  8  9  1  0
  8 10  1  0
  8 11  1  0
 12 16  1  0
 16 17  2  0
 17 19  1  0
 19 21  2  0
 21 23  1  0
 23 25  2  0
 25 16  1  0
 12 13  1  0
 12 14  1  0
 12 15  1  0
 17 18  1  0
 19 20  1  0
 21 22  1  0
 23 24  1  0
 25 26  1  0
M  CHG  1   8   1
M  END
>  <PDB_ID>  (846) 
pdb1mct

>  <RESIDUE_NAME>  (846) 
LYS   PHE

>  <FRAG_NAME>  (846) 
ETAM   MBZ

>  <FRAG_ATOM_NUM>  (846) 
fragi: 11  fragj: 15

>  <atom.prop.CHAIN_ID>  (846) 
A A A A A A A A A A A Z Z Z Z Z Z Z Z Z Z Z Z Z Z Z

>  <atom.prop.IS_HEAVY_ATOM>  (846) 
1 0 0 0 1 0 0 1 0 0 0 1 0 0 0 1 1 0 1 0 1 0 1 0 1 0

>  <DIFUSE_FUNC_ATOM>  (846) 
n/a

>  <FINAL_SINGLE_POINT_ENERGY>  (846) 
0

>  <NONCOV_INTER_ENERGY_QM>  (846) 
0

>  <FF_Energy>  (846) 
-8.65

>  <QM_Energy>  (846) 
-14.75

>  <source>  (846) 
ETAM_MBZ

>  <Index>  (846) 
8363

$$$$
ETAM-pdb1mct-A-LYS-188:MBZ-pdb1mct-A-PHE-184
     RDKit          3D

 26 25  0  0  0  0  0  0  0  0999 V2000
    2.2829   -1.3770    3.5814 C   0  0  0  0  0  0  0  0  0  0  0  0
    2.2283   -1.4690    2.5829 H   0  0  0  0  0  0  0  0  0  0  0  0
    2.7069   -2.2038    3.9606 H   0  0  0  0  0  0  0  0  0  0  0  0
    2.9130   -0.5200    3.8193 H   0  0  0  0  0  0  0  0  0  0  0  0
    0.8756   -1.2632    4.1314 C   0  0  0  0  0  0  0  0  0  0  0  0
    0.3787   -2.1161    3.9439 H   0  0  0  0  0  0  0  0  0  0  0  0
    0.9204   -1.1287    5.1264 H   0  0  0  0  0  0  0  0  0  0  0  0
    0.1243   -0.1225    3.5235 N   0  0  0  0  0  4  0  0  0  0  0  0
    0.6414    0.7698    3.6834 H   0  0  0  0  0  0  0  0  0  0  0  0
    0.0452   -0.2983    2.4992 H   0  0  0  0  0  0  0  0  0  0  0  0
   -0.8225   -0.0555    3.9486 H   0  0  0  0  0  0  0  0  0  0  0  0
   -0.0136    2.8974   -0.0411 C   0  0  0  0  0  0  0  0  0  0  0  0
    0.8363    3.2232    0.3312 H   0  0  0  0  0  0  0  0  0  0  0  0
   -0.7901    3.2143    0.4731 H   0  0  0  0  0  0  0  0  0  0  0  0
   -0.1047    3.2873   -1.0549 H   0  0  0  0  0  0  0  0  0  0  0  0
   -0.0017    1.3991    0.0001 C   0  0  0  0  0  0  0  0  0  0  0  0
   -1.1911    0.6928   -0.0002 C   0  0  0  0  0  0  0  0  0  0  0  0
   -2.0611    1.1814   -0.0014 H   0  0  0  0  0  0  0  0  0  0  0  0
   -1.1929   -0.6931    0.0000 C   0  0  0  0  0  0  0  0  0  0  0  0
   -2.0748   -1.1871    0.0013 H   0  0  0  0  0  0  0  0  0  0  0  0
   -0.0008   -1.3897   -0.0002 C   0  0  0  0  0  0  0  0  0  0  0  0
   -0.0073   -2.3906   -0.0009 H   0  0  0  0  0  0  0  0  0  0  0  0
    1.1929   -0.6993    0.0000 C   0  0  0  0  0  0  0  0  0  0  0  0
    2.0773   -1.1972    0.0012 H   0  0  0  0  0  0  0  0  0  0  0  0
    1.1937    0.6902    0.0003 C   0  0  0  0  0  0  0  0  0  0  0  0
    2.0622    1.1839   -0.0002 H   0  0  0  0  0  0  0  0  0  0  0  0
  1  5  1  0
  5  8  1  0
  1  2  1  0
  1  3  1  0
  1  4  1  0
  5  6  1  0
  5  7  1  0
  8  9  1  0
  8 10  1  0
  8 11  1  0
 12 16  1  0
 16 17  2  0
 17 19  1  0
 19 21  2  0
 21 23  1  0
 23 25  2  0
 25 16  1  0
 12 13  1  0
 12 14  1  0
 12 15  1  0
 17 18  1  0
 19 20  1  0
 21 22  1  0
 23 24  1  0
 25 26  1  0
M  CHG  1   8   1
M  END
>  <PDB_ID>  (847) 
pdb1mct

>  <RESIDUE_NAME>  (847) 
LYS   PHE

>  <FRAG_NAME>  (847) 
ETAM   MBZ

>  <FRAG_ATOM_NUM>  (847) 
fragi: 11  fragj: 15

>  <atom.prop.CHAIN_ID>  (847) 
A A A A A A A A A A A Z Z Z Z Z Z Z Z Z Z Z Z Z Z Z

>  <atom.prop.IS_HEAVY_ATOM>  (847) 
1 0 0 0 1 0 0 1 0 0 0 1 0 0 0 1 1 0 1 0 1 0 1 0 1 0

>  <DIFUSE_FUNC_ATOM>  (847) 
n/a

>  <FINAL_SINGLE_POINT_ENERGY>  (847) 
0

>  <NONCOV_INTER_ENERGY_QM>  (847) 
0

>  <FF_Energy>  (847) 
-8.81

>  <QM_Energy>  (847) 
-15.34

>  <source>  (847) 
ETAM_MBZ

>  <Index>  (847) 
8364

$$$$
ETAM-pdb2q8f-A-LYS-282:MBZ-pdb2q8f-A-PHE-278
     RDKit          3D

 26 25  0  0  0  0  0  0  0  0999 V2000
   -0.1560   -1.4038    3.3715 C   0  0  0  0  0  0  0  0  0  0  0  0
   -0.5047   -2.1050    2.7185 H   0  0  0  0  0  0  0  0  0  0  0  0
    0.0240   -0.5631    2.8241 H   0  0  0  0  0  0  0  0  0  0  0  0
   -0.9363   -1.1865    4.1010 H   0  0  0  0  0  0  0  0  0  0  0  0
    1.1295   -1.8830    3.9353 C   0  0  0  0  0  0  0  0  0  0  0  0
    1.4143   -1.2868    4.6909 H   0  0  0  0  0  0  0  0  0  0  0  0
    1.0223   -2.8185    4.2839 H   0  0  0  0  0  0  0  0  0  0  0  0
    2.1920   -1.8791    2.8985 N   0  0  0  0  0  4  0  0  0  0  0  0
    3.0828   -1.7543    3.3348 H   0  0  0  0  0  0  0  0  0  0  0  0
    2.1805   -2.7496    2.4062 H   0  0  0  0  0  0  0  0  0  0  0  0
    2.0279   -1.1311    2.2555 H   0  0  0  0  0  0  0  0  0  0  0  0
    0.0021    2.9220   -0.0353 C   0  0  0  0  0  0  0  0  0  0  0  0
   -0.5780    3.2031   -0.7886 H   0  0  0  0  0  0  0  0  0  0  0  0
    0.9360    3.2239   -0.1781 H   0  0  0  0  0  0  0  0  0  0  0  0
   -0.3683    3.4119    0.8653 H   0  0  0  0  0  0  0  0  0  0  0  0
    0.0022    1.4149    0.0155 C   0  0  0  0  0  0  0  0  0  0  0  0
   -1.1936    0.7026   -0.0165 C   0  0  0  0  0  0  0  0  0  0  0  0
   -2.0611    1.1852   -0.0530 H   0  0  0  0  0  0  0  0  0  0  0  0
   -1.1961   -0.7007   -0.0000 C   0  0  0  0  0  0  0  0  0  0  0  0
   -2.0846   -1.1817    0.0180 H   0  0  0  0  0  0  0  0  0  0  0  0
   -0.0135   -1.4006   -0.0067 C   0  0  0  0  0  0  0  0  0  0  0  0
   -0.0236   -2.4041   -0.0173 H   0  0  0  0  0  0  0  0  0  0  0  0
    1.1961   -0.7239    0.0000 C   0  0  0  0  0  0  0  0  0  0  0  0
    2.0736   -1.2101    0.0014 H   0  0  0  0  0  0  0  0  0  0  0  0
    1.2049    0.7076    0.0077 C   0  0  0  0  0  0  0  0  0  0  0  0
    2.0720    1.1802    0.0061 H   0  0  0  0  0  0  0  0  0  0  0  0
  1  5  1  0
  5  8  1  0
  1  2  1  0
  1  3  1  0
  1  4  1  0
  5  6  1  0
  5  7  1  0
  8  9  1  0
  8 10  1  0
  8 11  1  0
 12 16  1  0
 16 17  2  0
 17 19  1  0
 19 21  2  0
 21 23  1  0
 23 25  2  0
 25 16  1  0
 12 13  1  0
 12 14  1  0
 12 15  1  0
 17 18  1  0
 19 20  1  0
 21 22  1  0
 23 24  1  0
 25 26  1  0
M  CHG  1   8   1
M  END
>  <PDB_ID>  (848) 
pdb2q8f

>  <RESIDUE_NAME>  (848) 
LYS   PHE

>  <FRAG_NAME>  (848) 
ETAM   MBZ

>  <FRAG_ATOM_NUM>  (848) 
fragi: 11  fragj: 15

>  <atom.prop.CHAIN_ID>  (848) 
A A A A A A A A A A A Z Z Z Z Z Z Z Z Z Z Z Z Z Z Z

>  <atom.prop.IS_HEAVY_ATOM>  (848) 
1 0 0 0 1 0 0 1 0 0 0 1 0 0 0 1 1 0 1 0 1 0 1 0 1 0

>  <DIFUSE_FUNC_ATOM>  (848) 
n/a

>  <FINAL_SINGLE_POINT_ENERGY>  (848) 
0

>  <NONCOV_INTER_ENERGY_QM>  (848) 
0

>  <FF_Energy>  (848) 
-3.91

>  <QM_Energy>  (848) 
-11.07

>  <source>  (848) 
ETAM_MBZ

>  <Index>  (848) 
8368

$$$$
ETAM-pdb1mg5-B-LYS-77:MBZ-pdb1mg5-B-PHE-122
     RDKit          3D

 26 25  0  0  0  0  0  0  0  0999 V2000
    2.4671   -3.7127    1.2132 C   0  0  0  0  0  0  0  0  0  0  0  0
    2.4031   -3.1592    0.3819 H   0  0  0  0  0  0  0  0  0  0  0  0
    1.6530   -3.5610    1.7761 H   0  0  0  0  0  0  0  0  0  0  0  0
    2.5060   -4.7646    0.9302 H   0  0  0  0  0  0  0  0  0  0  0  0
    3.6879   -3.2620    2.0000 C   0  0  0  0  0  0  0  0  0  0  0  0
    3.6131   -3.6029    2.9425 H   0  0  0  0  0  0  0  0  0  0  0  0
    4.5112   -3.6564    1.5798 H   0  0  0  0  0  0  0  0  0  0  0  0
    3.8248   -1.7730    2.0314 N   0  0  0  0  0  4  0  0  0  0  0  0
    4.7696   -1.5268    1.8251 H   0  0  0  0  0  0  0  0  0  0  0  0
    3.2152   -1.3732    1.3500 H   0  0  0  0  0  0  0  0  0  0  0  0
    3.5802   -1.4401    2.9401 H   0  0  0  0  0  0  0  0  0  0  0  0
    0.0176    2.8954   -0.0216 C   0  0  0  0  0  0  0  0  0  0  0  0
   -0.7190    3.2107   -0.6047 H   0  0  0  0  0  0  0  0  0  0  0  0
    0.8971    3.1886   -0.3748 H   0  0  0  0  0  0  0  0  0  0  0  0
   -0.1146    3.3661    0.9526 H   0  0  0  0  0  0  0  0  0  0  0  0
   -0.0061    1.3988   -0.0007 C   0  0  0  0  0  0  0  0  0  0  0  0
   -1.1891    0.6806   -0.0085 C   0  0  0  0  0  0  0  0  0  0  0  0
   -2.0641    1.1728   -0.0219 H   0  0  0  0  0  0  0  0  0  0  0  0
   -1.1970   -0.6994   -0.0000 C   0  0  0  0  0  0  0  0  0  0  0  0
   -2.0700   -1.1963    0.0021 H   0  0  0  0  0  0  0  0  0  0  0  0
    0.0039   -1.3804    0.0076 C   0  0  0  0  0  0  0  0  0  0  0  0
    0.0031   -2.3857    0.0180 H   0  0  0  0  0  0  0  0  0  0  0  0
    1.1970   -0.6906   -0.0000 C   0  0  0  0  0  0  0  0  0  0  0  0
    2.0804   -1.1886   -0.0055 H   0  0  0  0  0  0  0  0  0  0  0  0
    1.1912    0.6910    0.0017 C   0  0  0  0  0  0  0  0  0  0  0  0
    2.0585    1.1928    0.0035 H   0  0  0  0  0  0  0  0  0  0  0  0
  1  5  1  0
  5  8  1  0
  1  2  1  0
  1  3  1  0
  1  4  1  0
  5  6  1  0
  5  7  1  0
  8  9  1  0
  8 10  1  0
  8 11  1  0
 12 16  1  0
 16 17  2  0
 17 19  1  0
 19 21  2  0
 21 23  1  0
 23 25  2  0
 25 16  1  0
 12 13  1  0
 12 14  1  0
 12 15  1  0
 17 18  1  0
 19 20  1  0
 21 22  1  0
 23 24  1  0
 25 26  1  0
M  CHG  1   8   1
M  END
>  <PDB_ID>  (849) 
pdb1mg5

>  <RESIDUE_NAME>  (849) 
LYS   PHE

>  <FRAG_NAME>  (849) 
ETAM   MBZ

>  <FRAG_ATOM_NUM>  (849) 
fragi: 11  fragj: 15

>  <atom.prop.CHAIN_ID>  (849) 
A A A A A A A A A A A Z Z Z Z Z Z Z Z Z Z Z Z Z Z Z

>  <atom.prop.IS_HEAVY_ATOM>  (849) 
1 0 0 0 1 0 0 1 0 0 0 1 0 0 0 1 1 0 1 0 1 0 1 0 1 0

>  <DIFUSE_FUNC_ATOM>  (849) 
n/a

>  <FINAL_SINGLE_POINT_ENERGY>  (849) 
0

>  <NONCOV_INTER_ENERGY_QM>  (849) 
0

>  <FF_Energy>  (849) 
0.88

>  <QM_Energy>  (849) 
-4.97

>  <source>  (849) 
ETAM_MBZ

>  <Index>  (849) 
8398

$$$$
ETAM-pdb1mi5-E-LYS-143:MBZ-pdb1mi5-D-PHE-173
     RDKit          3D

 26 25  0  0  0  0  0  0  0  0999 V2000
    2.2372   -1.1553   -3.4954 C   0  0  0  0  0  0  0  0  0  0  0  0
    2.1100   -2.0813   -3.1536 H   0  0  0  0  0  0  0  0  0  0  0  0
    2.9177   -0.6755   -2.9506 H   0  0  0  0  0  0  0  0  0  0  0  0
    2.5817   -1.2048   -4.5283 H   0  0  0  0  0  0  0  0  0  0  0  0
    0.9196   -0.4133   -3.3889 C   0  0  0  0  0  0  0  0  0  0  0  0
    0.6859   -0.2971   -2.4211 H   0  0  0  0  0  0  0  0  0  0  0  0
    1.0170    0.4899   -3.8118 H   0  0  0  0  0  0  0  0  0  0  0  0
   -0.1791   -1.1537   -4.0692 N   0  0  0  0  0  4  0  0  0  0  0  0
    0.2075   -1.9097   -4.5957 H   0  0  0  0  0  0  0  0  0  0  0  0
   -0.8115   -1.5127   -3.3829 H   0  0  0  0  0  0  0  0  0  0  0  0
   -0.6670   -0.5331   -4.6826 H   0  0  0  0  0  0  0  0  0  0  0  0
    0.0035    2.9100    0.0187 C   0  0  0  0  0  0  0  0  0  0  0  0
   -0.6594    3.2243   -0.6436 H   0  0  0  0  0  0  0  0  0  0  0  0
    0.9155    3.2164   -0.2098 H   0  0  0  0  0  0  0  0  0  0  0  0
   -0.2603    3.3403    0.9849 H   0  0  0  0  0  0  0  0  0  0  0  0
    0.0010    1.4042    0.0004 C   0  0  0  0  0  0  0  0  0  0  0  0
   -1.1997    0.6965    0.0001 C   0  0  0  0  0  0  0  0  0  0  0  0
   -2.0642    1.1874   -0.0015 H   0  0  0  0  0  0  0  0  0  0  0  0
   -1.2072   -0.6990    0.0000 C   0  0  0  0  0  0  0  0  0  0  0  0
   -2.0819   -1.1904    0.0019 H   0  0  0  0  0  0  0  0  0  0  0  0
   -0.0018   -1.3973   -0.0005 C   0  0  0  0  0  0  0  0  0  0  0  0
   -0.0041   -2.3947   -0.0018 H   0  0  0  0  0  0  0  0  0  0  0  0
    1.2072   -0.6985    0.0000 C   0  0  0  0  0  0  0  0  0  0  0  0
    2.0848   -1.1969    0.0015 H   0  0  0  0  0  0  0  0  0  0  0  0
    1.2006    0.6941    0.0000 C   0  0  0  0  0  0  0  0  0  0  0  0
    2.0677    1.1918   -0.0005 H   0  0  0  0  0  0  0  0  0  0  0  0
  1  5  1  0
  5  8  1  0
  1  2  1  0
  1  3  1  0
  1  4  1  0
  5  6  1  0
  5  7  1  0
  8  9  1  0
  8 10  1  0
  8 11  1  0
 12 16  1  0
 16 17  2  0
 17 19  1  0
 19 21  2  0
 21 23  1  0
 23 25  2  0
 25 16  1  0
 12 13  1  0
 12 14  1  0
 12 15  1  0
 17 18  1  0
 19 20  1  0
 21 22  1  0
 23 24  1  0
 25 26  1  0
M  CHG  1   8   1
M  END
>  <PDB_ID>  (850) 
pdb1mi5

>  <RESIDUE_NAME>  (850) 
LYS   PHE

>  <FRAG_NAME>  (850) 
ETAM   MBZ

>  <FRAG_ATOM_NUM>  (850) 
fragi: 11  fragj: 15

>  <atom.prop.CHAIN_ID>  (850) 
A A A A A A A A A A A Z Z Z Z Z Z Z Z Z Z Z Z Z Z Z

>  <atom.prop.IS_HEAVY_ATOM>  (850) 
1 0 0 0 1 0 0 1 0 0 0 1 0 0 0 1 1 0 1 0 1 0 1 0 1 0

>  <DIFUSE_FUNC_ATOM>  (850) 
n/a

>  <FINAL_SINGLE_POINT_ENERGY>  (850) 
0

>  <NONCOV_INTER_ENERGY_QM>  (850) 
0

>  <FF_Energy>  (850) 
-4.6

>  <QM_Energy>  (850) 
-10.88

>  <source>  (850) 
ETAM_MBZ

>  <Index>  (850) 
8426

$$$$
ETAM-pdb2qep-A-LYS-929:MBZ-pdb2qep-A-PHE-885
     RDKit          3D

 26 25  0  0  0  0  0  0  0  0999 V2000
    3.4702   -2.8117    1.1001 C   0  0  0  0  0  0  0  0  0  0  0  0
    2.7713   -2.1054    1.2180 H   0  0  0  0  0  0  0  0  0  0  0  0
    4.3209   -2.3894    0.7864 H   0  0  0  0  0  0  0  0  0  0  0  0
    3.6483   -3.2958    2.0604 H   0  0  0  0  0  0  0  0  0  0  0  0
    2.9980   -3.7858    0.0442 C   0  0  0  0  0  0  0  0  0  0  0  0
    3.6924   -4.4920   -0.0853 H   0  0  0  0  0  0  0  0  0  0  0  0
    2.1438   -4.2083    0.3455 H   0  0  0  0  0  0  0  0  0  0  0  0
    2.7664   -3.0862   -1.2482 N   0  0  0  0  0  4  0  0  0  0  0  0
    1.9039   -2.5825   -1.2037 H   0  0  0  0  0  0  0  0  0  0  0  0
    3.5176   -2.4478   -1.4198 H   0  0  0  0  0  0  0  0  0  0  0  0
    2.7237   -3.7579   -1.9870 H   0  0  0  0  0  0  0  0  0  0  0  0
   -0.0117    2.9020    0.0044 C   0  0  0  0  0  0  0  0  0  0  0  0
    0.8158    3.2191    0.4474 H   0  0  0  0  0  0  0  0  0  0  0  0
   -0.8167    3.2122    0.4914 H   0  0  0  0  0  0  0  0  0  0  0  0
   -0.0407    3.3572   -0.9856 H   0  0  0  0  0  0  0  0  0  0  0  0
   -0.0056    1.4090   -0.0009 C   0  0  0  0  0  0  0  0  0  0  0  0
   -1.1979    0.6980    0.0071 C   0  0  0  0  0  0  0  0  0  0  0  0
   -2.0681    1.1826    0.0170 H   0  0  0  0  0  0  0  0  0  0  0  0
   -1.2030   -0.7005   -0.0000 C   0  0  0  0  0  0  0  0  0  0  0  0
   -2.0756   -1.1939    0.0025 H   0  0  0  0  0  0  0  0  0  0  0  0
    0.0081   -1.4034   -0.0089 C   0  0  0  0  0  0  0  0  0  0  0  0
   -0.0036   -2.3997   -0.0223 H   0  0  0  0  0  0  0  0  0  0  0  0
    1.2030   -0.7072   -0.0000 C   0  0  0  0  0  0  0  0  0  0  0  0
    2.0890   -1.1907    0.0060 H   0  0  0  0  0  0  0  0  0  0  0  0
    1.1954    0.7041    0.0027 C   0  0  0  0  0  0  0  0  0  0  0  0
    2.0622    1.1935    0.0068 H   0  0  0  0  0  0  0  0  0  0  0  0
  1  5  1  0
  5  8  1  0
  1  2  1  0
  1  3  1  0
  1  4  1  0
  5  6  1  0
  5  7  1  0
  8  9  1  0
  8 10  1  0
  8 11  1  0
 12 16  1  0
 16 17  2  0
 17 19  1  0
 19 21  2  0
 21 23  1  0
 23 25  2  0
 25 16  1  0
 12 13  1  0
 12 14  1  0
 12 15  1  0
 17 18  1  0
 19 20  1  0
 21 22  1  0
 23 24  1  0
 25 26  1  0
M  CHG  1   8   1
M  END
>  <PDB_ID>  (851) 
pdb2qep

>  <RESIDUE_NAME>  (851) 
LYS   PHE

>  <FRAG_NAME>  (851) 
ETAM   MBZ

>  <FRAG_ATOM_NUM>  (851) 
fragi: 11  fragj: 15

>  <atom.prop.CHAIN_ID>  (851) 
A A A A A A A A A A A Z Z Z Z Z Z Z Z Z Z Z Z Z Z Z

>  <atom.prop.IS_HEAVY_ATOM>  (851) 
1 0 0 0 1 0 0 1 0 0 0 1 0 0 0 1 1 0 1 0 1 0 1 0 1 0

>  <DIFUSE_FUNC_ATOM>  (851) 
n/a

>  <FINAL_SINGLE_POINT_ENERGY>  (851) 
0

>  <NONCOV_INTER_ENERGY_QM>  (851) 
0

>  <FF_Energy>  (851) 
14.76

>  <QM_Energy>  (851) 
-2.15

>  <source>  (851) 
ETAM_MBZ

>  <Index>  (851) 
8459

$$$$
ETAM-pdb1mki-A-LYS-203:MBZ-pdb1mki-A-PHE-167
     RDKit          3D

 26 25  0  0  0  0  0  0  0  0999 V2000
   -1.2050    0.2807   -3.5942 C   0  0  0  0  0  0  0  0  0  0  0  0
   -1.1428    0.6390   -4.5187 H   0  0  0  0  0  0  0  0  0  0  0  0
   -1.3881    1.0119   -2.9479 H   0  0  0  0  0  0  0  0  0  0  0  0
   -2.0160   -0.4462   -3.5490 H   0  0  0  0  0  0  0  0  0  0  0  0
    0.1291   -0.3599   -3.2332 C   0  0  0  0  0  0  0  0  0  0  0  0
    0.8620    0.3065   -3.3953 H   0  0  0  0  0  0  0  0  0  0  0  0
    0.1194   -0.5999   -2.2581 H   0  0  0  0  0  0  0  0  0  0  0  0
    0.3918   -1.5832   -4.0363 N   0  0  0  0  0  4  0  0  0  0  0  0
    0.6362   -2.3359   -3.4256 H   0  0  0  0  0  0  0  0  0  0  0  0
   -0.4296   -1.8250   -4.5517 H   0  0  0  0  0  0  0  0  0  0  0  0
    1.1450   -1.4091   -4.6703 H   0  0  0  0  0  0  0  0  0  0  0  0
   -0.0028    2.8991    0.0848 C   0  0  0  0  0  0  0  0  0  0  0  0
   -0.6796    3.2405   -0.5460 H   0  0  0  0  0  0  0  0  0  0  0  0
    0.9021    3.2186   -0.1396 H   0  0  0  0  0  0  0  0  0  0  0  0
   -0.2526    3.2683    1.0795 H   0  0  0  0  0  0  0  0  0  0  0  0
   -0.0016    1.4015    0.0006 C   0  0  0  0  0  0  0  0  0  0  0  0
   -1.1979    0.6944   -0.0007 C   0  0  0  0  0  0  0  0  0  0  0  0
   -2.0647    1.1847   -0.0033 H   0  0  0  0  0  0  0  0  0  0  0  0
   -1.2037   -0.6972    0.0000 C   0  0  0  0  0  0  0  0  0  0  0  0
   -2.0776   -1.1919    0.0011 H   0  0  0  0  0  0  0  0  0  0  0  0
    0.0028   -1.3950    0.0016 C   0  0  0  0  0  0  0  0  0  0  0  0
   -0.0021   -2.3924    0.0033 H   0  0  0  0  0  0  0  0  0  0  0  0
    1.2037   -0.6971   -0.0000 C   0  0  0  0  0  0  0  0  0  0  0  0
    2.0853   -1.1936    0.0013 H   0  0  0  0  0  0  0  0  0  0  0  0
    1.1967    0.6934   -0.0015 C   0  0  0  0  0  0  0  0  0  0  0  0
    2.0636    1.1912   -0.0046 H   0  0  0  0  0  0  0  0  0  0  0  0
  1  5  1  0
  5  8  1  0
  1  2  1  0
  1  3  1  0
  1  4  1  0
  5  6  1  0
  5  7  1  0
  8  9  1  0
  8 10  1  0
  8 11  1  0
 12 16  1  0
 16 17  2  0
 17 19  1  0
 19 21  2  0
 21 23  1  0
 23 25  2  0
 25 16  1  0
 12 13  1  0
 12 14  1  0
 12 15  1  0
 17 18  1  0
 19 20  1  0
 21 22  1  0
 23 24  1  0
 25 26  1  0
M  CHG  1   8   1
M  END
>  <PDB_ID>  (852) 
pdb1mki

>  <RESIDUE_NAME>  (852) 
LYS   PHE

>  <FRAG_NAME>  (852) 
ETAM   MBZ

>  <FRAG_ATOM_NUM>  (852) 
fragi: 11  fragj: 15

>  <atom.prop.CHAIN_ID>  (852) 
A A A A A A A A A A A Z Z Z Z Z Z Z Z Z Z Z Z Z Z Z

>  <atom.prop.IS_HEAVY_ATOM>  (852) 
1 0 0 0 1 0 0 1 0 0 0 1 0 0 0 1 1 0 1 0 1 0 1 0 1 0

>  <DIFUSE_FUNC_ATOM>  (852) 
n/a

>  <FINAL_SINGLE_POINT_ENERGY>  (852) 
0

>  <NONCOV_INTER_ENERGY_QM>  (852) 
0

>  <FF_Energy>  (852) 
-2.55

>  <QM_Energy>  (852) 
-10.27

>  <source>  (852) 
ETAM_MBZ

>  <Index>  (852) 
8498

$$$$
ETAM-pdb2qgq-A-LYS-246:MBZ-pdb2qgq-A-PHE-221
     RDKit          3D

 26 25  0  0  0  0  0  0  0  0999 V2000
    0.0738   -1.7020    3.5007 C   0  0  0  0  0  0  0  0  0  0  0  0
   -0.2611   -2.6310    3.3613 H   0  0  0  0  0  0  0  0  0  0  0  0
   -0.0558   -1.1663    2.6690 H   0  0  0  0  0  0  0  0  0  0  0  0
   -0.4967   -1.2419    4.3075 H   0  0  0  0  0  0  0  0  0  0  0  0
    1.5484   -1.7588    3.8175 C   0  0  0  0  0  0  0  0  0  0  0  0
    1.9085   -0.8273    3.8719 H   0  0  0  0  0  0  0  0  0  0  0  0
    1.6772   -2.2166    4.6973 H   0  0  0  0  0  0  0  0  0  0  0  0
    2.2737   -2.5039    2.7660 N   0  0  0  0  0  4  0  0  0  0  0  0
    2.5340   -3.4071    3.1119 H   0  0  0  0  0  0  0  0  0  0  0  0
    1.6837   -2.6137    1.9646 H   0  0  0  0  0  0  0  0  0  0  0  0
    3.0975   -1.9993    2.5040 H   0  0  0  0  0  0  0  0  0  0  0  0
    0.0126    2.9079    0.0448 C   0  0  0  0  0  0  0  0  0  0  0  0
   -0.7675    3.2385   -0.4630 H   0  0  0  0  0  0  0  0  0  0  0  0
    0.8617    3.2217   -0.3526 H   0  0  0  0  0  0  0  0  0  0  0  0
   -0.0516    3.3214    1.0513 H   0  0  0  0  0  0  0  0  0  0  0  0
    0.0002    1.4068    0.0003 C   0  0  0  0  0  0  0  0  0  0  0  0
   -1.2012    0.6994   -0.0008 C   0  0  0  0  0  0  0  0  0  0  0  0
   -2.0655    1.1874   -0.0036 H   0  0  0  0  0  0  0  0  0  0  0  0
   -1.2068   -0.6998    0.0000 C   0  0  0  0  0  0  0  0  0  0  0  0
   -2.0810   -1.1921    0.0007 H   0  0  0  0  0  0  0  0  0  0  0  0
    0.0030   -1.4018    0.0017 C   0  0  0  0  0  0  0  0  0  0  0  0
   -0.0020   -2.3965    0.0037 H   0  0  0  0  0  0  0  0  0  0  0  0
    1.2068   -0.6997   -0.0000 C   0  0  0  0  0  0  0  0  0  0  0  0
    2.0880   -1.1942    0.0008 H   0  0  0  0  0  0  0  0  0  0  0  0
    1.1980    0.6951   -0.0012 C   0  0  0  0  0  0  0  0  0  0  0  0
    2.0670    1.1925   -0.0042 H   0  0  0  0  0  0  0  0  0  0  0  0
  1  5  1  0
  5  8  1  0
  1  2  1  0
  1  3  1  0
  1  4  1  0
  5  6  1  0
  5  7  1  0
  8  9  1  0
  8 10  1  0
  8 11  1  0
 12 16  1  0
 16 17  2  0
 17 19  1  0
 19 21  2  0
 21 23  1  0
 23 25  2  0
 25 16  1  0
 12 13  1  0
 12 14  1  0
 12 15  1  0
 17 18  1  0
 19 20  1  0
 21 22  1  0
 23 24  1  0
 25 26  1  0
M  CHG  1   8   1
M  END
>  <PDB_ID>  (853) 
pdb2qgq

>  <RESIDUE_NAME>  (853) 
LYS   PHE

>  <FRAG_NAME>  (853) 
ETAM   MBZ

>  <FRAG_ATOM_NUM>  (853) 
fragi: 11  fragj: 15

>  <atom.prop.CHAIN_ID>  (853) 
A A A A A A A A A A A Z Z Z Z Z Z Z Z Z Z Z Z Z Z Z

>  <atom.prop.IS_HEAVY_ATOM>  (853) 
1 0 0 0 1 0 0 1 0 0 0 1 0 0 0 1 1 0 1 0 1 0 1 0 1 0

>  <DIFUSE_FUNC_ATOM>  (853) 
n/a

>  <FINAL_SINGLE_POINT_ENERGY>  (853) 
0

>  <NONCOV_INTER_ENERGY_QM>  (853) 
0

>  <FF_Energy>  (853) 
-2.66

>  <QM_Energy>  (853) 
-8.93

>  <source>  (853) 
ETAM_MBZ

>  <Index>  (853) 
8530

$$$$
ETAM-pdb1mki-B-LYS-203:MBZ-pdb1mki-B-PHE-167
     RDKit          3D

 26 25  0  0  0  0  0  0  0  0999 V2000
   -0.8910    0.4371   -3.7318 C   0  0  0  0  0  0  0  0  0  0  0  0
   -0.7895    0.7713   -4.6634 H   0  0  0  0  0  0  0  0  0  0  0  0
   -1.0620    1.1938   -3.1092 H   0  0  0  0  0  0  0  0  0  0  0  0
   -1.7329   -0.2540   -3.6918 H   0  0  0  0  0  0  0  0  0  0  0  0
    0.4173   -0.2400   -3.3184 C   0  0  0  0  0  0  0  0  0  0  0  0
    1.1601    0.4372   -3.3713 H   0  0  0  0  0  0  0  0  0  0  0  0
    0.3343   -0.5451   -2.3620 H   0  0  0  0  0  0  0  0  0  0  0  0
    0.7624   -1.4117   -4.1754 N   0  0  0  0  0  4  0  0  0  0  0  0
    0.0192   -1.5773   -4.8219 H   0  0  0  0  0  0  0  0  0  0  0  0
    1.6053   -1.2176   -4.6752 H   0  0  0  0  0  0  0  0  0  0  0  0
    0.8916   -2.2160   -3.5975 H   0  0  0  0  0  0  0  0  0  0  0  0
    0.0071    2.9041    0.0921 C   0  0  0  0  0  0  0  0  0  0  0  0
   -0.6510    3.2498   -0.5541 H   0  0  0  0  0  0  0  0  0  0  0  0
    0.9190    3.2192   -0.1063 H   0  0  0  0  0  0  0  0  0  0  0  0
   -0.2680    3.2701    1.0812 H   0  0  0  0  0  0  0  0  0  0  0  0
    0.0034    1.4025    0.0010 C   0  0  0  0  0  0  0  0  0  0  0  0
   -1.1960    0.6992   -0.0009 C   0  0  0  0  0  0  0  0  0  0  0  0
   -2.0615    1.1885   -0.0037 H   0  0  0  0  0  0  0  0  0  0  0  0
   -1.2059   -0.7002   -0.0000 C   0  0  0  0  0  0  0  0  0  0  0  0
   -2.0839   -1.1870    0.0009 H   0  0  0  0  0  0  0  0  0  0  0  0
   -0.0054   -1.3992    0.0013 C   0  0  0  0  0  0  0  0  0  0  0  0
   -0.0040   -2.3941    0.0024 H   0  0  0  0  0  0  0  0  0  0  0  0
    1.2059   -0.6956    0.0000 C   0  0  0  0  0  0  0  0  0  0  0  0
    2.0827   -1.1966    0.0011 H   0  0  0  0  0  0  0  0  0  0  0  0
    1.1981    0.6932   -0.0014 C   0  0  0  0  0  0  0  0  0  0  0  0
    2.0670    1.1913   -0.0054 H   0  0  0  0  0  0  0  0  0  0  0  0
  1  5  1  0
  5  8  1  0
  1  2  1  0
  1  3  1  0
  1  4  1  0
  5  6  1  0
  5  7  1  0
  8  9  1  0
  8 10  1  0
  8 11  1  0
 12 16  1  0
 16 17  2  0
 17 19  1  0
 19 21  2  0
 21 23  1  0
 23 25  2  0
 25 16  1  0
 12 13  1  0
 12 14  1  0
 12 15  1  0
 17 18  1  0
 19 20  1  0
 21 22  1  0
 23 24  1  0
 25 26  1  0
M  CHG  1   8   1
M  END
>  <PDB_ID>  (854) 
pdb1mki

>  <RESIDUE_NAME>  (854) 
LYS   PHE

>  <FRAG_NAME>  (854) 
ETAM   MBZ

>  <FRAG_ATOM_NUM>  (854) 
fragi: 11  fragj: 15

>  <atom.prop.CHAIN_ID>  (854) 
A A A A A A A A A A A Z Z Z Z Z Z Z Z Z Z Z Z Z Z Z

>  <atom.prop.IS_HEAVY_ATOM>  (854) 
1 0 0 0 1 0 0 1 0 0 0 1 0 0 0 1 1 0 1 0 1 0 1 0 1 0

>  <DIFUSE_FUNC_ATOM>  (854) 
n/a

>  <FINAL_SINGLE_POINT_ENERGY>  (854) 
0

>  <NONCOV_INTER_ENERGY_QM>  (854) 
0

>  <FF_Energy>  (854) 
-4.06

>  <QM_Energy>  (854) 
-10.17

>  <source>  (854) 
ETAM_MBZ

>  <Index>  (854) 
8538

$$$$
ETAM-pdb1mox-C-VAL-2:MBZ-pdb1mox-C-PHE-5
     RDKit          3D

 26 25  0  0  0  0  0  0  0  0999 V2000
   -4.6029    1.5018    0.1402 C   0  0  0  0  0  0  0  0  0  0  0  0
   -3.6958    1.1950    0.4468 H   0  0  0  0  0  0  0  0  0  0  0  0
   -5.3347    0.8999    0.6789 H   0  0  0  0  0  0  0  0  0  0  0  0
   -4.6554    1.2964   -0.9289 H   0  0  0  0  0  0  0  0  0  0  0  0
   -4.7225    2.9951    0.4464 C   0  0  0  0  0  0  0  0  0  0  0  0
   -5.6191    3.3376    0.1674 H   0  0  0  0  0  0  0  0  0  0  0  0
   -4.6024    3.1725    1.5151 H   0  0  0  0  0  0  0  0  0  0  0  0
   -3.6944    3.7594   -0.3195 N   0  0  0  0  0  4  0  0  0  0  0  0
   -2.8040    3.6254    0.1074 H   0  0  0  0  0  0  0  0  0  0  0  0
   -3.6732    3.4261   -1.2586 H   0  0  0  0  0  0  0  0  0  0  0  0
   -3.9328    4.7269   -0.3094 H   0  0  0  0  0  0  0  0  0  0  0  0
   -0.0006    2.9089    0.0655 C   0  0  0  0  0  0  0  0  0  0  0  0
   -0.8137    3.2342   -0.3892 H   0  0  0  0  0  0  0  0  0  0  0  0
    0.8194    3.2331   -0.3790 H   0  0  0  0  0  0  0  0  0  0  0  0
   -0.0068    3.3034    1.0816 H   0  0  0  0  0  0  0  0  0  0  0  0
   -0.0012    1.4033    0.0013 C   0  0  0  0  0  0  0  0  0  0  0  0
   -1.2012    0.6959   -0.0006 C   0  0  0  0  0  0  0  0  0  0  0  0
   -2.0658    1.1857   -0.0038 H   0  0  0  0  0  0  0  0  0  0  0  0
   -1.2050   -0.6968   -0.0000 C   0  0  0  0  0  0  0  0  0  0  0  0
   -2.0778   -1.1924    0.0008 H   0  0  0  0  0  0  0  0  0  0  0  0
    0.0028   -1.3938    0.0011 C   0  0  0  0  0  0  0  0  0  0  0  0
   -0.0033   -2.3931    0.0022 H   0  0  0  0  0  0  0  0  0  0  0  0
    1.2050   -0.6988    0.0000 C   0  0  0  0  0  0  0  0  0  0  0  0
    2.0849   -1.1972    0.0018 H   0  0  0  0  0  0  0  0  0  0  0  0
    1.1996    0.6903   -0.0017 C   0  0  0  0  0  0  0  0  0  0  0  0
    2.0660    1.1891   -0.0063 H   0  0  0  0  0  0  0  0  0  0  0  0
  1  5  1  0
  5  8  1  0
  1  2  1  0
  1  3  1  0
  1  4  1  0
  5  6  1  0
  5  7  1  0
  8  9  1  0
  8 10  1  0
  8 11  1  0
 12 16  1  0
 16 17  2  0
 17 19  1  0
 19 21  2  0
 21 23  1  0
 23 25  2  0
 25 16  1  0
 12 13  1  0
 12 14  1  0
 12 15  1  0
 17 18  1  0
 19 20  1  0
 21 22  1  0
 23 24  1  0
 25 26  1  0
M  CHG  1   8   1
M  END
>  <PDB_ID>  (855) 
pdb1mox

>  <RESIDUE_NAME>  (855) 
VAL   PHE

>  <FRAG_NAME>  (855) 
ETAM   MBZ

>  <FRAG_ATOM_NUM>  (855) 
fragi: 11  fragj: 15

>  <atom.prop.CHAIN_ID>  (855) 
A A A A A A A A A A A Z Z Z Z Z Z Z Z Z Z Z Z Z Z Z

>  <atom.prop.IS_HEAVY_ATOM>  (855) 
1 0 0 0 1 0 0 1 0 0 0 1 0 0 0 1 1 0 1 0 1 0 1 0 1 0

>  <DIFUSE_FUNC_ATOM>  (855) 
n/a

>  <FINAL_SINGLE_POINT_ENERGY>  (855) 
0

>  <NONCOV_INTER_ENERGY_QM>  (855) 
0

>  <FF_Energy>  (855) 
7.63

>  <QM_Energy>  (855) 
-0.73

>  <source>  (855) 
ETAM_MBZ

>  <Index>  (855) 
8543

$$$$
ETAM-pdb2qiy-A-LYS-58:MBZ-pdb2qiy-B-PHE-88
     RDKit          3D

 26 25  0  0  0  0  0  0  0  0999 V2000
   -2.1649   -1.8784    5.5751 C   0  0  0  0  0  0  0  0  0  0  0  0
   -1.9438   -2.8374    5.4987 H   0  0  0  0  0  0  0  0  0  0  0  0
   -3.0083   -1.6606    5.1115 H   0  0  0  0  0  0  0  0  0  0  0  0
   -2.2570   -1.6161    6.6291 H   0  0  0  0  0  0  0  0  0  0  0  0
   -1.0460   -1.0693    4.9579 C   0  0  0  0  0  0  0  0  0  0  0  0
   -1.2141   -0.1038    5.0948 H   0  0  0  0  0  0  0  0  0  0  0  0
   -0.1790   -1.3400    5.3502 H   0  0  0  0  0  0  0  0  0  0  0  0
   -1.0018   -1.3421    3.4609 N   0  0  0  0  0  4  0  0  0  0  0  0
   -1.9253   -1.5375    3.1499 H   0  0  0  0  0  0  0  0  0  0  0  0
   -0.6441   -0.5345    3.0041 H   0  0  0  0  0  0  0  0  0  0  0  0
   -0.4083   -2.1230    3.3002 H   0  0  0  0  0  0  0  0  0  0  0  0
   -0.0101    2.8994    0.0257 C   0  0  0  0  0  0  0  0  0  0  0  0
   -0.7745    3.2214   -0.5044 H   0  0  0  0  0  0  0  0  0  0  0  0
    0.8496    3.2153   -0.3346 H   0  0  0  0  0  0  0  0  0  0  0  0
   -0.1143    3.2908    1.0378 H   0  0  0  0  0  0  0  0  0  0  0  0
   -0.0118    1.4000   -0.0153 C   0  0  0  0  0  0  0  0  0  0  0  0
   -1.2019    0.6948   -0.0024 C   0  0  0  0  0  0  0  0  0  0  0  0
   -2.0713    1.1735    0.0040 H   0  0  0  0  0  0  0  0  0  0  0  0
   -1.1975   -0.7059   -0.0000 C   0  0  0  0  0  0  0  0  0  0  0  0
   -2.0658   -1.2031   -0.0052 H   0  0  0  0  0  0  0  0  0  0  0  0
    0.0161   -1.3832    0.0114 C   0  0  0  0  0  0  0  0  0  0  0  0
    0.0071   -2.3925    0.0277 H   0  0  0  0  0  0  0  0  0  0  0  0
    1.1975   -0.7015    0.0000 C   0  0  0  0  0  0  0  0  0  0  0  0
    2.0875   -1.1910   -0.0119 H   0  0  0  0  0  0  0  0  0  0  0  0
    1.1976    0.6959    0.0064 C   0  0  0  0  0  0  0  0  0  0  0  0
    2.0580    1.1921    0.0256 H   0  0  0  0  0  0  0  0  0  0  0  0
  1  5  1  0
  5  8  1  0
  1  2  1  0
  1  3  1  0
  1  4  1  0
  5  6  1  0
  5  7  1  0
  8  9  1  0
  8 10  1  0
  8 11  1  0
 12 16  1  0
 16 17  2  0
 17 19  1  0
 19 21  2  0
 21 23  1  0
 23 25  2  0
 25 16  1  0
 12 13  1  0
 12 14  1  0
 12 15  1  0
 17 18  1  0
 19 20  1  0
 21 22  1  0
 23 24  1  0
 25 26  1  0
M  CHG  1   8   1
M  END
>  <PDB_ID>  (856) 
pdb2qiy

>  <RESIDUE_NAME>  (856) 
LYS   PHE

>  <FRAG_NAME>  (856) 
ETAM   MBZ

>  <FRAG_ATOM_NUM>  (856) 
fragi: 11  fragj: 15

>  <atom.prop.CHAIN_ID>  (856) 
A A A A A A A A A A A Z Z Z Z Z Z Z Z Z Z Z Z Z Z Z

>  <atom.prop.IS_HEAVY_ATOM>  (856) 
1 0 0 0 1 0 0 1 0 0 0 1 0 0 0 1 1 0 1 0 1 0 1 0 1 0

>  <DIFUSE_FUNC_ATOM>  (856) 
n/a

>  <FINAL_SINGLE_POINT_ENERGY>  (856) 
0

>  <NONCOV_INTER_ENERGY_QM>  (856) 
0

>  <FF_Energy>  (856) 
-5.23

>  <QM_Energy>  (856) 
-10.63

>  <source>  (856) 
ETAM_MBZ

>  <Index>  (856) 
8550

$$$$
ETAM-pdb2qiy-B-LYS-58:MBZ-pdb2qiy-A-PHE-88
     RDKit          3D

 26 25  0  0  0  0  0  0  0  0999 V2000
   -2.1165   -1.5372    5.7313 C   0  0  0  0  0  0  0  0  0  0  0  0
   -1.9848   -2.5211    5.6278 H   0  0  0  0  0  0  0  0  0  0  0  0
   -3.0274   -1.2821    5.4136 H   0  0  0  0  0  0  0  0  0  0  0  0
   -2.0257   -1.2790    6.7865 H   0  0  0  0  0  0  0  0  0  0  0  0
   -1.0924   -0.8190    4.8994 C   0  0  0  0  0  0  0  0  0  0  0  0
   -0.9929    0.1197    5.2321 H   0  0  0  0  0  0  0  0  0  0  0  0
   -0.2123   -1.2906    4.9735 H   0  0  0  0  0  0  0  0  0  0  0  0
   -1.5056   -0.7867    3.4729 N   0  0  0  0  0  4  0  0  0  0  0  0
   -0.7461   -0.4534    2.9136 H   0  0  0  0  0  0  0  0  0  0  0  0
   -1.7576   -1.7086    3.1780 H   0  0  0  0  0  0  0  0  0  0  0  0
   -2.2908   -0.1762    3.3673 H   0  0  0  0  0  0  0  0  0  0  0  0
   -0.0066    2.9129    0.0040 C   0  0  0  0  0  0  0  0  0  0  0  0
   -0.7995    3.2204   -0.4961 H   0  0  0  0  0  0  0  0  0  0  0  0
    0.8319    3.2202   -0.4155 H   0  0  0  0  0  0  0  0  0  0  0  0
   -0.0556    3.3400    1.0056 H   0  0  0  0  0  0  0  0  0  0  0  0
   -0.0062    1.4049   -0.0054 C   0  0  0  0  0  0  0  0  0  0  0  0
   -1.2009    0.6992    0.0046 C   0  0  0  0  0  0  0  0  0  0  0  0
   -2.0685    1.1847    0.0137 H   0  0  0  0  0  0  0  0  0  0  0  0
   -1.2028   -0.6963    0.0000 C   0  0  0  0  0  0  0  0  0  0  0  0
   -2.0744   -1.1928   -0.0046 H   0  0  0  0  0  0  0  0  0  0  0  0
    0.0104   -1.3967    0.0045 C   0  0  0  0  0  0  0  0  0  0  0  0
   -0.0057   -2.3976    0.0105 H   0  0  0  0  0  0  0  0  0  0  0  0
    1.2028   -0.7107   -0.0000 C   0  0  0  0  0  0  0  0  0  0  0  0
    2.0883   -1.1944    0.0009 H   0  0  0  0  0  0  0  0  0  0  0  0
    1.1967    0.6997   -0.0037 C   0  0  0  0  0  0  0  0  0  0  0  0
    2.0622    1.1895   -0.0056 H   0  0  0  0  0  0  0  0  0  0  0  0
  1  5  1  0
  5  8  1  0
  1  2  1  0
  1  3  1  0
  1  4  1  0
  5  6  1  0
  5  7  1  0
  8  9  1  0
  8 10  1  0
  8 11  1  0
 12 16  1  0
 16 17  2  0
 17 19  1  0
 19 21  2  0
 21 23  1  0
 23 25  2  0
 25 16  1  0
 12 13  1  0
 12 14  1  0
 12 15  1  0
 17 18  1  0
 19 20  1  0
 21 22  1  0
 23 24  1  0
 25 26  1  0
M  CHG  1   8   1
M  END
>  <PDB_ID>  (857) 
pdb2qiy

>  <RESIDUE_NAME>  (857) 
LYS   PHE

>  <FRAG_NAME>  (857) 
ETAM   MBZ

>  <FRAG_ATOM_NUM>  (857) 
fragi: 11  fragj: 15

>  <atom.prop.CHAIN_ID>  (857) 
A A A A A A A A A A A Z Z Z Z Z Z Z Z Z Z Z Z Z Z Z

>  <atom.prop.IS_HEAVY_ATOM>  (857) 
1 0 0 0 1 0 0 1 0 0 0 1 0 0 0 1 1 0 1 0 1 0 1 0 1 0

>  <DIFUSE_FUNC_ATOM>  (857) 
n/a

>  <FINAL_SINGLE_POINT_ENERGY>  (857) 
0

>  <NONCOV_INTER_ENERGY_QM>  (857) 
0

>  <FF_Energy>  (857) 
-5.44

>  <QM_Energy>  (857) 
-10.99

>  <source>  (857) 
ETAM_MBZ

>  <Index>  (857) 
8551

$$$$
ETAM-pdb2qhr-L-LYS-167:MBZ-pdb2qhr-L-PHE-172
     RDKit          3D

 26 25  0  0  0  0  0  0  0  0999 V2000
   -0.8940   -1.7876   -3.3703 C   0  0  0  0  0  0  0  0  0  0  0  0
   -0.0078   -1.4899   -3.6978 H   0  0  0  0  0  0  0  0  0  0  0  0
   -1.0468   -1.4919   -2.4372 H   0  0  0  0  0  0  0  0  0  0  0  0
   -1.6566   -1.3274   -3.9986 H   0  0  0  0  0  0  0  0  0  0  0  0
   -0.9451   -3.3354   -3.4149 C   0  0  0  0  0  0  0  0  0  0  0  0
   -1.9255   -3.6241   -3.5087 H   0  0  0  0  0  0  0  0  0  0  0  0
   -0.4864   -3.6494   -4.2773 H   0  0  0  0  0  0  0  0  0  0  0  0
   -0.3344   -4.1370   -2.2461 N   0  0  0  0  0  4  0  0  0  0  0  0
    0.4188   -4.6717   -2.6047 H   0  0  0  0  0  0  0  0  0  0  0  0
   -0.0184   -3.4896   -1.5654 H   0  0  0  0  0  0  0  0  0  0  0  0
   -1.0422   -4.7239   -1.8765 H   0  0  0  0  0  0  0  0  0  0  0  0
    0.0130    2.9128   -0.0105 C   0  0  0  0  0  0  0  0  0  0  0  0
    0.7850    3.2193    0.5210 H   0  0  0  0  0  0  0  0  0  0  0  0
   -0.8407    3.2331    0.3638 H   0  0  0  0  0  0  0  0  0  0  0  0
    0.1139    3.3237   -1.0150 H   0  0  0  0  0  0  0  0  0  0  0  0
   -0.0029    1.4076    0.0152 C   0  0  0  0  0  0  0  0  0  0  0  0
   -1.1955    0.7044   -0.0065 C   0  0  0  0  0  0  0  0  0  0  0  0
   -2.0653    1.1837   -0.0286 H   0  0  0  0  0  0  0  0  0  0  0  0
   -1.2022   -0.7077    0.0000 C   0  0  0  0  0  0  0  0  0  0  0  0
   -2.0727   -1.1948    0.0058 H   0  0  0  0  0  0  0  0  0  0  0  0
    0.0123   -1.3996    0.0008 C   0  0  0  0  0  0  0  0  0  0  0  0
    0.0074   -2.3983    0.0013 H   0  0  0  0  0  0  0  0  0  0  0  0
    1.2022   -0.6992   -0.0000 C   0  0  0  0  0  0  0  0  0  0  0  0
    2.0897   -1.1860    0.0072 H   0  0  0  0  0  0  0  0  0  0  0  0
    1.1861    0.6945   -0.0095 C   0  0  0  0  0  0  0  0  0  0  0  0
    2.0599    1.1914   -0.0359 H   0  0  0  0  0  0  0  0  0  0  0  0
  1  5  1  0
  5  8  1  0
  1  2  1  0
  1  3  1  0
  1  4  1  0
  5  6  1  0
  5  7  1  0
  8  9  1  0
  8 10  1  0
  8 11  1  0
 12 16  1  0
 16 17  2  0
 17 19  1  0
 19 21  2  0
 21 23  1  0
 23 25  2  0
 25 16  1  0
 12 13  1  0
 12 14  1  0
 12 15  1  0
 17 18  1  0
 19 20  1  0
 21 22  1  0
 23 24  1  0
 25 26  1  0
M  CHG  1   8   1
M  END
>  <PDB_ID>  (858) 
pdb2qhr

>  <RESIDUE_NAME>  (858) 
LYS   PHE

>  <FRAG_NAME>  (858) 
ETAM   MBZ

>  <FRAG_ATOM_NUM>  (858) 
fragi: 11  fragj: 15

>  <atom.prop.CHAIN_ID>  (858) 
A A A A A A A A A A A Z Z Z Z Z Z Z Z Z Z Z Z Z Z Z

>  <atom.prop.IS_HEAVY_ATOM>  (858) 
1 0 0 0 1 0 0 1 0 0 0 1 0 0 0 1 1 0 1 0 1 0 1 0 1 0

>  <DIFUSE_FUNC_ATOM>  (858) 
n/a

>  <FINAL_SINGLE_POINT_ENERGY>  (858) 
0

>  <NONCOV_INTER_ENERGY_QM>  (858) 
0

>  <FF_Energy>  (858) 
-0.24

>  <QM_Energy>  (858) 
-6.27

>  <source>  (858) 
ETAM_MBZ

>  <Index>  (858) 
8572

$$$$
ETAM-pdb1mrz-B-LYS-330:MBZ-pdb1mrz-B-PHE-327
     RDKit          3D

 26 25  0  0  0  0  0  0  0  0999 V2000
   -1.7441    0.4142    5.4693 C   0  0  0  0  0  0  0  0  0  0  0  0
   -2.5750   -0.0899    5.6704 H   0  0  0  0  0  0  0  0  0  0  0  0
   -1.9133    1.1069    4.7789 H   0  0  0  0  0  0  0  0  0  0  0  0
   -1.4032    0.9040    6.3814 H   0  0  0  0  0  0  0  0  0  0  0  0
   -0.6993   -0.5616    4.9342 C   0  0  0  0  0  0  0  0  0  0  0  0
    0.1596   -0.0654    4.7822 H   0  0  0  0  0  0  0  0  0  0  0  0
   -0.5430   -1.2776    5.6195 H   0  0  0  0  0  0  0  0  0  0  0  0
   -1.1273   -1.2012    3.6503 N   0  0  0  0  0  4  0  0  0  0  0  0
   -0.3619   -1.1922    3.0093 H   0  0  0  0  0  0  0  0  0  0  0  0
   -1.4063   -2.1430    3.8305 H   0  0  0  0  0  0  0  0  0  0  0  0
   -1.8942   -0.6888    3.2687 H   0  0  0  0  0  0  0  0  0  0  0  0
    0.0045    2.9000   -0.0076 C   0  0  0  0  0  0  0  0  0  0  0  0
   -0.6469    3.2033   -0.6856 H   0  0  0  0  0  0  0  0  0  0  0  0
    0.9199    3.2039   -0.2257 H   0  0  0  0  0  0  0  0  0  0  0  0
   -0.2760    3.3427    0.9482 H   0  0  0  0  0  0  0  0  0  0  0  0
    0.0033    1.3973   -0.0015 C   0  0  0  0  0  0  0  0  0  0  0  0
   -1.1887    0.6933   -0.0006 C   0  0  0  0  0  0  0  0  0  0  0  0
   -2.0564    1.1823   -0.0014 H   0  0  0  0  0  0  0  0  0  0  0  0
   -1.1941   -0.6965    0.0000 C   0  0  0  0  0  0  0  0  0  0  0  0
   -2.0772   -1.1850   -0.0019 H   0  0  0  0  0  0  0  0  0  0  0  0
   -0.0068   -1.3889    0.0058 C   0  0  0  0  0  0  0  0  0  0  0  0
   -0.0063   -2.3897    0.0132 H   0  0  0  0  0  0  0  0  0  0  0  0
    1.1941   -0.6943    0.0000 C   0  0  0  0  0  0  0  0  0  0  0  0
    2.0750   -1.1968   -0.0003 H   0  0  0  0  0  0  0  0  0  0  0  0
    1.1922    0.6891   -0.0036 C   0  0  0  0  0  0  0  0  0  0  0  0
    2.0637    1.1854   -0.0089 H   0  0  0  0  0  0  0  0  0  0  0  0
  1  5  1  0
  5  8  1  0
  1  2  1  0
  1  3  1  0
  1  4  1  0
  5  6  1  0
  5  7  1  0
  8  9  1  0
  8 10  1  0
  8 11  1  0
 12 16  1  0
 16 17  2  0
 17 19  1  0
 19 21  2  0
 21 23  1  0
 23 25  2  0
 25 16  1  0
 12 13  1  0
 12 14  1  0
 12 15  1  0
 17 18  1  0
 19 20  1  0
 21 22  1  0
 23 24  1  0
 25 26  1  0
M  CHG  1   8   1
M  END
>  <PDB_ID>  (859) 
pdb1mrz

>  <RESIDUE_NAME>  (859) 
LYS   PHE

>  <FRAG_NAME>  (859) 
ETAM   MBZ

>  <FRAG_ATOM_NUM>  (859) 
fragi: 11  fragj: 15

>  <atom.prop.CHAIN_ID>  (859) 
A A A A A A A A A A A Z Z Z Z Z Z Z Z Z Z Z Z Z Z Z

>  <atom.prop.IS_HEAVY_ATOM>  (859) 
1 0 0 0 1 0 0 1 0 0 0 1 0 0 0 1 1 0 1 0 1 0 1 0 1 0

>  <DIFUSE_FUNC_ATOM>  (859) 
n/a

>  <FINAL_SINGLE_POINT_ENERGY>  (859) 
0

>  <NONCOV_INTER_ENERGY_QM>  (859) 
0

>  <FF_Energy>  (859) 
-5.16

>  <QM_Energy>  (859) 
-10.36

>  <source>  (859) 
ETAM_MBZ

>  <Index>  (859) 
8573

$$$$
ETAM-pdb2qfv-B-LYS-344:MBZ-pdb2qfv-B-PHE-305
     RDKit          3D

 26 25  0  0  0  0  0  0  0  0999 V2000
   -0.2666   -0.5385   -3.3222 C   0  0  0  0  0  0  0  0  0  0  0  0
   -0.6285   -0.6063   -2.3960 H   0  0  0  0  0  0  0  0  0  0  0  0
   -0.7622   -1.1555   -3.9279 H   0  0  0  0  0  0  0  0  0  0  0  0
   -0.4056    0.4831   -3.6759 H   0  0  0  0  0  0  0  0  0  0  0  0
    1.1968   -0.9428   -3.3052 C   0  0  0  0  0  0  0  0  0  0  0  0
    1.7217   -0.2462   -2.8030 H   0  0  0  0  0  0  0  0  0  0  0  0
    1.2877   -1.8197   -2.8174 H   0  0  0  0  0  0  0  0  0  0  0  0
    1.7658   -1.0868   -4.6730 N   0  0  0  0  0  4  0  0  0  0  0  0
    2.7314   -0.8300   -4.6590 H   0  0  0  0  0  0  0  0  0  0  0  0
    1.6751   -2.0367   -4.9712 H   0  0  0  0  0  0  0  0  0  0  0  0
    1.2701   -0.4899   -5.3035 H   0  0  0  0  0  0  0  0  0  0  0  0
    0.0006    2.8993    0.0044 C   0  0  0  0  0  0  0  0  0  0  0  0
   -0.8119    3.2122   -0.4697 H   0  0  0  0  0  0  0  0  0  0  0  0
    0.8211    3.2116   -0.4552 H   0  0  0  0  0  0  0  0  0  0  0  0
   -0.0079    3.3469    0.9982 H   0  0  0  0  0  0  0  0  0  0  0  0
   -0.0001    1.4027    0.0002 C   0  0  0  0  0  0  0  0  0  0  0  0
   -1.2006    0.6941    0.0006 C   0  0  0  0  0  0  0  0  0  0  0  0
   -2.0656    1.1869   -0.0001 H   0  0  0  0  0  0  0  0  0  0  0  0
   -1.2067   -0.6968    0.0000 C   0  0  0  0  0  0  0  0  0  0  0  0
   -2.0796   -1.1926    0.0006 H   0  0  0  0  0  0  0  0  0  0  0  0
    0.0025   -1.3990   -0.0001 C   0  0  0  0  0  0  0  0  0  0  0  0
   -0.0026   -2.3940   -0.0010 H   0  0  0  0  0  0  0  0  0  0  0  0
    1.2067   -0.6973   -0.0000 C   0  0  0  0  0  0  0  0  0  0  0  0
    2.0874   -1.1928    0.0023 H   0  0  0  0  0  0  0  0  0  0  0  0
    1.1982    0.6962   -0.0007 C   0  0  0  0  0  0  0  0  0  0  0  0
    2.0657    1.1937   -0.0026 H   0  0  0  0  0  0  0  0  0  0  0  0
  1  5  1  0
  5  8  1  0
  1  2  1  0
  1  3  1  0
  1  4  1  0
  5  6  1  0
  5  7  1  0
  8  9  1  0
  8 10  1  0
  8 11  1  0
 12 16  1  0
 16 17  2  0
 17 19  1  0
 19 21  2  0
 21 23  1  0
 23 25  2  0
 25 16  1  0
 12 13  1  0
 12 14  1  0
 12 15  1  0
 17 18  1  0
 19 20  1  0
 21 22  1  0
 23 24  1  0
 25 26  1  0
M  CHG  1   8   1
M  END
>  <PDB_ID>  (860) 
pdb2qfv

>  <RESIDUE_NAME>  (860) 
LYS   PHE

>  <FRAG_NAME>  (860) 
ETAM   MBZ

>  <FRAG_ATOM_NUM>  (860) 
fragi: 11  fragj: 15

>  <atom.prop.CHAIN_ID>  (860) 
A A A A A A A A A A A Z Z Z Z Z Z Z Z Z Z Z Z Z Z Z

>  <atom.prop.IS_HEAVY_ATOM>  (860) 
1 0 0 0 1 0 0 1 0 0 0 1 0 0 0 1 1 0 1 0 1 0 1 0 1 0

>  <DIFUSE_FUNC_ATOM>  (860) 
n/a

>  <FINAL_SINGLE_POINT_ENERGY>  (860) 
0

>  <NONCOV_INTER_ENERGY_QM>  (860) 
0

>  <FF_Energy>  (860) 
-2.67

>  <QM_Energy>  (860) 
-8.34

>  <source>  (860) 
ETAM_MBZ

>  <Index>  (860) 
8578

$$$$
ETAM-pdb2qkl-A-LYS-122:MBZ-pdb2qkl-A-PHE-118
     RDKit          3D

 26 25  0  0  0  0  0  0  0  0999 V2000
    0.4430   -2.0424    4.1696 C   0  0  0  0  0  0  0  0  0  0  0  0
    1.0186   -2.7558    3.7748 H   0  0  0  0  0  0  0  0  0  0  0  0
    0.2611   -2.2470    5.1290 H   0  0  0  0  0  0  0  0  0  0  0  0
    0.9712   -1.0911    4.1069 H   0  0  0  0  0  0  0  0  0  0  0  0
   -0.8738   -2.0117    3.4222 C   0  0  0  0  0  0  0  0  0  0  0  0
   -1.5762   -1.6184    4.0075 H   0  0  0  0  0  0  0  0  0  0  0  0
   -0.7712   -1.4661    2.5949 H   0  0  0  0  0  0  0  0  0  0  0  0
   -1.2765   -3.4018    3.0426 N   0  0  0  0  0  4  0  0  0  0  0  0
   -1.7665   -3.3747    2.1735 H   0  0  0  0  0  0  0  0  0  0  0  0
   -0.4585   -3.9669    2.9520 H   0  0  0  0  0  0  0  0  0  0  0  0
   -1.8686   -3.7771    3.7534 H   0  0  0  0  0  0  0  0  0  0  0  0
   -0.0023    2.9300    0.0059 C   0  0  0  0  0  0  0  0  0  0  0  0
   -0.8766    3.2299   -0.3469 H   0  0  0  0  0  0  0  0  0  0  0  0
    0.7409    3.2297   -0.5744 H   0  0  0  0  0  0  0  0  0  0  0  0
    0.1359    3.3898    0.9845 H   0  0  0  0  0  0  0  0  0  0  0  0
   -0.0023    1.4059    0.0078 C   0  0  0  0  0  0  0  0  0  0  0  0
   -1.1974    0.7001   -0.0049 C   0  0  0  0  0  0  0  0  0  0  0  0
   -2.0660    1.1868   -0.0190 H   0  0  0  0  0  0  0  0  0  0  0  0
   -1.2068   -0.7003    0.0000 C   0  0  0  0  0  0  0  0  0  0  0  0
   -2.0806   -1.1893    0.0099 H   0  0  0  0  0  0  0  0  0  0  0  0
    0.0016   -1.3973   -0.0072 C   0  0  0  0  0  0  0  0  0  0  0  0
   -0.0006   -2.3934   -0.0179 H   0  0  0  0  0  0  0  0  0  0  0  0
    1.2068   -0.6954    0.0000 C   0  0  0  0  0  0  0  0  0  0  0  0
    2.0854   -1.1970    0.0040 H   0  0  0  0  0  0  0  0  0  0  0  0
    1.1981    0.6870    0.0043 C   0  0  0  0  0  0  0  0  0  0  0  0
    2.0656    1.1915    0.0047 H   0  0  0  0  0  0  0  0  0  0  0  0
  1  5  1  0
  5  8  1  0
  1  2  1  0
  1  3  1  0
  1  4  1  0
  5  6  1  0
  5  7  1  0
  8  9  1  0
  8 10  1  0
  8 11  1  0
 12 16  1  0
 16 17  2  0
 17 19  1  0
 19 21  2  0
 21 23  1  0
 23 25  2  0
 25 16  1  0
 12 13  1  0
 12 14  1  0
 12 15  1  0
 17 18  1  0
 19 20  1  0
 21 22  1  0
 23 24  1  0
 25 26  1  0
M  CHG  1   8   1
M  END
>  <PDB_ID>  (861) 
pdb2qkl

>  <RESIDUE_NAME>  (861) 
LYS   PHE

>  <FRAG_NAME>  (861) 
ETAM   MBZ

>  <FRAG_ATOM_NUM>  (861) 
fragi: 11  fragj: 15

>  <atom.prop.CHAIN_ID>  (861) 
A A A A A A A A A A A Z Z Z Z Z Z Z Z Z Z Z Z Z Z Z

>  <atom.prop.IS_HEAVY_ATOM>  (861) 
1 0 0 0 1 0 0 1 0 0 0 1 0 0 0 1 1 0 1 0 1 0 1 0 1 0

>  <DIFUSE_FUNC_ATOM>  (861) 
n/a

>  <FINAL_SINGLE_POINT_ENERGY>  (861) 
0

>  <NONCOV_INTER_ENERGY_QM>  (861) 
0

>  <FF_Energy>  (861) 
-2.35

>  <QM_Energy>  (861) 
-7.41

>  <source>  (861) 
ETAM_MBZ

>  <Index>  (861) 
8588

$$$$
ETAM-pdb2qjy-K-LYS-256:MBZ-pdb2qjy-J-PHE-428
     RDKit          3D

 26 25  0  0  0  0  0  0  0  0999 V2000
   -1.5243   -2.2243    2.7534 C   0  0  0  0  0  0  0  0  0  0  0  0
   -1.2832   -1.5740    2.0360 H   0  0  0  0  0  0  0  0  0  0  0  0
   -2.1515   -2.9108    2.3924 H   0  0  0  0  0  0  0  0  0  0  0  0
   -0.6137   -2.7285    3.0767 H   0  0  0  0  0  0  0  0  0  0  0  0
   -2.2313   -1.4650    3.8844 C   0  0  0  0  0  0  0  0  0  0  0  0
   -3.0177   -0.9685    3.4929 H   0  0  0  0  0  0  0  0  0  0  0  0
   -2.5877   -2.1383    4.5468 H   0  0  0  0  0  0  0  0  0  0  0  0
   -1.3479   -0.4982    4.5970 N   0  0  0  0  0  4  0  0  0  0  0  0
   -0.4586   -0.9235    4.7621 H   0  0  0  0  0  0  0  0  0  0  0  0
   -1.2306    0.3187    4.0344 H   0  0  0  0  0  0  0  0  0  0  0  0
   -1.7675   -0.2477    5.4691 H   0  0  0  0  0  0  0  0  0  0  0  0
   -0.0007    2.9193   -0.0243 C   0  0  0  0  0  0  0  0  0  0  0  0
   -0.5359    3.2082   -0.8027 H   0  0  0  0  0  0  0  0  0  0  0  0
    0.9379    3.2204   -0.0994 H   0  0  0  0  0  0  0  0  0  0  0  0
   -0.4306    3.3753    0.8675 H   0  0  0  0  0  0  0  0  0  0  0  0
    0.0006    1.4061   -0.0006 C   0  0  0  0  0  0  0  0  0  0  0  0
   -1.1966    0.6959    0.0014 C   0  0  0  0  0  0  0  0  0  0  0  0
   -2.0640    1.1861    0.0029 H   0  0  0  0  0  0  0  0  0  0  0  0
   -1.2028   -0.6963    0.0000 C   0  0  0  0  0  0  0  0  0  0  0  0
   -2.0807   -1.1884    0.0007 H   0  0  0  0  0  0  0  0  0  0  0  0
   -0.0019   -1.3967   -0.0005 C   0  0  0  0  0  0  0  0  0  0  0  0
   -0.0080   -2.3943   -0.0019 H   0  0  0  0  0  0  0  0  0  0  0  0
    1.2028   -0.7021   -0.0000 C   0  0  0  0  0  0  0  0  0  0  0  0
    2.0820   -1.1990    0.0021 H   0  0  0  0  0  0  0  0  0  0  0  0
    1.1979    0.6932   -0.0004 C   0  0  0  0  0  0  0  0  0  0  0  0
    2.0668    1.1879   -0.0021 H   0  0  0  0  0  0  0  0  0  0  0  0
  1  5  1  0
  5  8  1  0
  1  2  1  0
  1  3  1  0
  1  4  1  0
  5  6  1  0
  5  7  1  0
  8  9  1  0
  8 10  1  0
  8 11  1  0
 12 16  1  0
 16 17  2  0
 17 19  1  0
 19 21  2  0
 21 23  1  0
 23 25  2  0
 25 16  1  0
 12 13  1  0
 12 14  1  0
 12 15  1  0
 17 18  1  0
 19 20  1  0
 21 22  1  0
 23 24  1  0
 25 26  1  0
M  CHG  1   8   1
M  END
>  <PDB_ID>  (862) 
pdb2qjy

>  <RESIDUE_NAME>  (862) 
LYS   PHE

>  <FRAG_NAME>  (862) 
ETAM   MBZ

>  <FRAG_ATOM_NUM>  (862) 
fragi: 11  fragj: 15

>  <atom.prop.CHAIN_ID>  (862) 
A A A A A A A A A A A Z Z Z Z Z Z Z Z Z Z Z Z Z Z Z

>  <atom.prop.IS_HEAVY_ATOM>  (862) 
1 0 0 0 1 0 0 1 0 0 0 1 0 0 0 1 1 0 1 0 1 0 1 0 1 0

>  <DIFUSE_FUNC_ATOM>  (862) 
n/a

>  <FINAL_SINGLE_POINT_ENERGY>  (862) 
0

>  <NONCOV_INTER_ENERGY_QM>  (862) 
0

>  <FF_Energy>  (862) 
2.91

>  <QM_Energy>  (862) 
-3.73

>  <source>  (862) 
ETAM_MBZ

>  <Index>  (862) 
8593

$$$$
ETAM-pdb1mo9-A-LYS-475:MBZ-pdb1mo9-A-PHE-390
     RDKit          3D

 26 25  0  0  0  0  0  0  0  0999 V2000
   -0.4010   -0.2757   -3.9648 C   0  0  0  0  0  0  0  0  0  0  0  0
   -1.2055   -0.0209   -3.4148 H   0  0  0  0  0  0  0  0  0  0  0  0
   -0.7224   -0.6382   -4.8475 H   0  0  0  0  0  0  0  0  0  0  0  0
    0.1866    0.6229   -4.1526 H   0  0  0  0  0  0  0  0  0  0  0  0
    0.3575   -1.3441   -3.2493 C   0  0  0  0  0  0  0  0  0  0  0  0
    1.1566   -1.5972   -3.7725 H   0  0  0  0  0  0  0  0  0  0  0  0
    0.6029   -1.0340   -2.3436 H   0  0  0  0  0  0  0  0  0  0  0  0
   -0.5427   -2.5214   -3.1336 N   0  0  0  0  0  4  0  0  0  0  0  0
   -1.1982   -2.5139   -3.8889 H   0  0  0  0  0  0  0  0  0  0  0  0
    0.0007   -3.3599   -3.1708 H   0  0  0  0  0  0  0  0  0  0  0  0
   -1.0344   -2.4797   -2.2645 H   0  0  0  0  0  0  0  0  0  0  0  0
    0.0001    2.9051    0.0760 C   0  0  0  0  0  0  0  0  0  0  0  0
   -0.8192    3.2348   -0.3676 H   0  0  0  0  0  0  0  0  0  0  0  0
    0.8146    3.2352   -0.3760 H   0  0  0  0  0  0  0  0  0  0  0  0
    0.0054    3.2932    1.0945 H   0  0  0  0  0  0  0  0  0  0  0  0
    0.0002    1.4049    0.0011 C   0  0  0  0  0  0  0  0  0  0  0  0
   -1.1969    0.6935   -0.0012 C   0  0  0  0  0  0  0  0  0  0  0  0
   -2.0640    1.1838   -0.0051 H   0  0  0  0  0  0  0  0  0  0  0  0
   -1.2034   -0.6993    0.0000 C   0  0  0  0  0  0  0  0  0  0  0  0
   -2.0791   -1.1917    0.0008 H   0  0  0  0  0  0  0  0  0  0  0  0
   -0.0010   -1.3966    0.0020 C   0  0  0  0  0  0  0  0  0  0  0  0
   -0.0046   -2.3947    0.0047 H   0  0  0  0  0  0  0  0  0  0  0  0
    1.2034   -0.6997    0.0000 C   0  0  0  0  0  0  0  0  0  0  0  0
    2.0831   -1.1955    0.0011 H   0  0  0  0  0  0  0  0  0  0  0  0
    1.1977    0.6971   -0.0019 C   0  0  0  0  0  0  0  0  0  0  0  0
    2.0660    1.1918   -0.0058 H   0  0  0  0  0  0  0  0  0  0  0  0
  1  5  1  0
  5  8  1  0
  1  2  1  0
  1  3  1  0
  1  4  1  0
  5  6  1  0
  5  7  1  0
  8  9  1  0
  8 10  1  0
  8 11  1  0
 12 16  1  0
 16 17  2  0
 17 19  1  0
 19 21  2  0
 21 23  1  0
 23 25  2  0
 25 16  1  0
 12 13  1  0
 12 14  1  0
 12 15  1  0
 17 18  1  0
 19 20  1  0
 21 22  1  0
 23 24  1  0
 25 26  1  0
M  CHG  1   8   1
M  END
>  <PDB_ID>  (863) 
pdb1mo9

>  <RESIDUE_NAME>  (863) 
LYS   PHE

>  <FRAG_NAME>  (863) 
ETAM   MBZ

>  <FRAG_ATOM_NUM>  (863) 
fragi: 11  fragj: 15

>  <atom.prop.CHAIN_ID>  (863) 
A A A A A A A A A A A Z Z Z Z Z Z Z Z Z Z Z Z Z Z Z

>  <atom.prop.IS_HEAVY_ATOM>  (863) 
1 0 0 0 1 0 0 1 0 0 0 1 0 0 0 1 1 0 1 0 1 0 1 0 1 0

>  <DIFUSE_FUNC_ATOM>  (863) 
n/a

>  <FINAL_SINGLE_POINT_ENERGY>  (863) 
0

>  <NONCOV_INTER_ENERGY_QM>  (863) 
0

>  <FF_Energy>  (863) 
-1.99

>  <QM_Energy>  (863) 
-11.02

>  <source>  (863) 
ETAM_MBZ

>  <Index>  (863) 
8596

$$$$
ETAM-pdb2qlt-A-LYS-62:MBZ-pdb2qlt-A-PHE-58
     RDKit          3D

 26 25  0  0  0  0  0  0  0  0999 V2000
    1.7938   -1.1185    3.8036 C   0  0  0  0  0  0  0  0  0  0  0  0
    1.9982   -0.2933    3.2815 H   0  0  0  0  0  0  0  0  0  0  0  0
    2.3333   -1.8829    3.4571 H   0  0  0  0  0  0  0  0  0  0  0  0
    2.0573   -0.9472    4.8473 H   0  0  0  0  0  0  0  0  0  0  0  0
    0.3078   -1.4525    3.6144 C   0  0  0  0  0  0  0  0  0  0  0  0
    0.1611   -1.7306    2.6573 H   0  0  0  0  0  0  0  0  0  0  0  0
    0.0763   -2.2322    4.2086 H   0  0  0  0  0  0  0  0  0  0  0  0
   -0.6018   -0.3070    3.9351 N   0  0  0  0  0  4  0  0  0  0  0  0
   -0.9767    0.0605    3.0865 H   0  0  0  0  0  0  0  0  0  0  0  0
   -1.3427   -0.6314    4.5192 H   0  0  0  0  0  0  0  0  0  0  0  0
   -0.0815    0.4008    4.4101 H   0  0  0  0  0  0  0  0  0  0  0  0
   -0.0186    2.9101    0.0500 C   0  0  0  0  0  0  0  0  0  0  0  0
   -0.7397    3.2334   -0.5378 H   0  0  0  0  0  0  0  0  0  0  0  0
    0.8657    3.2349   -0.2374 H   0  0  0  0  0  0  0  0  0  0  0  0
   -0.2051    3.3101    1.0466 H   0  0  0  0  0  0  0  0  0  0  0  0
   -0.0092    1.4093    0.0053 C   0  0  0  0  0  0  0  0  0  0  0  0
   -1.1985    0.7025    0.0072 C   0  0  0  0  0  0  0  0  0  0  0  0
   -2.0719    1.1799    0.0125 H   0  0  0  0  0  0  0  0  0  0  0  0
   -1.2082   -0.7135   -0.0000 C   0  0  0  0  0  0  0  0  0  0  0  0
   -2.0758   -1.2011   -0.0036 H   0  0  0  0  0  0  0  0  0  0  0  0
    0.0147   -1.4132   -0.0000 C   0  0  0  0  0  0  0  0  0  0  0  0
    0.0109   -2.4055   -0.0004 H   0  0  0  0  0  0  0  0  0  0  0  0
    1.2082   -0.7004   -0.0000 C   0  0  0  0  0  0  0  0  0  0  0  0
    2.0984   -1.1787    0.0105 H   0  0  0  0  0  0  0  0  0  0  0  0
    1.1929    0.7152   -0.0125 C   0  0  0  0  0  0  0  0  0  0  0  0
    2.0577    1.2059   -0.0352 H   0  0  0  0  0  0  0  0  0  0  0  0
  1  5  1  0
  5  8  1  0
  1  2  1  0
  1  3  1  0
  1  4  1  0
  5  6  1  0
  5  7  1  0
  8  9  1  0
  8 10  1  0
  8 11  1  0
 12 16  1  0
 16 17  2  0
 17 19  1  0
 19 21  2  0
 21 23  1  0
 23 25  2  0
 25 16  1  0
 12 13  1  0
 12 14  1  0
 12 15  1  0
 17 18  1  0
 19 20  1  0
 21 22  1  0
 23 24  1  0
 25 26  1  0
M  CHG  1   8   1
M  END
>  <PDB_ID>  (864) 
pdb2qlt

>  <RESIDUE_NAME>  (864) 
LYS   PHE

>  <FRAG_NAME>  (864) 
ETAM   MBZ

>  <FRAG_ATOM_NUM>  (864) 
fragi: 11  fragj: 15

>  <atom.prop.CHAIN_ID>  (864) 
A A A A A A A A A A A Z Z Z Z Z Z Z Z Z Z Z Z Z Z Z

>  <atom.prop.IS_HEAVY_ATOM>  (864) 
1 0 0 0 1 0 0 1 0 0 0 1 0 0 0 1 1 0 1 0 1 0 1 0 1 0

>  <DIFUSE_FUNC_ATOM>  (864) 
n/a

>  <FINAL_SINGLE_POINT_ENERGY>  (864) 
0

>  <NONCOV_INTER_ENERGY_QM>  (864) 
0

>  <FF_Energy>  (864) 
-6.4

>  <QM_Energy>  (864) 
-11.83

>  <source>  (864) 
ETAM_MBZ

>  <Index>  (864) 
8626

$$$$
ETAM-pdb2qlc-C-LYS-16:MBZ-pdb2qlc-C-PHE-12
     RDKit          3D

 26 25  0  0  0  0  0  0  0  0999 V2000
    1.0243   -1.5490    4.2102 C   0  0  0  0  0  0  0  0  0  0  0  0
    1.0429   -0.8326    3.5310 H   0  0  0  0  0  0  0  0  0  0  0  0
    1.9346   -1.8433    4.4531 H   0  0  0  0  0  0  0  0  0  0  0  0
    0.5456   -1.1532    5.1059 H   0  0  0  0  0  0  0  0  0  0  0  0
    0.2523   -2.7733    3.6161 C   0  0  0  0  0  0  0  0  0  0  0  0
   -0.0804   -3.3370    4.3932 H   0  0  0  0  0  0  0  0  0  0  0  0
   -0.5700   -2.4183    3.1366 H   0  0  0  0  0  0  0  0  0  0  0  0
    1.0265   -3.6579    2.6674 N   0  0  0  0  0  4  0  0  0  0  0  0
    0.8494   -3.3593    1.7344 H   0  0  0  0  0  0  0  0  0  0  0  0
    1.9974   -3.5783    2.8753 H   0  0  0  0  0  0  0  0  0  0  0  0
    0.7257   -4.5995    2.7891 H   0  0  0  0  0  0  0  0  0  0  0  0
    0.0101    2.9062   -0.0788 C   0  0  0  0  0  0  0  0  0  0  0  0
   -0.5755    3.1699   -0.8351 H   0  0  0  0  0  0  0  0  0  0  0  0
    0.9443    3.1984   -0.2403 H   0  0  0  0  0  0  0  0  0  0  0  0
   -0.3502    3.4081    0.8192 H   0  0  0  0  0  0  0  0  0  0  0  0
    0.0067    1.4029    0.0011 C   0  0  0  0  0  0  0  0  0  0  0  0
   -1.1901    0.6781   -0.0108 C   0  0  0  0  0  0  0  0  0  0  0  0
   -2.0567    1.1788   -0.0288 H   0  0  0  0  0  0  0  0  0  0  0  0
   -1.1900   -0.6863   -0.0000 C   0  0  0  0  0  0  0  0  0  0  0  0
   -2.0808   -1.1832   -0.0102 H   0  0  0  0  0  0  0  0  0  0  0  0
   -0.0200   -1.3771    0.0262 C   0  0  0  0  0  0  0  0  0  0  0  0
   -0.0273   -2.3859    0.0645 H   0  0  0  0  0  0  0  0  0  0  0  0
    1.1900   -0.7097   -0.0000 C   0  0  0  0  0  0  0  0  0  0  0  0
    2.0635   -1.2131   -0.0056 H   0  0  0  0  0  0  0  0  0  0  0  0
    1.2034    0.6920   -0.0165 C   0  0  0  0  0  0  0  0  0  0  0  0
    2.0716    1.1752   -0.0418 H   0  0  0  0  0  0  0  0  0  0  0  0
  1  5  1  0
  5  8  1  0
  1  2  1  0
  1  3  1  0
  1  4  1  0
  5  6  1  0
  5  7  1  0
  8  9  1  0
  8 10  1  0
  8 11  1  0
 12 16  1  0
 16 17  2  0
 17 19  1  0
 19 21  2  0
 21 23  1  0
 23 25  2  0
 25 16  1  0
 12 13  1  0
 12 14  1  0
 12 15  1  0
 17 18  1  0
 19 20  1  0
 21 22  1  0
 23 24  1  0
 25 26  1  0
M  CHG  1   8   1
M  END
>  <PDB_ID>  (865) 
pdb2qlc

>  <RESIDUE_NAME>  (865) 
LYS   PHE

>  <FRAG_NAME>  (865) 
ETAM   MBZ

>  <FRAG_ATOM_NUM>  (865) 
fragi: 11  fragj: 15

>  <atom.prop.CHAIN_ID>  (865) 
A A A A A A A A A A A Z Z Z Z Z Z Z Z Z Z Z Z Z Z Z

>  <atom.prop.IS_HEAVY_ATOM>  (865) 
1 0 0 0 1 0 0 1 0 0 0 1 0 0 0 1 1 0 1 0 1 0 1 0 1 0

>  <DIFUSE_FUNC_ATOM>  (865) 
n/a

>  <FINAL_SINGLE_POINT_ENERGY>  (865) 
0

>  <NONCOV_INTER_ENERGY_QM>  (865) 
0

>  <FF_Energy>  (865) 
-1.83

>  <QM_Energy>  (865) 
-7.75

>  <source>  (865) 
ETAM_MBZ

>  <Index>  (865) 
8655

$$$$
ETAM-pdb1mww-B-LYS-34:MBZ-pdb1mww-C-PHE-53
     RDKit          3D

 26 25  0  0  0  0  0  0  0  0999 V2000
    2.7547   -4.0749    0.2202 C   0  0  0  0  0  0  0  0  0  0  0  0
    3.1286   -4.9958    0.3289 H   0  0  0  0  0  0  0  0  0  0  0  0
    3.4664   -3.4000    0.4087 H   0  0  0  0  0  0  0  0  0  0  0  0
    2.4376   -3.9563   -0.8159 H   0  0  0  0  0  0  0  0  0  0  0  0
    1.6213   -3.8844    1.2221 C   0  0  0  0  0  0  0  0  0  0  0  0
    1.9957   -3.9310    2.1533 H   0  0  0  0  0  0  0  0  0  0  0  0
    1.2116   -2.9776    1.0849 H   0  0  0  0  0  0  0  0  0  0  0  0
    0.5421   -4.9270    1.0833 N   0  0  0  0  0  4  0  0  0  0  0  0
    0.7201   -5.4683    0.2653 H   0  0  0  0  0  0  0  0  0  0  0  0
    0.5537   -5.5122    1.8896 H   0  0  0  0  0  0  0  0  0  0  0  0
   -0.3393   -4.4696    1.0055 H   0  0  0  0  0  0  0  0  0  0  0  0
    0.0021    2.8826    0.0413 C   0  0  0  0  0  0  0  0  0  0  0  0
    0.7030    3.2200   -0.5719 H   0  0  0  0  0  0  0  0  0  0  0  0
    0.1719    3.1764    0.9719 H   0  0  0  0  0  0  0  0  0  0  0  0
   -0.9408    3.3322   -0.2699 H   0  0  0  0  0  0  0  0  0  0  0  0
    0.0058    1.4024    0.0007 C   0  0  0  0  0  0  0  0  0  0  0  0
   -1.2027    0.6871    0.0029 C   0  0  0  0  0  0  0  0  0  0  0  0
   -2.0664    1.1785    0.0055 H   0  0  0  0  0  0  0  0  0  0  0  0
   -1.2146   -0.7166   -0.0000 C   0  0  0  0  0  0  0  0  0  0  0  0
   -2.0863   -1.2019   -0.0004 H   0  0  0  0  0  0  0  0  0  0  0  0
   -0.0087   -1.3977   -0.0005 C   0  0  0  0  0  0  0  0  0  0  0  0
    0.0093   -2.3958   -0.0022 H   0  0  0  0  0  0  0  0  0  0  0  0
    1.2146   -0.6838   -0.0000 C   0  0  0  0  0  0  0  0  0  0  0  0
    2.0864   -1.1871    0.0037 H   0  0  0  0  0  0  0  0  0  0  0  0
    1.2056    0.7087   -0.0030 C   0  0  0  0  0  0  0  0  0  0  0  0
    2.0695    1.2070   -0.0084 H   0  0  0  0  0  0  0  0  0  0  0  0
  1  5  1  0
  5  8  1  0
  1  2  1  0
  1  3  1  0
  1  4  1  0
  5  6  1  0
  5  7  1  0
  8  9  1  0
  8 10  1  0
  8 11  1  0
 12 16  1  0
 16 17  2  0
 17 19  1  0
 19 21  2  0
 21 23  1  0
 23 25  2  0
 25 16  1  0
 12 13  1  0
 12 14  1  0
 12 15  1  0
 17 18  1  0
 19 20  1  0
 21 22  1  0
 23 24  1  0
 25 26  1  0
M  CHG  1   8   1
M  END
>  <PDB_ID>  (866) 
pdb1mww

>  <RESIDUE_NAME>  (866) 
LYS   PHE

>  <FRAG_NAME>  (866) 
ETAM   MBZ

>  <FRAG_ATOM_NUM>  (866) 
fragi: 11  fragj: 15

>  <atom.prop.CHAIN_ID>  (866) 
A A A A A A A A A A A Z Z Z Z Z Z Z Z Z Z Z Z Z Z Z

>  <atom.prop.IS_HEAVY_ATOM>  (866) 
1 0 0 0 1 0 0 1 0 0 0 1 0 0 0 1 1 0 1 0 1 0 1 0 1 0

>  <DIFUSE_FUNC_ATOM>  (866) 
n/a

>  <FINAL_SINGLE_POINT_ENERGY>  (866) 
0

>  <NONCOV_INTER_ENERGY_QM>  (866) 
0

>  <FF_Energy>  (866) 
12.6

>  <QM_Energy>  (866) 
-1.63

>  <source>  (866) 
ETAM_MBZ

>  <Index>  (866) 
8657

$$$$
ETAM-pdb2qm0-A-LYS-137:MBZ-pdb2qm0-A-PHE-174
     RDKit          3D

 26 25  0  0  0  0  0  0  0  0999 V2000
   -1.8452   -3.0781   -4.4060 C   0  0  0  0  0  0  0  0  0  0  0  0
   -0.9511   -3.3577   -4.7211 H   0  0  0  0  0  0  0  0  0  0  0  0
   -2.2820   -2.4699   -5.0511 H   0  0  0  0  0  0  0  0  0  0  0  0
   -2.4699   -3.9579   -4.2522 H   0  0  0  0  0  0  0  0  0  0  0  0
   -1.6670   -2.3195   -3.0797 C   0  0  0  0  0  0  0  0  0  0  0  0
   -2.5671   -2.1197   -2.7040 H   0  0  0  0  0  0  0  0  0  0  0  0
   -1.1523   -2.8943   -2.4509 H   0  0  0  0  0  0  0  0  0  0  0  0
   -0.9267   -1.0415   -3.3048 N   0  0  0  0  0  4  0  0  0  0  0  0
   -0.7870   -0.9113   -4.2846 H   0  0  0  0  0  0  0  0  0  0  0  0
   -1.4618   -0.2824   -2.9365 H   0  0  0  0  0  0  0  0  0  0  0  0
   -0.0434   -1.0873   -2.8416 H   0  0  0  0  0  0  0  0  0  0  0  0
   -0.0005    2.9283   -0.0444 C   0  0  0  0  0  0  0  0  0  0  0  0
    0.8265    3.2402    0.3952 H   0  0  0  0  0  0  0  0  0  0  0  0
   -0.8065    3.2455    0.4289 H   0  0  0  0  0  0  0  0  0  0  0  0
   -0.0200    3.3618   -1.0443 H   0  0  0  0  0  0  0  0  0  0  0  0
   -0.0055    1.4182   -0.0256 C   0  0  0  0  0  0  0  0  0  0  0  0
   -1.2238    0.7095   -0.0244 C   0  0  0  0  0  0  0  0  0  0  0  0
   -2.0803    1.1943   -0.0413 H   0  0  0  0  0  0  0  0  0  0  0  0
   -1.2225   -0.7023   -0.0000 C   0  0  0  0  0  0  0  0  0  0  0  0
   -2.0838   -1.2009    0.0041 H   0  0  0  0  0  0  0  0  0  0  0  0
    0.0134   -1.4086    0.0208 C   0  0  0  0  0  0  0  0  0  0  0  0
   -0.0012   -2.4031    0.0493 H   0  0  0  0  0  0  0  0  0  0  0  0
    1.2225   -0.7111   -0.0000 C   0  0  0  0  0  0  0  0  0  0  0  0
    2.0999   -1.2034   -0.0337 H   0  0  0  0  0  0  0  0  0  0  0  0
    1.2159    0.6942    0.0292 C   0  0  0  0  0  0  0  0  0  0  0  0
    2.0725    1.1935    0.0880 H   0  0  0  0  0  0  0  0  0  0  0  0
  1  5  1  0
  5  8  1  0
  1  2  1  0
  1  3  1  0
  1  4  1  0
  5  6  1  0
  5  7  1  0
  8  9  1  0
  8 10  1  0
  8 11  1  0
 12 16  1  0
 16 17  2  0
 17 19  1  0
 19 21  2  0
 21 23  1  0
 23 25  2  0
 25 16  1  0
 12 13  1  0
 12 14  1  0
 12 15  1  0
 17 18  1  0
 19 20  1  0
 21 22  1  0
 23 24  1  0
 25 26  1  0
M  CHG  1   8   1
M  END
>  <PDB_ID>  (867) 
pdb2qm0

>  <RESIDUE_NAME>  (867) 
LYS   PHE

>  <FRAG_NAME>  (867) 
ETAM   MBZ

>  <FRAG_ATOM_NUM>  (867) 
fragi: 11  fragj: 15

>  <atom.prop.CHAIN_ID>  (867) 
A A A A A A A A A A A Z Z Z Z Z Z Z Z Z Z Z Z Z Z Z

>  <atom.prop.IS_HEAVY_ATOM>  (867) 
1 0 0 0 1 0 0 1 0 0 0 1 0 0 0 1 1 0 1 0 1 0 1 0 1 0

>  <DIFUSE_FUNC_ATOM>  (867) 
n/a

>  <FINAL_SINGLE_POINT_ENERGY>  (867) 
0

>  <NONCOV_INTER_ENERGY_QM>  (867) 
0

>  <FF_Energy>  (867) 
-6.57

>  <QM_Energy>  (867) 
-13.93

>  <source>  (867) 
ETAM_MBZ

>  <Index>  (867) 
8659

$$$$
ETAM-pdb2qkf-B-LYS-52:MBZ-pdb2qkf-B-PHE-234
     RDKit          3D

 26 25  0  0  0  0  0  0  0  0999 V2000
   -0.6032   -2.8111    2.7263 C   0  0  0  0  0  0  0  0  0  0  0  0
   -0.0988   -3.3339    2.0442 H   0  0  0  0  0  0  0  0  0  0  0  0
   -1.4696   -2.4990    2.3467 H   0  0  0  0  0  0  0  0  0  0  0  0
   -0.8014   -3.4491    3.5875 H   0  0  0  0  0  0  0  0  0  0  0  0
    0.2311   -1.5764    3.0971 C   0  0  0  0  0  0  0  0  0  0  0  0
    0.2989   -0.9934    2.3061 H   0  0  0  0  0  0  0  0  0  0  0  0
   -0.2015   -1.1197    3.8553 H   0  0  0  0  0  0  0  0  0  0  0  0
    1.5713   -2.0551    3.4909 N   0  0  0  0  0  4  0  0  0  0  0  0
    2.2729   -1.5370    2.9987 H   0  0  0  0  0  0  0  0  0  0  0  0
    1.6982   -1.9293    4.4759 H   0  0  0  0  0  0  0  0  0  0  0  0
    1.6611   -3.0276    3.2675 H   0  0  0  0  0  0  0  0  0  0  0  0
   -0.0041    2.8629   -0.0825 C   0  0  0  0  0  0  0  0  0  0  0  0
   -0.9076    3.1599   -0.3887 H   0  0  0  0  0  0  0  0  0  0  0  0
    0.6845    3.1391   -0.7518 H   0  0  0  0  0  0  0  0  0  0  0  0
    0.2138    3.3967    0.8425 H   0  0  0  0  0  0  0  0  0  0  0  0
   -0.0011    1.3926    0.0153 C   0  0  0  0  0  0  0  0  0  0  0  0
   -1.1945    0.6876   -0.0299 C   0  0  0  0  0  0  0  0  0  0  0  0
   -2.0596    1.1915   -0.0872 H   0  0  0  0  0  0  0  0  0  0  0  0
   -1.2139   -0.6849    0.0000 C   0  0  0  0  0  0  0  0  0  0  0  0
   -2.0839   -1.1850    0.0155 H   0  0  0  0  0  0  0  0  0  0  0  0
    0.0001   -1.3953    0.0109 C   0  0  0  0  0  0  0  0  0  0  0  0
   -0.0095   -2.3874    0.0261 H   0  0  0  0  0  0  0  0  0  0  0  0
    1.2139   -0.6950    0.0000 C   0  0  0  0  0  0  0  0  0  0  0  0
    2.0877   -1.1917   -0.0093 H   0  0  0  0  0  0  0  0  0  0  0  0
    1.1956    0.6950    0.0037 C   0  0  0  0  0  0  0  0  0  0  0  0
    2.0626    1.1979   -0.0027 H   0  0  0  0  0  0  0  0  0  0  0  0
  1  5  1  0
  5  8  1  0
  1  2  1  0
  1  3  1  0
  1  4  1  0
  5  6  1  0
  5  7  1  0
  8  9  1  0
  8 10  1  0
  8 11  1  0
 12 16  1  0
 16 17  2  0
 17 19  1  0
 19 21  2  0
 21 23  1  0
 23 25  2  0
 25 16  1  0
 12 13  1  0
 12 14  1  0
 12 15  1  0
 17 18  1  0
 19 20  1  0
 21 22  1  0
 23 24  1  0
 25 26  1  0
M  CHG  1   8   1
M  END
>  <PDB_ID>  (868) 
pdb2qkf

>  <RESIDUE_NAME>  (868) 
LYS   PHE

>  <FRAG_NAME>  (868) 
ETAM   MBZ

>  <FRAG_ATOM_NUM>  (868) 
fragi: 11  fragj: 15

>  <atom.prop.CHAIN_ID>  (868) 
A A A A A A A A A A A Z Z Z Z Z Z Z Z Z Z Z Z Z Z Z

>  <atom.prop.IS_HEAVY_ATOM>  (868) 
1 0 0 0 1 0 0 1 0 0 0 1 0 0 0 1 1 0 1 0 1 0 1 0 1 0

>  <DIFUSE_FUNC_ATOM>  (868) 
n/a

>  <FINAL_SINGLE_POINT_ENERGY>  (868) 
0

>  <NONCOV_INTER_ENERGY_QM>  (868) 
0

>  <FF_Energy>  (868) 
1.09

>  <QM_Energy>  (868) 
-7.93

>  <source>  (868) 
ETAM_MBZ

>  <Index>  (868) 
8666

$$$$
ETAM-pdb1my6-B-LYS-30:MBZ-pdb1my6-B-PHE-26
     RDKit          3D

 26 25  0  0  0  0  0  0  0  0999 V2000
    4.5878    1.1068    3.7781 C   0  0  0  0  0  0  0  0  0  0  0  0
    5.5063    1.1238    3.4243 H   0  0  0  0  0  0  0  0  0  0  0  0
    4.5543    1.3331    4.7352 H   0  0  0  0  0  0  0  0  0  0  0  0
    3.9478    1.7780    3.2054 H   0  0  0  0  0  0  0  0  0  0  0  0
    4.0429   -0.3027    3.6070 C   0  0  0  0  0  0  0  0  0  0  0  0
    4.5980   -0.7980    2.9319 H   0  0  0  0  0  0  0  0  0  0  0  0
    4.0901   -0.7906    4.4838 H   0  0  0  0  0  0  0  0  0  0  0  0
    2.5849   -0.3311    3.1308 N   0  0  0  0  0  4  0  0  0  0  0  0
    2.0849    0.3691    3.6251 H   0  0  0  0  0  0  0  0  0  0  0  0
    2.5755   -0.1484    2.1558 H   0  0  0  0  0  0  0  0  0  0  0  0
    2.2140   -1.2308    3.3245 H   0  0  0  0  0  0  0  0  0  0  0  0
    0.0308    2.8719   -0.0085 C   0  0  0  0  0  0  0  0  0  0  0  0
   -0.8300    3.2030   -0.3605 H   0  0  0  0  0  0  0  0  0  0  0  0
    0.7913    3.1760   -0.5594 H   0  0  0  0  0  0  0  0  0  0  0  0
    0.1616    3.2698    0.9978 H   0  0  0  0  0  0  0  0  0  0  0  0
    0.0019    1.3839   -0.0351 C   0  0  0  0  0  0  0  0  0  0  0  0
   -1.1793    0.6990    0.0099 C   0  0  0  0  0  0  0  0  0  0  0  0
   -2.0502    1.1790    0.0493 H   0  0  0  0  0  0  0  0  0  0  0  0
   -1.1883   -0.7034    0.0000 C   0  0  0  0  0  0  0  0  0  0  0  0
   -2.0724   -1.1807   -0.0357 H   0  0  0  0  0  0  0  0  0  0  0  0
   -0.0098   -1.3769    0.0404 C   0  0  0  0  0  0  0  0  0  0  0  0
    0.0028   -2.3815    0.0992 H   0  0  0  0  0  0  0  0  0  0  0  0
    1.1883   -0.6817   -0.0000 C   0  0  0  0  0  0  0  0  0  0  0  0
    2.0679   -1.1950   -0.0171 H   0  0  0  0  0  0  0  0  0  0  0  0
    1.1873    0.6790   -0.0151 C   0  0  0  0  0  0  0  0  0  0  0  0
    2.0576    1.1845   -0.0131 H   0  0  0  0  0  0  0  0  0  0  0  0
  1  5  1  0
  5  8  1  0
  1  2  1  0
  1  3  1  0
  1  4  1  0
  5  6  1  0
  5  7  1  0
  8  9  1  0
  8 10  1  0
  8 11  1  0
 12 16  1  0
 16 17  2  0
 17 19  1  0
 19 21  2  0
 21 23  1  0
 23 25  2  0
 25 16  1  0
 12 13  1  0
 12 14  1  0
 12 15  1  0
 17 18  1  0
 19 20  1  0
 21 22  1  0
 23 24  1  0
 25 26  1  0
M  CHG  1   8   1
M  END
>  <PDB_ID>  (869) 
pdb1my6

>  <RESIDUE_NAME>  (869) 
LYS   PHE

>  <FRAG_NAME>  (869) 
ETAM   MBZ

>  <FRAG_ATOM_NUM>  (869) 
fragi: 11  fragj: 15

>  <atom.prop.CHAIN_ID>  (869) 
A A A A A A A A A A A Z Z Z Z Z Z Z Z Z Z Z Z Z Z Z

>  <atom.prop.IS_HEAVY_ATOM>  (869) 
1 0 0 0 1 0 0 1 0 0 0 1 0 0 0 1 1 0 1 0 1 0 1 0 1 0

>  <DIFUSE_FUNC_ATOM>  (869) 
n/a

>  <FINAL_SINGLE_POINT_ENERGY>  (869) 
0

>  <NONCOV_INTER_ENERGY_QM>  (869) 
0

>  <FF_Energy>  (869) 
-3.63

>  <QM_Energy>  (869) 
-9.09

>  <source>  (869) 
ETAM_MBZ

>  <Index>  (869) 
8693

$$$$
ETAM-pdb2qm0-B-LYS-137:MBZ-pdb2qm0-B-PHE-174
     RDKit          3D

 26 25  0  0  0  0  0  0  0  0999 V2000
   -2.3662   -3.0319   -4.4023 C   0  0  0  0  0  0  0  0  0  0  0  0
   -1.4635   -3.3691   -4.6384 H   0  0  0  0  0  0  0  0  0  0  0  0
   -2.7278   -2.4564   -5.1255 H   0  0  0  0  0  0  0  0  0  0  0  0
   -3.0362   -3.8767   -4.2431 H   0  0  0  0  0  0  0  0  0  0  0  0
   -2.2532   -2.1992   -3.1369 C   0  0  0  0  0  0  0  0  0  0  0  0
   -3.1091   -1.7041   -2.9950 H   0  0  0  0  0  0  0  0  0  0  0  0
   -2.0855   -2.8062   -2.3612 H   0  0  0  0  0  0  0  0  0  0  0  0
   -1.1335   -1.2222   -3.2449 N   0  0  0  0  0  4  0  0  0  0  0  0
   -0.2742   -1.7165   -3.3742 H   0  0  0  0  0  0  0  0  0  0  0  0
   -1.2941   -0.6193   -4.0254 H   0  0  0  0  0  0  0  0  0  0  0  0
   -1.0857   -0.6795   -2.4067 H   0  0  0  0  0  0  0  0  0  0  0  0
    0.0027    2.8736   -0.0038 C   0  0  0  0  0  0  0  0  0  0  0  0
    0.8172    3.1891    0.4587 H   0  0  0  0  0  0  0  0  0  0  0  0
   -0.8157    3.1936    0.4494 H   0  0  0  0  0  0  0  0  0  0  0  0
    0.0092    3.3001   -1.0069 H   0  0  0  0  0  0  0  0  0  0  0  0
   -0.0013    1.3902    0.0037 C   0  0  0  0  0  0  0  0  0  0  0  0
   -1.2066    0.6902   -0.0217 C   0  0  0  0  0  0  0  0  0  0  0  0
   -2.0652    1.1914   -0.0569 H   0  0  0  0  0  0  0  0  0  0  0  0
   -1.2137   -0.6858    0.0000 C   0  0  0  0  0  0  0  0  0  0  0  0
   -2.0798   -1.1922    0.0119 H   0  0  0  0  0  0  0  0  0  0  0  0
    0.0065   -1.3878    0.0074 C   0  0  0  0  0  0  0  0  0  0  0  0
   -0.0043   -2.3849    0.0178 H   0  0  0  0  0  0  0  0  0  0  0  0
    1.2137   -0.6927   -0.0000 C   0  0  0  0  0  0  0  0  0  0  0  0
    2.0899   -1.1943   -0.0115 H   0  0  0  0  0  0  0  0  0  0  0  0
    1.2014    0.6858    0.0106 C   0  0  0  0  0  0  0  0  0  0  0  0
    2.0649    1.1937    0.0221 H   0  0  0  0  0  0  0  0  0  0  0  0
  1  5  1  0
  5  8  1  0
  1  2  1  0
  1  3  1  0
  1  4  1  0
  5  6  1  0
  5  7  1  0
  8  9  1  0
  8 10  1  0
  8 11  1  0
 12 16  1  0
 16 17  2  0
 17 19  1  0
 19 21  2  0
 21 23  1  0
 23 25  2  0
 25 16  1  0
 12 13  1  0
 12 14  1  0
 12 15  1  0
 17 18  1  0
 19 20  1  0
 21 22  1  0
 23 24  1  0
 25 26  1  0
M  CHG  1   8   1
M  END
>  <PDB_ID>  (870) 
pdb2qm0

>  <RESIDUE_NAME>  (870) 
LYS   PHE

>  <FRAG_NAME>  (870) 
ETAM   MBZ

>  <FRAG_ATOM_NUM>  (870) 
fragi: 11  fragj: 15

>  <atom.prop.CHAIN_ID>  (870) 
A A A A A A A A A A A Z Z Z Z Z Z Z Z Z Z Z Z Z Z Z

>  <atom.prop.IS_HEAVY_ATOM>  (870) 
1 0 0 0 1 0 0 1 0 0 0 1 0 0 0 1 1 0 1 0 1 0 1 0 1 0

>  <DIFUSE_FUNC_ATOM>  (870) 
n/a

>  <FINAL_SINGLE_POINT_ENERGY>  (870) 
0

>  <NONCOV_INTER_ENERGY_QM>  (870) 
0

>  <FF_Energy>  (870) 
-6.43

>  <QM_Energy>  (870) 
-14.09

>  <source>  (870) 
ETAM_MBZ

>  <Index>  (870) 
8708

$$$$
ETAM-pdb1mwk-B-LYS-122:MBZ-pdb1mwk-B-PHE-126
     RDKit          3D

 26 25  0  0  0  0  0  0  0  0999 V2000
   -4.3592   -2.1491    0.0700 C   0  0  0  0  0  0  0  0  0  0  0  0
   -4.3698   -1.4968   -0.6815 H   0  0  0  0  0  0  0  0  0  0  0  0
   -3.9164   -1.7504    0.8669 H   0  0  0  0  0  0  0  0  0  0  0  0
   -5.3828   -2.4243    0.3242 H   0  0  0  0  0  0  0  0  0  0  0  0
   -3.5364   -3.3688   -0.3707 C   0  0  0  0  0  0  0  0  0  0  0  0
   -4.0584   -3.8589   -1.0889 H   0  0  0  0  0  0  0  0  0  0  0  0
   -2.6794   -3.0338   -0.7996 H   0  0  0  0  0  0  0  0  0  0  0  0
   -3.2006   -4.3130    0.7208 N   0  0  0  0  0  4  0  0  0  0  0  0
   -2.3337   -4.0434    1.1412 H   0  0  0  0  0  0  0  0  0  0  0  0
   -3.9244   -4.2966    1.4118 H   0  0  0  0  0  0  0  0  0  0  0  0
   -3.1167   -5.2385    0.3489 H   0  0  0  0  0  0  0  0  0  0  0  0
    0.0036    2.8988    0.0851 C   0  0  0  0  0  0  0  0  0  0  0  0
   -0.8138    3.2335   -0.3543 H   0  0  0  0  0  0  0  0  0  0  0  0
    0.8192    3.2286   -0.3607 H   0  0  0  0  0  0  0  0  0  0  0  0
    0.0090    3.2719    1.1092 H   0  0  0  0  0  0  0  0  0  0  0  0
   -0.0009    1.3993   -0.0004 C   0  0  0  0  0  0  0  0  0  0  0  0
   -1.1940    0.6927   -0.0011 C   0  0  0  0  0  0  0  0  0  0  0  0
   -2.0619    1.1831   -0.0036 H   0  0  0  0  0  0  0  0  0  0  0  0
   -1.1987   -0.6949   -0.0000 C   0  0  0  0  0  0  0  0  0  0  0  0
   -2.0763   -1.1898   -0.0008 H   0  0  0  0  0  0  0  0  0  0  0  0
    0.0007   -1.3903    0.0039 C   0  0  0  0  0  0  0  0  0  0  0  0
   -0.0040   -2.3900    0.0087 H   0  0  0  0  0  0  0  0  0  0  0  0
    1.1987   -0.6964    0.0000 C   0  0  0  0  0  0  0  0  0  0  0  0
    2.0812   -1.1952    0.0003 H   0  0  0  0  0  0  0  0  0  0  0  0
    1.1942    0.6896   -0.0024 C   0  0  0  0  0  0  0  0  0  0  0  0
    2.0631    1.1874   -0.0067 H   0  0  0  0  0  0  0  0  0  0  0  0
  1  5  1  0
  5  8  1  0
  1  2  1  0
  1  3  1  0
  1  4  1  0
  5  6  1  0
  5  7  1  0
  8  9  1  0
  8 10  1  0
  8 11  1  0
 12 16  1  0
 16 17  2  0
 17 19  1  0
 19 21  2  0
 21 23  1  0
 23 25  2  0
 25 16  1  0
 12 13  1  0
 12 14  1  0
 12 15  1  0
 17 18  1  0
 19 20  1  0
 21 22  1  0
 23 24  1  0
 25 26  1  0
M  CHG  1   8   1
M  END
>  <PDB_ID>  (871) 
pdb1mwk

>  <RESIDUE_NAME>  (871) 
LYS   PHE

>  <FRAG_NAME>  (871) 
ETAM   MBZ

>  <FRAG_ATOM_NUM>  (871) 
fragi: 11  fragj: 15

>  <atom.prop.CHAIN_ID>  (871) 
A A A A A A A A A A A Z Z Z Z Z Z Z Z Z Z Z Z Z Z Z

>  <atom.prop.IS_HEAVY_ATOM>  (871) 
1 0 0 0 1 0 0 1 0 0 0 1 0 0 0 1 1 0 1 0 1 0 1 0 1 0

>  <DIFUSE_FUNC_ATOM>  (871) 
n/a

>  <FINAL_SINGLE_POINT_ENERGY>  (871) 
0

>  <NONCOV_INTER_ENERGY_QM>  (871) 
0

>  <FF_Energy>  (871) 
2.9

>  <QM_Energy>  (871) 
-2.5

>  <source>  (871) 
ETAM_MBZ

>  <Index>  (871) 
8721

$$$$
ETAM-pdb2qpf-D-LYS-63:MBZ-pdb2qpf-D-PHE-44
     RDKit          3D

 26 25  0  0  0  0  0  0  0  0999 V2000
   -1.7604   -3.1589    4.0399 C   0  0  0  0  0  0  0  0  0  0  0  0
   -2.2306   -2.2953    4.2017 H   0  0  0  0  0  0  0  0  0  0  0  0
   -2.0362   -3.8315    4.7210 H   0  0  0  0  0  0  0  0  0  0  0  0
   -2.0383   -3.5272    3.0523 H   0  0  0  0  0  0  0  0  0  0  0  0
   -0.2607   -2.9265    4.1650 C   0  0  0  0  0  0  0  0  0  0  0  0
   -0.0380   -2.7717    5.1326 H   0  0  0  0  0  0  0  0  0  0  0  0
    0.2213   -3.7513    3.8529 H   0  0  0  0  0  0  0  0  0  0  0  0
    0.1937   -1.7613    3.3649 N   0  0  0  0  0  4  0  0  0  0  0  0
    0.7925   -2.0761    2.6284 H   0  0  0  0  0  0  0  0  0  0  0  0
   -0.6005   -1.2960    2.9728 H   0  0  0  0  0  0  0  0  0  0  0  0
    0.6953   -1.1279    3.9542 H   0  0  0  0  0  0  0  0  0  0  0  0
   -0.0043    2.9001    0.0152 C   0  0  0  0  0  0  0  0  0  0  0  0
   -0.7436    3.2126   -0.5587 H   0  0  0  0  0  0  0  0  0  0  0  0
    0.8706    3.2142   -0.3152 H   0  0  0  0  0  0  0  0  0  0  0  0
   -0.1544    3.3225    1.0088 H   0  0  0  0  0  0  0  0  0  0  0  0
   -0.0003    1.3993   -0.0016 C   0  0  0  0  0  0  0  0  0  0  0  0
   -1.1962    0.6914    0.0025 C   0  0  0  0  0  0  0  0  0  0  0  0
   -2.0628    1.1828    0.0063 H   0  0  0  0  0  0  0  0  0  0  0  0
   -1.2023   -0.6964    0.0000 C   0  0  0  0  0  0  0  0  0  0  0  0
   -2.0787   -1.1909   -0.0004 H   0  0  0  0  0  0  0  0  0  0  0  0
   -0.0015   -1.3913    0.0005 C   0  0  0  0  0  0  0  0  0  0  0  0
   -0.0044   -2.3911    0.0005 H   0  0  0  0  0  0  0  0  0  0  0  0
    1.2023   -0.6966   -0.0000 C   0  0  0  0  0  0  0  0  0  0  0  0
    2.0818   -1.1958    0.0025 H   0  0  0  0  0  0  0  0  0  0  0  0
    1.1980    0.6935   -0.0015 C   0  0  0  0  0  0  0  0  0  0  0  0
    2.0643    1.1910   -0.0035 H   0  0  0  0  0  0  0  0  0  0  0  0
  1  5  1  0
  5  8  1  0
  1  2  1  0
  1  3  1  0
  1  4  1  0
  5  6  1  0
  5  7  1  0
  8  9  1  0
  8 10  1  0
  8 11  1  0
 12 16  1  0
 16 17  2  0
 17 19  1  0
 19 21  2  0
 21 23  1  0
 23 25  2  0
 25 16  1  0
 12 13  1  0
 12 14  1  0
 12 15  1  0
 17 18  1  0
 19 20  1  0
 21 22  1  0
 23 24  1  0
 25 26  1  0
M  CHG  1   8   1
M  END
>  <PDB_ID>  (872) 
pdb2qpf

>  <RESIDUE_NAME>  (872) 
LYS   PHE

>  <FRAG_NAME>  (872) 
ETAM   MBZ

>  <FRAG_ATOM_NUM>  (872) 
fragi: 11  fragj: 15

>  <atom.prop.CHAIN_ID>  (872) 
A A A A A A A A A A A Z Z Z Z Z Z Z Z Z Z Z Z Z Z Z

>  <atom.prop.IS_HEAVY_ATOM>  (872) 
1 0 0 0 1 0 0 1 0 0 0 1 0 0 0 1 1 0 1 0 1 0 1 0 1 0

>  <DIFUSE_FUNC_ATOM>  (872) 
n/a

>  <FINAL_SINGLE_POINT_ENERGY>  (872) 
0

>  <NONCOV_INTER_ENERGY_QM>  (872) 
0

>  <FF_Energy>  (872) 
-5.34

>  <QM_Energy>  (872) 
-11.52

>  <source>  (872) 
ETAM_MBZ

>  <Index>  (872) 
8725

$$$$
ETAM-pdb2qmw-B-LYS-245:MBZ-pdb2qmw-B-PHE-210
     RDKit          3D

 26 25  0  0  0  0  0  0  0  0999 V2000
   -3.4694   -3.0621    1.0760 C   0  0  0  0  0  0  0  0  0  0  0  0
   -4.1133   -2.4695    1.5700 H   0  0  0  0  0  0  0  0  0  0  0  0
   -2.8422   -2.4835    0.5455 H   0  0  0  0  0  0  0  0  0  0  0  0
   -2.8891   -3.6281    1.8047 H   0  0  0  0  0  0  0  0  0  0  0  0
   -4.2667   -3.9259    0.0976 C   0  0  0  0  0  0  0  0  0  0  0  0
   -4.7991   -3.3148   -0.5123 H   0  0  0  0  0  0  0  0  0  0  0  0
   -3.6150   -4.4388   -0.4858 H   0  0  0  0  0  0  0  0  0  0  0  0
   -5.2032   -4.8972    0.7444 N   0  0  0  0  0  4  0  0  0  0  0  0
   -6.0899   -4.8515    0.2872 H   0  0  0  0  0  0  0  0  0  0  0  0
   -4.8275   -5.8184    0.6622 H   0  0  0  0  0  0  0  0  0  0  0  0
   -5.3075   -4.6591    1.7082 H   0  0  0  0  0  0  0  0  0  0  0  0
   -0.0064    2.8888   -0.0043 C   0  0  0  0  0  0  0  0  0  0  0  0
    0.7190    3.2057    0.5863 H   0  0  0  0  0  0  0  0  0  0  0  0
   -0.8909    3.1944    0.3113 H   0  0  0  0  0  0  0  0  0  0  0  0
    0.1604    3.3073   -0.9969 H   0  0  0  0  0  0  0  0  0  0  0  0
    0.0011    1.3954    0.0095 C   0  0  0  0  0  0  0  0  0  0  0  0
   -1.1950    0.6831   -0.0097 C   0  0  0  0  0  0  0  0  0  0  0  0
   -2.0608    1.1823   -0.0319 H   0  0  0  0  0  0  0  0  0  0  0  0
   -1.2019   -0.6921   -0.0000 C   0  0  0  0  0  0  0  0  0  0  0  0
   -2.0783   -1.1910    0.0035 H   0  0  0  0  0  0  0  0  0  0  0  0
   -0.0036   -1.3879    0.0066 C   0  0  0  0  0  0  0  0  0  0  0  0
   -0.0067   -2.3875    0.0157 H   0  0  0  0  0  0  0  0  0  0  0  0
    1.2019   -0.6942    0.0000 C   0  0  0  0  0  0  0  0  0  0  0  0
    2.0806   -1.1938    0.0016 H   0  0  0  0  0  0  0  0  0  0  0  0
    1.1974    0.6956   -0.0064 C   0  0  0  0  0  0  0  0  0  0  0  0
    2.0642    1.1923   -0.0233 H   0  0  0  0  0  0  0  0  0  0  0  0
  1  5  1  0
  5  8  1  0
  1  2  1  0
  1  3  1  0
  1  4  1  0
  5  6  1  0
  5  7  1  0
  8  9  1  0
  8 10  1  0
  8 11  1  0
 12 16  1  0
 16 17  2  0
 17 19  1  0
 19 21  2  0
 21 23  1  0
 23 25  2  0
 25 16  1  0
 12 13  1  0
 12 14  1  0
 12 15  1  0
 17 18  1  0
 19 20  1  0
 21 22  1  0
 23 24  1  0
 25 26  1  0
M  CHG  1   8   1
M  END
>  <PDB_ID>  (873) 
pdb2qmw

>  <RESIDUE_NAME>  (873) 
LYS   PHE

>  <FRAG_NAME>  (873) 
ETAM   MBZ

>  <FRAG_ATOM_NUM>  (873) 
fragi: 11  fragj: 15

>  <atom.prop.CHAIN_ID>  (873) 
A A A A A A A A A A A Z Z Z Z Z Z Z Z Z Z Z Z Z Z Z

>  <atom.prop.IS_HEAVY_ATOM>  (873) 
1 0 0 0 1 0 0 1 0 0 0 1 0 0 0 1 1 0 1 0 1 0 1 0 1 0

>  <DIFUSE_FUNC_ATOM>  (873) 
n/a

>  <FINAL_SINGLE_POINT_ENERGY>  (873) 
0

>  <NONCOV_INTER_ENERGY_QM>  (873) 
0

>  <FF_Energy>  (873) 
15.38

>  <QM_Energy>  (873) 
1.45

>  <source>  (873) 
ETAM_MBZ

>  <Index>  (873) 
8739

$$$$
ETAM-pdb1n1b-B-LYS-280:MBZ-pdb1n1b-B-PHE-276
     RDKit          3D

 26 25  0  0  0  0  0  0  0  0999 V2000
   -0.0765   -0.8956    3.1539 C   0  0  0  0  0  0  0  0  0  0  0  0
   -0.0704   -0.9028    2.1546 H   0  0  0  0  0  0  0  0  0  0  0  0
    0.4901   -0.1443    3.4879 H   0  0  0  0  0  0  0  0  0  0  0  0
   -1.1000   -0.7413    3.4954 H   0  0  0  0  0  0  0  0  0  0  0  0
    0.5044   -2.2012    3.6530 C   0  0  0  0  0  0  0  0  0  0  0  0
    0.5741   -2.1703    4.6498 H   0  0  0  0  0  0  0  0  0  0  0  0
   -0.0968   -2.9540    3.3834 H   0  0  0  0  0  0  0  0  0  0  0  0
    1.8611   -2.4323    3.0764 N   0  0  0  0  0  4  0  0  0  0  0  0
    2.5530   -2.1129    3.7229 H   0  0  0  0  0  0  0  0  0  0  0  0
    1.9854   -3.4088    2.9074 H   0  0  0  0  0  0  0  0  0  0  0  0
    1.9449   -1.9284    2.2174 H   0  0  0  0  0  0  0  0  0  0  0  0
    0.0090    2.9107   -0.0544 C   0  0  0  0  0  0  0  0  0  0  0  0
   -0.3108    3.1875   -0.9498 H   0  0  0  0  0  0  0  0  0  0  0  0
    0.9371    3.2179    0.1040 H   0  0  0  0  0  0  0  0  0  0  0  0
   -0.6296    3.3895    0.6879 H   0  0  0  0  0  0  0  0  0  0  0  0
    0.0013    1.4069   -0.0009 C   0  0  0  0  0  0  0  0  0  0  0  0
   -1.1958    0.6979    0.0010 C   0  0  0  0  0  0  0  0  0  0  0  0
   -2.0636    1.1856    0.0016 H   0  0  0  0  0  0  0  0  0  0  0  0
   -1.2021   -0.7002    0.0000 C   0  0  0  0  0  0  0  0  0  0  0  0
   -2.0810   -1.1890    0.0014 H   0  0  0  0  0  0  0  0  0  0  0  0
   -0.0030   -1.3997   -0.0016 C   0  0  0  0  0  0  0  0  0  0  0  0
   -0.0061   -2.3963   -0.0040 H   0  0  0  0  0  0  0  0  0  0  0  0
    1.2021   -0.7004    0.0000 C   0  0  0  0  0  0  0  0  0  0  0  0
    2.0821   -1.1967    0.0012 H   0  0  0  0  0  0  0  0  0  0  0  0
    1.1975    0.6955    0.0014 C   0  0  0  0  0  0  0  0  0  0  0  0
    2.0674    1.1895    0.0036 H   0  0  0  0  0  0  0  0  0  0  0  0
  1  5  1  0
  5  8  1  0
  1  2  1  0
  1  3  1  0
  1  4  1  0
  5  6  1  0
  5  7  1  0
  8  9  1  0
  8 10  1  0
  8 11  1  0
 12 16  1  0
 16 17  2  0
 17 19  1  0
 19 21  2  0
 21 23  1  0
 23 25  2  0
 25 16  1  0
 12 13  1  0
 12 14  1  0
 12 15  1  0
 17 18  1  0
 19 20  1  0
 21 22  1  0
 23 24  1  0
 25 26  1  0
M  CHG  1   8   1
M  END
>  <PDB_ID>  (874) 
pdb1n1b

>  <RESIDUE_NAME>  (874) 
LYS   PHE

>  <FRAG_NAME>  (874) 
ETAM   MBZ

>  <FRAG_ATOM_NUM>  (874) 
fragi: 11  fragj: 15

>  <atom.prop.CHAIN_ID>  (874) 
A A A A A A A A A A A Z Z Z Z Z Z Z Z Z Z Z Z Z Z Z

>  <atom.prop.IS_HEAVY_ATOM>  (874) 
1 0 0 0 1 0 0 1 0 0 0 1 0 0 0 1 1 0 1 0 1 0 1 0 1 0

>  <DIFUSE_FUNC_ATOM>  (874) 
n/a

>  <FINAL_SINGLE_POINT_ENERGY>  (874) 
0

>  <NONCOV_INTER_ENERGY_QM>  (874) 
0

>  <FF_Energy>  (874) 
3.38

>  <QM_Energy>  (874) 
-7.66

>  <source>  (874) 
ETAM_MBZ

>  <Index>  (874) 
8747

$$$$
ETAM-pdb1n1m-A-LYS-523:MBZ-pdb1n1m-A-PHE-516
     RDKit          3D

 26 25  0  0  0  0  0  0  0  0999 V2000
    1.5784   -0.0878    4.5273 C   0  0  0  0  0  0  0  0  0  0  0  0
    2.3837   -0.6384    4.7274 H   0  0  0  0  0  0  0  0  0  0  0  0
    0.9158   -0.1681    5.2676 H   0  0  0  0  0  0  0  0  0  0  0  0
    1.8814    0.9557    4.4404 H   0  0  0  0  0  0  0  0  0  0  0  0
    0.9450   -0.5960    3.2489 C   0  0  0  0  0  0  0  0  0  0  0  0
    1.5942   -0.4868    2.4971 H   0  0  0  0  0  0  0  0  0  0  0  0
    0.7184   -1.5635    3.3576 H   0  0  0  0  0  0  0  0  0  0  0  0
   -0.2925    0.1650    2.9423 N   0  0  0  0  0  4  0  0  0  0  0  0
   -0.4904    0.7967    3.6920 H   0  0  0  0  0  0  0  0  0  0  0  0
   -0.1643    0.6818    2.0957 H   0  0  0  0  0  0  0  0  0  0  0  0
   -1.0563   -0.4714    2.8322 H   0  0  0  0  0  0  0  0  0  0  0  0
    0.0029    2.9135   -0.0289 C   0  0  0  0  0  0  0  0  0  0  0  0
    0.8029    3.2243    0.4601 H   0  0  0  0  0  0  0  0  0  0  0  0
   -0.8285    3.2267    0.4022 H   0  0  0  0  0  0  0  0  0  0  0  0
    0.0391    3.3315   -1.0348 H   0  0  0  0  0  0  0  0  0  0  0  0
   -0.0006    1.4052    0.0004 C   0  0  0  0  0  0  0  0  0  0  0  0
   -1.1980    0.6970   -0.0015 C   0  0  0  0  0  0  0  0  0  0  0  0
   -2.0646    1.1850   -0.0050 H   0  0  0  0  0  0  0  0  0  0  0  0
   -1.2005   -0.6975    0.0000 C   0  0  0  0  0  0  0  0  0  0  0  0
   -2.0774   -1.1904    0.0019 H   0  0  0  0  0  0  0  0  0  0  0  0
    0.0016   -1.3954    0.0004 C   0  0  0  0  0  0  0  0  0  0  0  0
   -0.0055   -2.3947    0.0007 H   0  0  0  0  0  0  0  0  0  0  0  0
    1.2005   -0.7017   -0.0000 C   0  0  0  0  0  0  0  0  0  0  0  0
    2.0824   -1.1972    0.0008 H   0  0  0  0  0  0  0  0  0  0  0  0
    1.1970    0.6924    0.0007 C   0  0  0  0  0  0  0  0  0  0  0  0
    2.0658    1.1872    0.0011 H   0  0  0  0  0  0  0  0  0  0  0  0
  1  5  1  0
  5  8  1  0
  1  2  1  0
  1  3  1  0
  1  4  1  0
  5  6  1  0
  5  7  1  0
  8  9  1  0
  8 10  1  0
  8 11  1  0
 12 16  1  0
 16 17  2  0
 17 19  1  0
 19 21  2  0
 21 23  1  0
 23 25  2  0
 25 16  1  0
 12 13  1  0
 12 14  1  0
 12 15  1  0
 17 18  1  0
 19 20  1  0
 21 22  1  0
 23 24  1  0
 25 26  1  0
M  CHG  1   8   1
M  END
>  <PDB_ID>  (875) 
pdb1n1m

>  <RESIDUE_NAME>  (875) 
LYS   PHE

>  <FRAG_NAME>  (875) 
ETAM   MBZ

>  <FRAG_ATOM_NUM>  (875) 
fragi: 11  fragj: 15

>  <atom.prop.CHAIN_ID>  (875) 
A A A A A A A A A A A Z Z Z Z Z Z Z Z Z Z Z Z Z Z Z

>  <atom.prop.IS_HEAVY_ATOM>  (875) 
1 0 0 0 1 0 0 1 0 0 0 1 0 0 0 1 1 0 1 0 1 0 1 0 1 0

>  <DIFUSE_FUNC_ATOM>  (875) 
n/a

>  <FINAL_SINGLE_POINT_ENERGY>  (875) 
0

>  <NONCOV_INTER_ENERGY_QM>  (875) 
0

>  <FF_Energy>  (875) 
-8.34

>  <QM_Energy>  (875) 
-17.36

>  <source>  (875) 
ETAM_MBZ

>  <Index>  (875) 
8756

$$$$
ETAM-pdb2qru-A-LYS-228:MBZ-pdb2qru-A-PHE-224
     RDKit          3D

 26 25  0  0  0  0  0  0  0  0999 V2000
    0.2556   -0.6679   -4.7429 C   0  0  0  0  0  0  0  0  0  0  0  0
   -0.6207   -0.1861   -4.7429 H   0  0  0  0  0  0  0  0  0  0  0  0
    0.2832   -1.3096   -5.5089 H   0  0  0  0  0  0  0  0  0  0  0  0
    1.0573    0.0606   -4.8639 H   0  0  0  0  0  0  0  0  0  0  0  0
    0.3904   -1.4323   -3.4635 C   0  0  0  0  0  0  0  0  0  0  0  0
    1.1553   -2.0783   -3.5287 H   0  0  0  0  0  0  0  0  0  0  0  0
    0.5610   -0.8012   -2.7022 H   0  0  0  0  0  0  0  0  0  0  0  0
   -0.8655   -2.2231   -3.1446 N   0  0  0  0  0  4  0  0  0  0  0  0
   -1.6570   -1.6693   -3.3810 H   0  0  0  0  0  0  0  0  0  0  0  0
   -0.8566   -3.0612   -3.6805 H   0  0  0  0  0  0  0  0  0  0  0  0
   -0.8682   -2.4345   -2.1726 H   0  0  0  0  0  0  0  0  0  0  0  0
    0.0785    2.9242    0.0990 C   0  0  0  0  0  0  0  0  0  0  0  0
    1.0042    3.2012   -0.1315 H   0  0  0  0  0  0  0  0  0  0  0  0
   -0.1423    3.1886    1.0307 H   0  0  0  0  0  0  0  0  0  0  0  0
   -0.5965    3.4691   -0.5610 H   0  0  0  0  0  0  0  0  0  0  0  0
    0.0076    1.4143    0.0125 C   0  0  0  0  0  0  0  0  0  0  0  0
   -1.2119    0.7218    0.0211 C   0  0  0  0  0  0  0  0  0  0  0  0
   -2.0649    1.2025    0.0402 H   0  0  0  0  0  0  0  0  0  0  0  0
   -1.2084   -0.6971    0.0000 C   0  0  0  0  0  0  0  0  0  0  0  0
   -2.0780   -1.1881    0.0033 H   0  0  0  0  0  0  0  0  0  0  0  0
    0.0130   -1.3996   -0.0239 C   0  0  0  0  0  0  0  0  0  0  0  0
   -0.0120   -2.4024   -0.0593 H   0  0  0  0  0  0  0  0  0  0  0  0
    1.2084   -0.7252    0.0000 C   0  0  0  0  0  0  0  0  0  0  0  0
    2.0889   -1.2053    0.0254 H   0  0  0  0  0  0  0  0  0  0  0  0
    1.1912    0.6858   -0.0097 C   0  0  0  0  0  0  0  0  0  0  0  0
    2.0718    1.1735   -0.0350 H   0  0  0  0  0  0  0  0  0  0  0  0
  1  5  1  0
  5  8  1  0
  1  2  1  0
  1  3  1  0
  1  4  1  0
  5  6  1  0
  5  7  1  0
  8  9  1  0
  8 10  1  0
  8 11  1  0
 12 16  1  0
 16 17  2  0
 17 19  1  0
 19 21  2  0
 21 23  1  0
 23 25  2  0
 25 16  1  0
 12 13  1  0
 12 14  1  0
 12 15  1  0
 17 18  1  0
 19 20  1  0
 21 22  1  0
 23 24  1  0
 25 26  1  0
M  CHG  1   8   1
M  END
>  <PDB_ID>  (876) 
pdb2qru

>  <RESIDUE_NAME>  (876) 
LYS   PHE

>  <FRAG_NAME>  (876) 
ETAM   MBZ

>  <FRAG_ATOM_NUM>  (876) 
fragi: 11  fragj: 15

>  <atom.prop.CHAIN_ID>  (876) 
A A A A A A A A A A A Z Z Z Z Z Z Z Z Z Z Z Z Z Z Z

>  <atom.prop.IS_HEAVY_ATOM>  (876) 
1 0 0 0 1 0 0 1 0 0 0 1 0 0 0 1 1 0 1 0 1 0 1 0 1 0

>  <DIFUSE_FUNC_ATOM>  (876) 
n/a

>  <FINAL_SINGLE_POINT_ENERGY>  (876) 
0

>  <NONCOV_INTER_ENERGY_QM>  (876) 
0

>  <FF_Energy>  (876) 
-4.45

>  <QM_Energy>  (876) 
-11.86

>  <source>  (876) 
ETAM_MBZ

>  <Index>  (876) 
8757

$$$$
ETAM-pdb2qry-A-LYS-173:MBZ-pdb2qry-A-PHE-305
     RDKit          3D

 26 25  0  0  0  0  0  0  0  0999 V2000
   -0.2254   -1.6629    3.6823 C   0  0  0  0  0  0  0  0  0  0  0  0
    0.0201   -1.8850    4.6188 H   0  0  0  0  0  0  0  0  0  0  0  0
    0.3179   -2.1937    3.0424 H   0  0  0  0  0  0  0  0  0  0  0  0
   -1.2799   -1.8922    3.5285 H   0  0  0  0  0  0  0  0  0  0  0  0
    0.0474   -0.1910    3.4456 C   0  0  0  0  0  0  0  0  0  0  0  0
   -0.2140    0.0409    2.5004 H   0  0  0  0  0  0  0  0  0  0  0  0
   -0.5263    0.3526    4.0716 H   0  0  0  0  0  0  0  0  0  0  0  0
    1.4711    0.1661    3.6585 N   0  0  0  0  0  4  0  0  0  0  0  0
    1.8714   -0.4488    4.3380 H   0  0  0  0  0  0  0  0  0  0  0  0
    1.9704    0.0788    2.7956 H   0  0  0  0  0  0  0  0  0  0  0  0
    1.5342    1.1100    3.9850 H   0  0  0  0  0  0  0  0  0  0  0  0
   -0.0001    2.8893   -0.0162 C   0  0  0  0  0  0  0  0  0  0  0  0
   -0.9326    3.2002   -0.1543 H   0  0  0  0  0  0  0  0  0  0  0  0
    0.5847    3.1936   -0.7573 H   0  0  0  0  0  0  0  0  0  0  0  0
    0.3667    3.3466    0.9027 H   0  0  0  0  0  0  0  0  0  0  0  0
    0.0003    1.4020   -0.0003 C   0  0  0  0  0  0  0  0  0  0  0  0
   -1.2024    0.6957   -0.0005 C   0  0  0  0  0  0  0  0  0  0  0  0
   -2.0656    1.1881   -0.0024 H   0  0  0  0  0  0  0  0  0  0  0  0
   -1.2087   -0.6973   -0.0000 C   0  0  0  0  0  0  0  0  0  0  0  0
   -2.0816   -1.1926    0.0022 H   0  0  0  0  0  0  0  0  0  0  0  0
    0.0019   -1.3979   -0.0003 C   0  0  0  0  0  0  0  0  0  0  0  0
   -0.0041   -2.3943   -0.0011 H   0  0  0  0  0  0  0  0  0  0  0  0
    1.2087   -0.6995   -0.0000 C   0  0  0  0  0  0  0  0  0  0  0  0
    2.0873   -1.1945    0.0007 H   0  0  0  0  0  0  0  0  0  0  0  0
    1.2002    0.6969    0.0011 C   0  0  0  0  0  0  0  0  0  0  0  0
    2.0666    1.1935    0.0017 H   0  0  0  0  0  0  0  0  0  0  0  0
  1  5  1  0
  5  8  1  0
  1  2  1  0
  1  3  1  0
  1  4  1  0
  5  6  1  0
  5  7  1  0
  8  9  1  0
  8 10  1  0
  8 11  1  0
 12 16  1  0
 16 17  2  0
 17 19  1  0
 19 21  2  0
 21 23  1  0
 23 25  2  0
 25 16  1  0
 12 13  1  0
 12 14  1  0
 12 15  1  0
 17 18  1  0
 19 20  1  0
 21 22  1  0
 23 24  1  0
 25 26  1  0
M  CHG  1   8   1
M  END
>  <PDB_ID>  (877) 
pdb2qry

>  <RESIDUE_NAME>  (877) 
LYS   PHE

>  <FRAG_NAME>  (877) 
ETAM   MBZ

>  <FRAG_ATOM_NUM>  (877) 
fragi: 11  fragj: 15

>  <atom.prop.CHAIN_ID>  (877) 
A A A A A A A A A A A Z Z Z Z Z Z Z Z Z Z Z Z Z Z Z

>  <atom.prop.IS_HEAVY_ATOM>  (877) 
1 0 0 0 1 0 0 1 0 0 0 1 0 0 0 1 1 0 1 0 1 0 1 0 1 0

>  <DIFUSE_FUNC_ATOM>  (877) 
n/a

>  <FINAL_SINGLE_POINT_ENERGY>  (877) 
0

>  <NONCOV_INTER_ENERGY_QM>  (877) 
0

>  <FF_Energy>  (877) 
-6.45

>  <QM_Energy>  (877) 
-13.33

>  <source>  (877) 
ETAM_MBZ

>  <Index>  (877) 
8762

$$$$
ETAM-pdb2qry-B-LYS-173:MBZ-pdb2qry-B-PHE-305
     RDKit          3D

 26 25  0  0  0  0  0  0  0  0999 V2000
   -0.1770   -1.5906    3.5722 C   0  0  0  0  0  0  0  0  0  0  0  0
    0.0825   -1.7931    4.5102 H   0  0  0  0  0  0  0  0  0  0  0  0
    0.3214   -2.1717    2.9394 H   0  0  0  0  0  0  0  0  0  0  0  0
   -1.2451   -1.7725    3.4538 H   0  0  0  0  0  0  0  0  0  0  0  0
    0.1623   -0.1450    3.2751 C   0  0  0  0  0  0  0  0  0  0  0  0
   -0.0216    0.0394    2.3048 H   0  0  0  0  0  0  0  0  0  0  0  0
   -0.4260    0.4492    3.8323 H   0  0  0  0  0  0  0  0  0  0  0  0
    1.5787    0.1535    3.5708 N   0  0  0  0  0  4  0  0  0  0  0  0
    1.6803    0.3786    4.5410 H   0  0  0  0  0  0  0  0  0  0  0  0
    2.1435   -0.6449    3.3562 H   0  0  0  0  0  0  0  0  0  0  0  0
    1.8818    0.9319    3.0177 H   0  0  0  0  0  0  0  0  0  0  0  0
   -0.0031    2.8952   -0.0525 C   0  0  0  0  0  0  0  0  0  0  0  0
   -0.9470    3.2014   -0.0792 H   0  0  0  0  0  0  0  0  0  0  0  0
    0.4796    3.1763   -0.8728 H   0  0  0  0  0  0  0  0  0  0  0  0
    0.4783    3.3789    0.7975 H   0  0  0  0  0  0  0  0  0  0  0  0
   -0.0005    1.4018   -0.0005 C   0  0  0  0  0  0  0  0  0  0  0  0
   -1.1991    0.6992    0.0007 C   0  0  0  0  0  0  0  0  0  0  0  0
   -2.0637    1.1920    0.0016 H   0  0  0  0  0  0  0  0  0  0  0  0
   -1.2079   -0.6915    0.0000 C   0  0  0  0  0  0  0  0  0  0  0  0
   -2.0834   -1.1856    0.0017 H   0  0  0  0  0  0  0  0  0  0  0  0
   -0.0017   -1.3986   -0.0015 C   0  0  0  0  0  0  0  0  0  0  0  0
   -0.0117   -2.3941   -0.0046 H   0  0  0  0  0  0  0  0  0  0  0  0
    1.2079   -0.7035    0.0000 C   0  0  0  0  0  0  0  0  0  0  0  0
    2.0843   -1.2002    0.0018 H   0  0  0  0  0  0  0  0  0  0  0  0
    1.2013    0.6927    0.0013 C   0  0  0  0  0  0  0  0  0  0  0  0
    2.0669    1.1893    0.0027 H   0  0  0  0  0  0  0  0  0  0  0  0
  1  5  1  0
  5  8  1  0
  1  2  1  0
  1  3  1  0
  1  4  1  0
  5  6  1  0
  5  7  1  0
  8  9  1  0
  8 10  1  0
  8 11  1  0
 12 16  1  0
 16 17  2  0
 17 19  1  0
 19 21  2  0
 21 23  1  0
 23 25  2  0
 25 16  1  0
 12 13  1  0
 12 14  1  0
 12 15  1  0
 17 18  1  0
 19 20  1  0
 21 22  1  0
 23 24  1  0
 25 26  1  0
M  CHG  1   8   1
M  END
>  <PDB_ID>  (878) 
pdb2qry

>  <RESIDUE_NAME>  (878) 
LYS   PHE

>  <FRAG_NAME>  (878) 
ETAM   MBZ

>  <FRAG_ATOM_NUM>  (878) 
fragi: 11  fragj: 15

>  <atom.prop.CHAIN_ID>  (878) 
A A A A A A A A A A A Z Z Z Z Z Z Z Z Z Z Z Z Z Z Z

>  <atom.prop.IS_HEAVY_ATOM>  (878) 
1 0 0 0 1 0 0 1 0 0 0 1 0 0 0 1 1 0 1 0 1 0 1 0 1 0

>  <DIFUSE_FUNC_ATOM>  (878) 
n/a

>  <FINAL_SINGLE_POINT_ENERGY>  (878) 
0

>  <NONCOV_INTER_ENERGY_QM>  (878) 
0

>  <FF_Energy>  (878) 
-5.07

>  <QM_Energy>  (878) 
-12.89

>  <source>  (878) 
ETAM_MBZ

>  <Index>  (878) 
8763

$$$$
ETAM-pdb2qry-C-LYS-173:MBZ-pdb2qry-C-PHE-305
     RDKit          3D

 26 25  0  0  0  0  0  0  0  0999 V2000
    0.2914   -1.5609    3.4298 C   0  0  0  0  0  0  0  0  0  0  0  0
    0.5453   -1.7690    4.3660 H   0  0  0  0  0  0  0  0  0  0  0  0
    0.8461   -2.0785    2.7904 H   0  0  0  0  0  0  0  0  0  0  0  0
   -0.7554   -1.8271    3.2833 H   0  0  0  0  0  0  0  0  0  0  0  0
    0.5153   -0.0784    3.1809 C   0  0  0  0  0  0  0  0  0  0  0  0
    0.2505    0.1356    2.2348 H   0  0  0  0  0  0  0  0  0  0  0  0
   -0.0716    0.4483    3.8050 H   0  0  0  0  0  0  0  0  0  0  0  0
    1.9319    0.3171    3.3937 N   0  0  0  0  0  4  0  0  0  0  0  0
    2.4938   -0.5034    3.5038 H   0  0  0  0  0  0  0  0  0  0  0  0
    2.2541    0.8383    2.6034 H   0  0  0  0  0  0  0  0  0  0  0  0
    1.9998    0.8819    4.2163 H   0  0  0  0  0  0  0  0  0  0  0  0
    0.0020    2.8973   -0.0157 C   0  0  0  0  0  0  0  0  0  0  0  0
   -0.9348    3.2084   -0.1103 H   0  0  0  0  0  0  0  0  0  0  0  0
    0.5546    3.1999   -0.7809 H   0  0  0  0  0  0  0  0  0  0  0  0
    0.4102    3.3565    0.8846 H   0  0  0  0  0  0  0  0  0  0  0  0
    0.0010    1.4030    0.0005 C   0  0  0  0  0  0  0  0  0  0  0  0
   -1.1989    0.6967    0.0002 C   0  0  0  0  0  0  0  0  0  0  0  0
   -2.0643    1.1864   -0.0016 H   0  0  0  0  0  0  0  0  0  0  0  0
   -1.2066   -0.7005   -0.0000 C   0  0  0  0  0  0  0  0  0  0  0  0
   -2.0810   -1.1911    0.0023 H   0  0  0  0  0  0  0  0  0  0  0  0
   -0.0009   -1.3982   -0.0010 C   0  0  0  0  0  0  0  0  0  0  0  0
   -0.0019   -2.3938   -0.0028 H   0  0  0  0  0  0  0  0  0  0  0  0
    1.2066   -0.6958    0.0000 C   0  0  0  0  0  0  0  0  0  0  0  0
    2.0857   -1.1942    0.0018 H   0  0  0  0  0  0  0  0  0  0  0  0
    1.1989    0.6948    0.0003 C   0  0  0  0  0  0  0  0  0  0  0  0
    2.0663    1.1929   -0.0002 H   0  0  0  0  0  0  0  0  0  0  0  0
  1  5  1  0
  5  8  1  0
  1  2  1  0
  1  3  1  0
  1  4  1  0
  5  6  1  0
  5  7  1  0
  8  9  1  0
  8 10  1  0
  8 11  1  0
 12 16  1  0
 16 17  2  0
 17 19  1  0
 19 21  2  0
 21 23  1  0
 23 25  2  0
 25 16  1  0
 12 13  1  0
 12 14  1  0
 12 15  1  0
 17 18  1  0
 19 20  1  0
 21 22  1  0
 23 24  1  0
 25 26  1  0
M  CHG  1   8   1
M  END
>  <PDB_ID>  (879) 
pdb2qry

>  <RESIDUE_NAME>  (879) 
LYS   PHE

>  <FRAG_NAME>  (879) 
ETAM   MBZ

>  <FRAG_ATOM_NUM>  (879) 
fragi: 11  fragj: 15

>  <atom.prop.CHAIN_ID>  (879) 
A A A A A A A A A A A Z Z Z Z Z Z Z Z Z Z Z Z Z Z Z

>  <atom.prop.IS_HEAVY_ATOM>  (879) 
1 0 0 0 1 0 0 1 0 0 0 1 0 0 0 1 1 0 1 0 1 0 1 0 1 0

>  <DIFUSE_FUNC_ATOM>  (879) 
n/a

>  <FINAL_SINGLE_POINT_ENERGY>  (879) 
0

>  <NONCOV_INTER_ENERGY_QM>  (879) 
0

>  <FF_Energy>  (879) 
-3.2

>  <QM_Energy>  (879) 
-12.29

>  <source>  (879) 
ETAM_MBZ

>  <Index>  (879) 
8764

$$$$
ETAM-pdb2qsa-A-LYS-98:MBZ-pdb2qsa-A-PHE-48
     RDKit          3D

 26 25  0  0  0  0  0  0  0  0999 V2000
    0.3348   -1.6614   -3.7196 C   0  0  0  0  0  0  0  0  0  0  0  0
   -0.1002   -2.2277   -3.0378 H   0  0  0  0  0  0  0  0  0  0  0  0
    1.3144   -1.7820   -3.7227 H   0  0  0  0  0  0  0  0  0  0  0  0
   -0.0671   -1.9020   -4.7038 H   0  0  0  0  0  0  0  0  0  0  0  0
    0.0409   -0.1804   -3.3655 C   0  0  0  0  0  0  0  0  0  0  0  0
   -0.9401   -0.0253   -3.4308 H   0  0  0  0  0  0  0  0  0  0  0  0
    0.3558   -0.0060   -2.4377 H   0  0  0  0  0  0  0  0  0  0  0  0
    0.7534    0.7684   -4.3137 N   0  0  0  0  0  4  0  0  0  0  0  0
    0.2270    1.6100   -4.3743 H   0  0  0  0  0  0  0  0  0  0  0  0
    1.6617    0.9538   -3.9525 H   0  0  0  0  0  0  0  0  0  0  0  0
    0.8179    0.3345   -5.2063 H   0  0  0  0  0  0  0  0  0  0  0  0
   -0.0002    2.9054   -0.0313 C   0  0  0  0  0  0  0  0  0  0  0  0
   -0.8234    3.2151   -0.4835 H   0  0  0  0  0  0  0  0  0  0  0  0
    0.8096    3.2115   -0.5086 H   0  0  0  0  0  0  0  0  0  0  0  0
    0.0169    3.3432    0.9668 H   0  0  0  0  0  0  0  0  0  0  0  0
   -0.0039    1.4054   -0.0327 C   0  0  0  0  0  0  0  0  0  0  0  0
   -1.2012    0.6958    0.0075 C   0  0  0  0  0  0  0  0  0  0  0  0
   -2.0669    1.1864    0.0405 H   0  0  0  0  0  0  0  0  0  0  0  0
   -1.2079   -0.6967   -0.0000 C   0  0  0  0  0  0  0  0  0  0  0  0
   -2.0805   -1.1919   -0.0154 H   0  0  0  0  0  0  0  0  0  0  0  0
    0.0017   -1.3975    0.0166 C   0  0  0  0  0  0  0  0  0  0  0  0
   -0.0058   -2.3946    0.0396 H   0  0  0  0  0  0  0  0  0  0  0  0
    1.2079   -0.7027    0.0000 C   0  0  0  0  0  0  0  0  0  0  0  0
    2.0863   -1.1982   -0.0164 H   0  0  0  0  0  0  0  0  0  0  0  0
    1.2034    0.6958    0.0086 C   0  0  0  0  0  0  0  0  0  0  0  0
    2.0662    1.1925    0.0437 H   0  0  0  0  0  0  0  0  0  0  0  0
  1  5  1  0
  5  8  1  0
  1  2  1  0
  1  3  1  0
  1  4  1  0
  5  6  1  0
  5  7  1  0
  8  9  1  0
  8 10  1  0
  8 11  1  0
 12 16  1  0
 16 17  2  0
 17 19  1  0
 19 21  2  0
 21 23  1  0
 23 25  2  0
 25 16  1  0
 12 13  1  0
 12 14  1  0
 12 15  1  0
 17 18  1  0
 19 20  1  0
 21 22  1  0
 23 24  1  0
 25 26  1  0
M  CHG  1   8   1
M  END
>  <PDB_ID>  (880) 
pdb2qsa

>  <RESIDUE_NAME>  (880) 
LYS   PHE

>  <FRAG_NAME>  (880) 
ETAM   MBZ

>  <FRAG_ATOM_NUM>  (880) 
fragi: 11  fragj: 15

>  <atom.prop.CHAIN_ID>  (880) 
A A A A A A A A A A A Z Z Z Z Z Z Z Z Z Z Z Z Z Z Z

>  <atom.prop.IS_HEAVY_ATOM>  (880) 
1 0 0 0 1 0 0 1 0 0 0 1 0 0 0 1 1 0 1 0 1 0 1 0 1 0

>  <DIFUSE_FUNC_ATOM>  (880) 
n/a

>  <FINAL_SINGLE_POINT_ENERGY>  (880) 
0

>  <NONCOV_INTER_ENERGY_QM>  (880) 
0

>  <FF_Energy>  (880) 
-5.55

>  <QM_Energy>  (880) 
-10.56

>  <source>  (880) 
ETAM_MBZ

>  <Index>  (880) 
8774

$$$$
ETAM-pdb1mjg-D-LYS-412:MBZ-pdb1mjg-D-PHE-408
     RDKit          3D

 26 25  0  0  0  0  0  0  0  0999 V2000
   -0.7627   -2.7361    4.4136 C   0  0  0  0  0  0  0  0  0  0  0  0
   -0.1644   -3.5161    4.5724 H   0  0  0  0  0  0  0  0  0  0  0  0
   -1.1960   -2.4561    5.2653 H   0  0  0  0  0  0  0  0  0  0  0  0
   -0.1622   -1.9076    4.0379 H   0  0  0  0  0  0  0  0  0  0  0  0
   -1.8407   -3.1394    3.4271 C   0  0  0  0  0  0  0  0  0  0  0  0
   -2.3219   -3.9445    3.7791 H   0  0  0  0  0  0  0  0  0  0  0  0
   -2.4921   -2.3843    3.3273 H   0  0  0  0  0  0  0  0  0  0  0  0
   -1.2602   -3.4615    2.0961 N   0  0  0  0  0  4  0  0  0  0  0  0
   -0.6668   -2.7125    1.8027 H   0  0  0  0  0  0  0  0  0  0  0  0
   -0.7277   -4.3048    2.1615 H   0  0  0  0  0  0  0  0  0  0  0  0
   -1.9984   -3.5831    1.4326 H   0  0  0  0  0  0  0  0  0  0  0  0
    0.0051    2.9119    0.0235 C   0  0  0  0  0  0  0  0  0  0  0  0
   -0.6657    3.2304   -0.6289 H   0  0  0  0  0  0  0  0  0  0  0  0
    0.9138    3.2173   -0.2142 H   0  0  0  0  0  0  0  0  0  0  0  0
   -0.2463    3.3367    0.9953 H   0  0  0  0  0  0  0  0  0  0  0  0
   -0.0001    1.4032   -0.0034 C   0  0  0  0  0  0  0  0  0  0  0  0
   -1.1985    0.6928   -0.0002 C   0  0  0  0  0  0  0  0  0  0  0  0
   -2.0649    1.1822    0.0010 H   0  0  0  0  0  0  0  0  0  0  0  0
   -1.2023   -0.7011    0.0000 C   0  0  0  0  0  0  0  0  0  0  0  0
   -2.0767   -1.1950   -0.0012 H   0  0  0  0  0  0  0  0  0  0  0  0
    0.0026   -1.3952    0.0035 C   0  0  0  0  0  0  0  0  0  0  0  0
    0.0012   -2.3933    0.0084 H   0  0  0  0  0  0  0  0  0  0  0  0
    1.2023   -0.6948   -0.0000 C   0  0  0  0  0  0  0  0  0  0  0  0
    2.0846   -1.1921   -0.0008 H   0  0  0  0  0  0  0  0  0  0  0  0
    1.1960    0.6950   -0.0000 C   0  0  0  0  0  0  0  0  0  0  0  0
    2.0643    1.1927    0.0021 H   0  0  0  0  0  0  0  0  0  0  0  0
  1  5  1  0
  5  8  1  0
  1  2  1  0
  1  3  1  0
  1  4  1  0
  5  6  1  0
  5  7  1  0
  8  9  1  0
  8 10  1  0
  8 11  1  0
 12 16  1  0
 16 17  2  0
 17 19  1  0
 19 21  2  0
 21 23  1  0
 23 25  2  0
 25 16  1  0
 12 13  1  0
 12 14  1  0
 12 15  1  0
 17 18  1  0
 19 20  1  0
 21 22  1  0
 23 24  1  0
 25 26  1  0
M  CHG  1   8   1
M  END
>  <PDB_ID>  (881) 
pdb1mjg

>  <RESIDUE_NAME>  (881) 
LYS   PHE

>  <FRAG_NAME>  (881) 
ETAM   MBZ

>  <FRAG_ATOM_NUM>  (881) 
fragi: 11  fragj: 15

>  <atom.prop.CHAIN_ID>  (881) 
A A A A A A A A A A A Z Z Z Z Z Z Z Z Z Z Z Z Z Z Z

>  <atom.prop.IS_HEAVY_ATOM>  (881) 
1 0 0 0 1 0 0 1 0 0 0 1 0 0 0 1 1 0 1 0 1 0 1 0 1 0

>  <DIFUSE_FUNC_ATOM>  (881) 
n/a

>  <FINAL_SINGLE_POINT_ENERGY>  (881) 
0

>  <NONCOV_INTER_ENERGY_QM>  (881) 
0

>  <FF_Energy>  (881) 
-0.69

>  <QM_Energy>  (881) 
-8.35

>  <source>  (881) 
ETAM_MBZ

>  <Index>  (881) 
8792

$$$$
ETAM-pdb1n4q-E-LYS-118:MBZ-pdb1n4q-E-PHE-55
     RDKit          3D

 26 25  0  0  0  0  0  0  0  0999 V2000
    4.0366    1.6299   -2.5782 C   0  0  0  0  0  0  0  0  0  0  0  0
    4.9497    1.6475   -2.1921 H   0  0  0  0  0  0  0  0  0  0  0  0
    3.4120    2.1754   -2.0353 H   0  0  0  0  0  0  0  0  0  0  0  0
    4.0700    2.0271   -3.5927 H   0  0  0  0  0  0  0  0  0  0  0  0
    3.5421    0.1922   -2.5846 C   0  0  0  0  0  0  0  0  0  0  0  0
    4.1899   -0.3720   -3.0944 H   0  0  0  0  0  0  0  0  0  0  0  0
    3.4808   -0.1348   -1.6434 H   0  0  0  0  0  0  0  0  0  0  0  0
    2.2013    0.1015   -3.2239 N   0  0  0  0  0  4  0  0  0  0  0  0
    1.7703   -0.7643   -2.9701 H   0  0  0  0  0  0  0  0  0  0  0  0
    1.6331    0.8617   -2.9119 H   0  0  0  0  0  0  0  0  0  0  0  0
    2.3041    0.1462   -4.2176 H   0  0  0  0  0  0  0  0  0  0  0  0
   -0.0020    2.9151    0.0341 C   0  0  0  0  0  0  0  0  0  0  0  0
    0.8249    3.2331   -0.4042 H   0  0  0  0  0  0  0  0  0  0  0  0
   -0.0407    3.2005    0.9796 H   0  0  0  0  0  0  0  0  0  0  0  0
   -0.8472    3.3689   -0.4835 H   0  0  0  0  0  0  0  0  0  0  0  0
   -0.0009    1.4123   -0.0003 C   0  0  0  0  0  0  0  0  0  0  0  0
   -1.2036    0.6958    0.0004 C   0  0  0  0  0  0  0  0  0  0  0  0
   -2.0696    1.1832   -0.0003 H   0  0  0  0  0  0  0  0  0  0  0  0
   -1.2098   -0.7063    0.0000 C   0  0  0  0  0  0  0  0  0  0  0  0
   -2.0813   -1.1978    0.0002 H   0  0  0  0  0  0  0  0  0  0  0  0
    0.0038   -1.4070    0.0014 C   0  0  0  0  0  0  0  0  0  0  0  0
    0.0016   -2.4005    0.0027 H   0  0  0  0  0  0  0  0  0  0  0  0
    1.2098   -0.6999   -0.0000 C   0  0  0  0  0  0  0  0  0  0  0  0
    2.0913   -1.1911    0.0013 H   0  0  0  0  0  0  0  0  0  0  0  0
    1.2007    0.7051   -0.0015 C   0  0  0  0  0  0  0  0  0  0  0  0
    2.0680    1.1988   -0.0045 H   0  0  0  0  0  0  0  0  0  0  0  0
  1  5  1  0
  5  8  1  0
  1  2  1  0
  1  3  1  0
  1  4  1  0
  5  6  1  0
  5  7  1  0
  8  9  1  0
  8 10  1  0
  8 11  1  0
 12 16  1  0
 16 17  2  0
 17 19  1  0
 19 21  2  0
 21 23  1  0
 23 25  2  0
 25 16  1  0
 12 13  1  0
 12 14  1  0
 12 15  1  0
 17 18  1  0
 19 20  1  0
 21 22  1  0
 23 24  1  0
 25 26  1  0
M  CHG  1   8   1
M  END
>  <PDB_ID>  (882) 
pdb1n4q

>  <RESIDUE_NAME>  (882) 
LYS   PHE

>  <FRAG_NAME>  (882) 
ETAM   MBZ

>  <FRAG_ATOM_NUM>  (882) 
fragi: 11  fragj: 15

>  <atom.prop.CHAIN_ID>  (882) 
A A A A A A A A A A A Z Z Z Z Z Z Z Z Z Z Z Z Z Z Z

>  <atom.prop.IS_HEAVY_ATOM>  (882) 
1 0 0 0 1 0 0 1 0 0 0 1 0 0 0 1 1 0 1 0 1 0 1 0 1 0

>  <DIFUSE_FUNC_ATOM>  (882) 
n/a

>  <FINAL_SINGLE_POINT_ENERGY>  (882) 
0

>  <NONCOV_INTER_ENERGY_QM>  (882) 
0

>  <FF_Energy>  (882) 
-5.03

>  <QM_Energy>  (882) 
-11.16

>  <source>  (882) 
ETAM_MBZ

>  <Index>  (882) 
8798

$$$$
ETAM-pdb1n4q-G-LYS-118:MBZ-pdb1n4q-G-PHE-55
     RDKit          3D

 26 25  0  0  0  0  0  0  0  0999 V2000
    4.6241    1.5449   -2.0050 C   0  0  0  0  0  0  0  0  0  0  0  0
    5.5087    1.5397   -1.5378 H   0  0  0  0  0  0  0  0  0  0  0  0
    4.0091    2.1870   -1.5455 H   0  0  0  0  0  0  0  0  0  0  0  0
    4.7733    1.8772   -3.0324 H   0  0  0  0  0  0  0  0  0  0  0  0
    4.0249    0.1597   -1.9253 C   0  0  0  0  0  0  0  0  0  0  0  0
    3.1382    0.1580   -2.3864 H   0  0  0  0  0  0  0  0  0  0  0  0
    4.6366   -0.4893   -2.3780 H   0  0  0  0  0  0  0  0  0  0  0  0
    3.8406   -0.2506   -0.5098 N   0  0  0  0  0  4  0  0  0  0  0  0
    4.6992   -0.6192   -0.1547 H   0  0  0  0  0  0  0  0  0  0  0  0
    3.5676    0.5434    0.0341 H   0  0  0  0  0  0  0  0  0  0  0  0
    3.1286   -0.9520   -0.4560 H   0  0  0  0  0  0  0  0  0  0  0  0
    0.0035    2.9188    0.0679 C   0  0  0  0  0  0  0  0  0  0  0  0
    0.8800    3.2361   -0.2612 H   0  0  0  0  0  0  0  0  0  0  0  0
   -0.1451    3.1821    1.0093 H   0  0  0  0  0  0  0  0  0  0  0  0
   -0.7695    3.3949   -0.5354 H   0  0  0  0  0  0  0  0  0  0  0  0
    0.0005    1.4084    0.0010 C   0  0  0  0  0  0  0  0  0  0  0  0
   -1.1983    0.6980   -0.0005 C   0  0  0  0  0  0  0  0  0  0  0  0
   -2.0644    1.1866   -0.0032 H   0  0  0  0  0  0  0  0  0  0  0  0
   -1.2040   -0.6976    0.0000 C   0  0  0  0  0  0  0  0  0  0  0  0
   -2.0815   -1.1890    0.0012 H   0  0  0  0  0  0  0  0  0  0  0  0
   -0.0023   -1.3997    0.0006 C   0  0  0  0  0  0  0  0  0  0  0  0
   -0.0089   -2.3962    0.0011 H   0  0  0  0  0  0  0  0  0  0  0  0
    1.2040   -0.7037   -0.0000 C   0  0  0  0  0  0  0  0  0  0  0  0
    2.0827   -1.1997    0.0017 H   0  0  0  0  0  0  0  0  0  0  0  0
    1.2000    0.6946   -0.0011 C   0  0  0  0  0  0  0  0  0  0  0  0
    2.0679    1.1881   -0.0042 H   0  0  0  0  0  0  0  0  0  0  0  0
  1  5  1  0
  5  8  1  0
  1  2  1  0
  1  3  1  0
  1  4  1  0
  5  6  1  0
  5  7  1  0
  8  9  1  0
  8 10  1  0
  8 11  1  0
 12 16  1  0
 16 17  2  0
 17 19  1  0
 19 21  2  0
 21 23  1  0
 23 25  2  0
 25 16  1  0
 12 13  1  0
 12 14  1  0
 12 15  1  0
 17 18  1  0
 19 20  1  0
 21 22  1  0
 23 24  1  0
 25 26  1  0
M  CHG  1   8   1
M  END
>  <PDB_ID>  (883) 
pdb1n4q

>  <RESIDUE_NAME>  (883) 
LYS   PHE

>  <FRAG_NAME>  (883) 
ETAM   MBZ

>  <FRAG_ATOM_NUM>  (883) 
fragi: 11  fragj: 15

>  <atom.prop.CHAIN_ID>  (883) 
A A A A A A A A A A A Z Z Z Z Z Z Z Z Z Z Z Z Z Z Z

>  <atom.prop.IS_HEAVY_ATOM>  (883) 
1 0 0 0 1 0 0 1 0 0 0 1 0 0 0 1 1 0 1 0 1 0 1 0 1 0

>  <DIFUSE_FUNC_ATOM>  (883) 
n/a

>  <FINAL_SINGLE_POINT_ENERGY>  (883) 
0

>  <NONCOV_INTER_ENERGY_QM>  (883) 
0

>  <FF_Energy>  (883) 
28.13

>  <QM_Energy>  (883) 
10.41

>  <source>  (883) 
ETAM_MBZ

>  <Index>  (883) 
8800

$$$$
ETAM-pdb1n4q-I-LYS-118:MBZ-pdb1n4q-I-PHE-55
     RDKit          3D

 26 25  0  0  0  0  0  0  0  0999 V2000
    4.4201    1.5846   -2.3202 C   0  0  0  0  0  0  0  0  0  0  0  0
    5.3492    1.5585   -1.9649 H   0  0  0  0  0  0  0  0  0  0  0  0
    3.8586    2.2001   -1.7772 H   0  0  0  0  0  0  0  0  0  0  0  0
    4.4471    1.9458   -3.3483 H   0  0  0  0  0  0  0  0  0  0  0  0
    3.8270    0.1823   -2.2301 C   0  0  0  0  0  0  0  0  0  0  0  0
    4.3547   -0.4310   -2.8269 H   0  0  0  0  0  0  0  0  0  0  0  0
    3.9088   -0.1441   -1.2828 H   0  0  0  0  0  0  0  0  0  0  0  0
    2.3923    0.1431   -2.6367 N   0  0  0  0  0  4  0  0  0  0  0  0
    2.3316    0.1639   -3.6333 H   0  0  0  0  0  0  0  0  0  0  0  0
    1.9742   -0.6963   -2.2917 H   0  0  0  0  0  0  0  0  0  0  0  0
    1.9197    0.9355   -2.2547 H   0  0  0  0  0  0  0  0  0  0  0  0
    0.0022    2.9231    0.0661 C   0  0  0  0  0  0  0  0  0  0  0  0
    0.8171    3.2485   -0.3888 H   0  0  0  0  0  0  0  0  0  0  0  0
   -0.0091    3.1851    1.0188 H   0  0  0  0  0  0  0  0  0  0  0  0
   -0.8562    3.3902   -0.4165 H   0  0  0  0  0  0  0  0  0  0  0  0
    0.0004    1.4150   -0.0019 C   0  0  0  0  0  0  0  0  0  0  0  0
   -1.2031    0.6991   -0.0007 C   0  0  0  0  0  0  0  0  0  0  0  0
   -2.0695    1.1856   -0.0018 H   0  0  0  0  0  0  0  0  0  0  0  0
   -1.2097   -0.7064    0.0000 C   0  0  0  0  0  0  0  0  0  0  0  0
   -2.0842   -1.1953   -0.0004 H   0  0  0  0  0  0  0  0  0  0  0  0
   -0.0000   -1.4085    0.0034 C   0  0  0  0  0  0  0  0  0  0  0  0
   -0.0023   -2.4028    0.0078 H   0  0  0  0  0  0  0  0  0  0  0  0
    1.2097   -0.7035    0.0000 C   0  0  0  0  0  0  0  0  0  0  0  0
    2.0890   -1.1955   -0.0002 H   0  0  0  0  0  0  0  0  0  0  0  0
    1.2027    0.7042   -0.0008 C   0  0  0  0  0  0  0  0  0  0  0  0
    2.0703    1.1959   -0.0011 H   0  0  0  0  0  0  0  0  0  0  0  0
  1  5  1  0
  5  8  1  0
  1  2  1  0
  1  3  1  0
  1  4  1  0
  5  6  1  0
  5  7  1  0
  8  9  1  0
  8 10  1  0
  8 11  1  0
 12 16  1  0
 16 17  2  0
 17 19  1  0
 19 21  2  0
 21 23  1  0
 23 25  2  0
 25 16  1  0
 12 13  1  0
 12 14  1  0
 12 15  1  0
 17 18  1  0
 19 20  1  0
 21 22  1  0
 23 24  1  0
 25 26  1  0
M  CHG  1   8   1
M  END
>  <PDB_ID>  (884) 
pdb1n4q

>  <RESIDUE_NAME>  (884) 
LYS   PHE

>  <FRAG_NAME>  (884) 
ETAM   MBZ

>  <FRAG_ATOM_NUM>  (884) 
fragi: 11  fragj: 15

>  <atom.prop.CHAIN_ID>  (884) 
A A A A A A A A A A A Z Z Z Z Z Z Z Z Z Z Z Z Z Z Z

>  <atom.prop.IS_HEAVY_ATOM>  (884) 
1 0 0 0 1 0 0 1 0 0 0 1 0 0 0 1 1 0 1 0 1 0 1 0 1 0

>  <DIFUSE_FUNC_ATOM>  (884) 
n/a

>  <FINAL_SINGLE_POINT_ENERGY>  (884) 
0

>  <NONCOV_INTER_ENERGY_QM>  (884) 
0

>  <FF_Energy>  (884) 
-2.62

>  <QM_Energy>  (884) 
-11.27

>  <source>  (884) 
ETAM_MBZ

>  <Index>  (884) 
8801

$$$$
ETAM-pdb1n1b-B-LYS-86:MBZ-pdb1n1b-B-PHE-121
     RDKit          3D

 26 25  0  0  0  0  0  0  0  0999 V2000
    0.2952   -3.2619   -4.6405 C   0  0  0  0  0  0  0  0  0  0  0  0
   -0.2238   -4.1104   -4.6287 H   0  0  0  0  0  0  0  0  0  0  0  0
    1.2060   -3.4179   -5.0080 H   0  0  0  0  0  0  0  0  0  0  0  0
   -0.2226   -2.5409   -5.2729 H   0  0  0  0  0  0  0  0  0  0  0  0
    0.4290   -2.7553   -3.2128 C   0  0  0  0  0  0  0  0  0  0  0  0
    0.9506   -1.8977   -3.2191 H   0  0  0  0  0  0  0  0  0  0  0  0
   -0.4871   -2.5737   -2.8443 H   0  0  0  0  0  0  0  0  0  0  0  0
    1.1214   -3.7413   -2.3362 N   0  0  0  0  0  4  0  0  0  0  0  0
    1.5540   -3.2604   -1.5740 H   0  0  0  0  0  0  0  0  0  0  0  0
    0.4546   -4.3964   -1.9839 H   0  0  0  0  0  0  0  0  0  0  0  0
    1.8180   -4.2241   -2.8664 H   0  0  0  0  0  0  0  0  0  0  0  0
   -0.0044    2.9036    0.0272 C   0  0  0  0  0  0  0  0  0  0  0  0
   -0.9448    3.2088    0.0417 H   0  0  0  0  0  0  0  0  0  0  0  0
    0.4662    3.2285   -0.7801 H   0  0  0  0  0  0  0  0  0  0  0  0
    0.4963    3.3300    0.8964 H   0  0  0  0  0  0  0  0  0  0  0  0
   -0.0007    1.4043   -0.0005 C   0  0  0  0  0  0  0  0  0  0  0  0
   -1.1984    0.6954   -0.0010 C   0  0  0  0  0  0  0  0  0  0  0  0
   -2.0644    1.1846   -0.0032 H   0  0  0  0  0  0  0  0  0  0  0  0
   -1.2043   -0.6992   -0.0000 C   0  0  0  0  0  0  0  0  0  0  0  0
   -2.0791   -1.1925   -0.0001 H   0  0  0  0  0  0  0  0  0  0  0  0
    0.0014   -1.3982    0.0029 C   0  0  0  0  0  0  0  0  0  0  0  0
   -0.0039   -2.3951    0.0063 H   0  0  0  0  0  0  0  0  0  0  0  0
    1.2043   -0.6998    0.0000 C   0  0  0  0  0  0  0  0  0  0  0  0
    2.0855   -1.1941    0.0003 H   0  0  0  0  0  0  0  0  0  0  0  0
    1.1977    0.6976   -0.0014 C   0  0  0  0  0  0  0  0  0  0  0  0
    2.0654    1.1919   -0.0038 H   0  0  0  0  0  0  0  0  0  0  0  0
  1  5  1  0
  5  8  1  0
  1  2  1  0
  1  3  1  0
  1  4  1  0
  5  6  1  0
  5  7  1  0
  8  9  1  0
  8 10  1  0
  8 11  1  0
 12 16  1  0
 16 17  2  0
 17 19  1  0
 19 21  2  0
 21 23  1  0
 23 25  2  0
 25 16  1  0
 12 13  1  0
 12 14  1  0
 12 15  1  0
 17 18  1  0
 19 20  1  0
 21 22  1  0
 23 24  1  0
 25 26  1  0
M  CHG  1   8   1
M  END
>  <PDB_ID>  (885) 
pdb1n1b

>  <RESIDUE_NAME>  (885) 
LYS   PHE

>  <FRAG_NAME>  (885) 
ETAM   MBZ

>  <FRAG_ATOM_NUM>  (885) 
fragi: 11  fragj: 15

>  <atom.prop.CHAIN_ID>  (885) 
A A A A A A A A A A A Z Z Z Z Z Z Z Z Z Z Z Z Z Z Z

>  <atom.prop.IS_HEAVY_ATOM>  (885) 
1 0 0 0 1 0 0 1 0 0 0 1 0 0 0 1 1 0 1 0 1 0 1 0 1 0

>  <DIFUSE_FUNC_ATOM>  (885) 
n/a

>  <FINAL_SINGLE_POINT_ENERGY>  (885) 
0

>  <NONCOV_INTER_ENERGY_QM>  (885) 
0

>  <FF_Energy>  (885) 
-1.48

>  <QM_Energy>  (885) 
-7.11

>  <source>  (885) 
ETAM_MBZ

>  <Index>  (885) 
8804

$$$$
ETAM-pdb1n6b-A-LYS-247:MBZ-pdb1n6b-A-PHE-187
     RDKit          3D

 26 25  0  0  0  0  0  0  0  0999 V2000
    0.9092   -6.2255   -0.7501 C   0  0  0  0  0  0  0  0  0  0  0  0
    0.8818   -5.8638    0.1676 H   0  0  0  0  0  0  0  0  0  0  0  0
    1.7557   -6.6988   -0.9311 H   0  0  0  0  0  0  0  0  0  0  0  0
    0.0764   -6.9153   -0.8874 H   0  0  0  0  0  0  0  0  0  0  0  0
    0.7782   -5.0699   -1.7334 C   0  0  0  0  0  0  0  0  0  0  0  0
    0.7194   -5.4516   -2.6738 H   0  0  0  0  0  0  0  0  0  0  0  0
   -0.1008   -4.5906   -1.5540 H   0  0  0  0  0  0  0  0  0  0  0  0
    1.8861   -4.0790   -1.6834 N   0  0  0  0  0  4  0  0  0  0  0  0
    1.5158   -3.1599   -1.8146 H   0  0  0  0  0  0  0  0  0  0  0  0
    2.3400   -4.1334   -0.7945 H   0  0  0  0  0  0  0  0  0  0  0  0
    2.5445   -4.2805   -2.4080 H   0  0  0  0  0  0  0  0  0  0  0  0
   -0.0004    2.8849    0.0125 C   0  0  0  0  0  0  0  0  0  0  0  0
   -0.8915    3.1998   -0.2840 H   0  0  0  0  0  0  0  0  0  0  0  0
    0.7115    3.2036   -0.5982 H   0  0  0  0  0  0  0  0  0  0  0  0
    0.1913    3.3155    0.9953 H   0  0  0  0  0  0  0  0  0  0  0  0
    0.0006    1.3978   -0.0004 C   0  0  0  0  0  0  0  0  0  0  0  0
   -1.1971    0.6918   -0.0005 C   0  0  0  0  0  0  0  0  0  0  0  0
   -2.0622    1.1849   -0.0024 H   0  0  0  0  0  0  0  0  0  0  0  0
   -1.2045   -0.6963   -0.0000 C   0  0  0  0  0  0  0  0  0  0  0  0
   -2.0797   -1.1910    0.0014 H   0  0  0  0  0  0  0  0  0  0  0  0
   -0.0009   -1.3942    0.0011 C   0  0  0  0  0  0  0  0  0  0  0  0
   -0.0034   -2.3910    0.0020 H   0  0  0  0  0  0  0  0  0  0  0  0
    1.2045   -0.6946    0.0000 C   0  0  0  0  0  0  0  0  0  0  0  0
    2.0839   -1.1931    0.0007 H   0  0  0  0  0  0  0  0  0  0  0  0
    1.1974    0.6955   -0.0001 C   0  0  0  0  0  0  0  0  0  0  0  0
    2.0646    1.1932   -0.0004 H   0  0  0  0  0  0  0  0  0  0  0  0
  1  5  1  0
  5  8  1  0
  1  2  1  0
  1  3  1  0
  1  4  1  0
  5  6  1  0
  5  7  1  0
  8  9  1  0
  8 10  1  0
  8 11  1  0
 12 16  1  0
 16 17  2  0
 17 19  1  0
 19 21  2  0
 21 23  1  0
 23 25  2  0
 25 16  1  0
 12 13  1  0
 12 14  1  0
 12 15  1  0
 17 18  1  0
 19 20  1  0
 21 22  1  0
 23 24  1  0
 25 26  1  0
M  CHG  1   8   1
M  END
>  <PDB_ID>  (886) 
pdb1n6b

>  <RESIDUE_NAME>  (886) 
LYS   PHE

>  <FRAG_NAME>  (886) 
ETAM   MBZ

>  <FRAG_ATOM_NUM>  (886) 
fragi: 11  fragj: 15

>  <atom.prop.CHAIN_ID>  (886) 
A A A A A A A A A A A Z Z Z Z Z Z Z Z Z Z Z Z Z Z Z

>  <atom.prop.IS_HEAVY_ATOM>  (886) 
1 0 0 0 1 0 0 1 0 0 0 1 0 0 0 1 1 0 1 0 1 0 1 0 1 0

>  <DIFUSE_FUNC_ATOM>  (886) 
n/a

>  <FINAL_SINGLE_POINT_ENERGY>  (886) 
0

>  <NONCOV_INTER_ENERGY_QM>  (886) 
0

>  <FF_Energy>  (886) 
-0.21

>  <QM_Energy>  (886) 
-5.76

>  <source>  (886) 
ETAM_MBZ

>  <Index>  (886) 
8806

$$$$
ETAM-pdb2qtf-A-LYS-217:MBZ-pdb2qtf-A-PHE-196
     RDKit          3D

 26 25  0  0  0  0  0  0  0  0999 V2000
    2.7380   -1.4895   -2.9883 C   0  0  0  0  0  0  0  0  0  0  0  0
    2.2974   -1.5746   -2.0995 H   0  0  0  0  0  0  0  0  0  0  0  0
    3.7203   -1.6247   -2.8996 H   0  0  0  0  0  0  0  0  0  0  0  0
    2.3713   -2.3235   -3.5866 H   0  0  0  0  0  0  0  0  0  0  0  0
    2.4600   -0.0716   -3.5717 C   0  0  0  0  0  0  0  0  0  0  0  0
    2.8456    0.0154   -4.4767 H   0  0  0  0  0  0  0  0  0  0  0  0
    1.4911    0.1226   -3.5725 H   0  0  0  0  0  0  0  0  0  0  0  0
    3.1514    1.1448   -2.6796 N   0  0  0  0  0  4  0  0  0  0  0  0
    2.5978    1.2086   -1.8805 H   0  0  0  0  0  0  0  0  0  0  0  0
    4.0601    0.8368   -2.5068 H   0  0  0  0  0  0  0  0  0  0  0  0
    3.1037    1.9294   -3.2551 H   0  0  0  0  0  0  0  0  0  0  0  0
   -0.0347    2.9136   -0.0495 C   0  0  0  0  0  0  0  0  0  0  0  0
   -0.8404    3.1794   -0.5484 H   0  0  0  0  0  0  0  0  0  0  0  0
    0.7907    3.2264   -0.4839 H   0  0  0  0  0  0  0  0  0  0  0  0
   -0.0866    3.3731    0.9376 H   0  0  0  0  0  0  0  0  0  0  0  0
    0.0061    1.4101    0.0060 C   0  0  0  0  0  0  0  0  0  0  0  0
   -1.1650    0.7076   -0.0179 C   0  0  0  0  0  0  0  0  0  0  0  0
   -2.0462    1.1988   -0.0507 H   0  0  0  0  0  0  0  0  0  0  0  0
   -1.1970   -0.6873   -0.0000 C   0  0  0  0  0  0  0  0  0  0  0  0
   -2.1167   -1.1347   -0.0161 H   0  0  0  0  0  0  0  0  0  0  0  0
   -0.0797   -1.3806    0.0380 C   0  0  0  0  0  0  0  0  0  0  0  0
   -0.0801   -2.3977    0.0951 H   0  0  0  0  0  0  0  0  0  0  0  0
    1.1970   -0.7464   -0.0000 C   0  0  0  0  0  0  0  0  0  0  0  0
    2.0332   -1.2650   -0.0072 H   0  0  0  0  0  0  0  0  0  0  0  0
    1.2386    0.6967   -0.0262 C   0  0  0  0  0  0  0  0  0  0  0  0
    2.0880    1.1592   -0.0652 H   0  0  0  0  0  0  0  0  0  0  0  0
  1  5  1  0
  5  8  1  0
  1  2  1  0
  1  3  1  0
  1  4  1  0
  5  6  1  0
  5  7  1  0
  8  9  1  0
  8 10  1  0
  8 11  1  0
 12 16  1  0
 16 17  2  0
 17 19  1  0
 19 21  2  0
 21 23  1  0
 23 25  2  0
 25 16  1  0
 12 13  1  0
 12 14  1  0
 12 15  1  0
 17 18  1  0
 19 20  1  0
 21 22  1  0
 23 24  1  0
 25 26  1  0
M  CHG  1   8   1
M  END
>  <PDB_ID>  (887) 
pdb2qtf

>  <RESIDUE_NAME>  (887) 
LYS   PHE

>  <FRAG_NAME>  (887) 
ETAM   MBZ

>  <FRAG_ATOM_NUM>  (887) 
fragi: 11  fragj: 15

>  <atom.prop.CHAIN_ID>  (887) 
A A A A A A A A A A A Z Z Z Z Z Z Z Z Z Z Z Z Z Z Z

>  <atom.prop.IS_HEAVY_ATOM>  (887) 
1 0 0 0 1 0 0 1 0 0 0 1 0 0 0 1 1 0 1 0 1 0 1 0 1 0

>  <DIFUSE_FUNC_ATOM>  (887) 
n/a

>  <FINAL_SINGLE_POINT_ENERGY>  (887) 
0

>  <NONCOV_INTER_ENERGY_QM>  (887) 
0

>  <FF_Energy>  (887) 
-1.93

>  <QM_Energy>  (887) 
-7.77

>  <source>  (887) 
ETAM_MBZ

>  <Index>  (887) 
8810

$$$$
ETAM-pdb2qts-B-LYS-43:MBZ-pdb2qts-A-PHE-453
     RDKit          3D

 26 25  0  0  0  0  0  0  0  0999 V2000
   -3.2209   -3.4996    1.6393 C   0  0  0  0  0  0  0  0  0  0  0  0
   -3.4968   -4.3039    2.1571 H   0  0  0  0  0  0  0  0  0  0  0  0
   -2.3806   -3.1197    2.0143 H   0  0  0  0  0  0  0  0  0  0  0  0
   -3.0458   -3.7903    0.6035 H   0  0  0  0  0  0  0  0  0  0  0  0
   -4.3180   -2.4522    1.7492 C   0  0  0  0  0  0  0  0  0  0  0  0
   -5.1654   -2.8268    1.3606 H   0  0  0  0  0  0  0  0  0  0  0  0
   -4.4744   -2.2446    2.7199 H   0  0  0  0  0  0  0  0  0  0  0  0
   -3.9678   -1.1945    1.0328 N   0  0  0  0  0  4  0  0  0  0  0  0
   -4.4830   -0.4343    1.4276 H   0  0  0  0  0  0  0  0  0  0  0  0
   -2.9878   -1.0210    1.1286 H   0  0  0  0  0  0  0  0  0  0  0  0
   -4.1981   -1.2892    0.0648 H   0  0  0  0  0  0  0  0  0  0  0  0
    0.0025    2.9085    0.0035 C   0  0  0  0  0  0  0  0  0  0  0  0
   -0.4427    3.2169   -0.8232 H   0  0  0  0  0  0  0  0  0  0  0  0
    0.9412    3.2134    0.0429 H   0  0  0  0  0  0  0  0  0  0  0  0
   -0.5261    3.3461    0.8504 H   0  0  0  0  0  0  0  0  0  0  0  0
    0.0008    1.4043    0.0002 C   0  0  0  0  0  0  0  0  0  0  0  0
   -1.1984    0.6965   -0.0007 C   0  0  0  0  0  0  0  0  0  0  0  0
   -2.0638    1.1862   -0.0026 H   0  0  0  0  0  0  0  0  0  0  0  0
   -1.2037   -0.6985    0.0000 C   0  0  0  0  0  0  0  0  0  0  0  0
   -2.0796   -1.1901    0.0022 H   0  0  0  0  0  0  0  0  0  0  0  0
   -0.0002   -1.3974   -0.0002 C   0  0  0  0  0  0  0  0  0  0  0  0
   -0.0048   -2.3947   -0.0015 H   0  0  0  0  0  0  0  0  0  0  0  0
    1.2037   -0.6999   -0.0000 C   0  0  0  0  0  0  0  0  0  0  0  0
    2.0836   -1.1963    0.0013 H   0  0  0  0  0  0  0  0  0  0  0  0
    1.1979    0.6951    0.0007 C   0  0  0  0  0  0  0  0  0  0  0  0
    2.0662    1.1897    0.0011 H   0  0  0  0  0  0  0  0  0  0  0  0
  1  5  1  0
  5  8  1  0
  1  2  1  0
  1  3  1  0
  1  4  1  0
  5  6  1  0
  5  7  1  0
  8  9  1  0
  8 10  1  0
  8 11  1  0
 12 16  1  0
 16 17  2  0
 17 19  1  0
 19 21  2  0
 21 23  1  0
 23 25  2  0
 25 16  1  0
 12 13  1  0
 12 14  1  0
 12 15  1  0
 17 18  1  0
 19 20  1  0
 21 22  1  0
 23 24  1  0
 25 26  1  0
M  CHG  1   8   1
M  END
>  <PDB_ID>  (888) 
pdb2qts

>  <RESIDUE_NAME>  (888) 
LYS   PHE

>  <FRAG_NAME>  (888) 
ETAM   MBZ

>  <FRAG_ATOM_NUM>  (888) 
fragi: 11  fragj: 15

>  <atom.prop.CHAIN_ID>  (888) 
A A A A A A A A A A A Z Z Z Z Z Z Z Z Z Z Z Z Z Z Z

>  <atom.prop.IS_HEAVY_ATOM>  (888) 
1 0 0 0 1 0 0 1 0 0 0 1 0 0 0 1 1 0 1 0 1 0 1 0 1 0

>  <DIFUSE_FUNC_ATOM>  (888) 
n/a

>  <FINAL_SINGLE_POINT_ENERGY>  (888) 
0

>  <NONCOV_INTER_ENERGY_QM>  (888) 
0

>  <FF_Energy>  (888) 
9.95

>  <QM_Energy>  (888) 
-0.63

>  <source>  (888) 
ETAM_MBZ

>  <Index>  (888) 
8816

$$$$
ETAM-pdb2qts-C-LYS-379:MBZ-pdb2qts-C-PHE-270
     RDKit          3D

 26 25  0  0  0  0  0  0  0  0999 V2000
   -1.8520   -0.6663   -3.7963 C   0  0  0  0  0  0  0  0  0  0  0  0
   -1.6084    0.0929   -3.2027 H   0  0  0  0  0  0  0  0  0  0  0  0
   -2.1701   -1.4395   -3.2587 H   0  0  0  0  0  0  0  0  0  0  0  0
   -2.6529   -0.3475   -4.4633 H   0  0  0  0  0  0  0  0  0  0  0  0
   -0.6114   -1.0925   -4.5737 C   0  0  0  0  0  0  0  0  0  0  0  0
   -0.7833   -1.9858   -4.9910 H   0  0  0  0  0  0  0  0  0  0  0  0
   -0.4344   -0.4196   -5.2938 H   0  0  0  0  0  0  0  0  0  0  0  0
    0.5757   -1.1850   -3.6842 N   0  0  0  0  0  4  0  0  0  0  0  0
    0.5294   -2.0323   -3.1542 H   0  0  0  0  0  0  0  0  0  0  0  0
    1.4077   -1.1835   -4.2383 H   0  0  0  0  0  0  0  0  0  0  0  0
    0.5876   -0.4023   -3.0622 H   0  0  0  0  0  0  0  0  0  0  0  0
    0.0026    2.9009    0.0263 C   0  0  0  0  0  0  0  0  0  0  0  0
    0.8425    3.1997    0.4600 H   0  0  0  0  0  0  0  0  0  0  0  0
   -0.7878    3.2021    0.5437 H   0  0  0  0  0  0  0  0  0  0  0  0
   -0.0477    3.3695   -0.9564 H   0  0  0  0  0  0  0  0  0  0  0  0
   -0.0007    1.4027    0.0005 C   0  0  0  0  0  0  0  0  0  0  0  0
   -1.1996    0.6960   -0.0010 C   0  0  0  0  0  0  0  0  0  0  0  0
   -2.0649    1.1849   -0.0040 H   0  0  0  0  0  0  0  0  0  0  0  0
   -1.2054   -0.6998    0.0000 C   0  0  0  0  0  0  0  0  0  0  0  0
   -2.0783   -1.1940    0.0007 H   0  0  0  0  0  0  0  0  0  0  0  0
    0.0042   -1.3993    0.0017 C   0  0  0  0  0  0  0  0  0  0  0  0
    0.0007   -2.3940    0.0036 H   0  0  0  0  0  0  0  0  0  0  0  0
    1.2054   -0.6957   -0.0000 C   0  0  0  0  0  0  0  0  0  0  0  0
    2.0883   -1.1909    0.0011 H   0  0  0  0  0  0  0  0  0  0  0  0
    1.1962    0.6961   -0.0013 C   0  0  0  0  0  0  0  0  0  0  0  0
    2.0645    1.1942   -0.0040 H   0  0  0  0  0  0  0  0  0  0  0  0
  1  5  1  0
  5  8  1  0
  1  2  1  0
  1  3  1  0
  1  4  1  0
  5  6  1  0
  5  7  1  0
  8  9  1  0
  8 10  1  0
  8 11  1  0
 12 16  1  0
 16 17  2  0
 17 19  1  0
 19 21  2  0
 21 23  1  0
 23 25  2  0
 25 16  1  0
 12 13  1  0
 12 14  1  0
 12 15  1  0
 17 18  1  0
 19 20  1  0
 21 22  1  0
 23 24  1  0
 25 26  1  0
M  CHG  1   8   1
M  END
>  <PDB_ID>  (889) 
pdb2qts

>  <RESIDUE_NAME>  (889) 
LYS   PHE

>  <FRAG_NAME>  (889) 
ETAM   MBZ

>  <FRAG_ATOM_NUM>  (889) 
fragi: 11  fragj: 15

>  <atom.prop.CHAIN_ID>  (889) 
A A A A A A A A A A A Z Z Z Z Z Z Z Z Z Z Z Z Z Z Z

>  <atom.prop.IS_HEAVY_ATOM>  (889) 
1 0 0 0 1 0 0 1 0 0 0 1 0 0 0 1 1 0 1 0 1 0 1 0 1 0

>  <DIFUSE_FUNC_ATOM>  (889) 
n/a

>  <FINAL_SINGLE_POINT_ENERGY>  (889) 
0

>  <NONCOV_INTER_ENERGY_QM>  (889) 
0

>  <FF_Energy>  (889) 
-6.39

>  <QM_Energy>  (889) 
-11.76

>  <source>  (889) 
ETAM_MBZ

>  <Index>  (889) 
8822

$$$$
ETAM-pdb1n4m-A-LYS-729:MBZ-pdb1n4m-A-PHE-739
     RDKit          3D

 26 25  0  0  0  0  0  0  0  0999 V2000
    2.5831   -5.1357   -2.5711 C   0  0  0  0  0  0  0  0  0  0  0  0
    2.0060   -4.7268   -3.2715 H   0  0  0  0  0  0  0  0  0  0  0  0
    3.0418   -5.9429   -2.9276 H   0  0  0  0  0  0  0  0  0  0  0  0
    3.3351   -4.4078   -2.2663 H   0  0  0  0  0  0  0  0  0  0  0  0
    1.7178   -5.5419   -1.4044 C   0  0  0  0  0  0  0  0  0  0  0  0
    1.0993   -6.2631   -1.6871 H   0  0  0  0  0  0  0  0  0  0  0  0
    2.2937   -5.8445   -0.6552 H   0  0  0  0  0  0  0  0  0  0  0  0
    0.9259   -4.3593   -0.9665 N   0  0  0  0  0  4  0  0  0  0  0  0
    0.0999   -4.6701   -0.4953 H   0  0  0  0  0  0  0  0  0  0  0  0
    1.4769   -3.8025   -0.3454 H   0  0  0  0  0  0  0  0  0  0  0  0
    0.6706   -3.8165   -1.7660 H   0  0  0  0  0  0  0  0  0  0  0  0
    0.0012    2.8870    0.0180 C   0  0  0  0  0  0  0  0  0  0  0  0
   -0.6743    3.2069   -0.6315 H   0  0  0  0  0  0  0  0  0  0  0  0
    0.9076    3.2008   -0.2300 H   0  0  0  0  0  0  0  0  0  0  0  0
   -0.2432    3.3188    0.9885 H   0  0  0  0  0  0  0  0  0  0  0  0
   -0.0001    1.3963    0.0002 C   0  0  0  0  0  0  0  0  0  0  0  0
   -1.1998    0.6858   -0.0002 C   0  0  0  0  0  0  0  0  0  0  0  0
   -2.0644    1.1801   -0.0015 H   0  0  0  0  0  0  0  0  0  0  0  0
   -1.2005   -0.6955   -0.0000 C   0  0  0  0  0  0  0  0  0  0  0  0
   -2.0740   -1.1965    0.0023 H   0  0  0  0  0  0  0  0  0  0  0  0
    0.0033   -1.3864   -0.0005 C   0  0  0  0  0  0  0  0  0  0  0  0
   -0.0000   -2.3881   -0.0019 H   0  0  0  0  0  0  0  0  0  0  0  0
    1.2005   -0.6926    0.0000 C   0  0  0  0  0  0  0  0  0  0  0  0
    2.0831   -1.1918    0.0016 H   0  0  0  0  0  0  0  0  0  0  0  0
    1.1966    0.6924    0.0004 C   0  0  0  0  0  0  0  0  0  0  0  0
    2.0635    1.1909   -0.0002 H   0  0  0  0  0  0  0  0  0  0  0  0
  1  5  1  0
  5  8  1  0
  1  2  1  0
  1  3  1  0
  1  4  1  0
  5  6  1  0
  5  7  1  0
  8  9  1  0
  8 10  1  0
  8 11  1  0
 12 16  1  0
 16 17  2  0
 17 19  1  0
 19 21  2  0
 21 23  1  0
 23 25  2  0
 25 16  1  0
 12 13  1  0
 12 14  1  0
 12 15  1  0
 17 18  1  0
 19 20  1  0
 21 22  1  0
 23 24  1  0
 25 26  1  0
M  CHG  1   8   1
M  END
>  <PDB_ID>  (890) 
pdb1n4m

>  <RESIDUE_NAME>  (890) 
LYS   PHE

>  <FRAG_NAME>  (890) 
ETAM   MBZ

>  <FRAG_ATOM_NUM>  (890) 
fragi: 11  fragj: 15

>  <atom.prop.CHAIN_ID>  (890) 
A A A A A A A A A A A Z Z Z Z Z Z Z Z Z Z Z Z Z Z Z

>  <atom.prop.IS_HEAVY_ATOM>  (890) 
1 0 0 0 1 0 0 1 0 0 0 1 0 0 0 1 1 0 1 0 1 0 1 0 1 0

>  <DIFUSE_FUNC_ATOM>  (890) 
n/a

>  <FINAL_SINGLE_POINT_ENERGY>  (890) 
0

>  <NONCOV_INTER_ENERGY_QM>  (890) 
0

>  <FF_Energy>  (890) 
3.39

>  <QM_Energy>  (890) 
-3.61

>  <source>  (890) 
ETAM_MBZ

>  <Index>  (890) 
8831

$$$$
ETAM-pdb1nb2-A-LYS-37:MBZ-pdb1nb2-A-PHE-132
     RDKit          3D

 26 25  0  0  0  0  0  0  0  0999 V2000
    3.0315   -1.2700    3.4692 C   0  0  0  0  0  0  0  0  0  0  0  0
    3.9921   -1.1682    3.7090 H   0  0  0  0  0  0  0  0  0  0  0  0
    2.9262   -1.9536    2.7543 H   0  0  0  0  0  0  0  0  0  0  0  0
    2.4857   -1.6014    4.3525 H   0  0  0  0  0  0  0  0  0  0  0  0
    2.5072    0.0457    2.9719 C   0  0  0  0  0  0  0  0  0  0  0  0
    2.7594    0.7690    3.6187 H   0  0  0  0  0  0  0  0  0  0  0  0
    2.9163    0.2500    2.0791 H   0  0  0  0  0  0  0  0  0  0  0  0
    1.0361    0.0084    2.8342 N   0  0  0  0  0  4  0  0  0  0  0  0
    0.6100    0.3071    3.6901 H   0  0  0  0  0  0  0  0  0  0  0  0
    0.7522    0.6181    2.0921 H   0  0  0  0  0  0  0  0  0  0  0  0
    0.7413   -0.9259    2.6261 H   0  0  0  0  0  0  0  0  0  0  0  0
    0.0071    2.8965    0.0491 C   0  0  0  0  0  0  0  0  0  0  0  0
   -0.6146    3.2306   -0.6428 H   0  0  0  0  0  0  0  0  0  0  0  0
    0.9314    3.2054   -0.1175 H   0  0  0  0  0  0  0  0  0  0  0  0
   -0.3117    3.3079    1.0069 H   0  0  0  0  0  0  0  0  0  0  0  0
   -0.0009    1.3985    0.0010 C   0  0  0  0  0  0  0  0  0  0  0  0
   -1.1956    0.6930   -0.0021 C   0  0  0  0  0  0  0  0  0  0  0  0
   -2.0616    1.1841   -0.0072 H   0  0  0  0  0  0  0  0  0  0  0  0
   -1.1980   -0.6915   -0.0000 C   0  0  0  0  0  0  0  0  0  0  0  0
   -2.0747   -1.1887    0.0015 H   0  0  0  0  0  0  0  0  0  0  0  0
    0.0031   -1.3887    0.0024 C   0  0  0  0  0  0  0  0  0  0  0  0
   -0.0071   -2.3900    0.0062 H   0  0  0  0  0  0  0  0  0  0  0  0
    1.1980   -0.7003    0.0000 C   0  0  0  0  0  0  0  0  0  0  0  0
    2.0813   -1.1968    0.0001 H   0  0  0  0  0  0  0  0  0  0  0  0
    1.1935    0.6890   -0.0013 C   0  0  0  0  0  0  0  0  0  0  0  0
    2.0627    1.1856   -0.0052 H   0  0  0  0  0  0  0  0  0  0  0  0
  1  5  1  0
  5  8  1  0
  1  2  1  0
  1  3  1  0
  1  4  1  0
  5  6  1  0
  5  7  1  0
  8  9  1  0
  8 10  1  0
  8 11  1  0
 12 16  1  0
 16 17  2  0
 17 19  1  0
 19 21  2  0
 21 23  1  0
 23 25  2  0
 25 16  1  0
 12 13  1  0
 12 14  1  0
 12 15  1  0
 17 18  1  0
 19 20  1  0
 21 22  1  0
 23 24  1  0
 25 26  1  0
M  CHG  1   8   1
M  END
>  <PDB_ID>  (891) 
pdb1nb2

>  <RESIDUE_NAME>  (891) 
LYS   PHE

>  <FRAG_NAME>  (891) 
ETAM   MBZ

>  <FRAG_ATOM_NUM>  (891) 
fragi: 11  fragj: 15

>  <atom.prop.CHAIN_ID>  (891) 
A A A A A A A A A A A Z Z Z Z Z Z Z Z Z Z Z Z Z Z Z

>  <atom.prop.IS_HEAVY_ATOM>  (891) 
1 0 0 0 1 0 0 1 0 0 0 1 0 0 0 1 1 0 1 0 1 0 1 0 1 0

>  <DIFUSE_FUNC_ATOM>  (891) 
n/a

>  <FINAL_SINGLE_POINT_ENERGY>  (891) 
0

>  <NONCOV_INTER_ENERGY_QM>  (891) 
0

>  <FF_Energy>  (891) 
-5.68

>  <QM_Energy>  (891) 
-15.88

>  <source>  (891) 
ETAM_MBZ

>  <Index>  (891) 
8903

$$$$
ETAM-pdb2qya-C-LYS-68:MBZ-pdb2qya-D-PHE-42
     RDKit          3D

 26 25  0  0  0  0  0  0  0  0999 V2000
   -2.1357   -0.7095    3.6112 C   0  0  0  0  0  0  0  0  0  0  0  0
   -2.6118   -0.4740    2.7741 H   0  0  0  0  0  0  0  0  0  0  0  0
   -2.6014   -0.3332    4.4014 H   0  0  0  0  0  0  0  0  0  0  0  0
   -2.0885   -1.7945    3.7041 H   0  0  0  0  0  0  0  0  0  0  0  0
   -0.7291   -0.1081    3.5499 C   0  0  0  0  0  0  0  0  0  0  0  0
   -0.2634   -0.2980    4.4247 H   0  0  0  0  0  0  0  0  0  0  0  0
   -0.2154   -0.5727    2.8164 H   0  0  0  0  0  0  0  0  0  0  0  0
   -0.7311    1.3509    3.2999 N   0  0  0  0  0  4  0  0  0  0  0  0
   -0.5431    1.5259    2.3329 H   0  0  0  0  0  0  0  0  0  0  0  0
   -1.6253    1.7307    3.5376 H   0  0  0  0  0  0  0  0  0  0  0  0
   -0.0253    1.7879    3.8595 H   0  0  0  0  0  0  0  0  0  0  0  0
    0.0004    2.9245    0.0216 C   0  0  0  0  0  0  0  0  0  0  0  0
    0.7515    3.2189    0.5970 H   0  0  0  0  0  0  0  0  0  0  0  0
   -0.8691    3.2172    0.3961 H   0  0  0  0  0  0  0  0  0  0  0  0
    0.1202    3.4026   -0.9506 H   0  0  0  0  0  0  0  0  0  0  0  0
    0.0061    1.4127   -0.0095 C   0  0  0  0  0  0  0  0  0  0  0  0
   -1.1877    0.6993    0.0054 C   0  0  0  0  0  0  0  0  0  0  0  0
   -2.0587    1.1829    0.0191 H   0  0  0  0  0  0  0  0  0  0  0  0
   -1.1983   -0.7091   -0.0000 C   0  0  0  0  0  0  0  0  0  0  0  0
   -2.0850   -1.1853    0.0025 H   0  0  0  0  0  0  0  0  0  0  0  0
   -0.0143   -1.4053   -0.0064 C   0  0  0  0  0  0  0  0  0  0  0  0
   -0.0073   -2.4012   -0.0161 H   0  0  0  0  0  0  0  0  0  0  0  0
    1.1983   -0.7018   -0.0000 C   0  0  0  0  0  0  0  0  0  0  0  0
    2.0764   -1.1972   -0.0010 H   0  0  0  0  0  0  0  0  0  0  0  0
    1.1958    0.7043    0.0105 C   0  0  0  0  0  0  0  0  0  0  0  0
    2.0692    1.1896    0.0318 H   0  0  0  0  0  0  0  0  0  0  0  0
  1  5  1  0
  5  8  1  0
  1  2  1  0
  1  3  1  0
  1  4  1  0
  5  6  1  0
  5  7  1  0
  8  9  1  0
  8 10  1  0
  8 11  1  0
 12 16  1  0
 16 17  2  0
 17 19  1  0
 19 21  2  0
 21 23  1  0
 23 25  2  0
 25 16  1  0
 12 13  1  0
 12 14  1  0
 12 15  1  0
 17 18  1  0
 19 20  1  0
 21 22  1  0
 23 24  1  0
 25 26  1  0
M  CHG  1   8   1
M  END
>  <PDB_ID>  (892) 
pdb2qya

>  <RESIDUE_NAME>  (892) 
LYS   PHE

>  <FRAG_NAME>  (892) 
ETAM   MBZ

>  <FRAG_ATOM_NUM>  (892) 
fragi: 11  fragj: 15

>  <atom.prop.CHAIN_ID>  (892) 
A A A A A A A A A A A Z Z Z Z Z Z Z Z Z Z Z Z Z Z Z

>  <atom.prop.IS_HEAVY_ATOM>  (892) 
1 0 0 0 1 0 0 1 0 0 0 1 0 0 0 1 1 0 1 0 1 0 1 0 1 0

>  <DIFUSE_FUNC_ATOM>  (892) 
n/a

>  <FINAL_SINGLE_POINT_ENERGY>  (892) 
0

>  <NONCOV_INTER_ENERGY_QM>  (892) 
0

>  <FF_Energy>  (892) 
-8.38

>  <QM_Energy>  (892) 
-14.9

>  <source>  (892) 
ETAM_MBZ

>  <Index>  (892) 
8906

$$$$
ETAM-pdb2qya-B-LYS-68:MBZ-pdb2qya-A-PHE-42
     RDKit          3D

 26 25  0  0  0  0  0  0  0  0999 V2000
   -2.0095   -0.8802    3.5348 C   0  0  0  0  0  0  0  0  0  0  0  0
   -2.4443   -0.6690    2.6712 H   0  0  0  0  0  0  0  0  0  0  0  0
   -2.5680   -0.5867    4.2971 H   0  0  0  0  0  0  0  0  0  0  0  0
   -1.8579   -1.9576    3.6007 H   0  0  0  0  0  0  0  0  0  0  0  0
   -0.6770   -0.1599    3.5998 C   0  0  0  0  0  0  0  0  0  0  0  0
   -0.3117   -0.2355    4.5330 H   0  0  0  0  0  0  0  0  0  0  0  0
   -0.0350   -0.6038    2.9670 H   0  0  0  0  0  0  0  0  0  0  0  0
   -0.8048    1.2729    3.2398 N   0  0  0  0  0  4  0  0  0  0  0  0
   -1.6109    1.6596    3.6881 H   0  0  0  0  0  0  0  0  0  0  0  0
    0.0118    1.7673    3.5393 H   0  0  0  0  0  0  0  0  0  0  0  0
   -0.9015    1.3611    2.2482 H   0  0  0  0  0  0  0  0  0  0  0  0
    0.0009    2.8854   -0.0029 C   0  0  0  0  0  0  0  0  0  0  0  0
    0.8221    3.1981    0.4542 H   0  0  0  0  0  0  0  0  0  0  0  0
   -0.8108    3.1993    0.4700 H   0  0  0  0  0  0  0  0  0  0  0  0
   -0.0088    3.3197   -1.0026 H   0  0  0  0  0  0  0  0  0  0  0  0
   -0.0001    1.4012    0.0001 C   0  0  0  0  0  0  0  0  0  0  0  0
   -1.1971    0.6986   -0.0035 C   0  0  0  0  0  0  0  0  0  0  0  0
   -2.0625    1.1927   -0.0097 H   0  0  0  0  0  0  0  0  0  0  0  0
   -1.2047   -0.6878   -0.0000 C   0  0  0  0  0  0  0  0  0  0  0  0
   -2.0810   -1.1838    0.0034 H   0  0  0  0  0  0  0  0  0  0  0  0
    0.0007   -1.3992    0.0016 C   0  0  0  0  0  0  0  0  0  0  0  0
   -0.0133   -2.3938    0.0033 H   0  0  0  0  0  0  0  0  0  0  0  0
    1.2047   -0.7057    0.0000 C   0  0  0  0  0  0  0  0  0  0  0  0
    2.0843   -1.1989   -0.0014 H   0  0  0  0  0  0  0  0  0  0  0  0
    1.1965    0.6929    0.0018 C   0  0  0  0  0  0  0  0  0  0  0  0
    2.0655    1.1867    0.0041 H   0  0  0  0  0  0  0  0  0  0  0  0
  1  5  1  0
  5  8  1  0
  1  2  1  0
  1  3  1  0
  1  4  1  0
  5  6  1  0
  5  7  1  0
  8  9  1  0
  8 10  1  0
  8 11  1  0
 12 16  1  0
 16 17  2  0
 17 19  1  0
 19 21  2  0
 21 23  1  0
 23 25  2  0
 25 16  1  0
 12 13  1  0
 12 14  1  0
 12 15  1  0
 17 18  1  0
 19 20  1  0
 21 22  1  0
 23 24  1  0
 25 26  1  0
M  CHG  1   8   1
M  END
>  <PDB_ID>  (893) 
pdb2qya

>  <RESIDUE_NAME>  (893) 
LYS   PHE

>  <FRAG_NAME>  (893) 
ETAM   MBZ

>  <FRAG_ATOM_NUM>  (893) 
fragi: 11  fragj: 15

>  <atom.prop.CHAIN_ID>  (893) 
A A A A A A A A A A A Z Z Z Z Z Z Z Z Z Z Z Z Z Z Z

>  <atom.prop.IS_HEAVY_ATOM>  (893) 
1 0 0 0 1 0 0 1 0 0 0 1 0 0 0 1 1 0 1 0 1 0 1 0 1 0

>  <DIFUSE_FUNC_ATOM>  (893) 
n/a

>  <FINAL_SINGLE_POINT_ENERGY>  (893) 
0

>  <NONCOV_INTER_ENERGY_QM>  (893) 
0

>  <FF_Energy>  (893) 
-8.51

>  <QM_Energy>  (893) 
-15.11

>  <source>  (893) 
ETAM_MBZ

>  <Index>  (893) 
8918

$$$$
ETAM-pdb2qyu-A-LYS-176:MBZ-pdb2qyu-A-PHE-197
     RDKit          3D

 26 25  0  0  0  0  0  0  0  0999 V2000
    4.4980   -1.9031    2.6660 C   0  0  0  0  0  0  0  0  0  0  0  0
    4.5858   -2.4409    3.5081 H   0  0  0  0  0  0  0  0  0  0  0  0
    5.2497   -1.2428    2.6186 H   0  0  0  0  0  0  0  0  0  0  0  0
    4.5683   -2.5770    1.8122 H   0  0  0  0  0  0  0  0  0  0  0  0
    3.1928   -1.1466    2.7089 C   0  0  0  0  0  0  0  0  0  0  0  0
    2.4586   -1.7376    2.3700 H   0  0  0  0  0  0  0  0  0  0  0  0
    2.9943   -0.8850    3.6555 H   0  0  0  0  0  0  0  0  0  0  0  0
    3.2623    0.0751    1.8702 N   0  0  0  0  0  4  0  0  0  0  0  0
    2.8010   -0.0923    0.9979 H   0  0  0  0  0  0  0  0  0  0  0  0
    2.8124    0.8321    2.3454 H   0  0  0  0  0  0  0  0  0  0  0  0
    4.2202    0.3094    1.7006 H   0  0  0  0  0  0  0  0  0  0  0  0
   -0.0058    2.9113    0.0213 C   0  0  0  0  0  0  0  0  0  0  0  0
   -0.6587    3.2236   -0.6470 H   0  0  0  0  0  0  0  0  0  0  0  0
    0.9068    3.2226   -0.1814 H   0  0  0  0  0  0  0  0  0  0  0  0
   -0.2925    3.3266    0.9875 H   0  0  0  0  0  0  0  0  0  0  0  0
    0.0003    1.4029    0.0001 C   0  0  0  0  0  0  0  0  0  0  0  0
   -1.1973    0.6865   -0.0026 C   0  0  0  0  0  0  0  0  0  0  0  0
   -2.0644    1.1780   -0.0076 H   0  0  0  0  0  0  0  0  0  0  0  0
   -1.2023   -0.7029    0.0000 C   0  0  0  0  0  0  0  0  0  0  0  0
   -2.0767   -1.1974    0.0036 H   0  0  0  0  0  0  0  0  0  0  0  0
    0.0014   -1.3958   -0.0002 C   0  0  0  0  0  0  0  0  0  0  0  0
    0.0026   -2.3930   -0.0006 H   0  0  0  0  0  0  0  0  0  0  0  0
    1.2023   -0.6921   -0.0000 C   0  0  0  0  0  0  0  0  0  0  0  0
    2.0852   -1.1872   -0.0001 H   0  0  0  0  0  0  0  0  0  0  0  0
    1.1956    0.7013    0.0027 C   0  0  0  0  0  0  0  0  0  0  0  0
    2.0637    1.1972    0.0055 H   0  0  0  0  0  0  0  0  0  0  0  0
  1  5  1  0
  5  8  1  0
  1  2  1  0
  1  3  1  0
  1  4  1  0
  5  6  1  0
  5  7  1  0
  8  9  1  0
  8 10  1  0
  8 11  1  0
 12 16  1  0
 16 17  2  0
 17 19  1  0
 19 21  2  0
 21 23  1  0
 23 25  2  0
 25 16  1  0
 12 13  1  0
 12 14  1  0
 12 15  1  0
 17 18  1  0
 19 20  1  0
 21 22  1  0
 23 24  1  0
 25 26  1  0
M  CHG  1   8   1
M  END
>  <PDB_ID>  (894) 
pdb2qyu

>  <RESIDUE_NAME>  (894) 
LYS   PHE

>  <FRAG_NAME>  (894) 
ETAM   MBZ

>  <FRAG_ATOM_NUM>  (894) 
fragi: 11  fragj: 15

>  <atom.prop.CHAIN_ID>  (894) 
A A A A A A A A A A A Z Z Z Z Z Z Z Z Z Z Z Z Z Z Z

>  <atom.prop.IS_HEAVY_ATOM>  (894) 
1 0 0 0 1 0 0 1 0 0 0 1 0 0 0 1 1 0 1 0 1 0 1 0 1 0

>  <DIFUSE_FUNC_ATOM>  (894) 
n/a

>  <FINAL_SINGLE_POINT_ENERGY>  (894) 
0

>  <NONCOV_INTER_ENERGY_QM>  (894) 
0

>  <FF_Energy>  (894) 
4.97

>  <QM_Energy>  (894) 
-3.65

>  <source>  (894) 
ETAM_MBZ

>  <Index>  (894) 
8922

$$$$
ETAM-pdb2qyz-A-LYS-74:MBZ-pdb2qyz-A-PHE-105
     RDKit          3D

 26 25  0  0  0  0  0  0  0  0999 V2000
   -4.4558   -0.5478    2.3222 C   0  0  0  0  0  0  0  0  0  0  0  0
   -3.8667   -0.3752    1.5406 H   0  0  0  0  0  0  0  0  0  0  0  0
   -4.8458    0.3016    2.6594 H   0  0  0  0  0  0  0  0  0  0  0  0
   -5.2643   -1.2111    2.0146 H   0  0  0  0  0  0  0  0  0  0  0  0
   -3.5880   -1.1587    3.4519 C   0  0  0  0  0  0  0  0  0  0  0  0
   -3.9221   -0.8083    4.3419 H   0  0  0  0  0  0  0  0  0  0  0  0
   -3.7210   -2.1634    3.4542 H   0  0  0  0  0  0  0  0  0  0  0  0
   -2.0799   -0.8782    3.3668 N   0  0  0  0  0  4  0  0  0  0  0  0
   -1.6069   -1.5788    3.8858 H   0  0  0  0  0  0  0  0  0  0  0  0
   -1.8150   -0.9075    2.4118 H   0  0  0  0  0  0  0  0  0  0  0  0
   -1.9119    0.0206    3.7519 H   0  0  0  0  0  0  0  0  0  0  0  0
   -0.0100    2.9420   -0.0741 C   0  0  0  0  0  0  0  0  0  0  0  0
   -0.9581    3.2276   -0.1764 H   0  0  0  0  0  0  0  0  0  0  0  0
    0.5159    3.2006   -0.8792 H   0  0  0  0  0  0  0  0  0  0  0  0
    0.4093    3.4671    0.7841 H   0  0  0  0  0  0  0  0  0  0  0  0
    0.0023    1.4288    0.0112 C   0  0  0  0  0  0  0  0  0  0  0  0
   -1.2004    0.7145   -0.0032 C   0  0  0  0  0  0  0  0  0  0  0  0
   -2.0672    1.1954   -0.0167 H   0  0  0  0  0  0  0  0  0  0  0  0
   -1.2076   -0.7020    0.0000 C   0  0  0  0  0  0  0  0  0  0  0  0
   -2.0907   -1.1807   -0.0054 H   0  0  0  0  0  0  0  0  0  0  0  0
   -0.0094   -1.4160    0.0121 C   0  0  0  0  0  0  0  0  0  0  0  0
   -0.0219   -2.4108    0.0289 H   0  0  0  0  0  0  0  0  0  0  0  0
    1.2076   -0.7255    0.0000 C   0  0  0  0  0  0  0  0  0  0  0  0
    2.0827   -1.2139    0.0066 H   0  0  0  0  0  0  0  0  0  0  0  0
    1.2076    0.7001   -0.0201 C   0  0  0  0  0  0  0  0  0  0  0  0
    2.0760    1.1807   -0.0575 H   0  0  0  0  0  0  0  0  0  0  0  0
  1  5  1  0
  5  8  1  0
  1  2  1  0
  1  3  1  0
  1  4  1  0
  5  6  1  0
  5  7  1  0
  8  9  1  0
  8 10  1  0
  8 11  1  0
 12 16  1  0
 16 17  2  0
 17 19  1  0
 19 21  2  0
 21 23  1  0
 23 25  2  0
 25 16  1  0
 12 13  1  0
 12 14  1  0
 12 15  1  0
 17 18  1  0
 19 20  1  0
 21 22  1  0
 23 24  1  0
 25 26  1  0
M  CHG  1   8   1
M  END
>  <PDB_ID>  (895) 
pdb2qyz

>  <RESIDUE_NAME>  (895) 
LYS   PHE

>  <FRAG_NAME>  (895) 
ETAM   MBZ

>  <FRAG_ATOM_NUM>  (895) 
fragi: 11  fragj: 15

>  <atom.prop.CHAIN_ID>  (895) 
A A A A A A A A A A A Z Z Z Z Z Z Z Z Z Z Z Z Z Z Z

>  <atom.prop.IS_HEAVY_ATOM>  (895) 
1 0 0 0 1 0 0 1 0 0 0 1 0 0 0 1 1 0 1 0 1 0 1 0 1 0

>  <DIFUSE_FUNC_ATOM>  (895) 
n/a

>  <FINAL_SINGLE_POINT_ENERGY>  (895) 
0

>  <NONCOV_INTER_ENERGY_QM>  (895) 
0

>  <FF_Energy>  (895) 
-4.88

>  <QM_Energy>  (895) 
-11.47

>  <source>  (895) 
ETAM_MBZ

>  <Index>  (895) 
8934

$$$$
ETAM-pdb1ne2-A-LYS-107:MBZ-pdb1ne2-A-PHE-197
     RDKit          3D

 26 25  0  0  0  0  0  0  0  0999 V2000
   -1.4536   -3.3640    2.7130 C   0  0  0  0  0  0  0  0  0  0  0  0
   -1.0969   -2.4338    2.6989 H   0  0  0  0  0  0  0  0  0  0  0  0
   -0.7133   -4.0126    2.8689 H   0  0  0  0  0  0  0  0  0  0  0  0
   -2.1810   -3.4527    3.5200 H   0  0  0  0  0  0  0  0  0  0  0  0
   -2.0748   -3.6617    1.3524 C   0  0  0  0  0  0  0  0  0  0  0  0
   -2.8852   -3.0723    1.2311 H   0  0  0  0  0  0  0  0  0  0  0  0
   -1.4073   -3.4246    0.6336 H   0  0  0  0  0  0  0  0  0  0  0  0
   -2.4805   -5.0854    1.1883 N   0  0  0  0  0  4  0  0  0  0  0  0
   -1.7426   -5.6789    1.5066 H   0  0  0  0  0  0  0  0  0  0  0  0
   -3.3052   -5.2591    1.7256 H   0  0  0  0  0  0  0  0  0  0  0  0
   -2.6646   -5.2682    0.2231 H   0  0  0  0  0  0  0  0  0  0  0  0
    0.0015    2.9035   -0.0033 C   0  0  0  0  0  0  0  0  0  0  0  0
    0.9408    3.2104   -0.0427 H   0  0  0  0  0  0  0  0  0  0  0  0
   -0.4432    3.2136    0.8240 H   0  0  0  0  0  0  0  0  0  0  0  0
   -0.5269    3.3437   -0.8490 H   0  0  0  0  0  0  0  0  0  0  0  0
   -0.0003    1.4029   -0.0005 C   0  0  0  0  0  0  0  0  0  0  0  0
   -1.1988    0.6945    0.0006 C   0  0  0  0  0  0  0  0  0  0  0  0
   -2.0645    1.1848    0.0009 H   0  0  0  0  0  0  0  0  0  0  0  0
   -1.2041   -0.6982   -0.0000 C   0  0  0  0  0  0  0  0  0  0  0  0
   -2.0784   -1.1919    0.0008 H   0  0  0  0  0  0  0  0  0  0  0  0
    0.0012   -1.3959    0.0002 C   0  0  0  0  0  0  0  0  0  0  0  0
   -0.0029   -2.3935   -0.0004 H   0  0  0  0  0  0  0  0  0  0  0  0
    1.2041   -0.6983   -0.0000 C   0  0  0  0  0  0  0  0  0  0  0  0
    2.0850   -1.1951    0.0015 H   0  0  0  0  0  0  0  0  0  0  0  0
    1.1979    0.6949   -0.0003 C   0  0  0  0  0  0  0  0  0  0  0  0
    2.0657    1.1911   -0.0007 H   0  0  0  0  0  0  0  0  0  0  0  0
  1  5  1  0
  5  8  1  0
  1  2  1  0
  1  3  1  0
  1  4  1  0
  5  6  1  0
  5  7  1  0
  8  9  1  0
  8 10  1  0
  8 11  1  0
 12 16  1  0
 16 17  2  0
 17 19  1  0
 19 21  2  0
 21 23  1  0
 23 25  2  0
 25 16  1  0
 12 13  1  0
 12 14  1  0
 12 15  1  0
 17 18  1  0
 19 20  1  0
 21 22  1  0
 23 24  1  0
 25 26  1  0
M  CHG  1   8   1
M  END
>  <PDB_ID>  (896) 
pdb1ne2

>  <RESIDUE_NAME>  (896) 
LYS   PHE

>  <FRAG_NAME>  (896) 
ETAM   MBZ

>  <FRAG_ATOM_NUM>  (896) 
fragi: 11  fragj: 15

>  <atom.prop.CHAIN_ID>  (896) 
A A A A A A A A A A A Z Z Z Z Z Z Z Z Z Z Z Z Z Z Z

>  <atom.prop.IS_HEAVY_ATOM>  (896) 
1 0 0 0 1 0 0 1 0 0 0 1 0 0 0 1 1 0 1 0 1 0 1 0 1 0

>  <DIFUSE_FUNC_ATOM>  (896) 
n/a

>  <FINAL_SINGLE_POINT_ENERGY>  (896) 
0

>  <NONCOV_INTER_ENERGY_QM>  (896) 
0

>  <FF_Energy>  (896) 
3.56

>  <QM_Energy>  (896) 
-2.96

>  <source>  (896) 
ETAM_MBZ

>  <Index>  (896) 
8954

$$$$
ETAM-pdb2qyf-C-LYS-48:MBZ-pdb2qyf-C-PHE-26
     RDKit          3D

 26 25  0  0  0  0  0  0  0  0999 V2000
    1.6746   -2.3026    3.8173 C   0  0  0  0  0  0  0  0  0  0  0  0
    2.6038   -2.0347    4.0616 H   0  0  0  0  0  0  0  0  0  0  0  0
    1.3168   -2.9434    4.4921 H   0  0  0  0  0  0  0  0  0  0  0  0
    1.0438   -1.4138    3.8057 H   0  0  0  0  0  0  0  0  0  0  0  0
    1.7255   -3.0211    2.4531 C   0  0  0  0  0  0  0  0  0  0  0  0
    0.8892   -3.5636    2.3420 H   0  0  0  0  0  0  0  0  0  0  0  0
    1.7651   -2.3313    1.7255 H   0  0  0  0  0  0  0  0  0  0  0  0
    2.9256   -3.9456    2.3107 N   0  0  0  0  0  4  0  0  0  0  0  0
    2.8985   -4.3588    1.4068 H   0  0  0  0  0  0  0  0  0  0  0  0
    3.7539   -3.4063    2.4223 H   0  0  0  0  0  0  0  0  0  0  0  0
    2.8689   -4.6452    3.0145 H   0  0  0  0  0  0  0  0  0  0  0  0
   -0.0005    2.9208    0.0182 C   0  0  0  0  0  0  0  0  0  0  0  0
    0.8695    3.2216    0.3700 H   0  0  0  0  0  0  0  0  0  0  0  0
   -0.7496    3.2208    0.5836 H   0  0  0  0  0  0  0  0  0  0  0  0
   -0.1313    3.3614   -0.9701 H   0  0  0  0  0  0  0  0  0  0  0  0
   -0.0014    1.4109    0.0054 C   0  0  0  0  0  0  0  0  0  0  0  0
   -1.1880    0.7104    0.0145 C   0  0  0  0  0  0  0  0  0  0  0  0
   -2.0619    1.1907    0.0304 H   0  0  0  0  0  0  0  0  0  0  0  0
   -1.2039   -0.7035    0.0000 C   0  0  0  0  0  0  0  0  0  0  0  0
   -2.0852   -1.1796    0.0077 H   0  0  0  0  0  0  0  0  0  0  0  0
   -0.0060   -1.4081   -0.0228 C   0  0  0  0  0  0  0  0  0  0  0  0
   -0.0085   -2.4011   -0.0558 H   0  0  0  0  0  0  0  0  0  0  0  0
    1.2039   -0.7063   -0.0000 C   0  0  0  0  0  0  0  0  0  0  0  0
    2.0819   -1.2001    0.0157 H   0  0  0  0  0  0  0  0  0  0  0  0
    1.1954    0.6966    0.0029 C   0  0  0  0  0  0  0  0  0  0  0  0
    2.0660    1.1891    0.0018 H   0  0  0  0  0  0  0  0  0  0  0  0
  1  5  1  0
  5  8  1  0
  1  2  1  0
  1  3  1  0
  1  4  1  0
  5  6  1  0
  5  7  1  0
  8  9  1  0
  8 10  1  0
  8 11  1  0
 12 16  1  0
 16 17  2  0
 17 19  1  0
 19 21  2  0
 21 23  1  0
 23 25  2  0
 25 16  1  0
 12 13  1  0
 12 14  1  0
 12 15  1  0
 17 18  1  0
 19 20  1  0
 21 22  1  0
 23 24  1  0
 25 26  1  0
M  CHG  1   8   1
M  END
>  <PDB_ID>  (897) 
pdb2qyf

>  <RESIDUE_NAME>  (897) 
LYS   PHE

>  <FRAG_NAME>  (897) 
ETAM   MBZ

>  <FRAG_ATOM_NUM>  (897) 
fragi: 11  fragj: 15

>  <atom.prop.CHAIN_ID>  (897) 
A A A A A A A A A A A Z Z Z Z Z Z Z Z Z Z Z Z Z Z Z

>  <atom.prop.IS_HEAVY_ATOM>  (897) 
1 0 0 0 1 0 0 1 0 0 0 1 0 0 0 1 1 0 1 0 1 0 1 0 1 0

>  <DIFUSE_FUNC_ATOM>  (897) 
n/a

>  <FINAL_SINGLE_POINT_ENERGY>  (897) 
0

>  <NONCOV_INTER_ENERGY_QM>  (897) 
0

>  <FF_Energy>  (897) 
1.31

>  <QM_Energy>  (897) 
-4.0

>  <source>  (897) 
ETAM_MBZ

>  <Index>  (897) 
8957

$$$$
ETAM-pdb1neu-A-ILE-1:MBZ-pdb1neu-A-PHE-23
     RDKit          3D

 26 25  0  0  0  0  0  0  0  0999 V2000
    2.9049   -3.0422   -4.7270 C   0  0  0  0  0  0  0  0  0  0  0  0
    2.8415   -4.0357   -4.6351 H   0  0  0  0  0  0  0  0  0  0  0  0
    3.5325   -2.8227   -5.5908 H   0  0  0  0  0  0  0  0  0  0  0  0
    1.9284   -2.5948   -4.9119 H   0  0  0  0  0  0  0  0  0  0  0  0
    3.5085   -2.4849   -3.4279 C   0  0  0  0  0  0  0  0  0  0  0  0
    4.1907   -3.1265   -3.0548 H   0  0  0  0  0  0  0  0  0  0  0  0
    4.0320   -1.5503   -3.6293 H   0  0  0  0  0  0  0  0  0  0  0  0
    2.4672   -2.3483   -2.3732 N   0  0  0  0  0  4  0  0  0  0  0  0
    2.0704   -3.2433   -2.1864 H   0  0  0  0  0  0  0  0  0  0  0  0
    2.8860   -1.9855   -1.5441 H   0  0  0  0  0  0  0  0  0  0  0  0
    1.7565   -1.7250   -2.6923 H   0  0  0  0  0  0  0  0  0  0  0  0
   -0.0026    2.8955    0.0639 C   0  0  0  0  0  0  0  0  0  0  0  0
    0.8969    3.1933    0.3634 H   0  0  0  0  0  0  0  0  0  0  0  0
   -0.6977    3.1791    0.7154 H   0  0  0  0  0  0  0  0  0  0  0  0
   -0.2150    3.4025   -0.8774 H   0  0  0  0  0  0  0  0  0  0  0  0
   -0.0031    1.3974    0.0002 C   0  0  0  0  0  0  0  0  0  0  0  0
   -1.1940    0.6856    0.0012 C   0  0  0  0  0  0  0  0  0  0  0  0
   -2.0628    1.1775    0.0011 H   0  0  0  0  0  0  0  0  0  0  0  0
   -1.1954   -0.6941   -0.0000 C   0  0  0  0  0  0  0  0  0  0  0  0
   -2.0725   -1.1934   -0.0006 H   0  0  0  0  0  0  0  0  0  0  0  0
    0.0031   -1.3895    0.0007 C   0  0  0  0  0  0  0  0  0  0  0  0
   -0.0024   -2.3890    0.0015 H   0  0  0  0  0  0  0  0  0  0  0  0
    1.1954   -0.6939    0.0000 C   0  0  0  0  0  0  0  0  0  0  0  0
    2.0812   -1.1912    0.0024 H   0  0  0  0  0  0  0  0  0  0  0  0
    1.1939    0.6946   -0.0022 C   0  0  0  0  0  0  0  0  0  0  0  0
    2.0604    1.1901   -0.0060 H   0  0  0  0  0  0  0  0  0  0  0  0
  1  5  1  0
  5  8  1  0
  1  2  1  0
  1  3  1  0
  1  4  1  0
  5  6  1  0
  5  7  1  0
  8  9  1  0
  8 10  1  0
  8 11  1  0
 12 16  1  0
 16 17  2  0
 17 19  1  0
 19 21  2  0
 21 23  1  0
 23 25  2  0
 25 16  1  0
 12 13  1  0
 12 14  1  0
 12 15  1  0
 17 18  1  0
 19 20  1  0
 21 22  1  0
 23 24  1  0
 25 26  1  0
M  CHG  1   8   1
M  END
>  <PDB_ID>  (898) 
pdb1neu

>  <RESIDUE_NAME>  (898) 
ILE   PHE

>  <FRAG_NAME>  (898) 
ETAM   MBZ

>  <FRAG_ATOM_NUM>  (898) 
fragi: 11  fragj: 15

>  <atom.prop.CHAIN_ID>  (898) 
A A A A A A A A A A A Z Z Z Z Z Z Z Z Z Z Z Z Z Z Z

>  <atom.prop.IS_HEAVY_ATOM>  (898) 
1 0 0 0 1 0 0 1 0 0 0 1 0 0 0 1 1 0 1 0 1 0 1 0 1 0

>  <DIFUSE_FUNC_ATOM>  (898) 
n/a

>  <FINAL_SINGLE_POINT_ENERGY>  (898) 
0

>  <NONCOV_INTER_ENERGY_QM>  (898) 
0

>  <FF_Energy>  (898) 
-0.57

>  <QM_Energy>  (898) 
-6.87

>  <source>  (898) 
ETAM_MBZ

>  <Index>  (898) 
8958

$$$$
ETAM-pdb2qw8-B-LYS-132:MBZ-pdb2qw8-B-PHE-85
     RDKit          3D

 26 25  0  0  0  0  0  0  0  0999 V2000
    5.3181   -1.9059    1.9002 C   0  0  0  0  0  0  0  0  0  0  0  0
    5.1356   -2.5562    1.1729 H   0  0  0  0  0  0  0  0  0  0  0  0
    5.6888   -2.3656    2.6975 H   0  0  0  0  0  0  0  0  0  0  0  0
    6.0441   -1.1746    1.5449 H   0  0  0  0  0  0  0  0  0  0  0  0
    4.0019   -1.2356    2.2937 C   0  0  0  0  0  0  0  0  0  0  0  0
    4.1990   -0.4921    2.9395 H   0  0  0  0  0  0  0  0  0  0  0  0
    3.5801   -0.8441    1.4702 H   0  0  0  0  0  0  0  0  0  0  0  0
    3.0429   -2.1924    2.9266 N   0  0  0  0  0  4  0  0  0  0  0  0
    3.4801   -3.0862    3.0127 H   0  0  0  0  0  0  0  0  0  0  0  0
    2.7889   -1.8529    3.8303 H   0  0  0  0  0  0  0  0  0  0  0  0
    2.2288   -2.2681    2.3531 H   0  0  0  0  0  0  0  0  0  0  0  0
    0.0020    2.9067   -0.0337 C   0  0  0  0  0  0  0  0  0  0  0  0
   -0.9287    3.2183    0.0879 H   0  0  0  0  0  0  0  0  0  0  0  0
    0.3651    3.1951   -0.9075 H   0  0  0  0  0  0  0  0  0  0  0  0
    0.6092    3.3688    0.7447 H   0  0  0  0  0  0  0  0  0  0  0  0
    0.0004    1.4053   -0.0002 C   0  0  0  0  0  0  0  0  0  0  0  0
   -1.1979    0.6969   -0.0001 C   0  0  0  0  0  0  0  0  0  0  0  0
   -2.0642    1.1837   -0.0014 H   0  0  0  0  0  0  0  0  0  0  0  0
   -1.2022   -0.7022   -0.0000 C   0  0  0  0  0  0  0  0  0  0  0  0
   -2.0777   -1.1933    0.0016 H   0  0  0  0  0  0  0  0  0  0  0  0
    0.0031   -1.3982   -0.0001 C   0  0  0  0  0  0  0  0  0  0  0  0
   -0.0008   -2.3960   -0.0003 H   0  0  0  0  0  0  0  0  0  0  0  0
    1.2022   -0.6996    0.0000 C   0  0  0  0  0  0  0  0  0  0  0  0
    2.0850   -1.1921    0.0010 H   0  0  0  0  0  0  0  0  0  0  0  0
    1.1943    0.6978    0.0004 C   0  0  0  0  0  0  0  0  0  0  0  0
    2.0649    1.1916    0.0006 H   0  0  0  0  0  0  0  0  0  0  0  0
  1  5  1  0
  5  8  1  0
  1  2  1  0
  1  3  1  0
  1  4  1  0
  5  6  1  0
  5  7  1  0
  8  9  1  0
  8 10  1  0
  8 11  1  0
 12 16  1  0
 16 17  2  0
 17 19  1  0
 19 21  2  0
 21 23  1  0
 23 25  2  0
 25 16  1  0
 12 13  1  0
 12 14  1  0
 12 15  1  0
 17 18  1  0
 19 20  1  0
 21 22  1  0
 23 24  1  0
 25 26  1  0
M  CHG  1   8   1
M  END
>  <PDB_ID>  (899) 
pdb2qw8

>  <RESIDUE_NAME>  (899) 
LYS   PHE

>  <FRAG_NAME>  (899) 
ETAM   MBZ

>  <FRAG_ATOM_NUM>  (899) 
fragi: 11  fragj: 15

>  <atom.prop.CHAIN_ID>  (899) 
A A A A A A A A A A A Z Z Z Z Z Z Z Z Z Z Z Z Z Z Z

>  <atom.prop.IS_HEAVY_ATOM>  (899) 
1 0 0 0 1 0 0 1 0 0 0 1 0 0 0 1 1 0 1 0 1 0 1 0 1 0

>  <DIFUSE_FUNC_ATOM>  (899) 
n/a

>  <FINAL_SINGLE_POINT_ENERGY>  (899) 
0

>  <NONCOV_INTER_ENERGY_QM>  (899) 
0

>  <FF_Energy>  (899) 
-1.22

>  <QM_Energy>  (899) 
-6.29

>  <source>  (899) 
ETAM_MBZ

>  <Index>  (899) 
8960

$$$$
ETAM-pdb2qzu-A-LYS-394:MBZ-pdb2qzu-A-PHE-382
     RDKit          3D

 26 25  0  0  0  0  0  0  0  0999 V2000
    4.1334    1.6309   -4.5980 C   0  0  0  0  0  0  0  0  0  0  0  0
    4.5825    2.4975   -4.4208 H   0  0  0  0  0  0  0  0  0  0  0  0
    3.1624    1.7623   -4.7527 H   0  0  0  0  0  0  0  0  0  0  0  0
    4.5758    1.1786   -5.4856 H   0  0  0  0  0  0  0  0  0  0  0  0
    4.3149    0.7313   -3.3852 C   0  0  0  0  0  0  0  0  0  0  0  0
    3.8858   -0.1587   -3.5737 H   0  0  0  0  0  0  0  0  0  0  0  0
    5.2981    0.5852   -3.2332 H   0  0  0  0  0  0  0  0  0  0  0  0
    3.7126    1.3121   -2.1535 N   0  0  0  0  0  4  0  0  0  0  0  0
    3.8126    2.3064   -2.1731 H   0  0  0  0  0  0  0  0  0  0  0  0
    2.7424    1.0734   -2.1147 H   0  0  0  0  0  0  0  0  0  0  0  0
    4.1812    0.9441   -1.3510 H   0  0  0  0  0  0  0  0  0  0  0  0
    0.0011    2.9077   -0.0311 C   0  0  0  0  0  0  0  0  0  0  0  0
   -0.8185    3.2054   -0.5018 H   0  0  0  0  0  0  0  0  0  0  0  0
    0.8147    3.2041   -0.5128 H   0  0  0  0  0  0  0  0  0  0  0  0
    0.0084    3.3797    0.9514 H   0  0  0  0  0  0  0  0  0  0  0  0
   -0.0002    1.4041    0.0012 C   0  0  0  0  0  0  0  0  0  0  0  0
   -1.2001    0.6937    0.0015 C   0  0  0  0  0  0  0  0  0  0  0  0
   -2.0656    1.1845    0.0014 H   0  0  0  0  0  0  0  0  0  0  0  0
   -1.2051   -0.6997   -0.0000 C   0  0  0  0  0  0  0  0  0  0  0  0
   -2.0800   -1.1934    0.0027 H   0  0  0  0  0  0  0  0  0  0  0  0
    0.0005   -1.3972   -0.0037 C   0  0  0  0  0  0  0  0  0  0  0  0
   -0.0024   -2.3945   -0.0093 H   0  0  0  0  0  0  0  0  0  0  0  0
    1.2051   -0.6971    0.0000 C   0  0  0  0  0  0  0  0  0  0  0  0
    2.0852   -1.1949    0.0031 H   0  0  0  0  0  0  0  0  0  0  0  0
    1.1998    0.6962    0.0010 C   0  0  0  0  0  0  0  0  0  0  0  0
    2.0666    1.1932    0.0007 H   0  0  0  0  0  0  0  0  0  0  0  0
  1  5  1  0
  5  8  1  0
  1  2  1  0
  1  3  1  0
  1  4  1  0
  5  6  1  0
  5  7  1  0
  8  9  1  0
  8 10  1  0
  8 11  1  0
 12 16  1  0
 16 17  2  0
 17 19  1  0
 19 21  2  0
 21 23  1  0
 23 25  2  0
 25 16  1  0
 12 13  1  0
 12 14  1  0
 12 15  1  0
 17 18  1  0
 19 20  1  0
 21 22  1  0
 23 24  1  0
 25 26  1  0
M  CHG  1   8   1
M  END
>  <PDB_ID>  (900) 
pdb2qzu

>  <RESIDUE_NAME>  (900) 
LYS   PHE

>  <FRAG_NAME>  (900) 
ETAM   MBZ

>  <FRAG_ATOM_NUM>  (900) 
fragi: 11  fragj: 15

>  <atom.prop.CHAIN_ID>  (900) 
A A A A A A A A A A A Z Z Z Z Z Z Z Z Z Z Z Z Z Z Z

>  <atom.prop.IS_HEAVY_ATOM>  (900) 
1 0 0 0 1 0 0 1 0 0 0 1 0 0 0 1 1 0 1 0 1 0 1 0 1 0

>  <DIFUSE_FUNC_ATOM>  (900) 
n/a

>  <FINAL_SINGLE_POINT_ENERGY>  (900) 
0

>  <NONCOV_INTER_ENERGY_QM>  (900) 
0

>  <FF_Energy>  (900) 
-0.9

>  <QM_Energy>  (900) 
-6.14

>  <source>  (900) 
ETAM_MBZ

>  <Index>  (900) 
8969

$$$$
ETAM-pdb2qzx-A-LYS-257:MBZ-pdb2qzx-B-PHE-281
     RDKit          3D

 26 25  0  0  0  0  0  0  0  0999 V2000
   -6.1339    0.2070    2.1371 C   0  0  0  0  0  0  0  0  0  0  0  0
   -6.6248   -0.6468    2.2973 H   0  0  0  0  0  0  0  0  0  0  0  0
   -6.3872    0.5820    1.2476 H   0  0  0  0  0  0  0  0  0  0  0  0
   -6.4183    0.9213    2.9098 H   0  0  0  0  0  0  0  0  0  0  0  0
   -4.6439   -0.0800    2.1378 C   0  0  0  0  0  0  0  0  0  0  0  0
   -4.1458    0.7733    1.9681 H   0  0  0  0  0  0  0  0  0  0  0  0
   -4.3800   -0.4393    3.0363 H   0  0  0  0  0  0  0  0  0  0  0  0
   -4.2749   -1.0756    1.0881 N   0  0  0  0  0  4  0  0  0  0  0  0
   -4.4571   -1.9965    1.4294 H   0  0  0  0  0  0  0  0  0  0  0  0
   -4.8187   -0.9064    0.2684 H   0  0  0  0  0  0  0  0  0  0  0  0
   -3.3041   -0.9830    0.8730 H   0  0  0  0  0  0  0  0  0  0  0  0
    0.0053    2.8923   -0.0492 C   0  0  0  0  0  0  0  0  0  0  0  0
   -0.6549    3.1817   -0.7272 H   0  0  0  0  0  0  0  0  0  0  0  0
    0.9176    3.1922   -0.2888 H   0  0  0  0  0  0  0  0  0  0  0  0
   -0.2610    3.3645    0.8964 H   0  0  0  0  0  0  0  0  0  0  0  0
    0.0014    1.3999   -0.0010 C   0  0  0  0  0  0  0  0  0  0  0  0
   -1.1995    0.6946    0.0024 C   0  0  0  0  0  0  0  0  0  0  0  0
   -2.0639    1.1870    0.0056 H   0  0  0  0  0  0  0  0  0  0  0  0
   -1.2057   -0.6954   -0.0000 C   0  0  0  0  0  0  0  0  0  0  0  0
   -2.0797   -1.1910    0.0024 H   0  0  0  0  0  0  0  0  0  0  0  0
    0.0013   -1.3949   -0.0037 C   0  0  0  0  0  0  0  0  0  0  0  0
   -0.0039   -2.3912   -0.0096 H   0  0  0  0  0  0  0  0  0  0  0  0
    1.2057   -0.6962    0.0000 C   0  0  0  0  0  0  0  0  0  0  0  0
    2.0850   -1.1943    0.0025 H   0  0  0  0  0  0  0  0  0  0  0  0
    1.1968    0.6920    0.0023 C   0  0  0  0  0  0  0  0  0  0  0  0
    2.0654    1.1910    0.0058 H   0  0  0  0  0  0  0  0  0  0  0  0
  1  5  1  0
  5  8  1  0
  1  2  1  0
  1  3  1  0
  1  4  1  0
  5  6  1  0
  5  7  1  0
  8  9  1  0
  8 10  1  0
  8 11  1  0
 12 16  1  0
 16 17  2  0
 17 19  1  0
 19 21  2  0
 21 23  1  0
 23 25  2  0
 25 16  1  0
 12 13  1  0
 12 14  1  0
 12 15  1  0
 17 18  1  0
 19 20  1  0
 21 22  1  0
 23 24  1  0
 25 26  1  0
M  CHG  1   8   1
M  END
>  <PDB_ID>  (901) 
pdb2qzx

>  <RESIDUE_NAME>  (901) 
LYS   PHE

>  <FRAG_NAME>  (901) 
ETAM   MBZ

>  <FRAG_ATOM_NUM>  (901) 
fragi: 11  fragj: 15

>  <atom.prop.CHAIN_ID>  (901) 
A A A A A A A A A A A Z Z Z Z Z Z Z Z Z Z Z Z Z Z Z

>  <atom.prop.IS_HEAVY_ATOM>  (901) 
1 0 0 0 1 0 0 1 0 0 0 1 0 0 0 1 1 0 1 0 1 0 1 0 1 0

>  <DIFUSE_FUNC_ATOM>  (901) 
n/a

>  <FINAL_SINGLE_POINT_ENERGY>  (901) 
0

>  <NONCOV_INTER_ENERGY_QM>  (901) 
0

>  <FF_Energy>  (901) 
2.54

>  <QM_Energy>  (901) 
-3.23

>  <source>  (901) 
ETAM_MBZ

>  <Index>  (901) 
8976

$$$$
ETAM-pdb1nf5-B-LYS-367:MBZ-pdb1nf5-B-PHE-327
     RDKit          3D

 26 25  0  0  0  0  0  0  0  0999 V2000
    0.7455    0.0403   -3.2936 C   0  0  0  0  0  0  0  0  0  0  0  0
   -0.0078    0.6513   -3.5288 H   0  0  0  0  0  0  0  0  0  0  0  0
    0.8383   -0.0169   -2.3018 H   0  0  0  0  0  0  0  0  0  0  0  0
    0.5381   -0.9525   -3.6927 H   0  0  0  0  0  0  0  0  0  0  0  0
    2.0347    0.6289   -3.8611 C   0  0  0  0  0  0  0  0  0  0  0  0
    2.8041    0.0550   -3.5858 H   0  0  0  0  0  0  0  0  0  0  0  0
    1.9725    0.6510   -4.8576 H   0  0  0  0  0  0  0  0  0  0  0  0
    2.2641    2.0268   -3.3566 N   0  0  0  0  0  4  0  0  0  0  0  0
    3.1103    2.0465   -2.8304 H   0  0  0  0  0  0  0  0  0  0  0  0
    2.3330    2.6456   -4.1360 H   0  0  0  0  0  0  0  0  0  0  0  0
    1.4967    2.2919   -2.7776 H   0  0  0  0  0  0  0  0  0  0  0  0
   -0.0018    2.8994   -0.0168 C   0  0  0  0  0  0  0  0  0  0  0  0
   -0.9175    3.2132    0.1863 H   0  0  0  0  0  0  0  0  0  0  0  0
    0.2898    3.2014   -0.9133 H   0  0  0  0  0  0  0  0  0  0  0  0
    0.6695    3.3487    0.7150 H   0  0  0  0  0  0  0  0  0  0  0  0
   -0.0009    1.4077    0.0004 C   0  0  0  0  0  0  0  0  0  0  0  0
   -1.2060    0.6934   -0.0013 C   0  0  0  0  0  0  0  0  0  0  0  0
   -2.0706    1.1829   -0.0046 H   0  0  0  0  0  0  0  0  0  0  0  0
   -1.2159   -0.7088   -0.0000 C   0  0  0  0  0  0  0  0  0  0  0  0
   -2.0853   -1.1998    0.0028 H   0  0  0  0  0  0  0  0  0  0  0  0
    0.0004   -1.4035   -0.0004 C   0  0  0  0  0  0  0  0  0  0  0  0
    0.0048   -2.3980   -0.0018 H   0  0  0  0  0  0  0  0  0  0  0  0
    1.2159   -0.6926    0.0000 C   0  0  0  0  0  0  0  0  0  0  0  0
    2.0920   -1.1906    0.0012 H   0  0  0  0  0  0  0  0  0  0  0  0
    1.2064    0.7038    0.0014 C   0  0  0  0  0  0  0  0  0  0  0  0
    2.0689    1.2039    0.0025 H   0  0  0  0  0  0  0  0  0  0  0  0
  1  5  1  0
  5  8  1  0
  1  2  1  0
  1  3  1  0
  1  4  1  0
  5  6  1  0
  5  7  1  0
  8  9  1  0
  8 10  1  0
  8 11  1  0
 12 16  1  0
 16 17  2  0
 17 19  1  0
 19 21  2  0
 21 23  1  0
 23 25  2  0
 25 16  1  0
 12 13  1  0
 12 14  1  0
 12 15  1  0
 17 18  1  0
 19 20  1  0
 21 22  1  0
 23 24  1  0
 25 26  1  0
M  CHG  1   8   1
M  END
>  <PDB_ID>  (902) 
pdb1nf5

>  <RESIDUE_NAME>  (902) 
LYS   PHE

>  <FRAG_NAME>  (902) 
ETAM   MBZ

>  <FRAG_ATOM_NUM>  (902) 
fragi: 11  fragj: 15

>  <atom.prop.CHAIN_ID>  (902) 
A A A A A A A A A A A Z Z Z Z Z Z Z Z Z Z Z Z Z Z Z

>  <atom.prop.IS_HEAVY_ATOM>  (902) 
1 0 0 0 1 0 0 1 0 0 0 1 0 0 0 1 1 0 1 0 1 0 1 0 1 0

>  <DIFUSE_FUNC_ATOM>  (902) 
n/a

>  <FINAL_SINGLE_POINT_ENERGY>  (902) 
0

>  <NONCOV_INTER_ENERGY_QM>  (902) 
0

>  <FF_Energy>  (902) 
-1.71

>  <QM_Energy>  (902) 
-7.12

>  <source>  (902) 
ETAM_MBZ

>  <Index>  (902) 
8980

$$$$
ETAM-pdb1ng4-A-LYS-238:MBZ-pdb1ng4-A-PHE-141
     RDKit          3D

 26 25  0  0  0  0  0  0  0  0999 V2000
   -3.3919   -2.1057   -2.1066 C   0  0  0  0  0  0  0  0  0  0  0  0
   -3.3429   -1.5185   -1.3083 H   0  0  0  0  0  0  0  0  0  0  0  0
   -3.4633   -3.0578   -1.8381 H   0  0  0  0  0  0  0  0  0  0  0  0
   -4.2582   -1.8302   -2.7080 H   0  0  0  0  0  0  0  0  0  0  0  0
   -2.0830   -1.9346   -2.9024 C   0  0  0  0  0  0  0  0  0  0  0  0
   -2.0097   -0.9689   -3.1896 H   0  0  0  0  0  0  0  0  0  0  0  0
   -1.3081   -2.1334   -2.2858 H   0  0  0  0  0  0  0  0  0  0  0  0
   -1.9853   -2.8125   -4.1098 N   0  0  0  0  0  4  0  0  0  0  0  0
   -2.8304   -2.7415   -4.6361 H   0  0  0  0  0  0  0  0  0  0  0  0
   -1.2138   -2.5160   -4.6686 H   0  0  0  0  0  0  0  0  0  0  0  0
   -1.8475   -3.7574   -3.8181 H   0  0  0  0  0  0  0  0  0  0  0  0
   -0.0022    2.9025    0.0167 C   0  0  0  0  0  0  0  0  0  0  0  0
   -0.3799    3.2181   -0.8389 H   0  0  0  0  0  0  0  0  0  0  0  0
    0.9279    3.2111    0.1383 H   0  0  0  0  0  0  0  0  0  0  0  0
   -0.6021    3.3242    0.8231 H   0  0  0  0  0  0  0  0  0  0  0  0
    0.0021    1.4037    0.0001 C   0  0  0  0  0  0  0  0  0  0  0  0
   -1.1978    0.6953   -0.0013 C   0  0  0  0  0  0  0  0  0  0  0  0
   -2.0629    1.1880   -0.0045 H   0  0  0  0  0  0  0  0  0  0  0  0
   -1.2065   -0.6978    0.0000 C   0  0  0  0  0  0  0  0  0  0  0  0
   -2.0829   -1.1891    0.0013 H   0  0  0  0  0  0  0  0  0  0  0  0
   -0.0040   -1.3993    0.0012 C   0  0  0  0  0  0  0  0  0  0  0  0
   -0.0058   -2.3942    0.0029 H   0  0  0  0  0  0  0  0  0  0  0  0
    1.2065   -0.6978    0.0000 C   0  0  0  0  0  0  0  0  0  0  0  0
    2.0834   -1.1965    0.0004 H   0  0  0  0  0  0  0  0  0  0  0  0
    1.1997    0.6958   -0.0000 C   0  0  0  0  0  0  0  0  0  0  0  0
    2.0677    1.1923   -0.0007 H   0  0  0  0  0  0  0  0  0  0  0  0
  1  5  1  0
  5  8  1  0
  1  2  1  0
  1  3  1  0
  1  4  1  0
  5  6  1  0
  5  7  1  0
  8  9  1  0
  8 10  1  0
  8 11  1  0
 12 16  1  0
 16 17  2  0
 17 19  1  0
 19 21  2  0
 21 23  1  0
 23 25  2  0
 25 16  1  0
 12 13  1  0
 12 14  1  0
 12 15  1  0
 17 18  1  0
 19 20  1  0
 21 22  1  0
 23 24  1  0
 25 26  1  0
M  CHG  1   8   1
M  END
>  <PDB_ID>  (903) 
pdb1ng4

>  <RESIDUE_NAME>  (903) 
LYS   PHE

>  <FRAG_NAME>  (903) 
ETAM   MBZ

>  <FRAG_ATOM_NUM>  (903) 
fragi: 11  fragj: 15

>  <atom.prop.CHAIN_ID>  (903) 
A A A A A A A A A A A Z Z Z Z Z Z Z Z Z Z Z Z Z Z Z

>  <atom.prop.IS_HEAVY_ATOM>  (903) 
1 0 0 0 1 0 0 1 0 0 0 1 0 0 0 1 1 0 1 0 1 0 1 0 1 0

>  <DIFUSE_FUNC_ATOM>  (903) 
n/a

>  <FINAL_SINGLE_POINT_ENERGY>  (903) 
0

>  <NONCOV_INTER_ENERGY_QM>  (903) 
0

>  <FF_Energy>  (903) 
1.25

>  <QM_Energy>  (903) 
-4.09

>  <source>  (903) 
ETAM_MBZ

>  <Index>  (903) 
8986

$$$$
ETAM-pdb1ng4-B-LYS-309:MBZ-pdb1ng4-B-PHE-62
     RDKit          3D

 26 25  0  0  0  0  0  0  0  0999 V2000
   -0.3433    0.2085   -3.3624 C   0  0  0  0  0  0  0  0  0  0  0  0
   -0.9184    0.7552   -2.7618 H   0  0  0  0  0  0  0  0  0  0  0  0
   -0.3438   -0.7417   -3.0691 H   0  0  0  0  0  0  0  0  0  0  0  0
   -0.7351    0.2672   -4.3779 H   0  0  0  0  0  0  0  0  0  0  0  0
    1.0805    0.7387   -3.2818 C   0  0  0  0  0  0  0  0  0  0  0  0
    1.1028    1.6688   -3.6618 H   0  0  0  0  0  0  0  0  0  0  0  0
    1.3585    0.7804   -2.3167 H   0  0  0  0  0  0  0  0  0  0  0  0
    2.0464   -0.1164   -4.0298 N   0  0  0  0  0  4  0  0  0  0  0  0
    2.1799   -0.9737   -3.5350 H   0  0  0  0  0  0  0  0  0  0  0  0
    1.6823   -0.3072   -4.9403 H   0  0  0  0  0  0  0  0  0  0  0  0
    2.9188    0.3641   -4.1104 H   0  0  0  0  0  0  0  0  0  0  0  0
    0.0037    2.9108   -0.0713 C   0  0  0  0  0  0  0  0  0  0  0  0
   -0.3383    3.1763   -0.9615 H   0  0  0  0  0  0  0  0  0  0  0  0
    0.9348    3.2210    0.0605 H   0  0  0  0  0  0  0  0  0  0  0  0
   -0.6176    3.3958    0.6817 H   0  0  0  0  0  0  0  0  0  0  0  0
    0.0001    1.4081   -0.0018 C   0  0  0  0  0  0  0  0  0  0  0  0
   -1.2005    0.6959    0.0018 C   0  0  0  0  0  0  0  0  0  0  0  0
   -2.0668    1.1841    0.0043 H   0  0  0  0  0  0  0  0  0  0  0  0
   -1.2062   -0.7025   -0.0000 C   0  0  0  0  0  0  0  0  0  0  0  0
   -2.0808   -1.1942    0.0011 H   0  0  0  0  0  0  0  0  0  0  0  0
    0.0007   -1.4003   -0.0019 C   0  0  0  0  0  0  0  0  0  0  0  0
   -0.0026   -2.3969   -0.0049 H   0  0  0  0  0  0  0  0  0  0  0  0
    1.2062   -0.7004    0.0000 C   0  0  0  0  0  0  0  0  0  0  0  0
    2.0864   -1.1947    0.0014 H   0  0  0  0  0  0  0  0  0  0  0  0
    1.1998    0.6991    0.0019 C   0  0  0  0  0  0  0  0  0  0  0  0
    2.0673    1.1933    0.0047 H   0  0  0  0  0  0  0  0  0  0  0  0
  1  5  1  0
  5  8  1  0
  1  2  1  0
  1  3  1  0
  1  4  1  0
  5  6  1  0
  5  7  1  0
  8  9  1  0
  8 10  1  0
  8 11  1  0
 12 16  1  0
 16 17  2  0
 17 19  1  0
 19 21  2  0
 21 23  1  0
 23 25  2  0
 25 16  1  0
 12 13  1  0
 12 14  1  0
 12 15  1  0
 17 18  1  0
 19 20  1  0
 21 22  1  0
 23 24  1  0
 25 26  1  0
M  CHG  1   8   1
M  END
>  <PDB_ID>  (904) 
pdb1ng4

>  <RESIDUE_NAME>  (904) 
LYS   PHE

>  <FRAG_NAME>  (904) 
ETAM   MBZ

>  <FRAG_ATOM_NUM>  (904) 
fragi: 11  fragj: 15

>  <atom.prop.CHAIN_ID>  (904) 
A A A A A A A A A A A Z Z Z Z Z Z Z Z Z Z Z Z Z Z Z

>  <atom.prop.IS_HEAVY_ATOM>  (904) 
1 0 0 0 1 0 0 1 0 0 0 1 0 0 0 1 1 0 1 0 1 0 1 0 1 0

>  <DIFUSE_FUNC_ATOM>  (904) 
n/a

>  <FINAL_SINGLE_POINT_ENERGY>  (904) 
0

>  <NONCOV_INTER_ENERGY_QM>  (904) 
0

>  <FF_Energy>  (904) 
-2.06

>  <QM_Energy>  (904) 
-8.61

>  <source>  (904) 
ETAM_MBZ

>  <Index>  (904) 
8991

$$$$
ETAM-pdb2r0l-A-LYS-111:MBZ-pdb2r0l-A-PHE-83
     RDKit          3D

 26 25  0  0  0  0  0  0  0  0999 V2000
    4.2541   -0.3137    3.9697 C   0  0  0  0  0  0  0  0  0  0  0  0
    4.9144   -0.7047    4.6085 H   0  0  0  0  0  0  0  0  0  0  0  0
    4.0391    0.6240    4.2374 H   0  0  0  0  0  0  0  0  0  0  0  0
    4.6966   -0.3013    2.9737 H   0  0  0  0  0  0  0  0  0  0  0  0
    2.9751   -1.1395    4.0313 C   0  0  0  0  0  0  0  0  0  0  0  0
    3.0713   -1.9264    3.4115 H   0  0  0  0  0  0  0  0  0  0  0  0
    2.8623   -1.4873    4.9693 H   0  0  0  0  0  0  0  0  0  0  0  0
    1.7808   -0.3565    3.6503 N   0  0  0  0  0  4  0  0  0  0  0  0
    1.7035   -0.3249    2.6527 H   0  0  0  0  0  0  0  0  0  0  0  0
    0.9608   -0.7853    4.0332 H   0  0  0  0  0  0  0  0  0  0  0  0
    1.8619    0.5761    4.0055 H   0  0  0  0  0  0  0  0  0  0  0  0
    0.0012    2.8944    0.0209 C   0  0  0  0  0  0  0  0  0  0  0  0
   -0.8050    3.2146   -0.4506 H   0  0  0  0  0  0  0  0  0  0  0  0
    0.8270    3.2126   -0.4162 H   0  0  0  0  0  0  0  0  0  0  0  0
   -0.0191    3.3076    1.0294 H   0  0  0  0  0  0  0  0  0  0  0  0
    0.0003    1.4020   -0.0060 C   0  0  0  0  0  0  0  0  0  0  0  0
   -1.1959    0.6987    0.0035 C   0  0  0  0  0  0  0  0  0  0  0  0
   -2.0625    1.1883    0.0112 H   0  0  0  0  0  0  0  0  0  0  0  0
   -1.2040   -0.6953   -0.0000 C   0  0  0  0  0  0  0  0  0  0  0  0
   -2.0815   -1.1867   -0.0053 H   0  0  0  0  0  0  0  0  0  0  0  0
   -0.0016   -1.3987    0.0056 C   0  0  0  0  0  0  0  0  0  0  0  0
   -0.0085   -2.3943    0.0126 H   0  0  0  0  0  0  0  0  0  0  0  0
    1.2040   -0.7014    0.0000 C   0  0  0  0  0  0  0  0  0  0  0  0
    2.0830   -1.1970   -0.0004 H   0  0  0  0  0  0  0  0  0  0  0  0
    1.1973    0.6947   -0.0030 C   0  0  0  0  0  0  0  0  0  0  0  0
    2.0657    1.1892   -0.0040 H   0  0  0  0  0  0  0  0  0  0  0  0
  1  5  1  0
  5  8  1  0
  1  2  1  0
  1  3  1  0
  1  4  1  0
  5  6  1  0
  5  7  1  0
  8  9  1  0
  8 10  1  0
  8 11  1  0
 12 16  1  0
 16 17  2  0
 17 19  1  0
 19 21  2  0
 21 23  1  0
 23 25  2  0
 25 16  1  0
 12 13  1  0
 12 14  1  0
 12 15  1  0
 17 18  1  0
 19 20  1  0
 21 22  1  0
 23 24  1  0
 25 26  1  0
M  CHG  1   8   1
M  END
>  <PDB_ID>  (905) 
pdb2r0l

>  <RESIDUE_NAME>  (905) 
LYS   PHE

>  <FRAG_NAME>  (905) 
ETAM   MBZ

>  <FRAG_ATOM_NUM>  (905) 
fragi: 11  fragj: 15

>  <atom.prop.CHAIN_ID>  (905) 
A A A A A A A A A A A Z Z Z Z Z Z Z Z Z Z Z Z Z Z Z

>  <atom.prop.IS_HEAVY_ATOM>  (905) 
1 0 0 0 1 0 0 1 0 0 0 1 0 0 0 1 1 0 1 0 1 0 1 0 1 0

>  <DIFUSE_FUNC_ATOM>  (905) 
n/a

>  <FINAL_SINGLE_POINT_ENERGY>  (905) 
0

>  <NONCOV_INTER_ENERGY_QM>  (905) 
0

>  <FF_Energy>  (905) 
-5.08

>  <QM_Energy>  (905) 
-10.8

>  <source>  (905) 
ETAM_MBZ

>  <Index>  (905) 
8992

$$$$
ETAM-pdb1ndl-C-LYS-40:MBZ-pdb1ndl-C-PHE-135
     RDKit          3D

 26 25  0  0  0  0  0  0  0  0999 V2000
   -3.8735   -1.5007   -2.7545 C   0  0  0  0  0  0  0  0  0  0  0  0
   -4.4242   -1.5839   -3.5628 H   0  0  0  0  0  0  0  0  0  0  0  0
   -4.3544   -1.0796   -2.0103 H   0  0  0  0  0  0  0  0  0  0  0  0
   -3.5411   -2.4926   -2.4481 H   0  0  0  0  0  0  0  0  0  0  0  0
   -2.6437   -0.6648   -3.0808 C   0  0  0  0  0  0  0  0  0  0  0  0
   -1.9818   -0.7614   -2.3387 H   0  0  0  0  0  0  0  0  0  0  0  0
   -2.2423   -0.9992   -3.9326 H   0  0  0  0  0  0  0  0  0  0  0  0
   -3.0060    0.7662   -3.2351 N   0  0  0  0  0  4  0  0  0  0  0  0
   -3.1239    1.1798   -2.3318 H   0  0  0  0  0  0  0  0  0  0  0  0
   -2.2778    1.2441   -3.7275 H   0  0  0  0  0  0  0  0  0  0  0  0
   -3.8610    0.8405   -3.7499 H   0  0  0  0  0  0  0  0  0  0  0  0
   -0.0150    2.8731   -0.0411 C   0  0  0  0  0  0  0  0  0  0  0  0
    0.8569    3.2075    0.2664 H   0  0  0  0  0  0  0  0  0  0  0  0
   -0.7569    3.2028    0.5145 H   0  0  0  0  0  0  0  0  0  0  0  0
   -0.1711    3.2610   -1.0478 H   0  0  0  0  0  0  0  0  0  0  0  0
   -0.0039    1.3880    0.0028 C   0  0  0  0  0  0  0  0  0  0  0  0
   -1.1941    0.6833   -0.0045 C   0  0  0  0  0  0  0  0  0  0  0  0
   -2.0644    1.1836   -0.0150 H   0  0  0  0  0  0  0  0  0  0  0  0
   -1.2194   -0.7006    0.0000 C   0  0  0  0  0  0  0  0  0  0  0  0
   -2.0881   -1.1892   -0.0005 H   0  0  0  0  0  0  0  0  0  0  0  0
   -0.0147   -1.3780    0.0070 C   0  0  0  0  0  0  0  0  0  0  0  0
   -0.0116   -2.3889    0.0169 H   0  0  0  0  0  0  0  0  0  0  0  0
    1.2194   -0.6992   -0.0000 C   0  0  0  0  0  0  0  0  0  0  0  0
    2.0810   -1.2000    0.0007 H   0  0  0  0  0  0  0  0  0  0  0  0
    1.2127    0.7066   -0.0054 C   0  0  0  0  0  0  0  0  0  0  0  0
    2.0662    1.2031   -0.0153 H   0  0  0  0  0  0  0  0  0  0  0  0
  1  5  1  0
  5  8  1  0
  1  2  1  0
  1  3  1  0
  1  4  1  0
  5  6  1  0
  5  7  1  0
  8  9  1  0
  8 10  1  0
  8 11  1  0
 12 16  1  0
 16 17  2  0
 17 19  1  0
 19 21  2  0
 21 23  1  0
 23 25  2  0
 25 16  1  0
 12 13  1  0
 12 14  1  0
 12 15  1  0
 17 18  1  0
 19 20  1  0
 21 22  1  0
 23 24  1  0
 25 26  1  0
M  CHG  1   8   1
M  END
>  <PDB_ID>  (906) 
pdb1ndl

>  <RESIDUE_NAME>  (906) 
LYS   PHE

>  <FRAG_NAME>  (906) 
ETAM   MBZ

>  <FRAG_ATOM_NUM>  (906) 
fragi: 11  fragj: 15

>  <atom.prop.CHAIN_ID>  (906) 
A A A A A A A A A A A Z Z Z Z Z Z Z Z Z Z Z Z Z Z Z

>  <atom.prop.IS_HEAVY_ATOM>  (906) 
1 0 0 0 1 0 0 1 0 0 0 1 0 0 0 1 1 0 1 0 1 0 1 0 1 0

>  <DIFUSE_FUNC_ATOM>  (906) 
n/a

>  <FINAL_SINGLE_POINT_ENERGY>  (906) 
0

>  <NONCOV_INTER_ENERGY_QM>  (906) 
0

>  <FF_Energy>  (906) 
-1.96

>  <QM_Energy>  (906) 
-7.18

>  <source>  (906) 
ETAM_MBZ

>  <Index>  (906) 
8999

$$$$
ETAM-pdb1ngn-A-LYS-539:MBZ-pdb1ngn-A-PHE-419
     RDKit          3D

 26 25  0  0  0  0  0  0  0  0999 V2000
    2.0378   -0.9262   -3.9679 C   0  0  0  0  0  0  0  0  0  0  0  0
    1.5847   -1.6355   -3.4430 H   0  0  0  0  0  0  0  0  0  0  0  0
    2.7996   -1.3004   -4.4813 H   0  0  0  0  0  0  0  0  0  0  0  0
    1.3229   -0.4813   -4.6601 H   0  0  0  0  0  0  0  0  0  0  0  0
    2.5695    0.1207   -3.0086 C   0  0  0  0  0  0  0  0  0  0  0  0
    2.5318    1.0190   -3.4516 H   0  0  0  0  0  0  0  0  0  0  0  0
    1.9939    0.1358   -2.1881 H   0  0  0  0  0  0  0  0  0  0  0  0
    3.9749   -0.1696   -2.6122 N   0  0  0  0  0  4  0  0  0  0  0  0
    4.5946    0.4087   -3.1426 H   0  0  0  0  0  0  0  0  0  0  0  0
    4.0907    0.0214   -1.6380 H   0  0  0  0  0  0  0  0  0  0  0  0
    4.1785   -1.1319   -2.7918 H   0  0  0  0  0  0  0  0  0  0  0  0
    0.0077    2.8959    0.0396 C   0  0  0  0  0  0  0  0  0  0  0  0
   -0.9160    3.2118   -0.1092 H   0  0  0  0  0  0  0  0  0  0  0  0
    0.6200    3.2184   -0.6652 H   0  0  0  0  0  0  0  0  0  0  0  0
    0.3513    3.2976    0.9928 H   0  0  0  0  0  0  0  0  0  0  0  0
   -0.0008    1.3986   -0.0004 C   0  0  0  0  0  0  0  0  0  0  0  0
   -1.1991    0.6970   -0.0006 C   0  0  0  0  0  0  0  0  0  0  0  0
   -2.0634    1.1894   -0.0024 H   0  0  0  0  0  0  0  0  0  0  0  0
   -1.2058   -0.6920   -0.0000 C   0  0  0  0  0  0  0  0  0  0  0  0
   -2.0784   -1.1881    0.0008 H   0  0  0  0  0  0  0  0  0  0  0  0
    0.0032   -1.3919    0.0015 C   0  0  0  0  0  0  0  0  0  0  0  0
   -0.0055   -2.3906    0.0032 H   0  0  0  0  0  0  0  0  0  0  0  0
    1.2058   -0.6984   -0.0000 C   0  0  0  0  0  0  0  0  0  0  0  0
    2.0845   -1.1977    0.0009 H   0  0  0  0  0  0  0  0  0  0  0  0
    1.1968    0.6868   -0.0005 C   0  0  0  0  0  0  0  0  0  0  0  0
    2.0648    1.1877   -0.0016 H   0  0  0  0  0  0  0  0  0  0  0  0
  1  5  1  0
  5  8  1  0
  1  2  1  0
  1  3  1  0
  1  4  1  0
  5  6  1  0
  5  7  1  0
  8  9  1  0
  8 10  1  0
  8 11  1  0
 12 16  1  0
 16 17  2  0
 17 19  1  0
 19 21  2  0
 21 23  1  0
 23 25  2  0
 25 16  1  0
 12 13  1  0
 12 14  1  0
 12 15  1  0
 17 18  1  0
 19 20  1  0
 21 22  1  0
 23 24  1  0
 25 26  1  0
M  CHG  1   8   1
M  END
>  <PDB_ID>  (907) 
pdb1ngn

>  <RESIDUE_NAME>  (907) 
LYS   PHE

>  <FRAG_NAME>  (907) 
ETAM   MBZ

>  <FRAG_ATOM_NUM>  (907) 
fragi: 11  fragj: 15

>  <atom.prop.CHAIN_ID>  (907) 
A A A A A A A A A A A Z Z Z Z Z Z Z Z Z Z Z Z Z Z Z

>  <atom.prop.IS_HEAVY_ATOM>  (907) 
1 0 0 0 1 0 0 1 0 0 0 1 0 0 0 1 1 0 1 0 1 0 1 0 1 0

>  <DIFUSE_FUNC_ATOM>  (907) 
n/a

>  <FINAL_SINGLE_POINT_ENERGY>  (907) 
0

>  <NONCOV_INTER_ENERGY_QM>  (907) 
0

>  <FF_Energy>  (907) 
0.73

>  <QM_Energy>  (907) 
-5.6

>  <source>  (907) 
ETAM_MBZ

>  <Index>  (907) 
9002

$$$$
ETAM-pdb2qzu-A-LYS-298:MBZ-pdb2qzu-A-PHE-303
     RDKit          3D

 26 25  0  0  0  0  0  0  0  0999 V2000
    1.2531    1.3745   -4.6204 C   0  0  0  0  0  0  0  0  0  0  0  0
    0.5373    1.1043   -5.2579 H   0  0  0  0  0  0  0  0  0  0  0  0
    2.0306    1.7512   -5.1149 H   0  0  0  0  0  0  0  0  0  0  0  0
    0.8576    2.1397   -3.9524 H   0  0  0  0  0  0  0  0  0  0  0  0
    1.7153    0.1391   -3.8572 C   0  0  0  0  0  0  0  0  0  0  0  0
    2.0818   -0.5279   -4.5157 H   0  0  0  0  0  0  0  0  0  0  0  0
    2.4560    0.4054   -3.2292 H   0  0  0  0  0  0  0  0  0  0  0  0
    0.6190   -0.4916   -3.0805 N   0  0  0  0  0  4  0  0  0  0  0  0
   -0.1579    0.1367   -3.0285 H   0  0  0  0  0  0  0  0  0  0  0  0
    0.3341   -1.3378   -3.5319 H   0  0  0  0  0  0  0  0  0  0  0  0
    0.9411   -0.6999   -2.1565 H   0  0  0  0  0  0  0  0  0  0  0  0
    0.0020    2.9166    0.0267 C   0  0  0  0  0  0  0  0  0  0  0  0
   -0.5776    3.2328   -0.7071 H   0  0  0  0  0  0  0  0  0  0  0  0
    0.9338    3.2219   -0.0877 H   0  0  0  0  0  0  0  0  0  0  0  0
   -0.3761    3.3401    0.9572 H   0  0  0  0  0  0  0  0  0  0  0  0
    0.0009    1.4065    0.0027 C   0  0  0  0  0  0  0  0  0  0  0  0
   -1.1978    0.6981    0.0003 C   0  0  0  0  0  0  0  0  0  0  0  0
   -2.0642    1.1883   -0.0022 H   0  0  0  0  0  0  0  0  0  0  0  0
   -1.2043   -0.6960   -0.0000 C   0  0  0  0  0  0  0  0  0  0  0  0
   -2.0814   -1.1880    0.0026 H   0  0  0  0  0  0  0  0  0  0  0  0
   -0.0020   -1.3995   -0.0023 C   0  0  0  0  0  0  0  0  0  0  0  0
   -0.0086   -2.3956   -0.0056 H   0  0  0  0  0  0  0  0  0  0  0  0
    1.2043   -0.7032   -0.0000 C   0  0  0  0  0  0  0  0  0  0  0  0
    2.0828   -1.1991    0.0036 H   0  0  0  0  0  0  0  0  0  0  0  0
    1.1989    0.6942   -0.0007 C   0  0  0  0  0  0  0  0  0  0  0  0
    2.0672    1.1881   -0.0047 H   0  0  0  0  0  0  0  0  0  0  0  0
  1  5  1  0
  5  8  1  0
  1  2  1  0
  1  3  1  0
  1  4  1  0
  5  6  1  0
  5  7  1  0
  8  9  1  0
  8 10  1  0
  8 11  1  0
 12 16  1  0
 16 17  2  0
 17 19  1  0
 19 21  2  0
 21 23  1  0
 23 25  2  0
 25 16  1  0
 12 13  1  0
 12 14  1  0
 12 15  1  0
 17 18  1  0
 19 20  1  0
 21 22  1  0
 23 24  1  0
 25 26  1  0
M  CHG  1   8   1
M  END
>  <PDB_ID>  (908) 
pdb2qzu

>  <RESIDUE_NAME>  (908) 
LYS   PHE

>  <FRAG_NAME>  (908) 
ETAM   MBZ

>  <FRAG_ATOM_NUM>  (908) 
fragi: 11  fragj: 15

>  <atom.prop.CHAIN_ID>  (908) 
A A A A A A A A A A A Z Z Z Z Z Z Z Z Z Z Z Z Z Z Z

>  <atom.prop.IS_HEAVY_ATOM>  (908) 
1 0 0 0 1 0 0 1 0 0 0 1 0 0 0 1 1 0 1 0 1 0 1 0 1 0

>  <DIFUSE_FUNC_ATOM>  (908) 
n/a

>  <FINAL_SINGLE_POINT_ENERGY>  (908) 
0

>  <NONCOV_INTER_ENERGY_QM>  (908) 
0

>  <FF_Energy>  (908) 
-8.78

>  <QM_Energy>  (908) 
-17.22

>  <source>  (908) 
ETAM_MBZ

>  <Index>  (908) 
9005

$$$$
ETAM-pdb2r2d-F-LYS-4:MBZ-pdb2r2d-F-PHE-274
     RDKit          3D

 26 25  0  0  0  0  0  0  0  0999 V2000
   -1.9610   -0.7380   -3.5177 C   0  0  0  0  0  0  0  0  0  0  0  0
   -1.5682   -0.4580   -4.3855 H   0  0  0  0  0  0  0  0  0  0  0  0
   -1.3632   -0.4915   -2.7655 H   0  0  0  0  0  0  0  0  0  0  0  0
   -2.9197   -0.2363   -3.3862 H   0  0  0  0  0  0  0  0  0  0  0  0
   -2.1323   -2.2516   -3.5270 C   0  0  0  0  0  0  0  0  0  0  0  0
   -2.8922   -2.4967   -2.9193 H   0  0  0  0  0  0  0  0  0  0  0  0
   -2.3534   -2.5487   -4.4594 H   0  0  0  0  0  0  0  0  0  0  0  0
   -0.8963   -2.9582   -3.0712 N   0  0  0  0  0  4  0  0  0  0  0  0
   -1.1392   -3.8730   -2.7541 H   0  0  0  0  0  0  0  0  0  0  0  0
   -0.2560   -3.0252   -3.8341 H   0  0  0  0  0  0  0  0  0  0  0  0
   -0.4797   -2.4419   -2.3254 H   0  0  0  0  0  0  0  0  0  0  0  0
   -0.0051    2.9221    0.0200 C   0  0  0  0  0  0  0  0  0  0  0  0
   -0.8315    3.2287   -0.4250 H   0  0  0  0  0  0  0  0  0  0  0  0
    0.8014    3.2350   -0.4573 H   0  0  0  0  0  0  0  0  0  0  0  0
    0.0134    3.3513    1.0219 H   0  0  0  0  0  0  0  0  0  0  0  0
   -0.0000    1.4122    0.0022 C   0  0  0  0  0  0  0  0  0  0  0  0
   -1.2082    0.6961    0.0014 C   0  0  0  0  0  0  0  0  0  0  0  0
   -2.0709    1.1846    0.0010 H   0  0  0  0  0  0  0  0  0  0  0  0
   -1.2113   -0.7064    0.0000 C   0  0  0  0  0  0  0  0  0  0  0  0
   -2.0831   -1.1989   -0.0007 H   0  0  0  0  0  0  0  0  0  0  0  0
    0.0014   -1.4036    0.0017 C   0  0  0  0  0  0  0  0  0  0  0  0
    0.0007   -2.3988    0.0034 H   0  0  0  0  0  0  0  0  0  0  0  0
    1.2113   -0.6989   -0.0000 C   0  0  0  0  0  0  0  0  0  0  0  0
    2.0900   -1.1959    0.0034 H   0  0  0  0  0  0  0  0  0  0  0  0
    1.2068    0.7006   -0.0052 C   0  0  0  0  0  0  0  0  0  0  0  0
    2.0702    1.1968   -0.0152 H   0  0  0  0  0  0  0  0  0  0  0  0
  1  5  1  0
  5  8  1  0
  1  2  1  0
  1  3  1  0
  1  4  1  0
  5  6  1  0
  5  7  1  0
  8  9  1  0
  8 10  1  0
  8 11  1  0
 12 16  1  0
 16 17  2  0
 17 19  1  0
 19 21  2  0
 21 23  1  0
 23 25  2  0
 25 16  1  0
 12 13  1  0
 12 14  1  0
 12 15  1  0
 17 18  1  0
 19 20  1  0
 21 22  1  0
 23 24  1  0
 25 26  1  0
M  CHG  1   8   1
M  END
>  <PDB_ID>  (909) 
pdb2r2d

>  <RESIDUE_NAME>  (909) 
LYS   PHE

>  <FRAG_NAME>  (909) 
ETAM   MBZ

>  <FRAG_ATOM_NUM>  (909) 
fragi: 11  fragj: 15

>  <atom.prop.CHAIN_ID>  (909) 
A A A A A A A A A A A Z Z Z Z Z Z Z Z Z Z Z Z Z Z Z

>  <atom.prop.IS_HEAVY_ATOM>  (909) 
1 0 0 0 1 0 0 1 0 0 0 1 0 0 0 1 1 0 1 0 1 0 1 0 1 0

>  <DIFUSE_FUNC_ATOM>  (909) 
n/a

>  <FINAL_SINGLE_POINT_ENERGY>  (909) 
0

>  <NONCOV_INTER_ENERGY_QM>  (909) 
0

>  <FF_Energy>  (909) 
-3.61

>  <QM_Energy>  (909) 
-10.5

>  <source>  (909) 
ETAM_MBZ

>  <Index>  (909) 
9014

$$$$
ETAM-pdb2r3z-D-LYS-62:MBZ-pdb2r3z-A-PHE-68
     RDKit          3D

 26 25  0  0  0  0  0  0  0  0999 V2000
   -3.2570   -3.2546    0.7645 C   0  0  0  0  0  0  0  0  0  0  0  0
   -2.8804   -2.7344    0.0110 H   0  0  0  0  0  0  0  0  0  0  0  0
   -4.1933   -3.5185    0.5845 H   0  0  0  0  0  0  0  0  0  0  0  0
   -2.6559   -4.1518    0.9119 H   0  0  0  0  0  0  0  0  0  0  0  0
   -3.2291   -2.3869    2.0163 C   0  0  0  0  0  0  0  0  0  0  0  0
   -3.4582   -2.9629    2.8165 H   0  0  0  0  0  0  0  0  0  0  0  0
   -2.2885   -2.0378    2.1497 H   0  0  0  0  0  0  0  0  0  0  0  0
   -4.1718   -1.2248    1.9735 N   0  0  0  0  0  4  0  0  0  0  0  0
   -3.7566   -0.4862    1.4451 H   0  0  0  0  0  0  0  0  0  0  0  0
   -5.0248   -1.5109    1.5420 H   0  0  0  0  0  0  0  0  0  0  0  0
   -4.3517   -0.9151    2.9051 H   0  0  0  0  0  0  0  0  0  0  0  0
   -0.0261    2.9157    0.1188 C   0  0  0  0  0  0  0  0  0  0  0  0
   -0.4213    3.1665    0.9915 H   0  0  0  0  0  0  0  0  0  0  0  0
   -0.5760    3.2551   -0.6318 H   0  0  0  0  0  0  0  0  0  0  0  0
    0.9521    3.3919    0.0513 H   0  0  0  0  0  0  0  0  0  0  0  0
   -0.0012    1.4078    0.0345 C   0  0  0  0  0  0  0  0  0  0  0  0
   -1.2009    0.6931   -0.0025 C   0  0  0  0  0  0  0  0  0  0  0  0
   -2.0666    1.1815   -0.0325 H   0  0  0  0  0  0  0  0  0  0  0  0
   -1.2045   -0.7034    0.0000 C   0  0  0  0  0  0  0  0  0  0  0  0
   -2.0784   -1.1967    0.0238 H   0  0  0  0  0  0  0  0  0  0  0  0
    0.0018   -1.3984   -0.0280 C   0  0  0  0  0  0  0  0  0  0  0  0
    0.0014   -2.3943   -0.0681 H   0  0  0  0  0  0  0  0  0  0  0  0
    1.2045   -0.6962    0.0000 C   0  0  0  0  0  0  0  0  0  0  0  0
    2.0856   -1.1934    0.0254 H   0  0  0  0  0  0  0  0  0  0  0  0
    1.2003    0.6972   -0.0041 C   0  0  0  0  0  0  0  0  0  0  0  0
    2.0658    1.1942   -0.0355 H   0  0  0  0  0  0  0  0  0  0  0  0
  1  5  1  0
  5  8  1  0
  1  2  1  0
  1  3  1  0
  1  4  1  0
  5  6  1  0
  5  7  1  0
  8  9  1  0
  8 10  1  0
  8 11  1  0
 12 16  1  0
 16 17  2  0
 17 19  1  0
 19 21  2  0
 21 23  1  0
 23 25  2  0
 25 16  1  0
 12 13  1  0
 12 14  1  0
 12 15  1  0
 17 18  1  0
 19 20  1  0
 21 22  1  0
 23 24  1  0
 25 26  1  0
M  CHG  1   8   1
M  END
>  <PDB_ID>  (910) 
pdb2r3z

>  <RESIDUE_NAME>  (910) 
LYS   PHE

>  <FRAG_NAME>  (910) 
ETAM   MBZ

>  <FRAG_ATOM_NUM>  (910) 
fragi: 11  fragj: 15

>  <atom.prop.CHAIN_ID>  (910) 
A A A A A A A A A A A Z Z Z Z Z Z Z Z Z Z Z Z Z Z Z

>  <atom.prop.IS_HEAVY_ATOM>  (910) 
1 0 0 0 1 0 0 1 0 0 0 1 0 0 0 1 1 0 1 0 1 0 1 0 1 0

>  <DIFUSE_FUNC_ATOM>  (910) 
n/a

>  <FINAL_SINGLE_POINT_ENERGY>  (910) 
0

>  <NONCOV_INTER_ENERGY_QM>  (910) 
0

>  <FF_Energy>  (910) 
7.03

>  <QM_Energy>  (910) 
-3.25

>  <source>  (910) 
ETAM_MBZ

>  <Index>  (910) 
9038

$$$$
ETAM-pdb1nlq-B-LYS-68:MBZ-pdb1nlq-B-PHE-48
     RDKit          3D

 26 25  0  0  0  0  0  0  0  0999 V2000
    0.1282   -0.2448    3.6403 C   0  0  0  0  0  0  0  0  0  0  0  0
   -0.7519   -0.0722    4.0836 H   0  0  0  0  0  0  0  0  0  0  0  0
    0.1064    0.1158    2.7065 H   0  0  0  0  0  0  0  0  0  0  0  0
    0.9084    0.2733    4.1980 H   0  0  0  0  0  0  0  0  0  0  0  0
    0.3521   -1.7397    3.5762 C   0  0  0  0  0  0  0  0  0  0  0  0
    1.0969   -1.9361    2.9477 H   0  0  0  0  0  0  0  0  0  0  0  0
    0.5667   -2.0823    4.4844 H   0  0  0  0  0  0  0  0  0  0  0  0
   -0.8930   -2.4176    3.0829 N   0  0  0  0  0  4  0  0  0  0  0  0
   -0.7348   -3.4017    3.0468 H   0  0  0  0  0  0  0  0  0  0  0  0
   -1.6424   -2.2167    3.7096 H   0  0  0  0  0  0  0  0  0  0  0  0
   -1.1107   -2.0745    2.1715 H   0  0  0  0  0  0  0  0  0  0  0  0
    0.0048    2.9033   -0.0040 C   0  0  0  0  0  0  0  0  0  0  0  0
   -0.9280    3.2162   -0.1150 H   0  0  0  0  0  0  0  0  0  0  0  0
    0.5759    3.2072   -0.7526 H   0  0  0  0  0  0  0  0  0  0  0  0
    0.3955    3.3489    0.9108 H   0  0  0  0  0  0  0  0  0  0  0  0
   -0.0017    1.4035    0.0000 C   0  0  0  0  0  0  0  0  0  0  0  0
   -1.1944    0.6973   -0.0009 C   0  0  0  0  0  0  0  0  0  0  0  0
   -2.0627    1.1846   -0.0036 H   0  0  0  0  0  0  0  0  0  0  0  0
   -1.1987   -0.6951   -0.0000 C   0  0  0  0  0  0  0  0  0  0  0  0
   -2.0764   -1.1879    0.0021 H   0  0  0  0  0  0  0  0  0  0  0  0
    0.0018   -1.3945    0.0005 C   0  0  0  0  0  0  0  0  0  0  0  0
   -0.0066   -2.3936    0.0007 H   0  0  0  0  0  0  0  0  0  0  0  0
    1.1987   -0.7026   -0.0000 C   0  0  0  0  0  0  0  0  0  0  0  0
    2.0820   -1.1973    0.0009 H   0  0  0  0  0  0  0  0  0  0  0  0
    1.1944    0.6914    0.0004 C   0  0  0  0  0  0  0  0  0  0  0  0
    2.0636    1.1858   -0.0004 H   0  0  0  0  0  0  0  0  0  0  0  0
  1  5  1  0
  5  8  1  0
  1  2  1  0
  1  3  1  0
  1  4  1  0
  5  6  1  0
  5  7  1  0
  8  9  1  0
  8 10  1  0
  8 11  1  0
 12 16  1  0
 16 17  2  0
 17 19  1  0
 19 21  2  0
 21 23  1  0
 23 25  2  0
 25 16  1  0
 12 13  1  0
 12 14  1  0
 12 15  1  0
 17 18  1  0
 19 20  1  0
 21 22  1  0
 23 24  1  0
 25 26  1  0
M  CHG  1   8   1
M  END
>  <PDB_ID>  (911) 
pdb1nlq

>  <RESIDUE_NAME>  (911) 
LYS   PHE

>  <FRAG_NAME>  (911) 
ETAM   MBZ

>  <FRAG_ATOM_NUM>  (911) 
fragi: 11  fragj: 15

>  <atom.prop.CHAIN_ID>  (911) 
A A A A A A A A A A A Z Z Z Z Z Z Z Z Z Z Z Z Z Z Z

>  <atom.prop.IS_HEAVY_ATOM>  (911) 
1 0 0 0 1 0 0 1 0 0 0 1 0 0 0 1 1 0 1 0 1 0 1 0 1 0

>  <DIFUSE_FUNC_ATOM>  (911) 
n/a

>  <FINAL_SINGLE_POINT_ENERGY>  (911) 
0

>  <NONCOV_INTER_ENERGY_QM>  (911) 
0

>  <FF_Energy>  (911) 
-5.23

>  <QM_Energy>  (911) 
-13.51

>  <source>  (911) 
ETAM_MBZ

>  <Index>  (911) 
9076

$$$$
ETAM-pdb1nlq-C-LYS-68:MBZ-pdb1nlq-C-PHE-48
     RDKit          3D

 26 25  0  0  0  0  0  0  0  0999 V2000
    0.2881   -0.3618    3.6410 C   0  0  0  0  0  0  0  0  0  0  0  0
   -0.5849   -0.2248    4.1012 H   0  0  0  0  0  0  0  0  0  0  0  0
    0.2367   -0.0356    2.7020 H   0  0  0  0  0  0  0  0  0  0  0  0
    1.0478    0.2171    4.1663 H   0  0  0  0  0  0  0  0  0  0  0  0
    0.6127   -1.8408    3.6309 C   0  0  0  0  0  0  0  0  0  0  0  0
    1.2817   -2.0292    2.9190 H   0  0  0  0  0  0  0  0  0  0  0  0
    0.9698   -2.1083    4.5200 H   0  0  0  0  0  0  0  0  0  0  0  0
   -0.6320   -2.6389    3.3493 N   0  0  0  0  0  4  0  0  0  0  0  0
   -1.1298   -2.7725    4.2020 H   0  0  0  0  0  0  0  0  0  0  0  0
   -1.1977   -2.1376    2.6989 H   0  0  0  0  0  0  0  0  0  0  0  0
   -0.3706   -3.5211    2.9654 H   0  0  0  0  0  0  0  0  0  0  0  0
    0.0085    2.9038   -0.0254 C   0  0  0  0  0  0  0  0  0  0  0  0
   -0.9292    3.2133   -0.1022 H   0  0  0  0  0  0  0  0  0  0  0  0
    0.5459    3.1973   -0.8032 H   0  0  0  0  0  0  0  0  0  0  0  0
    0.4376    3.3601    0.8666 H   0  0  0  0  0  0  0  0  0  0  0  0
    0.0039    1.4063   -0.0007 C   0  0  0  0  0  0  0  0  0  0  0  0
   -1.1978    0.7019    0.0011 C   0  0  0  0  0  0  0  0  0  0  0  0
   -2.0623    1.1908    0.0019 H   0  0  0  0  0  0  0  0  0  0  0  0
   -1.2037   -0.6966   -0.0000 C   0  0  0  0  0  0  0  0  0  0  0  0
   -2.0849   -1.1840    0.0019 H   0  0  0  0  0  0  0  0  0  0  0  0
   -0.0076   -1.4010   -0.0012 C   0  0  0  0  0  0  0  0  0  0  0  0
   -0.0116   -2.3971   -0.0035 H   0  0  0  0  0  0  0  0  0  0  0  0
    1.2037   -0.7035    0.0000 C   0  0  0  0  0  0  0  0  0  0  0  0
    2.0805   -1.2034    0.0019 H   0  0  0  0  0  0  0  0  0  0  0  0
    1.2015    0.6928    0.0008 C   0  0  0  0  0  0  0  0  0  0  0  0
    2.0703    1.1862    0.0011 H   0  0  0  0  0  0  0  0  0  0  0  0
  1  5  1  0
  5  8  1  0
  1  2  1  0
  1  3  1  0
  1  4  1  0
  5  6  1  0
  5  7  1  0
  8  9  1  0
  8 10  1  0
  8 11  1  0
 12 16  1  0
 16 17  2  0
 17 19  1  0
 19 21  2  0
 21 23  1  0
 23 25  2  0
 25 16  1  0
 12 13  1  0
 12 14  1  0
 12 15  1  0
 17 18  1  0
 19 20  1  0
 21 22  1  0
 23 24  1  0
 25 26  1  0
M  CHG  1   8   1
M  END
>  <PDB_ID>  (912) 
pdb1nlq

>  <RESIDUE_NAME>  (912) 
LYS   PHE

>  <FRAG_NAME>  (912) 
ETAM   MBZ

>  <FRAG_ATOM_NUM>  (912) 
fragi: 11  fragj: 15

>  <atom.prop.CHAIN_ID>  (912) 
A A A A A A A A A A A Z Z Z Z Z Z Z Z Z Z Z Z Z Z Z

>  <atom.prop.IS_HEAVY_ATOM>  (912) 
1 0 0 0 1 0 0 1 0 0 0 1 0 0 0 1 1 0 1 0 1 0 1 0 1 0

>  <DIFUSE_FUNC_ATOM>  (912) 
n/a

>  <FINAL_SINGLE_POINT_ENERGY>  (912) 
0

>  <NONCOV_INTER_ENERGY_QM>  (912) 
0

>  <FF_Energy>  (912) 
-4.69

>  <QM_Energy>  (912) 
-11.43

>  <source>  (912) 
ETAM_MBZ

>  <Index>  (912) 
9077

$$$$
ETAM-pdb2r60-A-LYS-142:MBZ-pdb2r60-A-PHE-120
     RDKit          3D

 26 25  0  0  0  0  0  0  0  0999 V2000
    1.3584   -2.0923   -3.9119 C   0  0  0  0  0  0  0  0  0  0  0  0
    1.2901   -2.1914   -4.8960 H   0  0  0  0  0  0  0  0  0  0  0  0
    1.1015   -2.9316   -3.4521 H   0  0  0  0  0  0  0  0  0  0  0  0
    2.3900   -1.8525   -3.6543 H   0  0  0  0  0  0  0  0  0  0  0  0
    0.4105   -0.9819   -3.4661 C   0  0  0  0  0  0  0  0  0  0  0  0
    0.4647   -0.8924   -2.4636 H   0  0  0  0  0  0  0  0  0  0  0  0
    0.7142   -0.1125   -3.8758 H   0  0  0  0  0  0  0  0  0  0  0  0
   -1.0125   -1.2307   -3.8550 N   0  0  0  0  0  4  0  0  0  0  0  0
   -1.5307   -1.4998   -3.0457 H   0  0  0  0  0  0  0  0  0  0  0  0
   -1.3973   -0.3947   -4.2411 H   0  0  0  0  0  0  0  0  0  0  0  0
   -1.0435   -1.9616   -4.5344 H   0  0  0  0  0  0  0  0  0  0  0  0
    0.0121    2.8933    0.0227 C   0  0  0  0  0  0  0  0  0  0  0  0
   -0.6871    3.2187   -0.5982 H   0  0  0  0  0  0  0  0  0  0  0  0
    0.9102    3.2012   -0.2570 H   0  0  0  0  0  0  0  0  0  0  0  0
   -0.1925    3.3222    1.0037 H   0  0  0  0  0  0  0  0  0  0  0  0
    0.0011    1.3986    0.0001 C   0  0  0  0  0  0  0  0  0  0  0  0
   -1.1957    0.6964    0.0003 C   0  0  0  0  0  0  0  0  0  0  0  0
   -2.0611    1.1866   -0.0008 H   0  0  0  0  0  0  0  0  0  0  0  0
   -1.1994   -0.6925    0.0000 C   0  0  0  0  0  0  0  0  0  0  0  0
   -2.0781   -1.1855    0.0012 H   0  0  0  0  0  0  0  0  0  0  0  0
   -0.0025   -1.3902    0.0003 C   0  0  0  0  0  0  0  0  0  0  0  0
   -0.0088   -2.3900    0.0001 H   0  0  0  0  0  0  0  0  0  0  0  0
    1.1994   -0.6999    0.0000 C   0  0  0  0  0  0  0  0  0  0  0  0
    2.0786   -1.2005    0.0012 H   0  0  0  0  0  0  0  0  0  0  0  0
    1.1971    0.6876   -0.0006 C   0  0  0  0  0  0  0  0  0  0  0  0
    2.0654    1.1839   -0.0021 H   0  0  0  0  0  0  0  0  0  0  0  0
  1  5  1  0
  5  8  1  0
  1  2  1  0
  1  3  1  0
  1  4  1  0
  5  6  1  0
  5  7  1  0
  8  9  1  0
  8 10  1  0
  8 11  1  0
 12 16  1  0
 16 17  2  0
 17 19  1  0
 19 21  2  0
 21 23  1  0
 23 25  2  0
 25 16  1  0
 12 13  1  0
 12 14  1  0
 12 15  1  0
 17 18  1  0
 19 20  1  0
 21 22  1  0
 23 24  1  0
 25 26  1  0
M  CHG  1   8   1
M  END
>  <PDB_ID>  (913) 
pdb2r60

>  <RESIDUE_NAME>  (913) 
LYS   PHE

>  <FRAG_NAME>  (913) 
ETAM   MBZ

>  <FRAG_ATOM_NUM>  (913) 
fragi: 11  fragj: 15

>  <atom.prop.CHAIN_ID>  (913) 
A A A A A A A A A A A Z Z Z Z Z Z Z Z Z Z Z Z Z Z Z

>  <atom.prop.IS_HEAVY_ATOM>  (913) 
1 0 0 0 1 0 0 1 0 0 0 1 0 0 0 1 1 0 1 0 1 0 1 0 1 0

>  <DIFUSE_FUNC_ATOM>  (913) 
n/a

>  <FINAL_SINGLE_POINT_ENERGY>  (913) 
0

>  <NONCOV_INTER_ENERGY_QM>  (913) 
0

>  <FF_Energy>  (913) 
-4.5

>  <QM_Energy>  (913) 
-10.64

>  <source>  (913) 
ETAM_MBZ

>  <Index>  (913) 
9078

$$$$
ETAM-pdb2r68-A-LYS-293:MBZ-pdb2r68-A-PHE-422
     RDKit          3D

 26 25  0  0  0  0  0  0  0  0999 V2000
    0.4895    3.6867    3.1452 C   0  0  0  0  0  0  0  0  0  0  0  0
    1.4575    3.5835    2.9346 H   0  0  0  0  0  0  0  0  0  0  0  0
   -0.0571    3.5413    2.3254 H   0  0  0  0  0  0  0  0  0  0  0  0
    0.2104    2.9442    3.8928 H   0  0  0  0  0  0  0  0  0  0  0  0
    0.2500    5.1016    3.6415 C   0  0  0  0  0  0  0  0  0  0  0  0
   -0.6682    5.1537    4.0458 H   0  0  0  0  0  0  0  0  0  0  0  0
    0.9271    5.3169    4.3512 H   0  0  0  0  0  0  0  0  0  0  0  0
    0.3571    6.1028    2.5459 N   0  0  0  0  0  4  0  0  0  0  0  0
    0.9564    5.7477    1.8289 H   0  0  0  0  0  0  0  0  0  0  0  0
   -0.5512    6.2779    2.1671 H   0  0  0  0  0  0  0  0  0  0  0  0
    0.7377    6.9523    2.9094 H   0  0  0  0  0  0  0  0  0  0  0  0
    0.0104    2.9223    0.0369 C   0  0  0  0  0  0  0  0  0  0  0  0
    0.9538    3.2217    0.0386 H   0  0  0  0  0  0  0  0  0  0  0  0
   -0.4560    3.2110    0.8612 H   0  0  0  0  0  0  0  0  0  0  0  0
   -0.4852    3.4023   -0.8069 H   0  0  0  0  0  0  0  0  0  0  0  0
   -0.0004    1.4121   -0.0001 C   0  0  0  0  0  0  0  0  0  0  0  0
   -1.1986    0.7051    0.0007 C   0  0  0  0  0  0  0  0  0  0  0  0
   -2.0649    1.1894    0.0007 H   0  0  0  0  0  0  0  0  0  0  0  0
   -1.2041   -0.6999   -0.0000 C   0  0  0  0  0  0  0  0  0  0  0  0
   -2.0813   -1.1877    0.0010 H   0  0  0  0  0  0  0  0  0  0  0  0
    0.0013   -1.4052    0.0005 C   0  0  0  0  0  0  0  0  0  0  0  0
   -0.0076   -2.4006    0.0004 H   0  0  0  0  0  0  0  0  0  0  0  0
    1.2041   -0.7081   -0.0000 C   0  0  0  0  0  0  0  0  0  0  0  0
    2.0853   -1.1990    0.0018 H   0  0  0  0  0  0  0  0  0  0  0  0
    1.1977    0.6960   -0.0010 C   0  0  0  0  0  0  0  0  0  0  0  0
    2.0674    1.1879   -0.0031 H   0  0  0  0  0  0  0  0  0  0  0  0
  1  5  1  0
  5  8  1  0
  1  2  1  0
  1  3  1  0
  1  4  1  0
  5  6  1  0
  5  7  1  0
  8  9  1  0
  8 10  1  0
  8 11  1  0
 12 16  1  0
 16 17  2  0
 17 19  1  0
 19 21  2  0
 21 23  1  0
 23 25  2  0
 25 16  1  0
 12 13  1  0
 12 14  1  0
 12 15  1  0
 17 18  1  0
 19 20  1  0
 21 22  1  0
 23 24  1  0
 25 26  1  0
M  CHG  1   8   1
M  END
>  <PDB_ID>  (914) 
pdb2r68

>  <RESIDUE_NAME>  (914) 
LYS   PHE

>  <FRAG_NAME>  (914) 
ETAM   MBZ

>  <FRAG_ATOM_NUM>  (914) 
fragi: 11  fragj: 15

>  <atom.prop.CHAIN_ID>  (914) 
A A A A A A A A A A A Z Z Z Z Z Z Z Z Z Z Z Z Z Z Z

>  <atom.prop.IS_HEAVY_ATOM>  (914) 
1 0 0 0 1 0 0 1 0 0 0 1 0 0 0 1 1 0 1 0 1 0 1 0 1 0

>  <DIFUSE_FUNC_ATOM>  (914) 
n/a

>  <FINAL_SINGLE_POINT_ENERGY>  (914) 
0

>  <NONCOV_INTER_ENERGY_QM>  (914) 
0

>  <FF_Energy>  (914) 
18.25

>  <QM_Energy>  (914) 
2.15

>  <source>  (914) 
ETAM_MBZ

>  <Index>  (914) 
9085

$$$$
ETAM-pdb1nnj-A-LYS-47:MBZ-pdb1nnj-A-PHE-67
     RDKit          3D

 26 25  0  0  0  0  0  0  0  0999 V2000
    6.1891   -0.5310    1.1741 C   0  0  0  0  0  0  0  0  0  0  0  0
    6.0798   -0.0474    0.3124 H   0  0  0  0  0  0  0  0  0  0  0  0
    7.1523   -0.6259    1.3993 H   0  0  0  0  0  0  0  0  0  0  0  0
    5.6922    0.0329    1.9635 H   0  0  0  0  0  0  0  0  0  0  0  0
    5.5888   -1.9266    1.0245 C   0  0  0  0  0  0  0  0  0  0  0  0
    6.1211   -2.4355    0.3429 H   0  0  0  0  0  0  0  0  0  0  0  0
    5.6498   -2.4008    1.9066 H   0  0  0  0  0  0  0  0  0  0  0  0
    4.1640   -1.8730    0.5939 N   0  0  0  0  0  4  0  0  0  0  0  0
    3.5738   -2.0555    1.3791 H   0  0  0  0  0  0  0  0  0  0  0  0
    3.9625   -0.9653    0.2273 H   0  0  0  0  0  0  0  0  0  0  0  0
    4.0056   -2.5625   -0.1121 H   0  0  0  0  0  0  0  0  0  0  0  0
    0.0090    2.9001    0.0348 C   0  0  0  0  0  0  0  0  0  0  0  0
    0.9506    3.2037    0.0389 H   0  0  0  0  0  0  0  0  0  0  0  0
   -0.4639    3.1925    0.8534 H   0  0  0  0  0  0  0  0  0  0  0  0
   -0.4864    3.3628   -0.8188 H   0  0  0  0  0  0  0  0  0  0  0  0
    0.0012    1.4038    0.0009 C   0  0  0  0  0  0  0  0  0  0  0  0
   -1.2010    0.6961   -0.0012 C   0  0  0  0  0  0  0  0  0  0  0  0
   -2.0652    1.1843   -0.0043 H   0  0  0  0  0  0  0  0  0  0  0  0
   -1.2062   -0.7039    0.0000 C   0  0  0  0  0  0  0  0  0  0  0  0
   -2.0793   -1.1957    0.0007 H   0  0  0  0  0  0  0  0  0  0  0  0
    0.0021   -1.3985    0.0020 C   0  0  0  0  0  0  0  0  0  0  0  0
    0.0019   -2.3952    0.0048 H   0  0  0  0  0  0  0  0  0  0  0  0
    1.2062   -0.6950    0.0000 C   0  0  0  0  0  0  0  0  0  0  0  0
    2.0871   -1.1918    0.0015 H   0  0  0  0  0  0  0  0  0  0  0  0
    1.1978    0.6975   -0.0017 C   0  0  0  0  0  0  0  0  0  0  0  0
    2.0663    1.1946   -0.0060 H   0  0  0  0  0  0  0  0  0  0  0  0
  1  5  1  0
  5  8  1  0
  1  2  1  0
  1  3  1  0
  1  4  1  0
  5  6  1  0
  5  7  1  0
  8  9  1  0
  8 10  1  0
  8 11  1  0
 12 16  1  0
 16 17  2  0
 17 19  1  0
 19 21  2  0
 21 23  1  0
 23 25  2  0
 25 16  1  0
 12 13  1  0
 12 14  1  0
 12 15  1  0
 17 18  1  0
 19 20  1  0
 21 22  1  0
 23 24  1  0
 25 26  1  0
M  CHG  1   8   1
M  END
>  <PDB_ID>  (915) 
pdb1nnj

>  <RESIDUE_NAME>  (915) 
LYS   PHE

>  <FRAG_NAME>  (915) 
ETAM   MBZ

>  <FRAG_ATOM_NUM>  (915) 
fragi: 11  fragj: 15

>  <atom.prop.CHAIN_ID>  (915) 
A A A A A A A A A A A Z Z Z Z Z Z Z Z Z Z Z Z Z Z Z

>  <atom.prop.IS_HEAVY_ATOM>  (915) 
1 0 0 0 1 0 0 1 0 0 0 1 0 0 0 1 1 0 1 0 1 0 1 0 1 0

>  <DIFUSE_FUNC_ATOM>  (915) 
n/a

>  <FINAL_SINGLE_POINT_ENERGY>  (915) 
0

>  <NONCOV_INTER_ENERGY_QM>  (915) 
0

>  <FF_Energy>  (915) 
5.83

>  <QM_Energy>  (915) 
-1.7

>  <source>  (915) 
ETAM_MBZ

>  <Index>  (915) 
9097

$$$$
ETAM-pdb1nkq-B-LYS-442:MBZ-pdb1nkq-B-PHE-337
     RDKit          3D

 26 25  0  0  0  0  0  0  0  0999 V2000
   -1.8760   -1.6082   -3.5711 C   0  0  0  0  0  0  0  0  0  0  0  0
   -2.1854   -1.7859   -2.6433 H   0  0  0  0  0  0  0  0  0  0  0  0
   -2.3030   -2.2423   -4.2074 H   0  0  0  0  0  0  0  0  0  0  0  0
   -2.1417   -0.5879   -3.8476 H   0  0  0  0  0  0  0  0  0  0  0  0
   -0.3734   -1.8108   -3.6248 C   0  0  0  0  0  0  0  0  0  0  0  0
   -0.0621   -1.6896   -4.5668 H   0  0  0  0  0  0  0  0  0  0  0  0
    0.0681   -1.1322   -3.0379 H   0  0  0  0  0  0  0  0  0  0  0  0
   -0.0111   -3.1730   -3.1596 N   0  0  0  0  0  4  0  0  0  0  0  0
    0.4278   -3.1139   -2.2624 H   0  0  0  0  0  0  0  0  0  0  0  0
   -0.8369   -3.7324   -3.0903 H   0  0  0  0  0  0  0  0  0  0  0  0
    0.6209   -3.5911   -3.8129 H   0  0  0  0  0  0  0  0  0  0  0  0
    0.0018    2.9041    0.0285 C   0  0  0  0  0  0  0  0  0  0  0  0
   -0.7499    3.2238   -0.5294 H   0  0  0  0  0  0  0  0  0  0  0  0
    0.8704    3.2167   -0.3259 H   0  0  0  0  0  0  0  0  0  0  0  0
   -0.1218    3.3268    1.0255 H   0  0  0  0  0  0  0  0  0  0  0  0
   -0.0007    1.4029   -0.0005 C   0  0  0  0  0  0  0  0  0  0  0  0
   -1.2014    0.6951    0.0005 C   0  0  0  0  0  0  0  0  0  0  0  0
   -2.0662    1.1860    0.0004 H   0  0  0  0  0  0  0  0  0  0  0  0
   -1.2066   -0.6978   -0.0000 C   0  0  0  0  0  0  0  0  0  0  0  0
   -2.0801   -1.1933    0.0001 H   0  0  0  0  0  0  0  0  0  0  0  0
    0.0027   -1.3969    0.0012 C   0  0  0  0  0  0  0  0  0  0  0  0
   -0.0026   -2.3938    0.0018 H   0  0  0  0  0  0  0  0  0  0  0  0
    1.2066   -0.6980   -0.0000 C   0  0  0  0  0  0  0  0  0  0  0  0
    2.0869   -1.1945    0.0010 H   0  0  0  0  0  0  0  0  0  0  0  0
    1.1994    0.6946   -0.0011 C   0  0  0  0  0  0  0  0  0  0  0  0
    2.0660    1.1921   -0.0027 H   0  0  0  0  0  0  0  0  0  0  0  0
  1  5  1  0
  5  8  1  0
  1  2  1  0
  1  3  1  0
  1  4  1  0
  5  6  1  0
  5  7  1  0
  8  9  1  0
  8 10  1  0
  8 11  1  0
 12 16  1  0
 16 17  2  0
 17 19  1  0
 19 21  2  0
 21 23  1  0
 23 25  2  0
 25 16  1  0
 12 13  1  0
 12 14  1  0
 12 15  1  0
 17 18  1  0
 19 20  1  0
 21 22  1  0
 23 24  1  0
 25 26  1  0
M  CHG  1   8   1
M  END
>  <PDB_ID>  (916) 
pdb1nkq

>  <RESIDUE_NAME>  (916) 
LYS   PHE

>  <FRAG_NAME>  (916) 
ETAM   MBZ

>  <FRAG_ATOM_NUM>  (916) 
fragi: 11  fragj: 15

>  <atom.prop.CHAIN_ID>  (916) 
A A A A A A A A A A A Z Z Z Z Z Z Z Z Z Z Z Z Z Z Z

>  <atom.prop.IS_HEAVY_ATOM>  (916) 
1 0 0 0 1 0 0 1 0 0 0 1 0 0 0 1 1 0 1 0 1 0 1 0 1 0

>  <DIFUSE_FUNC_ATOM>  (916) 
n/a

>  <FINAL_SINGLE_POINT_ENERGY>  (916) 
0

>  <NONCOV_INTER_ENERGY_QM>  (916) 
0

>  <FF_Energy>  (916) 
-3.5

>  <QM_Energy>  (916) 
-9.53

>  <source>  (916) 
ETAM_MBZ

>  <Index>  (916) 
9108

$$$$
ETAM-pdb1no4-B-LYS-76:MBZ-pdb1no4-B-PHE-68
     RDKit          3D

 26 25  0  0  0  0  0  0  0  0999 V2000
   -0.6692   -1.6299    5.1665 C   0  0  0  0  0  0  0  0  0  0  0  0
   -1.4602   -1.9778    4.6527 H   0  0  0  0  0  0  0  0  0  0  0  0
   -0.9555   -0.8147    5.6819 H   0  0  0  0  0  0  0  0  0  0  0  0
   -0.3394   -2.3950    5.8694 H   0  0  0  0  0  0  0  0  0  0  0  0
    0.3969   -1.2212    4.1820 C   0  0  0  0  0  0  0  0  0  0  0  0
    1.1890   -0.8627    4.6837 H   0  0  0  0  0  0  0  0  0  0  0  0
    0.6842   -2.0258    3.6545 H   0  0  0  0  0  0  0  0  0  0  0  0
   -0.1006   -0.1816    3.2505 N   0  0  0  0  0  4  0  0  0  0  0  0
    0.0123   -0.4954    2.3069 H   0  0  0  0  0  0  0  0  0  0  0  0
   -1.0694   -0.0076    3.4293 H   0  0  0  0  0  0  0  0  0  0  0  0
    0.4193    0.6633    3.3844 H   0  0  0  0  0  0  0  0  0  0  0  0
   -0.0019    2.9232    0.0376 C   0  0  0  0  0  0  0  0  0  0  0  0
   -0.6829    3.2387   -0.6014 H   0  0  0  0  0  0  0  0  0  0  0  0
    0.9019    3.2315   -0.2066 H   0  0  0  0  0  0  0  0  0  0  0  0
   -0.2441    3.3323    1.0185 H   0  0  0  0  0  0  0  0  0  0  0  0
    0.0000    1.4100    0.0012 C   0  0  0  0  0  0  0  0  0  0  0  0
   -1.1977    0.6945   -0.0003 C   0  0  0  0  0  0  0  0  0  0  0  0
   -2.0654    1.1817   -0.0029 H   0  0  0  0  0  0  0  0  0  0  0  0
   -1.2016   -0.7036    0.0000 C   0  0  0  0  0  0  0  0  0  0  0  0
   -2.0797   -1.1933    0.0018 H   0  0  0  0  0  0  0  0  0  0  0  0
   -0.0017   -1.4010   -0.0005 C   0  0  0  0  0  0  0  0  0  0  0  0
   -0.0026   -2.3980   -0.0018 H   0  0  0  0  0  0  0  0  0  0  0  0
    1.2016   -0.7001    0.0000 C   0  0  0  0  0  0  0  0  0  0  0  0
    2.0833   -1.1946    0.0021 H   0  0  0  0  0  0  0  0  0  0  0  0
    1.1995    0.7003   -0.0003 C   0  0  0  0  0  0  0  0  0  0  0  0
    2.0674    1.1920   -0.0025 H   0  0  0  0  0  0  0  0  0  0  0  0
  1  5  1  0
  5  8  1  0
  1  2  1  0
  1  3  1  0
  1  4  1  0
  5  6  1  0
  5  7  1  0
  8  9  1  0
  8 10  1  0
  8 11  1  0
 12 16  1  0
 16 17  2  0
 17 19  1  0
 19 21  2  0
 21 23  1  0
 23 25  2  0
 25 16  1  0
 12 13  1  0
 12 14  1  0
 12 15  1  0
 17 18  1  0
 19 20  1  0
 21 22  1  0
 23 24  1  0
 25 26  1  0
M  CHG  1   8   1
M  END
>  <PDB_ID>  (917) 
pdb1no4

>  <RESIDUE_NAME>  (917) 
LYS   PHE

>  <FRAG_NAME>  (917) 
ETAM   MBZ

>  <FRAG_ATOM_NUM>  (917) 
fragi: 11  fragj: 15

>  <atom.prop.CHAIN_ID>  (917) 
A A A A A A A A A A A Z Z Z Z Z Z Z Z Z Z Z Z Z Z Z

>  <atom.prop.IS_HEAVY_ATOM>  (917) 
1 0 0 0 1 0 0 1 0 0 0 1 0 0 0 1 1 0 1 0 1 0 1 0 1 0

>  <DIFUSE_FUNC_ATOM>  (917) 
n/a

>  <FINAL_SINGLE_POINT_ENERGY>  (917) 
0

>  <NONCOV_INTER_ENERGY_QM>  (917) 
0

>  <FF_Energy>  (917) 
-9.31

>  <QM_Energy>  (917) 
-17.31

>  <source>  (917) 
ETAM_MBZ

>  <Index>  (917) 
9111

$$$$
ETAM-pdb2r8q-A-LYS-867:MBZ-pdb2r8q-A-PHE-732
     RDKit          3D

 26 25  0  0  0  0  0  0  0  0999 V2000
    0.1721   -4.1683   -2.7342 C   0  0  0  0  0  0  0  0  0  0  0  0
    0.5800   -3.3535   -2.3481 H   0  0  0  0  0  0  0  0  0  0  0  0
   -0.4052   -3.9496   -3.5070 H   0  0  0  0  0  0  0  0  0  0  0  0
    0.9625   -4.8464   -3.0562 H   0  0  0  0  0  0  0  0  0  0  0  0
   -0.6868   -4.8337   -1.6618 C   0  0  0  0  0  0  0  0  0  0  0  0
   -1.0571   -5.6945   -2.0336 H   0  0  0  0  0  0  0  0  0  0  0  0
   -0.1013   -5.0582   -0.8721 H   0  0  0  0  0  0  0  0  0  0  0  0
   -1.8157   -3.9760   -1.2023 N   0  0  0  0  0  4  0  0  0  0  0  0
   -2.0986   -4.2637   -0.2886 H   0  0  0  0  0  0  0  0  0  0  0  0
   -1.5176   -3.0227   -1.1769 H   0  0  0  0  0  0  0  0  0  0  0  0
   -2.5825   -4.0707   -1.8358 H   0  0  0  0  0  0  0  0  0  0  0  0
    0.0093    2.9061    0.0258 C   0  0  0  0  0  0  0  0  0  0  0  0
    0.8615    3.2022    0.4326 H   0  0  0  0  0  0  0  0  0  0  0  0
   -0.7667    3.2071    0.5598 H   0  0  0  0  0  0  0  0  0  0  0  0
   -0.0666    3.3679   -0.9586 H   0  0  0  0  0  0  0  0  0  0  0  0
    0.0027    1.4032    0.0003 C   0  0  0  0  0  0  0  0  0  0  0  0
   -1.1978    0.6979   -0.0015 C   0  0  0  0  0  0  0  0  0  0  0  0
   -2.0630    1.1880   -0.0049 H   0  0  0  0  0  0  0  0  0  0  0  0
   -1.2054   -0.6983   -0.0000 C   0  0  0  0  0  0  0  0  0  0  0  0
   -2.0835   -1.1879    0.0007 H   0  0  0  0  0  0  0  0  0  0  0  0
   -0.0045   -1.3981    0.0021 C   0  0  0  0  0  0  0  0  0  0  0  0
   -0.0060   -2.3939    0.0046 H   0  0  0  0  0  0  0  0  0  0  0  0
    1.2054   -0.6976    0.0000 C   0  0  0  0  0  0  0  0  0  0  0  0
    2.0824   -1.1977    0.0009 H   0  0  0  0  0  0  0  0  0  0  0  0
    1.1996    0.6929   -0.0009 C   0  0  0  0  0  0  0  0  0  0  0  0
    2.0678    1.1909   -0.0030 H   0  0  0  0  0  0  0  0  0  0  0  0
  1  5  1  0
  5  8  1  0
  1  2  1  0
  1  3  1  0
  1  4  1  0
  5  6  1  0
  5  7  1  0
  8  9  1  0
  8 10  1  0
  8 11  1  0
 12 16  1  0
 16 17  2  0
 17 19  1  0
 19 21  2  0
 21 23  1  0
 23 25  2  0
 25 16  1  0
 12 13  1  0
 12 14  1  0
 12 15  1  0
 17 18  1  0
 19 20  1  0
 21 22  1  0
 23 24  1  0
 25 26  1  0
M  CHG  1   8   1
M  END
>  <PDB_ID>  (918) 
pdb2r8q

>  <RESIDUE_NAME>  (918) 
LYS   PHE

>  <FRAG_NAME>  (918) 
ETAM   MBZ

>  <FRAG_ATOM_NUM>  (918) 
fragi: 11  fragj: 15

>  <atom.prop.CHAIN_ID>  (918) 
A A A A A A A A A A A Z Z Z Z Z Z Z Z Z Z Z Z Z Z Z

>  <atom.prop.IS_HEAVY_ATOM>  (918) 
1 0 0 0 1 0 0 1 0 0 0 1 0 0 0 1 1 0 1 0 1 0 1 0 1 0

>  <DIFUSE_FUNC_ATOM>  (918) 
n/a

>  <FINAL_SINGLE_POINT_ENERGY>  (918) 
0

>  <NONCOV_INTER_ENERGY_QM>  (918) 
0

>  <FF_Energy>  (918) 
0.36

>  <QM_Energy>  (918) 
-6.72

>  <source>  (918) 
ETAM_MBZ

>  <Index>  (918) 
9113

$$$$
ETAM-pdb2r8q-B-LYS-867:MBZ-pdb2r8q-B-PHE-732
     RDKit          3D

 26 25  0  0  0  0  0  0  0  0999 V2000
    0.5240   -4.0903   -2.8618 C   0  0  0  0  0  0  0  0  0  0  0  0
    0.9198   -3.2660   -2.4793 H   0  0  0  0  0  0  0  0  0  0  0  0
   -0.0244   -3.8813   -3.6611 H   0  0  0  0  0  0  0  0  0  0  0  0
    1.3263   -4.7706   -3.1474 H   0  0  0  0  0  0  0  0  0  0  0  0
   -0.3728   -4.7292   -1.8122 C   0  0  0  0  0  0  0  0  0  0  0  0
   -0.7518   -5.5826   -2.1852 H   0  0  0  0  0  0  0  0  0  0  0  0
    0.1822   -4.9536   -1.0042 H   0  0  0  0  0  0  0  0  0  0  0  0
   -1.4903   -3.8373   -1.4032 N   0  0  0  0  0  4  0  0  0  0  0  0
   -2.0051   -4.2681   -0.6622 H   0  0  0  0  0  0  0  0  0  0  0  0
   -1.1197   -2.9629   -1.0888 H   0  0  0  0  0  0  0  0  0  0  0  0
   -2.0945   -3.6819   -2.1844 H   0  0  0  0  0  0  0  0  0  0  0  0
    0.0069    2.9134   -0.0117 C   0  0  0  0  0  0  0  0  0  0  0  0
    0.8633    3.2188    0.3761 H   0  0  0  0  0  0  0  0  0  0  0  0
   -0.7636    3.2252    0.5231 H   0  0  0  0  0  0  0  0  0  0  0  0
   -0.0817    3.3479   -1.0075 H   0  0  0  0  0  0  0  0  0  0  0  0
    0.0014    1.4060   -0.0000 C   0  0  0  0  0  0  0  0  0  0  0  0
   -1.1977    0.6983   -0.0003 C   0  0  0  0  0  0  0  0  0  0  0  0
   -2.0637    1.1868   -0.0017 H   0  0  0  0  0  0  0  0  0  0  0  0
   -1.2036   -0.6987    0.0000 C   0  0  0  0  0  0  0  0  0  0  0  0
   -2.0807   -1.1887    0.0013 H   0  0  0  0  0  0  0  0  0  0  0  0
   -0.0012   -1.3983    0.0004 C   0  0  0  0  0  0  0  0  0  0  0  0
   -0.0065   -2.3959    0.0006 H   0  0  0  0  0  0  0  0  0  0  0  0
    1.2036   -0.7017    0.0000 C   0  0  0  0  0  0  0  0  0  0  0  0
    2.0831   -1.1973    0.0013 H   0  0  0  0  0  0  0  0  0  0  0  0
    1.1974    0.6944   -0.0001 C   0  0  0  0  0  0  0  0  0  0  0  0
    2.0668    1.1894   -0.0007 H   0  0  0  0  0  0  0  0  0  0  0  0
  1  5  1  0
  5  8  1  0
  1  2  1  0
  1  3  1  0
  1  4  1  0
  5  6  1  0
  5  7  1  0
  8  9  1  0
  8 10  1  0
  8 11  1  0
 12 16  1  0
 16 17  2  0
 17 19  1  0
 19 21  2  0
 21 23  1  0
 23 25  2  0
 25 16  1  0
 12 13  1  0
 12 14  1  0
 12 15  1  0
 17 18  1  0
 19 20  1  0
 21 22  1  0
 23 24  1  0
 25 26  1  0
M  CHG  1   8   1
M  END
>  <PDB_ID>  (919) 
pdb2r8q

>  <RESIDUE_NAME>  (919) 
LYS   PHE

>  <FRAG_NAME>  (919) 
ETAM   MBZ

>  <FRAG_ATOM_NUM>  (919) 
fragi: 11  fragj: 15

>  <atom.prop.CHAIN_ID>  (919) 
A A A A A A A A A A A Z Z Z Z Z Z Z Z Z Z Z Z Z Z Z

>  <atom.prop.IS_HEAVY_ATOM>  (919) 
1 0 0 0 1 0 0 1 0 0 0 1 0 0 0 1 1 0 1 0 1 0 1 0 1 0

>  <DIFUSE_FUNC_ATOM>  (919) 
n/a

>  <FINAL_SINGLE_POINT_ENERGY>  (919) 
0

>  <NONCOV_INTER_ENERGY_QM>  (919) 
0

>  <FF_Energy>  (919) 
1.35

>  <QM_Energy>  (919) 
-6.4

>  <source>  (919) 
ETAM_MBZ

>  <Index>  (919) 
9117

$$$$
ETAM-pdb2r9z-A-LYS-51:MBZ-pdb2r9z-A-PHE-343
     RDKit          3D

 26 25  0  0  0  0  0  0  0  0999 V2000
   -1.4195   -0.7572    3.4117 C   0  0  0  0  0  0  0  0  0  0  0  0
   -1.4257    0.2292    3.2607 H   0  0  0  0  0  0  0  0  0  0  0  0
   -0.6546   -1.1702    2.9216 H   0  0  0  0  0  0  0  0  0  0  0  0
   -1.3133   -0.9567    4.4780 H   0  0  0  0  0  0  0  0  0  0  0  0
   -2.7149   -1.3346    2.8474 C   0  0  0  0  0  0  0  0  0  0  0  0
   -3.4671   -1.1015    3.4625 H   0  0  0  0  0  0  0  0  0  0  0  0
   -2.8822   -0.9342    1.9477 H   0  0  0  0  0  0  0  0  0  0  0  0
   -2.6257   -2.8167    2.7172 N   0  0  0  0  0  4  0  0  0  0  0  0
   -1.6712   -3.0801    2.5843 H   0  0  0  0  0  0  0  0  0  0  0  0
   -2.9791   -3.2436    3.5486 H   0  0  0  0  0  0  0  0  0  0  0  0
   -3.1681   -3.1125    1.9315 H   0  0  0  0  0  0  0  0  0  0  0  0
   -0.0035    2.9286   -0.0543 C   0  0  0  0  0  0  0  0  0  0  0  0
    0.8506    3.2441    0.3231 H   0  0  0  0  0  0  0  0  0  0  0  0
   -0.7748    3.2445    0.4718 H   0  0  0  0  0  0  0  0  0  0  0  0
   -0.0956    3.3373   -1.0605 H   0  0  0  0  0  0  0  0  0  0  0  0
   -0.0006    1.4164   -0.0130 C   0  0  0  0  0  0  0  0  0  0  0  0
   -1.2115    0.7012   -0.0099 C   0  0  0  0  0  0  0  0  0  0  0  0
   -2.0724    1.1896   -0.0154 H   0  0  0  0  0  0  0  0  0  0  0  0
   -1.2137   -0.7014   -0.0000 C   0  0  0  0  0  0  0  0  0  0  0  0
   -2.0785   -1.2010   -0.0132 H   0  0  0  0  0  0  0  0  0  0  0  0
    0.0148   -1.4085    0.0306 C   0  0  0  0  0  0  0  0  0  0  0  0
   -0.0043   -2.4034    0.0738 H   0  0  0  0  0  0  0  0  0  0  0  0
    1.2137   -0.7159    0.0000 C   0  0  0  0  0  0  0  0  0  0  0  0
    2.0973   -1.1915   -0.0154 H   0  0  0  0  0  0  0  0  0  0  0  0
    1.1973    0.7083   -0.0077 C   0  0  0  0  0  0  0  0  0  0  0  0
    2.0684    1.1942   -0.0101 H   0  0  0  0  0  0  0  0  0  0  0  0
  1  5  1  0
  5  8  1  0
  1  2  1  0
  1  3  1  0
  1  4  1  0
  5  6  1  0
  5  7  1  0
  8  9  1  0
  8 10  1  0
  8 11  1  0
 12 16  1  0
 16 17  2  0
 17 19  1  0
 19 21  2  0
 21 23  1  0
 23 25  2  0
 25 16  1  0
 12 13  1  0
 12 14  1  0
 12 15  1  0
 17 18  1  0
 19 20  1  0
 21 22  1  0
 23 24  1  0
 25 26  1  0
M  CHG  1   8   1
M  END
>  <PDB_ID>  (920) 
pdb2r9z

>  <RESIDUE_NAME>  (920) 
LYS   PHE

>  <FRAG_NAME>  (920) 
ETAM   MBZ

>  <FRAG_ATOM_NUM>  (920) 
fragi: 11  fragj: 15

>  <atom.prop.CHAIN_ID>  (920) 
A A A A A A A A A A A Z Z Z Z Z Z Z Z Z Z Z Z Z Z Z

>  <atom.prop.IS_HEAVY_ATOM>  (920) 
1 0 0 0 1 0 0 1 0 0 0 1 0 0 0 1 1 0 1 0 1 0 1 0 1 0

>  <DIFUSE_FUNC_ATOM>  (920) 
n/a

>  <FINAL_SINGLE_POINT_ENERGY>  (920) 
0

>  <NONCOV_INTER_ENERGY_QM>  (920) 
0

>  <FF_Energy>  (920) 
-1.09

>  <QM_Energy>  (920) 
-6.86

>  <source>  (920) 
ETAM_MBZ

>  <Index>  (920) 
9130

$$$$
ETAM-pdb2r9z-B-LYS-51:MBZ-pdb2r9z-B-PHE-343
     RDKit          3D

 26 25  0  0  0  0  0  0  0  0999 V2000
   -1.3748   -0.7428    3.4050 C   0  0  0  0  0  0  0  0  0  0  0  0
   -1.5201    0.2418    3.3426 H   0  0  0  0  0  0  0  0  0  0  0  0
   -0.5948   -1.0080    2.8432 H   0  0  0  0  0  0  0  0  0  0  0  0
   -1.1865   -1.0166    4.4431 H   0  0  0  0  0  0  0  0  0  0  0  0
   -2.6287   -1.4407    2.8265 C   0  0  0  0  0  0  0  0  0  0  0  0
   -3.3959   -1.2738    3.4489 H   0  0  0  0  0  0  0  0  0  0  0  0
   -2.8341   -1.0296    1.9357 H   0  0  0  0  0  0  0  0  0  0  0  0
   -2.4321   -2.9106    2.6622 N   0  0  0  0  0  4  0  0  0  0  0  0
   -3.3175   -3.3472    2.5108 H   0  0  0  0  0  0  0  0  0  0  0  0
   -1.8362   -3.0778    1.8777 H   0  0  0  0  0  0  0  0  0  0  0  0
   -2.0117   -3.2816    3.4893 H   0  0  0  0  0  0  0  0  0  0  0  0
    0.0129    2.9217   -0.0308 C   0  0  0  0  0  0  0  0  0  0  0  0
    0.8730    3.2331    0.3351 H   0  0  0  0  0  0  0  0  0  0  0  0
   -0.7517    3.2406    0.5024 H   0  0  0  0  0  0  0  0  0  0  0  0
   -0.0884    3.3375   -1.0332 H   0  0  0  0  0  0  0  0  0  0  0  0
    0.0086    1.4133   -0.0033 C   0  0  0  0  0  0  0  0  0  0  0  0
   -1.1936    0.7090   -0.0075 C   0  0  0  0  0  0  0  0  0  0  0  0
   -2.0591    1.1930   -0.0170 H   0  0  0  0  0  0  0  0  0  0  0  0
   -1.2055   -0.7047   -0.0000 C   0  0  0  0  0  0  0  0  0  0  0  0
   -2.0864   -1.1826   -0.0079 H   0  0  0  0  0  0  0  0  0  0  0  0
   -0.0082   -1.4076    0.0197 C   0  0  0  0  0  0  0  0  0  0  0  0
   -0.0118   -2.4026    0.0473 H   0  0  0  0  0  0  0  0  0  0  0  0
    1.2055   -0.7098    0.0000 C   0  0  0  0  0  0  0  0  0  0  0  0
    2.0811   -1.1995   -0.0060 H   0  0  0  0  0  0  0  0  0  0  0  0
    1.1932    0.6998   -0.0089 C   0  0  0  0  0  0  0  0  0  0  0  0
    2.0711    1.1860   -0.0205 H   0  0  0  0  0  0  0  0  0  0  0  0
  1  5  1  0
  5  8  1  0
  1  2  1  0
  1  3  1  0
  1  4  1  0
  5  6  1  0
  5  7  1  0
  8  9  1  0
  8 10  1  0
  8 11  1  0
 12 16  1  0
 16 17  2  0
 17 19  1  0
 19 21  2  0
 21 23  1  0
 23 25  2  0
 25 16  1  0
 12 13  1  0
 12 14  1  0
 12 15  1  0
 17 18  1  0
 19 20  1  0
 21 22  1  0
 23 24  1  0
 25 26  1  0
M  CHG  1   8   1
M  END
>  <PDB_ID>  (921) 
pdb2r9z

>  <RESIDUE_NAME>  (921) 
LYS   PHE

>  <FRAG_NAME>  (921) 
ETAM   MBZ

>  <FRAG_ATOM_NUM>  (921) 
fragi: 11  fragj: 15

>  <atom.prop.CHAIN_ID>  (921) 
A A A A A A A A A A A Z Z Z Z Z Z Z Z Z Z Z Z Z Z Z

>  <atom.prop.IS_HEAVY_ATOM>  (921) 
1 0 0 0 1 0 0 1 0 0 0 1 0 0 0 1 1 0 1 0 1 0 1 0 1 0

>  <DIFUSE_FUNC_ATOM>  (921) 
n/a

>  <FINAL_SINGLE_POINT_ENERGY>  (921) 
0

>  <NONCOV_INTER_ENERGY_QM>  (921) 
0

>  <FF_Energy>  (921) 
-0.79

>  <QM_Energy>  (921) 
-7.29

>  <source>  (921) 
ETAM_MBZ

>  <Index>  (921) 
9132

$$$$
ETAM-pdb1nou-B-LYS-374:MBZ-pdb1nou-B-PHE-386
     RDKit          3D

 26 25  0  0  0  0  0  0  0  0999 V2000
   -2.8392   -1.0203   -4.3438 C   0  0  0  0  0  0  0  0  0  0  0  0
   -3.0776   -0.2158   -3.8001 H   0  0  0  0  0  0  0  0  0  0  0  0
   -3.6343   -1.3147   -4.8727 H   0  0  0  0  0  0  0  0  0  0  0  0
   -2.0469   -0.7427   -5.0390 H   0  0  0  0  0  0  0  0  0  0  0  0
   -2.4410   -2.1497   -3.3944 C   0  0  0  0  0  0  0  0  0  0  0  0
   -2.4168   -3.0085   -3.9025 H   0  0  0  0  0  0  0  0  0  0  0  0
   -1.5367   -1.9556   -3.0178 H   0  0  0  0  0  0  0  0  0  0  0  0
   -3.4231   -2.2797   -2.2612 N   0  0  0  0  0  4  0  0  0  0  0  0
   -3.1560   -1.6575   -1.5296 H   0  0  0  0  0  0  0  0  0  0  0  0
   -4.3329   -2.0447   -2.5940 H   0  0  0  0  0  0  0  0  0  0  0  0
   -3.4130   -3.2200   -1.9309 H   0  0  0  0  0  0  0  0  0  0  0  0
   -0.0079    2.8810    0.0235 C   0  0  0  0  0  0  0  0  0  0  0  0
   -0.7556    3.1902   -0.5439 H   0  0  0  0  0  0  0  0  0  0  0  0
    0.8618    3.1952   -0.3253 H   0  0  0  0  0  0  0  0  0  0  0  0
   -0.1433    3.3067    1.0178 H   0  0  0  0  0  0  0  0  0  0  0  0
   -0.0011    1.3820    0.0076 C   0  0  0  0  0  0  0  0  0  0  0  0
   -1.1905    0.6846    0.0090 C   0  0  0  0  0  0  0  0  0  0  0  0
   -2.0570    1.1803    0.0153 H   0  0  0  0  0  0  0  0  0  0  0  0
   -1.1948   -0.6883    0.0000 C   0  0  0  0  0  0  0  0  0  0  0  0
   -2.0728   -1.1875   -0.0000 H   0  0  0  0  0  0  0  0  0  0  0  0
   -0.0026   -1.3734   -0.0070 C   0  0  0  0  0  0  0  0  0  0  0  0
   -0.0011   -2.3774   -0.0178 H   0  0  0  0  0  0  0  0  0  0  0  0
    1.1948   -0.6816   -0.0000 C   0  0  0  0  0  0  0  0  0  0  0  0
    2.0746   -1.1951    0.0138 H   0  0  0  0  0  0  0  0  0  0  0  0
    1.1942    0.6768   -0.0096 C   0  0  0  0  0  0  0  0  0  0  0  0
    2.0589    1.1873   -0.0302 H   0  0  0  0  0  0  0  0  0  0  0  0
  1  5  1  0
  5  8  1  0
  1  2  1  0
  1  3  1  0
  1  4  1  0
  5  6  1  0
  5  7  1  0
  8  9  1  0
  8 10  1  0
  8 11  1  0
 12 16  1  0
 16 17  2  0
 17 19  1  0
 19 21  2  0
 21 23  1  0
 23 25  2  0
 25 16  1  0
 12 13  1  0
 12 14  1  0
 12 15  1  0
 17 18  1  0
 19 20  1  0
 21 22  1  0
 23 24  1  0
 25 26  1  0
M  CHG  1   8   1
M  END
>  <PDB_ID>  (922) 
pdb1nou

>  <RESIDUE_NAME>  (922) 
LYS   PHE

>  <FRAG_NAME>  (922) 
ETAM   MBZ

>  <FRAG_ATOM_NUM>  (922) 
fragi: 11  fragj: 15

>  <atom.prop.CHAIN_ID>  (922) 
A A A A A A A A A A A Z Z Z Z Z Z Z Z Z Z Z Z Z Z Z

>  <atom.prop.IS_HEAVY_ATOM>  (922) 
1 0 0 0 1 0 0 1 0 0 0 1 0 0 0 1 1 0 1 0 1 0 1 0 1 0

>  <DIFUSE_FUNC_ATOM>  (922) 
n/a

>  <FINAL_SINGLE_POINT_ENERGY>  (922) 
0

>  <NONCOV_INTER_ENERGY_QM>  (922) 
0

>  <FF_Energy>  (922) 
-0.75

>  <QM_Energy>  (922) 
-6.29

>  <source>  (922) 
ETAM_MBZ

>  <Index>  (922) 
9137

$$$$
ETAM-pdb1nou-B-LYS-390:MBZ-pdb1nou-B-PHE-386
     RDKit          3D

 26 25  0  0  0  0  0  0  0  0999 V2000
    0.9025   -2.0522    3.7529 C   0  0  0  0  0  0  0  0  0  0  0  0
    1.1835   -1.4464    3.0163 H   0  0  0  0  0  0  0  0  0  0  0  0
    1.6933   -2.5001    4.1553 H   0  0  0  0  0  0  0  0  0  0  0  0
    0.3981   -1.4658    4.5208 H   0  0  0  0  0  0  0  0  0  0  0  0
   -0.0175   -3.1176    3.1796 C   0  0  0  0  0  0  0  0  0  0  0  0
    0.4663   -3.6054    2.4401 H   0  0  0  0  0  0  0  0  0  0  0  0
   -0.2346   -3.7875    3.9029 H   0  0  0  0  0  0  0  0  0  0  0  0
   -1.3021   -2.5686    2.6328 N   0  0  0  0  0  4  0  0  0  0  0  0
   -1.3325   -1.5853    2.7983 H   0  0  0  0  0  0  0  0  0  0  0  0
   -1.3417   -2.7487    1.6522 H   0  0  0  0  0  0  0  0  0  0  0  0
   -2.0685   -3.0135    3.0913 H   0  0  0  0  0  0  0  0  0  0  0  0
   -0.0079    2.8810    0.0235 C   0  0  0  0  0  0  0  0  0  0  0  0
   -0.7556    3.1902   -0.5439 H   0  0  0  0  0  0  0  0  0  0  0  0
    0.8618    3.1952   -0.3253 H   0  0  0  0  0  0  0  0  0  0  0  0
   -0.1433    3.3067    1.0178 H   0  0  0  0  0  0  0  0  0  0  0  0
   -0.0011    1.3820    0.0076 C   0  0  0  0  0  0  0  0  0  0  0  0
   -1.1905    0.6846    0.0090 C   0  0  0  0  0  0  0  0  0  0  0  0
   -2.0570    1.1803    0.0153 H   0  0  0  0  0  0  0  0  0  0  0  0
   -1.1948   -0.6883    0.0000 C   0  0  0  0  0  0  0  0  0  0  0  0
   -2.0728   -1.1875   -0.0000 H   0  0  0  0  0  0  0  0  0  0  0  0
   -0.0026   -1.3734   -0.0070 C   0  0  0  0  0  0  0  0  0  0  0  0
   -0.0011   -2.3774   -0.0178 H   0  0  0  0  0  0  0  0  0  0  0  0
    1.1948   -0.6816   -0.0000 C   0  0  0  0  0  0  0  0  0  0  0  0
    2.0746   -1.1951    0.0138 H   0  0  0  0  0  0  0  0  0  0  0  0
    1.1942    0.6768   -0.0096 C   0  0  0  0  0  0  0  0  0  0  0  0
    2.0589    1.1873   -0.0302 H   0  0  0  0  0  0  0  0  0  0  0  0
  1  5  1  0
  5  8  1  0
  1  2  1  0
  1  3  1  0
  1  4  1  0
  5  6  1  0
  5  7  1  0
  8  9  1  0
  8 10  1  0
  8 11  1  0
 12 16  1  0
 16 17  2  0
 17 19  1  0
 19 21  2  0
 21 23  1  0
 23 25  2  0
 25 16  1  0
 12 13  1  0
 12 14  1  0
 12 15  1  0
 17 18  1  0
 19 20  1  0
 21 22  1  0
 23 24  1  0
 25 26  1  0
M  CHG  1   8   1
M  END
>  <PDB_ID>  (923) 
pdb1nou

>  <RESIDUE_NAME>  (923) 
LYS   PHE

>  <FRAG_NAME>  (923) 
ETAM   MBZ

>  <FRAG_ATOM_NUM>  (923) 
fragi: 11  fragj: 15

>  <atom.prop.CHAIN_ID>  (923) 
A A A A A A A A A A A Z Z Z Z Z Z Z Z Z Z Z Z Z Z Z

>  <atom.prop.IS_HEAVY_ATOM>  (923) 
1 0 0 0 1 0 0 1 0 0 0 1 0 0 0 1 1 0 1 0 1 0 1 0 1 0

>  <DIFUSE_FUNC_ATOM>  (923) 
n/a

>  <FINAL_SINGLE_POINT_ENERGY>  (923) 
0

>  <NONCOV_INTER_ENERGY_QM>  (923) 
0

>  <FF_Energy>  (923) 
-2.98

>  <QM_Energy>  (923) 
-10.3

>  <source>  (923) 
ETAM_MBZ

>  <Index>  (923) 
9138

$$$$
ETAM-pdb1nkq-C-LYS-142:MBZ-pdb1nkq-C-PHE-37
     RDKit          3D

 26 25  0  0  0  0  0  0  0  0999 V2000
   -2.2447   -1.8215   -3.3334 C   0  0  0  0  0  0  0  0  0  0  0  0
   -2.8638   -1.9810   -2.5668 H   0  0  0  0  0  0  0  0  0  0  0  0
   -2.5434   -2.3485   -4.1256 H   0  0  0  0  0  0  0  0  0  0  0  0
   -2.2702   -0.7620   -3.5881 H   0  0  0  0  0  0  0  0  0  0  0  0
   -0.8532   -2.2856   -2.9388 C   0  0  0  0  0  0  0  0  0  0  0  0
   -0.6090   -1.8564   -2.0579 H   0  0  0  0  0  0  0  0  0  0  0  0
   -0.8744   -3.2863   -2.8009 H   0  0  0  0  0  0  0  0  0  0  0  0
    0.1690   -1.9521   -3.9465 N   0  0  0  0  0  4  0  0  0  0  0  0
   -0.2628   -1.8415   -4.8436 H   0  0  0  0  0  0  0  0  0  0  0  0
    0.6271   -1.0972   -3.6942 H   0  0  0  0  0  0  0  0  0  0  0  0
    0.8475   -2.6876   -3.9972 H   0  0  0  0  0  0  0  0  0  0  0  0
    0.0066    2.9079    0.0362 C   0  0  0  0  0  0  0  0  0  0  0  0
   -0.7504    3.2307   -0.5113 H   0  0  0  0  0  0  0  0  0  0  0  0
    0.8722    3.2199   -0.3257 H   0  0  0  0  0  0  0  0  0  0  0  0
   -0.1049    3.3279    1.0359 H   0  0  0  0  0  0  0  0  0  0  0  0
    0.0008    1.4042    0.0010 C   0  0  0  0  0  0  0  0  0  0  0  0
   -1.2032    0.6946   -0.0016 C   0  0  0  0  0  0  0  0  0  0  0  0
   -2.0662    1.1876   -0.0054 H   0  0  0  0  0  0  0  0  0  0  0  0
   -1.2096   -0.6964    0.0000 C   0  0  0  0  0  0  0  0  0  0  0  0
   -2.0822   -1.1924    0.0015 H   0  0  0  0  0  0  0  0  0  0  0  0
    0.0010   -1.3983    0.0015 C   0  0  0  0  0  0  0  0  0  0  0  0
   -0.0045   -2.3938    0.0025 H   0  0  0  0  0  0  0  0  0  0  0  0
    1.2096   -0.6987   -0.0000 C   0  0  0  0  0  0  0  0  0  0  0  0
    2.0873   -1.1964    0.0012 H   0  0  0  0  0  0  0  0  0  0  0  0
    1.2015    0.6946   -0.0008 C   0  0  0  0  0  0  0  0  0  0  0  0
    2.0687    1.1931   -0.0039 H   0  0  0  0  0  0  0  0  0  0  0  0
  1  5  1  0
  5  8  1  0
  1  2  1  0
  1  3  1  0
  1  4  1  0
  5  6  1  0
  5  7  1  0
  8  9  1  0
  8 10  1  0
  8 11  1  0
 12 16  1  0
 16 17  2  0
 17 19  1  0
 19 21  2  0
 21 23  1  0
 23 25  2  0
 25 16  1  0
 12 13  1  0
 12 14  1  0
 12 15  1  0
 17 18  1  0
 19 20  1  0
 21 22  1  0
 23 24  1  0
 25 26  1  0
M  CHG  1   8   1
M  END
>  <PDB_ID>  (924) 
pdb1nkq

>  <RESIDUE_NAME>  (924) 
LYS   PHE

>  <FRAG_NAME>  (924) 
ETAM   MBZ

>  <FRAG_ATOM_NUM>  (924) 
fragi: 11  fragj: 15

>  <atom.prop.CHAIN_ID>  (924) 
A A A A A A A A A A A Z Z Z Z Z Z Z Z Z Z Z Z Z Z Z

>  <atom.prop.IS_HEAVY_ATOM>  (924) 
1 0 0 0 1 0 0 1 0 0 0 1 0 0 0 1 1 0 1 0 1 0 1 0 1 0

>  <DIFUSE_FUNC_ATOM>  (924) 
n/a

>  <FINAL_SINGLE_POINT_ENERGY>  (924) 
0

>  <NONCOV_INTER_ENERGY_QM>  (924) 
0

>  <FF_Energy>  (924) 
3.45

>  <QM_Energy>  (924) 
-6.56

>  <source>  (924) 
ETAM_MBZ

>  <Index>  (924) 
9143

$$$$
ETAM-pdb1npd-A-LYS-125:MBZ-pdb1npd-A-PHE-120
     RDKit          3D

 26 25  0  0  0  0  0  0  0  0999 V2000
    1.7916   -2.7495    2.7141 C   0  0  0  0  0  0  0  0  0  0  0  0
    1.9925   -2.0548    2.0288 H   0  0  0  0  0  0  0  0  0  0  0  0
    1.2057   -3.4545    2.3247 H   0  0  0  0  0  0  0  0  0  0  0  0
    2.7238   -3.2014    3.0531 H   0  0  0  0  0  0  0  0  0  0  0  0
    1.0441   -2.0870    3.8621 C   0  0  0  0  0  0  0  0  0  0  0  0
    0.9046   -2.7576    4.5918 H   0  0  0  0  0  0  0  0  0  0  0  0
    1.5915   -1.3253    4.2135 H   0  0  0  0  0  0  0  0  0  0  0  0
   -0.2894   -1.5642    3.4208 N   0  0  0  0  0  4  0  0  0  0  0  0
   -0.9361   -2.3225    3.3684 H   0  0  0  0  0  0  0  0  0  0  0  0
   -0.6106   -0.8900    4.0826 H   0  0  0  0  0  0  0  0  0  0  0  0
   -0.1925   -1.1381    2.5237 H   0  0  0  0  0  0  0  0  0  0  0  0
    0.0026    2.9019    0.0116 C   0  0  0  0  0  0  0  0  0  0  0  0
   -0.7901    3.2165   -0.4905 H   0  0  0  0  0  0  0  0  0  0  0  0
    0.8407    3.2128   -0.4131 H   0  0  0  0  0  0  0  0  0  0  0  0
   -0.0434    3.3356    1.0105 H   0  0  0  0  0  0  0  0  0  0  0  0
   -0.0003    1.4046   -0.0009 C   0  0  0  0  0  0  0  0  0  0  0  0
   -1.1998    0.6973    0.0005 C   0  0  0  0  0  0  0  0  0  0  0  0
   -2.0651    1.1874    0.0002 H   0  0  0  0  0  0  0  0  0  0  0  0
   -1.2063   -0.6969   -0.0000 C   0  0  0  0  0  0  0  0  0  0  0  0
   -2.0816   -1.1901    0.0009 H   0  0  0  0  0  0  0  0  0  0  0  0
    0.0004   -1.3982    0.0001 C   0  0  0  0  0  0  0  0  0  0  0  0
   -0.0063   -2.3945    0.0001 H   0  0  0  0  0  0  0  0  0  0  0  0
    1.2063   -0.7015    0.0000 C   0  0  0  0  0  0  0  0  0  0  0  0
    2.0850   -1.1973    0.0016 H   0  0  0  0  0  0  0  0  0  0  0  0
    1.1998    0.6948    0.0003 C   0  0  0  0  0  0  0  0  0  0  0  0
    2.0672    1.1905    0.0004 H   0  0  0  0  0  0  0  0  0  0  0  0
  1  5  1  0
  5  8  1  0
  1  2  1  0
  1  3  1  0
  1  4  1  0
  5  6  1  0
  5  7  1  0
  8  9  1  0
  8 10  1  0
  8 11  1  0
 12 16  1  0
 16 17  2  0
 17 19  1  0
 19 21  2  0
 21 23  1  0
 23 25  2  0
 25 16  1  0
 12 13  1  0
 12 14  1  0
 12 15  1  0
 17 18  1  0
 19 20  1  0
 21 22  1  0
 23 24  1  0
 25 26  1  0
M  CHG  1   8   1
M  END
>  <PDB_ID>  (925) 
pdb1npd

>  <RESIDUE_NAME>  (925) 
LYS   PHE

>  <FRAG_NAME>  (925) 
ETAM   MBZ

>  <FRAG_ATOM_NUM>  (925) 
fragi: 11  fragj: 15

>  <atom.prop.CHAIN_ID>  (925) 
A A A A A A A A A A A Z Z Z Z Z Z Z Z Z Z Z Z Z Z Z

>  <atom.prop.IS_HEAVY_ATOM>  (925) 
1 0 0 0 1 0 0 1 0 0 0 1 0 0 0 1 1 0 1 0 1 0 1 0 1 0

>  <DIFUSE_FUNC_ATOM>  (925) 
n/a

>  <FINAL_SINGLE_POINT_ENERGY>  (925) 
0

>  <NONCOV_INTER_ENERGY_QM>  (925) 
0

>  <FF_Energy>  (925) 
-5.75

>  <QM_Energy>  (925) 
-12.73

>  <source>  (925) 
ETAM_MBZ

>  <Index>  (925) 
9152

$$$$
ETAM-pdb2raa-A-LYS-104:MBZ-pdb2raa-A-PHE-108
     RDKit          3D

 26 25  0  0  0  0  0  0  0  0999 V2000
    1.1037   -0.1320   -3.4254 C   0  0  0  0  0  0  0  0  0  0  0  0
    1.6336   -0.5913   -2.7237 H   0  0  0  0  0  0  0  0  0  0  0  0
    0.2763    0.2585   -3.0440 H   0  0  0  0  0  0  0  0  0  0  0  0
    1.7047    0.6565   -3.8783 H   0  0  0  0  0  0  0  0  0  0  0  0
    0.7002   -1.1708   -4.4751 C   0  0  0  0  0  0  0  0  0  0  0  0
   -0.0817   -0.8238   -4.9886 H   0  0  0  0  0  0  0  0  0  0  0  0
    1.4693   -1.3209   -5.0940 H   0  0  0  0  0  0  0  0  0  0  0  0
    0.3265   -2.4726   -3.8309 N   0  0  0  0  0  4  0  0  0  0  0  0
    1.1470   -3.0295   -3.7209 H   0  0  0  0  0  0  0  0  0  0  0  0
   -0.0814   -2.2895   -2.9386 H   0  0  0  0  0  0  0  0  0  0  0  0
   -0.3300   -2.9478   -4.4125 H   0  0  0  0  0  0  0  0  0  0  0  0
   -0.0033    2.8955    0.0219 C   0  0  0  0  0  0  0  0  0  0  0  0
   -0.6340    3.2165   -0.6656 H   0  0  0  0  0  0  0  0  0  0  0  0
    0.9156    3.2095   -0.1514 H   0  0  0  0  0  0  0  0  0  0  0  0
   -0.3191    3.3093    0.9796 H   0  0  0  0  0  0  0  0  0  0  0  0
   -0.0021    1.4005   -0.0019 C   0  0  0  0  0  0  0  0  0  0  0  0
   -1.1939    0.6971    0.0036 C   0  0  0  0  0  0  0  0  0  0  0  0
   -2.0631    1.1827    0.0090 H   0  0  0  0  0  0  0  0  0  0  0  0
   -1.1980   -0.6981   -0.0000 C   0  0  0  0  0  0  0  0  0  0  0  0
   -2.0730   -1.1911    0.0048 H   0  0  0  0  0  0  0  0  0  0  0  0
    0.0067   -1.3942   -0.0086 C   0  0  0  0  0  0  0  0  0  0  0  0
    0.0012   -2.3920   -0.0221 H   0  0  0  0  0  0  0  0  0  0  0  0
    1.1980   -0.6957    0.0000 C   0  0  0  0  0  0  0  0  0  0  0  0
    2.0846   -1.1902    0.0032 H   0  0  0  0  0  0  0  0  0  0  0  0
    1.1893    0.6905    0.0069 C   0  0  0  0  0  0  0  0  0  0  0  0
    2.0604    1.1892    0.0176 H   0  0  0  0  0  0  0  0  0  0  0  0
  1  5  1  0
  5  8  1  0
  1  2  1  0
  1  3  1  0
  1  4  1  0
  5  6  1  0
  5  7  1  0
  8  9  1  0
  8 10  1  0
  8 11  1  0
 12 16  1  0
 16 17  2  0
 17 19  1  0
 19 21  2  0
 21 23  1  0
 23 25  2  0
 25 16  1  0
 12 13  1  0
 12 14  1  0
 12 15  1  0
 17 18  1  0
 19 20  1  0
 21 22  1  0
 23 24  1  0
 25 26  1  0
M  CHG  1   8   1
M  END
>  <PDB_ID>  (926) 
pdb2raa

>  <RESIDUE_NAME>  (926) 
LYS   PHE

>  <FRAG_NAME>  (926) 
ETAM   MBZ

>  <FRAG_ATOM_NUM>  (926) 
fragi: 11  fragj: 15

>  <atom.prop.CHAIN_ID>  (926) 
A A A A A A A A A A A Z Z Z Z Z Z Z Z Z Z Z Z Z Z Z

>  <atom.prop.IS_HEAVY_ATOM>  (926) 
1 0 0 0 1 0 0 1 0 0 0 1 0 0 0 1 1 0 1 0 1 0 1 0 1 0

>  <DIFUSE_FUNC_ATOM>  (926) 
n/a

>  <FINAL_SINGLE_POINT_ENERGY>  (926) 
0

>  <NONCOV_INTER_ENERGY_QM>  (926) 
0

>  <FF_Energy>  (926) 
-4.13

>  <QM_Energy>  (926) 
-9.13

>  <source>  (926) 
ETAM_MBZ

>  <Index>  (926) 
9159

$$$$
ETAM-pdb1nkq-D-LYS-442:MBZ-pdb1nkq-D-PHE-337
     RDKit          3D

 26 25  0  0  0  0  0  0  0  0999 V2000
   -2.9631   -1.8525   -2.8463 C   0  0  0  0  0  0  0  0  0  0  0  0
   -2.8574   -2.5211   -2.1135 H   0  0  0  0  0  0  0  0  0  0  0  0
   -3.4989   -2.2470   -3.5901 H   0  0  0  0  0  0  0  0  0  0  0  0
   -3.4871   -0.9803   -2.4553 H   0  0  0  0  0  0  0  0  0  0  0  0
   -1.5905   -1.4960   -3.3775 C   0  0  0  0  0  0  0  0  0  0  0  0
   -1.6766   -1.1545   -4.3077 H   0  0  0  0  0  0  0  0  0  0  0  0
   -1.1813   -0.8028   -2.7928 H   0  0  0  0  0  0  0  0  0  0  0  0
   -0.7213   -2.7101   -3.3797 N   0  0  0  0  0  4  0  0  0  0  0  0
   -0.4406   -2.9158   -2.4435 H   0  0  0  0  0  0  0  0  0  0  0  0
   -1.2339   -3.4813   -3.7550 H   0  0  0  0  0  0  0  0  0  0  0  0
    0.0849   -2.5362   -3.9429 H   0  0  0  0  0  0  0  0  0  0  0  0
    0.0058    2.9185   -0.0512 C   0  0  0  0  0  0  0  0  0  0  0  0
   -0.8046    3.2104   -0.5370 H   0  0  0  0  0  0  0  0  0  0  0  0
    0.8278    3.2050   -0.5213 H   0  0  0  0  0  0  0  0  0  0  0  0
   -0.0021    3.3955    0.9288 H   0  0  0  0  0  0  0  0  0  0  0  0
    0.0004    1.4137   -0.0015 C   0  0  0  0  0  0  0  0  0  0  0  0
   -1.2032    0.7069    0.0028 C   0  0  0  0  0  0  0  0  0  0  0  0
   -2.0675    1.1936    0.0065 H   0  0  0  0  0  0  0  0  0  0  0  0
   -1.2109   -0.6998    0.0000 C   0  0  0  0  0  0  0  0  0  0  0  0
   -2.0862   -1.1877    0.0004 H   0  0  0  0  0  0  0  0  0  0  0  0
   -0.0018   -1.4056   -0.0017 C   0  0  0  0  0  0  0  0  0  0  0  0
   -0.0111   -2.4014   -0.0048 H   0  0  0  0  0  0  0  0  0  0  0  0
    1.2109   -0.7105    0.0000 C   0  0  0  0  0  0  0  0  0  0  0  0
    2.0866   -1.2040    0.0027 H   0  0  0  0  0  0  0  0  0  0  0  0
    1.2046    0.6954    0.0004 C   0  0  0  0  0  0  0  0  0  0  0  0
    2.0719    1.1881    0.0014 H   0  0  0  0  0  0  0  0  0  0  0  0
  1  5  1  0
  5  8  1  0
  1  2  1  0
  1  3  1  0
  1  4  1  0
  5  6  1  0
  5  7  1  0
  8  9  1  0
  8 10  1  0
  8 11  1  0
 12 16  1  0
 16 17  2  0
 17 19  1  0
 19 21  2  0
 21 23  1  0
 23 25  2  0
 25 16  1  0
 12 13  1  0
 12 14  1  0
 12 15  1  0
 17 18  1  0
 19 20  1  0
 21 22  1  0
 23 24  1  0
 25 26  1  0
M  CHG  1   8   1
M  END
>  <PDB_ID>  (927) 
pdb1nkq

>  <RESIDUE_NAME>  (927) 
LYS   PHE

>  <FRAG_NAME>  (927) 
ETAM   MBZ

>  <FRAG_ATOM_NUM>  (927) 
fragi: 11  fragj: 15

>  <atom.prop.CHAIN_ID>  (927) 
A A A A A A A A A A A Z Z Z Z Z Z Z Z Z Z Z Z Z Z Z

>  <atom.prop.IS_HEAVY_ATOM>  (927) 
1 0 0 0 1 0 0 1 0 0 0 1 0 0 0 1 1 0 1 0 1 0 1 0 1 0

>  <DIFUSE_FUNC_ATOM>  (927) 
n/a

>  <FINAL_SINGLE_POINT_ENERGY>  (927) 
0

>  <NONCOV_INTER_ENERGY_QM>  (927) 
0

>  <FF_Energy>  (927) 
-3.7

>  <QM_Energy>  (927) 
-9.76

>  <source>  (927) 
ETAM_MBZ

>  <Index>  (927) 
9165

$$$$
ETAM-pdb1nrf-A-LYS-575:MBZ-pdb1nrf-A-PHE-370
     RDKit          3D

 26 25  0  0  0  0  0  0  0  0999 V2000
   -4.5405    4.5455   -0.2112 C   0  0  0  0  0  0  0  0  0  0  0  0
   -5.4114    4.2698    0.1796 H   0  0  0  0  0  0  0  0  0  0  0  0
   -4.6761    5.2317   -0.9161 H   0  0  0  0  0  0  0  0  0  0  0  0
   -3.9176    4.9667    0.5778 H   0  0  0  0  0  0  0  0  0  0  0  0
   -3.8772    3.3384   -0.8273 C   0  0  0  0  0  0  0  0  0  0  0  0
   -4.4343    3.0053   -1.5833 H   0  0  0  0  0  0  0  0  0  0  0  0
   -2.9712    3.5910   -1.1555 H   0  0  0  0  0  0  0  0  0  0  0  0
   -3.7456    2.2645    0.1931 N   0  0  0  0  0  4  0  0  0  0  0  0
   -4.1106    2.5891    1.0654 H   0  0  0  0  0  0  0  0  0  0  0  0
   -4.2565    1.4591   -0.1051 H   0  0  0  0  0  0  0  0  0  0  0  0
   -2.7814    2.0270    0.3023 H   0  0  0  0  0  0  0  0  0  0  0  0
   -0.0008    2.8994   -0.1118 C   0  0  0  0  0  0  0  0  0  0  0  0
    0.8365    3.2365    0.2848 H   0  0  0  0  0  0  0  0  0  0  0  0
   -0.7955    3.2417    0.3603 H   0  0  0  0  0  0  0  0  0  0  0  0
   -0.0479    3.2508   -1.1426 H   0  0  0  0  0  0  0  0  0  0  0  0
   -0.0002    1.4029   -0.0024 C   0  0  0  0  0  0  0  0  0  0  0  0
   -1.1973    0.6946    0.0015 C   0  0  0  0  0  0  0  0  0  0  0  0
   -2.0639    1.1858    0.0043 H   0  0  0  0  0  0  0  0  0  0  0  0
   -1.2045   -0.6969   -0.0000 C   0  0  0  0  0  0  0  0  0  0  0  0
   -2.0803   -1.1893    0.0019 H   0  0  0  0  0  0  0  0  0  0  0  0
   -0.0013   -1.3954   -0.0020 C   0  0  0  0  0  0  0  0  0  0  0  0
   -0.0049   -2.3927   -0.0052 H   0  0  0  0  0  0  0  0  0  0  0  0
    1.2045   -0.6972   -0.0000 C   0  0  0  0  0  0  0  0  0  0  0  0
    2.0832   -1.1966    0.0013 H   0  0  0  0  0  0  0  0  0  0  0  0
    1.1989    0.6919    0.0029 C   0  0  0  0  0  0  0  0  0  0  0  0
    2.0662    1.1910    0.0083 H   0  0  0  0  0  0  0  0  0  0  0  0
  1  5  1  0
  5  8  1  0
  1  2  1  0
  1  3  1  0
  1  4  1  0
  5  6  1  0
  5  7  1  0
  8  9  1  0
  8 10  1  0
  8 11  1  0
 12 16  1  0
 16 17  2  0
 17 19  1  0
 19 21  2  0
 21 23  1  0
 23 25  2  0
 25 16  1  0
 12 13  1  0
 12 14  1  0
 12 15  1  0
 17 18  1  0
 19 20  1  0
 21 22  1  0
 23 24  1  0
 25 26  1  0
M  CHG  1   8   1
M  END
>  <PDB_ID>  (928) 
pdb1nrf

>  <RESIDUE_NAME>  (928) 
LYS   PHE

>  <FRAG_NAME>  (928) 
ETAM   MBZ

>  <FRAG_ATOM_NUM>  (928) 
fragi: 11  fragj: 15

>  <atom.prop.CHAIN_ID>  (928) 
A A A A A A A A A A A Z Z Z Z Z Z Z Z Z Z Z Z Z Z Z

>  <atom.prop.IS_HEAVY_ATOM>  (928) 
1 0 0 0 1 0 0 1 0 0 0 1 0 0 0 1 1 0 1 0 1 0 1 0 1 0

>  <DIFUSE_FUNC_ATOM>  (928) 
n/a

>  <FINAL_SINGLE_POINT_ENERGY>  (928) 
0

>  <NONCOV_INTER_ENERGY_QM>  (928) 
0

>  <FF_Energy>  (928) 
23.96

>  <QM_Energy>  (928) 
9.07

>  <source>  (928) 
ETAM_MBZ

>  <Index>  (928) 
9175

$$$$
ETAM-pdb2r9z-B-LYS-22:MBZ-pdb2r9z-B-PHE-26
     RDKit          3D

 26 25  0  0  0  0  0  0  0  0999 V2000
   -1.7055   -2.2771    3.0055 C   0  0  0  0  0  0  0  0  0  0  0  0
   -1.8928   -2.2744    2.0337 H   0  0  0  0  0  0  0  0  0  0  0  0
   -1.2570   -1.4401    3.2846 H   0  0  0  0  0  0  0  0  0  0  0  0
   -2.6466   -2.3729    3.5471 H   0  0  0  0  0  0  0  0  0  0  0  0
   -0.7696   -3.4556    3.3153 C   0  0  0  0  0  0  0  0  0  0  0  0
   -0.4196   -3.3542    4.2580 H   0  0  0  0  0  0  0  0  0  0  0  0
   -1.3027   -4.3143    3.2762 H   0  0  0  0  0  0  0  0  0  0  0  0
    0.4202   -3.5893    2.3762 N   0  0  0  0  0  4  0  0  0  0  0  0
    0.1282   -3.3352    1.4604 H   0  0  0  0  0  0  0  0  0  0  0  0
    1.1407   -2.9819    2.6921 H   0  0  0  0  0  0  0  0  0  0  0  0
    0.7297   -4.5338    2.3927 H   0  0  0  0  0  0  0  0  0  0  0  0
    0.0023    2.8966    0.0142 C   0  0  0  0  0  0  0  0  0  0  0  0
   -0.9314    3.2092    0.1123 H   0  0  0  0  0  0  0  0  0  0  0  0
    0.3984    3.2147   -0.8348 H   0  0  0  0  0  0  0  0  0  0  0  0
    0.5795    3.3367    0.8273 H   0  0  0  0  0  0  0  0  0  0  0  0
    0.0022    1.4025    0.0044 C   0  0  0  0  0  0  0  0  0  0  0  0
   -1.1888    0.7025    0.0022 C   0  0  0  0  0  0  0  0  0  0  0  0
   -2.0575    1.1916    0.0011 H   0  0  0  0  0  0  0  0  0  0  0  0
   -1.1997   -0.6918   -0.0000 C   0  0  0  0  0  0  0  0  0  0  0  0
   -2.0863   -1.1747    0.0014 H   0  0  0  0  0  0  0  0  0  0  0  0
   -0.0140   -1.3964   -0.0019 C   0  0  0  0  0  0  0  0  0  0  0  0
   -0.0191   -2.3944   -0.0051 H   0  0  0  0  0  0  0  0  0  0  0  0
    1.1997   -0.7060    0.0000 C   0  0  0  0  0  0  0  0  0  0  0  0
    2.0731   -1.2087    0.0060 H   0  0  0  0  0  0  0  0  0  0  0  0
    1.2006    0.6891   -0.0047 C   0  0  0  0  0  0  0  0  0  0  0  0
    2.0684    1.1812   -0.0157 H   0  0  0  0  0  0  0  0  0  0  0  0
  1  5  1  0
  5  8  1  0
  1  2  1  0
  1  3  1  0
  1  4  1  0
  5  6  1  0
  5  7  1  0
  8  9  1  0
  8 10  1  0
  8 11  1  0
 12 16  1  0
 16 17  2  0
 17 19  1  0
 19 21  2  0
 21 23  1  0
 23 25  2  0
 25 16  1  0
 12 13  1  0
 12 14  1  0
 12 15  1  0
 17 18  1  0
 19 20  1  0
 21 22  1  0
 23 24  1  0
 25 26  1  0
M  CHG  1   8   1
M  END
>  <PDB_ID>  (929) 
pdb2r9z

>  <RESIDUE_NAME>  (929) 
LYS   PHE

>  <FRAG_NAME>  (929) 
ETAM   MBZ

>  <FRAG_ATOM_NUM>  (929) 
fragi: 11  fragj: 15

>  <atom.prop.CHAIN_ID>  (929) 
A A A A A A A A A A A Z Z Z Z Z Z Z Z Z Z Z Z Z Z Z

>  <atom.prop.IS_HEAVY_ATOM>  (929) 
1 0 0 0 1 0 0 1 0 0 0 1 0 0 0 1 1 0 1 0 1 0 1 0 1 0

>  <DIFUSE_FUNC_ATOM>  (929) 
n/a

>  <FINAL_SINGLE_POINT_ENERGY>  (929) 
0

>  <NONCOV_INTER_ENERGY_QM>  (929) 
0

>  <FF_Energy>  (929) 
-0.45

>  <QM_Energy>  (929) 
-6.59

>  <source>  (929) 
ETAM_MBZ

>  <Index>  (929) 
9179

$$$$
ETAM-pdb1np3-B-LYS-161:MBZ-pdb1np3-B-PHE-4
     RDKit          3D

 26 25  0  0  0  0  0  0  0  0999 V2000
    1.2260   -4.1553   -3.9619 C   0  0  0  0  0  0  0  0  0  0  0  0
    0.6767   -4.9070   -4.3078 H   0  0  0  0  0  0  0  0  0  0  0  0
    2.1146   -4.4802   -3.6603 H   0  0  0  0  0  0  0  0  0  0  0  0
    1.3656   -3.4232   -4.7573 H   0  0  0  0  0  0  0  0  0  0  0  0
    0.5084   -3.5354   -2.7746 C   0  0  0  0  0  0  0  0  0  0  0  0
    1.0635   -2.7797   -2.4174 H   0  0  0  0  0  0  0  0  0  0  0  0
   -0.3750   -3.1712   -3.0818 H   0  0  0  0  0  0  0  0  0  0  0  0
    0.2766   -4.5265   -1.6886 N   0  0  0  0  0  4  0  0  0  0  0  0
   -0.3023   -5.2658   -2.0322 H   0  0  0  0  0  0  0  0  0  0  0  0
    1.1536   -4.8999   -1.3877 H   0  0  0  0  0  0  0  0  0  0  0  0
   -0.1768   -4.0758   -0.9206 H   0  0  0  0  0  0  0  0  0  0  0  0
    0.0037    2.9060    0.0030 C   0  0  0  0  0  0  0  0  0  0  0  0
   -0.6248    3.2164   -0.6947 H   0  0  0  0  0  0  0  0  0  0  0  0
    0.9261    3.2120   -0.1842 H   0  0  0  0  0  0  0  0  0  0  0  0
   -0.3064    3.3498    0.9490 H   0  0  0  0  0  0  0  0  0  0  0  0
   -0.0002    1.4039    0.0001 C   0  0  0  0  0  0  0  0  0  0  0  0
   -1.1972    0.6955    0.0006 C   0  0  0  0  0  0  0  0  0  0  0  0
   -2.0643    1.1846    0.0004 H   0  0  0  0  0  0  0  0  0  0  0  0
   -1.2035   -0.6989    0.0000 C   0  0  0  0  0  0  0  0  0  0  0  0
   -2.0792   -1.1908    0.0018 H   0  0  0  0  0  0  0  0  0  0  0  0
    0.0005   -1.3979   -0.0005 C   0  0  0  0  0  0  0  0  0  0  0  0
   -0.0031   -2.3943   -0.0024 H   0  0  0  0  0  0  0  0  0  0  0  0
    1.2035   -0.6983    0.0000 C   0  0  0  0  0  0  0  0  0  0  0  0
    2.0841   -1.1940    0.0019 H   0  0  0  0  0  0  0  0  0  0  0  0
    1.1969    0.6957   -0.0002 C   0  0  0  0  0  0  0  0  0  0  0  0
    2.0652    1.1917   -0.0016 H   0  0  0  0  0  0  0  0  0  0  0  0
  1  5  1  0
  5  8  1  0
  1  2  1  0
  1  3  1  0
  1  4  1  0
  5  6  1  0
  5  7  1  0
  8  9  1  0
  8 10  1  0
  8 11  1  0
 12 16  1  0
 16 17  2  0
 17 19  1  0
 19 21  2  0
 21 23  1  0
 23 25  2  0
 25 16  1  0
 12 13  1  0
 12 14  1  0
 12 15  1  0
 17 18  1  0
 19 20  1  0
 21 22  1  0
 23 24  1  0
 25 26  1  0
M  CHG  1   8   1
M  END
>  <PDB_ID>  (930) 
pdb1np3

>  <RESIDUE_NAME>  (930) 
LYS   PHE

>  <FRAG_NAME>  (930) 
ETAM   MBZ

>  <FRAG_ATOM_NUM>  (930) 
fragi: 11  fragj: 15

>  <atom.prop.CHAIN_ID>  (930) 
A A A A A A A A A A A Z Z Z Z Z Z Z Z Z Z Z Z Z Z Z

>  <atom.prop.IS_HEAVY_ATOM>  (930) 
1 0 0 0 1 0 0 1 0 0 0 1 0 0 0 1 1 0 1 0 1 0 1 0 1 0

>  <DIFUSE_FUNC_ATOM>  (930) 
n/a

>  <FINAL_SINGLE_POINT_ENERGY>  (930) 
0

>  <NONCOV_INTER_ENERGY_QM>  (930) 
0

>  <FF_Energy>  (930) 
0.31

>  <QM_Energy>  (930) 
-4.81

>  <source>  (930) 
ETAM_MBZ

>  <Index>  (930) 
9199

$$$$
ETAM-pdb1nmo-B-LYS-79:MBZ-pdb1nmo-B-PHE-67
     RDKit          3D

 26 25  0  0  0  0  0  0  0  0999 V2000
   -6.1335   -0.6616   -3.2293 C   0  0  0  0  0  0  0  0  0  0  0  0
   -6.3371    0.2896   -3.2854 H   0  0  0  0  0  0  0  0  0  0  0  0
   -6.7448   -1.1637   -2.6603 H   0  0  0  0  0  0  0  0  0  0  0  0
   -6.1809   -1.0795   -4.2348 H   0  0  0  0  0  0  0  0  0  0  0  0
   -4.6377   -0.8016   -2.5773 C   0  0  0  0  0  0  0  0  0  0  0  0
   -4.3876   -1.7720   -2.6390 H   0  0  0  0  0  0  0  0  0  0  0  0
   -4.0185   -0.2709   -3.1625 H   0  0  0  0  0  0  0  0  0  0  0  0
   -4.4892   -0.3279   -1.1147 N   0  0  0  0  0  4  0  0  0  0  0  0
   -5.2157   -0.7453   -0.5856 H   0  0  0  0  0  0  0  0  0  0  0  0
   -3.5997   -0.6196   -0.7896 H   0  0  0  0  0  0  0  0  0  0  0  0
   -4.5646    0.6600   -1.1064 H   0  0  0  0  0  0  0  0  0  0  0  0
    0.0151    2.9092    0.0810 C   0  0  0  0  0  0  0  0  0  0  0  0
    0.9230    3.2201   -0.1307 H   0  0  0  0  0  0  0  0  0  0  0  0
   -0.2627    3.1600    0.9900 H   0  0  0  0  0  0  0  0  0  0  0  0
   -0.6778    3.3626   -0.6278 H   0  0  0  0  0  0  0  0  0  0  0  0
    0.0132    1.4021   -0.0013 C   0  0  0  0  0  0  0  0  0  0  0  0
   -1.2074    0.6934   -0.0056 C   0  0  0  0  0  0  0  0  0  0  0  0
   -2.0621    1.1882   -0.0142 H   0  0  0  0  0  0  0  0  0  0  0  0
   -1.2115   -0.7045   -0.0000 C   0  0  0  0  0  0  0  0  0  0  0  0
   -2.0786   -1.2030   -0.0044 H   0  0  0  0  0  0  0  0  0  0  0  0
    0.0109   -1.4091    0.0131 C   0  0  0  0  0  0  0  0  0  0  0  0
    0.0104   -2.3969    0.0308 H   0  0  0  0  0  0  0  0  0  0  0  0
    1.2115   -0.6892    0.0000 C   0  0  0  0  0  0  0  0  0  0  0  0
    2.0953   -1.1729   -0.0038 H   0  0  0  0  0  0  0  0  0  0  0  0
    1.1833    0.7073   -0.0062 C   0  0  0  0  0  0  0  0  0  0  0  0
    2.0656    1.2019   -0.0147 H   0  0  0  0  0  0  0  0  0  0  0  0
  1  5  1  0
  5  8  1  0
  1  2  1  0
  1  3  1  0
  1  4  1  0
  5  6  1  0
  5  7  1  0
  8  9  1  0
  8 10  1  0
  8 11  1  0
 12 16  1  0
 16 17  2  0
 17 19  1  0
 19 21  2  0
 21 23  1  0
 23 25  2  0
 25 16  1  0
 12 13  1  0
 12 14  1  0
 12 15  1  0
 17 18  1  0
 19 20  1  0
 21 22  1  0
 23 24  1  0
 25 26  1  0
M  CHG  1   8   1
M  END
>  <PDB_ID>  (931) 
pdb1nmo

>  <RESIDUE_NAME>  (931) 
LYS   PHE

>  <FRAG_NAME>  (931) 
ETAM   MBZ

>  <FRAG_ATOM_NUM>  (931) 
fragi: 11  fragj: 15

>  <atom.prop.CHAIN_ID>  (931) 
A A A A A A A A A A A Z Z Z Z Z Z Z Z Z Z Z Z Z Z Z

>  <atom.prop.IS_HEAVY_ATOM>  (931) 
1 0 0 0 1 0 0 1 0 0 0 1 0 0 0 1 1 0 1 0 1 0 1 0 1 0

>  <DIFUSE_FUNC_ATOM>  (931) 
n/a

>  <FINAL_SINGLE_POINT_ENERGY>  (931) 
0

>  <NONCOV_INTER_ENERGY_QM>  (931) 
0

>  <FF_Energy>  (931) 
0.89

>  <QM_Energy>  (931) 
-4.48

>  <source>  (931) 
ETAM_MBZ

>  <Index>  (931) 
9214

$$$$
ETAM-pdb1njj-A-LYS-293:MBZ-pdb1njj-A-PHE-314
     RDKit          3D

 26 25  0  0  0  0  0  0  0  0999 V2000
    4.4030    0.3228    0.5463 C   0  0  0  0  0  0  0  0  0  0  0  0
    4.5479   -0.2096    1.3798 H   0  0  0  0  0  0  0  0  0  0  0  0
    3.4461    0.2534    0.2670 H   0  0  0  0  0  0  0  0  0  0  0  0
    4.6321    1.3677    0.7551 H   0  0  0  0  0  0  0  0  0  0  0  0
    5.2721   -0.2676   -0.5605 C   0  0  0  0  0  0  0  0  0  0  0  0
    5.1264    0.2554   -1.4005 H   0  0  0  0  0  0  0  0  0  0  0  0
    6.2332   -0.1983   -0.2902 H   0  0  0  0  0  0  0  0  0  0  0  0
    4.9374   -1.7039   -0.8135 N   0  0  0  0  0  4  0  0  0  0  0  0
    4.2030   -1.9825   -0.1968 H   0  0  0  0  0  0  0  0  0  0  0  0
    4.6411   -1.8095   -1.7612 H   0  0  0  0  0  0  0  0  0  0  0  0
    5.7476   -2.2632   -0.6479 H   0  0  0  0  0  0  0  0  0  0  0  0
    0.0075    2.9000   -0.0059 C   0  0  0  0  0  0  0  0  0  0  0  0
   -0.4778    3.2080   -0.8122 H   0  0  0  0  0  0  0  0  0  0  0  0
    0.9492    3.2043   -0.0174 H   0  0  0  0  0  0  0  0  0  0  0  0
   -0.4752    3.3467    0.8633 H   0  0  0  0  0  0  0  0  0  0  0  0
    0.0008    1.4037   -0.0005 C   0  0  0  0  0  0  0  0  0  0  0  0
   -1.1979    0.6955    0.0004 C   0  0  0  0  0  0  0  0  0  0  0  0
   -2.0637    1.1843    0.0002 H   0  0  0  0  0  0  0  0  0  0  0  0
   -1.2035   -0.7003   -0.0000 C   0  0  0  0  0  0  0  0  0  0  0  0
   -2.0794   -1.1915    0.0015 H   0  0  0  0  0  0  0  0  0  0  0  0
   -0.0013   -1.3963   -0.0005 C   0  0  0  0  0  0  0  0  0  0  0  0
   -0.0034   -2.3941   -0.0016 H   0  0  0  0  0  0  0  0  0  0  0  0
    1.2035   -0.6975    0.0000 C   0  0  0  0  0  0  0  0  0  0  0  0
    2.0837   -1.1957    0.0012 H   0  0  0  0  0  0  0  0  0  0  0  0
    1.1983    0.6949    0.0006 C   0  0  0  0  0  0  0  0  0  0  0  0
    2.0662    1.1916    0.0010 H   0  0  0  0  0  0  0  0  0  0  0  0
  1  5  1  0
  5  8  1  0
  1  2  1  0
  1  3  1  0
  1  4  1  0
  5  6  1  0
  5  7  1  0
  8  9  1  0
  8 10  1  0
  8 11  1  0
 12 16  1  0
 16 17  2  0
 17 19  1  0
 19 21  2  0
 21 23  1  0
 23 25  2  0
 25 16  1  0
 12 13  1  0
 12 14  1  0
 12 15  1  0
 17 18  1  0
 19 20  1  0
 21 22  1  0
 23 24  1  0
 25 26  1  0
M  CHG  1   8   1
M  END
>  <PDB_ID>  (932) 
pdb1njj

>  <RESIDUE_NAME>  (932) 
LYS   PHE

>  <FRAG_NAME>  (932) 
ETAM   MBZ

>  <FRAG_ATOM_NUM>  (932) 
fragi: 11  fragj: 15

>  <atom.prop.CHAIN_ID>  (932) 
A A A A A A A A A A A Z Z Z Z Z Z Z Z Z Z Z Z Z Z Z

>  <atom.prop.IS_HEAVY_ATOM>  (932) 
1 0 0 0 1 0 0 1 0 0 0 1 0 0 0 1 1 0 1 0 1 0 1 0 1 0

>  <DIFUSE_FUNC_ATOM>  (932) 
n/a

>  <FINAL_SINGLE_POINT_ENERGY>  (932) 
0

>  <NONCOV_INTER_ENERGY_QM>  (932) 
0

>  <FF_Energy>  (932) 
12.95

>  <QM_Energy>  (932) 
0.5

>  <source>  (932) 
ETAM_MBZ

>  <Index>  (932) 
9219

$$$$
ETAM-pdb1njj-C-LYS-293:MBZ-pdb1njj-C-PHE-314
     RDKit          3D

 26 25  0  0  0  0  0  0  0  0999 V2000
    5.4125    0.5043   -0.4632 C   0  0  0  0  0  0  0  0  0  0  0  0
    5.7001    0.8229   -1.3625 H   0  0  0  0  0  0  0  0  0  0  0  0
    6.1052   -0.0969   -0.0743 H   0  0  0  0  0  0  0  0  0  0  0  0
    5.2981    1.3696    0.1899 H   0  0  0  0  0  0  0  0  0  0  0  0
    4.1229   -0.2564   -0.6001 C   0  0  0  0  0  0  0  0  0  0  0  0
    3.4569    0.0958    0.0616 H   0  0  0  0  0  0  0  0  0  0  0  0
    3.7599   -0.1323   -1.5263 H   0  0  0  0  0  0  0  0  0  0  0  0
    4.3295   -1.7084   -0.3527 N   0  0  0  0  0  4  0  0  0  0  0  0
    5.2883   -1.9396   -0.5153 H   0  0  0  0  0  0  0  0  0  0  0  0
    4.0903   -1.9217    0.5940 H   0  0  0  0  0  0  0  0  0  0  0  0
    3.7486   -2.2370   -0.9714 H   0  0  0  0  0  0  0  0  0  0  0  0
    0.0046    2.8981    0.0521 C   0  0  0  0  0  0  0  0  0  0  0  0
   -0.5272    3.2343   -0.7105 H   0  0  0  0  0  0  0  0  0  0  0  0
    0.9424    3.2059    0.0022 H   0  0  0  0  0  0  0  0  0  0  0  0
   -0.4306    3.3026    0.9660 H   0  0  0  0  0  0  0  0  0  0  0  0
    0.0002    1.4028    0.0014 C   0  0  0  0  0  0  0  0  0  0  0  0
   -1.1978    0.6932   -0.0012 C   0  0  0  0  0  0  0  0  0  0  0  0
   -2.0643    1.1817   -0.0052 H   0  0  0  0  0  0  0  0  0  0  0  0
   -1.2013   -0.7000   -0.0000 C   0  0  0  0  0  0  0  0  0  0  0  0
   -2.0770   -1.1939    0.0015 H   0  0  0  0  0  0  0  0  0  0  0  0
    0.0024   -1.3948    0.0004 C   0  0  0  0  0  0  0  0  0  0  0  0
    0.0001   -2.3930    0.0009 H   0  0  0  0  0  0  0  0  0  0  0  0
    1.2013   -0.6960   -0.0000 C   0  0  0  0  0  0  0  0  0  0  0  0
    2.0840   -1.1923    0.0017 H   0  0  0  0  0  0  0  0  0  0  0  0
    1.1952    0.6949   -0.0006 C   0  0  0  0  0  0  0  0  0  0  0  0
    2.0645    1.1910   -0.0030 H   0  0  0  0  0  0  0  0  0  0  0  0
  1  5  1  0
  5  8  1  0
  1  2  1  0
  1  3  1  0
  1  4  1  0
  5  6  1  0
  5  7  1  0
  8  9  1  0
  8 10  1  0
  8 11  1  0
 12 16  1  0
 16 17  2  0
 17 19  1  0
 19 21  2  0
 21 23  1  0
 23 25  2  0
 25 16  1  0
 12 13  1  0
 12 14  1  0
 12 15  1  0
 17 18  1  0
 19 20  1  0
 21 22  1  0
 23 24  1  0
 25 26  1  0
M  CHG  1   8   1
M  END
>  <PDB_ID>  (933) 
pdb1njj

>  <RESIDUE_NAME>  (933) 
LYS   PHE

>  <FRAG_NAME>  (933) 
ETAM   MBZ

>  <FRAG_ATOM_NUM>  (933) 
fragi: 11  fragj: 15

>  <atom.prop.CHAIN_ID>  (933) 
A A A A A A A A A A A Z Z Z Z Z Z Z Z Z Z Z Z Z Z Z

>  <atom.prop.IS_HEAVY_ATOM>  (933) 
1 0 0 0 1 0 0 1 0 0 0 1 0 0 0 1 1 0 1 0 1 0 1 0 1 0

>  <DIFUSE_FUNC_ATOM>  (933) 
n/a

>  <FINAL_SINGLE_POINT_ENERGY>  (933) 
0

>  <NONCOV_INTER_ENERGY_QM>  (933) 
0

>  <FF_Energy>  (933) 
19.42

>  <QM_Energy>  (933) 
1.23

>  <source>  (933) 
ETAM_MBZ

>  <Index>  (933) 
9223

$$$$
ETAM-pdb2re2-B-LYS-80:MBZ-pdb2re2-B-PHE-76
     RDKit          3D

 26 25  0  0  0  0  0  0  0  0999 V2000
    0.1206   -1.2286    4.6157 C   0  0  0  0  0  0  0  0  0  0  0  0
    0.6880   -0.7049    3.9954 H   0  0  0  0  0  0  0  0  0  0  0  0
    0.0823   -2.1806    4.3470 H   0  0  0  0  0  0  0  0  0  0  0  0
    0.5440   -1.1630    5.6179 H   0  0  0  0  0  0  0  0  0  0  0  0
   -1.2952   -0.6553    4.5839 C   0  0  0  0  0  0  0  0  0  0  0  0
   -1.9033   -1.2843    5.0803 H   0  0  0  0  0  0  0  0  0  0  0  0
   -1.2903    0.2289    5.0628 H   0  0  0  0  0  0  0  0  0  0  0  0
   -1.7854   -0.4729    3.2101 N   0  0  0  0  0  4  0  0  0  0  0  0
   -1.7719    0.5002    2.9699 H   0  0  0  0  0  0  0  0  0  0  0  0
   -1.2001   -0.9763    2.5700 H   0  0  0  0  0  0  0  0  0  0  0  0
   -2.7245   -0.8166    3.1349 H   0  0  0  0  0  0  0  0  0  0  0  0
    0.0058    2.9041    0.0593 C   0  0  0  0  0  0  0  0  0  0  0  0
   -0.7206    3.2338   -0.5160 H   0  0  0  0  0  0  0  0  0  0  0  0
    0.8879    3.2279   -0.2315 H   0  0  0  0  0  0  0  0  0  0  0  0
   -0.1704    3.2841    1.0656 H   0  0  0  0  0  0  0  0  0  0  0  0
    0.0113    1.3990   -0.0065 C   0  0  0  0  0  0  0  0  0  0  0  0
   -1.1922    0.7051    0.0107 C   0  0  0  0  0  0  0  0  0  0  0  0
   -2.0529    1.1995    0.0288 H   0  0  0  0  0  0  0  0  0  0  0  0
   -1.2021   -0.6861    0.0000 C   0  0  0  0  0  0  0  0  0  0  0  0
   -2.0924   -1.1687   -0.0066 H   0  0  0  0  0  0  0  0  0  0  0  0
   -0.0240   -1.3875    0.0005 C   0  0  0  0  0  0  0  0  0  0  0  0
   -0.0331   -2.3929    0.0008 H   0  0  0  0  0  0  0  0  0  0  0  0
    1.2021   -0.7159   -0.0000 C   0  0  0  0  0  0  0  0  0  0  0  0
    2.0664   -1.2206    0.0044 H   0  0  0  0  0  0  0  0  0  0  0  0
    1.2050    0.6854   -0.0047 C   0  0  0  0  0  0  0  0  0  0  0  0
    2.0761    1.1723   -0.0071 H   0  0  0  0  0  0  0  0  0  0  0  0
  1  5  1  0
  5  8  1  0
  1  2  1  0
  1  3  1  0
  1  4  1  0
  5  6  1  0
  5  7  1  0
  8  9  1  0
  8 10  1  0
  8 11  1  0
 12 16  1  0
 16 17  2  0
 17 19  1  0
 19 21  2  0
 21 23  1  0
 23 25  2  0
 25 16  1  0
 12 13  1  0
 12 14  1  0
 12 15  1  0
 17 18  1  0
 19 20  1  0
 21 22  1  0
 23 24  1  0
 25 26  1  0
M  CHG  1   8   1
M  END
>  <PDB_ID>  (934) 
pdb2re2

>  <RESIDUE_NAME>  (934) 
LYS   PHE

>  <FRAG_NAME>  (934) 
ETAM   MBZ

>  <FRAG_ATOM_NUM>  (934) 
fragi: 11  fragj: 15

>  <atom.prop.CHAIN_ID>  (934) 
A A A A A A A A A A A Z Z Z Z Z Z Z Z Z Z Z Z Z Z Z

>  <atom.prop.IS_HEAVY_ATOM>  (934) 
1 0 0 0 1 0 0 1 0 0 0 1 0 0 0 1 1 0 1 0 1 0 1 0 1 0

>  <DIFUSE_FUNC_ATOM>  (934) 
n/a

>  <FINAL_SINGLE_POINT_ENERGY>  (934) 
0

>  <NONCOV_INTER_ENERGY_QM>  (934) 
0

>  <FF_Energy>  (934) 
-5.84

>  <QM_Energy>  (934) 
-12.45

>  <source>  (934) 
ETAM_MBZ

>  <Index>  (934) 
9231

$$$$
ETAM-pdb1nxe-A-LYS-370:MBZ-pdb1nxe-A-PHE-379
     RDKit          3D

 26 25  0  0  0  0  0  0  0  0999 V2000
   -2.6534   -4.3930   -0.9955 C   0  0  0  0  0  0  0  0  0  0  0  0
   -2.8051   -4.3162   -1.9702 H   0  0  0  0  0  0  0  0  0  0  0  0
   -3.0003   -5.2497   -0.6441 H   0  0  0  0  0  0  0  0  0  0  0  0
   -1.5826   -4.3379   -0.7995 H   0  0  0  0  0  0  0  0  0  0  0  0
   -3.3790   -3.2496   -0.2966 C   0  0  0  0  0  0  0  0  0  0  0  0
   -3.2566   -3.3506    0.6964 H   0  0  0  0  0  0  0  0  0  0  0  0
   -2.9598   -2.3805   -0.5815 H   0  0  0  0  0  0  0  0  0  0  0  0
   -4.8253   -3.2246   -0.6136 N   0  0  0  0  0  4  0  0  0  0  0  0
   -5.3474   -3.0272    0.2170 H   0  0  0  0  0  0  0  0  0  0  0  0
   -5.0072   -2.5150   -1.2959 H   0  0  0  0  0  0  0  0  0  0  0  0
   -5.1043   -4.1137   -0.9777 H   0  0  0  0  0  0  0  0  0  0  0  0
   -0.0070    2.9128    0.0093 C   0  0  0  0  0  0  0  0  0  0  0  0
   -0.5361    3.2114    0.7896 H   0  0  0  0  0  0  0  0  0  0  0  0
   -0.4103    3.2213   -0.8389 H   0  0  0  0  0  0  0  0  0  0  0  0
    0.9845    3.3586    0.0889 H   0  0  0  0  0  0  0  0  0  0  0  0
   -0.0011    1.4065    0.0001 C   0  0  0  0  0  0  0  0  0  0  0  0
   -1.2022    0.6937   -0.0008 C   0  0  0  0  0  0  0  0  0  0  0  0
   -2.0677    1.1829   -0.0037 H   0  0  0  0  0  0  0  0  0  0  0  0
   -1.2060   -0.7023   -0.0000 C   0  0  0  0  0  0  0  0  0  0  0  0
   -2.0785   -1.1963    0.0021 H   0  0  0  0  0  0  0  0  0  0  0  0
    0.0024   -1.3941    0.0004 C   0  0  0  0  0  0  0  0  0  0  0  0
   -0.0002   -2.3943    0.0008 H   0  0  0  0  0  0  0  0  0  0  0  0
    1.2060   -0.6986   -0.0000 C   0  0  0  0  0  0  0  0  0  0  0  0
    2.0857   -1.1952    0.0010 H   0  0  0  0  0  0  0  0  0  0  0  0
    1.2008    0.6947    0.0002 C   0  0  0  0  0  0  0  0  0  0  0  0
    2.0664    1.1925   -0.0002 H   0  0  0  0  0  0  0  0  0  0  0  0
  1  5  1  0
  5  8  1  0
  1  2  1  0
  1  3  1  0
  1  4  1  0
  5  6  1  0
  5  7  1  0
  8  9  1  0
  8 10  1  0
  8 11  1  0
 12 16  1  0
 16 17  2  0
 17 19  1  0
 19 21  2  0
 21 23  1  0
 23 25  2  0
 25 16  1  0
 12 13  1  0
 12 14  1  0
 12 15  1  0
 17 18  1  0
 19 20  1  0
 21 22  1  0
 23 24  1  0
 25 26  1  0
M  CHG  1   8   1
M  END
>  <PDB_ID>  (935) 
pdb1nxe

>  <RESIDUE_NAME>  (935) 
LYS   PHE

>  <FRAG_NAME>  (935) 
ETAM   MBZ

>  <FRAG_ATOM_NUM>  (935) 
fragi: 11  fragj: 15

>  <atom.prop.CHAIN_ID>  (935) 
A A A A A A A A A A A Z Z Z Z Z Z Z Z Z Z Z Z Z Z Z

>  <atom.prop.IS_HEAVY_ATOM>  (935) 
1 0 0 0 1 0 0 1 0 0 0 1 0 0 0 1 1 0 1 0 1 0 1 0 1 0

>  <DIFUSE_FUNC_ATOM>  (935) 
n/a

>  <FINAL_SINGLE_POINT_ENERGY>  (935) 
0

>  <NONCOV_INTER_ENERGY_QM>  (935) 
0

>  <FF_Energy>  (935) 
19.8

>  <QM_Energy>  (935) 
0.98

>  <source>  (935) 
ETAM_MBZ

>  <Index>  (935) 
9261

$$$$
ETAM-pdb2rdy-A-LYS-35:MBZ-pdb2rdy-A-PHE-101
     RDKit          3D

 26 25  0  0  0  0  0  0  0  0999 V2000
   -3.1848   -1.6919   -3.3662 C   0  0  0  0  0  0  0  0  0  0  0  0
   -3.5267   -1.4225   -2.4713 H   0  0  0  0  0  0  0  0  0  0  0  0
   -3.9402   -1.8374   -3.9959 H   0  0  0  0  0  0  0  0  0  0  0  0
   -2.5453   -0.8992   -3.7547 H   0  0  0  0  0  0  0  0  0  0  0  0
   -2.4241   -3.0127   -3.2133 C   0  0  0  0  0  0  0  0  0  0  0  0
   -3.0664   -3.7159   -2.8818 H   0  0  0  0  0  0  0  0  0  0  0  0
   -2.0883   -3.2963   -4.1209 H   0  0  0  0  0  0  0  0  0  0  0  0
   -1.2710   -2.9216   -2.2723 N   0  0  0  0  0  4  0  0  0  0  0  0
   -0.4830   -3.3902   -2.6690 H   0  0  0  0  0  0  0  0  0  0  0  0
   -1.0464   -1.9604   -2.1173 H   0  0  0  0  0  0  0  0  0  0  0  0
   -1.5169   -3.3531   -1.4056 H   0  0  0  0  0  0  0  0  0  0  0  0
    0.0001    2.9033    0.0054 C   0  0  0  0  0  0  0  0  0  0  0  0
    0.6933    3.2082    0.6429 H   0  0  0  0  0  0  0  0  0  0  0  0
   -0.8998    3.2112    0.2827 H   0  0  0  0  0  0  0  0  0  0  0  0
    0.2199    3.3527   -0.9631 H   0  0  0  0  0  0  0  0  0  0  0  0
   -0.0010    1.4036    0.0000 C   0  0  0  0  0  0  0  0  0  0  0  0
   -1.1985    0.6950   -0.0008 C   0  0  0  0  0  0  0  0  0  0  0  0
   -2.0654    1.1832   -0.0035 H   0  0  0  0  0  0  0  0  0  0  0  0
   -1.2036   -0.7009    0.0000 C   0  0  0  0  0  0  0  0  0  0  0  0
   -2.0779   -1.1936    0.0014 H   0  0  0  0  0  0  0  0  0  0  0  0
    0.0022   -1.3965    0.0004 C   0  0  0  0  0  0  0  0  0  0  0  0
   -0.0009   -2.3942    0.0006 H   0  0  0  0  0  0  0  0  0  0  0  0
    1.2036   -0.6976   -0.0000 C   0  0  0  0  0  0  0  0  0  0  0  0
    2.0851   -1.1927    0.0008 H   0  0  0  0  0  0  0  0  0  0  0  0
    1.1974    0.6964    0.0003 C   0  0  0  0  0  0  0  0  0  0  0  0
    2.0648    1.1923   -0.0004 H   0  0  0  0  0  0  0  0  0  0  0  0
  1  5  1  0
  5  8  1  0
  1  2  1  0
  1  3  1  0
  1  4  1  0
  5  6  1  0
  5  7  1  0
  8  9  1  0
  8 10  1  0
  8 11  1  0
 12 16  1  0
 16 17  2  0
 17 19  1  0
 19 21  2  0
 21 23  1  0
 23 25  2  0
 25 16  1  0
 12 13  1  0
 12 14  1  0
 12 15  1  0
 17 18  1  0
 19 20  1  0
 21 22  1  0
 23 24  1  0
 25 26  1  0
M  CHG  1   8   1
M  END
>  <PDB_ID>  (936) 
pdb2rdy

>  <RESIDUE_NAME>  (936) 
LYS   PHE

>  <FRAG_NAME>  (936) 
ETAM   MBZ

>  <FRAG_ATOM_NUM>  (936) 
fragi: 11  fragj: 15

>  <atom.prop.CHAIN_ID>  (936) 
A A A A A A A A A A A Z Z Z Z Z Z Z Z Z Z Z Z Z Z Z

>  <atom.prop.IS_HEAVY_ATOM>  (936) 
1 0 0 0 1 0 0 1 0 0 0 1 0 0 0 1 1 0 1 0 1 0 1 0 1 0

>  <DIFUSE_FUNC_ATOM>  (936) 
n/a

>  <FINAL_SINGLE_POINT_ENERGY>  (936) 
0

>  <NONCOV_INTER_ENERGY_QM>  (936) 
0

>  <FF_Energy>  (936) 
-1.07

>  <QM_Energy>  (936) 
-9.2

>  <source>  (936) 
ETAM_MBZ

>  <Index>  (936) 
9267

$$$$
ETAM-pdb2rfb-C-LYS-118:MBZ-pdb2rfb-C-PHE-86
     RDKit          3D

 26 25  0  0  0  0  0  0  0  0999 V2000
    0.6539   -0.8445   -3.4448 C   0  0  0  0  0  0  0  0  0  0  0  0
    0.1806   -0.7731   -4.3110 H   0  0  0  0  0  0  0  0  0  0  0  0
    0.0296   -0.7276   -2.6856 H   0  0  0  0  0  0  0  0  0  0  0  0
    1.1207   -1.8270   -3.3746 H   0  0  0  0  0  0  0  0  0  0  0  0
    1.7125    0.2229   -3.3763 C   0  0  0  0  0  0  0  0  0  0  0  0
    2.4386   -0.0701   -2.7625 H   0  0  0  0  0  0  0  0  0  0  0  0
    2.0775    0.3873   -4.2881 H   0  0  0  0  0  0  0  0  0  0  0  0
    1.1109    1.4787   -2.8578 N   0  0  0  0  0  4  0  0  0  0  0  0
    1.4399    2.2533   -3.3987 H   0  0  0  0  0  0  0  0  0  0  0  0
    0.1149    1.4239   -2.9255 H   0  0  0  0  0  0  0  0  0  0  0  0
    1.3743    1.6038   -1.9015 H   0  0  0  0  0  0  0  0  0  0  0  0
   -0.0093    2.9295    0.0001 C   0  0  0  0  0  0  0  0  0  0  0  0
   -0.8918    3.2231   -0.3286 H   0  0  0  0  0  0  0  0  0  0  0  0
    0.7195    3.2339   -0.5914 H   0  0  0  0  0  0  0  0  0  0  0  0
    0.1488    3.3711    0.9840 H   0  0  0  0  0  0  0  0  0  0  0  0
    0.0007    1.4095   -0.0003 C   0  0  0  0  0  0  0  0  0  0  0  0
   -1.1952    0.6906    0.0006 C   0  0  0  0  0  0  0  0  0  0  0  0
   -2.0645    1.1784    0.0007 H   0  0  0  0  0  0  0  0  0  0  0  0
   -1.2006   -0.7052   -0.0000 C   0  0  0  0  0  0  0  0  0  0  0  0
   -2.0798   -1.1937    0.0042 H   0  0  0  0  0  0  0  0  0  0  0  0
   -0.0044   -1.3963   -0.0041 C   0  0  0  0  0  0  0  0  0  0  0  0
   -0.0017   -2.3954   -0.0109 H   0  0  0  0  0  0  0  0  0  0  0  0
    1.2006   -0.6968    0.0000 C   0  0  0  0  0  0  0  0  0  0  0  0
    2.0809   -1.1951    0.0018 H   0  0  0  0  0  0  0  0  0  0  0  0
    1.1989    0.6982    0.0039 C   0  0  0  0  0  0  0  0  0  0  0  0
    2.0664    1.1922    0.0091 H   0  0  0  0  0  0  0  0  0  0  0  0
  1  5  1  0
  5  8  1  0
  1  2  1  0
  1  3  1  0
  1  4  1  0
  5  6  1  0
  5  7  1  0
  8  9  1  0
  8 10  1  0
  8 11  1  0
 12 16  1  0
 16 17  2  0
 17 19  1  0
 19 21  2  0
 21 23  1  0
 23 25  2  0
 25 16  1  0
 12 13  1  0
 12 14  1  0
 12 15  1  0
 17 18  1  0
 19 20  1  0
 21 22  1  0
 23 24  1  0
 25 26  1  0
M  CHG  1   8   1
M  END
>  <PDB_ID>  (937) 
pdb2rfb

>  <RESIDUE_NAME>  (937) 
LYS   PHE

>  <FRAG_NAME>  (937) 
ETAM   MBZ

>  <FRAG_ATOM_NUM>  (937) 
fragi: 11  fragj: 15

>  <atom.prop.CHAIN_ID>  (937) 
A A A A A A A A A A A Z Z Z Z Z Z Z Z Z Z Z Z Z Z Z

>  <atom.prop.IS_HEAVY_ATOM>  (937) 
1 0 0 0 1 0 0 1 0 0 0 1 0 0 0 1 1 0 1 0 1 0 1 0 1 0

>  <DIFUSE_FUNC_ATOM>  (937) 
n/a

>  <FINAL_SINGLE_POINT_ENERGY>  (937) 
0

>  <NONCOV_INTER_ENERGY_QM>  (937) 
0

>  <FF_Energy>  (937) 
-5.65

>  <QM_Energy>  (937) 
-13.12

>  <source>  (937) 
ETAM_MBZ

>  <Index>  (937) 
9281

$$$$
ETAM-pdb1nxz-A-LYS-98:MBZ-pdb1nxz-A-PHE-94
     RDKit          3D

 26 25  0  0  0  0  0  0  0  0999 V2000
   -1.0446    1.8457   -4.7776 C   0  0  0  0  0  0  0  0  0  0  0  0
   -0.2687    1.8349   -5.4009 H   0  0  0  0  0  0  0  0  0  0  0  0
   -0.8168    2.3491   -3.9508 H   0  0  0  0  0  0  0  0  0  0  0  0
   -1.8879    2.3305   -5.2695 H   0  0  0  0  0  0  0  0  0  0  0  0
   -1.3751    0.4116   -4.3930 C   0  0  0  0  0  0  0  0  0  0  0  0
   -2.1804    0.4086   -3.8053 H   0  0  0  0  0  0  0  0  0  0  0  0
   -1.5572   -0.1148   -5.2207 H   0  0  0  0  0  0  0  0  0  0  0  0
   -0.2309   -0.2114   -3.6587 N   0  0  0  0  0  4  0  0  0  0  0  0
    0.5519    0.4073   -3.6851 H   0  0  0  0  0  0  0  0  0  0  0  0
   -0.4993   -0.3753   -2.7114 H   0  0  0  0  0  0  0  0  0  0  0  0
    0.0075   -1.0763   -4.0958 H   0  0  0  0  0  0  0  0  0  0  0  0
   -0.0099    2.9101    0.0086 C   0  0  0  0  0  0  0  0  0  0  0  0
    0.1120    3.2111    0.9423 H   0  0  0  0  0  0  0  0  0  0  0  0
   -0.8758    3.2122   -0.3591 H   0  0  0  0  0  0  0  0  0  0  0  0
    0.7830    3.3546   -0.5931 H   0  0  0  0  0  0  0  0  0  0  0  0
   -0.0019    1.4061    0.0009 C   0  0  0  0  0  0  0  0  0  0  0  0
   -1.1973    0.6973    0.0006 C   0  0  0  0  0  0  0  0  0  0  0  0
   -2.0659    1.1861   -0.0004 H   0  0  0  0  0  0  0  0  0  0  0  0
   -1.2045   -0.6977    0.0000 C   0  0  0  0  0  0  0  0  0  0  0  0
   -2.0804   -1.1888    0.0018 H   0  0  0  0  0  0  0  0  0  0  0  0
   -0.0008   -1.3981   -0.0006 C   0  0  0  0  0  0  0  0  0  0  0  0
   -0.0060   -2.3955   -0.0023 H   0  0  0  0  0  0  0  0  0  0  0  0
    1.2045   -0.7019    0.0000 C   0  0  0  0  0  0  0  0  0  0  0  0
    2.0840   -1.1985    0.0025 H   0  0  0  0  0  0  0  0  0  0  0  0
    1.2000    0.6944   -0.0008 C   0  0  0  0  0  0  0  0  0  0  0  0
    2.0667    1.1900   -0.0039 H   0  0  0  0  0  0  0  0  0  0  0  0
  1  5  1  0
  5  8  1  0
  1  2  1  0
  1  3  1  0
  1  4  1  0
  5  6  1  0
  5  7  1  0
  8  9  1  0
  8 10  1  0
  8 11  1  0
 12 16  1  0
 16 17  2  0
 17 19  1  0
 19 21  2  0
 21 23  1  0
 23 25  2  0
 25 16  1  0
 12 13  1  0
 12 14  1  0
 12 15  1  0
 17 18  1  0
 19 20  1  0
 21 22  1  0
 23 24  1  0
 25 26  1  0
M  CHG  1   8   1
M  END
>  <PDB_ID>  (938) 
pdb1nxz

>  <RESIDUE_NAME>  (938) 
LYS   PHE

>  <FRAG_NAME>  (938) 
ETAM   MBZ

>  <FRAG_ATOM_NUM>  (938) 
fragi: 11  fragj: 15

>  <atom.prop.CHAIN_ID>  (938) 
A A A A A A A A A A A Z Z Z Z Z Z Z Z Z Z Z Z Z Z Z

>  <atom.prop.IS_HEAVY_ATOM>  (938) 
1 0 0 0 1 0 0 1 0 0 0 1 0 0 0 1 1 0 1 0 1 0 1 0 1 0

>  <DIFUSE_FUNC_ATOM>  (938) 
n/a

>  <FINAL_SINGLE_POINT_ENERGY>  (938) 
0

>  <NONCOV_INTER_ENERGY_QM>  (938) 
0

>  <FF_Energy>  (938) 
-7.64

>  <QM_Energy>  (938) 
-13.81

>  <source>  (938) 
ETAM_MBZ

>  <Index>  (938) 
9282

$$$$
ETAM-pdb2rfm-A-LYS-10:MBZ-pdb2rfm-A-PHE-23
     RDKit          3D

 26 25  0  0  0  0  0  0  0  0999 V2000
    2.1268    0.5380   -3.2065 C   0  0  0  0  0  0  0  0  0  0  0  0
    2.6111    0.4497   -2.3393 H   0  0  0  0  0  0  0  0  0  0  0  0
    1.7903    1.4701   -3.3153 H   0  0  0  0  0  0  0  0  0  0  0  0
    2.8092    0.3036   -4.0235 H   0  0  0  0  0  0  0  0  0  0  0  0
    0.9167   -0.4038   -3.1749 C   0  0  0  0  0  0  0  0  0  0  0  0
    1.2468   -1.3359   -2.9534 H   0  0  0  0  0  0  0  0  0  0  0  0
    0.3076   -0.1124   -2.4185 H   0  0  0  0  0  0  0  0  0  0  0  0
    0.1440   -0.4449   -4.4368 N   0  0  0  0  0  4  0  0  0  0  0  0
   -0.2681   -1.3503   -4.5486 H   0  0  0  0  0  0  0  0  0  0  0  0
   -0.5786    0.2476   -4.4112 H   0  0  0  0  0  0  0  0  0  0  0  0
    0.7531   -0.2605   -5.2096 H   0  0  0  0  0  0  0  0  0  0  0  0
   -0.0034    2.8996    0.0123 C   0  0  0  0  0  0  0  0  0  0  0  0
   -0.8363    3.2075   -0.4231 H   0  0  0  0  0  0  0  0  0  0  0  0
    0.7953    3.2120   -0.4804 H   0  0  0  0  0  0  0  0  0  0  0  0
    0.0312    3.3321    1.0122 H   0  0  0  0  0  0  0  0  0  0  0  0
   -0.0005    1.3985   -0.0001 C   0  0  0  0  0  0  0  0  0  0  0  0
   -1.1940    0.6897    0.0043 C   0  0  0  0  0  0  0  0  0  0  0  0
   -2.0618    1.1801    0.0093 H   0  0  0  0  0  0  0  0  0  0  0  0
   -1.1950   -0.6952    0.0000 C   0  0  0  0  0  0  0  0  0  0  0  0
   -2.0744   -1.1904    0.0030 H   0  0  0  0  0  0  0  0  0  0  0  0
   -0.0012   -1.3870   -0.0067 C   0  0  0  0  0  0  0  0  0  0  0  0
   -0.0047   -2.3884   -0.0167 H   0  0  0  0  0  0  0  0  0  0  0  0
    1.1950   -0.6953   -0.0000 C   0  0  0  0  0  0  0  0  0  0  0  0
    2.0777   -1.1969    0.0050 H   0  0  0  0  0  0  0  0  0  0  0  0
    1.1957    0.6892    0.0026 C   0  0  0  0  0  0  0  0  0  0  0  0
    2.0638    1.1864    0.0057 H   0  0  0  0  0  0  0  0  0  0  0  0
  1  5  1  0
  5  8  1  0
  1  2  1  0
  1  3  1  0
  1  4  1  0
  5  6  1  0
  5  7  1  0
  8  9  1  0
  8 10  1  0
  8 11  1  0
 12 16  1  0
 16 17  2  0
 17 19  1  0
 19 21  2  0
 21 23  1  0
 23 25  2  0
 25 16  1  0
 12 13  1  0
 12 14  1  0
 12 15  1  0
 17 18  1  0
 19 20  1  0
 21 22  1  0
 23 24  1  0
 25 26  1  0
M  CHG  1   8   1
M  END
>  <PDB_ID>  (939) 
pdb2rfm

>  <RESIDUE_NAME>  (939) 
LYS   PHE

>  <FRAG_NAME>  (939) 
ETAM   MBZ

>  <FRAG_ATOM_NUM>  (939) 
fragi: 11  fragj: 15

>  <atom.prop.CHAIN_ID>  (939) 
A A A A A A A A A A A Z Z Z Z Z Z Z Z Z Z Z Z Z Z Z

>  <atom.prop.IS_HEAVY_ATOM>  (939) 
1 0 0 0 1 0 0 1 0 0 0 1 0 0 0 1 1 0 1 0 1 0 1 0 1 0

>  <DIFUSE_FUNC_ATOM>  (939) 
n/a

>  <FINAL_SINGLE_POINT_ENERGY>  (939) 
0

>  <NONCOV_INTER_ENERGY_QM>  (939) 
0

>  <FF_Energy>  (939) 
-4.1

>  <QM_Energy>  (939) 
-9.51

>  <source>  (939) 
ETAM_MBZ

>  <Index>  (939) 
9284

$$$$
ETAM-pdb2rfg-A-LYS-252:MBZ-pdb2rfg-A-PHE-13
     RDKit          3D

 26 25  0  0  0  0  0  0  0  0999 V2000
   -5.0258    1.3026    4.1276 C   0  0  0  0  0  0  0  0  0  0  0  0
   -4.1759    1.8103    4.1995 H   0  0  0  0  0  0  0  0  0  0  0  0
   -5.3812    1.0820    5.0274 H   0  0  0  0  0  0  0  0  0  0  0  0
   -5.7572    1.9147    3.5999 H   0  0  0  0  0  0  0  0  0  0  0  0
   -4.7405   -0.0154    3.3832 C   0  0  0  0  0  0  0  0  0  0  0  0
   -4.2843   -0.6480    4.0140 H   0  0  0  0  0  0  0  0  0  0  0  0
   -5.6135   -0.4175    3.0943 H   0  0  0  0  0  0  0  0  0  0  0  0
   -3.8662    0.1766    2.1671 N   0  0  0  0  0  4  0  0  0  0  0  0
   -4.2864   -0.2887    1.3930 H   0  0  0  0  0  0  0  0  0  0  0  0
   -3.7876    1.1519    1.9797 H   0  0  0  0  0  0  0  0  0  0  0  0
   -2.9675   -0.2112    2.3535 H   0  0  0  0  0  0  0  0  0  0  0  0
    0.0075    2.9187    0.0019 C   0  0  0  0  0  0  0  0  0  0  0  0
   -0.9276    3.2298   -0.0884 H   0  0  0  0  0  0  0  0  0  0  0  0
    0.5608    3.2237   -0.7590 H   0  0  0  0  0  0  0  0  0  0  0  0
    0.4175    3.3656    0.9076 H   0  0  0  0  0  0  0  0  0  0  0  0
    0.0026    1.4149    0.0032 C   0  0  0  0  0  0  0  0  0  0  0  0
   -1.2019    0.7016    0.0099 C   0  0  0  0  0  0  0  0  0  0  0  0
   -2.0669    1.1850    0.0207 H   0  0  0  0  0  0  0  0  0  0  0  0
   -1.2050   -0.7075    0.0000 C   0  0  0  0  0  0  0  0  0  0  0  0
   -2.0828   -1.1934   -0.0032 H   0  0  0  0  0  0  0  0  0  0  0  0
   -0.0022   -1.4057   -0.0030 C   0  0  0  0  0  0  0  0  0  0  0  0
   -0.0043   -2.4030   -0.0082 H   0  0  0  0  0  0  0  0  0  0  0  0
    1.2050   -0.7067   -0.0000 C   0  0  0  0  0  0  0  0  0  0  0  0
    2.0849   -1.1976    0.0114 H   0  0  0  0  0  0  0  0  0  0  0  0
    1.2015    0.7033   -0.0101 C   0  0  0  0  0  0  0  0  0  0  0  0
    2.0707    1.1907   -0.0278 H   0  0  0  0  0  0  0  0  0  0  0  0
  1  5  1  0
  5  8  1  0
  1  2  1  0
  1  3  1  0
  1  4  1  0
  5  6  1  0
  5  7  1  0
  8  9  1  0
  8 10  1  0
  8 11  1  0
 12 16  1  0
 16 17  2  0
 17 19  1  0
 19 21  2  0
 21 23  1  0
 23 25  2  0
 25 16  1  0
 12 13  1  0
 12 14  1  0
 12 15  1  0
 17 18  1  0
 19 20  1  0
 21 22  1  0
 23 24  1  0
 25 26  1  0
M  CHG  1   8   1
M  END
>  <PDB_ID>  (940) 
pdb2rfg

>  <RESIDUE_NAME>  (940) 
LYS   PHE

>  <FRAG_NAME>  (940) 
ETAM   MBZ

>  <FRAG_ATOM_NUM>  (940) 
fragi: 11  fragj: 15

>  <atom.prop.CHAIN_ID>  (940) 
A A A A A A A A A A A Z Z Z Z Z Z Z Z Z Z Z Z Z Z Z

>  <atom.prop.IS_HEAVY_ATOM>  (940) 
1 0 0 0 1 0 0 1 0 0 0 1 0 0 0 1 1 0 1 0 1 0 1 0 1 0

>  <DIFUSE_FUNC_ATOM>  (940) 
n/a

>  <FINAL_SINGLE_POINT_ENERGY>  (940) 
0

>  <NONCOV_INTER_ENERGY_QM>  (940) 
0

>  <FF_Energy>  (940) 
-0.93

>  <QM_Energy>  (940) 
-6.23

>  <source>  (940) 
ETAM_MBZ

>  <Index>  (940) 
9285

$$$$
ETAM-pdb2rff-A-LYS-19:MBZ-pdb2rff-A-PHE-107
     RDKit          3D

 26 25  0  0  0  0  0  0  0  0999 V2000
    0.3790   -0.1039    4.6388 C   0  0  0  0  0  0  0  0  0  0  0  0
    0.0554    0.7788    4.3005 H   0  0  0  0  0  0  0  0  0  0  0  0
    0.1529   -0.1947    5.6079 H   0  0  0  0  0  0  0  0  0  0  0  0
   -0.0990   -0.9061    4.0767 H   0  0  0  0  0  0  0  0  0  0  0  0
    1.9101   -0.1244    4.5093 C   0  0  0  0  0  0  0  0  0  0  0  0
    2.2928    0.5770    5.1346 H   0  0  0  0  0  0  0  0  0  0  0  0
    2.2458   -1.0264    4.8327 H   0  0  0  0  0  0  0  0  0  0  0  0
    2.4335    0.1207    3.1284 N   0  0  0  0  0  4  0  0  0  0  0  0
    3.3207   -0.3267    3.0305 H   0  0  0  0  0  0  0  0  0  0  0  0
    1.7904   -0.2538    2.4631 H   0  0  0  0  0  0  0  0  0  0  0  0
    2.5328    1.1034    2.9852 H   0  0  0  0  0  0  0  0  0  0  0  0
   -0.0031    2.8779   -0.0111 C   0  0  0  0  0  0  0  0  0  0  0  0
    0.8238    3.2169    0.4118 H   0  0  0  0  0  0  0  0  0  0  0  0
   -0.8084    3.2061    0.4593 H   0  0  0  0  0  0  0  0  0  0  0  0
   -0.0356    3.2679   -1.0285 H   0  0  0  0  0  0  0  0  0  0  0  0
    0.0079    1.4099    0.0323 C   0  0  0  0  0  0  0  0  0  0  0  0
   -1.1946    0.7074    0.0072 C   0  0  0  0  0  0  0  0  0  0  0  0
   -2.0594    1.1863   -0.0075 H   0  0  0  0  0  0  0  0  0  0  0  0
   -1.2001   -0.7118    0.0000 C   0  0  0  0  0  0  0  0  0  0  0  0
   -2.0894   -1.1827    0.0166 H   0  0  0  0  0  0  0  0  0  0  0  0
   -0.0215   -1.3992   -0.0269 C   0  0  0  0  0  0  0  0  0  0  0  0
   -0.0128   -2.4010   -0.0667 H   0  0  0  0  0  0  0  0  0  0  0  0
    1.2001   -0.7072   -0.0000 C   0  0  0  0  0  0  0  0  0  0  0  0
    2.0710   -1.2093    0.0302 H   0  0  0  0  0  0  0  0  0  0  0  0
    1.2082    0.7009   -0.0126 C   0  0  0  0  0  0  0  0  0  0  0  0
    2.0735    1.1847   -0.0547 H   0  0  0  0  0  0  0  0  0  0  0  0
  1  5  1  0
  5  8  1  0
  1  2  1  0
  1  3  1  0
  1  4  1  0
  5  6  1  0
  5  7  1  0
  8  9  1  0
  8 10  1  0
  8 11  1  0
 12 16  1  0
 16 17  2  0
 17 19  1  0
 19 21  2  0
 21 23  1  0
 23 25  2  0
 25 16  1  0
 12 13  1  0
 12 14  1  0
 12 15  1  0
 17 18  1  0
 19 20  1  0
 21 22  1  0
 23 24  1  0
 25 26  1  0
M  CHG  1   8   1
M  END
>  <PDB_ID>  (941) 
pdb2rff

>  <RESIDUE_NAME>  (941) 
LYS   PHE

>  <FRAG_NAME>  (941) 
ETAM   MBZ

>  <FRAG_ATOM_NUM>  (941) 
fragi: 11  fragj: 15

>  <atom.prop.CHAIN_ID>  (941) 
A A A A A A A A A A A Z Z Z Z Z Z Z Z Z Z Z Z Z Z Z

>  <atom.prop.IS_HEAVY_ATOM>  (941) 
1 0 0 0 1 0 0 1 0 0 0 1 0 0 0 1 1 0 1 0 1 0 1 0 1 0

>  <DIFUSE_FUNC_ATOM>  (941) 
n/a

>  <FINAL_SINGLE_POINT_ENERGY>  (941) 
0

>  <NONCOV_INTER_ENERGY_QM>  (941) 
0

>  <FF_Energy>  (941) 
-5.14

>  <QM_Energy>  (941) 
-11.38

>  <source>  (941) 
ETAM_MBZ

>  <Index>  (941) 
9290

$$$$
ETAM-pdb1nz0-A-LYS-75:MBZ-pdb1nz0-A-PHE-71
     RDKit          3D

 26 25  0  0  0  0  0  0  0  0999 V2000
    3.9632   -1.0601    2.8111 C   0  0  0  0  0  0  0  0  0  0  0  0
    4.3120   -0.1371    2.9602 H   0  0  0  0  0  0  0  0  0  0  0  0
    4.5087   -1.7164    3.3271 H   0  0  0  0  0  0  0  0  0  0  0  0
    2.9299   -1.1079    3.1547 H   0  0  0  0  0  0  0  0  0  0  0  0
    4.0929   -1.3893    1.3269 C   0  0  0  0  0  0  0  0  0  0  0  0
    3.7486   -2.3124    1.1712 H   0  0  0  0  0  0  0  0  0  0  0  0
    3.5531   -0.7337    0.8038 H   0  0  0  0  0  0  0  0  0  0  0  0
    5.5117   -1.3113    0.9044 N   0  0  0  0  0  4  0  0  0  0  0  0
    5.8848   -2.2352    0.8132 H   0  0  0  0  0  0  0  0  0  0  0  0
    5.5732   -0.8397    0.0239 H   0  0  0  0  0  0  0  0  0  0  0  0
    6.0380   -0.8064    1.5895 H   0  0  0  0  0  0  0  0  0  0  0  0
    0.0106    2.8666    0.1077 C   0  0  0  0  0  0  0  0  0  0  0  0
   -0.7887    3.2067   -0.3370 H   0  0  0  0  0  0  0  0  0  0  0  0
    0.8434    3.1782   -0.2944 H   0  0  0  0  0  0  0  0  0  0  0  0
   -0.0105    3.2014    1.1448 H   0  0  0  0  0  0  0  0  0  0  0  0
   -0.0142    1.3604    0.0286 C   0  0  0  0  0  0  0  0  0  0  0  0
   -1.2020    0.6743    0.0078 C   0  0  0  0  0  0  0  0  0  0  0  0
   -2.0677    1.1671   -0.0031 H   0  0  0  0  0  0  0  0  0  0  0  0
   -1.2015   -0.6998    0.0000 C   0  0  0  0  0  0  0  0  0  0  0  0
   -2.0609   -1.2096   -0.0063 H   0  0  0  0  0  0  0  0  0  0  0  0
    0.0155   -1.3604    0.0034 C   0  0  0  0  0  0  0  0  0  0  0  0
    0.0205   -2.3732    0.0083 H   0  0  0  0  0  0  0  0  0  0  0  0
    1.2015   -0.6713   -0.0000 C   0  0  0  0  0  0  0  0  0  0  0  0
    2.0874   -1.1757    0.0289 H   0  0  0  0  0  0  0  0  0  0  0  0
    1.2006    0.6969   -0.0397 C   0  0  0  0  0  0  0  0  0  0  0  0
    2.0441    1.2077   -0.1160 H   0  0  0  0  0  0  0  0  0  0  0  0
  1  5  1  0
  5  8  1  0
  1  2  1  0
  1  3  1  0
  1  4  1  0
  5  6  1  0
  5  7  1  0
  8  9  1  0
  8 10  1  0
  8 11  1  0
 12 16  1  0
 16 17  2  0
 17 19  1  0
 19 21  2  0
 21 23  1  0
 23 25  2  0
 25 16  1  0
 12 13  1  0
 12 14  1  0
 12 15  1  0
 17 18  1  0
 19 20  1  0
 21 22  1  0
 23 24  1  0
 25 26  1  0
M  CHG  1   8   1
M  END
>  <PDB_ID>  (942) 
pdb1nz0

>  <RESIDUE_NAME>  (942) 
LYS   PHE

>  <FRAG_NAME>  (942) 
ETAM   MBZ

>  <FRAG_ATOM_NUM>  (942) 
fragi: 11  fragj: 15

>  <atom.prop.CHAIN_ID>  (942) 
A A A A A A A A A A A Z Z Z Z Z Z Z Z Z Z Z Z Z Z Z

>  <atom.prop.IS_HEAVY_ATOM>  (942) 
1 0 0 0 1 0 0 1 0 0 0 1 0 0 0 1 1 0 1 0 1 0 1 0 1 0

>  <DIFUSE_FUNC_ATOM>  (942) 
n/a

>  <FINAL_SINGLE_POINT_ENERGY>  (942) 
0

>  <NONCOV_INTER_ENERGY_QM>  (942) 
0

>  <FF_Energy>  (942) 
9.61

>  <QM_Energy>  (942) 
-0.06

>  <source>  (942) 
ETAM_MBZ

>  <Index>  (942) 
9309

$$$$
ETAM-pdb2rfg-B-LYS-252:MBZ-pdb2rfg-B-PHE-13
     RDKit          3D

 26 25  0  0  0  0  0  0  0  0999 V2000
   -4.8224    1.0076    4.3951 C   0  0  0  0  0  0  0  0  0  0  0  0
   -4.0376    1.6141    4.4062 H   0  0  0  0  0  0  0  0  0  0  0  0
   -5.0941    0.7637    5.3162 H   0  0  0  0  0  0  0  0  0  0  0  0
   -5.6527    1.5227    3.9119 H   0  0  0  0  0  0  0  0  0  0  0  0
   -4.4465   -0.2668    3.6409 C   0  0  0  0  0  0  0  0  0  0  0  0
   -3.8793   -0.8379    4.2239 H   0  0  0  0  0  0  0  0  0  0  0  0
   -5.2753   -0.7511    3.3813 H   0  0  0  0  0  0  0  0  0  0  0  0
   -3.6685    0.0715    2.3864 N   0  0  0  0  0  4  0  0  0  0  0  0
   -2.6958    0.0406    2.5963 H   0  0  0  0  0  0  0  0  0  0  0  0
   -3.8904   -0.5977    1.6838 H   0  0  0  0  0  0  0  0  0  0  0  0
   -3.9273    0.9851    2.0876 H   0  0  0  0  0  0  0  0  0  0  0  0
   -0.0233    2.9037   -0.0008 C   0  0  0  0  0  0  0  0  0  0  0  0
   -0.9674    3.2004   -0.0464 H   0  0  0  0  0  0  0  0  0  0  0  0
    0.4863    3.2157   -0.7908 H   0  0  0  0  0  0  0  0  0  0  0  0
    0.4239    3.3633    0.8806 H   0  0  0  0  0  0  0  0  0  0  0  0
   -0.0032    1.4057    0.0081 C   0  0  0  0  0  0  0  0  0  0  0  0
   -1.2014    0.6919   -0.0023 C   0  0  0  0  0  0  0  0  0  0  0  0
   -2.0686    1.1808   -0.0131 H   0  0  0  0  0  0  0  0  0  0  0  0
   -1.2079   -0.7040    0.0000 C   0  0  0  0  0  0  0  0  0  0  0  0
   -2.0791   -1.1986    0.0045 H   0  0  0  0  0  0  0  0  0  0  0  0
    0.0042   -1.3989   -0.0020 C   0  0  0  0  0  0  0  0  0  0  0  0
    0.0032   -2.3958   -0.0048 H   0  0  0  0  0  0  0  0  0  0  0  0
    1.2079   -0.6962   -0.0000 C   0  0  0  0  0  0  0  0  0  0  0  0
    2.0897   -1.1903    0.0058 H   0  0  0  0  0  0  0  0  0  0  0  0
    1.2003    0.7016   -0.0039 C   0  0  0  0  0  0  0  0  0  0  0  0
    2.0649    1.1989   -0.0165 H   0  0  0  0  0  0  0  0  0  0  0  0
  1  5  1  0
  5  8  1  0
  1  2  1  0
  1  3  1  0
  1  4  1  0
  5  6  1  0
  5  7  1  0
  8  9  1  0
  8 10  1  0
  8 11  1  0
 12 16  1  0
 16 17  2  0
 17 19  1  0
 19 21  2  0
 21 23  1  0
 23 25  2  0
 25 16  1  0
 12 13  1  0
 12 14  1  0
 12 15  1  0
 17 18  1  0
 19 20  1  0
 21 22  1  0
 23 24  1  0
 25 26  1  0
M  CHG  1   8   1
M  END
>  <PDB_ID>  (943) 
pdb2rfg

>  <RESIDUE_NAME>  (943) 
LYS   PHE

>  <FRAG_NAME>  (943) 
ETAM   MBZ

>  <FRAG_ATOM_NUM>  (943) 
fragi: 11  fragj: 15

>  <atom.prop.CHAIN_ID>  (943) 
A A A A A A A A A A A Z Z Z Z Z Z Z Z Z Z Z Z Z Z Z

>  <atom.prop.IS_HEAVY_ATOM>  (943) 
1 0 0 0 1 0 0 1 0 0 0 1 0 0 0 1 1 0 1 0 1 0 1 0 1 0

>  <DIFUSE_FUNC_ATOM>  (943) 
n/a

>  <FINAL_SINGLE_POINT_ENERGY>  (943) 
0

>  <NONCOV_INTER_ENERGY_QM>  (943) 
0

>  <FF_Energy>  (943) 
-1.45

>  <QM_Energy>  (943) 
-6.64

>  <source>  (943) 
ETAM_MBZ

>  <Index>  (943) 
9315

$$$$
ETAM-pdb1n4q-A-LYS-118:MBZ-pdb1n4q-A-PHE-55
     RDKit          3D

 26 25  0  0  0  0  0  0  0  0999 V2000
    4.0113    1.6617   -2.2518 C   0  0  0  0  0  0  0  0  0  0  0  0
    4.8351    1.7366   -1.7058 H   0  0  0  0  0  0  0  0  0  0  0  0
    3.2903    2.2338   -1.8842 H   0  0  0  0  0  0  0  0  0  0  0  0
    4.2308    1.9775   -3.2717 H   0  0  0  0  0  0  0  0  0  0  0  0
    3.5451    0.2186   -2.2320 C   0  0  0  0  0  0  0  0  0  0  0  0
    4.2609   -0.3621   -2.6170 H   0  0  0  0  0  0  0  0  0  0  0  0
    3.3625   -0.0547   -1.2886 H   0  0  0  0  0  0  0  0  0  0  0  0
    2.2978    0.0551   -3.0365 N   0  0  0  0  0  4  0  0  0  0  0  0
    2.0241    0.9424   -3.4037 H   0  0  0  0  0  0  0  0  0  0  0  0
    2.4707   -0.5810   -3.7868 H   0  0  0  0  0  0  0  0  0  0  0  0
    1.5727   -0.3041   -2.4508 H   0  0  0  0  0  0  0  0  0  0  0  0
    0.0079    2.9215    0.0716 C   0  0  0  0  0  0  0  0  0  0  0  0
    0.8324    3.2434   -0.3697 H   0  0  0  0  0  0  0  0  0  0  0  0
   -0.0150    3.1826    1.0258 H   0  0  0  0  0  0  0  0  0  0  0  0
   -0.8401    3.3956   -0.4224 H   0  0  0  0  0  0  0  0  0  0  0  0
    0.0018    1.4129    0.0014 C   0  0  0  0  0  0  0  0  0  0  0  0
   -1.2005    0.6987   -0.0003 C   0  0  0  0  0  0  0  0  0  0  0  0
   -2.0662    1.1869   -0.0031 H   0  0  0  0  0  0  0  0  0  0  0  0
   -1.2079   -0.7027    0.0000 C   0  0  0  0  0  0  0  0  0  0  0  0
   -2.0841   -1.1916    0.0012 H   0  0  0  0  0  0  0  0  0  0  0  0
   -0.0022   -1.4057    0.0002 C   0  0  0  0  0  0  0  0  0  0  0  0
   -0.0061   -2.4007   -0.0002 H   0  0  0  0  0  0  0  0  0  0  0  0
    1.2079   -0.7041    0.0000 C   0  0  0  0  0  0  0  0  0  0  0  0
    2.0865   -1.1965    0.0022 H   0  0  0  0  0  0  0  0  0  0  0  0
    1.2009    0.7009   -0.0012 C   0  0  0  0  0  0  0  0  0  0  0  0
    2.0693    1.1929   -0.0050 H   0  0  0  0  0  0  0  0  0  0  0  0
  1  5  1  0
  5  8  1  0
  1  2  1  0
  1  3  1  0
  1  4  1  0
  5  6  1  0
  5  7  1  0
  8  9  1  0
  8 10  1  0
  8 11  1  0
 12 16  1  0
 16 17  2  0
 17 19  1  0
 19 21  2  0
 21 23  1  0
 23 25  2  0
 25 16  1  0
 12 13  1  0
 12 14  1  0
 12 15  1  0
 17 18  1  0
 19 20  1  0
 21 22  1  0
 23 24  1  0
 25 26  1  0
M  CHG  1   8   1
M  END
>  <PDB_ID>  (944) 
pdb1n4q

>  <RESIDUE_NAME>  (944) 
LYS   PHE

>  <FRAG_NAME>  (944) 
ETAM   MBZ

>  <FRAG_ATOM_NUM>  (944) 
fragi: 11  fragj: 15

>  <atom.prop.CHAIN_ID>  (944) 
A A A A A A A A A A A Z Z Z Z Z Z Z Z Z Z Z Z Z Z Z

>  <atom.prop.IS_HEAVY_ATOM>  (944) 
1 0 0 0 1 0 0 1 0 0 0 1 0 0 0 1 1 0 1 0 1 0 1 0 1 0

>  <DIFUSE_FUNC_ATOM>  (944) 
n/a

>  <FINAL_SINGLE_POINT_ENERGY>  (944) 
0

>  <NONCOV_INTER_ENERGY_QM>  (944) 
0

>  <FF_Energy>  (944) 
-3.24

>  <QM_Energy>  (944) 
-11.72

>  <source>  (944) 
ETAM_MBZ

>  <Index>  (944) 
9319

$$$$
ETAM-pdb2rgo-A-LYS-238:MBZ-pdb2rgo-A-PHE-307
     RDKit          3D

 26 25  0  0  0  0  0  0  0  0999 V2000
    2.3719    0.4966   -4.2482 C   0  0  0  0  0  0  0  0  0  0  0  0
    2.8371    0.8461   -3.4456 H   0  0  0  0  0  0  0  0  0  0  0  0
    2.1903    1.2234   -4.8973 H   0  0  0  0  0  0  0  0  0  0  0  0
    2.9943   -0.2626   -4.7220 H   0  0  0  0  0  0  0  0  0  0  0  0
    1.0268   -0.0957   -3.8029 C   0  0  0  0  0  0  0  0  0  0  0  0
    0.6589   -0.6570   -4.5519 H   0  0  0  0  0  0  0  0  0  0  0  0
    1.1848   -0.6889   -3.0067 H   0  0  0  0  0  0  0  0  0  0  0  0
    0.0166    0.9528   -3.4369 N   0  0  0  0  0  4  0  0  0  0  0  0
   -0.8498    0.5083   -3.2224 H   0  0  0  0  0  0  0  0  0  0  0  0
    0.3450    1.4577   -2.6416 H   0  0  0  0  0  0  0  0  0  0  0  0
   -0.1014    1.5736   -4.2079 H   0  0  0  0  0  0  0  0  0  0  0  0
    0.0052    2.9177    0.0248 C   0  0  0  0  0  0  0  0  0  0  0  0
    0.0874    3.2362   -0.9078 H   0  0  0  0  0  0  0  0  0  0  0  0
    0.7735    3.2103    0.5735 H   0  0  0  0  0  0  0  0  0  0  0  0
   -0.8984    3.3534    0.4511 H   0  0  0  0  0  0  0  0  0  0  0  0
   -0.0003    1.4136    0.0013 C   0  0  0  0  0  0  0  0  0  0  0  0
   -1.2011    0.7054   -0.0034 C   0  0  0  0  0  0  0  0  0  0  0  0
   -2.0670    1.1876   -0.0102 H   0  0  0  0  0  0  0  0  0  0  0  0
   -1.2030   -0.7017    0.0000 C   0  0  0  0  0  0  0  0  0  0  0  0
   -2.0779   -1.1914    0.0033 H   0  0  0  0  0  0  0  0  0  0  0  0
    0.0067   -1.4051    0.0005 C   0  0  0  0  0  0  0  0  0  0  0  0
   -0.0063   -2.4027    0.0003 H   0  0  0  0  0  0  0  0  0  0  0  0
    1.2030   -0.7131   -0.0000 C   0  0  0  0  0  0  0  0  0  0  0  0
    2.0878   -1.1959   -0.0005 H   0  0  0  0  0  0  0  0  0  0  0  0
    1.1946    0.7010    0.0016 C   0  0  0  0  0  0  0  0  0  0  0  0
    2.0668    1.1873    0.0017 H   0  0  0  0  0  0  0  0  0  0  0  0
  1  5  1  0
  5  8  1  0
  1  2  1  0
  1  3  1  0
  1  4  1  0
  5  6  1  0
  5  7  1  0
  8  9  1  0
  8 10  1  0
  8 11  1  0
 12 16  1  0
 16 17  2  0
 17 19  1  0
 19 21  2  0
 21 23  1  0
 23 25  2  0
 25 16  1  0
 12 13  1  0
 12 14  1  0
 12 15  1  0
 17 18  1  0
 19 20  1  0
 21 22  1  0
 23 24  1  0
 25 26  1  0
M  CHG  1   8   1
M  END
>  <PDB_ID>  (945) 
pdb2rgo

>  <RESIDUE_NAME>  (945) 
LYS   PHE

>  <FRAG_NAME>  (945) 
ETAM   MBZ

>  <FRAG_ATOM_NUM>  (945) 
fragi: 11  fragj: 15

>  <atom.prop.CHAIN_ID>  (945) 
A A A A A A A A A A A Z Z Z Z Z Z Z Z Z Z Z Z Z Z Z

>  <atom.prop.IS_HEAVY_ATOM>  (945) 
1 0 0 0 1 0 0 1 0 0 0 1 0 0 0 1 1 0 1 0 1 0 1 0 1 0

>  <DIFUSE_FUNC_ATOM>  (945) 
n/a

>  <FINAL_SINGLE_POINT_ENERGY>  (945) 
0

>  <NONCOV_INTER_ENERGY_QM>  (945) 
0

>  <FF_Energy>  (945) 
-8.19

>  <QM_Energy>  (945) 
-13.63

>  <source>  (945) 
ETAM_MBZ

>  <Index>  (945) 
9321

$$$$
ETAM-pdb1o17-A-LYS-195:MBZ-pdb1o17-A-PHE-232
     RDKit          3D

 26 25  0  0  0  0  0  0  0  0999 V2000
   -1.1849    0.5300   -4.8473 C   0  0  0  0  0  0  0  0  0  0  0  0
   -2.0282    0.2331   -5.2863 H   0  0  0  0  0  0  0  0  0  0  0  0
   -0.4049    0.3344   -5.4348 H   0  0  0  0  0  0  0  0  0  0  0  0
   -1.2369    1.6051   -4.6752 H   0  0  0  0  0  0  0  0  0  0  0  0
   -1.0183   -0.2300   -3.5497 C   0  0  0  0  0  0  0  0  0  0  0  0
   -1.7097    0.0740   -2.8992 H   0  0  0  0  0  0  0  0  0  0  0  0
   -1.1207   -1.2061   -3.7243 H   0  0  0  0  0  0  0  0  0  0  0  0
    0.3354    0.0249   -2.9802 N   0  0  0  0  0  4  0  0  0  0  0  0
    0.9557    0.3008   -3.7132 H   0  0  0  0  0  0  0  0  0  0  0  0
    0.2753    0.7532   -2.2983 H   0  0  0  0  0  0  0  0  0  0  0  0
    0.6756   -0.8103   -2.5501 H   0  0  0  0  0  0  0  0  0  0  0  0
    0.0023    2.8984    0.1004 C   0  0  0  0  0  0  0  0  0  0  0  0
   -0.7734    3.2397   -0.4021 H   0  0  0  0  0  0  0  0  0  0  0  0
    0.8540    3.2295   -0.2673 H   0  0  0  0  0  0  0  0  0  0  0  0
   -0.0801    3.2493    1.1291 H   0  0  0  0  0  0  0  0  0  0  0  0
    0.0008    1.4045    0.0008 C   0  0  0  0  0  0  0  0  0  0  0  0
   -1.1992    0.6945   -0.0008 C   0  0  0  0  0  0  0  0  0  0  0  0
   -2.0650    1.1847   -0.0035 H   0  0  0  0  0  0  0  0  0  0  0  0
   -1.2059   -0.7013   -0.0000 C   0  0  0  0  0  0  0  0  0  0  0  0
   -2.0816   -1.1925    0.0007 H   0  0  0  0  0  0  0  0  0  0  0  0
   -0.0032   -1.3964    0.0016 C   0  0  0  0  0  0  0  0  0  0  0  0
   -0.0023   -2.3942    0.0037 H   0  0  0  0  0  0  0  0  0  0  0  0
    1.2059   -0.6958    0.0000 C   0  0  0  0  0  0  0  0  0  0  0  0
    2.0839   -1.1962    0.0015 H   0  0  0  0  0  0  0  0  0  0  0  0
    1.2016    0.6945   -0.0016 C   0  0  0  0  0  0  0  0  0  0  0  0
    2.0673    1.1930   -0.0051 H   0  0  0  0  0  0  0  0  0  0  0  0
  1  5  1  0
  5  8  1  0
  1  2  1  0
  1  3  1  0
  1  4  1  0
  5  6  1  0
  5  7  1  0
  8  9  1  0
  8 10  1  0
  8 11  1  0
 12 16  1  0
 16 17  2  0
 17 19  1  0
 19 21  2  0
 21 23  1  0
 23 25  2  0
 25 16  1  0
 12 13  1  0
 12 14  1  0
 12 15  1  0
 17 18  1  0
 19 20  1  0
 21 22  1  0
 23 24  1  0
 25 26  1  0
M  CHG  1   8   1
M  END
>  <PDB_ID>  (946) 
pdb1o17

>  <RESIDUE_NAME>  (946) 
LYS   PHE

>  <FRAG_NAME>  (946) 
ETAM   MBZ

>  <FRAG_ATOM_NUM>  (946) 
fragi: 11  fragj: 15

>  <atom.prop.CHAIN_ID>  (946) 
A A A A A A A A A A A Z Z Z Z Z Z Z Z Z Z Z Z Z Z Z

>  <atom.prop.IS_HEAVY_ATOM>  (946) 
1 0 0 0 1 0 0 1 0 0 0 1 0 0 0 1 1 0 1 0 1 0 1 0 1 0

>  <DIFUSE_FUNC_ATOM>  (946) 
n/a

>  <FINAL_SINGLE_POINT_ENERGY>  (946) 
0

>  <NONCOV_INTER_ENERGY_QM>  (946) 
0

>  <FF_Energy>  (946) 
-9.48

>  <QM_Energy>  (946) 
-18.13

>  <source>  (946) 
ETAM_MBZ

>  <Index>  (946) 
9324

$$$$
ETAM-pdb1o17-C-LYS-195:MBZ-pdb1o17-C-PHE-232
     RDKit          3D

 26 25  0  0  0  0  0  0  0  0999 V2000
   -0.9306    0.7132   -5.1484 C   0  0  0  0  0  0  0  0  0  0  0  0
   -1.5771    0.1726   -4.6114 H   0  0  0  0  0  0  0  0  0  0  0  0
   -0.9722    0.4309   -6.1060 H   0  0  0  0  0  0  0  0  0  0  0  0
   -1.2047    1.7658   -5.0768 H   0  0  0  0  0  0  0  0  0  0  0  0
    0.4712    0.4427   -4.6271 C   0  0  0  0  0  0  0  0  0  0  0  0
    0.7739   -0.4553   -4.9577 H   0  0  0  0  0  0  0  0  0  0  0  0
    1.0922    1.1457   -4.9820 H   0  0  0  0  0  0  0  0  0  0  0  0
    0.5181    0.4563   -3.1392 N   0  0  0  0  0  4  0  0  0  0  0  0
   -0.1685   -0.1758   -2.7799 H   0  0  0  0  0  0  0  0  0  0  0  0
    1.4262    0.1730   -2.8337 H   0  0  0  0  0  0  0  0  0  0  0  0
    0.3272    1.3805   -2.8096 H   0  0  0  0  0  0  0  0  0  0  0  0
    0.0040    2.9047    0.1009 C   0  0  0  0  0  0  0  0  0  0  0  0
   -0.7408    3.2514   -0.4456 H   0  0  0  0  0  0  0  0  0  0  0  0
    0.8768    3.2320   -0.2216 H   0  0  0  0  0  0  0  0  0  0  0  0
   -0.1325    3.2732    1.1176 H   0  0  0  0  0  0  0  0  0  0  0  0
   -0.0003    1.4046    0.0013 C   0  0  0  0  0  0  0  0  0  0  0  0
   -1.1991    0.6955   -0.0024 C   0  0  0  0  0  0  0  0  0  0  0  0
   -2.0647    1.1871   -0.0078 H   0  0  0  0  0  0  0  0  0  0  0  0
   -1.2027   -0.6937   -0.0000 C   0  0  0  0  0  0  0  0  0  0  0  0
   -2.0794   -1.1896    0.0005 H   0  0  0  0  0  0  0  0  0  0  0  0
    0.0002   -1.3960    0.0028 C   0  0  0  0  0  0  0  0  0  0  0  0
   -0.0097   -2.3945    0.0059 H   0  0  0  0  0  0  0  0  0  0  0  0
    1.2027   -0.7043   -0.0000 C   0  0  0  0  0  0  0  0  0  0  0  0
    2.0831   -1.1994    0.0004 H   0  0  0  0  0  0  0  0  0  0  0  0
    1.1992    0.6938   -0.0016 C   0  0  0  0  0  0  0  0  0  0  0  0
    2.0673    1.1873   -0.0060 H   0  0  0  0  0  0  0  0  0  0  0  0
  1  5  1  0
  5  8  1  0
  1  2  1  0
  1  3  1  0
  1  4  1  0
  5  6  1  0
  5  7  1  0
  8  9  1  0
  8 10  1  0
  8 11  1  0
 12 16  1  0
 16 17  2  0
 17 19  1  0
 19 21  2  0
 21 23  1  0
 23 25  2  0
 25 16  1  0
 12 13  1  0
 12 14  1  0
 12 15  1  0
 17 18  1  0
 19 20  1  0
 21 22  1  0
 23 24  1  0
 25 26  1  0
M  CHG  1   8   1
M  END
>  <PDB_ID>  (947) 
pdb1o17

>  <RESIDUE_NAME>  (947) 
LYS   PHE

>  <FRAG_NAME>  (947) 
ETAM   MBZ

>  <FRAG_ATOM_NUM>  (947) 
fragi: 11  fragj: 15

>  <atom.prop.CHAIN_ID>  (947) 
A A A A A A A A A A A Z Z Z Z Z Z Z Z Z Z Z Z Z Z Z

>  <atom.prop.IS_HEAVY_ATOM>  (947) 
1 0 0 0 1 0 0 1 0 0 0 1 0 0 0 1 1 0 1 0 1 0 1 0 1 0

>  <DIFUSE_FUNC_ATOM>  (947) 
n/a

>  <FINAL_SINGLE_POINT_ENERGY>  (947) 
0

>  <NONCOV_INTER_ENERGY_QM>  (947) 
0

>  <FF_Energy>  (947) 
-8.5

>  <QM_Energy>  (947) 
-15.14

>  <source>  (947) 
ETAM_MBZ

>  <Index>  (947) 
9327

$$$$
ETAM-pdb1o17-D-LYS-195:MBZ-pdb1o17-D-PHE-232
     RDKit          3D

 26 25  0  0  0  0  0  0  0  0999 V2000
    0.7620    0.1380   -4.7213 C   0  0  0  0  0  0  0  0  0  0  0  0
    1.0760   -0.3663   -5.5160 H   0  0  0  0  0  0  0  0  0  0  0  0
    1.5247    0.5714   -4.2563 H   0  0  0  0  0  0  0  0  0  0  0  0
    0.0633    0.9086   -5.0469 H   0  0  0  0  0  0  0  0  0  0  0  0
    0.1003   -0.8471   -3.7525 C   0  0  0  0  0  0  0  0  0  0  0  0
   -0.2711   -0.3447   -2.9828 H   0  0  0  0  0  0  0  0  0  0  0  0
   -0.6157   -1.3395   -4.2301 H   0  0  0  0  0  0  0  0  0  0  0  0
    1.1237   -1.8316   -3.2504 N   0  0  0  0  0  4  0  0  0  0  0  0
    0.9780   -2.7072   -3.7031 H   0  0  0  0  0  0  0  0  0  0  0  0
    2.0347   -1.4857   -3.4599 H   0  0  0  0  0  0  0  0  0  0  0  0
    1.0166   -1.9343   -2.2651 H   0  0  0  0  0  0  0  0  0  0  0  0
   -0.0037    2.9111    0.0779 C   0  0  0  0  0  0  0  0  0  0  0  0
   -0.7064    3.2455   -0.5257 H   0  0  0  0  0  0  0  0  0  0  0  0
    0.8903    3.2311   -0.1836 H   0  0  0  0  0  0  0  0  0  0  0  0
   -0.2153    3.2835    1.0802 H   0  0  0  0  0  0  0  0  0  0  0  0
   -0.0004    1.4069    0.0008 C   0  0  0  0  0  0  0  0  0  0  0  0
   -1.1933    0.6928   -0.0005 C   0  0  0  0  0  0  0  0  0  0  0  0
   -2.0637    1.1794   -0.0032 H   0  0  0  0  0  0  0  0  0  0  0  0
   -1.1990   -0.7043    0.0000 C   0  0  0  0  0  0  0  0  0  0  0  0
   -2.0774   -1.1933    0.0014 H   0  0  0  0  0  0  0  0  0  0  0  0
   -0.0000   -1.3982    0.0010 C   0  0  0  0  0  0  0  0  0  0  0  0
   -0.0005   -2.3963    0.0019 H   0  0  0  0  0  0  0  0  0  0  0  0
    1.1990   -0.6979   -0.0000 C   0  0  0  0  0  0  0  0  0  0  0  0
    2.0825   -1.1903    0.0014 H   0  0  0  0  0  0  0  0  0  0  0  0
    1.1937    0.7009   -0.0014 C   0  0  0  0  0  0  0  0  0  0  0  0
    2.0635    1.1933   -0.0049 H   0  0  0  0  0  0  0  0  0  0  0  0
  1  5  1  0
  5  8  1  0
  1  2  1  0
  1  3  1  0
  1  4  1  0
  5  6  1  0
  5  7  1  0
  8  9  1  0
  8 10  1  0
  8 11  1  0
 12 16  1  0
 16 17  2  0
 17 19  1  0
 19 21  2  0
 21 23  1  0
 23 25  2  0
 25 16  1  0
 12 13  1  0
 12 14  1  0
 12 15  1  0
 17 18  1  0
 19 20  1  0
 21 22  1  0
 23 24  1  0
 25 26  1  0
M  CHG  1   8   1
M  END
>  <PDB_ID>  (948) 
pdb1o17

>  <RESIDUE_NAME>  (948) 
LYS   PHE

>  <FRAG_NAME>  (948) 
ETAM   MBZ

>  <FRAG_ATOM_NUM>  (948) 
fragi: 11  fragj: 15

>  <atom.prop.CHAIN_ID>  (948) 
A A A A A A A A A A A Z Z Z Z Z Z Z Z Z Z Z Z Z Z Z

>  <atom.prop.IS_HEAVY_ATOM>  (948) 
1 0 0 0 1 0 0 1 0 0 0 1 0 0 0 1 1 0 1 0 1 0 1 0 1 0

>  <DIFUSE_FUNC_ATOM>  (948) 
n/a

>  <FINAL_SINGLE_POINT_ENERGY>  (948) 
0

>  <NONCOV_INTER_ENERGY_QM>  (948) 
0

>  <FF_Energy>  (948) 
-5.76

>  <QM_Energy>  (948) 
-13.37

>  <source>  (948) 
ETAM_MBZ

>  <Index>  (948) 
9332

$$$$
ETAM-pdb1o17-D-LYS-245:MBZ-pdb1o17-D-PHE-232
     RDKit          3D

 26 25  0  0  0  0  0  0  0  0999 V2000
    3.1908   -1.3823    3.5473 C   0  0  0  0  0  0  0  0  0  0  0  0
    3.8249   -0.9659    2.9088 H   0  0  0  0  0  0  0  0  0  0  0  0
    3.6730   -1.9142    4.2298 H   0  0  0  0  0  0  0  0  0  0  0  0
    2.6211   -0.5972    4.0444 H   0  0  0  0  0  0  0  0  0  0  0  0
    2.2635   -2.3076    2.7769 C   0  0  0  0  0  0  0  0  0  0  0  0
    1.6743   -2.7975    3.4299 H   0  0  0  0  0  0  0  0  0  0  0  0
    1.6765   -1.7544    2.1745 H   0  0  0  0  0  0  0  0  0  0  0  0
    3.0043   -3.3056    1.9487 N   0  0  0  0  0  4  0  0  0  0  0  0
    3.6311   -3.8177    2.5338 H   0  0  0  0  0  0  0  0  0  0  0  0
    2.3510   -3.9313    1.5247 H   0  0  0  0  0  0  0  0  0  0  0  0
    3.5206   -2.8271    1.2398 H   0  0  0  0  0  0  0  0  0  0  0  0
   -0.0037    2.9111    0.0779 C   0  0  0  0  0  0  0  0  0  0  0  0
   -0.7064    3.2455   -0.5257 H   0  0  0  0  0  0  0  0  0  0  0  0
    0.8903    3.2311   -0.1836 H   0  0  0  0  0  0  0  0  0  0  0  0
   -0.2153    3.2835    1.0802 H   0  0  0  0  0  0  0  0  0  0  0  0
   -0.0004    1.4069    0.0008 C   0  0  0  0  0  0  0  0  0  0  0  0
   -1.1933    0.6928   -0.0005 C   0  0  0  0  0  0  0  0  0  0  0  0
   -2.0637    1.1794   -0.0032 H   0  0  0  0  0  0  0  0  0  0  0  0
   -1.1990   -0.7043    0.0000 C   0  0  0  0  0  0  0  0  0  0  0  0
   -2.0774   -1.1933    0.0014 H   0  0  0  0  0  0  0  0  0  0  0  0
   -0.0000   -1.3982    0.0010 C   0  0  0  0  0  0  0  0  0  0  0  0
   -0.0005   -2.3963    0.0019 H   0  0  0  0  0  0  0  0  0  0  0  0
    1.1990   -0.6979   -0.0000 C   0  0  0  0  0  0  0  0  0  0  0  0
    2.0825   -1.1903    0.0014 H   0  0  0  0  0  0  0  0  0  0  0  0
    1.1937    0.7009   -0.0014 C   0  0  0  0  0  0  0  0  0  0  0  0
    2.0635    1.1933   -0.0049 H   0  0  0  0  0  0  0  0  0  0  0  0
  1  5  1  0
  5  8  1  0
  1  2  1  0
  1  3  1  0
  1  4  1  0
  5  6  1  0
  5  7  1  0
  8  9  1  0
  8 10  1  0
  8 11  1  0
 12 16  1  0
 16 17  2  0
 17 19  1  0
 19 21  2  0
 21 23  1  0
 23 25  2  0
 25 16  1  0
 12 13  1  0
 12 14  1  0
 12 15  1  0
 17 18  1  0
 19 20  1  0
 21 22  1  0
 23 24  1  0
 25 26  1  0
M  CHG  1   8   1
M  END
>  <PDB_ID>  (949) 
pdb1o17

>  <RESIDUE_NAME>  (949) 
LYS   PHE

>  <FRAG_NAME>  (949) 
ETAM   MBZ

>  <FRAG_ATOM_NUM>  (949) 
fragi: 11  fragj: 15

>  <atom.prop.CHAIN_ID>  (949) 
A A A A A A A A A A A Z Z Z Z Z Z Z Z Z Z Z Z Z Z Z

>  <atom.prop.IS_HEAVY_ATOM>  (949) 
1 0 0 0 1 0 0 1 0 0 0 1 0 0 0 1 1 0 1 0 1 0 1 0 1 0

>  <DIFUSE_FUNC_ATOM>  (949) 
n/a

>  <FINAL_SINGLE_POINT_ENERGY>  (949) 
0

>  <NONCOV_INTER_ENERGY_QM>  (949) 
0

>  <FF_Energy>  (949) 
0.63

>  <QM_Energy>  (949) 
-5.0

>  <source>  (949) 
ETAM_MBZ

>  <Index>  (949) 
9333

$$$$
ETAM-pdb2rfg-C-LYS-252:MBZ-pdb2rfg-C-PHE-13
     RDKit          3D

 26 25  0  0  0  0  0  0  0  0999 V2000
   -4.6679    1.2859    4.5293 C   0  0  0  0  0  0  0  0  0  0  0  0
   -3.8715    1.8870    4.5280 H   0  0  0  0  0  0  0  0  0  0  0  0
   -4.9197    1.0576    5.4672 H   0  0  0  0  0  0  0  0  0  0  0  0
   -5.5006    1.8162    4.0672 H   0  0  0  0  0  0  0  0  0  0  0  0
   -4.3128    0.0035    3.7926 C   0  0  0  0  0  0  0  0  0  0  0  0
   -3.7126   -0.5532    4.3744 H   0  0  0  0  0  0  0  0  0  0  0  0
   -5.1540   -0.5138    3.6092 H   0  0  0  0  0  0  0  0  0  0  0  0
   -3.6145    0.2684    2.4897 N   0  0  0  0  0  4  0  0  0  0  0  0
   -2.7424    0.7154    2.6740 H   0  0  0  0  0  0  0  0  0  0  0  0
   -3.4594   -0.5988    2.0218 H   0  0  0  0  0  0  0  0  0  0  0  0
   -4.1885    0.8597    1.9280 H   0  0  0  0  0  0  0  0  0  0  0  0
   -0.0123    2.9056   -0.0213 C   0  0  0  0  0  0  0  0  0  0  0  0
   -0.9546    3.2073   -0.0086 H   0  0  0  0  0  0  0  0  0  0  0  0
    0.4510    3.2121   -0.8400 H   0  0  0  0  0  0  0  0  0  0  0  0
    0.4907    3.3617    0.8314 H   0  0  0  0  0  0  0  0  0  0  0  0
    0.0003    1.4071   -0.0094 C   0  0  0  0  0  0  0  0  0  0  0  0
   -1.2007    0.6960    0.0007 C   0  0  0  0  0  0  0  0  0  0  0  0
   -2.0661    1.1878    0.0072 H   0  0  0  0  0  0  0  0  0  0  0  0
   -1.2071   -0.6962   -0.0000 C   0  0  0  0  0  0  0  0  0  0  0  0
   -2.0834   -1.1898   -0.0099 H   0  0  0  0  0  0  0  0  0  0  0  0
   -0.0023   -1.4016    0.0149 C   0  0  0  0  0  0  0  0  0  0  0  0
   -0.0096   -2.3965    0.0353 H   0  0  0  0  0  0  0  0  0  0  0  0
    1.2071   -0.7047   -0.0000 C   0  0  0  0  0  0  0  0  0  0  0  0
    2.0851   -1.1989   -0.0051 H   0  0  0  0  0  0  0  0  0  0  0  0
    1.2027    0.6996   -0.0063 C   0  0  0  0  0  0  0  0  0  0  0  0
    2.0684    1.1911   -0.0096 H   0  0  0  0  0  0  0  0  0  0  0  0
  1  5  1  0
  5  8  1  0
  1  2  1  0
  1  3  1  0
  1  4  1  0
  5  6  1  0
  5  7  1  0
  8  9  1  0
  8 10  1  0
  8 11  1  0
 12 16  1  0
 16 17  2  0
 17 19  1  0
 19 21  2  0
 21 23  1  0
 23 25  2  0
 25 16  1  0
 12 13  1  0
 12 14  1  0
 12 15  1  0
 17 18  1  0
 19 20  1  0
 21 22  1  0
 23 24  1  0
 25 26  1  0
M  CHG  1   8   1
M  END
>  <PDB_ID>  (950) 
pdb2rfg

>  <RESIDUE_NAME>  (950) 
LYS   PHE

>  <FRAG_NAME>  (950) 
ETAM   MBZ

>  <FRAG_ATOM_NUM>  (950) 
fragi: 11  fragj: 15

>  <atom.prop.CHAIN_ID>  (950) 
A A A A A A A A A A A Z Z Z Z Z Z Z Z Z Z Z Z Z Z Z

>  <atom.prop.IS_HEAVY_ATOM>  (950) 
1 0 0 0 1 0 0 1 0 0 0 1 0 0 0 1 1 0 1 0 1 0 1 0 1 0

>  <DIFUSE_FUNC_ATOM>  (950) 
n/a

>  <FINAL_SINGLE_POINT_ENERGY>  (950) 
0

>  <NONCOV_INTER_ENERGY_QM>  (950) 
0

>  <FF_Energy>  (950) 
-1.55

>  <QM_Energy>  (950) 
-6.66

>  <source>  (950) 
ETAM_MBZ

>  <Index>  (950) 
9349

$$$$
ETAM-pdb2rdy-B-LYS-35:MBZ-pdb2rdy-B-PHE-101
     RDKit          3D

 26 25  0  0  0  0  0  0  0  0999 V2000
   -3.5116   -1.7483   -2.5859 C   0  0  0  0  0  0  0  0  0  0  0  0
   -3.4372   -1.4726   -1.6333 H   0  0  0  0  0  0  0  0  0  0  0  0
   -4.4652   -1.7766   -2.8663 H   0  0  0  0  0  0  0  0  0  0  0  0
   -2.9810   -1.0251   -3.2053 H   0  0  0  0  0  0  0  0  0  0  0  0
   -2.9215   -3.1424   -2.7342 C   0  0  0  0  0  0  0  0  0  0  0  0
   -3.3374   -3.7472   -2.0456 H   0  0  0  0  0  0  0  0  0  0  0  0
   -3.1521   -3.4982   -3.6482 H   0  0  0  0  0  0  0  0  0  0  0  0
   -1.4388   -3.1618   -2.5658 N   0  0  0  0  0  4  0  0  0  0  0  0
   -1.1998   -2.7194   -1.7024 H   0  0  0  0  0  0  0  0  0  0  0  0
   -1.1204   -4.1090   -2.5584 H   0  0  0  0  0  0  0  0  0  0  0  0
   -1.0139   -2.6703   -3.3248 H   0  0  0  0  0  0  0  0  0  0  0  0
    0.0048    2.9043   -0.0208 C   0  0  0  0  0  0  0  0  0  0  0  0
    0.7712    3.2180    0.5209 H   0  0  0  0  0  0  0  0  0  0  0  0
   -0.8533    3.2203    0.3588 H   0  0  0  0  0  0  0  0  0  0  0  0
    0.1048    3.3358   -1.0167 H   0  0  0  0  0  0  0  0  0  0  0  0
    0.0009    1.4052   -0.0004 C   0  0  0  0  0  0  0  0  0  0  0  0
   -1.1972    0.6979    0.0001 C   0  0  0  0  0  0  0  0  0  0  0  0
   -2.0638    1.1850   -0.0006 H   0  0  0  0  0  0  0  0  0  0  0  0
   -1.2028   -0.7000    0.0000 C   0  0  0  0  0  0  0  0  0  0  0  0
   -2.0806   -1.1889    0.0017 H   0  0  0  0  0  0  0  0  0  0  0  0
   -0.0023   -1.3977   -0.0006 C   0  0  0  0  0  0  0  0  0  0  0  0
   -0.0058   -2.3961   -0.0024 H   0  0  0  0  0  0  0  0  0  0  0  0
    1.2028   -0.7013    0.0000 C   0  0  0  0  0  0  0  0  0  0  0  0
    2.0825   -1.1977    0.0015 H   0  0  0  0  0  0  0  0  0  0  0  0
    1.1987    0.6959    0.0010 C   0  0  0  0  0  0  0  0  0  0  0  0
    2.0671    1.1890    0.0023 H   0  0  0  0  0  0  0  0  0  0  0  0
  1  5  1  0
  5  8  1  0
  1  2  1  0
  1  3  1  0
  1  4  1  0
  5  6  1  0
  5  7  1  0
  8  9  1  0
  8 10  1  0
  8 11  1  0
 12 16  1  0
 16 17  2  0
 17 19  1  0
 19 21  2  0
 21 23  1  0
 23 25  2  0
 25 16  1  0
 12 13  1  0
 12 14  1  0
 12 15  1  0
 17 18  1  0
 19 20  1  0
 21 22  1  0
 23 24  1  0
 25 26  1  0
M  CHG  1   8   1
M  END
>  <PDB_ID>  (951) 
pdb2rdy

>  <RESIDUE_NAME>  (951) 
LYS   PHE

>  <FRAG_NAME>  (951) 
ETAM   MBZ

>  <FRAG_ATOM_NUM>  (951) 
fragi: 11  fragj: 15

>  <atom.prop.CHAIN_ID>  (951) 
A A A A A A A A A A A Z Z Z Z Z Z Z Z Z Z Z Z Z Z Z

>  <atom.prop.IS_HEAVY_ATOM>  (951) 
1 0 0 0 1 0 0 1 0 0 0 1 0 0 0 1 1 0 1 0 1 0 1 0 1 0

>  <DIFUSE_FUNC_ATOM>  (951) 
n/a

>  <FINAL_SINGLE_POINT_ENERGY>  (951) 
0

>  <NONCOV_INTER_ENERGY_QM>  (951) 
0

>  <FF_Energy>  (951) 
-1.78

>  <QM_Energy>  (951) 
-8.31

>  <source>  (951) 
ETAM_MBZ

>  <Index>  (951) 
9350

$$$$
ETAM-pdb2rio-B-LYS-377:MBZ-pdb2rio-B-PHE-352
     RDKit          3D

 26 25  0  0  0  0  0  0  0  0999 V2000
   -0.1588   -2.3688    4.0429 C   0  0  0  0  0  0  0  0  0  0  0  0
   -0.3967   -2.7309    4.9577 H   0  0  0  0  0  0  0  0  0  0  0  0
    0.8266   -2.1395    4.0513 H   0  0  0  0  0  0  0  0  0  0  0  0
   -0.3038   -3.1736    3.3222 H   0  0  0  0  0  0  0  0  0  0  0  0
   -0.9432   -1.1945    3.7513 C   0  0  0  0  0  0  0  0  0  0  0  0
   -1.3005   -1.2196    2.8520 H   0  0  0  0  0  0  0  0  0  0  0  0
   -1.5966   -1.0208    4.4447 H   0  0  0  0  0  0  0  0  0  0  0  0
    0.1098   -0.1525    3.8177 N   0  0  0  0  0  4  0  0  0  0  0  0
    0.8544   -0.3889    3.1923 H   0  0  0  0  0  0  0  0  0  0  0  0
   -0.2771    0.7309    3.5539 H   0  0  0  0  0  0  0  0  0  0  0  0
    0.4651   -0.0950    4.7515 H   0  0  0  0  0  0  0  0  0  0  0  0
   -0.0115    2.9191   -0.0130 C   0  0  0  0  0  0  0  0  0  0  0  0
   -0.7498    3.2116   -0.6004 H   0  0  0  0  0  0  0  0  0  0  0  0
    0.8641    3.2292   -0.3490 H   0  0  0  0  0  0  0  0  0  0  0  0
   -0.1689    3.3646    0.9693 H   0  0  0  0  0  0  0  0  0  0  0  0
    0.0027    1.4123   -0.0009 C   0  0  0  0  0  0  0  0  0  0  0  0
   -1.2054    0.6873    0.0065 C   0  0  0  0  0  0  0  0  0  0  0  0
   -2.0690    1.1879    0.0153 H   0  0  0  0  0  0  0  0  0  0  0  0
   -1.2211   -0.7009    0.0000 C   0  0  0  0  0  0  0  0  0  0  0  0
   -2.0921   -1.1955   -0.0053 H   0  0  0  0  0  0  0  0  0  0  0  0
   -0.0069   -1.4131    0.0030 C   0  0  0  0  0  0  0  0  0  0  0  0
   -0.0043   -2.3995    0.0066 H   0  0  0  0  0  0  0  0  0  0  0  0
    1.2211   -0.6957   -0.0000 C   0  0  0  0  0  0  0  0  0  0  0  0
    2.0922   -1.1933    0.0057 H   0  0  0  0  0  0  0  0  0  0  0  0
    1.2095    0.7101   -0.0086 C   0  0  0  0  0  0  0  0  0  0  0  0
    2.0724    1.2058   -0.0207 H   0  0  0  0  0  0  0  0  0  0  0  0
  1  5  1  0
  5  8  1  0
  1  2  1  0
  1  3  1  0
  1  4  1  0
  5  6  1  0
  5  7  1  0
  8  9  1  0
  8 10  1  0
  8 11  1  0
 12 16  1  0
 16 17  2  0
 17 19  1  0
 19 21  2  0
 21 23  1  0
 23 25  2  0
 25 16  1  0
 12 13  1  0
 12 14  1  0
 12 15  1  0
 17 18  1  0
 19 20  1  0
 21 22  1  0
 23 24  1  0
 25 26  1  0
M  CHG  1   8   1
M  END
>  <PDB_ID>  (952) 
pdb2rio

>  <RESIDUE_NAME>  (952) 
LYS   PHE

>  <FRAG_NAME>  (952) 
ETAM   MBZ

>  <FRAG_ATOM_NUM>  (952) 
fragi: 11  fragj: 15

>  <atom.prop.CHAIN_ID>  (952) 
A A A A A A A A A A A Z Z Z Z Z Z Z Z Z Z Z Z Z Z Z

>  <atom.prop.IS_HEAVY_ATOM>  (952) 
1 0 0 0 1 0 0 1 0 0 0 1 0 0 0 1 1 0 1 0 1 0 1 0 1 0

>  <DIFUSE_FUNC_ATOM>  (952) 
n/a

>  <FINAL_SINGLE_POINT_ENERGY>  (952) 
0

>  <NONCOV_INTER_ENERGY_QM>  (952) 
0

>  <FF_Energy>  (952) 
-6.94

>  <QM_Energy>  (952) 
-12.35

>  <source>  (952) 
ETAM_MBZ

>  <Index>  (952) 
9362

$$$$
ETAM-pdb2rjg-A-LYS-73:MBZ-pdb2rjg-A-PHE-55
     RDKit          3D

 26 25  0  0  0  0  0  0  0  0999 V2000
   -4.7622   -1.8765    2.6361 C   0  0  0  0  0  0  0  0  0  0  0  0
   -5.5019   -1.9097    3.3073 H   0  0  0  0  0  0  0  0  0  0  0  0
   -5.0996   -2.1922    1.7500 H   0  0  0  0  0  0  0  0  0  0  0  0
   -4.3962   -0.8538    2.5457 H   0  0  0  0  0  0  0  0  0  0  0  0
   -3.6736   -2.7514    3.0759 C   0  0  0  0  0  0  0  0  0  0  0  0
   -3.2815   -2.4142    3.9245 H   0  0  0  0  0  0  0  0  0  0  0  0
   -4.0042   -3.6816    3.1920 H   0  0  0  0  0  0  0  0  0  0  0  0
   -2.6527   -2.7291    2.0299 N   0  0  0  0  0  4  0  0  0  0  0  0
   -2.8021   -1.9455    1.4189 H   0  0  0  0  0  0  0  0  0  0  0  0
   -1.7400   -2.6499    2.4402 H   0  0  0  0  0  0  0  0  0  0  0  0
   -2.6935   -3.5741    1.4891 H   0  0  0  0  0  0  0  0  0  0  0  0
    0.0056    2.8952    0.0462 C   0  0  0  0  0  0  0  0  0  0  0  0
   -0.9120    3.2145   -0.1445 H   0  0  0  0  0  0  0  0  0  0  0  0
    0.6463    3.2259   -0.6317 H   0  0  0  0  0  0  0  0  0  0  0  0
    0.3042    3.3093    1.0092 H   0  0  0  0  0  0  0  0  0  0  0  0
    0.0025    1.4019    0.0003 C   0  0  0  0  0  0  0  0  0  0  0  0
   -1.1948    0.6993   -0.0006 C   0  0  0  0  0  0  0  0  0  0  0  0
   -2.0614    1.1926   -0.0025 H   0  0  0  0  0  0  0  0  0  0  0  0
   -1.2112   -0.6968    0.0000 C   0  0  0  0  0  0  0  0  0  0  0  0
   -2.0891   -1.1818    0.0001 H   0  0  0  0  0  0  0  0  0  0  0  0
   -0.0101   -1.4027    0.0029 C   0  0  0  0  0  0  0  0  0  0  0  0
   -0.0089   -2.3944    0.0061 H   0  0  0  0  0  0  0  0  0  0  0  0
    1.2112   -0.6954   -0.0000 C   0  0  0  0  0  0  0  0  0  0  0  0
    2.0829   -1.1995    0.0012 H   0  0  0  0  0  0  0  0  0  0  0  0
    1.2024    0.6936   -0.0026 C   0  0  0  0  0  0  0  0  0  0  0  0
    2.0683    1.1942   -0.0076 H   0  0  0  0  0  0  0  0  0  0  0  0
  1  5  1  0
  5  8  1  0
  1  2  1  0
  1  3  1  0
  1  4  1  0
  5  6  1  0
  5  7  1  0
  8  9  1  0
  8 10  1  0
  8 11  1  0
 12 16  1  0
 16 17  2  0
 17 19  1  0
 19 21  2  0
 21 23  1  0
 23 25  2  0
 25 16  1  0
 12 13  1  0
 12 14  1  0
 12 15  1  0
 17 18  1  0
 19 20  1  0
 21 22  1  0
 23 24  1  0
 25 26  1  0
M  CHG  1   8   1
M  END
>  <PDB_ID>  (953) 
pdb2rjg

>  <RESIDUE_NAME>  (953) 
LYS   PHE

>  <FRAG_NAME>  (953) 
ETAM   MBZ

>  <FRAG_ATOM_NUM>  (953) 
fragi: 11  fragj: 15

>  <atom.prop.CHAIN_ID>  (953) 
A A A A A A A A A A A Z Z Z Z Z Z Z Z Z Z Z Z Z Z Z

>  <atom.prop.IS_HEAVY_ATOM>  (953) 
1 0 0 0 1 0 0 1 0 0 0 1 0 0 0 1 1 0 1 0 1 0 1 0 1 0

>  <DIFUSE_FUNC_ATOM>  (953) 
n/a

>  <FINAL_SINGLE_POINT_ENERGY>  (953) 
0

>  <NONCOV_INTER_ENERGY_QM>  (953) 
0

>  <FF_Energy>  (953) 
0.35

>  <QM_Energy>  (953) 
-5.93

>  <source>  (953) 
ETAM_MBZ

>  <Index>  (953) 
9375

$$$$
ETAM-pdb1o57-D-LYS-190:MBZ-pdb1o57-D-PHE-222
     RDKit          3D

 26 25  0  0  0  0  0  0  0  0999 V2000
    0.1841   -4.1517    3.9379 C   0  0  0  0  0  0  0  0  0  0  0  0
    0.3894   -5.1103    3.7571 H   0  0  0  0  0  0  0  0  0  0  0  0
   -0.6339   -4.0789    4.5030 H   0  0  0  0  0  0  0  0  0  0  0  0
    1.0222   -3.7122    4.4790 H   0  0  0  0  0  0  0  0  0  0  0  0
   -0.0933   -3.4546    2.5944 C   0  0  0  0  0  0  0  0  0  0  0  0
    0.3459   -3.9705    1.8707 H   0  0  0  0  0  0  0  0  0  0  0  0
   -1.0746   -3.4135    2.4519 H   0  0  0  0  0  0  0  0  0  0  0  0
    0.4635   -2.0627    2.6213 N   0  0  0  0  0  4  0  0  0  0  0  0
    0.2926   -1.6609    3.5184 H   0  0  0  0  0  0  0  0  0  0  0  0
    1.4455   -2.1009    2.4476 H   0  0  0  0  0  0  0  0  0  0  0  0
    0.0152   -1.5181    1.9157 H   0  0  0  0  0  0  0  0  0  0  0  0
    0.0121    2.9147   -0.0671 C   0  0  0  0  0  0  0  0  0  0  0  0
   -0.6823    3.1973   -0.7165 H   0  0  0  0  0  0  0  0  0  0  0  0
    0.9126    3.2015   -0.3687 H   0  0  0  0  0  0  0  0  0  0  0  0
   -0.1943    3.4221    0.8753 H   0  0  0  0  0  0  0  0  0  0  0  0
    0.0009    1.4068    0.0004 C   0  0  0  0  0  0  0  0  0  0  0  0
   -1.1969    0.6973    0.0032 C   0  0  0  0  0  0  0  0  0  0  0  0
   -2.0639    1.1908    0.0065 H   0  0  0  0  0  0  0  0  0  0  0  0
   -1.2067   -0.6916    0.0000 C   0  0  0  0  0  0  0  0  0  0  0  0
   -2.0859   -1.1831    0.0028 H   0  0  0  0  0  0  0  0  0  0  0  0
   -0.0074   -1.4007   -0.0046 C   0  0  0  0  0  0  0  0  0  0  0  0
   -0.0150   -2.3952   -0.0112 H   0  0  0  0  0  0  0  0  0  0  0  0
    1.2067   -0.7054   -0.0000 C   0  0  0  0  0  0  0  0  0  0  0  0
    2.0813   -1.2049    0.0044 H   0  0  0  0  0  0  0  0  0  0  0  0
    1.2034    0.6937    0.0010 C   0  0  0  0  0  0  0  0  0  0  0  0
    2.0701    1.1871    0.0015 H   0  0  0  0  0  0  0  0  0  0  0  0
  1  5  1  0
  5  8  1  0
  1  2  1  0
  1  3  1  0
  1  4  1  0
  5  6  1  0
  5  7  1  0
  8  9  1  0
  8 10  1  0
  8 11  1  0
 12 16  1  0
 16 17  2  0
 17 19  1  0
 19 21  2  0
 21 23  1  0
 23 25  2  0
 25 16  1  0
 12 13  1  0
 12 14  1  0
 12 15  1  0
 17 18  1  0
 19 20  1  0
 21 22  1  0
 23 24  1  0
 25 26  1  0
M  CHG  1   8   1
M  END
>  <PDB_ID>  (954) 
pdb1o57

>  <RESIDUE_NAME>  (954) 
LYS   PHE

>  <FRAG_NAME>  (954) 
ETAM   MBZ

>  <FRAG_ATOM_NUM>  (954) 
fragi: 11  fragj: 15

>  <atom.prop.CHAIN_ID>  (954) 
A A A A A A A A A A A Z Z Z Z Z Z Z Z Z Z Z Z Z Z Z

>  <atom.prop.IS_HEAVY_ATOM>  (954) 
1 0 0 0 1 0 0 1 0 0 0 1 0 0 0 1 1 0 1 0 1 0 1 0 1 0

>  <DIFUSE_FUNC_ATOM>  (954) 
n/a

>  <FINAL_SINGLE_POINT_ENERGY>  (954) 
0

>  <NONCOV_INTER_ENERGY_QM>  (954) 
0

>  <FF_Energy>  (954) 
-0.45

>  <QM_Energy>  (954) 
-10.62

>  <source>  (954) 
ETAM_MBZ

>  <Index>  (954) 
9380

$$$$
ETAM-pdb1o5k-A-LYS-256:MBZ-pdb1o5k-A-PHE-13
     RDKit          3D

 26 25  0  0  0  0  0  0  0  0999 V2000
   -5.3922    0.5187    3.6663 C   0  0  0  0  0  0  0  0  0  0  0  0
   -5.7251   -0.3048    3.2135 H   0  0  0  0  0  0  0  0  0  0  0  0
   -5.5951    1.3198    3.1077 H   0  0  0  0  0  0  0  0  0  0  0  0
   -5.8977    0.6213    4.6266 H   0  0  0  0  0  0  0  0  0  0  0  0
   -3.9115    0.4117    3.8469 C   0  0  0  0  0  0  0  0  0  0  0  0
   -3.5824    1.2332    4.3592 H   0  0  0  0  0  0  0  0  0  0  0  0
   -3.7099   -0.3927    4.4454 H   0  0  0  0  0  0  0  0  0  0  0  0
   -3.1465    0.2860    2.6061 N   0  0  0  0  0  4  0  0  0  0  0  0
   -2.5699   -0.5354    2.6391 H   0  0  0  0  0  0  0  0  0  0  0  0
   -3.7704    0.2145    1.8230 H   0  0  0  0  0  0  0  0  0  0  0  0
   -2.5592    1.0900    2.4807 H   0  0  0  0  0  0  0  0  0  0  0  0
   -0.0375    2.9346    0.0145 C   0  0  0  0  0  0  0  0  0  0  0  0
   -0.9828    3.2183    0.0217 H   0  0  0  0  0  0  0  0  0  0  0  0
    0.4291    3.2410   -0.7984 H   0  0  0  0  0  0  0  0  0  0  0  0
    0.4556    3.3855    0.8757 H   0  0  0  0  0  0  0  0  0  0  0  0
   -0.0173    1.4028    0.0064 C   0  0  0  0  0  0  0  0  0  0  0  0
   -1.2070    0.6642    0.0143 C   0  0  0  0  0  0  0  0  0  0  0  0
   -2.0801    1.1473    0.0297 H   0  0  0  0  0  0  0  0  0  0  0  0
   -1.1904   -0.7165   -0.0000 C   0  0  0  0  0  0  0  0  0  0  0  0
   -2.0464   -1.2352   -0.0037 H   0  0  0  0  0  0  0  0  0  0  0  0
    0.0401   -1.3874   -0.0081 C   0  0  0  0  0  0  0  0  0  0  0  0
    0.0442   -2.3869   -0.0202 H   0  0  0  0  0  0  0  0  0  0  0  0
    1.1904   -0.6695   -0.0000 C   0  0  0  0  0  0  0  0  0  0  0  0
    2.1013   -1.1547    0.0175 H   0  0  0  0  0  0  0  0  0  0  0  0
    1.1842    0.7063   -0.0125 C   0  0  0  0  0  0  0  0  0  0  0  0
    2.0455    1.2120   -0.0363 H   0  0  0  0  0  0  0  0  0  0  0  0
  1  5  1  0
  5  8  1  0
  1  2  1  0
  1  3  1  0
  1  4  1  0
  5  6  1  0
  5  7  1  0
  8  9  1  0
  8 10  1  0
  8 11  1  0
 12 16  1  0
 16 17  2  0
 17 19  1  0
 19 21  2  0
 21 23  1  0
 23 25  2  0
 25 16  1  0
 12 13  1  0
 12 14  1  0
 12 15  1  0
 17 18  1  0
 19 20  1  0
 21 22  1  0
 23 24  1  0
 25 26  1  0
M  CHG  1   8   1
M  END
>  <PDB_ID>  (955) 
pdb1o5k

>  <RESIDUE_NAME>  (955) 
LYS   PHE

>  <FRAG_NAME>  (955) 
ETAM   MBZ

>  <FRAG_ATOM_NUM>  (955) 
fragi: 11  fragj: 15

>  <atom.prop.CHAIN_ID>  (955) 
A A A A A A A A A A A Z Z Z Z Z Z Z Z Z Z Z Z Z Z Z

>  <atom.prop.IS_HEAVY_ATOM>  (955) 
1 0 0 0 1 0 0 1 0 0 0 1 0 0 0 1 1 0 1 0 1 0 1 0 1 0

>  <DIFUSE_FUNC_ATOM>  (955) 
n/a

>  <FINAL_SINGLE_POINT_ENERGY>  (955) 
0

>  <NONCOV_INTER_ENERGY_QM>  (955) 
0

>  <FF_Energy>  (955) 
-2.28

>  <QM_Energy>  (955) 
-8.2

>  <source>  (955) 
ETAM_MBZ

>  <Index>  (955) 
9390

$$$$
ETAM-pdb2rfg-D-LYS-252:MBZ-pdb2rfg-D-PHE-13
     RDKit          3D

 26 25  0  0  0  0  0  0  0  0999 V2000
   -4.7626    1.2073    4.4174 C   0  0  0  0  0  0  0  0  0  0  0  0
   -3.9716    1.8117    4.4187 H   0  0  0  0  0  0  0  0  0  0  0  0
   -5.0215    0.9753    5.3499 H   0  0  0  0  0  0  0  0  0  0  0  0
   -5.5961    1.7167    3.9340 H   0  0  0  0  0  0  0  0  0  0  0  0
   -4.3814   -0.0834    3.6889 C   0  0  0  0  0  0  0  0  0  0  0  0
   -3.8263   -0.6487    4.3043 H   0  0  0  0  0  0  0  0  0  0  0  0
   -5.2209   -0.5830    3.4582 H   0  0  0  0  0  0  0  0  0  0  0  0
   -3.6098    0.1827    2.4377 N   0  0  0  0  0  4  0  0  0  0  0  0
   -3.1180    1.0471    2.5326 H   0  0  0  0  0  0  0  0  0  0  0  0
   -2.9597   -0.5606    2.2882 H   0  0  0  0  0  0  0  0  0  0  0  0
   -4.2429    0.2380    1.6670 H   0  0  0  0  0  0  0  0  0  0  0  0
   -0.0152    2.9121   -0.0207 C   0  0  0  0  0  0  0  0  0  0  0  0
   -0.9593    3.2077   -0.0491 H   0  0  0  0  0  0  0  0  0  0  0  0
    0.4756    3.2137   -0.8262 H   0  0  0  0  0  0  0  0  0  0  0  0
    0.4528    3.3774    0.8468 H   0  0  0  0  0  0  0  0  0  0  0  0
   -0.0000    1.4066   -0.0033 C   0  0  0  0  0  0  0  0  0  0  0  0
   -1.1947    0.6971   -0.0030 C   0  0  0  0  0  0  0  0  0  0  0  0
   -2.0633    1.1838   -0.0062 H   0  0  0  0  0  0  0  0  0  0  0  0
   -1.2032   -0.7018   -0.0000 C   0  0  0  0  0  0  0  0  0  0  0  0
   -2.0814   -1.1888   -0.0025 H   0  0  0  0  0  0  0  0  0  0  0  0
   -0.0035   -1.4009    0.0084 C   0  0  0  0  0  0  0  0  0  0  0  0
   -0.0037   -2.3966    0.0201 H   0  0  0  0  0  0  0  0  0  0  0  0
    1.2032   -0.6982   -0.0000 C   0  0  0  0  0  0  0  0  0  0  0  0
    2.0824   -1.1957   -0.0028 H   0  0  0  0  0  0  0  0  0  0  0  0
    1.1982    0.6972   -0.0021 C   0  0  0  0  0  0  0  0  0  0  0  0
    2.0664    1.1925   -0.0036 H   0  0  0  0  0  0  0  0  0  0  0  0
  1  5  1  0
  5  8  1  0
  1  2  1  0
  1  3  1  0
  1  4  1  0
  5  6  1  0
  5  7  1  0
  8  9  1  0
  8 10  1  0
  8 11  1  0
 12 16  1  0
 16 17  2  0
 17 19  1  0
 19 21  2  0
 21 23  1  0
 23 25  2  0
 25 16  1  0
 12 13  1  0
 12 14  1  0
 12 15  1  0
 17 18  1  0
 19 20  1  0
 21 22  1  0
 23 24  1  0
 25 26  1  0
M  CHG  1   8   1
M  END
>  <PDB_ID>  (956) 
pdb2rfg

>  <RESIDUE_NAME>  (956) 
LYS   PHE

>  <FRAG_NAME>  (956) 
ETAM   MBZ

>  <FRAG_ATOM_NUM>  (956) 
fragi: 11  fragj: 15

>  <atom.prop.CHAIN_ID>  (956) 
A A A A A A A A A A A Z Z Z Z Z Z Z Z Z Z Z Z Z Z Z

>  <atom.prop.IS_HEAVY_ATOM>  (956) 
1 0 0 0 1 0 0 1 0 0 0 1 0 0 0 1 1 0 1 0 1 0 1 0 1 0

>  <DIFUSE_FUNC_ATOM>  (956) 
n/a

>  <FINAL_SINGLE_POINT_ENERGY>  (956) 
0

>  <NONCOV_INTER_ENERGY_QM>  (956) 
0

>  <FF_Energy>  (956) 
-1.56

>  <QM_Energy>  (956) 
-6.95

>  <source>  (956) 
ETAM_MBZ

>  <Index>  (956) 
9393

$$$$
ETAM-pdb2sas-A-LYS-9:MBZ-pdb2sas-A-PHE-5
     RDKit          3D

 26 25  0  0  0  0  0  0  0  0999 V2000
    0.4350   -1.7661    3.3091 C   0  0  0  0  0  0  0  0  0  0  0  0
    0.4623   -2.7475    3.4856 H   0  0  0  0  0  0  0  0  0  0  0  0
    0.3049   -1.5999    2.3342 H   0  0  0  0  0  0  0  0  0  0  0  0
   -0.3886   -1.3200    3.8666 H   0  0  0  0  0  0  0  0  0  0  0  0
    1.7930   -1.1751    3.7121 C   0  0  0  0  0  0  0  0  0  0  0  0
    1.7012   -0.1636    3.7254 H   0  0  0  0  0  0  0  0  0  0  0  0
    1.9898   -1.4668    4.6651 H   0  0  0  0  0  0  0  0  0  0  0  0
    2.9018   -1.5593    2.8386 N   0  0  0  0  0  4  0  0  0  0  0  0
    2.9386   -0.9507    2.0408 H   0  0  0  0  0  0  0  0  0  0  0  0
    3.7714   -1.4944    3.3366 H   0  0  0  0  0  0  0  0  0  0  0  0
    2.7794   -2.5033    2.5216 H   0  0  0  0  0  0  0  0  0  0  0  0
    0.0039    2.8900    0.0603 C   0  0  0  0  0  0  0  0  0  0  0  0
   -0.4645    3.2293   -0.7366 H   0  0  0  0  0  0  0  0  0  0  0  0
    0.9405    3.1929    0.0953 H   0  0  0  0  0  0  0  0  0  0  0  0
   -0.5044    3.2918    0.9369 H   0  0  0  0  0  0  0  0  0  0  0  0
   -0.0099    1.3982    0.0189 C   0  0  0  0  0  0  0  0  0  0  0  0
   -1.2218    0.7037   -0.0074 C   0  0  0  0  0  0  0  0  0  0  0  0
   -2.0795    1.1791   -0.0320 H   0  0  0  0  0  0  0  0  0  0  0  0
   -1.2159   -0.7190   -0.0000 C   0  0  0  0  0  0  0  0  0  0  0  0
   -2.0700   -1.2153    0.0469 H   0  0  0  0  0  0  0  0  0  0  0  0
    0.0224   -1.3925   -0.0581 C   0  0  0  0  0  0  0  0  0  0  0  0
    0.0261   -2.3903   -0.1425 H   0  0  0  0  0  0  0  0  0  0  0  0
    1.2159   -0.6851    0.0000 C   0  0  0  0  0  0  0  0  0  0  0  0
    2.1013   -1.1848    0.0099 H   0  0  0  0  0  0  0  0  0  0  0  0
    1.2093    0.6947    0.0467 C   0  0  0  0  0  0  0  0  0  0  0  0
    2.0616    1.2039    0.0986 H   0  0  0  0  0  0  0  0  0  0  0  0
  1  5  1  0
  5  8  1  0
  1  2  1  0
  1  3  1  0
  1  4  1  0
  5  6  1  0
  5  7  1  0
  8  9  1  0
  8 10  1  0
  8 11  1  0
 12 16  1  0
 16 17  2  0
 17 19  1  0
 19 21  2  0
 21 23  1  0
 23 25  2  0
 25 16  1  0
 12 13  1  0
 12 14  1  0
 12 15  1  0
 17 18  1  0
 19 20  1  0
 21 22  1  0
 23 24  1  0
 25 26  1  0
M  CHG  1   8   1
M  END
>  <PDB_ID>  (957) 
pdb2sas

>  <RESIDUE_NAME>  (957) 
LYS   PHE

>  <FRAG_NAME>  (957) 
ETAM   MBZ

>  <FRAG_ATOM_NUM>  (957) 
fragi: 11  fragj: 15

>  <atom.prop.CHAIN_ID>  (957) 
A A A A A A A A A A A Z Z Z Z Z Z Z Z Z Z Z Z Z Z Z

>  <atom.prop.IS_HEAVY_ATOM>  (957) 
1 0 0 0 1 0 0 1 0 0 0 1 0 0 0 1 1 0 1 0 1 0 1 0 1 0

>  <DIFUSE_FUNC_ATOM>  (957) 
n/a

>  <FINAL_SINGLE_POINT_ENERGY>  (957) 
0

>  <NONCOV_INTER_ENERGY_QM>  (957) 
0

>  <FF_Energy>  (957) 
-1.25

>  <QM_Energy>  (957) 
-8.02

>  <source>  (957) 
ETAM_MBZ

>  <Index>  (957) 
9422

$$$$
ETAM-pdb1o5k-B-LYS-256:MBZ-pdb1o5k-B-PHE-13
     RDKit          3D

 26 25  0  0  0  0  0  0  0  0999 V2000
   -5.2568    0.6775    3.9136 C   0  0  0  0  0  0  0  0  0  0  0  0
   -5.7036   -0.0321    3.3871 H   0  0  0  0  0  0  0  0  0  0  0  0
   -5.3461    1.5596    3.4732 H   0  0  0  0  0  0  0  0  0  0  0  0
   -5.7255    0.7292    4.8964 H   0  0  0  0  0  0  0  0  0  0  0  0
   -3.7799    0.3392    4.0412 C   0  0  0  0  0  0  0  0  0  0  0  0
   -3.3388    1.0354    4.6182 H   0  0  0  0  0  0  0  0  0  0  0  0
   -3.6918   -0.5537    4.4977 H   0  0  0  0  0  0  0  0  0  0  0  0
   -3.1022    0.2877    2.7293 N   0  0  0  0  0  4  0  0  0  0  0  0
   -2.3690   -0.3932    2.7554 H   0  0  0  0  0  0  0  0  0  0  0  0
   -3.7614    0.0363    2.0193 H   0  0  0  0  0  0  0  0  0  0  0  0
   -2.7126    1.1853    2.5164 H   0  0  0  0  0  0  0  0  0  0  0  0
   -0.0090    2.9027   -0.0057 C   0  0  0  0  0  0  0  0  0  0  0  0
   -0.9492    3.2224   -0.0015 H   0  0  0  0  0  0  0  0  0  0  0  0
    0.4598    3.2042   -0.8269 H   0  0  0  0  0  0  0  0  0  0  0  0
    0.4922    3.3748    0.8393 H   0  0  0  0  0  0  0  0  0  0  0  0
   -0.0141    1.4114    0.0182 C   0  0  0  0  0  0  0  0  0  0  0  0
   -1.2155    0.7020   -0.0165 C   0  0  0  0  0  0  0  0  0  0  0  0
   -2.0803    1.1675   -0.0533 H   0  0  0  0  0  0  0  0  0  0  0  0
   -1.1981   -0.7229    0.0000 C   0  0  0  0  0  0  0  0  0  0  0  0
   -2.0566   -1.2214    0.0121 H   0  0  0  0  0  0  0  0  0  0  0  0
    0.0360   -1.3931    0.0011 C   0  0  0  0  0  0  0  0  0  0  0  0
    0.0333   -2.3983    0.0022 H   0  0  0  0  0  0  0  0  0  0  0  0
    1.1981   -0.6914    0.0000 C   0  0  0  0  0  0  0  0  0  0  0  0
    2.1013   -1.1770    0.0025 H   0  0  0  0  0  0  0  0  0  0  0  0
    1.1936    0.6940   -0.0027 C   0  0  0  0  0  0  0  0  0  0  0  0
    2.0569    1.1977   -0.0206 H   0  0  0  0  0  0  0  0  0  0  0  0
  1  5  1  0
  5  8  1  0
  1  2  1  0
  1  3  1  0
  1  4  1  0
  5  6  1  0
  5  7  1  0
  8  9  1  0
  8 10  1  0
  8 11  1  0
 12 16  1  0
 16 17  2  0
 17 19  1  0
 19 21  2  0
 21 23  1  0
 23 25  2  0
 25 16  1  0
 12 13  1  0
 12 14  1  0
 12 15  1  0
 17 18  1  0
 19 20  1  0
 21 22  1  0
 23 24  1  0
 25 26  1  0
M  CHG  1   8   1
M  END
>  <PDB_ID>  (958) 
pdb1o5k

>  <RESIDUE_NAME>  (958) 
LYS   PHE

>  <FRAG_NAME>  (958) 
ETAM   MBZ

>  <FRAG_ATOM_NUM>  (958) 
fragi: 11  fragj: 15

>  <atom.prop.CHAIN_ID>  (958) 
A A A A A A A A A A A Z Z Z Z Z Z Z Z Z Z Z Z Z Z Z

>  <atom.prop.IS_HEAVY_ATOM>  (958) 
1 0 0 0 1 0 0 1 0 0 0 1 0 0 0 1 1 0 1 0 1 0 1 0 1 0

>  <DIFUSE_FUNC_ATOM>  (958) 
n/a

>  <FINAL_SINGLE_POINT_ENERGY>  (958) 
0

>  <NONCOV_INTER_ENERGY_QM>  (958) 
0

>  <FF_Energy>  (958) 
-2.8

>  <QM_Energy>  (958) 
-8.42

>  <source>  (958) 
ETAM_MBZ

>  <Index>  (958) 
9423

$$$$
ETAM-pdb1obc-A-LYS-640:MBZ-pdb1obc-A-PHE-93
     RDKit          3D

 26 25  0  0  0  0  0  0  0  0999 V2000
   -2.1001   -6.2450   -1.5830 C   0  0  0  0  0  0  0  0  0  0  0  0
   -2.3513   -6.0691   -2.5290 H   0  0  0  0  0  0  0  0  0  0  0  0
   -2.9076   -6.2443   -1.0031 H   0  0  0  0  0  0  0  0  0  0  0  0
   -1.6217   -7.2226   -1.5221 H   0  0  0  0  0  0  0  0  0  0  0  0
   -1.1660   -5.1401   -1.1147 C   0  0  0  0  0  0  0  0  0  0  0  0
   -0.8738   -5.3346   -0.1789 H   0  0  0  0  0  0  0  0  0  0  0  0
   -0.3672   -5.1111   -1.7143 H   0  0  0  0  0  0  0  0  0  0  0  0
   -1.8491   -3.8109   -1.1479 N   0  0  0  0  0  4  0  0  0  0  0  0
   -2.7881   -3.9320   -1.4657 H   0  0  0  0  0  0  0  0  0  0  0  0
   -1.8520   -3.4206   -0.2289 H   0  0  0  0  0  0  0  0  0  0  0  0
   -1.3573   -3.2044   -1.7703 H   0  0  0  0  0  0  0  0  0  0  0  0
   -0.0007    2.9064    0.0304 C   0  0  0  0  0  0  0  0  0  0  0  0
   -0.7147    3.2265   -0.5736 H   0  0  0  0  0  0  0  0  0  0  0  0
    0.8892    3.2198   -0.2655 H   0  0  0  0  0  0  0  0  0  0  0  0
   -0.1888    3.3256    1.0188 H   0  0  0  0  0  0  0  0  0  0  0  0
   -0.0008    1.4056   -0.0002 C   0  0  0  0  0  0  0  0  0  0  0  0
   -1.1979    0.6955    0.0001 C   0  0  0  0  0  0  0  0  0  0  0  0
   -2.0651    1.1844   -0.0013 H   0  0  0  0  0  0  0  0  0  0  0  0
   -1.2046   -0.7007    0.0000 C   0  0  0  0  0  0  0  0  0  0  0  0
   -2.0795   -1.1920    0.0003 H   0  0  0  0  0  0  0  0  0  0  0  0
    0.0002   -1.3986    0.0009 C   0  0  0  0  0  0  0  0  0  0  0  0
   -0.0026   -2.3957    0.0022 H   0  0  0  0  0  0  0  0  0  0  0  0
    1.2046   -0.6993    0.0000 C   0  0  0  0  0  0  0  0  0  0  0  0
    2.0854   -1.1946    0.0010 H   0  0  0  0  0  0  0  0  0  0  0  0
    1.1985    0.6975   -0.0008 C   0  0  0  0  0  0  0  0  0  0  0  0
    2.0656    1.1929   -0.0033 H   0  0  0  0  0  0  0  0  0  0  0  0
  1  5  1  0
  5  8  1  0
  1  2  1  0
  1  3  1  0
  1  4  1  0
  5  6  1  0
  5  7  1  0
  8  9  1  0
  8 10  1  0
  8 11  1  0
 12 16  1  0
 16 17  2  0
 17 19  1  0
 19 21  2  0
 21 23  1  0
 23 25  2  0
 25 16  1  0
 12 13  1  0
 12 14  1  0
 12 15  1  0
 17 18  1  0
 19 20  1  0
 21 22  1  0
 23 24  1  0
 25 26  1  0
M  CHG  1   8   1
M  END
>  <PDB_ID>  (959) 
pdb1obc

>  <RESIDUE_NAME>  (959) 
LYS   PHE

>  <FRAG_NAME>  (959) 
ETAM   MBZ

>  <FRAG_ATOM_NUM>  (959) 
fragi: 11  fragj: 15

>  <atom.prop.CHAIN_ID>  (959) 
A A A A A A A A A A A Z Z Z Z Z Z Z Z Z Z Z Z Z Z Z

>  <atom.prop.IS_HEAVY_ATOM>  (959) 
1 0 0 0 1 0 0 1 0 0 0 1 0 0 0 1 1 0 1 0 1 0 1 0 1 0

>  <DIFUSE_FUNC_ATOM>  (959) 
n/a

>  <FINAL_SINGLE_POINT_ENERGY>  (959) 
0

>  <NONCOV_INTER_ENERGY_QM>  (959) 
0

>  <FF_Energy>  (959) 
1.56

>  <QM_Energy>  (959) 
-5.56

>  <source>  (959) 
ETAM_MBZ

>  <Index>  (959) 
9477

$$$$
ETAM-pdb2rjg-C-LYS-185:MBZ-pdb2rjg-C-PHE-181
     RDKit          3D

 26 25  0  0  0  0  0  0  0  0999 V2000
   -0.5432   -1.2193   -4.2441 C   0  0  0  0  0  0  0  0  0  0  0  0
   -1.0008   -0.4704   -3.7873 H   0  0  0  0  0  0  0  0  0  0  0  0
   -1.0136   -2.0758   -4.0889 H   0  0  0  0  0  0  0  0  0  0  0  0
   -0.5203   -1.0178   -5.3151 H   0  0  0  0  0  0  0  0  0  0  0  0
    0.8768   -1.3350   -3.6854 C   0  0  0  0  0  0  0  0  0  0  0  0
    0.8199   -1.5424   -2.7038 H   0  0  0  0  0  0  0  0  0  0  0  0
    1.3443   -2.0954   -4.1480 H   0  0  0  0  0  0  0  0  0  0  0  0
    1.6703   -0.0850   -3.8764 N   0  0  0  0  0  4  0  0  0  0  0  0
    2.6439   -0.3077   -3.8623 H   0  0  0  0  0  0  0  0  0  0  0  0
    1.4318    0.3252   -4.7551 H   0  0  0  0  0  0  0  0  0  0  0  0
    1.4601    0.5548   -3.1386 H   0  0  0  0  0  0  0  0  0  0  0  0
    0.0064    2.9253    0.0195 C   0  0  0  0  0  0  0  0  0  0  0  0
    0.6577    3.2194    0.7012 H   0  0  0  0  0  0  0  0  0  0  0  0
   -0.9076    3.2301    0.2373 H   0  0  0  0  0  0  0  0  0  0  0  0
    0.2915    3.3743   -0.9320 H   0  0  0  0  0  0  0  0  0  0  0  0
    0.0009    1.4189    0.0008 C   0  0  0  0  0  0  0  0  0  0  0  0
   -1.1977    0.7089   -0.0007 C   0  0  0  0  0  0  0  0  0  0  0  0
   -2.0663    1.1901   -0.0038 H   0  0  0  0  0  0  0  0  0  0  0  0
   -1.2075   -0.7072   -0.0000 C   0  0  0  0  0  0  0  0  0  0  0  0
   -2.0858   -1.1875    0.0006 H   0  0  0  0  0  0  0  0  0  0  0  0
   -0.0025   -1.4144    0.0015 C   0  0  0  0  0  0  0  0  0  0  0  0
   -0.0064   -2.4064    0.0029 H   0  0  0  0  0  0  0  0  0  0  0  0
    1.2075   -0.7100   -0.0000 C   0  0  0  0  0  0  0  0  0  0  0  0
    2.0869   -1.1977    0.0020 H   0  0  0  0  0  0  0  0  0  0  0  0
    1.1992    0.7038   -0.0016 C   0  0  0  0  0  0  0  0  0  0  0  0
    2.0694    1.1912   -0.0053 H   0  0  0  0  0  0  0  0  0  0  0  0
  1  5  1  0
  5  8  1  0
  1  2  1  0
  1  3  1  0
  1  4  1  0
  5  6  1  0
  5  7  1  0
  8  9  1  0
  8 10  1  0
  8 11  1  0
 12 16  1  0
 16 17  2  0
 17 19  1  0
 19 21  2  0
 21 23  1  0
 23 25  2  0
 25 16  1  0
 12 13  1  0
 12 14  1  0
 12 15  1  0
 17 18  1  0
 19 20  1  0
 21 22  1  0
 23 24  1  0
 25 26  1  0
M  CHG  1   8   1
M  END
>  <PDB_ID>  (960) 
pdb2rjg

>  <RESIDUE_NAME>  (960) 
LYS   PHE

>  <FRAG_NAME>  (960) 
ETAM   MBZ

>  <FRAG_ATOM_NUM>  (960) 
fragi: 11  fragj: 15

>  <atom.prop.CHAIN_ID>  (960) 
A A A A A A A A A A A Z Z Z Z Z Z Z Z Z Z Z Z Z Z Z

>  <atom.prop.IS_HEAVY_ATOM>  (960) 
1 0 0 0 1 0 0 1 0 0 0 1 0 0 0 1 1 0 1 0 1 0 1 0 1 0

>  <DIFUSE_FUNC_ATOM>  (960) 
n/a

>  <FINAL_SINGLE_POINT_ENERGY>  (960) 
0

>  <NONCOV_INTER_ENERGY_QM>  (960) 
0

>  <FF_Energy>  (960) 
-5.45

>  <QM_Energy>  (960) 
-10.55

>  <source>  (960) 
ETAM_MBZ

>  <Index>  (960) 
9491

$$$$
ETAM-pdb2uz6-C-LYS-23:MBZ-pdb2uz6-C-PHE-150
     RDKit          3D

 26 25  0  0  0  0  0  0  0  0999 V2000
    3.3919    3.4692    2.4588 C   0  0  0  0  0  0  0  0  0  0  0  0
    3.8545    4.3282    2.4714 H   0  0  0  0  0  0  0  0  0  0  0  0
    3.7586    2.8190    3.0877 H   0  0  0  0  0  0  0  0  0  0  0  0
    2.3393    3.6318    2.6906 H   0  0  0  0  0  0  0  0  0  0  0  0
    3.4721    2.8862    1.0425 C   0  0  0  0  0  0  0  0  0  0  0  0
    3.3557    1.8918    1.0759 H   0  0  0  0  0  0  0  0  0  0  0  0
    2.7519    3.2814    0.4694 H   0  0  0  0  0  0  0  0  0  0  0  0
    4.8435    3.1647    0.3142 N   0  0  0  0  0  4  0  0  0  0  0  0
    5.1186    2.3201   -0.1120 H   0  0  0  0  0  0  0  0  0  0  0  0
    4.6773    3.8739   -0.3498 H   0  0  0  0  0  0  0  0  0  0  0  0
    5.4826    3.4525    1.0067 H   0  0  0  0  0  0  0  0  0  0  0  0
   -0.0047    2.9115    0.0298 C   0  0  0  0  0  0  0  0  0  0  0  0
    0.7690    3.2368   -0.4933 H   0  0  0  0  0  0  0  0  0  0  0  0
    0.0616    3.1878    0.9773 H   0  0  0  0  0  0  0  0  0  0  0  0
   -0.9033    3.3661   -0.3873 H   0  0  0  0  0  0  0  0  0  0  0  0
    0.0011    1.4075   -0.0177 C   0  0  0  0  0  0  0  0  0  0  0  0
   -1.1978    0.6960    0.0190 C   0  0  0  0  0  0  0  0  0  0  0  0
   -2.0640    1.1857    0.0580 H   0  0  0  0  0  0  0  0  0  0  0  0
   -1.2053   -0.7002    0.0000 C   0  0  0  0  0  0  0  0  0  0  0  0
   -2.0816   -1.1903   -0.0081 H   0  0  0  0  0  0  0  0  0  0  0  0
   -0.0027   -1.4002   -0.0059 C   0  0  0  0  0  0  0  0  0  0  0  0
   -0.0064   -2.3965   -0.0147 H   0  0  0  0  0  0  0  0  0  0  0  0
    1.2053   -0.7012    0.0000 C   0  0  0  0  0  0  0  0  0  0  0  0
    2.0838   -1.1968    0.0023 H   0  0  0  0  0  0  0  0  0  0  0  0
    1.1994    0.6981    0.0045 C   0  0  0  0  0  0  0  0  0  0  0  0
    2.0672    1.1920    0.0233 H   0  0  0  0  0  0  0  0  0  0  0  0
  1  5  1  0
  5  8  1  0
  1  2  1  0
  1  3  1  0
  1  4  1  0
  5  6  1  0
  5  7  1  0
  8  9  1  0
  8 10  1  0
  8 11  1  0
 12 16  1  0
 16 17  2  0
 17 19  1  0
 19 21  2  0
 21 23  1  0
 23 25  2  0
 25 16  1  0
 12 13  1  0
 12 14  1  0
 12 15  1  0
 17 18  1  0
 19 20  1  0
 21 22  1  0
 23 24  1  0
 25 26  1  0
M  CHG  1   8   1
M  END
>  <PDB_ID>  (961) 
pdb2uz6

>  <RESIDUE_NAME>  (961) 
LYS   PHE

>  <FRAG_NAME>  (961) 
ETAM   MBZ

>  <FRAG_ATOM_NUM>  (961) 
fragi: 11  fragj: 15

>  <atom.prop.CHAIN_ID>  (961) 
A A A A A A A A A A A Z Z Z Z Z Z Z Z Z Z Z Z Z Z Z

>  <atom.prop.IS_HEAVY_ATOM>  (961) 
1 0 0 0 1 0 0 1 0 0 0 1 0 0 0 1 1 0 1 0 1 0 1 0 1 0

>  <DIFUSE_FUNC_ATOM>  (961) 
n/a

>  <FINAL_SINGLE_POINT_ENERGY>  (961) 
0

>  <NONCOV_INTER_ENERGY_QM>  (961) 
0

>  <FF_Energy>  (961) 
5.2

>  <QM_Energy>  (961) 
-0.0

>  <source>  (961) 
ETAM_MBZ

>  <Index>  (961) 
9509

$$$$
ETAM-pdb2uz6-D-LYS-23:MBZ-pdb2uz6-D-PHE-150
     RDKit          3D

 26 25  0  0  0  0  0  0  0  0999 V2000
    2.1075    1.8709    3.9637 C   0  0  0  0  0  0  0  0  0  0  0  0
    2.4565    1.7590    3.0433 H   0  0  0  0  0  0  0  0  0  0  0  0
    2.8424    2.0446    4.6041 H   0  0  0  0  0  0  0  0  0  0  0  0
    1.4073    2.7061    3.9838 H   0  0  0  0  0  0  0  0  0  0  0  0
    1.4084    0.5728    4.3736 C   0  0  0  0  0  0  0  0  0  0  0  0
    2.0540   -0.1942    4.2674 H   0  0  0  0  0  0  0  0  0  0  0  0
    1.1505    0.6331    5.3462 H   0  0  0  0  0  0  0  0  0  0  0  0
    0.1641    0.2678    3.5652 N   0  0  0  0  0  4  0  0  0  0  0  0
   -0.3213    1.1200    3.3950 H   0  0  0  0  0  0  0  0  0  0  0  0
    0.4378   -0.1510    2.7046 H   0  0  0  0  0  0  0  0  0  0  0  0
   -0.4084   -0.3577    4.0864 H   0  0  0  0  0  0  0  0  0  0  0  0
    0.0228    2.9106    0.0340 C   0  0  0  0  0  0  0  0  0  0  0  0
    0.8148    3.2251   -0.4749 H   0  0  0  0  0  0  0  0  0  0  0  0
    0.0888    3.1811    0.9871 H   0  0  0  0  0  0  0  0  0  0  0  0
   -0.8548    3.4012   -0.3870 H   0  0  0  0  0  0  0  0  0  0  0  0
    0.0002    1.4080   -0.0225 C   0  0  0  0  0  0  0  0  0  0  0  0
   -1.2029    0.6973    0.0180 C   0  0  0  0  0  0  0  0  0  0  0  0
   -2.0659    1.1866    0.0592 H   0  0  0  0  0  0  0  0  0  0  0  0
   -1.2090   -0.7004    0.0000 C   0  0  0  0  0  0  0  0  0  0  0  0
   -2.0813   -1.1939   -0.0091 H   0  0  0  0  0  0  0  0  0  0  0  0
    0.0020   -1.4001   -0.0038 C   0  0  0  0  0  0  0  0  0  0  0  0
   -0.0031   -2.3967   -0.0094 H   0  0  0  0  0  0  0  0  0  0  0  0
    1.2090   -0.7004   -0.0000 C   0  0  0  0  0  0  0  0  0  0  0  0
    2.0873   -1.1956   -0.0015 H   0  0  0  0  0  0  0  0  0  0  0  0
    1.2006    0.6957    0.0083 C   0  0  0  0  0  0  0  0  0  0  0  0
    2.0679    1.1930    0.0356 H   0  0  0  0  0  0  0  0  0  0  0  0
  1  5  1  0
  5  8  1  0
  1  2  1  0
  1  3  1  0
  1  4  1  0
  5  6  1  0
  5  7  1  0
  8  9  1  0
  8 10  1  0
  8 11  1  0
 12 16  1  0
 16 17  2  0
 17 19  1  0
 19 21  2  0
 21 23  1  0
 23 25  2  0
 25 16  1  0
 12 13  1  0
 12 14  1  0
 12 15  1  0
 17 18  1  0
 19 20  1  0
 21 22  1  0
 23 24  1  0
 25 26  1  0
M  CHG  1   8   1
M  END
>  <PDB_ID>  (962) 
pdb2uz6

>  <RESIDUE_NAME>  (962) 
LYS   PHE

>  <FRAG_NAME>  (962) 
ETAM   MBZ

>  <FRAG_ATOM_NUM>  (962) 
fragi: 11  fragj: 15

>  <atom.prop.CHAIN_ID>  (962) 
A A A A A A A A A A A Z Z Z Z Z Z Z Z Z Z Z Z Z Z Z

>  <atom.prop.IS_HEAVY_ATOM>  (962) 
1 0 0 0 1 0 0 1 0 0 0 1 0 0 0 1 1 0 1 0 1 0 1 0 1 0

>  <DIFUSE_FUNC_ATOM>  (962) 
n/a

>  <FINAL_SINGLE_POINT_ENERGY>  (962) 
0

>  <NONCOV_INTER_ENERGY_QM>  (962) 
0

>  <FF_Energy>  (962) 
-8.09

>  <QM_Energy>  (962) 
-13.72

>  <source>  (962) 
ETAM_MBZ

>  <Index>  (962) 
9511

$$$$
ETAM-pdb1odf-A-LYS-63:MBZ-pdb1odf-A-PHE-24
     RDKit          3D

 26 25  0  0  0  0  0  0  0  0999 V2000
    0.6570   -2.1276   -3.6524 C   0  0  0  0  0  0  0  0  0  0  0  0
    1.1449   -2.4572   -2.8556 H   0  0  0  0  0  0  0  0  0  0  0  0
    1.1456   -2.3462   -4.4853 H   0  0  0  0  0  0  0  0  0  0  0  0
   -0.3227   -2.6043   -3.6847 H   0  0  0  0  0  0  0  0  0  0  0  0
    0.5187   -0.6128   -3.5501 C   0  0  0  0  0  0  0  0  0  0  0  0
    0.0138   -0.2803   -4.3512 H   0  0  0  0  0  0  0  0  0  0  0  0
   -0.0057   -0.3906   -2.7230 H   0  0  0  0  0  0  0  0  0  0  0  0
    1.8410    0.0649   -3.4878 N   0  0  0  0  0  4  0  0  0  0  0  0
    2.5620   -0.5945   -3.7001 H   0  0  0  0  0  0  0  0  0  0  0  0
    1.8641    0.8106   -4.1530 H   0  0  0  0  0  0  0  0  0  0  0  0
    1.9833    0.4323   -2.5690 H   0  0  0  0  0  0  0  0  0  0  0  0
    0.0027    2.9209   -0.0069 C   0  0  0  0  0  0  0  0  0  0  0  0
   -0.8377    3.2291    0.4073 H   0  0  0  0  0  0  0  0  0  0  0  0
    0.0783    3.2200   -0.9444 H   0  0  0  0  0  0  0  0  0  0  0  0
    0.8312    3.3565    0.5515 H   0  0  0  0  0  0  0  0  0  0  0  0
   -0.0016    1.4128    0.0003 C   0  0  0  0  0  0  0  0  0  0  0  0
   -1.1981    0.7026   -0.0003 C   0  0  0  0  0  0  0  0  0  0  0  0
   -2.0661    1.1851   -0.0023 H   0  0  0  0  0  0  0  0  0  0  0  0
   -1.2026   -0.7035   -0.0000 C   0  0  0  0  0  0  0  0  0  0  0  0
   -2.0798   -1.1911    0.0023 H   0  0  0  0  0  0  0  0  0  0  0  0
    0.0029   -1.4068   -0.0008 C   0  0  0  0  0  0  0  0  0  0  0  0
   -0.0035   -2.4019   -0.0028 H   0  0  0  0  0  0  0  0  0  0  0  0
    1.2026   -0.7062    0.0000 C   0  0  0  0  0  0  0  0  0  0  0  0
    2.0867   -1.1945    0.0017 H   0  0  0  0  0  0  0  0  0  0  0  0
    1.1968    0.7010    0.0007 C   0  0  0  0  0  0  0  0  0  0  0  0
    2.0664    1.1907    0.0006 H   0  0  0  0  0  0  0  0  0  0  0  0
  1  5  1  0
  5  8  1  0
  1  2  1  0
  1  3  1  0
  1  4  1  0
  5  6  1  0
  5  7  1  0
  8  9  1  0
  8 10  1  0
  8 11  1  0
 12 16  1  0
 16 17  2  0
 17 19  1  0
 19 21  2  0
 21 23  1  0
 23 25  2  0
 25 16  1  0
 12 13  1  0
 12 14  1  0
 12 15  1  0
 17 18  1  0
 19 20  1  0
 21 22  1  0
 23 24  1  0
 25 26  1  0
M  CHG  1   8   1
M  END
>  <PDB_ID>  (963) 
pdb1odf

>  <RESIDUE_NAME>  (963) 
LYS   PHE

>  <FRAG_NAME>  (963) 
ETAM   MBZ

>  <FRAG_ATOM_NUM>  (963) 
fragi: 11  fragj: 15

>  <atom.prop.CHAIN_ID>  (963) 
A A A A A A A A A A A Z Z Z Z Z Z Z Z Z Z Z Z Z Z Z

>  <atom.prop.IS_HEAVY_ATOM>  (963) 
1 0 0 0 1 0 0 1 0 0 0 1 0 0 0 1 1 0 1 0 1 0 1 0 1 0

>  <DIFUSE_FUNC_ATOM>  (963) 
n/a

>  <FINAL_SINGLE_POINT_ENERGY>  (963) 
0

>  <NONCOV_INTER_ENERGY_QM>  (963) 
0

>  <FF_Energy>  (963) 
-6.46

>  <QM_Energy>  (963) 
-13.23

>  <source>  (963) 
ETAM_MBZ

>  <Index>  (963) 
9520

$$$$
ETAM-pdb2v0v-A-LYS-557:MBZ-pdb2v0v-A-PHE-489
     RDKit          3D

 26 25  0  0  0  0  0  0  0  0999 V2000
   -3.6758   -1.1357    2.7850 C   0  0  0  0  0  0  0  0  0  0  0  0
   -3.4732   -0.7448    1.8809 H   0  0  0  0  0  0  0  0  0  0  0  0
   -4.6208   -0.8987    3.0330 H   0  0  0  0  0  0  0  0  0  0  0  0
   -3.5911   -2.2207    2.7237 H   0  0  0  0  0  0  0  0  0  0  0  0
   -2.7414   -0.5021    3.8009 C   0  0  0  0  0  0  0  0  0  0  0  0
   -3.2892   -0.1147    4.5550 H   0  0  0  0  0  0  0  0  0  0  0  0
   -2.1418   -1.2171    4.1870 H   0  0  0  0  0  0  0  0  0  0  0  0
   -1.8813    0.5853    3.2259 N   0  0  0  0  0  4  0  0  0  0  0  0
   -2.2771    0.8905    2.3628 H   0  0  0  0  0  0  0  0  0  0  0  0
   -1.8440    1.3461    3.8705 H   0  0  0  0  0  0  0  0  0  0  0  0
   -0.9639    0.2262    3.0705 H   0  0  0  0  0  0  0  0  0  0  0  0
    0.0193    2.9292    0.0090 C   0  0  0  0  0  0  0  0  0  0  0  0
   -0.6969    3.2376   -0.5948 H   0  0  0  0  0  0  0  0  0  0  0  0
    0.9096    3.2221   -0.2991 H   0  0  0  0  0  0  0  0  0  0  0  0
   -0.1569    3.3652    0.9923 H   0  0  0  0  0  0  0  0  0  0  0  0
    0.0067    1.4044   -0.0031 C   0  0  0  0  0  0  0  0  0  0  0  0
   -1.1833    0.6994   -0.0044 C   0  0  0  0  0  0  0  0  0  0  0  0
   -2.0529    1.1939   -0.0099 H   0  0  0  0  0  0  0  0  0  0  0  0
   -1.1956   -0.6846   -0.0000 C   0  0  0  0  0  0  0  0  0  0  0  0
   -2.0804   -1.1727   -0.0057 H   0  0  0  0  0  0  0  0  0  0  0  0
   -0.0082   -1.3899    0.0134 C   0  0  0  0  0  0  0  0  0  0  0  0
   -0.0208   -2.3900    0.0327 H   0  0  0  0  0  0  0  0  0  0  0  0
    1.1956   -0.7076    0.0000 C   0  0  0  0  0  0  0  0  0  0  0  0
    2.0719   -1.2060   -0.0038 H   0  0  0  0  0  0  0  0  0  0  0  0
    1.1848    0.6783   -0.0059 C   0  0  0  0  0  0  0  0  0  0  0  0
    2.0659    1.1739   -0.0135 H   0  0  0  0  0  0  0  0  0  0  0  0
  1  5  1  0
  5  8  1  0
  1  2  1  0
  1  3  1  0
  1  4  1  0
  5  6  1  0
  5  7  1  0
  8  9  1  0
  8 10  1  0
  8 11  1  0
 12 16  1  0
 16 17  2  0
 17 19  1  0
 19 21  2  0
 21 23  1  0
 23 25  2  0
 25 16  1  0
 12 13  1  0
 12 14  1  0
 12 15  1  0
 17 18  1  0
 19 20  1  0
 21 22  1  0
 23 24  1  0
 25 26  1  0
M  CHG  1   8   1
M  END
>  <PDB_ID>  (964) 
pdb2v0v

>  <RESIDUE_NAME>  (964) 
LYS   PHE

>  <FRAG_NAME>  (964) 
ETAM   MBZ

>  <FRAG_ATOM_NUM>  (964) 
fragi: 11  fragj: 15

>  <atom.prop.CHAIN_ID>  (964) 
A A A A A A A A A A A Z Z Z Z Z Z Z Z Z Z Z Z Z Z Z

>  <atom.prop.IS_HEAVY_ATOM>  (964) 
1 0 0 0 1 0 0 1 0 0 0 1 0 0 0 1 1 0 1 0 1 0 1 0 1 0

>  <DIFUSE_FUNC_ATOM>  (964) 
n/a

>  <FINAL_SINGLE_POINT_ENERGY>  (964) 
0

>  <NONCOV_INTER_ENERGY_QM>  (964) 
0

>  <FF_Energy>  (964) 
-5.72

>  <QM_Energy>  (964) 
-11.1

>  <source>  (964) 
ETAM_MBZ

>  <Index>  (964) 
9536

$$$$
ETAM-pdb2v0v-C-LYS-557:MBZ-pdb2v0v-C-PHE-489
     RDKit          3D

 26 25  0  0  0  0  0  0  0  0999 V2000
   -4.7662   -1.3897    2.8805 C   0  0  0  0  0  0  0  0  0  0  0  0
   -5.0530   -0.8931    2.0657 H   0  0  0  0  0  0  0  0  0  0  0  0
   -5.5340   -1.4960    3.5055 H   0  0  0  0  0  0  0  0  0  0  0  0
   -4.4142   -2.3776    2.5838 H   0  0  0  0  0  0  0  0  0  0  0  0
   -3.6797   -0.5912    3.5779 C   0  0  0  0  0  0  0  0  0  0  0  0
   -4.1084    0.0349    4.2384 H   0  0  0  0  0  0  0  0  0  0  0  0
   -3.0817   -1.2245    4.0829 H   0  0  0  0  0  0  0  0  0  0  0  0
   -2.8528    0.2009    2.6244 N   0  0  0  0  0  4  0  0  0  0  0  0
   -1.8936    0.1535    2.9002 H   0  0  0  0  0  0  0  0  0  0  0  0
   -2.9570   -0.1761    1.7045 H   0  0  0  0  0  0  0  0  0  0  0  0
   -3.1583    1.1521    2.6338 H   0  0  0  0  0  0  0  0  0  0  0  0
    0.0308    2.9333   -0.0035 C   0  0  0  0  0  0  0  0  0  0  0  0
   -0.6609    3.2374   -0.6697 H   0  0  0  0  0  0  0  0  0  0  0  0
    0.9385    3.2128   -0.3417 H   0  0  0  0  0  0  0  0  0  0  0  0
   -0.1537    3.4574    0.9342 H   0  0  0  0  0  0  0  0  0  0  0  0
    0.0066    1.4152    0.0008 C   0  0  0  0  0  0  0  0  0  0  0  0
   -1.1729    0.7025   -0.0002 C   0  0  0  0  0  0  0  0  0  0  0  0
   -2.0490    1.1951   -0.0027 H   0  0  0  0  0  0  0  0  0  0  0  0
   -1.1843   -0.6773   -0.0000 C   0  0  0  0  0  0  0  0  0  0  0  0
   -2.0794   -1.1640    0.0059 H   0  0  0  0  0  0  0  0  0  0  0  0
   -0.0093   -1.4055   -0.0054 C   0  0  0  0  0  0  0  0  0  0  0  0
   -0.0257   -2.3924   -0.0129 H   0  0  0  0  0  0  0  0  0  0  0  0
    1.1843   -0.7070    0.0000 C   0  0  0  0  0  0  0  0  0  0  0  0
    2.0688   -1.2057    0.0016 H   0  0  0  0  0  0  0  0  0  0  0  0
    1.1756    0.6721    0.0047 C   0  0  0  0  0  0  0  0  0  0  0  0
    2.0643    1.1669    0.0104 H   0  0  0  0  0  0  0  0  0  0  0  0
  1  5  1  0
  5  8  1  0
  1  2  1  0
  1  3  1  0
  1  4  1  0
  5  6  1  0
  5  7  1  0
  8  9  1  0
  8 10  1  0
  8 11  1  0
 12 16  1  0
 16 17  2  0
 17 19  1  0
 19 21  2  0
 21 23  1  0
 23 25  2  0
 25 16  1  0
 12 13  1  0
 12 14  1  0
 12 15  1  0
 17 18  1  0
 19 20  1  0
 21 22  1  0
 23 24  1  0
 25 26  1  0
M  CHG  1   8   1
M  END
>  <PDB_ID>  (965) 
pdb2v0v

>  <RESIDUE_NAME>  (965) 
LYS   PHE

>  <FRAG_NAME>  (965) 
ETAM   MBZ

>  <FRAG_ATOM_NUM>  (965) 
fragi: 11  fragj: 15

>  <atom.prop.CHAIN_ID>  (965) 
A A A A A A A A A A A Z Z Z Z Z Z Z Z Z Z Z Z Z Z Z

>  <atom.prop.IS_HEAVY_ATOM>  (965) 
1 0 0 0 1 0 0 1 0 0 0 1 0 0 0 1 1 0 1 0 1 0 1 0 1 0

>  <DIFUSE_FUNC_ATOM>  (965) 
n/a

>  <FINAL_SINGLE_POINT_ENERGY>  (965) 
0

>  <NONCOV_INTER_ENERGY_QM>  (965) 
0

>  <FF_Energy>  (965) 
-2.72

>  <QM_Energy>  (965) 
-8.87

>  <source>  (965) 
ETAM_MBZ

>  <Index>  (965) 
9537

$$$$
ETAM-pdb1n4q-C-LYS-118:MBZ-pdb1n4q-C-PHE-55
     RDKit          3D

 26 25  0  0  0  0  0  0  0  0999 V2000
    4.4322    1.4262   -2.0837 C   0  0  0  0  0  0  0  0  0  0  0  0
    5.2889    1.5140   -1.5718 H   0  0  0  0  0  0  0  0  0  0  0  0
    3.7242    1.9784   -1.6400 H   0  0  0  0  0  0  0  0  0  0  0  0
    4.5929    1.8157   -3.0889 H   0  0  0  0  0  0  0  0  0  0  0  0
    4.0049   -0.0111   -2.0821 C   0  0  0  0  0  0  0  0  0  0  0  0
    3.1465   -0.1049   -2.5907 H   0  0  0  0  0  0  0  0  0  0  0  0
    4.7097   -0.5706   -2.5210 H   0  0  0  0  0  0  0  0  0  0  0  0
    3.7983   -0.4990   -0.6923 N   0  0  0  0  0  4  0  0  0  0  0  0
    2.8215   -0.6287   -0.5269 H   0  0  0  0  0  0  0  0  0  0  0  0
    4.2759   -1.3690   -0.5710 H   0  0  0  0  0  0  0  0  0  0  0  0
    4.1606    0.1740   -0.0465 H   0  0  0  0  0  0  0  0  0  0  0  0
    0.0019    2.9177    0.0730 C   0  0  0  0  0  0  0  0  0  0  0  0
    0.8586    3.2383   -0.3030 H   0  0  0  0  0  0  0  0  0  0  0  0
   -0.0945    3.1765    1.0224 H   0  0  0  0  0  0  0  0  0  0  0  0
   -0.8052    3.3925   -0.4848 H   0  0  0  0  0  0  0  0  0  0  0  0
   -0.0006    1.4088    0.0008 C   0  0  0  0  0  0  0  0  0  0  0  0
   -1.1986    0.6961   -0.0005 C   0  0  0  0  0  0  0  0  0  0  0  0
   -2.0662    1.1847   -0.0031 H   0  0  0  0  0  0  0  0  0  0  0  0
   -1.2040   -0.6997   -0.0000 C   0  0  0  0  0  0  0  0  0  0  0  0
   -2.0804   -1.1918    0.0008 H   0  0  0  0  0  0  0  0  0  0  0  0
    0.0005   -1.3996    0.0017 C   0  0  0  0  0  0  0  0  0  0  0  0
   -0.0045   -2.3965    0.0037 H   0  0  0  0  0  0  0  0  0  0  0  0
    1.2040   -0.7019    0.0000 C   0  0  0  0  0  0  0  0  0  0  0  0
    2.0848   -1.1967    0.0015 H   0  0  0  0  0  0  0  0  0  0  0  0
    1.1987    0.6963   -0.0020 C   0  0  0  0  0  0  0  0  0  0  0  0
    2.0668    1.1908   -0.0059 H   0  0  0  0  0  0  0  0  0  0  0  0
  1  5  1  0
  5  8  1  0
  1  2  1  0
  1  3  1  0
  1  4  1  0
  5  6  1  0
  5  7  1  0
  8  9  1  0
  8 10  1  0
  8 11  1  0
 12 16  1  0
 16 17  2  0
 17 19  1  0
 19 21  2  0
 21 23  1  0
 23 25  2  0
 25 16  1  0
 12 13  1  0
 12 14  1  0
 12 15  1  0
 17 18  1  0
 19 20  1  0
 21 22  1  0
 23 24  1  0
 25 26  1  0
M  CHG  1   8   1
M  END
>  <PDB_ID>  (966) 
pdb1n4q

>  <RESIDUE_NAME>  (966) 
LYS   PHE

>  <FRAG_NAME>  (966) 
ETAM   MBZ

>  <FRAG_ATOM_NUM>  (966) 
fragi: 11  fragj: 15

>  <atom.prop.CHAIN_ID>  (966) 
A A A A A A A A A A A Z Z Z Z Z Z Z Z Z Z Z Z Z Z Z

>  <atom.prop.IS_HEAVY_ATOM>  (966) 
1 0 0 0 1 0 0 1 0 0 0 1 0 0 0 1 1 0 1 0 1 0 1 0 1 0

>  <DIFUSE_FUNC_ATOM>  (966) 
n/a

>  <FINAL_SINGLE_POINT_ENERGY>  (966) 
0

>  <NONCOV_INTER_ENERGY_QM>  (966) 
0

>  <FF_Energy>  (966) 
38.41

>  <QM_Energy>  (966) 
13.55

>  <source>  (966) 
ETAM_MBZ

>  <Index>  (966) 
9545

$$$$
ETAM-pdb1oc4-B-LYS-218:MBZ-pdb1oc4-B-PHE-212
     RDKit          3D

 26 25  0  0  0  0  0  0  0  0999 V2000
    3.8343    2.1865    1.2124 C   0  0  0  0  0  0  0  0  0  0  0  0
    2.9272    2.5008    1.4900 H   0  0  0  0  0  0  0  0  0  0  0  0
    3.7494    1.5574    0.4404 H   0  0  0  0  0  0  0  0  0  0  0  0
    4.4372    3.0444    0.9147 H   0  0  0  0  0  0  0  0  0  0  0  0
    4.4480    1.4174    2.3846 C   0  0  0  0  0  0  0  0  0  0  0  0
    5.3499    1.0856    2.1136 H   0  0  0  0  0  0  0  0  0  0  0  0
    4.5389    2.0371    3.1626 H   0  0  0  0  0  0  0  0  0  0  0  0
    3.5916    0.2622    2.7700 N   0  0  0  0  0  4  0  0  0  0  0  0
    4.1665   -0.5420    2.9180 H   0  0  0  0  0  0  0  0  0  0  0  0
    3.0996    0.4807    3.6120 H   0  0  0  0  0  0  0  0  0  0  0  0
    2.9367    0.0761    2.0378 H   0  0  0  0  0  0  0  0  0  0  0  0
   -0.0019    2.9109    0.0020 C   0  0  0  0  0  0  0  0  0  0  0  0
   -0.7455    3.2157   -0.5740 H   0  0  0  0  0  0  0  0  0  0  0  0
    0.8721    3.2137   -0.3484 H   0  0  0  0  0  0  0  0  0  0  0  0
   -0.1387    3.3591    0.9861 H   0  0  0  0  0  0  0  0  0  0  0  0
   -0.0042    1.4047    0.0084 C   0  0  0  0  0  0  0  0  0  0  0  0
   -1.1989    0.6955   -0.0028 C   0  0  0  0  0  0  0  0  0  0  0  0
   -2.0665    1.1830   -0.0141 H   0  0  0  0  0  0  0  0  0  0  0  0
   -1.2026   -0.6982    0.0000 C   0  0  0  0  0  0  0  0  0  0  0  0
   -2.0726   -1.1954    0.0010 H   0  0  0  0  0  0  0  0  0  0  0  0
    0.0112   -1.3962    0.0027 C   0  0  0  0  0  0  0  0  0  0  0  0
    0.0018   -2.3941    0.0063 H   0  0  0  0  0  0  0  0  0  0  0  0
    1.2026   -0.6982    0.0000 C   0  0  0  0  0  0  0  0  0  0  0  0
    2.0888   -1.1892    0.0059 H   0  0  0  0  0  0  0  0  0  0  0  0
    1.1919    0.6924   -0.0083 C   0  0  0  0  0  0  0  0  0  0  0  0
    2.0608    1.1917   -0.0269 H   0  0  0  0  0  0  0  0  0  0  0  0
  1  5  1  0
  5  8  1  0
  1  2  1  0
  1  3  1  0
  1  4  1  0
  5  6  1  0
  5  7  1  0
  8  9  1  0
  8 10  1  0
  8 11  1  0
 12 16  1  0
 16 17  2  0
 17 19  1  0
 19 21  2  0
 21 23  1  0
 23 25  2  0
 25 16  1  0
 12 13  1  0
 12 14  1  0
 12 15  1  0
 17 18  1  0
 19 20  1  0
 21 22  1  0
 23 24  1  0
 25 26  1  0
M  CHG  1   8   1
M  END
>  <PDB_ID>  (967) 
pdb1oc4

>  <RESIDUE_NAME>  (967) 
LYS   PHE

>  <FRAG_NAME>  (967) 
ETAM   MBZ

>  <FRAG_ATOM_NUM>  (967) 
fragi: 11  fragj: 15

>  <atom.prop.CHAIN_ID>  (967) 
A A A A A A A A A A A Z Z Z Z Z Z Z Z Z Z Z Z Z Z Z

>  <atom.prop.IS_HEAVY_ATOM>  (967) 
1 0 0 0 1 0 0 1 0 0 0 1 0 0 0 1 1 0 1 0 1 0 1 0 1 0

>  <DIFUSE_FUNC_ATOM>  (967) 
n/a

>  <FINAL_SINGLE_POINT_ENERGY>  (967) 
0

>  <NONCOV_INTER_ENERGY_QM>  (967) 
0

>  <FF_Energy>  (967) 
3.74

>  <QM_Energy>  (967) 
-4.76

>  <source>  (967) 
ETAM_MBZ

>  <Index>  (967) 
9554

$$$$
ETAM-pdb1ogs-A-LYS-425:MBZ-pdb1ogs-A-PHE-26
     RDKit          3D

 26 25  0  0  0  0  0  0  0  0999 V2000
   -0.7090   -0.7992   -3.8268 C   0  0  0  0  0  0  0  0  0  0  0  0
   -1.3236   -1.1131   -3.1122 H   0  0  0  0  0  0  0  0  0  0  0  0
    0.1043   -1.3676   -3.8614 H   0  0  0  0  0  0  0  0  0  0  0  0
   -1.2231   -0.8545   -4.7863 H   0  0  0  0  0  0  0  0  0  0  0  0
   -0.2823    0.6336   -3.5014 C   0  0  0  0  0  0  0  0  0  0  0  0
    0.2177    0.6319   -2.6312 H   0  0  0  0  0  0  0  0  0  0  0  0
    0.3305    0.9598   -4.2267 H   0  0  0  0  0  0  0  0  0  0  0  0
   -1.4499    1.5608   -3.3933 N   0  0  0  0  0  4  0  0  0  0  0  0
   -1.3192    2.1634   -2.6083 H   0  0  0  0  0  0  0  0  0  0  0  0
   -1.5151    2.1044   -4.2284 H   0  0  0  0  0  0  0  0  0  0  0  0
   -2.2836    1.0253   -3.2725 H   0  0  0  0  0  0  0  0  0  0  0  0
    0.0018    2.9057   -0.0521 C   0  0  0  0  0  0  0  0  0  0  0  0
   -0.8043    3.1981   -0.5497 H   0  0  0  0  0  0  0  0  0  0  0  0
    0.8289    3.1980   -0.5139 H   0  0  0  0  0  0  0  0  0  0  0  0
   -0.0187    3.3921    0.9231 H   0  0  0  0  0  0  0  0  0  0  0  0
    0.0003    1.4054   -0.0017 C   0  0  0  0  0  0  0  0  0  0  0  0
   -1.1986    0.6977    0.0017 C   0  0  0  0  0  0  0  0  0  0  0  0
   -2.0644    1.1862    0.0037 H   0  0  0  0  0  0  0  0  0  0  0  0
   -1.2042   -0.6988    0.0000 C   0  0  0  0  0  0  0  0  0  0  0  0
   -2.0810   -1.1899    0.0010 H   0  0  0  0  0  0  0  0  0  0  0  0
   -0.0013   -1.3990   -0.0008 C   0  0  0  0  0  0  0  0  0  0  0  0
   -0.0063   -2.3963   -0.0029 H   0  0  0  0  0  0  0  0  0  0  0  0
    1.2042   -0.7020   -0.0000 C   0  0  0  0  0  0  0  0  0  0  0  0
    2.0835   -1.1972    0.0010 H   0  0  0  0  0  0  0  0  0  0  0  0
    1.1996    0.6966    0.0008 C   0  0  0  0  0  0  0  0  0  0  0  0
    2.0672    1.1898    0.0025 H   0  0  0  0  0  0  0  0  0  0  0  0
  1  5  1  0
  5  8  1  0
  1  2  1  0
  1  3  1  0
  1  4  1  0
  5  6  1  0
  5  7  1  0
  8  9  1  0
  8 10  1  0
  8 11  1  0
 12 16  1  0
 16 17  2  0
 17 19  1  0
 19 21  2  0
 21 23  1  0
 23 25  2  0
 25 16  1  0
 12 13  1  0
 12 14  1  0
 12 15  1  0
 17 18  1  0
 19 20  1  0
 21 22  1  0
 23 24  1  0
 25 26  1  0
M  CHG  1   8   1
M  END
>  <PDB_ID>  (968) 
pdb1ogs

>  <RESIDUE_NAME>  (968) 
LYS   PHE

>  <FRAG_NAME>  (968) 
ETAM   MBZ

>  <FRAG_ATOM_NUM>  (968) 
fragi: 11  fragj: 15

>  <atom.prop.CHAIN_ID>  (968) 
A A A A A A A A A A A Z Z Z Z Z Z Z Z Z Z Z Z Z Z Z

>  <atom.prop.IS_HEAVY_ATOM>  (968) 
1 0 0 0 1 0 0 1 0 0 0 1 0 0 0 1 1 0 1 0 1 0 1 0 1 0

>  <DIFUSE_FUNC_ATOM>  (968) 
n/a

>  <FINAL_SINGLE_POINT_ENERGY>  (968) 
0

>  <NONCOV_INTER_ENERGY_QM>  (968) 
0

>  <FF_Energy>  (968) 
-6.41

>  <QM_Energy>  (968) 
-11.92

>  <source>  (968) 
ETAM_MBZ

>  <Index>  (968) 
9555

$$$$
ETAM-pdb2v0p-B-LYS-46:MBZ-pdb2v0p-B-PHE-50
     RDKit          3D

 26 25  0  0  0  0  0  0  0  0999 V2000
   -0.6431    0.4692   -4.7747 C   0  0  0  0  0  0  0  0  0  0  0  0
   -0.8884   -0.4947   -4.9183 H   0  0  0  0  0  0  0  0  0  0  0  0
   -0.8227    0.9766   -5.6232 H   0  0  0  0  0  0  0  0  0  0  0  0
   -1.2642    0.8783   -3.9779 H   0  0  0  0  0  0  0  0  0  0  0  0
    0.8499    0.5407   -4.4854 C   0  0  0  0  0  0  0  0  0  0  0  0
    1.3519    0.1516   -5.2637 H   0  0  0  0  0  0  0  0  0  0  0  0
    1.1167    1.5035   -4.3791 H   0  0  0  0  0  0  0  0  0  0  0  0
    1.2245   -0.2063   -3.2437 N   0  0  0  0  0  4  0  0  0  0  0  0
    1.6951   -1.0489   -3.4984 H   0  0  0  0  0  0  0  0  0  0  0  0
    1.8271    0.3634   -2.6883 H   0  0  0  0  0  0  0  0  0  0  0  0
    0.3966   -0.4231   -2.7295 H   0  0  0  0  0  0  0  0  0  0  0  0
    0.0126    2.8684   -0.0200 C   0  0  0  0  0  0  0  0  0  0  0  0
   -0.4913    3.1692   -0.8207 H   0  0  0  0  0  0  0  0  0  0  0  0
    0.9567    3.1720   -0.0662 H   0  0  0  0  0  0  0  0  0  0  0  0
   -0.4458    3.3202    0.8597 H   0  0  0  0  0  0  0  0  0  0  0  0
    0.0044    1.3865   -0.0002 C   0  0  0  0  0  0  0  0  0  0  0  0
   -1.1871    0.6855   -0.0088 C   0  0  0  0  0  0  0  0  0  0  0  0
   -2.0556    1.1644   -0.0224 H   0  0  0  0  0  0  0  0  0  0  0  0
   -1.1824   -0.7156   -0.0000 C   0  0  0  0  0  0  0  0  0  0  0  0
   -2.0674   -1.1971   -0.0008 H   0  0  0  0  0  0  0  0  0  0  0  0
   -0.0097   -1.3658    0.0105 C   0  0  0  0  0  0  0  0  0  0  0  0
    0.0132   -2.3816    0.0259 H   0  0  0  0  0  0  0  0  0  0  0  0
    1.1824   -0.6765   -0.0000 C   0  0  0  0  0  0  0  0  0  0  0  0
    2.0656   -1.1918   -0.0050 H   0  0  0  0  0  0  0  0  0  0  0  0
    1.1923    0.6859   -0.0015 C   0  0  0  0  0  0  0  0  0  0  0  0
    2.0600    1.1864   -0.0040 H   0  0  0  0  0  0  0  0  0  0  0  0
  1  5  1  0
  5  8  1  0
  1  2  1  0
  1  3  1  0
  1  4  1  0
  5  6  1  0
  5  7  1  0
  8  9  1  0
  8 10  1  0
  8 11  1  0
 12 16  1  0
 16 17  2  0
 17 19  1  0
 19 21  2  0
 21 23  1  0
 23 25  2  0
 25 16  1  0
 12 13  1  0
 12 14  1  0
 12 15  1  0
 17 18  1  0
 19 20  1  0
 21 22  1  0
 23 24  1  0
 25 26  1  0
M  CHG  1   8   1
M  END
>  <PDB_ID>  (969) 
pdb2v0p

>  <RESIDUE_NAME>  (969) 
LYS   PHE

>  <FRAG_NAME>  (969) 
ETAM   MBZ

>  <FRAG_ATOM_NUM>  (969) 
fragi: 11  fragj: 15

>  <atom.prop.CHAIN_ID>  (969) 
A A A A A A A A A A A Z Z Z Z Z Z Z Z Z Z Z Z Z Z Z

>  <atom.prop.IS_HEAVY_ATOM>  (969) 
1 0 0 0 1 0 0 1 0 0 0 1 0 0 0 1 1 0 1 0 1 0 1 0 1 0

>  <DIFUSE_FUNC_ATOM>  (969) 
n/a

>  <FINAL_SINGLE_POINT_ENERGY>  (969) 
0

>  <NONCOV_INTER_ENERGY_QM>  (969) 
0

>  <FF_Energy>  (969) 
-7.41

>  <QM_Energy>  (969) 
-13.36

>  <source>  (969) 
ETAM_MBZ

>  <Index>  (969) 
9560

$$$$
ETAM-pdb2v0v-B-LYS-557:MBZ-pdb2v0v-B-PHE-489
     RDKit          3D

 26 25  0  0  0  0  0  0  0  0999 V2000
   -4.0560   -0.4891    1.6309 C   0  0  0  0  0  0  0  0  0  0  0  0
   -3.2934   -0.4017    0.9876 H   0  0  0  0  0  0  0  0  0  0  0  0
   -4.9011   -0.1883    1.1857 H   0  0  0  0  0  0  0  0  0  0  0  0
   -4.1589   -1.5365    1.9147 H   0  0  0  0  0  0  0  0  0  0  0  0
   -3.7895    0.4222    2.8190 C   0  0  0  0  0  0  0  0  0  0  0  0
   -4.5175    1.1123    2.8697 H   0  0  0  0  0  0  0  0  0  0  0  0
   -3.8071   -0.1260    3.6612 H   0  0  0  0  0  0  0  0  0  0  0  0
   -2.4705    1.1134    2.7167 N   0  0  0  0  0  4  0  0  0  0  0  0
   -2.1107    1.2728    3.6347 H   0  0  0  0  0  0  0  0  0  0  0  0
   -1.8366    0.5385    2.2019 H   0  0  0  0  0  0  0  0  0  0  0  0
   -2.5918    1.9858    2.2463 H   0  0  0  0  0  0  0  0  0  0  0  0
    0.0239    2.9202   -0.0107 C   0  0  0  0  0  0  0  0  0  0  0  0
   -0.6609    3.2224   -0.6632 H   0  0  0  0  0  0  0  0  0  0  0  0
    0.9303    3.2078   -0.2978 H   0  0  0  0  0  0  0  0  0  0  0  0
   -0.1917    3.3950    0.9465 H   0  0  0  0  0  0  0  0  0  0  0  0
    0.0078    1.4038    0.0006 C   0  0  0  0  0  0  0  0  0  0  0  0
   -1.1877    0.6992   -0.0004 C   0  0  0  0  0  0  0  0  0  0  0  0
   -2.0533    1.1933   -0.0025 H   0  0  0  0  0  0  0  0  0  0  0  0
   -1.1937   -0.6841   -0.0000 C   0  0  0  0  0  0  0  0  0  0  0  0
   -2.0796   -1.1757    0.0109 H   0  0  0  0  0  0  0  0  0  0  0  0
   -0.0067   -1.3941   -0.0122 C   0  0  0  0  0  0  0  0  0  0  0  0
   -0.0178   -2.3899   -0.0296 H   0  0  0  0  0  0  0  0  0  0  0  0
    1.1937   -0.7028    0.0000 C   0  0  0  0  0  0  0  0  0  0  0  0
    2.0736   -1.2040    0.0014 H   0  0  0  0  0  0  0  0  0  0  0  0
    1.1867    0.6780    0.0119 C   0  0  0  0  0  0  0  0  0  0  0  0
    2.0667    1.1738    0.0289 H   0  0  0  0  0  0  0  0  0  0  0  0
  1  5  1  0
  5  8  1  0
  1  2  1  0
  1  3  1  0
  1  4  1  0
  5  6  1  0
  5  7  1  0
  8  9  1  0
  8 10  1  0
  8 11  1  0
 12 16  1  0
 16 17  2  0
 17 19  1  0
 19 21  2  0
 21 23  1  0
 23 25  2  0
 25 16  1  0
 12 13  1  0
 12 14  1  0
 12 15  1  0
 17 18  1  0
 19 20  1  0
 21 22  1  0
 23 24  1  0
 25 26  1  0
M  CHG  1   8   1
M  END
>  <PDB_ID>  (970) 
pdb2v0v

>  <RESIDUE_NAME>  (970) 
LYS   PHE

>  <FRAG_NAME>  (970) 
ETAM   MBZ

>  <FRAG_ATOM_NUM>  (970) 
fragi: 11  fragj: 15

>  <atom.prop.CHAIN_ID>  (970) 
A A A A A A A A A A A Z Z Z Z Z Z Z Z Z Z Z Z Z Z Z

>  <atom.prop.IS_HEAVY_ATOM>  (970) 
1 0 0 0 1 0 0 1 0 0 0 1 0 0 0 1 1 0 1 0 1 0 1 0 1 0

>  <DIFUSE_FUNC_ATOM>  (970) 
n/a

>  <FINAL_SINGLE_POINT_ENERGY>  (970) 
0

>  <NONCOV_INTER_ENERGY_QM>  (970) 
0

>  <FF_Energy>  (970) 
4.36

>  <QM_Energy>  (970) 
-7.47

>  <source>  (970) 
ETAM_MBZ

>  <Index>  (970) 
9566

$$$$
ETAM-pdb1ohv-D-LYS-424:MBZ-pdb1ohv-D-PHE-471
     RDKit          3D

 26 25  0  0  0  0  0  0  0  0999 V2000
   -3.2101   -3.2759    1.0954 C   0  0  0  0  0  0  0  0  0  0  0  0
   -2.9061   -4.1716    1.4185 H   0  0  0  0  0  0  0  0  0  0  0  0
   -2.4151   -2.7033    0.8975 H   0  0  0  0  0  0  0  0  0  0  0  0
   -3.7804   -3.4112    0.1764 H   0  0  0  0  0  0  0  0  0  0  0  0
   -4.0239   -2.6173    2.1850 C   0  0  0  0  0  0  0  0  0  0  0  0
   -4.3292   -1.7188    1.8701 H   0  0  0  0  0  0  0  0  0  0  0  0
   -4.8200   -3.1863    2.3905 H   0  0  0  0  0  0  0  0  0  0  0  0
   -3.2095   -2.4524    3.4180 N   0  0  0  0  0  4  0  0  0  0  0  0
   -3.3668   -3.2300    4.0265 H   0  0  0  0  0  0  0  0  0  0  0  0
   -2.2414   -2.4102    3.1734 H   0  0  0  0  0  0  0  0  0  0  0  0
   -3.4753   -1.6074    3.8807 H   0  0  0  0  0  0  0  0  0  0  0  0
   -0.0039    2.8955    0.0273 C   0  0  0  0  0  0  0  0  0  0  0  0
   -0.6337    3.2182   -0.6591 H   0  0  0  0  0  0  0  0  0  0  0  0
    0.9147    3.2094   -0.1417 H   0  0  0  0  0  0  0  0  0  0  0  0
   -0.3222    3.3016    0.9875 H   0  0  0  0  0  0  0  0  0  0  0  0
   -0.0012    1.3972   -0.0047 C   0  0  0  0  0  0  0  0  0  0  0  0
   -1.1964    0.6948    0.0019 C   0  0  0  0  0  0  0  0  0  0  0  0
   -2.0620    1.1850    0.0071 H   0  0  0  0  0  0  0  0  0  0  0  0
   -1.1995   -0.6923   -0.0000 C   0  0  0  0  0  0  0  0  0  0  0  0
   -2.0764   -1.1877   -0.0005 H   0  0  0  0  0  0  0  0  0  0  0  0
    0.0007   -1.3889    0.0003 C   0  0  0  0  0  0  0  0  0  0  0  0
   -0.0066   -2.3895    0.0001 H   0  0  0  0  0  0  0  0  0  0  0  0
    1.1995   -0.6979   -0.0000 C   0  0  0  0  0  0  0  0  0  0  0  0
    2.0809   -1.1985   -0.0000 H   0  0  0  0  0  0  0  0  0  0  0  0
    1.1969    0.6871    0.0026 C   0  0  0  0  0  0  0  0  0  0  0  0
    2.0637    1.1863    0.0093 H   0  0  0  0  0  0  0  0  0  0  0  0
  1  5  1  0
  5  8  1  0
  1  2  1  0
  1  3  1  0
  1  4  1  0
  5  6  1  0
  5  7  1  0
  8  9  1  0
  8 10  1  0
  8 11  1  0
 12 16  1  0
 16 17  2  0
 17 19  1  0
 19 21  2  0
 21 23  1  0
 23 25  2  0
 25 16  1  0
 12 13  1  0
 12 14  1  0
 12 15  1  0
 17 18  1  0
 19 20  1  0
 21 22  1  0
 23 24  1  0
 25 26  1  0
M  CHG  1   8   1
M  END
>  <PDB_ID>  (971) 
pdb1ohv

>  <RESIDUE_NAME>  (971) 
LYS   PHE

>  <FRAG_NAME>  (971) 
ETAM   MBZ

>  <FRAG_ATOM_NUM>  (971) 
fragi: 11  fragj: 15

>  <atom.prop.CHAIN_ID>  (971) 
A A A A A A A A A A A Z Z Z Z Z Z Z Z Z Z Z Z Z Z Z

>  <atom.prop.IS_HEAVY_ATOM>  (971) 
1 0 0 0 1 0 0 1 0 0 0 1 0 0 0 1 1 0 1 0 1 0 1 0 1 0

>  <DIFUSE_FUNC_ATOM>  (971) 
n/a

>  <FINAL_SINGLE_POINT_ENERGY>  (971) 
0

>  <NONCOV_INTER_ENERGY_QM>  (971) 
0

>  <FF_Energy>  (971) 
3.07

>  <QM_Energy>  (971) 
-2.87

>  <source>  (971) 
ETAM_MBZ

>  <Index>  (971) 
9570

$$$$
ETAM-pdb1ogl-A-LYS-216:MBZ-pdb1ogl-A-PHE-260
     RDKit          3D

 26 25  0  0  0  0  0  0  0  0999 V2000
    3.8152   -1.2507    3.6902 C   0  0  0  0  0  0  0  0  0  0  0  0
    4.4331   -1.2625    4.4815 H   0  0  0  0  0  0  0  0  0  0  0  0
    2.9817   -1.7600    3.9212 H   0  0  0  0  0  0  0  0  0  0  0  0
    3.5414   -0.2163    3.4828 H   0  0  0  0  0  0  0  0  0  0  0  0
    4.5030   -1.9488    2.5291 C   0  0  0  0  0  0  0  0  0  0  0  0
    5.4898   -1.7892    2.5842 H   0  0  0  0  0  0  0  0  0  0  0  0
    4.3250   -2.9329    2.5818 H   0  0  0  0  0  0  0  0  0  0  0  0
    4.0079   -1.4419    1.1955 N   0  0  0  0  0  4  0  0  0  0  0  0
    3.7557   -0.4826    1.2906 H   0  0  0  0  0  0  0  0  0  0  0  0
    4.7370   -1.5405    0.5247 H   0  0  0  0  0  0  0  0  0  0  0  0
    3.2151   -1.9794    0.9228 H   0  0  0  0  0  0  0  0  0  0  0  0
   -0.0137    2.9136    0.0203 C   0  0  0  0  0  0  0  0  0  0  0  0
   -0.8466    3.2200   -0.4124 H   0  0  0  0  0  0  0  0  0  0  0  0
    0.7853    3.2385   -0.4611 H   0  0  0  0  0  0  0  0  0  0  0  0
    0.0114    3.3371    1.0243 H   0  0  0  0  0  0  0  0  0  0  0  0
    0.0028    1.4158    0.0004 C   0  0  0  0  0  0  0  0  0  0  0  0
   -1.1955    0.6875    0.0063 C   0  0  0  0  0  0  0  0  0  0  0  0
   -2.0673    1.1754    0.0136 H   0  0  0  0  0  0  0  0  0  0  0  0
   -1.2108   -0.7203   -0.0000 C   0  0  0  0  0  0  0  0  0  0  0  0
   -2.0881   -1.2010   -0.0044 H   0  0  0  0  0  0  0  0  0  0  0  0
   -0.0085   -1.4168    0.0019 C   0  0  0  0  0  0  0  0  0  0  0  0
    0.0069   -2.4056    0.0042 H   0  0  0  0  0  0  0  0  0  0  0  0
    1.2108   -0.6919   -0.0000 C   0  0  0  0  0  0  0  0  0  0  0  0
    2.0894   -1.1811    0.0065 H   0  0  0  0  0  0  0  0  0  0  0  0
    1.2011    0.7257   -0.0087 C   0  0  0  0  0  0  0  0  0  0  0  0
    2.0675    1.2112   -0.0221 H   0  0  0  0  0  0  0  0  0  0  0  0
  1  5  1  0
  5  8  1  0
  1  2  1  0
  1  3  1  0
  1  4  1  0
  5  6  1  0
  5  7  1  0
  8  9  1  0
  8 10  1  0
  8 11  1  0
 12 16  1  0
 16 17  2  0
 17 19  1  0
 19 21  2  0
 21 23  1  0
 23 25  2  0
 25 16  1  0
 12 13  1  0
 12 14  1  0
 12 15  1  0
 17 18  1  0
 19 20  1  0
 21 22  1  0
 23 24  1  0
 25 26  1  0
M  CHG  1   8   1
M  END
>  <PDB_ID>  (972) 
pdb1ogl

>  <RESIDUE_NAME>  (972) 
LYS   PHE

>  <FRAG_NAME>  (972) 
ETAM   MBZ

>  <FRAG_ATOM_NUM>  (972) 
fragi: 11  fragj: 15

>  <atom.prop.CHAIN_ID>  (972) 
A A A A A A A A A A A Z Z Z Z Z Z Z Z Z Z Z Z Z Z Z

>  <atom.prop.IS_HEAVY_ATOM>  (972) 
1 0 0 0 1 0 0 1 0 0 0 1 0 0 0 1 1 0 1 0 1 0 1 0 1 0

>  <DIFUSE_FUNC_ATOM>  (972) 
n/a

>  <FINAL_SINGLE_POINT_ENERGY>  (972) 
0

>  <NONCOV_INTER_ENERGY_QM>  (972) 
0

>  <FF_Energy>  (972) 
5.38

>  <QM_Energy>  (972) 
-1.76

>  <source>  (972) 
ETAM_MBZ

>  <Index>  (972) 
9574

$$$$
ETAM-pdb2rgk-D-LYS-108:MBZ-pdb2rgk-D-PHE-162
     RDKit          3D

 26 25  0  0  0  0  0  0  0  0999 V2000
    0.5082   -3.3574   -3.5098 C   0  0  0  0  0  0  0  0  0  0  0  0
    0.6593   -3.7776   -2.6214 H   0  0  0  0  0  0  0  0  0  0  0  0
    0.0932   -4.0089   -4.1355 H   0  0  0  0  0  0  0  0  0  0  0  0
   -0.1614   -2.5058   -3.3890 H   0  0  0  0  0  0  0  0  0  0  0  0
    1.8584   -2.9332   -4.0802 C   0  0  0  0  0  0  0  0  0  0  0  0
    2.4166   -3.7583   -4.2397 H   0  0  0  0  0  0  0  0  0  0  0  0
    1.7073   -2.4818   -4.9699 H   0  0  0  0  0  0  0  0  0  0  0  0
    2.6115   -2.0030   -3.1856 N   0  0  0  0  0  4  0  0  0  0  0  0
    3.5396   -2.3484   -3.0590 H   0  0  0  0  0  0  0  0  0  0  0  0
    2.6430   -1.0975   -3.6047 H   0  0  0  0  0  0  0  0  0  0  0  0
    2.1488   -1.9491   -2.3026 H   0  0  0  0  0  0  0  0  0  0  0  0
    0.0019    2.9116   -0.0174 C   0  0  0  0  0  0  0  0  0  0  0  0
    0.9359    3.2181    0.0818 H   0  0  0  0  0  0  0  0  0  0  0  0
   -0.5629    3.2284    0.7302 H   0  0  0  0  0  0  0  0  0  0  0  0
   -0.3927    3.3458   -0.9360 H   0  0  0  0  0  0  0  0  0  0  0  0
   -0.0003    1.4066   -0.0002 C   0  0  0  0  0  0  0  0  0  0  0  0
   -1.1997    0.6977    0.0008 C   0  0  0  0  0  0  0  0  0  0  0  0
   -2.0656    1.1859    0.0014 H   0  0  0  0  0  0  0  0  0  0  0  0
   -1.2056   -0.7000    0.0000 C   0  0  0  0  0  0  0  0  0  0  0  0
   -2.0803   -1.1916    0.0015 H   0  0  0  0  0  0  0  0  0  0  0  0
    0.0019   -1.3988   -0.0014 C   0  0  0  0  0  0  0  0  0  0  0  0
   -0.0025   -2.3956   -0.0036 H   0  0  0  0  0  0  0  0  0  0  0  0
    1.2056   -0.7001   -0.0000 C   0  0  0  0  0  0  0  0  0  0  0  0
    2.0860   -1.1957    0.0022 H   0  0  0  0  0  0  0  0  0  0  0  0
    1.1981    0.6947    0.0007 C   0  0  0  0  0  0  0  0  0  0  0  0
    2.0663    1.1913    0.0011 H   0  0  0  0  0  0  0  0  0  0  0  0
  1  5  1  0
  5  8  1  0
  1  2  1  0
  1  3  1  0
  1  4  1  0
  5  6  1  0
  5  7  1  0
  8  9  1  0
  8 10  1  0
  8 11  1  0
 12 16  1  0
 16 17  2  0
 17 19  1  0
 19 21  2  0
 21 23  1  0
 23 25  2  0
 25 16  1  0
 12 13  1  0
 12 14  1  0
 12 15  1  0
 17 18  1  0
 19 20  1  0
 21 22  1  0
 23 24  1  0
 25 26  1  0
M  CHG  1   8   1
M  END
>  <PDB_ID>  (973) 
pdb2rgk

>  <RESIDUE_NAME>  (973) 
LYS   PHE

>  <FRAG_NAME>  (973) 
ETAM   MBZ

>  <FRAG_ATOM_NUM>  (973) 
fragi: 11  fragj: 15

>  <atom.prop.CHAIN_ID>  (973) 
A A A A A A A A A A A Z Z Z Z Z Z Z Z Z Z Z Z Z Z Z

>  <atom.prop.IS_HEAVY_ATOM>  (973) 
1 0 0 0 1 0 0 1 0 0 0 1 0 0 0 1 1 0 1 0 1 0 1 0 1 0

>  <DIFUSE_FUNC_ATOM>  (973) 
n/a

>  <FINAL_SINGLE_POINT_ENERGY>  (973) 
0

>  <NONCOV_INTER_ENERGY_QM>  (973) 
0

>  <FF_Energy>  (973) 
-2.62

>  <QM_Energy>  (973) 
-7.94

>  <source>  (973) 
ETAM_MBZ

>  <Index>  (973) 
9603

$$$$
ETAM-pdb2rgk-A-LYS-108:MBZ-pdb2rgk-A-PHE-162
     RDKit          3D

 26 25  0  0  0  0  0  0  0  0999 V2000
    1.2497   -3.0014   -3.6975 C   0  0  0  0  0  0  0  0  0  0  0  0
    1.1904   -3.5191   -2.8465 H   0  0  0  0  0  0  0  0  0  0  0  0
    1.0090   -3.5867   -4.4684 H   0  0  0  0  0  0  0  0  0  0  0  0
    0.5400   -2.1754   -3.6518 H   0  0  0  0  0  0  0  0  0  0  0  0
    2.6781   -2.5217   -3.8781 C   0  0  0  0  0  0  0  0  0  0  0  0
    3.2955   -3.3143   -3.8403 H   0  0  0  0  0  0  0  0  0  0  0  0
    2.7658   -2.0906   -4.7822 H   0  0  0  0  0  0  0  0  0  0  0  0
    3.0800   -1.5416   -2.8313 N   0  0  0  0  0  4  0  0  0  0  0  0
    3.0543   -0.6188   -3.2144 H   0  0  0  0  0  0  0  0  0  0  0  0
    2.4466   -1.6022   -2.0607 H   0  0  0  0  0  0  0  0  0  0  0  0
    4.0070   -1.7497   -2.5207 H   0  0  0  0  0  0  0  0  0  0  0  0
   -0.0014    2.9040    0.0132 C   0  0  0  0  0  0  0  0  0  0  0  0
    0.9309    3.2123    0.1324 H   0  0  0  0  0  0  0  0  0  0  0  0
   -0.5767    3.2054    0.7593 H   0  0  0  0  0  0  0  0  0  0  0  0
   -0.3840    3.3556   -0.9021 H   0  0  0  0  0  0  0  0  0  0  0  0
   -0.0002    1.4042   -0.0004 C   0  0  0  0  0  0  0  0  0  0  0  0
   -1.1985    0.6942   -0.0001 C   0  0  0  0  0  0  0  0  0  0  0  0
   -2.0650    1.1845   -0.0017 H   0  0  0  0  0  0  0  0  0  0  0  0
   -1.2040   -0.6987   -0.0000 C   0  0  0  0  0  0  0  0  0  0  0  0
   -2.0793   -1.1927    0.0014 H   0  0  0  0  0  0  0  0  0  0  0  0
    0.0012   -1.3972    0.0004 C   0  0  0  0  0  0  0  0  0  0  0  0
   -0.0043   -2.3948    0.0007 H   0  0  0  0  0  0  0  0  0  0  0  0
    1.2040   -0.7002    0.0000 C   0  0  0  0  0  0  0  0  0  0  0  0
    2.0851   -1.1940    0.0016 H   0  0  0  0  0  0  0  0  0  0  0  0
    1.1975    0.6977    0.0001 C   0  0  0  0  0  0  0  0  0  0  0  0
    2.0657    1.1915    0.0001 H   0  0  0  0  0  0  0  0  0  0  0  0
  1  5  1  0
  5  8  1  0
  1  2  1  0
  1  3  1  0
  1  4  1  0
  5  6  1  0
  5  7  1  0
  8  9  1  0
  8 10  1  0
  8 11  1  0
 12 16  1  0
 16 17  2  0
 17 19  1  0
 19 21  2  0
 21 23  1  0
 23 25  2  0
 25 16  1  0
 12 13  1  0
 12 14  1  0
 12 15  1  0
 17 18  1  0
 19 20  1  0
 21 22  1  0
 23 24  1  0
 25 26  1  0
M  CHG  1   8   1
M  END
>  <PDB_ID>  (974) 
pdb2rgk

>  <RESIDUE_NAME>  (974) 
LYS   PHE

>  <FRAG_NAME>  (974) 
ETAM   MBZ

>  <FRAG_ATOM_NUM>  (974) 
fragi: 11  fragj: 15

>  <atom.prop.CHAIN_ID>  (974) 
A A A A A A A A A A A Z Z Z Z Z Z Z Z Z Z Z Z Z Z Z

>  <atom.prop.IS_HEAVY_ATOM>  (974) 
1 0 0 0 1 0 0 1 0 0 0 1 0 0 0 1 1 0 1 0 1 0 1 0 1 0

>  <DIFUSE_FUNC_ATOM>  (974) 
n/a

>  <FINAL_SINGLE_POINT_ENERGY>  (974) 
0

>  <NONCOV_INTER_ENERGY_QM>  (974) 
0

>  <FF_Energy>  (974) 
-2.26

>  <QM_Energy>  (974) 
-8.16

>  <source>  (974) 
ETAM_MBZ

>  <Index>  (974) 
9632

$$$$
ETAM-pdb2v65-A-LYS-226:MBZ-pdb2v65-B-PHE-122
     RDKit          3D

 26 25  0  0  0  0  0  0  0  0999 V2000
    1.4394   -2.2776    2.6543 C   0  0  0  0  0  0  0  0  0  0  0  0
    2.1654   -2.6091    3.2413 H   0  0  0  0  0  0  0  0  0  0  0  0
    1.7946   -2.0038    1.7708 H   0  0  0  0  0  0  0  0  0  0  0  0
    0.7109   -3.0755    2.5102 H   0  0  0  0  0  0  0  0  0  0  0  0
    0.7933   -1.0638    3.3165 C   0  0  0  0  0  0  0  0  0  0  0  0
   -0.0391   -0.8266    2.8095 H   0  0  0  0  0  0  0  0  0  0  0  0
    0.5422   -1.3069    4.2575 H   0  0  0  0  0  0  0  0  0  0  0  0
    1.7071    0.1020    3.3365 N   0  0  0  0  0  4  0  0  0  0  0  0
    2.6142   -0.1886    3.6440 H   0  0  0  0  0  0  0  0  0  0  0  0
    1.7766    0.4887    2.4162 H   0  0  0  0  0  0  0  0  0  0  0  0
    1.3501    0.7967    3.9625 H   0  0  0  0  0  0  0  0  0  0  0  0
    0.0348    2.9812    0.0018 C   0  0  0  0  0  0  0  0  0  0  0  0
    0.9712    3.2544   -0.1282 H   0  0  0  0  0  0  0  0  0  0  0  0
   -0.3190    3.2704    0.8735 H   0  0  0  0  0  0  0  0  0  0  0  0
   -0.5618    3.4605   -0.7744 H   0  0  0  0  0  0  0  0  0  0  0  0
    0.0035    1.4236   -0.0131 C   0  0  0  0  0  0  0  0  0  0  0  0
   -1.1940    0.6916    0.0002 C   0  0  0  0  0  0  0  0  0  0  0  0
   -2.0656    1.1637    0.0082 H   0  0  0  0  0  0  0  0  0  0  0  0
   -1.1860   -0.7252   -0.0000 C   0  0  0  0  0  0  0  0  0  0  0  0
   -2.0695   -1.2061   -0.0081 H   0  0  0  0  0  0  0  0  0  0  0  0
    0.0007   -1.3973    0.0118 C   0  0  0  0  0  0  0  0  0  0  0  0
    0.0135   -2.4016    0.0289 H   0  0  0  0  0  0  0  0  0  0  0  0
    1.1860   -0.6945    0.0000 C   0  0  0  0  0  0  0  0  0  0  0  0
    2.0780   -1.1878   -0.0084 H   0  0  0  0  0  0  0  0  0  0  0  0
    1.1898    0.7019    0.0011 C   0  0  0  0  0  0  0  0  0  0  0  0
    2.0655    1.1881    0.0119 H   0  0  0  0  0  0  0  0  0  0  0  0
  1  5  1  0
  5  8  1  0
  1  2  1  0
  1  3  1  0
  1  4  1  0
  5  6  1  0
  5  7  1  0
  8  9  1  0
  8 10  1  0
  8 11  1  0
 12 16  1  0
 16 17  2  0
 17 19  1  0
 19 21  2  0
 21 23  1  0
 23 25  2  0
 25 16  1  0
 12 13  1  0
 12 14  1  0
 12 15  1  0
 17 18  1  0
 19 20  1  0
 21 22  1  0
 23 24  1  0
 25 26  1  0
M  CHG  1   8   1
M  END
>  <PDB_ID>  (975) 
pdb2v65

>  <RESIDUE_NAME>  (975) 
LYS   PHE

>  <FRAG_NAME>  (975) 
ETAM   MBZ

>  <FRAG_ATOM_NUM>  (975) 
fragi: 11  fragj: 15

>  <atom.prop.CHAIN_ID>  (975) 
A A A A A A A A A A A Z Z Z Z Z Z Z Z Z Z Z Z Z Z Z

>  <atom.prop.IS_HEAVY_ATOM>  (975) 
1 0 0 0 1 0 0 1 0 0 0 1 0 0 0 1 1 0 1 0 1 0 1 0 1 0

>  <DIFUSE_FUNC_ATOM>  (975) 
n/a

>  <FINAL_SINGLE_POINT_ENERGY>  (975) 
0

>  <NONCOV_INTER_ENERGY_QM>  (975) 
0

>  <FF_Energy>  (975) 
-0.27

>  <QM_Energy>  (975) 
-10.39

>  <source>  (975) 
ETAM_MBZ

>  <Index>  (975) 
9638

$$$$
ETAM-pdb1ogs-B-LYS-413:MBZ-pdb1ogs-B-PHE-417
     RDKit          3D

 26 25  0  0  0  0  0  0  0  0999 V2000
    0.0771   -0.6288   -3.9339 C   0  0  0  0  0  0  0  0  0  0  0  0
   -0.1736   -0.5013   -2.9739 H   0  0  0  0  0  0  0  0  0  0  0  0
   -0.5238   -1.3125   -4.3481 H   0  0  0  0  0  0  0  0  0  0  0  0
   -0.0574    0.3177   -4.4576 H   0  0  0  0  0  0  0  0  0  0  0  0
    1.5012   -1.1307   -4.0008 C   0  0  0  0  0  0  0  0  0  0  0  0
    1.8173   -1.1042   -4.9568 H   0  0  0  0  0  0  0  0  0  0  0  0
    2.0924   -0.5248   -3.4544 H   0  0  0  0  0  0  0  0  0  0  0  0
    1.6420   -2.5291   -3.4873 N   0  0  0  0  0  4  0  0  0  0  0  0
    2.5219   -2.6208   -3.0242 H   0  0  0  0  0  0  0  0  0  0  0  0
    0.9011   -2.7189   -2.8457 H   0  0  0  0  0  0  0  0  0  0  0  0
    1.5962   -3.1655   -4.2547 H   0  0  0  0  0  0  0  0  0  0  0  0
    0.0075    2.9189    0.0128 C   0  0  0  0  0  0  0  0  0  0  0  0
   -0.7962    3.2275   -0.4709 H   0  0  0  0  0  0  0  0  0  0  0  0
    0.8363    3.2203   -0.4304 H   0  0  0  0  0  0  0  0  0  0  0  0
   -0.0155    3.3515    1.0131 H   0  0  0  0  0  0  0  0  0  0  0  0
    0.0011    1.4043    0.0002 C   0  0  0  0  0  0  0  0  0  0  0  0
   -1.1964    0.6955    0.0013 C   0  0  0  0  0  0  0  0  0  0  0  0
   -2.0634    1.1843    0.0019 H   0  0  0  0  0  0  0  0  0  0  0  0
   -1.2014   -0.6995   -0.0000 C   0  0  0  0  0  0  0  0  0  0  0  0
   -2.0800   -1.1897    0.0011 H   0  0  0  0  0  0  0  0  0  0  0  0
   -0.0032   -1.3935   -0.0005 C   0  0  0  0  0  0  0  0  0  0  0  0
   -0.0044   -2.3928   -0.0019 H   0  0  0  0  0  0  0  0  0  0  0  0
    1.2014   -0.6965   -0.0000 C   0  0  0  0  0  0  0  0  0  0  0  0
    2.0809   -1.1983    0.0020 H   0  0  0  0  0  0  0  0  0  0  0  0
    1.1985    0.6897   -0.0009 C   0  0  0  0  0  0  0  0  0  0  0  0
    2.0670    1.1876   -0.0030 H   0  0  0  0  0  0  0  0  0  0  0  0
  1  5  1  0
  5  8  1  0
  1  2  1  0
  1  3  1  0
  1  4  1  0
  5  6  1  0
  5  7  1  0
  8  9  1  0
  8 10  1  0
  8 11  1  0
 12 16  1  0
 16 17  2  0
 17 19  1  0
 19 21  2  0
 21 23  1  0
 23 25  2  0
 25 16  1  0
 12 13  1  0
 12 14  1  0
 12 15  1  0
 17 18  1  0
 19 20  1  0
 21 22  1  0
 23 24  1  0
 25 26  1  0
M  CHG  1   8   1
M  END
>  <PDB_ID>  (976) 
pdb1ogs

>  <RESIDUE_NAME>  (976) 
LYS   PHE

>  <FRAG_NAME>  (976) 
ETAM   MBZ

>  <FRAG_ATOM_NUM>  (976) 
fragi: 11  fragj: 15

>  <atom.prop.CHAIN_ID>  (976) 
A A A A A A A A A A A Z Z Z Z Z Z Z Z Z Z Z Z Z Z Z

>  <atom.prop.IS_HEAVY_ATOM>  (976) 
1 0 0 0 1 0 0 1 0 0 0 1 0 0 0 1 1 0 1 0 1 0 1 0 1 0

>  <DIFUSE_FUNC_ATOM>  (976) 
n/a

>  <FINAL_SINGLE_POINT_ENERGY>  (976) 
0

>  <NONCOV_INTER_ENERGY_QM>  (976) 
0

>  <FF_Energy>  (976) 
-3.85

>  <QM_Energy>  (976) 
-8.94

>  <source>  (976) 
ETAM_MBZ

>  <Index>  (976) 
9645

$$$$
ETAM-pdb2v73-B-LYS-148:MBZ-pdb2v73-B-PHE-145
     RDKit          3D

 26 25  0  0  0  0  0  0  0  0999 V2000
   -0.1615    1.4575    4.6420 C   0  0  0  0  0  0  0  0  0  0  0  0
    0.1525    1.6553    5.5719 H   0  0  0  0  0  0  0  0  0  0  0  0
   -1.1413    1.2532    4.6588 H   0  0  0  0  0  0  0  0  0  0  0  0
   -0.0018    2.3434    4.0273 H   0  0  0  0  0  0  0  0  0  0  0  0
    0.5807    0.2232    4.1327 C   0  0  0  0  0  0  0  0  0  0  0  0
    1.4171    0.5260    3.6546 H   0  0  0  0  0  0  0  0  0  0  0  0
    0.8608   -0.3337    4.9265 H   0  0  0  0  0  0  0  0  0  0  0  0
   -0.2312   -0.6149    3.2115 N   0  0  0  0  0  4  0  0  0  0  0  0
    0.0583   -1.5689    3.2885 H   0  0  0  0  0  0  0  0  0  0  0  0
   -1.1979   -0.5381    3.4566 H   0  0  0  0  0  0  0  0  0  0  0  0
   -0.0982   -0.3002    2.2719 H   0  0  0  0  0  0  0  0  0  0  0  0
   -0.0007    2.8992   -0.0030 C   0  0  0  0  0  0  0  0  0  0  0  0
    0.8714    3.2095    0.3439 H   0  0  0  0  0  0  0  0  0  0  0  0
   -0.7476    3.2123    0.5636 H   0  0  0  0  0  0  0  0  0  0  0  0
   -0.1347    3.3322   -0.9944 H   0  0  0  0  0  0  0  0  0  0  0  0
   -0.0024    1.4030    0.0038 C   0  0  0  0  0  0  0  0  0  0  0  0
   -1.1974    0.6985    0.0006 C   0  0  0  0  0  0  0  0  0  0  0  0
   -2.0651    1.1861   -0.0026 H   0  0  0  0  0  0  0  0  0  0  0  0
   -1.2011   -0.6950    0.0000 C   0  0  0  0  0  0  0  0  0  0  0  0
   -2.0758   -1.1904    0.0043 H   0  0  0  0  0  0  0  0  0  0  0  0
    0.0059   -1.3969   -0.0042 C   0  0  0  0  0  0  0  0  0  0  0  0
   -0.0058   -2.3946   -0.0108 H   0  0  0  0  0  0  0  0  0  0  0  0
    1.2011   -0.7042    0.0000 C   0  0  0  0  0  0  0  0  0  0  0  0
    2.0857   -1.1943    0.0045 H   0  0  0  0  0  0  0  0  0  0  0  0
    1.1940    0.6947   -0.0003 C   0  0  0  0  0  0  0  0  0  0  0  0
    2.0626    1.1880   -0.0043 H   0  0  0  0  0  0  0  0  0  0  0  0
  1  5  1  0
  5  8  1  0
  1  2  1  0
  1  3  1  0
  1  4  1  0
  5  6  1  0
  5  7  1  0
  8  9  1  0
  8 10  1  0
  8 11  1  0
 12 16  1  0
 16 17  2  0
 17 19  1  0
 19 21  2  0
 21 23  1  0
 23 25  2  0
 25 16  1  0
 12 13  1  0
 12 14  1  0
 12 15  1  0
 17 18  1  0
 19 20  1  0
 21 22  1  0
 23 24  1  0
 25 26  1  0
M  CHG  1   8   1
M  END
>  <PDB_ID>  (977) 
pdb2v73

>  <RESIDUE_NAME>  (977) 
LYS   PHE

>  <FRAG_NAME>  (977) 
ETAM   MBZ

>  <FRAG_ATOM_NUM>  (977) 
fragi: 11  fragj: 15

>  <atom.prop.CHAIN_ID>  (977) 
A A A A A A A A A A A Z Z Z Z Z Z Z Z Z Z Z Z Z Z Z

>  <atom.prop.IS_HEAVY_ATOM>  (977) 
1 0 0 0 1 0 0 1 0 0 0 1 0 0 0 1 1 0 1 0 1 0 1 0 1 0

>  <DIFUSE_FUNC_ATOM>  (977) 
n/a

>  <FINAL_SINGLE_POINT_ENERGY>  (977) 
0

>  <NONCOV_INTER_ENERGY_QM>  (977) 
0

>  <FF_Energy>  (977) 
-9.4

>  <QM_Energy>  (977) 
-16.93

>  <source>  (977) 
ETAM_MBZ

>  <Index>  (977) 
9686

$$$$
ETAM-pdb2v5m-A-GLN-1:MBZ-pdb2v5m-A-PHE-88
     RDKit          3D

 26 25  0  0  0  0  0  0  0  0999 V2000
    3.0769   -4.0180    4.4750 C   0  0  0  0  0  0  0  0  0  0  0  0
    3.0295   -4.9714    4.1902 H   0  0  0  0  0  0  0  0  0  0  0  0
    3.9400   -3.6153    4.1820 H   0  0  0  0  0  0  0  0  0  0  0  0
    3.0354   -3.9832    5.5636 H   0  0  0  0  0  0  0  0  0  0  0  0
    1.9271   -3.2498    3.8179 C   0  0  0  0  0  0  0  0  0  0  0  0
    1.0728   -3.6895    4.0459 H   0  0  0  0  0  0  0  0  0  0  0  0
    1.8908   -2.2235    4.1831 H   0  0  0  0  0  0  0  0  0  0  0  0
    2.0128   -3.1779    2.3327 N   0  0  0  0  0  4  0  0  0  0  0  0
    2.5670   -3.9371    1.9995 H   0  0  0  0  0  0  0  0  0  0  0  0
    1.0946   -3.2362    1.9485 H   0  0  0  0  0  0  0  0  0  0  0  0
    2.4339   -2.3132    2.0704 H   0  0  0  0  0  0  0  0  0  0  0  0
   -0.0074    2.9040   -0.1015 C   0  0  0  0  0  0  0  0  0  0  0  0
    0.8904    3.2271    0.1189 H   0  0  0  0  0  0  0  0  0  0  0  0
   -0.6973    3.2547    0.4996 H   0  0  0  0  0  0  0  0  0  0  0  0
   -0.2439    3.2370   -1.1121 H   0  0  0  0  0  0  0  0  0  0  0  0
   -0.0092    1.4096   -0.0019 C   0  0  0  0  0  0  0  0  0  0  0  0
   -1.1943    0.6736   -0.0115 C   0  0  0  0  0  0  0  0  0  0  0  0
   -2.0743    1.1476   -0.0276 H   0  0  0  0  0  0  0  0  0  0  0  0
   -1.2020   -0.7454    0.0000 C   0  0  0  0  0  0  0  0  0  0  0  0
   -2.0692   -1.2279   -0.0113 H   0  0  0  0  0  0  0  0  0  0  0  0
    0.0109   -1.4151    0.0285 C   0  0  0  0  0  0  0  0  0  0  0  0
    0.0502   -2.3998    0.0675 H   0  0  0  0  0  0  0  0  0  0  0  0
    1.2020   -0.6575    0.0000 C   0  0  0  0  0  0  0  0  0  0  0  0
    2.0991   -1.1493   -0.0081 H   0  0  0  0  0  0  0  0  0  0  0  0
    1.1926    0.7349   -0.0150 C   0  0  0  0  0  0  0  0  0  0  0  0
    2.0518    1.2334   -0.0361 H   0  0  0  0  0  0  0  0  0  0  0  0
  1  5  1  0
  5  8  1  0
  1  2  1  0
  1  3  1  0
  1  4  1  0
  5  6  1  0
  5  7  1  0
  8  9  1  0
  8 10  1  0
  8 11  1  0
 12 16  1  0
 16 17  2  0
 17 19  1  0
 19 21  2  0
 21 23  1  0
 23 25  2  0
 25 16  1  0
 12 13  1  0
 12 14  1  0
 12 15  1  0
 17 18  1  0
 19 20  1  0
 21 22  1  0
 23 24  1  0
 25 26  1  0
M  CHG  1   8   1
M  END
>  <PDB_ID>  (978) 
pdb2v5m

>  <RESIDUE_NAME>  (978) 
GLN   PHE

>  <FRAG_NAME>  (978) 
ETAM   MBZ

>  <FRAG_ATOM_NUM>  (978) 
fragi: 11  fragj: 15

>  <atom.prop.CHAIN_ID>  (978) 
A A A A A A A A A A A Z Z Z Z Z Z Z Z Z Z Z Z Z Z Z

>  <atom.prop.IS_HEAVY_ATOM>  (978) 
1 0 0 0 1 0 0 1 0 0 0 1 0 0 0 1 1 0 1 0 1 0 1 0 1 0

>  <DIFUSE_FUNC_ATOM>  (978) 
n/a

>  <FINAL_SINGLE_POINT_ENERGY>  (978) 
0

>  <NONCOV_INTER_ENERGY_QM>  (978) 
0

>  <FF_Energy>  (978) 
-0.78

>  <QM_Energy>  (978) 
-7.12

>  <source>  (978) 
ETAM_MBZ

>  <Index>  (978) 
9689

$$$$
ETAM-pdb2v95-A-LYS-151:MBZ-pdb2v95-A-PHE-172
     RDKit          3D

 26 25  0  0  0  0  0  0  0  0999 V2000
   -0.0790   -1.9848   -3.9775 C   0  0  0  0  0  0  0  0  0  0  0  0
    0.0264   -1.8232   -4.9531 H   0  0  0  0  0  0  0  0  0  0  0  0
    0.6855   -1.5925   -3.4771 H   0  0  0  0  0  0  0  0  0  0  0  0
   -1.0098   -1.5336   -3.6338 H   0  0  0  0  0  0  0  0  0  0  0  0
   -0.0517   -3.5223   -3.7487 C   0  0  0  0  0  0  0  0  0  0  0  0
   -0.8400   -3.9221   -4.2324 H   0  0  0  0  0  0  0  0  0  0  0  0
    0.7913   -3.8839   -4.1662 H   0  0  0  0  0  0  0  0  0  0  0  0
   -0.1010   -3.9166   -2.3085 N   0  0  0  0  0  4  0  0  0  0  0  0
    0.1330   -3.1272   -1.7438 H   0  0  0  0  0  0  0  0  0  0  0  0
   -1.0229   -4.2294   -2.0847 H   0  0  0  0  0  0  0  0  0  0  0  0
    0.5538   -4.6531   -2.1471 H   0  0  0  0  0  0  0  0  0  0  0  0
    0.0073    2.8890    0.0460 C   0  0  0  0  0  0  0  0  0  0  0  0
   -0.7008    3.2153   -0.5657 H   0  0  0  0  0  0  0  0  0  0  0  0
    0.9013    3.1950   -0.2523 H   0  0  0  0  0  0  0  0  0  0  0  0
   -0.1815    3.2939    1.0402 H   0  0  0  0  0  0  0  0  0  0  0  0
   -0.0028    1.3967    0.0005 C   0  0  0  0  0  0  0  0  0  0  0  0
   -1.1999    0.6958    0.0118 C   0  0  0  0  0  0  0  0  0  0  0  0
   -2.0636    1.1852    0.0268 H   0  0  0  0  0  0  0  0  0  0  0  0
   -1.1939   -0.6877   -0.0000 C   0  0  0  0  0  0  0  0  0  0  0  0
   -2.0691   -1.1902    0.0007 H   0  0  0  0  0  0  0  0  0  0  0  0
    0.0095   -1.3829   -0.0104 C   0  0  0  0  0  0  0  0  0  0  0  0
   -0.0059   -2.3865   -0.0257 H   0  0  0  0  0  0  0  0  0  0  0  0
    1.1939   -0.7016    0.0000 C   0  0  0  0  0  0  0  0  0  0  0  0
    2.0803   -1.1993    0.0102 H   0  0  0  0  0  0  0  0  0  0  0  0
    1.1931    0.6796   -0.0019 C   0  0  0  0  0  0  0  0  0  0  0  0
    2.0619    1.1788   -0.0063 H   0  0  0  0  0  0  0  0  0  0  0  0
  1  5  1  0
  5  8  1  0
  1  2  1  0
  1  3  1  0
  1  4  1  0
  5  6  1  0
  5  7  1  0
  8  9  1  0
  8 10  1  0
  8 11  1  0
 12 16  1  0
 16 17  2  0
 17 19  1  0
 19 21  2  0
 21 23  1  0
 23 25  2  0
 25 16  1  0
 12 13  1  0
 12 14  1  0
 12 15  1  0
 17 18  1  0
 19 20  1  0
 21 22  1  0
 23 24  1  0
 25 26  1  0
M  CHG  1   8   1
M  END
>  <PDB_ID>  (979) 
pdb2v95

>  <RESIDUE_NAME>  (979) 
LYS   PHE

>  <FRAG_NAME>  (979) 
ETAM   MBZ

>  <FRAG_ATOM_NUM>  (979) 
fragi: 11  fragj: 15

>  <atom.prop.CHAIN_ID>  (979) 
A A A A A A A A A A A Z Z Z Z Z Z Z Z Z Z Z Z Z Z Z

>  <atom.prop.IS_HEAVY_ATOM>  (979) 
1 0 0 0 1 0 0 1 0 0 0 1 0 0 0 1 1 0 1 0 1 0 1 0 1 0

>  <DIFUSE_FUNC_ATOM>  (979) 
n/a

>  <FINAL_SINGLE_POINT_ENERGY>  (979) 
0

>  <NONCOV_INTER_ENERGY_QM>  (979) 
0

>  <FF_Energy>  (979) 
-1.03

>  <QM_Energy>  (979) 
-7.56

>  <source>  (979) 
ETAM_MBZ

>  <Index>  (979) 
9710

$$$$
ETAM-pdb1osc-B-LYS-34:MBZ-pdb1osc-B-PHE-79
     RDKit          3D

 26 25  0  0  0  0  0  0  0  0999 V2000
   -1.5117   -0.3153   -4.0276 C   0  0  0  0  0  0  0  0  0  0  0  0
   -0.9572    0.3653   -3.5948 H   0  0  0  0  0  0  0  0  0  0  0  0
   -2.3272    0.0523   -4.4264 H   0  0  0  0  0  0  0  0  0  0  0  0
   -0.9238   -0.7749   -4.8221 H   0  0  0  0  0  0  0  0  0  0  0  0
   -1.8876   -1.3855   -3.0055 C   0  0  0  0  0  0  0  0  0  0  0  0
   -1.2060   -2.1471   -3.0503 H   0  0  0  0  0  0  0  0  0  0  0  0
   -1.8065   -0.9939   -2.0632 H   0  0  0  0  0  0  0  0  0  0  0  0
   -3.2949   -2.0264   -3.1118 N   0  0  0  0  0  4  0  0  0  0  0  0
   -3.2311   -2.9514   -2.7652 H   0  0  0  0  0  0  0  0  0  0  0  0
   -3.9158   -1.4816   -2.5658 H   0  0  0  0  0  0  0  0  0  0  0  0
   -3.5577   -2.0197   -4.0665 H   0  0  0  0  0  0  0  0  0  0  0  0
   -0.0012    2.9327    0.1403 C   0  0  0  0  0  0  0  0  0  0  0  0
   -0.6224    3.2933   -0.5306 H   0  0  0  0  0  0  0  0  0  0  0  0
    0.9162    3.2636    0.0156 H   0  0  0  0  0  0  0  0  0  0  0  0
   -0.3438    3.2547    1.1237 H   0  0  0  0  0  0  0  0  0  0  0  0
    0.0182    1.4395    0.0046 C   0  0  0  0  0  0  0  0  0  0  0  0
   -1.2274    0.7015    0.0472 C   0  0  0  0  0  0  0  0  0  0  0  0
   -2.0731    1.1792    0.1062 H   0  0  0  0  0  0  0  0  0  0  0  0
   -1.2139   -0.7339    0.0000 C   0  0  0  0  0  0  0  0  0  0  0  0
   -2.0820   -1.2205    0.0166 H   0  0  0  0  0  0  0  0  0  0  0  0
    0.0047   -1.4125   -0.0658 C   0  0  0  0  0  0  0  0  0  0  0  0
    0.0024   -2.4144   -0.1628 H   0  0  0  0  0  0  0  0  0  0  0  0
    1.2139   -0.7272   -0.0000 C   0  0  0  0  0  0  0  0  0  0  0  0
    2.0930   -1.1925    0.0395 H   0  0  0  0  0  0  0  0  0  0  0  0
    1.2045    0.7326    0.0139 C   0  0  0  0  0  0  0  0  0  0  0  0
    2.0839    1.1934    0.0293 H   0  0  0  0  0  0  0  0  0  0  0  0
  1  5  1  0
  5  8  1  0
  1  2  1  0
  1  3  1  0
  1  4  1  0
  5  6  1  0
  5  7  1  0
  8  9  1  0
  8 10  1  0
  8 11  1  0
 12 16  1  0
 16 17  2  0
 17 19  1  0
 19 21  2  0
 21 23  1  0
 23 25  2  0
 25 16  1  0
 12 13  1  0
 12 14  1  0
 12 15  1  0
 17 18  1  0
 19 20  1  0
 21 22  1  0
 23 24  1  0
 25 26  1  0
M  CHG  1   8   1
M  END
>  <PDB_ID>  (980) 
pdb1osc

>  <RESIDUE_NAME>  (980) 
LYS   PHE

>  <FRAG_NAME>  (980) 
ETAM   MBZ

>  <FRAG_ATOM_NUM>  (980) 
fragi: 11  fragj: 15

>  <atom.prop.CHAIN_ID>  (980) 
A A A A A A A A A A A Z Z Z Z Z Z Z Z Z Z Z Z Z Z Z

>  <atom.prop.IS_HEAVY_ATOM>  (980) 
1 0 0 0 1 0 0 1 0 0 0 1 0 0 0 1 1 0 1 0 1 0 1 0 1 0

>  <DIFUSE_FUNC_ATOM>  (980) 
n/a

>  <FINAL_SINGLE_POINT_ENERGY>  (980) 
0

>  <NONCOV_INTER_ENERGY_QM>  (980) 
0

>  <FF_Energy>  (980) 
5.79

>  <QM_Energy>  (980) 
-4.83

>  <source>  (980) 
ETAM_MBZ

>  <Index>  (980) 
9724

$$$$
ETAM-pdb1osc-E-LYS-34:MBZ-pdb1osc-E-PHE-79
     RDKit          3D

 26 25  0  0  0  0  0  0  0  0999 V2000
   -1.5825   -0.2966   -3.9401 C   0  0  0  0  0  0  0  0  0  0  0  0
   -0.6637   -0.1304   -3.6059 H   0  0  0  0  0  0  0  0  0  0  0  0
   -2.0581    0.5571   -4.1065 H   0  0  0  0  0  0  0  0  0  0  0  0
   -1.5164   -0.8470   -4.8785 H   0  0  0  0  0  0  0  0  0  0  0  0
   -2.3361   -1.0997   -2.9463 C   0  0  0  0  0  0  0  0  0  0  0  0
   -2.2576   -2.0569   -3.1349 H   0  0  0  0  0  0  0  0  0  0  0  0
   -2.0740   -0.8665   -2.0326 H   0  0  0  0  0  0  0  0  0  0  0  0
   -3.8124   -0.7072   -3.1227 N   0  0  0  0  0  4  0  0  0  0  0  0
   -3.9467   -0.4365   -4.0671 H   0  0  0  0  0  0  0  0  0  0  0  0
   -4.3690   -1.4973   -2.8988 H   0  0  0  0  0  0  0  0  0  0  0  0
   -4.0057    0.0464   -2.5078 H   0  0  0  0  0  0  0  0  0  0  0  0
    0.0048    2.8927    0.0267 C   0  0  0  0  0  0  0  0  0  0  0  0
   -0.7375    3.1902   -0.5601 H   0  0  0  0  0  0  0  0  0  0  0  0
    0.8806    3.1798   -0.3410 H   0  0  0  0  0  0  0  0  0  0  0  0
   -0.1273    3.3158    1.0225 H   0  0  0  0  0  0  0  0  0  0  0  0
   -0.0039    1.3894    0.0208 C   0  0  0  0  0  0  0  0  0  0  0  0
   -1.2107    0.7029    0.0295 C   0  0  0  0  0  0  0  0  0  0  0  0
   -2.0662    1.2100    0.0562 H   0  0  0  0  0  0  0  0  0  0  0  0
   -1.2245   -0.6675   -0.0000 C   0  0  0  0  0  0  0  0  0  0  0  0
   -2.0771   -1.1864   -0.0100 H   0  0  0  0  0  0  0  0  0  0  0  0
    0.0291   -1.4021   -0.0150 C   0  0  0  0  0  0  0  0  0  0  0  0
   -0.0031   -2.3839   -0.0360 H   0  0  0  0  0  0  0  0  0  0  0  0
    1.2245   -0.6954    0.0000 C   0  0  0  0  0  0  0  0  0  0  0  0
    2.1052   -1.1850    0.0380 H   0  0  0  0  0  0  0  0  0  0  0  0
    1.1855    0.6728   -0.0352 C   0  0  0  0  0  0  0  0  0  0  0  0
    2.0556    1.1922   -0.1060 H   0  0  0  0  0  0  0  0  0  0  0  0
  1  5  1  0
  5  8  1  0
  1  2  1  0
  1  3  1  0
  1  4  1  0
  5  6  1  0
  5  7  1  0
  8  9  1  0
  8 10  1  0
  8 11  1  0
 12 16  1  0
 16 17  2  0
 17 19  1  0
 19 21  2  0
 21 23  1  0
 23 25  2  0
 25 16  1  0
 12 13  1  0
 12 14  1  0
 12 15  1  0
 17 18  1  0
 19 20  1  0
 21 22  1  0
 23 24  1  0
 25 26  1  0
M  CHG  1   8   1
M  END
>  <PDB_ID>  (981) 
pdb1osc

>  <RESIDUE_NAME>  (981) 
LYS   PHE

>  <FRAG_NAME>  (981) 
ETAM   MBZ

>  <FRAG_ATOM_NUM>  (981) 
fragi: 11  fragj: 15

>  <atom.prop.CHAIN_ID>  (981) 
A A A A A A A A A A A Z Z Z Z Z Z Z Z Z Z Z Z Z Z Z

>  <atom.prop.IS_HEAVY_ATOM>  (981) 
1 0 0 0 1 0 0 1 0 0 0 1 0 0 0 1 1 0 1 0 1 0 1 0 1 0

>  <DIFUSE_FUNC_ATOM>  (981) 
n/a

>  <FINAL_SINGLE_POINT_ENERGY>  (981) 
0

>  <NONCOV_INTER_ENERGY_QM>  (981) 
0

>  <FF_Energy>  (981) 
3.95

>  <QM_Energy>  (981) 
-4.86

>  <source>  (981) 
ETAM_MBZ

>  <Index>  (981) 
9726

$$$$
ETAM-pdb1opa-B-LYS-31:MBZ-pdb1opa-B-PHE-27
     RDKit          3D

 26 25  0  0  0  0  0  0  0  0999 V2000
    0.1236   -0.6617    3.6479 C   0  0  0  0  0  0  0  0  0  0  0  0
    0.3890    0.2812    3.3706 H   0  0  0  0  0  0  0  0  0  0  0  0
    0.1693   -1.2370    2.8097 H   0  0  0  0  0  0  0  0  0  0  0  0
    0.8629   -1.0305    4.3589 H   0  0  0  0  0  0  0  0  0  0  0  0
   -1.3275   -0.6244    4.1155 C   0  0  0  0  0  0  0  0  0  0  0  0
   -1.7080   -1.5477    4.0620 H   0  0  0  0  0  0  0  0  0  0  0  0
   -1.3537   -0.3087    5.0646 H   0  0  0  0  0  0  0  0  0  0  0  0
   -2.1415    0.2924    3.2698 N   0  0  0  0  0  4  0  0  0  0  0  0
   -1.5698    0.6623    2.5382 H   0  0  0  0  0  0  0  0  0  0  0  0
   -2.9070   -0.2141    2.8742 H   0  0  0  0  0  0  0  0  0  0  0  0
   -2.4904    1.0398    3.8333 H   0  0  0  0  0  0  0  0  0  0  0  0
    0.0161    2.8818   -0.0353 C   0  0  0  0  0  0  0  0  0  0  0  0
   -0.7401    3.1826   -0.6323 H   0  0  0  0  0  0  0  0  0  0  0  0
    0.8840    3.1719   -0.4594 H   0  0  0  0  0  0  0  0  0  0  0  0
   -0.0802    3.4237    0.9055 H   0  0  0  0  0  0  0  0  0  0  0  0
    0.0027    1.3853   -0.0005 C   0  0  0  0  0  0  0  0  0  0  0  0
   -1.2038    0.6993    0.0015 C   0  0  0  0  0  0  0  0  0  0  0  0
   -2.0595    1.1961    0.0026 H   0  0  0  0  0  0  0  0  0  0  0  0
   -1.2045   -0.6807   -0.0000 C   0  0  0  0  0  0  0  0  0  0  0  0
   -2.0810   -1.1813    0.0009 H   0  0  0  0  0  0  0  0  0  0  0  0
   -0.0028   -1.3795   -0.0014 C   0  0  0  0  0  0  0  0  0  0  0  0
   -0.0169   -2.3834   -0.0041 H   0  0  0  0  0  0  0  0  0  0  0  0
    1.2045   -0.7023    0.0000 C   0  0  0  0  0  0  0  0  0  0  0  0
    2.0783   -1.2088    0.0018 H   0  0  0  0  0  0  0  0  0  0  0  0
    1.2039    0.6780    0.0004 C   0  0  0  0  0  0  0  0  0  0  0  0
    2.0681    1.1791    0.0000 H   0  0  0  0  0  0  0  0  0  0  0  0
  1  5  1  0
  5  8  1  0
  1  2  1  0
  1  3  1  0
  1  4  1  0
  5  6  1  0
  5  7  1  0
  8  9  1  0
  8 10  1  0
  8 11  1  0
 12 16  1  0
 16 17  2  0
 17 19  1  0
 19 21  2  0
 21 23  1  0
 23 25  2  0
 25 16  1  0
 12 13  1  0
 12 14  1  0
 12 15  1  0
 17 18  1  0
 19 20  1  0
 21 22  1  0
 23 24  1  0
 25 26  1  0
M  CHG  1   8   1
M  END
>  <PDB_ID>  (982) 
pdb1opa

>  <RESIDUE_NAME>  (982) 
LYS   PHE

>  <FRAG_NAME>  (982) 
ETAM   MBZ

>  <FRAG_ATOM_NUM>  (982) 
fragi: 11  fragj: 15

>  <atom.prop.CHAIN_ID>  (982) 
A A A A A A A A A A A Z Z Z Z Z Z Z Z Z Z Z Z Z Z Z

>  <atom.prop.IS_HEAVY_ATOM>  (982) 
1 0 0 0 1 0 0 1 0 0 0 1 0 0 0 1 1 0 1 0 1 0 1 0 1 0

>  <DIFUSE_FUNC_ATOM>  (982) 
n/a

>  <FINAL_SINGLE_POINT_ENERGY>  (982) 
0

>  <NONCOV_INTER_ENERGY_QM>  (982) 
0

>  <FF_Energy>  (982) 
-6.43

>  <QM_Energy>  (982) 
-12.58

>  <source>  (982) 
ETAM_MBZ

>  <Index>  (982) 
9746

$$$$
ETAM-pdb2va1-A-LYS-229:MBZ-pdb2va1-A-PHE-177
     RDKit          3D

 26 25  0  0  0  0  0  0  0  0999 V2000
   -0.4948   -1.5940   -4.6427 C   0  0  0  0  0  0  0  0  0  0  0  0
   -0.1384   -1.2491   -5.5056 H   0  0  0  0  0  0  0  0  0  0  0  0
   -1.4865   -1.6618   -4.6803 H   0  0  0  0  0  0  0  0  0  0  0  0
   -0.0814   -2.5867   -4.4644 H   0  0  0  0  0  0  0  0  0  0  0  0
   -0.1163   -0.6158   -3.5352 C   0  0  0  0  0  0  0  0  0  0  0  0
   -0.0763   -1.1153   -2.6621 H   0  0  0  0  0  0  0  0  0  0  0  0
    0.7991   -0.2452   -3.7299 H   0  0  0  0  0  0  0  0  0  0  0  0
   -1.0825    0.5121   -3.4086 N   0  0  0  0  0  4  0  0  0  0  0  0
   -0.5849    1.3784   -3.4354 H   0  0  0  0  0  0  0  0  0  0  0  0
   -1.7341    0.4755   -4.1654 H   0  0  0  0  0  0  0  0  0  0  0  0
   -1.5710    0.4325   -2.5411 H   0  0  0  0  0  0  0  0  0  0  0  0
    0.0030    2.9104    0.0040 C   0  0  0  0  0  0  0  0  0  0  0  0
   -0.7547    3.2184   -0.5505 H   0  0  0  0  0  0  0  0  0  0  0  0
    0.8680    3.2161   -0.3635 H   0  0  0  0  0  0  0  0  0  0  0  0
   -0.1108    3.3491    0.9953 H   0  0  0  0  0  0  0  0  0  0  0  0
    0.0007    1.4045    0.0008 C   0  0  0  0  0  0  0  0  0  0  0  0
   -1.1973    0.6955    0.0007 C   0  0  0  0  0  0  0  0  0  0  0  0
   -2.0637    1.1853   -0.0006 H   0  0  0  0  0  0  0  0  0  0  0  0
   -1.2035   -0.6979    0.0000 C   0  0  0  0  0  0  0  0  0  0  0  0
   -2.0805   -1.1895    0.0001 H   0  0  0  0  0  0  0  0  0  0  0  0
   -0.0017   -1.3958    0.0013 C   0  0  0  0  0  0  0  0  0  0  0  0
   -0.0062   -2.3947    0.0029 H   0  0  0  0  0  0  0  0  0  0  0  0
    1.2035   -0.7001   -0.0000 C   0  0  0  0  0  0  0  0  0  0  0  0
    2.0820   -1.1974    0.0026 H   0  0  0  0  0  0  0  0  0  0  0  0
    1.1983    0.6938   -0.0028 C   0  0  0  0  0  0  0  0  0  0  0  0
    2.0664    1.1899   -0.0081 H   0  0  0  0  0  0  0  0  0  0  0  0
  1  5  1  0
  5  8  1  0
  1  2  1  0
  1  3  1  0
  1  4  1  0
  5  6  1  0
  5  7  1  0
  8  9  1  0
  8 10  1  0
  8 11  1  0
 12 16  1  0
 16 17  2  0
 17 19  1  0
 19 21  2  0
 21 23  1  0
 23 25  2  0
 25 16  1  0
 12 13  1  0
 12 14  1  0
 12 15  1  0
 17 18  1  0
 19 20  1  0
 21 22  1  0
 23 24  1  0
 25 26  1  0
M  CHG  1   8   1
M  END
>  <PDB_ID>  (983) 
pdb2va1

>  <RESIDUE_NAME>  (983) 
LYS   PHE

>  <FRAG_NAME>  (983) 
ETAM   MBZ

>  <FRAG_ATOM_NUM>  (983) 
fragi: 11  fragj: 15

>  <atom.prop.CHAIN_ID>  (983) 
A A A A A A A A A A A Z Z Z Z Z Z Z Z Z Z Z Z Z Z Z

>  <atom.prop.IS_HEAVY_ATOM>  (983) 
1 0 0 0 1 0 0 1 0 0 0 1 0 0 0 1 1 0 1 0 1 0 1 0 1 0

>  <DIFUSE_FUNC_ATOM>  (983) 
n/a

>  <FINAL_SINGLE_POINT_ENERGY>  (983) 
0

>  <NONCOV_INTER_ENERGY_QM>  (983) 
0

>  <FF_Energy>  (983) 
-7.45

>  <QM_Energy>  (983) 
-13.95

>  <source>  (983) 
ETAM_MBZ

>  <Index>  (983) 
9756

$$$$
ETAM-pdb2vc6-A-LYS-253:MBZ-pdb2vc6-A-PHE-13
     RDKit          3D

 26 25  0  0  0  0  0  0  0  0999 V2000
   -4.9867    0.7718    3.6033 C   0  0  0  0  0  0  0  0  0  0  0  0
   -5.4292    0.1835    2.9344 H   0  0  0  0  0  0  0  0  0  0  0  0
   -5.0298    1.7210    3.3094 H   0  0  0  0  0  0  0  0  0  0  0  0
   -5.5075    0.6740    4.5558 H   0  0  0  0  0  0  0  0  0  0  0  0
   -3.5230    0.3642    3.7163 C   0  0  0  0  0  0  0  0  0  0  0  0
   -3.0569    1.0071    4.3338 H   0  0  0  0  0  0  0  0  0  0  0  0
   -3.4748   -0.5560    4.1198 H   0  0  0  0  0  0  0  0  0  0  0  0
   -2.8393    0.3603    2.4035 N   0  0  0  0  0  4  0  0  0  0  0  0
   -1.8804    0.1005    2.5248 H   0  0  0  0  0  0  0  0  0  0  0  0
   -3.2864   -0.2965    1.7944 H   0  0  0  0  0  0  0  0  0  0  0  0
   -2.8860    1.2739    1.9980 H   0  0  0  0  0  0  0  0  0  0  0  0
   -0.0086    2.9116    0.0024 C   0  0  0  0  0  0  0  0  0  0  0  0
   -0.9449    3.2121    0.1120 H   0  0  0  0  0  0  0  0  0  0  0  0
    0.3688    3.2215   -0.8588 H   0  0  0  0  0  0  0  0  0  0  0  0
    0.5785    3.3646    0.8013 H   0  0  0  0  0  0  0  0  0  0  0  0
    0.0001    1.4034    0.0004 C   0  0  0  0  0  0  0  0  0  0  0  0
   -1.1982    0.6924   -0.0016 C   0  0  0  0  0  0  0  0  0  0  0  0
   -2.0648    1.1853   -0.0059 H   0  0  0  0  0  0  0  0  0  0  0  0
   -1.2047   -0.6965    0.0000 C   0  0  0  0  0  0  0  0  0  0  0  0
   -2.0798   -1.1917    0.0017 H   0  0  0  0  0  0  0  0  0  0  0  0
   -0.0003   -1.3953    0.0013 C   0  0  0  0  0  0  0  0  0  0  0  0
   -0.0060   -2.3930    0.0025 H   0  0  0  0  0  0  0  0  0  0  0  0
    1.2047   -0.6995   -0.0000 C   0  0  0  0  0  0  0  0  0  0  0  0
    2.0842   -1.1958    0.0002 H   0  0  0  0  0  0  0  0  0  0  0  0
    1.1984    0.6954   -0.0002 C   0  0  0  0  0  0  0  0  0  0  0  0
    2.0660    1.1918   -0.0016 H   0  0  0  0  0  0  0  0  0  0  0  0
  1  5  1  0
  5  8  1  0
  1  2  1  0
  1  3  1  0
  1  4  1  0
  5  6  1  0
  5  7  1  0
  8  9  1  0
  8 10  1  0
  8 11  1  0
 12 16  1  0
 16 17  2  0
 17 19  1  0
 19 21  2  0
 21 23  1  0
 23 25  2  0
 25 16  1  0
 12 13  1  0
 12 14  1  0
 12 15  1  0
 17 18  1  0
 19 20  1  0
 21 22  1  0
 23 24  1  0
 25 26  1  0
M  CHG  1   8   1
M  END
>  <PDB_ID>  (984) 
pdb2vc6

>  <RESIDUE_NAME>  (984) 
LYS   PHE

>  <FRAG_NAME>  (984) 
ETAM   MBZ

>  <FRAG_ATOM_NUM>  (984) 
fragi: 11  fragj: 15

>  <atom.prop.CHAIN_ID>  (984) 
A A A A A A A A A A A Z Z Z Z Z Z Z Z Z Z Z Z Z Z Z

>  <atom.prop.IS_HEAVY_ATOM>  (984) 
1 0 0 0 1 0 0 1 0 0 0 1 0 0 0 1 1 0 1 0 1 0 1 0 1 0

>  <DIFUSE_FUNC_ATOM>  (984) 
n/a

>  <FINAL_SINGLE_POINT_ENERGY>  (984) 
0

>  <NONCOV_INTER_ENERGY_QM>  (984) 
0

>  <FF_Energy>  (984) 
-0.63

>  <QM_Energy>  (984) 
-8.22

>  <source>  (984) 
ETAM_MBZ

>  <Index>  (984) 
9758

$$$$
ETAM-pdb2vdu-B-LYS-150:MBZ-pdb2vdu-B-PHE-170
     RDKit          3D

 26 25  0  0  0  0  0  0  0  0999 V2000
   -1.2089    0.4703   -3.3567 C   0  0  0  0  0  0  0  0  0  0  0  0
   -1.4809    0.2578   -2.4225 H   0  0  0  0  0  0  0  0  0  0  0  0
   -1.6986   -0.1139   -3.9978 H   0  0  0  0  0  0  0  0  0  0  0  0
   -1.4566    1.5107   -3.5673 H   0  0  0  0  0  0  0  0  0  0  0  0
    0.2831    0.2014   -3.4990 C   0  0  0  0  0  0  0  0  0  0  0  0
    0.5557    0.3739   -4.4476 H   0  0  0  0  0  0  0  0  0  0  0  0
    0.7854    0.8228   -2.8949 H   0  0  0  0  0  0  0  0  0  0  0  0
    0.6239   -1.2088   -3.1415 N   0  0  0  0  0  4  0  0  0  0  0  0
    1.6060   -1.3479   -3.2547 H   0  0  0  0  0  0  0  0  0  0  0  0
    0.3662   -1.3785   -2.1918 H   0  0  0  0  0  0  0  0  0  0  0  0
    0.1242   -1.8304   -3.7429 H   0  0  0  0  0  0  0  0  0  0  0  0
   -0.0035    2.8980    0.0076 C   0  0  0  0  0  0  0  0  0  0  0  0
   -0.4718    3.2083   -0.8039 H   0  0  0  0  0  0  0  0  0  0  0  0
    0.9335    3.2083    0.0278 H   0  0  0  0  0  0  0  0  0  0  0  0
   -0.5141    3.3233    0.8716 H   0  0  0  0  0  0  0  0  0  0  0  0
    0.0009    1.3993   -0.0009 C   0  0  0  0  0  0  0  0  0  0  0  0
   -1.1985    0.6882    0.0009 C   0  0  0  0  0  0  0  0  0  0  0  0
   -2.0639    1.1811    0.0014 H   0  0  0  0  0  0  0  0  0  0  0  0
   -1.2014   -0.6984    0.0000 C   0  0  0  0  0  0  0  0  0  0  0  0
   -2.0769   -1.1944    0.0016 H   0  0  0  0  0  0  0  0  0  0  0  0
   -0.0003   -1.3909   -0.0011 C   0  0  0  0  0  0  0  0  0  0  0  0
   -0.0011   -2.3906   -0.0027 H   0  0  0  0  0  0  0  0  0  0  0  0
    1.2014   -0.6930   -0.0000 C   0  0  0  0  0  0  0  0  0  0  0  0
    2.0826   -1.1931    0.0012 H   0  0  0  0  0  0  0  0  0  0  0  0
    1.1979    0.6948    0.0011 C   0  0  0  0  0  0  0  0  0  0  0  0
    2.0646    1.1926    0.0026 H   0  0  0  0  0  0  0  0  0  0  0  0
  1  5  1  0
  5  8  1  0
  1  2  1  0
  1  3  1  0
  1  4  1  0
  5  6  1  0
  5  7  1  0
  8  9  1  0
  8 10  1  0
  8 11  1  0
 12 16  1  0
 16 17  2  0
 17 19  1  0
 19 21  2  0
 21 23  1  0
 23 25  2  0
 25 16  1  0
 12 13  1  0
 12 14  1  0
 12 15  1  0
 17 18  1  0
 19 20  1  0
 21 22  1  0
 23 24  1  0
 25 26  1  0
M  CHG  1   8   1
M  END
>  <PDB_ID>  (985) 
pdb2vdu

>  <RESIDUE_NAME>  (985) 
LYS   PHE

>  <FRAG_NAME>  (985) 
ETAM   MBZ

>  <FRAG_ATOM_NUM>  (985) 
fragi: 11  fragj: 15

>  <atom.prop.CHAIN_ID>  (985) 
A A A A A A A A A A A Z Z Z Z Z Z Z Z Z Z Z Z Z Z Z

>  <atom.prop.IS_HEAVY_ATOM>  (985) 
1 0 0 0 1 0 0 1 0 0 0 1 0 0 0 1 1 0 1 0 1 0 1 0 1 0

>  <DIFUSE_FUNC_ATOM>  (985) 
n/a

>  <FINAL_SINGLE_POINT_ENERGY>  (985) 
0

>  <NONCOV_INTER_ENERGY_QM>  (985) 
0

>  <FF_Energy>  (985) 
-6.72

>  <QM_Energy>  (985) 
-15.31

>  <source>  (985) 
ETAM_MBZ

>  <Index>  (985) 
9771

$$$$
ETAM-pdb2vdu-D-LYS-150:MBZ-pdb2vdu-D-PHE-170
     RDKit          3D

 26 25  0  0  0  0  0  0  0  0999 V2000
   -1.1458    0.4749   -3.3982 C   0  0  0  0  0  0  0  0  0  0  0  0
   -1.4554    0.2404   -2.4777 H   0  0  0  0  0  0  0  0  0  0  0  0
   -1.6044   -0.1076   -4.0669 H   0  0  0  0  0  0  0  0  0  0  0  0
   -1.4024    1.5147   -3.6011 H   0  0  0  0  0  0  0  0  0  0  0  0
    0.3473    0.2253   -3.4843 C   0  0  0  0  0  0  0  0  0  0  0  0
    0.6615    0.4240   -4.4133 H   0  0  0  0  0  0  0  0  0  0  0  0
    0.8197    0.8275   -2.8397 H   0  0  0  0  0  0  0  0  0  0  0  0
    0.6813   -1.1961   -3.1529 N   0  0  0  0  0  4  0  0  0  0  0  0
    0.2316   -1.4470   -2.2976 H   0  0  0  0  0  0  0  0  0  0  0  0
    0.3608   -1.7875   -3.8899 H   0  0  0  0  0  0  0  0  0  0  0  0
    1.6703   -1.2849   -3.0534 H   0  0  0  0  0  0  0  0  0  0  0  0
   -0.0055    2.8979    0.0144 C   0  0  0  0  0  0  0  0  0  0  0  0
   -0.4654    3.2122   -0.8003 H   0  0  0  0  0  0  0  0  0  0  0  0
    0.9307    3.2092    0.0472 H   0  0  0  0  0  0  0  0  0  0  0  0
   -0.5266    3.3187    0.8742 H   0  0  0  0  0  0  0  0  0  0  0  0
    0.0003    1.3982   -0.0012 C   0  0  0  0  0  0  0  0  0  0  0  0
   -1.1968    0.6871    0.0030 C   0  0  0  0  0  0  0  0  0  0  0  0
   -2.0633    1.1810    0.0071 H   0  0  0  0  0  0  0  0  0  0  0  0
   -1.2028   -0.6986    0.0000 C   0  0  0  0  0  0  0  0  0  0  0  0
   -2.0776   -1.1942    0.0007 H   0  0  0  0  0  0  0  0  0  0  0  0
   -0.0015   -1.3909   -0.0023 C   0  0  0  0  0  0  0  0  0  0  0  0
   -0.0012   -2.3902   -0.0063 H   0  0  0  0  0  0  0  0  0  0  0  0
    1.2028   -0.6927    0.0000 C   0  0  0  0  0  0  0  0  0  0  0  0
    2.0828   -1.1921    0.0033 H   0  0  0  0  0  0  0  0  0  0  0  0
    1.1980    0.6969    0.0005 C   0  0  0  0  0  0  0  0  0  0  0  0
    2.0643    1.1943    0.0010 H   0  0  0  0  0  0  0  0  0  0  0  0
  1  5  1  0
  5  8  1  0
  1  2  1  0
  1  3  1  0
  1  4  1  0
  5  6  1  0
  5  7  1  0
  8  9  1  0
  8 10  1  0
  8 11  1  0
 12 16  1  0
 16 17  2  0
 17 19  1  0
 19 21  2  0
 21 23  1  0
 23 25  2  0
 25 16  1  0
 12 13  1  0
 12 14  1  0
 12 15  1  0
 17 18  1  0
 19 20  1  0
 21 22  1  0
 23 24  1  0
 25 26  1  0
M  CHG  1   8   1
M  END
>  <PDB_ID>  (986) 
pdb2vdu

>  <RESIDUE_NAME>  (986) 
LYS   PHE

>  <FRAG_NAME>  (986) 
ETAM   MBZ

>  <FRAG_ATOM_NUM>  (986) 
fragi: 11  fragj: 15

>  <atom.prop.CHAIN_ID>  (986) 
A A A A A A A A A A A Z Z Z Z Z Z Z Z Z Z Z Z Z Z Z

>  <atom.prop.IS_HEAVY_ATOM>  (986) 
1 0 0 0 1 0 0 1 0 0 0 1 0 0 0 1 1 0 1 0 1 0 1 0 1 0

>  <DIFUSE_FUNC_ATOM>  (986) 
n/a

>  <FINAL_SINGLE_POINT_ENERGY>  (986) 
0

>  <NONCOV_INTER_ENERGY_QM>  (986) 
0

>  <FF_Energy>  (986) 
-6.88

>  <QM_Energy>  (986) 
-15.07

>  <source>  (986) 
ETAM_MBZ

>  <Index>  (986) 
9774

$$$$
ETAM-pdb2ve3-A-LYS-48:MBZ-pdb2ve3-A-PHE-18
     RDKit          3D

 26 25  0  0  0  0  0  0  0  0999 V2000
   -0.9828   -2.4234   -3.3284 C   0  0  0  0  0  0  0  0  0  0  0  0
   -0.7054   -2.3434   -2.3798 H   0  0  0  0  0  0  0  0  0  0  0  0
   -1.0062   -3.3733   -3.6121 H   0  0  0  0  0  0  0  0  0  0  0  0
   -1.9766   -1.9914   -3.4462 H   0  0  0  0  0  0  0  0  0  0  0  0
    0.0214   -1.6841   -4.1912 C   0  0  0  0  0  0  0  0  0  0  0  0
    0.8759   -2.1944   -4.2040 H   0  0  0  0  0  0  0  0  0  0  0  0
   -0.3439   -1.5989   -5.1128 H   0  0  0  0  0  0  0  0  0  0  0  0
    0.2555   -0.3400   -3.6244 N   0  0  0  0  0  4  0  0  0  0  0  0
    1.1249    0.0223   -3.9645 H   0  0  0  0  0  0  0  0  0  0  0  0
   -0.4878    0.2743   -3.8957 H   0  0  0  0  0  0  0  0  0  0  0  0
    0.2894   -0.3968   -2.6249 H   0  0  0  0  0  0  0  0  0  0  0  0
    0.0169    2.9090    0.0121 C   0  0  0  0  0  0  0  0  0  0  0  0
    0.7529    3.2144   -0.5742 H   0  0  0  0  0  0  0  0  0  0  0  0
    0.1597    3.1991    0.9472 H   0  0  0  0  0  0  0  0  0  0  0  0
   -0.9051    3.3696   -0.3427 H   0  0  0  0  0  0  0  0  0  0  0  0
    0.0029    1.4007   -0.0092 C   0  0  0  0  0  0  0  0  0  0  0  0
   -1.1900    0.6916    0.0047 C   0  0  0  0  0  0  0  0  0  0  0  0
   -2.0579    1.1798    0.0163 H   0  0  0  0  0  0  0  0  0  0  0  0
   -1.1899   -0.6959    0.0000 C   0  0  0  0  0  0  0  0  0  0  0  0
   -2.0732   -1.1886   -0.0059 H   0  0  0  0  0  0  0  0  0  0  0  0
   -0.0024   -1.3852    0.0056 C   0  0  0  0  0  0  0  0  0  0  0  0
   -0.0074   -2.3901    0.0134 H   0  0  0  0  0  0  0  0  0  0  0  0
    1.1899   -0.6998   -0.0000 C   0  0  0  0  0  0  0  0  0  0  0  0
    2.0744   -1.1970   -0.0020 H   0  0  0  0  0  0  0  0  0  0  0  0
    1.1896    0.6887   -0.0011 C   0  0  0  0  0  0  0  0  0  0  0  0
    2.0630    1.1810    0.0034 H   0  0  0  0  0  0  0  0  0  0  0  0
  1  5  1  0
  5  8  1  0
  1  2  1  0
  1  3  1  0
  1  4  1  0
  5  6  1  0
  5  7  1  0
  8  9  1  0
  8 10  1  0
  8 11  1  0
 12 16  1  0
 16 17  2  0
 17 19  1  0
 19 21  2  0
 21 23  1  0
 23 25  2  0
 25 16  1  0
 12 13  1  0
 12 14  1  0
 12 15  1  0
 17 18  1  0
 19 20  1  0
 21 22  1  0
 23 24  1  0
 25 26  1  0
M  CHG  1   8   1
M  END
>  <PDB_ID>  (987) 
pdb2ve3

>  <RESIDUE_NAME>  (987) 
LYS   PHE

>  <FRAG_NAME>  (987) 
ETAM   MBZ

>  <FRAG_ATOM_NUM>  (987) 
fragi: 11  fragj: 15

>  <atom.prop.CHAIN_ID>  (987) 
A A A A A A A A A A A Z Z Z Z Z Z Z Z Z Z Z Z Z Z Z

>  <atom.prop.IS_HEAVY_ATOM>  (987) 
1 0 0 0 1 0 0 1 0 0 0 1 0 0 0 1 1 0 1 0 1 0 1 0 1 0

>  <DIFUSE_FUNC_ATOM>  (987) 
n/a

>  <FINAL_SINGLE_POINT_ENERGY>  (987) 
0

>  <NONCOV_INTER_ENERGY_QM>  (987) 
0

>  <FF_Energy>  (987) 
-7.82

>  <QM_Energy>  (987) 
-13.94

>  <source>  (987) 
ETAM_MBZ

>  <Index>  (987) 
9775

$$$$
ETAM-pdb2vdu-E-LYS-272:MBZ-pdb2vdu-E-PHE-182
     RDKit          3D

 26 25  0  0  0  0  0  0  0  0999 V2000
    0.8902   -6.3160    0.1648 C   0  0  0  0  0  0  0  0  0  0  0  0
    1.3550   -7.1575   -0.0836 H   0  0  0  0  0  0  0  0  0  0  0  0
    0.2356   -6.4805    0.8937 H   0  0  0  0  0  0  0  0  0  0  0  0
    1.6286   -5.5909    0.5071 H   0  0  0  0  0  0  0  0  0  0  0  0
    0.1274   -5.8059   -1.0629 C   0  0  0  0  0  0  0  0  0  0  0  0
    0.7835   -5.4241   -1.7139 H   0  0  0  0  0  0  0  0  0  0  0  0
   -0.3542   -6.5739   -1.4853 H   0  0  0  0  0  0  0  0  0  0  0  0
   -0.8666   -4.7482   -0.6901 N   0  0  0  0  0  4  0  0  0  0  0  0
   -1.2718   -4.9778    0.1925 H   0  0  0  0  0  0  0  0  0  0  0  0
   -0.3995   -3.8685   -0.6305 H   0  0  0  0  0  0  0  0  0  0  0  0
   -1.5782   -4.7080   -1.3887 H   0  0  0  0  0  0  0  0  0  0  0  0
   -0.0036    2.8889    0.0226 C   0  0  0  0  0  0  0  0  0  0  0  0
   -0.8857    3.2009   -0.2872 H   0  0  0  0  0  0  0  0  0  0  0  0
    0.7236    3.2086   -0.5612 H   0  0  0  0  0  0  0  0  0  0  0  0
    0.1643    3.2965    1.0195 H   0  0  0  0  0  0  0  0  0  0  0  0
   -0.0017    1.3874   -0.0090 C   0  0  0  0  0  0  0  0  0  0  0  0
   -1.1897    0.6814    0.0046 C   0  0  0  0  0  0  0  0  0  0  0  0
   -2.0585    1.1773    0.0165 H   0  0  0  0  0  0  0  0  0  0  0  0
   -1.1943   -0.6903   -0.0000 C   0  0  0  0  0  0  0  0  0  0  0  0
   -2.0710   -1.1915   -0.0002 H   0  0  0  0  0  0  0  0  0  0  0  0
    0.0013   -1.3790   -0.0024 C   0  0  0  0  0  0  0  0  0  0  0  0
   -0.0013   -2.3819   -0.0059 H   0  0  0  0  0  0  0  0  0  0  0  0
    1.1943   -0.6877    0.0000 C   0  0  0  0  0  0  0  0  0  0  0  0
    2.0775   -1.1902   -0.0017 H   0  0  0  0  0  0  0  0  0  0  0  0
    1.1902    0.6881    0.0069 C   0  0  0  0  0  0  0  0  0  0  0  0
    2.0578    1.1899    0.0225 H   0  0  0  0  0  0  0  0  0  0  0  0
  1  5  1  0
  5  8  1  0
  1  2  1  0
  1  3  1  0
  1  4  1  0
  5  6  1  0
  5  7  1  0
  8  9  1  0
  8 10  1  0
  8 11  1  0
 12 16  1  0
 16 17  2  0
 17 19  1  0
 19 21  2  0
 21 23  1  0
 23 25  2  0
 25 16  1  0
 12 13  1  0
 12 14  1  0
 12 15  1  0
 17 18  1  0
 19 20  1  0
 21 22  1  0
 23 24  1  0
 25 26  1  0
M  CHG  1   8   1
M  END
>  <PDB_ID>  (988) 
pdb2vdu

>  <RESIDUE_NAME>  (988) 
LYS   PHE

>  <FRAG_NAME>  (988) 
ETAM   MBZ

>  <FRAG_ATOM_NUM>  (988) 
fragi: 11  fragj: 15

>  <atom.prop.CHAIN_ID>  (988) 
A A A A A A A A A A A Z Z Z Z Z Z Z Z Z Z Z Z Z Z Z

>  <atom.prop.IS_HEAVY_ATOM>  (988) 
1 0 0 0 1 0 0 1 0 0 0 1 0 0 0 1 1 0 1 0 1 0 1 0 1 0

>  <DIFUSE_FUNC_ATOM>  (988) 
n/a

>  <FINAL_SINGLE_POINT_ENERGY>  (988) 
0

>  <NONCOV_INTER_ENERGY_QM>  (988) 
0

>  <FF_Energy>  (988) 
2.14

>  <QM_Energy>  (988) 
-3.06

>  <source>  (988) 
ETAM_MBZ

>  <Index>  (988) 
9778

$$$$
ETAM-pdb1ouo-A-LYS-28:MBZ-pdb1ouo-A-PHE-24
     RDKit          3D

 26 25  0  0  0  0  0  0  0  0999 V2000
    0.5246   -0.5993    3.4304 C   0  0  0  0  0  0  0  0  0  0  0  0
    0.6044   -0.2793    2.4866 H   0  0  0  0  0  0  0  0  0  0  0  0
    0.8065    0.1281    4.0557 H   0  0  0  0  0  0  0  0  0  0  0  0
   -0.5191   -0.8440    3.6279 H   0  0  0  0  0  0  0  0  0  0  0  0
    1.4301   -1.7843    3.6212 C   0  0  0  0  0  0  0  0  0  0  0  0
    1.5243   -1.9789    4.5863 H   0  0  0  0  0  0  0  0  0  0  0  0
    1.0665   -2.5629    3.1324 H   0  0  0  0  0  0  0  0  0  0  0  0
    2.7633   -1.4332    3.0599 N   0  0  0  0  0  4  0  0  0  0  0  0
    2.7185   -0.5264    2.6408 H   0  0  0  0  0  0  0  0  0  0  0  0
    3.4414   -1.4301    3.7943 H   0  0  0  0  0  0  0  0  0  0  0  0
    3.0207   -2.1089    2.3699 H   0  0  0  0  0  0  0  0  0  0  0  0
    0.0022    2.9258    0.0251 C   0  0  0  0  0  0  0  0  0  0  0  0
   -0.2917    3.2434   -0.8618 H   0  0  0  0  0  0  0  0  0  0  0  0
    0.9185    3.2264    0.2350 H   0  0  0  0  0  0  0  0  0  0  0  0
   -0.6666    3.3565    0.7703 H   0  0  0  0  0  0  0  0  0  0  0  0
    0.0012    1.4130    0.0027 C   0  0  0  0  0  0  0  0  0  0  0  0
   -1.1952    0.7019   -0.0022 C   0  0  0  0  0  0  0  0  0  0  0  0
   -2.0635    1.1866   -0.0086 H   0  0  0  0  0  0  0  0  0  0  0  0
   -1.1993   -0.7001   -0.0000 C   0  0  0  0  0  0  0  0  0  0  0  0
   -2.0824   -1.1862    0.0021 H   0  0  0  0  0  0  0  0  0  0  0  0
   -0.0044   -1.4069    0.0003 C   0  0  0  0  0  0  0  0  0  0  0  0
   -0.0092   -2.4000    0.0003 H   0  0  0  0  0  0  0  0  0  0  0  0
    1.1993   -0.7057    0.0000 C   0  0  0  0  0  0  0  0  0  0  0  0
    2.0814   -1.1996    0.0018 H   0  0  0  0  0  0  0  0  0  0  0  0
    1.1984    0.6978   -0.0008 C   0  0  0  0  0  0  0  0  0  0  0  0
    2.0682    1.1867   -0.0047 H   0  0  0  0  0  0  0  0  0  0  0  0
  1  5  1  0
  5  8  1  0
  1  2  1  0
  1  3  1  0
  1  4  1  0
  5  6  1  0
  5  7  1  0
  8  9  1  0
  8 10  1  0
  8 11  1  0
 12 16  1  0
 16 17  2  0
 17 19  1  0
 19 21  2  0
 21 23  1  0
 23 25  2  0
 25 16  1  0
 12 13  1  0
 12 14  1  0
 12 15  1  0
 17 18  1  0
 19 20  1  0
 21 22  1  0
 23 24  1  0
 25 26  1  0
M  CHG  1   8   1
M  END
>  <PDB_ID>  (989) 
pdb1ouo

>  <RESIDUE_NAME>  (989) 
LYS   PHE

>  <FRAG_NAME>  (989) 
ETAM   MBZ

>  <FRAG_ATOM_NUM>  (989) 
fragi: 11  fragj: 15

>  <atom.prop.CHAIN_ID>  (989) 
A A A A A A A A A A A Z Z Z Z Z Z Z Z Z Z Z Z Z Z Z

>  <atom.prop.IS_HEAVY_ATOM>  (989) 
1 0 0 0 1 0 0 1 0 0 0 1 0 0 0 1 1 0 1 0 1 0 1 0 1 0

>  <DIFUSE_FUNC_ATOM>  (989) 
n/a

>  <FINAL_SINGLE_POINT_ENERGY>  (989) 
0

>  <NONCOV_INTER_ENERGY_QM>  (989) 
0

>  <FF_Energy>  (989) 
-3.05

>  <QM_Energy>  (989) 
-9.63

>  <source>  (989) 
ETAM_MBZ

>  <Index>  (989) 
9787

$$$$
ETAM-pdb2vf7-A-LYS-275:MBZ-pdb2vf7-A-PHE-266
     RDKit          3D

 26 25  0  0  0  0  0  0  0  0999 V2000
   -2.9962   -0.8235    4.5775 C   0  0  0  0  0  0  0  0  0  0  0  0
   -2.6602   -0.5460    5.4740 H   0  0  0  0  0  0  0  0  0  0  0  0
   -3.8086   -1.3916    4.6786 H   0  0  0  0  0  0  0  0  0  0  0  0
   -3.2520    0.0665    4.0025 H   0  0  0  0  0  0  0  0  0  0  0  0
   -1.9020   -1.6720    3.8998 C   0  0  0  0  0  0  0  0  0  0  0  0
   -1.8464   -2.5581    4.3786 H   0  0  0  0  0  0  0  0  0  0  0  0
   -2.1825   -1.8491    2.9470 H   0  0  0  0  0  0  0  0  0  0  0  0
   -0.5536   -1.0272    3.9021 N   0  0  0  0  0  4  0  0  0  0  0  0
   -0.3085   -0.7755    2.9671 H   0  0  0  0  0  0  0  0  0  0  0  0
   -0.5811   -0.2097    4.4750 H   0  0  0  0  0  0  0  0  0  0  0  0
    0.1175   -1.6714    4.2647 H   0  0  0  0  0  0  0  0  0  0  0  0
   -0.0079    2.9334   -0.0090 C   0  0  0  0  0  0  0  0  0  0  0  0
   -0.7670    3.2253   -0.5677 H   0  0  0  0  0  0  0  0  0  0  0  0
    0.8554    3.2359   -0.3814 H   0  0  0  0  0  0  0  0  0  0  0  0
   -0.1239    3.3844    0.9765 H   0  0  0  0  0  0  0  0  0  0  0  0
    0.0009    1.4115    0.0009 C   0  0  0  0  0  0  0  0  0  0  0  0
   -1.1969    0.6884    0.0054 C   0  0  0  0  0  0  0  0  0  0  0  0
   -2.0660    1.1782    0.0117 H   0  0  0  0  0  0  0  0  0  0  0  0
   -1.2054   -0.7077   -0.0000 C   0  0  0  0  0  0  0  0  0  0  0  0
   -2.0818   -1.1973   -0.0006 H   0  0  0  0  0  0  0  0  0  0  0  0
   -0.0045   -1.4021   -0.0025 C   0  0  0  0  0  0  0  0  0  0  0  0
   -0.0005   -2.3983   -0.0068 H   0  0  0  0  0  0  0  0  0  0  0  0
    1.2054   -0.6974   -0.0000 C   0  0  0  0  0  0  0  0  0  0  0  0
    2.0848   -1.1914    0.0056 H   0  0  0  0  0  0  0  0  0  0  0  0
    1.2004    0.7073   -0.0037 C   0  0  0  0  0  0  0  0  0  0  0  0
    2.0673    1.1975   -0.0108 H   0  0  0  0  0  0  0  0  0  0  0  0
  1  5  1  0
  5  8  1  0
  1  2  1  0
  1  3  1  0
  1  4  1  0
  5  6  1  0
  5  7  1  0
  8  9  1  0
  8 10  1  0
  8 11  1  0
 12 16  1  0
 16 17  2  0
 17 19  1  0
 19 21  2  0
 21 23  1  0
 23 25  2  0
 25 16  1  0
 12 13  1  0
 12 14  1  0
 12 15  1  0
 17 18  1  0
 19 20  1  0
 21 22  1  0
 23 24  1  0
 25 26  1  0
M  CHG  1   8   1
M  END
>  <PDB_ID>  (990) 
pdb2vf7

>  <RESIDUE_NAME>  (990) 
LYS   PHE

>  <FRAG_NAME>  (990) 
ETAM   MBZ

>  <FRAG_ATOM_NUM>  (990) 
fragi: 11  fragj: 15

>  <atom.prop.CHAIN_ID>  (990) 
A A A A A A A A A A A Z Z Z Z Z Z Z Z Z Z Z Z Z Z Z

>  <atom.prop.IS_HEAVY_ATOM>  (990) 
1 0 0 0 1 0 0 1 0 0 0 1 0 0 0 1 1 0 1 0 1 0 1 0 1 0

>  <DIFUSE_FUNC_ATOM>  (990) 
n/a

>  <FINAL_SINGLE_POINT_ENERGY>  (990) 
0

>  <NONCOV_INTER_ENERGY_QM>  (990) 
0

>  <FF_Energy>  (990) 
-5.72

>  <QM_Energy>  (990) 
-11.03

>  <source>  (990) 
ETAM_MBZ

>  <Index>  (990) 
9797

$$$$
ETAM-pdb2vc6-B-LYS-253:MBZ-pdb2vc6-B-PHE-13
     RDKit          3D

 26 25  0  0  0  0  0  0  0  0999 V2000
   -4.5566    0.5873    4.1522 C   0  0  0  0  0  0  0  0  0  0  0  0
   -5.0855   -0.0260    3.5784 H   0  0  0  0  0  0  0  0  0  0  0  0
   -4.6836    1.5297    3.8693 H   0  0  0  0  0  0  0  0  0  0  0  0
   -4.8718    0.4744    5.1894 H   0  0  0  0  0  0  0  0  0  0  0  0
   -3.0949    0.2355    4.0143 C   0  0  0  0  0  0  0  0  0  0  0  0
   -2.5540    0.8659    4.5684 H   0  0  0  0  0  0  0  0  0  0  0  0
   -2.9531   -0.6995    4.3326 H   0  0  0  0  0  0  0  0  0  0  0  0
   -2.6862    0.3435    2.6030 N   0  0  0  0  0  4  0  0  0  0  0  0
   -3.4899    0.5103    2.0287 H   0  0  0  0  0  0  0  0  0  0  0  0
   -2.0415    1.1029    2.4939 H   0  0  0  0  0  0  0  0  0  0  0  0
   -2.2446   -0.5079    2.3117 H   0  0  0  0  0  0  0  0  0  0  0  0
   -0.0064    2.9011    0.0258 C   0  0  0  0  0  0  0  0  0  0  0  0
   -0.9345    3.2022    0.1886 H   0  0  0  0  0  0  0  0  0  0  0  0
    0.3290    3.2252   -0.8470 H   0  0  0  0  0  0  0  0  0  0  0  0
    0.6232    3.3341    0.8032 H   0  0  0  0  0  0  0  0  0  0  0  0
    0.0002    1.3998    0.0007 C   0  0  0  0  0  0  0  0  0  0  0  0
   -1.1949    0.6902   -0.0011 C   0  0  0  0  0  0  0  0  0  0  0  0
   -2.0622    1.1812   -0.0049 H   0  0  0  0  0  0  0  0  0  0  0  0
   -1.2008   -0.6982   -0.0000 C   0  0  0  0  0  0  0  0  0  0  0  0
   -2.0781   -1.1914    0.0003 H   0  0  0  0  0  0  0  0  0  0  0  0
   -0.0030   -1.3917    0.0022 C   0  0  0  0  0  0  0  0  0  0  0  0
   -0.0047   -2.3916    0.0049 H   0  0  0  0  0  0  0  0  0  0  0  0
    1.2008   -0.6963    0.0000 C   0  0  0  0  0  0  0  0  0  0  0  0
    2.0807   -1.1947    0.0006 H   0  0  0  0  0  0  0  0  0  0  0  0
    1.1977    0.6962   -0.0018 C   0  0  0  0  0  0  0  0  0  0  0  0
    2.0647    1.1911   -0.0053 H   0  0  0  0  0  0  0  0  0  0  0  0
  1  5  1  0
  5  8  1  0
  1  2  1  0
  1  3  1  0
  1  4  1  0
  5  6  1  0
  5  7  1  0
  8  9  1  0
  8 10  1  0
  8 11  1  0
 12 16  1  0
 16 17  2  0
 17 19  1  0
 19 21  2  0
 21 23  1  0
 23 25  2  0
 25 16  1  0
 12 13  1  0
 12 14  1  0
 12 15  1  0
 17 18  1  0
 19 20  1  0
 21 22  1  0
 23 24  1  0
 25 26  1  0
M  CHG  1   8   1
M  END
>  <PDB_ID>  (991) 
pdb2vc6

>  <RESIDUE_NAME>  (991) 
LYS   PHE

>  <FRAG_NAME>  (991) 
ETAM   MBZ

>  <FRAG_ATOM_NUM>  (991) 
fragi: 11  fragj: 15

>  <atom.prop.CHAIN_ID>  (991) 
A A A A A A A A A A A Z Z Z Z Z Z Z Z Z Z Z Z Z Z Z

>  <atom.prop.IS_HEAVY_ATOM>  (991) 
1 0 0 0 1 0 0 1 0 0 0 1 0 0 0 1 1 0 1 0 1 0 1 0 1 0

>  <DIFUSE_FUNC_ATOM>  (991) 
n/a

>  <FINAL_SINGLE_POINT_ENERGY>  (991) 
0

>  <NONCOV_INTER_ENERGY_QM>  (991) 
0

>  <FF_Energy>  (991) 
-2.51

>  <QM_Energy>  (991) 
-9.57

>  <source>  (991) 
ETAM_MBZ

>  <Index>  (991) 
9809

$$$$
ETAM-pdb2vc6-B-LYS-52:MBZ-pdb2vc6-B-PHE-87
     RDKit          3D

 26 25  0  0  0  0  0  0  0  0999 V2000
    3.3574   -2.0745    2.4122 C   0  0  0  0  0  0  0  0  0  0  0  0
    3.4492   -1.9157    1.4427 H   0  0  0  0  0  0  0  0  0  0  0  0
    2.4253   -2.2827    2.6602 H   0  0  0  0  0  0  0  0  0  0  0  0
    3.9954   -2.9119    2.6952 H   0  0  0  0  0  0  0  0  0  0  0  0
    3.7832   -0.7910    3.1578 C   0  0  0  0  0  0  0  0  0  0  0  0
    3.5253   -0.8932    4.1367 H   0  0  0  0  0  0  0  0  0  0  0  0
    4.7984   -0.7283    3.1279 H   0  0  0  0  0  0  0  0  0  0  0  0
    3.2044    0.4927    2.6372 N   0  0  0  0  0  4  0  0  0  0  0  0
    2.2238    0.5035    2.8183 H   0  0  0  0  0  0  0  0  0  0  0  0
    3.6439    1.2593    3.1002 H   0  0  0  0  0  0  0  0  0  0  0  0
    3.3695    0.5494    1.6550 H   0  0  0  0  0  0  0  0  0  0  0  0
   -0.0042    2.9062   -0.0371 C   0  0  0  0  0  0  0  0  0  0  0  0
   -0.8826    3.2180    0.2943 H   0  0  0  0  0  0  0  0  0  0  0  0
    0.1470    3.1904   -0.9729 H   0  0  0  0  0  0  0  0  0  0  0  0
    0.7671    3.3686    0.5788 H   0  0  0  0  0  0  0  0  0  0  0  0
   -0.0005    1.4033   -0.0007 C   0  0  0  0  0  0  0  0  0  0  0  0
   -1.1995    0.6960   -0.0010 C   0  0  0  0  0  0  0  0  0  0  0  0
   -2.0654    1.1866   -0.0032 H   0  0  0  0  0  0  0  0  0  0  0  0
   -1.2075   -0.6980    0.0000 C   0  0  0  0  0  0  0  0  0  0  0  0
   -2.0814   -1.1912    0.0011 H   0  0  0  0  0  0  0  0  0  0  0  0
   -0.0001   -1.3979    0.0008 C   0  0  0  0  0  0  0  0  0  0  0  0
   -0.0034   -2.3943    0.0018 H   0  0  0  0  0  0  0  0  0  0  0  0
    1.2075   -0.6974   -0.0000 C   0  0  0  0  0  0  0  0  0  0  0  0
    2.0864   -1.1958    0.0000 H   0  0  0  0  0  0  0  0  0  0  0  0
    1.2001    0.6940    0.0010 C   0  0  0  0  0  0  0  0  0  0  0  0
    2.0661    1.1930    0.0021 H   0  0  0  0  0  0  0  0  0  0  0  0
  1  5  1  0
  5  8  1  0
  1  2  1  0
  1  3  1  0
  1  4  1  0
  5  6  1  0
  5  7  1  0
  8  9  1  0
  8 10  1  0
  8 11  1  0
 12 16  1  0
 16 17  2  0
 17 19  1  0
 19 21  2  0
 21 23  1  0
 23 25  2  0
 25 16  1  0
 12 13  1  0
 12 14  1  0
 12 15  1  0
 17 18  1  0
 19 20  1  0
 21 22  1  0
 23 24  1  0
 25 26  1  0
M  CHG  1   8   1
M  END
>  <PDB_ID>  (992) 
pdb2vc6

>  <RESIDUE_NAME>  (992) 
LYS   PHE

>  <FRAG_NAME>  (992) 
ETAM   MBZ

>  <FRAG_ATOM_NUM>  (992) 
fragi: 11  fragj: 15

>  <atom.prop.CHAIN_ID>  (992) 
A A A A A A A A A A A Z Z Z Z Z Z Z Z Z Z Z Z Z Z Z

>  <atom.prop.IS_HEAVY_ATOM>  (992) 
1 0 0 0 1 0 0 1 0 0 0 1 0 0 0 1 1 0 1 0 1 0 1 0 1 0

>  <DIFUSE_FUNC_ATOM>  (992) 
n/a

>  <FINAL_SINGLE_POINT_ENERGY>  (992) 
0

>  <NONCOV_INTER_ENERGY_QM>  (992) 
0

>  <FF_Energy>  (992) 
-2.16

>  <QM_Energy>  (992) 
-7.62

>  <source>  (992) 
ETAM_MBZ

>  <Index>  (992) 
9815

$$$$
ETAM-pdb2vhl-A-LYS-364:MBZ-pdb2vhl-A-PHE-354
     RDKit          3D

 26 25  0  0  0  0  0  0  0  0999 V2000
   -1.8295   -0.0724    5.1414 C   0  0  0  0  0  0  0  0  0  0  0  0
   -2.3437   -0.8966    4.9897 H   0  0  0  0  0  0  0  0  0  0  0  0
   -2.2190    0.7009    4.6758 H   0  0  0  0  0  0  0  0  0  0  0  0
   -1.8021    0.1352    6.2110 H   0  0  0  0  0  0  0  0  0  0  0  0
   -0.4158   -0.2761    4.6650 C   0  0  0  0  0  0  0  0  0  0  0  0
    0.1304    0.5278    4.9269 H   0  0  0  0  0  0  0  0  0  0  0  0
   -0.0334   -1.0835    5.1295 H   0  0  0  0  0  0  0  0  0  0  0  0
   -0.3720   -0.4609    3.2329 N   0  0  0  0  0  4  0  0  0  0  0  0
    0.5764   -0.6010    2.9230 H   0  0  0  0  0  0  0  0  0  0  0  0
   -0.9164   -1.2646    2.9634 H   0  0  0  0  0  0  0  0  0  0  0  0
   -0.7435    0.3471    2.7604 H   0  0  0  0  0  0  0  0  0  0  0  0
   -0.0312    2.9171   -0.0877 C   0  0  0  0  0  0  0  0  0  0  0  0
   -0.3398    3.1779   -0.9899 H   0  0  0  0  0  0  0  0  0  0  0  0
    0.8872    3.2416    0.0857 H   0  0  0  0  0  0  0  0  0  0  0  0
   -0.6941    3.3841    0.6408 H   0  0  0  0  0  0  0  0  0  0  0  0
   -0.0128    1.4150   -0.0199 C   0  0  0  0  0  0  0  0  0  0  0  0
   -1.2141    0.6863   -0.0323 C   0  0  0  0  0  0  0  0  0  0  0  0
   -2.0822    1.1794   -0.0658 H   0  0  0  0  0  0  0  0  0  0  0  0
   -1.2233   -0.7057    0.0000 C   0  0  0  0  0  0  0  0  0  0  0  0
   -2.0786   -1.2133   -0.0057 H   0  0  0  0  0  0  0  0  0  0  0  0
    0.0223   -1.4179    0.0437 C   0  0  0  0  0  0  0  0  0  0  0  0
    0.0076   -2.4033    0.1042 H   0  0  0  0  0  0  0  0  0  0  0  0
    1.2233   -0.7065    0.0000 C   0  0  0  0  0  0  0  0  0  0  0  0
    2.1091   -1.1765   -0.0357 H   0  0  0  0  0  0  0  0  0  0  0  0
    1.2045    0.7287    0.0085 C   0  0  0  0  0  0  0  0  0  0  0  0
    2.0617    1.2172    0.0338 H   0  0  0  0  0  0  0  0  0  0  0  0
  1  5  1  0
  5  8  1  0
  1  2  1  0
  1  3  1  0
  1  4  1  0
  5  6  1  0
  5  7  1  0
  8  9  1  0
  8 10  1  0
  8 11  1  0
 12 16  1  0
 16 17  2  0
 17 19  1  0
 19 21  2  0
 21 23  1  0
 23 25  2  0
 25 16  1  0
 12 13  1  0
 12 14  1  0
 12 15  1  0
 17 18  1  0
 19 20  1  0
 21 22  1  0
 23 24  1  0
 25 26  1  0
M  CHG  1   8   1
M  END
>  <PDB_ID>  (993) 
pdb2vhl

>  <RESIDUE_NAME>  (993) 
LYS   PHE

>  <FRAG_NAME>  (993) 
ETAM   MBZ

>  <FRAG_ATOM_NUM>  (993) 
fragi: 11  fragj: 15

>  <atom.prop.CHAIN_ID>  (993) 
A A A A A A A A A A A Z Z Z Z Z Z Z Z Z Z Z Z Z Z Z

>  <atom.prop.IS_HEAVY_ATOM>  (993) 
1 0 0 0 1 0 0 1 0 0 0 1 0 0 0 1 1 0 1 0 1 0 1 0 1 0

>  <DIFUSE_FUNC_ATOM>  (993) 
n/a

>  <FINAL_SINGLE_POINT_ENERGY>  (993) 
0

>  <NONCOV_INTER_ENERGY_QM>  (993) 
0

>  <FF_Energy>  (993) 
-8.15

>  <QM_Energy>  (993) 
-15.87

>  <source>  (993) 
ETAM_MBZ

>  <Index>  (993) 
9820

$$$$
ETAM-pdb2vje-A-LYS-466:MBZ-pdb2vje-A-PHE-462
     RDKit          3D

 26 25  0  0  0  0  0  0  0  0999 V2000
    0.5996   -0.7928    3.2762 C   0  0  0  0  0  0  0  0  0  0  0  0
    0.4076   -1.2083    2.3845 H   0  0  0  0  0  0  0  0  0  0  0  0
    0.6945    0.1986    3.1634 H   0  0  0  0  0  0  0  0  0  0  0  0
   -0.2311   -0.9980    3.9515 H   0  0  0  0  0  0  0  0  0  0  0  0
    1.9292   -1.3425    3.7797 C   0  0  0  0  0  0  0  0  0  0  0  0
    2.0649   -1.0516    4.7289 H   0  0  0  0  0  0  0  0  0  0  0  0
    1.9030   -2.3434    3.7439 H   0  0  0  0  0  0  0  0  0  0  0  0
    3.0833   -0.8567    2.9523 N   0  0  0  0  0  4  0  0  0  0  0  0
    3.6193   -1.6420    2.6492 H   0  0  0  0  0  0  0  0  0  0  0  0
    2.7313   -0.3606    2.1623 H   0  0  0  0  0  0  0  0  0  0  0  0
    3.6504   -0.2519    3.5079 H   0  0  0  0  0  0  0  0  0  0  0  0
   -0.0021    2.9279    0.0127 C   0  0  0  0  0  0  0  0  0  0  0  0
   -0.4405    3.2365   -0.8182 H   0  0  0  0  0  0  0  0  0  0  0  0
    0.9389    3.2322    0.0556 H   0  0  0  0  0  0  0  0  0  0  0  0
   -0.5338    3.3729    0.8537 H   0  0  0  0  0  0  0  0  0  0  0  0
   -0.0033    1.4196    0.0069 C   0  0  0  0  0  0  0  0  0  0  0  0
   -1.1971    0.7024   -0.0054 C   0  0  0  0  0  0  0  0  0  0  0  0
   -2.0683    1.1812   -0.0196 H   0  0  0  0  0  0  0  0  0  0  0  0
   -1.2012   -0.7097   -0.0000 C   0  0  0  0  0  0  0  0  0  0  0  0
   -2.0803   -1.1938    0.0053 H   0  0  0  0  0  0  0  0  0  0  0  0
    0.0004   -1.4106   -0.0002 C   0  0  0  0  0  0  0  0  0  0  0  0
   -0.0058   -2.4071   -0.0006 H   0  0  0  0  0  0  0  0  0  0  0  0
    1.2012   -0.7127    0.0000 C   0  0  0  0  0  0  0  0  0  0  0  0
    2.0862   -1.1961    0.0028 H   0  0  0  0  0  0  0  0  0  0  0  0
    1.2000    0.7110   -0.0013 C   0  0  0  0  0  0  0  0  0  0  0  0
    2.0675    1.1917   -0.0086 H   0  0  0  0  0  0  0  0  0  0  0  0
  1  5  1  0
  5  8  1  0
  1  2  1  0
  1  3  1  0
  1  4  1  0
  5  6  1  0
  5  7  1  0
  8  9  1  0
  8 10  1  0
  8 11  1  0
 12 16  1  0
 16 17  2  0
 17 19  1  0
 19 21  2  0
 21 23  1  0
 23 25  2  0
 25 16  1  0
 12 13  1  0
 12 14  1  0
 12 15  1  0
 17 18  1  0
 19 20  1  0
 21 22  1  0
 23 24  1  0
 25 26  1  0
M  CHG  1   8   1
M  END
>  <PDB_ID>  (994) 
pdb2vje

>  <RESIDUE_NAME>  (994) 
LYS   PHE

>  <FRAG_NAME>  (994) 
ETAM   MBZ

>  <FRAG_ATOM_NUM>  (994) 
fragi: 11  fragj: 15

>  <atom.prop.CHAIN_ID>  (994) 
A A A A A A A A A A A Z Z Z Z Z Z Z Z Z Z Z Z Z Z Z

>  <atom.prop.IS_HEAVY_ATOM>  (994) 
1 0 0 0 1 0 0 1 0 0 0 1 0 0 0 1 1 0 1 0 1 0 1 0 1 0

>  <DIFUSE_FUNC_ATOM>  (994) 
n/a

>  <FINAL_SINGLE_POINT_ENERGY>  (994) 
0

>  <NONCOV_INTER_ENERGY_QM>  (994) 
0

>  <FF_Energy>  (994) 
-1.59

>  <QM_Energy>  (994) 
-8.76

>  <source>  (994) 
ETAM_MBZ

>  <Index>  (994) 
9835

$$$$
ETAM-pdb2vji-A-LYS-239:MBZ-pdb2vji-A-PHE-235
     RDKit          3D

 26 25  0  0  0  0  0  0  0  0999 V2000
    0.9841   -0.8959    4.4895 C   0  0  0  0  0  0  0  0  0  0  0  0
    1.3862   -0.2342    3.8638 H   0  0  0  0  0  0  0  0  0  0  0  0
    1.1634   -1.8220    4.1728 H   0  0  0  0  0  0  0  0  0  0  0  0
    1.4284   -0.7659    5.4763 H   0  0  0  0  0  0  0  0  0  0  0  0
   -0.5167   -0.6779    4.5245 C   0  0  0  0  0  0  0  0  0  0  0  0
   -0.9406   -1.4212    5.0503 H   0  0  0  0  0  0  0  0  0  0  0  0
   -0.7089    0.1936    4.9859 H   0  0  0  0  0  0  0  0  0  0  0  0
   -1.1001   -0.6481    3.1617 N   0  0  0  0  0  4  0  0  0  0  0  0
   -1.5554   -1.5192    2.9734 H   0  0  0  0  0  0  0  0  0  0  0  0
   -1.7659    0.0962    3.0994 H   0  0  0  0  0  0  0  0  0  0  0  0
   -0.3733   -0.5010    2.4898 H   0  0  0  0  0  0  0  0  0  0  0  0
    0.0052    2.9037    0.0030 C   0  0  0  0  0  0  0  0  0  0  0  0
   -0.7594    3.2144   -0.5415 H   0  0  0  0  0  0  0  0  0  0  0  0
    0.8658    3.2061   -0.3789 H   0  0  0  0  0  0  0  0  0  0  0  0
   -0.0916    3.3452    0.9949 H   0  0  0  0  0  0  0  0  0  0  0  0
   -0.0015    1.3975   -0.0007 C   0  0  0  0  0  0  0  0  0  0  0  0
   -1.1938    0.6938    0.0018 C   0  0  0  0  0  0  0  0  0  0  0  0
   -2.0615    1.1833    0.0040 H   0  0  0  0  0  0  0  0  0  0  0  0
   -1.1982   -0.6941   -0.0000 C   0  0  0  0  0  0  0  0  0  0  0  0
   -2.0746   -1.1893    0.0018 H   0  0  0  0  0  0  0  0  0  0  0  0
    0.0031   -1.3891   -0.0017 C   0  0  0  0  0  0  0  0  0  0  0  0
   -0.0040   -2.3897   -0.0049 H   0  0  0  0  0  0  0  0  0  0  0  0
    1.1982   -0.6970    0.0000 C   0  0  0  0  0  0  0  0  0  0  0  0
    2.0813   -1.1946    0.0017 H   0  0  0  0  0  0  0  0  0  0  0  0
    1.1922    0.6889    0.0007 C   0  0  0  0  0  0  0  0  0  0  0  0
    2.0617    1.1878    0.0021 H   0  0  0  0  0  0  0  0  0  0  0  0
  1  5  1  0
  5  8  1  0
  1  2  1  0
  1  3  1  0
  1  4  1  0
  5  6  1  0
  5  7  1  0
  8  9  1  0
  8 10  1  0
  8 11  1  0
 12 16  1  0
 16 17  2  0
 17 19  1  0
 19 21  2  0
 21 23  1  0
 23 25  2  0
 25 16  1  0
 12 13  1  0
 12 14  1  0
 12 15  1  0
 17 18  1  0
 19 20  1  0
 21 22  1  0
 23 24  1  0
 25 26  1  0
M  CHG  1   8   1
M  END
>  <PDB_ID>  (995) 
pdb2vji

>  <RESIDUE_NAME>  (995) 
LYS   PHE

>  <FRAG_NAME>  (995) 
ETAM   MBZ

>  <FRAG_ATOM_NUM>  (995) 
fragi: 11  fragj: 15

>  <atom.prop.CHAIN_ID>  (995) 
A A A A A A A A A A A Z Z Z Z Z Z Z Z Z Z Z Z Z Z Z

>  <atom.prop.IS_HEAVY_ATOM>  (995) 
1 0 0 0 1 0 0 1 0 0 0 1 0 0 0 1 1 0 1 0 1 0 1 0 1 0

>  <DIFUSE_FUNC_ATOM>  (995) 
n/a

>  <FINAL_SINGLE_POINT_ENERGY>  (995) 
0

>  <NONCOV_INTER_ENERGY_QM>  (995) 
0

>  <FF_Energy>  (995) 
-7.45

>  <QM_Energy>  (995) 
-14.44

>  <source>  (995) 
ETAM_MBZ

>  <Index>  (995) 
9846

$$$$
ETAM-pdb1olp-D-LYS-106:MBZ-pdb1olp-D-PHE-185
     RDKit          3D

 26 25  0  0  0  0  0  0  0  0999 V2000
    0.3279   -0.4959   -5.2890 C   0  0  0  0  0  0  0  0  0  0  0  0
    1.2840   -0.5045   -4.9724 H   0  0  0  0  0  0  0  0  0  0  0  0
    0.1769    0.3459   -5.8207 H   0  0  0  0  0  0  0  0  0  0  0  0
    0.1695   -1.3549   -5.9411 H   0  0  0  0  0  0  0  0  0  0  0  0
   -0.5749   -0.4782   -4.0933 C   0  0  0  0  0  0  0  0  0  0  0  0
   -1.4933   -0.2630   -4.3703 H   0  0  0  0  0  0  0  0  0  0  0  0
   -0.5197   -1.3372   -3.6189 H   0  0  0  0  0  0  0  0  0  0  0  0
   -0.0648    0.6053   -3.2048 N   0  0  0  0  0  4  0  0  0  0  0  0
   -0.7267    0.7729   -2.4750 H   0  0  0  0  0  0  0  0  0  0  0  0
    0.8079    0.3237   -2.8086 H   0  0  0  0  0  0  0  0  0  0  0  0
    0.0619    1.4393   -3.7405 H   0  0  0  0  0  0  0  0  0  0  0  0
   -0.0017    2.8842    0.0130 C   0  0  0  0  0  0  0  0  0  0  0  0
   -0.7254    3.1965   -0.5839 H   0  0  0  0  0  0  0  0  0  0  0  0
    0.8820    3.1999   -0.2985 H   0  0  0  0  0  0  0  0  0  0  0  0
   -0.1777    3.3118    1.0001 H   0  0  0  0  0  0  0  0  0  0  0  0
    0.0037    1.3886   -0.0007 C   0  0  0  0  0  0  0  0  0  0  0  0
   -1.1848    0.6814    0.0040 C   0  0  0  0  0  0  0  0  0  0  0  0
   -2.0537    1.1765    0.0094 H   0  0  0  0  0  0  0  0  0  0  0  0
   -1.1897   -0.6930   -0.0000 C   0  0  0  0  0  0  0  0  0  0  0  0
   -2.0758   -1.1856    0.0024 H   0  0  0  0  0  0  0  0  0  0  0  0
   -0.0115   -1.3784   -0.0053 C   0  0  0  0  0  0  0  0  0  0  0  0
   -0.0073   -2.3822   -0.0140 H   0  0  0  0  0  0  0  0  0  0  0  0
    1.1897   -0.6872    0.0000 C   0  0  0  0  0  0  0  0  0  0  0  0
    2.0695   -1.1957    0.0038 H   0  0  0  0  0  0  0  0  0  0  0  0
    1.1926    0.6885    0.0020 C   0  0  0  0  0  0  0  0  0  0  0  0
    2.0616    1.1859    0.0048 H   0  0  0  0  0  0  0  0  0  0  0  0
  1  5  1  0
  5  8  1  0
  1  2  1  0
  1  3  1  0
  1  4  1  0
  5  6  1  0
  5  7  1  0
  8  9  1  0
  8 10  1  0
  8 11  1  0
 12 16  1  0
 16 17  2  0
 17 19  1  0
 19 21  2  0
 21 23  1  0
 23 25  2  0
 25 16  1  0
 12 13  1  0
 12 14  1  0
 12 15  1  0
 17 18  1  0
 19 20  1  0
 21 22  1  0
 23 24  1  0
 25 26  1  0
M  CHG  1   8   1
M  END
>  <PDB_ID>  (996) 
pdb1olp

>  <RESIDUE_NAME>  (996) 
LYS   PHE

>  <FRAG_NAME>  (996) 
ETAM   MBZ

>  <FRAG_ATOM_NUM>  (996) 
fragi: 11  fragj: 15

>  <atom.prop.CHAIN_ID>  (996) 
A A A A A A A A A A A Z Z Z Z Z Z Z Z Z Z Z Z Z Z Z

>  <atom.prop.IS_HEAVY_ATOM>  (996) 
1 0 0 0 1 0 0 1 0 0 0 1 0 0 0 1 1 0 1 0 1 0 1 0 1 0

>  <DIFUSE_FUNC_ATOM>  (996) 
n/a

>  <FINAL_SINGLE_POINT_ENERGY>  (996) 
0

>  <NONCOV_INTER_ENERGY_QM>  (996) 
0

>  <FF_Energy>  (996) 
-9.15

>  <QM_Energy>  (996) 
-15.85

>  <source>  (996) 
ETAM_MBZ

>  <Index>  (996) 
9852

$$$$
ETAM-pdb2vkj-B-LYS-74:MBZ-pdb2vkj-A-PHE-98
     RDKit          3D

 26 25  0  0  0  0  0  0  0  0999 V2000
    4.0394   -5.2652   -2.5988 C   0  0  0  0  0  0  0  0  0  0  0  0
    4.6193   -6.0347   -2.4042 H   0  0  0  0  0  0  0  0  0  0  0  0
    4.5289   -4.4133   -2.5719 H   0  0  0  0  0  0  0  0  0  0  0  0
    3.5642   -5.3931   -3.5714 H   0  0  0  0  0  0  0  0  0  0  0  0
    2.9422   -5.2123   -1.4981 C   0  0  0  0  0  0  0  0  0  0  0  0
    2.3246   -6.0005   -1.6277 H   0  0  0  0  0  0  0  0  0  0  0  0
    3.3898   -5.3144   -0.5986 H   0  0  0  0  0  0  0  0  0  0  0  0
    2.1093   -3.9400   -1.4845 N   0  0  0  0  0  4  0  0  0  0  0  0
    2.5409   -3.2876   -0.8709 H   0  0  0  0  0  0  0  0  0  0  0  0
    2.0739   -3.5762   -2.4095 H   0  0  0  0  0  0  0  0  0  0  0  0
    1.1946   -4.1651   -1.1650 H   0  0  0  0  0  0  0  0  0  0  0  0
   -0.0028    2.8954    0.0083 C   0  0  0  0  0  0  0  0  0  0  0  0
   -0.6802    3.2032   -0.6387 H   0  0  0  0  0  0  0  0  0  0  0  0
    0.9015    3.2051   -0.2341 H   0  0  0  0  0  0  0  0  0  0  0  0
   -0.2523    3.3167    0.9821 H   0  0  0  0  0  0  0  0  0  0  0  0
    0.0008    1.3960    0.0021 C   0  0  0  0  0  0  0  0  0  0  0  0
   -1.1867    0.6834   -0.0151 C   0  0  0  0  0  0  0  0  0  0  0  0
   -2.0574    1.1725   -0.0400 H   0  0  0  0  0  0  0  0  0  0  0  0
   -1.1866   -0.6975    0.0000 C   0  0  0  0  0  0  0  0  0  0  0  0
   -2.0724   -1.1904   -0.0036 H   0  0  0  0  0  0  0  0  0  0  0  0
   -0.0065   -1.3839    0.0211 C   0  0  0  0  0  0  0  0  0  0  0  0
   -0.0102   -2.3899    0.0514 H   0  0  0  0  0  0  0  0  0  0  0  0
    1.1866   -0.7026   -0.0000 C   0  0  0  0  0  0  0  0  0  0  0  0
    2.0716   -1.1940   -0.0077 H   0  0  0  0  0  0  0  0  0  0  0  0
    1.1924    0.7045   -0.0081 C   0  0  0  0  0  0  0  0  0  0  0  0
    2.0607    1.1862   -0.0218 H   0  0  0  0  0  0  0  0  0  0  0  0
  1  5  1  0
  5  8  1  0
  1  2  1  0
  1  3  1  0
  1  4  1  0
  5  6  1  0
  5  7  1  0
  8  9  1  0
  8 10  1  0
  8 11  1  0
 12 16  1  0
 16 17  2  0
 17 19  1  0
 19 21  2  0
 21 23  1  0
 23 25  2  0
 25 16  1  0
 12 13  1  0
 12 14  1  0
 12 15  1  0
 17 18  1  0
 19 20  1  0
 21 22  1  0
 23 24  1  0
 25 26  1  0
M  CHG  1   8   1
M  END
>  <PDB_ID>  (997) 
pdb2vkj

>  <RESIDUE_NAME>  (997) 
LYS   PHE

>  <FRAG_NAME>  (997) 
ETAM   MBZ

>  <FRAG_ATOM_NUM>  (997) 
fragi: 11  fragj: 15

>  <atom.prop.CHAIN_ID>  (997) 
A A A A A A A A A A A Z Z Z Z Z Z Z Z Z Z Z Z Z Z Z

>  <atom.prop.IS_HEAVY_ATOM>  (997) 
1 0 0 0 1 0 0 1 0 0 0 1 0 0 0 1 1 0 1 0 1 0 1 0 1 0

>  <DIFUSE_FUNC_ATOM>  (997) 
n/a

>  <FINAL_SINGLE_POINT_ENERGY>  (997) 
0

>  <NONCOV_INTER_ENERGY_QM>  (997) 
0

>  <FF_Energy>  (997) 
0.69

>  <QM_Energy>  (997) 
-4.44

>  <source>  (997) 
ETAM_MBZ

>  <Index>  (997) 
9857

$$$$
ETAM-pdb2vkh-B-LYS-170:MBZ-pdb2vkh-B-PHE-166
     RDKit          3D

 26 25  0  0  0  0  0  0  0  0999 V2000
    0.3332    0.8407    5.2329 C   0  0  0  0  0  0  0  0  0  0  0  0
    0.4941    0.9560    6.2043 H   0  0  0  0  0  0  0  0  0  0  0  0
   -0.6124    0.6004    5.0578 H   0  0  0  0  0  0  0  0  0  0  0  0
    0.5704    1.7706    4.7161 H   0  0  0  0  0  0  0  0  0  0  0  0
    1.2192   -0.2948    4.7298 C   0  0  0  0  0  0  0  0  0  0  0  0
    2.1729   -0.1044    4.9885 H   0  0  0  0  0  0  0  0  0  0  0  0
    0.9342   -1.1524    5.1719 H   0  0  0  0  0  0  0  0  0  0  0  0
    1.1501   -0.4747    3.2376 N   0  0  0  0  0  4  0  0  0  0  0  0
    0.4090    0.0873    2.8778 H   0  0  0  0  0  0  0  0  0  0  0  0
    2.0183   -0.1915    2.8368 H   0  0  0  0  0  0  0  0  0  0  0  0
    0.9788   -1.4360    3.0351 H   0  0  0  0  0  0  0  0  0  0  0  0
    0.0206    2.9294   -0.0151 C   0  0  0  0  0  0  0  0  0  0  0  0
   -0.0920    3.2250   -0.9477 H   0  0  0  0  0  0  0  0  0  0  0  0
    0.8796    3.2262    0.3648 H   0  0  0  0  0  0  0  0  0  0  0  0
   -0.7786    3.3760    0.5764 H   0  0  0  0  0  0  0  0  0  0  0  0
    0.0065    1.4126   -0.0033 C   0  0  0  0  0  0  0  0  0  0  0  0
   -1.2285    0.7222   -0.0053 C   0  0  0  0  0  0  0  0  0  0  0  0
   -2.0723    1.2249   -0.0111 H   0  0  0  0  0  0  0  0  0  0  0  0
   -1.2411   -0.6785   -0.0000 C   0  0  0  0  0  0  0  0  0  0  0  0
   -2.1060   -1.1768    0.0019 H   0  0  0  0  0  0  0  0  0  0  0  0
   -0.0067   -1.4068    0.0050 C   0  0  0  0  0  0  0  0  0  0  0  0
   -0.0336   -2.3997    0.0111 H   0  0  0  0  0  0  0  0  0  0  0  0
    1.2411   -0.7270   -0.0000 C   0  0  0  0  0  0  0  0  0  0  0  0
    2.0945   -1.2314   -0.0046 H   0  0  0  0  0  0  0  0  0  0  0  0
    1.2287    0.6775    0.0036 C   0  0  0  0  0  0  0  0  0  0  0  0
    2.0897    1.1810    0.0097 H   0  0  0  0  0  0  0  0  0  0  0  0
  1  5  1  0
  5  8  1  0
  1  2  1  0
  1  3  1  0
  1  4  1  0
  5  6  1  0
  5  7  1  0
  8  9  1  0
  8 10  1  0
  8 11  1  0
 12 16  1  0
 16 17  2  0
 17 19  1  0
 19 21  2  0
 21 23  1  0
 23 25  2  0
 25 16  1  0
 12 13  1  0
 12 14  1  0
 12 15  1  0
 17 18  1  0
 19 20  1  0
 21 22  1  0
 23 24  1  0
 25 26  1  0
M  CHG  1   8   1
M  END
>  <PDB_ID>  (998) 
pdb2vkh

>  <RESIDUE_NAME>  (998) 
LYS   PHE

>  <FRAG_NAME>  (998) 
ETAM   MBZ

>  <FRAG_ATOM_NUM>  (998) 
fragi: 11  fragj: 15

>  <atom.prop.CHAIN_ID>  (998) 
A A A A A A A A A A A Z Z Z Z Z Z Z Z Z Z Z Z Z Z Z

>  <atom.prop.IS_HEAVY_ATOM>  (998) 
1 0 0 0 1 0 0 1 0 0 0 1 0 0 0 1 1 0 1 0 1 0 1 0 1 0

>  <DIFUSE_FUNC_ATOM>  (998) 
n/a

>  <FINAL_SINGLE_POINT_ENERGY>  (998) 
0

>  <NONCOV_INTER_ENERGY_QM>  (998) 
0

>  <FF_Energy>  (998) 
-6.8

>  <QM_Energy>  (998) 
-13.62

>  <source>  (998) 
ETAM_MBZ

>  <Index>  (998) 
9859

$$$$
ETAM-pdb2vkh-B-LYS-455:MBZ-pdb2vkh-B-PHE-424
     RDKit          3D

 26 25  0  0  0  0  0  0  0  0999 V2000
    0.4684   -5.5038   -1.6652 C   0  0  0  0  0  0  0  0  0  0  0  0
    0.2879   -6.3808   -1.2136 H   0  0  0  0  0  0  0  0  0  0  0  0
    0.7775   -5.6752   -2.6031 H   0  0  0  0  0  0  0  0  0  0  0  0
   -0.4497   -4.9169   -1.6898 H   0  0  0  0  0  0  0  0  0  0  0  0
    1.6250   -4.8161   -0.9087 C   0  0  0  0  0  0  0  0  0  0  0  0
    1.2905   -4.5136   -0.0182 H   0  0  0  0  0  0  0  0  0  0  0  0
    2.3635   -5.4770   -0.7833 H   0  0  0  0  0  0  0  0  0  0  0  0
    2.1574   -3.6216   -1.6652 N   0  0  0  0  0  4  0  0  0  0  0  0
    1.5414   -3.4214   -2.4223 H   0  0  0  0  0  0  0  0  0  0  0  0
    2.2037   -2.8437   -1.0444 H   0  0  0  0  0  0  0  0  0  0  0  0
    3.0656   -3.8404   -2.0103 H   0  0  0  0  0  0  0  0  0  0  0  0
    0.0079    2.9474   -0.0088 C   0  0  0  0  0  0  0  0  0  0  0  0
   -0.5938    3.2423   -0.7365 H   0  0  0  0  0  0  0  0  0  0  0  0
    0.9380    3.2403   -0.1707 H   0  0  0  0  0  0  0  0  0  0  0  0
   -0.3326    3.4158    0.9146 H   0  0  0  0  0  0  0  0  0  0  0  0
   -0.0005    1.4244    0.0103 C   0  0  0  0  0  0  0  0  0  0  0  0
   -1.2066    0.7047   -0.0080 C   0  0  0  0  0  0  0  0  0  0  0  0
   -2.0719    1.1853   -0.0284 H   0  0  0  0  0  0  0  0  0  0  0  0
   -1.2081   -0.7098    0.0000 C   0  0  0  0  0  0  0  0  0  0  0  0
   -2.0818   -1.1978    0.0124 H   0  0  0  0  0  0  0  0  0  0  0  0
    0.0058   -1.4155   -0.0067 C   0  0  0  0  0  0  0  0  0  0  0  0
   -0.0020   -2.4086   -0.0173 H   0  0  0  0  0  0  0  0  0  0  0  0
    1.2081   -0.7124   -0.0000 C   0  0  0  0  0  0  0  0  0  0  0  0
    2.0926   -1.1946    0.0033 H   0  0  0  0  0  0  0  0  0  0  0  0
    1.2013    0.7086    0.0045 C   0  0  0  0  0  0  0  0  0  0  0  0
    2.0707    1.1929    0.0025 H   0  0  0  0  0  0  0  0  0  0  0  0
  1  5  1  0
  5  8  1  0
  1  2  1  0
  1  3  1  0
  1  4  1  0
  5  6  1  0
  5  7  1  0
  8  9  1  0
  8 10  1  0
  8 11  1  0
 12 16  1  0
 16 17  2  0
 17 19  1  0
 19 21  2  0
 21 23  1  0
 23 25  2  0
 25 16  1  0
 12 13  1  0
 12 14  1  0
 12 15  1  0
 17 18  1  0
 19 20  1  0
 21 22  1  0
 23 24  1  0
 25 26  1  0
M  CHG  1   8   1
M  END
>  <PDB_ID>  (999) 
pdb2vkh

>  <RESIDUE_NAME>  (999) 
LYS   PHE

>  <FRAG_NAME>  (999) 
ETAM   MBZ

>  <FRAG_ATOM_NUM>  (999) 
fragi: 11  fragj: 15

>  <atom.prop.CHAIN_ID>  (999) 
A A A A A A A A A A A Z Z Z Z Z Z Z Z Z Z Z Z Z Z Z

>  <atom.prop.IS_HEAVY_ATOM>  (999) 
1 0 0 0 1 0 0 1 0 0 0 1 0 0 0 1 1 0 1 0 1 0 1 0 1 0

>  <DIFUSE_FUNC_ATOM>  (999) 
n/a

>  <FINAL_SINGLE_POINT_ENERGY>  (999) 
0

>  <NONCOV_INTER_ENERGY_QM>  (999) 
0

>  <FF_Energy>  (999) 
0.09

>  <QM_Energy>  (999) 
-6.2

>  <source>  (999) 
ETAM_MBZ

>  <Index>  (999) 
9861

$$$$
ETAM-pdb2vl7-A-LYS-34:MBZ-pdb2vl7-A-PHE-506
     RDKit          3D

 26 25  0  0  0  0  0  0  0  0999 V2000
    5.8889   -0.8438   -2.7588 C   0  0  0  0  0  0  0  0  0  0  0  0
    6.0724   -1.7526   -2.4138 H   0  0  0  0  0  0  0  0  0  0  0  0
    6.4396   -0.1658   -2.2959 H   0  0  0  0  0  0  0  0  0  0  0  0
    6.1259   -0.8202   -3.8224 H   0  0  0  0  0  0  0  0  0  0  0  0
    4.4143   -0.5192   -2.5282 C   0  0  0  0  0  0  0  0  0  0  0  0
    4.1834    0.3126   -3.0352 H   0  0  0  0  0  0  0  0  0  0  0  0
    3.8594   -1.2789   -2.8693 H   0  0  0  0  0  0  0  0  0  0  0  0
    4.1208   -0.3085   -1.0801 N   0  0  0  0  0  4  0  0  0  0  0  0
    4.1468    0.6692   -0.8776 H   0  0  0  0  0  0  0  0  0  0  0  0
    3.2141   -0.6712   -0.8719 H   0  0  0  0  0  0  0  0  0  0  0  0
    4.8074   -0.7838   -0.5321 H   0  0  0  0  0  0  0  0  0  0  0  0
   -0.0039    2.9048    0.0033 C   0  0  0  0  0  0  0  0  0  0  0  0
    0.8208    3.2128    0.4567 H   0  0  0  0  0  0  0  0  0  0  0  0
   -0.8123    3.2094    0.4876 H   0  0  0  0  0  0  0  0  0  0  0  0
   -0.0238    3.3608   -0.9865 H   0  0  0  0  0  0  0  0  0  0  0  0
   -0.0011    1.4024   -0.0046 C   0  0  0  0  0  0  0  0  0  0  0  0
   -1.1947    0.6948   -0.0039 C   0  0  0  0  0  0  0  0  0  0  0  0
   -2.0622    1.1859   -0.0077 H   0  0  0  0  0  0  0  0  0  0  0  0
   -1.1996   -0.6925    0.0000 C   0  0  0  0  0  0  0  0  0  0  0  0
   -2.0775   -1.1872    0.0023 H   0  0  0  0  0  0  0  0  0  0  0  0
    0.0003   -1.3938    0.0025 C   0  0  0  0  0  0  0  0  0  0  0  0
   -0.0100   -2.3928    0.0058 H   0  0  0  0  0  0  0  0  0  0  0  0
    1.1996   -0.7036    0.0000 C   0  0  0  0  0  0  0  0  0  0  0  0
    2.0814   -1.1981   -0.0045 H   0  0  0  0  0  0  0  0  0  0  0  0
    1.1955    0.6928    0.0060 C   0  0  0  0  0  0  0  0  0  0  0  0
    2.0644    1.1862    0.0169 H   0  0  0  0  0  0  0  0  0  0  0  0
  1  5  1  0
  5  8  1  0
  1  2  1  0
  1  3  1  0
  1  4  1  0
  5  6  1  0
  5  7  1  0
  8  9  1  0
  8 10  1  0
  8 11  1  0
 12 16  1  0
 16 17  2  0
 17 19  1  0
 19 21  2  0
 21 23  1  0
 23 25  2  0
 25 16  1  0
 12 13  1  0
 12 14  1  0
 12 15  1  0
 17 18  1  0
 19 20  1  0
 21 22  1  0
 23 24  1  0
 25 26  1  0
M  CHG  1   8   1
M  END
>  <PDB_ID>  (1000) 
pdb2vl7

>  <RESIDUE_NAME>  (1000) 
LYS   PHE

>  <FRAG_NAME>  (1000) 
ETAM   MBZ

>  <FRAG_ATOM_NUM>  (1000) 
fragi: 11  fragj: 15

>  <atom.prop.CHAIN_ID>  (1000) 
A A A A A A A A A A A Z Z Z Z Z Z Z Z Z Z Z Z Z Z Z

>  <atom.prop.IS_HEAVY_ATOM>  (1000) 
1 0 0 0 1 0 0 1 0 0 0 1 0 0 0 1 1 0 1 0 1 0 1 0 1 0

>  <DIFUSE_FUNC_ATOM>  (1000) 
n/a

>  <FINAL_SINGLE_POINT_ENERGY>  (1000) 
0

>  <NONCOV_INTER_ENERGY_QM>  (1000) 
0

>  <FF_Energy>  (1000) 
3.03

>  <QM_Energy>  (1000) 
-3.67

>  <source>  (1000) 
ETAM_MBZ

>  <Index>  (1000) 
9879

$$$$
ETAM-pdb1p1l-A-LYS-57:MBZ-pdb1p1l-A-PHE-4
     RDKit          3D

 26 25  0  0  0  0  0  0  0  0999 V2000
    2.9438   -2.7803   -2.8416 C   0  0  0  0  0  0  0  0  0  0  0  0
    3.7957   -3.2411   -3.0539 H   0  0  0  0  0  0  0  0  0  0  0  0
    2.6107   -3.0487   -1.9469 H   0  0  0  0  0  0  0  0  0  0  0  0
    3.1112   -1.7032   -2.8509 H   0  0  0  0  0  0  0  0  0  0  0  0
    1.9067   -3.1744   -3.8826 C   0  0  0  0  0  0  0  0  0  0  0  0
    2.2767   -2.9951   -4.7929 H   0  0  0  0  0  0  0  0  0  0  0  0
    1.7053   -4.1476   -3.7875 H   0  0  0  0  0  0  0  0  0  0  0  0
    0.6550   -2.3930   -3.6976 N   0  0  0  0  0  4  0  0  0  0  0  0
   -0.1025   -2.8686   -4.1431 H   0  0  0  0  0  0  0  0  0  0  0  0
    0.4634   -2.2997   -2.7209 H   0  0  0  0  0  0  0  0  0  0  0  0
    0.7654   -1.4863   -4.1046 H   0  0  0  0  0  0  0  0  0  0  0  0
    0.0056    2.9053    0.0018 C   0  0  0  0  0  0  0  0  0  0  0  0
   -0.4979    3.2166    0.7933 H   0  0  0  0  0  0  0  0  0  0  0  0
   -0.4160    3.2128   -0.8377 H   0  0  0  0  0  0  0  0  0  0  0  0
    1.0033    3.3416    0.0505 H   0  0  0  0  0  0  0  0  0  0  0  0
   -0.0008    1.4041    0.0047 C   0  0  0  0  0  0  0  0  0  0  0  0
   -1.1950    0.6991   -0.0005 C   0  0  0  0  0  0  0  0  0  0  0  0
   -2.0634    1.1839   -0.0056 H   0  0  0  0  0  0  0  0  0  0  0  0
   -1.1999   -0.7017   -0.0000 C   0  0  0  0  0  0  0  0  0  0  0  0
   -2.0754   -1.1910    0.0045 H   0  0  0  0  0  0  0  0  0  0  0  0
    0.0038   -1.3935   -0.0041 C   0  0  0  0  0  0  0  0  0  0  0  0
   -0.0013   -2.3950   -0.0109 H   0  0  0  0  0  0  0  0  0  0  0  0
    1.1999   -0.7015    0.0000 C   0  0  0  0  0  0  0  0  0  0  0  0
    2.0832   -1.1933    0.0051 H   0  0  0  0  0  0  0  0  0  0  0  0
    1.1920    0.6935   -0.0000 C   0  0  0  0  0  0  0  0  0  0  0  0
    2.0634    1.1877   -0.0041 H   0  0  0  0  0  0  0  0  0  0  0  0
  1  5  1  0
  5  8  1  0
  1  2  1  0
  1  3  1  0
  1  4  1  0
  5  6  1  0
  5  7  1  0
  8  9  1  0
  8 10  1  0
  8 11  1  0
 12 16  1  0
 16 17  2  0
 17 19  1  0
 19 21  2  0
 21 23  1  0
 23 25  2  0
 25 16  1  0
 12 13  1  0
 12 14  1  0
 12 15  1  0
 17 18  1  0
 19 20  1  0
 21 22  1  0
 23 24  1  0
 25 26  1  0
M  CHG  1   8   1
M  END
>  <PDB_ID>  (1001) 
pdb1p1l

>  <RESIDUE_NAME>  (1001) 
LYS   PHE

>  <FRAG_NAME>  (1001) 
ETAM   MBZ

>  <FRAG_ATOM_NUM>  (1001) 
fragi: 11  fragj: 15

>  <atom.prop.CHAIN_ID>  (1001) 
A A A A A A A A A A A Z Z Z Z Z Z Z Z Z Z Z Z Z Z Z

>  <atom.prop.IS_HEAVY_ATOM>  (1001) 
1 0 0 0 1 0 0 1 0 0 0 1 0 0 0 1 1 0 1 0 1 0 1 0 1 0

>  <DIFUSE_FUNC_ATOM>  (1001) 
n/a

>  <FINAL_SINGLE_POINT_ENERGY>  (1001) 
0

>  <NONCOV_INTER_ENERGY_QM>  (1001) 
0

>  <FF_Energy>  (1001) 
-3.74

>  <QM_Energy>  (1001) 
-8.8

>  <source>  (1001) 
ETAM_MBZ

>  <Index>  (1001) 
9910

$$$$
ETAM-pdb1p5h-B-LYS-327:MBZ-pdb1p5h-B-PHE-323
     RDKit          3D

 26 25  0  0  0  0  0  0  0  0999 V2000
    1.5129   -2.5063    4.5169 C   0  0  0  0  0  0  0  0  0  0  0  0
    0.7572   -2.7491    5.1163 H   0  0  0  0  0  0  0  0  0  0  0  0
    1.2932   -1.6856    3.9986 H   0  0  0  0  0  0  0  0  0  0  0  0
    2.3940   -2.3094    5.1276 H   0  0  0  0  0  0  0  0  0  0  0  0
    1.7448   -3.6523    3.5384 C   0  0  0  0  0  0  0  0  0  0  0  0
    2.7079   -3.9136    3.5703 H   0  0  0  0  0  0  0  0  0  0  0  0
    1.1757   -4.4267    3.8079 H   0  0  0  0  0  0  0  0  0  0  0  0
    1.3910   -3.2358    2.1591 N   0  0  0  0  0  4  0  0  0  0  0  0
    1.0454   -2.2964    2.1721 H   0  0  0  0  0  0  0  0  0  0  0  0
    2.2032   -3.2836    1.5774 H   0  0  0  0  0  0  0  0  0  0  0  0
    0.6853   -3.8453    1.7968 H   0  0  0  0  0  0  0  0  0  0  0  0
   -0.0091    2.8856    0.0408 C   0  0  0  0  0  0  0  0  0  0  0  0
   -0.7230    3.2121   -0.5545 H   0  0  0  0  0  0  0  0  0  0  0  0
    0.8789    3.2109   -0.2366 H   0  0  0  0  0  0  0  0  0  0  0  0
   -0.2071    3.2705    1.0412 H   0  0  0  0  0  0  0  0  0  0  0  0
   -0.0012    1.3960   -0.0075 C   0  0  0  0  0  0  0  0  0  0  0  0
   -1.1967    0.6940    0.0096 C   0  0  0  0  0  0  0  0  0  0  0  0
   -2.0626    1.1862    0.0275 H   0  0  0  0  0  0  0  0  0  0  0  0
   -1.2026   -0.6933   -0.0000 C   0  0  0  0  0  0  0  0  0  0  0  0
   -2.0780   -1.1879   -0.0006 H   0  0  0  0  0  0  0  0  0  0  0  0
   -0.0004   -1.3897   -0.0073 C   0  0  0  0  0  0  0  0  0  0  0  0
   -0.0055   -2.3891   -0.0182 H   0  0  0  0  0  0  0  0  0  0  0  0
    1.2026   -0.6960    0.0000 C   0  0  0  0  0  0  0  0  0  0  0  0
    2.0821   -1.1971    0.0035 H   0  0  0  0  0  0  0  0  0  0  0  0
    1.1982    0.6889    0.0053 C   0  0  0  0  0  0  0  0  0  0  0  0
    2.0643    1.1893    0.0173 H   0  0  0  0  0  0  0  0  0  0  0  0
  1  5  1  0
  5  8  1  0
  1  2  1  0
  1  3  1  0
  1  4  1  0
  5  6  1  0
  5  7  1  0
  8  9  1  0
  8 10  1  0
  8 11  1  0
 12 16  1  0
 16 17  2  0
 17 19  1  0
 19 21  2  0
 21 23  1  0
 23 25  2  0
 25 16  1  0
 12 13  1  0
 12 14  1  0
 12 15  1  0
 17 18  1  0
 19 20  1  0
 21 22  1  0
 23 24  1  0
 25 26  1  0
M  CHG  1   8   1
M  END
>  <PDB_ID>  (1002) 
pdb1p5h

>  <RESIDUE_NAME>  (1002) 
LYS   PHE

>  <FRAG_NAME>  (1002) 
ETAM   MBZ

>  <FRAG_ATOM_NUM>  (1002) 
fragi: 11  fragj: 15

>  <atom.prop.CHAIN_ID>  (1002) 
A A A A A A A A A A A Z Z Z Z Z Z Z Z Z Z Z Z Z Z Z

>  <atom.prop.IS_HEAVY_ATOM>  (1002) 
1 0 0 0 1 0 0 1 0 0 0 1 0 0 0 1 1 0 1 0 1 0 1 0 1 0

>  <DIFUSE_FUNC_ATOM>  (1002) 
n/a

>  <FINAL_SINGLE_POINT_ENERGY>  (1002) 
0

>  <NONCOV_INTER_ENERGY_QM>  (1002) 
0

>  <FF_Energy>  (1002) 
-0.85

>  <QM_Energy>  (1002) 
-8.41

>  <source>  (1002) 
ETAM_MBZ

>  <Index>  (1002) 
9930

$$$$
ETAM-pdb2voa-B-LYS-163:MBZ-pdb2voa-B-PHE-168
     RDKit          3D

 26 25  0  0  0  0  0  0  0  0999 V2000
    5.1896   -1.0808    2.8827 C   0  0  0  0  0  0  0  0  0  0  0  0
    5.6118   -1.9057    3.2446 H   0  0  0  0  0  0  0  0  0  0  0  0
    4.9222   -0.4743    3.6248 H   0  0  0  0  0  0  0  0  0  0  0  0
    5.9176   -0.5644    2.2571 H   0  0  0  0  0  0  0  0  0  0  0  0
    3.9509   -1.4691    2.0962 C   0  0  0  0  0  0  0  0  0  0  0  0
    3.7108   -0.7152    1.4731 H   0  0  0  0  0  0  0  0  0  0  0  0
    4.1586   -2.2837    1.5416 H   0  0  0  0  0  0  0  0  0  0  0  0
    2.7865   -1.7637    2.9736 N   0  0  0  0  0  4  0  0  0  0  0  0
    2.6278   -2.7508    2.9955 H   0  0  0  0  0  0  0  0  0  0  0  0
    2.9763   -1.4352    3.8988 H   0  0  0  0  0  0  0  0  0  0  0  0
    1.9750   -1.3027    2.6152 H   0  0  0  0  0  0  0  0  0  0  0  0
   -0.0009    2.9239    0.0112 C   0  0  0  0  0  0  0  0  0  0  0  0
   -0.4874    3.2328   -0.7895 H   0  0  0  0  0  0  0  0  0  0  0  0
    0.9368    3.2318    0.0097 H   0  0  0  0  0  0  0  0  0  0  0  0
   -0.4894    3.3601    0.8825 H   0  0  0  0  0  0  0  0  0  0  0  0
    0.0024    1.4114    0.0019 C   0  0  0  0  0  0  0  0  0  0  0  0
   -1.1989    0.6959    0.0023 C   0  0  0  0  0  0  0  0  0  0  0  0
   -2.0657    1.1839    0.0026 H   0  0  0  0  0  0  0  0  0  0  0  0
   -1.2061   -0.7050    0.0000 C   0  0  0  0  0  0  0  0  0  0  0  0
   -2.0831   -1.1927    0.0033 H   0  0  0  0  0  0  0  0  0  0  0  0
   -0.0042   -1.4029   -0.0054 C   0  0  0  0  0  0  0  0  0  0  0  0
   -0.0034   -2.3985   -0.0131 H   0  0  0  0  0  0  0  0  0  0  0  0
    1.2061   -0.7004   -0.0000 C   0  0  0  0  0  0  0  0  0  0  0  0
    2.0849   -1.1959    0.0048 H   0  0  0  0  0  0  0  0  0  0  0  0
    1.2006    0.7010    0.0011 C   0  0  0  0  0  0  0  0  0  0  0  0
    2.0697    1.1933    0.0003 H   0  0  0  0  0  0  0  0  0  0  0  0
  1  5  1  0
  5  8  1  0
  1  2  1  0
  1  3  1  0
  1  4  1  0
  5  6  1  0
  5  7  1  0
  8  9  1  0
  8 10  1  0
  8 11  1  0
 12 16  1  0
 16 17  2  0
 17 19  1  0
 19 21  2  0
 21 23  1  0
 23 25  2  0
 25 16  1  0
 12 13  1  0
 12 14  1  0
 12 15  1  0
 17 18  1  0
 19 20  1  0
 21 22  1  0
 23 24  1  0
 25 26  1  0
M  CHG  1   8   1
M  END
>  <PDB_ID>  (1003) 
pdb2voa

>  <RESIDUE_NAME>  (1003) 
LYS   PHE

>  <FRAG_NAME>  (1003) 
ETAM   MBZ

>  <FRAG_ATOM_NUM>  (1003) 
fragi: 11  fragj: 15

>  <atom.prop.CHAIN_ID>  (1003) 
A A A A A A A A A A A Z Z Z Z Z Z Z Z Z Z Z Z Z Z Z

>  <atom.prop.IS_HEAVY_ATOM>  (1003) 
1 0 0 0 1 0 0 1 0 0 0 1 0 0 0 1 1 0 1 0 1 0 1 0 1 0

>  <DIFUSE_FUNC_ATOM>  (1003) 
n/a

>  <FINAL_SINGLE_POINT_ENERGY>  (1003) 
0

>  <NONCOV_INTER_ENERGY_QM>  (1003) 
0

>  <FF_Energy>  (1003) 
-2.23

>  <QM_Energy>  (1003) 
-8.27

>  <source>  (1003) 
ETAM_MBZ

>  <Index>  (1003) 
9942

$$$$
ETAM-pdb1p5t-A-LYS-35:MBZ-pdb1p5t-A-PHE-53
     RDKit          3D

 26 25  0  0  0  0  0  0  0  0999 V2000
    2.3899    1.8058   -2.8314 C   0  0  0  0  0  0  0  0  0  0  0  0
    3.0500    1.5042   -2.1402 H   0  0  0  0  0  0  0  0  0  0  0  0
    1.8436    2.5582   -2.4578 H   0  0  0  0  0  0  0  0  0  0  0  0
    2.9315    2.1606   -3.7082 H   0  0  0  0  0  0  0  0  0  0  0  0
    1.4670    0.6547   -3.1470 C   0  0  0  0  0  0  0  0  0  0  0  0
    1.1332    0.2572   -2.3110 H   0  0  0  0  0  0  0  0  0  0  0  0
    0.7355    0.9647   -3.7276 H   0  0  0  0  0  0  0  0  0  0  0  0
    2.2787   -0.3687   -3.8863 N   0  0  0  0  0  4  0  0  0  0  0  0
    1.8649   -1.2677   -3.7577 H   0  0  0  0  0  0  0  0  0  0  0  0
    2.2905   -0.1360   -4.8561 H   0  0  0  0  0  0  0  0  0  0  0  0
    3.2089   -0.3684   -3.5254 H   0  0  0  0  0  0  0  0  0  0  0  0
    0.0055    2.8901   -0.0290 C   0  0  0  0  0  0  0  0  0  0  0  0
   -0.8983    3.2176    0.2147 H   0  0  0  0  0  0  0  0  0  0  0  0
    0.2555    3.1912   -0.9398 H   0  0  0  0  0  0  0  0  0  0  0  0
    0.7105    3.3475    0.6651 H   0  0  0  0  0  0  0  0  0  0  0  0
    0.0017    1.4129    0.0005 C   0  0  0  0  0  0  0  0  0  0  0  0
   -1.2028    0.7141   -0.0022 C   0  0  0  0  0  0  0  0  0  0  0  0
   -2.0659    1.2053   -0.0071 H   0  0  0  0  0  0  0  0  0  0  0  0
   -1.2234   -0.6949    0.0000 C   0  0  0  0  0  0  0  0  0  0  0  0
   -2.0957   -1.1794    0.0031 H   0  0  0  0  0  0  0  0  0  0  0  0
   -0.0042   -1.4218   -0.0002 C   0  0  0  0  0  0  0  0  0  0  0  0
   -0.0160   -2.4057   -0.0009 H   0  0  0  0  0  0  0  0  0  0  0  0
    1.2234   -0.7137   -0.0000 C   0  0  0  0  0  0  0  0  0  0  0  0
    2.0935   -1.2023    0.0004 H   0  0  0  0  0  0  0  0  0  0  0  0
    1.2053    0.7033    0.0019 C   0  0  0  0  0  0  0  0  0  0  0  0
    2.0734    1.1957    0.0032 H   0  0  0  0  0  0  0  0  0  0  0  0
  1  5  1  0
  5  8  1  0
  1  2  1  0
  1  3  1  0
  1  4  1  0
  5  6  1  0
  5  7  1  0
  8  9  1  0
  8 10  1  0
  8 11  1  0
 12 16  1  0
 16 17  2  0
 17 19  1  0
 19 21  2  0
 21 23  1  0
 23 25  2  0
 25 16  1  0
 12 13  1  0
 12 14  1  0
 12 15  1  0
 17 18  1  0
 19 20  1  0
 21 22  1  0
 23 24  1  0
 25 26  1  0
M  CHG  1   8   1
M  END
>  <PDB_ID>  (1004) 
pdb1p5t

>  <RESIDUE_NAME>  (1004) 
LYS   PHE

>  <FRAG_NAME>  (1004) 
ETAM   MBZ

>  <FRAG_ATOM_NUM>  (1004) 
fragi: 11  fragj: 15

>  <atom.prop.CHAIN_ID>  (1004) 
A A A A A A A A A A A Z Z Z Z Z Z Z Z Z Z Z Z Z Z Z

>  <atom.prop.IS_HEAVY_ATOM>  (1004) 
1 0 0 0 1 0 0 1 0 0 0 1 0 0 0 1 1 0 1 0 1 0 1 0 1 0

>  <DIFUSE_FUNC_ATOM>  (1004) 
n/a

>  <FINAL_SINGLE_POINT_ENERGY>  (1004) 
0

>  <NONCOV_INTER_ENERGY_QM>  (1004) 
0

>  <FF_Energy>  (1004) 
-0.71

>  <QM_Energy>  (1004) 
-7.76

>  <source>  (1004) 
ETAM_MBZ

>  <Index>  (1004) 
9964

$$$$
ETAM-pdb1p9o-B-LYS-46:MBZ-pdb1p9o-B-PHE-56
     RDKit          3D

 26 25  0  0  0  0  0  0  0  0999 V2000
    0.3398    1.1558    3.7902 C   0  0  0  0  0  0  0  0  0  0  0  0
    0.8227    1.7924    3.2009 H   0  0  0  0  0  0  0  0  0  0  0  0
    0.7167    1.1738    4.7087 H   0  0  0  0  0  0  0  0  0  0  0  0
   -0.7073    1.4546    3.8386 H   0  0  0  0  0  0  0  0  0  0  0  0
    0.5067   -0.2595    3.2216 C   0  0  0  0  0  0  0  0  0  0  0  0
   -0.0261   -0.8962    3.7921 H   0  0  0  0  0  0  0  0  0  0  0  0
    0.1254   -0.2754    2.2891 H   0  0  0  0  0  0  0  0  0  0  0  0
    1.9244   -0.7034    3.1809 N   0  0  0  0  0  4  0  0  0  0  0  0
    2.4963   -0.0340    3.6555 H   0  0  0  0  0  0  0  0  0  0  0  0
    2.0076   -1.5926    3.6307 H   0  0  0  0  0  0  0  0  0  0  0  0
    2.2212   -0.7810    2.2292 H   0  0  0  0  0  0  0  0  0  0  0  0
   -0.0043    2.8888    0.1405 C   0  0  0  0  0  0  0  0  0  0  0  0
    0.7798    3.1556    0.6948 H   0  0  0  0  0  0  0  0  0  0  0  0
   -0.8499    3.1616    0.5930 H   0  0  0  0  0  0  0  0  0  0  0  0
    0.0565    3.4455   -0.7946 H   0  0  0  0  0  0  0  0  0  0  0  0
   -0.0017    1.4093    0.0057 C   0  0  0  0  0  0  0  0  0  0  0  0
   -1.1986    0.7051   -0.0064 C   0  0  0  0  0  0  0  0  0  0  0  0
   -2.0662    1.1899   -0.0207 H   0  0  0  0  0  0  0  0  0  0  0  0
   -1.2086   -0.7014   -0.0000 C   0  0  0  0  0  0  0  0  0  0  0  0
   -2.0852   -1.1876    0.0039 H   0  0  0  0  0  0  0  0  0  0  0  0
   -0.0014   -1.4093    0.0020 C   0  0  0  0  0  0  0  0  0  0  0  0
   -0.0062   -2.4005    0.0044 H   0  0  0  0  0  0  0  0  0  0  0  0
    1.2086   -0.7036    0.0000 C   0  0  0  0  0  0  0  0  0  0  0  0
    2.0873   -1.1968    0.0010 H   0  0  0  0  0  0  0  0  0  0  0  0
    1.2017    0.6999   -0.0013 C   0  0  0  0  0  0  0  0  0  0  0  0
    2.0671    1.1938   -0.0080 H   0  0  0  0  0  0  0  0  0  0  0  0
  1  5  1  0
  5  8  1  0
  1  2  1  0
  1  3  1  0
  1  4  1  0
  5  6  1  0
  5  7  1  0
  8  9  1  0
  8 10  1  0
  8 11  1  0
 12 16  1  0
 16 17  2  0
 17 19  1  0
 19 21  2  0
 21 23  1  0
 23 25  2  0
 25 16  1  0
 12 13  1  0
 12 14  1  0
 12 15  1  0
 17 18  1  0
 19 20  1  0
 21 22  1  0
 23 24  1  0
 25 26  1  0
M  CHG  1   8   1
M  END
>  <PDB_ID>  (1005) 
pdb1p9o

>  <RESIDUE_NAME>  (1005) 
LYS   PHE

>  <FRAG_NAME>  (1005) 
ETAM   MBZ

>  <FRAG_ATOM_NUM>  (1005) 
fragi: 11  fragj: 15

>  <atom.prop.CHAIN_ID>  (1005) 
A A A A A A A A A A A Z Z Z Z Z Z Z Z Z Z Z Z Z Z Z

>  <atom.prop.IS_HEAVY_ATOM>  (1005) 
1 0 0 0 1 0 0 1 0 0 0 1 0 0 0 1 1 0 1 0 1 0 1 0 1 0

>  <DIFUSE_FUNC_ATOM>  (1005) 
n/a

>  <FINAL_SINGLE_POINT_ENERGY>  (1005) 
0

>  <NONCOV_INTER_ENERGY_QM>  (1005) 
0

>  <FF_Energy>  (1005) 
-4.12

>  <QM_Energy>  (1005) 
-13.65

>  <source>  (1005) 
ETAM_MBZ

>  <Index>  (1005) 
9970

$$$$
ETAM-pdb1p9o-A-LYS-46:MBZ-pdb1p9o-A-PHE-56
     RDKit          3D

 26 25  0  0  0  0  0  0  0  0999 V2000
   -0.4406    1.5820    3.5335 C   0  0  0  0  0  0  0  0  0  0  0  0
    0.0375    2.1514    2.8810 H   0  0  0  0  0  0  0  0  0  0  0  0
   -0.1590    1.7855    4.4600 H   0  0  0  0  0  0  0  0  0  0  0  0
   -1.5093    1.7775    3.4448 H   0  0  0  0  0  0  0  0  0  0  0  0
   -0.1313    0.1211    3.2337 C   0  0  0  0  0  0  0  0  0  0  0  0
   -0.6564   -0.4579    3.8649 H   0  0  0  0  0  0  0  0  0  0  0  0
   -0.4186   -0.0854    2.2934 H   0  0  0  0  0  0  0  0  0  0  0  0
    1.3186   -0.1875    3.3793 N   0  0  0  0  0  4  0  0  0  0  0  0
    1.8543    0.5058    2.8994 H   0  0  0  0  0  0  0  0  0  0  0  0
    1.5609   -0.1868    4.3488 H   0  0  0  0  0  0  0  0  0  0  0  0
    1.5066   -1.0876    2.9872 H   0  0  0  0  0  0  0  0  0  0  0  0
   -0.0045    2.9035    0.0879 C   0  0  0  0  0  0  0  0  0  0  0  0
    0.8566    3.1912    0.4869 H   0  0  0  0  0  0  0  0  0  0  0  0
   -0.7683    3.1811    0.6562 H   0  0  0  0  0  0  0  0  0  0  0  0
   -0.1076    3.4142   -0.8695 H   0  0  0  0  0  0  0  0  0  0  0  0
   -0.0038    1.4055    0.0020 C   0  0  0  0  0  0  0  0  0  0  0  0
   -1.1989    0.6957   -0.0020 C   0  0  0  0  0  0  0  0  0  0  0  0
   -2.0672    1.1806   -0.0077 H   0  0  0  0  0  0  0  0  0  0  0  0
   -1.2044   -0.7056   -0.0000 C   0  0  0  0  0  0  0  0  0  0  0  0
   -2.0754   -1.1989    0.0009 H   0  0  0  0  0  0  0  0  0  0  0  0
    0.0103   -1.4048    0.0032 C   0  0  0  0  0  0  0  0  0  0  0  0
    0.0077   -2.3978    0.0075 H   0  0  0  0  0  0  0  0  0  0  0  0
    1.2044   -0.6945   -0.0000 C   0  0  0  0  0  0  0  0  0  0  0  0
    2.0919   -1.1827    0.0013 H   0  0  0  0  0  0  0  0  0  0  0  0
    1.1924    0.7037   -0.0033 C   0  0  0  0  0  0  0  0  0  0  0  0
    2.0609    1.2001   -0.0102 H   0  0  0  0  0  0  0  0  0  0  0  0
  1  5  1  0
  5  8  1  0
  1  2  1  0
  1  3  1  0
  1  4  1  0
  5  6  1  0
  5  7  1  0
  8  9  1  0
  8 10  1  0
  8 11  1  0
 12 16  1  0
 16 17  2  0
 17 19  1  0
 19 21  2  0
 21 23  1  0
 23 25  2  0
 25 16  1  0
 12 13  1  0
 12 14  1  0
 12 15  1  0
 17 18  1  0
 19 20  1  0
 21 22  1  0
 23 24  1  0
 25 26  1  0
M  CHG  1   8   1
M  END
>  <PDB_ID>  (1006) 
pdb1p9o

>  <RESIDUE_NAME>  (1006) 
LYS   PHE

>  <FRAG_NAME>  (1006) 
ETAM   MBZ

>  <FRAG_ATOM_NUM>  (1006) 
fragi: 11  fragj: 15

>  <atom.prop.CHAIN_ID>  (1006) 
A A A A A A A A A A A Z Z Z Z Z Z Z Z Z Z Z Z Z Z Z

>  <atom.prop.IS_HEAVY_ATOM>  (1006) 
1 0 0 0 1 0 0 1 0 0 0 1 0 0 0 1 1 0 1 0 1 0 1 0 1 0

>  <DIFUSE_FUNC_ATOM>  (1006) 
n/a

>  <FINAL_SINGLE_POINT_ENERGY>  (1006) 
0

>  <NONCOV_INTER_ENERGY_QM>  (1006) 
0

>  <FF_Energy>  (1006) 
-5.11

>  <QM_Energy>  (1006) 
-14.16

>  <source>  (1006) 
ETAM_MBZ

>  <Index>  (1006) 
9980

$$$$
ETAM-pdb2vq5-B-LYS-122:MBZ-pdb2vq5-B-PHE-112
     RDKit          3D

 26 25  0  0  0  0  0  0  0  0999 V2000
   -1.5952   -2.7987   -3.2447 C   0  0  0  0  0  0  0  0  0  0  0  0
   -1.1895   -3.5248   -2.6941 H   0  0  0  0  0  0  0  0  0  0  0  0
   -1.8200   -3.1439   -4.1526 H   0  0  0  0  0  0  0  0  0  0  0  0
   -2.5128   -2.4651   -2.7603 H   0  0  0  0  0  0  0  0  0  0  0  0
   -0.5921   -1.6761   -3.3853 C   0  0  0  0  0  0  0  0  0  0  0  0
   -1.0108   -0.9172   -3.8744 H   0  0  0  0  0  0  0  0  0  0  0  0
   -0.2968   -1.3796   -2.4815 H   0  0  0  0  0  0  0  0  0  0  0  0
    0.6030   -2.1501   -4.1554 N   0  0  0  0  0  4  0  0  0  0  0  0
    1.3935   -1.5956   -3.9046 H   0  0  0  0  0  0  0  0  0  0  0  0
    0.7762   -3.1074   -3.9327 H   0  0  0  0  0  0  0  0  0  0  0  0
    0.4197   -2.0571   -5.1322 H   0  0  0  0  0  0  0  0  0  0  0  0
    0.0430    2.9033    0.0160 C   0  0  0  0  0  0  0  0  0  0  0  0
    0.6583    3.2025   -0.7040 H   0  0  0  0  0  0  0  0  0  0  0  0
    0.3832    3.1873    0.9050 H   0  0  0  0  0  0  0  0  0  0  0  0
   -0.9200    3.3880   -0.1442 H   0  0  0  0  0  0  0  0  0  0  0  0
    0.0036    1.4023   -0.0041 C   0  0  0  0  0  0  0  0  0  0  0  0
   -1.2112    0.6997    0.0061 C   0  0  0  0  0  0  0  0  0  0  0  0
   -2.0656    1.2015    0.0165 H   0  0  0  0  0  0  0  0  0  0  0  0
   -1.2174   -0.6825   -0.0000 C   0  0  0  0  0  0  0  0  0  0  0  0
   -2.0852   -1.1876   -0.0011 H   0  0  0  0  0  0  0  0  0  0  0  0
    0.0036   -1.3960   -0.0031 C   0  0  0  0  0  0  0  0  0  0  0  0
   -0.0153   -2.3910   -0.0085 H   0  0  0  0  0  0  0  0  0  0  0  0
    1.2174   -0.7069   -0.0000 C   0  0  0  0  0  0  0  0  0  0  0  0
    2.0896   -1.2053    0.0029 H   0  0  0  0  0  0  0  0  0  0  0  0
    1.2040    0.6835    0.0012 C   0  0  0  0  0  0  0  0  0  0  0  0
    2.0727    1.1857    0.0051 H   0  0  0  0  0  0  0  0  0  0  0  0
  1  5  1  0
  5  8  1  0
  1  2  1  0
  1  3  1  0
  1  4  1  0
  5  6  1  0
  5  7  1  0
  8  9  1  0
  8 10  1  0
  8 11  1  0
 12 16  1  0
 16 17  2  0
 17 19  1  0
 19 21  2  0
 21 23  1  0
 23 25  2  0
 25 16  1  0
 12 13  1  0
 12 14  1  0
 12 15  1  0
 17 18  1  0
 19 20  1  0
 21 22  1  0
 23 24  1  0
 25 26  1  0
M  CHG  1   8   1
M  END
>  <PDB_ID>  (1007) 
pdb2vq5

>  <RESIDUE_NAME>  (1007) 
LYS   PHE

>  <FRAG_NAME>  (1007) 
ETAM   MBZ

>  <FRAG_ATOM_NUM>  (1007) 
fragi: 11  fragj: 15

>  <atom.prop.CHAIN_ID>  (1007) 
A A A A A A A A A A A Z Z Z Z Z Z Z Z Z Z Z Z Z Z Z

>  <atom.prop.IS_HEAVY_ATOM>  (1007) 
1 0 0 0 1 0 0 1 0 0 0 1 0 0 0 1 1 0 1 0 1 0 1 0 1 0

>  <DIFUSE_FUNC_ATOM>  (1007) 
n/a

>  <FINAL_SINGLE_POINT_ENERGY>  (1007) 
0

>  <NONCOV_INTER_ENERGY_QM>  (1007) 
0

>  <FF_Energy>  (1007) 
-3.15

>  <QM_Energy>  (1007) 
-8.17

>  <source>  (1007) 
ETAM_MBZ

>  <Index>  (1007) 
9986

$$$$
ETAM-pdb1pcx-A-LYS-429:MBZ-pdb1pcx-A-PHE-482
     RDKit          3D

 26 25  0  0  0  0  0  0  0  0999 V2000
   -4.0602   -3.9032   -0.9810 C   0  0  0  0  0  0  0  0  0  0  0  0
   -4.0064   -3.8574   -1.9662 H   0  0  0  0  0  0  0  0  0  0  0  0
   -4.9129   -4.3037   -0.6831 H   0  0  0  0  0  0  0  0  0  0  0  0
   -3.2343   -4.5097   -0.6090 H   0  0  0  0  0  0  0  0  0  0  0  0
   -3.9726   -2.4758   -0.4228 C   0  0  0  0  0  0  0  0  0  0  0  0
   -3.7673   -2.5313    0.5676 H   0  0  0  0  0  0  0  0  0  0  0  0
   -3.1943   -2.0039   -0.8674 H   0  0  0  0  0  0  0  0  0  0  0  0
   -5.2113   -1.6533   -0.6160 N   0  0  0  0  0  4  0  0  0  0  0  0
   -5.0383   -0.7237   -0.2960 H   0  0  0  0  0  0  0  0  0  0  0  0
   -5.4458   -1.6400   -1.5853 H   0  0  0  0  0  0  0  0  0  0  0  0
   -5.9573   -2.0593   -0.0918 H   0  0  0  0  0  0  0  0  0  0  0  0
    0.0091    2.9179    0.0225 C   0  0  0  0  0  0  0  0  0  0  0  0
   -0.7287    3.2356   -0.5521 H   0  0  0  0  0  0  0  0  0  0  0  0
    0.8865    3.2212   -0.3139 H   0  0  0  0  0  0  0  0  0  0  0  0
   -0.1337    3.3470    1.0143 H   0  0  0  0  0  0  0  0  0  0  0  0
   -0.0009    1.4062    0.0001 C   0  0  0  0  0  0  0  0  0  0  0  0
   -1.1972    0.6972    0.0014 C   0  0  0  0  0  0  0  0  0  0  0  0
   -2.0648    1.1829    0.0023 H   0  0  0  0  0  0  0  0  0  0  0  0
   -1.2011   -0.7010   -0.0000 C   0  0  0  0  0  0  0  0  0  0  0  0
   -2.0773   -1.1921    0.0010 H   0  0  0  0  0  0  0  0  0  0  0  0
    0.0017   -1.3973   -0.0005 C   0  0  0  0  0  0  0  0  0  0  0  0
   -0.0018   -2.3955   -0.0013 H   0  0  0  0  0  0  0  0  0  0  0  0
    1.2011   -0.6988    0.0000 C   0  0  0  0  0  0  0  0  0  0  0  0
    2.0838   -1.1945    0.0026 H   0  0  0  0  0  0  0  0  0  0  0  0
    1.1964    0.6937   -0.0010 C   0  0  0  0  0  0  0  0  0  0  0  0
    2.0651    1.1902   -0.0036 H   0  0  0  0  0  0  0  0  0  0  0  0
  1  5  1  0
  5  8  1  0
  1  2  1  0
  1  3  1  0
  1  4  1  0
  5  6  1  0
  5  7  1  0
  8  9  1  0
  8 10  1  0
  8 11  1  0
 12 16  1  0
 16 17  2  0
 17 19  1  0
 19 21  2  0
 21 23  1  0
 23 25  2  0
 25 16  1  0
 12 13  1  0
 12 14  1  0
 12 15  1  0
 17 18  1  0
 19 20  1  0
 21 22  1  0
 23 24  1  0
 25 26  1  0
M  CHG  1   8   1
M  END
>  <PDB_ID>  (1008) 
pdb1pcx

>  <RESIDUE_NAME>  (1008) 
LYS   PHE

>  <FRAG_NAME>  (1008) 
ETAM   MBZ

>  <FRAG_ATOM_NUM>  (1008) 
fragi: 11  fragj: 15

>  <atom.prop.CHAIN_ID>  (1008) 
A A A A A A A A A A A Z Z Z Z Z Z Z Z Z Z Z Z Z Z Z

>  <atom.prop.IS_HEAVY_ATOM>  (1008) 
1 0 0 0 1 0 0 1 0 0 0 1 0 0 0 1 1 0 1 0 1 0 1 0 1 0

>  <DIFUSE_FUNC_ATOM>  (1008) 
n/a

>  <FINAL_SINGLE_POINT_ENERGY>  (1008) 
0

>  <NONCOV_INTER_ENERGY_QM>  (1008) 
0

>  <FF_Energy>  (1008) 
16.55

>  <QM_Energy>  (1008) 
1.63

>  <source>  (1008) 
ETAM_MBZ

>  <Index>  (1008) 
10022

$$$$
ETAM-pdb1pgu-A-LYS-578:MBZ-pdb1pgu-A-PHE-566
     RDKit          3D

 26 25  0  0  0  0  0  0  0  0999 V2000
   -1.5642   -1.7949    3.8260 C   0  0  0  0  0  0  0  0  0  0  0  0
   -1.6665   -2.5763    4.4367 H   0  0  0  0  0  0  0  0  0  0  0  0
   -1.8647   -2.0382    2.9077 H   0  0  0  0  0  0  0  0  0  0  0  0
   -2.1885   -0.9807    4.1942 H   0  0  0  0  0  0  0  0  0  0  0  0
   -0.1024   -1.4051    3.7728 C   0  0  0  0  0  0  0  0  0  0  0  0
    0.0068   -0.6215    3.1584 H   0  0  0  0  0  0  0  0  0  0  0  0
    0.2026   -1.1469    4.6915 H   0  0  0  0  0  0  0  0  0  0  0  0
    0.7387   -2.5312    3.2794 N   0  0  0  0  0  4  0  0  0  0  0  0
    0.1709   -3.1616    2.7508 H   0  0  0  0  0  0  0  0  0  0  0  0
    1.4678   -2.1702    2.6998 H   0  0  0  0  0  0  0  0  0  0  0  0
    1.1379   -3.0119    4.0593 H   0  0  0  0  0  0  0  0  0  0  0  0
    0.0282    2.9110   -0.0864 C   0  0  0  0  0  0  0  0  0  0  0  0
    0.0370    3.1648   -1.0454 H   0  0  0  0  0  0  0  0  0  0  0  0
    0.8491    3.2304    0.3702 H   0  0  0  0  0  0  0  0  0  0  0  0
   -0.8203    3.4146    0.3767 H   0  0  0  0  0  0  0  0  0  0  0  0
    0.0003    1.4096   -0.0005 C   0  0  0  0  0  0  0  0  0  0  0  0
   -1.2010    0.7035    0.0010 C   0  0  0  0  0  0  0  0  0  0  0  0
   -2.0659    1.1893    0.0018 H   0  0  0  0  0  0  0  0  0  0  0  0
   -1.2056   -0.7000   -0.0000 C   0  0  0  0  0  0  0  0  0  0  0  0
   -2.0808   -1.1906    0.0032 H   0  0  0  0  0  0  0  0  0  0  0  0
    0.0026   -1.4029   -0.0034 C   0  0  0  0  0  0  0  0  0  0  0  0
   -0.0038   -2.3982   -0.0088 H   0  0  0  0  0  0  0  0  0  0  0  0
    1.2056   -0.7024    0.0000 C   0  0  0  0  0  0  0  0  0  0  0  0
    2.0861   -1.1976    0.0018 H   0  0  0  0  0  0  0  0  0  0  0  0
    1.1981    0.6923    0.0029 C   0  0  0  0  0  0  0  0  0  0  0  0
    2.0678    1.1884    0.0067 H   0  0  0  0  0  0  0  0  0  0  0  0
  1  5  1  0
  5  8  1  0
  1  2  1  0
  1  3  1  0
  1  4  1  0
  5  6  1  0
  5  7  1  0
  8  9  1  0
  8 10  1  0
  8 11  1  0
 12 16  1  0
 16 17  2  0
 17 19  1  0
 19 21  2  0
 21 23  1  0
 23 25  2  0
 25 16  1  0
 12 13  1  0
 12 14  1  0
 12 15  1  0
 17 18  1  0
 19 20  1  0
 21 22  1  0
 23 24  1  0
 25 26  1  0
M  CHG  1   8   1
M  END
>  <PDB_ID>  (1009) 
pdb1pgu

>  <RESIDUE_NAME>  (1009) 
LYS   PHE

>  <FRAG_NAME>  (1009) 
ETAM   MBZ

>  <FRAG_ATOM_NUM>  (1009) 
fragi: 11  fragj: 15

>  <atom.prop.CHAIN_ID>  (1009) 
A A A A A A A A A A A Z Z Z Z Z Z Z Z Z Z Z Z Z Z Z

>  <atom.prop.IS_HEAVY_ATOM>  (1009) 
1 0 0 0 1 0 0 1 0 0 0 1 0 0 0 1 1 0 1 0 1 0 1 0 1 0

>  <DIFUSE_FUNC_ATOM>  (1009) 
n/a

>  <FINAL_SINGLE_POINT_ENERGY>  (1009) 
0

>  <NONCOV_INTER_ENERGY_QM>  (1009) 
0

>  <FF_Energy>  (1009) 
-4.48

>  <QM_Energy>  (1009) 
-10.76

>  <source>  (1009) 
ETAM_MBZ

>  <Index>  (1009) 
10058

$$$$
ETAM-pdb1php-A-LYS-359:MBZ-pdb1php-A-PHE-322
     RDKit          3D

 26 25  0  0  0  0  0  0  0  0999 V2000
    4.9640   -0.3345   -0.7065 C   0  0  0  0  0  0  0  0  0  0  0  0
    4.3694   -1.0172   -0.2541 H   0  0  0  0  0  0  0  0  0  0  0  0
    4.6765    0.5814   -0.3830 H   0  0  0  0  0  0  0  0  0  0  0  0
    5.9860   -0.5046   -0.3680 H   0  0  0  0  0  0  0  0  0  0  0  0
    4.7393   -0.4119   -2.2027 C   0  0  0  0  0  0  0  0  0  0  0  0
    4.4502    0.4679   -2.5418 H   0  0  0  0  0  0  0  0  0  0  0  0
    5.5631   -0.7213   -2.6474 H   0  0  0  0  0  0  0  0  0  0  0  0
    3.6405   -1.4175   -2.4589 N   0  0  0  0  0  4  0  0  0  0  0  0
    3.8568   -2.2584   -1.9717 H   0  0  0  0  0  0  0  0  0  0  0  0
    2.7787   -1.0413   -2.1294 H   0  0  0  0  0  0  0  0  0  0  0  0
    3.5870   -1.5912   -3.4383 H   0  0  0  0  0  0  0  0  0  0  0  0
   -0.0161    2.8834   -0.0428 C   0  0  0  0  0  0  0  0  0  0  0  0
    0.8706    3.1922    0.1909 H   0  0  0  0  0  0  0  0  0  0  0  0
   -0.7298    3.2285    0.5138 H   0  0  0  0  0  0  0  0  0  0  0  0
   -0.2139    3.2173   -1.0613 H   0  0  0  0  0  0  0  0  0  0  0  0
   -0.0401    1.3845    0.0057 C   0  0  0  0  0  0  0  0  0  0  0  0
   -1.2139    0.6718   -0.0122 C   0  0  0  0  0  0  0  0  0  0  0  0
   -2.0942    1.1504   -0.0353 H   0  0  0  0  0  0  0  0  0  0  0  0
   -1.2186   -0.7248   -0.0000 C   0  0  0  0  0  0  0  0  0  0  0  0
   -2.0594   -1.2363    0.0053 H   0  0  0  0  0  0  0  0  0  0  0  0
    0.0404   -1.3932    0.0062 C   0  0  0  0  0  0  0  0  0  0  0  0
    0.0510   -2.3895    0.0148 H   0  0  0  0  0  0  0  0  0  0  0  0
    1.2186   -0.6632    0.0000 C   0  0  0  0  0  0  0  0  0  0  0  0
    2.1178   -1.1539   -0.0033 H   0  0  0  0  0  0  0  0  0  0  0  0
    1.2136    0.7249    0.0003 C   0  0  0  0  0  0  0  0  0  0  0  0
    2.0416    1.2428   -0.0037 H   0  0  0  0  0  0  0  0  0  0  0  0
  1  5  1  0
  5  8  1  0
  1  2  1  0
  1  3  1  0
  1  4  1  0
  5  6  1  0
  5  7  1  0
  8  9  1  0
  8 10  1  0
  8 11  1  0
 12 16  1  0
 16 17  2  0
 17 19  1  0
 19 21  2  0
 21 23  1  0
 23 25  2  0
 25 16  1  0
 12 13  1  0
 12 14  1  0
 12 15  1  0
 17 18  1  0
 19 20  1  0
 21 22  1  0
 23 24  1  0
 25 26  1  0
M  CHG  1   8   1
M  END
>  <PDB_ID>  (1010) 
pdb1php

>  <RESIDUE_NAME>  (1010) 
LYS   PHE

>  <FRAG_NAME>  (1010) 
ETAM   MBZ

>  <FRAG_ATOM_NUM>  (1010) 
fragi: 11  fragj: 15

>  <atom.prop.CHAIN_ID>  (1010) 
A A A A A A A A A A A Z Z Z Z Z Z Z Z Z Z Z Z Z Z Z

>  <atom.prop.IS_HEAVY_ATOM>  (1010) 
1 0 0 0 1 0 0 1 0 0 0 1 0 0 0 1 1 0 1 0 1 0 1 0 1 0

>  <DIFUSE_FUNC_ATOM>  (1010) 
n/a

>  <FINAL_SINGLE_POINT_ENERGY>  (1010) 
0

>  <NONCOV_INTER_ENERGY_QM>  (1010) 
0

>  <FF_Energy>  (1010) 
-1.41

>  <QM_Energy>  (1010) 
-7.22

>  <source>  (1010) 
ETAM_MBZ

>  <Index>  (1010) 
10067

$$$$
ETAM-pdb2w2i-C-LYS-252:MBZ-pdb2w2i-C-PHE-258
     RDKit          3D

 26 25  0  0  0  0  0  0  0  0999 V2000
    2.7371   -4.5942    0.6260 C   0  0  0  0  0  0  0  0  0  0  0  0
    2.7411   -5.2539   -0.1264 H   0  0  0  0  0  0  0  0  0  0  0  0
    3.2463   -4.9735    1.4014 H   0  0  0  0  0  0  0  0  0  0  0  0
    3.2331   -3.6820    0.2943 H   0  0  0  0  0  0  0  0  0  0  0  0
    1.3086   -4.3577    1.0563 C   0  0  0  0  0  0  0  0  0  0  0  0
    1.2970   -3.7030    1.8124 H   0  0  0  0  0  0  0  0  0  0  0  0
    0.7910   -3.9834    0.2851 H   0  0  0  0  0  0  0  0  0  0  0  0
    0.6752   -5.6261    1.4983 N   0  0  0  0  0  4  0  0  0  0  0  0
    0.3352   -5.5201    2.4334 H   0  0  0  0  0  0  0  0  0  0  0  0
   -0.0855   -5.8488    0.8894 H   0  0  0  0  0  0  0  0  0  0  0  0
    1.3507   -6.3631    1.4709 H   0  0  0  0  0  0  0  0  0  0  0  0
    0.0047    2.8892    0.0134 C   0  0  0  0  0  0  0  0  0  0  0  0
   -0.8639    3.2145   -0.3251 H   0  0  0  0  0  0  0  0  0  0  0  0
    0.7542    3.2090   -0.5443 H   0  0  0  0  0  0  0  0  0  0  0  0
    0.1412    3.3092    1.0100 H   0  0  0  0  0  0  0  0  0  0  0  0
   -0.0037    1.3977   -0.0115 C   0  0  0  0  0  0  0  0  0  0  0  0
   -1.1966    0.7010    0.0045 C   0  0  0  0  0  0  0  0  0  0  0  0
   -2.0635    1.1904    0.0182 H   0  0  0  0  0  0  0  0  0  0  0  0
   -1.2027   -0.6888    0.0000 C   0  0  0  0  0  0  0  0  0  0  0  0
   -2.0775   -1.1850   -0.0063 H   0  0  0  0  0  0  0  0  0  0  0  0
    0.0046   -1.3938    0.0059 C   0  0  0  0  0  0  0  0  0  0  0  0
   -0.0083   -2.3906    0.0141 H   0  0  0  0  0  0  0  0  0  0  0  0
    1.2027   -0.7017   -0.0000 C   0  0  0  0  0  0  0  0  0  0  0  0
    2.0838   -1.1988   -0.0035 H   0  0  0  0  0  0  0  0  0  0  0  0
    1.1957    0.6855    0.0011 C   0  0  0  0  0  0  0  0  0  0  0  0
    2.0625    1.1862    0.0099 H   0  0  0  0  0  0  0  0  0  0  0  0
  1  5  1  0
  5  8  1  0
  1  2  1  0
  1  3  1  0
  1  4  1  0
  5  6  1  0
  5  7  1  0
  8  9  1  0
  8 10  1  0
  8 11  1  0
 12 16  1  0
 16 17  2  0
 17 19  1  0
 19 21  2  0
 21 23  1  0
 23 25  2  0
 25 16  1  0
 12 13  1  0
 12 14  1  0
 12 15  1  0
 17 18  1  0
 19 20  1  0
 21 22  1  0
 23 24  1  0
 25 26  1  0
M  CHG  1   8   1
M  END
>  <PDB_ID>  (1011) 
pdb2w2i

>  <RESIDUE_NAME>  (1011) 
LYS   PHE

>  <FRAG_NAME>  (1011) 
ETAM   MBZ

>  <FRAG_ATOM_NUM>  (1011) 
fragi: 11  fragj: 15

>  <atom.prop.CHAIN_ID>  (1011) 
A A A A A A A A A A A Z Z Z Z Z Z Z Z Z Z Z Z Z Z Z

>  <atom.prop.IS_HEAVY_ATOM>  (1011) 
1 0 0 0 1 0 0 1 0 0 0 1 0 0 0 1 1 0 1 0 1 0 1 0 1 0

>  <DIFUSE_FUNC_ATOM>  (1011) 
n/a

>  <FINAL_SINGLE_POINT_ENERGY>  (1011) 
0

>  <NONCOV_INTER_ENERGY_QM>  (1011) 
0

>  <FF_Energy>  (1011) 
4.32

>  <QM_Energy>  (1011) 
-1.32

>  <source>  (1011) 
ETAM_MBZ

>  <Index>  (1011) 
10154

$$$$
ETAM-pdb2w37-B-LYS-60:MBZ-pdb2w37-B-PHE-115
     RDKit          3D

 26 25  0  0  0  0  0  0  0  0999 V2000
   -0.8715   -4.7572   -1.1116 C   0  0  0  0  0  0  0  0  0  0  0  0
   -0.3040   -5.2595   -0.4656 H   0  0  0  0  0  0  0  0  0  0  0  0
   -0.6961   -3.7805   -1.0387 H   0  0  0  0  0  0  0  0  0  0  0  0
   -0.6245   -5.0843   -2.1216 H   0  0  0  0  0  0  0  0  0  0  0  0
   -2.3515   -5.0088   -0.7502 C   0  0  0  0  0  0  0  0  0  0  0  0
   -2.9268   -4.6085   -1.4632 H   0  0  0  0  0  0  0  0  0  0  0  0
   -2.5083   -5.9952   -0.7105 H   0  0  0  0  0  0  0  0  0  0  0  0
   -2.7203   -4.3988    0.5804 N   0  0  0  0  0  4  0  0  0  0  0  0
   -3.6134   -3.9645    0.4984 H   0  0  0  0  0  0  0  0  0  0  0  0
   -2.7519   -5.1206    1.2668 H   0  0  0  0  0  0  0  0  0  0  0  0
   -2.0314   -3.7223    0.8254 H   0  0  0  0  0  0  0  0  0  0  0  0
   -0.0163    2.9232   -0.0166 C   0  0  0  0  0  0  0  0  0  0  0  0
    0.9101    3.2373   -0.1072 H   0  0  0  0  0  0  0  0  0  0  0  0
   -0.4366    3.2338    0.8163 H   0  0  0  0  0  0  0  0  0  0  0  0
   -0.5899    3.3265   -0.8511 H   0  0  0  0  0  0  0  0  0  0  0  0
    0.0034    1.4111    0.0066 C   0  0  0  0  0  0  0  0  0  0  0  0
   -1.1987    0.6861   -0.0012 C   0  0  0  0  0  0  0  0  0  0  0  0
   -2.0659    1.1807   -0.0095 H   0  0  0  0  0  0  0  0  0  0  0  0
   -1.2081   -0.7048    0.0000 C   0  0  0  0  0  0  0  0  0  0  0  0
   -2.0867   -1.1946    0.0053 H   0  0  0  0  0  0  0  0  0  0  0  0
   -0.0100   -1.4030   -0.0040 C   0  0  0  0  0  0  0  0  0  0  0  0
   -0.0066   -2.3986   -0.0104 H   0  0  0  0  0  0  0  0  0  0  0  0
    1.2081   -0.6996    0.0000 C   0  0  0  0  0  0  0  0  0  0  0  0
    2.0831   -1.1952    0.0050 H   0  0  0  0  0  0  0  0  0  0  0  0
    1.2054    0.7102   -0.0014 C   0  0  0  0  0  0  0  0  0  0  0  0
    2.0712    1.1984   -0.0090 H   0  0  0  0  0  0  0  0  0  0  0  0
  1  5  1  0
  5  8  1  0
  1  2  1  0
  1  3  1  0
  1  4  1  0
  5  6  1  0
  5  7  1  0
  8  9  1  0
  8 10  1  0
  8 11  1  0
 12 16  1  0
 16 17  2  0
 17 19  1  0
 19 21  2  0
 21 23  1  0
 23 25  2  0
 25 16  1  0
 12 13  1  0
 12 14  1  0
 12 15  1  0
 17 18  1  0
 19 20  1  0
 21 22  1  0
 23 24  1  0
 25 26  1  0
M  CHG  1   8   1
M  END
>  <PDB_ID>  (1012) 
pdb2w37

>  <RESIDUE_NAME>  (1012) 
LYS   PHE

>  <FRAG_NAME>  (1012) 
ETAM   MBZ

>  <FRAG_ATOM_NUM>  (1012) 
fragi: 11  fragj: 15

>  <atom.prop.CHAIN_ID>  (1012) 
A A A A A A A A A A A Z Z Z Z Z Z Z Z Z Z Z Z Z Z Z

>  <atom.prop.IS_HEAVY_ATOM>  (1012) 
1 0 0 0 1 0 0 1 0 0 0 1 0 0 0 1 1 0 1 0 1 0 1 0 1 0

>  <DIFUSE_FUNC_ATOM>  (1012) 
n/a

>  <FINAL_SINGLE_POINT_ENERGY>  (1012) 
0

>  <NONCOV_INTER_ENERGY_QM>  (1012) 
0

>  <FF_Energy>  (1012) 
2.86

>  <QM_Energy>  (1012) 
-2.61

>  <source>  (1012) 
ETAM_MBZ

>  <Index>  (1012) 
10164

$$$$
ETAM-pdb2w3n-C-LYS-160:MBZ-pdb2w3n-C-PHE-134
     RDKit          3D

 26 25  0  0  0  0  0  0  0  0999 V2000
   -3.2025    0.4787    2.8519 C   0  0  0  0  0  0  0  0  0  0  0  0
   -4.0901    0.1102    3.0912 H   0  0  0  0  0  0  0  0  0  0  0  0
   -3.1698    0.7338    1.8950 H   0  0  0  0  0  0  0  0  0  0  0  0
   -3.0088    1.3612    3.4617 H   0  0  0  0  0  0  0  0  0  0  0  0
   -2.1442   -0.6150    3.0966 C   0  0  0  0  0  0  0  0  0  0  0  0
   -2.5316   -1.3010    3.7330 H   0  0  0  0  0  0  0  0  0  0  0  0
   -1.9595   -1.0867    2.2190 H   0  0  0  0  0  0  0  0  0  0  0  0
   -0.8296   -0.1214    3.6630 N   0  0  0  0  0  4  0  0  0  0  0  0
   -0.0976   -0.7046    3.3232 H   0  0  0  0  0  0  0  0  0  0  0  0
   -0.6872    0.8184    3.3660 H   0  0  0  0  0  0  0  0  0  0  0  0
   -0.8733   -0.1660    4.6568 H   0  0  0  0  0  0  0  0  0  0  0  0
    0.0032    2.9182   -0.0330 C   0  0  0  0  0  0  0  0  0  0  0  0
   -0.7030    3.2053   -0.6676 H   0  0  0  0  0  0  0  0  0  0  0  0
    0.8980    3.2088   -0.3474 H   0  0  0  0  0  0  0  0  0  0  0  0
   -0.1892    3.3989    0.9262 H   0  0  0  0  0  0  0  0  0  0  0  0
   -0.0011    1.4076    0.0059 C   0  0  0  0  0  0  0  0  0  0  0  0
   -1.2003    0.7003   -0.0056 C   0  0  0  0  0  0  0  0  0  0  0  0
   -2.0665    1.1872   -0.0194 H   0  0  0  0  0  0  0  0  0  0  0  0
   -1.2073   -0.7005   -0.0000 C   0  0  0  0  0  0  0  0  0  0  0  0
   -2.0829   -1.1903    0.0022 H   0  0  0  0  0  0  0  0  0  0  0  0
   -0.0004   -1.4017    0.0042 C   0  0  0  0  0  0  0  0  0  0  0  0
   -0.0041   -2.3972    0.0097 H   0  0  0  0  0  0  0  0  0  0  0  0
    1.2073   -0.7009    0.0000 C   0  0  0  0  0  0  0  0  0  0  0  0
    2.0863   -1.1985    0.0018 H   0  0  0  0  0  0  0  0  0  0  0  0
    1.2018    0.6953   -0.0046 C   0  0  0  0  0  0  0  0  0  0  0  0
    2.0673    1.1915   -0.0160 H   0  0  0  0  0  0  0  0  0  0  0  0
  1  5  1  0
  5  8  1  0
  1  2  1  0
  1  3  1  0
  1  4  1  0
  5  6  1  0
  5  7  1  0
  8  9  1  0
  8 10  1  0
  8 11  1  0
 12 16  1  0
 16 17  2  0
 17 19  1  0
 19 21  2  0
 21 23  1  0
 23 25  2  0
 25 16  1  0
 12 13  1  0
 12 14  1  0
 12 15  1  0
 17 18  1  0
 19 20  1  0
 21 22  1  0
 23 24  1  0
 25 26  1  0
M  CHG  1   8   1
M  END
>  <PDB_ID>  (1013) 
pdb2w3n

>  <RESIDUE_NAME>  (1013) 
LYS   PHE

>  <FRAG_NAME>  (1013) 
ETAM   MBZ

>  <FRAG_ATOM_NUM>  (1013) 
fragi: 11  fragj: 15

>  <atom.prop.CHAIN_ID>  (1013) 
A A A A A A A A A A A Z Z Z Z Z Z Z Z Z Z Z Z Z Z Z

>  <atom.prop.IS_HEAVY_ATOM>  (1013) 
1 0 0 0 1 0 0 1 0 0 0 1 0 0 0 1 1 0 1 0 1 0 1 0 1 0

>  <DIFUSE_FUNC_ATOM>  (1013) 
n/a

>  <FINAL_SINGLE_POINT_ENERGY>  (1013) 
0

>  <NONCOV_INTER_ENERGY_QM>  (1013) 
0

>  <FF_Energy>  (1013) 
-3.99

>  <QM_Energy>  (1013) 
-10.64

>  <source>  (1013) 
ETAM_MBZ

>  <Index>  (1013) 
10187

$$$$
ETAM-pdb1prx-A-LYS-215:MBZ-pdb1prx-B-PHE-43
     RDKit          3D

 26 25  0  0  0  0  0  0  0  0999 V2000
   -0.8635    1.9850    3.7627 C   0  0  0  0  0  0  0  0  0  0  0  0
   -1.1498    1.8106    2.8281 H   0  0  0  0  0  0  0  0  0  0  0  0
   -0.4153    2.8686    3.8328 H   0  0  0  0  0  0  0  0  0  0  0  0
   -1.7371    1.9716    4.4144 H   0  0  0  0  0  0  0  0  0  0  0  0
    0.1179    0.9125    4.1754 C   0  0  0  0  0  0  0  0  0  0  0  0
    0.4232    1.0901    5.1125 H   0  0  0  0  0  0  0  0  0  0  0  0
   -0.3362    0.0207    4.1404 H   0  0  0  0  0  0  0  0  0  0  0  0
    1.2962    0.8951    3.2731 N   0  0  0  0  0  4  0  0  0  0  0  0
    2.1261    1.0620    3.8056 H   0  0  0  0  0  0  0  0  0  0  0  0
    1.3612    0.0029    2.8258 H   0  0  0  0  0  0  0  0  0  0  0  0
    1.1955    1.6088    2.5796 H   0  0  0  0  0  0  0  0  0  0  0  0
   -0.0014    2.9034   -0.0147 C   0  0  0  0  0  0  0  0  0  0  0  0
    0.8853    3.2145    0.2916 H   0  0  0  0  0  0  0  0  0  0  0  0
   -0.7219    3.2157    0.5852 H   0  0  0  0  0  0  0  0  0  0  0  0
   -0.1813    3.3339   -0.9998 H   0  0  0  0  0  0  0  0  0  0  0  0
   -0.0001    1.4010   -0.0008 C   0  0  0  0  0  0  0  0  0  0  0  0
   -1.1967    0.6921   -0.0003 C   0  0  0  0  0  0  0  0  0  0  0  0
   -2.0638    1.1827   -0.0011 H   0  0  0  0  0  0  0  0  0  0  0  0
   -1.2029   -0.6989   -0.0000 C   0  0  0  0  0  0  0  0  0  0  0  0
   -2.0791   -1.1920    0.0017 H   0  0  0  0  0  0  0  0  0  0  0  0
   -0.0011   -1.3929   -0.0006 C   0  0  0  0  0  0  0  0  0  0  0  0
   -0.0039   -2.3925   -0.0014 H   0  0  0  0  0  0  0  0  0  0  0  0
    1.2029   -0.6974   -0.0000 C   0  0  0  0  0  0  0  0  0  0  0  0
    2.0821   -1.1941    0.0007 H   0  0  0  0  0  0  0  0  0  0  0  0
    1.1980    0.6961    0.0016 C   0  0  0  0  0  0  0  0  0  0  0  0
    2.0652    1.1922    0.0039 H   0  0  0  0  0  0  0  0  0  0  0  0
  1  5  1  0
  5  8  1  0
  1  2  1  0
  1  3  1  0
  1  4  1  0
  5  6  1  0
  5  7  1  0
  8  9  1  0
  8 10  1  0
  8 11  1  0
 12 16  1  0
 16 17  2  0
 17 19  1  0
 19 21  2  0
 21 23  1  0
 23 25  2  0
 25 16  1  0
 12 13  1  0
 12 14  1  0
 12 15  1  0
 17 18  1  0
 19 20  1  0
 21 22  1  0
 23 24  1  0
 25 26  1  0
M  CHG  1   8   1
M  END
>  <PDB_ID>  (1014) 
pdb1prx

>  <RESIDUE_NAME>  (1014) 
LYS   PHE

>  <FRAG_NAME>  (1014) 
ETAM   MBZ

>  <FRAG_ATOM_NUM>  (1014) 
fragi: 11  fragj: 15

>  <atom.prop.CHAIN_ID>  (1014) 
A A A A A A A A A A A Z Z Z Z Z Z Z Z Z Z Z Z Z Z Z

>  <atom.prop.IS_HEAVY_ATOM>  (1014) 
1 0 0 0 1 0 0 1 0 0 0 1 0 0 0 1 1 0 1 0 1 0 1 0 1 0

>  <DIFUSE_FUNC_ATOM>  (1014) 
n/a

>  <FINAL_SINGLE_POINT_ENERGY>  (1014) 
0

>  <NONCOV_INTER_ENERGY_QM>  (1014) 
0

>  <FF_Energy>  (1014) 
-7.64

>  <QM_Energy>  (1014) 
-13.27

>  <source>  (1014) 
ETAM_MBZ

>  <Index>  (1014) 
10197

$$$$
ETAM-pdb1pq6-A-LYS-287:MBZ-pdb1pq6-A-PHE-292
     RDKit          3D

 26 25  0  0  0  0  0  0  0  0999 V2000
    4.9273   -0.2900   -0.1486 C   0  0  0  0  0  0  0  0  0  0  0  0
    5.6508    0.3594    0.0430 H   0  0  0  0  0  0  0  0  0  0  0  0
    4.0533    0.0447    0.1754 H   0  0  0  0  0  0  0  0  0  0  0  0
    4.8639   -0.4180   -1.2292 H   0  0  0  0  0  0  0  0  0  0  0  0
    5.2576   -1.6337    0.6500 C   0  0  0  0  0  0  0  0  0  0  0  0
    6.0198   -2.0874    0.1729 H   0  0  0  0  0  0  0  0  0  0  0  0
    5.5747   -1.3672    1.5681 H   0  0  0  0  0  0  0  0  0  0  0  0
    4.0978   -2.6206    0.7895 N   0  0  0  0  0  4  0  0  0  0  0  0
    3.2793   -2.1081    1.0199 H   0  0  0  0  0  0  0  0  0  0  0  0
    3.9843   -3.0920   -0.0775 H   0  0  0  0  0  0  0  0  0  0  0  0
    4.3220   -3.2641    1.5113 H   0  0  0  0  0  0  0  0  0  0  0  0
   -0.0042    2.8737    0.0148 C   0  0  0  0  0  0  0  0  0  0  0  0
   -0.6878    3.1872   -0.6304 H   0  0  0  0  0  0  0  0  0  0  0  0
    0.8986    3.1907   -0.2453 H   0  0  0  0  0  0  0  0  0  0  0  0
   -0.2416    3.3039    0.9877 H   0  0  0  0  0  0  0  0  0  0  0  0
    0.0014    1.3903    0.0055 C   0  0  0  0  0  0  0  0  0  0  0  0
   -1.1942    0.6784    0.0045 C   0  0  0  0  0  0  0  0  0  0  0  0
   -2.0592    1.1808    0.0056 H   0  0  0  0  0  0  0  0  0  0  0  0
   -1.1976   -0.6851    0.0000 C   0  0  0  0  0  0  0  0  0  0  0  0
   -2.0741   -1.1918    0.0041 H   0  0  0  0  0  0  0  0  0  0  0  0
    0.0001   -1.3844   -0.0085 C   0  0  0  0  0  0  0  0  0  0  0  0
   -0.0096   -2.3848   -0.0216 H   0  0  0  0  0  0  0  0  0  0  0  0
    1.1976   -0.6954    0.0000 C   0  0  0  0  0  0  0  0  0  0  0  0
    2.0797   -1.1913    0.0087 H   0  0  0  0  0  0  0  0  0  0  0  0
    1.1927    0.6963   -0.0015 C   0  0  0  0  0  0  0  0  0  0  0  0
    2.0608    1.1902   -0.0084 H   0  0  0  0  0  0  0  0  0  0  0  0
  1  5  1  0
  5  8  1  0
  1  2  1  0
  1  3  1  0
  1  4  1  0
  5  6  1  0
  5  7  1  0
  8  9  1  0
  8 10  1  0
  8 11  1  0
 12 16  1  0
 16 17  2  0
 17 19  1  0
 19 21  2  0
 21 23  1  0
 23 25  2  0
 25 16  1  0
 12 13  1  0
 12 14  1  0
 12 15  1  0
 17 18  1  0
 19 20  1  0
 21 22  1  0
 23 24  1  0
 25 26  1  0
M  CHG  1   8   1
M  END
>  <PDB_ID>  (1015) 
pdb1pq6

>  <RESIDUE_NAME>  (1015) 
LYS   PHE

>  <FRAG_NAME>  (1015) 
ETAM   MBZ

>  <FRAG_ATOM_NUM>  (1015) 
fragi: 11  fragj: 15

>  <atom.prop.CHAIN_ID>  (1015) 
A A A A A A A A A A A Z Z Z Z Z Z Z Z Z Z Z Z Z Z Z

>  <atom.prop.IS_HEAVY_ATOM>  (1015) 
1 0 0 0 1 0 0 1 0 0 0 1 0 0 0 1 1 0 1 0 1 0 1 0 1 0

>  <DIFUSE_FUNC_ATOM>  (1015) 
n/a

>  <FINAL_SINGLE_POINT_ENERGY>  (1015) 
0

>  <NONCOV_INTER_ENERGY_QM>  (1015) 
0

>  <FF_Energy>  (1015) 
1.59

>  <QM_Energy>  (1015) 
-3.46

>  <source>  (1015) 
ETAM_MBZ

>  <Index>  (1015) 
10204

$$$$
ETAM-pdb1psp-B-LYS-2:MBZ-pdb1psp-B-PHE-30
     RDKit          3D

 26 25  0  0  0  0  0  0  0  0999 V2000
   -0.8482    1.4587    3.3444 C   0  0  0  0  0  0  0  0  0  0  0  0
   -0.7669    1.3575    2.3643 H   0  0  0  0  0  0  0  0  0  0  0  0
   -0.2220    2.1407    3.6894 H   0  0  0  0  0  0  0  0  0  0  0  0
   -1.8689    1.7517    3.5900 H   0  0  0  0  0  0  0  0  0  0  0  0
   -0.5195    0.1236    3.9994 C   0  0  0  0  0  0  0  0  0  0  0  0
   -0.4382    0.2744    5.0007 H   0  0  0  0  0  0  0  0  0  0  0  0
   -1.3089   -0.5014    3.8578 H   0  0  0  0  0  0  0  0  0  0  0  0
    0.6982   -0.5009    3.4955 N   0  0  0  0  0  4  0  0  0  0  0  0
    1.2750    0.1832    3.0388 H   0  0  0  0  0  0  0  0  0  0  0  0
    1.2184   -0.9078    4.2524 H   0  0  0  0  0  0  0  0  0  0  0  0
    0.4695   -1.2231    2.8352 H   0  0  0  0  0  0  0  0  0  0  0  0
    0.0103    2.8942    0.1672 C   0  0  0  0  0  0  0  0  0  0  0  0
    0.9440    3.1968    0.0740 H   0  0  0  0  0  0  0  0  0  0  0  0
   -0.3519    3.0936    1.0623 H   0  0  0  0  0  0  0  0  0  0  0  0
   -0.6016    3.3966   -0.5820 H   0  0  0  0  0  0  0  0  0  0  0  0
    0.0061    1.3918    0.0047 C   0  0  0  0  0  0  0  0  0  0  0  0
   -1.1791    0.7112   -0.0067 C   0  0  0  0  0  0  0  0  0  0  0  0
   -2.0462    1.2200   -0.0221 H   0  0  0  0  0  0  0  0  0  0  0  0
   -1.2052   -0.6522    0.0000 C   0  0  0  0  0  0  0  0  0  0  0  0
   -2.0947   -1.1429    0.0029 H   0  0  0  0  0  0  0  0  0  0  0  0
   -0.0231   -1.3875    0.0044 C   0  0  0  0  0  0  0  0  0  0  0  0
   -0.0566   -2.3836    0.0098 H   0  0  0  0  0  0  0  0  0  0  0  0
    1.2052   -0.7254   -0.0000 C   0  0  0  0  0  0  0  0  0  0  0  0
    2.0647   -1.2323    0.0002 H   0  0  0  0  0  0  0  0  0  0  0  0
    1.1961    0.6621   -0.0024 C   0  0  0  0  0  0  0  0  0  0  0  0
    2.0713    1.1602   -0.0106 H   0  0  0  0  0  0  0  0  0  0  0  0
  1  5  1  0
  5  8  1  0
  1  2  1  0
  1  3  1  0
  1  4  1  0
  5  6  1  0
  5  7  1  0
  8  9  1  0
  8 10  1  0
  8 11  1  0
 12 16  1  0
 16 17  2  0
 17 19  1  0
 19 21  2  0
 21 23  1  0
 23 25  2  0
 25 16  1  0
 12 13  1  0
 12 14  1  0
 12 15  1  0
 17 18  1  0
 19 20  1  0
 21 22  1  0
 23 24  1  0
 25 26  1  0
M  CHG  1   8   1
M  END
>  <PDB_ID>  (1016) 
pdb1psp

>  <RESIDUE_NAME>  (1016) 
LYS   PHE

>  <FRAG_NAME>  (1016) 
ETAM   MBZ

>  <FRAG_ATOM_NUM>  (1016) 
fragi: 11  fragj: 15

>  <atom.prop.CHAIN_ID>  (1016) 
A A A A A A A A A A A Z Z Z Z Z Z Z Z Z Z Z Z Z Z Z

>  <atom.prop.IS_HEAVY_ATOM>  (1016) 
1 0 0 0 1 0 0 1 0 0 0 1 0 0 0 1 1 0 1 0 1 0 1 0 1 0

>  <DIFUSE_FUNC_ATOM>  (1016) 
n/a

>  <FINAL_SINGLE_POINT_ENERGY>  (1016) 
0

>  <NONCOV_INTER_ENERGY_QM>  (1016) 
0

>  <FF_Energy>  (1016) 
-5.67

>  <QM_Energy>  (1016) 
-13.17

>  <source>  (1016) 
ETAM_MBZ

>  <Index>  (1016) 
10206

$$$$
ETAM-pdb1pqy-A-LYS-37:MBZ-pdb1pqy-A-PHE-62
     RDKit          3D

 26 25  0  0  0  0  0  0  0  0999 V2000
   -3.6415   -4.0255    0.6736 C   0  0  0  0  0  0  0  0  0  0  0  0
   -3.3113   -3.9735    1.6100 H   0  0  0  0  0  0  0  0  0  0  0  0
   -2.8958   -4.2472    0.0543 H   0  0  0  0  0  0  0  0  0  0  0  0
   -4.3930   -4.8126    0.6120 H   0  0  0  0  0  0  0  0  0  0  0  0
   -4.2208   -2.6862    0.2825 C   0  0  0  0  0  0  0  0  0  0  0  0
   -3.4857   -2.0012    0.2692 H   0  0  0  0  0  0  0  0  0  0  0  0
   -4.6144   -2.7544   -0.6394 H   0  0  0  0  0  0  0  0  0  0  0  0
   -5.2781   -2.2445    1.2297 N   0  0  0  0  0  4  0  0  0  0  0  0
   -5.7950   -3.0403    1.5455 H   0  0  0  0  0  0  0  0  0  0  0  0
   -4.8540   -1.7897    2.0130 H   0  0  0  0  0  0  0  0  0  0  0  0
   -5.8945   -1.6082    0.7666 H   0  0  0  0  0  0  0  0  0  0  0  0
   -0.0014    2.9001    0.0342 C   0  0  0  0  0  0  0  0  0  0  0  0
   -0.6653    3.2227   -0.6241 H   0  0  0  0  0  0  0  0  0  0  0  0
    0.9095    3.2126   -0.1901 H   0  0  0  0  0  0  0  0  0  0  0  0
   -0.2667    3.3136    1.0072 H   0  0  0  0  0  0  0  0  0  0  0  0
   -0.0011    1.4030   -0.0002 C   0  0  0  0  0  0  0  0  0  0  0  0
   -1.1988    0.6955   -0.0007 C   0  0  0  0  0  0  0  0  0  0  0  0
   -2.0656    1.1826   -0.0028 H   0  0  0  0  0  0  0  0  0  0  0  0
   -1.2036   -0.7020   -0.0000 C   0  0  0  0  0  0  0  0  0  0  0  0
   -2.0780   -1.1941    0.0007 H   0  0  0  0  0  0  0  0  0  0  0  0
    0.0025   -1.3971    0.0017 C   0  0  0  0  0  0  0  0  0  0  0  0
    0.0005   -2.3950    0.0033 H   0  0  0  0  0  0  0  0  0  0  0  0
    1.2036   -0.6964    0.0000 C   0  0  0  0  0  0  0  0  0  0  0  0
    2.0859   -1.1919    0.0006 H   0  0  0  0  0  0  0  0  0  0  0  0
    1.1974    0.6970   -0.0009 C   0  0  0  0  0  0  0  0  0  0  0  0
    2.0648    1.1940   -0.0024 H   0  0  0  0  0  0  0  0  0  0  0  0
  1  5  1  0
  5  8  1  0
  1  2  1  0
  1  3  1  0
  1  4  1  0
  5  6  1  0
  5  7  1  0
  8  9  1  0
  8 10  1  0
  8 11  1  0
 12 16  1  0
 16 17  2  0
 17 19  1  0
 19 21  2  0
 21 23  1  0
 23 25  2  0
 25 16  1  0
 12 13  1  0
 12 14  1  0
 12 15  1  0
 17 18  1  0
 19 20  1  0
 21 22  1  0
 23 24  1  0
 25 26  1  0
M  CHG  1   8   1
M  END
>  <PDB_ID>  (1017) 
pdb1pqy

>  <RESIDUE_NAME>  (1017) 
LYS   PHE

>  <FRAG_NAME>  (1017) 
ETAM   MBZ

>  <FRAG_ATOM_NUM>  (1017) 
fragi: 11  fragj: 15

>  <atom.prop.CHAIN_ID>  (1017) 
A A A A A A A A A A A Z Z Z Z Z Z Z Z Z Z Z Z Z Z Z

>  <atom.prop.IS_HEAVY_ATOM>  (1017) 
1 0 0 0 1 0 0 1 0 0 0 1 0 0 0 1 1 0 1 0 1 0 1 0 1 0

>  <DIFUSE_FUNC_ATOM>  (1017) 
n/a

>  <FINAL_SINGLE_POINT_ENERGY>  (1017) 
0

>  <NONCOV_INTER_ENERGY_QM>  (1017) 
0

>  <FF_Energy>  (1017) 
12.02

>  <QM_Energy>  (1017) 
-0.06

>  <source>  (1017) 
ETAM_MBZ

>  <Index>  (1017) 
10209

$$$$
ETAM-pdb1psw-A-LYS-195:MBZ-pdb1psw-A-PHE-191
     RDKit          3D

 26 25  0  0  0  0  0  0  0  0999 V2000
    1.1170    4.2882   -2.9682 C   0  0  0  0  0  0  0  0  0  0  0  0
    0.4903    4.1399   -2.2154 H   0  0  0  0  0  0  0  0  0  0  0  0
    0.7216    3.9830   -3.8237 H   0  0  0  0  0  0  0  0  0  0  0  0
    1.3522    5.3503   -3.0371 H   0  0  0  0  0  0  0  0  0  0  0  0
    2.3824    3.4821   -2.7083 C   0  0  0  0  0  0  0  0  0  0  0  0
    3.0620    3.7124   -3.4083 H   0  0  0  0  0  0  0  0  0  0  0  0
    2.7444    3.7299   -1.8067 H   0  0  0  0  0  0  0  0  0  0  0  0
    2.1171    2.0198   -2.7449 N   0  0  0  0  0  4  0  0  0  0  0  0
    1.1986    1.8571   -3.1055 H   0  0  0  0  0  0  0  0  0  0  0  0
    2.7908    1.5740   -3.3339 H   0  0  0  0  0  0  0  0  0  0  0  0
    2.1834    1.6463   -1.8191 H   0  0  0  0  0  0  0  0  0  0  0  0
    0.0019    2.9053   -0.0006 C   0  0  0  0  0  0  0  0  0  0  0  0
   -0.4934    3.2117   -0.7989 H   0  0  0  0  0  0  0  0  0  0  0  0
    0.9416    3.2101   -0.0194 H   0  0  0  0  0  0  0  0  0  0  0  0
   -0.4742    3.3437    0.8764 H   0  0  0  0  0  0  0  0  0  0  0  0
   -0.0001    1.4033    0.0005 C   0  0  0  0  0  0  0  0  0  0  0  0
   -1.1979    0.6960    0.0003 C   0  0  0  0  0  0  0  0  0  0  0  0
   -2.0646    1.1857   -0.0009 H   0  0  0  0  0  0  0  0  0  0  0  0
   -1.2048   -0.6981    0.0000 C   0  0  0  0  0  0  0  0  0  0  0  0
   -2.0800   -1.1903    0.0015 H   0  0  0  0  0  0  0  0  0  0  0  0
    0.0001   -1.3963   -0.0010 C   0  0  0  0  0  0  0  0  0  0  0  0
   -0.0040   -2.3941   -0.0031 H   0  0  0  0  0  0  0  0  0  0  0  0
    1.2048   -0.6993   -0.0000 C   0  0  0  0  0  0  0  0  0  0  0  0
    2.0840   -1.1963    0.0026 H   0  0  0  0  0  0  0  0  0  0  0  0
    1.1980    0.6944    0.0001 C   0  0  0  0  0  0  0  0  0  0  0  0
    2.0659    1.1913   -0.0005 H   0  0  0  0  0  0  0  0  0  0  0  0
  1  5  1  0
  5  8  1  0
  1  2  1  0
  1  3  1  0
  1  4  1  0
  5  6  1  0
  5  7  1  0
  8  9  1  0
  8 10  1  0
  8 11  1  0
 12 16  1  0
 16 17  2  0
 17 19  1  0
 19 21  2  0
 21 23  1  0
 23 25  2  0
 25 16  1  0
 12 13  1  0
 12 14  1  0
 12 15  1  0
 17 18  1  0
 19 20  1  0
 21 22  1  0
 23 24  1  0
 25 26  1  0
M  CHG  1   8   1
M  END
>  <PDB_ID>  (1018) 
pdb1psw

>  <RESIDUE_NAME>  (1018) 
LYS   PHE

>  <FRAG_NAME>  (1018) 
ETAM   MBZ

>  <FRAG_ATOM_NUM>  (1018) 
fragi: 11  fragj: 15

>  <atom.prop.CHAIN_ID>  (1018) 
A A A A A A A A A A A Z Z Z Z Z Z Z Z Z Z Z Z Z Z Z

>  <atom.prop.IS_HEAVY_ATOM>  (1018) 
1 0 0 0 1 0 0 1 0 0 0 1 0 0 0 1 1 0 1 0 1 0 1 0 1 0

>  <DIFUSE_FUNC_ATOM>  (1018) 
n/a

>  <FINAL_SINGLE_POINT_ENERGY>  (1018) 
0

>  <NONCOV_INTER_ENERGY_QM>  (1018) 
0

>  <FF_Energy>  (1018) 
-2.35

>  <QM_Energy>  (1018) 
-8.56

>  <source>  (1018) 
ETAM_MBZ

>  <Index>  (1018) 
10212

$$$$
ETAM-pdb1psz-A-LYS-53:MBZ-pdb1psz-A-PHE-168
     RDKit          3D

 26 25  0  0  0  0  0  0  0  0999 V2000
    1.9271   -0.4646   -4.1317 C   0  0  0  0  0  0  0  0  0  0  0  0
    2.3843   -0.2370   -4.9599 H   0  0  0  0  0  0  0  0  0  0  0  0
    1.5147   -1.3452   -4.1337 H   0  0  0  0  0  0  0  0  0  0  0  0
    2.6267   -0.3917   -3.2991 H   0  0  0  0  0  0  0  0  0  0  0  0
    0.8280    0.5860   -3.8788 C   0  0  0  0  0  0  0  0  0  0  0  0
    1.0728    1.1047   -3.0569 H   0  0  0  0  0  0  0  0  0  0  0  0
    0.8023    1.2087   -4.6633 H   0  0  0  0  0  0  0  0  0  0  0  0
   -0.5008   -0.0427   -3.6962 N   0  0  0  0  0  4  0  0  0  0  0  0
   -0.9693   -0.0975   -4.5788 H   0  0  0  0  0  0  0  0  0  0  0  0
   -0.3872   -0.9648   -3.3228 H   0  0  0  0  0  0  0  0  0  0  0  0
   -1.0474    0.5074   -3.0631 H   0  0  0  0  0  0  0  0  0  0  0  0
   -0.0465    2.9055   -0.0127 C   0  0  0  0  0  0  0  0  0  0  0  0
   -0.7912    3.1880   -0.6211 H   0  0  0  0  0  0  0  0  0  0  0  0
    0.8239    3.2312   -0.3854 H   0  0  0  0  0  0  0  0  0  0  0  0
   -0.1993    3.4043    0.9445 H   0  0  0  0  0  0  0  0  0  0  0  0
   -0.0070    1.4003   -0.0039 C   0  0  0  0  0  0  0  0  0  0  0  0
   -1.1971    0.6724   -0.0073 C   0  0  0  0  0  0  0  0  0  0  0  0
   -2.0695    1.1614   -0.0167 H   0  0  0  0  0  0  0  0  0  0  0  0
   -1.1978   -0.7139    0.0000 C   0  0  0  0  0  0  0  0  0  0  0  0
   -2.0656   -1.2141   -0.0018 H   0  0  0  0  0  0  0  0  0  0  0  0
    0.0104   -1.3854    0.0121 C   0  0  0  0  0  0  0  0  0  0  0  0
    0.0225   -2.3881    0.0292 H   0  0  0  0  0  0  0  0  0  0  0  0
    1.1978   -0.6771    0.0000 C   0  0  0  0  0  0  0  0  0  0  0  0
    2.0877   -1.1751   -0.0070 H   0  0  0  0  0  0  0  0  0  0  0  0
    1.1936    0.7037   -0.0010 C   0  0  0  0  0  0  0  0  0  0  0  0
    2.0566    1.2063   -0.0005 H   0  0  0  0  0  0  0  0  0  0  0  0
  1  5  1  0
  5  8  1  0
  1  2  1  0
  1  3  1  0
  1  4  1  0
  5  6  1  0
  5  7  1  0
  8  9  1  0
  8 10  1  0
  8 11  1  0
 12 16  1  0
 16 17  2  0
 17 19  1  0
 19 21  2  0
 21 23  1  0
 23 25  2  0
 25 16  1  0
 12 13  1  0
 12 14  1  0
 12 15  1  0
 17 18  1  0
 19 20  1  0
 21 22  1  0
 23 24  1  0
 25 26  1  0
M  CHG  1   8   1
M  END
>  <PDB_ID>  (1019) 
pdb1psz

>  <RESIDUE_NAME>  (1019) 
LYS   PHE

>  <FRAG_NAME>  (1019) 
ETAM   MBZ

>  <FRAG_ATOM_NUM>  (1019) 
fragi: 11  fragj: 15

>  <atom.prop.CHAIN_ID>  (1019) 
A A A A A A A A A A A Z Z Z Z Z Z Z Z Z Z Z Z Z Z Z

>  <atom.prop.IS_HEAVY_ATOM>  (1019) 
1 0 0 0 1 0 0 1 0 0 0 1 0 0 0 1 1 0 1 0 1 0 1 0 1 0

>  <DIFUSE_FUNC_ATOM>  (1019) 
n/a

>  <FINAL_SINGLE_POINT_ENERGY>  (1019) 
0

>  <NONCOV_INTER_ENERGY_QM>  (1019) 
0

>  <FF_Energy>  (1019) 
-7.58

>  <QM_Energy>  (1019) 
-12.75

>  <source>  (1019) 
ETAM_MBZ

>  <Index>  (1019) 
10219

$$$$
ETAM-pdb2vzb-B-LYS-85:MBZ-pdb2vzb-A-PHE-88
     RDKit          3D

 26 25  0  0  0  0  0  0  0  0999 V2000
   -0.9810    0.1135    4.1845 C   0  0  0  0  0  0  0  0  0  0  0  0
   -0.5368    0.1198    5.0786 H   0  0  0  0  0  0  0  0  0  0  0  0
   -0.7558    0.9503    3.6887 H   0  0  0  0  0  0  0  0  0  0  0  0
   -0.6115   -0.7406    3.6169 H   0  0  0  0  0  0  0  0  0  0  0  0
   -2.5082    0.0827    4.4063 C   0  0  0  0  0  0  0  0  0  0  0  0
   -2.7478   -0.7768    4.8770 H   0  0  0  0  0  0  0  0  0  0  0  0
   -2.7610    0.8505    5.0101 H   0  0  0  0  0  0  0  0  0  0  0  0
   -3.3261    0.1806    3.1326 N   0  0  0  0  0  4  0  0  0  0  0  0
   -2.7034    0.2203    2.3576 H   0  0  0  0  0  0  0  0  0  0  0  0
   -3.9084   -0.6228    3.0672 H   0  0  0  0  0  0  0  0  0  0  0  0
   -3.8796    1.0068    3.1738 H   0  0  0  0  0  0  0  0  0  0  0  0
    0.0052    2.8926   -0.0317 C   0  0  0  0  0  0  0  0  0  0  0  0
    0.9016    3.2075    0.2304 H   0  0  0  0  0  0  0  0  0  0  0  0
   -0.6924    3.2205    0.5834 H   0  0  0  0  0  0  0  0  0  0  0  0
   -0.2104    3.2981   -1.0202 H   0  0  0  0  0  0  0  0  0  0  0  0
    0.0013    1.3980    0.0044 C   0  0  0  0  0  0  0  0  0  0  0  0
   -1.1973    0.6925   -0.0100 C   0  0  0  0  0  0  0  0  0  0  0  0
   -2.0618    1.1817   -0.0289 H   0  0  0  0  0  0  0  0  0  0  0  0
   -1.1997   -0.6995   -0.0000 C   0  0  0  0  0  0  0  0  0  0  0  0
   -2.0741   -1.1937    0.0024 H   0  0  0  0  0  0  0  0  0  0  0  0
    0.0029   -1.3882    0.0084 C   0  0  0  0  0  0  0  0  0  0  0  0
   -0.0005   -2.3910    0.0203 H   0  0  0  0  0  0  0  0  0  0  0  0
    1.1997   -0.6956   -0.0000 C   0  0  0  0  0  0  0  0  0  0  0  0
    2.0826   -1.1923   -0.0024 H   0  0  0  0  0  0  0  0  0  0  0  0
    1.1932    0.6927   -0.0028 C   0  0  0  0  0  0  0  0  0  0  0  0
    2.0633    1.1894   -0.0109 H   0  0  0  0  0  0  0  0  0  0  0  0
  1  5  1  0
  5  8  1  0
  1  2  1  0
  1  3  1  0
  1  4  1  0
  5  6  1  0
  5  7  1  0
  8  9  1  0
  8 10  1  0
  8 11  1  0
 12 16  1  0
 16 17  2  0
 17 19  1  0
 19 21  2  0
 21 23  1  0
 23 25  2  0
 25 16  1  0
 12 13  1  0
 12 14  1  0
 12 15  1  0
 17 18  1  0
 19 20  1  0
 21 22  1  0
 23 24  1  0
 25 26  1  0
M  CHG  1   8   1
M  END
>  <PDB_ID>  (1020) 
pdb2vzb

>  <RESIDUE_NAME>  (1020) 
LYS   PHE

>  <FRAG_NAME>  (1020) 
ETAM   MBZ

>  <FRAG_ATOM_NUM>  (1020) 
fragi: 11  fragj: 15

>  <atom.prop.CHAIN_ID>  (1020) 
A A A A A A A A A A A Z Z Z Z Z Z Z Z Z Z Z Z Z Z Z

>  <atom.prop.IS_HEAVY_ATOM>  (1020) 
1 0 0 0 1 0 0 1 0 0 0 1 0 0 0 1 1 0 1 0 1 0 1 0 1 0

>  <DIFUSE_FUNC_ATOM>  (1020) 
n/a

>  <FINAL_SINGLE_POINT_ENERGY>  (1020) 
0

>  <NONCOV_INTER_ENERGY_QM>  (1020) 
0

>  <FF_Energy>  (1020) 
-3.42

>  <QM_Energy>  (1020) 
-8.48

>  <source>  (1020) 
ETAM_MBZ

>  <Index>  (1020) 
10238

$$$$
ETAM-pdb2w37-B-LYS-194:MBZ-pdb2w37-B-PHE-197
     RDKit          3D

 26 25  0  0  0  0  0  0  0  0999 V2000
   -1.3131   -1.9677    3.6032 C   0  0  0  0  0  0  0  0  0  0  0  0
   -2.0725   -1.4660    4.0014 H   0  0  0  0  0  0  0  0  0  0  0  0
   -1.0652   -1.5862    2.7207 H   0  0  0  0  0  0  0  0  0  0  0  0
   -0.4551   -1.9034    4.2724 H   0  0  0  0  0  0  0  0  0  0  0  0
   -1.7588   -3.4241    3.3887 C   0  0  0  0  0  0  0  0  0  0  0  0
   -0.9536   -4.0174    3.4282 H   0  0  0  0  0  0  0  0  0  0  0  0
   -2.3933   -3.6792    4.1198 H   0  0  0  0  0  0  0  0  0  0  0  0
   -2.4461   -3.6229    2.0555 N   0  0  0  0  0  4  0  0  0  0  0  0
   -1.9560   -4.3227    1.5451 H   0  0  0  0  0  0  0  0  0  0  0  0
   -3.3852   -3.9113    2.2203 H   0  0  0  0  0  0  0  0  0  0  0  0
   -2.4324   -2.7611    1.5579 H   0  0  0  0  0  0  0  0  0  0  0  0
   -0.0121    2.9097    0.0004 C   0  0  0  0  0  0  0  0  0  0  0  0
   -0.2752    3.2158    0.9042 H   0  0  0  0  0  0  0  0  0  0  0  0
   -0.6652    3.2065   -0.6813 H   0  0  0  0  0  0  0  0  0  0  0  0
    0.9500    3.3628   -0.2388 H   0  0  0  0  0  0  0  0  0  0  0  0
   -0.0012    1.4029    0.0056 C   0  0  0  0  0  0  0  0  0  0  0  0
   -1.2060    0.6949   -0.0061 C   0  0  0  0  0  0  0  0  0  0  0  0
   -2.0680    1.1858   -0.0200 H   0  0  0  0  0  0  0  0  0  0  0  0
   -1.2098   -0.6983    0.0000 C   0  0  0  0  0  0  0  0  0  0  0  0
   -2.0786   -1.1973    0.0060 H   0  0  0  0  0  0  0  0  0  0  0  0
    0.0071   -1.3940    0.0001 C   0  0  0  0  0  0  0  0  0  0  0  0
    0.0033   -2.3912   -0.0005 H   0  0  0  0  0  0  0  0  0  0  0  0
    1.2098   -0.6932    0.0000 C   0  0  0  0  0  0  0  0  0  0  0  0
    2.0903   -1.1943    0.0014 H   0  0  0  0  0  0  0  0  0  0  0  0
    1.2001    0.6876    0.0004 C   0  0  0  0  0  0  0  0  0  0  0  0
    2.0661    1.1930   -0.0035 H   0  0  0  0  0  0  0  0  0  0  0  0
  1  5  1  0
  5  8  1  0
  1  2  1  0
  1  3  1  0
  1  4  1  0
  5  6  1  0
  5  7  1  0
  8  9  1  0
  8 10  1  0
  8 11  1  0
 12 16  1  0
 16 17  2  0
 17 19  1  0
 19 21  2  0
 21 23  1  0
 23 25  2  0
 25 16  1  0
 12 13  1  0
 12 14  1  0
 12 15  1  0
 17 18  1  0
 19 20  1  0
 21 22  1  0
 23 24  1  0
 25 26  1  0
M  CHG  1   8   1
M  END
>  <PDB_ID>  (1021) 
pdb2w37

>  <RESIDUE_NAME>  (1021) 
LYS   PHE

>  <FRAG_NAME>  (1021) 
ETAM   MBZ

>  <FRAG_ATOM_NUM>  (1021) 
fragi: 11  fragj: 15

>  <atom.prop.CHAIN_ID>  (1021) 
A A A A A A A A A A A Z Z Z Z Z Z Z Z Z Z Z Z Z Z Z

>  <atom.prop.IS_HEAVY_ATOM>  (1021) 
1 0 0 0 1 0 0 1 0 0 0 1 0 0 0 1 1 0 1 0 1 0 1 0 1 0

>  <DIFUSE_FUNC_ATOM>  (1021) 
n/a

>  <FINAL_SINGLE_POINT_ENERGY>  (1021) 
0

>  <NONCOV_INTER_ENERGY_QM>  (1021) 
0

>  <FF_Energy>  (1021) 
-0.98

>  <QM_Energy>  (1021) 
-6.29

>  <source>  (1021) 
ETAM_MBZ

>  <Index>  (1021) 
10265

$$$$
ETAM-pdb1pvx-A-LYS-144:MBZ-pdb1pvx-A-PHE-93
     RDKit          3D

 26 25  0  0  0  0  0  0  0  0999 V2000
    0.7836   -0.1012    4.5314 C   0  0  0  0  0  0  0  0  0  0  0  0
    0.4407   -0.3766    5.4294 H   0  0  0  0  0  0  0  0  0  0  0  0
    0.6627    0.8843    4.4159 H   0  0  0  0  0  0  0  0  0  0  0  0
    1.8478   -0.3312    4.4792 H   0  0  0  0  0  0  0  0  0  0  0  0
   -0.0363   -0.8171    3.4606 C   0  0  0  0  0  0  0  0  0  0  0  0
    0.2627   -0.5217    2.5669 H   0  0  0  0  0  0  0  0  0  0  0  0
    0.0635   -1.7941    3.5695 H   0  0  0  0  0  0  0  0  0  0  0  0
   -1.4963   -0.4522    3.6336 N   0  0  0  0  0  4  0  0  0  0  0  0
   -1.7598   -0.6313    4.5761 H   0  0  0  0  0  0  0  0  0  0  0  0
   -1.6105    0.5137    3.4212 H   0  0  0  0  0  0  0  0  0  0  0  0
   -2.0395   -1.0091    3.0124 H   0  0  0  0  0  0  0  0  0  0  0  0
   -0.0081    2.9077   -0.0201 C   0  0  0  0  0  0  0  0  0  0  0  0
   -0.8052    3.1867   -0.5661 H   0  0  0  0  0  0  0  0  0  0  0  0
    0.8260    3.2105   -0.4933 H   0  0  0  0  0  0  0  0  0  0  0  0
   -0.0584    3.4267    0.9371 H   0  0  0  0  0  0  0  0  0  0  0  0
    0.0131    1.3977    0.0008 C   0  0  0  0  0  0  0  0  0  0  0  0
   -1.1900    0.6909    0.0113 C   0  0  0  0  0  0  0  0  0  0  0  0
   -2.0527    1.1855    0.0261 H   0  0  0  0  0  0  0  0  0  0  0  0
   -1.1972   -0.6980    0.0000 C   0  0  0  0  0  0  0  0  0  0  0  0
   -2.0786   -1.1867   -0.0129 H   0  0  0  0  0  0  0  0  0  0  0  0
   -0.0079   -1.3864    0.0090 C   0  0  0  0  0  0  0  0  0  0  0  0
   -0.0034   -2.3873    0.0216 H   0  0  0  0  0  0  0  0  0  0  0  0
    1.1972   -0.6896    0.0000 C   0  0  0  0  0  0  0  0  0  0  0  0
    2.0740   -1.1922    0.0103 H   0  0  0  0  0  0  0  0  0  0  0  0
    1.1848    0.6853   -0.0211 C   0  0  0  0  0  0  0  0  0  0  0  0
    2.0658    1.1831   -0.0544 H   0  0  0  0  0  0  0  0  0  0  0  0
  1  5  1  0
  5  8  1  0
  1  2  1  0
  1  3  1  0
  1  4  1  0
  5  6  1  0
  5  7  1  0
  8  9  1  0
  8 10  1  0
  8 11  1  0
 12 16  1  0
 16 17  2  0
 17 19  1  0
 19 21  2  0
 21 23  1  0
 23 25  2  0
 25 16  1  0
 12 13  1  0
 12 14  1  0
 12 15  1  0
 17 18  1  0
 19 20  1  0
 21 22  1  0
 23 24  1  0
 25 26  1  0
M  CHG  1   8   1
M  END
>  <PDB_ID>  (1022) 
pdb1pvx

>  <RESIDUE_NAME>  (1022) 
LYS   PHE

>  <FRAG_NAME>  (1022) 
ETAM   MBZ

>  <FRAG_ATOM_NUM>  (1022) 
fragi: 11  fragj: 15

>  <atom.prop.CHAIN_ID>  (1022) 
A A A A A A A A A A A Z Z Z Z Z Z Z Z Z Z Z Z Z Z Z

>  <atom.prop.IS_HEAVY_ATOM>  (1022) 
1 0 0 0 1 0 0 1 0 0 0 1 0 0 0 1 1 0 1 0 1 0 1 0 1 0

>  <DIFUSE_FUNC_ATOM>  (1022) 
n/a

>  <FINAL_SINGLE_POINT_ENERGY>  (1022) 
0

>  <NONCOV_INTER_ENERGY_QM>  (1022) 
0

>  <FF_Energy>  (1022) 
-5.93

>  <QM_Energy>  (1022) 
-11.64

>  <source>  (1022) 
ETAM_MBZ

>  <Index>  (1022) 
10270

$$$$
ETAM-pdb1pvh-B-LYS-170:MBZ-pdb1pvh-B-PHE-41
     RDKit          3D

 26 25  0  0  0  0  0  0  0  0999 V2000
    0.8885    2.5251   -3.9397 C   0  0  0  0  0  0  0  0  0  0  0  0
    1.8374    2.6876   -4.1758 H   0  0  0  0  0  0  0  0  0  0  0  0
    0.6770    2.8894   -3.0437 H   0  0  0  0  0  0  0  0  0  0  0  0
    0.2574    3.0228   -4.6760 H   0  0  0  0  0  0  0  0  0  0  0  0
    0.6379    1.0168   -3.9271 C   0  0  0  0  0  0  0  0  0  0  0  0
   -0.3448    0.8560   -3.7983 H   0  0  0  0  0  0  0  0  0  0  0  0
    0.9144    0.6379   -4.8153 H   0  0  0  0  0  0  0  0  0  0  0  0
    1.3937    0.3331   -2.8446 N   0  0  0  0  0  4  0  0  0  0  0  0
    2.0987   -0.2501   -3.2482 H   0  0  0  0  0  0  0  0  0  0  0  0
    1.8232    1.0180   -2.2558 H   0  0  0  0  0  0  0  0  0  0  0  0
    0.7667   -0.2267   -2.3035 H   0  0  0  0  0  0  0  0  0  0  0  0
   -0.0014    2.8700    0.1238 C   0  0  0  0  0  0  0  0  0  0  0  0
   -0.6528    3.2419   -0.5221 H   0  0  0  0  0  0  0  0  0  0  0  0
    0.9123    3.2056   -0.0574 H   0  0  0  0  0  0  0  0  0  0  0  0
   -0.2876    3.2200    1.1157 H   0  0  0  0  0  0  0  0  0  0  0  0
    0.0004    1.4021    0.0021 C   0  0  0  0  0  0  0  0  0  0  0  0
   -1.1913    0.7004   -0.0028 C   0  0  0  0  0  0  0  0  0  0  0  0
   -2.0607    1.1889   -0.0098 H   0  0  0  0  0  0  0  0  0  0  0  0
   -1.2044   -0.6967   -0.0000 C   0  0  0  0  0  0  0  0  0  0  0  0
   -2.0865   -1.1809    0.0004 H   0  0  0  0  0  0  0  0  0  0  0  0
   -0.0107   -1.3990    0.0041 C   0  0  0  0  0  0  0  0  0  0  0  0
   -0.0121   -2.3952    0.0089 H   0  0  0  0  0  0  0  0  0  0  0  0
    1.2044   -0.7017    0.0000 C   0  0  0  0  0  0  0  0  0  0  0  0
    2.0786   -1.2027    0.0009 H   0  0  0  0  0  0  0  0  0  0  0  0
    1.2015    0.6948   -0.0034 C   0  0  0  0  0  0  0  0  0  0  0  0
    2.0668    1.1893   -0.0107 H   0  0  0  0  0  0  0  0  0  0  0  0
  1  5  1  0
  5  8  1  0
  1  2  1  0
  1  3  1  0
  1  4  1  0
  5  6  1  0
  5  7  1  0
  8  9  1  0
  8 10  1  0
  8 11  1  0
 12 16  1  0
 16 17  2  0
 17 19  1  0
 19 21  2  0
 21 23  1  0
 23 25  2  0
 25 16  1  0
 12 13  1  0
 12 14  1  0
 12 15  1  0
 17 18  1  0
 19 20  1  0
 21 22  1  0
 23 24  1  0
 25 26  1  0
M  CHG  1   8   1
M  END
>  <PDB_ID>  (1023) 
pdb1pvh

>  <RESIDUE_NAME>  (1023) 
LYS   PHE

>  <FRAG_NAME>  (1023) 
ETAM   MBZ

>  <FRAG_ATOM_NUM>  (1023) 
fragi: 11  fragj: 15

>  <atom.prop.CHAIN_ID>  (1023) 
A A A A A A A A A A A Z Z Z Z Z Z Z Z Z Z Z Z Z Z Z

>  <atom.prop.IS_HEAVY_ATOM>  (1023) 
1 0 0 0 1 0 0 1 0 0 0 1 0 0 0 1 1 0 1 0 1 0 1 0 1 0

>  <DIFUSE_FUNC_ATOM>  (1023) 
n/a

>  <FINAL_SINGLE_POINT_ENERGY>  (1023) 
0

>  <NONCOV_INTER_ENERGY_QM>  (1023) 
0

>  <FF_Energy>  (1023) 
-5.94

>  <QM_Energy>  (1023) 
-13.64

>  <source>  (1023) 
ETAM_MBZ

>  <Index>  (1023) 
10284

$$$$
ETAM-pdb1py5-A-LYS-337:MBZ-pdb1py5-A-PHE-289
     RDKit          3D

 26 25  0  0  0  0  0  0  0  0999 V2000
    0.7226    1.0417   -4.4198 C   0  0  0  0  0  0  0  0  0  0  0  0
    0.1351    0.9391   -5.2131 H   0  0  0  0  0  0  0  0  0  0  0  0
    1.6678    1.1656   -4.6951 H   0  0  0  0  0  0  0  0  0  0  0  0
    0.3977    1.9040   -3.8376 H   0  0  0  0  0  0  0  0  0  0  0  0
    0.6285   -0.2270   -3.5864 C   0  0  0  0  0  0  0  0  0  0  0  0
    0.9050   -1.0078   -4.1430 H   0  0  0  0  0  0  0  0  0  0  0  0
    1.2322   -0.1470   -2.7951 H   0  0  0  0  0  0  0  0  0  0  0  0
   -0.7792   -0.4506   -3.1026 N   0  0  0  0  0  4  0  0  0  0  0  0
   -1.2819   -0.9605   -3.7964 H   0  0  0  0  0  0  0  0  0  0  0  0
   -0.7498   -0.9687   -2.2519 H   0  0  0  0  0  0  0  0  0  0  0  0
   -1.2122    0.4334   -2.9481 H   0  0  0  0  0  0  0  0  0  0  0  0
    0.0066    2.9011    0.0056 C   0  0  0  0  0  0  0  0  0  0  0  0
   -0.6876    3.2129   -0.6275 H   0  0  0  0  0  0  0  0  0  0  0  0
    0.9068    3.2031   -0.2744 H   0  0  0  0  0  0  0  0  0  0  0  0
   -0.2058    3.3453    0.9780 H   0  0  0  0  0  0  0  0  0  0  0  0
   -0.0014    1.3976   -0.0003 C   0  0  0  0  0  0  0  0  0  0  0  0
   -1.1952    0.6893    0.0001 C   0  0  0  0  0  0  0  0  0  0  0  0
   -2.0626    1.1815   -0.0007 H   0  0  0  0  0  0  0  0  0  0  0  0
   -1.2022   -0.6976   -0.0000 C   0  0  0  0  0  0  0  0  0  0  0  0
   -2.0753   -1.1946    0.0010 H   0  0  0  0  0  0  0  0  0  0  0  0
    0.0050   -1.3953   -0.0002 C   0  0  0  0  0  0  0  0  0  0  0  0
    0.0048   -2.3897   -0.0006 H   0  0  0  0  0  0  0  0  0  0  0  0
    1.2022   -0.6876   -0.0000 C   0  0  0  0  0  0  0  0  0  0  0  0
    2.0864   -1.1855    0.0014 H   0  0  0  0  0  0  0  0  0  0  0  0
    1.1915    0.6936    0.0003 C   0  0  0  0  0  0  0  0  0  0  0  0
    2.0606    1.1955    0.0003 H   0  0  0  0  0  0  0  0  0  0  0  0
  1  5  1  0
  5  8  1  0
  1  2  1  0
  1  3  1  0
  1  4  1  0
  5  6  1  0
  5  7  1  0
  8  9  1  0
  8 10  1  0
  8 11  1  0
 12 16  1  0
 16 17  2  0
 17 19  1  0
 19 21  2  0
 21 23  1  0
 23 25  2  0
 25 16  1  0
 12 13  1  0
 12 14  1  0
 12 15  1  0
 17 18  1  0
 19 20  1  0
 21 22  1  0
 23 24  1  0
 25 26  1  0
M  CHG  1   8   1
M  END
>  <PDB_ID>  (1024) 
pdb1py5

>  <RESIDUE_NAME>  (1024) 
LYS   PHE

>  <FRAG_NAME>  (1024) 
ETAM   MBZ

>  <FRAG_ATOM_NUM>  (1024) 
fragi: 11  fragj: 15

>  <atom.prop.CHAIN_ID>  (1024) 
A A A A A A A A A A A Z Z Z Z Z Z Z Z Z Z Z Z Z Z Z

>  <atom.prop.IS_HEAVY_ATOM>  (1024) 
1 0 0 0 1 0 0 1 0 0 0 1 0 0 0 1 1 0 1 0 1 0 1 0 1 0

>  <DIFUSE_FUNC_ATOM>  (1024) 
n/a

>  <FINAL_SINGLE_POINT_ENERGY>  (1024) 
0

>  <NONCOV_INTER_ENERGY_QM>  (1024) 
0

>  <FF_Energy>  (1024) 
-8.65

>  <QM_Energy>  (1024) 
-16.49

>  <source>  (1024) 
ETAM_MBZ

>  <Index>  (1024) 
10295

$$$$
ETAM-pdb2w9m-A-LYS-109:MBZ-pdb2w9m-A-PHE-139
     RDKit          3D

 26 25  0  0  0  0  0  0  0  0999 V2000
    1.5949   -2.3440    3.2549 C   0  0  0  0  0  0  0  0  0  0  0  0
    2.3970   -2.8070    3.6164 H   0  0  0  0  0  0  0  0  0  0  0  0
    1.7107   -2.1528    2.2861 H   0  0  0  0  0  0  0  0  0  0  0  0
    0.7245   -2.9863    3.3883 H   0  0  0  0  0  0  0  0  0  0  0  0
    1.4238   -1.0269    3.9916 C   0  0  0  0  0  0  0  0  0  0  0  0
    0.4899   -0.6912    3.8476 H   0  0  0  0  0  0  0  0  0  0  0  0
    1.5683   -1.1799    4.9722 H   0  0  0  0  0  0  0  0  0  0  0  0
    2.3914    0.0023    3.5112 N   0  0  0  0  0  4  0  0  0  0  0  0
    2.4334    0.7502    4.1727 H   0  0  0  0  0  0  0  0  0  0  0  0
    3.2951   -0.4131    3.4156 H   0  0  0  0  0  0  0  0  0  0  0  0
    2.0880    0.3525    2.6264 H   0  0  0  0  0  0  0  0  0  0  0  0
   -0.0004    2.8871   -0.0050 C   0  0  0  0  0  0  0  0  0  0  0  0
   -0.7976    3.1921   -0.5068 H   0  0  0  0  0  0  0  0  0  0  0  0
    0.8341    3.1931   -0.4415 H   0  0  0  0  0  0  0  0  0  0  0  0
   -0.0402    3.3374    0.9869 H   0  0  0  0  0  0  0  0  0  0  0  0
    0.0000    1.3890    0.0036 C   0  0  0  0  0  0  0  0  0  0  0  0
   -1.1913    0.6832   -0.0025 C   0  0  0  0  0  0  0  0  0  0  0  0
   -2.0586    1.1784   -0.0105 H   0  0  0  0  0  0  0  0  0  0  0  0
   -1.1940   -0.6917    0.0000 C   0  0  0  0  0  0  0  0  0  0  0  0
   -2.0717   -1.1910    0.0036 H   0  0  0  0  0  0  0  0  0  0  0  0
    0.0010   -1.3807   -0.0003 C   0  0  0  0  0  0  0  0  0  0  0  0
   -0.0009   -2.3834   -0.0016 H   0  0  0  0  0  0  0  0  0  0  0  0
    1.1940   -0.6879    0.0000 C   0  0  0  0  0  0  0  0  0  0  0  0
    2.0782   -1.1903    0.0024 H   0  0  0  0  0  0  0  0  0  0  0  0
    1.1903    0.6880   -0.0007 C   0  0  0  0  0  0  0  0  0  0  0  0
    2.0592    1.1886   -0.0048 H   0  0  0  0  0  0  0  0  0  0  0  0
  1  5  1  0
  5  8  1  0
  1  2  1  0
  1  3  1  0
  1  4  1  0
  5  6  1  0
  5  7  1  0
  8  9  1  0
  8 10  1  0
  8 11  1  0
 12 16  1  0
 16 17  2  0
 17 19  1  0
 19 21  2  0
 21 23  1  0
 23 25  2  0
 25 16  1  0
 12 13  1  0
 12 14  1  0
 12 15  1  0
 17 18  1  0
 19 20  1  0
 21 22  1  0
 23 24  1  0
 25 26  1  0
M  CHG  1   8   1
M  END
>  <PDB_ID>  (1025) 
pdb2w9m

>  <RESIDUE_NAME>  (1025) 
LYS   PHE

>  <FRAG_NAME>  (1025) 
ETAM   MBZ

>  <FRAG_ATOM_NUM>  (1025) 
fragi: 11  fragj: 15

>  <atom.prop.CHAIN_ID>  (1025) 
A A A A A A A A A A A Z Z Z Z Z Z Z Z Z Z Z Z Z Z Z

>  <atom.prop.IS_HEAVY_ATOM>  (1025) 
1 0 0 0 1 0 0 1 0 0 0 1 0 0 0 1 1 0 1 0 1 0 1 0 1 0

>  <DIFUSE_FUNC_ATOM>  (1025) 
n/a

>  <FINAL_SINGLE_POINT_ENERGY>  (1025) 
0

>  <NONCOV_INTER_ENERGY_QM>  (1025) 
0

>  <FF_Energy>  (1025) 
-4.8

>  <QM_Energy>  (1025) 
-10.13

>  <source>  (1025) 
ETAM_MBZ

>  <Index>  (1025) 
10318

$$$$
ETAM-pdb2w9m-B-LYS-109:MBZ-pdb2w9m-B-PHE-139
     RDKit          3D

 26 25  0  0  0  0  0  0  0  0999 V2000
    1.5989   -2.3472    3.2283 C   0  0  0  0  0  0  0  0  0  0  0  0
    2.3928   -2.8247    3.5872 H   0  0  0  0  0  0  0  0  0  0  0  0
    1.7163   -2.1515    2.2617 H   0  0  0  0  0  0  0  0  0  0  0  0
    0.7196   -2.9784    3.3574 H   0  0  0  0  0  0  0  0  0  0  0  0
    1.4403   -1.0370    3.9743 C   0  0  0  0  0  0  0  0  0  0  0  0
    0.5041   -0.6981    3.8439 H   0  0  0  0  0  0  0  0  0  0  0  0
    1.5926   -1.1974    4.9534 H   0  0  0  0  0  0  0  0  0  0  0  0
    2.4016   -0.0087    3.4937 N   0  0  0  0  0  4  0  0  0  0  0  0
    3.2524   -0.4540    3.2162 H   0  0  0  0  0  0  0  0  0  0  0  0
    2.0068    0.4756    2.7130 H   0  0  0  0  0  0  0  0  0  0  0  0
    2.5888    0.6411    4.2302 H   0  0  0  0  0  0  0  0  0  0  0  0
   -0.0011    2.8919   -0.0066 C   0  0  0  0  0  0  0  0  0  0  0  0
   -0.8013    3.1953   -0.5052 H   0  0  0  0  0  0  0  0  0  0  0  0
    0.8303    3.1970   -0.4493 H   0  0  0  0  0  0  0  0  0  0  0  0
   -0.0353    3.3454    0.9840 H   0  0  0  0  0  0  0  0  0  0  0  0
    0.0004    1.3917    0.0032 C   0  0  0  0  0  0  0  0  0  0  0  0
   -1.1912    0.6861   -0.0012 C   0  0  0  0  0  0  0  0  0  0  0  0
   -2.0592    1.1799   -0.0069 H   0  0  0  0  0  0  0  0  0  0  0  0
   -1.1948   -0.6927   -0.0000 C   0  0  0  0  0  0  0  0  0  0  0  0
   -2.0730   -1.1904    0.0020 H   0  0  0  0  0  0  0  0  0  0  0  0
    0.0001   -1.3831   -0.0001 C   0  0  0  0  0  0  0  0  0  0  0  0
   -0.0024   -2.3850   -0.0011 H   0  0  0  0  0  0  0  0  0  0  0  0
    1.1948   -0.6906    0.0000 C   0  0  0  0  0  0  0  0  0  0  0  0
    2.0774   -1.1916    0.0025 H   0  0  0  0  0  0  0  0  0  0  0  0
    1.1907    0.6886   -0.0019 C   0  0  0  0  0  0  0  0  0  0  0  0
    2.0602    1.1883   -0.0077 H   0  0  0  0  0  0  0  0  0  0  0  0
  1  5  1  0
  5  8  1  0
  1  2  1  0
  1  3  1  0
  1  4  1  0
  5  6  1  0
  5  7  1  0
  8  9  1  0
  8 10  1  0
  8 11  1  0
 12 16  1  0
 16 17  2  0
 17 19  1  0
 19 21  2  0
 21 23  1  0
 23 25  2  0
 25 16  1  0
 12 13  1  0
 12 14  1  0
 12 15  1  0
 17 18  1  0
 19 20  1  0
 21 22  1  0
 23 24  1  0
 25 26  1  0
M  CHG  1   8   1
M  END
>  <PDB_ID>  (1026) 
pdb2w9m

>  <RESIDUE_NAME>  (1026) 
LYS   PHE

>  <FRAG_NAME>  (1026) 
ETAM   MBZ

>  <FRAG_ATOM_NUM>  (1026) 
fragi: 11  fragj: 15

>  <atom.prop.CHAIN_ID>  (1026) 
A A A A A A A A A A A Z Z Z Z Z Z Z Z Z Z Z Z Z Z Z

>  <atom.prop.IS_HEAVY_ATOM>  (1026) 
1 0 0 0 1 0 0 1 0 0 0 1 0 0 0 1 1 0 1 0 1 0 1 0 1 0

>  <DIFUSE_FUNC_ATOM>  (1026) 
n/a

>  <FINAL_SINGLE_POINT_ENERGY>  (1026) 
0

>  <NONCOV_INTER_ENERGY_QM>  (1026) 
0

>  <FF_Energy>  (1026) 
-4.74

>  <QM_Energy>  (1026) 
-9.93

>  <source>  (1026) 
ETAM_MBZ

>  <Index>  (1026) 
10320

$$$$
ETAM-pdb1pvh-D-LYS-170:MBZ-pdb1pvh-D-PHE-41
     RDKit          3D

 26 25  0  0  0  0  0  0  0  0999 V2000
    0.8987    2.4406   -3.9427 C   0  0  0  0  0  0  0  0  0  0  0  0
    1.8502    2.6241   -4.1519 H   0  0  0  0  0  0  0  0  0  0  0  0
    0.6566    2.7981   -3.0507 H   0  0  0  0  0  0  0  0  0  0  0  0
    0.2783    2.9296   -4.6936 H   0  0  0  0  0  0  0  0  0  0  0  0
    0.6719    0.9444   -3.9525 C   0  0  0  0  0  0  0  0  0  0  0  0
   -0.3076    0.7625   -3.8226 H   0  0  0  0  0  0  0  0  0  0  0  0
    0.9520    0.5776   -4.8446 H   0  0  0  0  0  0  0  0  0  0  0  0
    1.4401    0.2689   -2.8843 N   0  0  0  0  0  4  0  0  0  0  0  0
    1.9706   -0.4836   -3.2768 H   0  0  0  0  0  0  0  0  0  0  0  0
    2.0624    0.9234   -2.4521 H   0  0  0  0  0  0  0  0  0  0  0  0
    0.8110   -0.0936   -2.1952 H   0  0  0  0  0  0  0  0  0  0  0  0
    0.0005    2.8944    0.0565 C   0  0  0  0  0  0  0  0  0  0  0  0
   -0.6587    3.2312   -0.5981 H   0  0  0  0  0  0  0  0  0  0  0  0
    0.9125    3.2129   -0.1534 H   0  0  0  0  0  0  0  0  0  0  0  0
   -0.2720    3.2904    1.0348 H   0  0  0  0  0  0  0  0  0  0  0  0
   -0.0010    1.4033   -0.0004 C   0  0  0  0  0  0  0  0  0  0  0  0
   -1.1940    0.7009   -0.0002 C   0  0  0  0  0  0  0  0  0  0  0  0
   -2.0625    1.1851   -0.0018 H   0  0  0  0  0  0  0  0  0  0  0  0
   -1.1978   -0.6979   -0.0000 C   0  0  0  0  0  0  0  0  0  0  0  0
   -2.0778   -1.1864    0.0012 H   0  0  0  0  0  0  0  0  0  0  0  0
   -0.0021   -1.3927    0.0001 C   0  0  0  0  0  0  0  0  0  0  0  0
   -0.0069   -2.3932   -0.0002 H   0  0  0  0  0  0  0  0  0  0  0  0
    1.1978   -0.7009    0.0000 C   0  0  0  0  0  0  0  0  0  0  0  0
    2.0789   -1.2013    0.0017 H   0  0  0  0  0  0  0  0  0  0  0  0
    1.1971    0.6872    0.0004 C   0  0  0  0  0  0  0  0  0  0  0  0
    2.0655    1.1839    0.0003 H   0  0  0  0  0  0  0  0  0  0  0  0
  1  5  1  0
  5  8  1  0
  1  2  1  0
  1  3  1  0
  1  4  1  0
  5  6  1  0
  5  7  1  0
  8  9  1  0
  8 10  1  0
  8 11  1  0
 12 16  1  0
 16 17  2  0
 17 19  1  0
 19 21  2  0
 21 23  1  0
 23 25  2  0
 25 16  1  0
 12 13  1  0
 12 14  1  0
 12 15  1  0
 17 18  1  0
 19 20  1  0
 21 22  1  0
 23 24  1  0
 25 26  1  0
M  CHG  1   8   1
M  END
>  <PDB_ID>  (1027) 
pdb1pvh

>  <RESIDUE_NAME>  (1027) 
LYS   PHE

>  <FRAG_NAME>  (1027) 
ETAM   MBZ

>  <FRAG_ATOM_NUM>  (1027) 
fragi: 11  fragj: 15

>  <atom.prop.CHAIN_ID>  (1027) 
A A A A A A A A A A A Z Z Z Z Z Z Z Z Z Z Z Z Z Z Z

>  <atom.prop.IS_HEAVY_ATOM>  (1027) 
1 0 0 0 1 0 0 1 0 0 0 1 0 0 0 1 1 0 1 0 1 0 1 0 1 0

>  <DIFUSE_FUNC_ATOM>  (1027) 
n/a

>  <FINAL_SINGLE_POINT_ENERGY>  (1027) 
0

>  <NONCOV_INTER_ENERGY_QM>  (1027) 
0

>  <FF_Energy>  (1027) 
-6.73

>  <QM_Energy>  (1027) 
-14.06

>  <source>  (1027) 
ETAM_MBZ

>  <Index>  (1027) 
10329

$$$$
ETAM-pdb1q05-B-LYS-23:MBZ-pdb1q05-B-PHE-19
     RDKit          3D

 26 25  0  0  0  0  0  0  0  0999 V2000
   -1.0846   -0.8542    3.4355 C   0  0  0  0  0  0  0  0  0  0  0  0
   -0.9241    0.0131    3.8953 H   0  0  0  0  0  0  0  0  0  0  0  0
   -1.0624   -0.7332    2.4493 H   0  0  0  0  0  0  0  0  0  0  0  0
   -0.3030   -1.5569    3.7242 H   0  0  0  0  0  0  0  0  0  0  0  0
   -2.4596   -1.3653    3.8300 C   0  0  0  0  0  0  0  0  0  0  0  0
   -2.4797   -1.5132    4.8229 H   0  0  0  0  0  0  0  0  0  0  0  0
   -3.1460   -0.6714    3.5939 H   0  0  0  0  0  0  0  0  0  0  0  0
   -2.8001   -2.6413    3.1402 N   0  0  0  0  0  4  0  0  0  0  0  0
   -2.4574   -2.6116    2.2023 H   0  0  0  0  0  0  0  0  0  0  0  0
   -2.3772   -3.4037    3.6281 H   0  0  0  0  0  0  0  0  0  0  0  0
   -3.7923   -2.7574    3.1307 H   0  0  0  0  0  0  0  0  0  0  0  0
    0.0025    2.9145    0.0314 C   0  0  0  0  0  0  0  0  0  0  0  0
   -0.7337    3.2328   -0.5452 H   0  0  0  0  0  0  0  0  0  0  0  0
    0.8808    3.2264   -0.2956 H   0  0  0  0  0  0  0  0  0  0  0  0
   -0.1491    3.3335    1.0262 H   0  0  0  0  0  0  0  0  0  0  0  0
    0.0006    1.4089    0.0003 C   0  0  0  0  0  0  0  0  0  0  0  0
   -1.1976    0.6995   -0.0004 C   0  0  0  0  0  0  0  0  0  0  0  0
   -2.0649    1.1860   -0.0028 H   0  0  0  0  0  0  0  0  0  0  0  0
   -1.2047   -0.7026   -0.0000 C   0  0  0  0  0  0  0  0  0  0  0  0
   -2.0811   -1.1903    0.0019 H   0  0  0  0  0  0  0  0  0  0  0  0
   -0.0003   -1.4032   -0.0003 C   0  0  0  0  0  0  0  0  0  0  0  0
   -0.0041   -2.3995   -0.0014 H   0  0  0  0  0  0  0  0  0  0  0  0
    1.2047   -0.7025    0.0000 C   0  0  0  0  0  0  0  0  0  0  0  0
    2.0855   -1.1947    0.0011 H   0  0  0  0  0  0  0  0  0  0  0  0
    1.1972    0.6999    0.0004 C   0  0  0  0  0  0  0  0  0  0  0  0
    2.0664    1.1923   -0.0006 H   0  0  0  0  0  0  0  0  0  0  0  0
  1  5  1  0
  5  8  1  0
  1  2  1  0
  1  3  1  0
  1  4  1  0
  5  6  1  0
  5  7  1  0
  8  9  1  0
  8 10  1  0
  8 11  1  0
 12 16  1  0
 16 17  2  0
 17 19  1  0
 19 21  2  0
 21 23  1  0
 23 25  2  0
 25 16  1  0
 12 13  1  0
 12 14  1  0
 12 15  1  0
 17 18  1  0
 19 20  1  0
 21 22  1  0
 23 24  1  0
 25 26  1  0
M  CHG  1   8   1
M  END
>  <PDB_ID>  (1028) 
pdb1q05

>  <RESIDUE_NAME>  (1028) 
LYS   PHE

>  <FRAG_NAME>  (1028) 
ETAM   MBZ

>  <FRAG_ATOM_NUM>  (1028) 
fragi: 11  fragj: 15

>  <atom.prop.CHAIN_ID>  (1028) 
A A A A A A A A A A A Z Z Z Z Z Z Z Z Z Z Z Z Z Z Z

>  <atom.prop.IS_HEAVY_ATOM>  (1028) 
1 0 0 0 1 0 0 1 0 0 0 1 0 0 0 1 1 0 1 0 1 0 1 0 1 0

>  <DIFUSE_FUNC_ATOM>  (1028) 
n/a

>  <FINAL_SINGLE_POINT_ENERGY>  (1028) 
0

>  <NONCOV_INTER_ENERGY_QM>  (1028) 
0

>  <FF_Energy>  (1028) 
-1.13

>  <QM_Energy>  (1028) 
-6.18

>  <source>  (1028) 
ETAM_MBZ

>  <Index>  (1028) 
10339

$$$$
ETAM-pdb2wba-A-LYS-61:MBZ-pdb2wba-A-PHE-367
     RDKit          3D

 26 25  0  0  0  0  0  0  0  0999 V2000
   -0.9203    0.0577    3.6246 C   0  0  0  0  0  0  0  0  0  0  0  0
   -1.1169    1.0303    3.5798 H   0  0  0  0  0  0  0  0  0  0  0  0
   -0.2356   -0.1931    2.9507 H   0  0  0  0  0  0  0  0  0  0  0  0
   -0.5446   -0.1825    4.6192 H   0  0  0  0  0  0  0  0  0  0  0  0
   -2.2042   -0.7099    3.3189 C   0  0  0  0  0  0  0  0  0  0  0  0
   -2.8135   -0.6498    4.1124 H   0  0  0  0  0  0  0  0  0  0  0  0
   -2.6541   -0.2863    2.5289 H   0  0  0  0  0  0  0  0  0  0  0  0
   -1.9362   -2.1483    3.0151 N   0  0  0  0  0  4  0  0  0  0  0  0
   -0.9545   -2.3204    3.0807 H   0  0  0  0  0  0  0  0  0  0  0  0
   -2.4237   -2.7191    3.6740 H   0  0  0  0  0  0  0  0  0  0  0  0
   -2.2538   -2.3536    2.0903 H   0  0  0  0  0  0  0  0  0  0  0  0
   -0.0046    2.8947   -0.0283 C   0  0  0  0  0  0  0  0  0  0  0  0
    0.8644    3.2156    0.3070 H   0  0  0  0  0  0  0  0  0  0  0  0
   -0.7543    3.2174    0.5227 H   0  0  0  0  0  0  0  0  0  0  0  0
   -0.1394    3.2842   -1.0374 H   0  0  0  0  0  0  0  0  0  0  0  0
    0.0000    1.3976    0.0184 C   0  0  0  0  0  0  0  0  0  0  0  0
   -1.1926    0.6896   -0.0067 C   0  0  0  0  0  0  0  0  0  0  0  0
   -2.0606    1.1802   -0.0315 H   0  0  0  0  0  0  0  0  0  0  0  0
   -1.1982   -0.6981    0.0000 C   0  0  0  0  0  0  0  0  0  0  0  0
   -2.0764   -1.1914    0.0080 H   0  0  0  0  0  0  0  0  0  0  0  0
   -0.0010   -1.3904   -0.0026 C   0  0  0  0  0  0  0  0  0  0  0  0
   -0.0017   -2.3897   -0.0065 H   0  0  0  0  0  0  0  0  0  0  0  0
    1.1982   -0.6932    0.0000 C   0  0  0  0  0  0  0  0  0  0  0  0
    2.0803   -1.1915    0.0097 H   0  0  0  0  0  0  0  0  0  0  0  0
    1.1936    0.6944   -0.0090 C   0  0  0  0  0  0  0  0  0  0  0  0
    2.0619    1.1917   -0.0364 H   0  0  0  0  0  0  0  0  0  0  0  0
  1  5  1  0
  5  8  1  0
  1  2  1  0
  1  3  1  0
  1  4  1  0
  5  6  1  0
  5  7  1  0
  8  9  1  0
  8 10  1  0
  8 11  1  0
 12 16  1  0
 16 17  2  0
 17 19  1  0
 19 21  2  0
 21 23  1  0
 23 25  2  0
 25 16  1  0
 12 13  1  0
 12 14  1  0
 12 15  1  0
 17 18  1  0
 19 20  1  0
 21 22  1  0
 23 24  1  0
 25 26  1  0
M  CHG  1   8   1
M  END
>  <PDB_ID>  (1029) 
pdb2wba

>  <RESIDUE_NAME>  (1029) 
LYS   PHE

>  <FRAG_NAME>  (1029) 
ETAM   MBZ

>  <FRAG_ATOM_NUM>  (1029) 
fragi: 11  fragj: 15

>  <atom.prop.CHAIN_ID>  (1029) 
A A A A A A A A A A A Z Z Z Z Z Z Z Z Z Z Z Z Z Z Z

>  <atom.prop.IS_HEAVY_ATOM>  (1029) 
1 0 0 0 1 0 0 1 0 0 0 1 0 0 0 1 1 0 1 0 1 0 1 0 1 0

>  <DIFUSE_FUNC_ATOM>  (1029) 
n/a

>  <FINAL_SINGLE_POINT_ENERGY>  (1029) 
0

>  <NONCOV_INTER_ENERGY_QM>  (1029) 
0

>  <FF_Energy>  (1029) 
-4.1

>  <QM_Energy>  (1029) 
-10.71

>  <source>  (1029) 
ETAM_MBZ

>  <Index>  (1029) 
10357

$$$$
ETAM-pdb2w96-B-LYS-22:MBZ-pdb2w96-B-PHE-31
     RDKit          3D

 26 25  0  0  0  0  0  0  0  0999 V2000
    0.7345    1.1562   -4.2994 C   0  0  0  0  0  0  0  0  0  0  0  0
    0.1984    1.9690   -4.5220 H   0  0  0  0  0  0  0  0  0  0  0  0
    0.8665    0.6034   -5.1211 H   0  0  0  0  0  0  0  0  0  0  0  0
    1.7085    1.4684   -3.9227 H   0  0  0  0  0  0  0  0  0  0  0  0
   -0.0329    0.3348   -3.2837 C   0  0  0  0  0  0  0  0  0  0  0  0
    0.5249   -0.4470   -3.0062 H   0  0  0  0  0  0  0  0  0  0  0  0
   -0.2306    0.9025   -2.4840 H   0  0  0  0  0  0  0  0  0  0  0  0
   -1.3146   -0.1591   -3.8591 N   0  0  0  0  0  4  0  0  0  0  0  0
   -1.3792   -1.1474   -3.7244 H   0  0  0  0  0  0  0  0  0  0  0  0
   -2.0793    0.2931   -3.4004 H   0  0  0  0  0  0  0  0  0  0  0  0
   -1.3403    0.0481   -4.8358 H   0  0  0  0  0  0  0  0  0  0  0  0
   -0.0006    2.8898   -0.0020 C   0  0  0  0  0  0  0  0  0  0  0  0
   -0.9358    3.1973    0.0889 H   0  0  0  0  0  0  0  0  0  0  0  0
    0.3957    3.1932   -0.8556 H   0  0  0  0  0  0  0  0  0  0  0  0
    0.5766    3.3323    0.8098 H   0  0  0  0  0  0  0  0  0  0  0  0
   -0.0004    1.3912    0.0045 C   0  0  0  0  0  0  0  0  0  0  0  0
   -1.1929    0.6860   -0.0048 C   0  0  0  0  0  0  0  0  0  0  0  0
   -2.0601    1.1798   -0.0162 H   0  0  0  0  0  0  0  0  0  0  0  0
   -1.1956   -0.6931    0.0000 C   0  0  0  0  0  0  0  0  0  0  0  0
   -2.0721   -1.1913    0.0046 H   0  0  0  0  0  0  0  0  0  0  0  0
    0.0014   -1.3816    0.0006 C   0  0  0  0  0  0  0  0  0  0  0  0
   -0.0012   -2.3839    0.0008 H   0  0  0  0  0  0  0  0  0  0  0  0
    1.1956   -0.6896   -0.0000 C   0  0  0  0  0  0  0  0  0  0  0  0
    2.0785   -1.1921    0.0012 H   0  0  0  0  0  0  0  0  0  0  0  0
    1.1919    0.6869   -0.0003 C   0  0  0  0  0  0  0  0  0  0  0  0
    2.0602    1.1881   -0.0044 H   0  0  0  0  0  0  0  0  0  0  0  0
  1  5  1  0
  5  8  1  0
  1  2  1  0
  1  3  1  0
  1  4  1  0
  5  6  1  0
  5  7  1  0
  8  9  1  0
  8 10  1  0
  8 11  1  0
 12 16  1  0
 16 17  2  0
 17 19  1  0
 19 21  2  0
 21 23  1  0
 23 25  2  0
 25 16  1  0
 12 13  1  0
 12 14  1  0
 12 15  1  0
 17 18  1  0
 19 20  1  0
 21 22  1  0
 23 24  1  0
 25 26  1  0
M  CHG  1   8   1
M  END
>  <PDB_ID>  (1030) 
pdb2w96

>  <RESIDUE_NAME>  (1030) 
LYS   PHE

>  <FRAG_NAME>  (1030) 
ETAM   MBZ

>  <FRAG_ATOM_NUM>  (1030) 
fragi: 11  fragj: 15

>  <atom.prop.CHAIN_ID>  (1030) 
A A A A A A A A A A A Z Z Z Z Z Z Z Z Z Z Z Z Z Z Z

>  <atom.prop.IS_HEAVY_ATOM>  (1030) 
1 0 0 0 1 0 0 1 0 0 0 1 0 0 0 1 1 0 1 0 1 0 1 0 1 0

>  <DIFUSE_FUNC_ATOM>  (1030) 
n/a

>  <FINAL_SINGLE_POINT_ENERGY>  (1030) 
0

>  <NONCOV_INTER_ENERGY_QM>  (1030) 
0

>  <FF_Energy>  (1030) 
-5.51

>  <QM_Energy>  (1030) 
-10.6

>  <source>  (1030) 
ETAM_MBZ

>  <Index>  (1030) 
10362

$$$$
ETAM-pdb1q1r-A-LYS-339:MBZ-pdb1q1r-A-PHE-383
     RDKit          3D

 26 25  0  0  0  0  0  0  0  0999 V2000
    1.7288    1.0435   -3.7689 C   0  0  0  0  0  0  0  0  0  0  0  0
    2.3801    1.4166   -4.4222 H   0  0  0  0  0  0  0  0  0  0  0  0
    1.5188    1.7156   -3.0660 H   0  0  0  0  0  0  0  0  0  0  0  0
    0.8108    0.7827   -4.2955 H   0  0  0  0  0  0  0  0  0  0  0  0
    2.3544   -0.1736   -3.1027 C   0  0  0  0  0  0  0  0  0  0  0  0
    1.7118   -0.5422   -2.4260 H   0  0  0  0  0  0  0  0  0  0  0  0
    2.5301   -0.8739   -3.7998 H   0  0  0  0  0  0  0  0  0  0  0  0
    3.6424    0.1626   -2.4164 N   0  0  0  0  0  4  0  0  0  0  0  0
    3.5215    0.0708   -1.4302 H   0  0  0  0  0  0  0  0  0  0  0  0
    4.3531   -0.4648   -2.7295 H   0  0  0  0  0  0  0  0  0  0  0  0
    3.8967    1.1010   -2.6400 H   0  0  0  0  0  0  0  0  0  0  0  0
   -0.0001    2.9016    0.0626 C   0  0  0  0  0  0  0  0  0  0  0  0
   -0.5920    3.2380   -0.6515 H   0  0  0  0  0  0  0  0  0  0  0  0
    0.9283    3.2145   -0.0569 H   0  0  0  0  0  0  0  0  0  0  0  0
   -0.3649    3.2947    1.0115 H   0  0  0  0  0  0  0  0  0  0  0  0
    0.0005    1.4020    0.0008 C   0  0  0  0  0  0  0  0  0  0  0  0
   -1.1976    0.6942   -0.0012 C   0  0  0  0  0  0  0  0  0  0  0  0
   -2.0639    1.1856   -0.0047 H   0  0  0  0  0  0  0  0  0  0  0  0
   -1.2042   -0.6983   -0.0000 C   0  0  0  0  0  0  0  0  0  0  0  0
   -2.0804   -1.1907    0.0010 H   0  0  0  0  0  0  0  0  0  0  0  0
   -0.0014   -1.3947    0.0022 C   0  0  0  0  0  0  0  0  0  0  0  0
   -0.0040   -2.3927    0.0049 H   0  0  0  0  0  0  0  0  0  0  0  0
    1.2042   -0.6978    0.0000 C   0  0  0  0  0  0  0  0  0  0  0  0
    2.0835   -1.1957    0.0010 H   0  0  0  0  0  0  0  0  0  0  0  0
    1.1985    0.6947   -0.0018 C   0  0  0  0  0  0  0  0  0  0  0  0
    2.0663    1.1909   -0.0060 H   0  0  0  0  0  0  0  0  0  0  0  0
  1  5  1  0
  5  8  1  0
  1  2  1  0
  1  3  1  0
  1  4  1  0
  5  6  1  0
  5  7  1  0
  8  9  1  0
  8 10  1  0
  8 11  1  0
 12 16  1  0
 16 17  2  0
 17 19  1  0
 19 21  2  0
 21 23  1  0
 23 25  2  0
 25 16  1  0
 12 13  1  0
 12 14  1  0
 12 15  1  0
 17 18  1  0
 19 20  1  0
 21 22  1  0
 23 24  1  0
 25 26  1  0
M  CHG  1   8   1
M  END
>  <PDB_ID>  (1031) 
pdb1q1r

>  <RESIDUE_NAME>  (1031) 
LYS   PHE

>  <FRAG_NAME>  (1031) 
ETAM   MBZ

>  <FRAG_ATOM_NUM>  (1031) 
fragi: 11  fragj: 15

>  <atom.prop.CHAIN_ID>  (1031) 
A A A A A A A A A A A Z Z Z Z Z Z Z Z Z Z Z Z Z Z Z

>  <atom.prop.IS_HEAVY_ATOM>  (1031) 
1 0 0 0 1 0 0 1 0 0 0 1 0 0 0 1 1 0 1 0 1 0 1 0 1 0

>  <DIFUSE_FUNC_ATOM>  (1031) 
n/a

>  <FINAL_SINGLE_POINT_ENERGY>  (1031) 
0

>  <NONCOV_INTER_ENERGY_QM>  (1031) 
0

>  <FF_Energy>  (1031) 
-1.39

>  <QM_Energy>  (1031) 
-8.04

>  <source>  (1031) 
ETAM_MBZ

>  <Index>  (1031) 
10371

$$$$
ETAM-pdb1q1r-A-LYS-387:MBZ-pdb1q1r-A-PHE-383
     RDKit          3D

 26 25  0  0  0  0  0  0  0  0999 V2000
    2.0266   -1.8339    4.0171 C   0  0  0  0  0  0  0  0  0  0  0  0
    2.6366   -1.0417    4.0571 H   0  0  0  0  0  0  0  0  0  0  0  0
    2.3040   -2.5028    4.7069 H   0  0  0  0  0  0  0  0  0  0  0  0
    1.0136   -1.5017    4.2437 H   0  0  0  0  0  0  0  0  0  0  0  0
    2.1393   -2.4677    2.6504 C   0  0  0  0  0  0  0  0  0  0  0  0
    1.5435   -3.2672    2.6070 H   0  0  0  0  0  0  0  0  0  0  0  0
    1.8666   -1.8055    1.9555 H   0  0  0  0  0  0  0  0  0  0  0  0
    3.5461   -2.8940    2.3914 N   0  0  0  0  0  4  0  0  0  0  0  0
    3.5458   -3.8203    2.0173 H   0  0  0  0  0  0  0  0  0  0  0  0
    3.9649   -2.2660    1.7372 H   0  0  0  0  0  0  0  0  0  0  0  0
    4.0582   -2.8775    3.2484 H   0  0  0  0  0  0  0  0  0  0  0  0
   -0.0001    2.9016    0.0626 C   0  0  0  0  0  0  0  0  0  0  0  0
   -0.5920    3.2380   -0.6515 H   0  0  0  0  0  0  0  0  0  0  0  0
    0.9283    3.2145   -0.0569 H   0  0  0  0  0  0  0  0  0  0  0  0
   -0.3649    3.2947    1.0115 H   0  0  0  0  0  0  0  0  0  0  0  0
    0.0005    1.4020    0.0008 C   0  0  0  0  0  0  0  0  0  0  0  0
   -1.1976    0.6942   -0.0012 C   0  0  0  0  0  0  0  0  0  0  0  0
   -2.0639    1.1856   -0.0047 H   0  0  0  0  0  0  0  0  0  0  0  0
   -1.2042   -0.6983   -0.0000 C   0  0  0  0  0  0  0  0  0  0  0  0
   -2.0804   -1.1907    0.0010 H   0  0  0  0  0  0  0  0  0  0  0  0
   -0.0014   -1.3947    0.0022 C   0  0  0  0  0  0  0  0  0  0  0  0
   -0.0040   -2.3927    0.0049 H   0  0  0  0  0  0  0  0  0  0  0  0
    1.2042   -0.6978    0.0000 C   0  0  0  0  0  0  0  0  0  0  0  0
    2.0835   -1.1957    0.0010 H   0  0  0  0  0  0  0  0  0  0  0  0
    1.1985    0.6947   -0.0018 C   0  0  0  0  0  0  0  0  0  0  0  0
    2.0663    1.1909   -0.0060 H   0  0  0  0  0  0  0  0  0  0  0  0
  1  5  1  0
  5  8  1  0
  1  2  1  0
  1  3  1  0
  1  4  1  0
  5  6  1  0
  5  7  1  0
  8  9  1  0
  8 10  1  0
  8 11  1  0
 12 16  1  0
 16 17  2  0
 17 19  1  0
 19 21  2  0
 21 23  1  0
 23 25  2  0
 25 16  1  0
 12 13  1  0
 12 14  1  0
 12 15  1  0
 17 18  1  0
 19 20  1  0
 21 22  1  0
 23 24  1  0
 25 26  1  0
M  CHG  1   8   1
M  END
>  <PDB_ID>  (1032) 
pdb1q1r

>  <RESIDUE_NAME>  (1032) 
LYS   PHE

>  <FRAG_NAME>  (1032) 
ETAM   MBZ

>  <FRAG_ATOM_NUM>  (1032) 
fragi: 11  fragj: 15

>  <atom.prop.CHAIN_ID>  (1032) 
A A A A A A A A A A A Z Z Z Z Z Z Z Z Z Z Z Z Z Z Z

>  <atom.prop.IS_HEAVY_ATOM>  (1032) 
1 0 0 0 1 0 0 1 0 0 0 1 0 0 0 1 1 0 1 0 1 0 1 0 1 0

>  <DIFUSE_FUNC_ATOM>  (1032) 
n/a

>  <FINAL_SINGLE_POINT_ENERGY>  (1032) 
0

>  <NONCOV_INTER_ENERGY_QM>  (1032) 
0

>  <FF_Energy>  (1032) 
2.25

>  <QM_Energy>  (1032) 
-4.0

>  <source>  (1032) 
ETAM_MBZ

>  <Index>  (1032) 
10372

$$$$
ETAM-pdb1q1l-A-LYS-292:MBZ-pdb1q1l-A-PHE-295
     RDKit          3D

 26 25  0  0  0  0  0  0  0  0999 V2000
   -1.9544    0.5230    3.8918 C   0  0  0  0  0  0  0  0  0  0  0  0
   -1.9210    0.1622    4.8206 H   0  0  0  0  0  0  0  0  0  0  0  0
   -1.9873   -0.2253    3.2347 H   0  0  0  0  0  0  0  0  0  0  0  0
   -2.8552    1.1270    3.7826 H   0  0  0  0  0  0  0  0  0  0  0  0
   -0.6973    1.3343    3.6404 C   0  0  0  0  0  0  0  0  0  0  0  0
   -0.7403    1.7269    2.7210 H   0  0  0  0  0  0  0  0  0  0  0  0
   -0.6446    2.0734    4.3136 H   0  0  0  0  0  0  0  0  0  0  0  0
    0.5227    0.4853    3.7522 N   0  0  0  0  0  4  0  0  0  0  0  0
    1.3077    1.0624    3.9747 H   0  0  0  0  0  0  0  0  0  0  0  0
    0.3891   -0.1924    4.4742 H   0  0  0  0  0  0  0  0  0  0  0  0
    0.6832    0.0215    2.8816 H   0  0  0  0  0  0  0  0  0  0  0  0
    0.0022    2.9101    0.0105 C   0  0  0  0  0  0  0  0  0  0  0  0
    0.8965    3.2111    0.3097 H   0  0  0  0  0  0  0  0  0  0  0  0
   -0.7037    3.2132    0.6340 H   0  0  0  0  0  0  0  0  0  0  0  0
   -0.1941    3.3660   -0.9599 H   0  0  0  0  0  0  0  0  0  0  0  0
   -0.0014    1.4036    0.0004 C   0  0  0  0  0  0  0  0  0  0  0  0
   -1.1982    0.6975   -0.0011 C   0  0  0  0  0  0  0  0  0  0  0  0
   -2.0650    1.1890   -0.0042 H   0  0  0  0  0  0  0  0  0  0  0  0
   -1.2065   -0.6943   -0.0000 C   0  0  0  0  0  0  0  0  0  0  0  0
   -2.0811   -1.1878    0.0021 H   0  0  0  0  0  0  0  0  0  0  0  0
    0.0009   -1.3992    0.0006 C   0  0  0  0  0  0  0  0  0  0  0  0
   -0.0070   -2.3940    0.0011 H   0  0  0  0  0  0  0  0  0  0  0  0
    1.2065   -0.7014    0.0000 C   0  0  0  0  0  0  0  0  0  0  0  0
    2.0860   -1.1969    0.0009 H   0  0  0  0  0  0  0  0  0  0  0  0
    1.1987    0.6938    0.0001 C   0  0  0  0  0  0  0  0  0  0  0  0
    2.0655    1.1904   -0.0012 H   0  0  0  0  0  0  0  0  0  0  0  0
  1  5  1  0
  5  8  1  0
  1  2  1  0
  1  3  1  0
  1  4  1  0
  5  6  1  0
  5  7  1  0
  8  9  1  0
  8 10  1  0
  8 11  1  0
 12 16  1  0
 16 17  2  0
 17 19  1  0
 19 21  2  0
 21 23  1  0
 23 25  2  0
 25 16  1  0
 12 13  1  0
 12 14  1  0
 12 15  1  0
 17 18  1  0
 19 20  1  0
 21 22  1  0
 23 24  1  0
 25 26  1  0
M  CHG  1   8   1
M  END
>  <PDB_ID>  (1033) 
pdb1q1l

>  <RESIDUE_NAME>  (1033) 
LYS   PHE

>  <FRAG_NAME>  (1033) 
ETAM   MBZ

>  <FRAG_ATOM_NUM>  (1033) 
fragi: 11  fragj: 15

>  <atom.prop.CHAIN_ID>  (1033) 
A A A A A A A A A A A Z Z Z Z Z Z Z Z Z Z Z Z Z Z Z

>  <atom.prop.IS_HEAVY_ATOM>  (1033) 
1 0 0 0 1 0 0 1 0 0 0 1 0 0 0 1 1 0 1 0 1 0 1 0 1 0

>  <DIFUSE_FUNC_ATOM>  (1033) 
n/a

>  <FINAL_SINGLE_POINT_ENERGY>  (1033) 
0

>  <NONCOV_INTER_ENERGY_QM>  (1033) 
0

>  <FF_Energy>  (1033) 
-7.75

>  <QM_Energy>  (1033) 
-13.05

>  <source>  (1033) 
ETAM_MBZ

>  <Index>  (1033) 
10385

$$$$
ETAM-pdb1q1l-B-LYS-193:MBZ-pdb1q1l-B-PHE-203
     RDKit          3D

 26 25  0  0  0  0  0  0  0  0999 V2000
    0.4716    0.0543    5.8443 C   0  0  0  0  0  0  0  0  0  0  0  0
    1.0422   -0.6713    6.2217 H   0  0  0  0  0  0  0  0  0  0  0  0
   -0.3559   -0.3339    5.4469 H   0  0  0  0  0  0  0  0  0  0  0  0
    0.1893    0.7328    6.6493 H   0  0  0  0  0  0  0  0  0  0  0  0
    1.2499    0.7634    4.7492 C   0  0  0  0  0  0  0  0  0  0  0  0
    0.7243    1.5546    4.4356 H   0  0  0  0  0  0  0  0  0  0  0  0
    2.1266    1.0720    5.1192 H   0  0  0  0  0  0  0  0  0  0  0  0
    1.4982   -0.1470    3.5977 N   0  0  0  0  0  4  0  0  0  0  0  0
    1.5192   -1.0924    3.9218 H   0  0  0  0  0  0  0  0  0  0  0  0
    0.7656   -0.0386    2.9260 H   0  0  0  0  0  0  0  0  0  0  0  0
    2.3755    0.0821    3.1769 H   0  0  0  0  0  0  0  0  0  0  0  0
   -0.0013    2.9066    0.0462 C   0  0  0  0  0  0  0  0  0  0  0  0
   -0.6535    3.2325   -0.6203 H   0  0  0  0  0  0  0  0  0  0  0  0
    0.9124    3.2200   -0.1570 H   0  0  0  0  0  0  0  0  0  0  0  0
   -0.2850    3.3137    1.0168 H   0  0  0  0  0  0  0  0  0  0  0  0
    0.0002    1.4041    0.0011 C   0  0  0  0  0  0  0  0  0  0  0  0
   -1.1954    0.6927   -0.0002 C   0  0  0  0  0  0  0  0  0  0  0  0
   -2.0637    1.1820   -0.0022 H   0  0  0  0  0  0  0  0  0  0  0  0
   -1.2007   -0.7006   -0.0000 C   0  0  0  0  0  0  0  0  0  0  0  0
   -2.0772   -1.1928    0.0010 H   0  0  0  0  0  0  0  0  0  0  0  0
    0.0006   -1.3962    0.0006 C   0  0  0  0  0  0  0  0  0  0  0  0
   -0.0018   -2.3943    0.0009 H   0  0  0  0  0  0  0  0  0  0  0  0
    1.2007   -0.6969    0.0000 C   0  0  0  0  0  0  0  0  0  0  0  0
    2.0825   -1.1921    0.0021 H   0  0  0  0  0  0  0  0  0  0  0  0
    1.1946    0.6969   -0.0015 C   0  0  0  0  0  0  0  0  0  0  0  0
    2.0640    1.1921   -0.0055 H   0  0  0  0  0  0  0  0  0  0  0  0
  1  5  1  0
  5  8  1  0
  1  2  1  0
  1  3  1  0
  1  4  1  0
  5  6  1  0
  5  7  1  0
  8  9  1  0
  8 10  1  0
  8 11  1  0
 12 16  1  0
 16 17  2  0
 17 19  1  0
 19 21  2  0
 21 23  1  0
 23 25  2  0
 25 16  1  0
 12 13  1  0
 12 14  1  0
 12 15  1  0
 17 18  1  0
 19 20  1  0
 21 22  1  0
 23 24  1  0
 25 26  1  0
M  CHG  1   8   1
M  END
>  <PDB_ID>  (1034) 
pdb1q1l

>  <RESIDUE_NAME>  (1034) 
LYS   PHE

>  <FRAG_NAME>  (1034) 
ETAM   MBZ

>  <FRAG_ATOM_NUM>  (1034) 
fragi: 11  fragj: 15

>  <atom.prop.CHAIN_ID>  (1034) 
A A A A A A A A A A A Z Z Z Z Z Z Z Z Z Z Z Z Z Z Z

>  <atom.prop.IS_HEAVY_ATOM>  (1034) 
1 0 0 0 1 0 0 1 0 0 0 1 0 0 0 1 1 0 1 0 1 0 1 0 1 0

>  <DIFUSE_FUNC_ATOM>  (1034) 
n/a

>  <FINAL_SINGLE_POINT_ENERGY>  (1034) 
0

>  <NONCOV_INTER_ENERGY_QM>  (1034) 
0

>  <FF_Energy>  (1034) 
-5.86

>  <QM_Energy>  (1034) 
-10.94

>  <source>  (1034) 
ETAM_MBZ

>  <Index>  (1034) 
10386

$$$$
ETAM-pdb1q1l-C-LYS-292:MBZ-pdb1q1l-C-PHE-295
     RDKit          3D

 26 25  0  0  0  0  0  0  0  0999 V2000
   -1.5023    1.0844    4.4595 C   0  0  0  0  0  0  0  0  0  0  0  0
   -0.7640    1.7404    4.5904 H   0  0  0  0  0  0  0  0  0  0  0  0
   -1.6025    0.5153    5.2708 H   0  0  0  0  0  0  0  0  0  0  0  0
   -2.4308    1.6327    4.2997 H   0  0  0  0  0  0  0  0  0  0  0  0
   -1.1593    0.1933    3.2793 C   0  0  0  0  0  0  0  0  0  0  0  0
   -1.8249   -0.5552    3.2304 H   0  0  0  0  0  0  0  0  0  0  0  0
   -1.2136    0.7328    2.4353 H   0  0  0  0  0  0  0  0  0  0  0  0
    0.2118   -0.3826    3.4006 N   0  0  0  0  0  4  0  0  0  0  0  0
    0.6302   -0.0618    4.2494 H   0  0  0  0  0  0  0  0  0  0  0  0
    0.1506   -1.3799    3.4115 H   0  0  0  0  0  0  0  0  0  0  0  0
    0.7639   -0.0878    2.6217 H   0  0  0  0  0  0  0  0  0  0  0  0
    0.0052    2.9141    0.0096 C   0  0  0  0  0  0  0  0  0  0  0  0
    0.9000    3.2161    0.3064 H   0  0  0  0  0  0  0  0  0  0  0  0
   -0.6994    3.2177    0.6338 H   0  0  0  0  0  0  0  0  0  0  0  0
   -0.1931    3.3676   -0.9615 H   0  0  0  0  0  0  0  0  0  0  0  0
    0.0013    1.4083    0.0008 C   0  0  0  0  0  0  0  0  0  0  0  0
   -1.1986    0.6981   -0.0009 C   0  0  0  0  0  0  0  0  0  0  0  0
   -2.0648    1.1860   -0.0039 H   0  0  0  0  0  0  0  0  0  0  0  0
   -1.2059   -0.7031   -0.0000 C   0  0  0  0  0  0  0  0  0  0  0  0
   -2.0823   -1.1915    0.0018 H   0  0  0  0  0  0  0  0  0  0  0  0
   -0.0015   -1.4024    0.0005 C   0  0  0  0  0  0  0  0  0  0  0  0
   -0.0032   -2.3981   -0.0001 H   0  0  0  0  0  0  0  0  0  0  0  0
    1.2059   -0.7005   -0.0000 C   0  0  0  0  0  0  0  0  0  0  0  0
    2.0852   -1.1949    0.0009 H   0  0  0  0  0  0  0  0  0  0  0  0
    1.1988    0.6996   -0.0005 C   0  0  0  0  0  0  0  0  0  0  0  0
    2.0678    1.1930   -0.0024 H   0  0  0  0  0  0  0  0  0  0  0  0
  1  5  1  0
  5  8  1  0
  1  2  1  0
  1  3  1  0
  1  4  1  0
  5  6  1  0
  5  7  1  0
  8  9  1  0
  8 10  1  0
  8 11  1  0
 12 16  1  0
 16 17  2  0
 17 19  1  0
 19 21  2  0
 21 23  1  0
 23 25  2  0
 25 16  1  0
 12 13  1  0
 12 14  1  0
 12 15  1  0
 17 18  1  0
 19 20  1  0
 21 22  1  0
 23 24  1  0
 25 26  1  0
M  CHG  1   8   1
M  END
>  <PDB_ID>  (1035) 
pdb1q1l

>  <RESIDUE_NAME>  (1035) 
LYS   PHE

>  <FRAG_NAME>  (1035) 
ETAM   MBZ

>  <FRAG_ATOM_NUM>  (1035) 
fragi: 11  fragj: 15

>  <atom.prop.CHAIN_ID>  (1035) 
A A A A A A A A A A A Z Z Z Z Z Z Z Z Z Z Z Z Z Z Z

>  <atom.prop.IS_HEAVY_ATOM>  (1035) 
1 0 0 0 1 0 0 1 0 0 0 1 0 0 0 1 1 0 1 0 1 0 1 0 1 0

>  <DIFUSE_FUNC_ATOM>  (1035) 
n/a

>  <FINAL_SINGLE_POINT_ENERGY>  (1035) 
0

>  <NONCOV_INTER_ENERGY_QM>  (1035) 
0

>  <FF_Energy>  (1035) 
-6.94

>  <QM_Energy>  (1035) 
-14.42

>  <source>  (1035) 
ETAM_MBZ

>  <Index>  (1035) 
10388

$$$$
ETAM-pdb1q1l-D-LYS-193:MBZ-pdb1q1l-D-PHE-203
     RDKit          3D

 26 25  0  0  0  0  0  0  0  0999 V2000
    2.2170    0.2004    5.5323 C   0  0  0  0  0  0  0  0  0  0  0  0
    3.0092   -0.3703    5.7412 H   0  0  0  0  0  0  0  0  0  0  0  0
    1.3912   -0.3603    5.5131 H   0  0  0  0  0  0  0  0  0  0  0  0
    2.1126    0.9547    6.3122 H   0  0  0  0  0  0  0  0  0  0  0  0
    2.4139    0.8178    4.1597 C   0  0  0  0  0  0  0  0  0  0  0  0
    1.6920    1.4916    3.9979 H   0  0  0  0  0  0  0  0  0  0  0  0
    3.3047    1.2724    4.1301 H   0  0  0  0  0  0  0  0  0  0  0  0
    2.3598   -0.2211    3.0927 N   0  0  0  0  0  4  0  0  0  0  0  0
    1.5462   -0.0758    2.5308 H   0  0  0  0  0  0  0  0  0  0  0  0
    3.1778   -0.1524    2.5232 H   0  0  0  0  0  0  0  0  0  0  0  0
    2.3195   -1.1264    3.5141 H   0  0  0  0  0  0  0  0  0  0  0  0
    0.0029    2.9046    0.0317 C   0  0  0  0  0  0  0  0  0  0  0  0
   -0.7966    3.2232   -0.4532 H   0  0  0  0  0  0  0  0  0  0  0  0
    0.8358    3.2192   -0.3972 H   0  0  0  0  0  0  0  0  0  0  0  0
   -0.0304    3.3189    1.0393 H   0  0  0  0  0  0  0  0  0  0  0  0
   -0.0001    1.4043   -0.0005 C   0  0  0  0  0  0  0  0  0  0  0  0
   -1.1974    0.6978    0.0004 C   0  0  0  0  0  0  0  0  0  0  0  0
   -2.0636    1.1858   -0.0000 H   0  0  0  0  0  0  0  0  0  0  0  0
   -1.2032   -0.6990   -0.0000 C   0  0  0  0  0  0  0  0  0  0  0  0
   -2.0791   -1.1901    0.0008 H   0  0  0  0  0  0  0  0  0  0  0  0
    0.0017   -1.3986    0.0006 C   0  0  0  0  0  0  0  0  0  0  0  0
   -0.0040   -2.3958    0.0007 H   0  0  0  0  0  0  0  0  0  0  0  0
    1.2032   -0.7006    0.0000 C   0  0  0  0  0  0  0  0  0  0  0  0
    2.0850   -1.1939    0.0017 H   0  0  0  0  0  0  0  0  0  0  0  0
    1.1957    0.6961   -0.0005 C   0  0  0  0  0  0  0  0  0  0  0  0
    2.0649    1.1904   -0.0011 H   0  0  0  0  0  0  0  0  0  0  0  0
  1  5  1  0
  5  8  1  0
  1  2  1  0
  1  3  1  0
  1  4  1  0
  5  6  1  0
  5  7  1  0
  8  9  1  0
  8 10  1  0
  8 11  1  0
 12 16  1  0
 16 17  2  0
 17 19  1  0
 19 21  2  0
 21 23  1  0
 23 25  2  0
 25 16  1  0
 12 13  1  0
 12 14  1  0
 12 15  1  0
 17 18  1  0
 19 20  1  0
 21 22  1  0
 23 24  1  0
 25 26  1  0
M  CHG  1   8   1
M  END
>  <PDB_ID>  (1036) 
pdb1q1l

>  <RESIDUE_NAME>  (1036) 
LYS   PHE

>  <FRAG_NAME>  (1036) 
ETAM   MBZ

>  <FRAG_ATOM_NUM>  (1036) 
fragi: 11  fragj: 15

>  <atom.prop.CHAIN_ID>  (1036) 
A A A A A A A A A A A Z Z Z Z Z Z Z Z Z Z Z Z Z Z Z

>  <atom.prop.IS_HEAVY_ATOM>  (1036) 
1 0 0 0 1 0 0 1 0 0 0 1 0 0 0 1 1 0 1 0 1 0 1 0 1 0

>  <DIFUSE_FUNC_ATOM>  (1036) 
n/a

>  <FINAL_SINGLE_POINT_ENERGY>  (1036) 
0

>  <NONCOV_INTER_ENERGY_QM>  (1036) 
0

>  <FF_Energy>  (1036) 
-4.83

>  <QM_Energy>  (1036) 
-11.15

>  <source>  (1036) 
ETAM_MBZ

>  <Index>  (1036) 
10389

$$$$
ETAM-pdb1q2v-D-LYS-46:MBZ-pdb1q2v-D-PHE-482
     RDKit          3D

 26 25  0  0  0  0  0  0  0  0999 V2000
   -3.4277   -0.9087   -3.3877 C   0  0  0  0  0  0  0  0  0  0  0  0
   -4.3819   -1.1692   -3.4732 H   0  0  0  0  0  0  0  0  0  0  0  0
   -2.9525   -1.5151   -2.7625 H   0  0  0  0  0  0  0  0  0  0  0  0
   -2.9509   -0.9467   -4.3671 H   0  0  0  0  0  0  0  0  0  0  0  0
   -3.3659    0.5012   -2.8254 C   0  0  0  0  0  0  0  0  0  0  0  0
   -2.4069    0.7957   -2.7854 H   0  0  0  0  0  0  0  0  0  0  0  0
   -3.8702    1.1191   -3.4354 H   0  0  0  0  0  0  0  0  0  0  0  0
   -3.9568    0.5819   -1.4560 N   0  0  0  0  0  4  0  0  0  0  0  0
   -4.8334    1.0574   -1.5036 H   0  0  0  0  0  0  0  0  0  0  0  0
   -4.0937   -0.3413   -1.1019 H   0  0  0  0  0  0  0  0  0  0  0  0
   -3.3335    1.0831   -0.8583 H   0  0  0  0  0  0  0  0  0  0  0  0
   -0.0029    2.8994    0.0151 C   0  0  0  0  0  0  0  0  0  0  0  0
    0.9361    3.2086    0.0544 H   0  0  0  0  0  0  0  0  0  0  0  0
   -0.5119    3.1982    0.8095 H   0  0  0  0  0  0  0  0  0  0  0  0
   -0.4654    3.3476   -0.8643 H   0  0  0  0  0  0  0  0  0  0  0  0
    0.0007    1.4021   -0.0002 C   0  0  0  0  0  0  0  0  0  0  0  0
   -1.1959    0.6914   -0.0004 C   0  0  0  0  0  0  0  0  0  0  0  0
   -2.0634    1.1823   -0.0018 H   0  0  0  0  0  0  0  0  0  0  0  0
   -1.2030   -0.7009   -0.0000 C   0  0  0  0  0  0  0  0  0  0  0  0
   -2.0801   -1.1925    0.0006 H   0  0  0  0  0  0  0  0  0  0  0  0
   -0.0028   -1.3964    0.0007 C   0  0  0  0  0  0  0  0  0  0  0  0
   -0.0025   -2.3933    0.0012 H   0  0  0  0  0  0  0  0  0  0  0  0
    1.2030   -0.6950    0.0000 C   0  0  0  0  0  0  0  0  0  0  0  0
    2.0827   -1.1926    0.0014 H   0  0  0  0  0  0  0  0  0  0  0  0
    1.1980    0.6988   -0.0001 C   0  0  0  0  0  0  0  0  0  0  0  0
    2.0653    1.1937   -0.0015 H   0  0  0  0  0  0  0  0  0  0  0  0
  1  5  1  0
  5  8  1  0
  1  2  1  0
  1  3  1  0
  1  4  1  0
  5  6  1  0
  5  7  1  0
  8  9  1  0
  8 10  1  0
  8 11  1  0
 12 16  1  0
 16 17  2  0
 17 19  1  0
 19 21  2  0
 21 23  1  0
 23 25  2  0
 25 16  1  0
 12 13  1  0
 12 14  1  0
 12 15  1  0
 17 18  1  0
 19 20  1  0
 21 22  1  0
 23 24  1  0
 25 26  1  0
M  CHG  1   8   1
M  END
>  <PDB_ID>  (1037) 
pdb1q2v

>  <RESIDUE_NAME>  (1037) 
LYS   PHE

>  <FRAG_NAME>  (1037) 
ETAM   MBZ

>  <FRAG_ATOM_NUM>  (1037) 
fragi: 11  fragj: 15

>  <atom.prop.CHAIN_ID>  (1037) 
A A A A A A A A A A A Z Z Z Z Z Z Z Z Z Z Z Z Z Z Z

>  <atom.prop.IS_HEAVY_ATOM>  (1037) 
1 0 0 0 1 0 0 1 0 0 0 1 0 0 0 1 1 0 1 0 1 0 1 0 1 0

>  <DIFUSE_FUNC_ATOM>  (1037) 
n/a

>  <FINAL_SINGLE_POINT_ENERGY>  (1037) 
0

>  <NONCOV_INTER_ENERGY_QM>  (1037) 
0

>  <FF_Energy>  (1037) 
1.8

>  <QM_Energy>  (1037) 
-4.74

>  <source>  (1037) 
ETAM_MBZ

>  <Index>  (1037) 
10408

$$$$
ETAM-pdb2wcv-H-LYS-116:MBZ-pdb2wcv-A-PHE-108
     RDKit          3D

 26 25  0  0  0  0  0  0  0  0999 V2000
    4.4050    1.3948    4.4381 C   0  0  0  0  0  0  0  0  0  0  0  0
    4.1495    0.4388    4.5207 H   0  0  0  0  0  0  0  0  0  0  0  0
    3.7977    1.9690    4.9735 H   0  0  0  0  0  0  0  0  0  0  0  0
    5.4277    1.5245    4.7923 H   0  0  0  0  0  0  0  0  0  0  0  0
    4.2817    1.8007    2.9711 C   0  0  0  0  0  0  0  0  0  0  0  0
    4.5778    2.7559    2.8737 H   0  0  0  0  0  0  0  0  0  0  0  0
    4.8901    1.2183    2.4220 H   0  0  0  0  0  0  0  0  0  0  0  0
    2.8852    1.6672    2.4588 N   0  0  0  0  0  4  0  0  0  0  0  0
    2.8387    2.0328    1.5310 H   0  0  0  0  0  0  0  0  0  0  0  0
    2.6277    0.7026    2.4533 H   0  0  0  0  0  0  0  0  0  0  0  0
    2.2669    2.1776    3.0536 H   0  0  0  0  0  0  0  0  0  0  0  0
   -0.0067    2.9157   -0.0474 C   0  0  0  0  0  0  0  0  0  0  0  0
    0.9074    3.2305    0.1481 H   0  0  0  0  0  0  0  0  0  0  0  0
   -0.6556    3.2388    0.6208 H   0  0  0  0  0  0  0  0  0  0  0  0
   -0.2986    3.3160   -1.0183 H   0  0  0  0  0  0  0  0  0  0  0  0
   -0.0006    1.4091   -0.0005 C   0  0  0  0  0  0  0  0  0  0  0  0
   -1.1971    0.6960   -0.0000 C   0  0  0  0  0  0  0  0  0  0  0  0
   -2.0658    1.1816   -0.0005 H   0  0  0  0  0  0  0  0  0  0  0  0
   -1.2029   -0.7055   -0.0000 C   0  0  0  0  0  0  0  0  0  0  0  0
   -2.0800   -1.1935    0.0022 H   0  0  0  0  0  0  0  0  0  0  0  0
   -0.0011   -1.4010   -0.0009 C   0  0  0  0  0  0  0  0  0  0  0  0
   -0.0010   -2.3982   -0.0022 H   0  0  0  0  0  0  0  0  0  0  0  0
    1.2029   -0.6992    0.0000 C   0  0  0  0  0  0  0  0  0  0  0  0
    2.0842   -1.1941    0.0013 H   0  0  0  0  0  0  0  0  0  0  0  0
    1.1988    0.7006    0.0014 C   0  0  0  0  0  0  0  0  0  0  0  0
    2.0663    1.1929    0.0031 H   0  0  0  0  0  0  0  0  0  0  0  0
  1  5  1  0
  5  8  1  0
  1  2  1  0
  1  3  1  0
  1  4  1  0
  5  6  1  0
  5  7  1  0
  8  9  1  0
  8 10  1  0
  8 11  1  0
 12 16  1  0
 16 17  2  0
 17 19  1  0
 19 21  2  0
 21 23  1  0
 23 25  2  0
 25 16  1  0
 12 13  1  0
 12 14  1  0
 12 15  1  0
 17 18  1  0
 19 20  1  0
 21 22  1  0
 23 24  1  0
 25 26  1  0
M  CHG  1   8   1
M  END
>  <PDB_ID>  (1038) 
pdb2wcv

>  <RESIDUE_NAME>  (1038) 
LYS   PHE

>  <FRAG_NAME>  (1038) 
ETAM   MBZ

>  <FRAG_ATOM_NUM>  (1038) 
fragi: 11  fragj: 15

>  <atom.prop.CHAIN_ID>  (1038) 
A A A A A A A A A A A Z Z Z Z Z Z Z Z Z Z Z Z Z Z Z

>  <atom.prop.IS_HEAVY_ATOM>  (1038) 
1 0 0 0 1 0 0 1 0 0 0 1 0 0 0 1 1 0 1 0 1 0 1 0 1 0

>  <DIFUSE_FUNC_ATOM>  (1038) 
n/a

>  <FINAL_SINGLE_POINT_ENERGY>  (1038) 
0

>  <NONCOV_INTER_ENERGY_QM>  (1038) 
0

>  <FF_Energy>  (1038) 
-1.36

>  <QM_Energy>  (1038) 
-6.42

>  <source>  (1038) 
ETAM_MBZ

>  <Index>  (1038) 
10418

$$$$
ETAM-pdb1q1l-A-LYS-170:MBZ-pdb1q1l-A-PHE-210
     RDKit          3D

 26 25  0  0  0  0  0  0  0  0999 V2000
    0.3925   -0.1453    3.5855 C   0  0  0  0  0  0  0  0  0  0  0  0
    0.5913    0.1874    4.4978 H   0  0  0  0  0  0  0  0  0  0  0  0
    0.7732    0.4572    2.8974 H   0  0  0  0  0  0  0  0  0  0  0  0
    0.8255   -1.1387    3.4682 H   0  0  0  0  0  0  0  0  0  0  0  0
   -1.1149   -0.1977    3.4051 C   0  0  0  0  0  0  0  0  0  0  0  0
   -1.4995    0.7034    3.6062 H   0  0  0  0  0  0  0  0  0  0  0  0
   -1.3223   -0.4431    2.4579 H   0  0  0  0  0  0  0  0  0  0  0  0
   -1.7290   -1.2063    4.3172 N   0  0  0  0  0  4  0  0  0  0  0  0
   -1.3802   -2.1137    4.0879 H   0  0  0  0  0  0  0  0  0  0  0  0
   -1.4930   -0.9834    5.2620 H   0  0  0  0  0  0  0  0  0  0  0  0
   -2.7215   -1.1906    4.2062 H   0  0  0  0  0  0  0  0  0  0  0  0
    0.0077    2.9035    0.0425 C   0  0  0  0  0  0  0  0  0  0  0  0
   -0.7034    3.2309   -0.5605 H   0  0  0  0  0  0  0  0  0  0  0  0
    0.8999    3.2138   -0.2485 H   0  0  0  0  0  0  0  0  0  0  0  0
   -0.1804    3.3164    1.0335 H   0  0  0  0  0  0  0  0  0  0  0  0
   -0.0004    1.4016    0.0009 C   0  0  0  0  0  0  0  0  0  0  0  0
   -1.1974    0.6959    0.0005 C   0  0  0  0  0  0  0  0  0  0  0  0
   -2.0636    1.1856   -0.0005 H   0  0  0  0  0  0  0  0  0  0  0  0
   -1.2033   -0.6968    0.0000 C   0  0  0  0  0  0  0  0  0  0  0  0
   -2.0791   -1.1899    0.0018 H   0  0  0  0  0  0  0  0  0  0  0  0
    0.0010   -1.3948   -0.0007 C   0  0  0  0  0  0  0  0  0  0  0  0
   -0.0032   -2.3922   -0.0025 H   0  0  0  0  0  0  0  0  0  0  0  0
    1.2033   -0.6969    0.0000 C   0  0  0  0  0  0  0  0  0  0  0  0
    2.0836   -1.1953    0.0019 H   0  0  0  0  0  0  0  0  0  0  0  0
    1.1968    0.6911   -0.0007 C   0  0  0  0  0  0  0  0  0  0  0  0
    2.0650    1.1902   -0.0028 H   0  0  0  0  0  0  0  0  0  0  0  0
  1  5  1  0
  5  8  1  0
  1  2  1  0
  1  3  1  0
  1  4  1  0
  5  6  1  0
  5  7  1  0
  8  9  1  0
  8 10  1  0
  8 11  1  0
 12 16  1  0
 16 17  2  0
 17 19  1  0
 19 21  2  0
 21 23  1  0
 23 25  2  0
 25 16  1  0
 12 13  1  0
 12 14  1  0
 12 15  1  0
 17 18  1  0
 19 20  1  0
 21 22  1  0
 23 24  1  0
 25 26  1  0
M  CHG  1   8   1
M  END
>  <PDB_ID>  (1039) 
pdb1q1l

>  <RESIDUE_NAME>  (1039) 
LYS   PHE

>  <FRAG_NAME>  (1039) 
ETAM   MBZ

>  <FRAG_ATOM_NUM>  (1039) 
fragi: 11  fragj: 15

>  <atom.prop.CHAIN_ID>  (1039) 
A A A A A A A A A A A Z Z Z Z Z Z Z Z Z Z Z Z Z Z Z

>  <atom.prop.IS_HEAVY_ATOM>  (1039) 
1 0 0 0 1 0 0 1 0 0 0 1 0 0 0 1 1 0 1 0 1 0 1 0 1 0

>  <DIFUSE_FUNC_ATOM>  (1039) 
n/a

>  <FINAL_SINGLE_POINT_ENERGY>  (1039) 
0

>  <NONCOV_INTER_ENERGY_QM>  (1039) 
0

>  <FF_Energy>  (1039) 
-3.68

>  <QM_Energy>  (1039) 
-8.81

>  <source>  (1039) 
ETAM_MBZ

>  <Index>  (1039) 
10431

$$$$
ETAM-pdb2we4-A-LYS-165:MBZ-pdb2we4-A-PHE-211
     RDKit          3D

 26 25  0  0  0  0  0  0  0  0999 V2000
   -0.2425    1.0407    4.3675 C   0  0  0  0  0  0  0  0  0  0  0  0
   -0.9968    1.2514    3.7588 H   0  0  0  0  0  0  0  0  0  0  0  0
    0.5774    1.5285    4.0963 H   0  0  0  0  0  0  0  0  0  0  0  0
   -0.5123    1.3334    5.3821 H   0  0  0  0  0  0  0  0  0  0  0  0
    0.0362   -0.4531    4.2945 C   0  0  0  0  0  0  0  0  0  0  0  0
    0.8205   -0.6656    4.8825 H   0  0  0  0  0  0  0  0  0  0  0  0
   -0.7674   -0.9507    4.6295 H   0  0  0  0  0  0  0  0  0  0  0  0
    0.3349   -0.8863    2.9036 N   0  0  0  0  0  4  0  0  0  0  0  0
    0.6577   -0.1025    2.3736 H   0  0  0  0  0  0  0  0  0  0  0  0
    1.0425   -1.5922    2.9198 H   0  0  0  0  0  0  0  0  0  0  0  0
   -0.4951   -1.2542    2.4844 H   0  0  0  0  0  0  0  0  0  0  0  0
   -0.0048    2.9195   -0.0760 C   0  0  0  0  0  0  0  0  0  0  0  0
    0.9090    3.2364    0.1144 H   0  0  0  0  0  0  0  0  0  0  0  0
   -0.6537    3.2535    0.5871 H   0  0  0  0  0  0  0  0  0  0  0  0
   -0.2957    3.3036   -1.0537 H   0  0  0  0  0  0  0  0  0  0  0  0
    0.0006    1.4108   -0.0007 C   0  0  0  0  0  0  0  0  0  0  0  0
   -1.2003    0.6970    0.0016 C   0  0  0  0  0  0  0  0  0  0  0  0
   -2.0670    1.1833    0.0027 H   0  0  0  0  0  0  0  0  0  0  0  0
   -1.2042   -0.7036   -0.0000 C   0  0  0  0  0  0  0  0  0  0  0  0
   -2.0793   -1.1945    0.0020 H   0  0  0  0  0  0  0  0  0  0  0  0
    0.0024   -1.4030   -0.0030 C   0  0  0  0  0  0  0  0  0  0  0  0
   -0.0021   -2.3991   -0.0079 H   0  0  0  0  0  0  0  0  0  0  0  0
    1.2042   -0.7022   -0.0000 C   0  0  0  0  0  0  0  0  0  0  0  0
    2.0872   -1.1930    0.0017 H   0  0  0  0  0  0  0  0  0  0  0  0
    1.1973    0.7010    0.0021 C   0  0  0  0  0  0  0  0  0  0  0  0
    2.0672    1.1927    0.0052 H   0  0  0  0  0  0  0  0  0  0  0  0
  1  5  1  0
  5  8  1  0
  1  2  1  0
  1  3  1  0
  1  4  1  0
  5  6  1  0
  5  7  1  0
  8  9  1  0
  8 10  1  0
  8 11  1  0
 12 16  1  0
 16 17  2  0
 17 19  1  0
 19 21  2  0
 21 23  1  0
 23 25  2  0
 25 16  1  0
 12 13  1  0
 12 14  1  0
 12 15  1  0
 17 18  1  0
 19 20  1  0
 21 22  1  0
 23 24  1  0
 25 26  1  0
M  CHG  1   8   1
M  END
>  <PDB_ID>  (1040) 
pdb2we4

>  <RESIDUE_NAME>  (1040) 
LYS   PHE

>  <FRAG_NAME>  (1040) 
ETAM   MBZ

>  <FRAG_ATOM_NUM>  (1040) 
fragi: 11  fragj: 15

>  <atom.prop.CHAIN_ID>  (1040) 
A A A A A A A A A A A Z Z Z Z Z Z Z Z Z Z Z Z Z Z Z

>  <atom.prop.IS_HEAVY_ATOM>  (1040) 
1 0 0 0 1 0 0 1 0 0 0 1 0 0 0 1 1 0 1 0 1 0 1 0 1 0

>  <DIFUSE_FUNC_ATOM>  (1040) 
n/a

>  <FINAL_SINGLE_POINT_ENERGY>  (1040) 
0

>  <NONCOV_INTER_ENERGY_QM>  (1040) 
0

>  <FF_Energy>  (1040) 
-7.18

>  <QM_Energy>  (1040) 
-16.35

>  <source>  (1040) 
ETAM_MBZ

>  <Index>  (1040) 
10432

$$$$
ETAM-pdb2we4-B-LYS-165:MBZ-pdb2we4-B-PHE-211
     RDKit          3D

 26 25  0  0  0  0  0  0  0  0999 V2000
   -0.4315    1.4934    4.5140 C   0  0  0  0  0  0  0  0  0  0  0  0
   -1.2076    1.6384    3.9072 H   0  0  0  0  0  0  0  0  0  0  0  0
    0.3536    2.0175    4.2005 H   0  0  0  0  0  0  0  0  0  0  0  0
   -0.7012    1.8242    5.5170 H   0  0  0  0  0  0  0  0  0  0  0  0
   -0.0665    0.0131    4.4868 C   0  0  0  0  0  0  0  0  0  0  0  0
    0.7414   -0.1328    5.0623 H   0  0  0  0  0  0  0  0  0  0  0  0
   -0.8319   -0.5174    4.8570 H   0  0  0  0  0  0  0  0  0  0  0  0
    0.2307   -0.4626    3.0996 N   0  0  0  0  0  4  0  0  0  0  0  0
    0.5277    0.3123    2.5446 H   0  0  0  0  0  0  0  0  0  0  0  0
    0.9541   -1.1492    3.1364 H   0  0  0  0  0  0  0  0  0  0  0  0
   -0.5954   -0.8634    2.7065 H   0  0  0  0  0  0  0  0  0  0  0  0
   -0.0093    2.9040   -0.1198 C   0  0  0  0  0  0  0  0  0  0  0  0
    0.8995    3.2314    0.0709 H   0  0  0  0  0  0  0  0  0  0  0  0
   -0.6710    3.2572    0.5165 H   0  0  0  0  0  0  0  0  0  0  0  0
   -0.2870    3.2448   -1.1171 H   0  0  0  0  0  0  0  0  0  0  0  0
   -0.0004    1.4062   -0.0012 C   0  0  0  0  0  0  0  0  0  0  0  0
   -1.1980    0.6941    0.0024 C   0  0  0  0  0  0  0  0  0  0  0  0
   -2.0656    1.1825    0.0057 H   0  0  0  0  0  0  0  0  0  0  0  0
   -1.2038   -0.7027    0.0000 C   0  0  0  0  0  0  0  0  0  0  0  0
   -2.0789   -1.1942    0.0026 H   0  0  0  0  0  0  0  0  0  0  0  0
    0.0005   -1.3990   -0.0039 C   0  0  0  0  0  0  0  0  0  0  0  0
   -0.0010   -2.3957   -0.0097 H   0  0  0  0  0  0  0  0  0  0  0  0
    1.2038   -0.6973   -0.0000 C   0  0  0  0  0  0  0  0  0  0  0  0
    2.0855   -1.1926    0.0020 H   0  0  0  0  0  0  0  0  0  0  0  0
    1.1979    0.6987    0.0027 C   0  0  0  0  0  0  0  0  0  0  0  0
    2.0655    1.1939    0.0067 H   0  0  0  0  0  0  0  0  0  0  0  0
  1  5  1  0
  5  8  1  0
  1  2  1  0
  1  3  1  0
  1  4  1  0
  5  6  1  0
  5  7  1  0
  8  9  1  0
  8 10  1  0
  8 11  1  0
 12 16  1  0
 16 17  2  0
 17 19  1  0
 19 21  2  0
 21 23  1  0
 23 25  2  0
 25 16  1  0
 12 13  1  0
 12 14  1  0
 12 15  1  0
 17 18  1  0
 19 20  1  0
 21 22  1  0
 23 24  1  0
 25 26  1  0
M  CHG  1   8   1
M  END
>  <PDB_ID>  (1041) 
pdb2we4

>  <RESIDUE_NAME>  (1041) 
LYS   PHE

>  <FRAG_NAME>  (1041) 
ETAM   MBZ

>  <FRAG_ATOM_NUM>  (1041) 
fragi: 11  fragj: 15

>  <atom.prop.CHAIN_ID>  (1041) 
A A A A A A A A A A A Z Z Z Z Z Z Z Z Z Z Z Z Z Z Z

>  <atom.prop.IS_HEAVY_ATOM>  (1041) 
1 0 0 0 1 0 0 1 0 0 0 1 0 0 0 1 1 0 1 0 1 0 1 0 1 0

>  <DIFUSE_FUNC_ATOM>  (1041) 
n/a

>  <FINAL_SINGLE_POINT_ENERGY>  (1041) 
0

>  <NONCOV_INTER_ENERGY_QM>  (1041) 
0

>  <FF_Energy>  (1041) 
-8.87

>  <QM_Energy>  (1041) 
-16.91

>  <source>  (1041) 
ETAM_MBZ

>  <Index>  (1041) 
10434

$$$$
ETAM-pdb2we4-C-LYS-165:MBZ-pdb2we4-C-PHE-211
     RDKit          3D

 26 25  0  0  0  0  0  0  0  0999 V2000
   -0.1877    1.0774    4.3258 C   0  0  0  0  0  0  0  0  0  0  0  0
   -0.9336    1.1775    3.6845 H   0  0  0  0  0  0  0  0  0  0  0  0
    0.5876    1.6334    4.0678 H   0  0  0  0  0  0  0  0  0  0  0  0
   -0.5285    1.3776    5.3167 H   0  0  0  0  0  0  0  0  0  0  0  0
    0.2461   -0.3839    4.3432 C   0  0  0  0  0  0  0  0  0  0  0  0
    0.9261   -0.5080    5.0760 H   0  0  0  0  0  0  0  0  0  0  0  0
   -0.5562   -0.9545    4.5561 H   0  0  0  0  0  0  0  0  0  0  0  0
    0.8282   -0.8172    3.0545 N   0  0  0  0  0  4  0  0  0  0  0  0
    0.1525   -0.7021    2.3248 H   0  0  0  0  0  0  0  0  0  0  0  0
    1.6357   -0.2635    2.8477 H   0  0  0  0  0  0  0  0  0  0  0  0
    1.0931   -1.7805    3.1122 H   0  0  0  0  0  0  0  0  0  0  0  0
   -0.0083    2.9078   -0.0818 C   0  0  0  0  0  0  0  0  0  0  0  0
    0.8957    3.2306    0.1393 H   0  0  0  0  0  0  0  0  0  0  0  0
   -0.6845    3.2452    0.5511 H   0  0  0  0  0  0  0  0  0  0  0  0
   -0.2629    3.2803   -1.0741 H   0  0  0  0  0  0  0  0  0  0  0  0
   -0.0010    1.4062   -0.0004 C   0  0  0  0  0  0  0  0  0  0  0  0
   -1.1991    0.6944    0.0011 C   0  0  0  0  0  0  0  0  0  0  0  0
   -2.0659    1.1838    0.0014 H   0  0  0  0  0  0  0  0  0  0  0  0
   -1.2057   -0.7004    0.0000 C   0  0  0  0  0  0  0  0  0  0  0  0
   -2.0798   -1.1936    0.0028 H   0  0  0  0  0  0  0  0  0  0  0  0
    0.0016   -1.3996   -0.0025 C   0  0  0  0  0  0  0  0  0  0  0  0
   -0.0018   -2.3957   -0.0069 H   0  0  0  0  0  0  0  0  0  0  0  0
    1.2057   -0.6991    0.0000 C   0  0  0  0  0  0  0  0  0  0  0  0
    2.0863   -1.1937    0.0022 H   0  0  0  0  0  0  0  0  0  0  0  0
    1.1985    0.6986    0.0019 C   0  0  0  0  0  0  0  0  0  0  0  0
    2.0656    1.1939    0.0038 H   0  0  0  0  0  0  0  0  0  0  0  0
  1  5  1  0
  5  8  1  0
  1  2  1  0
  1  3  1  0
  1  4  1  0
  5  6  1  0
  5  7  1  0
  8  9  1  0
  8 10  1  0
  8 11  1  0
 12 16  1  0
 16 17  2  0
 17 19  1  0
 19 21  2  0
 21 23  1  0
 23 25  2  0
 25 16  1  0
 12 13  1  0
 12 14  1  0
 12 15  1  0
 17 18  1  0
 19 20  1  0
 21 22  1  0
 23 24  1  0
 25 26  1  0
M  CHG  1   8   1
M  END
>  <PDB_ID>  (1042) 
pdb2we4

>  <RESIDUE_NAME>  (1042) 
LYS   PHE

>  <FRAG_NAME>  (1042) 
ETAM   MBZ

>  <FRAG_ATOM_NUM>  (1042) 
fragi: 11  fragj: 15

>  <atom.prop.CHAIN_ID>  (1042) 
A A A A A A A A A A A Z Z Z Z Z Z Z Z Z Z Z Z Z Z Z

>  <atom.prop.IS_HEAVY_ATOM>  (1042) 
1 0 0 0 1 0 0 1 0 0 0 1 0 0 0 1 1 0 1 0 1 0 1 0 1 0

>  <DIFUSE_FUNC_ATOM>  (1042) 
n/a

>  <FINAL_SINGLE_POINT_ENERGY>  (1042) 
0

>  <NONCOV_INTER_ENERGY_QM>  (1042) 
0

>  <FF_Energy>  (1042) 
-7.91

>  <QM_Energy>  (1042) 
-15.95

>  <source>  (1042) 
ETAM_MBZ

>  <Index>  (1042) 
10435

$$$$
ETAM-pdb2we4-D-LYS-165:MBZ-pdb2we4-D-PHE-211
     RDKit          3D

 26 25  0  0  0  0  0  0  0  0999 V2000
    0.0278    1.2596    3.9567 C   0  0  0  0  0  0  0  0  0  0  0  0
   -0.8777    1.5278    3.6409 H   0  0  0  0  0  0  0  0  0  0  0  0
    0.7183    1.8686    3.5772 H   0  0  0  0  0  0  0  0  0  0  0  0
    0.0551    1.3323    5.0440 H   0  0  0  0  0  0  0  0  0  0  0  0
    0.3108   -0.1571    3.4705 C   0  0  0  0  0  0  0  0  0  0  0  0
   -0.3583   -0.7795    3.8825 H   0  0  0  0  0  0  0  0  0  0  0  0
    0.2110   -0.1829    2.4730 H   0  0  0  0  0  0  0  0  0  0  0  0
    1.6828   -0.5994    3.8374 N   0  0  0  0  0  4  0  0  0  0  0  0
    1.7926   -0.5531    4.8303 H   0  0  0  0  0  0  0  0  0  0  0  0
    1.8218   -1.5395    3.5290 H   0  0  0  0  0  0  0  0  0  0  0  0
    2.3531   -0.0015    3.3987 H   0  0  0  0  0  0  0  0  0  0  0  0
   -0.0082    2.9171   -0.0561 C   0  0  0  0  0  0  0  0  0  0  0  0
    0.9227    3.2295    0.0300 H   0  0  0  0  0  0  0  0  0  0  0  0
   -0.5752    3.2466    0.6800 H   0  0  0  0  0  0  0  0  0  0  0  0
   -0.4086    3.3132   -0.9893 H   0  0  0  0  0  0  0  0  0  0  0  0
   -0.0011    1.4102   -0.0009 C   0  0  0  0  0  0  0  0  0  0  0  0
   -1.1971    0.6984    0.0017 C   0  0  0  0  0  0  0  0  0  0  0  0
   -2.0664    1.1833    0.0033 H   0  0  0  0  0  0  0  0  0  0  0  0
   -1.2038   -0.7053    0.0000 C   0  0  0  0  0  0  0  0  0  0  0  0
   -2.0794   -1.1937    0.0015 H   0  0  0  0  0  0  0  0  0  0  0  0
    0.0018   -1.4038   -0.0015 C   0  0  0  0  0  0  0  0  0  0  0  0
   -0.0005   -2.4001   -0.0042 H   0  0  0  0  0  0  0  0  0  0  0  0
    1.2038   -0.7016   -0.0000 C   0  0  0  0  0  0  0  0  0  0  0  0
    2.0870   -1.1921    0.0022 H   0  0  0  0  0  0  0  0  0  0  0  0
    1.1964    0.7020    0.0007 C   0  0  0  0  0  0  0  0  0  0  0  0
    2.0660    1.1938    0.0014 H   0  0  0  0  0  0  0  0  0  0  0  0
  1  5  1  0
  5  8  1  0
  1  2  1  0
  1  3  1  0
  1  4  1  0
  5  6  1  0
  5  7  1  0
  8  9  1  0
  8 10  1  0
  8 11  1  0
 12 16  1  0
 16 17  2  0
 17 19  1  0
 19 21  2  0
 21 23  1  0
 23 25  2  0
 25 16  1  0
 12 13  1  0
 12 14  1  0
 12 15  1  0
 17 18  1  0
 19 20  1  0
 21 22  1  0
 23 24  1  0
 25 26  1  0
M  CHG  1   8   1
M  END
>  <PDB_ID>  (1043) 
pdb2we4

>  <RESIDUE_NAME>  (1043) 
LYS   PHE

>  <FRAG_NAME>  (1043) 
ETAM   MBZ

>  <FRAG_ATOM_NUM>  (1043) 
fragi: 11  fragj: 15

>  <atom.prop.CHAIN_ID>  (1043) 
A A A A A A A A A A A Z Z Z Z Z Z Z Z Z Z Z Z Z Z Z

>  <atom.prop.IS_HEAVY_ATOM>  (1043) 
1 0 0 0 1 0 0 1 0 0 0 1 0 0 0 1 1 0 1 0 1 0 1 0 1 0

>  <DIFUSE_FUNC_ATOM>  (1043) 
n/a

>  <FINAL_SINGLE_POINT_ENERGY>  (1043) 
0

>  <NONCOV_INTER_ENERGY_QM>  (1043) 
0

>  <FF_Energy>  (1043) 
-5.52

>  <QM_Energy>  (1043) 
-11.41

>  <source>  (1043) 
ETAM_MBZ

>  <Index>  (1043) 
10436

$$$$
ETAM-pdb1q44-A-LYS-75:MBZ-pdb1q44-A-PHE-174
     RDKit          3D

 26 25  0  0  0  0  0  0  0  0999 V2000
    0.7371    0.4664    3.4515 C   0  0  0  0  0  0  0  0  0  0  0  0
    1.1332    0.6785    2.5636 H   0  0  0  0  0  0  0  0  0  0  0  0
    1.4547    0.2851    4.1163 H   0  0  0  0  0  0  0  0  0  0  0  0
    0.1594    1.3272    3.7885 H   0  0  0  0  0  0  0  0  0  0  0  0
   -0.1331   -0.7566    3.3216 C   0  0  0  0  0  0  0  0  0  0  0  0
   -0.6660   -0.8777    4.1541 H   0  0  0  0  0  0  0  0  0  0  0  0
   -0.7409   -0.6540    2.5387 H   0  0  0  0  0  0  0  0  0  0  0  0
    0.7213   -1.9744    3.1128 N   0  0  0  0  0  4  0  0  0  0  0  0
    0.1314   -2.7739    3.0278 H   0  0  0  0  0  0  0  0  0  0  0  0
    1.2558   -1.8570    2.2792 H   0  0  0  0  0  0  0  0  0  0  0  0
    1.3303   -2.0823    3.8958 H   0  0  0  0  0  0  0  0  0  0  0  0
    0.0073    2.8642   -0.0079 C   0  0  0  0  0  0  0  0  0  0  0  0
    0.7482    3.1807    0.5691 H   0  0  0  0  0  0  0  0  0  0  0  0
   -0.8666    3.1871    0.3299 H   0  0  0  0  0  0  0  0  0  0  0  0
    0.1564    3.2836   -1.0029 H   0  0  0  0  0  0  0  0  0  0  0  0
   -0.0012    1.3920    0.0055 C   0  0  0  0  0  0  0  0  0  0  0  0
   -1.1985    0.6977   -0.0021 C   0  0  0  0  0  0  0  0  0  0  0  0
   -2.0631    1.1843   -0.0106 H   0  0  0  0  0  0  0  0  0  0  0  0
   -1.2047   -0.7014   -0.0000 C   0  0  0  0  0  0  0  0  0  0  0  0
   -2.0760   -1.1924    0.0025 H   0  0  0  0  0  0  0  0  0  0  0  0
    0.0032   -1.3873    0.0010 C   0  0  0  0  0  0  0  0  0  0  0  0
    0.0032   -2.3900    0.0019 H   0  0  0  0  0  0  0  0  0  0  0  0
    1.2047   -0.6914   -0.0000 C   0  0  0  0  0  0  0  0  0  0  0  0
    2.0841   -1.1920    0.0039 H   0  0  0  0  0  0  0  0  0  0  0  0
    1.1965    0.6904   -0.0043 C   0  0  0  0  0  0  0  0  0  0  0  0
    2.0622    1.1928   -0.0152 H   0  0  0  0  0  0  0  0  0  0  0  0
  1  5  1  0
  5  8  1  0
  1  2  1  0
  1  3  1  0
  1  4  1  0
  5  6  1  0
  5  7  1  0
  8  9  1  0
  8 10  1  0
  8 11  1  0
 12 16  1  0
 16 17  2  0
 17 19  1  0
 19 21  2  0
 21 23  1  0
 23 25  2  0
 25 16  1  0
 12 13  1  0
 12 14  1  0
 12 15  1  0
 17 18  1  0
 19 20  1  0
 21 22  1  0
 23 24  1  0
 25 26  1  0
M  CHG  1   8   1
M  END
>  <PDB_ID>  (1044) 
pdb1q44

>  <RESIDUE_NAME>  (1044) 
LYS   PHE

>  <FRAG_NAME>  (1044) 
ETAM   MBZ

>  <FRAG_ATOM_NUM>  (1044) 
fragi: 11  fragj: 15

>  <atom.prop.CHAIN_ID>  (1044) 
A A A A A A A A A A A Z Z Z Z Z Z Z Z Z Z Z Z Z Z Z

>  <atom.prop.IS_HEAVY_ATOM>  (1044) 
1 0 0 0 1 0 0 1 0 0 0 1 0 0 0 1 1 0 1 0 1 0 1 0 1 0

>  <DIFUSE_FUNC_ATOM>  (1044) 
n/a

>  <FINAL_SINGLE_POINT_ENERGY>  (1044) 
0

>  <NONCOV_INTER_ENERGY_QM>  (1044) 
0

>  <FF_Energy>  (1044) 
-4.54

>  <QM_Energy>  (1044) 
-13.08

>  <source>  (1044) 
ETAM_MBZ

>  <Index>  (1044) 
10441

$$$$
ETAM-pdb1q44-A-LYS-177:MBZ-pdb1q44-A-PHE-174
     RDKit          3D

 26 25  0  0  0  0  0  0  0  0999 V2000
    3.3104    1.0829   -4.4030 C   0  0  0  0  0  0  0  0  0  0  0  0
    4.1869    0.8516   -4.8177 H   0  0  0  0  0  0  0  0  0  0  0  0
    3.3936    1.9221   -3.8719 H   0  0  0  0  0  0  0  0  0  0  0  0
    2.5830    1.2457   -5.1983 H   0  0  0  0  0  0  0  0  0  0  0  0
    2.8992   -0.0470   -3.4696 C   0  0  0  0  0  0  0  0  0  0  0  0
    1.9606    0.1047   -3.1702 H   0  0  0  0  0  0  0  0  0  0  0  0
    2.9623   -0.9132   -3.9599 H   0  0  0  0  0  0  0  0  0  0  0  0
    3.7950   -0.0893   -2.2796 N   0  0  0  0  0  4  0  0  0  0  0  0
    3.5425    0.6447   -1.6495 H   0  0  0  0  0  0  0  0  0  0  0  0
    3.6964   -0.9723   -1.8224 H   0  0  0  0  0  0  0  0  0  0  0  0
    4.7422    0.0322   -2.5743 H   0  0  0  0  0  0  0  0  0  0  0  0
    0.0073    2.8642   -0.0079 C   0  0  0  0  0  0  0  0  0  0  0  0
    0.7482    3.1807    0.5691 H   0  0  0  0  0  0  0  0  0  0  0  0
   -0.8666    3.1871    0.3299 H   0  0  0  0  0  0  0  0  0  0  0  0
    0.1564    3.2836   -1.0029 H   0  0  0  0  0  0  0  0  0  0  0  0
   -0.0012    1.3920    0.0055 C   0  0  0  0  0  0  0  0  0  0  0  0
   -1.1985    0.6977   -0.0021 C   0  0  0  0  0  0  0  0  0  0  0  0
   -2.0631    1.1843   -0.0106 H   0  0  0  0  0  0  0  0  0  0  0  0
   -1.2047   -0.7014   -0.0000 C   0  0  0  0  0  0  0  0  0  0  0  0
   -2.0760   -1.1924    0.0025 H   0  0  0  0  0  0  0  0  0  0  0  0
    0.0032   -1.3873    0.0010 C   0  0  0  0  0  0  0  0  0  0  0  0
    0.0032   -2.3900    0.0019 H   0  0  0  0  0  0  0  0  0  0  0  0
    1.2047   -0.6914   -0.0000 C   0  0  0  0  0  0  0  0  0  0  0  0
    2.0841   -1.1920    0.0039 H   0  0  0  0  0  0  0  0  0  0  0  0
    1.1965    0.6904   -0.0043 C   0  0  0  0  0  0  0  0  0  0  0  0
    2.0622    1.1928   -0.0152 H   0  0  0  0  0  0  0  0  0  0  0  0
  1  5  1  0
  5  8  1  0
  1  2  1  0
  1  3  1  0
  1  4  1  0
  5  6  1  0
  5  7  1  0
  8  9  1  0
  8 10  1  0
  8 11  1  0
 12 16  1  0
 16 17  2  0
 17 19  1  0
 19 21  2  0
 21 23  1  0
 23 25  2  0
 25 16  1  0
 12 13  1  0
 12 14  1  0
 12 15  1  0
 17 18  1  0
 19 20  1  0
 21 22  1  0
 23 24  1  0
 25 26  1  0
M  CHG  1   8   1
M  END
>  <PDB_ID>  (1045) 
pdb1q44

>  <RESIDUE_NAME>  (1045) 
LYS   PHE

>  <FRAG_NAME>  (1045) 
ETAM   MBZ

>  <FRAG_ATOM_NUM>  (1045) 
fragi: 11  fragj: 15

>  <atom.prop.CHAIN_ID>  (1045) 
A A A A A A A A A A A Z Z Z Z Z Z Z Z Z Z Z Z Z Z Z

>  <atom.prop.IS_HEAVY_ATOM>  (1045) 
1 0 0 0 1 0 0 1 0 0 0 1 0 0 0 1 1 0 1 0 1 0 1 0 1 0

>  <DIFUSE_FUNC_ATOM>  (1045) 
n/a

>  <FINAL_SINGLE_POINT_ENERGY>  (1045) 
0

>  <NONCOV_INTER_ENERGY_QM>  (1045) 
0

>  <FF_Energy>  (1045) 
-1.51

>  <QM_Energy>  (1045) 
-6.94

>  <source>  (1045) 
ETAM_MBZ

>  <Index>  (1045) 
10444

$$$$
ETAM-pdb1q4g-B-LYS-560:MBZ-pdb1q4g-B-PHE-556
     RDKit          3D

 26 25  0  0  0  0  0  0  0  0999 V2000
    0.1807    0.3782    4.4219 C   0  0  0  0  0  0  0  0  0  0  0  0
    0.4250    1.3118    4.1647 H   0  0  0  0  0  0  0  0  0  0  0  0
    0.5760    0.1601    5.3129 H   0  0  0  0  0  0  0  0  0  0  0  0
   -0.9047    0.3080    4.4928 H   0  0  0  0  0  0  0  0  0  0  0  0
    0.7490   -0.5735    3.3933 C   0  0  0  0  0  0  0  0  0  0  0  0
    0.5835   -1.5115    3.6836 H   0  0  0  0  0  0  0  0  0  0  0  0
    0.3147   -0.4066    2.5125 H   0  0  0  0  0  0  0  0  0  0  0  0
    2.2242   -0.3590    3.2568 N   0  0  0  0  0  4  0  0  0  0  0  0
    2.6424   -1.1879    2.8914 H   0  0  0  0  0  0  0  0  0  0  0  0
    2.3882    0.4051    2.6353 H   0  0  0  0  0  0  0  0  0  0  0  0
    2.6095   -0.1526    4.1547 H   0  0  0  0  0  0  0  0  0  0  0  0
    0.0099    2.9230   -0.0952 C   0  0  0  0  0  0  0  0  0  0  0  0
    0.2424    3.1674   -1.0254 H   0  0  0  0  0  0  0  0  0  0  0  0
    0.6865    3.2609    0.5433 H   0  0  0  0  0  0  0  0  0  0  0  0
   -0.9417    3.3965    0.1463 H   0  0  0  0  0  0  0  0  0  0  0  0
   -0.0016    1.4143   -0.0018 C   0  0  0  0  0  0  0  0  0  0  0  0
   -1.1986    0.7040    0.0022 C   0  0  0  0  0  0  0  0  0  0  0  0
   -2.0676    1.1877    0.0050 H   0  0  0  0  0  0  0  0  0  0  0  0
   -1.2079   -0.7050   -0.0000 C   0  0  0  0  0  0  0  0  0  0  0  0
   -2.0821   -1.1918    0.0021 H   0  0  0  0  0  0  0  0  0  0  0  0
    0.0039   -1.4102   -0.0030 C   0  0  0  0  0  0  0  0  0  0  0  0
   -0.0014   -2.4027   -0.0078 H   0  0  0  0  0  0  0  0  0  0  0  0
    1.2079   -0.7042    0.0000 C   0  0  0  0  0  0  0  0  0  0  0  0
    2.0907   -1.1930    0.0016 H   0  0  0  0  0  0  0  0  0  0  0  0
    1.1963    0.7011    0.0027 C   0  0  0  0  0  0  0  0  0  0  0  0
    2.0668    1.1943    0.0074 H   0  0  0  0  0  0  0  0  0  0  0  0
  1  5  1  0
  5  8  1  0
  1  2  1  0
  1  3  1  0
  1  4  1  0
  5  6  1  0
  5  7  1  0
  8  9  1  0
  8 10  1  0
  8 11  1  0
 12 16  1  0
 16 17  2  0
 17 19  1  0
 19 21  2  0
 21 23  1  0
 23 25  2  0
 25 16  1  0
 12 13  1  0
 12 14  1  0
 12 15  1  0
 17 18  1  0
 19 20  1  0
 21 22  1  0
 23 24  1  0
 25 26  1  0
M  CHG  1   8   1
M  END
>  <PDB_ID>  (1046) 
pdb1q4g

>  <RESIDUE_NAME>  (1046) 
LYS   PHE

>  <FRAG_NAME>  (1046) 
ETAM   MBZ

>  <FRAG_ATOM_NUM>  (1046) 
fragi: 11  fragj: 15

>  <atom.prop.CHAIN_ID>  (1046) 
A A A A A A A A A A A Z Z Z Z Z Z Z Z Z Z Z Z Z Z Z

>  <atom.prop.IS_HEAVY_ATOM>  (1046) 
1 0 0 0 1 0 0 1 0 0 0 1 0 0 0 1 1 0 1 0 1 0 1 0 1 0

>  <DIFUSE_FUNC_ATOM>  (1046) 
n/a

>  <FINAL_SINGLE_POINT_ENERGY>  (1046) 
0

>  <NONCOV_INTER_ENERGY_QM>  (1046) 
0

>  <FF_Energy>  (1046) 
-4.92

>  <QM_Energy>  (1046) 
-11.94

>  <source>  (1046) 
ETAM_MBZ

>  <Index>  (1046) 
10460

$$$$
ETAM-pdb1pv1-A-LYS-16:MBZ-pdb1pv1-A-PHE-7
     RDKit          3D

 26 25  0  0  0  0  0  0  0  0999 V2000
   -0.1644   -5.4017    1.7659 C   0  0  0  0  0  0  0  0  0  0  0  0
    0.7014   -5.0355    2.0602 H   0  0  0  0  0  0  0  0  0  0  0  0
   -0.1958   -6.3829    1.8395 H   0  0  0  0  0  0  0  0  0  0  0  0
   -0.9587   -4.9721    2.3765 H   0  0  0  0  0  0  0  0  0  0  0  0
   -0.3835   -5.0166    0.3016 C   0  0  0  0  0  0  0  0  0  0  0  0
   -1.2873   -5.3796    0.0066 H   0  0  0  0  0  0  0  0  0  0  0  0
   -0.4419   -4.0022    0.2422 H   0  0  0  0  0  0  0  0  0  0  0  0
    0.6613   -5.4953   -0.6472 N   0  0  0  0  0  4  0  0  0  0  0  0
    1.5518   -5.1382   -0.3661 H   0  0  0  0  0  0  0  0  0  0  0  0
    0.6826   -6.4941   -0.6388 H   0  0  0  0  0  0  0  0  0  0  0  0
    0.4455   -5.1722   -1.5672 H   0  0  0  0  0  0  0  0  0  0  0  0
    0.0083    2.8714    0.0497 C   0  0  0  0  0  0  0  0  0  0  0  0
   -0.5392    3.2153   -0.7012 H   0  0  0  0  0  0  0  0  0  0  0  0
    0.9459    3.1851   -0.0224 H   0  0  0  0  0  0  0  0  0  0  0  0
   -0.4039    3.2839    0.9707 H   0  0  0  0  0  0  0  0  0  0  0  0
   -0.0001    1.3925    0.0021 C   0  0  0  0  0  0  0  0  0  0  0  0
   -1.1983    0.6993   -0.0019 C   0  0  0  0  0  0  0  0  0  0  0  0
   -2.0610    1.1978   -0.0076 H   0  0  0  0  0  0  0  0  0  0  0  0
   -1.2093   -0.6810    0.0000 C   0  0  0  0  0  0  0  0  0  0  0  0
   -2.0842   -1.1792    0.0025 H   0  0  0  0  0  0  0  0  0  0  0  0
   -0.0018   -1.3920    0.0001 C   0  0  0  0  0  0  0  0  0  0  0  0
   -0.0169   -2.3877   -0.0003 H   0  0  0  0  0  0  0  0  0  0  0  0
    1.2093   -0.7027    0.0000 C   0  0  0  0  0  0  0  0  0  0  0  0
    2.0833   -1.2039    0.0014 H   0  0  0  0  0  0  0  0  0  0  0  0
    1.2002    0.6839   -0.0003 C   0  0  0  0  0  0  0  0  0  0  0  0
    2.0661    1.1856   -0.0032 H   0  0  0  0  0  0  0  0  0  0  0  0
  1  5  1  0
  5  8  1  0
  1  2  1  0
  1  3  1  0
  1  4  1  0
  5  6  1  0
  5  7  1  0
  8  9  1  0
  8 10  1  0
  8 11  1  0
 12 16  1  0
 16 17  2  0
 17 19  1  0
 19 21  2  0
 21 23  1  0
 23 25  2  0
 25 16  1  0
 12 13  1  0
 12 14  1  0
 12 15  1  0
 17 18  1  0
 19 20  1  0
 21 22  1  0
 23 24  1  0
 25 26  1  0
M  CHG  1   8   1
M  END
>  <PDB_ID>  (1047) 
pdb1pv1

>  <RESIDUE_NAME>  (1047) 
LYS   PHE

>  <FRAG_NAME>  (1047) 
ETAM   MBZ

>  <FRAG_ATOM_NUM>  (1047) 
fragi: 11  fragj: 15

>  <atom.prop.CHAIN_ID>  (1047) 
A A A A A A A A A A A Z Z Z Z Z Z Z Z Z Z Z Z Z Z Z

>  <atom.prop.IS_HEAVY_ATOM>  (1047) 
1 0 0 0 1 0 0 1 0 0 0 1 0 0 0 1 1 0 1 0 1 0 1 0 1 0

>  <DIFUSE_FUNC_ATOM>  (1047) 
n/a

>  <FINAL_SINGLE_POINT_ENERGY>  (1047) 
0

>  <NONCOV_INTER_ENERGY_QM>  (1047) 
0

>  <FF_Energy>  (1047) 
9.18

>  <QM_Energy>  (1047) 
-0.87

>  <source>  (1047) 
ETAM_MBZ

>  <Index>  (1047) 
10492

$$$$
ETAM-pdb2w8z-B-LYS-459:MBZ-pdb2w8z-B-PHE-463
     RDKit          3D

 26 25  0  0  0  0  0  0  0  0999 V2000
   -0.6748   -4.3758    2.7858 C   0  0  0  0  0  0  0  0  0  0  0  0
   -1.2871   -4.6017    3.5353 H   0  0  0  0  0  0  0  0  0  0  0  0
   -0.5690   -3.3913    2.7069 H   0  0  0  0  0  0  0  0  0  0  0  0
    0.3008   -4.8205    2.9825 H   0  0  0  0  0  0  0  0  0  0  0  0
   -1.2900   -4.9030    1.4824 C   0  0  0  0  0  0  0  0  0  0  0  0
   -0.5958   -4.8474    0.7560 H   0  0  0  0  0  0  0  0  0  0  0  0
   -1.5362   -5.8695    1.6129 H   0  0  0  0  0  0  0  0  0  0  0  0
   -2.5005   -4.1401    1.0643 N   0  0  0  0  0  4  0  0  0  0  0  0
   -3.2755   -4.4126    1.6339 H   0  0  0  0  0  0  0  0  0  0  0  0
   -2.3295   -3.1626    1.1754 H   0  0  0  0  0  0  0  0  0  0  0  0
   -2.7020   -4.3385    0.1055 H   0  0  0  0  0  0  0  0  0  0  0  0
   -0.0062    2.9146    0.0029 C   0  0  0  0  0  0  0  0  0  0  0  0
    0.7872    3.2216    0.5080 H   0  0  0  0  0  0  0  0  0  0  0  0
   -0.8445    3.2159    0.4343 H   0  0  0  0  0  0  0  0  0  0  0  0
    0.0371    3.3623   -0.9900 H   0  0  0  0  0  0  0  0  0  0  0  0
   -0.0008    1.4107   -0.0025 C   0  0  0  0  0  0  0  0  0  0  0  0
   -1.2023    0.6958    0.0007 C   0  0  0  0  0  0  0  0  0  0  0  0
   -2.0679    1.1851    0.0020 H   0  0  0  0  0  0  0  0  0  0  0  0
   -1.2100   -0.7035    0.0000 C   0  0  0  0  0  0  0  0  0  0  0  0
   -2.0828   -1.1955    0.0019 H   0  0  0  0  0  0  0  0  0  0  0  0
    0.0018   -1.4044   -0.0013 C   0  0  0  0  0  0  0  0  0  0  0  0
   -0.0018   -2.3989   -0.0037 H   0  0  0  0  0  0  0  0  0  0  0  0
    1.2100   -0.7013   -0.0000 C   0  0  0  0  0  0  0  0  0  0  0  0
    2.0901   -1.1932    0.0004 H   0  0  0  0  0  0  0  0  0  0  0  0
    1.2014    0.7027    0.0032 C   0  0  0  0  0  0  0  0  0  0  0  0
    2.0677    1.1966    0.0092 H   0  0  0  0  0  0  0  0  0  0  0  0
  1  5  1  0
  5  8  1  0
  1  2  1  0
  1  3  1  0
  1  4  1  0
  5  6  1  0
  5  7  1  0
  8  9  1  0
  8 10  1  0
  8 11  1  0
 12 16  1  0
 16 17  2  0
 17 19  1  0
 19 21  2  0
 21 23  1  0
 23 25  2  0
 25 16  1  0
 12 13  1  0
 12 14  1  0
 12 15  1  0
 17 18  1  0
 19 20  1  0
 21 22  1  0
 23 24  1  0
 25 26  1  0
M  CHG  1   8   1
M  END
>  <PDB_ID>  (1048) 
pdb2w8z

>  <RESIDUE_NAME>  (1048) 
LYS   PHE

>  <FRAG_NAME>  (1048) 
ETAM   MBZ

>  <FRAG_ATOM_NUM>  (1048) 
fragi: 11  fragj: 15

>  <atom.prop.CHAIN_ID>  (1048) 
A A A A A A A A A A A Z Z Z Z Z Z Z Z Z Z Z Z Z Z Z

>  <atom.prop.IS_HEAVY_ATOM>  (1048) 
1 0 0 0 1 0 0 1 0 0 0 1 0 0 0 1 1 0 1 0 1 0 1 0 1 0

>  <DIFUSE_FUNC_ATOM>  (1048) 
n/a

>  <FINAL_SINGLE_POINT_ENERGY>  (1048) 
0

>  <NONCOV_INTER_ENERGY_QM>  (1048) 
0

>  <FF_Energy>  (1048) 
0.1

>  <QM_Energy>  (1048) 
-4.99

>  <source>  (1048) 
ETAM_MBZ

>  <Index>  (1048) 
10524

$$$$
ETAM-pdb1q6h-B-LYS-191:MBZ-pdb1q6h-B-PHE-110
     RDKit          3D

 26 25  0  0  0  0  0  0  0  0999 V2000
   -0.0145   -3.9290   -2.8444 C   0  0  0  0  0  0  0  0  0  0  0  0
   -0.5404   -4.6393   -3.3125 H   0  0  0  0  0  0  0  0  0  0  0  0
   -0.1980   -3.9695   -1.8626 H   0  0  0  0  0  0  0  0  0  0  0  0
    1.0427   -4.1487   -2.9930 H   0  0  0  0  0  0  0  0  0  0  0  0
   -0.3741   -2.6042   -3.3716 C   0  0  0  0  0  0  0  0  0  0  0  0
    0.2043   -1.8895   -2.9459 H   0  0  0  0  0  0  0  0  0  0  0  0
   -0.2123   -2.5695   -4.3711 H   0  0  0  0  0  0  0  0  0  0  0  0
   -1.8065   -2.2472   -3.1239 N   0  0  0  0  0  4  0  0  0  0  0  0
   -1.9022   -1.9067   -2.1907 H   0  0  0  0  0  0  0  0  0  0  0  0
   -2.0845   -1.5402   -3.7721 H   0  0  0  0  0  0  0  0  0  0  0  0
   -2.3722   -3.0603   -3.2470 H   0  0  0  0  0  0  0  0  0  0  0  0
   -0.0208    2.8841    0.0321 C   0  0  0  0  0  0  0  0  0  0  0  0
   -0.4662    3.2002   -0.7917 H   0  0  0  0  0  0  0  0  0  0  0  0
    0.9127    3.2052    0.0837 H   0  0  0  0  0  0  0  0  0  0  0  0
   -0.5629    3.2935    0.8846 H   0  0  0  0  0  0  0  0  0  0  0  0
    0.0007    1.3893    0.0061 C   0  0  0  0  0  0  0  0  0  0  0  0
   -1.1845    0.6753    0.0106 C   0  0  0  0  0  0  0  0  0  0  0  0
   -2.0557    1.1725    0.0205 H   0  0  0  0  0  0  0  0  0  0  0  0
   -1.1868   -0.6896   -0.0000 C   0  0  0  0  0  0  0  0  0  0  0  0
   -2.0683   -1.1904    0.0064 H   0  0  0  0  0  0  0  0  0  0  0  0
   -0.0033   -1.3747   -0.0176 C   0  0  0  0  0  0  0  0  0  0  0  0
   -0.0095   -2.3823   -0.0447 H   0  0  0  0  0  0  0  0  0  0  0  0
    1.1868   -0.6968    0.0000 C   0  0  0  0  0  0  0  0  0  0  0  0
    2.0704   -1.1912    0.0138 H   0  0  0  0  0  0  0  0  0  0  0  0
    1.1871    0.6966    0.0009 C   0  0  0  0  0  0  0  0  0  0  0  0
    2.0577    1.1852   -0.0036 H   0  0  0  0  0  0  0  0  0  0  0  0
  1  5  1  0
  5  8  1  0
  1  2  1  0
  1  3  1  0
  1  4  1  0
  5  6  1  0
  5  7  1  0
  8  9  1  0
  8 10  1  0
  8 11  1  0
 12 16  1  0
 16 17  2  0
 17 19  1  0
 19 21  2  0
 21 23  1  0
 23 25  2  0
 25 16  1  0
 12 13  1  0
 12 14  1  0
 12 15  1  0
 17 18  1  0
 19 20  1  0
 21 22  1  0
 23 24  1  0
 25 26  1  0
M  CHG  1   8   1
M  END
>  <PDB_ID>  (1049) 
pdb1q6h

>  <RESIDUE_NAME>  (1049) 
LYS   PHE

>  <FRAG_NAME>  (1049) 
ETAM   MBZ

>  <FRAG_ATOM_NUM>  (1049) 
fragi: 11  fragj: 15

>  <atom.prop.CHAIN_ID>  (1049) 
A A A A A A A A A A A Z Z Z Z Z Z Z Z Z Z Z Z Z Z Z

>  <atom.prop.IS_HEAVY_ATOM>  (1049) 
1 0 0 0 1 0 0 1 0 0 0 1 0 0 0 1 1 0 1 0 1 0 1 0 1 0

>  <DIFUSE_FUNC_ATOM>  (1049) 
n/a

>  <FINAL_SINGLE_POINT_ENERGY>  (1049) 
0

>  <NONCOV_INTER_ENERGY_QM>  (1049) 
0

>  <FF_Energy>  (1049) 
-3.63

>  <QM_Energy>  (1049) 
-10.09

>  <source>  (1049) 
ETAM_MBZ

>  <Index>  (1049) 
10534

$$$$
ETAM-pdb1qfx-A-LYS-14:MBZ-pdb1qfx-B-PHE-253
     RDKit          3D

 26 25  0  0  0  0  0  0  0  0999 V2000
    1.1523   -1.5049    5.0341 C   0  0  0  0  0  0  0  0  0  0  0  0
    1.4395   -0.5787    5.3238 H   0  0  0  0  0  0  0  0  0  0  0  0
    0.1984   -1.6387    5.3482 H   0  0  0  0  0  0  0  0  0  0  0  0
    1.7897   -2.2391    5.5268 H   0  0  0  0  0  0  0  0  0  0  0  0
    1.1389   -1.5239    3.5053 C   0  0  0  0  0  0  0  0  0  0  0  0
    0.4003   -0.8496    3.2937 H   0  0  0  0  0  0  0  0  0  0  0  0
    2.0873   -1.1471    3.1222 H   0  0  0  0  0  0  0  0  0  0  0  0
    0.6991   -2.8537    2.9556 N   0  0  0  0  0  4  0  0  0  0  0  0
    0.3559   -3.4117    3.7042 H   0  0  0  0  0  0  0  0  0  0  0  0
   -0.0188   -2.7016    2.2850 H   0  0  0  0  0  0  0  0  0  0  0  0
    1.4800   -3.2971    2.5271 H   0  0  0  0  0  0  0  0  0  0  0  0
   -0.0200    3.0054   -0.0043 C   0  0  0  0  0  0  0  0  0  0  0  0
   -0.8154    3.2858   -0.5084 H   0  0  0  0  0  0  0  0  0  0  0  0
    0.8151    3.3072   -0.4256 H   0  0  0  0  0  0  0  0  0  0  0  0
   -0.0759    3.4677    0.9812 H   0  0  0  0  0  0  0  0  0  0  0  0
    0.0002    1.4461    0.0012 C   0  0  0  0  0  0  0  0  0  0  0  0
   -1.2052    0.6940   -0.0008 C   0  0  0  0  0  0  0  0  0  0  0  0
   -2.0785    1.1654   -0.0039 H   0  0  0  0  0  0  0  0  0  0  0  0
   -1.2114   -0.7459   -0.0000 C   0  0  0  0  0  0  0  0  0  0  0  0
   -2.0870   -1.2170    0.0009 H   0  0  0  0  0  0  0  0  0  0  0  0
   -0.0044   -1.4308    0.0016 C   0  0  0  0  0  0  0  0  0  0  0  0
    0.0201   -2.4204    0.0034 H   0  0  0  0  0  0  0  0  0  0  0  0
    1.2114   -0.6973   -0.0000 C   0  0  0  0  0  0  0  0  0  0  0  0
    2.0951   -1.1824    0.0015 H   0  0  0  0  0  0  0  0  0  0  0  0
    1.2094    0.7338   -0.0019 C   0  0  0  0  0  0  0  0  0  0  0  0
    2.0743    1.2139   -0.0065 H   0  0  0  0  0  0  0  0  0  0  0  0
  1  5  1  0
  5  8  1  0
  1  2  1  0
  1  3  1  0
  1  4  1  0
  5  6  1  0
  5  7  1  0
  8  9  1  0
  8 10  1  0
  8 11  1  0
 12 16  1  0
 16 17  2  0
 17 19  1  0
 19 21  2  0
 21 23  1  0
 23 25  2  0
 25 16  1  0
 12 13  1  0
 12 14  1  0
 12 15  1  0
 17 18  1  0
 19 20  1  0
 21 22  1  0
 23 24  1  0
 25 26  1  0
M  CHG  1   8   1
M  END
>  <PDB_ID>  (1050) 
pdb1qfx

>  <RESIDUE_NAME>  (1050) 
LYS   PHE

>  <FRAG_NAME>  (1050) 
ETAM   MBZ

>  <FRAG_ATOM_NUM>  (1050) 
fragi: 11  fragj: 15

>  <atom.prop.CHAIN_ID>  (1050) 
A A A A A A A A A A A Z Z Z Z Z Z Z Z Z Z Z Z Z Z Z

>  <atom.prop.IS_HEAVY_ATOM>  (1050) 
1 0 0 0 1 0 0 1 0 0 0 1 0 0 0 1 1 0 1 0 1 0 1 0 1 0

>  <DIFUSE_FUNC_ATOM>  (1050) 
n/a

>  <FINAL_SINGLE_POINT_ENERGY>  (1050) 
0

>  <NONCOV_INTER_ENERGY_QM>  (1050) 
0

>  <FF_Energy>  (1050) 
-3.58

>  <QM_Energy>  (1050) 
-10.16

>  <source>  (1050) 
ETAM_MBZ

>  <Index>  (1050) 
10583

$$$$
ETAM-pdb1qfx-B-LYS-14:MBZ-pdb1qfx-A-PHE-253
     RDKit          3D

 26 25  0  0  0  0  0  0  0  0999 V2000
    0.7807   -1.5865    4.9872 C   0  0  0  0  0  0  0  0  0  0  0  0
    1.0353   -0.6602    5.3095 H   0  0  0  0  0  0  0  0  0  0  0  0
   -0.1943   -1.7309    5.2251 H   0  0  0  0  0  0  0  0  0  0  0  0
    1.3857   -2.3227    5.5166 H   0  0  0  0  0  0  0  0  0  0  0  0
    0.8797   -1.5795    3.4566 C   0  0  0  0  0  0  0  0  0  0  0  0
    0.1554   -0.8940    3.2308 H   0  0  0  0  0  0  0  0  0  0  0  0
    1.8445   -1.1890    3.1329 H   0  0  0  0  0  0  0  0  0  0  0  0
    0.4640   -2.8912    2.8484 N   0  0  0  0  0  4  0  0  0  0  0  0
   -0.5268   -2.9055    2.7631 H   0  0  0  0  0  0  0  0  0  0  0  0
    0.8868   -2.9761    1.9521 H   0  0  0  0  0  0  0  0  0  0  0  0
    0.7671   -3.6296    3.4415 H   0  0  0  0  0  0  0  0  0  0  0  0
   -0.0214    3.0113   -0.0363 C   0  0  0  0  0  0  0  0  0  0  0  0
   -0.7765    3.2763   -0.6076 H   0  0  0  0  0  0  0  0  0  0  0  0
    0.8439    3.3040   -0.4009 H   0  0  0  0  0  0  0  0  0  0  0  0
   -0.1534    3.4915    0.9333 H   0  0  0  0  0  0  0  0  0  0  0  0
    0.0006    1.4491    0.0014 C   0  0  0  0  0  0  0  0  0  0  0  0
   -1.2014    0.6954    0.0000 C   0  0  0  0  0  0  0  0  0  0  0  0
   -2.0770    1.1640   -0.0025 H   0  0  0  0  0  0  0  0  0  0  0  0
   -1.2059   -0.7466   -0.0000 C   0  0  0  0  0  0  0  0  0  0  0  0
   -2.0837   -1.2152    0.0018 H   0  0  0  0  0  0  0  0  0  0  0  0
   -0.0032   -1.4299   -0.0004 C   0  0  0  0  0  0  0  0  0  0  0  0
    0.0190   -2.4226   -0.0019 H   0  0  0  0  0  0  0  0  0  0  0  0
    1.2059   -0.7020    0.0000 C   0  0  0  0  0  0  0  0  0  0  0  0
    2.0920   -1.1825    0.0030 H   0  0  0  0  0  0  0  0  0  0  0  0
    1.2040    0.7340   -0.0011 C   0  0  0  0  0  0  0  0  0  0  0  0
    2.0731    1.2100   -0.0040 H   0  0  0  0  0  0  0  0  0  0  0  0
  1  5  1  0
  5  8  1  0
  1  2  1  0
  1  3  1  0
  1  4  1  0
  5  6  1  0
  5  7  1  0
  8  9  1  0
  8 10  1  0
  8 11  1  0
 12 16  1  0
 16 17  2  0
 17 19  1  0
 19 21  2  0
 21 23  1  0
 23 25  2  0
 25 16  1  0
 12 13  1  0
 12 14  1  0
 12 15  1  0
 17 18  1  0
 19 20  1  0
 21 22  1  0
 23 24  1  0
 25 26  1  0
M  CHG  1   8   1
M  END
>  <PDB_ID>  (1051) 
pdb1qfx

>  <RESIDUE_NAME>  (1051) 
LYS   PHE

>  <FRAG_NAME>  (1051) 
ETAM   MBZ

>  <FRAG_ATOM_NUM>  (1051) 
fragi: 11  fragj: 15

>  <atom.prop.CHAIN_ID>  (1051) 
A A A A A A A A A A A Z Z Z Z Z Z Z Z Z Z Z Z Z Z Z

>  <atom.prop.IS_HEAVY_ATOM>  (1051) 
1 0 0 0 1 0 0 1 0 0 0 1 0 0 0 1 1 0 1 0 1 0 1 0 1 0

>  <DIFUSE_FUNC_ATOM>  (1051) 
n/a

>  <FINAL_SINGLE_POINT_ENERGY>  (1051) 
0

>  <NONCOV_INTER_ENERGY_QM>  (1051) 
0

>  <FF_Energy>  (1051) 
-3.25

>  <QM_Energy>  (1051) 
-9.81

>  <source>  (1051) 
ETAM_MBZ

>  <Index>  (1051) 
10585

$$$$
ETAM-pdb2wdq-C-LYS-107:MBZ-pdb2wdq-C-PHE-103
     RDKit          3D

 26 25  0  0  0  0  0  0  0  0999 V2000
    1.4598   -1.4973    4.0178 C   0  0  0  0  0  0  0  0  0  0  0  0
    2.0206   -0.9446    4.6332 H   0  0  0  0  0  0  0  0  0  0  0  0
    1.5164   -2.4585    4.2843 H   0  0  0  0  0  0  0  0  0  0  0  0
    0.4233   -1.1671    4.0869 H   0  0  0  0  0  0  0  0  0  0  0  0
    2.0181   -1.3587    2.6074 C   0  0  0  0  0  0  0  0  0  0  0  0
    1.4681   -1.8967    1.9843 H   0  0  0  0  0  0  0  0  0  0  0  0
    2.0186   -0.4029    2.3492 H   0  0  0  0  0  0  0  0  0  0  0  0
    3.4273   -1.8737    2.5901 N   0  0  0  0  0  4  0  0  0  0  0  0
    3.6425   -2.2612    3.4837 H   0  0  0  0  0  0  0  0  0  0  0  0
    3.5081   -2.5767    1.8869 H   0  0  0  0  0  0  0  0  0  0  0  0
    4.0471   -1.1185    2.3889 H   0  0  0  0  0  0  0  0  0  0  0  0
   -0.0160    2.8878    0.0197 C   0  0  0  0  0  0  0  0  0  0  0  0
   -0.3956    3.2101   -0.8316 H   0  0  0  0  0  0  0  0  0  0  0  0
    0.9090    3.2073    0.1505 H   0  0  0  0  0  0  0  0  0  0  0  0
   -0.6224    3.2993    0.8266 H   0  0  0  0  0  0  0  0  0  0  0  0
   -0.0042    1.3995   -0.0011 C   0  0  0  0  0  0  0  0  0  0  0  0
   -1.2020    0.6877    0.0020 C   0  0  0  0  0  0  0  0  0  0  0  0
   -2.0694    1.1752    0.0042 H   0  0  0  0  0  0  0  0  0  0  0  0
   -1.2051   -0.7086   -0.0000 C   0  0  0  0  0  0  0  0  0  0  0  0
   -2.0728   -1.2048    0.0019 H   0  0  0  0  0  0  0  0  0  0  0  0
    0.0096   -1.3940   -0.0031 C   0  0  0  0  0  0  0  0  0  0  0  0
    0.0138   -2.3923   -0.0080 H   0  0  0  0  0  0  0  0  0  0  0  0
    1.2051   -0.6853   -0.0000 C   0  0  0  0  0  0  0  0  0  0  0  0
    2.0911   -1.1817    0.0017 H   0  0  0  0  0  0  0  0  0  0  0  0
    1.1966    0.7008    0.0022 C   0  0  0  0  0  0  0  0  0  0  0  0
    2.0606    1.2025    0.0054 H   0  0  0  0  0  0  0  0  0  0  0  0
  1  5  1  0
  5  8  1  0
  1  2  1  0
  1  3  1  0
  1  4  1  0
  5  6  1  0
  5  7  1  0
  8  9  1  0
  8 10  1  0
  8 11  1  0
 12 16  1  0
 16 17  2  0
 17 19  1  0
 19 21  2  0
 21 23  1  0
 23 25  2  0
 25 16  1  0
 12 13  1  0
 12 14  1  0
 12 15  1  0
 17 18  1  0
 19 20  1  0
 21 22  1  0
 23 24  1  0
 25 26  1  0
M  CHG  1   8   1
M  END
>  <PDB_ID>  (1052) 
pdb2wdq

>  <RESIDUE_NAME>  (1052) 
LYS   PHE

>  <FRAG_NAME>  (1052) 
ETAM   MBZ

>  <FRAG_ATOM_NUM>  (1052) 
fragi: 11  fragj: 15

>  <atom.prop.CHAIN_ID>  (1052) 
A A A A A A A A A A A Z Z Z Z Z Z Z Z Z Z Z Z Z Z Z

>  <atom.prop.IS_HEAVY_ATOM>  (1052) 
1 0 0 0 1 0 0 1 0 0 0 1 0 0 0 1 1 0 1 0 1 0 1 0 1 0

>  <DIFUSE_FUNC_ATOM>  (1052) 
n/a

>  <FINAL_SINGLE_POINT_ENERGY>  (1052) 
0

>  <NONCOV_INTER_ENERGY_QM>  (1052) 
0

>  <FF_Energy>  (1052) 
6.41

>  <QM_Energy>  (1052) 
-1.53

>  <source>  (1052) 
ETAM_MBZ

>  <Index>  (1052) 
10594

$$$$
ETAM-pdb1qgh-A-LYS-45:MBZ-pdb1qgh-K-PHE-40
     RDKit          3D

 26 25  0  0  0  0  0  0  0  0999 V2000
   -2.1595    0.3676    4.1168 C   0  0  0  0  0  0  0  0  0  0  0  0
   -2.3517    1.0359    4.8385 H   0  0  0  0  0  0  0  0  0  0  0  0
   -1.7660    0.8405    3.3266 H   0  0  0  0  0  0  0  0  0  0  0  0
   -1.4454   -0.3672    4.4887 H   0  0  0  0  0  0  0  0  0  0  0  0
   -3.5046   -0.2468    3.6747 C   0  0  0  0  0  0  0  0  0  0  0  0
   -3.9485   -0.6657    4.5068 H   0  0  0  0  0  0  0  0  0  0  0  0
   -4.1338    0.5281    3.4089 H   0  0  0  0  0  0  0  0  0  0  0  0
   -3.5167   -1.2647    2.5699 N   0  0  0  0  0  4  0  0  0  0  0  0
   -2.8088   -1.0325    1.9068 H   0  0  0  0  0  0  0  0  0  0  0  0
   -3.3373   -2.1665    2.9570 H   0  0  0  0  0  0  0  0  0  0  0  0
   -4.4115   -1.2554    2.1294 H   0  0  0  0  0  0  0  0  0  0  0  0
   -0.0208    2.8791   -0.0188 C   0  0  0  0  0  0  0  0  0  0  0  0
    0.8765    3.2017    0.2198 H   0  0  0  0  0  0  0  0  0  0  0  0
   -0.7072    3.1829    0.6156 H   0  0  0  0  0  0  0  0  0  0  0  0
   -0.2724    3.2663   -1.0061 H   0  0  0  0  0  0  0  0  0  0  0  0
    0.0022    1.3826    0.0047 C   0  0  0  0  0  0  0  0  0  0  0  0
   -1.1812    0.6772   -0.0008 C   0  0  0  0  0  0  0  0  0  0  0  0
   -2.0510    1.1688   -0.0067 H   0  0  0  0  0  0  0  0  0  0  0  0
   -1.1724   -0.6880    0.0000 C   0  0  0  0  0  0  0  0  0  0  0  0
   -2.0638   -1.1880   -0.0113 H   0  0  0  0  0  0  0  0  0  0  0  0
   -0.0049   -1.3734    0.0180 C   0  0  0  0  0  0  0  0  0  0  0  0
   -0.0042   -2.3772    0.0438 H   0  0  0  0  0  0  0  0  0  0  0  0
    1.1724   -0.6839    0.0000 C   0  0  0  0  0  0  0  0  0  0  0  0
    2.0646   -1.1908    0.0043 H   0  0  0  0  0  0  0  0  0  0  0  0
    1.1839    0.6855   -0.0219 C   0  0  0  0  0  0  0  0  0  0  0  0
    2.0544    1.1786   -0.0581 H   0  0  0  0  0  0  0  0  0  0  0  0
  1  5  1  0
  5  8  1  0
  1  2  1  0
  1  3  1  0
  1  4  1  0
  5  6  1  0
  5  7  1  0
  8  9  1  0
  8 10  1  0
  8 11  1  0
 12 16  1  0
 16 17  2  0
 17 19  1  0
 19 21  2  0
 21 23  1  0
 23 25  2  0
 25 16  1  0
 12 13  1  0
 12 14  1  0
 12 15  1  0
 17 18  1  0
 19 20  1  0
 21 22  1  0
 23 24  1  0
 25 26  1  0
M  CHG  1   8   1
M  END
>  <PDB_ID>  (1053) 
pdb1qgh

>  <RESIDUE_NAME>  (1053) 
LYS   PHE

>  <FRAG_NAME>  (1053) 
ETAM   MBZ

>  <FRAG_ATOM_NUM>  (1053) 
fragi: 11  fragj: 15

>  <atom.prop.CHAIN_ID>  (1053) 
A A A A A A A A A A A Z Z Z Z Z Z Z Z Z Z Z Z Z Z Z

>  <atom.prop.IS_HEAVY_ATOM>  (1053) 
1 0 0 0 1 0 0 1 0 0 0 1 0 0 0 1 1 0 1 0 1 0 1 0 1 0

>  <DIFUSE_FUNC_ATOM>  (1053) 
n/a

>  <FINAL_SINGLE_POINT_ENERGY>  (1053) 
0

>  <NONCOV_INTER_ENERGY_QM>  (1053) 
0

>  <FF_Energy>  (1053) 
-1.97

>  <QM_Energy>  (1053) 
-7.87

>  <source>  (1053) 
ETAM_MBZ

>  <Index>  (1053) 
10613

$$$$
ETAM-pdb1qgh-B-LYS-45:MBZ-pdb1qgh-J-PHE-40
     RDKit          3D

 26 25  0  0  0  0  0  0  0  0999 V2000
   -1.8479    0.3934    4.1412 C   0  0  0  0  0  0  0  0  0  0  0  0
   -1.9803    1.0078    4.9209 H   0  0  0  0  0  0  0  0  0  0  0  0
   -1.5395    0.9229    3.3498 H   0  0  0  0  0  0  0  0  0  0  0  0
   -1.0806   -0.3375    4.3965 H   0  0  0  0  0  0  0  0  0  0  0  0
   -3.1982   -0.2413    3.7964 C   0  0  0  0  0  0  0  0  0  0  0  0
   -3.5637   -0.7013    4.6559 H   0  0  0  0  0  0  0  0  0  0  0  0
   -3.8795    0.5275    3.6276 H   0  0  0  0  0  0  0  0  0  0  0  0
   -3.3195   -1.2210    2.6619 N   0  0  0  0  0  4  0  0  0  0  0  0
   -2.4450   -1.6856    2.5402 H   0  0  0  0  0  0  0  0  0  0  0  0
   -4.0306   -1.8842    2.8816 H   0  0  0  0  0  0  0  0  0  0  0  0
   -3.5608   -0.7261    1.8312 H   0  0  0  0  0  0  0  0  0  0  0  0
    0.0079    2.8802    0.0202 C   0  0  0  0  0  0  0  0  0  0  0  0
    0.9210    3.1879    0.2232 H   0  0  0  0  0  0  0  0  0  0  0  0
   -0.6446    3.1934    0.6882 H   0  0  0  0  0  0  0  0  0  0  0  0
   -0.2786    3.2874   -0.9494 H   0  0  0  0  0  0  0  0  0  0  0  0
    0.0052    1.3890    0.0287 C   0  0  0  0  0  0  0  0  0  0  0  0
   -1.2051    0.7204    0.0012 C   0  0  0  0  0  0  0  0  0  0  0  0
   -2.0567    1.2119   -0.0185 H   0  0  0  0  0  0  0  0  0  0  0  0
   -1.2026   -0.6702    0.0000 C   0  0  0  0  0  0  0  0  0  0  0  0
   -2.0799   -1.1690    0.0087 H   0  0  0  0  0  0  0  0  0  0  0  0
    0.0035   -1.3843   -0.0117 C   0  0  0  0  0  0  0  0  0  0  0  0
   -0.0275   -2.3864   -0.0292 H   0  0  0  0  0  0  0  0  0  0  0  0
    1.2026   -0.7176    0.0000 C   0  0  0  0  0  0  0  0  0  0  0  0
    2.0776   -1.2181    0.0230 H   0  0  0  0  0  0  0  0  0  0  0  0
    1.1964    0.6628   -0.0182 C   0  0  0  0  0  0  0  0  0  0  0  0
    2.0676    1.1632   -0.0671 H   0  0  0  0  0  0  0  0  0  0  0  0
  1  5  1  0
  5  8  1  0
  1  2  1  0
  1  3  1  0
  1  4  1  0
  5  6  1  0
  5  7  1  0
  8  9  1  0
  8 10  1  0
  8 11  1  0
 12 16  1  0
 16 17  2  0
 17 19  1  0
 19 21  2  0
 21 23  1  0
 23 25  2  0
 25 16  1  0
 12 13  1  0
 12 14  1  0
 12 15  1  0
 17 18  1  0
 19 20  1  0
 21 22  1  0
 23 24  1  0
 25 26  1  0
M  CHG  1   8   1
M  END
>  <PDB_ID>  (1054) 
pdb1qgh

>  <RESIDUE_NAME>  (1054) 
LYS   PHE

>  <FRAG_NAME>  (1054) 
ETAM   MBZ

>  <FRAG_ATOM_NUM>  (1054) 
fragi: 11  fragj: 15

>  <atom.prop.CHAIN_ID>  (1054) 
A A A A A A A A A A A Z Z Z Z Z Z Z Z Z Z Z Z Z Z Z

>  <atom.prop.IS_HEAVY_ATOM>  (1054) 
1 0 0 0 1 0 0 1 0 0 0 1 0 0 0 1 1 0 1 0 1 0 1 0 1 0

>  <DIFUSE_FUNC_ATOM>  (1054) 
n/a

>  <FINAL_SINGLE_POINT_ENERGY>  (1054) 
0

>  <NONCOV_INTER_ENERGY_QM>  (1054) 
0

>  <FF_Energy>  (1054) 
-2.2

>  <QM_Energy>  (1054) 
-7.47

>  <source>  (1054) 
ETAM_MBZ

>  <Index>  (1054) 
10614

$$$$
ETAM-pdb1qgh-C-LYS-45:MBZ-pdb1qgh-L-PHE-40
     RDKit          3D

 26 25  0  0  0  0  0  0  0  0999 V2000
   -2.2000    0.2162    4.0843 C   0  0  0  0  0  0  0  0  0  0  0  0
   -2.3774    0.8641    4.8332 H   0  0  0  0  0  0  0  0  0  0  0  0
   -1.8248    0.7257    3.3024 H   0  0  0  0  0  0  0  0  0  0  0  0
   -1.4625   -0.5138    4.4179 H   0  0  0  0  0  0  0  0  0  0  0  0
   -3.5461   -0.3876    3.6530 C   0  0  0  0  0  0  0  0  0  0  0  0
   -3.9570   -0.8600    4.4649 H   0  0  0  0  0  0  0  0  0  0  0  0
   -4.1842    0.3835    3.4314 H   0  0  0  0  0  0  0  0  0  0  0  0
   -3.5330   -1.3419    2.5007 N   0  0  0  0  0  4  0  0  0  0  0  0
   -4.3171   -1.1555    1.9120 H   0  0  0  0  0  0  0  0  0  0  0  0
   -2.6867   -1.2209    1.9848 H   0  0  0  0  0  0  0  0  0  0  0  0
   -3.5863   -2.2760    2.8485 H   0  0  0  0  0  0  0  0  0  0  0  0
    0.0135    2.8735    0.0030 C   0  0  0  0  0  0  0  0  0  0  0  0
    0.9268    3.1765    0.2288 H   0  0  0  0  0  0  0  0  0  0  0  0
   -0.6465    3.1869    0.6687 H   0  0  0  0  0  0  0  0  0  0  0  0
   -0.2543    3.2939   -0.9664 H   0  0  0  0  0  0  0  0  0  0  0  0
    0.0035    1.3888    0.0034 C   0  0  0  0  0  0  0  0  0  0  0  0
   -1.2032    0.7068   -0.0145 C   0  0  0  0  0  0  0  0  0  0  0  0
   -2.0576    1.2050   -0.0390 H   0  0  0  0  0  0  0  0  0  0  0  0
   -1.2020   -0.6687    0.0000 C   0  0  0  0  0  0  0  0  0  0  0  0
   -2.0820   -1.1723    0.0014 H   0  0  0  0  0  0  0  0  0  0  0  0
   -0.0019   -1.3866    0.0146 C   0  0  0  0  0  0  0  0  0  0  0  0
   -0.0291   -2.3845    0.0347 H   0  0  0  0  0  0  0  0  0  0  0  0
    1.2020   -0.7132   -0.0000 C   0  0  0  0  0  0  0  0  0  0  0  0
    2.0770   -1.2159   -0.0068 H   0  0  0  0  0  0  0  0  0  0  0  0
    1.2016    0.6727   -0.0035 C   0  0  0  0  0  0  0  0  0  0  0  0
    2.0697    1.1701   -0.0117 H   0  0  0  0  0  0  0  0  0  0  0  0
  1  5  1  0
  5  8  1  0
  1  2  1  0
  1  3  1  0
  1  4  1  0
  5  6  1  0
  5  7  1  0
  8  9  1  0
  8 10  1  0
  8 11  1  0
 12 16  1  0
 16 17  2  0
 17 19  1  0
 19 21  2  0
 21 23  1  0
 23 25  2  0
 25 16  1  0
 12 13  1  0
 12 14  1  0
 12 15  1  0
 17 18  1  0
 19 20  1  0
 21 22  1  0
 23 24  1  0
 25 26  1  0
M  CHG  1   8   1
M  END
>  <PDB_ID>  (1055) 
pdb1qgh

>  <RESIDUE_NAME>  (1055) 
LYS   PHE

>  <FRAG_NAME>  (1055) 
ETAM   MBZ

>  <FRAG_ATOM_NUM>  (1055) 
fragi: 11  fragj: 15

>  <atom.prop.CHAIN_ID>  (1055) 
A A A A A A A A A A A Z Z Z Z Z Z Z Z Z Z Z Z Z Z Z

>  <atom.prop.IS_HEAVY_ATOM>  (1055) 
1 0 0 0 1 0 0 1 0 0 0 1 0 0 0 1 1 0 1 0 1 0 1 0 1 0

>  <DIFUSE_FUNC_ATOM>  (1055) 
n/a

>  <FINAL_SINGLE_POINT_ENERGY>  (1055) 
0

>  <NONCOV_INTER_ENERGY_QM>  (1055) 
0

>  <FF_Energy>  (1055) 
-1.85

>  <QM_Energy>  (1055) 
-7.82

>  <source>  (1055) 
ETAM_MBZ

>  <Index>  (1055) 
10616

$$$$
ETAM-pdb1qgh-D-LYS-45:MBZ-pdb1qgh-I-PHE-40
     RDKit          3D

 26 25  0  0  0  0  0  0  0  0999 V2000
   -2.0141    0.5055    4.0926 C   0  0  0  0  0  0  0  0  0  0  0  0
   -2.1628    1.1379    4.8453 H   0  0  0  0  0  0  0  0  0  0  0  0
   -1.6902    0.9916    3.2888 H   0  0  0  0  0  0  0  0  0  0  0  0
   -1.2668   -0.2304    4.3895 H   0  0  0  0  0  0  0  0  0  0  0  0
   -3.3427   -0.1602    3.7510 C   0  0  0  0  0  0  0  0  0  0  0  0
   -3.6874   -0.6421    4.5838 H   0  0  0  0  0  0  0  0  0  0  0  0
   -4.0280    0.5701    3.5440 H   0  0  0  0  0  0  0  0  0  0  0  0
   -3.3266   -1.1324    2.6127 N   0  0  0  0  0  4  0  0  0  0  0  0
   -2.4107   -1.1585    2.2174 H   0  0  0  0  0  0  0  0  0  0  0  0
   -3.5748   -2.0377    2.9517 H   0  0  0  0  0  0  0  0  0  0  0  0
   -3.9842   -0.8382    1.9217 H   0  0  0  0  0  0  0  0  0  0  0  0
   -0.0148    2.8640    0.0110 C   0  0  0  0  0  0  0  0  0  0  0  0
    0.8952    3.1806    0.2110 H   0  0  0  0  0  0  0  0  0  0  0  0
   -0.6693    3.1691    0.6801 H   0  0  0  0  0  0  0  0  0  0  0  0
   -0.3083    3.2697   -0.9572 H   0  0  0  0  0  0  0  0  0  0  0  0
   -0.0040    1.3771    0.0104 C   0  0  0  0  0  0  0  0  0  0  0  0
   -1.2065    0.6929    0.0031 C   0  0  0  0  0  0  0  0  0  0  0  0
   -2.0648    1.1942   -0.0008 H   0  0  0  0  0  0  0  0  0  0  0  0
   -1.2163   -0.6842    0.0000 C   0  0  0  0  0  0  0  0  0  0  0  0
   -2.0829   -1.1904    0.0076 H   0  0  0  0  0  0  0  0  0  0  0  0
    0.0056   -1.3953   -0.0123 C   0  0  0  0  0  0  0  0  0  0  0  0
   -0.0028   -2.3849   -0.0304 H   0  0  0  0  0  0  0  0  0  0  0  0
    1.2163   -0.6883    0.0000 C   0  0  0  0  0  0  0  0  0  0  0  0
    2.0930   -1.1886    0.0111 H   0  0  0  0  0  0  0  0  0  0  0  0
    1.2049    0.6978   -0.0012 C   0  0  0  0  0  0  0  0  0  0  0  0
    2.0611    1.2040   -0.0115 H   0  0  0  0  0  0  0  0  0  0  0  0
  1  5  1  0
  5  8  1  0
  1  2  1  0
  1  3  1  0
  1  4  1  0
  5  6  1  0
  5  7  1  0
  8  9  1  0
  8 10  1  0
  8 11  1  0
 12 16  1  0
 16 17  2  0
 17 19  1  0
 19 21  2  0
 21 23  1  0
 23 25  2  0
 25 16  1  0
 12 13  1  0
 12 14  1  0
 12 15  1  0
 17 18  1  0
 19 20  1  0
 21 22  1  0
 23 24  1  0
 25 26  1  0
M  CHG  1   8   1
M  END
>  <PDB_ID>  (1056) 
pdb1qgh

>  <RESIDUE_NAME>  (1056) 
LYS   PHE

>  <FRAG_NAME>  (1056) 
ETAM   MBZ

>  <FRAG_ATOM_NUM>  (1056) 
fragi: 11  fragj: 15

>  <atom.prop.CHAIN_ID>  (1056) 
A A A A A A A A A A A Z Z Z Z Z Z Z Z Z Z Z Z Z Z Z

>  <atom.prop.IS_HEAVY_ATOM>  (1056) 
1 0 0 0 1 0 0 1 0 0 0 1 0 0 0 1 1 0 1 0 1 0 1 0 1 0

>  <DIFUSE_FUNC_ATOM>  (1056) 
n/a

>  <FINAL_SINGLE_POINT_ENERGY>  (1056) 
0

>  <NONCOV_INTER_ENERGY_QM>  (1056) 
0

>  <FF_Energy>  (1056) 
-2.44

>  <QM_Energy>  (1056) 
-8.38

>  <source>  (1056) 
ETAM_MBZ

>  <Index>  (1056) 
10617

$$$$
ETAM-pdb1qgh-E-LYS-45:MBZ-pdb1qgh-C-PHE-40
     RDKit          3D

 26 25  0  0  0  0  0  0  0  0999 V2000
   -2.0106    0.5055    4.0307 C   0  0  0  0  0  0  0  0  0  0  0  0
   -2.1336    1.1857    4.7611 H   0  0  0  0  0  0  0  0  0  0  0  0
   -1.7007    0.9805    3.1997 H   0  0  0  0  0  0  0  0  0  0  0  0
   -1.2227   -0.1811    4.3404 H   0  0  0  0  0  0  0  0  0  0  0  0
   -3.3492   -0.1532    3.7458 C   0  0  0  0  0  0  0  0  0  0  0  0
   -3.6818   -0.6028    4.5973 H   0  0  0  0  0  0  0  0  0  0  0  0
   -4.0293    0.5704    3.5159 H   0  0  0  0  0  0  0  0  0  0  0  0
   -3.3524   -1.1730    2.6406 N   0  0  0  0  0  4  0  0  0  0  0  0
   -3.3076   -0.6999    1.7638 H   0  0  0  0  0  0  0  0  0  0  0  0
   -2.5597   -1.7681    2.7475 H   0  0  0  0  0  0  0  0  0  0  0  0
   -4.1909   -1.7088    2.6966 H   0  0  0  0  0  0  0  0  0  0  0  0
    0.0339    2.8782   -0.0174 C   0  0  0  0  0  0  0  0  0  0  0  0
    0.9535    3.1739    0.1703 H   0  0  0  0  0  0  0  0  0  0  0  0
   -0.6083    3.2171    0.6465 H   0  0  0  0  0  0  0  0  0  0  0  0
   -0.2536    3.2648   -0.9951 H   0  0  0  0  0  0  0  0  0  0  0  0
    0.0053    1.3882    0.0244 C   0  0  0  0  0  0  0  0  0  0  0  0
   -1.2195    0.6998   -0.0089 C   0  0  0  0  0  0  0  0  0  0  0  0
   -2.0657    1.1997   -0.0400 H   0  0  0  0  0  0  0  0  0  0  0  0
   -1.2200   -0.6866    0.0000 C   0  0  0  0  0  0  0  0  0  0  0  0
   -2.0798   -1.1952    0.0073 H   0  0  0  0  0  0  0  0  0  0  0  0
    0.0104   -1.3810    0.0011 C   0  0  0  0  0  0  0  0  0  0  0  0
   -0.0080   -2.3865    0.0024 H   0  0  0  0  0  0  0  0  0  0  0  0
    1.2200   -0.7046   -0.0000 C   0  0  0  0  0  0  0  0  0  0  0  0
    2.0916   -1.2004    0.0122 H   0  0  0  0  0  0  0  0  0  0  0  0
    1.2037    0.6842   -0.0167 C   0  0  0  0  0  0  0  0  0  0  0  0
    2.0689    1.1876   -0.0600 H   0  0  0  0  0  0  0  0  0  0  0  0
  1  5  1  0
  5  8  1  0
  1  2  1  0
  1  3  1  0
  1  4  1  0
  5  6  1  0
  5  7  1  0
  8  9  1  0
  8 10  1  0
  8 11  1  0
 12 16  1  0
 16 17  2  0
 17 19  1  0
 19 21  2  0
 21 23  1  0
 23 25  2  0
 25 16  1  0
 12 13  1  0
 12 14  1  0
 12 15  1  0
 17 18  1  0
 19 20  1  0
 21 22  1  0
 23 24  1  0
 25 26  1  0
M  CHG  1   8   1
M  END
>  <PDB_ID>  (1057) 
pdb1qgh

>  <RESIDUE_NAME>  (1057) 
LYS   PHE

>  <FRAG_NAME>  (1057) 
ETAM   MBZ

>  <FRAG_ATOM_NUM>  (1057) 
fragi: 11  fragj: 15

>  <atom.prop.CHAIN_ID>  (1057) 
A A A A A A A A A A A Z Z Z Z Z Z Z Z Z Z Z Z Z Z Z

>  <atom.prop.IS_HEAVY_ATOM>  (1057) 
1 0 0 0 1 0 0 1 0 0 0 1 0 0 0 1 1 0 1 0 1 0 1 0 1 0

>  <DIFUSE_FUNC_ATOM>  (1057) 
n/a

>  <FINAL_SINGLE_POINT_ENERGY>  (1057) 
0

>  <NONCOV_INTER_ENERGY_QM>  (1057) 
0

>  <FF_Energy>  (1057) 
-2.23

>  <QM_Energy>  (1057) 
-7.47

>  <source>  (1057) 
ETAM_MBZ

>  <Index>  (1057) 
10618

$$$$
ETAM-pdb1qgh-F-LYS-45:MBZ-pdb1qgh-B-PHE-40
     RDKit          3D

 26 25  0  0  0  0  0  0  0  0999 V2000
   -2.1267    0.3679    3.9673 C   0  0  0  0  0  0  0  0  0  0  0  0
   -2.3111    1.0256    4.6984 H   0  0  0  0  0  0  0  0  0  0  0  0
   -1.7741    0.8511    3.1659 H   0  0  0  0  0  0  0  0  0  0  0  0
   -1.3743   -0.3411    4.3127 H   0  0  0  0  0  0  0  0  0  0  0  0
   -3.4530   -0.2989    3.5778 C   0  0  0  0  0  0  0  0  0  0  0  0
   -3.8301   -0.7683    4.4148 H   0  0  0  0  0  0  0  0  0  0  0  0
   -4.1333    0.4459    3.3665 H   0  0  0  0  0  0  0  0  0  0  0  0
   -3.4539   -1.2760    2.4457 N   0  0  0  0  0  4  0  0  0  0  0  0
   -3.1916   -0.8050    1.6057 H   0  0  0  0  0  0  0  0  0  0  0  0
   -2.8008   -2.0057    2.6412 H   0  0  0  0  0  0  0  0  0  0  0  0
   -4.3696   -1.6611    2.3450 H   0  0  0  0  0  0  0  0  0  0  0  0
   -0.0278    2.8952    0.0385 C   0  0  0  0  0  0  0  0  0  0  0  0
    0.8769    3.2115    0.2587 H   0  0  0  0  0  0  0  0  0  0  0  0
   -0.6956    3.1887    0.6985 H   0  0  0  0  0  0  0  0  0  0  0  0
   -0.3059    3.3016   -0.9340 H   0  0  0  0  0  0  0  0  0  0  0  0
   -0.0060    1.3954    0.0371 C   0  0  0  0  0  0  0  0  0  0  0  0
   -1.1901    0.6751   -0.0186 C   0  0  0  0  0  0  0  0  0  0  0  0
   -2.0623    1.1683   -0.0752 H   0  0  0  0  0  0  0  0  0  0  0  0
   -1.1994   -0.7054    0.0000 C   0  0  0  0  0  0  0  0  0  0  0  0
   -2.0681   -1.2048    0.0245 H   0  0  0  0  0  0  0  0  0  0  0  0
    0.0105   -1.3929   -0.0131 C   0  0  0  0  0  0  0  0  0  0  0  0
    0.0136   -2.3902   -0.0326 H   0  0  0  0  0  0  0  0  0  0  0  0
    1.1994   -0.6845   -0.0000 C   0  0  0  0  0  0  0  0  0  0  0  0
    2.0886   -1.1707    0.0151 H   0  0  0  0  0  0  0  0  0  0  0  0
    1.1855    0.7123   -0.0053 C   0  0  0  0  0  0  0  0  0  0  0  0
    2.0521    1.2077   -0.0412 H   0  0  0  0  0  0  0  0  0  0  0  0
  1  5  1  0
  5  8  1  0
  1  2  1  0
  1  3  1  0
  1  4  1  0
  5  6  1  0
  5  7  1  0
  8  9  1  0
  8 10  1  0
  8 11  1  0
 12 16  1  0
 16 17  2  0
 17 19  1  0
 19 21  2  0
 21 23  1  0
 23 25  2  0
 25 16  1  0
 12 13  1  0
 12 14  1  0
 12 15  1  0
 17 18  1  0
 19 20  1  0
 21 22  1  0
 23 24  1  0
 25 26  1  0
M  CHG  1   8   1
M  END
>  <PDB_ID>  (1058) 
pdb1qgh

>  <RESIDUE_NAME>  (1058) 
LYS   PHE

>  <FRAG_NAME>  (1058) 
ETAM   MBZ

>  <FRAG_ATOM_NUM>  (1058) 
fragi: 11  fragj: 15

>  <atom.prop.CHAIN_ID>  (1058) 
A A A A A A A A A A A Z Z Z Z Z Z Z Z Z Z Z Z Z Z Z

>  <atom.prop.IS_HEAVY_ATOM>  (1058) 
1 0 0 0 1 0 0 1 0 0 0 1 0 0 0 1 1 0 1 0 1 0 1 0 1 0

>  <DIFUSE_FUNC_ATOM>  (1058) 
n/a

>  <FINAL_SINGLE_POINT_ENERGY>  (1058) 
0

>  <NONCOV_INTER_ENERGY_QM>  (1058) 
0

>  <FF_Energy>  (1058) 
-1.66

>  <QM_Energy>  (1058) 
-7.14

>  <source>  (1058) 
ETAM_MBZ

>  <Index>  (1058) 
10620

$$$$
ETAM-pdb1qgh-G-LYS-45:MBZ-pdb1qgh-D-PHE-40
     RDKit          3D

 26 25  0  0  0  0  0  0  0  0999 V2000
   -2.3096    0.5506    3.9906 C   0  0  0  0  0  0  0  0  0  0  0  0
   -2.5360    1.1972    4.7166 H   0  0  0  0  0  0  0  0  0  0  0  0
   -1.9657    1.0425    3.1935 H   0  0  0  0  0  0  0  0  0  0  0  0
   -1.5433   -0.1370    4.3482 H   0  0  0  0  0  0  0  0  0  0  0  0
   -3.5922   -0.1761    3.5836 C   0  0  0  0  0  0  0  0  0  0  0  0
   -4.0080   -0.5942    4.4304 H   0  0  0  0  0  0  0  0  0  0  0  0
   -4.2797    0.5301    3.2779 H   0  0  0  0  0  0  0  0  0  0  0  0
   -3.5135   -1.2404    2.5269 N   0  0  0  0  0  4  0  0  0  0  0  0
   -4.4105   -1.6659    2.4268 H   0  0  0  0  0  0  0  0  0  0  0  0
   -3.2374   -0.8221    1.6643 H   0  0  0  0  0  0  0  0  0  0  0  0
   -2.8419   -1.9232    2.8038 H   0  0  0  0  0  0  0  0  0  0  0  0
    0.0169    2.8852   -0.0484 C   0  0  0  0  0  0  0  0  0  0  0  0
    0.9357    3.1885    0.1286 H   0  0  0  0  0  0  0  0  0  0  0  0
   -0.6236    3.2338    0.6114 H   0  0  0  0  0  0  0  0  0  0  0  0
   -0.2783    3.2449   -1.0341 H   0  0  0  0  0  0  0  0  0  0  0  0
   -0.0006    1.3904    0.0323 C   0  0  0  0  0  0  0  0  0  0  0  0
   -1.1966    0.6682   -0.0310 C   0  0  0  0  0  0  0  0  0  0  0  0
   -2.0616    1.1728   -0.1017 H   0  0  0  0  0  0  0  0  0  0  0  0
   -1.2138   -0.7041    0.0000 C   0  0  0  0  0  0  0  0  0  0  0  0
   -2.0827   -1.2024    0.0196 H   0  0  0  0  0  0  0  0  0  0  0  0
   -0.0070   -1.3890    0.0051 C   0  0  0  0  0  0  0  0  0  0  0  0
    0.0078   -2.3851    0.0117 H   0  0  0  0  0  0  0  0  0  0  0  0
    1.2138   -0.6750    0.0000 C   0  0  0  0  0  0  0  0  0  0  0  0
    2.0869   -1.1811    0.0029 H   0  0  0  0  0  0  0  0  0  0  0  0
    1.2042    0.7096   -0.0065 C   0  0  0  0  0  0  0  0  0  0  0  0
    2.0621    1.2135   -0.0396 H   0  0  0  0  0  0  0  0  0  0  0  0
  1  5  1  0
  5  8  1  0
  1  2  1  0
  1  3  1  0
  1  4  1  0
  5  6  1  0
  5  7  1  0
  8  9  1  0
  8 10  1  0
  8 11  1  0
 12 16  1  0
 16 17  2  0
 17 19  1  0
 19 21  2  0
 21 23  1  0
 23 25  2  0
 25 16  1  0
 12 13  1  0
 12 14  1  0
 12 15  1  0
 17 18  1  0
 19 20  1  0
 21 22  1  0
 23 24  1  0
 25 26  1  0
M  CHG  1   8   1
M  END
>  <PDB_ID>  (1059) 
pdb1qgh

>  <RESIDUE_NAME>  (1059) 
LYS   PHE

>  <FRAG_NAME>  (1059) 
ETAM   MBZ

>  <FRAG_ATOM_NUM>  (1059) 
fragi: 11  fragj: 15

>  <atom.prop.CHAIN_ID>  (1059) 
A A A A A A A A A A A Z Z Z Z Z Z Z Z Z Z Z Z Z Z Z

>  <atom.prop.IS_HEAVY_ATOM>  (1059) 
1 0 0 0 1 0 0 1 0 0 0 1 0 0 0 1 1 0 1 0 1 0 1 0 1 0

>  <DIFUSE_FUNC_ATOM>  (1059) 
n/a

>  <FINAL_SINGLE_POINT_ENERGY>  (1059) 
0

>  <NONCOV_INTER_ENERGY_QM>  (1059) 
0

>  <FF_Energy>  (1059) 
-1.78

>  <QM_Energy>  (1059) 
-6.99

>  <source>  (1059) 
ETAM_MBZ

>  <Index>  (1059) 
10622

$$$$
ETAM-pdb1qgh-H-LYS-45:MBZ-pdb1qgh-A-PHE-40
     RDKit          3D

 26 25  0  0  0  0  0  0  0  0999 V2000
   -2.3280    0.4734    4.0012 C   0  0  0  0  0  0  0  0  0  0  0  0
   -2.5514    1.1169    4.7387 H   0  0  0  0  0  0  0  0  0  0  0  0
   -1.9186    0.9822    3.2388 H   0  0  0  0  0  0  0  0  0  0  0  0
   -1.5985   -0.2455    4.3741 H   0  0  0  0  0  0  0  0  0  0  0  0
   -3.6315   -0.1601    3.5078 C   0  0  0  0  0  0  0  0  0  0  0  0
   -4.0886   -0.6167    4.3163 H   0  0  0  0  0  0  0  0  0  0  0  0
   -4.2798    0.6061    3.2509 H   0  0  0  0  0  0  0  0  0  0  0  0
   -3.5863   -1.1345    2.3814 N   0  0  0  0  0  4  0  0  0  0  0  0
   -2.9238   -0.8226    1.7014 H   0  0  0  0  0  0  0  0  0  0  0  0
   -3.3128   -2.0308    2.7301 H   0  0  0  0  0  0  0  0  0  0  0  0
   -4.4914   -1.1994    1.9636 H   0  0  0  0  0  0  0  0  0  0  0  0
    0.0672    2.8799   -0.0124 C   0  0  0  0  0  0  0  0  0  0  0  0
    0.9791    3.1556    0.2591 H   0  0  0  0  0  0  0  0  0  0  0  0
   -0.6109    3.2204    0.6250 H   0  0  0  0  0  0  0  0  0  0  0  0
   -0.1401    3.3143   -0.9904 H   0  0  0  0  0  0  0  0  0  0  0  0
    0.0117    1.3847    0.0096 C   0  0  0  0  0  0  0  0  0  0  0  0
   -1.2086    0.7216   -0.0090 C   0  0  0  0  0  0  0  0  0  0  0  0
   -2.0526    1.2281   -0.0295 H   0  0  0  0  0  0  0  0  0  0  0  0
   -1.2146   -0.6530    0.0000 C   0  0  0  0  0  0  0  0  0  0  0  0
   -2.0918   -1.1570    0.0145 H   0  0  0  0  0  0  0  0  0  0  0  0
   -0.0050   -1.3869   -0.0095 C   0  0  0  0  0  0  0  0  0  0  0  0
   -0.0485   -2.3855   -0.0237 H   0  0  0  0  0  0  0  0  0  0  0  0
    1.2146   -0.7300   -0.0000 C   0  0  0  0  0  0  0  0  0  0  0  0
    2.0785   -1.2288    0.0023 H   0  0  0  0  0  0  0  0  0  0  0  0
    1.2018    0.6638    0.0088 C   0  0  0  0  0  0  0  0  0  0  0  0
    2.0769    1.1603    0.0136 H   0  0  0  0  0  0  0  0  0  0  0  0
  1  5  1  0
  5  8  1  0
  1  2  1  0
  1  3  1  0
  1  4  1  0
  5  6  1  0
  5  7  1  0
  8  9  1  0
  8 10  1  0
  8 11  1  0
 12 16  1  0
 16 17  2  0
 17 19  1  0
 19 21  2  0
 21 23  1  0
 23 25  2  0
 25 16  1  0
 12 13  1  0
 12 14  1  0
 12 15  1  0
 17 18  1  0
 19 20  1  0
 21 22  1  0
 23 24  1  0
 25 26  1  0
M  CHG  1   8   1
M  END
>  <PDB_ID>  (1060) 
pdb1qgh

>  <RESIDUE_NAME>  (1060) 
LYS   PHE

>  <FRAG_NAME>  (1060) 
ETAM   MBZ

>  <FRAG_ATOM_NUM>  (1060) 
fragi: 11  fragj: 15

>  <atom.prop.CHAIN_ID>  (1060) 
A A A A A A A A A A A Z Z Z Z Z Z Z Z Z Z Z Z Z Z Z

>  <atom.prop.IS_HEAVY_ATOM>  (1060) 
1 0 0 0 1 0 0 1 0 0 0 1 0 0 0 1 1 0 1 0 1 0 1 0 1 0

>  <DIFUSE_FUNC_ATOM>  (1060) 
n/a

>  <FINAL_SINGLE_POINT_ENERGY>  (1060) 
0

>  <NONCOV_INTER_ENERGY_QM>  (1060) 
0

>  <FF_Energy>  (1060) 
-1.57

>  <QM_Energy>  (1060) 
-7.72

>  <source>  (1060) 
ETAM_MBZ

>  <Index>  (1060) 
10623

$$$$
ETAM-pdb1qgh-I-LYS-45:MBZ-pdb1qgh-G-PHE-40
     RDKit          3D

 26 25  0  0  0  0  0  0  0  0999 V2000
   -2.0604    0.3865    4.0052 C   0  0  0  0  0  0  0  0  0  0  0  0
   -2.2500    1.0288    4.7518 H   0  0  0  0  0  0  0  0  0  0  0  0
   -1.7105    0.8978    3.2159 H   0  0  0  0  0  0  0  0  0  0  0  0
   -1.2998   -0.3218    4.3339 H   0  0  0  0  0  0  0  0  0  0  0  0
   -3.3795   -0.2736    3.5978 C   0  0  0  0  0  0  0  0  0  0  0  0
   -3.7833   -0.7235    4.4293 H   0  0  0  0  0  0  0  0  0  0  0  0
   -4.0442    0.4685    3.3447 H   0  0  0  0  0  0  0  0  0  0  0  0
   -3.3444   -1.2758    2.4878 N   0  0  0  0  0  4  0  0  0  0  0  0
   -2.8626   -2.0923    2.7991 H   0  0  0  0  0  0  0  0  0  0  0  0
   -4.2798   -1.5132    2.2304 H   0  0  0  0  0  0  0  0  0  0  0  0
   -2.8684   -0.8802    1.7042 H   0  0  0  0  0  0  0  0  0  0  0  0
   -0.0183    2.9065   -0.0266 C   0  0  0  0  0  0  0  0  0  0  0  0
    0.8798    3.2264    0.2153 H   0  0  0  0  0  0  0  0  0  0  0  0
   -0.7065    3.2184    0.6044 H   0  0  0  0  0  0  0  0  0  0  0  0
   -0.2620    3.3046   -1.0116 H   0  0  0  0  0  0  0  0  0  0  0  0
   -0.0034    1.4063    0.0013 C   0  0  0  0  0  0  0  0  0  0  0  0
   -1.1871    0.6737   -0.0391 C   0  0  0  0  0  0  0  0  0  0  0  0
   -2.0627    1.1588   -0.0996 H   0  0  0  0  0  0  0  0  0  0  0  0
   -1.1938   -0.7172   -0.0000 C   0  0  0  0  0  0  0  0  0  0  0  0
   -2.0727   -1.2066    0.0085 H   0  0  0  0  0  0  0  0  0  0  0  0
   -0.0011   -1.4006    0.0289 C   0  0  0  0  0  0  0  0  0  0  0  0
    0.0192   -2.3922    0.0686 H   0  0  0  0  0  0  0  0  0  0  0  0
    1.1938   -0.6738   -0.0000 C   0  0  0  0  0  0  0  0  0  0  0  0
    2.0825   -1.1735   -0.0269 H   0  0  0  0  0  0  0  0  0  0  0  0
    1.1916    0.7116    0.0090 C   0  0  0  0  0  0  0  0  0  0  0  0
    2.0573    1.2084    0.0201 H   0  0  0  0  0  0  0  0  0  0  0  0
  1  5  1  0
  5  8  1  0
  1  2  1  0
  1  3  1  0
  1  4  1  0
  5  6  1  0
  5  7  1  0
  8  9  1  0
  8 10  1  0
  8 11  1  0
 12 16  1  0
 16 17  2  0
 17 19  1  0
 19 21  2  0
 21 23  1  0
 23 25  2  0
 25 16  1  0
 12 13  1  0
 12 14  1  0
 12 15  1  0
 17 18  1  0
 19 20  1  0
 21 22  1  0
 23 24  1  0
 25 26  1  0
M  CHG  1   8   1
M  END
>  <PDB_ID>  (1061) 
pdb1qgh

>  <RESIDUE_NAME>  (1061) 
LYS   PHE

>  <FRAG_NAME>  (1061) 
ETAM   MBZ

>  <FRAG_ATOM_NUM>  (1061) 
fragi: 11  fragj: 15

>  <atom.prop.CHAIN_ID>  (1061) 
A A A A A A A A A A A Z Z Z Z Z Z Z Z Z Z Z Z Z Z Z

>  <atom.prop.IS_HEAVY_ATOM>  (1061) 
1 0 0 0 1 0 0 1 0 0 0 1 0 0 0 1 1 0 1 0 1 0 1 0 1 0

>  <DIFUSE_FUNC_ATOM>  (1061) 
n/a

>  <FINAL_SINGLE_POINT_ENERGY>  (1061) 
0

>  <NONCOV_INTER_ENERGY_QM>  (1061) 
0

>  <FF_Energy>  (1061) 
-1.93

>  <QM_Energy>  (1061) 
-8.12

>  <source>  (1061) 
ETAM_MBZ

>  <Index>  (1061) 
10624

$$$$
ETAM-pdb1qgh-J-LYS-45:MBZ-pdb1qgh-F-PHE-40
     RDKit          3D

 26 25  0  0  0  0  0  0  0  0999 V2000
   -2.4796    0.1835    4.1166 C   0  0  0  0  0  0  0  0  0  0  0  0
   -2.6963    0.7930    4.8795 H   0  0  0  0  0  0  0  0  0  0  0  0
   -2.0906    0.7177    3.3647 H   0  0  0  0  0  0  0  0  0  0  0  0
   -1.7560   -0.5631    4.4434 H   0  0  0  0  0  0  0  0  0  0  0  0
   -3.7916   -0.4377    3.6234 C   0  0  0  0  0  0  0  0  0  0  0  0
   -4.2376   -0.9213    4.4132 H   0  0  0  0  0  0  0  0  0  0  0  0
   -4.4372    0.3234    3.3754 H   0  0  0  0  0  0  0  0  0  0  0  0
   -3.7348   -1.4018    2.4573 N   0  0  0  0  0  4  0  0  0  0  0  0
   -2.8625   -1.2882    1.9925 H   0  0  0  0  0  0  0  0  0  0  0  0
   -3.8206   -2.3302    2.8064 H   0  0  0  0  0  0  0  0  0  0  0  0
   -4.4853   -1.1959    1.8366 H   0  0  0  0  0  0  0  0  0  0  0  0
   -0.0050    2.8916    0.0262 C   0  0  0  0  0  0  0  0  0  0  0  0
    0.8986    3.2063    0.2586 H   0  0  0  0  0  0  0  0  0  0  0  0
   -0.6800    3.1961    0.6752 H   0  0  0  0  0  0  0  0  0  0  0  0
   -0.2657    3.2959   -0.9518 H   0  0  0  0  0  0  0  0  0  0  0  0
    0.0047    1.4070    0.0263 C   0  0  0  0  0  0  0  0  0  0  0  0
   -1.1989    0.7146   -0.0201 C   0  0  0  0  0  0  0  0  0  0  0  0
   -2.0583    1.2004   -0.0689 H   0  0  0  0  0  0  0  0  0  0  0  0
   -1.2015   -0.6878    0.0000 C   0  0  0  0  0  0  0  0  0  0  0  0
   -2.0836   -1.1786    0.0126 H   0  0  0  0  0  0  0  0  0  0  0  0
    0.0028   -1.4176    0.0051 C   0  0  0  0  0  0  0  0  0  0  0  0
   -0.0168   -2.4026    0.0118 H   0  0  0  0  0  0  0  0  0  0  0  0
    1.2015   -0.7149    0.0000 C   0  0  0  0  0  0  0  0  0  0  0  0
    2.0865   -1.1982    0.0052 H   0  0  0  0  0  0  0  0  0  0  0  0
    1.1913    0.6987   -0.0112 C   0  0  0  0  0  0  0  0  0  0  0  0
    2.0664    1.1825   -0.0477 H   0  0  0  0  0  0  0  0  0  0  0  0
  1  5  1  0
  5  8  1  0
  1  2  1  0
  1  3  1  0
  1  4  1  0
  5  6  1  0
  5  7  1  0
  8  9  1  0
  8 10  1  0
  8 11  1  0
 12 16  1  0
 16 17  2  0
 17 19  1  0
 19 21  2  0
 21 23  1  0
 23 25  2  0
 25 16  1  0
 12 13  1  0
 12 14  1  0
 12 15  1  0
 17 18  1  0
 19 20  1  0
 21 22  1  0
 23 24  1  0
 25 26  1  0
M  CHG  1   8   1
M  END
>  <PDB_ID>  (1062) 
pdb1qgh

>  <RESIDUE_NAME>  (1062) 
LYS   PHE

>  <FRAG_NAME>  (1062) 
ETAM   MBZ

>  <FRAG_ATOM_NUM>  (1062) 
fragi: 11  fragj: 15

>  <atom.prop.CHAIN_ID>  (1062) 
A A A A A A A A A A A Z Z Z Z Z Z Z Z Z Z Z Z Z Z Z

>  <atom.prop.IS_HEAVY_ATOM>  (1062) 
1 0 0 0 1 0 0 1 0 0 0 1 0 0 0 1 1 0 1 0 1 0 1 0 1 0

>  <DIFUSE_FUNC_ATOM>  (1062) 
n/a

>  <FINAL_SINGLE_POINT_ENERGY>  (1062) 
0

>  <NONCOV_INTER_ENERGY_QM>  (1062) 
0

>  <FF_Energy>  (1062) 
-1.46

>  <QM_Energy>  (1062) 
-6.99

>  <source>  (1062) 
ETAM_MBZ

>  <Index>  (1062) 
10625

$$$$
ETAM-pdb1qgh-K-LYS-45:MBZ-pdb1qgh-H-PHE-40
     RDKit          3D

 26 25  0  0  0  0  0  0  0  0999 V2000
   -1.8853    0.5678    3.9855 C   0  0  0  0  0  0  0  0  0  0  0  0
   -2.0020    1.2444    4.7217 H   0  0  0  0  0  0  0  0  0  0  0  0
   -1.5849    1.0495    3.1550 H   0  0  0  0  0  0  0  0  0  0  0  0
   -1.1077   -0.1368    4.2805 H   0  0  0  0  0  0  0  0  0  0  0  0
   -3.2408   -0.0716    3.7034 C   0  0  0  0  0  0  0  0  0  0  0  0
   -3.5978   -0.4671    4.5812 H   0  0  0  0  0  0  0  0  0  0  0  0
   -3.9022    0.6734    3.4526 H   0  0  0  0  0  0  0  0  0  0  0  0
   -3.2923   -1.1248    2.6521 N   0  0  0  0  0  4  0  0  0  0  0  0
   -4.0126   -0.9036    1.9962 H   0  0  0  0  0  0  0  0  0  0  0  0
   -2.4116   -1.1662    2.1812 H   0  0  0  0  0  0  0  0  0  0  0  0
   -3.4867   -2.0080    3.0775 H   0  0  0  0  0  0  0  0  0  0  0  0
   -0.0521    2.8661   -0.0643 C   0  0  0  0  0  0  0  0  0  0  0  0
    0.8369    3.2181    0.1773 H   0  0  0  0  0  0  0  0  0  0  0  0
   -0.7534    3.1872    0.5508 H   0  0  0  0  0  0  0  0  0  0  0  0
   -0.2940    3.2211   -1.0660 H   0  0  0  0  0  0  0  0  0  0  0  0
   -0.0027    1.3764    0.0219 C   0  0  0  0  0  0  0  0  0  0  0  0
   -1.1887    0.6829   -0.0068 C   0  0  0  0  0  0  0  0  0  0  0  0
   -2.0570    1.1906   -0.0348 H   0  0  0  0  0  0  0  0  0  0  0  0
   -1.2157   -0.6840   -0.0000 C   0  0  0  0  0  0  0  0  0  0  0  0
   -2.0886   -1.1790   -0.0041 H   0  0  0  0  0  0  0  0  0  0  0  0
   -0.0130   -1.3862    0.0147 C   0  0  0  0  0  0  0  0  0  0  0  0
   -0.0114   -2.3811    0.0352 H   0  0  0  0  0  0  0  0  0  0  0  0
    1.2157   -0.6848   -0.0000 C   0  0  0  0  0  0  0  0  0  0  0  0
    2.0815   -1.1942    0.0131 H   0  0  0  0  0  0  0  0  0  0  0  0
    1.2043    0.6957   -0.0298 C   0  0  0  0  0  0  0  0  0  0  0  0
    2.0589    1.2024   -0.0887 H   0  0  0  0  0  0  0  0  0  0  0  0
  1  5  1  0
  5  8  1  0
  1  2  1  0
  1  3  1  0
  1  4  1  0
  5  6  1  0
  5  7  1  0
  8  9  1  0
  8 10  1  0
  8 11  1  0
 12 16  1  0
 16 17  2  0
 17 19  1  0
 19 21  2  0
 21 23  1  0
 23 25  2  0
 25 16  1  0
 12 13  1  0
 12 14  1  0
 12 15  1  0
 17 18  1  0
 19 20  1  0
 21 22  1  0
 23 24  1  0
 25 26  1  0
M  CHG  1   8   1
M  END
>  <PDB_ID>  (1063) 
pdb1qgh

>  <RESIDUE_NAME>  (1063) 
LYS   PHE

>  <FRAG_NAME>  (1063) 
ETAM   MBZ

>  <FRAG_ATOM_NUM>  (1063) 
fragi: 11  fragj: 15

>  <atom.prop.CHAIN_ID>  (1063) 
A A A A A A A A A A A Z Z Z Z Z Z Z Z Z Z Z Z Z Z Z

>  <atom.prop.IS_HEAVY_ATOM>  (1063) 
1 0 0 0 1 0 0 1 0 0 0 1 0 0 0 1 1 0 1 0 1 0 1 0 1 0

>  <DIFUSE_FUNC_ATOM>  (1063) 
n/a

>  <FINAL_SINGLE_POINT_ENERGY>  (1063) 
0

>  <NONCOV_INTER_ENERGY_QM>  (1063) 
0

>  <FF_Energy>  (1063) 
-2.73

>  <QM_Energy>  (1063) 
-8.72

>  <source>  (1063) 
ETAM_MBZ

>  <Index>  (1063) 
10626

$$$$
ETAM-pdb1qgj-A-LYS-62:MBZ-pdb1qgj-A-PHE-74
     RDKit          3D

 26 25  0  0  0  0  0  0  0  0999 V2000
   -0.8051   -1.0036   -3.7546 C   0  0  0  0  0  0  0  0  0  0  0  0
   -1.1552   -0.8361   -4.6710 H   0  0  0  0  0  0  0  0  0  0  0  0
   -1.4863   -0.7527   -3.0735 H   0  0  0  0  0  0  0  0  0  0  0  0
   -0.5779   -2.0648   -3.6531 H   0  0  0  0  0  0  0  0  0  0  0  0
    0.4328   -0.1344   -3.5435 C   0  0  0  0  0  0  0  0  0  0  0  0
    0.8179   -0.3296   -2.6458 H   0  0  0  0  0  0  0  0  0  0  0  0
    1.1007   -0.3404   -4.2538 H   0  0  0  0  0  0  0  0  0  0  0  0
    0.0735    1.3223   -3.6171 N   0  0  0  0  0  4  0  0  0  0  0  0
   -0.5361    1.5446   -2.8600 H   0  0  0  0  0  0  0  0  0  0  0  0
    0.9069    1.8660   -3.5536 H   0  0  0  0  0  0  0  0  0  0  0  0
   -0.3832    1.5011   -4.4860 H   0  0  0  0  0  0  0  0  0  0  0  0
    0.0067    2.9221    0.0425 C   0  0  0  0  0  0  0  0  0  0  0  0
   -0.9293    3.2286    0.0704 H   0  0  0  0  0  0  0  0  0  0  0  0
    0.4762    3.2473   -0.7610 H   0  0  0  0  0  0  0  0  0  0  0  0
    0.5181    3.3268    0.9160 H   0  0  0  0  0  0  0  0  0  0  0  0
    0.0000    1.4095   -0.0032 C   0  0  0  0  0  0  0  0  0  0  0  0
   -1.2022    0.7006   -0.0012 C   0  0  0  0  0  0  0  0  0  0  0  0
   -2.0670    1.1894   -0.0018 H   0  0  0  0  0  0  0  0  0  0  0  0
   -1.2095   -0.6984   -0.0000 C   0  0  0  0  0  0  0  0  0  0  0  0
   -2.0835   -1.1903   -0.0014 H   0  0  0  0  0  0  0  0  0  0  0  0
    0.0010   -1.4022    0.0048 C   0  0  0  0  0  0  0  0  0  0  0  0
   -0.0071   -2.3984    0.0108 H   0  0  0  0  0  0  0  0  0  0  0  0
    1.2095   -0.7048    0.0000 C   0  0  0  0  0  0  0  0  0  0  0  0
    2.0873   -1.1991   -0.0017 H   0  0  0  0  0  0  0  0  0  0  0  0
    1.2012    0.6952   -0.0003 C   0  0  0  0  0  0  0  0  0  0  0  0
    2.0695    1.1907    0.0005 H   0  0  0  0  0  0  0  0  0  0  0  0
  1  5  1  0
  5  8  1  0
  1  2  1  0
  1  3  1  0
  1  4  1  0
  5  6  1  0
  5  7  1  0
  8  9  1  0
  8 10  1  0
  8 11  1  0
 12 16  1  0
 16 17  2  0
 17 19  1  0
 19 21  2  0
 21 23  1  0
 23 25  2  0
 25 16  1  0
 12 13  1  0
 12 14  1  0
 12 15  1  0
 17 18  1  0
 19 20  1  0
 21 22  1  0
 23 24  1  0
 25 26  1  0
M  CHG  1   8   1
M  END
>  <PDB_ID>  (1064) 
pdb1qgj

>  <RESIDUE_NAME>  (1064) 
LYS   PHE

>  <FRAG_NAME>  (1064) 
ETAM   MBZ

>  <FRAG_ATOM_NUM>  (1064) 
fragi: 11  fragj: 15

>  <atom.prop.CHAIN_ID>  (1064) 
A A A A A A A A A A A Z Z Z Z Z Z Z Z Z Z Z Z Z Z Z

>  <atom.prop.IS_HEAVY_ATOM>  (1064) 
1 0 0 0 1 0 0 1 0 0 0 1 0 0 0 1 1 0 1 0 1 0 1 0 1 0

>  <DIFUSE_FUNC_ATOM>  (1064) 
n/a

>  <FINAL_SINGLE_POINT_ENERGY>  (1064) 
0

>  <NONCOV_INTER_ENERGY_QM>  (1064) 
0

>  <FF_Energy>  (1064) 
-7.49

>  <QM_Energy>  (1064) 
-12.85

>  <source>  (1064) 
ETAM_MBZ

>  <Index>  (1064) 
10633

$$$$
ETAM-pdb2woi-A-LYS-61:MBZ-pdb2woi-A-PHE-367
     RDKit          3D

 26 25  0  0  0  0  0  0  0  0999 V2000
   -1.2004   -0.4096    3.7986 C   0  0  0  0  0  0  0  0  0  0  0  0
   -1.6522    0.4554    3.7492 H   0  0  0  0  0  0  0  0  0  0  0  0
   -0.5349   -0.5414    3.0955 H   0  0  0  0  0  0  0  0  0  0  0  0
   -0.7572   -0.5574    4.7834 H   0  0  0  0  0  0  0  0  0  0  0  0
   -2.3285   -1.5247    3.5695 C   0  0  0  0  0  0  0  0  0  0  0  0
   -2.5536   -1.9095    4.4684 H   0  0  0  0  0  0  0  0  0  0  0  0
   -3.1389   -1.0587    3.2029 H   0  0  0  0  0  0  0  0  0  0  0  0
   -1.9272   -2.6556    2.6234 N   0  0  0  0  0  4  0  0  0  0  0  0
   -0.9550   -2.8244    2.7342 H   0  0  0  0  0  0  0  0  0  0  0  0
   -2.4528   -3.4638    2.8636 H   0  0  0  0  0  0  0  0  0  0  0  0
   -2.1284   -2.3708    1.6939 H   0  0  0  0  0  0  0  0  0  0  0  0
    0.0140    2.8786   -0.0398 C   0  0  0  0  0  0  0  0  0  0  0  0
    0.8788    3.1860    0.2998 H   0  0  0  0  0  0  0  0  0  0  0  0
   -0.7440    3.2047    0.4870 H   0  0  0  0  0  0  0  0  0  0  0  0
   -0.1013    3.2071   -1.0728 H   0  0  0  0  0  0  0  0  0  0  0  0
    0.0060    1.3716    0.0398 C   0  0  0  0  0  0  0  0  0  0  0  0
   -1.1992    0.6791   -0.0101 C   0  0  0  0  0  0  0  0  0  0  0  0
   -2.0530    1.1756   -0.0534 H   0  0  0  0  0  0  0  0  0  0  0  0
   -1.1851   -0.6888    0.0000 C   0  0  0  0  0  0  0  0  0  0  0  0
   -2.0578   -1.2002    0.0086 H   0  0  0  0  0  0  0  0  0  0  0  0
    0.0117   -1.3548    0.0002 C   0  0  0  0  0  0  0  0  0  0  0  0
    0.0038   -2.3726   -0.0006 H   0  0  0  0  0  0  0  0  0  0  0  0
    1.1851   -0.6867    0.0000 C   0  0  0  0  0  0  0  0  0  0  0  0
    2.0736   -1.1859    0.0228 H   0  0  0  0  0  0  0  0  0  0  0  0
    1.1815    0.6795   -0.0298 C   0  0  0  0  0  0  0  0  0  0  0  0
    2.0510    1.1791   -0.1047 H   0  0  0  0  0  0  0  0  0  0  0  0
  1  5  1  0
  5  8  1  0
  1  2  1  0
  1  3  1  0
  1  4  1  0
  5  6  1  0
  5  7  1  0
  8  9  1  0
  8 10  1  0
  8 11  1  0
 12 16  1  0
 16 17  2  0
 17 19  1  0
 19 21  2  0
 21 23  1  0
 23 25  2  0
 25 16  1  0
 12 13  1  0
 12 14  1  0
 12 15  1  0
 17 18  1  0
 19 20  1  0
 21 22  1  0
 23 24  1  0
 25 26  1  0
M  CHG  1   8   1
M  END
>  <PDB_ID>  (1065) 
pdb2woi

>  <RESIDUE_NAME>  (1065) 
LYS   PHE

>  <FRAG_NAME>  (1065) 
ETAM   MBZ

>  <FRAG_ATOM_NUM>  (1065) 
fragi: 11  fragj: 15

>  <atom.prop.CHAIN_ID>  (1065) 
A A A A A A A A A A A Z Z Z Z Z Z Z Z Z Z Z Z Z Z Z

>  <atom.prop.IS_HEAVY_ATOM>  (1065) 
1 0 0 0 1 0 0 1 0 0 0 1 0 0 0 1 1 0 1 0 1 0 1 0 1 0

>  <DIFUSE_FUNC_ATOM>  (1065) 
n/a

>  <FINAL_SINGLE_POINT_ENERGY>  (1065) 
0

>  <NONCOV_INTER_ENERGY_QM>  (1065) 
0

>  <FF_Energy>  (1065) 
-2.8

>  <QM_Energy>  (1065) 
-9.54

>  <source>  (1065) 
ETAM_MBZ

>  <Index>  (1065) 
10645

$$$$
ETAM-pdb2woi-B-LYS-61:MBZ-pdb2woi-B-PHE-367
     RDKit          3D

 26 25  0  0  0  0  0  0  0  0999 V2000
   -1.1313   -0.3193    3.9119 C   0  0  0  0  0  0  0  0  0  0  0  0
   -1.4517    0.6172    3.8959 H   0  0  0  0  0  0  0  0  0  0  0  0
   -0.4080   -0.4606    3.2511 H   0  0  0  0  0  0  0  0  0  0  0  0
   -0.7172   -0.5097    4.9020 H   0  0  0  0  0  0  0  0  0  0  0  0
   -2.3348   -1.2627    3.5403 C   0  0  0  0  0  0  0  0  0  0  0  0
   -2.9047   -1.3739    4.3562 H   0  0  0  0  0  0  0  0  0  0  0  0
   -2.8718   -0.8132    2.8235 H   0  0  0  0  0  0  0  0  0  0  0  0
   -1.9017   -2.6379    3.0467 N   0  0  0  0  0  4  0  0  0  0  0  0
   -1.3673   -3.0738    3.7624 H   0  0  0  0  0  0  0  0  0  0  0  0
   -2.7163   -3.1709    2.8466 H   0  0  0  0  0  0  0  0  0  0  0  0
   -1.3535   -2.5184    2.2260 H   0  0  0  0  0  0  0  0  0  0  0  0
    0.0024    2.9044   -0.0229 C   0  0  0  0  0  0  0  0  0  0  0  0
    0.8725    3.2254    0.2932 H   0  0  0  0  0  0  0  0  0  0  0  0
   -0.7435    3.2215    0.5273 H   0  0  0  0  0  0  0  0  0  0  0  0
   -0.1456    3.2734   -1.0378 H   0  0  0  0  0  0  0  0  0  0  0  0
    0.0108    1.4084    0.0167 C   0  0  0  0  0  0  0  0  0  0  0  0
   -1.2047    0.6960    0.0090 C   0  0  0  0  0  0  0  0  0  0  0  0
   -2.0627    1.1792    0.0089 H   0  0  0  0  0  0  0  0  0  0  0  0
   -1.2001   -0.7148    0.0000 C   0  0  0  0  0  0  0  0  0  0  0  0
   -2.0823   -1.1994    0.0158 H   0  0  0  0  0  0  0  0  0  0  0  0
   -0.0092   -1.3987   -0.0274 C   0  0  0  0  0  0  0  0  0  0  0  0
    0.0007   -2.3989   -0.0674 H   0  0  0  0  0  0  0  0  0  0  0  0
    1.2001   -0.6980   -0.0000 C   0  0  0  0  0  0  0  0  0  0  0  0
    2.0784   -1.1954    0.0202 H   0  0  0  0  0  0  0  0  0  0  0  0
    1.2032    0.7071    0.0017 C   0  0  0  0  0  0  0  0  0  0  0  0
    2.0727    1.1913   -0.0086 H   0  0  0  0  0  0  0  0  0  0  0  0
  1  5  1  0
  5  8  1  0
  1  2  1  0
  1  3  1  0
  1  4  1  0
  5  6  1  0
  5  7  1  0
  8  9  1  0
  8 10  1  0
  8 11  1  0
 12 16  1  0
 16 17  2  0
 17 19  1  0
 19 21  2  0
 21 23  1  0
 23 25  2  0
 25 16  1  0
 12 13  1  0
 12 14  1  0
 12 15  1  0
 17 18  1  0
 19 20  1  0
 21 22  1  0
 23 24  1  0
 25 26  1  0
M  CHG  1   8   1
M  END
>  <PDB_ID>  (1066) 
pdb2woi

>  <RESIDUE_NAME>  (1066) 
LYS   PHE

>  <FRAG_NAME>  (1066) 
ETAM   MBZ

>  <FRAG_ATOM_NUM>  (1066) 
fragi: 11  fragj: 15

>  <atom.prop.CHAIN_ID>  (1066) 
A A A A A A A A A A A Z Z Z Z Z Z Z Z Z Z Z Z Z Z Z

>  <atom.prop.IS_HEAVY_ATOM>  (1066) 
1 0 0 0 1 0 0 1 0 0 0 1 0 0 0 1 1 0 1 0 1 0 1 0 1 0

>  <DIFUSE_FUNC_ATOM>  (1066) 
n/a

>  <FINAL_SINGLE_POINT_ENERGY>  (1066) 
0

>  <NONCOV_INTER_ENERGY_QM>  (1066) 
0

>  <FF_Energy>  (1066) 
-3.65

>  <QM_Energy>  (1066) 
-9.97

>  <source>  (1066) 
ETAM_MBZ

>  <Index>  (1066) 
10647

$$$$
ETAM-pdb1qho-A-LYS-57:MBZ-pdb1qho-A-PHE-382
     RDKit          3D

 26 25  0  0  0  0  0  0  0  0999 V2000
   -1.1212   -0.1656    3.9547 C   0  0  0  0  0  0  0  0  0  0  0  0
   -1.5219    0.6090    3.4674 H   0  0  0  0  0  0  0  0  0  0  0  0
   -1.1274    0.0143    4.9369 H   0  0  0  0  0  0  0  0  0  0  0  0
   -1.7283   -1.0496    3.7596 H   0  0  0  0  0  0  0  0  0  0  0  0
    0.3132   -0.3388    3.4992 C   0  0  0  0  0  0  0  0  0  0  0  0
    0.7155   -1.1302    3.9637 H   0  0  0  0  0  0  0  0  0  0  0  0
    0.3305   -0.4949    2.5094 H   0  0  0  0  0  0  0  0  0  0  0  0
    1.1481    0.8761    3.8090 N   0  0  0  0  0  4  0  0  0  0  0  0
    1.0864    1.5134    3.0452 H   0  0  0  0  0  0  0  0  0  0  0  0
    0.7999    1.3038    4.6395 H   0  0  0  0  0  0  0  0  0  0  0  0
    2.0945    0.5921    3.9418 H   0  0  0  0  0  0  0  0  0  0  0  0
   -0.0242    2.9063   -0.0403 C   0  0  0  0  0  0  0  0  0  0  0  0
    0.7871    3.2353    0.3845 H   0  0  0  0  0  0  0  0  0  0  0  0
   -0.8462    3.2113    0.3830 H   0  0  0  0  0  0  0  0  0  0  0  0
   -0.0284    3.2639   -1.0700 H   0  0  0  0  0  0  0  0  0  0  0  0
   -0.0020    1.3976   -0.0044 C   0  0  0  0  0  0  0  0  0  0  0  0
   -1.1924    0.6841   -0.0084 C   0  0  0  0  0  0  0  0  0  0  0  0
   -2.0625    1.1760   -0.0189 H   0  0  0  0  0  0  0  0  0  0  0  0
   -1.1949   -0.6970    0.0000 C   0  0  0  0  0  0  0  0  0  0  0  0
   -2.0720   -1.1950   -0.0003 H   0  0  0  0  0  0  0  0  0  0  0  0
    0.0036   -1.3878    0.0105 C   0  0  0  0  0  0  0  0  0  0  0  0
    0.0034   -2.3870    0.0247 H   0  0  0  0  0  0  0  0  0  0  0  0
    1.1949   -0.6870   -0.0000 C   0  0  0  0  0  0  0  0  0  0  0  0
    2.0813   -1.1878   -0.0080 H   0  0  0  0  0  0  0  0  0  0  0  0
    1.1909    0.6901    0.0023 C   0  0  0  0  0  0  0  0  0  0  0  0
    2.0591    1.1914    0.0081 H   0  0  0  0  0  0  0  0  0  0  0  0
  1  5  1  0
  5  8  1  0
  1  2  1  0
  1  3  1  0
  1  4  1  0
  5  6  1  0
  5  7  1  0
  8  9  1  0
  8 10  1  0
  8 11  1  0
 12 16  1  0
 16 17  2  0
 17 19  1  0
 19 21  2  0
 21 23  1  0
 23 25  2  0
 25 16  1  0
 12 13  1  0
 12 14  1  0
 12 15  1  0
 17 18  1  0
 19 20  1  0
 21 22  1  0
 23 24  1  0
 25 26  1  0
M  CHG  1   8   1
M  END
>  <PDB_ID>  (1067) 
pdb1qho

>  <RESIDUE_NAME>  (1067) 
LYS   PHE

>  <FRAG_NAME>  (1067) 
ETAM   MBZ

>  <FRAG_ATOM_NUM>  (1067) 
fragi: 11  fragj: 15

>  <atom.prop.CHAIN_ID>  (1067) 
A A A A A A A A A A A Z Z Z Z Z Z Z Z Z Z Z Z Z Z Z

>  <atom.prop.IS_HEAVY_ATOM>  (1067) 
1 0 0 0 1 0 0 1 0 0 0 1 0 0 0 1 1 0 1 0 1 0 1 0 1 0

>  <DIFUSE_FUNC_ATOM>  (1067) 
n/a

>  <FINAL_SINGLE_POINT_ENERGY>  (1067) 
0

>  <NONCOV_INTER_ENERGY_QM>  (1067) 
0

>  <FF_Energy>  (1067) 
-6.32

>  <QM_Energy>  (1067) 
-11.73

>  <source>  (1067) 
ETAM_MBZ

>  <Index>  (1067) 
10653

$$$$
ETAM-pdb1q7m-B-LYS-423:MBZ-pdb1q7m-B-PHE-410
     RDKit          3D

 26 25  0  0  0  0  0  0  0  0999 V2000
    4.1929   -2.3341   -0.5097 C   0  0  0  0  0  0  0  0  0  0  0  0
    5.1224   -2.4132   -0.1814 H   0  0  0  0  0  0  0  0  0  0  0  0
    3.7147   -1.5940   -0.0617 H   0  0  0  0  0  0  0  0  0  0  0  0
    4.2075   -2.1528   -1.5844 H   0  0  0  0  0  0  0  0  0  0  0  0
    3.4597   -3.6375   -0.2073 C   0  0  0  0  0  0  0  0  0  0  0  0
    2.5025   -3.5435   -0.5021 H   0  0  0  0  0  0  0  0  0  0  0  0
    3.8852   -4.3770   -0.7400 H   0  0  0  0  0  0  0  0  0  0  0  0
    3.4964   -3.9882    1.2342 N   0  0  0  0  0  4  0  0  0  0  0  0
    3.3182   -3.1697    1.7813 H   0  0  0  0  0  0  0  0  0  0  0  0
    2.7978   -4.6768    1.4273 H   0  0  0  0  0  0  0  0  0  0  0  0
    4.3976   -4.3543    1.4655 H   0  0  0  0  0  0  0  0  0  0  0  0
   -0.0091    2.9104    0.0414 C   0  0  0  0  0  0  0  0  0  0  0  0
   -0.4298    3.2358   -0.7901 H   0  0  0  0  0  0  0  0  0  0  0  0
    0.9243    3.2195    0.1222 H   0  0  0  0  0  0  0  0  0  0  0  0
   -0.5702    3.3176    0.8825 H   0  0  0  0  0  0  0  0  0  0  0  0
    0.0001    1.4066    0.0012 C   0  0  0  0  0  0  0  0  0  0  0  0
   -1.1954    0.6928   -0.0019 C   0  0  0  0  0  0  0  0  0  0  0  0
   -2.0644    1.1828   -0.0065 H   0  0  0  0  0  0  0  0  0  0  0  0
   -1.2018   -0.7001   -0.0000 C   0  0  0  0  0  0  0  0  0  0  0  0
   -2.0792   -1.1915    0.0029 H   0  0  0  0  0  0  0  0  0  0  0  0
   -0.0006   -1.3991    0.0001 C   0  0  0  0  0  0  0  0  0  0  0  0
   -0.0049   -2.3963    0.0001 H   0  0  0  0  0  0  0  0  0  0  0  0
    1.2018   -0.7022    0.0000 C   0  0  0  0  0  0  0  0  0  0  0  0
    2.0837   -1.1935    0.0006 H   0  0  0  0  0  0  0  0  0  0  0  0
    1.1958    0.7021    0.0006 C   0  0  0  0  0  0  0  0  0  0  0  0
    2.0657    1.1919   -0.0000 H   0  0  0  0  0  0  0  0  0  0  0  0
  1  5  1  0
  5  8  1  0
  1  2  1  0
  1  3  1  0
  1  4  1  0
  5  6  1  0
  5  7  1  0
  8  9  1  0
  8 10  1  0
  8 11  1  0
 12 16  1  0
 16 17  2  0
 17 19  1  0
 19 21  2  0
 21 23  1  0
 23 25  2  0
 25 16  1  0
 12 13  1  0
 12 14  1  0
 12 15  1  0
 17 18  1  0
 19 20  1  0
 21 22  1  0
 23 24  1  0
 25 26  1  0
M  CHG  1   8   1
M  END
>  <PDB_ID>  (1068) 
pdb1q7m

>  <RESIDUE_NAME>  (1068) 
LYS   PHE

>  <FRAG_NAME>  (1068) 
ETAM   MBZ

>  <FRAG_ATOM_NUM>  (1068) 
fragi: 11  fragj: 15

>  <atom.prop.CHAIN_ID>  (1068) 
A A A A A A A A A A A Z Z Z Z Z Z Z Z Z Z Z Z Z Z Z

>  <atom.prop.IS_HEAVY_ATOM>  (1068) 
1 0 0 0 1 0 0 1 0 0 0 1 0 0 0 1 1 0 1 0 1 0 1 0 1 0

>  <DIFUSE_FUNC_ATOM>  (1068) 
n/a

>  <FINAL_SINGLE_POINT_ENERGY>  (1068) 
0

>  <NONCOV_INTER_ENERGY_QM>  (1068) 
0

>  <FF_Energy>  (1068) 
9.28

>  <QM_Energy>  (1068) 
-0.95

>  <source>  (1068) 
ETAM_MBZ

>  <Index>  (1068) 
10654

$$$$
ETAM-pdb2wpv-C-LYS-267:MBZ-pdb2wpv-C-PHE-263
     RDKit          3D

 26 25  0  0  0  0  0  0  0  0999 V2000
   -0.1959   -1.5644    3.9610 C   0  0  0  0  0  0  0  0  0  0  0  0
    0.0861   -2.2435    4.6309 H   0  0  0  0  0  0  0  0  0  0  0  0
   -0.4971   -2.0087    3.1234 H   0  0  0  0  0  0  0  0  0  0  0  0
   -1.0252   -0.9889    4.3722 H   0  0  0  0  0  0  0  0  0  0  0  0
    0.9973   -0.6768    3.6377 C   0  0  0  0  0  0  0  0  0  0  0  0
    0.7171    0.0115    2.9646 H   0  0  0  0  0  0  0  0  0  0  0  0
    1.2931   -0.2123    4.4757 H   0  0  0  0  0  0  0  0  0  0  0  0
    2.1329   -1.4646    3.0881 N   0  0  0  0  0  4  0  0  0  0  0  0
    2.4221   -2.1447    3.7614 H   0  0  0  0  0  0  0  0  0  0  0  0
    1.8425   -1.9261    2.2508 H   0  0  0  0  0  0  0  0  0  0  0  0
    2.8947   -0.8507    2.8844 H   0  0  0  0  0  0  0  0  0  0  0  0
    0.0097    2.9154   -0.0761 C   0  0  0  0  0  0  0  0  0  0  0  0
   -0.3618    3.1777   -0.9548 H   0  0  0  0  0  0  0  0  0  0  0  0
    0.9477    3.2180    0.0203 H   0  0  0  0  0  0  0  0  0  0  0  0
   -0.5808    3.4082    0.6962 H   0  0  0  0  0  0  0  0  0  0  0  0
   -0.0001    1.4070   -0.0012 C   0  0  0  0  0  0  0  0  0  0  0  0
   -1.1989    0.7006    0.0014 C   0  0  0  0  0  0  0  0  0  0  0  0
   -2.0651    1.1881    0.0037 H   0  0  0  0  0  0  0  0  0  0  0  0
   -1.2056   -0.6981   -0.0000 C   0  0  0  0  0  0  0  0  0  0  0  0
   -2.0803   -1.1890    0.0023 H   0  0  0  0  0  0  0  0  0  0  0  0
    0.0015   -1.4009   -0.0023 C   0  0  0  0  0  0  0  0  0  0  0  0
   -0.0055   -2.3964   -0.0065 H   0  0  0  0  0  0  0  0  0  0  0  0
    1.2056   -0.7029   -0.0000 C   0  0  0  0  0  0  0  0  0  0  0  0
    2.0854   -1.1969    0.0020 H   0  0  0  0  0  0  0  0  0  0  0  0
    1.1975    0.6942    0.0021 C   0  0  0  0  0  0  0  0  0  0  0  0
    2.0666    1.1889    0.0053 H   0  0  0  0  0  0  0  0  0  0  0  0
  1  5  1  0
  5  8  1  0
  1  2  1  0
  1  3  1  0
  1  4  1  0
  5  6  1  0
  5  7  1  0
  8  9  1  0
  8 10  1  0
  8 11  1  0
 12 16  1  0
 16 17  2  0
 17 19  1  0
 19 21  2  0
 21 23  1  0
 23 25  2  0
 25 16  1  0
 12 13  1  0
 12 14  1  0
 12 15  1  0
 17 18  1  0
 19 20  1  0
 21 22  1  0
 23 24  1  0
 25 26  1  0
M  CHG  1   8   1
M  END
>  <PDB_ID>  (1069) 
pdb2wpv

>  <RESIDUE_NAME>  (1069) 
LYS   PHE

>  <FRAG_NAME>  (1069) 
ETAM   MBZ

>  <FRAG_ATOM_NUM>  (1069) 
fragi: 11  fragj: 15

>  <atom.prop.CHAIN_ID>  (1069) 
A A A A A A A A A A A Z Z Z Z Z Z Z Z Z Z Z Z Z Z Z

>  <atom.prop.IS_HEAVY_ATOM>  (1069) 
1 0 0 0 1 0 0 1 0 0 0 1 0 0 0 1 1 0 1 0 1 0 1 0 1 0

>  <DIFUSE_FUNC_ATOM>  (1069) 
n/a

>  <FINAL_SINGLE_POINT_ENERGY>  (1069) 
0

>  <NONCOV_INTER_ENERGY_QM>  (1069) 
0

>  <FF_Energy>  (1069) 
-4.79

>  <QM_Energy>  (1069) 
-11.8

>  <source>  (1069) 
ETAM_MBZ

>  <Index>  (1069) 
10674

$$$$
ETAM-pdb2wpv-E-LYS-267:MBZ-pdb2wpv-E-PHE-263
     RDKit          3D

 26 25  0  0  0  0  0  0  0  0999 V2000
    0.2074   -1.4781   -3.8847 C   0  0  0  0  0  0  0  0  0  0  0  0
    0.0424   -2.2529   -4.4857 H   0  0  0  0  0  0  0  0  0  0  0  0
    0.5337   -1.7899   -2.9989 H   0  0  0  0  0  0  0  0  0  0  0  0
    0.9693   -0.8419   -4.3353 H   0  0  0  0  0  0  0  0  0  0  0  0
   -1.1022   -0.7285   -3.6851 C   0  0  0  0  0  0  0  0  0  0  0  0
   -0.9295    0.0799   -3.1120 H   0  0  0  0  0  0  0  0  0  0  0  0
   -1.4383   -0.4185   -4.5808 H   0  0  0  0  0  0  0  0  0  0  0  0
   -2.1453   -1.5707   -3.0380 N   0  0  0  0  0  4  0  0  0  0  0  0
   -3.0474   -1.1865   -3.2298 H   0  0  0  0  0  0  0  0  0  0  0  0
   -2.0927   -2.5001   -3.4017 H   0  0  0  0  0  0  0  0  0  0  0  0
   -1.9913   -1.5878   -2.0509 H   0  0  0  0  0  0  0  0  0  0  0  0
   -0.0093    2.9064    0.0628 C   0  0  0  0  0  0  0  0  0  0  0  0
    0.3359    3.1786    0.9504 H   0  0  0  0  0  0  0  0  0  0  0  0
   -0.9427    3.2117   -0.0646 H   0  0  0  0  0  0  0  0  0  0  0  0
    0.6057    3.3892   -0.6966 H   0  0  0  0  0  0  0  0  0  0  0  0
    0.0002    1.4052    0.0010 C   0  0  0  0  0  0  0  0  0  0  0  0
   -1.1980    0.6924   -0.0019 C   0  0  0  0  0  0  0  0  0  0  0  0
   -2.0651    1.1809   -0.0066 H   0  0  0  0  0  0  0  0  0  0  0  0
   -1.2024   -0.7036   -0.0000 C   0  0  0  0  0  0  0  0  0  0  0  0
   -2.0794   -1.1940    0.0013 H   0  0  0  0  0  0  0  0  0  0  0  0
   -0.0017   -1.3968    0.0020 C   0  0  0  0  0  0  0  0  0  0  0  0
   -0.0004   -2.3950    0.0047 H   0  0  0  0  0  0  0  0  0  0  0  0
    1.2024   -0.6964    0.0000 C   0  0  0  0  0  0  0  0  0  0  0  0
    2.0833   -1.1940    0.0005 H   0  0  0  0  0  0  0  0  0  0  0  0
    1.1996    0.6991   -0.0012 C   0  0  0  0  0  0  0  0  0  0  0  0
    2.0661    1.1939   -0.0045 H   0  0  0  0  0  0  0  0  0  0  0  0
  1  5  1  0
  5  8  1  0
  1  2  1  0
  1  3  1  0
  1  4  1  0
  5  6  1  0
  5  7  1  0
  8  9  1  0
  8 10  1  0
  8 11  1  0
 12 16  1  0
 16 17  2  0
 17 19  1  0
 19 21  2  0
 21 23  1  0
 23 25  2  0
 25 16  1  0
 12 13  1  0
 12 14  1  0
 12 15  1  0
 17 18  1  0
 19 20  1  0
 21 22  1  0
 23 24  1  0
 25 26  1  0
M  CHG  1   8   1
M  END
>  <PDB_ID>  (1070) 
pdb2wpv

>  <RESIDUE_NAME>  (1070) 
LYS   PHE

>  <FRAG_NAME>  (1070) 
ETAM   MBZ

>  <FRAG_ATOM_NUM>  (1070) 
fragi: 11  fragj: 15

>  <atom.prop.CHAIN_ID>  (1070) 
A A A A A A A A A A A Z Z Z Z Z Z Z Z Z Z Z Z Z Z Z

>  <atom.prop.IS_HEAVY_ATOM>  (1070) 
1 0 0 0 1 0 0 1 0 0 0 1 0 0 0 1 1 0 1 0 1 0 1 0 1 0

>  <DIFUSE_FUNC_ATOM>  (1070) 
n/a

>  <FINAL_SINGLE_POINT_ENERGY>  (1070) 
0

>  <NONCOV_INTER_ENERGY_QM>  (1070) 
0

>  <FF_Energy>  (1070) 
-4.73

>  <QM_Energy>  (1070) 
-12.26

>  <source>  (1070) 
ETAM_MBZ

>  <Index>  (1070) 
10676

$$$$
ETAM-pdb2wpv-G-LYS-267:MBZ-pdb2wpv-G-PHE-263
     RDKit          3D

 26 25  0  0  0  0  0  0  0  0999 V2000
   -0.1117   -1.7052    3.8750 C   0  0  0  0  0  0  0  0  0  0  0  0
    0.0649   -2.4488    4.5127 H   0  0  0  0  0  0  0  0  0  0  0  0
   -0.3897   -2.0666    2.9913 H   0  0  0  0  0  0  0  0  0  0  0  0
   -0.9165   -1.0862    4.2714 H   0  0  0  0  0  0  0  0  0  0  0  0
    1.1699   -0.9074    3.6928 C   0  0  0  0  0  0  0  0  0  0  0  0
    1.0037   -0.1715    3.0301 H   0  0  0  0  0  0  0  0  0  0  0  0
    1.4262   -0.4983    4.5732 H   0  0  0  0  0  0  0  0  0  0  0  0
    2.2913   -1.7592    3.2055 N   0  0  0  0  0  4  0  0  0  0  0  0
    2.6470   -1.3814    2.3515 H   0  0  0  0  0  0  0  0  0  0  0  0
    3.0167   -1.7752    3.8928 H   0  0  0  0  0  0  0  0  0  0  0  0
    1.9570   -2.6875    3.0482 H   0  0  0  0  0  0  0  0  0  0  0  0
    0.0085    2.9023   -0.0460 C   0  0  0  0  0  0  0  0  0  0  0  0
   -0.4112    3.1872   -0.8960 H   0  0  0  0  0  0  0  0  0  0  0  0
    0.9501    3.2060    0.0054 H   0  0  0  0  0  0  0  0  0  0  0  0
   -0.5375    3.3771    0.7691 H   0  0  0  0  0  0  0  0  0  0  0  0
    0.0002    1.4029   -0.0017 C   0  0  0  0  0  0  0  0  0  0  0  0
   -1.1990    0.6970    0.0013 C   0  0  0  0  0  0  0  0  0  0  0  0
   -2.0641    1.1857    0.0033 H   0  0  0  0  0  0  0  0  0  0  0  0
   -1.2031   -0.6969   -0.0000 C   0  0  0  0  0  0  0  0  0  0  0  0
   -2.0792   -1.1905    0.0005 H   0  0  0  0  0  0  0  0  0  0  0  0
    0.0015   -1.3960   -0.0002 C   0  0  0  0  0  0  0  0  0  0  0  0
   -0.0045   -2.3940   -0.0007 H   0  0  0  0  0  0  0  0  0  0  0  0
    1.2031   -0.7002   -0.0000 C   0  0  0  0  0  0  0  0  0  0  0  0
    2.0839   -1.1961    0.0017 H   0  0  0  0  0  0  0  0  0  0  0  0
    1.1973    0.6932    0.0005 C   0  0  0  0  0  0  0  0  0  0  0  0
    2.0654    1.1892    0.0016 H   0  0  0  0  0  0  0  0  0  0  0  0
  1  5  1  0
  5  8  1  0
  1  2  1  0
  1  3  1  0
  1  4  1  0
  5  6  1  0
  5  7  1  0
  8  9  1  0
  8 10  1  0
  8 11  1  0
 12 16  1  0
 16 17  2  0
 17 19  1  0
 19 21  2  0
 21 23  1  0
 23 25  2  0
 25 16  1  0
 12 13  1  0
 12 14  1  0
 12 15  1  0
 17 18  1  0
 19 20  1  0
 21 22  1  0
 23 24  1  0
 25 26  1  0
M  CHG  1   8   1
M  END
>  <PDB_ID>  (1071) 
pdb2wpv

>  <RESIDUE_NAME>  (1071) 
LYS   PHE

>  <FRAG_NAME>  (1071) 
ETAM   MBZ

>  <FRAG_ATOM_NUM>  (1071) 
fragi: 11  fragj: 15

>  <atom.prop.CHAIN_ID>  (1071) 
A A A A A A A A A A A Z Z Z Z Z Z Z Z Z Z Z Z Z Z Z

>  <atom.prop.IS_HEAVY_ATOM>  (1071) 
1 0 0 0 1 0 0 1 0 0 0 1 0 0 0 1 1 0 1 0 1 0 1 0 1 0

>  <DIFUSE_FUNC_ATOM>  (1071) 
n/a

>  <FINAL_SINGLE_POINT_ENERGY>  (1071) 
0

>  <NONCOV_INTER_ENERGY_QM>  (1071) 
0

>  <FF_Energy>  (1071) 
-4.15

>  <QM_Energy>  (1071) 
-10.22

>  <source>  (1071) 
ETAM_MBZ

>  <Index>  (1071) 
10678

$$$$
ETAM-pdb1qjb-B-LYS-157:MBZ-pdb1qjb-B-PHE-153
     RDKit          3D

 26 25  0  0  0  0  0  0  0  0999 V2000
    1.2645   -1.6273    3.4410 C   0  0  0  0  0  0  0  0  0  0  0  0
    0.4562   -1.4222    2.9004 H   0  0  0  0  0  0  0  0  0  0  0  0
    1.9555   -0.9243    3.3162 H   0  0  0  0  0  0  0  0  0  0  0  0
    0.9848   -1.6657    4.4938 H   0  0  0  0  0  0  0  0  0  0  0  0
    1.8366   -2.9584    2.9725 C   0  0  0  0  0  0  0  0  0  0  0  0
    2.4394   -2.7952    2.1874 H   0  0  0  0  0  0  0  0  0  0  0  0
    2.3740   -3.3624    3.7167 H   0  0  0  0  0  0  0  0  0  0  0  0
    0.7622   -3.9177    2.5717 N   0  0  0  0  0  4  0  0  0  0  0  0
    1.1790   -4.7124    2.1335 H   0  0  0  0  0  0  0  0  0  0  0  0
    0.2595   -4.2059    3.3852 H   0  0  0  0  0  0  0  0  0  0  0  0
    0.1406   -3.4670    1.9334 H   0  0  0  0  0  0  0  0  0  0  0  0
   -0.0436    2.9046    0.0075 C   0  0  0  0  0  0  0  0  0  0  0  0
   -0.6463    3.1982   -0.7021 H   0  0  0  0  0  0  0  0  0  0  0  0
    0.8706    3.2315   -0.0961 H   0  0  0  0  0  0  0  0  0  0  0  0
   -0.4298    3.2836    0.9537 H   0  0  0  0  0  0  0  0  0  0  0  0
   -0.0070    1.3931   -0.0010 C   0  0  0  0  0  0  0  0  0  0  0  0
   -1.1869    0.6776    0.0113 C   0  0  0  0  0  0  0  0  0  0  0  0
   -2.0639    1.1759    0.0283 H   0  0  0  0  0  0  0  0  0  0  0  0
   -1.2060   -0.6981   -0.0000 C   0  0  0  0  0  0  0  0  0  0  0  0
   -2.0725   -1.1963   -0.0080 H   0  0  0  0  0  0  0  0  0  0  0  0
    0.0056   -1.3855    0.0014 C   0  0  0  0  0  0  0  0  0  0  0  0
    0.0052   -2.3862    0.0031 H   0  0  0  0  0  0  0  0  0  0  0  0
    1.2060   -0.6868   -0.0000 C   0  0  0  0  0  0  0  0  0  0  0  0
    2.0864   -1.1799    0.0092 H   0  0  0  0  0  0  0  0  0  0  0  0
    1.1884    0.6997   -0.0117 C   0  0  0  0  0  0  0  0  0  0  0  0
    2.0549    1.2037   -0.0290 H   0  0  0  0  0  0  0  0  0  0  0  0
  1  5  1  0
  5  8  1  0
  1  2  1  0
  1  3  1  0
  1  4  1  0
  5  6  1  0
  5  7  1  0
  8  9  1  0
  8 10  1  0
  8 11  1  0
 12 16  1  0
 16 17  2  0
 17 19  1  0
 19 21  2  0
 21 23  1  0
 23 25  2  0
 25 16  1  0
 12 13  1  0
 12 14  1  0
 12 15  1  0
 17 18  1  0
 19 20  1  0
 21 22  1  0
 23 24  1  0
 25 26  1  0
M  CHG  1   8   1
M  END
>  <PDB_ID>  (1072) 
pdb1qjb

>  <RESIDUE_NAME>  (1072) 
LYS   PHE

>  <FRAG_NAME>  (1072) 
ETAM   MBZ

>  <FRAG_ATOM_NUM>  (1072) 
fragi: 11  fragj: 15

>  <atom.prop.CHAIN_ID>  (1072) 
A A A A A A A A A A A Z Z Z Z Z Z Z Z Z Z Z Z Z Z Z

>  <atom.prop.IS_HEAVY_ATOM>  (1072) 
1 0 0 0 1 0 0 1 0 0 0 1 0 0 0 1 1 0 1 0 1 0 1 0 1 0

>  <DIFUSE_FUNC_ATOM>  (1072) 
n/a

>  <FINAL_SINGLE_POINT_ENERGY>  (1072) 
0

>  <NONCOV_INTER_ENERGY_QM>  (1072) 
0

>  <FF_Energy>  (1072) 
-1.83

>  <QM_Energy>  (1072) 
-7.69

>  <source>  (1072) 
ETAM_MBZ

>  <Index>  (1072) 
10679

$$$$
ETAM-pdb1qgj-B-LYS-62:MBZ-pdb1qgj-B-PHE-74
     RDKit          3D

 26 25  0  0  0  0  0  0  0  0999 V2000
   -0.8054   -0.9707   -3.8896 C   0  0  0  0  0  0  0  0  0  0  0  0
   -1.1242   -0.7598   -4.8074 H   0  0  0  0  0  0  0  0  0  0  0  0
   -1.5182   -0.7865   -3.2224 H   0  0  0  0  0  0  0  0  0  0  0  0
   -0.5474   -2.0288   -3.8442 H   0  0  0  0  0  0  0  0  0  0  0  0
    0.3969   -0.0821   -3.5750 C   0  0  0  0  0  0  0  0  0  0  0  0
    0.7372   -0.3100   -2.6637 H   0  0  0  0  0  0  0  0  0  0  0  0
    1.1117   -0.2533   -4.2519 H   0  0  0  0  0  0  0  0  0  0  0  0
    0.0214    1.3645   -3.6121 N   0  0  0  0  0  4  0  0  0  0  0  0
    0.7003    1.8929   -3.1058 H   0  0  0  0  0  0  0  0  0  0  0  0
   -0.0050    1.6723   -4.5616 H   0  0  0  0  0  0  0  0  0  0  0  0
   -0.8775    1.4811   -3.1936 H   0  0  0  0  0  0  0  0  0  0  0  0
    0.0024    2.9098    0.0516 C   0  0  0  0  0  0  0  0  0  0  0  0
   -0.9350    3.2162    0.0906 H   0  0  0  0  0  0  0  0  0  0  0  0
    0.4611    3.2424   -0.7564 H   0  0  0  0  0  0  0  0  0  0  0  0
    0.5223    3.3125    0.9209 H   0  0  0  0  0  0  0  0  0  0  0  0
   -0.0006    1.4057    0.0007 C   0  0  0  0  0  0  0  0  0  0  0  0
   -1.1998    0.6978   -0.0012 C   0  0  0  0  0  0  0  0  0  0  0  0
   -2.0654    1.1869   -0.0045 H   0  0  0  0  0  0  0  0  0  0  0  0
   -1.2052   -0.6976    0.0000 C   0  0  0  0  0  0  0  0  0  0  0  0
   -2.0800   -1.1904    0.0012 H   0  0  0  0  0  0  0  0  0  0  0  0
    0.0019   -1.3979    0.0013 C   0  0  0  0  0  0  0  0  0  0  0  0
   -0.0053   -2.3951    0.0027 H   0  0  0  0  0  0  0  0  0  0  0  0
    1.2052   -0.7016   -0.0000 C   0  0  0  0  0  0  0  0  0  0  0  0
    2.0848   -1.1969    0.0010 H   0  0  0  0  0  0  0  0  0  0  0  0
    1.1985    0.6936   -0.0008 C   0  0  0  0  0  0  0  0  0  0  0  0
    2.0664    1.1895   -0.0033 H   0  0  0  0  0  0  0  0  0  0  0  0
  1  5  1  0
  5  8  1  0
  1  2  1  0
  1  3  1  0
  1  4  1  0
  5  6  1  0
  5  7  1  0
  8  9  1  0
  8 10  1  0
  8 11  1  0
 12 16  1  0
 16 17  2  0
 17 19  1  0
 19 21  2  0
 21 23  1  0
 23 25  2  0
 25 16  1  0
 12 13  1  0
 12 14  1  0
 12 15  1  0
 17 18  1  0
 19 20  1  0
 21 22  1  0
 23 24  1  0
 25 26  1  0
M  CHG  1   8   1
M  END
>  <PDB_ID>  (1073) 
pdb1qgj

>  <RESIDUE_NAME>  (1073) 
LYS   PHE

>  <FRAG_NAME>  (1073) 
ETAM   MBZ

>  <FRAG_ATOM_NUM>  (1073) 
fragi: 11  fragj: 15

>  <atom.prop.CHAIN_ID>  (1073) 
A A A A A A A A A A A Z Z Z Z Z Z Z Z Z Z Z Z Z Z Z

>  <atom.prop.IS_HEAVY_ATOM>  (1073) 
1 0 0 0 1 0 0 1 0 0 0 1 0 0 0 1 1 0 1 0 1 0 1 0 1 0

>  <DIFUSE_FUNC_ATOM>  (1073) 
n/a

>  <FINAL_SINGLE_POINT_ENERGY>  (1073) 
0

>  <NONCOV_INTER_ENERGY_QM>  (1073) 
0

>  <FF_Energy>  (1073) 
-7.3

>  <QM_Energy>  (1073) 
-12.3

>  <source>  (1073) 
ETAM_MBZ

>  <Index>  (1073) 
10688

$$$$
ETAM-pdb1qn3-B-LYS-156:MBZ-pdb1qn3-B-PHE-140
     RDKit          3D

 26 25  0  0  0  0  0  0  0  0999 V2000
   -3.8962   -2.3082   -2.9292 C   0  0  0  0  0  0  0  0  0  0  0  0
   -3.2521   -2.9356   -2.5000 H   0  0  0  0  0  0  0  0  0  0  0  0
   -4.5513   -2.8144   -3.4830 H   0  0  0  0  0  0  0  0  0  0  0  0
   -4.4331   -1.7643   -2.1521 H   0  0  0  0  0  0  0  0  0  0  0  0
   -3.1012   -1.3729   -3.8647 C   0  0  0  0  0  0  0  0  0  0  0  0
   -2.8007   -1.9045   -4.6677 H   0  0  0  0  0  0  0  0  0  0  0  0
   -3.7185   -0.6430   -4.1873 H   0  0  0  0  0  0  0  0  0  0  0  0
   -1.8917   -0.7374   -3.2219 N   0  0  0  0  0  4  0  0  0  0  0  0
   -1.3942   -0.2222   -3.9140 H   0  0  0  0  0  0  0  0  0  0  0  0
   -2.1970   -0.1293   -2.4943 H   0  0  0  0  0  0  0  0  0  0  0  0
   -1.3129   -1.4562   -2.8480 H   0  0  0  0  0  0  0  0  0  0  0  0
   -0.0088    2.8861    0.0204 C   0  0  0  0  0  0  0  0  0  0  0  0
    0.8295    3.1953    0.4497 H   0  0  0  0  0  0  0  0  0  0  0  0
   -0.8006    3.1850    0.5365 H   0  0  0  0  0  0  0  0  0  0  0  0
   -0.0642    3.3485   -0.9650 H   0  0  0  0  0  0  0  0  0  0  0  0
   -0.0001    1.3929   -0.0004 C   0  0  0  0  0  0  0  0  0  0  0  0
   -1.1991    0.6800   -0.0001 C   0  0  0  0  0  0  0  0  0  0  0  0
   -2.0647    1.1788   -0.0011 H   0  0  0  0  0  0  0  0  0  0  0  0
   -1.2067   -0.6982    0.0000 C   0  0  0  0  0  0  0  0  0  0  0  0
   -2.0789   -1.1984    0.0008 H   0  0  0  0  0  0  0  0  0  0  0  0
   -0.0013   -1.3895    0.0012 C   0  0  0  0  0  0  0  0  0  0  0  0
    0.0021   -2.3880    0.0023 H   0  0  0  0  0  0  0  0  0  0  0  0
    1.2067   -0.6864   -0.0000 C   0  0  0  0  0  0  0  0  0  0  0  0
    2.0850   -1.1872    0.0007 H   0  0  0  0  0  0  0  0  0  0  0  0
    1.2005    0.7012   -0.0006 C   0  0  0  0  0  0  0  0  0  0  0  0
    2.0635    1.2012   -0.0014 H   0  0  0  0  0  0  0  0  0  0  0  0
  1  5  1  0
  5  8  1  0
  1  2  1  0
  1  3  1  0
  1  4  1  0
  5  6  1  0
  5  7  1  0
  8  9  1  0
  8 10  1  0
  8 11  1  0
 12 16  1  0
 16 17  2  0
 17 19  1  0
 19 21  2  0
 21 23  1  0
 23 25  2  0
 25 16  1  0
 12 13  1  0
 12 14  1  0
 12 15  1  0
 17 18  1  0
 19 20  1  0
 21 22  1  0
 23 24  1  0
 25 26  1  0
M  CHG  1   8   1
M  END
>  <PDB_ID>  (1074) 
pdb1qn3

>  <RESIDUE_NAME>  (1074) 
LYS   PHE

>  <FRAG_NAME>  (1074) 
ETAM   MBZ

>  <FRAG_ATOM_NUM>  (1074) 
fragi: 11  fragj: 15

>  <atom.prop.CHAIN_ID>  (1074) 
A A A A A A A A A A A Z Z Z Z Z Z Z Z Z Z Z Z Z Z Z

>  <atom.prop.IS_HEAVY_ATOM>  (1074) 
1 0 0 0 1 0 0 1 0 0 0 1 0 0 0 1 1 0 1 0 1 0 1 0 1 0

>  <DIFUSE_FUNC_ATOM>  (1074) 
n/a

>  <FINAL_SINGLE_POINT_ENERGY>  (1074) 
0

>  <NONCOV_INTER_ENERGY_QM>  (1074) 
0

>  <FF_Energy>  (1074) 
-5.1

>  <QM_Energy>  (1074) 
-11.08

>  <source>  (1074) 
ETAM_MBZ

>  <Index>  (1074) 
10732

$$$$
ETAM-pdb1pvd-B-LYS-249:MBZ-pdb1pvd-B-PHE-400
     RDKit          3D

 26 25  0  0  0  0  0  0  0  0999 V2000
    1.5766   -2.1808   -4.0382 C   0  0  0  0  0  0  0  0  0  0  0  0
    1.7867   -2.7629   -4.7984 H   0  0  0  0  0  0  0  0  0  0  0  0
    1.1570   -2.6623   -3.2948 H   0  0  0  0  0  0  0  0  0  0  0  0
    2.4976   -1.7172   -3.6848 H   0  0  0  0  0  0  0  0  0  0  0  0
    0.6132   -1.0789   -4.5145 C   0  0  0  0  0  0  0  0  0  0  0  0
    1.0415   -0.5930   -5.2644 H   0  0  0  0  0  0  0  0  0  0  0  0
   -0.2317   -1.5077   -4.8054 H   0  0  0  0  0  0  0  0  0  0  0  0
    0.3577   -0.1613   -3.3950 N   0  0  0  0  0  4  0  0  0  0  0  0
   -0.6256    0.0208   -3.3210 H   0  0  0  0  0  0  0  0  0  0  0  0
    0.6797   -0.5709   -2.5385 H   0  0  0  0  0  0  0  0  0  0  0  0
    0.8405    0.7044   -3.5465 H   0  0  0  0  0  0  0  0  0  0  0  0
    0.0789    2.9276   -0.0188 C   0  0  0  0  0  0  0  0  0  0  0  0
    0.7914    3.2010   -0.6890 H   0  0  0  0  0  0  0  0  0  0  0  0
    0.4052    3.2190    0.8980 H   0  0  0  0  0  0  0  0  0  0  0  0
   -0.7978    3.5367   -0.2391 H   0  0  0  0  0  0  0  0  0  0  0  0
    0.0020    1.4144   -0.0208 C   0  0  0  0  0  0  0  0  0  0  0  0
   -1.1712    0.7197    0.0052 C   0  0  0  0  0  0  0  0  0  0  0  0
   -2.0516    1.2189    0.0278 H   0  0  0  0  0  0  0  0  0  0  0  0
   -1.2223   -0.6772    0.0000 C   0  0  0  0  0  0  0  0  0  0  0  0
   -2.1099   -1.1408   -0.0256 H   0  0  0  0  0  0  0  0  0  0  0  0
   -0.0373   -1.4077    0.0331 C   0  0  0  0  0  0  0  0  0  0  0  0
   -0.0518   -2.3983    0.0789 H   0  0  0  0  0  0  0  0  0  0  0  0
    1.2223   -0.7293    0.0000 C   0  0  0  0  0  0  0  0  0  0  0  0
    2.0689   -1.2342   -0.0088 H   0  0  0  0  0  0  0  0  0  0  0  0
    1.2065    0.6801   -0.0174 C   0  0  0  0  0  0  0  0  0  0  0  0
    2.0775    1.1764   -0.0283 H   0  0  0  0  0  0  0  0  0  0  0  0
  1  5  1  0
  5  8  1  0
  1  2  1  0
  1  3  1  0
  1  4  1  0
  5  6  1  0
  5  7  1  0
  8  9  1  0
  8 10  1  0
  8 11  1  0
 12 16  1  0
 16 17  2  0
 17 19  1  0
 19 21  2  0
 21 23  1  0
 23 25  2  0
 25 16  1  0
 12 13  1  0
 12 14  1  0
 12 15  1  0
 17 18  1  0
 19 20  1  0
 21 22  1  0
 23 24  1  0
 25 26  1  0
M  CHG  1   8   1
M  END
>  <PDB_ID>  (1075) 
pdb1pvd

>  <RESIDUE_NAME>  (1075) 
LYS   PHE

>  <FRAG_NAME>  (1075) 
ETAM   MBZ

>  <FRAG_ATOM_NUM>  (1075) 
fragi: 11  fragj: 15

>  <atom.prop.CHAIN_ID>  (1075) 
A A A A A A A A A A A Z Z Z Z Z Z Z Z Z Z Z Z Z Z Z

>  <atom.prop.IS_HEAVY_ATOM>  (1075) 
1 0 0 0 1 0 0 1 0 0 0 1 0 0 0 1 1 0 1 0 1 0 1 0 1 0

>  <DIFUSE_FUNC_ATOM>  (1075) 
n/a

>  <FINAL_SINGLE_POINT_ENERGY>  (1075) 
0

>  <NONCOV_INTER_ENERGY_QM>  (1075) 
0

>  <FF_Energy>  (1075) 
-8.66

>  <QM_Energy>  (1075) 
-15.72

>  <source>  (1075) 
ETAM_MBZ

>  <Index>  (1075) 
10733

$$$$
ETAM-pdb1qn2-C-LYS-15:MBZ-pdb1qn2-C-PHE-11
     RDKit          3D

 26 25  0  0  0  0  0  0  0  0999 V2000
    4.6507   -2.2898    1.2996 C   0  0  0  0  0  0  0  0  0  0  0  0
    5.2183   -3.0795    1.4996 H   0  0  0  0  0  0  0  0  0  0  0  0
    3.7631   -2.3770    1.7349 H   0  0  0  0  0  0  0  0  0  0  0  0
    5.1449   -1.3952    1.6787 H   0  0  0  0  0  0  0  0  0  0  0  0
    4.4469   -2.2059   -0.2054 C   0  0  0  0  0  0  0  0  0  0  0  0
    5.1358   -2.7775   -0.6589 H   0  0  0  0  0  0  0  0  0  0  0  0
    3.5339   -2.5580   -0.4305 H   0  0  0  0  0  0  0  0  0  0  0  0
    4.5670   -0.8080   -0.7036 N   0  0  0  0  0  4  0  0  0  0  0  0
    4.0718   -0.7202   -1.5672 H   0  0  0  0  0  0  0  0  0  0  0  0
    4.1782   -0.1812   -0.0283 H   0  0  0  0  0  0  0  0  0  0  0  0
    5.5309   -0.5892   -0.8476 H   0  0  0  0  0  0  0  0  0  0  0  0
   -0.0254    2.8977   -0.0184 C   0  0  0  0  0  0  0  0  0  0  0  0
   -0.7929    3.1852   -0.5788 H   0  0  0  0  0  0  0  0  0  0  0  0
    0.8317    3.2072   -0.4147 H   0  0  0  0  0  0  0  0  0  0  0  0
   -0.1301    3.3787    0.9542 H   0  0  0  0  0  0  0  0  0  0  0  0
   -0.0087    1.3977    0.0145 C   0  0  0  0  0  0  0  0  0  0  0  0
   -1.1885    0.6768   -0.0204 C   0  0  0  0  0  0  0  0  0  0  0  0
   -2.0639    1.1701   -0.0627 H   0  0  0  0  0  0  0  0  0  0  0  0
   -1.1971   -0.6976   -0.0000 C   0  0  0  0  0  0  0  0  0  0  0  0
   -2.0689   -1.1982    0.0162 H   0  0  0  0  0  0  0  0  0  0  0  0
    0.0071   -1.3893   -0.0000 C   0  0  0  0  0  0  0  0  0  0  0  0
    0.0044   -2.3881   -0.0004 H   0  0  0  0  0  0  0  0  0  0  0  0
    1.1971   -0.6890    0.0000 C   0  0  0  0  0  0  0  0  0  0  0  0
    2.0843   -1.1819   -0.0027 H   0  0  0  0  0  0  0  0  0  0  0  0
    1.1901    0.7013    0.0059 C   0  0  0  0  0  0  0  0  0  0  0  0
    2.0552    1.1993    0.0024 H   0  0  0  0  0  0  0  0  0  0  0  0
  1  5  1  0
  5  8  1  0
  1  2  1  0
  1  3  1  0
  1  4  1  0
  5  6  1  0
  5  7  1  0
  8  9  1  0
  8 10  1  0
  8 11  1  0
 12 16  1  0
 16 17  2  0
 17 19  1  0
 19 21  2  0
 21 23  1  0
 23 25  2  0
 25 16  1  0
 12 13  1  0
 12 14  1  0
 12 15  1  0
 17 18  1  0
 19 20  1  0
 21 22  1  0
 23 24  1  0
 25 26  1  0
M  CHG  1   8   1
M  END
>  <PDB_ID>  (1076) 
pdb1qn2

>  <RESIDUE_NAME>  (1076) 
LYS   PHE

>  <FRAG_NAME>  (1076) 
ETAM   MBZ

>  <FRAG_ATOM_NUM>  (1076) 
fragi: 11  fragj: 15

>  <atom.prop.CHAIN_ID>  (1076) 
A A A A A A A A A A A Z Z Z Z Z Z Z Z Z Z Z Z Z Z Z

>  <atom.prop.IS_HEAVY_ATOM>  (1076) 
1 0 0 0 1 0 0 1 0 0 0 1 0 0 0 1 1 0 1 0 1 0 1 0 1 0

>  <DIFUSE_FUNC_ATOM>  (1076) 
n/a

>  <FINAL_SINGLE_POINT_ENERGY>  (1076) 
0

>  <NONCOV_INTER_ENERGY_QM>  (1076) 
0

>  <FF_Energy>  (1076) 
2.23

>  <QM_Energy>  (1076) 
-3.95

>  <source>  (1076) 
ETAM_MBZ

>  <Index>  (1076) 
10745

$$$$
ETAM-pdb1qo8-D-LYS-365:MBZ-pdb1qo8-D-PHE-411
     RDKit          3D

 26 25  0  0  0  0  0  0  0  0999 V2000
    1.6056    2.3784   -3.3942 C   0  0  0  0  0  0  0  0  0  0  0  0
    1.1628    2.7988   -2.5852 H   0  0  0  0  0  0  0  0  0  0  0  0
    0.9948    1.6414   -3.7261 H   0  0  0  0  0  0  0  0  0  0  0  0
    1.6887    3.1353   -4.1742 H   0  0  0  0  0  0  0  0  0  0  0  0
    2.9103    1.7512   -2.9497 C   0  0  0  0  0  0  0  0  0  0  0  0
    2.7586    0.7707   -2.7689 H   0  0  0  0  0  0  0  0  0  0  0  0
    3.5847    1.8298   -3.6963 H   0  0  0  0  0  0  0  0  0  0  0  0
    3.4745    2.3866   -1.7228 N   0  0  0  0  0  4  0  0  0  0  0  0
    2.7269    2.7321   -1.1569 H   0  0  0  0  0  0  0  0  0  0  0  0
    3.9977    1.7070   -1.2106 H   0  0  0  0  0  0  0  0  0  0  0  0
    4.0727    3.1421   -1.9880 H   0  0  0  0  0  0  0  0  0  0  0  0
   -0.0258    2.8894   -0.0251 C   0  0  0  0  0  0  0  0  0  0  0  0
   -0.6956    3.1688   -0.7323 H   0  0  0  0  0  0  0  0  0  0  0  0
    0.8881    3.1977   -0.3344 H   0  0  0  0  0  0  0  0  0  0  0  0
   -0.2659    3.4287    0.8912 H   0  0  0  0  0  0  0  0  0  0  0  0
   -0.0049    1.3934    0.0026 C   0  0  0  0  0  0  0  0  0  0  0  0
   -1.1953    0.6811   -0.0028 C   0  0  0  0  0  0  0  0  0  0  0  0
   -2.0648    1.1719   -0.0097 H   0  0  0  0  0  0  0  0  0  0  0  0
   -1.1973   -0.7026   -0.0000 C   0  0  0  0  0  0  0  0  0  0  0  0
   -2.0728   -1.2006    0.0035 H   0  0  0  0  0  0  0  0  0  0  0  0
    0.0028   -1.3934   -0.0008 C   0  0  0  0  0  0  0  0  0  0  0  0
    0.0092   -2.3883   -0.0024 H   0  0  0  0  0  0  0  0  0  0  0  0
    1.1973   -0.6816    0.0000 C   0  0  0  0  0  0  0  0  0  0  0  0
    2.0848   -1.1825    0.0012 H   0  0  0  0  0  0  0  0  0  0  0  0
    1.1974    0.7031    0.0009 C   0  0  0  0  0  0  0  0  0  0  0  0
    2.0579    1.2023   -0.0003 H   0  0  0  0  0  0  0  0  0  0  0  0
  1  5  1  0
  5  8  1  0
  1  2  1  0
  1  3  1  0
  1  4  1  0
  5  6  1  0
  5  7  1  0
  8  9  1  0
  8 10  1  0
  8 11  1  0
 12 16  1  0
 16 17  2  0
 17 19  1  0
 19 21  2  0
 21 23  1  0
 23 25  2  0
 25 16  1  0
 12 13  1  0
 12 14  1  0
 12 15  1  0
 17 18  1  0
 19 20  1  0
 21 22  1  0
 23 24  1  0
 25 26  1  0
M  CHG  1   8   1
M  END
>  <PDB_ID>  (1077) 
pdb1qo8

>  <RESIDUE_NAME>  (1077) 
LYS   PHE

>  <FRAG_NAME>  (1077) 
ETAM   MBZ

>  <FRAG_ATOM_NUM>  (1077) 
fragi: 11  fragj: 15

>  <atom.prop.CHAIN_ID>  (1077) 
A A A A A A A A A A A Z Z Z Z Z Z Z Z Z Z Z Z Z Z Z

>  <atom.prop.IS_HEAVY_ATOM>  (1077) 
1 0 0 0 1 0 0 1 0 0 0 1 0 0 0 1 1 0 1 0 1 0 1 0 1 0

>  <DIFUSE_FUNC_ATOM>  (1077) 
n/a

>  <FINAL_SINGLE_POINT_ENERGY>  (1077) 
0

>  <NONCOV_INTER_ENERGY_QM>  (1077) 
0

>  <FF_Energy>  (1077) 
-0.21

>  <QM_Energy>  (1077) 
-5.44

>  <source>  (1077) 
ETAM_MBZ

>  <Index>  (1077) 
10754

$$$$
ETAM-pdb1qor-A-ALA-2:MBZ-pdb1qor-A-PHE-21
     RDKit          3D

 26 25  0  0  0  0  0  0  0  0999 V2000
   -1.8923   -1.6060   -2.9813 C   0  0  0  0  0  0  0  0  0  0  0  0
   -2.2139   -2.5174   -2.7225 H   0  0  0  0  0  0  0  0  0  0  0  0
   -1.2034   -1.6912   -3.7012 H   0  0  0  0  0  0  0  0  0  0  0  0
   -1.4845   -1.1607   -2.1841 H   0  0  0  0  0  0  0  0  0  0  0  0
   -3.0597   -0.7781   -3.4869 C   0  0  0  0  0  0  0  0  0  0  0  0
   -3.7147   -1.3256   -3.9847 H   0  0  0  0  0  0  0  0  0  0  0  0
   -3.5624   -0.2653   -2.6668 H   0  0  0  0  0  0  0  0  0  0  0  0
   -2.5475    0.2779   -4.3975 N   0  0  0  0  0  4  0  0  0  0  0  0
   -2.9659    0.1692   -5.2969 H   0  0  0  0  0  0  0  0  0  0  0  0
   -2.7794    1.1742   -4.0253 H   0  0  0  0  0  0  0  0  0  0  0  0
   -1.5567    0.1922   -4.4761 H   0  0  0  0  0  0  0  0  0  0  0  0
   -0.0033    2.9092   -0.0781 C   0  0  0  0  0  0  0  0  0  0  0  0
    0.9285    3.2189    0.0324 H   0  0  0  0  0  0  0  0  0  0  0  0
   -0.5846    3.2498    0.6450 H   0  0  0  0  0  0  0  0  0  0  0  0
   -0.3780    3.2997   -1.0243 H   0  0  0  0  0  0  0  0  0  0  0  0
   -0.0035    1.4053   -0.0014 C   0  0  0  0  0  0  0  0  0  0  0  0
   -1.2105    0.6886    0.0024 C   0  0  0  0  0  0  0  0  0  0  0  0
   -2.0717    1.1793    0.0056 H   0  0  0  0  0  0  0  0  0  0  0  0
   -1.2019   -0.6962   -0.0000 C   0  0  0  0  0  0  0  0  0  0  0  0
   -2.0715   -1.2046    0.0022 H   0  0  0  0  0  0  0  0  0  0  0  0
    0.0139   -1.3944   -0.0039 C   0  0  0  0  0  0  0  0  0  0  0  0
    0.0014   -2.3931   -0.0102 H   0  0  0  0  0  0  0  0  0  0  0  0
    1.2019   -0.7004    0.0000 C   0  0  0  0  0  0  0  0  0  0  0  0
    2.0907   -1.1910    0.0019 H   0  0  0  0  0  0  0  0  0  0  0  0
    1.2000    0.6970    0.0029 C   0  0  0  0  0  0  0  0  0  0  0  0
    2.0648    1.1915    0.0071 H   0  0  0  0  0  0  0  0  0  0  0  0
  1  5  1  0
  5  8  1  0
  1  2  1  0
  1  3  1  0
  1  4  1  0
  5  6  1  0
  5  7  1  0
  8  9  1  0
  8 10  1  0
  8 11  1  0
 12 16  1  0
 16 17  2  0
 17 19  1  0
 19 21  2  0
 21 23  1  0
 23 25  2  0
 25 16  1  0
 12 13  1  0
 12 14  1  0
 12 15  1  0
 17 18  1  0
 19 20  1  0
 21 22  1  0
 23 24  1  0
 25 26  1  0
M  CHG  1   8   1
M  END
>  <PDB_ID>  (1078) 
pdb1qor

>  <RESIDUE_NAME>  (1078) 
ALA   PHE

>  <FRAG_NAME>  (1078) 
ETAM   MBZ

>  <FRAG_ATOM_NUM>  (1078) 
fragi: 11  fragj: 15

>  <atom.prop.CHAIN_ID>  (1078) 
A A A A A A A A A A A Z Z Z Z Z Z Z Z Z Z Z Z Z Z Z

>  <atom.prop.IS_HEAVY_ATOM>  (1078) 
1 0 0 0 1 0 0 1 0 0 0 1 0 0 0 1 1 0 1 0 1 0 1 0 1 0

>  <DIFUSE_FUNC_ATOM>  (1078) 
n/a

>  <FINAL_SINGLE_POINT_ENERGY>  (1078) 
0

>  <NONCOV_INTER_ENERGY_QM>  (1078) 
0

>  <FF_Energy>  (1078) 
1.27

>  <QM_Energy>  (1078) 
-4.14

>  <source>  (1078) 
ETAM_MBZ

>  <Index>  (1078) 
10756

$$$$
ETAM-pdb1qjb-A-LYS-157:MBZ-pdb1qjb-A-PHE-153
     RDKit          3D

 26 25  0  0  0  0  0  0  0  0999 V2000
    1.2593   -1.7148    3.7893 C   0  0  0  0  0  0  0  0  0  0  0  0
    1.8394   -1.3026    3.1074 H   0  0  0  0  0  0  0  0  0  0  0  0
    1.7831   -2.1520    4.5009 H   0  0  0  0  0  0  0  0  0  0  0  0
    0.6352   -0.9403    4.2351 H   0  0  0  0  0  0  0  0  0  0  0  0
    0.3773   -2.7622    3.1152 C   0  0  0  0  0  0  0  0  0  0  0  0
   -0.5527   -2.7126    3.5238 H   0  0  0  0  0  0  0  0  0  0  0  0
    0.2785   -2.5168    2.1324 H   0  0  0  0  0  0  0  0  0  0  0  0
    0.8695   -4.1692    3.2114 N   0  0  0  0  0  4  0  0  0  0  0  0
    1.0741   -4.3816    4.1650 H   0  0  0  0  0  0  0  0  0  0  0  0
    0.1636   -4.7881    2.8723 H   0  0  0  0  0  0  0  0  0  0  0  0
    1.6965   -4.2676    2.6598 H   0  0  0  0  0  0  0  0  0  0  0  0
   -0.0024    2.8884    0.0013 C   0  0  0  0  0  0  0  0  0  0  0  0
   -0.5648    3.2066   -0.7621 H   0  0  0  0  0  0  0  0  0  0  0  0
    0.9410    3.1928   -0.1291 H   0  0  0  0  0  0  0  0  0  0  0  0
   -0.3775    3.3675    0.9056 H   0  0  0  0  0  0  0  0  0  0  0  0
   -0.0130    1.3941   -0.0073 C   0  0  0  0  0  0  0  0  0  0  0  0
   -1.1870    0.6873    0.0139 C   0  0  0  0  0  0  0  0  0  0  0  0
   -2.0648    1.1763    0.0388 H   0  0  0  0  0  0  0  0  0  0  0  0
   -1.1971   -0.6927   -0.0000 C   0  0  0  0  0  0  0  0  0  0  0  0
   -2.0735   -1.1884   -0.0110 H   0  0  0  0  0  0  0  0  0  0  0  0
    0.0019   -1.3905    0.0029 C   0  0  0  0  0  0  0  0  0  0  0  0
    0.0004   -2.3866    0.0059 H   0  0  0  0  0  0  0  0  0  0  0  0
    1.1971   -0.6875   -0.0000 C   0  0  0  0  0  0  0  0  0  0  0  0
    2.0814   -1.1928    0.0064 H   0  0  0  0  0  0  0  0  0  0  0  0
    1.1981    0.6893   -0.0094 C   0  0  0  0  0  0  0  0  0  0  0  0
    2.0564    1.1952   -0.0186 H   0  0  0  0  0  0  0  0  0  0  0  0
  1  5  1  0
  5  8  1  0
  1  2  1  0
  1  3  1  0
  1  4  1  0
  5  6  1  0
  5  7  1  0
  8  9  1  0
  8 10  1  0
  8 11  1  0
 12 16  1  0
 16 17  2  0
 17 19  1  0
 19 21  2  0
 21 23  1  0
 23 25  2  0
 25 16  1  0
 12 13  1  0
 12 14  1  0
 12 15  1  0
 17 18  1  0
 19 20  1  0
 21 22  1  0
 23 24  1  0
 25 26  1  0
M  CHG  1   8   1
M  END
>  <PDB_ID>  (1079) 
pdb1qjb

>  <RESIDUE_NAME>  (1079) 
LYS   PHE

>  <FRAG_NAME>  (1079) 
ETAM   MBZ

>  <FRAG_ATOM_NUM>  (1079) 
fragi: 11  fragj: 15

>  <atom.prop.CHAIN_ID>  (1079) 
A A A A A A A A A A A Z Z Z Z Z Z Z Z Z Z Z Z Z Z Z

>  <atom.prop.IS_HEAVY_ATOM>  (1079) 
1 0 0 0 1 0 0 1 0 0 0 1 0 0 0 1 1 0 1 0 1 0 1 0 1 0

>  <DIFUSE_FUNC_ATOM>  (1079) 
n/a

>  <FINAL_SINGLE_POINT_ENERGY>  (1079) 
0

>  <NONCOV_INTER_ENERGY_QM>  (1079) 
0

>  <FF_Energy>  (1079) 
-0.32

>  <QM_Energy>  (1079) 
-5.47

>  <source>  (1079) 
ETAM_MBZ

>  <Index>  (1079) 
10770

$$$$
ETAM-pdb2wxf-A-LYS-631:MBZ-pdb2wxf-A-PHE-146
     RDKit          3D

 26 25  0  0  0  0  0  0  0  0999 V2000
   -0.4473   -0.5527   -3.2252 C   0  0  0  0  0  0  0  0  0  0  0  0
   -0.5782   -0.7759   -2.2697 H   0  0  0  0  0  0  0  0  0  0  0  0
    0.2461    0.1450   -3.3377 H   0  0  0  0  0  0  0  0  0  0  0  0
   -0.1425   -1.4506   -3.7627 H   0  0  0  0  0  0  0  0  0  0  0  0
   -1.7384   -0.0547   -3.7925 C   0  0  0  0  0  0  0  0  0  0  0  0
   -2.2134   -0.8010   -4.2588 H   0  0  0  0  0  0  0  0  0  0  0  0
   -2.3167    0.2995   -3.0572 H   0  0  0  0  0  0  0  0  0  0  0  0
   -1.4908    1.0437   -4.7777 N   0  0  0  0  0  4  0  0  0  0  0  0
   -1.9998    0.8537   -5.6148 H   0  0  0  0  0  0  0  0  0  0  0  0
   -1.7954    1.9099   -4.3861 H   0  0  0  0  0  0  0  0  0  0  0  0
   -0.5146    1.0890   -4.9790 H   0  0  0  0  0  0  0  0  0  0  0  0
   -0.0263    2.8928    0.0008 C   0  0  0  0  0  0  0  0  0  0  0  0
   -0.6544    3.1999   -0.6973 H   0  0  0  0  0  0  0  0  0  0  0  0
    0.8920    3.2140   -0.1731 H   0  0  0  0  0  0  0  0  0  0  0  0
   -0.3505    3.3260    0.9470 H   0  0  0  0  0  0  0  0  0  0  0  0
   -0.0115    1.3966   -0.0041 C   0  0  0  0  0  0  0  0  0  0  0  0
   -1.2079    0.6827   -0.0076 C   0  0  0  0  0  0  0  0  0  0  0  0
   -2.0743    1.1793   -0.0171 H   0  0  0  0  0  0  0  0  0  0  0  0
   -1.2117   -0.6944    0.0000 C   0  0  0  0  0  0  0  0  0  0  0  0
   -2.0693   -1.2071   -0.0012 H   0  0  0  0  0  0  0  0  0  0  0  0
    0.0233   -1.3945    0.0123 C   0  0  0  0  0  0  0  0  0  0  0  0
    0.0113   -2.3885    0.0294 H   0  0  0  0  0  0  0  0  0  0  0  0
    1.2117   -0.6900   -0.0000 C   0  0  0  0  0  0  0  0  0  0  0  0
    2.1001   -1.1789   -0.0068 H   0  0  0  0  0  0  0  0  0  0  0  0
    1.1961    0.6996   -0.0007 C   0  0  0  0  0  0  0  0  0  0  0  0
    2.0570    1.2049    0.0007 H   0  0  0  0  0  0  0  0  0  0  0  0
  1  5  1  0
  5  8  1  0
  1  2  1  0
  1  3  1  0
  1  4  1  0
  5  6  1  0
  5  7  1  0
  8  9  1  0
  8 10  1  0
  8 11  1  0
 12 16  1  0
 16 17  2  0
 17 19  1  0
 19 21  2  0
 21 23  1  0
 23 25  2  0
 25 16  1  0
 12 13  1  0
 12 14  1  0
 12 15  1  0
 17 18  1  0
 19 20  1  0
 21 22  1  0
 23 24  1  0
 25 26  1  0
M  CHG  1   8   1
M  END
>  <PDB_ID>  (1080) 
pdb2wxf

>  <RESIDUE_NAME>  (1080) 
LYS   PHE

>  <FRAG_NAME>  (1080) 
ETAM   MBZ

>  <FRAG_ATOM_NUM>  (1080) 
fragi: 11  fragj: 15

>  <atom.prop.CHAIN_ID>  (1080) 
A A A A A A A A A A A Z Z Z Z Z Z Z Z Z Z Z Z Z Z Z

>  <atom.prop.IS_HEAVY_ATOM>  (1080) 
1 0 0 0 1 0 0 1 0 0 0 1 0 0 0 1 1 0 1 0 1 0 1 0 1 0

>  <DIFUSE_FUNC_ATOM>  (1080) 
n/a

>  <FINAL_SINGLE_POINT_ENERGY>  (1080) 
0

>  <NONCOV_INTER_ENERGY_QM>  (1080) 
0

>  <FF_Energy>  (1080) 
-0.79

>  <QM_Energy>  (1080) 
-6.41

>  <source>  (1080) 
ETAM_MBZ

>  <Index>  (1080) 
10782

$$$$
ETAM-pdb2wv3-A-LYS-129:MBZ-pdb2wv3-A-PHE-134
     RDKit          3D

 26 25  0  0  0  0  0  0  0  0999 V2000
    0.4515   -0.3968   -3.3081 C   0  0  0  0  0  0  0  0  0  0  0  0
    0.5529    0.5778   -3.4821 H   0  0  0  0  0  0  0  0  0  0  0  0
    0.3620   -0.5648   -2.3306 H   0  0  0  0  0  0  0  0  0  0  0  0
   -0.4454   -0.7546   -3.8138 H   0  0  0  0  0  0  0  0  0  0  0  0
    1.7050   -1.1092   -3.8065 C   0  0  0  0  0  0  0  0  0  0  0  0
    1.7495   -1.0234   -4.8075 H   0  0  0  0  0  0  0  0  0  0  0  0
    2.5126   -0.6571   -3.4124 H   0  0  0  0  0  0  0  0  0  0  0  0
    1.7274   -2.5547   -3.4390 N   0  0  0  0  0  4  0  0  0  0  0  0
    2.4016   -3.0281   -4.0035 H   0  0  0  0  0  0  0  0  0  0  0  0
    1.9733   -2.6461   -2.4745 H   0  0  0  0  0  0  0  0  0  0  0  0
    0.8228   -2.9484   -3.5948 H   0  0  0  0  0  0  0  0  0  0  0  0
   -0.0035    2.8972   -0.0048 C   0  0  0  0  0  0  0  0  0  0  0  0
    0.9167    3.2065    0.1768 H   0  0  0  0  0  0  0  0  0  0  0  0
   -0.6331    3.2046    0.6910 H   0  0  0  0  0  0  0  0  0  0  0  0
   -0.3193    3.3295   -0.9543 H   0  0  0  0  0  0  0  0  0  0  0  0
   -0.0001    1.3953   -0.0000 C   0  0  0  0  0  0  0  0  0  0  0  0
   -1.1931    0.6886    0.0004 C   0  0  0  0  0  0  0  0  0  0  0  0
   -2.0605    1.1797   -0.0008 H   0  0  0  0  0  0  0  0  0  0  0  0
   -1.1968   -0.6961   -0.0000 C   0  0  0  0  0  0  0  0  0  0  0  0
   -2.0735   -1.1916    0.0036 H   0  0  0  0  0  0  0  0  0  0  0  0
    0.0017   -1.3856   -0.0034 C   0  0  0  0  0  0  0  0  0  0  0  0
   -0.0009   -2.3881   -0.0092 H   0  0  0  0  0  0  0  0  0  0  0  0
    1.1968   -0.6926    0.0000 C   0  0  0  0  0  0  0  0  0  0  0  0
    2.0799   -1.1912    0.0014 H   0  0  0  0  0  0  0  0  0  0  0  0
    1.1915    0.6903    0.0031 C   0  0  0  0  0  0  0  0  0  0  0  0
    2.0612    1.1890    0.0071 H   0  0  0  0  0  0  0  0  0  0  0  0
  1  5  1  0
  5  8  1  0
  1  2  1  0
  1  3  1  0
  1  4  1  0
  5  6  1  0
  5  7  1  0
  8  9  1  0
  8 10  1  0
  8 11  1  0
 12 16  1  0
 16 17  2  0
 17 19  1  0
 19 21  2  0
 21 23  1  0
 23 25  2  0
 25 16  1  0
 12 13  1  0
 12 14  1  0
 12 15  1  0
 17 18  1  0
 19 20  1  0
 21 22  1  0
 23 24  1  0
 25 26  1  0
M  CHG  1   8   1
M  END
>  <PDB_ID>  (1081) 
pdb2wv3

>  <RESIDUE_NAME>  (1081) 
LYS   PHE

>  <FRAG_NAME>  (1081) 
ETAM   MBZ

>  <FRAG_ATOM_NUM>  (1081) 
fragi: 11  fragj: 15

>  <atom.prop.CHAIN_ID>  (1081) 
A A A A A A A A A A A Z Z Z Z Z Z Z Z Z Z Z Z Z Z Z

>  <atom.prop.IS_HEAVY_ATOM>  (1081) 
1 0 0 0 1 0 0 1 0 0 0 1 0 0 0 1 1 0 1 0 1 0 1 0 1 0

>  <DIFUSE_FUNC_ATOM>  (1081) 
n/a

>  <FINAL_SINGLE_POINT_ENERGY>  (1081) 
0

>  <NONCOV_INTER_ENERGY_QM>  (1081) 
0

>  <FF_Energy>  (1081) 
-1.55

>  <QM_Energy>  (1081) 
-8.12

>  <source>  (1081) 
ETAM_MBZ

>  <Index>  (1081) 
10793

$$$$
ETAM-pdb2ww8-A-LYS-361:MBZ-pdb2ww8-A-PHE-285
     RDKit          3D

 26 25  0  0  0  0  0  0  0  0999 V2000
   -0.9259   -4.0542   -4.8127 C   0  0  0  0  0  0  0  0  0  0  0  0
   -0.6197   -4.7320   -4.1821 H   0  0  0  0  0  0  0  0  0  0  0  0
   -0.2473   -3.3936   -5.0414 H   0  0  0  0  0  0  0  0  0  0  0  0
   -1.2503   -4.5515   -5.7267 H   0  0  0  0  0  0  0  0  0  0  0  0
   -2.1471   -3.3084   -4.1807 C   0  0  0  0  0  0  0  0  0  0  0  0
   -2.4690   -2.6334   -4.8401 H   0  0  0  0  0  0  0  0  0  0  0  0
   -2.8618   -3.9817   -4.0076 H   0  0  0  0  0  0  0  0  0  0  0  0
   -1.7718   -2.6294   -2.9047 N   0  0  0  0  0  4  0  0  0  0  0  0
   -1.9931   -1.6574   -2.9720 H   0  0  0  0  0  0  0  0  0  0  0  0
   -2.2823   -3.0399   -2.1505 H   0  0  0  0  0  0  0  0  0  0  0  0
   -0.7913   -2.7416   -2.7485 H   0  0  0  0  0  0  0  0  0  0  0  0
   -0.0107    2.8985    0.0821 C   0  0  0  0  0  0  0  0  0  0  0  0
   -0.5901    3.2303   -0.6353 H   0  0  0  0  0  0  0  0  0  0  0  0
    0.9107    3.2233    0.0068 H   0  0  0  0  0  0  0  0  0  0  0  0
   -0.4143    3.2543    1.0301 H   0  0  0  0  0  0  0  0  0  0  0  0
    0.0135    1.3938    0.0095 C   0  0  0  0  0  0  0  0  0  0  0  0
   -1.1947    0.6933    0.0174 C   0  0  0  0  0  0  0  0  0  0  0  0
   -2.0535    1.1985    0.0345 H   0  0  0  0  0  0  0  0  0  0  0  0
   -1.2116   -0.6852   -0.0000 C   0  0  0  0  0  0  0  0  0  0  0  0
   -2.0937   -1.1758    0.0034 H   0  0  0  0  0  0  0  0  0  0  0  0
   -0.0210   -1.3924   -0.0207 C   0  0  0  0  0  0  0  0  0  0  0  0
   -0.0241   -2.3884   -0.0506 H   0  0  0  0  0  0  0  0  0  0  0  0
    1.2116   -0.7010    0.0000 C   0  0  0  0  0  0  0  0  0  0  0  0
    2.0743   -1.2073    0.0202 H   0  0  0  0  0  0  0  0  0  0  0  0
    1.2022    0.6916   -0.0062 C   0  0  0  0  0  0  0  0  0  0  0  0
    2.0741    1.1867   -0.0230 H   0  0  0  0  0  0  0  0  0  0  0  0
  1  5  1  0
  5  8  1  0
  1  2  1  0
  1  3  1  0
  1  4  1  0
  5  6  1  0
  5  7  1  0
  8  9  1  0
  8 10  1  0
  8 11  1  0
 12 16  1  0
 16 17  2  0
 17 19  1  0
 19 21  2  0
 21 23  1  0
 23 25  2  0
 25 16  1  0
 12 13  1  0
 12 14  1  0
 12 15  1  0
 17 18  1  0
 19 20  1  0
 21 22  1  0
 23 24  1  0
 25 26  1  0
M  CHG  1   8   1
M  END
>  <PDB_ID>  (1082) 
pdb2ww8

>  <RESIDUE_NAME>  (1082) 
LYS   PHE

>  <FRAG_NAME>  (1082) 
ETAM   MBZ

>  <FRAG_ATOM_NUM>  (1082) 
fragi: 11  fragj: 15

>  <atom.prop.CHAIN_ID>  (1082) 
A A A A A A A A A A A Z Z Z Z Z Z Z Z Z Z Z Z Z Z Z

>  <atom.prop.IS_HEAVY_ATOM>  (1082) 
1 0 0 0 1 0 0 1 0 0 0 1 0 0 0 1 1 0 1 0 1 0 1 0 1 0

>  <DIFUSE_FUNC_ATOM>  (1082) 
n/a

>  <FINAL_SINGLE_POINT_ENERGY>  (1082) 
0

>  <NONCOV_INTER_ENERGY_QM>  (1082) 
0

>  <FF_Energy>  (1082) 
-2.16

>  <QM_Energy>  (1082) 
-7.77

>  <source>  (1082) 
ETAM_MBZ

>  <Index>  (1082) 
10800

$$$$
ETAM-pdb2wya-A-LYS-473:MBZ-pdb2wya-A-PHE-470
     RDKit          3D

 26 25  0  0  0  0  0  0  0  0999 V2000
   -2.8028    0.6107   -2.7730 C   0  0  0  0  0  0  0  0  0  0  0  0
   -2.0244    0.9981   -2.2745 H   0  0  0  0  0  0  0  0  0  0  0  0
   -3.3968    0.1260   -2.1276 H   0  0  0  0  0  0  0  0  0  0  0  0
   -3.3680    1.4254   -3.2256 H   0  0  0  0  0  0  0  0  0  0  0  0
   -2.2833   -0.3790   -3.7882 C   0  0  0  0  0  0  0  0  0  0  0  0
   -3.0558   -0.7746   -4.2863 H   0  0  0  0  0  0  0  0  0  0  0  0
   -1.6831    0.0966   -4.4341 H   0  0  0  0  0  0  0  0  0  0  0  0
   -1.5219   -1.4656   -3.1254 N   0  0  0  0  0  4  0  0  0  0  0  0
   -1.2950   -2.1718   -3.7954 H   0  0  0  0  0  0  0  0  0  0  0  0
   -0.6798   -1.0936   -2.7351 H   0  0  0  0  0  0  0  0  0  0  0  0
   -2.0784   -1.8665   -2.3963 H   0  0  0  0  0  0  0  0  0  0  0  0
   -0.0053    2.8910   -0.0015 C   0  0  0  0  0  0  0  0  0  0  0  0
    0.8402    3.2018    0.4085 H   0  0  0  0  0  0  0  0  0  0  0  0
   -0.7893    3.1963    0.5201 H   0  0  0  0  0  0  0  0  0  0  0  0
   -0.0756    3.3330   -0.9954 H   0  0  0  0  0  0  0  0  0  0  0  0
    0.0004    1.3928   -0.0018 C   0  0  0  0  0  0  0  0  0  0  0  0
   -1.1920    0.6869   -0.0012 C   0  0  0  0  0  0  0  0  0  0  0  0
   -2.0593    1.1815   -0.0031 H   0  0  0  0  0  0  0  0  0  0  0  0
   -1.1973   -0.6920   -0.0000 C   0  0  0  0  0  0  0  0  0  0  0  0
   -2.0745   -1.1901    0.0017 H   0  0  0  0  0  0  0  0  0  0  0  0
    0.0007   -1.3865    0.0015 C   0  0  0  0  0  0  0  0  0  0  0  0
   -0.0025   -2.3858    0.0031 H   0  0  0  0  0  0  0  0  0  0  0  0
    1.1973   -0.6908    0.0000 C   0  0  0  0  0  0  0  0  0  0  0  0
    2.0797   -1.1908   -0.0012 H   0  0  0  0  0  0  0  0  0  0  0  0
    1.1908    0.6896    0.0015 C   0  0  0  0  0  0  0  0  0  0  0  0
    2.0604    1.1891    0.0047 H   0  0  0  0  0  0  0  0  0  0  0  0
  1  5  1  0
  5  8  1  0
  1  2  1  0
  1  3  1  0
  1  4  1  0
  5  6  1  0
  5  7  1  0
  8  9  1  0
  8 10  1  0
  8 11  1  0
 12 16  1  0
 16 17  2  0
 17 19  1  0
 19 21  2  0
 21 23  1  0
 23 25  2  0
 25 16  1  0
 12 13  1  0
 12 14  1  0
 12 15  1  0
 17 18  1  0
 19 20  1  0
 21 22  1  0
 23 24  1  0
 25 26  1  0
M  CHG  1   8   1
M  END
>  <PDB_ID>  (1083) 
pdb2wya

>  <RESIDUE_NAME>  (1083) 
LYS   PHE

>  <FRAG_NAME>  (1083) 
ETAM   MBZ

>  <FRAG_ATOM_NUM>  (1083) 
fragi: 11  fragj: 15

>  <atom.prop.CHAIN_ID>  (1083) 
A A A A A A A A A A A Z Z Z Z Z Z Z Z Z Z Z Z Z Z Z

>  <atom.prop.IS_HEAVY_ATOM>  (1083) 
1 0 0 0 1 0 0 1 0 0 0 1 0 0 0 1 1 0 1 0 1 0 1 0 1 0

>  <DIFUSE_FUNC_ATOM>  (1083) 
n/a

>  <FINAL_SINGLE_POINT_ENERGY>  (1083) 
0

>  <NONCOV_INTER_ENERGY_QM>  (1083) 
0

>  <FF_Energy>  (1083) 
-3.63

>  <QM_Energy>  (1083) 
-10.35

>  <source>  (1083) 
ETAM_MBZ

>  <Index>  (1083) 
10801

$$$$
ETAM-pdb2wya-C-LYS-473:MBZ-pdb2wya-C-PHE-470
     RDKit          3D

 26 25  0  0  0  0  0  0  0  0999 V2000
   -2.0852    1.1830   -2.6715 C   0  0  0  0  0  0  0  0  0  0  0  0
   -1.8208    1.3972   -1.7296 H   0  0  0  0  0  0  0  0  0  0  0  0
   -2.6952    0.3894   -2.6713 H   0  0  0  0  0  0  0  0  0  0  0  0
   -2.6211    2.0366   -3.0868 H   0  0  0  0  0  0  0  0  0  0  0  0
   -0.8413    0.8375   -3.4563 C   0  0  0  0  0  0  0  0  0  0  0  0
   -1.0976    0.6174   -4.3984 H   0  0  0  0  0  0  0  0  0  0  0  0
   -0.2232    1.6252   -3.4567 H   0  0  0  0  0  0  0  0  0  0  0  0
   -0.1466   -0.3272   -2.8545 N   0  0  0  0  0  4  0  0  0  0  0  0
    0.0425   -1.0068   -3.5634 H   0  0  0  0  0  0  0  0  0  0  0  0
    0.7142   -0.0270   -2.4425 H   0  0  0  0  0  0  0  0  0  0  0  0
   -0.7275   -0.7348   -2.1499 H   0  0  0  0  0  0  0  0  0  0  0  0
   -0.0049    2.8905   -0.0009 C   0  0  0  0  0  0  0  0  0  0  0  0
    0.8390    3.2013    0.4106 H   0  0  0  0  0  0  0  0  0  0  0  0
   -0.7904    3.1971    0.5167 H   0  0  0  0  0  0  0  0  0  0  0  0
   -0.0708    3.3317   -0.9954 H   0  0  0  0  0  0  0  0  0  0  0  0
   -0.0009    1.3938   -0.0020 C   0  0  0  0  0  0  0  0  0  0  0  0
   -1.1925    0.6871   -0.0006 C   0  0  0  0  0  0  0  0  0  0  0  0
   -2.0606    1.1793   -0.0017 H   0  0  0  0  0  0  0  0  0  0  0  0
   -1.1958   -0.6943    0.0000 C   0  0  0  0  0  0  0  0  0  0  0  0
   -2.0728   -1.1913    0.0021 H   0  0  0  0  0  0  0  0  0  0  0  0
    0.0011   -1.3862    0.0000 C   0  0  0  0  0  0  0  0  0  0  0  0
   -0.0014   -2.3864   -0.0005 H   0  0  0  0  0  0  0  0  0  0  0  0
    1.1958   -0.6906   -0.0000 C   0  0  0  0  0  0  0  0  0  0  0  0
    2.0793   -1.1917   -0.0000 H   0  0  0  0  0  0  0  0  0  0  0  0
    1.1922    0.6902    0.0025 C   0  0  0  0  0  0  0  0  0  0  0  0
    2.0603    1.1896    0.0071 H   0  0  0  0  0  0  0  0  0  0  0  0
  1  5  1  0
  5  8  1  0
  1  2  1  0
  1  3  1  0
  1  4  1  0
  5  6  1  0
  5  7  1  0
  8  9  1  0
  8 10  1  0
  8 11  1  0
 12 16  1  0
 16 17  2  0
 17 19  1  0
 19 21  2  0
 21 23  1  0
 23 25  2  0
 25 16  1  0
 12 13  1  0
 12 14  1  0
 12 15  1  0
 17 18  1  0
 19 20  1  0
 21 22  1  0
 23 24  1  0
 25 26  1  0
M  CHG  1   8   1
M  END
>  <PDB_ID>  (1084) 
pdb2wya

>  <RESIDUE_NAME>  (1084) 
LYS   PHE

>  <FRAG_NAME>  (1084) 
ETAM   MBZ

>  <FRAG_ATOM_NUM>  (1084) 
fragi: 11  fragj: 15

>  <atom.prop.CHAIN_ID>  (1084) 
A A A A A A A A A A A Z Z Z Z Z Z Z Z Z Z Z Z Z Z Z

>  <atom.prop.IS_HEAVY_ATOM>  (1084) 
1 0 0 0 1 0 0 1 0 0 0 1 0 0 0 1 1 0 1 0 1 0 1 0 1 0

>  <DIFUSE_FUNC_ATOM>  (1084) 
n/a

>  <FINAL_SINGLE_POINT_ENERGY>  (1084) 
0

>  <NONCOV_INTER_ENERGY_QM>  (1084) 
0

>  <FF_Energy>  (1084) 
20.61

>  <QM_Energy>  (1084) 
-9.92

>  <source>  (1084) 
ETAM_MBZ

>  <Index>  (1084) 
10803

$$$$
ETAM-pdb1qs1-D-LYS-3379:MBZ-pdb1qs1-D-PHE-3356
     RDKit          3D

 26 25  0  0  0  0  0  0  0  0999 V2000
    1.1160   -1.4681    4.1594 C   0  0  0  0  0  0  0  0  0  0  0  0
    1.9429   -1.0989    3.7649 H   0  0  0  0  0  0  0  0  0  0  0  0
    0.7786   -2.2365    3.6389 H   0  0  0  0  0  0  0  0  0  0  0  0
    1.3201   -1.7889    5.1809 H   0  0  0  0  0  0  0  0  0  0  0  0
    0.0499   -0.3779    4.1603 C   0  0  0  0  0  0  0  0  0  0  0  0
   -0.8086   -0.7700    4.5082 H   0  0  0  0  0  0  0  0  0  0  0  0
    0.3414    0.3548    4.7850 H   0  0  0  0  0  0  0  0  0  0  0  0
   -0.1756    0.1838    2.8131 N   0  0  0  0  0  4  0  0  0  0  0  0
   -1.1543    0.3470    2.6751 H   0  0  0  0  0  0  0  0  0  0  0  0
    0.3194    1.0493    2.7216 H   0  0  0  0  0  0  0  0  0  0  0  0
    0.1535   -0.4598    2.1194 H   0  0  0  0  0  0  0  0  0  0  0  0
    0.0030    2.9078    0.1085 C   0  0  0  0  0  0  0  0  0  0  0  0
   -0.6310    3.2616   -0.5574 H   0  0  0  0  0  0  0  0  0  0  0  0
    0.9217    3.2241   -0.0545 H   0  0  0  0  0  0  0  0  0  0  0  0
   -0.3053    3.2694    1.0895 H   0  0  0  0  0  0  0  0  0  0  0  0
    0.0010    1.4049    0.0016 C   0  0  0  0  0  0  0  0  0  0  0  0
   -1.1955    0.6926   -0.0015 C   0  0  0  0  0  0  0  0  0  0  0  0
   -2.0632    1.1812   -0.0061 H   0  0  0  0  0  0  0  0  0  0  0  0
   -1.2017   -0.7023    0.0000 C   0  0  0  0  0  0  0  0  0  0  0  0
   -2.0803   -1.1917    0.0017 H   0  0  0  0  0  0  0  0  0  0  0  0
   -0.0041   -1.3972    0.0019 C   0  0  0  0  0  0  0  0  0  0  0  0
   -0.0034   -2.3948    0.0040 H   0  0  0  0  0  0  0  0  0  0  0  0
    1.2017   -0.6970    0.0000 C   0  0  0  0  0  0  0  0  0  0  0  0
    2.0814   -1.1945    0.0013 H   0  0  0  0  0  0  0  0  0  0  0  0
    1.1986    0.6990   -0.0021 C   0  0  0  0  0  0  0  0  0  0  0  0
    2.0662    1.1919   -0.0071 H   0  0  0  0  0  0  0  0  0  0  0  0
  1  5  1  0
  5  8  1  0
  1  2  1  0
  1  3  1  0
  1  4  1  0
  5  6  1  0
  5  7  1  0
  8  9  1  0
  8 10  1  0
  8 11  1  0
 12 16  1  0
 16 17  2  0
 17 19  1  0
 19 21  2  0
 21 23  1  0
 23 25  2  0
 25 16  1  0
 12 13  1  0
 12 14  1  0
 12 15  1  0
 17 18  1  0
 19 20  1  0
 21 22  1  0
 23 24  1  0
 25 26  1  0
M  CHG  1   8   1
M  END
>  <PDB_ID>  (1085) 
pdb1qs1

>  <RESIDUE_NAME>  (1085) 
LYS   PHE

>  <FRAG_NAME>  (1085) 
ETAM   MBZ

>  <FRAG_ATOM_NUM>  (1085) 
fragi: 11  fragj: 15

>  <atom.prop.CHAIN_ID>  (1085) 
A A A A A A A A A A A Z Z Z Z Z Z Z Z Z Z Z Z Z Z Z

>  <atom.prop.IS_HEAVY_ATOM>  (1085) 
1 0 0 0 1 0 0 1 0 0 0 1 0 0 0 1 1 0 1 0 1 0 1 0 1 0

>  <DIFUSE_FUNC_ATOM>  (1085) 
n/a

>  <FINAL_SINGLE_POINT_ENERGY>  (1085) 
0

>  <NONCOV_INTER_ENERGY_QM>  (1085) 
0

>  <FF_Energy>  (1085) 
-8.39

>  <QM_Energy>  (1085) 
-17.7

>  <source>  (1085) 
ETAM_MBZ

>  <Index>  (1085) 
10821

$$$$
ETAM-pdb1qua-A-LYS-114:MBZ-pdb1qua-A-PHE-187
     RDKit          3D

 26 25  0  0  0  0  0  0  0  0999 V2000
   -5.2942    2.4891   -1.7175 C   0  0  0  0  0  0  0  0  0  0  0  0
   -5.2717    3.3620   -2.1870 H   0  0  0  0  0  0  0  0  0  0  0  0
   -6.2262    2.1682   -1.6130 H   0  0  0  0  0  0  0  0  0  0  0  0
   -4.7270    1.7591   -2.2950 H   0  0  0  0  0  0  0  0  0  0  0  0
   -4.6890    2.6748   -0.3248 C   0  0  0  0  0  0  0  0  0  0  0  0
   -5.1479    3.4472    0.1254 H   0  0  0  0  0  0  0  0  0  0  0  0
   -4.8576    1.8431    0.2131 H   0  0  0  0  0  0  0  0  0  0  0  0
   -3.2203    2.9381   -0.3725 N   0  0  0  0  0  4  0  0  0  0  0  0
   -3.0555    3.9127   -0.2316 H   0  0  0  0  0  0  0  0  0  0  0  0
   -2.7677    2.4129    0.3467 H   0  0  0  0  0  0  0  0  0  0  0  0
   -2.8646    2.6630   -1.2649 H   0  0  0  0  0  0  0  0  0  0  0  0
    0.0208    2.8915   -0.0186 C   0  0  0  0  0  0  0  0  0  0  0  0
   -0.6381    3.1937   -0.6933 H   0  0  0  0  0  0  0  0  0  0  0  0
    0.9363    3.1813   -0.2607 H   0  0  0  0  0  0  0  0  0  0  0  0
   -0.2371    3.3582    0.9320 H   0  0  0  0  0  0  0  0  0  0  0  0
    0.0026    1.3857    0.0058 C   0  0  0  0  0  0  0  0  0  0  0  0
   -1.1957    0.6866    0.0011 C   0  0  0  0  0  0  0  0  0  0  0  0
   -2.0590    1.1867   -0.0033 H   0  0  0  0  0  0  0  0  0  0  0  0
   -1.2065   -0.6897    0.0000 C   0  0  0  0  0  0  0  0  0  0  0  0
   -2.0791   -1.1881    0.0035 H   0  0  0  0  0  0  0  0  0  0  0  0
   -0.0031   -1.3834   -0.0045 C   0  0  0  0  0  0  0  0  0  0  0  0
   -0.0009   -2.3814   -0.0116 H   0  0  0  0  0  0  0  0  0  0  0  0
    1.2065   -0.6818   -0.0000 C   0  0  0  0  0  0  0  0  0  0  0  0
    2.0811   -1.1933    0.0062 H   0  0  0  0  0  0  0  0  0  0  0  0
    1.1962    0.6825   -0.0024 C   0  0  0  0  0  0  0  0  0  0  0  0
    2.0629    1.1936   -0.0112 H   0  0  0  0  0  0  0  0  0  0  0  0
  1  5  1  0
  5  8  1  0
  1  2  1  0
  1  3  1  0
  1  4  1  0
  5  6  1  0
  5  7  1  0
  8  9  1  0
  8 10  1  0
  8 11  1  0
 12 16  1  0
 16 17  2  0
 17 19  1  0
 19 21  2  0
 21 23  1  0
 23 25  2  0
 25 16  1  0
 12 13  1  0
 12 14  1  0
 12 15  1  0
 17 18  1  0
 19 20  1  0
 21 22  1  0
 23 24  1  0
 25 26  1  0
M  CHG  1   8   1
M  END
>  <PDB_ID>  (1086) 
pdb1qua

>  <RESIDUE_NAME>  (1086) 
LYS   PHE

>  <FRAG_NAME>  (1086) 
ETAM   MBZ

>  <FRAG_ATOM_NUM>  (1086) 
fragi: 11  fragj: 15

>  <atom.prop.CHAIN_ID>  (1086) 
A A A A A A A A A A A Z Z Z Z Z Z Z Z Z Z Z Z Z Z Z

>  <atom.prop.IS_HEAVY_ATOM>  (1086) 
1 0 0 0 1 0 0 1 0 0 0 1 0 0 0 1 1 0 1 0 1 0 1 0 1 0

>  <DIFUSE_FUNC_ATOM>  (1086) 
n/a

>  <FINAL_SINGLE_POINT_ENERGY>  (1086) 
0

>  <NONCOV_INTER_ENERGY_QM>  (1086) 
0

>  <FF_Energy>  (1086) 
11.12

>  <QM_Energy>  (1086) 
1.57

>  <source>  (1086) 
ETAM_MBZ

>  <Index>  (1086) 
10830

$$$$
ETAM-pdb2x0d-A-LYS-302:MBZ-pdb2x0d-A-PHE-62
     RDKit          3D

 26 25  0  0  0  0  0  0  0  0999 V2000
   -2.9567   -4.2828   -0.0938 C   0  0  0  0  0  0  0  0  0  0  0  0
   -3.1388   -4.9686   -0.7839 H   0  0  0  0  0  0  0  0  0  0  0  0
   -2.9256   -3.3766   -0.4901 H   0  0  0  0  0  0  0  0  0  0  0  0
   -3.7576   -4.3123    0.6450 H   0  0  0  0  0  0  0  0  0  0  0  0
   -1.5699   -4.5854    0.5387 C   0  0  0  0  0  0  0  0  0  0  0  0
   -1.5576   -5.5574    0.8163 H   0  0  0  0  0  0  0  0  0  0  0  0
   -0.8649   -4.4626   -0.1767 H   0  0  0  0  0  0  0  0  0  0  0  0
   -1.2161   -3.7320    1.7259 N   0  0  0  0  0  4  0  0  0  0  0  0
   -0.2239   -3.6696    1.7949 H   0  0  0  0  0  0  0  0  0  0  0  0
   -1.6068   -2.8239    1.5993 H   0  0  0  0  0  0  0  0  0  0  0  0
   -1.5891   -4.1527    2.5496 H   0  0  0  0  0  0  0  0  0  0  0  0
    0.0108    2.9339    0.0132 C   0  0  0  0  0  0  0  0  0  0  0  0
    0.9505    3.2338   -0.0741 H   0  0  0  0  0  0  0  0  0  0  0  0
   -0.3794    3.2298    0.8743 H   0  0  0  0  0  0  0  0  0  0  0  0
   -0.5608    3.4050   -0.7865 H   0  0  0  0  0  0  0  0  0  0  0  0
    0.0004    1.4224   -0.0080 C   0  0  0  0  0  0  0  0  0  0  0  0
   -1.2086    0.7044    0.0106 C   0  0  0  0  0  0  0  0  0  0  0  0
   -2.0729    1.1870    0.0298 H   0  0  0  0  0  0  0  0  0  0  0  0
   -1.2174   -0.7158   -0.0000 C   0  0  0  0  0  0  0  0  0  0  0  0
   -2.0883   -1.1989   -0.0020 H   0  0  0  0  0  0  0  0  0  0  0  0
   -0.0006   -1.4168   -0.0059 C   0  0  0  0  0  0  0  0  0  0  0  0
    0.0029   -2.4083   -0.0144 H   0  0  0  0  0  0  0  0  0  0  0  0
    1.2174   -0.7035   -0.0000 C   0  0  0  0  0  0  0  0  0  0  0  0
    2.0945   -1.1950    0.0031 H   0  0  0  0  0  0  0  0  0  0  0  0
    1.2088    0.7093    0.0033 C   0  0  0  0  0  0  0  0  0  0  0  0
    2.0738    1.2016    0.0133 H   0  0  0  0  0  0  0  0  0  0  0  0
  1  5  1  0
  5  8  1  0
  1  2  1  0
  1  3  1  0
  1  4  1  0
  5  6  1  0
  5  7  1  0
  8  9  1  0
  8 10  1  0
  8 11  1  0
 12 16  1  0
 16 17  2  0
 17 19  1  0
 19 21  2  0
 21 23  1  0
 23 25  2  0
 25 16  1  0
 12 13  1  0
 12 14  1  0
 12 15  1  0
 17 18  1  0
 19 20  1  0
 21 22  1  0
 23 24  1  0
 25 26  1  0
M  CHG  1   8   1
M  END
>  <PDB_ID>  (1087) 
pdb2x0d

>  <RESIDUE_NAME>  (1087) 
LYS   PHE

>  <FRAG_NAME>  (1087) 
ETAM   MBZ

>  <FRAG_ATOM_NUM>  (1087) 
fragi: 11  fragj: 15

>  <atom.prop.CHAIN_ID>  (1087) 
A A A A A A A A A A A Z Z Z Z Z Z Z Z Z Z Z Z Z Z Z

>  <atom.prop.IS_HEAVY_ATOM>  (1087) 
1 0 0 0 1 0 0 1 0 0 0 1 0 0 0 1 1 0 1 0 1 0 1 0 1 0

>  <DIFUSE_FUNC_ATOM>  (1087) 
n/a

>  <FINAL_SINGLE_POINT_ENERGY>  (1087) 
0

>  <NONCOV_INTER_ENERGY_QM>  (1087) 
0

>  <FF_Energy>  (1087) 
1.2

>  <QM_Energy>  (1087) 
-6.97

>  <source>  (1087) 
ETAM_MBZ

>  <Index>  (1087) 
10843

$$$$
ETAM-pdb2wcv-E-LYS-116:MBZ-pdb2wcv-I-PHE-108
     RDKit          3D

 26 25  0  0  0  0  0  0  0  0999 V2000
    4.1919    2.2181    3.8468 C   0  0  0  0  0  0  0  0  0  0  0  0
    4.7991    1.4374    3.7391 H   0  0  0  0  0  0  0  0  0  0  0  0
    3.3584    1.9463    4.3164 H   0  0  0  0  0  0  0  0  0  0  0  0
    4.6987    2.9829    4.4353 H   0  0  0  0  0  0  0  0  0  0  0  0
    3.8231    2.7375    2.4678 C   0  0  0  0  0  0  0  0  0  0  0  0
    3.2219    3.5290    2.5682 H   0  0  0  0  0  0  0  0  0  0  0  0
    4.6566    3.0090    1.9877 H   0  0  0  0  0  0  0  0  0  0  0  0
    3.1234    1.6873    1.6789 N   0  0  0  0  0  4  0  0  0  0  0  0
    2.4077    1.2723    2.2407 H   0  0  0  0  0  0  0  0  0  0  0  0
    2.7133    2.1005    0.8661 H   0  0  0  0  0  0  0  0  0  0  0  0
    3.7813    0.9868    1.4025 H   0  0  0  0  0  0  0  0  0  0  0  0
   -0.0090    2.9134   -0.0299 C   0  0  0  0  0  0  0  0  0  0  0  0
    0.9253    3.2236    0.0310 H   0  0  0  0  0  0  0  0  0  0  0  0
   -0.5495    3.2299    0.7316 H   0  0  0  0  0  0  0  0  0  0  0  0
   -0.4411    3.3254   -0.9419 H   0  0  0  0  0  0  0  0  0  0  0  0
   -0.0010    1.4056   -0.0006 C   0  0  0  0  0  0  0  0  0  0  0  0
   -1.1984    0.6933    0.0016 C   0  0  0  0  0  0  0  0  0  0  0  0
   -2.0658    1.1825    0.0026 H   0  0  0  0  0  0  0  0  0  0  0  0
   -1.2037   -0.7002    0.0000 C   0  0  0  0  0  0  0  0  0  0  0  0
   -2.0774   -1.1940    0.0011 H   0  0  0  0  0  0  0  0  0  0  0  0
    0.0038   -1.3982   -0.0005 C   0  0  0  0  0  0  0  0  0  0  0  0
   -0.0002   -2.3943   -0.0018 H   0  0  0  0  0  0  0  0  0  0  0  0
    1.2037   -0.6976   -0.0000 C   0  0  0  0  0  0  0  0  0  0  0  0
    2.0864   -1.1915    0.0016 H   0  0  0  0  0  0  0  0  0  0  0  0
    1.1956    0.6970   -0.0005 C   0  0  0  0  0  0  0  0  0  0  0  0
    2.0647    1.1937   -0.0016 H   0  0  0  0  0  0  0  0  0  0  0  0
  1  5  1  0
  5  8  1  0
  1  2  1  0
  1  3  1  0
  1  4  1  0
  5  6  1  0
  5  7  1  0
  8  9  1  0
  8 10  1  0
  8 11  1  0
 12 16  1  0
 16 17  2  0
 17 19  1  0
 19 21  2  0
 21 23  1  0
 23 25  2  0
 25 16  1  0
 12 13  1  0
 12 14  1  0
 12 15  1  0
 17 18  1  0
 19 20  1  0
 21 22  1  0
 23 24  1  0
 25 26  1  0
M  CHG  1   8   1
M  END
>  <PDB_ID>  (1088) 
pdb2wcv

>  <RESIDUE_NAME>  (1088) 
LYS   PHE

>  <FRAG_NAME>  (1088) 
ETAM   MBZ

>  <FRAG_ATOM_NUM>  (1088) 
fragi: 11  fragj: 15

>  <atom.prop.CHAIN_ID>  (1088) 
A A A A A A A A A A A Z Z Z Z Z Z Z Z Z Z Z Z Z Z Z

>  <atom.prop.IS_HEAVY_ATOM>  (1088) 
1 0 0 0 1 0 0 1 0 0 0 1 0 0 0 1 1 0 1 0 1 0 1 0 1 0

>  <DIFUSE_FUNC_ATOM>  (1088) 
n/a

>  <FINAL_SINGLE_POINT_ENERGY>  (1088) 
0

>  <NONCOV_INTER_ENERGY_QM>  (1088) 
0

>  <FF_Energy>  (1088) 
19.24

>  <QM_Energy>  (1088) 
3.52

>  <source>  (1088) 
ETAM_MBZ

>  <Index>  (1088) 
10866

$$$$
ETAM-pdb2x1i-A-LYS-415:MBZ-pdb2x1i-A-PHE-425
     RDKit          3D

 26 25  0  0  0  0  0  0  0  0999 V2000
    0.5984   -2.8627    4.0557 C   0  0  0  0  0  0  0  0  0  0  0  0
    0.4995   -3.8391    4.2058 H   0  0  0  0  0  0  0  0  0  0  0  0
    0.8091   -2.3981    4.9077 H   0  0  0  0  0  0  0  0  0  0  0  0
    1.4072   -2.6913    3.3454 H   0  0  0  0  0  0  0  0  0  0  0  0
   -0.7249   -2.3198    3.5255 C   0  0  0  0  0  0  0  0  0  0  0  0
   -0.9005   -2.7228    2.6225 H   0  0  0  0  0  0  0  0  0  0  0  0
   -1.4621   -2.5970    4.1501 H   0  0  0  0  0  0  0  0  0  0  0  0
   -0.7191   -0.8337    3.4056 N   0  0  0  0  0  4  0  0  0  0  0  0
   -0.2303   -0.4411    4.1834 H   0  0  0  0  0  0  0  0  0  0  0  0
   -0.2625   -0.5731    2.5552 H   0  0  0  0  0  0  0  0  0  0  0  0
   -1.6612   -0.4993    3.3973 H   0  0  0  0  0  0  0  0  0  0  0  0
   -0.0034    2.9150    0.0120 C   0  0  0  0  0  0  0  0  0  0  0  0
   -0.7662    3.2246   -0.5358 H   0  0  0  0  0  0  0  0  0  0  0  0
    0.8577    3.2257   -0.3628 H   0  0  0  0  0  0  0  0  0  0  0  0
   -0.1090    3.3541    1.0041 H   0  0  0  0  0  0  0  0  0  0  0  0
   -0.0016    1.4086    0.0005 C   0  0  0  0  0  0  0  0  0  0  0  0
   -1.2013    0.6941   -0.0003 C   0  0  0  0  0  0  0  0  0  0  0  0
   -2.0672    1.1831   -0.0026 H   0  0  0  0  0  0  0  0  0  0  0  0
   -1.2059   -0.7020    0.0000 C   0  0  0  0  0  0  0  0  0  0  0  0
   -2.0800   -1.1958    0.0017 H   0  0  0  0  0  0  0  0  0  0  0  0
    0.0022   -1.4005    0.0003 C   0  0  0  0  0  0  0  0  0  0  0  0
   -0.0011   -2.3969    0.0000 H   0  0  0  0  0  0  0  0  0  0  0  0
    1.2059   -0.6999    0.0000 C   0  0  0  0  0  0  0  0  0  0  0  0
    2.0874   -1.1944    0.0015 H   0  0  0  0  0  0  0  0  0  0  0  0
    1.2006    0.6997   -0.0005 C   0  0  0  0  0  0  0  0  0  0  0  0
    2.0666    1.1940   -0.0025 H   0  0  0  0  0  0  0  0  0  0  0  0
  1  5  1  0
  5  8  1  0
  1  2  1  0
  1  3  1  0
  1  4  1  0
  5  6  1  0
  5  7  1  0
  8  9  1  0
  8 10  1  0
  8 11  1  0
 12 16  1  0
 16 17  2  0
 17 19  1  0
 19 21  2  0
 21 23  1  0
 23 25  2  0
 25 16  1  0
 12 13  1  0
 12 14  1  0
 12 15  1  0
 17 18  1  0
 19 20  1  0
 21 22  1  0
 23 24  1  0
 25 26  1  0
M  CHG  1   8   1
M  END
>  <PDB_ID>  (1089) 
pdb2x1i

>  <RESIDUE_NAME>  (1089) 
LYS   PHE

>  <FRAG_NAME>  (1089) 
ETAM   MBZ

>  <FRAG_ATOM_NUM>  (1089) 
fragi: 11  fragj: 15

>  <atom.prop.CHAIN_ID>  (1089) 
A A A A A A A A A A A Z Z Z Z Z Z Z Z Z Z Z Z Z Z Z

>  <atom.prop.IS_HEAVY_ATOM>  (1089) 
1 0 0 0 1 0 0 1 0 0 0 1 0 0 0 1 1 0 1 0 1 0 1 0 1 0

>  <DIFUSE_FUNC_ATOM>  (1089) 
n/a

>  <FINAL_SINGLE_POINT_ENERGY>  (1089) 
0

>  <NONCOV_INTER_ENERGY_QM>  (1089) 
0

>  <FF_Energy>  (1089) 
-7.65

>  <QM_Energy>  (1089) 
-14.8

>  <source>  (1089) 
ETAM_MBZ

>  <Index>  (1089) 
10870

$$$$
ETAM-pdb2x36-B-MET-756:MBZ-pdb2x36-B-PHE-779
     RDKit          3D

 26 25  0  0  0  0  0  0  0  0999 V2000
    4.1178    1.5510    2.6915 C   0  0  0  0  0  0  0  0  0  0  0  0
    4.9841    1.7623    2.2042 H   0  0  0  0  0  0  0  0  0  0  0  0
    3.3585    1.7821    2.0563 H   0  0  0  0  0  0  0  0  0  0  0  0
    4.0477    2.2145    3.5535 H   0  0  0  0  0  0  0  0  0  0  0  0
    4.0718    0.0449    2.9875 C   0  0  0  0  0  0  0  0  0  0  0  0
    4.9273   -0.2047    3.4506 H   0  0  0  0  0  0  0  0  0  0  0  0
    3.2418   -0.2039    3.6488 H   0  0  0  0  0  0  0  0  0  0  0  0
    4.0060   -0.7265    1.7190 N   0  0  0  0  0  4  0  0  0  0  0  0
    3.2182   -0.4209    1.1889 H   0  0  0  0  0  0  0  0  0  0  0  0
    4.8417   -0.5738    1.1969 H   0  0  0  0  0  0  0  0  0  0  0  0
    3.9134   -1.6974    1.9290 H   0  0  0  0  0  0  0  0  0  0  0  0
   -0.0101    2.8788   -0.0284 C   0  0  0  0  0  0  0  0  0  0  0  0
    0.8608    3.2089    0.2867 H   0  0  0  0  0  0  0  0  0  0  0  0
   -0.7528    3.1809    0.5408 H   0  0  0  0  0  0  0  0  0  0  0  0
   -0.1748    3.2688   -1.0327 H   0  0  0  0  0  0  0  0  0  0  0  0
    0.0211    1.3763    0.0042 C   0  0  0  0  0  0  0  0  0  0  0  0
   -1.1688    0.6635   -0.0205 C   0  0  0  0  0  0  0  0  0  0  0  0
   -2.0334    1.1972   -0.0567 H   0  0  0  0  0  0  0  0  0  0  0  0
   -1.1928   -0.6508    0.0000 C   0  0  0  0  0  0  0  0  0  0  0  0
   -2.1094   -1.1405    0.0067 H   0  0  0  0  0  0  0  0  0  0  0  0
   -0.0746   -1.3588    0.0138 C   0  0  0  0  0  0  0  0  0  0  0  0
   -0.0724   -2.3657    0.0333 H   0  0  0  0  0  0  0  0  0  0  0  0
    1.1928   -0.7016    0.0000 C   0  0  0  0  0  0  0  0  0  0  0  0
    2.0304   -1.2464   -0.0100 H   0  0  0  0  0  0  0  0  0  0  0  0
    1.2223    0.6715    0.0024 C   0  0  0  0  0  0  0  0  0  0  0  0
    2.0831    1.1632    0.0024 H   0  0  0  0  0  0  0  0  0  0  0  0
  1  5  1  0
  5  8  1  0
  1  2  1  0
  1  3  1  0
  1  4  1  0
  5  6  1  0
  5  7  1  0
  8  9  1  0
  8 10  1  0
  8 11  1  0
 12 16  1  0
 16 17  2  0
 17 19  1  0
 19 21  2  0
 21 23  1  0
 23 25  2  0
 25 16  1  0
 12 13  1  0
 12 14  1  0
 12 15  1  0
 17 18  1  0
 19 20  1  0
 21 22  1  0
 23 24  1  0
 25 26  1  0
M  CHG  1   8   1
M  END
>  <PDB_ID>  (1090) 
pdb2x36

>  <RESIDUE_NAME>  (1090) 
MET   PHE

>  <FRAG_NAME>  (1090) 
ETAM   MBZ

>  <FRAG_ATOM_NUM>  (1090) 
fragi: 11  fragj: 15

>  <atom.prop.CHAIN_ID>  (1090) 
A A A A A A A A A A A Z Z Z Z Z Z Z Z Z Z Z Z Z Z Z

>  <atom.prop.IS_HEAVY_ATOM>  (1090) 
1 0 0 0 1 0 0 1 0 0 0 1 0 0 0 1 1 0 1 0 1 0 1 0 1 0

>  <DIFUSE_FUNC_ATOM>  (1090) 
n/a

>  <FINAL_SINGLE_POINT_ENERGY>  (1090) 
0

>  <NONCOV_INTER_ENERGY_QM>  (1090) 
0

>  <FF_Energy>  (1090) 
-0.43

>  <QM_Energy>  (1090) 
-6.5

>  <source>  (1090) 
ETAM_MBZ

>  <Index>  (1090) 
10891

$$$$
ETAM-pdb2ww8-A-LYS-742:MBZ-pdb2ww8-A-PHE-756
     RDKit          3D

 26 25  0  0  0  0  0  0  0  0999 V2000
   -1.4352   -4.3105   -0.8711 C   0  0  0  0  0  0  0  0  0  0  0  0
   -0.8130   -4.8174   -1.4656 H   0  0  0  0  0  0  0  0  0  0  0  0
   -1.2268   -3.3344   -0.9190 H   0  0  0  0  0  0  0  0  0  0  0  0
   -2.4531   -4.4636   -1.2298 H   0  0  0  0  0  0  0  0  0  0  0  0
   -1.2198   -4.7826    0.5738 C   0  0  0  0  0  0  0  0  0  0  0  0
   -0.2531   -4.7080    0.7924 H   0  0  0  0  0  0  0  0  0  0  0  0
   -1.7585   -4.2075    1.1806 H   0  0  0  0  0  0  0  0  0  0  0  0
   -1.6542   -6.1995    0.7144 N   0  0  0  0  0  4  0  0  0  0  0  0
   -1.2376   -6.7467   -0.0106 H   0  0  0  0  0  0  0  0  0  0  0  0
   -1.3655   -6.5474    1.6054 H   0  0  0  0  0  0  0  0  0  0  0  0
   -2.6500   -6.2498    0.6415 H   0  0  0  0  0  0  0  0  0  0  0  0
   -0.0139    2.9170   -0.0208 C   0  0  0  0  0  0  0  0  0  0  0  0
   -0.6983    3.2014   -0.6743 H   0  0  0  0  0  0  0  0  0  0  0  0
    0.8885    3.2159   -0.2907 H   0  0  0  0  0  0  0  0  0  0  0  0
   -0.2504    3.3755    0.9394 H   0  0  0  0  0  0  0  0  0  0  0  0
   -0.0054    1.3993    0.0048 C   0  0  0  0  0  0  0  0  0  0  0  0
   -1.1919    0.6846    0.0075 C   0  0  0  0  0  0  0  0  0  0  0  0
   -2.0643    1.1795    0.0136 H   0  0  0  0  0  0  0  0  0  0  0  0
   -1.1993   -0.6922    0.0000 C   0  0  0  0  0  0  0  0  0  0  0  0
   -2.0711   -1.1939   -0.0045 H   0  0  0  0  0  0  0  0  0  0  0  0
    0.0081   -1.3902   -0.0001 C   0  0  0  0  0  0  0  0  0  0  0  0
   -0.0037   -2.3904   -0.0007 H   0  0  0  0  0  0  0  0  0  0  0  0
    1.1993   -0.6992    0.0000 C   0  0  0  0  0  0  0  0  0  0  0  0
    2.0846   -1.1869    0.0103 H   0  0  0  0  0  0  0  0  0  0  0  0
    1.1893    0.6978   -0.0122 C   0  0  0  0  0  0  0  0  0  0  0  0
    2.0584    1.1924   -0.0343 H   0  0  0  0  0  0  0  0  0  0  0  0
  1  5  1  0
  5  8  1  0
  1  2  1  0
  1  3  1  0
  1  4  1  0
  5  6  1  0
  5  7  1  0
  8  9  1  0
  8 10  1  0
  8 11  1  0
 12 16  1  0
 16 17  2  0
 17 19  1  0
 19 21  2  0
 21 23  1  0
 23 25  2  0
 25 16  1  0
 12 13  1  0
 12 14  1  0
 12 15  1  0
 17 18  1  0
 19 20  1  0
 21 22  1  0
 23 24  1  0
 25 26  1  0
M  CHG  1   8   1
M  END
>  <PDB_ID>  (1091) 
pdb2ww8

>  <RESIDUE_NAME>  (1091) 
LYS   PHE

>  <FRAG_NAME>  (1091) 
ETAM   MBZ

>  <FRAG_ATOM_NUM>  (1091) 
fragi: 11  fragj: 15

>  <atom.prop.CHAIN_ID>  (1091) 
A A A A A A A A A A A Z Z Z Z Z Z Z Z Z Z Z Z Z Z Z

>  <atom.prop.IS_HEAVY_ATOM>  (1091) 
1 0 0 0 1 0 0 1 0 0 0 1 0 0 0 1 1 0 1 0 1 0 1 0 1 0

>  <DIFUSE_FUNC_ATOM>  (1091) 
n/a

>  <FINAL_SINGLE_POINT_ENERGY>  (1091) 
0

>  <NONCOV_INTER_ENERGY_QM>  (1091) 
0

>  <FF_Energy>  (1091) 
5.37

>  <QM_Energy>  (1091) 
-0.83

>  <source>  (1091) 
ETAM_MBZ

>  <Index>  (1091) 
10896

$$$$
ETAM-pdb2wvs-C-LYS-134:MBZ-pdb2wvs-C-PHE-179
     RDKit          3D

 26 25  0  0  0  0  0  0  0  0999 V2000
   -1.8338   -2.6184    4.2517 C   0  0  0  0  0  0  0  0  0  0  0  0
   -1.6604   -3.3782    4.8737 H   0  0  0  0  0  0  0  0  0  0  0  0
   -2.5229   -2.8805    3.5800 H   0  0  0  0  0  0  0  0  0  0  0  0
   -2.2178   -1.7791    4.8315 H   0  0  0  0  0  0  0  0  0  0  0  0
   -0.5481   -2.2757    3.5267 C   0  0  0  0  0  0  0  0  0  0  0  0
   -0.7222   -1.4746    2.9191 H   0  0  0  0  0  0  0  0  0  0  0  0
    0.1404   -1.9692    4.2146 H   0  0  0  0  0  0  0  0  0  0  0  0
    0.0336   -3.3713    2.7218 N   0  0  0  0  0  4  0  0  0  0  0  0
   -0.6948   -3.9851    2.4123 H   0  0  0  0  0  0  0  0  0  0  0  0
    0.5058   -2.9898    1.9258 H   0  0  0  0  0  0  0  0  0  0  0  0
    0.6874   -3.8868    3.2781 H   0  0  0  0  0  0  0  0  0  0  0  0
   -0.0046    2.9198   -0.0258 C   0  0  0  0  0  0  0  0  0  0  0  0
   -0.8594    3.2205   -0.4172 H   0  0  0  0  0  0  0  0  0  0  0  0
    0.7675    3.2228   -0.5614 H   0  0  0  0  0  0  0  0  0  0  0  0
    0.0828    3.3725    0.9618 H   0  0  0  0  0  0  0  0  0  0  0  0
   -0.0014    1.4106   -0.0099 C   0  0  0  0  0  0  0  0  0  0  0  0
   -1.1972    0.6999    0.0055 C   0  0  0  0  0  0  0  0  0  0  0  0
   -2.0647    1.1811    0.0196 H   0  0  0  0  0  0  0  0  0  0  0  0
   -1.1965   -0.7037    0.0000 C   0  0  0  0  0  0  0  0  0  0  0  0
   -2.0750   -1.1929   -0.0060 H   0  0  0  0  0  0  0  0  0  0  0  0
    0.0035   -1.3982    0.0046 C   0  0  0  0  0  0  0  0  0  0  0  0
   -0.0022   -2.3986    0.0111 H   0  0  0  0  0  0  0  0  0  0  0  0
    1.1965   -0.7052   -0.0000 C   0  0  0  0  0  0  0  0  0  0  0  0
    2.0826   -1.1956   -0.0015 H   0  0  0  0  0  0  0  0  0  0  0  0
    1.1951    0.6966   -0.0002 C   0  0  0  0  0  0  0  0  0  0  0  0
    2.0656    1.1863    0.0063 H   0  0  0  0  0  0  0  0  0  0  0  0
  1  5  1  0
  5  8  1  0
  1  2  1  0
  1  3  1  0
  1  4  1  0
  5  6  1  0
  5  7  1  0
  8  9  1  0
  8 10  1  0
  8 11  1  0
 12 16  1  0
 16 17  2  0
 17 19  1  0
 19 21  2  0
 21 23  1  0
 23 25  2  0
 25 16  1  0
 12 13  1  0
 12 14  1  0
 12 15  1  0
 17 18  1  0
 19 20  1  0
 21 22  1  0
 23 24  1  0
 25 26  1  0
M  CHG  1   8   1
M  END
>  <PDB_ID>  (1092) 
pdb2wvs

>  <RESIDUE_NAME>  (1092) 
LYS   PHE

>  <FRAG_NAME>  (1092) 
ETAM   MBZ

>  <FRAG_ATOM_NUM>  (1092) 
fragi: 11  fragj: 15

>  <atom.prop.CHAIN_ID>  (1092) 
A A A A A A A A A A A Z Z Z Z Z Z Z Z Z Z Z Z Z Z Z

>  <atom.prop.IS_HEAVY_ATOM>  (1092) 
1 0 0 0 1 0 0 1 0 0 0 1 0 0 0 1 1 0 1 0 1 0 1 0 1 0

>  <DIFUSE_FUNC_ATOM>  (1092) 
n/a

>  <FINAL_SINGLE_POINT_ENERGY>  (1092) 
0

>  <NONCOV_INTER_ENERGY_QM>  (1092) 
0

>  <FF_Energy>  (1092) 
-2.33

>  <QM_Energy>  (1092) 
-9.11

>  <source>  (1092) 
ETAM_MBZ

>  <Index>  (1092) 
10927

$$$$
ETAM-pdb2x4h-A-LYS-62:MBZ-pdb2x4h-A-PHE-48
     RDKit          3D

 26 25  0  0  0  0  0  0  0  0999 V2000
   -3.2105   -2.9563    4.9022 C   0  0  0  0  0  0  0  0  0  0  0  0
   -2.7052   -3.8101    4.7906 H   0  0  0  0  0  0  0  0  0  0  0  0
   -4.0597   -2.9956    4.3782 H   0  0  0  0  0  0  0  0  0  0  0  0
   -3.4593   -2.8368    5.9566 H   0  0  0  0  0  0  0  0  0  0  0  0
   -2.3538   -1.8109    4.3525 C   0  0  0  0  0  0  0  0  0  0  0  0
   -2.4553   -1.0170    4.9551 H   0  0  0  0  0  0  0  0  0  0  0  0
   -1.3952   -2.1005    4.3486 H   0  0  0  0  0  0  0  0  0  0  0  0
   -2.7604   -1.4349    2.9683 N   0  0  0  0  0  4  0  0  0  0  0  0
   -3.6402   -1.8587    2.7553 H   0  0  0  0  0  0  0  0  0  0  0  0
   -2.8435   -0.4413    2.9072 H   0  0  0  0  0  0  0  0  0  0  0  0
   -2.0681   -1.7547    2.3230 H   0  0  0  0  0  0  0  0  0  0  0  0
   -0.0033    2.9251    0.0154 C   0  0  0  0  0  0  0  0  0  0  0  0
   -0.8613    3.2327   -0.3562 H   0  0  0  0  0  0  0  0  0  0  0  0
    0.7643    3.2399   -0.5147 H   0  0  0  0  0  0  0  0  0  0  0  0
    0.0933    3.3431    1.0174 H   0  0  0  0  0  0  0  0  0  0  0  0
    0.0006    1.4141   -0.0043 C   0  0  0  0  0  0  0  0  0  0  0  0
   -1.1949    0.6985    0.0023 C   0  0  0  0  0  0  0  0  0  0  0  0
   -2.0648    1.1825    0.0077 H   0  0  0  0  0  0  0  0  0  0  0  0
   -1.1986   -0.7040   -0.0000 C   0  0  0  0  0  0  0  0  0  0  0  0
   -2.0791   -1.1907   -0.0039 H   0  0  0  0  0  0  0  0  0  0  0  0
   -0.0023   -1.4026    0.0055 C   0  0  0  0  0  0  0  0  0  0  0  0
   -0.0065   -2.4001    0.0123 H   0  0  0  0  0  0  0  0  0  0  0  0
    1.1986   -0.7059    0.0000 C   0  0  0  0  0  0  0  0  0  0  0  0
    2.0813   -1.1971    0.0004 H   0  0  0  0  0  0  0  0  0  0  0  0
    1.1966    0.6999   -0.0035 C   0  0  0  0  0  0  0  0  0  0  0  0
    2.0671    1.1873   -0.0062 H   0  0  0  0  0  0  0  0  0  0  0  0
  1  5  1  0
  5  8  1  0
  1  2  1  0
  1  3  1  0
  1  4  1  0
  5  6  1  0
  5  7  1  0
  8  9  1  0
  8 10  1  0
  8 11  1  0
 12 16  1  0
 16 17  2  0
 17 19  1  0
 19 21  2  0
 21 23  1  0
 23 25  2  0
 25 16  1  0
 12 13  1  0
 12 14  1  0
 12 15  1  0
 17 18  1  0
 19 20  1  0
 21 22  1  0
 23 24  1  0
 25 26  1  0
M  CHG  1   8   1
M  END
>  <PDB_ID>  (1093) 
pdb2x4h

>  <RESIDUE_NAME>  (1093) 
LYS   PHE

>  <FRAG_NAME>  (1093) 
ETAM   MBZ

>  <FRAG_ATOM_NUM>  (1093) 
fragi: 11  fragj: 15

>  <atom.prop.CHAIN_ID>  (1093) 
A A A A A A A A A A A Z Z Z Z Z Z Z Z Z Z Z Z Z Z Z

>  <atom.prop.IS_HEAVY_ATOM>  (1093) 
1 0 0 0 1 0 0 1 0 0 0 1 0 0 0 1 1 0 1 0 1 0 1 0 1 0

>  <DIFUSE_FUNC_ATOM>  (1093) 
n/a

>  <FINAL_SINGLE_POINT_ENERGY>  (1093) 
0

>  <NONCOV_INTER_ENERGY_QM>  (1093) 
0

>  <FF_Energy>  (1093) 
-2.5

>  <QM_Energy>  (1093) 
-8.39

>  <source>  (1093) 
ETAM_MBZ

>  <Index>  (1093) 
10941

$$$$
ETAM-pdb2x4h-B-LYS-62:MBZ-pdb2x4h-B-PHE-48
     RDKit          3D

 26 25  0  0  0  0  0  0  0  0999 V2000
   -1.9374   -1.8374    4.4898 C   0  0  0  0  0  0  0  0  0  0  0  0
   -0.9641   -1.6388    4.4814 H   0  0  0  0  0  0  0  0  0  0  0  0
   -2.1000   -2.8029    4.3282 H   0  0  0  0  0  0  0  0  0  0  0  0
   -2.3553   -1.5567    5.4566 H   0  0  0  0  0  0  0  0  0  0  0  0
   -2.5973   -1.0463    3.3652 C   0  0  0  0  0  0  0  0  0  0  0  0
   -3.3481   -0.4915    3.7563 H   0  0  0  0  0  0  0  0  0  0  0  0
   -1.9168   -0.4065    2.9761 H   0  0  0  0  0  0  0  0  0  0  0  0
   -3.1476   -1.8935    2.2630 N   0  0  0  0  0  4  0  0  0  0  0  0
   -4.0295   -2.2670    2.5455 H   0  0  0  0  0  0  0  0  0  0  0  0
   -3.2647   -1.3324    1.4456 H   0  0  0  0  0  0  0  0  0  0  0  0
   -2.5113   -2.6388    2.0729 H   0  0  0  0  0  0  0  0  0  0  0  0
   -0.0050    2.9189   -0.0227 C   0  0  0  0  0  0  0  0  0  0  0  0
   -0.8926    3.2206   -0.3406 H   0  0  0  0  0  0  0  0  0  0  0  0
    0.7140    3.2200   -0.6330 H   0  0  0  0  0  0  0  0  0  0  0  0
    0.1728    3.3758    0.9509 H   0  0  0  0  0  0  0  0  0  0  0  0
   -0.0022    1.4222   -0.0001 C   0  0  0  0  0  0  0  0  0  0  0  0
   -1.2022    0.7092    0.0163 C   0  0  0  0  0  0  0  0  0  0  0  0
   -2.0695    1.1852    0.0384 H   0  0  0  0  0  0  0  0  0  0  0  0
   -1.2045   -0.7107    0.0000 C   0  0  0  0  0  0  0  0  0  0  0  0
   -2.0821   -1.1927   -0.0088 H   0  0  0  0  0  0  0  0  0  0  0  0
    0.0016   -1.4092   -0.0013 C   0  0  0  0  0  0  0  0  0  0  0  0
   -0.0057   -2.4080   -0.0034 H   0  0  0  0  0  0  0  0  0  0  0  0
    1.2045   -0.7164    0.0000 C   0  0  0  0  0  0  0  0  0  0  0  0
    2.0868   -1.2008    0.0129 H   0  0  0  0  0  0  0  0  0  0  0  0
    1.2028    0.7049   -0.0148 C   0  0  0  0  0  0  0  0  0  0  0  0
    2.0698    1.1884   -0.0369 H   0  0  0  0  0  0  0  0  0  0  0  0
  1  5  1  0
  5  8  1  0
  1  2  1  0
  1  3  1  0
  1  4  1  0
  5  6  1  0
  5  7  1  0
  8  9  1  0
  8 10  1  0
  8 11  1  0
 12 16  1  0
 16 17  2  0
 17 19  1  0
 19 21  2  0
 21 23  1  0
 23 25  2  0
 25 16  1  0
 12 13  1  0
 12 14  1  0
 12 15  1  0
 17 18  1  0
 19 20  1  0
 21 22  1  0
 23 24  1  0
 25 26  1  0
M  CHG  1   8   1
M  END
>  <PDB_ID>  (1094) 
pdb2x4h

>  <RESIDUE_NAME>  (1094) 
LYS   PHE

>  <FRAG_NAME>  (1094) 
ETAM   MBZ

>  <FRAG_ATOM_NUM>  (1094) 
fragi: 11  fragj: 15

>  <atom.prop.CHAIN_ID>  (1094) 
A A A A A A A A A A A Z Z Z Z Z Z Z Z Z Z Z Z Z Z Z

>  <atom.prop.IS_HEAVY_ATOM>  (1094) 
1 0 0 0 1 0 0 1 0 0 0 1 0 0 0 1 1 0 1 0 1 0 1 0 1 0

>  <DIFUSE_FUNC_ATOM>  (1094) 
n/a

>  <FINAL_SINGLE_POINT_ENERGY>  (1094) 
0

>  <NONCOV_INTER_ENERGY_QM>  (1094) 
0

>  <FF_Energy>  (1094) 
-0.52

>  <QM_Energy>  (1094) 
-6.91

>  <source>  (1094) 
ETAM_MBZ

>  <Index>  (1094) 
10943

$$$$
ETAM-pdb1qhb-C-LYS-497:MBZ-pdb1qhb-C-PHE-589
     RDKit          3D

 26 25  0  0  0  0  0  0  0  0999 V2000
   -5.0688   -1.3914   -3.7777 C   0  0  0  0  0  0  0  0  0  0  0  0
   -5.5208   -0.5702   -4.1399 H   0  0  0  0  0  0  0  0  0  0  0  0
   -5.4133   -1.5661   -2.8497 H   0  0  0  0  0  0  0  0  0  0  0  0
   -5.3441   -2.2366   -4.4085 H   0  0  0  0  0  0  0  0  0  0  0  0
   -3.5727   -1.1285   -3.6987 C   0  0  0  0  0  0  0  0  0  0  0  0
   -3.1113   -1.9696   -3.3750 H   0  0  0  0  0  0  0  0  0  0  0  0
   -3.2270   -0.9326   -4.6302 H   0  0  0  0  0  0  0  0  0  0  0  0
   -3.2010    0.0019   -2.7997 N   0  0  0  0  0  4  0  0  0  0  0  0
   -3.9806    0.2323   -2.2198 H   0  0  0  0  0  0  0  0  0  0  0  0
   -2.4271   -0.2708   -2.2288 H   0  0  0  0  0  0  0  0  0  0  0  0
   -2.9471    0.7942   -3.3532 H   0  0  0  0  0  0  0  0  0  0  0  0
   -0.0301    2.8949    0.0552 C   0  0  0  0  0  0  0  0  0  0  0  0
    0.8621    3.2181   -0.2406 H   0  0  0  0  0  0  0  0  0  0  0  0
   -0.2057    3.1691    0.9942 H   0  0  0  0  0  0  0  0  0  0  0  0
   -0.7829    3.3656   -0.5772 H   0  0  0  0  0  0  0  0  0  0  0  0
   -0.0088    1.3864    0.0140 C   0  0  0  0  0  0  0  0  0  0  0  0
   -1.1938    0.6858    0.0078 C   0  0  0  0  0  0  0  0  0  0  0  0
   -2.0639    1.1669    0.0079 H   0  0  0  0  0  0  0  0  0  0  0  0
   -1.1845   -0.7019   -0.0000 C   0  0  0  0  0  0  0  0  0  0  0  0
   -2.0693   -1.1979    0.0027 H   0  0  0  0  0  0  0  0  0  0  0  0
    0.0013   -1.3961   -0.0096 C   0  0  0  0  0  0  0  0  0  0  0  0
    0.0093   -2.3879   -0.0238 H   0  0  0  0  0  0  0  0  0  0  0  0
    1.1845   -0.6789    0.0000 C   0  0  0  0  0  0  0  0  0  0  0  0
    2.0802   -1.1840    0.0183 H   0  0  0  0  0  0  0  0  0  0  0  0
    1.2014    0.7048   -0.0122 C   0  0  0  0  0  0  0  0  0  0  0  0
    2.0542    1.1995   -0.0397 H   0  0  0  0  0  0  0  0  0  0  0  0
  1  5  1  0
  5  8  1  0
  1  2  1  0
  1  3  1  0
  1  4  1  0
  5  6  1  0
  5  7  1  0
  8  9  1  0
  8 10  1  0
  8 11  1  0
 12 16  1  0
 16 17  2  0
 17 19  1  0
 19 21  2  0
 21 23  1  0
 23 25  2  0
 25 16  1  0
 12 13  1  0
 12 14  1  0
 12 15  1  0
 17 18  1  0
 19 20  1  0
 21 22  1  0
 23 24  1  0
 25 26  1  0
M  CHG  1   8   1
M  END
>  <PDB_ID>  (1095) 
pdb1qhb

>  <RESIDUE_NAME>  (1095) 
LYS   PHE

>  <FRAG_NAME>  (1095) 
ETAM   MBZ

>  <FRAG_ATOM_NUM>  (1095) 
fragi: 11  fragj: 15

>  <atom.prop.CHAIN_ID>  (1095) 
A A A A A A A A A A A Z Z Z Z Z Z Z Z Z Z Z Z Z Z Z

>  <atom.prop.IS_HEAVY_ATOM>  (1095) 
1 0 0 0 1 0 0 1 0 0 0 1 0 0 0 1 1 0 1 0 1 0 1 0 1 0

>  <DIFUSE_FUNC_ATOM>  (1095) 
n/a

>  <FINAL_SINGLE_POINT_ENERGY>  (1095) 
0

>  <NONCOV_INTER_ENERGY_QM>  (1095) 
0

>  <FF_Energy>  (1095) 
-2.87

>  <QM_Energy>  (1095) 
-9.18

>  <source>  (1095) 
ETAM_MBZ

>  <Index>  (1095) 
10944

$$$$
ETAM-pdb2x4h-D-LYS-62:MBZ-pdb2x4h-D-PHE-48
     RDKit          3D

 26 25  0  0  0  0  0  0  0  0999 V2000
   -3.1954   -1.5351    5.3804 C   0  0  0  0  0  0  0  0  0  0  0  0
   -2.2402   -1.4645    5.6600 H   0  0  0  0  0  0  0  0  0  0  0  0
   -3.3743   -2.4406    5.0027 H   0  0  0  0  0  0  0  0  0  0  0  0
   -3.8284   -1.3874    6.2554 H   0  0  0  0  0  0  0  0  0  0  0  0
   -3.4575   -0.4971    4.2895 C   0  0  0  0  0  0  0  0  0  0  0  0
   -4.4097   -0.1844    4.3629 H   0  0  0  0  0  0  0  0  0  0  0  0
   -2.8495    0.2892    4.4382 H   0  0  0  0  0  0  0  0  0  0  0  0
   -3.2261   -1.0385    2.9147 N   0  0  0  0  0  4  0  0  0  0  0  0
   -3.0998   -2.0278    2.9689 H   0  0  0  0  0  0  0  0  0  0  0  0
   -4.0165   -0.8296    2.3423 H   0  0  0  0  0  0  0  0  0  0  0  0
   -2.4085   -0.6148    2.5289 H   0  0  0  0  0  0  0  0  0  0  0  0
   -0.0049    2.9369   -0.0290 C   0  0  0  0  0  0  0  0  0  0  0  0
   -0.8513    3.2240   -0.4519 H   0  0  0  0  0  0  0  0  0  0  0  0
    0.7780    3.2290   -0.5561 H   0  0  0  0  0  0  0  0  0  0  0  0
    0.0568    3.4052    0.9534 H   0  0  0  0  0  0  0  0  0  0  0  0
    0.0018    1.4175    0.0019 C   0  0  0  0  0  0  0  0  0  0  0  0
   -1.2009    0.7005    0.0001 C   0  0  0  0  0  0  0  0  0  0  0  0
   -2.0681    1.1847   -0.0019 H   0  0  0  0  0  0  0  0  0  0  0  0
   -1.2110   -0.7125    0.0000 C   0  0  0  0  0  0  0  0  0  0  0  0
   -2.0881   -1.1935   -0.0014 H   0  0  0  0  0  0  0  0  0  0  0  0
   -0.0081   -1.4109    0.0032 C   0  0  0  0  0  0  0  0  0  0  0  0
   -0.0010   -2.4034    0.0073 H   0  0  0  0  0  0  0  0  0  0  0  0
    1.2110   -0.6996    0.0000 C   0  0  0  0  0  0  0  0  0  0  0  0
    2.0867   -1.1977    0.0028 H   0  0  0  0  0  0  0  0  0  0  0  0
    1.2072    0.7050   -0.0052 C   0  0  0  0  0  0  0  0  0  0  0  0
    2.0722    1.1978   -0.0154 H   0  0  0  0  0  0  0  0  0  0  0  0
  1  5  1  0
  5  8  1  0
  1  2  1  0
  1  3  1  0
  1  4  1  0
  5  6  1  0
  5  7  1  0
  8  9  1  0
  8 10  1  0
  8 11  1  0
 12 16  1  0
 16 17  2  0
 17 19  1  0
 19 21  2  0
 21 23  1  0
 23 25  2  0
 25 16  1  0
 12 13  1  0
 12 14  1  0
 12 15  1  0
 17 18  1  0
 19 20  1  0
 21 22  1  0
 23 24  1  0
 25 26  1  0
M  CHG  1   8   1
M  END
>  <PDB_ID>  (1096) 
pdb2x4h

>  <RESIDUE_NAME>  (1096) 
LYS   PHE

>  <FRAG_NAME>  (1096) 
ETAM   MBZ

>  <FRAG_ATOM_NUM>  (1096) 
fragi: 11  fragj: 15

>  <atom.prop.CHAIN_ID>  (1096) 
A A A A A A A A A A A Z Z Z Z Z Z Z Z Z Z Z Z Z Z Z

>  <atom.prop.IS_HEAVY_ATOM>  (1096) 
1 0 0 0 1 0 0 1 0 0 0 1 0 0 0 1 1 0 1 0 1 0 1 0 1 0

>  <DIFUSE_FUNC_ATOM>  (1096) 
n/a

>  <FINAL_SINGLE_POINT_ENERGY>  (1096) 
0

>  <NONCOV_INTER_ENERGY_QM>  (1096) 
0

>  <FF_Energy>  (1096) 
-2.27

>  <QM_Energy>  (1096) 
-7.84

>  <source>  (1096) 
ETAM_MBZ

>  <Index>  (1096) 
10946

$$$$
ETAM-pdb1qhb-C-LYS-588:MBZ-pdb1qhb-D-PHE-35
     RDKit          3D

 26 25  0  0  0  0  0  0  0  0999 V2000
   -4.2674   -0.3360    2.4936 C   0  0  0  0  0  0  0  0  0  0  0  0
   -4.3242   -0.5609    1.5323 H   0  0  0  0  0  0  0  0  0  0  0  0
   -3.6449    0.4161    2.6511 H   0  0  0  0  0  0  0  0  0  0  0  0
   -5.2589   -0.0430    2.8386 H   0  0  0  0  0  0  0  0  0  0  0  0
   -3.7846   -1.5477    3.2584 C   0  0  0  0  0  0  0  0  0  0  0  0
   -3.9391   -1.4035    4.2301 H   0  0  0  0  0  0  0  0  0  0  0  0
   -4.2805   -2.3514    2.9460 H   0  0  0  0  0  0  0  0  0  0  0  0
   -2.3360   -1.7355    3.0112 N   0  0  0  0  0  4  0  0  0  0  0  0
   -1.9643   -0.9208    2.5640 H   0  0  0  0  0  0  0  0  0  0  0  0
   -1.8634   -1.8822    3.8815 H   0  0  0  0  0  0  0  0  0  0  0  0
   -2.1975   -2.5307    2.4203 H   0  0  0  0  0  0  0  0  0  0  0  0
    0.0800    2.9091   -0.0344 C   0  0  0  0  0  0  0  0  0  0  0  0
    0.9612    3.1876    0.3221 H   0  0  0  0  0  0  0  0  0  0  0  0
   -0.6568    3.2628    0.5266 H   0  0  0  0  0  0  0  0  0  0  0  0
   -0.0245    3.3483   -1.0265 H   0  0  0  0  0  0  0  0  0  0  0  0
    0.0145    1.4046    0.0008 C   0  0  0  0  0  0  0  0  0  0  0  0
   -1.1807    0.7228    0.0120 C   0  0  0  0  0  0  0  0  0  0  0  0
   -2.0439    1.2172    0.0282 H   0  0  0  0  0  0  0  0  0  0  0  0
   -1.1951   -0.6659   -0.0000 C   0  0  0  0  0  0  0  0  0  0  0  0
   -2.0960   -1.1450   -0.0119 H   0  0  0  0  0  0  0  0  0  0  0  0
   -0.0265   -1.4057    0.0054 C   0  0  0  0  0  0  0  0  0  0  0  0
   -0.0521   -2.3951    0.0123 H   0  0  0  0  0  0  0  0  0  0  0  0
    1.1951   -0.7275    0.0000 C   0  0  0  0  0  0  0  0  0  0  0  0
    2.0623   -1.2290    0.0107 H   0  0  0  0  0  0  0  0  0  0  0  0
    1.1927    0.6716   -0.0183 C   0  0  0  0  0  0  0  0  0  0  0  0
    2.0750    1.1565   -0.0471 H   0  0  0  0  0  0  0  0  0  0  0  0
  1  5  1  0
  5  8  1  0
  1  2  1  0
  1  3  1  0
  1  4  1  0
  5  6  1  0
  5  7  1  0
  8  9  1  0
  8 10  1  0
  8 11  1  0
 12 16  1  0
 16 17  2  0
 17 19  1  0
 19 21  2  0
 21 23  1  0
 23 25  2  0
 25 16  1  0
 12 13  1  0
 12 14  1  0
 12 15  1  0
 17 18  1  0
 19 20  1  0
 21 22  1  0
 23 24  1  0
 25 26  1  0
M  CHG  1   8   1
M  END
>  <PDB_ID>  (1097) 
pdb1qhb

>  <RESIDUE_NAME>  (1097) 
LYS   PHE

>  <FRAG_NAME>  (1097) 
ETAM   MBZ

>  <FRAG_ATOM_NUM>  (1097) 
fragi: 11  fragj: 15

>  <atom.prop.CHAIN_ID>  (1097) 
A A A A A A A A A A A Z Z Z Z Z Z Z Z Z Z Z Z Z Z Z

>  <atom.prop.IS_HEAVY_ATOM>  (1097) 
1 0 0 0 1 0 0 1 0 0 0 1 0 0 0 1 1 0 1 0 1 0 1 0 1 0

>  <DIFUSE_FUNC_ATOM>  (1097) 
n/a

>  <FINAL_SINGLE_POINT_ENERGY>  (1097) 
0

>  <NONCOV_INTER_ENERGY_QM>  (1097) 
0

>  <FF_Energy>  (1097) 
-3.57

>  <QM_Energy>  (1097) 
-9.63

>  <source>  (1097) 
ETAM_MBZ

>  <Index>  (1097) 
10951

$$$$
ETAM-pdb2wvy-B-LYS-24:MBZ-pdb2wvy-B-PHE-28
     RDKit          3D

 26 25  0  0  0  0  0  0  0  0999 V2000
   -0.4621   -2.4318   -4.9909 C   0  0  0  0  0  0  0  0  0  0  0  0
   -1.4481   -2.3642   -5.0146 H   0  0  0  0  0  0  0  0  0  0  0  0
   -0.1663   -3.2462   -4.5160 H   0  0  0  0  0  0  0  0  0  0  0  0
   -0.0749   -2.4440   -6.0097 H   0  0  0  0  0  0  0  0  0  0  0  0
    0.0812   -1.2049   -4.2151 C   0  0  0  0  0  0  0  0  0  0  0  0
    0.8875   -1.4934   -3.6879 H   0  0  0  0  0  0  0  0  0  0  0  0
    0.3695   -0.5091   -4.8822 H   0  0  0  0  0  0  0  0  0  0  0  0
   -0.9260   -0.5879   -3.2690 N   0  0  0  0  0  4  0  0  0  0  0  0
   -1.1920   -1.2712   -2.5964 H   0  0  0  0  0  0  0  0  0  0  0  0
   -0.5037    0.1928   -2.8180 H   0  0  0  0  0  0  0  0  0  0  0  0
   -1.7190   -0.2945   -3.7939 H   0  0  0  0  0  0  0  0  0  0  0  0
   -0.0221    2.8910   -0.0127 C   0  0  0  0  0  0  0  0  0  0  0  0
    0.8891    3.2103   -0.2118 H   0  0  0  0  0  0  0  0  0  0  0  0
   -0.3360    3.2038    0.8674 H   0  0  0  0  0  0  0  0  0  0  0  0
   -0.6920    3.2985   -0.7699 H   0  0  0  0  0  0  0  0  0  0  0  0
    0.0003    1.3929    0.0035 C   0  0  0  0  0  0  0  0  0  0  0  0
   -1.1919    0.6798   -0.0067 C   0  0  0  0  0  0  0  0  0  0  0  0
   -2.0610    1.1743   -0.0203 H   0  0  0  0  0  0  0  0  0  0  0  0
   -1.1974   -0.6995   -0.0000 C   0  0  0  0  0  0  0  0  0  0  0  0
   -2.0749   -1.1956    0.0033 H   0  0  0  0  0  0  0  0  0  0  0  0
   -0.0039   -1.3839    0.0032 C   0  0  0  0  0  0  0  0  0  0  0  0
    0.0006   -2.3864    0.0074 H   0  0  0  0  0  0  0  0  0  0  0  0
    1.1974   -0.6871    0.0000 C   0  0  0  0  0  0  0  0  0  0  0  0
    2.0786   -1.1891   -0.0011 H   0  0  0  0  0  0  0  0  0  0  0  0
    1.1955    0.6978   -0.0000 C   0  0  0  0  0  0  0  0  0  0  0  0
    2.0618    1.1950   -0.0037 H   0  0  0  0  0  0  0  0  0  0  0  0
  1  5  1  0
  5  8  1  0
  1  2  1  0
  1  3  1  0
  1  4  1  0
  5  6  1  0
  5  7  1  0
  8  9  1  0
  8 10  1  0
  8 11  1  0
 12 16  1  0
 16 17  2  0
 17 19  1  0
 19 21  2  0
 21 23  1  0
 23 25  2  0
 25 16  1  0
 12 13  1  0
 12 14  1  0
 12 15  1  0
 17 18  1  0
 19 20  1  0
 21 22  1  0
 23 24  1  0
 25 26  1  0
M  CHG  1   8   1
M  END
>  <PDB_ID>  (1098) 
pdb2wvy

>  <RESIDUE_NAME>  (1098) 
LYS   PHE

>  <FRAG_NAME>  (1098) 
ETAM   MBZ

>  <FRAG_ATOM_NUM>  (1098) 
fragi: 11  fragj: 15

>  <atom.prop.CHAIN_ID>  (1098) 
A A A A A A A A A A A Z Z Z Z Z Z Z Z Z Z Z Z Z Z Z

>  <atom.prop.IS_HEAVY_ATOM>  (1098) 
1 0 0 0 1 0 0 1 0 0 0 1 0 0 0 1 1 0 1 0 1 0 1 0 1 0

>  <DIFUSE_FUNC_ATOM>  (1098) 
n/a

>  <FINAL_SINGLE_POINT_ENERGY>  (1098) 
0

>  <NONCOV_INTER_ENERGY_QM>  (1098) 
0

>  <FF_Energy>  (1098) 
-7.37

>  <QM_Energy>  (1098) 
-14.11

>  <source>  (1098) 
ETAM_MBZ

>  <Index>  (1098) 
10952

$$$$
ETAM-pdb2x4j-A-LYS-20:MBZ-pdb2x4j-A-PHE-16
     RDKit          3D

 26 25  0  0  0  0  0  0  0  0999 V2000
    0.1580   -1.8263    4.4133 C   0  0  0  0  0  0  0  0  0  0  0  0
    0.4507   -2.7261    4.1570 H   0  0  0  0  0  0  0  0  0  0  0  0
   -0.1914   -1.7877    5.3286 H   0  0  0  0  0  0  0  0  0  0  0  0
    0.9935   -1.1333    4.3147 H   0  0  0  0  0  0  0  0  0  0  0  0
   -0.9917   -1.4008    3.4427 C   0  0  0  0  0  0  0  0  0  0  0  0
   -1.4872   -0.6365    3.8630 H   0  0  0  0  0  0  0  0  0  0  0  0
   -0.5762   -1.0868    2.5857 H   0  0  0  0  0  0  0  0  0  0  0  0
   -1.9671   -2.5175    3.1404 N   0  0  0  0  0  4  0  0  0  0  0  0
   -1.4632   -3.2864    2.7577 H   0  0  0  0  0  0  0  0  0  0  0  0
   -2.4156   -2.7870    3.9867 H   0  0  0  0  0  0  0  0  0  0  0  0
   -2.6391   -2.1857    2.4856 H   0  0  0  0  0  0  0  0  0  0  0  0
   -0.0378    2.9671   -0.0175 C   0  0  0  0  0  0  0  0  0  0  0  0
   -0.7508    3.2357   -0.6416 H   0  0  0  0  0  0  0  0  0  0  0  0
    0.8513    3.2603   -0.3236 H   0  0  0  0  0  0  0  0  0  0  0  0
   -0.2376    3.4164    0.9552 H   0  0  0  0  0  0  0  0  0  0  0  0
   -0.0175    1.4197    0.0001 C   0  0  0  0  0  0  0  0  0  0  0  0
   -1.1959    0.6950   -0.0059 C   0  0  0  0  0  0  0  0  0  0  0  0
   -2.0749    1.1987   -0.0162 H   0  0  0  0  0  0  0  0  0  0  0  0
   -1.2224   -0.6744    0.0000 C   0  0  0  0  0  0  0  0  0  0  0  0
   -2.0924   -1.1750    0.0091 H   0  0  0  0  0  0  0  0  0  0  0  0
   -0.0049   -1.4027   -0.0044 C   0  0  0  0  0  0  0  0  0  0  0  0
   -0.0306   -2.3945   -0.0106 H   0  0  0  0  0  0  0  0  0  0  0  0
    1.2224   -0.7193    0.0000 C   0  0  0  0  0  0  0  0  0  0  0  0
    2.0877   -1.2219   -0.0028 H   0  0  0  0  0  0  0  0  0  0  0  0
    1.2184    0.6817    0.0102 C   0  0  0  0  0  0  0  0  0  0  0  0
    2.0714    1.1873    0.0241 H   0  0  0  0  0  0  0  0  0  0  0  0
  1  5  1  0
  5  8  1  0
  1  2  1  0
  1  3  1  0
  1  4  1  0
  5  6  1  0
  5  7  1  0
  8  9  1  0
  8 10  1  0
  8 11  1  0
 12 16  1  0
 16 17  2  0
 17 19  1  0
 19 21  2  0
 21 23  1  0
 23 25  2  0
 25 16  1  0
 12 13  1  0
 12 14  1  0
 12 15  1  0
 17 18  1  0
 19 20  1  0
 21 22  1  0
 23 24  1  0
 25 26  1  0
M  CHG  1   8   1
M  END
>  <PDB_ID>  (1099) 
pdb2x4j

>  <RESIDUE_NAME>  (1099) 
LYS   PHE

>  <FRAG_NAME>  (1099) 
ETAM   MBZ

>  <FRAG_ATOM_NUM>  (1099) 
fragi: 11  fragj: 15

>  <atom.prop.CHAIN_ID>  (1099) 
A A A A A A A A A A A Z Z Z Z Z Z Z Z Z Z Z Z Z Z Z

>  <atom.prop.IS_HEAVY_ATOM>  (1099) 
1 0 0 0 1 0 0 1 0 0 0 1 0 0 0 1 1 0 1 0 1 0 1 0 1 0

>  <DIFUSE_FUNC_ATOM>  (1099) 
n/a

>  <FINAL_SINGLE_POINT_ENERGY>  (1099) 
0

>  <NONCOV_INTER_ENERGY_QM>  (1099) 
0

>  <FF_Energy>  (1099) 
-2.84

>  <QM_Energy>  (1099) 
-8.38

>  <source>  (1099) 
ETAM_MBZ

>  <Index>  (1099) 
10970

$$$$
ETAM-pdb1r17-A-LYS-350:MBZ-pdb1r17-B-PHE-583
     RDKit          3D

 26 25  0  0  0  0  0  0  0  0999 V2000
   -1.2743   -5.0179    1.7421 C   0  0  0  0  0  0  0  0  0  0  0  0
   -0.9144   -4.0973    1.8068 H   0  0  0  0  0  0  0  0  0  0  0  0
   -0.7843   -5.5454    1.0628 H   0  0  0  0  0  0  0  0  0  0  0  0
   -1.1730   -5.5060    2.7113 H   0  0  0  0  0  0  0  0  0  0  0  0
   -2.7366   -4.9432    1.3392 C   0  0  0  0  0  0  0  0  0  0  0  0
   -2.9668   -5.7539    0.7917 H   0  0  0  0  0  0  0  0  0  0  0  0
   -3.3046   -4.9436    2.1677 H   0  0  0  0  0  0  0  0  0  0  0  0
   -3.0386   -3.7174    0.5436 N   0  0  0  0  0  4  0  0  0  0  0  0
   -3.8982   -3.3206    0.8622 H   0  0  0  0  0  0  0  0  0  0  0  0
   -2.2987   -3.0567    0.6633 H   0  0  0  0  0  0  0  0  0  0  0  0
   -3.1181   -3.9624   -0.4216 H   0  0  0  0  0  0  0  0  0  0  0  0
   -0.0002    2.9109    0.0202 C   0  0  0  0  0  0  0  0  0  0  0  0
   -0.7745    3.2269   -0.5075 H   0  0  0  0  0  0  0  0  0  0  0  0
    0.8528    3.2227   -0.3696 H   0  0  0  0  0  0  0  0  0  0  0  0
   -0.0833    3.3408    1.0184 H   0  0  0  0  0  0  0  0  0  0  0  0
   -0.0020    1.4060   -0.0013 C   0  0  0  0  0  0  0  0  0  0  0  0
   -1.1993    0.6955   -0.0010 C   0  0  0  0  0  0  0  0  0  0  0  0
   -2.0668    1.1817   -0.0027 H   0  0  0  0  0  0  0  0  0  0  0  0
   -1.2032   -0.7021    0.0000 C   0  0  0  0  0  0  0  0  0  0  0  0
   -2.0755   -1.1961    0.0003 H   0  0  0  0  0  0  0  0  0  0  0  0
    0.0063   -1.3983    0.0026 C   0  0  0  0  0  0  0  0  0  0  0  0
    0.0027   -2.3956    0.0060 H   0  0  0  0  0  0  0  0  0  0  0  0
    1.2032   -0.6972   -0.0000 C   0  0  0  0  0  0  0  0  0  0  0  0
    2.0871   -1.1904    0.0001 H   0  0  0  0  0  0  0  0  0  0  0  0
    1.1949    0.6961   -0.0003 C   0  0  0  0  0  0  0  0  0  0  0  0
    2.0639    1.1931   -0.0006 H   0  0  0  0  0  0  0  0  0  0  0  0
  1  5  1  0
  5  8  1  0
  1  2  1  0
  1  3  1  0
  1  4  1  0
  5  6  1  0
  5  7  1  0
  8  9  1  0
  8 10  1  0
  8 11  1  0
 12 16  1  0
 16 17  2  0
 17 19  1  0
 19 21  2  0
 21 23  1  0
 23 25  2  0
 25 16  1  0
 12 13  1  0
 12 14  1  0
 12 15  1  0
 17 18  1  0
 19 20  1  0
 21 22  1  0
 23 24  1  0
 25 26  1  0
M  CHG  1   8   1
M  END
>  <PDB_ID>  (1100) 
pdb1r17

>  <RESIDUE_NAME>  (1100) 
LYS   PHE

>  <FRAG_NAME>  (1100) 
ETAM   MBZ

>  <FRAG_ATOM_NUM>  (1100) 
fragi: 11  fragj: 15

>  <atom.prop.CHAIN_ID>  (1100) 
A A A A A A A A A A A Z Z Z Z Z Z Z Z Z Z Z Z Z Z Z

>  <atom.prop.IS_HEAVY_ATOM>  (1100) 
1 0 0 0 1 0 0 1 0 0 0 1 0 0 0 1 1 0 1 0 1 0 1 0 1 0

>  <DIFUSE_FUNC_ATOM>  (1100) 
n/a

>  <FINAL_SINGLE_POINT_ENERGY>  (1100) 
0

>  <NONCOV_INTER_ENERGY_QM>  (1100) 
0

>  <FF_Energy>  (1100) 
0.99

>  <QM_Energy>  (1100) 
-4.37

>  <source>  (1100) 
ETAM_MBZ

>  <Index>  (1100) 
10972

$$$$
ETAM-pdb1r1m-A-LYS-80:MBZ-pdb1r1m-A-PHE-85
     RDKit          3D

 26 25  0  0  0  0  0  0  0  0999 V2000
   -0.4190   -1.0297   -5.2939 C   0  0  0  0  0  0  0  0  0  0  0  0
   -0.1552   -0.0776   -5.1760 H   0  0  0  0  0  0  0  0  0  0  0  0
   -1.3590   -1.1665   -4.9969 H   0  0  0  0  0  0  0  0  0  0  0  0
   -0.3409   -1.2889   -6.3497 H   0  0  0  0  0  0  0  0  0  0  0  0
    0.4924   -1.8956   -4.4320 C   0  0  0  0  0  0  0  0  0  0  0  0
    0.2848   -2.8597   -4.6075 H   0  0  0  0  0  0  0  0  0  0  0  0
    1.4450   -1.7130   -4.6829 H   0  0  0  0  0  0  0  0  0  0  0  0
    0.3032   -1.6092   -2.9827 N   0  0  0  0  0  4  0  0  0  0  0  0
    0.6473   -0.6935   -2.7784 H   0  0  0  0  0  0  0  0  0  0  0  0
   -0.6698   -1.6583   -2.7598 H   0  0  0  0  0  0  0  0  0  0  0  0
    0.8058   -2.2845   -2.4436 H   0  0  0  0  0  0  0  0  0  0  0  0
    0.0006    2.9062    0.0069 C   0  0  0  0  0  0  0  0  0  0  0  0
    0.9281    3.2122    0.1604 H   0  0  0  0  0  0  0  0  0  0  0  0
   -0.6024    3.2115    0.7291 H   0  0  0  0  0  0  0  0  0  0  0  0
   -0.3458    3.3537   -0.9247 H   0  0  0  0  0  0  0  0  0  0  0  0
   -0.0006    1.4046    0.0005 C   0  0  0  0  0  0  0  0  0  0  0  0
   -1.1985    0.6966   -0.0005 C   0  0  0  0  0  0  0  0  0  0  0  0
   -2.0647    1.1850   -0.0027 H   0  0  0  0  0  0  0  0  0  0  0  0
   -1.2035   -0.6984   -0.0000 C   0  0  0  0  0  0  0  0  0  0  0  0
   -2.0788   -1.1915    0.0012 H   0  0  0  0  0  0  0  0  0  0  0  0
    0.0012   -1.3970    0.0006 C   0  0  0  0  0  0  0  0  0  0  0  0
   -0.0036   -2.3945    0.0010 H   0  0  0  0  0  0  0  0  0  0  0  0
    1.2035   -0.6998    0.0000 C   0  0  0  0  0  0  0  0  0  0  0  0
    2.0841   -1.1956    0.0015 H   0  0  0  0  0  0  0  0  0  0  0  0
    1.1980    0.6941   -0.0007 C   0  0  0  0  0  0  0  0  0  0  0  0
    2.0661    1.1904   -0.0030 H   0  0  0  0  0  0  0  0  0  0  0  0
  1  5  1  0
  5  8  1  0
  1  2  1  0
  1  3  1  0
  1  4  1  0
  5  6  1  0
  5  7  1  0
  8  9  1  0
  8 10  1  0
  8 11  1  0
 12 16  1  0
 16 17  2  0
 17 19  1  0
 19 21  2  0
 21 23  1  0
 23 25  2  0
 25 16  1  0
 12 13  1  0
 12 14  1  0
 12 15  1  0
 17 18  1  0
 19 20  1  0
 21 22  1  0
 23 24  1  0
 25 26  1  0
M  CHG  1   8   1
M  END
>  <PDB_ID>  (1101) 
pdb1r1m

>  <RESIDUE_NAME>  (1101) 
LYS   PHE

>  <FRAG_NAME>  (1101) 
ETAM   MBZ

>  <FRAG_ATOM_NUM>  (1101) 
fragi: 11  fragj: 15

>  <atom.prop.CHAIN_ID>  (1101) 
A A A A A A A A A A A Z Z Z Z Z Z Z Z Z Z Z Z Z Z Z

>  <atom.prop.IS_HEAVY_ATOM>  (1101) 
1 0 0 0 1 0 0 1 0 0 0 1 0 0 0 1 1 0 1 0 1 0 1 0 1 0

>  <DIFUSE_FUNC_ATOM>  (1101) 
n/a

>  <FINAL_SINGLE_POINT_ENERGY>  (1101) 
0

>  <NONCOV_INTER_ENERGY_QM>  (1101) 
0

>  <FF_Energy>  (1101) 
-5.14

>  <QM_Energy>  (1101) 
-12.85

>  <source>  (1101) 
ETAM_MBZ

>  <Index>  (1101) 
10986

$$$$
ETAM-pdb2x64-B-LYS-170:MBZ-pdb2x64-B-PHE-186
     RDKit          3D

 26 25  0  0  0  0  0  0  0  0999 V2000
   -0.2624   -2.0445   -3.5253 C   0  0  0  0  0  0  0  0  0  0  0  0
   -1.0708   -2.3225   -3.0282 H   0  0  0  0  0  0  0  0  0  0  0  0
    0.5511   -2.4659   -3.1537 H   0  0  0  0  0  0  0  0  0  0  0  0
   -0.3711   -2.3541   -4.5648 H   0  0  0  0  0  0  0  0  0  0  0  0
   -0.1206   -0.5338   -3.4329 C   0  0  0  0  0  0  0  0  0  0  0  0
   -0.9125   -0.1027   -3.8921 H   0  0  0  0  0  0  0  0  0  0  0  0
   -0.1473   -0.2615   -2.4586 H   0  0  0  0  0  0  0  0  0  0  0  0
    1.1376   -0.0028   -4.0451 N   0  0  0  0  0  4  0  0  0  0  0  0
    0.9108    0.7538   -4.6558 H   0  0  0  0  0  0  0  0  0  0  0  0
    1.7441    0.3179   -3.3200 H   0  0  0  0  0  0  0  0  0  0  0  0
    1.5834   -0.7315   -4.5620 H   0  0  0  0  0  0  0  0  0  0  0  0
   -0.0026    2.9192    0.0146 C   0  0  0  0  0  0  0  0  0  0  0  0
   -0.7743    3.2269   -0.5133 H   0  0  0  0  0  0  0  0  0  0  0  0
    0.8521    3.2282   -0.3642 H   0  0  0  0  0  0  0  0  0  0  0  0
   -0.0944    3.3441    1.0142 H   0  0  0  0  0  0  0  0  0  0  0  0
   -0.0004    1.4070    0.0037 C   0  0  0  0  0  0  0  0  0  0  0  0
   -1.1958    0.6957   -0.0134 C   0  0  0  0  0  0  0  0  0  0  0  0
   -2.0646    1.1809   -0.0365 H   0  0  0  0  0  0  0  0  0  0  0  0
   -1.2000   -0.7034    0.0000 C   0  0  0  0  0  0  0  0  0  0  0  0
   -2.0775   -1.1927    0.0024 H   0  0  0  0  0  0  0  0  0  0  0  0
   -0.0007   -1.3950    0.0112 C   0  0  0  0  0  0  0  0  0  0  0  0
   -0.0031   -2.3958    0.0272 H   0  0  0  0  0  0  0  0  0  0  0  0
    1.2000   -0.7007    0.0000 C   0  0  0  0  0  0  0  0  0  0  0  0
    2.0820   -1.1959   -0.0061 H   0  0  0  0  0  0  0  0  0  0  0  0
    1.1969    0.6964   -0.0015 C   0  0  0  0  0  0  0  0  0  0  0  0
    2.0653    1.1895   -0.0071 H   0  0  0  0  0  0  0  0  0  0  0  0
  1  5  1  0
  5  8  1  0
  1  2  1  0
  1  3  1  0
  1  4  1  0
  5  6  1  0
  5  7  1  0
  8  9  1  0
  8 10  1  0
  8 11  1  0
 12 16  1  0
 16 17  2  0
 17 19  1  0
 19 21  2  0
 21 23  1  0
 23 25  2  0
 25 16  1  0
 12 13  1  0
 12 14  1  0
 12 15  1  0
 17 18  1  0
 19 20  1  0
 21 22  1  0
 23 24  1  0
 25 26  1  0
M  CHG  1   8   1
M  END
>  <PDB_ID>  (1102) 
pdb2x64

>  <RESIDUE_NAME>  (1102) 
LYS   PHE

>  <FRAG_NAME>  (1102) 
ETAM   MBZ

>  <FRAG_ATOM_NUM>  (1102) 
fragi: 11  fragj: 15

>  <atom.prop.CHAIN_ID>  (1102) 
A A A A A A A A A A A Z Z Z Z Z Z Z Z Z Z Z Z Z Z Z

>  <atom.prop.IS_HEAVY_ATOM>  (1102) 
1 0 0 0 1 0 0 1 0 0 0 1 0 0 0 1 1 0 1 0 1 0 1 0 1 0

>  <DIFUSE_FUNC_ATOM>  (1102) 
n/a

>  <FINAL_SINGLE_POINT_ENERGY>  (1102) 
0

>  <NONCOV_INTER_ENERGY_QM>  (1102) 
0

>  <FF_Energy>  (1102) 
-5.73

>  <QM_Energy>  (1102) 
-11.63

>  <source>  (1102) 
ETAM_MBZ

>  <Index>  (1102) 
11006

$$$$
ETAM-pdb2x64-F-LYS-170:MBZ-pdb2x64-F-PHE-186
     RDKit          3D

 26 25  0  0  0  0  0  0  0  0999 V2000
   -0.1364   -2.1094   -3.5064 C   0  0  0  0  0  0  0  0  0  0  0  0
   -0.9505   -2.3517   -2.9868 H   0  0  0  0  0  0  0  0  0  0  0  0
    0.6650   -2.5548   -3.1188 H   0  0  0  0  0  0  0  0  0  0  0  0
   -0.2631   -2.4406   -4.5371 H   0  0  0  0  0  0  0  0  0  0  0  0
    0.0584   -0.6139   -3.4334 C   0  0  0  0  0  0  0  0  0  0  0  0
   -0.6893   -0.1621   -3.9299 H   0  0  0  0  0  0  0  0  0  0  0  0
    0.0244   -0.3260   -2.4709 H   0  0  0  0  0  0  0  0  0  0  0  0
    1.3508   -0.2039   -4.0196 N   0  0  0  0  0  4  0  0  0  0  0  0
    2.1018   -0.5529   -3.4573 H   0  0  0  0  0  0  0  0  0  0  0  0
    1.4330   -0.5730   -4.9467 H   0  0  0  0  0  0  0  0  0  0  0  0
    1.4028    0.7955   -4.0564 H   0  0  0  0  0  0  0  0  0  0  0  0
   -0.0002    2.9180   -0.0003 C   0  0  0  0  0  0  0  0  0  0  0  0
   -0.7579    3.2324   -0.5466 H   0  0  0  0  0  0  0  0  0  0  0  0
    0.8642    3.2308   -0.3554 H   0  0  0  0  0  0  0  0  0  0  0  0
   -0.1163    3.3497    0.9938 H   0  0  0  0  0  0  0  0  0  0  0  0
   -0.0007    1.4091   -0.0136 C   0  0  0  0  0  0  0  0  0  0  0  0
   -1.1995    0.6993   -0.0072 C   0  0  0  0  0  0  0  0  0  0  0  0
   -2.0659    1.1853   -0.0085 H   0  0  0  0  0  0  0  0  0  0  0  0
   -1.2016   -0.6988   -0.0000 C   0  0  0  0  0  0  0  0  0  0  0  0
   -2.0803   -1.1889   -0.0174 H   0  0  0  0  0  0  0  0  0  0  0  0
   -0.0035   -1.3960    0.0321 C   0  0  0  0  0  0  0  0  0  0  0  0
   -0.0100   -2.3948    0.0774 H   0  0  0  0  0  0  0  0  0  0  0  0
    1.2016   -0.7058   -0.0000 C   0  0  0  0  0  0  0  0  0  0  0  0
    2.0804   -1.2048   -0.0137 H   0  0  0  0  0  0  0  0  0  0  0  0
    1.2037    0.6921   -0.0113 C   0  0  0  0  0  0  0  0  0  0  0  0
    2.0687    1.1847   -0.0184 H   0  0  0  0  0  0  0  0  0  0  0  0
  1  5  1  0
  5  8  1  0
  1  2  1  0
  1  3  1  0
  1  4  1  0
  5  6  1  0
  5  7  1  0
  8  9  1  0
  8 10  1  0
  8 11  1  0
 12 16  1  0
 16 17  2  0
 17 19  1  0
 19 21  2  0
 21 23  1  0
 23 25  2  0
 25 16  1  0
 12 13  1  0
 12 14  1  0
 12 15  1  0
 17 18  1  0
 19 20  1  0
 21 22  1  0
 23 24  1  0
 25 26  1  0
M  CHG  1   8   1
M  END
>  <PDB_ID>  (1103) 
pdb2x64

>  <RESIDUE_NAME>  (1103) 
LYS   PHE

>  <FRAG_NAME>  (1103) 
ETAM   MBZ

>  <FRAG_ATOM_NUM>  (1103) 
fragi: 11  fragj: 15

>  <atom.prop.CHAIN_ID>  (1103) 
A A A A A A A A A A A Z Z Z Z Z Z Z Z Z Z Z Z Z Z Z

>  <atom.prop.IS_HEAVY_ATOM>  (1103) 
1 0 0 0 1 0 0 1 0 0 0 1 0 0 0 1 1 0 1 0 1 0 1 0 1 0

>  <DIFUSE_FUNC_ATOM>  (1103) 
n/a

>  <FINAL_SINGLE_POINT_ENERGY>  (1103) 
0

>  <NONCOV_INTER_ENERGY_QM>  (1103) 
0

>  <FF_Energy>  (1103) 
-5.53

>  <QM_Energy>  (1103) 
-11.28

>  <source>  (1103) 
ETAM_MBZ

>  <Index>  (1103) 
11009

$$$$
ETAM-pdb2x40-A-LYS-640:MBZ-pdb2x40-A-PHE-650
     RDKit          3D

 26 25  0  0  0  0  0  0  0  0999 V2000
   -0.5670   -0.7920    4.0656 C   0  0  0  0  0  0  0  0  0  0  0  0
    0.0144   -0.5338    3.3053 H   0  0  0  0  0  0  0  0  0  0  0  0
   -0.4567   -1.7523    4.2845 H   0  0  0  0  0  0  0  0  0  0  0  0
   -0.2889   -0.1984    4.9365 H   0  0  0  0  0  0  0  0  0  0  0  0
   -2.0259   -0.5475    3.6689 C   0  0  0  0  0  0  0  0  0  0  0  0
   -2.2138   -1.0442    2.8133 H   0  0  0  0  0  0  0  0  0  0  0  0
   -2.6221   -0.9221    4.3891 H   0  0  0  0  0  0  0  0  0  0  0  0
   -2.3455    0.8982    3.4744 N   0  0  0  0  0  4  0  0  0  0  0  0
   -3.3374    1.0150    3.4453 H   0  0  0  0  0  0  0  0  0  0  0  0
   -1.9666    1.4241    4.2341 H   0  0  0  0  0  0  0  0  0  0  0  0
   -1.9445    1.2110    2.6147 H   0  0  0  0  0  0  0  0  0  0  0  0
    0.0010    2.8969   -0.0060 C   0  0  0  0  0  0  0  0  0  0  0  0
   -0.7868    3.2033   -0.5202 H   0  0  0  0  0  0  0  0  0  0  0  0
    0.8432    3.2016   -0.4262 H   0  0  0  0  0  0  0  0  0  0  0  0
   -0.0556    3.3499    0.9837 H   0  0  0  0  0  0  0  0  0  0  0  0
   -0.0010    1.3957    0.0035 C   0  0  0  0  0  0  0  0  0  0  0  0
   -1.1947    0.6896   -0.0056 C   0  0  0  0  0  0  0  0  0  0  0  0
   -2.0623    1.1808   -0.0174 H   0  0  0  0  0  0  0  0  0  0  0  0
   -1.1995   -0.6976    0.0000 C   0  0  0  0  0  0  0  0  0  0  0  0
   -2.0756   -1.1921    0.0048 H   0  0  0  0  0  0  0  0  0  0  0  0
    0.0002   -1.3875    0.0005 C   0  0  0  0  0  0  0  0  0  0  0  0
    0.0010   -2.3879    0.0008 H   0  0  0  0  0  0  0  0  0  0  0  0
    1.1995   -0.6891    0.0000 C   0  0  0  0  0  0  0  0  0  0  0  0
    2.0811   -1.1925    0.0001 H   0  0  0  0  0  0  0  0  0  0  0  0
    1.1954    0.6889    0.0017 C   0  0  0  0  0  0  0  0  0  0  0  0
    2.0621    1.1914    0.0007 H   0  0  0  0  0  0  0  0  0  0  0  0
  1  5  1  0
  5  8  1  0
  1  2  1  0
  1  3  1  0
  1  4  1  0
  5  6  1  0
  5  7  1  0
  8  9  1  0
  8 10  1  0
  8 11  1  0
 12 16  1  0
 16 17  2  0
 17 19  1  0
 19 21  2  0
 21 23  1  0
 23 25  2  0
 25 16  1  0
 12 13  1  0
 12 14  1  0
 12 15  1  0
 17 18  1  0
 19 20  1  0
 21 22  1  0
 23 24  1  0
 25 26  1  0
M  CHG  1   8   1
M  END
>  <PDB_ID>  (1104) 
pdb2x40

>  <RESIDUE_NAME>  (1104) 
LYS   PHE

>  <FRAG_NAME>  (1104) 
ETAM   MBZ

>  <FRAG_ATOM_NUM>  (1104) 
fragi: 11  fragj: 15

>  <atom.prop.CHAIN_ID>  (1104) 
A A A A A A A A A A A Z Z Z Z Z Z Z Z Z Z Z Z Z Z Z

>  <atom.prop.IS_HEAVY_ATOM>  (1104) 
1 0 0 0 1 0 0 1 0 0 0 1 0 0 0 1 1 0 1 0 1 0 1 0 1 0

>  <DIFUSE_FUNC_ATOM>  (1104) 
n/a

>  <FINAL_SINGLE_POINT_ENERGY>  (1104) 
0

>  <NONCOV_INTER_ENERGY_QM>  (1104) 
0

>  <FF_Energy>  (1104) 
-5.21

>  <QM_Energy>  (1104) 
-10.58

>  <source>  (1104) 
ETAM_MBZ

>  <Index>  (1104) 
11028

$$$$
ETAM-pdb1qhb-D-LYS-497:MBZ-pdb1qhb-D-PHE-589
     RDKit          3D

 26 25  0  0  0  0  0  0  0  0999 V2000
   -5.0241   -1.4646   -3.8756 C   0  0  0  0  0  0  0  0  0  0  0  0
   -5.3492   -0.6435   -4.3392 H   0  0  0  0  0  0  0  0  0  0  0  0
   -5.4611   -1.5466   -2.9834 H   0  0  0  0  0  0  0  0  0  0  0  0
   -5.2686   -2.3388   -4.4791 H   0  0  0  0  0  0  0  0  0  0  0  0
   -3.5150   -1.3195   -3.6537 C   0  0  0  0  0  0  0  0  0  0  0  0
   -3.1807   -2.1329   -3.1802 H   0  0  0  0  0  0  0  0  0  0  0  0
   -3.0653   -1.2423   -4.5426 H   0  0  0  0  0  0  0  0  0  0  0  0
   -3.2044   -0.1094   -2.8370 N   0  0  0  0  0  4  0  0  0  0  0  0
   -2.2143   -0.0231   -2.7386 H   0  0  0  0  0  0  0  0  0  0  0  0
   -3.5687    0.6997   -3.2959 H   0  0  0  0  0  0  0  0  0  0  0  0
   -3.6250   -0.2031   -1.9363 H   0  0  0  0  0  0  0  0  0  0  0  0
    0.0713    2.9029   -0.0150 C   0  0  0  0  0  0  0  0  0  0  0  0
    0.9498    3.1674   -0.3447 H   0  0  0  0  0  0  0  0  0  0  0  0
   -0.1243    3.2268    0.8838 H   0  0  0  0  0  0  0  0  0  0  0  0
   -0.6779    3.3171   -0.6897 H   0  0  0  0  0  0  0  0  0  0  0  0
    0.0111    1.3892    0.0048 C   0  0  0  0  0  0  0  0  0  0  0  0
   -1.1898    0.7263   -0.0057 C   0  0  0  0  0  0  0  0  0  0  0  0
   -2.0453    1.2157   -0.0184 H   0  0  0  0  0  0  0  0  0  0  0  0
   -1.1913   -0.6656   -0.0000 C   0  0  0  0  0  0  0  0  0  0  0  0
   -2.0877   -1.1504   -0.0136 H   0  0  0  0  0  0  0  0  0  0  0  0
   -0.0174   -1.3867    0.0251 C   0  0  0  0  0  0  0  0  0  0  0  0
   -0.0423   -2.3855    0.0610 H   0  0  0  0  0  0  0  0  0  0  0  0
    1.1913   -0.7186    0.0000 C   0  0  0  0  0  0  0  0  0  0  0  0
    2.0624   -1.2313    0.0004 H   0  0  0  0  0  0  0  0  0  0  0  0
    1.1961    0.6554   -0.0242 C   0  0  0  0  0  0  0  0  0  0  0  0
    2.0719    1.1514   -0.0643 H   0  0  0  0  0  0  0  0  0  0  0  0
  1  5  1  0
  5  8  1  0
  1  2  1  0
  1  3  1  0
  1  4  1  0
  5  6  1  0
  5  7  1  0
  8  9  1  0
  8 10  1  0
  8 11  1  0
 12 16  1  0
 16 17  2  0
 17 19  1  0
 19 21  2  0
 21 23  1  0
 23 25  2  0
 25 16  1  0
 12 13  1  0
 12 14  1  0
 12 15  1  0
 17 18  1  0
 19 20  1  0
 21 22  1  0
 23 24  1  0
 25 26  1  0
M  CHG  1   8   1
M  END
>  <PDB_ID>  (1105) 
pdb1qhb

>  <RESIDUE_NAME>  (1105) 
LYS   PHE

>  <FRAG_NAME>  (1105) 
ETAM   MBZ

>  <FRAG_ATOM_NUM>  (1105) 
fragi: 11  fragj: 15

>  <atom.prop.CHAIN_ID>  (1105) 
A A A A A A A A A A A Z Z Z Z Z Z Z Z Z Z Z Z Z Z Z

>  <atom.prop.IS_HEAVY_ATOM>  (1105) 
1 0 0 0 1 0 0 1 0 0 0 1 0 0 0 1 1 0 1 0 1 0 1 0 1 0

>  <DIFUSE_FUNC_ATOM>  (1105) 
n/a

>  <FINAL_SINGLE_POINT_ENERGY>  (1105) 
0

>  <NONCOV_INTER_ENERGY_QM>  (1105) 
0

>  <FF_Energy>  (1105) 
-2.47

>  <QM_Energy>  (1105) 
-7.91

>  <source>  (1105) 
ETAM_MBZ

>  <Index>  (1105) 
11032

$$$$
ETAM-pdb2x49-A-LYS-547:MBZ-pdb2x49-A-PHE-513
     RDKit          3D

 26 25  0  0  0  0  0  0  0  0999 V2000
    1.0346   -1.5100    3.5856 C   0  0  0  0  0  0  0  0  0  0  0  0
    1.1813   -1.6832    2.6131 H   0  0  0  0  0  0  0  0  0  0  0  0
    1.2340   -2.3363    4.1092 H   0  0  0  0  0  0  0  0  0  0  0  0
    1.6899   -0.7033    3.9142 H   0  0  0  0  0  0  0  0  0  0  0  0
   -0.4514   -1.1733    3.7851 C   0  0  0  0  0  0  0  0  0  0  0  0
   -0.5941   -0.8985    4.7467 H   0  0  0  0  0  0  0  0  0  0  0  0
   -0.6850   -0.3815    3.2009 H   0  0  0  0  0  0  0  0  0  0  0  0
   -1.3983   -2.3062    3.4620 N   0  0  0  0  0  4  0  0  0  0  0  0
   -0.9990   -3.1591    3.7864 H   0  0  0  0  0  0  0  0  0  0  0  0
   -2.2675   -2.1376    3.9189 H   0  0  0  0  0  0  0  0  0  0  0  0
   -1.5297   -2.3412    2.4757 H   0  0  0  0  0  0  0  0  0  0  0  0
   -0.0022    2.9169   -0.0170 C   0  0  0  0  0  0  0  0  0  0  0  0
    0.9279    3.2193    0.0988 H   0  0  0  0  0  0  0  0  0  0  0  0
   -0.5829    3.2226    0.7174 H   0  0  0  0  0  0  0  0  0  0  0  0
   -0.3838    3.3320   -0.9498 H   0  0  0  0  0  0  0  0  0  0  0  0
    0.0012    1.4033   -0.0009 C   0  0  0  0  0  0  0  0  0  0  0  0
   -1.1939    0.7026    0.0017 C   0  0  0  0  0  0  0  0  0  0  0  0
   -2.0620    1.1852    0.0036 H   0  0  0  0  0  0  0  0  0  0  0  0
   -1.1989   -0.7025   -0.0000 C   0  0  0  0  0  0  0  0  0  0  0  0
   -2.0769   -1.1882   -0.0042 H   0  0  0  0  0  0  0  0  0  0  0  0
    0.0012   -1.3980    0.0058 C   0  0  0  0  0  0  0  0  0  0  0  0
   -0.0030   -2.3973    0.0139 H   0  0  0  0  0  0  0  0  0  0  0  0
    1.1989   -0.7028    0.0000 C   0  0  0  0  0  0  0  0  0  0  0  0
    2.0823   -1.1930    0.0018 H   0  0  0  0  0  0  0  0  0  0  0  0
    1.1916    0.6974   -0.0067 C   0  0  0  0  0  0  0  0  0  0  0  0
    2.0638    1.1883   -0.0167 H   0  0  0  0  0  0  0  0  0  0  0  0
  1  5  1  0
  5  8  1  0
  1  2  1  0
  1  3  1  0
  1  4  1  0
  5  6  1  0
  5  7  1  0
  8  9  1  0
  8 10  1  0
  8 11  1  0
 12 16  1  0
 16 17  2  0
 17 19  1  0
 19 21  2  0
 21 23  1  0
 23 25  2  0
 25 16  1  0
 12 13  1  0
 12 14  1  0
 12 15  1  0
 17 18  1  0
 19 20  1  0
 21 22  1  0
 23 24  1  0
 25 26  1  0
M  CHG  1   8   1
M  END
>  <PDB_ID>  (1106) 
pdb2x49

>  <RESIDUE_NAME>  (1106) 
LYS   PHE

>  <FRAG_NAME>  (1106) 
ETAM   MBZ

>  <FRAG_ATOM_NUM>  (1106) 
fragi: 11  fragj: 15

>  <atom.prop.CHAIN_ID>  (1106) 
A A A A A A A A A A A Z Z Z Z Z Z Z Z Z Z Z Z Z Z Z

>  <atom.prop.IS_HEAVY_ATOM>  (1106) 
1 0 0 0 1 0 0 1 0 0 0 1 0 0 0 1 1 0 1 0 1 0 1 0 1 0

>  <DIFUSE_FUNC_ATOM>  (1106) 
n/a

>  <FINAL_SINGLE_POINT_ENERGY>  (1106) 
0

>  <NONCOV_INTER_ENERGY_QM>  (1106) 
0

>  <FF_Energy>  (1106) 
-4.37

>  <QM_Energy>  (1106) 
-10.07

>  <source>  (1106) 
ETAM_MBZ

>  <Index>  (1106) 
11036

$$$$
ETAM-pdb1r42-A-LYS-481:MBZ-pdb1r42-A-PHE-452
     RDKit          3D

 26 25  0  0  0  0  0  0  0  0999 V2000
    4.6128    0.7093   -4.1638 C   0  0  0  0  0  0  0  0  0  0  0  0
    5.2213    1.2124   -3.5617 H   0  0  0  0  0  0  0  0  0  0  0  0
    3.8655    1.2875   -4.4681 H   0  0  0  0  0  0  0  0  0  0  0  0
    5.1794    0.3873   -5.0375 H   0  0  0  0  0  0  0  0  0  0  0  0
    4.0293   -0.4779   -3.3894 C   0  0  0  0  0  0  0  0  0  0  0  0
    3.3533   -0.9406   -3.9645 H   0  0  0  0  0  0  0  0  0  0  0  0
    4.7678   -1.1162   -3.1684 H   0  0  0  0  0  0  0  0  0  0  0  0
    3.3620   -0.0419   -2.1084 N   0  0  0  0  0  4  0  0  0  0  0  0
    3.1185    0.9217   -2.1845 H   0  0  0  0  0  0  0  0  0  0  0  0
    2.5435   -0.5925   -1.9688 H   0  0  0  0  0  0  0  0  0  0  0  0
    3.9977   -0.1757   -1.3536 H   0  0  0  0  0  0  0  0  0  0  0  0
   -0.0053    2.9094   -0.0570 C   0  0  0  0  0  0  0  0  0  0  0  0
    0.9026    3.2293    0.1585 H   0  0  0  0  0  0  0  0  0  0  0  0
   -0.6719    3.2396    0.5906 H   0  0  0  0  0  0  0  0  0  0  0  0
   -0.2706    3.3139   -1.0338 H   0  0  0  0  0  0  0  0  0  0  0  0
    0.0008    1.4015   -0.0003 C   0  0  0  0  0  0  0  0  0  0  0  0
   -1.2001    0.6856    0.0026 C   0  0  0  0  0  0  0  0  0  0  0  0
   -2.0646    1.1841    0.0056 H   0  0  0  0  0  0  0  0  0  0  0  0
   -1.2080   -0.6947   -0.0000 C   0  0  0  0  0  0  0  0  0  0  0  0
   -2.0818   -1.1940    0.0020 H   0  0  0  0  0  0  0  0  0  0  0  0
   -0.0020   -1.3947   -0.0036 C   0  0  0  0  0  0  0  0  0  0  0  0
   -0.0050   -2.3908   -0.0095 H   0  0  0  0  0  0  0  0  0  0  0  0
    1.2080   -0.6943    0.0000 C   0  0  0  0  0  0  0  0  0  0  0  0
    2.0850   -1.1941    0.0031 H   0  0  0  0  0  0  0  0  0  0  0  0
    1.2013    0.6966    0.0013 C   0  0  0  0  0  0  0  0  0  0  0  0
    2.0666    1.1949    0.0026 H   0  0  0  0  0  0  0  0  0  0  0  0
  1  5  1  0
  5  8  1  0
  1  2  1  0
  1  3  1  0
  1  4  1  0
  5  6  1  0
  5  7  1  0
  8  9  1  0
  8 10  1  0
  8 11  1  0
 12 16  1  0
 16 17  2  0
 17 19  1  0
 19 21  2  0
 21 23  1  0
 23 25  2  0
 25 16  1  0
 12 13  1  0
 12 14  1  0
 12 15  1  0
 17 18  1  0
 19 20  1  0
 21 22  1  0
 23 24  1  0
 25 26  1  0
M  CHG  1   8   1
M  END
>  <PDB_ID>  (1107) 
pdb1r42

>  <RESIDUE_NAME>  (1107) 
LYS   PHE

>  <FRAG_NAME>  (1107) 
ETAM   MBZ

>  <FRAG_ATOM_NUM>  (1107) 
fragi: 11  fragj: 15

>  <atom.prop.CHAIN_ID>  (1107) 
A A A A A A A A A A A Z Z Z Z Z Z Z Z Z Z Z Z Z Z Z

>  <atom.prop.IS_HEAVY_ATOM>  (1107) 
1 0 0 0 1 0 0 1 0 0 0 1 0 0 0 1 1 0 1 0 1 0 1 0 1 0

>  <DIFUSE_FUNC_ATOM>  (1107) 
n/a

>  <FINAL_SINGLE_POINT_ENERGY>  (1107) 
0

>  <NONCOV_INTER_ENERGY_QM>  (1107) 
0

>  <FF_Energy>  (1107) 
-0.23

>  <QM_Energy>  (1107) 
-7.62

>  <source>  (1107) 
ETAM_MBZ

>  <Index>  (1107) 
11038

$$$$
ETAM-pdb1r3e-A-LYS-73:MBZ-pdb1r3e-A-PHE-156
     RDKit          3D

 26 25  0  0  0  0  0  0  0  0999 V2000
   -1.6266   -0.9748   -3.5024 C   0  0  0  0  0  0  0  0  0  0  0  0
   -1.6791   -0.5790   -4.4167 H   0  0  0  0  0  0  0  0  0  0  0  0
   -1.8113   -0.2748   -2.8175 H   0  0  0  0  0  0  0  0  0  0  0  0
   -2.3775   -1.7601   -3.4157 H   0  0  0  0  0  0  0  0  0  0  0  0
   -0.2297   -1.5104   -3.2846 C   0  0  0  0  0  0  0  0  0  0  0  0
   -0.2019   -2.0179   -2.4244 H   0  0  0  0  0  0  0  0  0  0  0  0
    0.0123   -2.1180   -4.0402 H   0  0  0  0  0  0  0  0  0  0  0  0
    0.7549   -0.3931   -3.2236 N   0  0  0  0  0  4  0  0  0  0  0  0
    1.5876   -0.7107   -2.7712 H   0  0  0  0  0  0  0  0  0  0  0  0
    0.9714   -0.0921   -4.1518 H   0  0  0  0  0  0  0  0  0  0  0  0
    0.3610    0.3664   -2.7076 H   0  0  0  0  0  0  0  0  0  0  0  0
   -0.0005    2.9105    0.0022 C   0  0  0  0  0  0  0  0  0  0  0  0
   -0.8583    3.2158   -0.3833 H   0  0  0  0  0  0  0  0  0  0  0  0
    0.7678    3.2161   -0.5399 H   0  0  0  0  0  0  0  0  0  0  0  0
    0.0955    3.3482    0.9958 H   0  0  0  0  0  0  0  0  0  0  0  0
   -0.0008    1.4057   -0.0002 C   0  0  0  0  0  0  0  0  0  0  0  0
   -1.1968    0.6945    0.0011 C   0  0  0  0  0  0  0  0  0  0  0  0
   -2.0650    1.1843    0.0013 H   0  0  0  0  0  0  0  0  0  0  0  0
   -1.2030   -0.6989    0.0000 C   0  0  0  0  0  0  0  0  0  0  0  0
   -2.0789   -1.1915    0.0010 H   0  0  0  0  0  0  0  0  0  0  0  0
    0.0006   -1.3981   -0.0007 C   0  0  0  0  0  0  0  0  0  0  0  0
   -0.0044   -2.3951   -0.0024 H   0  0  0  0  0  0  0  0  0  0  0  0
    1.2030   -0.7005   -0.0000 C   0  0  0  0  0  0  0  0  0  0  0  0
    2.0843   -1.1941    0.0019 H   0  0  0  0  0  0  0  0  0  0  0  0
    1.1971    0.6973   -0.0001 C   0  0  0  0  0  0  0  0  0  0  0  0
    2.0649    1.1913   -0.0008 H   0  0  0  0  0  0  0  0  0  0  0  0
  1  5  1  0
  5  8  1  0
  1  2  1  0
  1  3  1  0
  1  4  1  0
  5  6  1  0
  5  7  1  0
  8  9  1  0
  8 10  1  0
  8 11  1  0
 12 16  1  0
 16 17  2  0
 17 19  1  0
 19 21  2  0
 21 23  1  0
 23 25  2  0
 25 16  1  0
 12 13  1  0
 12 14  1  0
 12 15  1  0
 17 18  1  0
 19 20  1  0
 21 22  1  0
 23 24  1  0
 25 26  1  0
M  CHG  1   8   1
M  END
>  <PDB_ID>  (1108) 
pdb1r3e

>  <RESIDUE_NAME>  (1108) 
LYS   PHE

>  <FRAG_NAME>  (1108) 
ETAM   MBZ

>  <FRAG_ATOM_NUM>  (1108) 
fragi: 11  fragj: 15

>  <atom.prop.CHAIN_ID>  (1108) 
A A A A A A A A A A A Z Z Z Z Z Z Z Z Z Z Z Z Z Z Z

>  <atom.prop.IS_HEAVY_ATOM>  (1108) 
1 0 0 0 1 0 0 1 0 0 0 1 0 0 0 1 1 0 1 0 1 0 1 0 1 0

>  <DIFUSE_FUNC_ATOM>  (1108) 
n/a

>  <FINAL_SINGLE_POINT_ENERGY>  (1108) 
0

>  <NONCOV_INTER_ENERGY_QM>  (1108) 
0

>  <FF_Energy>  (1108) 
-7.19

>  <QM_Energy>  (1108) 
-15.03

>  <source>  (1108) 
ETAM_MBZ

>  <Index>  (1108) 
11050

$$$$
ETAM-pdb2wvy-C-LYS-24:MBZ-pdb2wvy-C-PHE-28
     RDKit          3D

 26 25  0  0  0  0  0  0  0  0999 V2000
   -0.0279   -2.5970   -5.2872 C   0  0  0  0  0  0  0  0  0  0  0  0
   -0.9386   -2.2266   -5.3736 H   0  0  0  0  0  0  0  0  0  0  0  0
   -0.0401   -3.5116   -4.9160 H   0  0  0  0  0  0  0  0  0  0  0  0
    0.4520   -2.6092   -6.2658 H   0  0  0  0  0  0  0  0  0  0  0  0
    0.7675   -1.7004   -4.3339 C   0  0  0  0  0  0  0  0  0  0  0  0
    1.4809   -2.2580   -3.8909 H   0  0  0  0  0  0  0  0  0  0  0  0
    1.2229   -0.9817   -4.8754 H   0  0  0  0  0  0  0  0  0  0  0  0
   -0.0770   -1.0642   -3.2878 N   0  0  0  0  0  4  0  0  0  0  0  0
    0.2275   -0.1233   -3.1427 H   0  0  0  0  0  0  0  0  0  0  0  0
   -1.0310   -1.0653   -3.5856 H   0  0  0  0  0  0  0  0  0  0  0  0
    0.0079   -1.5784   -2.4342 H   0  0  0  0  0  0  0  0  0  0  0  0
    0.0008    2.9004   -0.0007 C   0  0  0  0  0  0  0  0  0  0  0  0
    0.9402    3.2085   -0.0112 H   0  0  0  0  0  0  0  0  0  0  0  0
   -0.4689    3.2060    0.8139 H   0  0  0  0  0  0  0  0  0  0  0  0
   -0.5038    3.3396   -0.8613 H   0  0  0  0  0  0  0  0  0  0  0  0
    0.0022    1.3985   -0.0017 C   0  0  0  0  0  0  0  0  0  0  0  0
   -1.1901    0.6889   -0.0081 C   0  0  0  0  0  0  0  0  0  0  0  0
   -2.0590    1.1776   -0.0201 H   0  0  0  0  0  0  0  0  0  0  0  0
   -1.1936   -0.7002    0.0000 C   0  0  0  0  0  0  0  0  0  0  0  0
   -2.0756   -1.1899    0.0000 H   0  0  0  0  0  0  0  0  0  0  0  0
   -0.0060   -1.3845    0.0100 C   0  0  0  0  0  0  0  0  0  0  0  0
   -0.0047   -2.3891    0.0244 H   0  0  0  0  0  0  0  0  0  0  0  0
    1.1936   -0.6954   -0.0000 C   0  0  0  0  0  0  0  0  0  0  0  0
    2.0743   -1.1954   -0.0059 H   0  0  0  0  0  0  0  0  0  0  0  0
    1.1939    0.6927   -0.0001 C   0  0  0  0  0  0  0  0  0  0  0  0
    2.0642    1.1864    0.0003 H   0  0  0  0  0  0  0  0  0  0  0  0
  1  5  1  0
  5  8  1  0
  1  2  1  0
  1  3  1  0
  1  4  1  0
  5  6  1  0
  5  7  1  0
  8  9  1  0
  8 10  1  0
  8 11  1  0
 12 16  1  0
 16 17  2  0
 17 19  1  0
 19 21  2  0
 21 23  1  0
 23 25  2  0
 25 16  1  0
 12 13  1  0
 12 14  1  0
 12 15  1  0
 17 18  1  0
 19 20  1  0
 21 22  1  0
 23 24  1  0
 25 26  1  0
M  CHG  1   8   1
M  END
>  <PDB_ID>  (1109) 
pdb2wvy

>  <RESIDUE_NAME>  (1109) 
LYS   PHE

>  <FRAG_NAME>  (1109) 
ETAM   MBZ

>  <FRAG_ATOM_NUM>  (1109) 
fragi: 11  fragj: 15

>  <atom.prop.CHAIN_ID>  (1109) 
A A A A A A A A A A A Z Z Z Z Z Z Z Z Z Z Z Z Z Z Z

>  <atom.prop.IS_HEAVY_ATOM>  (1109) 
1 0 0 0 1 0 0 1 0 0 0 1 0 0 0 1 1 0 1 0 1 0 1 0 1 0

>  <DIFUSE_FUNC_ATOM>  (1109) 
n/a

>  <FINAL_SINGLE_POINT_ENERGY>  (1109) 
0

>  <NONCOV_INTER_ENERGY_QM>  (1109) 
0

>  <FF_Energy>  (1109) 
-7.19

>  <QM_Energy>  (1109) 
-14.3

>  <source>  (1109) 
ETAM_MBZ

>  <Index>  (1109) 
11052

$$$$
ETAM-pdb2x71-B-LYS-43:MBZ-pdb2x71-B-PHE-66
     RDKit          3D

 26 25  0  0  0  0  0  0  0  0999 V2000
    0.6768   -4.2017    3.2747 C   0  0  0  0  0  0  0  0  0  0  0  0
   -0.1019   -4.7729    3.5284 H   0  0  0  0  0  0  0  0  0  0  0  0
    1.4581   -4.4174    3.8565 H   0  0  0  0  0  0  0  0  0  0  0  0
    0.9420   -4.4105    2.2383 H   0  0  0  0  0  0  0  0  0  0  0  0
    0.2989   -2.7443    3.4926 C   0  0  0  0  0  0  0  0  0  0  0  0
   -0.2043   -2.4181    2.6919 H   0  0  0  0  0  0  0  0  0  0  0  0
   -0.2868   -2.6797    4.3015 H   0  0  0  0  0  0  0  0  0  0  0  0
    1.5070   -1.9077    3.6906 N   0  0  0  0  0  4  0  0  0  0  0  0
    1.4537   -1.4479    4.5774 H   0  0  0  0  0  0  0  0  0  0  0  0
    2.3227   -2.4863    3.6651 H   0  0  0  0  0  0  0  0  0  0  0  0
    1.5625   -1.2229    2.9629 H   0  0  0  0  0  0  0  0  0  0  0  0
    0.0034    2.9228   -0.0011 C   0  0  0  0  0  0  0  0  0  0  0  0
   -0.7312    3.2248   -0.5872 H   0  0  0  0  0  0  0  0  0  0  0  0
    0.8822    3.2257   -0.3358 H   0  0  0  0  0  0  0  0  0  0  0  0
   -0.1503    3.3614    0.9849 H   0  0  0  0  0  0  0  0  0  0  0  0
    0.0039    1.4098   -0.0034 C   0  0  0  0  0  0  0  0  0  0  0  0
   -1.1971    0.6967   -0.0102 C   0  0  0  0  0  0  0  0  0  0  0  0
   -2.0629    1.1840   -0.0234 H   0  0  0  0  0  0  0  0  0  0  0  0
   -1.2043   -0.7048    0.0000 C   0  0  0  0  0  0  0  0  0  0  0  0
   -2.0833   -1.1909    0.0052 H   0  0  0  0  0  0  0  0  0  0  0  0
   -0.0054   -1.4038    0.0051 C   0  0  0  0  0  0  0  0  0  0  0  0
   -0.0045   -2.3998    0.0122 H   0  0  0  0  0  0  0  0  0  0  0  0
    1.2043   -0.7016    0.0000 C   0  0  0  0  0  0  0  0  0  0  0  0
    2.0828   -1.1948   -0.0080 H   0  0  0  0  0  0  0  0  0  0  0  0
    1.1986    0.7036    0.0084 C   0  0  0  0  0  0  0  0  0  0  0  0
    2.0681    1.1923    0.0223 H   0  0  0  0  0  0  0  0  0  0  0  0
  1  5  1  0
  5  8  1  0
  1  2  1  0
  1  3  1  0
  1  4  1  0
  5  6  1  0
  5  7  1  0
  8  9  1  0
  8 10  1  0
  8 11  1  0
 12 16  1  0
 16 17  2  0
 17 19  1  0
 19 21  2  0
 21 23  1  0
 23 25  2  0
 25 16  1  0
 12 13  1  0
 12 14  1  0
 12 15  1  0
 17 18  1  0
 19 20  1  0
 21 22  1  0
 23 24  1  0
 25 26  1  0
M  CHG  1   8   1
M  END
>  <PDB_ID>  (1110) 
pdb2x71

>  <RESIDUE_NAME>  (1110) 
LYS   PHE

>  <FRAG_NAME>  (1110) 
ETAM   MBZ

>  <FRAG_ATOM_NUM>  (1110) 
fragi: 11  fragj: 15

>  <atom.prop.CHAIN_ID>  (1110) 
A A A A A A A A A A A Z Z Z Z Z Z Z Z Z Z Z Z Z Z Z

>  <atom.prop.IS_HEAVY_ATOM>  (1110) 
1 0 0 0 1 0 0 1 0 0 0 1 0 0 0 1 1 0 1 0 1 0 1 0 1 0

>  <DIFUSE_FUNC_ATOM>  (1110) 
n/a

>  <FINAL_SINGLE_POINT_ENERGY>  (1110) 
0

>  <NONCOV_INTER_ENERGY_QM>  (1110) 
0

>  <FF_Energy>  (1110) 
-4.02

>  <QM_Energy>  (1110) 
-9.45

>  <source>  (1110) 
ETAM_MBZ

>  <Index>  (1110) 
11067

$$$$
ETAM-pdb1r5v-A-LYS-74:MBZ-pdb1r5v-B-PHE-34
     RDKit          3D

 26 25  0  0  0  0  0  0  0  0999 V2000
   -0.4350    1.5756    3.7508 C   0  0  0  0  0  0  0  0  0  0  0  0
    0.1479    2.1765    3.2157 H   0  0  0  0  0  0  0  0  0  0  0  0
   -0.2920    1.7266    4.7217 H   0  0  0  0  0  0  0  0  0  0  0  0
   -1.4774    1.7822    3.5076 H   0  0  0  0  0  0  0  0  0  0  0  0
   -0.0938    0.1484    3.4245 C   0  0  0  0  0  0  0  0  0  0  0  0
   -0.7578   -0.4568    3.8753 H   0  0  0  0  0  0  0  0  0  0  0  0
   -0.1607    0.0157    2.4306 H   0  0  0  0  0  0  0  0  0  0  0  0
    1.2560   -0.1826    3.8737 N   0  0  0  0  0  4  0  0  0  0  0  0
    1.6982   -0.7970    3.2139 H   0  0  0  0  0  0  0  0  0  0  0  0
    1.8070    0.6528    3.9578 H   0  0  0  0  0  0  0  0  0  0  0  0
    1.2206   -0.6388    4.7682 H   0  0  0  0  0  0  0  0  0  0  0  0
    0.0249    2.9004   -0.0166 C   0  0  0  0  0  0  0  0  0  0  0  0
    0.8328    3.1979    0.4634 H   0  0  0  0  0  0  0  0  0  0  0  0
   -0.7987    3.2198    0.4207 H   0  0  0  0  0  0  0  0  0  0  0  0
    0.0568    3.3212   -1.0215 H   0  0  0  0  0  0  0  0  0  0  0  0
    0.0043    1.3905    0.0001 C   0  0  0  0  0  0  0  0  0  0  0  0
   -1.1980    0.6926   -0.0023 C   0  0  0  0  0  0  0  0  0  0  0  0
   -2.0589    1.1936   -0.0074 H   0  0  0  0  0  0  0  0  0  0  0  0
   -1.2056   -0.6831    0.0000 C   0  0  0  0  0  0  0  0  0  0  0  0
   -2.0807   -1.1829    0.0005 H   0  0  0  0  0  0  0  0  0  0  0  0
   -0.0046   -1.3796    0.0033 C   0  0  0  0  0  0  0  0  0  0  0  0
   -0.0123   -2.3819    0.0070 H   0  0  0  0  0  0  0  0  0  0  0  0
    1.2056   -0.6942   -0.0000 C   0  0  0  0  0  0  0  0  0  0  0  0
    2.0772   -1.2053   -0.0001 H   0  0  0  0  0  0  0  0  0  0  0  0
    1.1983    0.6738   -0.0011 C   0  0  0  0  0  0  0  0  0  0  0  0
    2.0672    1.1824   -0.0035 H   0  0  0  0  0  0  0  0  0  0  0  0
  1  5  1  0
  5  8  1  0
  1  2  1  0
  1  3  1  0
  1  4  1  0
  5  6  1  0
  5  7  1  0
  8  9  1  0
  8 10  1  0
  8 11  1  0
 12 16  1  0
 16 17  2  0
 17 19  1  0
 19 21  2  0
 21 23  1  0
 23 25  2  0
 25 16  1  0
 12 13  1  0
 12 14  1  0
 12 15  1  0
 17 18  1  0
 19 20  1  0
 21 22  1  0
 23 24  1  0
 25 26  1  0
M  CHG  1   8   1
M  END
>  <PDB_ID>  (1111) 
pdb1r5v

>  <RESIDUE_NAME>  (1111) 
LYS   PHE

>  <FRAG_NAME>  (1111) 
ETAM   MBZ

>  <FRAG_ATOM_NUM>  (1111) 
fragi: 11  fragj: 15

>  <atom.prop.CHAIN_ID>  (1111) 
A A A A A A A A A A A Z Z Z Z Z Z Z Z Z Z Z Z Z Z Z

>  <atom.prop.IS_HEAVY_ATOM>  (1111) 
1 0 0 0 1 0 0 1 0 0 0 1 0 0 0 1 1 0 1 0 1 0 1 0 1 0

>  <DIFUSE_FUNC_ATOM>  (1111) 
n/a

>  <FINAL_SINGLE_POINT_ENERGY>  (1111) 
0

>  <NONCOV_INTER_ENERGY_QM>  (1111) 
0

>  <FF_Energy>  (1111) 
-6.11

>  <QM_Energy>  (1111) 
-12.24

>  <source>  (1111) 
ETAM_MBZ

>  <Index>  (1111) 
11077

$$$$
ETAM-pdb1r5v-C-LYS-74:MBZ-pdb1r5v-D-PHE-34
     RDKit          3D

 26 25  0  0  0  0  0  0  0  0999 V2000
   -0.4021    1.5347    3.7371 C   0  0  0  0  0  0  0  0  0  0  0  0
    0.1754    2.1552    3.2071 H   0  0  0  0  0  0  0  0  0  0  0  0
   -0.2443    1.6821    4.7123 H   0  0  0  0  0  0  0  0  0  0  0  0
   -1.4470    1.7481    3.5119 H   0  0  0  0  0  0  0  0  0  0  0  0
   -0.0651    0.1383    3.3931 C   0  0  0  0  0  0  0  0  0  0  0  0
   -0.7004   -0.4915    3.8494 H   0  0  0  0  0  0  0  0  0  0  0  0
   -0.1331    0.0033    2.4005 H   0  0  0  0  0  0  0  0  0  0  0  0
    1.3160   -0.1862    3.8232 N   0  0  0  0  0  4  0  0  0  0  0  0
    1.6466    0.5218    4.4476 H   0  0  0  0  0  0  0  0  0  0  0  0
    1.3213   -1.0712    4.2905 H   0  0  0  0  0  0  0  0  0  0  0  0
    1.9145   -0.2290    3.0229 H   0  0  0  0  0  0  0  0  0  0  0  0
    0.0066    2.9026   -0.0102 C   0  0  0  0  0  0  0  0  0  0  0  0
    0.8119    3.2083    0.4721 H   0  0  0  0  0  0  0  0  0  0  0  0
   -0.8210    3.2125    0.4300 H   0  0  0  0  0  0  0  0  0  0  0  0
    0.0336    3.3287   -1.0131 H   0  0  0  0  0  0  0  0  0  0  0  0
    0.0020    1.3966    0.0008 C   0  0  0  0  0  0  0  0  0  0  0  0
   -1.2020    0.6889   -0.0028 C   0  0  0  0  0  0  0  0  0  0  0  0
   -2.0645    1.1824   -0.0085 H   0  0  0  0  0  0  0  0  0  0  0  0
   -1.2076   -0.7010    0.0000 C   0  0  0  0  0  0  0  0  0  0  0  0
   -2.0792   -1.1962    0.0036 H   0  0  0  0  0  0  0  0  0  0  0  0
   -0.0015   -1.3840    0.0005 C   0  0  0  0  0  0  0  0  0  0  0  0
    0.0041   -2.3865    0.0010 H   0  0  0  0  0  0  0  0  0  0  0  0
    1.2076   -0.6852   -0.0000 C   0  0  0  0  0  0  0  0  0  0  0  0
    2.0834   -1.1950    0.0001 H   0  0  0  0  0  0  0  0  0  0  0  0
    1.2015    0.6847    0.0015 C   0  0  0  0  0  0  0  0  0  0  0  0
    2.0668    1.1936    0.0027 H   0  0  0  0  0  0  0  0  0  0  0  0
  1  5  1  0
  5  8  1  0
  1  2  1  0
  1  3  1  0
  1  4  1  0
  5  6  1  0
  5  7  1  0
  8  9  1  0
  8 10  1  0
  8 11  1  0
 12 16  1  0
 16 17  2  0
 17 19  1  0
 19 21  2  0
 21 23  1  0
 23 25  2  0
 25 16  1  0
 12 13  1  0
 12 14  1  0
 12 15  1  0
 17 18  1  0
 19 20  1  0
 21 22  1  0
 23 24  1  0
 25 26  1  0
M  CHG  1   8   1
M  END
>  <PDB_ID>  (1112) 
pdb1r5v

>  <RESIDUE_NAME>  (1112) 
LYS   PHE

>  <FRAG_NAME>  (1112) 
ETAM   MBZ

>  <FRAG_ATOM_NUM>  (1112) 
fragi: 11  fragj: 15

>  <atom.prop.CHAIN_ID>  (1112) 
A A A A A A A A A A A Z Z Z Z Z Z Z Z Z Z Z Z Z Z Z

>  <atom.prop.IS_HEAVY_ATOM>  (1112) 
1 0 0 0 1 0 0 1 0 0 0 1 0 0 0 1 1 0 1 0 1 0 1 0 1 0

>  <DIFUSE_FUNC_ATOM>  (1112) 
n/a

>  <FINAL_SINGLE_POINT_ENERGY>  (1112) 
0

>  <NONCOV_INTER_ENERGY_QM>  (1112) 
0

>  <FF_Energy>  (1112) 
-6.05

>  <QM_Energy>  (1112) 
-12.78

>  <source>  (1112) 
ETAM_MBZ

>  <Index>  (1112) 
11079

$$$$
ETAM-pdb1r45-B-LYS-161:MBZ-pdb1r45-B-PHE-139
     RDKit          3D

 26 25  0  0  0  0  0  0  0  0999 V2000
    4.3578   -1.6205   -0.6292 C   0  0  0  0  0  0  0  0  0  0  0  0
    3.5352   -1.9408   -1.1046 H   0  0  0  0  0  0  0  0  0  0  0  0
    4.0884   -0.9829    0.0964 H   0  0  0  0  0  0  0  0  0  0  0  0
    4.8424   -2.4808   -0.1676 H   0  0  0  0  0  0  0  0  0  0  0  0
    5.2383   -0.8781   -1.6263 C   0  0  0  0  0  0  0  0  0  0  0  0
    6.0139   -0.4916   -1.1576 H   0  0  0  0  0  0  0  0  0  0  0  0
    5.5116   -1.4916   -2.3469 H   0  0  0  0  0  0  0  0  0  0  0  0
    4.4201    0.2474   -2.2282 N   0  0  0  0  0  4  0  0  0  0  0  0
    3.6144   -0.1427   -2.6637 H   0  0  0  0  0  0  0  0  0  0  0  0
    4.1516    0.8692   -1.4997 H   0  0  0  0  0  0  0  0  0  0  0  0
    4.9799    0.7232   -2.8998 H   0  0  0  0  0  0  0  0  0  0  0  0
    0.0083    2.8669    0.0157 C   0  0  0  0  0  0  0  0  0  0  0  0
    0.9386    3.1739   -0.1319 H   0  0  0  0  0  0  0  0  0  0  0  0
   -0.3345    3.1776    0.8916 H   0  0  0  0  0  0  0  0  0  0  0  0
   -0.6130    3.3176   -0.7583 H   0  0  0  0  0  0  0  0  0  0  0  0
   -0.0042    1.3806    0.0049 C   0  0  0  0  0  0  0  0  0  0  0  0
   -1.1974    0.6895    0.0309 C   0  0  0  0  0  0  0  0  0  0  0  0
   -2.0616    1.1735    0.0700 H   0  0  0  0  0  0  0  0  0  0  0  0
   -1.1915   -0.7003    0.0000 C   0  0  0  0  0  0  0  0  0  0  0  0
   -2.0638   -1.1985   -0.0044 H   0  0  0  0  0  0  0  0  0  0  0  0
    0.0091   -1.3695   -0.0215 C   0  0  0  0  0  0  0  0  0  0  0  0
    0.0113   -2.3792   -0.0542 H   0  0  0  0  0  0  0  0  0  0  0  0
    1.1915   -0.6821   -0.0000 C   0  0  0  0  0  0  0  0  0  0  0  0
    2.0783   -1.1887    0.0284 H   0  0  0  0  0  0  0  0  0  0  0  0
    1.1925    0.6817   -0.0142 C   0  0  0  0  0  0  0  0  0  0  0  0
    2.0553    1.1885   -0.0398 H   0  0  0  0  0  0  0  0  0  0  0  0
  1  5  1  0
  5  8  1  0
  1  2  1  0
  1  3  1  0
  1  4  1  0
  5  6  1  0
  5  7  1  0
  8  9  1  0
  8 10  1  0
  8 11  1  0
 12 16  1  0
 16 17  2  0
 17 19  1  0
 19 21  2  0
 21 23  1  0
 23 25  2  0
 25 16  1  0
 12 13  1  0
 12 14  1  0
 12 15  1  0
 17 18  1  0
 19 20  1  0
 21 22  1  0
 23 24  1  0
 25 26  1  0
M  CHG  1   8   1
M  END
>  <PDB_ID>  (1113) 
pdb1r45

>  <RESIDUE_NAME>  (1113) 
LYS   PHE

>  <FRAG_NAME>  (1113) 
ETAM   MBZ

>  <FRAG_ATOM_NUM>  (1113) 
fragi: 11  fragj: 15

>  <atom.prop.CHAIN_ID>  (1113) 
A A A A A A A A A A A Z Z Z Z Z Z Z Z Z Z Z Z Z Z Z

>  <atom.prop.IS_HEAVY_ATOM>  (1113) 
1 0 0 0 1 0 0 1 0 0 0 1 0 0 0 1 1 0 1 0 1 0 1 0 1 0

>  <DIFUSE_FUNC_ATOM>  (1113) 
n/a

>  <FINAL_SINGLE_POINT_ENERGY>  (1113) 
0

>  <NONCOV_INTER_ENERGY_QM>  (1113) 
0

>  <FF_Energy>  (1113) 
2.85

>  <QM_Energy>  (1113) 
-2.31

>  <source>  (1113) 
ETAM_MBZ

>  <Index>  (1113) 
11080

$$$$
ETAM-pdb2xam-A-LYS-433:MBZ-pdb2xam-A-PHE-429
     RDKit          3D

 26 25  0  0  0  0  0  0  0  0999 V2000
    0.4674   -2.8259    3.6670 C   0  0  0  0  0  0  0  0  0  0  0  0
    1.3794   -3.2175    3.6349 H   0  0  0  0  0  0  0  0  0  0  0  0
   -0.0118   -3.1204    4.4842 H   0  0  0  0  0  0  0  0  0  0  0  0
    0.5503   -1.7392    3.6777 H   0  0  0  0  0  0  0  0  0  0  0  0
   -0.3099   -3.3030    2.4488 C   0  0  0  0  0  0  0  0  0  0  0  0
   -1.2906   -3.1740    2.6189 H   0  0  0  0  0  0  0  0  0  0  0  0
   -0.0423   -2.7498    1.6557 H   0  0  0  0  0  0  0  0  0  0  0  0
   -0.0499   -4.7394    2.1526 N   0  0  0  0  0  4  0  0  0  0  0  0
    0.8231   -4.8262    1.6748 H   0  0  0  0  0  0  0  0  0  0  0  0
   -0.0160   -5.2528    3.0093 H   0  0  0  0  0  0  0  0  0  0  0  0
   -0.7845   -5.0966    1.5767 H   0  0  0  0  0  0  0  0  0  0  0  0
    0.0012    2.9019   -0.0015 C   0  0  0  0  0  0  0  0  0  0  0  0
   -0.6188    3.2095   -0.7054 H   0  0  0  0  0  0  0  0  0  0  0  0
    0.9243    3.2075   -0.1707 H   0  0  0  0  0  0  0  0  0  0  0  0
   -0.3262    3.3341    0.9440 H   0  0  0  0  0  0  0  0  0  0  0  0
    0.0004    1.3991   -0.0036 C   0  0  0  0  0  0  0  0  0  0  0  0
   -1.1887    0.6971   -0.0015 C   0  0  0  0  0  0  0  0  0  0  0  0
   -2.0579    1.1867   -0.0028 H   0  0  0  0  0  0  0  0  0  0  0  0
   -1.1944   -0.6892   -0.0000 C   0  0  0  0  0  0  0  0  0  0  0  0
   -2.0761   -1.1813    0.0030 H   0  0  0  0  0  0  0  0  0  0  0  0
   -0.0018   -1.3902   -0.0001 C   0  0  0  0  0  0  0  0  0  0  0  0
   -0.0129   -2.3901   -0.0004 H   0  0  0  0  0  0  0  0  0  0  0  0
    1.1944   -0.7037    0.0000 C   0  0  0  0  0  0  0  0  0  0  0  0
    2.0763   -1.1994   -0.0019 H   0  0  0  0  0  0  0  0  0  0  0  0
    1.1902    0.6870    0.0052 C   0  0  0  0  0  0  0  0  0  0  0  0
    2.0631    1.1807    0.0147 H   0  0  0  0  0  0  0  0  0  0  0  0
  1  5  1  0
  5  8  1  0
  1  2  1  0
  1  3  1  0
  1  4  1  0
  5  6  1  0
  5  7  1  0
  8  9  1  0
  8 10  1  0
  8 11  1  0
 12 16  1  0
 16 17  2  0
 17 19  1  0
 19 21  2  0
 21 23  1  0
 23 25  2  0
 25 16  1  0
 12 13  1  0
 12 14  1  0
 12 15  1  0
 17 18  1  0
 19 20  1  0
 21 22  1  0
 23 24  1  0
 25 26  1  0
M  CHG  1   8   1
M  END
>  <PDB_ID>  (1114) 
pdb2xam

>  <RESIDUE_NAME>  (1114) 
LYS   PHE

>  <FRAG_NAME>  (1114) 
ETAM   MBZ

>  <FRAG_ATOM_NUM>  (1114) 
fragi: 11  fragj: 15

>  <atom.prop.CHAIN_ID>  (1114) 
A A A A A A A A A A A Z Z Z Z Z Z Z Z Z Z Z Z Z Z Z

>  <atom.prop.IS_HEAVY_ATOM>  (1114) 
1 0 0 0 1 0 0 1 0 0 0 1 0 0 0 1 1 0 1 0 1 0 1 0 1 0

>  <DIFUSE_FUNC_ATOM>  (1114) 
n/a

>  <FINAL_SINGLE_POINT_ENERGY>  (1114) 
0

>  <NONCOV_INTER_ENERGY_QM>  (1114) 
0

>  <FF_Energy>  (1114) 
15.88

>  <QM_Energy>  (1114) 
-1.13

>  <source>  (1114) 
ETAM_MBZ

>  <Index>  (1114) 
11113

$$$$
ETAM-pdb2xci-B-LYS-40:MBZ-pdb2xci-B-PHE-67
     RDKit          3D

 26 25  0  0  0  0  0  0  0  0999 V2000
   -3.2006   -2.1887    2.9105 C   0  0  0  0  0  0  0  0  0  0  0  0
   -4.0977   -2.4128    3.2879 H   0  0  0  0  0  0  0  0  0  0  0  0
   -3.2294   -2.2483    1.9140 H   0  0  0  0  0  0  0  0  0  0  0  0
   -2.9527   -1.1648    3.1903 H   0  0  0  0  0  0  0  0  0  0  0  0
   -2.1882   -3.1954    3.4293 C   0  0  0  0  0  0  0  0  0  0  0  0
   -2.2354   -3.2129    4.4370 H   0  0  0  0  0  0  0  0  0  0  0  0
   -2.4377   -4.1122    3.0896 H   0  0  0  0  0  0  0  0  0  0  0  0
   -0.7985   -2.8845    3.0121 N   0  0  0  0  0  4  0  0  0  0  0  0
   -0.5010   -2.0351    3.4488 H   0  0  0  0  0  0  0  0  0  0  0  0
   -0.1920   -3.6308    3.2887 H   0  0  0  0  0  0  0  0  0  0  0  0
   -0.7645   -2.7787    2.0179 H   0  0  0  0  0  0  0  0  0  0  0  0
   -0.0059    2.8791   -0.0089 C   0  0  0  0  0  0  0  0  0  0  0  0
    0.9274    3.1938    0.0803 H   0  0  0  0  0  0  0  0  0  0  0  0
   -0.5662    3.1945    0.7418 H   0  0  0  0  0  0  0  0  0  0  0  0
   -0.4127    3.2996   -0.9285 H   0  0  0  0  0  0  0  0  0  0  0  0
   -0.0023    1.3934    0.0019 C   0  0  0  0  0  0  0  0  0  0  0  0
   -1.1958    0.6935   -0.0007 C   0  0  0  0  0  0  0  0  0  0  0  0
   -2.0621    1.1797   -0.0040 H   0  0  0  0  0  0  0  0  0  0  0  0
   -1.1971   -0.6992   -0.0000 C   0  0  0  0  0  0  0  0  0  0  0  0
   -2.0713   -1.1938    0.0015 H   0  0  0  0  0  0  0  0  0  0  0  0
    0.0064   -1.3846    0.0006 C   0  0  0  0  0  0  0  0  0  0  0  0
    0.0031   -2.3885    0.0014 H   0  0  0  0  0  0  0  0  0  0  0  0
    1.1971   -0.6932    0.0000 C   0  0  0  0  0  0  0  0  0  0  0  0
    2.0823   -1.1906    0.0021 H   0  0  0  0  0  0  0  0  0  0  0  0
    1.1917    0.6901   -0.0018 C   0  0  0  0  0  0  0  0  0  0  0  0
    2.0601    1.1900   -0.0068 H   0  0  0  0  0  0  0  0  0  0  0  0
  1  5  1  0
  5  8  1  0
  1  2  1  0
  1  3  1  0
  1  4  1  0
  5  6  1  0
  5  7  1  0
  8  9  1  0
  8 10  1  0
  8 11  1  0
 12 16  1  0
 16 17  2  0
 17 19  1  0
 19 21  2  0
 21 23  1  0
 23 25  2  0
 25 16  1  0
 12 13  1  0
 12 14  1  0
 12 15  1  0
 17 18  1  0
 19 20  1  0
 21 22  1  0
 23 24  1  0
 25 26  1  0
M  CHG  1   8   1
M  END
>  <PDB_ID>  (1115) 
pdb2xci

>  <RESIDUE_NAME>  (1115) 
LYS   PHE

>  <FRAG_NAME>  (1115) 
ETAM   MBZ

>  <FRAG_ATOM_NUM>  (1115) 
fragi: 11  fragj: 15

>  <atom.prop.CHAIN_ID>  (1115) 
A A A A A A A A A A A Z Z Z Z Z Z Z Z Z Z Z Z Z Z Z

>  <atom.prop.IS_HEAVY_ATOM>  (1115) 
1 0 0 0 1 0 0 1 0 0 0 1 0 0 0 1 1 0 1 0 1 0 1 0 1 0

>  <DIFUSE_FUNC_ATOM>  (1115) 
n/a

>  <FINAL_SINGLE_POINT_ENERGY>  (1115) 
0

>  <NONCOV_INTER_ENERGY_QM>  (1115) 
0

>  <FF_Energy>  (1115) 
-3.04

>  <QM_Energy>  (1115) 
-9.08

>  <source>  (1115) 
ETAM_MBZ

>  <Index>  (1115) 
11117

$$$$
ETAM-pdb2xci-D-LYS-345:MBZ-pdb2xci-D-PHE-156
     RDKit          3D

 26 25  0  0  0  0  0  0  0  0999 V2000
   -0.0311    1.1592    3.9934 C   0  0  0  0  0  0  0  0  0  0  0  0
    0.3903    0.7145    3.2104 H   0  0  0  0  0  0  0  0  0  0  0  0
   -0.2874    0.4879    4.6791 H   0  0  0  0  0  0  0  0  0  0  0  0
    0.6756    1.8664    4.4277 H   0  0  0  0  0  0  0  0  0  0  0  0
   -1.2943    1.8682    3.5205 C   0  0  0  0  0  0  0  0  0  0  0  0
   -1.6954    2.3664    4.2897 H   0  0  0  0  0  0  0  0  0  0  0  0
   -1.0525    2.5153    2.7962 H   0  0  0  0  0  0  0  0  0  0  0  0
   -2.3014    0.8960    2.9905 N   0  0  0  0  0  4  0  0  0  0  0  0
   -2.5871    1.1854    2.0788 H   0  0  0  0  0  0  0  0  0  0  0  0
   -1.8876   -0.0111    2.9426 H   0  0  0  0  0  0  0  0  0  0  0  0
   -3.0902    0.8752    3.6020 H   0  0  0  0  0  0  0  0  0  0  0  0
    0.0004    2.9164    0.0109 C   0  0  0  0  0  0  0  0  0  0  0  0
    0.7827    3.2136    0.5411 H   0  0  0  0  0  0  0  0  0  0  0  0
   -0.8465    3.2131    0.4312 H   0  0  0  0  0  0  0  0  0  0  0  0
    0.0660    3.3846   -0.9713 H   0  0  0  0  0  0  0  0  0  0  0  0
    0.0032    1.4075   -0.0115 C   0  0  0  0  0  0  0  0  0  0  0  0
   -1.1891    0.6955    0.0017 C   0  0  0  0  0  0  0  0  0  0  0  0
   -2.0593    1.1815    0.0114 H   0  0  0  0  0  0  0  0  0  0  0  0
   -1.1945   -0.7019    0.0000 C   0  0  0  0  0  0  0  0  0  0  0  0
   -2.0803   -1.1857   -0.0036 H   0  0  0  0  0  0  0  0  0  0  0  0
   -0.0096   -1.3955    0.0054 C   0  0  0  0  0  0  0  0  0  0  0  0
   -0.0101   -2.3961    0.0129 H   0  0  0  0  0  0  0  0  0  0  0  0
    1.1945   -0.7034   -0.0000 C   0  0  0  0  0  0  0  0  0  0  0  0
    2.0745   -1.2000   -0.0059 H   0  0  0  0  0  0  0  0  0  0  0  0
    1.1955    0.6979    0.0043 C   0  0  0  0  0  0  0  0  0  0  0  0
    2.0663    1.1855    0.0180 H   0  0  0  0  0  0  0  0  0  0  0  0
  1  5  1  0
  5  8  1  0
  1  2  1  0
  1  3  1  0
  1  4  1  0
  5  6  1  0
  5  7  1  0
  8  9  1  0
  8 10  1  0
  8 11  1  0
 12 16  1  0
 16 17  2  0
 17 19  1  0
 19 21  2  0
 21 23  1  0
 23 25  2  0
 25 16  1  0
 12 13  1  0
 12 14  1  0
 12 15  1  0
 17 18  1  0
 19 20  1  0
 21 22  1  0
 23 24  1  0
 25 26  1  0
M  CHG  1   8   1
M  END
>  <PDB_ID>  (1116) 
pdb2xci

>  <RESIDUE_NAME>  (1116) 
LYS   PHE

>  <FRAG_NAME>  (1116) 
ETAM   MBZ

>  <FRAG_ATOM_NUM>  (1116) 
fragi: 11  fragj: 15

>  <atom.prop.CHAIN_ID>  (1116) 
A A A A A A A A A A A Z Z Z Z Z Z Z Z Z Z Z Z Z Z Z

>  <atom.prop.IS_HEAVY_ATOM>  (1116) 
1 0 0 0 1 0 0 1 0 0 0 1 0 0 0 1 1 0 1 0 1 0 1 0 1 0

>  <DIFUSE_FUNC_ATOM>  (1116) 
n/a

>  <FINAL_SINGLE_POINT_ENERGY>  (1116) 
0

>  <NONCOV_INTER_ENERGY_QM>  (1116) 
0

>  <FF_Energy>  (1116) 
-5.18

>  <QM_Energy>  (1116) 
-11.34

>  <source>  (1116) 
ETAM_MBZ

>  <Index>  (1116) 
11129

$$$$
ETAM-pdb2xd3-A-LYS-274:MBZ-pdb2xd3-A-PHE-278
     RDKit          3D

 26 25  0  0  0  0  0  0  0  0999 V2000
    0.6636   -2.7874    5.0969 C   0  0  0  0  0  0  0  0  0  0  0  0
    0.7109   -1.9539    5.6414 H   0  0  0  0  0  0  0  0  0  0  0  0
    0.6552   -3.5849    5.6958 H   0  0  0  0  0  0  0  0  0  0  0  0
   -0.2669   -2.7732    4.5293 H   0  0  0  0  0  0  0  0  0  0  0  0
    1.8992   -2.8598    4.2037 C   0  0  0  0  0  0  0  0  0  0  0  0
    2.7216   -2.7153    4.7774 H   0  0  0  0  0  0  0  0  0  0  0  0
    1.9617   -3.7922    3.8126 H   0  0  0  0  0  0  0  0  0  0  0  0
    1.9092   -1.8671    3.0865 N   0  0  0  0  0  4  0  0  0  0  0  0
    1.0632   -1.9539    2.5626 H   0  0  0  0  0  0  0  0  0  0  0  0
    1.9776   -0.9460    3.4659 H   0  0  0  0  0  0  0  0  0  0  0  0
    2.6927   -2.0473    2.4947 H   0  0  0  0  0  0  0  0  0  0  0  0
   -0.0287    2.9187   -0.0118 C   0  0  0  0  0  0  0  0  0  0  0  0
   -0.7046    3.2172    0.6490 H   0  0  0  0  0  0  0  0  0  0  0  0
   -0.2749    3.2108   -0.9267 H   0  0  0  0  0  0  0  0  0  0  0  0
    0.9202    3.3896    0.2453 H   0  0  0  0  0  0  0  0  0  0  0  0
   -0.0033    1.4117    0.0010 C   0  0  0  0  0  0  0  0  0  0  0  0
   -1.2050    0.6974    0.0048 C   0  0  0  0  0  0  0  0  0  0  0  0
   -2.0711    1.1849    0.0099 H   0  0  0  0  0  0  0  0  0  0  0  0
   -1.2100   -0.7037    0.0000 C   0  0  0  0  0  0  0  0  0  0  0  0
   -2.0802   -1.1972   -0.0032 H   0  0  0  0  0  0  0  0  0  0  0  0
    0.0058   -1.4044    0.0013 C   0  0  0  0  0  0  0  0  0  0  0  0
    0.0026   -2.3982    0.0023 H   0  0  0  0  0  0  0  0  0  0  0  0
    1.2100   -0.6985   -0.0000 C   0  0  0  0  0  0  0  0  0  0  0  0
    2.0914   -1.1937    0.0055 H   0  0  0  0  0  0  0  0  0  0  0  0
    1.2026    0.6975   -0.0071 C   0  0  0  0  0  0  0  0  0  0  0  0
    2.0670    1.1963   -0.0192 H   0  0  0  0  0  0  0  0  0  0  0  0
  1  5  1  0
  5  8  1  0
  1  2  1  0
  1  3  1  0
  1  4  1  0
  5  6  1  0
  5  7  1  0
  8  9  1  0
  8 10  1  0
  8 11  1  0
 12 16  1  0
 16 17  2  0
 17 19  1  0
 19 21  2  0
 21 23  1  0
 23 25  2  0
 25 16  1  0
 12 13  1  0
 12 14  1  0
 12 15  1  0
 17 18  1  0
 19 20  1  0
 21 22  1  0
 23 24  1  0
 25 26  1  0
M  CHG  1   8   1
M  END
>  <PDB_ID>  (1117) 
pdb2xd3

>  <RESIDUE_NAME>  (1117) 
LYS   PHE

>  <FRAG_NAME>  (1117) 
ETAM   MBZ

>  <FRAG_ATOM_NUM>  (1117) 
fragi: 11  fragj: 15

>  <atom.prop.CHAIN_ID>  (1117) 
A A A A A A A A A A A Z Z Z Z Z Z Z Z Z Z Z Z Z Z Z

>  <atom.prop.IS_HEAVY_ATOM>  (1117) 
1 0 0 0 1 0 0 1 0 0 0 1 0 0 0 1 1 0 1 0 1 0 1 0 1 0

>  <DIFUSE_FUNC_ATOM>  (1117) 
n/a

>  <FINAL_SINGLE_POINT_ENERGY>  (1117) 
0

>  <NONCOV_INTER_ENERGY_QM>  (1117) 
0

>  <FF_Energy>  (1117) 
-3.41

>  <QM_Energy>  (1117) 
-9.75

>  <source>  (1117) 
ETAM_MBZ

>  <Index>  (1117) 
11162

$$$$
ETAM-pdb2xdp-A-LYS-979:MBZ-pdb2xdp-A-PHE-922
     RDKit          3D

 26 25  0  0  0  0  0  0  0  0999 V2000
    1.3366   -2.8019   -3.5938 C   0  0  0  0  0  0  0  0  0  0  0  0
    2.2411   -3.2113   -3.5821 H   0  0  0  0  0  0  0  0  0  0  0  0
    1.0316   -2.6518   -4.5269 H   0  0  0  0  0  0  0  0  0  0  0  0
    0.6429   -3.4928   -3.1146 H   0  0  0  0  0  0  0  0  0  0  0  0
    1.3801   -1.4797   -2.8672 C   0  0  0  0  0  0  0  0  0  0  0  0
    0.5126   -0.9874   -3.0227 H   0  0  0  0  0  0  0  0  0  0  0  0
    1.4681   -1.6486   -1.8759 H   0  0  0  0  0  0  0  0  0  0  0  0
    2.5113   -0.6045   -3.3052 N   0  0  0  0  0  4  0  0  0  0  0  0
    2.8237   -0.8994   -4.2065 H   0  0  0  0  0  0  0  0  0  0  0  0
    2.1959    0.3419   -3.3495 H   0  0  0  0  0  0  0  0  0  0  0  0
    3.2589   -0.6810   -2.6471 H   0  0  0  0  0  0  0  0  0  0  0  0
    0.0226    2.9025    0.0334 C   0  0  0  0  0  0  0  0  0  0  0  0
    0.9623    3.1995    0.1407 H   0  0  0  0  0  0  0  0  0  0  0  0
   -0.5303    3.1924    0.8038 H   0  0  0  0  0  0  0  0  0  0  0  0
   -0.3769    3.3812   -0.8606 H   0  0  0  0  0  0  0  0  0  0  0  0
    0.0119    1.4011   -0.0072 C   0  0  0  0  0  0  0  0  0  0  0  0
   -1.1863    0.7041    0.0127 C   0  0  0  0  0  0  0  0  0  0  0  0
   -2.0489    1.1921    0.0349 H   0  0  0  0  0  0  0  0  0  0  0  0
   -1.1861   -0.6864    0.0000 C   0  0  0  0  0  0  0  0  0  0  0  0
   -2.0824   -1.1707   -0.0025 H   0  0  0  0  0  0  0  0  0  0  0  0
   -0.0170   -1.3924   -0.0076 C   0  0  0  0  0  0  0  0  0  0  0  0
   -0.0276   -2.3930   -0.0189 H   0  0  0  0  0  0  0  0  0  0  0  0
    1.1861   -0.7130   -0.0000 C   0  0  0  0  0  0  0  0  0  0  0  0
    2.0647   -1.2113    0.0054 H   0  0  0  0  0  0  0  0  0  0  0  0
    1.1914    0.6866    0.0021 C   0  0  0  0  0  0  0  0  0  0  0  0
    2.0692    1.1680    0.0096 H   0  0  0  0  0  0  0  0  0  0  0  0
  1  5  1  0
  5  8  1  0
  1  2  1  0
  1  3  1  0
  1  4  1  0
  5  6  1  0
  5  7  1  0
  8  9  1  0
  8 10  1  0
  8 11  1  0
 12 16  1  0
 16 17  2  0
 17 19  1  0
 19 21  2  0
 21 23  1  0
 23 25  2  0
 25 16  1  0
 12 13  1  0
 12 14  1  0
 12 15  1  0
 17 18  1  0
 19 20  1  0
 21 22  1  0
 23 24  1  0
 25 26  1  0
M  CHG  1   8   1
M  END
>  <PDB_ID>  (1118) 
pdb2xdp

>  <RESIDUE_NAME>  (1118) 
LYS   PHE

>  <FRAG_NAME>  (1118) 
ETAM   MBZ

>  <FRAG_ATOM_NUM>  (1118) 
fragi: 11  fragj: 15

>  <atom.prop.CHAIN_ID>  (1118) 
A A A A A A A A A A A Z Z Z Z Z Z Z Z Z Z Z Z Z Z Z

>  <atom.prop.IS_HEAVY_ATOM>  (1118) 
1 0 0 0 1 0 0 1 0 0 0 1 0 0 0 1 1 0 1 0 1 0 1 0 1 0

>  <DIFUSE_FUNC_ATOM>  (1118) 
n/a

>  <FINAL_SINGLE_POINT_ENERGY>  (1118) 
0

>  <NONCOV_INTER_ENERGY_QM>  (1118) 
0

>  <FF_Energy>  (1118) 
9.49

>  <QM_Energy>  (1118) 
-4.15

>  <source>  (1118) 
ETAM_MBZ

>  <Index>  (1118) 
11175

$$$$
ETAM-pdb1r9n-B-LYS-523:MBZ-pdb1r9n-B-PHE-516
     RDKit          3D

 26 25  0  0  0  0  0  0  0  0999 V2000
   -0.1822    0.1800   -4.3554 C   0  0  0  0  0  0  0  0  0  0  0  0
   -0.0334    0.0800   -5.3358 H   0  0  0  0  0  0  0  0  0  0  0  0
    0.5454    0.7283   -3.9531 H   0  0  0  0  0  0  0  0  0  0  0  0
   -1.1330    0.6888   -4.1967 H   0  0  0  0  0  0  0  0  0  0  0  0
   -0.1670   -1.1923   -3.7174 C   0  0  0  0  0  0  0  0  0  0  0  0
   -0.7875   -1.1998   -2.9387 H   0  0  0  0  0  0  0  0  0  0  0  0
   -0.4509   -1.8699   -4.3889 H   0  0  0  0  0  0  0  0  0  0  0  0
    1.2102   -1.5120   -3.2499 N   0  0  0  0  0  4  0  0  0  0  0  0
    1.8287   -0.7712   -3.5094 H   0  0  0  0  0  0  0  0  0  0  0  0
    1.2072   -1.6129   -2.2560 H   0  0  0  0  0  0  0  0  0  0  0  0
    1.5140   -2.3648   -3.6724 H   0  0  0  0  0  0  0  0  0  0  0  0
    0.0045    2.9214   -0.0046 C   0  0  0  0  0  0  0  0  0  0  0  0
   -0.7665    3.2254   -0.5433 H   0  0  0  0  0  0  0  0  0  0  0  0
    0.8601    3.2212   -0.4000 H   0  0  0  0  0  0  0  0  0  0  0  0
   -0.0811    3.3767    0.9820 H   0  0  0  0  0  0  0  0  0  0  0  0
   -0.0001    1.4090    0.0041 C   0  0  0  0  0  0  0  0  0  0  0  0
   -1.1999    0.6985   -0.0051 C   0  0  0  0  0  0  0  0  0  0  0  0
   -2.0659    1.1839   -0.0164 H   0  0  0  0  0  0  0  0  0  0  0  0
   -1.2052   -0.7049   -0.0000 C   0  0  0  0  0  0  0  0  0  0  0  0
   -2.0796   -1.1950    0.0047 H   0  0  0  0  0  0  0  0  0  0  0  0
    0.0027   -1.4014    0.0007 C   0  0  0  0  0  0  0  0  0  0  0  0
    0.0008   -2.3982    0.0010 H   0  0  0  0  0  0  0  0  0  0  0  0
    1.2052   -0.6998    0.0000 C   0  0  0  0  0  0  0  0  0  0  0  0
    2.0870   -1.1926    0.0013 H   0  0  0  0  0  0  0  0  0  0  0  0
    1.1974    0.6986    0.0003 C   0  0  0  0  0  0  0  0  0  0  0  0
    2.0666    1.1935   -0.0027 H   0  0  0  0  0  0  0  0  0  0  0  0
  1  5  1  0
  5  8  1  0
  1  2  1  0
  1  3  1  0
  1  4  1  0
  5  6  1  0
  5  7  1  0
  8  9  1  0
  8 10  1  0
  8 11  1  0
 12 16  1  0
 16 17  2  0
 17 19  1  0
 19 21  2  0
 21 23  1  0
 23 25  2  0
 25 16  1  0
 12 13  1  0
 12 14  1  0
 12 15  1  0
 17 18  1  0
 19 20  1  0
 21 22  1  0
 23 24  1  0
 25 26  1  0
M  CHG  1   8   1
M  END
>  <PDB_ID>  (1119) 
pdb1r9n

>  <RESIDUE_NAME>  (1119) 
LYS   PHE

>  <FRAG_NAME>  (1119) 
ETAM   MBZ

>  <FRAG_ATOM_NUM>  (1119) 
fragi: 11  fragj: 15

>  <atom.prop.CHAIN_ID>  (1119) 
A A A A A A A A A A A Z Z Z Z Z Z Z Z Z Z Z Z Z Z Z

>  <atom.prop.IS_HEAVY_ATOM>  (1119) 
1 0 0 0 1 0 0 1 0 0 0 1 0 0 0 1 1 0 1 0 1 0 1 0 1 0

>  <DIFUSE_FUNC_ATOM>  (1119) 
n/a

>  <FINAL_SINGLE_POINT_ENERGY>  (1119) 
0

>  <NONCOV_INTER_ENERGY_QM>  (1119) 
0

>  <FF_Energy>  (1119) 
-6.22

>  <QM_Energy>  (1119) 
-13.99

>  <source>  (1119) 
ETAM_MBZ

>  <Index>  (1119) 
11190

$$$$
ETAM-pdb1r9n-C-LYS-523:MBZ-pdb1r9n-C-PHE-516
     RDKit          3D

 26 25  0  0  0  0  0  0  0  0999 V2000
   -0.1089    0.5124   -3.2944 C   0  0  0  0  0  0  0  0  0  0  0  0
    0.4247    1.3607   -3.3444 H   0  0  0  0  0  0  0  0  0  0  0  0
   -0.0326    0.1342   -2.3683 H   0  0  0  0  0  0  0  0  0  0  0  0
   -1.1550    0.7584   -3.4767 H   0  0  0  0  0  0  0  0  0  0  0  0
    0.4708   -0.4883   -4.2786 C   0  0  0  0  0  0  0  0  0  0  0  0
    0.1548   -0.2584   -5.2005 H   0  0  0  0  0  0  0  0  0  0  0  0
    1.4707   -0.4306   -4.2503 H   0  0  0  0  0  0  0  0  0  0  0  0
    0.0501   -1.8736   -3.9480 N   0  0  0  0  0  4  0  0  0  0  0  0
    0.7023   -2.5229   -4.3409 H   0  0  0  0  0  0  0  0  0  0  0  0
    0.0251   -1.9862   -2.9540 H   0  0  0  0  0  0  0  0  0  0  0  0
   -0.8603   -2.0444   -4.3259 H   0  0  0  0  0  0  0  0  0  0  0  0
    0.0034    2.8947    0.0119 C   0  0  0  0  0  0  0  0  0  0  0  0
   -0.7480    3.2122   -0.5464 H   0  0  0  0  0  0  0  0  0  0  0  0
    0.8717    3.2088   -0.3414 H   0  0  0  0  0  0  0  0  0  0  0  0
   -0.1211    3.3245    1.0058 H   0  0  0  0  0  0  0  0  0  0  0  0
    0.0013    1.4045    0.0001 C   0  0  0  0  0  0  0  0  0  0  0  0
   -1.2031    0.6925    0.0006 C   0  0  0  0  0  0  0  0  0  0  0  0
   -2.0664    1.1850   -0.0001 H   0  0  0  0  0  0  0  0  0  0  0  0
   -1.2088   -0.7000   -0.0000 C   0  0  0  0  0  0  0  0  0  0  0  0
   -2.0806   -1.1954    0.0019 H   0  0  0  0  0  0  0  0  0  0  0  0
    0.0005   -1.3955   -0.0016 C   0  0  0  0  0  0  0  0  0  0  0  0
   -0.0033   -2.3948   -0.0048 H   0  0  0  0  0  0  0  0  0  0  0  0
    1.2088   -0.6988    0.0000 C   0  0  0  0  0  0  0  0  0  0  0  0
    2.0862   -1.1952    0.0019 H   0  0  0  0  0  0  0  0  0  0  0  0
    1.2013    0.6973    0.0010 C   0  0  0  0  0  0  0  0  0  0  0  0
    2.0679    1.1940    0.0014 H   0  0  0  0  0  0  0  0  0  0  0  0
  1  5  1  0
  5  8  1  0
  1  2  1  0
  1  3  1  0
  1  4  1  0
  5  6  1  0
  5  7  1  0
  8  9  1  0
  8 10  1  0
  8 11  1  0
 12 16  1  0
 16 17  2  0
 17 19  1  0
 19 21  2  0
 21 23  1  0
 23 25  2  0
 25 16  1  0
 12 13  1  0
 12 14  1  0
 12 15  1  0
 17 18  1  0
 19 20  1  0
 21 22  1  0
 23 24  1  0
 25 26  1  0
M  CHG  1   8   1
M  END
>  <PDB_ID>  (1120) 
pdb1r9n

>  <RESIDUE_NAME>  (1120) 
LYS   PHE

>  <FRAG_NAME>  (1120) 
ETAM   MBZ

>  <FRAG_ATOM_NUM>  (1120) 
fragi: 11  fragj: 15

>  <atom.prop.CHAIN_ID>  (1120) 
A A A A A A A A A A A Z Z Z Z Z Z Z Z Z Z Z Z Z Z Z

>  <atom.prop.IS_HEAVY_ATOM>  (1120) 
1 0 0 0 1 0 0 1 0 0 0 1 0 0 0 1 1 0 1 0 1 0 1 0 1 0

>  <DIFUSE_FUNC_ATOM>  (1120) 
n/a

>  <FINAL_SINGLE_POINT_ENERGY>  (1120) 
0

>  <NONCOV_INTER_ENERGY_QM>  (1120) 
0

>  <FF_Energy>  (1120) 
-4.25

>  <QM_Energy>  (1120) 
-10.88

>  <source>  (1120) 
ETAM_MBZ

>  <Index>  (1120) 
11191

$$$$
ETAM-pdb1qhb-F-LYS-497:MBZ-pdb1qhb-F-PHE-589
     RDKit          3D

 26 25  0  0  0  0  0  0  0  0999 V2000
   -5.0629   -1.1967   -3.9009 C   0  0  0  0  0  0  0  0  0  0  0  0
   -5.3787   -0.3349   -4.3161 H   0  0  0  0  0  0  0  0  0  0  0  0
   -5.5050   -1.2964   -3.0013 H   0  0  0  0  0  0  0  0  0  0  0  0
   -5.3867   -2.0212   -4.5360 H   0  0  0  0  0  0  0  0  0  0  0  0
   -3.5688   -1.1190   -3.6998 C   0  0  0  0  0  0  0  0  0  0  0  0
   -3.2573   -1.9234   -3.1872 H   0  0  0  0  0  0  0  0  0  0  0  0
   -3.1104   -1.1052   -4.5924 H   0  0  0  0  0  0  0  0  0  0  0  0
   -3.1666    0.1183   -2.9382 N   0  0  0  0  0  4  0  0  0  0  0  0
   -3.8616    0.8192   -3.0726 H   0  0  0  0  0  0  0  0  0  0  0  0
   -3.0926   -0.1085   -1.9703 H   0  0  0  0  0  0  0  0  0  0  0  0
   -2.2878    0.4373   -3.2825 H   0  0  0  0  0  0  0  0  0  0  0  0
    0.0070    2.8950    0.0071 C   0  0  0  0  0  0  0  0  0  0  0  0
    0.9410    3.2007   -0.2181 H   0  0  0  0  0  0  0  0  0  0  0  0
   -0.2027    3.1946    0.9467 H   0  0  0  0  0  0  0  0  0  0  0  0
   -0.6806    3.4080   -0.6655 H   0  0  0  0  0  0  0  0  0  0  0  0
    0.0094    1.3980    0.0013 C   0  0  0  0  0  0  0  0  0  0  0  0
   -1.2055    0.7092    0.0021 C   0  0  0  0  0  0  0  0  0  0  0  0
   -2.0587    1.1932    0.0027 H   0  0  0  0  0  0  0  0  0  0  0  0
   -1.1943   -0.6923    0.0000 C   0  0  0  0  0  0  0  0  0  0  0  0
   -2.0829   -1.1806   -0.0180 H   0  0  0  0  0  0  0  0  0  0  0  0
   -0.0123   -1.3851    0.0242 C   0  0  0  0  0  0  0  0  0  0  0  0
   -0.0236   -2.3933    0.0598 H   0  0  0  0  0  0  0  0  0  0  0  0
    1.1943   -0.7161   -0.0000 C   0  0  0  0  0  0  0  0  0  0  0  0
    2.0697   -1.2176    0.0030 H   0  0  0  0  0  0  0  0  0  0  0  0
    1.2084    0.6862   -0.0276 C   0  0  0  0  0  0  0  0  0  0  0  0
    2.0744    1.1688   -0.0688 H   0  0  0  0  0  0  0  0  0  0  0  0
  1  5  1  0
  5  8  1  0
  1  2  1  0
  1  3  1  0
  1  4  1  0
  5  6  1  0
  5  7  1  0
  8  9  1  0
  8 10  1  0
  8 11  1  0
 12 16  1  0
 16 17  2  0
 17 19  1  0
 19 21  2  0
 21 23  1  0
 23 25  2  0
 25 16  1  0
 12 13  1  0
 12 14  1  0
 12 15  1  0
 17 18  1  0
 19 20  1  0
 21 22  1  0
 23 24  1  0
 25 26  1  0
M  CHG  1   8   1
M  END
>  <PDB_ID>  (1121) 
pdb1qhb

>  <RESIDUE_NAME>  (1121) 
LYS   PHE

>  <FRAG_NAME>  (1121) 
ETAM   MBZ

>  <FRAG_ATOM_NUM>  (1121) 
fragi: 11  fragj: 15

>  <atom.prop.CHAIN_ID>  (1121) 
A A A A A A A A A A A Z Z Z Z Z Z Z Z Z Z Z Z Z Z Z

>  <atom.prop.IS_HEAVY_ATOM>  (1121) 
1 0 0 0 1 0 0 1 0 0 0 1 0 0 0 1 1 0 1 0 1 0 1 0 1 0

>  <DIFUSE_FUNC_ATOM>  (1121) 
n/a

>  <FINAL_SINGLE_POINT_ENERGY>  (1121) 
0

>  <NONCOV_INTER_ENERGY_QM>  (1121) 
0

>  <FF_Energy>  (1121) 
-2.69

>  <QM_Energy>  (1121) 
-7.79

>  <source>  (1121) 
ETAM_MBZ

>  <Index>  (1121) 
11194

$$$$
ETAM-pdb2xig-A-LYS-84:MBZ-pdb2xig-A-PHE-139
     RDKit          3D

 26 25  0  0  0  0  0  0  0  0999 V2000
   -5.2548    2.0294    2.6974 C   0  0  0  0  0  0  0  0  0  0  0  0
   -6.0817    2.4888    2.3701 H   0  0  0  0  0  0  0  0  0  0  0  0
   -4.7866    2.6188    3.3568 H   0  0  0  0  0  0  0  0  0  0  0  0
   -5.5435    1.1046    3.1970 H   0  0  0  0  0  0  0  0  0  0  0  0
   -4.3358    1.7934    1.5215 C   0  0  0  0  0  0  0  0  0  0  0  0
   -4.8291    1.2849    0.8157 H   0  0  0  0  0  0  0  0  0  0  0  0
   -4.0424    2.6756    1.1512 H   0  0  0  0  0  0  0  0  0  0  0  0
   -3.1400    1.0171    1.9363 N   0  0  0  0  0  4  0  0  0  0  0  0
   -2.9220    0.3397    1.2334 H   0  0  0  0  0  0  0  0  0  0  0  0
   -2.3638    1.6367    2.0543 H   0  0  0  0  0  0  0  0  0  0  0  0
   -3.3285    0.5506    2.8007 H   0  0  0  0  0  0  0  0  0  0  0  0
    0.0008    2.9103   -0.0033 C   0  0  0  0  0  0  0  0  0  0  0  0
    0.8452    3.2114    0.4117 H   0  0  0  0  0  0  0  0  0  0  0  0
   -0.7853    3.2157    0.5119 H   0  0  0  0  0  0  0  0  0  0  0  0
   -0.0595    3.3477   -0.9999 H   0  0  0  0  0  0  0  0  0  0  0  0
   -0.0027    1.4029   -0.0031 C   0  0  0  0  0  0  0  0  0  0  0  0
   -1.1945    0.7011    0.0017 C   0  0  0  0  0  0  0  0  0  0  0  0
   -2.0628    1.1860    0.0048 H   0  0  0  0  0  0  0  0  0  0  0  0
   -1.1977   -0.6952   -0.0000 C   0  0  0  0  0  0  0  0  0  0  0  0
   -2.0747   -1.1872   -0.0024 H   0  0  0  0  0  0  0  0  0  0  0  0
    0.0049   -1.3958    0.0031 C   0  0  0  0  0  0  0  0  0  0  0  0
   -0.0047   -2.3936    0.0075 H   0  0  0  0  0  0  0  0  0  0  0  0
    1.1977   -0.7021    0.0000 C   0  0  0  0  0  0  0  0  0  0  0  0
    2.0824   -1.1960    0.0004 H   0  0  0  0  0  0  0  0  0  0  0  0
    1.1924    0.6891   -0.0017 C   0  0  0  0  0  0  0  0  0  0  0  0
    2.0622    1.1854   -0.0029 H   0  0  0  0  0  0  0  0  0  0  0  0
  1  5  1  0
  5  8  1  0
  1  2  1  0
  1  3  1  0
  1  4  1  0
  5  6  1  0
  5  7  1  0
  8  9  1  0
  8 10  1  0
  8 11  1  0
 12 16  1  0
 16 17  2  0
 17 19  1  0
 19 21  2  0
 21 23  1  0
 23 25  2  0
 25 16  1  0
 12 13  1  0
 12 14  1  0
 12 15  1  0
 17 18  1  0
 19 20  1  0
 21 22  1  0
 23 24  1  0
 25 26  1  0
M  CHG  1   8   1
M  END
>  <PDB_ID>  (1122) 
pdb2xig

>  <RESIDUE_NAME>  (1122) 
LYS   PHE

>  <FRAG_NAME>  (1122) 
ETAM   MBZ

>  <FRAG_ATOM_NUM>  (1122) 
fragi: 11  fragj: 15

>  <atom.prop.CHAIN_ID>  (1122) 
A A A A A A A A A A A Z Z Z Z Z Z Z Z Z Z Z Z Z Z Z

>  <atom.prop.IS_HEAVY_ATOM>  (1122) 
1 0 0 0 1 0 0 1 0 0 0 1 0 0 0 1 1 0 1 0 1 0 1 0 1 0

>  <DIFUSE_FUNC_ATOM>  (1122) 
n/a

>  <FINAL_SINGLE_POINT_ENERGY>  (1122) 
0

>  <NONCOV_INTER_ENERGY_QM>  (1122) 
0

>  <FF_Energy>  (1122) 
7.89

>  <QM_Energy>  (1122) 
-2.34

>  <source>  (1122) 
ETAM_MBZ

>  <Index>  (1122) 
11207

$$$$
ETAM-pdb1rcu-A-LYS-3:MBZ-pdb1rcu-A-PHE-40
     RDKit          3D

 26 25  0  0  0  0  0  0  0  0999 V2000
   -2.6468   -1.9806   -2.8597 C   0  0  0  0  0  0  0  0  0  0  0  0
   -2.6060   -2.0168   -3.8594 H   0  0  0  0  0  0  0  0  0  0  0  0
   -1.9946   -1.2970   -2.5268 H   0  0  0  0  0  0  0  0  0  0  0  0
   -3.6519   -1.6845   -2.5593 H   0  0  0  0  0  0  0  0  0  0  0  0
   -2.2286   -3.3463   -2.3135 C   0  0  0  0  0  0  0  0  0  0  0  0
   -2.3273   -3.3401   -1.3123 H   0  0  0  0  0  0  0  0  0  0  0  0
   -2.8436   -4.0489   -2.6889 H   0  0  0  0  0  0  0  0  0  0  0  0
   -0.8094   -3.7112   -2.6578 N   0  0  0  0  0  4  0  0  0  0  0  0
   -0.2578   -2.8810   -2.6762 H   0  0  0  0  0  0  0  0  0  0  0  0
   -0.4601   -4.3381   -1.9664 H   0  0  0  0  0  0  0  0  0  0  0  0
   -0.7964   -4.1498   -3.5526 H   0  0  0  0  0  0  0  0  0  0  0  0
    0.0035    2.8817   -0.0106 C   0  0  0  0  0  0  0  0  0  0  0  0
   -0.6166    3.1964   -0.7200 H   0  0  0  0  0  0  0  0  0  0  0  0
    0.9287    3.1944   -0.1919 H   0  0  0  0  0  0  0  0  0  0  0  0
   -0.3153    3.3388    0.9261 H   0  0  0  0  0  0  0  0  0  0  0  0
   -0.0008    1.3999   -0.0036 C   0  0  0  0  0  0  0  0  0  0  0  0
   -1.1983    0.7016    0.0014 C   0  0  0  0  0  0  0  0  0  0  0  0
   -2.0633    1.1961    0.0048 H   0  0  0  0  0  0  0  0  0  0  0  0
   -1.2094   -0.6869    0.0000 C   0  0  0  0  0  0  0  0  0  0  0  0
   -2.0830   -1.1824   -0.0016 H   0  0  0  0  0  0  0  0  0  0  0  0
    0.0023   -1.4012    0.0023 C   0  0  0  0  0  0  0  0  0  0  0  0
   -0.0143   -2.3952    0.0053 H   0  0  0  0  0  0  0  0  0  0  0  0
    1.2094   -0.7079   -0.0000 C   0  0  0  0  0  0  0  0  0  0  0  0
    2.0870   -1.1979   -0.0000 H   0  0  0  0  0  0  0  0  0  0  0  0
    1.1967    0.6945   -0.0002 C   0  0  0  0  0  0  0  0  0  0  0  0
    2.0660    1.1893    0.0016 H   0  0  0  0  0  0  0  0  0  0  0  0
  1  5  1  0
  5  8  1  0
  1  2  1  0
  1  3  1  0
  1  4  1  0
  5  6  1  0
  5  7  1  0
  8  9  1  0
  8 10  1  0
  8 11  1  0
 12 16  1  0
 16 17  2  0
 17 19  1  0
 19 21  2  0
 21 23  1  0
 23 25  2  0
 25 16  1  0
 12 13  1  0
 12 14  1  0
 12 15  1  0
 17 18  1  0
 19 20  1  0
 21 22  1  0
 23 24  1  0
 25 26  1  0
M  CHG  1   8   1
M  END
>  <PDB_ID>  (1123) 
pdb1rcu

>  <RESIDUE_NAME>  (1123) 
LYS   PHE

>  <FRAG_NAME>  (1123) 
ETAM   MBZ

>  <FRAG_ATOM_NUM>  (1123) 
fragi: 11  fragj: 15

>  <atom.prop.CHAIN_ID>  (1123) 
A A A A A A A A A A A Z Z Z Z Z Z Z Z Z Z Z Z Z Z Z

>  <atom.prop.IS_HEAVY_ATOM>  (1123) 
1 0 0 0 1 0 0 1 0 0 0 1 0 0 0 1 1 0 1 0 1 0 1 0 1 0

>  <DIFUSE_FUNC_ATOM>  (1123) 
n/a

>  <FINAL_SINGLE_POINT_ENERGY>  (1123) 
0

>  <NONCOV_INTER_ENERGY_QM>  (1123) 
0

>  <FF_Energy>  (1123) 
-1.77

>  <QM_Energy>  (1123) 
-7.47

>  <source>  (1123) 
ETAM_MBZ

>  <Index>  (1123) 
11219

$$$$
ETAM-pdb1reg-X-LYS-16:MBZ-pdb1reg-X-PHE-12
     RDKit          3D

 26 25  0  0  0  0  0  0  0  0999 V2000
    4.7644   -1.5921    3.9687 C   0  0  0  0  0  0  0  0  0  0  0  0
    5.5660   -1.8341    4.5164 H   0  0  0  0  0  0  0  0  0  0  0  0
    3.9447   -1.9891    4.3833 H   0  0  0  0  0  0  0  0  0  0  0  0
    4.6647   -0.5073    3.9297 H   0  0  0  0  0  0  0  0  0  0  0  0
    4.9406   -2.2335    2.5743 C   0  0  0  0  0  0  0  0  0  0  0  0
    5.7882   -1.8671    2.1720 H   0  0  0  0  0  0  0  0  0  0  0  0
    5.0573   -3.2261    2.7048 H   0  0  0  0  0  0  0  0  0  0  0  0
    3.8080   -1.9725    1.6855 N   0  0  0  0  0  4  0  0  0  0  0  0
    3.3454   -2.8330    1.4555 H   0  0  0  0  0  0  0  0  0  0  0  0
    3.1514   -1.3607    2.1351 H   0  0  0  0  0  0  0  0  0  0  0  0
    4.1284   -1.5393    0.8380 H   0  0  0  0  0  0  0  0  0  0  0  0
   -0.0375    2.9469   -0.0453 C   0  0  0  0  0  0  0  0  0  0  0  0
   -0.8504    3.2031   -0.5536 H   0  0  0  0  0  0  0  0  0  0  0  0
    0.7817    3.2408   -0.5229 H   0  0  0  0  0  0  0  0  0  0  0  0
   -0.0668    3.4600    0.9159 H   0  0  0  0  0  0  0  0  0  0  0  0
   -0.0037    1.3985    0.0028 C   0  0  0  0  0  0  0  0  0  0  0  0
   -1.1993    0.6746    0.0038 C   0  0  0  0  0  0  0  0  0  0  0  0
   -2.0672    1.1589    0.0064 H   0  0  0  0  0  0  0  0  0  0  0  0
   -1.1822   -0.7072   -0.0000 C   0  0  0  0  0  0  0  0  0  0  0  0
   -2.0643   -1.2088    0.0032 H   0  0  0  0  0  0  0  0  0  0  0  0
    0.0017   -1.3775   -0.0062 C   0  0  0  0  0  0  0  0  0  0  0  0
    0.0110   -2.3852   -0.0153 H   0  0  0  0  0  0  0  0  0  0  0  0
    1.1822   -0.6817   -0.0000 C   0  0  0  0  0  0  0  0  0  0  0  0
    2.0746   -1.1907    0.0068 H   0  0  0  0  0  0  0  0  0  0  0  0
    1.2013    0.6933   -0.0004 C   0  0  0  0  0  0  0  0  0  0  0  0
    2.0610    1.1891   -0.0040 H   0  0  0  0  0  0  0  0  0  0  0  0
  1  5  1  0
  5  8  1  0
  1  2  1  0
  1  3  1  0
  1  4  1  0
  5  6  1  0
  5  7  1  0
  8  9  1  0
  8 10  1  0
  8 11  1  0
 12 16  1  0
 16 17  2  0
 17 19  1  0
 19 21  2  0
 21 23  1  0
 23 25  2  0
 25 16  1  0
 12 13  1  0
 12 14  1  0
 12 15  1  0
 17 18  1  0
 19 20  1  0
 21 22  1  0
 23 24  1  0
 25 26  1  0
M  CHG  1   8   1
M  END
>  <PDB_ID>  (1124) 
pdb1reg

>  <RESIDUE_NAME>  (1124) 
LYS   PHE

>  <FRAG_NAME>  (1124) 
ETAM   MBZ

>  <FRAG_ATOM_NUM>  (1124) 
fragi: 11  fragj: 15

>  <atom.prop.CHAIN_ID>  (1124) 
A A A A A A A A A A A Z Z Z Z Z Z Z Z Z Z Z Z Z Z Z

>  <atom.prop.IS_HEAVY_ATOM>  (1124) 
1 0 0 0 1 0 0 1 0 0 0 1 0 0 0 1 1 0 1 0 1 0 1 0 1 0

>  <DIFUSE_FUNC_ATOM>  (1124) 
n/a

>  <FINAL_SINGLE_POINT_ENERGY>  (1124) 
0

>  <NONCOV_INTER_ENERGY_QM>  (1124) 
0

>  <FF_Energy>  (1124) 
1.26

>  <QM_Energy>  (1124) 
-4.41

>  <source>  (1124) 
ETAM_MBZ

>  <Index>  (1124) 
11226

$$$$
ETAM-pdb1rf4-B-LYS-4:MBZ-pdb1rf4-B-PHE-418
     RDKit          3D

 26 25  0  0  0  0  0  0  0  0999 V2000
   -5.4995    0.9292    2.2579 C   0  0  0  0  0  0  0  0  0  0  0  0
   -4.9673    0.2164    2.6953 H   0  0  0  0  0  0  0  0  0  0  0  0
   -5.7216    0.6853    1.3240 H   0  0  0  0  0  0  0  0  0  0  0  0
   -6.4267    1.0655    2.8147 H   0  0  0  0  0  0  0  0  0  0  0  0
   -4.6801    2.2140    2.2459 C   0  0  0  0  0  0  0  0  0  0  0  0
   -5.1922    2.9164    1.7379 H   0  0  0  0  0  0  0  0  0  0  0  0
   -4.5666    2.5311    3.1954 H   0  0  0  0  0  0  0  0  0  0  0  0
   -3.3501    2.0310    1.6268 N   0  0  0  0  0  4  0  0  0  0  0  0
   -3.4497    1.9469    0.6339 H   0  0  0  0  0  0  0  0  0  0  0  0
   -2.7699    2.8207    1.8350 H   0  0  0  0  0  0  0  0  0  0  0  0
   -2.9221    1.2013    1.9878 H   0  0  0  0  0  0  0  0  0  0  0  0
   -0.0055    2.9017   -0.0772 C   0  0  0  0  0  0  0  0  0  0  0  0
    0.9216    3.2186    0.0236 H   0  0  0  0  0  0  0  0  0  0  0  0
   -0.5905    3.2440    0.6383 H   0  0  0  0  0  0  0  0  0  0  0  0
   -0.3853    3.2777   -1.0272 H   0  0  0  0  0  0  0  0  0  0  0  0
    0.0007    1.4041   -0.0007 C   0  0  0  0  0  0  0  0  0  0  0  0
   -1.1988    0.6946    0.0018 C   0  0  0  0  0  0  0  0  0  0  0  0
   -2.0649    1.1846    0.0036 H   0  0  0  0  0  0  0  0  0  0  0  0
   -1.2051   -0.6997    0.0000 C   0  0  0  0  0  0  0  0  0  0  0  0
   -2.0800   -1.1930    0.0012 H   0  0  0  0  0  0  0  0  0  0  0  0
    0.0007   -1.3977   -0.0018 C   0  0  0  0  0  0  0  0  0  0  0  0
   -0.0021   -2.3947   -0.0052 H   0  0  0  0  0  0  0  0  0  0  0  0
    1.2051   -0.6976    0.0000 C   0  0  0  0  0  0  0  0  0  0  0  0
    2.0853   -1.1931    0.0027 H   0  0  0  0  0  0  0  0  0  0  0  0
    1.1974    0.6964    0.0007 C   0  0  0  0  0  0  0  0  0  0  0  0
    2.0659    1.1931    0.0014 H   0  0  0  0  0  0  0  0  0  0  0  0
  1  5  1  0
  5  8  1  0
  1  2  1  0
  1  3  1  0
  1  4  1  0
  5  6  1  0
  5  7  1  0
  8  9  1  0
  8 10  1  0
  8 11  1  0
 12 16  1  0
 16 17  2  0
 17 19  1  0
 19 21  2  0
 21 23  1  0
 23 25  2  0
 25 16  1  0
 12 13  1  0
 12 14  1  0
 12 15  1  0
 17 18  1  0
 19 20  1  0
 21 22  1  0
 23 24  1  0
 25 26  1  0
M  CHG  1   8   1
M  END
>  <PDB_ID>  (1125) 
pdb1rf4

>  <RESIDUE_NAME>  (1125) 
LYS   PHE

>  <FRAG_NAME>  (1125) 
ETAM   MBZ

>  <FRAG_ATOM_NUM>  (1125) 
fragi: 11  fragj: 15

>  <atom.prop.CHAIN_ID>  (1125) 
A A A A A A A A A A A Z Z Z Z Z Z Z Z Z Z Z Z Z Z Z

>  <atom.prop.IS_HEAVY_ATOM>  (1125) 
1 0 0 0 1 0 0 1 0 0 0 1 0 0 0 1 1 0 1 0 1 0 1 0 1 0

>  <DIFUSE_FUNC_ATOM>  (1125) 
n/a

>  <FINAL_SINGLE_POINT_ENERGY>  (1125) 
0

>  <NONCOV_INTER_ENERGY_QM>  (1125) 
0

>  <FF_Energy>  (1125) 
5.42

>  <QM_Energy>  (1125) 
-1.95

>  <source>  (1125) 
ETAM_MBZ

>  <Index>  (1125) 
11238

$$$$
ETAM-pdb1rii-C-LYS-105:MBZ-pdb1rii-C-PHE-113
     RDKit          3D

 26 25  0  0  0  0  0  0  0  0999 V2000
    0.5925    1.2359   -3.9227 C   0  0  0  0  0  0  0  0  0  0  0  0
    0.9453    1.2386   -4.8413 H   0  0  0  0  0  0  0  0  0  0  0  0
    0.9052    2.0095   -3.4015 H   0  0  0  0  0  0  0  0  0  0  0  0
   -0.4968    1.2472   -3.9592 H   0  0  0  0  0  0  0  0  0  0  0  0
    1.0424   -0.0367   -3.2294 C   0  0  0  0  0  0  0  0  0  0  0  0
    0.3883   -0.2485   -2.4845 H   0  0  0  0  0  0  0  0  0  0  0  0
    0.9996   -0.8007   -3.8941 H   0  0  0  0  0  0  0  0  0  0  0  0
    2.4099    0.0394   -2.6665 N   0  0  0  0  0  4  0  0  0  0  0  0
    2.9608   -0.7174   -3.0204 H   0  0  0  0  0  0  0  0  0  0  0  0
    2.8325    0.9085   -2.9287 H   0  0  0  0  0  0  0  0  0  0  0  0
    2.3659   -0.0200   -1.6681 H   0  0  0  0  0  0  0  0  0  0  0  0
   -0.0551    2.9101    0.0201 C   0  0  0  0  0  0  0  0  0  0  0  0
   -0.8056    3.1850   -0.5609 H   0  0  0  0  0  0  0  0  0  0  0  0
    0.8097    3.2385   -0.3283 H   0  0  0  0  0  0  0  0  0  0  0  0
   -0.2119    3.3422    1.0085 H   0  0  0  0  0  0  0  0  0  0  0  0
   -0.0023    1.3891    0.0079 C   0  0  0  0  0  0  0  0  0  0  0  0
   -1.1918    0.6818    0.0056 C   0  0  0  0  0  0  0  0  0  0  0  0
   -2.0609    1.1757    0.0064 H   0  0  0  0  0  0  0  0  0  0  0  0
   -1.1986   -0.6983    0.0000 C   0  0  0  0  0  0  0  0  0  0  0  0
   -2.0722   -1.1954   -0.0035 H   0  0  0  0  0  0  0  0  0  0  0  0
    0.0013   -1.3786    0.0011 C   0  0  0  0  0  0  0  0  0  0  0  0
    0.0031   -2.3841    0.0019 H   0  0  0  0  0  0  0  0  0  0  0  0
    1.1986   -0.6870   -0.0000 C   0  0  0  0  0  0  0  0  0  0  0  0
    2.0799   -1.1875    0.0110 H   0  0  0  0  0  0  0  0  0  0  0  0
    1.1928    0.6930   -0.0146 C   0  0  0  0  0  0  0  0  0  0  0  0
    2.0577    1.1942   -0.0425 H   0  0  0  0  0  0  0  0  0  0  0  0
  1  5  1  0
  5  8  1  0
  1  2  1  0
  1  3  1  0
  1  4  1  0
  5  6  1  0
  5  7  1  0
  8  9  1  0
  8 10  1  0
  8 11  1  0
 12 16  1  0
 16 17  2  0
 17 19  1  0
 19 21  2  0
 21 23  1  0
 23 25  2  0
 25 16  1  0
 12 13  1  0
 12 14  1  0
 12 15  1  0
 17 18  1  0
 19 20  1  0
 21 22  1  0
 23 24  1  0
 25 26  1  0
M  CHG  1   8   1
M  END
>  <PDB_ID>  (1126) 
pdb1rii

>  <RESIDUE_NAME>  (1126) 
LYS   PHE

>  <FRAG_NAME>  (1126) 
ETAM   MBZ

>  <FRAG_ATOM_NUM>  (1126) 
fragi: 11  fragj: 15

>  <atom.prop.CHAIN_ID>  (1126) 
A A A A A A A A A A A Z Z Z Z Z Z Z Z Z Z Z Z Z Z Z

>  <atom.prop.IS_HEAVY_ATOM>  (1126) 
1 0 0 0 1 0 0 1 0 0 0 1 0 0 0 1 1 0 1 0 1 0 1 0 1 0

>  <DIFUSE_FUNC_ATOM>  (1126) 
n/a

>  <FINAL_SINGLE_POINT_ENERGY>  (1126) 
0

>  <NONCOV_INTER_ENERGY_QM>  (1126) 
0

>  <FF_Energy>  (1126) 
-2.64

>  <QM_Energy>  (1126) 
-11.89

>  <source>  (1126) 
ETAM_MBZ

>  <Index>  (1126) 
11259

$$$$
ETAM-pdb1reo-A-LYS-333:MBZ-pdb1reo-A-PHE-411
     RDKit          3D

 26 25  0  0  0  0  0  0  0  0999 V2000
   -0.1821   -0.1612    3.2042 C   0  0  0  0  0  0  0  0  0  0  0  0
   -0.7181   -0.3414    2.3871 H   0  0  0  0  0  0  0  0  0  0  0  0
    0.6066    0.4014    2.9860 H   0  0  0  0  0  0  0  0  0  0  0  0
   -0.8038    0.3590    3.9328 H   0  0  0  0  0  0  0  0  0  0  0  0
    0.3149   -1.4925    3.7566 C   0  0  0  0  0  0  0  0  0  0  0  0
    0.8261   -1.3231    4.5994 H   0  0  0  0  0  0  0  0  0  0  0  0
   -0.4738   -2.0753    3.9583 H   0  0  0  0  0  0  0  0  0  0  0  0
    1.2009   -2.1889    2.7778 N   0  0  0  0  0  4  0  0  0  0  0  0
    0.7470   -2.2227    1.8885 H   0  0  0  0  0  0  0  0  0  0  0  0
    2.0613   -1.6880    2.6982 H   0  0  0  0  0  0  0  0  0  0  0  0
    1.3812   -3.1178    3.0988 H   0  0  0  0  0  0  0  0  0  0  0  0
    0.0208    2.9041    0.0812 C   0  0  0  0  0  0  0  0  0  0  0  0
    0.8013    3.2281   -0.4373 H   0  0  0  0  0  0  0  0  0  0  0  0
    0.1030    3.1596    1.0361 H   0  0  0  0  0  0  0  0  0  0  0  0
   -0.8680    3.3932   -0.3174 H   0  0  0  0  0  0  0  0  0  0  0  0
   -0.0001    1.4049    0.0014 C   0  0  0  0  0  0  0  0  0  0  0  0
   -1.2035    0.6991    0.0001 C   0  0  0  0  0  0  0  0  0  0  0  0
   -2.0665    1.1895   -0.0025 H   0  0  0  0  0  0  0  0  0  0  0  0
   -1.2082   -0.6965    0.0000 C   0  0  0  0  0  0  0  0  0  0  0  0
   -2.0803   -1.1916    0.0006 H   0  0  0  0  0  0  0  0  0  0  0  0
    0.0034   -1.3984    0.0012 C   0  0  0  0  0  0  0  0  0  0  0  0
   -0.0045   -2.3950    0.0027 H   0  0  0  0  0  0  0  0  0  0  0  0
    1.2082   -0.7007   -0.0000 C   0  0  0  0  0  0  0  0  0  0  0  0
    2.0877   -1.1973    0.0027 H   0  0  0  0  0  0  0  0  0  0  0  0
    1.2001    0.6916   -0.0026 C   0  0  0  0  0  0  0  0  0  0  0  0
    2.0674    1.1902   -0.0078 H   0  0  0  0  0  0  0  0  0  0  0  0
  1  5  1  0
  5  8  1  0
  1  2  1  0
  1  3  1  0
  1  4  1  0
  5  6  1  0
  5  7  1  0
  8  9  1  0
  8 10  1  0
  8 11  1  0
 12 16  1  0
 16 17  2  0
 17 19  1  0
 19 21  2  0
 21 23  1  0
 23 25  2  0
 25 16  1  0
 12 13  1  0
 12 14  1  0
 12 15  1  0
 17 18  1  0
 19 20  1  0
 21 22  1  0
 23 24  1  0
 25 26  1  0
M  CHG  1   8   1
M  END
>  <PDB_ID>  (1127) 
pdb1reo

>  <RESIDUE_NAME>  (1127) 
LYS   PHE

>  <FRAG_NAME>  (1127) 
ETAM   MBZ

>  <FRAG_ATOM_NUM>  (1127) 
fragi: 11  fragj: 15

>  <atom.prop.CHAIN_ID>  (1127) 
A A A A A A A A A A A Z Z Z Z Z Z Z Z Z Z Z Z Z Z Z

>  <atom.prop.IS_HEAVY_ATOM>  (1127) 
1 0 0 0 1 0 0 1 0 0 0 1 0 0 0 1 1 0 1 0 1 0 1 0 1 0

>  <DIFUSE_FUNC_ATOM>  (1127) 
n/a

>  <FINAL_SINGLE_POINT_ENERGY>  (1127) 
0

>  <NONCOV_INTER_ENERGY_QM>  (1127) 
0

>  <FF_Energy>  (1127) 
-2.34

>  <QM_Energy>  (1127) 
-11.66

>  <source>  (1127) 
ETAM_MBZ

>  <Index>  (1127) 
11282

$$$$
ETAM-pdb1rjd-C-LYS-53:MBZ-pdb1rjd-A-PHE-307
     RDKit          3D

 26 25  0  0  0  0  0  0  0  0999 V2000
   -0.9614   -1.0151    4.2493 C   0  0  0  0  0  0  0  0  0  0  0  0
   -1.7495   -0.4084    4.1295 H   0  0  0  0  0  0  0  0  0  0  0  0
   -0.8280   -1.1939    5.2254 H   0  0  0  0  0  0  0  0  0  0  0  0
   -1.1526   -1.9565    3.7344 H   0  0  0  0  0  0  0  0  0  0  0  0
    0.2800   -0.2872    3.7279 C   0  0  0  0  0  0  0  0  0  0  0  0
    0.0317    0.1889    2.8603 H   0  0  0  0  0  0  0  0  0  0  0  0
    0.5259    0.4456    4.3952 H   0  0  0  0  0  0  0  0  0  0  0  0
    1.4842   -1.1349    3.4812 N   0  0  0  0  0  4  0  0  0  0  0  0
    1.3349   -2.0415    3.8734 H   0  0  0  0  0  0  0  0  0  0  0  0
    1.6353   -1.2145    2.4970 H   0  0  0  0  0  0  0  0  0  0  0  0
    2.2796   -0.7100    3.9099 H   0  0  0  0  0  0  0  0  0  0  0  0
    0.0170    2.8863    0.0397 C   0  0  0  0  0  0  0  0  0  0  0  0
   -0.9007    3.2076   -0.1196 H   0  0  0  0  0  0  0  0  0  0  0  0
    0.6459    3.2089   -0.6471 H   0  0  0  0  0  0  0  0  0  0  0  0
    0.3466    3.2660    1.0067 H   0  0  0  0  0  0  0  0  0  0  0  0
    0.0014    1.3928   -0.0100 C   0  0  0  0  0  0  0  0  0  0  0  0
   -1.2013    0.6918   -0.0128 C   0  0  0  0  0  0  0  0  0  0  0  0
   -2.0614    1.1906   -0.0255 H   0  0  0  0  0  0  0  0  0  0  0  0
   -1.2024   -0.6828    0.0000 C   0  0  0  0  0  0  0  0  0  0  0  0
   -2.0727   -1.1905    0.0119 H   0  0  0  0  0  0  0  0  0  0  0  0
    0.0110   -1.3908   -0.0012 C   0  0  0  0  0  0  0  0  0  0  0  0
   -0.0085   -2.3877   -0.0035 H   0  0  0  0  0  0  0  0  0  0  0  0
    1.2024   -0.7013    0.0000 C   0  0  0  0  0  0  0  0  0  0  0  0
    2.0865   -1.1903   -0.0148 H   0  0  0  0  0  0  0  0  0  0  0  0
    1.1889    0.6902    0.0240 C   0  0  0  0  0  0  0  0  0  0  0  0
    2.0601    1.1865    0.0662 H   0  0  0  0  0  0  0  0  0  0  0  0
  1  5  1  0
  5  8  1  0
  1  2  1  0
  1  3  1  0
  1  4  1  0
  5  6  1  0
  5  7  1  0
  8  9  1  0
  8 10  1  0
  8 11  1  0
 12 16  1  0
 16 17  2  0
 17 19  1  0
 19 21  2  0
 21 23  1  0
 23 25  2  0
 25 16  1  0
 12 13  1  0
 12 14  1  0
 12 15  1  0
 17 18  1  0
 19 20  1  0
 21 22  1  0
 23 24  1  0
 25 26  1  0
M  CHG  1   8   1
M  END
>  <PDB_ID>  (1128) 
pdb1rjd

>  <RESIDUE_NAME>  (1128) 
LYS   PHE

>  <FRAG_NAME>  (1128) 
ETAM   MBZ

>  <FRAG_ATOM_NUM>  (1128) 
fragi: 11  fragj: 15

>  <atom.prop.CHAIN_ID>  (1128) 
A A A A A A A A A A A Z Z Z Z Z Z Z Z Z Z Z Z Z Z Z

>  <atom.prop.IS_HEAVY_ATOM>  (1128) 
1 0 0 0 1 0 0 1 0 0 0 1 0 0 0 1 1 0 1 0 1 0 1 0 1 0

>  <DIFUSE_FUNC_ATOM>  (1128) 
n/a

>  <FINAL_SINGLE_POINT_ENERGY>  (1128) 
0

>  <NONCOV_INTER_ENERGY_QM>  (1128) 
0

>  <FF_Energy>  (1128) 
-6.24

>  <QM_Energy>  (1128) 
-13.2

>  <source>  (1128) 
ETAM_MBZ

>  <Index>  (1128) 
11288

$$$$
ETAM-pdb2xn0-A-LYS-393:MBZ-pdb2xn0-A-PHE-347
     RDKit          3D

 26 25  0  0  0  0  0  0  0  0999 V2000
    1.6012   -1.6531   -3.9309 C   0  0  0  0  0  0  0  0  0  0  0  0
    1.4590   -2.6338   -3.8190 H   0  0  0  0  0  0  0  0  0  0  0  0
    1.7178   -1.2225   -3.0396 H   0  0  0  0  0  0  0  0  0  0  0  0
    2.5049   -1.4949   -4.5194 H   0  0  0  0  0  0  0  0  0  0  0  0
    0.3722   -1.0586   -4.5984 C   0  0  0  0  0  0  0  0  0  0  0  0
    0.5455   -0.0936   -4.8032 H   0  0  0  0  0  0  0  0  0  0  0  0
    0.1938   -1.5497   -5.4525 H   0  0  0  0  0  0  0  0  0  0  0  0
   -0.8320   -1.1611   -3.7178 N   0  0  0  0  0  4  0  0  0  0  0  0
   -1.2406   -2.0664   -3.8245 H   0  0  0  0  0  0  0  0  0  0  0  0
   -0.5563   -1.0249   -2.7675 H   0  0  0  0  0  0  0  0  0  0  0  0
   -1.4922   -0.4603   -3.9816 H   0  0  0  0  0  0  0  0  0  0  0  0
   -0.0011    2.9063   -0.0218 C   0  0  0  0  0  0  0  0  0  0  0  0
    0.7249    3.2216    0.5654 H   0  0  0  0  0  0  0  0  0  0  0  0
   -0.8838    3.2182    0.2866 H   0  0  0  0  0  0  0  0  0  0  0  0
    0.1696    3.3233   -1.0143 H   0  0  0  0  0  0  0  0  0  0  0  0
   -0.0020    1.3987    0.0025 C   0  0  0  0  0  0  0  0  0  0  0  0
   -1.1966    0.6910   -0.0019 C   0  0  0  0  0  0  0  0  0  0  0  0
   -2.0638    1.1777   -0.0083 H   0  0  0  0  0  0  0  0  0  0  0  0
   -1.1947   -0.6993   -0.0000 C   0  0  0  0  0  0  0  0  0  0  0  0
   -2.0709   -1.1959    0.0012 H   0  0  0  0  0  0  0  0  0  0  0  0
    0.0059   -1.3878    0.0019 C   0  0  0  0  0  0  0  0  0  0  0  0
    0.0044   -2.3887    0.0041 H   0  0  0  0  0  0  0  0  0  0  0  0
    1.1947   -0.6904    0.0000 C   0  0  0  0  0  0  0  0  0  0  0  0
    2.0819   -1.1908    0.0015 H   0  0  0  0  0  0  0  0  0  0  0  0
    1.1927    0.6878   -0.0025 C   0  0  0  0  0  0  0  0  0  0  0  0
    2.0612    1.1890   -0.0087 H   0  0  0  0  0  0  0  0  0  0  0  0
  1  5  1  0
  5  8  1  0
  1  2  1  0
  1  3  1  0
  1  4  1  0
  5  6  1  0
  5  7  1  0
  8  9  1  0
  8 10  1  0
  8 11  1  0
 12 16  1  0
 16 17  2  0
 17 19  1  0
 19 21  2  0
 21 23  1  0
 23 25  2  0
 25 16  1  0
 12 13  1  0
 12 14  1  0
 12 15  1  0
 17 18  1  0
 19 20  1  0
 21 22  1  0
 23 24  1  0
 25 26  1  0
M  CHG  1   8   1
M  END
>  <PDB_ID>  (1129) 
pdb2xn0

>  <RESIDUE_NAME>  (1129) 
LYS   PHE

>  <FRAG_NAME>  (1129) 
ETAM   MBZ

>  <FRAG_ATOM_NUM>  (1129) 
fragi: 11  fragj: 15

>  <atom.prop.CHAIN_ID>  (1129) 
A A A A A A A A A A A Z Z Z Z Z Z Z Z Z Z Z Z Z Z Z

>  <atom.prop.IS_HEAVY_ATOM>  (1129) 
1 0 0 0 1 0 0 1 0 0 0 1 0 0 0 1 1 0 1 0 1 0 1 0 1 0

>  <DIFUSE_FUNC_ATOM>  (1129) 
n/a

>  <FINAL_SINGLE_POINT_ENERGY>  (1129) 
0

>  <NONCOV_INTER_ENERGY_QM>  (1129) 
0

>  <FF_Energy>  (1129) 
-6.15

>  <QM_Energy>  (1129) 
-11.95

>  <source>  (1129) 
ETAM_MBZ

>  <Index>  (1129) 
11300

$$$$
ETAM-pdb2xn0-B-LYS-517:MBZ-pdb2xn0-B-PHE-464
     RDKit          3D

 26 25  0  0  0  0  0  0  0  0999 V2000
   -0.8393   -1.1602   -3.2666 C   0  0  0  0  0  0  0  0  0  0  0  0
   -0.8581   -0.3756   -2.6514 H   0  0  0  0  0  0  0  0  0  0  0  0
   -0.7360   -2.0016   -2.7429 H   0  0  0  0  0  0  0  0  0  0  0  0
   -1.7820   -1.1997   -3.8123 H   0  0  0  0  0  0  0  0  0  0  0  0
    0.3582   -1.0181   -4.1975 C   0  0  0  0  0  0  0  0  0  0  0  0
    0.4492   -1.8540   -4.7397 H   0  0  0  0  0  0  0  0  0  0  0  0
    0.2045   -0.2414   -4.8099 H   0  0  0  0  0  0  0  0  0  0  0  0
    1.6213   -0.7923   -3.4303 N   0  0  0  0  0  4  0  0  0  0  0  0
    1.3946   -0.5505   -2.4882 H   0  0  0  0  0  0  0  0  0  0  0  0
    2.1660   -1.6295   -3.4411 H   0  0  0  0  0  0  0  0  0  0  0  0
    2.1353   -0.0490   -3.8556 H   0  0  0  0  0  0  0  0  0  0  0  0
   -0.0011    2.8882    0.0072 C   0  0  0  0  0  0  0  0  0  0  0  0
   -0.6949    3.2016   -0.6244 H   0  0  0  0  0  0  0  0  0  0  0  0
    0.8976    3.2007   -0.2607 H   0  0  0  0  0  0  0  0  0  0  0  0
   -0.2234    3.3172    0.9842 H   0  0  0  0  0  0  0  0  0  0  0  0
    0.0005    1.3943   -0.0028 C   0  0  0  0  0  0  0  0  0  0  0  0
   -1.1955    0.6877   -0.0057 C   0  0  0  0  0  0  0  0  0  0  0  0
   -2.0613    1.1814   -0.0134 H   0  0  0  0  0  0  0  0  0  0  0  0
   -1.1987   -0.6949    0.0000 C   0  0  0  0  0  0  0  0  0  0  0  0
   -2.0760   -1.1918    0.0052 H   0  0  0  0  0  0  0  0  0  0  0  0
   -0.0009   -1.3865   -0.0001 C   0  0  0  0  0  0  0  0  0  0  0  0
   -0.0025   -2.3871   -0.0010 H   0  0  0  0  0  0  0  0  0  0  0  0
    1.1987   -0.6907    0.0000 C   0  0  0  0  0  0  0  0  0  0  0  0
    2.0800   -1.1935   -0.0046 H   0  0  0  0  0  0  0  0  0  0  0  0
    1.1959    0.6901    0.0086 C   0  0  0  0  0  0  0  0  0  0  0  0
    2.0629    1.1897    0.0222 H   0  0  0  0  0  0  0  0  0  0  0  0
  1  5  1  0
  5  8  1  0
  1  2  1  0
  1  3  1  0
  1  4  1  0
  5  6  1  0
  5  7  1  0
  8  9  1  0
  8 10  1  0
  8 11  1  0
 12 16  1  0
 16 17  2  0
 17 19  1  0
 19 21  2  0
 21 23  1  0
 23 25  2  0
 25 16  1  0
 12 13  1  0
 12 14  1  0
 12 15  1  0
 17 18  1  0
 19 20  1  0
 21 22  1  0
 23 24  1  0
 25 26  1  0
M  CHG  1   8   1
M  END
>  <PDB_ID>  (1130) 
pdb2xn0

>  <RESIDUE_NAME>  (1130) 
LYS   PHE

>  <FRAG_NAME>  (1130) 
ETAM   MBZ

>  <FRAG_ATOM_NUM>  (1130) 
fragi: 11  fragj: 15

>  <atom.prop.CHAIN_ID>  (1130) 
A A A A A A A A A A A Z Z Z Z Z Z Z Z Z Z Z Z Z Z Z

>  <atom.prop.IS_HEAVY_ATOM>  (1130) 
1 0 0 0 1 0 0 1 0 0 0 1 0 0 0 1 1 0 1 0 1 0 1 0 1 0

>  <DIFUSE_FUNC_ATOM>  (1130) 
n/a

>  <FINAL_SINGLE_POINT_ENERGY>  (1130) 
0

>  <NONCOV_INTER_ENERGY_QM>  (1130) 
0

>  <FF_Energy>  (1130) 
-5.94

>  <QM_Energy>  (1130) 
-12.73

>  <source>  (1130) 
ETAM_MBZ

>  <Index>  (1130) 
11306

$$$$
ETAM-pdb1re0-A-LYS-73:MBZ-pdb1re0-B-PHE-252
     RDKit          3D

 26 25  0  0  0  0  0  0  0  0999 V2000
    3.1325    0.4626   -4.1231 C   0  0  0  0  0  0  0  0  0  0  0  0
    3.2790    1.4365   -3.9626 H   0  0  0  0  0  0  0  0  0  0  0  0
    2.8995    0.3082   -5.0801 H   0  0  0  0  0  0  0  0  0  0  0  0
    4.0563   -0.0703   -3.8981 H   0  0  0  0  0  0  0  0  0  0  0  0
    1.9559    0.0005   -3.2582 C   0  0  0  0  0  0  0  0  0  0  0  0
    2.1690    0.1996   -2.2915 H   0  0  0  0  0  0  0  0  0  0  0  0
    1.1389    0.5363   -3.5128 H   0  0  0  0  0  0  0  0  0  0  0  0
    1.6429   -1.4571   -3.3959 N   0  0  0  0  0  4  0  0  0  0  0  0
    0.8384   -1.5655   -3.9771 H   0  0  0  0  0  0  0  0  0  0  0  0
    2.4236   -1.9217   -3.8083 H   0  0  0  0  0  0  0  0  0  0  0  0
    1.4606   -1.8392   -2.4920 H   0  0  0  0  0  0  0  0  0  0  0  0
    0.0047    2.8943    0.0317 C   0  0  0  0  0  0  0  0  0  0  0  0
   -0.7062    3.2188   -0.5747 H   0  0  0  0  0  0  0  0  0  0  0  0
    0.8964    3.2058   -0.2613 H   0  0  0  0  0  0  0  0  0  0  0  0
   -0.1848    3.3152    1.0191 H   0  0  0  0  0  0  0  0  0  0  0  0
   -0.0018    1.3985    0.0021 C   0  0  0  0  0  0  0  0  0  0  0  0
   -1.1890    0.6955    0.0003 C   0  0  0  0  0  0  0  0  0  0  0  0
   -2.0598    1.1803   -0.0023 H   0  0  0  0  0  0  0  0  0  0  0  0
   -1.1934   -0.6982   -0.0000 C   0  0  0  0  0  0  0  0  0  0  0  0
   -2.0721   -1.1892    0.0018 H   0  0  0  0  0  0  0  0  0  0  0  0
    0.0051   -1.3945   -0.0012 C   0  0  0  0  0  0  0  0  0  0  0  0
    0.0007   -2.3917   -0.0031 H   0  0  0  0  0  0  0  0  0  0  0  0
    1.1934   -0.6945    0.0000 C   0  0  0  0  0  0  0  0  0  0  0  0
    2.0812   -1.1871    0.0033 H   0  0  0  0  0  0  0  0  0  0  0  0
    1.1857    0.6932   -0.0012 C   0  0  0  0  0  0  0  0  0  0  0  0
    2.0583    1.1897   -0.0057 H   0  0  0  0  0  0  0  0  0  0  0  0
  1  5  1  0
  5  8  1  0
  1  2  1  0
  1  3  1  0
  1  4  1  0
  5  6  1  0
  5  7  1  0
  8  9  1  0
  8 10  1  0
  8 11  1  0
 12 16  1  0
 16 17  2  0
 17 19  1  0
 19 21  2  0
 21 23  1  0
 23 25  2  0
 25 16  1  0
 12 13  1  0
 12 14  1  0
 12 15  1  0
 17 18  1  0
 19 20  1  0
 21 22  1  0
 23 24  1  0
 25 26  1  0
M  CHG  1   8   1
M  END
>  <PDB_ID>  (1131) 
pdb1re0

>  <RESIDUE_NAME>  (1131) 
LYS   PHE

>  <FRAG_NAME>  (1131) 
ETAM   MBZ

>  <FRAG_ATOM_NUM>  (1131) 
fragi: 11  fragj: 15

>  <atom.prop.CHAIN_ID>  (1131) 
A A A A A A A A A A A Z Z Z Z Z Z Z Z Z Z Z Z Z Z Z

>  <atom.prop.IS_HEAVY_ATOM>  (1131) 
1 0 0 0 1 0 0 1 0 0 0 1 0 0 0 1 1 0 1 0 1 0 1 0 1 0

>  <DIFUSE_FUNC_ATOM>  (1131) 
n/a

>  <FINAL_SINGLE_POINT_ENERGY>  (1131) 
0

>  <NONCOV_INTER_ENERGY_QM>  (1131) 
0

>  <FF_Energy>  (1131) 
-3.92

>  <QM_Energy>  (1131) 
-10.13

>  <source>  (1131) 
ETAM_MBZ

>  <Index>  (1131) 
11312

$$$$
ETAM-pdb2xme-E-LYS-80:MBZ-pdb2xme-E-PHE-76
     RDKit          3D

 26 25  0  0  0  0  0  0  0  0999 V2000
    0.1401   -1.9618    4.6871 C   0  0  0  0  0  0  0  0  0  0  0  0
    0.4572   -2.9235    4.7001 H   0  0  0  0  0  0  0  0  0  0  0  0
   -0.3491   -1.7903    5.5560 H   0  0  0  0  0  0  0  0  0  0  0  0
    1.0092   -1.3059    4.6363 H   0  0  0  0  0  0  0  0  0  0  0  0
   -0.8653   -1.8145    3.5456 C   0  0  0  0  0  0  0  0  0  0  0  0
   -0.3763   -1.8777    2.6746 H   0  0  0  0  0  0  0  0  0  0  0  0
   -1.5324   -2.5580    3.6043 H   0  0  0  0  0  0  0  0  0  0  0  0
   -1.5826   -0.5056    3.6119 N   0  0  0  0  0  4  0  0  0  0  0  0
   -0.9327    0.2337    3.4443 H   0  0  0  0  0  0  0  0  0  0  0  0
   -2.2994   -0.4879    2.9175 H   0  0  0  0  0  0  0  0  0  0  0  0
   -1.9884   -0.3984    4.5181 H   0  0  0  0  0  0  0  0  0  0  0  0
    0.0027    2.9216    0.0534 C   0  0  0  0  0  0  0  0  0  0  0  0
   -0.6756    3.2501   -0.5849 H   0  0  0  0  0  0  0  0  0  0  0  0
    0.9082    3.2335   -0.1877 H   0  0  0  0  0  0  0  0  0  0  0  0
   -0.2386    3.3317    1.0341 H   0  0  0  0  0  0  0  0  0  0  0  0
   -0.0002    1.4108    0.0007 C   0  0  0  0  0  0  0  0  0  0  0  0
   -1.1991    0.6963   -0.0316 C   0  0  0  0  0  0  0  0  0  0  0  0
   -2.0638    1.1790   -0.0792 H   0  0  0  0  0  0  0  0  0  0  0  0
   -1.1952   -0.7021    0.0000 C   0  0  0  0  0  0  0  0  0  0  0  0
   -2.0744   -1.1933    0.0236 H   0  0  0  0  0  0  0  0  0  0  0  0
    0.0016   -1.3916    0.0012 C   0  0  0  0  0  0  0  0  0  0  0  0
   -0.0062   -2.3963    0.0031 H   0  0  0  0  0  0  0  0  0  0  0  0
    1.1952   -0.7073    0.0000 C   0  0  0  0  0  0  0  0  0  0  0  0
    2.0793   -1.1996   -0.0202 H   0  0  0  0  0  0  0  0  0  0  0  0
    1.1976    0.6939    0.0297 C   0  0  0  0  0  0  0  0  0  0  0  0
    2.0659    1.1824    0.0714 H   0  0  0  0  0  0  0  0  0  0  0  0
  1  5  1  0
  5  8  1  0
  1  2  1  0
  1  3  1  0
  1  4  1  0
  5  6  1  0
  5  7  1  0
  8  9  1  0
  8 10  1  0
  8 11  1  0
 12 16  1  0
 16 17  2  0
 17 19  1  0
 19 21  2  0
 21 23  1  0
 23 25  2  0
 25 16  1  0
 12 13  1  0
 12 14  1  0
 12 15  1  0
 17 18  1  0
 19 20  1  0
 21 22  1  0
 23 24  1  0
 25 26  1  0
M  CHG  1   8   1
M  END
>  <PDB_ID>  (1132) 
pdb2xme

>  <RESIDUE_NAME>  (1132) 
LYS   PHE

>  <FRAG_NAME>  (1132) 
ETAM   MBZ

>  <FRAG_ATOM_NUM>  (1132) 
fragi: 11  fragj: 15

>  <atom.prop.CHAIN_ID>  (1132) 
A A A A A A A A A A A Z Z Z Z Z Z Z Z Z Z Z Z Z Z Z

>  <atom.prop.IS_HEAVY_ATOM>  (1132) 
1 0 0 0 1 0 0 1 0 0 0 1 0 0 0 1 1 0 1 0 1 0 1 0 1 0

>  <DIFUSE_FUNC_ATOM>  (1132) 
n/a

>  <FINAL_SINGLE_POINT_ENERGY>  (1132) 
0

>  <NONCOV_INTER_ENERGY_QM>  (1132) 
0

>  <FF_Energy>  (1132) 
-5.37

>  <QM_Energy>  (1132) 
-10.45

>  <source>  (1132) 
ETAM_MBZ

>  <Index>  (1132) 
11361

$$$$
ETAM-pdb1row-A-LYS-34:MBZ-pdb1row-A-PHE-49
     RDKit          3D

 26 25  0  0  0  0  0  0  0  0999 V2000
    1.8768   -2.7144    2.9279 C   0  0  0  0  0  0  0  0  0  0  0  0
    2.4170   -2.6023    2.1075 H   0  0  0  0  0  0  0  0  0  0  0  0
    2.3754   -3.2117    3.6215 H   0  0  0  0  0  0  0  0  0  0  0  0
    1.6158   -1.7299    3.3164 H   0  0  0  0  0  0  0  0  0  0  0  0
    0.6152   -3.4948    2.5792 C   0  0  0  0  0  0  0  0  0  0  0  0
    0.1728   -3.0618    1.7863 H   0  0  0  0  0  0  0  0  0  0  0  0
    0.8723   -4.4339    2.3276 H   0  0  0  0  0  0  0  0  0  0  0  0
   -0.3622   -3.5469    3.7122 N   0  0  0  0  0  4  0  0  0  0  0  0
   -0.5656   -4.5007    3.9247 H   0  0  0  0  0  0  0  0  0  0  0  0
    0.0373   -3.0993    4.5097 H   0  0  0  0  0  0  0  0  0  0  0  0
   -1.1995   -3.0745    3.4436 H   0  0  0  0  0  0  0  0  0  0  0  0
    0.0084    2.9014   -0.0332 C   0  0  0  0  0  0  0  0  0  0  0  0
   -0.7893    3.2031   -0.5390 H   0  0  0  0  0  0  0  0  0  0  0  0
    0.8428    3.1963   -0.4811 H   0  0  0  0  0  0  0  0  0  0  0  0
   -0.0249    3.3737    0.9487 H   0  0  0  0  0  0  0  0  0  0  0  0
    0.0009    1.4040   -0.0006 C   0  0  0  0  0  0  0  0  0  0  0  0
   -1.1968    0.6991    0.0020 C   0  0  0  0  0  0  0  0  0  0  0  0
   -2.0627    1.1880    0.0042 H   0  0  0  0  0  0  0  0  0  0  0  0
   -1.2037   -0.6980    0.0000 C   0  0  0  0  0  0  0  0  0  0  0  0
   -2.0803   -1.1883    0.0006 H   0  0  0  0  0  0  0  0  0  0  0  0
   -0.0007   -1.3976   -0.0015 C   0  0  0  0  0  0  0  0  0  0  0  0
   -0.0068   -2.3951   -0.0040 H   0  0  0  0  0  0  0  0  0  0  0  0
    1.2037   -0.7023    0.0000 C   0  0  0  0  0  0  0  0  0  0  0  0
    2.0836   -1.1971    0.0027 H   0  0  0  0  0  0  0  0  0  0  0  0
    1.1967    0.6947    0.0001 C   0  0  0  0  0  0  0  0  0  0  0  0
    2.0664    1.1885   -0.0004 H   0  0  0  0  0  0  0  0  0  0  0  0
  1  5  1  0
  5  8  1  0
  1  2  1  0
  1  3  1  0
  1  4  1  0
  5  6  1  0
  5  7  1  0
  8  9  1  0
  8 10  1  0
  8 11  1  0
 12 16  1  0
 16 17  2  0
 17 19  1  0
 19 21  2  0
 21 23  1  0
 23 25  2  0
 25 16  1  0
 12 13  1  0
 12 14  1  0
 12 15  1  0
 17 18  1  0
 19 20  1  0
 21 22  1  0
 23 24  1  0
 25 26  1  0
M  CHG  1   8   1
M  END
>  <PDB_ID>  (1133) 
pdb1row

>  <RESIDUE_NAME>  (1133) 
LYS   PHE

>  <FRAG_NAME>  (1133) 
ETAM   MBZ

>  <FRAG_ATOM_NUM>  (1133) 
fragi: 11  fragj: 15

>  <atom.prop.CHAIN_ID>  (1133) 
A A A A A A A A A A A Z Z Z Z Z Z Z Z Z Z Z Z Z Z Z

>  <atom.prop.IS_HEAVY_ATOM>  (1133) 
1 0 0 0 1 0 0 1 0 0 0 1 0 0 0 1 1 0 1 0 1 0 1 0 1 0

>  <DIFUSE_FUNC_ATOM>  (1133) 
n/a

>  <FINAL_SINGLE_POINT_ENERGY>  (1133) 
0

>  <NONCOV_INTER_ENERGY_QM>  (1133) 
0

>  <FF_Energy>  (1133) 
0.72

>  <QM_Energy>  (1133) 
-4.87

>  <source>  (1133) 
ETAM_MBZ

>  <Index>  (1133) 
11372

$$$$
ETAM-pdb2xt3-A-LYS-316:MBZ-pdb2xt3-A-PHE-83
     RDKit          3D

 26 25  0  0  0  0  0  0  0  0999 V2000
   -3.5209    1.3049    3.6367 C   0  0  0  0  0  0  0  0  0  0  0  0
   -3.8396    1.1153    4.5535 H   0  0  0  0  0  0  0  0  0  0  0  0
   -4.2756    1.4473    3.0142 H   0  0  0  0  0  0  0  0  0  0  0  0
   -2.8900    2.1936    3.6501 H   0  0  0  0  0  0  0  0  0  0  0  0
   -2.7214    0.0770    3.1450 C   0  0  0  0  0  0  0  0  0  0  0  0
   -1.9041    0.4038    2.6678 H   0  0  0  0  0  0  0  0  0  0  0  0
   -2.4437   -0.4584    3.9444 H   0  0  0  0  0  0  0  0  0  0  0  0
   -3.5239   -0.7805    2.2266 N   0  0  0  0  0  4  0  0  0  0  0  0
   -4.4812   -0.4959    2.2607 H   0  0  0  0  0  0  0  0  0  0  0  0
   -3.1768   -0.6811    1.2947 H   0  0  0  0  0  0  0  0  0  0  0  0
   -3.4464   -1.7341    2.5141 H   0  0  0  0  0  0  0  0  0  0  0  0
   -0.0190    2.8999    0.0350 C   0  0  0  0  0  0  0  0  0  0  0  0
    0.5042    3.1889    0.8312 H   0  0  0  0  0  0  0  0  0  0  0  0
   -0.9670    3.1920    0.1216 H   0  0  0  0  0  0  0  0  0  0  0  0
    0.4017    3.4011   -0.8368 H   0  0  0  0  0  0  0  0  0  0  0  0
    0.0002    1.3965   -0.0098 C   0  0  0  0  0  0  0  0  0  0  0  0
   -1.1972    0.6821    0.0036 C   0  0  0  0  0  0  0  0  0  0  0  0
   -2.0638    1.1782    0.0142 H   0  0  0  0  0  0  0  0  0  0  0  0
   -1.2024   -0.6981   -0.0000 C   0  0  0  0  0  0  0  0  0  0  0  0
   -2.0750   -1.1979    0.0001 H   0  0  0  0  0  0  0  0  0  0  0  0
    0.0029   -1.3882   -0.0018 C   0  0  0  0  0  0  0  0  0  0  0  0
    0.0018   -2.3893   -0.0048 H   0  0  0  0  0  0  0  0  0  0  0  0
    1.2024   -0.6908    0.0000 C   0  0  0  0  0  0  0  0  0  0  0  0
    2.0845   -1.1869   -0.0030 H   0  0  0  0  0  0  0  0  0  0  0  0
    1.1942    0.6984    0.0080 C   0  0  0  0  0  0  0  0  0  0  0  0
    2.0620    1.1962    0.0258 H   0  0  0  0  0  0  0  0  0  0  0  0
  1  5  1  0
  5  8  1  0
  1  2  1  0
  1  3  1  0
  1  4  1  0
  5  6  1  0
  5  7  1  0
  8  9  1  0
  8 10  1  0
  8 11  1  0
 12 16  1  0
 16 17  2  0
 17 19  1  0
 19 21  2  0
 21 23  1  0
 23 25  2  0
 25 16  1  0
 12 13  1  0
 12 14  1  0
 12 15  1  0
 17 18  1  0
 19 20  1  0
 21 22  1  0
 23 24  1  0
 25 26  1  0
M  CHG  1   8   1
M  END
>  <PDB_ID>  (1134) 
pdb2xt3

>  <RESIDUE_NAME>  (1134) 
LYS   PHE

>  <FRAG_NAME>  (1134) 
ETAM   MBZ

>  <FRAG_ATOM_NUM>  (1134) 
fragi: 11  fragj: 15

>  <atom.prop.CHAIN_ID>  (1134) 
A A A A A A A A A A A Z Z Z Z Z Z Z Z Z Z Z Z Z Z Z

>  <atom.prop.IS_HEAVY_ATOM>  (1134) 
1 0 0 0 1 0 0 1 0 0 0 1 0 0 0 1 1 0 1 0 1 0 1 0 1 0

>  <DIFUSE_FUNC_ATOM>  (1134) 
n/a

>  <FINAL_SINGLE_POINT_ENERGY>  (1134) 
0

>  <NONCOV_INTER_ENERGY_QM>  (1134) 
0

>  <FF_Energy>  (1134) 
-1.03

>  <QM_Energy>  (1134) 
-7.45

>  <source>  (1134) 
ETAM_MBZ

>  <Index>  (1134) 
11398

$$$$
ETAM-pdb1rpn-A-LYS-193:MBZ-pdb1rpn-A-PHE-277
     RDKit          3D

 26 25  0  0  0  0  0  0  0  0999 V2000
    1.1756   -0.7286   -5.4094 C   0  0  0  0  0  0  0  0  0  0  0  0
    2.0915   -0.7627   -5.0318 H   0  0  0  0  0  0  0  0  0  0  0  0
    0.9037    0.2066   -5.5961 H   0  0  0  0  0  0  0  0  0  0  0  0
    1.1546   -1.2968   -6.3393 H   0  0  0  0  0  0  0  0  0  0  0  0
    0.2091   -1.3222   -4.3949 C   0  0  0  0  0  0  0  0  0  0  0  0
   -0.7247   -1.2306   -4.7439 H   0  0  0  0  0  0  0  0  0  0  0  0
    0.4215   -2.2925   -4.2726 H   0  0  0  0  0  0  0  0  0  0  0  0
    0.3129   -0.6284   -3.0824 N   0  0  0  0  0  4  0  0  0  0  0  0
    0.7672   -1.2285   -2.4248 H   0  0  0  0  0  0  0  0  0  0  0  0
    0.8446    0.2108   -3.1920 H   0  0  0  0  0  0  0  0  0  0  0  0
   -0.6038   -0.4033   -2.7527 H   0  0  0  0  0  0  0  0  0  0  0  0
    0.0085    2.8993    0.0758 C   0  0  0  0  0  0  0  0  0  0  0  0
   -0.9185    3.2184   -0.0326 H   0  0  0  0  0  0  0  0  0  0  0  0
    0.5982    3.2397   -0.6374 H   0  0  0  0  0  0  0  0  0  0  0  0
    0.3830    3.2785    1.0266 H   0  0  0  0  0  0  0  0  0  0  0  0
   -0.0004    1.4017    0.0009 C   0  0  0  0  0  0  0  0  0  0  0  0
   -1.1974    0.6972   -0.0020 C   0  0  0  0  0  0  0  0  0  0  0  0
   -2.0637    1.1877   -0.0073 H   0  0  0  0  0  0  0  0  0  0  0  0
   -1.2048   -0.6952   -0.0000 C   0  0  0  0  0  0  0  0  0  0  0  0
   -2.0811   -1.1878    0.0017 H   0  0  0  0  0  0  0  0  0  0  0  0
   -0.0008   -1.3957    0.0016 C   0  0  0  0  0  0  0  0  0  0  0  0
   -0.0068   -2.3926    0.0036 H   0  0  0  0  0  0  0  0  0  0  0  0
    1.2048   -0.6995   -0.0000 C   0  0  0  0  0  0  0  0  0  0  0  0
    2.0832   -1.1979    0.0004 H   0  0  0  0  0  0  0  0  0  0  0  0
    1.1986    0.6914   -0.0005 C   0  0  0  0  0  0  0  0  0  0  0  0
    2.0659    1.1894   -0.0031 H   0  0  0  0  0  0  0  0  0  0  0  0
  1  5  1  0
  5  8  1  0
  1  2  1  0
  1  3  1  0
  1  4  1  0
  5  6  1  0
  5  7  1  0
  8  9  1  0
  8 10  1  0
  8 11  1  0
 12 16  1  0
 16 17  2  0
 17 19  1  0
 19 21  2  0
 21 23  1  0
 23 25  2  0
 25 16  1  0
 12 13  1  0
 12 14  1  0
 12 15  1  0
 17 18  1  0
 19 20  1  0
 21 22  1  0
 23 24  1  0
 25 26  1  0
M  CHG  1   8   1
M  END
>  <PDB_ID>  (1135) 
pdb1rpn

>  <RESIDUE_NAME>  (1135) 
LYS   PHE

>  <FRAG_NAME>  (1135) 
ETAM   MBZ

>  <FRAG_ATOM_NUM>  (1135) 
fragi: 11  fragj: 15

>  <atom.prop.CHAIN_ID>  (1135) 
A A A A A A A A A A A Z Z Z Z Z Z Z Z Z Z Z Z Z Z Z

>  <atom.prop.IS_HEAVY_ATOM>  (1135) 
1 0 0 0 1 0 0 1 0 0 0 1 0 0 0 1 1 0 1 0 1 0 1 0 1 0

>  <DIFUSE_FUNC_ATOM>  (1135) 
n/a

>  <FINAL_SINGLE_POINT_ENERGY>  (1135) 
0

>  <NONCOV_INTER_ENERGY_QM>  (1135) 
0

>  <FF_Energy>  (1135) 
-8.0

>  <QM_Energy>  (1135) 
-15.58

>  <source>  (1135) 
ETAM_MBZ

>  <Index>  (1135) 
11404

$$$$
ETAM-pdb1rpn-B-LYS-193:MBZ-pdb1rpn-B-PHE-277
     RDKit          3D

 26 25  0  0  0  0  0  0  0  0999 V2000
    0.2125   -0.6694   -5.5383 C   0  0  0  0  0  0  0  0  0  0  0  0
    1.1726   -0.6946   -5.3068 H   0  0  0  0  0  0  0  0  0  0  0  0
   -0.0976    0.2556   -5.6962 H   0  0  0  0  0  0  0  0  0  0  0  0
    0.0493   -1.2590   -6.4404 H   0  0  0  0  0  0  0  0  0  0  0  0
   -0.5829   -1.2601   -4.3836 C   0  0  0  0  0  0  0  0  0  0  0  0
   -1.5652   -1.1910   -4.5986 H   0  0  0  0  0  0  0  0  0  0  0  0
   -0.3479   -2.2365   -4.2943 H   0  0  0  0  0  0  0  0  0  0  0  0
   -0.3168   -0.5755   -3.0933 N   0  0  0  0  0  4  0  0  0  0  0  0
   -0.1194   -1.2581   -2.3887 H   0  0  0  0  0  0  0  0  0  0  0  0
    0.4692    0.0350   -3.1953 H   0  0  0  0  0  0  0  0  0  0  0  0
   -1.1208   -0.0429   -2.8266 H   0  0  0  0  0  0  0  0  0  0  0  0
    0.0087    2.9058    0.0517 C   0  0  0  0  0  0  0  0  0  0  0  0
   -0.9258    3.2146    0.1199 H   0  0  0  0  0  0  0  0  0  0  0  0
    0.4444    3.2371   -0.7685 H   0  0  0  0  0  0  0  0  0  0  0  0
    0.5560    3.3055    0.9053 H   0  0  0  0  0  0  0  0  0  0  0  0
    0.0008    1.4030    0.0009 C   0  0  0  0  0  0  0  0  0  0  0  0
   -1.1946    0.6977   -0.0010 C   0  0  0  0  0  0  0  0  0  0  0  0
   -2.0618    1.1873   -0.0051 H   0  0  0  0  0  0  0  0  0  0  0  0
   -1.2016   -0.6953   -0.0000 C   0  0  0  0  0  0  0  0  0  0  0  0
   -2.0804   -1.1856    0.0006 H   0  0  0  0  0  0  0  0  0  0  0  0
   -0.0026   -1.3959    0.0015 C   0  0  0  0  0  0  0  0  0  0  0  0
   -0.0089   -2.3937    0.0036 H   0  0  0  0  0  0  0  0  0  0  0  0
    1.2016   -0.7016   -0.0000 C   0  0  0  0  0  0  0  0  0  0  0  0
    2.0809   -1.1986    0.0022 H   0  0  0  0  0  0  0  0  0  0  0  0
    1.1964    0.6921   -0.0014 C   0  0  0  0  0  0  0  0  0  0  0  0
    2.0661    1.1867   -0.0050 H   0  0  0  0  0  0  0  0  0  0  0  0
  1  5  1  0
  5  8  1  0
  1  2  1  0
  1  3  1  0
  1  4  1  0
  5  6  1  0
  5  7  1  0
  8  9  1  0
  8 10  1  0
  8 11  1  0
 12 16  1  0
 16 17  2  0
 17 19  1  0
 19 21  2  0
 21 23  1  0
 23 25  2  0
 25 16  1  0
 12 13  1  0
 12 14  1  0
 12 15  1  0
 17 18  1  0
 19 20  1  0
 21 22  1  0
 23 24  1  0
 25 26  1  0
M  CHG  1   8   1
M  END
>  <PDB_ID>  (1136) 
pdb1rpn

>  <RESIDUE_NAME>  (1136) 
LYS   PHE

>  <FRAG_NAME>  (1136) 
ETAM   MBZ

>  <FRAG_ATOM_NUM>  (1136) 
fragi: 11  fragj: 15

>  <atom.prop.CHAIN_ID>  (1136) 
A A A A A A A A A A A Z Z Z Z Z Z Z Z Z Z Z Z Z Z Z

>  <atom.prop.IS_HEAVY_ATOM>  (1136) 
1 0 0 0 1 0 0 1 0 0 0 1 0 0 0 1 1 0 1 0 1 0 1 0 1 0

>  <DIFUSE_FUNC_ATOM>  (1136) 
n/a

>  <FINAL_SINGLE_POINT_ENERGY>  (1136) 
0

>  <NONCOV_INTER_ENERGY_QM>  (1136) 
0

>  <FF_Energy>  (1136) 
-8.14

>  <QM_Energy>  (1136) 
-15.73

>  <source>  (1136) 
ETAM_MBZ

>  <Index>  (1136) 
11405

$$$$
ETAM-pdb1rpn-C-LYS-193:MBZ-pdb1rpn-C-PHE-277
     RDKit          3D

 26 25  0  0  0  0  0  0  0  0999 V2000
    1.5475   -0.5273   -5.3959 C   0  0  0  0  0  0  0  0  0  0  0  0
    2.4223   -0.6140   -4.9433 H   0  0  0  0  0  0  0  0  0  0  0  0
    1.3114    0.4208   -5.5452 H   0  0  0  0  0  0  0  0  0  0  0  0
    1.5890   -1.0421   -6.3557 H   0  0  0  0  0  0  0  0  0  0  0  0
    0.4779   -1.1583   -4.5071 C   0  0  0  0  0  0  0  0  0  0  0  0
   -0.4200   -1.0397   -4.9487 H   0  0  0  0  0  0  0  0  0  0  0  0
    0.6628   -2.1463   -4.4307 H   0  0  0  0  0  0  0  0  0  0  0  0
    0.4304   -0.5644   -3.1397 N   0  0  0  0  0  4  0  0  0  0  0  0
    0.6100   -1.2775   -2.4637 H   0  0  0  0  0  0  0  0  0  0  0  0
    1.1253    0.1502   -3.0663 H   0  0  0  0  0  0  0  0  0  0  0  0
   -0.4742   -0.1711   -2.9820 H   0  0  0  0  0  0  0  0  0  0  0  0
    0.0095    2.8927    0.1062 C   0  0  0  0  0  0  0  0  0  0  0  0
   -0.9044    3.2210   -0.0662 H   0  0  0  0  0  0  0  0  0  0  0  0
    0.6553    3.2455   -0.5499 H   0  0  0  0  0  0  0  0  0  0  0  0
    0.3095    3.2483    1.0919 H   0  0  0  0  0  0  0  0  0  0  0  0
    0.0004    1.4011    0.0007 C   0  0  0  0  0  0  0  0  0  0  0  0
   -1.1971    0.6969   -0.0021 C   0  0  0  0  0  0  0  0  0  0  0  0
   -2.0623    1.1888   -0.0071 H   0  0  0  0  0  0  0  0  0  0  0  0
   -1.2043   -0.6933   -0.0000 C   0  0  0  0  0  0  0  0  0  0  0  0
   -2.0822   -1.1860    0.0008 H   0  0  0  0  0  0  0  0  0  0  0  0
   -0.0035   -1.3946    0.0025 C   0  0  0  0  0  0  0  0  0  0  0  0
   -0.0105   -2.3926    0.0055 H   0  0  0  0  0  0  0  0  0  0  0  0
    1.2043   -0.7014    0.0000 C   0  0  0  0  0  0  0  0  0  0  0  0
    2.0817   -1.2012    0.0005 H   0  0  0  0  0  0  0  0  0  0  0  0
    1.2002    0.6912   -0.0011 C   0  0  0  0  0  0  0  0  0  0  0  0
    2.0672    1.1875   -0.0039 H   0  0  0  0  0  0  0  0  0  0  0  0
  1  5  1  0
  5  8  1  0
  1  2  1  0
  1  3  1  0
  1  4  1  0
  5  6  1  0
  5  7  1  0
  8  9  1  0
  8 10  1  0
  8 11  1  0
 12 16  1  0
 16 17  2  0
 17 19  1  0
 19 21  2  0
 21 23  1  0
 23 25  2  0
 25 16  1  0
 12 13  1  0
 12 14  1  0
 12 15  1  0
 17 18  1  0
 19 20  1  0
 21 22  1  0
 23 24  1  0
 25 26  1  0
M  CHG  1   8   1
M  END
>  <PDB_ID>  (1137) 
pdb1rpn

>  <RESIDUE_NAME>  (1137) 
LYS   PHE

>  <FRAG_NAME>  (1137) 
ETAM   MBZ

>  <FRAG_ATOM_NUM>  (1137) 
fragi: 11  fragj: 15

>  <atom.prop.CHAIN_ID>  (1137) 
A A A A A A A A A A A Z Z Z Z Z Z Z Z Z Z Z Z Z Z Z

>  <atom.prop.IS_HEAVY_ATOM>  (1137) 
1 0 0 0 1 0 0 1 0 0 0 1 0 0 0 1 1 0 1 0 1 0 1 0 1 0

>  <DIFUSE_FUNC_ATOM>  (1137) 
n/a

>  <FINAL_SINGLE_POINT_ENERGY>  (1137) 
0

>  <NONCOV_INTER_ENERGY_QM>  (1137) 
0

>  <FF_Energy>  (1137) 
-7.95

>  <QM_Energy>  (1137) 
-15.29

>  <source>  (1137) 
ETAM_MBZ

>  <Index>  (1137) 
11406

$$$$
ETAM-pdb1rpn-D-LYS-193:MBZ-pdb1rpn-D-PHE-277
     RDKit          3D

 26 25  0  0  0  0  0  0  0  0999 V2000
    1.1898   -0.6191   -5.3670 C   0  0  0  0  0  0  0  0  0  0  0  0
    2.1029   -0.6676   -4.9858 H   0  0  0  0  0  0  0  0  0  0  0  0
    0.9226    0.3201   -5.5326 H   0  0  0  0  0  0  0  0  0  0  0  0
    1.1699   -1.1660   -6.3096 H   0  0  0  0  0  0  0  0  0  0  0  0
    0.2150   -1.2332   -4.3733 C   0  0  0  0  0  0  0  0  0  0  0  0
   -0.7124   -1.1836   -4.7548 H   0  0  0  0  0  0  0  0  0  0  0  0
    0.4557   -2.1987   -4.2365 H   0  0  0  0  0  0  0  0  0  0  0  0
    0.2413   -0.5321   -3.0606 N   0  0  0  0  0  4  0  0  0  0  0  0
    1.1846   -0.4738   -2.7347 H   0  0  0  0  0  0  0  0  0  0  0  0
   -0.1326    0.3884   -3.1694 H   0  0  0  0  0  0  0  0  0  0  0  0
   -0.3104   -1.0418   -2.4010 H   0  0  0  0  0  0  0  0  0  0  0  0
    0.0113    2.9100    0.0753 C   0  0  0  0  0  0  0  0  0  0  0  0
   -0.9107    3.2294   -0.0652 H   0  0  0  0  0  0  0  0  0  0  0  0
    0.6260    3.2470   -0.6174 H   0  0  0  0  0  0  0  0  0  0  0  0
    0.3535    3.2891    1.0382 H   0  0  0  0  0  0  0  0  0  0  0  0
    0.0013    1.4069    0.0003 C   0  0  0  0  0  0  0  0  0  0  0  0
   -1.1965    0.7005   -0.0012 C   0  0  0  0  0  0  0  0  0  0  0  0
   -2.0633    1.1893   -0.0043 H   0  0  0  0  0  0  0  0  0  0  0  0
   -1.2041   -0.6973   -0.0000 C   0  0  0  0  0  0  0  0  0  0  0  0
   -2.0830   -1.1858    0.0007 H   0  0  0  0  0  0  0  0  0  0  0  0
   -0.0044   -1.4004    0.0022 C   0  0  0  0  0  0  0  0  0  0  0  0
   -0.0096   -2.3965    0.0051 H   0  0  0  0  0  0  0  0  0  0  0  0
    1.2041   -0.7032    0.0000 C   0  0  0  0  0  0  0  0  0  0  0  0
    2.0819   -1.2012    0.0009 H   0  0  0  0  0  0  0  0  0  0  0  0
    1.1996    0.6936   -0.0013 C   0  0  0  0  0  0  0  0  0  0  0  0
    2.0686    1.1875   -0.0037 H   0  0  0  0  0  0  0  0  0  0  0  0
  1  5  1  0
  5  8  1  0
  1  2  1  0
  1  3  1  0
  1  4  1  0
  5  6  1  0
  5  7  1  0
  8  9  1  0
  8 10  1  0
  8 11  1  0
 12 16  1  0
 16 17  2  0
 17 19  1  0
 19 21  2  0
 21 23  1  0
 23 25  2  0
 25 16  1  0
 12 13  1  0
 12 14  1  0
 12 15  1  0
 17 18  1  0
 19 20  1  0
 21 22  1  0
 23 24  1  0
 25 26  1  0
M  CHG  1   8   1
M  END
>  <PDB_ID>  (1138) 
pdb1rpn

>  <RESIDUE_NAME>  (1138) 
LYS   PHE

>  <FRAG_NAME>  (1138) 
ETAM   MBZ

>  <FRAG_ATOM_NUM>  (1138) 
fragi: 11  fragj: 15

>  <atom.prop.CHAIN_ID>  (1138) 
A A A A A A A A A A A Z Z Z Z Z Z Z Z Z Z Z Z Z Z Z

>  <atom.prop.IS_HEAVY_ATOM>  (1138) 
1 0 0 0 1 0 0 1 0 0 0 1 0 0 0 1 1 0 1 0 1 0 1 0 1 0

>  <DIFUSE_FUNC_ATOM>  (1138) 
n/a

>  <FINAL_SINGLE_POINT_ENERGY>  (1138) 
0

>  <NONCOV_INTER_ENERGY_QM>  (1138) 
0

>  <FF_Energy>  (1138) 
-8.32

>  <QM_Energy>  (1138) 
-16.2

>  <source>  (1138) 
ETAM_MBZ

>  <Index>  (1138) 
11407

$$$$
ETAM-pdb1rqx-D-LYS-245:MBZ-pdb1rqx-D-PHE-6
     RDKit          3D

 26 25  0  0  0  0  0  0  0  0999 V2000
    1.5034   -4.0359   -3.0448 C   0  0  0  0  0  0  0  0  0  0  0  0
    1.4963   -4.8619   -3.6021 H   0  0  0  0  0  0  0  0  0  0  0  0
    1.4779   -3.2295   -3.6300 H   0  0  0  0  0  0  0  0  0  0  0  0
    0.6231   -4.0356   -2.4020 H   0  0  0  0  0  0  0  0  0  0  0  0
    2.7940   -4.0070   -2.2407 C   0  0  0  0  0  0  0  0  0  0  0  0
    2.8441   -4.8396   -1.6760 H   0  0  0  0  0  0  0  0  0  0  0  0
    3.5744   -4.0092   -2.8775 H   0  0  0  0  0  0  0  0  0  0  0  0
    2.8915   -2.8132   -1.3569 N   0  0  0  0  0  4  0  0  0  0  0  0
    3.6540   -2.2401   -1.6566 H   0  0  0  0  0  0  0  0  0  0  0  0
    2.0401   -2.2921   -1.4088 H   0  0  0  0  0  0  0  0  0  0  0  0
    3.0450   -3.1096   -0.4149 H   0  0  0  0  0  0  0  0  0  0  0  0
    0.0003    2.9096   -0.0370 C   0  0  0  0  0  0  0  0  0  0  0  0
   -0.7500    3.1998   -0.6138 H   0  0  0  0  0  0  0  0  0  0  0  0
    0.8694    3.2053   -0.4054 H   0  0  0  0  0  0  0  0  0  0  0  0
   -0.1261    3.3787    0.9388 H   0  0  0  0  0  0  0  0  0  0  0  0
    0.0001    1.4031   -0.0008 C   0  0  0  0  0  0  0  0  0  0  0  0
   -1.2003    0.6932    0.0017 C   0  0  0  0  0  0  0  0  0  0  0  0
   -2.0655    1.1835    0.0030 H   0  0  0  0  0  0  0  0  0  0  0  0
   -1.2046   -0.7000   -0.0000 C   0  0  0  0  0  0  0  0  0  0  0  0
   -2.0799   -1.1939    0.0011 H   0  0  0  0  0  0  0  0  0  0  0  0
   -0.0000   -1.3949   -0.0010 C   0  0  0  0  0  0  0  0  0  0  0  0
   -0.0017   -2.3929   -0.0036 H   0  0  0  0  0  0  0  0  0  0  0  0
    1.2046   -0.6955    0.0000 C   0  0  0  0  0  0  0  0  0  0  0  0
    2.0842   -1.1949    0.0020 H   0  0  0  0  0  0  0  0  0  0  0  0
    1.2003    0.6941    0.0002 C   0  0  0  0  0  0  0  0  0  0  0  0
    2.0666    1.1917    0.0000 H   0  0  0  0  0  0  0  0  0  0  0  0
  1  5  1  0
  5  8  1  0
  1  2  1  0
  1  3  1  0
  1  4  1  0
  5  6  1  0
  5  7  1  0
  8  9  1  0
  8 10  1  0
  8 11  1  0
 12 16  1  0
 16 17  2  0
 17 19  1  0
 19 21  2  0
 21 23  1  0
 23 25  2  0
 25 16  1  0
 12 13  1  0
 12 14  1  0
 12 15  1  0
 17 18  1  0
 19 20  1  0
 21 22  1  0
 23 24  1  0
 25 26  1  0
M  CHG  1   8   1
M  END
>  <PDB_ID>  (1139) 
pdb1rqx

>  <RESIDUE_NAME>  (1139) 
LYS   PHE

>  <FRAG_NAME>  (1139) 
ETAM   MBZ

>  <FRAG_ATOM_NUM>  (1139) 
fragi: 11  fragj: 15

>  <atom.prop.CHAIN_ID>  (1139) 
A A A A A A A A A A A Z Z Z Z Z Z Z Z Z Z Z Z Z Z Z

>  <atom.prop.IS_HEAVY_ATOM>  (1139) 
1 0 0 0 1 0 0 1 0 0 0 1 0 0 0 1 1 0 1 0 1 0 1 0 1 0

>  <DIFUSE_FUNC_ATOM>  (1139) 
n/a

>  <FINAL_SINGLE_POINT_ENERGY>  (1139) 
0

>  <NONCOV_INTER_ENERGY_QM>  (1139) 
0

>  <FF_Energy>  (1139) 
5.11

>  <QM_Energy>  (1139) 
-4.34

>  <source>  (1139) 
ETAM_MBZ

>  <Index>  (1139) 
11414

$$$$
ETAM-pdb2xta-C-LYS-499:MBZ-pdb2xta-C-PHE-804
     RDKit          3D

 26 25  0  0  0  0  0  0  0  0999 V2000
   -3.8152    0.3481   -2.7122 C   0  0  0  0  0  0  0  0  0  0  0  0
   -3.3889    0.5348   -3.5972 H   0  0  0  0  0  0  0  0  0  0  0  0
   -4.8049    0.2733   -2.8262 H   0  0  0  0  0  0  0  0  0  0  0  0
   -3.4335   -0.6006   -2.3346 H   0  0  0  0  0  0  0  0  0  0  0  0
   -3.5202    1.5022   -1.7786 C   0  0  0  0  0  0  0  0  0  0  0  0
   -3.9463    1.3230   -0.8921 H   0  0  0  0  0  0  0  0  0  0  0  0
   -2.5310    1.5854   -1.6621 H   0  0  0  0  0  0  0  0  0  0  0  0
   -4.0572    2.7710   -2.3327 N   0  0  0  0  0  4  0  0  0  0  0  0
   -3.3363    3.4650   -2.3332 H   0  0  0  0  0  0  0  0  0  0  0  0
   -4.3730    2.6184   -3.2689 H   0  0  0  0  0  0  0  0  0  0  0  0
   -4.8203    3.0845   -1.7681 H   0  0  0  0  0  0  0  0  0  0  0  0
    0.0014    2.9187    0.0087 C   0  0  0  0  0  0  0  0  0  0  0  0
    0.9267    3.2244    0.1704 H   0  0  0  0  0  0  0  0  0  0  0  0
   -0.6108    3.2231    0.7213 H   0  0  0  0  0  0  0  0  0  0  0  0
   -0.3334    3.3711   -0.9248 H   0  0  0  0  0  0  0  0  0  0  0  0
   -0.0010    1.4082    0.0008 C   0  0  0  0  0  0  0  0  0  0  0  0
   -1.1934    0.6974    0.0137 C   0  0  0  0  0  0  0  0  0  0  0  0
   -2.0637    1.1791    0.0316 H   0  0  0  0  0  0  0  0  0  0  0  0
   -1.1934   -0.7033    0.0000 C   0  0  0  0  0  0  0  0  0  0  0  0
   -2.0736   -1.1924    0.0107 H   0  0  0  0  0  0  0  0  0  0  0  0
    0.0027   -1.3951   -0.0256 C   0  0  0  0  0  0  0  0  0  0  0  0
   -0.0019   -2.3960   -0.0634 H   0  0  0  0  0  0  0  0  0  0  0  0
    1.1934   -0.7030    0.0000 C   0  0  0  0  0  0  0  0  0  0  0  0
    2.0802   -1.1938    0.0128 H   0  0  0  0  0  0  0  0  0  0  0  0
    1.1916    0.6957    0.0112 C   0  0  0  0  0  0  0  0  0  0  0  0
    2.0631    1.1851    0.0259 H   0  0  0  0  0  0  0  0  0  0  0  0
  1  5  1  0
  5  8  1  0
  1  2  1  0
  1  3  1  0
  1  4  1  0
  5  6  1  0
  5  7  1  0
  8  9  1  0
  8 10  1  0
  8 11  1  0
 12 16  1  0
 16 17  2  0
 17 19  1  0
 19 21  2  0
 21 23  1  0
 23 25  2  0
 25 16  1  0
 12 13  1  0
 12 14  1  0
 12 15  1  0
 17 18  1  0
 19 20  1  0
 21 22  1  0
 23 24  1  0
 25 26  1  0
M  CHG  1   8   1
M  END
>  <PDB_ID>  (1140) 
pdb2xta

>  <RESIDUE_NAME>  (1140) 
LYS   PHE

>  <FRAG_NAME>  (1140) 
ETAM   MBZ

>  <FRAG_ATOM_NUM>  (1140) 
fragi: 11  fragj: 15

>  <atom.prop.CHAIN_ID>  (1140) 
A A A A A A A A A A A Z Z Z Z Z Z Z Z Z Z Z Z Z Z Z

>  <atom.prop.IS_HEAVY_ATOM>  (1140) 
1 0 0 0 1 0 0 1 0 0 0 1 0 0 0 1 1 0 1 0 1 0 1 0 1 0

>  <DIFUSE_FUNC_ATOM>  (1140) 
n/a

>  <FINAL_SINGLE_POINT_ENERGY>  (1140) 
0

>  <NONCOV_INTER_ENERGY_QM>  (1140) 
0

>  <FF_Energy>  (1140) 
8.53

>  <QM_Energy>  (1140) 
-0.23

>  <source>  (1140) 
ETAM_MBZ

>  <Index>  (1140) 
11421

$$$$
ETAM-pdb1rrg-A-LYS-59:MBZ-pdb1rrg-A-PHE-13
     RDKit          3D

 26 25  0  0  0  0  0  0  0  0999 V2000
    1.0418   -0.6890    3.2550 C   0  0  0  0  0  0  0  0  0  0  0  0
    0.9239   -0.7437    2.2751 H   0  0  0  0  0  0  0  0  0  0  0  0
    1.1038    0.2498    3.5592 H   0  0  0  0  0  0  0  0  0  0  0  0
    0.1954   -1.1701    3.7452 H   0  0  0  0  0  0  0  0  0  0  0  0
    2.3563   -1.4016    3.6216 C   0  0  0  0  0  0  0  0  0  0  0  0
    2.4810   -1.3473    4.6167 H   0  0  0  0  0  0  0  0  0  0  0  0
    2.2786   -2.3684    3.3589 H   0  0  0  0  0  0  0  0  0  0  0  0
    3.5440   -0.8007    2.9427 N   0  0  0  0  0  4  0  0  0  0  0  0
    3.6212   -1.1778    2.0211 H   0  0  0  0  0  0  0  0  0  0  0  0
    3.4279    0.1903    2.8928 H   0  0  0  0  0  0  0  0  0  0  0  0
    4.3667   -1.0175    3.4663 H   0  0  0  0  0  0  0  0  0  0  0  0
    0.0217    2.9117   -0.0118 C   0  0  0  0  0  0  0  0  0  0  0  0
    0.7331    3.1989   -0.6371 H   0  0  0  0  0  0  0  0  0  0  0  0
    0.2113    3.2182    0.9101 H   0  0  0  0  0  0  0  0  0  0  0  0
   -0.9112    3.3758   -0.3320 H   0  0  0  0  0  0  0  0  0  0  0  0
   -0.0009    1.3975   -0.0003 C   0  0  0  0  0  0  0  0  0  0  0  0
   -1.2019    0.6924    0.0016 C   0  0  0  0  0  0  0  0  0  0  0  0
   -2.0648    1.1858    0.0025 H   0  0  0  0  0  0  0  0  0  0  0  0
   -1.2044   -0.6923    0.0000 C   0  0  0  0  0  0  0  0  0  0  0  0
   -2.0766   -1.1922    0.0021 H   0  0  0  0  0  0  0  0  0  0  0  0
    0.0028   -1.3844   -0.0021 C   0  0  0  0  0  0  0  0  0  0  0  0
   -0.0041   -2.3874   -0.0059 H   0  0  0  0  0  0  0  0  0  0  0  0
    1.2044   -0.6954   -0.0000 C   0  0  0  0  0  0  0  0  0  0  0  0
    2.0830   -1.2001    0.0023 H   0  0  0  0  0  0  0  0  0  0  0  0
    1.2000    0.6821    0.0008 C   0  0  0  0  0  0  0  0  0  0  0  0
    2.0661    1.1865    0.0015 H   0  0  0  0  0  0  0  0  0  0  0  0
  1  5  1  0
  5  8  1  0
  1  2  1  0
  1  3  1  0
  1  4  1  0
  5  6  1  0
  5  7  1  0
  8  9  1  0
  8 10  1  0
  8 11  1  0
 12 16  1  0
 16 17  2  0
 17 19  1  0
 19 21  2  0
 21 23  1  0
 23 25  2  0
 25 16  1  0
 12 13  1  0
 12 14  1  0
 12 15  1  0
 17 18  1  0
 19 20  1  0
 21 22  1  0
 23 24  1  0
 25 26  1  0
M  CHG  1   8   1
M  END
>  <PDB_ID>  (1141) 
pdb1rrg

>  <RESIDUE_NAME>  (1141) 
LYS   PHE

>  <FRAG_NAME>  (1141) 
ETAM   MBZ

>  <FRAG_ATOM_NUM>  (1141) 
fragi: 11  fragj: 15

>  <atom.prop.CHAIN_ID>  (1141) 
A A A A A A A A A A A Z Z Z Z Z Z Z Z Z Z Z Z Z Z Z

>  <atom.prop.IS_HEAVY_ATOM>  (1141) 
1 0 0 0 1 0 0 1 0 0 0 1 0 0 0 1 1 0 1 0 1 0 1 0 1 0

>  <DIFUSE_FUNC_ATOM>  (1141) 
n/a

>  <FINAL_SINGLE_POINT_ENERGY>  (1141) 
0

>  <NONCOV_INTER_ENERGY_QM>  (1141) 
0

>  <FF_Energy>  (1141) 
1.3

>  <QM_Energy>  (1141) 
-5.43

>  <source>  (1141) 
ETAM_MBZ

>  <Index>  (1141) 
11432

$$$$
ETAM-pdb2xus-B-LYS-75:MBZ-pdb2xus-B-PHE-71
     RDKit          3D

 26 25  0  0  0  0  0  0  0  0999 V2000
    1.2459   -1.9517    3.5145 C   0  0  0  0  0  0  0  0  0  0  0  0
    1.4481   -2.4326    4.3751 H   0  0  0  0  0  0  0  0  0  0  0  0
    1.1933   -2.6316    2.7739 H   0  0  0  0  0  0  0  0  0  0  0  0
    0.2792   -1.4569    3.6080 H   0  0  0  0  0  0  0  0  0  0  0  0
    2.4029   -1.0082    3.2129 C   0  0  0  0  0  0  0  0  0  0  0  0
    3.1708   -1.2352    3.8436 H   0  0  0  0  0  0  0  0  0  0  0  0
    2.7366   -1.2048    2.2702 H   0  0  0  0  0  0  0  0  0  0  0  0
    2.0837    0.4190    3.3284 N   0  0  0  0  0  4  0  0  0  0  0  0
    1.5677    0.5873    4.1724 H   0  0  0  0  0  0  0  0  0  0  0  0
    2.9299    0.9587    3.3502 H   0  0  0  0  0  0  0  0  0  0  0  0
    1.5314    0.7104    2.5433 H   0  0  0  0  0  0  0  0  0  0  0  0
    0.0119    2.8903   -0.0037 C   0  0  0  0  0  0  0  0  0  0  0  0
   -0.2313    3.1921   -0.9152 H   0  0  0  0  0  0  0  0  0  0  0  0
    0.9206    3.1967    0.2423 H   0  0  0  0  0  0  0  0  0  0  0  0
   -0.6943    3.3349    0.6975 H   0  0  0  0  0  0  0  0  0  0  0  0
    0.0041    1.4033    0.0099 C   0  0  0  0  0  0  0  0  0  0  0  0
   -1.2097    0.6816   -0.0310 C   0  0  0  0  0  0  0  0  0  0  0  0
   -2.0639    1.1839   -0.0834 H   0  0  0  0  0  0  0  0  0  0  0  0
   -1.2002   -0.6825    0.0000 C   0  0  0  0  0  0  0  0  0  0  0  0
   -2.0746   -1.1973    0.0144 H   0  0  0  0  0  0  0  0  0  0  0  0
    0.0055   -1.3889    0.0139 C   0  0  0  0  0  0  0  0  0  0  0  0
   -0.0172   -2.3901    0.0335 H   0  0  0  0  0  0  0  0  0  0  0  0
    1.2002   -0.7117    0.0000 C   0  0  0  0  0  0  0  0  0  0  0  0
    2.0836   -1.1996   -0.0134 H   0  0  0  0  0  0  0  0  0  0  0  0
    1.2001    0.6983    0.0072 C   0  0  0  0  0  0  0  0  0  0  0  0
    2.0695    1.1832    0.0092 H   0  0  0  0  0  0  0  0  0  0  0  0
  1  5  1  0
  5  8  1  0
  1  2  1  0
  1  3  1  0
  1  4  1  0
  5  6  1  0
  5  7  1  0
  8  9  1  0
  8 10  1  0
  8 11  1  0
 12 16  1  0
 16 17  2  0
 17 19  1  0
 19 21  2  0
 21 23  1  0
 23 25  2  0
 25 16  1  0
 12 13  1  0
 12 14  1  0
 12 15  1  0
 17 18  1  0
 19 20  1  0
 21 22  1  0
 23 24  1  0
 25 26  1  0
M  CHG  1   8   1
M  END
>  <PDB_ID>  (1142) 
pdb2xus

>  <RESIDUE_NAME>  (1142) 
LYS   PHE

>  <FRAG_NAME>  (1142) 
ETAM   MBZ

>  <FRAG_ATOM_NUM>  (1142) 
fragi: 11  fragj: 15

>  <atom.prop.CHAIN_ID>  (1142) 
A A A A A A A A A A A Z Z Z Z Z Z Z Z Z Z Z Z Z Z Z

>  <atom.prop.IS_HEAVY_ATOM>  (1142) 
1 0 0 0 1 0 0 1 0 0 0 1 0 0 0 1 1 0 1 0 1 0 1 0 1 0

>  <DIFUSE_FUNC_ATOM>  (1142) 
n/a

>  <FINAL_SINGLE_POINT_ENERGY>  (1142) 
0

>  <NONCOV_INTER_ENERGY_QM>  (1142) 
0

>  <FF_Energy>  (1142) 
-5.79

>  <QM_Energy>  (1142) 
-12.45

>  <source>  (1142) 
ETAM_MBZ

>  <Index>  (1142) 
11448

$$$$
ETAM-pdb2xta-A-LYS-499:MBZ-pdb2xta-A-PHE-495
     RDKit          3D

 26 25  0  0  0  0  0  0  0  0999 V2000
   -1.2176   -2.9995    2.3617 C   0  0  0  0  0  0  0  0  0  0  0  0
   -0.8431   -2.5195    1.5681 H   0  0  0  0  0  0  0  0  0  0  0  0
   -0.4699   -3.2873    2.9602 H   0  0  0  0  0  0  0  0  0  0  0  0
   -1.8634   -2.3145    2.9112 H   0  0  0  0  0  0  0  0  0  0  0  0
   -1.9531   -4.2300    1.8806 C   0  0  0  0  0  0  0  0  0  0  0  0
   -2.3275   -4.7179    2.6682 H   0  0  0  0  0  0  0  0  0  0  0  0
   -2.6995   -3.9505    1.2768 H   0  0  0  0  0  0  0  0  0  0  0  0
   -1.0357   -5.1314    1.1374 N   0  0  0  0  0  4  0  0  0  0  0  0
   -0.1563   -4.6744    1.0020 H   0  0  0  0  0  0  0  0  0  0  0  0
   -0.8981   -5.9719    1.6627 H   0  0  0  0  0  0  0  0  0  0  0  0
   -1.4360   -5.3549    0.2489 H   0  0  0  0  0  0  0  0  0  0  0  0
   -0.0005    2.9328   -0.0005 C   0  0  0  0  0  0  0  0  0  0  0  0
   -0.7805    3.2312   -0.5338 H   0  0  0  0  0  0  0  0  0  0  0  0
    0.8480    3.2338   -0.4135 H   0  0  0  0  0  0  0  0  0  0  0  0
   -0.0737    3.3976    0.9827 H   0  0  0  0  0  0  0  0  0  0  0  0
    0.0007    1.4134    0.0061 C   0  0  0  0  0  0  0  0  0  0  0  0
   -1.1959    0.6994    0.0167 C   0  0  0  0  0  0  0  0  0  0  0  0
   -2.0645    1.1824    0.0354 H   0  0  0  0  0  0  0  0  0  0  0  0
   -1.1992   -0.7047    0.0000 C   0  0  0  0  0  0  0  0  0  0  0  0
   -2.0792   -1.1905   -0.0071 H   0  0  0  0  0  0  0  0  0  0  0  0
   -0.0024   -1.4008   -0.0053 C   0  0  0  0  0  0  0  0  0  0  0  0
   -0.0064   -2.3999   -0.0130 H   0  0  0  0  0  0  0  0  0  0  0  0
    1.1992   -0.7063    0.0000 C   0  0  0  0  0  0  0  0  0  0  0  0
    2.0810   -1.1987    0.0182 H   0  0  0  0  0  0  0  0  0  0  0  0
    1.1976    0.6990   -0.0175 C   0  0  0  0  0  0  0  0  0  0  0  0
    2.0673    1.1873   -0.0482 H   0  0  0  0  0  0  0  0  0  0  0  0
  1  5  1  0
  5  8  1  0
  1  2  1  0
  1  3  1  0
  1  4  1  0
  5  6  1  0
  5  7  1  0
  8  9  1  0
  8 10  1  0
  8 11  1  0
 12 16  1  0
 16 17  2  0
 17 19  1  0
 19 21  2  0
 21 23  1  0
 23 25  2  0
 25 16  1  0
 12 13  1  0
 12 14  1  0
 12 15  1  0
 17 18  1  0
 19 20  1  0
 21 22  1  0
 23 24  1  0
 25 26  1  0
M  CHG  1   8   1
M  END
>  <PDB_ID>  (1143) 
pdb2xta

>  <RESIDUE_NAME>  (1143) 
LYS   PHE

>  <FRAG_NAME>  (1143) 
ETAM   MBZ

>  <FRAG_ATOM_NUM>  (1143) 
fragi: 11  fragj: 15

>  <atom.prop.CHAIN_ID>  (1143) 
A A A A A A A A A A A Z Z Z Z Z Z Z Z Z Z Z Z Z Z Z

>  <atom.prop.IS_HEAVY_ATOM>  (1143) 
1 0 0 0 1 0 0 1 0 0 0 1 0 0 0 1 1 0 1 0 1 0 1 0 1 0

>  <DIFUSE_FUNC_ATOM>  (1143) 
n/a

>  <FINAL_SINGLE_POINT_ENERGY>  (1143) 
0

>  <NONCOV_INTER_ENERGY_QM>  (1143) 
0

>  <FF_Energy>  (1143) 
14.6

>  <QM_Energy>  (1143) 
1.04

>  <source>  (1143) 
ETAM_MBZ

>  <Index>  (1143) 
11453

$$$$
ETAM-pdb1rq5-A-LYS-448:MBZ-pdb1rq5-A-PHE-518
     RDKit          3D

 26 25  0  0  0  0  0  0  0  0999 V2000
    4.8813   -2.1217   -2.5740 C   0  0  0  0  0  0  0  0  0  0  0  0
    4.9814   -2.0675   -1.5860 H   0  0  0  0  0  0  0  0  0  0  0  0
    5.5844   -1.5813   -3.0244 H   0  0  0  0  0  0  0  0  0  0  0  0
    4.9783   -3.1622   -2.8840 H   0  0  0  0  0  0  0  0  0  0  0  0
    3.5092   -1.5333   -2.9499 C   0  0  0  0  0  0  0  0  0  0  0  0
    3.3590   -1.6761   -3.9382 H   0  0  0  0  0  0  0  0  0  0  0  0
    2.7938   -2.0430   -2.4509 H   0  0  0  0  0  0  0  0  0  0  0  0
    3.3596   -0.0639   -2.6447 N   0  0  0  0  0  4  0  0  0  0  0  0
    2.4761    0.0858   -2.2086 H   0  0  0  0  0  0  0  0  0  0  0  0
    4.0956    0.2138   -2.0332 H   0  0  0  0  0  0  0  0  0  0  0  0
    3.4108    0.4486   -3.4974 H   0  0  0  0  0  0  0  0  0  0  0  0
    0.0028    2.8928   -0.0315 C   0  0  0  0  0  0  0  0  0  0  0  0
    0.5931    3.2158    0.6940 H   0  0  0  0  0  0  0  0  0  0  0  0
   -0.9266    3.2076    0.0958 H   0  0  0  0  0  0  0  0  0  0  0  0
    0.3696    3.3087   -0.9699 H   0  0  0  0  0  0  0  0  0  0  0  0
   -0.0019    1.3993    0.0010 C   0  0  0  0  0  0  0  0  0  0  0  0
   -1.1980    0.7017    0.0011 C   0  0  0  0  0  0  0  0  0  0  0  0
   -2.0634    1.1921    0.0003 H   0  0  0  0  0  0  0  0  0  0  0  0
   -1.2061   -0.6914   -0.0000 C   0  0  0  0  0  0  0  0  0  0  0  0
   -2.0789   -1.1859    0.0026 H   0  0  0  0  0  0  0  0  0  0  0  0
    0.0051   -1.3965   -0.0024 C   0  0  0  0  0  0  0  0  0  0  0  0
   -0.0059   -2.3924   -0.0063 H   0  0  0  0  0  0  0  0  0  0  0  0
    1.2061   -0.7007   -0.0000 C   0  0  0  0  0  0  0  0  0  0  0  0
    2.0865   -1.1965    0.0031 H   0  0  0  0  0  0  0  0  0  0  0  0
    1.1948    0.6875    0.0003 C   0  0  0  0  0  0  0  0  0  0  0  0
    2.0642    1.1885   -0.0008 H   0  0  0  0  0  0  0  0  0  0  0  0
  1  5  1  0
  5  8  1  0
  1  2  1  0
  1  3  1  0
  1  4  1  0
  5  6  1  0
  5  7  1  0
  8  9  1  0
  8 10  1  0
  8 11  1  0
 12 16  1  0
 16 17  2  0
 17 19  1  0
 19 21  2  0
 21 23  1  0
 23 25  2  0
 25 16  1  0
 12 13  1  0
 12 14  1  0
 12 15  1  0
 17 18  1  0
 19 20  1  0
 21 22  1  0
 23 24  1  0
 25 26  1  0
M  CHG  1   8   1
M  END
>  <PDB_ID>  (1144) 
pdb1rq5

>  <RESIDUE_NAME>  (1144) 
LYS   PHE

>  <FRAG_NAME>  (1144) 
ETAM   MBZ

>  <FRAG_ATOM_NUM>  (1144) 
fragi: 11  fragj: 15

>  <atom.prop.CHAIN_ID>  (1144) 
A A A A A A A A A A A Z Z Z Z Z Z Z Z Z Z Z Z Z Z Z

>  <atom.prop.IS_HEAVY_ATOM>  (1144) 
1 0 0 0 1 0 0 1 0 0 0 1 0 0 0 1 1 0 1 0 1 0 1 0 1 0

>  <DIFUSE_FUNC_ATOM>  (1144) 
n/a

>  <FINAL_SINGLE_POINT_ENERGY>  (1144) 
0

>  <NONCOV_INTER_ENERGY_QM>  (1144) 
0

>  <FF_Energy>  (1144) 
-2.82

>  <QM_Energy>  (1144) 
-9.38

>  <source>  (1144) 
ETAM_MBZ

>  <Index>  (1144) 
11458

$$$$
ETAM-pdb1rtw-A-LYS-178:MBZ-pdb1rtw-C-PHE-182
     RDKit          3D

 26 25  0  0  0  0  0  0  0  0999 V2000
    0.0946    0.8091   -3.8132 C   0  0  0  0  0  0  0  0  0  0  0  0
   -0.2564    0.8805   -2.8806 H   0  0  0  0  0  0  0  0  0  0  0  0
   -0.6152    1.0775   -4.4619 H   0  0  0  0  0  0  0  0  0  0  0  0
    0.9529    1.4717   -3.9244 H   0  0  0  0  0  0  0  0  0  0  0  0
    0.4657   -0.6292   -4.0772 C   0  0  0  0  0  0  0  0  0  0  0  0
    0.7074   -0.7331   -5.0336 H   0  0  0  0  0  0  0  0  0  0  0  0
    1.2275   -0.8823   -3.4944 H   0  0  0  0  0  0  0  0  0  0  0  0
   -0.6994   -1.4723   -3.7649 N   0  0  0  0  0  4  0  0  0  0  0  0
   -1.0032   -1.2972   -2.8261 H   0  0  0  0  0  0  0  0  0  0  0  0
   -1.4494   -1.2640   -4.3964 H   0  0  0  0  0  0  0  0  0  0  0  0
   -0.4534   -2.4395   -3.8558 H   0  0  0  0  0  0  0  0  0  0  0  0
   -0.0066    2.8930    0.0716 C   0  0  0  0  0  0  0  0  0  0  0  0
   -0.6185    3.2324   -0.6267 H   0  0  0  0  0  0  0  0  0  0  0  0
    0.9173    3.2129   -0.0713 H   0  0  0  0  0  0  0  0  0  0  0  0
   -0.3488    3.2796    1.0316 H   0  0  0  0  0  0  0  0  0  0  0  0
    0.0007    1.4005    0.0015 C   0  0  0  0  0  0  0  0  0  0  0  0
   -1.1938    0.6951   -0.0011 C   0  0  0  0  0  0  0  0  0  0  0  0
   -2.0614    1.1857   -0.0053 H   0  0  0  0  0  0  0  0  0  0  0  0
   -1.2028   -0.6978    0.0000 C   0  0  0  0  0  0  0  0  0  0  0  0
   -2.0826   -1.1872    0.0012 H   0  0  0  0  0  0  0  0  0  0  0  0
   -0.0056   -1.3965    0.0011 C   0  0  0  0  0  0  0  0  0  0  0  0
   -0.0065   -2.3934    0.0016 H   0  0  0  0  0  0  0  0  0  0  0  0
    1.2028   -0.6969   -0.0000 C   0  0  0  0  0  0  0  0  0  0  0  0
    2.0807   -1.1967    0.0015 H   0  0  0  0  0  0  0  0  0  0  0  0
    1.1987    0.6955   -0.0014 C   0  0  0  0  0  0  0  0  0  0  0  0
    2.0652    1.1914   -0.0053 H   0  0  0  0  0  0  0  0  0  0  0  0
  1  5  1  0
  5  8  1  0
  1  2  1  0
  1  3  1  0
  1  4  1  0
  5  6  1  0
  5  7  1  0
  8  9  1  0
  8 10  1  0
  8 11  1  0
 12 16  1  0
 16 17  2  0
 17 19  1  0
 19 21  2  0
 21 23  1  0
 23 25  2  0
 25 16  1  0
 12 13  1  0
 12 14  1  0
 12 15  1  0
 17 18  1  0
 19 20  1  0
 21 22  1  0
 23 24  1  0
 25 26  1  0
M  CHG  1   8   1
M  END
>  <PDB_ID>  (1145) 
pdb1rtw

>  <RESIDUE_NAME>  (1145) 
LYS   PHE

>  <FRAG_NAME>  (1145) 
ETAM   MBZ

>  <FRAG_ATOM_NUM>  (1145) 
fragi: 11  fragj: 15

>  <atom.prop.CHAIN_ID>  (1145) 
A A A A A A A A A A A Z Z Z Z Z Z Z Z Z Z Z Z Z Z Z

>  <atom.prop.IS_HEAVY_ATOM>  (1145) 
1 0 0 0 1 0 0 1 0 0 0 1 0 0 0 1 1 0 1 0 1 0 1 0 1 0

>  <DIFUSE_FUNC_ATOM>  (1145) 
n/a

>  <FINAL_SINGLE_POINT_ENERGY>  (1145) 
0

>  <NONCOV_INTER_ENERGY_QM>  (1145) 
0

>  <FF_Energy>  (1145) 
-6.34

>  <QM_Energy>  (1145) 
-12.44

>  <source>  (1145) 
ETAM_MBZ

>  <Index>  (1145) 
11466

$$$$
ETAM-pdb1rtw-C-LYS-178:MBZ-pdb1rtw-A-PHE-182
     RDKit          3D

 26 25  0  0  0  0  0  0  0  0999 V2000
   -0.5736    1.2465   -3.7300 C   0  0  0  0  0  0  0  0  0  0  0  0
   -0.8856    1.3272   -2.7877 H   0  0  0  0  0  0  0  0  0  0  0  0
   -1.3076    1.4899   -4.3572 H   0  0  0  0  0  0  0  0  0  0  0  0
    0.2637    1.9272   -3.8840 H   0  0  0  0  0  0  0  0  0  0  0  0
   -0.1799   -0.2042   -3.9859 C   0  0  0  0  0  0  0  0  0  0  0  0
    0.1149   -0.2955   -4.9420 H   0  0  0  0  0  0  0  0  0  0  0  0
    0.5920   -0.4402   -3.3876 H   0  0  0  0  0  0  0  0  0  0  0  0
   -1.3044   -1.1476   -3.7284 N   0  0  0  0  0  4  0  0  0  0  0  0
   -1.9746   -1.0721   -4.4663 H   0  0  0  0  0  0  0  0  0  0  0  0
   -0.9507   -2.0815   -3.6913 H   0  0  0  0  0  0  0  0  0  0  0  0
   -1.7360   -0.9178   -2.8572 H   0  0  0  0  0  0  0  0  0  0  0  0
    0.0095    2.9313    0.0044 C   0  0  0  0  0  0  0  0  0  0  0  0
   -0.5894    3.2371   -0.7171 H   0  0  0  0  0  0  0  0  0  0  0  0
    0.9392    3.2271   -0.1431 H   0  0  0  0  0  0  0  0  0  0  0  0
   -0.3389    3.3693    0.9398 H   0  0  0  0  0  0  0  0  0  0  0  0
    0.0016    1.4147   -0.0005 C   0  0  0  0  0  0  0  0  0  0  0  0
   -1.2007    0.7024    0.0000 C   0  0  0  0  0  0  0  0  0  0  0  0
   -2.0667    1.1870   -0.0013 H   0  0  0  0  0  0  0  0  0  0  0  0
   -1.2058   -0.7052    0.0000 C   0  0  0  0  0  0  0  0  0  0  0  0
   -2.0818   -1.1923    0.0008 H   0  0  0  0  0  0  0  0  0  0  0  0
    0.0011   -1.4075    0.0005 C   0  0  0  0  0  0  0  0  0  0  0  0
   -0.0033   -2.4025    0.0004 H   0  0  0  0  0  0  0  0  0  0  0  0
    1.2058   -0.7049   -0.0000 C   0  0  0  0  0  0  0  0  0  0  0  0
    2.0875   -1.1949    0.0009 H   0  0  0  0  0  0  0  0  0  0  0  0
    1.1980    0.7005   -0.0000 C   0  0  0  0  0  0  0  0  0  0  0  0
    2.0685    1.1913   -0.0004 H   0  0  0  0  0  0  0  0  0  0  0  0
  1  5  1  0
  5  8  1  0
  1  2  1  0
  1  3  1  0
  1  4  1  0
  5  6  1  0
  5  7  1  0
  8  9  1  0
  8 10  1  0
  8 11  1  0
 12 16  1  0
 16 17  2  0
 17 19  1  0
 19 21  2  0
 21 23  1  0
 23 25  2  0
 25 16  1  0
 12 13  1  0
 12 14  1  0
 12 15  1  0
 17 18  1  0
 19 20  1  0
 21 22  1  0
 23 24  1  0
 25 26  1  0
M  CHG  1   8   1
M  END
>  <PDB_ID>  (1146) 
pdb1rtw

>  <RESIDUE_NAME>  (1146) 
LYS   PHE

>  <FRAG_NAME>  (1146) 
ETAM   MBZ

>  <FRAG_ATOM_NUM>  (1146) 
fragi: 11  fragj: 15

>  <atom.prop.CHAIN_ID>  (1146) 
A A A A A A A A A A A Z Z Z Z Z Z Z Z Z Z Z Z Z Z Z

>  <atom.prop.IS_HEAVY_ATOM>  (1146) 
1 0 0 0 1 0 0 1 0 0 0 1 0 0 0 1 1 0 1 0 1 0 1 0 1 0

>  <DIFUSE_FUNC_ATOM>  (1146) 
n/a

>  <FINAL_SINGLE_POINT_ENERGY>  (1146) 
0

>  <NONCOV_INTER_ENERGY_QM>  (1146) 
0

>  <FF_Energy>  (1146) 
-6.1

>  <QM_Energy>  (1146) 
-11.71

>  <source>  (1146) 
ETAM_MBZ

>  <Index>  (1146) 
11468

$$$$
ETAM-pdb1rql-B-LYS-168:MBZ-pdb1rql-B-PHE-149
     RDKit          3D

 26 25  0  0  0  0  0  0  0  0999 V2000
    3.1929   -4.4719    0.3470 C   0  0  0  0  0  0  0  0  0  0  0  0
    3.8596   -4.9728    0.8826 H   0  0  0  0  0  0  0  0  0  0  0  0
    2.8598   -3.6824    0.8450 H   0  0  0  0  0  0  0  0  0  0  0  0
    3.6653   -4.1334   -0.5751 H   0  0  0  0  0  0  0  0  0  0  0  0
    2.0094   -5.3973    0.0544 C   0  0  0  0  0  0  0  0  0  0  0  0
    2.3639   -6.2725   -0.3016 H   0  0  0  0  0  0  0  0  0  0  0  0
    1.5255   -5.5868    0.9201 H   0  0  0  0  0  0  0  0  0  0  0  0
    1.0338   -4.8323   -0.9331 N   0  0  0  0  0  4  0  0  0  0  0  0
    0.9566   -3.8482   -0.7895 H   0  0  0  0  0  0  0  0  0  0  0  0
    1.3625   -5.0150   -1.8577 H   0  0  0  0  0  0  0  0  0  0  0  0
    0.1452   -5.2652   -0.7975 H   0  0  0  0  0  0  0  0  0  0  0  0
   -0.0002    2.9019    0.0230 C   0  0  0  0  0  0  0  0  0  0  0  0
   -0.4591    3.2211   -0.7927 H   0  0  0  0  0  0  0  0  0  0  0  0
    0.9403    3.2079    0.0500 H   0  0  0  0  0  0  0  0  0  0  0  0
   -0.5145    3.3292    0.8838 H   0  0  0  0  0  0  0  0  0  0  0  0
   -0.0002    1.3997   -0.0005 C   0  0  0  0  0  0  0  0  0  0  0  0
   -1.1971    0.6937   -0.0006 C   0  0  0  0  0  0  0  0  0  0  0  0
   -2.0629    1.1861   -0.0028 H   0  0  0  0  0  0  0  0  0  0  0  0
   -1.2027   -0.6938    0.0000 C   0  0  0  0  0  0  0  0  0  0  0  0
   -2.0793   -1.1887   -0.0008 H   0  0  0  0  0  0  0  0  0  0  0  0
   -0.0013   -1.3909    0.0031 C   0  0  0  0  0  0  0  0  0  0  0  0
   -0.0059   -2.3901    0.0071 H   0  0  0  0  0  0  0  0  0  0  0  0
    1.2027   -0.6975   -0.0000 C   0  0  0  0  0  0  0  0  0  0  0  0
    2.0818   -1.1988    0.0011 H   0  0  0  0  0  0  0  0  0  0  0  0
    1.1986    0.6888   -0.0019 C   0  0  0  0  0  0  0  0  0  0  0  0
    2.0652    1.1883   -0.0057 H   0  0  0  0  0  0  0  0  0  0  0  0
  1  5  1  0
  5  8  1  0
  1  2  1  0
  1  3  1  0
  1  4  1  0
  5  6  1  0
  5  7  1  0
  8  9  1  0
  8 10  1  0
  8 11  1  0
 12 16  1  0
 16 17  2  0
 17 19  1  0
 19 21  2  0
 21 23  1  0
 23 25  2  0
 25 16  1  0
 12 13  1  0
 12 14  1  0
 12 15  1  0
 17 18  1  0
 19 20  1  0
 21 22  1  0
 23 24  1  0
 25 26  1  0
M  CHG  1   8   1
M  END
>  <PDB_ID>  (1147) 
pdb1rql

>  <RESIDUE_NAME>  (1147) 
LYS   PHE

>  <FRAG_NAME>  (1147) 
ETAM   MBZ

>  <FRAG_ATOM_NUM>  (1147) 
fragi: 11  fragj: 15

>  <atom.prop.CHAIN_ID>  (1147) 
A A A A A A A A A A A Z Z Z Z Z Z Z Z Z Z Z Z Z Z Z

>  <atom.prop.IS_HEAVY_ATOM>  (1147) 
1 0 0 0 1 0 0 1 0 0 0 1 0 0 0 1 1 0 1 0 1 0 1 0 1 0

>  <DIFUSE_FUNC_ATOM>  (1147) 
n/a

>  <FINAL_SINGLE_POINT_ENERGY>  (1147) 
0

>  <NONCOV_INTER_ENERGY_QM>  (1147) 
0

>  <FF_Energy>  (1147) 
0.89

>  <QM_Energy>  (1147) 
-4.12

>  <source>  (1147) 
ETAM_MBZ

>  <Index>  (1147) 
11469

$$$$
ETAM-pdb2xzg-A-LYS-246:MBZ-pdb2xzg-A-PHE-243
     RDKit          3D

 26 25  0  0  0  0  0  0  0  0999 V2000
    1.7751   -3.1643    4.0667 C   0  0  0  0  0  0  0  0  0  0  0  0
    1.8412   -3.9948    4.6308 H   0  0  0  0  0  0  0  0  0  0  0  0
    2.4283   -2.4850    4.4185 H   0  0  0  0  0  0  0  0  0  0  0  0
    2.0440   -3.4138    3.0403 H   0  0  0  0  0  0  0  0  0  0  0  0
    0.3504   -2.5847    4.2461 C   0  0  0  0  0  0  0  0  0  0  0  0
   -0.2962   -3.3617    4.3267 H   0  0  0  0  0  0  0  0  0  0  0  0
    0.3241   -2.0808    5.1260 H   0  0  0  0  0  0  0  0  0  0  0  0
   -0.1097   -1.6764    3.1489 N   0  0  0  0  0  4  0  0  0  0  0  0
    0.5429   -1.7177    2.3941 H   0  0  0  0  0  0  0  0  0  0  0  0
   -1.0092   -1.9726    2.8347 H   0  0  0  0  0  0  0  0  0  0  0  0
   -0.1644   -0.7424    3.4979 H   0  0  0  0  0  0  0  0  0  0  0  0
   -0.0291    2.9014   -0.0500 C   0  0  0  0  0  0  0  0  0  0  0  0
   -0.7881    3.1717   -0.6361 H   0  0  0  0  0  0  0  0  0  0  0  0
    0.8348    3.1884   -0.4541 H   0  0  0  0  0  0  0  0  0  0  0  0
   -0.1421    3.4026    0.9113 H   0  0  0  0  0  0  0  0  0  0  0  0
   -0.0187    1.3810   -0.0020 C   0  0  0  0  0  0  0  0  0  0  0  0
   -1.1969    0.6745    0.0098 C   0  0  0  0  0  0  0  0  0  0  0  0
   -2.0724    1.1696    0.0246 H   0  0  0  0  0  0  0  0  0  0  0  0
   -1.2081   -0.6981    0.0000 C   0  0  0  0  0  0  0  0  0  0  0  0
   -2.0642   -1.2079   -0.0133 H   0  0  0  0  0  0  0  0  0  0  0  0
    0.0211   -1.3802    0.0116 C   0  0  0  0  0  0  0  0  0  0  0  0
    0.0258   -2.3776    0.0279 H   0  0  0  0  0  0  0  0  0  0  0  0
    1.2081   -0.6655   -0.0000 C   0  0  0  0  0  0  0  0  0  0  0  0
    2.0960   -1.1723    0.0078 H   0  0  0  0  0  0  0  0  0  0  0  0
    1.1945    0.6882   -0.0194 C   0  0  0  0  0  0  0  0  0  0  0  0
    2.0471    1.2126   -0.0471 H   0  0  0  0  0  0  0  0  0  0  0  0
  1  5  1  0
  5  8  1  0
  1  2  1  0
  1  3  1  0
  1  4  1  0
  5  6  1  0
  5  7  1  0
  8  9  1  0
  8 10  1  0
  8 11  1  0
 12 16  1  0
 16 17  2  0
 17 19  1  0
 19 21  2  0
 21 23  1  0
 23 25  2  0
 25 16  1  0
 12 13  1  0
 12 14  1  0
 12 15  1  0
 17 18  1  0
 19 20  1  0
 21 22  1  0
 23 24  1  0
 25 26  1  0
M  CHG  1   8   1
M  END
>  <PDB_ID>  (1148) 
pdb2xzg

>  <RESIDUE_NAME>  (1148) 
LYS   PHE

>  <FRAG_NAME>  (1148) 
ETAM   MBZ

>  <FRAG_ATOM_NUM>  (1148) 
fragi: 11  fragj: 15

>  <atom.prop.CHAIN_ID>  (1148) 
A A A A A A A A A A A Z Z Z Z Z Z Z Z Z Z Z Z Z Z Z

>  <atom.prop.IS_HEAVY_ATOM>  (1148) 
1 0 0 0 1 0 0 1 0 0 0 1 0 0 0 1 1 0 1 0 1 0 1 0 1 0

>  <DIFUSE_FUNC_ATOM>  (1148) 
n/a

>  <FINAL_SINGLE_POINT_ENERGY>  (1148) 
0

>  <NONCOV_INTER_ENERGY_QM>  (1148) 
0

>  <FF_Energy>  (1148) 
-5.62

>  <QM_Energy>  (1148) 
-12.41

>  <source>  (1148) 
ETAM_MBZ

>  <Index>  (1148) 
11497

$$$$
ETAM-pdb2xme-K-LYS-222:MBZ-pdb2xme-L-PHE-76
     RDKit          3D

 26 25  0  0  0  0  0  0  0  0999 V2000
   -3.9521    0.8363   -3.1893 C   0  0  0  0  0  0  0  0  0  0  0  0
   -3.0615    0.3757   -3.0962 H   0  0  0  0  0  0  0  0  0  0  0  0
   -3.8679    1.5530   -3.8911 H   0  0  0  0  0  0  0  0  0  0  0  0
   -4.6764    0.1019   -3.5416 H   0  0  0  0  0  0  0  0  0  0  0  0
   -4.3052    1.4876   -1.8670 C   0  0  0  0  0  0  0  0  0  0  0  0
   -5.2604    1.7956   -1.8995 H   0  0  0  0  0  0  0  0  0  0  0  0
   -4.2078    0.8102   -1.1335 H   0  0  0  0  0  0  0  0  0  0  0  0
   -3.4269    2.6494   -1.5782 N   0  0  0  0  0  4  0  0  0  0  0  0
   -3.8474    3.2179   -0.8707 H   0  0  0  0  0  0  0  0  0  0  0  0
   -2.5370    2.3232   -1.2591 H   0  0  0  0  0  0  0  0  0  0  0  0
   -3.3048    3.1901   -2.4103 H   0  0  0  0  0  0  0  0  0  0  0  0
   -0.0014    2.9256    0.0451 C   0  0  0  0  0  0  0  0  0  0  0  0
   -0.6985    3.2437   -0.5766 H   0  0  0  0  0  0  0  0  0  0  0  0
    0.8963    3.2365   -0.2252 H   0  0  0  0  0  0  0  0  0  0  0  0
   -0.2166    3.3406    1.0298 H   0  0  0  0  0  0  0  0  0  0  0  0
    0.0008    1.4120    0.0049 C   0  0  0  0  0  0  0  0  0  0  0  0
   -1.1942    0.6977   -0.0092 C   0  0  0  0  0  0  0  0  0  0  0  0
   -2.0639    1.1785   -0.0266 H   0  0  0  0  0  0  0  0  0  0  0  0
   -1.1966   -0.7094   -0.0000 C   0  0  0  0  0  0  0  0  0  0  0  0
   -2.0780   -1.1925    0.0167 H   0  0  0  0  0  0  0  0  0  0  0  0
   -0.0041   -1.3997   -0.0113 C   0  0  0  0  0  0  0  0  0  0  0  0
   -0.0009   -2.3989   -0.0286 H   0  0  0  0  0  0  0  0  0  0  0  0
    1.1966   -0.7005    0.0000 C   0  0  0  0  0  0  0  0  0  0  0  0
    2.0801   -1.1953   -0.0016 H   0  0  0  0  0  0  0  0  0  0  0  0
    1.1974    0.6999    0.0157 C   0  0  0  0  0  0  0  0  0  0  0  0
    2.0663    1.1892    0.0339 H   0  0  0  0  0  0  0  0  0  0  0  0
  1  5  1  0
  5  8  1  0
  1  2  1  0
  1  3  1  0
  1  4  1  0
  5  6  1  0
  5  7  1  0
  8  9  1  0
  8 10  1  0
  8 11  1  0
 12 16  1  0
 16 17  2  0
 17 19  1  0
 19 21  2  0
 21 23  1  0
 23 25  2  0
 25 16  1  0
 12 13  1  0
 12 14  1  0
 12 15  1  0
 17 18  1  0
 19 20  1  0
 21 22  1  0
 23 24  1  0
 25 26  1  0
M  CHG  1   8   1
M  END
>  <PDB_ID>  (1149) 
pdb2xme

>  <RESIDUE_NAME>  (1149) 
LYS   PHE

>  <FRAG_NAME>  (1149) 
ETAM   MBZ

>  <FRAG_ATOM_NUM>  (1149) 
fragi: 11  fragj: 15

>  <atom.prop.CHAIN_ID>  (1149) 
A A A A A A A A A A A Z Z Z Z Z Z Z Z Z Z Z Z Z Z Z

>  <atom.prop.IS_HEAVY_ATOM>  (1149) 
1 0 0 0 1 0 0 1 0 0 0 1 0 0 0 1 1 0 1 0 1 0 1 0 1 0

>  <DIFUSE_FUNC_ATOM>  (1149) 
n/a

>  <FINAL_SINGLE_POINT_ENERGY>  (1149) 
0

>  <NONCOV_INTER_ENERGY_QM>  (1149) 
0

>  <FF_Energy>  (1149) 
0.13

>  <QM_Energy>  (1149) 
-5.01

>  <source>  (1149) 
ETAM_MBZ

>  <Index>  (1149) 
11509

$$$$
ETAM-pdb1ry0-A-GLN-5:MBZ-pdb1ry0-A-PHE-284
     RDKit          3D

 26 25  0  0  0  0  0  0  0  0999 V2000
   -0.8842   -2.2759   -3.8518 C   0  0  0  0  0  0  0  0  0  0  0  0
   -1.2326   -2.1426   -4.7807 H   0  0  0  0  0  0  0  0  0  0  0  0
   -0.1889   -2.9975   -3.8600 H   0  0  0  0  0  0  0  0  0  0  0  0
   -1.7129   -2.6232   -3.2346 H   0  0  0  0  0  0  0  0  0  0  0  0
   -0.2330   -0.9658   -3.3742 C   0  0  0  0  0  0  0  0  0  0  0  0
   -0.4313   -0.8136   -2.4047 H   0  0  0  0  0  0  0  0  0  0  0  0
    0.8490   -1.0149   -3.4966 H   0  0  0  0  0  0  0  0  0  0  0  0
   -0.7897    0.1904   -4.1279 N   0  0  0  0  0  4  0  0  0  0  0  0
   -1.7612    0.2803   -3.9206 H   0  0  0  0  0  0  0  0  0  0  0  0
   -0.3093    1.0208   -3.8563 H   0  0  0  0  0  0  0  0  0  0  0  0
   -0.6675    0.0349   -5.1049 H   0  0  0  0  0  0  0  0  0  0  0  0
   -0.0033    2.9112   -0.0287 C   0  0  0  0  0  0  0  0  0  0  0  0
   -0.8806    3.2089   -0.3737 H   0  0  0  0  0  0  0  0  0  0  0  0
    0.7335    3.2070   -0.6180 H   0  0  0  0  0  0  0  0  0  0  0  0
    0.1451    3.3750    0.9464 H   0  0  0  0  0  0  0  0  0  0  0  0
   -0.0005    1.4033   -0.0011 C   0  0  0  0  0  0  0  0  0  0  0  0
   -1.1938    0.6934    0.0002 C   0  0  0  0  0  0  0  0  0  0  0  0
   -2.0622    1.1836    0.0004 H   0  0  0  0  0  0  0  0  0  0  0  0
   -1.1991   -0.6950   -0.0000 C   0  0  0  0  0  0  0  0  0  0  0  0
   -2.0783   -1.1878    0.0017 H   0  0  0  0  0  0  0  0  0  0  0  0
   -0.0029   -1.3932   -0.0001 C   0  0  0  0  0  0  0  0  0  0  0  0
   -0.0103   -2.3934   -0.0008 H   0  0  0  0  0  0  0  0  0  0  0  0
    1.1991   -0.7039    0.0000 C   0  0  0  0  0  0  0  0  0  0  0  0
    2.0796   -1.1992    0.0012 H   0  0  0  0  0  0  0  0  0  0  0  0
    1.1972    0.6954    0.0010 C   0  0  0  0  0  0  0  0  0  0  0  0
    2.0650    1.1867    0.0019 H   0  0  0  0  0  0  0  0  0  0  0  0
  1  5  1  0
  5  8  1  0
  1  2  1  0
  1  3  1  0
  1  4  1  0
  5  6  1  0
  5  7  1  0
  8  9  1  0
  8 10  1  0
  8 11  1  0
 12 16  1  0
 16 17  2  0
 17 19  1  0
 19 21  2  0
 21 23  1  0
 23 25  2  0
 25 16  1  0
 12 13  1  0
 12 14  1  0
 12 15  1  0
 17 18  1  0
 19 20  1  0
 21 22  1  0
 23 24  1  0
 25 26  1  0
M  CHG  1   8   1
M  END
>  <PDB_ID>  (1150) 
pdb1ry0

>  <RESIDUE_NAME>  (1150) 
GLN   PHE

>  <FRAG_NAME>  (1150) 
ETAM   MBZ

>  <FRAG_ATOM_NUM>  (1150) 
fragi: 11  fragj: 15

>  <atom.prop.CHAIN_ID>  (1150) 
A A A A A A A A A A A Z Z Z Z Z Z Z Z Z Z Z Z Z Z Z

>  <atom.prop.IS_HEAVY_ATOM>  (1150) 
1 0 0 0 1 0 0 1 0 0 0 1 0 0 0 1 1 0 1 0 1 0 1 0 1 0

>  <DIFUSE_FUNC_ATOM>  (1150) 
n/a

>  <FINAL_SINGLE_POINT_ENERGY>  (1150) 
0

>  <NONCOV_INTER_ENERGY_QM>  (1150) 
0

>  <FF_Energy>  (1150) 
-4.42

>  <QM_Energy>  (1150) 
-9.72

>  <source>  (1150) 
ETAM_MBZ

>  <Index>  (1150) 
11512

$$$$
ETAM-pdb1ry2-A-LYS-643:MBZ-pdb1ry2-A-PHE-647
     RDKit          3D

 26 25  0  0  0  0  0  0  0  0999 V2000
   -0.0372   -4.3723    3.2783 C   0  0  0  0  0  0  0  0  0  0  0  0
    0.3839   -5.2705    3.1671 H   0  0  0  0  0  0  0  0  0  0  0  0
   -0.6855   -4.3958    4.0378 H   0  0  0  0  0  0  0  0  0  0  0  0
    0.7425   -3.6444    3.5028 H   0  0  0  0  0  0  0  0  0  0  0  0
   -0.8015   -4.0365    2.0022 C   0  0  0  0  0  0  0  0  0  0  0  0
   -0.1386   -3.8372    1.2711 H   0  0  0  0  0  0  0  0  0  0  0  0
   -1.3424   -4.8408    1.7273 H   0  0  0  0  0  0  0  0  0  0  0  0
   -1.7149   -2.8674    2.1631 N   0  0  0  0  0  4  0  0  0  0  0  0
   -1.4327   -2.1403    1.5380 H   0  0  0  0  0  0  0  0  0  0  0  0
   -2.6500   -3.1482    1.9511 H   0  0  0  0  0  0  0  0  0  0  0  0
   -1.6674   -2.5395    3.1056 H   0  0  0  0  0  0  0  0  0  0  0  0
   -0.0077    2.9179    0.0097 C   0  0  0  0  0  0  0  0  0  0  0  0
   -0.4718    3.2143    0.8297 H   0  0  0  0  0  0  0  0  0  0  0  0
   -0.4798    3.2234   -0.8024 H   0  0  0  0  0  0  0  0  0  0  0  0
    0.9858    3.3664    0.0071 H   0  0  0  0  0  0  0  0  0  0  0  0
   -0.0012    1.4058    0.0011 C   0  0  0  0  0  0  0  0  0  0  0  0
   -1.1979    0.6979   -0.0001 C   0  0  0  0  0  0  0  0  0  0  0  0
   -2.0655    1.1878   -0.0025 H   0  0  0  0  0  0  0  0  0  0  0  0
   -1.2041   -0.6952   -0.0000 C   0  0  0  0  0  0  0  0  0  0  0  0
   -2.0792   -1.1890    0.0020 H   0  0  0  0  0  0  0  0  0  0  0  0
    0.0014   -1.3968   -0.0003 C   0  0  0  0  0  0  0  0  0  0  0  0
   -0.0070   -2.3947   -0.0013 H   0  0  0  0  0  0  0  0  0  0  0  0
    1.2041   -0.7019    0.0000 C   0  0  0  0  0  0  0  0  0  0  0  0
    2.0842   -1.1987    0.0020 H   0  0  0  0  0  0  0  0  0  0  0  0
    1.1977    0.6903   -0.0007 C   0  0  0  0  0  0  0  0  0  0  0  0
    2.0663    1.1873   -0.0037 H   0  0  0  0  0  0  0  0  0  0  0  0
  1  5  1  0
  5  8  1  0
  1  2  1  0
  1  3  1  0
  1  4  1  0
  5  6  1  0
  5  7  1  0
  8  9  1  0
  8 10  1  0
  8 11  1  0
 12 16  1  0
 16 17  2  0
 17 19  1  0
 19 21  2  0
 21 23  1  0
 23 25  2  0
 25 16  1  0
 12 13  1  0
 12 14  1  0
 12 15  1  0
 17 18  1  0
 19 20  1  0
 21 22  1  0
 23 24  1  0
 25 26  1  0
M  CHG  1   8   1
M  END
>  <PDB_ID>  (1151) 
pdb1ry2

>  <RESIDUE_NAME>  (1151) 
LYS   PHE

>  <FRAG_NAME>  (1151) 
ETAM   MBZ

>  <FRAG_ATOM_NUM>  (1151) 
fragi: 11  fragj: 15

>  <atom.prop.CHAIN_ID>  (1151) 
A A A A A A A A A A A Z Z Z Z Z Z Z Z Z Z Z Z Z Z Z

>  <atom.prop.IS_HEAVY_ATOM>  (1151) 
1 0 0 0 1 0 0 1 0 0 0 1 0 0 0 1 1 0 1 0 1 0 1 0 1 0

>  <DIFUSE_FUNC_ATOM>  (1151) 
n/a

>  <FINAL_SINGLE_POINT_ENERGY>  (1151) 
0

>  <NONCOV_INTER_ENERGY_QM>  (1151) 
0

>  <FF_Energy>  (1151) 
1.22

>  <QM_Energy>  (1151) 
-8.63

>  <source>  (1151) 
ETAM_MBZ

>  <Index>  (1151) 
11522

$$$$
ETAM-pdb1ryb-A-LYS-106:MBZ-pdb1ryb-A-PHE-187
     RDKit          3D

 26 25  0  0  0  0  0  0  0  0999 V2000
    5.4208    0.3615    1.9888 C   0  0  0  0  0  0  0  0  0  0  0  0
    5.9174   -0.4746    2.1858 H   0  0  0  0  0  0  0  0  0  0  0  0
    5.4235    0.9658    2.7762 H   0  0  0  0  0  0  0  0  0  0  0  0
    5.8987    0.8684    1.1505 H   0  0  0  0  0  0  0  0  0  0  0  0
    3.9844    0.0055    1.6542 C   0  0  0  0  0  0  0  0  0  0  0  0
    3.3733    0.6609    2.1207 H   0  0  0  0  0  0  0  0  0  0  0  0
    3.8491    0.1125    0.6582 H   0  0  0  0  0  0  0  0  0  0  0  0
    3.6274   -1.3652    2.0511 N   0  0  0  0  0  4  0  0  0  0  0  0
    4.4586   -1.8902    2.2479 H   0  0  0  0  0  0  0  0  0  0  0  0
    3.0524   -1.3429    2.8722 H   0  0  0  0  0  0  0  0  0  0  0  0
    3.1235   -1.8137    1.3099 H   0  0  0  0  0  0  0  0  0  0  0  0
   -0.0288    2.9527   -0.0792 C   0  0  0  0  0  0  0  0  0  0  0  0
    0.7590    3.3027    0.3664 H   0  0  0  0  0  0  0  0  0  0  0  0
   -0.8721    3.2708    0.2818 H   0  0  0  0  0  0  0  0  0  0  0  0
    0.0192    3.2560   -1.1250 H   0  0  0  0  0  0  0  0  0  0  0  0
   -0.0053    1.4253    0.0492 C   0  0  0  0  0  0  0  0  0  0  0  0
   -1.1850    0.6903   -0.0376 C   0  0  0  0  0  0  0  0  0  0  0  0
   -2.0604    1.1750   -0.1321 H   0  0  0  0  0  0  0  0  0  0  0  0
   -1.2004   -0.7086   -0.0000 C   0  0  0  0  0  0  0  0  0  0  0  0
   -2.0748   -1.1929    0.0612 H   0  0  0  0  0  0  0  0  0  0  0  0
    0.0017   -1.4111   -0.0458 C   0  0  0  0  0  0  0  0  0  0  0  0
    0.0035   -2.3992   -0.1101 H   0  0  0  0  0  0  0  0  0  0  0  0
    1.2004   -0.6976   -0.0000 C   0  0  0  0  0  0  0  0  0  0  0  0
    2.0859   -1.1875    0.0109 H   0  0  0  0  0  0  0  0  0  0  0  0
    1.1887    0.7017    0.0342 C   0  0  0  0  0  0  0  0  0  0  0  0
    2.0620    1.1964    0.0471 H   0  0  0  0  0  0  0  0  0  0  0  0
  1  5  1  0
  5  8  1  0
  1  2  1  0
  1  3  1  0
  1  4  1  0
  5  6  1  0
  5  7  1  0
  8  9  1  0
  8 10  1  0
  8 11  1  0
 12 16  1  0
 16 17  2  0
 17 19  1  0
 19 21  2  0
 21 23  1  0
 23 25  2  0
 25 16  1  0
 12 13  1  0
 12 14  1  0
 12 15  1  0
 17 18  1  0
 19 20  1  0
 21 22  1  0
 23 24  1  0
 25 26  1  0
M  CHG  1   8   1
M  END
>  <PDB_ID>  (1152) 
pdb1ryb

>  <RESIDUE_NAME>  (1152) 
LYS   PHE

>  <FRAG_NAME>  (1152) 
ETAM   MBZ

>  <FRAG_ATOM_NUM>  (1152) 
fragi: 11  fragj: 15

>  <atom.prop.CHAIN_ID>  (1152) 
A A A A A A A A A A A Z Z Z Z Z Z Z Z Z Z Z Z Z Z Z

>  <atom.prop.IS_HEAVY_ATOM>  (1152) 
1 0 0 0 1 0 0 1 0 0 0 1 0 0 0 1 1 0 1 0 1 0 1 0 1 0

>  <DIFUSE_FUNC_ATOM>  (1152) 
n/a

>  <FINAL_SINGLE_POINT_ENERGY>  (1152) 
0

>  <NONCOV_INTER_ENERGY_QM>  (1152) 
0

>  <FF_Energy>  (1152) 
1.84

>  <QM_Energy>  (1152) 
-4.87

>  <source>  (1152) 
ETAM_MBZ

>  <Index>  (1152) 
11526

$$$$
ETAM-pdb1ryb-A-LYS-178:MBZ-pdb1ryb-A-PHE-187
     RDKit          3D

 26 25  0  0  0  0  0  0  0  0999 V2000
   -1.5158   -1.9690    3.8877 C   0  0  0  0  0  0  0  0  0  0  0  0
   -1.8100   -2.6114    3.1933 H   0  0  0  0  0  0  0  0  0  0  0  0
   -2.1809   -1.2451    4.0083 H   0  0  0  0  0  0  0  0  0  0  0  0
   -1.4204   -2.5063    4.8313 H   0  0  0  0  0  0  0  0  0  0  0  0
   -0.1818   -1.3475    3.4528 C   0  0  0  0  0  0  0  0  0  0  0  0
   -0.3511   -0.7581    2.6558 H   0  0  0  0  0  0  0  0  0  0  0  0
    0.1631   -0.7756    4.2056 H   0  0  0  0  0  0  0  0  0  0  0  0
    0.8373   -2.3692    3.1034 N   0  0  0  0  0  4  0  0  0  0  0  0
    0.8189   -2.5342    2.1174 H   0  0  0  0  0  0  0  0  0  0  0  0
    1.7436   -2.0413    3.3700 H   0  0  0  0  0  0  0  0  0  0  0  0
    0.6357   -3.2200    3.5877 H   0  0  0  0  0  0  0  0  0  0  0  0
   -0.0288    2.9527   -0.0792 C   0  0  0  0  0  0  0  0  0  0  0  0
    0.7590    3.3027    0.3664 H   0  0  0  0  0  0  0  0  0  0  0  0
   -0.8721    3.2708    0.2818 H   0  0  0  0  0  0  0  0  0  0  0  0
    0.0192    3.2560   -1.1250 H   0  0  0  0  0  0  0  0  0  0  0  0
   -0.0053    1.4253    0.0492 C   0  0  0  0  0  0  0  0  0  0  0  0
   -1.1850    0.6903   -0.0376 C   0  0  0  0  0  0  0  0  0  0  0  0
   -2.0604    1.1750   -0.1321 H   0  0  0  0  0  0  0  0  0  0  0  0
   -1.2004   -0.7086   -0.0000 C   0  0  0  0  0  0  0  0  0  0  0  0
   -2.0748   -1.1929    0.0612 H   0  0  0  0  0  0  0  0  0  0  0  0
    0.0017   -1.4111   -0.0458 C   0  0  0  0  0  0  0  0  0  0  0  0
    0.0035   -2.3992   -0.1101 H   0  0  0  0  0  0  0  0  0  0  0  0
    1.2004   -0.6976   -0.0000 C   0  0  0  0  0  0  0  0  0  0  0  0
    2.0859   -1.1875    0.0109 H   0  0  0  0  0  0  0  0  0  0  0  0
    1.1887    0.7017    0.0342 C   0  0  0  0  0  0  0  0  0  0  0  0
    2.0620    1.1964    0.0471 H   0  0  0  0  0  0  0  0  0  0  0  0
  1  5  1  0
  5  8  1  0
  1  2  1  0
  1  3  1  0
  1  4  1  0
  5  6  1  0
  5  7  1  0
  8  9  1  0
  8 10  1  0
  8 11  1  0
 12 16  1  0
 16 17  2  0
 17 19  1  0
 19 21  2  0
 21 23  1  0
 23 25  2  0
 25 16  1  0
 12 13  1  0
 12 14  1  0
 12 15  1  0
 17 18  1  0
 19 20  1  0
 21 22  1  0
 23 24  1  0
 25 26  1  0
M  CHG  1   8   1
M  END
>  <PDB_ID>  (1153) 
pdb1ryb

>  <RESIDUE_NAME>  (1153) 
LYS   PHE

>  <FRAG_NAME>  (1153) 
ETAM   MBZ

>  <FRAG_ATOM_NUM>  (1153) 
fragi: 11  fragj: 15

>  <atom.prop.CHAIN_ID>  (1153) 
A A A A A A A A A A A Z Z Z Z Z Z Z Z Z Z Z Z Z Z Z

>  <atom.prop.IS_HEAVY_ATOM>  (1153) 
1 0 0 0 1 0 0 1 0 0 0 1 0 0 0 1 1 0 1 0 1 0 1 0 1 0

>  <DIFUSE_FUNC_ATOM>  (1153) 
n/a

>  <FINAL_SINGLE_POINT_ENERGY>  (1153) 
0

>  <NONCOV_INTER_ENERGY_QM>  (1153) 
0

>  <FF_Energy>  (1153) 
-4.76

>  <QM_Energy>  (1153) 
-12.6

>  <source>  (1153) 
ETAM_MBZ

>  <Index>  (1153) 
11527

$$$$
ETAM-pdb2xu7-B-LYS-376:MBZ-pdb2xu7-B-PHE-321
     RDKit          3D

 26 25  0  0  0  0  0  0  0  0999 V2000
   -4.7599   -0.2070   -2.7484 C   0  0  0  0  0  0  0  0  0  0  0  0
   -4.7503   -0.8512   -2.0199 H   0  0  0  0  0  0  0  0  0  0  0  0
   -4.9796   -0.5893   -3.6149 H   0  0  0  0  0  0  0  0  0  0  0  0
   -5.4536    0.6009   -2.5156 H   0  0  0  0  0  0  0  0  0  0  0  0
   -3.3298    0.4196   -2.8512 C   0  0  0  0  0  0  0  0  0  0  0  0
   -3.3282    1.0310   -3.6081 H   0  0  0  0  0  0  0  0  0  0  0  0
   -3.1290    0.8431   -1.9983 H   0  0  0  0  0  0  0  0  0  0  0  0
   -2.4463   -0.7208   -3.0933 N   0  0  0  0  0  4  0  0  0  0  0  0
   -2.5899   -1.4230   -2.3907 H   0  0  0  0  0  0  0  0  0  0  0  0
   -2.6371   -1.1192   -3.9950 H   0  0  0  0  0  0  0  0  0  0  0  0
   -1.4870   -0.4253   -3.0654 H   0  0  0  0  0  0  0  0  0  0  0  0
    0.0098    2.9560    0.0328 C   0  0  0  0  0  0  0  0  0  0  0  0
   -0.9267    3.2505   -0.0136 H   0  0  0  0  0  0  0  0  0  0  0  0
    0.5353    3.2614   -0.7398 H   0  0  0  0  0  0  0  0  0  0  0  0
    0.4611    3.3417    0.9469 H   0  0  0  0  0  0  0  0  0  0  0  0
   -0.0025    1.4249   -0.0134 C   0  0  0  0  0  0  0  0  0  0  0  0
   -1.2109    0.7122    0.0143 C   0  0  0  0  0  0  0  0  0  0  0  0
   -2.0772    1.1838    0.0427 H   0  0  0  0  0  0  0  0  0  0  0  0
   -1.2277   -0.7373    0.0000 C   0  0  0  0  0  0  0  0  0  0  0  0
   -2.0920   -1.2067   -0.0028 H   0  0  0  0  0  0  0  0  0  0  0  0
    0.0007   -1.4233   -0.0078 C   0  0  0  0  0  0  0  0  0  0  0  0
    0.0141   -2.4176   -0.0196 H   0  0  0  0  0  0  0  0  0  0  0  0
    1.2277   -0.7038   -0.0000 C   0  0  0  0  0  0  0  0  0  0  0  0
    2.1014   -1.1869    0.0024 H   0  0  0  0  0  0  0  0  0  0  0  0
    1.2126    0.7273    0.0069 C   0  0  0  0  0  0  0  0  0  0  0  0
    2.0730    1.2151    0.0250 H   0  0  0  0  0  0  0  0  0  0  0  0
  1  5  1  0
  5  8  1  0
  1  2  1  0
  1  3  1  0
  1  4  1  0
  5  6  1  0
  5  7  1  0
  8  9  1  0
  8 10  1  0
  8 11  1  0
 12 16  1  0
 16 17  2  0
 17 19  1  0
 19 21  2  0
 21 23  1  0
 23 25  2  0
 25 16  1  0
 12 13  1  0
 12 14  1  0
 12 15  1  0
 17 18  1  0
 19 20  1  0
 21 22  1  0
 23 24  1  0
 25 26  1  0
M  CHG  1   8   1
M  END
>  <PDB_ID>  (1154) 
pdb2xu7

>  <RESIDUE_NAME>  (1154) 
LYS   PHE

>  <FRAG_NAME>  (1154) 
ETAM   MBZ

>  <FRAG_ATOM_NUM>  (1154) 
fragi: 11  fragj: 15

>  <atom.prop.CHAIN_ID>  (1154) 
A A A A A A A A A A A Z Z Z Z Z Z Z Z Z Z Z Z Z Z Z

>  <atom.prop.IS_HEAVY_ATOM>  (1154) 
1 0 0 0 1 0 0 1 0 0 0 1 0 0 0 1 1 0 1 0 1 0 1 0 1 0

>  <DIFUSE_FUNC_ATOM>  (1154) 
n/a

>  <FINAL_SINGLE_POINT_ENERGY>  (1154) 
0

>  <NONCOV_INTER_ENERGY_QM>  (1154) 
0

>  <FF_Energy>  (1154) 
-3.96

>  <QM_Energy>  (1154) 
-10.14

>  <source>  (1154) 
ETAM_MBZ

>  <Index>  (1154) 
11553

$$$$
ETAM-pdb1s18-B-LYS-179:MBZ-pdb1s18-B-PHE-142
     RDKit          3D

 26 25  0  0  0  0  0  0  0  0999 V2000
    0.9062    0.3133   -3.3821 C   0  0  0  0  0  0  0  0  0  0  0  0
    1.3300   -0.5433   -3.0743 H   0  0  0  0  0  0  0  0  0  0  0  0
    1.1865    1.0546   -2.7677 H   0  0  0  0  0  0  0  0  0  0  0  0
    1.2269    0.5369   -4.3996 H   0  0  0  0  0  0  0  0  0  0  0  0
   -0.6246    0.1467   -3.2399 C   0  0  0  0  0  0  0  0  0  0  0  0
   -0.8617   -0.8148   -3.5497 H   0  0  0  0  0  0  0  0  0  0  0  0
   -0.8409    0.1379   -2.2248 H   0  0  0  0  0  0  0  0  0  0  0  0
   -1.5428    1.1021   -3.9120 N   0  0  0  0  0  4  0  0  0  0  0  0
   -2.4874    0.7990   -3.7880 H   0  0  0  0  0  0  0  0  0  0  0  0
   -1.4295    2.0114   -3.5114 H   0  0  0  0  0  0  0  0  0  0  0  0
   -1.3290    1.1386   -4.8886 H   0  0  0  0  0  0  0  0  0  0  0  0
    0.0183    2.9118   -0.0434 C   0  0  0  0  0  0  0  0  0  0  0  0
   -0.4275    3.1973   -0.8833 H   0  0  0  0  0  0  0  0  0  0  0  0
    0.9644    3.2123   -0.0291 H   0  0  0  0  0  0  0  0  0  0  0  0
   -0.4941    3.4049    0.7828 H   0  0  0  0  0  0  0  0  0  0  0  0
    0.0051    1.4094    0.0050 C   0  0  0  0  0  0  0  0  0  0  0  0
   -1.1980    0.7338   -0.0270 C   0  0  0  0  0  0  0  0  0  0  0  0
   -2.0594    1.2056   -0.0693 H   0  0  0  0  0  0  0  0  0  0  0  0
   -1.2150   -0.7065   -0.0000 C   0  0  0  0  0  0  0  0  0  0  0  0
   -2.0897   -1.1746    0.0203 H   0  0  0  0  0  0  0  0  0  0  0  0
   -0.0014   -1.4100   -0.0018 C   0  0  0  0  0  0  0  0  0  0  0  0
   -0.0169   -2.4121   -0.0052 H   0  0  0  0  0  0  0  0  0  0  0  0
    1.2150   -0.7292   -0.0000 C   0  0  0  0  0  0  0  0  0  0  0  0
    2.0877   -1.2043   -0.0128 H   0  0  0  0  0  0  0  0  0  0  0  0
    1.1943    0.7025    0.0238 C   0  0  0  0  0  0  0  0  0  0  0  0
    2.0708    1.1827    0.0538 H   0  0  0  0  0  0  0  0  0  0  0  0
  1  5  1  0
  5  8  1  0
  1  2  1  0
  1  3  1  0
  1  4  1  0
  5  6  1  0
  5  7  1  0
  8  9  1  0
  8 10  1  0
  8 11  1  0
 12 16  1  0
 16 17  2  0
 17 19  1  0
 19 21  2  0
 21 23  1  0
 23 25  2  0
 25 16  1  0
 12 13  1  0
 12 14  1  0
 12 15  1  0
 17 18  1  0
 19 20  1  0
 21 22  1  0
 23 24  1  0
 25 26  1  0
M  CHG  1   8   1
M  END
>  <PDB_ID>  (1155) 
pdb1s18

>  <RESIDUE_NAME>  (1155) 
LYS   PHE

>  <FRAG_NAME>  (1155) 
ETAM   MBZ

>  <FRAG_ATOM_NUM>  (1155) 
fragi: 11  fragj: 15

>  <atom.prop.CHAIN_ID>  (1155) 
A A A A A A A A A A A Z Z Z Z Z Z Z Z Z Z Z Z Z Z Z

>  <atom.prop.IS_HEAVY_ATOM>  (1155) 
1 0 0 0 1 0 0 1 0 0 0 1 0 0 0 1 1 0 1 0 1 0 1 0 1 0

>  <DIFUSE_FUNC_ATOM>  (1155) 
n/a

>  <FINAL_SINGLE_POINT_ENERGY>  (1155) 
0

>  <NONCOV_INTER_ENERGY_QM>  (1155) 
0

>  <FF_Energy>  (1155) 
-0.55

>  <QM_Energy>  (1155) 
-8.58

>  <source>  (1155) 
ETAM_MBZ

>  <Index>  (1155) 
11578

$$$$
ETAM-pdb1s1m-B-LYS-342:MBZ-pdb1s1m-B-PHE-367
     RDKit          3D

 26 25  0  0  0  0  0  0  0  0999 V2000
   -0.0201   -4.9023   -0.0214 C   0  0  0  0  0  0  0  0  0  0  0  0
    0.6329   -5.4768    0.4611 H   0  0  0  0  0  0  0  0  0  0  0  0
    0.1161   -3.9471    0.2165 H   0  0  0  0  0  0  0  0  0  0  0  0
    0.1358   -5.0215   -1.0936 H   0  0  0  0  0  0  0  0  0  0  0  0
   -1.4297   -5.3122    0.3941 C   0  0  0  0  0  0  0  0  0  0  0  0
   -1.4878   -6.3150    0.3931 H   0  0  0  0  0  0  0  0  0  0  0  0
   -1.6001   -4.9816    1.3275 H   0  0  0  0  0  0  0  0  0  0  0  0
   -2.4682   -4.7602   -0.5183 N   0  0  0  0  0  4  0  0  0  0  0  0
   -2.4188   -5.2304   -1.3993 H   0  0  0  0  0  0  0  0  0  0  0  0
   -3.3715   -4.8997   -0.1146 H   0  0  0  0  0  0  0  0  0  0  0  0
   -2.3074   -3.7825   -0.6505 H   0  0  0  0  0  0  0  0  0  0  0  0
    0.0366    2.9002   -0.0001 C   0  0  0  0  0  0  0  0  0  0  0  0
   -0.1482    3.1906   -0.9244 H   0  0  0  0  0  0  0  0  0  0  0  0
    0.9274    3.1946    0.3043 H   0  0  0  0  0  0  0  0  0  0  0  0
   -0.7132    3.3441    0.6547 H   0  0  0  0  0  0  0  0  0  0  0  0
    0.0133    1.4022    0.0262 C   0  0  0  0  0  0  0  0  0  0  0  0
   -1.1971    0.7067   -0.0017 C   0  0  0  0  0  0  0  0  0  0  0  0
   -2.0539    1.2006   -0.0244 H   0  0  0  0  0  0  0  0  0  0  0  0
   -1.2047   -0.6893   -0.0000 C   0  0  0  0  0  0  0  0  0  0  0  0
   -2.0890   -1.1744    0.0231 H   0  0  0  0  0  0  0  0  0  0  0  0
   -0.0167   -1.3890   -0.0277 C   0  0  0  0  0  0  0  0  0  0  0  0
   -0.0224   -2.3903   -0.0680 H   0  0  0  0  0  0  0  0  0  0  0  0
    1.2047   -0.7069    0.0000 C   0  0  0  0  0  0  0  0  0  0  0  0
    2.0714   -1.2155    0.0188 H   0  0  0  0  0  0  0  0  0  0  0  0
    1.2005    0.6763    0.0032 C   0  0  0  0  0  0  0  0  0  0  0  0
    2.0761    1.1734   -0.0121 H   0  0  0  0  0  0  0  0  0  0  0  0
  1  5  1  0
  5  8  1  0
  1  2  1  0
  1  3  1  0
  1  4  1  0
  5  6  1  0
  5  7  1  0
  8  9  1  0
  8 10  1  0
  8 11  1  0
 12 16  1  0
 16 17  2  0
 17 19  1  0
 19 21  2  0
 21 23  1  0
 23 25  2  0
 25 16  1  0
 12 13  1  0
 12 14  1  0
 12 15  1  0
 17 18  1  0
 19 20  1  0
 21 22  1  0
 23 24  1  0
 25 26  1  0
M  CHG  1   8   1
M  END
>  <PDB_ID>  (1156) 
pdb1s1m

>  <RESIDUE_NAME>  (1156) 
LYS   PHE

>  <FRAG_NAME>  (1156) 
ETAM   MBZ

>  <FRAG_ATOM_NUM>  (1156) 
fragi: 11  fragj: 15

>  <atom.prop.CHAIN_ID>  (1156) 
A A A A A A A A A A A Z Z Z Z Z Z Z Z Z Z Z Z Z Z Z

>  <atom.prop.IS_HEAVY_ATOM>  (1156) 
1 0 0 0 1 0 0 1 0 0 0 1 0 0 0 1 1 0 1 0 1 0 1 0 1 0

>  <DIFUSE_FUNC_ATOM>  (1156) 
n/a

>  <FINAL_SINGLE_POINT_ENERGY>  (1156) 
0

>  <NONCOV_INTER_ENERGY_QM>  (1156) 
0

>  <FF_Energy>  (1156) 
16.49

>  <QM_Energy>  (1156) 
0.09

>  <source>  (1156) 
ETAM_MBZ

>  <Index>  (1156) 
11583

$$$$
ETAM-pdb2y8n-A-LYS-701:MBZ-pdb2y8n-A-PHE-661
     RDKit          3D

 26 25  0  0  0  0  0  0  0  0999 V2000
    2.7763   -4.5676    1.7318 C   0  0  0  0  0  0  0  0  0  0  0  0
    3.0907   -5.4605    2.0394 H   0  0  0  0  0  0  0  0  0  0  0  0
    3.5474   -3.9431    1.6456 H   0  0  0  0  0  0  0  0  0  0  0  0
    2.3023   -4.6791    0.7567 H   0  0  0  0  0  0  0  0  0  0  0  0
    1.8146   -4.0040    2.7870 C   0  0  0  0  0  0  0  0  0  0  0  0
    0.8728   -4.1006    2.4477 H   0  0  0  0  0  0  0  0  0  0  0  0
    1.9082   -4.5449    3.6300 H   0  0  0  0  0  0  0  0  0  0  0  0
    2.0737   -2.5598    3.1029 N   0  0  0  0  0  4  0  0  0  0  0  0
    2.8158   -2.2285    2.5244 H   0  0  0  0  0  0  0  0  0  0  0  0
    1.2447   -2.0340    2.9262 H   0  0  0  0  0  0  0  0  0  0  0  0
    2.3294   -2.4779    4.0639 H   0  0  0  0  0  0  0  0  0  0  0  0
   -0.0045    2.9046    0.0006 C   0  0  0  0  0  0  0  0  0  0  0  0
   -0.8133    3.2070   -0.4815 H   0  0  0  0  0  0  0  0  0  0  0  0
    0.8194    3.2106   -0.4524 H   0  0  0  0  0  0  0  0  0  0  0  0
   -0.0231    3.3494    0.9955 H   0  0  0  0  0  0  0  0  0  0  0  0
   -0.0005    1.3977    0.0017 C   0  0  0  0  0  0  0  0  0  0  0  0
   -1.1888    0.6895   -0.0031 C   0  0  0  0  0  0  0  0  0  0  0  0
   -2.0592    1.1784   -0.0104 H   0  0  0  0  0  0  0  0  0  0  0  0
   -1.1937   -0.6979   -0.0000 C   0  0  0  0  0  0  0  0  0  0  0  0
   -2.0744   -1.1897    0.0029 H   0  0  0  0  0  0  0  0  0  0  0  0
   -0.0021   -1.3891    0.0004 C   0  0  0  0  0  0  0  0  0  0  0  0
   -0.0034   -2.3902    0.0006 H   0  0  0  0  0  0  0  0  0  0  0  0
    1.1937   -0.6945    0.0000 C   0  0  0  0  0  0  0  0  0  0  0  0
    2.0777   -1.1920    0.0005 H   0  0  0  0  0  0  0  0  0  0  0  0
    1.1915    0.6943    0.0011 C   0  0  0  0  0  0  0  0  0  0  0  0
    2.0608    1.1890    0.0008 H   0  0  0  0  0  0  0  0  0  0  0  0
  1  5  1  0
  5  8  1  0
  1  2  1  0
  1  3  1  0
  1  4  1  0
  5  6  1  0
  5  7  1  0
  8  9  1  0
  8 10  1  0
  8 11  1  0
 12 16  1  0
 16 17  2  0
 17 19  1  0
 19 21  2  0
 21 23  1  0
 23 25  2  0
 25 16  1  0
 12 13  1  0
 12 14  1  0
 12 15  1  0
 17 18  1  0
 19 20  1  0
 21 22  1  0
 23 24  1  0
 25 26  1  0
M  CHG  1   8   1
M  END
>  <PDB_ID>  (1157) 
pdb2y8n

>  <RESIDUE_NAME>  (1157) 
LYS   PHE

>  <FRAG_NAME>  (1157) 
ETAM   MBZ

>  <FRAG_ATOM_NUM>  (1157) 
fragi: 11  fragj: 15

>  <atom.prop.CHAIN_ID>  (1157) 
A A A A A A A A A A A Z Z Z Z Z Z Z Z Z Z Z Z Z Z Z

>  <atom.prop.IS_HEAVY_ATOM>  (1157) 
1 0 0 0 1 0 0 1 0 0 0 1 0 0 0 1 1 0 1 0 1 0 1 0 1 0

>  <DIFUSE_FUNC_ATOM>  (1157) 
n/a

>  <FINAL_SINGLE_POINT_ENERGY>  (1157) 
0

>  <NONCOV_INTER_ENERGY_QM>  (1157) 
0

>  <FF_Energy>  (1157) 
-2.54

>  <QM_Energy>  (1157) 
-7.61

>  <source>  (1157) 
ETAM_MBZ

>  <Index>  (1157) 
11635

$$$$
ETAM-pdb2y8n-C-LYS-701:MBZ-pdb2y8n-C-PHE-661
     RDKit          3D

 26 25  0  0  0  0  0  0  0  0999 V2000
    1.8345   -5.2696    1.7977 C   0  0  0  0  0  0  0  0  0  0  0  0
    2.2928   -6.1178    2.0325 H   0  0  0  0  0  0  0  0  0  0  0  0
    2.4742   -4.5116    1.8026 H   0  0  0  0  0  0  0  0  0  0  0  0
    1.3974   -5.3631    0.8035 H   0  0  0  0  0  0  0  0  0  0  0  0
    0.7567   -4.9975    2.8476 C   0  0  0  0  0  0  0  0  0  0  0  0
    0.1173   -5.7703    2.8597 H   0  0  0  0  0  0  0  0  0  0  0  0
    1.1941   -4.9217    3.7465 H   0  0  0  0  0  0  0  0  0  0  0  0
    0.0046   -3.7422    2.5609 N   0  0  0  0  0  4  0  0  0  0  0  0
   -0.8691   -3.9713    2.1339 H   0  0  0  0  0  0  0  0  0  0  0  0
   -0.1584   -3.2524    3.4161 H   0  0  0  0  0  0  0  0  0  0  0  0
    0.5413   -3.1701    1.9426 H   0  0  0  0  0  0  0  0  0  0  0  0
   -0.0027    2.8988   -0.0002 C   0  0  0  0  0  0  0  0  0  0  0  0
   -0.8181    3.2050   -0.4679 H   0  0  0  0  0  0  0  0  0  0  0  0
    0.8158    3.2081   -0.4598 H   0  0  0  0  0  0  0  0  0  0  0  0
   -0.0083    3.3350    0.9987 H   0  0  0  0  0  0  0  0  0  0  0  0
    0.0001    1.3979   -0.0031 C   0  0  0  0  0  0  0  0  0  0  0  0
   -1.1937    0.6903   -0.0011 C   0  0  0  0  0  0  0  0  0  0  0  0
   -2.0617    1.1817   -0.0016 H   0  0  0  0  0  0  0  0  0  0  0  0
   -1.1992   -0.6973   -0.0000 C   0  0  0  0  0  0  0  0  0  0  0  0
   -2.0762   -1.1905    0.0019 H   0  0  0  0  0  0  0  0  0  0  0  0
   -0.0005   -1.3878    0.0007 C   0  0  0  0  0  0  0  0  0  0  0  0
   -0.0023   -2.3892    0.0013 H   0  0  0  0  0  0  0  0  0  0  0  0
    1.1992   -0.6945    0.0000 C   0  0  0  0  0  0  0  0  0  0  0  0
    2.0804   -1.1939   -0.0014 H   0  0  0  0  0  0  0  0  0  0  0  0
    1.1942    0.6914    0.0035 C   0  0  0  0  0  0  0  0  0  0  0  0
    2.0630    1.1893    0.0102 H   0  0  0  0  0  0  0  0  0  0  0  0
  1  5  1  0
  5  8  1  0
  1  2  1  0
  1  3  1  0
  1  4  1  0
  5  6  1  0
  5  7  1  0
  8  9  1  0
  8 10  1  0
  8 11  1  0
 12 16  1  0
 16 17  2  0
 17 19  1  0
 19 21  2  0
 21 23  1  0
 23 25  2  0
 25 16  1  0
 12 13  1  0
 12 14  1  0
 12 15  1  0
 17 18  1  0
 19 20  1  0
 21 22  1  0
 23 24  1  0
 25 26  1  0
M  CHG  1   8   1
M  END
>  <PDB_ID>  (1158) 
pdb2y8n

>  <RESIDUE_NAME>  (1158) 
LYS   PHE

>  <FRAG_NAME>  (1158) 
ETAM   MBZ

>  <FRAG_ATOM_NUM>  (1158) 
fragi: 11  fragj: 15

>  <atom.prop.CHAIN_ID>  (1158) 
A A A A A A A A A A A Z Z Z Z Z Z Z Z Z Z Z Z Z Z Z

>  <atom.prop.IS_HEAVY_ATOM>  (1158) 
1 0 0 0 1 0 0 1 0 0 0 1 0 0 0 1 1 0 1 0 1 0 1 0 1 0

>  <DIFUSE_FUNC_ATOM>  (1158) 
n/a

>  <FINAL_SINGLE_POINT_ENERGY>  (1158) 
0

>  <NONCOV_INTER_ENERGY_QM>  (1158) 
0

>  <FF_Energy>  (1158) 
-1.05

>  <QM_Energy>  (1158) 
-6.76

>  <source>  (1158) 
ETAM_MBZ

>  <Index>  (1158) 
11638

$$$$
ETAM-pdb1s4k-B-LYS-56:MBZ-pdb1s4k-A-PHE-111
     RDKit          3D

 26 25  0  0  0  0  0  0  0  0999 V2000
    1.3526   -1.6733    4.5381 C   0  0  0  0  0  0  0  0  0  0  0  0
    1.7522   -1.5895    3.6295 H   0  0  0  0  0  0  0  0  0  0  0  0
    1.0055   -2.5958    4.6775 H   0  0  0  0  0  0  0  0  0  0  0  0
    2.1273   -1.4749    5.2788 H   0  0  0  0  0  0  0  0  0  0  0  0
    0.1987   -0.6957    4.6561 C   0  0  0  0  0  0  0  0  0  0  0  0
   -0.2519   -0.8251    5.5448 H   0  0  0  0  0  0  0  0  0  0  0  0
    0.5562    0.2420    4.6100 H   0  0  0  0  0  0  0  0  0  0  0  0
   -0.8105   -0.8831    3.5688 N   0  0  0  0  0  4  0  0  0  0  0  0
   -0.6258   -0.2331    2.8342 H   0  0  0  0  0  0  0  0  0  0  0  0
   -0.7456   -1.8152    3.2179 H   0  0  0  0  0  0  0  0  0  0  0  0
   -1.7244   -0.7244    3.9388 H   0  0  0  0  0  0  0  0  0  0  0  0
    0.0045    2.9091    0.0672 C   0  0  0  0  0  0  0  0  0  0  0  0
   -0.5633    3.2473   -0.6642 H   0  0  0  0  0  0  0  0  0  0  0  0
    0.9359    3.2185   -0.0192 H   0  0  0  0  0  0  0  0  0  0  0  0
   -0.3911    3.2986    1.0051 H   0  0  0  0  0  0  0  0  0  0  0  0
    0.0044    1.4045    0.0010 C   0  0  0  0  0  0  0  0  0  0  0  0
   -1.1945    0.6947   -0.0011 C   0  0  0  0  0  0  0  0  0  0  0  0
   -2.0601    1.1855   -0.0049 H   0  0  0  0  0  0  0  0  0  0  0  0
   -1.2026   -0.6990    0.0000 C   0  0  0  0  0  0  0  0  0  0  0  0
   -2.0841   -1.1865    0.0020 H   0  0  0  0  0  0  0  0  0  0  0  0
   -0.0092   -1.3976    0.0007 C   0  0  0  0  0  0  0  0  0  0  0  0
   -0.0076   -2.3940    0.0013 H   0  0  0  0  0  0  0  0  0  0  0  0
    1.2026   -0.6979    0.0000 C   0  0  0  0  0  0  0  0  0  0  0  0
    2.0789   -1.1991    0.0014 H   0  0  0  0  0  0  0  0  0  0  0  0
    1.1992    0.6953   -0.0007 C   0  0  0  0  0  0  0  0  0  0  0  0
    2.0687    1.1896   -0.0034 H   0  0  0  0  0  0  0  0  0  0  0  0
  1  5  1  0
  5  8  1  0
  1  2  1  0
  1  3  1  0
  1  4  1  0
  5  6  1  0
  5  7  1  0
  8  9  1  0
  8 10  1  0
  8 11  1  0
 12 16  1  0
 16 17  2  0
 17 19  1  0
 19 21  2  0
 21 23  1  0
 23 25  2  0
 25 16  1  0
 12 13  1  0
 12 14  1  0
 12 15  1  0
 17 18  1  0
 19 20  1  0
 21 22  1  0
 23 24  1  0
 25 26  1  0
M  CHG  1   8   1
M  END
>  <PDB_ID>  (1159) 
pdb1s4k

>  <RESIDUE_NAME>  (1159) 
LYS   PHE

>  <FRAG_NAME>  (1159) 
ETAM   MBZ

>  <FRAG_ATOM_NUM>  (1159) 
fragi: 11  fragj: 15

>  <atom.prop.CHAIN_ID>  (1159) 
A A A A A A A A A A A Z Z Z Z Z Z Z Z Z Z Z Z Z Z Z

>  <atom.prop.IS_HEAVY_ATOM>  (1159) 
1 0 0 0 1 0 0 1 0 0 0 1 0 0 0 1 1 0 1 0 1 0 1 0 1 0

>  <DIFUSE_FUNC_ATOM>  (1159) 
n/a

>  <FINAL_SINGLE_POINT_ENERGY>  (1159) 
0

>  <NONCOV_INTER_ENERGY_QM>  (1159) 
0

>  <FF_Energy>  (1159) 
-6.58

>  <QM_Energy>  (1159) 
-12.44

>  <source>  (1159) 
ETAM_MBZ

>  <Index>  (1159) 
11650

$$$$
ETAM-pdb1s4n-A-LYS-169:MBZ-pdb1s4n-A-PHE-182
     RDKit          3D

 26 25  0  0  0  0  0  0  0  0999 V2000
    0.4665    0.8147    4.7330 C   0  0  0  0  0  0  0  0  0  0  0  0
   -0.1635    1.5786    4.7820 H   0  0  0  0  0  0  0  0  0  0  0  0
    0.6426    0.4437    5.6351 H   0  0  0  0  0  0  0  0  0  0  0  0
    0.0319    0.0362    4.1059 H   0  0  0  0  0  0  0  0  0  0  0  0
    1.7612    1.2860    4.1375 C   0  0  0  0  0  0  0  0  0  0  0  0
    2.0725    2.0945    4.6196 H   0  0  0  0  0  0  0  0  0  0  0  0
    2.4359    0.5612    4.1941 H   0  0  0  0  0  0  0  0  0  0  0  0
    1.5210    1.6232    2.7174 N   0  0  0  0  0  4  0  0  0  0  0  0
    0.6215    1.2836    2.4395 H   0  0  0  0  0  0  0  0  0  0  0  0
    1.5512    2.6163    2.5980 H   0  0  0  0  0  0  0  0  0  0  0  0
    2.2261    1.1985    2.1475 H   0  0  0  0  0  0  0  0  0  0  0  0
   -0.0031    2.9040   -0.0222 C   0  0  0  0  0  0  0  0  0  0  0  0
    0.8784    3.2154    0.2947 H   0  0  0  0  0  0  0  0  0  0  0  0
   -0.7329    3.2180    0.5644 H   0  0  0  0  0  0  0  0  0  0  0  0
   -0.1683    3.3244   -1.0142 H   0  0  0  0  0  0  0  0  0  0  0  0
   -0.0017    1.4005   -0.0001 C   0  0  0  0  0  0  0  0  0  0  0  0
   -1.2006    0.6912   -0.0008 C   0  0  0  0  0  0  0  0  0  0  0  0
   -2.0652    1.1842   -0.0035 H   0  0  0  0  0  0  0  0  0  0  0  0
   -1.2027   -0.6937    0.0000 C   0  0  0  0  0  0  0  0  0  0  0  0
   -2.0768   -1.1934    0.0014 H   0  0  0  0  0  0  0  0  0  0  0  0
    0.0039   -1.3936    0.0013 C   0  0  0  0  0  0  0  0  0  0  0  0
   -0.0036   -2.3903    0.0025 H   0  0  0  0  0  0  0  0  0  0  0  0
    1.2027   -0.6971   -0.0000 C   0  0  0  0  0  0  0  0  0  0  0  0
    2.0849   -1.1941    0.0005 H   0  0  0  0  0  0  0  0  0  0  0  0
    1.1984    0.6926   -0.0003 C   0  0  0  0  0  0  0  0  0  0  0  0
    2.0649    1.1910   -0.0014 H   0  0  0  0  0  0  0  0  0  0  0  0
  1  5  1  0
  5  8  1  0
  1  2  1  0
  1  3  1  0
  1  4  1  0
  5  6  1  0
  5  7  1  0
  8  9  1  0
  8 10  1  0
  8 11  1  0
 12 16  1  0
 16 17  2  0
 17 19  1  0
 19 21  2  0
 21 23  1  0
 23 25  2  0
 25 16  1  0
 12 13  1  0
 12 14  1  0
 12 15  1  0
 17 18  1  0
 19 20  1  0
 21 22  1  0
 23 24  1  0
 25 26  1  0
M  CHG  1   8   1
M  END
>  <PDB_ID>  (1160) 
pdb1s4n

>  <RESIDUE_NAME>  (1160) 
LYS   PHE

>  <FRAG_NAME>  (1160) 
ETAM   MBZ

>  <FRAG_ATOM_NUM>  (1160) 
fragi: 11  fragj: 15

>  <atom.prop.CHAIN_ID>  (1160) 
A A A A A A A A A A A Z Z Z Z Z Z Z Z Z Z Z Z Z Z Z

>  <atom.prop.IS_HEAVY_ATOM>  (1160) 
1 0 0 0 1 0 0 1 0 0 0 1 0 0 0 1 1 0 1 0 1 0 1 0 1 0

>  <DIFUSE_FUNC_ATOM>  (1160) 
n/a

>  <FINAL_SINGLE_POINT_ENERGY>  (1160) 
0

>  <NONCOV_INTER_ENERGY_QM>  (1160) 
0

>  <FF_Energy>  (1160) 
-3.86

>  <QM_Energy>  (1160) 
-10.55

>  <source>  (1160) 
ETAM_MBZ

>  <Index>  (1160) 
11654

$$$$
ETAM-pdb1s5j-A-LYS-735:MBZ-pdb1s5j-A-PHE-731
     RDKit          3D

 26 25  0  0  0  0  0  0  0  0999 V2000
    0.6855   -1.8795    3.2801 C   0  0  0  0  0  0  0  0  0  0  0  0
    0.8230   -2.7139    3.8047 H   0  0  0  0  0  0  0  0  0  0  0  0
    0.8622   -2.0453    2.3152 H   0  0  0  0  0  0  0  0  0  0  0  0
   -0.3518   -1.5648    3.3949 H   0  0  0  0  0  0  0  0  0  0  0  0
    1.6750   -0.8198    3.7814 C   0  0  0  0  0  0  0  0  0  0  0  0
    1.2749    0.0914    3.6226 H   0  0  0  0  0  0  0  0  0  0  0  0
    1.7966   -0.9396    4.7756 H   0  0  0  0  0  0  0  0  0  0  0  0
    3.0083   -0.8920    3.1142 N   0  0  0  0  0  4  0  0  0  0  0  0
    3.5411   -0.0822    3.3550 H   0  0  0  0  0  0  0  0  0  0  0  0
    3.4864   -1.7133    3.4217 H   0  0  0  0  0  0  0  0  0  0  0  0
    2.8792   -0.9285    2.1244 H   0  0  0  0  0  0  0  0  0  0  0  0
    0.0037    2.9272    0.0010 C   0  0  0  0  0  0  0  0  0  0  0  0
   -0.3202    3.2302   -0.8816 H   0  0  0  0  0  0  0  0  0  0  0  0
    0.9293    3.2283    0.1703 H   0  0  0  0  0  0  0  0  0  0  0  0
   -0.6352    3.3780    0.7604 H   0  0  0  0  0  0  0  0  0  0  0  0
    0.0001    1.4106    0.0033 C   0  0  0  0  0  0  0  0  0  0  0  0
   -1.2012    0.7011   -0.0008 C   0  0  0  0  0  0  0  0  0  0  0  0
   -2.0666    1.1898   -0.0060 H   0  0  0  0  0  0  0  0  0  0  0  0
   -1.2075   -0.6991   -0.0000 C   0  0  0  0  0  0  0  0  0  0  0  0
   -2.0826   -1.1902    0.0051 H   0  0  0  0  0  0  0  0  0  0  0  0
    0.0001   -1.4039   -0.0044 C   0  0  0  0  0  0  0  0  0  0  0  0
   -0.0065   -2.3987   -0.0115 H   0  0  0  0  0  0  0  0  0  0  0  0
    1.2075   -0.7049    0.0000 C   0  0  0  0  0  0  0  0  0  0  0  0
    2.0868   -1.1992    0.0036 H   0  0  0  0  0  0  0  0  0  0  0  0
    1.2010    0.6962    0.0019 C   0  0  0  0  0  0  0  0  0  0  0  0
    2.0691    1.1899    0.0015 H   0  0  0  0  0  0  0  0  0  0  0  0
  1  5  1  0
  5  8  1  0
  1  2  1  0
  1  3  1  0
  1  4  1  0
  5  6  1  0
  5  7  1  0
  8  9  1  0
  8 10  1  0
  8 11  1  0
 12 16  1  0
 16 17  2  0
 17 19  1  0
 19 21  2  0
 21 23  1  0
 23 25  2  0
 25 16  1  0
 12 13  1  0
 12 14  1  0
 12 15  1  0
 17 18  1  0
 19 20  1  0
 21 22  1  0
 23 24  1  0
 25 26  1  0
M  CHG  1   8   1
M  END
>  <PDB_ID>  (1161) 
pdb1s5j

>  <RESIDUE_NAME>  (1161) 
LYS   PHE

>  <FRAG_NAME>  (1161) 
ETAM   MBZ

>  <FRAG_ATOM_NUM>  (1161) 
fragi: 11  fragj: 15

>  <atom.prop.CHAIN_ID>  (1161) 
A A A A A A A A A A A Z Z Z Z Z Z Z Z Z Z Z Z Z Z Z

>  <atom.prop.IS_HEAVY_ATOM>  (1161) 
1 0 0 0 1 0 0 1 0 0 0 1 0 0 0 1 1 0 1 0 1 0 1 0 1 0

>  <DIFUSE_FUNC_ATOM>  (1161) 
n/a

>  <FINAL_SINGLE_POINT_ENERGY>  (1161) 
0

>  <NONCOV_INTER_ENERGY_QM>  (1161) 
0

>  <FF_Energy>  (1161) 
-2.61

>  <QM_Energy>  (1161) 
-8.36

>  <source>  (1161) 
ETAM_MBZ

>  <Index>  (1161) 
11657

$$$$
ETAM-pdb1s4i-B-LYS-61:MBZ-pdb1s4i-B-PHE-41
     RDKit          3D

 26 25  0  0  0  0  0  0  0  0999 V2000
   -1.3958   -1.5979    4.3017 C   0  0  0  0  0  0  0  0  0  0  0  0
   -0.7367   -2.1121    3.7862 H   0  0  0  0  0  0  0  0  0  0  0  0
   -1.4729   -1.9091    5.2295 H   0  0  0  0  0  0  0  0  0  0  0  0
   -1.1002   -0.5488    4.3046 H   0  0  0  0  0  0  0  0  0  0  0  0
   -2.6999   -1.6489    3.6440 C   0  0  0  0  0  0  0  0  0  0  0  0
   -2.6750   -2.1640    2.8288 H   0  0  0  0  0  0  0  0  0  0  0  0
   -3.4076   -1.8772    4.2595 H   0  0  0  0  0  0  0  0  0  0  0  0
   -2.9075   -0.1655    3.2402 N   0  0  0  0  0  4  0  0  0  0  0  0
   -3.8666   -0.0442    3.0273 H   0  0  0  0  0  0  0  0  0  0  0  0
   -2.6368    0.3956    4.0087 H   0  0  0  0  0  0  0  0  0  0  0  0
   -2.3392    0.0128    2.4498 H   0  0  0  0  0  0  0  0  0  0  0  0
   -0.0879    2.9158    0.0119 C   0  0  0  0  0  0  0  0  0  0  0  0
   -0.9072    3.1869   -0.4711 H   0  0  0  0  0  0  0  0  0  0  0  0
    0.7244    3.2514   -0.4420 H   0  0  0  0  0  0  0  0  0  0  0  0
   -0.1231    3.3522    1.0100 H   0  0  0  0  0  0  0  0  0  0  0  0
   -0.0280    1.4024    0.0001 C   0  0  0  0  0  0  0  0  0  0  0  0
   -1.1917    0.6852    0.0039 C   0  0  0  0  0  0  0  0  0  0  0  0
   -2.0790    1.1631    0.0081 H   0  0  0  0  0  0  0  0  0  0  0  0
   -1.2035   -0.7127   -0.0000 C   0  0  0  0  0  0  0  0  0  0  0  0
   -2.0805   -1.1974    0.0140 H   0  0  0  0  0  0  0  0  0  0  0  0
   -0.0072   -1.3977   -0.0218 C   0  0  0  0  0  0  0  0  0  0  0  0
    0.0106   -2.3920   -0.0537 H   0  0  0  0  0  0  0  0  0  0  0  0
    1.2035   -0.6793   -0.0000 C   0  0  0  0  0  0  0  0  0  0  0  0
    2.0850   -1.1982    0.0041 H   0  0  0  0  0  0  0  0  0  0  0  0
    1.2268    0.7022    0.0179 C   0  0  0  0  0  0  0  0  0  0  0  0
    2.0587    1.2116    0.0410 H   0  0  0  0  0  0  0  0  0  0  0  0
  1  5  1  0
  5  8  1  0
  1  2  1  0
  1  3  1  0
  1  4  1  0
  5  6  1  0
  5  7  1  0
  8  9  1  0
  8 10  1  0
  8 11  1  0
 12 16  1  0
 16 17  2  0
 17 19  1  0
 19 21  2  0
 21 23  1  0
 23 25  2  0
 25 16  1  0
 12 13  1  0
 12 14  1  0
 12 15  1  0
 17 18  1  0
 19 20  1  0
 21 22  1  0
 23 24  1  0
 25 26  1  0
M  CHG  1   8   1
M  END
>  <PDB_ID>  (1162) 
pdb1s4i

>  <RESIDUE_NAME>  (1162) 
LYS   PHE

>  <FRAG_NAME>  (1162) 
ETAM   MBZ

>  <FRAG_ATOM_NUM>  (1162) 
fragi: 11  fragj: 15

>  <atom.prop.CHAIN_ID>  (1162) 
A A A A A A A A A A A Z Z Z Z Z Z Z Z Z Z Z Z Z Z Z

>  <atom.prop.IS_HEAVY_ATOM>  (1162) 
1 0 0 0 1 0 0 1 0 0 0 1 0 0 0 1 1 0 1 0 1 0 1 0 1 0

>  <DIFUSE_FUNC_ATOM>  (1162) 
n/a

>  <FINAL_SINGLE_POINT_ENERGY>  (1162) 
0

>  <NONCOV_INTER_ENERGY_QM>  (1162) 
0

>  <FF_Energy>  (1162) 
-3.8

>  <QM_Energy>  (1162) 
-9.57

>  <source>  (1162) 
ETAM_MBZ

>  <Index>  (1162) 
11669

$$$$
ETAM-pdb1s4b-P-LYS-216:MBZ-pdb1s4b-P-PHE-188
     RDKit          3D

 26 25  0  0  0  0  0  0  0  0999 V2000
   -0.0609    1.2447   -3.8251 C   0  0  0  0  0  0  0  0  0  0  0  0
   -0.1189    0.2730   -3.6192 H   0  0  0  0  0  0  0  0  0  0  0  0
   -0.0324    1.3874   -4.8099 H   0  0  0  0  0  0  0  0  0  0  0  0
   -0.9423    1.7432   -3.4217 H   0  0  0  0  0  0  0  0  0  0  0  0
    1.2202    1.7937   -3.2179 C   0  0  0  0  0  0  0  0  0  0  0  0
    1.2907    2.7701   -3.4355 H   0  0  0  0  0  0  0  0  0  0  0  0
    1.1818    1.6833   -2.2218 H   0  0  0  0  0  0  0  0  0  0  0  0
    2.4242    1.0880   -3.7410 N   0  0  0  0  0  4  0  0  0  0  0  0
    2.6466    0.3233   -3.1387 H   0  0  0  0  0  0  0  0  0  0  0  0
    2.2342    0.7466   -4.6610 H   0  0  0  0  0  0  0  0  0  0  0  0
    3.1932    1.7252   -3.7726 H   0  0  0  0  0  0  0  0  0  0  0  0
    0.0020    2.9138    0.0216 C   0  0  0  0  0  0  0  0  0  0  0  0
   -0.7421    3.2279   -0.5479 H   0  0  0  0  0  0  0  0  0  0  0  0
    0.8754    3.2219   -0.3240 H   0  0  0  0  0  0  0  0  0  0  0  0
   -0.1339    3.3438    1.0140 H   0  0  0  0  0  0  0  0  0  0  0  0
   -0.0002    1.4058    0.0010 C   0  0  0  0  0  0  0  0  0  0  0  0
   -1.1974    0.6953   -0.0001 C   0  0  0  0  0  0  0  0  0  0  0  0
   -2.0646    1.1840   -0.0020 H   0  0  0  0  0  0  0  0  0  0  0  0
   -1.2031   -0.7009    0.0000 C   0  0  0  0  0  0  0  0  0  0  0  0
   -2.0794   -1.1921    0.0021 H   0  0  0  0  0  0  0  0  0  0  0  0
    0.0004   -1.3980   -0.0002 C   0  0  0  0  0  0  0  0  0  0  0  0
   -0.0026   -2.3957   -0.0014 H   0  0  0  0  0  0  0  0  0  0  0  0
    1.2031   -0.6985    0.0000 C   0  0  0  0  0  0  0  0  0  0  0  0
    2.0839   -1.1940    0.0018 H   0  0  0  0  0  0  0  0  0  0  0  0
    1.1972    0.6962   -0.0007 C   0  0  0  0  0  0  0  0  0  0  0  0
    2.0653    1.1918   -0.0033 H   0  0  0  0  0  0  0  0  0  0  0  0
  1  5  1  0
  5  8  1  0
  1  2  1  0
  1  3  1  0
  1  4  1  0
  5  6  1  0
  5  7  1  0
  8  9  1  0
  8 10  1  0
  8 11  1  0
 12 16  1  0
 16 17  2  0
 17 19  1  0
 19 21  2  0
 21 23  1  0
 23 25  2  0
 25 16  1  0
 12 13  1  0
 12 14  1  0
 12 15  1  0
 17 18  1  0
 19 20  1  0
 21 22  1  0
 23 24  1  0
 25 26  1  0
M  CHG  1   8   1
M  END
>  <PDB_ID>  (1163) 
pdb1s4b

>  <RESIDUE_NAME>  (1163) 
LYS   PHE

>  <FRAG_NAME>  (1163) 
ETAM   MBZ

>  <FRAG_ATOM_NUM>  (1163) 
fragi: 11  fragj: 15

>  <atom.prop.CHAIN_ID>  (1163) 
A A A A A A A A A A A Z Z Z Z Z Z Z Z Z Z Z Z Z Z Z

>  <atom.prop.IS_HEAVY_ATOM>  (1163) 
1 0 0 0 1 0 0 1 0 0 0 1 0 0 0 1 1 0 1 0 1 0 1 0 1 0

>  <DIFUSE_FUNC_ATOM>  (1163) 
n/a

>  <FINAL_SINGLE_POINT_ENERGY>  (1163) 
0

>  <NONCOV_INTER_ENERGY_QM>  (1163) 
0

>  <FF_Energy>  (1163) 
-2.44

>  <QM_Energy>  (1163) 
-8.07

>  <source>  (1163) 
ETAM_MBZ

>  <Index>  (1163) 
11670

$$$$
ETAM-pdb1s4k-A-LYS-56:MBZ-pdb1s4k-B-PHE-111
     RDKit          3D

 26 25  0  0  0  0  0  0  0  0999 V2000
    1.9446   -2.0098    3.9620 C   0  0  0  0  0  0  0  0  0  0  0  0
    2.1233   -1.7302    3.0246 H   0  0  0  0  0  0  0  0  0  0  0  0
    1.6205   -2.9492    3.9875 H   0  0  0  0  0  0  0  0  0  0  0  0
    2.8725   -1.9429    4.5300 H   0  0  0  0  0  0  0  0  0  0  0  0
    0.8609   -1.1062    4.5412 C   0  0  0  0  0  0  0  0  0  0  0  0
    0.6726   -1.3894    5.4853 H   0  0  0  0  0  0  0  0  0  0  0  0
    1.1958   -0.1602    4.5478 H   0  0  0  0  0  0  0  0  0  0  0  0
   -0.4075   -1.1682    3.7513 N   0  0  0  0  0  4  0  0  0  0  0  0
   -1.0230   -0.4467    4.0621 H   0  0  0  0  0  0  0  0  0  0  0  0
   -0.1978   -1.0388    2.7835 H   0  0  0  0  0  0  0  0  0  0  0  0
   -0.8357   -2.0601    3.8878 H   0  0  0  0  0  0  0  0  0  0  0  0
   -0.0024    2.9089    0.0656 C   0  0  0  0  0  0  0  0  0  0  0  0
   -0.5456    3.2462   -0.6851 H   0  0  0  0  0  0  0  0  0  0  0  0
    0.9319    3.2190    0.0093 H   0  0  0  0  0  0  0  0  0  0  0  0
   -0.4292    3.2995    0.9894 H   0  0  0  0  0  0  0  0  0  0  0  0
    0.0003    1.4073    0.0011 C   0  0  0  0  0  0  0  0  0  0  0  0
   -1.1999    0.6960   -0.0009 C   0  0  0  0  0  0  0  0  0  0  0  0
   -2.0657    1.1830   -0.0043 H   0  0  0  0  0  0  0  0  0  0  0  0
   -1.2051   -0.7052    0.0000 C   0  0  0  0  0  0  0  0  0  0  0  0
   -2.0800   -1.1953    0.0013 H   0  0  0  0  0  0  0  0  0  0  0  0
    0.0019   -1.4019    0.0008 C   0  0  0  0  0  0  0  0  0  0  0  0
    0.0011   -2.3973    0.0012 H   0  0  0  0  0  0  0  0  0  0  0  0
    1.2051   -0.6979   -0.0000 C   0  0  0  0  0  0  0  0  0  0  0  0
    2.0871   -1.1906    0.0013 H   0  0  0  0  0  0  0  0  0  0  0  0
    1.1976    0.7018   -0.0010 C   0  0  0  0  0  0  0  0  0  0  0  0
    2.0665    1.1953   -0.0042 H   0  0  0  0  0  0  0  0  0  0  0  0
  1  5  1  0
  5  8  1  0
  1  2  1  0
  1  3  1  0
  1  4  1  0
  5  6  1  0
  5  7  1  0
  8  9  1  0
  8 10  1  0
  8 11  1  0
 12 16  1  0
 16 17  2  0
 17 19  1  0
 19 21  2  0
 21 23  1  0
 23 25  2  0
 25 16  1  0
 12 13  1  0
 12 14  1  0
 12 15  1  0
 17 18  1  0
 19 20  1  0
 21 22  1  0
 23 24  1  0
 25 26  1  0
M  CHG  1   8   1
M  END
>  <PDB_ID>  (1164) 
pdb1s4k

>  <RESIDUE_NAME>  (1164) 
LYS   PHE

>  <FRAG_NAME>  (1164) 
ETAM   MBZ

>  <FRAG_ATOM_NUM>  (1164) 
fragi: 11  fragj: 15

>  <atom.prop.CHAIN_ID>  (1164) 
A A A A A A A A A A A Z Z Z Z Z Z Z Z Z Z Z Z Z Z Z

>  <atom.prop.IS_HEAVY_ATOM>  (1164) 
1 0 0 0 1 0 0 1 0 0 0 1 0 0 0 1 1 0 1 0 1 0 1 0 1 0

>  <DIFUSE_FUNC_ATOM>  (1164) 
n/a

>  <FINAL_SINGLE_POINT_ENERGY>  (1164) 
0

>  <NONCOV_INTER_ENERGY_QM>  (1164) 
0

>  <FF_Energy>  (1164) 
-6.19

>  <QM_Energy>  (1164) 
-12.12

>  <source>  (1164) 
ETAM_MBZ

>  <Index>  (1164) 
11674

$$$$
ETAM-pdb1s6y-A-LYS-47:MBZ-pdb1s6y-A-PHE-293
     RDKit          3D

 26 25  0  0  0  0  0  0  0  0999 V2000
    1.1928   -3.0001    3.7321 C   0  0  0  0  0  0  0  0  0  0  0  0
    2.0898   -2.6910    4.0411 H   0  0  0  0  0  0  0  0  0  0  0  0
    0.8032   -3.6315    4.3995 H   0  0  0  0  0  0  0  0  0  0  0  0
    0.5364   -2.1341    3.6458 H   0  0  0  0  0  0  0  0  0  0  0  0
    1.3616   -3.7343    2.4100 C   0  0  0  0  0  0  0  0  0  0  0  0
    1.6817   -4.6630    2.5937 H   0  0  0  0  0  0  0  0  0  0  0  0
    0.4778   -3.7711    1.9451 H   0  0  0  0  0  0  0  0  0  0  0  0
    2.3454   -3.0364    1.5446 N   0  0  0  0  0  4  0  0  0  0  0  0
    2.1629   -3.2575    0.5861 H   0  0  0  0  0  0  0  0  0  0  0  0
    2.2665   -2.0488    1.6790 H   0  0  0  0  0  0  0  0  0  0  0  0
    3.2703   -3.3329    1.7847 H   0  0  0  0  0  0  0  0  0  0  0  0
    0.0075    2.8920   -0.0033 C   0  0  0  0  0  0  0  0  0  0  0  0
    0.9475    3.1962    0.0304 H   0  0  0  0  0  0  0  0  0  0  0  0
   -0.4984    3.2017    0.7881 H   0  0  0  0  0  0  0  0  0  0  0  0
   -0.4539    3.3333   -0.8868 H   0  0  0  0  0  0  0  0  0  0  0  0
    0.0014    1.3948   -0.0050 C   0  0  0  0  0  0  0  0  0  0  0  0
   -1.1927    0.6922    0.0074 C   0  0  0  0  0  0  0  0  0  0  0  0
   -2.0595    1.1839    0.0207 H   0  0  0  0  0  0  0  0  0  0  0  0
   -1.1989   -0.6960    0.0000 C   0  0  0  0  0  0  0  0  0  0  0  0
   -2.0780   -1.1872   -0.0030 H   0  0  0  0  0  0  0  0  0  0  0  0
   -0.0041   -1.3894   -0.0020 C   0  0  0  0  0  0  0  0  0  0  0  0
   -0.0026   -2.3877   -0.0054 H   0  0  0  0  0  0  0  0  0  0  0  0
    1.1989   -0.6887   -0.0000 C   0  0  0  0  0  0  0  0  0  0  0  0
    2.0787   -1.1954    0.0035 H   0  0  0  0  0  0  0  0  0  0  0  0
    1.1955    0.6871   -0.0004 C   0  0  0  0  0  0  0  0  0  0  0  0
    2.0633    1.1889    0.0021 H   0  0  0  0  0  0  0  0  0  0  0  0
  1  5  1  0
  5  8  1  0
  1  2  1  0
  1  3  1  0
  1  4  1  0
  5  6  1  0
  5  7  1  0
  8  9  1  0
  8 10  1  0
  8 11  1  0
 12 16  1  0
 16 17  2  0
 17 19  1  0
 19 21  2  0
 21 23  1  0
 23 25  2  0
 25 16  1  0
 12 13  1  0
 12 14  1  0
 12 15  1  0
 17 18  1  0
 19 20  1  0
 21 22  1  0
 23 24  1  0
 25 26  1  0
M  CHG  1   8   1
M  END
>  <PDB_ID>  (1165) 
pdb1s6y

>  <RESIDUE_NAME>  (1165) 
LYS   PHE

>  <FRAG_NAME>  (1165) 
ETAM   MBZ

>  <FRAG_ATOM_NUM>  (1165) 
fragi: 11  fragj: 15

>  <atom.prop.CHAIN_ID>  (1165) 
A A A A A A A A A A A Z Z Z Z Z Z Z Z Z Z Z Z Z Z Z

>  <atom.prop.IS_HEAVY_ATOM>  (1165) 
1 0 0 0 1 0 0 1 0 0 0 1 0 0 0 1 1 0 1 0 1 0 1 0 1 0

>  <DIFUSE_FUNC_ATOM>  (1165) 
n/a

>  <FINAL_SINGLE_POINT_ENERGY>  (1165) 
0

>  <NONCOV_INTER_ENERGY_QM>  (1165) 
0

>  <FF_Energy>  (1165) 
2.49

>  <QM_Energy>  (1165) 
-6.09

>  <source>  (1165) 
ETAM_MBZ

>  <Index>  (1165) 
11688

$$$$
ETAM-pdb1s7h-D-LYS-63:MBZ-pdb1s7h-D-PHE-164
     RDKit          3D

 26 25  0  0  0  0  0  0  0  0999 V2000
    1.2408    2.8537    2.6987 C   0  0  0  0  0  0  0  0  0  0  0  0
    1.7721    3.1202    1.9008 H   0  0  0  0  0  0  0  0  0  0  0  0
    0.3359    3.2651    2.6661 H   0  0  0  0  0  0  0  0  0  0  0  0
    1.1410    1.7684    2.7143 H   0  0  0  0  0  0  0  0  0  0  0  0
    1.9496    3.3415    3.9366 C   0  0  0  0  0  0  0  0  0  0  0  0
    1.3885    3.1460    4.7365 H   0  0  0  0  0  0  0  0  0  0  0  0
    2.8295    2.8802    4.0168 H   0  0  0  0  0  0  0  0  0  0  0  0
    2.1729    4.8066    3.8413 N   0  0  0  0  0  4  0  0  0  0  0  0
    2.4753    5.1557    4.7289 H   0  0  0  0  0  0  0  0  0  0  0  0
    2.8746    4.9922    3.1535 H   0  0  0  0  0  0  0  0  0  0  0  0
    1.3197    5.2570    3.5786 H   0  0  0  0  0  0  0  0  0  0  0  0
    0.0011    2.9162   -0.0155 C   0  0  0  0  0  0  0  0  0  0  0  0
    0.8675    3.2225    0.3438 H   0  0  0  0  0  0  0  0  0  0  0  0
   -0.7538    3.2269    0.5402 H   0  0  0  0  0  0  0  0  0  0  0  0
   -0.1190    3.3414   -1.0120 H   0  0  0  0  0  0  0  0  0  0  0  0
   -0.0003    1.4080    0.0004 C   0  0  0  0  0  0  0  0  0  0  0  0
   -1.1998    0.7014   -0.0008 C   0  0  0  0  0  0  0  0  0  0  0  0
   -2.0659    1.1865   -0.0038 H   0  0  0  0  0  0  0  0  0  0  0  0
   -1.2020   -0.6994   -0.0000 C   0  0  0  0  0  0  0  0  0  0  0  0
   -2.0778   -1.1910    0.0016 H   0  0  0  0  0  0  0  0  0  0  0  0
    0.0043   -1.3996    0.0003 C   0  0  0  0  0  0  0  0  0  0  0  0
   -0.0044   -2.3972   -0.0000 H   0  0  0  0  0  0  0  0  0  0  0  0
    1.2020   -0.7050    0.0000 C   0  0  0  0  0  0  0  0  0  0  0  0
    2.0853   -1.1965    0.0011 H   0  0  0  0  0  0  0  0  0  0  0  0
    1.1958    0.6947    0.0000 C   0  0  0  0  0  0  0  0  0  0  0  0
    2.0662    1.1880   -0.0012 H   0  0  0  0  0  0  0  0  0  0  0  0
  1  5  1  0
  5  8  1  0
  1  2  1  0
  1  3  1  0
  1  4  1  0
  5  6  1  0
  5  7  1  0
  8  9  1  0
  8 10  1  0
  8 11  1  0
 12 16  1  0
 16 17  2  0
 17 19  1  0
 19 21  2  0
 21 23  1  0
 23 25  2  0
 25 16  1  0
 12 13  1  0
 12 14  1  0
 12 15  1  0
 17 18  1  0
 19 20  1  0
 21 22  1  0
 23 24  1  0
 25 26  1  0
M  CHG  1   8   1
M  END
>  <PDB_ID>  (1166) 
pdb1s7h

>  <RESIDUE_NAME>  (1166) 
LYS   PHE

>  <FRAG_NAME>  (1166) 
ETAM   MBZ

>  <FRAG_ATOM_NUM>  (1166) 
fragi: 11  fragj: 15

>  <atom.prop.CHAIN_ID>  (1166) 
A A A A A A A A A A A Z Z Z Z Z Z Z Z Z Z Z Z Z Z Z

>  <atom.prop.IS_HEAVY_ATOM>  (1166) 
1 0 0 0 1 0 0 1 0 0 0 1 0 0 0 1 1 0 1 0 1 0 1 0 1 0

>  <DIFUSE_FUNC_ATOM>  (1166) 
n/a

>  <FINAL_SINGLE_POINT_ENERGY>  (1166) 
0

>  <NONCOV_INTER_ENERGY_QM>  (1166) 
0

>  <FF_Energy>  (1166) 
5.76

>  <QM_Energy>  (1166) 
0.04

>  <source>  (1166) 
ETAM_MBZ

>  <Index>  (1166) 
11699

$$$$
ETAM-pdb2ydp-C-LYS-81:MBZ-pdb2ydp-C-PHE-25
     RDKit          3D

 26 25  0  0  0  0  0  0  0  0999 V2000
    1.6086    1.9787   -3.1037 C   0  0  0  0  0  0  0  0  0  0  0  0
    1.0916    2.8356   -3.1506 H   0  0  0  0  0  0  0  0  0  0  0  0
    1.1602    1.3567   -2.4598 H   0  0  0  0  0  0  0  0  0  0  0  0
    1.5888    1.5171   -4.0909 H   0  0  0  0  0  0  0  0  0  0  0  0
    3.0217    2.2903   -2.5755 C   0  0  0  0  0  0  0  0  0  0  0  0
    3.5956    2.5805   -3.3520 H   0  0  0  0  0  0  0  0  0  0  0  0
    2.9580    3.0598   -1.9274 H   0  0  0  0  0  0  0  0  0  0  0  0
    3.6772    1.1284   -1.8907 N   0  0  0  0  0  4  0  0  0  0  0  0
    2.9758    0.4714   -1.6207 H   0  0  0  0  0  0  0  0  0  0  0  0
    4.3198    0.6986   -2.5217 H   0  0  0  0  0  0  0  0  0  0  0  0
    4.1625    1.4581   -1.0836 H   0  0  0  0  0  0  0  0  0  0  0  0
   -0.0082    2.8675    0.0142 C   0  0  0  0  0  0  0  0  0  0  0  0
   -0.7336    3.1904   -0.5777 H   0  0  0  0  0  0  0  0  0  0  0  0
    0.8739    3.1958   -0.2928 H   0  0  0  0  0  0  0  0  0  0  0  0
   -0.1854    3.2820    1.0066 H   0  0  0  0  0  0  0  0  0  0  0  0
    0.0007    1.3960   -0.0062 C   0  0  0  0  0  0  0  0  0  0  0  0
   -1.1951    0.6914    0.0017 C   0  0  0  0  0  0  0  0  0  0  0  0
   -2.0631    1.1806    0.0081 H   0  0  0  0  0  0  0  0  0  0  0  0
   -1.2074   -0.7079    0.0000 C   0  0  0  0  0  0  0  0  0  0  0  0
   -2.0805   -1.1940    0.0023 H   0  0  0  0  0  0  0  0  0  0  0  0
   -0.0036   -1.3905   -0.0029 C   0  0  0  0  0  0  0  0  0  0  0  0
    0.0056   -2.3908   -0.0075 H   0  0  0  0  0  0  0  0  0  0  0  0
    1.2074   -0.6863   -0.0000 C   0  0  0  0  0  0  0  0  0  0  0  0
    2.0836   -1.1891   -0.0015 H   0  0  0  0  0  0  0  0  0  0  0  0
    1.1980    0.6973    0.0075 C   0  0  0  0  0  0  0  0  0  0  0  0
    2.0635    1.1990    0.0219 H   0  0  0  0  0  0  0  0  0  0  0  0
  1  5  1  0
  5  8  1  0
  1  2  1  0
  1  3  1  0
  1  4  1  0
  5  6  1  0
  5  7  1  0
  8  9  1  0
  8 10  1  0
  8 11  1  0
 12 16  1  0
 16 17  2  0
 17 19  1  0
 19 21  2  0
 21 23  1  0
 23 25  2  0
 25 16  1  0
 12 13  1  0
 12 14  1  0
 12 15  1  0
 17 18  1  0
 19 20  1  0
 21 22  1  0
 23 24  1  0
 25 26  1  0
M  CHG  1   8   1
M  END
>  <PDB_ID>  (1167) 
pdb2ydp

>  <RESIDUE_NAME>  (1167) 
LYS   PHE

>  <FRAG_NAME>  (1167) 
ETAM   MBZ

>  <FRAG_ATOM_NUM>  (1167) 
fragi: 11  fragj: 15

>  <atom.prop.CHAIN_ID>  (1167) 
A A A A A A A A A A A Z Z Z Z Z Z Z Z Z Z Z Z Z Z Z

>  <atom.prop.IS_HEAVY_ATOM>  (1167) 
1 0 0 0 1 0 0 1 0 0 0 1 0 0 0 1 1 0 1 0 1 0 1 0 1 0

>  <DIFUSE_FUNC_ATOM>  (1167) 
n/a

>  <FINAL_SINGLE_POINT_ENERGY>  (1167) 
0

>  <NONCOV_INTER_ENERGY_QM>  (1167) 
0

>  <FF_Energy>  (1167) 
0.02

>  <QM_Energy>  (1167) 
-7.27

>  <source>  (1167) 
ETAM_MBZ

>  <Index>  (1167) 
11705

$$$$
ETAM-pdb1saz-A-LYS-26:MBZ-pdb1saz-A-PHE-57
     RDKit          3D

 26 25  0  0  0  0  0  0  0  0999 V2000
   -1.2332   -1.9819    3.4123 C   0  0  0  0  0  0  0  0  0  0  0  0
   -0.9772   -2.3460    4.3064 H   0  0  0  0  0  0  0  0  0  0  0  0
   -0.4725   -1.4593    3.0304 H   0  0  0  0  0  0  0  0  0  0  0  0
   -1.4612   -2.8134    2.7453 H   0  0  0  0  0  0  0  0  0  0  0  0
   -2.4194   -1.0373    3.5995 C   0  0  0  0  0  0  0  0  0  0  0  0
   -3.2005   -1.5704    3.9567 H   0  0  0  0  0  0  0  0  0  0  0  0
   -2.1732   -0.3464    4.2950 H   0  0  0  0  0  0  0  0  0  0  0  0
   -2.8297   -0.3468    2.3504 N   0  0  0  0  0  4  0  0  0  0  0  0
   -2.4452   -0.8276    1.5622 H   0  0  0  0  0  0  0  0  0  0  0  0
   -3.8276   -0.3430    2.2841 H   0  0  0  0  0  0  0  0  0  0  0  0
   -2.4923    0.5947    2.3640 H   0  0  0  0  0  0  0  0  0  0  0  0
    0.0058    2.9178   -0.0012 C   0  0  0  0  0  0  0  0  0  0  0  0
   -0.6080    3.2241   -0.7128 H   0  0  0  0  0  0  0  0  0  0  0  0
    0.9321    3.2170   -0.1722 H   0  0  0  0  0  0  0  0  0  0  0  0
   -0.3213    3.3661    0.9369 H   0  0  0  0  0  0  0  0  0  0  0  0
   -0.0013    1.4068    0.0004 C   0  0  0  0  0  0  0  0  0  0  0  0
   -1.1986    0.6985    0.0013 C   0  0  0  0  0  0  0  0  0  0  0  0
   -2.0654    1.1861    0.0019 H   0  0  0  0  0  0  0  0  0  0  0  0
   -1.2024   -0.6967    0.0000 C   0  0  0  0  0  0  0  0  0  0  0  0
   -2.0775   -1.1903    0.0008 H   0  0  0  0  0  0  0  0  0  0  0  0
    0.0033   -1.3979   -0.0009 C   0  0  0  0  0  0  0  0  0  0  0  0
   -0.0062   -2.3963   -0.0025 H   0  0  0  0  0  0  0  0  0  0  0  0
    1.2024   -0.7045    0.0000 C   0  0  0  0  0  0  0  0  0  0  0  0
    2.0853   -1.1972    0.0023 H   0  0  0  0  0  0  0  0  0  0  0  0
    1.1965    0.6939   -0.0007 C   0  0  0  0  0  0  0  0  0  0  0  0
    2.0657    1.1872   -0.0030 H   0  0  0  0  0  0  0  0  0  0  0  0
  1  5  1  0
  5  8  1  0
  1  2  1  0
  1  3  1  0
  1  4  1  0
  5  6  1  0
  5  7  1  0
  8  9  1  0
  8 10  1  0
  8 11  1  0
 12 16  1  0
 16 17  2  0
 17 19  1  0
 19 21  2  0
 21 23  1  0
 23 25  2  0
 25 16  1  0
 12 13  1  0
 12 14  1  0
 12 15  1  0
 17 18  1  0
 19 20  1  0
 21 22  1  0
 23 24  1  0
 25 26  1  0
M  CHG  1   8   1
M  END
>  <PDB_ID>  (1168) 
pdb1saz

>  <RESIDUE_NAME>  (1168) 
LYS   PHE

>  <FRAG_NAME>  (1168) 
ETAM   MBZ

>  <FRAG_ATOM_NUM>  (1168) 
fragi: 11  fragj: 15

>  <atom.prop.CHAIN_ID>  (1168) 
A A A A A A A A A A A Z Z Z Z Z Z Z Z Z Z Z Z Z Z Z

>  <atom.prop.IS_HEAVY_ATOM>  (1168) 
1 0 0 0 1 0 0 1 0 0 0 1 0 0 0 1 1 0 1 0 1 0 1 0 1 0

>  <DIFUSE_FUNC_ATOM>  (1168) 
n/a

>  <FINAL_SINGLE_POINT_ENERGY>  (1168) 
0

>  <NONCOV_INTER_ENERGY_QM>  (1168) 
0

>  <FF_Energy>  (1168) 
-0.07

>  <QM_Energy>  (1168) 
-7.58

>  <source>  (1168) 
ETAM_MBZ

>  <Index>  (1168) 
11757

$$$$
ETAM-pdb1sbb-B-LYS-111:MBZ-pdb1sbb-B-PHE-95
     RDKit          3D

 26 25  0  0  0  0  0  0  0  0999 V2000
    0.1053   -1.2566    3.3262 C   0  0  0  0  0  0  0  0  0  0  0  0
    0.0623   -0.9097    2.3975 H   0  0  0  0  0  0  0  0  0  0  0  0
   -0.7205   -1.7563    3.5549 H   0  0  0  0  0  0  0  0  0  0  0  0
    0.9626   -1.9236    3.4166 H   0  0  0  0  0  0  0  0  0  0  0  0
    0.2414   -0.0832    4.2774 C   0  0  0  0  0  0  0  0  0  0  0  0
   -0.5475    0.5193    4.1722 H   0  0  0  0  0  0  0  0  0  0  0  0
    0.2811   -0.4227    5.2156 H   0  0  0  0  0  0  0  0  0  0  0  0
    1.4892    0.6932    3.9881 N   0  0  0  0  0  4  0  0  0  0  0  0
    1.7502    1.2083    4.8018 H   0  0  0  0  0  0  0  0  0  0  0  0
    2.2190    0.0586    3.7406 H   0  0  0  0  0  0  0  0  0  0  0  0
    1.3158    1.3208    3.2324 H   0  0  0  0  0  0  0  0  0  0  0  0
    0.0098    2.8875   -0.2938 C   0  0  0  0  0  0  0  0  0  0  0  0
   -0.5265    3.0408   -1.1159 H   0  0  0  0  0  0  0  0  0  0  0  0
    0.9527    3.1649   -0.4363 H   0  0  0  0  0  0  0  0  0  0  0  0
   -0.4046    3.5172    0.4934 H   0  0  0  0  0  0  0  0  0  0  0  0
    0.0021    1.4048   -0.0053 C   0  0  0  0  0  0  0  0  0  0  0  0
   -1.1958    0.6874    0.0070 C   0  0  0  0  0  0  0  0  0  0  0  0
   -2.0628    1.1795    0.0192 H   0  0  0  0  0  0  0  0  0  0  0  0
   -1.1970   -0.6977    0.0000 C   0  0  0  0  0  0  0  0  0  0  0  0
   -2.0764   -1.1927    0.0035 H   0  0  0  0  0  0  0  0  0  0  0  0
   -0.0031   -1.3904   -0.0091 C   0  0  0  0  0  0  0  0  0  0  0  0
   -0.0058   -2.3910   -0.0228 H   0  0  0  0  0  0  0  0  0  0  0  0
    1.1970   -0.6974    0.0000 C   0  0  0  0  0  0  0  0  0  0  0  0
    2.0789   -1.1970    0.0025 H   0  0  0  0  0  0  0  0  0  0  0  0
    1.1968    0.6933    0.0074 C   0  0  0  0  0  0  0  0  0  0  0  0
    2.0665    1.1870    0.0209 H   0  0  0  0  0  0  0  0  0  0  0  0
  1  5  1  0
  5  8  1  0
  1  2  1  0
  1  3  1  0
  1  4  1  0
  5  6  1  0
  5  7  1  0
  8  9  1  0
  8 10  1  0
  8 11  1  0
 12 16  1  0
 16 17  2  0
 17 19  1  0
 19 21  2  0
 21 23  1  0
 23 25  2  0
 25 16  1  0
 12 13  1  0
 12 14  1  0
 12 15  1  0
 17 18  1  0
 19 20  1  0
 21 22  1  0
 23 24  1  0
 25 26  1  0
M  CHG  1   8   1
M  END
>  <PDB_ID>  (1169) 
pdb1sbb

>  <RESIDUE_NAME>  (1169) 
LYS   PHE

>  <FRAG_NAME>  (1169) 
ETAM   MBZ

>  <FRAG_ATOM_NUM>  (1169) 
fragi: 11  fragj: 15

>  <atom.prop.CHAIN_ID>  (1169) 
A A A A A A A A A A A Z Z Z Z Z Z Z Z Z Z Z Z Z Z Z

>  <atom.prop.IS_HEAVY_ATOM>  (1169) 
1 0 0 0 1 0 0 1 0 0 0 1 0 0 0 1 1 0 1 0 1 0 1 0 1 0

>  <DIFUSE_FUNC_ATOM>  (1169) 
n/a

>  <FINAL_SINGLE_POINT_ENERGY>  (1169) 
0

>  <NONCOV_INTER_ENERGY_QM>  (1169) 
0

>  <FF_Energy>  (1169) 
-4.03

>  <QM_Energy>  (1169) 
-9.3

>  <source>  (1169) 
ETAM_MBZ

>  <Index>  (1169) 
11761

$$$$
ETAM-pdb1sbb-D-LYS-111:MBZ-pdb1sbb-D-PHE-95
     RDKit          3D

 26 25  0  0  0  0  0  0  0  0999 V2000
    0.1802   -1.4980    3.1589 C   0  0  0  0  0  0  0  0  0  0  0  0
   -0.0114   -1.2941    2.2011 H   0  0  0  0  0  0  0  0  0  0  0  0
   -0.5483   -2.0671    3.5357 H   0  0  0  0  0  0  0  0  0  0  0  0
    1.1198   -2.0475    3.2176 H   0  0  0  0  0  0  0  0  0  0  0  0
    0.2344   -0.2022    3.9308 C   0  0  0  0  0  0  0  0  0  0  0  0
    0.4157   -0.4004    4.8917 H   0  0  0  0  0  0  0  0  0  0  0  0
    0.9632    0.3700    3.5607 H   0  0  0  0  0  0  0  0  0  0  0  0
   -1.0573    0.5096    3.8115 N   0  0  0  0  0  4  0  0  0  0  0  0
   -0.9120    1.3994    3.3759 H   0  0  0  0  0  0  0  0  0  0  0  0
   -1.6891   -0.0318    3.2555 H   0  0  0  0  0  0  0  0  0  0  0  0
   -1.4508    0.6466    4.7215 H   0  0  0  0  0  0  0  0  0  0  0  0
    0.0030    2.8842   -0.2269 C   0  0  0  0  0  0  0  0  0  0  0  0
   -0.4824    3.0680   -1.0732 H   0  0  0  0  0  0  0  0  0  0  0  0
    0.9478    3.1821   -0.2937 H   0  0  0  0  0  0  0  0  0  0  0  0
   -0.4724    3.4701    0.5598 H   0  0  0  0  0  0  0  0  0  0  0  0
    0.0004    1.3953   -0.0030 C   0  0  0  0  0  0  0  0  0  0  0  0
   -1.1934    0.6772    0.0032 C   0  0  0  0  0  0  0  0  0  0  0  0
   -2.0614    1.1776    0.0093 H   0  0  0  0  0  0  0  0  0  0  0  0
   -1.1964   -0.6896   -0.0000 C   0  0  0  0  0  0  0  0  0  0  0  0
   -2.0729   -1.1942    0.0053 H   0  0  0  0  0  0  0  0  0  0  0  0
    0.0005   -1.3839   -0.0082 C   0  0  0  0  0  0  0  0  0  0  0  0
   -0.0043   -2.3849   -0.0204 H   0  0  0  0  0  0  0  0  0  0  0  0
    1.1964   -0.6919    0.0000 C   0  0  0  0  0  0  0  0  0  0  0  0
    2.0794   -1.1907    0.0014 H   0  0  0  0  0  0  0  0  0  0  0  0
    1.1924    0.6929    0.0080 C   0  0  0  0  0  0  0  0  0  0  0  0
    2.0617    1.1903    0.0207 H   0  0  0  0  0  0  0  0  0  0  0  0
  1  5  1  0
  5  8  1  0
  1  2  1  0
  1  3  1  0
  1  4  1  0
  5  6  1  0
  5  7  1  0
  8  9  1  0
  8 10  1  0
  8 11  1  0
 12 16  1  0
 16 17  2  0
 17 19  1  0
 19 21  2  0
 21 23  1  0
 23 25  2  0
 25 16  1  0
 12 13  1  0
 12 14  1  0
 12 15  1  0
 17 18  1  0
 19 20  1  0
 21 22  1  0
 23 24  1  0
 25 26  1  0
M  CHG  1   8   1
M  END
>  <PDB_ID>  (1170) 
pdb1sbb

>  <RESIDUE_NAME>  (1170) 
LYS   PHE

>  <FRAG_NAME>  (1170) 
ETAM   MBZ

>  <FRAG_ATOM_NUM>  (1170) 
fragi: 11  fragj: 15

>  <atom.prop.CHAIN_ID>  (1170) 
A A A A A A A A A A A Z Z Z Z Z Z Z Z Z Z Z Z Z Z Z

>  <atom.prop.IS_HEAVY_ATOM>  (1170) 
1 0 0 0 1 0 0 1 0 0 0 1 0 0 0 1 1 0 1 0 1 0 1 0 1 0

>  <DIFUSE_FUNC_ATOM>  (1170) 
n/a

>  <FINAL_SINGLE_POINT_ENERGY>  (1170) 
0

>  <NONCOV_INTER_ENERGY_QM>  (1170) 
0

>  <FF_Energy>  (1170) 
-0.47

>  <QM_Energy>  (1170) 
-8.75

>  <source>  (1170) 
ETAM_MBZ

>  <Index>  (1170) 
11764

$$$$
ETAM-pdb2yhf-B-LYS-102:MBZ-pdb2yhf-B-PHE-84
     RDKit          3D

 26 25  0  0  0  0  0  0  0  0999 V2000
    1.6411    0.4988   -5.0365 C   0  0  0  0  0  0  0  0  0  0  0  0
    2.2843    0.8670   -4.3778 H   0  0  0  0  0  0  0  0  0  0  0  0
    0.7279    0.8457   -4.8722 H   0  0  0  0  0  0  0  0  0  0  0  0
    1.9565    0.7870   -6.0392 H   0  0  0  0  0  0  0  0  0  0  0  0
    1.6151   -1.0199   -4.8935 C   0  0  0  0  0  0  0  0  0  0  0  0
    0.9084   -1.3902   -5.5082 H   0  0  0  0  0  0  0  0  0  0  0  0
    2.5084   -1.3877   -5.1807 H   0  0  0  0  0  0  0  0  0  0  0  0
    1.3309   -1.4671   -3.4987 N   0  0  0  0  0  4  0  0  0  0  0  0
    0.5589   -0.9469   -3.1368 H   0  0  0  0  0  0  0  0  0  0  0  0
    1.1081   -2.4409   -3.5039 H   0  0  0  0  0  0  0  0  0  0  0  0
    2.1378   -1.3100   -2.9308 H   0  0  0  0  0  0  0  0  0  0  0  0
    0.0053    2.9204    0.0003 C   0  0  0  0  0  0  0  0  0  0  0  0
   -0.6618    3.2209   -0.6640 H   0  0  0  0  0  0  0  0  0  0  0  0
    0.9156    3.2178   -0.2408 H   0  0  0  0  0  0  0  0  0  0  0  0
   -0.2514    3.3667    0.9610 H   0  0  0  0  0  0  0  0  0  0  0  0
    0.0016    1.4043    0.0031 C   0  0  0  0  0  0  0  0  0  0  0  0
   -1.1994    0.6973   -0.0052 C   0  0  0  0  0  0  0  0  0  0  0  0
   -2.0635    1.1858   -0.0162 H   0  0  0  0  0  0  0  0  0  0  0  0
   -1.2009   -0.6981    0.0000 C   0  0  0  0  0  0  0  0  0  0  0  0
   -2.0783   -1.1912    0.0054 H   0  0  0  0  0  0  0  0  0  0  0  0
    0.0007   -1.3937   -0.0001 C   0  0  0  0  0  0  0  0  0  0  0  0
   -0.0052   -2.3937   -0.0013 H   0  0  0  0  0  0  0  0  0  0  0  0
    1.2009   -0.7010   -0.0000 C   0  0  0  0  0  0  0  0  0  0  0  0
    2.0820   -1.1979    0.0002 H   0  0  0  0  0  0  0  0  0  0  0  0
    1.1971    0.6913    0.0022 C   0  0  0  0  0  0  0  0  0  0  0  0
    2.0669    1.1864    0.0031 H   0  0  0  0  0  0  0  0  0  0  0  0
  1  5  1  0
  5  8  1  0
  1  2  1  0
  1  3  1  0
  1  4  1  0
  5  6  1  0
  5  7  1  0
  8  9  1  0
  8 10  1  0
  8 11  1  0
 12 16  1  0
 16 17  2  0
 17 19  1  0
 19 21  2  0
 21 23  1  0
 23 25  2  0
 25 16  1  0
 12 13  1  0
 12 14  1  0
 12 15  1  0
 17 18  1  0
 19 20  1  0
 21 22  1  0
 23 24  1  0
 25 26  1  0
M  CHG  1   8   1
M  END
>  <PDB_ID>  (1171) 
pdb2yhf

>  <RESIDUE_NAME>  (1171) 
LYS   PHE

>  <FRAG_NAME>  (1171) 
ETAM   MBZ

>  <FRAG_ATOM_NUM>  (1171) 
fragi: 11  fragj: 15

>  <atom.prop.CHAIN_ID>  (1171) 
A A A A A A A A A A A Z Z Z Z Z Z Z Z Z Z Z Z Z Z Z

>  <atom.prop.IS_HEAVY_ATOM>  (1171) 
1 0 0 0 1 0 0 1 0 0 0 1 0 0 0 1 1 0 1 0 1 0 1 0 1 0

>  <DIFUSE_FUNC_ATOM>  (1171) 
n/a

>  <FINAL_SINGLE_POINT_ENERGY>  (1171) 
0

>  <NONCOV_INTER_ENERGY_QM>  (1171) 
0

>  <FF_Energy>  (1171) 
-4.76

>  <QM_Energy>  (1171) 
-9.99

>  <source>  (1171) 
ETAM_MBZ

>  <Index>  (1171) 
11768

$$$$
ETAM-pdb2yhf-I-LYS-102:MBZ-pdb2yhf-I-PHE-84
     RDKit          3D

 26 25  0  0  0  0  0  0  0  0999 V2000
    1.7385   -0.3792   -4.3639 C   0  0  0  0  0  0  0  0  0  0  0  0
    2.2618   -1.1066   -3.9356 H   0  0  0  0  0  0  0  0  0  0  0  0
    1.6659    0.4044   -3.7573 H   0  0  0  0  0  0  0  0  0  0  0  0
    2.2466   -0.0720   -5.2779 H   0  0  0  0  0  0  0  0  0  0  0  0
    0.3336   -0.8987   -4.6559 C   0  0  0  0  0  0  0  0  0  0  0  0
   -0.2655   -0.1160   -4.8526 H   0  0  0  0  0  0  0  0  0  0  0  0
    0.3702   -1.4876   -5.4699 H   0  0  0  0  0  0  0  0  0  0  0  0
   -0.2292   -1.6727   -3.5163 N   0  0  0  0  0  4  0  0  0  0  0  0
    0.2203   -1.3903   -2.6695 H   0  0  0  0  0  0  0  0  0  0  0  0
   -1.2113   -1.4967   -3.4489 H   0  0  0  0  0  0  0  0  0  0  0  0
   -0.0733   -2.6480   -3.6688 H   0  0  0  0  0  0  0  0  0  0  0  0
    0.0030    2.9068    0.0035 C   0  0  0  0  0  0  0  0  0  0  0  0
   -0.7077    3.2159   -0.6102 H   0  0  0  0  0  0  0  0  0  0  0  0
    0.8949    3.2123   -0.2955 H   0  0  0  0  0  0  0  0  0  0  0  0
   -0.1883    3.3482    0.9816 H   0  0  0  0  0  0  0  0  0  0  0  0
   -0.0003    1.4032    0.0016 C   0  0  0  0  0  0  0  0  0  0  0  0
   -1.1989    0.6959   -0.0008 C   0  0  0  0  0  0  0  0  0  0  0  0
   -2.0640    1.1856   -0.0039 H   0  0  0  0  0  0  0  0  0  0  0  0
   -1.2036   -0.6970   -0.0000 C   0  0  0  0  0  0  0  0  0  0  0  0
   -2.0783   -1.1909    0.0014 H   0  0  0  0  0  0  0  0  0  0  0  0
    0.0020   -1.3959    0.0008 C   0  0  0  0  0  0  0  0  0  0  0  0
   -0.0044   -2.3945    0.0016 H   0  0  0  0  0  0  0  0  0  0  0  0
    1.2036   -0.7003   -0.0000 C   0  0  0  0  0  0  0  0  0  0  0  0
    2.0841   -1.1956    0.0021 H   0  0  0  0  0  0  0  0  0  0  0  0
    1.1972    0.6941   -0.0017 C   0  0  0  0  0  0  0  0  0  0  0  0
    2.0655    1.1893   -0.0060 H   0  0  0  0  0  0  0  0  0  0  0  0
  1  5  1  0
  5  8  1  0
  1  2  1  0
  1  3  1  0
  1  4  1  0
  5  6  1  0
  5  7  1  0
  8  9  1  0
  8 10  1  0
  8 11  1  0
 12 16  1  0
 16 17  2  0
 17 19  1  0
 19 21  2  0
 21 23  1  0
 23 25  2  0
 25 16  1  0
 12 13  1  0
 12 14  1  0
 12 15  1  0
 17 18  1  0
 19 20  1  0
 21 22  1  0
 23 24  1  0
 25 26  1  0
M  CHG  1   8   1
M  END
>  <PDB_ID>  (1172) 
pdb2yhf

>  <RESIDUE_NAME>  (1172) 
LYS   PHE

>  <FRAG_NAME>  (1172) 
ETAM   MBZ

>  <FRAG_ATOM_NUM>  (1172) 
fragi: 11  fragj: 15

>  <atom.prop.CHAIN_ID>  (1172) 
A A A A A A A A A A A Z Z Z Z Z Z Z Z Z Z Z Z Z Z Z

>  <atom.prop.IS_HEAVY_ATOM>  (1172) 
1 0 0 0 1 0 0 1 0 0 0 1 0 0 0 1 1 0 1 0 1 0 1 0 1 0

>  <DIFUSE_FUNC_ATOM>  (1172) 
n/a

>  <FINAL_SINGLE_POINT_ENERGY>  (1172) 
0

>  <NONCOV_INTER_ENERGY_QM>  (1172) 
0

>  <FF_Energy>  (1172) 
-5.93

>  <QM_Energy>  (1172) 
-12.3

>  <source>  (1172) 
ETAM_MBZ

>  <Index>  (1172) 
11776

$$$$
ETAM-pdb1sef-A-LYS-149:MBZ-pdb1sef-A-PHE-114
     RDKit          3D

 26 25  0  0  0  0  0  0  0  0999 V2000
   -2.3939   -0.5574    3.9324 C   0  0  0  0  0  0  0  0  0  0  0  0
   -1.5266   -0.0695    4.0126 H   0  0  0  0  0  0  0  0  0  0  0  0
   -2.6212   -0.9868    4.8040 H   0  0  0  0  0  0  0  0  0  0  0  0
   -3.1749    0.1607    3.6822 H   0  0  0  0  0  0  0  0  0  0  0  0
   -2.2568   -1.6295    2.8819 C   0  0  0  0  0  0  0  0  0  0  0  0
   -3.1005   -2.1665    2.8447 H   0  0  0  0  0  0  0  0  0  0  0  0
   -2.0986   -1.2017    1.9907 H   0  0  0  0  0  0  0  0  0  0  0  0
   -1.1192   -2.5334    3.1950 N   0  0  0  0  0  4  0  0  0  0  0  0
   -0.4586   -2.0504    3.7704 H   0  0  0  0  0  0  0  0  0  0  0  0
   -1.4587   -3.3391    3.6808 H   0  0  0  0  0  0  0  0  0  0  0  0
   -0.6762   -2.8174    2.3444 H   0  0  0  0  0  0  0  0  0  0  0  0
    0.0060    2.9116   -0.0442 C   0  0  0  0  0  0  0  0  0  0  0  0
    0.0612    3.1877   -0.9925 H   0  0  0  0  0  0  0  0  0  0  0  0
    0.7914    3.2268    0.4678 H   0  0  0  0  0  0  0  0  0  0  0  0
   -0.8820    3.3728    0.3881 H   0  0  0  0  0  0  0  0  0  0  0  0
   -0.0009    1.4045    0.0003 C   0  0  0  0  0  0  0  0  0  0  0  0
   -1.1984    0.6956    0.0006 C   0  0  0  0  0  0  0  0  0  0  0  0
   -2.0657    1.1847    0.0001 H   0  0  0  0  0  0  0  0  0  0  0  0
   -1.2047   -0.6998    0.0000 C   0  0  0  0  0  0  0  0  0  0  0  0
   -2.0783   -1.1932    0.0020 H   0  0  0  0  0  0  0  0  0  0  0  0
    0.0028   -1.3986   -0.0016 C   0  0  0  0  0  0  0  0  0  0  0  0
   -0.0016   -2.3954   -0.0049 H   0  0  0  0  0  0  0  0  0  0  0  0
    1.2047   -0.6982   -0.0000 C   0  0  0  0  0  0  0  0  0  0  0  0
    2.0858   -1.1927    0.0024 H   0  0  0  0  0  0  0  0  0  0  0  0
    1.1965    0.6965    0.0007 C   0  0  0  0  0  0  0  0  0  0  0  0
    2.0650    1.1927    0.0003 H   0  0  0  0  0  0  0  0  0  0  0  0
  1  5  1  0
  5  8  1  0
  1  2  1  0
  1  3  1  0
  1  4  1  0
  5  6  1  0
  5  7  1  0
  8  9  1  0
  8 10  1  0
  8 11  1  0
 12 16  1  0
 16 17  2  0
 17 19  1  0
 19 21  2  0
 21 23  1  0
 23 25  2  0
 25 16  1  0
 12 13  1  0
 12 14  1  0
 12 15  1  0
 17 18  1  0
 19 20  1  0
 21 22  1  0
 23 24  1  0
 25 26  1  0
M  CHG  1   8   1
M  END
>  <PDB_ID>  (1173) 
pdb1sef

>  <RESIDUE_NAME>  (1173) 
LYS   PHE

>  <FRAG_NAME>  (1173) 
ETAM   MBZ

>  <FRAG_ATOM_NUM>  (1173) 
fragi: 11  fragj: 15

>  <atom.prop.CHAIN_ID>  (1173) 
A A A A A A A A A A A Z Z Z Z Z Z Z Z Z Z Z Z Z Z Z

>  <atom.prop.IS_HEAVY_ATOM>  (1173) 
1 0 0 0 1 0 0 1 0 0 0 1 0 0 0 1 1 0 1 0 1 0 1 0 1 0

>  <DIFUSE_FUNC_ATOM>  (1173) 
n/a

>  <FINAL_SINGLE_POINT_ENERGY>  (1173) 
0

>  <NONCOV_INTER_ENERGY_QM>  (1173) 
0

>  <FF_Energy>  (1173) 
2.39

>  <QM_Energy>  (1173) 
-7.74

>  <source>  (1173) 
ETAM_MBZ

>  <Index>  (1173) 
11799

$$$$
ETAM-pdb1sbz-B-LYS-2:MBZ-pdb1sbz-B-PHE-76
     RDKit          3D

 26 25  0  0  0  0  0  0  0  0999 V2000
    0.8821   -3.7462    4.2673 C   0  0  0  0  0  0  0  0  0  0  0  0
    0.0924   -4.2504    4.6086 H   0  0  0  0  0  0  0  0  0  0  0  0
    1.2084   -3.1129    4.9645 H   0  0  0  0  0  0  0  0  0  0  0  0
    1.6775   -4.4561    4.0400 H   0  0  0  0  0  0  0  0  0  0  0  0
    0.4590   -2.9485    3.0450 C   0  0  0  0  0  0  0  0  0  0  0  0
    1.2541   -2.4497    2.6861 H   0  0  0  0  0  0  0  0  0  0  0  0
    0.1308   -3.5815    2.3362 H   0  0  0  0  0  0  0  0  0  0  0  0
   -0.6325   -1.9595    3.3499 N   0  0  0  0  0  4  0  0  0  0  0  0
   -1.0898   -1.7097    2.4997 H   0  0  0  0  0  0  0  0  0  0  0  0
   -1.2845   -2.3796    3.9760 H   0  0  0  0  0  0  0  0  0  0  0  0
   -0.2285   -1.1509    3.7700 H   0  0  0  0  0  0  0  0  0  0  0  0
    0.0039    2.9113    0.0064 C   0  0  0  0  0  0  0  0  0  0  0  0
   -0.7427    3.2217   -0.5628 H   0  0  0  0  0  0  0  0  0  0  0  0
    0.8758    3.2177   -0.3437 H   0  0  0  0  0  0  0  0  0  0  0  0
   -0.1284    3.3535    0.9939 H   0  0  0  0  0  0  0  0  0  0  0  0
    0.0012    1.4064    0.0027 C   0  0  0  0  0  0  0  0  0  0  0  0
   -1.1974    0.6983    0.0006 C   0  0  0  0  0  0  0  0  0  0  0  0
   -2.0638    1.1868   -0.0015 H   0  0  0  0  0  0  0  0  0  0  0  0
   -1.2037   -0.7002   -0.0000 C   0  0  0  0  0  0  0  0  0  0  0  0
   -2.0803   -1.1902    0.0041 H   0  0  0  0  0  0  0  0  0  0  0  0
    0.0006   -1.3992   -0.0044 C   0  0  0  0  0  0  0  0  0  0  0  0
   -0.0039   -2.3957   -0.0114 H   0  0  0  0  0  0  0  0  0  0  0  0
    1.2037   -0.7012    0.0000 C   0  0  0  0  0  0  0  0  0  0  0  0
    2.0845   -1.1953    0.0038 H   0  0  0  0  0  0  0  0  0  0  0  0
    1.1955    0.6959    0.0011 C   0  0  0  0  0  0  0  0  0  0  0  0
    2.0667    1.1900   -0.0003 H   0  0  0  0  0  0  0  0  0  0  0  0
  1  5  1  0
  5  8  1  0
  1  2  1  0
  1  3  1  0
  1  4  1  0
  5  6  1  0
  5  7  1  0
  8  9  1  0
  8 10  1  0
  8 11  1  0
 12 16  1  0
 16 17  2  0
 17 19  1  0
 19 21  2  0
 21 23  1  0
 23 25  2  0
 25 16  1  0
 12 13  1  0
 12 14  1  0
 12 15  1  0
 17 18  1  0
 19 20  1  0
 21 22  1  0
 23 24  1  0
 25 26  1  0
M  CHG  1   8   1
M  END
>  <PDB_ID>  (1174) 
pdb1sbz

>  <RESIDUE_NAME>  (1174) 
LYS   PHE

>  <FRAG_NAME>  (1174) 
ETAM   MBZ

>  <FRAG_ATOM_NUM>  (1174) 
fragi: 11  fragj: 15

>  <atom.prop.CHAIN_ID>  (1174) 
A A A A A A A A A A A Z Z Z Z Z Z Z Z Z Z Z Z Z Z Z

>  <atom.prop.IS_HEAVY_ATOM>  (1174) 
1 0 0 0 1 0 0 1 0 0 0 1 0 0 0 1 1 0 1 0 1 0 1 0 1 0

>  <DIFUSE_FUNC_ATOM>  (1174) 
n/a

>  <FINAL_SINGLE_POINT_ENERGY>  (1174) 
0

>  <NONCOV_INTER_ENERGY_QM>  (1174) 
0

>  <FF_Energy>  (1174) 
-4.96

>  <QM_Energy>  (1174) 
-11.57

>  <source>  (1174) 
ETAM_MBZ

>  <Index>  (1174) 
11802

$$$$
ETAM-pdb1s9p-C-LYS-370:MBZ-pdb1s9p-C-PHE-366
     RDKit          3D

 26 25  0  0  0  0  0  0  0  0999 V2000
   -1.1838   -2.7954    3.0517 C   0  0  0  0  0  0  0  0  0  0  0  0
   -1.4008   -3.6295    3.5479 H   0  0  0  0  0  0  0  0  0  0  0  0
   -1.2473   -2.9472    2.0718 H   0  0  0  0  0  0  0  0  0  0  0  0
   -1.8976   -2.0222    3.3357 H   0  0  0  0  0  0  0  0  0  0  0  0
    0.2535   -2.3915    3.3878 C   0  0  0  0  0  0  0  0  0  0  0  0
    0.4578   -1.5214    2.9327 H   0  0  0  0  0  0  0  0  0  0  0  0
    0.3285   -2.2671    4.3796 H   0  0  0  0  0  0  0  0  0  0  0  0
    1.2386   -3.4206    2.9460 N   0  0  0  0  0  4  0  0  0  0  0  0
    1.0101   -3.7205    2.0209 H   0  0  0  0  0  0  0  0  0  0  0  0
    2.1553   -3.0238    2.9536 H   0  0  0  0  0  0  0  0  0  0  0  0
    1.2047   -4.1998    3.5706 H   0  0  0  0  0  0  0  0  0  0  0  0
    0.0042    2.9050    0.0501 C   0  0  0  0  0  0  0  0  0  0  0  0
   -0.4772    3.2385   -0.7463 H   0  0  0  0  0  0  0  0  0  0  0  0
    0.9440    3.2098    0.0579 H   0  0  0  0  0  0  0  0  0  0  0  0
   -0.4861    3.3165    0.9324 H   0  0  0  0  0  0  0  0  0  0  0  0
    0.0011    1.4029    0.0004 C   0  0  0  0  0  0  0  0  0  0  0  0
   -1.1970    0.6959   -0.0022 C   0  0  0  0  0  0  0  0  0  0  0  0
   -2.0628    1.1882   -0.0070 H   0  0  0  0  0  0  0  0  0  0  0  0
   -1.2047   -0.6942   -0.0000 C   0  0  0  0  0  0  0  0  0  0  0  0
   -2.0832   -1.1865    0.0013 H   0  0  0  0  0  0  0  0  0  0  0  0
   -0.0045   -1.3977    0.0030 C   0  0  0  0  0  0  0  0  0  0  0  0
   -0.0106   -2.3945    0.0072 H   0  0  0  0  0  0  0  0  0  0  0  0
    1.2047   -0.7024   -0.0000 C   0  0  0  0  0  0  0  0  0  0  0  0
    2.0821   -1.1994    0.0002 H   0  0  0  0  0  0  0  0  0  0  0  0
    1.2003    0.6954   -0.0012 C   0  0  0  0  0  0  0  0  0  0  0  0
    2.0679    1.1891   -0.0041 H   0  0  0  0  0  0  0  0  0  0  0  0
  1  5  1  0
  5  8  1  0
  1  2  1  0
  1  3  1  0
  1  4  1  0
  5  6  1  0
  5  7  1  0
  8  9  1  0
  8 10  1  0
  8 11  1  0
 12 16  1  0
 16 17  2  0
 17 19  1  0
 19 21  2  0
 21 23  1  0
 23 25  2  0
 25 16  1  0
 12 13  1  0
 12 14  1  0
 12 15  1  0
 17 18  1  0
 19 20  1  0
 21 22  1  0
 23 24  1  0
 25 26  1  0
M  CHG  1   8   1
M  END
>  <PDB_ID>  (1175) 
pdb1s9p

>  <RESIDUE_NAME>  (1175) 
LYS   PHE

>  <FRAG_NAME>  (1175) 
ETAM   MBZ

>  <FRAG_ATOM_NUM>  (1175) 
fragi: 11  fragj: 15

>  <atom.prop.CHAIN_ID>  (1175) 
A A A A A A A A A A A Z Z Z Z Z Z Z Z Z Z Z Z Z Z Z

>  <atom.prop.IS_HEAVY_ATOM>  (1175) 
1 0 0 0 1 0 0 1 0 0 0 1 0 0 0 1 1 0 1 0 1 0 1 0 1 0

>  <DIFUSE_FUNC_ATOM>  (1175) 
n/a

>  <FINAL_SINGLE_POINT_ENERGY>  (1175) 
0

>  <NONCOV_INTER_ENERGY_QM>  (1175) 
0

>  <FF_Energy>  (1175) 
-2.47

>  <QM_Energy>  (1175) 
-7.61

>  <source>  (1175) 
ETAM_MBZ

>  <Index>  (1175) 
11815

$$$$
ETAM-pdb2yjj-A-LYS-150:MBZ-pdb2yjj-A-PHE-154
     RDKit          3D

 26 25  0  0  0  0  0  0  0  0999 V2000
    0.1385   -2.5985   -4.6438 C   0  0  0  0  0  0  0  0  0  0  0  0
   -0.6139   -2.9092   -5.1948 H   0  0  0  0  0  0  0  0  0  0  0  0
    1.0062   -2.7397   -5.0831 H   0  0  0  0  0  0  0  0  0  0  0  0
    0.0137   -1.5289   -4.4752 H   0  0  0  0  0  0  0  0  0  0  0  0
    0.1259   -3.3570   -3.3043 C   0  0  0  0  0  0  0  0  0  0  0  0
   -0.6234   -3.0094   -2.7400 H   0  0  0  0  0  0  0  0  0  0  0  0
   -0.0174   -4.3311   -3.4822 H   0  0  0  0  0  0  0  0  0  0  0  0
    1.4312   -3.1958   -2.5265 N   0  0  0  0  0  4  0  0  0  0  0  0
    1.5023   -3.9448   -1.8781 H   0  0  0  0  0  0  0  0  0  0  0  0
    2.1850   -3.2204   -3.1727 H   0  0  0  0  0  0  0  0  0  0  0  0
    1.4051   -2.3234   -2.0522 H   0  0  0  0  0  0  0  0  0  0  0  0
    0.0453    2.9223    0.0292 C   0  0  0  0  0  0  0  0  0  0  0  0
    0.5619    3.2346   -0.7601 H   0  0  0  0  0  0  0  0  0  0  0  0
    0.4927    3.2038    0.8709 H   0  0  0  0  0  0  0  0  0  0  0  0
   -0.9257    3.4166   -0.0025 H   0  0  0  0  0  0  0  0  0  0  0  0
    0.0069    1.4193   -0.0003 C   0  0  0  0  0  0  0  0  0  0  0  0
   -1.1878    0.7008   -0.0023 C   0  0  0  0  0  0  0  0  0  0  0  0
   -2.0603    1.1914   -0.0066 H   0  0  0  0  0  0  0  0  0  0  0  0
   -1.2112   -0.7063    0.0000 C   0  0  0  0  0  0  0  0  0  0  0  0
   -2.1028   -1.1744    0.0002 H   0  0  0  0  0  0  0  0  0  0  0  0
   -0.0345   -1.4119    0.0033 C   0  0  0  0  0  0  0  0  0  0  0  0
   -0.0235   -2.4048    0.0079 H   0  0  0  0  0  0  0  0  0  0  0  0
    1.2112   -0.7079    0.0000 C   0  0  0  0  0  0  0  0  0  0  0  0
    2.0725   -1.2146    0.0001 H   0  0  0  0  0  0  0  0  0  0  0  0
    1.2154    0.7060   -0.0006 C   0  0  0  0  0  0  0  0  0  0  0  0
    2.0797    1.1919   -0.0027 H   0  0  0  0  0  0  0  0  0  0  0  0
  1  5  1  0
  5  8  1  0
  1  2  1  0
  1  3  1  0
  1  4  1  0
  5  6  1  0
  5  7  1  0
  8  9  1  0
  8 10  1  0
  8 11  1  0
 12 16  1  0
 16 17  2  0
 17 19  1  0
 19 21  2  0
 21 23  1  0
 23 25  2  0
 25 16  1  0
 12 13  1  0
 12 14  1  0
 12 15  1  0
 17 18  1  0
 19 20  1  0
 21 22  1  0
 23 24  1  0
 25 26  1  0
M  CHG  1   8   1
M  END
>  <PDB_ID>  (1176) 
pdb2yjj

>  <RESIDUE_NAME>  (1176) 
LYS   PHE

>  <FRAG_NAME>  (1176) 
ETAM   MBZ

>  <FRAG_ATOM_NUM>  (1176) 
fragi: 11  fragj: 15

>  <atom.prop.CHAIN_ID>  (1176) 
A A A A A A A A A A A Z Z Z Z Z Z Z Z Z Z Z Z Z Z Z

>  <atom.prop.IS_HEAVY_ATOM>  (1176) 
1 0 0 0 1 0 0 1 0 0 0 1 0 0 0 1 1 0 1 0 1 0 1 0 1 0

>  <DIFUSE_FUNC_ATOM>  (1176) 
n/a

>  <FINAL_SINGLE_POINT_ENERGY>  (1176) 
0

>  <NONCOV_INTER_ENERGY_QM>  (1176) 
0

>  <FF_Energy>  (1176) 
-2.3

>  <QM_Energy>  (1176) 
-9.63

>  <source>  (1176) 
ETAM_MBZ

>  <Index>  (1176) 
11832

$$$$
ETAM-pdb1s9h-C-LYS-447:MBZ-pdb1s9h-C-PHE-333
     RDKit          3D

 26 25  0  0  0  0  0  0  0  0999 V2000
   -2.0249   -2.6302   -2.0452 C   0  0  0  0  0  0  0  0  0  0  0  0
   -1.1550   -2.6524   -1.5470 H   0  0  0  0  0  0  0  0  0  0  0  0
   -2.2643   -3.5613   -2.3281 H   0  0  0  0  0  0  0  0  0  0  0  0
   -2.8008   -2.2550   -1.3779 H   0  0  0  0  0  0  0  0  0  0  0  0
   -1.8517   -1.7805   -3.2799 C   0  0  0  0  0  0  0  0  0  0  0  0
   -2.7146   -1.7575   -3.7875 H   0  0  0  0  0  0  0  0  0  0  0  0
   -1.6058   -0.8484   -3.0078 H   0  0  0  0  0  0  0  0  0  0  0  0
   -0.7864   -2.3294   -4.1553 N   0  0  0  0  0  4  0  0  0  0  0  0
   -0.6678   -3.3047   -3.9652 H   0  0  0  0  0  0  0  0  0  0  0  0
   -1.0446   -2.2055   -5.1136 H   0  0  0  0  0  0  0  0  0  0  0  0
    0.0727   -1.8492   -3.9766 H   0  0  0  0  0  0  0  0  0  0  0  0
   -0.0075    2.8933   -0.0246 C   0  0  0  0  0  0  0  0  0  0  0  0
   -0.8169    3.1901   -0.5389 H   0  0  0  0  0  0  0  0  0  0  0  0
    0.8166    3.2019   -0.5084 H   0  0  0  0  0  0  0  0  0  0  0  0
   -0.0291    3.4014    0.9396 H   0  0  0  0  0  0  0  0  0  0  0  0
    0.0022    1.3994   -0.0074 C   0  0  0  0  0  0  0  0  0  0  0  0
   -1.1983    0.6936   -0.0083 C   0  0  0  0  0  0  0  0  0  0  0  0
   -2.0631    1.1951   -0.0166 H   0  0  0  0  0  0  0  0  0  0  0  0
   -1.2194   -0.6924   -0.0000 C   0  0  0  0  0  0  0  0  0  0  0  0
   -2.0886   -1.1844   -0.0112 H   0  0  0  0  0  0  0  0  0  0  0  0
   -0.0073   -1.3906    0.0250 C   0  0  0  0  0  0  0  0  0  0  0  0
   -0.0130   -2.3905    0.0610 H   0  0  0  0  0  0  0  0  0  0  0  0
    1.2194   -0.7014    0.0000 C   0  0  0  0  0  0  0  0  0  0  0  0
    2.0842   -1.2017   -0.0101 H   0  0  0  0  0  0  0  0  0  0  0  0
    1.2034    0.6914   -0.0093 C   0  0  0  0  0  0  0  0  0  0  0  0
    2.0697    1.1933   -0.0184 H   0  0  0  0  0  0  0  0  0  0  0  0
  1  5  1  0
  5  8  1  0
  1  2  1  0
  1  3  1  0
  1  4  1  0
  5  6  1  0
  5  7  1  0
  8  9  1  0
  8 10  1  0
  8 11  1  0
 12 16  1  0
 16 17  2  0
 17 19  1  0
 19 21  2  0
 21 23  1  0
 23 25  2  0
 25 16  1  0
 12 13  1  0
 12 14  1  0
 12 15  1  0
 17 18  1  0
 19 20  1  0
 21 22  1  0
 23 24  1  0
 25 26  1  0
M  CHG  1   8   1
M  END
>  <PDB_ID>  (1177) 
pdb1s9h

>  <RESIDUE_NAME>  (1177) 
LYS   PHE

>  <FRAG_NAME>  (1177) 
ETAM   MBZ

>  <FRAG_ATOM_NUM>  (1177) 
fragi: 11  fragj: 15

>  <atom.prop.CHAIN_ID>  (1177) 
A A A A A A A A A A A Z Z Z Z Z Z Z Z Z Z Z Z Z Z Z

>  <atom.prop.IS_HEAVY_ATOM>  (1177) 
1 0 0 0 1 0 0 1 0 0 0 1 0 0 0 1 1 0 1 0 1 0 1 0 1 0

>  <DIFUSE_FUNC_ATOM>  (1177) 
n/a

>  <FINAL_SINGLE_POINT_ENERGY>  (1177) 
0

>  <NONCOV_INTER_ENERGY_QM>  (1177) 
0

>  <FF_Energy>  (1177) 
7.13

>  <QM_Energy>  (1177) 
-1.54

>  <source>  (1177) 
ETAM_MBZ

>  <Index>  (1177) 
11835

$$$$
ETAM-pdb1sfj-B-LYS-150:MBZ-pdb1sfj-B-PHE-146
     RDKit          3D

 26 25  0  0  0  0  0  0  0  0999 V2000
    0.6099   -2.2815    3.4954 C   0  0  0  0  0  0  0  0  0  0  0  0
    0.9706   -2.9030    4.1820 H   0  0  0  0  0  0  0  0  0  0  0  0
    0.3894   -2.7735    2.6613 H   0  0  0  0  0  0  0  0  0  0  0  0
   -0.2928   -1.8081    3.8813 H   0  0  0  0  0  0  0  0  0  0  0  0
    1.6725   -1.2439    3.1762 C   0  0  0  0  0  0  0  0  0  0  0  0
    1.2866   -0.5639    2.5487 H   0  0  0  0  0  0  0  0  0  0  0  0
    1.9471   -0.7855    4.0249 H   0  0  0  0  0  0  0  0  0  0  0  0
    2.8751   -1.8626    2.5460 N   0  0  0  0  0  4  0  0  0  0  0  0
    2.8444   -1.7118    1.5589 H   0  0  0  0  0  0  0  0  0  0  0  0
    3.6984   -1.4428    2.9254 H   0  0  0  0  0  0  0  0  0  0  0  0
    2.8789   -2.8431    2.7363 H   0  0  0  0  0  0  0  0  0  0  0  0
    0.0043    2.9118   -0.0002 C   0  0  0  0  0  0  0  0  0  0  0  0
   -0.4265    3.2188   -0.8356 H   0  0  0  0  0  0  0  0  0  0  0  0
    0.9434    3.2161    0.0530 H   0  0  0  0  0  0  0  0  0  0  0  0
   -0.5363    3.3567    0.8352 H   0  0  0  0  0  0  0  0  0  0  0  0
    0.0009    1.4059   -0.0002 C   0  0  0  0  0  0  0  0  0  0  0  0
   -1.1961    0.6956   -0.0005 C   0  0  0  0  0  0  0  0  0  0  0  0
   -2.0635    1.1825   -0.0024 H   0  0  0  0  0  0  0  0  0  0  0  0
   -1.1997   -0.7014   -0.0000 C   0  0  0  0  0  0  0  0  0  0  0  0
   -2.0777   -1.1921    0.0009 H   0  0  0  0  0  0  0  0  0  0  0  0
   -0.0003   -1.3966    0.0012 C   0  0  0  0  0  0  0  0  0  0  0  0
   -0.0039   -2.3961    0.0025 H   0  0  0  0  0  0  0  0  0  0  0  0
    1.1997   -0.7006    0.0000 C   0  0  0  0  0  0  0  0  0  0  0  0
    2.0820   -1.1952    0.0010 H   0  0  0  0  0  0  0  0  0  0  0  0
    1.1955    0.6971   -0.0005 C   0  0  0  0  0  0  0  0  0  0  0  0
    2.0651    1.1893   -0.0017 H   0  0  0  0  0  0  0  0  0  0  0  0
  1  5  1  0
  5  8  1  0
  1  2  1  0
  1  3  1  0
  1  4  1  0
  5  6  1  0
  5  7  1  0
  8  9  1  0
  8 10  1  0
  8 11  1  0
 12 16  1  0
 16 17  2  0
 17 19  1  0
 19 21  2  0
 21 23  1  0
 23 25  2  0
 25 16  1  0
 12 13  1  0
 12 14  1  0
 12 15  1  0
 17 18  1  0
 19 20  1  0
 21 22  1  0
 23 24  1  0
 25 26  1  0
M  CHG  1   8   1
M  END
>  <PDB_ID>  (1178) 
pdb1sfj

>  <RESIDUE_NAME>  (1178) 
LYS   PHE

>  <FRAG_NAME>  (1178) 
ETAM   MBZ

>  <FRAG_ATOM_NUM>  (1178) 
fragi: 11  fragj: 15

>  <atom.prop.CHAIN_ID>  (1178) 
A A A A A A A A A A A Z Z Z Z Z Z Z Z Z Z Z Z Z Z Z

>  <atom.prop.IS_HEAVY_ATOM>  (1178) 
1 0 0 0 1 0 0 1 0 0 0 1 0 0 0 1 1 0 1 0 1 0 1 0 1 0

>  <DIFUSE_FUNC_ATOM>  (1178) 
n/a

>  <FINAL_SINGLE_POINT_ENERGY>  (1178) 
0

>  <NONCOV_INTER_ENERGY_QM>  (1178) 
0

>  <FF_Energy>  (1178) 
-1.12

>  <QM_Energy>  (1178) 
-8.53

>  <source>  (1178) 
ETAM_MBZ

>  <Index>  (1178) 
11837

$$$$
ETAM-pdb1s9p-D-LYS-370:MBZ-pdb1s9p-D-PHE-366
     RDKit          3D

 26 25  0  0  0  0  0  0  0  0999 V2000
   -0.8382   -2.4925    3.3576 C   0  0  0  0  0  0  0  0  0  0  0  0
   -0.9470   -3.2481    3.9982 H   0  0  0  0  0  0  0  0  0  0  0  0
   -1.0192   -2.8047    2.4282 H   0  0  0  0  0  0  0  0  0  0  0  0
   -1.5543   -1.7111    3.6120 H   0  0  0  0  0  0  0  0  0  0  0  0
    0.5999   -1.9987    3.4303 C   0  0  0  0  0  0  0  0  0  0  0  0
    0.7022   -1.2017    2.8391 H   0  0  0  0  0  0  0  0  0  0  0  0
    0.8126   -1.7497    4.3730 H   0  0  0  0  0  0  0  0  0  0  0  0
    1.5496   -3.0663    2.9805 N   0  0  0  0  0  4  0  0  0  0  0  0
    1.4048   -3.2449    2.0094 H   0  0  0  0  0  0  0  0  0  0  0  0
    2.4859   -2.7552    3.1309 H   0  0  0  0  0  0  0  0  0  0  0  0
    1.3806   -3.8973    3.5066 H   0  0  0  0  0  0  0  0  0  0  0  0
    0.0056    2.9140   -0.0460 C   0  0  0  0  0  0  0  0  0  0  0  0
   -0.4745    3.1947   -0.8644 H   0  0  0  0  0  0  0  0  0  0  0  0
    0.9483    3.2132   -0.0631 H   0  0  0  0  0  0  0  0  0  0  0  0
   -0.4813    3.3855    0.8076 H   0  0  0  0  0  0  0  0  0  0  0  0
   -0.0000    1.4076   -0.0013 C   0  0  0  0  0  0  0  0  0  0  0  0
   -1.1977    0.6984    0.0019 C   0  0  0  0  0  0  0  0  0  0  0  0
   -2.0643    1.1876    0.0037 H   0  0  0  0  0  0  0  0  0  0  0  0
   -1.2056   -0.6978    0.0000 C   0  0  0  0  0  0  0  0  0  0  0  0
   -2.0818   -1.1885    0.0021 H   0  0  0  0  0  0  0  0  0  0  0  0
   -0.0011   -1.4010   -0.0030 C   0  0  0  0  0  0  0  0  0  0  0  0
   -0.0085   -2.3973   -0.0075 H   0  0  0  0  0  0  0  0  0  0  0  0
    1.2056   -0.7046    0.0000 C   0  0  0  0  0  0  0  0  0  0  0  0
    2.0849   -1.1979    0.0024 H   0  0  0  0  0  0  0  0  0  0  0  0
    1.1988    0.6974    0.0024 C   0  0  0  0  0  0  0  0  0  0  0  0
    2.0673    1.1899    0.0059 H   0  0  0  0  0  0  0  0  0  0  0  0
  1  5  1  0
  5  8  1  0
  1  2  1  0
  1  3  1  0
  1  4  1  0
  5  6  1  0
  5  7  1  0
  8  9  1  0
  8 10  1  0
  8 11  1  0
 12 16  1  0
 16 17  2  0
 17 19  1  0
 19 21  2  0
 21 23  1  0
 23 25  2  0
 25 16  1  0
 12 13  1  0
 12 14  1  0
 12 15  1  0
 17 18  1  0
 19 20  1  0
 21 22  1  0
 23 24  1  0
 25 26  1  0
M  CHG  1   8   1
M  END
>  <PDB_ID>  (1179) 
pdb1s9p

>  <RESIDUE_NAME>  (1179) 
LYS   PHE

>  <FRAG_NAME>  (1179) 
ETAM   MBZ

>  <FRAG_ATOM_NUM>  (1179) 
fragi: 11  fragj: 15

>  <atom.prop.CHAIN_ID>  (1179) 
A A A A A A A A A A A Z Z Z Z Z Z Z Z Z Z Z Z Z Z Z

>  <atom.prop.IS_HEAVY_ATOM>  (1179) 
1 0 0 0 1 0 0 1 0 0 0 1 0 0 0 1 1 0 1 0 1 0 1 0 1 0

>  <DIFUSE_FUNC_ATOM>  (1179) 
n/a

>  <FINAL_SINGLE_POINT_ENERGY>  (1179) 
0

>  <NONCOV_INTER_ENERGY_QM>  (1179) 
0

>  <FF_Energy>  (1179) 
-3.02

>  <QM_Energy>  (1179) 
-8.74

>  <source>  (1179) 
ETAM_MBZ

>  <Index>  (1179) 
11842

$$$$
ETAM-pdb1sfj-A-LYS-153:MBZ-pdb1sfj-A-PHE-149
     RDKit          3D

 26 25  0  0  0  0  0  0  0  0999 V2000
    0.4817   -1.4510    4.6590 C   0  0  0  0  0  0  0  0  0  0  0  0
    0.8116   -2.1351    5.3020 H   0  0  0  0  0  0  0  0  0  0  0  0
   -0.5053   -1.3501    4.7398 H   0  0  0  0  0  0  0  0  0  0  0  0
    0.9540   -0.4958    4.8886 H   0  0  0  0  0  0  0  0  0  0  0  0
    0.8067   -1.9168    3.2468 C   0  0  0  0  0  0  0  0  0  0  0  0
    0.4852   -1.2243    2.5943 H   0  0  0  0  0  0  0  0  0  0  0  0
    1.8031   -2.0080    3.1554 H   0  0  0  0  0  0  0  0  0  0  0  0
    0.1664   -3.2256    2.9238 N   0  0  0  0  0  4  0  0  0  0  0  0
   -0.7506   -3.0630    2.5618 H   0  0  0  0  0  0  0  0  0  0  0  0
    0.7181   -3.7026    2.2405 H   0  0  0  0  0  0  0  0  0  0  0  0
    0.1078   -3.7775    3.7544 H   0  0  0  0  0  0  0  0  0  0  0  0
   -0.0001    2.9021   -0.0327 C   0  0  0  0  0  0  0  0  0  0  0  0
   -0.4662    3.1929   -0.8566 H   0  0  0  0  0  0  0  0  0  0  0  0
    0.9403    3.2108   -0.0262 H   0  0  0  0  0  0  0  0  0  0  0  0
   -0.5065    3.3633    0.8153 H   0  0  0  0  0  0  0  0  0  0  0  0
    0.0009    1.4042   -0.0011 C   0  0  0  0  0  0  0  0  0  0  0  0
   -1.2004    0.6957    0.0009 C   0  0  0  0  0  0  0  0  0  0  0  0
   -2.0654    1.1870    0.0016 H   0  0  0  0  0  0  0  0  0  0  0  0
   -1.2086   -0.7003   -0.0000 C   0  0  0  0  0  0  0  0  0  0  0  0
   -2.0828   -1.1920    0.0009 H   0  0  0  0  0  0  0  0  0  0  0  0
   -0.0015   -1.3978   -0.0007 C   0  0  0  0  0  0  0  0  0  0  0  0
   -0.0037   -2.3951   -0.0022 H   0  0  0  0  0  0  0  0  0  0  0  0
    1.2086   -0.6979    0.0000 C   0  0  0  0  0  0  0  0  0  0  0  0
    2.0857   -1.1964    0.0014 H   0  0  0  0  0  0  0  0  0  0  0  0
    1.2010    0.6962    0.0010 C   0  0  0  0  0  0  0  0  0  0  0  0
    2.0679    1.1936    0.0020 H   0  0  0  0  0  0  0  0  0  0  0  0
  1  5  1  0
  5  8  1  0
  1  2  1  0
  1  3  1  0
  1  4  1  0
  5  6  1  0
  5  7  1  0
  8  9  1  0
  8 10  1  0
  8 11  1  0
 12 16  1  0
 16 17  2  0
 17 19  1  0
 19 21  2  0
 21 23  1  0
 23 25  2  0
 25 16  1  0
 12 13  1  0
 12 14  1  0
 12 15  1  0
 17 18  1  0
 19 20  1  0
 21 22  1  0
 23 24  1  0
 25 26  1  0
M  CHG  1   8   1
M  END
>  <PDB_ID>  (1180) 
pdb1sfj

>  <RESIDUE_NAME>  (1180) 
LYS   PHE

>  <FRAG_NAME>  (1180) 
ETAM   MBZ

>  <FRAG_ATOM_NUM>  (1180) 
fragi: 11  fragj: 15

>  <atom.prop.CHAIN_ID>  (1180) 
A A A A A A A A A A A Z Z Z Z Z Z Z Z Z Z Z Z Z Z Z

>  <atom.prop.IS_HEAVY_ATOM>  (1180) 
1 0 0 0 1 0 0 1 0 0 0 1 0 0 0 1 1 0 1 0 1 0 1 0 1 0

>  <DIFUSE_FUNC_ATOM>  (1180) 
n/a

>  <FINAL_SINGLE_POINT_ENERGY>  (1180) 
0

>  <NONCOV_INTER_ENERGY_QM>  (1180) 
0

>  <FF_Energy>  (1180) 
-2.44

>  <QM_Energy>  (1180) 
-8.45

>  <source>  (1180) 
ETAM_MBZ

>  <Index>  (1180) 
11854

$$$$
ETAM-pdb1sgl-A-LYS-185:MBZ-pdb1sgl-A-PHE-5
     RDKit          3D

 26 25  0  0  0  0  0  0  0  0999 V2000
   -2.5957   -1.6850    3.2702 C   0  0  0  0  0  0  0  0  0  0  0  0
   -2.0690   -2.5261    3.3024 H   0  0  0  0  0  0  0  0  0  0  0  0
   -3.1691   -1.6627    2.4599 H   0  0  0  0  0  0  0  0  0  0  0  0
   -3.2231   -1.6183    4.1590 H   0  0  0  0  0  0  0  0  0  0  0  0
   -1.6244   -0.5133    3.2026 C   0  0  0  0  0  0  0  0  0  0  0  0
   -1.1466   -0.5384    2.3155 H   0  0  0  0  0  0  0  0  0  0  0  0
   -2.1496    0.3465    3.2517 H   0  0  0  0  0  0  0  0  0  0  0  0
   -0.6138   -0.5287    4.2989 N   0  0  0  0  0  4  0  0  0  0  0  0
   -0.1268   -1.4008    4.2861 H   0  0  0  0  0  0  0  0  0  0  0  0
    0.0329    0.2199    4.1622 H   0  0  0  0  0  0  0  0  0  0  0  0
   -1.0774   -0.4163    5.1770 H   0  0  0  0  0  0  0  0  0  0  0  0
    0.0006    2.9129   -0.0212 C   0  0  0  0  0  0  0  0  0  0  0  0
   -0.8641    3.2138   -0.3962 H   0  0  0  0  0  0  0  0  0  0  0  0
    0.7581    3.2105   -0.5827 H   0  0  0  0  0  0  0  0  0  0  0  0
    0.1145    3.3727    0.9606 H   0  0  0  0  0  0  0  0  0  0  0  0
   -0.0001    1.4055   -0.0009 C   0  0  0  0  0  0  0  0  0  0  0  0
   -1.1978    0.6976    0.0009 C   0  0  0  0  0  0  0  0  0  0  0  0
   -2.0649    1.1847    0.0018 H   0  0  0  0  0  0  0  0  0  0  0  0
   -1.2027   -0.7007   -0.0000 C   0  0  0  0  0  0  0  0  0  0  0  0
   -2.0788   -1.1912    0.0011 H   0  0  0  0  0  0  0  0  0  0  0  0
    0.0006   -1.3984   -0.0001 C   0  0  0  0  0  0  0  0  0  0  0  0
   -0.0030   -2.3954   -0.0011 H   0  0  0  0  0  0  0  0  0  0  0  0
    1.2027   -0.6991    0.0000 C   0  0  0  0  0  0  0  0  0  0  0  0
    2.0836   -1.1949    0.0011 H   0  0  0  0  0  0  0  0  0  0  0  0
    1.1972    0.6951    0.0001 C   0  0  0  0  0  0  0  0  0  0  0  0
    2.0656    1.1902   -0.0003 H   0  0  0  0  0  0  0  0  0  0  0  0
  1  5  1  0
  5  8  1  0
  1  2  1  0
  1  3  1  0
  1  4  1  0
  5  6  1  0
  5  7  1  0
  8  9  1  0
  8 10  1  0
  8 11  1  0
 12 16  1  0
 16 17  2  0
 17 19  1  0
 19 21  2  0
 21 23  1  0
 23 25  2  0
 25 16  1  0
 12 13  1  0
 12 14  1  0
 12 15  1  0
 17 18  1  0
 19 20  1  0
 21 22  1  0
 23 24  1  0
 25 26  1  0
M  CHG  1   8   1
M  END
>  <PDB_ID>  (1181) 
pdb1sgl

>  <RESIDUE_NAME>  (1181) 
LYS   PHE

>  <FRAG_NAME>  (1181) 
ETAM   MBZ

>  <FRAG_ATOM_NUM>  (1181) 
fragi: 11  fragj: 15

>  <atom.prop.CHAIN_ID>  (1181) 
A A A A A A A A A A A Z Z Z Z Z Z Z Z Z Z Z Z Z Z Z

>  <atom.prop.IS_HEAVY_ATOM>  (1181) 
1 0 0 0 1 0 0 1 0 0 0 1 0 0 0 1 1 0 1 0 1 0 1 0 1 0

>  <DIFUSE_FUNC_ATOM>  (1181) 
n/a

>  <FINAL_SINGLE_POINT_ENERGY>  (1181) 
0

>  <NONCOV_INTER_ENERGY_QM>  (1181) 
0

>  <FF_Energy>  (1181) 
-1.82

>  <QM_Energy>  (1181) 
-8.08

>  <source>  (1181) 
ETAM_MBZ

>  <Index>  (1181) 
11857

$$$$
ETAM-pdb1sc6-C-LYS-152:MBZ-pdb1sc6-C-PHE-147
     RDKit          3D

 26 25  0  0  0  0  0  0  0  0999 V2000
    2.1407    4.3214   -4.6736 C   0  0  0  0  0  0  0  0  0  0  0  0
    1.4028    3.6809   -4.8522 H   0  0  0  0  0  0  0  0  0  0  0  0
    2.8030    4.3077   -5.4128 H   0  0  0  0  0  0  0  0  0  0  0  0
    1.7312    5.3265   -4.5721 H   0  0  0  0  0  0  0  0  0  0  0  0
    2.8531    3.8807   -3.3876 C   0  0  0  0  0  0  0  0  0  0  0  0
    3.2893    2.9861   -3.5561 H   0  0  0  0  0  0  0  0  0  0  0  0
    3.5837    4.5477   -3.1839 H   0  0  0  0  0  0  0  0  0  0  0  0
    1.9471    3.7721   -2.2147 N   0  0  0  0  0  4  0  0  0  0  0  0
    1.1314    3.2538   -2.4720 H   0  0  0  0  0  0  0  0  0  0  0  0
    2.4208    3.3017   -1.4710 H   0  0  0  0  0  0  0  0  0  0  0  0
    1.6805    4.6877   -1.9138 H   0  0  0  0  0  0  0  0  0  0  0  0
    0.0019    2.9064    0.0110 C   0  0  0  0  0  0  0  0  0  0  0  0
   -0.8334    3.2178   -0.4191 H   0  0  0  0  0  0  0  0  0  0  0  0
    0.7984    3.2160   -0.4892 H   0  0  0  0  0  0  0  0  0  0  0  0
    0.0454    3.3444    1.0081 H   0  0  0  0  0  0  0  0  0  0  0  0
   -0.0003    1.4043   -0.0002 C   0  0  0  0  0  0  0  0  0  0  0  0
   -1.1971    0.6949   -0.0001 C   0  0  0  0  0  0  0  0  0  0  0  0
   -2.0641    1.1838   -0.0009 H   0  0  0  0  0  0  0  0  0  0  0  0
   -1.2037   -0.7001   -0.0000 C   0  0  0  0  0  0  0  0  0  0  0  0
   -2.0797   -1.1909    0.0012 H   0  0  0  0  0  0  0  0  0  0  0  0
   -0.0014   -1.3973    0.0003 C   0  0  0  0  0  0  0  0  0  0  0  0
   -0.0042   -2.3947    0.0006 H   0  0  0  0  0  0  0  0  0  0  0  0
    1.2037   -0.6984    0.0000 C   0  0  0  0  0  0  0  0  0  0  0  0
    2.0839   -1.1955    0.0010 H   0  0  0  0  0  0  0  0  0  0  0  0
    1.1988    0.6967    0.0000 C   0  0  0  0  0  0  0  0  0  0  0  0
    2.0657    1.1921   -0.0011 H   0  0  0  0  0  0  0  0  0  0  0  0
  1  5  1  0
  5  8  1  0
  1  2  1  0
  1  3  1  0
  1  4  1  0
  5  6  1  0
  5  7  1  0
  8  9  1  0
  8 10  1  0
  8 11  1  0
 12 16  1  0
 16 17  2  0
 17 19  1  0
 19 21  2  0
 21 23  1  0
 23 25  2  0
 25 16  1  0
 12 13  1  0
 12 14  1  0
 12 15  1  0
 17 18  1  0
 19 20  1  0
 21 22  1  0
 23 24  1  0
 25 26  1  0
M  CHG  1   8   1
M  END
>  <PDB_ID>  (1182) 
pdb1sc6

>  <RESIDUE_NAME>  (1182) 
LYS   PHE

>  <FRAG_NAME>  (1182) 
ETAM   MBZ

>  <FRAG_ATOM_NUM>  (1182) 
fragi: 11  fragj: 15

>  <atom.prop.CHAIN_ID>  (1182) 
A A A A A A A A A A A Z Z Z Z Z Z Z Z Z Z Z Z Z Z Z

>  <atom.prop.IS_HEAVY_ATOM>  (1182) 
1 0 0 0 1 0 0 1 0 0 0 1 0 0 0 1 1 0 1 0 1 0 1 0 1 0

>  <DIFUSE_FUNC_ATOM>  (1182) 
n/a

>  <FINAL_SINGLE_POINT_ENERGY>  (1182) 
0

>  <NONCOV_INTER_ENERGY_QM>  (1182) 
0

>  <FF_Energy>  (1182) 
6.44

>  <QM_Energy>  (1182) 
-1.19

>  <source>  (1182) 
ETAM_MBZ

>  <Index>  (1182) 
11882

$$$$
ETAM-pdb1sji-A-LYS-54:MBZ-pdb1sji-A-PHE-110
     RDKit          3D

 26 25  0  0  0  0  0  0  0  0999 V2000
   -0.3743    0.3425   -4.6298 C   0  0  0  0  0  0  0  0  0  0  0  0
   -0.1212    1.0704   -5.2448 H   0  0  0  0  0  0  0  0  0  0  0  0
   -0.7051   -0.4488   -5.1163 H   0  0  0  0  0  0  0  0  0  0  0  0
    0.4854    0.0639   -4.0204 H   0  0  0  0  0  0  0  0  0  0  0  0
   -1.4814    0.8455   -3.7178 C   0  0  0  0  0  0  0  0  0  0  0  0
   -1.0740    1.4405   -3.0216 H   0  0  0  0  0  0  0  0  0  0  0  0
   -2.1282    1.3797   -4.2674 H   0  0  0  0  0  0  0  0  0  0  0  0
   -2.1683   -0.2704   -3.0816 N   0  0  0  0  0  4  0  0  0  0  0  0
   -2.2259   -1.0486   -3.7147 H   0  0  0  0  0  0  0  0  0  0  0  0
   -1.6713   -0.5607   -2.2582 H   0  0  0  0  0  0  0  0  0  0  0  0
   -3.0998   -0.0005   -2.8173 H   0  0  0  0  0  0  0  0  0  0  0  0
    0.0064    2.9028    0.1176 C   0  0  0  0  0  0  0  0  0  0  0  0
   -0.8879    3.2263   -0.0880 H   0  0  0  0  0  0  0  0  0  0  0  0
    0.7002    3.2502   -0.4701 H   0  0  0  0  0  0  0  0  0  0  0  0
    0.2450    3.2244    1.1313 H   0  0  0  0  0  0  0  0  0  0  0  0
    0.0038    1.3883    0.0095 C   0  0  0  0  0  0  0  0  0  0  0  0
   -1.2229    0.7027   -0.0049 C   0  0  0  0  0  0  0  0  0  0  0  0
   -2.0676    1.1943   -0.0197 H   0  0  0  0  0  0  0  0  0  0  0  0
   -1.2090   -0.6893   -0.0000 C   0  0  0  0  0  0  0  0  0  0  0  0
   -2.0839   -1.1942    0.0065 H   0  0  0  0  0  0  0  0  0  0  0  0
    0.0003   -1.3931   -0.0015 C   0  0  0  0  0  0  0  0  0  0  0  0
   -0.0089   -2.3905   -0.0038 H   0  0  0  0  0  0  0  0  0  0  0  0
    1.2090   -0.6994    0.0000 C   0  0  0  0  0  0  0  0  0  0  0  0
    2.0866   -1.2070    0.0049 H   0  0  0  0  0  0  0  0  0  0  0  0
    1.2187    0.6908   -0.0031 C   0  0  0  0  0  0  0  0  0  0  0  0
    2.0741    1.1879   -0.0150 H   0  0  0  0  0  0  0  0  0  0  0  0
  1  5  1  0
  5  8  1  0
  1  2  1  0
  1  3  1  0
  1  4  1  0
  5  6  1  0
  5  7  1  0
  8  9  1  0
  8 10  1  0
  8 11  1  0
 12 16  1  0
 16 17  2  0
 17 19  1  0
 19 21  2  0
 21 23  1  0
 23 25  2  0
 25 16  1  0
 12 13  1  0
 12 14  1  0
 12 15  1  0
 17 18  1  0
 19 20  1  0
 21 22  1  0
 23 24  1  0
 25 26  1  0
M  CHG  1   8   1
M  END
>  <PDB_ID>  (1183) 
pdb1sji

>  <RESIDUE_NAME>  (1183) 
LYS   PHE

>  <FRAG_NAME>  (1183) 
ETAM   MBZ

>  <FRAG_ATOM_NUM>  (1183) 
fragi: 11  fragj: 15

>  <atom.prop.CHAIN_ID>  (1183) 
A A A A A A A A A A A Z Z Z Z Z Z Z Z Z Z Z Z Z Z Z

>  <atom.prop.IS_HEAVY_ATOM>  (1183) 
1 0 0 0 1 0 0 1 0 0 0 1 0 0 0 1 1 0 1 0 1 0 1 0 1 0

>  <DIFUSE_FUNC_ATOM>  (1183) 
n/a

>  <FINAL_SINGLE_POINT_ENERGY>  (1183) 
0

>  <NONCOV_INTER_ENERGY_QM>  (1183) 
0

>  <FF_Energy>  (1183) 
-6.07

>  <QM_Energy>  (1183) 
-13.77

>  <source>  (1183) 
ETAM_MBZ

>  <Index>  (1183) 
11896

$$$$
ETAM-pdb1sje-A-GLU-3:MBZ-pdb1sje-B-PHE-18
     RDKit          3D

 26 25  0  0  0  0  0  0  0  0999 V2000
    1.5385   -0.5745    3.1506 C   0  0  0  0  0  0  0  0  0  0  0  0
    0.6922   -0.1672    3.4438 H   0  0  0  0  0  0  0  0  0  0  0  0
    1.4467   -1.0358    2.2859 H   0  0  0  0  0  0  0  0  0  0  0  0
    1.8183   -1.3213    3.8937 H   0  0  0  0  0  0  0  0  0  0  0  0
    2.5619    0.5536    2.9726 C   0  0  0  0  0  0  0  0  0  0  0  0
    2.1645    1.2493    2.3738 H   0  0  0  0  0  0  0  0  0  0  0  0
    2.7865    0.9796    3.9505 H   0  0  0  0  0  0  0  0  0  0  0  0
    3.8140    0.0366    2.3426 N   0  0  0  0  0  4  0  0  0  0  0  0
    4.6002    0.4245    2.8155 H   0  0  0  0  0  0  0  0  0  0  0  0
    3.8302   -0.9561    2.4184 H   0  0  0  0  0  0  0  0  0  0  0  0
    3.8300    0.3039    1.3834 H   0  0  0  0  0  0  0  0  0  0  0  0
    0.0013    2.9174    0.0112 C   0  0  0  0  0  0  0  0  0  0  0  0
   -0.5967    3.2275   -0.7119 H   0  0  0  0  0  0  0  0  0  0  0  0
    0.9303    3.2216   -0.1326 H   0  0  0  0  0  0  0  0  0  0  0  0
   -0.3518    3.3523    0.9462 H   0  0  0  0  0  0  0  0  0  0  0  0
   -0.0001    1.4083   -0.0000 C   0  0  0  0  0  0  0  0  0  0  0  0
   -1.1971    0.6952   -0.0003 C   0  0  0  0  0  0  0  0  0  0  0  0
   -2.0652    1.1820   -0.0023 H   0  0  0  0  0  0  0  0  0  0  0  0
   -1.2011   -0.7027   -0.0000 C   0  0  0  0  0  0  0  0  0  0  0  0
   -2.0770   -1.1942    0.0004 H   0  0  0  0  0  0  0  0  0  0  0  0
    0.0019   -1.3991    0.0010 C   0  0  0  0  0  0  0  0  0  0  0  0
   -0.0016   -2.3970    0.0021 H   0  0  0  0  0  0  0  0  0  0  0  0
    1.2011   -0.7006   -0.0000 C   0  0  0  0  0  0  0  0  0  0  0  0
    2.0847   -1.1922    0.0015 H   0  0  0  0  0  0  0  0  0  0  0  0
    1.1953    0.6989   -0.0007 C   0  0  0  0  0  0  0  0  0  0  0  0
    2.0647    1.1912   -0.0025 H   0  0  0  0  0  0  0  0  0  0  0  0
  1  5  1  0
  5  8  1  0
  1  2  1  0
  1  3  1  0
  1  4  1  0
  5  6  1  0
  5  7  1  0
  8  9  1  0
  8 10  1  0
  8 11  1  0
 12 16  1  0
 16 17  2  0
 17 19  1  0
 19 21  2  0
 21 23  1  0
 23 25  2  0
 25 16  1  0
 12 13  1  0
 12 14  1  0
 12 15  1  0
 17 18  1  0
 19 20  1  0
 21 22  1  0
 23 24  1  0
 25 26  1  0
M  CHG  1   8   1
M  END
>  <PDB_ID>  (1184) 
pdb1sje

>  <RESIDUE_NAME>  (1184) 
GLU   PHE

>  <FRAG_NAME>  (1184) 
ETAM   MBZ

>  <FRAG_ATOM_NUM>  (1184) 
fragi: 11  fragj: 15

>  <atom.prop.CHAIN_ID>  (1184) 
A A A A A A A A A A A Z Z Z Z Z Z Z Z Z Z Z Z Z Z Z

>  <atom.prop.IS_HEAVY_ATOM>  (1184) 
1 0 0 0 1 0 0 1 0 0 0 1 0 0 0 1 1 0 1 0 1 0 1 0 1 0

>  <DIFUSE_FUNC_ATOM>  (1184) 
n/a

>  <FINAL_SINGLE_POINT_ENERGY>  (1184) 
0

>  <NONCOV_INTER_ENERGY_QM>  (1184) 
0

>  <FF_Energy>  (1184) 
1.61

>  <QM_Energy>  (1184) 
-5.91

>  <source>  (1184) 
ETAM_MBZ

>  <Index>  (1184) 
11897

$$$$
ETAM-pdb1sji-A-LYS-182:MBZ-pdb1sji-A-PHE-151
     RDKit          3D

 26 25  0  0  0  0  0  0  0  0999 V2000
    1.8324   -3.8481   -1.1691 C   0  0  0  0  0  0  0  0  0  0  0  0
    1.4793   -2.8894   -1.2001 H   0  0  0  0  0  0  0  0  0  0  0  0
    2.1757   -3.9929   -0.2174 H   0  0  0  0  0  0  0  0  0  0  0  0
    0.9867   -4.5182   -1.3232 H   0  0  0  0  0  0  0  0  0  0  0  0
    3.0670   -3.9243   -2.1291 C   0  0  0  0  0  0  0  0  0  0  0  0
    3.4582   -4.8525   -2.0421 H   0  0  0  0  0  0  0  0  0  0  0  0
    2.7195   -3.8253   -3.0741 H   0  0  0  0  0  0  0  0  0  0  0  0
    4.1017   -2.9120   -1.8622 N   0  0  0  0  0  4  0  0  0  0  0  0
    4.0868   -2.6583   -0.8922 H   0  0  0  0  0  0  0  0  0  0  0  0
    5.0051   -3.2811   -2.0909 H   0  0  0  0  0  0  0  0  0  0  0  0
    3.9299   -2.0952   -2.4182 H   0  0  0  0  0  0  0  0  0  0  0  0
    0.0382    2.8905    0.0335 C   0  0  0  0  0  0  0  0  0  0  0  0
    0.0514    3.2017   -0.9097 H   0  0  0  0  0  0  0  0  0  0  0  0
    0.8748    3.1542    0.4998 H   0  0  0  0  0  0  0  0  0  0  0  0
   -0.8069    3.3535    0.5430 H   0  0  0  0  0  0  0  0  0  0  0  0
   -0.0003    1.3764    0.0047 C   0  0  0  0  0  0  0  0  0  0  0  0
   -1.2023    0.6905   -0.0018 C   0  0  0  0  0  0  0  0  0  0  0  0
   -2.0604    1.1845   -0.0088 H   0  0  0  0  0  0  0  0  0  0  0  0
   -1.1981   -0.6879   -0.0000 C   0  0  0  0  0  0  0  0  0  0  0  0
   -2.0734   -1.1902    0.0027 H   0  0  0  0  0  0  0  0  0  0  0  0
    0.0005   -1.3698   -0.0007 C   0  0  0  0  0  0  0  0  0  0  0  0
   -0.0058   -2.3791   -0.0023 H   0  0  0  0  0  0  0  0  0  0  0  0
    1.1981   -0.6913    0.0000 C   0  0  0  0  0  0  0  0  0  0  0  0
    2.0766   -1.1997    0.0033 H   0  0  0  0  0  0  0  0  0  0  0  0
    1.2021    0.6821   -0.0022 C   0  0  0  0  0  0  0  0  0  0  0  0
    2.0622    1.1850   -0.0092 H   0  0  0  0  0  0  0  0  0  0  0  0
  1  5  1  0
  5  8  1  0
  1  2  1  0
  1  3  1  0
  1  4  1  0
  5  6  1  0
  5  7  1  0
  8  9  1  0
  8 10  1  0
  8 11  1  0
 12 16  1  0
 16 17  2  0
 17 19  1  0
 19 21  2  0
 21 23  1  0
 23 25  2  0
 25 16  1  0
 12 13  1  0
 12 14  1  0
 12 15  1  0
 17 18  1  0
 19 20  1  0
 21 22  1  0
 23 24  1  0
 25 26  1  0
M  CHG  1   8   1
M  END
>  <PDB_ID>  (1185) 
pdb1sji

>  <RESIDUE_NAME>  (1185) 
LYS   PHE

>  <FRAG_NAME>  (1185) 
ETAM   MBZ

>  <FRAG_ATOM_NUM>  (1185) 
fragi: 11  fragj: 15

>  <atom.prop.CHAIN_ID>  (1185) 
A A A A A A A A A A A Z Z Z Z Z Z Z Z Z Z Z Z Z Z Z

>  <atom.prop.IS_HEAVY_ATOM>  (1185) 
1 0 0 0 1 0 0 1 0 0 0 1 0 0 0 1 1 0 1 0 1 0 1 0 1 0

>  <DIFUSE_FUNC_ATOM>  (1185) 
n/a

>  <FINAL_SINGLE_POINT_ENERGY>  (1185) 
0

>  <NONCOV_INTER_ENERGY_QM>  (1185) 
0

>  <FF_Energy>  (1185) 
3.93

>  <QM_Energy>  (1185) 
-1.71

>  <source>  (1185) 
ETAM_MBZ

>  <Index>  (1185) 
11899

$$$$
ETAM-pdb2ynt-A-LYS-40:MBZ-pdb2ynt-A-PHE-58
     RDKit          3D

 26 25  0  0  0  0  0  0  0  0999 V2000
   -1.0032   -0.7152   -4.0683 C   0  0  0  0  0  0  0  0  0  0  0  0
   -1.6534   -1.4203   -3.7832 H   0  0  0  0  0  0  0  0  0  0  0  0
   -0.8649   -0.7711   -5.0580 H   0  0  0  0  0  0  0  0  0  0  0  0
   -1.4215    0.2622   -3.8278 H   0  0  0  0  0  0  0  0  0  0  0  0
    0.3093   -0.9572   -3.3802 C   0  0  0  0  0  0  0  0  0  0  0  0
    1.0320   -0.4714   -3.8570 H   0  0  0  0  0  0  0  0  0  0  0  0
    0.2528   -0.6586   -2.4349 H   0  0  0  0  0  0  0  0  0  0  0  0
    0.6101   -2.4222   -3.4086 N   0  0  0  0  0  4  0  0  0  0  0  0
   -0.2482   -2.9328   -3.4129 H   0  0  0  0  0  0  0  0  0  0  0  0
    1.1333   -2.6334   -4.2320 H   0  0  0  0  0  0  0  0  0  0  0  0
    1.1427   -2.6635   -2.5991 H   0  0  0  0  0  0  0  0  0  0  0  0
   -0.0010    2.9030    0.0335 C   0  0  0  0  0  0  0  0  0  0  0  0
   -0.8032    3.2200   -0.4423 H   0  0  0  0  0  0  0  0  0  0  0  0
    0.8286    3.2197   -0.3928 H   0  0  0  0  0  0  0  0  0  0  0  0
   -0.0313    3.3092    1.0446 H   0  0  0  0  0  0  0  0  0  0  0  0
   -0.0003    1.4007    0.0005 C   0  0  0  0  0  0  0  0  0  0  0  0
   -1.1975    0.6934   -0.0011 C   0  0  0  0  0  0  0  0  0  0  0  0
   -2.0641    1.1779   -0.0046 H   0  0  0  0  0  0  0  0  0  0  0  0
   -1.1986   -0.7052    0.0000 C   0  0  0  0  0  0  0  0  0  0  0  0
   -2.0736   -1.1973    0.0043 H   0  0  0  0  0  0  0  0  0  0  0  0
    0.0046   -1.3903   -0.0032 C   0  0  0  0  0  0  0  0  0  0  0  0
    0.0051   -2.3929   -0.0082 H   0  0  0  0  0  0  0  0  0  0  0  0
    1.1986   -0.6941    0.0000 C   0  0  0  0  0  0  0  0  0  0  0  0
    2.0835   -1.1893    0.0015 H   0  0  0  0  0  0  0  0  0  0  0  0
    1.1933    0.6955    0.0038 C   0  0  0  0  0  0  0  0  0  0  0  0
    2.0627    1.1915    0.0079 H   0  0  0  0  0  0  0  0  0  0  0  0
  1  5  1  0
  5  8  1  0
  1  2  1  0
  1  3  1  0
  1  4  1  0
  5  6  1  0
  5  7  1  0
  8  9  1  0
  8 10  1  0
  8 11  1  0
 12 16  1  0
 16 17  2  0
 17 19  1  0
 19 21  2  0
 21 23  1  0
 23 25  2  0
 25 16  1  0
 12 13  1  0
 12 14  1  0
 12 15  1  0
 17 18  1  0
 19 20  1  0
 21 22  1  0
 23 24  1  0
 25 26  1  0
M  CHG  1   8   1
M  END
>  <PDB_ID>  (1186) 
pdb2ynt

>  <RESIDUE_NAME>  (1186) 
LYS   PHE

>  <FRAG_NAME>  (1186) 
ETAM   MBZ

>  <FRAG_ATOM_NUM>  (1186) 
fragi: 11  fragj: 15

>  <atom.prop.CHAIN_ID>  (1186) 
A A A A A A A A A A A Z Z Z Z Z Z Z Z Z Z Z Z Z Z Z

>  <atom.prop.IS_HEAVY_ATOM>  (1186) 
1 0 0 0 1 0 0 1 0 0 0 1 0 0 0 1 1 0 1 0 1 0 1 0 1 0

>  <DIFUSE_FUNC_ATOM>  (1186) 
n/a

>  <FINAL_SINGLE_POINT_ENERGY>  (1186) 
0

>  <NONCOV_INTER_ENERGY_QM>  (1186) 
0

>  <FF_Energy>  (1186) 
-3.64

>  <QM_Energy>  (1186) 
-10.57

>  <source>  (1186) 
ETAM_MBZ

>  <Index>  (1186) 
11903

$$$$
ETAM-pdb2ypy-B-LYS-1138:MBZ-pdb2ypy-B-PHE-1056
     RDKit          3D

 26 25  0  0  0  0  0  0  0  0999 V2000
    2.1792   -1.1177    3.4060 C   0  0  0  0  0  0  0  0  0  0  0  0
    1.6775   -0.2991    3.1567 H   0  0  0  0  0  0  0  0  0  0  0  0
    2.6966   -1.4625    2.6329 H   0  0  0  0  0  0  0  0  0  0  0  0
    2.8681   -0.8773    4.2158 H   0  0  0  0  0  0  0  0  0  0  0  0
    1.1840   -2.1848    3.8378 C   0  0  0  0  0  0  0  0  0  0  0  0
    1.5925   -2.7304    4.5768 H   0  0  0  0  0  0  0  0  0  0  0  0
    0.3575   -1.7346    4.1908 H   0  0  0  0  0  0  0  0  0  0  0  0
    0.8058   -3.0891    2.7160 N   0  0  0  0  0  4  0  0  0  0  0  0
    1.0325   -4.0312    2.9594 H   0  0  0  0  0  0  0  0  0  0  0  0
   -0.1758   -3.0133    2.5465 H   0  0  0  0  0  0  0  0  0  0  0  0
    1.3089   -2.8255    1.8938 H   0  0  0  0  0  0  0  0  0  0  0  0
   -0.0006    2.8925   -0.0045 C   0  0  0  0  0  0  0  0  0  0  0  0
   -0.7802    3.1984   -0.5326 H   0  0  0  0  0  0  0  0  0  0  0  0
    0.8491    3.1996   -0.4092 H   0  0  0  0  0  0  0  0  0  0  0  0
   -0.0759    3.3379    0.9875 H   0  0  0  0  0  0  0  0  0  0  0  0
    0.0001    1.3933    0.0003 C   0  0  0  0  0  0  0  0  0  0  0  0
   -1.1917    0.6862   -0.0000 C   0  0  0  0  0  0  0  0  0  0  0  0
   -2.0592    1.1790   -0.0015 H   0  0  0  0  0  0  0  0  0  0  0  0
   -1.1951   -0.6946    0.0000 C   0  0  0  0  0  0  0  0  0  0  0  0
   -2.0724   -1.1915    0.0009 H   0  0  0  0  0  0  0  0  0  0  0  0
    0.0005   -1.3840    0.0009 C   0  0  0  0  0  0  0  0  0  0  0  0
   -0.0012   -2.3857    0.0020 H   0  0  0  0  0  0  0  0  0  0  0  0
    1.1951   -0.6907   -0.0000 C   0  0  0  0  0  0  0  0  0  0  0  0
    2.0780   -1.1909    0.0019 H   0  0  0  0  0  0  0  0  0  0  0  0
    1.1911    0.6897   -0.0012 C   0  0  0  0  0  0  0  0  0  0  0  0
    2.0602    1.1884   -0.0043 H   0  0  0  0  0  0  0  0  0  0  0  0
  1  5  1  0
  5  8  1  0
  1  2  1  0
  1  3  1  0
  1  4  1  0
  5  6  1  0
  5  7  1  0
  8  9  1  0
  8 10  1  0
  8 11  1  0
 12 16  1  0
 16 17  2  0
 17 19  1  0
 19 21  2  0
 21 23  1  0
 23 25  2  0
 25 16  1  0
 12 13  1  0
 12 14  1  0
 12 15  1  0
 17 18  1  0
 19 20  1  0
 21 22  1  0
 23 24  1  0
 25 26  1  0
M  CHG  1   8   1
M  END
>  <PDB_ID>  (1187) 
pdb2ypy

>  <RESIDUE_NAME>  (1187) 
LYS   PHE

>  <FRAG_NAME>  (1187) 
ETAM   MBZ

>  <FRAG_ATOM_NUM>  (1187) 
fragi: 11  fragj: 15

>  <atom.prop.CHAIN_ID>  (1187) 
A A A A A A A A A A A Z Z Z Z Z Z Z Z Z Z Z Z Z Z Z

>  <atom.prop.IS_HEAVY_ATOM>  (1187) 
1 0 0 0 1 0 0 1 0 0 0 1 0 0 0 1 1 0 1 0 1 0 1 0 1 0

>  <DIFUSE_FUNC_ATOM>  (1187) 
n/a

>  <FINAL_SINGLE_POINT_ENERGY>  (1187) 
0

>  <NONCOV_INTER_ENERGY_QM>  (1187) 
0

>  <FF_Energy>  (1187) 
-2.76

>  <QM_Energy>  (1187) 
-9.11

>  <source>  (1187) 
ETAM_MBZ

>  <Index>  (1187) 
11933

$$$$
ETAM-pdb2ypy-C-LYS-1138:MBZ-pdb2ypy-C-PHE-1056
     RDKit          3D

 26 25  0  0  0  0  0  0  0  0999 V2000
   -2.5176   -1.0941   -3.2726 C   0  0  0  0  0  0  0  0  0  0  0  0
   -1.8995   -0.3461   -3.4780 H   0  0  0  0  0  0  0  0  0  0  0  0
   -2.6727   -1.1639   -2.2952 H   0  0  0  0  0  0  0  0  0  0  0  0
   -3.4703   -0.9117   -3.7698 H   0  0  0  0  0  0  0  0  0  0  0  0
   -1.8907   -2.3912   -3.7600 C   0  0  0  0  0  0  0  0  0  0  0  0
   -2.5627   -3.1324   -3.6624 H   0  0  0  0  0  0  0  0  0  0  0  0
   -1.6611   -2.2946   -4.7345 H   0  0  0  0  0  0  0  0  0  0  0  0
   -0.6614   -2.7434   -3.0013 N   0  0  0  0  0  4  0  0  0  0  0  0
   -0.7297   -3.6865   -2.6772 H   0  0  0  0  0  0  0  0  0  0  0  0
    0.1353   -2.6521   -3.5981 H   0  0  0  0  0  0  0  0  0  0  0  0
   -0.5656   -2.1272   -2.2193 H   0  0  0  0  0  0  0  0  0  0  0  0
    0.0043    2.8888    0.0057 C   0  0  0  0  0  0  0  0  0  0  0  0
    0.8419    3.1943    0.4365 H   0  0  0  0  0  0  0  0  0  0  0  0
   -0.7898    3.1979    0.5097 H   0  0  0  0  0  0  0  0  0  0  0  0
   -0.0391    3.3333   -0.9886 H   0  0  0  0  0  0  0  0  0  0  0  0
    0.0002    1.3928    0.0008 C   0  0  0  0  0  0  0  0  0  0  0  0
   -1.1920    0.6899    0.0006 C   0  0  0  0  0  0  0  0  0  0  0  0
   -2.0591    1.1830   -0.0002 H   0  0  0  0  0  0  0  0  0  0  0  0
   -1.1968   -0.6910   -0.0000 C   0  0  0  0  0  0  0  0  0  0  0  0
   -2.0740   -1.1879    0.0009 H   0  0  0  0  0  0  0  0  0  0  0  0
    0.0002   -1.3845   -0.0007 C   0  0  0  0  0  0  0  0  0  0  0  0
   -0.0054   -2.3861   -0.0027 H   0  0  0  0  0  0  0  0  0  0  0  0
    1.1968   -0.6937    0.0000 C   0  0  0  0  0  0  0  0  0  0  0  0
    2.0780   -1.1947    0.0024 H   0  0  0  0  0  0  0  0  0  0  0  0
    1.1916    0.6866   -0.0007 C   0  0  0  0  0  0  0  0  0  0  0  0
    2.0611    1.1868   -0.0033 H   0  0  0  0  0  0  0  0  0  0  0  0
  1  5  1  0
  5  8  1  0
  1  2  1  0
  1  3  1  0
  1  4  1  0
  5  6  1  0
  5  7  1  0
  8  9  1  0
  8 10  1  0
  8 11  1  0
 12 16  1  0
 16 17  2  0
 17 19  1  0
 19 21  2  0
 21 23  1  0
 23 25  2  0
 25 16  1  0
 12 13  1  0
 12 14  1  0
 12 15  1  0
 17 18  1  0
 19 20  1  0
 21 22  1  0
 23 24  1  0
 25 26  1  0
M  CHG  1   8   1
M  END
>  <PDB_ID>  (1188) 
pdb2ypy

>  <RESIDUE_NAME>  (1188) 
LYS   PHE

>  <FRAG_NAME>  (1188) 
ETAM   MBZ

>  <FRAG_ATOM_NUM>  (1188) 
fragi: 11  fragj: 15

>  <atom.prop.CHAIN_ID>  (1188) 
A A A A A A A A A A A Z Z Z Z Z Z Z Z Z Z Z Z Z Z Z

>  <atom.prop.IS_HEAVY_ATOM>  (1188) 
1 0 0 0 1 0 0 1 0 0 0 1 0 0 0 1 1 0 1 0 1 0 1 0 1 0

>  <DIFUSE_FUNC_ATOM>  (1188) 
n/a

>  <FINAL_SINGLE_POINT_ENERGY>  (1188) 
0

>  <NONCOV_INTER_ENERGY_QM>  (1188) 
0

>  <FF_Energy>  (1188) 
-3.87

>  <QM_Energy>  (1188) 
-10.91

>  <source>  (1188) 
ETAM_MBZ

>  <Index>  (1188) 
11934

$$$$
ETAM-pdb2yqc-A-LYS-320:MBZ-pdb2yqc-A-PHE-330
     RDKit          3D

 26 25  0  0  0  0  0  0  0  0999 V2000
    1.7382    1.9672   -3.5324 C   0  0  0  0  0  0  0  0  0  0  0  0
    2.4818    1.9101   -4.2012 H   0  0  0  0  0  0  0  0  0  0  0  0
    2.1164    1.8852   -2.6096 H   0  0  0  0  0  0  0  0  0  0  0  0
    1.2547    2.9394   -3.6293 H   0  0  0  0  0  0  0  0  0  0  0  0
    0.7852    0.8191   -3.7688 C   0  0  0  0  0  0  0  0  0  0  0  0
    0.0422    0.8656   -3.1008 H   0  0  0  0  0  0  0  0  0  0  0  0
    0.4078    0.8896   -4.6920 H   0  0  0  0  0  0  0  0  0  0  0  0
    1.4867   -0.4830   -3.6278 N   0  0  0  0  0  4  0  0  0  0  0  0
    2.4625   -0.3566   -3.8070 H   0  0  0  0  0  0  0  0  0  0  0  0
    1.3612   -0.8296   -2.6976 H   0  0  0  0  0  0  0  0  0  0  0  0
    1.1089   -1.1377   -4.2814 H   0  0  0  0  0  0  0  0  0  0  0  0
    0.0014    2.9086    0.0123 C   0  0  0  0  0  0  0  0  0  0  0  0
   -0.4466    3.2222   -0.8106 H   0  0  0  0  0  0  0  0  0  0  0  0
    0.9407    3.2145    0.0525 H   0  0  0  0  0  0  0  0  0  0  0  0
   -0.5252    3.3415    0.8628 H   0  0  0  0  0  0  0  0  0  0  0  0
    0.0000    1.4047    0.0002 C   0  0  0  0  0  0  0  0  0  0  0  0
   -1.2027    0.6965   -0.0000 C   0  0  0  0  0  0  0  0  0  0  0  0
   -2.0665    1.1862   -0.0016 H   0  0  0  0  0  0  0  0  0  0  0  0
   -1.2089   -0.7014    0.0000 C   0  0  0  0  0  0  0  0  0  0  0  0
   -2.0796   -1.1956    0.0007 H   0  0  0  0  0  0  0  0  0  0  0  0
    0.0044   -1.3999    0.0012 C   0  0  0  0  0  0  0  0  0  0  0  0
    0.0015   -2.3954    0.0026 H   0  0  0  0  0  0  0  0  0  0  0  0
    1.2089   -0.6958   -0.0000 C   0  0  0  0  0  0  0  0  0  0  0  0
    2.0895   -1.1916    0.0011 H   0  0  0  0  0  0  0  0  0  0  0  0
    1.1983    0.6958   -0.0014 C   0  0  0  0  0  0  0  0  0  0  0  0
    2.0663    1.1952   -0.0048 H   0  0  0  0  0  0  0  0  0  0  0  0
  1  5  1  0
  5  8  1  0
  1  2  1  0
  1  3  1  0
  1  4  1  0
  5  6  1  0
  5  7  1  0
  8  9  1  0
  8 10  1  0
  8 11  1  0
 12 16  1  0
 16 17  2  0
 17 19  1  0
 19 21  2  0
 21 23  1  0
 23 25  2  0
 25 16  1  0
 12 13  1  0
 12 14  1  0
 12 15  1  0
 17 18  1  0
 19 20  1  0
 21 22  1  0
 23 24  1  0
 25 26  1  0
M  CHG  1   8   1
M  END
>  <PDB_ID>  (1189) 
pdb2yqc

>  <RESIDUE_NAME>  (1189) 
LYS   PHE

>  <FRAG_NAME>  (1189) 
ETAM   MBZ

>  <FRAG_ATOM_NUM>  (1189) 
fragi: 11  fragj: 15

>  <atom.prop.CHAIN_ID>  (1189) 
A A A A A A A A A A A Z Z Z Z Z Z Z Z Z Z Z Z Z Z Z

>  <atom.prop.IS_HEAVY_ATOM>  (1189) 
1 0 0 0 1 0 0 1 0 0 0 1 0 0 0 1 1 0 1 0 1 0 1 0 1 0

>  <DIFUSE_FUNC_ATOM>  (1189) 
n/a

>  <FINAL_SINGLE_POINT_ENERGY>  (1189) 
0

>  <NONCOV_INTER_ENERGY_QM>  (1189) 
0

>  <FF_Energy>  (1189) 
-6.96

>  <QM_Energy>  (1189) 
-13.15

>  <source>  (1189) 
ETAM_MBZ

>  <Index>  (1189) 
11941

$$$$
ETAM-pdb2yr1-B-LYS-174:MBZ-pdb2yr1-B-PHE-228
     RDKit          3D

 26 25  0  0  0  0  0  0  0  0999 V2000
   -0.3028   -3.6732   -4.1105 C   0  0  0  0  0  0  0  0  0  0  0  0
   -0.5908   -3.8295   -3.1834 H   0  0  0  0  0  0  0  0  0  0  0  0
    0.3485   -4.3436   -4.4161 H   0  0  0  0  0  0  0  0  0  0  0  0
   -1.1782   -3.7171   -4.7583 H   0  0  0  0  0  0  0  0  0  0  0  0
    0.3435   -2.2806   -4.1987 C   0  0  0  0  0  0  0  0  0  0  0  0
    0.5194   -2.0733   -5.1691 H   0  0  0  0  0  0  0  0  0  0  0  0
   -0.3128   -1.6028   -3.8455 H   0  0  0  0  0  0  0  0  0  0  0  0
    1.6184   -2.1751   -3.4337 N   0  0  0  0  0  4  0  0  0  0  0  0
    2.3304   -2.6939   -3.9050 H   0  0  0  0  0  0  0  0  0  0  0  0
    1.8883   -1.2152   -3.3719 H   0  0  0  0  0  0  0  0  0  0  0  0
    1.4843   -2.5466   -2.5153 H   0  0  0  0  0  0  0  0  0  0  0  0
    0.0160    2.9227    0.0090 C   0  0  0  0  0  0  0  0  0  0  0  0
   -0.1723    3.2329   -0.9112 H   0  0  0  0  0  0  0  0  0  0  0  0
    0.9111    3.2162    0.3108 H   0  0  0  0  0  0  0  0  0  0  0  0
   -0.7223    3.3762    0.6704 H   0  0  0  0  0  0  0  0  0  0  0  0
    0.0020    1.4090    0.0003 C   0  0  0  0  0  0  0  0  0  0  0  0
   -1.1902    0.7029   -0.0029 C   0  0  0  0  0  0  0  0  0  0  0  0
   -2.0595    1.1868   -0.0089 H   0  0  0  0  0  0  0  0  0  0  0  0
   -1.1954   -0.6970    0.0000 C   0  0  0  0  0  0  0  0  0  0  0  0
   -2.0804   -1.1821    0.0021 H   0  0  0  0  0  0  0  0  0  0  0  0
   -0.0056   -1.3990    0.0023 C   0  0  0  0  0  0  0  0  0  0  0  0
   -0.0150   -2.3983    0.0046 H   0  0  0  0  0  0  0  0  0  0  0  0
    1.1954   -0.7114   -0.0000 C   0  0  0  0  0  0  0  0  0  0  0  0
    2.0766   -1.2028   -0.0002 H   0  0  0  0  0  0  0  0  0  0  0  0
    1.1939    0.6955    0.0003 C   0  0  0  0  0  0  0  0  0  0  0  0
    2.0667    1.1815   -0.0006 H   0  0  0  0  0  0  0  0  0  0  0  0
  1  5  1  0
  5  8  1  0
  1  2  1  0
  1  3  1  0
  1  4  1  0
  5  6  1  0
  5  7  1  0
  8  9  1  0
  8 10  1  0
  8 11  1  0
 12 16  1  0
 16 17  2  0
 17 19  1  0
 19 21  2  0
 21 23  1  0
 23 25  2  0
 25 16  1  0
 12 13  1  0
 12 14  1  0
 12 15  1  0
 17 18  1  0
 19 20  1  0
 21 22  1  0
 23 24  1  0
 25 26  1  0
M  CHG  1   8   1
M  END
>  <PDB_ID>  (1190) 
pdb2yr1

>  <RESIDUE_NAME>  (1190) 
LYS   PHE

>  <FRAG_NAME>  (1190) 
ETAM   MBZ

>  <FRAG_ATOM_NUM>  (1190) 
fragi: 11  fragj: 15

>  <atom.prop.CHAIN_ID>  (1190) 
A A A A A A A A A A A Z Z Z Z Z Z Z Z Z Z Z Z Z Z Z

>  <atom.prop.IS_HEAVY_ATOM>  (1190) 
1 0 0 0 1 0 0 1 0 0 0 1 0 0 0 1 1 0 1 0 1 0 1 0 1 0

>  <DIFUSE_FUNC_ATOM>  (1190) 
n/a

>  <FINAL_SINGLE_POINT_ENERGY>  (1190) 
0

>  <NONCOV_INTER_ENERGY_QM>  (1190) 
0

>  <FF_Energy>  (1190) 
-3.39

>  <QM_Energy>  (1190) 
-8.45

>  <source>  (1190) 
ETAM_MBZ

>  <Index>  (1190) 
11944

$$$$
ETAM-pdb1sji-B-LYS-223:MBZ-pdb1sji-B-PHE-170
     RDKit          3D

 26 25  0  0  0  0  0  0  0  0999 V2000
   -3.3915   -3.4363   -0.8188 C   0  0  0  0  0  0  0  0  0  0  0  0
   -4.2220   -3.7388   -0.3612 H   0  0  0  0  0  0  0  0  0  0  0  0
   -3.1958   -2.4883   -0.5891 H   0  0  0  0  0  0  0  0  0  0  0  0
   -2.5560   -4.0668   -0.5146 H   0  0  0  0  0  0  0  0  0  0  0  0
   -3.6427   -3.5077   -2.3438 C   0  0  0  0  0  0  0  0  0  0  0  0
   -3.4369   -4.4572   -2.6433 H   0  0  0  0  0  0  0  0  0  0  0  0
   -4.6372   -3.3603   -2.4982 H   0  0  0  0  0  0  0  0  0  0  0  0
   -2.8687   -2.5551   -3.1413 N   0  0  0  0  0  4  0  0  0  0  0  0
   -2.4003   -1.9026   -2.5387 H   0  0  0  0  0  0  0  0  0  0  0  0
   -2.1831   -3.0428   -3.6892 H   0  0  0  0  0  0  0  0  0  0  0  0
   -3.4771   -2.0483   -3.7586 H   0  0  0  0  0  0  0  0  0  0  0  0
    0.0082    2.8901    0.0134 C   0  0  0  0  0  0  0  0  0  0  0  0
    0.8966    3.1836    0.3398 H   0  0  0  0  0  0  0  0  0  0  0  0
   -0.7114    3.1919    0.6256 H   0  0  0  0  0  0  0  0  0  0  0  0
   -0.1622    3.3527   -0.9588 H   0  0  0  0  0  0  0  0  0  0  0  0
   -0.0008    1.3738    0.0075 C   0  0  0  0  0  0  0  0  0  0  0  0
   -1.1996    0.6795   -0.0007 C   0  0  0  0  0  0  0  0  0  0  0  0
   -2.0606    1.1727   -0.0081 H   0  0  0  0  0  0  0  0  0  0  0  0
   -1.1955   -0.6988    0.0000 C   0  0  0  0  0  0  0  0  0  0  0  0
   -2.0739   -1.1989    0.0055 H   0  0  0  0  0  0  0  0  0  0  0  0
   -0.0037   -1.3769   -0.0053 C   0  0  0  0  0  0  0  0  0  0  0  0
    0.0063   -2.3809   -0.0131 H   0  0  0  0  0  0  0  0  0  0  0  0
    1.1955   -0.6772   -0.0000 C   0  0  0  0  0  0  0  0  0  0  0  0
    2.0784   -1.1876    0.0062 H   0  0  0  0  0  0  0  0  0  0  0  0
    1.2041    0.6996   -0.0016 C   0  0  0  0  0  0  0  0  0  0  0  0
    2.0591    1.1992   -0.0095 H   0  0  0  0  0  0  0  0  0  0  0  0
  1  5  1  0
  5  8  1  0
  1  2  1  0
  1  3  1  0
  1  4  1  0
  5  6  1  0
  5  7  1  0
  8  9  1  0
  8 10  1  0
  8 11  1  0
 12 16  1  0
 16 17  2  0
 17 19  1  0
 19 21  2  0
 21 23  1  0
 23 25  2  0
 25 16  1  0
 12 13  1  0
 12 14  1  0
 12 15  1  0
 17 18  1  0
 19 20  1  0
 21 22  1  0
 23 24  1  0
 25 26  1  0
M  CHG  1   8   1
M  END
>  <PDB_ID>  (1191) 
pdb1sji

>  <RESIDUE_NAME>  (1191) 
LYS   PHE

>  <FRAG_NAME>  (1191) 
ETAM   MBZ

>  <FRAG_ATOM_NUM>  (1191) 
fragi: 11  fragj: 15

>  <atom.prop.CHAIN_ID>  (1191) 
A A A A A A A A A A A Z Z Z Z Z Z Z Z Z Z Z Z Z Z Z

>  <atom.prop.IS_HEAVY_ATOM>  (1191) 
1 0 0 0 1 0 0 1 0 0 0 1 0 0 0 1 1 0 1 0 1 0 1 0 1 0

>  <DIFUSE_FUNC_ATOM>  (1191) 
n/a

>  <FINAL_SINGLE_POINT_ENERGY>  (1191) 
0

>  <NONCOV_INTER_ENERGY_QM>  (1191) 
0

>  <FF_Energy>  (1191) 
1.5

>  <QM_Energy>  (1191) 
-4.45

>  <source>  (1191) 
ETAM_MBZ

>  <Index>  (1191) 
11964

$$$$
ETAM-pdb1sqd-A-LYS-400:MBZ-pdb1sqd-A-PHE-232
     RDKit          3D

 26 25  0  0  0  0  0  0  0  0999 V2000
   -1.7615    4.4084   -2.7357 C   0  0  0  0  0  0  0  0  0  0  0  0
   -2.7210    4.6645   -2.8127 H   0  0  0  0  0  0  0  0  0  0  0  0
   -1.5961    3.9552   -1.8654 H   0  0  0  0  0  0  0  0  0  0  0  0
   -1.5139    3.7218   -3.5453 H   0  0  0  0  0  0  0  0  0  0  0  0
   -0.9171    5.6698   -2.7926 C   0  0  0  0  0  0  0  0  0  0  0  0
    0.0402    5.4301   -2.6076 H   0  0  0  0  0  0  0  0  0  0  0  0
   -0.9786    6.0625   -3.7155 H   0  0  0  0  0  0  0  0  0  0  0  0
   -1.3651    6.6856   -1.8002 N   0  0  0  0  0  4  0  0  0  0  0  0
   -2.2850    6.9957   -2.0366 H   0  0  0  0  0  0  0  0  0  0  0  0
   -1.3729    6.2764   -0.8881 H   0  0  0  0  0  0  0  0  0  0  0  0
   -0.7359    7.4624   -1.8141 H   0  0  0  0  0  0  0  0  0  0  0  0
   -0.0614    2.9092    0.0180 C   0  0  0  0  0  0  0  0  0  0  0  0
   -0.6479    3.2041   -0.7176 H   0  0  0  0  0  0  0  0  0  0  0  0
    0.8557    3.2544   -0.0834 H   0  0  0  0  0  0  0  0  0  0  0  0
   -0.4662    3.3135    0.9458 H   0  0  0  0  0  0  0  0  0  0  0  0
   -0.0006    1.4013   -0.0056 C   0  0  0  0  0  0  0  0  0  0  0  0
   -1.1887    0.6836    0.0020 C   0  0  0  0  0  0  0  0  0  0  0  0
   -2.0605    1.1752    0.0079 H   0  0  0  0  0  0  0  0  0  0  0  0
   -1.1927   -0.6975   -0.0000 C   0  0  0  0  0  0  0  0  0  0  0  0
   -2.0716   -1.1935    0.0019 H   0  0  0  0  0  0  0  0  0  0  0  0
    0.0017   -1.3900   -0.0028 C   0  0  0  0  0  0  0  0  0  0  0  0
    0.0010   -2.3887   -0.0072 H   0  0  0  0  0  0  0  0  0  0  0  0
    1.1927   -0.6900    0.0000 C   0  0  0  0  0  0  0  0  0  0  0  0
    2.0797   -1.1877   -0.0013 H   0  0  0  0  0  0  0  0  0  0  0  0
    1.1876    0.6926    0.0064 C   0  0  0  0  0  0  0  0  0  0  0  0
    2.0599    1.1902    0.0188 H   0  0  0  0  0  0  0  0  0  0  0  0
  1  5  1  0
  5  8  1  0
  1  2  1  0
  1  3  1  0
  1  4  1  0
  5  6  1  0
  5  7  1  0
  8  9  1  0
  8 10  1  0
  8 11  1  0
 12 16  1  0
 16 17  2  0
 17 19  1  0
 19 21  2  0
 21 23  1  0
 23 25  2  0
 25 16  1  0
 12 13  1  0
 12 14  1  0
 12 15  1  0
 17 18  1  0
 19 20  1  0
 21 22  1  0
 23 24  1  0
 25 26  1  0
M  CHG  1   8   1
M  END
>  <PDB_ID>  (1192) 
pdb1sqd

>  <RESIDUE_NAME>  (1192) 
LYS   PHE

>  <FRAG_NAME>  (1192) 
ETAM   MBZ

>  <FRAG_ATOM_NUM>  (1192) 
fragi: 11  fragj: 15

>  <atom.prop.CHAIN_ID>  (1192) 
A A A A A A A A A A A Z Z Z Z Z Z Z Z Z Z Z Z Z Z Z

>  <atom.prop.IS_HEAVY_ATOM>  (1192) 
1 0 0 0 1 0 0 1 0 0 0 1 0 0 0 1 1 0 1 0 1 0 1 0 1 0

>  <DIFUSE_FUNC_ATOM>  (1192) 
n/a

>  <FINAL_SINGLE_POINT_ENERGY>  (1192) 
0

>  <NONCOV_INTER_ENERGY_QM>  (1192) 
0

>  <FF_Energy>  (1192) 
6.66

>  <QM_Energy>  (1192) 
0.51

>  <source>  (1192) 
ETAM_MBZ

>  <Index>  (1192) 
11981

$$$$
ETAM-pdb1sp3-A-LYS-57:MBZ-pdb1sp3-A-PHE-90
     RDKit          3D

 26 25  0  0  0  0  0  0  0  0999 V2000
   -0.9922   -3.7276   -4.2693 C   0  0  0  0  0  0  0  0  0  0  0  0
   -0.1693   -3.2025   -4.1830 H   0  0  0  0  0  0  0  0  0  0  0  0
   -1.4149   -3.6324   -5.1481 H   0  0  0  0  0  0  0  0  0  0  0  0
   -0.7734   -4.7789   -4.0826 H   0  0  0  0  0  0  0  0  0  0  0  0
   -2.0083   -3.2039   -3.1917 C   0  0  0  0  0  0  0  0  0  0  0  0
   -2.8699   -3.6211   -3.3601 H   0  0  0  0  0  0  0  0  0  0  0  0
   -1.6396   -3.3911   -2.3124 H   0  0  0  0  0  0  0  0  0  0  0  0
   -2.0989   -1.7237   -3.4097 N   0  0  0  0  0  4  0  0  0  0  0  0
   -2.7221   -1.3315   -2.7358 H   0  0  0  0  0  0  0  0  0  0  0  0
   -1.1913   -1.3223   -3.3051 H   0  0  0  0  0  0  0  0  0  0  0  0
   -2.4428   -1.5498   -4.3296 H   0  0  0  0  0  0  0  0  0  0  0  0
    0.0420    2.9337   -0.0511 C   0  0  0  0  0  0  0  0  0  0  0  0
   -0.7742    3.2627   -0.4876 H   0  0  0  0  0  0  0  0  0  0  0  0
    0.8580    3.2245   -0.5133 H   0  0  0  0  0  0  0  0  0  0  0  0
    0.0675    3.3571    0.9531 H   0  0  0  0  0  0  0  0  0  0  0  0
    0.0069    1.4309   -0.0471 C   0  0  0  0  0  0  0  0  0  0  0  0
   -1.2229    0.7394   -0.0130 C   0  0  0  0  0  0  0  0  0  0  0  0
   -2.0719    1.2205    0.0005 H   0  0  0  0  0  0  0  0  0  0  0  0
   -1.2272   -0.6925   -0.0000 C   0  0  0  0  0  0  0  0  0  0  0  0
   -2.0980   -1.1781   -0.0215 H   0  0  0  0  0  0  0  0  0  0  0  0
    0.0036   -1.4287    0.0458 C   0  0  0  0  0  0  0  0  0  0  0  0
   -0.0290   -2.4138    0.1085 H   0  0  0  0  0  0  0  0  0  0  0  0
    1.2272   -0.7418    0.0000 C   0  0  0  0  0  0  0  0  0  0  0  0
    2.0965   -1.2216   -0.0406 H   0  0  0  0  0  0  0  0  0  0  0  0
    1.2124    0.6928    0.0143 C   0  0  0  0  0  0  0  0  0  0  0  0
    2.0828    1.1765    0.0692 H   0  0  0  0  0  0  0  0  0  0  0  0
  1  5  1  0
  5  8  1  0
  1  2  1  0
  1  3  1  0
  1  4  1  0
  5  6  1  0
  5  7  1  0
  8  9  1  0
  8 10  1  0
  8 11  1  0
 12 16  1  0
 16 17  2  0
 17 19  1  0
 19 21  2  0
 21 23  1  0
 23 25  2  0
 25 16  1  0
 12 13  1  0
 12 14  1  0
 12 15  1  0
 17 18  1  0
 19 20  1  0
 21 22  1  0
 23 24  1  0
 25 26  1  0
M  CHG  1   8   1
M  END
>  <PDB_ID>  (1193) 
pdb1sp3

>  <RESIDUE_NAME>  (1193) 
LYS   PHE

>  <FRAG_NAME>  (1193) 
ETAM   MBZ

>  <FRAG_ATOM_NUM>  (1193) 
fragi: 11  fragj: 15

>  <atom.prop.CHAIN_ID>  (1193) 
A A A A A A A A A A A Z Z Z Z Z Z Z Z Z Z Z Z Z Z Z

>  <atom.prop.IS_HEAVY_ATOM>  (1193) 
1 0 0 0 1 0 0 1 0 0 0 1 0 0 0 1 1 0 1 0 1 0 1 0 1 0

>  <DIFUSE_FUNC_ATOM>  (1193) 
n/a

>  <FINAL_SINGLE_POINT_ENERGY>  (1193) 
0

>  <NONCOV_INTER_ENERGY_QM>  (1193) 
0

>  <FF_Energy>  (1193) 
-3.44

>  <QM_Energy>  (1193) 
-8.77

>  <source>  (1193) 
ETAM_MBZ

>  <Index>  (1193) 
11982

$$$$
ETAM-pdb1sr8-A-LYS-60:MBZ-pdb1sr8-A-PHE-150
     RDKit          3D

 26 25  0  0  0  0  0  0  0  0999 V2000
   -3.6005    3.0861    0.1724 C   0  0  0  0  0  0  0  0  0  0  0  0
   -4.1143    3.9227    0.0096 H   0  0  0  0  0  0  0  0  0  0  0  0
   -2.6270    3.2477    0.0408 H   0  0  0  0  0  0  0  0  0  0  0  0
   -3.7678    2.7676    1.2013 H   0  0  0  0  0  0  0  0  0  0  0  0
   -4.0571    2.0312   -0.8540 C   0  0  0  0  0  0  0  0  0  0  0  0
   -4.0594    2.4600   -1.7697 H   0  0  0  0  0  0  0  0  0  0  0  0
   -3.3768    1.2845   -0.8647 H   0  0  0  0  0  0  0  0  0  0  0  0
   -5.4079    1.4587   -0.5781 N   0  0  0  0  0  4  0  0  0  0  0  0
   -5.4321    1.1076    0.3566 H   0  0  0  0  0  0  0  0  0  0  0  0
   -6.0969    2.1733   -0.6877 H   0  0  0  0  0  0  0  0  0  0  0  0
   -5.5885    0.7165   -1.2209 H   0  0  0  0  0  0  0  0  0  0  0  0
   -0.0045    2.9078   -0.0737 C   0  0  0  0  0  0  0  0  0  0  0  0
    0.8772    3.2295    0.2258 H   0  0  0  0  0  0  0  0  0  0  0  0
   -0.7319    3.2386    0.5041 H   0  0  0  0  0  0  0  0  0  0  0  0
   -0.1765    3.2853   -1.0816 H   0  0  0  0  0  0  0  0  0  0  0  0
   -0.0000    1.4046   -0.0005 C   0  0  0  0  0  0  0  0  0  0  0  0
   -1.1988    0.6876   -0.0004 C   0  0  0  0  0  0  0  0  0  0  0  0
   -2.0658    1.1808   -0.0022 H   0  0  0  0  0  0  0  0  0  0  0  0
   -1.2063   -0.7025    0.0000 C   0  0  0  0  0  0  0  0  0  0  0  0
   -2.0785   -1.1978    0.0019 H   0  0  0  0  0  0  0  0  0  0  0  0
    0.0013   -1.3961   -0.0008 C   0  0  0  0  0  0  0  0  0  0  0  0
    0.0011   -2.3936   -0.0021 H   0  0  0  0  0  0  0  0  0  0  0  0
    1.2063   -0.6943   -0.0000 C   0  0  0  0  0  0  0  0  0  0  0  0
    2.0863   -1.1895    0.0011 H   0  0  0  0  0  0  0  0  0  0  0  0
    1.1975    0.7006    0.0017 C   0  0  0  0  0  0  0  0  0  0  0  0
    2.0651    1.1973    0.0036 H   0  0  0  0  0  0  0  0  0  0  0  0
  1  5  1  0
  5  8  1  0
  1  2  1  0
  1  3  1  0
  1  4  1  0
  5  6  1  0
  5  7  1  0
  8  9  1  0
  8 10  1  0
  8 11  1  0
 12 16  1  0
 16 17  2  0
 17 19  1  0
 19 21  2  0
 21 23  1  0
 23 25  2  0
 25 16  1  0
 12 13  1  0
 12 14  1  0
 12 15  1  0
 17 18  1  0
 19 20  1  0
 21 22  1  0
 23 24  1  0
 25 26  1  0
M  CHG  1   8   1
M  END
>  <PDB_ID>  (1194) 
pdb1sr8

>  <RESIDUE_NAME>  (1194) 
LYS   PHE

>  <FRAG_NAME>  (1194) 
ETAM   MBZ

>  <FRAG_ATOM_NUM>  (1194) 
fragi: 11  fragj: 15

>  <atom.prop.CHAIN_ID>  (1194) 
A A A A A A A A A A A Z Z Z Z Z Z Z Z Z Z Z Z Z Z Z

>  <atom.prop.IS_HEAVY_ATOM>  (1194) 
1 0 0 0 1 0 0 1 0 0 0 1 0 0 0 1 1 0 1 0 1 0 1 0 1 0

>  <DIFUSE_FUNC_ATOM>  (1194) 
n/a

>  <FINAL_SINGLE_POINT_ENERGY>  (1194) 
0

>  <NONCOV_INTER_ENERGY_QM>  (1194) 
0

>  <FF_Energy>  (1194) 
26.81

>  <QM_Energy>  (1194) 
2.54

>  <source>  (1194) 
ETAM_MBZ

>  <Index>  (1194) 
12019

$$$$
ETAM-pdb1sm4-B-ILE-1067:MBZ-pdb1sm4-B-PHE-1316
     RDKit          3D

 26 25  0  0  0  0  0  0  0  0999 V2000
   -3.6268   -5.2266   -2.0067 C   0  0  0  0  0  0  0  0  0  0  0  0
   -3.1544   -6.0879   -1.8837 H   0  0  0  0  0  0  0  0  0  0  0  0
   -3.6372   -4.9949   -3.0718 H   0  0  0  0  0  0  0  0  0  0  0  0
   -4.6456   -5.2781   -1.6227 H   0  0  0  0  0  0  0  0  0  0  0  0
   -2.8368   -4.1368   -1.2420 C   0  0  0  0  0  0  0  0  0  0  0  0
   -3.3461   -3.3073   -1.0447 H   0  0  0  0  0  0  0  0  0  0  0  0
   -2.4956   -4.5359   -0.2868 H   0  0  0  0  0  0  0  0  0  0  0  0
   -1.6495   -3.6997   -2.0372 N   0  0  0  0  0  4  0  0  0  0  0  0
   -1.9603   -3.3289   -2.9079 H   0  0  0  0  0  0  0  0  0  0  0  0
   -1.1567   -2.9998   -1.5274 H   0  0  0  0  0  0  0  0  0  0  0  0
   -1.0565   -4.4849   -2.1949 H   0  0  0  0  0  0  0  0  0  0  0  0
    0.0159    2.8823   -0.0662 C   0  0  0  0  0  0  0  0  0  0  0  0
    0.7809    3.2115    0.4665 H   0  0  0  0  0  0  0  0  0  0  0  0
   -0.8425    3.2206    0.2896 H   0  0  0  0  0  0  0  0  0  0  0  0
    0.1281    3.2742   -1.0771 H   0  0  0  0  0  0  0  0  0  0  0  0
    0.0008    1.3948   -0.0009 C   0  0  0  0  0  0  0  0  0  0  0  0
   -1.1966    0.6980    0.0014 C   0  0  0  0  0  0  0  0  0  0  0  0
   -2.0600    1.1919    0.0029 H   0  0  0  0  0  0  0  0  0  0  0  0
   -1.2027   -0.6868   -0.0000 C   0  0  0  0  0  0  0  0  0  0  0  0
   -2.0806   -1.1814    0.0013 H   0  0  0  0  0  0  0  0  0  0  0  0
   -0.0036   -1.3861   -0.0012 C   0  0  0  0  0  0  0  0  0  0  0  0
   -0.0126   -2.3870   -0.0032 H   0  0  0  0  0  0  0  0  0  0  0  0
    1.2027   -0.6987   -0.0000 C   0  0  0  0  0  0  0  0  0  0  0  0
    2.0788   -1.2054    0.0021 H   0  0  0  0  0  0  0  0  0  0  0  0
    1.1994    0.6788    0.0006 C   0  0  0  0  0  0  0  0  0  0  0  0
    2.0665    1.1821    0.0008 H   0  0  0  0  0  0  0  0  0  0  0  0
  1  5  1  0
  5  8  1  0
  1  2  1  0
  1  3  1  0
  1  4  1  0
  5  6  1  0
  5  7  1  0
  8  9  1  0
  8 10  1  0
  8 11  1  0
 12 16  1  0
 16 17  2  0
 17 19  1  0
 19 21  2  0
 21 23  1  0
 23 25  2  0
 25 16  1  0
 12 13  1  0
 12 14  1  0
 12 15  1  0
 17 18  1  0
 19 20  1  0
 21 22  1  0
 23 24  1  0
 25 26  1  0
M  CHG  1   8   1
M  END
>  <PDB_ID>  (1195) 
pdb1sm4

>  <RESIDUE_NAME>  (1195) 
ILE   PHE

>  <FRAG_NAME>  (1195) 
ETAM   MBZ

>  <FRAG_ATOM_NUM>  (1195) 
fragi: 11  fragj: 15

>  <atom.prop.CHAIN_ID>  (1195) 
A A A A A A A A A A A Z Z Z Z Z Z Z Z Z Z Z Z Z Z Z

>  <atom.prop.IS_HEAVY_ATOM>  (1195) 
1 0 0 0 1 0 0 1 0 0 0 1 0 0 0 1 1 0 1 0 1 0 1 0 1 0

>  <DIFUSE_FUNC_ATOM>  (1195) 
n/a

>  <FINAL_SINGLE_POINT_ENERGY>  (1195) 
0

>  <NONCOV_INTER_ENERGY_QM>  (1195) 
0

>  <FF_Energy>  (1195) 
-0.55

>  <QM_Energy>  (1195) 
-7.33

>  <source>  (1195) 
ETAM_MBZ

>  <Index>  (1195) 
12023

$$$$
ETAM-pdb1sp3-A-LYS-273:MBZ-pdb1sp3-A-PHE-360
     RDKit          3D

 26 25  0  0  0  0  0  0  0  0999 V2000
    0.1616   -1.6048   -3.9969 C   0  0  0  0  0  0  0  0  0  0  0  0
   -0.0572   -1.4451   -4.9434 H   0  0  0  0  0  0  0  0  0  0  0  0
   -0.1191   -2.4995   -3.6986 H   0  0  0  0  0  0  0  0  0  0  0  0
    1.2385   -1.5059   -3.8600 H   0  0  0  0  0  0  0  0  0  0  0  0
   -0.5319   -0.5636   -3.1497 C   0  0  0  0  0  0  0  0  0  0  0  0
   -0.6613   -0.9200   -2.2315 H   0  0  0  0  0  0  0  0  0  0  0  0
    0.0195    0.2622   -3.1275 H   0  0  0  0  0  0  0  0  0  0  0  0
   -1.8554   -0.2557   -3.7491 N   0  0  0  0  0  4  0  0  0  0  0  0
   -2.5608   -0.3020   -3.0412 H   0  0  0  0  0  0  0  0  0  0  0  0
   -1.8373    0.6635   -4.1423 H   0  0  0  0  0  0  0  0  0  0  0  0
   -2.0591   -0.9210   -4.4669 H   0  0  0  0  0  0  0  0  0  0  0  0
    0.0173    2.9137    0.0770 C   0  0  0  0  0  0  0  0  0  0  0  0
   -0.9104    3.2328    0.0009 H   0  0  0  0  0  0  0  0  0  0  0  0
    0.5860    3.2532   -0.6514 H   0  0  0  0  0  0  0  0  0  0  0  0
    0.4219    3.2900    1.0166 H   0  0  0  0  0  0  0  0  0  0  0  0
    0.0049    1.4118    0.0024 C   0  0  0  0  0  0  0  0  0  0  0  0
   -1.1965    0.7172    0.0082 C   0  0  0  0  0  0  0  0  0  0  0  0
   -2.0636    1.1896    0.0173 H   0  0  0  0  0  0  0  0  0  0  0  0
   -1.2123   -0.7230   -0.0000 C   0  0  0  0  0  0  0  0  0  0  0  0
   -2.0920   -1.1856    0.0055 H   0  0  0  0  0  0  0  0  0  0  0  0
   -0.0154   -1.4068   -0.0137 C   0  0  0  0  0  0  0  0  0  0  0  0
    0.0073   -2.4019   -0.0342 H   0  0  0  0  0  0  0  0  0  0  0  0
    1.2123   -0.6875   -0.0000 C   0  0  0  0  0  0  0  0  0  0  0  0
    2.0818   -1.2027    0.0086 H   0  0  0  0  0  0  0  0  0  0  0  0
    1.2070    0.6883    0.0031 C   0  0  0  0  0  0  0  0  0  0  0  0
    2.0737    1.1943    0.0049 H   0  0  0  0  0  0  0  0  0  0  0  0
  1  5  1  0
  5  8  1  0
  1  2  1  0
  1  3  1  0
  1  4  1  0
  5  6  1  0
  5  7  1  0
  8  9  1  0
  8 10  1  0
  8 11  1  0
 12 16  1  0
 16 17  2  0
 17 19  1  0
 19 21  2  0
 21 23  1  0
 23 25  2  0
 25 16  1  0
 12 13  1  0
 12 14  1  0
 12 15  1  0
 17 18  1  0
 19 20  1  0
 21 22  1  0
 23 24  1  0
 25 26  1  0
M  CHG  1   8   1
M  END
>  <PDB_ID>  (1196) 
pdb1sp3

>  <RESIDUE_NAME>  (1196) 
LYS   PHE

>  <FRAG_NAME>  (1196) 
ETAM   MBZ

>  <FRAG_ATOM_NUM>  (1196) 
fragi: 11  fragj: 15

>  <atom.prop.CHAIN_ID>  (1196) 
A A A A A A A A A A A Z Z Z Z Z Z Z Z Z Z Z Z Z Z Z

>  <atom.prop.IS_HEAVY_ATOM>  (1196) 
1 0 0 0 1 0 0 1 0 0 0 1 0 0 0 1 1 0 1 0 1 0 1 0 1 0

>  <DIFUSE_FUNC_ATOM>  (1196) 
n/a

>  <FINAL_SINGLE_POINT_ENERGY>  (1196) 
0

>  <NONCOV_INTER_ENERGY_QM>  (1196) 
0

>  <FF_Energy>  (1196) 
-0.13

>  <QM_Energy>  (1196) 
-8.99

>  <source>  (1196) 
ETAM_MBZ

>  <Index>  (1196) 
12032

$$$$
ETAM-pdb1smk-C-LYS-349:MBZ-pdb1smk-C-PHE-134
     RDKit          3D

 26 25  0  0  0  0  0  0  0  0999 V2000
   -0.5947   -0.0366   -4.0222 C   0  0  0  0  0  0  0  0  0  0  0  0
   -0.4613    0.0337   -5.0022 H   0  0  0  0  0  0  0  0  0  0  0  0
   -1.4745    0.3375   -3.7588 H   0  0  0  0  0  0  0  0  0  0  0  0
   -0.5511   -1.0862   -3.7316 H   0  0  0  0  0  0  0  0  0  0  0  0
    0.4971    0.7578   -3.3255 C   0  0  0  0  0  0  0  0  0  0  0  0
    0.2909    0.8034   -2.3453 H   0  0  0  0  0  0  0  0  0  0  0  0
    1.3737    0.2878   -3.4526 H   0  0  0  0  0  0  0  0  0  0  0  0
    0.6012    2.1397   -3.8673 N   0  0  0  0  0  4  0  0  0  0  0  0
    1.5607    2.3539   -4.0466 H   0  0  0  0  0  0  0  0  0  0  0  0
    0.0801    2.2028   -4.7183 H   0  0  0  0  0  0  0  0  0  0  0  0
    0.2319    2.7865   -3.2002 H   0  0  0  0  0  0  0  0  0  0  0  0
   -0.0013    2.9031    0.0156 C   0  0  0  0  0  0  0  0  0  0  0  0
   -0.7548    3.2126   -0.5429 H   0  0  0  0  0  0  0  0  0  0  0  0
    0.8660    3.2143   -0.3414 H   0  0  0  0  0  0  0  0  0  0  0  0
   -0.1259    3.3260    1.0125 H   0  0  0  0  0  0  0  0  0  0  0  0
    0.0022    1.4014   -0.0004 C   0  0  0  0  0  0  0  0  0  0  0  0
   -1.1947    0.6930    0.0012 C   0  0  0  0  0  0  0  0  0  0  0  0
   -2.0617    1.1852    0.0020 H   0  0  0  0  0  0  0  0  0  0  0  0
   -1.2047   -0.6978   -0.0000 C   0  0  0  0  0  0  0  0  0  0  0  0
   -2.0834   -1.1875    0.0004 H   0  0  0  0  0  0  0  0  0  0  0  0
   -0.0085   -1.3952   -0.0004 C   0  0  0  0  0  0  0  0  0  0  0  0
   -0.0076   -2.3923   -0.0015 H   0  0  0  0  0  0  0  0  0  0  0  0
    1.2047   -0.6967    0.0000 C   0  0  0  0  0  0  0  0  0  0  0  0
    2.0799   -1.1990    0.0025 H   0  0  0  0  0  0  0  0  0  0  0  0
    1.2009    0.6954   -0.0005 C   0  0  0  0  0  0  0  0  0  0  0  0
    2.0672    1.1919   -0.0018 H   0  0  0  0  0  0  0  0  0  0  0  0
  1  5  1  0
  5  8  1  0
  1  2  1  0
  1  3  1  0
  1  4  1  0
  5  6  1  0
  5  7  1  0
  8  9  1  0
  8 10  1  0
  8 11  1  0
 12 16  1  0
 16 17  2  0
 17 19  1  0
 19 21  2  0
 21 23  1  0
 23 25  2  0
 25 16  1  0
 12 13  1  0
 12 14  1  0
 12 15  1  0
 17 18  1  0
 19 20  1  0
 21 22  1  0
 23 24  1  0
 25 26  1  0
M  CHG  1   8   1
M  END
>  <PDB_ID>  (1197) 
pdb1smk

>  <RESIDUE_NAME>  (1197) 
LYS   PHE

>  <FRAG_NAME>  (1197) 
ETAM   MBZ

>  <FRAG_ATOM_NUM>  (1197) 
fragi: 11  fragj: 15

>  <atom.prop.CHAIN_ID>  (1197) 
A A A A A A A A A A A Z Z Z Z Z Z Z Z Z Z Z Z Z Z Z

>  <atom.prop.IS_HEAVY_ATOM>  (1197) 
1 0 0 0 1 0 0 1 0 0 0 1 0 0 0 1 1 0 1 0 1 0 1 0 1 0

>  <DIFUSE_FUNC_ATOM>  (1197) 
n/a

>  <FINAL_SINGLE_POINT_ENERGY>  (1197) 
0

>  <NONCOV_INTER_ENERGY_QM>  (1197) 
0

>  <FF_Energy>  (1197) 
-3.68

>  <QM_Energy>  (1197) 
-8.95

>  <source>  (1197) 
ETAM_MBZ

>  <Index>  (1197) 
12045

$$$$
ETAM-pdb2ywr-A-LYS-104:MBZ-pdb2ywr-A-PHE-185
     RDKit          3D

 26 25  0  0  0  0  0  0  0  0999 V2000
   -4.6151   -1.4069    2.9210 C   0  0  0  0  0  0  0  0  0  0  0  0
   -3.9361   -1.9556    2.4435 H   0  0  0  0  0  0  0  0  0  0  0  0
   -5.4275   -1.2973    2.3567 H   0  0  0  0  0  0  0  0  0  0  0  0
   -4.8917   -1.9139    3.8454 H   0  0  0  0  0  0  0  0  0  0  0  0
   -4.0262   -0.0362    3.1946 C   0  0  0  0  0  0  0  0  0  0  0  0
   -4.6679    0.4870    3.7619 H   0  0  0  0  0  0  0  0  0  0  0  0
   -3.1646   -0.1462    3.6978 H   0  0  0  0  0  0  0  0  0  0  0  0
   -3.7652    0.7111    1.9380 N   0  0  0  0  0  4  0  0  0  0  0  0
   -3.1247    1.4565    2.1206 H   0  0  0  0  0  0  0  0  0  0  0  0
   -3.3719    0.0918    1.2581 H   0  0  0  0  0  0  0  0  0  0  0  0
   -4.6240    1.0870    1.5899 H   0  0  0  0  0  0  0  0  0  0  0  0
   -0.0073    2.9057   -0.0047 C   0  0  0  0  0  0  0  0  0  0  0  0
    0.8869    3.2190    0.2746 H   0  0  0  0  0  0  0  0  0  0  0  0
   -0.7089    3.2137    0.6188 H   0  0  0  0  0  0  0  0  0  0  0  0
   -0.2193    3.3415   -0.9811 H   0  0  0  0  0  0  0  0  0  0  0  0
   -0.0011    1.4042   -0.0001 C   0  0  0  0  0  0  0  0  0  0  0  0
   -1.1983    0.6924   -0.0002 C   0  0  0  0  0  0  0  0  0  0  0  0
   -2.0660    1.1836   -0.0017 H   0  0  0  0  0  0  0  0  0  0  0  0
   -1.2049   -0.6994   -0.0000 C   0  0  0  0  0  0  0  0  0  0  0  0
   -2.0784   -1.1942    0.0011 H   0  0  0  0  0  0  0  0  0  0  0  0
    0.0028   -1.3993    0.0008 C   0  0  0  0  0  0  0  0  0  0  0  0
   -0.0011   -2.3953    0.0012 H   0  0  0  0  0  0  0  0  0  0  0  0
    1.2049   -0.6978   -0.0000 C   0  0  0  0  0  0  0  0  0  0  0  0
    2.0868   -1.1912    0.0015 H   0  0  0  0  0  0  0  0  0  0  0  0
    1.1966    0.7000   -0.0005 C   0  0  0  0  0  0  0  0  0  0  0  0
    2.0649    1.1948   -0.0020 H   0  0  0  0  0  0  0  0  0  0  0  0
  1  5  1  0
  5  8  1  0
  1  2  1  0
  1  3  1  0
  1  4  1  0
  5  6  1  0
  5  7  1  0
  8  9  1  0
  8 10  1  0
  8 11  1  0
 12 16  1  0
 16 17  2  0
 17 19  1  0
 19 21  2  0
 21 23  1  0
 23 25  2  0
 25 16  1  0
 12 13  1  0
 12 14  1  0
 12 15  1  0
 17 18  1  0
 19 20  1  0
 21 22  1  0
 23 24  1  0
 25 26  1  0
M  CHG  1   8   1
M  END
>  <PDB_ID>  (1198) 
pdb2ywr

>  <RESIDUE_NAME>  (1198) 
LYS   PHE

>  <FRAG_NAME>  (1198) 
ETAM   MBZ

>  <FRAG_ATOM_NUM>  (1198) 
fragi: 11  fragj: 15

>  <atom.prop.CHAIN_ID>  (1198) 
A A A A A A A A A A A Z Z Z Z Z Z Z Z Z Z Z Z Z Z Z

>  <atom.prop.IS_HEAVY_ATOM>  (1198) 
1 0 0 0 1 0 0 1 0 0 0 1 0 0 0 1 1 0 1 0 1 0 1 0 1 0

>  <DIFUSE_FUNC_ATOM>  (1198) 
n/a

>  <FINAL_SINGLE_POINT_ENERGY>  (1198) 
0

>  <NONCOV_INTER_ENERGY_QM>  (1198) 
0

>  <FF_Energy>  (1198) 
-0.25

>  <QM_Energy>  (1198) 
-6.12

>  <source>  (1198) 
ETAM_MBZ

>  <Index>  (1198) 
12058

$$$$
ETAM-pdb2yxg-C-LYS-56:MBZ-pdb2yxg-C-PHE-90
     RDKit          3D

 26 25  0  0  0  0  0  0  0  0999 V2000
   -1.0278   -0.3808   -4.1965 C   0  0  0  0  0  0  0  0  0  0  0  0
   -1.2379    0.5850   -4.1436 H   0  0  0  0  0  0  0  0  0  0  0  0
   -1.1546   -0.7246   -5.1159 H   0  0  0  0  0  0  0  0  0  0  0  0
    0.0093   -0.5352   -3.8988 H   0  0  0  0  0  0  0  0  0  0  0  0
   -2.0170   -1.1386   -3.2602 C   0  0  0  0  0  0  0  0  0  0  0  0
   -1.8776   -2.1388   -3.3874 H   0  0  0  0  0  0  0  0  0  0  0  0
   -1.7699   -0.9299   -2.2948 H   0  0  0  0  0  0  0  0  0  0  0  0
   -3.5264   -0.8461   -3.4349 N   0  0  0  0  0  4  0  0  0  0  0  0
   -4.0061   -1.2734   -2.6817 H   0  0  0  0  0  0  0  0  0  0  0  0
   -3.6467    0.1370   -3.4232 H   0  0  0  0  0  0  0  0  0  0  0  0
   -3.8101   -1.2300   -4.3022 H   0  0  0  0  0  0  0  0  0  0  0  0
   -0.0053    2.8794    0.0803 C   0  0  0  0  0  0  0  0  0  0  0  0
   -0.7205    3.2160   -0.5026 H   0  0  0  0  0  0  0  0  0  0  0  0
    0.8827    3.2027   -0.1883 H   0  0  0  0  0  0  0  0  0  0  0  0
   -0.2007    3.2338    1.0925 H   0  0  0  0  0  0  0  0  0  0  0  0
   -0.0019    1.3816   -0.0011 C   0  0  0  0  0  0  0  0  0  0  0  0
   -1.2023    0.6817    0.0112 C   0  0  0  0  0  0  0  0  0  0  0  0
   -2.0621    1.1831    0.0264 H   0  0  0  0  0  0  0  0  0  0  0  0
   -1.2002   -0.6828   -0.0000 C   0  0  0  0  0  0  0  0  0  0  0  0
   -2.0700   -1.1945    0.0067 H   0  0  0  0  0  0  0  0  0  0  0  0
    0.0060   -1.3664   -0.0193 C   0  0  0  0  0  0  0  0  0  0  0  0
   -0.0043   -2.3756   -0.0485 H   0  0  0  0  0  0  0  0  0  0  0  0
    1.2002   -0.6900    0.0000 C   0  0  0  0  0  0  0  0  0  0  0  0
    2.0796   -1.1987    0.0089 H   0  0  0  0  0  0  0  0  0  0  0  0
    1.1982    0.6759    0.0092 C   0  0  0  0  0  0  0  0  0  0  0  0
    2.0611    1.1845    0.0228 H   0  0  0  0  0  0  0  0  0  0  0  0
  1  5  1  0
  5  8  1  0
  1  2  1  0
  1  3  1  0
  1  4  1  0
  5  6  1  0
  5  7  1  0
  8  9  1  0
  8 10  1  0
  8 11  1  0
 12 16  1  0
 16 17  2  0
 17 19  1  0
 19 21  2  0
 21 23  1  0
 23 25  2  0
 25 16  1  0
 12 13  1  0
 12 14  1  0
 12 15  1  0
 17 18  1  0
 19 20  1  0
 21 22  1  0
 23 24  1  0
 25 26  1  0
M  CHG  1   8   1
M  END
>  <PDB_ID>  (1199) 
pdb2yxg

>  <RESIDUE_NAME>  (1199) 
LYS   PHE

>  <FRAG_NAME>  (1199) 
ETAM   MBZ

>  <FRAG_ATOM_NUM>  (1199) 
fragi: 11  fragj: 15

>  <atom.prop.CHAIN_ID>  (1199) 
A A A A A A A A A A A Z Z Z Z Z Z Z Z Z Z Z Z Z Z Z

>  <atom.prop.IS_HEAVY_ATOM>  (1199) 
1 0 0 0 1 0 0 1 0 0 0 1 0 0 0 1 1 0 1 0 1 0 1 0 1 0

>  <DIFUSE_FUNC_ATOM>  (1199) 
n/a

>  <FINAL_SINGLE_POINT_ENERGY>  (1199) 
0

>  <NONCOV_INTER_ENERGY_QM>  (1199) 
0

>  <FF_Energy>  (1199) 
-0.85

>  <QM_Energy>  (1199) 
-5.99

>  <source>  (1199) 
ETAM_MBZ

>  <Index>  (1199) 
12089

$$$$
ETAM-pdb2yxg-A-LYS-251:MBZ-pdb2yxg-A-PHE-13
     RDKit          3D

 26 25  0  0  0  0  0  0  0  0999 V2000
    5.0526    0.5777   -3.7261 C   0  0  0  0  0  0  0  0  0  0  0  0
    5.5202   -0.2655   -3.5626 H   0  0  0  0  0  0  0  0  0  0  0  0
    5.2519    1.2652   -3.0605 H   0  0  0  0  0  0  0  0  0  0  0  0
    5.3945    0.9530   -4.6907 H   0  0  0  0  0  0  0  0  0  0  0  0
    3.5677    0.3440   -3.8041 C   0  0  0  0  0  0  0  0  0  0  0  0
    3.1417    1.1030   -4.3248 H   0  0  0  0  0  0  0  0  0  0  0  0
    3.3949   -0.5094   -4.3247 H   0  0  0  0  0  0  0  0  0  0  0  0
    2.9102    0.2414   -2.4828 N   0  0  0  0  0  4  0  0  0  0  0  0
    2.0337   -0.2318   -2.5796 H   0  0  0  0  0  0  0  0  0  0  0  0
    3.4967   -0.2723   -1.8551 H   0  0  0  0  0  0  0  0  0  0  0  0
    2.7527    1.1583   -2.1140 H   0  0  0  0  0  0  0  0  0  0  0  0
    0.0170    2.9769    0.0076 C   0  0  0  0  0  0  0  0  0  0  0  0
    0.9600    3.2628   -0.0635 H   0  0  0  0  0  0  0  0  0  0  0  0
   -0.3886    3.2760    0.8576 H   0  0  0  0  0  0  0  0  0  0  0  0
   -0.5339    3.4488   -0.8060 H   0  0  0  0  0  0  0  0  0  0  0  0
   -0.0025    1.4411    0.0009 C   0  0  0  0  0  0  0  0  0  0  0  0
   -1.2224    0.7224    0.0096 C   0  0  0  0  0  0  0  0  0  0  0  0
   -2.0818    1.2107    0.0218 H   0  0  0  0  0  0  0  0  0  0  0  0
   -1.2368   -0.6989   -0.0000 C   0  0  0  0  0  0  0  0  0  0  0  0
   -2.1033   -1.1881    0.0097 H   0  0  0  0  0  0  0  0  0  0  0  0
    0.0028   -1.4446   -0.0221 C   0  0  0  0  0  0  0  0  0  0  0  0
   -0.0178   -2.4191   -0.0518 H   0  0  0  0  0  0  0  0  0  0  0  0
    1.2368   -0.7271   -0.0000 C   0  0  0  0  0  0  0  0  0  0  0  0
    2.1070   -1.2120    0.0087 H   0  0  0  0  0  0  0  0  0  0  0  0
    1.2222    0.7070    0.0116 C   0  0  0  0  0  0  0  0  0  0  0  0
    2.0840    1.1971    0.0264 H   0  0  0  0  0  0  0  0  0  0  0  0
  1  5  1  0
  5  8  1  0
  1  2  1  0
  1  3  1  0
  1  4  1  0
  5  6  1  0
  5  7  1  0
  8  9  1  0
  8 10  1  0
  8 11  1  0
 12 16  1  0
 16 17  2  0
 17 19  1  0
 19 21  2  0
 21 23  1  0
 23 25  2  0
 25 16  1  0
 12 13  1  0
 12 14  1  0
 12 15  1  0
 17 18  1  0
 19 20  1  0
 21 22  1  0
 23 24  1  0
 25 26  1  0
M  CHG  1   8   1
M  END
>  <PDB_ID>  (1200) 
pdb2yxg

>  <RESIDUE_NAME>  (1200) 
LYS   PHE

>  <FRAG_NAME>  (1200) 
ETAM   MBZ

>  <FRAG_ATOM_NUM>  (1200) 
fragi: 11  fragj: 15

>  <atom.prop.CHAIN_ID>  (1200) 
A A A A A A A A A A A Z Z Z Z Z Z Z Z Z Z Z Z Z Z Z

>  <atom.prop.IS_HEAVY_ATOM>  (1200) 
1 0 0 0 1 0 0 1 0 0 0 1 0 0 0 1 1 0 1 0 1 0 1 0 1 0

>  <DIFUSE_FUNC_ATOM>  (1200) 
n/a

>  <FINAL_SINGLE_POINT_ENERGY>  (1200) 
0

>  <NONCOV_INTER_ENERGY_QM>  (1200) 
0

>  <FF_Energy>  (1200) 
-1.8

>  <QM_Energy>  (1200) 
-9.18

>  <source>  (1200) 
ETAM_MBZ

>  <Index>  (1200) 
12094

$$$$
ETAM-pdb2yvk-D-LYS-251:MBZ-pdb2yvk-D-PHE-317
     RDKit          3D

 26 25  0  0  0  0  0  0  0  0999 V2000
   -2.6506   -0.2026   -4.8454 C   0  0  0  0  0  0  0  0  0  0  0  0
   -2.3206   -0.3251   -5.7730 H   0  0  0  0  0  0  0  0  0  0  0  0
   -2.1629    0.5327   -4.3920 H   0  0  0  0  0  0  0  0  0  0  0  0
   -3.7143    0.0337   -4.8719 H   0  0  0  0  0  0  0  0  0  0  0  0
   -2.4030   -1.4926   -4.0710 C   0  0  0  0  0  0  0  0  0  0  0  0
   -3.0138   -1.5155   -3.2782 H   0  0  0  0  0  0  0  0  0  0  0  0
   -2.6053   -2.2718   -4.6668 H   0  0  0  0  0  0  0  0  0  0  0  0
   -0.9915   -1.5812   -3.6080 N   0  0  0  0  0  4  0  0  0  0  0  0
   -0.8713   -1.0063   -2.7997 H   0  0  0  0  0  0  0  0  0  0  0  0
   -0.7767   -2.5297   -3.3792 H   0  0  0  0  0  0  0  0  0  0  0  0
   -0.3835   -1.2665   -4.3363 H   0  0  0  0  0  0  0  0  0  0  0  0
    0.0030    2.8904   -0.0495 C   0  0  0  0  0  0  0  0  0  0  0  0
    0.8749    3.2132    0.2935 H   0  0  0  0  0  0  0  0  0  0  0  0
   -0.7436    3.2233    0.5117 H   0  0  0  0  0  0  0  0  0  0  0  0
   -0.1288    3.3039   -1.0493 H   0  0  0  0  0  0  0  0  0  0  0  0
   -0.0001    1.4024   -0.0008 C   0  0  0  0  0  0  0  0  0  0  0  0
   -1.2042    0.6943    0.0005 C   0  0  0  0  0  0  0  0  0  0  0  0
   -2.0663    1.1877    0.0003 H   0  0  0  0  0  0  0  0  0  0  0  0
   -1.2094   -0.6957    0.0000 C   0  0  0  0  0  0  0  0  0  0  0  0
   -2.0798   -1.1944    0.0020 H   0  0  0  0  0  0  0  0  0  0  0  0
    0.0052   -1.3974   -0.0011 C   0  0  0  0  0  0  0  0  0  0  0  0
   -0.0041   -2.3947   -0.0031 H   0  0  0  0  0  0  0  0  0  0  0  0
    1.2094   -0.7011    0.0000 C   0  0  0  0  0  0  0  0  0  0  0  0
    2.0892   -1.1933    0.0008 H   0  0  0  0  0  0  0  0  0  0  0  0
    1.1991    0.6975    0.0015 C   0  0  0  0  0  0  0  0  0  0  0  0
    2.0665    1.1937    0.0033 H   0  0  0  0  0  0  0  0  0  0  0  0
  1  5  1  0
  5  8  1  0
  1  2  1  0
  1  3  1  0
  1  4  1  0
  5  6  1  0
  5  7  1  0
  8  9  1  0
  8 10  1  0
  8 11  1  0
 12 16  1  0
 16 17  2  0
 17 19  1  0
 19 21  2  0
 21 23  1  0
 23 25  2  0
 25 16  1  0
 12 13  1  0
 12 14  1  0
 12 15  1  0
 17 18  1  0
 19 20  1  0
 21 22  1  0
 23 24  1  0
 25 26  1  0
M  CHG  1   8   1
M  END
>  <PDB_ID>  (1201) 
pdb2yvk

>  <RESIDUE_NAME>  (1201) 
LYS   PHE

>  <FRAG_NAME>  (1201) 
ETAM   MBZ

>  <FRAG_ATOM_NUM>  (1201) 
fragi: 11  fragj: 15

>  <atom.prop.CHAIN_ID>  (1201) 
A A A A A A A A A A A Z Z Z Z Z Z Z Z Z Z Z Z Z Z Z

>  <atom.prop.IS_HEAVY_ATOM>  (1201) 
1 0 0 0 1 0 0 1 0 0 0 1 0 0 0 1 1 0 1 0 1 0 1 0 1 0

>  <DIFUSE_FUNC_ATOM>  (1201) 
n/a

>  <FINAL_SINGLE_POINT_ENERGY>  (1201) 
0

>  <NONCOV_INTER_ENERGY_QM>  (1201) 
0

>  <FF_Energy>  (1201) 
-5.14

>  <QM_Energy>  (1201) 
-11.06

>  <source>  (1201) 
ETAM_MBZ

>  <Index>  (1201) 
12124

$$$$
ETAM-pdb2yxg-B-LYS-251:MBZ-pdb2yxg-B-PHE-13
     RDKit          3D

 26 25  0  0  0  0  0  0  0  0999 V2000
    4.9430    0.2515   -4.0216 C   0  0  0  0  0  0  0  0  0  0  0  0
    5.2875   -0.3676   -3.3295 H   0  0  0  0  0  0  0  0  0  0  0  0
    5.1549    1.1922   -3.7934 H   0  0  0  0  0  0  0  0  0  0  0  0
    5.4169    0.0077   -4.9724 H   0  0  0  0  0  0  0  0  0  0  0  0
    3.4211    0.0986   -4.1018 C   0  0  0  0  0  0  0  0  0  0  0  0
    3.0410    0.8840   -4.5522 H   0  0  0  0  0  0  0  0  0  0  0  0
    3.2046   -0.7399   -4.5636 H   0  0  0  0  0  0  0  0  0  0  0  0
    2.9053    0.0363   -2.6910 N   0  0  0  0  0  4  0  0  0  0  0  0
    3.4511    0.6452   -2.1196 H   0  0  0  0  0  0  0  0  0  0  0  0
    1.9505    0.3249   -2.6822 H   0  0  0  0  0  0  0  0  0  0  0  0
    2.9813   -0.9013   -2.3596 H   0  0  0  0  0  0  0  0  0  0  0  0
    0.0122    2.8596   -0.0338 C   0  0  0  0  0  0  0  0  0  0  0  0
    0.9506    3.1806   -0.1141 H   0  0  0  0  0  0  0  0  0  0  0  0
   -0.4004    3.2039    0.8030 H   0  0  0  0  0  0  0  0  0  0  0  0
   -0.5446    3.2948   -0.8636 H   0  0  0  0  0  0  0  0  0  0  0  0
    0.0056    1.3999   -0.0067 C   0  0  0  0  0  0  0  0  0  0  0  0
   -1.2104    0.6917    0.0091 C   0  0  0  0  0  0  0  0  0  0  0  0
   -2.0668    1.1922    0.0255 H   0  0  0  0  0  0  0  0  0  0  0  0
   -1.2211   -0.6971   -0.0000 C   0  0  0  0  0  0  0  0  0  0  0  0
   -2.0856   -1.1983   -0.0082 H   0  0  0  0  0  0  0  0  0  0  0  0
    0.0058   -1.4062    0.0051 C   0  0  0  0  0  0  0  0  0  0  0  0
   -0.0003   -2.3962    0.0113 H   0  0  0  0  0  0  0  0  0  0  0  0
    1.2211   -0.6971    0.0000 C   0  0  0  0  0  0  0  0  0  0  0  0
    2.0967   -1.1850    0.0036 H   0  0  0  0  0  0  0  0  0  0  0  0
    1.1990    0.7088   -0.0076 C   0  0  0  0  0  0  0  0  0  0  0  0
    2.0685    1.2045   -0.0142 H   0  0  0  0  0  0  0  0  0  0  0  0
  1  5  1  0
  5  8  1  0
  1  2  1  0
  1  3  1  0
  1  4  1  0
  5  6  1  0
  5  7  1  0
  8  9  1  0
  8 10  1  0
  8 11  1  0
 12 16  1  0
 16 17  2  0
 17 19  1  0
 19 21  2  0
 21 23  1  0
 23 25  2  0
 25 16  1  0
 12 13  1  0
 12 14  1  0
 12 15  1  0
 17 18  1  0
 19 20  1  0
 21 22  1  0
 23 24  1  0
 25 26  1  0
M  CHG  1   8   1
M  END
>  <PDB_ID>  (1202) 
pdb2yxg

>  <RESIDUE_NAME>  (1202) 
LYS   PHE

>  <FRAG_NAME>  (1202) 
ETAM   MBZ

>  <FRAG_ATOM_NUM>  (1202) 
fragi: 11  fragj: 15

>  <atom.prop.CHAIN_ID>  (1202) 
A A A A A A A A A A A Z Z Z Z Z Z Z Z Z Z Z Z Z Z Z

>  <atom.prop.IS_HEAVY_ATOM>  (1202) 
1 0 0 0 1 0 0 1 0 0 0 1 0 0 0 1 1 0 1 0 1 0 1 0 1 0

>  <DIFUSE_FUNC_ATOM>  (1202) 
n/a

>  <FINAL_SINGLE_POINT_ENERGY>  (1202) 
0

>  <NONCOV_INTER_ENERGY_QM>  (1202) 
0

>  <FF_Energy>  (1202) 
-2.78

>  <QM_Energy>  (1202) 
-8.94

>  <source>  (1202) 
ETAM_MBZ

>  <Index>  (1202) 
12125

$$$$
ETAM-pdb1syy-A-LYS-154:MBZ-pdb1syy-A-PHE-84
     RDKit          3D

 26 25  0  0  0  0  0  0  0  0999 V2000
   -1.7194   -0.9720   -4.6520 C   0  0  0  0  0  0  0  0  0  0  0  0
   -1.1940   -1.0683   -5.5093 H   0  0  0  0  0  0  0  0  0  0  0  0
   -2.0972   -0.0352   -4.6238 H   0  0  0  0  0  0  0  0  0  0  0  0
   -2.5658   -1.6557   -4.7184 H   0  0  0  0  0  0  0  0  0  0  0  0
   -0.8850   -1.2201   -3.5122 C   0  0  0  0  0  0  0  0  0  0  0  0
   -1.3439   -0.9869   -2.6333 H   0  0  0  0  0  0  0  0  0  0  0  0
   -0.6011   -2.1959   -3.4393 H   0  0  0  0  0  0  0  0  0  0  0  0
    0.4905   -0.3990   -3.4767 N   0  0  0  0  0  4  0  0  0  0  0  0
    0.9867   -0.6601   -4.2825 H   0  0  0  0  0  0  0  0  0  0  0  0
    0.2428    0.5511   -3.4794 H   0  0  0  0  0  0  0  0  0  0  0  0
    0.9483   -0.6658   -2.6497 H   0  0  0  0  0  0  0  0  0  0  0  0
    0.0185    2.9181    0.1204 C   0  0  0  0  0  0  0  0  0  0  0  0
   -0.4107    3.2817   -0.6863 H   0  0  0  0  0  0  0  0  0  0  0  0
    0.9560    3.2027    0.2040 H   0  0  0  0  0  0  0  0  0  0  0  0
   -0.5296    3.2703    0.9943 H   0  0  0  0  0  0  0  0  0  0  0  0
    0.0099    1.4052   -0.0008 C   0  0  0  0  0  0  0  0  0  0  0  0
   -1.2047    0.7127   -0.0140 C   0  0  0  0  0  0  0  0  0  0  0  0
   -2.0614    1.1862   -0.0340 H   0  0  0  0  0  0  0  0  0  0  0  0
   -1.2021   -0.7174    0.0000 C   0  0  0  0  0  0  0  0  0  0  0  0
   -2.0933   -1.1835    0.0044 H   0  0  0  0  0  0  0  0  0  0  0  0
   -0.0310   -1.3804    0.0092 C   0  0  0  0  0  0  0  0  0  0  0  0
   -0.0239   -2.4031    0.0226 H   0  0  0  0  0  0  0  0  0  0  0  0
    1.2021   -0.7234    0.0000 C   0  0  0  0  0  0  0  0  0  0  0  0
    2.0638   -1.2270   -0.0089 H   0  0  0  0  0  0  0  0  0  0  0  0
    1.2257    0.7032    0.0056 C   0  0  0  0  0  0  0  0  0  0  0  0
    2.0834    1.1764    0.0131 H   0  0  0  0  0  0  0  0  0  0  0  0
  1  5  1  0
  5  8  1  0
  1  2  1  0
  1  3  1  0
  1  4  1  0
  5  6  1  0
  5  7  1  0
  8  9  1  0
  8 10  1  0
  8 11  1  0
 12 16  1  0
 16 17  2  0
 17 19  1  0
 19 21  2  0
 21 23  1  0
 23 25  2  0
 25 16  1  0
 12 13  1  0
 12 14  1  0
 12 15  1  0
 17 18  1  0
 19 20  1  0
 21 22  1  0
 23 24  1  0
 25 26  1  0
M  CHG  1   8   1
M  END
>  <PDB_ID>  (1203) 
pdb1syy

>  <RESIDUE_NAME>  (1203) 
LYS   PHE

>  <FRAG_NAME>  (1203) 
ETAM   MBZ

>  <FRAG_ATOM_NUM>  (1203) 
fragi: 11  fragj: 15

>  <atom.prop.CHAIN_ID>  (1203) 
A A A A A A A A A A A Z Z Z Z Z Z Z Z Z Z Z Z Z Z Z

>  <atom.prop.IS_HEAVY_ATOM>  (1203) 
1 0 0 0 1 0 0 1 0 0 0 1 0 0 0 1 1 0 1 0 1 0 1 0 1 0

>  <DIFUSE_FUNC_ATOM>  (1203) 
n/a

>  <FINAL_SINGLE_POINT_ENERGY>  (1203) 
0

>  <NONCOV_INTER_ENERGY_QM>  (1203) 
0

>  <FF_Energy>  (1203) 
-7.57

>  <QM_Energy>  (1203) 
-14.24

>  <source>  (1203) 
ETAM_MBZ

>  <Index>  (1203) 
12130

$$$$
ETAM-pdb1syx-B-LYS-31:MBZ-pdb1syx-B-PHE-74
     RDKit          3D

 26 25  0  0  0  0  0  0  0  0999 V2000
    0.9115   -0.9323   -4.3108 C   0  0  0  0  0  0  0  0  0  0  0  0
    0.5685   -0.9813   -5.2386 H   0  0  0  0  0  0  0  0  0  0  0  0
    0.9043   -1.8240   -3.8798 H   0  0  0  0  0  0  0  0  0  0  0  0
    1.9339   -0.5550   -4.3309 H   0  0  0  0  0  0  0  0  0  0  0  0
   -0.0025    0.0015   -3.5055 C   0  0  0  0  0  0  0  0  0  0  0  0
    0.1789   -0.1381   -2.5303 H   0  0  0  0  0  0  0  0  0  0  0  0
    0.2158    0.9491   -3.7480 H   0  0  0  0  0  0  0  0  0  0  0  0
   -1.4442   -0.2591   -3.7822 N   0  0  0  0  0  4  0  0  0  0  0  0
   -1.5229   -0.9558   -4.4945 H   0  0  0  0  0  0  0  0  0  0  0  0
   -1.8879   -0.5816   -2.9468 H   0  0  0  0  0  0  0  0  0  0  0  0
   -1.8798    0.5863   -4.0894 H   0  0  0  0  0  0  0  0  0  0  0  0
   -0.0018    2.9046   -0.0042 C   0  0  0  0  0  0  0  0  0  0  0  0
   -0.8450    3.2086   -0.4221 H   0  0  0  0  0  0  0  0  0  0  0  0
    0.7848    3.2095   -0.5202 H   0  0  0  0  0  0  0  0  0  0  0  0
    0.0580    3.3468    0.9903 H   0  0  0  0  0  0  0  0  0  0  0  0
   -0.0008    1.4056    0.0024 C   0  0  0  0  0  0  0  0  0  0  0  0
   -1.2010    0.6958   -0.0002 C   0  0  0  0  0  0  0  0  0  0  0  0
   -2.0667    1.1859   -0.0031 H   0  0  0  0  0  0  0  0  0  0  0  0
   -1.2091   -0.7014   -0.0000 C   0  0  0  0  0  0  0  0  0  0  0  0
   -2.0817   -1.1944    0.0069 H   0  0  0  0  0  0  0  0  0  0  0  0
    0.0016   -1.4016   -0.0069 C   0  0  0  0  0  0  0  0  0  0  0  0
   -0.0007   -2.3963   -0.0171 H   0  0  0  0  0  0  0  0  0  0  0  0
    1.2091   -0.6973   -0.0000 C   0  0  0  0  0  0  0  0  0  0  0  0
    2.0880   -1.1930    0.0029 H   0  0  0  0  0  0  0  0  0  0  0  0
    1.2002    0.6989    0.0046 C   0  0  0  0  0  0  0  0  0  0  0  0
    2.0658    1.1960    0.0087 H   0  0  0  0  0  0  0  0  0  0  0  0
  1  5  1  0
  5  8  1  0
  1  2  1  0
  1  3  1  0
  1  4  1  0
  5  6  1  0
  5  7  1  0
  8  9  1  0
  8 10  1  0
  8 11  1  0
 12 16  1  0
 16 17  2  0
 17 19  1  0
 19 21  2  0
 21 23  1  0
 23 25  2  0
 25 16  1  0
 12 13  1  0
 12 14  1  0
 12 15  1  0
 17 18  1  0
 19 20  1  0
 21 22  1  0
 23 24  1  0
 25 26  1  0
M  CHG  1   8   1
M  END
>  <PDB_ID>  (1204) 
pdb1syx

>  <RESIDUE_NAME>  (1204) 
LYS   PHE

>  <FRAG_NAME>  (1204) 
ETAM   MBZ

>  <FRAG_ATOM_NUM>  (1204) 
fragi: 11  fragj: 15

>  <atom.prop.CHAIN_ID>  (1204) 
A A A A A A A A A A A Z Z Z Z Z Z Z Z Z Z Z Z Z Z Z

>  <atom.prop.IS_HEAVY_ATOM>  (1204) 
1 0 0 0 1 0 0 1 0 0 0 1 0 0 0 1 1 0 1 0 1 0 1 0 1 0

>  <DIFUSE_FUNC_ATOM>  (1204) 
n/a

>  <FINAL_SINGLE_POINT_ENERGY>  (1204) 
0

>  <NONCOV_INTER_ENERGY_QM>  (1204) 
0

>  <FF_Energy>  (1204) 
-6.17

>  <QM_Energy>  (1204) 
-12.36

>  <source>  (1204) 
ETAM_MBZ

>  <Index>  (1204) 
12134

$$$$
ETAM-pdb1t0l-B-LYS-400:MBZ-pdb1t0l-B-PHE-371
     RDKit          3D

 26 25  0  0  0  0  0  0  0  0999 V2000
    1.4970    0.8096   -4.3219 C   0  0  0  0  0  0  0  0  0  0  0  0
    1.4413    0.6409   -5.3013 H   0  0  0  0  0  0  0  0  0  0  0  0
    2.4315    0.6859   -4.0035 H   0  0  0  0  0  0  0  0  0  0  0  0
    1.1857    1.8348   -4.1212 H   0  0  0  0  0  0  0  0  0  0  0  0
    0.6059   -0.1977   -3.6064 C   0  0  0  0  0  0  0  0  0  0  0  0
    0.6656   -0.0405   -2.6220 H   0  0  0  0  0  0  0  0  0  0  0  0
   -0.3376   -0.0691   -3.9100 H   0  0  0  0  0  0  0  0  0  0  0  0
    1.0342   -1.5918   -3.9087 N   0  0  0  0  0  4  0  0  0  0  0  0
    0.8564   -2.1722   -3.1153 H   0  0  0  0  0  0  0  0  0  0  0  0
    0.5210   -1.9324   -4.6951 H   0  0  0  0  0  0  0  0  0  0  0  0
    2.0118   -1.6004   -4.1169 H   0  0  0  0  0  0  0  0  0  0  0  0
   -0.0043    2.9131    0.0472 C   0  0  0  0  0  0  0  0  0  0  0  0
   -0.7333    3.2343   -0.5346 H   0  0  0  0  0  0  0  0  0  0  0  0
    0.8766    3.2297   -0.2643 H   0  0  0  0  0  0  0  0  0  0  0  0
   -0.1708    3.3168    1.0459 H   0  0  0  0  0  0  0  0  0  0  0  0
   -0.0003    1.4063   -0.0000 C   0  0  0  0  0  0  0  0  0  0  0  0
   -1.2008    0.6935   -0.0005 C   0  0  0  0  0  0  0  0  0  0  0  0
   -2.0664    1.1837   -0.0028 H   0  0  0  0  0  0  0  0  0  0  0  0
   -1.2080   -0.7021    0.0000 C   0  0  0  0  0  0  0  0  0  0  0  0
   -2.0811   -1.1954    0.0002 H   0  0  0  0  0  0  0  0  0  0  0  0
    0.0007   -1.4008    0.0016 C   0  0  0  0  0  0  0  0  0  0  0  0
   -0.0002   -2.3957    0.0036 H   0  0  0  0  0  0  0  0  0  0  0  0
    1.2080   -0.6955   -0.0000 C   0  0  0  0  0  0  0  0  0  0  0  0
    2.0875   -1.1925    0.0016 H   0  0  0  0  0  0  0  0  0  0  0  0
    1.2003    0.6985   -0.0011 C   0  0  0  0  0  0  0  0  0  0  0  0
    2.0669    1.1959   -0.0038 H   0  0  0  0  0  0  0  0  0  0  0  0
  1  5  1  0
  5  8  1  0
  1  2  1  0
  1  3  1  0
  1  4  1  0
  5  6  1  0
  5  7  1  0
  8  9  1  0
  8 10  1  0
  8 11  1  0
 12 16  1  0
 16 17  2  0
 17 19  1  0
 19 21  2  0
 21 23  1  0
 23 25  2  0
 25 16  1  0
 12 13  1  0
 12 14  1  0
 12 15  1  0
 17 18  1  0
 19 20  1  0
 21 22  1  0
 23 24  1  0
 25 26  1  0
M  CHG  1   8   1
M  END
>  <PDB_ID>  (1205) 
pdb1t0l

>  <RESIDUE_NAME>  (1205) 
LYS   PHE

>  <FRAG_NAME>  (1205) 
ETAM   MBZ

>  <FRAG_ATOM_NUM>  (1205) 
fragi: 11  fragj: 15

>  <atom.prop.CHAIN_ID>  (1205) 
A A A A A A A A A A A Z Z Z Z Z Z Z Z Z Z Z Z Z Z Z

>  <atom.prop.IS_HEAVY_ATOM>  (1205) 
1 0 0 0 1 0 0 1 0 0 0 1 0 0 0 1 1 0 1 0 1 0 1 0 1 0

>  <DIFUSE_FUNC_ATOM>  (1205) 
n/a

>  <FINAL_SINGLE_POINT_ENERGY>  (1205) 
0

>  <NONCOV_INTER_ENERGY_QM>  (1205) 
0

>  <FF_Energy>  (1205) 
-5.17

>  <QM_Energy>  (1205) 
-10.5

>  <source>  (1205) 
ETAM_MBZ

>  <Index>  (1205) 
12150

$$$$
ETAM-pdb1t0l-C-MET-1:MBZ-pdb1t0l-C-PHE-32
     RDKit          3D

 26 25  0  0  0  0  0  0  0  0999 V2000
   -0.9039    1.5950   -3.5064 C   0  0  0  0  0  0  0  0  0  0  0  0
   -1.1686    0.7003   -3.1195 H   0  0  0  0  0  0  0  0  0  0  0  0
   -1.1075    1.5774   -4.4958 H   0  0  0  0  0  0  0  0  0  0  0  0
    0.1727    1.7131   -3.3830 H   0  0  0  0  0  0  0  0  0  0  0  0
   -1.7544    2.6937   -2.8448 C   0  0  0  0  0  0  0  0  0  0  0  0
   -1.4776    2.8447   -1.8964 H   0  0  0  0  0  0  0  0  0  0  0  0
   -1.6281    3.6265   -3.3945 H   0  0  0  0  0  0  0  0  0  0  0  0
   -3.1940    2.2966   -2.8328 N   0  0  0  0  0  4  0  0  0  0  0  0
   -3.2658    1.3266   -3.0497 H   0  0  0  0  0  0  0  0  0  0  0  0
   -3.5723    2.4707   -1.9274 H   0  0  0  0  0  0  0  0  0  0  0  0
   -3.6851    2.8335   -3.5135 H   0  0  0  0  0  0  0  0  0  0  0  0
   -0.0077    2.9243   -0.0098 C   0  0  0  0  0  0  0  0  0  0  0  0
   -0.5144    3.2301    0.7807 H   0  0  0  0  0  0  0  0  0  0  0  0
   -0.4331    3.2192   -0.8509 H   0  0  0  0  0  0  0  0  0  0  0  0
    0.9853    3.3714    0.0364 H   0  0  0  0  0  0  0  0  0  0  0  0
   -0.0004    1.4098    0.0004 C   0  0  0  0  0  0  0  0  0  0  0  0
   -1.1955    0.6953    0.0001 C   0  0  0  0  0  0  0  0  0  0  0  0
   -2.0648    1.1798   -0.0009 H   0  0  0  0  0  0  0  0  0  0  0  0
   -1.1995   -0.7054   -0.0000 C   0  0  0  0  0  0  0  0  0  0  0  0
   -2.0785   -1.1937    0.0018 H   0  0  0  0  0  0  0  0  0  0  0  0
   -0.0016   -1.3990   -0.0012 C   0  0  0  0  0  0  0  0  0  0  0  0
   -0.0018   -2.3976   -0.0038 H   0  0  0  0  0  0  0  0  0  0  0  0
    1.1995   -0.6996   -0.0000 C   0  0  0  0  0  0  0  0  0  0  0  0
    2.0825   -1.1946    0.0019 H   0  0  0  0  0  0  0  0  0  0  0  0
    1.1974    0.6990    0.0007 C   0  0  0  0  0  0  0  0  0  0  0  0
    2.0661    1.1908    0.0007 H   0  0  0  0  0  0  0  0  0  0  0  0
  1  5  1  0
  5  8  1  0
  1  2  1  0
  1  3  1  0
  1  4  1  0
  5  6  1  0
  5  7  1  0
  8  9  1  0
  8 10  1  0
  8 11  1  0
 12 16  1  0
 16 17  2  0
 17 19  1  0
 19 21  2  0
 21 23  1  0
 23 25  2  0
 25 16  1  0
 12 13  1  0
 12 14  1  0
 12 15  1  0
 17 18  1  0
 19 20  1  0
 21 22  1  0
 23 24  1  0
 25 26  1  0
M  CHG  1   8   1
M  END
>  <PDB_ID>  (1206) 
pdb1t0l

>  <RESIDUE_NAME>  (1206) 
MET   PHE

>  <FRAG_NAME>  (1206) 
ETAM   MBZ

>  <FRAG_ATOM_NUM>  (1206) 
fragi: 11  fragj: 15

>  <atom.prop.CHAIN_ID>  (1206) 
A A A A A A A A A A A Z Z Z Z Z Z Z Z Z Z Z Z Z Z Z

>  <atom.prop.IS_HEAVY_ATOM>  (1206) 
1 0 0 0 1 0 0 1 0 0 0 1 0 0 0 1 1 0 1 0 1 0 1 0 1 0

>  <DIFUSE_FUNC_ATOM>  (1206) 
n/a

>  <FINAL_SINGLE_POINT_ENERGY>  (1206) 
0

>  <NONCOV_INTER_ENERGY_QM>  (1206) 
0

>  <FF_Energy>  (1206) 
24.27

>  <QM_Energy>  (1206) 
-2.34

>  <source>  (1206) 
ETAM_MBZ

>  <Index>  (1206) 
12151

$$$$
ETAM-pdb2yxg-C-LYS-251:MBZ-pdb2yxg-C-PHE-13
     RDKit          3D

 26 25  0  0  0  0  0  0  0  0999 V2000
    5.4923    1.2553   -3.3764 C   0  0  0  0  0  0  0  0  0  0  0  0
    5.7575    0.6038   -2.6871 H   0  0  0  0  0  0  0  0  0  0  0  0
    5.6547    2.1839   -3.0904 H   0  0  0  0  0  0  0  0  0  0  0  0
    6.1026    1.0687   -4.2600 H   0  0  0  0  0  0  0  0  0  0  0  0
    3.9837    1.0790   -3.6815 C   0  0  0  0  0  0  0  0  0  0  0  0
    3.6084    1.9827   -3.9272 H   0  0  0  0  0  0  0  0  0  0  0  0
    3.8970    0.4757   -4.4851 H   0  0  0  0  0  0  0  0  0  0  0  0
    3.2116    0.5108   -2.5487 N   0  0  0  0  0  4  0  0  0  0  0  0
    3.0745   -0.4694   -2.6965 H   0  0  0  0  0  0  0  0  0  0  0  0
    3.7162    0.6517   -1.6963 H   0  0  0  0  0  0  0  0  0  0  0  0
    2.3235    0.9663   -2.4887 H   0  0  0  0  0  0  0  0  0  0  0  0
    0.0038    2.9654   -0.0178 C   0  0  0  0  0  0  0  0  0  0  0  0
    0.9472    3.2550   -0.0453 H   0  0  0  0  0  0  0  0  0  0  0  0
   -0.4465    3.2750    0.8051 H   0  0  0  0  0  0  0  0  0  0  0  0
   -0.5125    3.3985   -0.8747 H   0  0  0  0  0  0  0  0  0  0  0  0
   -0.0050    1.4426    0.0030 C   0  0  0  0  0  0  0  0  0  0  0  0
   -1.2089    0.7225    0.0015 C   0  0  0  0  0  0  0  0  0  0  0  0
   -2.0784    1.1862    0.0003 H   0  0  0  0  0  0  0  0  0  0  0  0
   -1.2074   -0.7220   -0.0000 C   0  0  0  0  0  0  0  0  0  0  0  0
   -2.0787   -1.2021    0.0000 H   0  0  0  0  0  0  0  0  0  0  0  0
    0.0192   -1.4345    0.0003 C   0  0  0  0  0  0  0  0  0  0  0  0
    0.0044   -2.4231    0.0007 H   0  0  0  0  0  0  0  0  0  0  0  0
    1.2074   -0.7255   -0.0000 C   0  0  0  0  0  0  0  0  0  0  0  0
    2.1013   -1.1899    0.0045 H   0  0  0  0  0  0  0  0  0  0  0  0
    1.1947    0.7170   -0.0048 C   0  0  0  0  0  0  0  0  0  0  0  0
    2.0697    1.1934   -0.0142 H   0  0  0  0  0  0  0  0  0  0  0  0
  1  5  1  0
  5  8  1  0
  1  2  1  0
  1  3  1  0
  1  4  1  0
  5  6  1  0
  5  7  1  0
  8  9  1  0
  8 10  1  0
  8 11  1  0
 12 16  1  0
 16 17  2  0
 17 19  1  0
 19 21  2  0
 21 23  1  0
 23 25  2  0
 25 16  1  0
 12 13  1  0
 12 14  1  0
 12 15  1  0
 17 18  1  0
 19 20  1  0
 21 22  1  0
 23 24  1  0
 25 26  1  0
M  CHG  1   8   1
M  END
>  <PDB_ID>  (1207) 
pdb2yxg

>  <RESIDUE_NAME>  (1207) 
LYS   PHE

>  <FRAG_NAME>  (1207) 
ETAM   MBZ

>  <FRAG_ATOM_NUM>  (1207) 
fragi: 11  fragj: 15

>  <atom.prop.CHAIN_ID>  (1207) 
A A A A A A A A A A A Z Z Z Z Z Z Z Z Z Z Z Z Z Z Z

>  <atom.prop.IS_HEAVY_ATOM>  (1207) 
1 0 0 0 1 0 0 1 0 0 0 1 0 0 0 1 1 0 1 0 1 0 1 0 1 0

>  <DIFUSE_FUNC_ATOM>  (1207) 
n/a

>  <FINAL_SINGLE_POINT_ENERGY>  (1207) 
0

>  <NONCOV_INTER_ENERGY_QM>  (1207) 
0

>  <FF_Energy>  (1207) 
-2.02

>  <QM_Energy>  (1207) 
-8.09

>  <source>  (1207) 
ETAM_MBZ

>  <Index>  (1207) 
12155

$$$$
ETAM-pdb2yzh-D-LYS-66:MBZ-pdb2yzh-D-PHE-98
     RDKit          3D

 26 25  0  0  0  0  0  0  0  0999 V2000
    3.2935    3.0870   -0.9010 C   0  0  0  0  0  0  0  0  0  0  0  0
    3.3293    3.6972   -1.6935 H   0  0  0  0  0  0  0  0  0  0  0  0
    2.3395    2.8648   -0.6964 H   0  0  0  0  0  0  0  0  0  0  0  0
    3.8231    2.1661   -1.1451 H   0  0  0  0  0  0  0  0  0  0  0  0
    3.8843    3.8218    0.2996 C   0  0  0  0  0  0  0  0  0  0  0  0
    4.8868    3.7973    0.2332 H   0  0  0  0  0  0  0  0  0  0  0  0
    3.5843    4.7812    0.2721 H   0  0  0  0  0  0  0  0  0  0  0  0
    3.4680    3.2186    1.6029 N   0  0  0  0  0  4  0  0  0  0  0  0
    4.0648    3.5592    2.3273 H   0  0  0  0  0  0  0  0  0  0  0  0
    2.5225    3.4749    1.7954 H   0  0  0  0  0  0  0  0  0  0  0  0
    3.5433    2.2248    1.5433 H   0  0  0  0  0  0  0  0  0  0  0  0
    0.0066    2.9085    0.0046 C   0  0  0  0  0  0  0  0  0  0  0  0
   -0.5849    3.2198   -0.7232 H   0  0  0  0  0  0  0  0  0  0  0  0
    0.9375    3.2117   -0.1323 H   0  0  0  0  0  0  0  0  0  0  0  0
   -0.3519    3.3474    0.9357 H   0  0  0  0  0  0  0  0  0  0  0  0
    0.0007    1.4049   -0.0007 C   0  0  0  0  0  0  0  0  0  0  0  0
   -1.1963    0.6984    0.0001 C   0  0  0  0  0  0  0  0  0  0  0  0
   -2.0627    1.1879   -0.0005 H   0  0  0  0  0  0  0  0  0  0  0  0
   -1.2037   -0.6971    0.0000 C   0  0  0  0  0  0  0  0  0  0  0  0
   -2.0808   -1.1875    0.0016 H   0  0  0  0  0  0  0  0  0  0  0  0
   -0.0011   -1.3973    0.0000 C   0  0  0  0  0  0  0  0  0  0  0  0
   -0.0070   -2.3950   -0.0007 H   0  0  0  0  0  0  0  0  0  0  0  0
    1.2037   -0.7019   -0.0000 C   0  0  0  0  0  0  0  0  0  0  0  0
    2.0831   -1.1980    0.0010 H   0  0  0  0  0  0  0  0  0  0  0  0
    1.1967    0.6930    0.0005 C   0  0  0  0  0  0  0  0  0  0  0  0
    2.0666    1.1883    0.0015 H   0  0  0  0  0  0  0  0  0  0  0  0
  1  5  1  0
  5  8  1  0
  1  2  1  0
  1  3  1  0
  1  4  1  0
  5  6  1  0
  5  7  1  0
  8  9  1  0
  8 10  1  0
  8 11  1  0
 12 16  1  0
 16 17  2  0
 17 19  1  0
 19 21  2  0
 21 23  1  0
 23 25  2  0
 25 16  1  0
 12 13  1  0
 12 14  1  0
 12 15  1  0
 17 18  1  0
 19 20  1  0
 21 22  1  0
 23 24  1  0
 25 26  1  0
M  CHG  1   8   1
M  END
>  <PDB_ID>  (1208) 
pdb2yzh

>  <RESIDUE_NAME>  (1208) 
LYS   PHE

>  <FRAG_NAME>  (1208) 
ETAM   MBZ

>  <FRAG_ATOM_NUM>  (1208) 
fragi: 11  fragj: 15

>  <atom.prop.CHAIN_ID>  (1208) 
A A A A A A A A A A A Z Z Z Z Z Z Z Z Z Z Z Z Z Z Z

>  <atom.prop.IS_HEAVY_ATOM>  (1208) 
1 0 0 0 1 0 0 1 0 0 0 1 0 0 0 1 1 0 1 0 1 0 1 0 1 0

>  <DIFUSE_FUNC_ATOM>  (1208) 
n/a

>  <FINAL_SINGLE_POINT_ENERGY>  (1208) 
0

>  <NONCOV_INTER_ENERGY_QM>  (1208) 
0

>  <FF_Energy>  (1208) 
22.92

>  <QM_Energy>  (1208) 
2.35

>  <source>  (1208) 
ETAM_MBZ

>  <Index>  (1208) 
12176

$$$$
ETAM-pdb1t2a-A-LYS-149:MBZ-pdb1t2a-A-PHE-200
     RDKit          3D

 26 25  0  0  0  0  0  0  0  0999 V2000
   -1.0363    0.2440    4.2351 C   0  0  0  0  0  0  0  0  0  0  0  0
   -1.7386    0.0760    4.9532 H   0  0  0  0  0  0  0  0  0  0  0  0
   -1.2301   -0.4083    3.4784 H   0  0  0  0  0  0  0  0  0  0  0  0
   -1.1854    1.2538    3.8528 H   0  0  0  0  0  0  0  0  0  0  0  0
    0.3054   -0.0439    4.7920 C   0  0  0  0  0  0  0  0  0  0  0  0
    0.5342    0.5948    5.4725 H   0  0  0  0  0  0  0  0  0  0  0  0
    0.3797   -0.9706    5.0349 H   0  0  0  0  0  0  0  0  0  0  0  0
    1.1397    0.2119    3.5814 N   0  0  0  0  0  4  0  0  0  0  0  0
    2.0880    0.3581    3.8592 H   0  0  0  0  0  0  0  0  0  0  0  0
    1.0862   -0.5777    2.9710 H   0  0  0  0  0  0  0  0  0  0  0  0
    0.7982    1.0240    3.1111 H   0  0  0  0  0  0  0  0  0  0  0  0
   -0.0038    2.9224   -0.0071 C   0  0  0  0  0  0  0  0  0  0  0  0
    0.9139    3.2425    0.1788 H   0  0  0  0  0  0  0  0  0  0  0  0
   -0.6404    3.2409    0.6800 H   0  0  0  0  0  0  0  0  0  0  0  0
   -0.3084    3.3762   -0.9502 H   0  0  0  0  0  0  0  0  0  0  0  0
    0.0005    1.4209   -0.0004 C   0  0  0  0  0  0  0  0  0  0  0  0
   -1.2042    0.6985    0.0082 C   0  0  0  0  0  0  0  0  0  0  0  0
   -2.0700    1.1948    0.0197 H   0  0  0  0  0  0  0  0  0  0  0  0
   -1.2194   -0.6960    0.0000 C   0  0  0  0  0  0  0  0  0  0  0  0
   -2.0948   -1.1873   -0.0006 H   0  0  0  0  0  0  0  0  0  0  0  0
   -0.0085   -1.4194   -0.0056 C   0  0  0  0  0  0  0  0  0  0  0  0
   -0.0204   -2.4069   -0.0136 H   0  0  0  0  0  0  0  0  0  0  0  0
    1.2194   -0.7178   -0.0000 C   0  0  0  0  0  0  0  0  0  0  0  0
    2.0907   -1.2044    0.0072 H   0  0  0  0  0  0  0  0  0  0  0  0
    1.2122    0.7139   -0.0022 C   0  0  0  0  0  0  0  0  0  0  0  0
    2.0759    1.1974   -0.0060 H   0  0  0  0  0  0  0  0  0  0  0  0
  1  5  1  0
  5  8  1  0
  1  2  1  0
  1  3  1  0
  1  4  1  0
  5  6  1  0
  5  7  1  0
  8  9  1  0
  8 10  1  0
  8 11  1  0
 12 16  1  0
 16 17  2  0
 17 19  1  0
 19 21  2  0
 21 23  1  0
 23 25  2  0
 25 16  1  0
 12 13  1  0
 12 14  1  0
 12 15  1  0
 17 18  1  0
 19 20  1  0
 21 22  1  0
 23 24  1  0
 25 26  1  0
M  CHG  1   8   1
M  END
>  <PDB_ID>  (1209) 
pdb1t2a

>  <RESIDUE_NAME>  (1209) 
LYS   PHE

>  <FRAG_NAME>  (1209) 
ETAM   MBZ

>  <FRAG_ATOM_NUM>  (1209) 
fragi: 11  fragj: 15

>  <atom.prop.CHAIN_ID>  (1209) 
A A A A A A A A A A A Z Z Z Z Z Z Z Z Z Z Z Z Z Z Z

>  <atom.prop.IS_HEAVY_ATOM>  (1209) 
1 0 0 0 1 0 0 1 0 0 0 1 0 0 0 1 1 0 1 0 1 0 1 0 1 0

>  <DIFUSE_FUNC_ATOM>  (1209) 
n/a

>  <FINAL_SINGLE_POINT_ENERGY>  (1209) 
0

>  <NONCOV_INTER_ENERGY_QM>  (1209) 
0

>  <FF_Energy>  (1209) 
-7.18

>  <QM_Energy>  (1209) 
-12.72

>  <source>  (1209) 
ETAM_MBZ

>  <Index>  (1209) 
12185

$$$$
ETAM-pdb1t2a-C-LYS-149:MBZ-pdb1t2a-C-PHE-200
     RDKit          3D

 26 25  0  0  0  0  0  0  0  0999 V2000
   -0.3749    1.8255    3.1464 C   0  0  0  0  0  0  0  0  0  0  0  0
   -0.4893    1.4345    2.2542 H   0  0  0  0  0  0  0  0  0  0  0  0
   -0.1372    2.7772    3.1155 H   0  0  0  0  0  0  0  0  0  0  0  0
   -1.2421    1.6443    3.7813 H   0  0  0  0  0  0  0  0  0  0  0  0
    0.7918    1.0899    3.8163 C   0  0  0  0  0  0  0  0  0  0  0  0
    1.5451    1.0414    3.1861 H   0  0  0  0  0  0  0  0  0  0  0  0
    1.0331    1.5583    4.6475 H   0  0  0  0  0  0  0  0  0  0  0  0
    0.3260   -0.2994    4.1446 N   0  0  0  0  0  4  0  0  0  0  0  0
    0.7810   -0.9467    3.5369 H   0  0  0  0  0  0  0  0  0  0  0  0
    0.5576   -0.5037    5.0931 H   0  0  0  0  0  0  0  0  0  0  0  0
   -0.6621   -0.3493    4.0169 H   0  0  0  0  0  0  0  0  0  0  0  0
    0.0099    2.9452   -0.0776 C   0  0  0  0  0  0  0  0  0  0  0  0
    0.9325    3.2505    0.0621 H   0  0  0  0  0  0  0  0  0  0  0  0
   -0.6069    3.2851    0.6064 H   0  0  0  0  0  0  0  0  0  0  0  0
   -0.3240    3.3198   -1.0451 H   0  0  0  0  0  0  0  0  0  0  0  0
    0.0029    1.4288    0.0002 C   0  0  0  0  0  0  0  0  0  0  0  0
   -1.2048    0.7221    0.0037 C   0  0  0  0  0  0  0  0  0  0  0  0
   -2.0684    1.1994    0.0077 H   0  0  0  0  0  0  0  0  0  0  0  0
   -1.2128   -0.7053   -0.0000 C   0  0  0  0  0  0  0  0  0  0  0  0
   -2.0946   -1.1792    0.0038 H   0  0  0  0  0  0  0  0  0  0  0  0
   -0.0122   -1.4144   -0.0063 C   0  0  0  0  0  0  0  0  0  0  0  0
   -0.0291   -2.4158   -0.0159 H   0  0  0  0  0  0  0  0  0  0  0  0
    1.2128   -0.7399    0.0000 C   0  0  0  0  0  0  0  0  0  0  0  0
    2.0830   -1.2200    0.0043 H   0  0  0  0  0  0  0  0  0  0  0  0
    1.2141    0.7088    0.0024 C   0  0  0  0  0  0  0  0  0  0  0  0
    2.0809    1.1802    0.0048 H   0  0  0  0  0  0  0  0  0  0  0  0
  1  5  1  0
  5  8  1  0
  1  2  1  0
  1  3  1  0
  1  4  1  0
  5  6  1  0
  5  7  1  0
  8  9  1  0
  8 10  1  0
  8 11  1  0
 12 16  1  0
 16 17  2  0
 17 19  1  0
 19 21  2  0
 21 23  1  0
 23 25  2  0
 25 16  1  0
 12 13  1  0
 12 14  1  0
 12 15  1  0
 17 18  1  0
 19 20  1  0
 21 22  1  0
 23 24  1  0
 25 26  1  0
M  CHG  1   8   1
M  END
>  <PDB_ID>  (1210) 
pdb1t2a

>  <RESIDUE_NAME>  (1210) 
LYS   PHE

>  <FRAG_NAME>  (1210) 
ETAM   MBZ

>  <FRAG_ATOM_NUM>  (1210) 
fragi: 11  fragj: 15

>  <atom.prop.CHAIN_ID>  (1210) 
A A A A A A A A A A A Z Z Z Z Z Z Z Z Z Z Z Z Z Z Z

>  <atom.prop.IS_HEAVY_ATOM>  (1210) 
1 0 0 0 1 0 0 1 0 0 0 1 0 0 0 1 1 0 1 0 1 0 1 0 1 0

>  <DIFUSE_FUNC_ATOM>  (1210) 
n/a

>  <FINAL_SINGLE_POINT_ENERGY>  (1210) 
0

>  <NONCOV_INTER_ENERGY_QM>  (1210) 
0

>  <FF_Energy>  (1210) 
-1.85

>  <QM_Energy>  (1210) 
-9.18

>  <source>  (1210) 
ETAM_MBZ

>  <Index>  (1210) 
12192

$$$$
ETAM-pdb1t2a-D-LYS-149:MBZ-pdb1t2a-D-PHE-200
     RDKit          3D

 26 25  0  0  0  0  0  0  0  0999 V2000
   -0.9859    0.0619    3.8535 C   0  0  0  0  0  0  0  0  0  0  0  0
   -1.4155   -0.2271    4.7096 H   0  0  0  0  0  0  0  0  0  0  0  0
   -1.3173   -0.5120    3.1043 H   0  0  0  0  0  0  0  0  0  0  0  0
   -1.2360    1.1039    3.6537 H   0  0  0  0  0  0  0  0  0  0  0  0
    0.5371   -0.1838    3.9893 C   0  0  0  0  0  0  0  0  0  0  0  0
    1.0118    0.3198    3.2972 H   0  0  0  0  0  0  0  0  0  0  0  0
    0.8256    0.0493    4.8957 H   0  0  0  0  0  0  0  0  0  0  0  0
    0.8087   -1.6941    3.7650 N   0  0  0  0  0  4  0  0  0  0  0  0
    1.7717   -1.7992    3.5642 H   0  0  0  0  0  0  0  0  0  0  0  0
    0.5619   -2.1709    4.5964 H   0  0  0  0  0  0  0  0  0  0  0  0
    0.2498   -1.9898    3.0036 H   0  0  0  0  0  0  0  0  0  0  0  0
   -0.0169    2.9414   -0.0550 C   0  0  0  0  0  0  0  0  0  0  0  0
    0.8966    3.2620    0.1294 H   0  0  0  0  0  0  0  0  0  0  0  0
   -0.6645    3.2757    0.6078 H   0  0  0  0  0  0  0  0  0  0  0  0
   -0.3105    3.3454   -1.0238 H   0  0  0  0  0  0  0  0  0  0  0  0
   -0.0132    1.4365   -0.0006 C   0  0  0  0  0  0  0  0  0  0  0  0
   -1.2237    0.7166    0.0021 C   0  0  0  0  0  0  0  0  0  0  0  0
   -2.0884    1.1976    0.0045 H   0  0  0  0  0  0  0  0  0  0  0  0
   -1.2296   -0.7054    0.0000 C   0  0  0  0  0  0  0  0  0  0  0  0
   -2.0950   -1.1975    0.0007 H   0  0  0  0  0  0  0  0  0  0  0  0
    0.0096   -1.4381   -0.0016 C   0  0  0  0  0  0  0  0  0  0  0  0
   -0.0079   -2.4184   -0.0045 H   0  0  0  0  0  0  0  0  0  0  0  0
    1.2296   -0.7224    0.0000 C   0  0  0  0  0  0  0  0  0  0  0  0
    2.1079   -1.2064    0.0024 H   0  0  0  0  0  0  0  0  0  0  0  0
    1.2273    0.7128    0.0001 C   0  0  0  0  0  0  0  0  0  0  0  0
    2.0789    1.2025   -0.0001 H   0  0  0  0  0  0  0  0  0  0  0  0
  1  5  1  0
  5  8  1  0
  1  2  1  0
  1  3  1  0
  1  4  1  0
  5  6  1  0
  5  7  1  0
  8  9  1  0
  8 10  1  0
  8 11  1  0
 12 16  1  0
 16 17  2  0
 17 19  1  0
 19 21  2  0
 21 23  1  0
 23 25  2  0
 25 16  1  0
 12 13  1  0
 12 14  1  0
 12 15  1  0
 17 18  1  0
 19 20  1  0
 21 22  1  0
 23 24  1  0
 25 26  1  0
M  CHG  1   8   1
M  END
>  <PDB_ID>  (1211) 
pdb1t2a

>  <RESIDUE_NAME>  (1211) 
LYS   PHE

>  <FRAG_NAME>  (1211) 
ETAM   MBZ

>  <FRAG_ATOM_NUM>  (1211) 
fragi: 11  fragj: 15

>  <atom.prop.CHAIN_ID>  (1211) 
A A A A A A A A A A A Z Z Z Z Z Z Z Z Z Z Z Z Z Z Z

>  <atom.prop.IS_HEAVY_ATOM>  (1211) 
1 0 0 0 1 0 0 1 0 0 0 1 0 0 0 1 1 0 1 0 1 0 1 0 1 0

>  <DIFUSE_FUNC_ATOM>  (1211) 
n/a

>  <FINAL_SINGLE_POINT_ENERGY>  (1211) 
0

>  <NONCOV_INTER_ENERGY_QM>  (1211) 
0

>  <FF_Energy>  (1211) 
-5.81

>  <QM_Energy>  (1211) 
-11.55

>  <source>  (1211) 
ETAM_MBZ

>  <Index>  (1211) 
12195

$$$$
ETAM-pdb2yxg-D-LYS-251:MBZ-pdb2yxg-D-PHE-13
     RDKit          3D

 26 25  0  0  0  0  0  0  0  0999 V2000
    5.1626    0.7670   -3.7919 C   0  0  0  0  0  0  0  0  0  0  0  0
    5.4099   -0.1120   -3.3928 H   0  0  0  0  0  0  0  0  0  0  0  0
    5.5408    1.5097   -3.2460 H   0  0  0  0  0  0  0  0  0  0  0  0
    5.5887    0.8222   -4.7936 H   0  0  0  0  0  0  0  0  0  0  0  0
    3.6149    0.8909   -3.7708 C   0  0  0  0  0  0  0  0  0  0  0  0
    3.3728    1.8453   -4.0016 H   0  0  0  0  0  0  0  0  0  0  0  0
    3.2414    0.2949   -4.4979 H   0  0  0  0  0  0  0  0  0  0  0  0
    2.9690    0.5260   -2.4602 N   0  0  0  0  0  4  0  0  0  0  0  0
    1.9949    0.3772   -2.6104 H   0  0  0  0  0  0  0  0  0  0  0  0
    3.3917   -0.3071   -2.1131 H   0  0  0  0  0  0  0  0  0  0  0  0
    3.1048    1.2734   -1.8146 H   0  0  0  0  0  0  0  0  0  0  0  0
    0.0128    2.8617    0.0054 C   0  0  0  0  0  0  0  0  0  0  0  0
    0.9441    3.1789   -0.1294 H   0  0  0  0  0  0  0  0  0  0  0  0
   -0.3470    3.1927    0.8699 H   0  0  0  0  0  0  0  0  0  0  0  0
   -0.5910    3.3154   -0.7805 H   0  0  0  0  0  0  0  0  0  0  0  0
   -0.0011    1.3954    0.0071 C   0  0  0  0  0  0  0  0  0  0  0  0
   -1.1986    0.6871   -0.0054 C   0  0  0  0  0  0  0  0  0  0  0  0
   -2.0644    1.1788   -0.0194 H   0  0  0  0  0  0  0  0  0  0  0  0
   -1.2017   -0.6994    0.0000 C   0  0  0  0  0  0  0  0  0  0  0  0
   -2.0718   -1.1986    0.0150 H   0  0  0  0  0  0  0  0  0  0  0  0
    0.0088   -1.3878   -0.0138 C   0  0  0  0  0  0  0  0  0  0  0  0
    0.0058   -2.3887   -0.0346 H   0  0  0  0  0  0  0  0  0  0  0  0
    1.2017   -0.6907   -0.0000 C   0  0  0  0  0  0  0  0  0  0  0  0
    2.0865   -1.1851    0.0030 H   0  0  0  0  0  0  0  0  0  0  0  0
    1.1910    0.6954    0.0121 C   0  0  0  0  0  0  0  0  0  0  0  0
    2.0599    1.1949    0.0243 H   0  0  0  0  0  0  0  0  0  0  0  0
  1  5  1  0
  5  8  1  0
  1  2  1  0
  1  3  1  0
  1  4  1  0
  5  6  1  0
  5  7  1  0
  8  9  1  0
  8 10  1  0
  8 11  1  0
 12 16  1  0
 16 17  2  0
 17 19  1  0
 19 21  2  0
 21 23  1  0
 23 25  2  0
 25 16  1  0
 12 13  1  0
 12 14  1  0
 12 15  1  0
 17 18  1  0
 19 20  1  0
 21 22  1  0
 23 24  1  0
 25 26  1  0
M  CHG  1   8   1
M  END
>  <PDB_ID>  (1212) 
pdb2yxg

>  <RESIDUE_NAME>  (1212) 
LYS   PHE

>  <FRAG_NAME>  (1212) 
ETAM   MBZ

>  <FRAG_ATOM_NUM>  (1212) 
fragi: 11  fragj: 15

>  <atom.prop.CHAIN_ID>  (1212) 
A A A A A A A A A A A Z Z Z Z Z Z Z Z Z Z Z Z Z Z Z

>  <atom.prop.IS_HEAVY_ATOM>  (1212) 
1 0 0 0 1 0 0 1 0 0 0 1 0 0 0 1 1 0 1 0 1 0 1 0 1 0

>  <DIFUSE_FUNC_ATOM>  (1212) 
n/a

>  <FINAL_SINGLE_POINT_ENERGY>  (1212) 
0

>  <NONCOV_INTER_ENERGY_QM>  (1212) 
0

>  <FF_Energy>  (1212) 
-1.67

>  <QM_Energy>  (1212) 
-8.1

>  <source>  (1212) 
ETAM_MBZ

>  <Index>  (1212) 
12201

$$$$
ETAM-pdb2yz1-A-LYS-72:MBZ-pdb2yz1-A-PHE-78
     RDKit          3D

 26 25  0  0  0  0  0  0  0  0999 V2000
    0.6108   -1.4215    5.2640 C   0  0  0  0  0  0  0  0  0  0  0  0
    0.3261   -2.3405    5.0610 H   0  0  0  0  0  0  0  0  0  0  0  0
   -0.1454   -0.7936    5.2871 H   0  0  0  0  0  0  0  0  0  0  0  0
    1.0621   -1.4294    6.2562 H   0  0  0  0  0  0  0  0  0  0  0  0
    1.6293   -0.9673    4.2829 C   0  0  0  0  0  0  0  0  0  0  0  0
    1.7513    0.0303    4.3873 H   0  0  0  0  0  0  0  0  0  0  0  0
    2.5091   -1.4116    4.5057 H   0  0  0  0  0  0  0  0  0  0  0  0
    1.2204   -1.2896    2.9816 N   0  0  0  0  0  4  0  0  0  0  0  0
    0.9437   -2.2627    2.9052 H   0  0  0  0  0  0  0  0  0  0  0  0
    0.4266   -0.7293    2.6886 H   0  0  0  0  0  0  0  0  0  0  0  0
    1.9622   -1.1355    2.3067 H   0  0  0  0  0  0  0  0  0  0  0  0
   -0.0101    2.8865    0.0514 C   0  0  0  0  0  0  0  0  0  0  0  0
   -0.8003    3.2204   -0.4045 H   0  0  0  0  0  0  0  0  0  0  0  0
    0.8290    3.2308   -0.2966 H   0  0  0  0  0  0  0  0  0  0  0  0
   -0.0807    3.2217    1.0862 H   0  0  0  0  0  0  0  0  0  0  0  0
    0.0025    1.4059    0.0004 C   0  0  0  0  0  0  0  0  0  0  0  0
   -1.2067    0.6970   -0.0215 C   0  0  0  0  0  0  0  0  0  0  0  0
   -2.0690    1.1738   -0.0537 H   0  0  0  0  0  0  0  0  0  0  0  0
   -1.2101   -0.7284    0.0000 C   0  0  0  0  0  0  0  0  0  0  0  0
   -2.0802   -1.2080    0.0092 H   0  0  0  0  0  0  0  0  0  0  0  0
   -0.0001   -1.3967    0.0094 C   0  0  0  0  0  0  0  0  0  0  0  0
    0.0184   -2.4001    0.0222 H   0  0  0  0  0  0  0  0  0  0  0  0
    1.2101   -0.6873   -0.0000 C   0  0  0  0  0  0  0  0  0  0  0  0
    2.0885   -1.1849   -0.0138 H   0  0  0  0  0  0  0  0  0  0  0  0
    1.2043    0.7095    0.0117 C   0  0  0  0  0  0  0  0  0  0  0  0
    2.0678    1.2055    0.0269 H   0  0  0  0  0  0  0  0  0  0  0  0
  1  5  1  0
  5  8  1  0
  1  2  1  0
  1  3  1  0
  1  4  1  0
  5  6  1  0
  5  7  1  0
  8  9  1  0
  8 10  1  0
  8 11  1  0
 12 16  1  0
 16 17  2  0
 17 19  1  0
 19 21  2  0
 21 23  1  0
 23 25  2  0
 25 16  1  0
 12 13  1  0
 12 14  1  0
 12 15  1  0
 17 18  1  0
 19 20  1  0
 21 22  1  0
 23 24  1  0
 25 26  1  0
M  CHG  1   8   1
M  END
>  <PDB_ID>  (1213) 
pdb2yz1

>  <RESIDUE_NAME>  (1213) 
LYS   PHE

>  <FRAG_NAME>  (1213) 
ETAM   MBZ

>  <FRAG_ATOM_NUM>  (1213) 
fragi: 11  fragj: 15

>  <atom.prop.CHAIN_ID>  (1213) 
A A A A A A A A A A A Z Z Z Z Z Z Z Z Z Z Z Z Z Z Z

>  <atom.prop.IS_HEAVY_ATOM>  (1213) 
1 0 0 0 1 0 0 1 0 0 0 1 0 0 0 1 1 0 1 0 1 0 1 0 1 0

>  <DIFUSE_FUNC_ATOM>  (1213) 
n/a

>  <FINAL_SINGLE_POINT_ENERGY>  (1213) 
0

>  <NONCOV_INTER_ENERGY_QM>  (1213) 
0

>  <FF_Energy>  (1213) 
-5.16

>  <QM_Energy>  (1213) 
-13.11

>  <source>  (1213) 
ETAM_MBZ

>  <Index>  (1213) 
12204

$$$$
ETAM-pdb1t33-B-LYS-73:MBZ-pdb1t33-B-PHE-69
     RDKit          3D

 26 25  0  0  0  0  0  0  0  0999 V2000
    0.2127   -2.3408    3.9582 C   0  0  0  0  0  0  0  0  0  0  0  0
    0.4541   -2.7462    3.0764 H   0  0  0  0  0  0  0  0  0  0  0  0
    0.6556   -2.8517    4.6946 H   0  0  0  0  0  0  0  0  0  0  0  0
    0.5682   -1.3106    3.9808 H   0  0  0  0  0  0  0  0  0  0  0  0
   -1.2864   -2.4342    4.1386 C   0  0  0  0  0  0  0  0  0  0  0  0
   -1.5421   -3.3962    4.2663 H   0  0  0  0  0  0  0  0  0  0  0  0
   -1.5518   -1.9157    4.9559 H   0  0  0  0  0  0  0  0  0  0  0  0
   -2.0121   -1.8902    2.9610 N   0  0  0  0  0  4  0  0  0  0  0  0
   -1.4973   -2.0959    2.1285 H   0  0  0  0  0  0  0  0  0  0  0  0
   -2.9178   -2.3104    2.9053 H   0  0  0  0  0  0  0  0  0  0  0  0
   -2.1082   -0.8998    3.0586 H   0  0  0  0  0  0  0  0  0  0  0  0
    0.0031    2.9030    0.0093 C   0  0  0  0  0  0  0  0  0  0  0  0
   -0.6766    3.2165   -0.6377 H   0  0  0  0  0  0  0  0  0  0  0  0
    0.9079    3.2115   -0.2446 H   0  0  0  0  0  0  0  0  0  0  0  0
   -0.2354    3.3398    0.9790 H   0  0  0  0  0  0  0  0  0  0  0  0
    0.0001    1.4040   -0.0004 C   0  0  0  0  0  0  0  0  0  0  0  0
   -1.1953    0.6979    0.0008 C   0  0  0  0  0  0  0  0  0  0  0  0
   -2.0632    1.1881    0.0014 H   0  0  0  0  0  0  0  0  0  0  0  0
   -1.2042   -0.6955    0.0000 C   0  0  0  0  0  0  0  0  0  0  0  0
   -2.0812   -1.1867    0.0009 H   0  0  0  0  0  0  0  0  0  0  0  0
   -0.0008   -1.4003    0.0001 C   0  0  0  0  0  0  0  0  0  0  0  0
   -0.0085   -2.3958   -0.0003 H   0  0  0  0  0  0  0  0  0  0  0  0
    1.2042   -0.7030    0.0000 C   0  0  0  0  0  0  0  0  0  0  0  0
    2.0838   -1.1960    0.0016 H   0  0  0  0  0  0  0  0  0  0  0  0
    1.1960    0.6969   -0.0004 C   0  0  0  0  0  0  0  0  0  0  0  0
    2.0648    1.1900   -0.0017 H   0  0  0  0  0  0  0  0  0  0  0  0
  1  5  1  0
  5  8  1  0
  1  2  1  0
  1  3  1  0
  1  4  1  0
  5  6  1  0
  5  7  1  0
  8  9  1  0
  8 10  1  0
  8 11  1  0
 12 16  1  0
 16 17  2  0
 17 19  1  0
 19 21  2  0
 21 23  1  0
 23 25  2  0
 25 16  1  0
 12 13  1  0
 12 14  1  0
 12 15  1  0
 17 18  1  0
 19 20  1  0
 21 22  1  0
 23 24  1  0
 25 26  1  0
M  CHG  1   8   1
M  END
>  <PDB_ID>  (1214) 
pdb1t33

>  <RESIDUE_NAME>  (1214) 
LYS   PHE

>  <FRAG_NAME>  (1214) 
ETAM   MBZ

>  <FRAG_ATOM_NUM>  (1214) 
fragi: 11  fragj: 15

>  <atom.prop.CHAIN_ID>  (1214) 
A A A A A A A A A A A Z Z Z Z Z Z Z Z Z Z Z Z Z Z Z

>  <atom.prop.IS_HEAVY_ATOM>  (1214) 
1 0 0 0 1 0 0 1 0 0 0 1 0 0 0 1 1 0 1 0 1 0 1 0 1 0

>  <DIFUSE_FUNC_ATOM>  (1214) 
n/a

>  <FINAL_SINGLE_POINT_ENERGY>  (1214) 
0

>  <NONCOV_INTER_ENERGY_QM>  (1214) 
0

>  <FF_Energy>  (1214) 
-3.72

>  <QM_Energy>  (1214) 
-10.31

>  <source>  (1214) 
ETAM_MBZ

>  <Index>  (1214) 
12210

$$$$
ETAM-pdb2yzh-B-LYS-66:MBZ-pdb2yzh-B-PHE-98
     RDKit          3D

 26 25  0  0  0  0  0  0  0  0999 V2000
    1.5140    1.0178   -4.6222 C   0  0  0  0  0  0  0  0  0  0  0  0
    1.4645    0.3483   -5.3599 H   0  0  0  0  0  0  0  0  0  0  0  0
    2.4098    1.4573   -4.6219 H   0  0  0  0  0  0  0  0  0  0  0  0
    0.7504    1.7778   -4.7878 H   0  0  0  0  0  0  0  0  0  0  0  0
    1.3252    0.2999   -3.3006 C   0  0  0  0  0  0  0  0  0  0  0  0
    1.3751    0.9671   -2.5547 H   0  0  0  0  0  0  0  0  0  0  0  0
    0.4232   -0.1367   -3.2908 H   0  0  0  0  0  0  0  0  0  0  0  0
    2.3722   -0.7399   -3.0953 N   0  0  0  0  0  4  0  0  0  0  0  0
    1.9520   -1.6450   -3.1401 H   0  0  0  0  0  0  0  0  0  0  0  0
    3.0662   -0.6557   -3.8088 H   0  0  0  0  0  0  0  0  0  0  0  0
    2.7955   -0.6106   -2.1992 H   0  0  0  0  0  0  0  0  0  0  0  0
   -0.0018    2.9053    0.0425 C   0  0  0  0  0  0  0  0  0  0  0  0
   -0.9172    3.2161   -0.1577 H   0  0  0  0  0  0  0  0  0  0  0  0
    0.6469    3.2304   -0.6272 H   0  0  0  0  0  0  0  0  0  0  0  0
    0.2857    3.3135    1.0114 H   0  0  0  0  0  0  0  0  0  0  0  0
   -0.0007    1.4028    0.0005 C   0  0  0  0  0  0  0  0  0  0  0  0
   -1.1980    0.6937   -0.0006 C   0  0  0  0  0  0  0  0  0  0  0  0
   -2.0642    1.1839   -0.0027 H   0  0  0  0  0  0  0  0  0  0  0  0
   -1.2036   -0.6984    0.0000 C   0  0  0  0  0  0  0  0  0  0  0  0
   -2.0784   -1.1918    0.0010 H   0  0  0  0  0  0  0  0  0  0  0  0
    0.0010   -1.3959    0.0007 C   0  0  0  0  0  0  0  0  0  0  0  0
   -0.0028   -2.3932    0.0017 H   0  0  0  0  0  0  0  0  0  0  0  0
    1.2036   -0.6973   -0.0000 C   0  0  0  0  0  0  0  0  0  0  0  0
    2.0840   -1.1943    0.0012 H   0  0  0  0  0  0  0  0  0  0  0  0
    1.1977    0.6952   -0.0006 C   0  0  0  0  0  0  0  0  0  0  0  0
    2.0649    1.1926   -0.0023 H   0  0  0  0  0  0  0  0  0  0  0  0
  1  5  1  0
  5  8  1  0
  1  2  1  0
  1  3  1  0
  1  4  1  0
  5  6  1  0
  5  7  1  0
  8  9  1  0
  8 10  1  0
  8 11  1  0
 12 16  1  0
 16 17  2  0
 17 19  1  0
 19 21  2  0
 21 23  1  0
 23 25  2  0
 25 16  1  0
 12 13  1  0
 12 14  1  0
 12 15  1  0
 17 18  1  0
 19 20  1  0
 21 22  1  0
 23 24  1  0
 25 26  1  0
M  CHG  1   8   1
M  END
>  <PDB_ID>  (1215) 
pdb2yzh

>  <RESIDUE_NAME>  (1215) 
LYS   PHE

>  <FRAG_NAME>  (1215) 
ETAM   MBZ

>  <FRAG_ATOM_NUM>  (1215) 
fragi: 11  fragj: 15

>  <atom.prop.CHAIN_ID>  (1215) 
A A A A A A A A A A A Z Z Z Z Z Z Z Z Z Z Z Z Z Z Z

>  <atom.prop.IS_HEAVY_ATOM>  (1215) 
1 0 0 0 1 0 0 1 0 0 0 1 0 0 0 1 1 0 1 0 1 0 1 0 1 0

>  <DIFUSE_FUNC_ATOM>  (1215) 
n/a

>  <FINAL_SINGLE_POINT_ENERGY>  (1215) 
0

>  <NONCOV_INTER_ENERGY_QM>  (1215) 
0

>  <FF_Energy>  (1215) 
-4.09

>  <QM_Energy>  (1215) 
-10.27

>  <source>  (1215) 
ETAM_MBZ

>  <Index>  (1215) 
12215

$$$$
ETAM-pdb2yxg-D-LYS-239:MBZ-pdb2yxg-D-PHE-242
     RDKit          3D

 26 25  0  0  0  0  0  0  0  0999 V2000
    0.3407   -3.9642    1.7770 C   0  0  0  0  0  0  0  0  0  0  0  0
    0.6251   -3.1366    1.3265 H   0  0  0  0  0  0  0  0  0  0  0  0
    0.7270   -4.7663    1.3576 H   0  0  0  0  0  0  0  0  0  0  0  0
    0.6630   -3.9234    2.8175 H   0  0  0  0  0  0  0  0  0  0  0  0
   -1.2719   -4.0685    1.6060 C   0  0  0  0  0  0  0  0  0  0  0  0
   -1.5537   -4.9583    2.0075 H   0  0  0  0  0  0  0  0  0  0  0  0
   -1.6777   -3.3399    2.1862 H   0  0  0  0  0  0  0  0  0  0  0  0
   -1.8772   -3.9568    0.1776 N   0  0  0  0  0  4  0  0  0  0  0  0
   -2.8352   -3.7323    0.2762 H   0  0  0  0  0  0  0  0  0  0  0  0
   -1.3874   -3.2418   -0.2983 H   0  0  0  0  0  0  0  0  0  0  0  0
   -1.7563   -4.8319   -0.2665 H   0  0  0  0  0  0  0  0  0  0  0  0
    0.0066    2.9064   -0.0150 C   0  0  0  0  0  0  0  0  0  0  0  0
   -0.7038    3.2038   -0.6390 H   0  0  0  0  0  0  0  0  0  0  0  0
    0.8984    3.2082   -0.3261 H   0  0  0  0  0  0  0  0  0  0  0  0
   -0.1826    3.3771    0.9497 H   0  0  0  0  0  0  0  0  0  0  0  0
    0.0044    1.4077    0.0133 C   0  0  0  0  0  0  0  0  0  0  0  0
   -1.2124    0.6840   -0.0161 C   0  0  0  0  0  0  0  0  0  0  0  0
   -2.0694    1.1766   -0.0498 H   0  0  0  0  0  0  0  0  0  0  0  0
   -1.2077   -0.7083   -0.0000 C   0  0  0  0  0  0  0  0  0  0  0  0
   -2.0749   -1.2100    0.0086 H   0  0  0  0  0  0  0  0  0  0  0  0
    0.0071   -1.3895    0.0050 C   0  0  0  0  0  0  0  0  0  0  0  0
    0.0070   -2.3940    0.0116 H   0  0  0  0  0  0  0  0  0  0  0  0
    1.2077   -0.6961    0.0000 C   0  0  0  0  0  0  0  0  0  0  0  0
    2.0892   -1.1892   -0.0011 H   0  0  0  0  0  0  0  0  0  0  0  0
    1.2010    0.7022   -0.0021 C   0  0  0  0  0  0  0  0  0  0  0  0
    2.0689    1.1957   -0.0157 H   0  0  0  0  0  0  0  0  0  0  0  0
  1  5  1  0
  5  8  1  0
  1  2  1  0
  1  3  1  0
  1  4  1  0
  5  6  1  0
  5  7  1  0
  8  9  1  0
  8 10  1  0
  8 11  1  0
 12 16  1  0
 16 17  2  0
 17 19  1  0
 19 21  2  0
 21 23  1  0
 23 25  2  0
 25 16  1  0
 12 13  1  0
 12 14  1  0
 12 15  1  0
 17 18  1  0
 19 20  1  0
 21 22  1  0
 23 24  1  0
 25 26  1  0
M  CHG  1   8   1
M  END
>  <PDB_ID>  (1216) 
pdb2yxg

>  <RESIDUE_NAME>  (1216) 
LYS   PHE

>  <FRAG_NAME>  (1216) 
ETAM   MBZ

>  <FRAG_ATOM_NUM>  (1216) 
fragi: 11  fragj: 15

>  <atom.prop.CHAIN_ID>  (1216) 
A A A A A A A A A A A Z Z Z Z Z Z Z Z Z Z Z Z Z Z Z

>  <atom.prop.IS_HEAVY_ATOM>  (1216) 
1 0 0 0 1 0 0 1 0 0 0 1 0 0 0 1 1 0 1 0 1 0 1 0 1 0

>  <DIFUSE_FUNC_ATOM>  (1216) 
n/a

>  <FINAL_SINGLE_POINT_ENERGY>  (1216) 
0

>  <NONCOV_INTER_ENERGY_QM>  (1216) 
0

>  <FF_Energy>  (1216) 
20.12

>  <QM_Energy>  (1216) 
0.37

>  <source>  (1216) 
ETAM_MBZ

>  <Index>  (1216) 
12223

$$$$
ETAM-pdb1t3a-A-LYS-345:MBZ-pdb1t3a-A-PHE-201
     RDKit          3D

 26 25  0  0  0  0  0  0  0  0999 V2000
    0.2828   -0.2935    4.1738 C   0  0  0  0  0  0  0  0  0  0  0  0
   -0.2126   -0.4404    5.0289 H   0  0  0  0  0  0  0  0  0  0  0  0
   -0.0629   -0.9157    3.4734 H   0  0  0  0  0  0  0  0  0  0  0  0
    0.1156    0.7323    3.8454 H   0  0  0  0  0  0  0  0  0  0  0  0
    1.7542   -0.5994    4.4083 C   0  0  0  0  0  0  0  0  0  0  0  0
    2.0788   -0.0433    5.1843 H   0  0  0  0  0  0  0  0  0  0  0  0
    1.8462   -1.5721    4.6592 H   0  0  0  0  0  0  0  0  0  0  0  0
    2.5911   -0.3199    3.2217 N   0  0  0  0  0  4  0  0  0  0  0  0
    2.0068   -0.0595    2.4519 H   0  0  0  0  0  0  0  0  0  0  0  0
    3.2237    0.4294    3.4250 H   0  0  0  0  0  0  0  0  0  0  0  0
    3.1143   -1.1379    2.9789 H   0  0  0  0  0  0  0  0  0  0  0  0
    0.0048    2.9130   -0.0476 C   0  0  0  0  0  0  0  0  0  0  0  0
    0.8545    3.2288    0.3437 H   0  0  0  0  0  0  0  0  0  0  0  0
   -0.7735    3.2375    0.4673 H   0  0  0  0  0  0  0  0  0  0  0  0
   -0.0700    3.3210   -1.0555 H   0  0  0  0  0  0  0  0  0  0  0  0
    0.0011    1.4079   -0.0002 C   0  0  0  0  0  0  0  0  0  0  0  0
   -1.1993    0.6998    0.0015 C   0  0  0  0  0  0  0  0  0  0  0  0
   -2.0650    1.1875    0.0023 H   0  0  0  0  0  0  0  0  0  0  0  0
   -1.2064   -0.7001   -0.0000 C   0  0  0  0  0  0  0  0  0  0  0  0
   -2.0828   -1.1899    0.0008 H   0  0  0  0  0  0  0  0  0  0  0  0
   -0.0012   -1.4032   -0.0015 C   0  0  0  0  0  0  0  0  0  0  0  0
   -0.0053   -2.3978   -0.0039 H   0  0  0  0  0  0  0  0  0  0  0  0
    1.2064   -0.7019    0.0000 C   0  0  0  0  0  0  0  0  0  0  0  0
    2.0853   -1.1970    0.0020 H   0  0  0  0  0  0  0  0  0  0  0  0
    1.1993    0.6974    0.0002 C   0  0  0  0  0  0  0  0  0  0  0  0
    2.0681    1.1912   -0.0002 H   0  0  0  0  0  0  0  0  0  0  0  0
  1  5  1  0
  5  8  1  0
  1  2  1  0
  1  3  1  0
  1  4  1  0
  5  6  1  0
  5  7  1  0
  8  9  1  0
  8 10  1  0
  8 11  1  0
 12 16  1  0
 16 17  2  0
 17 19  1  0
 19 21  2  0
 21 23  1  0
 23 25  2  0
 25 16  1  0
 12 13  1  0
 12 14  1  0
 12 15  1  0
 17 18  1  0
 19 20  1  0
 21 22  1  0
 23 24  1  0
 25 26  1  0
M  CHG  1   8   1
M  END
>  <PDB_ID>  (1217) 
pdb1t3a

>  <RESIDUE_NAME>  (1217) 
LYS   PHE

>  <FRAG_NAME>  (1217) 
ETAM   MBZ

>  <FRAG_ATOM_NUM>  (1217) 
fragi: 11  fragj: 15

>  <atom.prop.CHAIN_ID>  (1217) 
A A A A A A A A A A A Z Z Z Z Z Z Z Z Z Z Z Z Z Z Z

>  <atom.prop.IS_HEAVY_ATOM>  (1217) 
1 0 0 0 1 0 0 1 0 0 0 1 0 0 0 1 1 0 1 0 1 0 1 0 1 0

>  <DIFUSE_FUNC_ATOM>  (1217) 
n/a

>  <FINAL_SINGLE_POINT_ENERGY>  (1217) 
0

>  <NONCOV_INTER_ENERGY_QM>  (1217) 
0

>  <FF_Energy>  (1217) 
-4.91

>  <QM_Energy>  (1217) 
-11.39

>  <source>  (1217) 
ETAM_MBZ

>  <Index>  (1217) 
12233

$$$$
ETAM-pdb2z0b-B-LYS-75:MBZ-pdb2z0b-B-PHE-25
     RDKit          3D

 26 25  0  0  0  0  0  0  0  0999 V2000
   -4.9324   -2.2215   -3.3663 C   0  0  0  0  0  0  0  0  0  0  0  0
   -5.7827   -2.7121   -3.5706 H   0  0  0  0  0  0  0  0  0  0  0  0
   -4.3552   -2.2124   -4.1858 H   0  0  0  0  0  0  0  0  0  0  0  0
   -5.1838   -1.1918   -3.1119 H   0  0  0  0  0  0  0  0  0  0  0  0
   -4.2000   -2.9541   -2.2620 C   0  0  0  0  0  0  0  0  0  0  0  0
   -4.7073   -2.8443   -1.4036 H   0  0  0  0  0  0  0  0  0  0  0  0
   -4.1557   -3.9307   -2.4897 H   0  0  0  0  0  0  0  0  0  0  0  0
   -2.8181   -2.4340   -2.0806 N   0  0  0  0  0  4  0  0  0  0  0  0
   -2.4967   -2.0392   -2.9413 H   0  0  0  0  0  0  0  0  0  0  0  0
   -2.8193   -1.7313   -1.3698 H   0  0  0  0  0  0  0  0  0  0  0  0
   -2.2147   -3.1837   -1.8101 H   0  0  0  0  0  0  0  0  0  0  0  0
    0.0021    2.9027    0.0118 C   0  0  0  0  0  0  0  0  0  0  0  0
    0.9422    3.2094    0.0489 H   0  0  0  0  0  0  0  0  0  0  0  0
   -0.5032    3.2020    0.8081 H   0  0  0  0  0  0  0  0  0  0  0  0
   -0.4605    3.3576   -0.8641 H   0  0  0  0  0  0  0  0  0  0  0  0
    0.0013    1.4032   -0.0044 C   0  0  0  0  0  0  0  0  0  0  0  0
   -1.1976    0.6947    0.0042 C   0  0  0  0  0  0  0  0  0  0  0  0
   -2.0632    1.1857    0.0120 H   0  0  0  0  0  0  0  0  0  0  0  0
   -1.2038   -0.6961    0.0000 C   0  0  0  0  0  0  0  0  0  0  0  0
   -2.0806   -1.1890   -0.0012 H   0  0  0  0  0  0  0  0  0  0  0  0
   -0.0022   -1.3963   -0.0012 C   0  0  0  0  0  0  0  0  0  0  0  0
   -0.0068   -2.3934   -0.0034 H   0  0  0  0  0  0  0  0  0  0  0  0
    1.2038   -0.7001   -0.0000 C   0  0  0  0  0  0  0  0  0  0  0  0
    2.0823   -1.1977    0.0012 H   0  0  0  0  0  0  0  0  0  0  0  0
    1.1986    0.6946    0.0013 C   0  0  0  0  0  0  0  0  0  0  0  0
    2.0662    1.1897    0.0054 H   0  0  0  0  0  0  0  0  0  0  0  0
  1  5  1  0
  5  8  1  0
  1  2  1  0
  1  3  1  0
  1  4  1  0
  5  6  1  0
  5  7  1  0
  8  9  1  0
  8 10  1  0
  8 11  1  0
 12 16  1  0
 16 17  2  0
 17 19  1  0
 19 21  2  0
 21 23  1  0
 23 25  2  0
 25 16  1  0
 12 13  1  0
 12 14  1  0
 12 15  1  0
 17 18  1  0
 19 20  1  0
 21 22  1  0
 23 24  1  0
 25 26  1  0
M  CHG  1   8   1
M  END
>  <PDB_ID>  (1218) 
pdb2z0b

>  <RESIDUE_NAME>  (1218) 
LYS   PHE

>  <FRAG_NAME>  (1218) 
ETAM   MBZ

>  <FRAG_ATOM_NUM>  (1218) 
fragi: 11  fragj: 15

>  <atom.prop.CHAIN_ID>  (1218) 
A A A A A A A A A A A Z Z Z Z Z Z Z Z Z Z Z Z Z Z Z

>  <atom.prop.IS_HEAVY_ATOM>  (1218) 
1 0 0 0 1 0 0 1 0 0 0 1 0 0 0 1 1 0 1 0 1 0 1 0 1 0

>  <DIFUSE_FUNC_ATOM>  (1218) 
n/a

>  <FINAL_SINGLE_POINT_ENERGY>  (1218) 
0

>  <NONCOV_INTER_ENERGY_QM>  (1218) 
0

>  <FF_Energy>  (1218) 
1.07

>  <QM_Energy>  (1218) 
-5.02

>  <source>  (1218) 
ETAM_MBZ

>  <Index>  (1218) 
12238

$$$$
ETAM-pdb2yz1-B-LYS-72:MBZ-pdb2yz1-B-PHE-78
     RDKit          3D

 26 25  0  0  0  0  0  0  0  0999 V2000
   -0.6131   -1.1902   -5.4370 C   0  0  0  0  0  0  0  0  0  0  0  0
   -0.3180   -2.1165   -5.2953 H   0  0  0  0  0  0  0  0  0  0  0  0
    0.1217   -0.5440   -5.3540 H   0  0  0  0  0  0  0  0  0  0  0  0
   -0.9785   -1.1269   -6.4620 H   0  0  0  0  0  0  0  0  0  0  0  0
   -1.7244   -0.8425   -4.4457 C   0  0  0  0  0  0  0  0  0  0  0  0
   -1.9575    0.0982   -4.5388 H   0  0  0  0  0  0  0  0  0  0  0  0
   -2.4751   -1.4491   -4.5765 H   0  0  0  0  0  0  0  0  0  0  0  0
   -1.1234   -1.0765   -3.0882 N   0  0  0  0  0  4  0  0  0  0  0  0
   -0.4980   -1.8512   -3.1397 H   0  0  0  0  0  0  0  0  0  0  0  0
   -0.6290   -0.2574   -2.8064 H   0  0  0  0  0  0  0  0  0  0  0  0
   -1.8545   -1.2723   -2.4392 H   0  0  0  0  0  0  0  0  0  0  0  0
   -0.0134    2.9206   -0.0517 C   0  0  0  0  0  0  0  0  0  0  0  0
    0.7980    3.2400    0.3897 H   0  0  0  0  0  0  0  0  0  0  0  0
   -0.8346    3.2392    0.3705 H   0  0  0  0  0  0  0  0  0  0  0  0
   -0.0020    3.2721   -1.0834 H   0  0  0  0  0  0  0  0  0  0  0  0
   -0.0133    1.4069    0.0135 C   0  0  0  0  0  0  0  0  0  0  0  0
   -1.2060    0.6624   -0.0181 C   0  0  0  0  0  0  0  0  0  0  0  0
   -2.0758    1.1489   -0.0557 H   0  0  0  0  0  0  0  0  0  0  0  0
   -1.1822   -0.7070   -0.0000 C   0  0  0  0  0  0  0  0  0  0  0  0
   -2.0523   -1.2243    0.0307 H   0  0  0  0  0  0  0  0  0  0  0  0
    0.0194   -1.3736   -0.0215 C   0  0  0  0  0  0  0  0  0  0  0  0
    0.0124   -2.3878   -0.0538 H   0  0  0  0  0  0  0  0  0  0  0  0
    1.1822   -0.6967   -0.0000 C   0  0  0  0  0  0  0  0  0  0  0  0
    2.0836   -1.1834   -0.0008 H   0  0  0  0  0  0  0  0  0  0  0  0
    1.1999    0.7079    0.0261 C   0  0  0  0  0  0  0  0  0  0  0  0
    2.0568    1.1930    0.0516 H   0  0  0  0  0  0  0  0  0  0  0  0
  1  5  1  0
  5  8  1  0
  1  2  1  0
  1  3  1  0
  1  4  1  0
  5  6  1  0
  5  7  1  0
  8  9  1  0
  8 10  1  0
  8 11  1  0
 12 16  1  0
 16 17  2  0
 17 19  1  0
 19 21  2  0
 21 23  1  0
 23 25  2  0
 25 16  1  0
 12 13  1  0
 12 14  1  0
 12 15  1  0
 17 18  1  0
 19 20  1  0
 21 22  1  0
 23 24  1  0
 25 26  1  0
M  CHG  1   8   1
M  END
>  <PDB_ID>  (1219) 
pdb2yz1

>  <RESIDUE_NAME>  (1219) 
LYS   PHE

>  <FRAG_NAME>  (1219) 
ETAM   MBZ

>  <FRAG_ATOM_NUM>  (1219) 
fragi: 11  fragj: 15

>  <atom.prop.CHAIN_ID>  (1219) 
A A A A A A A A A A A Z Z Z Z Z Z Z Z Z Z Z Z Z Z Z

>  <atom.prop.IS_HEAVY_ATOM>  (1219) 
1 0 0 0 1 0 0 1 0 0 0 1 0 0 0 1 1 0 1 0 1 0 1 0 1 0

>  <DIFUSE_FUNC_ATOM>  (1219) 
n/a

>  <FINAL_SINGLE_POINT_ENERGY>  (1219) 
0

>  <NONCOV_INTER_ENERGY_QM>  (1219) 
0

>  <FF_Energy>  (1219) 
-5.64

>  <QM_Energy>  (1219) 
-12.31

>  <source>  (1219) 
ETAM_MBZ

>  <Index>  (1219) 
12239

$$$$
ETAM-pdb1t45-A-LYS-786:MBZ-pdb1t45-A-PHE-782
     RDKit          3D

 26 25  0  0  0  0  0  0  0  0999 V2000
    1.9547   -1.9017   -4.6502 C   0  0  0  0  0  0  0  0  0  0  0  0
    1.8208   -2.6648   -5.2794 H   0  0  0  0  0  0  0  0  0  0  0  0
    2.5412   -1.2136   -5.0719 H   0  0  0  0  0  0  0  0  0  0  0  0
    0.9861   -1.4530   -4.4297 H   0  0  0  0  0  0  0  0  0  0  0  0
    2.6444   -2.4231   -3.3995 C   0  0  0  0  0  0  0  0  0  0  0  0
    2.0411   -3.0626   -2.9398 H   0  0  0  0  0  0  0  0  0  0  0  0
    3.4935   -2.8661   -3.6590 H   0  0  0  0  0  0  0  0  0  0  0  0
    2.9360   -1.2812   -2.4985 N   0  0  0  0  0  4  0  0  0  0  0  0
    3.6213   -0.6876   -2.9220 H   0  0  0  0  0  0  0  0  0  0  0  0
    2.0977   -0.7596   -2.3381 H   0  0  0  0  0  0  0  0  0  0  0  0
    3.2872   -1.6244   -1.6267 H   0  0  0  0  0  0  0  0  0  0  0  0
   -0.0103    2.8995    0.0015 C   0  0  0  0  0  0  0  0  0  0  0  0
    0.6650    3.2114    0.6529 H   0  0  0  0  0  0  0  0  0  0  0  0
   -0.9182    3.2008    0.2513 H   0  0  0  0  0  0  0  0  0  0  0  0
    0.2318    3.3413   -0.9653 H   0  0  0  0  0  0  0  0  0  0  0  0
   -0.0003    1.3970    0.0017 C   0  0  0  0  0  0  0  0  0  0  0  0
   -1.1900    0.6825   -0.0056 C   0  0  0  0  0  0  0  0  0  0  0  0
   -2.0603    1.1795   -0.0169 H   0  0  0  0  0  0  0  0  0  0  0  0
   -1.1962   -0.6901    0.0000 C   0  0  0  0  0  0  0  0  0  0  0  0
   -2.0750   -1.1896    0.0022 H   0  0  0  0  0  0  0  0  0  0  0  0
   -0.0010   -1.3877    0.0041 C   0  0  0  0  0  0  0  0  0  0  0  0
   -0.0087   -2.3885    0.0096 H   0  0  0  0  0  0  0  0  0  0  0  0
    1.1962   -0.6984   -0.0000 C   0  0  0  0  0  0  0  0  0  0  0  0
    2.0789   -1.1919   -0.0012 H   0  0  0  0  0  0  0  0  0  0  0  0
    1.1912    0.6967   -0.0001 C   0  0  0  0  0  0  0  0  0  0  0  0
    2.0607    1.1889   -0.0026 H   0  0  0  0  0  0  0  0  0  0  0  0
  1  5  1  0
  5  8  1  0
  1  2  1  0
  1  3  1  0
  1  4  1  0
  5  6  1  0
  5  7  1  0
  8  9  1  0
  8 10  1  0
  8 11  1  0
 12 16  1  0
 16 17  2  0
 17 19  1  0
 19 21  2  0
 21 23  1  0
 23 25  2  0
 25 16  1  0
 12 13  1  0
 12 14  1  0
 12 15  1  0
 17 18  1  0
 19 20  1  0
 21 22  1  0
 23 24  1  0
 25 26  1  0
M  CHG  1   8   1
M  END
>  <PDB_ID>  (1220) 
pdb1t45

>  <RESIDUE_NAME>  (1220) 
LYS   PHE

>  <FRAG_NAME>  (1220) 
ETAM   MBZ

>  <FRAG_ATOM_NUM>  (1220) 
fragi: 11  fragj: 15

>  <atom.prop.CHAIN_ID>  (1220) 
A A A A A A A A A A A Z Z Z Z Z Z Z Z Z Z Z Z Z Z Z

>  <atom.prop.IS_HEAVY_ATOM>  (1220) 
1 0 0 0 1 0 0 1 0 0 0 1 0 0 0 1 1 0 1 0 1 0 1 0 1 0

>  <DIFUSE_FUNC_ATOM>  (1220) 
n/a

>  <FINAL_SINGLE_POINT_ENERGY>  (1220) 
0

>  <NONCOV_INTER_ENERGY_QM>  (1220) 
0

>  <FF_Energy>  (1220) 
-1.56

>  <QM_Energy>  (1220) 
-8.39

>  <source>  (1220) 
ETAM_MBZ

>  <Index>  (1220) 
12240

$$$$
ETAM-pdb1t3a-B-LYS-21:MBZ-pdb1t3a-B-PHE-28
     RDKit          3D

 26 25  0  0  0  0  0  0  0  0999 V2000
    0.6224   -2.1602   -3.9691 C   0  0  0  0  0  0  0  0  0  0  0  0
   -0.1730   -2.7313   -3.7915 H   0  0  0  0  0  0  0  0  0  0  0  0
    1.1538   -2.5326   -4.7239 H   0  0  0  0  0  0  0  0  0  0  0  0
    0.2792   -1.1625   -4.2429 H   0  0  0  0  0  0  0  0  0  0  0  0
    1.4934   -2.1337   -2.7248 C   0  0  0  0  0  0  0  0  0  0  0  0
    2.2604   -1.4815   -2.8716 H   0  0  0  0  0  0  0  0  0  0  0  0
    0.9474   -1.7725   -1.9459 H   0  0  0  0  0  0  0  0  0  0  0  0
    2.0795   -3.4642   -2.3116 N   0  0  0  0  0  4  0  0  0  0  0  0
    1.3349   -4.1053   -2.1491 H   0  0  0  0  0  0  0  0  0  0  0  0
    2.6658   -3.7975   -3.0445 H   0  0  0  0  0  0  0  0  0  0  0  0
    2.6101   -3.3352   -1.4783 H   0  0  0  0  0  0  0  0  0  0  0  0
   -0.0013    2.9000   -0.0639 C   0  0  0  0  0  0  0  0  0  0  0  0
    0.7832    3.2305    0.4364 H   0  0  0  0  0  0  0  0  0  0  0  0
   -0.8467    3.2255    0.3305 H   0  0  0  0  0  0  0  0  0  0  0  0
    0.0633    3.2904   -1.0796 H   0  0  0  0  0  0  0  0  0  0  0  0
   -0.0002    1.4038    0.0001 C   0  0  0  0  0  0  0  0  0  0  0  0
   -1.1993    0.6957    0.0010 C   0  0  0  0  0  0  0  0  0  0  0  0
   -2.0656    1.1844    0.0012 H   0  0  0  0  0  0  0  0  0  0  0  0
   -1.2052   -0.7018   -0.0000 C   0  0  0  0  0  0  0  0  0  0  0  0
   -2.0802   -1.1933    0.0027 H   0  0  0  0  0  0  0  0  0  0  0  0
    0.0006   -1.3991   -0.0020 C   0  0  0  0  0  0  0  0  0  0  0  0
   -0.0002   -2.3951   -0.0049 H   0  0  0  0  0  0  0  0  0  0  0  0
    1.2052   -0.6959    0.0000 C   0  0  0  0  0  0  0  0  0  0  0  0
    2.0864   -1.1929    0.0026 H   0  0  0  0  0  0  0  0  0  0  0  0
    1.1988    0.6973    0.0009 C   0  0  0  0  0  0  0  0  0  0  0  0
    2.0663    1.1939    0.0014 H   0  0  0  0  0  0  0  0  0  0  0  0
  1  5  1  0
  5  8  1  0
  1  2  1  0
  1  3  1  0
  1  4  1  0
  5  6  1  0
  5  7  1  0
  8  9  1  0
  8 10  1  0
  8 11  1  0
 12 16  1  0
 16 17  2  0
 17 19  1  0
 19 21  2  0
 21 23  1  0
 23 25  2  0
 25 16  1  0
 12 13  1  0
 12 14  1  0
 12 15  1  0
 17 18  1  0
 19 20  1  0
 21 22  1  0
 23 24  1  0
 25 26  1  0
M  CHG  1   8   1
M  END
>  <PDB_ID>  (1221) 
pdb1t3a

>  <RESIDUE_NAME>  (1221) 
LYS   PHE

>  <FRAG_NAME>  (1221) 
ETAM   MBZ

>  <FRAG_ATOM_NUM>  (1221) 
fragi: 11  fragj: 15

>  <atom.prop.CHAIN_ID>  (1221) 
A A A A A A A A A A A Z Z Z Z Z Z Z Z Z Z Z Z Z Z Z

>  <atom.prop.IS_HEAVY_ATOM>  (1221) 
1 0 0 0 1 0 0 1 0 0 0 1 0 0 0 1 1 0 1 0 1 0 1 0 1 0

>  <DIFUSE_FUNC_ATOM>  (1221) 
n/a

>  <FINAL_SINGLE_POINT_ENERGY>  (1221) 
0

>  <NONCOV_INTER_ENERGY_QM>  (1221) 
0

>  <FF_Energy>  (1221) 
10.11

>  <QM_Energy>  (1221) 
-3.02

>  <source>  (1221) 
ETAM_MBZ

>  <Index>  (1221) 
12259

$$$$
ETAM-pdb1t5w-D-GLU-3:MBZ-pdb1t5w-E-PHE-18
     RDKit          3D

 26 25  0  0  0  0  0  0  0  0999 V2000
    2.1398   -1.3661    3.0766 C   0  0  0  0  0  0  0  0  0  0  0  0
    1.9231   -1.6499    2.1585 H   0  0  0  0  0  0  0  0  0  0  0  0
    2.8921   -1.8773    3.4531 H   0  0  0  0  0  0  0  0  0  0  0  0
    1.2651   -1.5614    3.6968 H   0  0  0  0  0  0  0  0  0  0  0  0
    2.5542    0.1038    3.0239 C   0  0  0  0  0  0  0  0  0  0  0  0
    1.8077    0.6232    2.6080 H   0  0  0  0  0  0  0  0  0  0  0  0
    2.7461    0.4632    4.0349 H   0  0  0  0  0  0  0  0  0  0  0  0
    3.7780    0.2660    2.1841 N   0  0  0  0  0  4  0  0  0  0  0  0
    4.2952   -0.5851    2.1939 H   0  0  0  0  0  0  0  0  0  0  0  0
    3.5055    0.4859    1.2510 H   0  0  0  0  0  0  0  0  0  0  0  0
    4.3339    1.0038    2.5579 H   0  0  0  0  0  0  0  0  0  0  0  0
    0.0017    2.9017   -0.0106 C   0  0  0  0  0  0  0  0  0  0  0  0
   -0.6410    3.2050   -0.6994 H   0  0  0  0  0  0  0  0  0  0  0  0
    0.9196    3.2076   -0.2201 H   0  0  0  0  0  0  0  0  0  0  0  0
   -0.2900    3.3530    0.9378 H   0  0  0  0  0  0  0  0  0  0  0  0
    0.0003    1.4040    0.0003 C   0  0  0  0  0  0  0  0  0  0  0  0
   -1.1984    0.6936    0.0002 C   0  0  0  0  0  0  0  0  0  0  0  0
   -2.0646    1.1837   -0.0011 H   0  0  0  0  0  0  0  0  0  0  0  0
   -1.2047   -0.7005   -0.0000 C   0  0  0  0  0  0  0  0  0  0  0  0
   -2.0802   -1.1920    0.0018 H   0  0  0  0  0  0  0  0  0  0  0  0
   -0.0019   -1.3969   -0.0011 C   0  0  0  0  0  0  0  0  0  0  0  0
   -0.0032   -2.3947   -0.0038 H   0  0  0  0  0  0  0  0  0  0  0  0
    1.2047   -0.6975   -0.0000 C   0  0  0  0  0  0  0  0  0  0  0  0
    2.0840   -1.1951    0.0024 H   0  0  0  0  0  0  0  0  0  0  0  0
    1.2000    0.6973    0.0006 C   0  0  0  0  0  0  0  0  0  0  0  0
    2.0669    1.1926    0.0004 H   0  0  0  0  0  0  0  0  0  0  0  0
  1  5  1  0
  5  8  1  0
  1  2  1  0
  1  3  1  0
  1  4  1  0
  5  6  1  0
  5  7  1  0
  8  9  1  0
  8 10  1  0
  8 11  1  0
 12 16  1  0
 16 17  2  0
 17 19  1  0
 19 21  2  0
 21 23  1  0
 23 25  2  0
 25 16  1  0
 12 13  1  0
 12 14  1  0
 12 15  1  0
 17 18  1  0
 19 20  1  0
 21 22  1  0
 23 24  1  0
 25 26  1  0
M  CHG  1   8   1
M  END
>  <PDB_ID>  (1222) 
pdb1t5w

>  <RESIDUE_NAME>  (1222) 
GLU   PHE

>  <FRAG_NAME>  (1222) 
ETAM   MBZ

>  <FRAG_ATOM_NUM>  (1222) 
fragi: 11  fragj: 15

>  <atom.prop.CHAIN_ID>  (1222) 
A A A A A A A A A A A Z Z Z Z Z Z Z Z Z Z Z Z Z Z Z

>  <atom.prop.IS_HEAVY_ATOM>  (1222) 
1 0 0 0 1 0 0 1 0 0 0 1 0 0 0 1 1 0 1 0 1 0 1 0 1 0

>  <DIFUSE_FUNC_ATOM>  (1222) 
n/a

>  <FINAL_SINGLE_POINT_ENERGY>  (1222) 
0

>  <NONCOV_INTER_ENERGY_QM>  (1222) 
0

>  <FF_Energy>  (1222) 
-0.04

>  <QM_Energy>  (1222) 
-7.09

>  <source>  (1222) 
ETAM_MBZ

>  <Index>  (1222) 
12268

$$$$
ETAM-pdb2z1m-A-LYS-194:MBZ-pdb2z1m-A-PHE-295
     RDKit          3D

 26 25  0  0  0  0  0  0  0  0999 V2000
   -1.6643   -0.6578    5.6742 C   0  0  0  0  0  0  0  0  0  0  0  0
   -2.5657   -0.5554    5.2642 H   0  0  0  0  0  0  0  0  0  0  0  0
   -1.2576    0.2350    5.8413 H   0  0  0  0  0  0  0  0  0  0  0  0
   -1.7655   -1.1837    6.6235 H   0  0  0  0  0  0  0  0  0  0  0  0
   -0.7842   -1.4249    4.7297 C   0  0  0  0  0  0  0  0  0  0  0  0
    0.1140   -1.5637    5.1493 H   0  0  0  0  0  0  0  0  0  0  0  0
   -1.1996   -2.3150    4.5354 H   0  0  0  0  0  0  0  0  0  0  0  0
   -0.6119   -0.6825    3.4530 N   0  0  0  0  0  4  0  0  0  0  0  0
    0.3596   -0.6419    3.2207 H   0  0  0  0  0  0  0  0  0  0  0  0
   -1.1103   -1.1528    2.7255 H   0  0  0  0  0  0  0  0  0  0  0  0
   -0.9692    0.2454    3.5574 H   0  0  0  0  0  0  0  0  0  0  0  0
   -0.0019    2.9075   -0.0196 C   0  0  0  0  0  0  0  0  0  0  0  0
    0.9188    3.2209    0.1290 H   0  0  0  0  0  0  0  0  0  0  0  0
   -0.6194    3.2271    0.6773 H   0  0  0  0  0  0  0  0  0  0  0  0
   -0.3394    3.3163   -0.9720 H   0  0  0  0  0  0  0  0  0  0  0  0
    0.0009    1.4042    0.0072 C   0  0  0  0  0  0  0  0  0  0  0  0
   -1.1957    0.6961    0.0029 C   0  0  0  0  0  0  0  0  0  0  0  0
   -2.0626    1.1848    0.0007 H   0  0  0  0  0  0  0  0  0  0  0  0
   -1.2007   -0.6977   -0.0000 C   0  0  0  0  0  0  0  0  0  0  0  0
   -2.0778   -1.1904   -0.0037 H   0  0  0  0  0  0  0  0  0  0  0  0
    0.0019   -1.3963    0.0039 C   0  0  0  0  0  0  0  0  0  0  0  0
   -0.0061   -2.3954    0.0085 H   0  0  0  0  0  0  0  0  0  0  0  0
    1.2007   -0.7031   -0.0000 C   0  0  0  0  0  0  0  0  0  0  0  0
    2.0830   -1.1942    0.0087 H   0  0  0  0  0  0  0  0  0  0  0  0
    1.1929    0.6967   -0.0139 C   0  0  0  0  0  0  0  0  0  0  0  0
    2.0642    1.1879   -0.0404 H   0  0  0  0  0  0  0  0  0  0  0  0
  1  5  1  0
  5  8  1  0
  1  2  1  0
  1  3  1  0
  1  4  1  0
  5  6  1  0
  5  7  1  0
  8  9  1  0
  8 10  1  0
  8 11  1  0
 12 16  1  0
 16 17  2  0
 17 19  1  0
 19 21  2  0
 21 23  1  0
 23 25  2  0
 25 16  1  0
 12 13  1  0
 12 14  1  0
 12 15  1  0
 17 18  1  0
 19 20  1  0
 21 22  1  0
 23 24  1  0
 25 26  1  0
M  CHG  1   8   1
M  END
>  <PDB_ID>  (1223) 
pdb2z1m

>  <RESIDUE_NAME>  (1223) 
LYS   PHE

>  <FRAG_NAME>  (1223) 
ETAM   MBZ

>  <FRAG_ATOM_NUM>  (1223) 
fragi: 11  fragj: 15

>  <atom.prop.CHAIN_ID>  (1223) 
A A A A A A A A A A A Z Z Z Z Z Z Z Z Z Z Z Z Z Z Z

>  <atom.prop.IS_HEAVY_ATOM>  (1223) 
1 0 0 0 1 0 0 1 0 0 0 1 0 0 0 1 1 0 1 0 1 0 1 0 1 0

>  <DIFUSE_FUNC_ATOM>  (1223) 
n/a

>  <FINAL_SINGLE_POINT_ENERGY>  (1223) 
0

>  <NONCOV_INTER_ENERGY_QM>  (1223) 
0

>  <FF_Energy>  (1223) 
-6.84

>  <QM_Energy>  (1223) 
-12.84

>  <source>  (1223) 
ETAM_MBZ

>  <Index>  (1223) 
12274

$$$$
ETAM-pdb2z1m-B-LYS-194:MBZ-pdb2z1m-B-PHE-295
     RDKit          3D

 26 25  0  0  0  0  0  0  0  0999 V2000
    0.5294   -2.3166   -5.7965 C   0  0  0  0  0  0  0  0  0  0  0  0
    1.3616   -2.7146   -5.4259 H   0  0  0  0  0  0  0  0  0  0  0  0
    0.6534   -1.3455   -5.9653 H   0  0  0  0  0  0  0  0  0  0  0  0
    0.2961   -2.8103   -6.7399 H   0  0  0  0  0  0  0  0  0  0  0  0
   -0.5908   -2.4968   -4.7857 C   0  0  0  0  0  0  0  0  0  0  0  0
   -1.4485   -2.1649   -5.1836 H   0  0  0  0  0  0  0  0  0  0  0  0
   -0.6846   -3.4706   -4.5686 H   0  0  0  0  0  0  0  0  0  0  0  0
   -0.3220   -1.7421   -3.5156 N   0  0  0  0  0  4  0  0  0  0  0  0
   -0.1776   -0.7801   -3.7339 H   0  0  0  0  0  0  0  0  0  0  0  0
   -1.1073   -1.8387   -2.9080 H   0  0  0  0  0  0  0  0  0  0  0  0
    0.4932   -2.1176   -3.0804 H   0  0  0  0  0  0  0  0  0  0  0  0
   -0.0109    2.9170   -0.0070 C   0  0  0  0  0  0  0  0  0  0  0  0
   -0.9374    3.2149   -0.1853 H   0  0  0  0  0  0  0  0  0  0  0  0
    0.6058    3.2220   -0.7173 H   0  0  0  0  0  0  0  0  0  0  0  0
    0.3095    3.3777    0.9274 H   0  0  0  0  0  0  0  0  0  0  0  0
    0.0002    1.4057    0.0030 C   0  0  0  0  0  0  0  0  0  0  0  0
   -1.1932    0.6926   -0.0016 C   0  0  0  0  0  0  0  0  0  0  0  0
   -2.0634    1.1819   -0.0076 H   0  0  0  0  0  0  0  0  0  0  0  0
   -1.2014   -0.7011    0.0000 C   0  0  0  0  0  0  0  0  0  0  0  0
   -2.0798   -1.1904    0.0023 H   0  0  0  0  0  0  0  0  0  0  0  0
   -0.0040   -1.3972   -0.0000 C   0  0  0  0  0  0  0  0  0  0  0  0
   -0.0047   -2.3947   -0.0007 H   0  0  0  0  0  0  0  0  0  0  0  0
    1.2014   -0.6977   -0.0000 C   0  0  0  0  0  0  0  0  0  0  0  0
    2.0814   -1.1952    0.0024 H   0  0  0  0  0  0  0  0  0  0  0  0
    1.1970    0.6977   -0.0014 C   0  0  0  0  0  0  0  0  0  0  0  0
    2.0654    1.1918   -0.0068 H   0  0  0  0  0  0  0  0  0  0  0  0
  1  5  1  0
  5  8  1  0
  1  2  1  0
  1  3  1  0
  1  4  1  0
  5  6  1  0
  5  7  1  0
  8  9  1  0
  8 10  1  0
  8 11  1  0
 12 16  1  0
 16 17  2  0
 17 19  1  0
 19 21  2  0
 21 23  1  0
 23 25  2  0
 25 16  1  0
 12 13  1  0
 12 14  1  0
 12 15  1  0
 17 18  1  0
 19 20  1  0
 21 22  1  0
 23 24  1  0
 25 26  1  0
M  CHG  1   8   1
M  END
>  <PDB_ID>  (1224) 
pdb2z1m

>  <RESIDUE_NAME>  (1224) 
LYS   PHE

>  <FRAG_NAME>  (1224) 
ETAM   MBZ

>  <FRAG_ATOM_NUM>  (1224) 
fragi: 11  fragj: 15

>  <atom.prop.CHAIN_ID>  (1224) 
A A A A A A A A A A A Z Z Z Z Z Z Z Z Z Z Z Z Z Z Z

>  <atom.prop.IS_HEAVY_ATOM>  (1224) 
1 0 0 0 1 0 0 1 0 0 0 1 0 0 0 1 1 0 1 0 1 0 1 0 1 0

>  <DIFUSE_FUNC_ATOM>  (1224) 
n/a

>  <FINAL_SINGLE_POINT_ENERGY>  (1224) 
0

>  <NONCOV_INTER_ENERGY_QM>  (1224) 
0

>  <FF_Energy>  (1224) 
-4.7

>  <QM_Energy>  (1224) 
-10.03

>  <source>  (1224) 
ETAM_MBZ

>  <Index>  (1224) 
12277

$$$$
ETAM-pdb2z1k-A-LYS-55:MBZ-pdb2z1k-A-PHE-18
     RDKit          3D

 26 25  0  0  0  0  0  0  0  0999 V2000
    1.1659    1.3950   -4.1368 C   0  0  0  0  0  0  0  0  0  0  0  0
    0.8565    1.6311   -5.0548 H   0  0  0  0  0  0  0  0  0  0  0  0
    1.9328    0.7594   -4.1890 H   0  0  0  0  0  0  0  0  0  0  0  0
    1.4962    2.3039   -3.6338 H   0  0  0  0  0  0  0  0  0  0  0  0
    0.0276    0.7230   -3.3983 C   0  0  0  0  0  0  0  0  0  0  0  0
    0.3166    0.5203   -2.4630 H   0  0  0  0  0  0  0  0  0  0  0  0
   -0.7607    1.3382   -3.3777 H   0  0  0  0  0  0  0  0  0  0  0  0
   -0.3670   -0.5495   -4.0725 N   0  0  0  0  0  4  0  0  0  0  0  0
   -1.3299   -0.4997   -4.3321 H   0  0  0  0  0  0  0  0  0  0  0  0
    0.1944   -0.6779   -4.8883 H   0  0  0  0  0  0  0  0  0  0  0  0
   -0.2267   -1.3121   -3.4430 H   0  0  0  0  0  0  0  0  0  0  0  0
   -0.0022    2.9240   -0.0058 C   0  0  0  0  0  0  0  0  0  0  0  0
   -0.3886    3.2246   -0.8630 H   0  0  0  0  0  0  0  0  0  0  0  0
    0.9301    3.2297    0.0991 H   0  0  0  0  0  0  0  0  0  0  0  0
   -0.5907    3.3652    0.7987 H   0  0  0  0  0  0  0  0  0  0  0  0
    0.0001    1.4138   -0.0009 C   0  0  0  0  0  0  0  0  0  0  0  0
   -1.1979    0.7029   -0.0000 C   0  0  0  0  0  0  0  0  0  0  0  0
   -2.0663    1.1867   -0.0005 H   0  0  0  0  0  0  0  0  0  0  0  0
   -1.2066   -0.7059    0.0000 C   0  0  0  0  0  0  0  0  0  0  0  0
   -2.0834   -1.1911    0.0003 H   0  0  0  0  0  0  0  0  0  0  0  0
   -0.0004   -1.4084    0.0011 C   0  0  0  0  0  0  0  0  0  0  0  0
   -0.0037   -2.4022    0.0020 H   0  0  0  0  0  0  0  0  0  0  0  0
    1.2066   -0.7047   -0.0000 C   0  0  0  0  0  0  0  0  0  0  0  0
    2.0871   -1.1946    0.0011 H   0  0  0  0  0  0  0  0  0  0  0  0
    1.1982    0.7024   -0.0001 C   0  0  0  0  0  0  0  0  0  0  0  0
    2.0679    1.1930   -0.0001 H   0  0  0  0  0  0  0  0  0  0  0  0
  1  5  1  0
  5  8  1  0
  1  2  1  0
  1  3  1  0
  1  4  1  0
  5  6  1  0
  5  7  1  0
  8  9  1  0
  8 10  1  0
  8 11  1  0
 12 16  1  0
 16 17  2  0
 17 19  1  0
 19 21  2  0
 21 23  1  0
 23 25  2  0
 25 16  1  0
 12 13  1  0
 12 14  1  0
 12 15  1  0
 17 18  1  0
 19 20  1  0
 21 22  1  0
 23 24  1  0
 25 26  1  0
M  CHG  1   8   1
M  END
>  <PDB_ID>  (1225) 
pdb2z1k

>  <RESIDUE_NAME>  (1225) 
LYS   PHE

>  <FRAG_NAME>  (1225) 
ETAM   MBZ

>  <FRAG_ATOM_NUM>  (1225) 
fragi: 11  fragj: 15

>  <atom.prop.CHAIN_ID>  (1225) 
A A A A A A A A A A A Z Z Z Z Z Z Z Z Z Z Z Z Z Z Z

>  <atom.prop.IS_HEAVY_ATOM>  (1225) 
1 0 0 0 1 0 0 1 0 0 0 1 0 0 0 1 1 0 1 0 1 0 1 0 1 0

>  <DIFUSE_FUNC_ATOM>  (1225) 
n/a

>  <FINAL_SINGLE_POINT_ENERGY>  (1225) 
0

>  <NONCOV_INTER_ENERGY_QM>  (1225) 
0

>  <FF_Energy>  (1225) 
-5.81

>  <QM_Energy>  (1225) 
-11.14

>  <source>  (1225) 
ETAM_MBZ

>  <Index>  (1225) 
12283

$$$$
ETAM-pdb1t6t-1-LYS-103:MBZ-pdb1t6t-1-PHE-100
     RDKit          3D

 26 25  0  0  0  0  0  0  0  0999 V2000
    3.6450    0.6968    4.4340 C   0  0  0  0  0  0  0  0  0  0  0  0
    4.3227    0.0456    4.7604 H   0  0  0  0  0  0  0  0  0  0  0  0
    2.7306    0.4023    4.6894 H   0  0  0  0  0  0  0  0  0  0  0  0
    3.8426    1.6671    4.8896 H   0  0  0  0  0  0  0  0  0  0  0  0
    3.7275    0.7658    2.9171 C   0  0  0  0  0  0  0  0  0  0  0  0
    3.0415    1.4161    2.5825 H   0  0  0  0  0  0  0  0  0  0  0  0
    4.6393    1.0892    2.6545 H   0  0  0  0  0  0  0  0  0  0  0  0
    3.4836   -0.5657    2.2901 N   0  0  0  0  0  4  0  0  0  0  0  0
    3.0313   -0.4375    1.4085 H   0  0  0  0  0  0  0  0  0  0  0  0
    4.3572   -1.0317    2.1550 H   0  0  0  0  0  0  0  0  0  0  0  0
    2.9007   -1.1118    2.8906 H   0  0  0  0  0  0  0  0  0  0  0  0
    0.0060    2.8989    0.0397 C   0  0  0  0  0  0  0  0  0  0  0  0
   -0.7978    3.2233   -0.4346 H   0  0  0  0  0  0  0  0  0  0  0  0
    0.8342    3.2159   -0.3965 H   0  0  0  0  0  0  0  0  0  0  0  0
   -0.0156    3.3100    1.0490 H   0  0  0  0  0  0  0  0  0  0  0  0
   -0.0001    1.4025    0.0008 C   0  0  0  0  0  0  0  0  0  0  0  0
   -1.1962    0.6963    0.0004 C   0  0  0  0  0  0  0  0  0  0  0  0
   -2.0631    1.1852   -0.0005 H   0  0  0  0  0  0  0  0  0  0  0  0
   -1.2025   -0.6983   -0.0000 C   0  0  0  0  0  0  0  0  0  0  0  0
   -2.0790   -1.1899    0.0015 H   0  0  0  0  0  0  0  0  0  0  0  0
   -0.0006   -1.3953   -0.0008 C   0  0  0  0  0  0  0  0  0  0  0  0
   -0.0048   -2.3942   -0.0028 H   0  0  0  0  0  0  0  0  0  0  0  0
    1.2025   -0.6990    0.0000 C   0  0  0  0  0  0  0  0  0  0  0  0
    2.0825   -1.1953    0.0027 H   0  0  0  0  0  0  0  0  0  0  0  0
    1.1969    0.6939   -0.0004 C   0  0  0  0  0  0  0  0  0  0  0  0
    2.0649    1.1904   -0.0023 H   0  0  0  0  0  0  0  0  0  0  0  0
  1  5  1  0
  5  8  1  0
  1  2  1  0
  1  3  1  0
  1  4  1  0
  5  6  1  0
  5  7  1  0
  8  9  1  0
  8 10  1  0
  8 11  1  0
 12 16  1  0
 16 17  2  0
 17 19  1  0
 19 21  2  0
 21 23  1  0
 23 25  2  0
 25 16  1  0
 12 13  1  0
 12 14  1  0
 12 15  1  0
 17 18  1  0
 19 20  1  0
 21 22  1  0
 23 24  1  0
 25 26  1  0
M  CHG  1   8   1
M  END
>  <PDB_ID>  (1226) 
pdb1t6t

>  <RESIDUE_NAME>  (1226) 
LYS   PHE

>  <FRAG_NAME>  (1226) 
ETAM   MBZ

>  <FRAG_ATOM_NUM>  (1226) 
fragi: 11  fragj: 15

>  <atom.prop.CHAIN_ID>  (1226) 
A A A A A A A A A A A Z Z Z Z Z Z Z Z Z Z Z Z Z Z Z

>  <atom.prop.IS_HEAVY_ATOM>  (1226) 
1 0 0 0 1 0 0 1 0 0 0 1 0 0 0 1 1 0 1 0 1 0 1 0 1 0

>  <DIFUSE_FUNC_ATOM>  (1226) 
n/a

>  <FINAL_SINGLE_POINT_ENERGY>  (1226) 
0

>  <NONCOV_INTER_ENERGY_QM>  (1226) 
0

>  <FF_Energy>  (1226) 
-1.26

>  <QM_Energy>  (1226) 
-7.79

>  <source>  (1226) 
ETAM_MBZ

>  <Index>  (1226) 
12304

$$$$
ETAM-pdb1t6t-2-GLU-4:MBZ-pdb1t6t-2-PHE-100
     RDKit          3D

 26 25  0  0  0  0  0  0  0  0999 V2000
   -2.3971   -3.3730   -4.6912 C   0  0  0  0  0  0  0  0  0  0  0  0
   -3.3802   -3.4125   -4.7214 H   0  0  0  0  0  0  0  0  0  0  0  0
   -2.0621   -2.4528   -4.7873 H   0  0  0  0  0  0  0  0  0  0  0  0
   -2.0176   -3.9516   -5.5334 H   0  0  0  0  0  0  0  0  0  0  0  0
   -1.9529   -3.8908   -3.3181 C   0  0  0  0  0  0  0  0  0  0  0  0
   -2.4243   -4.7787   -3.2011 H   0  0  0  0  0  0  0  0  0  0  0  0
   -0.8752   -4.0537   -3.3111 H   0  0  0  0  0  0  0  0  0  0  0  0
   -2.3764   -2.9697   -2.2714 N   0  0  0  0  0  4  0  0  0  0  0  0
   -1.6257   -2.3478   -2.0362 H   0  0  0  0  0  0  0  0  0  0  0  0
   -3.1593   -2.4282   -2.5862 H   0  0  0  0  0  0  0  0  0  0  0  0
   -2.6435   -3.4806   -1.4519 H   0  0  0  0  0  0  0  0  0  0  0  0
   -0.0033    2.9052    0.0444 C   0  0  0  0  0  0  0  0  0  0  0  0
   -0.7369    3.2271   -0.5320 H   0  0  0  0  0  0  0  0  0  0  0  0
    0.8750    3.2233   -0.2750 H   0  0  0  0  0  0  0  0  0  0  0  0
   -0.1619    3.3093    1.0443 H   0  0  0  0  0  0  0  0  0  0  0  0
    0.0001    1.4045    0.0004 C   0  0  0  0  0  0  0  0  0  0  0  0
   -1.1982    0.6961   -0.0005 C   0  0  0  0  0  0  0  0  0  0  0  0
   -2.0651    1.1838   -0.0028 H   0  0  0  0  0  0  0  0  0  0  0  0
   -1.2032   -0.7014   -0.0000 C   0  0  0  0  0  0  0  0  0  0  0  0
   -2.0798   -1.1925    0.0008 H   0  0  0  0  0  0  0  0  0  0  0  0
   -0.0004   -1.3975    0.0011 C   0  0  0  0  0  0  0  0  0  0  0  0
   -0.0025   -2.3948    0.0019 H   0  0  0  0  0  0  0  0  0  0  0  0
    1.2032   -0.6985    0.0000 C   0  0  0  0  0  0  0  0  0  0  0  0
    2.0841   -1.1951    0.0011 H   0  0  0  0  0  0  0  0  0  0  0  0
    1.1985    0.6967   -0.0009 C   0  0  0  0  0  0  0  0  0  0  0  0
    2.0660    1.1914   -0.0030 H   0  0  0  0  0  0  0  0  0  0  0  0
  1  5  1  0
  5  8  1  0
  1  2  1  0
  1  3  1  0
  1  4  1  0
  5  6  1  0
  5  7  1  0
  8  9  1  0
  8 10  1  0
  8 11  1  0
 12 16  1  0
 16 17  2  0
 17 19  1  0
 19 21  2  0
 21 23  1  0
 23 25  2  0
 25 16  1  0
 12 13  1  0
 12 14  1  0
 12 15  1  0
 17 18  1  0
 19 20  1  0
 21 22  1  0
 23 24  1  0
 25 26  1  0
M  CHG  1   8   1
M  END
>  <PDB_ID>  (1227) 
pdb1t6t

>  <RESIDUE_NAME>  (1227) 
GLU   PHE

>  <FRAG_NAME>  (1227) 
ETAM   MBZ

>  <FRAG_ATOM_NUM>  (1227) 
fragi: 11  fragj: 15

>  <atom.prop.CHAIN_ID>  (1227) 
A A A A A A A A A A A Z Z Z Z Z Z Z Z Z Z Z Z Z Z Z

>  <atom.prop.IS_HEAVY_ATOM>  (1227) 
1 0 0 0 1 0 0 1 0 0 0 1 0 0 0 1 1 0 1 0 1 0 1 0 1 0

>  <DIFUSE_FUNC_ATOM>  (1227) 
n/a

>  <FINAL_SINGLE_POINT_ENERGY>  (1227) 
0

>  <NONCOV_INTER_ENERGY_QM>  (1227) 
0

>  <FF_Energy>  (1227) 
-1.12

>  <QM_Energy>  (1227) 
-7.89

>  <source>  (1227) 
ETAM_MBZ

>  <Index>  (1227) 
12305

$$$$
ETAM-pdb1t6t-2-LYS-103:MBZ-pdb1t6t-2-PHE-100
     RDKit          3D

 26 25  0  0  0  0  0  0  0  0999 V2000
    1.0443   -0.7734    4.0300 C   0  0  0  0  0  0  0  0  0  0  0  0
    1.4747   -1.0288    3.1709 H   0  0  0  0  0  0  0  0  0  0  0  0
    0.9818   -1.5599    4.6352 H   0  0  0  0  0  0  0  0  0  0  0  0
    1.6504   -0.0059    4.5112 H   0  0  0  0  0  0  0  0  0  0  0  0
   -0.3638   -0.2716    3.7381 C   0  0  0  0  0  0  0  0  0  0  0  0
   -0.7693    0.0698    4.5908 H   0  0  0  0  0  0  0  0  0  0  0  0
   -0.3089    0.4860    3.0805 H   0  0  0  0  0  0  0  0  0  0  0  0
   -1.2347   -1.3428    3.1774 N   0  0  0  0  0  4  0  0  0  0  0  0
   -1.0848   -1.4085    2.1915 H   0  0  0  0  0  0  0  0  0  0  0  0
   -1.0063   -2.2144    3.6098 H   0  0  0  0  0  0  0  0  0  0  0  0
   -2.1917   -1.1186    3.3575 H   0  0  0  0  0  0  0  0  0  0  0  0
   -0.0033    2.9052    0.0444 C   0  0  0  0  0  0  0  0  0  0  0  0
   -0.7369    3.2271   -0.5320 H   0  0  0  0  0  0  0  0  0  0  0  0
    0.8750    3.2233   -0.2750 H   0  0  0  0  0  0  0  0  0  0  0  0
   -0.1619    3.3093    1.0443 H   0  0  0  0  0  0  0  0  0  0  0  0
    0.0001    1.4045    0.0004 C   0  0  0  0  0  0  0  0  0  0  0  0
   -1.1982    0.6961   -0.0005 C   0  0  0  0  0  0  0  0  0  0  0  0
   -2.0651    1.1838   -0.0028 H   0  0  0  0  0  0  0  0  0  0  0  0
   -1.2032   -0.7014   -0.0000 C   0  0  0  0  0  0  0  0  0  0  0  0
   -2.0798   -1.1925    0.0008 H   0  0  0  0  0  0  0  0  0  0  0  0
   -0.0004   -1.3975    0.0011 C   0  0  0  0  0  0  0  0  0  0  0  0
   -0.0025   -2.3948    0.0019 H   0  0  0  0  0  0  0  0  0  0  0  0
    1.2032   -0.6985    0.0000 C   0  0  0  0  0  0  0  0  0  0  0  0
    2.0841   -1.1951    0.0011 H   0  0  0  0  0  0  0  0  0  0  0  0
    1.1985    0.6967   -0.0009 C   0  0  0  0  0  0  0  0  0  0  0  0
    2.0660    1.1914   -0.0030 H   0  0  0  0  0  0  0  0  0  0  0  0
  1  5  1  0
  5  8  1  0
  1  2  1  0
  1  3  1  0
  1  4  1  0
  5  6  1  0
  5  7  1  0
  8  9  1  0
  8 10  1  0
  8 11  1  0
 12 16  1  0
 16 17  2  0
 17 19  1  0
 19 21  2  0
 21 23  1  0
 23 25  2  0
 25 16  1  0
 12 13  1  0
 12 14  1  0
 12 15  1  0
 17 18  1  0
 19 20  1  0
 21 22  1  0
 23 24  1  0
 25 26  1  0
M  CHG  1   8   1
M  END
>  <PDB_ID>  (1228) 
pdb1t6t

>  <RESIDUE_NAME>  (1228) 
LYS   PHE

>  <FRAG_NAME>  (1228) 
ETAM   MBZ

>  <FRAG_ATOM_NUM>  (1228) 
fragi: 11  fragj: 15

>  <atom.prop.CHAIN_ID>  (1228) 
A A A A A A A A A A A Z Z Z Z Z Z Z Z Z Z Z Z Z Z Z

>  <atom.prop.IS_HEAVY_ATOM>  (1228) 
1 0 0 0 1 0 0 1 0 0 0 1 0 0 0 1 1 0 1 0 1 0 1 0 1 0

>  <DIFUSE_FUNC_ATOM>  (1228) 
n/a

>  <FINAL_SINGLE_POINT_ENERGY>  (1228) 
0

>  <NONCOV_INTER_ENERGY_QM>  (1228) 
0

>  <FF_Energy>  (1228) 
-6.99

>  <QM_Energy>  (1228) 
-15.19

>  <source>  (1228) 
ETAM_MBZ

>  <Index>  (1228) 
12306

$$$$
ETAM-pdb1su4-A-LYS-204:MBZ-pdb1su4-A-PHE-209
     RDKit          3D

 26 25  0  0  0  0  0  0  0  0999 V2000
   -2.1058   -5.3207    0.1362 C   0  0  0  0  0  0  0  0  0  0  0  0
   -2.5781   -5.0917   -0.7124 H   0  0  0  0  0  0  0  0  0  0  0  0
   -2.5893   -6.0559    0.6058 H   0  0  0  0  0  0  0  0  0  0  0  0
   -1.1043   -5.6715   -0.1134 H   0  0  0  0  0  0  0  0  0  0  0  0
   -2.0887   -4.0947    1.0344 C   0  0  0  0  0  0  0  0  0  0  0  0
   -1.5356   -4.2974    1.8508 H   0  0  0  0  0  0  0  0  0  0  0  0
   -1.6545   -3.3331    0.5390 H   0  0  0  0  0  0  0  0  0  0  0  0
   -3.4541   -3.6796    1.4626 N   0  0  0  0  0  4  0  0  0  0  0  0
   -3.3804   -2.9434    2.1349 H   0  0  0  0  0  0  0  0  0  0  0  0
   -3.9662   -3.3571    0.6675 H   0  0  0  0  0  0  0  0  0  0  0  0
   -3.9251   -4.4612    1.8704 H   0  0  0  0  0  0  0  0  0  0  0  0
    0.0009    2.9026    0.0182 C   0  0  0  0  0  0  0  0  0  0  0  0
    0.9413    3.2088    0.0237 H   0  0  0  0  0  0  0  0  0  0  0  0
   -0.4786    3.1994    0.8306 H   0  0  0  0  0  0  0  0  0  0  0  0
   -0.4924    3.3501   -0.8447 H   0  0  0  0  0  0  0  0  0  0  0  0
    0.0005    1.4033   -0.0002 C   0  0  0  0  0  0  0  0  0  0  0  0
   -1.1969    0.6979   -0.0001 C   0  0  0  0  0  0  0  0  0  0  0  0
   -2.0631    1.1879   -0.0010 H   0  0  0  0  0  0  0  0  0  0  0  0
   -1.2041   -0.6963    0.0000 C   0  0  0  0  0  0  0  0  0  0  0  0
   -2.0813   -1.1878    0.0008 H   0  0  0  0  0  0  0  0  0  0  0  0
   -0.0011   -1.3972    0.0011 C   0  0  0  0  0  0  0  0  0  0  0  0
   -0.0062   -2.3946    0.0023 H   0  0  0  0  0  0  0  0  0  0  0  0
    1.2041   -0.7001   -0.0000 C   0  0  0  0  0  0  0  0  0  0  0  0
    2.0836   -1.1976    0.0015 H   0  0  0  0  0  0  0  0  0  0  0  0
    1.1974    0.6926   -0.0008 C   0  0  0  0  0  0  0  0  0  0  0  0
    2.0661    1.1887   -0.0029 H   0  0  0  0  0  0  0  0  0  0  0  0
  1  5  1  0
  5  8  1  0
  1  2  1  0
  1  3  1  0
  1  4  1  0
  5  6  1  0
  5  7  1  0
  8  9  1  0
  8 10  1  0
  8 11  1  0
 12 16  1  0
 16 17  2  0
 17 19  1  0
 19 21  2  0
 21 23  1  0
 23 25  2  0
 25 16  1  0
 12 13  1  0
 12 14  1  0
 12 15  1  0
 17 18  1  0
 19 20  1  0
 21 22  1  0
 23 24  1  0
 25 26  1  0
M  CHG  1   8   1
M  END
>  <PDB_ID>  (1229) 
pdb1su4

>  <RESIDUE_NAME>  (1229) 
LYS   PHE

>  <FRAG_NAME>  (1229) 
ETAM   MBZ

>  <FRAG_ATOM_NUM>  (1229) 
fragi: 11  fragj: 15

>  <atom.prop.CHAIN_ID>  (1229) 
A A A A A A A A A A A Z Z Z Z Z Z Z Z Z Z Z Z Z Z Z

>  <atom.prop.IS_HEAVY_ATOM>  (1229) 
1 0 0 0 1 0 0 1 0 0 0 1 0 0 0 1 1 0 1 0 1 0 1 0 1 0

>  <DIFUSE_FUNC_ATOM>  (1229) 
n/a

>  <FINAL_SINGLE_POINT_ENERGY>  (1229) 
0

>  <NONCOV_INTER_ENERGY_QM>  (1229) 
0

>  <FF_Energy>  (1229) 
2.1

>  <QM_Energy>  (1229) 
-2.96

>  <source>  (1229) 
ETAM_MBZ

>  <Index>  (1229) 
12312

$$$$
ETAM-pdb1t44-G-LYS-141:MBZ-pdb1t44-G-PHE-63
     RDKit          3D

 26 25  0  0  0  0  0  0  0  0999 V2000
    1.5934   -0.6349    3.8207 C   0  0  0  0  0  0  0  0  0  0  0  0
    1.9587   -1.3762    3.2801 H   0  0  0  0  0  0  0  0  0  0  0  0
    1.7150   -0.7955    4.7871 H   0  0  0  0  0  0  0  0  0  0  0  0
    2.1251    0.2784    3.5537 H   0  0  0  0  0  0  0  0  0  0  0  0
    0.0728   -0.5169    3.5295 C   0  0  0  0  0  0  0  0  0  0  0  0
   -0.3254    0.1316    4.1924 H   0  0  0  0  0  0  0  0  0  0  0  0
   -0.0423   -0.1277    2.6052 H   0  0  0  0  0  0  0  0  0  0  0  0
   -0.6820   -1.8222    3.6072 N   0  0  0  0  0  4  0  0  0  0  0  0
   -1.4666   -1.7036    4.2098 H   0  0  0  0  0  0  0  0  0  0  0  0
   -0.9865   -2.0712    2.6924 H   0  0  0  0  0  0  0  0  0  0  0  0
   -0.0744   -2.5232    3.9690 H   0  0  0  0  0  0  0  0  0  0  0  0
   -0.0140    2.9118   -0.0350 C   0  0  0  0  0  0  0  0  0  0  0  0
   -0.9567    3.2090   -0.0167 H   0  0  0  0  0  0  0  0  0  0  0  0
    0.4349    3.1940   -0.8701 H   0  0  0  0  0  0  0  0  0  0  0  0
    0.5030    3.3847    0.7999 H   0  0  0  0  0  0  0  0  0  0  0  0
   -0.0050    1.3989    0.0063 C   0  0  0  0  0  0  0  0  0  0  0  0
   -1.1934    0.6881    0.0073 C   0  0  0  0  0  0  0  0  0  0  0  0
   -2.0638    1.1780    0.0125 H   0  0  0  0  0  0  0  0  0  0  0  0
   -1.1960   -0.6951   -0.0000 C   0  0  0  0  0  0  0  0  0  0  0  0
   -2.0714   -1.1929   -0.0044 H   0  0  0  0  0  0  0  0  0  0  0  0
    0.0042   -1.3852    0.0013 C   0  0  0  0  0  0  0  0  0  0  0  0
   -0.0020   -2.3881    0.0032 H   0  0  0  0  0  0  0  0  0  0  0  0
    1.1960   -0.6956   -0.0000 C   0  0  0  0  0  0  0  0  0  0  0  0
    2.0805   -1.1940    0.0112 H   0  0  0  0  0  0  0  0  0  0  0  0
    1.1942    0.6889   -0.0150 C   0  0  0  0  0  0  0  0  0  0  0  0
    2.0602    1.1877   -0.0425 H   0  0  0  0  0  0  0  0  0  0  0  0
  1  5  1  0
  5  8  1  0
  1  2  1  0
  1  3  1  0
  1  4  1  0
  5  6  1  0
  5  7  1  0
  8  9  1  0
  8 10  1  0
  8 11  1  0
 12 16  1  0
 16 17  2  0
 17 19  1  0
 19 21  2  0
 21 23  1  0
 23 25  2  0
 25 16  1  0
 12 13  1  0
 12 14  1  0
 12 15  1  0
 17 18  1  0
 19 20  1  0
 21 22  1  0
 23 24  1  0
 25 26  1  0
M  CHG  1   8   1
M  END
>  <PDB_ID>  (1230) 
pdb1t44

>  <RESIDUE_NAME>  (1230) 
LYS   PHE

>  <FRAG_NAME>  (1230) 
ETAM   MBZ

>  <FRAG_ATOM_NUM>  (1230) 
fragi: 11  fragj: 15

>  <atom.prop.CHAIN_ID>  (1230) 
A A A A A A A A A A A Z Z Z Z Z Z Z Z Z Z Z Z Z Z Z

>  <atom.prop.IS_HEAVY_ATOM>  (1230) 
1 0 0 0 1 0 0 1 0 0 0 1 0 0 0 1 1 0 1 0 1 0 1 0 1 0

>  <DIFUSE_FUNC_ATOM>  (1230) 
n/a

>  <FINAL_SINGLE_POINT_ENERGY>  (1230) 
0

>  <NONCOV_INTER_ENERGY_QM>  (1230) 
0

>  <FF_Energy>  (1230) 
-5.84

>  <QM_Energy>  (1230) 
-12.58

>  <source>  (1230) 
ETAM_MBZ

>  <Index>  (1230) 
12315

$$$$
ETAM-pdb1t71-A-LYS-49:MBZ-pdb1t71-A-PHE-75
     RDKit          3D

 26 25  0  0  0  0  0  0  0  0999 V2000
    0.2986    0.3719    4.3111 C   0  0  0  0  0  0  0  0  0  0  0  0
    0.9857    0.8705    3.7915 H   0  0  0  0  0  0  0  0  0  0  0  0
    0.7096   -0.0485    5.1137 H   0  0  0  0  0  0  0  0  0  0  0  0
   -0.4722    1.0710    4.6351 H   0  0  0  0  0  0  0  0  0  0  0  0
   -0.2809   -0.7144    3.4350 C   0  0  0  0  0  0  0  0  0  0  0  0
   -0.9630   -1.2328    3.9595 H   0  0  0  0  0  0  0  0  0  0  0  0
   -0.7370   -0.2934    2.6444 H   0  0  0  0  0  0  0  0  0  0  0  0
    0.7678   -1.6544    2.9443 N   0  0  0  0  0  4  0  0  0  0  0  0
    0.5602   -2.5768    3.2649 H   0  0  0  0  0  0  0  0  0  0  0  0
    0.7817   -1.6408    1.9455 H   0  0  0  0  0  0  0  0  0  0  0  0
    1.6581   -1.3691    3.2963 H   0  0  0  0  0  0  0  0  0  0  0  0
    0.0096    2.8916   -0.0491 C   0  0  0  0  0  0  0  0  0  0  0  0
    0.7391    3.2165    0.5311 H   0  0  0  0  0  0  0  0  0  0  0  0
   -0.8705    3.2171    0.2560 H   0  0  0  0  0  0  0  0  0  0  0  0
    0.1810    3.2834   -1.0517 H   0  0  0  0  0  0  0  0  0  0  0  0
   -0.0001    1.3983    0.0023 C   0  0  0  0  0  0  0  0  0  0  0  0
   -1.1982    0.6960   -0.0001 C   0  0  0  0  0  0  0  0  0  0  0  0
   -2.0631    1.1880   -0.0030 H   0  0  0  0  0  0  0  0  0  0  0  0
   -1.2030   -0.6928   -0.0000 C   0  0  0  0  0  0  0  0  0  0  0  0
   -2.0785   -1.1886    0.0042 H   0  0  0  0  0  0  0  0  0  0  0  0
    0.0005   -1.3919   -0.0033 C   0  0  0  0  0  0  0  0  0  0  0  0
   -0.0067   -2.3901   -0.0089 H   0  0  0  0  0  0  0  0  0  0  0  0
    1.2030   -0.6986   -0.0000 C   0  0  0  0  0  0  0  0  0  0  0  0
    2.0829   -1.1981    0.0030 H   0  0  0  0  0  0  0  0  0  0  0  0
    1.1978    0.6891    0.0011 C   0  0  0  0  0  0  0  0  0  0  0  0
    2.0653    1.1875   -0.0002 H   0  0  0  0  0  0  0  0  0  0  0  0
  1  5  1  0
  5  8  1  0
  1  2  1  0
  1  3  1  0
  1  4  1  0
  5  6  1  0
  5  7  1  0
  8  9  1  0
  8 10  1  0
  8 11  1  0
 12 16  1  0
 16 17  2  0
 17 19  1  0
 19 21  2  0
 21 23  1  0
 23 25  2  0
 25 16  1  0
 12 13  1  0
 12 14  1  0
 12 15  1  0
 17 18  1  0
 19 20  1  0
 21 22  1  0
 23 24  1  0
 25 26  1  0
M  CHG  1   8   1
M  END
>  <PDB_ID>  (1231) 
pdb1t71

>  <RESIDUE_NAME>  (1231) 
LYS   PHE

>  <FRAG_NAME>  (1231) 
ETAM   MBZ

>  <FRAG_ATOM_NUM>  (1231) 
fragi: 11  fragj: 15

>  <atom.prop.CHAIN_ID>  (1231) 
A A A A A A A A A A A Z Z Z Z Z Z Z Z Z Z Z Z Z Z Z

>  <atom.prop.IS_HEAVY_ATOM>  (1231) 
1 0 0 0 1 0 0 1 0 0 0 1 0 0 0 1 1 0 1 0 1 0 1 0 1 0

>  <DIFUSE_FUNC_ATOM>  (1231) 
n/a

>  <FINAL_SINGLE_POINT_ENERGY>  (1231) 
0

>  <NONCOV_INTER_ENERGY_QM>  (1231) 
0

>  <FF_Energy>  (1231) 
-5.95

>  <QM_Energy>  (1231) 
-15.15

>  <source>  (1231) 
ETAM_MBZ

>  <Index>  (1231) 
12317

$$$$
ETAM-pdb2z00-A-LYS-106:MBZ-pdb2z00-A-PHE-70
     RDKit          3D

 26 25  0  0  0  0  0  0  0  0999 V2000
    1.2541   -1.7594   -4.8733 C   0  0  0  0  0  0  0  0  0  0  0  0
    1.7953   -2.5931   -4.9162 H   0  0  0  0  0  0  0  0  0  0  0  0
    1.6367   -1.0669   -5.4761 H   0  0  0  0  0  0  0  0  0  0  0  0
    0.2334   -1.9803   -5.1854 H   0  0  0  0  0  0  0  0  0  0  0  0
    1.2886   -1.2336   -3.4508 C   0  0  0  0  0  0  0  0  0  0  0  0
    0.8282   -0.3445   -3.4195 H   0  0  0  0  0  0  0  0  0  0  0  0
    0.8048   -1.8757   -2.8528 H   0  0  0  0  0  0  0  0  0  0  0  0
    2.6880   -1.0758   -2.9677 N   0  0  0  0  0  4  0  0  0  0  0  0
    2.7391   -0.2921   -2.3501 H   0  0  0  0  0  0  0  0  0  0  0  0
    2.9660   -1.9033   -2.4821 H   0  0  0  0  0  0  0  0  0  0  0  0
    3.2931   -0.9267   -3.7490 H   0  0  0  0  0  0  0  0  0  0  0  0
    0.0039    2.9053    0.0200 C   0  0  0  0  0  0  0  0  0  0  0  0
    0.9444    3.2092    0.0839 H   0  0  0  0  0  0  0  0  0  0  0  0
   -0.5204    3.2035    0.8056 H   0  0  0  0  0  0  0  0  0  0  0  0
   -0.4336    3.3668   -0.8653 H   0  0  0  0  0  0  0  0  0  0  0  0
   -0.0005    1.4039    0.0004 C   0  0  0  0  0  0  0  0  0  0  0  0
   -1.1979    0.6974    0.0008 C   0  0  0  0  0  0  0  0  0  0  0  0
   -2.0639    1.1863    0.0012 H   0  0  0  0  0  0  0  0  0  0  0  0
   -1.2036   -0.6975   -0.0000 C   0  0  0  0  0  0  0  0  0  0  0  0
   -2.0786   -1.1898    0.0014 H   0  0  0  0  0  0  0  0  0  0  0  0
    0.0020   -1.3971   -0.0008 C   0  0  0  0  0  0  0  0  0  0  0  0
   -0.0039   -2.3942   -0.0021 H   0  0  0  0  0  0  0  0  0  0  0  0
    1.2036   -0.7000    0.0000 C   0  0  0  0  0  0  0  0  0  0  0  0
    2.0847   -1.1956    0.0023 H   0  0  0  0  0  0  0  0  0  0  0  0
    1.1964    0.6934   -0.0005 C   0  0  0  0  0  0  0  0  0  0  0  0
    2.0654    1.1896   -0.0024 H   0  0  0  0  0  0  0  0  0  0  0  0
  1  5  1  0
  5  8  1  0
  1  2  1  0
  1  3  1  0
  1  4  1  0
  5  6  1  0
  5  7  1  0
  8  9  1  0
  8 10  1  0
  8 11  1  0
 12 16  1  0
 16 17  2  0
 17 19  1  0
 19 21  2  0
 21 23  1  0
 23 25  2  0
 25 16  1  0
 12 13  1  0
 12 14  1  0
 12 15  1  0
 17 18  1  0
 19 20  1  0
 21 22  1  0
 23 24  1  0
 25 26  1  0
M  CHG  1   8   1
M  END
>  <PDB_ID>  (1232) 
pdb2z00

>  <RESIDUE_NAME>  (1232) 
LYS   PHE

>  <FRAG_NAME>  (1232) 
ETAM   MBZ

>  <FRAG_ATOM_NUM>  (1232) 
fragi: 11  fragj: 15

>  <atom.prop.CHAIN_ID>  (1232) 
A A A A A A A A A A A Z Z Z Z Z Z Z Z Z Z Z Z Z Z Z

>  <atom.prop.IS_HEAVY_ATOM>  (1232) 
1 0 0 0 1 0 0 1 0 0 0 1 0 0 0 1 1 0 1 0 1 0 1 0 1 0

>  <DIFUSE_FUNC_ATOM>  (1232) 
n/a

>  <FINAL_SINGLE_POINT_ENERGY>  (1232) 
0

>  <NONCOV_INTER_ENERGY_QM>  (1232) 
0

>  <FF_Energy>  (1232) 
-3.75

>  <QM_Energy>  (1232) 
-9.71

>  <source>  (1232) 
ETAM_MBZ

>  <Index>  (1232) 
12323

$$$$
ETAM-pdb2z37-A-LYS-232:MBZ-pdb2z37-A-PHE-173
     RDKit          3D

 26 25  0  0  0  0  0  0  0  0999 V2000
    0.3979    0.4685   -3.6027 C   0  0  0  0  0  0  0  0  0  0  0  0
    0.4966   -0.2899   -2.9692 H   0  0  0  0  0  0  0  0  0  0  0  0
    0.2810    1.3230   -3.1093 H   0  0  0  0  0  0  0  0  0  0  0  0
    1.2886    0.5325   -4.2278 H   0  0  0  0  0  0  0  0  0  0  0  0
   -0.8380    0.2290   -4.4511 C   0  0  0  0  0  0  0  0  0  0  0  0
   -1.0020    1.0336   -5.0265 H   0  0  0  0  0  0  0  0  0  0  0  0
   -0.6830   -0.5669   -5.0406 H   0  0  0  0  0  0  0  0  0  0  0  0
   -2.0503   -0.0205   -3.6079 N   0  0  0  0  0  4  0  0  0  0  0  0
   -2.3613   -0.9579   -3.7515 H   0  0  0  0  0  0  0  0  0  0  0  0
   -1.8141    0.1138   -2.6475 H   0  0  0  0  0  0  0  0  0  0  0  0
   -2.7697    0.6191   -3.8718 H   0  0  0  0  0  0  0  0  0  0  0  0
   -0.0060    2.9103    0.0258 C   0  0  0  0  0  0  0  0  0  0  0  0
   -0.6782    3.2236   -0.6260 H   0  0  0  0  0  0  0  0  0  0  0  0
    0.9014    3.2208   -0.2089 H   0  0  0  0  0  0  0  0  0  0  0  0
   -0.2619    3.3310    0.9982 H   0  0  0  0  0  0  0  0  0  0  0  0
   -0.0023    1.4019    0.0011 C   0  0  0  0  0  0  0  0  0  0  0  0
   -1.1954    0.6837    0.0029 C   0  0  0  0  0  0  0  0  0  0  0  0
   -2.0650    1.1758    0.0051 H   0  0  0  0  0  0  0  0  0  0  0  0
   -1.1951   -0.6965   -0.0000 C   0  0  0  0  0  0  0  0  0  0  0  0
   -2.0709   -1.1977    0.0036 H   0  0  0  0  0  0  0  0  0  0  0  0
    0.0072   -1.3941   -0.0068 C   0  0  0  0  0  0  0  0  0  0  0  0
   -0.0003   -2.3921   -0.0173 H   0  0  0  0  0  0  0  0  0  0  0  0
    1.1951   -0.6966   -0.0000 C   0  0  0  0  0  0  0  0  0  0  0  0
    2.0838   -1.1860    0.0048 H   0  0  0  0  0  0  0  0  0  0  0  0
    1.1905    0.7015    0.0028 C   0  0  0  0  0  0  0  0  0  0  0  0
    2.0602    1.1923    0.0052 H   0  0  0  0  0  0  0  0  0  0  0  0
  1  5  1  0
  5  8  1  0
  1  2  1  0
  1  3  1  0
  1  4  1  0
  5  6  1  0
  5  7  1  0
  8  9  1  0
  8 10  1  0
  8 11  1  0
 12 16  1  0
 16 17  2  0
 17 19  1  0
 19 21  2  0
 21 23  1  0
 23 25  2  0
 25 16  1  0
 12 13  1  0
 12 14  1  0
 12 15  1  0
 17 18  1  0
 19 20  1  0
 21 22  1  0
 23 24  1  0
 25 26  1  0
M  CHG  1   8   1
M  END
>  <PDB_ID>  (1233) 
pdb2z37

>  <RESIDUE_NAME>  (1233) 
LYS   PHE

>  <FRAG_NAME>  (1233) 
ETAM   MBZ

>  <FRAG_ATOM_NUM>  (1233) 
fragi: 11  fragj: 15

>  <atom.prop.CHAIN_ID>  (1233) 
A A A A A A A A A A A Z Z Z Z Z Z Z Z Z Z Z Z Z Z Z

>  <atom.prop.IS_HEAVY_ATOM>  (1233) 
1 0 0 0 1 0 0 1 0 0 0 1 0 0 0 1 1 0 1 0 1 0 1 0 1 0

>  <DIFUSE_FUNC_ATOM>  (1233) 
n/a

>  <FINAL_SINGLE_POINT_ENERGY>  (1233) 
0

>  <NONCOV_INTER_ENERGY_QM>  (1233) 
0

>  <FF_Energy>  (1233) 
-6.08

>  <QM_Energy>  (1233) 
-11.97

>  <source>  (1233) 
ETAM_MBZ

>  <Index>  (1233) 
12325

$$$$
ETAM-pdb2z5f-A-LYS-48:MBZ-pdb2z5f-A-PHE-143
     RDKit          3D

 26 25  0  0  0  0  0  0  0  0999 V2000
   -0.2857    1.7418   -3.8933 C   0  0  0  0  0  0  0  0  0  0  0  0
   -0.5025    1.0180   -4.5322 H   0  0  0  0  0  0  0  0  0  0  0  0
    0.2036    1.3903   -3.1081 H   0  0  0  0  0  0  0  0  0  0  0  0
    0.3384    2.4804   -4.3962 H   0  0  0  0  0  0  0  0  0  0  0  0
   -1.5785    2.3801   -3.4197 C   0  0  0  0  0  0  0  0  0  0  0  0
   -1.3738    3.0796   -2.7432 H   0  0  0  0  0  0  0  0  0  0  0  0
   -2.0547    2.7784   -4.1961 H   0  0  0  0  0  0  0  0  0  0  0  0
   -2.4649    1.3381   -2.7884 N   0  0  0  0  0  4  0  0  0  0  0  0
   -2.8676    0.7783   -3.5082 H   0  0  0  0  0  0  0  0  0  0  0  0
   -1.9137    0.7706   -2.1823 H   0  0  0  0  0  0  0  0  0  0  0  0
   -3.1818    1.7960   -2.2695 H   0  0  0  0  0  0  0  0  0  0  0  0
   -0.0179    2.9239   -0.0142 C   0  0  0  0  0  0  0  0  0  0  0  0
   -0.6540    3.2146   -0.7132 H   0  0  0  0  0  0  0  0  0  0  0  0
    0.9013    3.2277   -0.2168 H   0  0  0  0  0  0  0  0  0  0  0  0
   -0.3233    3.3721    0.9313 H   0  0  0  0  0  0  0  0  0  0  0  0
   -0.0066    1.4037   -0.0103 C   0  0  0  0  0  0  0  0  0  0  0  0
   -1.1945    0.6991   -0.0004 C   0  0  0  0  0  0  0  0  0  0  0  0
   -2.0664    1.1879    0.0051 H   0  0  0  0  0  0  0  0  0  0  0  0
   -1.2086   -0.6960   -0.0000 C   0  0  0  0  0  0  0  0  0  0  0  0
   -2.0845   -1.1849    0.0009 H   0  0  0  0  0  0  0  0  0  0  0  0
   -0.0030   -1.4025    0.0011 C   0  0  0  0  0  0  0  0  0  0  0  0
   -0.0110   -2.3984    0.0025 H   0  0  0  0  0  0  0  0  0  0  0  0
    1.2086   -0.7064   -0.0000 C   0  0  0  0  0  0  0  0  0  0  0  0
    2.0856   -1.1991   -0.0063 H   0  0  0  0  0  0  0  0  0  0  0  0
    1.2042    0.7020    0.0096 C   0  0  0  0  0  0  0  0  0  0  0  0
    2.0651    1.1949    0.0297 H   0  0  0  0  0  0  0  0  0  0  0  0
  1  5  1  0
  5  8  1  0
  1  2  1  0
  1  3  1  0
  1  4  1  0
  5  6  1  0
  5  7  1  0
  8  9  1  0
  8 10  1  0
  8 11  1  0
 12 16  1  0
 16 17  2  0
 17 19  1  0
 19 21  2  0
 21 23  1  0
 23 25  2  0
 25 16  1  0
 12 13  1  0
 12 14  1  0
 12 15  1  0
 17 18  1  0
 19 20  1  0
 21 22  1  0
 23 24  1  0
 25 26  1  0
M  CHG  1   8   1
M  END
>  <PDB_ID>  (1234) 
pdb2z5f

>  <RESIDUE_NAME>  (1234) 
LYS   PHE

>  <FRAG_NAME>  (1234) 
ETAM   MBZ

>  <FRAG_ATOM_NUM>  (1234) 
fragi: 11  fragj: 15

>  <atom.prop.CHAIN_ID>  (1234) 
A A A A A A A A A A A Z Z Z Z Z Z Z Z Z Z Z Z Z Z Z

>  <atom.prop.IS_HEAVY_ATOM>  (1234) 
1 0 0 0 1 0 0 1 0 0 0 1 0 0 0 1 1 0 1 0 1 0 1 0 1 0

>  <DIFUSE_FUNC_ATOM>  (1234) 
n/a

>  <FINAL_SINGLE_POINT_ENERGY>  (1234) 
0

>  <NONCOV_INTER_ENERGY_QM>  (1234) 
0

>  <FF_Energy>  (1234) 
-4.58

>  <QM_Energy>  (1234) 
-11.31

>  <source>  (1234) 
ETAM_MBZ

>  <Index>  (1234) 
12377

$$$$
ETAM-pdb2z5f-B-LYS-48:MBZ-pdb2z5f-B-PHE-143
     RDKit          3D

 26 25  0  0  0  0  0  0  0  0999 V2000
    0.3168    1.7884   -3.9191 C   0  0  0  0  0  0  0  0  0  0  0  0
    0.2499    1.1542   -4.6730 H   0  0  0  0  0  0  0  0  0  0  0  0
    0.7432    1.3746   -3.1318 H   0  0  0  0  0  0  0  0  0  0  0  0
    0.9641    2.6033   -4.2434 H   0  0  0  0  0  0  0  0  0  0  0  0
   -1.0563    2.3016   -3.5522 C   0  0  0  0  0  0  0  0  0  0  0  0
   -0.9815    2.9115   -2.7621 H   0  0  0  0  0  0  0  0  0  0  0  0
   -1.4368    2.8111   -4.3261 H   0  0  0  0  0  0  0  0  0  0  0  0
   -1.9832    1.1783   -3.2101 N   0  0  0  0  0  4  0  0  0  0  0  0
   -2.1205    1.1557   -2.2217 H   0  0  0  0  0  0  0  0  0  0  0  0
   -2.8578    1.3240   -3.6688 H   0  0  0  0  0  0  0  0  0  0  0  0
   -1.5804    0.3170   -3.5148 H   0  0  0  0  0  0  0  0  0  0  0  0
    0.0261    2.9141   -0.0165 C   0  0  0  0  0  0  0  0  0  0  0  0
   -0.5113    3.2085   -0.7932 H   0  0  0  0  0  0  0  0  0  0  0  0
    0.9685    3.2018   -0.1038 H   0  0  0  0  0  0  0  0  0  0  0  0
   -0.3905    3.3679    0.8828 H   0  0  0  0  0  0  0  0  0  0  0  0
    0.0095    1.4071    0.0045 C   0  0  0  0  0  0  0  0  0  0  0  0
   -1.1996    0.7126    0.0055 C   0  0  0  0  0  0  0  0  0  0  0  0
   -2.0588    1.2033    0.0086 H   0  0  0  0  0  0  0  0  0  0  0  0
   -1.2089   -0.6911    0.0000 C   0  0  0  0  0  0  0  0  0  0  0  0
   -2.0901   -1.1747    0.0090 H   0  0  0  0  0  0  0  0  0  0  0  0
   -0.0114   -1.4004   -0.0163 C   0  0  0  0  0  0  0  0  0  0  0  0
   -0.0275   -2.4000   -0.0401 H   0  0  0  0  0  0  0  0  0  0  0  0
    1.2089   -0.7227    0.0000 C   0  0  0  0  0  0  0  0  0  0  0  0
    2.0781   -1.2134    0.0090 H   0  0  0  0  0  0  0  0  0  0  0  0
    1.2016    0.6945    0.0063 C   0  0  0  0  0  0  0  0  0  0  0  0
    2.0751    1.1781    0.0113 H   0  0  0  0  0  0  0  0  0  0  0  0
  1  5  1  0
  5  8  1  0
  1  2  1  0
  1  3  1  0
  1  4  1  0
  5  6  1  0
  5  7  1  0
  8  9  1  0
  8 10  1  0
  8 11  1  0
 12 16  1  0
 16 17  2  0
 17 19  1  0
 19 21  2  0
 21 23  1  0
 23 25  2  0
 25 16  1  0
 12 13  1  0
 12 14  1  0
 12 15  1  0
 17 18  1  0
 19 20  1  0
 21 22  1  0
 23 24  1  0
 25 26  1  0
M  CHG  1   8   1
M  END
>  <PDB_ID>  (1235) 
pdb2z5f

>  <RESIDUE_NAME>  (1235) 
LYS   PHE

>  <FRAG_NAME>  (1235) 
ETAM   MBZ

>  <FRAG_ATOM_NUM>  (1235) 
fragi: 11  fragj: 15

>  <atom.prop.CHAIN_ID>  (1235) 
A A A A A A A A A A A Z Z Z Z Z Z Z Z Z Z Z Z Z Z Z

>  <atom.prop.IS_HEAVY_ATOM>  (1235) 
1 0 0 0 1 0 0 1 0 0 0 1 0 0 0 1 1 0 1 0 1 0 1 0 1 0

>  <DIFUSE_FUNC_ATOM>  (1235) 
n/a

>  <FINAL_SINGLE_POINT_ENERGY>  (1235) 
0

>  <NONCOV_INTER_ENERGY_QM>  (1235) 
0

>  <FF_Energy>  (1235) 
-5.2

>  <QM_Energy>  (1235) 
-11.12

>  <source>  (1235) 
ETAM_MBZ

>  <Index>  (1235) 
12381

$$$$
ETAM-pdb2z5f-B-LYS-48:MBZ-pdb2z5f-B-PHE-256
     RDKit          3D

 26 25  0  0  0  0  0  0  0  0999 V2000
   -2.9918   -3.2411    4.6172 C   0  0  0  0  0  0  0  0  0  0  0  0
   -2.5618   -3.9775    4.1195 H   0  0  0  0  0  0  0  0  0  0  0  0
   -3.9045   -3.0633    4.2883 H   0  0  0  0  0  0  0  0  0  0  0  0
   -3.0819   -3.5656    5.6540 H   0  0  0  0  0  0  0  0  0  0  0  0
   -2.1529   -1.9884    4.5137 C   0  0  0  0  0  0  0  0  0  0  0  0
   -2.6176   -1.2388    4.9870 H   0  0  0  0  0  0  0  0  0  0  0  0
   -1.2636   -2.1491    4.9457 H   0  0  0  0  0  0  0  0  0  0  0  0
   -1.9336   -1.5972    3.0866 N   0  0  0  0  0  4  0  0  0  0  0  0
   -2.5009   -0.8042    2.8729 H   0  0  0  0  0  0  0  0  0  0  0  0
   -0.9710   -1.3688    2.9537 H   0  0  0  0  0  0  0  0  0  0  0  0
   -2.1851   -2.3614    2.4951 H   0  0  0  0  0  0  0  0  0  0  0  0
    0.0001    2.9076   -0.0048 C   0  0  0  0  0  0  0  0  0  0  0  0
   -0.8268    3.2222   -0.4320 H   0  0  0  0  0  0  0  0  0  0  0  0
    0.8055    3.2153   -0.4756 H   0  0  0  0  0  0  0  0  0  0  0  0
    0.0294    3.3168    1.0051 H   0  0  0  0  0  0  0  0  0  0  0  0
   -0.0066    1.4031   -0.0182 C   0  0  0  0  0  0  0  0  0  0  0  0
   -1.2130    0.7037   -0.0150 C   0  0  0  0  0  0  0  0  0  0  0  0
   -2.0733    1.1903   -0.0243 H   0  0  0  0  0  0  0  0  0  0  0  0
   -1.2112   -0.6948    0.0000 C   0  0  0  0  0  0  0  0  0  0  0  0
   -2.0715   -1.2011   -0.0254 H   0  0  0  0  0  0  0  0  0  0  0  0
    0.0250   -1.4034    0.0535 C   0  0  0  0  0  0  0  0  0  0  0  0
    0.0119   -2.3891    0.1270 H   0  0  0  0  0  0  0  0  0  0  0  0
    1.2112   -0.6913   -0.0000 C   0  0  0  0  0  0  0  0  0  0  0  0
    2.0998   -1.1866   -0.0225 H   0  0  0  0  0  0  0  0  0  0  0  0
    1.1946    0.6828   -0.0203 C   0  0  0  0  0  0  0  0  0  0  0  0
    2.0622    1.1946   -0.0378 H   0  0  0  0  0  0  0  0  0  0  0  0
  1  5  1  0
  5  8  1  0
  1  2  1  0
  1  3  1  0
  1  4  1  0
  5  6  1  0
  5  7  1  0
  8  9  1  0
  8 10  1  0
  8 11  1  0
 12 16  1  0
 16 17  2  0
 17 19  1  0
 19 21  2  0
 21 23  1  0
 23 25  2  0
 25 16  1  0
 12 13  1  0
 12 14  1  0
 12 15  1  0
 17 18  1  0
 19 20  1  0
 21 22  1  0
 23 24  1  0
 25 26  1  0
M  CHG  1   8   1
M  END
>  <PDB_ID>  (1236) 
pdb2z5f

>  <RESIDUE_NAME>  (1236) 
LYS   PHE

>  <FRAG_NAME>  (1236) 
ETAM   MBZ

>  <FRAG_ATOM_NUM>  (1236) 
fragi: 11  fragj: 15

>  <atom.prop.CHAIN_ID>  (1236) 
A A A A A A A A A A A Z Z Z Z Z Z Z Z Z Z Z Z Z Z Z

>  <atom.prop.IS_HEAVY_ATOM>  (1236) 
1 0 0 0 1 0 0 1 0 0 0 1 0 0 0 1 1 0 1 0 1 0 1 0 1 0

>  <DIFUSE_FUNC_ATOM>  (1236) 
n/a

>  <FINAL_SINGLE_POINT_ENERGY>  (1236) 
0

>  <NONCOV_INTER_ENERGY_QM>  (1236) 
0

>  <FF_Energy>  (1236) 
-3.57

>  <QM_Energy>  (1236) 
-9.74

>  <source>  (1236) 
ETAM_MBZ

>  <Index>  (1236) 
12382

$$$$
ETAM-pdb1tab-E-LYS-60:MBZ-pdb1tab-E-PHE-41
     RDKit          3D

 26 25  0  0  0  0  0  0  0  0999 V2000
    0.5792   -1.1474   -3.4160 C   0  0  0  0  0  0  0  0  0  0  0  0
    0.6942   -1.0891   -2.4559 H   0  0  0  0  0  0  0  0  0  0  0  0
    1.2648   -1.6515   -3.8792 H   0  0  0  0  0  0  0  0  0  0  0  0
   -0.3928   -1.5925   -3.6287 H   0  0  0  0  0  0  0  0  0  0  0  0
    0.5035    0.2450   -3.9969 C   0  0  0  0  0  0  0  0  0  0  0  0
    1.3994    0.6509   -3.9776 H   0  0  0  0  0  0  0  0  0  0  0  0
    0.1400    0.1944   -4.9099 H   0  0  0  0  0  0  0  0  0  0  0  0
   -0.4082    0.9922   -3.1328 N   0  0  0  0  0  4  0  0  0  0  0  0
   -1.2439    0.4597   -2.9696 H   0  0  0  0  0  0  0  0  0  0  0  0
    0.0316    1.1839   -2.2506 H   0  0  0  0  0  0  0  0  0  0  0  0
   -0.6580    1.8626   -3.5655 H   0  0  0  0  0  0  0  0  0  0  0  0
   -0.0507    2.8780   -0.0276 C   0  0  0  0  0  0  0  0  0  0  0  0
   -0.8972    3.1743   -0.4268 H   0  0  0  0  0  0  0  0  0  0  0  0
    0.7339    3.2174   -0.5106 H   0  0  0  0  0  0  0  0  0  0  0  0
   -0.0092    3.2817    0.9840 H   0  0  0  0  0  0  0  0  0  0  0  0
   -0.0118    1.3974   -0.0291 C   0  0  0  0  0  0  0  0  0  0  0  0
   -1.1928    0.6655    0.0069 C   0  0  0  0  0  0  0  0  0  0  0  0
   -2.0732    1.1545    0.0382 H   0  0  0  0  0  0  0  0  0  0  0  0
   -1.2139   -0.7324    0.0000 C   0  0  0  0  0  0  0  0  0  0  0  0
   -2.0675   -1.2219   -0.0344 H   0  0  0  0  0  0  0  0  0  0  0  0
    0.0081   -1.3767    0.0451 C   0  0  0  0  0  0  0  0  0  0  0  0
    0.0321   -2.3875    0.1120 H   0  0  0  0  0  0  0  0  0  0  0  0
    1.2139   -0.6742   -0.0000 C   0  0  0  0  0  0  0  0  0  0  0  0
    2.0924   -1.1666   -0.0144 H   0  0  0  0  0  0  0  0  0  0  0  0
    1.1966    0.7203   -0.0229 C   0  0  0  0  0  0  0  0  0  0  0  0
    2.0538    1.2239   -0.0359 H   0  0  0  0  0  0  0  0  0  0  0  0
  1  5  1  0
  5  8  1  0
  1  2  1  0
  1  3  1  0
  1  4  1  0
  5  6  1  0
  5  7  1  0
  8  9  1  0
  8 10  1  0
  8 11  1  0
 12 16  1  0
 16 17  2  0
 17 19  1  0
 19 21  2  0
 21 23  1  0
 23 25  2  0
 25 16  1  0
 12 13  1  0
 12 14  1  0
 12 15  1  0
 17 18  1  0
 19 20  1  0
 21 22  1  0
 23 24  1  0
 25 26  1  0
M  CHG  1   8   1
M  END
>  <PDB_ID>  (1237) 
pdb1tab

>  <RESIDUE_NAME>  (1237) 
LYS   PHE

>  <FRAG_NAME>  (1237) 
ETAM   MBZ

>  <FRAG_ATOM_NUM>  (1237) 
fragi: 11  fragj: 15

>  <atom.prop.CHAIN_ID>  (1237) 
A A A A A A A A A A A Z Z Z Z Z Z Z Z Z Z Z Z Z Z Z

>  <atom.prop.IS_HEAVY_ATOM>  (1237) 
1 0 0 0 1 0 0 1 0 0 0 1 0 0 0 1 1 0 1 0 1 0 1 0 1 0

>  <DIFUSE_FUNC_ATOM>  (1237) 
n/a

>  <FINAL_SINGLE_POINT_ENERGY>  (1237) 
0

>  <NONCOV_INTER_ENERGY_QM>  (1237) 
0

>  <FF_Energy>  (1237) 
-8.44

>  <QM_Energy>  (1237) 
-15.66

>  <source>  (1237) 
ETAM_MBZ

>  <Index>  (1237) 
12386

$$$$
ETAM-pdb1tb3-A-LYS-131:MBZ-pdb1tb3-A-PHE-136
     RDKit          3D

 26 25  0  0  0  0  0  0  0  0999 V2000
   -1.2491   -1.0230    4.0974 C   0  0  0  0  0  0  0  0  0  0  0  0
   -1.1481   -0.7046    5.0357 H   0  0  0  0  0  0  0  0  0  0  0  0
   -0.9897   -1.9823    4.0315 H   0  0  0  0  0  0  0  0  0  0  0  0
   -2.2937   -0.9200    3.8035 H   0  0  0  0  0  0  0  0  0  0  0  0
   -0.3303   -0.2086    3.2054 C   0  0  0  0  0  0  0  0  0  0  0  0
   -0.4179   -0.5370    2.2593 H   0  0  0  0  0  0  0  0  0  0  0  0
   -0.6139    0.7557    3.2370 H   0  0  0  0  0  0  0  0  0  0  0  0
    1.0956   -0.3096    3.6242 N   0  0  0  0  0  4  0  0  0  0  0  0
    1.6428    0.3385    3.0954 H   0  0  0  0  0  0  0  0  0  0  0  0
    1.1707   -0.0963    4.5977 H   0  0  0  0  0  0  0  0  0  0  0  0
    1.4243   -1.2393    3.4592 H   0  0  0  0  0  0  0  0  0  0  0  0
   -0.0032    2.9251   -0.0467 C   0  0  0  0  0  0  0  0  0  0  0  0
    0.8695    3.2395    0.2876 H   0  0  0  0  0  0  0  0  0  0  0  0
   -0.7467    3.2430    0.5176 H   0  0  0  0  0  0  0  0  0  0  0  0
   -0.1448    3.3330   -1.0475 H   0  0  0  0  0  0  0  0  0  0  0  0
    0.0002    1.4112   -0.0005 C   0  0  0  0  0  0  0  0  0  0  0  0
   -1.1968    0.6961    0.0007 C   0  0  0  0  0  0  0  0  0  0  0  0
   -2.0656    1.1829    0.0006 H   0  0  0  0  0  0  0  0  0  0  0  0
   -1.2025   -0.7039    0.0000 C   0  0  0  0  0  0  0  0  0  0  0  0
   -2.0802   -1.1926    0.0017 H   0  0  0  0  0  0  0  0  0  0  0  0
   -0.0006   -1.4022   -0.0015 C   0  0  0  0  0  0  0  0  0  0  0  0
   -0.0026   -2.3988   -0.0037 H   0  0  0  0  0  0  0  0  0  0  0  0
    1.2025   -0.7014   -0.0000 C   0  0  0  0  0  0  0  0  0  0  0  0
    2.0840   -1.1941    0.0016 H   0  0  0  0  0  0  0  0  0  0  0  0
    1.1972    0.7002    0.0013 C   0  0  0  0  0  0  0  0  0  0  0  0
    2.0665    1.1918    0.0026 H   0  0  0  0  0  0  0  0  0  0  0  0
  1  5  1  0
  5  8  1  0
  1  2  1  0
  1  3  1  0
  1  4  1  0
  5  6  1  0
  5  7  1  0
  8  9  1  0
  8 10  1  0
  8 11  1  0
 12 16  1  0
 16 17  2  0
 17 19  1  0
 19 21  2  0
 21 23  1  0
 23 25  2  0
 25 16  1  0
 12 13  1  0
 12 14  1  0
 12 15  1  0
 17 18  1  0
 19 20  1  0
 21 22  1  0
 23 24  1  0
 25 26  1  0
M  CHG  1   8   1
M  END
>  <PDB_ID>  (1238) 
pdb1tb3

>  <RESIDUE_NAME>  (1238) 
LYS   PHE

>  <FRAG_NAME>  (1238) 
ETAM   MBZ

>  <FRAG_ATOM_NUM>  (1238) 
fragi: 11  fragj: 15

>  <atom.prop.CHAIN_ID>  (1238) 
A A A A A A A A A A A Z Z Z Z Z Z Z Z Z Z Z Z Z Z Z

>  <atom.prop.IS_HEAVY_ATOM>  (1238) 
1 0 0 0 1 0 0 1 0 0 0 1 0 0 0 1 1 0 1 0 1 0 1 0 1 0

>  <DIFUSE_FUNC_ATOM>  (1238) 
n/a

>  <FINAL_SINGLE_POINT_ENERGY>  (1238) 
0

>  <NONCOV_INTER_ENERGY_QM>  (1238) 
0

>  <FF_Energy>  (1238) 
-3.54

>  <QM_Energy>  (1238) 
-12.09

>  <source>  (1238) 
ETAM_MBZ

>  <Index>  (1238) 
12396

$$$$
ETAM-pdb1tb3-B-LYS-131:MBZ-pdb1tb3-B-PHE-136
     RDKit          3D

 26 25  0  0  0  0  0  0  0  0999 V2000
   -1.4477   -1.1454    4.2580 C   0  0  0  0  0  0  0  0  0  0  0  0
   -1.3402   -0.8423    5.2008 H   0  0  0  0  0  0  0  0  0  0  0  0
   -1.2381   -2.1164    4.1836 H   0  0  0  0  0  0  0  0  0  0  0  0
   -2.4826   -0.9857    3.9555 H   0  0  0  0  0  0  0  0  0  0  0  0
   -0.4739   -0.3693    3.3840 C   0  0  0  0  0  0  0  0  0  0  0  0
   -0.5726   -0.6773    2.4338 H   0  0  0  0  0  0  0  0  0  0  0  0
   -0.7011    0.6080    3.4323 H   0  0  0  0  0  0  0  0  0  0  0  0
    0.9410   -0.5629    3.8145 N   0  0  0  0  0  4  0  0  0  0  0  0
    0.9808   -1.2910    4.4976 H   0  0  0  0  0  0  0  0  0  0  0  0
    1.4949   -0.8144    3.0222 H   0  0  0  0  0  0  0  0  0  0  0  0
    1.2854    0.2876    4.2095 H   0  0  0  0  0  0  0  0  0  0  0  0
   -0.0021    2.9190   -0.0172 C   0  0  0  0  0  0  0  0  0  0  0  0
    0.8813    3.2277    0.2983 H   0  0  0  0  0  0  0  0  0  0  0  0
   -0.7273    3.2283    0.5784 H   0  0  0  0  0  0  0  0  0  0  0  0
   -0.1736    3.3508   -1.0032 H   0  0  0  0  0  0  0  0  0  0  0  0
    0.0006    1.4076   -0.0005 C   0  0  0  0  0  0  0  0  0  0  0  0
   -1.1987    0.6928   -0.0005 C   0  0  0  0  0  0  0  0  0  0  0  0
   -2.0654    1.1822   -0.0020 H   0  0  0  0  0  0  0  0  0  0  0  0
   -1.2049   -0.7026   -0.0000 C   0  0  0  0  0  0  0  0  0  0  0  0
   -2.0803   -1.1944    0.0011 H   0  0  0  0  0  0  0  0  0  0  0  0
   -0.0007   -1.3996    0.0008 C   0  0  0  0  0  0  0  0  0  0  0  0
   -0.0013   -2.3959    0.0016 H   0  0  0  0  0  0  0  0  0  0  0  0
    1.2049   -0.6978    0.0000 C   0  0  0  0  0  0  0  0  0  0  0  0
    2.0855   -1.1933    0.0009 H   0  0  0  0  0  0  0  0  0  0  0  0
    1.1987    0.6997    0.0002 C   0  0  0  0  0  0  0  0  0  0  0  0
    2.0666    1.1938   -0.0002 H   0  0  0  0  0  0  0  0  0  0  0  0
  1  5  1  0
  5  8  1  0
  1  2  1  0
  1  3  1  0
  1  4  1  0
  5  6  1  0
  5  7  1  0
  8  9  1  0
  8 10  1  0
  8 11  1  0
 12 16  1  0
 16 17  2  0
 17 19  1  0
 19 21  2  0
 21 23  1  0
 23 25  2  0
 25 16  1  0
 12 13  1  0
 12 14  1  0
 12 15  1  0
 17 18  1  0
 19 20  1  0
 21 22  1  0
 23 24  1  0
 25 26  1  0
M  CHG  1   8   1
M  END
>  <PDB_ID>  (1239) 
pdb1tb3

>  <RESIDUE_NAME>  (1239) 
LYS   PHE

>  <FRAG_NAME>  (1239) 
ETAM   MBZ

>  <FRAG_ATOM_NUM>  (1239) 
fragi: 11  fragj: 15

>  <atom.prop.CHAIN_ID>  (1239) 
A A A A A A A A A A A Z Z Z Z Z Z Z Z Z Z Z Z Z Z Z

>  <atom.prop.IS_HEAVY_ATOM>  (1239) 
1 0 0 0 1 0 0 1 0 0 0 1 0 0 0 1 1 0 1 0 1 0 1 0 1 0

>  <DIFUSE_FUNC_ATOM>  (1239) 
n/a

>  <FINAL_SINGLE_POINT_ENERGY>  (1239) 
0

>  <NONCOV_INTER_ENERGY_QM>  (1239) 
0

>  <FF_Energy>  (1239) 
-5.32

>  <QM_Energy>  (1239) 
-11.82

>  <source>  (1239) 
ETAM_MBZ

>  <Index>  (1239) 
12398

$$$$
ETAM-pdb1tb3-C-LYS-131:MBZ-pdb1tb3-C-PHE-136
     RDKit          3D

 26 25  0  0  0  0  0  0  0  0999 V2000
   -0.9009   -0.6760    4.1834 C   0  0  0  0  0  0  0  0  0  0  0  0
   -0.6197   -0.3765    5.0915 H   0  0  0  0  0  0  0  0  0  0  0  0
   -0.6770   -1.6394    4.0572 H   0  0  0  0  0  0  0  0  0  0  0  0
   -1.9795   -0.5495    4.0900 H   0  0  0  0  0  0  0  0  0  0  0  0
   -0.1383    0.1369    3.1477 C   0  0  0  0  0  0  0  0  0  0  0  0
   -0.4239   -0.1546    2.2307 H   0  0  0  0  0  0  0  0  0  0  0  0
   -0.3648    1.1074    3.2652 H   0  0  0  0  0  0  0  0  0  0  0  0
    1.3346   -0.0395    3.2797 N   0  0  0  0  0  4  0  0  0  0  0  0
    1.6663    0.5118    4.0439 H   0  0  0  0  0  0  0  0  0  0  0  0
    1.5386   -1.0032    3.4481 H   0  0  0  0  0  0  0  0  0  0  0  0
    1.7804    0.2552    2.4344 H   0  0  0  0  0  0  0  0  0  0  0  0
   -0.0006    2.9171    0.0209 C   0  0  0  0  0  0  0  0  0  0  0  0
    0.9148    3.2176    0.2457 H   0  0  0  0  0  0  0  0  0  0  0  0
   -0.6528    3.2119    0.7042 H   0  0  0  0  0  0  0  0  0  0  0  0
   -0.2799    3.3781   -0.9265 H   0  0  0  0  0  0  0  0  0  0  0  0
   -0.0007    1.4071    0.0007 C   0  0  0  0  0  0  0  0  0  0  0  0
   -1.1984    0.6923   -0.0002 C   0  0  0  0  0  0  0  0  0  0  0  0
   -2.0664    1.1808   -0.0018 H   0  0  0  0  0  0  0  0  0  0  0  0
   -1.2038   -0.7035    0.0000 C   0  0  0  0  0  0  0  0  0  0  0  0
   -2.0788   -1.1959    0.0012 H   0  0  0  0  0  0  0  0  0  0  0  0
    0.0007   -1.3987    0.0001 C   0  0  0  0  0  0  0  0  0  0  0  0
    0.0006   -2.3957   -0.0007 H   0  0  0  0  0  0  0  0  0  0  0  0
    1.2038   -0.6959   -0.0000 C   0  0  0  0  0  0  0  0  0  0  0  0
    2.0856   -1.1926    0.0023 H   0  0  0  0  0  0  0  0  0  0  0  0
    1.1985    0.6986   -0.0005 C   0  0  0  0  0  0  0  0  0  0  0  0
    2.0655    1.1950   -0.0024 H   0  0  0  0  0  0  0  0  0  0  0  0
  1  5  1  0
  5  8  1  0
  1  2  1  0
  1  3  1  0
  1  4  1  0
  5  6  1  0
  5  7  1  0
  8  9  1  0
  8 10  1  0
  8 11  1  0
 12 16  1  0
 16 17  2  0
 17 19  1  0
 19 21  2  0
 21 23  1  0
 23 25  2  0
 25 16  1  0
 12 13  1  0
 12 14  1  0
 12 15  1  0
 17 18  1  0
 19 20  1  0
 21 22  1  0
 23 24  1  0
 25 26  1  0
M  CHG  1   8   1
M  END
>  <PDB_ID>  (1240) 
pdb1tb3

>  <RESIDUE_NAME>  (1240) 
LYS   PHE

>  <FRAG_NAME>  (1240) 
ETAM   MBZ

>  <FRAG_ATOM_NUM>  (1240) 
fragi: 11  fragj: 15

>  <atom.prop.CHAIN_ID>  (1240) 
A A A A A A A A A A A Z Z Z Z Z Z Z Z Z Z Z Z Z Z Z

>  <atom.prop.IS_HEAVY_ATOM>  (1240) 
1 0 0 0 1 0 0 1 0 0 0 1 0 0 0 1 1 0 1 0 1 0 1 0 1 0

>  <DIFUSE_FUNC_ATOM>  (1240) 
n/a

>  <FINAL_SINGLE_POINT_ENERGY>  (1240) 
0

>  <NONCOV_INTER_ENERGY_QM>  (1240) 
0

>  <FF_Energy>  (1240) 
-4.12

>  <QM_Energy>  (1240) 
-14.07

>  <source>  (1240) 
ETAM_MBZ

>  <Index>  (1240) 
12402

$$$$
ETAM-pdb1tb3-D-LYS-131:MBZ-pdb1tb3-D-PHE-136
     RDKit          3D

 26 25  0  0  0  0  0  0  0  0999 V2000
   -1.6323   -0.7743    3.9198 C   0  0  0  0  0  0  0  0  0  0  0  0
   -1.7369   -0.4311    4.8508 H   0  0  0  0  0  0  0  0  0  0  0  0
   -1.2448   -1.6932    3.9385 H   0  0  0  0  0  0  0  0  0  0  0  0
   -2.6155   -0.8177    3.4513 H   0  0  0  0  0  0  0  0  0  0  0  0
   -0.6750    0.1409    3.1696 C   0  0  0  0  0  0  0  0  0  0  0  0
   -0.5773   -0.1925    2.2266 H   0  0  0  0  0  0  0  0  0  0  0  0
   -1.0635    1.0678    3.1424 H   0  0  0  0  0  0  0  0  0  0  0  0
    0.6746    0.1982    3.8077 N   0  0  0  0  0  4  0  0  0  0  0  0
    1.3675    0.3302    3.1005 H   0  0  0  0  0  0  0  0  0  0  0  0
    0.7013    0.9611    4.4525 H   0  0  0  0  0  0  0  0  0  0  0  0
    0.8464   -0.6589    4.2917 H   0  0  0  0  0  0  0  0  0  0  0  0
   -0.0034    2.9147    0.0024 C   0  0  0  0  0  0  0  0  0  0  0  0
    0.8219    3.2205    0.4542 H   0  0  0  0  0  0  0  0  0  0  0  0
   -0.8112    3.2169    0.4878 H   0  0  0  0  0  0  0  0  0  0  0  0
   -0.0251    3.3625   -0.9912 H   0  0  0  0  0  0  0  0  0  0  0  0
    0.0002    1.4060    0.0000 C   0  0  0  0  0  0  0  0  0  0  0  0
   -1.1955    0.6944   -0.0011 C   0  0  0  0  0  0  0  0  0  0  0  0
   -2.0643    1.1812   -0.0042 H   0  0  0  0  0  0  0  0  0  0  0  0
   -1.2015   -0.7030    0.0000 C   0  0  0  0  0  0  0  0  0  0  0  0
   -2.0791   -1.1924    0.0017 H   0  0  0  0  0  0  0  0  0  0  0  0
   -0.0009   -1.3983    0.0007 C   0  0  0  0  0  0  0  0  0  0  0  0
   -0.0014   -2.3955    0.0009 H   0  0  0  0  0  0  0  0  0  0  0  0
    1.2015   -0.6970    0.0000 C   0  0  0  0  0  0  0  0  0  0  0  0
    2.0832   -1.1928    0.0005 H   0  0  0  0  0  0  0  0  0  0  0  0
    1.1962    0.6979    0.0004 C   0  0  0  0  0  0  0  0  0  0  0  0
    2.0655    1.1920    0.0000 H   0  0  0  0  0  0  0  0  0  0  0  0
  1  5  1  0
  5  8  1  0
  1  2  1  0
  1  3  1  0
  1  4  1  0
  5  6  1  0
  5  7  1  0
  8  9  1  0
  8 10  1  0
  8 11  1  0
 12 16  1  0
 16 17  2  0
 17 19  1  0
 19 21  2  0
 21 23  1  0
 23 25  2  0
 25 16  1  0
 12 13  1  0
 12 14  1  0
 12 15  1  0
 17 18  1  0
 19 20  1  0
 21 22  1  0
 23 24  1  0
 25 26  1  0
M  CHG  1   8   1
M  END
>  <PDB_ID>  (1241) 
pdb1tb3

>  <RESIDUE_NAME>  (1241) 
LYS   PHE

>  <FRAG_NAME>  (1241) 
ETAM   MBZ

>  <FRAG_ATOM_NUM>  (1241) 
fragi: 11  fragj: 15

>  <atom.prop.CHAIN_ID>  (1241) 
A A A A A A A A A A A Z Z Z Z Z Z Z Z Z Z Z Z Z Z Z

>  <atom.prop.IS_HEAVY_ATOM>  (1241) 
1 0 0 0 1 0 0 1 0 0 0 1 0 0 0 1 1 0 1 0 1 0 1 0 1 0

>  <DIFUSE_FUNC_ATOM>  (1241) 
n/a

>  <FINAL_SINGLE_POINT_ENERGY>  (1241) 
0

>  <NONCOV_INTER_ENERGY_QM>  (1241) 
0

>  <FF_Energy>  (1241) 
-3.14

>  <QM_Energy>  (1241) 
-11.41

>  <source>  (1241) 
ETAM_MBZ

>  <Index>  (1241) 
12404

$$$$
ETAM-pdb1tb3-E-LYS-131:MBZ-pdb1tb3-E-PHE-136
     RDKit          3D

 26 25  0  0  0  0  0  0  0  0999 V2000
   -1.4590   -1.6650    4.3392 C   0  0  0  0  0  0  0  0  0  0  0  0
   -1.3545   -1.3618    5.2810 H   0  0  0  0  0  0  0  0  0  0  0  0
   -1.2668   -2.6394    4.2674 H   0  0  0  0  0  0  0  0  0  0  0  0
   -2.4879   -1.4869    4.0266 H   0  0  0  0  0  0  0  0  0  0  0  0
   -0.4627   -0.9075    3.4709 C   0  0  0  0  0  0  0  0  0  0  0  0
   -0.5590   -1.2173    2.5204 H   0  0  0  0  0  0  0  0  0  0  0  0
   -0.6744    0.0736    3.5128 H   0  0  0  0  0  0  0  0  0  0  0  0
    0.9485   -1.1201    3.9118 N   0  0  0  0  0  4  0  0  0  0  0  0
    1.5540   -1.0480    3.1208 H   0  0  0  0  0  0  0  0  0  0  0  0
    1.1903   -0.4246    4.5866 H   0  0  0  0  0  0  0  0  0  0  0  0
    1.0327   -2.0278    4.3188 H   0  0  0  0  0  0  0  0  0  0  0  0
   -0.0023    2.9230   -0.0298 C   0  0  0  0  0  0  0  0  0  0  0  0
    0.8737    3.2344    0.3029 H   0  0  0  0  0  0  0  0  0  0  0  0
   -0.7411    3.2366    0.5466 H   0  0  0  0  0  0  0  0  0  0  0  0
   -0.1517    3.3478   -1.0224 H   0  0  0  0  0  0  0  0  0  0  0  0
    0.0003    1.4091   -0.0006 C   0  0  0  0  0  0  0  0  0  0  0  0
   -1.1972    0.6929    0.0008 C   0  0  0  0  0  0  0  0  0  0  0  0
   -2.0652    1.1817    0.0009 H   0  0  0  0  0  0  0  0  0  0  0  0
   -1.2036   -0.7030    0.0000 C   0  0  0  0  0  0  0  0  0  0  0  0
   -2.0802   -1.1939    0.0010 H   0  0  0  0  0  0  0  0  0  0  0  0
   -0.0013   -1.3997   -0.0004 C   0  0  0  0  0  0  0  0  0  0  0  0
   -0.0023   -2.3969   -0.0011 H   0  0  0  0  0  0  0  0  0  0  0  0
    1.2036   -0.6988   -0.0000 C   0  0  0  0  0  0  0  0  0  0  0  0
    2.0842   -1.1940    0.0020 H   0  0  0  0  0  0  0  0  0  0  0  0
    1.1982    0.6994    0.0001 C   0  0  0  0  0  0  0  0  0  0  0  0
    2.0665    1.1932   -0.0006 H   0  0  0  0  0  0  0  0  0  0  0  0
  1  5  1  0
  5  8  1  0
  1  2  1  0
  1  3  1  0
  1  4  1  0
  5  6  1  0
  5  7  1  0
  8  9  1  0
  8 10  1  0
  8 11  1  0
 12 16  1  0
 16 17  2  0
 17 19  1  0
 19 21  2  0
 21 23  1  0
 23 25  2  0
 25 16  1  0
 12 13  1  0
 12 14  1  0
 12 15  1  0
 17 18  1  0
 19 20  1  0
 21 22  1  0
 23 24  1  0
 25 26  1  0
M  CHG  1   8   1
M  END
>  <PDB_ID>  (1242) 
pdb1tb3

>  <RESIDUE_NAME>  (1242) 
LYS   PHE

>  <FRAG_NAME>  (1242) 
ETAM   MBZ

>  <FRAG_ATOM_NUM>  (1242) 
fragi: 11  fragj: 15

>  <atom.prop.CHAIN_ID>  (1242) 
A A A A A A A A A A A Z Z Z Z Z Z Z Z Z Z Z Z Z Z Z

>  <atom.prop.IS_HEAVY_ATOM>  (1242) 
1 0 0 0 1 0 0 1 0 0 0 1 0 0 0 1 1 0 1 0 1 0 1 0 1 0

>  <DIFUSE_FUNC_ATOM>  (1242) 
n/a

>  <FINAL_SINGLE_POINT_ENERGY>  (1242) 
0

>  <NONCOV_INTER_ENERGY_QM>  (1242) 
0

>  <FF_Energy>  (1242) 
-4.96

>  <QM_Energy>  (1242) 
-10.35

>  <source>  (1242) 
ETAM_MBZ

>  <Index>  (1242) 
12405

$$$$
ETAM-pdb1tb3-F-LYS-131:MBZ-pdb1tb3-F-PHE-136
     RDKit          3D

 26 25  0  0  0  0  0  0  0  0999 V2000
   -1.4637   -1.2215    4.0340 C   0  0  0  0  0  0  0  0  0  0  0  0
   -1.4271   -0.9113    4.9803 H   0  0  0  0  0  0  0  0  0  0  0  0
   -1.1919   -2.1778    3.9771 H   0  0  0  0  0  0  0  0  0  0  0  0
   -2.4882   -1.1263    3.6743 H   0  0  0  0  0  0  0  0  0  0  0  0
   -0.4941   -0.3909    3.2117 C   0  0  0  0  0  0  0  0  0  0  0  0
   -0.5191   -0.7087    2.2585 H   0  0  0  0  0  0  0  0  0  0  0  0
   -0.7843    0.5711    3.2381 H   0  0  0  0  0  0  0  0  0  0  0  0
    0.9025   -0.4915    3.7215 N   0  0  0  0  0  4  0  0  0  0  0  0
    1.5024   -0.8009    2.9845 H   0  0  0  0  0  0  0  0  0  0  0  0
    1.2021    0.4055    4.0437 H   0  0  0  0  0  0  0  0  0  0  0  0
    0.9323   -1.1465    4.4755 H   0  0  0  0  0  0  0  0  0  0  0  0
   -0.0039    2.9207   -0.0250 C   0  0  0  0  0  0  0  0  0  0  0  0
    0.8631    3.2317    0.3313 H   0  0  0  0  0  0  0  0  0  0  0  0
   -0.7573    3.2297    0.5332 H   0  0  0  0  0  0  0  0  0  0  0  0
   -0.1285    3.3458   -1.0209 H   0  0  0  0  0  0  0  0  0  0  0  0
    0.0004    1.4089   -0.0006 C   0  0  0  0  0  0  0  0  0  0  0  0
   -1.1976    0.6940   -0.0001 C   0  0  0  0  0  0  0  0  0  0  0  0
   -2.0650    1.1819   -0.0012 H   0  0  0  0  0  0  0  0  0  0  0  0
   -1.2036   -0.7039   -0.0000 C   0  0  0  0  0  0  0  0  0  0  0  0
   -2.0798   -1.1943    0.0005 H   0  0  0  0  0  0  0  0  0  0  0  0
    0.0001   -1.4008    0.0007 C   0  0  0  0  0  0  0  0  0  0  0  0
   -0.0004   -2.3973    0.0014 H   0  0  0  0  0  0  0  0  0  0  0  0
    1.2036   -0.6987   -0.0000 C   0  0  0  0  0  0  0  0  0  0  0  0
    2.0856   -1.1924    0.0009 H   0  0  0  0  0  0  0  0  0  0  0  0
    1.1971    0.7006    0.0000 C   0  0  0  0  0  0  0  0  0  0  0  0
    2.0664    1.1936   -0.0002 H   0  0  0  0  0  0  0  0  0  0  0  0
  1  5  1  0
  5  8  1  0
  1  2  1  0
  1  3  1  0
  1  4  1  0
  5  6  1  0
  5  7  1  0
  8  9  1  0
  8 10  1  0
  8 11  1  0
 12 16  1  0
 16 17  2  0
 17 19  1  0
 19 21  2  0
 21 23  1  0
 23 25  2  0
 25 16  1  0
 12 13  1  0
 12 14  1  0
 12 15  1  0
 17 18  1  0
 19 20  1  0
 21 22  1  0
 23 24  1  0
 25 26  1  0
M  CHG  1   8   1
M  END
>  <PDB_ID>  (1243) 
pdb1tb3

>  <RESIDUE_NAME>  (1243) 
LYS   PHE

>  <FRAG_NAME>  (1243) 
ETAM   MBZ

>  <FRAG_ATOM_NUM>  (1243) 
fragi: 11  fragj: 15

>  <atom.prop.CHAIN_ID>  (1243) 
A A A A A A A A A A A Z Z Z Z Z Z Z Z Z Z Z Z Z Z Z

>  <atom.prop.IS_HEAVY_ATOM>  (1243) 
1 0 0 0 1 0 0 1 0 0 0 1 0 0 0 1 1 0 1 0 1 0 1 0 1 0

>  <DIFUSE_FUNC_ATOM>  (1243) 
n/a

>  <FINAL_SINGLE_POINT_ENERGY>  (1243) 
0

>  <NONCOV_INTER_ENERGY_QM>  (1243) 
0

>  <FF_Energy>  (1243) 
-2.78

>  <QM_Energy>  (1243) 
-11.53

>  <source>  (1243) 
ETAM_MBZ

>  <Index>  (1243) 
12406

$$$$
ETAM-pdb1tb3-G-LYS-131:MBZ-pdb1tb3-G-PHE-136
     RDKit          3D

 26 25  0  0  0  0  0  0  0  0999 V2000
   -1.3916   -0.9484    3.9392 C   0  0  0  0  0  0  0  0  0  0  0  0
   -1.4153   -0.6454    4.8888 H   0  0  0  0  0  0  0  0  0  0  0  0
   -1.0217   -1.8722    3.8850 H   0  0  0  0  0  0  0  0  0  0  0  0
   -2.4079   -0.9516    3.5454 H   0  0  0  0  0  0  0  0  0  0  0  0
   -0.4855   -0.0173    3.1558 C   0  0  0  0  0  0  0  0  0  0  0  0
   -0.4713   -0.3072    2.1945 H   0  0  0  0  0  0  0  0  0  0  0  0
   -0.8520    0.9158    3.2063 H   0  0  0  0  0  0  0  0  0  0  0  0
    0.9068   -0.0219    3.6866 N   0  0  0  0  0  4  0  0  0  0  0  0
    0.8809   -0.0918    4.6826 H   0  0  0  0  0  0  0  0  0  0  0  0
    1.4024   -0.8034    3.3086 H   0  0  0  0  0  0  0  0  0  0  0  0
    1.3641    0.8258    3.4220 H   0  0  0  0  0  0  0  0  0  0  0  0
   -0.0007    2.9190    0.0255 C   0  0  0  0  0  0  0  0  0  0  0  0
    0.8583    3.2163    0.4167 H   0  0  0  0  0  0  0  0  0  0  0  0
   -0.7665    3.2123    0.5792 H   0  0  0  0  0  0  0  0  0  0  0  0
   -0.1000    3.3865   -0.9542 H   0  0  0  0  0  0  0  0  0  0  0  0
    0.0002    1.4076    0.0003 C   0  0  0  0  0  0  0  0  0  0  0  0
   -1.1962    0.6946   -0.0018 C   0  0  0  0  0  0  0  0  0  0  0  0
   -2.0647    1.1815   -0.0059 H   0  0  0  0  0  0  0  0  0  0  0  0
   -1.2012   -0.7028   -0.0000 C   0  0  0  0  0  0  0  0  0  0  0  0
   -2.0782   -1.1930    0.0014 H   0  0  0  0  0  0  0  0  0  0  0  0
    0.0003   -1.3987    0.0021 C   0  0  0  0  0  0  0  0  0  0  0  0
   -0.0009   -2.3965    0.0050 H   0  0  0  0  0  0  0  0  0  0  0  0
    1.2012   -0.6980    0.0000 C   0  0  0  0  0  0  0  0  0  0  0  0
    2.0840   -1.1925    0.0006 H   0  0  0  0  0  0  0  0  0  0  0  0
    1.1957    0.6973   -0.0006 C   0  0  0  0  0  0  0  0  0  0  0  0
    2.0656    1.1916   -0.0027 H   0  0  0  0  0  0  0  0  0  0  0  0
  1  5  1  0
  5  8  1  0
  1  2  1  0
  1  3  1  0
  1  4  1  0
  5  6  1  0
  5  7  1  0
  8  9  1  0
  8 10  1  0
  8 11  1  0
 12 16  1  0
 16 17  2  0
 17 19  1  0
 19 21  2  0
 21 23  1  0
 23 25  2  0
 25 16  1  0
 12 13  1  0
 12 14  1  0
 12 15  1  0
 17 18  1  0
 19 20  1  0
 21 22  1  0
 23 24  1  0
 25 26  1  0
M  CHG  1   8   1
M  END
>  <PDB_ID>  (1244) 
pdb1tb3

>  <RESIDUE_NAME>  (1244) 
LYS   PHE

>  <FRAG_NAME>  (1244) 
ETAM   MBZ

>  <FRAG_ATOM_NUM>  (1244) 
fragi: 11  fragj: 15

>  <atom.prop.CHAIN_ID>  (1244) 
A A A A A A A A A A A Z Z Z Z Z Z Z Z Z Z Z Z Z Z Z

>  <atom.prop.IS_HEAVY_ATOM>  (1244) 
1 0 0 0 1 0 0 1 0 0 0 1 0 0 0 1 1 0 1 0 1 0 1 0 1 0

>  <DIFUSE_FUNC_ATOM>  (1244) 
n/a

>  <FINAL_SINGLE_POINT_ENERGY>  (1244) 
0

>  <NONCOV_INTER_ENERGY_QM>  (1244) 
0

>  <FF_Energy>  (1244) 
-2.53

>  <QM_Energy>  (1244) 
-11.66

>  <source>  (1244) 
ETAM_MBZ

>  <Index>  (1244) 
12408

$$$$
ETAM-pdb1tb3-H-LYS-131:MBZ-pdb1tb3-H-PHE-136
     RDKit          3D

 26 25  0  0  0  0  0  0  0  0999 V2000
   -1.0240   -0.7448    4.0446 C   0  0  0  0  0  0  0  0  0  0  0  0
   -0.8085   -0.4595    4.9756 H   0  0  0  0  0  0  0  0  0  0  0  0
   -0.7695   -1.6996    3.9140 H   0  0  0  0  0  0  0  0  0  0  0  0
   -2.0978   -0.6431    3.8873 H   0  0  0  0  0  0  0  0  0  0  0  0
   -0.2191    0.1088    3.0775 C   0  0  0  0  0  0  0  0  0  0  0  0
   -0.4399   -0.1681    2.1375 H   0  0  0  0  0  0  0  0  0  0  0  0
   -0.4779    1.0717    3.1993 H   0  0  0  0  0  0  0  0  0  0  0  0
    1.2504   -0.0308    3.2942 N   0  0  0  0  0  4  0  0  0  0  0  0
    1.5275   -0.9661    3.0792 H   0  0  0  0  0  0  0  0  0  0  0  0
    1.7339    0.6083    2.6983 H   0  0  0  0  0  0  0  0  0  0  0  0
    1.4639    0.1722    4.2486 H   0  0  0  0  0  0  0  0  0  0  0  0
    0.0010    2.9201    0.0104 C   0  0  0  0  0  0  0  0  0  0  0  0
    0.9056    3.2215    0.2744 H   0  0  0  0  0  0  0  0  0  0  0  0
   -0.6809    3.2195    0.6608 H   0  0  0  0  0  0  0  0  0  0  0  0
   -0.2346    3.3757   -0.9514 H   0  0  0  0  0  0  0  0  0  0  0  0
    0.0005    1.4085   -0.0007 C   0  0  0  0  0  0  0  0  0  0  0  0
   -1.1987    0.6937   -0.0002 C   0  0  0  0  0  0  0  0  0  0  0  0
   -2.0660    1.1810   -0.0009 H   0  0  0  0  0  0  0  0  0  0  0  0
   -1.2037   -0.7053    0.0000 C   0  0  0  0  0  0  0  0  0  0  0  0
   -2.0794   -1.1959    0.0007 H   0  0  0  0  0  0  0  0  0  0  0  0
   -0.0001   -1.4001    0.0010 C   0  0  0  0  0  0  0  0  0  0  0  0
    0.0004   -2.3974    0.0022 H   0  0  0  0  0  0  0  0  0  0  0  0
    1.2037   -0.6974    0.0000 C   0  0  0  0  0  0  0  0  0  0  0  0
    2.0853   -1.1922    0.0006 H   0  0  0  0  0  0  0  0  0  0  0  0
    1.1983    0.7005   -0.0001 C   0  0  0  0  0  0  0  0  0  0  0  0
    2.0665    1.1942   -0.0002 H   0  0  0  0  0  0  0  0  0  0  0  0
  1  5  1  0
  5  8  1  0
  1  2  1  0
  1  3  1  0
  1  4  1  0
  5  6  1  0
  5  7  1  0
  8  9  1  0
  8 10  1  0
  8 11  1  0
 12 16  1  0
 16 17  2  0
 17 19  1  0
 19 21  2  0
 21 23  1  0
 23 25  2  0
 25 16  1  0
 12 13  1  0
 12 14  1  0
 12 15  1  0
 17 18  1  0
 19 20  1  0
 21 22  1  0
 23 24  1  0
 25 26  1  0
M  CHG  1   8   1
M  END
>  <PDB_ID>  (1245) 
pdb1tb3

>  <RESIDUE_NAME>  (1245) 
LYS   PHE

>  <FRAG_NAME>  (1245) 
ETAM   MBZ

>  <FRAG_ATOM_NUM>  (1245) 
fragi: 11  fragj: 15

>  <atom.prop.CHAIN_ID>  (1245) 
A A A A A A A A A A A Z Z Z Z Z Z Z Z Z Z Z Z Z Z Z

>  <atom.prop.IS_HEAVY_ATOM>  (1245) 
1 0 0 0 1 0 0 1 0 0 0 1 0 0 0 1 1 0 1 0 1 0 1 0 1 0

>  <DIFUSE_FUNC_ATOM>  (1245) 
n/a

>  <FINAL_SINGLE_POINT_ENERGY>  (1245) 
0

>  <NONCOV_INTER_ENERGY_QM>  (1245) 
0

>  <FF_Energy>  (1245) 
-1.49

>  <QM_Energy>  (1245) 
-13.04

>  <source>  (1245) 
ETAM_MBZ

>  <Index>  (1245) 
12409

$$$$
ETAM-pdb1td6-A-LYS-276:MBZ-pdb1td6-A-PHE-235
     RDKit          3D

 26 25  0  0  0  0  0  0  0  0999 V2000
   -2.4304   -3.6185    0.6235 C   0  0  0  0  0  0  0  0  0  0  0  0
   -1.9085   -3.3435    1.4244 H   0  0  0  0  0  0  0  0  0  0  0  0
   -2.0042   -3.2709   -0.2046 H   0  0  0  0  0  0  0  0  0  0  0  0
   -2.4657   -4.7070    0.5779 H   0  0  0  0  0  0  0  0  0  0  0  0
   -3.8218   -3.0426    0.7308 C   0  0  0  0  0  0  0  0  0  0  0  0
   -3.7577   -2.0585    0.8620 H   0  0  0  0  0  0  0  0  0  0  0  0
   -4.3243   -3.2472   -0.1033 H   0  0  0  0  0  0  0  0  0  0  0  0
   -4.5036   -3.6528    1.8829 N   0  0  0  0  0  4  0  0  0  0  0  0
   -3.8578   -3.7620    2.6413 H   0  0  0  0  0  0  0  0  0  0  0  0
   -5.2619   -3.0678    2.1784 H   0  0  0  0  0  0  0  0  0  0  0  0
   -4.8640   -4.5525    1.6270 H   0  0  0  0  0  0  0  0  0  0  0  0
   -0.0046    2.9115   -0.0430 C   0  0  0  0  0  0  0  0  0  0  0  0
    0.9238    3.2225    0.0917 H   0  0  0  0  0  0  0  0  0  0  0  0
   -0.6017    3.2325    0.6765 H   0  0  0  0  0  0  0  0  0  0  0  0
   -0.3635    3.3227   -0.9865 H   0  0  0  0  0  0  0  0  0  0  0  0
    0.0014    1.4036   -0.0013 C   0  0  0  0  0  0  0  0  0  0  0  0
   -1.1997    0.6934    0.0013 C   0  0  0  0  0  0  0  0  0  0  0  0
   -2.0648    1.1860    0.0034 H   0  0  0  0  0  0  0  0  0  0  0  0
   -1.2084   -0.6997   -0.0000 C   0  0  0  0  0  0  0  0  0  0  0  0
   -2.0862   -1.1893    0.0014 H   0  0  0  0  0  0  0  0  0  0  0  0
   -0.0093   -1.3964   -0.0019 C   0  0  0  0  0  0  0  0  0  0  0  0
   -0.0053   -2.3924   -0.0056 H   0  0  0  0  0  0  0  0  0  0  0  0
    1.2084   -0.6935   -0.0000 C   0  0  0  0  0  0  0  0  0  0  0  0
    2.0817   -1.2016    0.0012 H   0  0  0  0  0  0  0  0  0  0  0  0
    1.2076    0.6926    0.0019 C   0  0  0  0  0  0  0  0  0  0  0  0
    2.0707    1.1932    0.0044 H   0  0  0  0  0  0  0  0  0  0  0  0
  1  5  1  0
  5  8  1  0
  1  2  1  0
  1  3  1  0
  1  4  1  0
  5  6  1  0
  5  7  1  0
  8  9  1  0
  8 10  1  0
  8 11  1  0
 12 16  1  0
 16 17  2  0
 17 19  1  0
 19 21  2  0
 21 23  1  0
 23 25  2  0
 25 16  1  0
 12 13  1  0
 12 14  1  0
 12 15  1  0
 17 18  1  0
 19 20  1  0
 21 22  1  0
 23 24  1  0
 25 26  1  0
M  CHG  1   8   1
M  END
>  <PDB_ID>  (1246) 
pdb1td6

>  <RESIDUE_NAME>  (1246) 
LYS   PHE

>  <FRAG_NAME>  (1246) 
ETAM   MBZ

>  <FRAG_ATOM_NUM>  (1246) 
fragi: 11  fragj: 15

>  <atom.prop.CHAIN_ID>  (1246) 
A A A A A A A A A A A Z Z Z Z Z Z Z Z Z Z Z Z Z Z Z

>  <atom.prop.IS_HEAVY_ATOM>  (1246) 
1 0 0 0 1 0 0 1 0 0 0 1 0 0 0 1 1 0 1 0 1 0 1 0 1 0

>  <DIFUSE_FUNC_ATOM>  (1246) 
n/a

>  <FINAL_SINGLE_POINT_ENERGY>  (1246) 
0

>  <NONCOV_INTER_ENERGY_QM>  (1246) 
0

>  <FF_Energy>  (1246) 
3.75

>  <QM_Energy>  (1246) 
-1.4

>  <source>  (1246) 
ETAM_MBZ

>  <Index>  (1246) 
12420

$$$$
ETAM-pdb1td5-C-HID-2:MBZ-pdb1td5-C-PHE-141
     RDKit          3D

 26 25  0  0  0  0  0  0  0  0999 V2000
   -5.4176   -0.0073   -3.5019 C   0  0  0  0  0  0  0  0  0  0  0  0
   -4.7435   -0.2574   -4.2031 H   0  0  0  0  0  0  0  0  0  0  0  0
   -6.0268   -0.7909   -3.3478 H   0  0  0  0  0  0  0  0  0  0  0  0
   -6.0141    0.8239   -3.8779 H   0  0  0  0  0  0  0  0  0  0  0  0
   -4.6765    0.3079   -2.1923 C   0  0  0  0  0  0  0  0  0  0  0  0
   -5.1177    1.1395   -1.8053 H   0  0  0  0  0  0  0  0  0  0  0  0
   -4.8219   -0.5200   -1.4983 H   0  0  0  0  0  0  0  0  0  0  0  0
   -3.2391    0.6573   -2.4608 N   0  0  0  0  0  4  0  0  0  0  0  0
   -3.1673    1.6402   -2.5931 H   0  0  0  0  0  0  0  0  0  0  0  0
   -2.6896    0.3757   -1.6808 H   0  0  0  0  0  0  0  0  0  0  0  0
   -2.9407    0.1785   -3.2795 H   0  0  0  0  0  0  0  0  0  0  0  0
    0.0137    2.8963    0.0147 C   0  0  0  0  0  0  0  0  0  0  0  0
   -0.9166    3.2175    0.1016 H   0  0  0  0  0  0  0  0  0  0  0  0
    0.4276    3.2124   -0.8255 H   0  0  0  0  0  0  0  0  0  0  0  0
    0.5842    3.3231    0.8395 H   0  0  0  0  0  0  0  0  0  0  0  0
   -0.0013    1.4008    0.0000 C   0  0  0  0  0  0  0  0  0  0  0  0
   -1.1962    0.7053   -0.0027 C   0  0  0  0  0  0  0  0  0  0  0  0
   -2.0613    1.1867   -0.0079 H   0  0  0  0  0  0  0  0  0  0  0  0
   -1.1923   -0.6937    0.0000 C   0  0  0  0  0  0  0  0  0  0  0  0
   -2.0711   -1.1872    0.0020 H   0  0  0  0  0  0  0  0  0  0  0  0
    0.0091   -1.3943    0.0012 C   0  0  0  0  0  0  0  0  0  0  0  0
   -0.0033   -2.3930    0.0027 H   0  0  0  0  0  0  0  0  0  0  0  0
    1.1923   -0.7023   -0.0000 C   0  0  0  0  0  0  0  0  0  0  0  0
    2.0822   -1.1960   -0.0006 H   0  0  0  0  0  0  0  0  0  0  0  0
    1.1884    0.6842    0.0014 C   0  0  0  0  0  0  0  0  0  0  0  0
    2.0609    1.1800    0.0026 H   0  0  0  0  0  0  0  0  0  0  0  0
  1  5  1  0
  5  8  1  0
  1  2  1  0
  1  3  1  0
  1  4  1  0
  5  6  1  0
  5  7  1  0
  8  9  1  0
  8 10  1  0
  8 11  1  0
 12 16  1  0
 16 17  2  0
 17 19  1  0
 19 21  2  0
 21 23  1  0
 23 25  2  0
 25 16  1  0
 12 13  1  0
 12 14  1  0
 12 15  1  0
 17 18  1  0
 19 20  1  0
 21 22  1  0
 23 24  1  0
 25 26  1  0
M  CHG  1   8   1
M  END
>  <PDB_ID>  (1247) 
pdb1td5

>  <RESIDUE_NAME>  (1247) 
HID   PHE

>  <FRAG_NAME>  (1247) 
ETAM   MBZ

>  <FRAG_ATOM_NUM>  (1247) 
fragi: 11  fragj: 15

>  <atom.prop.CHAIN_ID>  (1247) 
A A A A A A A A A A A Z Z Z Z Z Z Z Z Z Z Z Z Z Z Z

>  <atom.prop.IS_HEAVY_ATOM>  (1247) 
1 0 0 0 1 0 0 1 0 0 0 1 0 0 0 1 1 0 1 0 1 0 1 0 1 0

>  <DIFUSE_FUNC_ATOM>  (1247) 
n/a

>  <FINAL_SINGLE_POINT_ENERGY>  (1247) 
0

>  <NONCOV_INTER_ENERGY_QM>  (1247) 
0

>  <FF_Energy>  (1247) 
-2.1

>  <QM_Energy>  (1247) 
-8.49

>  <source>  (1247) 
ETAM_MBZ

>  <Index>  (1247) 
12421

$$$$
ETAM-pdb1tdi-A-LYS-205:MBZ-pdb1tdi-A-PHE-34
     RDKit          3D

 26 25  0  0  0  0  0  0  0  0999 V2000
   -3.7118   -4.5141    2.9033 C   0  0  0  0  0  0  0  0  0  0  0  0
   -3.3019   -5.4147    3.0432 H   0  0  0  0  0  0  0  0  0  0  0  0
   -4.4231   -4.5744    2.2038 H   0  0  0  0  0  0  0  0  0  0  0  0
   -4.1538   -4.1716    3.8389 H   0  0  0  0  0  0  0  0  0  0  0  0
   -2.6285   -3.5704    2.3985 C   0  0  0  0  0  0  0  0  0  0  0  0
   -3.0351   -2.6923    2.1812 H   0  0  0  0  0  0  0  0  0  0  0  0
   -1.9301   -3.4718    3.0954 H   0  0  0  0  0  0  0  0  0  0  0  0
   -2.0089   -4.1453    1.1595 N   0  0  0  0  0  4  0  0  0  0  0  0
   -2.6083   -3.9671    0.3823 H   0  0  0  0  0  0  0  0  0  0  0  0
   -1.1213   -3.7152    1.0091 H   0  0  0  0  0  0  0  0  0  0  0  0
   -1.8932   -5.1287    1.2798 H   0  0  0  0  0  0  0  0  0  0  0  0
   -0.0017    2.9068    0.0287 C   0  0  0  0  0  0  0  0  0  0  0  0
    0.9371    3.2133    0.0083 H   0  0  0  0  0  0  0  0  0  0  0  0
   -0.4591    3.1958    0.8554 H   0  0  0  0  0  0  0  0  0  0  0  0
   -0.5213    3.3560   -0.8177 H   0  0  0  0  0  0  0  0  0  0  0  0
    0.0009    1.4045    0.0020 C   0  0  0  0  0  0  0  0  0  0  0  0
   -1.1958    0.6958   -0.0011 C   0  0  0  0  0  0  0  0  0  0  0  0
   -2.0635    1.1843   -0.0053 H   0  0  0  0  0  0  0  0  0  0  0  0
   -1.2025   -0.7003    0.0000 C   0  0  0  0  0  0  0  0  0  0  0  0
   -2.0807   -1.1902    0.0019 H   0  0  0  0  0  0  0  0  0  0  0  0
   -0.0024   -1.3980   -0.0001 C   0  0  0  0  0  0  0  0  0  0  0  0
   -0.0040   -2.3952   -0.0006 H   0  0  0  0  0  0  0  0  0  0  0  0
    1.2025   -0.6980   -0.0000 C   0  0  0  0  0  0  0  0  0  0  0  0
    2.0829   -1.1954    0.0019 H   0  0  0  0  0  0  0  0  0  0  0  0
    1.1973    0.6960   -0.0009 C   0  0  0  0  0  0  0  0  0  0  0  0
    2.0655    1.1909   -0.0039 H   0  0  0  0  0  0  0  0  0  0  0  0
  1  5  1  0
  5  8  1  0
  1  2  1  0
  1  3  1  0
  1  4  1  0
  5  6  1  0
  5  7  1  0
  8  9  1  0
  8 10  1  0
  8 11  1  0
 12 16  1  0
 16 17  2  0
 17 19  1  0
 19 21  2  0
 21 23  1  0
 23 25  2  0
 25 16  1  0
 12 13  1  0
 12 14  1  0
 12 15  1  0
 17 18  1  0
 19 20  1  0
 21 22  1  0
 23 24  1  0
 25 26  1  0
M  CHG  1   8   1
M  END
>  <PDB_ID>  (1248) 
pdb1tdi

>  <RESIDUE_NAME>  (1248) 
LYS   PHE

>  <FRAG_NAME>  (1248) 
ETAM   MBZ

>  <FRAG_ATOM_NUM>  (1248) 
fragi: 11  fragj: 15

>  <atom.prop.CHAIN_ID>  (1248) 
A A A A A A A A A A A Z Z Z Z Z Z Z Z Z Z Z Z Z Z Z

>  <atom.prop.IS_HEAVY_ATOM>  (1248) 
1 0 0 0 1 0 0 1 0 0 0 1 0 0 0 1 1 0 1 0 1 0 1 0 1 0

>  <DIFUSE_FUNC_ATOM>  (1248) 
n/a

>  <FINAL_SINGLE_POINT_ENERGY>  (1248) 
0

>  <NONCOV_INTER_ENERGY_QM>  (1248) 
0

>  <FF_Energy>  (1248) 
0.6

>  <QM_Energy>  (1248) 
-4.89

>  <source>  (1248) 
ETAM_MBZ

>  <Index>  (1248) 
12425

$$$$
ETAM-pdb1tfk-B-LYS-75:MBZ-pdb1tfk-B-PHE-13
     RDKit          3D

 26 25  0  0  0  0  0  0  0  0999 V2000
   -0.7091   -3.0812    4.1299 C   0  0  0  0  0  0  0  0  0  0  0  0
   -0.8790   -4.0588    4.1708 H   0  0  0  0  0  0  0  0  0  0  0  0
   -0.3715   -2.7475    5.0015 H   0  0  0  0  0  0  0  0  0  0  0  0
    0.0346   -2.8807    3.3587 H   0  0  0  0  0  0  0  0  0  0  0  0
   -2.0277   -2.3753    3.8217 C   0  0  0  0  0  0  0  0  0  0  0  0
   -2.3567   -2.6787    2.9233 H   0  0  0  0  0  0  0  0  0  0  0  0
   -2.7044   -2.6325    4.5175 H   0  0  0  0  0  0  0  0  0  0  0  0
   -1.8852   -0.8828    3.8091 N   0  0  0  0  0  4  0  0  0  0  0  0
   -1.0669   -0.6292    4.3210 H   0  0  0  0  0  0  0  0  0  0  0  0
   -1.8045   -0.5704    2.8652 H   0  0  0  0  0  0  0  0  0  0  0  0
   -2.6909   -0.4742    4.2338 H   0  0  0  0  0  0  0  0  0  0  0  0
    0.0044    2.9058    0.0388 C   0  0  0  0  0  0  0  0  0  0  0  0
   -0.3967    3.2361   -0.8029 H   0  0  0  0  0  0  0  0  0  0  0  0
    0.9413    3.2076    0.1333 H   0  0  0  0  0  0  0  0  0  0  0  0
   -0.5648    3.3316    0.8651 H   0  0  0  0  0  0  0  0  0  0  0  0
   -0.0005    1.4024    0.0014 C   0  0  0  0  0  0  0  0  0  0  0  0
   -1.1939    0.6938   -0.0024 C   0  0  0  0  0  0  0  0  0  0  0  0
   -2.0625    1.1858   -0.0080 H   0  0  0  0  0  0  0  0  0  0  0  0
   -1.2016   -0.6943    0.0000 C   0  0  0  0  0  0  0  0  0  0  0  0
   -2.0798   -1.1871    0.0017 H   0  0  0  0  0  0  0  0  0  0  0  0
   -0.0023   -1.3950    0.0015 C   0  0  0  0  0  0  0  0  0  0  0  0
   -0.0103   -2.3933    0.0028 H   0  0  0  0  0  0  0  0  0  0  0  0
    1.2016   -0.7027   -0.0000 C   0  0  0  0  0  0  0  0  0  0  0  0
    2.0810   -1.1977    0.0008 H   0  0  0  0  0  0  0  0  0  0  0  0
    1.1966    0.6958   -0.0005 C   0  0  0  0  0  0  0  0  0  0  0  0
    2.0646    1.1884   -0.0026 H   0  0  0  0  0  0  0  0  0  0  0  0
  1  5  1  0
  5  8  1  0
  1  2  1  0
  1  3  1  0
  1  4  1  0
  5  6  1  0
  5  7  1  0
  8  9  1  0
  8 10  1  0
  8 11  1  0
 12 16  1  0
 16 17  2  0
 17 19  1  0
 19 21  2  0
 21 23  1  0
 23 25  2  0
 25 16  1  0
 12 13  1  0
 12 14  1  0
 12 15  1  0
 17 18  1  0
 19 20  1  0
 21 22  1  0
 23 24  1  0
 25 26  1  0
M  CHG  1   8   1
M  END
>  <PDB_ID>  (1249) 
pdb1tfk

>  <RESIDUE_NAME>  (1249) 
LYS   PHE

>  <FRAG_NAME>  (1249) 
ETAM   MBZ

>  <FRAG_ATOM_NUM>  (1249) 
fragi: 11  fragj: 15

>  <atom.prop.CHAIN_ID>  (1249) 
A A A A A A A A A A A Z Z Z Z Z Z Z Z Z Z Z Z Z Z Z

>  <atom.prop.IS_HEAVY_ATOM>  (1249) 
1 0 0 0 1 0 0 1 0 0 0 1 0 0 0 1 1 0 1 0 1 0 1 0 1 0

>  <DIFUSE_FUNC_ATOM>  (1249) 
n/a

>  <FINAL_SINGLE_POINT_ENERGY>  (1249) 
0

>  <NONCOV_INTER_ENERGY_QM>  (1249) 
0

>  <FF_Energy>  (1249) 
-4.37

>  <QM_Energy>  (1249) 
-9.47

>  <source>  (1249) 
ETAM_MBZ

>  <Index>  (1249) 
12446

$$$$
ETAM-pdb1tfr-A-LYS-175:MBZ-pdb1tfr-A-PHE-53
     RDKit          3D

 26 25  0  0  0  0  0  0  0  0999 V2000
   -1.3995   -5.0931    1.4756 C   0  0  0  0  0  0  0  0  0  0  0  0
   -1.3983   -5.7430    2.2137 H   0  0  0  0  0  0  0  0  0  0  0  0
   -0.6877   -5.2684    0.8211 H   0  0  0  0  0  0  0  0  0  0  0  0
   -2.3674   -5.1152    0.9748 H   0  0  0  0  0  0  0  0  0  0  0  0
   -1.1832   -3.6954    2.0617 C   0  0  0  0  0  0  0  0  0  0  0  0
   -1.0666   -3.0490    1.3137 H   0  0  0  0  0  0  0  0  0  0  0  0
   -1.9803   -3.4490    2.6061 H   0  0  0  0  0  0  0  0  0  0  0  0
    0.0297   -3.6817    2.9230 N   0  0  0  0  0  4  0  0  0  0  0  0
   -0.2457   -3.6656    3.8833 H   0  0  0  0  0  0  0  0  0  0  0  0
    0.5728   -4.5013    2.7444 H   0  0  0  0  0  0  0  0  0  0  0  0
    0.5738   -2.8688    2.7169 H   0  0  0  0  0  0  0  0  0  0  0  0
    0.0367    2.9010    0.0005 C   0  0  0  0  0  0  0  0  0  0  0  0
    0.8785    3.1907    0.4313 H   0  0  0  0  0  0  0  0  0  0  0  0
   -0.7523    3.2241    0.5030 H   0  0  0  0  0  0  0  0  0  0  0  0
    0.0019    3.3446   -0.9945 H   0  0  0  0  0  0  0  0  0  0  0  0
    0.0060    1.4008    0.0002 C   0  0  0  0  0  0  0  0  0  0  0  0
   -1.1965    0.7029    0.0005 C   0  0  0  0  0  0  0  0  0  0  0  0
   -2.0600    1.2055   -0.0002 H   0  0  0  0  0  0  0  0  0  0  0  0
   -1.2221   -0.6853   -0.0000 C   0  0  0  0  0  0  0  0  0  0  0  0
   -2.0958   -1.1725    0.0074 H   0  0  0  0  0  0  0  0  0  0  0  0
   -0.0162   -1.3891   -0.0089 C   0  0  0  0  0  0  0  0  0  0  0  0
   -0.0289   -2.3924   -0.0221 H   0  0  0  0  0  0  0  0  0  0  0  0
    1.2221   -0.7159    0.0000 C   0  0  0  0  0  0  0  0  0  0  0  0
    2.0796   -1.2158    0.0022 H   0  0  0  0  0  0  0  0  0  0  0  0
    1.2066    0.6866    0.0081 C   0  0  0  0  0  0  0  0  0  0  0  0
    2.0748    1.1835    0.0189 H   0  0  0  0  0  0  0  0  0  0  0  0
  1  5  1  0
  5  8  1  0
  1  2  1  0
  1  3  1  0
  1  4  1  0
  5  6  1  0
  5  7  1  0
  8  9  1  0
  8 10  1  0
  8 11  1  0
 12 16  1  0
 16 17  2  0
 17 19  1  0
 19 21  2  0
 21 23  1  0
 23 25  2  0
 25 16  1  0
 12 13  1  0
 12 14  1  0
 12 15  1  0
 17 18  1  0
 19 20  1  0
 21 22  1  0
 23 24  1  0
 25 26  1  0
M  CHG  1   8   1
M  END
>  <PDB_ID>  (1250) 
pdb1tfr

>  <RESIDUE_NAME>  (1250) 
LYS   PHE

>  <FRAG_NAME>  (1250) 
ETAM   MBZ

>  <FRAG_ATOM_NUM>  (1250) 
fragi: 11  fragj: 15

>  <atom.prop.CHAIN_ID>  (1250) 
A A A A A A A A A A A Z Z Z Z Z Z Z Z Z Z Z Z Z Z Z

>  <atom.prop.IS_HEAVY_ATOM>  (1250) 
1 0 0 0 1 0 0 1 0 0 0 1 0 0 0 1 1 0 1 0 1 0 1 0 1 0

>  <DIFUSE_FUNC_ATOM>  (1250) 
n/a

>  <FINAL_SINGLE_POINT_ENERGY>  (1250) 
0

>  <NONCOV_INTER_ENERGY_QM>  (1250) 
0

>  <FF_Energy>  (1250) 
4.03

>  <QM_Energy>  (1250) 
-5.1

>  <source>  (1250) 
ETAM_MBZ

>  <Index>  (1250) 
12455

$$$$
ETAM-pdb2z5d-A-LYS-159:MBZ-pdb2z5d-A-PHE-94
     RDKit          3D

 26 25  0  0  0  0  0  0  0  0999 V2000
   -0.0989   -1.1708   -4.2427 C   0  0  0  0  0  0  0  0  0  0  0  0
   -0.0644   -1.0772   -5.2313 H   0  0  0  0  0  0  0  0  0  0  0  0
    0.2169   -2.0707   -3.9657 H   0  0  0  0  0  0  0  0  0  0  0  0
    0.5286   -0.4067   -3.7837 H   0  0  0  0  0  0  0  0  0  0  0  0
   -1.5690   -1.0287   -3.8040 C   0  0  0  0  0  0  0  0  0  0  0  0
   -1.6900   -0.1424   -3.3519 H   0  0  0  0  0  0  0  0  0  0  0  0
   -2.1559   -1.0656   -4.6150 H   0  0  0  0  0  0  0  0  0  0  0  0
   -2.0117   -2.1262   -2.8388 N   0  0  0  0  0  4  0  0  0  0  0  0
   -3.0042   -2.1744   -2.8548 H   0  0  0  0  0  0  0  0  0  0  0  0
   -1.6158   -2.9853   -3.1406 H   0  0  0  0  0  0  0  0  0  0  0  0
   -1.6871   -1.8919   -1.9298 H   0  0  0  0  0  0  0  0  0  0  0  0
    0.0118    2.9276   -0.0276 C   0  0  0  0  0  0  0  0  0  0  0  0
   -0.5842    3.2245   -0.7589 H   0  0  0  0  0  0  0  0  0  0  0  0
    0.9440    3.2208   -0.1817 H   0  0  0  0  0  0  0  0  0  0  0  0
   -0.3338    3.4007    0.8916 H   0  0  0  0  0  0  0  0  0  0  0  0
   -0.0026    1.4136    0.0013 C   0  0  0  0  0  0  0  0  0  0  0  0
   -1.2013    0.7125   -0.0103 C   0  0  0  0  0  0  0  0  0  0  0  0
   -2.0696    1.1867   -0.0269 H   0  0  0  0  0  0  0  0  0  0  0  0
   -1.2102   -0.7151   -0.0000 C   0  0  0  0  0  0  0  0  0  0  0  0
   -2.0839   -1.1922    0.0112 H   0  0  0  0  0  0  0  0  0  0  0  0
    0.0007   -1.4056   -0.0038 C   0  0  0  0  0  0  0  0  0  0  0  0
    0.0023   -2.4044   -0.0093 H   0  0  0  0  0  0  0  0  0  0  0  0
    1.2102   -0.7044   -0.0000 C   0  0  0  0  0  0  0  0  0  0  0  0
    2.0886   -1.1976   -0.0049 H   0  0  0  0  0  0  0  0  0  0  0  0
    1.2032    0.6990    0.0128 C   0  0  0  0  0  0  0  0  0  0  0  0
    2.0688    1.1935    0.0292 H   0  0  0  0  0  0  0  0  0  0  0  0
  1  5  1  0
  5  8  1  0
  1  2  1  0
  1  3  1  0
  1  4  1  0
  5  6  1  0
  5  7  1  0
  8  9  1  0
  8 10  1  0
  8 11  1  0
 12 16  1  0
 16 17  2  0
 17 19  1  0
 19 21  2  0
 21 23  1  0
 23 25  2  0
 25 16  1  0
 12 13  1  0
 12 14  1  0
 12 15  1  0
 17 18  1  0
 19 20  1  0
 21 22  1  0
 23 24  1  0
 25 26  1  0
M  CHG  1   8   1
M  END
>  <PDB_ID>  (1251) 
pdb2z5d

>  <RESIDUE_NAME>  (1251) 
LYS   PHE

>  <FRAG_NAME>  (1251) 
ETAM   MBZ

>  <FRAG_ATOM_NUM>  (1251) 
fragi: 11  fragj: 15

>  <atom.prop.CHAIN_ID>  (1251) 
A A A A A A A A A A A Z Z Z Z Z Z Z Z Z Z Z Z Z Z Z

>  <atom.prop.IS_HEAVY_ATOM>  (1251) 
1 0 0 0 1 0 0 1 0 0 0 1 0 0 0 1 1 0 1 0 1 0 1 0 1 0

>  <DIFUSE_FUNC_ATOM>  (1251) 
n/a

>  <FINAL_SINGLE_POINT_ENERGY>  (1251) 
0

>  <NONCOV_INTER_ENERGY_QM>  (1251) 
0

>  <FF_Energy>  (1251) 
-3.91

>  <QM_Energy>  (1251) 
-11.61

>  <source>  (1251) 
ETAM_MBZ

>  <Index>  (1251) 
12456

$$$$
ETAM-pdb2z8h-A-LYS-127:MBZ-pdb2z8h-A-PHE-123
     RDKit          3D

 26 25  0  0  0  0  0  0  0  0999 V2000
    2.2096   -1.6075    4.6694 C   0  0  0  0  0  0  0  0  0  0  0  0
    3.0165   -1.0870    4.9534 H   0  0  0  0  0  0  0  0  0  0  0  0
    2.2096   -2.4957    5.1301 H   0  0  0  0  0  0  0  0  0  0  0  0
    1.3110   -1.0571    4.9484 H   0  0  0  0  0  0  0  0  0  0  0  0
    2.3023   -1.8487    3.1715 C   0  0  0  0  0  0  0  0  0  0  0  0
    2.7092   -2.7464    3.0111 H   0  0  0  0  0  0  0  0  0  0  0  0
    1.3839   -1.8228    2.7806 H   0  0  0  0  0  0  0  0  0  0  0  0
    3.1417   -0.8063    2.5239 N   0  0  0  0  0  4  0  0  0  0  0  0
    2.6436    0.0610    2.5105 H   0  0  0  0  0  0  0  0  0  0  0  0
    3.9919   -0.6962    3.0393 H   0  0  0  0  0  0  0  0  0  0  0  0
    3.3526   -1.0846    1.5873 H   0  0  0  0  0  0  0  0  0  0  0  0
   -0.0012    2.9103    0.0452 C   0  0  0  0  0  0  0  0  0  0  0  0
   -0.6209    3.2364   -0.6518 H   0  0  0  0  0  0  0  0  0  0  0  0
    0.9229    3.2205   -0.1160 H   0  0  0  0  0  0  0  0  0  0  0  0
   -0.3293    3.3146    1.0027 H   0  0  0  0  0  0  0  0  0  0  0  0
   -0.0009    1.4086    0.0001 C   0  0  0  0  0  0  0  0  0  0  0  0
   -1.1991    0.7005   -0.0002 C   0  0  0  0  0  0  0  0  0  0  0  0
   -2.0657    1.1879   -0.0016 H   0  0  0  0  0  0  0  0  0  0  0  0
   -1.2084   -0.7007    0.0000 C   0  0  0  0  0  0  0  0  0  0  0  0
   -2.0838   -1.1893    0.0006 H   0  0  0  0  0  0  0  0  0  0  0  0
   -0.0018   -1.4054    0.0010 C   0  0  0  0  0  0  0  0  0  0  0  0
   -0.0053   -2.3989    0.0020 H   0  0  0  0  0  0  0  0  0  0  0  0
    1.2084   -0.7022    0.0000 C   0  0  0  0  0  0  0  0  0  0  0  0
    2.0862   -1.1973    0.0019 H   0  0  0  0  0  0  0  0  0  0  0  0
    1.2018    0.6992   -0.0009 C   0  0  0  0  0  0  0  0  0  0  0  0
    2.0681    1.1934   -0.0027 H   0  0  0  0  0  0  0  0  0  0  0  0
  1  5  1  0
  5  8  1  0
  1  2  1  0
  1  3  1  0
  1  4  1  0
  5  6  1  0
  5  7  1  0
  8  9  1  0
  8 10  1  0
  8 11  1  0
 12 16  1  0
 16 17  2  0
 17 19  1  0
 19 21  2  0
 21 23  1  0
 23 25  2  0
 25 16  1  0
 12 13  1  0
 12 14  1  0
 12 15  1  0
 17 18  1  0
 19 20  1  0
 21 22  1  0
 23 24  1  0
 25 26  1  0
M  CHG  1   8   1
M  END
>  <PDB_ID>  (1252) 
pdb2z8h

>  <RESIDUE_NAME>  (1252) 
LYS   PHE

>  <FRAG_NAME>  (1252) 
ETAM   MBZ

>  <FRAG_ATOM_NUM>  (1252) 
fragi: 11  fragj: 15

>  <atom.prop.CHAIN_ID>  (1252) 
A A A A A A A A A A A Z Z Z Z Z Z Z Z Z Z Z Z Z Z Z

>  <atom.prop.IS_HEAVY_ATOM>  (1252) 
1 0 0 0 1 0 0 1 0 0 0 1 0 0 0 1 1 0 1 0 1 0 1 0 1 0

>  <DIFUSE_FUNC_ATOM>  (1252) 
n/a

>  <FINAL_SINGLE_POINT_ENERGY>  (1252) 
0

>  <NONCOV_INTER_ENERGY_QM>  (1252) 
0

>  <FF_Energy>  (1252) 
-1.85

>  <QM_Energy>  (1252) 
-8.56

>  <source>  (1252) 
ETAM_MBZ

>  <Index>  (1252) 
12494

$$$$
ETAM-pdb2zbc-K-LYS-23:MBZ-pdb2zbc-K-PHE-19
     RDKit          3D

 26 25  0  0  0  0  0  0  0  0999 V2000
    3.6871   -1.9104    4.0423 C   0  0  0  0  0  0  0  0  0  0  0  0
    4.1205   -1.0394    4.2580 H   0  0  0  0  0  0  0  0  0  0  0  0
    4.3005   -2.6631    4.2676 H   0  0  0  0  0  0  0  0  0  0  0  0
    2.8066   -2.0039    4.6780 H   0  0  0  0  0  0  0  0  0  0  0  0
    3.3621   -1.9554    2.5534 C   0  0  0  0  0  0  0  0  0  0  0  0
    3.1136   -1.0266    2.2523 H   0  0  0  0  0  0  0  0  0  0  0  0
    4.1904   -2.2364    2.0533 H   0  0  0  0  0  0  0  0  0  0  0  0
    2.2606   -2.8847    2.2428 N   0  0  0  0  0  4  0  0  0  0  0  0
    1.7311   -3.0719    3.0728 H   0  0  0  0  0  0  0  0  0  0  0  0
    1.6580   -2.4778    1.5533 H   0  0  0  0  0  0  0  0  0  0  0  0
    2.6331   -3.7445    1.8881 H   0  0  0  0  0  0  0  0  0  0  0  0
   -0.0120    2.8736   -0.0171 C   0  0  0  0  0  0  0  0  0  0  0  0
   -0.8136    3.1853   -0.5105 H   0  0  0  0  0  0  0  0  0  0  0  0
    0.8190    3.1937   -0.4540 H   0  0  0  0  0  0  0  0  0  0  0  0
   -0.0482    3.3333    0.9706 H   0  0  0  0  0  0  0  0  0  0  0  0
   -0.0056    1.3933   -0.0014 C   0  0  0  0  0  0  0  0  0  0  0  0
   -1.2173    0.6788    0.0119 C   0  0  0  0  0  0  0  0  0  0  0  0
   -2.0748    1.1856    0.0293 H   0  0  0  0  0  0  0  0  0  0  0  0
   -1.2249   -0.6926    0.0000 C   0  0  0  0  0  0  0  0  0  0  0  0
   -2.0812   -1.2072   -0.0129 H   0  0  0  0  0  0  0  0  0  0  0  0
    0.0118   -1.3962    0.0082 C   0  0  0  0  0  0  0  0  0  0  0  0
    0.0114   -2.3844    0.0191 H   0  0  0  0  0  0  0  0  0  0  0  0
    1.2249   -0.6763    0.0000 C   0  0  0  0  0  0  0  0  0  0  0  0
    2.1013   -1.1848    0.0090 H   0  0  0  0  0  0  0  0  0  0  0  0
    1.2111    0.6931   -0.0187 C   0  0  0  0  0  0  0  0  0  0  0  0
    2.0651    1.2115   -0.0454 H   0  0  0  0  0  0  0  0  0  0  0  0
  1  5  1  0
  5  8  1  0
  1  2  1  0
  1  3  1  0
  1  4  1  0
  5  6  1  0
  5  7  1  0
  8  9  1  0
  8 10  1  0
  8 11  1  0
 12 16  1  0
 16 17  2  0
 17 19  1  0
 19 21  2  0
 21 23  1  0
 23 25  2  0
 25 16  1  0
 12 13  1  0
 12 14  1  0
 12 15  1  0
 17 18  1  0
 19 20  1  0
 21 22  1  0
 23 24  1  0
 25 26  1  0
M  CHG  1   8   1
M  END
>  <PDB_ID>  (1253) 
pdb2zbc

>  <RESIDUE_NAME>  (1253) 
LYS   PHE

>  <FRAG_NAME>  (1253) 
ETAM   MBZ

>  <FRAG_ATOM_NUM>  (1253) 
fragi: 11  fragj: 15

>  <atom.prop.CHAIN_ID>  (1253) 
A A A A A A A A A A A Z Z Z Z Z Z Z Z Z Z Z Z Z Z Z

>  <atom.prop.IS_HEAVY_ATOM>  (1253) 
1 0 0 0 1 0 0 1 0 0 0 1 0 0 0 1 1 0 1 0 1 0 1 0 1 0

>  <DIFUSE_FUNC_ATOM>  (1253) 
n/a

>  <FINAL_SINGLE_POINT_ENERGY>  (1253) 
0

>  <NONCOV_INTER_ENERGY_QM>  (1253) 
0

>  <FF_Energy>  (1253) 
-1.12

>  <QM_Energy>  (1253) 
-8.94

>  <source>  (1253) 
ETAM_MBZ

>  <Index>  (1253) 
12500

$$$$
ETAM-pdb1tjc-A-LYS-155:MBZ-pdb1tjc-A-PHE-151
     RDKit          3D

 26 25  0  0  0  0  0  0  0  0999 V2000
   -2.5345   -1.9560   -2.6364 C   0  0  0  0  0  0  0  0  0  0  0  0
   -2.5926   -2.9253   -2.4014 H   0  0  0  0  0  0  0  0  0  0  0  0
   -1.7997   -1.5275   -2.1134 H   0  0  0  0  0  0  0  0  0  0  0  0
   -2.3012   -1.8703   -3.6976 H   0  0  0  0  0  0  0  0  0  0  0  0
   -3.8762   -1.2800   -2.2211 C   0  0  0  0  0  0  0  0  0  0  0  0
   -3.6903   -0.3119   -2.0152 H   0  0  0  0  0  0  0  0  0  0  0  0
   -4.5053   -1.3203   -3.0075 H   0  0  0  0  0  0  0  0  0  0  0  0
   -4.5502   -1.9155   -1.0215 N   0  0  0  0  0  4  0  0  0  0  0  0
   -4.5682   -1.2534   -0.2793 H   0  0  0  0  0  0  0  0  0  0  0  0
   -5.4764   -2.1734   -1.2765 H   0  0  0  0  0  0  0  0  0  0  0  0
   -4.0297   -2.7202   -0.7541 H   0  0  0  0  0  0  0  0  0  0  0  0
    0.0155    2.9117    0.0162 C   0  0  0  0  0  0  0  0  0  0  0  0
    0.8441    3.2104    0.4673 H   0  0  0  0  0  0  0  0  0  0  0  0
   -0.7877    3.2217    0.5041 H   0  0  0  0  0  0  0  0  0  0  0  0
   -0.0036    3.3728   -0.9713 H   0  0  0  0  0  0  0  0  0  0  0  0
    0.0043    1.4119   -0.0020 C   0  0  0  0  0  0  0  0  0  0  0  0
   -1.2061    0.7064   -0.0067 C   0  0  0  0  0  0  0  0  0  0  0  0
   -2.0665    1.1929   -0.0157 H   0  0  0  0  0  0  0  0  0  0  0  0
   -1.2084   -0.7004    0.0000 C   0  0  0  0  0  0  0  0  0  0  0  0
   -2.0797   -1.1938    0.0110 H   0  0  0  0  0  0  0  0  0  0  0  0
    0.0101   -1.4096   -0.0063 C   0  0  0  0  0  0  0  0  0  0  0  0
   -0.0016   -2.4022   -0.0154 H   0  0  0  0  0  0  0  0  0  0  0  0
    1.2084   -0.7069    0.0000 C   0  0  0  0  0  0  0  0  0  0  0  0
    2.0926   -1.1903   -0.0043 H   0  0  0  0  0  0  0  0  0  0  0  0
    1.1917    0.6985    0.0151 C   0  0  0  0  0  0  0  0  0  0  0  0
    2.0679    1.1894    0.0379 H   0  0  0  0  0  0  0  0  0  0  0  0
  1  5  1  0
  5  8  1  0
  1  2  1  0
  1  3  1  0
  1  4  1  0
  5  6  1  0
  5  7  1  0
  8  9  1  0
  8 10  1  0
  8 11  1  0
 12 16  1  0
 16 17  2  0
 17 19  1  0
 19 21  2  0
 21 23  1  0
 23 25  2  0
 25 16  1  0
 12 13  1  0
 12 14  1  0
 12 15  1  0
 17 18  1  0
 19 20  1  0
 21 22  1  0
 23 24  1  0
 25 26  1  0
M  CHG  1   8   1
M  END
>  <PDB_ID>  (1254) 
pdb1tjc

>  <RESIDUE_NAME>  (1254) 
LYS   PHE

>  <FRAG_NAME>  (1254) 
ETAM   MBZ

>  <FRAG_ATOM_NUM>  (1254) 
fragi: 11  fragj: 15

>  <atom.prop.CHAIN_ID>  (1254) 
A A A A A A A A A A A Z Z Z Z Z Z Z Z Z Z Z Z Z Z Z

>  <atom.prop.IS_HEAVY_ATOM>  (1254) 
1 0 0 0 1 0 0 1 0 0 0 1 0 0 0 1 1 0 1 0 1 0 1 0 1 0

>  <DIFUSE_FUNC_ATOM>  (1254) 
n/a

>  <FINAL_SINGLE_POINT_ENERGY>  (1254) 
0

>  <NONCOV_INTER_ENERGY_QM>  (1254) 
0

>  <FF_Energy>  (1254) 
3.07

>  <QM_Energy>  (1254) 
-3.1

>  <source>  (1254) 
ETAM_MBZ

>  <Index>  (1254) 
12530

$$$$
ETAM-pdb2zbt-B-LYS-200:MBZ-pdb2zbt-B-PHE-196
     RDKit          3D

 26 25  0  0  0  0  0  0  0  0999 V2000
    1.2853   -1.4437    3.8763 C   0  0  0  0  0  0  0  0  0  0  0  0
    1.7283   -0.6109    3.5521 H   0  0  0  0  0  0  0  0  0  0  0  0
    1.7337   -1.7659    4.7077 H   0  0  0  0  0  0  0  0  0  0  0  0
    0.2433   -1.2191    4.1039 H   0  0  0  0  0  0  0  0  0  0  0  0
    1.4102   -2.5075    2.8134 C   0  0  0  0  0  0  0  0  0  0  0  0
    0.9214   -3.3309    3.1099 H   0  0  0  0  0  0  0  0  0  0  0  0
    1.0032   -2.1738    1.9609 H   0  0  0  0  0  0  0  0  0  0  0  0
    2.8389   -2.8565    2.5635 N   0  0  0  0  0  4  0  0  0  0  0  0
    3.4203   -2.1055    2.8718 H   0  0  0  0  0  0  0  0  0  0  0  0
    3.0681   -3.6881    3.0679 H   0  0  0  0  0  0  0  0  0  0  0  0
    2.9750   -3.0077    1.5856 H   0  0  0  0  0  0  0  0  0  0  0  0
    0.0032    2.8939   -0.0314 C   0  0  0  0  0  0  0  0  0  0  0  0
   -0.3881    3.1860   -0.8927 H   0  0  0  0  0  0  0  0  0  0  0  0
    0.9396    3.2032    0.0582 H   0  0  0  0  0  0  0  0  0  0  0  0
   -0.5759    3.3548    0.7689 H   0  0  0  0  0  0  0  0  0  0  0  0
    0.0002    1.3976   -0.0002 C   0  0  0  0  0  0  0  0  0  0  0  0
   -1.1970    0.6922   -0.0001 C   0  0  0  0  0  0  0  0  0  0  0  0
   -2.0621    1.1861   -0.0013 H   0  0  0  0  0  0  0  0  0  0  0  0
   -1.2024   -0.6930   -0.0000 C   0  0  0  0  0  0  0  0  0  0  0  0
   -2.0783   -1.1895    0.0018 H   0  0  0  0  0  0  0  0  0  0  0  0
   -0.0010   -1.3907   -0.0004 C   0  0  0  0  0  0  0  0  0  0  0  0
   -0.0063   -2.3902   -0.0016 H   0  0  0  0  0  0  0  0  0  0  0  0
    1.2024   -0.6974    0.0000 C   0  0  0  0  0  0  0  0  0  0  0  0
    2.0814   -1.1969    0.0018 H   0  0  0  0  0  0  0  0  0  0  0  0
    1.1978    0.6914    0.0007 C   0  0  0  0  0  0  0  0  0  0  0  0
    2.0648    1.1896    0.0009 H   0  0  0  0  0  0  0  0  0  0  0  0
  1  5  1  0
  5  8  1  0
  1  2  1  0
  1  3  1  0
  1  4  1  0
  5  6  1  0
  5  7  1  0
  8  9  1  0
  8 10  1  0
  8 11  1  0
 12 16  1  0
 16 17  2  0
 17 19  1  0
 19 21  2  0
 21 23  1  0
 23 25  2  0
 25 16  1  0
 12 13  1  0
 12 14  1  0
 12 15  1  0
 17 18  1  0
 19 20  1  0
 21 22  1  0
 23 24  1  0
 25 26  1  0
M  CHG  1   8   1
M  END
>  <PDB_ID>  (1255) 
pdb2zbt

>  <RESIDUE_NAME>  (1255) 
LYS   PHE

>  <FRAG_NAME>  (1255) 
ETAM   MBZ

>  <FRAG_ATOM_NUM>  (1255) 
fragi: 11  fragj: 15

>  <atom.prop.CHAIN_ID>  (1255) 
A A A A A A A A A A A Z Z Z Z Z Z Z Z Z Z Z Z Z Z Z

>  <atom.prop.IS_HEAVY_ATOM>  (1255) 
1 0 0 0 1 0 0 1 0 0 0 1 0 0 0 1 1 0 1 0 1 0 1 0 1 0

>  <DIFUSE_FUNC_ATOM>  (1255) 
n/a

>  <FINAL_SINGLE_POINT_ENERGY>  (1255) 
0

>  <NONCOV_INTER_ENERGY_QM>  (1255) 
0

>  <FF_Energy>  (1255) 
2.29

>  <QM_Energy>  (1255) 
-5.44

>  <source>  (1255) 
ETAM_MBZ

>  <Index>  (1255) 
12540

$$$$
ETAM-pdb1tk9-A-LYS-40:MBZ-pdb1tk9-A-PHE-188
     RDKit          3D

 26 25  0  0  0  0  0  0  0  0999 V2000
    0.4011   -2.6072    4.3738 C   0  0  0  0  0  0  0  0  0  0  0  0
   -0.5473   -2.8565    4.5397 H   0  0  0  0  0  0  0  0  0  0  0  0
    0.9794   -2.9295    5.1167 H   0  0  0  0  0  0  0  0  0  0  0  0
    0.7305   -3.0652    3.4412 H   0  0  0  0  0  0  0  0  0  0  0  0
    0.4970   -1.0868    4.3131 C   0  0  0  0  0  0  0  0  0  0  0  0
    0.0881   -0.7036    5.1485 H   0  0  0  0  0  0  0  0  0  0  0  0
    1.4681   -0.8249    4.2842 H   0  0  0  0  0  0  0  0  0  0  0  0
   -0.1974   -0.5223    3.1250 N   0  0  0  0  0  4  0  0  0  0  0  0
   -1.1846   -0.6390    3.2308 H   0  0  0  0  0  0  0  0  0  0  0  0
    0.0176    0.4511    3.0458 H   0  0  0  0  0  0  0  0  0  0  0  0
    0.1102   -1.0003    2.3025 H   0  0  0  0  0  0  0  0  0  0  0  0
   -0.0000    2.9080    0.0793 C   0  0  0  0  0  0  0  0  0  0  0  0
   -0.7405    3.2425   -0.4815 H   0  0  0  0  0  0  0  0  0  0  0  0
    0.8749    3.2320   -0.2428 H   0  0  0  0  0  0  0  0  0  0  0  0
   -0.1463    3.2969    1.0869 H   0  0  0  0  0  0  0  0  0  0  0  0
    0.0007    1.4052    0.0073 C   0  0  0  0  0  0  0  0  0  0  0  0
   -1.1972    0.6944   -0.0018 C   0  0  0  0  0  0  0  0  0  0  0  0
   -2.0639    1.1850   -0.0109 H   0  0  0  0  0  0  0  0  0  0  0  0
   -1.2039   -0.6985   -0.0000 C   0  0  0  0  0  0  0  0  0  0  0  0
   -2.0819   -1.1900    0.0053 H   0  0  0  0  0  0  0  0  0  0  0  0
   -0.0031   -1.3984   -0.0040 C   0  0  0  0  0  0  0  0  0  0  0  0
   -0.0065   -2.3953   -0.0106 H   0  0  0  0  0  0  0  0  0  0  0  0
    1.2039   -0.6999    0.0000 C   0  0  0  0  0  0  0  0  0  0  0  0
    2.0827   -1.1968    0.0050 H   0  0  0  0  0  0  0  0  0  0  0  0
    1.1997    0.6972   -0.0015 C   0  0  0  0  0  0  0  0  0  0  0  0
    2.0668    1.1908   -0.0095 H   0  0  0  0  0  0  0  0  0  0  0  0
  1  5  1  0
  5  8  1  0
  1  2  1  0
  1  3  1  0
  1  4  1  0
  5  6  1  0
  5  7  1  0
  8  9  1  0
  8 10  1  0
  8 11  1  0
 12 16  1  0
 16 17  2  0
 17 19  1  0
 19 21  2  0
 21 23  1  0
 23 25  2  0
 25 16  1  0
 12 13  1  0
 12 14  1  0
 12 15  1  0
 17 18  1  0
 19 20  1  0
 21 22  1  0
 23 24  1  0
 25 26  1  0
M  CHG  1   8   1
M  END
>  <PDB_ID>  (1256) 
pdb1tk9

>  <RESIDUE_NAME>  (1256) 
LYS   PHE

>  <FRAG_NAME>  (1256) 
ETAM   MBZ

>  <FRAG_ATOM_NUM>  (1256) 
fragi: 11  fragj: 15

>  <atom.prop.CHAIN_ID>  (1256) 
A A A A A A A A A A A Z Z Z Z Z Z Z Z Z Z Z Z Z Z Z

>  <atom.prop.IS_HEAVY_ATOM>  (1256) 
1 0 0 0 1 0 0 1 0 0 0 1 0 0 0 1 1 0 1 0 1 0 1 0 1 0

>  <DIFUSE_FUNC_ATOM>  (1256) 
n/a

>  <FINAL_SINGLE_POINT_ENERGY>  (1256) 
0

>  <NONCOV_INTER_ENERGY_QM>  (1256) 
0

>  <FF_Energy>  (1256) 
-8.78

>  <QM_Energy>  (1256) 
-16.77

>  <source>  (1256) 
ETAM_MBZ

>  <Index>  (1256) 
12550

$$$$
ETAM-pdb2zfh-A-LYS-91:MBZ-pdb2zfh-A-PHE-136
     RDKit          3D

 26 25  0  0  0  0  0  0  0  0999 V2000
   -1.2452   -1.1940   -3.6774 C   0  0  0  0  0  0  0  0  0  0  0  0
   -1.5246   -1.9377   -3.0847 H   0  0  0  0  0  0  0  0  0  0  0  0
   -0.6006   -0.5970   -3.2184 H   0  0  0  0  0  0  0  0  0  0  0  0
   -0.7738   -1.6084   -4.5685 H   0  0  0  0  0  0  0  0  0  0  0  0
   -2.4760   -0.3830   -4.0519 C   0  0  0  0  0  0  0  0  0  0  0  0
   -2.2083    0.3238   -4.7209 H   0  0  0  0  0  0  0  0  0  0  0  0
   -3.1461   -0.9944   -4.4952 H   0  0  0  0  0  0  0  0  0  0  0  0
   -3.1218    0.2764   -2.8816 N   0  0  0  0  0  4  0  0  0  0  0  0
   -2.8595   -0.2036   -2.0455 H   0  0  0  0  0  0  0  0  0  0  0  0
   -2.8206    1.2282   -2.8308 H   0  0  0  0  0  0  0  0  0  0  0  0
   -4.1148    0.2442   -2.9900 H   0  0  0  0  0  0  0  0  0  0  0  0
   -0.0034    2.8958    0.0678 C   0  0  0  0  0  0  0  0  0  0  0  0
   -0.5961    3.2338   -0.6461 H   0  0  0  0  0  0  0  0  0  0  0  0
    0.9243    3.2115   -0.0510 H   0  0  0  0  0  0  0  0  0  0  0  0
   -0.3704    3.2814    1.0190 H   0  0  0  0  0  0  0  0  0  0  0  0
    0.0018    1.4002    0.0010 C   0  0  0  0  0  0  0  0  0  0  0  0
   -1.1971    0.6910   -0.0011 C   0  0  0  0  0  0  0  0  0  0  0  0
   -2.0629    1.1818   -0.0042 H   0  0  0  0  0  0  0  0  0  0  0  0
   -1.2015   -0.6996    0.0000 C   0  0  0  0  0  0  0  0  0  0  0  0
   -2.0780   -1.1930    0.0013 H   0  0  0  0  0  0  0  0  0  0  0  0
   -0.0018   -1.3919    0.0012 C   0  0  0  0  0  0  0  0  0  0  0  0
   -0.0021   -2.3914    0.0028 H   0  0  0  0  0  0  0  0  0  0  0  0
    1.2015   -0.6944   -0.0000 C   0  0  0  0  0  0  0  0  0  0  0  0
    2.0818   -1.1940    0.0012 H   0  0  0  0  0  0  0  0  0  0  0  0
    1.1972    0.6947   -0.0012 C   0  0  0  0  0  0  0  0  0  0  0  0
    2.0654    1.1914   -0.0047 H   0  0  0  0  0  0  0  0  0  0  0  0
  1  5  1  0
  5  8  1  0
  1  2  1  0
  1  3  1  0
  1  4  1  0
  5  6  1  0
  5  7  1  0
  8  9  1  0
  8 10  1  0
  8 11  1  0
 12 16  1  0
 16 17  2  0
 17 19  1  0
 19 21  2  0
 21 23  1  0
 23 25  2  0
 25 16  1  0
 12 13  1  0
 12 14  1  0
 12 15  1  0
 17 18  1  0
 19 20  1  0
 21 22  1  0
 23 24  1  0
 25 26  1  0
M  CHG  1   8   1
M  END
>  <PDB_ID>  (1257) 
pdb2zfh

>  <RESIDUE_NAME>  (1257) 
LYS   PHE

>  <FRAG_NAME>  (1257) 
ETAM   MBZ

>  <FRAG_ATOM_NUM>  (1257) 
fragi: 11  fragj: 15

>  <atom.prop.CHAIN_ID>  (1257) 
A A A A A A A A A A A Z Z Z Z Z Z Z Z Z Z Z Z Z Z Z

>  <atom.prop.IS_HEAVY_ATOM>  (1257) 
1 0 0 0 1 0 0 1 0 0 0 1 0 0 0 1 1 0 1 0 1 0 1 0 1 0

>  <DIFUSE_FUNC_ATOM>  (1257) 
n/a

>  <FINAL_SINGLE_POINT_ENERGY>  (1257) 
0

>  <NONCOV_INTER_ENERGY_QM>  (1257) 
0

>  <FF_Energy>  (1257) 
-3.66

>  <QM_Energy>  (1257) 
-9.28

>  <source>  (1257) 
ETAM_MBZ

>  <Index>  (1257) 
12559

$$$$
ETAM-pdb1to6-A-LYS-101:MBZ-pdb1to6-A-PHE-69
     RDKit          3D

 26 25  0  0  0  0  0  0  0  0999 V2000
    2.4048   -0.8185   -3.3640 C   0  0  0  0  0  0  0  0  0  0  0  0
    2.1771   -0.9775   -2.4098 H   0  0  0  0  0  0  0  0  0  0  0  0
    3.3261   -1.1356   -3.5609 H   0  0  0  0  0  0  0  0  0  0  0  0
    1.7007   -1.3667   -3.9900 H   0  0  0  0  0  0  0  0  0  0  0  0
    2.3386    0.6784   -3.6360 C   0  0  0  0  0  0  0  0  0  0  0  0
    3.0000    1.1442   -3.0484 H   0  0  0  0  0  0  0  0  0  0  0  0
    2.5704    0.8449   -4.5952 H   0  0  0  0  0  0  0  0  0  0  0  0
    0.9755    1.2130   -3.3607 N   0  0  0  0  0  4  0  0  0  0  0  0
    0.9886    1.7249   -2.5029 H   0  0  0  0  0  0  0  0  0  0  0  0
    0.7001    1.8167   -4.1079 H   0  0  0  0  0  0  0  0  0  0  0  0
    0.3307    0.4531   -3.2890 H   0  0  0  0  0  0  0  0  0  0  0  0
   -0.0071    2.8913    0.0776 C   0  0  0  0  0  0  0  0  0  0  0  0
   -0.8605    3.2187   -0.2995 H   0  0  0  0  0  0  0  0  0  0  0  0
    0.7668    3.2330   -0.4330 H   0  0  0  0  0  0  0  0  0  0  0  0
    0.0734    3.2766    1.0940 H   0  0  0  0  0  0  0  0  0  0  0  0
    0.0004    1.3999    0.0008 C   0  0  0  0  0  0  0  0  0  0  0  0
   -1.2003    0.6883   -0.0007 C   0  0  0  0  0  0  0  0  0  0  0  0
   -2.0653    1.1813   -0.0042 H   0  0  0  0  0  0  0  0  0  0  0  0
   -1.2066   -0.7017   -0.0000 C   0  0  0  0  0  0  0  0  0  0  0  0
   -2.0809   -1.1962    0.0002 H   0  0  0  0  0  0  0  0  0  0  0  0
   -0.0018   -1.3945    0.0022 C   0  0  0  0  0  0  0  0  0  0  0  0
    0.0010   -2.3918    0.0043 H   0  0  0  0  0  0  0  0  0  0  0  0
    1.2066   -0.6909   -0.0000 C   0  0  0  0  0  0  0  0  0  0  0  0
    2.0853   -1.1919    0.0017 H   0  0  0  0  0  0  0  0  0  0  0  0
    1.2017    0.6990   -0.0023 C   0  0  0  0  0  0  0  0  0  0  0  0
    2.0657    1.1976   -0.0066 H   0  0  0  0  0  0  0  0  0  0  0  0
  1  5  1  0
  5  8  1  0
  1  2  1  0
  1  3  1  0
  1  4  1  0
  5  6  1  0
  5  7  1  0
  8  9  1  0
  8 10  1  0
  8 11  1  0
 12 16  1  0
 16 17  2  0
 17 19  1  0
 19 21  2  0
 21 23  1  0
 23 25  2  0
 25 16  1  0
 12 13  1  0
 12 14  1  0
 12 15  1  0
 17 18  1  0
 19 20  1  0
 21 22  1  0
 23 24  1  0
 25 26  1  0
M  CHG  1   8   1
M  END
>  <PDB_ID>  (1258) 
pdb1to6

>  <RESIDUE_NAME>  (1258) 
LYS   PHE

>  <FRAG_NAME>  (1258) 
ETAM   MBZ

>  <FRAG_ATOM_NUM>  (1258) 
fragi: 11  fragj: 15

>  <atom.prop.CHAIN_ID>  (1258) 
A A A A A A A A A A A Z Z Z Z Z Z Z Z Z Z Z Z Z Z Z

>  <atom.prop.IS_HEAVY_ATOM>  (1258) 
1 0 0 0 1 0 0 1 0 0 0 1 0 0 0 1 1 0 1 0 1 0 1 0 1 0

>  <DIFUSE_FUNC_ATOM>  (1258) 
n/a

>  <FINAL_SINGLE_POINT_ENERGY>  (1258) 
0

>  <NONCOV_INTER_ENERGY_QM>  (1258) 
0

>  <FF_Energy>  (1258) 
-7.03

>  <QM_Energy>  (1258) 
-12.24

>  <source>  (1258) 
ETAM_MBZ

>  <Index>  (1258) 
12572

$$$$
ETAM-pdb2zbt-C-LYS-200:MBZ-pdb2zbt-C-PHE-196
     RDKit          3D

 26 25  0  0  0  0  0  0  0  0999 V2000
    0.6184   -1.7953    3.7714 C   0  0  0  0  0  0  0  0  0  0  0  0
    0.7836   -2.5300    4.4221 H   0  0  0  0  0  0  0  0  0  0  0  0
    0.5704   -2.1568    2.8459 H   0  0  0  0  0  0  0  0  0  0  0  0
   -0.3365   -1.3277    4.0116 H   0  0  0  0  0  0  0  0  0  0  0  0
    1.7618   -0.8031    3.8512 C   0  0  0  0  0  0  0  0  0  0  0  0
    1.8234   -0.4505    4.7865 H   0  0  0  0  0  0  0  0  0  0  0  0
    2.6171   -1.2698    3.6186 H   0  0  0  0  0  0  0  0  0  0  0  0
    1.5550    0.3319    2.9135 N   0  0  0  0  0  4  0  0  0  0  0  0
    1.9055    0.0847    2.0098 H   0  0  0  0  0  0  0  0  0  0  0  0
    0.5786    0.5360    2.8492 H   0  0  0  0  0  0  0  0  0  0  0  0
    2.0426    1.1361    3.2526 H   0  0  0  0  0  0  0  0  0  0  0  0
    0.0048    2.9042   -0.0209 C   0  0  0  0  0  0  0  0  0  0  0  0
   -0.3198    3.2011   -0.9066 H   0  0  0  0  0  0  0  0  0  0  0  0
    0.9307    3.2120    0.1437 H   0  0  0  0  0  0  0  0  0  0  0  0
   -0.6346    3.3589    0.7357 H   0  0  0  0  0  0  0  0  0  0  0  0
    0.0008    1.4038   -0.0006 C   0  0  0  0  0  0  0  0  0  0  0  0
   -1.1982    0.6967   -0.0009 C   0  0  0  0  0  0  0  0  0  0  0  0
   -2.0644    1.1856   -0.0029 H   0  0  0  0  0  0  0  0  0  0  0  0
   -1.2034   -0.6995   -0.0000 C   0  0  0  0  0  0  0  0  0  0  0  0
   -2.0800   -1.1897    0.0009 H   0  0  0  0  0  0  0  0  0  0  0  0
   -0.0016   -1.3957    0.0013 C   0  0  0  0  0  0  0  0  0  0  0  0
   -0.0050   -2.3941    0.0030 H   0  0  0  0  0  0  0  0  0  0  0  0
    1.2034   -0.6992   -0.0000 C   0  0  0  0  0  0  0  0  0  0  0  0
    2.0825   -1.1970    0.0001 H   0  0  0  0  0  0  0  0  0  0  0  0
    1.1990    0.6938    0.0002 C   0  0  0  0  0  0  0  0  0  0  0  0
    2.0669    1.1904   -0.0000 H   0  0  0  0  0  0  0  0  0  0  0  0
  1  5  1  0
  5  8  1  0
  1  2  1  0
  1  3  1  0
  1  4  1  0
  5  6  1  0
  5  7  1  0
  8  9  1  0
  8 10  1  0
  8 11  1  0
 12 16  1  0
 16 17  2  0
 17 19  1  0
 19 21  2  0
 21 23  1  0
 23 25  2  0
 25 16  1  0
 12 13  1  0
 12 14  1  0
 12 15  1  0
 17 18  1  0
 19 20  1  0
 21 22  1  0
 23 24  1  0
 25 26  1  0
M  CHG  1   8   1
M  END
>  <PDB_ID>  (1259) 
pdb2zbt

>  <RESIDUE_NAME>  (1259) 
LYS   PHE

>  <FRAG_NAME>  (1259) 
ETAM   MBZ

>  <FRAG_ATOM_NUM>  (1259) 
fragi: 11  fragj: 15

>  <atom.prop.CHAIN_ID>  (1259) 
A A A A A A A A A A A Z Z Z Z Z Z Z Z Z Z Z Z Z Z Z

>  <atom.prop.IS_HEAVY_ATOM>  (1259) 
1 0 0 0 1 0 0 1 0 0 0 1 0 0 0 1 1 0 1 0 1 0 1 0 1 0

>  <DIFUSE_FUNC_ATOM>  (1259) 
n/a

>  <FINAL_SINGLE_POINT_ENERGY>  (1259) 
0

>  <NONCOV_INTER_ENERGY_QM>  (1259) 
0

>  <FF_Energy>  (1259) 
-6.17

>  <QM_Energy>  (1259) 
-13.21

>  <source>  (1259) 
ETAM_MBZ

>  <Index>  (1259) 
12578

$$$$
ETAM-pdb1tpl-A-LYS-279:MBZ-pdb1tpl-A-PHE-275
     RDKit          3D

 26 25  0  0  0  0  0  0  0  0999 V2000
   -0.1494   -1.2097    3.3426 C   0  0  0  0  0  0  0  0  0  0  0  0
   -0.1255   -1.2734    2.3406 H   0  0  0  0  0  0  0  0  0  0  0  0
    0.1801   -0.3013    3.6178 H   0  0  0  0  0  0  0  0  0  0  0  0
   -1.1814   -1.3231    3.6746 H   0  0  0  0  0  0  0  0  0  0  0  0
    0.7839   -2.2532    3.9134 C   0  0  0  0  0  0  0  0  0  0  0  0
    0.6254   -2.3337    4.8981 H   0  0  0  0  0  0  0  0  0  0  0  0
    0.6014   -3.1346    3.4763 H   0  0  0  0  0  0  0  0  0  0  0  0
    2.2101   -1.8819    3.6792 N   0  0  0  0  0  4  0  0  0  0  0  0
    2.3270   -1.6065    2.7262 H   0  0  0  0  0  0  0  0  0  0  0  0
    2.4560   -1.1229    4.2809 H   0  0  0  0  0  0  0  0  0  0  0  0
    2.7919   -2.6698    3.8761 H   0  0  0  0  0  0  0  0  0  0  0  0
    0.0132    2.8758   -0.0404 C   0  0  0  0  0  0  0  0  0  0  0  0
   -0.2251    3.1632   -0.9441 H   0  0  0  0  0  0  0  0  0  0  0  0
    0.8961    3.1852    0.2422 H   0  0  0  0  0  0  0  0  0  0  0  0
   -0.7257    3.2808    0.6510 H   0  0  0  0  0  0  0  0  0  0  0  0
    0.0096    1.3749   -0.0090 C   0  0  0  0  0  0  0  0  0  0  0  0
   -1.2155    0.6928   -0.0029 C   0  0  0  0  0  0  0  0  0  0  0  0
   -2.0618    1.2039   -0.0020 H   0  0  0  0  0  0  0  0  0  0  0  0
   -1.2300   -0.6845   -0.0000 C   0  0  0  0  0  0  0  0  0  0  0  0
   -2.0939   -1.1861   -0.0046 H   0  0  0  0  0  0  0  0  0  0  0  0
   -0.0116   -1.3705    0.0112 C   0  0  0  0  0  0  0  0  0  0  0  0
   -0.0214   -2.3832    0.0273 H   0  0  0  0  0  0  0  0  0  0  0  0
    1.2300   -0.7053   -0.0000 C   0  0  0  0  0  0  0  0  0  0  0  0
    2.0835   -1.2103   -0.0061 H   0  0  0  0  0  0  0  0  0  0  0  0
    1.2175    0.6926    0.0007 C   0  0  0  0  0  0  0  0  0  0  0  0
    2.0756    1.1926    0.0073 H   0  0  0  0  0  0  0  0  0  0  0  0
  1  5  1  0
  5  8  1  0
  1  2  1  0
  1  3  1  0
  1  4  1  0
  5  6  1  0
  5  7  1  0
  8  9  1  0
  8 10  1  0
  8 11  1  0
 12 16  1  0
 16 17  2  0
 17 19  1  0
 19 21  2  0
 21 23  1  0
 23 25  2  0
 25 16  1  0
 12 13  1  0
 12 14  1  0
 12 15  1  0
 17 18  1  0
 19 20  1  0
 21 22  1  0
 23 24  1  0
 25 26  1  0
M  CHG  1   8   1
M  END
>  <PDB_ID>  (1260) 
pdb1tpl

>  <RESIDUE_NAME>  (1260) 
LYS   PHE

>  <FRAG_NAME>  (1260) 
ETAM   MBZ

>  <FRAG_ATOM_NUM>  (1260) 
fragi: 11  fragj: 15

>  <atom.prop.CHAIN_ID>  (1260) 
A A A A A A A A A A A Z Z Z Z Z Z Z Z Z Z Z Z Z Z Z

>  <atom.prop.IS_HEAVY_ATOM>  (1260) 
1 0 0 0 1 0 0 1 0 0 0 1 0 0 0 1 1 0 1 0 1 0 1 0 1 0

>  <DIFUSE_FUNC_ATOM>  (1260) 
n/a

>  <FINAL_SINGLE_POINT_ENERGY>  (1260) 
0

>  <NONCOV_INTER_ENERGY_QM>  (1260) 
0

>  <FF_Energy>  (1260) 
-0.87

>  <QM_Energy>  (1260) 
-7.27

>  <source>  (1260) 
ETAM_MBZ

>  <Index>  (1260) 
12590

$$$$
ETAM-pdb2ziz-A-LYS-202:MBZ-pdb2ziz-A-PHE-198
     RDKit          3D

 26 25  0  0  0  0  0  0  0  0999 V2000
    0.0355   -1.7442    4.0424 C   0  0  0  0  0  0  0  0  0  0  0  0
    0.0262   -2.2911    4.8693 H   0  0  0  0  0  0  0  0  0  0  0  0
   -0.1421   -2.3050    3.2443 H   0  0  0  0  0  0  0  0  0  0  0  0
   -0.7121   -0.9541    4.1138 H   0  0  0  0  0  0  0  0  0  0  0  0
    1.4128   -1.1296    3.8941 C   0  0  0  0  0  0  0  0  0  0  0  0
    1.3575   -0.3385    3.2803 H   0  0  0  0  0  0  0  0  0  0  0  0
    1.7375   -0.8251    4.7923 H   0  0  0  0  0  0  0  0  0  0  0  0
    2.4012   -2.1093    3.3305 N   0  0  0  0  0  4  0  0  0  0  0  0
    2.3470   -2.9597    3.8485 H   0  0  0  0  0  0  0  0  0  0  0  0
    2.1800   -2.2799    2.3726 H   0  0  0  0  0  0  0  0  0  0  0  0
    3.3182   -1.7238    3.4038 H   0  0  0  0  0  0  0  0  0  0  0  0
   -0.0036    2.8959    0.0441 C   0  0  0  0  0  0  0  0  0  0  0  0
   -0.6181    3.2302   -0.6514 H   0  0  0  0  0  0  0  0  0  0  0  0
    0.9185    3.2160   -0.1002 H   0  0  0  0  0  0  0  0  0  0  0  0
   -0.3411    3.3057    0.9961 H   0  0  0  0  0  0  0  0  0  0  0  0
   -0.0019    1.4020    0.0017 C   0  0  0  0  0  0  0  0  0  0  0  0
   -1.2052    0.6869    0.0010 C   0  0  0  0  0  0  0  0  0  0  0  0
   -2.0679    1.1887   -0.0001 H   0  0  0  0  0  0  0  0  0  0  0  0
   -1.2108   -0.6874   -0.0000 C   0  0  0  0  0  0  0  0  0  0  0  0
   -2.0824   -1.1923    0.0102 H   0  0  0  0  0  0  0  0  0  0  0  0
   -0.0004   -1.3934   -0.0136 C   0  0  0  0  0  0  0  0  0  0  0  0
   -0.0126   -2.3900   -0.0336 H   0  0  0  0  0  0  0  0  0  0  0  0
    1.2108   -0.7029    0.0000 C   0  0  0  0  0  0  0  0  0  0  0  0
    2.0860   -1.2012    0.0039 H   0  0  0  0  0  0  0  0  0  0  0  0
    1.2075    0.6949    0.0109 C   0  0  0  0  0  0  0  0  0  0  0  0
    2.0684    1.1921    0.0244 H   0  0  0  0  0  0  0  0  0  0  0  0
  1  5  1  0
  5  8  1  0
  1  2  1  0
  1  3  1  0
  1  4  1  0
  5  6  1  0
  5  7  1  0
  8  9  1  0
  8 10  1  0
  8 11  1  0
 12 16  1  0
 16 17  2  0
 17 19  1  0
 19 21  2  0
 21 23  1  0
 23 25  2  0
 25 16  1  0
 12 13  1  0
 12 14  1  0
 12 15  1  0
 17 18  1  0
 19 20  1  0
 21 22  1  0
 23 24  1  0
 25 26  1  0
M  CHG  1   8   1
M  END
>  <PDB_ID>  (1261) 
pdb2ziz

>  <RESIDUE_NAME>  (1261) 
LYS   PHE

>  <FRAG_NAME>  (1261) 
ETAM   MBZ

>  <FRAG_ATOM_NUM>  (1261) 
fragi: 11  fragj: 15

>  <atom.prop.CHAIN_ID>  (1261) 
A A A A A A A A A A A Z Z Z Z Z Z Z Z Z Z Z Z Z Z Z

>  <atom.prop.IS_HEAVY_ATOM>  (1261) 
1 0 0 0 1 0 0 1 0 0 0 1 0 0 0 1 1 0 1 0 1 0 1 0 1 0

>  <DIFUSE_FUNC_ATOM>  (1261) 
n/a

>  <FINAL_SINGLE_POINT_ENERGY>  (1261) 
0

>  <NONCOV_INTER_ENERGY_QM>  (1261) 
0

>  <FF_Energy>  (1261) 
-3.41

>  <QM_Energy>  (1261) 
-8.61

>  <source>  (1261) 
ETAM_MBZ

>  <Index>  (1261) 
12606

$$$$
ETAM-pdb2zkt-A-LYS-162:MBZ-pdb2zkt-A-PHE-102
     RDKit          3D

 26 25  0  0  0  0  0  0  0  0999 V2000
    0.8716   -0.8991   -3.2840 C   0  0  0  0  0  0  0  0  0  0  0  0
    1.1769   -1.6437   -2.6971 H   0  0  0  0  0  0  0  0  0  0  0  0
    0.7009   -0.0826   -2.7398 H   0  0  0  0  0  0  0  0  0  0  0  0
    1.6546   -0.6810   -4.0103 H   0  0  0  0  0  0  0  0  0  0  0  0
   -0.4467   -1.3197   -3.9493 C   0  0  0  0  0  0  0  0  0  0  0  0
   -0.7567   -0.5712   -4.5299 H   0  0  0  0  0  0  0  0  0  0  0  0
   -0.2728   -2.1301   -4.5020 H   0  0  0  0  0  0  0  0  0  0  0  0
   -1.4490   -1.6132   -2.9229 N   0  0  0  0  0  4  0  0  0  0  0  0
   -1.0830   -1.3971   -2.0134 H   0  0  0  0  0  0  0  0  0  0  0  0
   -2.2737   -1.0633   -3.0803 H   0  0  0  0  0  0  0  0  0  0  0  0
   -1.6957   -2.5853   -2.9521 H   0  0  0  0  0  0  0  0  0  0  0  0
    0.0006    2.9362    0.0237 C   0  0  0  0  0  0  0  0  0  0  0  0
    0.9410    3.2365    0.0266 H   0  0  0  0  0  0  0  0  0  0  0  0
   -0.4762    3.2263    0.8375 H   0  0  0  0  0  0  0  0  0  0  0  0
   -0.4929    3.3957   -0.8328 H   0  0  0  0  0  0  0  0  0  0  0  0
   -0.0011    1.4167    0.0008 C   0  0  0  0  0  0  0  0  0  0  0  0
   -1.2023    0.7039   -0.0008 C   0  0  0  0  0  0  0  0  0  0  0  0
   -2.0688    1.1869   -0.0041 H   0  0  0  0  0  0  0  0  0  0  0  0
   -1.2066   -0.7041    0.0000 C   0  0  0  0  0  0  0  0  0  0  0  0
   -2.0817   -1.1930    0.0026 H   0  0  0  0  0  0  0  0  0  0  0  0
    0.0031   -1.4105   -0.0008 C   0  0  0  0  0  0  0  0  0  0  0  0
   -0.0042   -2.4035   -0.0018 H   0  0  0  0  0  0  0  0  0  0  0  0
    1.2066   -0.7079   -0.0000 C   0  0  0  0  0  0  0  0  0  0  0  0
    2.0889   -1.1966    0.0015 H   0  0  0  0  0  0  0  0  0  0  0  0
    1.2003    0.7018    0.0008 C   0  0  0  0  0  0  0  0  0  0  0  0
    2.0687    1.1913    0.0010 H   0  0  0  0  0  0  0  0  0  0  0  0
  1  5  1  0
  5  8  1  0
  1  2  1  0
  1  3  1  0
  1  4  1  0
  5  6  1  0
  5  7  1  0
  8  9  1  0
  8 10  1  0
  8 11  1  0
 12 16  1  0
 16 17  2  0
 17 19  1  0
 19 21  2  0
 21 23  1  0
 23 25  2  0
 25 16  1  0
 12 13  1  0
 12 14  1  0
 12 15  1  0
 17 18  1  0
 19 20  1  0
 21 22  1  0
 23 24  1  0
 25 26  1  0
M  CHG  1   8   1
M  END
>  <PDB_ID>  (1262) 
pdb2zkt

>  <RESIDUE_NAME>  (1262) 
LYS   PHE

>  <FRAG_NAME>  (1262) 
ETAM   MBZ

>  <FRAG_ATOM_NUM>  (1262) 
fragi: 11  fragj: 15

>  <atom.prop.CHAIN_ID>  (1262) 
A A A A A A A A A A A Z Z Z Z Z Z Z Z Z Z Z Z Z Z Z

>  <atom.prop.IS_HEAVY_ATOM>  (1262) 
1 0 0 0 1 0 0 1 0 0 0 1 0 0 0 1 1 0 1 0 1 0 1 0 1 0

>  <DIFUSE_FUNC_ATOM>  (1262) 
n/a

>  <FINAL_SINGLE_POINT_ENERGY>  (1262) 
0

>  <NONCOV_INTER_ENERGY_QM>  (1262) 
0

>  <FF_Energy>  (1262) 
-5.22

>  <QM_Energy>  (1262) 
-13.7

>  <source>  (1262) 
ETAM_MBZ

>  <Index>  (1262) 
12617

$$$$
ETAM-pdb2zl2-E-LYS-189:MBZ-pdb2zl2-E-PHE-114
     RDKit          3D

 26 25  0  0  0  0  0  0  0  0999 V2000
   -4.3269   -0.6043    2.2529 C   0  0  0  0  0  0  0  0  0  0  0  0
   -3.5305   -0.6394    2.8426 H   0  0  0  0  0  0  0  0  0  0  0  0
   -5.1567   -0.7736    2.7666 H   0  0  0  0  0  0  0  0  0  0  0  0
   -4.3865    0.3817    1.7921 H   0  0  0  0  0  0  0  0  0  0  0  0
   -4.1858   -1.7088    1.1884 C   0  0  0  0  0  0  0  0  0  0  0  0
   -5.0399   -1.7398    0.6462 H   0  0  0  0  0  0  0  0  0  0  0  0
   -3.4345   -1.4527    0.5605 H   0  0  0  0  0  0  0  0  0  0  0  0
   -3.9113   -3.0769    1.7410 N   0  0  0  0  0  4  0  0  0  0  0  0
   -3.7348   -3.7040    0.9850 H   0  0  0  0  0  0  0  0  0  0  0  0
   -3.1132   -3.0325    2.3387 H   0  0  0  0  0  0  0  0  0  0  0  0
   -4.7069   -3.3840    2.2586 H   0  0  0  0  0  0  0  0  0  0  0  0
    0.0052    2.8974   -0.0045 C   0  0  0  0  0  0  0  0  0  0  0  0
    0.9410    3.2036   -0.1054 H   0  0  0  0  0  0  0  0  0  0  0  0
   -0.3837    3.2099    0.8501 H   0  0  0  0  0  0  0  0  0  0  0  0
   -0.5772    3.3373   -0.8140 H   0  0  0  0  0  0  0  0  0  0  0  0
    0.0015    1.4005   -0.0007 C   0  0  0  0  0  0  0  0  0  0  0  0
   -1.1999    0.6929    0.0007 C   0  0  0  0  0  0  0  0  0  0  0  0
   -2.0638    1.1863    0.0015 H   0  0  0  0  0  0  0  0  0  0  0  0
   -1.2079   -0.6978   -0.0000 C   0  0  0  0  0  0  0  0  0  0  0  0
   -2.0820   -1.1918    0.0011 H   0  0  0  0  0  0  0  0  0  0  0  0
   -0.0014   -1.3948   -0.0008 C   0  0  0  0  0  0  0  0  0  0  0  0
   -0.0032   -2.3921   -0.0027 H   0  0  0  0  0  0  0  0  0  0  0  0
    1.2079   -0.6943   -0.0000 C   0  0  0  0  0  0  0  0  0  0  0  0
    2.0848   -1.1945    0.0017 H   0  0  0  0  0  0  0  0  0  0  0  0
    1.1998    0.6935    0.0008 C   0  0  0  0  0  0  0  0  0  0  0  0
    2.0671    1.1932    0.0014 H   0  0  0  0  0  0  0  0  0  0  0  0
  1  5  1  0
  5  8  1  0
  1  2  1  0
  1  3  1  0
  1  4  1  0
  5  6  1  0
  5  7  1  0
  8  9  1  0
  8 10  1  0
  8 11  1  0
 12 16  1  0
 16 17  2  0
 17 19  1  0
 19 21  2  0
 21 23  1  0
 23 25  2  0
 25 16  1  0
 12 13  1  0
 12 14  1  0
 12 15  1  0
 17 18  1  0
 19 20  1  0
 21 22  1  0
 23 24  1  0
 25 26  1  0
M  CHG  1   8   1
M  END
>  <PDB_ID>  (1263) 
pdb2zl2

>  <RESIDUE_NAME>  (1263) 
LYS   PHE

>  <FRAG_NAME>  (1263) 
ETAM   MBZ

>  <FRAG_ATOM_NUM>  (1263) 
fragi: 11  fragj: 15

>  <atom.prop.CHAIN_ID>  (1263) 
A A A A A A A A A A A Z Z Z Z Z Z Z Z Z Z Z Z Z Z Z

>  <atom.prop.IS_HEAVY_ATOM>  (1263) 
1 0 0 0 1 0 0 1 0 0 0 1 0 0 0 1 1 0 1 0 1 0 1 0 1 0

>  <DIFUSE_FUNC_ATOM>  (1263) 
n/a

>  <FINAL_SINGLE_POINT_ENERGY>  (1263) 
0

>  <NONCOV_INTER_ENERGY_QM>  (1263) 
0

>  <FF_Energy>  (1263) 
41.52

>  <QM_Energy>  (1263) 
1.06

>  <source>  (1263) 
ETAM_MBZ

>  <Index>  (1263) 
12624

$$$$
ETAM-pdb2zl2-J-LYS-189:MBZ-pdb2zl2-J-PHE-114
     RDKit          3D

 26 25  0  0  0  0  0  0  0  0999 V2000
   -4.5579   -1.4449   -0.4444 C   0  0  0  0  0  0  0  0  0  0  0  0
   -4.5744   -2.2675   -1.0049 H   0  0  0  0  0  0  0  0  0  0  0  0
   -3.6383   -1.2823   -0.0995 H   0  0  0  0  0  0  0  0  0  0  0  0
   -4.8534   -0.5970   -1.0623 H   0  0  0  0  0  0  0  0  0  0  0  0
   -5.4945   -1.6521    0.7503 C   0  0  0  0  0  0  0  0  0  0  0  0
   -5.5436   -0.8004    1.2713 H   0  0  0  0  0  0  0  0  0  0  0  0
   -6.4053   -1.8852    0.4088 H   0  0  0  0  0  0  0  0  0  0  0  0
   -5.0092   -2.7485    1.6432 N   0  0  0  0  0  4  0  0  0  0  0  0
   -5.6445   -3.5179    1.5938 H   0  0  0  0  0  0  0  0  0  0  0  0
   -4.1028   -3.0399    1.3425 H   0  0  0  0  0  0  0  0  0  0  0  0
   -4.9613   -2.4108    2.5810 H   0  0  0  0  0  0  0  0  0  0  0  0
    0.0021    2.9137    0.0184 C   0  0  0  0  0  0  0  0  0  0  0  0
    0.8292    3.2115    0.4737 H   0  0  0  0  0  0  0  0  0  0  0  0
   -0.8038    3.2138    0.5086 H   0  0  0  0  0  0  0  0  0  0  0  0
   -0.0185    3.3719   -0.9704 H   0  0  0  0  0  0  0  0  0  0  0  0
   -0.0010    1.4080    0.0008 C   0  0  0  0  0  0  0  0  0  0  0  0
   -1.2025    0.7000   -0.0019 C   0  0  0  0  0  0  0  0  0  0  0  0
   -2.0672    1.1883   -0.0061 H   0  0  0  0  0  0  0  0  0  0  0  0
   -1.2075   -0.6981   -0.0000 C   0  0  0  0  0  0  0  0  0  0  0  0
   -2.0800   -1.1919    0.0027 H   0  0  0  0  0  0  0  0  0  0  0  0
    0.0045   -1.4016    0.0008 C   0  0  0  0  0  0  0  0  0  0  0  0
   -0.0043   -2.3976    0.0017 H   0  0  0  0  0  0  0  0  0  0  0  0
    1.2075   -0.7033    0.0000 C   0  0  0  0  0  0  0  0  0  0  0  0
    2.0881   -1.1961    0.0004 H   0  0  0  0  0  0  0  0  0  0  0  0
    1.1990    0.6950    0.0002 C   0  0  0  0  0  0  0  0  0  0  0  0
    2.0671    1.1907   -0.0012 H   0  0  0  0  0  0  0  0  0  0  0  0
  1  5  1  0
  5  8  1  0
  1  2  1  0
  1  3  1  0
  1  4  1  0
  5  6  1  0
  5  7  1  0
  8  9  1  0
  8 10  1  0
  8 11  1  0
 12 16  1  0
 16 17  2  0
 17 19  1  0
 19 21  2  0
 21 23  1  0
 23 25  2  0
 25 16  1  0
 12 13  1  0
 12 14  1  0
 12 15  1  0
 17 18  1  0
 19 20  1  0
 21 22  1  0
 23 24  1  0
 25 26  1  0
M  CHG  1   8   1
M  END
>  <PDB_ID>  (1264) 
pdb2zl2

>  <RESIDUE_NAME>  (1264) 
LYS   PHE

>  <FRAG_NAME>  (1264) 
ETAM   MBZ

>  <FRAG_ATOM_NUM>  (1264) 
fragi: 11  fragj: 15

>  <atom.prop.CHAIN_ID>  (1264) 
A A A A A A A A A A A Z Z Z Z Z Z Z Z Z Z Z Z Z Z Z

>  <atom.prop.IS_HEAVY_ATOM>  (1264) 
1 0 0 0 1 0 0 1 0 0 0 1 0 0 0 1 1 0 1 0 1 0 1 0 1 0

>  <DIFUSE_FUNC_ATOM>  (1264) 
n/a

>  <FINAL_SINGLE_POINT_ENERGY>  (1264) 
0

>  <NONCOV_INTER_ENERGY_QM>  (1264) 
0

>  <FF_Energy>  (1264) 
19.39

>  <QM_Energy>  (1264) 
1.42

>  <source>  (1264) 
ETAM_MBZ

>  <Index>  (1264) 
12626

$$$$
ETAM-pdb1tuo-A-LYS-420:MBZ-pdb1tuo-A-PHE-291
     RDKit          3D

 26 25  0  0  0  0  0  0  0  0999 V2000
   -0.5652   -2.3195    3.9971 C   0  0  0  0  0  0  0  0  0  0  0  0
   -1.1060   -2.7194    3.2600 H   0  0  0  0  0  0  0  0  0  0  0  0
   -1.0910   -2.3243    4.8455 H   0  0  0  0  0  0  0  0  0  0  0  0
    0.3297   -2.9253    4.1389 H   0  0  0  0  0  0  0  0  0  0  0  0
   -0.2390   -0.8797    3.6347 C   0  0  0  0  0  0  0  0  0  0  0  0
    0.3500   -0.4883    4.3460 H   0  0  0  0  0  0  0  0  0  0  0  0
    0.2538   -0.8649    2.7608 H   0  0  0  0  0  0  0  0  0  0  0  0
   -1.4727   -0.0418    3.5101 N   0  0  0  0  0  4  0  0  0  0  0  0
   -1.7117    0.3243    4.4081 H   0  0  0  0  0  0  0  0  0  0  0  0
   -1.2964    0.7085    2.8754 H   0  0  0  0  0  0  0  0  0  0  0  0
   -2.2192   -0.6075    3.1653 H   0  0  0  0  0  0  0  0  0  0  0  0
    0.0044    2.9046   -0.0865 C   0  0  0  0  0  0  0  0  0  0  0  0
   -0.2067    3.1594   -1.0211 H   0  0  0  0  0  0  0  0  0  0  0  0
    0.9071    3.2231    0.1717 H   0  0  0  0  0  0  0  0  0  0  0  0
   -0.7189    3.3981    0.5627 H   0  0  0  0  0  0  0  0  0  0  0  0
   -0.0019    1.4044   -0.0010 C   0  0  0  0  0  0  0  0  0  0  0  0
   -1.1990    0.6952    0.0005 C   0  0  0  0  0  0  0  0  0  0  0  0
   -2.0661    1.1835    0.0010 H   0  0  0  0  0  0  0  0  0  0  0  0
   -1.2052   -0.7010   -0.0000 C   0  0  0  0  0  0  0  0  0  0  0  0
   -2.0789   -1.1934    0.0018 H   0  0  0  0  0  0  0  0  0  0  0  0
    0.0018   -1.3977   -0.0018 C   0  0  0  0  0  0  0  0  0  0  0  0
   -0.0003   -2.3945   -0.0054 H   0  0  0  0  0  0  0  0  0  0  0  0
    1.2052   -0.6963    0.0000 C   0  0  0  0  0  0  0  0  0  0  0  0
    2.0863   -1.1933    0.0009 H   0  0  0  0  0  0  0  0  0  0  0  0
    1.1992    0.6955    0.0023 C   0  0  0  0  0  0  0  0  0  0  0  0
    2.0653    1.1936    0.0054 H   0  0  0  0  0  0  0  0  0  0  0  0
  1  5  1  0
  5  8  1  0
  1  2  1  0
  1  3  1  0
  1  4  1  0
  5  6  1  0
  5  7  1  0
  8  9  1  0
  8 10  1  0
  8 11  1  0
 12 16  1  0
 16 17  2  0
 17 19  1  0
 19 21  2  0
 21 23  1  0
 23 25  2  0
 25 16  1  0
 12 13  1  0
 12 14  1  0
 12 15  1  0
 17 18  1  0
 19 20  1  0
 21 22  1  0
 23 24  1  0
 25 26  1  0
M  CHG  1   8   1
M  END
>  <PDB_ID>  (1265) 
pdb1tuo

>  <RESIDUE_NAME>  (1265) 
LYS   PHE

>  <FRAG_NAME>  (1265) 
ETAM   MBZ

>  <FRAG_ATOM_NUM>  (1265) 
fragi: 11  fragj: 15

>  <atom.prop.CHAIN_ID>  (1265) 
A A A A A A A A A A A Z Z Z Z Z Z Z Z Z Z Z Z Z Z Z

>  <atom.prop.IS_HEAVY_ATOM>  (1265) 
1 0 0 0 1 0 0 1 0 0 0 1 0 0 0 1 1 0 1 0 1 0 1 0 1 0

>  <DIFUSE_FUNC_ATOM>  (1265) 
n/a

>  <FINAL_SINGLE_POINT_ENERGY>  (1265) 
0

>  <NONCOV_INTER_ENERGY_QM>  (1265) 
0

>  <FF_Energy>  (1265) 
-6.79

>  <QM_Energy>  (1265) 
-13.12

>  <source>  (1265) 
ETAM_MBZ

>  <Index>  (1265) 
12641

$$$$
ETAM-pdb2znj-B-LYS-100:MBZ-pdb2znj-B-PHE-115
     RDKit          3D

 26 25  0  0  0  0  0  0  0  0999 V2000
    3.5994   -3.4332    2.1807 C   0  0  0  0  0  0  0  0  0  0  0  0
    4.2306   -3.1868    2.9027 H   0  0  0  0  0  0  0  0  0  0  0  0
    3.7424   -4.3668    1.8842 H   0  0  0  0  0  0  0  0  0  0  0  0
    2.5789   -3.3277    2.5490 H   0  0  0  0  0  0  0  0  0  0  0  0
    3.8439   -2.5032    0.9870 C   0  0  0  0  0  0  0  0  0  0  0  0
    3.0724   -2.5959    0.3455 H   0  0  0  0  0  0  0  0  0  0  0  0
    3.8658   -1.5528    1.3201 H   0  0  0  0  0  0  0  0  0  0  0  0
    5.1174   -2.7984    0.2674 N   0  0  0  0  0  4  0  0  0  0  0  0
    5.5142   -3.6399    0.6311 H   0  0  0  0  0  0  0  0  0  0  0  0
    4.9273   -2.9098   -0.7071 H   0  0  0  0  0  0  0  0  0  0  0  0
    5.7553   -2.0411    0.4011 H   0  0  0  0  0  0  0  0  0  0  0  0
    0.0117    2.8995   -0.0284 C   0  0  0  0  0  0  0  0  0  0  0  0
   -0.2055    3.1918   -0.9496 H   0  0  0  0  0  0  0  0  0  0  0  0
    0.9152    3.2052    0.2386 H   0  0  0  0  0  0  0  0  0  0  0  0
   -0.7086    3.3627    0.6459 H   0  0  0  0  0  0  0  0  0  0  0  0
   -0.0001    1.4021   -0.0000 C   0  0  0  0  0  0  0  0  0  0  0  0
   -1.1969    0.6950   -0.0000 C   0  0  0  0  0  0  0  0  0  0  0  0
   -2.0634    1.1830   -0.0014 H   0  0  0  0  0  0  0  0  0  0  0  0
   -1.2001   -0.6992    0.0000 C   0  0  0  0  0  0  0  0  0  0  0  0
   -2.0758   -1.1926    0.0018 H   0  0  0  0  0  0  0  0  0  0  0  0
    0.0025   -1.3934   -0.0006 C   0  0  0  0  0  0  0  0  0  0  0  0
   -0.0007   -2.3925   -0.0015 H   0  0  0  0  0  0  0  0  0  0  0  0
    1.2001   -0.6970   -0.0000 C   0  0  0  0  0  0  0  0  0  0  0  0
    2.0830   -1.1940    0.0013 H   0  0  0  0  0  0  0  0  0  0  0  0
    1.1945    0.6925    0.0006 C   0  0  0  0  0  0  0  0  0  0  0  0
    2.0644    1.1893    0.0008 H   0  0  0  0  0  0  0  0  0  0  0  0
  1  5  1  0
  5  8  1  0
  1  2  1  0
  1  3  1  0
  1  4  1  0
  5  6  1  0
  5  7  1  0
  8  9  1  0
  8 10  1  0
  8 11  1  0
 12 16  1  0
 16 17  2  0
 17 19  1  0
 19 21  2  0
 21 23  1  0
 23 25  2  0
 25 16  1  0
 12 13  1  0
 12 14  1  0
 12 15  1  0
 17 18  1  0
 19 20  1  0
 21 22  1  0
 23 24  1  0
 25 26  1  0
M  CHG  1   8   1
M  END
>  <PDB_ID>  (1266) 
pdb2znj

>  <RESIDUE_NAME>  (1266) 
LYS   PHE

>  <FRAG_NAME>  (1266) 
ETAM   MBZ

>  <FRAG_ATOM_NUM>  (1266) 
fragi: 11  fragj: 15

>  <atom.prop.CHAIN_ID>  (1266) 
A A A A A A A A A A A Z Z Z Z Z Z Z Z Z Z Z Z Z Z Z

>  <atom.prop.IS_HEAVY_ATOM>  (1266) 
1 0 0 0 1 0 0 1 0 0 0 1 0 0 0 1 1 0 1 0 1 0 1 0 1 0

>  <DIFUSE_FUNC_ATOM>  (1266) 
n/a

>  <FINAL_SINGLE_POINT_ENERGY>  (1266) 
0

>  <NONCOV_INTER_ENERGY_QM>  (1266) 
0

>  <FF_Energy>  (1266) 
7.61

>  <QM_Energy>  (1266) 
0.07

>  <source>  (1266) 
ETAM_MBZ

>  <Index>  (1266) 
12644

$$$$
ETAM-pdb1tv5-A-LYS-472:MBZ-pdb1tv5-A-PHE-264
     RDKit          3D

 26 25  0  0  0  0  0  0  0  0999 V2000
   -1.2515   -0.3346   -3.5973 C   0  0  0  0  0  0  0  0  0  0  0  0
   -1.7737   -0.5874   -2.7905 H   0  0  0  0  0  0  0  0  0  0  0  0
   -1.3530   -1.0221   -4.3077 H   0  0  0  0  0  0  0  0  0  0  0  0
   -1.6209    0.6200   -3.9722 H   0  0  0  0  0  0  0  0  0  0  0  0
    0.2174   -0.2442   -3.2158 C   0  0  0  0  0  0  0  0  0  0  0  0
    0.3082    0.3603   -2.4147 H   0  0  0  0  0  0  0  0  0  0  0  0
    0.5435   -1.1620   -2.9573 H   0  0  0  0  0  0  0  0  0  0  0  0
    1.0654    0.2795   -4.3199 N   0  0  0  0  0  4  0  0  0  0  0  0
    1.5351    1.1076   -4.0141 H   0  0  0  0  0  0  0  0  0  0  0  0
    1.7406   -0.4120   -4.5765 H   0  0  0  0  0  0  0  0  0  0  0  0
    0.4893    0.4933   -5.1083 H   0  0  0  0  0  0  0  0  0  0  0  0
   -0.0027    2.8933    0.0960 C   0  0  0  0  0  0  0  0  0  0  0  0
   -0.8081    3.2315   -0.3651 H   0  0  0  0  0  0  0  0  0  0  0  0
    0.8252    3.2310   -0.3240 H   0  0  0  0  0  0  0  0  0  0  0  0
   -0.0286    3.2610    1.1218 H   0  0  0  0  0  0  0  0  0  0  0  0
   -0.0003    1.4009    0.0016 C   0  0  0  0  0  0  0  0  0  0  0  0
   -1.1977    0.6904   -0.0007 C   0  0  0  0  0  0  0  0  0  0  0  0
   -2.0644    1.1825   -0.0041 H   0  0  0  0  0  0  0  0  0  0  0  0
   -1.2031   -0.6989   -0.0000 C   0  0  0  0  0  0  0  0  0  0  0  0
   -2.0792   -1.1931    0.0008 H   0  0  0  0  0  0  0  0  0  0  0  0
   -0.0014   -1.3932    0.0020 C   0  0  0  0  0  0  0  0  0  0  0  0
   -0.0020   -2.3920    0.0042 H   0  0  0  0  0  0  0  0  0  0  0  0
    1.2031   -0.6951   -0.0000 C   0  0  0  0  0  0  0  0  0  0  0  0
    2.0830   -1.1945    0.0027 H   0  0  0  0  0  0  0  0  0  0  0  0
    1.1993    0.6959   -0.0029 C   0  0  0  0  0  0  0  0  0  0  0  0
    2.0646    1.1930   -0.0091 H   0  0  0  0  0  0  0  0  0  0  0  0
  1  5  1  0
  5  8  1  0
  1  2  1  0
  1  3  1  0
  1  4  1  0
  5  6  1  0
  5  7  1  0
  8  9  1  0
  8 10  1  0
  8 11  1  0
 12 16  1  0
 16 17  2  0
 17 19  1  0
 19 21  2  0
 21 23  1  0
 23 25  2  0
 25 16  1  0
 12 13  1  0
 12 14  1  0
 12 15  1  0
 17 18  1  0
 19 20  1  0
 21 22  1  0
 23 24  1  0
 25 26  1  0
M  CHG  1   8   1
M  END
>  <PDB_ID>  (1267) 
pdb1tv5

>  <RESIDUE_NAME>  (1267) 
LYS   PHE

>  <FRAG_NAME>  (1267) 
ETAM   MBZ

>  <FRAG_ATOM_NUM>  (1267) 
fragi: 11  fragj: 15

>  <atom.prop.CHAIN_ID>  (1267) 
A A A A A A A A A A A Z Z Z Z Z Z Z Z Z Z Z Z Z Z Z

>  <atom.prop.IS_HEAVY_ATOM>  (1267) 
1 0 0 0 1 0 0 1 0 0 0 1 0 0 0 1 1 0 1 0 1 0 1 0 1 0

>  <DIFUSE_FUNC_ATOM>  (1267) 
n/a

>  <FINAL_SINGLE_POINT_ENERGY>  (1267) 
0

>  <NONCOV_INTER_ENERGY_QM>  (1267) 
0

>  <FF_Energy>  (1267) 
-4.87

>  <QM_Energy>  (1267) 
-10.08

>  <source>  (1267) 
ETAM_MBZ

>  <Index>  (1267) 
12655

$$$$
ETAM-pdb1tvd-A-ASP-1:MBZ-pdb1tvd-A-PHE-90
     RDKit          3D

 26 25  0  0  0  0  0  0  0  0999 V2000
   -0.1786   -4.9201    0.0875 C   0  0  0  0  0  0  0  0  0  0  0  0
   -0.3392   -5.2396    1.0156 H   0  0  0  0  0  0  0  0  0  0  0  0
   -0.0892   -3.9304    0.0733 H   0  0  0  0  0  0  0  0  0  0  0  0
   -1.0312   -5.2020   -0.5304 H   0  0  0  0  0  0  0  0  0  0  0  0
    1.1187   -5.5246   -0.4066 C   0  0  0  0  0  0  0  0  0  0  0  0
    1.3750   -5.2052   -1.3146 H   0  0  0  0  0  0  0  0  0  0  0  0
    1.9280   -5.2707    0.2779 H   0  0  0  0  0  0  0  0  0  0  0  0
    1.0171   -7.0097   -0.4962 N   0  0  0  0  0  4  0  0  0  0  0  0
    0.0720   -7.2825   -0.3375 H   0  0  0  0  0  0  0  0  0  0  0  0
    1.3053   -7.3026   -1.4039 H   0  0  0  0  0  0  0  0  0  0  0  0
    1.6081   -7.4202    0.1943 H   0  0  0  0  0  0  0  0  0  0  0  0
    0.0022    2.9049   -0.0558 C   0  0  0  0  0  0  0  0  0  0  0  0
   -0.7027    3.1890   -0.6901 H   0  0  0  0  0  0  0  0  0  0  0  0
    0.8964    3.2019   -0.3583 H   0  0  0  0  0  0  0  0  0  0  0  0
   -0.1990    3.3921    0.8983 H   0  0  0  0  0  0  0  0  0  0  0  0
    0.0026    1.3980   -0.0008 C   0  0  0  0  0  0  0  0  0  0  0  0
   -1.1946    0.6843   -0.0006 C   0  0  0  0  0  0  0  0  0  0  0  0
   -2.0610    1.1807   -0.0022 H   0  0  0  0  0  0  0  0  0  0  0  0
   -1.1973   -0.6933   -0.0000 C   0  0  0  0  0  0  0  0  0  0  0  0
   -2.0776   -1.1910    0.0012 H   0  0  0  0  0  0  0  0  0  0  0  0
   -0.0053   -1.3862    0.0008 C   0  0  0  0  0  0  0  0  0  0  0  0
   -0.0071   -2.3878    0.0021 H   0  0  0  0  0  0  0  0  0  0  0  0
    1.1973   -0.6937    0.0000 C   0  0  0  0  0  0  0  0  0  0  0  0
    2.0772   -1.1968    0.0003 H   0  0  0  0  0  0  0  0  0  0  0  0
    1.1972    0.6910    0.0006 C   0  0  0  0  0  0  0  0  0  0  0  0
    2.0655    1.1872    0.0013 H   0  0  0  0  0  0  0  0  0  0  0  0
  1  5  1  0
  5  8  1  0
  1  2  1  0
  1  3  1  0
  1  4  1  0
  5  6  1  0
  5  7  1  0
  8  9  1  0
  8 10  1  0
  8 11  1  0
 12 16  1  0
 16 17  2  0
 17 19  1  0
 19 21  2  0
 21 23  1  0
 23 25  2  0
 25 16  1  0
 12 13  1  0
 12 14  1  0
 12 15  1  0
 17 18  1  0
 19 20  1  0
 21 22  1  0
 23 24  1  0
 25 26  1  0
M  CHG  1   8   1
M  END
>  <PDB_ID>  (1268) 
pdb1tvd

>  <RESIDUE_NAME>  (1268) 
ASP   PHE

>  <FRAG_NAME>  (1268) 
ETAM   MBZ

>  <FRAG_ATOM_NUM>  (1268) 
fragi: 11  fragj: 15

>  <atom.prop.CHAIN_ID>  (1268) 
A A A A A A A A A A A Z Z Z Z Z Z Z Z Z Z Z Z Z Z Z

>  <atom.prop.IS_HEAVY_ATOM>  (1268) 
1 0 0 0 1 0 0 1 0 0 0 1 0 0 0 1 1 0 1 0 1 0 1 0 1 0

>  <DIFUSE_FUNC_ATOM>  (1268) 
n/a

>  <FINAL_SINGLE_POINT_ENERGY>  (1268) 
0

>  <NONCOV_INTER_ENERGY_QM>  (1268) 
0

>  <FF_Energy>  (1268) 
21.87

>  <QM_Energy>  (1268) 
1.87

>  <source>  (1268) 
ETAM_MBZ

>  <Index>  (1268) 
12656

$$$$
ETAM-pdb1tw9-C-LYS-131:MBZ-pdb1tw9-C-PHE-135
     RDKit          3D

 26 25  0  0  0  0  0  0  0  0999 V2000
   -2.9884   -3.5858    2.5225 C   0  0  0  0  0  0  0  0  0  0  0  0
   -2.5423   -4.2516    3.1103 H   0  0  0  0  0  0  0  0  0  0  0  0
   -3.9621   -3.5479    2.7162 H   0  0  0  0  0  0  0  0  0  0  0  0
   -2.5533   -2.6040    2.7092 H   0  0  0  0  0  0  0  0  0  0  0  0
   -2.8068   -4.0421    1.0544 C   0  0  0  0  0  0  0  0  0  0  0  0
   -1.8257   -4.1428    0.8678 H   0  0  0  0  0  0  0  0  0  0  0  0
   -3.2513   -4.9353    0.9374 H   0  0  0  0  0  0  0  0  0  0  0  0
   -3.3970   -3.0702    0.0358 N   0  0  0  0  0  4  0  0  0  0  0  0
   -4.0947   -2.5273    0.4895 H   0  0  0  0  0  0  0  0  0  0  0  0
   -2.6659   -2.4881   -0.3012 H   0  0  0  0  0  0  0  0  0  0  0  0
   -3.7935   -3.5985   -0.7065 H   0  0  0  0  0  0  0  0  0  0  0  0
   -0.0352    2.9032   -0.0293 C   0  0  0  0  0  0  0  0  0  0  0  0
   -0.9041    3.1946    0.3399 H   0  0  0  0  0  0  0  0  0  0  0  0
    0.0770    3.2005   -0.9653 H   0  0  0  0  0  0  0  0  0  0  0  0
    0.7500    3.3730    0.5631 H   0  0  0  0  0  0  0  0  0  0  0  0
   -0.0060    1.3915   -0.0143 C   0  0  0  0  0  0  0  0  0  0  0  0
   -1.1965    0.6793    0.0032 C   0  0  0  0  0  0  0  0  0  0  0  0
   -2.0641    1.1780    0.0171 H   0  0  0  0  0  0  0  0  0  0  0  0
   -1.1977   -0.6865    0.0000 C   0  0  0  0  0  0  0  0  0  0  0  0
   -2.0701   -1.1942   -0.0123 H   0  0  0  0  0  0  0  0  0  0  0  0
    0.0053   -1.3791    0.0160 C   0  0  0  0  0  0  0  0  0  0  0  0
   -0.0023   -2.3811    0.0388 H   0  0  0  0  0  0  0  0  0  0  0  0
    1.1977   -0.6889    0.0000 C   0  0  0  0  0  0  0  0  0  0  0  0
    2.0814   -1.1944   -0.0072 H   0  0  0  0  0  0  0  0  0  0  0  0
    1.1971    0.6836   -0.0049 C   0  0  0  0  0  0  0  0  0  0  0  0
    2.0598    1.1893   -0.0031 H   0  0  0  0  0  0  0  0  0  0  0  0
  1  5  1  0
  5  8  1  0
  1  2  1  0
  1  3  1  0
  1  4  1  0
  5  6  1  0
  5  7  1  0
  8  9  1  0
  8 10  1  0
  8 11  1  0
 12 16  1  0
 16 17  2  0
 17 19  1  0
 19 21  2  0
 21 23  1  0
 23 25  2  0
 25 16  1  0
 12 13  1  0
 12 14  1  0
 12 15  1  0
 17 18  1  0
 19 20  1  0
 21 22  1  0
 23 24  1  0
 25 26  1  0
M  CHG  1   8   1
M  END
>  <PDB_ID>  (1269) 
pdb1tw9

>  <RESIDUE_NAME>  (1269) 
LYS   PHE

>  <FRAG_NAME>  (1269) 
ETAM   MBZ

>  <FRAG_ATOM_NUM>  (1269) 
fragi: 11  fragj: 15

>  <atom.prop.CHAIN_ID>  (1269) 
A A A A A A A A A A A Z Z Z Z Z Z Z Z Z Z Z Z Z Z Z

>  <atom.prop.IS_HEAVY_ATOM>  (1269) 
1 0 0 0 1 0 0 1 0 0 0 1 0 0 0 1 1 0 1 0 1 0 1 0 1 0

>  <DIFUSE_FUNC_ATOM>  (1269) 
n/a

>  <FINAL_SINGLE_POINT_ENERGY>  (1269) 
0

>  <NONCOV_INTER_ENERGY_QM>  (1269) 
0

>  <FF_Energy>  (1269) 
5.21

>  <QM_Energy>  (1269) 
-1.23

>  <source>  (1269) 
ETAM_MBZ

>  <Index>  (1269) 
12680

$$$$
ETAM-pdb2zpr-B-LYS-43:MBZ-pdb2zpr-B-PHE-24
     RDKit          3D

 26 25  0  0  0  0  0  0  0  0999 V2000
   -0.3043   -1.9997    3.6499 C   0  0  0  0  0  0  0  0  0  0  0  0
   -0.6627   -2.0198    2.7193 H   0  0  0  0  0  0  0  0  0  0  0  0
   -0.9877   -2.3511    4.2856 H   0  0  0  0  0  0  0  0  0  0  0  0
    0.5808   -2.6340    3.6988 H   0  0  0  0  0  0  0  0  0  0  0  0
    0.0064   -0.5607    4.0188 C   0  0  0  0  0  0  0  0  0  0  0  0
   -0.8575   -0.0452    4.0721 H   0  0  0  0  0  0  0  0  0  0  0  0
    0.4401   -0.5444    4.9283 H   0  0  0  0  0  0  0  0  0  0  0  0
    0.9051    0.0950    3.0385 N   0  0  0  0  0  4  0  0  0  0  0  0
    1.1924   -0.5719    2.3497 H   0  0  0  0  0  0  0  0  0  0  0  0
    0.4197    0.8473    2.5914 H   0  0  0  0  0  0  0  0  0  0  0  0
    1.7112    0.4529    3.5106 H   0  0  0  0  0  0  0  0  0  0  0  0
    0.0081    2.9146   -0.0061 C   0  0  0  0  0  0  0  0  0  0  0  0
    0.8463    3.2187    0.4229 H   0  0  0  0  0  0  0  0  0  0  0  0
   -0.7856    3.2280    0.4947 H   0  0  0  0  0  0  0  0  0  0  0  0
   -0.0334    3.3605   -0.9999 H   0  0  0  0  0  0  0  0  0  0  0  0
    0.0003    1.4065    0.0004 C   0  0  0  0  0  0  0  0  0  0  0  0
   -1.1964    0.6988   -0.0007 C   0  0  0  0  0  0  0  0  0  0  0  0
   -2.0634    1.1858   -0.0037 H   0  0  0  0  0  0  0  0  0  0  0  0
   -1.2017   -0.6999   -0.0000 C   0  0  0  0  0  0  0  0  0  0  0  0
   -2.0799   -1.1892    0.0029 H   0  0  0  0  0  0  0  0  0  0  0  0
   -0.0008   -1.3984   -0.0013 C   0  0  0  0  0  0  0  0  0  0  0  0
   -0.0053   -2.3970   -0.0038 H   0  0  0  0  0  0  0  0  0  0  0  0
    1.2017   -0.7028   -0.0000 C   0  0  0  0  0  0  0  0  0  0  0  0
    2.0824   -1.1972    0.0016 H   0  0  0  0  0  0  0  0  0  0  0  0
    1.1969    0.6958    0.0015 C   0  0  0  0  0  0  0  0  0  0  0  0
    2.0656    1.1886    0.0022 H   0  0  0  0  0  0  0  0  0  0  0  0
  1  5  1  0
  5  8  1  0
  1  2  1  0
  1  3  1  0
  1  4  1  0
  5  6  1  0
  5  7  1  0
  8  9  1  0
  8 10  1  0
  8 11  1  0
 12 16  1  0
 16 17  2  0
 17 19  1  0
 19 21  2  0
 21 23  1  0
 23 25  2  0
 25 16  1  0
 12 13  1  0
 12 14  1  0
 12 15  1  0
 17 18  1  0
 19 20  1  0
 21 22  1  0
 23 24  1  0
 25 26  1  0
M  CHG  1   8   1
M  END
>  <PDB_ID>  (1270) 
pdb2zpr

>  <RESIDUE_NAME>  (1270) 
LYS   PHE

>  <FRAG_NAME>  (1270) 
ETAM   MBZ

>  <FRAG_ATOM_NUM>  (1270) 
fragi: 11  fragj: 15

>  <atom.prop.CHAIN_ID>  (1270) 
A A A A A A A A A A A Z Z Z Z Z Z Z Z Z Z Z Z Z Z Z

>  <atom.prop.IS_HEAVY_ATOM>  (1270) 
1 0 0 0 1 0 0 1 0 0 0 1 0 0 0 1 1 0 1 0 1 0 1 0 1 0

>  <DIFUSE_FUNC_ATOM>  (1270) 
n/a

>  <FINAL_SINGLE_POINT_ENERGY>  (1270) 
0

>  <NONCOV_INTER_ENERGY_QM>  (1270) 
0

>  <FF_Energy>  (1270) 
-8.61

>  <QM_Energy>  (1270) 
-16.2

>  <source>  (1270) 
ETAM_MBZ

>  <Index>  (1270) 
12727

$$$$
ETAM-pdb2zps-A-LYS-43:MBZ-pdb2zps-A-PHE-24
     RDKit          3D

 26 25  0  0  0  0  0  0  0  0999 V2000
   -0.3604   -2.5091    3.5759 C   0  0  0  0  0  0  0  0  0  0  0  0
   -0.6064   -2.4550    2.6139 H   0  0  0  0  0  0  0  0  0  0  0  0
   -1.0850   -2.9518    4.0946 H   0  0  0  0  0  0  0  0  0  0  0  0
    0.5530   -3.0960    3.6733 H   0  0  0  0  0  0  0  0  0  0  0  0
   -0.1765   -1.0958    4.1094 C   0  0  0  0  0  0  0  0  0  0  0  0
   -1.0479   -0.6008    4.0226 H   0  0  0  0  0  0  0  0  0  0  0  0
    0.0654   -1.1459    5.0852 H   0  0  0  0  0  0  0  0  0  0  0  0
    0.8845   -0.3478    3.3822 N   0  0  0  0  0  4  0  0  0  0  0  0
    0.5199   -0.0147    2.5135 H   0  0  0  0  0  0  0  0  0  0  0  0
    1.1844    0.4270    3.9380 H   0  0  0  0  0  0  0  0  0  0  0  0
    1.6591   -0.9549    3.2093 H   0  0  0  0  0  0  0  0  0  0  0  0
   -0.0001    2.9075    0.0122 C   0  0  0  0  0  0  0  0  0  0  0  0
    0.8326    3.2112    0.4531 H   0  0  0  0  0  0  0  0  0  0  0  0
   -0.7996    3.2129    0.5108 H   0  0  0  0  0  0  0  0  0  0  0  0
   -0.0344    3.3649   -0.9766 H   0  0  0  0  0  0  0  0  0  0  0  0
   -0.0021    1.4048   -0.0003 C   0  0  0  0  0  0  0  0  0  0  0  0
   -1.1980    0.6963   -0.0012 C   0  0  0  0  0  0  0  0  0  0  0  0
   -2.0659    1.1853   -0.0035 H   0  0  0  0  0  0  0  0  0  0  0  0
   -1.2045   -0.6983   -0.0000 C   0  0  0  0  0  0  0  0  0  0  0  0
   -2.0792   -1.1912    0.0006 H   0  0  0  0  0  0  0  0  0  0  0  0
    0.0011   -1.3976    0.0016 C   0  0  0  0  0  0  0  0  0  0  0  0
   -0.0044   -2.3954    0.0034 H   0  0  0  0  0  0  0  0  0  0  0  0
    1.2045   -0.7003   -0.0000 C   0  0  0  0  0  0  0  0  0  0  0  0
    2.0853   -1.1957    0.0005 H   0  0  0  0  0  0  0  0  0  0  0  0
    1.1990    0.6952   -0.0001 C   0  0  0  0  0  0  0  0  0  0  0  0
    2.0652    1.1912   -0.0008 H   0  0  0  0  0  0  0  0  0  0  0  0
  1  5  1  0
  5  8  1  0
  1  2  1  0
  1  3  1  0
  1  4  1  0
  5  6  1  0
  5  7  1  0
  8  9  1  0
  8 10  1  0
  8 11  1  0
 12 16  1  0
 16 17  2  0
 17 19  1  0
 19 21  2  0
 21 23  1  0
 23 25  2  0
 25 16  1  0
 12 13  1  0
 12 14  1  0
 12 15  1  0
 17 18  1  0
 19 20  1  0
 21 22  1  0
 23 24  1  0
 25 26  1  0
M  CHG  1   8   1
M  END
>  <PDB_ID>  (1271) 
pdb2zps

>  <RESIDUE_NAME>  (1271) 
LYS   PHE

>  <FRAG_NAME>  (1271) 
ETAM   MBZ

>  <FRAG_ATOM_NUM>  (1271) 
fragi: 11  fragj: 15

>  <atom.prop.CHAIN_ID>  (1271) 
A A A A A A A A A A A Z Z Z Z Z Z Z Z Z Z Z Z Z Z Z

>  <atom.prop.IS_HEAVY_ATOM>  (1271) 
1 0 0 0 1 0 0 1 0 0 0 1 0 0 0 1 1 0 1 0 1 0 1 0 1 0

>  <DIFUSE_FUNC_ATOM>  (1271) 
n/a

>  <FINAL_SINGLE_POINT_ENERGY>  (1271) 
0

>  <NONCOV_INTER_ENERGY_QM>  (1271) 
0

>  <FF_Energy>  (1271) 
-8.32

>  <QM_Energy>  (1271) 
-15.01

>  <source>  (1271) 
ETAM_MBZ

>  <Index>  (1271) 
12730

$$$$
ETAM-pdb1twf-B-LYS-972:MBZ-pdb1twf-B-PHE-855
     RDKit          3D

 26 25  0  0  0  0  0  0  0  0999 V2000
   -0.0356    3.3151   -3.9544 C   0  0  0  0  0  0  0  0  0  0  0  0
   -0.6809    3.3395   -3.2023 H   0  0  0  0  0  0  0  0  0  0  0  0
   -0.5056    3.3381   -4.8264 H   0  0  0  0  0  0  0  0  0  0  0  0
    0.6118    4.1892   -3.8846 H   0  0  0  0  0  0  0  0  0  0  0  0
    0.7831    2.0653   -3.8654 C   0  0  0  0  0  0  0  0  0  0  0  0
    1.1257    1.8257   -4.7786 H   0  0  0  0  0  0  0  0  0  0  0  0
    1.5679    2.2236   -3.2580 H   0  0  0  0  0  0  0  0  0  0  0  0
   -0.0169    0.9407   -3.3386 N   0  0  0  0  0  4  0  0  0  0  0  0
   -0.9696    1.2275   -3.2275 H   0  0  0  0  0  0  0  0  0  0  0  0
    0.0237    0.1702   -3.9765 H   0  0  0  0  0  0  0  0  0  0  0  0
    0.3477    0.6542   -2.4503 H   0  0  0  0  0  0  0  0  0  0  0  0
   -0.0047    2.8984    0.0982 C   0  0  0  0  0  0  0  0  0  0  0  0
   -0.6580    3.2492   -0.5527 H   0  0  0  0  0  0  0  0  0  0  0  0
    0.9072    3.2243   -0.0883 H   0  0  0  0  0  0  0  0  0  0  0  0
   -0.2913    3.2645    1.0841 H   0  0  0  0  0  0  0  0  0  0  0  0
    0.0002    1.4048    0.0016 C   0  0  0  0  0  0  0  0  0  0  0  0
   -1.1983    0.6959   -0.0017 C   0  0  0  0  0  0  0  0  0  0  0  0
   -2.0645    1.1875   -0.0068 H   0  0  0  0  0  0  0  0  0  0  0  0
   -1.2079   -0.6978   -0.0000 C   0  0  0  0  0  0  0  0  0  0  0  0
   -2.0832   -1.1891    0.0006 H   0  0  0  0  0  0  0  0  0  0  0  0
   -0.0028   -1.4018    0.0022 C   0  0  0  0  0  0  0  0  0  0  0  0
   -0.0057   -2.3952    0.0044 H   0  0  0  0  0  0  0  0  0  0  0  0
    1.2079   -0.6983    0.0000 C   0  0  0  0  0  0  0  0  0  0  0  0
    2.0851   -1.1964    0.0013 H   0  0  0  0  0  0  0  0  0  0  0  0
    1.2010    0.6972   -0.0020 C   0  0  0  0  0  0  0  0  0  0  0  0
    2.0675    1.1941   -0.0068 H   0  0  0  0  0  0  0  0  0  0  0  0
  1  5  1  0
  5  8  1  0
  1  2  1  0
  1  3  1  0
  1  4  1  0
  5  6  1  0
  5  7  1  0
  8  9  1  0
  8 10  1  0
  8 11  1  0
 12 16  1  0
 16 17  2  0
 17 19  1  0
 19 21  2  0
 21 23  1  0
 23 25  2  0
 25 16  1  0
 12 13  1  0
 12 14  1  0
 12 15  1  0
 17 18  1  0
 19 20  1  0
 21 22  1  0
 23 24  1  0
 25 26  1  0
M  CHG  1   8   1
M  END
>  <PDB_ID>  (1272) 
pdb1twf

>  <RESIDUE_NAME>  (1272) 
LYS   PHE

>  <FRAG_NAME>  (1272) 
ETAM   MBZ

>  <FRAG_ATOM_NUM>  (1272) 
fragi: 11  fragj: 15

>  <atom.prop.CHAIN_ID>  (1272) 
A A A A A A A A A A A Z Z Z Z Z Z Z Z Z Z Z Z Z Z Z

>  <atom.prop.IS_HEAVY_ATOM>  (1272) 
1 0 0 0 1 0 0 1 0 0 0 1 0 0 0 1 1 0 1 0 1 0 1 0 1 0

>  <DIFUSE_FUNC_ATOM>  (1272) 
n/a

>  <FINAL_SINGLE_POINT_ENERGY>  (1272) 
0

>  <NONCOV_INTER_ENERGY_QM>  (1272) 
0

>  <FF_Energy>  (1272) 
-9.08

>  <QM_Energy>  (1272) 
-15.6

>  <source>  (1272) 
ETAM_MBZ

>  <Index>  (1272) 
12743

$$$$
ETAM-pdb1twf-E-LYS-20:MBZ-pdb1twf-E-PHE-16
     RDKit          3D

 26 25  0  0  0  0  0  0  0  0999 V2000
    0.8348   -1.5260    4.4417 C   0  0  0  0  0  0  0  0  0  0  0  0
    1.3749   -2.0419    5.0932 H   0  0  0  0  0  0  0  0  0  0  0  0
   -0.1316   -1.7115    4.5550 H   0  0  0  0  0  0  0  0  0  0  0  0
    1.0140   -0.4620    4.5961 H   0  0  0  0  0  0  0  0  0  0  0  0
    1.2471   -1.9315    3.0395 C   0  0  0  0  0  0  0  0  0  0  0  0
    0.7084   -1.4068    2.3738 H   0  0  0  0  0  0  0  0  0  0  0  0
    2.2196   -1.7177    2.9070 H   0  0  0  0  0  0  0  0  0  0  0  0
    1.0360   -3.3929    2.7878 N   0  0  0  0  0  4  0  0  0  0  0  0
    1.3263   -3.9084    3.5916 H   0  0  0  0  0  0  0  0  0  0  0  0
    0.0672   -3.5582    2.6118 H   0  0  0  0  0  0  0  0  0  0  0  0
    1.5756   -3.6691    1.9950 H   0  0  0  0  0  0  0  0  0  0  0  0
    0.0122    2.9125    0.0338 C   0  0  0  0  0  0  0  0  0  0  0  0
   -0.3973    3.2413   -0.8039 H   0  0  0  0  0  0  0  0  0  0  0  0
    0.9506    3.2109    0.1178 H   0  0  0  0  0  0  0  0  0  0  0  0
   -0.5458    3.3450    0.8643 H   0  0  0  0  0  0  0  0  0  0  0  0
    0.0021    1.4049    0.0003 C   0  0  0  0  0  0  0  0  0  0  0  0
   -1.1951    0.6956   -0.0023 C   0  0  0  0  0  0  0  0  0  0  0  0
   -2.0626    1.1829   -0.0070 H   0  0  0  0  0  0  0  0  0  0  0  0
   -1.1991   -0.7009   -0.0000 C   0  0  0  0  0  0  0  0  0  0  0  0
   -2.0772   -1.1918    0.0004 H   0  0  0  0  0  0  0  0  0  0  0  0
    0.0008   -1.3963    0.0035 C   0  0  0  0  0  0  0  0  0  0  0  0
   -0.0019   -2.3948    0.0078 H   0  0  0  0  0  0  0  0  0  0  0  0
    1.1991   -0.6988    0.0000 C   0  0  0  0  0  0  0  0  0  0  0  0
    2.0826   -1.1927    0.0000 H   0  0  0  0  0  0  0  0  0  0  0  0
    1.1921    0.6955   -0.0015 C   0  0  0  0  0  0  0  0  0  0  0  0
    2.0651    1.1887   -0.0046 H   0  0  0  0  0  0  0  0  0  0  0  0
  1  5  1  0
  5  8  1  0
  1  2  1  0
  1  3  1  0
  1  4  1  0
  5  6  1  0
  5  7  1  0
  8  9  1  0
  8 10  1  0
  8 11  1  0
 12 16  1  0
 16 17  2  0
 17 19  1  0
 19 21  2  0
 21 23  1  0
 23 25  2  0
 25 16  1  0
 12 13  1  0
 12 14  1  0
 12 15  1  0
 17 18  1  0
 19 20  1  0
 21 22  1  0
 23 24  1  0
 25 26  1  0
M  CHG  1   8   1
M  END
>  <PDB_ID>  (1273) 
pdb1twf

>  <RESIDUE_NAME>  (1273) 
LYS   PHE

>  <FRAG_NAME>  (1273) 
ETAM   MBZ

>  <FRAG_ATOM_NUM>  (1273) 
fragi: 11  fragj: 15

>  <atom.prop.CHAIN_ID>  (1273) 
A A A A A A A A A A A Z Z Z Z Z Z Z Z Z Z Z Z Z Z Z

>  <atom.prop.IS_HEAVY_ATOM>  (1273) 
1 0 0 0 1 0 0 1 0 0 0 1 0 0 0 1 1 0 1 0 1 0 1 0 1 0

>  <DIFUSE_FUNC_ATOM>  (1273) 
n/a

>  <FINAL_SINGLE_POINT_ENERGY>  (1273) 
0

>  <NONCOV_INTER_ENERGY_QM>  (1273) 
0

>  <FF_Energy>  (1273) 
-0.4

>  <QM_Energy>  (1273) 
-6.6

>  <source>  (1273) 
ETAM_MBZ

>  <Index>  (1273) 
12746

$$$$
ETAM-pdb2zqz-A-LYS-244:MBZ-pdb2zqz-A-PHE-248
     RDKit          3D

 26 25  0  0  0  0  0  0  0  0999 V2000
   -2.2369   -2.6315   -4.8782 C   0  0  0  0  0  0  0  0  0  0  0  0
   -1.7016   -3.3937   -5.2267 H   0  0  0  0  0  0  0  0  0  0  0  0
   -2.0653   -1.8129   -5.4166 H   0  0  0  0  0  0  0  0  0  0  0  0
   -3.2940   -2.8847   -4.9578 H   0  0  0  0  0  0  0  0  0  0  0  0
   -1.8294   -2.3656   -3.4386 C   0  0  0  0  0  0  0  0  0  0  0  0
   -2.3850   -1.6077   -3.0786 H   0  0  0  0  0  0  0  0  0  0  0  0
   -2.0191   -3.1879   -2.8907 H   0  0  0  0  0  0  0  0  0  0  0  0
   -0.3916   -2.0175   -3.3146 N   0  0  0  0  0  4  0  0  0  0  0  0
    0.0320   -2.0231   -4.2207 H   0  0  0  0  0  0  0  0  0  0  0  0
   -0.3031   -1.1069   -2.9106 H   0  0  0  0  0  0  0  0  0  0  0  0
    0.0645   -2.6882   -2.7289 H   0  0  0  0  0  0  0  0  0  0  0  0
   -0.0038    2.9042    0.0605 C   0  0  0  0  0  0  0  0  0  0  0  0
    0.8021    3.1940    0.5557 H   0  0  0  0  0  0  0  0  0  0  0  0
   -0.8305    3.1886    0.5236 H   0  0  0  0  0  0  0  0  0  0  0  0
    0.0142    3.3862   -0.9170 H   0  0  0  0  0  0  0  0  0  0  0  0
    0.0018    1.4030    0.0016 C   0  0  0  0  0  0  0  0  0  0  0  0
   -1.1936    0.6942   -0.0017 C   0  0  0  0  0  0  0  0  0  0  0  0
   -2.0617    1.1841   -0.0066 H   0  0  0  0  0  0  0  0  0  0  0  0
   -1.2015   -0.6988    0.0000 C   0  0  0  0  0  0  0  0  0  0  0  0
   -2.0829   -1.1872    0.0012 H   0  0  0  0  0  0  0  0  0  0  0  0
   -0.0086   -1.3953    0.0014 C   0  0  0  0  0  0  0  0  0  0  0  0
   -0.0081   -2.3936    0.0032 H   0  0  0  0  0  0  0  0  0  0  0  0
    1.2015   -0.6981    0.0000 C   0  0  0  0  0  0  0  0  0  0  0  0
    2.0782   -1.1995    0.0009 H   0  0  0  0  0  0  0  0  0  0  0  0
    1.2003    0.6949   -0.0013 C   0  0  0  0  0  0  0  0  0  0  0  0
    2.0669    1.1895   -0.0053 H   0  0  0  0  0  0  0  0  0  0  0  0
  1  5  1  0
  5  8  1  0
  1  2  1  0
  1  3  1  0
  1  4  1  0
  5  6  1  0
  5  7  1  0
  8  9  1  0
  8 10  1  0
  8 11  1  0
 12 16  1  0
 16 17  2  0
 17 19  1  0
 19 21  2  0
 21 23  1  0
 23 25  2  0
 25 16  1  0
 12 13  1  0
 12 14  1  0
 12 15  1  0
 17 18  1  0
 19 20  1  0
 21 22  1  0
 23 24  1  0
 25 26  1  0
M  CHG  1   8   1
M  END
>  <PDB_ID>  (1274) 
pdb2zqz

>  <RESIDUE_NAME>  (1274) 
LYS   PHE

>  <FRAG_NAME>  (1274) 
ETAM   MBZ

>  <FRAG_ATOM_NUM>  (1274) 
fragi: 11  fragj: 15

>  <atom.prop.CHAIN_ID>  (1274) 
A A A A A A A A A A A Z Z Z Z Z Z Z Z Z Z Z Z Z Z Z

>  <atom.prop.IS_HEAVY_ATOM>  (1274) 
1 0 0 0 1 0 0 1 0 0 0 1 0 0 0 1 1 0 1 0 1 0 1 0 1 0

>  <DIFUSE_FUNC_ATOM>  (1274) 
n/a

>  <FINAL_SINGLE_POINT_ENERGY>  (1274) 
0

>  <NONCOV_INTER_ENERGY_QM>  (1274) 
0

>  <FF_Energy>  (1274) 
-5.07

>  <QM_Energy>  (1274) 
-11.37

>  <source>  (1274) 
ETAM_MBZ

>  <Index>  (1274) 
12762

$$$$
ETAM-pdb1tyf-A-LYS-25:MBZ-pdb1tyf-A-PHE-17
     RDKit          3D

 26 25  0  0  0  0  0  0  0  0999 V2000
    2.9791   -3.3794   -1.2324 C   0  0  0  0  0  0  0  0  0  0  0  0
    2.2039   -4.0039   -1.3578 H   0  0  0  0  0  0  0  0  0  0  0  0
    2.6309   -2.4469   -1.1044 H   0  0  0  0  0  0  0  0  0  0  0  0
    3.5176   -3.6741   -0.3317 H   0  0  0  0  0  0  0  0  0  0  0  0
    3.8297   -3.4061   -2.5051 C   0  0  0  0  0  0  0  0  0  0  0  0
    4.5915   -2.7791   -2.3982 H   0  0  0  0  0  0  0  0  0  0  0  0
    4.1561   -4.3316   -2.6570 H   0  0  0  0  0  0  0  0  0  0  0  0
    3.0001   -2.9770   -3.6825 N   0  0  0  0  0  4  0  0  0  0  0  0
    2.9975   -1.9815   -3.7319 H   0  0  0  0  0  0  0  0  0  0  0  0
    3.3969   -3.3577   -4.5145 H   0  0  0  0  0  0  0  0  0  0  0  0
    2.0690   -3.3150   -3.5632 H   0  0  0  0  0  0  0  0  0  0  0  0
    0.0263    2.9343   -0.0432 C   0  0  0  0  0  0  0  0  0  0  0  0
   -0.5119    3.2277   -0.8241 H   0  0  0  0  0  0  0  0  0  0  0  0
    0.9719    3.2219   -0.1407 H   0  0  0  0  0  0  0  0  0  0  0  0
   -0.3751    3.4431    0.8333 H   0  0  0  0  0  0  0  0  0  0  0  0
   -0.0001    1.4159    0.0003 C   0  0  0  0  0  0  0  0  0  0  0  0
   -1.1981    0.7100    0.0000 C   0  0  0  0  0  0  0  0  0  0  0  0
   -2.0646    1.1888   -0.0010 H   0  0  0  0  0  0  0  0  0  0  0  0
   -1.1993   -0.7016   -0.0000 C   0  0  0  0  0  0  0  0  0  0  0  0
   -2.0788   -1.1869    0.0014 H   0  0  0  0  0  0  0  0  0  0  0  0
    0.0033   -1.4068   -0.0006 C   0  0  0  0  0  0  0  0  0  0  0  0
   -0.0069   -2.4028   -0.0016 H   0  0  0  0  0  0  0  0  0  0  0  0
    1.1993   -0.7100    0.0000 C   0  0  0  0  0  0  0  0  0  0  0  0
    2.0842   -1.1998    0.0020 H   0  0  0  0  0  0  0  0  0  0  0  0
    1.1950    0.6924    0.0003 C   0  0  0  0  0  0  0  0  0  0  0  0
    2.0680    1.1829   -0.0005 H   0  0  0  0  0  0  0  0  0  0  0  0
  1  5  1  0
  5  8  1  0
  1  2  1  0
  1  3  1  0
  1  4  1  0
  5  6  1  0
  5  7  1  0
  8  9  1  0
  8 10  1  0
  8 11  1  0
 12 16  1  0
 16 17  2  0
 17 19  1  0
 19 21  2  0
 21 23  1  0
 23 25  2  0
 25 16  1  0
 12 13  1  0
 12 14  1  0
 12 15  1  0
 17 18  1  0
 19 20  1  0
 21 22  1  0
 23 24  1  0
 25 26  1  0
M  CHG  1   8   1
M  END
>  <PDB_ID>  (1275) 
pdb1tyf

>  <RESIDUE_NAME>  (1275) 
LYS   PHE

>  <FRAG_NAME>  (1275) 
ETAM   MBZ

>  <FRAG_ATOM_NUM>  (1275) 
fragi: 11  fragj: 15

>  <atom.prop.CHAIN_ID>  (1275) 
A A A A A A A A A A A Z Z Z Z Z Z Z Z Z Z Z Z Z Z Z

>  <atom.prop.IS_HEAVY_ATOM>  (1275) 
1 0 0 0 1 0 0 1 0 0 0 1 0 0 0 1 1 0 1 0 1 0 1 0 1 0

>  <DIFUSE_FUNC_ATOM>  (1275) 
n/a

>  <FINAL_SINGLE_POINT_ENERGY>  (1275) 
0

>  <NONCOV_INTER_ENERGY_QM>  (1275) 
0

>  <FF_Energy>  (1275) 
4.16

>  <QM_Energy>  (1275) 
-1.74

>  <source>  (1275) 
ETAM_MBZ

>  <Index>  (1275) 
12763

$$$$
ETAM-pdb2zru-A-LYS-240:MBZ-pdb2zru-B-PHE-319
     RDKit          3D

 26 25  0  0  0  0  0  0  0  0999 V2000
    0.4067   -2.5516   -3.8847 C   0  0  0  0  0  0  0  0  0  0  0  0
    0.2534   -2.8373   -4.8331 H   0  0  0  0  0  0  0  0  0  0  0  0
    0.7311   -3.3362   -3.3529 H   0  0  0  0  0  0  0  0  0  0  0  0
    1.1732   -1.7767   -3.8714 H   0  0  0  0  0  0  0  0  0  0  0  0
   -0.9254   -2.0929   -3.3000 C   0  0  0  0  0  0  0  0  0  0  0  0
   -0.7553   -1.4274   -2.5723 H   0  0  0  0  0  0  0  0  0  0  0  0
   -1.4717   -1.6619   -4.0203 H   0  0  0  0  0  0  0  0  0  0  0  0
   -1.7242   -3.2469   -2.7181 N   0  0  0  0  0  4  0  0  0  0  0  0
   -1.2418   -3.5949   -1.9212 H   0  0  0  0  0  0  0  0  0  0  0  0
   -2.6234   -2.9098   -2.4589 H   0  0  0  0  0  0  0  0  0  0  0  0
   -1.8064   -3.9559   -3.4108 H   0  0  0  0  0  0  0  0  0  0  0  0
   -0.0051    2.9131    0.0324 C   0  0  0  0  0  0  0  0  0  0  0  0
   -0.5649    3.2294   -0.7120 H   0  0  0  0  0  0  0  0  0  0  0  0
    0.9254    3.2250   -0.0452 H   0  0  0  0  0  0  0  0  0  0  0  0
   -0.4167    3.3232    0.9546 H   0  0  0  0  0  0  0  0  0  0  0  0
    0.0015    1.4049    0.0068 C   0  0  0  0  0  0  0  0  0  0  0  0
   -1.2126    0.6909   -0.0023 C   0  0  0  0  0  0  0  0  0  0  0  0
   -2.0718    1.1833   -0.0113 H   0  0  0  0  0  0  0  0  0  0  0  0
   -1.2176   -0.7092    0.0000 C   0  0  0  0  0  0  0  0  0  0  0  0
   -2.0853   -1.2037    0.0089 H   0  0  0  0  0  0  0  0  0  0  0  0
   -0.0004   -1.3995   -0.0077 C   0  0  0  0  0  0  0  0  0  0  0  0
    0.0092   -2.3936   -0.0191 H   0  0  0  0  0  0  0  0  0  0  0  0
    1.2176   -0.6842    0.0000 C   0  0  0  0  0  0  0  0  0  0  0  0
    2.0923   -1.1919    0.0052 H   0  0  0  0  0  0  0  0  0  0  0  0
    1.2115    0.6970    0.0032 C   0  0  0  0  0  0  0  0  0  0  0  0
    2.0717    1.2037    0.0022 H   0  0  0  0  0  0  0  0  0  0  0  0
  1  5  1  0
  5  8  1  0
  1  2  1  0
  1  3  1  0
  1  4  1  0
  5  6  1  0
  5  7  1  0
  8  9  1  0
  8 10  1  0
  8 11  1  0
 12 16  1  0
 16 17  2  0
 17 19  1  0
 19 21  2  0
 21 23  1  0
 23 25  2  0
 25 16  1  0
 12 13  1  0
 12 14  1  0
 12 15  1  0
 17 18  1  0
 19 20  1  0
 21 22  1  0
 23 24  1  0
 25 26  1  0
M  CHG  1   8   1
M  END
>  <PDB_ID>  (1276) 
pdb2zru

>  <RESIDUE_NAME>  (1276) 
LYS   PHE

>  <FRAG_NAME>  (1276) 
ETAM   MBZ

>  <FRAG_ATOM_NUM>  (1276) 
fragi: 11  fragj: 15

>  <atom.prop.CHAIN_ID>  (1276) 
A A A A A A A A A A A Z Z Z Z Z Z Z Z Z Z Z Z Z Z Z

>  <atom.prop.IS_HEAVY_ATOM>  (1276) 
1 0 0 0 1 0 0 1 0 0 0 1 0 0 0 1 1 0 1 0 1 0 1 0 1 0

>  <DIFUSE_FUNC_ATOM>  (1276) 
n/a

>  <FINAL_SINGLE_POINT_ENERGY>  (1276) 
0

>  <NONCOV_INTER_ENERGY_QM>  (1276) 
0

>  <FF_Energy>  (1276) 
-1.95

>  <QM_Energy>  (1276) 
-7.74

>  <source>  (1276) 
ETAM_MBZ

>  <Index>  (1276) 
12772

$$$$
ETAM-pdb2zru-B-LYS-240:MBZ-pdb2zru-C-PHE-319
     RDKit          3D

 26 25  0  0  0  0  0  0  0  0999 V2000
    0.2554   -2.4161   -3.7608 C   0  0  0  0  0  0  0  0  0  0  0  0
    0.1977   -2.9470   -4.6148 H   0  0  0  0  0  0  0  0  0  0  0  0
    0.5303   -3.0364   -3.0178 H   0  0  0  0  0  0  0  0  0  0  0  0
    1.0213   -1.6495   -3.8783 H   0  0  0  0  0  0  0  0  0  0  0  0
   -1.1645   -1.8895   -3.4346 C   0  0  0  0  0  0  0  0  0  0  0  0
   -1.1007   -1.2034   -2.7329 H   0  0  0  0  0  0  0  0  0  0  0  0
   -1.5771   -1.5407   -4.2575 H   0  0  0  0  0  0  0  0  0  0  0  0
   -2.0204   -3.0507   -2.9107 N   0  0  0  0  0  4  0  0  0  0  0  0
   -1.6164   -3.8990   -3.2277 H   0  0  0  0  0  0  0  0  0  0  0  0
   -2.0220   -3.0099   -1.9196 H   0  0  0  0  0  0  0  0  0  0  0  0
   -2.9388   -2.9424   -3.2691 H   0  0  0  0  0  0  0  0  0  0  0  0
    0.0103    2.9208    0.0198 C   0  0  0  0  0  0  0  0  0  0  0  0
   -0.6015    3.2488   -0.6758 H   0  0  0  0  0  0  0  0  0  0  0  0
    0.9337    3.2261   -0.1211 H   0  0  0  0  0  0  0  0  0  0  0  0
   -0.3280    3.3267    0.9732 H   0  0  0  0  0  0  0  0  0  0  0  0
    0.0016    1.4112   -0.0168 C   0  0  0  0  0  0  0  0  0  0  0  0
   -1.2095    0.7019   -0.0045 C   0  0  0  0  0  0  0  0  0  0  0  0
   -2.0699    1.1823   -0.0001 H   0  0  0  0  0  0  0  0  0  0  0  0
   -1.2053   -0.7126   -0.0000 C   0  0  0  0  0  0  0  0  0  0  0  0
   -2.0754   -1.2035   -0.0055 H   0  0  0  0  0  0  0  0  0  0  0  0
    0.0090   -1.3972    0.0146 C   0  0  0  0  0  0  0  0  0  0  0  0
    0.0079   -2.3994    0.0349 H   0  0  0  0  0  0  0  0  0  0  0  0
    1.2053   -0.6996    0.0000 C   0  0  0  0  0  0  0  0  0  0  0  0
    2.0893   -1.1920   -0.0142 H   0  0  0  0  0  0  0  0  0  0  0  0
    1.1989    0.6963    0.0068 C   0  0  0  0  0  0  0  0  0  0  0  0
    2.0680    1.1910    0.0279 H   0  0  0  0  0  0  0  0  0  0  0  0
  1  5  1  0
  5  8  1  0
  1  2  1  0
  1  3  1  0
  1  4  1  0
  5  6  1  0
  5  7  1  0
  8  9  1  0
  8 10  1  0
  8 11  1  0
 12 16  1  0
 16 17  2  0
 17 19  1  0
 19 21  2  0
 21 23  1  0
 23 25  2  0
 25 16  1  0
 12 13  1  0
 12 14  1  0
 12 15  1  0
 17 18  1  0
 19 20  1  0
 21 22  1  0
 23 24  1  0
 25 26  1  0
M  CHG  1   8   1
M  END
>  <PDB_ID>  (1277) 
pdb2zru

>  <RESIDUE_NAME>  (1277) 
LYS   PHE

>  <FRAG_NAME>  (1277) 
ETAM   MBZ

>  <FRAG_ATOM_NUM>  (1277) 
fragi: 11  fragj: 15

>  <atom.prop.CHAIN_ID>  (1277) 
A A A A A A A A A A A Z Z Z Z Z Z Z Z Z Z Z Z Z Z Z

>  <atom.prop.IS_HEAVY_ATOM>  (1277) 
1 0 0 0 1 0 0 1 0 0 0 1 0 0 0 1 1 0 1 0 1 0 1 0 1 0

>  <DIFUSE_FUNC_ATOM>  (1277) 
n/a

>  <FINAL_SINGLE_POINT_ENERGY>  (1277) 
0

>  <NONCOV_INTER_ENERGY_QM>  (1277) 
0

>  <FF_Energy>  (1277) 
-2.65

>  <QM_Energy>  (1277) 
-8.15

>  <source>  (1277) 
ETAM_MBZ

>  <Index>  (1277) 
12774

$$$$
ETAM-pdb1tzb-B-LYS-151:MBZ-pdb1tzb-B-PHE-21
     RDKit          3D

 26 25  0  0  0  0  0  0  0  0999 V2000
    1.2621   -2.6608    3.1590 C   0  0  0  0  0  0  0  0  0  0  0  0
    2.0881   -2.4382    3.6677 H   0  0  0  0  0  0  0  0  0  0  0  0
    1.3059   -2.2739    2.2434 H   0  0  0  0  0  0  0  0  0  0  0  0
    1.1765   -3.7447    3.0821 H   0  0  0  0  0  0  0  0  0  0  0  0
    0.0673   -2.0481    3.8854 C   0  0  0  0  0  0  0  0  0  0  0  0
   -0.7639   -2.5422    3.6123 H   0  0  0  0  0  0  0  0  0  0  0  0
    0.1982   -2.1636    4.8758 H   0  0  0  0  0  0  0  0  0  0  0  0
   -0.0988   -0.6016    3.5782 N   0  0  0  0  0  4  0  0  0  0  0  0
   -0.2794   -0.1014    4.4245 H   0  0  0  0  0  0  0  0  0  0  0  0
    0.7383   -0.2537    3.1561 H   0  0  0  0  0  0  0  0  0  0  0  0
   -0.8659   -0.4819    2.9482 H   0  0  0  0  0  0  0  0  0  0  0  0
    0.0036    2.9019    0.0117 C   0  0  0  0  0  0  0  0  0  0  0  0
   -0.8473    3.2131   -0.3836 H   0  0  0  0  0  0  0  0  0  0  0  0
    0.7811    3.2140   -0.5129 H   0  0  0  0  0  0  0  0  0  0  0  0
    0.0832    3.3357    1.0085 H   0  0  0  0  0  0  0  0  0  0  0  0
    0.0029    1.3991    0.0002 C   0  0  0  0  0  0  0  0  0  0  0  0
   -1.1953    0.6885    0.0006 C   0  0  0  0  0  0  0  0  0  0  0  0
   -2.0611    1.1809   -0.0001 H   0  0  0  0  0  0  0  0  0  0  0  0
   -1.1970   -0.6961    0.0000 C   0  0  0  0  0  0  0  0  0  0  0  0
   -2.0770   -1.1909    0.0017 H   0  0  0  0  0  0  0  0  0  0  0  0
   -0.0035   -1.3892   -0.0002 C   0  0  0  0  0  0  0  0  0  0  0  0
   -0.0047   -2.3897   -0.0009 H   0  0  0  0  0  0  0  0  0  0  0  0
    1.1970   -0.6949   -0.0000 C   0  0  0  0  0  0  0  0  0  0  0  0
    2.0777   -1.1952    0.0021 H   0  0  0  0  0  0  0  0  0  0  0  0
    1.1960    0.6927   -0.0006 C   0  0  0  0  0  0  0  0  0  0  0  0
    2.0651    1.1875   -0.0031 H   0  0  0  0  0  0  0  0  0  0  0  0
  1  5  1  0
  5  8  1  0
  1  2  1  0
  1  3  1  0
  1  4  1  0
  5  6  1  0
  5  7  1  0
  8  9  1  0
  8 10  1  0
  8 11  1  0
 12 16  1  0
 16 17  2  0
 17 19  1  0
 19 21  2  0
 21 23  1  0
 23 25  2  0
 25 16  1  0
 12 13  1  0
 12 14  1  0
 12 15  1  0
 17 18  1  0
 19 20  1  0
 21 22  1  0
 23 24  1  0
 25 26  1  0
M  CHG  1   8   1
M  END
>  <PDB_ID>  (1278) 
pdb1tzb

>  <RESIDUE_NAME>  (1278) 
LYS   PHE

>  <FRAG_NAME>  (1278) 
ETAM   MBZ

>  <FRAG_ATOM_NUM>  (1278) 
fragi: 11  fragj: 15

>  <atom.prop.CHAIN_ID>  (1278) 
A A A A A A A A A A A Z Z Z Z Z Z Z Z Z Z Z Z Z Z Z

>  <atom.prop.IS_HEAVY_ATOM>  (1278) 
1 0 0 0 1 0 0 1 0 0 0 1 0 0 0 1 1 0 1 0 1 0 1 0 1 0

>  <DIFUSE_FUNC_ATOM>  (1278) 
n/a

>  <FINAL_SINGLE_POINT_ENERGY>  (1278) 
0

>  <NONCOV_INTER_ENERGY_QM>  (1278) 
0

>  <FF_Energy>  (1278) 
-7.22

>  <QM_Energy>  (1278) 
-13.31

>  <source>  (1278) 
ETAM_MBZ

>  <Index>  (1278) 
12777

$$$$
ETAM-pdb2zsg-A-LYS-268:MBZ-pdb2zsg-A-PHE-307
     RDKit          3D

 26 25  0  0  0  0  0  0  0  0999 V2000
   -1.4051    0.2839    5.2662 C   0  0  0  0  0  0  0  0  0  0  0  0
   -0.4864    0.6445    5.3864 H   0  0  0  0  0  0  0  0  0  0  0  0
   -1.8012    0.0431    6.1450 H   0  0  0  0  0  0  0  0  0  0  0  0
   -2.0249    1.0487    4.7980 H   0  0  0  0  0  0  0  0  0  0  0  0
   -1.3308   -0.9625    4.4077 C   0  0  0  0  0  0  0  0  0  0  0  0
   -0.7590   -1.6428    4.8665 H   0  0  0  0  0  0  0  0  0  0  0  0
   -2.2522   -1.3319    4.2847 H   0  0  0  0  0  0  0  0  0  0  0  0
   -0.7470   -0.6553    3.0708 N   0  0  0  0  0  4  0  0  0  0  0  0
   -1.0560   -1.3386    2.4109 H   0  0  0  0  0  0  0  0  0  0  0  0
   -1.0473    0.2520    2.7803 H   0  0  0  0  0  0  0  0  0  0  0  0
    0.2500   -0.6754    3.1328 H   0  0  0  0  0  0  0  0  0  0  0  0
    0.0020    2.8999    0.0107 C   0  0  0  0  0  0  0  0  0  0  0  0
   -0.6642    3.2138   -0.6505 H   0  0  0  0  0  0  0  0  0  0  0  0
    0.9128    3.2086   -0.2250 H   0  0  0  0  0  0  0  0  0  0  0  0
   -0.2564    3.3368    0.9753 H   0  0  0  0  0  0  0  0  0  0  0  0
   -0.0002    1.4015   -0.0000 C   0  0  0  0  0  0  0  0  0  0  0  0
   -1.1994    0.6965   -0.0004 C   0  0  0  0  0  0  0  0  0  0  0  0
   -2.0645    1.1866   -0.0021 H   0  0  0  0  0  0  0  0  0  0  0  0
   -1.2042   -0.6975   -0.0000 C   0  0  0  0  0  0  0  0  0  0  0  0
   -2.0796   -1.1912    0.0020 H   0  0  0  0  0  0  0  0  0  0  0  0
    0.0006   -1.3952   -0.0006 C   0  0  0  0  0  0  0  0  0  0  0  0
   -0.0057   -2.3943   -0.0021 H   0  0  0  0  0  0  0  0  0  0  0  0
    1.2042   -0.7006    0.0000 C   0  0  0  0  0  0  0  0  0  0  0  0
    2.0840   -1.1960    0.0013 H   0  0  0  0  0  0  0  0  0  0  0  0
    1.1990    0.6952    0.0010 C   0  0  0  0  0  0  0  0  0  0  0  0
    2.0658    1.1908    0.0020 H   0  0  0  0  0  0  0  0  0  0  0  0
  1  5  1  0
  5  8  1  0
  1  2  1  0
  1  3  1  0
  1  4  1  0
  5  6  1  0
  5  7  1  0
  8  9  1  0
  8 10  1  0
  8 11  1  0
 12 16  1  0
 16 17  2  0
 17 19  1  0
 19 21  2  0
 21 23  1  0
 23 25  2  0
 25 16  1  0
 12 13  1  0
 12 14  1  0
 12 15  1  0
 17 18  1  0
 19 20  1  0
 21 22  1  0
 23 24  1  0
 25 26  1  0
M  CHG  1   8   1
M  END
>  <PDB_ID>  (1279) 
pdb2zsg

>  <RESIDUE_NAME>  (1279) 
LYS   PHE

>  <FRAG_NAME>  (1279) 
ETAM   MBZ

>  <FRAG_ATOM_NUM>  (1279) 
fragi: 11  fragj: 15

>  <atom.prop.CHAIN_ID>  (1279) 
A A A A A A A A A A A Z Z Z Z Z Z Z Z Z Z Z Z Z Z Z

>  <atom.prop.IS_HEAVY_ATOM>  (1279) 
1 0 0 0 1 0 0 1 0 0 0 1 0 0 0 1 1 0 1 0 1 0 1 0 1 0

>  <DIFUSE_FUNC_ATOM>  (1279) 
n/a

>  <FINAL_SINGLE_POINT_ENERGY>  (1279) 
0

>  <NONCOV_INTER_ENERGY_QM>  (1279) 
0

>  <FF_Energy>  (1279) 
-7.17

>  <QM_Energy>  (1279) 
-14.28

>  <source>  (1279) 
ETAM_MBZ

>  <Index>  (1279) 
12783

$$$$
ETAM-pdb2zsj-A-LYS-145:MBZ-pdb2zsj-B-PHE-343
     RDKit          3D

 26 25  0  0  0  0  0  0  0  0999 V2000
   -0.6911    1.6154   -3.8840 C   0  0  0  0  0  0  0  0  0  0  0  0
   -0.5899    2.2970   -4.5996 H   0  0  0  0  0  0  0  0  0  0  0  0
   -1.0680    2.0241   -3.0610 H   0  0  0  0  0  0  0  0  0  0  0  0
   -1.3684    0.8362   -4.2335 H   0  0  0  0  0  0  0  0  0  0  0  0
    0.6846    1.0465   -3.5571 C   0  0  0  0  0  0  0  0  0  0  0  0
    0.5897    0.3727   -2.8167 H   0  0  0  0  0  0  0  0  0  0  0  0
    1.0450    0.5794   -4.3716 H   0  0  0  0  0  0  0  0  0  0  0  0
    1.6490    2.1031   -3.1346 N   0  0  0  0  0  4  0  0  0  0  0  0
    2.1966    2.3843   -3.9214 H   0  0  0  0  0  0  0  0  0  0  0  0
    1.1435    2.8878   -2.7794 H   0  0  0  0  0  0  0  0  0  0  0  0
    2.2467    1.7379   -2.4228 H   0  0  0  0  0  0  0  0  0  0  0  0
   -0.0001    2.9031    0.0029 C   0  0  0  0  0  0  0  0  0  0  0  0
   -0.4837    3.2101   -0.8037 H   0  0  0  0  0  0  0  0  0  0  0  0
    0.9408    3.2091   -0.0036 H   0  0  0  0  0  0  0  0  0  0  0  0
   -0.4886    3.3421    0.8728 H   0  0  0  0  0  0  0  0  0  0  0  0
    0.0005    1.4014    0.0003 C   0  0  0  0  0  0  0  0  0  0  0  0
   -1.1971    0.6920    0.0006 C   0  0  0  0  0  0  0  0  0  0  0  0
   -2.0630    1.1825   -0.0001 H   0  0  0  0  0  0  0  0  0  0  0  0
   -1.2020   -0.6982    0.0000 C   0  0  0  0  0  0  0  0  0  0  0  0
   -2.0784   -1.1921    0.0016 H   0  0  0  0  0  0  0  0  0  0  0  0
   -0.0010   -1.3933   -0.0008 C   0  0  0  0  0  0  0  0  0  0  0  0
   -0.0031   -2.3922   -0.0029 H   0  0  0  0  0  0  0  0  0  0  0  0
    1.2020   -0.6962   -0.0000 C   0  0  0  0  0  0  0  0  0  0  0  0
    2.0825   -1.1947    0.0024 H   0  0  0  0  0  0  0  0  0  0  0  0
    1.1976    0.6943   -0.0001 C   0  0  0  0  0  0  0  0  0  0  0  0
    2.0650    1.1913   -0.0012 H   0  0  0  0  0  0  0  0  0  0  0  0
  1  5  1  0
  5  8  1  0
  1  2  1  0
  1  3  1  0
  1  4  1  0
  5  6  1  0
  5  7  1  0
  8  9  1  0
  8 10  1  0
  8 11  1  0
 12 16  1  0
 16 17  2  0
 17 19  1  0
 19 21  2  0
 21 23  1  0
 23 25  2  0
 25 16  1  0
 12 13  1  0
 12 14  1  0
 12 15  1  0
 17 18  1  0
 19 20  1  0
 21 22  1  0
 23 24  1  0
 25 26  1  0
M  CHG  1   8   1
M  END
>  <PDB_ID>  (1280) 
pdb2zsj

>  <RESIDUE_NAME>  (1280) 
LYS   PHE

>  <FRAG_NAME>  (1280) 
ETAM   MBZ

>  <FRAG_ATOM_NUM>  (1280) 
fragi: 11  fragj: 15

>  <atom.prop.CHAIN_ID>  (1280) 
A A A A A A A A A A A Z Z Z Z Z Z Z Z Z Z Z Z Z Z Z

>  <atom.prop.IS_HEAVY_ATOM>  (1280) 
1 0 0 0 1 0 0 1 0 0 0 1 0 0 0 1 1 0 1 0 1 0 1 0 1 0

>  <DIFUSE_FUNC_ATOM>  (1280) 
n/a

>  <FINAL_SINGLE_POINT_ENERGY>  (1280) 
0

>  <NONCOV_INTER_ENERGY_QM>  (1280) 
0

>  <FF_Energy>  (1280) 
-5.87

>  <QM_Energy>  (1280) 
-11.11

>  <source>  (1280) 
ETAM_MBZ

>  <Index>  (1280) 
12789

$$$$
ETAM-pdb1tzt-A-LYS-137:MBZ-pdb1tzt-A-PHE-140
     RDKit          3D

 26 25  0  0  0  0  0  0  0  0999 V2000
   -5.1977   -0.6649   -2.8945 C   0  0  0  0  0  0  0  0  0  0  0  0
   -5.4315   -0.8872   -1.9460 H   0  0  0  0  0  0  0  0  0  0  0  0
   -5.6318   -1.3295   -3.5055 H   0  0  0  0  0  0  0  0  0  0  0  0
   -5.6028    0.3213   -3.1212 H   0  0  0  0  0  0  0  0  0  0  0  0
   -3.6890   -0.7598   -3.0622 C   0  0  0  0  0  0  0  0  0  0  0  0
   -3.4731   -0.8020   -4.0333 H   0  0  0  0  0  0  0  0  0  0  0  0
   -3.2659    0.0432   -2.6519 H   0  0  0  0  0  0  0  0  0  0  0  0
   -3.1848   -1.9821   -2.3894 N   0  0  0  0  0  4  0  0  0  0  0  0
   -2.6015   -2.4943   -3.0204 H   0  0  0  0  0  0  0  0  0  0  0  0
   -2.6543   -1.7237   -1.5810 H   0  0  0  0  0  0  0  0  0  0  0  0
   -3.9575   -2.5528   -2.1117 H   0  0  0  0  0  0  0  0  0  0  0  0
   -0.0058    2.8838    0.0723 C   0  0  0  0  0  0  0  0  0  0  0  0
   -0.8185    3.2193   -0.3663 H   0  0  0  0  0  0  0  0  0  0  0  0
    0.8137    3.2222   -0.3511 H   0  0  0  0  0  0  0  0  0  0  0  0
   -0.0160    3.2414    1.1020 H   0  0  0  0  0  0  0  0  0  0  0  0
   -0.0018    1.3936   -0.0101 C   0  0  0  0  0  0  0  0  0  0  0  0
   -1.1840    0.6855    0.0068 C   0  0  0  0  0  0  0  0  0  0  0  0
   -2.0569    1.1711    0.0227 H   0  0  0  0  0  0  0  0  0  0  0  0
   -1.1819   -0.6967   -0.0000 C   0  0  0  0  0  0  0  0  0  0  0  0
   -2.0649   -1.1909   -0.0045 H   0  0  0  0  0  0  0  0  0  0  0  0
    0.0025   -1.3808    0.0010 C   0  0  0  0  0  0  0  0  0  0  0  0
   -0.0009   -2.3864    0.0023 H   0  0  0  0  0  0  0  0  0  0  0  0
    1.1819   -0.6944    0.0000 C   0  0  0  0  0  0  0  0  0  0  0  0
    2.0727   -1.1881   -0.0010 H   0  0  0  0  0  0  0  0  0  0  0  0
    1.1833    0.6928    0.0023 C   0  0  0  0  0  0  0  0  0  0  0  0
    2.0557    1.1844    0.0123 H   0  0  0  0  0  0  0  0  0  0  0  0
  1  5  1  0
  5  8  1  0
  1  2  1  0
  1  3  1  0
  1  4  1  0
  5  6  1  0
  5  7  1  0
  8  9  1  0
  8 10  1  0
  8 11  1  0
 12 16  1  0
 16 17  2  0
 17 19  1  0
 19 21  2  0
 21 23  1  0
 23 25  2  0
 25 16  1  0
 12 13  1  0
 12 14  1  0
 12 15  1  0
 17 18  1  0
 19 20  1  0
 21 22  1  0
 23 24  1  0
 25 26  1  0
M  CHG  1   8   1
M  END
>  <PDB_ID>  (1281) 
pdb1tzt

>  <RESIDUE_NAME>  (1281) 
LYS   PHE

>  <FRAG_NAME>  (1281) 
ETAM   MBZ

>  <FRAG_ATOM_NUM>  (1281) 
fragi: 11  fragj: 15

>  <atom.prop.CHAIN_ID>  (1281) 
A A A A A A A A A A A Z Z Z Z Z Z Z Z Z Z Z Z Z Z Z

>  <atom.prop.IS_HEAVY_ATOM>  (1281) 
1 0 0 0 1 0 0 1 0 0 0 1 0 0 0 1 1 0 1 0 1 0 1 0 1 0

>  <DIFUSE_FUNC_ATOM>  (1281) 
n/a

>  <FINAL_SINGLE_POINT_ENERGY>  (1281) 
0

>  <NONCOV_INTER_ENERGY_QM>  (1281) 
0

>  <FF_Energy>  (1281) 
-0.87

>  <QM_Energy>  (1281) 
-7.27

>  <source>  (1281) 
ETAM_MBZ

>  <Index>  (1281) 
12792

$$$$
ETAM-pdb2zue-A-LYS-345:MBZ-pdb2zue-A-PHE-403
     RDKit          3D

 26 25  0  0  0  0  0  0  0  0999 V2000
   -1.9095    0.0934   -4.1920 C   0  0  0  0  0  0  0  0  0  0  0  0
   -2.5041   -0.1019   -4.9648 H   0  0  0  0  0  0  0  0  0  0  0  0
   -1.9236    1.0641   -3.9799 H   0  0  0  0  0  0  0  0  0  0  0  0
   -2.2548   -0.4687   -3.3243 H   0  0  0  0  0  0  0  0  0  0  0  0
   -0.4899   -0.2972   -4.5653 C   0  0  0  0  0  0  0  0  0  0  0  0
   -0.4269   -1.3014   -4.5981 H   0  0  0  0  0  0  0  0  0  0  0  0
   -0.2837    0.0642   -5.4826 H   0  0  0  0  0  0  0  0  0  0  0  0
    0.5134    0.2223   -3.6008 N   0  0  0  0  0  4  0  0  0  0  0  0
    0.2614    1.1498   -3.3245 H   0  0  0  0  0  0  0  0  0  0  0  0
    0.5388   -0.3704   -2.7953 H   0  0  0  0  0  0  0  0  0  0  0  0
    1.4153    0.2365   -4.0333 H   0  0  0  0  0  0  0  0  0  0  0  0
   -0.0102    2.9082   -0.0093 C   0  0  0  0  0  0  0  0  0  0  0  0
   -0.7535    3.2135    0.5691 H   0  0  0  0  0  0  0  0  0  0  0  0
   -0.1382    3.2076   -0.9443 H   0  0  0  0  0  0  0  0  0  0  0  0
    0.9085    3.3620    0.3625 H   0  0  0  0  0  0  0  0  0  0  0  0
    0.0003    1.4056    0.0006 C   0  0  0  0  0  0  0  0  0  0  0  0
   -1.2015    0.6928   -0.0005 C   0  0  0  0  0  0  0  0  0  0  0  0
   -2.0661    1.1838   -0.0025 H   0  0  0  0  0  0  0  0  0  0  0  0
   -1.2061   -0.6998   -0.0000 C   0  0  0  0  0  0  0  0  0  0  0  0
   -2.0795   -1.1947    0.0016 H   0  0  0  0  0  0  0  0  0  0  0  0
    0.0020   -1.3993    0.0004 C   0  0  0  0  0  0  0  0  0  0  0  0
   -0.0018   -2.3958    0.0002 H   0  0  0  0  0  0  0  0  0  0  0  0
    1.2061   -0.6987    0.0000 C   0  0  0  0  0  0  0  0  0  0  0  0
    2.0869   -1.1929    0.0010 H   0  0  0  0  0  0  0  0  0  0  0  0
    1.1993    0.6994   -0.0006 C   0  0  0  0  0  0  0  0  0  0  0  0
    2.0664    1.1941   -0.0032 H   0  0  0  0  0  0  0  0  0  0  0  0
  1  5  1  0
  5  8  1  0
  1  2  1  0
  1  3  1  0
  1  4  1  0
  5  6  1  0
  5  7  1  0
  8  9  1  0
  8 10  1  0
  8 11  1  0
 12 16  1  0
 16 17  2  0
 17 19  1  0
 19 21  2  0
 21 23  1  0
 23 25  2  0
 25 16  1  0
 12 13  1  0
 12 14  1  0
 12 15  1  0
 17 18  1  0
 19 20  1  0
 21 22  1  0
 23 24  1  0
 25 26  1  0
M  CHG  1   8   1
M  END
>  <PDB_ID>  (1282) 
pdb2zue

>  <RESIDUE_NAME>  (1282) 
LYS   PHE

>  <FRAG_NAME>  (1282) 
ETAM   MBZ

>  <FRAG_ATOM_NUM>  (1282) 
fragi: 11  fragj: 15

>  <atom.prop.CHAIN_ID>  (1282) 
A A A A A A A A A A A Z Z Z Z Z Z Z Z Z Z Z Z Z Z Z

>  <atom.prop.IS_HEAVY_ATOM>  (1282) 
1 0 0 0 1 0 0 1 0 0 0 1 0 0 0 1 1 0 1 0 1 0 1 0 1 0

>  <DIFUSE_FUNC_ATOM>  (1282) 
n/a

>  <FINAL_SINGLE_POINT_ENERGY>  (1282) 
0

>  <NONCOV_INTER_ENERGY_QM>  (1282) 
0

>  <FF_Energy>  (1282) 
-7.8

>  <QM_Energy>  (1282) 
-13.27

>  <source>  (1282) 
ETAM_MBZ

>  <Index>  (1282) 
12809

$$$$
ETAM-pdb2zqz-B-LYS-244:MBZ-pdb2zqz-B-PHE-248
     RDKit          3D

 26 25  0  0  0  0  0  0  0  0999 V2000
   -2.2521   -2.3341   -4.5867 C   0  0  0  0  0  0  0  0  0  0  0  0
   -1.7153   -3.0284   -5.0606 H   0  0  0  0  0  0  0  0  0  0  0  0
   -2.1343   -1.4506   -5.0336 H   0  0  0  0  0  0  0  0  0  0  0  0
   -3.3046   -2.6139   -4.6315 H   0  0  0  0  0  0  0  0  0  0  0  0
   -1.7465   -2.2235   -3.1561 C   0  0  0  0  0  0  0  0  0  0  0  0
   -2.2754   -1.5226   -2.6781 H   0  0  0  0  0  0  0  0  0  0  0  0
   -1.8699   -3.1039   -2.6982 H   0  0  0  0  0  0  0  0  0  0  0  0
   -0.3029   -1.8538   -3.1271 N   0  0  0  0  0  4  0  0  0  0  0  0
   -0.0603   -1.5407   -2.2096 H   0  0  0  0  0  0  0  0  0  0  0  0
    0.2476   -2.6531   -3.3652 H   0  0  0  0  0  0  0  0  0  0  0  0
   -0.1360   -1.1219   -3.7871 H   0  0  0  0  0  0  0  0  0  0  0  0
   -0.0019    2.9177    0.0500 C   0  0  0  0  0  0  0  0  0  0  0  0
    0.8055    3.2099    0.5423 H   0  0  0  0  0  0  0  0  0  0  0  0
   -0.8264    3.2064    0.5143 H   0  0  0  0  0  0  0  0  0  0  0  0
    0.0138    3.4045   -0.9251 H   0  0  0  0  0  0  0  0  0  0  0  0
    0.0014    1.4074    0.0009 C   0  0  0  0  0  0  0  0  0  0  0  0
   -1.1970    0.6931   -0.0011 C   0  0  0  0  0  0  0  0  0  0  0  0
   -2.0641    1.1807   -0.0051 H   0  0  0  0  0  0  0  0  0  0  0  0
   -1.2018   -0.7049    0.0000 C   0  0  0  0  0  0  0  0  0  0  0  0
   -2.0791   -1.1945    0.0002 H   0  0  0  0  0  0  0  0  0  0  0  0
   -0.0022   -1.3976    0.0024 C   0  0  0  0  0  0  0  0  0  0  0  0
   -0.0005   -2.3958    0.0054 H   0  0  0  0  0  0  0  0  0  0  0  0
    1.2018   -0.6959    0.0000 C   0  0  0  0  0  0  0  0  0  0  0  0
    2.0822   -1.1939    0.0012 H   0  0  0  0  0  0  0  0  0  0  0  0
    1.1978    0.6979   -0.0021 C   0  0  0  0  0  0  0  0  0  0  0  0
    2.0663    1.1929   -0.0070 H   0  0  0  0  0  0  0  0  0  0  0  0
  1  5  1  0
  5  8  1  0
  1  2  1  0
  1  3  1  0
  1  4  1  0
  5  6  1  0
  5  7  1  0
  8  9  1  0
  8 10  1  0
  8 11  1  0
 12 16  1  0
 16 17  2  0
 17 19  1  0
 19 21  2  0
 21 23  1  0
 23 25  2  0
 25 16  1  0
 12 13  1  0
 12 14  1  0
 12 15  1  0
 17 18  1  0
 19 20  1  0
 21 22  1  0
 23 24  1  0
 25 26  1  0
M  CHG  1   8   1
M  END
>  <PDB_ID>  (1283) 
pdb2zqz

>  <RESIDUE_NAME>  (1283) 
LYS   PHE

>  <FRAG_NAME>  (1283) 
ETAM   MBZ

>  <FRAG_ATOM_NUM>  (1283) 
fragi: 11  fragj: 15

>  <atom.prop.CHAIN_ID>  (1283) 
A A A A A A A A A A A Z Z Z Z Z Z Z Z Z Z Z Z Z Z Z

>  <atom.prop.IS_HEAVY_ATOM>  (1283) 
1 0 0 0 1 0 0 1 0 0 0 1 0 0 0 1 1 0 1 0 1 0 1 0 1 0

>  <DIFUSE_FUNC_ATOM>  (1283) 
n/a

>  <FINAL_SINGLE_POINT_ENERGY>  (1283) 
0

>  <NONCOV_INTER_ENERGY_QM>  (1283) 
0

>  <FF_Energy>  (1283) 
-6.02

>  <QM_Energy>  (1283) 
-14.45

>  <source>  (1283) 
ETAM_MBZ

>  <Index>  (1283) 
12814

$$$$
ETAM-pdb1u0k-B-LYS-103:MBZ-pdb1u0k-B-PHE-72
     RDKit          3D

 26 25  0  0  0  0  0  0  0  0999 V2000
    5.4466    2.8103    2.3475 C   0  0  0  0  0  0  0  0  0  0  0  0
    4.6168    2.8847    2.8836 H   0  0  0  0  0  0  0  0  0  0  0  0
    5.5948    3.6248    1.8038 H   0  0  0  0  0  0  0  0  0  0  0  0
    6.2924    2.6741    3.0214 H   0  0  0  0  0  0  0  0  0  0  0  0
    5.3165    1.6174    1.4125 C   0  0  0  0  0  0  0  0  0  0  0  0
    6.1746    1.5286    0.8917 H   0  0  0  0  0  0  0  0  0  0  0  0
    5.2016    0.7872    1.9727 H   0  0  0  0  0  0  0  0  0  0  0  0
    4.1926    1.7618    0.5004 N   0  0  0  0  0  4  0  0  0  0  0  0
    4.2559    1.0845   -0.2398 H   0  0  0  0  0  0  0  0  0  0  0  0
    3.3254    1.6228    0.9908 H   0  0  0  0  0  0  0  0  0  0  0  0
    4.1889    2.6811    0.0951 H   0  0  0  0  0  0  0  0  0  0  0  0
   -0.0001    2.8825    0.0450 C   0  0  0  0  0  0  0  0  0  0  0  0
   -0.9078    3.2064   -0.1595 H   0  0  0  0  0  0  0  0  0  0  0  0
    0.6639    3.2144   -0.6026 H   0  0  0  0  0  0  0  0  0  0  0  0
    0.2746    3.2736    1.0247 H   0  0  0  0  0  0  0  0  0  0  0  0
   -0.0064    1.3901   -0.0048 C   0  0  0  0  0  0  0  0  0  0  0  0
   -1.1849    0.6860    0.0003 C   0  0  0  0  0  0  0  0  0  0  0  0
   -2.0592    1.1744    0.0036 H   0  0  0  0  0  0  0  0  0  0  0  0
   -1.1844   -0.6899    0.0000 C   0  0  0  0  0  0  0  0  0  0  0  0
   -2.0608   -1.1911    0.0029 H   0  0  0  0  0  0  0  0  0  0  0  0
    0.0118   -1.3780   -0.0030 C   0  0  0  0  0  0  0  0  0  0  0  0
   -0.0017   -2.3848   -0.0078 H   0  0  0  0  0  0  0  0  0  0  0  0
    1.1844   -0.6975   -0.0000 C   0  0  0  0  0  0  0  0  0  0  0  0
    2.0784   -1.1863   -0.0014 H   0  0  0  0  0  0  0  0  0  0  0  0
    1.1795    0.6892    0.0074 C   0  0  0  0  0  0  0  0  0  0  0  0
    2.0517    1.1832    0.0208 H   0  0  0  0  0  0  0  0  0  0  0  0
  1  5  1  0
  5  8  1  0
  1  2  1  0
  1  3  1  0
  1  4  1  0
  5  6  1  0
  5  7  1  0
  8  9  1  0
  8 10  1  0
  8 11  1  0
 12 16  1  0
 16 17  2  0
 17 19  1  0
 19 21  2  0
 21 23  1  0
 23 25  2  0
 25 16  1  0
 12 13  1  0
 12 14  1  0
 12 15  1  0
 17 18  1  0
 19 20  1  0
 21 22  1  0
 23 24  1  0
 25 26  1  0
M  CHG  1   8   1
M  END
>  <PDB_ID>  (1284) 
pdb1u0k

>  <RESIDUE_NAME>  (1284) 
LYS   PHE

>  <FRAG_NAME>  (1284) 
ETAM   MBZ

>  <FRAG_ATOM_NUM>  (1284) 
fragi: 11  fragj: 15

>  <atom.prop.CHAIN_ID>  (1284) 
A A A A A A A A A A A Z Z Z Z Z Z Z Z Z Z Z Z Z Z Z

>  <atom.prop.IS_HEAVY_ATOM>  (1284) 
1 0 0 0 1 0 0 1 0 0 0 1 0 0 0 1 1 0 1 0 1 0 1 0 1 0

>  <DIFUSE_FUNC_ATOM>  (1284) 
n/a

>  <FINAL_SINGLE_POINT_ENERGY>  (1284) 
0

>  <NONCOV_INTER_ENERGY_QM>  (1284) 
0

>  <FF_Energy>  (1284) 
5.26

>  <QM_Energy>  (1284) 
-1.25

>  <source>  (1284) 
ETAM_MBZ

>  <Index>  (1284) 
12815

$$$$
ETAM-pdb2zvi-A-LYS-227:MBZ-pdb2zvi-A-PHE-189
     RDKit          3D

 26 25  0  0  0  0  0  0  0  0999 V2000
   -0.8773    0.1492    4.1430 C   0  0  0  0  0  0  0  0  0  0  0  0
   -1.0195    0.5022    5.0541 H   0  0  0  0  0  0  0  0  0  0  0  0
   -0.2336   -0.5998    4.1406 H   0  0  0  0  0  0  0  0  0  0  0  0
   -1.8307   -0.2076    3.7534 H   0  0  0  0  0  0  0  0  0  0  0  0
   -0.3244    1.2735    3.2618 C   0  0  0  0  0  0  0  0  0  0  0  0
   -0.5459    1.0632    2.2939 H   0  0  0  0  0  0  0  0  0  0  0  0
   -0.8081    2.1351    3.4969 H   0  0  0  0  0  0  0  0  0  0  0  0
    1.1543    1.5051    3.3777 N   0  0  0  0  0  4  0  0  0  0  0  0
    1.6366    0.7070    3.0250 H   0  0  0  0  0  0  0  0  0  0  0  0
    1.3994    2.3127    2.8466 H   0  0  0  0  0  0  0  0  0  0  0  0
    1.3867    1.6458    4.3368 H   0  0  0  0  0  0  0  0  0  0  0  0
    0.0011    2.9141    0.0471 C   0  0  0  0  0  0  0  0  0  0  0  0
    0.6263    3.1986    0.7603 H   0  0  0  0  0  0  0  0  0  0  0  0
   -0.9216    3.2150    0.2407 H   0  0  0  0  0  0  0  0  0  0  0  0
    0.3171    3.3941   -0.8790 H   0  0  0  0  0  0  0  0  0  0  0  0
    0.0001    1.4073    0.0012 C   0  0  0  0  0  0  0  0  0  0  0  0
   -1.1980    0.7018   -0.0012 C   0  0  0  0  0  0  0  0  0  0  0  0
   -2.0644    1.1900   -0.0049 H   0  0  0  0  0  0  0  0  0  0  0  0
   -1.2048   -0.6963    0.0000 C   0  0  0  0  0  0  0  0  0  0  0  0
   -2.0822   -1.1860    0.0018 H   0  0  0  0  0  0  0  0  0  0  0  0
   -0.0014   -1.4000    0.0010 C   0  0  0  0  0  0  0  0  0  0  0  0
   -0.0094   -2.3968    0.0015 H   0  0  0  0  0  0  0  0  0  0  0  0
    1.2048   -0.7047   -0.0000 C   0  0  0  0  0  0  0  0  0  0  0  0
    2.0838   -1.2008    0.0018 H   0  0  0  0  0  0  0  0  0  0  0  0
    1.1994    0.6920   -0.0010 C   0  0  0  0  0  0  0  0  0  0  0  0
    2.0683    1.1872   -0.0039 H   0  0  0  0  0  0  0  0  0  0  0  0
  1  5  1  0
  5  8  1  0
  1  2  1  0
  1  3  1  0
  1  4  1  0
  5  6  1  0
  5  7  1  0
  8  9  1  0
  8 10  1  0
  8 11  1  0
 12 16  1  0
 16 17  2  0
 17 19  1  0
 19 21  2  0
 21 23  1  0
 23 25  2  0
 25 16  1  0
 12 13  1  0
 12 14  1  0
 12 15  1  0
 17 18  1  0
 19 20  1  0
 21 22  1  0
 23 24  1  0
 25 26  1  0
M  CHG  1   8   1
M  END
>  <PDB_ID>  (1285) 
pdb2zvi

>  <RESIDUE_NAME>  (1285) 
LYS   PHE

>  <FRAG_NAME>  (1285) 
ETAM   MBZ

>  <FRAG_ATOM_NUM>  (1285) 
fragi: 11  fragj: 15

>  <atom.prop.CHAIN_ID>  (1285) 
A A A A A A A A A A A Z Z Z Z Z Z Z Z Z Z Z Z Z Z Z

>  <atom.prop.IS_HEAVY_ATOM>  (1285) 
1 0 0 0 1 0 0 1 0 0 0 1 0 0 0 1 1 0 1 0 1 0 1 0 1 0

>  <DIFUSE_FUNC_ATOM>  (1285) 
n/a

>  <FINAL_SINGLE_POINT_ENERGY>  (1285) 
0

>  <NONCOV_INTER_ENERGY_QM>  (1285) 
0

>  <FF_Energy>  (1285) 
-2.83

>  <QM_Energy>  (1285) 
-10.47

>  <source>  (1285) 
ETAM_MBZ

>  <Index>  (1285) 
12847

$$$$
ETAM-pdb1u24-A-LYS-108:MBZ-pdb1u24-A-PHE-59
     RDKit          3D

 26 25  0  0  0  0  0  0  0  0999 V2000
    3.0084   -1.9173   -3.4957 C   0  0  0  0  0  0  0  0  0  0  0  0
    2.9779   -1.6779   -4.4559 H   0  0  0  0  0  0  0  0  0  0  0  0
    2.2274   -1.5503   -3.0106 H   0  0  0  0  0  0  0  0  0  0  0  0
    3.0015   -3.0034   -3.4036 H   0  0  0  0  0  0  0  0  0  0  0  0
    4.2761   -1.3425   -2.8881 C   0  0  0  0  0  0  0  0  0  0  0  0
    5.0658   -1.7931   -3.2950 H   0  0  0  0  0  0  0  0  0  0  0  0
    4.3107   -0.3631   -3.0705 H   0  0  0  0  0  0  0  0  0  0  0  0
    4.2859   -1.5680   -1.4154 N   0  0  0  0  0  4  0  0  0  0  0  0
    3.7507   -2.3845   -1.2024 H   0  0  0  0  0  0  0  0  0  0  0  0
    5.2280   -1.6938   -1.1063 H   0  0  0  0  0  0  0  0  0  0  0  0
    3.8859   -0.7755   -0.9563 H   0  0  0  0  0  0  0  0  0  0  0  0
   -0.0059    2.8971    0.1660 C   0  0  0  0  0  0  0  0  0  0  0  0
   -0.6137    3.2769   -0.5098 H   0  0  0  0  0  0  0  0  0  0  0  0
    0.9173    3.2217    0.0555 H   0  0  0  0  0  0  0  0  0  0  0  0
   -0.3560    3.2197    1.1465 H   0  0  0  0  0  0  0  0  0  0  0  0
    0.0005    1.4020    0.0036 C   0  0  0  0  0  0  0  0  0  0  0  0
   -1.1966    0.6927   -0.0050 C   0  0  0  0  0  0  0  0  0  0  0  0
   -2.0643    1.1832   -0.0156 H   0  0  0  0  0  0  0  0  0  0  0  0
   -1.2073   -0.7037    0.0000 C   0  0  0  0  0  0  0  0  0  0  0  0
   -2.0813   -1.1928    0.0014 H   0  0  0  0  0  0  0  0  0  0  0  0
   -0.0030   -1.3949    0.0047 C   0  0  0  0  0  0  0  0  0  0  0  0
   -0.0002   -2.3937    0.0116 H   0  0  0  0  0  0  0  0  0  0  0  0
    1.2073   -0.6941    0.0000 C   0  0  0  0  0  0  0  0  0  0  0  0
    2.0838   -1.1926    0.0004 H   0  0  0  0  0  0  0  0  0  0  0  0
    1.1991    0.6980   -0.0033 C   0  0  0  0  0  0  0  0  0  0  0  0
    2.0653    1.1958   -0.0116 H   0  0  0  0  0  0  0  0  0  0  0  0
  1  5  1  0
  5  8  1  0
  1  2  1  0
  1  3  1  0
  1  4  1  0
  5  6  1  0
  5  7  1  0
  8  9  1  0
  8 10  1  0
  8 11  1  0
 12 16  1  0
 16 17  2  0
 17 19  1  0
 19 21  2  0
 21 23  1  0
 23 25  2  0
 25 16  1  0
 12 13  1  0
 12 14  1  0
 12 15  1  0
 17 18  1  0
 19 20  1  0
 21 22  1  0
 23 24  1  0
 25 26  1  0
M  CHG  1   8   1
M  END
>  <PDB_ID>  (1286) 
pdb1u24

>  <RESIDUE_NAME>  (1286) 
LYS   PHE

>  <FRAG_NAME>  (1286) 
ETAM   MBZ

>  <FRAG_ATOM_NUM>  (1286) 
fragi: 11  fragj: 15

>  <atom.prop.CHAIN_ID>  (1286) 
A A A A A A A A A A A Z Z Z Z Z Z Z Z Z Z Z Z Z Z Z

>  <atom.prop.IS_HEAVY_ATOM>  (1286) 
1 0 0 0 1 0 0 1 0 0 0 1 0 0 0 1 1 0 1 0 1 0 1 0 1 0

>  <DIFUSE_FUNC_ATOM>  (1286) 
n/a

>  <FINAL_SINGLE_POINT_ENERGY>  (1286) 
0

>  <NONCOV_INTER_ENERGY_QM>  (1286) 
0

>  <FF_Energy>  (1286) 
0.61

>  <QM_Energy>  (1286) 
-4.4

>  <source>  (1286) 
ETAM_MBZ

>  <Index>  (1286) 
12854

$$$$
ETAM-pdb2zwr-B-LYS-169:MBZ-pdb2zwr-B-PHE-165
     RDKit          3D

 26 25  0  0  0  0  0  0  0  0999 V2000
    3.2074   -1.3620    2.5618 C   0  0  0  0  0  0  0  0  0  0  0  0
    3.8612   -1.9974    2.9749 H   0  0  0  0  0  0  0  0  0  0  0  0
    2.6291   -1.8560    1.9115 H   0  0  0  0  0  0  0  0  0  0  0  0
    2.5738   -0.9566    3.3506 H   0  0  0  0  0  0  0  0  0  0  0  0
    3.9745   -0.2918    1.8151 C   0  0  0  0  0  0  0  0  0  0  0  0
    3.5208    0.5901    1.9387 H   0  0  0  0  0  0  0  0  0  0  0  0
    4.9066   -0.2400    2.1727 H   0  0  0  0  0  0  0  0  0  0  0  0
    4.0402   -0.5973    0.3420 N   0  0  0  0  0  4  0  0  0  0  0  0
    3.1772   -1.0079    0.0583 H   0  0  0  0  0  0  0  0  0  0  0  0
    4.1949    0.2516   -0.1572 H   0  0  0  0  0  0  0  0  0  0  0  0
    4.7912   -1.2316    0.1774 H   0  0  0  0  0  0  0  0  0  0  0  0
   -0.0043    2.9071   -0.0249 C   0  0  0  0  0  0  0  0  0  0  0  0
   -0.8263    3.2013   -0.4878 H   0  0  0  0  0  0  0  0  0  0  0  0
    0.8062    3.2085   -0.5034 H   0  0  0  0  0  0  0  0  0  0  0  0
    0.0034    3.3640    0.9647 H   0  0  0  0  0  0  0  0  0  0  0  0
    0.0028    1.3945   -0.0074 C   0  0  0  0  0  0  0  0  0  0  0  0
   -1.1997    0.6923   -0.0086 C   0  0  0  0  0  0  0  0  0  0  0  0
   -2.0623    1.1958   -0.0170 H   0  0  0  0  0  0  0  0  0  0  0  0
   -1.2190   -0.6892    0.0000 C   0  0  0  0  0  0  0  0  0  0  0  0
   -2.0887   -1.1848   -0.0122 H   0  0  0  0  0  0  0  0  0  0  0  0
   -0.0075   -1.3902    0.0253 C   0  0  0  0  0  0  0  0  0  0  0  0
   -0.0144   -2.3884    0.0609 H   0  0  0  0  0  0  0  0  0  0  0  0
    1.2190   -0.7017    0.0000 C   0  0  0  0  0  0  0  0  0  0  0  0
    2.0851   -1.2006   -0.0094 H   0  0  0  0  0  0  0  0  0  0  0  0
    1.2045    0.6944   -0.0093 C   0  0  0  0  0  0  0  0  0  0  0  0
    2.0694    1.1946   -0.0181 H   0  0  0  0  0  0  0  0  0  0  0  0
  1  5  1  0
  5  8  1  0
  1  2  1  0
  1  3  1  0
  1  4  1  0
  5  6  1  0
  5  7  1  0
  8  9  1  0
  8 10  1  0
  8 11  1  0
 12 16  1  0
 16 17  2  0
 17 19  1  0
 19 21  2  0
 21 23  1  0
 23 25  2  0
 25 16  1  0
 12 13  1  0
 12 14  1  0
 12 15  1  0
 17 18  1  0
 19 20  1  0
 21 22  1  0
 23 24  1  0
 25 26  1  0
M  CHG  1   8   1
M  END
>  <PDB_ID>  (1287) 
pdb2zwr

>  <RESIDUE_NAME>  (1287) 
LYS   PHE

>  <FRAG_NAME>  (1287) 
ETAM   MBZ

>  <FRAG_ATOM_NUM>  (1287) 
fragi: 11  fragj: 15

>  <atom.prop.CHAIN_ID>  (1287) 
A A A A A A A A A A A Z Z Z Z Z Z Z Z Z Z Z Z Z Z Z

>  <atom.prop.IS_HEAVY_ATOM>  (1287) 
1 0 0 0 1 0 0 1 0 0 0 1 0 0 0 1 1 0 1 0 1 0 1 0 1 0

>  <DIFUSE_FUNC_ATOM>  (1287) 
n/a

>  <FINAL_SINGLE_POINT_ENERGY>  (1287) 
0

>  <NONCOV_INTER_ENERGY_QM>  (1287) 
0

>  <FF_Energy>  (1287) 
22.42

>  <QM_Energy>  (1287) 
8.89

>  <source>  (1287) 
ETAM_MBZ

>  <Index>  (1287) 
12875

$$$$
ETAM-pdb1u04-A-LYS-610:MBZ-pdb1u04-A-PHE-614
     RDKit          3D

 26 25  0  0  0  0  0  0  0  0999 V2000
    3.2244   -0.8684    4.2597 C   0  0  0  0  0  0  0  0  0  0  0  0
    3.6396   -0.2461    3.5969 H   0  0  0  0  0  0  0  0  0  0  0  0
    3.8446   -0.9978    5.0326 H   0  0  0  0  0  0  0  0  0  0  0  0
    2.2979   -0.4241    4.6236 H   0  0  0  0  0  0  0  0  0  0  0  0
    2.9980   -2.2078    3.5909 C   0  0  0  0  0  0  0  0  0  0  0  0
    3.8892   -2.6325    3.4034 H   0  0  0  0  0  0  0  0  0  0  0  0
    2.4855   -2.8026    4.2191 H   0  0  0  0  0  0  0  0  0  0  0  0
    2.2471   -2.0679    2.3267 N   0  0  0  0  0  4  0  0  0  0  0  0
    1.7162   -2.9000    2.1551 H   0  0  0  0  0  0  0  0  0  0  0  0
    1.6243   -1.2854    2.3893 H   0  0  0  0  0  0  0  0  0  0  0  0
    2.8855   -1.9221    1.5694 H   0  0  0  0  0  0  0  0  0  0  0  0
   -0.0074    2.9094    0.0055 C   0  0  0  0  0  0  0  0  0  0  0  0
    0.0197    3.2133    0.9463 H   0  0  0  0  0  0  0  0  0  0  0  0
   -0.8321    3.2148   -0.4476 H   0  0  0  0  0  0  0  0  0  0  0  0
    0.8405    3.3581   -0.5118 H   0  0  0  0  0  0  0  0  0  0  0  0
   -0.0007    1.4064   -0.0002 C   0  0  0  0  0  0  0  0  0  0  0  0
   -1.1994    0.6983    0.0001 C   0  0  0  0  0  0  0  0  0  0  0  0
   -2.0654    1.1857   -0.0008 H   0  0  0  0  0  0  0  0  0  0  0  0
   -1.2045   -0.6996   -0.0000 C   0  0  0  0  0  0  0  0  0  0  0  0
   -2.0791   -1.1922    0.0011 H   0  0  0  0  0  0  0  0  0  0  0  0
    0.0028   -1.4001   -0.0001 C   0  0  0  0  0  0  0  0  0  0  0  0
   -0.0035   -2.3968   -0.0006 H   0  0  0  0  0  0  0  0  0  0  0  0
    1.2045   -0.7010    0.0000 C   0  0  0  0  0  0  0  0  0  0  0  0
    2.0866   -1.1945    0.0015 H   0  0  0  0  0  0  0  0  0  0  0  0
    1.1973    0.6960    0.0002 C   0  0  0  0  0  0  0  0  0  0  0  0
    2.0653    1.1908   -0.0000 H   0  0  0  0  0  0  0  0  0  0  0  0
  1  5  1  0
  5  8  1  0
  1  2  1  0
  1  3  1  0
  1  4  1  0
  5  6  1  0
  5  7  1  0
  8  9  1  0
  8 10  1  0
  8 11  1  0
 12 16  1  0
 16 17  2  0
 17 19  1  0
 19 21  2  0
 21 23  1  0
 23 25  2  0
 25 16  1  0
 12 13  1  0
 12 14  1  0
 12 15  1  0
 17 18  1  0
 19 20  1  0
 21 22  1  0
 23 24  1  0
 25 26  1  0
M  CHG  1   8   1
M  END
>  <PDB_ID>  (1288) 
pdb1u04

>  <RESIDUE_NAME>  (1288) 
LYS   PHE

>  <FRAG_NAME>  (1288) 
ETAM   MBZ

>  <FRAG_ATOM_NUM>  (1288) 
fragi: 11  fragj: 15

>  <atom.prop.CHAIN_ID>  (1288) 
A A A A A A A A A A A Z Z Z Z Z Z Z Z Z Z Z Z Z Z Z

>  <atom.prop.IS_HEAVY_ATOM>  (1288) 
1 0 0 0 1 0 0 1 0 0 0 1 0 0 0 1 1 0 1 0 1 0 1 0 1 0

>  <DIFUSE_FUNC_ATOM>  (1288) 
n/a

>  <FINAL_SINGLE_POINT_ENERGY>  (1288) 
0

>  <NONCOV_INTER_ENERGY_QM>  (1288) 
0

>  <FF_Energy>  (1288) 
0.81

>  <QM_Energy>  (1288) 
-7.27

>  <source>  (1288) 
ETAM_MBZ

>  <Index>  (1288) 
12876

$$$$
ETAM-pdb1u2j-D-LYS-483:MBZ-pdb1u2j-D-PHE-723
     RDKit          3D

 26 25  0  0  0  0  0  0  0  0999 V2000
   -3.0242   -2.7560    3.7890 C   0  0  0  0  0  0  0  0  0  0  0  0
   -3.5998   -3.3298    4.3522 H   0  0  0  0  0  0  0  0  0  0  0  0
   -2.2122   -2.4726    4.2759 H   0  0  0  0  0  0  0  0  0  0  0  0
   -2.7449   -3.2900    2.8806 H   0  0  0  0  0  0  0  0  0  0  0  0
   -3.8228   -1.4946    3.4268 C   0  0  0  0  0  0  0  0  0  0  0  0
   -4.4334   -1.7112    2.6601 H   0  0  0  0  0  0  0  0  0  0  0  0
   -4.3797   -1.2293    4.2187 H   0  0  0  0  0  0  0  0  0  0  0  0
   -2.9400   -0.3482    3.0417 N   0  0  0  0  0  4  0  0  0  0  0  0
   -2.6478    0.1311    3.8667 H   0  0  0  0  0  0  0  0  0  0  0  0
   -2.1426   -0.6987    2.5535 H   0  0  0  0  0  0  0  0  0  0  0  0
   -3.4510    0.2751    2.4522 H   0  0  0  0  0  0  0  0  0  0  0  0
   -0.0071    2.9139   -0.0103 C   0  0  0  0  0  0  0  0  0  0  0  0
    0.9071    3.2211    0.1920 H   0  0  0  0  0  0  0  0  0  0  0  0
   -0.6543    3.2149    0.6705 H   0  0  0  0  0  0  0  0  0  0  0  0
   -0.3017    3.3497   -0.9650 H   0  0  0  0  0  0  0  0  0  0  0  0
    0.0000    1.3972   -0.0068 C   0  0  0  0  0  0  0  0  0  0  0  0
   -1.1956    0.6790   -0.0015 C   0  0  0  0  0  0  0  0  0  0  0  0
   -2.0624    1.1751    0.0004 H   0  0  0  0  0  0  0  0  0  0  0  0
   -1.1953   -0.6949    0.0000 C   0  0  0  0  0  0  0  0  0  0  0  0
   -2.0697   -1.1991   -0.0036 H   0  0  0  0  0  0  0  0  0  0  0  0
    0.0065   -1.3867    0.0091 C   0  0  0  0  0  0  0  0  0  0  0  0
    0.0017   -2.3867    0.0222 H   0  0  0  0  0  0  0  0  0  0  0  0
    1.1953   -0.6908   -0.0000 C   0  0  0  0  0  0  0  0  0  0  0  0
    2.0822   -1.1850   -0.0044 H   0  0  0  0  0  0  0  0  0  0  0  0
    1.1892    0.6963   -0.0008 C   0  0  0  0  0  0  0  0  0  0  0  0
    2.0592    1.1920    0.0024 H   0  0  0  0  0  0  0  0  0  0  0  0
  1  5  1  0
  5  8  1  0
  1  2  1  0
  1  3  1  0
  1  4  1  0
  5  6  1  0
  5  7  1  0
  8  9  1  0
  8 10  1  0
  8 11  1  0
 12 16  1  0
 16 17  2  0
 17 19  1  0
 19 21  2  0
 21 23  1  0
 23 25  2  0
 25 16  1  0
 12 13  1  0
 12 14  1  0
 12 15  1  0
 17 18  1  0
 19 20  1  0
 21 22  1  0
 23 24  1  0
 25 26  1  0
M  CHG  1   8   1
M  END
>  <PDB_ID>  (1289) 
pdb1u2j

>  <RESIDUE_NAME>  (1289) 
LYS   PHE

>  <FRAG_NAME>  (1289) 
ETAM   MBZ

>  <FRAG_ATOM_NUM>  (1289) 
fragi: 11  fragj: 15

>  <atom.prop.CHAIN_ID>  (1289) 
A A A A A A A A A A A Z Z Z Z Z Z Z Z Z Z Z Z Z Z Z

>  <atom.prop.IS_HEAVY_ATOM>  (1289) 
1 0 0 0 1 0 0 1 0 0 0 1 0 0 0 1 1 0 1 0 1 0 1 0 1 0

>  <DIFUSE_FUNC_ATOM>  (1289) 
n/a

>  <FINAL_SINGLE_POINT_ENERGY>  (1289) 
0

>  <NONCOV_INTER_ENERGY_QM>  (1289) 
0

>  <FF_Energy>  (1289) 
-3.28

>  <QM_Energy>  (1289) 
-8.71

>  <source>  (1289) 
ETAM_MBZ

>  <Index>  (1289) 
12881

$$$$
ETAM-pdb2zxi-D-LYS-297:MBZ-pdb2zxi-D-PHE-294
     RDKit          3D

 26 25  0  0  0  0  0  0  0  0999 V2000
    1.0459    3.0556    3.5312 C   0  0  0  0  0  0  0  0  0  0  0  0
    1.5352    3.0057    2.6737 H   0  0  0  0  0  0  0  0  0  0  0  0
    1.6568    2.9553    4.3018 H   0  0  0  0  0  0  0  0  0  0  0  0
    0.5389    4.0181    3.5986 H   0  0  0  0  0  0  0  0  0  0  0  0
    0.0251    1.9183    3.5725 C   0  0  0  0  0  0  0  0  0  0  0  0
   -0.4629    1.9553    4.4529 H   0  0  0  0  0  0  0  0  0  0  0  0
   -0.6432    2.0586    2.8334 H   0  0  0  0  0  0  0  0  0  0  0  0
    0.6510    0.5742    3.4165 N   0  0  0  0  0  4  0  0  0  0  0  0
    1.4703    0.5228    3.9859 H   0  0  0  0  0  0  0  0  0  0  0  0
   -0.0001   -0.1281    3.7008 H   0  0  0  0  0  0  0  0  0  0  0  0
    0.8988    0.4338    2.4588 H   0  0  0  0  0  0  0  0  0  0  0  0
    0.0021    2.9020   -0.0077 C   0  0  0  0  0  0  0  0  0  0  0  0
    0.9387    3.2082   -0.0932 H   0  0  0  0  0  0  0  0  0  0  0  0
   -0.4015    3.2147    0.8391 H   0  0  0  0  0  0  0  0  0  0  0  0
   -0.5671    3.3378   -0.8288 H   0  0  0  0  0  0  0  0  0  0  0  0
   -0.0000    1.4039    0.0002 C   0  0  0  0  0  0  0  0  0  0  0  0
   -1.2001    0.6969    0.0005 C   0  0  0  0  0  0  0  0  0  0  0  0
   -2.0651    1.1876   -0.0004 H   0  0  0  0  0  0  0  0  0  0  0  0
   -1.2054   -0.6957   -0.0000 C   0  0  0  0  0  0  0  0  0  0  0  0
   -2.0805   -1.1895    0.0014 H   0  0  0  0  0  0  0  0  0  0  0  0
    0.0008   -1.3965   -0.0007 C   0  0  0  0  0  0  0  0  0  0  0  0
   -0.0070   -2.3943   -0.0021 H   0  0  0  0  0  0  0  0  0  0  0  0
    1.2054   -0.7021   -0.0000 C   0  0  0  0  0  0  0  0  0  0  0  0
    2.0848   -1.1977    0.0020 H   0  0  0  0  0  0  0  0  0  0  0  0
    1.1993    0.6935    0.0000 C   0  0  0  0  0  0  0  0  0  0  0  0
    2.0663    1.1896   -0.0011 H   0  0  0  0  0  0  0  0  0  0  0  0
  1  5  1  0
  5  8  1  0
  1  2  1  0
  1  3  1  0
  1  4  1  0
  5  6  1  0
  5  7  1  0
  8  9  1  0
  8 10  1  0
  8 11  1  0
 12 16  1  0
 16 17  2  0
 17 19  1  0
 19 21  2  0
 21 23  1  0
 23 25  2  0
 25 16  1  0
 12 13  1  0
 12 14  1  0
 12 15  1  0
 17 18  1  0
 19 20  1  0
 21 22  1  0
 23 24  1  0
 25 26  1  0
M  CHG  1   8   1
M  END
>  <PDB_ID>  (1290) 
pdb2zxi

>  <RESIDUE_NAME>  (1290) 
LYS   PHE

>  <FRAG_NAME>  (1290) 
ETAM   MBZ

>  <FRAG_ATOM_NUM>  (1290) 
fragi: 11  fragj: 15

>  <atom.prop.CHAIN_ID>  (1290) 
A A A A A A A A A A A Z Z Z Z Z Z Z Z Z Z Z Z Z Z Z

>  <atom.prop.IS_HEAVY_ATOM>  (1290) 
1 0 0 0 1 0 0 1 0 0 0 1 0 0 0 1 1 0 1 0 1 0 1 0 1 0

>  <DIFUSE_FUNC_ATOM>  (1290) 
n/a

>  <FINAL_SINGLE_POINT_ENERGY>  (1290) 
0

>  <NONCOV_INTER_ENERGY_QM>  (1290) 
0

>  <FF_Energy>  (1290) 
-8.75

>  <QM_Energy>  (1290) 
-15.61

>  <source>  (1290) 
ETAM_MBZ

>  <Index>  (1290) 
12900

$$$$
ETAM-pdb2zqz-D-LYS-244:MBZ-pdb2zqz-D-PHE-248
     RDKit          3D

 26 25  0  0  0  0  0  0  0  0999 V2000
   -2.9828   -2.1767   -4.8007 C   0  0  0  0  0  0  0  0  0  0  0  0
   -2.4994   -2.8761   -5.3135 H   0  0  0  0  0  0  0  0  0  0  0  0
   -2.8268   -1.2810   -5.1984 H   0  0  0  0  0  0  0  0  0  0  0  0
   -4.0502   -2.3939   -4.8389 H   0  0  0  0  0  0  0  0  0  0  0  0
   -2.4681   -2.1734   -3.3693 C   0  0  0  0  0  0  0  0  0  0  0  0
   -3.0588   -1.5717   -2.8132 H   0  0  0  0  0  0  0  0  0  0  0  0
   -2.5397   -3.1090   -2.9958 H   0  0  0  0  0  0  0  0  0  0  0  0
   -1.0569   -1.7112   -3.2507 N   0  0  0  0  0  4  0  0  0  0  0  0
   -0.9538   -0.8367   -3.7242 H   0  0  0  0  0  0  0  0  0  0  0  0
   -0.8262   -1.5991   -2.2846 H   0  0  0  0  0  0  0  0  0  0  0  0
   -0.4503   -2.3899   -3.6643 H   0  0  0  0  0  0  0  0  0  0  0  0
   -0.0003    2.9000    0.0712 C   0  0  0  0  0  0  0  0  0  0  0  0
    0.8165    3.1886    0.5537 H   0  0  0  0  0  0  0  0  0  0  0  0
   -0.8160    3.1862    0.5555 H   0  0  0  0  0  0  0  0  0  0  0  0
   -0.0022    3.3943   -0.9003 H   0  0  0  0  0  0  0  0  0  0  0  0
    0.0012    1.4072    0.0008 C   0  0  0  0  0  0  0  0  0  0  0  0
   -1.1980    0.6989   -0.0034 C   0  0  0  0  0  0  0  0  0  0  0  0
   -2.0645    1.1859   -0.0098 H   0  0  0  0  0  0  0  0  0  0  0  0
   -1.2060   -0.7033   -0.0000 C   0  0  0  0  0  0  0  0  0  0  0  0
   -2.0830   -1.1907    0.0010 H   0  0  0  0  0  0  0  0  0  0  0  0
   -0.0030   -1.4022    0.0034 C   0  0  0  0  0  0  0  0  0  0  0  0
   -0.0040   -2.3977    0.0077 H   0  0  0  0  0  0  0  0  0  0  0  0
    1.2060   -0.7009   -0.0000 C   0  0  0  0  0  0  0  0  0  0  0  0
    2.0844   -1.1954   -0.0002 H   0  0  0  0  0  0  0  0  0  0  0  0
    1.1997    0.7003   -0.0008 C   0  0  0  0  0  0  0  0  0  0  0  0
    2.0673    1.1929   -0.0028 H   0  0  0  0  0  0  0  0  0  0  0  0
  1  5  1  0
  5  8  1  0
  1  2  1  0
  1  3  1  0
  1  4  1  0
  5  6  1  0
  5  7  1  0
  8  9  1  0
  8 10  1  0
  8 11  1  0
 12 16  1  0
 16 17  2  0
 17 19  1  0
 19 21  2  0
 21 23  1  0
 23 25  2  0
 25 16  1  0
 12 13  1  0
 12 14  1  0
 12 15  1  0
 17 18  1  0
 19 20  1  0
 21 22  1  0
 23 24  1  0
 25 26  1  0
M  CHG  1   8   1
M  END
>  <PDB_ID>  (1291) 
pdb2zqz

>  <RESIDUE_NAME>  (1291) 
LYS   PHE

>  <FRAG_NAME>  (1291) 
ETAM   MBZ

>  <FRAG_ATOM_NUM>  (1291) 
fragi: 11  fragj: 15

>  <atom.prop.CHAIN_ID>  (1291) 
A A A A A A A A A A A Z Z Z Z Z Z Z Z Z Z Z Z Z Z Z

>  <atom.prop.IS_HEAVY_ATOM>  (1291) 
1 0 0 0 1 0 0 1 0 0 0 1 0 0 0 1 1 0 1 0 1 0 1 0 1 0

>  <DIFUSE_FUNC_ATOM>  (1291) 
n/a

>  <FINAL_SINGLE_POINT_ENERGY>  (1291) 
0

>  <NONCOV_INTER_ENERGY_QM>  (1291) 
0

>  <FF_Energy>  (1291) 
-5.48

>  <QM_Energy>  (1291) 
-13.27

>  <source>  (1291) 
ETAM_MBZ

>  <Index>  (1291) 
12911

$$$$
ETAM-pdb1u5q-A-LYS-57:MBZ-pdb1u5q-A-PHE-39
     RDKit          3D

 26 25  0  0  0  0  0  0  0  0999 V2000
   -1.6305    0.4478   -4.1262 C   0  0  0  0  0  0  0  0  0  0  0  0
   -1.1839   -0.4374   -4.2327 H   0  0  0  0  0  0  0  0  0  0  0  0
   -1.7648    0.8705   -5.0194 H   0  0  0  0  0  0  0  0  0  0  0  0
   -2.6051    0.2925   -3.6633 H   0  0  0  0  0  0  0  0  0  0  0  0
   -0.7120    1.3560   -3.2946 C   0  0  0  0  0  0  0  0  0  0  0  0
   -1.1020    2.2695   -3.2661 H   0  0  0  0  0  0  0  0  0  0  0  0
   -0.6348    0.9828   -2.3761 H   0  0  0  0  0  0  0  0  0  0  0  0
    0.6609    1.4252   -3.9148 N   0  0  0  0  0  4  0  0  0  0  0  0
    0.7423    2.2785   -4.4221 H   0  0  0  0  0  0  0  0  0  0  0  0
    1.3435    1.3914   -3.1898 H   0  0  0  0  0  0  0  0  0  0  0  0
    0.7760    0.6493   -4.5296 H   0  0  0  0  0  0  0  0  0  0  0  0
    0.0030    2.9117    0.0307 C   0  0  0  0  0  0  0  0  0  0  0  0
   -0.7402    3.2309   -0.5357 H   0  0  0  0  0  0  0  0  0  0  0  0
    0.8769    3.2219   -0.3091 H   0  0  0  0  0  0  0  0  0  0  0  0
   -0.1348    3.3305    1.0276 H   0  0  0  0  0  0  0  0  0  0  0  0
   -0.0002    1.4065    0.0003 C   0  0  0  0  0  0  0  0  0  0  0  0
   -1.2003    0.6941    0.0004 C   0  0  0  0  0  0  0  0  0  0  0  0
   -2.0669    1.1828   -0.0008 H   0  0  0  0  0  0  0  0  0  0  0  0
   -1.2056   -0.7033   -0.0000 C   0  0  0  0  0  0  0  0  0  0  0  0
   -2.0795   -1.1953    0.0014 H   0  0  0  0  0  0  0  0  0  0  0  0
    0.0017   -1.3985    0.0002 C   0  0  0  0  0  0  0  0  0  0  0  0
    0.0011   -2.3952   -0.0000 H   0  0  0  0  0  0  0  0  0  0  0  0
    1.2056   -0.6959   -0.0000 C   0  0  0  0  0  0  0  0  0  0  0  0
    2.0861   -1.1926    0.0019 H   0  0  0  0  0  0  0  0  0  0  0  0
    1.1988    0.6971   -0.0009 C   0  0  0  0  0  0  0  0  0  0  0  0
    2.0661    1.1944   -0.0034 H   0  0  0  0  0  0  0  0  0  0  0  0
  1  5  1  0
  5  8  1  0
  1  2  1  0
  1  3  1  0
  1  4  1  0
  5  6  1  0
  5  7  1  0
  8  9  1  0
  8 10  1  0
  8 11  1  0
 12 16  1  0
 16 17  2  0
 17 19  1  0
 19 21  2  0
 21 23  1  0
 23 25  2  0
 25 16  1  0
 12 13  1  0
 12 14  1  0
 12 15  1  0
 17 18  1  0
 19 20  1  0
 21 22  1  0
 23 24  1  0
 25 26  1  0
M  CHG  1   8   1
M  END
>  <PDB_ID>  (1292) 
pdb1u5q

>  <RESIDUE_NAME>  (1292) 
LYS   PHE

>  <FRAG_NAME>  (1292) 
ETAM   MBZ

>  <FRAG_ATOM_NUM>  (1292) 
fragi: 11  fragj: 15

>  <atom.prop.CHAIN_ID>  (1292) 
A A A A A A A A A A A Z Z Z Z Z Z Z Z Z Z Z Z Z Z Z

>  <atom.prop.IS_HEAVY_ATOM>  (1292) 
1 0 0 0 1 0 0 1 0 0 0 1 0 0 0 1 1 0 1 0 1 0 1 0 1 0

>  <DIFUSE_FUNC_ATOM>  (1292) 
n/a

>  <FINAL_SINGLE_POINT_ENERGY>  (1292) 
0

>  <NONCOV_INTER_ENERGY_QM>  (1292) 
0

>  <FF_Energy>  (1292) 
-4.07

>  <QM_Energy>  (1292) 
-9.47

>  <source>  (1292) 
ETAM_MBZ

>  <Index>  (1292) 
12936

$$$$
ETAM-pdb1u4c-B-LYS-109:MBZ-pdb1u4c-B-PHE-64
     RDKit          3D

 26 25  0  0  0  0  0  0  0  0999 V2000
   -2.9127   -0.6950    4.2777 C   0  0  0  0  0  0  0  0  0  0  0  0
   -3.3294   -0.5288    3.3965 H   0  0  0  0  0  0  0  0  0  0  0  0
   -2.4466    0.1092    4.6143 H   0  0  0  0  0  0  0  0  0  0  0  0
   -3.6934   -0.9697    4.9871 H   0  0  0  0  0  0  0  0  0  0  0  0
   -1.8921   -1.8271    4.1308 C   0  0  0  0  0  0  0  0  0  0  0  0
   -1.5374   -2.0609    5.0535 H   0  0  0  0  0  0  0  0  0  0  0  0
   -2.3745   -2.6504    3.7814 H   0  0  0  0  0  0  0  0  0  0  0  0
   -0.7389   -1.5253    3.2320 N   0  0  0  0  0  4  0  0  0  0  0  0
    0.0412   -1.2328    3.7836 H   0  0  0  0  0  0  0  0  0  0  0  0
   -0.4982   -2.3472    2.7176 H   0  0  0  0  0  0  0  0  0  0  0  0
   -0.9962   -0.7956    2.5996 H   0  0  0  0  0  0  0  0  0  0  0  0
    0.0099    2.9238    0.0760 C   0  0  0  0  0  0  0  0  0  0  0  0
   -0.6566    3.2629   -0.5680 H   0  0  0  0  0  0  0  0  0  0  0  0
    0.9204    3.2332   -0.1434 H   0  0  0  0  0  0  0  0  0  0  0  0
   -0.2468    3.3174    1.0596 H   0  0  0  0  0  0  0  0  0  0  0  0
    0.0017    1.4111    0.0012 C   0  0  0  0  0  0  0  0  0  0  0  0
   -1.1914    0.7012   -0.0011 C   0  0  0  0  0  0  0  0  0  0  0  0
   -2.0606    1.1846   -0.0050 H   0  0  0  0  0  0  0  0  0  0  0  0
   -1.1943   -0.6992    0.0000 C   0  0  0  0  0  0  0  0  0  0  0  0
   -2.0776   -1.1857    0.0010 H   0  0  0  0  0  0  0  0  0  0  0  0
   -0.0014   -1.4003    0.0019 C   0  0  0  0  0  0  0  0  0  0  0  0
   -0.0094   -2.3987    0.0043 H   0  0  0  0  0  0  0  0  0  0  0  0
    1.1943   -0.7078   -0.0000 C   0  0  0  0  0  0  0  0  0  0  0  0
    2.0788   -1.1980    0.0019 H   0  0  0  0  0  0  0  0  0  0  0  0
    1.1912    0.6951   -0.0019 C   0  0  0  0  0  0  0  0  0  0  0  0
    2.0652    1.1824   -0.0064 H   0  0  0  0  0  0  0  0  0  0  0  0
  1  5  1  0
  5  8  1  0
  1  2  1  0
  1  3  1  0
  1  4  1  0
  5  6  1  0
  5  7  1  0
  8  9  1  0
  8 10  1  0
  8 11  1  0
 12 16  1  0
 16 17  2  0
 17 19  1  0
 19 21  2  0
 21 23  1  0
 23 25  2  0
 25 16  1  0
 12 13  1  0
 12 14  1  0
 12 15  1  0
 17 18  1  0
 19 20  1  0
 21 22  1  0
 23 24  1  0
 25 26  1  0
M  CHG  1   8   1
M  END
>  <PDB_ID>  (1293) 
pdb1u4c

>  <RESIDUE_NAME>  (1293) 
LYS   PHE

>  <FRAG_NAME>  (1293) 
ETAM   MBZ

>  <FRAG_ATOM_NUM>  (1293) 
fragi: 11  fragj: 15

>  <atom.prop.CHAIN_ID>  (1293) 
A A A A A A A A A A A Z Z Z Z Z Z Z Z Z Z Z Z Z Z Z

>  <atom.prop.IS_HEAVY_ATOM>  (1293) 
1 0 0 0 1 0 0 1 0 0 0 1 0 0 0 1 1 0 1 0 1 0 1 0 1 0

>  <DIFUSE_FUNC_ATOM>  (1293) 
n/a

>  <FINAL_SINGLE_POINT_ENERGY>  (1293) 
0

>  <NONCOV_INTER_ENERGY_QM>  (1293) 
0

>  <FF_Energy>  (1293) 
-5.94

>  <QM_Energy>  (1293) 
-12.7

>  <source>  (1293) 
ETAM_MBZ

>  <Index>  (1293) 
12949

$$$$
ETAM-pdb1u2z-B-LYS-579:MBZ-pdb1u2z-B-PHE-300
     RDKit          3D

 26 25  0  0  0  0  0  0  0  0999 V2000
    4.4787   -0.0757   -0.9834 C   0  0  0  0  0  0  0  0  0  0  0  0
    3.5164   -0.1328   -0.7486 H   0  0  0  0  0  0  0  0  0  0  0  0
    4.9899    0.3820   -0.2681 H   0  0  0  0  0  0  0  0  0  0  0  0
    4.8725   -1.0837   -1.1138 H   0  0  0  0  0  0  0  0  0  0  0  0
    4.6185    0.7240   -2.2670 C   0  0  0  0  0  0  0  0  0  0  0  0
    5.5769    0.6997   -2.5629 H   0  0  0  0  0  0  0  0  0  0  0  0
    4.0494    0.3014   -2.9781 H   0  0  0  0  0  0  0  0  0  0  0  0
    4.1992    2.1398   -2.0838 N   0  0  0  0  0  4  0  0  0  0  0  0
    3.2096    2.1777   -1.9442 H   0  0  0  0  0  0  0  0  0  0  0  0
    4.6646    2.5229   -1.2865 H   0  0  0  0  0  0  0  0  0  0  0  0
    4.4425    2.6663   -2.8980 H   0  0  0  0  0  0  0  0  0  0  0  0
   -0.0021    2.9019    0.0109 C   0  0  0  0  0  0  0  0  0  0  0  0
   -0.5669    3.2141   -0.7378 H   0  0  0  0  0  0  0  0  0  0  0  0
    0.9315    3.2116   -0.0892 H   0  0  0  0  0  0  0  0  0  0  0  0
   -0.3985    3.3343    0.9296 H   0  0  0  0  0  0  0  0  0  0  0  0
   -0.0003    1.4021    0.0000 C   0  0  0  0  0  0  0  0  0  0  0  0
   -1.1972    0.6944    0.0000 C   0  0  0  0  0  0  0  0  0  0  0  0
   -2.0637    1.1838   -0.0013 H   0  0  0  0  0  0  0  0  0  0  0  0
   -1.2029   -0.7000    0.0000 C   0  0  0  0  0  0  0  0  0  0  0  0
   -2.0780   -1.1926    0.0008 H   0  0  0  0  0  0  0  0  0  0  0  0
    0.0020   -1.3963    0.0003 C   0  0  0  0  0  0  0  0  0  0  0  0
   -0.0006   -2.3941    0.0006 H   0  0  0  0  0  0  0  0  0  0  0  0
    1.2029   -0.6964    0.0000 C   0  0  0  0  0  0  0  0  0  0  0  0
    2.0852   -1.1915    0.0017 H   0  0  0  0  0  0  0  0  0  0  0  0
    1.1955    0.6963   -0.0004 C   0  0  0  0  0  0  0  0  0  0  0  0
    2.0636    1.1928   -0.0019 H   0  0  0  0  0  0  0  0  0  0  0  0
  1  5  1  0
  5  8  1  0
  1  2  1  0
  1  3  1  0
  1  4  1  0
  5  6  1  0
  5  7  1  0
  8  9  1  0
  8 10  1  0
  8 11  1  0
 12 16  1  0
 16 17  2  0
 17 19  1  0
 19 21  2  0
 21 23  1  0
 23 25  2  0
 25 16  1  0
 12 13  1  0
 12 14  1  0
 12 15  1  0
 17 18  1  0
 19 20  1  0
 21 22  1  0
 23 24  1  0
 25 26  1  0
M  CHG  1   8   1
M  END
>  <PDB_ID>  (1294) 
pdb1u2z

>  <RESIDUE_NAME>  (1294) 
LYS   PHE

>  <FRAG_NAME>  (1294) 
ETAM   MBZ

>  <FRAG_ATOM_NUM>  (1294) 
fragi: 11  fragj: 15

>  <atom.prop.CHAIN_ID>  (1294) 
A A A A A A A A A A A Z Z Z Z Z Z Z Z Z Z Z Z Z Z Z

>  <atom.prop.IS_HEAVY_ATOM>  (1294) 
1 0 0 0 1 0 0 1 0 0 0 1 0 0 0 1 1 0 1 0 1 0 1 0 1 0

>  <DIFUSE_FUNC_ATOM>  (1294) 
n/a

>  <FINAL_SINGLE_POINT_ENERGY>  (1294) 
0

>  <NONCOV_INTER_ENERGY_QM>  (1294) 
0

>  <FF_Energy>  (1294) 
2.22

>  <QM_Energy>  (1294) 
-2.88

>  <source>  (1294) 
ETAM_MBZ

>  <Index>  (1294) 
12962

$$$$
ETAM-pdb2zqz-F-LYS-244:MBZ-pdb2zqz-F-PHE-248
     RDKit          3D

 26 25  0  0  0  0  0  0  0  0999 V2000
   -2.7221   -2.6129   -4.4998 C   0  0  0  0  0  0  0  0  0  0  0  0
   -2.2810   -3.3932   -4.9330 H   0  0  0  0  0  0  0  0  0  0  0  0
   -2.5132   -1.7788   -5.0006 H   0  0  0  0  0  0  0  0  0  0  0  0
   -3.8008   -2.7690   -4.5116 H   0  0  0  0  0  0  0  0  0  0  0  0
   -2.2004   -2.4785   -3.0892 C   0  0  0  0  0  0  0  0  0  0  0  0
   -2.7595   -1.8118   -2.5922 H   0  0  0  0  0  0  0  0  0  0  0  0
   -2.2630   -3.3662   -2.6278 H   0  0  0  0  0  0  0  0  0  0  0  0
   -0.7815   -2.0256   -3.0783 N   0  0  0  0  0  4  0  0  0  0  0  0
   -0.6319   -1.3889   -3.8334 H   0  0  0  0  0  0  0  0  0  0  0  0
   -0.5861   -1.5692   -2.2111 H   0  0  0  0  0  0  0  0  0  0  0  0
   -0.1799   -2.8171   -3.1832 H   0  0  0  0  0  0  0  0  0  0  0  0
   -0.0033    2.9138    0.0317 C   0  0  0  0  0  0  0  0  0  0  0  0
    0.8028    3.2127    0.5226 H   0  0  0  0  0  0  0  0  0  0  0  0
   -0.8302    3.2096    0.4883 H   0  0  0  0  0  0  0  0  0  0  0  0
    0.0163    3.3823   -0.9523 H   0  0  0  0  0  0  0  0  0  0  0  0
    0.0007    1.4105    0.0008 C   0  0  0  0  0  0  0  0  0  0  0  0
   -1.2016    0.6964   -0.0018 C   0  0  0  0  0  0  0  0  0  0  0  0
   -2.0673    1.1851   -0.0064 H   0  0  0  0  0  0  0  0  0  0  0  0
   -1.2078   -0.7037   -0.0000 C   0  0  0  0  0  0  0  0  0  0  0  0
   -2.0830   -1.1945    0.0010 H   0  0  0  0  0  0  0  0  0  0  0  0
   -0.0011   -1.4037    0.0019 C   0  0  0  0  0  0  0  0  0  0  0  0
   -0.0033   -2.3992    0.0035 H   0  0  0  0  0  0  0  0  0  0  0  0
    1.2078   -0.7013   -0.0000 C   0  0  0  0  0  0  0  0  0  0  0  0
    2.0872   -1.1953    0.0011 H   0  0  0  0  0  0  0  0  0  0  0  0
    1.2019    0.7019   -0.0008 C   0  0  0  0  0  0  0  0  0  0  0  0
    2.0693    1.1948   -0.0033 H   0  0  0  0  0  0  0  0  0  0  0  0
  1  5  1  0
  5  8  1  0
  1  2  1  0
  1  3  1  0
  1  4  1  0
  5  6  1  0
  5  7  1  0
  8  9  1  0
  8 10  1  0
  8 11  1  0
 12 16  1  0
 16 17  2  0
 17 19  1  0
 19 21  2  0
 21 23  1  0
 23 25  2  0
 25 16  1  0
 12 13  1  0
 12 14  1  0
 12 15  1  0
 17 18  1  0
 19 20  1  0
 21 22  1  0
 23 24  1  0
 25 26  1  0
M  CHG  1   8   1
M  END
>  <PDB_ID>  (1295) 
pdb2zqz

>  <RESIDUE_NAME>  (1295) 
LYS   PHE

>  <FRAG_NAME>  (1295) 
ETAM   MBZ

>  <FRAG_ATOM_NUM>  (1295) 
fragi: 11  fragj: 15

>  <atom.prop.CHAIN_ID>  (1295) 
A A A A A A A A A A A Z Z Z Z Z Z Z Z Z Z Z Z Z Z Z

>  <atom.prop.IS_HEAVY_ATOM>  (1295) 
1 0 0 0 1 0 0 1 0 0 0 1 0 0 0 1 1 0 1 0 1 0 1 0 1 0

>  <DIFUSE_FUNC_ATOM>  (1295) 
n/a

>  <FINAL_SINGLE_POINT_ENERGY>  (1295) 
0

>  <NONCOV_INTER_ENERGY_QM>  (1295) 
0

>  <FF_Energy>  (1295) 
-5.36

>  <QM_Energy>  (1295) 
-13.71

>  <source>  (1295) 
ETAM_MBZ

>  <Index>  (1295) 
12968

$$$$
ETAM-pdb1u8w-F-LYS-27:MBZ-pdb1u8w-D-PHE-105
     RDKit          3D

 26 25  0  0  0  0  0  0  0  0999 V2000
    4.5348   -0.9858   -0.3646 C   0  0  0  0  0  0  0  0  0  0  0  0
    3.6250   -0.6233   -0.5411 H   0  0  0  0  0  0  0  0  0  0  0  0
    5.2228   -0.2845   -0.5217 H   0  0  0  0  0  0  0  0  0  0  0  0
    4.5865   -1.2936    0.6798 H   0  0  0  0  0  0  0  0  0  0  0  0
    4.7928   -2.1480   -1.3283 C   0  0  0  0  0  0  0  0  0  0  0  0
    4.0953   -2.8576   -1.1749 H   0  0  0  0  0  0  0  0  0  0  0  0
    4.6994   -1.8132   -2.2737 H   0  0  0  0  0  0  0  0  0  0  0  0
    6.1571   -2.7676   -1.1681 N   0  0  0  0  0  4  0  0  0  0  0  0
    6.5512   -2.4605   -0.3055 H   0  0  0  0  0  0  0  0  0  0  0  0
    6.0627   -3.7596   -1.1674 H   0  0  0  0  0  0  0  0  0  0  0  0
    6.7330   -2.4795   -1.9284 H   0  0  0  0  0  0  0  0  0  0  0  0
   -0.0031    2.8950   -0.0123 C   0  0  0  0  0  0  0  0  0  0  0  0
   -0.8960    3.2013   -0.3114 H   0  0  0  0  0  0  0  0  0  0  0  0
    0.7058    3.2050   -0.6302 H   0  0  0  0  0  0  0  0  0  0  0  0
    0.1893    3.3462    0.9611 H   0  0  0  0  0  0  0  0  0  0  0  0
    0.0024    1.4037   -0.0002 C   0  0  0  0  0  0  0  0  0  0  0  0
   -1.1965    0.6916   -0.0003 C   0  0  0  0  0  0  0  0  0  0  0  0
   -2.0630    1.1838   -0.0020 H   0  0  0  0  0  0  0  0  0  0  0  0
   -1.2071   -0.7023    0.0000 C   0  0  0  0  0  0  0  0  0  0  0  0
   -2.0844   -1.1918    0.0023 H   0  0  0  0  0  0  0  0  0  0  0  0
   -0.0065   -1.4006   -0.0015 C   0  0  0  0  0  0  0  0  0  0  0  0
   -0.0028   -2.3953   -0.0042 H   0  0  0  0  0  0  0  0  0  0  0  0
    1.2071   -0.6947   -0.0000 C   0  0  0  0  0  0  0  0  0  0  0  0
    2.0833   -1.1933    0.0006 H   0  0  0  0  0  0  0  0  0  0  0  0
    1.2006    0.7023    0.0020 C   0  0  0  0  0  0  0  0  0  0  0  0
    2.0675    1.1966    0.0040 H   0  0  0  0  0  0  0  0  0  0  0  0
  1  5  1  0
  5  8  1  0
  1  2  1  0
  1  3  1  0
  1  4  1  0
  5  6  1  0
  5  7  1  0
  8  9  1  0
  8 10  1  0
  8 11  1  0
 12 16  1  0
 16 17  2  0
 17 19  1  0
 19 21  2  0
 21 23  1  0
 23 25  2  0
 25 16  1  0
 12 13  1  0
 12 14  1  0
 12 15  1  0
 17 18  1  0
 19 20  1  0
 21 22  1  0
 23 24  1  0
 25 26  1  0
M  CHG  1   8   1
M  END
>  <PDB_ID>  (1296) 
pdb1u8w

>  <RESIDUE_NAME>  (1296) 
LYS   PHE

>  <FRAG_NAME>  (1296) 
ETAM   MBZ

>  <FRAG_ATOM_NUM>  (1296) 
fragi: 11  fragj: 15

>  <atom.prop.CHAIN_ID>  (1296) 
A A A A A A A A A A A Z Z Z Z Z Z Z Z Z Z Z Z Z Z Z

>  <atom.prop.IS_HEAVY_ATOM>  (1296) 
1 0 0 0 1 0 0 1 0 0 0 1 0 0 0 1 1 0 1 0 1 0 1 0 1 0

>  <DIFUSE_FUNC_ATOM>  (1296) 
n/a

>  <FINAL_SINGLE_POINT_ENERGY>  (1296) 
0

>  <NONCOV_INTER_ENERGY_QM>  (1296) 
0

>  <FF_Energy>  (1296) 
7.28

>  <QM_Energy>  (1296) 
0.35

>  <source>  (1296) 
ETAM_MBZ

>  <Index>  (1296) 
12989

$$$$
ETAM-pdb1u9k-A-LYS-53:MBZ-pdb1u9k-A-PHE-43
     RDKit          3D

 26 25  0  0  0  0  0  0  0  0999 V2000
    0.7804   -0.4108   -4.6407 C   0  0  0  0  0  0  0  0  0  0  0  0
    0.5603   -0.9395   -5.4648 H   0  0  0  0  0  0  0  0  0  0  0  0
    1.4975   -0.8909   -4.1285 H   0  0  0  0  0  0  0  0  0  0  0  0
    1.1217    0.5869   -4.9166 H   0  0  0  0  0  0  0  0  0  0  0  0
   -0.4786   -0.3921   -3.7579 C   0  0  0  0  0  0  0  0  0  0  0  0
   -0.1948   -0.1545   -2.8265 H   0  0  0  0  0  0  0  0  0  0  0  0
   -1.0859    0.3252   -4.1069 H   0  0  0  0  0  0  0  0  0  0  0  0
   -1.1338   -1.6734   -3.7821 N   0  0  0  0  0  4  0  0  0  0  0  0
   -0.6314   -2.3193   -4.3708 H   0  0  0  0  0  0  0  0  0  0  0  0
   -1.1830   -2.0653   -2.8549 H   0  0  0  0  0  0  0  0  0  0  0  0
   -2.0729   -1.5868   -4.1380 H   0  0  0  0  0  0  0  0  0  0  0  0
    0.0096    2.8908    0.0003 C   0  0  0  0  0  0  0  0  0  0  0  0
   -0.8029    3.1874   -0.4879 H   0  0  0  0  0  0  0  0  0  0  0  0
    0.8293    3.1862   -0.4767 H   0  0  0  0  0  0  0  0  0  0  0  0
    0.0036    3.3598    0.9842 H   0  0  0  0  0  0  0  0  0  0  0  0
    0.0080    1.3804    0.0130 C   0  0  0  0  0  0  0  0  0  0  0  0
   -1.1766    0.7012   -0.0092 C   0  0  0  0  0  0  0  0  0  0  0  0
   -2.0441    1.1942   -0.0333 H   0  0  0  0  0  0  0  0  0  0  0  0
   -1.1917   -0.6832    0.0000 C   0  0  0  0  0  0  0  0  0  0  0  0
   -2.0841   -1.1632    0.0024 H   0  0  0  0  0  0  0  0  0  0  0  0
   -0.0223   -1.3756    0.0074 C   0  0  0  0  0  0  0  0  0  0  0  0
   -0.0212   -2.3807    0.0178 H   0  0  0  0  0  0  0  0  0  0  0  0
    1.1917   -0.6931   -0.0000 C   0  0  0  0  0  0  0  0  0  0  0  0
    2.0612   -1.2112    0.0043 H   0  0  0  0  0  0  0  0  0  0  0  0
    1.1910    0.6703   -0.0112 C   0  0  0  0  0  0  0  0  0  0  0  0
    2.0641    1.1737   -0.0386 H   0  0  0  0  0  0  0  0  0  0  0  0
  1  5  1  0
  5  8  1  0
  1  2  1  0
  1  3  1  0
  1  4  1  0
  5  6  1  0
  5  7  1  0
  8  9  1  0
  8 10  1  0
  8 11  1  0
 12 16  1  0
 16 17  2  0
 17 19  1  0
 19 21  2  0
 21 23  1  0
 23 25  2  0
 25 16  1  0
 12 13  1  0
 12 14  1  0
 12 15  1  0
 17 18  1  0
 19 20  1  0
 21 22  1  0
 23 24  1  0
 25 26  1  0
M  CHG  1   8   1
M  END
>  <PDB_ID>  (1297) 
pdb1u9k

>  <RESIDUE_NAME>  (1297) 
LYS   PHE

>  <FRAG_NAME>  (1297) 
ETAM   MBZ

>  <FRAG_ATOM_NUM>  (1297) 
fragi: 11  fragj: 15

>  <atom.prop.CHAIN_ID>  (1297) 
A A A A A A A A A A A Z Z Z Z Z Z Z Z Z Z Z Z Z Z Z

>  <atom.prop.IS_HEAVY_ATOM>  (1297) 
1 0 0 0 1 0 0 1 0 0 0 1 0 0 0 1 1 0 1 0 1 0 1 0 1 0

>  <DIFUSE_FUNC_ATOM>  (1297) 
n/a

>  <FINAL_SINGLE_POINT_ENERGY>  (1297) 
0

>  <NONCOV_INTER_ENERGY_QM>  (1297) 
0

>  <FF_Energy>  (1297) 
-5.23

>  <QM_Energy>  (1297) 
-10.55

>  <source>  (1297) 
ETAM_MBZ

>  <Index>  (1297) 
12997

$$$$
ETAM-pdb2zyg-B-LYS-458:MBZ-pdb2zyg-B-PHE-462
     RDKit          3D

 26 25  0  0  0  0  0  0  0  0999 V2000
    0.8845   -4.2189   -4.2691 C   0  0  0  0  0  0  0  0  0  0  0  0
    1.3250   -5.0033   -3.8413 H   0  0  0  0  0  0  0  0  0  0  0  0
    1.1786   -4.1334   -5.2167 H   0  0  0  0  0  0  0  0  0  0  0  0
   -0.1921   -4.3894   -4.2616 H   0  0  0  0  0  0  0  0  0  0  0  0
    1.2613   -2.9662   -3.5171 C   0  0  0  0  0  0  0  0  0  0  0  0
    2.2409   -2.9745   -3.3306 H   0  0  0  0  0  0  0  0  0  0  0  0
    1.0260   -2.1683   -4.0661 H   0  0  0  0  0  0  0  0  0  0  0  0
    0.5199   -2.9087   -2.2287 N   0  0  0  0  0  4  0  0  0  0  0  0
    0.7521   -2.0623   -1.7498 H   0  0  0  0  0  0  0  0  0  0  0  0
   -0.4635   -2.9314   -2.4106 H   0  0  0  0  0  0  0  0  0  0  0  0
    0.7736   -3.6934   -1.6644 H   0  0  0  0  0  0  0  0  0  0  0  0
   -0.0020    2.8930    0.0815 C   0  0  0  0  0  0  0  0  0  0  0  0
   -0.7708    3.2293   -0.4416 H   0  0  0  0  0  0  0  0  0  0  0  0
    0.8547    3.2242   -0.2842 H   0  0  0  0  0  0  0  0  0  0  0  0
   -0.0989    3.2703    1.0996 H   0  0  0  0  0  0  0  0  0  0  0  0
    0.0009    1.4037    0.0009 C   0  0  0  0  0  0  0  0  0  0  0  0
   -1.1969    0.6891   -0.0015 C   0  0  0  0  0  0  0  0  0  0  0  0
   -2.0640    1.1789   -0.0055 H   0  0  0  0  0  0  0  0  0  0  0  0
   -1.2016   -0.7028    0.0000 C   0  0  0  0  0  0  0  0  0  0  0  0
   -2.0756   -1.1976    0.0007 H   0  0  0  0  0  0  0  0  0  0  0  0
    0.0043   -1.3985    0.0030 C   0  0  0  0  0  0  0  0  0  0  0  0
    0.0041   -2.3939    0.0068 H   0  0  0  0  0  0  0  0  0  0  0  0
    1.2016   -0.6926    0.0000 C   0  0  0  0  0  0  0  0  0  0  0  0
    2.0867   -1.1849    0.0015 H   0  0  0  0  0  0  0  0  0  0  0  0
    1.1917    0.7011   -0.0025 C   0  0  0  0  0  0  0  0  0  0  0  0
    2.0628    1.1961   -0.0077 H   0  0  0  0  0  0  0  0  0  0  0  0
  1  5  1  0
  5  8  1  0
  1  2  1  0
  1  3  1  0
  1  4  1  0
  5  6  1  0
  5  7  1  0
  8  9  1  0
  8 10  1  0
  8 11  1  0
 12 16  1  0
 16 17  2  0
 17 19  1  0
 19 21  2  0
 21 23  1  0
 23 25  2  0
 25 16  1  0
 12 13  1  0
 12 14  1  0
 12 15  1  0
 17 18  1  0
 19 20  1  0
 21 22  1  0
 23 24  1  0
 25 26  1  0
M  CHG  1   8   1
M  END
>  <PDB_ID>  (1298) 
pdb2zyg

>  <RESIDUE_NAME>  (1298) 
LYS   PHE

>  <FRAG_NAME>  (1298) 
ETAM   MBZ

>  <FRAG_ATOM_NUM>  (1298) 
fragi: 11  fragj: 15

>  <atom.prop.CHAIN_ID>  (1298) 
A A A A A A A A A A A Z Z Z Z Z Z Z Z Z Z Z Z Z Z Z

>  <atom.prop.IS_HEAVY_ATOM>  (1298) 
1 0 0 0 1 0 0 1 0 0 0 1 0 0 0 1 1 0 1 0 1 0 1 0 1 0

>  <DIFUSE_FUNC_ATOM>  (1298) 
n/a

>  <FINAL_SINGLE_POINT_ENERGY>  (1298) 
0

>  <NONCOV_INTER_ENERGY_QM>  (1298) 
0

>  <FF_Energy>  (1298) 
4.0

>  <QM_Energy>  (1298) 
-6.85

>  <source>  (1298) 
ETAM_MBZ

>  <Index>  (1298) 
12999

$$$$
ETAM-pdb1u9t-A-LYS-200:MBZ-pdb1u9t-A-PHE-196
     RDKit          3D

 26 25  0  0  0  0  0  0  0  0999 V2000
   -1.9674   -2.2763   -2.7086 C   0  0  0  0  0  0  0  0  0  0  0  0
   -1.4169   -2.3964   -3.5248 H   0  0  0  0  0  0  0  0  0  0  0  0
   -1.6294   -1.5205   -2.1626 H   0  0  0  0  0  0  0  0  0  0  0  0
   -2.9980   -2.0740   -3.0000 H   0  0  0  0  0  0  0  0  0  0  0  0
   -1.8900   -3.5445   -1.8810 C   0  0  0  0  0  0  0  0  0  0  0  0
   -2.2516   -4.3096   -2.4194 H   0  0  0  0  0  0  0  0  0  0  0  0
   -0.9312   -3.7298   -1.6536 H   0  0  0  0  0  0  0  0  0  0  0  0
   -2.6740   -3.4231   -0.6196 N   0  0  0  0  0  4  0  0  0  0  0  0
   -2.5053   -4.2252   -0.0477 H   0  0  0  0  0  0  0  0  0  0  0  0
   -2.3904   -2.5981   -0.1326 H   0  0  0  0  0  0  0  0  0  0  0  0
   -3.6469   -3.3663   -0.8398 H   0  0  0  0  0  0  0  0  0  0  0  0
    0.0003    2.9126   -0.0342 C   0  0  0  0  0  0  0  0  0  0  0  0
    0.8811    3.2253    0.2925 H   0  0  0  0  0  0  0  0  0  0  0  0
   -0.7319    3.2333    0.5496 H   0  0  0  0  0  0  0  0  0  0  0  0
   -0.1560    3.3356   -1.0266 H   0  0  0  0  0  0  0  0  0  0  0  0
   -0.0011    1.4095    0.0000 C   0  0  0  0  0  0  0  0  0  0  0  0
   -1.1990    0.6969    0.0006 C   0  0  0  0  0  0  0  0  0  0  0  0
   -2.0661    1.1854   -0.0002 H   0  0  0  0  0  0  0  0  0  0  0  0
   -1.2027   -0.6980    0.0000 C   0  0  0  0  0  0  0  0  0  0  0  0
   -2.0800   -1.1909    0.0017 H   0  0  0  0  0  0  0  0  0  0  0  0
    0.0010   -1.3994   -0.0015 C   0  0  0  0  0  0  0  0  0  0  0  0
   -0.0078   -2.3976   -0.0044 H   0  0  0  0  0  0  0  0  0  0  0  0
    1.2027   -0.7067   -0.0000 C   0  0  0  0  0  0  0  0  0  0  0  0
    2.0837   -1.1983    0.0017 H   0  0  0  0  0  0  0  0  0  0  0  0
    1.1992    0.6977    0.0008 C   0  0  0  0  0  0  0  0  0  0  0  0
    2.0668    1.1885    0.0007 H   0  0  0  0  0  0  0  0  0  0  0  0
  1  5  1  0
  5  8  1  0
  1  2  1  0
  1  3  1  0
  1  4  1  0
  5  6  1  0
  5  7  1  0
  8  9  1  0
  8 10  1  0
  8 11  1  0
 12 16  1  0
 16 17  2  0
 17 19  1  0
 19 21  2  0
 21 23  1  0
 23 25  2  0
 25 16  1  0
 12 13  1  0
 12 14  1  0
 12 15  1  0
 17 18  1  0
 19 20  1  0
 21 22  1  0
 23 24  1  0
 25 26  1  0
M  CHG  1   8   1
M  END
>  <PDB_ID>  (1299) 
pdb1u9t

>  <RESIDUE_NAME>  (1299) 
LYS   PHE

>  <FRAG_NAME>  (1299) 
ETAM   MBZ

>  <FRAG_ATOM_NUM>  (1299) 
fragi: 11  fragj: 15

>  <atom.prop.CHAIN_ID>  (1299) 
A A A A A A A A A A A Z Z Z Z Z Z Z Z Z Z Z Z Z Z Z

>  <atom.prop.IS_HEAVY_ATOM>  (1299) 
1 0 0 0 1 0 0 1 0 0 0 1 0 0 0 1 1 0 1 0 1 0 1 0 1 0

>  <DIFUSE_FUNC_ATOM>  (1299) 
n/a

>  <FINAL_SINGLE_POINT_ENERGY>  (1299) 
0

>  <NONCOV_INTER_ENERGY_QM>  (1299) 
0

>  <FF_Energy>  (1299) 
6.84

>  <QM_Energy>  (1299) 
-1.57

>  <source>  (1299) 
ETAM_MBZ

>  <Index>  (1299) 
13002

$$$$
ETAM-pdb1ua4-A-LYS-53:MBZ-pdb1ua4-A-PHE-188
     RDKit          3D

 26 25  0  0  0  0  0  0  0  0999 V2000
    1.1924   -1.7450    3.8293 C   0  0  0  0  0  0  0  0  0  0  0  0
    1.0629   -2.1747    2.9427 H   0  0  0  0  0  0  0  0  0  0  0  0
    0.5023   -2.0585    4.4719 H   0  0  0  0  0  0  0  0  0  0  0  0
    2.1799   -2.0056    4.2102 H   0  0  0  0  0  0  0  0  0  0  0  0
    1.0575   -0.2478    3.6660 C   0  0  0  0  0  0  0  0  0  0  0  0
    1.1629    0.1897    4.5592 H   0  0  0  0  0  0  0  0  0  0  0  0
    1.7727    0.0795    3.0484 H   0  0  0  0  0  0  0  0  0  0  0  0
   -0.2690    0.0963    3.1056 N   0  0  0  0  0  4  0  0  0  0  0  0
   -0.9873   -0.2281    3.7218 H   0  0  0  0  0  0  0  0  0  0  0  0
   -0.3426    1.0892    3.0032 H   0  0  0  0  0  0  0  0  0  0  0  0
   -0.3784   -0.3385    2.2113 H   0  0  0  0  0  0  0  0  0  0  0  0
   -0.0054    2.9111   -0.0490 C   0  0  0  0  0  0  0  0  0  0  0  0
    0.9300    3.2205   -0.0374 H   0  0  0  0  0  0  0  0  0  0  0  0
   -0.5104    3.2404    0.7304 H   0  0  0  0  0  0  0  0  0  0  0  0
   -0.4780    3.3128   -0.9454 H   0  0  0  0  0  0  0  0  0  0  0  0
   -0.0005    1.4054   -0.0009 C   0  0  0  0  0  0  0  0  0  0  0  0
   -1.1981    0.6942    0.0011 C   0  0  0  0  0  0  0  0  0  0  0  0
   -2.0657    1.1842    0.0021 H   0  0  0  0  0  0  0  0  0  0  0  0
   -1.2045   -0.6997    0.0000 C   0  0  0  0  0  0  0  0  0  0  0  0
   -2.0791   -1.1924    0.0017 H   0  0  0  0  0  0  0  0  0  0  0  0
    0.0006   -1.3979   -0.0013 C   0  0  0  0  0  0  0  0  0  0  0  0
   -0.0041   -2.3951   -0.0035 H   0  0  0  0  0  0  0  0  0  0  0  0
    1.2045   -0.7004   -0.0000 C   0  0  0  0  0  0  0  0  0  0  0  0
    2.0849   -1.1940    0.0017 H   0  0  0  0  0  0  0  0  0  0  0  0
    1.1980    0.6985    0.0011 C   0  0  0  0  0  0  0  0  0  0  0  0
    2.0654    1.1924    0.0023 H   0  0  0  0  0  0  0  0  0  0  0  0
  1  5  1  0
  5  8  1  0
  1  2  1  0
  1  3  1  0
  1  4  1  0
  5  6  1  0
  5  7  1  0
  8  9  1  0
  8 10  1  0
  8 11  1  0
 12 16  1  0
 16 17  2  0
 17 19  1  0
 19 21  2  0
 21 23  1  0
 23 25  2  0
 25 16  1  0
 12 13  1  0
 12 14  1  0
 12 15  1  0
 17 18  1  0
 19 20  1  0
 21 22  1  0
 23 24  1  0
 25 26  1  0
M  CHG  1   8   1
M  END
>  <PDB_ID>  (1300) 
pdb1ua4

>  <RESIDUE_NAME>  (1300) 
LYS   PHE

>  <FRAG_NAME>  (1300) 
ETAM   MBZ

>  <FRAG_ATOM_NUM>  (1300) 
fragi: 11  fragj: 15

>  <atom.prop.CHAIN_ID>  (1300) 
A A A A A A A A A A A Z Z Z Z Z Z Z Z Z Z Z Z Z Z Z

>  <atom.prop.IS_HEAVY_ATOM>  (1300) 
1 0 0 0 1 0 0 1 0 0 0 1 0 0 0 1 1 0 1 0 1 0 1 0 1 0

>  <DIFUSE_FUNC_ATOM>  (1300) 
n/a

>  <FINAL_SINGLE_POINT_ENERGY>  (1300) 
0

>  <NONCOV_INTER_ENERGY_QM>  (1300) 
0

>  <FF_Energy>  (1300) 
-10.31

>  <QM_Energy>  (1300) 
-18.5

>  <source>  (1300) 
ETAM_MBZ

>  <Index>  (1300) 
13004

$$$$
ETAM-pdb1uax-B-LYS-185:MBZ-pdb1uax-B-PHE-208
     RDKit          3D

 26 25  0  0  0  0  0  0  0  0999 V2000
    3.9161   -1.7543   -0.9551 C   0  0  0  0  0  0  0  0  0  0  0  0
    3.3794   -2.0086   -0.1536 H   0  0  0  0  0  0  0  0  0  0  0  0
    3.9846   -2.5292   -1.5783 H   0  0  0  0  0  0  0  0  0  0  0  0
    3.4161   -0.9324   -1.4675 H   0  0  0  0  0  0  0  0  0  0  0  0
    5.3161   -1.3752   -0.4991 C   0  0  0  0  0  0  0  0  0  0  0  0
    5.8594   -1.1147   -1.2955 H   0  0  0  0  0  0  0  0  0  0  0  0
    5.2561   -0.6035    0.1326 H   0  0  0  0  0  0  0  0  0  0  0  0
    5.9778   -2.5213    0.1908 N   0  0  0  0  0  4  0  0  0  0  0  0
    5.3333   -3.2809    0.2601 H   0  0  0  0  0  0  0  0  0  0  0  0
    6.7781   -2.8057   -0.3356 H   0  0  0  0  0  0  0  0  0  0  0  0
    6.2611   -2.2365    1.1053 H   0  0  0  0  0  0  0  0  0  0  0  0
   -0.0072    2.8950   -0.0253 C   0  0  0  0  0  0  0  0  0  0  0  0
   -0.8164    3.1895   -0.5430 H   0  0  0  0  0  0  0  0  0  0  0  0
    0.8172    3.2003   -0.5115 H   0  0  0  0  0  0  0  0  0  0  0  0
   -0.0290    3.4036    0.9385 H   0  0  0  0  0  0  0  0  0  0  0  0
    0.0021    1.3981   -0.0074 C   0  0  0  0  0  0  0  0  0  0  0  0
   -1.1985    0.6930   -0.0088 C   0  0  0  0  0  0  0  0  0  0  0  0
   -2.0628    1.1949   -0.0180 H   0  0  0  0  0  0  0  0  0  0  0  0
   -1.2192   -0.6918   -0.0000 C   0  0  0  0  0  0  0  0  0  0  0  0
   -2.0886   -1.1843   -0.0114 H   0  0  0  0  0  0  0  0  0  0  0  0
   -0.0068   -1.3901    0.0255 C   0  0  0  0  0  0  0  0  0  0  0  0
   -0.0124   -2.3901    0.0617 H   0  0  0  0  0  0  0  0  0  0  0  0
    1.2192   -0.7013   -0.0000 C   0  0  0  0  0  0  0  0  0  0  0  0
    2.0843   -1.2021   -0.0093 H   0  0  0  0  0  0  0  0  0  0  0  0
    1.2032    0.6921   -0.0094 C   0  0  0  0  0  0  0  0  0  0  0  0
    2.0698    1.1941   -0.0188 H   0  0  0  0  0  0  0  0  0  0  0  0
  1  5  1  0
  5  8  1  0
  1  2  1  0
  1  3  1  0
  1  4  1  0
  5  6  1  0
  5  7  1  0
  8  9  1  0
  8 10  1  0
  8 11  1  0
 12 16  1  0
 16 17  2  0
 17 19  1  0
 19 21  2  0
 21 23  1  0
 23 25  2  0
 25 16  1  0
 12 13  1  0
 12 14  1  0
 12 15  1  0
 17 18  1  0
 19 20  1  0
 21 22  1  0
 23 24  1  0
 25 26  1  0
M  CHG  1   8   1
M  END
>  <PDB_ID>  (1301) 
pdb1uax

>  <RESIDUE_NAME>  (1301) 
LYS   PHE

>  <FRAG_NAME>  (1301) 
ETAM   MBZ

>  <FRAG_ATOM_NUM>  (1301) 
fragi: 11  fragj: 15

>  <atom.prop.CHAIN_ID>  (1301) 
A A A A A A A A A A A Z Z Z Z Z Z Z Z Z Z Z Z Z Z Z

>  <atom.prop.IS_HEAVY_ATOM>  (1301) 
1 0 0 0 1 0 0 1 0 0 0 1 0 0 0 1 1 0 1 0 1 0 1 0 1 0

>  <DIFUSE_FUNC_ATOM>  (1301) 
n/a

>  <FINAL_SINGLE_POINT_ENERGY>  (1301) 
0

>  <NONCOV_INTER_ENERGY_QM>  (1301) 
0

>  <FF_Energy>  (1301) 
36.35

>  <QM_Energy>  (1301) 
5.95

>  <source>  (1301) 
ETAM_MBZ

>  <Index>  (1301) 
13014

$$$$
ETAM-pdb1uc8-A-LYS-174:MBZ-pdb1uc8-A-PHE-239
     RDKit          3D

 26 25  0  0  0  0  0  0  0  0999 V2000
    1.1438    0.8090   -4.5461 C   0  0  0  0  0  0  0  0  0  0  0  0
    1.4005    0.3063   -5.3705 H   0  0  0  0  0  0  0  0  0  0  0  0
    1.9474    1.2603   -4.1621 H   0  0  0  0  0  0  0  0  0  0  0  0
    0.4061    1.5667   -4.8110 H   0  0  0  0  0  0  0  0  0  0  0  0
    0.6102   -0.1787   -3.5250 C   0  0  0  0  0  0  0  0  0  0  0  0
    0.3033    0.3188   -2.7173 H   0  0  0  0  0  0  0  0  0  0  0  0
   -0.1536   -0.6818   -3.9239 H   0  0  0  0  0  0  0  0  0  0  0  0
    1.6782   -1.1432   -3.1285 N   0  0  0  0  0  4  0  0  0  0  0  0
    2.4404   -0.6414   -2.7208 H   0  0  0  0  0  0  0  0  0  0  0  0
    1.3072   -1.7909   -2.4643 H   0  0  0  0  0  0  0  0  0  0  0  0
    1.9942   -1.6355   -3.9381 H   0  0  0  0  0  0  0  0  0  0  0  0
   -0.0123    2.9069   -0.0032 C   0  0  0  0  0  0  0  0  0  0  0  0
   -0.6199    3.2095    0.7197 H   0  0  0  0  0  0  0  0  0  0  0  0
   -0.3404    3.2101   -0.8888 H   0  0  0  0  0  0  0  0  0  0  0  0
    0.9579    3.3740    0.1656 H   0  0  0  0  0  0  0  0  0  0  0  0
    0.0032    1.4045   -0.0005 C   0  0  0  0  0  0  0  0  0  0  0  0
   -1.1974    0.6976   -0.0003 C   0  0  0  0  0  0  0  0  0  0  0  0
   -2.0624    1.1882   -0.0014 H   0  0  0  0  0  0  0  0  0  0  0  0
   -1.2044   -0.6971   -0.0000 C   0  0  0  0  0  0  0  0  0  0  0  0
   -2.0836   -1.1863    0.0011 H   0  0  0  0  0  0  0  0  0  0  0  0
   -0.0064   -1.3978    0.0011 C   0  0  0  0  0  0  0  0  0  0  0  0
   -0.0096   -2.3954    0.0025 H   0  0  0  0  0  0  0  0  0  0  0  0
    1.2044   -0.7017    0.0000 C   0  0  0  0  0  0  0  0  0  0  0  0
    2.0812   -1.2008    0.0011 H   0  0  0  0  0  0  0  0  0  0  0  0
    1.2005    0.6944   -0.0003 C   0  0  0  0  0  0  0  0  0  0  0  0
    2.0692    1.1882   -0.0010 H   0  0  0  0  0  0  0  0  0  0  0  0
  1  5  1  0
  5  8  1  0
  1  2  1  0
  1  3  1  0
  1  4  1  0
  5  6  1  0
  5  7  1  0
  8  9  1  0
  8 10  1  0
  8 11  1  0
 12 16  1  0
 16 17  2  0
 17 19  1  0
 19 21  2  0
 21 23  1  0
 23 25  2  0
 25 16  1  0
 12 13  1  0
 12 14  1  0
 12 15  1  0
 17 18  1  0
 19 20  1  0
 21 22  1  0
 23 24  1  0
 25 26  1  0
M  CHG  1   8   1
M  END
>  <PDB_ID>  (1302) 
pdb1uc8

>  <RESIDUE_NAME>  (1302) 
LYS   PHE

>  <FRAG_NAME>  (1302) 
ETAM   MBZ

>  <FRAG_ATOM_NUM>  (1302) 
fragi: 11  fragj: 15

>  <atom.prop.CHAIN_ID>  (1302) 
A A A A A A A A A A A Z Z Z Z Z Z Z Z Z Z Z Z Z Z Z

>  <atom.prop.IS_HEAVY_ATOM>  (1302) 
1 0 0 0 1 0 0 1 0 0 0 1 0 0 0 1 1 0 1 0 1 0 1 0 1 0

>  <DIFUSE_FUNC_ATOM>  (1302) 
n/a

>  <FINAL_SINGLE_POINT_ENERGY>  (1302) 
0

>  <NONCOV_INTER_ENERGY_QM>  (1302) 
0

>  <FF_Energy>  (1302) 
-5.78

>  <QM_Energy>  (1302) 
-13.25

>  <source>  (1302) 
ETAM_MBZ

>  <Index>  (1302) 
13039

$$$$
ETAM-pdb1ufo-A-LYS-193:MBZ-pdb1ufo-A-PHE-140
     RDKit          3D

 26 25  0  0  0  0  0  0  0  0999 V2000
   -1.1052    0.0792   -4.0121 C   0  0  0  0  0  0  0  0  0  0  0  0
   -0.9865    0.0972   -5.0202 H   0  0  0  0  0  0  0  0  0  0  0  0
   -1.5758    0.9393   -3.7517 H   0  0  0  0  0  0  0  0  0  0  0  0
   -1.7522   -0.7599   -3.7566 H   0  0  0  0  0  0  0  0  0  0  0  0
    0.2203    0.0431   -3.3712 C   0  0  0  0  0  0  0  0  0  0  0  0
    0.6666    0.9236   -3.4497 H   0  0  0  0  0  0  0  0  0  0  0  0
    0.1389   -0.2282   -2.4216 H   0  0  0  0  0  0  0  0  0  0  0  0
    1.0332   -0.9720   -4.0910 N   0  0  0  0  0  4  0  0  0  0  0  0
    1.8706   -0.5456   -4.4333 H   0  0  0  0  0  0  0  0  0  0  0  0
    1.2683   -1.7151   -3.4640 H   0  0  0  0  0  0  0  0  0  0  0  0
    0.5057   -1.3373   -4.8579 H   0  0  0  0  0  0  0  0  0  0  0  0
    0.0464    2.9161    0.0554 C   0  0  0  0  0  0  0  0  0  0  0  0
   -0.7040    3.2668   -0.4820 H   0  0  0  0  0  0  0  0  0  0  0  0
    0.9184    3.2094   -0.3032 H   0  0  0  0  0  0  0  0  0  0  0  0
   -0.0497    3.3225    1.0622 H   0  0  0  0  0  0  0  0  0  0  0  0
   -0.0013    1.4142    0.0017 C   0  0  0  0  0  0  0  0  0  0  0  0
   -1.2187    0.7005   -0.0058 C   0  0  0  0  0  0  0  0  0  0  0  0
   -2.0760    1.1759   -0.0167 H   0  0  0  0  0  0  0  0  0  0  0  0
   -1.2048   -0.7194   -0.0000 C   0  0  0  0  0  0  0  0  0  0  0  0
   -2.0653   -1.2198    0.0023 H   0  0  0  0  0  0  0  0  0  0  0  0
    0.0325   -1.4119    0.0039 C   0  0  0  0  0  0  0  0  0  0  0  0
    0.0312   -2.4028    0.0090 H   0  0  0  0  0  0  0  0  0  0  0  0
    1.2048   -0.6880    0.0000 C   0  0  0  0  0  0  0  0  0  0  0  0
    2.1059   -1.1690   -0.0018 H   0  0  0  0  0  0  0  0  0  0  0  0
    1.1875    0.7046    0.0001 C   0  0  0  0  0  0  0  0  0  0  0  0
    2.0610    1.2031   -0.0015 H   0  0  0  0  0  0  0  0  0  0  0  0
  1  5  1  0
  5  8  1  0
  1  2  1  0
  1  3  1  0
  1  4  1  0
  5  6  1  0
  5  7  1  0
  8  9  1  0
  8 10  1  0
  8 11  1  0
 12 16  1  0
 16 17  2  0
 17 19  1  0
 19 21  2  0
 21 23  1  0
 23 25  2  0
 25 16  1  0
 12 13  1  0
 12 14  1  0
 12 15  1  0
 17 18  1  0
 19 20  1  0
 21 22  1  0
 23 24  1  0
 25 26  1  0
M  CHG  1   8   1
M  END
>  <PDB_ID>  (1303) 
pdb1ufo

>  <RESIDUE_NAME>  (1303) 
LYS   PHE

>  <FRAG_NAME>  (1303) 
ETAM   MBZ

>  <FRAG_ATOM_NUM>  (1303) 
fragi: 11  fragj: 15

>  <atom.prop.CHAIN_ID>  (1303) 
A A A A A A A A A A A Z Z Z Z Z Z Z Z Z Z Z Z Z Z Z

>  <atom.prop.IS_HEAVY_ATOM>  (1303) 
1 0 0 0 1 0 0 1 0 0 0 1 0 0 0 1 1 0 1 0 1 0 1 0 1 0

>  <DIFUSE_FUNC_ATOM>  (1303) 
n/a

>  <FINAL_SINGLE_POINT_ENERGY>  (1303) 
0

>  <NONCOV_INTER_ENERGY_QM>  (1303) 
0

>  <FF_Energy>  (1303) 
-5.24

>  <QM_Energy>  (1303) 
-11.18

>  <source>  (1303) 
ETAM_MBZ

>  <Index>  (1303) 
13048

$$$$
ETAM-pdb1ufo-C-LYS-193:MBZ-pdb1ufo-C-PHE-140
     RDKit          3D

 26 25  0  0  0  0  0  0  0  0999 V2000
   -1.0575    0.0501   -3.9897 C   0  0  0  0  0  0  0  0  0  0  0  0
   -1.0793    0.1254   -4.9986 H   0  0  0  0  0  0  0  0  0  0  0  0
   -1.5091    0.8720   -3.6110 H   0  0  0  0  0  0  0  0  0  0  0  0
   -1.6805   -0.8039   -3.7238 H   0  0  0  0  0  0  0  0  0  0  0  0
    0.3638   -0.0022   -3.5206 C   0  0  0  0  0  0  0  0  0  0  0  0
    0.8318    0.8295   -3.8320 H   0  0  0  0  0  0  0  0  0  0  0  0
    0.3670   -0.0191   -2.5167 H   0  0  0  0  0  0  0  0  0  0  0  0
    0.9852   -1.1587   -4.0475 N   0  0  0  0  0  4  0  0  0  0  0  0
    0.8003   -1.9712   -3.4722 H   0  0  0  0  0  0  0  0  0  0  0  0
    0.6515   -1.3639   -4.9808 H   0  0  0  0  0  0  0  0  0  0  0  0
    1.9899   -1.0446   -4.1012 H   0  0  0  0  0  0  0  0  0  0  0  0
    0.0343    2.8948    0.0439 C   0  0  0  0  0  0  0  0  0  0  0  0
   -0.7480    3.2423   -0.4495 H   0  0  0  0  0  0  0  0  0  0  0  0
    0.8811    3.2032   -0.3604 H   0  0  0  0  0  0  0  0  0  0  0  0
   -0.0108    3.3037    1.0533 H   0  0  0  0  0  0  0  0  0  0  0  0
    0.0011    1.4064   -0.0001 C   0  0  0  0  0  0  0  0  0  0  0  0
   -1.2042    0.6818   -0.0042 C   0  0  0  0  0  0  0  0  0  0  0  0
   -2.0694    1.1803   -0.0117 H   0  0  0  0  0  0  0  0  0  0  0  0
   -1.2133   -0.7036   -0.0000 C   0  0  0  0  0  0  0  0  0  0  0  0
   -2.0779   -1.2104    0.0013 H   0  0  0  0  0  0  0  0  0  0  0  0
    0.0208   -1.4349    0.0035 C   0  0  0  0  0  0  0  0  0  0  0  0
    0.0282   -2.3976    0.0073 H   0  0  0  0  0  0  0  0  0  0  0  0
    1.2133   -0.6652   -0.0000 C   0  0  0  0  0  0  0  0  0  0  0  0
    2.1092   -1.1534   -0.0014 H   0  0  0  0  0  0  0  0  0  0  0  0
    1.1823    0.7156    0.0008 C   0  0  0  0  0  0  0  0  0  0  0  0
    2.0562    1.2232    0.0014 H   0  0  0  0  0  0  0  0  0  0  0  0
  1  5  1  0
  5  8  1  0
  1  2  1  0
  1  3  1  0
  1  4  1  0
  5  6  1  0
  5  7  1  0
  8  9  1  0
  8 10  1  0
  8 11  1  0
 12 16  1  0
 16 17  2  0
 17 19  1  0
 19 21  2  0
 21 23  1  0
 23 25  2  0
 25 16  1  0
 12 13  1  0
 12 14  1  0
 12 15  1  0
 17 18  1  0
 19 20  1  0
 21 22  1  0
 23 24  1  0
 25 26  1  0
M  CHG  1   8   1
M  END
>  <PDB_ID>  (1304) 
pdb1ufo

>  <RESIDUE_NAME>  (1304) 
LYS   PHE

>  <FRAG_NAME>  (1304) 
ETAM   MBZ

>  <FRAG_ATOM_NUM>  (1304) 
fragi: 11  fragj: 15

>  <atom.prop.CHAIN_ID>  (1304) 
A A A A A A A A A A A Z Z Z Z Z Z Z Z Z Z Z Z Z Z Z

>  <atom.prop.IS_HEAVY_ATOM>  (1304) 
1 0 0 0 1 0 0 1 0 0 0 1 0 0 0 1 1 0 1 0 1 0 1 0 1 0

>  <DIFUSE_FUNC_ATOM>  (1304) 
n/a

>  <FINAL_SINGLE_POINT_ENERGY>  (1304) 
0

>  <NONCOV_INTER_ENERGY_QM>  (1304) 
0

>  <FF_Energy>  (1304) 
-5.45

>  <QM_Energy>  (1304) 
-10.99

>  <source>  (1304) 
ETAM_MBZ

>  <Index>  (1304) 
13050

$$$$
ETAM-pdb1ufo-D-LYS-193:MBZ-pdb1ufo-D-PHE-140
     RDKit          3D

 26 25  0  0  0  0  0  0  0  0999 V2000
   -0.6506    0.0353   -3.7058 C   0  0  0  0  0  0  0  0  0  0  0  0
   -0.5410    0.3440   -4.6295 H   0  0  0  0  0  0  0  0  0  0  0  0
   -0.8639    0.7614   -3.0839 H   0  0  0  0  0  0  0  0  0  0  0  0
   -1.4226   -0.7328   -3.6602 H   0  0  0  0  0  0  0  0  0  0  0  0
    0.6666   -0.6067   -3.2567 C   0  0  0  0  0  0  0  0  0  0  0  0
    0.9741   -0.1514   -2.4290 H   0  0  0  0  0  0  0  0  0  0  0  0
    0.5054   -1.5717   -3.0825 H   0  0  0  0  0  0  0  0  0  0  0  0
    1.6771   -0.4509   -4.3208 N   0  0  0  0  0  4  0  0  0  0  0  0
    1.6110    0.4659   -4.7186 H   0  0  0  0  0  0  0  0  0  0  0  0
    2.5936   -0.5782   -3.9379 H   0  0  0  0  0  0  0  0  0  0  0  0
    1.5212   -1.1332   -5.0377 H   0  0  0  0  0  0  0  0  0  0  0  0
   -0.0231    2.9181    0.1317 C   0  0  0  0  0  0  0  0  0  0  0  0
   -0.7791    3.2869   -0.3922 H   0  0  0  0  0  0  0  0  0  0  0  0
    0.8431    3.2619   -0.2061 H   0  0  0  0  0  0  0  0  0  0  0  0
   -0.1337    3.2941    1.1488 H   0  0  0  0  0  0  0  0  0  0  0  0
   -0.0321    1.4296    0.0055 C   0  0  0  0  0  0  0  0  0  0  0  0
   -1.2186    0.6880   -0.0117 C   0  0  0  0  0  0  0  0  0  0  0  0
   -2.0997    1.1338   -0.0333 H   0  0  0  0  0  0  0  0  0  0  0  0
   -1.2006   -0.7683    0.0000 C   0  0  0  0  0  0  0  0  0  0  0  0
   -2.0419   -1.2622   -0.0009 H   0  0  0  0  0  0  0  0  0  0  0  0
    0.0650   -1.4180    0.0144 C   0  0  0  0  0  0  0  0  0  0  0  0
    0.0804   -2.4167    0.0346 H   0  0  0  0  0  0  0  0  0  0  0  0
    1.2006   -0.6790   -0.0000 C   0  0  0  0  0  0  0  0  0  0  0  0
    2.1261   -1.1303   -0.0038 H   0  0  0  0  0  0  0  0  0  0  0  0
    1.1858    0.7476   -0.0082 C   0  0  0  0  0  0  0  0  0  0  0  0
    2.0414    1.2377   -0.0245 H   0  0  0  0  0  0  0  0  0  0  0  0
  1  5  1  0
  5  8  1  0
  1  2  1  0
  1  3  1  0
  1  4  1  0
  5  6  1  0
  5  7  1  0
  8  9  1  0
  8 10  1  0
  8 11  1  0
 12 16  1  0
 16 17  2  0
 17 19  1  0
 19 21  2  0
 21 23  1  0
 23 25  2  0
 25 16  1  0
 12 13  1  0
 12 14  1  0
 12 15  1  0
 17 18  1  0
 19 20  1  0
 21 22  1  0
 23 24  1  0
 25 26  1  0
M  CHG  1   8   1
M  END
>  <PDB_ID>  (1305) 
pdb1ufo

>  <RESIDUE_NAME>  (1305) 
LYS   PHE

>  <FRAG_NAME>  (1305) 
ETAM   MBZ

>  <FRAG_ATOM_NUM>  (1305) 
fragi: 11  fragj: 15

>  <atom.prop.CHAIN_ID>  (1305) 
A A A A A A A A A A A Z Z Z Z Z Z Z Z Z Z Z Z Z Z Z

>  <atom.prop.IS_HEAVY_ATOM>  (1305) 
1 0 0 0 1 0 0 1 0 0 0 1 0 0 0 1 1 0 1 0 1 0 1 0 1 0

>  <DIFUSE_FUNC_ATOM>  (1305) 
n/a

>  <FINAL_SINGLE_POINT_ENERGY>  (1305) 
0

>  <NONCOV_INTER_ENERGY_QM>  (1305) 
0

>  <FF_Energy>  (1305) 
-3.85

>  <QM_Energy>  (1305) 
-9.39

>  <source>  (1305) 
ETAM_MBZ

>  <Index>  (1305) 
13051

$$$$
ETAM-pdb1uc8-B-LYS-174:MBZ-pdb1uc8-B-PHE-239
     RDKit          3D

 26 25  0  0  0  0  0  0  0  0999 V2000
    1.1676    0.7562   -4.5217 C   0  0  0  0  0  0  0  0  0  0  0  0
    1.4618    0.2666   -5.3405 H   0  0  0  0  0  0  0  0  0  0  0  0
    1.9469    1.2209   -4.1062 H   0  0  0  0  0  0  0  0  0  0  0  0
    0.4235    1.5006   -4.8050 H   0  0  0  0  0  0  0  0  0  0  0  0
    0.6168   -0.2449   -3.5310 C   0  0  0  0  0  0  0  0  0  0  0  0
    0.2755    0.2406   -2.7285 H   0  0  0  0  0  0  0  0  0  0  0  0
   -0.1283   -0.7541   -3.9581 H   0  0  0  0  0  0  0  0  0  0  0  0
    1.6817   -1.1936   -3.1131 N   0  0  0  0  0  4  0  0  0  0  0  0
    1.9988   -0.9549   -2.1950 H   0  0  0  0  0  0  0  0  0  0  0  0
    1.3155   -2.1244   -3.1091 H   0  0  0  0  0  0  0  0  0  0  0  0
    2.4463   -1.1392   -3.7547 H   0  0  0  0  0  0  0  0  0  0  0  0
   -0.0233    2.9076   -0.0091 C   0  0  0  0  0  0  0  0  0  0  0  0
   -0.6294    3.2105    0.7160 H   0  0  0  0  0  0  0  0  0  0  0  0
   -0.3584    3.2050   -0.8942 H   0  0  0  0  0  0  0  0  0  0  0  0
    0.9465    3.3783    0.1525 H   0  0  0  0  0  0  0  0  0  0  0  0
   -0.0010    1.4058   -0.0003 C   0  0  0  0  0  0  0  0  0  0  0  0
   -1.1990    0.6934   -0.0001 C   0  0  0  0  0  0  0  0  0  0  0  0
   -2.0661    1.1824   -0.0017 H   0  0  0  0  0  0  0  0  0  0  0  0
   -1.2044   -0.7006   -0.0000 C   0  0  0  0  0  0  0  0  0  0  0  0
   -2.0783   -1.1946    0.0008 H   0  0  0  0  0  0  0  0  0  0  0  0
    0.0031   -1.3987    0.0005 C   0  0  0  0  0  0  0  0  0  0  0  0
   -0.0011   -2.3961    0.0008 H   0  0  0  0  0  0  0  0  0  0  0  0
    1.2044   -0.6991   -0.0000 C   0  0  0  0  0  0  0  0  0  0  0  0
    2.0861   -1.1916    0.0013 H   0  0  0  0  0  0  0  0  0  0  0  0
    1.1970    0.6992   -0.0001 C   0  0  0  0  0  0  0  0  0  0  0  0
    2.0651    1.1939   -0.0007 H   0  0  0  0  0  0  0  0  0  0  0  0
  1  5  1  0
  5  8  1  0
  1  2  1  0
  1  3  1  0
  1  4  1  0
  5  6  1  0
  5  7  1  0
  8  9  1  0
  8 10  1  0
  8 11  1  0
 12 16  1  0
 16 17  2  0
 17 19  1  0
 19 21  2  0
 21 23  1  0
 23 25  2  0
 25 16  1  0
 12 13  1  0
 12 14  1  0
 12 15  1  0
 17 18  1  0
 19 20  1  0
 21 22  1  0
 23 24  1  0
 25 26  1  0
M  CHG  1   8   1
M  END
>  <PDB_ID>  (1306) 
pdb1uc8

>  <RESIDUE_NAME>  (1306) 
LYS   PHE

>  <FRAG_NAME>  (1306) 
ETAM   MBZ

>  <FRAG_ATOM_NUM>  (1306) 
fragi: 11  fragj: 15

>  <atom.prop.CHAIN_ID>  (1306) 
A A A A A A A A A A A Z Z Z Z Z Z Z Z Z Z Z Z Z Z Z

>  <atom.prop.IS_HEAVY_ATOM>  (1306) 
1 0 0 0 1 0 0 1 0 0 0 1 0 0 0 1 1 0 1 0 1 0 1 0 1 0

>  <DIFUSE_FUNC_ATOM>  (1306) 
n/a

>  <FINAL_SINGLE_POINT_ENERGY>  (1306) 
0

>  <NONCOV_INTER_ENERGY_QM>  (1306) 
0

>  <FF_Energy>  (1306) 
-5.81

>  <QM_Energy>  (1306) 
-13.81

>  <source>  (1306) 
ETAM_MBZ

>  <Index>  (1306) 
13054

$$$$
ETAM-pdb2zci-D-LYS-110:MBZ-pdb2zci-D-PHE-208
     RDKit          3D

 26 25  0  0  0  0  0  0  0  0999 V2000
    1.1348   -1.7992   -4.3893 C   0  0  0  0  0  0  0  0  0  0  0  0
    2.1215   -1.7849   -4.5839 H   0  0  0  0  0  0  0  0  0  0  0  0
    0.6531   -2.1511   -5.1990 H   0  0  0  0  0  0  0  0  0  0  0  0
    0.9428   -2.4548   -3.5399 H   0  0  0  0  0  0  0  0  0  0  0  0
    0.6827   -0.3187   -4.1907 C   0  0  0  0  0  0  0  0  0  0  0  0
    1.3876    0.1445   -3.6850 H   0  0  0  0  0  0  0  0  0  0  0  0
    0.5432    0.0747   -5.0807 H   0  0  0  0  0  0  0  0  0  0  0  0
   -0.5680   -0.3514   -3.4332 N   0  0  0  0  0  4  0  0  0  0  0  0
   -1.2480    0.2473   -3.8652 H   0  0  0  0  0  0  0  0  0  0  0  0
   -0.9302   -1.2875   -3.4065 H   0  0  0  0  0  0  0  0  0  0  0  0
   -0.4097   -0.0378   -2.4935 H   0  0  0  0  0  0  0  0  0  0  0  0
    0.0012    2.8708   -0.0213 C   0  0  0  0  0  0  0  0  0  0  0  0
   -0.8663    3.1877   -0.3827 H   0  0  0  0  0  0  0  0  0  0  0  0
    0.7528    3.1771   -0.5912 H   0  0  0  0  0  0  0  0  0  0  0  0
    0.1320    3.3035    0.9705 H   0  0  0  0  0  0  0  0  0  0  0  0
   -0.0069    1.3993   -0.0145 C   0  0  0  0  0  0  0  0  0  0  0  0
   -1.1907    0.7087   -0.0052 C   0  0  0  0  0  0  0  0  0  0  0  0
   -2.0607    1.1873   -0.0034 H   0  0  0  0  0  0  0  0  0  0  0  0
   -1.1872   -0.6869    0.0000 C   0  0  0  0  0  0  0  0  0  0  0  0
   -2.0648   -1.1831   -0.0186 H   0  0  0  0  0  0  0  0  0  0  0  0
    0.0159   -1.3906    0.0328 C   0  0  0  0  0  0  0  0  0  0  0  0
   -0.0123   -2.3932    0.0805 H   0  0  0  0  0  0  0  0  0  0  0  0
    1.1872   -0.7180   -0.0000 C   0  0  0  0  0  0  0  0  0  0  0  0
    2.0815   -1.1969   -0.0141 H   0  0  0  0  0  0  0  0  0  0  0  0
    1.1816    0.6875   -0.0131 C   0  0  0  0  0  0  0  0  0  0  0  0
    2.0560    1.1747   -0.0226 H   0  0  0  0  0  0  0  0  0  0  0  0
  1  5  1  0
  5  8  1  0
  1  2  1  0
  1  3  1  0
  1  4  1  0
  5  6  1  0
  5  7  1  0
  8  9  1  0
  8 10  1  0
  8 11  1  0
 12 16  1  0
 16 17  2  0
 17 19  1  0
 19 21  2  0
 21 23  1  0
 23 25  2  0
 25 16  1  0
 12 13  1  0
 12 14  1  0
 12 15  1  0
 17 18  1  0
 19 20  1  0
 21 22  1  0
 23 24  1  0
 25 26  1  0
M  CHG  1   8   1
M  END
>  <PDB_ID>  (1307) 
pdb2zci

>  <RESIDUE_NAME>  (1307) 
LYS   PHE

>  <FRAG_NAME>  (1307) 
ETAM   MBZ

>  <FRAG_ATOM_NUM>  (1307) 
fragi: 11  fragj: 15

>  <atom.prop.CHAIN_ID>  (1307) 
A A A A A A A A A A A Z Z Z Z Z Z Z Z Z Z Z Z Z Z Z

>  <atom.prop.IS_HEAVY_ATOM>  (1307) 
1 0 0 0 1 0 0 1 0 0 0 1 0 0 0 1 1 0 1 0 1 0 1 0 1 0

>  <DIFUSE_FUNC_ATOM>  (1307) 
n/a

>  <FINAL_SINGLE_POINT_ENERGY>  (1307) 
0

>  <NONCOV_INTER_ENERGY_QM>  (1307) 
0

>  <FF_Energy>  (1307) 
-8.59

>  <QM_Energy>  (1307) 
-15.26

>  <source>  (1307) 
ETAM_MBZ

>  <Index>  (1307) 
13066

$$$$
ETAM-pdb1twf-A-LYS-98:MBZ-pdb1twf-A-PHE-135
     RDKit          3D

 26 25  0  0  0  0  0  0  0  0999 V2000
    2.1086   -2.1461   -3.3295 C   0  0  0  0  0  0  0  0  0  0  0  0
    1.1394   -2.2892   -3.4756 H   0  0  0  0  0  0  0  0  0  0  0  0
    2.3363   -2.2140   -2.3671 H   0  0  0  0  0  0  0  0  0  0  0  0
    2.6677   -2.9001   -3.8834 H   0  0  0  0  0  0  0  0  0  0  0  0
    2.4703   -0.7471   -3.8151 C   0  0  0  0  0  0  0  0  0  0  0  0
    3.4625   -0.6137   -3.7070 H   0  0  0  0  0  0  0  0  0  0  0  0
    2.2456   -0.6762   -4.7942 H   0  0  0  0  0  0  0  0  0  0  0  0
    1.7500    0.3258   -3.0718 N   0  0  0  0  0  4  0  0  0  0  0  0
    2.4161    0.9448   -2.6572 H   0  0  0  0  0  0  0  0  0  0  0  0
    1.1684    0.8338   -3.7061 H   0  0  0  0  0  0  0  0  0  0  0  0
    1.1867   -0.0880   -2.3576 H   0  0  0  0  0  0  0  0  0  0  0  0
    0.0000    2.9032    0.0041 C   0  0  0  0  0  0  0  0  0  0  0  0
   -0.5823    3.2128   -0.7314 H   0  0  0  0  0  0  0  0  0  0  0  0
    0.9309    3.2118   -0.1186 H   0  0  0  0  0  0  0  0  0  0  0  0
   -0.3750    3.3374    0.9309 H   0  0  0  0  0  0  0  0  0  0  0  0
    0.0004    1.4033   -0.0009 C   0  0  0  0  0  0  0  0  0  0  0  0
   -1.1953    0.6984    0.0002 C   0  0  0  0  0  0  0  0  0  0  0  0
   -2.0621    1.1878   -0.0005 H   0  0  0  0  0  0  0  0  0  0  0  0
   -1.2023   -0.6951    0.0000 C   0  0  0  0  0  0  0  0  0  0  0  0
   -2.0801   -1.1855    0.0010 H   0  0  0  0  0  0  0  0  0  0  0  0
   -0.0019   -1.3965   -0.0001 C   0  0  0  0  0  0  0  0  0  0  0  0
   -0.0087   -2.3946   -0.0009 H   0  0  0  0  0  0  0  0  0  0  0  0
    1.2023   -0.7026    0.0000 C   0  0  0  0  0  0  0  0  0  0  0  0
    2.0817   -1.1985    0.0007 H   0  0  0  0  0  0  0  0  0  0  0  0
    1.1967    0.6924    0.0007 C   0  0  0  0  0  0  0  0  0  0  0  0
    2.0658    1.1875    0.0015 H   0  0  0  0  0  0  0  0  0  0  0  0
  1  5  1  0
  5  8  1  0
  1  2  1  0
  1  3  1  0
  1  4  1  0
  5  6  1  0
  5  7  1  0
  8  9  1  0
  8 10  1  0
  8 11  1  0
 12 16  1  0
 16 17  2  0
 17 19  1  0
 19 21  2  0
 21 23  1  0
 23 25  2  0
 25 16  1  0
 12 13  1  0
 12 14  1  0
 12 15  1  0
 17 18  1  0
 19 20  1  0
 21 22  1  0
 23 24  1  0
 25 26  1  0
M  CHG  1   8   1
M  END
>  <PDB_ID>  (1308) 
pdb1twf

>  <RESIDUE_NAME>  (1308) 
LYS   PHE

>  <FRAG_NAME>  (1308) 
ETAM   MBZ

>  <FRAG_ATOM_NUM>  (1308) 
fragi: 11  fragj: 15

>  <atom.prop.CHAIN_ID>  (1308) 
A A A A A A A A A A A Z Z Z Z Z Z Z Z Z Z Z Z Z Z Z

>  <atom.prop.IS_HEAVY_ATOM>  (1308) 
1 0 0 0 1 0 0 1 0 0 0 1 0 0 0 1 1 0 1 0 1 0 1 0 1 0

>  <DIFUSE_FUNC_ATOM>  (1308) 
n/a

>  <FINAL_SINGLE_POINT_ENERGY>  (1308) 
0

>  <NONCOV_INTER_ENERGY_QM>  (1308) 
0

>  <FF_Energy>  (1308) 
-6.77

>  <QM_Energy>  (1308) 
-13.26

>  <source>  (1308) 
ETAM_MBZ

>  <Index>  (1308) 
13076

$$$$
ETAM-pdb1ud9-D-LYS-131:MBZ-pdb1ud9-D-PHE-128
     RDKit          3D

 26 25  0  0  0  0  0  0  0  0999 V2000
    0.7273   -1.7080   -4.2692 C   0  0  0  0  0  0  0  0  0  0  0  0
    0.3997   -2.5012   -3.7504 H   0  0  0  0  0  0  0  0  0  0  0  0
    1.1934   -2.0295   -5.0973 H   0  0  0  0  0  0  0  0  0  0  0  0
   -0.1577   -1.1640   -4.5991 H   0  0  0  0  0  0  0  0  0  0  0  0
    1.6484   -0.8972   -3.4419 C   0  0  0  0  0  0  0  0  0  0  0  0
    2.0249   -0.1381   -3.9685 H   0  0  0  0  0  0  0  0  0  0  0  0
    1.1849   -0.5485   -2.6305 H   0  0  0  0  0  0  0  0  0  0  0  0
    2.8320   -1.7523   -2.9605 N   0  0  0  0  0  4  0  0  0  0  0  0
    3.2856   -2.1255   -3.7594 H   0  0  0  0  0  0  0  0  0  0  0  0
    3.4457   -1.1661   -2.4469 H   0  0  0  0  0  0  0  0  0  0  0  0
    2.4733   -2.4772   -2.3861 H   0  0  0  0  0  0  0  0  0  0  0  0
    0.0247    2.9366    0.1154 C   0  0  0  0  0  0  0  0  0  0  0  0
   -0.7687    3.2880   -0.3508 H   0  0  0  0  0  0  0  0  0  0  0  0
    0.8627    3.2656   -0.2852 H   0  0  0  0  0  0  0  0  0  0  0  0
   -0.0115    3.2931    1.1448 H   0  0  0  0  0  0  0  0  0  0  0  0
    0.0086    1.4326    0.0021 C   0  0  0  0  0  0  0  0  0  0  0  0
   -1.2102    0.7124   -0.0041 C   0  0  0  0  0  0  0  0  0  0  0  0
   -2.0717    1.1915   -0.0125 H   0  0  0  0  0  0  0  0  0  0  0  0
   -1.2247   -0.7257    0.0000 C   0  0  0  0  0  0  0  0  0  0  0  0
   -2.1045   -1.1938    0.0008 H   0  0  0  0  0  0  0  0  0  0  0  0
   -0.0192   -1.4331    0.0053 C   0  0  0  0  0  0  0  0  0  0  0  0
   -0.0017   -2.4167    0.0119 H   0  0  0  0  0  0  0  0  0  0  0  0
    1.2247   -0.7026   -0.0000 C   0  0  0  0  0  0  0  0  0  0  0  0
    2.0914   -1.2028   -0.0003 H   0  0  0  0  0  0  0  0  0  0  0  0
    1.2208    0.7164   -0.0034 C   0  0  0  0  0  0  0  0  0  0  0  0
    2.0845    1.2044   -0.0108 H   0  0  0  0  0  0  0  0  0  0  0  0
  1  5  1  0
  5  8  1  0
  1  2  1  0
  1  3  1  0
  1  4  1  0
  5  6  1  0
  5  7  1  0
  8  9  1  0
  8 10  1  0
  8 11  1  0
 12 16  1  0
 16 17  2  0
 17 19  1  0
 19 21  2  0
 21 23  1  0
 23 25  2  0
 25 16  1  0
 12 13  1  0
 12 14  1  0
 12 15  1  0
 17 18  1  0
 19 20  1  0
 21 22  1  0
 23 24  1  0
 25 26  1  0
M  CHG  1   8   1
M  END
>  <PDB_ID>  (1309) 
pdb1ud9

>  <RESIDUE_NAME>  (1309) 
LYS   PHE

>  <FRAG_NAME>  (1309) 
ETAM   MBZ

>  <FRAG_ATOM_NUM>  (1309) 
fragi: 11  fragj: 15

>  <atom.prop.CHAIN_ID>  (1309) 
A A A A A A A A A A A Z Z Z Z Z Z Z Z Z Z Z Z Z Z Z

>  <atom.prop.IS_HEAVY_ATOM>  (1309) 
1 0 0 0 1 0 0 1 0 0 0 1 0 0 0 1 1 0 1 0 1 0 1 0 1 0

>  <DIFUSE_FUNC_ATOM>  (1309) 
n/a

>  <FINAL_SINGLE_POINT_ENERGY>  (1309) 
0

>  <NONCOV_INTER_ENERGY_QM>  (1309) 
0

>  <FF_Energy>  (1309) 
-2.73

>  <QM_Energy>  (1309) 
-8.68

>  <source>  (1309) 
ETAM_MBZ

>  <Index>  (1309) 
13078

$$$$
ETAM-pdb1ukv-G-LYS-390:MBZ-pdb1ukv-G-PHE-381
     RDKit          3D

 26 25  0  0  0  0  0  0  0  0999 V2000
   -1.1701   -1.9149    4.0084 C   0  0  0  0  0  0  0  0  0  0  0  0
   -0.7590   -2.2207    4.8637 H   0  0  0  0  0  0  0  0  0  0  0  0
   -0.8406   -2.4754    3.2528 H   0  0  0  0  0  0  0  0  0  0  0  0
   -2.2488   -2.0510    4.0853 H   0  0  0  0  0  0  0  0  0  0  0  0
   -0.7934   -0.4775    3.7615 C   0  0  0  0  0  0  0  0  0  0  0  0
   -1.1650   -0.1833    2.8828 H   0  0  0  0  0  0  0  0  0  0  0  0
   -1.1665    0.0939    4.4914 H   0  0  0  0  0  0  0  0  0  0  0  0
    0.6886   -0.3267    3.7367 N   0  0  0  0  0  4  0  0  0  0  0  0
    1.0888   -1.0792    3.2159 H   0  0  0  0  0  0  0  0  0  0  0  0
    0.9257    0.5428    3.3052 H   0  0  0  0  0  0  0  0  0  0  0  0
    1.0383   -0.3433    4.6730 H   0  0  0  0  0  0  0  0  0  0  0  0
    0.0288    2.9033    0.0798 C   0  0  0  0  0  0  0  0  0  0  0  0
    0.9416    3.2079   -0.1604 H   0  0  0  0  0  0  0  0  0  0  0  0
   -0.1969    3.1666    1.0096 H   0  0  0  0  0  0  0  0  0  0  0  0
   -0.6739    3.4046   -0.5859 H   0  0  0  0  0  0  0  0  0  0  0  0
    0.0017    1.4062    0.0003 C   0  0  0  0  0  0  0  0  0  0  0  0
   -1.2044    0.7021   -0.0008 C   0  0  0  0  0  0  0  0  0  0  0  0
   -2.0662    1.1918   -0.0033 H   0  0  0  0  0  0  0  0  0  0  0  0
   -1.2076   -0.6955   -0.0000 C   0  0  0  0  0  0  0  0  0  0  0  0
   -2.0793   -1.1910   -0.0004 H   0  0  0  0  0  0  0  0  0  0  0  0
    0.0061   -1.4004    0.0028 C   0  0  0  0  0  0  0  0  0  0  0  0
   -0.0070   -2.3973    0.0067 H   0  0  0  0  0  0  0  0  0  0  0  0
    1.2076   -0.7075    0.0000 C   0  0  0  0  0  0  0  0  0  0  0  0
    2.0885   -1.1961    0.0008 H   0  0  0  0  0  0  0  0  0  0  0  0
    1.1966    0.6952   -0.0023 C   0  0  0  0  0  0  0  0  0  0  0  0
    2.0678    1.1884   -0.0064 H   0  0  0  0  0  0  0  0  0  0  0  0
  1  5  1  0
  5  8  1  0
  1  2  1  0
  1  3  1  0
  1  4  1  0
  5  6  1  0
  5  7  1  0
  8  9  1  0
  8 10  1  0
  8 11  1  0
 12 16  1  0
 16 17  2  0
 17 19  1  0
 19 21  2  0
 21 23  1  0
 23 25  2  0
 25 16  1  0
 12 13  1  0
 12 14  1  0
 12 15  1  0
 17 18  1  0
 19 20  1  0
 21 22  1  0
 23 24  1  0
 25 26  1  0
M  CHG  1   8   1
M  END
>  <PDB_ID>  (1310) 
pdb1ukv

>  <RESIDUE_NAME>  (1310) 
LYS   PHE

>  <FRAG_NAME>  (1310) 
ETAM   MBZ

>  <FRAG_ATOM_NUM>  (1310) 
fragi: 11  fragj: 15

>  <atom.prop.CHAIN_ID>  (1310) 
A A A A A A A A A A A Z Z Z Z Z Z Z Z Z Z Z Z Z Z Z

>  <atom.prop.IS_HEAVY_ATOM>  (1310) 
1 0 0 0 1 0 0 1 0 0 0 1 0 0 0 1 1 0 1 0 1 0 1 0 1 0

>  <DIFUSE_FUNC_ATOM>  (1310) 
n/a

>  <FINAL_SINGLE_POINT_ENERGY>  (1310) 
0

>  <NONCOV_INTER_ENERGY_QM>  (1310) 
0

>  <FF_Energy>  (1310) 
-7.05

>  <QM_Energy>  (1310) 
-12.23

>  <source>  (1310) 
ETAM_MBZ

>  <Index>  (1310) 
13094

$$$$
ETAM-pdb1um0-A-LYS-44:MBZ-pdb1um0-A-PHE-53
     RDKit          3D

 26 25  0  0  0  0  0  0  0  0999 V2000
   -0.3007   -0.4000   -5.3478 C   0  0  0  0  0  0  0  0  0  0  0  0
   -1.2085   -0.1517   -5.6648 H   0  0  0  0  0  0  0  0  0  0  0  0
   -0.0604   -1.3135   -5.6542 H   0  0  0  0  0  0  0  0  0  0  0  0
    0.4201    0.3093   -5.7545 H   0  0  0  0  0  0  0  0  0  0  0  0
   -0.2984   -0.3842   -3.8215 C   0  0  0  0  0  0  0  0  0  0  0  0
    0.6220   -0.6101   -3.4969 H   0  0  0  0  0  0  0  0  0  0  0  0
   -0.5400    0.5368   -3.5069 H   0  0  0  0  0  0  0  0  0  0  0  0
   -1.2710   -1.3652   -3.2583 N   0  0  0  0  0  4  0  0  0  0  0  0
   -2.1967   -1.1076   -3.5336 H   0  0  0  0  0  0  0  0  0  0  0  0
   -1.0586   -2.2771   -3.6058 H   0  0  0  0  0  0  0  0  0  0  0  0
   -1.2036   -1.3618   -2.2621 H   0  0  0  0  0  0  0  0  0  0  0  0
   -0.0004    2.9085    0.0002 C   0  0  0  0  0  0  0  0  0  0  0  0
   -0.4807    3.2152   -0.8078 H   0  0  0  0  0  0  0  0  0  0  0  0
    0.9397    3.2145   -0.0014 H   0  0  0  0  0  0  0  0  0  0  0  0
   -0.4921    3.3508    0.8666 H   0  0  0  0  0  0  0  0  0  0  0  0
   -0.0010    1.4034   -0.0001 C   0  0  0  0  0  0  0  0  0  0  0  0
   -1.1970    0.6946    0.0002 C   0  0  0  0  0  0  0  0  0  0  0  0
   -2.0646    1.1848   -0.0007 H   0  0  0  0  0  0  0  0  0  0  0  0
   -1.2042   -0.6974    0.0000 C   0  0  0  0  0  0  0  0  0  0  0  0
   -2.0798   -1.1901    0.0017 H   0  0  0  0  0  0  0  0  0  0  0  0
   -0.0000   -1.3964   -0.0002 C   0  0  0  0  0  0  0  0  0  0  0  0
   -0.0051   -2.3936   -0.0009 H   0  0  0  0  0  0  0  0  0  0  0  0
    1.2042   -0.6988   -0.0000 C   0  0  0  0  0  0  0  0  0  0  0  0
    2.0844   -1.1960    0.0016 H   0  0  0  0  0  0  0  0  0  0  0  0
    1.1980    0.6946    0.0001 C   0  0  0  0  0  0  0  0  0  0  0  0
    2.0655    1.1916   -0.0001 H   0  0  0  0  0  0  0  0  0  0  0  0
  1  5  1  0
  5  8  1  0
  1  2  1  0
  1  3  1  0
  1  4  1  0
  5  6  1  0
  5  7  1  0
  8  9  1  0
  8 10  1  0
  8 11  1  0
 12 16  1  0
 16 17  2  0
 17 19  1  0
 19 21  2  0
 21 23  1  0
 23 25  2  0
 25 16  1  0
 12 13  1  0
 12 14  1  0
 12 15  1  0
 17 18  1  0
 19 20  1  0
 21 22  1  0
 23 24  1  0
 25 26  1  0
M  CHG  1   8   1
M  END
>  <PDB_ID>  (1311) 
pdb1um0

>  <RESIDUE_NAME>  (1311) 
LYS   PHE

>  <FRAG_NAME>  (1311) 
ETAM   MBZ

>  <FRAG_ATOM_NUM>  (1311) 
fragi: 11  fragj: 15

>  <atom.prop.CHAIN_ID>  (1311) 
A A A A A A A A A A A Z Z Z Z Z Z Z Z Z Z Z Z Z Z Z

>  <atom.prop.IS_HEAVY_ATOM>  (1311) 
1 0 0 0 1 0 0 1 0 0 0 1 0 0 0 1 1 0 1 0 1 0 1 0 1 0

>  <DIFUSE_FUNC_ATOM>  (1311) 
n/a

>  <FINAL_SINGLE_POINT_ENERGY>  (1311) 
0

>  <NONCOV_INTER_ENERGY_QM>  (1311) 
0

>  <FF_Energy>  (1311) 
-6.44

>  <QM_Energy>  (1311) 
-13.88

>  <source>  (1311) 
ETAM_MBZ

>  <Index>  (1311) 
13113

$$$$
ETAM-pdb1u3h-G-LYS-147:MBZ-pdb1u3h-G-PHE-137
     RDKit          3D

 26 25  0  0  0  0  0  0  0  0999 V2000
   -1.3382   -0.9022   -4.1054 C   0  0  0  0  0  0  0  0  0  0  0  0
   -1.9054   -1.4890   -3.5340 H   0  0  0  0  0  0  0  0  0  0  0  0
   -0.9477   -1.4274   -4.8556 H   0  0  0  0  0  0  0  0  0  0  0  0
   -1.9584   -0.1061   -4.5172 H   0  0  0  0  0  0  0  0  0  0  0  0
   -0.2057   -0.3504   -3.2597 C   0  0  0  0  0  0  0  0  0  0  0  0
   -0.1095    0.6242   -3.4365 H   0  0  0  0  0  0  0  0  0  0  0  0
   -0.4083   -0.5056   -2.2972 H   0  0  0  0  0  0  0  0  0  0  0  0
    1.0745   -1.0406   -3.6069 N   0  0  0  0  0  4  0  0  0  0  0  0
    1.5694   -1.2561   -2.7668 H   0  0  0  0  0  0  0  0  0  0  0  0
    0.8695   -1.8824   -4.1031 H   0  0  0  0  0  0  0  0  0  0  0  0
    1.6278   -0.4382   -4.1793 H   0  0  0  0  0  0  0  0  0  0  0  0
    0.0085    2.9174    0.0034 C   0  0  0  0  0  0  0  0  0  0  0  0
    0.9181    3.2212    0.2475 H   0  0  0  0  0  0  0  0  0  0  0  0
   -0.6607    3.2252    0.6635 H   0  0  0  0  0  0  0  0  0  0  0  0
   -0.2430    3.3710   -0.9553 H   0  0  0  0  0  0  0  0  0  0  0  0
    0.0034    1.4097   -0.0001 C   0  0  0  0  0  0  0  0  0  0  0  0
   -1.1961    0.6990   -0.0024 C   0  0  0  0  0  0  0  0  0  0  0  0
   -2.0622    1.1882   -0.0073 H   0  0  0  0  0  0  0  0  0  0  0  0
   -1.2027   -0.6973    0.0000 C   0  0  0  0  0  0  0  0  0  0  0  0
   -2.0838   -1.1857    0.0035 H   0  0  0  0  0  0  0  0  0  0  0  0
   -0.0070   -1.4023   -0.0002 C   0  0  0  0  0  0  0  0  0  0  0  0
   -0.0119   -2.3977   -0.0011 H   0  0  0  0  0  0  0  0  0  0  0  0
    1.2027   -0.7054   -0.0000 C   0  0  0  0  0  0  0  0  0  0  0  0
    2.0799   -1.2018   -0.0003 H   0  0  0  0  0  0  0  0  0  0  0  0
    1.1998    0.6963    0.0028 C   0  0  0  0  0  0  0  0  0  0  0  0
    2.0695    1.1862    0.0058 H   0  0  0  0  0  0  0  0  0  0  0  0
  1  5  1  0
  5  8  1  0
  1  2  1  0
  1  3  1  0
  1  4  1  0
  5  6  1  0
  5  7  1  0
  8  9  1  0
  8 10  1  0
  8 11  1  0
 12 16  1  0
 16 17  2  0
 17 19  1  0
 19 21  2  0
 21 23  1  0
 23 25  2  0
 25 16  1  0
 12 13  1  0
 12 14  1  0
 12 15  1  0
 17 18  1  0
 19 20  1  0
 21 22  1  0
 23 24  1  0
 25 26  1  0
M  CHG  1   8   1
M  END
>  <PDB_ID>  (1312) 
pdb1u3h

>  <RESIDUE_NAME>  (1312) 
LYS   PHE

>  <FRAG_NAME>  (1312) 
ETAM   MBZ

>  <FRAG_ATOM_NUM>  (1312) 
fragi: 11  fragj: 15

>  <atom.prop.CHAIN_ID>  (1312) 
A A A A A A A A A A A Z Z Z Z Z Z Z Z Z Z Z Z Z Z Z

>  <atom.prop.IS_HEAVY_ATOM>  (1312) 
1 0 0 0 1 0 0 1 0 0 0 1 0 0 0 1 1 0 1 0 1 0 1 0 1 0

>  <DIFUSE_FUNC_ATOM>  (1312) 
n/a

>  <FINAL_SINGLE_POINT_ENERGY>  (1312) 
0

>  <NONCOV_INTER_ENERGY_QM>  (1312) 
0

>  <FF_Energy>  (1312) 
-3.88

>  <QM_Energy>  (1312) 
-12.65

>  <source>  (1312) 
ETAM_MBZ

>  <Index>  (1312) 
13121

$$$$
ETAM-pdb1umz-A-LYS-61:MBZ-pdb1umz-A-PHE-127
     RDKit          3D

 26 25  0  0  0  0  0  0  0  0999 V2000
   -1.9516   -0.1863    4.0322 C   0  0  0  0  0  0  0  0  0  0  0  0
   -2.6618   -0.0447    4.7102 H   0  0  0  0  0  0  0  0  0  0  0  0
   -2.0363    0.4664    3.2906 H   0  0  0  0  0  0  0  0  0  0  0  0
   -0.9899   -0.0186    4.5172 H   0  0  0  0  0  0  0  0  0  0  0  0
   -2.0542   -1.5891    3.4817 C   0  0  0  0  0  0  0  0  0  0  0  0
   -1.2700   -1.7660    2.8728 H   0  0  0  0  0  0  0  0  0  0  0  0
   -2.0129   -2.2504    4.2429 H   0  0  0  0  0  0  0  0  0  0  0  0
   -3.3215   -1.8310    2.7094 N   0  0  0  0  0  4  0  0  0  0  0  0
   -3.1018   -1.8980    1.7395 H   0  0  0  0  0  0  0  0  0  0  0  0
   -3.7350   -2.6811    3.0245 H   0  0  0  0  0  0  0  0  0  0  0  0
   -3.9461   -1.0701    2.8658 H   0  0  0  0  0  0  0  0  0  0  0  0
    0.0134    2.8941   -0.0208 C   0  0  0  0  0  0  0  0  0  0  0  0
   -0.7907    3.1997   -0.5149 H   0  0  0  0  0  0  0  0  0  0  0  0
    0.8418    3.1842   -0.4815 H   0  0  0  0  0  0  0  0  0  0  0  0
   -0.0025    3.3390    0.9742 H   0  0  0  0  0  0  0  0  0  0  0  0
   -0.0009    1.4005   -0.0074 C   0  0  0  0  0  0  0  0  0  0  0  0
   -1.2030    0.7033   -0.0167 C   0  0  0  0  0  0  0  0  0  0  0  0
   -2.0653    1.1883   -0.0364 H   0  0  0  0  0  0  0  0  0  0  0  0
   -1.2062   -0.6999    0.0000 C   0  0  0  0  0  0  0  0  0  0  0  0
   -2.0796   -1.1915    0.0012 H   0  0  0  0  0  0  0  0  0  0  0  0
    0.0039   -1.3977    0.0165 C   0  0  0  0  0  0  0  0  0  0  0  0
    0.0035   -2.3918    0.0389 H   0  0  0  0  0  0  0  0  0  0  0  0
    1.2062   -0.6899   -0.0000 C   0  0  0  0  0  0  0  0  0  0  0  0
    2.0864   -1.1958   -0.0161 H   0  0  0  0  0  0  0  0  0  0  0  0
    1.2000    0.6837    0.0077 C   0  0  0  0  0  0  0  0  0  0  0  0
    2.0654    1.1910    0.0240 H   0  0  0  0  0  0  0  0  0  0  0  0
  1  5  1  0
  5  8  1  0
  1  2  1  0
  1  3  1  0
  1  4  1  0
  5  6  1  0
  5  7  1  0
  8  9  1  0
  8 10  1  0
  8 11  1  0
 12 16  1  0
 16 17  2  0
 17 19  1  0
 19 21  2  0
 21 23  1  0
 23 25  2  0
 25 16  1  0
 12 13  1  0
 12 14  1  0
 12 15  1  0
 17 18  1  0
 19 20  1  0
 21 22  1  0
 23 24  1  0
 25 26  1  0
M  CHG  1   8   1
M  END
>  <PDB_ID>  (1313) 
pdb1umz

>  <RESIDUE_NAME>  (1313) 
LYS   PHE

>  <FRAG_NAME>  (1313) 
ETAM   MBZ

>  <FRAG_ATOM_NUM>  (1313) 
fragi: 11  fragj: 15

>  <atom.prop.CHAIN_ID>  (1313) 
A A A A A A A A A A A Z Z Z Z Z Z Z Z Z Z Z Z Z Z Z

>  <atom.prop.IS_HEAVY_ATOM>  (1313) 
1 0 0 0 1 0 0 1 0 0 0 1 0 0 0 1 1 0 1 0 1 0 1 0 1 0

>  <DIFUSE_FUNC_ATOM>  (1313) 
n/a

>  <FINAL_SINGLE_POINT_ENERGY>  (1313) 
0

>  <NONCOV_INTER_ENERGY_QM>  (1313) 
0

>  <FF_Energy>  (1313) 
-2.12

>  <QM_Energy>  (1313) 
-7.55

>  <source>  (1313) 
ETAM_MBZ

>  <Index>  (1313) 
13125

$$$$
ETAM-pdb1umz-A-LYS-155:MBZ-pdb1umz-A-PHE-163
     RDKit          3D

 26 25  0  0  0  0  0  0  0  0999 V2000
   -0.1206    1.9796   -4.9534 C   0  0  0  0  0  0  0  0  0  0  0  0
    0.6252    2.3573   -5.5100 H   0  0  0  0  0  0  0  0  0  0  0  0
   -0.2245    2.5388   -4.1265 H   0  0  0  0  0  0  0  0  0  0  0  0
   -1.0441    2.0384   -5.5294 H   0  0  0  0  0  0  0  0  0  0  0  0
    0.2276    0.5814   -4.5553 C   0  0  0  0  0  0  0  0  0  0  0  0
   -0.6017    0.0955   -4.2631 H   0  0  0  0  0  0  0  0  0  0  0  0
    0.6245    0.0947   -5.3397 H   0  0  0  0  0  0  0  0  0  0  0  0
    1.2150    0.5560   -3.4304 N   0  0  0  0  0  4  0  0  0  0  0  0
    0.9579   -0.1615   -2.7854 H   0  0  0  0  0  0  0  0  0  0  0  0
    2.1246    0.3706   -3.7971 H   0  0  0  0  0  0  0  0  0  0  0  0
    1.2103    1.4423   -2.9708 H   0  0  0  0  0  0  0  0  0  0  0  0
   -0.0302    2.8694   -0.0082 C   0  0  0  0  0  0  0  0  0  0  0  0
   -0.7281    3.1770   -0.6481 H   0  0  0  0  0  0  0  0  0  0  0  0
    0.8657    3.1979   -0.2923 H   0  0  0  0  0  0  0  0  0  0  0  0
   -0.2522    3.3177    0.9602 H   0  0  0  0  0  0  0  0  0  0  0  0
   -0.0114    1.3997   -0.0051 C   0  0  0  0  0  0  0  0  0  0  0  0
   -1.1839    0.6892   -0.0048 C   0  0  0  0  0  0  0  0  0  0  0  0
   -2.0652    1.1735   -0.0094 H   0  0  0  0  0  0  0  0  0  0  0  0
   -1.1994   -0.7049    0.0000 C   0  0  0  0  0  0  0  0  0  0  0  0
   -2.0737   -1.1923    0.0017 H   0  0  0  0  0  0  0  0  0  0  0  0
    0.0023   -1.3926    0.0036 C   0  0  0  0  0  0  0  0  0  0  0  0
    0.0037   -2.3930    0.0082 H   0  0  0  0  0  0  0  0  0  0  0  0
    1.1994   -0.6933   -0.0000 C   0  0  0  0  0  0  0  0  0  0  0  0
    2.0838   -1.1864   -0.0053 H   0  0  0  0  0  0  0  0  0  0  0  0
    1.1930    0.7019    0.0063 C   0  0  0  0  0  0  0  0  0  0  0  0
    2.0556    1.1994    0.0183 H   0  0  0  0  0  0  0  0  0  0  0  0
  1  5  1  0
  5  8  1  0
  1  2  1  0
  1  3  1  0
  1  4  1  0
  5  6  1  0
  5  7  1  0
  8  9  1  0
  8 10  1  0
  8 11  1  0
 12 16  1  0
 16 17  2  0
 17 19  1  0
 19 21  2  0
 21 23  1  0
 23 25  2  0
 25 16  1  0
 12 13  1  0
 12 14  1  0
 12 15  1  0
 17 18  1  0
 19 20  1  0
 21 22  1  0
 23 24  1  0
 25 26  1  0
M  CHG  1   8   1
M  END
>  <PDB_ID>  (1314) 
pdb1umz

>  <RESIDUE_NAME>  (1314) 
LYS   PHE

>  <FRAG_NAME>  (1314) 
ETAM   MBZ

>  <FRAG_ATOM_NUM>  (1314) 
fragi: 11  fragj: 15

>  <atom.prop.CHAIN_ID>  (1314) 
A A A A A A A A A A A Z Z Z Z Z Z Z Z Z Z Z Z Z Z Z

>  <atom.prop.IS_HEAVY_ATOM>  (1314) 
1 0 0 0 1 0 0 1 0 0 0 1 0 0 0 1 1 0 1 0 1 0 1 0 1 0

>  <DIFUSE_FUNC_ATOM>  (1314) 
n/a

>  <FINAL_SINGLE_POINT_ENERGY>  (1314) 
0

>  <NONCOV_INTER_ENERGY_QM>  (1314) 
0

>  <FF_Energy>  (1314) 
-7.17

>  <QM_Energy>  (1314) 
-12.47

>  <source>  (1314) 
ETAM_MBZ

>  <Index>  (1314) 
13126

$$$$
ETAM-pdb1umr-A-LYS-108:MBZ-pdb1umr-A-PHE-117
     RDKit          3D

 26 25  0  0  0  0  0  0  0  0999 V2000
    0.0864   -0.4989    3.2799 C   0  0  0  0  0  0  0  0  0  0  0  0
    0.4139   -0.3838    2.3624 H   0  0  0  0  0  0  0  0  0  0  0  0
   -0.2272   -1.4107    3.4582 H   0  0  0  0  0  0  0  0  0  0  0  0
    0.8427   -0.1970    4.0044 H   0  0  0  0  0  0  0  0  0  0  0  0
   -1.1172    0.4469    3.4624 C   0  0  0  0  0  0  0  0  0  0  0  0
   -1.0574    0.8755    4.3645 H   0  0  0  0  0  0  0  0  0  0  0  0
   -1.0805    1.1567    2.7577 H   0  0  0  0  0  0  0  0  0  0  0  0
   -2.4479   -0.2771    3.3546 N   0  0  0  0  0  4  0  0  0  0  0  0
   -2.9546    0.1044    2.5888 H   0  0  0  0  0  0  0  0  0  0  0  0
   -2.2706   -1.2449    3.2055 H   0  0  0  0  0  0  0  0  0  0  0  0
   -2.9499   -0.1440    4.2025 H   0  0  0  0  0  0  0  0  0  0  0  0
   -0.0201    2.9283    0.0438 C   0  0  0  0  0  0  0  0  0  0  0  0
    0.7116    3.2322    0.6268 H   0  0  0  0  0  0  0  0  0  0  0  0
   -0.9009    3.2182    0.3713 H   0  0  0  0  0  0  0  0  0  0  0  0
    0.1325    3.3658   -0.9429 H   0  0  0  0  0  0  0  0  0  0  0  0
   -0.0042    1.4183    0.0250 C   0  0  0  0  0  0  0  0  0  0  0  0
   -1.2088    0.7187   -0.0114 C   0  0  0  0  0  0  0  0  0  0  0  0
   -2.0691    1.2123   -0.0471 H   0  0  0  0  0  0  0  0  0  0  0  0
   -1.2199   -0.6759   -0.0000 C   0  0  0  0  0  0  0  0  0  0  0  0
   -2.1047   -1.1654    0.0249 H   0  0  0  0  0  0  0  0  0  0  0  0
   -0.0185   -1.4228   -0.0211 C   0  0  0  0  0  0  0  0  0  0  0  0
   -0.0441   -2.4049   -0.0501 H   0  0  0  0  0  0  0  0  0  0  0  0
    1.2199   -0.7316    0.0000 C   0  0  0  0  0  0  0  0  0  0  0  0
    2.0835   -1.2337    0.0114 H   0  0  0  0  0  0  0  0  0  0  0  0
    1.2315    0.6934    0.0075 C   0  0  0  0  0  0  0  0  0  0  0  0
    2.0838    1.1804    0.0000 H   0  0  0  0  0  0  0  0  0  0  0  0
  1  5  1  0
  5  8  1  0
  1  2  1  0
  1  3  1  0
  1  4  1  0
  5  6  1  0
  5  7  1  0
  8  9  1  0
  8 10  1  0
  8 11  1  0
 12 16  1  0
 16 17  2  0
 17 19  1  0
 19 21  2  0
 21 23  1  0
 23 25  2  0
 25 16  1  0
 12 13  1  0
 12 14  1  0
 12 15  1  0
 17 18  1  0
 19 20  1  0
 21 22  1  0
 23 24  1  0
 25 26  1  0
M  CHG  1   8   1
M  END
>  <PDB_ID>  (1315) 
pdb1umr

>  <RESIDUE_NAME>  (1315) 
LYS   PHE

>  <FRAG_NAME>  (1315) 
ETAM   MBZ

>  <FRAG_ATOM_NUM>  (1315) 
fragi: 11  fragj: 15

>  <atom.prop.CHAIN_ID>  (1315) 
A A A A A A A A A A A Z Z Z Z Z Z Z Z Z Z Z Z Z Z Z

>  <atom.prop.IS_HEAVY_ATOM>  (1315) 
1 0 0 0 1 0 0 1 0 0 0 1 0 0 0 1 1 0 1 0 1 0 1 0 1 0

>  <DIFUSE_FUNC_ATOM>  (1315) 
n/a

>  <FINAL_SINGLE_POINT_ENERGY>  (1315) 
0

>  <NONCOV_INTER_ENERGY_QM>  (1315) 
0

>  <FF_Energy>  (1315) 
-3.73

>  <QM_Energy>  (1315) 
-10.85

>  <source>  (1315) 
ETAM_MBZ

>  <Index>  (1315) 
13129

$$$$
ETAM-pdb1umr-B-LYS-108:MBZ-pdb1umr-B-PHE-117
     RDKit          3D

 26 25  0  0  0  0  0  0  0  0999 V2000
    0.5732   -0.0732    3.2825 C   0  0  0  0  0  0  0  0  0  0  0  0
    0.6695    0.1177    2.3107 H   0  0  0  0  0  0  0  0  0  0  0  0
    0.3108   -1.0211    3.4253 H   0  0  0  0  0  0  0  0  0  0  0  0
    1.5194    0.1229    3.7870 H   0  0  0  0  0  0  0  0  0  0  0  0
   -0.6296    0.8257    3.8135 C   0  0  0  0  0  0  0  0  0  0  0  0
   -0.5229    1.0362    4.7561 H   0  0  0  0  0  0  0  0  0  0  0  0
   -0.7702    1.6002    3.2438 H   0  0  0  0  0  0  0  0  0  0  0  0
   -2.1504   -0.0244    3.7443 N   0  0  0  0  0  4  0  0  0  0  0  0
   -2.4407    0.1490    2.8405 H   0  0  0  0  0  0  0  0  0  0  0  0
   -1.8844   -0.9333    3.9306 H   0  0  0  0  0  0  0  0  0  0  0  0
   -2.6595    0.4128    4.4377 H   0  0  0  0  0  0  0  0  0  0  0  0
    0.0175    2.8457   -0.0825 C   0  0  0  0  0  0  0  0  0  0  0  0
    0.8014    3.1819    0.4207 H   0  0  0  0  0  0  0  0  0  0  0  0
   -0.8278    3.1894    0.3035 H   0  0  0  0  0  0  0  0  0  0  0  0
    0.0926    3.2238   -1.1021 H   0  0  0  0  0  0  0  0  0  0  0  0
    0.0065    1.3856   -0.0223 C   0  0  0  0  0  0  0  0  0  0  0  0
   -1.2149    0.6943    0.0077 C   0  0  0  0  0  0  0  0  0  0  0  0
   -2.0613    1.2132    0.0330 H   0  0  0  0  0  0  0  0  0  0  0  0
   -1.2219   -0.6581   -0.0000 C   0  0  0  0  0  0  0  0  0  0  0  0
   -2.0940   -1.1747   -0.0360 H   0  0  0  0  0  0  0  0  0  0  0  0
   -0.0090   -1.3910    0.0438 C   0  0  0  0  0  0  0  0  0  0  0  0
   -0.0371   -2.3800    0.1045 H   0  0  0  0  0  0  0  0  0  0  0  0
    1.2219   -0.7118    0.0000 C   0  0  0  0  0  0  0  0  0  0  0  0
    2.0831   -1.2198   -0.0087 H   0  0  0  0  0  0  0  0  0  0  0  0
    1.2173    0.6810   -0.0291 C   0  0  0  0  0  0  0  0  0  0  0  0
    2.0771    1.1809   -0.0559 H   0  0  0  0  0  0  0  0  0  0  0  0
  1  5  1  0
  5  8  1  0
  1  2  1  0
  1  3  1  0
  1  4  1  0
  5  6  1  0
  5  7  1  0
  8  9  1  0
  8 10  1  0
  8 11  1  0
 12 16  1  0
 16 17  2  0
 17 19  1  0
 19 21  2  0
 21 23  1  0
 23 25  2  0
 25 16  1  0
 12 13  1  0
 12 14  1  0
 12 15  1  0
 17 18  1  0
 19 20  1  0
 21 22  1  0
 23 24  1  0
 25 26  1  0
M  CHG  1   8   1
M  END
>  <PDB_ID>  (1316) 
pdb1umr

>  <RESIDUE_NAME>  (1316) 
LYS   PHE

>  <FRAG_NAME>  (1316) 
ETAM   MBZ

>  <FRAG_ATOM_NUM>  (1316) 
fragi: 11  fragj: 15

>  <atom.prop.CHAIN_ID>  (1316) 
A A A A A A A A A A A Z Z Z Z Z Z Z Z Z Z Z Z Z Z Z

>  <atom.prop.IS_HEAVY_ATOM>  (1316) 
1 0 0 0 1 0 0 1 0 0 0 1 0 0 0 1 1 0 1 0 1 0 1 0 1 0

>  <DIFUSE_FUNC_ATOM>  (1316) 
n/a

>  <FINAL_SINGLE_POINT_ENERGY>  (1316) 
0

>  <NONCOV_INTER_ENERGY_QM>  (1316) 
0

>  <FF_Energy>  (1316) 
-3.63

>  <QM_Energy>  (1316) 
-10.11

>  <source>  (1316) 
ETAM_MBZ

>  <Index>  (1316) 
13137

$$$$
ETAM-pdb1up7-D-LYS-41:MBZ-pdb1up7-D-PHE-273
     RDKit          3D

 26 25  0  0  0  0  0  0  0  0999 V2000
    0.4476   -3.5982   -2.7004 C   0  0  0  0  0  0  0  0  0  0  0  0
    0.6307   -4.4540   -3.1641 H   0  0  0  0  0  0  0  0  0  0  0  0
    0.3785   -3.7293   -1.7215 H   0  0  0  0  0  0  0  0  0  0  0  0
    1.2594   -2.9013   -2.9092 H   0  0  0  0  0  0  0  0  0  0  0  0
   -0.8665   -3.0393   -3.2110 C   0  0  0  0  0  0  0  0  0  0  0  0
   -0.7872   -2.0454   -3.3073 H   0  0  0  0  0  0  0  0  0  0  0  0
   -1.0709   -3.4413   -4.1060 H   0  0  0  0  0  0  0  0  0  0  0  0
   -1.9983   -3.3451   -2.2732 N   0  0  0  0  0  4  0  0  0  0  0  0
   -2.7610   -2.7344   -2.4740 H   0  0  0  0  0  0  0  0  0  0  0  0
   -2.2798   -4.2932   -2.4024 H   0  0  0  0  0  0  0  0  0  0  0  0
   -1.6899   -3.2066   -1.3347 H   0  0  0  0  0  0  0  0  0  0  0  0
   -0.0139    2.8856    0.0334 C   0  0  0  0  0  0  0  0  0  0  0  0
   -0.7869    3.2036   -0.4883 H   0  0  0  0  0  0  0  0  0  0  0  0
    0.8384    3.2180   -0.3331 H   0  0  0  0  0  0  0  0  0  0  0  0
   -0.1138    3.2723    1.0476 H   0  0  0  0  0  0  0  0  0  0  0  0
    0.0031    1.4027   -0.0060 C   0  0  0  0  0  0  0  0  0  0  0  0
   -1.2081    0.6858    0.0013 C   0  0  0  0  0  0  0  0  0  0  0  0
   -2.0698    1.1821    0.0058 H   0  0  0  0  0  0  0  0  0  0  0  0
   -1.2226   -0.7135    0.0000 C   0  0  0  0  0  0  0  0  0  0  0  0
   -2.0924   -1.2021   -0.0000 H   0  0  0  0  0  0  0  0  0  0  0  0
   -0.0125   -1.3997    0.0006 C   0  0  0  0  0  0  0  0  0  0  0  0
    0.0048   -2.3953    0.0005 H   0  0  0  0  0  0  0  0  0  0  0  0
    1.2226   -0.6845   -0.0000 C   0  0  0  0  0  0  0  0  0  0  0  0
    2.0891   -1.1930   -0.0020 H   0  0  0  0  0  0  0  0  0  0  0  0
    1.2174    0.7092    0.0041 C   0  0  0  0  0  0  0  0  0  0  0  0
    2.0731    1.2105    0.0132 H   0  0  0  0  0  0  0  0  0  0  0  0
  1  5  1  0
  5  8  1  0
  1  2  1  0
  1  3  1  0
  1  4  1  0
  5  6  1  0
  5  7  1  0
  8  9  1  0
  8 10  1  0
  8 11  1  0
 12 16  1  0
 16 17  2  0
 17 19  1  0
 19 21  2  0
 21 23  1  0
 23 25  2  0
 25 16  1  0
 12 13  1  0
 12 14  1  0
 12 15  1  0
 17 18  1  0
 19 20  1  0
 21 22  1  0
 23 24  1  0
 25 26  1  0
M  CHG  1   8   1
M  END
>  <PDB_ID>  (1317) 
pdb1up7

>  <RESIDUE_NAME>  (1317) 
LYS   PHE

>  <FRAG_NAME>  (1317) 
ETAM   MBZ

>  <FRAG_ATOM_NUM>  (1317) 
fragi: 11  fragj: 15

>  <atom.prop.CHAIN_ID>  (1317) 
A A A A A A A A A A A Z Z Z Z Z Z Z Z Z Z Z Z Z Z Z

>  <atom.prop.IS_HEAVY_ATOM>  (1317) 
1 0 0 0 1 0 0 1 0 0 0 1 0 0 0 1 1 0 1 0 1 0 1 0 1 0

>  <DIFUSE_FUNC_ATOM>  (1317) 
n/a

>  <FINAL_SINGLE_POINT_ENERGY>  (1317) 
0

>  <NONCOV_INTER_ENERGY_QM>  (1317) 
0

>  <FF_Energy>  (1317) 
-1.27

>  <QM_Energy>  (1317) 
-7.32

>  <source>  (1317) 
ETAM_MBZ

>  <Index>  (1317) 
13147

$$$$
ETAM-pdb1up8-C-LYS-445:MBZ-pdb1up8-C-PHE-188
     RDKit          3D

 26 25  0  0  0  0  0  0  0  0999 V2000
    1.6909   -1.4961   -3.8567 C   0  0  0  0  0  0  0  0  0  0  0  0
    2.4425   -1.4509   -3.2039 H   0  0  0  0  0  0  0  0  0  0  0  0
    1.9667   -1.0903   -4.7238 H   0  0  0  0  0  0  0  0  0  0  0  0
    1.4203   -2.5394   -4.0191 H   0  0  0  0  0  0  0  0  0  0  0  0
    0.5230   -0.6852   -3.2984 C   0  0  0  0  0  0  0  0  0  0  0  0
    0.1886   -1.1427   -2.4553 H   0  0  0  0  0  0  0  0  0  0  0  0
    0.8703    0.2283   -3.0215 H   0  0  0  0  0  0  0  0  0  0  0  0
   -0.6151   -0.5069   -4.2370 N   0  0  0  0  0  4  0  0  0  0  0  0
   -1.2849    0.1169   -3.8334 H   0  0  0  0  0  0  0  0  0  0  0  0
   -0.2800   -0.1248   -5.0978 H   0  0  0  0  0  0  0  0  0  0  0  0
   -1.0454   -1.3928   -4.4104 H   0  0  0  0  0  0  0  0  0  0  0  0
    0.0027    2.9642   -0.0280 C   0  0  0  0  0  0  0  0  0  0  0  0
   -0.7003    3.2508   -0.6612 H   0  0  0  0  0  0  0  0  0  0  0  0
    0.8986    3.2523   -0.3310 H   0  0  0  0  0  0  0  0  0  0  0  0
   -0.1961    3.4346    0.9349 H   0  0  0  0  0  0  0  0  0  0  0  0
   -0.0015    1.4362   -0.0015 C   0  0  0  0  0  0  0  0  0  0  0  0
   -1.2052    0.7196   -0.0059 C   0  0  0  0  0  0  0  0  0  0  0  0
   -2.0732    1.1951   -0.0144 H   0  0  0  0  0  0  0  0  0  0  0  0
   -1.2141   -0.7115   -0.0000 C   0  0  0  0  0  0  0  0  0  0  0  0
   -2.0905   -1.1893    0.0017 H   0  0  0  0  0  0  0  0  0  0  0  0
    0.0029   -1.4364    0.0053 C   0  0  0  0  0  0  0  0  0  0  0  0
   -0.0087   -2.4196    0.0119 H   0  0  0  0  0  0  0  0  0  0  0  0
    1.2141   -0.7232   -0.0000 C   0  0  0  0  0  0  0  0  0  0  0  0
    2.0966   -1.1995   -0.0038 H   0  0  0  0  0  0  0  0  0  0  0  0
    1.2039    0.7154    0.0020 C   0  0  0  0  0  0  0  0  0  0  0  0
    2.0742    1.1941    0.0050 H   0  0  0  0  0  0  0  0  0  0  0  0
  1  5  1  0
  5  8  1  0
  1  2  1  0
  1  3  1  0
  1  4  1  0
  5  6  1  0
  5  7  1  0
  8  9  1  0
  8 10  1  0
  8 11  1  0
 12 16  1  0
 16 17  2  0
 17 19  1  0
 19 21  2  0
 21 23  1  0
 23 25  2  0
 25 16  1  0
 12 13  1  0
 12 14  1  0
 12 15  1  0
 17 18  1  0
 19 20  1  0
 21 22  1  0
 23 24  1  0
 25 26  1  0
M  CHG  1   8   1
M  END
>  <PDB_ID>  (1318) 
pdb1up8

>  <RESIDUE_NAME>  (1318) 
LYS   PHE

>  <FRAG_NAME>  (1318) 
ETAM   MBZ

>  <FRAG_ATOM_NUM>  (1318) 
fragi: 11  fragj: 15

>  <atom.prop.CHAIN_ID>  (1318) 
A A A A A A A A A A A Z Z Z Z Z Z Z Z Z Z Z Z Z Z Z

>  <atom.prop.IS_HEAVY_ATOM>  (1318) 
1 0 0 0 1 0 0 1 0 0 0 1 0 0 0 1 1 0 1 0 1 0 1 0 1 0

>  <DIFUSE_FUNC_ATOM>  (1318) 
n/a

>  <FINAL_SINGLE_POINT_ENERGY>  (1318) 
0

>  <NONCOV_INTER_ENERGY_QM>  (1318) 
0

>  <FF_Energy>  (1318) 
-4.61

>  <QM_Energy>  (1318) 
-9.86

>  <source>  (1318) 
ETAM_MBZ

>  <Index>  (1318) 
13150

$$$$
ETAM-pdb1usq-F-LYS-59:MBZ-pdb1usq-F-PHE-65
     RDKit          3D

 26 25  0  0  0  0  0  0  0  0999 V2000
    3.5151   -4.0374   -4.1349 C   0  0  0  0  0  0  0  0  0  0  0  0
    2.9923   -4.1466   -4.9710 H   0  0  0  0  0  0  0  0  0  0  0  0
    4.1960   -4.7536   -4.0501 H   0  0  0  0  0  0  0  0  0  0  0  0
    4.0129   -3.0678   -4.1474 H   0  0  0  0  0  0  0  0  0  0  0  0
    2.5526   -4.1472   -2.9480 C   0  0  0  0  0  0  0  0  0  0  0  0
    1.6593   -3.7873   -3.2263 H   0  0  0  0  0  0  0  0  0  0  0  0
    2.4528   -5.1149   -2.7039 H   0  0  0  0  0  0  0  0  0  0  0  0
    3.0415   -3.3892   -1.7622 N   0  0  0  0  0  4  0  0  0  0  0  0
    3.4510   -4.0250   -1.1095 H   0  0  0  0  0  0  0  0  0  0  0  0
    3.7259   -2.7218   -2.0552 H   0  0  0  0  0  0  0  0  0  0  0  0
    2.2737   -2.9155   -1.3324 H   0  0  0  0  0  0  0  0  0  0  0  0
    0.0039    2.8966   -0.1003 C   0  0  0  0  0  0  0  0  0  0  0  0
   -0.8190    3.1743   -0.5745 H   0  0  0  0  0  0  0  0  0  0  0  0
    0.8137    3.1721   -0.5992 H   0  0  0  0  0  0  0  0  0  0  0  0
    0.0193    3.4012    0.8657 H   0  0  0  0  0  0  0  0  0  0  0  0
    0.0036    1.3992   -0.0068 C   0  0  0  0  0  0  0  0  0  0  0  0
   -1.1895    0.6932   -0.0206 C   0  0  0  0  0  0  0  0  0  0  0  0
   -2.0576    1.1815   -0.0470 H   0  0  0  0  0  0  0  0  0  0  0  0
   -1.1954   -0.6981    0.0000 C   0  0  0  0  0  0  0  0  0  0  0  0
   -2.0789   -1.1855   -0.0034 H   0  0  0  0  0  0  0  0  0  0  0  0
   -0.0082   -1.3900    0.0268 C   0  0  0  0  0  0  0  0  0  0  0  0
   -0.0058   -2.3888    0.0647 H   0  0  0  0  0  0  0  0  0  0  0  0
    1.1954   -0.6934   -0.0000 C   0  0  0  0  0  0  0  0  0  0  0  0
    2.0750   -1.1976   -0.0184 H   0  0  0  0  0  0  0  0  0  0  0  0
    1.1941    0.6892    0.0006 C   0  0  0  0  0  0  0  0  0  0  0  0
    2.0646    1.1861    0.0050 H   0  0  0  0  0  0  0  0  0  0  0  0
  1  5  1  0
  5  8  1  0
  1  2  1  0
  1  3  1  0
  1  4  1  0
  5  6  1  0
  5  7  1  0
  8  9  1  0
  8 10  1  0
  8 11  1  0
 12 16  1  0
 16 17  2  0
 17 19  1  0
 19 21  2  0
 21 23  1  0
 23 25  2  0
 25 16  1  0
 12 13  1  0
 12 14  1  0
 12 15  1  0
 17 18  1  0
 19 20  1  0
 21 22  1  0
 23 24  1  0
 25 26  1  0
M  CHG  1   8   1
M  END
>  <PDB_ID>  (1319) 
pdb1usq

>  <RESIDUE_NAME>  (1319) 
LYS   PHE

>  <FRAG_NAME>  (1319) 
ETAM   MBZ

>  <FRAG_ATOM_NUM>  (1319) 
fragi: 11  fragj: 15

>  <atom.prop.CHAIN_ID>  (1319) 
A A A A A A A A A A A Z Z Z Z Z Z Z Z Z Z Z Z Z Z Z

>  <atom.prop.IS_HEAVY_ATOM>  (1319) 
1 0 0 0 1 0 0 1 0 0 0 1 0 0 0 1 1 0 1 0 1 0 1 0 1 0

>  <DIFUSE_FUNC_ATOM>  (1319) 
n/a

>  <FINAL_SINGLE_POINT_ENERGY>  (1319) 
0

>  <NONCOV_INTER_ENERGY_QM>  (1319) 
0

>  <FF_Energy>  (1319) 
0.25

>  <QM_Energy>  (1319) 
-4.85

>  <source>  (1319) 
ETAM_MBZ

>  <Index>  (1319) 
13179

$$$$
ETAM-pdb1ut4-B-LYS-62:MBZ-pdb1ut4-B-PHE-54
     RDKit          3D

 26 25  0  0  0  0  0  0  0  0999 V2000
   -0.5380   -1.6572    3.8114 C   0  0  0  0  0  0  0  0  0  0  0  0
    0.1464   -1.2605    3.2190 H   0  0  0  0  0  0  0  0  0  0  0  0
   -0.3486   -2.6084    3.9977 H   0  0  0  0  0  0  0  0  0  0  0  0
   -0.5613   -1.1052    4.7510 H   0  0  0  0  0  0  0  0  0  0  0  0
   -1.9012   -1.5677    3.1000 C   0  0  0  0  0  0  0  0  0  0  0  0
   -2.6292   -1.4921    3.8011 H   0  0  0  0  0  0  0  0  0  0  0  0
   -1.9255   -0.7158    2.5495 H   0  0  0  0  0  0  0  0  0  0  0  0
   -2.2452   -2.7373    2.1813 N   0  0  0  0  0  4  0  0  0  0  0  0
   -3.2044   -2.9629    2.3083 H   0  0  0  0  0  0  0  0  0  0  0  0
   -2.0734   -2.4593    1.2435 H   0  0  0  0  0  0  0  0  0  0  0  0
   -1.6692   -3.5081    2.4283 H   0  0  0  0  0  0  0  0  0  0  0  0
   -0.0018    2.9228   -0.0168 C   0  0  0  0  0  0  0  0  0  0  0  0
    0.8961    3.2334    0.2536 H   0  0  0  0  0  0  0  0  0  0  0  0
   -0.6972    3.2370    0.6108 H   0  0  0  0  0  0  0  0  0  0  0  0
   -0.2199    3.3530   -0.9942 H   0  0  0  0  0  0  0  0  0  0  0  0
   -0.0015    1.4174    0.0002 C   0  0  0  0  0  0  0  0  0  0  0  0
   -1.1953    0.7158    0.0008 C   0  0  0  0  0  0  0  0  0  0  0  0
   -2.0657    1.1862    0.0003 H   0  0  0  0  0  0  0  0  0  0  0  0
   -1.2011   -0.7137    0.0000 C   0  0  0  0  0  0  0  0  0  0  0  0
   -2.0799   -1.1892   -0.0004 H   0  0  0  0  0  0  0  0  0  0  0  0
    0.0033   -1.4126    0.0011 C   0  0  0  0  0  0  0  0  0  0  0  0
   -0.0002   -2.4078    0.0025 H   0  0  0  0  0  0  0  0  0  0  0  0
    1.2011   -0.7099   -0.0000 C   0  0  0  0  0  0  0  0  0  0  0  0
    2.0866   -1.1943    0.0020 H   0  0  0  0  0  0  0  0  0  0  0  0
    1.1935    0.7030   -0.0021 C   0  0  0  0  0  0  0  0  0  0  0  0
    2.0660    1.1896   -0.0062 H   0  0  0  0  0  0  0  0  0  0  0  0
  1  5  1  0
  5  8  1  0
  1  2  1  0
  1  3  1  0
  1  4  1  0
  5  6  1  0
  5  7  1  0
  8  9  1  0
  8 10  1  0
  8 11  1  0
 12 16  1  0
 16 17  2  0
 17 19  1  0
 19 21  2  0
 21 23  1  0
 23 25  2  0
 25 16  1  0
 12 13  1  0
 12 14  1  0
 12 15  1  0
 17 18  1  0
 19 20  1  0
 21 22  1  0
 23 24  1  0
 25 26  1  0
M  CHG  1   8   1
M  END
>  <PDB_ID>  (1320) 
pdb1ut4

>  <RESIDUE_NAME>  (1320) 
LYS   PHE

>  <FRAG_NAME>  (1320) 
ETAM   MBZ

>  <FRAG_ATOM_NUM>  (1320) 
fragi: 11  fragj: 15

>  <atom.prop.CHAIN_ID>  (1320) 
A A A A A A A A A A A Z Z Z Z Z Z Z Z Z Z Z Z Z Z Z

>  <atom.prop.IS_HEAVY_ATOM>  (1320) 
1 0 0 0 1 0 0 1 0 0 0 1 0 0 0 1 1 0 1 0 1 0 1 0 1 0

>  <DIFUSE_FUNC_ATOM>  (1320) 
n/a

>  <FINAL_SINGLE_POINT_ENERGY>  (1320) 
0

>  <NONCOV_INTER_ENERGY_QM>  (1320) 
0

>  <FF_Energy>  (1320) 
-0.75

>  <QM_Energy>  (1320) 
-8.69

>  <source>  (1320) 
ETAM_MBZ

>  <Index>  (1320) 
13181

$$$$
ETAM-pdb1usc-A-LYS-80:MBZ-pdb1usc-B-PHE-176
     RDKit          3D

 26 25  0  0  0  0  0  0  0  0999 V2000
   -0.0953    4.4775   -3.7248 C   0  0  0  0  0  0  0  0  0  0  0  0
    0.7972    4.8310   -3.9926 H   0  0  0  0  0  0  0  0  0  0  0  0
   -0.3833    4.8909   -2.8656 H   0  0  0  0  0  0  0  0  0  0  0  0
   -0.8199    4.7314   -4.4985 H   0  0  0  0  0  0  0  0  0  0  0  0
    0.0180    2.9748   -3.5259 C   0  0  0  0  0  0  0  0  0  0  0  0
   -0.8176    2.6415   -3.0833 H   0  0  0  0  0  0  0  0  0  0  0  0
    0.1107    2.5335   -4.4221 H   0  0  0  0  0  0  0  0  0  0  0  0
    1.1924    2.6193   -2.6826 N   0  0  0  0  0  4  0  0  0  0  0  0
    2.0201    3.0119   -3.0840 H   0  0  0  0  0  0  0  0  0  0  0  0
    1.0613    2.9846   -1.7612 H   0  0  0  0  0  0  0  0  0  0  0  0
    1.2803    1.6241   -2.6392 H   0  0  0  0  0  0  0  0  0  0  0  0
   -0.0007    2.9131    0.0118 C   0  0  0  0  0  0  0  0  0  0  0  0
   -0.5844    3.2235   -0.7230 H   0  0  0  0  0  0  0  0  0  0  0  0
    0.9308    3.2202   -0.1138 H   0  0  0  0  0  0  0  0  0  0  0  0
   -0.3726    3.3486    0.9393 H   0  0  0  0  0  0  0  0  0  0  0  0
    0.0004    1.4057    0.0001 C   0  0  0  0  0  0  0  0  0  0  0  0
   -1.1967    0.6932   -0.0008 C   0  0  0  0  0  0  0  0  0  0  0  0
   -2.0642    1.1834   -0.0036 H   0  0  0  0  0  0  0  0  0  0  0  0
   -1.2030   -0.6998    0.0000 C   0  0  0  0  0  0  0  0  0  0  0  0
   -2.0796   -1.1914    0.0019 H   0  0  0  0  0  0  0  0  0  0  0  0
   -0.0008   -1.3972    0.0005 C   0  0  0  0  0  0  0  0  0  0  0  0
   -0.0035   -2.3949    0.0007 H   0  0  0  0  0  0  0  0  0  0  0  0
    1.2030   -0.6988   -0.0000 C   0  0  0  0  0  0  0  0  0  0  0  0
    2.0832   -1.1946    0.0006 H   0  0  0  0  0  0  0  0  0  0  0  0
    1.1971    0.6968    0.0001 C   0  0  0  0  0  0  0  0  0  0  0  0
    2.0653    1.1918   -0.0005 H   0  0  0  0  0  0  0  0  0  0  0  0
  1  5  1  0
  5  8  1  0
  1  2  1  0
  1  3  1  0
  1  4  1  0
  5  6  1  0
  5  7  1  0
  8  9  1  0
  8 10  1  0
  8 11  1  0
 12 16  1  0
 16 17  2  0
 17 19  1  0
 19 21  2  0
 21 23  1  0
 23 25  2  0
 25 16  1  0
 12 13  1  0
 12 14  1  0
 12 15  1  0
 17 18  1  0
 19 20  1  0
 21 22  1  0
 23 24  1  0
 25 26  1  0
M  CHG  1   8   1
M  END
>  <PDB_ID>  (1321) 
pdb1usc

>  <RESIDUE_NAME>  (1321) 
LYS   PHE

>  <FRAG_NAME>  (1321) 
ETAM   MBZ

>  <FRAG_ATOM_NUM>  (1321) 
fragi: 11  fragj: 15

>  <atom.prop.CHAIN_ID>  (1321) 
A A A A A A A A A A A Z Z Z Z Z Z Z Z Z Z Z Z Z Z Z

>  <atom.prop.IS_HEAVY_ATOM>  (1321) 
1 0 0 0 1 0 0 1 0 0 0 1 0 0 0 1 1 0 1 0 1 0 1 0 1 0

>  <DIFUSE_FUNC_ATOM>  (1321) 
n/a

>  <FINAL_SINGLE_POINT_ENERGY>  (1321) 
0

>  <NONCOV_INTER_ENERGY_QM>  (1321) 
0

>  <FF_Energy>  (1321) 
-2.42

>  <QM_Energy>  (1321) 
-8.61

>  <source>  (1321) 
ETAM_MBZ

>  <Index>  (1321) 
13184

$$$$
ETAM-pdb1utc-A-LYS-246:MBZ-pdb1utc-A-PHE-243
     RDKit          3D

 26 25  0  0  0  0  0  0  0  0999 V2000
    2.0578   -3.5677    3.9283 C   0  0  0  0  0  0  0  0  0  0  0  0
    2.1771   -4.4157    4.4384 H   0  0  0  0  0  0  0  0  0  0  0  0
    2.6579   -2.8619    4.2950 H   0  0  0  0  0  0  0  0  0  0  0  0
    2.3191   -3.7455    2.8851 H   0  0  0  0  0  0  0  0  0  0  0  0
    0.5951   -3.0974    4.1140 C   0  0  0  0  0  0  0  0  0  0  0  0
   -0.0160   -3.8697    3.8927 H   0  0  0  0  0  0  0  0  0  0  0  0
    0.4587   -2.8632    5.0869 H   0  0  0  0  0  0  0  0  0  0  0  0
    0.2163   -1.9147    3.2684 N   0  0  0  0  0  4  0  0  0  0  0  0
    1.0323   -1.3699    3.0882 H   0  0  0  0  0  0  0  0  0  0  0  0
   -0.1716   -2.2409    2.4092 H   0  0  0  0  0  0  0  0  0  0  0  0
   -0.4567   -1.3672    3.7589 H   0  0  0  0  0  0  0  0  0  0  0  0
    0.0158    2.8960    0.0007 C   0  0  0  0  0  0  0  0  0  0  0  0
   -0.7340    3.2142   -0.5648 H   0  0  0  0  0  0  0  0  0  0  0  0
    0.8866    3.1997   -0.3642 H   0  0  0  0  0  0  0  0  0  0  0  0
   -0.1016    3.3580    0.9808 H   0  0  0  0  0  0  0  0  0  0  0  0
    0.0022    1.4028    0.0085 C   0  0  0  0  0  0  0  0  0  0  0  0
   -1.1815    0.7086   -0.0025 C   0  0  0  0  0  0  0  0  0  0  0  0
   -2.0556    1.1823   -0.0134 H   0  0  0  0  0  0  0  0  0  0  0  0
   -1.1904   -0.7091   -0.0000 C   0  0  0  0  0  0  0  0  0  0  0  0
   -2.0765   -1.1820    0.0094 H   0  0  0  0  0  0  0  0  0  0  0  0
   -0.0058   -1.3976   -0.0087 C   0  0  0  0  0  0  0  0  0  0  0  0
   -0.0002   -2.3971   -0.0219 H   0  0  0  0  0  0  0  0  0  0  0  0
    1.1904   -0.6960   -0.0000 C   0  0  0  0  0  0  0  0  0  0  0  0
    2.0752   -1.1931    0.0059 H   0  0  0  0  0  0  0  0  0  0  0  0
    1.1851    0.6912    0.0027 C   0  0  0  0  0  0  0  0  0  0  0  0
    2.0613    1.1852   -0.0003 H   0  0  0  0  0  0  0  0  0  0  0  0
  1  5  1  0
  5  8  1  0
  1  2  1  0
  1  3  1  0
  1  4  1  0
  5  6  1  0
  5  7  1  0
  8  9  1  0
  8 10  1  0
  8 11  1  0
 12 16  1  0
 16 17  2  0
 17 19  1  0
 19 21  2  0
 21 23  1  0
 23 25  2  0
 25 16  1  0
 12 13  1  0
 12 14  1  0
 12 15  1  0
 17 18  1  0
 19 20  1  0
 21 22  1  0
 23 24  1  0
 25 26  1  0
M  CHG  1   8   1
M  END
>  <PDB_ID>  (1322) 
pdb1utc

>  <RESIDUE_NAME>  (1322) 
LYS   PHE

>  <FRAG_NAME>  (1322) 
ETAM   MBZ

>  <FRAG_ATOM_NUM>  (1322) 
fragi: 11  fragj: 15

>  <atom.prop.CHAIN_ID>  (1322) 
A A A A A A A A A A A Z Z Z Z Z Z Z Z Z Z Z Z Z Z Z

>  <atom.prop.IS_HEAVY_ATOM>  (1322) 
1 0 0 0 1 0 0 1 0 0 0 1 0 0 0 1 1 0 1 0 1 0 1 0 1 0

>  <DIFUSE_FUNC_ATOM>  (1322) 
n/a

>  <FINAL_SINGLE_POINT_ENERGY>  (1322) 
0

>  <NONCOV_INTER_ENERGY_QM>  (1322) 
0

>  <FF_Energy>  (1322) 
-5.0

>  <QM_Energy>  (1322) 
-11.26

>  <source>  (1322) 
ETAM_MBZ

>  <Index>  (1322) 
13185

$$$$
ETAM-pdb1utc-B-LYS-246:MBZ-pdb1utc-B-PHE-243
     RDKit          3D

 26 25  0  0  0  0  0  0  0  0999 V2000
    2.7293   -3.3133    3.9710 C   0  0  0  0  0  0  0  0  0  0  0  0
    2.9174   -4.1358    4.5012 H   0  0  0  0  0  0  0  0  0  0  0  0
    3.4227   -2.6222    4.1533 H   0  0  0  0  0  0  0  0  0  0  0  0
    2.7502   -3.5646    2.9106 H   0  0  0  0  0  0  0  0  0  0  0  0
    1.3668   -2.7564    4.4147 C   0  0  0  0  0  0  0  0  0  0  0  0
    0.7443   -3.5386    4.6077 H   0  0  0  0  0  0  0  0  0  0  0  0
    1.4905   -2.2588    5.2943 H   0  0  0  0  0  0  0  0  0  0  0  0
    0.6700   -1.8252    3.4378 N   0  0  0  0  0  4  0  0  0  0  0  0
   -0.2879   -1.7558    3.6954 H   0  0  0  0  0  0  0  0  0  0  0  0
    1.1065   -0.9332    3.4849 H   0  0  0  0  0  0  0  0  0  0  0  0
    0.7561   -2.2052    2.5229 H   0  0  0  0  0  0  0  0  0  0  0  0
   -0.0071    2.9116   -0.0867 C   0  0  0  0  0  0  0  0  0  0  0  0
   -0.9044    3.1933   -0.4061 H   0  0  0  0  0  0  0  0  0  0  0  0
    0.6951    3.1802   -0.7349 H   0  0  0  0  0  0  0  0  0  0  0  0
    0.1904    3.4299    0.8516 H   0  0  0  0  0  0  0  0  0  0  0  0
   -0.0024    1.3994   -0.0021 C   0  0  0  0  0  0  0  0  0  0  0  0
   -1.1908    0.6918   -0.0122 C   0  0  0  0  0  0  0  0  0  0  0  0
   -2.0618    1.1744   -0.0296 H   0  0  0  0  0  0  0  0  0  0  0  0
   -1.1897   -0.7033    0.0000 C   0  0  0  0  0  0  0  0  0  0  0  0
   -2.0655   -1.1971   -0.0045 H   0  0  0  0  0  0  0  0  0  0  0  0
    0.0101   -1.3849    0.0194 C   0  0  0  0  0  0  0  0  0  0  0  0
    0.0086   -2.3885    0.0477 H   0  0  0  0  0  0  0  0  0  0  0  0
    1.1897   -0.6901   -0.0000 C   0  0  0  0  0  0  0  0  0  0  0  0
    2.0812   -1.1851   -0.0093 H   0  0  0  0  0  0  0  0  0  0  0  0
    1.1830    0.6871   -0.0052 C   0  0  0  0  0  0  0  0  0  0  0  0
    2.0570    1.1865   -0.0121 H   0  0  0  0  0  0  0  0  0  0  0  0
  1  5  1  0
  5  8  1  0
  1  2  1  0
  1  3  1  0
  1  4  1  0
  5  6  1  0
  5  7  1  0
  8  9  1  0
  8 10  1  0
  8 11  1  0
 12 16  1  0
 16 17  2  0
 17 19  1  0
 19 21  2  0
 21 23  1  0
 23 25  2  0
 25 16  1  0
 12 13  1  0
 12 14  1  0
 12 15  1  0
 17 18  1  0
 19 20  1  0
 21 22  1  0
 23 24  1  0
 25 26  1  0
M  CHG  1   8   1
M  END
>  <PDB_ID>  (1323) 
pdb1utc

>  <RESIDUE_NAME>  (1323) 
LYS   PHE

>  <FRAG_NAME>  (1323) 
ETAM   MBZ

>  <FRAG_ATOM_NUM>  (1323) 
fragi: 11  fragj: 15

>  <atom.prop.CHAIN_ID>  (1323) 
A A A A A A A A A A A Z Z Z Z Z Z Z Z Z Z Z Z Z Z Z

>  <atom.prop.IS_HEAVY_ATOM>  (1323) 
1 0 0 0 1 0 0 1 0 0 0 1 0 0 0 1 1 0 1 0 1 0 1 0 1 0

>  <DIFUSE_FUNC_ATOM>  (1323) 
n/a

>  <FINAL_SINGLE_POINT_ENERGY>  (1323) 
0

>  <NONCOV_INTER_ENERGY_QM>  (1323) 
0

>  <FF_Energy>  (1323) 
-4.57

>  <QM_Energy>  (1323) 
-10.07

>  <source>  (1323) 
ETAM_MBZ

>  <Index>  (1323) 
13186

$$$$
ETAM-pdb1up8-A-LYS-498:MBZ-pdb1up8-A-PHE-590
     RDKit          3D

 26 25  0  0  0  0  0  0  0  0999 V2000
    5.2937   -1.5413    3.3054 C   0  0  0  0  0  0  0  0  0  0  0  0
    5.6807   -0.7870    3.7891 H   0  0  0  0  0  0  0  0  0  0  0  0
    5.6035   -1.6148    2.3833 H   0  0  0  0  0  0  0  0  0  0  0  0
    5.5483   -2.4604    3.8331 H   0  0  0  0  0  0  0  0  0  0  0  0
    3.7523   -1.3862    3.2984 C   0  0  0  0  0  0  0  0  0  0  0  0
    3.3579   -2.2430    2.9485 H   0  0  0  0  0  0  0  0  0  0  0  0
    3.4500   -1.2619    4.2497 H   0  0  0  0  0  0  0  0  0  0  0  0
    3.2969   -0.2510    2.4749 N   0  0  0  0  0  4  0  0  0  0  0  0
    4.0387    0.0498    1.8726 H   0  0  0  0  0  0  0  0  0  0  0  0
    2.5130   -0.5306    1.9172 H   0  0  0  0  0  0  0  0  0  0  0  0
    3.0246    0.5095    3.0673 H   0  0  0  0  0  0  0  0  0  0  0  0
   -0.0080    2.9243   -0.0001 C   0  0  0  0  0  0  0  0  0  0  0  0
   -0.8892    3.2197    0.3376 H   0  0  0  0  0  0  0  0  0  0  0  0
    0.1447    3.2303   -0.9273 H   0  0  0  0  0  0  0  0  0  0  0  0
    0.7590    3.3739    0.6306 H   0  0  0  0  0  0  0  0  0  0  0  0
    0.0033    1.4102   -0.0043 C   0  0  0  0  0  0  0  0  0  0  0  0
   -1.1863    0.7054    0.0005 C   0  0  0  0  0  0  0  0  0  0  0  0
   -2.0590    1.1860    0.0030 H   0  0  0  0  0  0  0  0  0  0  0  0
   -1.2002   -0.7074    0.0000 C   0  0  0  0  0  0  0  0  0  0  0  0
   -2.0899   -1.1776   -0.0015 H   0  0  0  0  0  0  0  0  0  0  0  0
   -0.0216   -1.4015    0.0030 C   0  0  0  0  0  0  0  0  0  0  0  0
   -0.0120   -2.3998    0.0063 H   0  0  0  0  0  0  0  0  0  0  0  0
    1.2002   -0.7014    0.0000 C   0  0  0  0  0  0  0  0  0  0  0  0
    2.0724   -1.2077   -0.0011 H   0  0  0  0  0  0  0  0  0  0  0  0
    1.2046    0.6948    0.0009 C   0  0  0  0  0  0  0  0  0  0  0  0
    2.0709    1.1865    0.0042 H   0  0  0  0  0  0  0  0  0  0  0  0
  1  5  1  0
  5  8  1  0
  1  2  1  0
  1  3  1  0
  1  4  1  0
  5  6  1  0
  5  7  1  0
  8  9  1  0
  8 10  1  0
  8 11  1  0
 12 16  1  0
 16 17  2  0
 17 19  1  0
 19 21  2  0
 21 23  1  0
 23 25  2  0
 25 16  1  0
 12 13  1  0
 12 14  1  0
 12 15  1  0
 17 18  1  0
 19 20  1  0
 21 22  1  0
 23 24  1  0
 25 26  1  0
M  CHG  1   8   1
M  END
>  <PDB_ID>  (1324) 
pdb1up8

>  <RESIDUE_NAME>  (1324) 
LYS   PHE

>  <FRAG_NAME>  (1324) 
ETAM   MBZ

>  <FRAG_ATOM_NUM>  (1324) 
fragi: 11  fragj: 15

>  <atom.prop.CHAIN_ID>  (1324) 
A A A A A A A A A A A Z Z Z Z Z Z Z Z Z Z Z Z Z Z Z

>  <atom.prop.IS_HEAVY_ATOM>  (1324) 
1 0 0 0 1 0 0 1 0 0 0 1 0 0 0 1 1 0 1 0 1 0 1 0 1 0

>  <DIFUSE_FUNC_ATOM>  (1324) 
n/a

>  <FINAL_SINGLE_POINT_ENERGY>  (1324) 
0

>  <NONCOV_INTER_ENERGY_QM>  (1324) 
0

>  <FF_Energy>  (1324) 
-2.18

>  <QM_Energy>  (1324) 
-9.52

>  <source>  (1324) 
ETAM_MBZ

>  <Index>  (1324) 
13201

$$$$
ETAM-pdb1v2a-C-LYS-20:MBZ-pdb1v2a-C-PHE-194
     RDKit          3D

 26 25  0  0  0  0  0  0  0  0999 V2000
   -2.7838    3.2667   -4.2189 C   0  0  0  0  0  0  0  0  0  0  0  0
   -1.9619    2.7725   -4.5125 H   0  0  0  0  0  0  0  0  0  0  0  0
   -2.5777    4.2468   -4.1731 H   0  0  0  0  0  0  0  0  0  0  0  0
   -3.5706    3.1077   -4.9563 H   0  0  0  0  0  0  0  0  0  0  0  0
   -3.1688    2.7897   -2.8440 C   0  0  0  0  0  0  0  0  0  0  0  0
   -3.8504    3.4014   -2.4590 H   0  0  0  0  0  0  0  0  0  0  0  0
   -3.5230    1.8642   -2.9008 H   0  0  0  0  0  0  0  0  0  0  0  0
   -1.9590    2.7977   -1.9765 N   0  0  0  0  0  4  0  0  0  0  0  0
   -2.2319    2.9649   -1.0293 H   0  0  0  0  0  0  0  0  0  0  0  0
   -1.4987    1.9133   -2.0417 H   0  0  0  0  0  0  0  0  0  0  0  0
   -1.3389    3.5210   -2.2797 H   0  0  0  0  0  0  0  0  0  0  0  0
    0.0070    2.8840    0.0088 C   0  0  0  0  0  0  0  0  0  0  0  0
   -0.6767    3.2017   -0.6345 H   0  0  0  0  0  0  0  0  0  0  0  0
    0.9112    3.1919   -0.2531 H   0  0  0  0  0  0  0  0  0  0  0  0
   -0.2235    3.3197    0.9810 H   0  0  0  0  0  0  0  0  0  0  0  0
   -0.0001    1.3949   -0.0002 C   0  0  0  0  0  0  0  0  0  0  0  0
   -1.1956    0.6943    0.0009 C   0  0  0  0  0  0  0  0  0  0  0  0
   -2.0620    1.1842    0.0012 H   0  0  0  0  0  0  0  0  0  0  0  0
   -1.2008   -0.6969    0.0000 C   0  0  0  0  0  0  0  0  0  0  0  0
   -2.0767   -1.1901    0.0012 H   0  0  0  0  0  0  0  0  0  0  0  0
    0.0008   -1.3876   -0.0002 C   0  0  0  0  0  0  0  0  0  0  0  0
   -0.0009   -2.3883   -0.0006 H   0  0  0  0  0  0  0  0  0  0  0  0
    1.2008   -0.6918    0.0000 C   0  0  0  0  0  0  0  0  0  0  0  0
    2.0809   -1.1946    0.0019 H   0  0  0  0  0  0  0  0  0  0  0  0
    1.1949    0.6870   -0.0005 C   0  0  0  0  0  0  0  0  0  0  0  0
    2.0634    1.1894   -0.0013 H   0  0  0  0  0  0  0  0  0  0  0  0
  1  5  1  0
  5  8  1  0
  1  2  1  0
  1  3  1  0
  1  4  1  0
  5  6  1  0
  5  7  1  0
  8  9  1  0
  8 10  1  0
  8 11  1  0
 12 16  1  0
 16 17  2  0
 17 19  1  0
 19 21  2  0
 21 23  1  0
 23 25  2  0
 25 16  1  0
 12 13  1  0
 12 14  1  0
 12 15  1  0
 17 18  1  0
 19 20  1  0
 21 22  1  0
 23 24  1  0
 25 26  1  0
M  CHG  1   8   1
M  END
>  <PDB_ID>  (1325) 
pdb1v2a

>  <RESIDUE_NAME>  (1325) 
LYS   PHE

>  <FRAG_NAME>  (1325) 
ETAM   MBZ

>  <FRAG_ATOM_NUM>  (1325) 
fragi: 11  fragj: 15

>  <atom.prop.CHAIN_ID>  (1325) 
A A A A A A A A A A A Z Z Z Z Z Z Z Z Z Z Z Z Z Z Z

>  <atom.prop.IS_HEAVY_ATOM>  (1325) 
1 0 0 0 1 0 0 1 0 0 0 1 0 0 0 1 1 0 1 0 1 0 1 0 1 0

>  <DIFUSE_FUNC_ATOM>  (1325) 
n/a

>  <FINAL_SINGLE_POINT_ENERGY>  (1325) 
0

>  <NONCOV_INTER_ENERGY_QM>  (1325) 
0

>  <FF_Energy>  (1325) 
36.4

>  <QM_Energy>  (1325) 
3.14

>  <source>  (1325) 
ETAM_MBZ

>  <Index>  (1325) 
13228

$$$$
ETAM-pdb1v2a-D-LYS-20:MBZ-pdb1v2a-D-PHE-194
     RDKit          3D

 26 25  0  0  0  0  0  0  0  0999 V2000
   -3.2735    2.4461   -4.0971 C   0  0  0  0  0  0  0  0  0  0  0  0
   -3.3769    1.6438   -3.5123 H   0  0  0  0  0  0  0  0  0  0  0  0
   -2.4475    2.3561   -4.6504 H   0  0  0  0  0  0  0  0  0  0  0  0
   -4.1357    2.5091   -4.7610 H   0  0  0  0  0  0  0  0  0  0  0  0
   -3.1418    3.6703   -3.2247 C   0  0  0  0  0  0  0  0  0  0  0  0
   -2.9084    4.4571   -3.7954 H   0  0  0  0  0  0  0  0  0  0  0  0
   -4.0119    3.8404   -2.7631 H   0  0  0  0  0  0  0  0  0  0  0  0
   -2.0815    3.4688   -2.2112 N   0  0  0  0  0  4  0  0  0  0  0  0
   -1.2941    3.0186   -2.6343 H   0  0  0  0  0  0  0  0  0  0  0  0
   -1.7983    4.3550   -1.8417 H   0  0  0  0  0  0  0  0  0  0  0  0
   -2.4316    2.8966   -1.4689 H   0  0  0  0  0  0  0  0  0  0  0  0
    0.0072    2.9055    0.0388 C   0  0  0  0  0  0  0  0  0  0  0  0
   -0.6902    3.2310   -0.5831 H   0  0  0  0  0  0  0  0  0  0  0  0
    0.9059    3.2148   -0.2360 H   0  0  0  0  0  0  0  0  0  0  0  0
   -0.2020    3.3261    1.0224 H   0  0  0  0  0  0  0  0  0  0  0  0
    0.0001    1.4014   -0.0002 C   0  0  0  0  0  0  0  0  0  0  0  0
   -1.1946    0.6954    0.0003 C   0  0  0  0  0  0  0  0  0  0  0  0
   -2.0623    1.1842   -0.0005 H   0  0  0  0  0  0  0  0  0  0  0  0
   -1.2006   -0.6969    0.0000 C   0  0  0  0  0  0  0  0  0  0  0  0
   -2.0784   -1.1886   -0.0000 H   0  0  0  0  0  0  0  0  0  0  0  0
   -0.0011   -1.3932    0.0008 C   0  0  0  0  0  0  0  0  0  0  0  0
   -0.0051   -2.3924    0.0018 H   0  0  0  0  0  0  0  0  0  0  0  0
    1.2006   -0.6976    0.0000 C   0  0  0  0  0  0  0  0  0  0  0  0
    2.0812   -1.1961    0.0014 H   0  0  0  0  0  0  0  0  0  0  0  0
    1.1957    0.6907   -0.0010 C   0  0  0  0  0  0  0  0  0  0  0  0
    2.0649    1.1885   -0.0027 H   0  0  0  0  0  0  0  0  0  0  0  0
  1  5  1  0
  5  8  1  0
  1  2  1  0
  1  3  1  0
  1  4  1  0
  5  6  1  0
  5  7  1  0
  8  9  1  0
  8 10  1  0
  8 11  1  0
 12 16  1  0
 16 17  2  0
 17 19  1  0
 19 21  2  0
 21 23  1  0
 23 25  2  0
 25 16  1  0
 12 13  1  0
 12 14  1  0
 12 15  1  0
 17 18  1  0
 19 20  1  0
 21 22  1  0
 23 24  1  0
 25 26  1  0
M  CHG  1   8   1
M  END
>  <PDB_ID>  (1326) 
pdb1v2a

>  <RESIDUE_NAME>  (1326) 
LYS   PHE

>  <FRAG_NAME>  (1326) 
ETAM   MBZ

>  <FRAG_ATOM_NUM>  (1326) 
fragi: 11  fragj: 15

>  <atom.prop.CHAIN_ID>  (1326) 
A A A A A A A A A A A Z Z Z Z Z Z Z Z Z Z Z Z Z Z Z

>  <atom.prop.IS_HEAVY_ATOM>  (1326) 
1 0 0 0 1 0 0 1 0 0 0 1 0 0 0 1 1 0 1 0 1 0 1 0 1 0

>  <DIFUSE_FUNC_ATOM>  (1326) 
n/a

>  <FINAL_SINGLE_POINT_ENERGY>  (1326) 
0

>  <NONCOV_INTER_ENERGY_QM>  (1326) 
0

>  <FF_Energy>  (1326) 
5.66

>  <QM_Energy>  (1326) 
-2.24

>  <source>  (1326) 
ETAM_MBZ

>  <Index>  (1326) 
13230

$$$$
ETAM-pdb1up8-B-LYS-498:MBZ-pdb1up8-B-PHE-590
     RDKit          3D

 26 25  0  0  0  0  0  0  0  0999 V2000
    5.4379   -1.4199    3.4855 C   0  0  0  0  0  0  0  0  0  0  0  0
    5.8750   -0.6334    3.8979 H   0  0  0  0  0  0  0  0  0  0  0  0
    5.7175   -1.5307    2.5431 H   0  0  0  0  0  0  0  0  0  0  0  0
    5.7047   -2.3146    4.0480 H   0  0  0  0  0  0  0  0  0  0  0  0
    3.9124   -1.1877    3.5082 C   0  0  0  0  0  0  0  0  0  0  0  0
    3.4624   -2.0574    3.2845 H   0  0  0  0  0  0  0  0  0  0  0  0
    3.6520   -0.9210    4.4410 H   0  0  0  0  0  0  0  0  0  0  0  0
    3.4963   -0.1474    2.5541 N   0  0  0  0  0  4  0  0  0  0  0  0
    4.2267    0.0129    1.8864 H   0  0  0  0  0  0  0  0  0  0  0  0
    2.6683   -0.4401    2.0716 H   0  0  0  0  0  0  0  0  0  0  0  0
    3.3058    0.7066    3.0433 H   0  0  0  0  0  0  0  0  0  0  0  0
   -0.0147    2.9414    0.0025 C   0  0  0  0  0  0  0  0  0  0  0  0
   -0.8812    3.2386    0.3759 H   0  0  0  0  0  0  0  0  0  0  0  0
    0.0954    3.2448   -0.9331 H   0  0  0  0  0  0  0  0  0  0  0  0
    0.7735    3.4084    0.5930 H   0  0  0  0  0  0  0  0  0  0  0  0
   -0.0010    1.4222    0.0050 C   0  0  0  0  0  0  0  0  0  0  0  0
   -1.2078    0.7126   -0.0077 C   0  0  0  0  0  0  0  0  0  0  0  0
   -2.0707    1.1984   -0.0239 H   0  0  0  0  0  0  0  0  0  0  0  0
   -1.2131   -0.6947   -0.0000 C   0  0  0  0  0  0  0  0  0  0  0  0
   -2.0862   -1.1866    0.0005 H   0  0  0  0  0  0  0  0  0  0  0  0
    0.0060   -1.4193    0.0094 C   0  0  0  0  0  0  0  0  0  0  0  0
   -0.0157   -2.4079    0.0217 H   0  0  0  0  0  0  0  0  0  0  0  0
    1.2131   -0.7224    0.0000 C   0  0  0  0  0  0  0  0  0  0  0  0
    2.0933   -1.2034   -0.0006 H   0  0  0  0  0  0  0  0  0  0  0  0
    1.2028    0.7016   -0.0066 C   0  0  0  0  0  0  0  0  0  0  0  0
    2.0725    1.1871   -0.0203 H   0  0  0  0  0  0  0  0  0  0  0  0
  1  5  1  0
  5  8  1  0
  1  2  1  0
  1  3  1  0
  1  4  1  0
  5  6  1  0
  5  7  1  0
  8  9  1  0
  8 10  1  0
  8 11  1  0
 12 16  1  0
 16 17  2  0
 17 19  1  0
 19 21  2  0
 21 23  1  0
 23 25  2  0
 25 16  1  0
 12 13  1  0
 12 14  1  0
 12 15  1  0
 17 18  1  0
 19 20  1  0
 21 22  1  0
 23 24  1  0
 25 26  1  0
M  CHG  1   8   1
M  END
>  <PDB_ID>  (1327) 
pdb1up8

>  <RESIDUE_NAME>  (1327) 
LYS   PHE

>  <FRAG_NAME>  (1327) 
ETAM   MBZ

>  <FRAG_ATOM_NUM>  (1327) 
fragi: 11  fragj: 15

>  <atom.prop.CHAIN_ID>  (1327) 
A A A A A A A A A A A Z Z Z Z Z Z Z Z Z Z Z Z Z Z Z

>  <atom.prop.IS_HEAVY_ATOM>  (1327) 
1 0 0 0 1 0 0 1 0 0 0 1 0 0 0 1 1 0 1 0 1 0 1 0 1 0

>  <DIFUSE_FUNC_ATOM>  (1327) 
n/a

>  <FINAL_SINGLE_POINT_ENERGY>  (1327) 
0

>  <NONCOV_INTER_ENERGY_QM>  (1327) 
0

>  <FF_Energy>  (1327) 
-2.11

>  <QM_Energy>  (1327) 
-8.73

>  <source>  (1327) 
ETAM_MBZ

>  <Index>  (1327) 
13232

$$$$
ETAM-pdb1v2b-A-LYS-68:MBZ-pdb1v2b-A-PHE-74
     RDKit          3D

 26 25  0  0  0  0  0  0  0  0999 V2000
    0.6069   -0.3403   -3.4675 C   0  0  0  0  0  0  0  0  0  0  0  0
    0.4584   -0.4691   -2.4927 H   0  0  0  0  0  0  0  0  0  0  0  0
    1.3128    0.3421   -3.6239 H   0  0  0  0  0  0  0  0  0  0  0  0
    0.9163   -1.2867   -3.9111 H   0  0  0  0  0  0  0  0  0  0  0  0
   -0.6894    0.1586   -4.0888 C   0  0  0  0  0  0  0  0  0  0  0  0
   -0.8552    1.1011   -3.7836 H   0  0  0  0  0  0  0  0  0  0  0  0
   -0.5946    0.1541   -5.0887 H   0  0  0  0  0  0  0  0  0  0  0  0
   -1.8571   -0.6894   -3.7071 N   0  0  0  0  0  4  0  0  0  0  0  0
   -1.7115   -1.0554   -2.7889 H   0  0  0  0  0  0  0  0  0  0  0  0
   -2.6866   -0.1334   -3.7206 H   0  0  0  0  0  0  0  0  0  0  0  0
   -1.9455   -1.4411   -4.3585 H   0  0  0  0  0  0  0  0  0  0  0  0
    0.0115    2.9038    0.0091 C   0  0  0  0  0  0  0  0  0  0  0  0
    0.8731    3.2049    0.3904 H   0  0  0  0  0  0  0  0  0  0  0  0
   -0.7511    3.2118    0.5591 H   0  0  0  0  0  0  0  0  0  0  0  0
   -0.0891    3.3538   -0.9785 H   0  0  0  0  0  0  0  0  0  0  0  0
    0.0037    1.4034   -0.0007 C   0  0  0  0  0  0  0  0  0  0  0  0
   -1.1993    0.6968    0.0046 C   0  0  0  0  0  0  0  0  0  0  0  0
   -2.0628    1.1883    0.0105 H   0  0  0  0  0  0  0  0  0  0  0  0
   -1.2063   -0.6976    0.0000 C   0  0  0  0  0  0  0  0  0  0  0  0
   -2.0836   -1.1891    0.0008 H   0  0  0  0  0  0  0  0  0  0  0  0
   -0.0036   -1.3970   -0.0037 C   0  0  0  0  0  0  0  0  0  0  0  0
   -0.0062   -2.3940   -0.0094 H   0  0  0  0  0  0  0  0  0  0  0  0
    1.2063   -0.6986   -0.0000 C   0  0  0  0  0  0  0  0  0  0  0  0
    2.0834   -1.1982    0.0043 H   0  0  0  0  0  0  0  0  0  0  0  0
    1.1992    0.6931   -0.0003 C   0  0  0  0  0  0  0  0  0  0  0  0
    2.0684    1.1902   -0.0016 H   0  0  0  0  0  0  0  0  0  0  0  0
  1  5  1  0
  5  8  1  0
  1  2  1  0
  1  3  1  0
  1  4  1  0
  5  6  1  0
  5  7  1  0
  8  9  1  0
  8 10  1  0
  8 11  1  0
 12 16  1  0
 16 17  2  0
 17 19  1  0
 19 21  2  0
 21 23  1  0
 23 25  2  0
 25 16  1  0
 12 13  1  0
 12 14  1  0
 12 15  1  0
 17 18  1  0
 19 20  1  0
 21 22  1  0
 23 24  1  0
 25 26  1  0
M  CHG  1   8   1
M  END
>  <PDB_ID>  (1328) 
pdb1v2b

>  <RESIDUE_NAME>  (1328) 
LYS   PHE

>  <FRAG_NAME>  (1328) 
ETAM   MBZ

>  <FRAG_ATOM_NUM>  (1328) 
fragi: 11  fragj: 15

>  <atom.prop.CHAIN_ID>  (1328) 
A A A A A A A A A A A Z Z Z Z Z Z Z Z Z Z Z Z Z Z Z

>  <atom.prop.IS_HEAVY_ATOM>  (1328) 
1 0 0 0 1 0 0 1 0 0 0 1 0 0 0 1 1 0 1 0 1 0 1 0 1 0

>  <DIFUSE_FUNC_ATOM>  (1328) 
n/a

>  <FINAL_SINGLE_POINT_ENERGY>  (1328) 
0

>  <NONCOV_INTER_ENERGY_QM>  (1328) 
0

>  <FF_Energy>  (1328) 
-5.07

>  <QM_Energy>  (1328) 
-11.34

>  <source>  (1328) 
ETAM_MBZ

>  <Index>  (1328) 
13234

$$$$
ETAM-pdb1uvq-A-LYS-150:MBZ-pdb1uvq-A-PHE-140
     RDKit          3D

 26 25  0  0  0  0  0  0  0  0999 V2000
   -1.0967   -0.7552   -3.8431 C   0  0  0  0  0  0  0  0  0  0  0  0
   -1.1435   -0.5219   -2.8794 H   0  0  0  0  0  0  0  0  0  0  0  0
   -1.4515   -1.6686   -4.0003 H   0  0  0  0  0  0  0  0  0  0  0  0
   -1.6963   -0.0412   -4.4078 H   0  0  0  0  0  0  0  0  0  0  0  0
    0.3532   -0.7129   -4.2857 C   0  0  0  0  0  0  0  0  0  0  0  0
    0.4178   -1.0617   -5.2261 H   0  0  0  0  0  0  0  0  0  0  0  0
    0.6703    0.2412   -4.2757 H   0  0  0  0  0  0  0  0  0  0  0  0
    1.2272   -1.5259   -3.4034 N   0  0  0  0  0  4  0  0  0  0  0  0
    1.6676   -2.2450   -3.9411 H   0  0  0  0  0  0  0  0  0  0  0  0
    1.9271   -0.9395   -2.9949 H   0  0  0  0  0  0  0  0  0  0  0  0
    0.6763   -1.9416   -2.6795 H   0  0  0  0  0  0  0  0  0  0  0  0
   -0.0037    2.9000   -0.0165 C   0  0  0  0  0  0  0  0  0  0  0  0
    0.8870    3.2140    0.2763 H   0  0  0  0  0  0  0  0  0  0  0  0
   -0.7145    3.2132    0.5947 H   0  0  0  0  0  0  0  0  0  0  0  0
   -0.1995    3.3268   -1.0002 H   0  0  0  0  0  0  0  0  0  0  0  0
   -0.0001    1.4027   -0.0002 C   0  0  0  0  0  0  0  0  0  0  0  0
   -1.1975    0.6934    0.0002 C   0  0  0  0  0  0  0  0  0  0  0  0
   -2.0645    1.1836   -0.0009 H   0  0  0  0  0  0  0  0  0  0  0  0
   -1.2035   -0.6992   -0.0000 C   0  0  0  0  0  0  0  0  0  0  0  0
   -2.0784   -1.1932    0.0003 H   0  0  0  0  0  0  0  0  0  0  0  0
    0.0022   -1.3973    0.0003 C   0  0  0  0  0  0  0  0  0  0  0  0
   -0.0012   -2.3940    0.0002 H   0  0  0  0  0  0  0  0  0  0  0  0
    1.2035   -0.6964    0.0000 C   0  0  0  0  0  0  0  0  0  0  0  0
    2.0853   -1.1912    0.0015 H   0  0  0  0  0  0  0  0  0  0  0  0
    1.1954    0.6968   -0.0004 C   0  0  0  0  0  0  0  0  0  0  0  0
    2.0642    1.1934   -0.0021 H   0  0  0  0  0  0  0  0  0  0  0  0
  1  5  1  0
  5  8  1  0
  1  2  1  0
  1  3  1  0
  1  4  1  0
  5  6  1  0
  5  7  1  0
  8  9  1  0
  8 10  1  0
  8 11  1  0
 12 16  1  0
 16 17  2  0
 17 19  1  0
 19 21  2  0
 21 23  1  0
 23 25  2  0
 25 16  1  0
 12 13  1  0
 12 14  1  0
 12 15  1  0
 17 18  1  0
 19 20  1  0
 21 22  1  0
 23 24  1  0
 25 26  1  0
M  CHG  1   8   1
M  END
>  <PDB_ID>  (1329) 
pdb1uvq

>  <RESIDUE_NAME>  (1329) 
LYS   PHE

>  <FRAG_NAME>  (1329) 
ETAM   MBZ

>  <FRAG_ATOM_NUM>  (1329) 
fragi: 11  fragj: 15

>  <atom.prop.CHAIN_ID>  (1329) 
A A A A A A A A A A A Z Z Z Z Z Z Z Z Z Z Z Z Z Z Z

>  <atom.prop.IS_HEAVY_ATOM>  (1329) 
1 0 0 0 1 0 0 1 0 0 0 1 0 0 0 1 1 0 1 0 1 0 1 0 1 0

>  <DIFUSE_FUNC_ATOM>  (1329) 
n/a

>  <FINAL_SINGLE_POINT_ENERGY>  (1329) 
0

>  <NONCOV_INTER_ENERGY_QM>  (1329) 
0

>  <FF_Energy>  (1329) 
-5.73

>  <QM_Energy>  (1329) 
-12.12

>  <source>  (1329) 
ETAM_MBZ

>  <Index>  (1329) 
13236

$$$$
ETAM-pdb1v2b-B-LYS-68:MBZ-pdb1v2b-B-PHE-74
     RDKit          3D

 26 25  0  0  0  0  0  0  0  0999 V2000
    0.9172   -0.5515   -3.3809 C   0  0  0  0  0  0  0  0  0  0  0  0
    0.7992   -1.1990   -2.6353 H   0  0  0  0  0  0  0  0  0  0  0  0
    1.5761    0.1498   -3.1305 H   0  0  0  0  0  0  0  0  0  0  0  0
    1.2682   -1.0796   -4.2675 H   0  0  0  0  0  0  0  0  0  0  0  0
   -0.4145    0.1160   -3.6511 C   0  0  0  0  0  0  0  0  0  0  0  0
   -0.5363    0.8770   -3.0085 H   0  0  0  0  0  0  0  0  0  0  0  0
   -0.4160    0.4796   -4.5870 H   0  0  0  0  0  0  0  0  0  0  0  0
   -1.5509   -0.8352   -3.4979 N   0  0  0  0  0  4  0  0  0  0  0  0
   -1.3447   -1.6793   -3.9909 H   0  0  0  0  0  0  0  0  0  0  0  0
   -1.6846   -1.0373   -2.5286 H   0  0  0  0  0  0  0  0  0  0  0  0
   -2.3804   -0.4220   -3.8720 H   0  0  0  0  0  0  0  0  0  0  0  0
    0.0048    2.9061    0.0178 C   0  0  0  0  0  0  0  0  0  0  0  0
    0.8743    3.2069    0.3853 H   0  0  0  0  0  0  0  0  0  0  0  0
   -0.7456    3.2069    0.5903 H   0  0  0  0  0  0  0  0  0  0  0  0
   -0.1194    3.3695   -0.9610 H   0  0  0  0  0  0  0  0  0  0  0  0
    0.0021    1.4036   -0.0026 C   0  0  0  0  0  0  0  0  0  0  0  0
   -1.1978    0.6957    0.0068 C   0  0  0  0  0  0  0  0  0  0  0  0
   -2.0633    1.1866    0.0173 H   0  0  0  0  0  0  0  0  0  0  0  0
   -1.2061   -0.7002    0.0000 C   0  0  0  0  0  0  0  0  0  0  0  0
   -2.0830   -1.1904   -0.0011 H   0  0  0  0  0  0  0  0  0  0  0  0
   -0.0048   -1.3971   -0.0036 C   0  0  0  0  0  0  0  0  0  0  0  0
   -0.0061   -2.3946   -0.0095 H   0  0  0  0  0  0  0  0  0  0  0  0
    1.2061   -0.6984   -0.0000 C   0  0  0  0  0  0  0  0  0  0  0  0
    2.0824   -1.1970    0.0047 H   0  0  0  0  0  0  0  0  0  0  0  0
    1.2005    0.6963   -0.0006 C   0  0  0  0  0  0  0  0  0  0  0  0
    2.0676    1.1918   -0.0004 H   0  0  0  0  0  0  0  0  0  0  0  0
  1  5  1  0
  5  8  1  0
  1  2  1  0
  1  3  1  0
  1  4  1  0
  5  6  1  0
  5  7  1  0
  8  9  1  0
  8 10  1  0
  8 11  1  0
 12 16  1  0
 16 17  2  0
 17 19  1  0
 19 21  2  0
 21 23  1  0
 23 25  2  0
 25 16  1  0
 12 13  1  0
 12 14  1  0
 12 15  1  0
 17 18  1  0
 19 20  1  0
 21 22  1  0
 23 24  1  0
 25 26  1  0
M  CHG  1   8   1
M  END
>  <PDB_ID>  (1330) 
pdb1v2b

>  <RESIDUE_NAME>  (1330) 
LYS   PHE

>  <FRAG_NAME>  (1330) 
ETAM   MBZ

>  <FRAG_ATOM_NUM>  (1330) 
fragi: 11  fragj: 15

>  <atom.prop.CHAIN_ID>  (1330) 
A A A A A A A A A A A Z Z Z Z Z Z Z Z Z Z Z Z Z Z Z

>  <atom.prop.IS_HEAVY_ATOM>  (1330) 
1 0 0 0 1 0 0 1 0 0 0 1 0 0 0 1 1 0 1 0 1 0 1 0 1 0

>  <DIFUSE_FUNC_ATOM>  (1330) 
n/a

>  <FINAL_SINGLE_POINT_ENERGY>  (1330) 
0

>  <NONCOV_INTER_ENERGY_QM>  (1330) 
0

>  <FF_Energy>  (1330) 
-6.3

>  <QM_Energy>  (1330) 
-13.06

>  <source>  (1330) 
ETAM_MBZ

>  <Index>  (1330) 
13239

$$$$
ETAM-pdb1v47-A-LYS-30:MBZ-pdb1v47-A-PHE-27
     RDKit          3D

 26 25  0  0  0  0  0  0  0  0999 V2000
   -6.2127    0.2127    2.2134 C   0  0  0  0  0  0  0  0  0  0  0  0
   -6.7106   -0.0578    3.0319 H   0  0  0  0  0  0  0  0  0  0  0  0
   -6.8341    0.2900    1.4407 H   0  0  0  0  0  0  0  0  0  0  0  0
   -5.7450    1.1813    2.3900 H   0  0  0  0  0  0  0  0  0  0  0  0
   -5.1795   -0.8629    1.8972 C   0  0  0  0  0  0  0  0  0  0  0  0
   -4.5140   -0.9041    2.6529 H   0  0  0  0  0  0  0  0  0  0  0  0
   -5.6466   -1.7541    1.8409 H   0  0  0  0  0  0  0  0  0  0  0  0
   -4.4536   -0.6123    0.6217 N   0  0  0  0  0  4  0  0  0  0  0  0
   -5.1122   -0.5534   -0.1281 H   0  0  0  0  0  0  0  0  0  0  0  0
   -3.9476    0.2461    0.6922 H   0  0  0  0  0  0  0  0  0  0  0  0
   -3.8170   -1.3630    0.4498 H   0  0  0  0  0  0  0  0  0  0  0  0
    0.0052    2.9082    0.0516 C   0  0  0  0  0  0  0  0  0  0  0  0
   -0.7538    3.2378   -0.4891 H   0  0  0  0  0  0  0  0  0  0  0  0
    0.8688    3.2274   -0.3070 H   0  0  0  0  0  0  0  0  0  0  0  0
   -0.1047    3.3116    1.0582 H   0  0  0  0  0  0  0  0  0  0  0  0
    0.0014    1.4102    0.0006 C   0  0  0  0  0  0  0  0  0  0  0  0
   -1.1989    0.7035   -0.0007 C   0  0  0  0  0  0  0  0  0  0  0  0
   -2.0651    1.1903   -0.0032 H   0  0  0  0  0  0  0  0  0  0  0  0
   -1.2083   -0.7016    0.0000 C   0  0  0  0  0  0  0  0  0  0  0  0
   -2.0854   -1.1879    0.0018 H   0  0  0  0  0  0  0  0  0  0  0  0
   -0.0034   -1.4052    0.0006 C   0  0  0  0  0  0  0  0  0  0  0  0
   -0.0072   -2.4000    0.0009 H   0  0  0  0  0  0  0  0  0  0  0  0
    1.2083   -0.7053   -0.0000 C   0  0  0  0  0  0  0  0  0  0  0  0
    2.0853   -1.1996    0.0017 H   0  0  0  0  0  0  0  0  0  0  0  0
    1.2009    0.6983   -0.0004 C   0  0  0  0  0  0  0  0  0  0  0  0
    2.0695    1.1905   -0.0026 H   0  0  0  0  0  0  0  0  0  0  0  0
  1  5  1  0
  5  8  1  0
  1  2  1  0
  1  3  1  0
  1  4  1  0
  5  6  1  0
  5  7  1  0
  8  9  1  0
  8 10  1  0
  8 11  1  0
 12 16  1  0
 16 17  2  0
 17 19  1  0
 19 21  2  0
 21 23  1  0
 23 25  2  0
 25 16  1  0
 12 13  1  0
 12 14  1  0
 12 15  1  0
 17 18  1  0
 19 20  1  0
 21 22  1  0
 23 24  1  0
 25 26  1  0
M  CHG  1   8   1
M  END
>  <PDB_ID>  (1331) 
pdb1v47

>  <RESIDUE_NAME>  (1331) 
LYS   PHE

>  <FRAG_NAME>  (1331) 
ETAM   MBZ

>  <FRAG_ATOM_NUM>  (1331) 
fragi: 11  fragj: 15

>  <atom.prop.CHAIN_ID>  (1331) 
A A A A A A A A A A A Z Z Z Z Z Z Z Z Z Z Z Z Z Z Z

>  <atom.prop.IS_HEAVY_ATOM>  (1331) 
1 0 0 0 1 0 0 1 0 0 0 1 0 0 0 1 1 0 1 0 1 0 1 0 1 0

>  <DIFUSE_FUNC_ATOM>  (1331) 
n/a

>  <FINAL_SINGLE_POINT_ENERGY>  (1331) 
0

>  <NONCOV_INTER_ENERGY_QM>  (1331) 
0

>  <FF_Energy>  (1331) 
2.59

>  <QM_Energy>  (1331) 
-2.91

>  <source>  (1331) 
ETAM_MBZ

>  <Index>  (1331) 
13243

$$$$
ETAM-pdb1v4n-A-LYS-181:MBZ-pdb1v4n-A-PHE-219
     RDKit          3D

 26 25  0  0  0  0  0  0  0  0999 V2000
    1.4824   -0.4053    3.4577 C   0  0  0  0  0  0  0  0  0  0  0  0
    0.7512   -0.5907    2.7999 H   0  0  0  0  0  0  0  0  0  0  0  0
    1.6422    0.5815    3.5057 H   0  0  0  0  0  0  0  0  0  0  0  0
    1.1390   -0.7360    4.4379 H   0  0  0  0  0  0  0  0  0  0  0  0
    2.7340   -1.0924    3.0194 C   0  0  0  0  0  0  0  0  0  0  0  0
    2.9631   -0.8175    2.0939 H   0  0  0  0  0  0  0  0  0  0  0  0
    3.4748   -0.8743    3.6430 H   0  0  0  0  0  0  0  0  0  0  0  0
    2.4990   -2.5637    3.0437 N   0  0  0  0  0  4  0  0  0  0  0  0
    3.1840   -2.9984    3.6272 H   0  0  0  0  0  0  0  0  0  0  0  0
    1.5859   -2.7469    3.4056 H   0  0  0  0  0  0  0  0  0  0  0  0
    2.5709   -2.9250    2.1150 H   0  0  0  0  0  0  0  0  0  0  0  0
    0.0379    2.8840   -0.2424 C   0  0  0  0  0  0  0  0  0  0  0  0
    0.9688    3.1996   -0.1387 H   0  0  0  0  0  0  0  0  0  0  0  0
   -0.5673    3.3336    0.3971 H   0  0  0  0  0  0  0  0  0  0  0  0
   -0.2833    3.1847   -1.2397 H   0  0  0  0  0  0  0  0  0  0  0  0
   -0.0068    1.4147    0.0002 C   0  0  0  0  0  0  0  0  0  0  0  0
   -1.2138    0.7400    0.0075 C   0  0  0  0  0  0  0  0  0  0  0  0
   -2.0702    1.2272    0.0165 H   0  0  0  0  0  0  0  0  0  0  0  0
   -1.2238   -0.6671    0.0000 C   0  0  0  0  0  0  0  0  0  0  0  0
   -2.0906   -1.1651    0.0065 H   0  0  0  0  0  0  0  0  0  0  0  0
    0.0143   -1.4171   -0.0152 C   0  0  0  0  0  0  0  0  0  0  0  0
   -0.0338   -2.4030   -0.0369 H   0  0  0  0  0  0  0  0  0  0  0  0
    1.2238   -0.7376    0.0000 C   0  0  0  0  0  0  0  0  0  0  0  0
    2.0981   -1.2252    0.0072 H   0  0  0  0  0  0  0  0  0  0  0  0
    1.2062    0.6670    0.0075 C   0  0  0  0  0  0  0  0  0  0  0  0
    2.0746    1.1691    0.0175 H   0  0  0  0  0  0  0  0  0  0  0  0
  1  5  1  0
  5  8  1  0
  1  2  1  0
  1  3  1  0
  1  4  1  0
  5  6  1  0
  5  7  1  0
  8  9  1  0
  8 10  1  0
  8 11  1  0
 12 16  1  0
 16 17  2  0
 17 19  1  0
 19 21  2  0
 21 23  1  0
 23 25  2  0
 25 16  1  0
 12 13  1  0
 12 14  1  0
 12 15  1  0
 17 18  1  0
 19 20  1  0
 21 22  1  0
 23 24  1  0
 25 26  1  0
M  CHG  1   8   1
M  END
>  <PDB_ID>  (1332) 
pdb1v4n

>  <RESIDUE_NAME>  (1332) 
LYS   PHE

>  <FRAG_NAME>  (1332) 
ETAM   MBZ

>  <FRAG_ATOM_NUM>  (1332) 
fragi: 11  fragj: 15

>  <atom.prop.CHAIN_ID>  (1332) 
A A A A A A A A A A A Z Z Z Z Z Z Z Z Z Z Z Z Z Z Z

>  <atom.prop.IS_HEAVY_ATOM>  (1332) 
1 0 0 0 1 0 0 1 0 0 0 1 0 0 0 1 1 0 1 0 1 0 1 0 1 0

>  <DIFUSE_FUNC_ATOM>  (1332) 
n/a

>  <FINAL_SINGLE_POINT_ENERGY>  (1332) 
0

>  <NONCOV_INTER_ENERGY_QM>  (1332) 
0

>  <FF_Energy>  (1332) 
-2.44

>  <QM_Energy>  (1332) 
-7.96

>  <source>  (1332) 
ETAM_MBZ

>  <Index>  (1332) 
13252

$$$$
ETAM-pdb1v5e-A-LYS-478:MBZ-pdb1v5e-A-PHE-474
     RDKit          3D

 26 25  0  0  0  0  0  0  0  0999 V2000
    1.3675   -1.7344    4.3483 C   0  0  0  0  0  0  0  0  0  0  0  0
    2.0183   -1.0599    4.0178 H   0  0  0  0  0  0  0  0  0  0  0  0
    1.8356   -2.4526    4.8509 H   0  0  0  0  0  0  0  0  0  0  0  0
    0.6561   -1.2432    5.0122 H   0  0  0  0  0  0  0  0  0  0  0  0
    0.6658   -2.3574    3.1538 C   0  0  0  0  0  0  0  0  0  0  0  0
    0.0082   -3.0415    3.4819 H   0  0  0  0  0  0  0  0  0  0  0  0
    0.1661   -1.6407    2.6587 H   0  0  0  0  0  0  0  0  0  0  0  0
    1.6274   -3.0121    2.2237 N   0  0  0  0  0  4  0  0  0  0  0  0
    2.3225   -2.3498    1.9455 H   0  0  0  0  0  0  0  0  0  0  0  0
    2.0651   -3.7814    2.6873 H   0  0  0  0  0  0  0  0  0  0  0  0
    1.1367   -3.3419    1.4181 H   0  0  0  0  0  0  0  0  0  0  0  0
    0.0016    2.9039   -0.0118 C   0  0  0  0  0  0  0  0  0  0  0  0
   -0.5065    3.2051   -0.8059 H   0  0  0  0  0  0  0  0  0  0  0  0
    0.9421    3.2100   -0.0507 H   0  0  0  0  0  0  0  0  0  0  0  0
   -0.4583    3.3540    0.8680 H   0  0  0  0  0  0  0  0  0  0  0  0
    0.0009    1.4026   -0.0006 C   0  0  0  0  0  0  0  0  0  0  0  0
   -1.1969    0.6946    0.0009 C   0  0  0  0  0  0  0  0  0  0  0  0
   -2.0630    1.1848    0.0010 H   0  0  0  0  0  0  0  0  0  0  0  0
   -1.2023   -0.6977   -0.0000 C   0  0  0  0  0  0  0  0  0  0  0  0
   -2.0791   -1.1903    0.0003 H   0  0  0  0  0  0  0  0  0  0  0  0
   -0.0006   -1.3955   -0.0002 C   0  0  0  0  0  0  0  0  0  0  0  0
   -0.0042   -2.3929   -0.0016 H   0  0  0  0  0  0  0  0  0  0  0  0
    1.2023   -0.6977    0.0000 C   0  0  0  0  0  0  0  0  0  0  0  0
    2.0828   -1.1957    0.0012 H   0  0  0  0  0  0  0  0  0  0  0  0
    1.1966    0.6938   -0.0001 C   0  0  0  0  0  0  0  0  0  0  0  0
    2.0655    1.1902   -0.0009 H   0  0  0  0  0  0  0  0  0  0  0  0
  1  5  1  0
  5  8  1  0
  1  2  1  0
  1  3  1  0
  1  4  1  0
  5  6  1  0
  5  7  1  0
  8  9  1  0
  8 10  1  0
  8 11  1  0
 12 16  1  0
 16 17  2  0
 17 19  1  0
 19 21  2  0
 21 23  1  0
 23 25  2  0
 25 16  1  0
 12 13  1  0
 12 14  1  0
 12 15  1  0
 17 18  1  0
 19 20  1  0
 21 22  1  0
 23 24  1  0
 25 26  1  0
M  CHG  1   8   1
M  END
>  <PDB_ID>  (1333) 
pdb1v5e

>  <RESIDUE_NAME>  (1333) 
LYS   PHE

>  <FRAG_NAME>  (1333) 
ETAM   MBZ

>  <FRAG_ATOM_NUM>  (1333) 
fragi: 11  fragj: 15

>  <atom.prop.CHAIN_ID>  (1333) 
A A A A A A A A A A A Z Z Z Z Z Z Z Z Z Z Z Z Z Z Z

>  <atom.prop.IS_HEAVY_ATOM>  (1333) 
1 0 0 0 1 0 0 1 0 0 0 1 0 0 0 1 1 0 1 0 1 0 1 0 1 0

>  <DIFUSE_FUNC_ATOM>  (1333) 
n/a

>  <FINAL_SINGLE_POINT_ENERGY>  (1333) 
0

>  <NONCOV_INTER_ENERGY_QM>  (1333) 
0

>  <FF_Energy>  (1333) 
-0.67

>  <QM_Energy>  (1333) 
-8.57

>  <source>  (1333) 
ETAM_MBZ

>  <Index>  (1333) 
13267

$$$$
ETAM-pdb1v4e-A-LYS-261:MBZ-pdb1v4e-A-PHE-257
     RDKit          3D

 26 25  0  0  0  0  0  0  0  0999 V2000
   -1.3173   -1.3918    3.7953 C   0  0  0  0  0  0  0  0  0  0  0  0
   -1.8554   -0.8820    4.4530 H   0  0  0  0  0  0  0  0  0  0  0  0
   -0.9990   -0.8035    3.0651 H   0  0  0  0  0  0  0  0  0  0  0  0
   -0.4571   -1.8292    4.3020 H   0  0  0  0  0  0  0  0  0  0  0  0
   -2.1899   -2.4827    3.1947 C   0  0  0  0  0  0  0  0  0  0  0  0
   -1.6260   -3.0523    2.5899 H   0  0  0  0  0  0  0  0  0  0  0  0
   -2.5493   -3.0564    3.9371 H   0  0  0  0  0  0  0  0  0  0  0  0
   -3.3253   -1.9200    2.4183 N   0  0  0  0  0  4  0  0  0  0  0  0
   -3.7323   -2.6396    1.8564 H   0  0  0  0  0  0  0  0  0  0  0  0
   -4.0119   -1.5585    3.0484 H   0  0  0  0  0  0  0  0  0  0  0  0
   -2.9933   -1.1841    1.8284 H   0  0  0  0  0  0  0  0  0  0  0  0
   -0.0020    2.9046    0.0040 C   0  0  0  0  0  0  0  0  0  0  0  0
   -0.5582    3.2128   -0.7536 H   0  0  0  0  0  0  0  0  0  0  0  0
    0.9333    3.2134   -0.0862 H   0  0  0  0  0  0  0  0  0  0  0  0
   -0.4102    3.3414    0.9154 H   0  0  0  0  0  0  0  0  0  0  0  0
    0.0004    1.4039    0.0001 C   0  0  0  0  0  0  0  0  0  0  0  0
   -1.1973    0.6956    0.0000 C   0  0  0  0  0  0  0  0  0  0  0  0
   -2.0640    1.1862   -0.0016 H   0  0  0  0  0  0  0  0  0  0  0  0
   -1.2043   -0.6981   -0.0000 C   0  0  0  0  0  0  0  0  0  0  0  0
   -2.0801   -1.1902    0.0007 H   0  0  0  0  0  0  0  0  0  0  0  0
   -0.0009   -1.3972    0.0004 C   0  0  0  0  0  0  0  0  0  0  0  0
   -0.0047   -2.3942    0.0005 H   0  0  0  0  0  0  0  0  0  0  0  0
    1.2043   -0.6992    0.0000 C   0  0  0  0  0  0  0  0  0  0  0  0
    2.0837   -1.1956    0.0012 H   0  0  0  0  0  0  0  0  0  0  0  0
    1.1978    0.6951   -0.0005 C   0  0  0  0  0  0  0  0  0  0  0  0
    2.0659    1.1908   -0.0024 H   0  0  0  0  0  0  0  0  0  0  0  0
  1  5  1  0
  5  8  1  0
  1  2  1  0
  1  3  1  0
  1  4  1  0
  5  6  1  0
  5  7  1  0
  8  9  1  0
  8 10  1  0
  8 11  1  0
 12 16  1  0
 16 17  2  0
 17 19  1  0
 19 21  2  0
 21 23  1  0
 23 25  2  0
 25 16  1  0
 12 13  1  0
 12 14  1  0
 12 15  1  0
 17 18  1  0
 19 20  1  0
 21 22  1  0
 23 24  1  0
 25 26  1  0
M  CHG  1   8   1
M  END
>  <PDB_ID>  (1334) 
pdb1v4e

>  <RESIDUE_NAME>  (1334) 
LYS   PHE

>  <FRAG_NAME>  (1334) 
ETAM   MBZ

>  <FRAG_ATOM_NUM>  (1334) 
fragi: 11  fragj: 15

>  <atom.prop.CHAIN_ID>  (1334) 
A A A A A A A A A A A Z Z Z Z Z Z Z Z Z Z Z Z Z Z Z

>  <atom.prop.IS_HEAVY_ATOM>  (1334) 
1 0 0 0 1 0 0 1 0 0 0 1 0 0 0 1 1 0 1 0 1 0 1 0 1 0

>  <DIFUSE_FUNC_ATOM>  (1334) 
n/a

>  <FINAL_SINGLE_POINT_ENERGY>  (1334) 
0

>  <NONCOV_INTER_ENERGY_QM>  (1334) 
0

>  <FF_Energy>  (1334) 
-1.81

>  <QM_Energy>  (1334) 
-8.08

>  <source>  (1334) 
ETAM_MBZ

>  <Index>  (1334) 
13268

$$$$
ETAM-pdb1up8-C-LYS-589:MBZ-pdb1up8-A-PHE-34
     RDKit          3D

 26 25  0  0  0  0  0  0  0  0999 V2000
    4.2839   -1.0068   -2.5059 C   0  0  0  0  0  0  0  0  0  0  0  0
    4.4093   -1.4740   -1.6322 H   0  0  0  0  0  0  0  0  0  0  0  0
    3.7515   -0.1736   -2.3697 H   0  0  0  0  0  0  0  0  0  0  0  0
    5.2692   -0.7161   -2.8705 H   0  0  0  0  0  0  0  0  0  0  0  0
    3.5416   -1.9224   -3.4592 C   0  0  0  0  0  0  0  0  0  0  0  0
    3.1020   -1.3694   -4.1741 H   0  0  0  0  0  0  0  0  0  0  0  0
    4.1966   -2.5476   -3.8944 H   0  0  0  0  0  0  0  0  0  0  0  0
    2.4868   -2.7374   -2.7656 N   0  0  0  0  0  4  0  0  0  0  0  0
    2.9284   -3.4675   -2.2488 H   0  0  0  0  0  0  0  0  0  0  0  0
    1.9734   -2.1461   -2.1481 H   0  0  0  0  0  0  0  0  0  0  0  0
    1.8753   -3.1271   -3.4504 H   0  0  0  0  0  0  0  0  0  0  0  0
   -0.0128    2.9315   -0.0573 C   0  0  0  0  0  0  0  0  0  0  0  0
   -0.9127    3.2179   -0.3520 H   0  0  0  0  0  0  0  0  0  0  0  0
    0.6820    3.2156   -0.7020 H   0  0  0  0  0  0  0  0  0  0  0  0
    0.1982    3.4083    0.8999 H   0  0  0  0  0  0  0  0  0  0  0  0
   -0.0046    1.4185   -0.0098 C   0  0  0  0  0  0  0  0  0  0  0  0
   -1.2104    0.6963   -0.0137 C   0  0  0  0  0  0  0  0  0  0  0  0
   -2.0752    1.1875   -0.0276 H   0  0  0  0  0  0  0  0  0  0  0  0
   -1.2196   -0.7044    0.0000 C   0  0  0  0  0  0  0  0  0  0  0  0
   -2.0836   -1.2030   -0.0079 H   0  0  0  0  0  0  0  0  0  0  0  0
    0.0121   -1.4184    0.0277 C   0  0  0  0  0  0  0  0  0  0  0  0
    0.0023   -2.4041    0.0652 H   0  0  0  0  0  0  0  0  0  0  0  0
    1.2196   -0.7046    0.0000 C   0  0  0  0  0  0  0  0  0  0  0  0
    2.1010   -1.1865   -0.0154 H   0  0  0  0  0  0  0  0  0  0  0  0
    1.2029    0.7125   -0.0041 C   0  0  0  0  0  0  0  0  0  0  0  0
    2.0678    1.2053   -0.0032 H   0  0  0  0  0  0  0  0  0  0  0  0
  1  5  1  0
  5  8  1  0
  1  2  1  0
  1  3  1  0
  1  4  1  0
  5  6  1  0
  5  7  1  0
  8  9  1  0
  8 10  1  0
  8 11  1  0
 12 16  1  0
 16 17  2  0
 17 19  1  0
 19 21  2  0
 21 23  1  0
 23 25  2  0
 25 16  1  0
 12 13  1  0
 12 14  1  0
 12 15  1  0
 17 18  1  0
 19 20  1  0
 21 22  1  0
 23 24  1  0
 25 26  1  0
M  CHG  1   8   1
M  END
>  <PDB_ID>  (1335) 
pdb1up8

>  <RESIDUE_NAME>  (1335) 
LYS   PHE

>  <FRAG_NAME>  (1335) 
ETAM   MBZ

>  <FRAG_ATOM_NUM>  (1335) 
fragi: 11  fragj: 15

>  <atom.prop.CHAIN_ID>  (1335) 
A A A A A A A A A A A Z Z Z Z Z Z Z Z Z Z Z Z Z Z Z

>  <atom.prop.IS_HEAVY_ATOM>  (1335) 
1 0 0 0 1 0 0 1 0 0 0 1 0 0 0 1 1 0 1 0 1 0 1 0 1 0

>  <DIFUSE_FUNC_ATOM>  (1335) 
n/a

>  <FINAL_SINGLE_POINT_ENERGY>  (1335) 
0

>  <NONCOV_INTER_ENERGY_QM>  (1335) 
0

>  <FF_Energy>  (1335) 
-2.13

>  <QM_Energy>  (1335) 
-8.07

>  <source>  (1335) 
ETAM_MBZ

>  <Index>  (1335) 
13278

$$$$
ETAM-pdb1u0u-D-LYS-388:MBZ-pdb1u0u-C-PHE-6
     RDKit          3D

 26 25  0  0  0  0  0  0  0  0999 V2000
    0.5566   -2.5443   -3.3091 C   0  0  0  0  0  0  0  0  0  0  0  0
    0.3890   -3.3505   -3.8595 H   0  0  0  0  0  0  0  0  0  0  0  0
    0.3400   -2.7101   -2.3575 H   0  0  0  0  0  0  0  0  0  0  0  0
    1.6023   -2.2505   -3.4007 H   0  0  0  0  0  0  0  0  0  0  0  0
   -0.3365   -1.4243   -3.8148 C   0  0  0  0  0  0  0  0  0  0  0  0
   -0.1677   -1.2923   -4.7961 H   0  0  0  0  0  0  0  0  0  0  0  0
   -1.2966   -1.6907   -3.6855 H   0  0  0  0  0  0  0  0  0  0  0  0
   -0.0812   -0.1507   -3.0990 N   0  0  0  0  0  4  0  0  0  0  0  0
    0.7481    0.2760   -3.4613 H   0  0  0  0  0  0  0  0  0  0  0  0
   -0.8574    0.4670   -3.2285 H   0  0  0  0  0  0  0  0  0  0  0  0
    0.0384   -0.3342   -2.1227 H   0  0  0  0  0  0  0  0  0  0  0  0
    0.0133    2.8702   -0.0525 C   0  0  0  0  0  0  0  0  0  0  0  0
   -0.7541    3.1692   -0.5991 H   0  0  0  0  0  0  0  0  0  0  0  0
    0.8719    3.1604   -0.4486 H   0  0  0  0  0  0  0  0  0  0  0  0
   -0.0758    3.3265    0.9334 H   0  0  0  0  0  0  0  0  0  0  0  0
    0.0006    1.3910   -0.0017 C   0  0  0  0  0  0  0  0  0  0  0  0
   -1.2005    0.6910    0.0043 C   0  0  0  0  0  0  0  0  0  0  0  0
   -2.0630    1.1870    0.0106 H   0  0  0  0  0  0  0  0  0  0  0  0
   -1.2056   -0.6915   -0.0000 C   0  0  0  0  0  0  0  0  0  0  0  0
   -2.0765   -1.1918    0.0021 H   0  0  0  0  0  0  0  0  0  0  0  0
    0.0044   -1.3875   -0.0055 C   0  0  0  0  0  0  0  0  0  0  0  0
   -0.0004   -2.3865   -0.0140 H   0  0  0  0  0  0  0  0  0  0  0  0
    1.2056   -0.6905   -0.0000 C   0  0  0  0  0  0  0  0  0  0  0  0
    2.0851   -1.1914    0.0030 H   0  0  0  0  0  0  0  0  0  0  0  0
    1.1956    0.6876    0.0029 C   0  0  0  0  0  0  0  0  0  0  0  0
    2.0632    1.1923    0.0080 H   0  0  0  0  0  0  0  0  0  0  0  0
  1  5  1  0
  5  8  1  0
  1  2  1  0
  1  3  1  0
  1  4  1  0
  5  6  1  0
  5  7  1  0
  8  9  1  0
  8 10  1  0
  8 11  1  0
 12 16  1  0
 16 17  2  0
 17 19  1  0
 19 21  2  0
 21 23  1  0
 23 25  2  0
 25 16  1  0
 12 13  1  0
 12 14  1  0
 12 15  1  0
 17 18  1  0
 19 20  1  0
 21 22  1  0
 23 24  1  0
 25 26  1  0
M  CHG  1   8   1
M  END
>  <PDB_ID>  (1336) 
pdb1u0u

>  <RESIDUE_NAME>  (1336) 
LYS   PHE

>  <FRAG_NAME>  (1336) 
ETAM   MBZ

>  <FRAG_ATOM_NUM>  (1336) 
fragi: 11  fragj: 15

>  <atom.prop.CHAIN_ID>  (1336) 
A A A A A A A A A A A Z Z Z Z Z Z Z Z Z Z Z Z Z Z Z

>  <atom.prop.IS_HEAVY_ATOM>  (1336) 
1 0 0 0 1 0 0 1 0 0 0 1 0 0 0 1 1 0 1 0 1 0 1 0 1 0

>  <DIFUSE_FUNC_ATOM>  (1336) 
n/a

>  <FINAL_SINGLE_POINT_ENERGY>  (1336) 
0

>  <NONCOV_INTER_ENERGY_QM>  (1336) 
0

>  <FF_Energy>  (1336) 
-10.14

>  <QM_Energy>  (1336) 
-18.05

>  <source>  (1336) 
ETAM_MBZ

>  <Index>  (1336) 
13282

$$$$
ETAM-pdb1v7r-A-LYS-174:MBZ-pdb1v7r-A-PHE-19
     RDKit          3D

 26 25  0  0  0  0  0  0  0  0999 V2000
    2.8233   -4.6851    1.4652 C   0  0  0  0  0  0  0  0  0  0  0  0
    3.2311   -4.7096    2.3700 H   0  0  0  0  0  0  0  0  0  0  0  0
    2.6663   -5.6042    1.1254 H   0  0  0  0  0  0  0  0  0  0  0  0
    1.8702   -4.1592    1.5207 H   0  0  0  0  0  0  0  0  0  0  0  0
    3.7789   -3.9757    0.5212 C   0  0  0  0  0  0  0  0  0  0  0  0
    4.6587   -4.4588    0.5242 H   0  0  0  0  0  0  0  0  0  0  0  0
    3.3990   -3.9997   -0.4074 H   0  0  0  0  0  0  0  0  0  0  0  0
    3.9995   -2.5575    0.9212 N   0  0  0  0  0  4  0  0  0  0  0  0
    3.1359   -2.1642    1.2367 H   0  0  0  0  0  0  0  0  0  0  0  0
    4.6728   -2.5226    1.6591 H   0  0  0  0  0  0  0  0  0  0  0  0
    4.3356   -2.0403    0.1349 H   0  0  0  0  0  0  0  0  0  0  0  0
    0.0020    2.9040   -0.0206 C   0  0  0  0  0  0  0  0  0  0  0  0
    0.8996    3.2138    0.2551 H   0  0  0  0  0  0  0  0  0  0  0  0
   -0.6951    3.2203    0.6061 H   0  0  0  0  0  0  0  0  0  0  0  0
   -0.2117    3.3350   -0.9988 H   0  0  0  0  0  0  0  0  0  0  0  0
    0.0006    1.4022   -0.0002 C   0  0  0  0  0  0  0  0  0  0  0  0
   -1.1966    0.6925    0.0005 C   0  0  0  0  0  0  0  0  0  0  0  0
   -2.0637    1.1830   -0.0003 H   0  0  0  0  0  0  0  0  0  0  0  0
   -1.2029   -0.6991    0.0000 C   0  0  0  0  0  0  0  0  0  0  0  0
   -2.0799   -1.1910    0.0015 H   0  0  0  0  0  0  0  0  0  0  0  0
   -0.0021   -1.3942   -0.0005 C   0  0  0  0  0  0  0  0  0  0  0  0
   -0.0039   -2.3930   -0.0016 H   0  0  0  0  0  0  0  0  0  0  0  0
    1.2029   -0.6966    0.0000 C   0  0  0  0  0  0  0  0  0  0  0  0
    2.0826   -1.1948    0.0012 H   0  0  0  0  0  0  0  0  0  0  0  0
    1.1981    0.6952    0.0003 C   0  0  0  0  0  0  0  0  0  0  0  0
    2.0658    1.1914   -0.0000 H   0  0  0  0  0  0  0  0  0  0  0  0
  1  5  1  0
  5  8  1  0
  1  2  1  0
  1  3  1  0
  1  4  1  0
  5  6  1  0
  5  7  1  0
  8  9  1  0
  8 10  1  0
  8 11  1  0
 12 16  1  0
 16 17  2  0
 17 19  1  0
 19 21  2  0
 21 23  1  0
 23 25  2  0
 25 16  1  0
 12 13  1  0
 12 14  1  0
 12 15  1  0
 17 18  1  0
 19 20  1  0
 21 22  1  0
 23 24  1  0
 25 26  1  0
M  CHG  1   8   1
M  END
>  <PDB_ID>  (1337) 
pdb1v7r

>  <RESIDUE_NAME>  (1337) 
LYS   PHE

>  <FRAG_NAME>  (1337) 
ETAM   MBZ

>  <FRAG_ATOM_NUM>  (1337) 
fragi: 11  fragj: 15

>  <atom.prop.CHAIN_ID>  (1337) 
A A A A A A A A A A A Z Z Z Z Z Z Z Z Z Z Z Z Z Z Z

>  <atom.prop.IS_HEAVY_ATOM>  (1337) 
1 0 0 0 1 0 0 1 0 0 0 1 0 0 0 1 1 0 1 0 1 0 1 0 1 0

>  <DIFUSE_FUNC_ATOM>  (1337) 
n/a

>  <FINAL_SINGLE_POINT_ENERGY>  (1337) 
0

>  <NONCOV_INTER_ENERGY_QM>  (1337) 
0

>  <FF_Energy>  (1337) 
1.74

>  <QM_Energy>  (1337) 
-3.63

>  <source>  (1337) 
ETAM_MBZ

>  <Index>  (1337) 
13292

$$$$
ETAM-pdb1v8d-B-LYS-141:MBZ-pdb1v8d-A-PHE-230
     RDKit          3D

 26 25  0  0  0  0  0  0  0  0999 V2000
   -5.4187    0.6799   -1.6194 C   0  0  0  0  0  0  0  0  0  0  0  0
   -5.1653    1.5559   -1.9958 H   0  0  0  0  0  0  0  0  0  0  0  0
   -6.3945    0.5994   -1.5045 H   0  0  0  0  0  0  0  0  0  0  0  0
   -5.0675   -0.1111   -2.2820 H   0  0  0  0  0  0  0  0  0  0  0  0
   -4.7615    0.5676   -0.1920 C   0  0  0  0  0  0  0  0  0  0  0  0
   -4.8994   -0.3550    0.1393 H   0  0  0  0  0  0  0  0  0  0  0  0
   -3.7968    0.7739   -0.2790 H   0  0  0  0  0  0  0  0  0  0  0  0
   -5.4009    1.5509    0.7768 N   0  0  0  0  0  4  0  0  0  0  0  0
   -6.3164    1.2301    0.9932 H   0  0  0  0  0  0  0  0  0  0  0  0
   -4.8432    1.5912    1.5989 H   0  0  0  0  0  0  0  0  0  0  0  0
   -5.4397    2.4435    0.3399 H   0  0  0  0  0  0  0  0  0  0  0  0
    0.0116    2.8618    0.1588 C   0  0  0  0  0  0  0  0  0  0  0  0
   -0.6830    3.2499   -0.4307 H   0  0  0  0  0  0  0  0  0  0  0  0
    0.9115    3.1993   -0.0809 H   0  0  0  0  0  0  0  0  0  0  0  0
   -0.1990    3.2065    1.1711 H   0  0  0  0  0  0  0  0  0  0  0  0
   -0.0012    1.3840    0.0040 C   0  0  0  0  0  0  0  0  0  0  0  0
   -1.2066    0.7030   -0.0036 C   0  0  0  0  0  0  0  0  0  0  0  0
   -2.0619    1.2052   -0.0127 H   0  0  0  0  0  0  0  0  0  0  0  0
   -1.2116   -0.6692   -0.0000 C   0  0  0  0  0  0  0  0  0  0  0  0
   -2.0828   -1.1765    0.0007 H   0  0  0  0  0  0  0  0  0  0  0  0
    0.0019   -1.3812    0.0045 C   0  0  0  0  0  0  0  0  0  0  0  0
   -0.0214   -2.3808    0.0099 H   0  0  0  0  0  0  0  0  0  0  0  0
    1.2116   -0.7037   -0.0000 C   0  0  0  0  0  0  0  0  0  0  0  0
    2.0828   -1.2135    0.0021 H   0  0  0  0  0  0  0  0  0  0  0  0
    1.2059    0.6671   -0.0049 C   0  0  0  0  0  0  0  0  0  0  0  0
    2.0678    1.1778   -0.0159 H   0  0  0  0  0  0  0  0  0  0  0  0
  1  5  1  0
  5  8  1  0
  1  2  1  0
  1  3  1  0
  1  4  1  0
  5  6  1  0
  5  7  1  0
  8  9  1  0
  8 10  1  0
  8 11  1  0
 12 16  1  0
 16 17  2  0
 17 19  1  0
 19 21  2  0
 21 23  1  0
 23 25  2  0
 25 16  1  0
 12 13  1  0
 12 14  1  0
 12 15  1  0
 17 18  1  0
 19 20  1  0
 21 22  1  0
 23 24  1  0
 25 26  1  0
M  CHG  1   8   1
M  END
>  <PDB_ID>  (1338) 
pdb1v8d

>  <RESIDUE_NAME>  (1338) 
LYS   PHE

>  <FRAG_NAME>  (1338) 
ETAM   MBZ

>  <FRAG_ATOM_NUM>  (1338) 
fragi: 11  fragj: 15

>  <atom.prop.CHAIN_ID>  (1338) 
A A A A A A A A A A A Z Z Z Z Z Z Z Z Z Z Z Z Z Z Z

>  <atom.prop.IS_HEAVY_ATOM>  (1338) 
1 0 0 0 1 0 0 1 0 0 0 1 0 0 0 1 1 0 1 0 1 0 1 0 1 0

>  <DIFUSE_FUNC_ATOM>  (1338) 
n/a

>  <FINAL_SINGLE_POINT_ENERGY>  (1338) 
0

>  <NONCOV_INTER_ENERGY_QM>  (1338) 
0

>  <FF_Energy>  (1338) 
3.92

>  <QM_Energy>  (1338) 
-1.22

>  <source>  (1338) 
ETAM_MBZ

>  <Index>  (1338) 
13300

$$$$
ETAM-pdb1v7v-A-LYS-57:MBZ-pdb1v7v-A-PHE-157
     RDKit          3D

 26 25  0  0  0  0  0  0  0  0999 V2000
    3.0699   -0.3031   -4.9438 C   0  0  0  0  0  0  0  0  0  0  0  0
    3.0094   -1.1303   -5.4929 H   0  0  0  0  0  0  0  0  0  0  0  0
    3.9934   -0.1834   -4.5972 H   0  0  0  0  0  0  0  0  0  0  0  0
    2.8106    0.5539   -5.5653 H   0  0  0  0  0  0  0  0  0  0  0  0
    2.1225   -0.4322   -3.7658 C   0  0  0  0  0  0  0  0  0  0  0  0
    2.3898    0.2269   -3.0619 H   0  0  0  0  0  0  0  0  0  0  0  0
    1.1928   -0.2277   -4.0738 H   0  0  0  0  0  0  0  0  0  0  0  0
    2.1668   -1.7981   -3.2046 N   0  0  0  0  0  4  0  0  0  0  0  0
    2.1129   -2.4685   -3.9462 H   0  0  0  0  0  0  0  0  0  0  0  0
    3.0236   -1.9286   -2.7031 H   0  0  0  0  0  0  0  0  0  0  0  0
    1.3946   -1.9317   -2.5813 H   0  0  0  0  0  0  0  0  0  0  0  0
   -0.0072    2.9183   -0.0243 C   0  0  0  0  0  0  0  0  0  0  0  0
    0.9203    3.2247   -0.1529 H   0  0  0  0  0  0  0  0  0  0  0  0
   -0.3842    3.2338    0.8288 H   0  0  0  0  0  0  0  0  0  0  0  0
   -0.6114    3.3331   -0.8312 H   0  0  0  0  0  0  0  0  0  0  0  0
    0.0000    1.4077   -0.0000 C   0  0  0  0  0  0  0  0  0  0  0  0
   -1.1975    0.6964    0.0012 C   0  0  0  0  0  0  0  0  0  0  0  0
   -2.0654    1.1830    0.0019 H   0  0  0  0  0  0  0  0  0  0  0  0
   -1.2031   -0.7039    0.0000 C   0  0  0  0  0  0  0  0  0  0  0  0
   -2.0799   -1.1930    0.0016 H   0  0  0  0  0  0  0  0  0  0  0  0
    0.0001   -1.3997   -0.0014 C   0  0  0  0  0  0  0  0  0  0  0  0
   -0.0008   -2.3977   -0.0041 H   0  0  0  0  0  0  0  0  0  0  0  0
    1.2031   -0.6993    0.0000 C   0  0  0  0  0  0  0  0  0  0  0  0
    2.0842   -1.1938    0.0022 H   0  0  0  0  0  0  0  0  0  0  0  0
    1.1974    0.6988    0.0002 C   0  0  0  0  0  0  0  0  0  0  0  0
    2.0656    1.1927    0.0000 H   0  0  0  0  0  0  0  0  0  0  0  0
  1  5  1  0
  5  8  1  0
  1  2  1  0
  1  3  1  0
  1  4  1  0
  5  6  1  0
  5  7  1  0
  8  9  1  0
  8 10  1  0
  8 11  1  0
 12 16  1  0
 16 17  2  0
 17 19  1  0
 19 21  2  0
 21 23  1  0
 23 25  2  0
 25 16  1  0
 12 13  1  0
 12 14  1  0
 12 15  1  0
 17 18  1  0
 19 20  1  0
 21 22  1  0
 23 24  1  0
 25 26  1  0
M  CHG  1   8   1
M  END
>  <PDB_ID>  (1339) 
pdb1v7v

>  <RESIDUE_NAME>  (1339) 
LYS   PHE

>  <FRAG_NAME>  (1339) 
ETAM   MBZ

>  <FRAG_ATOM_NUM>  (1339) 
fragi: 11  fragj: 15

>  <atom.prop.CHAIN_ID>  (1339) 
A A A A A A A A A A A Z Z Z Z Z Z Z Z Z Z Z Z Z Z Z

>  <atom.prop.IS_HEAVY_ATOM>  (1339) 
1 0 0 0 1 0 0 1 0 0 0 1 0 0 0 1 1 0 1 0 1 0 1 0 1 0

>  <DIFUSE_FUNC_ATOM>  (1339) 
n/a

>  <FINAL_SINGLE_POINT_ENERGY>  (1339) 
0

>  <NONCOV_INTER_ENERGY_QM>  (1339) 
0

>  <FF_Energy>  (1339) 
-3.73

>  <QM_Energy>  (1339) 
-9.56

>  <source>  (1339) 
ETAM_MBZ

>  <Index>  (1339) 
13314

$$$$
ETAM-pdb1up8-D-LYS-498:MBZ-pdb1up8-D-PHE-590
     RDKit          3D

 26 25  0  0  0  0  0  0  0  0999 V2000
    5.1454   -1.4163    3.7097 C   0  0  0  0  0  0  0  0  0  0  0  0
    5.4241   -0.6431    4.2647 H   0  0  0  0  0  0  0  0  0  0  0  0
    5.5816   -1.3874    2.8199 H   0  0  0  0  0  0  0  0  0  0  0  0
    5.4537   -2.3312    4.2156 H   0  0  0  0  0  0  0  0  0  0  0  0
    3.6190   -1.3504    3.5089 C   0  0  0  0  0  0  0  0  0  0  0  0
    3.3189   -2.2105    3.1018 H   0  0  0  0  0  0  0  0  0  0  0  0
    3.1891   -1.2310    4.4014 H   0  0  0  0  0  0  0  0  0  0  0  0
    3.2549   -0.2217    2.6216 N   0  0  0  0  0  4  0  0  0  0  0  0
    2.3871   -0.4213    2.1643 H   0  0  0  0  0  0  0  0  0  0  0  0
    3.1593    0.6138    3.1643 H   0  0  0  0  0  0  0  0  0  0  0  0
    3.9701   -0.0912    1.9347 H   0  0  0  0  0  0  0  0  0  0  0  0
   -0.0045    2.9244   -0.0029 C   0  0  0  0  0  0  0  0  0  0  0  0
   -0.8967    3.2276    0.2869 H   0  0  0  0  0  0  0  0  0  0  0  0
    0.2087    3.2296   -0.9153 H   0  0  0  0  0  0  0  0  0  0  0  0
    0.7253    3.3766    0.6687 H   0  0  0  0  0  0  0  0  0  0  0  0
   -0.0006    1.4008   -0.0015 C   0  0  0  0  0  0  0  0  0  0  0  0
   -1.1925    0.6930   -0.0035 C   0  0  0  0  0  0  0  0  0  0  0  0
   -2.0611    1.1825   -0.0086 H   0  0  0  0  0  0  0  0  0  0  0  0
   -1.1974   -0.6957    0.0000 C   0  0  0  0  0  0  0  0  0  0  0  0
   -2.0742   -1.1899   -0.0000 H   0  0  0  0  0  0  0  0  0  0  0  0
    0.0025   -1.3900    0.0050 C   0  0  0  0  0  0  0  0  0  0  0  0
   -0.0008   -2.3897    0.0120 H   0  0  0  0  0  0  0  0  0  0  0  0
    1.1974   -0.6928   -0.0000 C   0  0  0  0  0  0  0  0  0  0  0  0
    2.0812   -1.1938   -0.0024 H   0  0  0  0  0  0  0  0  0  0  0  0
    1.1906    0.6848    0.0000 C   0  0  0  0  0  0  0  0  0  0  0  0
    2.0619    1.1867    0.0001 H   0  0  0  0  0  0  0  0  0  0  0  0
  1  5  1  0
  5  8  1  0
  1  2  1  0
  1  3  1  0
  1  4  1  0
  5  6  1  0
  5  7  1  0
  8  9  1  0
  8 10  1  0
  8 11  1  0
 12 16  1  0
 16 17  2  0
 17 19  1  0
 19 21  2  0
 21 23  1  0
 23 25  2  0
 25 16  1  0
 12 13  1  0
 12 14  1  0
 12 15  1  0
 17 18  1  0
 19 20  1  0
 21 22  1  0
 23 24  1  0
 25 26  1  0
M  CHG  1   8   1
M  END
>  <PDB_ID>  (1340) 
pdb1up8

>  <RESIDUE_NAME>  (1340) 
LYS   PHE

>  <FRAG_NAME>  (1340) 
ETAM   MBZ

>  <FRAG_ATOM_NUM>  (1340) 
fragi: 11  fragj: 15

>  <atom.prop.CHAIN_ID>  (1340) 
A A A A A A A A A A A Z Z Z Z Z Z Z Z Z Z Z Z Z Z Z

>  <atom.prop.IS_HEAVY_ATOM>  (1340) 
1 0 0 0 1 0 0 1 0 0 0 1 0 0 0 1 1 0 1 0 1 0 1 0 1 0

>  <DIFUSE_FUNC_ATOM>  (1340) 
n/a

>  <FINAL_SINGLE_POINT_ENERGY>  (1340) 
0

>  <NONCOV_INTER_ENERGY_QM>  (1340) 
0

>  <FF_Energy>  (1340) 
-2.57

>  <QM_Energy>  (1340) 
-9.32

>  <source>  (1340) 
ETAM_MBZ

>  <Index>  (1340) 
13316

$$$$
ETAM-pdb1uzb-A-LYS-126:MBZ-pdb1uzb-A-PHE-185
     RDKit          3D

 26 25  0  0  0  0  0  0  0  0999 V2000
    2.8245   -0.1227    5.6700 C   0  0  0  0  0  0  0  0  0  0  0  0
    3.4673    0.6263    5.6414 H   0  0  0  0  0  0  0  0  0  0  0  0
    3.2172   -0.9521    5.3062 H   0  0  0  0  0  0  0  0  0  0  0  0
    2.5241   -0.2938    6.7037 H   0  0  0  0  0  0  0  0  0  0  0  0
    1.6080    0.2456    4.8416 C   0  0  0  0  0  0  0  0  0  0  0  0
    0.8799   -0.4327    5.0118 H   0  0  0  0  0  0  0  0  0  0  0  0
    1.2690    1.1478    5.1430 H   0  0  0  0  0  0  0  0  0  0  0  0
    1.8895    0.2968    3.3817 N   0  0  0  0  0  4  0  0  0  0  0  0
    1.4114   -0.4530    2.9247 H   0  0  0  0  0  0  0  0  0  0  0  0
    1.5721    1.1697    3.0132 H   0  0  0  0  0  0  0  0  0  0  0  0
    2.8736    0.2078    3.2302 H   0  0  0  0  0  0  0  0  0  0  0  0
    0.0060    2.9013    0.0522 C   0  0  0  0  0  0  0  0  0  0  0  0
   -0.8170    3.2276   -0.3849 H   0  0  0  0  0  0  0  0  0  0  0  0
    0.8155    3.2232   -0.4127 H   0  0  0  0  0  0  0  0  0  0  0  0
    0.0243    3.2990    1.0669 H   0  0  0  0  0  0  0  0  0  0  0  0
    0.0009    1.4035    0.0005 C   0  0  0  0  0  0  0  0  0  0  0  0
   -1.1977    0.6982   -0.0000 C   0  0  0  0  0  0  0  0  0  0  0  0
   -2.0633    1.1873   -0.0018 H   0  0  0  0  0  0  0  0  0  0  0  0
   -1.2042   -0.6983   -0.0000 C   0  0  0  0  0  0  0  0  0  0  0  0
   -2.0810   -1.1881    0.0002 H   0  0  0  0  0  0  0  0  0  0  0  0
   -0.0021   -1.3964    0.0010 C   0  0  0  0  0  0  0  0  0  0  0  0
   -0.0059   -2.3945    0.0022 H   0  0  0  0  0  0  0  0  0  0  0  0
    1.2042   -0.6999   -0.0000 C   0  0  0  0  0  0  0  0  0  0  0  0
    2.0826   -1.1986    0.0022 H   0  0  0  0  0  0  0  0  0  0  0  0
    1.1989    0.6930   -0.0015 C   0  0  0  0  0  0  0  0  0  0  0  0
    2.0671    1.1893   -0.0055 H   0  0  0  0  0  0  0  0  0  0  0  0
  1  5  1  0
  5  8  1  0
  1  2  1  0
  1  3  1  0
  1  4  1  0
  5  6  1  0
  5  7  1  0
  8  9  1  0
  8 10  1  0
  8 11  1  0
 12 16  1  0
 16 17  2  0
 17 19  1  0
 19 21  2  0
 21 23  1  0
 23 25  2  0
 25 16  1  0
 12 13  1  0
 12 14  1  0
 12 15  1  0
 17 18  1  0
 19 20  1  0
 21 22  1  0
 23 24  1  0
 25 26  1  0
M  CHG  1   8   1
M  END
>  <PDB_ID>  (1341) 
pdb1uzb

>  <RESIDUE_NAME>  (1341) 
LYS   PHE

>  <FRAG_NAME>  (1341) 
ETAM   MBZ

>  <FRAG_ATOM_NUM>  (1341) 
fragi: 11  fragj: 15

>  <atom.prop.CHAIN_ID>  (1341) 
A A A A A A A A A A A Z Z Z Z Z Z Z Z Z Z Z Z Z Z Z

>  <atom.prop.IS_HEAVY_ATOM>  (1341) 
1 0 0 0 1 0 0 1 0 0 0 1 0 0 0 1 1 0 1 0 1 0 1 0 1 0

>  <DIFUSE_FUNC_ATOM>  (1341) 
n/a

>  <FINAL_SINGLE_POINT_ENERGY>  (1341) 
0

>  <NONCOV_INTER_ENERGY_QM>  (1341) 
0

>  <FF_Energy>  (1341) 
-5.28

>  <QM_Energy>  (1341) 
-10.53

>  <source>  (1341) 
ETAM_MBZ

>  <Index>  (1341) 
13326

$$$$
ETAM-pdb1u0u-E-LYS-388:MBZ-pdb1u0u-F-PHE-6
     RDKit          3D

 26 25  0  0  0  0  0  0  0  0999 V2000
   -0.0933   -1.1978   -3.2164 C   0  0  0  0  0  0  0  0  0  0  0  0
    0.0785   -0.9720   -2.2664 H   0  0  0  0  0  0  0  0  0  0  0  0
    0.4033   -0.5884   -3.8207 H   0  0  0  0  0  0  0  0  0  0  0  0
    0.2262   -2.2233   -3.4019 H   0  0  0  0  0  0  0  0  0  0  0  0
   -1.5890   -1.0346   -3.4889 C   0  0  0  0  0  0  0  0  0  0  0  0
   -1.7579   -1.2083   -4.4673 H   0  0  0  0  0  0  0  0  0  0  0  0
   -2.0901   -1.7269   -2.9543 H   0  0  0  0  0  0  0  0  0  0  0  0
   -2.0999    0.3183   -3.1374 N   0  0  0  0  0  4  0  0  0  0  0  0
   -2.1619    0.4018   -2.1431 H   0  0  0  0  0  0  0  0  0  0  0  0
   -1.4740    1.0119   -3.4922 H   0  0  0  0  0  0  0  0  0  0  0  0
   -3.0049    0.4464   -3.5412 H   0  0  0  0  0  0  0  0  0  0  0  0
    0.0094    2.8626   -0.1155 C   0  0  0  0  0  0  0  0  0  0  0  0
   -0.9143    3.1958    0.0321 H   0  0  0  0  0  0  0  0  0  0  0  0
    0.3287    3.1063   -1.0228 H   0  0  0  0  0  0  0  0  0  0  0  0
    0.6602    3.3506    0.6101 H   0  0  0  0  0  0  0  0  0  0  0  0
   -0.0010    1.3931   -0.0042 C   0  0  0  0  0  0  0  0  0  0  0  0
   -1.1972    0.6999    0.0036 C   0  0  0  0  0  0  0  0  0  0  0  0
   -2.0619    1.1917    0.0111 H   0  0  0  0  0  0  0  0  0  0  0  0
   -1.2074   -0.6917   -0.0000 C   0  0  0  0  0  0  0  0  0  0  0  0
   -2.0775   -1.1880    0.0004 H   0  0  0  0  0  0  0  0  0  0  0  0
    0.0097   -1.4025   -0.0017 C   0  0  0  0  0  0  0  0  0  0  0  0
    0.0013   -2.3920   -0.0044 H   0  0  0  0  0  0  0  0  0  0  0  0
    1.2074   -0.6915    0.0000 C   0  0  0  0  0  0  0  0  0  0  0  0
    2.0910   -1.1848    0.0014 H   0  0  0  0  0  0  0  0  0  0  0  0
    1.1884    0.6928    0.0023 C   0  0  0  0  0  0  0  0  0  0  0  0
    2.0594    1.1962    0.0079 H   0  0  0  0  0  0  0  0  0  0  0  0
  1  5  1  0
  5  8  1  0
  1  2  1  0
  1  3  1  0
  1  4  1  0
  5  6  1  0
  5  7  1  0
  8  9  1  0
  8 10  1  0
  8 11  1  0
 12 16  1  0
 16 17  2  0
 17 19  1  0
 19 21  2  0
 21 23  1  0
 23 25  2  0
 25 16  1  0
 12 13  1  0
 12 14  1  0
 12 15  1  0
 17 18  1  0
 19 20  1  0
 21 22  1  0
 23 24  1  0
 25 26  1  0
M  CHG  1   8   1
M  END
>  <PDB_ID>  (1342) 
pdb1u0u

>  <RESIDUE_NAME>  (1342) 
LYS   PHE

>  <FRAG_NAME>  (1342) 
ETAM   MBZ

>  <FRAG_ATOM_NUM>  (1342) 
fragi: 11  fragj: 15

>  <atom.prop.CHAIN_ID>  (1342) 
A A A A A A A A A A A Z Z Z Z Z Z Z Z Z Z Z Z Z Z Z

>  <atom.prop.IS_HEAVY_ATOM>  (1342) 
1 0 0 0 1 0 0 1 0 0 0 1 0 0 0 1 1 0 1 0 1 0 1 0 1 0

>  <DIFUSE_FUNC_ATOM>  (1342) 
n/a

>  <FINAL_SINGLE_POINT_ENERGY>  (1342) 
0

>  <NONCOV_INTER_ENERGY_QM>  (1342) 
0

>  <FF_Energy>  (1342) 
-1.97

>  <QM_Energy>  (1342) 
-11.14

>  <source>  (1342) 
ETAM_MBZ

>  <Index>  (1342) 
13328

$$$$
ETAM-pdb1v9e-A-LYS-157:MBZ-pdb1v9e-A-PHE-177
     RDKit          3D

 26 25  0  0  0  0  0  0  0  0999 V2000
   -4.3642    2.3445   -0.2192 C   0  0  0  0  0  0  0  0  0  0  0  0
   -4.9676    2.2579    0.5643 H   0  0  0  0  0  0  0  0  0  0  0  0
   -3.4559    2.0095   -0.0020 H   0  0  0  0  0  0  0  0  0  0  0  0
   -4.7695    1.7547   -1.0414 H   0  0  0  0  0  0  0  0  0  0  0  0
   -4.2633    3.8166   -0.5961 C   0  0  0  0  0  0  0  0  0  0  0  0
   -3.9183    4.3321    0.1935 H   0  0  0  0  0  0  0  0  0  0  0  0
   -3.6120    3.9142   -1.3547 H   0  0  0  0  0  0  0  0  0  0  0  0
   -5.5820    4.3861   -1.0101 N   0  0  0  0  0  4  0  0  0  0  0  0
   -5.4975    5.3767   -1.1033 H   0  0  0  0  0  0  0  0  0  0  0  0
   -5.8521    3.9867   -1.8848 H   0  0  0  0  0  0  0  0  0  0  0  0
   -6.2653    4.1701   -0.3155 H   0  0  0  0  0  0  0  0  0  0  0  0
   -0.0043    2.8988    0.0867 C   0  0  0  0  0  0  0  0  0  0  0  0
   -0.7703    3.2342   -0.4354 H   0  0  0  0  0  0  0  0  0  0  0  0
    0.8542    3.2307   -0.2686 H   0  0  0  0  0  0  0  0  0  0  0  0
   -0.1082    3.2650    1.1080 H   0  0  0  0  0  0  0  0  0  0  0  0
    0.0008    1.4039    0.0008 C   0  0  0  0  0  0  0  0  0  0  0  0
   -1.1957    0.6929    0.0000 C   0  0  0  0  0  0  0  0  0  0  0  0
   -2.0637    1.1829   -0.0021 H   0  0  0  0  0  0  0  0  0  0  0  0
   -1.2024   -0.6996   -0.0000 C   0  0  0  0  0  0  0  0  0  0  0  0
   -2.0802   -1.1915   -0.0000 H   0  0  0  0  0  0  0  0  0  0  0  0
   -0.0017   -1.3982    0.0017 C   0  0  0  0  0  0  0  0  0  0  0  0
   -0.0038   -2.3949    0.0031 H   0  0  0  0  0  0  0  0  0  0  0  0
    1.2024   -0.6979    0.0000 C   0  0  0  0  0  0  0  0  0  0  0  0
    2.0834   -1.1931    0.0023 H   0  0  0  0  0  0  0  0  0  0  0  0
    1.1966    0.6988   -0.0025 C   0  0  0  0  0  0  0  0  0  0  0  0
    2.0652    1.1923   -0.0076 H   0  0  0  0  0  0  0  0  0  0  0  0
  1  5  1  0
  5  8  1  0
  1  2  1  0
  1  3  1  0
  1  4  1  0
  5  6  1  0
  5  7  1  0
  8  9  1  0
  8 10  1  0
  8 11  1  0
 12 16  1  0
 16 17  2  0
 17 19  1  0
 19 21  2  0
 21 23  1  0
 23 25  2  0
 25 16  1  0
 12 13  1  0
 12 14  1  0
 12 15  1  0
 17 18  1  0
 19 20  1  0
 21 22  1  0
 23 24  1  0
 25 26  1  0
M  CHG  1   8   1
M  END
>  <PDB_ID>  (1343) 
pdb1v9e

>  <RESIDUE_NAME>  (1343) 
LYS   PHE

>  <FRAG_NAME>  (1343) 
ETAM   MBZ

>  <FRAG_ATOM_NUM>  (1343) 
fragi: 11  fragj: 15

>  <atom.prop.CHAIN_ID>  (1343) 
A A A A A A A A A A A Z Z Z Z Z Z Z Z Z Z Z Z Z Z Z

>  <atom.prop.IS_HEAVY_ATOM>  (1343) 
1 0 0 0 1 0 0 1 0 0 0 1 0 0 0 1 1 0 1 0 1 0 1 0 1 0

>  <DIFUSE_FUNC_ATOM>  (1343) 
n/a

>  <FINAL_SINGLE_POINT_ENERGY>  (1343) 
0

>  <NONCOV_INTER_ENERGY_QM>  (1343) 
0

>  <FF_Energy>  (1343) 
11.87

>  <QM_Energy>  (1343) 
1.41

>  <source>  (1343) 
ETAM_MBZ

>  <Index>  (1343) 
13332

$$$$
ETAM-pdb1vcz-A-LYS-118:MBZ-pdb1vcz-A-PHE-115
     RDKit          3D

 26 25  0  0  0  0  0  0  0  0999 V2000
    3.5186    0.3825    3.3012 C   0  0  0  0  0  0  0  0  0  0  0  0
    2.8454    0.6592    2.6204 H   0  0  0  0  0  0  0  0  0  0  0  0
    4.2798   -0.0852    2.8600 H   0  0  0  0  0  0  0  0  0  0  0  0
    3.8993    1.2763    3.7954 H   0  0  0  0  0  0  0  0  0  0  0  0
    2.8552   -0.5821    4.2784 C   0  0  0  0  0  0  0  0  0  0  0  0
    3.5492   -0.9442    4.8991 H   0  0  0  0  0  0  0  0  0  0  0  0
    2.1615   -0.0890    4.8014 H   0  0  0  0  0  0  0  0  0  0  0  0
    2.2083   -1.7152    3.5511 N   0  0  0  0  0  4  0  0  0  0  0  0
    2.0677   -1.4555    2.5965 H   0  0  0  0  0  0  0  0  0  0  0  0
    2.8011   -2.5175    3.5984 H   0  0  0  0  0  0  0  0  0  0  0  0
    1.3288   -1.9199    3.9775 H   0  0  0  0  0  0  0  0  0  0  0  0
    0.0267    2.9076    0.0865 C   0  0  0  0  0  0  0  0  0  0  0  0
   -0.8998    3.2343    0.0498 H   0  0  0  0  0  0  0  0  0  0  0  0
    0.5745    3.2532   -0.6531 H   0  0  0  0  0  0  0  0  0  0  0  0
    0.4658    3.2697    1.0160 H   0  0  0  0  0  0  0  0  0  0  0  0
    0.0049    1.4097    0.0011 C   0  0  0  0  0  0  0  0  0  0  0  0
   -1.1894    0.7010   -0.0026 C   0  0  0  0  0  0  0  0  0  0  0  0
   -2.0579    1.1911   -0.0088 H   0  0  0  0  0  0  0  0  0  0  0  0
   -1.1986   -0.6931    0.0000 C   0  0  0  0  0  0  0  0  0  0  0  0
   -2.0881   -1.1766    0.0014 H   0  0  0  0  0  0  0  0  0  0  0  0
   -0.0151   -1.4049    0.0028 C   0  0  0  0  0  0  0  0  0  0  0  0
   -0.0208   -2.3980    0.0064 H   0  0  0  0  0  0  0  0  0  0  0  0
    1.1986   -0.7084    0.0000 C   0  0  0  0  0  0  0  0  0  0  0  0
    2.0747   -1.2070    0.0006 H   0  0  0  0  0  0  0  0  0  0  0  0
    1.1997    0.6957   -0.0012 C   0  0  0  0  0  0  0  0  0  0  0  0
    2.0710    1.1827   -0.0045 H   0  0  0  0  0  0  0  0  0  0  0  0
  1  5  1  0
  5  8  1  0
  1  2  1  0
  1  3  1  0
  1  4  1  0
  5  6  1  0
  5  7  1  0
  8  9  1  0
  8 10  1  0
  8 11  1  0
 12 16  1  0
 16 17  2  0
 17 19  1  0
 19 21  2  0
 21 23  1  0
 23 25  2  0
 25 16  1  0
 12 13  1  0
 12 14  1  0
 12 15  1  0
 17 18  1  0
 19 20  1  0
 21 22  1  0
 23 24  1  0
 25 26  1  0
M  CHG  1   8   1
M  END
>  <PDB_ID>  (1344) 
pdb1vcz

>  <RESIDUE_NAME>  (1344) 
LYS   PHE

>  <FRAG_NAME>  (1344) 
ETAM   MBZ

>  <FRAG_ATOM_NUM>  (1344) 
fragi: 11  fragj: 15

>  <atom.prop.CHAIN_ID>  (1344) 
A A A A A A A A A A A Z Z Z Z Z Z Z Z Z Z Z Z Z Z Z

>  <atom.prop.IS_HEAVY_ATOM>  (1344) 
1 0 0 0 1 0 0 1 0 0 0 1 0 0 0 1 1 0 1 0 1 0 1 0 1 0

>  <DIFUSE_FUNC_ATOM>  (1344) 
n/a

>  <FINAL_SINGLE_POINT_ENERGY>  (1344) 
0

>  <NONCOV_INTER_ENERGY_QM>  (1344) 
0

>  <FF_Energy>  (1344) 
-3.45

>  <QM_Energy>  (1344) 
-8.61

>  <source>  (1344) 
ETAM_MBZ

>  <Index>  (1344) 
13351

$$$$
ETAM-pdb1vdm-A-LYS-97:MBZ-pdb1vdm-A-PHE-60
     RDKit          3D

 26 25  0  0  0  0  0  0  0  0999 V2000
    0.8131   -0.2363   -3.5297 C   0  0  0  0  0  0  0  0  0  0  0  0
    0.6629    0.0159   -4.4795 H   0  0  0  0  0  0  0  0  0  0  0  0
    0.1088    0.1605   -2.9503 H   0  0  0  0  0  0  0  0  0  0  0  0
    0.7595   -1.3218   -3.4472 H   0  0  0  0  0  0  0  0  0  0  0  0
    2.1773    0.3188   -3.0871 C   0  0  0  0  0  0  0  0  0  0  0  0
    2.3599    0.0099   -2.1490 H   0  0  0  0  0  0  0  0  0  0  0  0
    2.8866   -0.0541   -3.6931 H   0  0  0  0  0  0  0  0  0  0  0  0
    2.2342    1.8172   -3.1295 N   0  0  0  0  0  4  0  0  0  0  0  0
    2.2668    2.1153   -4.0814 H   0  0  0  0  0  0  0  0  0  0  0  0
    1.4205    2.1862   -2.6857 H   0  0  0  0  0  0  0  0  0  0  0  0
    3.0524    2.1258   -2.6497 H   0  0  0  0  0  0  0  0  0  0  0  0
   -0.0161    2.8856    0.0365 C   0  0  0  0  0  0  0  0  0  0  0  0
   -0.8333    3.1937   -0.3919 H   0  0  0  0  0  0  0  0  0  0  0  0
    0.8000    3.2114   -0.3819 H   0  0  0  0  0  0  0  0  0  0  0  0
   -0.0260    3.2322    1.0699 H   0  0  0  0  0  0  0  0  0  0  0  0
   -0.0005    1.3861    0.0022 C   0  0  0  0  0  0  0  0  0  0  0  0
   -1.2034    0.6914   -0.0010 C   0  0  0  0  0  0  0  0  0  0  0  0
   -2.0633    1.1818   -0.0054 H   0  0  0  0  0  0  0  0  0  0  0  0
   -1.1995   -0.6940   -0.0000 C   0  0  0  0  0  0  0  0  0  0  0  0
   -2.0779   -1.1927    0.0028 H   0  0  0  0  0  0  0  0  0  0  0  0
   -0.0009   -1.3912   -0.0013 C   0  0  0  0  0  0  0  0  0  0  0  0
   -0.0036   -2.3883   -0.0035 H   0  0  0  0  0  0  0  0  0  0  0  0
    1.1995   -0.6920    0.0000 C   0  0  0  0  0  0  0  0  0  0  0  0
    2.0821   -1.1937    0.0026 H   0  0  0  0  0  0  0  0  0  0  0  0
    1.2049    0.6997    0.0001 C   0  0  0  0  0  0  0  0  0  0  0  0
    2.0637    1.1938   -0.0027 H   0  0  0  0  0  0  0  0  0  0  0  0
  1  5  1  0
  5  8  1  0
  1  2  1  0
  1  3  1  0
  1  4  1  0
  5  6  1  0
  5  7  1  0
  8  9  1  0
  8 10  1  0
  8 11  1  0
 12 16  1  0
 16 17  2  0
 17 19  1  0
 19 21  2  0
 21 23  1  0
 23 25  2  0
 25 16  1  0
 12 13  1  0
 12 14  1  0
 12 15  1  0
 17 18  1  0
 19 20  1  0
 21 22  1  0
 23 24  1  0
 25 26  1  0
M  CHG  1   8   1
M  END
>  <PDB_ID>  (1345) 
pdb1vdm

>  <RESIDUE_NAME>  (1345) 
LYS   PHE

>  <FRAG_NAME>  (1345) 
ETAM   MBZ

>  <FRAG_ATOM_NUM>  (1345) 
fragi: 11  fragj: 15

>  <atom.prop.CHAIN_ID>  (1345) 
A A A A A A A A A A A Z Z Z Z Z Z Z Z Z Z Z Z Z Z Z

>  <atom.prop.IS_HEAVY_ATOM>  (1345) 
1 0 0 0 1 0 0 1 0 0 0 1 0 0 0 1 1 0 1 0 1 0 1 0 1 0

>  <DIFUSE_FUNC_ATOM>  (1345) 
n/a

>  <FINAL_SINGLE_POINT_ENERGY>  (1345) 
0

>  <NONCOV_INTER_ENERGY_QM>  (1345) 
0

>  <FF_Energy>  (1345) 
-3.39

>  <QM_Energy>  (1345) 
-9.07

>  <source>  (1345) 
ETAM_MBZ

>  <Index>  (1345) 
13359

$$$$
ETAM-pdb1vdw-A-LYS-109:MBZ-pdb1vdw-A-PHE-228
     RDKit          3D

 26 25  0  0  0  0  0  0  0  0999 V2000
    2.6415   -1.8351   -2.4952 C   0  0  0  0  0  0  0  0  0  0  0  0
    2.0339   -2.1418   -1.7591 H   0  0  0  0  0  0  0  0  0  0  0  0
    3.1320   -1.0139   -2.1952 H   0  0  0  0  0  0  0  0  0  0  0  0
    3.3673   -2.6224   -2.6992 H   0  0  0  0  0  0  0  0  0  0  0  0
    1.7916   -1.4740   -3.7022 C   0  0  0  0  0  0  0  0  0  0  0  0
    2.3797   -1.1054   -4.4191 H   0  0  0  0  0  0  0  0  0  0  0  0
    1.3288   -2.2937   -4.0353 H   0  0  0  0  0  0  0  0  0  0  0  0
    0.7622   -0.4471   -3.3402 N   0  0  0  0  0  4  0  0  0  0  0  0
   -0.1347   -0.8837   -3.2986 H   0  0  0  0  0  0  0  0  0  0  0  0
    0.9899   -0.0566   -2.4510 H   0  0  0  0  0  0  0  0  0  0  0  0
    0.7584    0.2697   -4.0337 H   0  0  0  0  0  0  0  0  0  0  0  0
   -0.0035    2.9039    0.0168 C   0  0  0  0  0  0  0  0  0  0  0  0
    0.8795    3.2159   -0.2983 H   0  0  0  0  0  0  0  0  0  0  0  0
   -0.1816    3.2004    0.9428 H   0  0  0  0  0  0  0  0  0  0  0  0
   -0.7634    3.3474   -0.6267 H   0  0  0  0  0  0  0  0  0  0  0  0
   -0.0005    1.4024    0.0002 C   0  0  0  0  0  0  0  0  0  0  0  0
   -1.1968    0.6909    0.0008 C   0  0  0  0  0  0  0  0  0  0  0  0
   -2.0645    1.1803    0.0004 H   0  0  0  0  0  0  0  0  0  0  0  0
   -1.2001   -0.7005    0.0000 C   0  0  0  0  0  0  0  0  0  0  0  0
   -2.0753   -1.1947    0.0009 H   0  0  0  0  0  0  0  0  0  0  0  0
    0.0024   -1.3940   -0.0007 C   0  0  0  0  0  0  0  0  0  0  0  0
    0.0004   -2.3932   -0.0020 H   0  0  0  0  0  0  0  0  0  0  0  0
    1.2001   -0.6951    0.0000 C   0  0  0  0  0  0  0  0  0  0  0  0
    2.0838   -1.1906    0.0021 H   0  0  0  0  0  0  0  0  0  0  0  0
    1.1948    0.6963   -0.0003 C   0  0  0  0  0  0  0  0  0  0  0  0
    2.0632    1.1926   -0.0018 H   0  0  0  0  0  0  0  0  0  0  0  0
  1  5  1  0
  5  8  1  0
  1  2  1  0
  1  3  1  0
  1  4  1  0
  5  6  1  0
  5  7  1  0
  8  9  1  0
  8 10  1  0
  8 11  1  0
 12 16  1  0
 16 17  2  0
 17 19  1  0
 19 21  2  0
 21 23  1  0
 23 25  2  0
 25 16  1  0
 12 13  1  0
 12 14  1  0
 12 15  1  0
 17 18  1  0
 19 20  1  0
 21 22  1  0
 23 24  1  0
 25 26  1  0
M  CHG  1   8   1
M  END
>  <PDB_ID>  (1346) 
pdb1vdw

>  <RESIDUE_NAME>  (1346) 
LYS   PHE

>  <FRAG_NAME>  (1346) 
ETAM   MBZ

>  <FRAG_ATOM_NUM>  (1346) 
fragi: 11  fragj: 15

>  <atom.prop.CHAIN_ID>  (1346) 
A A A A A A A A A A A Z Z Z Z Z Z Z Z Z Z Z Z Z Z Z

>  <atom.prop.IS_HEAVY_ATOM>  (1346) 
1 0 0 0 1 0 0 1 0 0 0 1 0 0 0 1 1 0 1 0 1 0 1 0 1 0

>  <DIFUSE_FUNC_ATOM>  (1346) 
n/a

>  <FINAL_SINGLE_POINT_ENERGY>  (1346) 
0

>  <NONCOV_INTER_ENERGY_QM>  (1346) 
0

>  <FF_Energy>  (1346) 
-4.53

>  <QM_Energy>  (1346) 
-12.63

>  <source>  (1346) 
ETAM_MBZ

>  <Index>  (1346) 
13360

$$$$
ETAM-pdb1vcv-A-LYS-11:MBZ-pdb1vcv-A-PHE-151
     RDKit          3D

 26 25  0  0  0  0  0  0  0  0999 V2000
    2.6101   -3.8727    1.4218 C   0  0  0  0  0  0  0  0  0  0  0  0
    3.5005   -3.7069    1.0118 H   0  0  0  0  0  0  0  0  0  0  0  0
    1.8980   -3.4115    0.9042 H   0  0  0  0  0  0  0  0  0  0  0  0
    2.4138   -4.9449    1.4181 H   0  0  0  0  0  0  0  0  0  0  0  0
    2.6162   -3.3182    2.8377 C   0  0  0  0  0  0  0  0  0  0  0  0
    1.7333   -3.5199    3.2692 H   0  0  0  0  0  0  0  0  0  0  0  0
    3.3438   -3.7695    3.3611 H   0  0  0  0  0  0  0  0  0  0  0  0
    2.8436   -1.8467    2.8540 N   0  0  0  0  0  4  0  0  0  0  0  0
    2.1875   -1.4173    3.4735 H   0  0  0  0  0  0  0  0  0  0  0  0
    3.7739   -1.6589    3.1682 H   0  0  0  0  0  0  0  0  0  0  0  0
    2.7220   -1.4827    1.9316 H   0  0  0  0  0  0  0  0  0  0  0  0
    0.0011    2.9072    0.0437 C   0  0  0  0  0  0  0  0  0  0  0  0
   -0.7521    3.2295   -0.5075 H   0  0  0  0  0  0  0  0  0  0  0  0
    0.8686    3.2223   -0.3065 H   0  0  0  0  0  0  0  0  0  0  0  0
   -0.1214    3.3142    1.0473 H   0  0  0  0  0  0  0  0  0  0  0  0
   -0.0009    1.4032    0.0006 C   0  0  0  0  0  0  0  0  0  0  0  0
   -1.1972    0.6944    0.0007 C   0  0  0  0  0  0  0  0  0  0  0  0
   -2.0644    1.1844    0.0004 H   0  0  0  0  0  0  0  0  0  0  0  0
   -1.2034   -0.6991   -0.0000 C   0  0  0  0  0  0  0  0  0  0  0  0
   -2.0797   -1.1906    0.0012 H   0  0  0  0  0  0  0  0  0  0  0  0
   -0.0015   -1.3965   -0.0003 C   0  0  0  0  0  0  0  0  0  0  0  0
   -0.0027   -2.3933   -0.0016 H   0  0  0  0  0  0  0  0  0  0  0  0
    1.2034   -0.6957    0.0000 C   0  0  0  0  0  0  0  0  0  0  0  0
    2.0836   -1.1958    0.0022 H   0  0  0  0  0  0  0  0  0  0  0  0
    1.1996    0.6937   -0.0009 C   0  0  0  0  0  0  0  0  0  0  0  0
    2.0656    1.1912   -0.0035 H   0  0  0  0  0  0  0  0  0  0  0  0
  1  5  1  0
  5  8  1  0
  1  2  1  0
  1  3  1  0
  1  4  1  0
  5  6  1  0
  5  7  1  0
  8  9  1  0
  8 10  1  0
  8 11  1  0
 12 16  1  0
 16 17  2  0
 17 19  1  0
 19 21  2  0
 21 23  1  0
 23 25  2  0
 25 16  1  0
 12 13  1  0
 12 14  1  0
 12 15  1  0
 17 18  1  0
 19 20  1  0
 21 22  1  0
 23 24  1  0
 25 26  1  0
M  CHG  1   8   1
M  END
>  <PDB_ID>  (1347) 
pdb1vcv

>  <RESIDUE_NAME>  (1347) 
LYS   PHE

>  <FRAG_NAME>  (1347) 
ETAM   MBZ

>  <FRAG_ATOM_NUM>  (1347) 
fragi: 11  fragj: 15

>  <atom.prop.CHAIN_ID>  (1347) 
A A A A A A A A A A A Z Z Z Z Z Z Z Z Z Z Z Z Z Z Z

>  <atom.prop.IS_HEAVY_ATOM>  (1347) 
1 0 0 0 1 0 0 1 0 0 0 1 0 0 0 1 1 0 1 0 1 0 1 0 1 0

>  <DIFUSE_FUNC_ATOM>  (1347) 
n/a

>  <FINAL_SINGLE_POINT_ENERGY>  (1347) 
0

>  <NONCOV_INTER_ENERGY_QM>  (1347) 
0

>  <FF_Energy>  (1347) 
-2.0

>  <QM_Energy>  (1347) 
-7.93

>  <source>  (1347) 
ETAM_MBZ

>  <Index>  (1347) 
13381

$$$$
ETAM-pdb1uzb-B-LYS-126:MBZ-pdb1uzb-B-PHE-185
     RDKit          3D

 26 25  0  0  0  0  0  0  0  0999 V2000
    2.6584   -0.0924    5.7476 C   0  0  0  0  0  0  0  0  0  0  0  0
    3.2540    0.6928    5.7583 H   0  0  0  0  0  0  0  0  0  0  0  0
    3.1113   -0.8926    5.3932 H   0  0  0  0  0  0  0  0  0  0  0  0
    2.3154   -0.2942    6.7623 H   0  0  0  0  0  0  0  0  0  0  0  0
    1.4578    0.2176    4.8696 C   0  0  0  0  0  0  0  0  0  0  0  0
    0.7644   -0.5067    5.0011 H   0  0  0  0  0  0  0  0  0  0  0  0
    1.0509    1.0921    5.1737 H   0  0  0  0  0  0  0  0  0  0  0  0
    1.7905    0.3140    3.4259 N   0  0  0  0  0  4  0  0  0  0  0  0
    1.5102    1.2091    3.0777 H   0  0  0  0  0  0  0  0  0  0  0  0
    2.7770    0.2023    3.3031 H   0  0  0  0  0  0  0  0  0  0  0  0
    1.3088   -0.4044    2.9243 H   0  0  0  0  0  0  0  0  0  0  0  0
    0.0065    2.8988    0.0599 C   0  0  0  0  0  0  0  0  0  0  0  0
   -0.8129    3.2293   -0.3807 H   0  0  0  0  0  0  0  0  0  0  0  0
    0.8199    3.2227   -0.3960 H   0  0  0  0  0  0  0  0  0  0  0  0
    0.0174    3.2919    1.0765 H   0  0  0  0  0  0  0  0  0  0  0  0
    0.0002    1.4018    0.0001 C   0  0  0  0  0  0  0  0  0  0  0  0
   -1.1969    0.6959   -0.0006 C   0  0  0  0  0  0  0  0  0  0  0  0
   -2.0628    1.1865   -0.0029 H   0  0  0  0  0  0  0  0  0  0  0  0
   -1.2032   -0.6961   -0.0000 C   0  0  0  0  0  0  0  0  0  0  0  0
   -2.0803   -1.1880    0.0005 H   0  0  0  0  0  0  0  0  0  0  0  0
   -0.0017   -1.3946    0.0022 C   0  0  0  0  0  0  0  0  0  0  0  0
   -0.0069   -2.3933    0.0052 H   0  0  0  0  0  0  0  0  0  0  0  0
    1.2032   -0.6992    0.0000 C   0  0  0  0  0  0  0  0  0  0  0  0
    2.0819   -1.1982    0.0014 H   0  0  0  0  0  0  0  0  0  0  0  0
    1.1985    0.6924   -0.0017 C   0  0  0  0  0  0  0  0  0  0  0  0
    2.0659    1.1893   -0.0052 H   0  0  0  0  0  0  0  0  0  0  0  0
  1  5  1  0
  5  8  1  0
  1  2  1  0
  1  3  1  0
  1  4  1  0
  5  6  1  0
  5  7  1  0
  8  9  1  0
  8 10  1  0
  8 11  1  0
 12 16  1  0
 16 17  2  0
 17 19  1  0
 19 21  2  0
 21 23  1  0
 23 25  2  0
 25 16  1  0
 12 13  1  0
 12 14  1  0
 12 15  1  0
 17 18  1  0
 19 20  1  0
 21 22  1  0
 23 24  1  0
 25 26  1  0
M  CHG  1   8   1
M  END
>  <PDB_ID>  (1348) 
pdb1uzb

>  <RESIDUE_NAME>  (1348) 
LYS   PHE

>  <FRAG_NAME>  (1348) 
ETAM   MBZ

>  <FRAG_ATOM_NUM>  (1348) 
fragi: 11  fragj: 15

>  <atom.prop.CHAIN_ID>  (1348) 
A A A A A A A A A A A Z Z Z Z Z Z Z Z Z Z Z Z Z Z Z

>  <atom.prop.IS_HEAVY_ATOM>  (1348) 
1 0 0 0 1 0 0 1 0 0 0 1 0 0 0 1 1 0 1 0 1 0 1 0 1 0

>  <DIFUSE_FUNC_ATOM>  (1348) 
n/a

>  <FINAL_SINGLE_POINT_ENERGY>  (1348) 
0

>  <NONCOV_INTER_ENERGY_QM>  (1348) 
0

>  <FF_Energy>  (1348) 
-5.43

>  <QM_Energy>  (1348) 
-10.62

>  <source>  (1348) 
ETAM_MBZ

>  <Index>  (1348) 
13402

$$$$
ETAM-pdb1vdh-E-LYS-71:MBZ-pdb1vdh-E-PHE-233
     RDKit          3D

 26 25  0  0  0  0  0  0  0  0999 V2000
   -1.0711   -1.4933   -4.2814 C   0  0  0  0  0  0  0  0  0  0  0  0
   -0.6786   -1.6733   -3.3780 H   0  0  0  0  0  0  0  0  0  0  0  0
   -0.6236   -2.0775   -4.9595 H   0  0  0  0  0  0  0  0  0  0  0  0
   -2.1327   -1.7395   -4.2546 H   0  0  0  0  0  0  0  0  0  0  0  0
   -0.7923   -0.0328   -4.6454 C   0  0  0  0  0  0  0  0  0  0  0  0
    0.2024    0.0655   -4.8232 H   0  0  0  0  0  0  0  0  0  0  0  0
   -1.2720    0.1737   -5.5155 H   0  0  0  0  0  0  0  0  0  0  0  0
   -1.2042    0.9409   -3.6164 N   0  0  0  0  0  4  0  0  0  0  0  0
   -2.2039    0.9703   -3.5598 H   0  0  0  0  0  0  0  0  0  0  0  0
   -0.8304    0.6712   -2.7269 H   0  0  0  0  0  0  0  0  0  0  0  0
   -0.8612    1.8507   -3.8556 H   0  0  0  0  0  0  0  0  0  0  0  0
   -0.0077    2.9151    0.0713 C   0  0  0  0  0  0  0  0  0  0  0  0
    0.6820    3.1939    0.7260 H   0  0  0  0  0  0  0  0  0  0  0  0
   -0.9100    3.2026    0.3628 H   0  0  0  0  0  0  0  0  0  0  0  0
    0.2100    3.4169   -0.8715 H   0  0  0  0  0  0  0  0  0  0  0  0
   -0.0005    1.4079    0.0005 C   0  0  0  0  0  0  0  0  0  0  0  0
   -1.1982    0.6961   -0.0011 C   0  0  0  0  0  0  0  0  0  0  0  0
   -2.0657    1.1846   -0.0041 H   0  0  0  0  0  0  0  0  0  0  0  0
   -1.2062   -0.7028   -0.0000 C   0  0  0  0  0  0  0  0  0  0  0  0
   -2.0813   -1.1928    0.0002 H   0  0  0  0  0  0  0  0  0  0  0  0
   -0.0007   -1.4027    0.0028 C   0  0  0  0  0  0  0  0  0  0  0  0
   -0.0006   -2.3975    0.0065 H   0  0  0  0  0  0  0  0  0  0  0  0
    1.2062   -0.6977    0.0000 C   0  0  0  0  0  0  0  0  0  0  0  0
    2.0863   -1.1937    0.0016 H   0  0  0  0  0  0  0  0  0  0  0  0
    1.1994    0.6992   -0.0023 C   0  0  0  0  0  0  0  0  0  0  0  0
    2.0671    1.1947   -0.0066 H   0  0  0  0  0  0  0  0  0  0  0  0
  1  5  1  0
  5  8  1  0
  1  2  1  0
  1  3  1  0
  1  4  1  0
  5  6  1  0
  5  7  1  0
  8  9  1  0
  8 10  1  0
  8 11  1  0
 12 16  1  0
 16 17  2  0
 17 19  1  0
 19 21  2  0
 21 23  1  0
 23 25  2  0
 25 16  1  0
 12 13  1  0
 12 14  1  0
 12 15  1  0
 17 18  1  0
 19 20  1  0
 21 22  1  0
 23 24  1  0
 25 26  1  0
M  CHG  1   8   1
M  END
>  <PDB_ID>  (1349) 
pdb1vdh

>  <RESIDUE_NAME>  (1349) 
LYS   PHE

>  <FRAG_NAME>  (1349) 
ETAM   MBZ

>  <FRAG_ATOM_NUM>  (1349) 
fragi: 11  fragj: 15

>  <atom.prop.CHAIN_ID>  (1349) 
A A A A A A A A A A A Z Z Z Z Z Z Z Z Z Z Z Z Z Z Z

>  <atom.prop.IS_HEAVY_ATOM>  (1349) 
1 0 0 0 1 0 0 1 0 0 0 1 0 0 0 1 1 0 1 0 1 0 1 0 1 0

>  <DIFUSE_FUNC_ATOM>  (1349) 
n/a

>  <FINAL_SINGLE_POINT_ENERGY>  (1349) 
0

>  <NONCOV_INTER_ENERGY_QM>  (1349) 
0

>  <FF_Energy>  (1349) 
-6.72

>  <QM_Energy>  (1349) 
-12.16

>  <source>  (1349) 
ETAM_MBZ

>  <Index>  (1349) 
13426

$$$$
ETAM-pdb1vl5-C-LYS-225:MBZ-pdb1vl5-C-PHE-221
     RDKit          3D

 26 25  0  0  0  0  0  0  0  0999 V2000
    0.1424   -1.9470    4.5728 C   0  0  0  0  0  0  0  0  0  0  0  0
    0.5283   -2.5114    3.8452 H   0  0  0  0  0  0  0  0  0  0  0  0
   -0.2519   -2.5311    5.2792 H   0  0  0  0  0  0  0  0  0  0  0  0
    0.9410   -1.3514    5.0149 H   0  0  0  0  0  0  0  0  0  0  0  0
   -0.9450   -1.0824    3.9932 C   0  0  0  0  0  0  0  0  0  0  0  0
   -1.3835   -0.5727    4.7298 H   0  0  0  0  0  0  0  0  0  0  0  0
   -0.5419   -0.4481    3.3365 H   0  0  0  0  0  0  0  0  0  0  0  0
   -1.9302   -1.9299    3.3223 N   0  0  0  0  0  4  0  0  0  0  0  0
   -1.6884   -2.8974    3.4395 H   0  0  0  0  0  0  0  0  0  0  0  0
   -2.8420   -1.7726    3.7119 H   0  0  0  0  0  0  0  0  0  0  0  0
   -1.9556   -1.7175    2.3412 H   0  0  0  0  0  0  0  0  0  0  0  0
    0.0206    2.8695    0.0006 C   0  0  0  0  0  0  0  0  0  0  0  0
   -0.7440    3.1936   -0.5370 H   0  0  0  0  0  0  0  0  0  0  0  0
    0.8808    3.1816   -0.3762 H   0  0  0  0  0  0  0  0  0  0  0  0
   -0.0754    3.2962    0.9990 H   0  0  0  0  0  0  0  0  0  0  0  0
    0.0113    1.3843   -0.0122 C   0  0  0  0  0  0  0  0  0  0  0  0
   -1.1834    0.6882    0.0088 C   0  0  0  0  0  0  0  0  0  0  0  0
   -2.0482    1.1830    0.0292 H   0  0  0  0  0  0  0  0  0  0  0  0
   -1.1892   -0.6924   -0.0000 C   0  0  0  0  0  0  0  0  0  0  0  0
   -2.0842   -1.1742   -0.0066 H   0  0  0  0  0  0  0  0  0  0  0  0
   -0.0303   -1.3694    0.0021 C   0  0  0  0  0  0  0  0  0  0  0  0
   -0.0156   -2.3780    0.0051 H   0  0  0  0  0  0  0  0  0  0  0  0
    1.1892   -0.6837    0.0000 C   0  0  0  0  0  0  0  0  0  0  0  0
    2.0561   -1.2125   -0.0011 H   0  0  0  0  0  0  0  0  0  0  0  0
    1.2024    0.6731    0.0012 C   0  0  0  0  0  0  0  0  0  0  0  0
    2.0693    1.1765    0.0108 H   0  0  0  0  0  0  0  0  0  0  0  0
  1  5  1  0
  5  8  1  0
  1  2  1  0
  1  3  1  0
  1  4  1  0
  5  6  1  0
  5  7  1  0
  8  9  1  0
  8 10  1  0
  8 11  1  0
 12 16  1  0
 16 17  2  0
 17 19  1  0
 19 21  2  0
 21 23  1  0
 23 25  2  0
 25 16  1  0
 12 13  1  0
 12 14  1  0
 12 15  1  0
 17 18  1  0
 19 20  1  0
 21 22  1  0
 23 24  1  0
 25 26  1  0
M  CHG  1   8   1
M  END
>  <PDB_ID>  (1350) 
pdb1vl5

>  <RESIDUE_NAME>  (1350) 
LYS   PHE

>  <FRAG_NAME>  (1350) 
ETAM   MBZ

>  <FRAG_ATOM_NUM>  (1350) 
fragi: 11  fragj: 15

>  <atom.prop.CHAIN_ID>  (1350) 
A A A A A A A A A A A Z Z Z Z Z Z Z Z Z Z Z Z Z Z Z

>  <atom.prop.IS_HEAVY_ATOM>  (1350) 
1 0 0 0 1 0 0 1 0 0 0 1 0 0 0 1 1 0 1 0 1 0 1 0 1 0

>  <DIFUSE_FUNC_ATOM>  (1350) 
n/a

>  <FINAL_SINGLE_POINT_ENERGY>  (1350) 
0

>  <NONCOV_INTER_ENERGY_QM>  (1350) 
0

>  <FF_Energy>  (1350) 
-4.01

>  <QM_Energy>  (1350) 
-10.23

>  <source>  (1350) 
ETAM_MBZ

>  <Index>  (1350) 
13486

$$$$
ETAM-pdb1vky-A-LYS-270:MBZ-pdb1vky-A-PHE-223
     RDKit          3D

 26 25  0  0  0  0  0  0  0  0999 V2000
    3.0634   -1.0801    3.2266 C   0  0  0  0  0  0  0  0  0  0  0  0
    3.4949   -1.6284    2.5305 H   0  0  0  0  0  0  0  0  0  0  0  0
    3.4839   -1.2079    4.1085 H   0  0  0  0  0  0  0  0  0  0  0  0
    3.1415   -0.0296    2.9466 H   0  0  0  0  0  0  0  0  0  0  0  0
    1.5674   -1.5266    3.3352 C   0  0  0  0  0  0  0  0  0  0  0  0
    1.2415   -1.3006    4.2604 H   0  0  0  0  0  0  0  0  0  0  0  0
    1.0330   -0.9901    2.6713 H   0  0  0  0  0  0  0  0  0  0  0  0
    1.3342   -3.0020    3.0776 N   0  0  0  0  0  4  0  0  0  0  0  0
    0.8711   -3.1028    2.2024 H   0  0  0  0  0  0  0  0  0  0  0  0
    2.2148   -3.4642    3.0575 H   0  0  0  0  0  0  0  0  0  0  0  0
    0.7696   -3.3674    3.8115 H   0  0  0  0  0  0  0  0  0  0  0  0
   -0.0093    2.8910   -0.0007 C   0  0  0  0  0  0  0  0  0  0  0  0
   -0.8098    3.2000   -0.4935 H   0  0  0  0  0  0  0  0  0  0  0  0
    0.8227    3.2136   -0.4286 H   0  0  0  0  0  0  0  0  0  0  0  0
   -0.0523    3.3370    0.9929 H   0  0  0  0  0  0  0  0  0  0  0  0
    0.0033    1.4035    0.0058 C   0  0  0  0  0  0  0  0  0  0  0  0
   -1.2037    0.6851   -0.0023 C   0  0  0  0  0  0  0  0  0  0  0  0
   -2.0666    1.1741   -0.0110 H   0  0  0  0  0  0  0  0  0  0  0  0
   -1.2028   -0.7114    0.0000 C   0  0  0  0  0  0  0  0  0  0  0  0
   -2.0733   -1.2080    0.0046 H   0  0  0  0  0  0  0  0  0  0  0  0
    0.0063   -1.3943   -0.0025 C   0  0  0  0  0  0  0  0  0  0  0  0
    0.0111   -2.3948   -0.0066 H   0  0  0  0  0  0  0  0  0  0  0  0
    1.2028   -0.6898   -0.0000 C   0  0  0  0  0  0  0  0  0  0  0  0
    2.0887   -1.1808    0.0042 H   0  0  0  0  0  0  0  0  0  0  0  0
    1.1940    0.7068   -0.0010 C   0  0  0  0  0  0  0  0  0  0  0  0
    2.0643    1.2003   -0.0075 H   0  0  0  0  0  0  0  0  0  0  0  0
  1  5  1  0
  5  8  1  0
  1  2  1  0
  1  3  1  0
  1  4  1  0
  5  6  1  0
  5  7  1  0
  8  9  1  0
  8 10  1  0
  8 11  1  0
 12 16  1  0
 16 17  2  0
 17 19  1  0
 19 21  2  0
 21 23  1  0
 23 25  2  0
 25 16  1  0
 12 13  1  0
 12 14  1  0
 12 15  1  0
 17 18  1  0
 19 20  1  0
 21 22  1  0
 23 24  1  0
 25 26  1  0
M  CHG  1   8   1
M  END
>  <PDB_ID>  (1351) 
pdb1vky

>  <RESIDUE_NAME>  (1351) 
LYS   PHE

>  <FRAG_NAME>  (1351) 
ETAM   MBZ

>  <FRAG_ATOM_NUM>  (1351) 
fragi: 11  fragj: 15

>  <atom.prop.CHAIN_ID>  (1351) 
A A A A A A A A A A A Z Z Z Z Z Z Z Z Z Z Z Z Z Z Z

>  <atom.prop.IS_HEAVY_ATOM>  (1351) 
1 0 0 0 1 0 0 1 0 0 0 1 0 0 0 1 1 0 1 0 1 0 1 0 1 0

>  <DIFUSE_FUNC_ATOM>  (1351) 
n/a

>  <FINAL_SINGLE_POINT_ENERGY>  (1351) 
0

>  <NONCOV_INTER_ENERGY_QM>  (1351) 
0

>  <FF_Energy>  (1351) 
-3.02

>  <QM_Energy>  (1351) 
-9.08

>  <source>  (1351) 
ETAM_MBZ

>  <Index>  (1351) 
13496

$$$$
ETAM-pdb1vlp-C-LYS-54:MBZ-pdb1vlp-C-PHE-103
     RDKit          3D

 26 25  0  0  0  0  0  0  0  0999 V2000
    3.9519   -0.6729    3.8083 C   0  0  0  0  0  0  0  0  0  0  0  0
    4.3882   -1.5263    4.0788 H   0  0  0  0  0  0  0  0  0  0  0  0
    4.4198    0.1000    4.2259 H   0  0  0  0  0  0  0  0  0  0  0  0
    3.9977   -0.5765    2.7235 H   0  0  0  0  0  0  0  0  0  0  0  0
    2.5004   -0.6916    4.3335 C   0  0  0  0  0  0  0  0  0  0  0  0
    2.2462   -1.6578    4.5253 H   0  0  0  0  0  0  0  0  0  0  0  0
    2.4797   -0.2011    5.2244 H   0  0  0  0  0  0  0  0  0  0  0  0
    1.4722   -0.0902    3.4250 N   0  0  0  0  0  4  0  0  0  0  0  0
    0.7435   -0.7543    3.2713 H   0  0  0  0  0  0  0  0  0  0  0  0
    1.0979    0.7305    3.8526 H   0  0  0  0  0  0  0  0  0  0  0  0
    1.9028    0.1475    2.5565 H   0  0  0  0  0  0  0  0  0  0  0  0
    0.0398    2.8934    0.0068 C   0  0  0  0  0  0  0  0  0  0  0  0
    0.0534    3.1863   -0.9434 H   0  0  0  0  0  0  0  0  0  0  0  0
    0.8765    3.1741    0.4659 H   0  0  0  0  0  0  0  0  0  0  0  0
   -0.7998    3.3817    0.5014 H   0  0  0  0  0  0  0  0  0  0  0  0
    0.0027    1.3814    0.0155 C   0  0  0  0  0  0  0  0  0  0  0  0
   -1.1755    0.6948    0.0192 C   0  0  0  0  0  0  0  0  0  0  0  0
   -2.0454    1.2022    0.0349 H   0  0  0  0  0  0  0  0  0  0  0  0
   -1.1923   -0.6581   -0.0000 C   0  0  0  0  0  0  0  0  0  0  0  0
   -2.0897   -1.1501    0.0138 H   0  0  0  0  0  0  0  0  0  0  0  0
   -0.0304   -1.3767   -0.0356 C   0  0  0  0  0  0  0  0  0  0  0  0
   -0.0498   -2.3753   -0.0873 H   0  0  0  0  0  0  0  0  0  0  0  0
    1.1923   -0.7110    0.0000 C   0  0  0  0  0  0  0  0  0  0  0  0
    2.0552   -1.2280    0.0258 H   0  0  0  0  0  0  0  0  0  0  0  0
    1.2032    0.6695    0.0009 C   0  0  0  0  0  0  0  0  0  0  0  0
    2.0674    1.1656   -0.0101 H   0  0  0  0  0  0  0  0  0  0  0  0
  1  5  1  0
  5  8  1  0
  1  2  1  0
  1  3  1  0
  1  4  1  0
  5  6  1  0
  5  7  1  0
  8  9  1  0
  8 10  1  0
  8 11  1  0
 12 16  1  0
 16 17  2  0
 17 19  1  0
 19 21  2  0
 21 23  1  0
 23 25  2  0
 25 16  1  0
 12 13  1  0
 12 14  1  0
 12 15  1  0
 17 18  1  0
 19 20  1  0
 21 22  1  0
 23 24  1  0
 25 26  1  0
M  CHG  1   8   1
M  END
>  <PDB_ID>  (1352) 
pdb1vlp

>  <RESIDUE_NAME>  (1352) 
LYS   PHE

>  <FRAG_NAME>  (1352) 
ETAM   MBZ

>  <FRAG_ATOM_NUM>  (1352) 
fragi: 11  fragj: 15

>  <atom.prop.CHAIN_ID>  (1352) 
A A A A A A A A A A A Z Z Z Z Z Z Z Z Z Z Z Z Z Z Z

>  <atom.prop.IS_HEAVY_ATOM>  (1352) 
1 0 0 0 1 0 0 1 0 0 0 1 0 0 0 1 1 0 1 0 1 0 1 0 1 0

>  <DIFUSE_FUNC_ATOM>  (1352) 
n/a

>  <FINAL_SINGLE_POINT_ENERGY>  (1352) 
0

>  <NONCOV_INTER_ENERGY_QM>  (1352) 
0

>  <FF_Energy>  (1352) 
-6.22

>  <QM_Energy>  (1352) 
-11.7

>  <source>  (1352) 
ETAM_MBZ

>  <Index>  (1352) 
13512

$$$$
ETAM-pdb1vm0-A-LYS-40:MBZ-pdb1vm0-A-PHE-73
     RDKit          3D

 26 25  0  0  0  0  0  0  0  0999 V2000
   -1.3966   -0.3925    4.2718 C   0  0  0  0  0  0  0  0  0  0  0  0
   -1.3618   -0.8597    5.1620 H   0  0  0  0  0  0  0  0  0  0  0  0
   -2.1055   -0.8284    3.7081 H   0  0  0  0  0  0  0  0  0  0  0  0
   -1.6639    0.6520    4.4319 H   0  0  0  0  0  0  0  0  0  0  0  0
   -0.0563   -0.5833    3.5815 C   0  0  0  0  0  0  0  0  0  0  0  0
   -0.1059   -0.1982    2.6641 H   0  0  0  0  0  0  0  0  0  0  0  0
    0.6500   -0.1202    4.1097 H   0  0  0  0  0  0  0  0  0  0  0  0
    0.2636   -2.0306    3.4921 N   0  0  0  0  0  4  0  0  0  0  0  0
    1.1702   -2.1960    3.8805 H   0  0  0  0  0  0  0  0  0  0  0  0
   -0.4183   -2.5542    4.0025 H   0  0  0  0  0  0  0  0  0  0  0  0
    0.2544   -2.3150    2.5332 H   0  0  0  0  0  0  0  0  0  0  0  0
   -0.0182    2.8970   -0.0255 C   0  0  0  0  0  0  0  0  0  0  0  0
    0.7663    3.2236    0.4707 H   0  0  0  0  0  0  0  0  0  0  0  0
   -0.8637    3.1953    0.3807 H   0  0  0  0  0  0  0  0  0  0  0  0
    0.0306    3.3124   -1.0321 H   0  0  0  0  0  0  0  0  0  0  0  0
    0.0063    1.3948   -0.0093 C   0  0  0  0  0  0  0  0  0  0  0  0
   -1.1960    0.7062    0.0071 C   0  0  0  0  0  0  0  0  0  0  0  0
   -2.0558    1.1966    0.0230 H   0  0  0  0  0  0  0  0  0  0  0  0
   -1.1990   -0.6867    0.0000 C   0  0  0  0  0  0  0  0  0  0  0  0
   -2.0825   -1.1751   -0.0216 H   0  0  0  0  0  0  0  0  0  0  0  0
   -0.0105   -1.3848    0.0237 C   0  0  0  0  0  0  0  0  0  0  0  0
   -0.0252   -2.3902    0.0582 H   0  0  0  0  0  0  0  0  0  0  0  0
    1.1990   -0.7152   -0.0000 C   0  0  0  0  0  0  0  0  0  0  0  0
    2.0725   -1.2133   -0.0005 H   0  0  0  0  0  0  0  0  0  0  0  0
    1.2002    0.6857   -0.0216 C   0  0  0  0  0  0  0  0  0  0  0  0
    2.0703    1.1734   -0.0468 H   0  0  0  0  0  0  0  0  0  0  0  0
  1  5  1  0
  5  8  1  0
  1  2  1  0
  1  3  1  0
  1  4  1  0
  5  6  1  0
  5  7  1  0
  8  9  1  0
  8 10  1  0
  8 11  1  0
 12 16  1  0
 16 17  2  0
 17 19  1  0
 19 21  2  0
 21 23  1  0
 23 25  2  0
 25 16  1  0
 12 13  1  0
 12 14  1  0
 12 15  1  0
 17 18  1  0
 19 20  1  0
 21 22  1  0
 23 24  1  0
 25 26  1  0
M  CHG  1   8   1
M  END
>  <PDB_ID>  (1353) 
pdb1vm0

>  <RESIDUE_NAME>  (1353) 
LYS   PHE

>  <FRAG_NAME>  (1353) 
ETAM   MBZ

>  <FRAG_ATOM_NUM>  (1353) 
fragi: 11  fragj: 15

>  <atom.prop.CHAIN_ID>  (1353) 
A A A A A A A A A A A Z Z Z Z Z Z Z Z Z Z Z Z Z Z Z

>  <atom.prop.IS_HEAVY_ATOM>  (1353) 
1 0 0 0 1 0 0 1 0 0 0 1 0 0 0 1 1 0 1 0 1 0 1 0 1 0

>  <DIFUSE_FUNC_ATOM>  (1353) 
n/a

>  <FINAL_SINGLE_POINT_ENERGY>  (1353) 
0

>  <NONCOV_INTER_ENERGY_QM>  (1353) 
0

>  <FF_Energy>  (1353) 
-5.57

>  <QM_Energy>  (1353) 
-12.66

>  <source>  (1353) 
ETAM_MBZ

>  <Index>  (1353) 
13513

$$$$
ETAM-pdb1vm6-C-LYS-201:MBZ-pdb1vm6-C-PHE-197
     RDKit          3D

 26 25  0  0  0  0  0  0  0  0999 V2000
   -1.0780   -1.4215   -4.3290 C   0  0  0  0  0  0  0  0  0  0  0  0
   -1.0643   -2.0932   -3.5976 H   0  0  0  0  0  0  0  0  0  0  0  0
   -1.1679   -1.8667   -5.2112 H   0  0  0  0  0  0  0  0  0  0  0  0
   -1.9189   -0.7442   -4.1795 H   0  0  0  0  0  0  0  0  0  0  0  0
    0.2450   -0.6611   -4.3073 C   0  0  0  0  0  0  0  0  0  0  0  0
    0.9079   -1.1747   -4.8565 H   0  0  0  0  0  0  0  0  0  0  0  0
    0.0955    0.2363   -4.7297 H   0  0  0  0  0  0  0  0  0  0  0  0
    0.7168   -0.5116   -2.9527 N   0  0  0  0  0  4  0  0  0  0  0  0
    1.2664    0.3275   -2.8597 H   0  0  0  0  0  0  0  0  0  0  0  0
   -0.0582   -0.4559   -2.3114 H   0  0  0  0  0  0  0  0  0  0  0  0
    1.2907   -1.2964   -2.6881 H   0  0  0  0  0  0  0  0  0  0  0  0
   -0.0020    2.8808    0.0181 C   0  0  0  0  0  0  0  0  0  0  0  0
    0.8248    3.1875    0.4654 H   0  0  0  0  0  0  0  0  0  0  0  0
   -0.8073    3.1810    0.5094 H   0  0  0  0  0  0  0  0  0  0  0  0
   -0.0306    3.3231   -0.9777 H   0  0  0  0  0  0  0  0  0  0  0  0
    0.0039    1.3887    0.0047 C   0  0  0  0  0  0  0  0  0  0  0  0
   -1.1853    0.6851   -0.0005 C   0  0  0  0  0  0  0  0  0  0  0  0
   -2.0527    1.1817   -0.0062 H   0  0  0  0  0  0  0  0  0  0  0  0
   -1.1826   -0.6801   -0.0000 C   0  0  0  0  0  0  0  0  0  0  0  0
   -2.0727   -1.1788    0.0095 H   0  0  0  0  0  0  0  0  0  0  0  0
   -0.0097   -1.3740   -0.0098 C   0  0  0  0  0  0  0  0  0  0  0  0
   -0.0217   -2.3812   -0.0247 H   0  0  0  0  0  0  0  0  0  0  0  0
    1.1826   -0.7031    0.0000 C   0  0  0  0  0  0  0  0  0  0  0  0
    2.0638   -1.2053    0.0049 H   0  0  0  0  0  0  0  0  0  0  0  0
    1.1910    0.6834    0.0057 C   0  0  0  0  0  0  0  0  0  0  0  0
    2.0622    1.1724    0.0098 H   0  0  0  0  0  0  0  0  0  0  0  0
  1  5  1  0
  5  8  1  0
  1  2  1  0
  1  3  1  0
  1  4  1  0
  5  6  1  0
  5  7  1  0
  8  9  1  0
  8 10  1  0
  8 11  1  0
 12 16  1  0
 16 17  2  0
 17 19  1  0
 19 21  2  0
 21 23  1  0
 23 25  2  0
 25 16  1  0
 12 13  1  0
 12 14  1  0
 12 15  1  0
 17 18  1  0
 19 20  1  0
 21 22  1  0
 23 24  1  0
 25 26  1  0
M  CHG  1   8   1
M  END
>  <PDB_ID>  (1354) 
pdb1vm6

>  <RESIDUE_NAME>  (1354) 
LYS   PHE

>  <FRAG_NAME>  (1354) 
ETAM   MBZ

>  <FRAG_ATOM_NUM>  (1354) 
fragi: 11  fragj: 15

>  <atom.prop.CHAIN_ID>  (1354) 
A A A A A A A A A A A Z Z Z Z Z Z Z Z Z Z Z Z Z Z Z

>  <atom.prop.IS_HEAVY_ATOM>  (1354) 
1 0 0 0 1 0 0 1 0 0 0 1 0 0 0 1 1 0 1 0 1 0 1 0 1 0

>  <DIFUSE_FUNC_ATOM>  (1354) 
n/a

>  <FINAL_SINGLE_POINT_ENERGY>  (1354) 
0

>  <NONCOV_INTER_ENERGY_QM>  (1354) 
0

>  <FF_Energy>  (1354) 
-7.81

>  <QM_Energy>  (1354) 
-16.11

>  <source>  (1354) 
ETAM_MBZ

>  <Index>  (1354) 
13525

$$$$
ETAM-pdb1vmo-B-ARG-1:MBZ-pdb1vmo-B-PHE-25
     RDKit          3D

 26 25  0  0  0  0  0  0  0  0999 V2000
   -5.2155   -3.5486   -3.0894 C   0  0  0  0  0  0  0  0  0  0  0  0
   -5.9024   -3.1086   -2.5258 H   0  0  0  0  0  0  0  0  0  0  0  0
   -5.3628   -3.3445   -4.0480 H   0  0  0  0  0  0  0  0  0  0  0  0
   -5.3073   -4.6264   -2.9553 H   0  0  0  0  0  0  0  0  0  0  0  0
   -3.8381   -2.9969   -2.6866 C   0  0  0  0  0  0  0  0  0  0  0  0
   -3.1958   -3.7661   -2.7139 H   0  0  0  0  0  0  0  0  0  0  0  0
   -3.5125   -2.2284   -3.3875 H   0  0  0  0  0  0  0  0  0  0  0  0
   -3.8538   -2.4621   -1.2908 N   0  0  0  0  0  4  0  0  0  0  0  0
   -2.9765   -2.0313   -1.0982 H   0  0  0  0  0  0  0  0  0  0  0  0
   -4.5861   -1.7919   -1.2076 H   0  0  0  0  0  0  0  0  0  0  0  0
   -4.0087   -3.2144   -0.6568 H   0  0  0  0  0  0  0  0  0  0  0  0
   -0.0034    2.8947   -0.0600 C   0  0  0  0  0  0  0  0  0  0  0  0
   -0.7851    3.1867   -0.5998 H   0  0  0  0  0  0  0  0  0  0  0  0
    0.8432    3.1960   -0.4830 H   0  0  0  0  0  0  0  0  0  0  0  0
   -0.0752    3.3847    0.9110 H   0  0  0  0  0  0  0  0  0  0  0  0
    0.0006    1.4147   -0.0013 C   0  0  0  0  0  0  0  0  0  0  0  0
   -1.1959    0.7043    0.0004 C   0  0  0  0  0  0  0  0  0  0  0  0
   -2.0647    1.1879    0.0007 H   0  0  0  0  0  0  0  0  0  0  0  0
   -1.2021   -0.7016    0.0000 C   0  0  0  0  0  0  0  0  0  0  0  0
   -2.0845   -1.1859    0.0010 H   0  0  0  0  0  0  0  0  0  0  0  0
   -0.0053   -1.4096    0.0007 C   0  0  0  0  0  0  0  0  0  0  0  0
   -0.0138   -2.4043    0.0010 H   0  0  0  0  0  0  0  0  0  0  0  0
    1.2021   -0.7136    0.0000 C   0  0  0  0  0  0  0  0  0  0  0  0
    2.0825   -1.2015    0.0004 H   0  0  0  0  0  0  0  0  0  0  0  0
    1.2006    0.7058    0.0003 C   0  0  0  0  0  0  0  0  0  0  0  0
    2.0691    1.1877    0.0008 H   0  0  0  0  0  0  0  0  0  0  0  0
  1  5  1  0
  5  8  1  0
  1  2  1  0
  1  3  1  0
  1  4  1  0
  5  6  1  0
  5  7  1  0
  8  9  1  0
  8 10  1  0
  8 11  1  0
 12 16  1  0
 16 17  2  0
 17 19  1  0
 19 21  2  0
 21 23  1  0
 23 25  2  0
 25 16  1  0
 12 13  1  0
 12 14  1  0
 12 15  1  0
 17 18  1  0
 19 20  1  0
 21 22  1  0
 23 24  1  0
 25 26  1  0
M  CHG  1   8   1
M  END
>  <PDB_ID>  (1355) 
pdb1vmo

>  <RESIDUE_NAME>  (1355) 
ARG   PHE

>  <FRAG_NAME>  (1355) 
ETAM   MBZ

>  <FRAG_ATOM_NUM>  (1355) 
fragi: 11  fragj: 15

>  <atom.prop.CHAIN_ID>  (1355) 
A A A A A A A A A A A Z Z Z Z Z Z Z Z Z Z Z Z Z Z Z

>  <atom.prop.IS_HEAVY_ATOM>  (1355) 
1 0 0 0 1 0 0 1 0 0 0 1 0 0 0 1 1 0 1 0 1 0 1 0 1 0

>  <DIFUSE_FUNC_ATOM>  (1355) 
n/a

>  <FINAL_SINGLE_POINT_ENERGY>  (1355) 
0

>  <NONCOV_INTER_ENERGY_QM>  (1355) 
0

>  <FF_Energy>  (1355) 
2.01

>  <QM_Energy>  (1355) 
-3.45

>  <source>  (1355) 
ETAM_MBZ

>  <Index>  (1355) 
13539

$$$$
ETAM-pdb1vph-E-LYS-66:MBZ-pdb1vph-D-PHE-70
     RDKit          3D

 26 25  0  0  0  0  0  0  0  0999 V2000
   -0.6432   -1.1626    4.2267 C   0  0  0  0  0  0  0  0  0  0  0  0
   -0.9411   -1.2292    5.1768 H   0  0  0  0  0  0  0  0  0  0  0  0
    0.0373   -0.4399    4.1340 H   0  0  0  0  0  0  0  0  0  0  0  0
   -0.1781   -2.1083    3.9486 H   0  0  0  0  0  0  0  0  0  0  0  0
   -1.7838   -0.8923    3.3605 C   0  0  0  0  0  0  0  0  0  0  0  0
   -1.6267   -1.2797    2.4459 H   0  0  0  0  0  0  0  0  0  0  0  0
   -2.6176   -1.3049    3.7427 H   0  0  0  0  0  0  0  0  0  0  0  0
   -1.9878    0.5545    3.2334 N   0  0  0  0  0  4  0  0  0  0  0  0
   -2.8969    0.8036    3.5764 H   0  0  0  0  0  0  0  0  0  0  0  0
   -1.2925    1.0462    3.7636 H   0  0  0  0  0  0  0  0  0  0  0  0
   -1.9169    0.8270    2.2708 H   0  0  0  0  0  0  0  0  0  0  0  0
    0.0383    2.8997    0.0071 C   0  0  0  0  0  0  0  0  0  0  0  0
   -0.6167    3.2124   -0.6712 H   0  0  0  0  0  0  0  0  0  0  0  0
    0.9584    3.1821   -0.2392 H   0  0  0  0  0  0  0  0  0  0  0  0
   -0.2144    3.3649    0.9599 H   0  0  0  0  0  0  0  0  0  0  0  0
    0.0066    1.3992    0.0175 C   0  0  0  0  0  0  0  0  0  0  0  0
   -1.1863    0.7181    0.0077 C   0  0  0  0  0  0  0  0  0  0  0  0
   -2.0521    1.1970    0.0047 H   0  0  0  0  0  0  0  0  0  0  0  0
   -1.1952   -0.6947   -0.0000 C   0  0  0  0  0  0  0  0  0  0  0  0
   -2.0862   -1.1664    0.0091 H   0  0  0  0  0  0  0  0  0  0  0  0
   -0.0190   -1.3865   -0.0172 C   0  0  0  0  0  0  0  0  0  0  0  0
   -0.0242   -2.3937   -0.0429 H   0  0  0  0  0  0  0  0  0  0  0  0
    1.1952   -0.7130   -0.0000 C   0  0  0  0  0  0  0  0  0  0  0  0
    2.0656   -1.2190    0.0197 H   0  0  0  0  0  0  0  0  0  0  0  0
    1.1986    0.6770   -0.0080 C   0  0  0  0  0  0  0  0  0  0  0  0
    2.0713    1.1685   -0.0331 H   0  0  0  0  0  0  0  0  0  0  0  0
  1  5  1  0
  5  8  1  0
  1  2  1  0
  1  3  1  0
  1  4  1  0
  5  6  1  0
  5  7  1  0
  8  9  1  0
  8 10  1  0
  8 11  1  0
 12 16  1  0
 16 17  2  0
 17 19  1  0
 19 21  2  0
 21 23  1  0
 23 25  2  0
 25 16  1  0
 12 13  1  0
 12 14  1  0
 12 15  1  0
 17 18  1  0
 19 20  1  0
 21 22  1  0
 23 24  1  0
 25 26  1  0
M  CHG  1   8   1
M  END
>  <PDB_ID>  (1356) 
pdb1vph

>  <RESIDUE_NAME>  (1356) 
LYS   PHE

>  <FRAG_NAME>  (1356) 
ETAM   MBZ

>  <FRAG_ATOM_NUM>  (1356) 
fragi: 11  fragj: 15

>  <atom.prop.CHAIN_ID>  (1356) 
A A A A A A A A A A A Z Z Z Z Z Z Z Z Z Z Z Z Z Z Z

>  <atom.prop.IS_HEAVY_ATOM>  (1356) 
1 0 0 0 1 0 0 1 0 0 0 1 0 0 0 1 1 0 1 0 1 0 1 0 1 0

>  <DIFUSE_FUNC_ATOM>  (1356) 
n/a

>  <FINAL_SINGLE_POINT_ENERGY>  (1356) 
0

>  <NONCOV_INTER_ENERGY_QM>  (1356) 
0

>  <FF_Energy>  (1356) 
-5.22

>  <QM_Energy>  (1356) 
-12.64

>  <source>  (1356) 
ETAM_MBZ

>  <Index>  (1356) 
13562

$$$$
ETAM-pdb1vqu-A-LYS-160:MBZ-pdb1vqu-A-PHE-359
     RDKit          3D

 26 25  0  0  0  0  0  0  0  0999 V2000
    2.1653   -0.9838    3.5471 C   0  0  0  0  0  0  0  0  0  0  0  0
    2.3795   -0.0843    3.9234 H   0  0  0  0  0  0  0  0  0  0  0  0
    2.2427   -0.9610    2.5527 H   0  0  0  0  0  0  0  0  0  0  0  0
    2.8919   -1.6987    3.9329 H   0  0  0  0  0  0  0  0  0  0  0  0
    0.7390   -1.3440    3.9189 C   0  0  0  0  0  0  0  0  0  0  0  0
    0.4630   -2.1644    3.3926 H   0  0  0  0  0  0  0  0  0  0  0  0
    0.7103   -1.5905    4.9012 H   0  0  0  0  0  0  0  0  0  0  0  0
   -0.2418   -0.2564    3.6666 N   0  0  0  0  0  4  0  0  0  0  0  0
    0.0269    0.2506    2.8470 H   0  0  0  0  0  0  0  0  0  0  0  0
   -1.1501   -0.6528    3.5317 H   0  0  0  0  0  0  0  0  0  0  0  0
   -0.2611    0.3631    4.4514 H   0  0  0  0  0  0  0  0  0  0  0  0
    0.0017    2.9177   -0.0066 C   0  0  0  0  0  0  0  0  0  0  0  0
   -0.7524    3.2289   -0.5646 H   0  0  0  0  0  0  0  0  0  0  0  0
    0.8693    3.2163   -0.3743 H   0  0  0  0  0  0  0  0  0  0  0  0
   -0.1111    3.3588    0.9837 H   0  0  0  0  0  0  0  0  0  0  0  0
   -0.0097    1.4132   -0.0070 C   0  0  0  0  0  0  0  0  0  0  0  0
   -1.1913    0.7075   -0.0034 C   0  0  0  0  0  0  0  0  0  0  0  0
   -2.0664    1.1822   -0.0039 H   0  0  0  0  0  0  0  0  0  0  0  0
   -1.1892   -0.6975    0.0000 C   0  0  0  0  0  0  0  0  0  0  0  0
   -2.0657   -1.1903    0.0085 H   0  0  0  0  0  0  0  0  0  0  0  0
    0.0190   -1.4055   -0.0060 C   0  0  0  0  0  0  0  0  0  0  0  0
    0.0007   -2.4007   -0.0149 H   0  0  0  0  0  0  0  0  0  0  0  0
    1.1892   -0.7086   -0.0000 C   0  0  0  0  0  0  0  0  0  0  0  0
    2.0874   -1.1894   -0.0060 H   0  0  0  0  0  0  0  0  0  0  0  0
    1.1819    0.6909    0.0164 C   0  0  0  0  0  0  0  0  0  0  0  0
    2.0556    1.1825    0.0450 H   0  0  0  0  0  0  0  0  0  0  0  0
  1  5  1  0
  5  8  1  0
  1  2  1  0
  1  3  1  0
  1  4  1  0
  5  6  1  0
  5  7  1  0
  8  9  1  0
  8 10  1  0
  8 11  1  0
 12 16  1  0
 16 17  2  0
 17 19  1  0
 19 21  2  0
 21 23  1  0
 23 25  2  0
 25 16  1  0
 12 13  1  0
 12 14  1  0
 12 15  1  0
 17 18  1  0
 19 20  1  0
 21 22  1  0
 23 24  1  0
 25 26  1  0
M  CHG  1   8   1
M  END
>  <PDB_ID>  (1357) 
pdb1vqu

>  <RESIDUE_NAME>  (1357) 
LYS   PHE

>  <FRAG_NAME>  (1357) 
ETAM   MBZ

>  <FRAG_ATOM_NUM>  (1357) 
fragi: 11  fragj: 15

>  <atom.prop.CHAIN_ID>  (1357) 
A A A A A A A A A A A Z Z Z Z Z Z Z Z Z Z Z Z Z Z Z

>  <atom.prop.IS_HEAVY_ATOM>  (1357) 
1 0 0 0 1 0 0 1 0 0 0 1 0 0 0 1 1 0 1 0 1 0 1 0 1 0

>  <DIFUSE_FUNC_ATOM>  (1357) 
n/a

>  <FINAL_SINGLE_POINT_ENERGY>  (1357) 
0

>  <NONCOV_INTER_ENERGY_QM>  (1357) 
0

>  <FF_Energy>  (1357) 
-7.67

>  <QM_Energy>  (1357) 
-13.41

>  <source>  (1357) 
ETAM_MBZ

>  <Index>  (1357) 
13576

$$$$
ETAM-pdb1vlg-A-LYS-145:MBZ-pdb1vlg-D-PHE-38
     RDKit          3D

 26 25  0  0  0  0  0  0  0  0999 V2000
   -1.6446   -2.0593   -3.7309 C   0  0  0  0  0  0  0  0  0  0  0  0
   -2.4653   -1.7425   -4.1903 H   0  0  0  0  0  0  0  0  0  0  0  0
   -1.7681   -2.0563   -2.7463 H   0  0  0  0  0  0  0  0  0  0  0  0
   -1.4467   -3.0827   -4.0497 H   0  0  0  0  0  0  0  0  0  0  0  0
   -0.4903   -1.1332   -4.0869 C   0  0  0  0  0  0  0  0  0  0  0  0
   -0.2210   -1.3076   -5.0188 H   0  0  0  0  0  0  0  0  0  0  0  0
   -0.7812   -0.2008   -3.9576 H   0  0  0  0  0  0  0  0  0  0  0  0
    0.5978   -1.4576   -3.1728 N   0  0  0  0  0  4  0  0  0  0  0  0
    1.2865   -0.7261   -3.1796 H   0  0  0  0  0  0  0  0  0  0  0  0
    0.2459   -1.5619   -2.2376 H   0  0  0  0  0  0  0  0  0  0  0  0
    1.0384   -2.3172   -3.4494 H   0  0  0  0  0  0  0  0  0  0  0  0
    0.0009    2.9401    0.0161 C   0  0  0  0  0  0  0  0  0  0  0  0
    0.9399    3.2289    0.0683 H   0  0  0  0  0  0  0  0  0  0  0  0
   -0.5174    3.2188    0.8040 H   0  0  0  0  0  0  0  0  0  0  0  0
   -0.4498    3.3887   -0.8691 H   0  0  0  0  0  0  0  0  0  0  0  0
    0.0011    1.3998   -0.0047 C   0  0  0  0  0  0  0  0  0  0  0  0
   -1.1960    0.6851    0.0051 C   0  0  0  0  0  0  0  0  0  0  0  0
   -2.0623    1.1811    0.0146 H   0  0  0  0  0  0  0  0  0  0  0  0
   -1.2011   -0.6956    0.0000 C   0  0  0  0  0  0  0  0  0  0  0  0
   -2.0739   -1.1951    0.0017 H   0  0  0  0  0  0  0  0  0  0  0  0
    0.0031   -1.3867   -0.0060 C   0  0  0  0  0  0  0  0  0  0  0  0
   -0.0001   -2.3876   -0.0152 H   0  0  0  0  0  0  0  0  0  0  0  0
    1.2011   -0.6922    0.0000 C   0  0  0  0  0  0  0  0  0  0  0  0
    2.0828   -1.1913    0.0019 H   0  0  0  0  0  0  0  0  0  0  0  0
    1.1918    0.6896    0.0056 C   0  0  0  0  0  0  0  0  0  0  0  0
    2.0627    1.1911    0.0168 H   0  0  0  0  0  0  0  0  0  0  0  0
  1  5  1  0
  5  8  1  0
  1  2  1  0
  1  3  1  0
  1  4  1  0
  5  6  1  0
  5  7  1  0
  8  9  1  0
  8 10  1  0
  8 11  1  0
 12 16  1  0
 16 17  2  0
 17 19  1  0
 19 21  2  0
 21 23  1  0
 23 25  2  0
 25 16  1  0
 12 13  1  0
 12 14  1  0
 12 15  1  0
 17 18  1  0
 19 20  1  0
 21 22  1  0
 23 24  1  0
 25 26  1  0
M  CHG  1   8   1
M  END
>  <PDB_ID>  (1358) 
pdb1vlg

>  <RESIDUE_NAME>  (1358) 
LYS   PHE

>  <FRAG_NAME>  (1358) 
ETAM   MBZ

>  <FRAG_ATOM_NUM>  (1358) 
fragi: 11  fragj: 15

>  <atom.prop.CHAIN_ID>  (1358) 
A A A A A A A A A A A Z Z Z Z Z Z Z Z Z Z Z Z Z Z Z

>  <atom.prop.IS_HEAVY_ATOM>  (1358) 
1 0 0 0 1 0 0 1 0 0 0 1 0 0 0 1 1 0 1 0 1 0 1 0 1 0

>  <DIFUSE_FUNC_ATOM>  (1358) 
n/a

>  <FINAL_SINGLE_POINT_ENERGY>  (1358) 
0

>  <NONCOV_INTER_ENERGY_QM>  (1358) 
0

>  <FF_Energy>  (1358) 
-6.94

>  <QM_Energy>  (1358) 
-14.89

>  <source>  (1358) 
ETAM_MBZ

>  <Index>  (1358) 
13577

$$$$
ETAM-pdb1vr2-A-LYS-1014:MBZ-pdb1vr2-A-PHE-1010
     RDKit          3D

 26 25  0  0  0  0  0  0  0  0999 V2000
    0.0752   -2.4277   -4.0898 C   0  0  0  0  0  0  0  0  0  0  0  0
   -0.1141   -2.9439   -4.9179 H   0  0  0  0  0  0  0  0  0  0  0  0
    1.0374   -2.4962   -3.8492 H   0  0  0  0  0  0  0  0  0  0  0  0
   -0.1885   -1.3815   -4.2450 H   0  0  0  0  0  0  0  0  0  0  0  0
   -0.7421   -2.9996   -2.9694 C   0  0  0  0  0  0  0  0  0  0  0  0
   -0.5401   -2.5074   -2.1156 H   0  0  0  0  0  0  0  0  0  0  0  0
   -1.7217   -2.8928   -3.1741 H   0  0  0  0  0  0  0  0  0  0  0  0
   -0.4655   -4.4677   -2.7430 N   0  0  0  0  0  4  0  0  0  0  0  0
   -0.2001   -4.6011   -1.7920 H   0  0  0  0  0  0  0  0  0  0  0  0
   -1.2930   -4.9840   -2.9437 H   0  0  0  0  0  0  0  0  0  0  0  0
    0.2727   -4.7518   -3.3483 H   0  0  0  0  0  0  0  0  0  0  0  0
    0.0102    2.8948   -0.0189 C   0  0  0  0  0  0  0  0  0  0  0  0
    0.4080    3.2159    0.8274 H   0  0  0  0  0  0  0  0  0  0  0  0
   -0.9221    3.2091   -0.1203 H   0  0  0  0  0  0  0  0  0  0  0  0
    0.5914    3.3182   -0.8381 H   0  0  0  0  0  0  0  0  0  0  0  0
    0.0046    1.4046   -0.0009 C   0  0  0  0  0  0  0  0  0  0  0  0
   -1.1963    0.7021   -0.0015 C   0  0  0  0  0  0  0  0  0  0  0  0
   -2.0622    1.1881   -0.0039 H   0  0  0  0  0  0  0  0  0  0  0  0
   -1.2096   -0.7083   -0.0000 C   0  0  0  0  0  0  0  0  0  0  0  0
   -2.0900   -1.1859    0.0004 H   0  0  0  0  0  0  0  0  0  0  0  0
   -0.0158   -1.3989    0.0024 C   0  0  0  0  0  0  0  0  0  0  0  0
   -0.0040   -2.3970    0.0056 H   0  0  0  0  0  0  0  0  0  0  0  0
    1.2096   -0.6934   -0.0000 C   0  0  0  0  0  0  0  0  0  0  0  0
    2.0794   -1.2032   -0.0000 H   0  0  0  0  0  0  0  0  0  0  0  0
    1.2075    0.6939   -0.0000 C   0  0  0  0  0  0  0  0  0  0  0  0
    2.0723    1.1930   -0.0006 H   0  0  0  0  0  0  0  0  0  0  0  0
  1  5  1  0
  5  8  1  0
  1  2  1  0
  1  3  1  0
  1  4  1  0
  5  6  1  0
  5  7  1  0
  8  9  1  0
  8 10  1  0
  8 11  1  0
 12 16  1  0
 16 17  2  0
 17 19  1  0
 19 21  2  0
 21 23  1  0
 23 25  2  0
 25 16  1  0
 12 13  1  0
 12 14  1  0
 12 15  1  0
 17 18  1  0
 19 20  1  0
 21 22  1  0
 23 24  1  0
 25 26  1  0
M  CHG  1   8   1
M  END
>  <PDB_ID>  (1359) 
pdb1vr2

>  <RESIDUE_NAME>  (1359) 
LYS   PHE

>  <FRAG_NAME>  (1359) 
ETAM   MBZ

>  <FRAG_ATOM_NUM>  (1359) 
fragi: 11  fragj: 15

>  <atom.prop.CHAIN_ID>  (1359) 
A A A A A A A A A A A Z Z Z Z Z Z Z Z Z Z Z Z Z Z Z

>  <atom.prop.IS_HEAVY_ATOM>  (1359) 
1 0 0 0 1 0 0 1 0 0 0 1 0 0 0 1 1 0 1 0 1 0 1 0 1 0

>  <DIFUSE_FUNC_ATOM>  (1359) 
n/a

>  <FINAL_SINGLE_POINT_ENERGY>  (1359) 
0

>  <NONCOV_INTER_ENERGY_QM>  (1359) 
0

>  <FF_Energy>  (1359) 
0.16

>  <QM_Energy>  (1359) 
-5.06

>  <source>  (1359) 
ETAM_MBZ

>  <Index>  (1359) 
13581

$$$$
ETAM-pdb1vqz-A-LYS-258:MBZ-pdb1vqz-A-PHE-169
     RDKit          3D

 26 25  0  0  0  0  0  0  0  0999 V2000
    0.8045   -0.6471   -3.5940 C   0  0  0  0  0  0  0  0  0  0  0  0
    0.4006   -0.0552   -2.8870 H   0  0  0  0  0  0  0  0  0  0  0  0
    0.8765   -0.1200   -4.4485 H   0  0  0  0  0  0  0  0  0  0  0  0
    1.8166   -0.8951   -3.2743 H   0  0  0  0  0  0  0  0  0  0  0  0
   -0.0220   -1.8265   -3.7974 C   0  0  0  0  0  0  0  0  0  0  0  0
    0.1279   -2.2235   -4.6949 H   0  0  0  0  0  0  0  0  0  0  0  0
    0.1297   -2.5019   -3.0862 H   0  0  0  0  0  0  0  0  0  0  0  0
   -1.4771   -1.3997   -3.7222 N   0  0  0  0  0  4  0  0  0  0  0  0
   -2.0495   -2.1914   -3.9108 H   0  0  0  0  0  0  0  0  0  0  0  0
   -1.6580   -1.0516   -2.8077 H   0  0  0  0  0  0  0  0  0  0  0  0
   -1.6340   -0.6896   -4.4004 H   0  0  0  0  0  0  0  0  0  0  0  0
   -0.0151    2.9026    0.0376 C   0  0  0  0  0  0  0  0  0  0  0  0
   -0.7843    3.2125   -0.4992 H   0  0  0  0  0  0  0  0  0  0  0  0
    0.8408    3.2160   -0.3410 H   0  0  0  0  0  0  0  0  0  0  0  0
   -0.1129    3.3196    1.0399 H   0  0  0  0  0  0  0  0  0  0  0  0
   -0.0093    1.3973    0.0120 C   0  0  0  0  0  0  0  0  0  0  0  0
   -1.2064    0.6921   -0.0001 C   0  0  0  0  0  0  0  0  0  0  0  0
   -2.0708    1.1839   -0.0100 H   0  0  0  0  0  0  0  0  0  0  0  0
   -1.2068   -0.6920    0.0000 C   0  0  0  0  0  0  0  0  0  0  0  0
   -2.0716   -1.1985    0.0091 H   0  0  0  0  0  0  0  0  0  0  0  0
    0.0153   -1.3866   -0.0118 C   0  0  0  0  0  0  0  0  0  0  0  0
    0.0045   -2.3866   -0.0290 H   0  0  0  0  0  0  0  0  0  0  0  0
    1.2068   -0.6925    0.0000 C   0  0  0  0  0  0  0  0  0  0  0  0
    2.0909   -1.1944    0.0105 H   0  0  0  0  0  0  0  0  0  0  0  0
    1.2003    0.6817   -0.0001 C   0  0  0  0  0  0  0  0  0  0  0  0
    2.0608    1.1922   -0.0094 H   0  0  0  0  0  0  0  0  0  0  0  0
  1  5  1  0
  5  8  1  0
  1  2  1  0
  1  3  1  0
  1  4  1  0
  5  6  1  0
  5  7  1  0
  8  9  1  0
  8 10  1  0
  8 11  1  0
 12 16  1  0
 16 17  2  0
 17 19  1  0
 19 21  2  0
 21 23  1  0
 23 25  2  0
 25 16  1  0
 12 13  1  0
 12 14  1  0
 12 15  1  0
 17 18  1  0
 19 20  1  0
 21 22  1  0
 23 24  1  0
 25 26  1  0
M  CHG  1   8   1
M  END
>  <PDB_ID>  (1360) 
pdb1vqz

>  <RESIDUE_NAME>  (1360) 
LYS   PHE

>  <FRAG_NAME>  (1360) 
ETAM   MBZ

>  <FRAG_ATOM_NUM>  (1360) 
fragi: 11  fragj: 15

>  <atom.prop.CHAIN_ID>  (1360) 
A A A A A A A A A A A Z Z Z Z Z Z Z Z Z Z Z Z Z Z Z

>  <atom.prop.IS_HEAVY_ATOM>  (1360) 
1 0 0 0 1 0 0 1 0 0 0 1 0 0 0 1 1 0 1 0 1 0 1 0 1 0

>  <DIFUSE_FUNC_ATOM>  (1360) 
n/a

>  <FINAL_SINGLE_POINT_ENERGY>  (1360) 
0

>  <NONCOV_INTER_ENERGY_QM>  (1360) 
0

>  <FF_Energy>  (1360) 
-5.57

>  <QM_Energy>  (1360) 
-11.68

>  <source>  (1360) 
ETAM_MBZ

>  <Index>  (1360) 
13585

$$$$
ETAM-pdb1vrp-B-LYS-319:MBZ-pdb1vrp-B-PHE-308
     RDKit          3D

 26 25  0  0  0  0  0  0  0  0999 V2000
    2.9208   -2.0166    2.6403 C   0  0  0  0  0  0  0  0  0  0  0  0
    2.9511   -2.1966    1.6636 H   0  0  0  0  0  0  0  0  0  0  0  0
    2.0678   -1.5716    2.8878 H   0  0  0  0  0  0  0  0  0  0  0  0
    3.0039   -2.9598    3.1803 H   0  0  0  0  0  0  0  0  0  0  0  0
    4.0715   -1.0821    2.9944 C   0  0  0  0  0  0  0  0  0  0  0  0
    4.1618   -1.0469    3.9936 H   0  0  0  0  0  0  0  0  0  0  0  0
    4.9195   -1.4533    2.6061 H   0  0  0  0  0  0  0  0  0  0  0  0
    3.8507    0.2875    2.4722 N   0  0  0  0  0  4  0  0  0  0  0  0
    2.8884    0.3985    2.2196 H   0  0  0  0  0  0  0  0  0  0  0  0
    4.0889    0.9573    3.1771 H   0  0  0  0  0  0  0  0  0  0  0  0
    4.4248    0.4348    1.6665 H   0  0  0  0  0  0  0  0  0  0  0  0
    0.0062    2.8981   -0.0679 C   0  0  0  0  0  0  0  0  0  0  0  0
   -0.1489    3.1649   -1.0084 H   0  0  0  0  0  0  0  0  0  0  0  0
    0.8872    3.2162    0.2520 H   0  0  0  0  0  0  0  0  0  0  0  0
   -0.7609    3.3734    0.5434 H   0  0  0  0  0  0  0  0  0  0  0  0
   -0.0005    1.4005   -0.0009 C   0  0  0  0  0  0  0  0  0  0  0  0
   -1.1998    0.6926    0.0005 C   0  0  0  0  0  0  0  0  0  0  0  0
   -2.0646    1.1853    0.0012 H   0  0  0  0  0  0  0  0  0  0  0  0
   -1.2047   -0.6950    0.0000 C   0  0  0  0  0  0  0  0  0  0  0  0
   -2.0776   -1.1926    0.0020 H   0  0  0  0  0  0  0  0  0  0  0  0
    0.0040   -1.3940   -0.0020 C   0  0  0  0  0  0  0  0  0  0  0  0
   -0.0025   -2.3909   -0.0055 H   0  0  0  0  0  0  0  0  0  0  0  0
    1.2047   -0.6963    0.0000 C   0  0  0  0  0  0  0  0  0  0  0  0
    2.0862   -1.1928    0.0011 H   0  0  0  0  0  0  0  0  0  0  0  0
    1.1963    0.6922    0.0025 C   0  0  0  0  0  0  0  0  0  0  0  0
    2.0645    1.1917    0.0065 H   0  0  0  0  0  0  0  0  0  0  0  0
  1  5  1  0
  5  8  1  0
  1  2  1  0
  1  3  1  0
  1  4  1  0
  5  6  1  0
  5  7  1  0
  8  9  1  0
  8 10  1  0
  8 11  1  0
 12 16  1  0
 16 17  2  0
 17 19  1  0
 19 21  2  0
 21 23  1  0
 23 25  2  0
 25 16  1  0
 12 13  1  0
 12 14  1  0
 12 15  1  0
 17 18  1  0
 19 20  1  0
 21 22  1  0
 23 24  1  0
 25 26  1  0
M  CHG  1   8   1
M  END
>  <PDB_ID>  (1361) 
pdb1vrp

>  <RESIDUE_NAME>  (1361) 
LYS   PHE

>  <FRAG_NAME>  (1361) 
ETAM   MBZ

>  <FRAG_ATOM_NUM>  (1361) 
fragi: 11  fragj: 15

>  <atom.prop.CHAIN_ID>  (1361) 
A A A A A A A A A A A Z Z Z Z Z Z Z Z Z Z Z Z Z Z Z

>  <atom.prop.IS_HEAVY_ATOM>  (1361) 
1 0 0 0 1 0 0 1 0 0 0 1 0 0 0 1 1 0 1 0 1 0 1 0 1 0

>  <DIFUSE_FUNC_ATOM>  (1361) 
n/a

>  <FINAL_SINGLE_POINT_ENERGY>  (1361) 
0

>  <NONCOV_INTER_ENERGY_QM>  (1361) 
0

>  <FF_Energy>  (1361) 
-1.56

>  <QM_Energy>  (1361) 
-6.57

>  <source>  (1361) 
ETAM_MBZ

>  <Index>  (1361) 
13596

$$$$
ETAM-pdb1vrq-A-LYS-668:MBZ-pdb1vrq-A-PHE-674
     RDKit          3D

 26 25  0  0  0  0  0  0  0  0999 V2000
   -0.5284    1.7474   -4.2374 C   0  0  0  0  0  0  0  0  0  0  0  0
   -0.6588    1.6125   -5.2114 H   0  0  0  0  0  0  0  0  0  0  0  0
    0.4317    1.6823   -3.9981 H   0  0  0  0  0  0  0  0  0  0  0  0
   -0.8990    2.7350   -3.9626 H   0  0  0  0  0  0  0  0  0  0  0  0
   -1.2872    0.6599   -3.4910 C   0  0  0  0  0  0  0  0  0  0  0  0
   -1.1881    0.8153   -2.5022 H   0  0  0  0  0  0  0  0  0  0  0  0
   -2.2624    0.7222   -3.7283 H   0  0  0  0  0  0  0  0  0  0  0  0
   -0.7928   -0.7058   -3.8215 N   0  0  0  0  0  4  0  0  0  0  0  0
    0.1477   -0.6459   -4.1550 H   0  0  0  0  0  0  0  0  0  0  0  0
   -0.8222   -1.2759   -3.0014 H   0  0  0  0  0  0  0  0  0  0  0  0
   -1.3743   -1.1063   -4.5288 H   0  0  0  0  0  0  0  0  0  0  0  0
   -0.0094    2.9105   -0.0263 C   0  0  0  0  0  0  0  0  0  0  0  0
   -0.3410    3.2004   -0.9124 H   0  0  0  0  0  0  0  0  0  0  0  0
    0.9143    3.2255    0.1320 H   0  0  0  0  0  0  0  0  0  0  0  0
   -0.6468    3.3701    0.7290 H   0  0  0  0  0  0  0  0  0  0  0  0
   -0.0016    1.4027    0.0004 C   0  0  0  0  0  0  0  0  0  0  0  0
   -1.1942    0.6962    0.0001 C   0  0  0  0  0  0  0  0  0  0  0  0
   -2.0627    1.1902   -0.0010 H   0  0  0  0  0  0  0  0  0  0  0  0
   -1.2039   -0.6895    0.0000 C   0  0  0  0  0  0  0  0  0  0  0  0
   -2.0838   -1.1824    0.0014 H   0  0  0  0  0  0  0  0  0  0  0  0
   -0.0058   -1.3964   -0.0008 C   0  0  0  0  0  0  0  0  0  0  0  0
   -0.0156   -2.3932   -0.0019 H   0  0  0  0  0  0  0  0  0  0  0  0
    1.2039   -0.7050    0.0000 C   0  0  0  0  0  0  0  0  0  0  0  0
    2.0806   -1.2037    0.0016 H   0  0  0  0  0  0  0  0  0  0  0  0
    1.2017    0.6920    0.0002 C   0  0  0  0  0  0  0  0  0  0  0  0
    2.0671    1.1864   -0.0008 H   0  0  0  0  0  0  0  0  0  0  0  0
  1  5  1  0
  5  8  1  0
  1  2  1  0
  1  3  1  0
  1  4  1  0
  5  6  1  0
  5  7  1  0
  8  9  1  0
  8 10  1  0
  8 11  1  0
 12 16  1  0
 16 17  2  0
 17 19  1  0
 19 21  2  0
 21 23  1  0
 23 25  2  0
 25 16  1  0
 12 13  1  0
 12 14  1  0
 12 15  1  0
 17 18  1  0
 19 20  1  0
 21 22  1  0
 23 24  1  0
 25 26  1  0
M  CHG  1   8   1
M  END
>  <PDB_ID>  (1362) 
pdb1vrq

>  <RESIDUE_NAME>  (1362) 
LYS   PHE

>  <FRAG_NAME>  (1362) 
ETAM   MBZ

>  <FRAG_ATOM_NUM>  (1362) 
fragi: 11  fragj: 15

>  <atom.prop.CHAIN_ID>  (1362) 
A A A A A A A A A A A Z Z Z Z Z Z Z Z Z Z Z Z Z Z Z

>  <atom.prop.IS_HEAVY_ATOM>  (1362) 
1 0 0 0 1 0 0 1 0 0 0 1 0 0 0 1 1 0 1 0 1 0 1 0 1 0

>  <DIFUSE_FUNC_ATOM>  (1362) 
n/a

>  <FINAL_SINGLE_POINT_ENERGY>  (1362) 
0

>  <NONCOV_INTER_ENERGY_QM>  (1362) 
0

>  <FF_Energy>  (1362) 
-5.64

>  <QM_Energy>  (1362) 
-11.33

>  <source>  (1362) 
ETAM_MBZ

>  <Index>  (1362) 
13601

$$$$
ETAM-pdb1vl5-B-LYS-225:MBZ-pdb1vl5-B-PHE-221
     RDKit          3D

 26 25  0  0  0  0  0  0  0  0999 V2000
    0.5207   -1.7540    4.8696 C   0  0  0  0  0  0  0  0  0  0  0  0
    0.8650   -2.6850    4.7876 H   0  0  0  0  0  0  0  0  0  0  0  0
   -0.1021   -1.6858    5.6442 H   0  0  0  0  0  0  0  0  0  0  0  0
    1.3530   -1.0624    5.0007 H   0  0  0  0  0  0  0  0  0  0  0  0
   -0.2718   -1.4336    3.6015 C   0  0  0  0  0  0  0  0  0  0  0  0
    0.3586   -1.4360    2.8126 H   0  0  0  0  0  0  0  0  0  0  0  0
   -0.9577   -2.1598    3.4511 H   0  0  0  0  0  0  0  0  0  0  0  0
   -0.9877   -0.0997    3.6376 N   0  0  0  0  0  4  0  0  0  0  0  0
   -1.8702   -0.1999    3.1874 H   0  0  0  0  0  0  0  0  0  0  0  0
   -1.1134    0.1690    4.5874 H   0  0  0  0  0  0  0  0  0  0  0  0
   -0.4315    0.5727    3.1601 H   0  0  0  0  0  0  0  0  0  0  0  0
    0.0271    2.9204   -0.0175 C   0  0  0  0  0  0  0  0  0  0  0  0
   -0.7849    3.2288   -0.4861 H   0  0  0  0  0  0  0  0  0  0  0  0
    0.8477    3.2062   -0.4850 H   0  0  0  0  0  0  0  0  0  0  0  0
    0.0327    3.3681    0.9764 H   0  0  0  0  0  0  0  0  0  0  0  0
    0.0061    1.3997   -0.0112 C   0  0  0  0  0  0  0  0  0  0  0  0
   -1.1935    0.6999    0.0064 C   0  0  0  0  0  0  0  0  0  0  0  0
   -2.0577    1.1879    0.0222 H   0  0  0  0  0  0  0  0  0  0  0  0
   -1.1997   -0.6974    0.0000 C   0  0  0  0  0  0  0  0  0  0  0  0
   -2.0803   -1.1848   -0.0126 H   0  0  0  0  0  0  0  0  0  0  0  0
   -0.0048   -1.3955    0.0127 C   0  0  0  0  0  0  0  0  0  0  0  0
   -0.0061   -2.3923    0.0308 H   0  0  0  0  0  0  0  0  0  0  0  0
    1.1997   -0.6971   -0.0000 C   0  0  0  0  0  0  0  0  0  0  0  0
    2.0786   -1.1969   -0.0019 H   0  0  0  0  0  0  0  0  0  0  0  0
    1.1923    0.6904   -0.0079 C   0  0  0  0  0  0  0  0  0  0  0  0
    2.0666    1.1863   -0.0118 H   0  0  0  0  0  0  0  0  0  0  0  0
  1  5  1  0
  5  8  1  0
  1  2  1  0
  1  3  1  0
  1  4  1  0
  5  6  1  0
  5  7  1  0
  8  9  1  0
  8 10  1  0
  8 11  1  0
 12 16  1  0
 16 17  2  0
 17 19  1  0
 19 21  2  0
 21 23  1  0
 23 25  2  0
 25 16  1  0
 12 13  1  0
 12 14  1  0
 12 15  1  0
 17 18  1  0
 19 20  1  0
 21 22  1  0
 23 24  1  0
 25 26  1  0
M  CHG  1   8   1
M  END
>  <PDB_ID>  (1363) 
pdb1vl5

>  <RESIDUE_NAME>  (1363) 
LYS   PHE

>  <FRAG_NAME>  (1363) 
ETAM   MBZ

>  <FRAG_ATOM_NUM>  (1363) 
fragi: 11  fragj: 15

>  <atom.prop.CHAIN_ID>  (1363) 
A A A A A A A A A A A Z Z Z Z Z Z Z Z Z Z Z Z Z Z Z

>  <atom.prop.IS_HEAVY_ATOM>  (1363) 
1 0 0 0 1 0 0 1 0 0 0 1 0 0 0 1 1 0 1 0 1 0 1 0 1 0

>  <DIFUSE_FUNC_ATOM>  (1363) 
n/a

>  <FINAL_SINGLE_POINT_ENERGY>  (1363) 
0

>  <NONCOV_INTER_ENERGY_QM>  (1363) 
0

>  <FF_Energy>  (1363) 
-6.78

>  <QM_Energy>  (1363) 
-11.87

>  <source>  (1363) 
ETAM_MBZ

>  <Index>  (1363) 
13606

$$$$
ETAM-pdb3a45-A-LYS-274:MBZ-pdb3a45-A-PHE-116
     RDKit          3D

 26 25  0  0  0  0  0  0  0  0999 V2000
   -2.4261   -2.7471    2.5539 C   0  0  0  0  0  0  0  0  0  0  0  0
   -3.3133   -2.9555    2.1510 H   0  0  0  0  0  0  0  0  0  0  0  0
   -2.0365   -1.9371    2.1248 H   0  0  0  0  0  0  0  0  0  0  0  0
   -2.5586   -2.5543    3.6186 H   0  0  0  0  0  0  0  0  0  0  0  0
   -1.4905   -3.9259    2.2980 C   0  0  0  0  0  0  0  0  0  0  0  0
   -0.5878   -3.7077    2.6703 H   0  0  0  0  0  0  0  0  0  0  0  0
   -1.8547   -4.7333    2.7625 H   0  0  0  0  0  0  0  0  0  0  0  0
   -1.3673   -4.2098    0.8417 N   0  0  0  0  0  4  0  0  0  0  0  0
   -1.0306   -5.1418    0.7133 H   0  0  0  0  0  0  0  0  0  0  0  0
   -2.2636   -4.1150    0.4088 H   0  0  0  0  0  0  0  0  0  0  0  0
   -0.7262   -3.5621    0.4304 H   0  0  0  0  0  0  0  0  0  0  0  0
    0.0059    2.9061    0.0425 C   0  0  0  0  0  0  0  0  0  0  0  0
    0.9379    3.2137   -0.0878 H   0  0  0  0  0  0  0  0  0  0  0  0
   -0.3437    3.1911    0.9238 H   0  0  0  0  0  0  0  0  0  0  0  0
   -0.6081    3.3767   -0.7253 H   0  0  0  0  0  0  0  0  0  0  0  0
   -0.0002    1.4048    0.0011 C   0  0  0  0  0  0  0  0  0  0  0  0
   -1.1975    0.7000   -0.0002 C   0  0  0  0  0  0  0  0  0  0  0  0
   -2.0644    1.1862   -0.0023 H   0  0  0  0  0  0  0  0  0  0  0  0
   -1.2021   -0.7000    0.0000 C   0  0  0  0  0  0  0  0  0  0  0  0
   -2.0776   -1.1902    0.0016 H   0  0  0  0  0  0  0  0  0  0  0  0
    0.0021   -1.3975   -0.0001 C   0  0  0  0  0  0  0  0  0  0  0  0
   -0.0032   -2.3961   -0.0006 H   0  0  0  0  0  0  0  0  0  0  0  0
    1.2021   -0.7013   -0.0000 C   0  0  0  0  0  0  0  0  0  0  0  0
    2.0838   -1.1954    0.0021 H   0  0  0  0  0  0  0  0  0  0  0  0
    1.1956    0.6941   -0.0008 C   0  0  0  0  0  0  0  0  0  0  0  0
    2.0650    1.1886   -0.0033 H   0  0  0  0  0  0  0  0  0  0  0  0
  1  5  1  0
  5  8  1  0
  1  2  1  0
  1  3  1  0
  1  4  1  0
  5  6  1  0
  5  7  1  0
  8  9  1  0
  8 10  1  0
  8 11  1  0
 12 16  1  0
 16 17  2  0
 17 19  1  0
 19 21  2  0
 21 23  1  0
 23 25  2  0
 25 16  1  0
 12 13  1  0
 12 14  1  0
 12 15  1  0
 17 18  1  0
 19 20  1  0
 21 22  1  0
 23 24  1  0
 25 26  1  0
M  CHG  1   8   1
M  END
>  <PDB_ID>  (1364) 
pdb3a45

>  <RESIDUE_NAME>  (1364) 
LYS   PHE

>  <FRAG_NAME>  (1364) 
ETAM   MBZ

>  <FRAG_ATOM_NUM>  (1364) 
fragi: 11  fragj: 15

>  <atom.prop.CHAIN_ID>  (1364) 
A A A A A A A A A A A Z Z Z Z Z Z Z Z Z Z Z Z Z Z Z

>  <atom.prop.IS_HEAVY_ATOM>  (1364) 
1 0 0 0 1 0 0 1 0 0 0 1 0 0 0 1 1 0 1 0 1 0 1 0 1 0

>  <DIFUSE_FUNC_ATOM>  (1364) 
n/a

>  <FINAL_SINGLE_POINT_ENERGY>  (1364) 
0

>  <NONCOV_INTER_ENERGY_QM>  (1364) 
0

>  <FF_Energy>  (1364) 
3.72

>  <QM_Energy>  (1364) 
-2.72

>  <source>  (1364) 
ETAM_MBZ

>  <Index>  (1364) 
13648

$$$$
ETAM-pdb1w0i-A-LYS-182:MBZ-pdb1w0i-A-PHE-179
     RDKit          3D

 26 25  0  0  0  0  0  0  0  0999 V2000
   -4.6999    3.5704    3.1856 C   0  0  0  0  0  0  0  0  0  0  0  0
   -5.4282    2.9206    3.3678 H   0  0  0  0  0  0  0  0  0  0  0  0
   -4.9846    4.4914    3.4199 H   0  0  0  0  0  0  0  0  0  0  0  0
   -3.8293    3.3045    3.7852 H   0  0  0  0  0  0  0  0  0  0  0  0
   -4.3694    3.5266    1.7033 C   0  0  0  0  0  0  0  0  0  0  0  0
   -5.2169    3.6159    1.1760 H   0  0  0  0  0  0  0  0  0  0  0  0
   -3.7636    4.2930    1.4799 H   0  0  0  0  0  0  0  0  0  0  0  0
   -3.6939    2.2468    1.3253 N   0  0  0  0  0  4  0  0  0  0  0  0
   -3.7238    2.1406    0.3326 H   0  0  0  0  0  0  0  0  0  0  0  0
   -2.7447    2.2739    1.6333 H   0  0  0  0  0  0  0  0  0  0  0  0
   -4.1687    1.4839    1.7610 H   0  0  0  0  0  0  0  0  0  0  0  0
    0.0024    2.9107    0.0442 C   0  0  0  0  0  0  0  0  0  0  0  0
   -0.5831    3.2385   -0.6804 H   0  0  0  0  0  0  0  0  0  0  0  0
    0.9332    3.2176   -0.0750 H   0  0  0  0  0  0  0  0  0  0  0  0
   -0.3672    3.3208    0.9841 H   0  0  0  0  0  0  0  0  0  0  0  0
   -0.0006    1.4058    0.0004 C   0  0  0  0  0  0  0  0  0  0  0  0
   -1.1985    0.6971   -0.0009 C   0  0  0  0  0  0  0  0  0  0  0  0
   -2.0653    1.1852   -0.0038 H   0  0  0  0  0  0  0  0  0  0  0  0
   -1.2036   -0.6983   -0.0000 C   0  0  0  0  0  0  0  0  0  0  0  0
   -2.0782   -1.1911    0.0009 H   0  0  0  0  0  0  0  0  0  0  0  0
    0.0022   -1.3977    0.0019 C   0  0  0  0  0  0  0  0  0  0  0  0
   -0.0044   -2.3955    0.0036 H   0  0  0  0  0  0  0  0  0  0  0  0
    1.2036   -0.7016    0.0000 C   0  0  0  0  0  0  0  0  0  0  0  0
    2.0848   -1.1951    0.0007 H   0  0  0  0  0  0  0  0  0  0  0  0
    1.1969    0.6947   -0.0013 C   0  0  0  0  0  0  0  0  0  0  0  0
    2.0653    1.1901   -0.0046 H   0  0  0  0  0  0  0  0  0  0  0  0
  1  5  1  0
  5  8  1  0
  1  2  1  0
  1  3  1  0
  1  4  1  0
  5  6  1  0
  5  7  1  0
  8  9  1  0
  8 10  1  0
  8 11  1  0
 12 16  1  0
 16 17  2  0
 17 19  1  0
 19 21  2  0
 21 23  1  0
 23 25  2  0
 25 16  1  0
 12 13  1  0
 12 14  1  0
 12 15  1  0
 17 18  1  0
 19 20  1  0
 21 22  1  0
 23 24  1  0
 25 26  1  0
M  CHG  1   8   1
M  END
>  <PDB_ID>  (1365) 
pdb1w0i

>  <RESIDUE_NAME>  (1365) 
LYS   PHE

>  <FRAG_NAME>  (1365) 
ETAM   MBZ

>  <FRAG_ATOM_NUM>  (1365) 
fragi: 11  fragj: 15

>  <atom.prop.CHAIN_ID>  (1365) 
A A A A A A A A A A A Z Z Z Z Z Z Z Z Z Z Z Z Z Z Z

>  <atom.prop.IS_HEAVY_ATOM>  (1365) 
1 0 0 0 1 0 0 1 0 0 0 1 0 0 0 1 1 0 1 0 1 0 1 0 1 0

>  <DIFUSE_FUNC_ATOM>  (1365) 
n/a

>  <FINAL_SINGLE_POINT_ENERGY>  (1365) 
0

>  <NONCOV_INTER_ENERGY_QM>  (1365) 
0

>  <FF_Energy>  (1365) 
2.59

>  <QM_Energy>  (1365) 
-2.88

>  <source>  (1365) 
ETAM_MBZ

>  <Index>  (1365) 
13667

$$$$
ETAM-pdb3a7s-A-LYS-57:MBZ-pdb3a7s-A-PHE-163
     RDKit          3D

 26 25  0  0  0  0  0  0  0  0999 V2000
   -2.9533   -1.1587    3.3864 C   0  0  0  0  0  0  0  0  0  0  0  0
   -3.9336   -1.0140    3.4178 H   0  0  0  0  0  0  0  0  0  0  0  0
   -2.4904   -0.3584    3.0291 H   0  0  0  0  0  0  0  0  0  0  0  0
   -2.5946   -1.3508    4.3976 H   0  0  0  0  0  0  0  0  0  0  0  0
   -2.6643   -2.3414    2.4628 C   0  0  0  0  0  0  0  0  0  0  0  0
   -1.6695   -2.4243    2.3491 H   0  0  0  0  0  0  0  0  0  0  0  0
   -3.0088   -3.1799    2.8967 H   0  0  0  0  0  0  0  0  0  0  0  0
   -3.2998   -2.1847    1.1260 N   0  0  0  0  0  4  0  0  0  0  0  0
   -4.2523   -2.4848    1.1743 H   0  0  0  0  0  0  0  0  0  0  0  0
   -3.2656   -1.2240    0.8534 H   0  0  0  0  0  0  0  0  0  0  0  0
   -2.8068   -2.7402    0.4573 H   0  0  0  0  0  0  0  0  0  0  0  0
   -0.0080    2.8832    0.0152 C   0  0  0  0  0  0  0  0  0  0  0  0
   -0.1641    3.2052   -0.9062 H   0  0  0  0  0  0  0  0  0  0  0  0
    0.8625    3.1987    0.3626 H   0  0  0  0  0  0  0  0  0  0  0  0
   -0.7881    3.3057    0.6485 H   0  0  0  0  0  0  0  0  0  0  0  0
    0.0005    1.3983    0.0002 C   0  0  0  0  0  0  0  0  0  0  0  0
   -1.1941    0.6886    0.0001 C   0  0  0  0  0  0  0  0  0  0  0  0
   -2.0620    1.1789   -0.0012 H   0  0  0  0  0  0  0  0  0  0  0  0
   -1.1985   -0.7011   -0.0000 C   0  0  0  0  0  0  0  0  0  0  0  0
   -2.0753   -1.1946    0.0008 H   0  0  0  0  0  0  0  0  0  0  0  0
    0.0007   -1.3921    0.0009 C   0  0  0  0  0  0  0  0  0  0  0  0
    0.0010   -2.3913    0.0015 H   0  0  0  0  0  0  0  0  0  0  0  0
    1.1985   -0.6930    0.0000 C   0  0  0  0  0  0  0  0  0  0  0  0
    2.0821   -1.1884    0.0016 H   0  0  0  0  0  0  0  0  0  0  0  0
    1.1929    0.6994   -0.0012 C   0  0  0  0  0  0  0  0  0  0  0  0
    2.0616    1.1933   -0.0040 H   0  0  0  0  0  0  0  0  0  0  0  0
  1  5  1  0
  5  8  1  0
  1  2  1  0
  1  3  1  0
  1  4  1  0
  5  6  1  0
  5  7  1  0
  8  9  1  0
  8 10  1  0
  8 11  1  0
 12 16  1  0
 16 17  2  0
 17 19  1  0
 19 21  2  0
 21 23  1  0
 23 25  2  0
 25 16  1  0
 12 13  1  0
 12 14  1  0
 12 15  1  0
 17 18  1  0
 19 20  1  0
 21 22  1  0
 23 24  1  0
 25 26  1  0
M  CHG  1   8   1
M  END
>  <PDB_ID>  (1366) 
pdb3a7s

>  <RESIDUE_NAME>  (1366) 
LYS   PHE

>  <FRAG_NAME>  (1366) 
ETAM   MBZ

>  <FRAG_ATOM_NUM>  (1366) 
fragi: 11  fragj: 15

>  <atom.prop.CHAIN_ID>  (1366) 
A A A A A A A A A A A Z Z Z Z Z Z Z Z Z Z Z Z Z Z Z

>  <atom.prop.IS_HEAVY_ATOM>  (1366) 
1 0 0 0 1 0 0 1 0 0 0 1 0 0 0 1 1 0 1 0 1 0 1 0 1 0

>  <DIFUSE_FUNC_ATOM>  (1366) 
n/a

>  <FINAL_SINGLE_POINT_ENERGY>  (1366) 
0

>  <NONCOV_INTER_ENERGY_QM>  (1366) 
0

>  <FF_Energy>  (1366) 
35.14

>  <QM_Energy>  (1366) 
4.66

>  <source>  (1366) 
ETAM_MBZ

>  <Index>  (1366) 
13727

$$$$
ETAM-pdb3a8y-B-LYS-328:MBZ-pdb3a8y-B-PHE-353
     RDKit          3D

 26 25  0  0  0  0  0  0  0  0999 V2000
    0.7364   -0.6797    4.2822 C   0  0  0  0  0  0  0  0  0  0  0  0
    0.7033   -0.2188    5.1676 H   0  0  0  0  0  0  0  0  0  0  0  0
    0.7379   -0.0009    3.5493 H   0  0  0  0  0  0  0  0  0  0  0  0
    1.6578   -1.2591    4.2243 H   0  0  0  0  0  0  0  0  0  0  0  0
   -0.5203   -1.5413    4.1393 C   0  0  0  0  0  0  0  0  0  0  0  0
   -0.5061   -2.2499    4.8646 H   0  0  0  0  0  0  0  0  0  0  0  0
   -1.3307   -0.9548    4.3078 H   0  0  0  0  0  0  0  0  0  0  0  0
   -0.6654   -2.2027    2.8168 N   0  0  0  0  0  4  0  0  0  0  0  0
   -1.5843   -2.5885    2.7370 H   0  0  0  0  0  0  0  0  0  0  0  0
   -0.5210   -1.5306    2.0909 H   0  0  0  0  0  0  0  0  0  0  0  0
    0.0122   -2.9333    2.7341 H   0  0  0  0  0  0  0  0  0  0  0  0
    0.0006    2.9088   -0.0458 C   0  0  0  0  0  0  0  0  0  0  0  0
   -0.6337    3.1942   -0.7499 H   0  0  0  0  0  0  0  0  0  0  0  0
    0.9213    3.2086   -0.2513 H   0  0  0  0  0  0  0  0  0  0  0  0
   -0.3026    3.3833    0.8875 H   0  0  0  0  0  0  0  0  0  0  0  0
    0.0007    1.4053   -0.0013 C   0  0  0  0  0  0  0  0  0  0  0  0
   -1.1963    0.6944    0.0024 C   0  0  0  0  0  0  0  0  0  0  0  0
   -2.0634    1.1844    0.0053 H   0  0  0  0  0  0  0  0  0  0  0  0
   -1.2023   -0.6983    0.0000 C   0  0  0  0  0  0  0  0  0  0  0  0
   -2.0795   -1.1902    0.0007 H   0  0  0  0  0  0  0  0  0  0  0  0
   -0.0018   -1.3975   -0.0020 C   0  0  0  0  0  0  0  0  0  0  0  0
   -0.0066   -2.3958   -0.0052 H   0  0  0  0  0  0  0  0  0  0  0  0
    1.2023   -0.7017   -0.0000 C   0  0  0  0  0  0  0  0  0  0  0  0
    2.0830   -1.1960    0.0024 H   0  0  0  0  0  0  0  0  0  0  0  0
    1.1973    0.6979    0.0009 C   0  0  0  0  0  0  0  0  0  0  0  0
    2.0659    1.1904    0.0027 H   0  0  0  0  0  0  0  0  0  0  0  0
  1  5  1  0
  5  8  1  0
  1  2  1  0
  1  3  1  0
  1  4  1  0
  5  6  1  0
  5  7  1  0
  8  9  1  0
  8 10  1  0
  8 11  1  0
 12 16  1  0
 16 17  2  0
 17 19  1  0
 19 21  2  0
 21 23  1  0
 23 25  2  0
 25 16  1  0
 12 13  1  0
 12 14  1  0
 12 15  1  0
 17 18  1  0
 19 20  1  0
 21 22  1  0
 23 24  1  0
 25 26  1  0
M  CHG  1   8   1
M  END
>  <PDB_ID>  (1367) 
pdb3a8y

>  <RESIDUE_NAME>  (1367) 
LYS   PHE

>  <FRAG_NAME>  (1367) 
ETAM   MBZ

>  <FRAG_ATOM_NUM>  (1367) 
fragi: 11  fragj: 15

>  <atom.prop.CHAIN_ID>  (1367) 
A A A A A A A A A A A Z Z Z Z Z Z Z Z Z Z Z Z Z Z Z

>  <atom.prop.IS_HEAVY_ATOM>  (1367) 
1 0 0 0 1 0 0 1 0 0 0 1 0 0 0 1 1 0 1 0 1 0 1 0 1 0

>  <DIFUSE_FUNC_ATOM>  (1367) 
n/a

>  <FINAL_SINGLE_POINT_ENERGY>  (1367) 
0

>  <NONCOV_INTER_ENERGY_QM>  (1367) 
0

>  <FF_Energy>  (1367) 
-4.79

>  <QM_Energy>  (1367) 
-13.08

>  <source>  (1367) 
ETAM_MBZ

>  <Index>  (1367) 
13748

$$$$
ETAM-pdb1w81-A-LYS-272:MBZ-pdb1w81-A-PHE-342
     RDKit          3D

 26 25  0  0  0  0  0  0  0  0999 V2000
    2.0474   -1.5256   -3.4755 C   0  0  0  0  0  0  0  0  0  0  0  0
    1.8736   -0.8170   -2.8032 H   0  0  0  0  0  0  0  0  0  0  0  0
    1.9977   -1.1583   -4.3955 H   0  0  0  0  0  0  0  0  0  0  0  0
    3.0459   -1.9302   -3.3100 H   0  0  0  0  0  0  0  0  0  0  0  0
    0.9552   -2.6087   -3.3290 C   0  0  0  0  0  0  0  0  0  0  0  0
    1.1257   -3.3273   -3.9801 H   0  0  0  0  0  0  0  0  0  0  0  0
    0.9542   -2.9425   -2.4025 H   0  0  0  0  0  0  0  0  0  0  0  0
   -0.4011   -1.9821   -3.6285 N   0  0  0  0  0  4  0  0  0  0  0  0
   -0.9498   -2.0101   -2.7999 H   0  0  0  0  0  0  0  0  0  0  0  0
   -0.2560   -1.0420   -3.9180 H   0  0  0  0  0  0  0  0  0  0  0  0
   -0.8363   -2.5061   -4.3527 H   0  0  0  0  0  0  0  0  0  0  0  0
    0.0120    2.9553    0.0443 C   0  0  0  0  0  0  0  0  0  0  0  0
   -0.6988    3.2769   -0.5507 H   0  0  0  0  0  0  0  0  0  0  0  0
    0.9032    3.2532   -0.2377 H   0  0  0  0  0  0  0  0  0  0  0  0
   -0.1755    3.3653    1.0367 H   0  0  0  0  0  0  0  0  0  0  0  0
   -0.0033    1.4245    0.0063 C   0  0  0  0  0  0  0  0  0  0  0  0
   -1.2012    0.7254   -0.0129 C   0  0  0  0  0  0  0  0  0  0  0  0
   -2.0695    1.1926   -0.0368 H   0  0  0  0  0  0  0  0  0  0  0  0
   -1.2064   -0.7126   -0.0000 C   0  0  0  0  0  0  0  0  0  0  0  0
   -2.0816   -1.1871    0.0130 H   0  0  0  0  0  0  0  0  0  0  0  0
    0.0074   -1.4155   -0.0040 C   0  0  0  0  0  0  0  0  0  0  0  0
   -0.0032   -2.4115   -0.0098 H   0  0  0  0  0  0  0  0  0  0  0  0
    1.2064   -0.7179    0.0000 C   0  0  0  0  0  0  0  0  0  0  0  0
    2.0905   -1.2010   -0.0030 H   0  0  0  0  0  0  0  0  0  0  0  0
    1.1971    0.6960    0.0106 C   0  0  0  0  0  0  0  0  0  0  0  0
    2.0688    1.1847    0.0204 H   0  0  0  0  0  0  0  0  0  0  0  0
  1  5  1  0
  5  8  1  0
  1  2  1  0
  1  3  1  0
  1  4  1  0
  5  6  1  0
  5  7  1  0
  8  9  1  0
  8 10  1  0
  8 11  1  0
 12 16  1  0
 16 17  2  0
 17 19  1  0
 19 21  2  0
 21 23  1  0
 23 25  2  0
 25 16  1  0
 12 13  1  0
 12 14  1  0
 12 15  1  0
 17 18  1  0
 19 20  1  0
 21 22  1  0
 23 24  1  0
 25 26  1  0
M  CHG  1   8   1
M  END
>  <PDB_ID>  (1368) 
pdb1w81

>  <RESIDUE_NAME>  (1368) 
LYS   PHE

>  <FRAG_NAME>  (1368) 
ETAM   MBZ

>  <FRAG_ATOM_NUM>  (1368) 
fragi: 11  fragj: 15

>  <atom.prop.CHAIN_ID>  (1368) 
A A A A A A A A A A A Z Z Z Z Z Z Z Z Z Z Z Z Z Z Z

>  <atom.prop.IS_HEAVY_ATOM>  (1368) 
1 0 0 0 1 0 0 1 0 0 0 1 0 0 0 1 1 0 1 0 1 0 1 0 1 0

>  <DIFUSE_FUNC_ATOM>  (1368) 
n/a

>  <FINAL_SINGLE_POINT_ENERGY>  (1368) 
0

>  <NONCOV_INTER_ENERGY_QM>  (1368) 
0

>  <FF_Energy>  (1368) 
-4.96

>  <QM_Energy>  (1368) 
-10.9

>  <source>  (1368) 
ETAM_MBZ

>  <Index>  (1368) 
13757

$$$$
ETAM-pdb1w8g-A-LYS-191:MBZ-pdb1w8g-A-PHE-187
     RDKit          3D

 26 25  0  0  0  0  0  0  0  0999 V2000
    1.5771   -1.8529    4.5641 C   0  0  0  0  0  0  0  0  0  0  0  0
    2.2362   -1.2562    5.0157 H   0  0  0  0  0  0  0  0  0  0  0  0
    1.7870   -2.8066    4.7674 H   0  0  0  0  0  0  0  0  0  0  0  0
    0.5851   -1.6276    4.9558 H   0  0  0  0  0  0  0  0  0  0  0  0
    1.6593   -1.6376    3.0736 C   0  0  0  0  0  0  0  0  0  0  0  0
    0.9588   -2.1966    2.6187 H   0  0  0  0  0  0  0  0  0  0  0  0
    1.4832   -0.6698    2.8680 H   0  0  0  0  0  0  0  0  0  0  0  0
    2.9996   -2.0090    2.5316 N   0  0  0  0  0  4  0  0  0  0  0  0
    3.4350   -1.1971    2.1450 H   0  0  0  0  0  0  0  0  0  0  0  0
    3.5638   -2.3734    3.2704 H   0  0  0  0  0  0  0  0  0  0  0  0
    2.8874   -2.7013    1.8211 H   0  0  0  0  0  0  0  0  0  0  0  0
    0.0010    2.8985   -0.0248 C   0  0  0  0  0  0  0  0  0  0  0  0
   -0.4736    3.1925   -0.8458 H   0  0  0  0  0  0  0  0  0  0  0  0
    0.9440    3.2085   -0.0362 H   0  0  0  0  0  0  0  0  0  0  0  0
   -0.4900    3.3701    0.8264 H   0  0  0  0  0  0  0  0  0  0  0  0
    0.0008    1.4035    0.0047 C   0  0  0  0  0  0  0  0  0  0  0  0
   -1.1886    0.6949   -0.0085 C   0  0  0  0  0  0  0  0  0  0  0  0
   -2.0590    1.1841   -0.0258 H   0  0  0  0  0  0  0  0  0  0  0  0
   -1.1957   -0.6950    0.0000 C   0  0  0  0  0  0  0  0  0  0  0  0
   -2.0803   -1.1828    0.0034 H   0  0  0  0  0  0  0  0  0  0  0  0
   -0.0081   -1.3956    0.0050 C   0  0  0  0  0  0  0  0  0  0  0  0
   -0.0150   -2.3957    0.0114 H   0  0  0  0  0  0  0  0  0  0  0  0
    1.1957   -0.7069    0.0000 C   0  0  0  0  0  0  0  0  0  0  0  0
    2.0759   -1.2004   -0.0011 H   0  0  0  0  0  0  0  0  0  0  0  0
    1.1959    0.6991   -0.0012 C   0  0  0  0  0  0  0  0  0  0  0  0
    2.0651    1.1850   -0.0068 H   0  0  0  0  0  0  0  0  0  0  0  0
  1  5  1  0
  5  8  1  0
  1  2  1  0
  1  3  1  0
  1  4  1  0
  5  6  1  0
  5  7  1  0
  8  9  1  0
  8 10  1  0
  8 11  1  0
 12 16  1  0
 16 17  2  0
 17 19  1  0
 19 21  2  0
 21 23  1  0
 23 25  2  0
 25 16  1  0
 12 13  1  0
 12 14  1  0
 12 15  1  0
 17 18  1  0
 19 20  1  0
 21 22  1  0
 23 24  1  0
 25 26  1  0
M  CHG  1   8   1
M  END
>  <PDB_ID>  (1369) 
pdb1w8g

>  <RESIDUE_NAME>  (1369) 
LYS   PHE

>  <FRAG_NAME>  (1369) 
ETAM   MBZ

>  <FRAG_ATOM_NUM>  (1369) 
fragi: 11  fragj: 15

>  <atom.prop.CHAIN_ID>  (1369) 
A A A A A A A A A A A Z Z Z Z Z Z Z Z Z Z Z Z Z Z Z

>  <atom.prop.IS_HEAVY_ATOM>  (1369) 
1 0 0 0 1 0 0 1 0 0 0 1 0 0 0 1 1 0 1 0 1 0 1 0 1 0

>  <DIFUSE_FUNC_ATOM>  (1369) 
n/a

>  <FINAL_SINGLE_POINT_ENERGY>  (1369) 
0

>  <NONCOV_INTER_ENERGY_QM>  (1369) 
0

>  <FF_Energy>  (1369) 
-1.7

>  <QM_Energy>  (1369) 
-7.08

>  <source>  (1369) 
ETAM_MBZ

>  <Index>  (1369) 
13762

$$$$
ETAM-pdb1w99-A-LYS-120:MBZ-pdb1w99-A-PHE-184
     RDKit          3D

 26 25  0  0  0  0  0  0  0  0999 V2000
   -3.8696   -4.1246   -2.8442 C   0  0  0  0  0  0  0  0  0  0  0  0
   -4.7905   -4.4578   -2.9952 H   0  0  0  0  0  0  0  0  0  0  0  0
   -3.2067   -4.6781   -3.3301 H   0  0  0  0  0  0  0  0  0  0  0  0
   -3.8009   -3.0947   -3.1946 H   0  0  0  0  0  0  0  0  0  0  0  0
   -3.5652   -4.2006   -1.3553 C   0  0  0  0  0  0  0  0  0  0  0  0
   -4.2587   -3.6811   -0.8554 H   0  0  0  0  0  0  0  0  0  0  0  0
   -3.5953   -5.1584   -1.0654 H   0  0  0  0  0  0  0  0  0  0  0  0
   -2.2195   -3.6392   -1.0530 N   0  0  0  0  0  4  0  0  0  0  0  0
   -1.5411   -4.0659   -1.6505 H   0  0  0  0  0  0  0  0  0  0  0  0
   -2.2296   -2.6515   -1.2082 H   0  0  0  0  0  0  0  0  0  0  0  0
   -1.9895   -3.8260   -0.0987 H   0  0  0  0  0  0  0  0  0  0  0  0
   -0.0122    2.9084   -0.0372 C   0  0  0  0  0  0  0  0  0  0  0  0
   -0.8325    3.2197    0.4217 H   0  0  0  0  0  0  0  0  0  0  0  0
   -0.0038    3.1918   -0.9858 H   0  0  0  0  0  0  0  0  0  0  0  0
    0.8399    3.3771    0.4551 H   0  0  0  0  0  0  0  0  0  0  0  0
    0.0009    1.4043    0.0004 C   0  0  0  0  0  0  0  0  0  0  0  0
   -1.1952    0.6944    0.0005 C   0  0  0  0  0  0  0  0  0  0  0  0
   -2.0635    1.1833   -0.0004 H   0  0  0  0  0  0  0  0  0  0  0  0
   -1.2014   -0.7006   -0.0000 C   0  0  0  0  0  0  0  0  0  0  0  0
   -2.0793   -1.1906    0.0008 H   0  0  0  0  0  0  0  0  0  0  0  0
   -0.0021   -1.3971   -0.0005 C   0  0  0  0  0  0  0  0  0  0  0  0
   -0.0043   -2.3952   -0.0024 H   0  0  0  0  0  0  0  0  0  0  0  0
    1.2014   -0.6995    0.0000 C   0  0  0  0  0  0  0  0  0  0  0  0
    2.0819   -1.1942    0.0021 H   0  0  0  0  0  0  0  0  0  0  0  0
    1.1964    0.6986   -0.0003 C   0  0  0  0  0  0  0  0  0  0  0  0
    2.0655    1.1907   -0.0020 H   0  0  0  0  0  0  0  0  0  0  0  0
  1  5  1  0
  5  8  1  0
  1  2  1  0
  1  3  1  0
  1  4  1  0
  5  6  1  0
  5  7  1  0
  8  9  1  0
  8 10  1  0
  8 11  1  0
 12 16  1  0
 16 17  2  0
 17 19  1  0
 19 21  2  0
 21 23  1  0
 23 25  2  0
 25 16  1  0
 12 13  1  0
 12 14  1  0
 12 15  1  0
 17 18  1  0
 19 20  1  0
 21 22  1  0
 23 24  1  0
 25 26  1  0
M  CHG  1   8   1
M  END
>  <PDB_ID>  (1370) 
pdb1w99

>  <RESIDUE_NAME>  (1370) 
LYS   PHE

>  <FRAG_NAME>  (1370) 
ETAM   MBZ

>  <FRAG_ATOM_NUM>  (1370) 
fragi: 11  fragj: 15

>  <atom.prop.CHAIN_ID>  (1370) 
A A A A A A A A A A A Z Z Z Z Z Z Z Z Z Z Z Z Z Z Z

>  <atom.prop.IS_HEAVY_ATOM>  (1370) 
1 0 0 0 1 0 0 1 0 0 0 1 0 0 0 1 1 0 1 0 1 0 1 0 1 0

>  <DIFUSE_FUNC_ATOM>  (1370) 
n/a

>  <FINAL_SINGLE_POINT_ENERGY>  (1370) 
0

>  <NONCOV_INTER_ENERGY_QM>  (1370) 
0

>  <FF_Energy>  (1370) 
1.72

>  <QM_Energy>  (1370) 
-5.37

>  <source>  (1370) 
ETAM_MBZ

>  <Index>  (1370) 
13770

$$$$
ETAM-pdb1w81-A-LYS-256:MBZ-pdb1w81-A-PHE-370
     RDKit          3D

 26 25  0  0  0  0  0  0  0  0999 V2000
   -0.1246    0.4913   -3.7021 C   0  0  0  0  0  0  0  0  0  0  0  0
   -0.2070    0.6637   -2.7259 H   0  0  0  0  0  0  0  0  0  0  0  0
   -1.0121    0.2663   -4.0906 H   0  0  0  0  0  0  0  0  0  0  0  0
    0.2760    1.3766   -4.1958 H   0  0  0  0  0  0  0  0  0  0  0  0
    0.7964   -0.7197   -3.8927 C   0  0  0  0  0  0  0  0  0  0  0  0
    1.0093   -0.8230   -4.8581 H   0  0  0  0  0  0  0  0  0  0  0  0
    1.6311   -0.5852   -3.3682 H   0  0  0  0  0  0  0  0  0  0  0  0
    0.1231   -2.0057   -3.4068 N   0  0  0  0  0  4  0  0  0  0  0  0
   -0.6877   -2.1589   -3.9589 H   0  0  0  0  0  0  0  0  0  0  0  0
    0.7675   -2.7535   -3.5141 H   0  0  0  0  0  0  0  0  0  0  0  0
   -0.1206   -1.8874   -2.4515 H   0  0  0  0  0  0  0  0  0  0  0  0
   -0.0047    2.9046    0.0167 C   0  0  0  0  0  0  0  0  0  0  0  0
   -0.7667    3.2197   -0.5218 H   0  0  0  0  0  0  0  0  0  0  0  0
    0.8568    3.2198   -0.3440 H   0  0  0  0  0  0  0  0  0  0  0  0
   -0.1139    3.3211    1.0180 H   0  0  0  0  0  0  0  0  0  0  0  0
   -0.0016    1.3917   -0.0147 C   0  0  0  0  0  0  0  0  0  0  0  0
   -1.1946    0.6850    0.0062 C   0  0  0  0  0  0  0  0  0  0  0  0
   -2.0628    1.1703    0.0241 H   0  0  0  0  0  0  0  0  0  0  0  0
   -1.1949   -0.7089   -0.0000 C   0  0  0  0  0  0  0  0  0  0  0  0
   -2.0631   -1.2072    0.0091 H   0  0  0  0  0  0  0  0  0  0  0  0
    0.0172   -1.3886   -0.0165 C   0  0  0  0  0  0  0  0  0  0  0  0
    0.0203   -2.3890   -0.0407 H   0  0  0  0  0  0  0  0  0  0  0  0
    1.1949   -0.6814    0.0000 C   0  0  0  0  0  0  0  0  0  0  0  0
    2.0898   -1.1686   -0.0047 H   0  0  0  0  0  0  0  0  0  0  0  0
    1.1791    0.7022    0.0250 C   0  0  0  0  0  0  0  0  0  0  0  0
    2.0508    1.2005    0.0714 H   0  0  0  0  0  0  0  0  0  0  0  0
  1  5  1  0
  5  8  1  0
  1  2  1  0
  1  3  1  0
  1  4  1  0
  5  6  1  0
  5  7  1  0
  8  9  1  0
  8 10  1  0
  8 11  1  0
 12 16  1  0
 16 17  2  0
 17 19  1  0
 19 21  2  0
 21 23  1  0
 23 25  2  0
 25 16  1  0
 12 13  1  0
 12 14  1  0
 12 15  1  0
 17 18  1  0
 19 20  1  0
 21 22  1  0
 23 24  1  0
 25 26  1  0
M  CHG  1   8   1
M  END
>  <PDB_ID>  (1371) 
pdb1w81

>  <RESIDUE_NAME>  (1371) 
LYS   PHE

>  <FRAG_NAME>  (1371) 
ETAM   MBZ

>  <FRAG_ATOM_NUM>  (1371) 
fragi: 11  fragj: 15

>  <atom.prop.CHAIN_ID>  (1371) 
A A A A A A A A A A A Z Z Z Z Z Z Z Z Z Z Z Z Z Z Z

>  <atom.prop.IS_HEAVY_ATOM>  (1371) 
1 0 0 0 1 0 0 1 0 0 0 1 0 0 0 1 1 0 1 0 1 0 1 0 1 0

>  <DIFUSE_FUNC_ATOM>  (1371) 
n/a

>  <FINAL_SINGLE_POINT_ENERGY>  (1371) 
0

>  <NONCOV_INTER_ENERGY_QM>  (1371) 
0

>  <FF_Energy>  (1371) 
-6.32

>  <QM_Energy>  (1371) 
-13.73

>  <source>  (1371) 
ETAM_MBZ

>  <Index>  (1371) 
13788

$$$$
ETAM-pdb1vsu-D-LYS-64:MBZ-pdb1vsu-D-PHE-76
     RDKit          3D

 26 25  0  0  0  0  0  0  0  0999 V2000
   -5.6157   -0.7600   -3.9696 C   0  0  0  0  0  0  0  0  0  0  0  0
   -6.2149   -0.1923   -3.4202 H   0  0  0  0  0  0  0  0  0  0  0  0
   -5.6018   -1.6911   -3.6301 H   0  0  0  0  0  0  0  0  0  0  0  0
   -5.9757   -0.7630   -4.9984 H   0  0  0  0  0  0  0  0  0  0  0  0
   -4.2007   -0.1923   -3.8877 C   0  0  0  0  0  0  0  0  0  0  0  0
   -3.6467   -0.5994   -4.6241 H   0  0  0  0  0  0  0  0  0  0  0  0
   -4.2434    0.8027   -4.0386 H   0  0  0  0  0  0  0  0  0  0  0  0
   -3.5424   -0.4597   -2.5778 N   0  0  0  0  0  4  0  0  0  0  0  0
   -2.5502   -0.4564   -2.6992 H   0  0  0  0  0  0  0  0  0  0  0  0
   -3.8022    0.2518   -1.9260 H   0  0  0  0  0  0  0  0  0  0  0  0
   -3.8354   -1.3517   -2.2360 H   0  0  0  0  0  0  0  0  0  0  0  0
    0.0022    2.9027   -0.0213 C   0  0  0  0  0  0  0  0  0  0  0  0
    0.9413    3.2096   -0.0321 H   0  0  0  0  0  0  0  0  0  0  0  0
   -0.4717    3.2216    0.7852 H   0  0  0  0  0  0  0  0  0  0  0  0
   -0.4968    3.3300   -0.8911 H   0  0  0  0  0  0  0  0  0  0  0  0
    0.0005    1.4027   -0.0008 C   0  0  0  0  0  0  0  0  0  0  0  0
   -1.1944    0.6955    0.0007 C   0  0  0  0  0  0  0  0  0  0  0  0
   -2.0623    1.1837    0.0007 H   0  0  0  0  0  0  0  0  0  0  0  0
   -1.1988   -0.6983   -0.0000 C   0  0  0  0  0  0  0  0  0  0  0  0
   -2.0772   -1.1897    0.0015 H   0  0  0  0  0  0  0  0  0  0  0  0
    0.0000   -1.3944   -0.0009 C   0  0  0  0  0  0  0  0  0  0  0  0
   -0.0039   -2.3933   -0.0027 H   0  0  0  0  0  0  0  0  0  0  0  0
    1.1988   -0.6994    0.0000 C   0  0  0  0  0  0  0  0  0  0  0  0
    2.0812   -1.1945    0.0016 H   0  0  0  0  0  0  0  0  0  0  0  0
    1.1939    0.6939    0.0010 C   0  0  0  0  0  0  0  0  0  0  0  0
    2.0638    1.1876    0.0020 H   0  0  0  0  0  0  0  0  0  0  0  0
  1  5  1  0
  5  8  1  0
  1  2  1  0
  1  3  1  0
  1  4  1  0
  5  6  1  0
  5  7  1  0
  8  9  1  0
  8 10  1  0
  8 11  1  0
 12 16  1  0
 16 17  2  0
 17 19  1  0
 19 21  2  0
 21 23  1  0
 23 25  2  0
 25 16  1  0
 12 13  1  0
 12 14  1  0
 12 15  1  0
 17 18  1  0
 19 20  1  0
 21 22  1  0
 23 24  1  0
 25 26  1  0
M  CHG  1   8   1
M  END
>  <PDB_ID>  (1372) 
pdb1vsu

>  <RESIDUE_NAME>  (1372) 
LYS   PHE

>  <FRAG_NAME>  (1372) 
ETAM   MBZ

>  <FRAG_ATOM_NUM>  (1372) 
fragi: 11  fragj: 15

>  <atom.prop.CHAIN_ID>  (1372) 
A A A A A A A A A A A Z Z Z Z Z Z Z Z Z Z Z Z Z Z Z

>  <atom.prop.IS_HEAVY_ATOM>  (1372) 
1 0 0 0 1 0 0 1 0 0 0 1 0 0 0 1 1 0 1 0 1 0 1 0 1 0

>  <DIFUSE_FUNC_ATOM>  (1372) 
n/a

>  <FINAL_SINGLE_POINT_ENERGY>  (1372) 
0

>  <NONCOV_INTER_ENERGY_QM>  (1372) 
0

>  <FF_Energy>  (1372) 
-1.62

>  <QM_Energy>  (1372) 
-6.82

>  <source>  (1372) 
ETAM_MBZ

>  <Index>  (1372) 
13796

$$$$
ETAM-pdb3aaa-C-LYS-114:MBZ-pdb3aaa-C-PHE-105
     RDKit          3D

 26 25  0  0  0  0  0  0  0  0999 V2000
   -0.9943   -1.5339    4.4496 C   0  0  0  0  0  0  0  0  0  0  0  0
   -0.7326   -1.0215    5.2583 H   0  0  0  0  0  0  0  0  0  0  0  0
   -1.4637   -2.3708    4.7013 H   0  0  0  0  0  0  0  0  0  0  0  0
   -1.6599   -0.9213    3.8414 H   0  0  0  0  0  0  0  0  0  0  0  0
    0.2661   -1.8993    3.6786 C   0  0  0  0  0  0  0  0  0  0  0  0
    0.7179   -2.6690    4.1462 H   0  0  0  0  0  0  0  0  0  0  0  0
    0.0024   -2.2041    2.7544 H   0  0  0  0  0  0  0  0  0  0  0  0
    1.2164   -0.7690    3.5677 N   0  0  0  0  0  4  0  0  0  0  0  0
    0.9897   -0.2180    2.7631 H   0  0  0  0  0  0  0  0  0  0  0  0
    1.1565   -0.1989    4.3877 H   0  0  0  0  0  0  0  0  0  0  0  0
    2.1487   -1.1225    3.4763 H   0  0  0  0  0  0  0  0  0  0  0  0
   -0.0118    2.9303   -0.0244 C   0  0  0  0  0  0  0  0  0  0  0  0
   -0.7826    3.2236   -0.5648 H   0  0  0  0  0  0  0  0  0  0  0  0
    0.8432    3.2307   -0.4139 H   0  0  0  0  0  0  0  0  0  0  0  0
   -0.1055    3.3750    0.9664 H   0  0  0  0  0  0  0  0  0  0  0  0
   -0.0067    1.4166   -0.0087 C   0  0  0  0  0  0  0  0  0  0  0  0
   -1.2059    0.7088    0.0141 C   0  0  0  0  0  0  0  0  0  0  0  0
   -2.0725    1.1952    0.0397 H   0  0  0  0  0  0  0  0  0  0  0  0
   -1.2149   -0.6948   -0.0000 C   0  0  0  0  0  0  0  0  0  0  0  0
   -2.0826   -1.1900   -0.0125 H   0  0  0  0  0  0  0  0  0  0  0  0
    0.0120   -1.4148    0.0045 C   0  0  0  0  0  0  0  0  0  0  0  0
   -0.0118   -2.4062    0.0101 H   0  0  0  0  0  0  0  0  0  0  0  0
    1.2149   -0.7211   -0.0000 C   0  0  0  0  0  0  0  0  0  0  0  0
    2.0971   -1.1972    0.0048 H   0  0  0  0  0  0  0  0  0  0  0  0
    1.2007    0.7052   -0.0098 C   0  0  0  0  0  0  0  0  0  0  0  0
    2.0675    1.1923   -0.0184 H   0  0  0  0  0  0  0  0  0  0  0  0
  1  5  1  0
  5  8  1  0
  1  2  1  0
  1  3  1  0
  1  4  1  0
  5  6  1  0
  5  7  1  0
  8  9  1  0
  8 10  1  0
  8 11  1  0
 12 16  1  0
 16 17  2  0
 17 19  1  0
 19 21  2  0
 21 23  1  0
 23 25  2  0
 25 16  1  0
 12 13  1  0
 12 14  1  0
 12 15  1  0
 17 18  1  0
 19 20  1  0
 21 22  1  0
 23 24  1  0
 25 26  1  0
M  CHG  1   8   1
M  END
>  <PDB_ID>  (1373) 
pdb3aaa

>  <RESIDUE_NAME>  (1373) 
LYS   PHE

>  <FRAG_NAME>  (1373) 
ETAM   MBZ

>  <FRAG_ATOM_NUM>  (1373) 
fragi: 11  fragj: 15

>  <atom.prop.CHAIN_ID>  (1373) 
A A A A A A A A A A A Z Z Z Z Z Z Z Z Z Z Z Z Z Z Z

>  <atom.prop.IS_HEAVY_ATOM>  (1373) 
1 0 0 0 1 0 0 1 0 0 0 1 0 0 0 1 1 0 1 0 1 0 1 0 1 0

>  <DIFUSE_FUNC_ATOM>  (1373) 
n/a

>  <FINAL_SINGLE_POINT_ENERGY>  (1373) 
0

>  <NONCOV_INTER_ENERGY_QM>  (1373) 
0

>  <FF_Energy>  (1373) 
-6.5

>  <QM_Energy>  (1373) 
-13.05

>  <source>  (1373) 
ETAM_MBZ

>  <Index>  (1373) 
13801

$$$$
ETAM-pdb1w98-B-LYS-186:MBZ-pdb1w98-B-PHE-182
     RDKit          3D

 26 25  0  0  0  0  0  0  0  0999 V2000
   -0.9153   -1.6491    3.7848 C   0  0  0  0  0  0  0  0  0  0  0  0
   -0.7192   -2.2023    4.5973 H   0  0  0  0  0  0  0  0  0  0  0  0
   -1.1211   -2.2581    3.0156 H   0  0  0  0  0  0  0  0  0  0  0  0
   -1.8045   -1.0533    3.9906 H   0  0  0  0  0  0  0  0  0  0  0  0
    0.2938   -0.8199    3.4486 C   0  0  0  0  0  0  0  0  0  0  0  0
    0.1590   -0.3682    2.5735 H   0  0  0  0  0  0  0  0  0  0  0  0
    0.4520   -0.1499    4.1652 H   0  0  0  0  0  0  0  0  0  0  0  0
    1.5004   -1.7128    3.3494 N   0  0  0  0  0  4  0  0  0  0  0  0
    1.6513   -1.9476    2.3920 H   0  0  0  0  0  0  0  0  0  0  0  0
    2.2931   -1.2271    3.7106 H   0  0  0  0  0  0  0  0  0  0  0  0
    1.3359   -2.5401    3.8812 H   0  0  0  0  0  0  0  0  0  0  0  0
    0.0474    2.9607   -0.0391 C   0  0  0  0  0  0  0  0  0  0  0  0
   -0.2104    3.2327   -0.9547 H   0  0  0  0  0  0  0  0  0  0  0  0
    0.9737    3.2375    0.1698 H   0  0  0  0  0  0  0  0  0  0  0  0
   -0.6180    3.4677    0.6597 H   0  0  0  0  0  0  0  0  0  0  0  0
    0.0077    1.4216    0.0094 C   0  0  0  0  0  0  0  0  0  0  0  0
   -1.2012    0.7076   -0.0014 C   0  0  0  0  0  0  0  0  0  0  0  0
   -2.0658    1.1956   -0.0115 H   0  0  0  0  0  0  0  0  0  0  0  0
   -1.2212   -0.7111   -0.0000 C   0  0  0  0  0  0  0  0  0  0  0  0
   -2.0965   -1.1879    0.0078 H   0  0  0  0  0  0  0  0  0  0  0  0
   -0.0099   -1.4229   -0.0084 C   0  0  0  0  0  0  0  0  0  0  0  0
   -0.0027   -2.4078   -0.0206 H   0  0  0  0  0  0  0  0  0  0  0  0
    1.2212   -0.6997   -0.0000 C   0  0  0  0  0  0  0  0  0  0  0  0
    2.0914   -1.1962    0.0065 H   0  0  0  0  0  0  0  0  0  0  0  0
    1.2034    0.7046    0.0004 C   0  0  0  0  0  0  0  0  0  0  0  0
    2.0759    1.2004   -0.0073 H   0  0  0  0  0  0  0  0  0  0  0  0
  1  5  1  0
  5  8  1  0
  1  2  1  0
  1  3  1  0
  1  4  1  0
  5  6  1  0
  5  7  1  0
  8  9  1  0
  8 10  1  0
  8 11  1  0
 12 16  1  0
 16 17  2  0
 17 19  1  0
 19 21  2  0
 21 23  1  0
 23 25  2  0
 25 16  1  0
 12 13  1  0
 12 14  1  0
 12 15  1  0
 17 18  1  0
 19 20  1  0
 21 22  1  0
 23 24  1  0
 25 26  1  0
M  CHG  1   8   1
M  END
>  <PDB_ID>  (1374) 
pdb1w98

>  <RESIDUE_NAME>  (1374) 
LYS   PHE

>  <FRAG_NAME>  (1374) 
ETAM   MBZ

>  <FRAG_ATOM_NUM>  (1374) 
fragi: 11  fragj: 15

>  <atom.prop.CHAIN_ID>  (1374) 
A A A A A A A A A A A Z Z Z Z Z Z Z Z Z Z Z Z Z Z Z

>  <atom.prop.IS_HEAVY_ATOM>  (1374) 
1 0 0 0 1 0 0 1 0 0 0 1 0 0 0 1 1 0 1 0 1 0 1 0 1 0

>  <DIFUSE_FUNC_ATOM>  (1374) 
n/a

>  <FINAL_SINGLE_POINT_ENERGY>  (1374) 
0

>  <NONCOV_INTER_ENERGY_QM>  (1374) 
0

>  <FF_Energy>  (1374) 
-5.25

>  <QM_Energy>  (1374) 
-12.99

>  <source>  (1374) 
ETAM_MBZ

>  <Index>  (1374) 
13807

$$$$
ETAM-pdb3a45-A-LYS-131:MBZ-pdb3a45-A-PHE-61
     RDKit          3D

 26 25  0  0  0  0  0  0  0  0999 V2000
   -1.1684   -1.3480   -4.5497 C   0  0  0  0  0  0  0  0  0  0  0  0
   -0.9783   -0.8492   -5.3889 H   0  0  0  0  0  0  0  0  0  0  0  0
   -1.6860   -2.1734   -4.7473 H   0  0  0  0  0  0  0  0  0  0  0  0
   -0.2245   -1.6239   -4.0797 H   0  0  0  0  0  0  0  0  0  0  0  0
   -2.0044   -0.4600   -3.6376 C   0  0  0  0  0  0  0  0  0  0  0  0
   -2.8727   -0.2506   -4.0937 H   0  0  0  0  0  0  0  0  0  0  0  0
   -2.1958   -0.9554   -2.7866 H   0  0  0  0  0  0  0  0  0  0  0  0
   -1.3050    0.8195   -3.3093 N   0  0  0  0  0  4  0  0  0  0  0  0
   -1.8941    1.3759   -2.7248 H   0  0  0  0  0  0  0  0  0  0  0  0
   -0.4530    0.6146   -2.8308 H   0  0  0  0  0  0  0  0  0  0  0  0
   -1.1069    1.3120   -4.1552 H   0  0  0  0  0  0  0  0  0  0  0  0
    0.0025    2.8975    0.0047 C   0  0  0  0  0  0  0  0  0  0  0  0
   -0.6368    3.2094   -0.6845 H   0  0  0  0  0  0  0  0  0  0  0  0
    0.9213    3.2065   -0.1955 H   0  0  0  0  0  0  0  0  0  0  0  0
   -0.2949    3.3372    0.9567 H   0  0  0  0  0  0  0  0  0  0  0  0
    0.0014    1.4012   -0.0004 C   0  0  0  0  0  0  0  0  0  0  0  0
   -1.1976    0.6937    0.0003 C   0  0  0  0  0  0  0  0  0  0  0  0
   -2.0637    1.1854    0.0000 H   0  0  0  0  0  0  0  0  0  0  0  0
   -1.2057   -0.6985    0.0000 C   0  0  0  0  0  0  0  0  0  0  0  0
   -2.0811   -1.1917    0.0011 H   0  0  0  0  0  0  0  0  0  0  0  0
   -0.0016   -1.3982   -0.0001 C   0  0  0  0  0  0  0  0  0  0  0  0
   -0.0044   -2.3943   -0.0010 H   0  0  0  0  0  0  0  0  0  0  0  0
    1.2057   -0.6970   -0.0000 C   0  0  0  0  0  0  0  0  0  0  0  0
    2.0851   -1.1930    0.0015 H   0  0  0  0  0  0  0  0  0  0  0  0
    1.1978    0.6989    0.0003 C   0  0  0  0  0  0  0  0  0  0  0  0
    2.0659    1.1945    0.0004 H   0  0  0  0  0  0  0  0  0  0  0  0
  1  5  1  0
  5  8  1  0
  1  2  1  0
  1  3  1  0
  1  4  1  0
  5  6  1  0
  5  7  1  0
  8  9  1  0
  8 10  1  0
  8 11  1  0
 12 16  1  0
 16 17  2  0
 17 19  1  0
 19 21  2  0
 21 23  1  0
 23 25  2  0
 25 16  1  0
 12 13  1  0
 12 14  1  0
 12 15  1  0
 17 18  1  0
 19 20  1  0
 21 22  1  0
 23 24  1  0
 25 26  1  0
M  CHG  1   8   1
M  END
>  <PDB_ID>  (1375) 
pdb3a45

>  <RESIDUE_NAME>  (1375) 
LYS   PHE

>  <FRAG_NAME>  (1375) 
ETAM   MBZ

>  <FRAG_ATOM_NUM>  (1375) 
fragi: 11  fragj: 15

>  <atom.prop.CHAIN_ID>  (1375) 
A A A A A A A A A A A Z Z Z Z Z Z Z Z Z Z Z Z Z Z Z

>  <atom.prop.IS_HEAVY_ATOM>  (1375) 
1 0 0 0 1 0 0 1 0 0 0 1 0 0 0 1 1 0 1 0 1 0 1 0 1 0

>  <DIFUSE_FUNC_ATOM>  (1375) 
n/a

>  <FINAL_SINGLE_POINT_ENERGY>  (1375) 
0

>  <NONCOV_INTER_ENERGY_QM>  (1375) 
0

>  <FF_Energy>  (1375) 
-7.02

>  <QM_Energy>  (1375) 
-12.53

>  <source>  (1375) 
ETAM_MBZ

>  <Index>  (1375) 
13808

$$$$
ETAM-pdb3a9u-A-LYS-353:MBZ-pdb3a9u-A-PHE-428
     RDKit          3D

 26 25  0  0  0  0  0  0  0  0999 V2000
   -0.5495   -6.6431   -0.1394 C   0  0  0  0  0  0  0  0  0  0  0  0
    0.1923   -6.9259   -0.7478 H   0  0  0  0  0  0  0  0  0  0  0  0
   -1.3112   -7.2861   -0.2214 H   0  0  0  0  0  0  0  0  0  0  0  0
   -0.1882   -6.6452    0.8890 H   0  0  0  0  0  0  0  0  0  0  0  0
   -1.0321   -5.2720   -0.5785 C   0  0  0  0  0  0  0  0  0  0  0  0
   -1.7534   -5.3875   -1.2906 H   0  0  0  0  0  0  0  0  0  0  0  0
   -1.4817   -4.8104    0.2124 H   0  0  0  0  0  0  0  0  0  0  0  0
    0.0237   -4.3398   -1.1267 N   0  0  0  0  0  4  0  0  0  0  0  0
   -0.2920   -3.9757   -1.9978 H   0  0  0  0  0  0  0  0  0  0  0  0
    0.1656   -3.5994   -0.4760 H   0  0  0  0  0  0  0  0  0  0  0  0
    0.8684   -4.8519   -1.2542 H   0  0  0  0  0  0  0  0  0  0  0  0
    0.0084    2.8987    0.0116 C   0  0  0  0  0  0  0  0  0  0  0  0
   -0.6562    3.2162   -0.6503 H   0  0  0  0  0  0  0  0  0  0  0  0
    0.9199    3.2041   -0.2248 H   0  0  0  0  0  0  0  0  0  0  0  0
   -0.2480    3.3382    0.9756 H   0  0  0  0  0  0  0  0  0  0  0  0
    0.0003    1.3993   -0.0016 C   0  0  0  0  0  0  0  0  0  0  0  0
   -1.1951    0.6959    0.0004 C   0  0  0  0  0  0  0  0  0  0  0  0
   -2.0616    1.1857    0.0013 H   0  0  0  0  0  0  0  0  0  0  0  0
   -1.1994   -0.6946   -0.0000 C   0  0  0  0  0  0  0  0  0  0  0  0
   -2.0773   -1.1881   -0.0000 H   0  0  0  0  0  0  0  0  0  0  0  0
    0.0003   -1.3916    0.0020 C   0  0  0  0  0  0  0  0  0  0  0  0
   -0.0057   -2.3912    0.0047 H   0  0  0  0  0  0  0  0  0  0  0  0
    1.1994   -0.6993    0.0000 C   0  0  0  0  0  0  0  0  0  0  0  0
    2.0812   -1.1970    0.0007 H   0  0  0  0  0  0  0  0  0  0  0  0
    1.1944    0.6904   -0.0008 C   0  0  0  0  0  0  0  0  0  0  0  0
    2.0643    1.1870   -0.0016 H   0  0  0  0  0  0  0  0  0  0  0  0
  1  5  1  0
  5  8  1  0
  1  2  1  0
  1  3  1  0
  1  4  1  0
  5  6  1  0
  5  7  1  0
  8  9  1  0
  8 10  1  0
  8 11  1  0
 12 16  1  0
 16 17  2  0
 17 19  1  0
 19 21  2  0
 21 23  1  0
 23 25  2  0
 25 16  1  0
 12 13  1  0
 12 14  1  0
 12 15  1  0
 17 18  1  0
 19 20  1  0
 21 22  1  0
 23 24  1  0
 25 26  1  0
M  CHG  1   8   1
M  END
>  <PDB_ID>  (1376) 
pdb3a9u

>  <RESIDUE_NAME>  (1376) 
LYS   PHE

>  <FRAG_NAME>  (1376) 
ETAM   MBZ

>  <FRAG_ATOM_NUM>  (1376) 
fragi: 11  fragj: 15

>  <atom.prop.CHAIN_ID>  (1376) 
A A A A A A A A A A A Z Z Z Z Z Z Z Z Z Z Z Z Z Z Z

>  <atom.prop.IS_HEAVY_ATOM>  (1376) 
1 0 0 0 1 0 0 1 0 0 0 1 0 0 0 1 1 0 1 0 1 0 1 0 1 0

>  <DIFUSE_FUNC_ATOM>  (1376) 
n/a

>  <FINAL_SINGLE_POINT_ENERGY>  (1376) 
0

>  <NONCOV_INTER_ENERGY_QM>  (1376) 
0

>  <FF_Energy>  (1376) 
7.07

>  <QM_Energy>  (1376) 
0.78

>  <source>  (1376) 
ETAM_MBZ

>  <Index>  (1376) 
13818

$$$$
ETAM-pdb3abh-A-LYS-205:MBZ-pdb3abh-B-PHE-301
     RDKit          3D

 26 25  0  0  0  0  0  0  0  0999 V2000
   -1.0963   -4.8392   -2.6671 C   0  0  0  0  0  0  0  0  0  0  0  0
   -1.4512   -5.5050   -3.3174 H   0  0  0  0  0  0  0  0  0  0  0  0
   -0.5423   -4.1590   -3.1383 H   0  0  0  0  0  0  0  0  0  0  0  0
   -1.9344   -4.3380   -2.1828 H   0  0  0  0  0  0  0  0  0  0  0  0
   -0.2157   -5.5680   -1.6606 C   0  0  0  0  0  0  0  0  0  0  0  0
   -0.7746   -6.2442   -1.1713 H   0  0  0  0  0  0  0  0  0  0  0  0
    0.5128   -6.0511   -2.1568 H   0  0  0  0  0  0  0  0  0  0  0  0
    0.4000   -4.6367   -0.6742 N   0  0  0  0  0  4  0  0  0  0  0  0
    1.3468   -4.9108   -0.5062 H   0  0  0  0  0  0  0  0  0  0  0  0
    0.3805   -3.7069   -1.0396 H   0  0  0  0  0  0  0  0  0  0  0  0
   -0.1167   -4.6717    0.1807 H   0  0  0  0  0  0  0  0  0  0  0  0
   -0.0015    2.9063    0.0019 C   0  0  0  0  0  0  0  0  0  0  0  0
   -0.6197    3.2133   -0.7061 H   0  0  0  0  0  0  0  0  0  0  0  0
    0.9222    3.2137   -0.1690 H   0  0  0  0  0  0  0  0  0  0  0  0
   -0.3301    3.3452    0.9439 H   0  0  0  0  0  0  0  0  0  0  0  0
    0.0003    1.4027   -0.0001 C   0  0  0  0  0  0  0  0  0  0  0  0
   -1.1968    0.6949   -0.0001 C   0  0  0  0  0  0  0  0  0  0  0  0
   -2.0638    1.1841   -0.0016 H   0  0  0  0  0  0  0  0  0  0  0  0
   -1.2019   -0.6991   -0.0000 C   0  0  0  0  0  0  0  0  0  0  0  0
   -2.0784   -1.1908    0.0012 H   0  0  0  0  0  0  0  0  0  0  0  0
   -0.0007   -1.3953    0.0000 C   0  0  0  0  0  0  0  0  0  0  0  0
   -0.0033   -2.3936   -0.0007 H   0  0  0  0  0  0  0  0  0  0  0  0
    1.2019   -0.6979    0.0000 C   0  0  0  0  0  0  0  0  0  0  0  0
    2.0822   -1.1951    0.0017 H   0  0  0  0  0  0  0  0  0  0  0  0
    1.1972    0.6948    0.0002 C   0  0  0  0  0  0  0  0  0  0  0  0
    2.0653    1.1908   -0.0006 H   0  0  0  0  0  0  0  0  0  0  0  0
  1  5  1  0
  5  8  1  0
  1  2  1  0
  1  3  1  0
  1  4  1  0
  5  6  1  0
  5  7  1  0
  8  9  1  0
  8 10  1  0
  8 11  1  0
 12 16  1  0
 16 17  2  0
 17 19  1  0
 19 21  2  0
 21 23  1  0
 23 25  2  0
 25 16  1  0
 12 13  1  0
 12 14  1  0
 12 15  1  0
 17 18  1  0
 19 20  1  0
 21 22  1  0
 23 24  1  0
 25 26  1  0
M  CHG  1   8   1
M  END
>  <PDB_ID>  (1377) 
pdb3abh

>  <RESIDUE_NAME>  (1377) 
LYS   PHE

>  <FRAG_NAME>  (1377) 
ETAM   MBZ

>  <FRAG_ATOM_NUM>  (1377) 
fragi: 11  fragj: 15

>  <atom.prop.CHAIN_ID>  (1377) 
A A A A A A A A A A A Z Z Z Z Z Z Z Z Z Z Z Z Z Z Z

>  <atom.prop.IS_HEAVY_ATOM>  (1377) 
1 0 0 0 1 0 0 1 0 0 0 1 0 0 0 1 1 0 1 0 1 0 1 0 1 0

>  <DIFUSE_FUNC_ATOM>  (1377) 
n/a

>  <FINAL_SINGLE_POINT_ENERGY>  (1377) 
0

>  <NONCOV_INTER_ENERGY_QM>  (1377) 
0

>  <FF_Energy>  (1377) 
3.58

>  <QM_Energy>  (1377) 
-2.75

>  <source>  (1377) 
ETAM_MBZ

>  <Index>  (1377) 
13822

$$$$
ETAM-pdb3acp-A-LYS-3:MBZ-pdb3acp-A-PHE-372
     RDKit          3D

 26 25  0  0  0  0  0  0  0  0999 V2000
   -0.3501   -2.0096    3.4111 C   0  0  0  0  0  0  0  0  0  0  0  0
   -0.8691   -1.4689    4.0637 H   0  0  0  0  0  0  0  0  0  0  0  0
   -0.2721   -1.5290    2.5451 H   0  0  0  0  0  0  0  0  0  0  0  0
    0.6489   -2.1822    3.8115 H   0  0  0  0  0  0  0  0  0  0  0  0
   -1.0837   -3.3201    3.1742 C   0  0  0  0  0  0  0  0  0  0  0  0
   -0.4340   -3.9968    2.8175 H   0  0  0  0  0  0  0  0  0  0  0  0
   -1.4484   -3.6512    4.0484 H   0  0  0  0  0  0  0  0  0  0  0  0
   -2.2048   -3.1615    2.2065 N   0  0  0  0  0  4  0  0  0  0  0  0
   -2.9950   -2.7711    2.6767 H   0  0  0  0  0  0  0  0  0  0  0  0
   -1.9202   -2.5533    1.4668 H   0  0  0  0  0  0  0  0  0  0  0  0
   -2.4466   -4.0551    1.8306 H   0  0  0  0  0  0  0  0  0  0  0  0
   -0.0017    2.9174   -0.0071 C   0  0  0  0  0  0  0  0  0  0  0  0
    0.8399    3.2167    0.4138 H   0  0  0  0  0  0  0  0  0  0  0  0
   -0.7905    3.2168    0.5062 H   0  0  0  0  0  0  0  0  0  0  0  0
   -0.0582    3.3539   -1.0043 H   0  0  0  0  0  0  0  0  0  0  0  0
   -0.0026    1.4013   -0.0044 C   0  0  0  0  0  0  0  0  0  0  0  0
   -1.1992    0.6925   -0.0002 C   0  0  0  0  0  0  0  0  0  0  0  0
   -2.0656    1.1868    0.0012 H   0  0  0  0  0  0  0  0  0  0  0  0
   -1.2046   -0.6906   -0.0000 C   0  0  0  0  0  0  0  0  0  0  0  0
   -2.0765   -1.1914    0.0000 H   0  0  0  0  0  0  0  0  0  0  0  0
    0.0058   -1.3952    0.0020 C   0  0  0  0  0  0  0  0  0  0  0  0
   -0.0089   -2.3929    0.0046 H   0  0  0  0  0  0  0  0  0  0  0  0
    1.2046   -0.7046   -0.0000 C   0  0  0  0  0  0  0  0  0  0  0  0
    2.0869   -1.1941   -0.0023 H   0  0  0  0  0  0  0  0  0  0  0  0
    1.1960    0.6966    0.0026 C   0  0  0  0  0  0  0  0  0  0  0  0
    2.0637    1.1898    0.0085 H   0  0  0  0  0  0  0  0  0  0  0  0
  1  5  1  0
  5  8  1  0
  1  2  1  0
  1  3  1  0
  1  4  1  0
  5  6  1  0
  5  7  1  0
  8  9  1  0
  8 10  1  0
  8 11  1  0
 12 16  1  0
 16 17  2  0
 17 19  1  0
 19 21  2  0
 21 23  1  0
 23 25  2  0
 25 16  1  0
 12 13  1  0
 12 14  1  0
 12 15  1  0
 17 18  1  0
 19 20  1  0
 21 22  1  0
 23 24  1  0
 25 26  1  0
M  CHG  1   8   1
M  END
>  <PDB_ID>  (1378) 
pdb3acp

>  <RESIDUE_NAME>  (1378) 
LYS   PHE

>  <FRAG_NAME>  (1378) 
ETAM   MBZ

>  <FRAG_ATOM_NUM>  (1378) 
fragi: 11  fragj: 15

>  <atom.prop.CHAIN_ID>  (1378) 
A A A A A A A A A A A Z Z Z Z Z Z Z Z Z Z Z Z Z Z Z

>  <atom.prop.IS_HEAVY_ATOM>  (1378) 
1 0 0 0 1 0 0 1 0 0 0 1 0 0 0 1 1 0 1 0 1 0 1 0 1 0

>  <DIFUSE_FUNC_ATOM>  (1378) 
n/a

>  <FINAL_SINGLE_POINT_ENERGY>  (1378) 
0

>  <NONCOV_INTER_ENERGY_QM>  (1378) 
0

>  <FF_Energy>  (1378) 
-1.05

>  <QM_Energy>  (1378) 
-8.03

>  <source>  (1378) 
ETAM_MBZ

>  <Index>  (1378) 
13829

$$$$
ETAM-pdb3acp-A-LYS-247:MBZ-pdb3acp-A-PHE-274
     RDKit          3D

 26 25  0  0  0  0  0  0  0  0999 V2000
   -3.8466   -3.3040   -0.2471 C   0  0  0  0  0  0  0  0  0  0  0  0
   -2.9451   -3.1036   -0.6242 H   0  0  0  0  0  0  0  0  0  0  0  0
   -4.2440   -4.0892   -0.7171 H   0  0  0  0  0  0  0  0  0  0  0  0
   -3.7357   -3.5485    0.8093 H   0  0  0  0  0  0  0  0  0  0  0  0
   -4.7455   -2.0972   -0.4710 C   0  0  0  0  0  0  0  0  0  0  0  0
   -5.6932   -2.4146   -0.5796 H   0  0  0  0  0  0  0  0  0  0  0  0
   -4.6979   -1.5029    0.3384 H   0  0  0  0  0  0  0  0  0  0  0  0
   -4.3516   -1.3177   -1.6735 N   0  0  0  0  0  4  0  0  0  0  0  0
   -3.4144   -0.9853   -1.5621 H   0  0  0  0  0  0  0  0  0  0  0  0
   -4.4039   -1.9036   -2.4818 H   0  0  0  0  0  0  0  0  0  0  0  0
   -4.9705   -0.5402   -1.7839 H   0  0  0  0  0  0  0  0  0  0  0  0
   -0.0109    2.9339    0.0330 C   0  0  0  0  0  0  0  0  0  0  0  0
   -0.6898    3.2435   -0.6095 H   0  0  0  0  0  0  0  0  0  0  0  0
    0.8916    3.2503   -0.2031 H   0  0  0  0  0  0  0  0  0  0  0  0
   -0.2632    3.3525    1.0074 H   0  0  0  0  0  0  0  0  0  0  0  0
    0.0015    1.4195    0.0079 C   0  0  0  0  0  0  0  0  0  0  0  0
   -1.1945    0.7021    0.0032 C   0  0  0  0  0  0  0  0  0  0  0  0
   -2.0658    1.1853    0.0013 H   0  0  0  0  0  0  0  0  0  0  0  0
   -1.2072   -0.7100    0.0000 C   0  0  0  0  0  0  0  0  0  0  0  0
   -2.0878   -1.1885    0.0094 H   0  0  0  0  0  0  0  0  0  0  0  0
   -0.0086   -1.4133   -0.0147 C   0  0  0  0  0  0  0  0  0  0  0  0
   -0.0097   -2.4074   -0.0360 H   0  0  0  0  0  0  0  0  0  0  0  0
    1.2072   -0.7120   -0.0000 C   0  0  0  0  0  0  0  0  0  0  0  0
    2.0840   -1.1977    0.0092 H   0  0  0  0  0  0  0  0  0  0  0  0
    1.2015    0.7137    0.0036 C   0  0  0  0  0  0  0  0  0  0  0  0
    2.0701    1.1946    0.0024 H   0  0  0  0  0  0  0  0  0  0  0  0
  1  5  1  0
  5  8  1  0
  1  2  1  0
  1  3  1  0
  1  4  1  0
  5  6  1  0
  5  7  1  0
  8  9  1  0
  8 10  1  0
  8 11  1  0
 12 16  1  0
 16 17  2  0
 17 19  1  0
 19 21  2  0
 21 23  1  0
 23 25  2  0
 25 16  1  0
 12 13  1  0
 12 14  1  0
 12 15  1  0
 17 18  1  0
 19 20  1  0
 21 22  1  0
 23 24  1  0
 25 26  1  0
M  CHG  1   8   1
M  END
>  <PDB_ID>  (1379) 
pdb3acp

>  <RESIDUE_NAME>  (1379) 
LYS   PHE

>  <FRAG_NAME>  (1379) 
ETAM   MBZ

>  <FRAG_ATOM_NUM>  (1379) 
fragi: 11  fragj: 15

>  <atom.prop.CHAIN_ID>  (1379) 
A A A A A A A A A A A Z Z Z Z Z Z Z Z Z Z Z Z Z Z Z

>  <atom.prop.IS_HEAVY_ATOM>  (1379) 
1 0 0 0 1 0 0 1 0 0 0 1 0 0 0 1 1 0 1 0 1 0 1 0 1 0

>  <DIFUSE_FUNC_ATOM>  (1379) 
n/a

>  <FINAL_SINGLE_POINT_ENERGY>  (1379) 
0

>  <NONCOV_INTER_ENERGY_QM>  (1379) 
0

>  <FF_Energy>  (1379) 
0.34

>  <QM_Energy>  (1379) 
-5.27

>  <source>  (1379) 
ETAM_MBZ

>  <Index>  (1379) 
13866

$$$$
ETAM-pdb1whi-A-LYS-91:MBZ-pdb1whi-A-PHE-111
     RDKit          3D

 26 25  0  0  0  0  0  0  0  0999 V2000
   -1.1429   -1.0309   -3.6862 C   0  0  0  0  0  0  0  0  0  0  0  0
   -1.1472   -0.4751   -4.5023 H   0  0  0  0  0  0  0  0  0  0  0  0
   -0.7415   -0.5517   -2.9215 H   0  0  0  0  0  0  0  0  0  0  0  0
   -2.1695   -1.2985   -3.4362 H   0  0  0  0  0  0  0  0  0  0  0  0
   -0.3442   -2.2877   -3.9524 C   0  0  0  0  0  0  0  0  0  0  0  0
   -0.6814   -3.0247   -3.3529 H   0  0  0  0  0  0  0  0  0  0  0  0
   -0.4864   -2.5720   -4.9097 H   0  0  0  0  0  0  0  0  0  0  0  0
    1.1171   -2.1044   -3.7163 N   0  0  0  0  0  4  0  0  0  0  0  0
    1.5919   -2.0726   -4.5949 H   0  0  0  0  0  0  0  0  0  0  0  0
    1.2667   -1.2489   -3.2217 H   0  0  0  0  0  0  0  0  0  0  0  0
    1.4626   -2.8702   -3.1751 H   0  0  0  0  0  0  0  0  0  0  0  0
   -0.0054    2.9162   -0.0273 C   0  0  0  0  0  0  0  0  0  0  0  0
    0.8686    3.2255    0.3059 H   0  0  0  0  0  0  0  0  0  0  0  0
   -0.7476    3.2276    0.5411 H   0  0  0  0  0  0  0  0  0  0  0  0
   -0.1501    3.3257   -1.0270 H   0  0  0  0  0  0  0  0  0  0  0  0
   -0.0038    1.4078   -0.0007 C   0  0  0  0  0  0  0  0  0  0  0  0
   -1.2013    0.6982    0.0002 C   0  0  0  0  0  0  0  0  0  0  0  0
   -2.0678    1.1842   -0.0009 H   0  0  0  0  0  0  0  0  0  0  0  0
   -1.2010   -0.6973    0.0000 C   0  0  0  0  0  0  0  0  0  0  0  0
   -2.0742   -1.1937   -0.0003 H   0  0  0  0  0  0  0  0  0  0  0  0
    0.0064   -1.3917    0.0018 C   0  0  0  0  0  0  0  0  0  0  0  0
   -0.0062   -2.3953    0.0037 H   0  0  0  0  0  0  0  0  0  0  0  0
    1.2010   -0.7079    0.0000 C   0  0  0  0  0  0  0  0  0  0  0  0
    2.0844   -1.2003    0.0011 H   0  0  0  0  0  0  0  0  0  0  0  0
    1.1987    0.6910   -0.0012 C   0  0  0  0  0  0  0  0  0  0  0  0
    2.0656    1.1848   -0.0038 H   0  0  0  0  0  0  0  0  0  0  0  0
  1  5  1  0
  5  8  1  0
  1  2  1  0
  1  3  1  0
  1  4  1  0
  5  6  1  0
  5  7  1  0
  8  9  1  0
  8 10  1  0
  8 11  1  0
 12 16  1  0
 16 17  2  0
 17 19  1  0
 19 21  2  0
 21 23  1  0
 23 25  2  0
 25 16  1  0
 12 13  1  0
 12 14  1  0
 12 15  1  0
 17 18  1  0
 19 20  1  0
 21 22  1  0
 23 24  1  0
 25 26  1  0
M  CHG  1   8   1
M  END
>  <PDB_ID>  (1380) 
pdb1whi

>  <RESIDUE_NAME>  (1380) 
LYS   PHE

>  <FRAG_NAME>  (1380) 
ETAM   MBZ

>  <FRAG_ATOM_NUM>  (1380) 
fragi: 11  fragj: 15

>  <atom.prop.CHAIN_ID>  (1380) 
A A A A A A A A A A A Z Z Z Z Z Z Z Z Z Z Z Z Z Z Z

>  <atom.prop.IS_HEAVY_ATOM>  (1380) 
1 0 0 0 1 0 0 1 0 0 0 1 0 0 0 1 1 0 1 0 1 0 1 0 1 0

>  <DIFUSE_FUNC_ATOM>  (1380) 
n/a

>  <FINAL_SINGLE_POINT_ENERGY>  (1380) 
0

>  <NONCOV_INTER_ENERGY_QM>  (1380) 
0

>  <FF_Energy>  (1380) 
-4.54

>  <QM_Energy>  (1380) 
-9.58

>  <source>  (1380) 
ETAM_MBZ

>  <Index>  (1380) 
13885

$$$$
ETAM-pdb1wkb-A-LYS-251:MBZ-pdb1wkb-A-PHE-286
     RDKit          3D

 26 25  0  0  0  0  0  0  0  0999 V2000
    3.4484   -3.7862    2.0690 C   0  0  0  0  0  0  0  0  0  0  0  0
    3.7630   -4.4366    1.3783 H   0  0  0  0  0  0  0  0  0  0  0  0
    3.5536   -4.1874    2.9785 H   0  0  0  0  0  0  0  0  0  0  0  0
    4.0703   -2.8928    2.0107 H   0  0  0  0  0  0  0  0  0  0  0  0
    1.9620   -3.5066    1.8308 C   0  0  0  0  0  0  0  0  0  0  0  0
    1.8586   -3.0618    0.9285 H   0  0  0  0  0  0  0  0  0  0  0  0
    1.4696   -4.3896    1.7958 H   0  0  0  0  0  0  0  0  0  0  0  0
    1.3288   -2.6398    2.8744 N   0  0  0  0  0  4  0  0  0  0  0  0
    1.2044   -3.1713    3.7102 H   0  0  0  0  0  0  0  0  0  0  0  0
    1.9235   -1.8585    3.0566 H   0  0  0  0  0  0  0  0  0  0  0  0
    0.4435   -2.3203    2.5418 H   0  0  0  0  0  0  0  0  0  0  0  0
   -0.0072    2.9162    0.0091 C   0  0  0  0  0  0  0  0  0  0  0  0
    0.9304    3.2252    0.0647 H   0  0  0  0  0  0  0  0  0  0  0  0
   -0.5321    3.2137    0.7922 H   0  0  0  0  0  0  0  0  0  0  0  0
   -0.4537    3.3615   -0.8800 H   0  0  0  0  0  0  0  0  0  0  0  0
    0.0003    1.4104    0.0001 C   0  0  0  0  0  0  0  0  0  0  0  0
   -1.1988    0.6928   -0.0011 C   0  0  0  0  0  0  0  0  0  0  0  0
   -2.0676    1.1775   -0.0040 H   0  0  0  0  0  0  0  0  0  0  0  0
   -1.2036   -0.7112   -0.0000 C   0  0  0  0  0  0  0  0  0  0  0  0
   -2.0796   -1.1994    0.0013 H   0  0  0  0  0  0  0  0  0  0  0  0
    0.0006   -1.4034    0.0012 C   0  0  0  0  0  0  0  0  0  0  0  0
    0.0054   -2.3994    0.0028 H   0  0  0  0  0  0  0  0  0  0  0  0
    1.2036   -0.6943    0.0000 C   0  0  0  0  0  0  0  0  0  0  0  0
    2.0869   -1.1880    0.0004 H   0  0  0  0  0  0  0  0  0  0  0  0
    1.1979    0.7057   -0.0002 C   0  0  0  0  0  0  0  0  0  0  0  0
    2.0660    1.1986   -0.0009 H   0  0  0  0  0  0  0  0  0  0  0  0
  1  5  1  0
  5  8  1  0
  1  2  1  0
  1  3  1  0
  1  4  1  0
  5  6  1  0
  5  7  1  0
  8  9  1  0
  8 10  1  0
  8 11  1  0
 12 16  1  0
 16 17  2  0
 17 19  1  0
 19 21  2  0
 21 23  1  0
 23 25  2  0
 25 16  1  0
 12 13  1  0
 12 14  1  0
 12 15  1  0
 17 18  1  0
 19 20  1  0
 21 22  1  0
 23 24  1  0
 25 26  1  0
M  CHG  1   8   1
M  END
>  <PDB_ID>  (1381) 
pdb1wkb

>  <RESIDUE_NAME>  (1381) 
LYS   PHE

>  <FRAG_NAME>  (1381) 
ETAM   MBZ

>  <FRAG_ATOM_NUM>  (1381) 
fragi: 11  fragj: 15

>  <atom.prop.CHAIN_ID>  (1381) 
A A A A A A A A A A A Z Z Z Z Z Z Z Z Z Z Z Z Z Z Z

>  <atom.prop.IS_HEAVY_ATOM>  (1381) 
1 0 0 0 1 0 0 1 0 0 0 1 0 0 0 1 1 0 1 0 1 0 1 0 1 0

>  <DIFUSE_FUNC_ATOM>  (1381) 
n/a

>  <FINAL_SINGLE_POINT_ENERGY>  (1381) 
0

>  <NONCOV_INTER_ENERGY_QM>  (1381) 
0

>  <FF_Energy>  (1381) 
-1.28

>  <QM_Energy>  (1381) 
-9.07

>  <source>  (1381) 
ETAM_MBZ

>  <Index>  (1381) 
13892

$$$$
ETAM-pdb3abh-B-LYS-205:MBZ-pdb3abh-A-PHE-301
     RDKit          3D

 26 25  0  0  0  0  0  0  0  0999 V2000
   -0.7710   -4.7335   -3.3070 C   0  0  0  0  0  0  0  0  0  0  0  0
   -0.5897   -5.4404   -2.6314 H   0  0  0  0  0  0  0  0  0  0  0  0
   -0.9946   -5.1427   -4.1853 H   0  0  0  0  0  0  0  0  0  0  0  0
   -1.6169   -4.1337   -2.9709 H   0  0  0  0  0  0  0  0  0  0  0  0
    0.4773   -3.8855   -3.4698 C   0  0  0  0  0  0  0  0  0  0  0  0
    1.2262   -4.4667   -3.7972 H   0  0  0  0  0  0  0  0  0  0  0  0
    0.2991   -3.1704   -4.1498 H   0  0  0  0  0  0  0  0  0  0  0  0
    0.8779   -3.2496   -2.1856 N   0  0  0  0  0  4  0  0  0  0  0  0
    0.1999   -2.5604   -1.9311 H   0  0  0  0  0  0  0  0  0  0  0  0
    0.9297   -3.9480   -1.4720 H   0  0  0  0  0  0  0  0  0  0  0  0
    1.7719   -2.8151   -2.2948 H   0  0  0  0  0  0  0  0  0  0  0  0
   -0.0023    2.9047    0.0070 C   0  0  0  0  0  0  0  0  0  0  0  0
   -0.4994    3.2153   -0.7896 H   0  0  0  0  0  0  0  0  0  0  0  0
    0.9368    3.2130   -0.0114 H   0  0  0  0  0  0  0  0  0  0  0  0
   -0.4778    3.3403    0.8858 H   0  0  0  0  0  0  0  0  0  0  0  0
   -0.0004    1.4031   -0.0002 C   0  0  0  0  0  0  0  0  0  0  0  0
   -1.1962    0.6930   -0.0004 C   0  0  0  0  0  0  0  0  0  0  0  0
   -2.0640    1.1835   -0.0020 H   0  0  0  0  0  0  0  0  0  0  0  0
   -1.2030   -0.6998   -0.0000 C   0  0  0  0  0  0  0  0  0  0  0  0
   -2.0789   -1.1923    0.0015 H   0  0  0  0  0  0  0  0  0  0  0  0
   -0.0006   -1.3959   -0.0001 C   0  0  0  0  0  0  0  0  0  0  0  0
   -0.0027   -2.3933   -0.0012 H   0  0  0  0  0  0  0  0  0  0  0  0
    1.2030   -0.6967   -0.0000 C   0  0  0  0  0  0  0  0  0  0  0  0
    2.0834   -1.1938    0.0013 H   0  0  0  0  0  0  0  0  0  0  0  0
    1.1972    0.6963    0.0007 C   0  0  0  0  0  0  0  0  0  0  0  0
    2.0647    1.1928    0.0006 H   0  0  0  0  0  0  0  0  0  0  0  0
  1  5  1  0
  5  8  1  0
  1  2  1  0
  1  3  1  0
  1  4  1  0
  5  6  1  0
  5  7  1  0
  8  9  1  0
  8 10  1  0
  8 11  1  0
 12 16  1  0
 16 17  2  0
 17 19  1  0
 19 21  2  0
 21 23  1  0
 23 25  2  0
 25 16  1  0
 12 13  1  0
 12 14  1  0
 12 15  1  0
 17 18  1  0
 19 20  1  0
 21 22  1  0
 23 24  1  0
 25 26  1  0
M  CHG  1   8   1
M  END
>  <PDB_ID>  (1382) 
pdb3abh

>  <RESIDUE_NAME>  (1382) 
LYS   PHE

>  <FRAG_NAME>  (1382) 
ETAM   MBZ

>  <FRAG_ATOM_NUM>  (1382) 
fragi: 11  fragj: 15

>  <atom.prop.CHAIN_ID>  (1382) 
A A A A A A A A A A A Z Z Z Z Z Z Z Z Z Z Z Z Z Z Z

>  <atom.prop.IS_HEAVY_ATOM>  (1382) 
1 0 0 0 1 0 0 1 0 0 0 1 0 0 0 1 1 0 1 0 1 0 1 0 1 0

>  <DIFUSE_FUNC_ATOM>  (1382) 
n/a

>  <FINAL_SINGLE_POINT_ENERGY>  (1382) 
0

>  <NONCOV_INTER_ENERGY_QM>  (1382) 
0

>  <FF_Energy>  (1382) 
0.39

>  <QM_Energy>  (1382) 
-7.72

>  <source>  (1382) 
ETAM_MBZ

>  <Index>  (1382) 
13896

$$$$
ETAM-pdb1wkm-C-MET-1:MBZ-pdb1wkm-C-PHE-90
     RDKit          3D

 26 25  0  0  0  0  0  0  0  0999 V2000
   -1.8151   -4.6792    1.4891 C   0  0  0  0  0  0  0  0  0  0  0  0
   -1.2198   -5.4021    1.1316 H   0  0  0  0  0  0  0  0  0  0  0  0
   -2.3196   -5.0326    2.2807 H   0  0  0  0  0  0  0  0  0  0  0  0
   -2.5344   -4.4124    0.7149 H   0  0  0  0  0  0  0  0  0  0  0  0
   -0.9490   -3.4932    1.9370 C   0  0  0  0  0  0  0  0  0  0  0  0
   -1.0010   -2.8736    1.1400 H   0  0  0  0  0  0  0  0  0  0  0  0
   -1.2848   -2.9709    2.8329 H   0  0  0  0  0  0  0  0  0  0  0  0
    0.4761   -3.9151    2.0524 N   0  0  0  0  0  4  0  0  0  0  0  0
    0.5645   -4.8575    1.7399 H   0  0  0  0  0  0  0  0  0  0  0  0
    1.0407   -3.3173    1.4881 H   0  0  0  0  0  0  0  0  0  0  0  0
    0.7608   -3.8475    3.0048 H   0  0  0  0  0  0  0  0  0  0  0  0
   -0.0075    2.9251   -0.0271 C   0  0  0  0  0  0  0  0  0  0  0  0
    0.8651    3.2268    0.2769 H   0  0  0  0  0  0  0  0  0  0  0  0
   -0.7488    3.2239    0.5263 H   0  0  0  0  0  0  0  0  0  0  0  0
   -0.1653    3.2801   -1.0456 H   0  0  0  0  0  0  0  0  0  0  0  0
   -0.0004    1.3986   -0.0000 C   0  0  0  0  0  0  0  0  0  0  0  0
   -1.2121    0.6992   -0.0008 C   0  0  0  0  0  0  0  0  0  0  0  0
   -2.0692    1.1881   -0.0031 H   0  0  0  0  0  0  0  0  0  0  0  0
   -1.2125   -0.7006    0.0000 C   0  0  0  0  0  0  0  0  0  0  0  0
   -2.0844   -1.1958    0.0014 H   0  0  0  0  0  0  0  0  0  0  0  0
    0.0001   -1.3991    0.0000 C   0  0  0  0  0  0  0  0  0  0  0  0
   -0.0026   -2.3955   -0.0003 H   0  0  0  0  0  0  0  0  0  0  0  0
    1.2125   -0.6987   -0.0000 C   0  0  0  0  0  0  0  0  0  0  0  0
    2.0899   -1.1982    0.0011 H   0  0  0  0  0  0  0  0  0  0  0  0
    1.2124    0.7006    0.0008 C   0  0  0  0  0  0  0  0  0  0  0  0
    2.0699    1.1969    0.0012 H   0  0  0  0  0  0  0  0  0  0  0  0
  1  5  1  0
  5  8  1  0
  1  2  1  0
  1  3  1  0
  1  4  1  0
  5  6  1  0
  5  7  1  0
  8  9  1  0
  8 10  1  0
  8 11  1  0
 12 16  1  0
 16 17  2  0
 17 19  1  0
 19 21  2  0
 21 23  1  0
 23 25  2  0
 25 16  1  0
 12 13  1  0
 12 14  1  0
 12 15  1  0
 17 18  1  0
 19 20  1  0
 21 22  1  0
 23 24  1  0
 25 26  1  0
M  CHG  1   8   1
M  END
>  <PDB_ID>  (1383) 
pdb1wkm

>  <RESIDUE_NAME>  (1383) 
MET   PHE

>  <FRAG_NAME>  (1383) 
ETAM   MBZ

>  <FRAG_ATOM_NUM>  (1383) 
fragi: 11  fragj: 15

>  <atom.prop.CHAIN_ID>  (1383) 
A A A A A A A A A A A Z Z Z Z Z Z Z Z Z Z Z Z Z Z Z

>  <atom.prop.IS_HEAVY_ATOM>  (1383) 
1 0 0 0 1 0 0 1 0 0 0 1 0 0 0 1 1 0 1 0 1 0 1 0 1 0

>  <DIFUSE_FUNC_ATOM>  (1383) 
n/a

>  <FINAL_SINGLE_POINT_ENERGY>  (1383) 
0

>  <NONCOV_INTER_ENERGY_QM>  (1383) 
0

>  <FF_Energy>  (1383) 
30.82

>  <QM_Energy>  (1383) 
-0.35

>  <source>  (1383) 
ETAM_MBZ

>  <Index>  (1383) 
13906

$$$$
ETAM-pdb1wkm-D-MET-1:MBZ-pdb1wkm-D-PHE-90
     RDKit          3D

 26 25  0  0  0  0  0  0  0  0999 V2000
   -2.9460   -3.9555    2.1519 C   0  0  0  0  0  0  0  0  0  0  0  0
   -2.7346   -4.8180    1.6861 H   0  0  0  0  0  0  0  0  0  0  0  0
   -3.1511   -4.1453    3.1151 H   0  0  0  0  0  0  0  0  0  0  0  0
   -3.8341   -3.5244    1.6898 H   0  0  0  0  0  0  0  0  0  0  0  0
   -1.7181   -3.0322    2.0757 C   0  0  0  0  0  0  0  0  0  0  0  0
   -1.7915   -2.3685    1.3213 H   0  0  0  0  0  0  0  0  0  0  0  0
   -1.6442   -2.5007    3.0245 H   0  0  0  0  0  0  0  0  0  0  0  0
   -0.4876   -3.8363    1.8200 N   0  0  0  0  0  4  0  0  0  0  0  0
   -0.3500   -4.4712    2.5757 H   0  0  0  0  0  0  0  0  0  0  0  0
   -0.5998   -4.3431    0.9689 H   0  0  0  0  0  0  0  0  0  0  0  0
    0.2939   -3.2219    1.7479 H   0  0  0  0  0  0  0  0  0  0  0  0
   -0.0047    2.9267   -0.0293 C   0  0  0  0  0  0  0  0  0  0  0  0
    0.8692    3.2269    0.2733 H   0  0  0  0  0  0  0  0  0  0  0  0
   -0.7448    3.2268    0.5261 H   0  0  0  0  0  0  0  0  0  0  0  0
   -0.1641    3.2835   -1.0469 H   0  0  0  0  0  0  0  0  0  0  0  0
   -0.0000    1.3992   -0.0003 C   0  0  0  0  0  0  0  0  0  0  0  0
   -1.2124    0.6997   -0.0000 C   0  0  0  0  0  0  0  0  0  0  0  0
   -2.0689    1.1887   -0.0008 H   0  0  0  0  0  0  0  0  0  0  0  0
   -1.2124   -0.7002   -0.0000 C   0  0  0  0  0  0  0  0  0  0  0  0
   -2.0850   -1.1961    0.0029 H   0  0  0  0  0  0  0  0  0  0  0  0
    0.0000   -1.3991   -0.0022 C   0  0  0  0  0  0  0  0  0  0  0  0
   -0.0034   -2.3961   -0.0057 H   0  0  0  0  0  0  0  0  0  0  0  0
    1.2124   -0.6997    0.0000 C   0  0  0  0  0  0  0  0  0  0  0  0
    2.0893   -1.1989    0.0015 H   0  0  0  0  0  0  0  0  0  0  0  0
    1.2124    0.7000    0.0024 C   0  0  0  0  0  0  0  0  0  0  0  0
    2.0709    1.1959    0.0050 H   0  0  0  0  0  0  0  0  0  0  0  0
  1  5  1  0
  5  8  1  0
  1  2  1  0
  1  3  1  0
  1  4  1  0
  5  6  1  0
  5  7  1  0
  8  9  1  0
  8 10  1  0
  8 11  1  0
 12 16  1  0
 16 17  2  0
 17 19  1  0
 19 21  2  0
 21 23  1  0
 23 25  2  0
 25 16  1  0
 12 13  1  0
 12 14  1  0
 12 15  1  0
 17 18  1  0
 19 20  1  0
 21 22  1  0
 23 24  1  0
 25 26  1  0
M  CHG  1   8   1
M  END
>  <PDB_ID>  (1384) 
pdb1wkm

>  <RESIDUE_NAME>  (1384) 
MET   PHE

>  <FRAG_NAME>  (1384) 
ETAM   MBZ

>  <FRAG_ATOM_NUM>  (1384) 
fragi: 11  fragj: 15

>  <atom.prop.CHAIN_ID>  (1384) 
A A A A A A A A A A A Z Z Z Z Z Z Z Z Z Z Z Z Z Z Z

>  <atom.prop.IS_HEAVY_ATOM>  (1384) 
1 0 0 0 1 0 0 1 0 0 0 1 0 0 0 1 1 0 1 0 1 0 1 0 1 0

>  <DIFUSE_FUNC_ATOM>  (1384) 
n/a

>  <FINAL_SINGLE_POINT_ENERGY>  (1384) 
0

>  <NONCOV_INTER_ENERGY_QM>  (1384) 
0

>  <FF_Energy>  (1384) 
14.61

>  <QM_Energy>  (1384) 
-2.44

>  <source>  (1384) 
ETAM_MBZ

>  <Index>  (1384) 
13908

$$$$
ETAM-pdb3ahy-A-LYS-380:MBZ-pdb3ahy-A-PHE-447
     RDKit          3D

 26 25  0  0  0  0  0  0  0  0999 V2000
   -1.0227   -0.6300    4.3856 C   0  0  0  0  0  0  0  0  0  0  0  0
   -1.7181   -1.1090    4.9123 H   0  0  0  0  0  0  0  0  0  0  0  0
   -1.4232   -0.2297    3.5680 H   0  0  0  0  0  0  0  0  0  0  0  0
   -0.6053    0.1680    4.9996 H   0  0  0  0  0  0  0  0  0  0  0  0
    0.0437   -1.6275    3.9659 C   0  0  0  0  0  0  0  0  0  0  0  0
    0.5367   -1.9365    4.7717 H   0  0  0  0  0  0  0  0  0  0  0  0
   -0.3905   -2.3963    3.5092 H   0  0  0  0  0  0  0  0  0  0  0  0
    0.9980   -0.9715    3.0265 N   0  0  0  0  0  4  0  0  0  0  0  0
    1.9300   -1.2533    3.2517 H   0  0  0  0  0  0  0  0  0  0  0  0
    0.7814   -1.2466    2.0906 H   0  0  0  0  0  0  0  0  0  0  0  0
    0.9171    0.0202    3.1125 H   0  0  0  0  0  0  0  0  0  0  0  0
   -0.0202    2.8998    0.0447 C   0  0  0  0  0  0  0  0  0  0  0  0
    0.7080    3.1929    0.6533 H   0  0  0  0  0  0  0  0  0  0  0  0
   -0.9047    3.1808    0.3988 H   0  0  0  0  0  0  0  0  0  0  0  0
    0.1269    3.4024   -0.9113 H   0  0  0  0  0  0  0  0  0  0  0  0
    0.0006    1.3993   -0.0159 C   0  0  0  0  0  0  0  0  0  0  0  0
   -1.1926    0.6919   -0.0010 C   0  0  0  0  0  0  0  0  0  0  0  0
   -2.0608    1.1848    0.0083 H   0  0  0  0  0  0  0  0  0  0  0  0
   -1.2024   -0.6964   -0.0000 C   0  0  0  0  0  0  0  0  0  0  0  0
   -2.0814   -1.1870    0.0024 H   0  0  0  0  0  0  0  0  0  0  0  0
   -0.0056   -1.3942    0.0000 C   0  0  0  0  0  0  0  0  0  0  0  0
   -0.0073   -2.3917   -0.0006 H   0  0  0  0  0  0  0  0  0  0  0  0
    1.2024   -0.6969   -0.0000 C   0  0  0  0  0  0  0  0  0  0  0  0
    2.0804   -1.1959   -0.0105 H   0  0  0  0  0  0  0  0  0  0  0  0
    1.1976    0.6963    0.0168 C   0  0  0  0  0  0  0  0  0  0  0  0
    2.0636    1.1912    0.0517 H   0  0  0  0  0  0  0  0  0  0  0  0
  1  5  1  0
  5  8  1  0
  1  2  1  0
  1  3  1  0
  1  4  1  0
  5  6  1  0
  5  7  1  0
  8  9  1  0
  8 10  1  0
  8 11  1  0
 12 16  1  0
 16 17  2  0
 17 19  1  0
 19 21  2  0
 21 23  1  0
 23 25  2  0
 25 16  1  0
 12 13  1  0
 12 14  1  0
 12 15  1  0
 17 18  1  0
 19 20  1  0
 21 22  1  0
 23 24  1  0
 25 26  1  0
M  CHG  1   8   1
M  END
>  <PDB_ID>  (1385) 
pdb3ahy

>  <RESIDUE_NAME>  (1385) 
LYS   PHE

>  <FRAG_NAME>  (1385) 
ETAM   MBZ

>  <FRAG_ATOM_NUM>  (1385) 
fragi: 11  fragj: 15

>  <atom.prop.CHAIN_ID>  (1385) 
A A A A A A A A A A A Z Z Z Z Z Z Z Z Z Z Z Z Z Z Z

>  <atom.prop.IS_HEAVY_ATOM>  (1385) 
1 0 0 0 1 0 0 1 0 0 0 1 0 0 0 1 1 0 1 0 1 0 1 0 1 0

>  <DIFUSE_FUNC_ATOM>  (1385) 
n/a

>  <FINAL_SINGLE_POINT_ENERGY>  (1385) 
0

>  <NONCOV_INTER_ENERGY_QM>  (1385) 
0

>  <FF_Energy>  (1385) 
-7.13

>  <QM_Energy>  (1385) 
-15.34

>  <source>  (1385) 
ETAM_MBZ

>  <Index>  (1385) 
13913

$$$$
ETAM-pdb1wlf-A-LYS-83:MBZ-pdb1wlf-A-PHE-154
     RDKit          3D

 26 25  0  0  0  0  0  0  0  0999 V2000
    3.9473   -1.3916   -3.9389 C   0  0  0  0  0  0  0  0  0  0  0  0
    4.6322   -0.7059   -4.1685 H   0  0  0  0  0  0  0  0  0  0  0  0
    3.9284   -2.1033   -4.6357 H   0  0  0  0  0  0  0  0  0  0  0  0
    4.2040   -1.8406   -2.9794 H   0  0  0  0  0  0  0  0  0  0  0  0
    2.5787   -0.7135   -3.9065 C   0  0  0  0  0  0  0  0  0  0  0  0
    2.6098    0.0415   -3.2413 H   0  0  0  0  0  0  0  0  0  0  0  0
    2.3901   -0.3257   -4.8161 H   0  0  0  0  0  0  0  0  0  0  0  0
    1.4817   -1.6480   -3.5358 N   0  0  0  0  0  4  0  0  0  0  0  0
    1.2992   -1.5731   -2.5564 H   0  0  0  0  0  0  0  0  0  0  0  0
    0.6570   -1.4111   -4.0486 H   0  0  0  0  0  0  0  0  0  0  0  0
    1.7552   -2.5846   -3.7551 H   0  0  0  0  0  0  0  0  0  0  0  0
    0.0100    2.9079    0.0027 C   0  0  0  0  0  0  0  0  0  0  0  0
   -0.8686    3.2196   -0.3294 H   0  0  0  0  0  0  0  0  0  0  0  0
    0.7441    3.2089   -0.5887 H   0  0  0  0  0  0  0  0  0  0  0  0
    0.1720    3.3453    0.9879 H   0  0  0  0  0  0  0  0  0  0  0  0
   -0.0004    1.4049   -0.0006 C   0  0  0  0  0  0  0  0  0  0  0  0
   -1.2008    0.7007    0.0020 C   0  0  0  0  0  0  0  0  0  0  0  0
   -2.0655    1.1877    0.0044 H   0  0  0  0  0  0  0  0  0  0  0  0
   -1.2059   -0.6990   -0.0000 C   0  0  0  0  0  0  0  0  0  0  0  0
   -2.0787   -1.1908    0.0001 H   0  0  0  0  0  0  0  0  0  0  0  0
    0.0035   -1.3973   -0.0001 C   0  0  0  0  0  0  0  0  0  0  0  0
   -0.0051   -2.3963   -0.0006 H   0  0  0  0  0  0  0  0  0  0  0  0
    1.2059   -0.7041    0.0000 C   0  0  0  0  0  0  0  0  0  0  0  0
    2.0864   -1.1964    0.0030 H   0  0  0  0  0  0  0  0  0  0  0  0
    1.1977    0.6949   -0.0013 C   0  0  0  0  0  0  0  0  0  0  0  0
    2.0668    1.1898   -0.0034 H   0  0  0  0  0  0  0  0  0  0  0  0
  1  5  1  0
  5  8  1  0
  1  2  1  0
  1  3  1  0
  1  4  1  0
  5  6  1  0
  5  7  1  0
  8  9  1  0
  8 10  1  0
  8 11  1  0
 12 16  1  0
 16 17  2  0
 17 19  1  0
 19 21  2  0
 21 23  1  0
 23 25  2  0
 25 16  1  0
 12 13  1  0
 12 14  1  0
 12 15  1  0
 17 18  1  0
 19 20  1  0
 21 22  1  0
 23 24  1  0
 25 26  1  0
M  CHG  1   8   1
M  END
>  <PDB_ID>  (1386) 
pdb1wlf

>  <RESIDUE_NAME>  (1386) 
LYS   PHE

>  <FRAG_NAME>  (1386) 
ETAM   MBZ

>  <FRAG_ATOM_NUM>  (1386) 
fragi: 11  fragj: 15

>  <atom.prop.CHAIN_ID>  (1386) 
A A A A A A A A A A A Z Z Z Z Z Z Z Z Z Z Z Z Z Z Z

>  <atom.prop.IS_HEAVY_ATOM>  (1386) 
1 0 0 0 1 0 0 1 0 0 0 1 0 0 0 1 1 0 1 0 1 0 1 0 1 0

>  <DIFUSE_FUNC_ATOM>  (1386) 
n/a

>  <FINAL_SINGLE_POINT_ENERGY>  (1386) 
0

>  <NONCOV_INTER_ENERGY_QM>  (1386) 
0

>  <FF_Energy>  (1386) 
-4.58

>  <QM_Energy>  (1386) 
-10.83

>  <source>  (1386) 
ETAM_MBZ

>  <Index>  (1386) 
13932

$$$$
ETAM-pdb3aik-B-LYS-165:MBZ-pdb3aik-B-PHE-220
     RDKit          3D

 26 25  0  0  0  0  0  0  0  0999 V2000
   -0.5627   -4.4603   -3.5666 C   0  0  0  0  0  0  0  0  0  0  0  0
   -0.7275   -4.5289   -2.5898 H   0  0  0  0  0  0  0  0  0  0  0  0
    0.2381   -4.9879   -3.8246 H   0  0  0  0  0  0  0  0  0  0  0  0
   -1.4301   -4.8509   -4.0987 H   0  0  0  0  0  0  0  0  0  0  0  0
   -0.3196   -3.0040   -3.9179 C   0  0  0  0  0  0  0  0  0  0  0  0
   -0.4680   -2.8767   -4.8997 H   0  0  0  0  0  0  0  0  0  0  0  0
   -0.9649   -2.4338   -3.4084 H   0  0  0  0  0  0  0  0  0  0  0  0
    1.0678   -2.6002   -3.5755 N   0  0  0  0  0  4  0  0  0  0  0  0
    1.7031   -3.3198   -3.8564 H   0  0  0  0  0  0  0  0  0  0  0  0
    1.2948   -1.7502   -4.0515 H   0  0  0  0  0  0  0  0  0  0  0  0
    1.1394   -2.4590   -2.5881 H   0  0  0  0  0  0  0  0  0  0  0  0
   -0.0010    2.9168    0.0022 C   0  0  0  0  0  0  0  0  0  0  0  0
   -0.8169    3.2194   -0.4663 H   0  0  0  0  0  0  0  0  0  0  0  0
    0.8166    3.2205   -0.4619 H   0  0  0  0  0  0  0  0  0  0  0  0
   -0.0033    3.3550    1.0002 H   0  0  0  0  0  0  0  0  0  0  0  0
    0.0001    1.4050   -0.0021 C   0  0  0  0  0  0  0  0  0  0  0  0
   -1.2019    0.6937   -0.0050 C   0  0  0  0  0  0  0  0  0  0  0  0
   -2.0660    1.1859   -0.0117 H   0  0  0  0  0  0  0  0  0  0  0  0
   -1.2072   -0.6977    0.0000 C   0  0  0  0  0  0  0  0  0  0  0  0
   -2.0808   -1.1923   -0.0237 H   0  0  0  0  0  0  0  0  0  0  0  0
   -0.0016   -1.3970    0.0397 C   0  0  0  0  0  0  0  0  0  0  0  0
   -0.0046   -2.3909    0.0958 H   0  0  0  0  0  0  0  0  0  0  0  0
    1.2072   -0.6970   -0.0000 C   0  0  0  0  0  0  0  0  0  0  0  0
    2.0848   -1.1984   -0.0038 H   0  0  0  0  0  0  0  0  0  0  0  0
    1.2033    0.6930   -0.0326 C   0  0  0  0  0  0  0  0  0  0  0  0
    2.0666    1.1910   -0.0789 H   0  0  0  0  0  0  0  0  0  0  0  0
  1  5  1  0
  5  8  1  0
  1  2  1  0
  1  3  1  0
  1  4  1  0
  5  6  1  0
  5  7  1  0
  8  9  1  0
  8 10  1  0
  8 11  1  0
 12 16  1  0
 16 17  2  0
 17 19  1  0
 19 21  2  0
 21 23  1  0
 23 25  2  0
 25 16  1  0
 12 13  1  0
 12 14  1  0
 12 15  1  0
 17 18  1  0
 19 20  1  0
 21 22  1  0
 23 24  1  0
 25 26  1  0
M  CHG  1   8   1
M  END
>  <PDB_ID>  (1387) 
pdb3aik

>  <RESIDUE_NAME>  (1387) 
LYS   PHE

>  <FRAG_NAME>  (1387) 
ETAM   MBZ

>  <FRAG_ATOM_NUM>  (1387) 
fragi: 11  fragj: 15

>  <atom.prop.CHAIN_ID>  (1387) 
A A A A A A A A A A A Z Z Z Z Z Z Z Z Z Z Z Z Z Z Z

>  <atom.prop.IS_HEAVY_ATOM>  (1387) 
1 0 0 0 1 0 0 1 0 0 0 1 0 0 0 1 1 0 1 0 1 0 1 0 1 0

>  <DIFUSE_FUNC_ATOM>  (1387) 
n/a

>  <FINAL_SINGLE_POINT_ENERGY>  (1387) 
0

>  <NONCOV_INTER_ENERGY_QM>  (1387) 
0

>  <FF_Energy>  (1387) 
-3.15

>  <QM_Energy>  (1387) 
-8.36

>  <source>  (1387) 
ETAM_MBZ

>  <Index>  (1387) 
13935

$$$$
ETAM-pdb3afc-B-LYS-112:MBZ-pdb3afc-B-PHE-140
     RDKit          3D

 26 25  0  0  0  0  0  0  0  0999 V2000
   -0.2070   -1.4307    3.7231 C   0  0  0  0  0  0  0  0  0  0  0  0
    0.2316   -1.8247    2.9228 H   0  0  0  0  0  0  0  0  0  0  0  0
   -0.0834   -2.0223    4.5124 H   0  0  0  0  0  0  0  0  0  0  0  0
    0.2518   -0.4645    3.9332 H   0  0  0  0  0  0  0  0  0  0  0  0
   -1.6895   -1.2886    3.4469 C   0  0  0  0  0  0  0  0  0  0  0  0
   -2.1738   -1.1589    4.3146 H   0  0  0  0  0  0  0  0  0  0  0  0
   -1.8397   -0.4858    2.8659 H   0  0  0  0  0  0  0  0  0  0  0  0
   -2.2337   -2.4940    2.7606 N   0  0  0  0  0  4  0  0  0  0  0  0
   -3.2248   -2.5249    2.8833 H   0  0  0  0  0  0  0  0  0  0  0  0
   -2.0178   -2.4455    1.7858 H   0  0  0  0  0  0  0  0  0  0  0  0
   -1.8211   -3.3139    3.1555 H   0  0  0  0  0  0  0  0  0  0  0  0
   -0.0072    2.9039   -0.0314 C   0  0  0  0  0  0  0  0  0  0  0  0
    0.6261    3.2290    0.6487 H   0  0  0  0  0  0  0  0  0  0  0  0
   -0.9269    3.2090    0.1424 H   0  0  0  0  0  0  0  0  0  0  0  0
    0.3014    3.3097   -0.9948 H   0  0  0  0  0  0  0  0  0  0  0  0
    0.0006    1.3966    0.0045 C   0  0  0  0  0  0  0  0  0  0  0  0
   -1.1945    0.6845   -0.0088 C   0  0  0  0  0  0  0  0  0  0  0  0
   -2.0615    1.1818   -0.0267 H   0  0  0  0  0  0  0  0  0  0  0  0
   -1.2018   -0.6925    0.0000 C   0  0  0  0  0  0  0  0  0  0  0  0
   -2.0805   -1.1890    0.0069 H   0  0  0  0  0  0  0  0  0  0  0  0
   -0.0073   -1.3861    0.0020 C   0  0  0  0  0  0  0  0  0  0  0  0
   -0.0084   -2.3875    0.0041 H   0  0  0  0  0  0  0  0  0  0  0  0
    1.2018   -0.6945    0.0000 C   0  0  0  0  0  0  0  0  0  0  0  0
    2.0778   -1.1986   -0.0014 H   0  0  0  0  0  0  0  0  0  0  0  0
    1.2011    0.6920    0.0024 C   0  0  0  0  0  0  0  0  0  0  0  0
    2.0656    1.1898    0.0017 H   0  0  0  0  0  0  0  0  0  0  0  0
  1  5  1  0
  5  8  1  0
  1  2  1  0
  1  3  1  0
  1  4  1  0
  5  6  1  0
  5  7  1  0
  8  9  1  0
  8 10  1  0
  8 11  1  0
 12 16  1  0
 16 17  2  0
 17 19  1  0
 19 21  2  0
 21 23  1  0
 23 25  2  0
 25 16  1  0
 12 13  1  0
 12 14  1  0
 12 15  1  0
 17 18  1  0
 19 20  1  0
 21 22  1  0
 23 24  1  0
 25 26  1  0
M  CHG  1   8   1
M  END
>  <PDB_ID>  (1388) 
pdb3afc

>  <RESIDUE_NAME>  (1388) 
LYS   PHE

>  <FRAG_NAME>  (1388) 
ETAM   MBZ

>  <FRAG_ATOM_NUM>  (1388) 
fragi: 11  fragj: 15

>  <atom.prop.CHAIN_ID>  (1388) 
A A A A A A A A A A A Z Z Z Z Z Z Z Z Z Z Z Z Z Z Z

>  <atom.prop.IS_HEAVY_ATOM>  (1388) 
1 0 0 0 1 0 0 1 0 0 0 1 0 0 0 1 1 0 1 0 1 0 1 0 1 0

>  <DIFUSE_FUNC_ATOM>  (1388) 
n/a

>  <FINAL_SINGLE_POINT_ENERGY>  (1388) 
0

>  <NONCOV_INTER_ENERGY_QM>  (1388) 
0

>  <FF_Energy>  (1388) 
-3.14

>  <QM_Energy>  (1388) 
-9.74

>  <source>  (1388) 
ETAM_MBZ

>  <Index>  (1388) 
13936

$$$$
ETAM-pdb3aik-D-LYS-165:MBZ-pdb3aik-D-PHE-220
     RDKit          3D

 26 25  0  0  0  0  0  0  0  0999 V2000
   -0.3549   -4.1654   -3.7500 C   0  0  0  0  0  0  0  0  0  0  0  0
   -0.4190   -3.9955   -2.7738 H   0  0  0  0  0  0  0  0  0  0  0  0
    0.4105   -4.7628   -3.9535 H   0  0  0  0  0  0  0  0  0  0  0  0
   -1.2764   -4.6386   -4.0893 H   0  0  0  0  0  0  0  0  0  0  0  0
   -0.1355   -2.8377   -4.4592 C   0  0  0  0  0  0  0  0  0  0  0  0
    0.6249   -2.9374   -5.1076 H   0  0  0  0  0  0  0  0  0  0  0  0
   -0.9670   -2.6002   -4.9686 H   0  0  0  0  0  0  0  0  0  0  0  0
    0.1799   -1.7417   -3.5013 N   0  0  0  0  0  4  0  0  0  0  0  0
    0.9464   -2.0185   -2.9223 H   0  0  0  0  0  0  0  0  0  0  0  0
    0.4251   -0.9175   -4.0111 H   0  0  0  0  0  0  0  0  0  0  0  0
   -0.6209   -1.5581   -2.9323 H   0  0  0  0  0  0  0  0  0  0  0  0
    0.0046    2.9172    0.0543 C   0  0  0  0  0  0  0  0  0  0  0  0
   -0.7787    3.2318   -0.4567 H   0  0  0  0  0  0  0  0  0  0  0  0
    0.8505    3.2274   -0.3491 H   0  0  0  0  0  0  0  0  0  0  0  0
   -0.0601    3.3404    1.0567 H   0  0  0  0  0  0  0  0  0  0  0  0
    0.0019    1.4067    0.0287 C   0  0  0  0  0  0  0  0  0  0  0  0
   -1.1999    0.6978    0.0000 C   0  0  0  0  0  0  0  0  0  0  0  0
   -2.0639    1.1865   -0.0221 H   0  0  0  0  0  0  0  0  0  0  0  0
   -1.2072   -0.7022   -0.0000 C   0  0  0  0  0  0  0  0  0  0  0  0
   -2.0820   -1.1915    0.0275 H   0  0  0  0  0  0  0  0  0  0  0  0
   -0.0029   -1.3998   -0.0356 C   0  0  0  0  0  0  0  0  0  0  0  0
   -0.0036   -2.3947   -0.0871 H   0  0  0  0  0  0  0  0  0  0  0  0
    1.2072   -0.6991   -0.0000 C   0  0  0  0  0  0  0  0  0  0  0  0
    2.0839   -1.1973    0.0220 H   0  0  0  0  0  0  0  0  0  0  0  0
    1.2009    0.6967    0.0068 C   0  0  0  0  0  0  0  0  0  0  0  0
    2.0685    1.1922   -0.0049 H   0  0  0  0  0  0  0  0  0  0  0  0
  1  5  1  0
  5  8  1  0
  1  2  1  0
  1  3  1  0
  1  4  1  0
  5  6  1  0
  5  7  1  0
  8  9  1  0
  8 10  1  0
  8 11  1  0
 12 16  1  0
 16 17  2  0
 17 19  1  0
 19 21  2  0
 21 23  1  0
 23 25  2  0
 25 16  1  0
 12 13  1  0
 12 14  1  0
 12 15  1  0
 17 18  1  0
 19 20  1  0
 21 22  1  0
 23 24  1  0
 25 26  1  0
M  CHG  1   8   1
M  END
>  <PDB_ID>  (1389) 
pdb3aik

>  <RESIDUE_NAME>  (1389) 
LYS   PHE

>  <FRAG_NAME>  (1389) 
ETAM   MBZ

>  <FRAG_ATOM_NUM>  (1389) 
fragi: 11  fragj: 15

>  <atom.prop.CHAIN_ID>  (1389) 
A A A A A A A A A A A Z Z Z Z Z Z Z Z Z Z Z Z Z Z Z

>  <atom.prop.IS_HEAVY_ATOM>  (1389) 
1 0 0 0 1 0 0 1 0 0 0 1 0 0 0 1 1 0 1 0 1 0 1 0 1 0

>  <DIFUSE_FUNC_ATOM>  (1389) 
n/a

>  <FINAL_SINGLE_POINT_ENERGY>  (1389) 
0

>  <NONCOV_INTER_ENERGY_QM>  (1389) 
0

>  <FF_Energy>  (1389) 
-5.0

>  <QM_Energy>  (1389) 
-10.88

>  <source>  (1389) 
ETAM_MBZ

>  <Index>  (1389) 
13937

$$$$
ETAM-pdb1wmd-A-LYS-346:MBZ-pdb1wmd-A-PHE-403
     RDKit          3D

 26 25  0  0  0  0  0  0  0  0999 V2000
    0.9423    0.8520   -4.2186 C   0  0  0  0  0  0  0  0  0  0  0  0
    0.2295    1.3987   -4.6596 H   0  0  0  0  0  0  0  0  0  0  0  0
    1.4543    0.3500   -4.9172 H   0  0  0  0  0  0  0  0  0  0  0  0
    1.6264    1.5252   -3.7019 H   0  0  0  0  0  0  0  0  0  0  0  0
    0.2857   -0.1440   -3.2896 C   0  0  0  0  0  0  0  0  0  0  0  0
    0.9954   -0.7158   -2.8728 H   0  0  0  0  0  0  0  0  0  0  0  0
   -0.1988    0.3552   -2.5685 H   0  0  0  0  0  0  0  0  0  0  0  0
   -0.6631   -0.9928   -4.0247 N   0  0  0  0  0  4  0  0  0  0  0  0
   -1.1411   -0.4483   -4.7175 H   0  0  0  0  0  0  0  0  0  0  0  0
   -0.1711   -1.7407   -4.4767 H   0  0  0  0  0  0  0  0  0  0  0  0
   -1.3364   -1.3799   -3.3907 H   0  0  0  0  0  0  0  0  0  0  0  0
   -0.0946    2.9283    0.0152 C   0  0  0  0  0  0  0  0  0  0  0  0
   -0.8591    3.1757    0.6197 H   0  0  0  0  0  0  0  0  0  0  0  0
   -0.3204    3.2144   -0.9214 H   0  0  0  0  0  0  0  0  0  0  0  0
    0.7816    3.4924    0.3349 H   0  0  0  0  0  0  0  0  0  0  0  0
   -0.0043    1.4093    0.0089 C   0  0  0  0  0  0  0  0  0  0  0  0
   -1.1942    0.6873   -0.0098 C   0  0  0  0  0  0  0  0  0  0  0  0
   -2.0674    1.1738   -0.0317 H   0  0  0  0  0  0  0  0  0  0  0  0
   -1.2046   -0.7108   -0.0000 C   0  0  0  0  0  0  0  0  0  0  0  0
   -2.0731   -1.2018    0.0242 H   0  0  0  0  0  0  0  0  0  0  0  0
    0.0079   -1.3977   -0.0230 C   0  0  0  0  0  0  0  0  0  0  0  0
    0.0119   -2.3944   -0.0565 H   0  0  0  0  0  0  0  0  0  0  0  0
    1.2046   -0.6893    0.0000 C   0  0  0  0  0  0  0  0  0  0  0  0
    2.0893   -1.1813    0.0013 H   0  0  0  0  0  0  0  0  0  0  0  0
    1.1906    0.7012    0.0239 C   0  0  0  0  0  0  0  0  0  0  0  0
    2.0597    1.2014    0.0520 H   0  0  0  0  0  0  0  0  0  0  0  0
  1  5  1  0
  5  8  1  0
  1  2  1  0
  1  3  1  0
  1  4  1  0
  5  6  1  0
  5  7  1  0
  8  9  1  0
  8 10  1  0
  8 11  1  0
 12 16  1  0
 16 17  2  0
 17 19  1  0
 19 21  2  0
 21 23  1  0
 23 25  2  0
 25 16  1  0
 12 13  1  0
 12 14  1  0
 12 15  1  0
 17 18  1  0
 19 20  1  0
 21 22  1  0
 23 24  1  0
 25 26  1  0
M  CHG  1   8   1
M  END
>  <PDB_ID>  (1390) 
pdb1wmd

>  <RESIDUE_NAME>  (1390) 
LYS   PHE

>  <FRAG_NAME>  (1390) 
ETAM   MBZ

>  <FRAG_ATOM_NUM>  (1390) 
fragi: 11  fragj: 15

>  <atom.prop.CHAIN_ID>  (1390) 
A A A A A A A A A A A Z Z Z Z Z Z Z Z Z Z Z Z Z Z Z

>  <atom.prop.IS_HEAVY_ATOM>  (1390) 
1 0 0 0 1 0 0 1 0 0 0 1 0 0 0 1 1 0 1 0 1 0 1 0 1 0

>  <DIFUSE_FUNC_ATOM>  (1390) 
n/a

>  <FINAL_SINGLE_POINT_ENERGY>  (1390) 
0

>  <NONCOV_INTER_ENERGY_QM>  (1390) 
0

>  <FF_Energy>  (1390) 
-5.87

>  <QM_Energy>  (1390) 
-10.94

>  <source>  (1390) 
ETAM_MBZ

>  <Index>  (1390) 
13949

$$$$
ETAM-pdb3ak4-A-LYS-76:MBZ-pdb3ak4-A-PHE-58
     RDKit          3D

 26 25  0  0  0  0  0  0  0  0999 V2000
    2.3982   -4.5307    0.3023 C   0  0  0  0  0  0  0  0  0  0  0  0
    2.9242   -5.3514    0.4748 H   0  0  0  0  0  0  0  0  0  0  0  0
    2.6267   -3.8174    0.9490 H   0  0  0  0  0  0  0  0  0  0  0  0
    2.6187   -4.1774   -0.7050 H   0  0  0  0  0  0  0  0  0  0  0  0
    0.8882   -4.8777    0.4816 C   0  0  0  0  0  0  0  0  0  0  0  0
    0.3727   -4.4118   -0.2380 H   0  0  0  0  0  0  0  0  0  0  0  0
    0.7801   -5.8666    0.3806 H   0  0  0  0  0  0  0  0  0  0  0  0
    0.3521   -4.4549    1.8297 N   0  0  0  0  0  4  0  0  0  0  0  0
    0.1228   -3.4864    1.7935 H   0  0  0  0  0  0  0  0  0  0  0  0
   -0.4605   -4.9929    2.0346 H   0  0  0  0  0  0  0  0  0  0  0  0
    1.0532   -4.6167    2.5175 H   0  0  0  0  0  0  0  0  0  0  0  0
    0.0011    2.9079   -0.0063 C   0  0  0  0  0  0  0  0  0  0  0  0
   -0.4965    3.2146   -0.8072 H   0  0  0  0  0  0  0  0  0  0  0  0
    0.9406    3.2228   -0.0318 H   0  0  0  0  0  0  0  0  0  0  0  0
   -0.4708    3.3633    0.8643 H   0  0  0  0  0  0  0  0  0  0  0  0
    0.0031    1.4192    0.0069 C   0  0  0  0  0  0  0  0  0  0  0  0
   -1.2002    0.6951   -0.0079 C   0  0  0  0  0  0  0  0  0  0  0  0
   -2.0670    1.1786   -0.0255 H   0  0  0  0  0  0  0  0  0  0  0  0
   -1.2057   -0.7158   -0.0000 C   0  0  0  0  0  0  0  0  0  0  0  0
   -2.0851   -1.1986    0.0083 H   0  0  0  0  0  0  0  0  0  0  0  0
   -0.0070   -1.4086   -0.0021 C   0  0  0  0  0  0  0  0  0  0  0  0
   -0.0023   -2.4068   -0.0059 H   0  0  0  0  0  0  0  0  0  0  0  0
    1.2057   -0.7064   -0.0000 C   0  0  0  0  0  0  0  0  0  0  0  0
    2.0849   -1.1936    0.0005 H   0  0  0  0  0  0  0  0  0  0  0  0
    1.2042    0.7166    0.0031 C   0  0  0  0  0  0  0  0  0  0  0  0
    2.0720    1.1977    0.0019 H   0  0  0  0  0  0  0  0  0  0  0  0
  1  5  1  0
  5  8  1  0
  1  2  1  0
  1  3  1  0
  1  4  1  0
  5  6  1  0
  5  7  1  0
  8  9  1  0
  8 10  1  0
  8 11  1  0
 12 16  1  0
 16 17  2  0
 17 19  1  0
 19 21  2  0
 21 23  1  0
 23 25  2  0
 25 16  1  0
 12 13  1  0
 12 14  1  0
 12 15  1  0
 17 18  1  0
 19 20  1  0
 21 22  1  0
 23 24  1  0
 25 26  1  0
M  CHG  1   8   1
M  END
>  <PDB_ID>  (1391) 
pdb3ak4

>  <RESIDUE_NAME>  (1391) 
LYS   PHE

>  <FRAG_NAME>  (1391) 
ETAM   MBZ

>  <FRAG_ATOM_NUM>  (1391) 
fragi: 11  fragj: 15

>  <atom.prop.CHAIN_ID>  (1391) 
A A A A A A A A A A A Z Z Z Z Z Z Z Z Z Z Z Z Z Z Z

>  <atom.prop.IS_HEAVY_ATOM>  (1391) 
1 0 0 0 1 0 0 1 0 0 0 1 0 0 0 1 1 0 1 0 1 0 1 0 1 0

>  <DIFUSE_FUNC_ATOM>  (1391) 
n/a

>  <FINAL_SINGLE_POINT_ENERGY>  (1391) 
0

>  <NONCOV_INTER_ENERGY_QM>  (1391) 
0

>  <FF_Energy>  (1391) 
0.69

>  <QM_Energy>  (1391) 
-5.83

>  <source>  (1391) 
ETAM_MBZ

>  <Index>  (1391) 
13956

$$$$
ETAM-pdb3ak4-C-LYS-76:MBZ-pdb3ak4-C-PHE-58
     RDKit          3D

 26 25  0  0  0  0  0  0  0  0999 V2000
    2.9986   -5.5911    0.2961 C   0  0  0  0  0  0  0  0  0  0  0  0
    2.5337   -6.4648    0.2897 H   0  0  0  0  0  0  0  0  0  0  0  0
    3.7258   -5.5765    0.9667 H   0  0  0  0  0  0  0  0  0  0  0  0
    3.4270   -5.4149   -0.6906 H   0  0  0  0  0  0  0  0  0  0  0  0
    1.9575   -4.4929    0.6883 C   0  0  0  0  0  0  0  0  0  0  0  0
    1.9652   -4.3994    1.7012 H   0  0  0  0  0  0  0  0  0  0  0  0
    2.2782   -3.6049    0.3095 H   0  0  0  0  0  0  0  0  0  0  0  0
    0.5129   -4.7137    0.2371 N   0  0  0  0  0  4  0  0  0  0  0  0
    0.2440   -5.6335    0.4956 H   0  0  0  0  0  0  0  0  0  0  0  0
   -0.0600   -4.0409    0.6893 H   0  0  0  0  0  0  0  0  0  0  0  0
    0.4741   -4.6005   -0.7490 H   0  0  0  0  0  0  0  0  0  0  0  0
    0.0058    2.9447   -0.0023 C   0  0  0  0  0  0  0  0  0  0  0  0
   -0.5151    3.2405   -0.7905 H   0  0  0  0  0  0  0  0  0  0  0  0
    0.9477    3.2448   -0.0637 H   0  0  0  0  0  0  0  0  0  0  0  0
   -0.4327    3.4155    0.8776 H   0  0  0  0  0  0  0  0  0  0  0  0
    0.0018    1.4250    0.0140 C   0  0  0  0  0  0  0  0  0  0  0  0
   -1.2060    0.6988   -0.0068 C   0  0  0  0  0  0  0  0  0  0  0  0
   -2.0717    1.1832   -0.0281 H   0  0  0  0  0  0  0  0  0  0  0  0
   -1.2141   -0.7150   -0.0000 C   0  0  0  0  0  0  0  0  0  0  0  0
   -2.0882   -1.1989    0.0126 H   0  0  0  0  0  0  0  0  0  0  0  0
   -0.0035   -1.4174   -0.0087 C   0  0  0  0  0  0  0  0  0  0  0  0
   -0.0014   -2.4095   -0.0217 H   0  0  0  0  0  0  0  0  0  0  0  0
    1.2141   -0.7076   -0.0000 C   0  0  0  0  0  0  0  0  0  0  0  0
    2.0918   -1.1947    0.0069 H   0  0  0  0  0  0  0  0  0  0  0  0
    1.2077    0.7162    0.0015 C   0  0  0  0  0  0  0  0  0  0  0  0
    2.0738    1.2009   -0.0079 H   0  0  0  0  0  0  0  0  0  0  0  0
  1  5  1  0
  5  8  1  0
  1  2  1  0
  1  3  1  0
  1  4  1  0
  5  6  1  0
  5  7  1  0
  8  9  1  0
  8 10  1  0
  8 11  1  0
 12 16  1  0
 16 17  2  0
 17 19  1  0
 19 21  2  0
 21 23  1  0
 23 25  2  0
 25 16  1  0
 12 13  1  0
 12 14  1  0
 12 15  1  0
 17 18  1  0
 19 20  1  0
 21 22  1  0
 23 24  1  0
 25 26  1  0
M  CHG  1   8   1
M  END
>  <PDB_ID>  (1392) 
pdb3ak4

>  <RESIDUE_NAME>  (1392) 
LYS   PHE

>  <FRAG_NAME>  (1392) 
ETAM   MBZ

>  <FRAG_ATOM_NUM>  (1392) 
fragi: 11  fragj: 15

>  <atom.prop.CHAIN_ID>  (1392) 
A A A A A A A A A A A Z Z Z Z Z Z Z Z Z Z Z Z Z Z Z

>  <atom.prop.IS_HEAVY_ATOM>  (1392) 
1 0 0 0 1 0 0 1 0 0 0 1 0 0 0 1 1 0 1 0 1 0 1 0 1 0

>  <DIFUSE_FUNC_ATOM>  (1392) 
n/a

>  <FINAL_SINGLE_POINT_ENERGY>  (1392) 
0

>  <NONCOV_INTER_ENERGY_QM>  (1392) 
0

>  <FF_Energy>  (1392) 
3.66

>  <QM_Energy>  (1392) 
-2.76

>  <source>  (1392) 
ETAM_MBZ

>  <Index>  (1392) 
13957

$$$$
ETAM-pdb3ale-C-LYS-65:MBZ-pdb3ale-C-PHE-216
     RDKit          3D

 26 25  0  0  0  0  0  0  0  0999 V2000
   -1.0066   -0.9187    3.8188 C   0  0  0  0  0  0  0  0  0  0  0  0
   -0.9760   -1.9062    3.9063 H   0  0  0  0  0  0  0  0  0  0  0  0
   -1.4732   -0.6535    2.9849 H   0  0  0  0  0  0  0  0  0  0  0  0
   -1.5421   -0.5040    4.6729 H   0  0  0  0  0  0  0  0  0  0  0  0
    0.4249   -0.3917    3.7619 C   0  0  0  0  0  0  0  0  0  0  0  0
    0.4007    0.5846    3.5253 H   0  0  0  0  0  0  0  0  0  0  0  0
    0.8427   -0.4912    4.6715 H   0  0  0  0  0  0  0  0  0  0  0  0
    1.2592   -1.1164    2.7596 N   0  0  0  0  0  4  0  0  0  0  0  0
    2.1577   -0.6823    2.7028 H   0  0  0  0  0  0  0  0  0  0  0  0
    1.3638   -2.0682    3.0440 H   0  0  0  0  0  0  0  0  0  0  0  0
    0.8101   -1.0789    1.8678 H   0  0  0  0  0  0  0  0  0  0  0  0
    0.0068    2.9156    0.0040 C   0  0  0  0  0  0  0  0  0  0  0  0
    0.9481    3.2156    0.0191 H   0  0  0  0  0  0  0  0  0  0  0  0
   -0.4834    3.2202    0.8064 H   0  0  0  0  0  0  0  0  0  0  0  0
   -0.4714    3.3625   -0.8676 H   0  0  0  0  0  0  0  0  0  0  0  0
    0.0002    1.4067    0.0003 C   0  0  0  0  0  0  0  0  0  0  0  0
   -1.1988    0.7006   -0.0009 C   0  0  0  0  0  0  0  0  0  0  0  0
   -2.0644    1.1885   -0.0040 H   0  0  0  0  0  0  0  0  0  0  0  0
   -1.2049   -0.6977    0.0000 C   0  0  0  0  0  0  0  0  0  0  0  0
   -2.0811   -1.1888    0.0016 H   0  0  0  0  0  0  0  0  0  0  0  0
    0.0002   -1.3998    0.0005 C   0  0  0  0  0  0  0  0  0  0  0  0
   -0.0063   -2.3959    0.0005 H   0  0  0  0  0  0  0  0  0  0  0  0
    1.2049   -0.7026   -0.0000 C   0  0  0  0  0  0  0  0  0  0  0  0
    2.0843   -1.1987    0.0007 H   0  0  0  0  0  0  0  0  0  0  0  0
    1.1985    0.6928    0.0001 C   0  0  0  0  0  0  0  0  0  0  0  0
    2.0672    1.1882   -0.0012 H   0  0  0  0  0  0  0  0  0  0  0  0
  1  5  1  0
  5  8  1  0
  1  2  1  0
  1  3  1  0
  1  4  1  0
  5  6  1  0
  5  7  1  0
  8  9  1  0
  8 10  1  0
  8 11  1  0
 12 16  1  0
 16 17  2  0
 17 19  1  0
 19 21  2  0
 21 23  1  0
 23 25  2  0
 25 16  1  0
 12 13  1  0
 12 14  1  0
 12 15  1  0
 17 18  1  0
 19 20  1  0
 21 22  1  0
 23 24  1  0
 25 26  1  0
M  CHG  1   8   1
M  END
>  <PDB_ID>  (1393) 
pdb3ale

>  <RESIDUE_NAME>  (1393) 
LYS   PHE

>  <FRAG_NAME>  (1393) 
ETAM   MBZ

>  <FRAG_ATOM_NUM>  (1393) 
fragi: 11  fragj: 15

>  <atom.prop.CHAIN_ID>  (1393) 
A A A A A A A A A A A Z Z Z Z Z Z Z Z Z Z Z Z Z Z Z

>  <atom.prop.IS_HEAVY_ATOM>  (1393) 
1 0 0 0 1 0 0 1 0 0 0 1 0 0 0 1 1 0 1 0 1 0 1 0 1 0

>  <DIFUSE_FUNC_ATOM>  (1393) 
n/a

>  <FINAL_SINGLE_POINT_ENERGY>  (1393) 
0

>  <NONCOV_INTER_ENERGY_QM>  (1393) 
0

>  <FF_Energy>  (1393) 
-4.31

>  <QM_Energy>  (1393) 
-12.96

>  <source>  (1393) 
ETAM_MBZ

>  <Index>  (1393) 
13974

$$$$
ETAM-pdb3amc-A-LYS-35:MBZ-pdb3amc-A-PHE-38
     RDKit          3D

 26 25  0  0  0  0  0  0  0  0999 V2000
   -1.8858   -2.0684   -3.4445 C   0  0  0  0  0  0  0  0  0  0  0  0
   -2.1715   -1.8826   -2.5253 H   0  0  0  0  0  0  0  0  0  0  0  0
   -2.5186   -1.7309   -4.1136 H   0  0  0  0  0  0  0  0  0  0  0  0
   -0.9182   -1.5947   -3.6104 H   0  0  0  0  0  0  0  0  0  0  0  0
   -1.7095   -3.5509   -3.6248 C   0  0  0  0  0  0  0  0  0  0  0  0
   -2.5969   -3.9746   -3.8236 H   0  0  0  0  0  0  0  0  0  0  0  0
   -1.0859   -3.7264   -4.3901 H   0  0  0  0  0  0  0  0  0  0  0  0
   -1.1400   -4.1982   -2.3879 N   0  0  0  0  0  4  0  0  0  0  0  0
   -0.6372   -3.5127   -1.8682 H   0  0  0  0  0  0  0  0  0  0  0  0
   -1.8897   -4.5617   -1.8404 H   0  0  0  0  0  0  0  0  0  0  0  0
   -0.5292   -4.9359   -2.6637 H   0  0  0  0  0  0  0  0  0  0  0  0
    0.0606    2.8565    0.0255 C   0  0  0  0  0  0  0  0  0  0  0  0
    0.6013    3.1529   -0.7636 H   0  0  0  0  0  0  0  0  0  0  0  0
    0.5246    3.1361    0.8674 H   0  0  0  0  0  0  0  0  0  0  0  0
   -0.8999    3.3702   -0.0145 H   0  0  0  0  0  0  0  0  0  0  0  0
   -0.0112    1.3875    0.0078 C   0  0  0  0  0  0  0  0  0  0  0  0
   -1.2078    0.6905    0.0030 C   0  0  0  0  0  0  0  0  0  0  0  0
   -2.0726    1.1928    0.0002 H   0  0  0  0  0  0  0  0  0  0  0  0
   -1.2287   -0.6896   -0.0000 C   0  0  0  0  0  0  0  0  0  0  0  0
   -2.0747   -1.2006    0.0052 H   0  0  0  0  0  0  0  0  0  0  0  0
    0.0261   -1.3915   -0.0095 C   0  0  0  0  0  0  0  0  0  0  0  0
    0.0213   -2.3795   -0.0236 H   0  0  0  0  0  0  0  0  0  0  0  0
    1.2287   -0.6687    0.0000 C   0  0  0  0  0  0  0  0  0  0  0  0
    2.1075   -1.1769    0.0088 H   0  0  0  0  0  0  0  0  0  0  0  0
    1.1929    0.6717   -0.0013 C   0  0  0  0  0  0  0  0  0  0  0  0
    2.0556    1.2103   -0.0102 H   0  0  0  0  0  0  0  0  0  0  0  0
  1  5  1  0
  5  8  1  0
  1  2  1  0
  1  3  1  0
  1  4  1  0
  5  6  1  0
  5  7  1  0
  8  9  1  0
  8 10  1  0
  8 11  1  0
 12 16  1  0
 16 17  2  0
 17 19  1  0
 19 21  2  0
 21 23  1  0
 23 25  2  0
 25 16  1  0
 12 13  1  0
 12 14  1  0
 12 15  1  0
 17 18  1  0
 19 20  1  0
 21 22  1  0
 23 24  1  0
 25 26  1  0
M  CHG  1   8   1
M  END
>  <PDB_ID>  (1394) 
pdb3amc

>  <RESIDUE_NAME>  (1394) 
LYS   PHE

>  <FRAG_NAME>  (1394) 
ETAM   MBZ

>  <FRAG_ATOM_NUM>  (1394) 
fragi: 11  fragj: 15

>  <atom.prop.CHAIN_ID>  (1394) 
A A A A A A A A A A A Z Z Z Z Z Z Z Z Z Z Z Z Z Z Z

>  <atom.prop.IS_HEAVY_ATOM>  (1394) 
1 0 0 0 1 0 0 1 0 0 0 1 0 0 0 1 1 0 1 0 1 0 1 0 1 0

>  <DIFUSE_FUNC_ATOM>  (1394) 
n/a

>  <FINAL_SINGLE_POINT_ENERGY>  (1394) 
0

>  <NONCOV_INTER_ENERGY_QM>  (1394) 
0

>  <FF_Energy>  (1394) 
-1.12

>  <QM_Energy>  (1394) 
-6.25

>  <source>  (1394) 
ETAM_MBZ

>  <Index>  (1394) 
13986

$$$$
ETAM-pdb3ahm-B-LYS-2:MBZ-pdb3ahm-B-PHE-6
     RDKit          3D

 26 25  0  0  0  0  0  0  0  0999 V2000
   -5.0090   -0.8124   -0.3391 C   0  0  0  0  0  0  0  0  0  0  0  0
   -4.9747   -0.1122   -1.0395 H   0  0  0  0  0  0  0  0  0  0  0  0
   -5.9355   -1.1380   -0.2066 H   0  0  0  0  0  0  0  0  0  0  0  0
   -4.3870   -1.6498   -0.6551 H   0  0  0  0  0  0  0  0  0  0  0  0
   -4.5071   -0.2158    0.9761 C   0  0  0  0  0  0  0  0  0  0  0  0
   -4.7674   -0.8359    1.7329 H   0  0  0  0  0  0  0  0  0  0  0  0
   -3.4953   -0.1783    0.9498 H   0  0  0  0  0  0  0  0  0  0  0  0
   -5.0318    1.1568    1.2759 N   0  0  0  0  0  4  0  0  0  0  0  0
   -4.5213    1.5401    2.0426 H   0  0  0  0  0  0  0  0  0  0  0  0
   -4.9169    1.7327    0.4699 H   0  0  0  0  0  0  0  0  0  0  0  0
   -5.9993    1.0915    1.5113 H   0  0  0  0  0  0  0  0  0  0  0  0
    0.0106    2.9197   -0.0140 C   0  0  0  0  0  0  0  0  0  0  0  0
    0.4076    3.2109   -0.8719 H   0  0  0  0  0  0  0  0  0  0  0  0
    0.5525    3.2254    0.7544 H   0  0  0  0  0  0  0  0  0  0  0  0
   -0.9760    3.3753    0.0698 H   0  0  0  0  0  0  0  0  0  0  0  0
   -0.0003    1.4070    0.0003 C   0  0  0  0  0  0  0  0  0  0  0  0
   -1.2002    0.6953   -0.0002 C   0  0  0  0  0  0  0  0  0  0  0  0
   -2.0664    1.1855   -0.0018 H   0  0  0  0  0  0  0  0  0  0  0  0
   -1.2046   -0.6990    0.0000 C   0  0  0  0  0  0  0  0  0  0  0  0
   -2.0786   -1.1927    0.0026 H   0  0  0  0  0  0  0  0  0  0  0  0
    0.0022   -1.3975   -0.0015 C   0  0  0  0  0  0  0  0  0  0  0  0
   -0.0040   -2.3955   -0.0049 H   0  0  0  0  0  0  0  0  0  0  0  0
    1.2046   -0.7012   -0.0000 C   0  0  0  0  0  0  0  0  0  0  0  0
    2.0851   -1.1952    0.0017 H   0  0  0  0  0  0  0  0  0  0  0  0
    1.1983    0.6953    0.0014 C   0  0  0  0  0  0  0  0  0  0  0  0
    2.0669    1.1899    0.0020 H   0  0  0  0  0  0  0  0  0  0  0  0
  1  5  1  0
  5  8  1  0
  1  2  1  0
  1  3  1  0
  1  4  1  0
  5  6  1  0
  5  7  1  0
  8  9  1  0
  8 10  1  0
  8 11  1  0
 12 16  1  0
 16 17  2  0
 17 19  1  0
 19 21  2  0
 21 23  1  0
 23 25  2  0
 25 16  1  0
 12 13  1  0
 12 14  1  0
 12 15  1  0
 17 18  1  0
 19 20  1  0
 21 22  1  0
 23 24  1  0
 25 26  1  0
M  CHG  1   8   1
M  END
>  <PDB_ID>  (1395) 
pdb3ahm

>  <RESIDUE_NAME>  (1395) 
LYS   PHE

>  <FRAG_NAME>  (1395) 
ETAM   MBZ

>  <FRAG_ATOM_NUM>  (1395) 
fragi: 11  fragj: 15

>  <atom.prop.CHAIN_ID>  (1395) 
A A A A A A A A A A A Z Z Z Z Z Z Z Z Z Z Z Z Z Z Z

>  <atom.prop.IS_HEAVY_ATOM>  (1395) 
1 0 0 0 1 0 0 1 0 0 0 1 0 0 0 1 1 0 1 0 1 0 1 0 1 0

>  <DIFUSE_FUNC_ATOM>  (1395) 
n/a

>  <FINAL_SINGLE_POINT_ENERGY>  (1395) 
0

>  <NONCOV_INTER_ENERGY_QM>  (1395) 
0

>  <FF_Energy>  (1395) 
2.42

>  <QM_Energy>  (1395) 
-2.81

>  <source>  (1395) 
ETAM_MBZ

>  <Index>  (1395) 
13987

$$$$
ETAM-pdb3ajm-B-LYS-164:MBZ-pdb3ajm-B-PHE-149
     RDKit          3D

 26 25  0  0  0  0  0  0  0  0999 V2000
    3.8196   -2.4829    1.2214 C   0  0  0  0  0  0  0  0  0  0  0  0
    3.2138   -1.7327    0.9844 H   0  0  0  0  0  0  0  0  0  0  0  0
    3.3480   -3.1471    1.7888 H   0  0  0  0  0  0  0  0  0  0  0  0
    4.1526   -2.9712    0.3055 H   0  0  0  0  0  0  0  0  0  0  0  0
    4.9988   -1.9255    2.0058 C   0  0  0  0  0  0  0  0  0  0  0  0
    5.6546   -2.6676    2.1771 H   0  0  0  0  0  0  0  0  0  0  0  0
    5.4521   -1.2186    1.4528 H   0  0  0  0  0  0  0  0  0  0  0  0
    4.5828   -1.3330    3.3080 N   0  0  0  0  0  4  0  0  0  0  0  0
    3.6469   -0.9899    3.2313 H   0  0  0  0  0  0  0  0  0  0  0  0
    4.6258   -2.0341    4.0192 H   0  0  0  0  0  0  0  0  0  0  0  0
    5.1983   -0.5807    3.5404 H   0  0  0  0  0  0  0  0  0  0  0  0
    0.0062    2.8924    0.0030 C   0  0  0  0  0  0  0  0  0  0  0  0
    0.8867    3.1973   -0.3315 H   0  0  0  0  0  0  0  0  0  0  0  0
   -0.1490    3.1992    0.9314 H   0  0  0  0  0  0  0  0  0  0  0  0
   -0.7619    3.3398   -0.6278 H   0  0  0  0  0  0  0  0  0  0  0  0
    0.0002    1.3937    0.0012 C   0  0  0  0  0  0  0  0  0  0  0  0
   -1.1909    0.6892   -0.0013 C   0  0  0  0  0  0  0  0  0  0  0  0
   -2.0584    1.1815   -0.0056 H   0  0  0  0  0  0  0  0  0  0  0  0
   -1.1934   -0.6911    0.0000 C   0  0  0  0  0  0  0  0  0  0  0  0
   -2.0732   -1.1881    0.0031 H   0  0  0  0  0  0  0  0  0  0  0  0
   -0.0001   -1.3836   -0.0011 C   0  0  0  0  0  0  0  0  0  0  0  0
   -0.0055   -2.3861   -0.0032 H   0  0  0  0  0  0  0  0  0  0  0  0
    1.1934   -0.6946   -0.0000 C   0  0  0  0  0  0  0  0  0  0  0  0
    2.0767   -1.1948    0.0009 H   0  0  0  0  0  0  0  0  0  0  0  0
    1.1908    0.6865    0.0012 C   0  0  0  0  0  0  0  0  0  0  0  0
    2.0609    1.1840    0.0015 H   0  0  0  0  0  0  0  0  0  0  0  0
  1  5  1  0
  5  8  1  0
  1  2  1  0
  1  3  1  0
  1  4  1  0
  5  6  1  0
  5  7  1  0
  8  9  1  0
  8 10  1  0
  8 11  1  0
 12 16  1  0
 16 17  2  0
 17 19  1  0
 19 21  2  0
 21 23  1  0
 23 25  2  0
 25 16  1  0
 12 13  1  0
 12 14  1  0
 12 15  1  0
 17 18  1  0
 19 20  1  0
 21 22  1  0
 23 24  1  0
 25 26  1  0
M  CHG  1   8   1
M  END
>  <PDB_ID>  (1396) 
pdb3ajm

>  <RESIDUE_NAME>  (1396) 
LYS   PHE

>  <FRAG_NAME>  (1396) 
ETAM   MBZ

>  <FRAG_ATOM_NUM>  (1396) 
fragi: 11  fragj: 15

>  <atom.prop.CHAIN_ID>  (1396) 
A A A A A A A A A A A Z Z Z Z Z Z Z Z Z Z Z Z Z Z Z

>  <atom.prop.IS_HEAVY_ATOM>  (1396) 
1 0 0 0 1 0 0 1 0 0 0 1 0 0 0 1 1 0 1 0 1 0 1 0 1 0

>  <DIFUSE_FUNC_ATOM>  (1396) 
n/a

>  <FINAL_SINGLE_POINT_ENERGY>  (1396) 
0

>  <NONCOV_INTER_ENERGY_QM>  (1396) 
0

>  <FF_Energy>  (1396) 
14.96

>  <QM_Energy>  (1396) 
0.69

>  <source>  (1396) 
ETAM_MBZ

>  <Index>  (1396) 
13994

$$$$
ETAM-pdb3aq4-B-LYS-59:MBZ-pdb3aq4-B-PHE-13
     RDKit          3D

 26 25  0  0  0  0  0  0  0  0999 V2000
    0.2510   -2.4581   -2.9453 C   0  0  0  0  0  0  0  0  0  0  0  0
    0.7061   -3.3332   -3.0596 H   0  0  0  0  0  0  0  0  0  0  0  0
    0.4643   -2.0637   -2.0603 H   0  0  0  0  0  0  0  0  0  0  0  0
    0.5624   -1.7766   -3.7370 H   0  0  0  0  0  0  0  0  0  0  0  0
   -1.2634   -2.7014   -3.0017 C   0  0  0  0  0  0  0  0  0  0  0  0
   -1.7260   -1.8180   -3.0948 H   0  0  0  0  0  0  0  0  0  0  0  0
   -1.4681   -3.2650   -3.8036 H   0  0  0  0  0  0  0  0  0  0  0  0
   -1.7627   -3.3926   -1.7741 N   0  0  0  0  0  4  0  0  0  0  0  0
   -1.0415   -3.9807   -1.4124 H   0  0  0  0  0  0  0  0  0  0  0  0
   -2.0145   -2.7091   -1.0917 H   0  0  0  0  0  0  0  0  0  0  0  0
   -2.5607   -3.9445   -2.0097 H   0  0  0  0  0  0  0  0  0  0  0  0
   -0.0082    2.9118    0.0026 C   0  0  0  0  0  0  0  0  0  0  0  0
   -0.6162    3.2077    0.7227 H   0  0  0  0  0  0  0  0  0  0  0  0
   -0.3180    3.2211   -0.8832 H   0  0  0  0  0  0  0  0  0  0  0  0
    0.9691    3.3575    0.1879 H   0  0  0  0  0  0  0  0  0  0  0  0
    0.0012    1.4032   -0.0086 C   0  0  0  0  0  0  0  0  0  0  0  0
   -1.1992    0.6963    0.0020 C   0  0  0  0  0  0  0  0  0  0  0  0
   -2.0635    1.1891    0.0097 H   0  0  0  0  0  0  0  0  0  0  0  0
   -1.2073   -0.6946    0.0000 C   0  0  0  0  0  0  0  0  0  0  0  0
   -2.0845   -1.1858   -0.0077 H   0  0  0  0  0  0  0  0  0  0  0  0
   -0.0083   -1.3913    0.0107 C   0  0  0  0  0  0  0  0  0  0  0  0
   -0.0107   -2.3912    0.0256 H   0  0  0  0  0  0  0  0  0  0  0  0
    1.2073   -0.6994   -0.0000 C   0  0  0  0  0  0  0  0  0  0  0  0
    2.0792   -1.2067   -0.0035 H   0  0  0  0  0  0  0  0  0  0  0  0
    1.2062    0.6858   -0.0041 C   0  0  0  0  0  0  0  0  0  0  0  0
    2.0711    1.1867   -0.0044 H   0  0  0  0  0  0  0  0  0  0  0  0
  1  5  1  0
  5  8  1  0
  1  2  1  0
  1  3  1  0
  1  4  1  0
  5  6  1  0
  5  7  1  0
  8  9  1  0
  8 10  1  0
  8 11  1  0
 12 16  1  0
 16 17  2  0
 17 19  1  0
 19 21  2  0
 21 23  1  0
 23 25  2  0
 25 16  1  0
 12 13  1  0
 12 14  1  0
 12 15  1  0
 17 18  1  0
 19 20  1  0
 21 22  1  0
 23 24  1  0
 25 26  1  0
M  CHG  1   8   1
M  END
>  <PDB_ID>  (1397) 
pdb3aq4

>  <RESIDUE_NAME>  (1397) 
LYS   PHE

>  <FRAG_NAME>  (1397) 
ETAM   MBZ

>  <FRAG_ATOM_NUM>  (1397) 
fragi: 11  fragj: 15

>  <atom.prop.CHAIN_ID>  (1397) 
A A A A A A A A A A A Z Z Z Z Z Z Z Z Z Z Z Z Z Z Z

>  <atom.prop.IS_HEAVY_ATOM>  (1397) 
1 0 0 0 1 0 0 1 0 0 0 1 0 0 0 1 1 0 1 0 1 0 1 0 1 0

>  <DIFUSE_FUNC_ATOM>  (1397) 
n/a

>  <FINAL_SINGLE_POINT_ENERGY>  (1397) 
0

>  <NONCOV_INTER_ENERGY_QM>  (1397) 
0

>  <FF_Energy>  (1397) 
5.56

>  <QM_Energy>  (1397) 
-5.18

>  <source>  (1397) 
ETAM_MBZ

>  <Index>  (1397) 
14029

$$$$
ETAM-pdb3aln-C-LYS-131:MBZ-pdb3aln-C-PHE-164
     RDKit          3D

 26 25  0  0  0  0  0  0  0  0999 V2000
   -4.7550   -3.6887   -0.2523 C   0  0  0  0  0  0  0  0  0  0  0  0
   -4.7579   -3.0269    0.5020 H   0  0  0  0  0  0  0  0  0  0  0  0
   -4.6485   -4.6122    0.1271 H   0  0  0  0  0  0  0  0  0  0  0  0
   -5.7099   -3.6311   -0.7747 H   0  0  0  0  0  0  0  0  0  0  0  0
   -3.5734   -3.3958   -1.1438 C   0  0  0  0  0  0  0  0  0  0  0  0
   -3.5569   -4.0576   -1.8964 H   0  0  0  0  0  0  0  0  0  0  0  0
   -3.6672   -2.4722   -1.5219 H   0  0  0  0  0  0  0  0  0  0  0  0
   -2.3003   -3.4862   -0.3880 N   0  0  0  0  0  4  0  0  0  0  0  0
   -1.5421   -3.6186   -1.0267 H   0  0  0  0  0  0  0  0  0  0  0  0
   -2.1569   -2.6408    0.1276 H   0  0  0  0  0  0  0  0  0  0  0  0
   -2.3422   -4.2594    0.2449 H   0  0  0  0  0  0  0  0  0  0  0  0
    0.0069    2.8827    0.0369 C   0  0  0  0  0  0  0  0  0  0  0  0
    0.9522    3.1878    0.0715 H   0  0  0  0  0  0  0  0  0  0  0  0
   -0.4812    3.1710    0.8538 H   0  0  0  0  0  0  0  0  0  0  0  0
   -0.4663    3.3626   -0.8198 H   0  0  0  0  0  0  0  0  0  0  0  0
   -0.0015    1.4007   -0.0102 C   0  0  0  0  0  0  0  0  0  0  0  0
   -1.1980    0.6925    0.0074 C   0  0  0  0  0  0  0  0  0  0  0  0
   -2.0648    1.1796    0.0245 H   0  0  0  0  0  0  0  0  0  0  0  0
   -1.2024   -0.7038   -0.0000 C   0  0  0  0  0  0  0  0  0  0  0  0
   -2.0751   -1.1970   -0.0025 H   0  0  0  0  0  0  0  0  0  0  0  0
    0.0056   -1.3955   -0.0021 C   0  0  0  0  0  0  0  0  0  0  0  0
    0.0047   -2.3935   -0.0053 H   0  0  0  0  0  0  0  0  0  0  0  0
    1.2024   -0.6931    0.0000 C   0  0  0  0  0  0  0  0  0  0  0  0
    2.0865   -1.1863   -0.0007 H   0  0  0  0  0  0  0  0  0  0  0  0
    1.1939    0.6991    0.0049 C   0  0  0  0  0  0  0  0  0  0  0  0
    2.0616    1.1963    0.0181 H   0  0  0  0  0  0  0  0  0  0  0  0
  1  5  1  0
  5  8  1  0
  1  2  1  0
  1  3  1  0
  1  4  1  0
  5  6  1  0
  5  7  1  0
  8  9  1  0
  8 10  1  0
  8 11  1  0
 12 16  1  0
 16 17  2  0
 17 19  1  0
 19 21  2  0
 21 23  1  0
 23 25  2  0
 25 16  1  0
 12 13  1  0
 12 14  1  0
 12 15  1  0
 17 18  1  0
 19 20  1  0
 21 22  1  0
 23 24  1  0
 25 26  1  0
M  CHG  1   8   1
M  END
>  <PDB_ID>  (1398) 
pdb3aln

>  <RESIDUE_NAME>  (1398) 
LYS   PHE

>  <FRAG_NAME>  (1398) 
ETAM   MBZ

>  <FRAG_ATOM_NUM>  (1398) 
fragi: 11  fragj: 15

>  <atom.prop.CHAIN_ID>  (1398) 
A A A A A A A A A A A Z Z Z Z Z Z Z Z Z Z Z Z Z Z Z

>  <atom.prop.IS_HEAVY_ATOM>  (1398) 
1 0 0 0 1 0 0 1 0 0 0 1 0 0 0 1 1 0 1 0 1 0 1 0 1 0

>  <DIFUSE_FUNC_ATOM>  (1398) 
n/a

>  <FINAL_SINGLE_POINT_ENERGY>  (1398) 
0

>  <NONCOV_INTER_ENERGY_QM>  (1398) 
0

>  <FF_Energy>  (1398) 
6.77

>  <QM_Energy>  (1398) 
-2.06

>  <source>  (1398) 
ETAM_MBZ

>  <Index>  (1398) 
14032

$$$$
ETAM-pdb1wqa-A-LYS-374:MBZ-pdb1wqa-A-PHE-430
     RDKit          3D

 26 25  0  0  0  0  0  0  0  0999 V2000
    2.8792   -0.7533    3.1482 C   0  0  0  0  0  0  0  0  0  0  0  0
    3.5041   -0.4923    2.4178 H   0  0  0  0  0  0  0  0  0  0  0  0
    3.3847   -0.9061    3.9929 H   0  0  0  0  0  0  0  0  0  0  0  0
    2.1640    0.0541    3.3052 H   0  0  0  0  0  0  0  0  0  0  0  0
    2.1916   -2.0550    2.7541 C   0  0  0  0  0  0  0  0  0  0  0  0
    1.5452   -2.3136    3.4798 H   0  0  0  0  0  0  0  0  0  0  0  0
    1.6748   -1.9053    1.9035 H   0  0  0  0  0  0  0  0  0  0  0  0
    3.1597   -3.1732    2.5447 N   0  0  0  0  0  4  0  0  0  0  0  0
    4.0681   -2.8821    2.8417 H   0  0  0  0  0  0  0  0  0  0  0  0
    2.8689   -3.9642    3.0796 H   0  0  0  0  0  0  0  0  0  0  0  0
    3.1826   -3.4120    1.5750 H   0  0  0  0  0  0  0  0  0  0  0  0
    0.0130    2.9161   -0.0272 C   0  0  0  0  0  0  0  0  0  0  0  0
   -0.4182    3.2086   -0.8696 H   0  0  0  0  0  0  0  0  0  0  0  0
    0.9560    3.2162    0.0140 H   0  0  0  0  0  0  0  0  0  0  0  0
   -0.5216    3.3837    0.7997 H   0  0  0  0  0  0  0  0  0  0  0  0
    0.0022    1.4133    0.0036 C   0  0  0  0  0  0  0  0  0  0  0  0
   -1.1956    0.7017   -0.0010 C   0  0  0  0  0  0  0  0  0  0  0  0
   -2.0644    1.1849   -0.0064 H   0  0  0  0  0  0  0  0  0  0  0  0
   -1.2027   -0.7078   -0.0000 C   0  0  0  0  0  0  0  0  0  0  0  0
   -2.0831   -1.1904    0.0047 H   0  0  0  0  0  0  0  0  0  0  0  0
   -0.0039   -1.4077   -0.0043 C   0  0  0  0  0  0  0  0  0  0  0  0
   -0.0034   -2.4023   -0.0109 H   0  0  0  0  0  0  0  0  0  0  0  0
    1.2027   -0.7030    0.0000 C   0  0  0  0  0  0  0  0  0  0  0  0
    2.0834   -1.1942    0.0034 H   0  0  0  0  0  0  0  0  0  0  0  0
    1.1974    0.7034    0.0016 C   0  0  0  0  0  0  0  0  0  0  0  0
    2.0683    1.1917    0.0006 H   0  0  0  0  0  0  0  0  0  0  0  0
  1  5  1  0
  5  8  1  0
  1  2  1  0
  1  3  1  0
  1  4  1  0
  5  6  1  0
  5  7  1  0
  8  9  1  0
  8 10  1  0
  8 11  1  0
 12 16  1  0
 16 17  2  0
 17 19  1  0
 19 21  2  0
 21 23  1  0
 23 25  2  0
 25 16  1  0
 12 13  1  0
 12 14  1  0
 12 15  1  0
 17 18  1  0
 19 20  1  0
 21 22  1  0
 23 24  1  0
 25 26  1  0
M  CHG  1   8   1
M  END
>  <PDB_ID>  (1399) 
pdb1wqa

>  <RESIDUE_NAME>  (1399) 
LYS   PHE

>  <FRAG_NAME>  (1399) 
ETAM   MBZ

>  <FRAG_ATOM_NUM>  (1399) 
fragi: 11  fragj: 15

>  <atom.prop.CHAIN_ID>  (1399) 
A A A A A A A A A A A Z Z Z Z Z Z Z Z Z Z Z Z Z Z Z

>  <atom.prop.IS_HEAVY_ATOM>  (1399) 
1 0 0 0 1 0 0 1 0 0 0 1 0 0 0 1 1 0 1 0 1 0 1 0 1 0

>  <DIFUSE_FUNC_ATOM>  (1399) 
n/a

>  <FINAL_SINGLE_POINT_ENERGY>  (1399) 
0

>  <NONCOV_INTER_ENERGY_QM>  (1399) 
0

>  <FF_Energy>  (1399) 
2.93

>  <QM_Energy>  (1399) 
-4.48

>  <source>  (1399) 
ETAM_MBZ

>  <Index>  (1399) 
14036

$$$$
ETAM-pdb1wqa-B-LYS-200:MBZ-pdb1wqa-B-PHE-176
     RDKit          3D

 26 25  0  0  0  0  0  0  0  0999 V2000
   -0.8519    0.8433   -3.7708 C   0  0  0  0  0  0  0  0  0  0  0  0
   -0.4525    1.3518   -4.5239 H   0  0  0  0  0  0  0  0  0  0  0  0
   -0.4489    1.1192   -2.9071 H   0  0  0  0  0  0  0  0  0  0  0  0
   -1.9250    1.0322   -3.7426 H   0  0  0  0  0  0  0  0  0  0  0  0
   -0.5679   -0.6381   -3.9835 C   0  0  0  0  0  0  0  0  0  0  0  0
   -1.0062   -1.1614   -3.2467 H   0  0  0  0  0  0  0  0  0  0  0  0
   -0.9672   -0.9229   -4.8608 H   0  0  0  0  0  0  0  0  0  0  0  0
    0.8925   -0.9380   -3.9934 N   0  0  0  0  0  4  0  0  0  0  0  0
    1.0596   -1.7465   -4.5556 H   0  0  0  0  0  0  0  0  0  0  0  0
    1.3871   -0.1570   -4.3732 H   0  0  0  0  0  0  0  0  0  0  0  0
    1.2005   -1.1087   -3.0585 H   0  0  0  0  0  0  0  0  0  0  0  0
    0.0185    2.9255   -0.0325 C   0  0  0  0  0  0  0  0  0  0  0  0
    0.2701    3.2069   -0.9491 H   0  0  0  0  0  0  0  0  0  0  0  0
    0.6875    3.2347    0.6295 H   0  0  0  0  0  0  0  0  0  0  0  0
   -0.9319    3.4005    0.2110 H   0  0  0  0  0  0  0  0  0  0  0  0
   -0.0006    1.4132   -0.0005 C   0  0  0  0  0  0  0  0  0  0  0  0
   -1.1939    0.7089    0.0009 C   0  0  0  0  0  0  0  0  0  0  0  0
   -2.0640    1.1923    0.0017 H   0  0  0  0  0  0  0  0  0  0  0  0
   -1.2029   -0.6976   -0.0000 C   0  0  0  0  0  0  0  0  0  0  0  0
   -2.0850   -1.1804    0.0015 H   0  0  0  0  0  0  0  0  0  0  0  0
   -0.0043   -1.4087   -0.0009 C   0  0  0  0  0  0  0  0  0  0  0  0
   -0.0147   -2.4026   -0.0025 H   0  0  0  0  0  0  0  0  0  0  0  0
    1.2029   -0.7137    0.0000 C   0  0  0  0  0  0  0  0  0  0  0  0
    2.0819   -1.2037    0.0021 H   0  0  0  0  0  0  0  0  0  0  0  0
    1.1989    0.6979    0.0005 C   0  0  0  0  0  0  0  0  0  0  0  0
    2.0681    1.1850    0.0006 H   0  0  0  0  0  0  0  0  0  0  0  0
  1  5  1  0
  5  8  1  0
  1  2  1  0
  1  3  1  0
  1  4  1  0
  5  6  1  0
  5  7  1  0
  8  9  1  0
  8 10  1  0
  8 11  1  0
 12 16  1  0
 16 17  2  0
 17 19  1  0
 19 21  2  0
 21 23  1  0
 23 25  2  0
 25 16  1  0
 12 13  1  0
 12 14  1  0
 12 15  1  0
 17 18  1  0
 19 20  1  0
 21 22  1  0
 23 24  1  0
 25 26  1  0
M  CHG  1   8   1
M  END
>  <PDB_ID>  (1400) 
pdb1wqa

>  <RESIDUE_NAME>  (1400) 
LYS   PHE

>  <FRAG_NAME>  (1400) 
ETAM   MBZ

>  <FRAG_ATOM_NUM>  (1400) 
fragi: 11  fragj: 15

>  <atom.prop.CHAIN_ID>  (1400) 
A A A A A A A A A A A Z Z Z Z Z Z Z Z Z Z Z Z Z Z Z

>  <atom.prop.IS_HEAVY_ATOM>  (1400) 
1 0 0 0 1 0 0 1 0 0 0 1 0 0 0 1 1 0 1 0 1 0 1 0 1 0

>  <DIFUSE_FUNC_ATOM>  (1400) 
n/a

>  <FINAL_SINGLE_POINT_ENERGY>  (1400) 
0

>  <NONCOV_INTER_ENERGY_QM>  (1400) 
0

>  <FF_Energy>  (1400) 
-6.22

>  <QM_Energy>  (1400) 
-11.36

>  <source>  (1400) 
ETAM_MBZ

>  <Index>  (1400) 
14037

$$$$
ETAM-pdb1wqa-D-LYS-200:MBZ-pdb1wqa-D-PHE-176
     RDKit          3D

 26 25  0  0  0  0  0  0  0  0999 V2000
   -1.0413    0.7977   -3.7884 C   0  0  0  0  0  0  0  0  0  0  0  0
   -0.6872    1.2527   -4.5956 H   0  0  0  0  0  0  0  0  0  0  0  0
   -0.5751    1.1122   -2.9718 H   0  0  0  0  0  0  0  0  0  0  0  0
   -2.1076    1.0049   -3.6979 H   0  0  0  0  0  0  0  0  0  0  0  0
   -0.8039   -0.6963   -3.9335 C   0  0  0  0  0  0  0  0  0  0  0  0
   -1.2000   -1.1681   -3.1393 H   0  0  0  0  0  0  0  0  0  0  0  0
   -1.2693   -1.0216   -4.7638 H   0  0  0  0  0  0  0  0  0  0  0  0
    0.6464   -1.0333   -4.0262 N   0  0  0  0  0  4  0  0  0  0  0  0
    1.0313   -1.0910   -3.1058 H   0  0  0  0  0  0  0  0  0  0  0  0
    0.7520   -1.9121   -4.4900 H   0  0  0  0  0  0  0  0  0  0  0  0
    1.1180   -0.3210   -4.5435 H   0  0  0  0  0  0  0  0  0  0  0  0
    0.0201    2.9221   -0.0514 C   0  0  0  0  0  0  0  0  0  0  0  0
    0.2384    3.1932   -0.9795 H   0  0  0  0  0  0  0  0  0  0  0  0
    0.7145    3.2388    0.5808 H   0  0  0  0  0  0  0  0  0  0  0  0
   -0.9206    3.4001    0.2218 H   0  0  0  0  0  0  0  0  0  0  0  0
    0.0006    1.4148   -0.0006 C   0  0  0  0  0  0  0  0  0  0  0  0
   -1.1966    0.7084    0.0002 C   0  0  0  0  0  0  0  0  0  0  0  0
   -2.0644    1.1923   -0.0005 H   0  0  0  0  0  0  0  0  0  0  0  0
   -1.2050   -0.6994   -0.0000 C   0  0  0  0  0  0  0  0  0  0  0  0
   -2.0849   -1.1835    0.0015 H   0  0  0  0  0  0  0  0  0  0  0  0
   -0.0035   -1.4074   -0.0000 C   0  0  0  0  0  0  0  0  0  0  0  0
   -0.0126   -2.4020   -0.0003 H   0  0  0  0  0  0  0  0  0  0  0  0
    1.2050   -0.7114    0.0000 C   0  0  0  0  0  0  0  0  0  0  0  0
    2.0832   -1.2036    0.0012 H   0  0  0  0  0  0  0  0  0  0  0  0
    1.1995    0.6951    0.0005 C   0  0  0  0  0  0  0  0  0  0  0  0
    2.0700    1.1853    0.0010 H   0  0  0  0  0  0  0  0  0  0  0  0
  1  5  1  0
  5  8  1  0
  1  2  1  0
  1  3  1  0
  1  4  1  0
  5  6  1  0
  5  7  1  0
  8  9  1  0
  8 10  1  0
  8 11  1  0
 12 16  1  0
 16 17  2  0
 17 19  1  0
 19 21  2  0
 21 23  1  0
 23 25  2  0
 25 16  1  0
 12 13  1  0
 12 14  1  0
 12 15  1  0
 17 18  1  0
 19 20  1  0
 21 22  1  0
 23 24  1  0
 25 26  1  0
M  CHG  1   8   1
M  END
>  <PDB_ID>  (1401) 
pdb1wqa

>  <RESIDUE_NAME>  (1401) 
LYS   PHE

>  <FRAG_NAME>  (1401) 
ETAM   MBZ

>  <FRAG_ATOM_NUM>  (1401) 
fragi: 11  fragj: 15

>  <atom.prop.CHAIN_ID>  (1401) 
A A A A A A A A A A A Z Z Z Z Z Z Z Z Z Z Z Z Z Z Z

>  <atom.prop.IS_HEAVY_ATOM>  (1401) 
1 0 0 0 1 0 0 1 0 0 0 1 0 0 0 1 1 0 1 0 1 0 1 0 1 0

>  <DIFUSE_FUNC_ATOM>  (1401) 
n/a

>  <FINAL_SINGLE_POINT_ENERGY>  (1401) 
0

>  <NONCOV_INTER_ENERGY_QM>  (1401) 
0

>  <FF_Energy>  (1401) 
-6.22

>  <QM_Energy>  (1401) 
-11.28

>  <source>  (1401) 
ETAM_MBZ

>  <Index>  (1401) 
14042

$$$$
ETAM-pdb1wqa-A-LYS-25:MBZ-pdb1wqa-A-PHE-132
     RDKit          3D

 26 25  0  0  0  0  0  0  0  0999 V2000
    1.1415   -1.4190   -4.2051 C   0  0  0  0  0  0  0  0  0  0  0  0
    0.8846   -1.8142   -5.0764 H   0  0  0  0  0  0  0  0  0  0  0  0
    1.0573   -2.0838   -3.4754 H   0  0  0  0  0  0  0  0  0  0  0  0
    2.1822   -1.1006   -4.2647 H   0  0  0  0  0  0  0  0  0  0  0  0
    0.1802   -0.2386   -3.9017 C   0  0  0  0  0  0  0  0  0  0  0  0
    0.4959    0.2249   -3.0572 H   0  0  0  0  0  0  0  0  0  0  0  0
    0.2474    0.4336   -4.6571 H   0  0  0  0  0  0  0  0  0  0  0  0
   -1.3005   -0.6036   -3.7191 N   0  0  0  0  0  4  0  0  0  0  0  0
   -1.8452    0.1912   -3.9564 H   0  0  0  0  0  0  0  0  0  0  0  0
   -1.5067   -1.3639   -4.3212 H   0  0  0  0  0  0  0  0  0  0  0  0
   -1.4404   -0.8570   -2.7706 H   0  0  0  0  0  0  0  0  0  0  0  0
    0.0021    2.9244    0.0211 C   0  0  0  0  0  0  0  0  0  0  0  0
    0.8777    3.2227    0.3718 H   0  0  0  0  0  0  0  0  0  0  0  0
   -0.7383    3.2199    0.6054 H   0  0  0  0  0  0  0  0  0  0  0  0
   -0.1406    3.3825   -0.9576 H   0  0  0  0  0  0  0  0  0  0  0  0
    0.0022    1.4104    0.0044 C   0  0  0  0  0  0  0  0  0  0  0  0
   -1.1985    0.6950    0.0002 C   0  0  0  0  0  0  0  0  0  0  0  0
   -2.0653    1.1846   -0.0040 H   0  0  0  0  0  0  0  0  0  0  0  0
   -1.2104   -0.7069    0.0000 C   0  0  0  0  0  0  0  0  0  0  0  0
   -2.0872   -1.1925    0.0022 H   0  0  0  0  0  0  0  0  0  0  0  0
   -0.0079   -1.4068   -0.0020 C   0  0  0  0  0  0  0  0  0  0  0  0
   -0.0024   -2.3994   -0.0054 H   0  0  0  0  0  0  0  0  0  0  0  0
    1.2104   -0.6972   -0.0000 C   0  0  0  0  0  0  0  0  0  0  0  0
    2.0854   -1.1946    0.0050 H   0  0  0  0  0  0  0  0  0  0  0  0
    1.2041    0.7054   -0.0027 C   0  0  0  0  0  0  0  0  0  0  0  0
    2.0702    1.1985   -0.0102 H   0  0  0  0  0  0  0  0  0  0  0  0
  1  5  1  0
  5  8  1  0
  1  2  1  0
  1  3  1  0
  1  4  1  0
  5  6  1  0
  5  7  1  0
  8  9  1  0
  8 10  1  0
  8 11  1  0
 12 16  1  0
 16 17  2  0
 17 19  1  0
 19 21  2  0
 21 23  1  0
 23 25  2  0
 25 16  1  0
 12 13  1  0
 12 14  1  0
 12 15  1  0
 17 18  1  0
 19 20  1  0
 21 22  1  0
 23 24  1  0
 25 26  1  0
M  CHG  1   8   1
M  END
>  <PDB_ID>  (1402) 
pdb1wqa

>  <RESIDUE_NAME>  (1402) 
LYS   PHE

>  <FRAG_NAME>  (1402) 
ETAM   MBZ

>  <FRAG_ATOM_NUM>  (1402) 
fragi: 11  fragj: 15

>  <atom.prop.CHAIN_ID>  (1402) 
A A A A A A A A A A A Z Z Z Z Z Z Z Z Z Z Z Z Z Z Z

>  <atom.prop.IS_HEAVY_ATOM>  (1402) 
1 0 0 0 1 0 0 1 0 0 0 1 0 0 0 1 1 0 1 0 1 0 1 0 1 0

>  <DIFUSE_FUNC_ATOM>  (1402) 
n/a

>  <FINAL_SINGLE_POINT_ENERGY>  (1402) 
0

>  <NONCOV_INTER_ENERGY_QM>  (1402) 
0

>  <FF_Energy>  (1402) 
-6.54

>  <QM_Energy>  (1402) 
-12.62

>  <source>  (1402) 
ETAM_MBZ

>  <Index>  (1402) 
14048

$$$$
ETAM-pdb1wrj-A-LYS-48:MBZ-pdb1wrj-A-PHE-45
     RDKit          3D

 26 25  0  0  0  0  0  0  0  0999 V2000
   -5.3709    2.2484    2.9455 C   0  0  0  0  0  0  0  0  0  0  0  0
   -6.0261    1.6389    3.3782 H   0  0  0  0  0  0  0  0  0  0  0  0
   -5.8299    3.0587    2.5960 H   0  0  0  0  0  0  0  0  0  0  0  0
   -4.6379    2.5567    3.6911 H   0  0  0  0  0  0  0  0  0  0  0  0
   -4.7087    1.5277    1.8019 C   0  0  0  0  0  0  0  0  0  0  0  0
   -4.3650    0.6507    2.1185 H   0  0  0  0  0  0  0  0  0  0  0  0
   -5.3662    1.3988    1.0678 H   0  0  0  0  0  0  0  0  0  0  0  0
   -3.5771    2.3480    1.3086 N   0  0  0  0  0  4  0  0  0  0  0  0
   -3.4277    2.1617    0.3369 H   0  0  0  0  0  0  0  0  0  0  0  0
   -3.7878    3.3186    1.4333 H   0  0  0  0  0  0  0  0  0  0  0  0
   -2.7485    2.1194    1.8219 H   0  0  0  0  0  0  0  0  0  0  0  0
   -0.0071    2.8990   -0.0030 C   0  0  0  0  0  0  0  0  0  0  0  0
   -0.5511    3.2018   -0.7695 H   0  0  0  0  0  0  0  0  0  0  0  0
    0.9275    3.2104   -0.0763 H   0  0  0  0  0  0  0  0  0  0  0  0
   -0.4338    3.3295    0.9029 H   0  0  0  0  0  0  0  0  0  0  0  0
   -0.0004    1.4027   -0.0002 C   0  0  0  0  0  0  0  0  0  0  0  0
   -1.1979    0.6964   -0.0001 C   0  0  0  0  0  0  0  0  0  0  0  0
   -2.0640    1.1862   -0.0013 H   0  0  0  0  0  0  0  0  0  0  0  0
   -1.2054   -0.6986    0.0000 C   0  0  0  0  0  0  0  0  0  0  0  0
   -2.0795   -1.1909    0.0019 H   0  0  0  0  0  0  0  0  0  0  0  0
    0.0017   -1.3980   -0.0006 C   0  0  0  0  0  0  0  0  0  0  0  0
   -0.0041   -2.3953   -0.0018 H   0  0  0  0  0  0  0  0  0  0  0  0
    1.2054   -0.7003   -0.0000 C   0  0  0  0  0  0  0  0  0  0  0  0
    2.0861   -1.1938    0.0019 H   0  0  0  0  0  0  0  0  0  0  0  0
    1.1966    0.6978    0.0009 C   0  0  0  0  0  0  0  0  0  0  0  0
    2.0648    1.1920    0.0014 H   0  0  0  0  0  0  0  0  0  0  0  0
  1  5  1  0
  5  8  1  0
  1  2  1  0
  1  3  1  0
  1  4  1  0
  5  6  1  0
  5  7  1  0
  8  9  1  0
  8 10  1  0
  8 11  1  0
 12 16  1  0
 16 17  2  0
 17 19  1  0
 19 21  2  0
 21 23  1  0
 23 25  2  0
 25 16  1  0
 12 13  1  0
 12 14  1  0
 12 15  1  0
 17 18  1  0
 19 20  1  0
 21 22  1  0
 23 24  1  0
 25 26  1  0
M  CHG  1   8   1
M  END
>  <PDB_ID>  (1403) 
pdb1wrj

>  <RESIDUE_NAME>  (1403) 
LYS   PHE

>  <FRAG_NAME>  (1403) 
ETAM   MBZ

>  <FRAG_ATOM_NUM>  (1403) 
fragi: 11  fragj: 15

>  <atom.prop.CHAIN_ID>  (1403) 
A A A A A A A A A A A Z Z Z Z Z Z Z Z Z Z Z Z Z Z Z

>  <atom.prop.IS_HEAVY_ATOM>  (1403) 
1 0 0 0 1 0 0 1 0 0 0 1 0 0 0 1 1 0 1 0 1 0 1 0 1 0

>  <DIFUSE_FUNC_ATOM>  (1403) 
n/a

>  <FINAL_SINGLE_POINT_ENERGY>  (1403) 
0

>  <NONCOV_INTER_ENERGY_QM>  (1403) 
0

>  <FF_Energy>  (1403) 
3.4

>  <QM_Energy>  (1403) 
-2.35

>  <source>  (1403) 
ETAM_MBZ

>  <Index>  (1403) 
14053

$$$$
ETAM-pdb1wtd-B-LYS-232:MBZ-pdb1wtd-A-PHE-44
     RDKit          3D

 26 25  0  0  0  0  0  0  0  0999 V2000
    4.7198   -0.1399    3.9658 C   0  0  0  0  0  0  0  0  0  0  0  0
    5.0537    0.2553    3.1217 H   0  0  0  0  0  0  0  0  0  0  0  0
    5.3260   -0.8505    4.2926 H   0  0  0  0  0  0  0  0  0  0  0  0
    4.6239    0.6385    4.7227 H   0  0  0  0  0  0  0  0  0  0  0  0
    3.3500   -0.7793    3.6806 C   0  0  0  0  0  0  0  0  0  0  0  0
    3.0707   -1.3216    4.4855 H   0  0  0  0  0  0  0  0  0  0  0  0
    2.6687   -0.0441    3.5512 H   0  0  0  0  0  0  0  0  0  0  0  0
    3.3151   -1.6845    2.4577 N   0  0  0  0  0  4  0  0  0  0  0  0
    2.6762   -2.4262    2.6325 H   0  0  0  0  0  0  0  0  0  0  0  0
    3.0183   -1.1464    1.6758 H   0  0  0  0  0  0  0  0  0  0  0  0
    4.2299   -2.0429    2.3056 H   0  0  0  0  0  0  0  0  0  0  0  0
   -0.0147    2.9119    0.0052 C   0  0  0  0  0  0  0  0  0  0  0  0
   -0.6666    3.2178   -0.6693 H   0  0  0  0  0  0  0  0  0  0  0  0
    0.8969    3.2320   -0.1970 H   0  0  0  0  0  0  0  0  0  0  0  0
   -0.3082    3.3431    0.9623 H   0  0  0  0  0  0  0  0  0  0  0  0
    0.0026    1.4055   -0.0052 C   0  0  0  0  0  0  0  0  0  0  0  0
   -1.1870    0.6898    0.0092 C   0  0  0  0  0  0  0  0  0  0  0  0
   -2.0594    1.1773    0.0256 H   0  0  0  0  0  0  0  0  0  0  0  0
   -1.1966   -0.7054    0.0000 C   0  0  0  0  0  0  0  0  0  0  0  0
   -2.0866   -1.1860    0.0019 H   0  0  0  0  0  0  0  0  0  0  0  0
   -0.0188   -1.4048   -0.0091 C   0  0  0  0  0  0  0  0  0  0  0  0
   -0.0065   -2.3972   -0.0225 H   0  0  0  0  0  0  0  0  0  0  0  0
    1.1966   -0.6920    0.0000 C   0  0  0  0  0  0  0  0  0  0  0  0
    2.0747   -1.1959    0.0044 H   0  0  0  0  0  0  0  0  0  0  0  0
    1.2032    0.7069    0.0052 C   0  0  0  0  0  0  0  0  0  0  0  0
    2.0674    1.1955    0.0156 H   0  0  0  0  0  0  0  0  0  0  0  0
  1  5  1  0
  5  8  1  0
  1  2  1  0
  1  3  1  0
  1  4  1  0
  5  6  1  0
  5  7  1  0
  8  9  1  0
  8 10  1  0
  8 11  1  0
 12 16  1  0
 16 17  2  0
 17 19  1  0
 19 21  2  0
 21 23  1  0
 23 25  2  0
 25 16  1  0
 12 13  1  0
 12 14  1  0
 12 15  1  0
 17 18  1  0
 19 20  1  0
 21 22  1  0
 23 24  1  0
 25 26  1  0
M  CHG  1   8   1
M  END
>  <PDB_ID>  (1404) 
pdb1wtd

>  <RESIDUE_NAME>  (1404) 
LYS   PHE

>  <FRAG_NAME>  (1404) 
ETAM   MBZ

>  <FRAG_ATOM_NUM>  (1404) 
fragi: 11  fragj: 15

>  <atom.prop.CHAIN_ID>  (1404) 
A A A A A A A A A A A Z Z Z Z Z Z Z Z Z Z Z Z Z Z Z

>  <atom.prop.IS_HEAVY_ATOM>  (1404) 
1 0 0 0 1 0 0 1 0 0 0 1 0 0 0 1 1 0 1 0 1 0 1 0 1 0

>  <DIFUSE_FUNC_ATOM>  (1404) 
n/a

>  <FINAL_SINGLE_POINT_ENERGY>  (1404) 
0

>  <NONCOV_INTER_ENERGY_QM>  (1404) 
0

>  <FF_Energy>  (1404) 
-0.98

>  <QM_Energy>  (1404) 
-6.94

>  <source>  (1404) 
ETAM_MBZ

>  <Index>  (1404) 
14079

$$$$
ETAM-pdb1wuw-C-LYS-32:MBZ-pdb1wuw-C-PHE-43
     RDKit          3D

 26 25  0  0  0  0  0  0  0  0999 V2000
    0.0586   -1.4482   -3.5249 C   0  0  0  0  0  0  0  0  0  0  0  0
   -0.6579   -0.9276   -3.0753 H   0  0  0  0  0  0  0  0  0  0  0  0
   -0.1109   -1.5078   -4.5011 H   0  0  0  0  0  0  0  0  0  0  0  0
    1.0149   -0.9523   -3.3586 H   0  0  0  0  0  0  0  0  0  0  0  0
    0.0664   -2.8585   -2.9490 C   0  0  0  0  0  0  0  0  0  0  0  0
    0.1697   -3.5163   -3.7063 H   0  0  0  0  0  0  0  0  0  0  0  0
    0.8646   -2.9555   -2.3392 H   0  0  0  0  0  0  0  0  0  0  0  0
   -1.1704   -3.1840   -2.1867 N   0  0  0  0  0  4  0  0  0  0  0  0
   -1.9549   -3.1698   -2.8060 H   0  0  0  0  0  0  0  0  0  0  0  0
   -1.0797   -4.0934   -1.7814 H   0  0  0  0  0  0  0  0  0  0  0  0
   -1.3021   -2.5069   -1.4639 H   0  0  0  0  0  0  0  0  0  0  0  0
    0.0488    2.9242   -0.0101 C   0  0  0  0  0  0  0  0  0  0  0  0
   -0.5883    3.2302   -0.7150 H   0  0  0  0  0  0  0  0  0  0  0  0
    0.9785    3.1956   -0.2525 H   0  0  0  0  0  0  0  0  0  0  0  0
   -0.2163    3.4155    0.9261 H   0  0  0  0  0  0  0  0  0  0  0  0
    0.0122    1.4052   -0.0013 C   0  0  0  0  0  0  0  0  0  0  0  0
   -1.1863    0.7064    0.0014 C   0  0  0  0  0  0  0  0  0  0  0  0
   -2.0498    1.2023    0.0029 H   0  0  0  0  0  0  0  0  0  0  0  0
   -1.1938   -0.6761    0.0000 C   0  0  0  0  0  0  0  0  0  0  0  0
   -2.0841   -1.1655   -0.0051 H   0  0  0  0  0  0  0  0  0  0  0  0
   -0.0127   -1.3959    0.0072 C   0  0  0  0  0  0  0  0  0  0  0  0
   -0.0311   -2.3907    0.0166 H   0  0  0  0  0  0  0  0  0  0  0  0
    1.1938   -0.7127    0.0000 C   0  0  0  0  0  0  0  0  0  0  0  0
    2.0693   -1.2136    0.0015 H   0  0  0  0  0  0  0  0  0  0  0  0
    1.1868    0.6732   -0.0073 C   0  0  0  0  0  0  0  0  0  0  0  0
    2.0709    1.1660   -0.0177 H   0  0  0  0  0  0  0  0  0  0  0  0
  1  5  1  0
  5  8  1  0
  1  2  1  0
  1  3  1  0
  1  4  1  0
  5  6  1  0
  5  7  1  0
  8  9  1  0
  8 10  1  0
  8 11  1  0
 12 16  1  0
 16 17  2  0
 17 19  1  0
 19 21  2  0
 21 23  1  0
 23 25  2  0
 25 16  1  0
 12 13  1  0
 12 14  1  0
 12 15  1  0
 17 18  1  0
 19 20  1  0
 21 22  1  0
 23 24  1  0
 25 26  1  0
M  CHG  1   8   1
M  END
>  <PDB_ID>  (1405) 
pdb1wuw

>  <RESIDUE_NAME>  (1405) 
LYS   PHE

>  <FRAG_NAME>  (1405) 
ETAM   MBZ

>  <FRAG_ATOM_NUM>  (1405) 
fragi: 11  fragj: 15

>  <atom.prop.CHAIN_ID>  (1405) 
A A A A A A A A A A A Z Z Z Z Z Z Z Z Z Z Z Z Z Z Z

>  <atom.prop.IS_HEAVY_ATOM>  (1405) 
1 0 0 0 1 0 0 1 0 0 0 1 0 0 0 1 1 0 1 0 1 0 1 0 1 0

>  <DIFUSE_FUNC_ATOM>  (1405) 
n/a

>  <FINAL_SINGLE_POINT_ENERGY>  (1405) 
0

>  <NONCOV_INTER_ENERGY_QM>  (1405) 
0

>  <FF_Energy>  (1405) 
-1.02

>  <QM_Energy>  (1405) 
-9.89

>  <source>  (1405) 
ETAM_MBZ

>  <Index>  (1405) 
14106

$$$$
ETAM-pdb1wty-A-LYS-103:MBZ-pdb1wty-A-PHE-74
     RDKit          3D

 26 25  0  0  0  0  0  0  0  0999 V2000
   -1.1087   -2.3722   -4.2869 C   0  0  0  0  0  0  0  0  0  0  0  0
   -1.4932   -3.0656   -4.8935 H   0  0  0  0  0  0  0  0  0  0  0  0
   -1.3164   -2.6001   -3.3378 H   0  0  0  0  0  0  0  0  0  0  0  0
   -0.0265   -2.3558   -4.4158 H   0  0  0  0  0  0  0  0  0  0  0  0
   -1.7472   -1.0342   -4.6145 C   0  0  0  0  0  0  0  0  0  0  0  0
   -1.5053   -0.7800   -5.5609 H   0  0  0  0  0  0  0  0  0  0  0  0
   -2.7509   -1.1298   -4.5640 H   0  0  0  0  0  0  0  0  0  0  0  0
   -1.3183    0.0572   -3.6956 N   0  0  0  0  0  4  0  0  0  0  0  0
   -0.3254    0.1571   -3.7419 H   0  0  0  0  0  0  0  0  0  0  0  0
   -1.7549    0.9124   -3.9722 H   0  0  0  0  0  0  0  0  0  0  0  0
   -1.5891   -0.1712   -2.7609 H   0  0  0  0  0  0  0  0  0  0  0  0
   -0.0004    2.9028    0.0477 C   0  0  0  0  0  0  0  0  0  0  0  0
   -0.5476    3.2344   -0.7040 H   0  0  0  0  0  0  0  0  0  0  0  0
    0.9346    3.2133   -0.0182 H   0  0  0  0  0  0  0  0  0  0  0  0
   -0.4208    3.3049    0.9695 H   0  0  0  0  0  0  0  0  0  0  0  0
    0.0005    1.4039    0.0001 C   0  0  0  0  0  0  0  0  0  0  0  0
   -1.1977    0.6959   -0.0009 C   0  0  0  0  0  0  0  0  0  0  0  0
   -2.0636    1.1834   -0.0039 H   0  0  0  0  0  0  0  0  0  0  0  0
   -1.1989   -0.6986    0.0000 C   0  0  0  0  0  0  0  0  0  0  0  0
   -2.0769   -1.1912   -0.0001 H   0  0  0  0  0  0  0  0  0  0  0  0
    0.0017   -1.3953    0.0027 C   0  0  0  0  0  0  0  0  0  0  0  0
   -0.0032   -2.3934    0.0063 H   0  0  0  0  0  0  0  0  0  0  0  0
    1.1989   -0.6993    0.0000 C   0  0  0  0  0  0  0  0  0  0  0  0
    2.0829   -1.1955    0.0009 H   0  0  0  0  0  0  0  0  0  0  0  0
    1.1955    0.6932   -0.0019 C   0  0  0  0  0  0  0  0  0  0  0  0
    2.0645    1.1875   -0.0050 H   0  0  0  0  0  0  0  0  0  0  0  0
  1  5  1  0
  5  8  1  0
  1  2  1  0
  1  3  1  0
  1  4  1  0
  5  6  1  0
  5  7  1  0
  8  9  1  0
  8 10  1  0
  8 11  1  0
 12 16  1  0
 16 17  2  0
 17 19  1  0
 19 21  2  0
 21 23  1  0
 23 25  2  0
 25 16  1  0
 12 13  1  0
 12 14  1  0
 12 15  1  0
 17 18  1  0
 19 20  1  0
 21 22  1  0
 23 24  1  0
 25 26  1  0
M  CHG  1   8   1
M  END
>  <PDB_ID>  (1406) 
pdb1wty

>  <RESIDUE_NAME>  (1406) 
LYS   PHE

>  <FRAG_NAME>  (1406) 
ETAM   MBZ

>  <FRAG_ATOM_NUM>  (1406) 
fragi: 11  fragj: 15

>  <atom.prop.CHAIN_ID>  (1406) 
A A A A A A A A A A A Z Z Z Z Z Z Z Z Z Z Z Z Z Z Z

>  <atom.prop.IS_HEAVY_ATOM>  (1406) 
1 0 0 0 1 0 0 1 0 0 0 1 0 0 0 1 1 0 1 0 1 0 1 0 1 0

>  <DIFUSE_FUNC_ATOM>  (1406) 
n/a

>  <FINAL_SINGLE_POINT_ENERGY>  (1406) 
0

>  <NONCOV_INTER_ENERGY_QM>  (1406) 
0

>  <FF_Energy>  (1406) 
-6.0

>  <QM_Energy>  (1406) 
-11.17

>  <source>  (1406) 
ETAM_MBZ

>  <Index>  (1406) 
14107

$$$$
ETAM-pdb1wqa-B-LYS-25:MBZ-pdb1wqa-B-PHE-132
     RDKit          3D

 26 25  0  0  0  0  0  0  0  0999 V2000
    0.9778   -1.3780   -4.2117 C   0  0  0  0  0  0  0  0  0  0  0  0
    0.6587   -1.7392   -5.0769 H   0  0  0  0  0  0  0  0  0  0  0  0
    0.9510   -2.0715   -3.5051 H   0  0  0  0  0  0  0  0  0  0  0  0
    2.0062   -1.0369   -4.3316 H   0  0  0  0  0  0  0  0  0  0  0  0
    0.0348   -0.2233   -3.7917 C   0  0  0  0  0  0  0  0  0  0  0  0
    0.3289    0.1226   -2.8924 H   0  0  0  0  0  0  0  0  0  0  0  0
    0.1234    0.5250   -4.4613 H   0  0  0  0  0  0  0  0  0  0  0  0
   -1.4418   -0.6126   -3.6974 N   0  0  0  0  0  4  0  0  0  0  0  0
   -1.7290   -0.9583   -4.5822 H   0  0  0  0  0  0  0  0  0  0  0  0
   -1.5348   -1.3134   -3.0000 H   0  0  0  0  0  0  0  0  0  0  0  0
   -1.9612    0.1968   -3.4520 H   0  0  0  0  0  0  0  0  0  0  0  0
    0.0015    2.9222    0.0466 C   0  0  0  0  0  0  0  0  0  0  0  0
    0.9000    3.2109    0.3476 H   0  0  0  0  0  0  0  0  0  0  0  0
   -0.6964    3.2069    0.6899 H   0  0  0  0  0  0  0  0  0  0  0  0
   -0.2049    3.4029   -0.9097 H   0  0  0  0  0  0  0  0  0  0  0  0
   -0.0033    1.4081    0.0050 C   0  0  0  0  0  0  0  0  0  0  0  0
   -1.1969    0.7042   -0.0013 C   0  0  0  0  0  0  0  0  0  0  0  0
   -2.0656    1.1911   -0.0085 H   0  0  0  0  0  0  0  0  0  0  0  0
   -1.2106   -0.6991    0.0000 C   0  0  0  0  0  0  0  0  0  0  0  0
   -2.0841   -1.1865    0.0049 H   0  0  0  0  0  0  0  0  0  0  0  0
    0.0021   -1.4079   -0.0037 C   0  0  0  0  0  0  0  0  0  0  0  0
   -0.0059   -2.3999   -0.0096 H   0  0  0  0  0  0  0  0  0  0  0  0
    1.2106   -0.7054    0.0000 C   0  0  0  0  0  0  0  0  0  0  0  0
    2.0892   -1.1946    0.0040 H   0  0  0  0  0  0  0  0  0  0  0  0
    1.1981    0.7000   -0.0001 C   0  0  0  0  0  0  0  0  0  0  0  0
    2.0653    1.1947   -0.0051 H   0  0  0  0  0  0  0  0  0  0  0  0
  1  5  1  0
  5  8  1  0
  1  2  1  0
  1  3  1  0
  1  4  1  0
  5  6  1  0
  5  7  1  0
  8  9  1  0
  8 10  1  0
  8 11  1  0
 12 16  1  0
 16 17  2  0
 17 19  1  0
 19 21  2  0
 21 23  1  0
 23 25  2  0
 25 16  1  0
 12 13  1  0
 12 14  1  0
 12 15  1  0
 17 18  1  0
 19 20  1  0
 21 22  1  0
 23 24  1  0
 25 26  1  0
M  CHG  1   8   1
M  END
>  <PDB_ID>  (1407) 
pdb1wqa

>  <RESIDUE_NAME>  (1407) 
LYS   PHE

>  <FRAG_NAME>  (1407) 
ETAM   MBZ

>  <FRAG_ATOM_NUM>  (1407) 
fragi: 11  fragj: 15

>  <atom.prop.CHAIN_ID>  (1407) 
A A A A A A A A A A A Z Z Z Z Z Z Z Z Z Z Z Z Z Z Z

>  <atom.prop.IS_HEAVY_ATOM>  (1407) 
1 0 0 0 1 0 0 1 0 0 0 1 0 0 0 1 1 0 1 0 1 0 1 0 1 0

>  <DIFUSE_FUNC_ATOM>  (1407) 
n/a

>  <FINAL_SINGLE_POINT_ENERGY>  (1407) 
0

>  <NONCOV_INTER_ENERGY_QM>  (1407) 
0

>  <FF_Energy>  (1407) 
-6.27

>  <QM_Energy>  (1407) 
-11.99

>  <source>  (1407) 
ETAM_MBZ

>  <Index>  (1407) 
14114

$$$$
ETAM-pdb3aw5-A-ALA-40:MBZ-pdb3aw5-A-PHE-211
     RDKit          3D

 26 25  0  0  0  0  0  0  0  0999 V2000
   -4.8141    1.7770   -0.5763 C   0  0  0  0  0  0  0  0  0  0  0  0
   -5.7708    1.8425   -0.8540 H   0  0  0  0  0  0  0  0  0  0  0  0
   -4.7252    1.1169    0.1676 H   0  0  0  0  0  0  0  0  0  0  0  0
   -4.4910    2.6715   -0.2712 H   0  0  0  0  0  0  0  0  0  0  0  0
   -3.9715    1.3138   -1.7671 C   0  0  0  0  0  0  0  0  0  0  0  0
   -3.0160    1.2309   -1.4670 H   0  0  0  0  0  0  0  0  0  0  0  0
   -4.3190    0.3415   -2.1164 H   0  0  0  0  0  0  0  0  0  0  0  0
   -4.0249    2.3399   -2.8560 N   0  0  0  0  0  4  0  0  0  0  0  0
   -4.9262    2.3162   -3.2797 H   0  0  0  0  0  0  0  0  0  0  0  0
   -3.8574    3.2393   -2.4623 H   0  0  0  0  0  0  0  0  0  0  0  0
   -3.3255    2.1307   -3.5330 H   0  0  0  0  0  0  0  0  0  0  0  0
    0.0021    2.9176    0.0244 C   0  0  0  0  0  0  0  0  0  0  0  0
    0.7713    3.2130    0.5718 H   0  0  0  0  0  0  0  0  0  0  0  0
   -0.8545    3.2161    0.4196 H   0  0  0  0  0  0  0  0  0  0  0  0
    0.0952    3.3790   -0.9587 H   0  0  0  0  0  0  0  0  0  0  0  0
    0.0009    1.4092    0.0012 C   0  0  0  0  0  0  0  0  0  0  0  0
   -1.1993    0.6977   -0.0008 C   0  0  0  0  0  0  0  0  0  0  0  0
   -2.0661    1.1859   -0.0039 H   0  0  0  0  0  0  0  0  0  0  0  0
   -1.2074   -0.7035    0.0000 C   0  0  0  0  0  0  0  0  0  0  0  0
   -2.0820   -1.1926    0.0015 H   0  0  0  0  0  0  0  0  0  0  0  0
   -0.0003   -1.4042   -0.0002 C   0  0  0  0  0  0  0  0  0  0  0  0
   -0.0020   -2.3990   -0.0011 H   0  0  0  0  0  0  0  0  0  0  0  0
    1.2074   -0.6994    0.0000 C   0  0  0  0  0  0  0  0  0  0  0  0
    2.0869   -1.1936    0.0016 H   0  0  0  0  0  0  0  0  0  0  0  0
    1.1986    0.7003   -0.0003 C   0  0  0  0  0  0  0  0  0  0  0  0
    2.0676    1.1946   -0.0020 H   0  0  0  0  0  0  0  0  0  0  0  0
  1  5  1  0
  5  8  1  0
  1  2  1  0
  1  3  1  0
  1  4  1  0
  5  6  1  0
  5  7  1  0
  8  9  1  0
  8 10  1  0
  8 11  1  0
 12 16  1  0
 16 17  2  0
 17 19  1  0
 19 21  2  0
 21 23  1  0
 23 25  2  0
 25 16  1  0
 12 13  1  0
 12 14  1  0
 12 15  1  0
 17 18  1  0
 19 20  1  0
 21 22  1  0
 23 24  1  0
 25 26  1  0
M  CHG  1   8   1
M  END
>  <PDB_ID>  (1408) 
pdb3aw5

>  <RESIDUE_NAME>  (1408) 
ALA   PHE

>  <FRAG_NAME>  (1408) 
ETAM   MBZ

>  <FRAG_ATOM_NUM>  (1408) 
fragi: 11  fragj: 15

>  <atom.prop.CHAIN_ID>  (1408) 
A A A A A A A A A A A Z Z Z Z Z Z Z Z Z Z Z Z Z Z Z

>  <atom.prop.IS_HEAVY_ATOM>  (1408) 
1 0 0 0 1 0 0 1 0 0 0 1 0 0 0 1 1 0 1 0 1 0 1 0 1 0

>  <DIFUSE_FUNC_ATOM>  (1408) 
n/a

>  <FINAL_SINGLE_POINT_ENERGY>  (1408) 
0

>  <NONCOV_INTER_ENERGY_QM>  (1408) 
0

>  <FF_Energy>  (1408) 
6.23

>  <QM_Energy>  (1408) 
-1.75

>  <source>  (1408) 
ETAM_MBZ

>  <Index>  (1408) 
14129

$$$$
ETAM-pdb3avx-A-LYS-766:MBZ-pdb3avx-A-PHE-749
     RDKit          3D

 26 25  0  0  0  0  0  0  0  0999 V2000
   -0.1246   -0.9152    3.6273 C   0  0  0  0  0  0  0  0  0  0  0  0
   -0.1060   -1.3865    4.5032 H   0  0  0  0  0  0  0  0  0  0  0  0
   -0.1989   -1.5702    2.8824 H   0  0  0  0  0  0  0  0  0  0  0  0
   -0.9875   -0.2499    3.6019 H   0  0  0  0  0  0  0  0  0  0  0  0
    1.1901   -0.1470    3.4643 C   0  0  0  0  0  0  0  0  0  0  0  0
    1.1868    0.3111    2.5739 H   0  0  0  0  0  0  0  0  0  0  0  0
    1.2537    0.5400    4.1892 H   0  0  0  0  0  0  0  0  0  0  0  0
    2.3745   -1.0565    3.5447 N   0  0  0  0  0  4  0  0  0  0  0  0
    2.4120   -1.4666    4.4536 H   0  0  0  0  0  0  0  0  0  0  0  0
    2.2849   -1.7726    2.8549 H   0  0  0  0  0  0  0  0  0  0  0  0
    3.2049   -0.5284    3.3778 H   0  0  0  0  0  0  0  0  0  0  0  0
   -0.0065    2.8922   -0.0150 C   0  0  0  0  0  0  0  0  0  0  0  0
    0.7458    3.2087    0.5450 H   0  0  0  0  0  0  0  0  0  0  0  0
   -0.8749    3.2022    0.3460 H   0  0  0  0  0  0  0  0  0  0  0  0
    0.1136    3.3261   -1.0078 H   0  0  0  0  0  0  0  0  0  0  0  0
   -0.0023    1.3981   -0.0038 C   0  0  0  0  0  0  0  0  0  0  0  0
   -1.1940    0.6912    0.0049 C   0  0  0  0  0  0  0  0  0  0  0  0
   -2.0639    1.1766    0.0131 H   0  0  0  0  0  0  0  0  0  0  0  0
   -1.1979   -0.7049   -0.0000 C   0  0  0  0  0  0  0  0  0  0  0  0
   -2.0735   -1.1961   -0.0040 H   0  0  0  0  0  0  0  0  0  0  0  0
    0.0045   -1.3933    0.0028 C   0  0  0  0  0  0  0  0  0  0  0  0
    0.0074   -2.3912    0.0065 H   0  0  0  0  0  0  0  0  0  0  0  0
    1.1979   -0.6883   -0.0000 C   0  0  0  0  0  0  0  0  0  0  0  0
    2.0845   -1.1848    0.0017 H   0  0  0  0  0  0  0  0  0  0  0  0
    1.1918    0.6971   -0.0039 C   0  0  0  0  0  0  0  0  0  0  0  0
    2.0598    1.1962   -0.0075 H   0  0  0  0  0  0  0  0  0  0  0  0
  1  5  1  0
  5  8  1  0
  1  2  1  0
  1  3  1  0
  1  4  1  0
  5  6  1  0
  5  7  1  0
  8  9  1  0
  8 10  1  0
  8 11  1  0
 12 16  1  0
 16 17  2  0
 17 19  1  0
 19 21  2  0
 21 23  1  0
 23 25  2  0
 25 16  1  0
 12 13  1  0
 12 14  1  0
 12 15  1  0
 17 18  1  0
 19 20  1  0
 21 22  1  0
 23 24  1  0
 25 26  1  0
M  CHG  1   8   1
M  END
>  <PDB_ID>  (1409) 
pdb3avx

>  <RESIDUE_NAME>  (1409) 
LYS   PHE

>  <FRAG_NAME>  (1409) 
ETAM   MBZ

>  <FRAG_ATOM_NUM>  (1409) 
fragi: 11  fragj: 15

>  <atom.prop.CHAIN_ID>  (1409) 
A A A A A A A A A A A Z Z Z Z Z Z Z Z Z Z Z Z Z Z Z

>  <atom.prop.IS_HEAVY_ATOM>  (1409) 
1 0 0 0 1 0 0 1 0 0 0 1 0 0 0 1 1 0 1 0 1 0 1 0 1 0

>  <DIFUSE_FUNC_ATOM>  (1409) 
n/a

>  <FINAL_SINGLE_POINT_ENERGY>  (1409) 
0

>  <NONCOV_INTER_ENERGY_QM>  (1409) 
0

>  <FF_Energy>  (1409) 
-4.29

>  <QM_Energy>  (1409) 
-9.71

>  <source>  (1409) 
ETAM_MBZ

>  <Index>  (1409) 
14131

$$$$
ETAM-pdb1wu4-A-LYS-298:MBZ-pdb1wu4-A-PHE-294
     RDKit          3D

 26 25  0  0  0  0  0  0  0  0999 V2000
    1.8495   -1.1151    3.9873 C   0  0  0  0  0  0  0  0  0  0  0  0
    2.1014   -0.3104    3.4653 H   0  0  0  0  0  0  0  0  0  0  0  0
    2.5041   -1.8465    3.8478 H   0  0  0  0  0  0  0  0  0  0  0  0
    1.8224   -0.8573    5.0461 H   0  0  0  0  0  0  0  0  0  0  0  0
    0.4831   -1.5917    3.5161 C   0  0  0  0  0  0  0  0  0  0  0  0
    0.5287   -1.7868    2.5318 H   0  0  0  0  0  0  0  0  0  0  0  0
    0.2486   -2.4387    4.0025 H   0  0  0  0  0  0  0  0  0  0  0  0
   -0.5791   -0.5768    3.7634 N   0  0  0  0  0  4  0  0  0  0  0  0
   -0.4653    0.1838    3.1248 H   0  0  0  0  0  0  0  0  0  0  0  0
   -1.4763   -0.9970    3.6285 H   0  0  0  0  0  0  0  0  0  0  0  0
   -0.5039   -0.2417    4.7017 H   0  0  0  0  0  0  0  0  0  0  0  0
   -0.0021    2.8999    0.0476 C   0  0  0  0  0  0  0  0  0  0  0  0
   -0.6807    3.2275   -0.5902 H   0  0  0  0  0  0  0  0  0  0  0  0
    0.9031    3.2165   -0.1897 H   0  0  0  0  0  0  0  0  0  0  0  0
   -0.2481    3.3016    1.0305 H   0  0  0  0  0  0  0  0  0  0  0  0
   -0.0003    1.4024    0.0008 C   0  0  0  0  0  0  0  0  0  0  0  0
   -1.1967    0.6947    0.0000 C   0  0  0  0  0  0  0  0  0  0  0  0
   -2.0636    1.1857   -0.0014 H   0  0  0  0  0  0  0  0  0  0  0  0
   -1.2024   -0.6956   -0.0000 C   0  0  0  0  0  0  0  0  0  0  0  0
   -2.0793   -1.1890    0.0012 H   0  0  0  0  0  0  0  0  0  0  0  0
   -0.0012   -1.3957    0.0002 C   0  0  0  0  0  0  0  0  0  0  0  0
   -0.0059   -2.3929   -0.0002 H   0  0  0  0  0  0  0  0  0  0  0  0
    1.2024   -0.6994    0.0000 C   0  0  0  0  0  0  0  0  0  0  0  0
    2.0826   -1.1974    0.0025 H   0  0  0  0  0  0  0  0  0  0  0  0
    1.1982    0.6936   -0.0010 C   0  0  0  0  0  0  0  0  0  0  0  0
    2.0660    1.1894   -0.0042 H   0  0  0  0  0  0  0  0  0  0  0  0
  1  5  1  0
  5  8  1  0
  1  2  1  0
  1  3  1  0
  1  4  1  0
  5  6  1  0
  5  7  1  0
  8  9  1  0
  8 10  1  0
  8 11  1  0
 12 16  1  0
 16 17  2  0
 17 19  1  0
 19 21  2  0
 21 23  1  0
 23 25  2  0
 25 16  1  0
 12 13  1  0
 12 14  1  0
 12 15  1  0
 17 18  1  0
 19 20  1  0
 21 22  1  0
 23 24  1  0
 25 26  1  0
M  CHG  1   8   1
M  END
>  <PDB_ID>  (1410) 
pdb1wu4

>  <RESIDUE_NAME>  (1410) 
LYS   PHE

>  <FRAG_NAME>  (1410) 
ETAM   MBZ

>  <FRAG_ATOM_NUM>  (1410) 
fragi: 11  fragj: 15

>  <atom.prop.CHAIN_ID>  (1410) 
A A A A A A A A A A A Z Z Z Z Z Z Z Z Z Z Z Z Z Z Z

>  <atom.prop.IS_HEAVY_ATOM>  (1410) 
1 0 0 0 1 0 0 1 0 0 0 1 0 0 0 1 1 0 1 0 1 0 1 0 1 0

>  <DIFUSE_FUNC_ATOM>  (1410) 
n/a

>  <FINAL_SINGLE_POINT_ENERGY>  (1410) 
0

>  <NONCOV_INTER_ENERGY_QM>  (1410) 
0

>  <FF_Energy>  (1410) 
-6.32

>  <QM_Energy>  (1410) 
-11.77

>  <source>  (1410) 
ETAM_MBZ

>  <Index>  (1410) 
14135

$$$$
ETAM-pdb1wvg-A-LYS-272:MBZ-pdb1wvg-A-PHE-276
     RDKit          3D

 26 25  0  0  0  0  0  0  0  0999 V2000
   -0.6486    0.0811   -3.9216 C   0  0  0  0  0  0  0  0  0  0  0  0
   -0.9125    0.4755   -3.0298 H   0  0  0  0  0  0  0  0  0  0  0  0
   -1.3263    0.3847   -4.6065 H   0  0  0  0  0  0  0  0  0  0  0  0
    0.3259    0.4825   -4.1998 H   0  0  0  0  0  0  0  0  0  0  0  0
   -0.7266   -1.4381   -3.8136 C   0  0  0  0  0  0  0  0  0  0  0  0
   -0.7498   -1.8282   -4.7501 H   0  0  0  0  0  0  0  0  0  0  0  0
    0.1220   -1.7752   -3.3702 H   0  0  0  0  0  0  0  0  0  0  0  0
   -1.9033   -1.9474   -3.0504 N   0  0  0  0  0  4  0  0  0  0  0  0
   -1.9113   -1.5333   -2.1414 H   0  0  0  0  0  0  0  0  0  0  0  0
   -2.7412   -1.7058   -3.5369 H   0  0  0  0  0  0  0  0  0  0  0  0
   -1.8376   -2.9403   -2.9673 H   0  0  0  0  0  0  0  0  0  0  0  0
   -0.0395    2.9169    0.0418 C   0  0  0  0  0  0  0  0  0  0  0  0
   -0.8817    3.2110   -0.3473 H   0  0  0  0  0  0  0  0  0  0  0  0
    0.7492    3.2521   -0.4200 H   0  0  0  0  0  0  0  0  0  0  0  0
   -0.0030    3.2770    1.0699 H   0  0  0  0  0  0  0  0  0  0  0  0
   -0.0025    1.4130    0.0117 C   0  0  0  0  0  0  0  0  0  0  0  0
   -1.1969    0.6887    0.0039 C   0  0  0  0  0  0  0  0  0  0  0  0
   -2.0688    1.1804   -0.0001 H   0  0  0  0  0  0  0  0  0  0  0  0
   -1.2117   -0.7081   -0.0000 C   0  0  0  0  0  0  0  0  0  0  0  0
   -2.0795   -1.1983   -0.0031 H   0  0  0  0  0  0  0  0  0  0  0  0
    0.0027   -1.3965    0.0025 C   0  0  0  0  0  0  0  0  0  0  0  0
    0.0043   -2.3969    0.0059 H   0  0  0  0  0  0  0  0  0  0  0  0
    1.2117   -0.6965   -0.0000 C   0  0  0  0  0  0  0  0  0  0  0  0
    2.0890   -1.1891    0.0128 H   0  0  0  0  0  0  0  0  0  0  0  0
    1.1968    0.6994   -0.0181 C   0  0  0  0  0  0  0  0  0  0  0  0
    2.0645    1.1983   -0.0542 H   0  0  0  0  0  0  0  0  0  0  0  0
  1  5  1  0
  5  8  1  0
  1  2  1  0
  1  3  1  0
  1  4  1  0
  5  6  1  0
  5  7  1  0
  8  9  1  0
  8 10  1  0
  8 11  1  0
 12 16  1  0
 16 17  2  0
 17 19  1  0
 19 21  2  0
 21 23  1  0
 23 25  2  0
 25 16  1  0
 12 13  1  0
 12 14  1  0
 12 15  1  0
 17 18  1  0
 19 20  1  0
 21 22  1  0
 23 24  1  0
 25 26  1  0
M  CHG  1   8   1
M  END
>  <PDB_ID>  (1411) 
pdb1wvg

>  <RESIDUE_NAME>  (1411) 
LYS   PHE

>  <FRAG_NAME>  (1411) 
ETAM   MBZ

>  <FRAG_ATOM_NUM>  (1411) 
fragi: 11  fragj: 15

>  <atom.prop.CHAIN_ID>  (1411) 
A A A A A A A A A A A Z Z Z Z Z Z Z Z Z Z Z Z Z Z Z

>  <atom.prop.IS_HEAVY_ATOM>  (1411) 
1 0 0 0 1 0 0 1 0 0 0 1 0 0 0 1 1 0 1 0 1 0 1 0 1 0

>  <DIFUSE_FUNC_ATOM>  (1411) 
n/a

>  <FINAL_SINGLE_POINT_ENERGY>  (1411) 
0

>  <NONCOV_INTER_ENERGY_QM>  (1411) 
0

>  <FF_Energy>  (1411) 
-4.72

>  <QM_Energy>  (1411) 
-12.16

>  <source>  (1411) 
ETAM_MBZ

>  <Index>  (1411) 
14141

$$$$
ETAM-pdb1wvi-A-LYS-1170:MBZ-pdb1wvi-D-PHE-4166
     RDKit          3D

 26 25  0  0  0  0  0  0  0  0999 V2000
    1.7391    0.6648    3.7131 C   0  0  0  0  0  0  0  0  0  0  0  0
    2.4742    0.2926    3.1580 H   0  0  0  0  0  0  0  0  0  0  0  0
    1.9439    0.5626    4.6792 H   0  0  0  0  0  0  0  0  0  0  0  0
    1.6372    1.7264    3.4881 H   0  0  0  0  0  0  0  0  0  0  0  0
    0.4600   -0.0876    3.4013 C   0  0  0  0  0  0  0  0  0  0  0  0
   -0.2652    0.2293    4.0142 H   0  0  0  0  0  0  0  0  0  0  0  0
    0.1948    0.0941    2.4539 H   0  0  0  0  0  0  0  0  0  0  0  0
    0.6411   -1.5586    3.5822 N   0  0  0  0  0  4  0  0  0  0  0  0
    0.2328   -1.8360    4.4504 H   0  0  0  0  0  0  0  0  0  0  0  0
    0.1937   -2.0406    2.8305 H   0  0  0  0  0  0  0  0  0  0  0  0
    1.6167   -1.7723    3.5851 H   0  0  0  0  0  0  0  0  0  0  0  0
   -0.0130    2.9084   -0.0903 C   0  0  0  0  0  0  0  0  0  0  0  0
    0.9170    3.2293   -0.0260 H   0  0  0  0  0  0  0  0  0  0  0  0
   -0.5738    3.2599    0.6401 H   0  0  0  0  0  0  0  0  0  0  0  0
   -0.4255    3.2757   -1.0300 H   0  0  0  0  0  0  0  0  0  0  0  0
   -0.0035    1.4164   -0.0008 C   0  0  0  0  0  0  0  0  0  0  0  0
   -1.2077    0.7024    0.0044 C   0  0  0  0  0  0  0  0  0  0  0  0
   -2.0720    1.1879    0.0100 H   0  0  0  0  0  0  0  0  0  0  0  0
   -1.2105   -0.7017   -0.0000 C   0  0  0  0  0  0  0  0  0  0  0  0
   -2.0799   -1.1970    0.0013 H   0  0  0  0  0  0  0  0  0  0  0  0
    0.0108   -1.4105   -0.0053 C   0  0  0  0  0  0  0  0  0  0  0  0
   -0.0039   -2.4041   -0.0133 H   0  0  0  0  0  0  0  0  0  0  0  0
    1.2105   -0.7120    0.0000 C   0  0  0  0  0  0  0  0  0  0  0  0
    2.0945   -1.1935    0.0043 H   0  0  0  0  0  0  0  0  0  0  0  0
    1.2004    0.7053    0.0017 C   0  0  0  0  0  0  0  0  0  0  0  0
    2.0680    1.1935    0.0036 H   0  0  0  0  0  0  0  0  0  0  0  0
  1  5  1  0
  5  8  1  0
  1  2  1  0
  1  3  1  0
  1  4  1  0
  5  6  1  0
  5  7  1  0
  8  9  1  0
  8 10  1  0
  8 11  1  0
 12 16  1  0
 16 17  2  0
 17 19  1  0
 19 21  2  0
 21 23  1  0
 23 25  2  0
 25 16  1  0
 12 13  1  0
 12 14  1  0
 12 15  1  0
 17 18  1  0
 19 20  1  0
 21 22  1  0
 23 24  1  0
 25 26  1  0
M  CHG  1   8   1
M  END
>  <PDB_ID>  (1412) 
pdb1wvi

>  <RESIDUE_NAME>  (1412) 
LYS   PHE

>  <FRAG_NAME>  (1412) 
ETAM   MBZ

>  <FRAG_ATOM_NUM>  (1412) 
fragi: 11  fragj: 15

>  <atom.prop.CHAIN_ID>  (1412) 
A A A A A A A A A A A Z Z Z Z Z Z Z Z Z Z Z Z Z Z Z

>  <atom.prop.IS_HEAVY_ATOM>  (1412) 
1 0 0 0 1 0 0 1 0 0 0 1 0 0 0 1 1 0 1 0 1 0 1 0 1 0

>  <DIFUSE_FUNC_ATOM>  (1412) 
n/a

>  <FINAL_SINGLE_POINT_ENERGY>  (1412) 
0

>  <NONCOV_INTER_ENERGY_QM>  (1412) 
0

>  <FF_Energy>  (1412) 
-5.94

>  <QM_Energy>  (1412) 
-13.43

>  <source>  (1412) 
ETAM_MBZ

>  <Index>  (1412) 
14146

$$$$
ETAM-pdb1wvi-D-LYS-4170:MBZ-pdb1wvi-A-PHE-1166
     RDKit          3D

 26 25  0  0  0  0  0  0  0  0999 V2000
    1.7052    0.5271    3.7636 C   0  0  0  0  0  0  0  0  0  0  0  0
    2.4390    0.1682    3.1985 H   0  0  0  0  0  0  0  0  0  0  0  0
    1.9172    0.4134    4.7269 H   0  0  0  0  0  0  0  0  0  0  0  0
    1.5911    1.5904    3.5531 H   0  0  0  0  0  0  0  0  0  0  0  0
    0.4274   -0.2430    3.4510 C   0  0  0  0  0  0  0  0  0  0  0  0
   -0.3016    0.0816    4.0550 H   0  0  0  0  0  0  0  0  0  0  0  0
    0.1697   -0.0704    2.4995 H   0  0  0  0  0  0  0  0  0  0  0  0
    0.6180   -1.7046    3.6511 N   0  0  0  0  0  4  0  0  0  0  0  0
    1.3461   -2.0296    3.0482 H   0  0  0  0  0  0  0  0  0  0  0  0
    0.8680   -1.8797    4.6027 H   0  0  0  0  0  0  0  0  0  0  0  0
   -0.2330   -2.1832    3.4363 H   0  0  0  0  0  0  0  0  0  0  0  0
   -0.0130    2.9146   -0.0965 C   0  0  0  0  0  0  0  0  0  0  0  0
    0.9187    3.2330   -0.0354 H   0  0  0  0  0  0  0  0  0  0  0  0
   -0.5677    3.2652    0.6401 H   0  0  0  0  0  0  0  0  0  0  0  0
   -0.4314    3.2792   -1.0347 H   0  0  0  0  0  0  0  0  0  0  0  0
   -0.0024    1.4199   -0.0016 C   0  0  0  0  0  0  0  0  0  0  0  0
   -1.2080    0.7095    0.0049 C   0  0  0  0  0  0  0  0  0  0  0  0
   -2.0725    1.1972    0.0122 H   0  0  0  0  0  0  0  0  0  0  0  0
   -1.2195   -0.6996   -0.0000 C   0  0  0  0  0  0  0  0  0  0  0  0
   -2.0889   -1.1900    0.0008 H   0  0  0  0  0  0  0  0  0  0  0  0
    0.0040   -1.4187   -0.0041 C   0  0  0  0  0  0  0  0  0  0  0  0
   -0.0106   -2.4078   -0.0105 H   0  0  0  0  0  0  0  0  0  0  0  0
    1.2195   -0.7162   -0.0000 C   0  0  0  0  0  0  0  0  0  0  0  0
    2.0954   -1.2006    0.0039 H   0  0  0  0  0  0  0  0  0  0  0  0
    1.2065    0.7052    0.0008 C   0  0  0  0  0  0  0  0  0  0  0  0
    2.0724    1.1948    0.0025 H   0  0  0  0  0  0  0  0  0  0  0  0
  1  5  1  0
  5  8  1  0
  1  2  1  0
  1  3  1  0
  1  4  1  0
  5  6  1  0
  5  7  1  0
  8  9  1  0
  8 10  1  0
  8 11  1  0
 12 16  1  0
 16 17  2  0
 17 19  1  0
 19 21  2  0
 21 23  1  0
 23 25  2  0
 25 16  1  0
 12 13  1  0
 12 14  1  0
 12 15  1  0
 17 18  1  0
 19 20  1  0
 21 22  1  0
 23 24  1  0
 25 26  1  0
M  CHG  1   8   1
M  END
>  <PDB_ID>  (1413) 
pdb1wvi

>  <RESIDUE_NAME>  (1413) 
LYS   PHE

>  <FRAG_NAME>  (1413) 
ETAM   MBZ

>  <FRAG_ATOM_NUM>  (1413) 
fragi: 11  fragj: 15

>  <atom.prop.CHAIN_ID>  (1413) 
A A A A A A A A A A A Z Z Z Z Z Z Z Z Z Z Z Z Z Z Z

>  <atom.prop.IS_HEAVY_ATOM>  (1413) 
1 0 0 0 1 0 0 1 0 0 0 1 0 0 0 1 1 0 1 0 1 0 1 0 1 0

>  <DIFUSE_FUNC_ATOM>  (1413) 
n/a

>  <FINAL_SINGLE_POINT_ENERGY>  (1413) 
0

>  <NONCOV_INTER_ENERGY_QM>  (1413) 
0

>  <FF_Energy>  (1413) 
-5.7

>  <QM_Energy>  (1413) 
-12.49

>  <source>  (1413) 
ETAM_MBZ

>  <Index>  (1413) 
14149

$$$$
ETAM-pdb1wqa-C-LYS-25:MBZ-pdb1wqa-C-PHE-132
     RDKit          3D

 26 25  0  0  0  0  0  0  0  0999 V2000
    0.9160   -1.4238   -4.2211 C   0  0  0  0  0  0  0  0  0  0  0  0
    0.5969   -1.7319   -5.1085 H   0  0  0  0  0  0  0  0  0  0  0  0
    0.8257   -2.1439   -3.5446 H   0  0  0  0  0  0  0  0  0  0  0  0
    1.9668   -1.1457   -4.3026 H   0  0  0  0  0  0  0  0  0  0  0  0
    0.0216   -0.2310   -3.7761 C   0  0  0  0  0  0  0  0  0  0  0  0
    0.3495    0.1032   -2.8839 H   0  0  0  0  0  0  0  0  0  0  0  0
    0.1195    0.5146   -4.4473 H   0  0  0  0  0  0  0  0  0  0  0  0
   -1.4854   -0.5560   -3.6402 N   0  0  0  0  0  4  0  0  0  0  0  0
   -1.5664   -1.4111   -3.1484 H   0  0  0  0  0  0  0  0  0  0  0  0
   -1.9102    0.1853   -3.1403 H   0  0  0  0  0  0  0  0  0  0  0  0
   -1.8611   -0.6322   -4.5527 H   0  0  0  0  0  0  0  0  0  0  0  0
   -0.0022    2.9093    0.0451 C   0  0  0  0  0  0  0  0  0  0  0  0
    0.8845    3.2055    0.3691 H   0  0  0  0  0  0  0  0  0  0  0  0
   -0.7211    3.1898    0.6657 H   0  0  0  0  0  0  0  0  0  0  0  0
   -0.1849    3.3844   -0.9187 H   0  0  0  0  0  0  0  0  0  0  0  0
    0.0029    1.4062   -0.0053 C   0  0  0  0  0  0  0  0  0  0  0  0
   -1.1980    0.7033    0.0000 C   0  0  0  0  0  0  0  0  0  0  0  0
   -2.0632    1.1977    0.0028 H   0  0  0  0  0  0  0  0  0  0  0  0
   -1.2155   -0.6939    0.0000 C   0  0  0  0  0  0  0  0  0  0  0  0
   -2.0936   -1.1802   -0.0041 H   0  0  0  0  0  0  0  0  0  0  0  0
   -0.0112   -1.4089    0.0071 C   0  0  0  0  0  0  0  0  0  0  0  0
   -0.0156   -2.3985    0.0165 H   0  0  0  0  0  0  0  0  0  0  0  0
    1.2155   -0.7048   -0.0000 C   0  0  0  0  0  0  0  0  0  0  0  0
    2.0852   -1.2041   -0.0017 H   0  0  0  0  0  0  0  0  0  0  0  0
    1.2064    0.6981   -0.0019 C   0  0  0  0  0  0  0  0  0  0  0  0
    2.0719    1.1927   -0.0016 H   0  0  0  0  0  0  0  0  0  0  0  0
  1  5  1  0
  5  8  1  0
  1  2  1  0
  1  3  1  0
  1  4  1  0
  5  6  1  0
  5  7  1  0
  8  9  1  0
  8 10  1  0
  8 11  1  0
 12 16  1  0
 16 17  2  0
 17 19  1  0
 19 21  2  0
 21 23  1  0
 23 25  2  0
 25 16  1  0
 12 13  1  0
 12 14  1  0
 12 15  1  0
 17 18  1  0
 19 20  1  0
 21 22  1  0
 23 24  1  0
 25 26  1  0
M  CHG  1   8   1
M  END
>  <PDB_ID>  (1414) 
pdb1wqa

>  <RESIDUE_NAME>  (1414) 
LYS   PHE

>  <FRAG_NAME>  (1414) 
ETAM   MBZ

>  <FRAG_ATOM_NUM>  (1414) 
fragi: 11  fragj: 15

>  <atom.prop.CHAIN_ID>  (1414) 
A A A A A A A A A A A Z Z Z Z Z Z Z Z Z Z Z Z Z Z Z

>  <atom.prop.IS_HEAVY_ATOM>  (1414) 
1 0 0 0 1 0 0 1 0 0 0 1 0 0 0 1 1 0 1 0 1 0 1 0 1 0

>  <DIFUSE_FUNC_ATOM>  (1414) 
n/a

>  <FINAL_SINGLE_POINT_ENERGY>  (1414) 
0

>  <NONCOV_INTER_ENERGY_QM>  (1414) 
0

>  <FF_Energy>  (1414) 
-6.37

>  <QM_Energy>  (1414) 
-12.14

>  <source>  (1414) 
ETAM_MBZ

>  <Index>  (1414) 
14165

$$$$
ETAM-pdb3axs-A-LYS-55:MBZ-pdb3axs-A-PHE-124
     RDKit          3D

 26 25  0  0  0  0  0  0  0  0999 V2000
   -0.6905   -0.4085   -3.4574 C   0  0  0  0  0  0  0  0  0  0  0  0
   -0.7713    0.4495   -2.9703 H   0  0  0  0  0  0  0  0  0  0  0  0
   -0.7264   -1.1774   -2.8357 H   0  0  0  0  0  0  0  0  0  0  0  0
   -1.5068   -0.4896   -4.1751 H   0  0  0  0  0  0  0  0  0  0  0  0
    0.6535   -0.4320   -4.1782 C   0  0  0  0  0  0  0  0  0  0  0  0
    0.7074   -1.2709   -4.7336 H   0  0  0  0  0  0  0  0  0  0  0  0
    0.7005    0.3609   -4.7990 H   0  0  0  0  0  0  0  0  0  0  0  0
    1.8114   -0.3901   -3.2452 N   0  0  0  0  0  4  0  0  0  0  0  0
    1.7352    0.4148   -2.6570 H   0  0  0  0  0  0  0  0  0  0  0  0
    1.8147   -1.2164   -2.6832 H   0  0  0  0  0  0  0  0  0  0  0  0
    2.6605   -0.3401   -3.7715 H   0  0  0  0  0  0  0  0  0  0  0  0
   -0.0020    2.9048    0.0067 C   0  0  0  0  0  0  0  0  0  0  0  0
   -0.7257    3.2117   -0.5917 H   0  0  0  0  0  0  0  0  0  0  0  0
    0.8827    3.2115   -0.3076 H   0  0  0  0  0  0  0  0  0  0  0  0
   -0.1760    3.3395    0.9911 H   0  0  0  0  0  0  0  0  0  0  0  0
   -0.0006    1.3977    0.0014 C   0  0  0  0  0  0  0  0  0  0  0  0
   -1.1927    0.6896   -0.0015 C   0  0  0  0  0  0  0  0  0  0  0  0
   -2.0610    1.1801   -0.0062 H   0  0  0  0  0  0  0  0  0  0  0  0
   -1.1956   -0.6965   -0.0000 C   0  0  0  0  0  0  0  0  0  0  0  0
   -2.0734   -1.1915    0.0023 H   0  0  0  0  0  0  0  0  0  0  0  0
    0.0013   -1.3881    0.0007 C   0  0  0  0  0  0  0  0  0  0  0  0
   -0.0020   -2.3889    0.0010 H   0  0  0  0  0  0  0  0  0  0  0  0
    1.1956   -0.6933   -0.0000 C   0  0  0  0  0  0  0  0  0  0  0  0
    2.0796   -1.1919    0.0011 H   0  0  0  0  0  0  0  0  0  0  0  0
    1.1921    0.6907   -0.0006 C   0  0  0  0  0  0  0  0  0  0  0  0
    2.0610    1.1883   -0.0031 H   0  0  0  0  0  0  0  0  0  0  0  0
  1  5  1  0
  5  8  1  0
  1  2  1  0
  1  3  1  0
  1  4  1  0
  5  6  1  0
  5  7  1  0
  8  9  1  0
  8 10  1  0
  8 11  1  0
 12 16  1  0
 16 17  2  0
 17 19  1  0
 19 21  2  0
 21 23  1  0
 23 25  2  0
 25 16  1  0
 12 13  1  0
 12 14  1  0
 12 15  1  0
 17 18  1  0
 19 20  1  0
 21 22  1  0
 23 24  1  0
 25 26  1  0
M  CHG  1   8   1
M  END
>  <PDB_ID>  (1415) 
pdb3axs

>  <RESIDUE_NAME>  (1415) 
LYS   PHE

>  <FRAG_NAME>  (1415) 
ETAM   MBZ

>  <FRAG_ATOM_NUM>  (1415) 
fragi: 11  fragj: 15

>  <atom.prop.CHAIN_ID>  (1415) 
A A A A A A A A A A A Z Z Z Z Z Z Z Z Z Z Z Z Z Z Z

>  <atom.prop.IS_HEAVY_ATOM>  (1415) 
1 0 0 0 1 0 0 1 0 0 0 1 0 0 0 1 1 0 1 0 1 0 1 0 1 0

>  <DIFUSE_FUNC_ATOM>  (1415) 
n/a

>  <FINAL_SINGLE_POINT_ENERGY>  (1415) 
0

>  <NONCOV_INTER_ENERGY_QM>  (1415) 
0

>  <FF_Energy>  (1415) 
-6.4

>  <QM_Energy>  (1415) 
-12.8

>  <source>  (1415) 
ETAM_MBZ

>  <Index>  (1415) 
14167

$$$$
ETAM-pdb3awj-A-LYS-333:MBZ-pdb3awj-A-PHE-375
     RDKit          3D

 26 25  0  0  0  0  0  0  0  0999 V2000
    2.6860   -2.3476    3.7015 C   0  0  0  0  0  0  0  0  0  0  0  0
    3.1577   -1.4773    3.8389 H   0  0  0  0  0  0  0  0  0  0  0  0
    3.0494   -2.8001    2.8878 H   0  0  0  0  0  0  0  0  0  0  0  0
    2.8851   -2.9835    4.5641 H   0  0  0  0  0  0  0  0  0  0  0  0
    1.2311   -2.0983    3.5208 C   0  0  0  0  0  0  0  0  0  0  0  0
    0.8714   -1.5834    4.3248 H   0  0  0  0  0  0  0  0  0  0  0  0
    1.0863   -1.4966    2.7088 H   0  0  0  0  0  0  0  0  0  0  0  0
    0.3974   -3.3255    3.3440 N   0  0  0  0  0  4  0  0  0  0  0  0
    0.9221   -4.1246    3.6329 H   0  0  0  0  0  0  0  0  0  0  0  0
   -0.4279   -3.2451    3.9007 H   0  0  0  0  0  0  0  0  0  0  0  0
    0.1471   -3.4170    2.3815 H   0  0  0  0  0  0  0  0  0  0  0  0
    0.0019    2.9381   -0.0506 C   0  0  0  0  0  0  0  0  0  0  0  0
    0.9350    3.2437    0.0490 H   0  0  0  0  0  0  0  0  0  0  0  0
   -0.5693    3.2672    0.6842 H   0  0  0  0  0  0  0  0  0  0  0  0
   -0.3862    3.3457   -0.9840 H   0  0  0  0  0  0  0  0  0  0  0  0
    0.0002    1.4290   -0.0009 C   0  0  0  0  0  0  0  0  0  0  0  0
   -1.2169    0.7082   -0.0005 C   0  0  0  0  0  0  0  0  0  0  0  0
   -2.0784    1.1940   -0.0023 H   0  0  0  0  0  0  0  0  0  0  0  0
   -1.2305   -0.7157   -0.0000 C   0  0  0  0  0  0  0  0  0  0  0  0
   -2.0961   -1.2000    0.0017 H   0  0  0  0  0  0  0  0  0  0  0  0
    0.0006   -1.4276   -0.0009 C   0  0  0  0  0  0  0  0  0  0  0  0
   -0.0000   -2.4136   -0.0019 H   0  0  0  0  0  0  0  0  0  0  0  0
    1.2305   -0.7090   -0.0000 C   0  0  0  0  0  0  0  0  0  0  0  0
    2.1024   -1.1970    0.0002 H   0  0  0  0  0  0  0  0  0  0  0  0
    1.2162    0.7151    0.0023 C   0  0  0  0  0  0  0  0  0  0  0  0
    2.0787    1.2068    0.0051 H   0  0  0  0  0  0  0  0  0  0  0  0
  1  5  1  0
  5  8  1  0
  1  2  1  0
  1  3  1  0
  1  4  1  0
  5  6  1  0
  5  7  1  0
  8  9  1  0
  8 10  1  0
  8 11  1  0
 12 16  1  0
 16 17  2  0
 17 19  1  0
 19 21  2  0
 21 23  1  0
 23 25  2  0
 25 16  1  0
 12 13  1  0
 12 14  1  0
 12 15  1  0
 17 18  1  0
 19 20  1  0
 21 22  1  0
 23 24  1  0
 25 26  1  0
M  CHG  1   8   1
M  END
>  <PDB_ID>  (1416) 
pdb3awj

>  <RESIDUE_NAME>  (1416) 
LYS   PHE

>  <FRAG_NAME>  (1416) 
ETAM   MBZ

>  <FRAG_ATOM_NUM>  (1416) 
fragi: 11  fragj: 15

>  <atom.prop.CHAIN_ID>  (1416) 
A A A A A A A A A A A Z Z Z Z Z Z Z Z Z Z Z Z Z Z Z

>  <atom.prop.IS_HEAVY_ATOM>  (1416) 
1 0 0 0 1 0 0 1 0 0 0 1 0 0 0 1 1 0 1 0 1 0 1 0 1 0

>  <DIFUSE_FUNC_ATOM>  (1416) 
n/a

>  <FINAL_SINGLE_POINT_ENERGY>  (1416) 
0

>  <NONCOV_INTER_ENERGY_QM>  (1416) 
0

>  <FF_Energy>  (1416) 
-2.68

>  <QM_Energy>  (1416) 
-8.01

>  <source>  (1416) 
ETAM_MBZ

>  <Index>  (1416) 
14181

$$$$
ETAM-pdb1wyd-B-LYS-52:MBZ-pdb1wyd-B-PHE-57
     RDKit          3D

 26 25  0  0  0  0  0  0  0  0999 V2000
    1.2897   -2.2270   -3.6592 C   0  0  0  0  0  0  0  0  0  0  0  0
    2.1727   -2.4283   -4.0687 H   0  0  0  0  0  0  0  0  0  0  0  0
    1.3786   -1.5136   -2.9735 H   0  0  0  0  0  0  0  0  0  0  0  0
    0.6206   -1.8710   -4.4426 H   0  0  0  0  0  0  0  0  0  0  0  0
    0.7697   -3.5060   -2.9681 C   0  0  0  0  0  0  0  0  0  0  0  0
   -0.1105   -3.2970   -2.5305 H   0  0  0  0  0  0  0  0  0  0  0  0
    0.6191   -4.2099   -3.6695 H   0  0  0  0  0  0  0  0  0  0  0  0
    1.7162   -4.0483   -1.9269 N   0  0  0  0  0  4  0  0  0  0  0  0
    1.1849   -4.4160   -1.1687 H   0  0  0  0  0  0  0  0  0  0  0  0
    2.2686   -4.7681   -2.3382 H   0  0  0  0  0  0  0  0  0  0  0  0
    2.3013   -3.3083   -1.6077 H   0  0  0  0  0  0  0  0  0  0  0  0
   -0.0003    2.9143    0.0051 C   0  0  0  0  0  0  0  0  0  0  0  0
   -0.4593    3.2204   -0.8139 H   0  0  0  0  0  0  0  0  0  0  0  0
    0.9392    3.2201    0.0290 H   0  0  0  0  0  0  0  0  0  0  0  0
   -0.5149    3.3561    0.8584 H   0  0  0  0  0  0  0  0  0  0  0  0
    0.0013    1.4045    0.0022 C   0  0  0  0  0  0  0  0  0  0  0  0
   -1.2001    0.6826   -0.0002 C   0  0  0  0  0  0  0  0  0  0  0  0
   -2.0678    1.1743   -0.0032 H   0  0  0  0  0  0  0  0  0  0  0  0
   -1.2086   -0.7132    0.0000 C   0  0  0  0  0  0  0  0  0  0  0  0
   -2.0787   -1.2052    0.0061 H   0  0  0  0  0  0  0  0  0  0  0  0
    0.0007   -1.3986   -0.0062 C   0  0  0  0  0  0  0  0  0  0  0  0
    0.0124   -2.3951   -0.0157 H   0  0  0  0  0  0  0  0  0  0  0  0
    1.2086   -0.6839   -0.0000 C   0  0  0  0  0  0  0  0  0  0  0  0
    2.0895   -1.1807    0.0029 H   0  0  0  0  0  0  0  0  0  0  0  0
    1.1981    0.7086    0.0042 C   0  0  0  0  0  0  0  0  0  0  0  0
    2.0640    1.2070    0.0076 H   0  0  0  0  0  0  0  0  0  0  0  0
  1  5  1  0
  5  8  1  0
  1  2  1  0
  1  3  1  0
  1  4  1  0
  5  6  1  0
  5  7  1  0
  8  9  1  0
  8 10  1  0
  8 11  1  0
 12 16  1  0
 16 17  2  0
 17 19  1  0
 19 21  2  0
 21 23  1  0
 23 25  2  0
 25 16  1  0
 12 13  1  0
 12 14  1  0
 12 15  1  0
 17 18  1  0
 19 20  1  0
 21 22  1  0
 23 24  1  0
 25 26  1  0
M  CHG  1   8   1
M  END
>  <PDB_ID>  (1417) 
pdb1wyd

>  <RESIDUE_NAME>  (1417) 
LYS   PHE

>  <FRAG_NAME>  (1417) 
ETAM   MBZ

>  <FRAG_ATOM_NUM>  (1417) 
fragi: 11  fragj: 15

>  <atom.prop.CHAIN_ID>  (1417) 
A A A A A A A A A A A Z Z Z Z Z Z Z Z Z Z Z Z Z Z Z

>  <atom.prop.IS_HEAVY_ATOM>  (1417) 
1 0 0 0 1 0 0 1 0 0 0 1 0 0 0 1 1 0 1 0 1 0 1 0 1 0

>  <DIFUSE_FUNC_ATOM>  (1417) 
n/a

>  <FINAL_SINGLE_POINT_ENERGY>  (1417) 
0

>  <NONCOV_INTER_ENERGY_QM>  (1417) 
0

>  <FF_Energy>  (1417) 
-1.0

>  <QM_Energy>  (1417) 
-6.34

>  <source>  (1417) 
ETAM_MBZ

>  <Index>  (1417) 
14211

$$$$
ETAM-pdb1wyw-A-LYS-232:MBZ-pdb1wyw-A-PHE-252
     RDKit          3D

 26 25  0  0  0  0  0  0  0  0999 V2000
    0.6225   -1.5626    3.9606 C   0  0  0  0  0  0  0  0  0  0  0  0
    0.2845   -2.4050    3.5559 H   0  0  0  0  0  0  0  0  0  0  0  0
    0.6531   -1.6377    4.9508 H   0  0  0  0  0  0  0  0  0  0  0  0
    1.6281   -1.3689    3.5874 H   0  0  0  0  0  0  0  0  0  0  0  0
   -0.3370   -0.4304    3.5918 C   0  0  0  0  0  0  0  0  0  0  0  0
   -0.0555    0.4011    4.0762 H   0  0  0  0  0  0  0  0  0  0  0  0
   -0.2791   -0.2677    2.6041 H   0  0  0  0  0  0  0  0  0  0  0  0
   -1.7466   -0.7559    3.9541 N   0  0  0  0  0  4  0  0  0  0  0  0
   -2.3645   -0.1482    3.4566 H   0  0  0  0  0  0  0  0  0  0  0  0
   -1.9393   -1.7046    3.7089 H   0  0  0  0  0  0  0  0  0  0  0  0
   -1.8717   -0.6300    4.9375 H   0  0  0  0  0  0  0  0  0  0  0  0
    0.0020    2.9070   -0.0161 C   0  0  0  0  0  0  0  0  0  0  0  0
   -0.9281    3.2132   -0.1600 H   0  0  0  0  0  0  0  0  0  0  0  0
    0.5940    3.2067   -0.7507 H   0  0  0  0  0  0  0  0  0  0  0  0
    0.3621    3.3625    0.9063 H   0  0  0  0  0  0  0  0  0  0  0  0
    0.0017    1.4047   -0.0008 C   0  0  0  0  0  0  0  0  0  0  0  0
   -1.1968    0.6995   -0.0001 C   0  0  0  0  0  0  0  0  0  0  0  0
   -2.0624    1.1876   -0.0014 H   0  0  0  0  0  0  0  0  0  0  0  0
   -1.2047   -0.6994   -0.0000 C   0  0  0  0  0  0  0  0  0  0  0  0
   -2.0825   -1.1874    0.0023 H   0  0  0  0  0  0  0  0  0  0  0  0
   -0.0045   -1.3994   -0.0010 C   0  0  0  0  0  0  0  0  0  0  0  0
   -0.0064   -2.3960   -0.0033 H   0  0  0  0  0  0  0  0  0  0  0  0
    1.2047   -0.6996    0.0000 C   0  0  0  0  0  0  0  0  0  0  0  0
    2.0821   -1.1986    0.0009 H   0  0  0  0  0  0  0  0  0  0  0  0
    1.1995    0.6942    0.0019 C   0  0  0  0  0  0  0  0  0  0  0  0
    2.0679    1.1896    0.0042 H   0  0  0  0  0  0  0  0  0  0  0  0
  1  5  1  0
  5  8  1  0
  1  2  1  0
  1  3  1  0
  1  4  1  0
  5  6  1  0
  5  7  1  0
  8  9  1  0
  8 10  1  0
  8 11  1  0
 12 16  1  0
 16 17  2  0
 17 19  1  0
 19 21  2  0
 21 23  1  0
 23 25  2  0
 25 16  1  0
 12 13  1  0
 12 14  1  0
 12 15  1  0
 17 18  1  0
 19 20  1  0
 21 22  1  0
 23 24  1  0
 25 26  1  0
M  CHG  1   8   1
M  END
>  <PDB_ID>  (1418) 
pdb1wyw

>  <RESIDUE_NAME>  (1418) 
LYS   PHE

>  <FRAG_NAME>  (1418) 
ETAM   MBZ

>  <FRAG_ATOM_NUM>  (1418) 
fragi: 11  fragj: 15

>  <atom.prop.CHAIN_ID>  (1418) 
A A A A A A A A A A A Z Z Z Z Z Z Z Z Z Z Z Z Z Z Z

>  <atom.prop.IS_HEAVY_ATOM>  (1418) 
1 0 0 0 1 0 0 1 0 0 0 1 0 0 0 1 1 0 1 0 1 0 1 0 1 0

>  <DIFUSE_FUNC_ATOM>  (1418) 
n/a

>  <FINAL_SINGLE_POINT_ENERGY>  (1418) 
0

>  <NONCOV_INTER_ENERGY_QM>  (1418) 
0

>  <FF_Energy>  (1418) 
-5.27

>  <QM_Energy>  (1418) 
-10.36

>  <source>  (1418) 
ETAM_MBZ

>  <Index>  (1418) 
14215

$$$$
ETAM-pdb1ww8-A-LYS-93:MBZ-pdb1ww8-A-PHE-332
     RDKit          3D

 26 25  0  0  0  0  0  0  0  0999 V2000
    0.2044   -2.4721   -3.9072 C   0  0  0  0  0  0  0  0  0  0  0  0
    0.0180   -2.8965   -3.0301 H   0  0  0  0  0  0  0  0  0  0  0  0
    0.8848   -2.9885   -4.4115 H   0  0  0  0  0  0  0  0  0  0  0  0
   -0.7180   -2.4416   -4.4873 H   0  0  0  0  0  0  0  0  0  0  0  0
    0.7438   -1.0676   -3.6626 C   0  0  0  0  0  0  0  0  0  0  0  0
    0.7421   -0.5655   -4.5300 H   0  0  0  0  0  0  0  0  0  0  0  0
    0.1428   -0.5999   -3.0120 H   0  0  0  0  0  0  0  0  0  0  0  0
    2.1255   -1.1028   -3.1173 N   0  0  0  0  0  4  0  0  0  0  0  0
    2.1262   -0.7289   -2.1898 H   0  0  0  0  0  0  0  0  0  0  0  0
    2.4509   -2.0481   -3.0968 H   0  0  0  0  0  0  0  0  0  0  0  0
    2.7264   -0.5548   -3.6991 H   0  0  0  0  0  0  0  0  0  0  0  0
    0.0094    2.9050   -0.0309 C   0  0  0  0  0  0  0  0  0  0  0  0
   -0.7450    3.2071   -0.5987 H   0  0  0  0  0  0  0  0  0  0  0  0
    0.8769    3.2059   -0.4052 H   0  0  0  0  0  0  0  0  0  0  0  0
   -0.1059    3.3790    0.9439 H   0  0  0  0  0  0  0  0  0  0  0  0
    0.0042    1.4053   -0.0031 C   0  0  0  0  0  0  0  0  0  0  0  0
   -1.2014    0.6949    0.0001 C   0  0  0  0  0  0  0  0  0  0  0  0
   -2.0641    1.1885    0.0014 H   0  0  0  0  0  0  0  0  0  0  0  0
   -1.2087   -0.6987    0.0000 C   0  0  0  0  0  0  0  0  0  0  0  0
   -2.0851   -1.1907   -0.0000 H   0  0  0  0  0  0  0  0  0  0  0  0
   -0.0055   -1.3981    0.0026 C   0  0  0  0  0  0  0  0  0  0  0  0
   -0.0072   -2.3947    0.0052 H   0  0  0  0  0  0  0  0  0  0  0  0
    1.2087   -0.6994   -0.0000 C   0  0  0  0  0  0  0  0  0  0  0  0
    2.0835   -1.1989   -0.0006 H   0  0  0  0  0  0  0  0  0  0  0  0
    1.2027    0.6960    0.0005 C   0  0  0  0  0  0  0  0  0  0  0  0
    2.0704    1.1915    0.0025 H   0  0  0  0  0  0  0  0  0  0  0  0
  1  5  1  0
  5  8  1  0
  1  2  1  0
  1  3  1  0
  1  4  1  0
  5  6  1  0
  5  7  1  0
  8  9  1  0
  8 10  1  0
  8 11  1  0
 12 16  1  0
 16 17  2  0
 17 19  1  0
 19 21  2  0
 21 23  1  0
 23 25  2  0
 25 16  1  0
 12 13  1  0
 12 14  1  0
 12 15  1  0
 17 18  1  0
 19 20  1  0
 21 22  1  0
 23 24  1  0
 25 26  1  0
M  CHG  1   8   1
M  END
>  <PDB_ID>  (1419) 
pdb1ww8

>  <RESIDUE_NAME>  (1419) 
LYS   PHE

>  <FRAG_NAME>  (1419) 
ETAM   MBZ

>  <FRAG_ATOM_NUM>  (1419) 
fragi: 11  fragj: 15

>  <atom.prop.CHAIN_ID>  (1419) 
A A A A A A A A A A A Z Z Z Z Z Z Z Z Z Z Z Z Z Z Z

>  <atom.prop.IS_HEAVY_ATOM>  (1419) 
1 0 0 0 1 0 0 1 0 0 0 1 0 0 0 1 1 0 1 0 1 0 1 0 1 0

>  <DIFUSE_FUNC_ATOM>  (1419) 
n/a

>  <FINAL_SINGLE_POINT_ENERGY>  (1419) 
0

>  <NONCOV_INTER_ENERGY_QM>  (1419) 
0

>  <FF_Energy>  (1419) 
-5.29

>  <QM_Energy>  (1419) 
-13.05

>  <source>  (1419) 
ETAM_MBZ

>  <Index>  (1419) 
14221

$$$$
ETAM-pdb1wyt-D-LYS-442:MBZ-pdb1wyt-D-PHE-385
     RDKit          3D

 26 25  0  0  0  0  0  0  0  0999 V2000
    2.7716   -2.1125    4.7409 C   0  0  0  0  0  0  0  0  0  0  0  0
    3.0579   -3.0112    5.0641 H   0  0  0  0  0  0  0  0  0  0  0  0
    1.8105   -1.9624    4.9560 H   0  0  0  0  0  0  0  0  0  0  0  0
    3.3668   -1.3534    5.2484 H   0  0  0  0  0  0  0  0  0  0  0  0
    2.9427   -2.0638    3.2268 C   0  0  0  0  0  0  0  0  0  0  0  0
    2.7487   -1.1345    2.9080 H   0  0  0  0  0  0  0  0  0  0  0  0
    3.8892   -2.2988    2.9998 H   0  0  0  0  0  0  0  0  0  0  0  0
    2.0232   -3.0189    2.5415 N   0  0  0  0  0  4  0  0  0  0  0  0
    1.3612   -2.5056    1.9975 H   0  0  0  0  0  0  0  0  0  0  0  0
    2.5552   -3.6189    1.9457 H   0  0  0  0  0  0  0  0  0  0  0  0
    1.5436   -3.5640    3.2275 H   0  0  0  0  0  0  0  0  0  0  0  0
    0.0056    2.9046    0.0108 C   0  0  0  0  0  0  0  0  0  0  0  0
   -0.7543    3.2208   -0.5395 H   0  0  0  0  0  0  0  0  0  0  0  0
    0.8696    3.2146   -0.3612 H   0  0  0  0  0  0  0  0  0  0  0  0
   -0.1017    3.3433    1.0029 H   0  0  0  0  0  0  0  0  0  0  0  0
    0.0015    1.4067    0.0001 C   0  0  0  0  0  0  0  0  0  0  0  0
   -1.1984    0.6995   -0.0008 C   0  0  0  0  0  0  0  0  0  0  0  0
   -2.0639    1.1900   -0.0033 H   0  0  0  0  0  0  0  0  0  0  0  0
   -1.2068   -0.6964   -0.0000 C   0  0  0  0  0  0  0  0  0  0  0  0
   -2.0835   -1.1863    0.0019 H   0  0  0  0  0  0  0  0  0  0  0  0
   -0.0030   -1.4010    0.0002 C   0  0  0  0  0  0  0  0  0  0  0  0
   -0.0089   -2.3963    0.0001 H   0  0  0  0  0  0  0  0  0  0  0  0
    1.2068   -0.7034   -0.0000 C   0  0  0  0  0  0  0  0  0  0  0  0
    2.0842   -1.1997    0.0015 H   0  0  0  0  0  0  0  0  0  0  0  0
    1.1998    0.6946    0.0005 C   0  0  0  0  0  0  0  0  0  0  0  0
    2.0681    1.1892    0.0007 H   0  0  0  0  0  0  0  0  0  0  0  0
  1  5  1  0
  5  8  1  0
  1  2  1  0
  1  3  1  0
  1  4  1  0
  5  6  1  0
  5  7  1  0
  8  9  1  0
  8 10  1  0
  8 11  1  0
 12 16  1  0
 16 17  2  0
 17 19  1  0
 19 21  2  0
 21 23  1  0
 23 25  2  0
 25 16  1  0
 12 13  1  0
 12 14  1  0
 12 15  1  0
 17 18  1  0
 19 20  1  0
 21 22  1  0
 23 24  1  0
 25 26  1  0
M  CHG  1   8   1
M  END
>  <PDB_ID>  (1420) 
pdb1wyt

>  <RESIDUE_NAME>  (1420) 
LYS   PHE

>  <FRAG_NAME>  (1420) 
ETAM   MBZ

>  <FRAG_ATOM_NUM>  (1420) 
fragi: 11  fragj: 15

>  <atom.prop.CHAIN_ID>  (1420) 
A A A A A A A A A A A Z Z Z Z Z Z Z Z Z Z Z Z Z Z Z

>  <atom.prop.IS_HEAVY_ATOM>  (1420) 
1 0 0 0 1 0 0 1 0 0 0 1 0 0 0 1 1 0 1 0 1 0 1 0 1 0

>  <DIFUSE_FUNC_ATOM>  (1420) 
n/a

>  <FINAL_SINGLE_POINT_ENERGY>  (1420) 
0

>  <NONCOV_INTER_ENERGY_QM>  (1420) 
0

>  <FF_Energy>  (1420) 
-1.99

>  <QM_Energy>  (1420) 
-9.0

>  <source>  (1420) 
ETAM_MBZ

>  <Index>  (1420) 
14222

$$$$
ETAM-pdb1wqa-D-LYS-25:MBZ-pdb1wqa-D-PHE-132
     RDKit          3D

 26 25  0  0  0  0  0  0  0  0999 V2000
    1.1931   -1.4636   -4.1365 C   0  0  0  0  0  0  0  0  0  0  0  0
    0.9491   -1.8933   -4.9971 H   0  0  0  0  0  0  0  0  0  0  0  0
    1.1029   -2.1036   -3.3842 H   0  0  0  0  0  0  0  0  0  0  0  0
    2.2307   -1.1342   -4.1930 H   0  0  0  0  0  0  0  0  0  0  0  0
    0.2240   -0.2858   -3.8899 C   0  0  0  0  0  0  0  0  0  0  0  0
    0.5123    0.2007   -3.0513 H   0  0  0  0  0  0  0  0  0  0  0  0
    0.2992    0.3634   -4.6622 H   0  0  0  0  0  0  0  0  0  0  0  0
   -1.2498   -0.6725   -3.7343 N   0  0  0  0  0  4  0  0  0  0  0  0
   -1.6516   -0.0880   -3.0397 H   0  0  0  0  0  0  0  0  0  0  0  0
   -1.6989   -0.5392   -4.6095 H   0  0  0  0  0  0  0  0  0  0  0  0
   -1.2924   -1.6256   -3.4593 H   0  0  0  0  0  0  0  0  0  0  0  0
   -0.0077    2.9285   -0.0023 C   0  0  0  0  0  0  0  0  0  0  0  0
    0.8642    3.2366    0.3483 H   0  0  0  0  0  0  0  0  0  0  0  0
   -0.7524    3.2316    0.5732 H   0  0  0  0  0  0  0  0  0  0  0  0
   -0.1465    3.3720   -0.9882 H   0  0  0  0  0  0  0  0  0  0  0  0
   -0.0022    1.4161    0.0050 C   0  0  0  0  0  0  0  0  0  0  0  0
   -1.1999    0.6969    0.0014 C   0  0  0  0  0  0  0  0  0  0  0  0
   -2.0689    1.1837   -0.0016 H   0  0  0  0  0  0  0  0  0  0  0  0
   -1.2089   -0.7052    0.0000 C   0  0  0  0  0  0  0  0  0  0  0  0
   -2.0857   -1.1925    0.0045 H   0  0  0  0  0  0  0  0  0  0  0  0
   -0.0040   -1.4100   -0.0056 C   0  0  0  0  0  0  0  0  0  0  0  0
   -0.0071   -2.4029   -0.0138 H   0  0  0  0  0  0  0  0  0  0  0  0
    1.2089   -0.7063   -0.0000 C   0  0  0  0  0  0  0  0  0  0  0  0
    2.0876   -1.1977    0.0061 H   0  0  0  0  0  0  0  0  0  0  0  0
    1.2061    0.7085   -0.0008 C   0  0  0  0  0  0  0  0  0  0  0  0
    2.0697    1.1967   -0.0067 H   0  0  0  0  0  0  0  0  0  0  0  0
  1  5  1  0
  5  8  1  0
  1  2  1  0
  1  3  1  0
  1  4  1  0
  5  6  1  0
  5  7  1  0
  8  9  1  0
  8 10  1  0
  8 11  1  0
 12 16  1  0
 16 17  2  0
 17 19  1  0
 19 21  2  0
 21 23  1  0
 23 25  2  0
 25 16  1  0
 12 13  1  0
 12 14  1  0
 12 15  1  0
 17 18  1  0
 19 20  1  0
 21 22  1  0
 23 24  1  0
 25 26  1  0
M  CHG  1   8   1
M  END
>  <PDB_ID>  (1421) 
pdb1wqa

>  <RESIDUE_NAME>  (1421) 
LYS   PHE

>  <FRAG_NAME>  (1421) 
ETAM   MBZ

>  <FRAG_ATOM_NUM>  (1421) 
fragi: 11  fragj: 15

>  <atom.prop.CHAIN_ID>  (1421) 
A A A A A A A A A A A Z Z Z Z Z Z Z Z Z Z Z Z Z Z Z

>  <atom.prop.IS_HEAVY_ATOM>  (1421) 
1 0 0 0 1 0 0 1 0 0 0 1 0 0 0 1 1 0 1 0 1 0 1 0 1 0

>  <DIFUSE_FUNC_ATOM>  (1421) 
n/a

>  <FINAL_SINGLE_POINT_ENERGY>  (1421) 
0

>  <NONCOV_INTER_ENERGY_QM>  (1421) 
0

>  <FF_Energy>  (1421) 
-6.36

>  <QM_Energy>  (1421) 
-11.96

>  <source>  (1421) 
ETAM_MBZ

>  <Index>  (1421) 
14225

$$$$
ETAM-pdb1wz8-E-LYS-256:MBZ-pdb1wz8-E-PHE-73
     RDKit          3D

 26 25  0  0  0  0  0  0  0  0999 V2000
   -2.5813   -0.6649    3.9786 C   0  0  0  0  0  0  0  0  0  0  0  0
   -2.4491   -1.3314    3.2538 H   0  0  0  0  0  0  0  0  0  0  0  0
   -3.5264   -0.6638    4.2835 H   0  0  0  0  0  0  0  0  0  0  0  0
   -1.9365   -0.9220    4.8191 H   0  0  0  0  0  0  0  0  0  0  0  0
   -2.2449    0.7136    3.4367 C   0  0  0  0  0  0  0  0  0  0  0  0
   -2.2780    1.3756    4.1865 H   0  0  0  0  0  0  0  0  0  0  0  0
   -1.3201    0.6962    3.0521 H   0  0  0  0  0  0  0  0  0  0  0  0
   -3.2072    1.1243    2.3785 N   0  0  0  0  0  4  0  0  0  0  0  0
   -3.7322    1.9130    2.6963 H   0  0  0  0  0  0  0  0  0  0  0  0
   -2.7042    1.3682    1.5492 H   0  0  0  0  0  0  0  0  0  0  0  0
   -3.8280    0.3661    2.1824 H   0  0  0  0  0  0  0  0  0  0  0  0
   -0.0023    2.9049    0.0164 C   0  0  0  0  0  0  0  0  0  0  0  0
    0.9316    3.2121    0.1257 H   0  0  0  0  0  0  0  0  0  0  0  0
   -0.5692    3.2050    0.7694 H   0  0  0  0  0  0  0  0  0  0  0  0
   -0.3949    3.3573   -0.8943 H   0  0  0  0  0  0  0  0  0  0  0  0
   -0.0012    1.4037    0.0017 C   0  0  0  0  0  0  0  0  0  0  0  0
   -1.1991    0.6950   -0.0006 C   0  0  0  0  0  0  0  0  0  0  0  0
   -2.0655    1.1839   -0.0039 H   0  0  0  0  0  0  0  0  0  0  0  0
   -1.2046   -0.6999   -0.0000 C   0  0  0  0  0  0  0  0  0  0  0  0
   -2.0789   -1.1925    0.0026 H   0  0  0  0  0  0  0  0  0  0  0  0
    0.0017   -1.3972   -0.0010 C   0  0  0  0  0  0  0  0  0  0  0  0
   -0.0016   -2.3949   -0.0028 H   0  0  0  0  0  0  0  0  0  0  0  0
    1.2046   -0.6978    0.0000 C   0  0  0  0  0  0  0  0  0  0  0  0
    2.0854   -1.1941    0.0025 H   0  0  0  0  0  0  0  0  0  0  0  0
    1.1986    0.6962   -0.0001 C   0  0  0  0  0  0  0  0  0  0  0  0
    2.0654    1.1930   -0.0019 H   0  0  0  0  0  0  0  0  0  0  0  0
  1  5  1  0
  5  8  1  0
  1  2  1  0
  1  3  1  0
  1  4  1  0
  5  6  1  0
  5  7  1  0
  8  9  1  0
  8 10  1  0
  8 11  1  0
 12 16  1  0
 16 17  2  0
 17 19  1  0
 19 21  2  0
 21 23  1  0
 23 25  2  0
 25 16  1  0
 12 13  1  0
 12 14  1  0
 12 15  1  0
 17 18  1  0
 19 20  1  0
 21 22  1  0
 23 24  1  0
 25 26  1  0
M  CHG  1   8   1
M  END
>  <PDB_ID>  (1422) 
pdb1wz8

>  <RESIDUE_NAME>  (1422) 
LYS   PHE

>  <FRAG_NAME>  (1422) 
ETAM   MBZ

>  <FRAG_ATOM_NUM>  (1422) 
fragi: 11  fragj: 15

>  <atom.prop.CHAIN_ID>  (1422) 
A A A A A A A A A A A Z Z Z Z Z Z Z Z Z Z Z Z Z Z Z

>  <atom.prop.IS_HEAVY_ATOM>  (1422) 
1 0 0 0 1 0 0 1 0 0 0 1 0 0 0 1 1 0 1 0 1 0 1 0 1 0

>  <DIFUSE_FUNC_ATOM>  (1422) 
n/a

>  <FINAL_SINGLE_POINT_ENERGY>  (1422) 
0

>  <NONCOV_INTER_ENERGY_QM>  (1422) 
0

>  <FF_Energy>  (1422) 
-1.9

>  <QM_Energy>  (1422) 
-8.2

>  <source>  (1422) 
ETAM_MBZ

>  <Index>  (1422) 
14228

$$$$
ETAM-pdb1wza-A-LYS-124:MBZ-pdb1wza-A-PHE-28
     RDKit          3D

 26 25  0  0  0  0  0  0  0  0999 V2000
    1.5531   -2.4040   -3.5783 C   0  0  0  0  0  0  0  0  0  0  0  0
    0.6364   -2.6136   -3.8792 H   0  0  0  0  0  0  0  0  0  0  0  0
    1.6805   -2.6150   -2.6226 H   0  0  0  0  0  0  0  0  0  0  0  0
    2.2680   -2.9717   -4.1739 H   0  0  0  0  0  0  0  0  0  0  0  0
    1.7987   -0.9141   -3.7799 C   0  0  0  0  0  0  0  0  0  0  0  0
    2.7611   -0.7120   -3.5534 H   0  0  0  0  0  0  0  0  0  0  0  0
    1.6555   -0.6924   -4.7541 H   0  0  0  0  0  0  0  0  0  0  0  0
    0.9125   -0.0584   -2.9501 N   0  0  0  0  0  4  0  0  0  0  0  0
    0.2930    0.4550   -3.5450 H   0  0  0  0  0  0  0  0  0  0  0  0
    0.3790   -0.6340   -2.3300 H   0  0  0  0  0  0  0  0  0  0  0  0
    1.4687    0.5802   -2.4179 H   0  0  0  0  0  0  0  0  0  0  0  0
    0.0022    2.9133    0.0143 C   0  0  0  0  0  0  0  0  0  0  0  0
    0.6137    3.2110    0.7317 H   0  0  0  0  0  0  0  0  0  0  0  0
   -0.9237    3.2179    0.1803 H   0  0  0  0  0  0  0  0  0  0  0  0
    0.3387    3.3671   -0.9179 H   0  0  0  0  0  0  0  0  0  0  0  0
    0.0010    1.4064   -0.0011 C   0  0  0  0  0  0  0  0  0  0  0  0
   -1.1975    0.6988   -0.0006 C   0  0  0  0  0  0  0  0  0  0  0  0
   -2.0643    1.1879   -0.0022 H   0  0  0  0  0  0  0  0  0  0  0  0
   -1.2041   -0.6970   -0.0000 C   0  0  0  0  0  0  0  0  0  0  0  0
   -2.0819   -1.1879    0.0007 H   0  0  0  0  0  0  0  0  0  0  0  0
   -0.0019   -1.3993    0.0016 C   0  0  0  0  0  0  0  0  0  0  0  0
   -0.0086   -2.3964    0.0037 H   0  0  0  0  0  0  0  0  0  0  0  0
    1.2041   -0.7037    0.0000 C   0  0  0  0  0  0  0  0  0  0  0  0
    2.0835   -1.1986    0.0005 H   0  0  0  0  0  0  0  0  0  0  0  0
    1.1984    0.6949    0.0001 C   0  0  0  0  0  0  0  0  0  0  0  0
    2.0674    1.1882    0.0004 H   0  0  0  0  0  0  0  0  0  0  0  0
  1  5  1  0
  5  8  1  0
  1  2  1  0
  1  3  1  0
  1  4  1  0
  5  6  1  0
  5  7  1  0
  8  9  1  0
  8 10  1  0
  8 11  1  0
 12 16  1  0
 16 17  2  0
 17 19  1  0
 19 21  2  0
 21 23  1  0
 23 25  2  0
 25 16  1  0
 12 13  1  0
 12 14  1  0
 12 15  1  0
 17 18  1  0
 19 20  1  0
 21 22  1  0
 23 24  1  0
 25 26  1  0
M  CHG  1   8   1
M  END
>  <PDB_ID>  (1423) 
pdb1wza

>  <RESIDUE_NAME>  (1423) 
LYS   PHE

>  <FRAG_NAME>  (1423) 
ETAM   MBZ

>  <FRAG_ATOM_NUM>  (1423) 
fragi: 11  fragj: 15

>  <atom.prop.CHAIN_ID>  (1423) 
A A A A A A A A A A A Z Z Z Z Z Z Z Z Z Z Z Z Z Z Z

>  <atom.prop.IS_HEAVY_ATOM>  (1423) 
1 0 0 0 1 0 0 1 0 0 0 1 0 0 0 1 1 0 1 0 1 0 1 0 1 0

>  <DIFUSE_FUNC_ATOM>  (1423) 
n/a

>  <FINAL_SINGLE_POINT_ENERGY>  (1423) 
0

>  <NONCOV_INTER_ENERGY_QM>  (1423) 
0

>  <FF_Energy>  (1423) 
-7.94

>  <QM_Energy>  (1423) 
-16.21

>  <source>  (1423) 
ETAM_MBZ

>  <Index>  (1423) 
14232

$$$$
ETAM-pdb3axy-C-LYS-124:MBZ-pdb3axy-E-PHE-195
     RDKit          3D

 26 25  0  0  0  0  0  0  0  0999 V2000
   -4.4818   -1.1080    1.9791 C   0  0  0  0  0  0  0  0  0  0  0  0
   -4.2183   -2.0670    1.9910 H   0  0  0  0  0  0  0  0  0  0  0  0
   -4.6100   -0.7971    1.0429 H   0  0  0  0  0  0  0  0  0  0  0  0
   -5.4236   -0.9983    2.5166 H   0  0  0  0  0  0  0  0  0  0  0  0
   -3.3428   -0.2853    2.6102 C   0  0  0  0  0  0  0  0  0  0  0  0
   -3.1090   -0.6912    3.4978 H   0  0  0  0  0  0  0  0  0  0  0  0
   -2.5399   -0.3357    2.0092 H   0  0  0  0  0  0  0  0  0  0  0  0
   -3.7122    1.1594    2.8135 N   0  0  0  0  0  4  0  0  0  0  0  0
   -3.8159    1.5948    1.9233 H   0  0  0  0  0  0  0  0  0  0  0  0
   -4.5705    1.2052    3.3186 H   0  0  0  0  0  0  0  0  0  0  0  0
   -2.9879    1.6091    3.3303 H   0  0  0  0  0  0  0  0  0  0  0  0
   -0.0015    2.8975   -0.0445 C   0  0  0  0  0  0  0  0  0  0  0  0
   -0.7577    3.1902   -0.6095 H   0  0  0  0  0  0  0  0  0  0  0  0
    0.8635    3.1957   -0.4172 H   0  0  0  0  0  0  0  0  0  0  0  0
   -0.1194    3.3579    0.9365 H   0  0  0  0  0  0  0  0  0  0  0  0
   -0.0005    1.3976   -0.0079 C   0  0  0  0  0  0  0  0  0  0  0  0
   -1.1928    0.6888    0.0062 C   0  0  0  0  0  0  0  0  0  0  0  0
   -2.0608    1.1800    0.0200 H   0  0  0  0  0  0  0  0  0  0  0  0
   -1.1962   -0.6959   -0.0000 C   0  0  0  0  0  0  0  0  0  0  0  0
   -2.0742   -1.1915   -0.0126 H   0  0  0  0  0  0  0  0  0  0  0  0
    0.0005   -1.3895    0.0124 C   0  0  0  0  0  0  0  0  0  0  0  0
   -0.0030   -2.3899    0.0301 H   0  0  0  0  0  0  0  0  0  0  0  0
    1.1962   -0.6957   -0.0000 C   0  0  0  0  0  0  0  0  0  0  0  0
    2.0803   -1.1921    0.0000 H   0  0  0  0  0  0  0  0  0  0  0  0
    1.1927    0.6948   -0.0107 C   0  0  0  0  0  0  0  0  0  0  0  0
    2.0612    1.1894   -0.0211 H   0  0  0  0  0  0  0  0  0  0  0  0
  1  5  1  0
  5  8  1  0
  1  2  1  0
  1  3  1  0
  1  4  1  0
  5  6  1  0
  5  7  1  0
  8  9  1  0
  8 10  1  0
  8 11  1  0
 12 16  1  0
 16 17  2  0
 17 19  1  0
 19 21  2  0
 21 23  1  0
 23 25  2  0
 25 16  1  0
 12 13  1  0
 12 14  1  0
 12 15  1  0
 17 18  1  0
 19 20  1  0
 21 22  1  0
 23 24  1  0
 25 26  1  0
M  CHG  1   8   1
M  END
>  <PDB_ID>  (1424) 
pdb3axy

>  <RESIDUE_NAME>  (1424) 
LYS   PHE

>  <FRAG_NAME>  (1424) 
ETAM   MBZ

>  <FRAG_ATOM_NUM>  (1424) 
fragi: 11  fragj: 15

>  <atom.prop.CHAIN_ID>  (1424) 
A A A A A A A A A A A Z Z Z Z Z Z Z Z Z Z Z Z Z Z Z

>  <atom.prop.IS_HEAVY_ATOM>  (1424) 
1 0 0 0 1 0 0 1 0 0 0 1 0 0 0 1 1 0 1 0 1 0 1 0 1 0

>  <DIFUSE_FUNC_ATOM>  (1424) 
n/a

>  <FINAL_SINGLE_POINT_ENERGY>  (1424) 
0

>  <NONCOV_INTER_ENERGY_QM>  (1424) 
0

>  <FF_Energy>  (1424) 
-0.17

>  <QM_Energy>  (1424) 
-5.27

>  <source>  (1424) 
ETAM_MBZ

>  <Index>  (1424) 
14237

$$$$
ETAM-pdb3awj-B-LYS-333:MBZ-pdb3awj-B-PHE-375
     RDKit          3D

 26 25  0  0  0  0  0  0  0  0999 V2000
   -2.1343   -1.9790   -4.4288 C   0  0  0  0  0  0  0  0  0  0  0  0
   -2.0673   -1.0563   -4.8000 H   0  0  0  0  0  0  0  0  0  0  0  0
   -2.8497   -2.0185   -3.7367 H   0  0  0  0  0  0  0  0  0  0  0  0
   -2.3900   -2.6640   -5.2372 H   0  0  0  0  0  0  0  0  0  0  0  0
   -0.8301   -2.3530   -3.8077 C   0  0  0  0  0  0  0  0  0  0  0  0
   -0.9692   -3.0920   -3.1564 H   0  0  0  0  0  0  0  0  0  0  0  0
   -0.1897   -2.6331   -4.5160 H   0  0  0  0  0  0  0  0  0  0  0  0
   -0.2943   -1.1752   -3.1023 N   0  0  0  0  0  4  0  0  0  0  0  0
   -0.0072   -1.4348   -2.1781 H   0  0  0  0  0  0  0  0  0  0  0  0
    0.4946   -0.8108   -3.6021 H   0  0  0  0  0  0  0  0  0  0  0  0
   -1.0012   -0.4672   -3.0401 H   0  0  0  0  0  0  0  0  0  0  0  0
    0.0018    2.9343    0.0860 C   0  0  0  0  0  0  0  0  0  0  0  0
   -0.9192    3.2486   -0.0795 H   0  0  0  0  0  0  0  0  0  0  0  0
    0.6311    3.2758   -0.5934 H   0  0  0  0  0  0  0  0  0  0  0  0
    0.3178    3.3135    1.0578 H   0  0  0  0  0  0  0  0  0  0  0  0
    0.0006    1.4290    0.0013 C   0  0  0  0  0  0  0  0  0  0  0  0
   -1.2149    0.7146   -0.0029 C   0  0  0  0  0  0  0  0  0  0  0  0
   -2.0766    1.1975   -0.0088 H   0  0  0  0  0  0  0  0  0  0  0  0
   -1.2271   -0.7123   -0.0000 C   0  0  0  0  0  0  0  0  0  0  0  0
   -2.0957   -1.1948    0.0020 H   0  0  0  0  0  0  0  0  0  0  0  0
   -0.0001   -1.4269    0.0027 C   0  0  0  0  0  0  0  0  0  0  0  0
   -0.0041   -2.4138    0.0059 H   0  0  0  0  0  0  0  0  0  0  0  0
    1.2271   -0.7129    0.0000 C   0  0  0  0  0  0  0  0  0  0  0  0
    2.0999   -1.2017    0.0001 H   0  0  0  0  0  0  0  0  0  0  0  0
    1.2145    0.7086   -0.0011 C   0  0  0  0  0  0  0  0  0  0  0  0
    2.0784    1.2002   -0.0046 H   0  0  0  0  0  0  0  0  0  0  0  0
  1  5  1  0
  5  8  1  0
  1  2  1  0
  1  3  1  0
  1  4  1  0
  5  6  1  0
  5  7  1  0
  8  9  1  0
  8 10  1  0
  8 11  1  0
 12 16  1  0
 16 17  2  0
 17 19  1  0
 19 21  2  0
 21 23  1  0
 23 25  2  0
 25 16  1  0
 12 13  1  0
 12 14  1  0
 12 15  1  0
 17 18  1  0
 19 20  1  0
 21 22  1  0
 23 24  1  0
 25 26  1  0
M  CHG  1   8   1
M  END
>  <PDB_ID>  (1425) 
pdb3awj

>  <RESIDUE_NAME>  (1425) 
LYS   PHE

>  <FRAG_NAME>  (1425) 
ETAM   MBZ

>  <FRAG_ATOM_NUM>  (1425) 
fragi: 11  fragj: 15

>  <atom.prop.CHAIN_ID>  (1425) 
A A A A A A A A A A A Z Z Z Z Z Z Z Z Z Z Z Z Z Z Z

>  <atom.prop.IS_HEAVY_ATOM>  (1425) 
1 0 0 0 1 0 0 1 0 0 0 1 0 0 0 1 1 0 1 0 1 0 1 0 1 0

>  <DIFUSE_FUNC_ATOM>  (1425) 
n/a

>  <FINAL_SINGLE_POINT_ENERGY>  (1425) 
0

>  <NONCOV_INTER_ENERGY_QM>  (1425) 
0

>  <FF_Energy>  (1425) 
-7.38

>  <QM_Energy>  (1425) 
-16.12

>  <source>  (1425) 
ETAM_MBZ

>  <Index>  (1425) 
14239

$$$$
ETAM-pdb3b2m-A-LYS-107:MBZ-pdb3b2m-A-PHE-69
     RDKit          3D

 26 25  0  0  0  0  0  0  0  0999 V2000
    0.0492   -4.3767    2.0800 C   0  0  0  0  0  0  0  0  0  0  0  0
    0.6715   -4.4743    1.3233 H   0  0  0  0  0  0  0  0  0  0  0  0
   -0.0929   -5.2277    2.5553 H   0  0  0  0  0  0  0  0  0  0  0  0
    0.4559   -3.6457    2.7788 H   0  0  0  0  0  0  0  0  0  0  0  0
   -1.3350   -3.9057    1.5092 C   0  0  0  0  0  0  0  0  0  0  0  0
   -2.0501   -4.4070    1.9581 H   0  0  0  0  0  0  0  0  0  0  0  0
   -1.4181   -2.9356    1.6400 H   0  0  0  0  0  0  0  0  0  0  0  0
   -1.3963   -4.2071   -0.0075 N   0  0  0  0  0  4  0  0  0  0  0  0
   -0.7276   -3.6316   -0.4571 H   0  0  0  0  0  0  0  0  0  0  0  0
   -1.1848   -5.1662   -0.1335 H   0  0  0  0  0  0  0  0  0  0  0  0
   -2.3131   -3.9999   -0.3197 H   0  0  0  0  0  0  0  0  0  0  0  0
    0.0126    2.8878   -0.0006 C   0  0  0  0  0  0  0  0  0  0  0  0
    0.8576    3.1887    0.4213 H   0  0  0  0  0  0  0  0  0  0  0  0
   -0.7736    3.2021    0.5146 H   0  0  0  0  0  0  0  0  0  0  0  0
   -0.0411    3.3285   -0.9961 H   0  0  0  0  0  0  0  0  0  0  0  0
    0.0007    1.3935    0.0005 C   0  0  0  0  0  0  0  0  0  0  0  0
   -1.2042    0.6947   -0.0027 C   0  0  0  0  0  0  0  0  0  0  0  0
   -2.0642    1.1907   -0.0084 H   0  0  0  0  0  0  0  0  0  0  0  0
   -1.2097   -0.6911   -0.0000 C   0  0  0  0  0  0  0  0  0  0  0  0
   -2.0785   -1.1920    0.0033 H   0  0  0  0  0  0  0  0  0  0  0  0
    0.0055   -1.3889   -0.0001 C   0  0  0  0  0  0  0  0  0  0  0  0
   -0.0005   -2.3860   -0.0004 H   0  0  0  0  0  0  0  0  0  0  0  0
    1.2097   -0.6906   -0.0000 C   0  0  0  0  0  0  0  0  0  0  0  0
    2.0874   -1.1947   -0.0000 H   0  0  0  0  0  0  0  0  0  0  0  0
    1.1980    0.6823    0.0023 C   0  0  0  0  0  0  0  0  0  0  0  0
    2.0655    1.1910    0.0044 H   0  0  0  0  0  0  0  0  0  0  0  0
  1  5  1  0
  5  8  1  0
  1  2  1  0
  1  3  1  0
  1  4  1  0
  5  6  1  0
  5  7  1  0
  8  9  1  0
  8 10  1  0
  8 11  1  0
 12 16  1  0
 16 17  2  0
 17 19  1  0
 19 21  2  0
 21 23  1  0
 23 25  2  0
 25 16  1  0
 12 13  1  0
 12 14  1  0
 12 15  1  0
 17 18  1  0
 19 20  1  0
 21 22  1  0
 23 24  1  0
 25 26  1  0
M  CHG  1   8   1
M  END
>  <PDB_ID>  (1426) 
pdb3b2m

>  <RESIDUE_NAME>  (1426) 
LYS   PHE

>  <FRAG_NAME>  (1426) 
ETAM   MBZ

>  <FRAG_ATOM_NUM>  (1426) 
fragi: 11  fragj: 15

>  <atom.prop.CHAIN_ID>  (1426) 
A A A A A A A A A A A Z Z Z Z Z Z Z Z Z Z Z Z Z Z Z

>  <atom.prop.IS_HEAVY_ATOM>  (1426) 
1 0 0 0 1 0 0 1 0 0 0 1 0 0 0 1 1 0 1 0 1 0 1 0 1 0

>  <DIFUSE_FUNC_ATOM>  (1426) 
n/a

>  <FINAL_SINGLE_POINT_ENERGY>  (1426) 
0

>  <NONCOV_INTER_ENERGY_QM>  (1426) 
0

>  <FF_Energy>  (1426) 
7.19

>  <QM_Energy>  (1426) 
-2.57

>  <source>  (1426) 
ETAM_MBZ

>  <Index>  (1426) 
14243

$$$$
ETAM-pdb3b42-B-LYS-305:MBZ-pdb3b42-B-PHE-318
     RDKit          3D

 26 25  0  0  0  0  0  0  0  0999 V2000
    3.3208   -0.1507   -3.6272 C   0  0  0  0  0  0  0  0  0  0  0  0
    3.4639    0.2689   -2.7408 H   0  0  0  0  0  0  0  0  0  0  0  0
    4.0478    0.0907   -4.2565 H   0  0  0  0  0  0  0  0  0  0  0  0
    3.3002   -1.2339   -3.5073 H   0  0  0  0  0  0  0  0  0  0  0  0
    2.0017    0.3471   -4.1934 C   0  0  0  0  0  0  0  0  0  0  0  0
    2.0054    1.3482   -4.1952 H   0  0  0  0  0  0  0  0  0  0  0  0
    1.9050    0.0159   -5.1339 H   0  0  0  0  0  0  0  0  0  0  0  0
    0.8477   -0.1359   -3.3847 N   0  0  0  0  0  4  0  0  0  0  0  0
    0.0417    0.4163   -3.5949 H   0  0  0  0  0  0  0  0  0  0  0  0
    0.6654   -1.0930   -3.6068 H   0  0  0  0  0  0  0  0  0  0  0  0
    1.0665   -0.0535   -2.4131 H   0  0  0  0  0  0  0  0  0  0  0  0
    0.0001    2.9063    0.0119 C   0  0  0  0  0  0  0  0  0  0  0  0
   -0.7863    3.2207   -0.4986 H   0  0  0  0  0  0  0  0  0  0  0  0
    0.8435    3.2182   -0.4009 H   0  0  0  0  0  0  0  0  0  0  0  0
   -0.0588    3.3444    1.0082 H   0  0  0  0  0  0  0  0  0  0  0  0
   -0.0017    1.4056    0.0002 C   0  0  0  0  0  0  0  0  0  0  0  0
   -1.2003    0.6967    0.0006 C   0  0  0  0  0  0  0  0  0  0  0  0
   -2.0665    1.1838   -0.0004 H   0  0  0  0  0  0  0  0  0  0  0  0
   -1.2059   -0.7024   -0.0000 C   0  0  0  0  0  0  0  0  0  0  0  0
   -2.0790   -1.1947    0.0012 H   0  0  0  0  0  0  0  0  0  0  0  0
    0.0044   -1.4007   -0.0011 C   0  0  0  0  0  0  0  0  0  0  0  0
    0.0019   -2.3962   -0.0037 H   0  0  0  0  0  0  0  0  0  0  0  0
    1.2059   -0.6967    0.0000 C   0  0  0  0  0  0  0  0  0  0  0  0
    2.0883   -1.1917    0.0021 H   0  0  0  0  0  0  0  0  0  0  0  0
    1.1976    0.6976    0.0003 C   0  0  0  0  0  0  0  0  0  0  0  0
    2.0650    1.1943    0.0000 H   0  0  0  0  0  0  0  0  0  0  0  0
  1  5  1  0
  5  8  1  0
  1  2  1  0
  1  3  1  0
  1  4  1  0
  5  6  1  0
  5  7  1  0
  8  9  1  0
  8 10  1  0
  8 11  1  0
 12 16  1  0
 16 17  2  0
 17 19  1  0
 19 21  2  0
 21 23  1  0
 23 25  2  0
 25 16  1  0
 12 13  1  0
 12 14  1  0
 12 15  1  0
 17 18  1  0
 19 20  1  0
 21 22  1  0
 23 24  1  0
 25 26  1  0
M  CHG  1   8   1
M  END
>  <PDB_ID>  (1427) 
pdb3b42

>  <RESIDUE_NAME>  (1427) 
LYS   PHE

>  <FRAG_NAME>  (1427) 
ETAM   MBZ

>  <FRAG_ATOM_NUM>  (1427) 
fragi: 11  fragj: 15

>  <atom.prop.CHAIN_ID>  (1427) 
A A A A A A A A A A A Z Z Z Z Z Z Z Z Z Z Z Z Z Z Z

>  <atom.prop.IS_HEAVY_ATOM>  (1427) 
1 0 0 0 1 0 0 1 0 0 0 1 0 0 0 1 1 0 1 0 1 0 1 0 1 0

>  <DIFUSE_FUNC_ATOM>  (1427) 
n/a

>  <FINAL_SINGLE_POINT_ENERGY>  (1427) 
0

>  <NONCOV_INTER_ENERGY_QM>  (1427) 
0

>  <FF_Energy>  (1427) 
-8.23

>  <QM_Energy>  (1427) 
-15.22

>  <source>  (1427) 
ETAM_MBZ

>  <Index>  (1427) 
14261

$$$$
ETAM-pdb1x0u-B-LYS-38:MBZ-pdb1x0u-B-PHE-34
     RDKit          3D

 26 25  0  0  0  0  0  0  0  0999 V2000
    0.2273   -0.7671    4.6530 C   0  0  0  0  0  0  0  0  0  0  0  0
    0.6956    0.0739    4.8938 H   0  0  0  0  0  0  0  0  0  0  0  0
    0.4732   -1.4989    5.2759 H   0  0  0  0  0  0  0  0  0  0  0  0
   -0.8489   -0.6021    4.7042 H   0  0  0  0  0  0  0  0  0  0  0  0
    0.6487   -1.1693    3.2443 C   0  0  0  0  0  0  0  0  0  0  0  0
    0.0131   -1.8795    2.9069 H   0  0  0  0  0  0  0  0  0  0  0  0
    0.5613   -0.3652    2.6385 H   0  0  0  0  0  0  0  0  0  0  0  0
    2.0428   -1.6881    3.1646 N   0  0  0  0  0  4  0  0  0  0  0  0
    2.5582   -1.3770    3.9625 H   0  0  0  0  0  0  0  0  0  0  0  0
    2.0237   -2.6874    3.1472 H   0  0  0  0  0  0  0  0  0  0  0  0
    2.4757   -1.3463    2.3319 H   0  0  0  0  0  0  0  0  0  0  0  0
    0.0064    2.9128   -0.0956 C   0  0  0  0  0  0  0  0  0  0  0  0
   -0.2023    3.1580   -1.0319 H   0  0  0  0  0  0  0  0  0  0  0  0
    0.9075    3.2291    0.1639 H   0  0  0  0  0  0  0  0  0  0  0  0
   -0.7210    3.4045    0.5505 H   0  0  0  0  0  0  0  0  0  0  0  0
    0.0010    1.4072   -0.0011 C   0  0  0  0  0  0  0  0  0  0  0  0
   -1.1969    0.6943    0.0019 C   0  0  0  0  0  0  0  0  0  0  0  0
   -2.0644    1.1840    0.0046 H   0  0  0  0  0  0  0  0  0  0  0  0
   -1.2040   -0.7004   -0.0000 C   0  0  0  0  0  0  0  0  0  0  0  0
   -2.0804   -1.1918    0.0025 H   0  0  0  0  0  0  0  0  0  0  0  0
   -0.0019   -1.3993   -0.0034 C   0  0  0  0  0  0  0  0  0  0  0  0
   -0.0034   -2.3954   -0.0085 H   0  0  0  0  0  0  0  0  0  0  0  0
    1.2040   -0.6989    0.0000 C   0  0  0  0  0  0  0  0  0  0  0  0
    2.0837   -1.1954    0.0022 H   0  0  0  0  0  0  0  0  0  0  0  0
    1.1977    0.6971    0.0027 C   0  0  0  0  0  0  0  0  0  0  0  0
    2.0669    1.1915    0.0064 H   0  0  0  0  0  0  0  0  0  0  0  0
  1  5  1  0
  5  8  1  0
  1  2  1  0
  1  3  1  0
  1  4  1  0
  5  6  1  0
  5  7  1  0
  8  9  1  0
  8 10  1  0
  8 11  1  0
 12 16  1  0
 16 17  2  0
 17 19  1  0
 19 21  2  0
 21 23  1  0
 23 25  2  0
 25 16  1  0
 12 13  1  0
 12 14  1  0
 12 15  1  0
 17 18  1  0
 19 20  1  0
 21 22  1  0
 23 24  1  0
 25 26  1  0
M  CHG  1   8   1
M  END
>  <PDB_ID>  (1428) 
pdb1x0u

>  <RESIDUE_NAME>  (1428) 
LYS   PHE

>  <FRAG_NAME>  (1428) 
ETAM   MBZ

>  <FRAG_ATOM_NUM>  (1428) 
fragi: 11  fragj: 15

>  <atom.prop.CHAIN_ID>  (1428) 
A A A A A A A A A A A Z Z Z Z Z Z Z Z Z Z Z Z Z Z Z

>  <atom.prop.IS_HEAVY_ATOM>  (1428) 
1 0 0 0 1 0 0 1 0 0 0 1 0 0 0 1 1 0 1 0 1 0 1 0 1 0

>  <DIFUSE_FUNC_ATOM>  (1428) 
n/a

>  <FINAL_SINGLE_POINT_ENERGY>  (1428) 
0

>  <NONCOV_INTER_ENERGY_QM>  (1428) 
0

>  <FF_Energy>  (1428) 
-4.0

>  <QM_Energy>  (1428) 
-10.43

>  <source>  (1428) 
ETAM_MBZ

>  <Index>  (1428) 
14270

$$$$
ETAM-pdb1x0u-C-LYS-38:MBZ-pdb1x0u-C-PHE-34
     RDKit          3D

 26 25  0  0  0  0  0  0  0  0999 V2000
    1.2387   -0.9957    4.2133 C   0  0  0  0  0  0  0  0  0  0  0  0
    1.2814   -1.2132    5.1828 H   0  0  0  0  0  0  0  0  0  0  0  0
    1.0825   -1.8193    3.6786 H   0  0  0  0  0  0  0  0  0  0  0  0
    0.4164   -0.3008    4.0429 H   0  0  0  0  0  0  0  0  0  0  0  0
    2.5642   -0.3892    3.7933 C   0  0  0  0  0  0  0  0  0  0  0  0
    2.7367    0.4351    4.3505 H   0  0  0  0  0  0  0  0  0  0  0  0
    3.3014   -1.0523    3.9844 H   0  0  0  0  0  0  0  0  0  0  0  0
    2.6065   -0.0189    2.3554 N   0  0  0  0  0  4  0  0  0  0  0  0
    3.1625   -0.6838    1.8566 H   0  0  0  0  0  0  0  0  0  0  0  0
    1.6779   -0.0157    1.9853 H   0  0  0  0  0  0  0  0  0  0  0  0
    3.0081    0.8920    2.2572 H   0  0  0  0  0  0  0  0  0  0  0  0
    0.0138    2.9028   -0.0559 C   0  0  0  0  0  0  0  0  0  0  0  0
   -0.4111    3.1860   -0.9072 H   0  0  0  0  0  0  0  0  0  0  0  0
    0.9590    3.2047   -0.0197 H   0  0  0  0  0  0  0  0  0  0  0  0
   -0.5181    3.3992    0.7557 H   0  0  0  0  0  0  0  0  0  0  0  0
   -0.0017    1.4055    0.0002 C   0  0  0  0  0  0  0  0  0  0  0  0
   -1.1975    0.7043    0.0014 C   0  0  0  0  0  0  0  0  0  0  0  0
   -2.0647    1.1902    0.0019 H   0  0  0  0  0  0  0  0  0  0  0  0
   -1.2066   -0.6973    0.0000 C   0  0  0  0  0  0  0  0  0  0  0  0
   -2.0801   -1.1870    0.0014 H   0  0  0  0  0  0  0  0  0  0  0  0
    0.0035   -1.4017   -0.0009 C   0  0  0  0  0  0  0  0  0  0  0  0
   -0.0057   -2.3971   -0.0024 H   0  0  0  0  0  0  0  0  0  0  0  0
    1.2066   -0.7039    0.0000 C   0  0  0  0  0  0  0  0  0  0  0  0
    2.0871   -1.1966    0.0029 H   0  0  0  0  0  0  0  0  0  0  0  0
    1.1958    0.6930   -0.0007 C   0  0  0  0  0  0  0  0  0  0  0  0
    2.0649    1.1900   -0.0026 H   0  0  0  0  0  0  0  0  0  0  0  0
  1  5  1  0
  5  8  1  0
  1  2  1  0
  1  3  1  0
  1  4  1  0
  5  6  1  0
  5  7  1  0
  8  9  1  0
  8 10  1  0
  8 11  1  0
 12 16  1  0
 16 17  2  0
 17 19  1  0
 19 21  2  0
 21 23  1  0
 23 25  2  0
 25 16  1  0
 12 13  1  0
 12 14  1  0
 12 15  1  0
 17 18  1  0
 19 20  1  0
 21 22  1  0
 23 24  1  0
 25 26  1  0
M  CHG  1   8   1
M  END
>  <PDB_ID>  (1429) 
pdb1x0u

>  <RESIDUE_NAME>  (1429) 
LYS   PHE

>  <FRAG_NAME>  (1429) 
ETAM   MBZ

>  <FRAG_ATOM_NUM>  (1429) 
fragi: 11  fragj: 15

>  <atom.prop.CHAIN_ID>  (1429) 
A A A A A A A A A A A Z Z Z Z Z Z Z Z Z Z Z Z Z Z Z

>  <atom.prop.IS_HEAVY_ATOM>  (1429) 
1 0 0 0 1 0 0 1 0 0 0 1 0 0 0 1 1 0 1 0 1 0 1 0 1 0

>  <DIFUSE_FUNC_ATOM>  (1429) 
n/a

>  <FINAL_SINGLE_POINT_ENERGY>  (1429) 
0

>  <NONCOV_INTER_ENERGY_QM>  (1429) 
0

>  <FF_Energy>  (1429) 
1.03

>  <QM_Energy>  (1429) 
-8.1

>  <source>  (1429) 
ETAM_MBZ

>  <Index>  (1429) 
14272

$$$$
ETAM-pdb1wz3-B-LYS-82:MBZ-pdb1wz3-B-PHE-79
     RDKit          3D

 26 25  0  0  0  0  0  0  0  0999 V2000
    2.2084   -1.6956    4.0857 C   0  0  0  0  0  0  0  0  0  0  0  0
    3.0566   -2.1742    4.2997 H   0  0  0  0  0  0  0  0  0  0  0  0
    1.5847   -1.7423    4.8610 H   0  0  0  0  0  0  0  0  0  0  0  0
    2.4371   -0.6502    3.8789 H   0  0  0  0  0  0  0  0  0  0  0  0
    1.5510   -2.3846    2.8955 C   0  0  0  0  0  0  0  0  0  0  0  0
    2.2157   -2.4245    2.1373 H   0  0  0  0  0  0  0  0  0  0  0  0
    1.3191   -3.3316    3.1567 H   0  0  0  0  0  0  0  0  0  0  0  0
    0.3183   -1.6946    2.4253 N   0  0  0  0  0  4  0  0  0  0  0  0
   -0.2893   -1.5365    3.2026 H   0  0  0  0  0  0  0  0  0  0  0  0
    0.5660   -0.8198    2.0109 H   0  0  0  0  0  0  0  0  0  0  0  0
   -0.1442   -2.2672    1.7486 H   0  0  0  0  0  0  0  0  0  0  0  0
   -0.0095    2.8937   -0.0260 C   0  0  0  0  0  0  0  0  0  0  0  0
   -0.8200    3.1904   -0.5365 H   0  0  0  0  0  0  0  0  0  0  0  0
    0.8128    3.2024   -0.5091 H   0  0  0  0  0  0  0  0  0  0  0  0
   -0.0290    3.3984    0.9400 H   0  0  0  0  0  0  0  0  0  0  0  0
    0.0011    1.3986   -0.0077 C   0  0  0  0  0  0  0  0  0  0  0  0
   -1.1988    0.6926   -0.0084 C   0  0  0  0  0  0  0  0  0  0  0  0
   -2.0640    1.1934   -0.0172 H   0  0  0  0  0  0  0  0  0  0  0  0
   -1.2194   -0.6930    0.0000 C   0  0  0  0  0  0  0  0  0  0  0  0
   -2.0872   -1.1861   -0.0102 H   0  0  0  0  0  0  0  0  0  0  0  0
   -0.0058   -1.3909    0.0258 C   0  0  0  0  0  0  0  0  0  0  0  0
   -0.0112   -2.3896    0.0621 H   0  0  0  0  0  0  0  0  0  0  0  0
    1.2194   -0.6999   -0.0000 C   0  0  0  0  0  0  0  0  0  0  0  0
    2.0855   -1.1998   -0.0089 H   0  0  0  0  0  0  0  0  0  0  0  0
    1.2035    0.6925   -0.0097 C   0  0  0  0  0  0  0  0  0  0  0  0
    2.0692    1.1950   -0.0196 H   0  0  0  0  0  0  0  0  0  0  0  0
  1  5  1  0
  5  8  1  0
  1  2  1  0
  1  3  1  0
  1  4  1  0
  5  6  1  0
  5  7  1  0
  8  9  1  0
  8 10  1  0
  8 11  1  0
 12 16  1  0
 16 17  2  0
 17 19  1  0
 19 21  2  0
 21 23  1  0
 23 25  2  0
 25 16  1  0
 12 13  1  0
 12 14  1  0
 12 15  1  0
 17 18  1  0
 19 20  1  0
 21 22  1  0
 23 24  1  0
 25 26  1  0
M  CHG  1   8   1
M  END
>  <PDB_ID>  (1430) 
pdb1wz3

>  <RESIDUE_NAME>  (1430) 
LYS   PHE

>  <FRAG_NAME>  (1430) 
ETAM   MBZ

>  <FRAG_ATOM_NUM>  (1430) 
fragi: 11  fragj: 15

>  <atom.prop.CHAIN_ID>  (1430) 
A A A A A A A A A A A Z Z Z Z Z Z Z Z Z Z Z Z Z Z Z

>  <atom.prop.IS_HEAVY_ATOM>  (1430) 
1 0 0 0 1 0 0 1 0 0 0 1 0 0 0 1 1 0 1 0 1 0 1 0 1 0

>  <DIFUSE_FUNC_ATOM>  (1430) 
n/a

>  <FINAL_SINGLE_POINT_ENERGY>  (1430) 
0

>  <NONCOV_INTER_ENERGY_QM>  (1430) 
0

>  <FF_Energy>  (1430) 
21.74

>  <QM_Energy>  (1430) 
-0.51

>  <source>  (1430) 
ETAM_MBZ

>  <Index>  (1430) 
14281

$$$$
ETAM-pdb1x0u-F-LYS-38:MBZ-pdb1x0u-F-PHE-101
     RDKit          3D

 26 25  0  0  0  0  0  0  0  0999 V2000
    3.7462   -1.2145   -4.7222 C   0  0  0  0  0  0  0  0  0  0  0  0
    3.3323   -0.3161   -4.5749 H   0  0  0  0  0  0  0  0  0  0  0  0
    3.1305   -1.7778   -5.2738 H   0  0  0  0  0  0  0  0  0  0  0  0
    4.6817   -1.0829   -5.2658 H   0  0  0  0  0  0  0  0  0  0  0  0
    3.9391   -1.8849   -3.3751 C   0  0  0  0  0  0  0  0  0  0  0  0
    4.4251   -2.7449   -3.5047 H   0  0  0  0  0  0  0  0  0  0  0  0
    4.4667   -1.2822   -2.7824 H   0  0  0  0  0  0  0  0  0  0  0  0
    2.6178   -2.1566   -2.7481 N   0  0  0  0  0  4  0  0  0  0  0  0
    2.4580   -1.4984   -2.0127 H   0  0  0  0  0  0  0  0  0  0  0  0
    1.8991   -2.0698   -3.4379 H   0  0  0  0  0  0  0  0  0  0  0  0
    2.6121   -3.0841   -2.3740 H   0  0  0  0  0  0  0  0  0  0  0  0
   -0.0007    2.8986    0.0322 C   0  0  0  0  0  0  0  0  0  0  0  0
   -0.6977    3.2193   -0.5911 H   0  0  0  0  0  0  0  0  0  0  0  0
    0.8970    3.2118   -0.2388 H   0  0  0  0  0  0  0  0  0  0  0  0
   -0.2153    3.3193    1.0146 H   0  0  0  0  0  0  0  0  0  0  0  0
   -0.0014    1.3978    0.0007 C   0  0  0  0  0  0  0  0  0  0  0  0
   -1.1960    0.6940   -0.0009 C   0  0  0  0  0  0  0  0  0  0  0  0
   -2.0631    1.1871   -0.0036 H   0  0  0  0  0  0  0  0  0  0  0  0
   -1.2049   -0.6938   -0.0000 C   0  0  0  0  0  0  0  0  0  0  0  0
   -2.0783   -1.1891    0.0010 H   0  0  0  0  0  0  0  0  0  0  0  0
    0.0018   -1.3938    0.0012 C   0  0  0  0  0  0  0  0  0  0  0  0
   -0.0032   -2.3901    0.0028 H   0  0  0  0  0  0  0  0  0  0  0  0
    1.2049   -0.6944   -0.0000 C   0  0  0  0  0  0  0  0  0  0  0  0
    2.0847   -1.1940    0.0008 H   0  0  0  0  0  0  0  0  0  0  0  0
    1.1956    0.6901   -0.0010 C   0  0  0  0  0  0  0  0  0  0  0  0
    2.0631    1.1919   -0.0041 H   0  0  0  0  0  0  0  0  0  0  0  0
  1  5  1  0
  5  8  1  0
  1  2  1  0
  1  3  1  0
  1  4  1  0
  5  6  1  0
  5  7  1  0
  8  9  1  0
  8 10  1  0
  8 11  1  0
 12 16  1  0
 16 17  2  0
 17 19  1  0
 19 21  2  0
 21 23  1  0
 23 25  2  0
 25 16  1  0
 12 13  1  0
 12 14  1  0
 12 15  1  0
 17 18  1  0
 19 20  1  0
 21 22  1  0
 23 24  1  0
 25 26  1  0
M  CHG  1   8   1
M  END
>  <PDB_ID>  (1431) 
pdb1x0u

>  <RESIDUE_NAME>  (1431) 
LYS   PHE

>  <FRAG_NAME>  (1431) 
ETAM   MBZ

>  <FRAG_ATOM_NUM>  (1431) 
fragi: 11  fragj: 15

>  <atom.prop.CHAIN_ID>  (1431) 
A A A A A A A A A A A Z Z Z Z Z Z Z Z Z Z Z Z Z Z Z

>  <atom.prop.IS_HEAVY_ATOM>  (1431) 
1 0 0 0 1 0 0 1 0 0 0 1 0 0 0 1 1 0 1 0 1 0 1 0 1 0

>  <DIFUSE_FUNC_ATOM>  (1431) 
n/a

>  <FINAL_SINGLE_POINT_ENERGY>  (1431) 
0

>  <NONCOV_INTER_ENERGY_QM>  (1431) 
0

>  <FF_Energy>  (1431) 
-1.82

>  <QM_Energy>  (1431) 
-8.07

>  <source>  (1431) 
ETAM_MBZ

>  <Index>  (1431) 
14283

$$$$
ETAM-pdb3b4u-A-LYS-251:MBZ-pdb3b4u-A-PHE-15
     RDKit          3D

 26 25  0  0  0  0  0  0  0  0999 V2000
    6.2847   -0.9549   -2.8164 C   0  0  0  0  0  0  0  0  0  0  0  0
    6.1706   -1.8470   -2.3906 H   0  0  0  0  0  0  0  0  0  0  0  0
    6.7095   -0.3202   -2.1782 H   0  0  0  0  0  0  0  0  0  0  0  0
    6.9382   -1.0655   -3.6817 H   0  0  0  0  0  0  0  0  0  0  0  0
    4.9251   -0.4212   -3.2087 C   0  0  0  0  0  0  0  0  0  0  0  0
    5.0415    0.4888   -3.6259 H   0  0  0  0  0  0  0  0  0  0  0  0
    4.5234   -1.0344   -3.9010 H   0  0  0  0  0  0  0  0  0  0  0  0
    4.0128   -0.3183   -2.0585 N   0  0  0  0  0  4  0  0  0  0  0  0
    4.4717   -0.6480   -1.2304 H   0  0  0  0  0  0  0  0  0  0  0  0
    3.7408    0.6369   -1.9246 H   0  0  0  0  0  0  0  0  0  0  0  0
    3.1945   -0.8725   -2.2230 H   0  0  0  0  0  0  0  0  0  0  0  0
    0.0071    2.8853   -0.0162 C   0  0  0  0  0  0  0  0  0  0  0  0
    0.9352    3.1873    0.1428 H   0  0  0  0  0  0  0  0  0  0  0  0
   -0.6018    3.2043    0.6948 H   0  0  0  0  0  0  0  0  0  0  0  0
   -0.3288    3.3034   -0.9651 H   0  0  0  0  0  0  0  0  0  0  0  0
   -0.0018    1.3886    0.0057 C   0  0  0  0  0  0  0  0  0  0  0  0
   -1.1766    0.6928   -0.0044 C   0  0  0  0  0  0  0  0  0  0  0  0
   -2.0529    1.1781   -0.0163 H   0  0  0  0  0  0  0  0  0  0  0  0
   -1.1854   -0.6953    0.0000 C   0  0  0  0  0  0  0  0  0  0  0  0
   -2.0672   -1.1818    0.0089 H   0  0  0  0  0  0  0  0  0  0  0  0
   -0.0001   -1.3764   -0.0066 C   0  0  0  0  0  0  0  0  0  0  0  0
   -0.0053   -2.3857   -0.0172 H   0  0  0  0  0  0  0  0  0  0  0  0
    1.1854   -0.6980   -0.0000 C   0  0  0  0  0  0  0  0  0  0  0  0
    2.0712   -1.1905    0.0024 H   0  0  0  0  0  0  0  0  0  0  0  0
    1.1785    0.6883    0.0053 C   0  0  0  0  0  0  0  0  0  0  0  0
    2.0544    1.1818    0.0081 H   0  0  0  0  0  0  0  0  0  0  0  0
  1  5  1  0
  5  8  1  0
  1  2  1  0
  1  3  1  0
  1  4  1  0
  5  6  1  0
  5  7  1  0
  8  9  1  0
  8 10  1  0
  8 11  1  0
 12 16  1  0
 16 17  2  0
 17 19  1  0
 19 21  2  0
 21 23  1  0
 23 25  2  0
 25 16  1  0
 12 13  1  0
 12 14  1  0
 12 15  1  0
 17 18  1  0
 19 20  1  0
 21 22  1  0
 23 24  1  0
 25 26  1  0
M  CHG  1   8   1
M  END
>  <PDB_ID>  (1432) 
pdb3b4u

>  <RESIDUE_NAME>  (1432) 
LYS   PHE

>  <FRAG_NAME>  (1432) 
ETAM   MBZ

>  <FRAG_ATOM_NUM>  (1432) 
fragi: 11  fragj: 15

>  <atom.prop.CHAIN_ID>  (1432) 
A A A A A A A A A A A Z Z Z Z Z Z Z Z Z Z Z Z Z Z Z

>  <atom.prop.IS_HEAVY_ATOM>  (1432) 
1 0 0 0 1 0 0 1 0 0 0 1 0 0 0 1 1 0 1 0 1 0 1 0 1 0

>  <DIFUSE_FUNC_ATOM>  (1432) 
n/a

>  <FINAL_SINGLE_POINT_ENERGY>  (1432) 
0

>  <NONCOV_INTER_ENERGY_QM>  (1432) 
0

>  <FF_Energy>  (1432) 
-0.52

>  <QM_Energy>  (1432) 
-5.68

>  <source>  (1432) 
ETAM_MBZ

>  <Index>  (1432) 
14286

$$$$
ETAM-pdb1x1r-A-LYS-114:MBZ-pdb1x1r-A-PHE-119
     RDKit          3D

 26 25  0  0  0  0  0  0  0  0999 V2000
    0.0984   -1.1552    4.0617 C   0  0  0  0  0  0  0  0  0  0  0  0
    0.3182   -1.3239    5.0260 H   0  0  0  0  0  0  0  0  0  0  0  0
   -0.8354   -1.4744    3.8801 H   0  0  0  0  0  0  0  0  0  0  0  0
    0.1225   -0.0781    3.8966 H   0  0  0  0  0  0  0  0  0  0  0  0
    1.0629   -1.9338    3.1924 C   0  0  0  0  0  0  0  0  0  0  0  0
    1.0560   -1.5554    2.2710 H   0  0  0  0  0  0  0  0  0  0  0  0
    1.9778   -1.8753    3.5802 H   0  0  0  0  0  0  0  0  0  0  0  0
    0.6506   -3.3720    3.1319 N   0  0  0  0  0  4  0  0  0  0  0  0
   -0.2665   -3.4334    2.7422 H   0  0  0  0  0  0  0  0  0  0  0  0
    1.2956   -3.8733    2.5587 H   0  0  0  0  0  0  0  0  0  0  0  0
    0.6523   -3.7519    4.0551 H   0  0  0  0  0  0  0  0  0  0  0  0
    0.0232    2.8653   -0.0596 C   0  0  0  0  0  0  0  0  0  0  0  0
    0.7669    3.2053    0.4897 H   0  0  0  0  0  0  0  0  0  0  0  0
   -0.8473    3.2109    0.2430 H   0  0  0  0  0  0  0  0  0  0  0  0
    0.1798    3.2248   -1.0766 H   0  0  0  0  0  0  0  0  0  0  0  0
    0.0063    1.3941    0.0137 C   0  0  0  0  0  0  0  0  0  0  0  0
   -1.1931    0.6887   -0.0103 C   0  0  0  0  0  0  0  0  0  0  0  0
   -2.0567    1.1849   -0.0366 H   0  0  0  0  0  0  0  0  0  0  0  0
   -1.1982   -0.6912   -0.0000 C   0  0  0  0  0  0  0  0  0  0  0  0
   -2.0788   -1.1863    0.0071 H   0  0  0  0  0  0  0  0  0  0  0  0
   -0.0059   -1.3882    0.0020 C   0  0  0  0  0  0  0  0  0  0  0  0
   -0.0074   -2.3874    0.0043 H   0  0  0  0  0  0  0  0  0  0  0  0
    1.1982   -0.6925   -0.0000 C   0  0  0  0  0  0  0  0  0  0  0  0
    2.0769   -1.1952    0.0043 H   0  0  0  0  0  0  0  0  0  0  0  0
    1.1926    0.6891   -0.0055 C   0  0  0  0  0  0  0  0  0  0  0  0
    2.0645    1.1867   -0.0243 H   0  0  0  0  0  0  0  0  0  0  0  0
  1  5  1  0
  5  8  1  0
  1  2  1  0
  1  3  1  0
  1  4  1  0
  5  6  1  0
  5  7  1  0
  8  9  1  0
  8 10  1  0
  8 11  1  0
 12 16  1  0
 16 17  2  0
 17 19  1  0
 19 21  2  0
 21 23  1  0
 23 25  2  0
 25 16  1  0
 12 13  1  0
 12 14  1  0
 12 15  1  0
 17 18  1  0
 19 20  1  0
 21 22  1  0
 23 24  1  0
 25 26  1  0
M  CHG  1   8   1
M  END
>  <PDB_ID>  (1433) 
pdb1x1r

>  <RESIDUE_NAME>  (1433) 
LYS   PHE

>  <FRAG_NAME>  (1433) 
ETAM   MBZ

>  <FRAG_ATOM_NUM>  (1433) 
fragi: 11  fragj: 15

>  <atom.prop.CHAIN_ID>  (1433) 
A A A A A A A A A A A Z Z Z Z Z Z Z Z Z Z Z Z Z Z Z

>  <atom.prop.IS_HEAVY_ATOM>  (1433) 
1 0 0 0 1 0 0 1 0 0 0 1 0 0 0 1 1 0 1 0 1 0 1 0 1 0

>  <DIFUSE_FUNC_ATOM>  (1433) 
n/a

>  <FINAL_SINGLE_POINT_ENERGY>  (1433) 
0

>  <NONCOV_INTER_ENERGY_QM>  (1433) 
0

>  <FF_Energy>  (1433) 
-0.74

>  <QM_Energy>  (1433) 
-7.26

>  <source>  (1433) 
ETAM_MBZ

>  <Index>  (1433) 
14289

$$$$
ETAM-pdb3b4u-B-LYS-251:MBZ-pdb3b4u-B-PHE-15
     RDKit          3D

 26 25  0  0  0  0  0  0  0  0999 V2000
    6.2594   -0.9582   -2.7965 C   0  0  0  0  0  0  0  0  0  0  0  0
    6.1388   -1.8499   -2.3845 H   0  0  0  0  0  0  0  0  0  0  0  0
    6.6948   -0.3303   -2.1676 H   0  0  0  0  0  0  0  0  0  0  0  0
    6.9013   -1.0687   -3.6705 H   0  0  0  0  0  0  0  0  0  0  0  0
    4.9062   -0.4069   -3.1936 C   0  0  0  0  0  0  0  0  0  0  0  0
    5.0317    0.4930   -3.6150 H   0  0  0  0  0  0  0  0  0  0  0  0
    4.4843   -1.0253   -3.8594 H   0  0  0  0  0  0  0  0  0  0  0  0
    4.0202   -0.2770   -2.0149 N   0  0  0  0  0  4  0  0  0  0  0  0
    3.7148   -1.1847   -1.7233 H   0  0  0  0  0  0  0  0  0  0  0  0
    4.5202    0.1614   -1.2662 H   0  0  0  0  0  0  0  0  0  0  0  0
    3.2240    0.2804   -2.2540 H   0  0  0  0  0  0  0  0  0  0  0  0
   -0.0158    2.8887   -0.0324 C   0  0  0  0  0  0  0  0  0  0  0  0
    0.9002    3.2108    0.1379 H   0  0  0  0  0  0  0  0  0  0  0  0
   -0.6494    3.2107    0.6509 H   0  0  0  0  0  0  0  0  0  0  0  0
   -0.3349    3.2868   -0.9957 H   0  0  0  0  0  0  0  0  0  0  0  0
   -0.0048    1.4015   -0.0008 C   0  0  0  0  0  0  0  0  0  0  0  0
   -1.1978    0.6789    0.0062 C   0  0  0  0  0  0  0  0  0  0  0  0
   -2.0692    1.1596    0.0143 H   0  0  0  0  0  0  0  0  0  0  0  0
   -1.1952   -0.7227   -0.0000 C   0  0  0  0  0  0  0  0  0  0  0  0
   -2.0662   -1.2136   -0.0000 H   0  0  0  0  0  0  0  0  0  0  0  0
    0.0058   -1.3821   -0.0043 C   0  0  0  0  0  0  0  0  0  0  0  0
    0.0256   -2.3894   -0.0109 H   0  0  0  0  0  0  0  0  0  0  0  0
    1.1952   -0.6746   -0.0000 C   0  0  0  0  0  0  0  0  0  0  0  0
    2.0834   -1.1796    0.0056 H   0  0  0  0  0  0  0  0  0  0  0  0
    1.1968    0.6990   -0.0010 C   0  0  0  0  0  0  0  0  0  0  0  0
    2.0590    1.2028   -0.0028 H   0  0  0  0  0  0  0  0  0  0  0  0
  1  5  1  0
  5  8  1  0
  1  2  1  0
  1  3  1  0
  1  4  1  0
  5  6  1  0
  5  7  1  0
  8  9  1  0
  8 10  1  0
  8 11  1  0
 12 16  1  0
 16 17  2  0
 17 19  1  0
 19 21  2  0
 21 23  1  0
 23 25  2  0
 25 16  1  0
 12 13  1  0
 12 14  1  0
 12 15  1  0
 17 18  1  0
 19 20  1  0
 21 22  1  0
 23 24  1  0
 25 26  1  0
M  CHG  1   8   1
M  END
>  <PDB_ID>  (1434) 
pdb3b4u

>  <RESIDUE_NAME>  (1434) 
LYS   PHE

>  <FRAG_NAME>  (1434) 
ETAM   MBZ

>  <FRAG_ATOM_NUM>  (1434) 
fragi: 11  fragj: 15

>  <atom.prop.CHAIN_ID>  (1434) 
A A A A A A A A A A A Z Z Z Z Z Z Z Z Z Z Z Z Z Z Z

>  <atom.prop.IS_HEAVY_ATOM>  (1434) 
1 0 0 0 1 0 0 1 0 0 0 1 0 0 0 1 1 0 1 0 1 0 1 0 1 0

>  <DIFUSE_FUNC_ATOM>  (1434) 
n/a

>  <FINAL_SINGLE_POINT_ENERGY>  (1434) 
0

>  <NONCOV_INTER_ENERGY_QM>  (1434) 
0

>  <FF_Energy>  (1434) 
-0.45

>  <QM_Energy>  (1434) 
-5.74

>  <source>  (1434) 
ETAM_MBZ

>  <Index>  (1434) 
14311

$$$$
ETAM-pdb1x87-A-LYS-222:MBZ-pdb1x87-A-PHE-251
     RDKit          3D

 26 25  0  0  0  0  0  0  0  0999 V2000
   -5.7082   -1.6406    1.3563 C   0  0  0  0  0  0  0  0  0  0  0  0
   -6.6575   -1.8149    1.6414 H   0  0  0  0  0  0  0  0  0  0  0  0
   -5.1577   -2.4562    1.5658 H   0  0  0  0  0  0  0  0  0  0  0  0
   -5.7034   -1.4996    0.2754 H   0  0  0  0  0  0  0  0  0  0  0  0
   -5.1679   -0.4699    2.1377 C   0  0  0  0  0  0  0  0  0  0  0  0
   -5.4916    0.3958    1.7041 H   0  0  0  0  0  0  0  0  0  0  0  0
   -5.5686   -0.4845    3.0773 H   0  0  0  0  0  0  0  0  0  0  0  0
   -3.6790   -0.4063    2.2626 N   0  0  0  0  0  4  0  0  0  0  0  0
   -3.2700   -1.0888    1.6602 H   0  0  0  0  0  0  0  0  0  0  0  0
   -3.3669    0.5053    2.0012 H   0  0  0  0  0  0  0  0  0  0  0  0
   -3.4209   -0.5932    3.2087 H   0  0  0  0  0  0  0  0  0  0  0  0
    0.0057    2.9073    0.0056 C   0  0  0  0  0  0  0  0  0  0  0  0
   -0.7924    3.2206   -0.4856 H   0  0  0  0  0  0  0  0  0  0  0  0
    0.8391    3.2153   -0.4287 H   0  0  0  0  0  0  0  0  0  0  0  0
   -0.0282    3.3347    1.0077 H   0  0  0  0  0  0  0  0  0  0  0  0
    0.0011    1.4153   -0.0006 C   0  0  0  0  0  0  0  0  0  0  0  0
   -1.1972    0.7075   -0.0062 C   0  0  0  0  0  0  0  0  0  0  0  0
   -2.0643    1.1829   -0.0159 H   0  0  0  0  0  0  0  0  0  0  0  0
   -1.1970   -0.7101    0.0000 C   0  0  0  0  0  0  0  0  0  0  0  0
   -2.0792   -1.1897    0.0043 H   0  0  0  0  0  0  0  0  0  0  0  0
   -0.0026   -1.4025    0.0019 C   0  0  0  0  0  0  0  0  0  0  0  0
   -0.0054   -2.4043    0.0046 H   0  0  0  0  0  0  0  0  0  0  0  0
    1.1970   -0.7110    0.0000 C   0  0  0  0  0  0  0  0  0  0  0  0
    2.0809   -1.2002   -0.0037 H   0  0  0  0  0  0  0  0  0  0  0  0
    1.1987    0.7007    0.0048 C   0  0  0  0  0  0  0  0  0  0  0  0
    2.0686    1.1849    0.0115 H   0  0  0  0  0  0  0  0  0  0  0  0
  1  5  1  0
  5  8  1  0
  1  2  1  0
  1  3  1  0
  1  4  1  0
  5  6  1  0
  5  7  1  0
  8  9  1  0
  8 10  1  0
  8 11  1  0
 12 16  1  0
 16 17  2  0
 17 19  1  0
 19 21  2  0
 21 23  1  0
 23 25  2  0
 25 16  1  0
 12 13  1  0
 12 14  1  0
 12 15  1  0
 17 18  1  0
 19 20  1  0
 21 22  1  0
 23 24  1  0
 25 26  1  0
M  CHG  1   8   1
M  END
>  <PDB_ID>  (1435) 
pdb1x87

>  <RESIDUE_NAME>  (1435) 
LYS   PHE

>  <FRAG_NAME>  (1435) 
ETAM   MBZ

>  <FRAG_ATOM_NUM>  (1435) 
fragi: 11  fragj: 15

>  <atom.prop.CHAIN_ID>  (1435) 
A A A A A A A A A A A Z Z Z Z Z Z Z Z Z Z Z Z Z Z Z

>  <atom.prop.IS_HEAVY_ATOM>  (1435) 
1 0 0 0 1 0 0 1 0 0 0 1 0 0 0 1 1 0 1 0 1 0 1 0 1 0

>  <DIFUSE_FUNC_ATOM>  (1435) 
n/a

>  <FINAL_SINGLE_POINT_ENERGY>  (1435) 
0

>  <NONCOV_INTER_ENERGY_QM>  (1435) 
0

>  <FF_Energy>  (1435) 
-0.88

>  <QM_Energy>  (1435) 
-6.51

>  <source>  (1435) 
ETAM_MBZ

>  <Index>  (1435) 
14335

$$$$
ETAM-pdb1x87-A-LYS-415:MBZ-pdb1x87-A-PHE-379
     RDKit          3D

 26 25  0  0  0  0  0  0  0  0999 V2000
    2.6060   -3.5124    3.5936 C   0  0  0  0  0  0  0  0  0  0  0  0
    2.1782   -2.7788    4.1104 H   0  0  0  0  0  0  0  0  0  0  0  0
    3.0991   -4.1246    4.2010 H   0  0  0  0  0  0  0  0  0  0  0  0
    1.8363   -4.0738    3.0639 H   0  0  0  0  0  0  0  0  0  0  0  0
    3.6802   -2.8423    2.6313 C   0  0  0  0  0  0  0  0  0  0  0  0
    4.5675   -2.8524    3.1140 H   0  0  0  0  0  0  0  0  0  0  0  0
    3.7646   -3.4311    1.8149 H   0  0  0  0  0  0  0  0  0  0  0  0
    3.3750   -1.4149    2.1843 N   0  0  0  0  0  4  0  0  0  0  0  0
    2.7554   -1.4561    1.4097 H   0  0  0  0  0  0  0  0  0  0  0  0
    2.9536   -0.9329    2.9434 H   0  0  0  0  0  0  0  0  0  0  0  0
    4.2292   -0.9794    1.9251 H   0  0  0  0  0  0  0  0  0  0  0  0
    0.0074    2.9073    0.0059 C   0  0  0  0  0  0  0  0  0  0  0  0
   -0.9031    3.2193   -0.2172 H   0  0  0  0  0  0  0  0  0  0  0  0
    0.6690    3.2153   -0.6597 H   0  0  0  0  0  0  0  0  0  0  0  0
    0.2808    3.3306    0.9724 H   0  0  0  0  0  0  0  0  0  0  0  0
    0.0000    1.4066   -0.0063 C   0  0  0  0  0  0  0  0  0  0  0  0
   -1.1935    0.7024   -0.0053 C   0  0  0  0  0  0  0  0  0  0  0  0
   -2.0625    1.1896   -0.0098 H   0  0  0  0  0  0  0  0  0  0  0  0
   -1.2027   -0.6958   -0.0000 C   0  0  0  0  0  0  0  0  0  0  0  0
   -2.0838   -1.1830    0.0027 H   0  0  0  0  0  0  0  0  0  0  0  0
   -0.0037   -1.4050    0.0031 C   0  0  0  0  0  0  0  0  0  0  0  0
   -0.0107   -2.3974    0.0069 H   0  0  0  0  0  0  0  0  0  0  0  0
    1.2027   -0.7033    0.0000 C   0  0  0  0  0  0  0  0  0  0  0  0
    2.0825   -1.1988   -0.0067 H   0  0  0  0  0  0  0  0  0  0  0  0
    1.1971    0.6950    0.0085 C   0  0  0  0  0  0  0  0  0  0  0  0
    2.0660    1.1883    0.0246 H   0  0  0  0  0  0  0  0  0  0  0  0
  1  5  1  0
  5  8  1  0
  1  2  1  0
  1  3  1  0
  1  4  1  0
  5  6  1  0
  5  7  1  0
  8  9  1  0
  8 10  1  0
  8 11  1  0
 12 16  1  0
 16 17  2  0
 17 19  1  0
 19 21  2  0
 21 23  1  0
 23 25  2  0
 25 16  1  0
 12 13  1  0
 12 14  1  0
 12 15  1  0
 17 18  1  0
 19 20  1  0
 21 22  1  0
 23 24  1  0
 25 26  1  0
M  CHG  1   8   1
M  END
>  <PDB_ID>  (1436) 
pdb1x87

>  <RESIDUE_NAME>  (1436) 
LYS   PHE

>  <FRAG_NAME>  (1436) 
ETAM   MBZ

>  <FRAG_ATOM_NUM>  (1436) 
fragi: 11  fragj: 15

>  <atom.prop.CHAIN_ID>  (1436) 
A A A A A A A A A A A Z Z Z Z Z Z Z Z Z Z Z Z Z Z Z

>  <atom.prop.IS_HEAVY_ATOM>  (1436) 
1 0 0 0 1 0 0 1 0 0 0 1 0 0 0 1 1 0 1 0 1 0 1 0 1 0

>  <DIFUSE_FUNC_ATOM>  (1436) 
n/a

>  <FINAL_SINGLE_POINT_ENERGY>  (1436) 
0

>  <NONCOV_INTER_ENERGY_QM>  (1436) 
0

>  <FF_Energy>  (1436) 
0.46

>  <QM_Energy>  (1436) 
-5.75

>  <source>  (1436) 
ETAM_MBZ

>  <Index>  (1436) 
14336

$$$$
ETAM-pdb3b2m-A-LYS-36:MBZ-pdb3b2m-A-PHE-52
     RDKit          3D

 26 25  0  0  0  0  0  0  0  0999 V2000
    0.1721    1.7303    4.0460 C   0  0  0  0  0  0  0  0  0  0  0  0
   -0.1622    1.9091    4.9622 H   0  0  0  0  0  0  0  0  0  0  0  0
   -0.1785    2.4026    3.4060 H   0  0  0  0  0  0  0  0  0  0  0  0
    1.2606    1.7856    4.0532 H   0  0  0  0  0  0  0  0  0  0  0  0
   -0.2746    0.3629    3.6168 C   0  0  0  0  0  0  0  0  0  0  0  0
    0.2272    0.1021    2.7701 H   0  0  0  0  0  0  0  0  0  0  0  0
   -0.0087   -0.3117    4.3317 H   0  0  0  0  0  0  0  0  0  0  0  0
   -1.7278    0.2419    3.3652 N   0  0  0  0  0  4  0  0  0  0  0  0
   -2.1246    1.1527    3.2421 H   0  0  0  0  0  0  0  0  0  0  0  0
   -1.8817   -0.3006    2.5382 H   0  0  0  0  0  0  0  0  0  0  0  0
   -2.1670   -0.2082    4.1438 H   0  0  0  0  0  0  0  0  0  0  0  0
   -0.0059    2.9143   -0.0332 C   0  0  0  0  0  0  0  0  0  0  0  0
    0.8237    3.2363    0.3888 H   0  0  0  0  0  0  0  0  0  0  0  0
   -0.8081    3.2306    0.4415 H   0  0  0  0  0  0  0  0  0  0  0  0
   -0.0402    3.3189   -1.0447 H   0  0  0  0  0  0  0  0  0  0  0  0
    0.0000    1.4109    0.0032 C   0  0  0  0  0  0  0  0  0  0  0  0
   -1.2050    0.6914    0.0008 C   0  0  0  0  0  0  0  0  0  0  0  0
   -2.0706    1.1778   -0.0018 H   0  0  0  0  0  0  0  0  0  0  0  0
   -1.2127   -0.7166   -0.0000 C   0  0  0  0  0  0  0  0  0  0  0  0
   -2.0828   -1.2039   -0.0025 H   0  0  0  0  0  0  0  0  0  0  0  0
   -0.0003   -1.4020    0.0042 C   0  0  0  0  0  0  0  0  0  0  0  0
    0.0115   -2.3990    0.0099 H   0  0  0  0  0  0  0  0  0  0  0  0
    1.2127   -0.6887    0.0000 C   0  0  0  0  0  0  0  0  0  0  0  0
    2.0909   -1.1883    0.0048 H   0  0  0  0  0  0  0  0  0  0  0  0
    1.2053    0.7050   -0.0082 C   0  0  0  0  0  0  0  0  0  0  0  0
    2.0688    1.2039   -0.0233 H   0  0  0  0  0  0  0  0  0  0  0  0
  1  5  1  0
  5  8  1  0
  1  2  1  0
  1  3  1  0
  1  4  1  0
  5  6  1  0
  5  7  1  0
  8  9  1  0
  8 10  1  0
  8 11  1  0
 12 16  1  0
 16 17  2  0
 17 19  1  0
 19 21  2  0
 21 23  1  0
 23 25  2  0
 25 16  1  0
 12 13  1  0
 12 14  1  0
 12 15  1  0
 17 18  1  0
 19 20  1  0
 21 22  1  0
 23 24  1  0
 25 26  1  0
M  CHG  1   8   1
M  END
>  <PDB_ID>  (1437) 
pdb3b2m

>  <RESIDUE_NAME>  (1437) 
LYS   PHE

>  <FRAG_NAME>  (1437) 
ETAM   MBZ

>  <FRAG_ATOM_NUM>  (1437) 
fragi: 11  fragj: 15

>  <atom.prop.CHAIN_ID>  (1437) 
A A A A A A A A A A A Z Z Z Z Z Z Z Z Z Z Z Z Z Z Z

>  <atom.prop.IS_HEAVY_ATOM>  (1437) 
1 0 0 0 1 0 0 1 0 0 0 1 0 0 0 1 1 0 1 0 1 0 1 0 1 0

>  <DIFUSE_FUNC_ATOM>  (1437) 
n/a

>  <FINAL_SINGLE_POINT_ENERGY>  (1437) 
0

>  <NONCOV_INTER_ENERGY_QM>  (1437) 
0

>  <FF_Energy>  (1437) 
-7.16

>  <QM_Energy>  (1437) 
-14.1

>  <source>  (1437) 
ETAM_MBZ

>  <Index>  (1437) 
14337

$$$$
ETAM-pdb1x94-A-LYS-147:MBZ-pdb1x94-A-PHE-165
     RDKit          3D

 26 25  0  0  0  0  0  0  0  0999 V2000
   -1.0121   -0.6539    4.8976 C   0  0  0  0  0  0  0  0  0  0  0  0
   -1.3020   -0.4973    5.8369 H   0  0  0  0  0  0  0  0  0  0  0  0
   -1.4553   -1.4663    4.5310 H   0  0  0  0  0  0  0  0  0  0  0  0
   -1.2923    0.2078    4.2918 H   0  0  0  0  0  0  0  0  0  0  0  0
    0.4963   -0.8831    4.8902 C   0  0  0  0  0  0  0  0  0  0  0  0
    0.9576   -0.0129    5.0507 H   0  0  0  0  0  0  0  0  0  0  0  0
    0.7310   -1.5277    5.6163 H   0  0  0  0  0  0  0  0  0  0  0  0
    0.9463   -1.4415    3.5759 N   0  0  0  0  0  4  0  0  0  0  0  0
    0.8055   -2.4293    3.5749 H   0  0  0  0  0  0  0  0  0  0  0  0
    0.4126   -1.0238    2.8432 H   0  0  0  0  0  0  0  0  0  0  0  0
    1.9145   -1.2370    3.4482 H   0  0  0  0  0  0  0  0  0  0  0  0
   -0.0052    2.8895    0.0482 C   0  0  0  0  0  0  0  0  0  0  0  0
   -0.8616    3.2098   -0.3288 H   0  0  0  0  0  0  0  0  0  0  0  0
    0.7647    3.2178   -0.4794 H   0  0  0  0  0  0  0  0  0  0  0  0
    0.0859    3.2927    1.0567 H   0  0  0  0  0  0  0  0  0  0  0  0
   -0.0020    1.3995    0.0016 C   0  0  0  0  0  0  0  0  0  0  0  0
   -1.2028    0.6945   -0.0006 C   0  0  0  0  0  0  0  0  0  0  0  0
   -2.0664    1.1881   -0.0046 H   0  0  0  0  0  0  0  0  0  0  0  0
   -1.2098   -0.6944   -0.0000 C   0  0  0  0  0  0  0  0  0  0  0  0
   -2.0804   -1.1926    0.0013 H   0  0  0  0  0  0  0  0  0  0  0  0
    0.0041   -1.3962    0.0009 C   0  0  0  0  0  0  0  0  0  0  0  0
   -0.0039   -2.3929    0.0017 H   0  0  0  0  0  0  0  0  0  0  0  0
    1.2098   -0.6989   -0.0000 C   0  0  0  0  0  0  0  0  0  0  0  0
    2.0888   -1.1939    0.0022 H   0  0  0  0  0  0  0  0  0  0  0  0
    1.2007    0.6954   -0.0019 C   0  0  0  0  0  0  0  0  0  0  0  0
    2.0656    1.1941   -0.0065 H   0  0  0  0  0  0  0  0  0  0  0  0
  1  5  1  0
  5  8  1  0
  1  2  1  0
  1  3  1  0
  1  4  1  0
  5  6  1  0
  5  7  1  0
  8  9  1  0
  8 10  1  0
  8 11  1  0
 12 16  1  0
 16 17  2  0
 17 19  1  0
 19 21  2  0
 21 23  1  0
 23 25  2  0
 25 16  1  0
 12 13  1  0
 12 14  1  0
 12 15  1  0
 17 18  1  0
 19 20  1  0
 21 22  1  0
 23 24  1  0
 25 26  1  0
M  CHG  1   8   1
M  END
>  <PDB_ID>  (1438) 
pdb1x94

>  <RESIDUE_NAME>  (1438) 
LYS   PHE

>  <FRAG_NAME>  (1438) 
ETAM   MBZ

>  <FRAG_ATOM_NUM>  (1438) 
fragi: 11  fragj: 15

>  <atom.prop.CHAIN_ID>  (1438) 
A A A A A A A A A A A Z Z Z Z Z Z Z Z Z Z Z Z Z Z Z

>  <atom.prop.IS_HEAVY_ATOM>  (1438) 
1 0 0 0 1 0 0 1 0 0 0 1 0 0 0 1 1 0 1 0 1 0 1 0 1 0

>  <DIFUSE_FUNC_ATOM>  (1438) 
n/a

>  <FINAL_SINGLE_POINT_ENERGY>  (1438) 
0

>  <NONCOV_INTER_ENERGY_QM>  (1438) 
0

>  <FF_Energy>  (1438) 
-5.5

>  <QM_Energy>  (1438) 
-11.17

>  <source>  (1438) 
ETAM_MBZ

>  <Index>  (1438) 
14342

$$$$
ETAM-pdb1xcr-A-LYS-148:MBZ-pdb1xcr-A-PHE-107
     RDKit          3D

 26 25  0  0  0  0  0  0  0  0999 V2000
    1.0991   -6.0203    1.1464 C   0  0  0  0  0  0  0  0  0  0  0  0
    1.7984   -5.5885    0.5828 H   0  0  0  0  0  0  0  0  0  0  0  0
    0.3911   -6.4174    0.5697 H   0  0  0  0  0  0  0  0  0  0  0  0
    1.5647   -6.8185    1.7246 H   0  0  0  0  0  0  0  0  0  0  0  0
    0.4725   -4.9700    2.0387 C   0  0  0  0  0  0  0  0  0  0  0  0
   -0.2285   -5.3979    2.6055 H   0  0  0  0  0  0  0  0  0  0  0  0
    1.1777   -4.5682    2.6186 H   0  0  0  0  0  0  0  0  0  0  0  0
   -0.1504   -3.9003    1.2131 N   0  0  0  0  0  4  0  0  0  0  0  0
   -0.8430   -3.4248    1.7550 H   0  0  0  0  0  0  0  0  0  0  0  0
    0.5532   -3.2514    0.9259 H   0  0  0  0  0  0  0  0  0  0  0  0
   -0.5782   -4.3092    0.4077 H   0  0  0  0  0  0  0  0  0  0  0  0
   -0.0020    2.8993    0.0050 C   0  0  0  0  0  0  0  0  0  0  0  0
   -0.6993    3.2073   -0.6266 H   0  0  0  0  0  0  0  0  0  0  0  0
    0.8954    3.2071   -0.2766 H   0  0  0  0  0  0  0  0  0  0  0  0
   -0.2142    3.3473    0.9758 H   0  0  0  0  0  0  0  0  0  0  0  0
   -0.0026    1.3991    0.0072 C   0  0  0  0  0  0  0  0  0  0  0  0
   -1.1953    0.6871   -0.0043 C   0  0  0  0  0  0  0  0  0  0  0  0
   -2.0638    1.1794   -0.0173 H   0  0  0  0  0  0  0  0  0  0  0  0
   -1.1997   -0.6952    0.0000 C   0  0  0  0  0  0  0  0  0  0  0  0
   -2.0733   -1.1938    0.0092 H   0  0  0  0  0  0  0  0  0  0  0  0
    0.0049   -1.3888   -0.0065 C   0  0  0  0  0  0  0  0  0  0  0  0
   -0.0017   -2.3896   -0.0167 H   0  0  0  0  0  0  0  0  0  0  0  0
    1.1997   -0.6955   -0.0000 C   0  0  0  0  0  0  0  0  0  0  0  0
    2.0836   -1.1905    0.0034 H   0  0  0  0  0  0  0  0  0  0  0  0
    1.1931    0.6933    0.0037 C   0  0  0  0  0  0  0  0  0  0  0  0
    2.0609    1.1913    0.0029 H   0  0  0  0  0  0  0  0  0  0  0  0
  1  5  1  0
  5  8  1  0
  1  2  1  0
  1  3  1  0
  1  4  1  0
  5  6  1  0
  5  7  1  0
  8  9  1  0
  8 10  1  0
  8 11  1  0
 12 16  1  0
 16 17  2  0
 17 19  1  0
 19 21  2  0
 21 23  1  0
 23 25  2  0
 25 16  1  0
 12 13  1  0
 12 14  1  0
 12 15  1  0
 17 18  1  0
 19 20  1  0
 21 22  1  0
 23 24  1  0
 25 26  1  0
M  CHG  1   8   1
M  END
>  <PDB_ID>  (1439) 
pdb1xcr

>  <RESIDUE_NAME>  (1439) 
LYS   PHE

>  <FRAG_NAME>  (1439) 
ETAM   MBZ

>  <FRAG_ATOM_NUM>  (1439) 
fragi: 11  fragj: 15

>  <atom.prop.CHAIN_ID>  (1439) 
A A A A A A A A A A A Z Z Z Z Z Z Z Z Z Z Z Z Z Z Z

>  <atom.prop.IS_HEAVY_ATOM>  (1439) 
1 0 0 0 1 0 0 1 0 0 0 1 0 0 0 1 1 0 1 0 1 0 1 0 1 0

>  <DIFUSE_FUNC_ATOM>  (1439) 
n/a

>  <FINAL_SINGLE_POINT_ENERGY>  (1439) 
0

>  <NONCOV_INTER_ENERGY_QM>  (1439) 
0

>  <FF_Energy>  (1439) 
32.2

>  <QM_Energy>  (1439) 
5.43

>  <source>  (1439) 
ETAM_MBZ

>  <Index>  (1439) 
14399

$$$$
ETAM-pdb1xe7-B-LYS-97:MBZ-pdb1xe7-B-PHE-146
     RDKit          3D

 26 25  0  0  0  0  0  0  0  0999 V2000
   -1.5943   -0.4344    3.9745 C   0  0  0  0  0  0  0  0  0  0  0  0
   -2.3416   -0.5261    4.6244 H   0  0  0  0  0  0  0  0  0  0  0  0
   -1.8569    0.1655    3.2261 H   0  0  0  0  0  0  0  0  0  0  0  0
   -0.7368    0.0007    4.4879 H   0  0  0  0  0  0  0  0  0  0  0  0
   -1.2726   -1.8111    3.4039 C   0  0  0  0  0  0  0  0  0  0  0  0
   -0.5616   -1.7121    2.7031 H   0  0  0  0  0  0  0  0  0  0  0  0
   -0.9220   -2.3937    4.1419 H   0  0  0  0  0  0  0  0  0  0  0  0
   -2.4709   -2.4546    2.8002 N   0  0  0  0  0  4  0  0  0  0  0  0
   -3.2550   -1.8397    2.8835 H   0  0  0  0  0  0  0  0  0  0  0  0
   -2.2951   -2.6431    1.8346 H   0  0  0  0  0  0  0  0  0  0  0  0
   -2.6645   -3.3104    3.2792 H   0  0  0  0  0  0  0  0  0  0  0  0
    0.0049    2.9050    0.0090 C   0  0  0  0  0  0  0  0  0  0  0  0
   -0.8618    3.2158   -0.3501 H   0  0  0  0  0  0  0  0  0  0  0  0
    0.7578    3.2128   -0.5531 H   0  0  0  0  0  0  0  0  0  0  0  0
    0.1304    3.3404    1.0004 H   0  0  0  0  0  0  0  0  0  0  0  0
    0.0003    1.4024    0.0005 C   0  0  0  0  0  0  0  0  0  0  0  0
   -1.1983    0.6947    0.0009 C   0  0  0  0  0  0  0  0  0  0  0  0
   -2.0636    1.1863    0.0005 H   0  0  0  0  0  0  0  0  0  0  0  0
   -1.2047   -0.6961   -0.0000 C   0  0  0  0  0  0  0  0  0  0  0  0
   -2.0800   -1.1899    0.0018 H   0  0  0  0  0  0  0  0  0  0  0  0
   -0.0004   -1.3955   -0.0010 C   0  0  0  0  0  0  0  0  0  0  0  0
   -0.0053   -2.3925   -0.0028 H   0  0  0  0  0  0  0  0  0  0  0  0
    1.2047   -0.6988   -0.0000 C   0  0  0  0  0  0  0  0  0  0  0  0
    2.0835   -1.1965    0.0028 H   0  0  0  0  0  0  0  0  0  0  0  0
    1.1985    0.6933   -0.0004 C   0  0  0  0  0  0  0  0  0  0  0  0
    2.0657    1.1908   -0.0022 H   0  0  0  0  0  0  0  0  0  0  0  0
  1  5  1  0
  5  8  1  0
  1  2  1  0
  1  3  1  0
  1  4  1  0
  5  6  1  0
  5  7  1  0
  8  9  1  0
  8 10  1  0
  8 11  1  0
 12 16  1  0
 16 17  2  0
 17 19  1  0
 19 21  2  0
 21 23  1  0
 23 25  2  0
 25 16  1  0
 12 13  1  0
 12 14  1  0
 12 15  1  0
 17 18  1  0
 19 20  1  0
 21 22  1  0
 23 24  1  0
 25 26  1  0
M  CHG  1   8   1
M  END
>  <PDB_ID>  (1440) 
pdb1xe7

>  <RESIDUE_NAME>  (1440) 
LYS   PHE

>  <FRAG_NAME>  (1440) 
ETAM   MBZ

>  <FRAG_ATOM_NUM>  (1440) 
fragi: 11  fragj: 15

>  <atom.prop.CHAIN_ID>  (1440) 
A A A A A A A A A A A Z Z Z Z Z Z Z Z Z Z Z Z Z Z Z

>  <atom.prop.IS_HEAVY_ATOM>  (1440) 
1 0 0 0 1 0 0 1 0 0 0 1 0 0 0 1 1 0 1 0 1 0 1 0 1 0

>  <DIFUSE_FUNC_ATOM>  (1440) 
n/a

>  <FINAL_SINGLE_POINT_ENERGY>  (1440) 
0

>  <NONCOV_INTER_ENERGY_QM>  (1440) 
0

>  <FF_Energy>  (1440) 
-2.71

>  <QM_Energy>  (1440) 
-8.69

>  <source>  (1440) 
ETAM_MBZ

>  <Index>  (1440) 
14407

$$$$
ETAM-pdb1xeq-B-LYS-86:MBZ-pdb1xeq-A-PHE-100
     RDKit          3D

 26 25  0  0  0  0  0  0  0  0999 V2000
    1.1414   -4.9132   -3.4019 C   0  0  0  0  0  0  0  0  0  0  0  0
    1.3430   -4.8382   -4.3530 H   0  0  0  0  0  0  0  0  0  0  0  0
    0.2965   -5.3644   -3.2151 H   0  0  0  0  0  0  0  0  0  0  0  0
    1.9562   -5.4260   -2.8907 H   0  0  0  0  0  0  0  0  0  0  0  0
    1.0859   -3.5168   -2.8071 C   0  0  0  0  0  0  0  0  0  0  0  0
    0.8922   -3.5796   -1.8145 H   0  0  0  0  0  0  0  0  0  0  0  0
    1.9891   -3.0685   -2.9103 H   0  0  0  0  0  0  0  0  0  0  0  0
    0.0312   -2.5774   -3.4257 N   0  0  0  0  0  4  0  0  0  0  0  0
   -0.4048   -3.0591   -4.1743 H   0  0  0  0  0  0  0  0  0  0  0  0
   -0.6254   -2.3495   -2.7200 H   0  0  0  0  0  0  0  0  0  0  0  0
    0.4989   -1.7666   -3.7506 H   0  0  0  0  0  0  0  0  0  0  0  0
   -0.0701    2.8530   -0.0033 C   0  0  0  0  0  0  0  0  0  0  0  0
   -1.0218    3.1394   -0.0015 H   0  0  0  0  0  0  0  0  0  0  0  0
    0.3793    3.1497   -0.8390 H   0  0  0  0  0  0  0  0  0  0  0  0
    0.4263    3.3453    0.8330 H   0  0  0  0  0  0  0  0  0  0  0  0
   -0.0264    1.3791    0.0529 C   0  0  0  0  0  0  0  0  0  0  0  0
   -1.1909    0.6378   -0.0460 C   0  0  0  0  0  0  0  0  0  0  0  0
   -2.0670    1.1201   -0.1555 H   0  0  0  0  0  0  0  0  0  0  0  0
   -1.1730   -0.7204   -0.0000 C   0  0  0  0  0  0  0  0  0  0  0  0
   -2.0188   -1.2523    0.0436 H   0  0  0  0  0  0  0  0  0  0  0  0
    0.0644   -1.3703   -0.0129 C   0  0  0  0  0  0  0  0  0  0  0  0
    0.0718   -2.3754   -0.0321 H   0  0  0  0  0  0  0  0  0  0  0  0
    1.1730   -0.6493   -0.0000 C   0  0  0  0  0  0  0  0  0  0  0  0
    2.1060   -1.1130    0.0072 H   0  0  0  0  0  0  0  0  0  0  0  0
    1.1529    0.7232    0.0060 C   0  0  0  0  0  0  0  0  0  0  0  0
    2.0190    1.2289   -0.0260 H   0  0  0  0  0  0  0  0  0  0  0  0
  1  5  1  0
  5  8  1  0
  1  2  1  0
  1  3  1  0
  1  4  1  0
  5  6  1  0
  5  7  1  0
  8  9  1  0
  8 10  1  0
  8 11  1  0
 12 16  1  0
 16 17  2  0
 17 19  1  0
 19 21  2  0
 21 23  1  0
 23 25  2  0
 25 16  1  0
 12 13  1  0
 12 14  1  0
 12 15  1  0
 17 18  1  0
 19 20  1  0
 21 22  1  0
 23 24  1  0
 25 26  1  0
M  CHG  1   8   1
M  END
>  <PDB_ID>  (1441) 
pdb1xeq

>  <RESIDUE_NAME>  (1441) 
LYS   PHE

>  <FRAG_NAME>  (1441) 
ETAM   MBZ

>  <FRAG_ATOM_NUM>  (1441) 
fragi: 11  fragj: 15

>  <atom.prop.CHAIN_ID>  (1441) 
A A A A A A A A A A A Z Z Z Z Z Z Z Z Z Z Z Z Z Z Z

>  <atom.prop.IS_HEAVY_ATOM>  (1441) 
1 0 0 0 1 0 0 1 0 0 0 1 0 0 0 1 1 0 1 0 1 0 1 0 1 0

>  <DIFUSE_FUNC_ATOM>  (1441) 
n/a

>  <FINAL_SINGLE_POINT_ENERGY>  (1441) 
0

>  <NONCOV_INTER_ENERGY_QM>  (1441) 
0

>  <FF_Energy>  (1441) 
-3.33

>  <QM_Energy>  (1441) 
-8.47

>  <source>  (1441) 
ETAM_MBZ

>  <Index>  (1441) 
14415

$$$$
ETAM-pdb3bcy-A-LYS-23:MBZ-pdb3bcy-A-PHE-34
     RDKit          3D

 26 25  0  0  0  0  0  0  0  0999 V2000
   -2.2405   -0.7588   -3.7013 C   0  0  0  0  0  0  0  0  0  0  0  0
   -1.6813   -0.8212   -2.8876 H   0  0  0  0  0  0  0  0  0  0  0  0
   -2.4057    0.1827   -3.9535 H   0  0  0  0  0  0  0  0  0  0  0  0
   -1.7397   -1.2704   -4.5231 H   0  0  0  0  0  0  0  0  0  0  0  0
   -3.5848   -1.4243   -3.4141 C   0  0  0  0  0  0  0  0  0  0  0  0
   -4.2803   -1.0153   -4.0079 H   0  0  0  0  0  0  0  0  0  0  0  0
   -3.5117   -2.4021   -3.6208 H   0  0  0  0  0  0  0  0  0  0  0  0
   -3.9917   -1.2529   -1.9909 N   0  0  0  0  0  4  0  0  0  0  0  0
   -3.4841   -0.4907   -1.5910 H   0  0  0  0  0  0  0  0  0  0  0  0
   -4.9714   -1.0621   -1.9475 H   0  0  0  0  0  0  0  0  0  0  0  0
   -3.7902   -2.0913   -1.4862 H   0  0  0  0  0  0  0  0  0  0  0  0
   -0.0072    2.8980    0.0306 C   0  0  0  0  0  0  0  0  0  0  0  0
   -0.6341    3.2239   -0.6556 H   0  0  0  0  0  0  0  0  0  0  0  0
    0.9124    3.2140   -0.1313 H   0  0  0  0  0  0  0  0  0  0  0  0
   -0.3304    3.2967    0.9922 H   0  0  0  0  0  0  0  0  0  0  0  0
   -0.0026    1.3979   -0.0121 C   0  0  0  0  0  0  0  0  0  0  0  0
   -1.2003    0.6907    0.0182 C   0  0  0  0  0  0  0  0  0  0  0  0
   -2.0646    1.1806    0.0524 H   0  0  0  0  0  0  0  0  0  0  0  0
   -1.1976   -0.6946   -0.0000 C   0  0  0  0  0  0  0  0  0  0  0  0
   -2.0716   -1.1947   -0.0018 H   0  0  0  0  0  0  0  0  0  0  0  0
    0.0064   -1.3836   -0.0139 C   0  0  0  0  0  0  0  0  0  0  0  0
   -0.0077   -2.3908   -0.0347 H   0  0  0  0  0  0  0  0  0  0  0  0
    1.1976   -0.7078    0.0000 C   0  0  0  0  0  0  0  0  0  0  0  0
    2.0820   -1.1967    0.0063 H   0  0  0  0  0  0  0  0  0  0  0  0
    1.1964    0.6974    0.0078 C   0  0  0  0  0  0  0  0  0  0  0  0
    2.0630    1.1858    0.0268 H   0  0  0  0  0  0  0  0  0  0  0  0
  1  5  1  0
  5  8  1  0
  1  2  1  0
  1  3  1  0
  1  4  1  0
  5  6  1  0
  5  7  1  0
  8  9  1  0
  8 10  1  0
  8 11  1  0
 12 16  1  0
 16 17  2  0
 17 19  1  0
 19 21  2  0
 21 23  1  0
 23 25  2  0
 25 16  1  0
 12 13  1  0
 12 14  1  0
 12 15  1  0
 17 18  1  0
 19 20  1  0
 21 22  1  0
 23 24  1  0
 25 26  1  0
M  CHG  1   8   1
M  END
>  <PDB_ID>  (1442) 
pdb3bcy

>  <RESIDUE_NAME>  (1442) 
LYS   PHE

>  <FRAG_NAME>  (1442) 
ETAM   MBZ

>  <FRAG_ATOM_NUM>  (1442) 
fragi: 11  fragj: 15

>  <atom.prop.CHAIN_ID>  (1442) 
A A A A A A A A A A A Z Z Z Z Z Z Z Z Z Z Z Z Z Z Z

>  <atom.prop.IS_HEAVY_ATOM>  (1442) 
1 0 0 0 1 0 0 1 0 0 0 1 0 0 0 1 1 0 1 0 1 0 1 0 1 0

>  <DIFUSE_FUNC_ATOM>  (1442) 
n/a

>  <FINAL_SINGLE_POINT_ENERGY>  (1442) 
0

>  <NONCOV_INTER_ENERGY_QM>  (1442) 
0

>  <FF_Energy>  (1442) 
-0.83

>  <QM_Energy>  (1442) 
-6.2

>  <source>  (1442) 
ETAM_MBZ

>  <Index>  (1442) 
14425

$$$$
ETAM-pdb1xf1-B-LYS-470:MBZ-pdb1xf1-B-PHE-423
     RDKit          3D

 26 25  0  0  0  0  0  0  0  0999 V2000
    0.0765   -1.2604    3.4636 C   0  0  0  0  0  0  0  0  0  0  0  0
    0.4739   -0.9017    4.3011 H   0  0  0  0  0  0  0  0  0  0  0  0
    0.5257   -0.8672    2.6696 H   0  0  0  0  0  0  0  0  0  0  0  0
    0.2079   -2.3423    3.4450 H   0  0  0  0  0  0  0  0  0  0  0  0
   -1.3971   -0.8810    3.4248 C   0  0  0  0  0  0  0  0  0  0  0  0
   -1.8119   -1.2731    2.6002 H   0  0  0  0  0  0  0  0  0  0  0  0
   -1.8532   -1.2646    4.2320 H   0  0  0  0  0  0  0  0  0  0  0  0
   -1.5893    0.5972    3.4120 N   0  0  0  0  0  4  0  0  0  0  0  0
   -2.5674    0.8035    3.4228 H   0  0  0  0  0  0  0  0  0  0  0  0
   -1.1537    0.9938    4.2190 H   0  0  0  0  0  0  0  0  0  0  0  0
   -1.1756    0.9767    2.5859 H   0  0  0  0  0  0  0  0  0  0  0  0
   -0.0074    2.9101   -0.0593 C   0  0  0  0  0  0  0  0  0  0  0  0
   -0.9507    3.2140   -0.0168 H   0  0  0  0  0  0  0  0  0  0  0  0
    0.4137    3.1867   -0.9130 H   0  0  0  0  0  0  0  0  0  0  0  0
    0.5335    3.4026    0.7488 H   0  0  0  0  0  0  0  0  0  0  0  0
    0.0009    1.4067   -0.0005 C   0  0  0  0  0  0  0  0  0  0  0  0
   -1.1990    0.6975    0.0014 C   0  0  0  0  0  0  0  0  0  0  0  0
   -2.0651    1.1844    0.0022 H   0  0  0  0  0  0  0  0  0  0  0  0
   -1.2056   -0.7033    0.0000 C   0  0  0  0  0  0  0  0  0  0  0  0
   -2.0820   -1.1920    0.0018 H   0  0  0  0  0  0  0  0  0  0  0  0
   -0.0013   -1.4000   -0.0013 C   0  0  0  0  0  0  0  0  0  0  0  0
   -0.0024   -2.3966   -0.0038 H   0  0  0  0  0  0  0  0  0  0  0  0
    1.2056   -0.6988   -0.0000 C   0  0  0  0  0  0  0  0  0  0  0  0
    2.0847   -1.1952    0.0024 H   0  0  0  0  0  0  0  0  0  0  0  0
    1.1994    0.6979    0.0004 C   0  0  0  0  0  0  0  0  0  0  0  0
    2.0667    1.1928    0.0004 H   0  0  0  0  0  0  0  0  0  0  0  0
  1  5  1  0
  5  8  1  0
  1  2  1  0
  1  3  1  0
  1  4  1  0
  5  6  1  0
  5  7  1  0
  8  9  1  0
  8 10  1  0
  8 11  1  0
 12 16  1  0
 16 17  2  0
 17 19  1  0
 19 21  2  0
 21 23  1  0
 23 25  2  0
 25 16  1  0
 12 13  1  0
 12 14  1  0
 12 15  1  0
 17 18  1  0
 19 20  1  0
 21 22  1  0
 23 24  1  0
 25 26  1  0
M  CHG  1   8   1
M  END
>  <PDB_ID>  (1443) 
pdb1xf1

>  <RESIDUE_NAME>  (1443) 
LYS   PHE

>  <FRAG_NAME>  (1443) 
ETAM   MBZ

>  <FRAG_ATOM_NUM>  (1443) 
fragi: 11  fragj: 15

>  <atom.prop.CHAIN_ID>  (1443) 
A A A A A A A A A A A Z Z Z Z Z Z Z Z Z Z Z Z Z Z Z

>  <atom.prop.IS_HEAVY_ATOM>  (1443) 
1 0 0 0 1 0 0 1 0 0 0 1 0 0 0 1 1 0 1 0 1 0 1 0 1 0

>  <DIFUSE_FUNC_ATOM>  (1443) 
n/a

>  <FINAL_SINGLE_POINT_ENERGY>  (1443) 
0

>  <NONCOV_INTER_ENERGY_QM>  (1443) 
0

>  <FF_Energy>  (1443) 
-6.69

>  <QM_Energy>  (1443) 
-13.64

>  <source>  (1443) 
ETAM_MBZ

>  <Index>  (1443) 
14432

$$$$
ETAM-pdb3bf5-A-LYS-49:MBZ-pdb3bf5-A-PHE-265
     RDKit          3D

 26 25  0  0  0  0  0  0  0  0999 V2000
    4.9445    2.5904    2.3045 C   0  0  0  0  0  0  0  0  0  0  0  0
    4.7572    3.5046    2.6595 H   0  0  0  0  0  0  0  0  0  0  0  0
    5.2557    2.6539    1.3578 H   0  0  0  0  0  0  0  0  0  0  0  0
    5.7363    2.1397    2.9028 H   0  0  0  0  0  0  0  0  0  0  0  0
    3.6656    1.7829    2.3428 C   0  0  0  0  0  0  0  0  0  0  0  0
    3.8455    0.8667    1.9859 H   0  0  0  0  0  0  0  0  0  0  0  0
    3.3470    1.7175    3.2876 H   0  0  0  0  0  0  0  0  0  0  0  0
    2.6157    2.4326    1.5167 N   0  0  0  0  0  4  0  0  0  0  0  0
    2.9835    2.6328    0.6089 H   0  0  0  0  0  0  0  0  0  0  0  0
    1.8318    1.8167    1.4306 H   0  0  0  0  0  0  0  0  0  0  0  0
    2.3257    3.2827    1.9544 H   0  0  0  0  0  0  0  0  0  0  0  0
   -0.0147    2.8926    0.0350 C   0  0  0  0  0  0  0  0  0  0  0  0
   -0.5425    3.2199   -0.7335 H   0  0  0  0  0  0  0  0  0  0  0  0
    0.9185    3.2162   -0.0022 H   0  0  0  0  0  0  0  0  0  0  0  0
   -0.4656    3.3059    0.9372 H   0  0  0  0  0  0  0  0  0  0  0  0
   -0.0018    1.4013    0.0022 C   0  0  0  0  0  0  0  0  0  0  0  0
   -1.1961    0.7001    0.0037 C   0  0  0  0  0  0  0  0  0  0  0  0
   -2.0629    1.1903    0.0066 H   0  0  0  0  0  0  0  0  0  0  0  0
   -1.2033   -0.6901   -0.0000 C   0  0  0  0  0  0  0  0  0  0  0  0
   -2.0830   -1.1817    0.0081 H   0  0  0  0  0  0  0  0  0  0  0  0
   -0.0058   -1.3970   -0.0131 C   0  0  0  0  0  0  0  0  0  0  0  0
   -0.0141   -2.3931   -0.0320 H   0  0  0  0  0  0  0  0  0  0  0  0
    1.2033   -0.7040    0.0000 C   0  0  0  0  0  0  0  0  0  0  0  0
    2.0801   -1.2053    0.0057 H   0  0  0  0  0  0  0  0  0  0  0  0
    1.2038    0.6897    0.0072 C   0  0  0  0  0  0  0  0  0  0  0  0
    2.0672    1.1856    0.0155 H   0  0  0  0  0  0  0  0  0  0  0  0
  1  5  1  0
  5  8  1  0
  1  2  1  0
  1  3  1  0
  1  4  1  0
  5  6  1  0
  5  7  1  0
  8  9  1  0
  8 10  1  0
  8 11  1  0
 12 16  1  0
 16 17  2  0
 17 19  1  0
 19 21  2  0
 21 23  1  0
 23 25  2  0
 25 16  1  0
 12 13  1  0
 12 14  1  0
 12 15  1  0
 17 18  1  0
 19 20  1  0
 21 22  1  0
 23 24  1  0
 25 26  1  0
M  CHG  1   8   1
M  END
>  <PDB_ID>  (1444) 
pdb3bf5

>  <RESIDUE_NAME>  (1444) 
LYS   PHE

>  <FRAG_NAME>  (1444) 
ETAM   MBZ

>  <FRAG_ATOM_NUM>  (1444) 
fragi: 11  fragj: 15

>  <atom.prop.CHAIN_ID>  (1444) 
A A A A A A A A A A A Z Z Z Z Z Z Z Z Z Z Z Z Z Z Z

>  <atom.prop.IS_HEAVY_ATOM>  (1444) 
1 0 0 0 1 0 0 1 0 0 0 1 0 0 0 1 1 0 1 0 1 0 1 0 1 0

>  <DIFUSE_FUNC_ATOM>  (1444) 
n/a

>  <FINAL_SINGLE_POINT_ENERGY>  (1444) 
0

>  <NONCOV_INTER_ENERGY_QM>  (1444) 
0

>  <FF_Energy>  (1444) 
23.58

>  <QM_Energy>  (1444) 
2.55

>  <source>  (1444) 
ETAM_MBZ

>  <Index>  (1444) 
14491

$$$$
ETAM-pdb3bfk-B-LYS-51:MBZ-pdb3bfk-B-PHE-31
     RDKit          3D

 26 25  0  0  0  0  0  0  0  0999 V2000
    0.3256   -1.1786    3.7542 C   0  0  0  0  0  0  0  0  0  0  0  0
    0.5731   -0.2940    3.3608 H   0  0  0  0  0  0  0  0  0  0  0  0
    0.2227   -1.8523    3.0234 H   0  0  0  0  0  0  0  0  0  0  0  0
    1.1380   -1.5015    4.4053 H   0  0  0  0  0  0  0  0  0  0  0  0
   -1.0066   -1.0367    4.4803 C   0  0  0  0  0  0  0  0  0  0  0  0
   -1.3541   -1.9424    4.7095 H   0  0  0  0  0  0  0  0  0  0  0  0
   -0.8728   -0.5027    5.3108 H   0  0  0  0  0  0  0  0  0  0  0  0
   -2.0172   -0.3344    3.6090 N   0  0  0  0  0  4  0  0  0  0  0  0
   -1.5349    0.2705    2.9807 H   0  0  0  0  0  0  0  0  0  0  0  0
   -2.5326   -1.0181    3.0986 H   0  0  0  0  0  0  0  0  0  0  0  0
   -2.6310    0.1935    4.1902 H   0  0  0  0  0  0  0  0  0  0  0  0
   -0.0156    2.9271    0.0089 C   0  0  0  0  0  0  0  0  0  0  0  0
   -0.5189    3.2242   -0.7828 H   0  0  0  0  0  0  0  0  0  0  0  0
    0.9182    3.2386   -0.0073 H   0  0  0  0  0  0  0  0  0  0  0  0
   -0.4963    3.3469    0.8925 H   0  0  0  0  0  0  0  0  0  0  0  0
    0.0007    1.4136    0.0067 C   0  0  0  0  0  0  0  0  0  0  0  0
   -1.1894    0.6998    0.0048 C   0  0  0  0  0  0  0  0  0  0  0  0
   -2.0634    1.1729    0.0055 H   0  0  0  0  0  0  0  0  0  0  0  0
   -1.1972   -0.7238    0.0000 C   0  0  0  0  0  0  0  0  0  0  0  0
   -2.0783   -1.1968   -0.0023 H   0  0  0  0  0  0  0  0  0  0  0  0
   -0.0045   -1.4055   -0.0003 C   0  0  0  0  0  0  0  0  0  0  0  0
    0.0076   -2.4055   -0.0018 H   0  0  0  0  0  0  0  0  0  0  0  0
    1.1972   -0.6986    0.0000 C   0  0  0  0  0  0  0  0  0  0  0  0
    2.0820   -1.1859    0.0098 H   0  0  0  0  0  0  0  0  0  0  0  0
    1.1932    0.7144   -0.0112 C   0  0  0  0  0  0  0  0  0  0  0  0
    2.0630    1.1976   -0.0331 H   0  0  0  0  0  0  0  0  0  0  0  0
  1  5  1  0
  5  8  1  0
  1  2  1  0
  1  3  1  0
  1  4  1  0
  5  6  1  0
  5  7  1  0
  8  9  1  0
  8 10  1  0
  8 11  1  0
 12 16  1  0
 16 17  2  0
 17 19  1  0
 19 21  2  0
 21 23  1  0
 23 25  2  0
 25 16  1  0
 12 13  1  0
 12 14  1  0
 12 15  1  0
 17 18  1  0
 19 20  1  0
 21 22  1  0
 23 24  1  0
 25 26  1  0
M  CHG  1   8   1
M  END
>  <PDB_ID>  (1445) 
pdb3bfk

>  <RESIDUE_NAME>  (1445) 
LYS   PHE

>  <FRAG_NAME>  (1445) 
ETAM   MBZ

>  <FRAG_ATOM_NUM>  (1445) 
fragi: 11  fragj: 15

>  <atom.prop.CHAIN_ID>  (1445) 
A A A A A A A A A A A Z Z Z Z Z Z Z Z Z Z Z Z Z Z Z

>  <atom.prop.IS_HEAVY_ATOM>  (1445) 
1 0 0 0 1 0 0 1 0 0 0 1 0 0 0 1 1 0 1 0 1 0 1 0 1 0

>  <DIFUSE_FUNC_ATOM>  (1445) 
n/a

>  <FINAL_SINGLE_POINT_ENERGY>  (1445) 
0

>  <NONCOV_INTER_ENERGY_QM>  (1445) 
0

>  <FF_Energy>  (1445) 
-5.45

>  <QM_Energy>  (1445) 
-10.7

>  <source>  (1445) 
ETAM_MBZ

>  <Index>  (1445) 
14502

$$$$
ETAM-pdb3bfx-B-LYS-49:MBZ-pdb3bfx-B-PHE-143
     RDKit          3D

 26 25  0  0  0  0  0  0  0  0999 V2000
    1.5507    2.1188   -3.6687 C   0  0  0  0  0  0  0  0  0  0  0  0
    1.7467    1.3470   -4.2821 H   0  0  0  0  0  0  0  0  0  0  0  0
    1.8251    1.8666   -2.7361 H   0  0  0  0  0  0  0  0  0  0  0  0
    2.1676    2.9606   -3.9832 H   0  0  0  0  0  0  0  0  0  0  0  0
    0.0622    2.3949   -3.6852 C   0  0  0  0  0  0  0  0  0  0  0  0
   -0.1519    3.0959   -3.0337 H   0  0  0  0  0  0  0  0  0  0  0  0
   -0.2225    2.6262   -4.5950 H   0  0  0  0  0  0  0  0  0  0  0  0
   -0.6192    1.1152   -3.2701 N   0  0  0  0  0  4  0  0  0  0  0  0
   -1.4941    1.3387   -2.8481 H   0  0  0  0  0  0  0  0  0  0  0  0
   -0.7626    0.5504   -4.0779 H   0  0  0  0  0  0  0  0  0  0  0  0
   -0.0372    0.6380   -2.6179 H   0  0  0  0  0  0  0  0  0  0  0  0
    0.0098    2.9259   -0.0141 C   0  0  0  0  0  0  0  0  0  0  0  0
   -0.4697    3.2282   -0.8242 H   0  0  0  0  0  0  0  0  0  0  0  0
    0.9525    3.2224   -0.0234 H   0  0  0  0  0  0  0  0  0  0  0  0
   -0.4736    3.3862    0.8476 H   0  0  0  0  0  0  0  0  0  0  0  0
   -0.0030    1.4135   -0.0014 C   0  0  0  0  0  0  0  0  0  0  0  0
   -1.1983    0.7039   -0.0050 C   0  0  0  0  0  0  0  0  0  0  0  0
   -2.0678    1.1794   -0.0122 H   0  0  0  0  0  0  0  0  0  0  0  0
   -1.2010   -0.7146   -0.0000 C   0  0  0  0  0  0  0  0  0  0  0  0
   -2.0761   -1.1971    0.0019 H   0  0  0  0  0  0  0  0  0  0  0  0
    0.0050   -1.4017    0.0040 C   0  0  0  0  0  0  0  0  0  0  0  0
    0.0045   -2.4030    0.0099 H   0  0  0  0  0  0  0  0  0  0  0  0
    1.2010   -0.7039    0.0000 C   0  0  0  0  0  0  0  0  0  0  0  0
    2.0871   -1.1914   -0.0034 H   0  0  0  0  0  0  0  0  0  0  0  0
    1.1962    0.7028    0.0023 C   0  0  0  0  0  0  0  0  0  0  0  0
    2.0643    1.1927    0.0056 H   0  0  0  0  0  0  0  0  0  0  0  0
  1  5  1  0
  5  8  1  0
  1  2  1  0
  1  3  1  0
  1  4  1  0
  5  6  1  0
  5  7  1  0
  8  9  1  0
  8 10  1  0
  8 11  1  0
 12 16  1  0
 16 17  2  0
 17 19  1  0
 19 21  2  0
 21 23  1  0
 23 25  2  0
 25 16  1  0
 12 13  1  0
 12 14  1  0
 12 15  1  0
 17 18  1  0
 19 20  1  0
 21 22  1  0
 23 24  1  0
 25 26  1  0
M  CHG  1   8   1
M  END
>  <PDB_ID>  (1446) 
pdb3bfx

>  <RESIDUE_NAME>  (1446) 
LYS   PHE

>  <FRAG_NAME>  (1446) 
ETAM   MBZ

>  <FRAG_ATOM_NUM>  (1446) 
fragi: 11  fragj: 15

>  <atom.prop.CHAIN_ID>  (1446) 
A A A A A A A A A A A Z Z Z Z Z Z Z Z Z Z Z Z Z Z Z

>  <atom.prop.IS_HEAVY_ATOM>  (1446) 
1 0 0 0 1 0 0 1 0 0 0 1 0 0 0 1 1 0 1 0 1 0 1 0 1 0

>  <DIFUSE_FUNC_ATOM>  (1446) 
n/a

>  <FINAL_SINGLE_POINT_ENERGY>  (1446) 
0

>  <NONCOV_INTER_ENERGY_QM>  (1446) 
0

>  <FF_Energy>  (1446) 
-8.24

>  <QM_Energy>  (1446) 
-14.07

>  <source>  (1446) 
ETAM_MBZ

>  <Index>  (1446) 
14512

$$$$
ETAM-pdb3bg2-A-LYS-368:MBZ-pdb3bg2-A-PHE-123
     RDKit          3D

 26 25  0  0  0  0  0  0  0  0999 V2000
   -5.5495    0.4766   -1.2200 C   0  0  0  0  0  0  0  0  0  0  0  0
   -6.3158   -0.1435   -1.3329 H   0  0  0  0  0  0  0  0  0  0  0  0
   -5.8377    1.4185   -1.3419 H   0  0  0  0  0  0  0  0  0  0  0  0
   -5.1444    0.3572   -0.2151 H   0  0  0  0  0  0  0  0  0  0  0  0
   -4.5004    0.1496   -2.2857 C   0  0  0  0  0  0  0  0  0  0  0  0
   -4.8957    0.3251   -3.1919 H   0  0  0  0  0  0  0  0  0  0  0  0
   -3.7096    0.7540   -2.1559 H   0  0  0  0  0  0  0  0  0  0  0  0
   -4.0443   -1.2743   -2.2182 N   0  0  0  0  0  4  0  0  0  0  0  0
   -3.8787   -1.6096   -3.1436 H   0  0  0  0  0  0  0  0  0  0  0  0
   -3.2018   -1.3237   -1.6855 H   0  0  0  0  0  0  0  0  0  0  0  0
   -4.7533   -1.8249   -1.7815 H   0  0  0  0  0  0  0  0  0  0  0  0
    0.0090    2.8948   -0.0860 C   0  0  0  0  0  0  0  0  0  0  0  0
    0.9348    3.2083    0.0461 H   0  0  0  0  0  0  0  0  0  0  0  0
   -0.5980    3.2452    0.6089 H   0  0  0  0  0  0  0  0  0  0  0  0
   -0.3363    3.2687   -1.0499 H   0  0  0  0  0  0  0  0  0  0  0  0
    0.0053    1.4006   -0.0006 C   0  0  0  0  0  0  0  0  0  0  0  0
   -1.1975    0.6943    0.0019 C   0  0  0  0  0  0  0  0  0  0  0  0
   -2.0610    1.1866    0.0037 H   0  0  0  0  0  0  0  0  0  0  0  0
   -1.2050   -0.6992   -0.0000 C   0  0  0  0  0  0  0  0  0  0  0  0
   -2.0833   -1.1893    0.0018 H   0  0  0  0  0  0  0  0  0  0  0  0
   -0.0070   -1.3941   -0.0026 C   0  0  0  0  0  0  0  0  0  0  0  0
   -0.0031   -2.3915   -0.0073 H   0  0  0  0  0  0  0  0  0  0  0  0
    1.2050   -0.6917    0.0000 C   0  0  0  0  0  0  0  0  0  0  0  0
    2.0812   -1.1975    0.0025 H   0  0  0  0  0  0  0  0  0  0  0  0
    1.1993    0.6901    0.0013 C   0  0  0  0  0  0  0  0  0  0  0  0
    2.0686    1.1903    0.0030 H   0  0  0  0  0  0  0  0  0  0  0  0
  1  5  1  0
  5  8  1  0
  1  2  1  0
  1  3  1  0
  1  4  1  0
  5  6  1  0
  5  7  1  0
  8  9  1  0
  8 10  1  0
  8 11  1  0
 12 16  1  0
 16 17  2  0
 17 19  1  0
 19 21  2  0
 21 23  1  0
 23 25  2  0
 25 16  1  0
 12 13  1  0
 12 14  1  0
 12 15  1  0
 17 18  1  0
 19 20  1  0
 21 22  1  0
 23 24  1  0
 25 26  1  0
M  CHG  1   8   1
M  END
>  <PDB_ID>  (1447) 
pdb3bg2

>  <RESIDUE_NAME>  (1447) 
LYS   PHE

>  <FRAG_NAME>  (1447) 
ETAM   MBZ

>  <FRAG_ATOM_NUM>  (1447) 
fragi: 11  fragj: 15

>  <atom.prop.CHAIN_ID>  (1447) 
A A A A A A A A A A A Z Z Z Z Z Z Z Z Z Z Z Z Z Z Z

>  <atom.prop.IS_HEAVY_ATOM>  (1447) 
1 0 0 0 1 0 0 1 0 0 0 1 0 0 0 1 1 0 1 0 1 0 1 0 1 0

>  <DIFUSE_FUNC_ATOM>  (1447) 
n/a

>  <FINAL_SINGLE_POINT_ENERGY>  (1447) 
0

>  <NONCOV_INTER_ENERGY_QM>  (1447) 
0

>  <FF_Energy>  (1447) 
-0.81

>  <QM_Energy>  (1447) 
-6.05

>  <source>  (1447) 
ETAM_MBZ

>  <Index>  (1447) 
14516

$$$$
ETAM-pdb1xjd-A-ILE-377:MBZ-pdb1xjd-A-PHE-448
     RDKit          3D

 26 25  0  0  0  0  0  0  0  0999 V2000
   -2.8273   -4.3506   -0.7492 C   0  0  0  0  0  0  0  0  0  0  0  0
   -2.7248   -3.5636   -0.1528 H   0  0  0  0  0  0  0  0  0  0  0  0
   -2.4202   -5.2216   -0.2355 H   0  0  0  0  0  0  0  0  0  0  0  0
   -3.8783   -4.5208   -0.9826 H   0  0  0  0  0  0  0  0  0  0  0  0
   -2.0291   -4.0702   -2.0452 C   0  0  0  0  0  0  0  0  0  0  0  0
   -1.0589   -3.8928   -1.8977 H   0  0  0  0  0  0  0  0  0  0  0  0
   -2.1011   -4.9402   -2.6979 H   0  0  0  0  0  0  0  0  0  0  0  0
   -2.5513   -2.8663   -2.7549 N   0  0  0  0  0  4  0  0  0  0  0  0
   -2.4741   -2.0747   -2.1542 H   0  0  0  0  0  0  0  0  0  0  0  0
   -2.0149   -2.7169   -3.5817 H   0  0  0  0  0  0  0  0  0  0  0  0
   -3.5068   -3.0177   -2.9944 H   0  0  0  0  0  0  0  0  0  0  0  0
    0.0011    2.9188   -0.0323 C   0  0  0  0  0  0  0  0  0  0  0  0
   -0.7933    3.2132   -0.5425 H   0  0  0  0  0  0  0  0  0  0  0  0
    0.8379    3.2133   -0.4689 H   0  0  0  0  0  0  0  0  0  0  0  0
   -0.0433    3.3840    0.9524 H   0  0  0  0  0  0  0  0  0  0  0  0
    0.0000    1.4097   -0.0024 C   0  0  0  0  0  0  0  0  0  0  0  0
   -1.1994    0.6984    0.0017 C   0  0  0  0  0  0  0  0  0  0  0  0
   -2.0659    1.1853    0.0046 H   0  0  0  0  0  0  0  0  0  0  0  0
   -1.2046   -0.7005    0.0000 C   0  0  0  0  0  0  0  0  0  0  0  0
   -2.0807   -1.1916    0.0006 H   0  0  0  0  0  0  0  0  0  0  0  0
    0.0011   -1.4025   -0.0001 C   0  0  0  0  0  0  0  0  0  0  0  0
   -0.0049   -2.3986   -0.0007 H   0  0  0  0  0  0  0  0  0  0  0  0
    1.2046   -0.7029   -0.0000 C   0  0  0  0  0  0  0  0  0  0  0  0
    2.0856   -1.1961    0.0007 H   0  0  0  0  0  0  0  0  0  0  0  0
    1.1982    0.6979    0.0008 C   0  0  0  0  0  0  0  0  0  0  0  0
    2.0670    1.1904    0.0026 H   0  0  0  0  0  0  0  0  0  0  0  0
  1  5  1  0
  5  8  1  0
  1  2  1  0
  1  3  1  0
  1  4  1  0
  5  6  1  0
  5  7  1  0
  8  9  1  0
  8 10  1  0
  8 11  1  0
 12 16  1  0
 16 17  2  0
 17 19  1  0
 19 21  2  0
 21 23  1  0
 23 25  2  0
 25 16  1  0
 12 13  1  0
 12 14  1  0
 12 15  1  0
 17 18  1  0
 19 20  1  0
 21 22  1  0
 23 24  1  0
 25 26  1  0
M  CHG  1   8   1
M  END
>  <PDB_ID>  (1448) 
pdb1xjd

>  <RESIDUE_NAME>  (1448) 
ILE   PHE

>  <FRAG_NAME>  (1448) 
ETAM   MBZ

>  <FRAG_ATOM_NUM>  (1448) 
fragi: 11  fragj: 15

>  <atom.prop.CHAIN_ID>  (1448) 
A A A A A A A A A A A Z Z Z Z Z Z Z Z Z Z Z Z Z Z Z

>  <atom.prop.IS_HEAVY_ATOM>  (1448) 
1 0 0 0 1 0 0 1 0 0 0 1 0 0 0 1 1 0 1 0 1 0 1 0 1 0

>  <DIFUSE_FUNC_ATOM>  (1448) 
n/a

>  <FINAL_SINGLE_POINT_ENERGY>  (1448) 
0

>  <NONCOV_INTER_ENERGY_QM>  (1448) 
0

>  <FF_Energy>  (1448) 
-1.75

>  <QM_Energy>  (1448) 
-7.14

>  <source>  (1448) 
ETAM_MBZ

>  <Index>  (1448) 
14517

$$$$
ETAM-pdb3ahy-D-LYS-380:MBZ-pdb3ahy-D-PHE-447
     RDKit          3D

 26 25  0  0  0  0  0  0  0  0999 V2000
    0.2204    1.1974    5.4769 C   0  0  0  0  0  0  0  0  0  0  0  0
   -0.1856    0.5951    6.1525 H   0  0  0  0  0  0  0  0  0  0  0  0
   -0.1514    2.1139    5.5526 H   0  0  0  0  0  0  0  0  0  0  0  0
    1.2970    1.2379    5.6424 H   0  0  0  0  0  0  0  0  0  0  0  0
   -0.0960    0.6573    4.0909 C   0  0  0  0  0  0  0  0  0  0  0  0
    0.0571   -0.3345    4.0851 H   0  0  0  0  0  0  0  0  0  0  0  0
   -1.0621    0.8368    3.8840 H   0  0  0  0  0  0  0  0  0  0  0  0
    0.7521    1.2875    3.0402 N   0  0  0  0  0  4  0  0  0  0  0  0
    0.4580    2.2320    2.8999 H   0  0  0  0  0  0  0  0  0  0  0  0
    1.7072    1.2735    3.3335 H   0  0  0  0  0  0  0  0  0  0  0  0
    0.6562    0.7759    2.1872 H   0  0  0  0  0  0  0  0  0  0  0  0
    0.0146    2.8994    0.0022 C   0  0  0  0  0  0  0  0  0  0  0  0
    0.8135    3.1962    0.5028 H   0  0  0  0  0  0  0  0  0  0  0  0
   -0.8184    3.2099    0.4347 H   0  0  0  0  0  0  0  0  0  0  0  0
    0.0596    3.3432   -0.9923 H   0  0  0  0  0  0  0  0  0  0  0  0
    0.0022    1.3983   -0.0067 C   0  0  0  0  0  0  0  0  0  0  0  0
   -1.1924    0.6975   -0.0026 C   0  0  0  0  0  0  0  0  0  0  0  0
   -2.0589    1.1858   -0.0025 H   0  0  0  0  0  0  0  0  0  0  0  0
   -1.1984   -0.6967   -0.0000 C   0  0  0  0  0  0  0  0  0  0  0  0
   -2.0795   -1.1852   -0.0060 H   0  0  0  0  0  0  0  0  0  0  0  0
   -0.0040   -1.3965    0.0118 C   0  0  0  0  0  0  0  0  0  0  0  0
   -0.0025   -2.3902    0.0280 H   0  0  0  0  0  0  0  0  0  0  0  0
    1.1984   -0.6903    0.0000 C   0  0  0  0  0  0  0  0  0  0  0  0
    2.0796   -1.1950   -0.0054 H   0  0  0  0  0  0  0  0  0  0  0  0
    1.1942    0.6877   -0.0025 C   0  0  0  0  0  0  0  0  0  0  0  0
    2.0637    1.1888   -0.0023 H   0  0  0  0  0  0  0  0  0  0  0  0
  1  5  1  0
  5  8  1  0
  1  2  1  0
  1  3  1  0
  1  4  1  0
  5  6  1  0
  5  7  1  0
  8  9  1  0
  8 10  1  0
  8 11  1  0
 12 16  1  0
 16 17  2  0
 17 19  1  0
 19 21  2  0
 21 23  1  0
 23 25  2  0
 25 16  1  0
 12 13  1  0
 12 14  1  0
 12 15  1  0
 17 18  1  0
 19 20  1  0
 21 22  1  0
 23 24  1  0
 25 26  1  0
M  CHG  1   8   1
M  END
>  <PDB_ID>  (1449) 
pdb3ahy

>  <RESIDUE_NAME>  (1449) 
LYS   PHE

>  <FRAG_NAME>  (1449) 
ETAM   MBZ

>  <FRAG_ATOM_NUM>  (1449) 
fragi: 11  fragj: 15

>  <atom.prop.CHAIN_ID>  (1449) 
A A A A A A A A A A A Z Z Z Z Z Z Z Z Z Z Z Z Z Z Z

>  <atom.prop.IS_HEAVY_ATOM>  (1449) 
1 0 0 0 1 0 0 1 0 0 0 1 0 0 0 1 1 0 1 0 1 0 1 0 1 0

>  <DIFUSE_FUNC_ATOM>  (1449) 
n/a

>  <FINAL_SINGLE_POINT_ENERGY>  (1449) 
0

>  <NONCOV_INTER_ENERGY_QM>  (1449) 
0

>  <FF_Energy>  (1449) 
-8.04

>  <QM_Energy>  (1449) 
-14.4

>  <source>  (1449) 
ETAM_MBZ

>  <Index>  (1449) 
14530

$$$$
ETAM-pdb1xky-A-LYS-255:MBZ-pdb1xky-A-PHE-15
     RDKit          3D

 26 25  0  0  0  0  0  0  0  0999 V2000
   -4.6498    1.0759    4.3512 C   0  0  0  0  0  0  0  0  0  0  0  0
   -5.2492    0.6011    3.7134 H   0  0  0  0  0  0  0  0  0  0  0  0
   -4.5477    2.0286    4.0833 H   0  0  0  0  0  0  0  0  0  0  0  0
   -5.0978    1.0382    5.3442 H   0  0  0  0  0  0  0  0  0  0  0  0
   -3.2984    0.4157    4.3381 C   0  0  0  0  0  0  0  0  0  0  0  0
   -2.6706    0.9310    4.9326 H   0  0  0  0  0  0  0  0  0  0  0  0
   -3.3816   -0.5202    4.7001 H   0  0  0  0  0  0  0  0  0  0  0  0
   -2.7191    0.3509    2.9678 N   0  0  0  0  0  4  0  0  0  0  0  0
   -1.7998    0.7431    2.9779 H   0  0  0  0  0  0  0  0  0  0  0  0
   -2.6728   -0.6029    2.6722 H   0  0  0  0  0  0  0  0  0  0  0  0
   -3.2974    0.8693    2.3389 H   0  0  0  0  0  0  0  0  0  0  0  0
   -0.0180    2.9238   -0.0069 C   0  0  0  0  0  0  0  0  0  0  0  0
   -0.9377    3.2182    0.2096 H   0  0  0  0  0  0  0  0  0  0  0  0
    0.2506    3.2256   -0.9111 H   0  0  0  0  0  0  0  0  0  0  0  0
    0.6576    3.3879    0.7116 H   0  0  0  0  0  0  0  0  0  0  0  0
   -0.0020    1.4105    0.0011 C   0  0  0  0  0  0  0  0  0  0  0  0
   -1.1955    0.6929   -0.0039 C   0  0  0  0  0  0  0  0  0  0  0  0
   -2.0663    1.1764   -0.0113 H   0  0  0  0  0  0  0  0  0  0  0  0
   -1.1976   -0.7063    0.0000 C   0  0  0  0  0  0  0  0  0  0  0  0
   -2.0742   -1.1968    0.0052 H   0  0  0  0  0  0  0  0  0  0  0  0
    0.0034   -1.3970   -0.0018 C   0  0  0  0  0  0  0  0  0  0  0  0
    0.0008   -2.3977   -0.0052 H   0  0  0  0  0  0  0  0  0  0  0  0
    1.1976   -0.7020   -0.0000 C   0  0  0  0  0  0  0  0  0  0  0  0
    2.0834   -1.1909   -0.0004 H   0  0  0  0  0  0  0  0  0  0  0  0
    1.1941    0.7019    0.0046 C   0  0  0  0  0  0  0  0  0  0  0  0
    2.0632    1.1917    0.0096 H   0  0  0  0  0  0  0  0  0  0  0  0
  1  5  1  0
  5  8  1  0
  1  2  1  0
  1  3  1  0
  1  4  1  0
  5  6  1  0
  5  7  1  0
  8  9  1  0
  8 10  1  0
  8 11  1  0
 12 16  1  0
 16 17  2  0
 17 19  1  0
 19 21  2  0
 21 23  1  0
 23 25  2  0
 25 16  1  0
 12 13  1  0
 12 14  1  0
 12 15  1  0
 17 18  1  0
 19 20  1  0
 21 22  1  0
 23 24  1  0
 25 26  1  0
M  CHG  1   8   1
M  END
>  <PDB_ID>  (1450) 
pdb1xky

>  <RESIDUE_NAME>  (1450) 
LYS   PHE

>  <FRAG_NAME>  (1450) 
ETAM   MBZ

>  <FRAG_ATOM_NUM>  (1450) 
fragi: 11  fragj: 15

>  <atom.prop.CHAIN_ID>  (1450) 
A A A A A A A A A A A Z Z Z Z Z Z Z Z Z Z Z Z Z Z Z

>  <atom.prop.IS_HEAVY_ATOM>  (1450) 
1 0 0 0 1 0 0 1 0 0 0 1 0 0 0 1 1 0 1 0 1 0 1 0 1 0

>  <DIFUSE_FUNC_ATOM>  (1450) 
n/a

>  <FINAL_SINGLE_POINT_ENERGY>  (1450) 
0

>  <NONCOV_INTER_ENERGY_QM>  (1450) 
0

>  <FF_Energy>  (1450) 
-3.46

>  <QM_Energy>  (1450) 
-8.86

>  <source>  (1450) 
ETAM_MBZ

>  <Index>  (1450) 
14542

$$$$
ETAM-pdb1xja-D-LYS-58:MBZ-pdb1xja-D-PHE-35
     RDKit          3D

 26 25  0  0  0  0  0  0  0  0999 V2000
    3.3717   -0.8276   -4.0540 C   0  0  0  0  0  0  0  0  0  0  0  0
    3.1997    0.0319   -3.5877 H   0  0  0  0  0  0  0  0  0  0  0  0
    3.3123   -0.7113   -5.0373 H   0  0  0  0  0  0  0  0  0  0  0  0
    4.3719   -1.1763   -3.7968 H   0  0  0  0  0  0  0  0  0  0  0  0
    2.3288   -1.8344   -3.6199 C   0  0  0  0  0  0  0  0  0  0  0  0
    2.4478   -2.6811   -4.1489 H   0  0  0  0  0  0  0  0  0  0  0  0
    2.4581   -2.0443   -2.6452 H   0  0  0  0  0  0  0  0  0  0  0  0
    0.9375   -1.3290   -3.8246 N   0  0  0  0  0  4  0  0  0  0  0  0
    0.5081   -1.1796   -2.9351 H   0  0  0  0  0  0  0  0  0  0  0  0
    0.9716   -0.4694   -4.3310 H   0  0  0  0  0  0  0  0  0  0  0  0
    0.4153   -2.0047   -4.3418 H   0  0  0  0  0  0  0  0  0  0  0  0
    0.0062    2.8939    0.1002 C   0  0  0  0  0  0  0  0  0  0  0  0
   -0.6966    3.2463   -0.4979 H   0  0  0  0  0  0  0  0  0  0  0  0
    0.9014    3.2162   -0.1643 H   0  0  0  0  0  0  0  0  0  0  0  0
   -0.1971    3.2602    1.1065 H   0  0  0  0  0  0  0  0  0  0  0  0
   -0.0007    1.4021    0.0015 C   0  0  0  0  0  0  0  0  0  0  0  0
   -1.1999    0.6968   -0.0015 C   0  0  0  0  0  0  0  0  0  0  0  0
   -2.0653    1.1851   -0.0063 H   0  0  0  0  0  0  0  0  0  0  0  0
   -1.2054   -0.7000    0.0000 C   0  0  0  0  0  0  0  0  0  0  0  0
   -2.0789   -1.1922    0.0001 H   0  0  0  0  0  0  0  0  0  0  0  0
    0.0020   -1.3944    0.0024 C   0  0  0  0  0  0  0  0  0  0  0  0
   -0.0015   -2.3931    0.0053 H   0  0  0  0  0  0  0  0  0  0  0  0
    1.2054   -0.6978   -0.0000 C   0  0  0  0  0  0  0  0  0  0  0  0
    2.0848   -1.1952    0.0011 H   0  0  0  0  0  0  0  0  0  0  0  0
    1.1985    0.6933   -0.0024 C   0  0  0  0  0  0  0  0  0  0  0  0
    2.0655    1.1914   -0.0077 H   0  0  0  0  0  0  0  0  0  0  0  0
  1  5  1  0
  5  8  1  0
  1  2  1  0
  1  3  1  0
  1  4  1  0
  5  6  1  0
  5  7  1  0
  8  9  1  0
  8 10  1  0
  8 11  1  0
 12 16  1  0
 16 17  2  0
 17 19  1  0
 19 21  2  0
 21 23  1  0
 23 25  2  0
 25 16  1  0
 12 13  1  0
 12 14  1  0
 12 15  1  0
 17 18  1  0
 19 20  1  0
 21 22  1  0
 23 24  1  0
 25 26  1  0
M  CHG  1   8   1
M  END
>  <PDB_ID>  (1451) 
pdb1xja

>  <RESIDUE_NAME>  (1451) 
LYS   PHE

>  <FRAG_NAME>  (1451) 
ETAM   MBZ

>  <FRAG_ATOM_NUM>  (1451) 
fragi: 11  fragj: 15

>  <atom.prop.CHAIN_ID>  (1451) 
A A A A A A A A A A A Z Z Z Z Z Z Z Z Z Z Z Z Z Z Z

>  <atom.prop.IS_HEAVY_ATOM>  (1451) 
1 0 0 0 1 0 0 1 0 0 0 1 0 0 0 1 1 0 1 0 1 0 1 0 1 0

>  <DIFUSE_FUNC_ATOM>  (1451) 
n/a

>  <FINAL_SINGLE_POINT_ENERGY>  (1451) 
0

>  <NONCOV_INTER_ENERGY_QM>  (1451) 
0

>  <FF_Energy>  (1451) 
-5.28

>  <QM_Energy>  (1451) 
-10.81

>  <source>  (1451) 
ETAM_MBZ

>  <Index>  (1451) 
14547

$$$$
ETAM-pdb1xky-B-LYS-255:MBZ-pdb1xky-B-PHE-15
     RDKit          3D

 26 25  0  0  0  0  0  0  0  0999 V2000
   -4.5439    1.1316    4.4042 C   0  0  0  0  0  0  0  0  0  0  0  0
   -5.1784    0.5613    3.8879 H   0  0  0  0  0  0  0  0  0  0  0  0
   -4.5266    2.0520    4.0212 H   0  0  0  0  0  0  0  0  0  0  0  0
   -4.8894    1.1893    5.4364 H   0  0  0  0  0  0  0  0  0  0  0  0
   -3.1676    0.5386    4.3148 C   0  0  0  0  0  0  0  0  0  0  0  0
   -2.5326    1.0907    4.8694 H   0  0  0  0  0  0  0  0  0  0  0  0
   -3.1840   -0.3953    4.6941 H   0  0  0  0  0  0  0  0  0  0  0  0
   -2.6746    0.4860    2.9233 N   0  0  0  0  0  4  0  0  0  0  0  0
   -1.8531    1.0524    2.8350 H   0  0  0  0  0  0  0  0  0  0  0  0
   -2.4518   -0.4602    2.6799 H   0  0  0  0  0  0  0  0  0  0  0  0
   -3.3815    0.8291    2.3020 H   0  0  0  0  0  0  0  0  0  0  0  0
   -0.0175    2.9139   -0.0277 C   0  0  0  0  0  0  0  0  0  0  0  0
   -0.9253    3.2094    0.2437 H   0  0  0  0  0  0  0  0  0  0  0  0
    0.1818    3.1979   -0.9575 H   0  0  0  0  0  0  0  0  0  0  0  0
    0.7043    3.3949    0.6324 H   0  0  0  0  0  0  0  0  0  0  0  0
    0.0017    1.4037    0.0051 C   0  0  0  0  0  0  0  0  0  0  0  0
   -1.1931    0.6913   -0.0012 C   0  0  0  0  0  0  0  0  0  0  0  0
   -2.0610    1.1845   -0.0082 H   0  0  0  0  0  0  0  0  0  0  0  0
   -1.2025   -0.6960   -0.0000 C   0  0  0  0  0  0  0  0  0  0  0  0
   -2.0814   -1.1881   -0.0042 H   0  0  0  0  0  0  0  0  0  0  0  0
   -0.0043   -1.3959    0.0086 C   0  0  0  0  0  0  0  0  0  0  0  0
   -0.0072   -2.3932    0.0205 H   0  0  0  0  0  0  0  0  0  0  0  0
    1.2025   -0.6976    0.0000 C   0  0  0  0  0  0  0  0  0  0  0  0
    2.0813   -1.1958    0.0043 H   0  0  0  0  0  0  0  0  0  0  0  0
    1.1957    0.6945   -0.0126 C   0  0  0  0  0  0  0  0  0  0  0  0
    2.0656    1.1903   -0.0354 H   0  0  0  0  0  0  0  0  0  0  0  0
  1  5  1  0
  5  8  1  0
  1  2  1  0
  1  3  1  0
  1  4  1  0
  5  6  1  0
  5  7  1  0
  8  9  1  0
  8 10  1  0
  8 11  1  0
 12 16  1  0
 16 17  2  0
 17 19  1  0
 19 21  2  0
 21 23  1  0
 23 25  2  0
 25 16  1  0
 12 13  1  0
 12 14  1  0
 12 15  1  0
 17 18  1  0
 19 20  1  0
 21 22  1  0
 23 24  1  0
 25 26  1  0
M  CHG  1   8   1
M  END
>  <PDB_ID>  (1452) 
pdb1xky

>  <RESIDUE_NAME>  (1452) 
LYS   PHE

>  <FRAG_NAME>  (1452) 
ETAM   MBZ

>  <FRAG_ATOM_NUM>  (1452) 
fragi: 11  fragj: 15

>  <atom.prop.CHAIN_ID>  (1452) 
A A A A A A A A A A A Z Z Z Z Z Z Z Z Z Z Z Z Z Z Z

>  <atom.prop.IS_HEAVY_ATOM>  (1452) 
1 0 0 0 1 0 0 1 0 0 0 1 0 0 0 1 1 0 1 0 1 0 1 0 1 0

>  <DIFUSE_FUNC_ATOM>  (1452) 
n/a

>  <FINAL_SINGLE_POINT_ENERGY>  (1452) 
0

>  <NONCOV_INTER_ENERGY_QM>  (1452) 
0

>  <FF_Energy>  (1452) 
-3.59

>  <QM_Energy>  (1452) 
-9.25

>  <source>  (1452) 
ETAM_MBZ

>  <Index>  (1452) 
14584

$$$$
ETAM-pdb3bj1-A-LYS-20:MBZ-pdb3bj1-A-PHE-114
     RDKit          3D

 26 25  0  0  0  0  0  0  0  0999 V2000
   -0.0842   -3.8675   -2.3288 C   0  0  0  0  0  0  0  0  0  0  0  0
    0.0562   -3.1876   -1.6221 H   0  0  0  0  0  0  0  0  0  0  0  0
    0.4904   -3.6861   -3.1153 H   0  0  0  0  0  0  0  0  0  0  0  0
    0.1684   -4.8489   -1.9275 H   0  0  0  0  0  0  0  0  0  0  0  0
   -1.5660   -3.7918   -2.7842 C   0  0  0  0  0  0  0  0  0  0  0  0
   -1.7756   -4.6249   -3.3086 H   0  0  0  0  0  0  0  0  0  0  0  0
   -2.1467   -3.7816   -1.9617 H   0  0  0  0  0  0  0  0  0  0  0  0
   -1.8785   -2.5882   -3.6233 N   0  0  0  0  0  4  0  0  0  0  0  0
   -1.1633   -2.4748   -4.3099 H   0  0  0  0  0  0  0  0  0  0  0  0
   -2.7598   -2.7230   -4.0709 H   0  0  0  0  0  0  0  0  0  0  0  0
   -1.9157   -1.7829   -3.0360 H   0  0  0  0  0  0  0  0  0  0  0  0
    0.0047    2.9171    0.0061 C   0  0  0  0  0  0  0  0  0  0  0  0
    0.8431    3.2224    0.4373 H   0  0  0  0  0  0  0  0  0  0  0  0
   -0.7882    3.2255    0.5138 H   0  0  0  0  0  0  0  0  0  0  0  0
   -0.0412    3.3738   -0.9825 H   0  0  0  0  0  0  0  0  0  0  0  0
    0.0011    1.4187   -0.0041 C   0  0  0  0  0  0  0  0  0  0  0  0
   -1.2025    0.7152    0.0024 C   0  0  0  0  0  0  0  0  0  0  0  0
   -2.0679    1.1926    0.0077 H   0  0  0  0  0  0  0  0  0  0  0  0
   -1.2113   -0.7102    0.0000 C   0  0  0  0  0  0  0  0  0  0  0  0
   -2.0887   -1.1880    0.0020 H   0  0  0  0  0  0  0  0  0  0  0  0
   -0.0028   -1.4168   -0.0031 C   0  0  0  0  0  0  0  0  0  0  0  0
   -0.0037   -2.4078   -0.0081 H   0  0  0  0  0  0  0  0  0  0  0  0
    1.2113   -0.7078   -0.0000 C   0  0  0  0  0  0  0  0  0  0  0  0
    2.0886   -1.2003    0.0006 H   0  0  0  0  0  0  0  0  0  0  0  0
    1.2042    0.7009    0.0047 C   0  0  0  0  0  0  0  0  0  0  0  0
    2.0725    1.1926    0.0135 H   0  0  0  0  0  0  0  0  0  0  0  0
  1  5  1  0
  5  8  1  0
  1  2  1  0
  1  3  1  0
  1  4  1  0
  5  6  1  0
  5  7  1  0
  8  9  1  0
  8 10  1  0
  8 11  1  0
 12 16  1  0
 16 17  2  0
 17 19  1  0
 19 21  2  0
 21 23  1  0
 23 25  2  0
 25 16  1  0
 12 13  1  0
 12 14  1  0
 12 15  1  0
 17 18  1  0
 19 20  1  0
 21 22  1  0
 23 24  1  0
 25 26  1  0
M  CHG  1   8   1
M  END
>  <PDB_ID>  (1453) 
pdb3bj1

>  <RESIDUE_NAME>  (1453) 
LYS   PHE

>  <FRAG_NAME>  (1453) 
ETAM   MBZ

>  <FRAG_ATOM_NUM>  (1453) 
fragi: 11  fragj: 15

>  <atom.prop.CHAIN_ID>  (1453) 
A A A A A A A A A A A Z Z Z Z Z Z Z Z Z Z Z Z Z Z Z

>  <atom.prop.IS_HEAVY_ATOM>  (1453) 
1 0 0 0 1 0 0 1 0 0 0 1 0 0 0 1 1 0 1 0 1 0 1 0 1 0

>  <DIFUSE_FUNC_ATOM>  (1453) 
n/a

>  <FINAL_SINGLE_POINT_ENERGY>  (1453) 
0

>  <NONCOV_INTER_ENERGY_QM>  (1453) 
0

>  <FF_Energy>  (1453) 
2.29

>  <QM_Energy>  (1453) 
-4.85

>  <source>  (1453) 
ETAM_MBZ

>  <Index>  (1453) 
14591

$$$$
ETAM-pdb1xo7-B-LYS-78:MBZ-pdb1xo7-B-PHE-48
     RDKit          3D

 26 25  0  0  0  0  0  0  0  0999 V2000
   -0.7456   -1.3192   -4.3670 C   0  0  0  0  0  0  0  0  0  0  0  0
   -0.5597   -2.1944   -3.9759 H   0  0  0  0  0  0  0  0  0  0  0  0
   -0.4949   -1.2509   -5.3078 H   0  0  0  0  0  0  0  0  0  0  0  0
   -1.8187   -1.1428   -4.2940 H   0  0  0  0  0  0  0  0  0  0  0  0
   -0.0089   -0.2364   -3.5639 C   0  0  0  0  0  0  0  0  0  0  0  0
   -0.2247    0.6282   -3.9220 H   0  0  0  0  0  0  0  0  0  0  0  0
   -0.1765   -0.3643   -2.6270 H   0  0  0  0  0  0  0  0  0  0  0  0
    1.4384   -0.5562   -3.8624 N   0  0  0  0  0  4  0  0  0  0  0  0
    1.8825    0.2652   -4.2092 H   0  0  0  0  0  0  0  0  0  0  0  0
    1.8791   -0.8570   -3.0217 H   0  0  0  0  0  0  0  0  0  0  0  0
    1.4718   -1.2797   -4.5455 H   0  0  0  0  0  0  0  0  0  0  0  0
   -0.0050    3.0030   -0.1048 C   0  0  0  0  0  0  0  0  0  0  0  0
   -0.7648    3.2759   -0.6709 H   0  0  0  0  0  0  0  0  0  0  0  0
    0.8597    3.2502   -0.5085 H   0  0  0  0  0  0  0  0  0  0  0  0
   -0.0931    3.5032    0.8597 H   0  0  0  0  0  0  0  0  0  0  0  0
   -0.0363    1.4478   -0.0337 C   0  0  0  0  0  0  0  0  0  0  0  0
   -1.2253    0.7508   -0.0404 C   0  0  0  0  0  0  0  0  0  0  0  0
   -2.1016    1.1826   -0.0721 H   0  0  0  0  0  0  0  0  0  0  0  0
   -1.2165   -0.7389    0.0000 C   0  0  0  0  0  0  0  0  0  0  0  0
   -2.0587   -1.2207   -0.0323 H   0  0  0  0  0  0  0  0  0  0  0  0
    0.0649   -1.4386    0.0895 C   0  0  0  0  0  0  0  0  0  0  0  0
    0.0485   -2.4123    0.2109 H   0  0  0  0  0  0  0  0  0  0  0  0
    1.2165   -0.7058    0.0000 C   0  0  0  0  0  0  0  0  0  0  0  0
    2.1262   -1.1802   -0.0563 H   0  0  0  0  0  0  0  0  0  0  0  0
    1.1968    0.6848   -0.0154 C   0  0  0  0  0  0  0  0  0  0  0  0
    2.0559    1.2028   -0.0145 H   0  0  0  0  0  0  0  0  0  0  0  0
  1  5  1  0
  5  8  1  0
  1  2  1  0
  1  3  1  0
  1  4  1  0
  5  6  1  0
  5  7  1  0
  8  9  1  0
  8 10  1  0
  8 11  1  0
 12 16  1  0
 16 17  2  0
 17 19  1  0
 19 21  2  0
 21 23  1  0
 23 25  2  0
 25 16  1  0
 12 13  1  0
 12 14  1  0
 12 15  1  0
 17 18  1  0
 19 20  1  0
 21 22  1  0
 23 24  1  0
 25 26  1  0
M  CHG  1   8   1
M  END
>  <PDB_ID>  (1454) 
pdb1xo7

>  <RESIDUE_NAME>  (1454) 
LYS   PHE

>  <FRAG_NAME>  (1454) 
ETAM   MBZ

>  <FRAG_ATOM_NUM>  (1454) 
fragi: 11  fragj: 15

>  <atom.prop.CHAIN_ID>  (1454) 
A A A A A A A A A A A Z Z Z Z Z Z Z Z Z Z Z Z Z Z Z

>  <atom.prop.IS_HEAVY_ATOM>  (1454) 
1 0 0 0 1 0 0 1 0 0 0 1 0 0 0 1 1 0 1 0 1 0 1 0 1 0

>  <DIFUSE_FUNC_ATOM>  (1454) 
n/a

>  <FINAL_SINGLE_POINT_ENERGY>  (1454) 
0

>  <NONCOV_INTER_ENERGY_QM>  (1454) 
0

>  <FF_Energy>  (1454) 
-5.89

>  <QM_Energy>  (1454) 
-11.86

>  <source>  (1454) 
ETAM_MBZ

>  <Index>  (1454) 
14600

$$$$
ETAM-pdb1xq5-A-LYS-20:MBZ-pdb1xq5-A-PHE-114
     RDKit          3D

 26 25  0  0  0  0  0  0  0  0999 V2000
    0.5974   -3.8056   -1.9851 C   0  0  0  0  0  0  0  0  0  0  0  0
    0.3008   -2.9952   -1.4843 H   0  0  0  0  0  0  0  0  0  0  0  0
    1.4505   -3.6154   -2.4661 H   0  0  0  0  0  0  0  0  0  0  0  0
    0.7621   -4.6183   -1.2777 H   0  0  0  0  0  0  0  0  0  0  0  0
   -0.4711   -4.1497   -3.0189 C   0  0  0  0  0  0  0  0  0  0  0  0
   -0.9322   -5.0007   -2.7480 H   0  0  0  0  0  0  0  0  0  0  0  0
   -1.1522   -3.4106   -3.0504 H   0  0  0  0  0  0  0  0  0  0  0  0
    0.0922   -4.3382   -4.4210 N   0  0  0  0  0  4  0  0  0  0  0  0
    0.9079   -3.7770   -4.5103 H   0  0  0  0  0  0  0  0  0  0  0  0
    0.3161   -5.2992   -4.5438 H   0  0  0  0  0  0  0  0  0  0  0  0
   -0.5983   -4.0556   -5.0773 H   0  0  0  0  0  0  0  0  0  0  0  0
    0.0183    2.8824   -0.0044 C   0  0  0  0  0  0  0  0  0  0  0  0
    0.8299    3.1941    0.4683 H   0  0  0  0  0  0  0  0  0  0  0  0
   -0.8028    3.1987    0.4500 H   0  0  0  0  0  0  0  0  0  0  0  0
    0.0308    3.3148   -1.0049 H   0  0  0  0  0  0  0  0  0  0  0  0
    0.0142    1.3950    0.0027 C   0  0  0  0  0  0  0  0  0  0  0  0
   -1.2028    0.6904   -0.0007 C   0  0  0  0  0  0  0  0  0  0  0  0
   -2.0567    1.1931   -0.0051 H   0  0  0  0  0  0  0  0  0  0  0  0
   -1.2067   -0.6892    0.0000 C   0  0  0  0  0  0  0  0  0  0  0  0
   -2.0899   -1.1825    0.0008 H   0  0  0  0  0  0  0  0  0  0  0  0
   -0.0205   -1.3830    0.0016 C   0  0  0  0  0  0  0  0  0  0  0  0
   -0.0200   -2.3862    0.0036 H   0  0  0  0  0  0  0  0  0  0  0  0
    1.2067   -0.6985   -0.0000 C   0  0  0  0  0  0  0  0  0  0  0  0
    2.0718   -1.2123    0.0026 H   0  0  0  0  0  0  0  0  0  0  0  0
    1.2091    0.6853   -0.0036 C   0  0  0  0  0  0  0  0  0  0  0  0
    2.0771    1.1814   -0.0119 H   0  0  0  0  0  0  0  0  0  0  0  0
  1  5  1  0
  5  8  1  0
  1  2  1  0
  1  3  1  0
  1  4  1  0
  5  6  1  0
  5  7  1  0
  8  9  1  0
  8 10  1  0
  8 11  1  0
 12 16  1  0
 16 17  2  0
 17 19  1  0
 19 21  2  0
 21 23  1  0
 23 25  2  0
 25 16  1  0
 12 13  1  0
 12 14  1  0
 12 15  1  0
 17 18  1  0
 19 20  1  0
 21 22  1  0
 23 24  1  0
 25 26  1  0
M  CHG  1   8   1
M  END
>  <PDB_ID>  (1455) 
pdb1xq5

>  <RESIDUE_NAME>  (1455) 
LYS   PHE

>  <FRAG_NAME>  (1455) 
ETAM   MBZ

>  <FRAG_ATOM_NUM>  (1455) 
fragi: 11  fragj: 15

>  <atom.prop.CHAIN_ID>  (1455) 
A A A A A A A A A A A Z Z Z Z Z Z Z Z Z Z Z Z Z Z Z

>  <atom.prop.IS_HEAVY_ATOM>  (1455) 
1 0 0 0 1 0 0 1 0 0 0 1 0 0 0 1 1 0 1 0 1 0 1 0 1 0

>  <DIFUSE_FUNC_ATOM>  (1455) 
n/a

>  <FINAL_SINGLE_POINT_ENERGY>  (1455) 
0

>  <NONCOV_INTER_ENERGY_QM>  (1455) 
0

>  <FF_Energy>  (1455) 
14.44

>  <QM_Energy>  (1455) 
0.44

>  <source>  (1455) 
ETAM_MBZ

>  <Index>  (1455) 
14624

$$$$
ETAM-pdb3bju-D-LYS-430:MBZ-pdb3bju-D-PHE-451
     RDKit          3D

 26 25  0  0  0  0  0  0  0  0999 V2000
   -0.0663   -4.4257   -1.7081 C   0  0  0  0  0  0  0  0  0  0  0  0
    0.2839   -4.8630   -2.5459 H   0  0  0  0  0  0  0  0  0  0  0  0
   -0.0152   -3.4262   -1.8278 H   0  0  0  0  0  0  0  0  0  0  0  0
   -1.1133   -4.7040   -1.5885 H   0  0  0  0  0  0  0  0  0  0  0  0
    0.8587   -4.8157   -0.5421 C   0  0  0  0  0  0  0  0  0  0  0  0
    0.5102   -4.4119    0.3002 H   0  0  0  0  0  0  0  0  0  0  0  0
    0.8798   -5.8091   -0.4603 H   0  0  0  0  0  0  0  0  0  0  0  0
    2.2845   -4.3174   -0.7649 N   0  0  0  0  0  4  0  0  0  0  0  0
    2.2614   -3.3275   -0.8381 H   0  0  0  0  0  0  0  0  0  0  0  0
    2.8380   -4.5973    0.0111 H   0  0  0  0  0  0  0  0  0  0  0  0
    2.6297   -4.7223   -1.6041 H   0  0  0  0  0  0  0  0  0  0  0  0
    0.0044    2.8941    0.0416 C   0  0  0  0  0  0  0  0  0  0  0  0
   -0.8902    3.2164   -0.2125 H   0  0  0  0  0  0  0  0  0  0  0  0
    0.7027    3.2228   -0.5693 H   0  0  0  0  0  0  0  0  0  0  0  0
    0.2261    3.2777    1.0374 H   0  0  0  0  0  0  0  0  0  0  0  0
   -0.0014    1.3982   -0.0117 C   0  0  0  0  0  0  0  0  0  0  0  0
   -1.1973    0.6933   -0.0011 C   0  0  0  0  0  0  0  0  0  0  0  0
   -2.0639    1.1851    0.0044 H   0  0  0  0  0  0  0  0  0  0  0  0
   -1.2062   -0.6976    0.0000 C   0  0  0  0  0  0  0  0  0  0  0  0
   -2.0780   -1.1924   -0.0024 H   0  0  0  0  0  0  0  0  0  0  0  0
    0.0039   -1.3925    0.0057 C   0  0  0  0  0  0  0  0  0  0  0  0
    0.0007   -2.3908    0.0127 H   0  0  0  0  0  0  0  0  0  0  0  0
    1.2062   -0.6933    0.0000 C   0  0  0  0  0  0  0  0  0  0  0  0
    2.0865   -1.1913   -0.0077 H   0  0  0  0  0  0  0  0  0  0  0  0
    1.1948    0.6918    0.0071 C   0  0  0  0  0  0  0  0  0  0  0  0
    2.0622    1.1940    0.0250 H   0  0  0  0  0  0  0  0  0  0  0  0
  1  5  1  0
  5  8  1  0
  1  2  1  0
  1  3  1  0
  1  4  1  0
  5  6  1  0
  5  7  1  0
  8  9  1  0
  8 10  1  0
  8 11  1  0
 12 16  1  0
 16 17  2  0
 17 19  1  0
 19 21  2  0
 21 23  1  0
 23 25  2  0
 25 16  1  0
 12 13  1  0
 12 14  1  0
 12 15  1  0
 17 18  1  0
 19 20  1  0
 21 22  1  0
 23 24  1  0
 25 26  1  0
M  CHG  1   8   1
M  END
>  <PDB_ID>  (1456) 
pdb3bju

>  <RESIDUE_NAME>  (1456) 
LYS   PHE

>  <FRAG_NAME>  (1456) 
ETAM   MBZ

>  <FRAG_ATOM_NUM>  (1456) 
fragi: 11  fragj: 15

>  <atom.prop.CHAIN_ID>  (1456) 
A A A A A A A A A A A Z Z Z Z Z Z Z Z Z Z Z Z Z Z Z

>  <atom.prop.IS_HEAVY_ATOM>  (1456) 
1 0 0 0 1 0 0 1 0 0 0 1 0 0 0 1 1 0 1 0 1 0 1 0 1 0

>  <DIFUSE_FUNC_ATOM>  (1456) 
n/a

>  <FINAL_SINGLE_POINT_ENERGY>  (1456) 
0

>  <NONCOV_INTER_ENERGY_QM>  (1456) 
0

>  <FF_Energy>  (1456) 
2.18

>  <QM_Energy>  (1456) 
-3.84

>  <source>  (1456) 
ETAM_MBZ

>  <Index>  (1456) 
14638

$$$$
ETAM-pdb1xs1-D-LYS-144:MBZ-pdb1xs1-E-PHE-44
     RDKit          3D

 26 25  0  0  0  0  0  0  0  0999 V2000
   -2.5721    3.8257   -1.8348 C   0  0  0  0  0  0  0  0  0  0  0  0
   -1.8134    4.1219   -1.2614 H   0  0  0  0  0  0  0  0  0  0  0  0
   -3.1233    4.6105   -2.1049 H   0  0  0  0  0  0  0  0  0  0  0  0
   -2.1743    3.3456   -2.7287 H   0  0  0  0  0  0  0  0  0  0  0  0
   -3.4448    2.8779   -1.0289 C   0  0  0  0  0  0  0  0  0  0  0  0
   -4.3610    2.8196   -1.4798 H   0  0  0  0  0  0  0  0  0  0  0  0
   -3.0437    1.9390   -1.0883 H   0  0  0  0  0  0  0  0  0  0  0  0
   -3.6387    3.2232    0.4033 N   0  0  0  0  0  4  0  0  0  0  0  0
   -4.0733    2.4555    0.8745 H   0  0  0  0  0  0  0  0  0  0  0  0
   -2.7511    3.4134    0.8233 H   0  0  0  0  0  0  0  0  0  0  0  0
   -4.2218    4.0325    0.4750 H   0  0  0  0  0  0  0  0  0  0  0  0
    0.0036    2.9055   -0.0008 C   0  0  0  0  0  0  0  0  0  0  0  0
   -0.7434    3.2057   -0.5762 H   0  0  0  0  0  0  0  0  0  0  0  0
    0.8761    3.2041   -0.3595 H   0  0  0  0  0  0  0  0  0  0  0  0
   -0.1280    3.3497    0.9859 H   0  0  0  0  0  0  0  0  0  0  0  0
    0.0027    1.3869   -0.0046 C   0  0  0  0  0  0  0  0  0  0  0  0
   -1.1991    0.6926   -0.0022 C   0  0  0  0  0  0  0  0  0  0  0  0
   -2.0596    1.1869   -0.0030 H   0  0  0  0  0  0  0  0  0  0  0  0
   -1.2006   -0.6893    0.0000 C   0  0  0  0  0  0  0  0  0  0  0  0
   -2.0771   -1.1885   -0.0059 H   0  0  0  0  0  0  0  0  0  0  0  0
   -0.0011   -1.3812    0.0122 C   0  0  0  0  0  0  0  0  0  0  0  0
   -0.0066   -2.3839    0.0289 H   0  0  0  0  0  0  0  0  0  0  0  0
    1.2006   -0.6934    0.0000 C   0  0  0  0  0  0  0  0  0  0  0  0
    2.0791   -1.1979   -0.0034 H   0  0  0  0  0  0  0  0  0  0  0  0
    1.1976    0.6845   -0.0054 C   0  0  0  0  0  0  0  0  0  0  0  0
    2.0647    1.1853   -0.0108 H   0  0  0  0  0  0  0  0  0  0  0  0
  1  5  1  0
  5  8  1  0
  1  2  1  0
  1  3  1  0
  1  4  1  0
  5  6  1  0
  5  7  1  0
  8  9  1  0
  8 10  1  0
  8 11  1  0
 12 16  1  0
 16 17  2  0
 17 19  1  0
 19 21  2  0
 21 23  1  0
 23 25  2  0
 25 16  1  0
 12 13  1  0
 12 14  1  0
 12 15  1  0
 17 18  1  0
 19 20  1  0
 21 22  1  0
 23 24  1  0
 25 26  1  0
M  CHG  1   8   1
M  END
>  <PDB_ID>  (1457) 
pdb1xs1

>  <RESIDUE_NAME>  (1457) 
LYS   PHE

>  <FRAG_NAME>  (1457) 
ETAM   MBZ

>  <FRAG_ATOM_NUM>  (1457) 
fragi: 11  fragj: 15

>  <atom.prop.CHAIN_ID>  (1457) 
A A A A A A A A A A A Z Z Z Z Z Z Z Z Z Z Z Z Z Z Z

>  <atom.prop.IS_HEAVY_ATOM>  (1457) 
1 0 0 0 1 0 0 1 0 0 0 1 0 0 0 1 1 0 1 0 1 0 1 0 1 0

>  <DIFUSE_FUNC_ATOM>  (1457) 
n/a

>  <FINAL_SINGLE_POINT_ENERGY>  (1457) 
0

>  <NONCOV_INTER_ENERGY_QM>  (1457) 
0

>  <FF_Energy>  (1457) 
32.49

>  <QM_Energy>  (1457) 
3.78

>  <source>  (1457) 
ETAM_MBZ

>  <Index>  (1457) 
14668

$$$$
ETAM-pdb1xsv-B-LYS-26:MBZ-pdb1xsv-B-PHE-48
     RDKit          3D

 26 25  0  0  0  0  0  0  0  0999 V2000
    1.0062   -2.0541    5.0441 C   0  0  0  0  0  0  0  0  0  0  0  0
    0.7649   -2.8086    4.4334 H   0  0  0  0  0  0  0  0  0  0  0  0
    0.3230   -1.9786    5.7695 H   0  0  0  0  0  0  0  0  0  0  0  0
    1.9649   -2.2889    5.5065 H   0  0  0  0  0  0  0  0  0  0  0  0
    1.0126   -0.7529    4.2380 C   0  0  0  0  0  0  0  0  0  0  0  0
    1.3600   -0.0082    4.8238 H   0  0  0  0  0  0  0  0  0  0  0  0
    1.6446   -0.8553    3.4579 H   0  0  0  0  0  0  0  0  0  0  0  0
   -0.3447   -0.3545    3.7078 N   0  0  0  0  0  4  0  0  0  0  0  0
   -0.2187    0.2443    2.9224 H   0  0  0  0  0  0  0  0  0  0  0  0
   -0.8373   -1.1773    3.4372 H   0  0  0  0  0  0  0  0  0  0  0  0
   -0.8416    0.1224    4.4266 H   0  0  0  0  0  0  0  0  0  0  0  0
    0.0121    2.9154    0.0427 C   0  0  0  0  0  0  0  0  0  0  0  0
    0.7820    3.2304   -0.4926 H   0  0  0  0  0  0  0  0  0  0  0  0
    0.0967    3.1868    0.9899 H   0  0  0  0  0  0  0  0  0  0  0  0
   -0.8896    3.3760   -0.3606 H   0  0  0  0  0  0  0  0  0  0  0  0
    0.0022    1.4065   -0.0057 C   0  0  0  0  0  0  0  0  0  0  0  0
   -1.1994    0.6997    0.0023 C   0  0  0  0  0  0  0  0  0  0  0  0
   -2.0636    1.1868    0.0082 H   0  0  0  0  0  0  0  0  0  0  0  0
   -1.2032   -0.6995   -0.0000 C   0  0  0  0  0  0  0  0  0  0  0  0
   -2.0809   -1.1901   -0.0029 H   0  0  0  0  0  0  0  0  0  0  0  0
   -0.0001   -1.3996    0.0038 C   0  0  0  0  0  0  0  0  0  0  0  0
   -0.0031   -2.3954    0.0090 H   0  0  0  0  0  0  0  0  0  0  0  0
    1.2032   -0.6983    0.0000 C   0  0  0  0  0  0  0  0  0  0  0  0
    2.0841   -1.1969   -0.0005 H   0  0  0  0  0  0  0  0  0  0  0  0
    1.1974    0.6912   -0.0004 C   0  0  0  0  0  0  0  0  0  0  0  0
    2.0673    1.1882    0.0020 H   0  0  0  0  0  0  0  0  0  0  0  0
  1  5  1  0
  5  8  1  0
  1  2  1  0
  1  3  1  0
  1  4  1  0
  5  6  1  0
  5  7  1  0
  8  9  1  0
  8 10  1  0
  8 11  1  0
 12 16  1  0
 16 17  2  0
 17 19  1  0
 19 21  2  0
 21 23  1  0
 23 25  2  0
 25 16  1  0
 12 13  1  0
 12 14  1  0
 12 15  1  0
 17 18  1  0
 19 20  1  0
 21 22  1  0
 23 24  1  0
 25 26  1  0
M  CHG  1   8   1
M  END
>  <PDB_ID>  (1458) 
pdb1xsv

>  <RESIDUE_NAME>  (1458) 
LYS   PHE

>  <FRAG_NAME>  (1458) 
ETAM   MBZ

>  <FRAG_ATOM_NUM>  (1458) 
fragi: 11  fragj: 15

>  <atom.prop.CHAIN_ID>  (1458) 
A A A A A A A A A A A Z Z Z Z Z Z Z Z Z Z Z Z Z Z Z

>  <atom.prop.IS_HEAVY_ATOM>  (1458) 
1 0 0 0 1 0 0 1 0 0 0 1 0 0 0 1 1 0 1 0 1 0 1 0 1 0

>  <DIFUSE_FUNC_ATOM>  (1458) 
n/a

>  <FINAL_SINGLE_POINT_ENERGY>  (1458) 
0

>  <NONCOV_INTER_ENERGY_QM>  (1458) 
0

>  <FF_Energy>  (1458) 
-7.05

>  <QM_Energy>  (1458) 
-12.32

>  <source>  (1458) 
ETAM_MBZ

>  <Index>  (1458) 
14684

$$$$
ETAM-pdb3bma-A-LYS-258:MBZ-pdb3bma-A-PHE-372
     RDKit          3D

 26 25  0  0  0  0  0  0  0  0999 V2000
   -4.6903    1.4525   -1.0865 C   0  0  0  0  0  0  0  0  0  0  0  0
   -3.7861    1.8160   -0.8759 H   0  0  0  0  0  0  0  0  0  0  0  0
   -5.2804    2.1785   -1.4274 H   0  0  0  0  0  0  0  0  0  0  0  0
   -4.5917    0.6862   -1.8555 H   0  0  0  0  0  0  0  0  0  0  0  0
   -5.3002    0.9010    0.2024 C   0  0  0  0  0  0  0  0  0  0  0  0
   -5.5669    1.6778    0.7903 H   0  0  0  0  0  0  0  0  0  0  0  0
   -6.1398    0.3891   -0.0316 H   0  0  0  0  0  0  0  0  0  0  0  0
   -4.3830    0.0055    0.9668 N   0  0  0  0  0  4  0  0  0  0  0  0
   -4.2338    0.3870    1.8780 H   0  0  0  0  0  0  0  0  0  0  0  0
   -4.7969   -0.9005    1.0450 H   0  0  0  0  0  0  0  0  0  0  0  0
   -3.5114   -0.0630    0.4837 H   0  0  0  0  0  0  0  0  0  0  0  0
   -0.0052    2.9124    0.0024 C   0  0  0  0  0  0  0  0  0  0  0  0
   -0.9397    3.2161    0.1027 H   0  0  0  0  0  0  0  0  0  0  0  0
    0.3872    3.2230   -0.8492 H   0  0  0  0  0  0  0  0  0  0  0  0
    0.5741    3.3546    0.8130 H   0  0  0  0  0  0  0  0  0  0  0  0
   -0.0001    1.4052   -0.0015 C   0  0  0  0  0  0  0  0  0  0  0  0
   -1.1967    0.6965    0.0018 C   0  0  0  0  0  0  0  0  0  0  0  0
   -2.0636    1.1859    0.0045 H   0  0  0  0  0  0  0  0  0  0  0  0
   -1.2030   -0.6976    0.0000 C   0  0  0  0  0  0  0  0  0  0  0  0
   -2.0797   -1.1891    0.0002 H   0  0  0  0  0  0  0  0  0  0  0  0
   -0.0014   -1.3965   -0.0003 C   0  0  0  0  0  0  0  0  0  0  0  0
   -0.0063   -2.3948   -0.0011 H   0  0  0  0  0  0  0  0  0  0  0  0
    1.2030   -0.7014    0.0000 C   0  0  0  0  0  0  0  0  0  0  0  0
    2.0824   -1.1977    0.0014 H   0  0  0  0  0  0  0  0  0  0  0  0
    1.1981    0.6939    0.0000 C   0  0  0  0  0  0  0  0  0  0  0  0
    2.0662    1.1890    0.0003 H   0  0  0  0  0  0  0  0  0  0  0  0
  1  5  1  0
  5  8  1  0
  1  2  1  0
  1  3  1  0
  1  4  1  0
  5  6  1  0
  5  7  1  0
  8  9  1  0
  8 10  1  0
  8 11  1  0
 12 16  1  0
 16 17  2  0
 17 19  1  0
 19 21  2  0
 21 23  1  0
 23 25  2  0
 25 16  1  0
 12 13  1  0
 12 14  1  0
 12 15  1  0
 17 18  1  0
 19 20  1  0
 21 22  1  0
 23 24  1  0
 25 26  1  0
M  CHG  1   8   1
M  END
>  <PDB_ID>  (1459) 
pdb3bma

>  <RESIDUE_NAME>  (1459) 
LYS   PHE

>  <FRAG_NAME>  (1459) 
ETAM   MBZ

>  <FRAG_ATOM_NUM>  (1459) 
fragi: 11  fragj: 15

>  <atom.prop.CHAIN_ID>  (1459) 
A A A A A A A A A A A Z Z Z Z Z Z Z Z Z Z Z Z Z Z Z

>  <atom.prop.IS_HEAVY_ATOM>  (1459) 
1 0 0 0 1 0 0 1 0 0 0 1 0 0 0 1 1 0 1 0 1 0 1 0 1 0

>  <DIFUSE_FUNC_ATOM>  (1459) 
n/a

>  <FINAL_SINGLE_POINT_ENERGY>  (1459) 
0

>  <NONCOV_INTER_ENERGY_QM>  (1459) 
0

>  <FF_Energy>  (1459) 
1.46

>  <QM_Energy>  (1459) 
-4.2

>  <source>  (1459) 
ETAM_MBZ

>  <Index>  (1459) 
14694

$$$$
ETAM-pdb1xsv-B-LYS-8:MBZ-pdb1xsv-B-PHE-34
     RDKit          3D

 26 25  0  0  0  0  0  0  0  0999 V2000
    0.7424   -1.3330    4.4628 C   0  0  0  0  0  0  0  0  0  0  0  0
    0.2771   -2.1698    4.6975 H   0  0  0  0  0  0  0  0  0  0  0  0
    0.7978   -0.7165    5.2298 H   0  0  0  0  0  0  0  0  0  0  0  0
    1.7471   -1.5640    4.1088 H   0  0  0  0  0  0  0  0  0  0  0  0
   -0.0166   -0.6515    3.3464 C   0  0  0  0  0  0  0  0  0  0  0  0
    0.4333    0.2144    3.1244 H   0  0  0  0  0  0  0  0  0  0  0  0
   -0.0149   -1.2426    2.5394 H   0  0  0  0  0  0  0  0  0  0  0  0
   -1.4217   -0.3819    3.7512 N   0  0  0  0  0  4  0  0  0  0  0  0
   -1.6619    0.5582    3.5122 H   0  0  0  0  0  0  0  0  0  0  0  0
   -2.0322   -1.0142    3.2746 H   0  0  0  0  0  0  0  0  0  0  0  0
   -1.5135   -0.5091    4.7390 H   0  0  0  0  0  0  0  0  0  0  0  0
    0.0029    2.8935   -0.0633 C   0  0  0  0  0  0  0  0  0  0  0  0
   -0.5973    3.1783   -0.7956 H   0  0  0  0  0  0  0  0  0  0  0  0
    0.9297    3.1981   -0.2174 H   0  0  0  0  0  0  0  0  0  0  0  0
   -0.3485    3.3743    0.8496 H   0  0  0  0  0  0  0  0  0  0  0  0
   -0.0026    1.4031    0.0027 C   0  0  0  0  0  0  0  0  0  0  0  0
   -1.2038    0.6993    0.0026 C   0  0  0  0  0  0  0  0  0  0  0  0
   -2.0668    1.1851    0.0032 H   0  0  0  0  0  0  0  0  0  0  0  0
   -1.2003   -0.6964    0.0000 C   0  0  0  0  0  0  0  0  0  0  0  0
   -2.0761   -1.1925    0.0027 H   0  0  0  0  0  0  0  0  0  0  0  0
    0.0043   -1.3904   -0.0050 C   0  0  0  0  0  0  0  0  0  0  0  0
   -0.0061   -2.3933   -0.0124 H   0  0  0  0  0  0  0  0  0  0  0  0
    1.2003   -0.7045   -0.0000 C   0  0  0  0  0  0  0  0  0  0  0  0
    2.0830   -1.2012    0.0055 H   0  0  0  0  0  0  0  0  0  0  0  0
    1.2021    0.6889   -0.0003 C   0  0  0  0  0  0  0  0  0  0  0  0
    2.0667    1.1840   -0.0034 H   0  0  0  0  0  0  0  0  0  0  0  0
  1  5  1  0
  5  8  1  0
  1  2  1  0
  1  3  1  0
  1  4  1  0
  5  6  1  0
  5  7  1  0
  8  9  1  0
  8 10  1  0
  8 11  1  0
 12 16  1  0
 16 17  2  0
 17 19  1  0
 19 21  2  0
 21 23  1  0
 23 25  2  0
 25 16  1  0
 12 13  1  0
 12 14  1  0
 12 15  1  0
 17 18  1  0
 19 20  1  0
 21 22  1  0
 23 24  1  0
 25 26  1  0
M  CHG  1   8   1
M  END
>  <PDB_ID>  (1460) 
pdb1xsv

>  <RESIDUE_NAME>  (1460) 
LYS   PHE

>  <FRAG_NAME>  (1460) 
ETAM   MBZ

>  <FRAG_ATOM_NUM>  (1460) 
fragi: 11  fragj: 15

>  <atom.prop.CHAIN_ID>  (1460) 
A A A A A A A A A A A Z Z Z Z Z Z Z Z Z Z Z Z Z Z Z

>  <atom.prop.IS_HEAVY_ATOM>  (1460) 
1 0 0 0 1 0 0 1 0 0 0 1 0 0 0 1 1 0 1 0 1 0 1 0 1 0

>  <DIFUSE_FUNC_ATOM>  (1460) 
n/a

>  <FINAL_SINGLE_POINT_ENERGY>  (1460) 
0

>  <NONCOV_INTER_ENERGY_QM>  (1460) 
0

>  <FF_Energy>  (1460) 
-5.44

>  <QM_Energy>  (1460) 
-10.77

>  <source>  (1460) 
ETAM_MBZ

>  <Index>  (1460) 
14697

$$$$
ETAM-pdb3bo6-A-LYS-136:MBZ-pdb3bo6-A-PHE-86
     RDKit          3D

 26 25  0  0  0  0  0  0  0  0999 V2000
   -0.2382    1.7491    3.6836 C   0  0  0  0  0  0  0  0  0  0  0  0
    0.1483    2.2373    2.9031 H   0  0  0  0  0  0  0  0  0  0  0  0
    0.1617    2.0950    4.5302 H   0  0  0  0  0  0  0  0  0  0  0  0
   -1.3114    1.9384    3.7081 H   0  0  0  0  0  0  0  0  0  0  0  0
    0.0712    0.2874    3.5529 C   0  0  0  0  0  0  0  0  0  0  0  0
   -0.3295   -0.2122    4.3069 H   0  0  0  0  0  0  0  0  0  0  0  0
   -0.2563   -0.0518    2.6837 H   0  0  0  0  0  0  0  0  0  0  0  0
    1.5667    0.1186    3.6027 N   0  0  0  0  0  4  0  0  0  0  0  0
    1.8193   -0.6816    3.0649 H   0  0  0  0  0  0  0  0  0  0  0  0
    1.9966    0.9349    3.2237 H   0  0  0  0  0  0  0  0  0  0  0  0
    1.8462   -0.0056    4.5507 H   0  0  0  0  0  0  0  0  0  0  0  0
   -0.0077    2.9171    0.0025 C   0  0  0  0  0  0  0  0  0  0  0  0
    0.8649    3.2168    0.3605 H   0  0  0  0  0  0  0  0  0  0  0  0
   -0.7533    3.2163    0.5799 H   0  0  0  0  0  0  0  0  0  0  0  0
   -0.1411    3.3705   -0.9797 H   0  0  0  0  0  0  0  0  0  0  0  0
   -0.0075    1.4025   -0.0038 C   0  0  0  0  0  0  0  0  0  0  0  0
   -1.1961    0.6858    0.0109 C   0  0  0  0  0  0  0  0  0  0  0  0
   -2.0680    1.1734    0.0286 H   0  0  0  0  0  0  0  0  0  0  0  0
   -1.2016   -0.7048   -0.0000 C   0  0  0  0  0  0  0  0  0  0  0  0
   -2.0721   -1.2012   -0.0086 H   0  0  0  0  0  0  0  0  0  0  0  0
    0.0081   -1.3946    0.0024 C   0  0  0  0  0  0  0  0  0  0  0  0
    0.0074   -2.3930    0.0050 H   0  0  0  0  0  0  0  0  0  0  0  0
    1.2016   -0.6919   -0.0000 C   0  0  0  0  0  0  0  0  0  0  0  0
    2.0882   -1.1840    0.0064 H   0  0  0  0  0  0  0  0  0  0  0  0
    1.1956    0.7029   -0.0094 C   0  0  0  0  0  0  0  0  0  0  0  0
    2.0592    1.2000   -0.0212 H   0  0  0  0  0  0  0  0  0  0  0  0
  1  5  1  0
  5  8  1  0
  1  2  1  0
  1  3  1  0
  1  4  1  0
  5  6  1  0
  5  7  1  0
  8  9  1  0
  8 10  1  0
  8 11  1  0
 12 16  1  0
 16 17  2  0
 17 19  1  0
 19 21  2  0
 21 23  1  0
 23 25  2  0
 25 16  1  0
 12 13  1  0
 12 14  1  0
 12 15  1  0
 17 18  1  0
 19 20  1  0
 21 22  1  0
 23 24  1  0
 25 26  1  0
M  CHG  1   8   1
M  END
>  <PDB_ID>  (1461) 
pdb3bo6

>  <RESIDUE_NAME>  (1461) 
LYS   PHE

>  <FRAG_NAME>  (1461) 
ETAM   MBZ

>  <FRAG_ATOM_NUM>  (1461) 
fragi: 11  fragj: 15

>  <atom.prop.CHAIN_ID>  (1461) 
A A A A A A A A A A A Z Z Z Z Z Z Z Z Z Z Z Z Z Z Z

>  <atom.prop.IS_HEAVY_ATOM>  (1461) 
1 0 0 0 1 0 0 1 0 0 0 1 0 0 0 1 1 0 1 0 1 0 1 0 1 0

>  <DIFUSE_FUNC_ATOM>  (1461) 
n/a

>  <FINAL_SINGLE_POINT_ENERGY>  (1461) 
0

>  <NONCOV_INTER_ENERGY_QM>  (1461) 
0

>  <FF_Energy>  (1461) 
-6.91

>  <QM_Energy>  (1461) 
-12.98

>  <source>  (1461) 
ETAM_MBZ

>  <Index>  (1461) 
14706

$$$$
ETAM-pdb3bo6-B-LYS-136:MBZ-pdb3bo6-B-PHE-86
     RDKit          3D

 26 25  0  0  0  0  0  0  0  0999 V2000
   -0.2102    2.1174    3.6770 C   0  0  0  0  0  0  0  0  0  0  0  0
    0.2244    2.6235    2.9337 H   0  0  0  0  0  0  0  0  0  0  0  0
    0.1462    2.4344    4.5543 H   0  0  0  0  0  0  0  0  0  0  0  0
   -1.2816    2.3154    3.6481 H   0  0  0  0  0  0  0  0  0  0  0  0
    0.1018    0.6519    3.5213 C   0  0  0  0  0  0  0  0  0  0  0  0
   -0.3337    0.1367    4.2484 H   0  0  0  0  0  0  0  0  0  0  0  0
   -0.2075    0.3341    2.6336 H   0  0  0  0  0  0  0  0  0  0  0  0
    1.5940    0.4473    3.6130 N   0  0  0  0  0  4  0  0  0  0  0  0
    1.8273    0.2034    4.5503 H   0  0  0  0  0  0  0  0  0  0  0  0
    1.8561   -0.2864    2.9927 H   0  0  0  0  0  0  0  0  0  0  0  0
    2.0508    1.2943    3.3548 H   0  0  0  0  0  0  0  0  0  0  0  0
    0.0223    2.8915   -0.0118 C   0  0  0  0  0  0  0  0  0  0  0  0
    0.8724    3.1909    0.3961 H   0  0  0  0  0  0  0  0  0  0  0  0
   -0.7569    3.2172    0.5051 H   0  0  0  0  0  0  0  0  0  0  0  0
   -0.0374    3.3258   -1.0098 H   0  0  0  0  0  0  0  0  0  0  0  0
   -0.0011    1.4015   -0.0050 C   0  0  0  0  0  0  0  0  0  0  0  0
   -1.2014    0.6955    0.0019 C   0  0  0  0  0  0  0  0  0  0  0  0
   -2.0655    1.1854    0.0072 H   0  0  0  0  0  0  0  0  0  0  0  0
   -1.2024   -0.6945   -0.0000 C   0  0  0  0  0  0  0  0  0  0  0  0
   -2.0763   -1.1922   -0.0092 H   0  0  0  0  0  0  0  0  0  0  0  0
    0.0050   -1.3955    0.0125 C   0  0  0  0  0  0  0  0  0  0  0  0
   -0.0053   -2.3931    0.0298 H   0  0  0  0  0  0  0  0  0  0  0  0
    1.2024   -0.7020    0.0000 C   0  0  0  0  0  0  0  0  0  0  0  0
    2.0858   -1.1946   -0.0014 H   0  0  0  0  0  0  0  0  0  0  0  0
    1.1975    0.6950   -0.0094 C   0  0  0  0  0  0  0  0  0  0  0  0
    2.0651    1.1889   -0.0201 H   0  0  0  0  0  0  0  0  0  0  0  0
  1  5  1  0
  5  8  1  0
  1  2  1  0
  1  3  1  0
  1  4  1  0
  5  6  1  0
  5  7  1  0
  8  9  1  0
  8 10  1  0
  8 11  1  0
 12 16  1  0
 16 17  2  0
 17 19  1  0
 19 21  2  0
 21 23  1  0
 23 25  2  0
 25 16  1  0
 12 13  1  0
 12 14  1  0
 12 15  1  0
 17 18  1  0
 19 20  1  0
 21 22  1  0
 23 24  1  0
 25 26  1  0
M  CHG  1   8   1
M  END
>  <PDB_ID>  (1462) 
pdb3bo6

>  <RESIDUE_NAME>  (1462) 
LYS   PHE

>  <FRAG_NAME>  (1462) 
ETAM   MBZ

>  <FRAG_ATOM_NUM>  (1462) 
fragi: 11  fragj: 15

>  <atom.prop.CHAIN_ID>  (1462) 
A A A A A A A A A A A Z Z Z Z Z Z Z Z Z Z Z Z Z Z Z

>  <atom.prop.IS_HEAVY_ATOM>  (1462) 
1 0 0 0 1 0 0 1 0 0 0 1 0 0 0 1 1 0 1 0 1 0 1 0 1 0

>  <DIFUSE_FUNC_ATOM>  (1462) 
n/a

>  <FINAL_SINGLE_POINT_ENERGY>  (1462) 
0

>  <NONCOV_INTER_ENERGY_QM>  (1462) 
0

>  <FF_Energy>  (1462) 
-6.75

>  <QM_Energy>  (1462) 
-12.67

>  <source>  (1462) 
ETAM_MBZ

>  <Index>  (1462) 
14708

$$$$
ETAM-pdb3bo7-D-LYS-5:MBZ-pdb3bo7-D-PHE-176
     RDKit          3D

 26 25  0  0  0  0  0  0  0  0999 V2000
   -2.7666   -0.8667   -5.3367 C   0  0  0  0  0  0  0  0  0  0  0  0
   -2.9394    0.1076   -5.4255 H   0  0  0  0  0  0  0  0  0  0  0  0
   -3.5619   -1.3888   -5.6247 H   0  0  0  0  0  0  0  0  0  0  0  0
   -1.9243   -1.1318   -5.9755 H   0  0  0  0  0  0  0  0  0  0  0  0
   -2.4905   -1.1782   -3.8590 C   0  0  0  0  0  0  0  0  0  0  0  0
   -2.7578   -2.1264   -3.6781 H   0  0  0  0  0  0  0  0  0  0  0  0
   -1.5088   -1.0738   -3.6895 H   0  0  0  0  0  0  0  0  0  0  0  0
   -3.2483   -0.2695   -2.9563 N   0  0  0  0  0  4  0  0  0  0  0  0
   -3.3191    0.6335   -3.3786 H   0  0  0  0  0  0  0  0  0  0  0  0
   -4.1639   -0.6408   -2.8043 H   0  0  0  0  0  0  0  0  0  0  0  0
   -2.7685   -0.1933   -2.0825 H   0  0  0  0  0  0  0  0  0  0  0  0
    0.0024    2.9119   -0.0393 C   0  0  0  0  0  0  0  0  0  0  0  0
    0.8664    3.2244    0.3128 H   0  0  0  0  0  0  0  0  0  0  0  0
   -0.7560    3.2326    0.5002 H   0  0  0  0  0  0  0  0  0  0  0  0
   -0.1119    3.3137   -1.0462 H   0  0  0  0  0  0  0  0  0  0  0  0
   -0.0005    1.4012    0.0020 C   0  0  0  0  0  0  0  0  0  0  0  0
   -1.1977    0.6951   -0.0045 C   0  0  0  0  0  0  0  0  0  0  0  0
   -2.0624    1.1844   -0.0135 H   0  0  0  0  0  0  0  0  0  0  0  0
   -1.1958   -0.6924    0.0000 C   0  0  0  0  0  0  0  0  0  0  0  0
   -2.0728   -1.1900   -0.0013 H   0  0  0  0  0  0  0  0  0  0  0  0
    0.0045   -1.3877    0.0087 C   0  0  0  0  0  0  0  0  0  0  0  0
   -0.0063   -2.3897    0.0206 H   0  0  0  0  0  0  0  0  0  0  0  0
    1.1958   -0.7013    0.0000 C   0  0  0  0  0  0  0  0  0  0  0  0
    2.0800   -1.1980   -0.0001 H   0  0  0  0  0  0  0  0  0  0  0  0
    1.1936    0.6851   -0.0062 C   0  0  0  0  0  0  0  0  0  0  0  0
    2.0638    1.1820   -0.0173 H   0  0  0  0  0  0  0  0  0  0  0  0
  1  5  1  0
  5  8  1  0
  1  2  1  0
  1  3  1  0
  1  4  1  0
  5  6  1  0
  5  7  1  0
  8  9  1  0
  8 10  1  0
  8 11  1  0
 12 16  1  0
 16 17  2  0
 17 19  1  0
 19 21  2  0
 21 23  1  0
 23 25  2  0
 25 16  1  0
 12 13  1  0
 12 14  1  0
 12 15  1  0
 17 18  1  0
 19 20  1  0
 21 22  1  0
 23 24  1  0
 25 26  1  0
M  CHG  1   8   1
M  END
>  <PDB_ID>  (1463) 
pdb3bo7

>  <RESIDUE_NAME>  (1463) 
LYS   PHE

>  <FRAG_NAME>  (1463) 
ETAM   MBZ

>  <FRAG_ATOM_NUM>  (1463) 
fragi: 11  fragj: 15

>  <atom.prop.CHAIN_ID>  (1463) 
A A A A A A A A A A A Z Z Z Z Z Z Z Z Z Z Z Z Z Z Z

>  <atom.prop.IS_HEAVY_ATOM>  (1463) 
1 0 0 0 1 0 0 1 0 0 0 1 0 0 0 1 1 0 1 0 1 0 1 0 1 0

>  <DIFUSE_FUNC_ATOM>  (1463) 
n/a

>  <FINAL_SINGLE_POINT_ENERGY>  (1463) 
0

>  <NONCOV_INTER_ENERGY_QM>  (1463) 
0

>  <FF_Energy>  (1463) 
-2.79

>  <QM_Energy>  (1463) 
-8.74

>  <source>  (1463) 
ETAM_MBZ

>  <Index>  (1463) 
14714

$$$$
ETAM-pdb1xta-B-LYS-156:MBZ-pdb1xta-B-PHE-153
     RDKit          3D

 26 25  0  0  0  0  0  0  0  0999 V2000
    5.6055    2.1675   -0.0704 C   0  0  0  0  0  0  0  0  0  0  0  0
    5.4824    2.8938   -0.7356 H   0  0  0  0  0  0  0  0  0  0  0  0
    6.3871    1.6032   -0.3053 H   0  0  0  0  0  0  0  0  0  0  0  0
    5.7694    2.6105    0.9120 H   0  0  0  0  0  0  0  0  0  0  0  0
    4.3601    1.2946   -0.0685 C   0  0  0  0  0  0  0  0  0  0  0  0
    4.4691    0.5737    0.6261 H   0  0  0  0  0  0  0  0  0  0  0  0
    3.5657    1.8604    0.1829 H   0  0  0  0  0  0  0  0  0  0  0  0
    4.1044    0.6601   -1.3923 N   0  0  0  0  0  4  0  0  0  0  0  0
    3.4972   -0.1241   -1.2717 H   0  0  0  0  0  0  0  0  0  0  0  0
    3.6753    1.3261   -2.0011 H   0  0  0  0  0  0  0  0  0  0  0  0
    4.9703    0.3561   -1.7865 H   0  0  0  0  0  0  0  0  0  0  0  0
    0.0028    2.9077    0.0089 C   0  0  0  0  0  0  0  0  0  0  0  0
   -0.4640    3.2187   -0.8040 H   0  0  0  0  0  0  0  0  0  0  0  0
    0.9420    3.2115    0.0266 H   0  0  0  0  0  0  0  0  0  0  0  0
   -0.5046    3.3386    0.8720 H   0  0  0  0  0  0  0  0  0  0  0  0
    0.0011    1.4037   -0.0003 C   0  0  0  0  0  0  0  0  0  0  0  0
   -1.1976    0.6969    0.0005 C   0  0  0  0  0  0  0  0  0  0  0  0
   -2.0635    1.1850   -0.0001 H   0  0  0  0  0  0  0  0  0  0  0  0
   -1.2033   -0.6995    0.0000 C   0  0  0  0  0  0  0  0  0  0  0  0
   -2.0798   -1.1910    0.0008 H   0  0  0  0  0  0  0  0  0  0  0  0
   -0.0003   -1.3968   -0.0003 C   0  0  0  0  0  0  0  0  0  0  0  0
   -0.0040   -2.3952   -0.0015 H   0  0  0  0  0  0  0  0  0  0  0  0
    1.2033   -0.6993    0.0000 C   0  0  0  0  0  0  0  0  0  0  0  0
    2.0837   -1.1952    0.0012 H   0  0  0  0  0  0  0  0  0  0  0  0
    1.1968    0.6948    0.0001 C   0  0  0  0  0  0  0  0  0  0  0  0
    2.0658    1.1906   -0.0005 H   0  0  0  0  0  0  0  0  0  0  0  0
  1  5  1  0
  5  8  1  0
  1  2  1  0
  1  3  1  0
  1  4  1  0
  5  6  1  0
  5  7  1  0
  8  9  1  0
  8 10  1  0
  8 11  1  0
 12 16  1  0
 16 17  2  0
 17 19  1  0
 19 21  2  0
 21 23  1  0
 23 25  2  0
 25 16  1  0
 12 13  1  0
 12 14  1  0
 12 15  1  0
 17 18  1  0
 19 20  1  0
 21 22  1  0
 23 24  1  0
 25 26  1  0
M  CHG  1   8   1
M  END
>  <PDB_ID>  (1464) 
pdb1xta

>  <RESIDUE_NAME>  (1464) 
LYS   PHE

>  <FRAG_NAME>  (1464) 
ETAM   MBZ

>  <FRAG_ATOM_NUM>  (1464) 
fragi: 11  fragj: 15

>  <atom.prop.CHAIN_ID>  (1464) 
A A A A A A A A A A A Z Z Z Z Z Z Z Z Z Z Z Z Z Z Z

>  <atom.prop.IS_HEAVY_ATOM>  (1464) 
1 0 0 0 1 0 0 1 0 0 0 1 0 0 0 1 1 0 1 0 1 0 1 0 1 0

>  <DIFUSE_FUNC_ATOM>  (1464) 
n/a

>  <FINAL_SINGLE_POINT_ENERGY>  (1464) 
0

>  <NONCOV_INTER_ENERGY_QM>  (1464) 
0

>  <FF_Energy>  (1464) 
15.18

>  <QM_Energy>  (1464) 
-1.99

>  <source>  (1464) 
ETAM_MBZ

>  <Index>  (1464) 
14719

$$$$
ETAM-pdb1xtq-A-LYS-151:MBZ-pdb1xtq-A-PHE-31
     RDKit          3D

 26 25  0  0  0  0  0  0  0  0999 V2000
   -1.5471   -1.1851    3.7459 C   0  0  0  0  0  0  0  0  0  0  0  0
   -1.4848   -1.5680    4.6600 H   0  0  0  0  0  0  0  0  0  0  0  0
   -2.3043   -0.5463    3.6848 H   0  0  0  0  0  0  0  0  0  0  0  0
   -0.6214   -0.6531    3.5264 H   0  0  0  0  0  0  0  0  0  0  0  0
   -1.7774   -2.3136    2.7576 C   0  0  0  0  0  0  0  0  0  0  0  0
   -1.5857   -1.9763    1.8266 H   0  0  0  0  0  0  0  0  0  0  0  0
   -1.1306   -3.0608    2.9587 H   0  0  0  0  0  0  0  0  0  0  0  0
   -3.1656   -2.8506    2.8018 N   0  0  0  0  0  4  0  0  0  0  0  0
   -3.8132   -2.0906    2.8380 H   0  0  0  0  0  0  0  0  0  0  0  0
   -3.3354   -3.3974    1.9825 H   0  0  0  0  0  0  0  0  0  0  0  0
   -3.2733   -3.4223    3.6144 H   0  0  0  0  0  0  0  0  0  0  0  0
   -0.0009    2.9086   -0.0235 C   0  0  0  0  0  0  0  0  0  0  0  0
    0.4209    3.2271    0.8107 H   0  0  0  0  0  0  0  0  0  0  0  0
   -0.9380    3.2129   -0.0947 H   0  0  0  0  0  0  0  0  0  0  0  0
    0.5525    3.3332   -0.8611 H   0  0  0  0  0  0  0  0  0  0  0  0
   -0.0010    1.4043   -0.0008 C   0  0  0  0  0  0  0  0  0  0  0  0
   -1.1977    0.6952    0.0005 C   0  0  0  0  0  0  0  0  0  0  0  0
   -2.0647    1.1845    0.0001 H   0  0  0  0  0  0  0  0  0  0  0  0
   -1.2034   -0.6971   -0.0000 C   0  0  0  0  0  0  0  0  0  0  0  0
   -2.0793   -1.1905    0.0012 H   0  0  0  0  0  0  0  0  0  0  0  0
    0.0004   -1.3966    0.0002 C   0  0  0  0  0  0  0  0  0  0  0  0
   -0.0047   -2.3941   -0.0004 H   0  0  0  0  0  0  0  0  0  0  0  0
    1.2034   -0.6998   -0.0000 C   0  0  0  0  0  0  0  0  0  0  0  0
    2.0836   -1.1966    0.0010 H   0  0  0  0  0  0  0  0  0  0  0  0
    1.1984    0.6940    0.0001 C   0  0  0  0  0  0  0  0  0  0  0  0
    2.0661    1.1907   -0.0004 H   0  0  0  0  0  0  0  0  0  0  0  0
  1  5  1  0
  5  8  1  0
  1  2  1  0
  1  3  1  0
  1  4  1  0
  5  6  1  0
  5  7  1  0
  8  9  1  0
  8 10  1  0
  8 11  1  0
 12 16  1  0
 16 17  2  0
 17 19  1  0
 19 21  2  0
 21 23  1  0
 23 25  2  0
 25 16  1  0
 12 13  1  0
 12 14  1  0
 12 15  1  0
 17 18  1  0
 19 20  1  0
 21 22  1  0
 23 24  1  0
 25 26  1  0
M  CHG  1   8   1
M  END
>  <PDB_ID>  (1465) 
pdb1xtq

>  <RESIDUE_NAME>  (1465) 
LYS   PHE

>  <FRAG_NAME>  (1465) 
ETAM   MBZ

>  <FRAG_ATOM_NUM>  (1465) 
fragi: 11  fragj: 15

>  <atom.prop.CHAIN_ID>  (1465) 
A A A A A A A A A A A Z Z Z Z Z Z Z Z Z Z Z Z Z Z Z

>  <atom.prop.IS_HEAVY_ATOM>  (1465) 
1 0 0 0 1 0 0 1 0 0 0 1 0 0 0 1 1 0 1 0 1 0 1 0 1 0

>  <DIFUSE_FUNC_ATOM>  (1465) 
n/a

>  <FINAL_SINGLE_POINT_ENERGY>  (1465) 
0

>  <NONCOV_INTER_ENERGY_QM>  (1465) 
0

>  <FF_Energy>  (1465) 
3.94

>  <QM_Energy>  (1465) 
-4.39

>  <source>  (1465) 
ETAM_MBZ

>  <Index>  (1465) 
14721

$$$$
ETAM-pdb1xtf-A-LYS-415:MBZ-pdb1xtf-A-PHE-374
     RDKit          3D

 26 25  0  0  0  0  0  0  0  0999 V2000
   -2.5823   -2.6531   -4.3303 C   0  0  0  0  0  0  0  0  0  0  0  0
   -3.5142   -2.8428   -4.6460 H   0  0  0  0  0  0  0  0  0  0  0  0
   -1.9458   -2.7725   -5.0952 H   0  0  0  0  0  0  0  0  0  0  0  0
   -2.5345   -1.6159   -3.9985 H   0  0  0  0  0  0  0  0  0  0  0  0
   -2.2258   -3.6568   -3.2423 C   0  0  0  0  0  0  0  0  0  0  0  0
   -2.8861   -3.5551   -2.4821 H   0  0  0  0  0  0  0  0  0  0  0  0
   -2.3345   -4.5903   -3.6178 H   0  0  0  0  0  0  0  0  0  0  0  0
   -0.8515   -3.4986   -2.7196 N   0  0  0  0  0  4  0  0  0  0  0  0
   -0.1921   -3.8019   -3.4096 H   0  0  0  0  0  0  0  0  0  0  0  0
   -0.6830   -2.5362   -2.5013 H   0  0  0  0  0  0  0  0  0  0  0  0
   -0.7408   -4.0499   -1.8910 H   0  0  0  0  0  0  0  0  0  0  0  0
   -0.0104    2.8964    0.0192 C   0  0  0  0  0  0  0  0  0  0  0  0
    0.9149    3.2107    0.1865 H   0  0  0  0  0  0  0  0  0  0  0  0
   -0.6207    3.1939    0.7422 H   0  0  0  0  0  0  0  0  0  0  0  0
   -0.3517    3.3503   -0.9112 H   0  0  0  0  0  0  0  0  0  0  0  0
   -0.0007    1.4053    0.0014 C   0  0  0  0  0  0  0  0  0  0  0  0
   -1.2039    0.6907   -0.0013 C   0  0  0  0  0  0  0  0  0  0  0  0
   -2.0685    1.1825   -0.0056 H   0  0  0  0  0  0  0  0  0  0  0  0
   -1.2097   -0.7033    0.0000 C   0  0  0  0  0  0  0  0  0  0  0  0
   -2.0818   -1.1978    0.0027 H   0  0  0  0  0  0  0  0  0  0  0  0
    0.0009   -1.3991   -0.0002 C   0  0  0  0  0  0  0  0  0  0  0  0
   -0.0001   -2.3959   -0.0006 H   0  0  0  0  0  0  0  0  0  0  0  0
    1.2097   -0.6979   -0.0000 C   0  0  0  0  0  0  0  0  0  0  0  0
    2.0885   -1.1925    0.0016 H   0  0  0  0  0  0  0  0  0  0  0  0
    1.2037    0.7043    0.0002 C   0  0  0  0  0  0  0  0  0  0  0  0
    2.0670    1.1984   -0.0012 H   0  0  0  0  0  0  0  0  0  0  0  0
  1  5  1  0
  5  8  1  0
  1  2  1  0
  1  3  1  0
  1  4  1  0
  5  6  1  0
  5  7  1  0
  8  9  1  0
  8 10  1  0
  8 11  1  0
 12 16  1  0
 16 17  2  0
 17 19  1  0
 19 21  2  0
 21 23  1  0
 23 25  2  0
 25 16  1  0
 12 13  1  0
 12 14  1  0
 12 15  1  0
 17 18  1  0
 19 20  1  0
 21 22  1  0
 23 24  1  0
 25 26  1  0
M  CHG  1   8   1
M  END
>  <PDB_ID>  (1466) 
pdb1xtf

>  <RESIDUE_NAME>  (1466) 
LYS   PHE

>  <FRAG_NAME>  (1466) 
ETAM   MBZ

>  <FRAG_ATOM_NUM>  (1466) 
fragi: 11  fragj: 15

>  <atom.prop.CHAIN_ID>  (1466) 
A A A A A A A A A A A Z Z Z Z Z Z Z Z Z Z Z Z Z Z Z

>  <atom.prop.IS_HEAVY_ATOM>  (1466) 
1 0 0 0 1 0 0 1 0 0 0 1 0 0 0 1 1 0 1 0 1 0 1 0 1 0

>  <DIFUSE_FUNC_ATOM>  (1466) 
n/a

>  <FINAL_SINGLE_POINT_ENERGY>  (1466) 
0

>  <NONCOV_INTER_ENERGY_QM>  (1466) 
0

>  <FF_Energy>  (1466) 
-1.82

>  <QM_Energy>  (1466) 
-7.76

>  <source>  (1466) 
ETAM_MBZ

>  <Index>  (1466) 
14742

$$$$
ETAM-pdb1xt8-B-LYS-82:MBZ-pdb1xt8-B-PHE-77
     RDKit          3D

 26 25  0  0  0  0  0  0  0  0999 V2000
   -0.7608   -0.2711    3.5656 C   0  0  0  0  0  0  0  0  0  0  0  0
   -0.7092    0.1121    2.6450 H   0  0  0  0  0  0  0  0  0  0  0  0
   -0.1429   -1.0507    3.6427 H   0  0  0  0  0  0  0  0  0  0  0  0
   -0.4382    0.4935    4.2723 H   0  0  0  0  0  0  0  0  0  0  0  0
   -2.1966   -0.7606    3.8107 C   0  0  0  0  0  0  0  0  0  0  0  0
   -2.2701   -1.7138    3.5077 H   0  0  0  0  0  0  0  0  0  0  0  0
   -2.3906   -0.7164    4.7942 H   0  0  0  0  0  0  0  0  0  0  0  0
   -3.2305    0.0632    3.0744 N   0  0  0  0  0  4  0  0  0  0  0  0
   -3.1818   -0.1567    2.1047 H   0  0  0  0  0  0  0  0  0  0  0  0
   -4.1319   -0.1605    3.4340 H   0  0  0  0  0  0  0  0  0  0  0  0
   -3.0318    1.0278    3.2189 H   0  0  0  0  0  0  0  0  0  0  0  0
   -0.0011    2.9086   -0.0045 C   0  0  0  0  0  0  0  0  0  0  0  0
   -0.1563    3.2131   -0.9300 H   0  0  0  0  0  0  0  0  0  0  0  0
    0.8724    3.2139    0.3377 H   0  0  0  0  0  0  0  0  0  0  0  0
   -0.7778    3.3422    0.6254 H   0  0  0  0  0  0  0  0  0  0  0  0
   -0.0009    1.4026   -0.0037 C   0  0  0  0  0  0  0  0  0  0  0  0
   -1.1863    0.6929   -0.0172 C   0  0  0  0  0  0  0  0  0  0  0  0
   -2.0598    1.1704   -0.0409 H   0  0  0  0  0  0  0  0  0  0  0  0
   -1.1891   -0.7125    0.0000 C   0  0  0  0  0  0  0  0  0  0  0  0
   -2.0693   -1.1967    0.0013 H   0  0  0  0  0  0  0  0  0  0  0  0
    0.0038   -1.3940    0.0166 C   0  0  0  0  0  0  0  0  0  0  0  0
    0.0109   -2.3941    0.0400 H   0  0  0  0  0  0  0  0  0  0  0  0
    1.1891   -0.6893   -0.0000 C   0  0  0  0  0  0  0  0  0  0  0  0
    2.0799   -1.1813   -0.0139 H   0  0  0  0  0  0  0  0  0  0  0  0
    1.1834    0.7003    0.0042 C   0  0  0  0  0  0  0  0  0  0  0  0
    2.0567    1.1937    0.0124 H   0  0  0  0  0  0  0  0  0  0  0  0
  1  5  1  0
  5  8  1  0
  1  2  1  0
  1  3  1  0
  1  4  1  0
  5  6  1  0
  5  7  1  0
  8  9  1  0
  8 10  1  0
  8 11  1  0
 12 16  1  0
 16 17  2  0
 17 19  1  0
 19 21  2  0
 21 23  1  0
 23 25  2  0
 25 16  1  0
 12 13  1  0
 12 14  1  0
 12 15  1  0
 17 18  1  0
 19 20  1  0
 21 22  1  0
 23 24  1  0
 25 26  1  0
M  CHG  1   8   1
M  END
>  <PDB_ID>  (1467) 
pdb1xt8

>  <RESIDUE_NAME>  (1467) 
LYS   PHE

>  <FRAG_NAME>  (1467) 
ETAM   MBZ

>  <FRAG_ATOM_NUM>  (1467) 
fragi: 11  fragj: 15

>  <atom.prop.CHAIN_ID>  (1467) 
A A A A A A A A A A A Z Z Z Z Z Z Z Z Z Z Z Z Z Z Z

>  <atom.prop.IS_HEAVY_ATOM>  (1467) 
1 0 0 0 1 0 0 1 0 0 0 1 0 0 0 1 1 0 1 0 1 0 1 0 1 0

>  <DIFUSE_FUNC_ATOM>  (1467) 
n/a

>  <FINAL_SINGLE_POINT_ENERGY>  (1467) 
0

>  <NONCOV_INTER_ENERGY_QM>  (1467) 
0

>  <FF_Energy>  (1467) 
-3.56

>  <QM_Energy>  (1467) 
-9.22

>  <source>  (1467) 
ETAM_MBZ

>  <Index>  (1467) 
14744

$$$$
ETAM-pdb1xuu-A-LYS-164:MBZ-pdb1xuu-A-PHE-205
     RDKit          3D

 26 25  0  0  0  0  0  0  0  0999 V2000
    4.0853   -2.0082    0.5113 C   0  0  0  0  0  0  0  0  0  0  0  0
    3.9449   -1.7491   -0.4424 H   0  0  0  0  0  0  0  0  0  0  0  0
    3.2924   -1.7394    1.0552 H   0  0  0  0  0  0  0  0  0  0  0  0
    4.1945   -3.0914    0.5647 H   0  0  0  0  0  0  0  0  0  0  0  0
    5.3100   -1.2675    1.0403 C   0  0  0  0  0  0  0  0  0  0  0  0
    6.1249   -1.6047    0.5575 H   0  0  0  0  0  0  0  0  0  0  0  0
    5.2045   -0.2869    0.8437 H   0  0  0  0  0  0  0  0  0  0  0  0
    5.4958   -1.4556    2.5050 N   0  0  0  0  0  4  0  0  0  0  0  0
    6.3767   -1.8970    2.6727 H   0  0  0  0  0  0  0  0  0  0  0  0
    5.4753   -0.5649    2.9586 H   0  0  0  0  0  0  0  0  0  0  0  0
    4.7598   -2.0303    2.8616 H   0  0  0  0  0  0  0  0  0  0  0  0
    0.0013    2.9153    0.0372 C   0  0  0  0  0  0  0  0  0  0  0  0
   -0.9018    3.2268   -0.2119 H   0  0  0  0  0  0  0  0  0  0  0  0
    0.6841    3.2345   -0.5997 H   0  0  0  0  0  0  0  0  0  0  0  0
    0.2388    3.3290    1.0173 H   0  0  0  0  0  0  0  0  0  0  0  0
    0.0001    1.4075    0.0003 C   0  0  0  0  0  0  0  0  0  0  0  0
   -1.1978    0.6934    0.0001 C   0  0  0  0  0  0  0  0  0  0  0  0
   -2.0656    1.1824   -0.0012 H   0  0  0  0  0  0  0  0  0  0  0  0
   -1.2033   -0.7027    0.0000 C   0  0  0  0  0  0  0  0  0  0  0  0
   -2.0795   -1.1937    0.0005 H   0  0  0  0  0  0  0  0  0  0  0  0
   -0.0001   -1.3996    0.0010 C   0  0  0  0  0  0  0  0  0  0  0  0
   -0.0001   -2.3957    0.0019 H   0  0  0  0  0  0  0  0  0  0  0  0
    1.2033   -0.6963   -0.0000 C   0  0  0  0  0  0  0  0  0  0  0  0
    2.0847   -1.1929    0.0025 H   0  0  0  0  0  0  0  0  0  0  0  0
    1.1978    0.6977   -0.0014 C   0  0  0  0  0  0  0  0  0  0  0  0
    2.0662    1.1937   -0.0042 H   0  0  0  0  0  0  0  0  0  0  0  0
  1  5  1  0
  5  8  1  0
  1  2  1  0
  1  3  1  0
  1  4  1  0
  5  6  1  0
  5  7  1  0
  8  9  1  0
  8 10  1  0
  8 11  1  0
 12 16  1  0
 16 17  2  0
 17 19  1  0
 19 21  2  0
 21 23  1  0
 23 25  2  0
 25 16  1  0
 12 13  1  0
 12 14  1  0
 12 15  1  0
 17 18  1  0
 19 20  1  0
 21 22  1  0
 23 24  1  0
 25 26  1  0
M  CHG  1   8   1
M  END
>  <PDB_ID>  (1468) 
pdb1xuu

>  <RESIDUE_NAME>  (1468) 
LYS   PHE

>  <FRAG_NAME>  (1468) 
ETAM   MBZ

>  <FRAG_ATOM_NUM>  (1468) 
fragi: 11  fragj: 15

>  <atom.prop.CHAIN_ID>  (1468) 
A A A A A A A A A A A Z Z Z Z Z Z Z Z Z Z Z Z Z Z Z

>  <atom.prop.IS_HEAVY_ATOM>  (1468) 
1 0 0 0 1 0 0 1 0 0 0 1 0 0 0 1 1 0 1 0 1 0 1 0 1 0

>  <DIFUSE_FUNC_ATOM>  (1468) 
n/a

>  <FINAL_SINGLE_POINT_ENERGY>  (1468) 
0

>  <NONCOV_INTER_ENERGY_QM>  (1468) 
0

>  <FF_Energy>  (1468) 
14.59

>  <QM_Energy>  (1468) 
2.65

>  <source>  (1468) 
ETAM_MBZ

>  <Index>  (1468) 
14749

$$$$
ETAM-pdb1xv2-A-LYS-100:MBZ-pdb1xv2-A-PHE-159
     RDKit          3D

 26 25  0  0  0  0  0  0  0  0999 V2000
   -2.1520   -2.0442   -3.5661 C   0  0  0  0  0  0  0  0  0  0  0  0
   -1.3452   -1.5002   -3.7493 H   0  0  0  0  0  0  0  0  0  0  0  0
   -2.5935   -1.7570   -2.7282 H   0  0  0  0  0  0  0  0  0  0  0  0
   -2.8517   -1.9323   -4.3943 H   0  0  0  0  0  0  0  0  0  0  0  0
   -1.7307   -3.5021   -3.4168 C   0  0  0  0  0  0  0  0  0  0  0  0
   -2.5597   -4.0711   -3.3404 H   0  0  0  0  0  0  0  0  0  0  0  0
   -1.2342   -3.7810   -4.2487 H   0  0  0  0  0  0  0  0  0  0  0  0
   -0.8667   -3.7369   -2.2310 N   0  0  0  0  0  4  0  0  0  0  0  0
   -0.6157   -4.7037   -2.1887 H   0  0  0  0  0  0  0  0  0  0  0  0
   -0.0397   -3.1801   -2.3066 H   0  0  0  0  0  0  0  0  0  0  0  0
   -1.3645   -3.4849   -1.4008 H   0  0  0  0  0  0  0  0  0  0  0  0
    0.0000    2.9047    0.0398 C   0  0  0  0  0  0  0  0  0  0  0  0
   -0.7400    3.2253   -0.5302 H   0  0  0  0  0  0  0  0  0  0  0  0
    0.8760    3.2204   -0.2896 H   0  0  0  0  0  0  0  0  0  0  0  0
   -0.1476    3.3117    1.0401 H   0  0  0  0  0  0  0  0  0  0  0  0
    0.0014    1.4029   -0.0003 C   0  0  0  0  0  0  0  0  0  0  0  0
   -1.1964    0.6924   -0.0002 C   0  0  0  0  0  0  0  0  0  0  0  0
   -2.0634    1.1832   -0.0016 H   0  0  0  0  0  0  0  0  0  0  0  0
   -1.2039   -0.7005   -0.0000 C   0  0  0  0  0  0  0  0  0  0  0  0
   -2.0811   -1.1911    0.0011 H   0  0  0  0  0  0  0  0  0  0  0  0
   -0.0037   -1.3971    0.0011 C   0  0  0  0  0  0  0  0  0  0  0  0
   -0.0037   -2.3937    0.0024 H   0  0  0  0  0  0  0  0  0  0  0  0
    1.2039   -0.6960    0.0000 C   0  0  0  0  0  0  0  0  0  0  0  0
    2.0826   -1.1941    0.0011 H   0  0  0  0  0  0  0  0  0  0  0  0
    1.1987    0.6983   -0.0006 C   0  0  0  0  0  0  0  0  0  0  0  0
    2.0659    1.1935   -0.0021 H   0  0  0  0  0  0  0  0  0  0  0  0
  1  5  1  0
  5  8  1  0
  1  2  1  0
  1  3  1  0
  1  4  1  0
  5  6  1  0
  5  7  1  0
  8  9  1  0
  8 10  1  0
  8 11  1  0
 12 16  1  0
 16 17  2  0
 17 19  1  0
 19 21  2  0
 21 23  1  0
 23 25  2  0
 25 16  1  0
 12 13  1  0
 12 14  1  0
 12 15  1  0
 17 18  1  0
 19 20  1  0
 21 22  1  0
 23 24  1  0
 25 26  1  0
M  CHG  1   8   1
M  END
>  <PDB_ID>  (1469) 
pdb1xv2

>  <RESIDUE_NAME>  (1469) 
LYS   PHE

>  <FRAG_NAME>  (1469) 
ETAM   MBZ

>  <FRAG_ATOM_NUM>  (1469) 
fragi: 11  fragj: 15

>  <atom.prop.CHAIN_ID>  (1469) 
A A A A A A A A A A A Z Z Z Z Z Z Z Z Z Z Z Z Z Z Z

>  <atom.prop.IS_HEAVY_ATOM>  (1469) 
1 0 0 0 1 0 0 1 0 0 0 1 0 0 0 1 1 0 1 0 1 0 1 0 1 0

>  <DIFUSE_FUNC_ATOM>  (1469) 
n/a

>  <FINAL_SINGLE_POINT_ENERGY>  (1469) 
0

>  <NONCOV_INTER_ENERGY_QM>  (1469) 
0

>  <FF_Energy>  (1469) 
-0.98

>  <QM_Energy>  (1469) 
-7.0

>  <source>  (1469) 
ETAM_MBZ

>  <Index>  (1469) 
14763

$$$$
ETAM-pdb1xw9-A-LYS-103:MBZ-pdb1xw9-A-PHE-49
     RDKit          3D

 26 25  0  0  0  0  0  0  0  0999 V2000
    0.0962   -5.7087   -1.6683 C   0  0  0  0  0  0  0  0  0  0  0  0
   -0.4642   -6.3969   -2.1135 H   0  0  0  0  0  0  0  0  0  0  0  0
    0.7972   -6.1347   -1.1097 H   0  0  0  0  0  0  0  0  0  0  0  0
    0.5755   -5.0958   -2.4316 H   0  0  0  0  0  0  0  0  0  0  0  0
   -0.8055   -4.8690   -0.7540 C   0  0  0  0  0  0  0  0  0  0  0  0
   -0.2756   -4.0824   -0.4164 H   0  0  0  0  0  0  0  0  0  0  0  0
   -1.5773   -4.5189   -1.2982 H   0  0  0  0  0  0  0  0  0  0  0  0
   -1.3397   -5.6358    0.4140 N   0  0  0  0  0  4  0  0  0  0  0  0
   -1.0431   -5.1945    1.2594 H   0  0  0  0  0  0  0  0  0  0  0  0
   -2.3371   -5.6468    0.3700 H   0  0  0  0  0  0  0  0  0  0  0  0
   -0.9902   -6.5702    0.3797 H   0  0  0  0  0  0  0  0  0  0  0  0
    0.0043    2.8980    0.0285 C   0  0  0  0  0  0  0  0  0  0  0  0
   -0.9172    3.2121   -0.1373 H   0  0  0  0  0  0  0  0  0  0  0  0
    0.6271    3.2193   -0.6675 H   0  0  0  0  0  0  0  0  0  0  0  0
    0.3298    3.3168    0.9807 H   0  0  0  0  0  0  0  0  0  0  0  0
    0.0009    1.3986   -0.0007 C   0  0  0  0  0  0  0  0  0  0  0  0
   -1.1935    0.6906   -0.0004 C   0  0  0  0  0  0  0  0  0  0  0  0
   -2.0614    1.1832   -0.0021 H   0  0  0  0  0  0  0  0  0  0  0  0
   -1.2022   -0.6968   -0.0000 C   0  0  0  0  0  0  0  0  0  0  0  0
   -2.0795   -1.1892    0.0007 H   0  0  0  0  0  0  0  0  0  0  0  0
   -0.0036   -1.3927    0.0015 C   0  0  0  0  0  0  0  0  0  0  0  0
   -0.0043   -2.3906    0.0028 H   0  0  0  0  0  0  0  0  0  0  0  0
    1.2022   -0.6938    0.0000 C   0  0  0  0  0  0  0  0  0  0  0  0
    2.0812   -1.1941    0.0002 H   0  0  0  0  0  0  0  0  0  0  0  0
    1.1962    0.6941   -0.0003 C   0  0  0  0  0  0  0  0  0  0  0  0
    2.0644    1.1920   -0.0006 H   0  0  0  0  0  0  0  0  0  0  0  0
  1  5  1  0
  5  8  1  0
  1  2  1  0
  1  3  1  0
  1  4  1  0
  5  6  1  0
  5  7  1  0
  8  9  1  0
  8 10  1  0
  8 11  1  0
 12 16  1  0
 16 17  2  0
 17 19  1  0
 19 21  2  0
 21 23  1  0
 23 25  2  0
 25 16  1  0
 12 13  1  0
 12 14  1  0
 12 15  1  0
 17 18  1  0
 19 20  1  0
 21 22  1  0
 23 24  1  0
 25 26  1  0
M  CHG  1   8   1
M  END
>  <PDB_ID>  (1470) 
pdb1xw9

>  <RESIDUE_NAME>  (1470) 
LYS   PHE

>  <FRAG_NAME>  (1470) 
ETAM   MBZ

>  <FRAG_ATOM_NUM>  (1470) 
fragi: 11  fragj: 15

>  <atom.prop.CHAIN_ID>  (1470) 
A A A A A A A A A A A Z Z Z Z Z Z Z Z Z Z Z Z Z Z Z

>  <atom.prop.IS_HEAVY_ATOM>  (1470) 
1 0 0 0 1 0 0 1 0 0 0 1 0 0 0 1 1 0 1 0 1 0 1 0 1 0

>  <DIFUSE_FUNC_ATOM>  (1470) 
n/a

>  <FINAL_SINGLE_POINT_ENERGY>  (1470) 
0

>  <NONCOV_INTER_ENERGY_QM>  (1470) 
0

>  <FF_Energy>  (1470) 
5.43

>  <QM_Energy>  (1470) 
-1.06

>  <source>  (1470) 
ETAM_MBZ

>  <Index>  (1470) 
14770

$$$$
ETAM-pdb1xtf-B-LYS-843:MBZ-pdb1xtf-B-PHE-802
     RDKit          3D

 26 25  0  0  0  0  0  0  0  0999 V2000
   -2.5997   -2.6346   -4.3051 C   0  0  0  0  0  0  0  0  0  0  0  0
   -3.5328   -2.8164   -4.6122 H   0  0  0  0  0  0  0  0  0  0  0  0
   -1.9673   -2.7470   -5.0699 H   0  0  0  0  0  0  0  0  0  0  0  0
   -2.5459   -1.6008   -3.9637 H   0  0  0  0  0  0  0  0  0  0  0  0
   -2.2385   -3.6311   -3.2204 C   0  0  0  0  0  0  0  0  0  0  0  0
   -2.8883   -3.5267   -2.4528 H   0  0  0  0  0  0  0  0  0  0  0  0
   -2.3478   -4.5669   -3.5879 H   0  0  0  0  0  0  0  0  0  0  0  0
   -0.8539   -3.4722   -2.7072 N   0  0  0  0  0  4  0  0  0  0  0  0
   -0.8731   -2.9560   -1.8507 H   0  0  0  0  0  0  0  0  0  0  0  0
   -0.4534   -4.3743   -2.5435 H   0  0  0  0  0  0  0  0  0  0  0  0
   -0.3031   -2.9798   -3.3810 H   0  0  0  0  0  0  0  0  0  0  0  0
   -0.0062    2.8988    0.0264 C   0  0  0  0  0  0  0  0  0  0  0  0
    0.9232    3.2079    0.1795 H   0  0  0  0  0  0  0  0  0  0  0  0
   -0.6013    3.1924    0.7637 H   0  0  0  0  0  0  0  0  0  0  0  0
   -0.3633    3.3605   -0.8941 H   0  0  0  0  0  0  0  0  0  0  0  0
   -0.0012    1.4048    0.0002 C   0  0  0  0  0  0  0  0  0  0  0  0
   -1.2035    0.6909   -0.0013 C   0  0  0  0  0  0  0  0  0  0  0  0
   -2.0678    1.1839   -0.0047 H   0  0  0  0  0  0  0  0  0  0  0  0
   -1.2084   -0.6997    0.0000 C   0  0  0  0  0  0  0  0  0  0  0  0
   -2.0790   -1.1974    0.0005 H   0  0  0  0  0  0  0  0  0  0  0  0
    0.0041   -1.3980    0.0022 C   0  0  0  0  0  0  0  0  0  0  0  0
   -0.0018   -2.3949    0.0052 H   0  0  0  0  0  0  0  0  0  0  0  0
    1.2084   -0.6992    0.0000 C   0  0  0  0  0  0  0  0  0  0  0  0
    2.0886   -1.1916    0.0001 H   0  0  0  0  0  0  0  0  0  0  0  0
    1.2006    0.7013   -0.0011 C   0  0  0  0  0  0  0  0  0  0  0  0
    2.0659    1.1959   -0.0032 H   0  0  0  0  0  0  0  0  0  0  0  0
  1  5  1  0
  5  8  1  0
  1  2  1  0
  1  3  1  0
  1  4  1  0
  5  6  1  0
  5  7  1  0
  8  9  1  0
  8 10  1  0
  8 11  1  0
 12 16  1  0
 16 17  2  0
 17 19  1  0
 19 21  2  0
 21 23  1  0
 23 25  2  0
 25 16  1  0
 12 13  1  0
 12 14  1  0
 12 15  1  0
 17 18  1  0
 19 20  1  0
 21 22  1  0
 23 24  1  0
 25 26  1  0
M  CHG  1   8   1
M  END
>  <PDB_ID>  (1471) 
pdb1xtf

>  <RESIDUE_NAME>  (1471) 
LYS   PHE

>  <FRAG_NAME>  (1471) 
ETAM   MBZ

>  <FRAG_ATOM_NUM>  (1471) 
fragi: 11  fragj: 15

>  <atom.prop.CHAIN_ID>  (1471) 
A A A A A A A A A A A Z Z Z Z Z Z Z Z Z Z Z Z Z Z Z

>  <atom.prop.IS_HEAVY_ATOM>  (1471) 
1 0 0 0 1 0 0 1 0 0 0 1 0 0 0 1 1 0 1 0 1 0 1 0 1 0

>  <DIFUSE_FUNC_ATOM>  (1471) 
n/a

>  <FINAL_SINGLE_POINT_ENERGY>  (1471) 
0

>  <NONCOV_INTER_ENERGY_QM>  (1471) 
0

>  <FF_Energy>  (1471) 
-1.65

>  <QM_Energy>  (1471) 
-7.96

>  <source>  (1471) 
ETAM_MBZ

>  <Index>  (1471) 
14771

$$$$
ETAM-pdb1x0u-B-LYS-20:MBZ-pdb1x0u-B-PHE-62
     RDKit          3D

 26 25  0  0  0  0  0  0  0  0999 V2000
   -0.2105   -4.2727   -1.5186 C   0  0  0  0  0  0  0  0  0  0  0  0
   -0.7617   -3.5407   -1.1285 H   0  0  0  0  0  0  0  0  0  0  0  0
    0.2023   -4.8167   -0.7945 H   0  0  0  0  0  0  0  0  0  0  0  0
   -0.8492   -4.9138   -2.1262 H   0  0  0  0  0  0  0  0  0  0  0  0
    0.9088   -3.6444   -2.3446 C   0  0  0  0  0  0  0  0  0  0  0  0
    0.5058   -3.2337   -3.1732 H   0  0  0  0  0  0  0  0  0  0  0  0
    1.3312   -2.9042   -1.8045 H   0  0  0  0  0  0  0  0  0  0  0  0
    1.9614   -4.6166   -2.7447 N   0  0  0  0  0  4  0  0  0  0  0  0
    2.2981   -4.3851   -3.6574 H   0  0  0  0  0  0  0  0  0  0  0  0
    2.7153   -4.5770   -2.0901 H   0  0  0  0  0  0  0  0  0  0  0  0
    1.5747   -5.5388   -2.7548 H   0  0  0  0  0  0  0  0  0  0  0  0
    0.0042    2.8946    0.0668 C   0  0  0  0  0  0  0  0  0  0  0  0
    0.9420    3.2049   -0.0155 H   0  0  0  0  0  0  0  0  0  0  0  0
   -0.3834    3.1665    0.9380 H   0  0  0  0  0  0  0  0  0  0  0  0
   -0.5757    3.3778   -0.7195 H   0  0  0  0  0  0  0  0  0  0  0  0
   -0.0001    1.4004    0.0011 C   0  0  0  0  0  0  0  0  0  0  0  0
   -1.1996    0.6932   -0.0013 C   0  0  0  0  0  0  0  0  0  0  0  0
   -2.0651    1.1849   -0.0052 H   0  0  0  0  0  0  0  0  0  0  0  0
   -1.2056   -0.6979    0.0000 C   0  0  0  0  0  0  0  0  0  0  0  0
   -2.0787   -1.1932    0.0004 H   0  0  0  0  0  0  0  0  0  0  0  0
    0.0025   -1.3949    0.0023 C   0  0  0  0  0  0  0  0  0  0  0  0
   -0.0008   -2.3924    0.0054 H   0  0  0  0  0  0  0  0  0  0  0  0
    1.2056   -0.6948   -0.0000 C   0  0  0  0  0  0  0  0  0  0  0  0
    2.0857   -1.1923    0.0010 H   0  0  0  0  0  0  0  0  0  0  0  0
    1.1972    0.6940   -0.0021 C   0  0  0  0  0  0  0  0  0  0  0  0
    2.0644    1.1935   -0.0072 H   0  0  0  0  0  0  0  0  0  0  0  0
  1  5  1  0
  5  8  1  0
  1  2  1  0
  1  3  1  0
  1  4  1  0
  5  6  1  0
  5  7  1  0
  8  9  1  0
  8 10  1  0
  8 11  1  0
 12 16  1  0
 16 17  2  0
 17 19  1  0
 19 21  2  0
 21 23  1  0
 23 25  2  0
 25 16  1  0
 12 13  1  0
 12 14  1  0
 12 15  1  0
 17 18  1  0
 19 20  1  0
 21 22  1  0
 23 24  1  0
 25 26  1  0
M  CHG  1   8   1
M  END
>  <PDB_ID>  (1472) 
pdb1x0u

>  <RESIDUE_NAME>  (1472) 
LYS   PHE

>  <FRAG_NAME>  (1472) 
ETAM   MBZ

>  <FRAG_ATOM_NUM>  (1472) 
fragi: 11  fragj: 15

>  <atom.prop.CHAIN_ID>  (1472) 
A A A A A A A A A A A Z Z Z Z Z Z Z Z Z Z Z Z Z Z Z

>  <atom.prop.IS_HEAVY_ATOM>  (1472) 
1 0 0 0 1 0 0 1 0 0 0 1 0 0 0 1 1 0 1 0 1 0 1 0 1 0

>  <DIFUSE_FUNC_ATOM>  (1472) 
n/a

>  <FINAL_SINGLE_POINT_ENERGY>  (1472) 
0

>  <NONCOV_INTER_ENERGY_QM>  (1472) 
0

>  <FF_Energy>  (1472) 
5.83

>  <QM_Energy>  (1472) 
-1.9

>  <source>  (1472) 
ETAM_MBZ

>  <Index>  (1472) 
14784

$$$$
ETAM-pdb1xw9-D-LYS-57:MBZ-pdb1xw9-D-PHE-28
     RDKit          3D

 26 25  0  0  0  0  0  0  0  0999 V2000
    2.3636   -1.6787   -3.9090 C   0  0  0  0  0  0  0  0  0  0  0  0
    2.3087   -1.7009   -4.9038 H   0  0  0  0  0  0  0  0  0  0  0  0
    2.2219   -2.5924   -3.5376 H   0  0  0  0  0  0  0  0  0  0  0  0
    3.3571   -1.3347   -3.6218 H   0  0  0  0  0  0  0  0  0  0  0  0
    1.2607   -0.7653   -3.3829 C   0  0  0  0  0  0  0  0  0  0  0  0
    1.2018   -0.8694   -2.3850 H   0  0  0  0  0  0  0  0  0  0  0  0
    1.5004    0.1881   -3.5925 H   0  0  0  0  0  0  0  0  0  0  0  0
   -0.0736   -1.0747   -3.9846 N   0  0  0  0  0  4  0  0  0  0  0  0
   -0.2169   -0.4916   -4.7820 H   0  0  0  0  0  0  0  0  0  0  0  0
   -0.0946   -2.0339   -4.2599 H   0  0  0  0  0  0  0  0  0  0  0  0
   -0.7867   -0.9020   -3.3071 H   0  0  0  0  0  0  0  0  0  0  0  0
    0.0011    2.9150    0.0797 C   0  0  0  0  0  0  0  0  0  0  0  0
   -0.9000    3.2351   -0.1634 H   0  0  0  0  0  0  0  0  0  0  0  0
    0.6894    3.2519   -0.5415 H   0  0  0  0  0  0  0  0  0  0  0  0
    0.2336    3.2967    1.0739 H   0  0  0  0  0  0  0  0  0  0  0  0
   -0.0015    1.4118    0.0018 C   0  0  0  0  0  0  0  0  0  0  0  0
   -1.2042    0.7023   -0.0010 C   0  0  0  0  0  0  0  0  0  0  0  0
   -2.0689    1.1906   -0.0048 H   0  0  0  0  0  0  0  0  0  0  0  0
   -1.2107   -0.6989   -0.0000 C   0  0  0  0  0  0  0  0  0  0  0  0
   -2.0816   -1.1920    0.0011 H   0  0  0  0  0  0  0  0  0  0  0  0
    0.0054   -1.4060    0.0008 C   0  0  0  0  0  0  0  0  0  0  0  0
   -0.0057   -2.4005    0.0021 H   0  0  0  0  0  0  0  0  0  0  0  0
    1.2107   -0.7079    0.0000 C   0  0  0  0  0  0  0  0  0  0  0  0
    2.0907   -1.1970    0.0025 H   0  0  0  0  0  0  0  0  0  0  0  0
    1.2003    0.6986   -0.0016 C   0  0  0  0  0  0  0  0  0  0  0  0
    2.0679    1.1922   -0.0065 H   0  0  0  0  0  0  0  0  0  0  0  0
  1  5  1  0
  5  8  1  0
  1  2  1  0
  1  3  1  0
  1  4  1  0
  5  6  1  0
  5  7  1  0
  8  9  1  0
  8 10  1  0
  8 11  1  0
 12 16  1  0
 16 17  2  0
 17 19  1  0
 19 21  2  0
 21 23  1  0
 23 25  2  0
 25 16  1  0
 12 13  1  0
 12 14  1  0
 12 15  1  0
 17 18  1  0
 19 20  1  0
 21 22  1  0
 23 24  1  0
 25 26  1  0
M  CHG  1   8   1
M  END
>  <PDB_ID>  (1473) 
pdb1xw9

>  <RESIDUE_NAME>  (1473) 
LYS   PHE

>  <FRAG_NAME>  (1473) 
ETAM   MBZ

>  <FRAG_ATOM_NUM>  (1473) 
fragi: 11  fragj: 15

>  <atom.prop.CHAIN_ID>  (1473) 
A A A A A A A A A A A Z Z Z Z Z Z Z Z Z Z Z Z Z Z Z

>  <atom.prop.IS_HEAVY_ATOM>  (1473) 
1 0 0 0 1 0 0 1 0 0 0 1 0 0 0 1 1 0 1 0 1 0 1 0 1 0

>  <DIFUSE_FUNC_ATOM>  (1473) 
n/a

>  <FINAL_SINGLE_POINT_ENERGY>  (1473) 
0

>  <NONCOV_INTER_ENERGY_QM>  (1473) 
0

>  <FF_Energy>  (1473) 
-3.83

>  <QM_Energy>  (1473) 
-9.98

>  <source>  (1473) 
ETAM_MBZ

>  <Index>  (1473) 
14794

$$$$
ETAM-pdb1xy7-A-LYS-141:MBZ-pdb1xy7-B-PHE-93
     RDKit          3D

 26 25  0  0  0  0  0  0  0  0999 V2000
    2.1712   -3.7888   -2.9579 C   0  0  0  0  0  0  0  0  0  0  0  0
    2.5855   -3.8751   -2.0416 H   0  0  0  0  0  0  0  0  0  0  0  0
    2.9136   -3.8079   -3.6408 H   0  0  0  0  0  0  0  0  0  0  0  0
    1.5552   -4.6732   -3.1207 H   0  0  0  0  0  0  0  0  0  0  0  0
    1.4375   -2.5036   -3.0551 C   0  0  0  0  0  0  0  0  0  0  0  0
    1.0307   -2.3942   -3.9400 H   0  0  0  0  0  0  0  0  0  0  0  0
    0.7896   -2.4091   -2.3253 H   0  0  0  0  0  0  0  0  0  0  0  0
    2.4909   -1.3877   -2.8879 N   0  0  0  0  0  4  0  0  0  0  0  0
    2.1545   -0.5800   -3.3532 H   0  0  0  0  0  0  0  0  0  0  0  0
    2.6029   -1.2186   -1.9181 H   0  0  0  0  0  0  0  0  0  0  0  0
    3.3369   -1.7056   -3.2938 H   0  0  0  0  0  0  0  0  0  0  0  0
   -0.0052    2.9057    0.0785 C   0  0  0  0  0  0  0  0  0  0  0  0
    0.8161    3.2096    0.5346 H   0  0  0  0  0  0  0  0  0  0  0  0
   -0.8166    3.1873    0.5661 H   0  0  0  0  0  0  0  0  0  0  0  0
   -0.0305    3.3819   -0.9017 H   0  0  0  0  0  0  0  0  0  0  0  0
    0.0139    1.3985    0.0293 C   0  0  0  0  0  0  0  0  0  0  0  0
   -1.1955    0.6938   -0.0010 C   0  0  0  0  0  0  0  0  0  0  0  0
   -2.0566    1.1843   -0.0246 H   0  0  0  0  0  0  0  0  0  0  0  0
   -1.2094   -0.7142   -0.0000 C   0  0  0  0  0  0  0  0  0  0  0  0
   -2.0891   -1.1913    0.0153 H   0  0  0  0  0  0  0  0  0  0  0  0
   -0.0170   -1.3974   -0.0179 C   0  0  0  0  0  0  0  0  0  0  0  0
   -0.0022   -2.3974   -0.0445 H   0  0  0  0  0  0  0  0  0  0  0  0
    1.2094   -0.6931    0.0000 C   0  0  0  0  0  0  0  0  0  0  0  0
    2.0786   -1.1895    0.0217 H   0  0  0  0  0  0  0  0  0  0  0  0
    1.1986    0.7124   -0.0103 C   0  0  0  0  0  0  0  0  0  0  0  0
    2.0697    1.1993   -0.0480 H   0  0  0  0  0  0  0  0  0  0  0  0
  1  5  1  0
  5  8  1  0
  1  2  1  0
  1  3  1  0
  1  4  1  0
  5  6  1  0
  5  7  1  0
  8  9  1  0
  8 10  1  0
  8 11  1  0
 12 16  1  0
 16 17  2  0
 17 19  1  0
 19 21  2  0
 21 23  1  0
 23 25  2  0
 25 16  1  0
 12 13  1  0
 12 14  1  0
 12 15  1  0
 17 18  1  0
 19 20  1  0
 21 22  1  0
 23 24  1  0
 25 26  1  0
M  CHG  1   8   1
M  END
>  <PDB_ID>  (1474) 
pdb1xy7

>  <RESIDUE_NAME>  (1474) 
LYS   PHE

>  <FRAG_NAME>  (1474) 
ETAM   MBZ

>  <FRAG_ATOM_NUM>  (1474) 
fragi: 11  fragj: 15

>  <atom.prop.CHAIN_ID>  (1474) 
A A A A A A A A A A A Z Z Z Z Z Z Z Z Z Z Z Z Z Z Z

>  <atom.prop.IS_HEAVY_ATOM>  (1474) 
1 0 0 0 1 0 0 1 0 0 0 1 0 0 0 1 1 0 1 0 1 0 1 0 1 0

>  <DIFUSE_FUNC_ATOM>  (1474) 
n/a

>  <FINAL_SINGLE_POINT_ENERGY>  (1474) 
0

>  <NONCOV_INTER_ENERGY_QM>  (1474) 
0

>  <FF_Energy>  (1474) 
-2.6

>  <QM_Energy>  (1474) 
-9.75

>  <source>  (1474) 
ETAM_MBZ

>  <Index>  (1474) 
14807

$$$$
ETAM-pdb3bua-B-LYS-202:MBZ-pdb3bua-B-PHE-171
     RDKit          3D

 26 25  0  0  0  0  0  0  0  0999 V2000
    0.7962    0.3268   -3.3787 C   0  0  0  0  0  0  0  0  0  0  0  0
    0.7747    0.3471   -2.3886 H   0  0  0  0  0  0  0  0  0  0  0  0
    1.7229    0.4244   -3.7164 H   0  0  0  0  0  0  0  0  0  0  0  0
    0.3940   -0.6269   -3.7204 H   0  0  0  0  0  0  0  0  0  0  0  0
   -0.0410    1.4738   -3.9096 C   0  0  0  0  0  0  0  0  0  0  0  0
    0.1383    2.2908   -3.3619 H   0  0  0  0  0  0  0  0  0  0  0  0
    0.2106    1.6504   -4.8617 H   0  0  0  0  0  0  0  0  0  0  0  0
   -1.4950    1.1493   -3.8410 N   0  0  0  0  0  4  0  0  0  0  0  0
   -2.0199    1.9968   -3.7793 H   0  0  0  0  0  0  0  0  0  0  0  0
   -1.7610    0.6493   -4.6644 H   0  0  0  0  0  0  0  0  0  0  0  0
   -1.6698    0.5856   -3.0343 H   0  0  0  0  0  0  0  0  0  0  0  0
   -0.0027    2.9100    0.0362 C   0  0  0  0  0  0  0  0  0  0  0  0
   -0.8529    3.2231   -0.3577 H   0  0  0  0  0  0  0  0  0  0  0  0
    0.7756    3.2276   -0.4825 H   0  0  0  0  0  0  0  0  0  0  0  0
    0.0732    3.3255    1.0411 H   0  0  0  0  0  0  0  0  0  0  0  0
   -0.0010    1.4033    0.0004 C   0  0  0  0  0  0  0  0  0  0  0  0
   -1.1968    0.6937    0.0003 C   0  0  0  0  0  0  0  0  0  0  0  0
   -2.0646    1.1838   -0.0012 H   0  0  0  0  0  0  0  0  0  0  0  0
   -1.2026   -0.6978    0.0000 C   0  0  0  0  0  0  0  0  0  0  0  0
   -2.0780   -1.1911    0.0007 H   0  0  0  0  0  0  0  0  0  0  0  0
    0.0005   -1.3952    0.0005 C   0  0  0  0  0  0  0  0  0  0  0  0
   -0.0043   -2.3938    0.0013 H   0  0  0  0  0  0  0  0  0  0  0  0
    1.2026   -0.6991   -0.0000 C   0  0  0  0  0  0  0  0  0  0  0  0
    2.0833   -1.1953    0.0020 H   0  0  0  0  0  0  0  0  0  0  0  0
    1.1973    0.6949   -0.0012 C   0  0  0  0  0  0  0  0  0  0  0  0
    2.0652    1.1907   -0.0040 H   0  0  0  0  0  0  0  0  0  0  0  0
  1  5  1  0
  5  8  1  0
  1  2  1  0
  1  3  1  0
  1  4  1  0
  5  6  1  0
  5  7  1  0
  8  9  1  0
  8 10  1  0
  8 11  1  0
 12 16  1  0
 16 17  2  0
 17 19  1  0
 19 21  2  0
 21 23  1  0
 23 25  2  0
 25 16  1  0
 12 13  1  0
 12 14  1  0
 12 15  1  0
 17 18  1  0
 19 20  1  0
 21 22  1  0
 23 24  1  0
 25 26  1  0
M  CHG  1   8   1
M  END
>  <PDB_ID>  (1475) 
pdb3bua

>  <RESIDUE_NAME>  (1475) 
LYS   PHE

>  <FRAG_NAME>  (1475) 
ETAM   MBZ

>  <FRAG_ATOM_NUM>  (1475) 
fragi: 11  fragj: 15

>  <atom.prop.CHAIN_ID>  (1475) 
A A A A A A A A A A A Z Z Z Z Z Z Z Z Z Z Z Z Z Z Z

>  <atom.prop.IS_HEAVY_ATOM>  (1475) 
1 0 0 0 1 0 0 1 0 0 0 1 0 0 0 1 1 0 1 0 1 0 1 0 1 0

>  <DIFUSE_FUNC_ATOM>  (1475) 
n/a

>  <FINAL_SINGLE_POINT_ENERGY>  (1475) 
0

>  <NONCOV_INTER_ENERGY_QM>  (1475) 
0

>  <FF_Energy>  (1475) 
-4.53

>  <QM_Energy>  (1475) 
-10.16

>  <source>  (1475) 
ETAM_MBZ

>  <Index>  (1475) 
14835

$$$$
ETAM-pdb3bun-B-LYS-153:MBZ-pdb3bun-B-PHE-271
     RDKit          3D

 26 25  0  0  0  0  0  0  0  0999 V2000
    0.2488    2.2926   -4.4644 C   0  0  0  0  0  0  0  0  0  0  0  0
   -0.3861    2.7502   -3.8497 H   0  0  0  0  0  0  0  0  0  0  0  0
    0.2687    2.7519   -5.3467 H   0  0  0  0  0  0  0  0  0  0  0  0
    1.2465    2.3360   -4.0275 H   0  0  0  0  0  0  0  0  0  0  0  0
   -0.2349    0.8500   -4.6778 C   0  0  0  0  0  0  0  0  0  0  0  0
   -0.9105    0.8520   -5.4376 H   0  0  0  0  0  0  0  0  0  0  0  0
    0.5569    0.2937   -4.9891 H   0  0  0  0  0  0  0  0  0  0  0  0
   -0.8432    0.2078   -3.4856 N   0  0  0  0  0  4  0  0  0  0  0  0
   -0.1526   -0.3410   -3.0138 H   0  0  0  0  0  0  0  0  0  0  0  0
   -1.1885    0.9134   -2.8666 H   0  0  0  0  0  0  0  0  0  0  0  0
   -1.5978   -0.3817   -3.7732 H   0  0  0  0  0  0  0  0  0  0  0  0
    0.0240    2.9598   -0.1261 C   0  0  0  0  0  0  0  0  0  0  0  0
   -0.6684    3.2135   -0.7849 H   0  0  0  0  0  0  0  0  0  0  0  0
    0.9269    3.2200   -0.4360 H   0  0  0  0  0  0  0  0  0  0  0  0
   -0.1790    3.5085    0.7936 H   0  0  0  0  0  0  0  0  0  0  0  0
    0.0024    1.4247   -0.0018 C   0  0  0  0  0  0  0  0  0  0  0  0
   -1.1926    0.7142    0.0055 C   0  0  0  0  0  0  0  0  0  0  0  0
   -2.0634    1.1934    0.0133 H   0  0  0  0  0  0  0  0  0  0  0  0
   -1.2030   -0.7027    0.0000 C   0  0  0  0  0  0  0  0  0  0  0  0
   -2.0858   -1.1802    0.0006 H   0  0  0  0  0  0  0  0  0  0  0  0
   -0.0045   -1.4158   -0.0048 C   0  0  0  0  0  0  0  0  0  0  0  0
   -0.0149   -2.4084   -0.0120 H   0  0  0  0  0  0  0  0  0  0  0  0
    1.2030   -0.7191   -0.0000 C   0  0  0  0  0  0  0  0  0  0  0  0
    2.0826   -1.2042    0.0037 H   0  0  0  0  0  0  0  0  0  0  0  0
    1.1946    0.6986    0.0011 C   0  0  0  0  0  0  0  0  0  0  0  0
    2.0708    1.1824    0.0029 H   0  0  0  0  0  0  0  0  0  0  0  0
  1  5  1  0
  5  8  1  0
  1  2  1  0
  1  3  1  0
  1  4  1  0
  5  6  1  0
  5  7  1  0
  8  9  1  0
  8 10  1  0
  8 11  1  0
 12 16  1  0
 16 17  2  0
 17 19  1  0
 19 21  2  0
 21 23  1  0
 23 25  2  0
 25 16  1  0
 12 13  1  0
 12 14  1  0
 12 15  1  0
 17 18  1  0
 19 20  1  0
 21 22  1  0
 23 24  1  0
 25 26  1  0
M  CHG  1   8   1
M  END
>  <PDB_ID>  (1476) 
pdb3bun

>  <RESIDUE_NAME>  (1476) 
LYS   PHE

>  <FRAG_NAME>  (1476) 
ETAM   MBZ

>  <FRAG_ATOM_NUM>  (1476) 
fragi: 11  fragj: 15

>  <atom.prop.CHAIN_ID>  (1476) 
A A A A A A A A A A A Z Z Z Z Z Z Z Z Z Z Z Z Z Z Z

>  <atom.prop.IS_HEAVY_ATOM>  (1476) 
1 0 0 0 1 0 0 1 0 0 0 1 0 0 0 1 1 0 1 0 1 0 1 0 1 0

>  <DIFUSE_FUNC_ATOM>  (1476) 
n/a

>  <FINAL_SINGLE_POINT_ENERGY>  (1476) 
0

>  <NONCOV_INTER_ENERGY_QM>  (1476) 
0

>  <FF_Energy>  (1476) 
-7.58

>  <QM_Energy>  (1476) 
-13.2

>  <source>  (1476) 
ETAM_MBZ

>  <Index>  (1476) 
14842

$$$$
ETAM-pdb1y0z-A-LYS-132:MBZ-pdb1y0z-A-PHE-86
     RDKit          3D

 26 25  0  0  0  0  0  0  0  0999 V2000
    0.5903   -0.3370    4.2453 C   0  0  0  0  0  0  0  0  0  0  0  0
    0.9994   -0.2786    3.3472 H   0  0  0  0  0  0  0  0  0  0  0  0
    0.1245   -1.2000    4.3732 H   0  0  0  0  0  0  0  0  0  0  0  0
    1.3732   -0.2404    4.9976 H   0  0  0  0  0  0  0  0  0  0  0  0
   -0.4183    0.7887    4.3961 C   0  0  0  0  0  0  0  0  0  0  0  0
   -0.7768    0.7792    5.3446 H   0  0  0  0  0  0  0  0  0  0  0  0
    0.0601    1.6738    4.2661 H   0  0  0  0  0  0  0  0  0  0  0  0
   -1.5616    0.7146    3.4476 N   0  0  0  0  0  4  0  0  0  0  0  0
   -2.2277    0.0485    3.7821 H   0  0  0  0  0  0  0  0  0  0  0  0
   -1.9937    1.6133    3.3772 H   0  0  0  0  0  0  0  0  0  0  0  0
   -1.2290    0.4321    2.5478 H   0  0  0  0  0  0  0  0  0  0  0  0
   -0.0040    2.9033   -0.0204 C   0  0  0  0  0  0  0  0  0  0  0  0
    0.9224    3.2087   -0.1773 H   0  0  0  0  0  0  0  0  0  0  0  0
   -0.3455    3.2206    0.8507 H   0  0  0  0  0  0  0  0  0  0  0  0
   -0.6337    3.3295   -0.8014 H   0  0  0  0  0  0  0  0  0  0  0  0
   -0.0011    1.4017   -0.0002 C   0  0  0  0  0  0  0  0  0  0  0  0
   -1.1994    0.6947    0.0016 C   0  0  0  0  0  0  0  0  0  0  0  0
   -2.0652    1.1870    0.0028 H   0  0  0  0  0  0  0  0  0  0  0  0
   -1.2043   -0.6933    0.0000 C   0  0  0  0  0  0  0  0  0  0  0  0
   -2.0801   -1.1893    0.0009 H   0  0  0  0  0  0  0  0  0  0  0  0
    0.0003   -1.3950   -0.0017 C   0  0  0  0  0  0  0  0  0  0  0  0
   -0.0077   -2.3920   -0.0044 H   0  0  0  0  0  0  0  0  0  0  0  0
    1.2043   -0.7002    0.0000 C   0  0  0  0  0  0  0  0  0  0  0  0
    2.0840   -1.1985    0.0027 H   0  0  0  0  0  0  0  0  0  0  0  0
    1.2002    0.6922    0.0003 C   0  0  0  0  0  0  0  0  0  0  0  0
    2.0664    1.1896    0.0001 H   0  0  0  0  0  0  0  0  0  0  0  0
  1  5  1  0
  5  8  1  0
  1  2  1  0
  1  3  1  0
  1  4  1  0
  5  6  1  0
  5  7  1  0
  8  9  1  0
  8 10  1  0
  8 11  1  0
 12 16  1  0
 16 17  2  0
 17 19  1  0
 19 21  2  0
 21 23  1  0
 23 25  2  0
 25 16  1  0
 12 13  1  0
 12 14  1  0
 12 15  1  0
 17 18  1  0
 19 20  1  0
 21 22  1  0
 23 24  1  0
 25 26  1  0
M  CHG  1   8   1
M  END
>  <PDB_ID>  (1477) 
pdb1y0z

>  <RESIDUE_NAME>  (1477) 
LYS   PHE

>  <FRAG_NAME>  (1477) 
ETAM   MBZ

>  <FRAG_ATOM_NUM>  (1477) 
fragi: 11  fragj: 15

>  <atom.prop.CHAIN_ID>  (1477) 
A A A A A A A A A A A Z Z Z Z Z Z Z Z Z Z Z Z Z Z Z

>  <atom.prop.IS_HEAVY_ATOM>  (1477) 
1 0 0 0 1 0 0 1 0 0 0 1 0 0 0 1 1 0 1 0 1 0 1 0 1 0

>  <DIFUSE_FUNC_ATOM>  (1477) 
n/a

>  <FINAL_SINGLE_POINT_ENERGY>  (1477) 
0

>  <NONCOV_INTER_ENERGY_QM>  (1477) 
0

>  <FF_Energy>  (1477) 
-6.95

>  <QM_Energy>  (1477) 
-12.85

>  <source>  (1477) 
ETAM_MBZ

>  <Index>  (1477) 
14845

$$$$
ETAM-pdb1y0z-B-LYS-132:MBZ-pdb1y0z-B-PHE-86
     RDKit          3D

 26 25  0  0  0  0  0  0  0  0999 V2000
    0.4215   -0.6289    3.4385 C   0  0  0  0  0  0  0  0  0  0  0  0
    0.7109    0.0557    2.7818 H   0  0  0  0  0  0  0  0  0  0  0  0
    0.7523   -1.5281    3.1820 H   0  0  0  0  0  0  0  0  0  0  0  0
    0.8174   -0.3700    4.4205 H   0  0  0  0  0  0  0  0  0  0  0  0
   -1.0837   -0.6576    3.4810 C   0  0  0  0  0  0  0  0  0  0  0  0
   -1.4315   -1.0571    2.6320 H   0  0  0  0  0  0  0  0  0  0  0  0
   -1.3834   -1.2164    4.2554 H   0  0  0  0  0  0  0  0  0  0  0  0
   -1.6335    0.7155    3.6324 N   0  0  0  0  0  4  0  0  0  0  0  0
   -1.8967    0.8644    4.5851 H   0  0  0  0  0  0  0  0  0  0  0  0
   -0.9371    1.3828    3.3693 H   0  0  0  0  0  0  0  0  0  0  0  0
   -2.4346    0.8194    3.0437 H   0  0  0  0  0  0  0  0  0  0  0  0
    0.0135    2.9125    0.0240 C   0  0  0  0  0  0  0  0  0  0  0  0
    0.9421    3.2131   -0.1445 H   0  0  0  0  0  0  0  0  0  0  0  0
   -0.2987    3.2065    0.9169 H   0  0  0  0  0  0  0  0  0  0  0  0
   -0.6276    3.3817   -0.7223 H   0  0  0  0  0  0  0  0  0  0  0  0
    0.0002    1.4067   -0.0007 C   0  0  0  0  0  0  0  0  0  0  0  0
   -1.1992    0.7019    0.0004 C   0  0  0  0  0  0  0  0  0  0  0  0
   -2.0643    1.1920   -0.0000 H   0  0  0  0  0  0  0  0  0  0  0  0
   -1.2052   -0.6922    0.0000 C   0  0  0  0  0  0  0  0  0  0  0  0
   -2.0823   -1.1854    0.0007 H   0  0  0  0  0  0  0  0  0  0  0  0
   -0.0006   -1.4001    0.0004 C   0  0  0  0  0  0  0  0  0  0  0  0
   -0.0116   -2.3956    0.0007 H   0  0  0  0  0  0  0  0  0  0  0  0
    1.2052   -0.7062    0.0000 C   0  0  0  0  0  0  0  0  0  0  0  0
    2.0841   -1.2023    0.0015 H   0  0  0  0  0  0  0  0  0  0  0  0
    1.1997    0.6899   -0.0001 C   0  0  0  0  0  0  0  0  0  0  0  0
    2.0688    1.1853    0.0000 H   0  0  0  0  0  0  0  0  0  0  0  0
  1  5  1  0
  5  8  1  0
  1  2  1  0
  1  3  1  0
  1  4  1  0
  5  6  1  0
  5  7  1  0
  8  9  1  0
  8 10  1  0
  8 11  1  0
 12 16  1  0
 16 17  2  0
 17 19  1  0
 19 21  2  0
 21 23  1  0
 23 25  2  0
 25 16  1  0
 12 13  1  0
 12 14  1  0
 12 15  1  0
 17 18  1  0
 19 20  1  0
 21 22  1  0
 23 24  1  0
 25 26  1  0
M  CHG  1   8   1
M  END
>  <PDB_ID>  (1478) 
pdb1y0z

>  <RESIDUE_NAME>  (1478) 
LYS   PHE

>  <FRAG_NAME>  (1478) 
ETAM   MBZ

>  <FRAG_ATOM_NUM>  (1478) 
fragi: 11  fragj: 15

>  <atom.prop.CHAIN_ID>  (1478) 
A A A A A A A A A A A Z Z Z Z Z Z Z Z Z Z Z Z Z Z Z

>  <atom.prop.IS_HEAVY_ATOM>  (1478) 
1 0 0 0 1 0 0 1 0 0 0 1 0 0 0 1 1 0 1 0 1 0 1 0 1 0

>  <DIFUSE_FUNC_ATOM>  (1478) 
n/a

>  <FINAL_SINGLE_POINT_ENERGY>  (1478) 
0

>  <NONCOV_INTER_ENERGY_QM>  (1478) 
0

>  <FF_Energy>  (1478) 
-5.85

>  <QM_Energy>  (1478) 
-10.94

>  <source>  (1478) 
ETAM_MBZ

>  <Index>  (1478) 
14848

$$$$
ETAM-pdb1xxx-C-LYS-261:MBZ-pdb1xxx-C-PHE-23
     RDKit          3D

 26 25  0  0  0  0  0  0  0  0999 V2000
   -4.6608    1.2383    4.0729 C   0  0  0  0  0  0  0  0  0  0  0  0
   -5.1809    0.6579    3.4616 H   0  0  0  0  0  0  0  0  0  0  0  0
   -4.6395    2.1726    3.7458 H   0  0  0  0  0  0  0  0  0  0  0  0
   -5.0926    1.2047    5.0731 H   0  0  0  0  0  0  0  0  0  0  0  0
   -3.2564    0.7232    4.1439 C   0  0  0  0  0  0  0  0  0  0  0  0
   -2.7168    1.3131    4.7698 H   0  0  0  0  0  0  0  0  0  0  0  0
   -3.2638   -0.2092    4.5467 H   0  0  0  0  0  0  0  0  0  0  0  0
   -2.5733    0.6697    2.8330 N   0  0  0  0  0  4  0  0  0  0  0  0
   -1.6627    1.0783    2.9122 H   0  0  0  0  0  0  0  0  0  0  0  0
   -2.4853   -0.2831    2.5389 H   0  0  0  0  0  0  0  0  0  0  0  0
   -3.1062    1.1777    2.1551 H   0  0  0  0  0  0  0  0  0  0  0  0
    0.0108    2.9057    0.0113 C   0  0  0  0  0  0  0  0  0  0  0  0
   -0.8989    3.2223    0.2163 H   0  0  0  0  0  0  0  0  0  0  0  0
    0.3258    3.2298   -0.8637 H   0  0  0  0  0  0  0  0  0  0  0  0
    0.6747    3.3267    0.7664 H   0  0  0  0  0  0  0  0  0  0  0  0
    0.0019    1.4043   -0.0093 C   0  0  0  0  0  0  0  0  0  0  0  0
   -1.2178    0.6989   -0.0022 C   0  0  0  0  0  0  0  0  0  0  0  0
   -2.0690    1.2152   -0.0004 H   0  0  0  0  0  0  0  0  0  0  0  0
   -1.2290   -0.6612   -0.0000 C   0  0  0  0  0  0  0  0  0  0  0  0
   -2.0969   -1.1783   -0.0106 H   0  0  0  0  0  0  0  0  0  0  0  0
    0.0011   -1.4154    0.0201 C   0  0  0  0  0  0  0  0  0  0  0  0
   -0.0324   -2.3932    0.0465 H   0  0  0  0  0  0  0  0  0  0  0  0
    1.2290   -0.7162   -0.0000 C   0  0  0  0  0  0  0  0  0  0  0  0
    2.0962   -1.2120   -0.0064 H   0  0  0  0  0  0  0  0  0  0  0  0
    1.2147    0.6896   -0.0087 C   0  0  0  0  0  0  0  0  0  0  0  0
    2.0771    1.1884   -0.0152 H   0  0  0  0  0  0  0  0  0  0  0  0
  1  5  1  0
  5  8  1  0
  1  2  1  0
  1  3  1  0
  1  4  1  0
  5  6  1  0
  5  7  1  0
  8  9  1  0
  8 10  1  0
  8 11  1  0
 12 16  1  0
 16 17  2  0
 17 19  1  0
 19 21  2  0
 21 23  1  0
 23 25  2  0
 25 16  1  0
 12 13  1  0
 12 14  1  0
 12 15  1  0
 17 18  1  0
 19 20  1  0
 21 22  1  0
 23 24  1  0
 25 26  1  0
M  CHG  1   8   1
M  END
>  <PDB_ID>  (1479) 
pdb1xxx

>  <RESIDUE_NAME>  (1479) 
LYS   PHE

>  <FRAG_NAME>  (1479) 
ETAM   MBZ

>  <FRAG_ATOM_NUM>  (1479) 
fragi: 11  fragj: 15

>  <atom.prop.CHAIN_ID>  (1479) 
A A A A A A A A A A A Z Z Z Z Z Z Z Z Z Z Z Z Z Z Z

>  <atom.prop.IS_HEAVY_ATOM>  (1479) 
1 0 0 0 1 0 0 1 0 0 0 1 0 0 0 1 1 0 1 0 1 0 1 0 1 0

>  <DIFUSE_FUNC_ATOM>  (1479) 
n/a

>  <FINAL_SINGLE_POINT_ENERGY>  (1479) 
0

>  <NONCOV_INTER_ENERGY_QM>  (1479) 
0

>  <FF_Energy>  (1479) 
-3.37

>  <QM_Energy>  (1479) 
-9.31

>  <source>  (1479) 
ETAM_MBZ

>  <Index>  (1479) 
14851

$$$$
ETAM-pdb1y14-D-LYS-5:MBZ-pdb1y14-D-PHE-42
     RDKit          3D

 26 25  0  0  0  0  0  0  0  0999 V2000
    2.8805    0.4121   -2.9396 C   0  0  0  0  0  0  0  0  0  0  0  0
    2.5130   -0.1374   -2.1972 H   0  0  0  0  0  0  0  0  0  0  0  0
    3.4139    1.1698   -2.5802 H   0  0  0  0  0  0  0  0  0  0  0  0
    3.5253   -0.2138   -3.5566 H   0  0  0  0  0  0  0  0  0  0  0  0
    1.7152    0.9796   -3.7440 C   0  0  0  0  0  0  0  0  0  0  0  0
    2.0718    1.3862   -4.5877 H   0  0  0  0  0  0  0  0  0  0  0  0
    1.0895    0.2330   -3.9800 H   0  0  0  0  0  0  0  0  0  0  0  0
    0.9675    2.0195   -2.9767 N   0  0  0  0  0  4  0  0  0  0  0  0
    0.0497    1.6820   -2.7737 H   0  0  0  0  0  0  0  0  0  0  0  0
    1.4515    2.2113   -2.1245 H   0  0  0  0  0  0  0  0  0  0  0  0
    0.9065    2.8522   -3.5244 H   0  0  0  0  0  0  0  0  0  0  0  0
   -0.0117    2.9248    0.0988 C   0  0  0  0  0  0  0  0  0  0  0  0
   -0.6859    3.2613   -0.5325 H   0  0  0  0  0  0  0  0  0  0  0  0
    0.8923    3.2459   -0.1142 H   0  0  0  0  0  0  0  0  0  0  0  0
   -0.2720    3.2840    1.0945 H   0  0  0  0  0  0  0  0  0  0  0  0
   -0.0008    1.4111    0.0013 C   0  0  0  0  0  0  0  0  0  0  0  0
   -1.1995    0.6927   -0.0021 C   0  0  0  0  0  0  0  0  0  0  0  0
   -2.0675    1.1796   -0.0079 H   0  0  0  0  0  0  0  0  0  0  0  0
   -1.2041   -0.7066   -0.0000 C   0  0  0  0  0  0  0  0  0  0  0  0
   -2.0792   -1.1969    0.0011 H   0  0  0  0  0  0  0  0  0  0  0  0
    0.0007   -1.4017    0.0022 C   0  0  0  0  0  0  0  0  0  0  0  0
    0.0012   -2.3976    0.0047 H   0  0  0  0  0  0  0  0  0  0  0  0
    1.2041   -0.6976   -0.0000 C   0  0  0  0  0  0  0  0  0  0  0  0
    2.0858   -1.1920    0.0007 H   0  0  0  0  0  0  0  0  0  0  0  0
    1.1996    0.7021   -0.0013 C   0  0  0  0  0  0  0  0  0  0  0  0
    2.0664    1.1952   -0.0054 H   0  0  0  0  0  0  0  0  0  0  0  0
  1  5  1  0
  5  8  1  0
  1  2  1  0
  1  3  1  0
  1  4  1  0
  5  6  1  0
  5  7  1  0
  8  9  1  0
  8 10  1  0
  8 11  1  0
 12 16  1  0
 16 17  2  0
 17 19  1  0
 19 21  2  0
 21 23  1  0
 23 25  2  0
 25 16  1  0
 12 13  1  0
 12 14  1  0
 12 15  1  0
 17 18  1  0
 19 20  1  0
 21 22  1  0
 23 24  1  0
 25 26  1  0
M  CHG  1   8   1
M  END
>  <PDB_ID>  (1480) 
pdb1y14

>  <RESIDUE_NAME>  (1480) 
LYS   PHE

>  <FRAG_NAME>  (1480) 
ETAM   MBZ

>  <FRAG_ATOM_NUM>  (1480) 
fragi: 11  fragj: 15

>  <atom.prop.CHAIN_ID>  (1480) 
A A A A A A A A A A A Z Z Z Z Z Z Z Z Z Z Z Z Z Z Z

>  <atom.prop.IS_HEAVY_ATOM>  (1480) 
1 0 0 0 1 0 0 1 0 0 0 1 0 0 0 1 1 0 1 0 1 0 1 0 1 0

>  <DIFUSE_FUNC_ATOM>  (1480) 
n/a

>  <FINAL_SINGLE_POINT_ENERGY>  (1480) 
0

>  <NONCOV_INTER_ENERGY_QM>  (1480) 
0

>  <FF_Energy>  (1480) 
-5.48

>  <QM_Energy>  (1480) 
-10.97

>  <source>  (1480) 
ETAM_MBZ

>  <Index>  (1480) 
14855

$$$$
ETAM-pdb1y23-A-LYS-39:MBZ-pdb1y23-A-PHE-79
     RDKit          3D

 26 25  0  0  0  0  0  0  0  0999 V2000
    3.9478   -1.0096   -2.8878 C   0  0  0  0  0  0  0  0  0  0  0  0
    4.6278   -0.7896   -3.5821 H   0  0  0  0  0  0  0  0  0  0  0  0
    3.7117   -0.1922   -2.3694 H   0  0  0  0  0  0  0  0  0  0  0  0
    3.0509   -1.3827   -3.3822 H   0  0  0  0  0  0  0  0  0  0  0  0
    4.5538   -2.0347   -1.9253 C   0  0  0  0  0  0  0  0  0  0  0  0
    4.6843   -2.9055   -2.4222 H   0  0  0  0  0  0  0  0  0  0  0  0
    5.4648   -1.7057   -1.6360 H   0  0  0  0  0  0  0  0  0  0  0  0
    3.7226   -2.2911   -0.7079 N   0  0  0  0  0  4  0  0  0  0  0  0
    2.8314   -2.6424   -0.9885 H   0  0  0  0  0  0  0  0  0  0  0  0
    4.1844   -2.9625   -0.1316 H   0  0  0  0  0  0  0  0  0  0  0  0
    3.6059   -1.4373   -0.2044 H   0  0  0  0  0  0  0  0  0  0  0  0
    0.0098    2.8835   -0.0213 C   0  0  0  0  0  0  0  0  0  0  0  0
   -0.8864    3.1960   -0.3089 H   0  0  0  0  0  0  0  0  0  0  0  0
    0.7090    3.1814   -0.6568 H   0  0  0  0  0  0  0  0  0  0  0  0
    0.2258    3.3366    0.9463 H   0  0  0  0  0  0  0  0  0  0  0  0
    0.0002    1.3952   -0.0012 C   0  0  0  0  0  0  0  0  0  0  0  0
   -1.1992    0.6940    0.0013 C   0  0  0  0  0  0  0  0  0  0  0  0
   -2.0623    1.1869    0.0029 H   0  0  0  0  0  0  0  0  0  0  0  0
   -1.2020   -0.6916   -0.0000 C   0  0  0  0  0  0  0  0  0  0  0  0
   -2.0769   -1.1898    0.0010 H   0  0  0  0  0  0  0  0  0  0  0  0
    0.0026   -1.3897   -0.0002 C   0  0  0  0  0  0  0  0  0  0  0  0
   -0.0053   -2.3889   -0.0011 H   0  0  0  0  0  0  0  0  0  0  0  0
    1.2020   -0.6967    0.0000 C   0  0  0  0  0  0  0  0  0  0  0  0
    2.0826   -1.1958    0.0015 H   0  0  0  0  0  0  0  0  0  0  0  0
    1.1964    0.6888    0.0001 C   0  0  0  0  0  0  0  0  0  0  0  0
    2.0643    1.1876    0.0003 H   0  0  0  0  0  0  0  0  0  0  0  0
  1  5  1  0
  5  8  1  0
  1  2  1  0
  1  3  1  0
  1  4  1  0
  5  6  1  0
  5  7  1  0
  8  9  1  0
  8 10  1  0
  8 11  1  0
 12 16  1  0
 16 17  2  0
 17 19  1  0
 19 21  2  0
 21 23  1  0
 23 25  2  0
 25 16  1  0
 12 13  1  0
 12 14  1  0
 12 15  1  0
 17 18  1  0
 19 20  1  0
 21 22  1  0
 23 24  1  0
 25 26  1  0
M  CHG  1   8   1
M  END
>  <PDB_ID>  (1481) 
pdb1y23

>  <RESIDUE_NAME>  (1481) 
LYS   PHE

>  <FRAG_NAME>  (1481) 
ETAM   MBZ

>  <FRAG_ATOM_NUM>  (1481) 
fragi: 11  fragj: 15

>  <atom.prop.CHAIN_ID>  (1481) 
A A A A A A A A A A A Z Z Z Z Z Z Z Z Z Z Z Z Z Z Z

>  <atom.prop.IS_HEAVY_ATOM>  (1481) 
1 0 0 0 1 0 0 1 0 0 0 1 0 0 0 1 1 0 1 0 1 0 1 0 1 0

>  <DIFUSE_FUNC_ATOM>  (1481) 
n/a

>  <FINAL_SINGLE_POINT_ENERGY>  (1481) 
0

>  <NONCOV_INTER_ENERGY_QM>  (1481) 
0

>  <FF_Energy>  (1481) 
13.43

>  <QM_Energy>  (1481) 
1.66

>  <source>  (1481) 
ETAM_MBZ

>  <Index>  (1481) 
14872

$$$$
ETAM-pdb1y13-B-LYS-68:MBZ-pdb1y13-B-PHE-23
     RDKit          3D

 26 25  0  0  0  0  0  0  0  0999 V2000
   -0.9612   -5.7366    0.2598 C   0  0  0  0  0  0  0  0  0  0  0  0
   -1.1450   -6.6722    0.5400 H   0  0  0  0  0  0  0  0  0  0  0  0
   -1.7969   -5.2944   -0.0452 H   0  0  0  0  0  0  0  0  0  0  0  0
   -0.5581   -5.1855    1.1095 H   0  0  0  0  0  0  0  0  0  0  0  0
    0.0232   -5.7699   -0.9146 C   0  0  0  0  0  0  0  0  0  0  0  0
    0.8696   -6.2316   -0.6128 H   0  0  0  0  0  0  0  0  0  0  0  0
   -0.3806   -6.3222   -1.6576 H   0  0  0  0  0  0  0  0  0  0  0  0
    0.3760   -4.4150   -1.4547 N   0  0  0  0  0  4  0  0  0  0  0  0
    0.0647   -4.3509   -2.3999 H   0  0  0  0  0  0  0  0  0  0  0  0
   -0.0732   -3.7167   -0.9015 H   0  0  0  0  0  0  0  0  0  0  0  0
    1.3659   -4.2957   -1.4139 H   0  0  0  0  0  0  0  0  0  0  0  0
    0.0179    2.9390    0.0266 C   0  0  0  0  0  0  0  0  0  0  0  0
    0.7993    3.2442   -0.4992 H   0  0  0  0  0  0  0  0  0  0  0  0
    0.0946    3.2153    0.9738 H   0  0  0  0  0  0  0  0  0  0  0  0
   -0.8695    3.4167   -0.3886 H   0  0  0  0  0  0  0  0  0  0  0  0
    0.0003    1.4200   -0.0119 C   0  0  0  0  0  0  0  0  0  0  0  0
   -1.2009    0.7002    0.0107 C   0  0  0  0  0  0  0  0  0  0  0  0
   -2.0684    1.1847    0.0333 H   0  0  0  0  0  0  0  0  0  0  0  0
   -1.2087   -0.7094    0.0000 C   0  0  0  0  0  0  0  0  0  0  0  0
   -2.0851   -1.1936   -0.0064 H   0  0  0  0  0  0  0  0  0  0  0  0
   -0.0030   -1.4118    0.0004 C   0  0  0  0  0  0  0  0  0  0  0  0
   -0.0011   -2.4034    0.0008 H   0  0  0  0  0  0  0  0  0  0  0  0
    1.2087   -0.7016   -0.0000 C   0  0  0  0  0  0  0  0  0  0  0  0
    2.0877   -1.1967    0.0003 H   0  0  0  0  0  0  0  0  0  0  0  0
    1.2036    0.7027    0.0007 C   0  0  0  0  0  0  0  0  0  0  0  0
    2.0711    1.1960    0.0098 H   0  0  0  0  0  0  0  0  0  0  0  0
  1  5  1  0
  5  8  1  0
  1  2  1  0
  1  3  1  0
  1  4  1  0
  5  6  1  0
  5  7  1  0
  8  9  1  0
  8 10  1  0
  8 11  1  0
 12 16  1  0
 16 17  2  0
 17 19  1  0
 19 21  2  0
 21 23  1  0
 23 25  2  0
 25 16  1  0
 12 13  1  0
 12 14  1  0
 12 15  1  0
 17 18  1  0
 19 20  1  0
 21 22  1  0
 23 24  1  0
 25 26  1  0
M  CHG  1   8   1
M  END
>  <PDB_ID>  (1482) 
pdb1y13

>  <RESIDUE_NAME>  (1482) 
LYS   PHE

>  <FRAG_NAME>  (1482) 
ETAM   MBZ

>  <FRAG_ATOM_NUM>  (1482) 
fragi: 11  fragj: 15

>  <atom.prop.CHAIN_ID>  (1482) 
A A A A A A A A A A A Z Z Z Z Z Z Z Z Z Z Z Z Z Z Z

>  <atom.prop.IS_HEAVY_ATOM>  (1482) 
1 0 0 0 1 0 0 1 0 0 0 1 0 0 0 1 1 0 1 0 1 0 1 0 1 0

>  <DIFUSE_FUNC_ATOM>  (1482) 
n/a

>  <FINAL_SINGLE_POINT_ENERGY>  (1482) 
0

>  <NONCOV_INTER_ENERGY_QM>  (1482) 
0

>  <FF_Energy>  (1482) 
2.08

>  <QM_Energy>  (1482) 
-3.22

>  <source>  (1482) 
ETAM_MBZ

>  <Index>  (1482) 
14883

$$$$
ETAM-pdb3bwn-A-LYS-293:MBZ-pdb3bwn-A-PHE-373
     RDKit          3D

 26 25  0  0  0  0  0  0  0  0999 V2000
    5.3740   -2.6052    0.7489 C   0  0  0  0  0  0  0  0  0  0  0  0
    5.1508   -2.2235    1.6413 H   0  0  0  0  0  0  0  0  0  0  0  0
    6.3504   -2.5232    0.5740 H   0  0  0  0  0  0  0  0  0  0  0  0
    5.0965   -3.6592    0.7329 H   0  0  0  0  0  0  0  0  0  0  0  0
    4.6262   -1.7882   -0.3210 C   0  0  0  0  0  0  0  0  0  0  0  0
    4.9901   -2.0365   -1.2298 H   0  0  0  0  0  0  0  0  0  0  0  0
    3.6492   -2.0445   -0.2994 H   0  0  0  0  0  0  0  0  0  0  0  0
    4.7315   -0.2823   -0.1559 N   0  0  0  0  0  4  0  0  0  0  0  0
    4.0282    0.1470   -0.7122 H   0  0  0  0  0  0  0  0  0  0  0  0
    4.5980   -0.0590    0.8041 H   0  0  0  0  0  0  0  0  0  0  0  0
    5.6349    0.0071   -0.4558 H   0  0  0  0  0  0  0  0  0  0  0  0
    0.0096    2.9190    0.0421 C   0  0  0  0  0  0  0  0  0  0  0  0
   -0.5359    3.2477   -0.7085 H   0  0  0  0  0  0  0  0  0  0  0  0
    0.9437    3.2224   -0.0161 H   0  0  0  0  0  0  0  0  0  0  0  0
   -0.4143    3.3194    0.9630 H   0  0  0  0  0  0  0  0  0  0  0  0
    0.0059    1.4077   -0.0042 C   0  0  0  0  0  0  0  0  0  0  0  0
   -1.2010    0.7015   -0.0006 C   0  0  0  0  0  0  0  0  0  0  0  0
   -2.0637    1.1894    0.0004 H   0  0  0  0  0  0  0  0  0  0  0  0
   -1.2084   -0.7048   -0.0000 C   0  0  0  0  0  0  0  0  0  0  0  0
   -2.0858   -1.1900    0.0023 H   0  0  0  0  0  0  0  0  0  0  0  0
   -0.0049   -1.4063   -0.0004 C   0  0  0  0  0  0  0  0  0  0  0  0
    0.0005   -2.3973   -0.0015 H   0  0  0  0  0  0  0  0  0  0  0  0
    1.2084   -0.6926   -0.0000 C   0  0  0  0  0  0  0  0  0  0  0  0
    2.0857   -1.1945   -0.0019 H   0  0  0  0  0  0  0  0  0  0  0  0
    1.2000    0.6945    0.0052 C   0  0  0  0  0  0  0  0  0  0  0  0
    2.0700    1.1938    0.0155 H   0  0  0  0  0  0  0  0  0  0  0  0
  1  5  1  0
  5  8  1  0
  1  2  1  0
  1  3  1  0
  1  4  1  0
  5  6  1  0
  5  7  1  0
  8  9  1  0
  8 10  1  0
  8 11  1  0
 12 16  1  0
 16 17  2  0
 17 19  1  0
 19 21  2  0
 21 23  1  0
 23 25  2  0
 25 16  1  0
 12 13  1  0
 12 14  1  0
 12 15  1  0
 17 18  1  0
 19 20  1  0
 21 22  1  0
 23 24  1  0
 25 26  1  0
M  CHG  1   8   1
M  END
>  <PDB_ID>  (1483) 
pdb3bwn

>  <RESIDUE_NAME>  (1483) 
LYS   PHE

>  <FRAG_NAME>  (1483) 
ETAM   MBZ

>  <FRAG_ATOM_NUM>  (1483) 
fragi: 11  fragj: 15

>  <atom.prop.CHAIN_ID>  (1483) 
A A A A A A A A A A A Z Z Z Z Z Z Z Z Z Z Z Z Z Z Z

>  <atom.prop.IS_HEAVY_ATOM>  (1483) 
1 0 0 0 1 0 0 1 0 0 0 1 0 0 0 1 1 0 1 0 1 0 1 0 1 0

>  <DIFUSE_FUNC_ATOM>  (1483) 
n/a

>  <FINAL_SINGLE_POINT_ENERGY>  (1483) 
0

>  <NONCOV_INTER_ENERGY_QM>  (1483) 
0

>  <FF_Energy>  (1483) 
4.84

>  <QM_Energy>  (1483) 
-2.72

>  <source>  (1483) 
ETAM_MBZ

>  <Index>  (1483) 
14900

$$$$
ETAM-pdb3bxo-B-LYS-19:MBZ-pdb3bxo-B-PHE-106
     RDKit          3D

 26 25  0  0  0  0  0  0  0  0999 V2000
    1.0254   -1.8120   -3.8196 C   0  0  0  0  0  0  0  0  0  0  0  0
    0.5781   -2.4353   -3.1932 H   0  0  0  0  0  0  0  0  0  0  0  0
    2.0102   -1.8679   -3.7361 H   0  0  0  0  0  0  0  0  0  0  0  0
    0.7475   -2.0865   -4.8373 H   0  0  0  0  0  0  0  0  0  0  0  0
    0.5854   -0.3800   -3.4849 C   0  0  0  0  0  0  0  0  0  0  0  0
    0.8601   -0.1767   -2.5188 H   0  0  0  0  0  0  0  0  0  0  0  0
    1.1267    0.2676   -4.0671 H   0  0  0  0  0  0  0  0  0  0  0  0
   -0.8758   -0.0469   -3.6408 N   0  0  0  0  0  4  0  0  0  0  0  0
   -1.1864    0.4308   -2.8229 H   0  0  0  0  0  0  0  0  0  0  0  0
   -0.9894    0.5352   -4.4416 H   0  0  0  0  0  0  0  0  0  0  0  0
   -1.3885   -0.8928   -3.7580 H   0  0  0  0  0  0  0  0  0  0  0  0
    0.0068    2.9129   -0.0142 C   0  0  0  0  0  0  0  0  0  0  0  0
    0.2598    3.2070   -0.9274 H   0  0  0  0  0  0  0  0  0  0  0  0
    0.6768    3.2172    0.6518 H   0  0  0  0  0  0  0  0  0  0  0  0
   -0.9460    3.3802    0.2346 H   0  0  0  0  0  0  0  0  0  0  0  0
   -0.0073    1.4076   -0.0006 C   0  0  0  0  0  0  0  0  0  0  0  0
   -1.1832    0.6912   -0.0127 C   0  0  0  0  0  0  0  0  0  0  0  0
   -2.0636    1.1719   -0.0323 H   0  0  0  0  0  0  0  0  0  0  0  0
   -1.1933   -0.7083    0.0000 C   0  0  0  0  0  0  0  0  0  0  0  0
   -2.0685   -1.1964    0.0125 H   0  0  0  0  0  0  0  0  0  0  0  0
    0.0120   -1.4097   -0.0032 C   0  0  0  0  0  0  0  0  0  0  0  0
    0.0126   -2.3988   -0.0076 H   0  0  0  0  0  0  0  0  0  0  0  0
    1.1933   -0.6899   -0.0000 C   0  0  0  0  0  0  0  0  0  0  0  0
    2.0889   -1.1716   -0.0082 H   0  0  0  0  0  0  0  0  0  0  0  0
    1.1784    0.7090    0.0165 C   0  0  0  0  0  0  0  0  0  0  0  0
    2.0520    1.2020    0.0405 H   0  0  0  0  0  0  0  0  0  0  0  0
  1  5  1  0
  5  8  1  0
  1  2  1  0
  1  3  1  0
  1  4  1  0
  5  6  1  0
  5  7  1  0
  8  9  1  0
  8 10  1  0
  8 11  1  0
 12 16  1  0
 16 17  2  0
 17 19  1  0
 19 21  2  0
 21 23  1  0
 23 25  2  0
 25 16  1  0
 12 13  1  0
 12 14  1  0
 12 15  1  0
 17 18  1  0
 19 20  1  0
 21 22  1  0
 23 24  1  0
 25 26  1  0
M  CHG  1   8   1
M  END
>  <PDB_ID>  (1484) 
pdb3bxo

>  <RESIDUE_NAME>  (1484) 
LYS   PHE

>  <FRAG_NAME>  (1484) 
ETAM   MBZ

>  <FRAG_ATOM_NUM>  (1484) 
fragi: 11  fragj: 15

>  <atom.prop.CHAIN_ID>  (1484) 
A A A A A A A A A A A Z Z Z Z Z Z Z Z Z Z Z Z Z Z Z

>  <atom.prop.IS_HEAVY_ATOM>  (1484) 
1 0 0 0 1 0 0 1 0 0 0 1 0 0 0 1 1 0 1 0 1 0 1 0 1 0

>  <DIFUSE_FUNC_ATOM>  (1484) 
n/a

>  <FINAL_SINGLE_POINT_ENERGY>  (1484) 
0

>  <NONCOV_INTER_ENERGY_QM>  (1484) 
0

>  <FF_Energy>  (1484) 
-6.95

>  <QM_Energy>  (1484) 
-13.51

>  <source>  (1484) 
ETAM_MBZ

>  <Index>  (1484) 
14902

$$$$
ETAM-pdb3by4-A-LYS-131:MBZ-pdb3by4-A-PHE-231
     RDKit          3D

 26 25  0  0  0  0  0  0  0  0999 V2000
   -2.7135   -0.7647    5.4050 C   0  0  0  0  0  0  0  0  0  0  0  0
   -3.5665   -0.5263    4.9489 H   0  0  0  0  0  0  0  0  0  0  0  0
   -2.7822   -0.5814    6.3813 H   0  0  0  0  0  0  0  0  0  0  0  0
   -2.5121   -1.8252    5.2532 H   0  0  0  0  0  0  0  0  0  0  0  0
   -1.6036    0.0951    4.8309 C   0  0  0  0  0  0  0  0  0  0  0  0
   -1.7739    1.0525    5.0734 H   0  0  0  0  0  0  0  0  0  0  0  0
   -0.7288   -0.1934    5.2262 H   0  0  0  0  0  0  0  0  0  0  0  0
   -1.5360   -0.0305    3.3512 N   0  0  0  0  0  4  0  0  0  0  0  0
   -1.4230   -0.9926    3.1036 H   0  0  0  0  0  0  0  0  0  0  0  0
   -2.3816    0.3201    2.9487 H   0  0  0  0  0  0  0  0  0  0  0  0
   -0.7587    0.4962    3.0084 H   0  0  0  0  0  0  0  0  0  0  0  0
   -0.0019    2.8985   -0.0018 C   0  0  0  0  0  0  0  0  0  0  0  0
   -0.6713    3.2020   -0.6621 H   0  0  0  0  0  0  0  0  0  0  0  0
    0.9061    3.2046   -0.2413 H   0  0  0  0  0  0  0  0  0  0  0  0
   -0.2595    3.3375    0.9620 H   0  0  0  0  0  0  0  0  0  0  0  0
    0.0007    1.3936   -0.0006 C   0  0  0  0  0  0  0  0  0  0  0  0
   -1.1915    0.6859    0.0014 C   0  0  0  0  0  0  0  0  0  0  0  0
   -2.0600    1.1804    0.0026 H   0  0  0  0  0  0  0  0  0  0  0  0
   -1.1955   -0.6925    0.0000 C   0  0  0  0  0  0  0  0  0  0  0  0
   -2.0740   -1.1898   -0.0001 H   0  0  0  0  0  0  0  0  0  0  0  0
   -0.0015   -1.3844   -0.0003 C   0  0  0  0  0  0  0  0  0  0  0  0
   -0.0045   -2.3854   -0.0010 H   0  0  0  0  0  0  0  0  0  0  0  0
    1.1955   -0.6919   -0.0000 C   0  0  0  0  0  0  0  0  0  0  0  0
    2.0773   -1.1934    0.0019 H   0  0  0  0  0  0  0  0  0  0  0  0
    1.1922    0.6892   -0.0006 C   0  0  0  0  0  0  0  0  0  0  0  0
    2.0615    1.1876   -0.0021 H   0  0  0  0  0  0  0  0  0  0  0  0
  1  5  1  0
  5  8  1  0
  1  2  1  0
  1  3  1  0
  1  4  1  0
  5  6  1  0
  5  7  1  0
  8  9  1  0
  8 10  1  0
  8 11  1  0
 12 16  1  0
 16 17  2  0
 17 19  1  0
 19 21  2  0
 21 23  1  0
 23 25  2  0
 25 16  1  0
 12 13  1  0
 12 14  1  0
 12 15  1  0
 17 18  1  0
 19 20  1  0
 21 22  1  0
 23 24  1  0
 25 26  1  0
M  CHG  1   8   1
M  END
>  <PDB_ID>  (1485) 
pdb3by4

>  <RESIDUE_NAME>  (1485) 
LYS   PHE

>  <FRAG_NAME>  (1485) 
ETAM   MBZ

>  <FRAG_ATOM_NUM>  (1485) 
fragi: 11  fragj: 15

>  <atom.prop.CHAIN_ID>  (1485) 
A A A A A A A A A A A Z Z Z Z Z Z Z Z Z Z Z Z Z Z Z

>  <atom.prop.IS_HEAVY_ATOM>  (1485) 
1 0 0 0 1 0 0 1 0 0 0 1 0 0 0 1 1 0 1 0 1 0 1 0 1 0

>  <DIFUSE_FUNC_ATOM>  (1485) 
n/a

>  <FINAL_SINGLE_POINT_ENERGY>  (1485) 
0

>  <NONCOV_INTER_ENERGY_QM>  (1485) 
0

>  <FF_Energy>  (1485) 
-5.97

>  <QM_Energy>  (1485) 
-11.38

>  <source>  (1485) 
ETAM_MBZ

>  <Index>  (1485) 
14907

$$$$
ETAM-pdb3by8-A-LYS-121:MBZ-pdb3by8-A-PHE-141
     RDKit          3D

 26 25  0  0  0  0  0  0  0  0999 V2000
    0.9141   -1.1675   -3.9579 C   0  0  0  0  0  0  0  0  0  0  0  0
    1.0375   -0.2864   -3.5031 H   0  0  0  0  0  0  0  0  0  0  0  0
    0.3479   -1.0497   -4.7716 H   0  0  0  0  0  0  0  0  0  0  0  0
    1.8908   -1.5447   -4.2613 H   0  0  0  0  0  0  0  0  0  0  0  0
    0.2162   -2.1099   -3.0118 C   0  0  0  0  0  0  0  0  0  0  0  0
    0.1744   -3.0188   -3.4163 H   0  0  0  0  0  0  0  0  0  0  0  0
    0.7104   -2.1419   -2.1478 H   0  0  0  0  0  0  0  0  0  0  0  0
   -1.1785   -1.6296   -2.7544 N   0  0  0  0  0  4  0  0  0  0  0  0
   -1.7489   -1.8427   -3.5454 H   0  0  0  0  0  0  0  0  0  0  0  0
   -1.5386   -2.0890   -1.9441 H   0  0  0  0  0  0  0  0  0  0  0  0
   -1.1622   -0.6430   -2.6051 H   0  0  0  0  0  0  0  0  0  0  0  0
   -0.0161    2.8739   -0.1362 C   0  0  0  0  0  0  0  0  0  0  0  0
    0.8617    3.2287    0.1389 H   0  0  0  0  0  0  0  0  0  0  0  0
   -0.7467    3.2350    0.4191 H   0  0  0  0  0  0  0  0  0  0  0  0
   -0.1940    3.1950   -1.1626 H   0  0  0  0  0  0  0  0  0  0  0  0
    0.0016    1.4040   -0.0022 C   0  0  0  0  0  0  0  0  0  0  0  0
   -1.1970    0.6918    0.0025 C   0  0  0  0  0  0  0  0  0  0  0  0
   -2.0633    1.1846    0.0060 H   0  0  0  0  0  0  0  0  0  0  0  0
   -1.2045   -0.6978    0.0000 C   0  0  0  0  0  0  0  0  0  0  0  0
   -2.0818   -1.1910    0.0010 H   0  0  0  0  0  0  0  0  0  0  0  0
   -0.0036   -1.3975   -0.0022 C   0  0  0  0  0  0  0  0  0  0  0  0
   -0.0058   -2.3945   -0.0057 H   0  0  0  0  0  0  0  0  0  0  0  0
    1.2045   -0.6986   -0.0000 C   0  0  0  0  0  0  0  0  0  0  0  0
    2.0830   -1.1961    0.0017 H   0  0  0  0  0  0  0  0  0  0  0  0
    1.1990    0.6981    0.0018 C   0  0  0  0  0  0  0  0  0  0  0  0
    2.0671    1.1918    0.0051 H   0  0  0  0  0  0  0  0  0  0  0  0
  1  5  1  0
  5  8  1  0
  1  2  1  0
  1  3  1  0
  1  4  1  0
  5  6  1  0
  5  7  1  0
  8  9  1  0
  8 10  1  0
  8 11  1  0
 12 16  1  0
 16 17  2  0
 17 19  1  0
 19 21  2  0
 21 23  1  0
 23 25  2  0
 25 16  1  0
 12 13  1  0
 12 14  1  0
 12 15  1  0
 17 18  1  0
 19 20  1  0
 21 22  1  0
 23 24  1  0
 25 26  1  0
M  CHG  1   8   1
M  END
>  <PDB_ID>  (1486) 
pdb3by8

>  <RESIDUE_NAME>  (1486) 
LYS   PHE

>  <FRAG_NAME>  (1486) 
ETAM   MBZ

>  <FRAG_ATOM_NUM>  (1486) 
fragi: 11  fragj: 15

>  <atom.prop.CHAIN_ID>  (1486) 
A A A A A A A A A A A Z Z Z Z Z Z Z Z Z Z Z Z Z Z Z

>  <atom.prop.IS_HEAVY_ATOM>  (1486) 
1 0 0 0 1 0 0 1 0 0 0 1 0 0 0 1 1 0 1 0 1 0 1 0 1 0

>  <DIFUSE_FUNC_ATOM>  (1486) 
n/a

>  <FINAL_SINGLE_POINT_ENERGY>  (1486) 
0

>  <NONCOV_INTER_ENERGY_QM>  (1486) 
0

>  <FF_Energy>  (1486) 
0.12

>  <QM_Energy>  (1486) 
-10.39

>  <source>  (1486) 
ETAM_MBZ

>  <Index>  (1486) 
14911

$$$$
ETAM-pdb1xxx-E-LYS-261:MBZ-pdb1xxx-E-PHE-23
     RDKit          3D

 26 25  0  0  0  0  0  0  0  0999 V2000
   -4.9032    1.2403    3.8092 C   0  0  0  0  0  0  0  0  0  0  0  0
   -5.3762    0.7460    3.1029 H   0  0  0  0  0  0  0  0  0  0  0  0
   -4.8112    2.1962    3.5983 H   0  0  0  0  0  0  0  0  0  0  0  0
   -5.4611    1.1391    4.7401 H   0  0  0  0  0  0  0  0  0  0  0  0
   -3.4933    0.6351    3.9726 C   0  0  0  0  0  0  0  0  0  0  0  0
   -3.0067    1.1613    4.6734 H   0  0  0  0  0  0  0  0  0  0  0  0
   -3.5936   -0.3124    4.2869 H   0  0  0  0  0  0  0  0  0  0  0  0
   -2.7301    0.6631    2.7049 N   0  0  0  0  0  4  0  0  0  0  0  0
   -1.9560    1.2921    2.7930 H   0  0  0  0  0  0  0  0  0  0  0  0
   -2.3897   -0.2546    2.4981 H   0  0  0  0  0  0  0  0  0  0  0  0
   -3.3250    0.9716    1.9614 H   0  0  0  0  0  0  0  0  0  0  0  0
    0.0016    2.9094    0.0076 C   0  0  0  0  0  0  0  0  0  0  0  0
   -0.9293    3.2136    0.1534 H   0  0  0  0  0  0  0  0  0  0  0  0
    0.3426    3.2162   -0.8704 H   0  0  0  0  0  0  0  0  0  0  0  0
    0.6255    3.3521    0.7840 H   0  0  0  0  0  0  0  0  0  0  0  0
    0.0018    1.4058    0.0032 C   0  0  0  0  0  0  0  0  0  0  0  0
   -1.2074    0.7004   -0.0071 C   0  0  0  0  0  0  0  0  0  0  0  0
   -2.0673    1.1934   -0.0206 H   0  0  0  0  0  0  0  0  0  0  0  0
   -1.2141   -0.6956    0.0000 C   0  0  0  0  0  0  0  0  0  0  0  0
   -2.0828   -1.1938   -0.0008 H   0  0  0  0  0  0  0  0  0  0  0  0
    0.0078   -1.4075    0.0103 C   0  0  0  0  0  0  0  0  0  0  0  0
    0.0010   -2.3952    0.0239 H   0  0  0  0  0  0  0  0  0  0  0  0
    1.2141   -0.6949   -0.0000 C   0  0  0  0  0  0  0  0  0  0  0  0
    2.0942   -1.1911   -0.0016 H   0  0  0  0  0  0  0  0  0  0  0  0
    1.1978    0.6918   -0.0064 C   0  0  0  0  0  0  0  0  0  0  0  0
    2.0677    1.1950   -0.0192 H   0  0  0  0  0  0  0  0  0  0  0  0
  1  5  1  0
  5  8  1  0
  1  2  1  0
  1  3  1  0
  1  4  1  0
  5  6  1  0
  5  7  1  0
  8  9  1  0
  8 10  1  0
  8 11  1  0
 12 16  1  0
 16 17  2  0
 17 19  1  0
 19 21  2  0
 21 23  1  0
 23 25  2  0
 25 16  1  0
 12 13  1  0
 12 14  1  0
 12 15  1  0
 17 18  1  0
 19 20  1  0
 21 22  1  0
 23 24  1  0
 25 26  1  0
M  CHG  1   8   1
M  END
>  <PDB_ID>  (1487) 
pdb1xxx

>  <RESIDUE_NAME>  (1487) 
LYS   PHE

>  <FRAG_NAME>  (1487) 
ETAM   MBZ

>  <FRAG_ATOM_NUM>  (1487) 
fragi: 11  fragj: 15

>  <atom.prop.CHAIN_ID>  (1487) 
A A A A A A A A A A A Z Z Z Z Z Z Z Z Z Z Z Z Z Z Z

>  <atom.prop.IS_HEAVY_ATOM>  (1487) 
1 0 0 0 1 0 0 1 0 0 0 1 0 0 0 1 1 0 1 0 1 0 1 0 1 0

>  <DIFUSE_FUNC_ATOM>  (1487) 
n/a

>  <FINAL_SINGLE_POINT_ENERGY>  (1487) 
0

>  <NONCOV_INTER_ENERGY_QM>  (1487) 
0

>  <FF_Energy>  (1487) 
-2.93

>  <QM_Energy>  (1487) 
-9.16

>  <source>  (1487) 
ETAM_MBZ

>  <Index>  (1487) 
14917

$$$$
ETAM-pdb1y67-B-LYS-119:MBZ-pdb1y67-B-PHE-115
     RDKit          3D

 26 25  0  0  0  0  0  0  0  0999 V2000
    1.7705   -1.1360    3.6178 C   0  0  0  0  0  0  0  0  0  0  0  0
    1.8231   -0.2957    3.0790 H   0  0  0  0  0  0  0  0  0  0  0  0
    2.3597   -1.0579    4.4209 H   0  0  0  0  0  0  0  0  0  0  0  0
    0.7414   -1.2778    3.9481 H   0  0  0  0  0  0  0  0  0  0  0  0
    2.2555   -2.2851    2.7717 C   0  0  0  0  0  0  0  0  0  0  0  0
    2.2889   -3.1108    3.3215 H   0  0  0  0  0  0  0  0  0  0  0  0
    1.6474   -2.4055    1.9961 H   0  0  0  0  0  0  0  0  0  0  0  0
    3.6251   -1.9731    2.2753 N   0  0  0  0  0  4  0  0  0  0  0  0
    3.5986   -1.8566    1.2830 H   0  0  0  0  0  0  0  0  0  0  0  0
    3.9480   -1.1300    2.7034 H   0  0  0  0  0  0  0  0  0  0  0  0
    4.2409   -2.7245    2.5089 H   0  0  0  0  0  0  0  0  0  0  0  0
    0.0009    2.9011    0.0058 C   0  0  0  0  0  0  0  0  0  0  0  0
   -0.5163    3.2118   -0.7768 H   0  0  0  0  0  0  0  0  0  0  0  0
    0.9389    3.2099   -0.0374 H   0  0  0  0  0  0  0  0  0  0  0  0
   -0.4511    3.3367    0.8970 H   0  0  0  0  0  0  0  0  0  0  0  0
    0.0019    1.4020    0.0006 C   0  0  0  0  0  0  0  0  0  0  0  0
   -1.1980    0.6915   -0.0015 C   0  0  0  0  0  0  0  0  0  0  0  0
   -2.0631    1.1849   -0.0049 H   0  0  0  0  0  0  0  0  0  0  0  0
   -1.2045   -0.6958    0.0000 C   0  0  0  0  0  0  0  0  0  0  0  0
   -2.0817   -1.1901    0.0045 H   0  0  0  0  0  0  0  0  0  0  0  0
   -0.0043   -1.3963   -0.0023 C   0  0  0  0  0  0  0  0  0  0  0  0
   -0.0076   -2.3930   -0.0060 H   0  0  0  0  0  0  0  0  0  0  0  0
    1.2045   -0.6977   -0.0000 C   0  0  0  0  0  0  0  0  0  0  0  0
    2.0822   -1.1964    0.0004 H   0  0  0  0  0  0  0  0  0  0  0  0
    1.2004    0.6963    0.0032 C   0  0  0  0  0  0  0  0  0  0  0  0
    2.0675    1.1914    0.0066 H   0  0  0  0  0  0  0  0  0  0  0  0
  1  5  1  0
  5  8  1  0
  1  2  1  0
  1  3  1  0
  1  4  1  0
  5  6  1  0
  5  7  1  0
  8  9  1  0
  8 10  1  0
  8 11  1  0
 12 16  1  0
 16 17  2  0
 17 19  1  0
 19 21  2  0
 21 23  1  0
 23 25  2  0
 25 16  1  0
 12 13  1  0
 12 14  1  0
 12 15  1  0
 17 18  1  0
 19 20  1  0
 21 22  1  0
 23 24  1  0
 25 26  1  0
M  CHG  1   8   1
M  END
>  <PDB_ID>  (1488) 
pdb1y67

>  <RESIDUE_NAME>  (1488) 
LYS   PHE

>  <FRAG_NAME>  (1488) 
ETAM   MBZ

>  <FRAG_ATOM_NUM>  (1488) 
fragi: 11  fragj: 15

>  <atom.prop.CHAIN_ID>  (1488) 
A A A A A A A A A A A Z Z Z Z Z Z Z Z Z Z Z Z Z Z Z

>  <atom.prop.IS_HEAVY_ATOM>  (1488) 
1 0 0 0 1 0 0 1 0 0 0 1 0 0 0 1 1 0 1 0 1 0 1 0 1 0

>  <DIFUSE_FUNC_ATOM>  (1488) 
n/a

>  <FINAL_SINGLE_POINT_ENERGY>  (1488) 
0

>  <NONCOV_INTER_ENERGY_QM>  (1488) 
0

>  <FF_Energy>  (1488) 
-0.59

>  <QM_Energy>  (1488) 
-6.48

>  <source>  (1488) 
ETAM_MBZ

>  <Index>  (1488) 
14925

$$$$
ETAM-pdb1y5y-A-LYS-71:MBZ-pdb1y5y-A-PHE-119
     RDKit          3D

 26 25  0  0  0  0  0  0  0  0999 V2000
    0.6799   -2.7900    2.5334 C   0  0  0  0  0  0  0  0  0  0  0  0
    0.2567   -2.4173    1.7085 H   0  0  0  0  0  0  0  0  0  0  0  0
    1.6732   -2.7780    2.4372 H   0  0  0  0  0  0  0  0  0  0  0  0
    0.4053   -2.1588    3.3786 H   0  0  0  0  0  0  0  0  0  0  0  0
    0.2219   -4.1995    2.7265 C   0  0  0  0  0  0  0  0  0  0  0  0
   -0.7560   -4.2149    2.9067 H   0  0  0  0  0  0  0  0  0  0  0  0
    0.4317   -4.7364    1.9155 H   0  0  0  0  0  0  0  0  0  0  0  0
    0.9379   -4.7872    3.8931 N   0  0  0  0  0  4  0  0  0  0  0  0
    1.0222   -4.0973    4.6109 H   0  0  0  0  0  0  0  0  0  0  0  0
    0.4212   -5.5696    4.2381 H   0  0  0  0  0  0  0  0  0  0  0  0
    1.8479   -5.0859    3.6071 H   0  0  0  0  0  0  0  0  0  0  0  0
    0.0100    2.8922   -0.0894 C   0  0  0  0  0  0  0  0  0  0  0  0
   -0.4695    3.1558   -0.9169 H   0  0  0  0  0  0  0  0  0  0  0  0
    0.9547    3.1932   -0.1200 H   0  0  0  0  0  0  0  0  0  0  0  0
   -0.4717    3.3970    0.7480 H   0  0  0  0  0  0  0  0  0  0  0  0
   -0.0004    1.4000   -0.0011 C   0  0  0  0  0  0  0  0  0  0  0  0
   -1.1952    0.6973    0.0028 C   0  0  0  0  0  0  0  0  0  0  0  0
   -2.0620    1.1877    0.0068 H   0  0  0  0  0  0  0  0  0  0  0  0
   -1.2020   -0.6933    0.0000 C   0  0  0  0  0  0  0  0  0  0  0  0
   -2.0793   -1.1862    0.0023 H   0  0  0  0  0  0  0  0  0  0  0  0
   -0.0012   -1.3902   -0.0045 C   0  0  0  0  0  0  0  0  0  0  0  0
   -0.0081   -2.3899   -0.0115 H   0  0  0  0  0  0  0  0  0  0  0  0
    1.2020   -0.6996   -0.0000 C   0  0  0  0  0  0  0  0  0  0  0  0
    2.0803   -1.1999    0.0028 H   0  0  0  0  0  0  0  0  0  0  0  0
    1.1968    0.6857    0.0028 C   0  0  0  0  0  0  0  0  0  0  0  0
    2.0656    1.1856    0.0072 H   0  0  0  0  0  0  0  0  0  0  0  0
  1  5  1  0
  5  8  1  0
  1  2  1  0
  1  3  1  0
  1  4  1  0
  5  6  1  0
  5  7  1  0
  8  9  1  0
  8 10  1  0
  8 11  1  0
 12 16  1  0
 16 17  2  0
 17 19  1  0
 19 21  2  0
 21 23  1  0
 23 25  2  0
 25 16  1  0
 12 13  1  0
 12 14  1  0
 12 15  1  0
 17 18  1  0
 19 20  1  0
 21 22  1  0
 23 24  1  0
 25 26  1  0
M  CHG  1   8   1
M  END
>  <PDB_ID>  (1489) 
pdb1y5y

>  <RESIDUE_NAME>  (1489) 
LYS   PHE

>  <FRAG_NAME>  (1489) 
ETAM   MBZ

>  <FRAG_ATOM_NUM>  (1489) 
fragi: 11  fragj: 15

>  <atom.prop.CHAIN_ID>  (1489) 
A A A A A A A A A A A Z Z Z Z Z Z Z Z Z Z Z Z Z Z Z

>  <atom.prop.IS_HEAVY_ATOM>  (1489) 
1 0 0 0 1 0 0 1 0 0 0 1 0 0 0 1 1 0 1 0 1 0 1 0 1 0

>  <DIFUSE_FUNC_ATOM>  (1489) 
n/a

>  <FINAL_SINGLE_POINT_ENERGY>  (1489) 
0

>  <NONCOV_INTER_ENERGY_QM>  (1489) 
0

>  <FF_Energy>  (1489) 
21.78

>  <QM_Energy>  (1489) 
1.84

>  <source>  (1489) 
ETAM_MBZ

>  <Index>  (1489) 
14926

$$$$
ETAM-pdb1xxx-F-LYS-261:MBZ-pdb1xxx-F-PHE-23
     RDKit          3D

 26 25  0  0  0  0  0  0  0  0999 V2000
   -4.7184    1.3573    3.9542 C   0  0  0  0  0  0  0  0  0  0  0  0
   -5.2098    0.8920    3.2289 H   0  0  0  0  0  0  0  0  0  0  0  0
   -4.6122    2.3218    3.7450 H   0  0  0  0  0  0  0  0  0  0  0  0
   -5.2691    1.2491    4.8887 H   0  0  0  0  0  0  0  0  0  0  0  0
   -3.3388    0.7363    4.0769 C   0  0  0  0  0  0  0  0  0  0  0  0
   -2.7747    1.2868    4.6861 H   0  0  0  0  0  0  0  0  0  0  0  0
   -3.4175   -0.1921    4.4309 H   0  0  0  0  0  0  0  0  0  0  0  0
   -2.6421    0.6677    2.7153 N   0  0  0  0  0  4  0  0  0  0  0  0
   -3.3314    0.4921    2.0229 H   0  0  0  0  0  0  0  0  0  0  0  0
   -2.1943    1.5381    2.5518 H   0  0  0  0  0  0  0  0  0  0  0  0
   -1.9771   -0.0691    2.7434 H   0  0  0  0  0  0  0  0  0  0  0  0
    0.0014    2.9256   -0.0232 C   0  0  0  0  0  0  0  0  0  0  0  0
   -0.9229    3.2303    0.1456 H   0  0  0  0  0  0  0  0  0  0  0  0
    0.3214    3.2171   -0.9113 H   0  0  0  0  0  0  0  0  0  0  0  0
    0.6458    3.3803    0.7292 H   0  0  0  0  0  0  0  0  0  0  0  0
    0.0008    1.4110   -0.0045 C   0  0  0  0  0  0  0  0  0  0  0  0
   -1.1992    0.7013   -0.0044 C   0  0  0  0  0  0  0  0  0  0  0  0
   -2.0661    1.1898   -0.0088 H   0  0  0  0  0  0  0  0  0  0  0  0
   -1.2077   -0.6996    0.0000 C   0  0  0  0  0  0  0  0  0  0  0  0
   -2.0848   -1.1874   -0.0035 H   0  0  0  0  0  0  0  0  0  0  0  0
   -0.0032   -1.4037    0.0110 C   0  0  0  0  0  0  0  0  0  0  0  0
   -0.0081   -2.3989    0.0258 H   0  0  0  0  0  0  0  0  0  0  0  0
    1.2077   -0.7039   -0.0000 C   0  0  0  0  0  0  0  0  0  0  0  0
    2.0850   -1.2006   -0.0049 H   0  0  0  0  0  0  0  0  0  0  0  0
    1.2016    0.6948   -0.0021 C   0  0  0  0  0  0  0  0  0  0  0  0
    2.0697    1.1897   -0.0022 H   0  0  0  0  0  0  0  0  0  0  0  0
  1  5  1  0
  5  8  1  0
  1  2  1  0
  1  3  1  0
  1  4  1  0
  5  6  1  0
  5  7  1  0
  8  9  1  0
  8 10  1  0
  8 11  1  0
 12 16  1  0
 16 17  2  0
 17 19  1  0
 19 21  2  0
 21 23  1  0
 23 25  2  0
 25 16  1  0
 12 13  1  0
 12 14  1  0
 12 15  1  0
 17 18  1  0
 19 20  1  0
 21 22  1  0
 23 24  1  0
 25 26  1  0
M  CHG  1   8   1
M  END
>  <PDB_ID>  (1490) 
pdb1xxx

>  <RESIDUE_NAME>  (1490) 
LYS   PHE

>  <FRAG_NAME>  (1490) 
ETAM   MBZ

>  <FRAG_ATOM_NUM>  (1490) 
fragi: 11  fragj: 15

>  <atom.prop.CHAIN_ID>  (1490) 
A A A A A A A A A A A Z Z Z Z Z Z Z Z Z Z Z Z Z Z Z

>  <atom.prop.IS_HEAVY_ATOM>  (1490) 
1 0 0 0 1 0 0 1 0 0 0 1 0 0 0 1 1 0 1 0 1 0 1 0 1 0

>  <DIFUSE_FUNC_ATOM>  (1490) 
n/a

>  <FINAL_SINGLE_POINT_ENERGY>  (1490) 
0

>  <NONCOV_INTER_ENERGY_QM>  (1490) 
0

>  <FF_Energy>  (1490) 
-2.94

>  <QM_Energy>  (1490) 
-8.97

>  <source>  (1490) 
ETAM_MBZ

>  <Index>  (1490) 
14950

$$$$
ETAM-pdb1y7b-B-LYS-93:MBZ-pdb1y7b-A-PHE-376
     RDKit          3D

 26 25  0  0  0  0  0  0  0  0999 V2000
   -0.1737   -0.0587   -3.6740 C   0  0  0  0  0  0  0  0  0  0  0  0
   -0.3709   -0.2592   -2.7253 H   0  0  0  0  0  0  0  0  0  0  0  0
   -0.4203   -0.8155   -4.2608 H   0  0  0  0  0  0  0  0  0  0  0  0
   -0.7633    0.8094   -3.9690 H   0  0  0  0  0  0  0  0  0  0  0  0
    1.3213    0.2174   -3.8225 C   0  0  0  0  0  0  0  0  0  0  0  0
    1.4914    0.6329   -4.7089 H   0  0  0  0  0  0  0  0  0  0  0  0
    1.6170    0.8251   -3.0929 H   0  0  0  0  0  0  0  0  0  0  0  0
    2.1086   -1.0728   -3.7303 N   0  0  0  0  0  4  0  0  0  0  0  0
    1.5020   -1.8321   -3.9456 H   0  0  0  0  0  0  0  0  0  0  0  0
    2.8593   -1.0349   -4.3826 H   0  0  0  0  0  0  0  0  0  0  0  0
    2.4612   -1.1655   -2.8037 H   0  0  0  0  0  0  0  0  0  0  0  0
   -0.0032    2.9031    0.0346 C   0  0  0  0  0  0  0  0  0  0  0  0
   -0.7581    3.2393   -0.4866 H   0  0  0  0  0  0  0  0  0  0  0  0
    0.8618    3.2367   -0.2733 H   0  0  0  0  0  0  0  0  0  0  0  0
   -0.1379    3.2482    1.0597 H   0  0  0  0  0  0  0  0  0  0  0  0
    0.0042    1.4094   -0.0363 C   0  0  0  0  0  0  0  0  0  0  0  0
   -1.2071    0.7119    0.0003 C   0  0  0  0  0  0  0  0  0  0  0  0
   -2.0639    1.2043    0.0252 H   0  0  0  0  0  0  0  0  0  0  0  0
   -1.2131   -0.6871    0.0000 C   0  0  0  0  0  0  0  0  0  0  0  0
   -2.0897   -1.1804   -0.0131 H   0  0  0  0  0  0  0  0  0  0  0  0
   -0.0019   -1.4084    0.0204 C   0  0  0  0  0  0  0  0  0  0  0  0
   -0.0258   -2.4029    0.0488 H   0  0  0  0  0  0  0  0  0  0  0  0
    1.2131   -0.7261   -0.0000 C   0  0  0  0  0  0  0  0  0  0  0  0
    2.0869   -1.2092   -0.0242 H   0  0  0  0  0  0  0  0  0  0  0  0
    1.2048    0.7004    0.0157 C   0  0  0  0  0  0  0  0  0  0  0  0
    2.0721    1.1823    0.0633 H   0  0  0  0  0  0  0  0  0  0  0  0
  1  5  1  0
  5  8  1  0
  1  2  1  0
  1  3  1  0
  1  4  1  0
  5  6  1  0
  5  7  1  0
  8  9  1  0
  8 10  1  0
  8 11  1  0
 12 16  1  0
 16 17  2  0
 17 19  1  0
 19 21  2  0
 21 23  1  0
 23 25  2  0
 25 16  1  0
 12 13  1  0
 12 14  1  0
 12 15  1  0
 17 18  1  0
 19 20  1  0
 21 22  1  0
 23 24  1  0
 25 26  1  0
M  CHG  1   8   1
M  END
>  <PDB_ID>  (1491) 
pdb1y7b

>  <RESIDUE_NAME>  (1491) 
LYS   PHE

>  <FRAG_NAME>  (1491) 
ETAM   MBZ

>  <FRAG_ATOM_NUM>  (1491) 
fragi: 11  fragj: 15

>  <atom.prop.CHAIN_ID>  (1491) 
A A A A A A A A A A A Z Z Z Z Z Z Z Z Z Z Z Z Z Z Z

>  <atom.prop.IS_HEAVY_ATOM>  (1491) 
1 0 0 0 1 0 0 1 0 0 0 1 0 0 0 1 1 0 1 0 1 0 1 0 1 0

>  <DIFUSE_FUNC_ATOM>  (1491) 
n/a

>  <FINAL_SINGLE_POINT_ENERGY>  (1491) 
0

>  <NONCOV_INTER_ENERGY_QM>  (1491) 
0

>  <FF_Energy>  (1491) 
-5.24

>  <QM_Energy>  (1491) 
-10.76

>  <source>  (1491) 
ETAM_MBZ

>  <Index>  (1491) 
14955

$$$$
ETAM-pdb1y7b-A-LYS-93:MBZ-pdb1y7b-B-PHE-376
     RDKit          3D

 26 25  0  0  0  0  0  0  0  0999 V2000
    0.0600    0.1998   -3.8251 C   0  0  0  0  0  0  0  0  0  0  0  0
   -0.2835   -0.2116   -2.9836 H   0  0  0  0  0  0  0  0  0  0  0  0
   -0.0786   -0.4268   -4.5893 H   0  0  0  0  0  0  0  0  0  0  0  0
   -0.4855    1.1235   -4.0181 H   0  0  0  0  0  0  0  0  0  0  0  0
    1.5416    0.4499   -3.6691 C   0  0  0  0  0  0  0  0  0  0  0  0
    1.8638    1.0186   -4.4213 H   0  0  0  0  0  0  0  0  0  0  0  0
    1.7123    0.9064   -2.7994 H   0  0  0  0  0  0  0  0  0  0  0  0
    2.2894   -0.8490   -3.6890 N   0  0  0  0  0  4  0  0  0  0  0  0
    1.6711   -1.5851   -3.4218 H   0  0  0  0  0  0  0  0  0  0  0  0
    2.6337   -1.0132   -4.6108 H   0  0  0  0  0  0  0  0  0  0  0  0
    3.0519   -0.7965   -3.0472 H   0  0  0  0  0  0  0  0  0  0  0  0
   -0.0176    2.9217    0.1114 C   0  0  0  0  0  0  0  0  0  0  0  0
   -0.7509    3.2696   -0.4314 H   0  0  0  0  0  0  0  0  0  0  0  0
    0.8582    3.2638   -0.1508 H   0  0  0  0  0  0  0  0  0  0  0  0
   -0.1948    3.2449    1.1371 H   0  0  0  0  0  0  0  0  0  0  0  0
   -0.0036    1.4208   -0.0034 C   0  0  0  0  0  0  0  0  0  0  0  0
   -1.1932    0.7133    0.0017 C   0  0  0  0  0  0  0  0  0  0  0  0
   -2.0648    1.1959    0.0052 H   0  0  0  0  0  0  0  0  0  0  0  0
   -1.2037   -0.6924   -0.0000 C   0  0  0  0  0  0  0  0  0  0  0  0
   -2.0857   -1.1763    0.0139 H   0  0  0  0  0  0  0  0  0  0  0  0
   -0.0025   -1.4143   -0.0193 C   0  0  0  0  0  0  0  0  0  0  0  0
   -0.0264   -2.4083   -0.0472 H   0  0  0  0  0  0  0  0  0  0  0  0
    1.2037   -0.7306   -0.0000 C   0  0  0  0  0  0  0  0  0  0  0  0
    2.0842   -1.2094    0.0011 H   0  0  0  0  0  0  0  0  0  0  0  0
    1.1992    0.7032    0.0210 C   0  0  0  0  0  0  0  0  0  0  0  0
    2.0687    1.1806    0.0525 H   0  0  0  0  0  0  0  0  0  0  0  0
  1  5  1  0
  5  8  1  0
  1  2  1  0
  1  3  1  0
  1  4  1  0
  5  6  1  0
  5  7  1  0
  8  9  1  0
  8 10  1  0
  8 11  1  0
 12 16  1  0
 16 17  2  0
 17 19  1  0
 19 21  2  0
 21 23  1  0
 23 25  2  0
 25 16  1  0
 12 13  1  0
 12 14  1  0
 12 15  1  0
 17 18  1  0
 19 20  1  0
 21 22  1  0
 23 24  1  0
 25 26  1  0
M  CHG  1   8   1
M  END
>  <PDB_ID>  (1492) 
pdb1y7b

>  <RESIDUE_NAME>  (1492) 
LYS   PHE

>  <FRAG_NAME>  (1492) 
ETAM   MBZ

>  <FRAG_ATOM_NUM>  (1492) 
fragi: 11  fragj: 15

>  <atom.prop.CHAIN_ID>  (1492) 
A A A A A A A A A A A Z Z Z Z Z Z Z Z Z Z Z Z Z Z Z

>  <atom.prop.IS_HEAVY_ATOM>  (1492) 
1 0 0 0 1 0 0 1 0 0 0 1 0 0 0 1 1 0 1 0 1 0 1 0 1 0

>  <DIFUSE_FUNC_ATOM>  (1492) 
n/a

>  <FINAL_SINGLE_POINT_ENERGY>  (1492) 
0

>  <NONCOV_INTER_ENERGY_QM>  (1492) 
0

>  <FF_Energy>  (1492) 
-5.16

>  <QM_Energy>  (1492) 
-10.25

>  <source>  (1492) 
ETAM_MBZ

>  <Index>  (1492) 
14956

$$$$
ETAM-pdb1y67-B-LYS-121:MBZ-pdb1y67-B-PHE-112
     RDKit          3D

 26 25  0  0  0  0  0  0  0  0999 V2000
   -4.6498   -0.2893    0.9118 C   0  0  0  0  0  0  0  0  0  0  0  0
   -5.0305    0.4734    0.4129 H   0  0  0  0  0  0  0  0  0  0  0  0
   -3.6671   -0.2230    0.9816 H   0  0  0  0  0  0  0  0  0  0  0  0
   -5.0781   -0.3079    1.9139 H   0  0  0  0  0  0  0  0  0  0  0  0
   -4.9959   -1.5823    0.1605 C   0  0  0  0  0  0  0  0  0  0  0  0
   -5.1446   -2.3168    0.8331 H   0  0  0  0  0  0  0  0  0  0  0  0
   -5.8545   -1.4413   -0.3472 H   0  0  0  0  0  0  0  0  0  0  0  0
   -3.9274   -2.0226   -0.8087 N   0  0  0  0  0  4  0  0  0  0  0  0
   -3.7011   -1.2583   -1.4069 H   0  0  0  0  0  0  0  0  0  0  0  0
   -3.1226   -2.3041   -0.2933 H   0  0  0  0  0  0  0  0  0  0  0  0
   -4.2755   -2.7865   -1.3455 H   0  0  0  0  0  0  0  0  0  0  0  0
    0.0065    2.9096   -0.0010 C   0  0  0  0  0  0  0  0  0  0  0  0
    0.9043    3.2122    0.2796 H   0  0  0  0  0  0  0  0  0  0  0  0
   -0.6912    3.2169    0.6284 H   0  0  0  0  0  0  0  0  0  0  0  0
   -0.2051    3.3508   -0.9751 H   0  0  0  0  0  0  0  0  0  0  0  0
    0.0013    1.4028   -0.0000 C   0  0  0  0  0  0  0  0  0  0  0  0
   -1.1962    0.6956   -0.0019 C   0  0  0  0  0  0  0  0  0  0  0  0
   -2.0632    1.1827   -0.0061 H   0  0  0  0  0  0  0  0  0  0  0  0
   -1.2015   -0.7027    0.0000 C   0  0  0  0  0  0  0  0  0  0  0  0
   -2.0783   -1.1926    0.0027 H   0  0  0  0  0  0  0  0  0  0  0  0
   -0.0000   -1.3966   -0.0002 C   0  0  0  0  0  0  0  0  0  0  0  0
    0.0009   -2.3935   -0.0010 H   0  0  0  0  0  0  0  0  0  0  0  0
    1.2015   -0.6933    0.0000 C   0  0  0  0  0  0  0  0  0  0  0  0
    2.0833   -1.1920    0.0003 H   0  0  0  0  0  0  0  0  0  0  0  0
    1.1950    0.6943    0.0020 C   0  0  0  0  0  0  0  0  0  0  0  0
    2.0648    1.1922    0.0037 H   0  0  0  0  0  0  0  0  0  0  0  0
  1  5  1  0
  5  8  1  0
  1  2  1  0
  1  3  1  0
  1  4  1  0
  5  6  1  0
  5  7  1  0
  8  9  1  0
  8 10  1  0
  8 11  1  0
 12 16  1  0
 16 17  2  0
 17 19  1  0
 19 21  2  0
 21 23  1  0
 23 25  2  0
 25 16  1  0
 12 13  1  0
 12 14  1  0
 12 15  1  0
 17 18  1  0
 19 20  1  0
 21 22  1  0
 23 24  1  0
 25 26  1  0
M  CHG  1   8   1
M  END
>  <PDB_ID>  (1493) 
pdb1y67

>  <RESIDUE_NAME>  (1493) 
LYS   PHE

>  <FRAG_NAME>  (1493) 
ETAM   MBZ

>  <FRAG_ATOM_NUM>  (1493) 
fragi: 11  fragj: 15

>  <atom.prop.CHAIN_ID>  (1493) 
A A A A A A A A A A A Z Z Z Z Z Z Z Z Z Z Z Z Z Z Z

>  <atom.prop.IS_HEAVY_ATOM>  (1493) 
1 0 0 0 1 0 0 1 0 0 0 1 0 0 0 1 1 0 1 0 1 0 1 0 1 0

>  <DIFUSE_FUNC_ATOM>  (1493) 
n/a

>  <FINAL_SINGLE_POINT_ENERGY>  (1493) 
0

>  <NONCOV_INTER_ENERGY_QM>  (1493) 
0

>  <FF_Energy>  (1493) 
9.24

>  <QM_Energy>  (1493) 
0.24

>  <source>  (1493) 
ETAM_MBZ

>  <Index>  (1493) 
14962

$$$$
ETAM-pdb3c1o-A-LYS-131:MBZ-pdb3c1o-A-PHE-84
     RDKit          3D

 26 25  0  0  0  0  0  0  0  0999 V2000
   -2.1920   -2.9364   -3.5776 C   0  0  0  0  0  0  0  0  0  0  0  0
   -2.0626   -3.5240   -2.7917 H   0  0  0  0  0  0  0  0  0  0  0  0
   -2.1542   -3.4515   -4.4209 H   0  0  0  0  0  0  0  0  0  0  0  0
   -3.1703   -2.4620   -3.5008 H   0  0  0  0  0  0  0  0  0  0  0  0
   -1.0919   -1.8867   -3.5928 C   0  0  0  0  0  0  0  0  0  0  0  0
   -1.2156   -1.2943   -4.4030 H   0  0  0  0  0  0  0  0  0  0  0  0
   -1.1837   -1.3037   -2.7715 H   0  0  0  0  0  0  0  0  0  0  0  0
    0.2934   -2.4585   -3.6233 N   0  0  0  0  0  4  0  0  0  0  0  0
    0.8987   -1.8753   -3.0857 H   0  0  0  0  0  0  0  0  0  0  0  0
    0.2752   -3.3773   -3.2362 H   0  0  0  0  0  0  0  0  0  0  0  0
    0.6102   -2.4953   -4.5692 H   0  0  0  0  0  0  0  0  0  0  0  0
   -0.0076    2.9051   -0.0368 C   0  0  0  0  0  0  0  0  0  0  0  0
    0.9136    3.2212    0.1221 H   0  0  0  0  0  0  0  0  0  0  0  0
   -0.6286    3.2250    0.6598 H   0  0  0  0  0  0  0  0  0  0  0  0
   -0.3401    3.3095   -0.9928 H   0  0  0  0  0  0  0  0  0  0  0  0
    0.0007    1.4050   -0.0007 C   0  0  0  0  0  0  0  0  0  0  0  0
   -1.2007    0.6944    0.0003 C   0  0  0  0  0  0  0  0  0  0  0  0
   -2.0662    1.1850    0.0000 H   0  0  0  0  0  0  0  0  0  0  0  0
   -1.2073   -0.7015    0.0000 C   0  0  0  0  0  0  0  0  0  0  0  0
   -2.0811   -1.1941    0.0008 H   0  0  0  0  0  0  0  0  0  0  0  0
   -0.0005   -1.3994    0.0004 C   0  0  0  0  0  0  0  0  0  0  0  0
   -0.0025   -2.3957    0.0009 H   0  0  0  0  0  0  0  0  0  0  0  0
    1.2073   -0.6979    0.0000 C   0  0  0  0  0  0  0  0  0  0  0  0
    2.0868   -1.1936    0.0011 H   0  0  0  0  0  0  0  0  0  0  0  0
    1.2005    0.6994   -0.0000 C   0  0  0  0  0  0  0  0  0  0  0  0
    2.0671    1.1948   -0.0005 H   0  0  0  0  0  0  0  0  0  0  0  0
  1  5  1  0
  5  8  1  0
  1  2  1  0
  1  3  1  0
  1  4  1  0
  5  6  1  0
  5  7  1  0
  8  9  1  0
  8 10  1  0
  8 11  1  0
 12 16  1  0
 16 17  2  0
 17 19  1  0
 19 21  2  0
 21 23  1  0
 23 25  2  0
 25 16  1  0
 12 13  1  0
 12 14  1  0
 12 15  1  0
 17 18  1  0
 19 20  1  0
 21 22  1  0
 23 24  1  0
 25 26  1  0
M  CHG  1   8   1
M  END
>  <PDB_ID>  (1494) 
pdb3c1o

>  <RESIDUE_NAME>  (1494) 
LYS   PHE

>  <FRAG_NAME>  (1494) 
ETAM   MBZ

>  <FRAG_ATOM_NUM>  (1494) 
fragi: 11  fragj: 15

>  <atom.prop.CHAIN_ID>  (1494) 
A A A A A A A A A A A Z Z Z Z Z Z Z Z Z Z Z Z Z Z Z

>  <atom.prop.IS_HEAVY_ATOM>  (1494) 
1 0 0 0 1 0 0 1 0 0 0 1 0 0 0 1 1 0 1 0 1 0 1 0 1 0

>  <DIFUSE_FUNC_ATOM>  (1494) 
n/a

>  <FINAL_SINGLE_POINT_ENERGY>  (1494) 
0

>  <NONCOV_INTER_ENERGY_QM>  (1494) 
0

>  <FF_Energy>  (1494) 
-4.12

>  <QM_Energy>  (1494) 
-9.41

>  <source>  (1494) 
ETAM_MBZ

>  <Index>  (1494) 
14971

$$$$
ETAM-pdb3c26-A-LYS-115:MBZ-pdb3c26-A-PHE-111
     RDKit          3D

 26 25  0  0  0  0  0  0  0  0999 V2000
    1.0211   -0.3654    5.1352 C   0  0  0  0  0  0  0  0  0  0  0  0
    1.4683    0.2486    4.4955 H   0  0  0  0  0  0  0  0  0  0  0  0
    1.4634   -1.2545    5.1349 H   0  0  0  0  0  0  0  0  0  0  0  0
    1.0972    0.0607    6.1356 H   0  0  0  0  0  0  0  0  0  0  0  0
   -0.4216   -0.5332    4.7304 C   0  0  0  0  0  0  0  0  0  0  0  0
   -0.8169   -1.3125    5.2304 H   0  0  0  0  0  0  0  0  0  0  0  0
   -0.9341    0.2963    4.9804 H   0  0  0  0  0  0  0  0  0  0  0  0
   -0.5714   -0.7702    3.2700 N   0  0  0  0  0  4  0  0  0  0  0  0
    0.2482   -0.4486    2.7955 H   0  0  0  0  0  0  0  0  0  0  0  0
   -0.6922   -1.7485    3.1033 H   0  0  0  0  0  0  0  0  0  0  0  0
   -1.3705   -0.2723    2.9331 H   0  0  0  0  0  0  0  0  0  0  0  0
   -0.0175    2.9007   -0.0280 C   0  0  0  0  0  0  0  0  0  0  0  0
   -0.6292    3.1787   -0.7557 H   0  0  0  0  0  0  0  0  0  0  0  0
    0.9084    3.2064   -0.2052 H   0  0  0  0  0  0  0  0  0  0  0  0
   -0.3556    3.3764    0.8926 H   0  0  0  0  0  0  0  0  0  0  0  0
   -0.0059    1.3920    0.0147 C   0  0  0  0  0  0  0  0  0  0  0  0
   -1.1822    0.6907   -0.0008 C   0  0  0  0  0  0  0  0  0  0  0  0
   -2.0590    1.1756   -0.0149 H   0  0  0  0  0  0  0  0  0  0  0  0
   -1.1908   -0.6990    0.0000 C   0  0  0  0  0  0  0  0  0  0  0  0
   -2.0729   -1.1851   -0.0087 H   0  0  0  0  0  0  0  0  0  0  0  0
   -0.0048   -1.3820    0.0142 C   0  0  0  0  0  0  0  0  0  0  0  0
    0.0016   -2.3842    0.0342 H   0  0  0  0  0  0  0  0  0  0  0  0
    1.1908   -0.6850    0.0000 C   0  0  0  0  0  0  0  0  0  0  0  0
    2.0739   -1.1939    0.0122 H   0  0  0  0  0  0  0  0  0  0  0  0
    1.1929    0.6833   -0.0281 C   0  0  0  0  0  0  0  0  0  0  0  0
    2.0557    1.1878   -0.0809 H   0  0  0  0  0  0  0  0  0  0  0  0
  1  5  1  0
  5  8  1  0
  1  2  1  0
  1  3  1  0
  1  4  1  0
  5  6  1  0
  5  7  1  0
  8  9  1  0
  8 10  1  0
  8 11  1  0
 12 16  1  0
 16 17  2  0
 17 19  1  0
 19 21  2  0
 21 23  1  0
 23 25  2  0
 25 16  1  0
 12 13  1  0
 12 14  1  0
 12 15  1  0
 17 18  1  0
 19 20  1  0
 21 22  1  0
 23 24  1  0
 25 26  1  0
M  CHG  1   8   1
M  END
>  <PDB_ID>  (1495) 
pdb3c26

>  <RESIDUE_NAME>  (1495) 
LYS   PHE

>  <FRAG_NAME>  (1495) 
ETAM   MBZ

>  <FRAG_ATOM_NUM>  (1495) 
fragi: 11  fragj: 15

>  <atom.prop.CHAIN_ID>  (1495) 
A A A A A A A A A A A Z Z Z Z Z Z Z Z Z Z Z Z Z Z Z

>  <atom.prop.IS_HEAVY_ATOM>  (1495) 
1 0 0 0 1 0 0 1 0 0 0 1 0 0 0 1 1 0 1 0 1 0 1 0 1 0

>  <DIFUSE_FUNC_ATOM>  (1495) 
n/a

>  <FINAL_SINGLE_POINT_ENERGY>  (1495) 
0

>  <NONCOV_INTER_ENERGY_QM>  (1495) 
0

>  <FF_Energy>  (1495) 
-7.45

>  <QM_Energy>  (1495) 
-14.1

>  <source>  (1495) 
ETAM_MBZ

>  <Index>  (1495) 
14975

$$$$
ETAM-pdb1y9w-B-LYS-4:MBZ-pdb1y9w-A-PHE-52
     RDKit          3D

 26 25  0  0  0  0  0  0  0  0999 V2000
    1.5962    0.7210    3.7897 C   0  0  0  0  0  0  0  0  0  0  0  0
    1.4425    1.0971    4.6998 H   0  0  0  0  0  0  0  0  0  0  0  0
    1.8698    1.4452    3.1629 H   0  0  0  0  0  0  0  0  0  0  0  0
    2.3980   -0.0153    3.8461 H   0  0  0  0  0  0  0  0  0  0  0  0
    0.3025    0.1092    3.2912 C   0  0  0  0  0  0  0  0  0  0  0  0
   -0.3813    0.8350    3.1828 H   0  0  0  0  0  0  0  0  0  0  0  0
    0.4651   -0.3185    2.3981 H   0  0  0  0  0  0  0  0  0  0  0  0
   -0.2187   -0.9149    4.2342 N   0  0  0  0  0  4  0  0  0  0  0  0
   -0.5721   -1.6940    3.7168 H   0  0  0  0  0  0  0  0  0  0  0  0
    0.5207   -1.2208    4.8346 H   0  0  0  0  0  0  0  0  0  0  0  0
   -0.9532   -0.5172    4.7843 H   0  0  0  0  0  0  0  0  0  0  0  0
    0.0016    2.9113   -0.0342 C   0  0  0  0  0  0  0  0  0  0  0  0
    0.8512    3.2243    0.3610 H   0  0  0  0  0  0  0  0  0  0  0  0
   -0.7769    3.2300    0.4828 H   0  0  0  0  0  0  0  0  0  0  0  0
   -0.0722    3.3268   -1.0392 H   0  0  0  0  0  0  0  0  0  0  0  0
   -0.0016    1.4071   -0.0001 C   0  0  0  0  0  0  0  0  0  0  0  0
   -1.2014    0.7001   -0.0003 C   0  0  0  0  0  0  0  0  0  0  0  0
   -2.0669    1.1893   -0.0021 H   0  0  0  0  0  0  0  0  0  0  0  0
   -1.2080   -0.6962    0.0000 C   0  0  0  0  0  0  0  0  0  0  0  0
   -2.0803   -1.1902    0.0018 H   0  0  0  0  0  0  0  0  0  0  0  0
    0.0053   -1.4020   -0.0004 C   0  0  0  0  0  0  0  0  0  0  0  0
   -0.0055   -2.3970   -0.0010 H   0  0  0  0  0  0  0  0  0  0  0  0
    1.2080   -0.7046    0.0000 C   0  0  0  0  0  0  0  0  0  0  0  0
    2.0892   -1.1959    0.0013 H   0  0  0  0  0  0  0  0  0  0  0  0
    1.1977    0.6956    0.0008 C   0  0  0  0  0  0  0  0  0  0  0  0
    2.0658    1.1914    0.0010 H   0  0  0  0  0  0  0  0  0  0  0  0
  1  5  1  0
  5  8  1  0
  1  2  1  0
  1  3  1  0
  1  4  1  0
  5  6  1  0
  5  7  1  0
  8  9  1  0
  8 10  1  0
  8 11  1  0
 12 16  1  0
 16 17  2  0
 17 19  1  0
 19 21  2  0
 21 23  1  0
 23 25  2  0
 25 16  1  0
 12 13  1  0
 12 14  1  0
 12 15  1  0
 17 18  1  0
 19 20  1  0
 21 22  1  0
 23 24  1  0
 25 26  1  0
M  CHG  1   8   1
M  END
>  <PDB_ID>  (1496) 
pdb1y9w

>  <RESIDUE_NAME>  (1496) 
LYS   PHE

>  <FRAG_NAME>  (1496) 
ETAM   MBZ

>  <FRAG_ATOM_NUM>  (1496) 
fragi: 11  fragj: 15

>  <atom.prop.CHAIN_ID>  (1496) 
A A A A A A A A A A A Z Z Z Z Z Z Z Z Z Z Z Z Z Z Z

>  <atom.prop.IS_HEAVY_ATOM>  (1496) 
1 0 0 0 1 0 0 1 0 0 0 1 0 0 0 1 1 0 1 0 1 0 1 0 1 0

>  <DIFUSE_FUNC_ATOM>  (1496) 
n/a

>  <FINAL_SINGLE_POINT_ENERGY>  (1496) 
0

>  <NONCOV_INTER_ENERGY_QM>  (1496) 
0

>  <FF_Energy>  (1496) 
-4.98

>  <QM_Energy>  (1496) 
-10.83

>  <source>  (1496) 
ETAM_MBZ

>  <Index>  (1496) 
14997

$$$$
ETAM-pdb1y97-B-LYS-59:MBZ-pdb1y97-B-PHE-33
     RDKit          3D

 26 25  0  0  0  0  0  0  0  0999 V2000
   -1.3277   -1.4140    3.4873 C   0  0  0  0  0  0  0  0  0  0  0  0
   -1.7440   -2.0726    4.0870 H   0  0  0  0  0  0  0  0  0  0  0  0
   -1.6777   -1.4700    2.5703 H   0  0  0  0  0  0  0  0  0  0  0  0
   -1.5135   -0.4133    3.8774 H   0  0  0  0  0  0  0  0  0  0  0  0
    0.1765   -1.6630    3.4541 C   0  0  0  0  0  0  0  0  0  0  0  0
    0.6019   -0.9966    2.8493 H   0  0  0  0  0  0  0  0  0  0  0  0
    0.5407   -1.5711    4.3760 H   0  0  0  0  0  0  0  0  0  0  0  0
    0.4584   -3.0392    2.9478 N   0  0  0  0  0  4  0  0  0  0  0  0
   -0.0263   -3.7040    3.5150 H   0  0  0  0  0  0  0  0  0  0  0  0
    0.1455   -3.1122    2.0021 H   0  0  0  0  0  0  0  0  0  0  0  0
    1.4413   -3.2112    2.9920 H   0  0  0  0  0  0  0  0  0  0  0  0
    0.0262    2.8818   -0.1873 C   0  0  0  0  0  0  0  0  0  0  0  0
   -0.0370    3.0783   -1.1610 H   0  0  0  0  0  0  0  0  0  0  0  0
    0.8837    3.2318    0.1791 H   0  0  0  0  0  0  0  0  0  0  0  0
   -0.7854    3.4128    0.3100 H   0  0  0  0  0  0  0  0  0  0  0  0
    0.0030    1.4180   -0.0041 C   0  0  0  0  0  0  0  0  0  0  0  0
   -1.1981    0.7163    0.0035 C   0  0  0  0  0  0  0  0  0  0  0  0
   -2.0638    1.1908    0.0096 H   0  0  0  0  0  0  0  0  0  0  0  0
   -1.2014   -0.7075   -0.0000 C   0  0  0  0  0  0  0  0  0  0  0  0
   -2.0886   -1.1815    0.0040 H   0  0  0  0  0  0  0  0  0  0  0  0
   -0.0126   -1.4087   -0.0074 C   0  0  0  0  0  0  0  0  0  0  0  0
   -0.0125   -2.4049   -0.0182 H   0  0  0  0  0  0  0  0  0  0  0  0
    1.2014   -0.7109   -0.0000 C   0  0  0  0  0  0  0  0  0  0  0  0
    2.0775   -1.2119    0.0007 H   0  0  0  0  0  0  0  0  0  0  0  0
    1.2077    0.6928    0.0080 C   0  0  0  0  0  0  0  0  0  0  0  0
    2.0746    1.1812    0.0213 H   0  0  0  0  0  0  0  0  0  0  0  0
  1  5  1  0
  5  8  1  0
  1  2  1  0
  1  3  1  0
  1  4  1  0
  5  6  1  0
  5  7  1  0
  8  9  1  0
  8 10  1  0
  8 11  1  0
 12 16  1  0
 16 17  2  0
 17 19  1  0
 19 21  2  0
 21 23  1  0
 23 25  2  0
 25 16  1  0
 12 13  1  0
 12 14  1  0
 12 15  1  0
 17 18  1  0
 19 20  1  0
 21 22  1  0
 23 24  1  0
 25 26  1  0
M  CHG  1   8   1
M  END
>  <PDB_ID>  (1497) 
pdb1y97

>  <RESIDUE_NAME>  (1497) 
LYS   PHE

>  <FRAG_NAME>  (1497) 
ETAM   MBZ

>  <FRAG_ATOM_NUM>  (1497) 
fragi: 11  fragj: 15

>  <atom.prop.CHAIN_ID>  (1497) 
A A A A A A A A A A A Z Z Z Z Z Z Z Z Z Z Z Z Z Z Z

>  <atom.prop.IS_HEAVY_ATOM>  (1497) 
1 0 0 0 1 0 0 1 0 0 0 1 0 0 0 1 1 0 1 0 1 0 1 0 1 0

>  <DIFUSE_FUNC_ATOM>  (1497) 
n/a

>  <FINAL_SINGLE_POINT_ENERGY>  (1497) 
0

>  <NONCOV_INTER_ENERGY_QM>  (1497) 
0

>  <FF_Energy>  (1497) 
-3.41

>  <QM_Energy>  (1497) 
-10.5

>  <source>  (1497) 
ETAM_MBZ

>  <Index>  (1497) 
14999

$$$$
ETAM-pdb1ya5-B-MET-1:MBZ-pdb1ya5-B-PHE-32
     RDKit          3D

 26 25  0  0  0  0  0  0  0  0999 V2000
   -3.6096    0.5926   -2.8238 C   0  0  0  0  0  0  0  0  0  0  0  0
   -2.8671    0.8304   -2.1803 H   0  0  0  0  0  0  0  0  0  0  0  0
   -3.9217    1.4463   -3.2657 H   0  0  0  0  0  0  0  0  0  0  0  0
   -4.4400    0.1809   -2.2503 H   0  0  0  0  0  0  0  0  0  0  0  0
   -3.0539   -0.3457   -3.8977 C   0  0  0  0  0  0  0  0  0  0  0  0
   -3.8228   -0.6491   -4.4732 H   0  0  0  0  0  0  0  0  0  0  0  0
   -2.3424    0.1880   -4.5277 H   0  0  0  0  0  0  0  0  0  0  0  0
   -2.4505   -1.5613   -3.2851 N   0  0  0  0  0  4  0  0  0  0  0  0
   -2.1145   -1.3365   -2.3736 H   0  0  0  0  0  0  0  0  0  0  0  0
   -3.1437   -2.2749   -3.2227 H   0  0  0  0  0  0  0  0  0  0  0  0
   -1.6949   -1.8748   -3.8544 H   0  0  0  0  0  0  0  0  0  0  0  0
    0.0113    2.8852    0.0115 C   0  0  0  0  0  0  0  0  0  0  0  0
   -0.9242    3.2017    0.0612 H   0  0  0  0  0  0  0  0  0  0  0  0
    0.4553    3.2001   -0.8143 H   0  0  0  0  0  0  0  0  0  0  0  0
    0.5515    3.3008    0.8622 H   0  0  0  0  0  0  0  0  0  0  0  0
    0.0006    1.3979   -0.0031 C   0  0  0  0  0  0  0  0  0  0  0  0
   -1.1980    0.7002    0.0067 C   0  0  0  0  0  0  0  0  0  0  0  0
   -2.0619    1.1913    0.0175 H   0  0  0  0  0  0  0  0  0  0  0  0
   -1.2033   -0.6900    0.0000 C   0  0  0  0  0  0  0  0  0  0  0  0
   -2.0784   -1.1851    0.0002 H   0  0  0  0  0  0  0  0  0  0  0  0
    0.0028   -1.3937   -0.0049 C   0  0  0  0  0  0  0  0  0  0  0  0
   -0.0085   -2.3912   -0.0127 H   0  0  0  0  0  0  0  0  0  0  0  0
    1.2033   -0.7011    0.0000 C   0  0  0  0  0  0  0  0  0  0  0  0
    2.0830   -1.1981    0.0040 H   0  0  0  0  0  0  0  0  0  0  0  0
    1.1945    0.6867    0.0013 C   0  0  0  0  0  0  0  0  0  0  0  0
    2.0648    1.1860    0.0046 H   0  0  0  0  0  0  0  0  0  0  0  0
  1  5  1  0
  5  8  1  0
  1  2  1  0
  1  3  1  0
  1  4  1  0
  5  6  1  0
  5  7  1  0
  8  9  1  0
  8 10  1  0
  8 11  1  0
 12 16  1  0
 16 17  2  0
 17 19  1  0
 19 21  2  0
 21 23  1  0
 23 25  2  0
 25 16  1  0
 12 13  1  0
 12 14  1  0
 12 15  1  0
 17 18  1  0
 19 20  1  0
 21 22  1  0
 23 24  1  0
 25 26  1  0
M  CHG  1   8   1
M  END
>  <PDB_ID>  (1498) 
pdb1ya5

>  <RESIDUE_NAME>  (1498) 
MET   PHE

>  <FRAG_NAME>  (1498) 
ETAM   MBZ

>  <FRAG_ATOM_NUM>  (1498) 
fragi: 11  fragj: 15

>  <atom.prop.CHAIN_ID>  (1498) 
A A A A A A A A A A A Z Z Z Z Z Z Z Z Z Z Z Z Z Z Z

>  <atom.prop.IS_HEAVY_ATOM>  (1498) 
1 0 0 0 1 0 0 1 0 0 0 1 0 0 0 1 1 0 1 0 1 0 1 0 1 0

>  <DIFUSE_FUNC_ATOM>  (1498) 
n/a

>  <FINAL_SINGLE_POINT_ENERGY>  (1498) 
0

>  <NONCOV_INTER_ENERGY_QM>  (1498) 
0

>  <FF_Energy>  (1498) 
-3.48

>  <QM_Energy>  (1498) 
-9.25

>  <source>  (1498) 
ETAM_MBZ

>  <Index>  (1498) 
15002

$$$$
ETAM-pdb1yad-B-LYS-56:MBZ-pdb1yad-B-PHE-50
     RDKit          3D

 26 25  0  0  0  0  0  0  0  0999 V2000
   -1.1019   -1.2066    3.7877 C   0  0  0  0  0  0  0  0  0  0  0  0
   -1.1074   -1.1252    4.7759 H   0  0  0  0  0  0  0  0  0  0  0  0
   -0.7954   -2.1084    3.5104 H   0  0  0  0  0  0  0  0  0  0  0  0
   -2.1150   -1.0503    3.4171 H   0  0  0  0  0  0  0  0  0  0  0  0
   -0.1384   -0.1679    3.2189 C   0  0  0  0  0  0  0  0  0  0  0  0
   -0.2051   -0.1793    2.2137 H   0  0  0  0  0  0  0  0  0  0  0  0
   -0.4167    0.7450    3.5428 H   0  0  0  0  0  0  0  0  0  0  0  0
    1.2859   -0.4094    3.6130 N   0  0  0  0  0  4  0  0  0  0  0  0
    1.3807   -0.2715    4.5973 H   0  0  0  0  0  0  0  0  0  0  0  0
    1.5358   -1.3469    3.3772 H   0  0  0  0  0  0  0  0  0  0  0  0
    1.8735    0.2314    3.1228 H   0  0  0  0  0  0  0  0  0  0  0  0
    0.0125    2.9194    0.0166 C   0  0  0  0  0  0  0  0  0  0  0  0
    0.6610    3.2279   -0.6629 H   0  0  0  0  0  0  0  0  0  0  0  0
    0.2733    3.2111    0.9241 H   0  0  0  0  0  0  0  0  0  0  0  0
   -0.9507    3.3749   -0.2137 H   0  0  0  0  0  0  0  0  0  0  0  0
    0.0007    1.4094   -0.0018 C   0  0  0  0  0  0  0  0  0  0  0  0
   -1.1990    0.6996    0.0017 C   0  0  0  0  0  0  0  0  0  0  0  0
   -2.0654    1.1864    0.0038 H   0  0  0  0  0  0  0  0  0  0  0  0
   -1.2046   -0.7014    0.0000 C   0  0  0  0  0  0  0  0  0  0  0  0
   -2.0803   -1.1909   -0.0007 H   0  0  0  0  0  0  0  0  0  0  0  0
    0.0005   -1.4012    0.0010 C   0  0  0  0  0  0  0  0  0  0  0  0
   -0.0045   -2.3976    0.0016 H   0  0  0  0  0  0  0  0  0  0  0  0
    1.2046   -0.7022   -0.0000 C   0  0  0  0  0  0  0  0  0  0  0  0
    2.0852   -1.1965    0.0009 H   0  0  0  0  0  0  0  0  0  0  0  0
    1.1979    0.6959   -0.0008 C   0  0  0  0  0  0  0  0  0  0  0  0
    2.0670    1.1900   -0.0013 H   0  0  0  0  0  0  0  0  0  0  0  0
  1  5  1  0
  5  8  1  0
  1  2  1  0
  1  3  1  0
  1  4  1  0
  5  6  1  0
  5  7  1  0
  8  9  1  0
  8 10  1  0
  8 11  1  0
 12 16  1  0
 16 17  2  0
 17 19  1  0
 19 21  2  0
 21 23  1  0
 23 25  2  0
 25 16  1  0
 12 13  1  0
 12 14  1  0
 12 15  1  0
 17 18  1  0
 19 20  1  0
 21 22  1  0
 23 24  1  0
 25 26  1  0
M  CHG  1   8   1
M  END
>  <PDB_ID>  (1499) 
pdb1yad

>  <RESIDUE_NAME>  (1499) 
LYS   PHE

>  <FRAG_NAME>  (1499) 
ETAM   MBZ

>  <FRAG_ATOM_NUM>  (1499) 
fragi: 11  fragj: 15

>  <atom.prop.CHAIN_ID>  (1499) 
A A A A A A A A A A A Z Z Z Z Z Z Z Z Z Z Z Z Z Z Z

>  <atom.prop.IS_HEAVY_ATOM>  (1499) 
1 0 0 0 1 0 0 1 0 0 0 1 0 0 0 1 1 0 1 0 1 0 1 0 1 0

>  <DIFUSE_FUNC_ATOM>  (1499) 
n/a

>  <FINAL_SINGLE_POINT_ENERGY>  (1499) 
0

>  <NONCOV_INTER_ENERGY_QM>  (1499) 
0

>  <FF_Energy>  (1499) 
-3.75

>  <QM_Energy>  (1499) 
-12.43

>  <source>  (1499) 
ETAM_MBZ

>  <Index>  (1499) 
15009

$$$$
ETAM-pdb1yad-C-LYS-56:MBZ-pdb1yad-C-PHE-50
     RDKit          3D

 26 25  0  0  0  0  0  0  0  0999 V2000
   -1.2626   -1.8951    4.1718 C   0  0  0  0  0  0  0  0  0  0  0  0
   -1.2316   -1.3479    5.0048 H   0  0  0  0  0  0  0  0  0  0  0  0
   -1.2882   -2.8644    4.4022 H   0  0  0  0  0  0  0  0  0  0  0  0
   -2.1681   -1.6417    3.6204 H   0  0  0  0  0  0  0  0  0  0  0  0
   -0.0009   -1.6221    3.3649 C   0  0  0  0  0  0  0  0  0  0  0  0
    0.7963   -1.9333    3.8926 H   0  0  0  0  0  0  0  0  0  0  0  0
   -0.0418   -2.1491    2.5089 H   0  0  0  0  0  0  0  0  0  0  0  0
    0.1679   -0.1750    3.0375 N   0  0  0  0  0  4  0  0  0  0  0  0
    0.1667    0.3561    3.8836 H   0  0  0  0  0  0  0  0  0  0  0  0
    1.0353   -0.0443    2.5589 H   0  0  0  0  0  0  0  0  0  0  0  0
   -0.5867    0.1200    2.4533 H   0  0  0  0  0  0  0  0  0  0  0  0
    0.0176    2.9147    0.0301 C   0  0  0  0  0  0  0  0  0  0  0  0
    0.6936    3.2254   -0.6227 H   0  0  0  0  0  0  0  0  0  0  0  0
    0.2505    3.1994    0.9492 H   0  0  0  0  0  0  0  0  0  0  0  0
   -0.9327    3.3806   -0.2304 H   0  0  0  0  0  0  0  0  0  0  0  0
    0.0009    1.4059    0.0005 C   0  0  0  0  0  0  0  0  0  0  0  0
   -1.1978    0.6981    0.0004 C   0  0  0  0  0  0  0  0  0  0  0  0
   -2.0640    1.1871   -0.0003 H   0  0  0  0  0  0  0  0  0  0  0  0
   -1.2037   -0.6971    0.0000 C   0  0  0  0  0  0  0  0  0  0  0  0
   -2.0811   -1.1881    0.0017 H   0  0  0  0  0  0  0  0  0  0  0  0
   -0.0017   -1.3985   -0.0005 C   0  0  0  0  0  0  0  0  0  0  0  0
   -0.0064   -2.3952   -0.0021 H   0  0  0  0  0  0  0  0  0  0  0  0
    1.2037   -0.7004    0.0000 C   0  0  0  0  0  0  0  0  0  0  0  0
    2.0829   -1.1980    0.0018 H   0  0  0  0  0  0  0  0  0  0  0  0
    1.1986    0.6921   -0.0004 C   0  0  0  0  0  0  0  0  0  0  0  0
    2.0669    1.1888   -0.0024 H   0  0  0  0  0  0  0  0  0  0  0  0
  1  5  1  0
  5  8  1  0
  1  2  1  0
  1  3  1  0
  1  4  1  0
  5  6  1  0
  5  7  1  0
  8  9  1  0
  8 10  1  0
  8 11  1  0
 12 16  1  0
 16 17  2  0
 17 19  1  0
 19 21  2  0
 21 23  1  0
 23 25  2  0
 25 16  1  0
 12 13  1  0
 12 14  1  0
 12 15  1  0
 17 18  1  0
 19 20  1  0
 21 22  1  0
 23 24  1  0
 25 26  1  0
M  CHG  1   8   1
M  END
>  <PDB_ID>  (1500) 
pdb1yad

>  <RESIDUE_NAME>  (1500) 
LYS   PHE

>  <FRAG_NAME>  (1500) 
ETAM   MBZ

>  <FRAG_ATOM_NUM>  (1500) 
fragi: 11  fragj: 15

>  <atom.prop.CHAIN_ID>  (1500) 
A A A A A A A A A A A Z Z Z Z Z Z Z Z Z Z Z Z Z Z Z

>  <atom.prop.IS_HEAVY_ATOM>  (1500) 
1 0 0 0 1 0 0 1 0 0 0 1 0 0 0 1 1 0 1 0 1 0 1 0 1 0

>  <DIFUSE_FUNC_ATOM>  (1500) 
n/a

>  <FINAL_SINGLE_POINT_ENERGY>  (1500) 
0

>  <NONCOV_INTER_ENERGY_QM>  (1500) 
0

>  <FF_Energy>  (1500) 
-8.75

>  <QM_Energy>  (1500) 
-17.57

>  <source>  (1500) 
ETAM_MBZ

>  <Index>  (1500) 
15012

$$$$
ETAM-pdb1yad-D-LYS-56:MBZ-pdb1yad-D-PHE-50
     RDKit          3D

 26 25  0  0  0  0  0  0  0  0999 V2000
   -1.1892   -1.2009    3.8487 C   0  0  0  0  0  0  0  0  0  0  0  0
   -1.1667   -1.1560    4.8417 H   0  0  0  0  0  0  0  0  0  0  0  0
   -0.9002   -2.0999    3.5358 H   0  0  0  0  0  0  0  0  0  0  0  0
   -2.2101   -1.0208    3.5119 H   0  0  0  0  0  0  0  0  0  0  0  0
   -0.2298   -0.1618    3.2927 C   0  0  0  0  0  0  0  0  0  0  0  0
   -0.3515   -0.1046    2.2976 H   0  0  0  0  0  0  0  0  0  0  0  0
   -0.4459    0.7322    3.6968 H   0  0  0  0  0  0  0  0  0  0  0  0
    1.1929   -0.4985    3.5906 N   0  0  0  0  0  4  0  0  0  0  0  0
    1.7466    0.3309    3.5340 H   0  0  0  0  0  0  0  0  0  0  0  0
    1.2556   -0.8821    4.5111 H   0  0  0  0  0  0  0  0  0  0  0  0
    1.5194   -1.1683    2.9244 H   0  0  0  0  0  0  0  0  0  0  0  0
    0.0113    2.9156   -0.0001 C   0  0  0  0  0  0  0  0  0  0  0  0
    0.6456    3.2165   -0.6974 H   0  0  0  0  0  0  0  0  0  0  0  0
    0.2963    3.2184    0.8972 H   0  0  0  0  0  0  0  0  0  0  0  0
   -0.9557    3.3715   -0.2124 H   0  0  0  0  0  0  0  0  0  0  0  0
    0.0001    1.4070    0.0001 C   0  0  0  0  0  0  0  0  0  0  0  0
   -1.1979    0.6969    0.0012 C   0  0  0  0  0  0  0  0  0  0  0  0
   -2.0650    1.1849    0.0017 H   0  0  0  0  0  0  0  0  0  0  0  0
   -1.2032   -0.6997   -0.0000 C   0  0  0  0  0  0  0  0  0  0  0  0
   -2.0791   -1.1912    0.0018 H   0  0  0  0  0  0  0  0  0  0  0  0
    0.0005   -1.3976   -0.0020 C   0  0  0  0  0  0  0  0  0  0  0  0
   -0.0045   -2.3957   -0.0049 H   0  0  0  0  0  0  0  0  0  0  0  0
    1.2032   -0.7016    0.0000 C   0  0  0  0  0  0  0  0  0  0  0  0
    2.0837   -1.1964    0.0022 H   0  0  0  0  0  0  0  0  0  0  0  0
    1.1973    0.6950    0.0007 C   0  0  0  0  0  0  0  0  0  0  0  0
    2.0666    1.1890    0.0008 H   0  0  0  0  0  0  0  0  0  0  0  0
  1  5  1  0
  5  8  1  0
  1  2  1  0
  1  3  1  0
  1  4  1  0
  5  6  1  0
  5  7  1  0
  8  9  1  0
  8 10  1  0
  8 11  1  0
 12 16  1  0
 16 17  2  0
 17 19  1  0
 19 21  2  0
 21 23  1  0
 23 25  2  0
 25 16  1  0
 12 13  1  0
 12 14  1  0
 12 15  1  0
 17 18  1  0
 19 20  1  0
 21 22  1  0
 23 24  1  0
 25 26  1  0
M  CHG  1   8   1
M  END
>  <PDB_ID>  (1501) 
pdb1yad

>  <RESIDUE_NAME>  (1501) 
LYS   PHE

>  <FRAG_NAME>  (1501) 
ETAM   MBZ

>  <FRAG_ATOM_NUM>  (1501) 
fragi: 11  fragj: 15

>  <atom.prop.CHAIN_ID>  (1501) 
A A A A A A A A A A A Z Z Z Z Z Z Z Z Z Z Z Z Z Z Z

>  <atom.prop.IS_HEAVY_ATOM>  (1501) 
1 0 0 0 1 0 0 1 0 0 0 1 0 0 0 1 1 0 1 0 1 0 1 0 1 0

>  <DIFUSE_FUNC_ATOM>  (1501) 
n/a

>  <FINAL_SINGLE_POINT_ENERGY>  (1501) 
0

>  <NONCOV_INTER_ENERGY_QM>  (1501) 
0

>  <FF_Energy>  (1501) 
-4.94

>  <QM_Energy>  (1501) 
-13.04

>  <source>  (1501) 
ETAM_MBZ

>  <Index>  (1501) 
15014

$$$$
ETAM-pdb1ya7-L-LYS-32:MBZ-pdb1ya7-L-PHE-35
     RDKit          3D

 26 25  0  0  0  0  0  0  0  0999 V2000
   -2.5349   -1.6295   -3.4083 C   0  0  0  0  0  0  0  0  0  0  0  0
   -3.1160   -2.3573   -3.7524 H   0  0  0  0  0  0  0  0  0  0  0  0
   -2.6264   -1.5421   -2.4240 H   0  0  0  0  0  0  0  0  0  0  0  0
   -1.4974   -1.8610   -3.6496 H   0  0  0  0  0  0  0  0  0  0  0  0
   -2.9440   -0.3312   -4.0532 C   0  0  0  0  0  0  0  0  0  0  0  0
   -2.4645   -0.2349   -4.9279 H   0  0  0  0  0  0  0  0  0  0  0  0
   -3.9321   -0.3457   -4.2204 H   0  0  0  0  0  0  0  0  0  0  0  0
   -2.6104    0.8050   -3.1825 N   0  0  0  0  0  4  0  0  0  0  0  0
   -2.5361    1.6425   -3.7291 H   0  0  0  0  0  0  0  0  0  0  0  0
   -3.3269    0.9275   -2.4920 H   0  0  0  0  0  0  0  0  0  0  0  0
   -1.7366    0.6354   -2.7209 H   0  0  0  0  0  0  0  0  0  0  0  0
    0.0073    2.9064   -0.0422 C   0  0  0  0  0  0  0  0  0  0  0  0
    0.7731    3.2151    0.5008 H   0  0  0  0  0  0  0  0  0  0  0  0
   -0.8512    3.2242    0.3303 H   0  0  0  0  0  0  0  0  0  0  0  0
    0.1142    3.3284   -1.0416 H   0  0  0  0  0  0  0  0  0  0  0  0
   -0.0033    1.4026   -0.0179 C   0  0  0  0  0  0  0  0  0  0  0  0
   -1.1980    0.7088   -0.0093 C   0  0  0  0  0  0  0  0  0  0  0  0
   -2.0651    1.1836   -0.0103 H   0  0  0  0  0  0  0  0  0  0  0  0
   -1.1985   -0.7078    0.0000 C   0  0  0  0  0  0  0  0  0  0  0  0
   -2.0753   -1.1911   -0.0055 H   0  0  0  0  0  0  0  0  0  0  0  0
    0.0044   -1.3961    0.0187 C   0  0  0  0  0  0  0  0  0  0  0  0
    0.0077   -2.3939    0.0454 H   0  0  0  0  0  0  0  0  0  0  0  0
    1.1985   -0.6910   -0.0000 C   0  0  0  0  0  0  0  0  0  0  0  0
    2.0838   -1.1957   -0.0186 H   0  0  0  0  0  0  0  0  0  0  0  0
    1.1969    0.6835    0.0085 C   0  0  0  0  0  0  0  0  0  0  0  0
    2.0626    1.1877    0.0327 H   0  0  0  0  0  0  0  0  0  0  0  0
  1  5  1  0
  5  8  1  0
  1  2  1  0
  1  3  1  0
  1  4  1  0
  5  6  1  0
  5  7  1  0
  8  9  1  0
  8 10  1  0
  8 11  1  0
 12 16  1  0
 16 17  2  0
 17 19  1  0
 19 21  2  0
 21 23  1  0
 23 25  2  0
 25 16  1  0
 12 13  1  0
 12 14  1  0
 12 15  1  0
 17 18  1  0
 19 20  1  0
 21 22  1  0
 23 24  1  0
 25 26  1  0
M  CHG  1   8   1
M  END
>  <PDB_ID>  (1502) 
pdb1ya7

>  <RESIDUE_NAME>  (1502) 
LYS   PHE

>  <FRAG_NAME>  (1502) 
ETAM   MBZ

>  <FRAG_ATOM_NUM>  (1502) 
fragi: 11  fragj: 15

>  <atom.prop.CHAIN_ID>  (1502) 
A A A A A A A A A A A Z Z Z Z Z Z Z Z Z Z Z Z Z Z Z

>  <atom.prop.IS_HEAVY_ATOM>  (1502) 
1 0 0 0 1 0 0 1 0 0 0 1 0 0 0 1 1 0 1 0 1 0 1 0 1 0

>  <DIFUSE_FUNC_ATOM>  (1502) 
n/a

>  <FINAL_SINGLE_POINT_ENERGY>  (1502) 
0

>  <NONCOV_INTER_ENERGY_QM>  (1502) 
0

>  <FF_Energy>  (1502) 
-4.43

>  <QM_Energy>  (1502) 
-9.52

>  <source>  (1502) 
ETAM_MBZ

>  <Index>  (1502) 
15027

$$$$
ETAM-pdb1yav-A-LYS-44:MBZ-pdb1yav-B-PHE-73
     RDKit          3D

 26 25  0  0  0  0  0  0  0  0999 V2000
    2.0382   -4.5971   -3.0262 C   0  0  0  0  0  0  0  0  0  0  0  0
    1.5485   -4.9281   -3.8309 H   0  0  0  0  0  0  0  0  0  0  0  0
    2.8003   -5.2088   -2.8212 H   0  0  0  0  0  0  0  0  0  0  0  0
    2.4320   -3.6033   -3.2393 H   0  0  0  0  0  0  0  0  0  0  0  0
    1.0761   -4.6108   -1.8365 C   0  0  0  0  0  0  0  0  0  0  0  0
    0.3202   -3.9747   -2.0273 H   0  0  0  0  0  0  0  0  0  0  0  0
    0.6936   -5.5379   -1.7419 H   0  0  0  0  0  0  0  0  0  0  0  0
    1.7321   -4.2207   -0.5541 N   0  0  0  0  0  4  0  0  0  0  0  0
    1.2948   -3.3962   -0.1983 H   0  0  0  0  0  0  0  0  0  0  0  0
    1.6346   -4.9645    0.1060 H   0  0  0  0  0  0  0  0  0  0  0  0
    2.7013   -4.0432   -0.7199 H   0  0  0  0  0  0  0  0  0  0  0  0
    0.0080    2.9117   -0.0102 C   0  0  0  0  0  0  0  0  0  0  0  0
   -0.2202    3.2138   -0.9245 H   0  0  0  0  0  0  0  0  0  0  0  0
    0.9125    3.2158    0.2521 H   0  0  0  0  0  0  0  0  0  0  0  0
   -0.7057    3.3669    0.6764 H   0  0  0  0  0  0  0  0  0  0  0  0
    0.0005    1.4074   -0.0000 C   0  0  0  0  0  0  0  0  0  0  0  0
   -1.1960    0.6972   -0.0005 C   0  0  0  0  0  0  0  0  0  0  0  0
   -2.0638    1.1848   -0.0030 H   0  0  0  0  0  0  0  0  0  0  0  0
   -1.2029   -0.7008   -0.0000 C   0  0  0  0  0  0  0  0  0  0  0  0
   -2.0810   -1.1889    0.0014 H   0  0  0  0  0  0  0  0  0  0  0  0
   -0.0027   -1.4000    0.0007 C   0  0  0  0  0  0  0  0  0  0  0  0
   -0.0056   -2.3970    0.0017 H   0  0  0  0  0  0  0  0  0  0  0  0
    1.2029   -0.7009    0.0000 C   0  0  0  0  0  0  0  0  0  0  0  0
    2.0825   -1.1965    0.0014 H   0  0  0  0  0  0  0  0  0  0  0  0
    1.1982    0.6970   -0.0002 C   0  0  0  0  0  0  0  0  0  0  0  0
    2.0670    1.1904   -0.0009 H   0  0  0  0  0  0  0  0  0  0  0  0
  1  5  1  0
  5  8  1  0
  1  2  1  0
  1  3  1  0
  1  4  1  0
  5  6  1  0
  5  7  1  0
  8  9  1  0
  8 10  1  0
  8 11  1  0
 12 16  1  0
 16 17  2  0
 17 19  1  0
 19 21  2  0
 21 23  1  0
 23 25  2  0
 25 16  1  0
 12 13  1  0
 12 14  1  0
 12 15  1  0
 17 18  1  0
 19 20  1  0
 21 22  1  0
 23 24  1  0
 25 26  1  0
M  CHG  1   8   1
M  END
>  <PDB_ID>  (1503) 
pdb1yav

>  <RESIDUE_NAME>  (1503) 
LYS   PHE

>  <FRAG_NAME>  (1503) 
ETAM   MBZ

>  <FRAG_ATOM_NUM>  (1503) 
fragi: 11  fragj: 15

>  <atom.prop.CHAIN_ID>  (1503) 
A A A A A A A A A A A Z Z Z Z Z Z Z Z Z Z Z Z Z Z Z

>  <atom.prop.IS_HEAVY_ATOM>  (1503) 
1 0 0 0 1 0 0 1 0 0 0 1 0 0 0 1 1 0 1 0 1 0 1 0 1 0

>  <DIFUSE_FUNC_ATOM>  (1503) 
n/a

>  <FINAL_SINGLE_POINT_ENERGY>  (1503) 
0

>  <NONCOV_INTER_ENERGY_QM>  (1503) 
0

>  <FF_Energy>  (1503) 
1.92

>  <QM_Energy>  (1503) 
-4.58

>  <source>  (1503) 
ETAM_MBZ

>  <Index>  (1503) 
15032

$$$$
ETAM-pdb1ybi-A-LYS-99:MBZ-pdb1ybi-A-PHE-106
     RDKit          3D

 26 25  0  0  0  0  0  0  0  0999 V2000
    0.0559   -2.7887   -3.6493 C   0  0  0  0  0  0  0  0  0  0  0  0
   -0.5807   -3.1464   -2.9716 H   0  0  0  0  0  0  0  0  0  0  0  0
   -0.1293   -3.1953   -4.5403 H   0  0  0  0  0  0  0  0  0  0  0  0
   -0.0791   -1.7094   -3.7207 H   0  0  0  0  0  0  0  0  0  0  0  0
    1.4784   -3.1761   -3.2282 C   0  0  0  0  0  0  0  0  0  0  0  0
    1.4414   -3.5575   -2.2860 H   0  0  0  0  0  0  0  0  0  0  0  0
    1.8004   -3.9262   -3.8356 H   0  0  0  0  0  0  0  0  0  0  0  0
    2.4833   -2.0674   -3.2591 N   0  0  0  0  0  4  0  0  0  0  0  0
    2.2656   -1.4083   -2.5415 H   0  0  0  0  0  0  0  0  0  0  0  0
    3.3936   -2.4464   -3.1058 H   0  0  0  0  0  0  0  0  0  0  0  0
    2.4500   -1.6194   -4.1504 H   0  0  0  0  0  0  0  0  0  0  0  0
    0.0068    2.9107    0.0415 C   0  0  0  0  0  0  0  0  0  0  0  0
    0.7215    3.2016    0.6641 H   0  0  0  0  0  0  0  0  0  0  0  0
   -0.8822    3.2129    0.3579 H   0  0  0  0  0  0  0  0  0  0  0  0
    0.1936    3.3850   -0.9219 H   0  0  0  0  0  0  0  0  0  0  0  0
    0.0023    1.4052    0.0096 C   0  0  0  0  0  0  0  0  0  0  0  0
   -1.1929    0.6953    0.0007 C   0  0  0  0  0  0  0  0  0  0  0  0
   -2.0611    1.1819   -0.0067 H   0  0  0  0  0  0  0  0  0  0  0  0
   -1.1977   -0.7011    0.0000 C   0  0  0  0  0  0  0  0  0  0  0  0
   -2.0789   -1.1887    0.0066 H   0  0  0  0  0  0  0  0  0  0  0  0
   -0.0050   -1.3948   -0.0085 C   0  0  0  0  0  0  0  0  0  0  0  0
   -0.0057   -2.3941   -0.0212 H   0  0  0  0  0  0  0  0  0  0  0  0
    1.1977   -0.6994    0.0000 C   0  0  0  0  0  0  0  0  0  0  0  0
    2.0787   -1.1969    0.0092 H   0  0  0  0  0  0  0  0  0  0  0  0
    1.1955    0.6948   -0.0018 C   0  0  0  0  0  0  0  0  0  0  0  0
    2.0658    1.1872   -0.0126 H   0  0  0  0  0  0  0  0  0  0  0  0
  1  5  1  0
  5  8  1  0
  1  2  1  0
  1  3  1  0
  1  4  1  0
  5  6  1  0
  5  7  1  0
  8  9  1  0
  8 10  1  0
  8 11  1  0
 12 16  1  0
 16 17  2  0
 17 19  1  0
 19 21  2  0
 21 23  1  0
 23 25  2  0
 25 16  1  0
 12 13  1  0
 12 14  1  0
 12 15  1  0
 17 18  1  0
 19 20  1  0
 21 22  1  0
 23 24  1  0
 25 26  1  0
M  CHG  1   8   1
M  END
>  <PDB_ID>  (1504) 
pdb1ybi

>  <RESIDUE_NAME>  (1504) 
LYS   PHE

>  <FRAG_NAME>  (1504) 
ETAM   MBZ

>  <FRAG_ATOM_NUM>  (1504) 
fragi: 11  fragj: 15

>  <atom.prop.CHAIN_ID>  (1504) 
A A A A A A A A A A A Z Z Z Z Z Z Z Z Z Z Z Z Z Z Z

>  <atom.prop.IS_HEAVY_ATOM>  (1504) 
1 0 0 0 1 0 0 1 0 0 0 1 0 0 0 1 1 0 1 0 1 0 1 0 1 0

>  <DIFUSE_FUNC_ATOM>  (1504) 
n/a

>  <FINAL_SINGLE_POINT_ENERGY>  (1504) 
0

>  <NONCOV_INTER_ENERGY_QM>  (1504) 
0

>  <FF_Energy>  (1504) 
-3.08

>  <QM_Energy>  (1504) 
-8.53

>  <source>  (1504) 
ETAM_MBZ

>  <Index>  (1504) 
15051

$$$$
ETAM-pdb1y97-A-LYS-59:MBZ-pdb1y97-A-PHE-33
     RDKit          3D

 26 25  0  0  0  0  0  0  0  0999 V2000
   -1.0248   -1.6638    3.2146 C   0  0  0  0  0  0  0  0  0  0  0  0
   -1.7344   -2.1440    3.7371 H   0  0  0  0  0  0  0  0  0  0  0  0
   -1.3425   -1.5426    2.2701 H   0  0  0  0  0  0  0  0  0  0  0  0
   -0.9131   -0.6718    3.6523 H   0  0  0  0  0  0  0  0  0  0  0  0
    0.2480   -2.5197    3.2028 C   0  0  0  0  0  0  0  0  0  0  0  0
   -0.0157   -3.4969    3.3173 H   0  0  0  0  0  0  0  0  0  0  0  0
    0.6843   -2.4440    2.2854 H   0  0  0  0  0  0  0  0  0  0  0  0
    1.2987   -2.1878    4.2526 N   0  0  0  0  0  4  0  0  0  0  0  0
    1.3734   -2.9576    4.8779 H   0  0  0  0  0  0  0  0  0  0  0  0
    2.1648   -2.0291    3.7915 H   0  0  0  0  0  0  0  0  0  0  0  0
    1.0096   -1.3708    4.7402 H   0  0  0  0  0  0  0  0  0  0  0  0
   -0.0064    2.9379   -0.0799 C   0  0  0  0  0  0  0  0  0  0  0  0
   -0.1592    3.1905   -1.0249 H   0  0  0  0  0  0  0  0  0  0  0  0
    0.8755    3.2587    0.2353 H   0  0  0  0  0  0  0  0  0  0  0  0
   -0.7752    3.4173    0.5261 H   0  0  0  0  0  0  0  0  0  0  0  0
   -0.0041    1.4313   -0.0009 C   0  0  0  0  0  0  0  0  0  0  0  0
   -1.2048    0.6992    0.0037 C   0  0  0  0  0  0  0  0  0  0  0  0
   -2.0758    1.1787    0.0087 H   0  0  0  0  0  0  0  0  0  0  0  0
   -1.2069   -0.7150   -0.0000 C   0  0  0  0  0  0  0  0  0  0  0  0
   -2.0818   -1.2025   -0.0009 H   0  0  0  0  0  0  0  0  0  0  0  0
    0.0055   -1.4211   -0.0012 C   0  0  0  0  0  0  0  0  0  0  0  0
   -0.0008   -2.4132   -0.0036 H   0  0  0  0  0  0  0  0  0  0  0  0
    1.2069   -0.7154    0.0000 C   0  0  0  0  0  0  0  0  0  0  0  0
    2.0932   -1.1916    0.0035 H   0  0  0  0  0  0  0  0  0  0  0  0
    1.2033    0.7210   -0.0017 C   0  0  0  0  0  0  0  0  0  0  0  0
    2.0701    1.1983   -0.0043 H   0  0  0  0  0  0  0  0  0  0  0  0
  1  5  1  0
  5  8  1  0
  1  2  1  0
  1  3  1  0
  1  4  1  0
  5  6  1  0
  5  7  1  0
  8  9  1  0
  8 10  1  0
  8 11  1  0
 12 16  1  0
 16 17  2  0
 17 19  1  0
 19 21  2  0
 21 23  1  0
 23 25  2  0
 25 16  1  0
 12 13  1  0
 12 14  1  0
 12 15  1  0
 17 18  1  0
 19 20  1  0
 21 22  1  0
 23 24  1  0
 25 26  1  0
M  CHG  1   8   1
M  END
>  <PDB_ID>  (1505) 
pdb1y97

>  <RESIDUE_NAME>  (1505) 
LYS   PHE

>  <FRAG_NAME>  (1505) 
ETAM   MBZ

>  <FRAG_ATOM_NUM>  (1505) 
fragi: 11  fragj: 15

>  <atom.prop.CHAIN_ID>  (1505) 
A A A A A A A A A A A Z Z Z Z Z Z Z Z Z Z Z Z Z Z Z

>  <atom.prop.IS_HEAVY_ATOM>  (1505) 
1 0 0 0 1 0 0 1 0 0 0 1 0 0 0 1 1 0 1 0 1 0 1 0 1 0

>  <DIFUSE_FUNC_ATOM>  (1505) 
n/a

>  <FINAL_SINGLE_POINT_ENERGY>  (1505) 
0

>  <NONCOV_INTER_ENERGY_QM>  (1505) 
0

>  <FF_Energy>  (1505) 
-0.94

>  <QM_Energy>  (1505) 
-6.36

>  <source>  (1505) 
ETAM_MBZ

>  <Index>  (1505) 
15058

$$$$
ETAM-pdb3c5j-A-GLU-3:MBZ-pdb3c5j-B-PHE-18
     RDKit          3D

 26 25  0  0  0  0  0  0  0  0999 V2000
    3.4049   -1.0885    2.7151 C   0  0  0  0  0  0  0  0  0  0  0  0
    3.2099   -1.5850    1.8880 H   0  0  0  0  0  0  0  0  0  0  0  0
    4.2527   -1.3725    3.1266 H   0  0  0  0  0  0  0  0  0  0  0  0
    2.6046   -1.2988    3.4248 H   0  0  0  0  0  0  0  0  0  0  0  0
    3.5338    0.3874    2.3517 C   0  0  0  0  0  0  0  0  0  0  0  0
    2.6387    0.7038    2.0258 H   0  0  0  0  0  0  0  0  0  0  0  0
    3.8274    0.9457    3.2407 H   0  0  0  0  0  0  0  0  0  0  0  0
    4.5324    0.5651    1.2588 N   0  0  0  0  0  4  0  0  0  0  0  0
    5.2946   -0.0595    1.4080 H   0  0  0  0  0  0  0  0  0  0  0  0
    4.0983    0.3655    0.3839 H   0  0  0  0  0  0  0  0  0  0  0  0
    4.8609    1.5062    1.2663 H   0  0  0  0  0  0  0  0  0  0  0  0
   -0.0040    2.9120    0.0408 C   0  0  0  0  0  0  0  0  0  0  0  0
   -0.7422    3.2307   -0.5331 H   0  0  0  0  0  0  0  0  0  0  0  0
    0.8723    3.2277   -0.2871 H   0  0  0  0  0  0  0  0  0  0  0  0
   -0.1549    3.3243    1.0385 H   0  0  0  0  0  0  0  0  0  0  0  0
   -0.0005    1.4050   -0.0001 C   0  0  0  0  0  0  0  0  0  0  0  0
   -1.1976    0.6922   -0.0001 C   0  0  0  0  0  0  0  0  0  0  0  0
   -2.0651    1.1838   -0.0017 H   0  0  0  0  0  0  0  0  0  0  0  0
   -1.2044   -0.6988    0.0000 C   0  0  0  0  0  0  0  0  0  0  0  0
   -2.0801   -1.1928    0.0006 H   0  0  0  0  0  0  0  0  0  0  0  0
    0.0001   -1.3975    0.0013 C   0  0  0  0  0  0  0  0  0  0  0  0
   -0.0036   -2.3950    0.0030 H   0  0  0  0  0  0  0  0  0  0  0  0
    1.2044   -0.6987    0.0000 C   0  0  0  0  0  0  0  0  0  0  0  0
    2.0845   -1.1938    0.0011 H   0  0  0  0  0  0  0  0  0  0  0  0
    1.1980    0.6978   -0.0011 C   0  0  0  0  0  0  0  0  0  0  0  0
    2.0655    1.1933   -0.0035 H   0  0  0  0  0  0  0  0  0  0  0  0
  1  5  1  0
  5  8  1  0
  1  2  1  0
  1  3  1  0
  1  4  1  0
  5  6  1  0
  5  7  1  0
  8  9  1  0
  8 10  1  0
  8 11  1  0
 12 16  1  0
 16 17  2  0
 17 19  1  0
 19 21  2  0
 21 23  1  0
 23 25  2  0
 25 16  1  0
 12 13  1  0
 12 14  1  0
 12 15  1  0
 17 18  1  0
 19 20  1  0
 21 22  1  0
 23 24  1  0
 25 26  1  0
M  CHG  1   8   1
M  END
>  <PDB_ID>  (1506) 
pdb3c5j

>  <RESIDUE_NAME>  (1506) 
GLU   PHE

>  <FRAG_NAME>  (1506) 
ETAM   MBZ

>  <FRAG_ATOM_NUM>  (1506) 
fragi: 11  fragj: 15

>  <atom.prop.CHAIN_ID>  (1506) 
A A A A A A A A A A A Z Z Z Z Z Z Z Z Z Z Z Z Z Z Z

>  <atom.prop.IS_HEAVY_ATOM>  (1506) 
1 0 0 0 1 0 0 1 0 0 0 1 0 0 0 1 1 0 1 0 1 0 1 0 1 0

>  <DIFUSE_FUNC_ATOM>  (1506) 
n/a

>  <FINAL_SINGLE_POINT_ENERGY>  (1506) 
0

>  <NONCOV_INTER_ENERGY_QM>  (1506) 
0

>  <FF_Energy>  (1506) 
1.31

>  <QM_Energy>  (1506) 
-4.67

>  <source>  (1506) 
ETAM_MBZ

>  <Index>  (1506) 
15072

$$$$
ETAM-pdb1y7b-D-LYS-93:MBZ-pdb1y7b-C-PHE-376
     RDKit          3D

 26 25  0  0  0  0  0  0  0  0999 V2000
   -0.1723    0.1542   -3.7475 C   0  0  0  0  0  0  0  0  0  0  0  0
   -0.4079   -0.1434   -2.8372 H   0  0  0  0  0  0  0  0  0  0  0  0
   -0.3349   -0.5507   -4.4172 H   0  0  0  0  0  0  0  0  0  0  0  0
   -0.7570    1.0384   -4.0015 H   0  0  0  0  0  0  0  0  0  0  0  0
    1.3373    0.4918   -3.7659 C   0  0  0  0  0  0  0  0  0  0  0  0
    1.5528    0.9323   -4.6257 H   0  0  0  0  0  0  0  0  0  0  0  0
    1.5380    1.0861   -2.9999 H   0  0  0  0  0  0  0  0  0  0  0  0
    2.1363   -0.7750   -3.6386 N   0  0  0  0  0  4  0  0  0  0  0  0
    1.5457   -1.5522   -3.8421 H   0  0  0  0  0  0  0  0  0  0  0  0
    2.8960   -0.7457   -4.2842 H   0  0  0  0  0  0  0  0  0  0  0  0
    2.4845   -0.8469   -2.7065 H   0  0  0  0  0  0  0  0  0  0  0  0
   -0.0329    2.9171    0.0819 C   0  0  0  0  0  0  0  0  0  0  0  0
   -0.7830    3.2442   -0.4542 H   0  0  0  0  0  0  0  0  0  0  0  0
    0.8327    3.2571   -0.2204 H   0  0  0  0  0  0  0  0  0  0  0  0
   -0.1835    3.2613    1.1052 H   0  0  0  0  0  0  0  0  0  0  0  0
   -0.0082    1.4132   -0.0034 C   0  0  0  0  0  0  0  0  0  0  0  0
   -1.2156    0.7034    0.0010 C   0  0  0  0  0  0  0  0  0  0  0  0
   -2.0782    1.1857    0.0031 H   0  0  0  0  0  0  0  0  0  0  0  0
   -1.2150   -0.7068   -0.0000 C   0  0  0  0  0  0  0  0  0  0  0  0
   -2.0815   -1.2002    0.0024 H   0  0  0  0  0  0  0  0  0  0  0  0
    0.0064   -1.3985   -0.0019 C   0  0  0  0  0  0  0  0  0  0  0  0
   -0.0030   -2.4016   -0.0048 H   0  0  0  0  0  0  0  0  0  0  0  0
    1.2150   -0.7112    0.0000 C   0  0  0  0  0  0  0  0  0  0  0  0
    2.0932   -1.2043    0.0002 H   0  0  0  0  0  0  0  0  0  0  0  0
    1.2174    0.6998    0.0044 C   0  0  0  0  0  0  0  0  0  0  0  0
    2.0722    1.1943    0.0123 H   0  0  0  0  0  0  0  0  0  0  0  0
  1  5  1  0
  5  8  1  0
  1  2  1  0
  1  3  1  0
  1  4  1  0
  5  6  1  0
  5  7  1  0
  8  9  1  0
  8 10  1  0
  8 11  1  0
 12 16  1  0
 16 17  2  0
 17 19  1  0
 19 21  2  0
 21 23  1  0
 23 25  2  0
 25 16  1  0
 12 13  1  0
 12 14  1  0
 12 15  1  0
 17 18  1  0
 19 20  1  0
 21 22  1  0
 23 24  1  0
 25 26  1  0
M  CHG  1   8   1
M  END
>  <PDB_ID>  (1507) 
pdb1y7b

>  <RESIDUE_NAME>  (1507) 
LYS   PHE

>  <FRAG_NAME>  (1507) 
ETAM   MBZ

>  <FRAG_ATOM_NUM>  (1507) 
fragi: 11  fragj: 15

>  <atom.prop.CHAIN_ID>  (1507) 
A A A A A A A A A A A Z Z Z Z Z Z Z Z Z Z Z Z Z Z Z

>  <atom.prop.IS_HEAVY_ATOM>  (1507) 
1 0 0 0 1 0 0 1 0 0 0 1 0 0 0 1 1 0 1 0 1 0 1 0 1 0

>  <DIFUSE_FUNC_ATOM>  (1507) 
n/a

>  <FINAL_SINGLE_POINT_ENERGY>  (1507) 
0

>  <NONCOV_INTER_ENERGY_QM>  (1507) 
0

>  <FF_Energy>  (1507) 
-5.52

>  <QM_Energy>  (1507) 
-11.33

>  <source>  (1507) 
ETAM_MBZ

>  <Index>  (1507) 
15088

$$$$
ETAM-pdb1yag-G-LYS-117:MBZ-pdb1yag-G-PHE-39
     RDKit          3D

 26 25  0  0  0  0  0  0  0  0999 V2000
   -0.5561   -1.2605   -4.0621 C   0  0  0  0  0  0  0  0  0  0  0  0
   -0.9378   -1.9024   -3.4044 H   0  0  0  0  0  0  0  0  0  0  0  0
   -0.1454   -1.7482   -4.8248 H   0  0  0  0  0  0  0  0  0  0  0  0
   -1.3551   -0.6214   -4.4381 H   0  0  0  0  0  0  0  0  0  0  0  0
    0.5323   -0.4470   -3.3673 C   0  0  0  0  0  0  0  0  0  0  0  0
    0.9292    0.1909   -4.0251 H   0  0  0  0  0  0  0  0  0  0  0  0
    0.1233    0.0617   -2.6115 H   0  0  0  0  0  0  0  0  0  0  0  0
    1.6088   -1.3364   -2.8352 N   0  0  0  0  0  4  0  0  0  0  0  0
    1.1918   -2.1324   -2.3984 H   0  0  0  0  0  0  0  0  0  0  0  0
    2.1925   -1.6333   -3.5889 H   0  0  0  0  0  0  0  0  0  0  0  0
    2.1523   -0.8307   -2.1667 H   0  0  0  0  0  0  0  0  0  0  0  0
   -0.0072    2.8674    0.0017 C   0  0  0  0  0  0  0  0  0  0  0  0
    0.9114    3.1833    0.2000 H   0  0  0  0  0  0  0  0  0  0  0  0
   -0.6438    3.1755    0.6964 H   0  0  0  0  0  0  0  0  0  0  0  0
   -0.3130    3.3019   -0.9500 H   0  0  0  0  0  0  0  0  0  0  0  0
   -0.0019    1.3906   -0.0042 C   0  0  0  0  0  0  0  0  0  0  0  0
   -1.2034    0.6849    0.0012 C   0  0  0  0  0  0  0  0  0  0  0  0
   -2.0665    1.1815    0.0046 H   0  0  0  0  0  0  0  0  0  0  0  0
   -1.2104   -0.6982    0.0000 C   0  0  0  0  0  0  0  0  0  0  0  0
   -2.0756   -1.2011   -0.0027 H   0  0  0  0  0  0  0  0  0  0  0  0
    0.0090   -1.3918    0.0041 C   0  0  0  0  0  0  0  0  0  0  0  0
    0.0075   -2.3882    0.0100 H   0  0  0  0  0  0  0  0  0  0  0  0
    1.2104   -0.6855    0.0000 C   0  0  0  0  0  0  0  0  0  0  0  0
    2.0917   -1.1820   -0.0008 H   0  0  0  0  0  0  0  0  0  0  0  0
    1.1963    0.7001   -0.0012 C   0  0  0  0  0  0  0  0  0  0  0  0
    2.0605    1.2035   -0.0004 H   0  0  0  0  0  0  0  0  0  0  0  0
  1  5  1  0
  5  8  1  0
  1  2  1  0
  1  3  1  0
  1  4  1  0
  5  6  1  0
  5  7  1  0
  8  9  1  0
  8 10  1  0
  8 11  1  0
 12 16  1  0
 16 17  2  0
 17 19  1  0
 19 21  2  0
 21 23  1  0
 23 25  2  0
 25 16  1  0
 12 13  1  0
 12 14  1  0
 12 15  1  0
 17 18  1  0
 19 20  1  0
 21 22  1  0
 23 24  1  0
 25 26  1  0
M  CHG  1   8   1
M  END
>  <PDB_ID>  (1508) 
pdb1yag

>  <RESIDUE_NAME>  (1508) 
LYS   PHE

>  <FRAG_NAME>  (1508) 
ETAM   MBZ

>  <FRAG_ATOM_NUM>  (1508) 
fragi: 11  fragj: 15

>  <atom.prop.CHAIN_ID>  (1508) 
A A A A A A A A A A A Z Z Z Z Z Z Z Z Z Z Z Z Z Z Z

>  <atom.prop.IS_HEAVY_ATOM>  (1508) 
1 0 0 0 1 0 0 1 0 0 0 1 0 0 0 1 1 0 1 0 1 0 1 0 1 0

>  <DIFUSE_FUNC_ATOM>  (1508) 
n/a

>  <FINAL_SINGLE_POINT_ENERGY>  (1508) 
0

>  <NONCOV_INTER_ENERGY_QM>  (1508) 
0

>  <FF_Energy>  (1508) 
-4.12

>  <QM_Energy>  (1508) 
-13.43

>  <source>  (1508) 
ETAM_MBZ

>  <Index>  (1508) 
15096

$$$$
ETAM-pdb3c6f-C-LYS-218:MBZ-pdb3c6f-A-PHE-152
     RDKit          3D

 26 25  0  0  0  0  0  0  0  0999 V2000
   -1.0016   -5.8032    3.3582 C   0  0  0  0  0  0  0  0  0  0  0  0
   -1.8003   -5.6370    3.9299 H   0  0  0  0  0  0  0  0  0  0  0  0
   -0.2069   -5.9948    3.9271 H   0  0  0  0  0  0  0  0  0  0  0  0
   -1.1980   -6.6685    2.7250 H   0  0  0  0  0  0  0  0  0  0  0  0
   -0.7184   -4.5357    2.5436 C   0  0  0  0  0  0  0  0  0  0  0  0
   -0.3151   -3.8449    3.1578 H   0  0  0  0  0  0  0  0  0  0  0  0
   -0.0393   -4.7583    1.8323 H   0  0  0  0  0  0  0  0  0  0  0  0
   -1.9352   -3.9680    1.8988 N   0  0  0  0  0  4  0  0  0  0  0  0
   -2.5964   -4.7000    1.7382 H   0  0  0  0  0  0  0  0  0  0  0  0
   -2.3375   -3.2780    2.5003 H   0  0  0  0  0  0  0  0  0  0  0  0
   -1.6830   -3.5472    1.0281 H   0  0  0  0  0  0  0  0  0  0  0  0
   -0.0031    2.9023   -0.0194 C   0  0  0  0  0  0  0  0  0  0  0  0
    0.8604    3.2216    0.3350 H   0  0  0  0  0  0  0  0  0  0  0  0
   -0.7626    3.2217    0.5224 H   0  0  0  0  0  0  0  0  0  0  0  0
   -0.1194    3.3121   -1.0227 H   0  0  0  0  0  0  0  0  0  0  0  0
    0.0001    1.4054    0.0091 C   0  0  0  0  0  0  0  0  0  0  0  0
   -1.2065    0.6939   -0.0048 C   0  0  0  0  0  0  0  0  0  0  0  0
   -2.0685    1.1877   -0.0196 H   0  0  0  0  0  0  0  0  0  0  0  0
   -1.2141   -0.6992    0.0000 C   0  0  0  0  0  0  0  0  0  0  0  0
   -2.0846   -1.1949    0.0039 H   0  0  0  0  0  0  0  0  0  0  0  0
   -0.0006   -1.3984    0.0013 C   0  0  0  0  0  0  0  0  0  0  0  0
   -0.0041   -2.3955    0.0032 H   0  0  0  0  0  0  0  0  0  0  0  0
    1.2141   -0.6991   -0.0000 C   0  0  0  0  0  0  0  0  0  0  0  0
    2.0892   -1.1978    0.0049 H   0  0  0  0  0  0  0  0  0  0  0  0
    1.2069    0.6974   -0.0057 C   0  0  0  0  0  0  0  0  0  0  0  0
    2.0699    1.1961   -0.0214 H   0  0  0  0  0  0  0  0  0  0  0  0
  1  5  1  0
  5  8  1  0
  1  2  1  0
  1  3  1  0
  1  4  1  0
  5  6  1  0
  5  7  1  0
  8  9  1  0
  8 10  1  0
  8 11  1  0
 12 16  1  0
 16 17  2  0
 17 19  1  0
 19 21  2  0
 21 23  1  0
 23 25  2  0
 25 16  1  0
 12 13  1  0
 12 14  1  0
 12 15  1  0
 17 18  1  0
 19 20  1  0
 21 22  1  0
 23 24  1  0
 25 26  1  0
M  CHG  1   8   1
M  END
>  <PDB_ID>  (1509) 
pdb3c6f

>  <RESIDUE_NAME>  (1509) 
LYS   PHE

>  <FRAG_NAME>  (1509) 
ETAM   MBZ

>  <FRAG_ATOM_NUM>  (1509) 
fragi: 11  fragj: 15

>  <atom.prop.CHAIN_ID>  (1509) 
A A A A A A A A A A A Z Z Z Z Z Z Z Z Z Z Z Z Z Z Z

>  <atom.prop.IS_HEAVY_ATOM>  (1509) 
1 0 0 0 1 0 0 1 0 0 0 1 0 0 0 1 1 0 1 0 1 0 1 0 1 0

>  <DIFUSE_FUNC_ATOM>  (1509) 
n/a

>  <FINAL_SINGLE_POINT_ENERGY>  (1509) 
0

>  <NONCOV_INTER_ENERGY_QM>  (1509) 
0

>  <FF_Energy>  (1509) 
-0.08

>  <QM_Energy>  (1509) 
-5.19

>  <source>  (1509) 
ETAM_MBZ

>  <Index>  (1509) 
15105

$$$$
ETAM-pdb3c7x-A-LYS-485:MBZ-pdb3c7x-A-PHE-474
     RDKit          3D

 26 25  0  0  0  0  0  0  0  0999 V2000
    0.9764    0.4620   -4.2231 C   0  0  0  0  0  0  0  0  0  0  0  0
    0.5358    0.8046   -5.0486 H   0  0  0  0  0  0  0  0  0  0  0  0
    1.5769   -0.3008   -4.4487 H   0  0  0  0  0  0  0  0  0  0  0  0
    1.5742    1.2626   -3.7876 H   0  0  0  0  0  0  0  0  0  0  0  0
   -0.0907   -0.0252   -3.2677 C   0  0  0  0  0  0  0  0  0  0  0  0
    0.3459   -0.4235   -2.4618 H   0  0  0  0  0  0  0  0  0  0  0  0
   -0.6615    0.7471   -2.9895 H   0  0  0  0  0  0  0  0  0  0  0  0
   -0.9515   -1.0571   -3.9149 N   0  0  0  0  0  4  0  0  0  0  0  0
   -1.5144   -0.6237   -4.6170 H   0  0  0  0  0  0  0  0  0  0  0  0
   -0.3714   -1.7556   -4.3327 H   0  0  0  0  0  0  0  0  0  0  0  0
   -1.5394   -1.4766   -3.2246 H   0  0  0  0  0  0  0  0  0  0  0  0
    0.0022    2.9009    0.0007 C   0  0  0  0  0  0  0  0  0  0  0  0
   -0.8787    3.2102   -0.3273 H   0  0  0  0  0  0  0  0  0  0  0  0
    0.7327    3.2091   -0.5919 H   0  0  0  0  0  0  0  0  0  0  0  0
    0.1639    3.3447    0.9831 H   0  0  0  0  0  0  0  0  0  0  0  0
    0.0005    1.4017   -0.0003 C   0  0  0  0  0  0  0  0  0  0  0  0
   -1.1978    0.6951    0.0006 C   0  0  0  0  0  0  0  0  0  0  0  0
   -2.0637    1.1831    0.0003 H   0  0  0  0  0  0  0  0  0  0  0  0
   -1.2021   -0.6999    0.0000 C   0  0  0  0  0  0  0  0  0  0  0  0
   -2.0770   -1.1930    0.0007 H   0  0  0  0  0  0  0  0  0  0  0  0
    0.0022   -1.3948    0.0003 C   0  0  0  0  0  0  0  0  0  0  0  0
   -0.0017   -2.3933   -0.0001 H   0  0  0  0  0  0  0  0  0  0  0  0
    1.2021   -0.6978   -0.0000 C   0  0  0  0  0  0  0  0  0  0  0  0
    2.0842   -1.1924    0.0019 H   0  0  0  0  0  0  0  0  0  0  0  0
    1.1951    0.6958   -0.0006 C   0  0  0  0  0  0  0  0  0  0  0  0
    2.0644    1.1913   -0.0019 H   0  0  0  0  0  0  0  0  0  0  0  0
  1  5  1  0
  5  8  1  0
  1  2  1  0
  1  3  1  0
  1  4  1  0
  5  6  1  0
  5  7  1  0
  8  9  1  0
  8 10  1  0
  8 11  1  0
 12 16  1  0
 16 17  2  0
 17 19  1  0
 19 21  2  0
 21 23  1  0
 23 25  2  0
 25 16  1  0
 12 13  1  0
 12 14  1  0
 12 15  1  0
 17 18  1  0
 19 20  1  0
 21 22  1  0
 23 24  1  0
 25 26  1  0
M  CHG  1   8   1
M  END
>  <PDB_ID>  (1510) 
pdb3c7x

>  <RESIDUE_NAME>  (1510) 
LYS   PHE

>  <FRAG_NAME>  (1510) 
ETAM   MBZ

>  <FRAG_ATOM_NUM>  (1510) 
fragi: 11  fragj: 15

>  <atom.prop.CHAIN_ID>  (1510) 
A A A A A A A A A A A Z Z Z Z Z Z Z Z Z Z Z Z Z Z Z

>  <atom.prop.IS_HEAVY_ATOM>  (1510) 
1 0 0 0 1 0 0 1 0 0 0 1 0 0 0 1 1 0 1 0 1 0 1 0 1 0

>  <DIFUSE_FUNC_ATOM>  (1510) 
n/a

>  <FINAL_SINGLE_POINT_ENERGY>  (1510) 
0

>  <NONCOV_INTER_ENERGY_QM>  (1510) 
0

>  <FF_Energy>  (1510) 
-5.44

>  <QM_Energy>  (1510) 
-11.19

>  <source>  (1510) 
ETAM_MBZ

>  <Index>  (1510) 
15110

$$$$
ETAM-pdb1ygg-A-LYS-213:MBZ-pdb1ygg-A-PHE-413
     RDKit          3D

 26 25  0  0  0  0  0  0  0  0999 V2000
   -0.6019   -1.0835    3.5929 C   0  0  0  0  0  0  0  0  0  0  0  0
   -0.4368   -0.3924    2.8990 H   0  0  0  0  0  0  0  0  0  0  0  0
   -0.6509   -0.6687    4.4943 H   0  0  0  0  0  0  0  0  0  0  0  0
   -1.5465   -1.5834    3.3788 H   0  0  0  0  0  0  0  0  0  0  0  0
    0.5826   -2.0687    3.5808 C   0  0  0  0  0  0  0  0  0  0  0  0
    0.4235   -2.7657    4.2771 H   0  0  0  0  0  0  0  0  0  0  0  0
    0.6315   -2.4954    2.6805 H   0  0  0  0  0  0  0  0  0  0  0  0
    1.8708   -1.3651    3.8676 N   0  0  0  0  0  4  0  0  0  0  0  0
    1.6794   -0.5216    4.3665 H   0  0  0  0  0  0  0  0  0  0  0  0
    2.4534   -1.9595    4.4197 H   0  0  0  0  0  0  0  0  0  0  0  0
    2.3273   -1.1514    3.0053 H   0  0  0  0  0  0  0  0  0  0  0  0
   -0.0051    2.8888   -0.1298 C   0  0  0  0  0  0  0  0  0  0  0  0
    0.9260    3.2068   -0.1121 H   0  0  0  0  0  0  0  0  0  0  0  0
   -0.5374    3.2621    0.6099 H   0  0  0  0  0  0  0  0  0  0  0  0
   -0.4548    3.2202   -1.0658 H   0  0  0  0  0  0  0  0  0  0  0  0
    0.0057    1.3991    0.0056 C   0  0  0  0  0  0  0  0  0  0  0  0
   -1.1968    0.6870    0.0042 C   0  0  0  0  0  0  0  0  0  0  0  0
   -2.0605    1.1799    0.0051 H   0  0  0  0  0  0  0  0  0  0  0  0
   -1.1992   -0.7002    0.0000 C   0  0  0  0  0  0  0  0  0  0  0  0
   -2.0790   -1.1941    0.0065 H   0  0  0  0  0  0  0  0  0  0  0  0
   -0.0053   -1.3901   -0.0111 C   0  0  0  0  0  0  0  0  0  0  0  0
   -0.0023   -2.3898   -0.0275 H   0  0  0  0  0  0  0  0  0  0  0  0
    1.1992   -0.6925    0.0000 C   0  0  0  0  0  0  0  0  0  0  0  0
    2.0785   -1.1924    0.0086 H   0  0  0  0  0  0  0  0  0  0  0  0
    1.1965    0.6966    0.0013 C   0  0  0  0  0  0  0  0  0  0  0  0
    2.0665    1.1909   -0.0015 H   0  0  0  0  0  0  0  0  0  0  0  0
  1  5  1  0
  5  8  1  0
  1  2  1  0
  1  3  1  0
  1  4  1  0
  5  6  1  0
  5  7  1  0
  8  9  1  0
  8 10  1  0
  8 11  1  0
 12 16  1  0
 16 17  2  0
 17 19  1  0
 19 21  2  0
 21 23  1  0
 23 25  2  0
 25 16  1  0
 12 13  1  0
 12 14  1  0
 12 15  1  0
 17 18  1  0
 19 20  1  0
 21 22  1  0
 23 24  1  0
 25 26  1  0
M  CHG  1   8   1
M  END
>  <PDB_ID>  (1511) 
pdb1ygg

>  <RESIDUE_NAME>  (1511) 
LYS   PHE

>  <FRAG_NAME>  (1511) 
ETAM   MBZ

>  <FRAG_ATOM_NUM>  (1511) 
fragi: 11  fragj: 15

>  <atom.prop.CHAIN_ID>  (1511) 
A A A A A A A A A A A Z Z Z Z Z Z Z Z Z Z Z Z Z Z Z

>  <atom.prop.IS_HEAVY_ATOM>  (1511) 
1 0 0 0 1 0 0 1 0 0 0 1 0 0 0 1 1 0 1 0 1 0 1 0 1 0

>  <DIFUSE_FUNC_ATOM>  (1511) 
n/a

>  <FINAL_SINGLE_POINT_ENERGY>  (1511) 
0

>  <NONCOV_INTER_ENERGY_QM>  (1511) 
0

>  <FF_Energy>  (1511) 
-4.67

>  <QM_Energy>  (1511) 
-9.69

>  <source>  (1511) 
ETAM_MBZ

>  <Index>  (1511) 
15116

$$$$
ETAM-pdb1y8q-A-LYS-118:MBZ-pdb1y8q-A-PHE-122
     RDKit          3D

 26 25  0  0  0  0  0  0  0  0999 V2000
    0.4407    0.7622   -3.3532 C   0  0  0  0  0  0  0  0  0  0  0  0
    0.1467    0.9896   -2.4320 H   0  0  0  0  0  0  0  0  0  0  0  0
    0.0998    1.4304   -4.0045 H   0  0  0  0  0  0  0  0  0  0  0  0
    1.5303    0.7608   -3.3856 H   0  0  0  0  0  0  0  0  0  0  0  0
   -0.1265   -0.6054   -3.7195 C   0  0  0  0  0  0  0  0  0  0  0  0
    0.1768   -0.8445   -4.6476 H   0  0  0  0  0  0  0  0  0  0  0  0
    0.2363   -1.2901   -3.0782 H   0  0  0  0  0  0  0  0  0  0  0  0
   -1.6204   -0.6380   -3.6717 N   0  0  0  0  0  4  0  0  0  0  0  0
   -1.9823   -0.4586   -4.5848 H   0  0  0  0  0  0  0  0  0  0  0  0
   -1.9198   -1.5386   -3.3616 H   0  0  0  0  0  0  0  0  0  0  0  0
   -1.9437    0.0613   -3.0367 H   0  0  0  0  0  0  0  0  0  0  0  0
   -0.0023    2.9095    0.0284 C   0  0  0  0  0  0  0  0  0  0  0  0
   -0.5724    3.2300   -0.7122 H   0  0  0  0  0  0  0  0  0  0  0  0
    0.9300    3.2192   -0.0722 H   0  0  0  0  0  0  0  0  0  0  0  0
   -0.3932    3.3294    0.9551 H   0  0  0  0  0  0  0  0  0  0  0  0
   -0.0014    1.4066   -0.0000 C   0  0  0  0  0  0  0  0  0  0  0  0
   -1.1996    0.6993   -0.0009 C   0  0  0  0  0  0  0  0  0  0  0  0
   -2.0664    1.1867   -0.0032 H   0  0  0  0  0  0  0  0  0  0  0  0
   -1.2076   -0.7008    0.0000 C   0  0  0  0  0  0  0  0  0  0  0  0
   -2.0812   -1.1916    0.0028 H   0  0  0  0  0  0  0  0  0  0  0  0
    0.0016   -1.4017   -0.0004 C   0  0  0  0  0  0  0  0  0  0  0  0
   -0.0033   -2.3970   -0.0014 H   0  0  0  0  0  0  0  0  0  0  0  0
    1.2076   -0.7004    0.0000 C   0  0  0  0  0  0  0  0  0  0  0  0
    2.0869   -1.1950    0.0006 H   0  0  0  0  0  0  0  0  0  0  0  0
    1.1995    0.6969    0.0014 C   0  0  0  0  0  0  0  0  0  0  0  0
    2.0663    1.1933    0.0025 H   0  0  0  0  0  0  0  0  0  0  0  0
  1  5  1  0
  5  8  1  0
  1  2  1  0
  1  3  1  0
  1  4  1  0
  5  6  1  0
  5  7  1  0
  8  9  1  0
  8 10  1  0
  8 11  1  0
 12 16  1  0
 16 17  2  0
 17 19  1  0
 19 21  2  0
 21 23  1  0
 23 25  2  0
 25 16  1  0
 12 13  1  0
 12 14  1  0
 12 15  1  0
 17 18  1  0
 19 20  1  0
 21 22  1  0
 23 24  1  0
 25 26  1  0
M  CHG  1   8   1
M  END
>  <PDB_ID>  (1512) 
pdb1y8q

>  <RESIDUE_NAME>  (1512) 
LYS   PHE

>  <FRAG_NAME>  (1512) 
ETAM   MBZ

>  <FRAG_ATOM_NUM>  (1512) 
fragi: 11  fragj: 15

>  <atom.prop.CHAIN_ID>  (1512) 
A A A A A A A A A A A Z Z Z Z Z Z Z Z Z Z Z Z Z Z Z

>  <atom.prop.IS_HEAVY_ATOM>  (1512) 
1 0 0 0 1 0 0 1 0 0 0 1 0 0 0 1 1 0 1 0 1 0 1 0 1 0

>  <DIFUSE_FUNC_ATOM>  (1512) 
n/a

>  <FINAL_SINGLE_POINT_ENERGY>  (1512) 
0

>  <NONCOV_INTER_ENERGY_QM>  (1512) 
0

>  <FF_Energy>  (1512) 
-4.88

>  <QM_Energy>  (1512) 
-11.15

>  <source>  (1512) 
ETAM_MBZ

>  <Index>  (1512) 
15151

$$$$
ETAM-pdb1yis-A-LYS-93:MBZ-pdb1yis-A-PHE-72
     RDKit          3D

 26 25  0  0  0  0  0  0  0  0999 V2000
    0.3910   -3.6135   -2.6564 C   0  0  0  0  0  0  0  0  0  0  0  0
    0.4600   -2.7807   -2.1212 H   0  0  0  0  0  0  0  0  0  0  0  0
    0.2249   -3.4055   -3.6124 H   0  0  0  0  0  0  0  0  0  0  0  0
    1.3267   -4.1660   -2.5714 H   0  0  0  0  0  0  0  0  0  0  0  0
   -0.7896   -4.4334   -2.1271 C   0  0  0  0  0  0  0  0  0  0  0  0
   -0.8012   -5.3201   -2.5984 H   0  0  0  0  0  0  0  0  0  0  0  0
   -0.6554   -4.5930   -1.1438 H   0  0  0  0  0  0  0  0  0  0  0  0
   -2.1003   -3.7486   -2.3372 N   0  0  0  0  0  4  0  0  0  0  0  0
   -2.1596   -3.4353   -3.2837 H   0  0  0  0  0  0  0  0  0  0  0  0
   -2.8415   -4.3913   -2.1475 H   0  0  0  0  0  0  0  0  0  0  0  0
   -2.1653   -2.9670   -1.7188 H   0  0  0  0  0  0  0  0  0  0  0  0
    0.0020    2.9061   -0.0006 C   0  0  0  0  0  0  0  0  0  0  0  0
   -0.4680    3.2129   -0.8141 H   0  0  0  0  0  0  0  0  0  0  0  0
    0.9421    3.2114    0.0076 H   0  0  0  0  0  0  0  0  0  0  0  0
   -0.4991    3.3478    0.8608 H   0  0  0  0  0  0  0  0  0  0  0  0
   -0.0000    1.4033   -0.0000 C   0  0  0  0  0  0  0  0  0  0  0  0
   -1.1967    0.6952    0.0008 C   0  0  0  0  0  0  0  0  0  0  0  0
   -2.0639    1.1858    0.0009 H   0  0  0  0  0  0  0  0  0  0  0  0
   -1.2032   -0.6973   -0.0000 C   0  0  0  0  0  0  0  0  0  0  0  0
   -2.0790   -1.1900    0.0011 H   0  0  0  0  0  0  0  0  0  0  0  0
    0.0012   -1.3975   -0.0009 C   0  0  0  0  0  0  0  0  0  0  0  0
   -0.0039   -2.3943   -0.0031 H   0  0  0  0  0  0  0  0  0  0  0  0
    1.2032   -0.6988    0.0000 C   0  0  0  0  0  0  0  0  0  0  0  0
    2.0841   -1.1939    0.0022 H   0  0  0  0  0  0  0  0  0  0  0  0
    1.1955    0.6950    0.0001 C   0  0  0  0  0  0  0  0  0  0  0  0
    2.0644    1.1909   -0.0008 H   0  0  0  0  0  0  0  0  0  0  0  0
  1  5  1  0
  5  8  1  0
  1  2  1  0
  1  3  1  0
  1  4  1  0
  5  6  1  0
  5  7  1  0
  8  9  1  0
  8 10  1  0
  8 11  1  0
 12 16  1  0
 16 17  2  0
 17 19  1  0
 19 21  2  0
 21 23  1  0
 23 25  2  0
 25 16  1  0
 12 13  1  0
 12 14  1  0
 12 15  1  0
 17 18  1  0
 19 20  1  0
 21 22  1  0
 23 24  1  0
 25 26  1  0
M  CHG  1   8   1
M  END
>  <PDB_ID>  (1513) 
pdb1yis

>  <RESIDUE_NAME>  (1513) 
LYS   PHE

>  <FRAG_NAME>  (1513) 
ETAM   MBZ

>  <FRAG_ATOM_NUM>  (1513) 
fragi: 11  fragj: 15

>  <atom.prop.CHAIN_ID>  (1513) 
A A A A A A A A A A A Z Z Z Z Z Z Z Z Z Z Z Z Z Z Z

>  <atom.prop.IS_HEAVY_ATOM>  (1513) 
1 0 0 0 1 0 0 1 0 0 0 1 0 0 0 1 1 0 1 0 1 0 1 0 1 0

>  <DIFUSE_FUNC_ATOM>  (1513) 
n/a

>  <FINAL_SINGLE_POINT_ENERGY>  (1513) 
0

>  <NONCOV_INTER_ENERGY_QM>  (1513) 
0

>  <FF_Energy>  (1513) 
-0.29

>  <QM_Energy>  (1513) 
-5.6

>  <source>  (1513) 
ETAM_MBZ

>  <Index>  (1513) 
15152

$$$$
ETAM-pdb3cb7-A-LYS-23:MBZ-pdb3cb7-A-PHE-126
     RDKit          3D

 26 25  0  0  0  0  0  0  0  0999 V2000
   -1.4981   -0.3583   -3.6052 C   0  0  0  0  0  0  0  0  0  0  0  0
   -2.2921    0.2026   -3.4323 H   0  0  0  0  0  0  0  0  0  0  0  0
   -1.4821   -1.1538   -3.0211 H   0  0  0  0  0  0  0  0  0  0  0  0
   -1.4911   -0.6700   -4.6497 H   0  0  0  0  0  0  0  0  0  0  0  0
   -0.2577    0.4645   -3.3331 C   0  0  0  0  0  0  0  0  0  0  0  0
   -0.2639    0.7663   -2.3828 H   0  0  0  0  0  0  0  0  0  0  0  0
    0.5521   -0.0921   -3.5059 H   0  0  0  0  0  0  0  0  0  0  0  0
   -0.2255    1.6620   -4.2248 N   0  0  0  0  0  4  0  0  0  0  0  0
    0.6717    2.0966   -4.1593 H   0  0  0  0  0  0  0  0  0  0  0  0
   -0.3933    1.3753   -5.1667 H   0  0  0  0  0  0  0  0  0  0  0  0
   -0.9336    2.3053   -3.9371 H   0  0  0  0  0  0  0  0  0  0  0  0
    0.0157    2.8661    0.0594 C   0  0  0  0  0  0  0  0  0  0  0  0
   -0.8563    3.2114   -0.2396 H   0  0  0  0  0  0  0  0  0  0  0  0
    0.7562    3.2015   -0.4973 H   0  0  0  0  0  0  0  0  0  0  0  0
    0.1805    3.2133    1.0794 H   0  0  0  0  0  0  0  0  0  0  0  0
   -0.0053    1.3965   -0.0179 C   0  0  0  0  0  0  0  0  0  0  0  0
   -1.2125    0.7054    0.0082 C   0  0  0  0  0  0  0  0  0  0  0  0
   -2.0677    1.2014    0.0312 H   0  0  0  0  0  0  0  0  0  0  0  0
   -1.2091   -0.6732   -0.0000 C   0  0  0  0  0  0  0  0  0  0  0  0
   -2.0749   -1.1864   -0.0028 H   0  0  0  0  0  0  0  0  0  0  0  0
    0.0180   -1.3899   -0.0023 C   0  0  0  0  0  0  0  0  0  0  0  0
   -0.0183   -2.3898   -0.0057 H   0  0  0  0  0  0  0  0  0  0  0  0
    1.2091   -0.7179    0.0000 C   0  0  0  0  0  0  0  0  0  0  0  0
    2.0913   -1.2061   -0.0048 H   0  0  0  0  0  0  0  0  0  0  0  0
    1.1998    0.6792    0.0120 C   0  0  0  0  0  0  0  0  0  0  0  0
    2.0653    1.1781    0.0409 H   0  0  0  0  0  0  0  0  0  0  0  0
  1  5  1  0
  5  8  1  0
  1  2  1  0
  1  3  1  0
  1  4  1  0
  5  6  1  0
  5  7  1  0
  8  9  1  0
  8 10  1  0
  8 11  1  0
 12 16  1  0
 16 17  2  0
 17 19  1  0
 19 21  2  0
 21 23  1  0
 23 25  2  0
 25 16  1  0
 12 13  1  0
 12 14  1  0
 12 15  1  0
 17 18  1  0
 19 20  1  0
 21 22  1  0
 23 24  1  0
 25 26  1  0
M  CHG  1   8   1
M  END
>  <PDB_ID>  (1514) 
pdb3cb7

>  <RESIDUE_NAME>  (1514) 
LYS   PHE

>  <FRAG_NAME>  (1514) 
ETAM   MBZ

>  <FRAG_ATOM_NUM>  (1514) 
fragi: 11  fragj: 15

>  <atom.prop.CHAIN_ID>  (1514) 
A A A A A A A A A A A Z Z Z Z Z Z Z Z Z Z Z Z Z Z Z

>  <atom.prop.IS_HEAVY_ATOM>  (1514) 
1 0 0 0 1 0 0 1 0 0 0 1 0 0 0 1 1 0 1 0 1 0 1 0 1 0

>  <DIFUSE_FUNC_ATOM>  (1514) 
n/a

>  <FINAL_SINGLE_POINT_ENERGY>  (1514) 
0

>  <NONCOV_INTER_ENERGY_QM>  (1514) 
0

>  <FF_Energy>  (1514) 
-4.35

>  <QM_Energy>  (1514) 
-9.46

>  <source>  (1514) 
ETAM_MBZ

>  <Index>  (1514) 
15184

$$$$
ETAM-pdb3cb5-B-LYS-344:MBZ-pdb3cb5-B-PHE-312
     RDKit          3D

 26 25  0  0  0  0  0  0  0  0999 V2000
   -3.4799   -3.9197    0.8452 C   0  0  0  0  0  0  0  0  0  0  0  0
   -3.8088   -4.6404    1.4561 H   0  0  0  0  0  0  0  0  0  0  0  0
   -2.4886   -3.8287    0.9400 H   0  0  0  0  0  0  0  0  0  0  0  0
   -3.6954   -4.2220   -0.1796 H   0  0  0  0  0  0  0  0  0  0  0  0
   -4.1353   -2.5807    1.2740 C   0  0  0  0  0  0  0  0  0  0  0  0
   -4.0173   -1.9126    0.5294 H   0  0  0  0  0  0  0  0  0  0  0  0
   -5.1225   -2.7342    1.4049 H   0  0  0  0  0  0  0  0  0  0  0  0
   -3.5665   -1.9775    2.5591 N   0  0  0  0  0  4  0  0  0  0  0  0
   -3.5584   -2.6837    3.2574 H   0  0  0  0  0  0  0  0  0  0  0  0
   -2.6450   -1.6599    2.3718 H   0  0  0  0  0  0  0  0  0  0  0  0
   -4.1495   -1.2216    2.8319 H   0  0  0  0  0  0  0  0  0  0  0  0
   -0.0031    2.9054    0.0084 C   0  0  0  0  0  0  0  0  0  0  0  0
   -0.5492    3.2098   -0.7561 H   0  0  0  0  0  0  0  0  0  0  0  0
    0.9324    3.2120   -0.0696 H   0  0  0  0  0  0  0  0  0  0  0  0
   -0.4231    3.3416    0.9148 H   0  0  0  0  0  0  0  0  0  0  0  0
    0.0024    1.3938    0.0024 C   0  0  0  0  0  0  0  0  0  0  0  0
   -1.1868    0.6859    0.0004 C   0  0  0  0  0  0  0  0  0  0  0  0
   -2.0550    1.1796   -0.0019 H   0  0  0  0  0  0  0  0  0  0  0  0
   -1.1851   -0.6853   -0.0000 C   0  0  0  0  0  0  0  0  0  0  0  0
   -2.0735   -1.1822    0.0042 H   0  0  0  0  0  0  0  0  0  0  0  0
   -0.0094   -1.3773   -0.0038 C   0  0  0  0  0  0  0  0  0  0  0  0
   -0.0158   -2.3830   -0.0100 H   0  0  0  0  0  0  0  0  0  0  0  0
    1.1851   -0.6980    0.0000 C   0  0  0  0  0  0  0  0  0  0  0  0
    2.0662   -1.2050    0.0036 H   0  0  0  0  0  0  0  0  0  0  0  0
    1.1937    0.6808    0.0010 C   0  0  0  0  0  0  0  0  0  0  0  0
    2.0633    1.1752    0.0001 H   0  0  0  0  0  0  0  0  0  0  0  0
  1  5  1  0
  5  8  1  0
  1  2  1  0
  1  3  1  0
  1  4  1  0
  5  6  1  0
  5  7  1  0
  8  9  1  0
  8 10  1  0
  8 11  1  0
 12 16  1  0
 16 17  2  0
 17 19  1  0
 19 21  2  0
 21 23  1  0
 23 25  2  0
 25 16  1  0
 12 13  1  0
 12 14  1  0
 12 15  1  0
 17 18  1  0
 19 20  1  0
 21 22  1  0
 23 24  1  0
 25 26  1  0
M  CHG  1   8   1
M  END
>  <PDB_ID>  (1515) 
pdb3cb5

>  <RESIDUE_NAME>  (1515) 
LYS   PHE

>  <FRAG_NAME>  (1515) 
ETAM   MBZ

>  <FRAG_ATOM_NUM>  (1515) 
fragi: 11  fragj: 15

>  <atom.prop.CHAIN_ID>  (1515) 
A A A A A A A A A A A Z Z Z Z Z Z Z Z Z Z Z Z Z Z Z

>  <atom.prop.IS_HEAVY_ATOM>  (1515) 
1 0 0 0 1 0 0 1 0 0 0 1 0 0 0 1 1 0 1 0 1 0 1 0 1 0

>  <DIFUSE_FUNC_ATOM>  (1515) 
n/a

>  <FINAL_SINGLE_POINT_ENERGY>  (1515) 
0

>  <NONCOV_INTER_ENERGY_QM>  (1515) 
0

>  <FF_Energy>  (1515) 
-0.84

>  <QM_Energy>  (1515) 
-5.94

>  <source>  (1515) 
ETAM_MBZ

>  <Index>  (1515) 
15186

$$$$
ETAM-pdb1yk3-H-LYS-138:MBZ-pdb1yk3-H-PHE-143
     RDKit          3D

 26 25  0  0  0  0  0  0  0  0999 V2000
   -0.3625    0.7632   -4.1401 C   0  0  0  0  0  0  0  0  0  0  0  0
    0.4200    0.7281   -4.7563 H   0  0  0  0  0  0  0  0  0  0  0  0
   -0.0621    0.6384   -3.1982 H   0  0  0  0  0  0  0  0  0  0  0  0
   -0.8419    1.7377   -4.2329 H   0  0  0  0  0  0  0  0  0  0  0  0
   -1.3116   -0.3640   -4.4986 C   0  0  0  0  0  0  0  0  0  0  0  0
   -1.6441   -0.2272   -5.4330 H   0  0  0  0  0  0  0  0  0  0  0  0
   -0.8197   -1.2351   -4.4484 H   0  0  0  0  0  0  0  0  0  0  0  0
   -2.4733   -0.4062   -3.5680 N   0  0  0  0  0  4  0  0  0  0  0  0
   -2.1550   -0.6499   -2.6521 H   0  0  0  0  0  0  0  0  0  0  0  0
   -2.9106    0.4922   -3.5432 H   0  0  0  0  0  0  0  0  0  0  0  0
   -3.1291   -1.0892   -3.8881 H   0  0  0  0  0  0  0  0  0  0  0  0
   -0.0019    2.8983    0.0142 C   0  0  0  0  0  0  0  0  0  0  0  0
   -0.6764    3.2132   -0.6367 H   0  0  0  0  0  0  0  0  0  0  0  0
    0.9046    3.2109   -0.2283 H   0  0  0  0  0  0  0  0  0  0  0  0
   -0.2521    3.3268    0.9847 H   0  0  0  0  0  0  0  0  0  0  0  0
   -0.0002    1.4029   -0.0003 C   0  0  0  0  0  0  0  0  0  0  0  0
   -1.1969    0.6952    0.0004 C   0  0  0  0  0  0  0  0  0  0  0  0
   -2.0634    1.1859    0.0003 H   0  0  0  0  0  0  0  0  0  0  0  0
   -1.2048   -0.6971   -0.0000 C   0  0  0  0  0  0  0  0  0  0  0  0
   -2.0801   -1.1896    0.0013 H   0  0  0  0  0  0  0  0  0  0  0  0
    0.0001   -1.3974    0.0004 C   0  0  0  0  0  0  0  0  0  0  0  0
   -0.0044   -2.3938    0.0006 H   0  0  0  0  0  0  0  0  0  0  0  0
    1.2048   -0.6991    0.0000 C   0  0  0  0  0  0  0  0  0  0  0  0
    2.0842   -1.1948    0.0019 H   0  0  0  0  0  0  0  0  0  0  0  0
    1.1970    0.6956   -0.0005 C   0  0  0  0  0  0  0  0  0  0  0  0
    2.0650    1.1918   -0.0017 H   0  0  0  0  0  0  0  0  0  0  0  0
  1  5  1  0
  5  8  1  0
  1  2  1  0
  1  3  1  0
  1  4  1  0
  5  6  1  0
  5  7  1  0
  8  9  1  0
  8 10  1  0
  8 11  1  0
 12 16  1  0
 16 17  2  0
 17 19  1  0
 19 21  2  0
 21 23  1  0
 23 25  2  0
 25 16  1  0
 12 13  1  0
 12 14  1  0
 12 15  1  0
 17 18  1  0
 19 20  1  0
 21 22  1  0
 23 24  1  0
 25 26  1  0
M  CHG  1   8   1
M  END
>  <PDB_ID>  (1516) 
pdb1yk3

>  <RESIDUE_NAME>  (1516) 
LYS   PHE

>  <FRAG_NAME>  (1516) 
ETAM   MBZ

>  <FRAG_ATOM_NUM>  (1516) 
fragi: 11  fragj: 15

>  <atom.prop.CHAIN_ID>  (1516) 
A A A A A A A A A A A Z Z Z Z Z Z Z Z Z Z Z Z Z Z Z

>  <atom.prop.IS_HEAVY_ATOM>  (1516) 
1 0 0 0 1 0 0 1 0 0 0 1 0 0 0 1 1 0 1 0 1 0 1 0 1 0

>  <DIFUSE_FUNC_ATOM>  (1516) 
n/a

>  <FINAL_SINGLE_POINT_ENERGY>  (1516) 
0

>  <NONCOV_INTER_ENERGY_QM>  (1516) 
0

>  <FF_Energy>  (1516) 
-4.69

>  <QM_Energy>  (1516) 
-10.12

>  <source>  (1516) 
ETAM_MBZ

>  <Index>  (1516) 
15190

$$$$
ETAM-pdb1yln-A-LYS-177:MBZ-pdb1yln-A-PHE-151
     RDKit          3D

 26 25  0  0  0  0  0  0  0  0999 V2000
   -5.5888    2.1375    0.7168 C   0  0  0  0  0  0  0  0  0  0  0  0
   -6.4256    2.0878    0.1808 H   0  0  0  0  0  0  0  0  0  0  0  0
   -5.1520    3.0231    0.5933 H   0  0  0  0  0  0  0  0  0  0  0  0
   -5.8402    2.0141    1.7702 H   0  0  0  0  0  0  0  0  0  0  0  0
   -4.6366    1.0540    0.2351 C   0  0  0  0  0  0  0  0  0  0  0  0
   -4.5642    1.1047   -0.7630 H   0  0  0  0  0  0  0  0  0  0  0  0
   -3.7330    1.2114    0.6386 H   0  0  0  0  0  0  0  0  0  0  0  0
   -5.1158   -0.3016    0.6226 N   0  0  0  0  0  4  0  0  0  0  0  0
   -5.9547   -0.2153    1.1584 H   0  0  0  0  0  0  0  0  0  0  0  0
   -5.2977   -0.8367   -0.2014 H   0  0  0  0  0  0  0  0  0  0  0  0
   -4.4140   -0.7570    1.1687 H   0  0  0  0  0  0  0  0  0  0  0  0
    0.0027    2.9063   -0.0323 C   0  0  0  0  0  0  0  0  0  0  0  0
    0.6326    3.2267    0.6583 H   0  0  0  0  0  0  0  0  0  0  0  0
   -0.9177    3.2178    0.1461 H   0  0  0  0  0  0  0  0  0  0  0  0
    0.3163    3.3210   -0.9903 H   0  0  0  0  0  0  0  0  0  0  0  0
    0.0013    1.4062   -0.0007 C   0  0  0  0  0  0  0  0  0  0  0  0
   -1.1996    0.6995   -0.0002 C   0  0  0  0  0  0  0  0  0  0  0  0
   -2.0649    1.1876   -0.0015 H   0  0  0  0  0  0  0  0  0  0  0  0
   -1.2061   -0.7005    0.0000 C   0  0  0  0  0  0  0  0  0  0  0  0
   -2.0816   -1.1905    0.0010 H   0  0  0  0  0  0  0  0  0  0  0  0
   -0.0009   -1.4016    0.0007 C   0  0  0  0  0  0  0  0  0  0  0  0
   -0.0041   -2.3974    0.0013 H   0  0  0  0  0  0  0  0  0  0  0  0
    1.2061   -0.7007   -0.0000 C   0  0  0  0  0  0  0  0  0  0  0  0
    2.0854   -1.1956    0.0003 H   0  0  0  0  0  0  0  0  0  0  0  0
    1.1992    0.6971    0.0002 C   0  0  0  0  0  0  0  0  0  0  0  0
    2.0673    1.1915    0.0004 H   0  0  0  0  0  0  0  0  0  0  0  0
  1  5  1  0
  5  8  1  0
  1  2  1  0
  1  3  1  0
  1  4  1  0
  5  6  1  0
  5  7  1  0
  8  9  1  0
  8 10  1  0
  8 11  1  0
 12 16  1  0
 16 17  2  0
 17 19  1  0
 19 21  2  0
 21 23  1  0
 23 25  2  0
 25 16  1  0
 12 13  1  0
 12 14  1  0
 12 15  1  0
 17 18  1  0
 19 20  1  0
 21 22  1  0
 23 24  1  0
 25 26  1  0
M  CHG  1   8   1
M  END
>  <PDB_ID>  (1517) 
pdb1yln

>  <RESIDUE_NAME>  (1517) 
LYS   PHE

>  <FRAG_NAME>  (1517) 
ETAM   MBZ

>  <FRAG_ATOM_NUM>  (1517) 
fragi: 11  fragj: 15

>  <atom.prop.CHAIN_ID>  (1517) 
A A A A A A A A A A A Z Z Z Z Z Z Z Z Z Z Z Z Z Z Z

>  <atom.prop.IS_HEAVY_ATOM>  (1517) 
1 0 0 0 1 0 0 1 0 0 0 1 0 0 0 1 1 0 1 0 1 0 1 0 1 0

>  <DIFUSE_FUNC_ATOM>  (1517) 
n/a

>  <FINAL_SINGLE_POINT_ENERGY>  (1517) 
0

>  <NONCOV_INTER_ENERGY_QM>  (1517) 
0

>  <FF_Energy>  (1517) 
5.05

>  <QM_Energy>  (1517) 
-1.44

>  <source>  (1517) 
ETAM_MBZ

>  <Index>  (1517) 
15208

$$$$
ETAM-pdb3ccg-A-LYS-169:MBZ-pdb3ccg-A-PHE-165
     RDKit          3D

 26 25  0  0  0  0  0  0  0  0999 V2000
   -0.3419   -1.4723    4.4200 C   0  0  0  0  0  0  0  0  0  0  0  0
   -0.1566   -2.3425    4.8838 H   0  0  0  0  0  0  0  0  0  0  0  0
   -0.5859   -0.7826    5.1065 H   0  0  0  0  0  0  0  0  0  0  0  0
    0.5573   -1.1507    3.8946 H   0  0  0  0  0  0  0  0  0  0  0  0
   -1.5178   -1.6638    3.4968 C   0  0  0  0  0  0  0  0  0  0  0  0
   -2.3581   -1.6622    4.0350 H   0  0  0  0  0  0  0  0  0  0  0  0
   -1.5383   -0.9164    2.8356 H   0  0  0  0  0  0  0  0  0  0  0  0
   -1.3842   -2.9431    2.7926 N   0  0  0  0  0  4  0  0  0  0  0  0
   -2.2032   -3.5038    2.9422 H   0  0  0  0  0  0  0  0  0  0  0  0
   -1.2739   -2.7821    1.8087 H   0  0  0  0  0  0  0  0  0  0  0  0
   -0.5824   -3.4393    3.1337 H   0  0  0  0  0  0  0  0  0  0  0  0
    0.0181    2.9171    0.0264 C   0  0  0  0  0  0  0  0  0  0  0  0
   -0.7676    3.2368   -0.4754 H   0  0  0  0  0  0  0  0  0  0  0  0
    0.8629    3.2208   -0.3807 H   0  0  0  0  0  0  0  0  0  0  0  0
   -0.0363    3.3386    1.0302 H   0  0  0  0  0  0  0  0  0  0  0  0
    0.0046    1.4002   -0.0013 C   0  0  0  0  0  0  0  0  0  0  0  0
   -1.1864    0.7033   -0.0027 C   0  0  0  0  0  0  0  0  0  0  0  0
   -2.0531    1.1896   -0.0071 H   0  0  0  0  0  0  0  0  0  0  0  0
   -1.1842   -0.6851   -0.0000 C   0  0  0  0  0  0  0  0  0  0  0  0
   -2.0734   -1.1754    0.0087 H   0  0  0  0  0  0  0  0  0  0  0  0
   -0.0045   -1.3866   -0.0076 C   0  0  0  0  0  0  0  0  0  0  0  0
   -0.0220   -2.3909   -0.0192 H   0  0  0  0  0  0  0  0  0  0  0  0
    1.1842   -0.7132   -0.0000 C   0  0  0  0  0  0  0  0  0  0  0  0
    2.0688   -1.2073   -0.0006 H   0  0  0  0  0  0  0  0  0  0  0  0
    1.1863    0.6814    0.0116 C   0  0  0  0  0  0  0  0  0  0  0  0
    2.0636    1.1673    0.0282 H   0  0  0  0  0  0  0  0  0  0  0  0
  1  5  1  0
  5  8  1  0
  1  2  1  0
  1  3  1  0
  1  4  1  0
  5  6  1  0
  5  7  1  0
  8  9  1  0
  8 10  1  0
  8 11  1  0
 12 16  1  0
 16 17  2  0
 17 19  1  0
 19 21  2  0
 21 23  1  0
 23 25  2  0
 25 16  1  0
 12 13  1  0
 12 14  1  0
 12 15  1  0
 17 18  1  0
 19 20  1  0
 21 22  1  0
 23 24  1  0
 25 26  1  0
M  CHG  1   8   1
M  END
>  <PDB_ID>  (1518) 
pdb3ccg

>  <RESIDUE_NAME>  (1518) 
LYS   PHE

>  <FRAG_NAME>  (1518) 
ETAM   MBZ

>  <FRAG_ATOM_NUM>  (1518) 
fragi: 11  fragj: 15

>  <atom.prop.CHAIN_ID>  (1518) 
A A A A A A A A A A A Z Z Z Z Z Z Z Z Z Z Z Z Z Z Z

>  <atom.prop.IS_HEAVY_ATOM>  (1518) 
1 0 0 0 1 0 0 1 0 0 0 1 0 0 0 1 1 0 1 0 1 0 1 0 1 0

>  <DIFUSE_FUNC_ATOM>  (1518) 
n/a

>  <FINAL_SINGLE_POINT_ENERGY>  (1518) 
0

>  <NONCOV_INTER_ENERGY_QM>  (1518) 
0

>  <FF_Energy>  (1518) 
-2.94

>  <QM_Energy>  (1518) 
-9.83

>  <source>  (1518) 
ETAM_MBZ

>  <Index>  (1518) 
15218

$$$$
ETAM-pdb1yjm-C-LYS-65:MBZ-pdb1yjm-A-PHE-23
     RDKit          3D

 26 25  0  0  0  0  0  0  0  0999 V2000
    0.5305    0.2072   -3.3112 C   0  0  0  0  0  0  0  0  0  0  0  0
    1.4768    0.2299   -2.9967 H   0  0  0  0  0  0  0  0  0  0  0  0
   -0.0879    0.2958   -2.5336 H   0  0  0  0  0  0  0  0  0  0  0  0
    0.3656    1.0442   -3.9896 H   0  0  0  0  0  0  0  0  0  0  0  0
    0.2753   -1.1295   -3.9822 C   0  0  0  0  0  0  0  0  0  0  0  0
   -0.4401   -1.0096   -4.6835 H   0  0  0  0  0  0  0  0  0  0  0  0
    1.1201   -1.4278   -4.4463 H   0  0  0  0  0  0  0  0  0  0  0  0
   -0.1513   -2.1828   -3.0280 N   0  0  0  0  0  4  0  0  0  0  0  0
   -0.4830   -2.9780   -3.5360 H   0  0  0  0  0  0  0  0  0  0  0  0
    0.6258   -2.4510   -2.4586 H   0  0  0  0  0  0  0  0  0  0  0  0
   -0.8847   -1.8296   -2.4461 H   0  0  0  0  0  0  0  0  0  0  0  0
   -0.0010    2.9011    0.0101 C   0  0  0  0  0  0  0  0  0  0  0  0
   -0.6820    3.2150   -0.6316 H   0  0  0  0  0  0  0  0  0  0  0  0
    0.9024    3.2128   -0.2362 H   0  0  0  0  0  0  0  0  0  0  0  0
   -0.2436    3.3246    0.9848 H   0  0  0  0  0  0  0  0  0  0  0  0
    0.0003    1.4011   -0.0037 C   0  0  0  0  0  0  0  0  0  0  0  0
   -1.1953    0.6929    0.0020 C   0  0  0  0  0  0  0  0  0  0  0  0
   -2.0623    1.1830    0.0061 H   0  0  0  0  0  0  0  0  0  0  0  0
   -1.2014   -0.6978   -0.0000 C   0  0  0  0  0  0  0  0  0  0  0  0
   -2.0785   -1.1902   -0.0004 H   0  0  0  0  0  0  0  0  0  0  0  0
   -0.0019   -1.3935    0.0002 C   0  0  0  0  0  0  0  0  0  0  0  0
   -0.0036   -2.3919   -0.0004 H   0  0  0  0  0  0  0  0  0  0  0  0
    1.2014   -0.6961    0.0000 C   0  0  0  0  0  0  0  0  0  0  0  0
    2.0811   -1.1953    0.0002 H   0  0  0  0  0  0  0  0  0  0  0  0
    1.1969    0.6935    0.0015 C   0  0  0  0  0  0  0  0  0  0  0  0
    2.0644    1.1904    0.0060 H   0  0  0  0  0  0  0  0  0  0  0  0
  1  5  1  0
  5  8  1  0
  1  2  1  0
  1  3  1  0
  1  4  1  0
  5  6  1  0
  5  7  1  0
  8  9  1  0
  8 10  1  0
  8 11  1  0
 12 16  1  0
 16 17  2  0
 17 19  1  0
 19 21  2  0
 21 23  1  0
 23 25  2  0
 25 16  1  0
 12 13  1  0
 12 14  1  0
 12 15  1  0
 17 18  1  0
 19 20  1  0
 21 22  1  0
 23 24  1  0
 25 26  1  0
M  CHG  1   8   1
M  END
>  <PDB_ID>  (1519) 
pdb1yjm

>  <RESIDUE_NAME>  (1519) 
LYS   PHE

>  <FRAG_NAME>  (1519) 
ETAM   MBZ

>  <FRAG_ATOM_NUM>  (1519) 
fragi: 11  fragj: 15

>  <atom.prop.CHAIN_ID>  (1519) 
A A A A A A A A A A A Z Z Z Z Z Z Z Z Z Z Z Z Z Z Z

>  <atom.prop.IS_HEAVY_ATOM>  (1519) 
1 0 0 0 1 0 0 1 0 0 0 1 0 0 0 1 1 0 1 0 1 0 1 0 1 0

>  <DIFUSE_FUNC_ATOM>  (1519) 
n/a

>  <FINAL_SINGLE_POINT_ENERGY>  (1519) 
0

>  <NONCOV_INTER_ENERGY_QM>  (1519) 
0

>  <FF_Energy>  (1519) 
-4.87

>  <QM_Energy>  (1519) 
-12.92

>  <source>  (1519) 
ETAM_MBZ

>  <Index>  (1519) 
15227

$$$$
ETAM-pdb3cea-C-LYS-329:MBZ-pdb3cea-C-PHE-107
     RDKit          3D

 26 25  0  0  0  0  0  0  0  0999 V2000
    0.7660   -4.1917   -3.3926 C   0  0  0  0  0  0  0  0  0  0  0  0
    1.7459   -4.1614   -3.2360 H   0  0  0  0  0  0  0  0  0  0  0  0
    0.5345   -4.9135   -4.0333 H   0  0  0  0  0  0  0  0  0  0  0  0
    0.2609   -4.3811   -2.4455 H   0  0  0  0  0  0  0  0  0  0  0  0
    0.3299   -2.8571   -3.9900 C   0  0  0  0  0  0  0  0  0  0  0  0
    0.6159   -2.8242   -4.9518 H   0  0  0  0  0  0  0  0  0  0  0  0
   -0.6715   -2.7951   -3.9477 H   0  0  0  0  0  0  0  0  0  0  0  0
    0.9223   -1.6947   -3.2641 N   0  0  0  0  0  4  0  0  0  0  0  0
    1.3246   -2.0117   -2.4068 H   0  0  0  0  0  0  0  0  0  0  0  0
    1.6287   -1.2770   -3.8327 H   0  0  0  0  0  0  0  0  0  0  0  0
    0.2056   -1.0265   -3.0717 H   0  0  0  0  0  0  0  0  0  0  0  0
    0.0059    2.9119    0.0065 C   0  0  0  0  0  0  0  0  0  0  0  0
    0.9266    3.2155   -0.1876 H   0  0  0  0  0  0  0  0  0  0  0  0
   -0.2913    3.2113    0.9009 H   0  0  0  0  0  0  0  0  0  0  0  0
   -0.6557    3.3632   -0.7328 H   0  0  0  0  0  0  0  0  0  0  0  0
    0.0006    1.4043   -0.0044 C   0  0  0  0  0  0  0  0  0  0  0  0
   -1.2001    0.6928    0.0055 C   0  0  0  0  0  0  0  0  0  0  0  0
   -2.0652    1.1854    0.0158 H   0  0  0  0  0  0  0  0  0  0  0  0
   -1.2056   -0.6973    0.0000 C   0  0  0  0  0  0  0  0  0  0  0  0
   -2.0802   -1.1923   -0.0028 H   0  0  0  0  0  0  0  0  0  0  0  0
    0.0001   -1.3955   -0.0007 C   0  0  0  0  0  0  0  0  0  0  0  0
   -0.0042   -2.3936   -0.0023 H   0  0  0  0  0  0  0  0  0  0  0  0
    1.2056   -0.6987   -0.0000 C   0  0  0  0  0  0  0  0  0  0  0  0
    2.0839   -1.1962    0.0023 H   0  0  0  0  0  0  0  0  0  0  0  0
    1.1994    0.6943   -0.0004 C   0  0  0  0  0  0  0  0  0  0  0  0
    2.0665    1.1915    0.0014 H   0  0  0  0  0  0  0  0  0  0  0  0
  1  5  1  0
  5  8  1  0
  1  2  1  0
  1  3  1  0
  1  4  1  0
  5  6  1  0
  5  7  1  0
  8  9  1  0
  8 10  1  0
  8 11  1  0
 12 16  1  0
 16 17  2  0
 17 19  1  0
 19 21  2  0
 21 23  1  0
 23 25  2  0
 25 16  1  0
 12 13  1  0
 12 14  1  0
 12 15  1  0
 17 18  1  0
 19 20  1  0
 21 22  1  0
 23 24  1  0
 25 26  1  0
M  CHG  1   8   1
M  END
>  <PDB_ID>  (1520) 
pdb3cea

>  <RESIDUE_NAME>  (1520) 
LYS   PHE

>  <FRAG_NAME>  (1520) 
ETAM   MBZ

>  <FRAG_ATOM_NUM>  (1520) 
fragi: 11  fragj: 15

>  <atom.prop.CHAIN_ID>  (1520) 
A A A A A A A A A A A Z Z Z Z Z Z Z Z Z Z Z Z Z Z Z

>  <atom.prop.IS_HEAVY_ATOM>  (1520) 
1 0 0 0 1 0 0 1 0 0 0 1 0 0 0 1 1 0 1 0 1 0 1 0 1 0

>  <DIFUSE_FUNC_ATOM>  (1520) 
n/a

>  <FINAL_SINGLE_POINT_ENERGY>  (1520) 
0

>  <NONCOV_INTER_ENERGY_QM>  (1520) 
0

>  <FF_Energy>  (1520) 
-5.27

>  <QM_Energy>  (1520) 
-11.65

>  <source>  (1520) 
ETAM_MBZ

>  <Index>  (1520) 
15228

$$$$
ETAM-pdb1yna-A-LYS-144:MBZ-pdb1yna-A-PHE-93
     RDKit          3D

 26 25  0  0  0  0  0  0  0  0999 V2000
    0.8964   -0.1183    4.4126 C   0  0  0  0  0  0  0  0  0  0  0  0
    0.4897   -0.1103    5.3219 H   0  0  0  0  0  0  0  0  0  0  0  0
    0.7964    0.7749    3.9841 H   0  0  0  0  0  0  0  0  0  0  0  0
    1.9591   -0.3403    4.5107 H   0  0  0  0  0  0  0  0  0  0  0  0
    0.1824   -1.1498    3.5656 C   0  0  0  0  0  0  0  0  0  0  0  0
    0.5740   -1.1482    2.6433 H   0  0  0  0  0  0  0  0  0  0  0  0
    0.3085   -2.0569    3.9730 H   0  0  0  0  0  0  0  0  0  0  0  0
   -1.2835   -0.8636    3.4684 N   0  0  0  0  0  4  0  0  0  0  0  0
   -1.4281   -0.1133    2.8262 H   0  0  0  0  0  0  0  0  0  0  0  0
   -1.7553   -1.6809    3.1452 H   0  0  0  0  0  0  0  0  0  0  0  0
   -1.6281   -0.6085    4.3698 H   0  0  0  0  0  0  0  0  0  0  0  0
   -0.0084    2.9100   -0.0299 C   0  0  0  0  0  0  0  0  0  0  0  0
   -0.8020    3.1856   -0.5873 H   0  0  0  0  0  0  0  0  0  0  0  0
    0.8297    3.1929   -0.5147 H   0  0  0  0  0  0  0  0  0  0  0  0
   -0.0529    3.4362    0.9237 H   0  0  0  0  0  0  0  0  0  0  0  0
   -0.0034    1.3969    0.0011 C   0  0  0  0  0  0  0  0  0  0  0  0
   -1.1900    0.6861    0.0098 C   0  0  0  0  0  0  0  0  0  0  0  0
   -2.0619    1.1785    0.0220 H   0  0  0  0  0  0  0  0  0  0  0  0
   -1.1970   -0.6944   -0.0000 C   0  0  0  0  0  0  0  0  0  0  0  0
   -2.0732   -1.1917   -0.0026 H   0  0  0  0  0  0  0  0  0  0  0  0
    0.0023   -1.3886   -0.0045 C   0  0  0  0  0  0  0  0  0  0  0  0
   -0.0004   -2.3877   -0.0115 H   0  0  0  0  0  0  0  0  0  0  0  0
    1.1970   -0.6906   -0.0000 C   0  0  0  0  0  0  0  0  0  0  0  0
    2.0813   -1.1901    0.0097 H   0  0  0  0  0  0  0  0  0  0  0  0
    1.1910    0.6906   -0.0065 C   0  0  0  0  0  0  0  0  0  0  0  0
    2.0587    1.1916   -0.0178 H   0  0  0  0  0  0  0  0  0  0  0  0
  1  5  1  0
  5  8  1  0
  1  2  1  0
  1  3  1  0
  1  4  1  0
  5  6  1  0
  5  7  1  0
  8  9  1  0
  8 10  1  0
  8 11  1  0
 12 16  1  0
 16 17  2  0
 17 19  1  0
 19 21  2  0
 21 23  1  0
 23 25  2  0
 25 16  1  0
 12 13  1  0
 12 14  1  0
 12 15  1  0
 17 18  1  0
 19 20  1  0
 21 22  1  0
 23 24  1  0
 25 26  1  0
M  CHG  1   8   1
M  END
>  <PDB_ID>  (1521) 
pdb1yna

>  <RESIDUE_NAME>  (1521) 
LYS   PHE

>  <FRAG_NAME>  (1521) 
ETAM   MBZ

>  <FRAG_ATOM_NUM>  (1521) 
fragi: 11  fragj: 15

>  <atom.prop.CHAIN_ID>  (1521) 
A A A A A A A A A A A Z Z Z Z Z Z Z Z Z Z Z Z Z Z Z

>  <atom.prop.IS_HEAVY_ATOM>  (1521) 
1 0 0 0 1 0 0 1 0 0 0 1 0 0 0 1 1 0 1 0 1 0 1 0 1 0

>  <DIFUSE_FUNC_ATOM>  (1521) 
n/a

>  <FINAL_SINGLE_POINT_ENERGY>  (1521) 
0

>  <NONCOV_INTER_ENERGY_QM>  (1521) 
0

>  <FF_Energy>  (1521) 
-6.39

>  <QM_Energy>  (1521) 
-12.7

>  <source>  (1521) 
ETAM_MBZ

>  <Index>  (1521) 
15263

$$$$
ETAM-pdb1yny-B-LYS-374:MBZ-pdb1yny-B-PHE-379
     RDKit          3D

 26 25  0  0  0  0  0  0  0  0999 V2000
   -0.2981    0.6754    4.8843 C   0  0  0  0  0  0  0  0  0  0  0  0
    0.5940    0.6404    5.3292 H   0  0  0  0  0  0  0  0  0  0  0  0
   -1.0049    0.8793    5.5581 H   0  0  0  0  0  0  0  0  0  0  0  0
   -0.2852    1.4701    4.1385 H   0  0  0  0  0  0  0  0  0  0  0  0
   -0.5897   -0.6899    4.2744 C   0  0  0  0  0  0  0  0  0  0  0  0
   -0.5260   -1.3830    5.0010 H   0  0  0  0  0  0  0  0  0  0  0  0
   -1.5330   -0.6867    3.9218 H   0  0  0  0  0  0  0  0  0  0  0  0
    0.3426   -1.0194    3.1923 N   0  0  0  0  0  4  0  0  0  0  0  0
    1.0917   -1.5860    3.5451 H   0  0  0  0  0  0  0  0  0  0  0  0
   -0.1362   -1.5250    2.4697 H   0  0  0  0  0  0  0  0  0  0  0  0
    0.7260   -0.1781    2.8019 H   0  0  0  0  0  0  0  0  0  0  0  0
    0.0034    2.8999   -0.0255 C   0  0  0  0  0  0  0  0  0  0  0  0
    0.8294    3.2158    0.4222 H   0  0  0  0  0  0  0  0  0  0  0  0
   -0.8034    3.2203    0.4516 H   0  0  0  0  0  0  0  0  0  0  0  0
   -0.0139    3.3329   -1.0257 H   0  0  0  0  0  0  0  0  0  0  0  0
    0.0000    1.4028   -0.0001 C   0  0  0  0  0  0  0  0  0  0  0  0
   -1.1986    0.6944    0.0001 C   0  0  0  0  0  0  0  0  0  0  0  0
   -2.0635    1.1839   -0.0008 H   0  0  0  0  0  0  0  0  0  0  0  0
   -1.2009   -0.6974    0.0000 C   0  0  0  0  0  0  0  0  0  0  0  0
   -2.0780   -1.1922    0.0031 H   0  0  0  0  0  0  0  0  0  0  0  0
    0.0003   -1.3924   -0.0026 C   0  0  0  0  0  0  0  0  0  0  0  0
   -0.0057   -2.3928   -0.0067 H   0  0  0  0  0  0  0  0  0  0  0  0
    1.2009   -0.7011    0.0000 C   0  0  0  0  0  0  0  0  0  0  0  0
    2.0818   -1.1973    0.0018 H   0  0  0  0  0  0  0  0  0  0  0  0
    1.1982    0.6937    0.0026 C   0  0  0  0  0  0  0  0  0  0  0  0
    2.0658    1.1875    0.0059 H   0  0  0  0  0  0  0  0  0  0  0  0
  1  5  1  0
  5  8  1  0
  1  2  1  0
  1  3  1  0
  1  4  1  0
  5  6  1  0
  5  7  1  0
  8  9  1  0
  8 10  1  0
  8 11  1  0
 12 16  1  0
 16 17  2  0
 17 19  1  0
 19 21  2  0
 21 23  1  0
 23 25  2  0
 25 16  1  0
 12 13  1  0
 12 14  1  0
 12 15  1  0
 17 18  1  0
 19 20  1  0
 21 22  1  0
 23 24  1  0
 25 26  1  0
M  CHG  1   8   1
M  END
>  <PDB_ID>  (1522) 
pdb1yny

>  <RESIDUE_NAME>  (1522) 
LYS   PHE

>  <FRAG_NAME>  (1522) 
ETAM   MBZ

>  <FRAG_ATOM_NUM>  (1522) 
fragi: 11  fragj: 15

>  <atom.prop.CHAIN_ID>  (1522) 
A A A A A A A A A A A Z Z Z Z Z Z Z Z Z Z Z Z Z Z Z

>  <atom.prop.IS_HEAVY_ATOM>  (1522) 
1 0 0 0 1 0 0 1 0 0 0 1 0 0 0 1 1 0 1 0 1 0 1 0 1 0

>  <DIFUSE_FUNC_ATOM>  (1522) 
n/a

>  <FINAL_SINGLE_POINT_ENERGY>  (1522) 
0

>  <NONCOV_INTER_ENERGY_QM>  (1522) 
0

>  <FF_Energy>  (1522) 
-7.73

>  <QM_Energy>  (1522) 
-15.37

>  <source>  (1522) 
ETAM_MBZ

>  <Index>  (1522) 
15284

$$$$
ETAM-pdb3ccf-A-LYS-97:MBZ-pdb3ccf-A-PHE-41
     RDKit          3D

 26 25  0  0  0  0  0  0  0  0999 V2000
    1.8999    1.0118   -4.3479 C   0  0  0  0  0  0  0  0  0  0  0  0
    1.0822    0.5649   -3.9825 H   0  0  0  0  0  0  0  0  0  0  0  0
    2.3594    0.3925   -4.9859 H   0  0  0  0  0  0  0  0  0  0  0  0
    1.5978    1.9108   -4.8851 H   0  0  0  0  0  0  0  0  0  0  0  0
    2.8411    1.3090   -3.2031 C   0  0  0  0  0  0  0  0  0  0  0  0
    3.6634    1.7514   -3.5601 H   0  0  0  0  0  0  0  0  0  0  0  0
    2.3880    1.9230   -2.5562 H   0  0  0  0  0  0  0  0  0  0  0  0
    3.2255    0.0571   -2.5001 N   0  0  0  0  0  4  0  0  0  0  0  0
    3.0626   -0.7247   -3.1010 H   0  0  0  0  0  0  0  0  0  0  0  0
    4.1953    0.0963   -2.2575 H   0  0  0  0  0  0  0  0  0  0  0  0
    2.6768   -0.0394   -1.6690 H   0  0  0  0  0  0  0  0  0  0  0  0
   -0.0002    2.8546    0.0603 C   0  0  0  0  0  0  0  0  0  0  0  0
   -0.8476    3.1869   -0.3122 H   0  0  0  0  0  0  0  0  0  0  0  0
    0.7814    3.1924   -0.4320 H   0  0  0  0  0  0  0  0  0  0  0  0
    0.0740    3.2154    1.0862 H   0  0  0  0  0  0  0  0  0  0  0  0
   -0.0010    1.3696   -0.0118 C   0  0  0  0  0  0  0  0  0  0  0  0
   -1.1905    0.6641    0.0140 C   0  0  0  0  0  0  0  0  0  0  0  0
   -2.0550    1.1728    0.0414 H   0  0  0  0  0  0  0  0  0  0  0  0
   -1.1893   -0.6787   -0.0000 C   0  0  0  0  0  0  0  0  0  0  0  0
   -2.0637   -1.1946   -0.0039 H   0  0  0  0  0  0  0  0  0  0  0  0
    0.0027   -1.3543   -0.0060 C   0  0  0  0  0  0  0  0  0  0  0  0
    0.0006   -2.3644   -0.0152 H   0  0  0  0  0  0  0  0  0  0  0  0
    1.1893   -0.6731    0.0000 C   0  0  0  0  0  0  0  0  0  0  0  0
    2.0720   -1.1890    0.0035 H   0  0  0  0  0  0  0  0  0  0  0  0
    1.1888    0.6724    0.0039 C   0  0  0  0  0  0  0  0  0  0  0  0
    2.0545    1.1862    0.0160 H   0  0  0  0  0  0  0  0  0  0  0  0
  1  5  1  0
  5  8  1  0
  1  2  1  0
  1  3  1  0
  1  4  1  0
  5  6  1  0
  5  7  1  0
  8  9  1  0
  8 10  1  0
  8 11  1  0
 12 16  1  0
 16 17  2  0
 17 19  1  0
 19 21  2  0
 21 23  1  0
 23 25  2  0
 25 16  1  0
 12 13  1  0
 12 14  1  0
 12 15  1  0
 17 18  1  0
 19 20  1  0
 21 22  1  0
 23 24  1  0
 25 26  1  0
M  CHG  1   8   1
M  END
>  <PDB_ID>  (1523) 
pdb3ccf

>  <RESIDUE_NAME>  (1523) 
LYS   PHE

>  <FRAG_NAME>  (1523) 
ETAM   MBZ

>  <FRAG_ATOM_NUM>  (1523) 
fragi: 11  fragj: 15

>  <atom.prop.CHAIN_ID>  (1523) 
A A A A A A A A A A A Z Z Z Z Z Z Z Z Z Z Z Z Z Z Z

>  <atom.prop.IS_HEAVY_ATOM>  (1523) 
1 0 0 0 1 0 0 1 0 0 0 1 0 0 0 1 1 0 1 0 1 0 1 0 1 0

>  <DIFUSE_FUNC_ATOM>  (1523) 
n/a

>  <FINAL_SINGLE_POINT_ENERGY>  (1523) 
0

>  <NONCOV_INTER_ENERGY_QM>  (1523) 
0

>  <FF_Energy>  (1523) 
-3.14

>  <QM_Energy>  (1523) 
-10.21

>  <source>  (1523) 
ETAM_MBZ

>  <Index>  (1523) 
15290

$$$$
ETAM-pdb3cio-A-LYS-497:MBZ-pdb3cio-A-PHE-604
     RDKit          3D

 26 25  0  0  0  0  0  0  0  0999 V2000
    4.8187   -1.8417   -0.1362 C   0  0  0  0  0  0  0  0  0  0  0  0
    4.1734   -1.9481    0.6130 H   0  0  0  0  0  0  0  0  0  0  0  0
    5.7316   -1.6659    0.2147 H   0  0  0  0  0  0  0  0  0  0  0  0
    4.8349   -2.7612   -0.7215 H   0  0  0  0  0  0  0  0  0  0  0  0
    4.3867   -0.6459   -0.9812 C   0  0  0  0  0  0  0  0  0  0  0  0
    3.4149   -0.7652   -1.2366 H   0  0  0  0  0  0  0  0  0  0  0  0
    4.4539    0.1897   -0.4156 H   0  0  0  0  0  0  0  0  0  0  0  0
    5.1947   -0.4601   -2.2192 N   0  0  0  0  0  4  0  0  0  0  0  0
    4.5815   -0.3355   -2.9986 H   0  0  0  0  0  0  0  0  0  0  0  0
    5.7762    0.3464   -2.1174 H   0  0  0  0  0  0  0  0  0  0  0  0
    5.7647   -1.2680   -2.3667 H   0  0  0  0  0  0  0  0  0  0  0  0
    0.0031    2.9142   -0.0527 C   0  0  0  0  0  0  0  0  0  0  0  0
    0.1417    3.2506    0.8647 H   0  0  0  0  0  0  0  0  0  0  0  0
   -0.8641    3.2101   -0.4215 H   0  0  0  0  0  0  0  0  0  0  0  0
    0.7931    3.3224   -0.6831 H   0  0  0  0  0  0  0  0  0  0  0  0
   -0.0008    1.4143   -0.0022 C   0  0  0  0  0  0  0  0  0  0  0  0
   -1.2087    0.6998    0.0027 C   0  0  0  0  0  0  0  0  0  0  0  0
   -2.0719    1.1858    0.0068 H   0  0  0  0  0  0  0  0  0  0  0  0
   -1.2121   -0.7066    0.0000 C   0  0  0  0  0  0  0  0  0  0  0  0
   -2.0832   -1.1976    0.0000 H   0  0  0  0  0  0  0  0  0  0  0  0
    0.0024   -1.4048   -0.0007 C   0  0  0  0  0  0  0  0  0  0  0  0
    0.0006   -2.4006   -0.0019 H   0  0  0  0  0  0  0  0  0  0  0  0
    1.2121   -0.7017   -0.0000 C   0  0  0  0  0  0  0  0  0  0  0  0
    2.0908   -1.1978    0.0019 H   0  0  0  0  0  0  0  0  0  0  0  0
    1.2071    0.6991    0.0002 C   0  0  0  0  0  0  0  0  0  0  0  0
    2.0718    1.1947    0.0016 H   0  0  0  0  0  0  0  0  0  0  0  0
  1  5  1  0
  5  8  1  0
  1  2  1  0
  1  3  1  0
  1  4  1  0
  5  6  1  0
  5  7  1  0
  8  9  1  0
  8 10  1  0
  8 11  1  0
 12 16  1  0
 16 17  2  0
 17 19  1  0
 19 21  2  0
 21 23  1  0
 23 25  2  0
 25 16  1  0
 12 13  1  0
 12 14  1  0
 12 15  1  0
 17 18  1  0
 19 20  1  0
 21 22  1  0
 23 24  1  0
 25 26  1  0
M  CHG  1   8   1
M  END
>  <PDB_ID>  (1524) 
pdb3cio

>  <RESIDUE_NAME>  (1524) 
LYS   PHE

>  <FRAG_NAME>  (1524) 
ETAM   MBZ

>  <FRAG_ATOM_NUM>  (1524) 
fragi: 11  fragj: 15

>  <atom.prop.CHAIN_ID>  (1524) 
A A A A A A A A A A A Z Z Z Z Z Z Z Z Z Z Z Z Z Z Z

>  <atom.prop.IS_HEAVY_ATOM>  (1524) 
1 0 0 0 1 0 0 1 0 0 0 1 0 0 0 1 1 0 1 0 1 0 1 0 1 0

>  <DIFUSE_FUNC_ATOM>  (1524) 
n/a

>  <FINAL_SINGLE_POINT_ENERGY>  (1524) 
0

>  <NONCOV_INTER_ENERGY_QM>  (1524) 
0

>  <FF_Energy>  (1524) 
3.7

>  <QM_Energy>  (1524) 
-1.98

>  <source>  (1524) 
ETAM_MBZ

>  <Index>  (1524) 
15316

$$$$
ETAM-pdb3cgb-B-LYS-75:MBZ-pdb3cgb-B-PHE-103
     RDKit          3D

 26 25  0  0  0  0  0  0  0  0999 V2000
    2.6047   -4.6586   -3.3950 C   0  0  0  0  0  0  0  0  0  0  0  0
    2.1654   -5.4515   -2.9640 H   0  0  0  0  0  0  0  0  0  0  0  0
    3.1469   -4.9725   -4.1788 H   0  0  0  0  0  0  0  0  0  0  0  0
    1.8340   -3.9726   -3.7465 H   0  0  0  0  0  0  0  0  0  0  0  0
    3.5524   -4.0311   -2.3831 C   0  0  0  0  0  0  0  0  0  0  0  0
    4.0136   -4.7622   -1.8816 H   0  0  0  0  0  0  0  0  0  0  0  0
    4.2298   -3.4851   -2.8752 H   0  0  0  0  0  0  0  0  0  0  0  0
    2.8091   -3.1774   -1.4490 N   0  0  0  0  0  4  0  0  0  0  0  0
    3.0510   -3.4125   -0.5048 H   0  0  0  0  0  0  0  0  0  0  0  0
    3.0336   -2.2134   -1.6138 H   0  0  0  0  0  0  0  0  0  0  0  0
    1.8229   -3.3097   -1.5763 H   0  0  0  0  0  0  0  0  0  0  0  0
   -0.0110    2.8814    0.0475 C   0  0  0  0  0  0  0  0  0  0  0  0
   -0.8524    3.2014   -0.3513 H   0  0  0  0  0  0  0  0  0  0  0  0
    0.7775    3.2114   -0.4414 H   0  0  0  0  0  0  0  0  0  0  0  0
    0.0435    3.2698    1.0645 H   0  0  0  0  0  0  0  0  0  0  0  0
   -0.0045    1.3837   -0.0065 C   0  0  0  0  0  0  0  0  0  0  0  0
   -1.1867    0.6729    0.0046 C   0  0  0  0  0  0  0  0  0  0  0  0
   -2.0590    1.1712    0.0153 H   0  0  0  0  0  0  0  0  0  0  0  0
   -1.1910   -0.6902    0.0000 C   0  0  0  0  0  0  0  0  0  0  0  0
   -2.0669   -1.1944    0.0025 H   0  0  0  0  0  0  0  0  0  0  0  0
    0.0022   -1.3747   -0.0064 C   0  0  0  0  0  0  0  0  0  0  0  0
    0.0012   -2.3790   -0.0161 H   0  0  0  0  0  0  0  0  0  0  0  0
    1.1910   -0.6823   -0.0000 C   0  0  0  0  0  0  0  0  0  0  0  0
    2.0765   -1.1848   -0.0001 H   0  0  0  0  0  0  0  0  0  0  0  0
    1.1890    0.6906    0.0083 C   0  0  0  0  0  0  0  0  0  0  0  0
    2.0545    1.1931    0.0243 H   0  0  0  0  0  0  0  0  0  0  0  0
  1  5  1  0
  5  8  1  0
  1  2  1  0
  1  3  1  0
  1  4  1  0
  5  6  1  0
  5  7  1  0
  8  9  1  0
  8 10  1  0
  8 11  1  0
 12 16  1  0
 16 17  2  0
 17 19  1  0
 19 21  2  0
 21 23  1  0
 23 25  2  0
 25 16  1  0
 12 13  1  0
 12 14  1  0
 12 15  1  0
 17 18  1  0
 19 20  1  0
 21 22  1  0
 23 24  1  0
 25 26  1  0
M  CHG  1   8   1
M  END
>  <PDB_ID>  (1525) 
pdb3cgb

>  <RESIDUE_NAME>  (1525) 
LYS   PHE

>  <FRAG_NAME>  (1525) 
ETAM   MBZ

>  <FRAG_ATOM_NUM>  (1525) 
fragi: 11  fragj: 15

>  <atom.prop.CHAIN_ID>  (1525) 
A A A A A A A A A A A Z Z Z Z Z Z Z Z Z Z Z Z Z Z Z

>  <atom.prop.IS_HEAVY_ATOM>  (1525) 
1 0 0 0 1 0 0 1 0 0 0 1 0 0 0 1 1 0 1 0 1 0 1 0 1 0

>  <DIFUSE_FUNC_ATOM>  (1525) 
n/a

>  <FINAL_SINGLE_POINT_ENERGY>  (1525) 
0

>  <NONCOV_INTER_ENERGY_QM>  (1525) 
0

>  <FF_Energy>  (1525) 
1.38

>  <QM_Energy>  (1525) 
-5.0

>  <source>  (1525) 
ETAM_MBZ

>  <Index>  (1525) 
15323

$$$$
ETAM-pdb1yrr-A-LYS-168:MBZ-pdb1yrr-A-PHE-213
     RDKit          3D

 26 25  0  0  0  0  0  0  0  0999 V2000
    2.8411    0.9151   -4.3325 C   0  0  0  0  0  0  0  0  0  0  0  0
    3.2539    0.2838   -4.9820 H   0  0  0  0  0  0  0  0  0  0  0  0
    3.4792    1.1185   -3.5966 H   0  0  0  0  0  0  0  0  0  0  0  0
    2.6408    1.8468   -4.8616 H   0  0  0  0  0  0  0  0  0  0  0  0
    1.5929    0.3253   -3.7742 C   0  0  0  0  0  0  0  0  0  0  0  0
    1.2025    0.9088   -3.0680 H   0  0  0  0  0  0  0  0  0  0  0  0
    0.9199    0.1583   -4.4894 H   0  0  0  0  0  0  0  0  0  0  0  0
    1.8725   -1.0721   -3.0926 N   0  0  0  0  0  4  0  0  0  0  0  0
    1.4619   -1.7580   -3.6680 H   0  0  0  0  0  0  0  0  0  0  0  0
    2.8510   -1.1738   -3.0400 H   0  0  0  0  0  0  0  0  0  0  0  0
    1.4567   -1.0429   -2.1998 H   0  0  0  0  0  0  0  0  0  0  0  0
    0.0128    2.9585   -0.0799 C   0  0  0  0  0  0  0  0  0  0  0  0
   -0.7879    3.2334   -0.5890 H   0  0  0  0  0  0  0  0  0  0  0  0
    0.8444    3.2301   -0.5388 H   0  0  0  0  0  0  0  0  0  0  0  0
   -0.0152    3.4705    0.8820 H   0  0  0  0  0  0  0  0  0  0  0  0
    0.0072    1.4181   -0.0074 C   0  0  0  0  0  0  0  0  0  0  0  0
   -1.1858    0.7091   -0.0498 C   0  0  0  0  0  0  0  0  0  0  0  0
   -2.0526    1.1885   -0.1174 H   0  0  0  0  0  0  0  0  0  0  0  0
   -1.1857   -0.6936   -0.0000 C   0  0  0  0  0  0  0  0  0  0  0  0
   -2.0808   -1.1757   -0.0112 H   0  0  0  0  0  0  0  0  0  0  0  0
   -0.0091   -1.4107    0.0639 C   0  0  0  0  0  0  0  0  0  0  0  0
   -0.0208   -2.3970    0.1525 H   0  0  0  0  0  0  0  0  0  0  0  0
    1.1857   -0.7151   -0.0000 C   0  0  0  0  0  0  0  0  0  0  0  0
    2.0703   -1.2060   -0.0410 H   0  0  0  0  0  0  0  0  0  0  0  0
    1.1878    0.6923   -0.0066 C   0  0  0  0  0  0  0  0  0  0  0  0
    2.0687    1.1723   -0.0120 H   0  0  0  0  0  0  0  0  0  0  0  0
  1  5  1  0
  5  8  1  0
  1  2  1  0
  1  3  1  0
  1  4  1  0
  5  6  1  0
  5  7  1  0
  8  9  1  0
  8 10  1  0
  8 11  1  0
 12 16  1  0
 16 17  2  0
 17 19  1  0
 19 21  2  0
 21 23  1  0
 23 25  2  0
 25 16  1  0
 12 13  1  0
 12 14  1  0
 12 15  1  0
 17 18  1  0
 19 20  1  0
 21 22  1  0
 23 24  1  0
 25 26  1  0
M  CHG  1   8   1
M  END
>  <PDB_ID>  (1526) 
pdb1yrr

>  <RESIDUE_NAME>  (1526) 
LYS   PHE

>  <FRAG_NAME>  (1526) 
ETAM   MBZ

>  <FRAG_ATOM_NUM>  (1526) 
fragi: 11  fragj: 15

>  <atom.prop.CHAIN_ID>  (1526) 
A A A A A A A A A A A Z Z Z Z Z Z Z Z Z Z Z Z Z Z Z

>  <atom.prop.IS_HEAVY_ATOM>  (1526) 
1 0 0 0 1 0 0 1 0 0 0 1 0 0 0 1 1 0 1 0 1 0 1 0 1 0

>  <DIFUSE_FUNC_ATOM>  (1526) 
n/a

>  <FINAL_SINGLE_POINT_ENERGY>  (1526) 
0

>  <NONCOV_INTER_ENERGY_QM>  (1526) 
0

>  <FF_Energy>  (1526) 
-5.77

>  <QM_Energy>  (1526) 
-13.09

>  <source>  (1526) 
ETAM_MBZ

>  <Index>  (1526) 
15347

$$$$
ETAM-pdb1yox-B-LYS-148:MBZ-pdb1yox-B-PHE-111
     RDKit          3D

 26 25  0  0  0  0  0  0  0  0999 V2000
    3.1833   -2.5113    3.1140 C   0  0  0  0  0  0  0  0  0  0  0  0
    3.9894   -2.7542    3.6295 H   0  0  0  0  0  0  0  0  0  0  0  0
    2.4979   -3.2206    3.1537 H   0  0  0  0  0  0  0  0  0  0  0  0
    2.7620   -1.6055    3.5500 H   0  0  0  0  0  0  0  0  0  0  0  0
    3.6046   -2.3202    1.6055 C   0  0  0  0  0  0  0  0  0  0  0  0
    2.9746   -1.6345    1.1942 H   0  0  0  0  0  0  0  0  0  0  0  0
    4.5334   -1.9034    1.5948 H   0  0  0  0  0  0  0  0  0  0  0  0
    3.6201   -3.5614    0.7140 N   0  0  0  0  0  4  0  0  0  0  0  0
    4.2681   -3.4082   -0.0229 H   0  0  0  0  0  0  0  0  0  0  0  0
    3.8968   -4.3384    1.2671 H   0  0  0  0  0  0  0  0  0  0  0  0
    2.7047   -3.6967    0.3525 H   0  0  0  0  0  0  0  0  0  0  0  0
    0.0038    2.9223   -0.0227 C   0  0  0  0  0  0  0  0  0  0  0  0
   -0.7493    3.2175   -0.5886 H   0  0  0  0  0  0  0  0  0  0  0  0
    0.8711    3.2227   -0.3851 H   0  0  0  0  0  0  0  0  0  0  0  0
   -0.1218    3.3646    0.9656 H   0  0  0  0  0  0  0  0  0  0  0  0
    0.0078    1.4080   -0.0138 C   0  0  0  0  0  0  0  0  0  0  0  0
   -1.1999    0.6832    0.0016 C   0  0  0  0  0  0  0  0  0  0  0  0
   -2.0631    1.1717    0.0123 H   0  0  0  0  0  0  0  0  0  0  0  0
   -1.1985   -0.7146   -0.0000 C   0  0  0  0  0  0  0  0  0  0  0  0
   -2.0761   -1.2062   -0.0103 H   0  0  0  0  0  0  0  0  0  0  0  0
   -0.0006   -1.4012    0.0146 C   0  0  0  0  0  0  0  0  0  0  0  0
    0.0116   -2.3958    0.0350 H   0  0  0  0  0  0  0  0  0  0  0  0
    1.1985   -0.6854   -0.0000 C   0  0  0  0  0  0  0  0  0  0  0  0
    2.0849   -1.1795   -0.0072 H   0  0  0  0  0  0  0  0  0  0  0  0
    1.1928    0.7101   -0.0025 C   0  0  0  0  0  0  0  0  0  0  0  0
    2.0660    1.2003    0.0036 H   0  0  0  0  0  0  0  0  0  0  0  0
  1  5  1  0
  5  8  1  0
  1  2  1  0
  1  3  1  0
  1  4  1  0
  5  6  1  0
  5  7  1  0
  8  9  1  0
  8 10  1  0
  8 11  1  0
 12 16  1  0
 16 17  2  0
 17 19  1  0
 19 21  2  0
 21 23  1  0
 23 25  2  0
 25 16  1  0
 12 13  1  0
 12 14  1  0
 12 15  1  0
 17 18  1  0
 19 20  1  0
 21 22  1  0
 23 24  1  0
 25 26  1  0
M  CHG  1   8   1
M  END
>  <PDB_ID>  (1527) 
pdb1yox

>  <RESIDUE_NAME>  (1527) 
LYS   PHE

>  <FRAG_NAME>  (1527) 
ETAM   MBZ

>  <FRAG_ATOM_NUM>  (1527) 
fragi: 11  fragj: 15

>  <atom.prop.CHAIN_ID>  (1527) 
A A A A A A A A A A A Z Z Z Z Z Z Z Z Z Z Z Z Z Z Z

>  <atom.prop.IS_HEAVY_ATOM>  (1527) 
1 0 0 0 1 0 0 1 0 0 0 1 0 0 0 1 1 0 1 0 1 0 1 0 1 0

>  <DIFUSE_FUNC_ATOM>  (1527) 
n/a

>  <FINAL_SINGLE_POINT_ENERGY>  (1527) 
0

>  <NONCOV_INTER_ENERGY_QM>  (1527) 
0

>  <FF_Energy>  (1527) 
24.93

>  <QM_Energy>  (1527) 
0.34

>  <source>  (1527) 
ETAM_MBZ

>  <Index>  (1527) 
15351

$$$$
ETAM-pdb3cki-A-LYS-376:MBZ-pdb3cki-A-PHE-323
     RDKit          3D

 26 25  0  0  0  0  0  0  0  0999 V2000
   -1.0029   -1.7483    4.2449 C   0  0  0  0  0  0  0  0  0  0  0  0
   -0.8431   -1.6217    5.2209 H   0  0  0  0  0  0  0  0  0  0  0  0
   -0.6613   -2.6387    3.9553 H   0  0  0  0  0  0  0  0  0  0  0  0
   -2.0773   -1.7146    4.0644 H   0  0  0  0  0  0  0  0  0  0  0  0
   -0.2293   -0.6594    3.4807 C   0  0  0  0  0  0  0  0  0  0  0  0
   -0.3281   -0.8225    2.4976 H   0  0  0  0  0  0  0  0  0  0  0  0
   -0.6218    0.2349    3.7055 H   0  0  0  0  0  0  0  0  0  0  0  0
    1.2459   -0.6438    3.8257 N   0  0  0  0  0  4  0  0  0  0  0  0
    1.4125    0.0887    4.4781 H   0  0  0  0  0  0  0  0  0  0  0  0
    1.4889   -1.5230    4.2248 H   0  0  0  0  0  0  0  0  0  0  0  0
    1.7667   -0.4881    2.9917 H   0  0  0  0  0  0  0  0  0  0  0  0
    0.0107    2.9145    0.0422 C   0  0  0  0  0  0  0  0  0  0  0  0
   -0.8867    3.2359   -0.2172 H   0  0  0  0  0  0  0  0  0  0  0  0
    0.7047    3.2372   -0.5830 H   0  0  0  0  0  0  0  0  0  0  0  0
    0.2365    3.3291    1.0246 H   0  0  0  0  0  0  0  0  0  0  0  0
    0.0014    1.4122    0.0003 C   0  0  0  0  0  0  0  0  0  0  0  0
   -1.2024    0.7095   -0.0010 C   0  0  0  0  0  0  0  0  0  0  0  0
   -2.0663    1.1945   -0.0039 H   0  0  0  0  0  0  0  0  0  0  0  0
   -1.2103   -0.7004    0.0000 C   0  0  0  0  0  0  0  0  0  0  0  0
   -2.0875   -1.1852    0.0007 H   0  0  0  0  0  0  0  0  0  0  0  0
   -0.0037   -1.4063    0.0025 C   0  0  0  0  0  0  0  0  0  0  0  0
   -0.0096   -2.4004    0.0057 H   0  0  0  0  0  0  0  0  0  0  0  0
    1.2103   -0.7073   -0.0000 C   0  0  0  0  0  0  0  0  0  0  0  0
    2.0853   -1.2049    0.0005 H   0  0  0  0  0  0  0  0  0  0  0  0
    1.2047    0.6923   -0.0017 C   0  0  0  0  0  0  0  0  0  0  0  0
    2.0720    1.1878   -0.0055 H   0  0  0  0  0  0  0  0  0  0  0  0
  1  5  1  0
  5  8  1  0
  1  2  1  0
  1  3  1  0
  1  4  1  0
  5  6  1  0
  5  7  1  0
  8  9  1  0
  8 10  1  0
  8 11  1  0
 12 16  1  0
 16 17  2  0
 17 19  1  0
 19 21  2  0
 21 23  1  0
 23 25  2  0
 25 16  1  0
 12 13  1  0
 12 14  1  0
 12 15  1  0
 17 18  1  0
 19 20  1  0
 21 22  1  0
 23 24  1  0
 25 26  1  0
M  CHG  1   8   1
M  END
>  <PDB_ID>  (1528) 
pdb3cki

>  <RESIDUE_NAME>  (1528) 
LYS   PHE

>  <FRAG_NAME>  (1528) 
ETAM   MBZ

>  <FRAG_ATOM_NUM>  (1528) 
fragi: 11  fragj: 15

>  <atom.prop.CHAIN_ID>  (1528) 
A A A A A A A A A A A Z Z Z Z Z Z Z Z Z Z Z Z Z Z Z

>  <atom.prop.IS_HEAVY_ATOM>  (1528) 
1 0 0 0 1 0 0 1 0 0 0 1 0 0 0 1 1 0 1 0 1 0 1 0 1 0

>  <DIFUSE_FUNC_ATOM>  (1528) 
n/a

>  <FINAL_SINGLE_POINT_ENERGY>  (1528) 
0

>  <NONCOV_INTER_ENERGY_QM>  (1528) 
0

>  <FF_Energy>  (1528) 
-5.33

>  <QM_Energy>  (1528) 
-11.6

>  <source>  (1528) 
ETAM_MBZ

>  <Index>  (1528) 
15353

$$$$
ETAM-pdb3ck7-A-LYS-187:MBZ-pdb3ck7-A-PHE-175
     RDKit          3D

 26 25  0  0  0  0  0  0  0  0999 V2000
   -0.8447    1.2404   -4.1008 C   0  0  0  0  0  0  0  0  0  0  0  0
   -1.7103    1.3264   -3.6126 H   0  0  0  0  0  0  0  0  0  0  0  0
   -0.9625    0.6531   -4.8986 H   0  0  0  0  0  0  0  0  0  0  0  0
   -0.5293    2.2291   -4.4343 H   0  0  0  0  0  0  0  0  0  0  0  0
    0.1725    0.5946   -3.1713 C   0  0  0  0  0  0  0  0  0  0  0  0
    0.2645    1.1634   -2.3465 H   0  0  0  0  0  0  0  0  0  0  0  0
   -0.1702   -0.3111   -2.8945 H   0  0  0  0  0  0  0  0  0  0  0  0
    1.5057    0.4382   -3.8081 N   0  0  0  0  0  4  0  0  0  0  0  0
    2.0479   -0.2203   -3.2870 H   0  0  0  0  0  0  0  0  0  0  0  0
    1.3899    0.1090   -4.7451 H   0  0  0  0  0  0  0  0  0  0  0  0
    1.9749    1.3214   -3.8207 H   0  0  0  0  0  0  0  0  0  0  0  0
   -0.0056    2.9080    0.0587 C   0  0  0  0  0  0  0  0  0  0  0  0
   -0.6452    3.2388   -0.6160 H   0  0  0  0  0  0  0  0  0  0  0  0
    0.9114    3.2258   -0.1200 H   0  0  0  0  0  0  0  0  0  0  0  0
   -0.3112    3.3031    1.0275 H   0  0  0  0  0  0  0  0  0  0  0  0
    0.0008    1.4063    0.0010 C   0  0  0  0  0  0  0  0  0  0  0  0
   -1.1971    0.6924   -0.0004 C   0  0  0  0  0  0  0  0  0  0  0  0
   -2.0649    1.1835   -0.0033 H   0  0  0  0  0  0  0  0  0  0  0  0
   -1.2046   -0.7003   -0.0000 C   0  0  0  0  0  0  0  0  0  0  0  0
   -2.0816   -1.1916    0.0016 H   0  0  0  0  0  0  0  0  0  0  0  0
   -0.0030   -1.3990    0.0002 C   0  0  0  0  0  0  0  0  0  0  0  0
   -0.0047   -2.3952   -0.0002 H   0  0  0  0  0  0  0  0  0  0  0  0
    1.2046   -0.6985   -0.0000 C   0  0  0  0  0  0  0  0  0  0  0  0
    2.0832   -1.1948    0.0021 H   0  0  0  0  0  0  0  0  0  0  0  0
    1.1993    0.6990   -0.0007 C   0  0  0  0  0  0  0  0  0  0  0  0
    2.0665    1.1927   -0.0034 H   0  0  0  0  0  0  0  0  0  0  0  0
  1  5  1  0
  5  8  1  0
  1  2  1  0
  1  3  1  0
  1  4  1  0
  5  6  1  0
  5  7  1  0
  8  9  1  0
  8 10  1  0
  8 11  1  0
 12 16  1  0
 16 17  2  0
 17 19  1  0
 19 21  2  0
 21 23  1  0
 23 25  2  0
 25 16  1  0
 12 13  1  0
 12 14  1  0
 12 15  1  0
 17 18  1  0
 19 20  1  0
 21 22  1  0
 23 24  1  0
 25 26  1  0
M  CHG  1   8   1
M  END
>  <PDB_ID>  (1529) 
pdb3ck7

>  <RESIDUE_NAME>  (1529) 
LYS   PHE

>  <FRAG_NAME>  (1529) 
ETAM   MBZ

>  <FRAG_ATOM_NUM>  (1529) 
fragi: 11  fragj: 15

>  <atom.prop.CHAIN_ID>  (1529) 
A A A A A A A A A A A Z Z Z Z Z Z Z Z Z Z Z Z Z Z Z

>  <atom.prop.IS_HEAVY_ATOM>  (1529) 
1 0 0 0 1 0 0 1 0 0 0 1 0 0 0 1 1 0 1 0 1 0 1 0 1 0

>  <DIFUSE_FUNC_ATOM>  (1529) 
n/a

>  <FINAL_SINGLE_POINT_ENERGY>  (1529) 
0

>  <NONCOV_INTER_ENERGY_QM>  (1529) 
0

>  <FF_Energy>  (1529) 
-3.56

>  <QM_Energy>  (1529) 
-9.96

>  <source>  (1529) 
ETAM_MBZ

>  <Index>  (1529) 
15356

$$$$
ETAM-pdb3ck7-B-LYS-187:MBZ-pdb3ck7-B-PHE-175
     RDKit          3D

 26 25  0  0  0  0  0  0  0  0999 V2000
   -0.9324    0.8152   -3.9645 C   0  0  0  0  0  0  0  0  0  0  0  0
   -1.7100    0.9310   -3.3476 H   0  0  0  0  0  0  0  0  0  0  0  0
   -1.1664    0.1583   -4.6797 H   0  0  0  0  0  0  0  0  0  0  0  0
   -0.7027    1.7752   -4.4268 H   0  0  0  0  0  0  0  0  0  0  0  0
    0.2377    0.2608   -3.1654 C   0  0  0  0  0  0  0  0  0  0  0  0
    0.4781    0.9180   -2.4442 H   0  0  0  0  0  0  0  0  0  0  0  0
   -0.0444   -0.6015   -2.7330 H   0  0  0  0  0  0  0  0  0  0  0  0
    1.4293    0.0123   -4.0178 N   0  0  0  0  0  4  0  0  0  0  0  0
    2.1423    0.6766   -3.7942 H   0  0  0  0  0  0  0  0  0  0  0  0
    1.7702   -0.9129   -3.8518 H   0  0  0  0  0  0  0  0  0  0  0  0
    1.1757    0.1062   -4.9804 H   0  0  0  0  0  0  0  0  0  0  0  0
    0.0034    2.9050    0.0110 C   0  0  0  0  0  0  0  0  0  0  0  0
   -0.6429    3.2184   -0.6685 H   0  0  0  0  0  0  0  0  0  0  0  0
    0.9200    3.2137   -0.1944 H   0  0  0  0  0  0  0  0  0  0  0  0
   -0.2857    3.3386    0.9684 H   0  0  0  0  0  0  0  0  0  0  0  0
    0.0024    1.4038    0.0000 C   0  0  0  0  0  0  0  0  0  0  0  0
   -1.1945    0.6961    0.0008 C   0  0  0  0  0  0  0  0  0  0  0  0
   -2.0615    1.1849    0.0004 H   0  0  0  0  0  0  0  0  0  0  0  0
   -1.2027   -0.7014   -0.0000 C   0  0  0  0  0  0  0  0  0  0  0  0
   -2.0818   -1.1890    0.0013 H   0  0  0  0  0  0  0  0  0  0  0  0
   -0.0056   -1.3979   -0.0008 C   0  0  0  0  0  0  0  0  0  0  0  0
   -0.0037   -2.3947   -0.0030 H   0  0  0  0  0  0  0  0  0  0  0  0
    1.2027   -0.6961   -0.0000 C   0  0  0  0  0  0  0  0  0  0  0  0
    2.0809   -1.1957    0.0025 H   0  0  0  0  0  0  0  0  0  0  0  0
    1.1977    0.6956   -0.0000 C   0  0  0  0  0  0  0  0  0  0  0  0
    2.0672    1.1912   -0.0007 H   0  0  0  0  0  0  0  0  0  0  0  0
  1  5  1  0
  5  8  1  0
  1  2  1  0
  1  3  1  0
  1  4  1  0
  5  6  1  0
  5  7  1  0
  8  9  1  0
  8 10  1  0
  8 11  1  0
 12 16  1  0
 16 17  2  0
 17 19  1  0
 19 21  2  0
 21 23  1  0
 23 25  2  0
 25 16  1  0
 12 13  1  0
 12 14  1  0
 12 15  1  0
 17 18  1  0
 19 20  1  0
 21 22  1  0
 23 24  1  0
 25 26  1  0
M  CHG  1   8   1
M  END
>  <PDB_ID>  (1530) 
pdb3ck7

>  <RESIDUE_NAME>  (1530) 
LYS   PHE

>  <FRAG_NAME>  (1530) 
ETAM   MBZ

>  <FRAG_ATOM_NUM>  (1530) 
fragi: 11  fragj: 15

>  <atom.prop.CHAIN_ID>  (1530) 
A A A A A A A A A A A Z Z Z Z Z Z Z Z Z Z Z Z Z Z Z

>  <atom.prop.IS_HEAVY_ATOM>  (1530) 
1 0 0 0 1 0 0 1 0 0 0 1 0 0 0 1 1 0 1 0 1 0 1 0 1 0

>  <DIFUSE_FUNC_ATOM>  (1530) 
n/a

>  <FINAL_SINGLE_POINT_ENERGY>  (1530) 
0

>  <NONCOV_INTER_ENERGY_QM>  (1530) 
0

>  <FF_Energy>  (1530) 
-4.65

>  <QM_Energy>  (1530) 
-9.95

>  <source>  (1530) 
ETAM_MBZ

>  <Index>  (1530) 
15357

$$$$
ETAM-pdb3bma-D-LYS-258:MBZ-pdb3bma-D-PHE-372
     RDKit          3D

 26 25  0  0  0  0  0  0  0  0999 V2000
   -4.1542    1.0463   -2.2526 C   0  0  0  0  0  0  0  0  0  0  0  0
   -3.4327    1.2453   -1.5958 H   0  0  0  0  0  0  0  0  0  0  0  0
   -4.6620    1.8745   -2.4667 H   0  0  0  0  0  0  0  0  0  0  0  0
   -3.7055    0.6562   -3.1661 H   0  0  0  0  0  0  0  0  0  0  0  0
   -5.1170    0.0426   -1.6207 C   0  0  0  0  0  0  0  0  0  0  0  0
   -5.6957    0.5286   -0.9518 H   0  0  0  0  0  0  0  0  0  0  0  0
   -5.7182   -0.3258   -2.3427 H   0  0  0  0  0  0  0  0  0  0  0  0
   -4.4257   -1.0867   -0.9384 N   0  0  0  0  0  4  0  0  0  0  0  0
   -4.4142   -0.9208    0.0473 H   0  0  0  0  0  0  0  0  0  0  0  0
   -4.9135   -1.9377   -1.1298 H   0  0  0  0  0  0  0  0  0  0  0  0
   -3.4879   -1.1548   -1.2779 H   0  0  0  0  0  0  0  0  0  0  0  0
    0.0030    2.9061    0.0118 C   0  0  0  0  0  0  0  0  0  0  0  0
   -0.9226    3.2170   -0.1205 H   0  0  0  0  0  0  0  0  0  0  0  0
    0.6033    3.2228   -0.7030 H   0  0  0  0  0  0  0  0  0  0  0  0
    0.3614    3.3216    0.9536 H   0  0  0  0  0  0  0  0  0  0  0  0
   -0.0001    1.4010   -0.0107 C   0  0  0  0  0  0  0  0  0  0  0  0
   -1.1968    0.6964   -0.0007 C   0  0  0  0  0  0  0  0  0  0  0  0
   -2.0623    1.1861    0.0050 H   0  0  0  0  0  0  0  0  0  0  0  0
   -1.2016   -0.6955    0.0000 C   0  0  0  0  0  0  0  0  0  0  0  0
   -2.0779   -1.1884   -0.0030 H   0  0  0  0  0  0  0  0  0  0  0  0
   -0.0000   -1.3919    0.0063 C   0  0  0  0  0  0  0  0  0  0  0  0
   -0.0051   -2.3912    0.0151 H   0  0  0  0  0  0  0  0  0  0  0  0
    1.2016   -0.6984   -0.0000 C   0  0  0  0  0  0  0  0  0  0  0  0
    2.0815   -1.1984   -0.0064 H   0  0  0  0  0  0  0  0  0  0  0  0
    1.1969    0.6884    0.0051 C   0  0  0  0  0  0  0  0  0  0  0  0
    2.0649    1.1868    0.0194 H   0  0  0  0  0  0  0  0  0  0  0  0
  1  5  1  0
  5  8  1  0
  1  2  1  0
  1  3  1  0
  1  4  1  0
  5  6  1  0
  5  7  1  0
  8  9  1  0
  8 10  1  0
  8 11  1  0
 12 16  1  0
 16 17  2  0
 17 19  1  0
 19 21  2  0
 21 23  1  0
 23 25  2  0
 25 16  1  0
 12 13  1  0
 12 14  1  0
 12 15  1  0
 17 18  1  0
 19 20  1  0
 21 22  1  0
 23 24  1  0
 25 26  1  0
M  CHG  1   8   1
M  END
>  <PDB_ID>  (1531) 
pdb3bma

>  <RESIDUE_NAME>  (1531) 
LYS   PHE

>  <FRAG_NAME>  (1531) 
ETAM   MBZ

>  <FRAG_ATOM_NUM>  (1531) 
fragi: 11  fragj: 15

>  <atom.prop.CHAIN_ID>  (1531) 
A A A A A A A A A A A Z Z Z Z Z Z Z Z Z Z Z Z Z Z Z

>  <atom.prop.IS_HEAVY_ATOM>  (1531) 
1 0 0 0 1 0 0 1 0 0 0 1 0 0 0 1 1 0 1 0 1 0 1 0 1 0

>  <DIFUSE_FUNC_ATOM>  (1531) 
n/a

>  <FINAL_SINGLE_POINT_ENERGY>  (1531) 
0

>  <NONCOV_INTER_ENERGY_QM>  (1531) 
0

>  <FF_Energy>  (1531) 
1.68

>  <QM_Energy>  (1531) 
-3.77

>  <source>  (1531) 
ETAM_MBZ

>  <Index>  (1531) 
15360

$$$$
ETAM-pdb1ytm-A-LYS-517:MBZ-pdb1ytm-A-PHE-83
     RDKit          3D

 26 25  0  0  0  0  0  0  0  0999 V2000
    0.1098   -0.4649    3.1874 C   0  0  0  0  0  0  0  0  0  0  0  0
    0.3282   -1.3627    2.8058 H   0  0  0  0  0  0  0  0  0  0  0  0
    0.2927    0.2425    2.5062 H   0  0  0  0  0  0  0  0  0  0  0  0
   -0.9502   -0.4420    3.4403 H   0  0  0  0  0  0  0  0  0  0  0  0
    0.9949   -0.2197    4.3900 C   0  0  0  0  0  0  0  0  0  0  0  0
    0.8552    0.7129    4.7149 H   0  0  0  0  0  0  0  0  0  0  0  0
    0.7583   -0.8687    5.1100 H   0  0  0  0  0  0  0  0  0  0  0  0
    2.4234   -0.4009    4.0180 N   0  0  0  0  0  4  0  0  0  0  0  0
    2.5244   -0.3023    3.0278 H   0  0  0  0  0  0  0  0  0  0  0  0
    2.9773    0.2908    4.4813 H   0  0  0  0  0  0  0  0  0  0  0  0
    2.7254   -1.3129    4.2951 H   0  0  0  0  0  0  0  0  0  0  0  0
   -0.0037    2.9180   -0.0129 C   0  0  0  0  0  0  0  0  0  0  0  0
   -0.8105    3.2254    0.4672 H   0  0  0  0  0  0  0  0  0  0  0  0
   -0.0077    3.2144   -0.9553 H   0  0  0  0  0  0  0  0  0  0  0  0
    0.8626    3.3669    0.4730 H   0  0  0  0  0  0  0  0  0  0  0  0
    0.0003    1.4079    0.0004 C   0  0  0  0  0  0  0  0  0  0  0  0
   -1.1981    0.7005   -0.0002 C   0  0  0  0  0  0  0  0  0  0  0  0
   -2.0647    1.1847   -0.0024 H   0  0  0  0  0  0  0  0  0  0  0  0
   -1.2031   -0.7037   -0.0000 C   0  0  0  0  0  0  0  0  0  0  0  0
   -2.0801   -1.1914    0.0015 H   0  0  0  0  0  0  0  0  0  0  0  0
    0.0001   -1.4009   -0.0005 C   0  0  0  0  0  0  0  0  0  0  0  0
   -0.0009   -2.3976   -0.0017 H   0  0  0  0  0  0  0  0  0  0  0  0
    1.2031   -0.6984    0.0000 C   0  0  0  0  0  0  0  0  0  0  0  0
    2.0841   -1.1952    0.0020 H   0  0  0  0  0  0  0  0  0  0  0  0
    1.1977    0.6945    0.0002 C   0  0  0  0  0  0  0  0  0  0  0  0
    2.0668    1.1905   -0.0008 H   0  0  0  0  0  0  0  0  0  0  0  0
  1  5  1  0
  5  8  1  0
  1  2  1  0
  1  3  1  0
  1  4  1  0
  5  6  1  0
  5  7  1  0
  8  9  1  0
  8 10  1  0
  8 11  1  0
 12 16  1  0
 16 17  2  0
 17 19  1  0
 19 21  2  0
 21 23  1  0
 23 25  2  0
 25 16  1  0
 12 13  1  0
 12 14  1  0
 12 15  1  0
 17 18  1  0
 19 20  1  0
 21 22  1  0
 23 24  1  0
 25 26  1  0
M  CHG  1   8   1
M  END
>  <PDB_ID>  (1532) 
pdb1ytm

>  <RESIDUE_NAME>  (1532) 
LYS   PHE

>  <FRAG_NAME>  (1532) 
ETAM   MBZ

>  <FRAG_ATOM_NUM>  (1532) 
fragi: 11  fragj: 15

>  <atom.prop.CHAIN_ID>  (1532) 
A A A A A A A A A A A Z Z Z Z Z Z Z Z Z Z Z Z Z Z Z

>  <atom.prop.IS_HEAVY_ATOM>  (1532) 
1 0 0 0 1 0 0 1 0 0 0 1 0 0 0 1 1 0 1 0 1 0 1 0 1 0

>  <DIFUSE_FUNC_ATOM>  (1532) 
n/a

>  <FINAL_SINGLE_POINT_ENERGY>  (1532) 
0

>  <NONCOV_INTER_ENERGY_QM>  (1532) 
0

>  <FF_Energy>  (1532) 
-3.19

>  <QM_Energy>  (1532) 
-8.3

>  <source>  (1532) 
ETAM_MBZ

>  <Index>  (1532) 
15392

$$$$
ETAM-pdb1yux-A-LYS-188:MBZ-pdb1yux-A-PHE-193
     RDKit          3D

 26 25  0  0  0  0  0  0  0  0999 V2000
   -0.1219    2.1190    4.1392 C   0  0  0  0  0  0  0  0  0  0  0  0
   -0.1287    2.5138    3.2280 H   0  0  0  0  0  0  0  0  0  0  0  0
    0.6088    2.5123    4.6844 H   0  0  0  0  0  0  0  0  0  0  0  0
   -1.0773    2.3236    4.6222 H   0  0  0  0  0  0  0  0  0  0  0  0
    0.1180    0.6223    4.0165 C   0  0  0  0  0  0  0  0  0  0  0  0
    0.1477    0.2209    4.9383 H   0  0  0  0  0  0  0  0  0  0  0  0
   -0.6483    0.2101    3.5124 H   0  0  0  0  0  0  0  0  0  0  0  0
    1.3910    0.3091    3.3076 N   0  0  0  0  0  4  0  0  0  0  0  0
    1.2100    0.2159    2.3293 H   0  0  0  0  0  0  0  0  0  0  0  0
    2.0444    1.0501    3.4592 H   0  0  0  0  0  0  0  0  0  0  0  0
    1.7652   -0.5469    3.6630 H   0  0  0  0  0  0  0  0  0  0  0  0
    0.0031    2.9148   -0.0191 C   0  0  0  0  0  0  0  0  0  0  0  0
    0.1537    3.2069   -0.9502 H   0  0  0  0  0  0  0  0  0  0  0  0
    0.7243    3.2256    0.5796 H   0  0  0  0  0  0  0  0  0  0  0  0
   -0.9299    3.3619    0.3240 H   0  0  0  0  0  0  0  0  0  0  0  0
   -0.0009    1.4064   -0.0001 C   0  0  0  0  0  0  0  0  0  0  0  0
   -1.1967    0.6935   -0.0005 C   0  0  0  0  0  0  0  0  0  0  0  0
   -2.0647    1.1828   -0.0020 H   0  0  0  0  0  0  0  0  0  0  0  0
   -1.2029   -0.7002   -0.0000 C   0  0  0  0  0  0  0  0  0  0  0  0
   -2.0789   -1.1921    0.0016 H   0  0  0  0  0  0  0  0  0  0  0  0
    0.0001   -1.3986    0.0001 C   0  0  0  0  0  0  0  0  0  0  0  0
   -0.0031   -2.3948   -0.0006 H   0  0  0  0  0  0  0  0  0  0  0  0
    1.2029   -0.6984    0.0000 C   0  0  0  0  0  0  0  0  0  0  0  0
    2.0842   -1.1940    0.0005 H   0  0  0  0  0  0  0  0  0  0  0  0
    1.1976    0.6974    0.0005 C   0  0  0  0  0  0  0  0  0  0  0  0
    2.0656    1.1920    0.0006 H   0  0  0  0  0  0  0  0  0  0  0  0
  1  5  1  0
  5  8  1  0
  1  2  1  0
  1  3  1  0
  1  4  1  0
  5  6  1  0
  5  7  1  0
  8  9  1  0
  8 10  1  0
  8 11  1  0
 12 16  1  0
 16 17  2  0
 17 19  1  0
 19 21  2  0
 21 23  1  0
 23 25  2  0
 25 16  1  0
 12 13  1  0
 12 14  1  0
 12 15  1  0
 17 18  1  0
 19 20  1  0
 21 22  1  0
 23 24  1  0
 25 26  1  0
M  CHG  1   8   1
M  END
>  <PDB_ID>  (1533) 
pdb1yux

>  <RESIDUE_NAME>  (1533) 
LYS   PHE

>  <FRAG_NAME>  (1533) 
ETAM   MBZ

>  <FRAG_ATOM_NUM>  (1533) 
fragi: 11  fragj: 15

>  <atom.prop.CHAIN_ID>  (1533) 
A A A A A A A A A A A Z Z Z Z Z Z Z Z Z Z Z Z Z Z Z

>  <atom.prop.IS_HEAVY_ATOM>  (1533) 
1 0 0 0 1 0 0 1 0 0 0 1 0 0 0 1 1 0 1 0 1 0 1 0 1 0

>  <DIFUSE_FUNC_ATOM>  (1533) 
n/a

>  <FINAL_SINGLE_POINT_ENERGY>  (1533) 
0

>  <NONCOV_INTER_ENERGY_QM>  (1533) 
0

>  <FF_Energy>  (1533) 
-8.16

>  <QM_Energy>  (1533) 
-15.41

>  <source>  (1533) 
ETAM_MBZ

>  <Index>  (1533) 
15413

$$$$
ETAM-pdb1yrr-B-LYS-168:MBZ-pdb1yrr-B-PHE-213
     RDKit          3D

 26 25  0  0  0  0  0  0  0  0999 V2000
    2.5463    0.0079   -4.2891 C   0  0  0  0  0  0  0  0  0  0  0  0
    1.6129   -0.1036   -4.0160 H   0  0  0  0  0  0  0  0  0  0  0  0
    2.8272   -0.6403   -4.9672 H   0  0  0  0  0  0  0  0  0  0  0  0
    2.6385    1.0003   -4.7303 H   0  0  0  0  0  0  0  0  0  0  0  0
    3.4775   -0.1939   -2.9861 C   0  0  0  0  0  0  0  0  0  0  0  0
    4.3944    0.2532   -3.1834 H   0  0  0  0  0  0  0  0  0  0  0  0
    3.0818    0.3921   -2.2236 H   0  0  0  0  0  0  0  0  0  0  0  0
    3.8204   -1.6334   -2.3102 N   0  0  0  0  0  4  0  0  0  0  0  0
    4.7922   -1.6427   -2.1919 H   0  0  0  0  0  0  0  0  0  0  0  0
    3.3301   -1.6491   -1.4634 H   0  0  0  0  0  0  0  0  0  0  0  0
    3.5051   -2.3045   -2.9487 H   0  0  0  0  0  0  0  0  0  0  0  0
   -0.0355    2.9087    0.0559 C   0  0  0  0  0  0  0  0  0  0  0  0
   -0.8449    3.2268   -0.4137 H   0  0  0  0  0  0  0  0  0  0  0  0
    0.7884    3.2413   -0.3780 H   0  0  0  0  0  0  0  0  0  0  0  0
   -0.0617    3.3195    1.0651 H   0  0  0  0  0  0  0  0  0  0  0  0
   -0.0210    1.4137    0.0130 C   0  0  0  0  0  0  0  0  0  0  0  0
   -1.2120    0.7012   -0.0171 C   0  0  0  0  0  0  0  0  0  0  0  0
   -2.0836    1.1596   -0.0515 H   0  0  0  0  0  0  0  0  0  0  0  0
   -1.1973   -0.7320    0.0000 C   0  0  0  0  0  0  0  0  0  0  0  0
   -2.0471   -1.2329    0.0114 H   0  0  0  0  0  0  0  0  0  0  0  0
    0.0577   -1.4107    0.0024 C   0  0  0  0  0  0  0  0  0  0  0  0
    0.0462   -2.4093    0.0057 H   0  0  0  0  0  0  0  0  0  0  0  0
    1.1973   -0.6973   -0.0000 C   0  0  0  0  0  0  0  0  0  0  0  0
    2.1162   -1.1483   -0.0018 H   0  0  0  0  0  0  0  0  0  0  0  0
    1.1753    0.7250    0.0017 C   0  0  0  0  0  0  0  0  0  0  0  0
    2.0441    1.2135   -0.0060 H   0  0  0  0  0  0  0  0  0  0  0  0
  1  5  1  0
  5  8  1  0
  1  2  1  0
  1  3  1  0
  1  4  1  0
  5  6  1  0
  5  7  1  0
  8  9  1  0
  8 10  1  0
  8 11  1  0
 12 16  1  0
 16 17  2  0
 17 19  1  0
 19 21  2  0
 21 23  1  0
 23 25  2  0
 25 16  1  0
 12 13  1  0
 12 14  1  0
 12 15  1  0
 17 18  1  0
 19 20  1  0
 21 22  1  0
 23 24  1  0
 25 26  1  0
M  CHG  1   8   1
M  END
>  <PDB_ID>  (1534) 
pdb1yrr

>  <RESIDUE_NAME>  (1534) 
LYS   PHE

>  <FRAG_NAME>  (1534) 
ETAM   MBZ

>  <FRAG_ATOM_NUM>  (1534) 
fragi: 11  fragj: 15

>  <atom.prop.CHAIN_ID>  (1534) 
A A A A A A A A A A A Z Z Z Z Z Z Z Z Z Z Z Z Z Z Z

>  <atom.prop.IS_HEAVY_ATOM>  (1534) 
1 0 0 0 1 0 0 1 0 0 0 1 0 0 0 1 1 0 1 0 1 0 1 0 1 0

>  <DIFUSE_FUNC_ATOM>  (1534) 
n/a

>  <FINAL_SINGLE_POINT_ENERGY>  (1534) 
0

>  <NONCOV_INTER_ENERGY_QM>  (1534) 
0

>  <FF_Energy>  (1534) 
-0.88

>  <QM_Energy>  (1534) 
-6.1

>  <source>  (1534) 
ETAM_MBZ

>  <Index>  (1534) 
15428

$$$$
ETAM-pdb1yw4-A-LYS-266:MBZ-pdb1yw4-A-PHE-271
     RDKit          3D

 26 25  0  0  0  0  0  0  0  0999 V2000
    4.6090   -0.3553    2.2829 C   0  0  0  0  0  0  0  0  0  0  0  0
    5.1083    0.5040    2.3108 H   0  0  0  0  0  0  0  0  0  0  0  0
    5.0082   -1.0106    2.9148 H   0  0  0  0  0  0  0  0  0  0  0  0
    3.5757   -0.1696    2.5761 H   0  0  0  0  0  0  0  0  0  0  0  0
    4.6981   -0.9247    0.8711 C   0  0  0  0  0  0  0  0  0  0  0  0
    5.6611   -1.1292    0.6655 H   0  0  0  0  0  0  0  0  0  0  0  0
    4.1756   -1.7837    0.8360 H   0  0  0  0  0  0  0  0  0  0  0  0
    4.1673    0.0122   -0.1568 N   0  0  0  0  0  4  0  0  0  0  0  0
    4.5039   -0.2594   -1.0579 H   0  0  0  0  0  0  0  0  0  0  0  0
    3.1688   -0.0190   -0.1494 H   0  0  0  0  0  0  0  0  0  0  0  0
    4.4748    0.9403    0.0502 H   0  0  0  0  0  0  0  0  0  0  0  0
   -0.0050    2.8956   -0.0504 C   0  0  0  0  0  0  0  0  0  0  0  0
    0.5973    3.2293    0.6591 H   0  0  0  0  0  0  0  0  0  0  0  0
   -0.9327    3.2058    0.0885 H   0  0  0  0  0  0  0  0  0  0  0  0
    0.3434    3.3004   -1.0006 H   0  0  0  0  0  0  0  0  0  0  0  0
   -0.0006    1.4006   -0.0022 C   0  0  0  0  0  0  0  0  0  0  0  0
   -1.1990    0.6913   -0.0001 C   0  0  0  0  0  0  0  0  0  0  0  0
   -2.0655    1.1834   -0.0000 H   0  0  0  0  0  0  0  0  0  0  0  0
   -1.2051   -0.6985   -0.0000 C   0  0  0  0  0  0  0  0  0  0  0  0
   -2.0789   -1.1942   -0.0001 H   0  0  0  0  0  0  0  0  0  0  0  0
    0.0016   -1.3950    0.0017 C   0  0  0  0  0  0  0  0  0  0  0  0
   -0.0007   -2.3928    0.0033 H   0  0  0  0  0  0  0  0  0  0  0  0
    1.2051   -0.6948    0.0000 C   0  0  0  0  0  0  0  0  0  0  0  0
    2.0855   -1.1921   -0.0003 H   0  0  0  0  0  0  0  0  0  0  0  0
    1.1981    0.6963    0.0006 C   0  0  0  0  0  0  0  0  0  0  0  0
    2.0642    1.1947    0.0025 H   0  0  0  0  0  0  0  0  0  0  0  0
  1  5  1  0
  5  8  1  0
  1  2  1  0
  1  3  1  0
  1  4  1  0
  5  6  1  0
  5  7  1  0
  8  9  1  0
  8 10  1  0
  8 11  1  0
 12 16  1  0
 16 17  2  0
 17 19  1  0
 19 21  2  0
 21 23  1  0
 23 25  2  0
 25 16  1  0
 12 13  1  0
 12 14  1  0
 12 15  1  0
 17 18  1  0
 19 20  1  0
 21 22  1  0
 23 24  1  0
 25 26  1  0
M  CHG  1   8   1
M  END
>  <PDB_ID>  (1535) 
pdb1yw4

>  <RESIDUE_NAME>  (1535) 
LYS   PHE

>  <FRAG_NAME>  (1535) 
ETAM   MBZ

>  <FRAG_ATOM_NUM>  (1535) 
fragi: 11  fragj: 15

>  <atom.prop.CHAIN_ID>  (1535) 
A A A A A A A A A A A Z Z Z Z Z Z Z Z Z Z Z Z Z Z Z

>  <atom.prop.IS_HEAVY_ATOM>  (1535) 
1 0 0 0 1 0 0 1 0 0 0 1 0 0 0 1 1 0 1 0 1 0 1 0 1 0

>  <DIFUSE_FUNC_ATOM>  (1535) 
n/a

>  <FINAL_SINGLE_POINT_ENERGY>  (1535) 
0

>  <NONCOV_INTER_ENERGY_QM>  (1535) 
0

>  <FF_Energy>  (1535) 
6.21

>  <QM_Energy>  (1535) 
-1.87

>  <source>  (1535) 
ETAM_MBZ

>  <Index>  (1535) 
15435

$$$$
ETAM-pdb3cog-B-LYS-212:MBZ-pdb3cog-B-PHE-190
     RDKit          3D

 26 25  0  0  0  0  0  0  0  0999 V2000
    1.4733   -3.1532    4.0269 C   0  0  0  0  0  0  0  0  0  0  0  0
    2.2096   -3.5111    4.5906 H   0  0  0  0  0  0  0  0  0  0  0  0
    0.6413   -3.0549    4.5600 H   0  0  0  0  0  0  0  0  0  0  0  0
    1.7630   -2.1855    3.6172 H   0  0  0  0  0  0  0  0  0  0  0  0
    1.1960   -4.1806    2.9065 C   0  0  0  0  0  0  0  0  0  0  0  0
    1.7886   -3.9751    2.1200 H   0  0  0  0  0  0  0  0  0  0  0  0
    1.4214   -5.1015    3.2440 H   0  0  0  0  0  0  0  0  0  0  0  0
   -0.2628   -4.1986    2.4120 N   0  0  0  0  0  4  0  0  0  0  0  0
   -0.4910   -5.1316    2.1669 H   0  0  0  0  0  0  0  0  0  0  0  0
   -0.8401   -3.8744    3.1503 H   0  0  0  0  0  0  0  0  0  0  0  0
   -0.3257   -3.5998    1.6239 H   0  0  0  0  0  0  0  0  0  0  0  0
   -0.0098    2.8784    0.0365 C   0  0  0  0  0  0  0  0  0  0  0  0
   -0.8734    3.1947   -0.3136 H   0  0  0  0  0  0  0  0  0  0  0  0
    0.7499    3.2103   -0.4941 H   0  0  0  0  0  0  0  0  0  0  0  0
    0.0994    3.2696    1.0480 H   0  0  0  0  0  0  0  0  0  0  0  0
   -0.0005    1.3837   -0.0066 C   0  0  0  0  0  0  0  0  0  0  0  0
   -1.1869    0.6608    0.0060 C   0  0  0  0  0  0  0  0  0  0  0  0
   -2.0574    1.1516    0.0183 H   0  0  0  0  0  0  0  0  0  0  0  0
   -1.1728   -0.7046    0.0000 C   0  0  0  0  0  0  0  0  0  0  0  0
   -2.0525   -1.2122    0.0017 H   0  0  0  0  0  0  0  0  0  0  0  0
    0.0089   -1.3644   -0.0066 C   0  0  0  0  0  0  0  0  0  0  0  0
    0.0193   -2.3763   -0.0168 H   0  0  0  0  0  0  0  0  0  0  0  0
    1.1728   -0.6723   -0.0000 C   0  0  0  0  0  0  0  0  0  0  0  0
    2.0726   -1.1712    0.0013 H   0  0  0  0  0  0  0  0  0  0  0  0
    1.1785    0.6968    0.0072 C   0  0  0  0  0  0  0  0  0  0  0  0
    2.0495    1.1925    0.0217 H   0  0  0  0  0  0  0  0  0  0  0  0
  1  5  1  0
  5  8  1  0
  1  2  1  0
  1  3  1  0
  1  4  1  0
  5  6  1  0
  5  7  1  0
  8  9  1  0
  8 10  1  0
  8 11  1  0
 12 16  1  0
 16 17  2  0
 17 19  1  0
 19 21  2  0
 21 23  1  0
 23 25  2  0
 25 16  1  0
 12 13  1  0
 12 14  1  0
 12 15  1  0
 17 18  1  0
 19 20  1  0
 21 22  1  0
 23 24  1  0
 25 26  1  0
M  CHG  1   8   1
M  END
>  <PDB_ID>  (1536) 
pdb3cog

>  <RESIDUE_NAME>  (1536) 
LYS   PHE

>  <FRAG_NAME>  (1536) 
ETAM   MBZ

>  <FRAG_ATOM_NUM>  (1536) 
fragi: 11  fragj: 15

>  <atom.prop.CHAIN_ID>  (1536) 
A A A A A A A A A A A Z Z Z Z Z Z Z Z Z Z Z Z Z Z Z

>  <atom.prop.IS_HEAVY_ATOM>  (1536) 
1 0 0 0 1 0 0 1 0 0 0 1 0 0 0 1 1 0 1 0 1 0 1 0 1 0

>  <DIFUSE_FUNC_ATOM>  (1536) 
n/a

>  <FINAL_SINGLE_POINT_ENERGY>  (1536) 
0

>  <NONCOV_INTER_ENERGY_QM>  (1536) 
0

>  <FF_Energy>  (1536) 
-0.63

>  <QM_Energy>  (1536) 
-5.95

>  <source>  (1536) 
ETAM_MBZ

>  <Index>  (1536) 
15442

$$$$
ETAM-pdb1yuc-B-LYS-452:MBZ-pdb1yuc-B-PHE-448
     RDKit          3D

 26 25  0  0  0  0  0  0  0  0999 V2000
    0.3404   -1.3824    3.2003 C   0  0  0  0  0  0  0  0  0  0  0  0
    0.1534   -1.6013    2.2446 H   0  0  0  0  0  0  0  0  0  0  0  0
    0.8914   -0.5516    3.2548 H   0  0  0  0  0  0  0  0  0  0  0  0
   -0.6072   -1.2071    3.7097 H   0  0  0  0  0  0  0  0  0  0  0  0
    1.1190   -2.5243    3.8177 C   0  0  0  0  0  0  0  0  0  0  0  0
    1.3729   -2.2810    4.7560 H   0  0  0  0  0  0  0  0  0  0  0  0
    0.5430   -3.3438    3.8367 H   0  0  0  0  0  0  0  0  0  0  0  0
    2.3603   -2.8210    3.0407 N   0  0  0  0  0  4  0  0  0  0  0  0
    2.7804   -3.6531    3.3980 H   0  0  0  0  0  0  0  0  0  0  0  0
    2.1230   -2.9501    2.0794 H   0  0  0  0  0  0  0  0  0  0  0  0
    2.9956   -2.0564    3.1320 H   0  0  0  0  0  0  0  0  0  0  0  0
    0.0187    2.9218   -0.0121 C   0  0  0  0  0  0  0  0  0  0  0  0
   -0.5075    3.2270   -0.7915 H   0  0  0  0  0  0  0  0  0  0  0  0
    0.9609    3.2150   -0.0763 H   0  0  0  0  0  0  0  0  0  0  0  0
   -0.4105    3.3825    0.8776 H   0  0  0  0  0  0  0  0  0  0  0  0
    0.0009    1.4103    0.0001 C   0  0  0  0  0  0  0  0  0  0  0  0
   -1.1983    0.7065    0.0015 C   0  0  0  0  0  0  0  0  0  0  0  0
   -2.0643    1.1899    0.0022 H   0  0  0  0  0  0  0  0  0  0  0  0
   -1.2060   -0.7025   -0.0000 C   0  0  0  0  0  0  0  0  0  0  0  0
   -2.0834   -1.1874    0.0007 H   0  0  0  0  0  0  0  0  0  0  0  0
   -0.0006   -1.4049   -0.0010 C   0  0  0  0  0  0  0  0  0  0  0  0
   -0.0050   -2.3995   -0.0031 H   0  0  0  0  0  0  0  0  0  0  0  0
    1.2060   -0.7039    0.0000 C   0  0  0  0  0  0  0  0  0  0  0  0
    2.0857   -1.1981    0.0023 H   0  0  0  0  0  0  0  0  0  0  0  0
    1.1980    0.6944   -0.0006 C   0  0  0  0  0  0  0  0  0  0  0  0
    2.0680    1.1890   -0.0023 H   0  0  0  0  0  0  0  0  0  0  0  0
  1  5  1  0
  5  8  1  0
  1  2  1  0
  1  3  1  0
  1  4  1  0
  5  6  1  0
  5  7  1  0
  8  9  1  0
  8 10  1  0
  8 11  1  0
 12 16  1  0
 16 17  2  0
 17 19  1  0
 19 21  2  0
 21 23  1  0
 23 25  2  0
 25 16  1  0
 12 13  1  0
 12 14  1  0
 12 15  1  0
 17 18  1  0
 19 20  1  0
 21 22  1  0
 23 24  1  0
 25 26  1  0
M  CHG  1   8   1
M  END
>  <PDB_ID>  (1537) 
pdb1yuc

>  <RESIDUE_NAME>  (1537) 
LYS   PHE

>  <FRAG_NAME>  (1537) 
ETAM   MBZ

>  <FRAG_ATOM_NUM>  (1537) 
fragi: 11  fragj: 15

>  <atom.prop.CHAIN_ID>  (1537) 
A A A A A A A A A A A Z Z Z Z Z Z Z Z Z Z Z Z Z Z Z

>  <atom.prop.IS_HEAVY_ATOM>  (1537) 
1 0 0 0 1 0 0 1 0 0 0 1 0 0 0 1 1 0 1 0 1 0 1 0 1 0

>  <DIFUSE_FUNC_ATOM>  (1537) 
n/a

>  <FINAL_SINGLE_POINT_ENERGY>  (1537) 
0

>  <NONCOV_INTER_ENERGY_QM>  (1537) 
0

>  <FF_Energy>  (1537) 
1.96

>  <QM_Energy>  (1537) 
-4.84

>  <source>  (1537) 
ETAM_MBZ

>  <Index>  (1537) 
15455

$$$$
ETAM-pdb1yw5-A-LYS-141:MBZ-pdb1yw5-A-PHE-153
     RDKit          3D

 26 25  0  0  0  0  0  0  0  0999 V2000
    0.6365    0.1095   -4.5757 C   0  0  0  0  0  0  0  0  0  0  0  0
    1.2792   -0.3287   -5.1963 H   0  0  0  0  0  0  0  0  0  0  0  0
   -0.1150    0.5135   -5.0869 H   0  0  0  0  0  0  0  0  0  0  0  0
    0.2365   -0.6427   -3.8957 H   0  0  0  0  0  0  0  0  0  0  0  0
    1.3636    1.2173   -3.8262 C   0  0  0  0  0  0  0  0  0  0  0  0
    1.6644    1.9118   -4.4852 H   0  0  0  0  0  0  0  0  0  0  0  0
    0.7267    1.6423   -3.1773 H   0  0  0  0  0  0  0  0  0  0  0  0
    2.5474    0.7027   -3.0837 N   0  0  0  0  0  4  0  0  0  0  0  0
    2.3279    0.6432   -2.1106 H   0  0  0  0  0  0  0  0  0  0  0  0
    2.7865   -0.2036   -3.4293 H   0  0  0  0  0  0  0  0  0  0  0  0
    3.3176    1.3256   -3.2165 H   0  0  0  0  0  0  0  0  0  0  0  0
    0.0062    2.9039    0.0450 C   0  0  0  0  0  0  0  0  0  0  0  0
   -0.7480    3.2303   -0.5030 H   0  0  0  0  0  0  0  0  0  0  0  0
    0.8737    3.2184   -0.3069 H   0  0  0  0  0  0  0  0  0  0  0  0
   -0.1120    3.3095    1.0497 H   0  0  0  0  0  0  0  0  0  0  0  0
    0.0011    1.4025   -0.0003 C   0  0  0  0  0  0  0  0  0  0  0  0
   -1.1970    0.6925   -0.0001 C   0  0  0  0  0  0  0  0  0  0  0  0
   -2.0627    1.1839   -0.0015 H   0  0  0  0  0  0  0  0  0  0  0  0
   -1.2014   -0.6959    0.0000 C   0  0  0  0  0  0  0  0  0  0  0  0
   -2.0784   -1.1910    0.0003 H   0  0  0  0  0  0  0  0  0  0  0  0
   -0.0007   -1.3939    0.0018 C   0  0  0  0  0  0  0  0  0  0  0  0
   -0.0057   -2.3923    0.0044 H   0  0  0  0  0  0  0  0  0  0  0  0
    1.2014   -0.6986    0.0000 C   0  0  0  0  0  0  0  0  0  0  0  0
    2.0819   -1.1955    0.0012 H   0  0  0  0  0  0  0  0  0  0  0  0
    1.1966    0.6935   -0.0014 C   0  0  0  0  0  0  0  0  0  0  0  0
    2.0657    1.1890   -0.0035 H   0  0  0  0  0  0  0  0  0  0  0  0
  1  5  1  0
  5  8  1  0
  1  2  1  0
  1  3  1  0
  1  4  1  0
  5  6  1  0
  5  7  1  0
  8  9  1  0
  8 10  1  0
  8 11  1  0
 12 16  1  0
 16 17  2  0
 17 19  1  0
 19 21  2  0
 21 23  1  0
 23 25  2  0
 25 16  1  0
 12 13  1  0
 12 14  1  0
 12 15  1  0
 17 18  1  0
 19 20  1  0
 21 22  1  0
 23 24  1  0
 25 26  1  0
M  CHG  1   8   1
M  END
>  <PDB_ID>  (1538) 
pdb1yw5

>  <RESIDUE_NAME>  (1538) 
LYS   PHE

>  <FRAG_NAME>  (1538) 
ETAM   MBZ

>  <FRAG_ATOM_NUM>  (1538) 
fragi: 11  fragj: 15

>  <atom.prop.CHAIN_ID>  (1538) 
A A A A A A A A A A A Z Z Z Z Z Z Z Z Z Z Z Z Z Z Z

>  <atom.prop.IS_HEAVY_ATOM>  (1538) 
1 0 0 0 1 0 0 1 0 0 0 1 0 0 0 1 1 0 1 0 1 0 1 0 1 0

>  <DIFUSE_FUNC_ATOM>  (1538) 
n/a

>  <FINAL_SINGLE_POINT_ENERGY>  (1538) 
0

>  <NONCOV_INTER_ENERGY_QM>  (1538) 
0

>  <FF_Energy>  (1538) 
-5.0

>  <QM_Energy>  (1538) 
-11.61

>  <source>  (1538) 
ETAM_MBZ

>  <Index>  (1538) 
15470

$$$$
ETAM-pdb3cqn-A-LYS-140:MBZ-pdb3cqn-A-PHE-146
     RDKit          3D

 26 25  0  0  0  0  0  0  0  0999 V2000
   -2.6800    5.0264    2.9547 C   0  0  0  0  0  0  0  0  0  0  0  0
   -1.8419    5.2158    3.4546 H   0  0  0  0  0  0  0  0  0  0  0  0
   -3.4251    4.8328    3.5838 H   0  0  0  0  0  0  0  0  0  0  0  0
   -2.9390    5.8977    2.3532 H   0  0  0  0  0  0  0  0  0  0  0  0
   -2.4544    3.7990    2.0807 C   0  0  0  0  0  0  0  0  0  0  0  0
   -1.8632    4.0517    1.3065 H   0  0  0  0  0  0  0  0  0  0  0  0
   -1.9828    3.0920    2.6221 H   0  0  0  0  0  0  0  0  0  0  0  0
   -3.7337    3.2146    1.5378 N   0  0  0  0  0  4  0  0  0  0  0  0
   -4.1353    2.6211    2.2303 H   0  0  0  0  0  0  0  0  0  0  0  0
   -4.3597    3.9585    1.3195 H   0  0  0  0  0  0  0  0  0  0  0  0
   -3.5253    2.6904    0.7159 H   0  0  0  0  0  0  0  0  0  0  0  0
    0.0003    2.8931   -0.0379 C   0  0  0  0  0  0  0  0  0  0  0  0
    0.8026    3.2212    0.4367 H   0  0  0  0  0  0  0  0  0  0  0  0
   -0.8299    3.2200    0.3876 H   0  0  0  0  0  0  0  0  0  0  0  0
    0.0299    3.3129   -1.0434 H   0  0  0  0  0  0  0  0  0  0  0  0
    0.0007    1.4013   -0.0019 C   0  0  0  0  0  0  0  0  0  0  0  0
   -1.1957    0.6958    0.0106 C   0  0  0  0  0  0  0  0  0  0  0  0
   -2.0641    1.1851    0.0263 H   0  0  0  0  0  0  0  0  0  0  0  0
   -1.2159   -0.7105    0.0000 C   0  0  0  0  0  0  0  0  0  0  0  0
   -2.0875   -1.1928   -0.0039 H   0  0  0  0  0  0  0  0  0  0  0  0
   -0.0045   -1.4065   -0.0036 C   0  0  0  0  0  0  0  0  0  0  0  0
    0.0093   -2.3956   -0.0095 H   0  0  0  0  0  0  0  0  0  0  0  0
    1.2159   -0.6813   -0.0000 C   0  0  0  0  0  0  0  0  0  0  0  0
    2.0899   -1.1856    0.0078 H   0  0  0  0  0  0  0  0  0  0  0  0
    1.1995    0.7013   -0.0051 C   0  0  0  0  0  0  0  0  0  0  0  0
    2.0647    1.2074   -0.0121 H   0  0  0  0  0  0  0  0  0  0  0  0
  1  5  1  0
  5  8  1  0
  1  2  1  0
  1  3  1  0
  1  4  1  0
  5  6  1  0
  5  7  1  0
  8  9  1  0
  8 10  1  0
  8 11  1  0
 12 16  1  0
 16 17  2  0
 17 19  1  0
 19 21  2  0
 21 23  1  0
 23 25  2  0
 25 16  1  0
 12 13  1  0
 12 14  1  0
 12 15  1  0
 17 18  1  0
 19 20  1  0
 21 22  1  0
 23 24  1  0
 25 26  1  0
M  CHG  1   8   1
M  END
>  <PDB_ID>  (1539) 
pdb3cqn

>  <RESIDUE_NAME>  (1539) 
LYS   PHE

>  <FRAG_NAME>  (1539) 
ETAM   MBZ

>  <FRAG_ATOM_NUM>  (1539) 
fragi: 11  fragj: 15

>  <atom.prop.CHAIN_ID>  (1539) 
A A A A A A A A A A A Z Z Z Z Z Z Z Z Z Z Z Z Z Z Z

>  <atom.prop.IS_HEAVY_ATOM>  (1539) 
1 0 0 0 1 0 0 1 0 0 0 1 0 0 0 1 1 0 1 0 1 0 1 0 1 0

>  <DIFUSE_FUNC_ATOM>  (1539) 
n/a

>  <FINAL_SINGLE_POINT_ENERGY>  (1539) 
0

>  <NONCOV_INTER_ENERGY_QM>  (1539) 
0

>  <FF_Energy>  (1539) 
13.33

>  <QM_Energy>  (1539) 
0.32

>  <source>  (1539) 
ETAM_MBZ

>  <Index>  (1539) 
15476

$$$$
ETAM-pdb1yym-R-LYS-1129:MBZ-pdb1yym-Q-PHE-1116
     RDKit          3D

 26 25  0  0  0  0  0  0  0  0999 V2000
    4.2256    1.5816   -2.7167 C   0  0  0  0  0  0  0  0  0  0  0  0
    5.2032    1.6572   -2.5595 H   0  0  0  0  0  0  0  0  0  0  0  0
    3.9735    2.0292   -3.5665 H   0  0  0  0  0  0  0  0  0  0  0  0
    3.9639    0.5257   -2.7855 H   0  0  0  0  0  0  0  0  0  0  0  0
    3.4924    2.2717   -1.5670 C   0  0  0  0  0  0  0  0  0  0  0  0
    2.5093    2.3308   -1.8033 H   0  0  0  0  0  0  0  0  0  0  0  0
    3.5701    1.6904   -0.7408 H   0  0  0  0  0  0  0  0  0  0  0  0
    3.9994    3.6338   -1.2513 N   0  0  0  0  0  4  0  0  0  0  0  0
    4.7241    3.8755   -1.8959 H   0  0  0  0  0  0  0  0  0  0  0  0
    3.2511    4.2923   -1.3260 H   0  0  0  0  0  0  0  0  0  0  0  0
    4.3630    3.6453   -0.3204 H   0  0  0  0  0  0  0  0  0  0  0  0
   -0.0033    2.9007   -0.0082 C   0  0  0  0  0  0  0  0  0  0  0  0
   -0.8590    3.2052   -0.4037 H   0  0  0  0  0  0  0  0  0  0  0  0
    0.7677    3.2090   -0.5483 H   0  0  0  0  0  0  0  0  0  0  0  0
    0.0836    3.3525    0.9799 H   0  0  0  0  0  0  0  0  0  0  0  0
    0.0012    1.4027   -0.0000 C   0  0  0  0  0  0  0  0  0  0  0  0
   -1.1995    0.6909    0.0008 C   0  0  0  0  0  0  0  0  0  0  0  0
   -2.0653    1.1828    0.0009 H   0  0  0  0  0  0  0  0  0  0  0  0
   -1.2066   -0.7013   -0.0000 C   0  0  0  0  0  0  0  0  0  0  0  0
   -2.0808   -1.1952    0.0022 H   0  0  0  0  0  0  0  0  0  0  0  0
   -0.0005   -1.3987   -0.0013 C   0  0  0  0  0  0  0  0  0  0  0  0
   -0.0001   -2.3941   -0.0039 H   0  0  0  0  0  0  0  0  0  0  0  0
    1.2066   -0.6933    0.0000 C   0  0  0  0  0  0  0  0  0  0  0  0
    2.0859   -1.1910    0.0023 H   0  0  0  0  0  0  0  0  0  0  0  0
    1.1988    0.6998    0.0005 C   0  0  0  0  0  0  0  0  0  0  0  0
    2.0655    1.1966    0.0002 H   0  0  0  0  0  0  0  0  0  0  0  0
  1  5  1  0
  5  8  1  0
  1  2  1  0
  1  3  1  0
  1  4  1  0
  5  6  1  0
  5  7  1  0
  8  9  1  0
  8 10  1  0
  8 11  1  0
 12 16  1  0
 16 17  2  0
 17 19  1  0
 19 21  2  0
 21 23  1  0
 23 25  2  0
 25 16  1  0
 12 13  1  0
 12 14  1  0
 12 15  1  0
 17 18  1  0
 19 20  1  0
 21 22  1  0
 23 24  1  0
 25 26  1  0
M  CHG  1   8   1
M  END
>  <PDB_ID>  (1540) 
pdb1yym

>  <RESIDUE_NAME>  (1540) 
LYS   PHE

>  <FRAG_NAME>  (1540) 
ETAM   MBZ

>  <FRAG_ATOM_NUM>  (1540) 
fragi: 11  fragj: 15

>  <atom.prop.CHAIN_ID>  (1540) 
A A A A A A A A A A A Z Z Z Z Z Z Z Z Z Z Z Z Z Z Z

>  <atom.prop.IS_HEAVY_ATOM>  (1540) 
1 0 0 0 1 0 0 1 0 0 0 1 0 0 0 1 1 0 1 0 1 0 1 0 1 0

>  <DIFUSE_FUNC_ATOM>  (1540) 
n/a

>  <FINAL_SINGLE_POINT_ENERGY>  (1540) 
0

>  <NONCOV_INTER_ENERGY_QM>  (1540) 
0

>  <FF_Energy>  (1540) 
7.58

>  <QM_Energy>  (1540) 
0.35

>  <source>  (1540) 
ETAM_MBZ

>  <Index>  (1540) 
15486

$$$$
ETAM-pdb3cr3-D-LYS-123:MBZ-pdb3cr3-D-PHE-65
     RDKit          3D

 26 25  0  0  0  0  0  0  0  0999 V2000
   -2.4326   -3.0451    2.6054 C   0  0  0  0  0  0  0  0  0  0  0  0
   -1.9749   -3.4155    3.4084 H   0  0  0  0  0  0  0  0  0  0  0  0
   -1.7878   -2.9560    1.8520 H   0  0  0  0  0  0  0  0  0  0  0  0
   -3.2293   -3.7275    2.3092 H   0  0  0  0  0  0  0  0  0  0  0  0
   -2.9730   -1.6655    2.9471 C   0  0  0  0  0  0  0  0  0  0  0  0
   -3.3441   -1.2434    2.1130 H   0  0  0  0  0  0  0  0  0  0  0  0
   -3.7190   -1.7623    3.6151 H   0  0  0  0  0  0  0  0  0  0  0  0
   -1.9249   -0.7616    3.5212 N   0  0  0  0  0  4  0  0  0  0  0  0
   -1.6589   -0.0911    2.8322 H   0  0  0  0  0  0  0  0  0  0  0  0
   -2.2984   -0.2958    4.3211 H   0  0  0  0  0  0  0  0  0  0  0  0
   -1.1320   -1.3073    3.7859 H   0  0  0  0  0  0  0  0  0  0  0  0
   -0.0080    2.9316    0.0107 C   0  0  0  0  0  0  0  0  0  0  0  0
   -0.8318    3.2373   -0.4307 H   0  0  0  0  0  0  0  0  0  0  0  0
    0.8008    3.2377   -0.4567 H   0  0  0  0  0  0  0  0  0  0  0  0
    0.0077    3.3469    1.0183 H   0  0  0  0  0  0  0  0  0  0  0  0
   -0.0076    1.4041   -0.0164 C   0  0  0  0  0  0  0  0  0  0  0  0
   -1.1990    0.6944   -0.0039 C   0  0  0  0  0  0  0  0  0  0  0  0
   -2.0695    1.1807    0.0012 H   0  0  0  0  0  0  0  0  0  0  0  0
   -1.2045   -0.7007   -0.0000 C   0  0  0  0  0  0  0  0  0  0  0  0
   -2.0718   -1.1985   -0.0111 H   0  0  0  0  0  0  0  0  0  0  0  0
    0.0146   -1.4000    0.0218 C   0  0  0  0  0  0  0  0  0  0  0  0
    0.0076   -2.3943    0.0524 H   0  0  0  0  0  0  0  0  0  0  0  0
    1.2045   -0.6941   -0.0000 C   0  0  0  0  0  0  0  0  0  0  0  0
    2.0924   -1.1844   -0.0135 H   0  0  0  0  0  0  0  0  0  0  0  0
    1.1920    0.6963   -0.0016 C   0  0  0  0  0  0  0  0  0  0  0  0
    2.0585    1.1980    0.0074 H   0  0  0  0  0  0  0  0  0  0  0  0
  1  5  1  0
  5  8  1  0
  1  2  1  0
  1  3  1  0
  1  4  1  0
  5  6  1  0
  5  7  1  0
  8  9  1  0
  8 10  1  0
  8 11  1  0
 12 16  1  0
 16 17  2  0
 17 19  1  0
 19 21  2  0
 21 23  1  0
 23 25  2  0
 25 16  1  0
 12 13  1  0
 12 14  1  0
 12 15  1  0
 17 18  1  0
 19 20  1  0
 21 22  1  0
 23 24  1  0
 25 26  1  0
M  CHG  1   8   1
M  END
>  <PDB_ID>  (1541) 
pdb3cr3

>  <RESIDUE_NAME>  (1541) 
LYS   PHE

>  <FRAG_NAME>  (1541) 
ETAM   MBZ

>  <FRAG_ATOM_NUM>  (1541) 
fragi: 11  fragj: 15

>  <atom.prop.CHAIN_ID>  (1541) 
A A A A A A A A A A A Z Z Z Z Z Z Z Z Z Z Z Z Z Z Z

>  <atom.prop.IS_HEAVY_ATOM>  (1541) 
1 0 0 0 1 0 0 1 0 0 0 1 0 0 0 1 1 0 1 0 1 0 1 0 1 0

>  <DIFUSE_FUNC_ATOM>  (1541) 
n/a

>  <FINAL_SINGLE_POINT_ENERGY>  (1541) 
0

>  <NONCOV_INTER_ENERGY_QM>  (1541) 
0

>  <FF_Energy>  (1541) 
-4.96

>  <QM_Energy>  (1541) 
-10.81

>  <source>  (1541) 
ETAM_MBZ

>  <Index>  (1541) 
15496

$$$$
ETAM-pdb3cse-B-LYS-216:MBZ-pdb3cse-B-PHE-166
     RDKit          3D

 26 25  0  0  0  0  0  0  0  0999 V2000
    1.4013   -2.4247    3.3676 C   0  0  0  0  0  0  0  0  0  0  0  0
    1.9664   -2.4179    2.5489 H   0  0  0  0  0  0  0  0  0  0  0  0
    1.7592   -3.0748    4.0297 H   0  0  0  0  0  0  0  0  0  0  0  0
    1.4576   -1.4323    3.8148 H   0  0  0  0  0  0  0  0  0  0  0  0
   -0.0596   -2.9003    2.9523 C   0  0  0  0  0  0  0  0  0  0  0  0
   -0.6588   -2.8608    3.7930 H   0  0  0  0  0  0  0  0  0  0  0  0
   -0.4579   -2.1891    2.3177 H   0  0  0  0  0  0  0  0  0  0  0  0
   -0.3336   -4.3212    2.2678 N   0  0  0  0  0  4  0  0  0  0  0  0
   -0.1922   -4.9963    2.9680 H   0  0  0  0  0  0  0  0  0  0  0  0
   -1.2629   -4.2992    1.9495 H   0  0  0  0  0  0  0  0  0  0  0  0
    0.3133   -4.4019    1.5325 H   0  0  0  0  0  0  0  0  0  0  0  0
   -0.0639    2.9209   -0.0152 C   0  0  0  0  0  0  0  0  0  0  0  0
   -0.8156    3.2232   -0.5690 H   0  0  0  0  0  0  0  0  0  0  0  0
    0.7977    3.2752   -0.3232 H   0  0  0  0  0  0  0  0  0  0  0  0
   -0.2284    3.3439    0.9758 H   0  0  0  0  0  0  0  0  0  0  0  0
   -0.0134    1.4194   -0.0270 C   0  0  0  0  0  0  0  0  0  0  0  0
   -1.2052    0.6318   -0.0054 C   0  0  0  0  0  0  0  0  0  0  0  0
   -2.0889    1.1144    0.0050 H   0  0  0  0  0  0  0  0  0  0  0  0
   -1.2096   -0.7761    0.0000 C   0  0  0  0  0  0  0  0  0  0  0  0
   -2.0570   -1.2699   -0.0216 H   0  0  0  0  0  0  0  0  0  0  0  0
    0.0170   -1.3878    0.0388 C   0  0  0  0  0  0  0  0  0  0  0  0
    0.0738   -2.3972    0.0966 H   0  0  0  0  0  0  0  0  0  0  0  0
    1.2096   -0.6512    0.0000 C   0  0  0  0  0  0  0  0  0  0  0  0
    2.1037   -1.1330   -0.0222 H   0  0  0  0  0  0  0  0  0  0  0  0
    1.2016    0.7638   -0.0064 C   0  0  0  0  0  0  0  0  0  0  0  0
    2.0526    1.2551    0.0031 H   0  0  0  0  0  0  0  0  0  0  0  0
  1  5  1  0
  5  8  1  0
  1  2  1  0
  1  3  1  0
  1  4  1  0
  5  6  1  0
  5  7  1  0
  8  9  1  0
  8 10  1  0
  8 11  1  0
 12 16  1  0
 16 17  2  0
 17 19  1  0
 19 21  2  0
 21 23  1  0
 23 25  2  0
 25 16  1  0
 12 13  1  0
 12 14  1  0
 12 15  1  0
 17 18  1  0
 19 20  1  0
 21 22  1  0
 23 24  1  0
 25 26  1  0
M  CHG  1   8   1
M  END
>  <PDB_ID>  (1542) 
pdb3cse

>  <RESIDUE_NAME>  (1542) 
LYS   PHE

>  <FRAG_NAME>  (1542) 
ETAM   MBZ

>  <FRAG_ATOM_NUM>  (1542) 
fragi: 11  fragj: 15

>  <atom.prop.CHAIN_ID>  (1542) 
A A A A A A A A A A A Z Z Z Z Z Z Z Z Z Z Z Z Z Z Z

>  <atom.prop.IS_HEAVY_ATOM>  (1542) 
1 0 0 0 1 0 0 1 0 0 0 1 0 0 0 1 1 0 1 0 1 0 1 0 1 0

>  <DIFUSE_FUNC_ATOM>  (1542) 
n/a

>  <FINAL_SINGLE_POINT_ENERGY>  (1542) 
0

>  <NONCOV_INTER_ENERGY_QM>  (1542) 
0

>  <FF_Energy>  (1542) 
0.36

>  <QM_Energy>  (1542) 
-5.49

>  <source>  (1542) 
ETAM_MBZ

>  <Index>  (1542) 
15517

$$$$
ETAM-pdb1yxa-B-LYS-298:MBZ-pdb1yxa-B-PHE-401
     RDKit          3D

 26 25  0  0  0  0  0  0  0  0999 V2000
    0.4176   -0.9744    5.1450 C   0  0  0  0  0  0  0  0  0  0  0  0
   -0.0464   -1.8538    5.2723 H   0  0  0  0  0  0  0  0  0  0  0  0
    0.0270   -0.3024    5.7783 H   0  0  0  0  0  0  0  0  0  0  0  0
    1.4758   -1.1004    5.3743 H   0  0  0  0  0  0  0  0  0  0  0  0
    0.1613   -0.4976    3.7213 C   0  0  0  0  0  0  0  0  0  0  0  0
    0.8792   -0.8751    3.1204 H   0  0  0  0  0  0  0  0  0  0  0  0
   -0.7261   -0.8673    3.4116 H   0  0  0  0  0  0  0  0  0  0  0  0
    0.1451    0.9817    3.5914 N   0  0  0  0  0  4  0  0  0  0  0  0
    1.0758    1.3124    3.4344 H   0  0  0  0  0  0  0  0  0  0  0  0
   -0.4364    1.2419    2.8200 H   0  0  0  0  0  0  0  0  0  0  0  0
   -0.2156    1.3862    4.4322 H   0  0  0  0  0  0  0  0  0  0  0  0
    0.0036    2.9141   -0.0284 C   0  0  0  0  0  0  0  0  0  0  0  0
    0.8940    3.2241    0.2633 H   0  0  0  0  0  0  0  0  0  0  0  0
   -0.7091    3.2330    0.5748 H   0  0  0  0  0  0  0  0  0  0  0  0
   -0.1868    3.3346   -1.0157 H   0  0  0  0  0  0  0  0  0  0  0  0
   -0.0002    1.4114   -0.0051 C   0  0  0  0  0  0  0  0  0  0  0  0
   -1.1994    0.7076    0.0041 C   0  0  0  0  0  0  0  0  0  0  0  0
   -2.0659    1.1935    0.0129 H   0  0  0  0  0  0  0  0  0  0  0  0
   -1.2112   -0.7006    0.0000 C   0  0  0  0  0  0  0  0  0  0  0  0
   -2.0868   -1.1853   -0.0069 H   0  0  0  0  0  0  0  0  0  0  0  0
   -0.0020   -1.4102    0.0066 C   0  0  0  0  0  0  0  0  0  0  0  0
   -0.0086   -2.4024    0.0159 H   0  0  0  0  0  0  0  0  0  0  0  0
    1.2112   -0.7078   -0.0000 C   0  0  0  0  0  0  0  0  0  0  0  0
    2.0880   -1.1995    0.0012 H   0  0  0  0  0  0  0  0  0  0  0  0
    1.2016    0.6998   -0.0056 C   0  0  0  0  0  0  0  0  0  0  0  0
    2.0692    1.1920   -0.0109 H   0  0  0  0  0  0  0  0  0  0  0  0
  1  5  1  0
  5  8  1  0
  1  2  1  0
  1  3  1  0
  1  4  1  0
  5  6  1  0
  5  7  1  0
  8  9  1  0
  8 10  1  0
  8 11  1  0
 12 16  1  0
 16 17  2  0
 17 19  1  0
 19 21  2  0
 21 23  1  0
 23 25  2  0
 25 16  1  0
 12 13  1  0
 12 14  1  0
 12 15  1  0
 17 18  1  0
 19 20  1  0
 21 22  1  0
 23 24  1  0
 25 26  1  0
M  CHG  1   8   1
M  END
>  <PDB_ID>  (1543) 
pdb1yxa

>  <RESIDUE_NAME>  (1543) 
LYS   PHE

>  <FRAG_NAME>  (1543) 
ETAM   MBZ

>  <FRAG_ATOM_NUM>  (1543) 
fragi: 11  fragj: 15

>  <atom.prop.CHAIN_ID>  (1543) 
A A A A A A A A A A A Z Z Z Z Z Z Z Z Z Z Z Z Z Z Z

>  <atom.prop.IS_HEAVY_ATOM>  (1543) 
1 0 0 0 1 0 0 1 0 0 0 1 0 0 0 1 1 0 1 0 1 0 1 0 1 0

>  <DIFUSE_FUNC_ATOM>  (1543) 
n/a

>  <FINAL_SINGLE_POINT_ENERGY>  (1543) 
0

>  <NONCOV_INTER_ENERGY_QM>  (1543) 
0

>  <FF_Energy>  (1543) 
-7.87

>  <QM_Energy>  (1543) 
-12.88

>  <source>  (1543) 
ETAM_MBZ

>  <Index>  (1543) 
15549

$$$$
ETAM-pdb3cr3-C-LYS-123:MBZ-pdb3cr3-C-PHE-65
     RDKit          3D

 26 25  0  0  0  0  0  0  0  0999 V2000
   -2.0909   -2.9574    3.1315 C   0  0  0  0  0  0  0  0  0  0  0  0
   -3.0312   -2.7228    2.9178 H   0  0  0  0  0  0  0  0  0  0  0  0
   -2.0276   -3.3644    4.0351 H   0  0  0  0  0  0  0  0  0  0  0  0
   -1.7322   -3.6762    2.3949 H   0  0  0  0  0  0  0  0  0  0  0  0
   -1.2544   -1.6867    3.1105 C   0  0  0  0  0  0  0  0  0  0  0  0
   -0.3154   -1.9155    3.4440 H   0  0  0  0  0  0  0  0  0  0  0  0
   -1.1426   -1.3918    2.1378 H   0  0  0  0  0  0  0  0  0  0  0  0
   -1.7800   -0.5502    3.8984 N   0  0  0  0  0  4  0  0  0  0  0  0
   -2.0293    0.1985    3.2831 H   0  0  0  0  0  0  0  0  0  0  0  0
   -2.5898   -0.8423    4.4102 H   0  0  0  0  0  0  0  0  0  0  0  0
   -1.0793   -0.2327    4.5388 H   0  0  0  0  0  0  0  0  0  0  0  0
   -0.0053    2.9138    0.0283 C   0  0  0  0  0  0  0  0  0  0  0  0
   -0.8353    3.2220   -0.4068 H   0  0  0  0  0  0  0  0  0  0  0  0
    0.7973    3.2258   -0.4531 H   0  0  0  0  0  0  0  0  0  0  0  0
    0.0221    3.3318    1.0346 H   0  0  0  0  0  0  0  0  0  0  0  0
   -0.0026    1.4035    0.0031 C   0  0  0  0  0  0  0  0  0  0  0  0
   -1.1984    0.6946    0.0014 C   0  0  0  0  0  0  0  0  0  0  0  0
   -2.0668    1.1830    0.0002 H   0  0  0  0  0  0  0  0  0  0  0  0
   -1.2078   -0.7029   -0.0000 C   0  0  0  0  0  0  0  0  0  0  0  0
   -2.0799   -1.1939    0.0018 H   0  0  0  0  0  0  0  0  0  0  0  0
    0.0023   -1.3971   -0.0023 C   0  0  0  0  0  0  0  0  0  0  0  0
   -0.0005   -2.3956   -0.0060 H   0  0  0  0  0  0  0  0  0  0  0  0
    1.2078   -0.6985    0.0000 C   0  0  0  0  0  0  0  0  0  0  0  0
    2.0877   -1.1919    0.0049 H   0  0  0  0  0  0  0  0  0  0  0  0
    1.1988    0.7003   -0.0021 C   0  0  0  0  0  0  0  0  0  0  0  0
    2.0642    1.1964   -0.0085 H   0  0  0  0  0  0  0  0  0  0  0  0
  1  5  1  0
  5  8  1  0
  1  2  1  0
  1  3  1  0
  1  4  1  0
  5  6  1  0
  5  7  1  0
  8  9  1  0
  8 10  1  0
  8 11  1  0
 12 16  1  0
 16 17  2  0
 17 19  1  0
 19 21  2  0
 21 23  1  0
 23 25  2  0
 25 16  1  0
 12 13  1  0
 12 14  1  0
 12 15  1  0
 17 18  1  0
 19 20  1  0
 21 22  1  0
 23 24  1  0
 25 26  1  0
M  CHG  1   8   1
M  END
>  <PDB_ID>  (1544) 
pdb3cr3

>  <RESIDUE_NAME>  (1544) 
LYS   PHE

>  <FRAG_NAME>  (1544) 
ETAM   MBZ

>  <FRAG_ATOM_NUM>  (1544) 
fragi: 11  fragj: 15

>  <atom.prop.CHAIN_ID>  (1544) 
A A A A A A A A A A A Z Z Z Z Z Z Z Z Z Z Z Z Z Z Z

>  <atom.prop.IS_HEAVY_ATOM>  (1544) 
1 0 0 0 1 0 0 1 0 0 0 1 0 0 0 1 1 0 1 0 1 0 1 0 1 0

>  <DIFUSE_FUNC_ATOM>  (1544) 
n/a

>  <FINAL_SINGLE_POINT_ENERGY>  (1544) 
0

>  <NONCOV_INTER_ENERGY_QM>  (1544) 
0

>  <FF_Energy>  (1544) 
1.28

>  <QM_Energy>  (1544) 
-7.27

>  <source>  (1544) 
ETAM_MBZ

>  <Index>  (1544) 
15555

$$$$
ETAM-pdb3cty-A-LYS-87:MBZ-pdb3cty-A-PHE-17
     RDKit          3D

 26 25  0  0  0  0  0  0  0  0999 V2000
    2.1442   -3.9161   -0.3406 C   0  0  0  0  0  0  0  0  0  0  0  0
    1.5865   -3.0881   -0.4111 H   0  0  0  0  0  0  0  0  0  0  0  0
    1.5553   -4.7205   -0.4253 H   0  0  0  0  0  0  0  0  0  0  0  0
    2.8674   -3.9222   -1.1561 H   0  0  0  0  0  0  0  0  0  0  0  0
    2.8013   -3.9416    1.0218 C   0  0  0  0  0  0  0  0  0  0  0  0
    3.3575   -4.7694    1.1021 H   0  0  0  0  0  0  0  0  0  0  0  0
    3.3896   -3.1369    1.1168 H   0  0  0  0  0  0  0  0  0  0  0  0
    1.7798   -3.9315    2.0983 N   0  0  0  0  0  4  0  0  0  0  0  0
    1.9393   -3.1500    2.7022 H   0  0  0  0  0  0  0  0  0  0  0  0
    0.8688   -3.8586    1.6929 H   0  0  0  0  0  0  0  0  0  0  0  0
    1.8435   -4.7788    2.6257 H   0  0  0  0  0  0  0  0  0  0  0  0
    0.0039    2.9086   -0.0022 C   0  0  0  0  0  0  0  0  0  0  0  0
   -0.6502    3.2150   -0.6781 H   0  0  0  0  0  0  0  0  0  0  0  0
    0.9188    3.2124   -0.2262 H   0  0  0  0  0  0  0  0  0  0  0  0
   -0.2704    3.3568    0.9528 H   0  0  0  0  0  0  0  0  0  0  0  0
    0.0004    1.4034    0.0003 C   0  0  0  0  0  0  0  0  0  0  0  0
   -1.1994    0.6907    0.0002 C   0  0  0  0  0  0  0  0  0  0  0  0
   -2.0650    1.1835   -0.0013 H   0  0  0  0  0  0  0  0  0  0  0  0
   -1.2050   -0.6987    0.0000 C   0  0  0  0  0  0  0  0  0  0  0  0
   -2.0788   -1.1948    0.0014 H   0  0  0  0  0  0  0  0  0  0  0  0
    0.0010   -1.3958   -0.0005 C   0  0  0  0  0  0  0  0  0  0  0  0
   -0.0025   -2.3937   -0.0012 H   0  0  0  0  0  0  0  0  0  0  0  0
    1.2050   -0.6971   -0.0000 C   0  0  0  0  0  0  0  0  0  0  0  0
    2.0851   -1.1932    0.0020 H   0  0  0  0  0  0  0  0  0  0  0  0
    1.1981    0.6976   -0.0000 C   0  0  0  0  0  0  0  0  0  0  0  0
    2.0659    1.1933   -0.0008 H   0  0  0  0  0  0  0  0  0  0  0  0
  1  5  1  0
  5  8  1  0
  1  2  1  0
  1  3  1  0
  1  4  1  0
  5  6  1  0
  5  7  1  0
  8  9  1  0
  8 10  1  0
  8 11  1  0
 12 16  1  0
 16 17  2  0
 17 19  1  0
 19 21  2  0
 21 23  1  0
 23 25  2  0
 25 16  1  0
 12 13  1  0
 12 14  1  0
 12 15  1  0
 17 18  1  0
 19 20  1  0
 21 22  1  0
 23 24  1  0
 25 26  1  0
M  CHG  1   8   1
M  END
>  <PDB_ID>  (1545) 
pdb3cty

>  <RESIDUE_NAME>  (1545) 
LYS   PHE

>  <FRAG_NAME>  (1545) 
ETAM   MBZ

>  <FRAG_ATOM_NUM>  (1545) 
fragi: 11  fragj: 15

>  <atom.prop.CHAIN_ID>  (1545) 
A A A A A A A A A A A Z Z Z Z Z Z Z Z Z Z Z Z Z Z Z

>  <atom.prop.IS_HEAVY_ATOM>  (1545) 
1 0 0 0 1 0 0 1 0 0 0 1 0 0 0 1 1 0 1 0 1 0 1 0 1 0

>  <DIFUSE_FUNC_ATOM>  (1545) 
n/a

>  <FINAL_SINGLE_POINT_ENERGY>  (1545) 
0

>  <NONCOV_INTER_ENERGY_QM>  (1545) 
0

>  <FF_Energy>  (1545) 
7.58

>  <QM_Energy>  (1545) 
-3.07

>  <source>  (1545) 
ETAM_MBZ

>  <Index>  (1545) 
15559

$$$$
ETAM-pdb1z29-A-LYS-48:MBZ-pdb1z29-A-PHE-142
     RDKit          3D

 26 25  0  0  0  0  0  0  0  0999 V2000
    1.6011    1.7481   -3.5993 C   0  0  0  0  0  0  0  0  0  0  0  0
    1.8855    0.9006   -4.0460 H   0  0  0  0  0  0  0  0  0  0  0  0
    1.8147    1.7028   -2.6245 H   0  0  0  0  0  0  0  0  0  0  0  0
    2.1424    2.5830   -4.0442 H   0  0  0  0  0  0  0  0  0  0  0  0
    0.0925    1.8887   -3.7532 C   0  0  0  0  0  0  0  0  0  0  0  0
   -0.2156    2.6799   -3.2359 H   0  0  0  0  0  0  0  0  0  0  0  0
   -0.1283    1.9982   -4.7168 H   0  0  0  0  0  0  0  0  0  0  0  0
   -0.5904    0.6635   -3.2295 N   0  0  0  0  0  4  0  0  0  0  0  0
   -0.6696    0.7320   -2.2369 H   0  0  0  0  0  0  0  0  0  0  0  0
   -1.4987    0.5961   -3.6372 H   0  0  0  0  0  0  0  0  0  0  0  0
   -0.0508   -0.1403   -3.4714 H   0  0  0  0  0  0  0  0  0  0  0  0
    0.0099    2.9192   -0.0449 C   0  0  0  0  0  0  0  0  0  0  0  0
   -0.3872    3.2012   -0.9055 H   0  0  0  0  0  0  0  0  0  0  0  0
    0.9498    3.2202    0.0310 H   0  0  0  0  0  0  0  0  0  0  0  0
   -0.5582    3.3925    0.7559 H   0  0  0  0  0  0  0  0  0  0  0  0
    0.0007    1.4132   -0.0006 C   0  0  0  0  0  0  0  0  0  0  0  0
   -1.1983    0.7032    0.0012 C   0  0  0  0  0  0  0  0  0  0  0  0
   -2.0653    1.1885    0.0017 H   0  0  0  0  0  0  0  0  0  0  0  0
   -1.2058   -0.7022    0.0000 C   0  0  0  0  0  0  0  0  0  0  0  0
   -2.0840   -1.1882    0.0018 H   0  0  0  0  0  0  0  0  0  0  0  0
   -0.0023   -1.4064   -0.0013 C   0  0  0  0  0  0  0  0  0  0  0  0
   -0.0077   -2.4008   -0.0039 H   0  0  0  0  0  0  0  0  0  0  0  0
    1.2058   -0.7070   -0.0000 C   0  0  0  0  0  0  0  0  0  0  0  0
    2.0849   -1.1992    0.0018 H   0  0  0  0  0  0  0  0  0  0  0  0
    1.1998    0.6992    0.0008 C   0  0  0  0  0  0  0  0  0  0  0  0
    2.0690    1.1893    0.0018 H   0  0  0  0  0  0  0  0  0  0  0  0
  1  5  1  0
  5  8  1  0
  1  2  1  0
  1  3  1  0
  1  4  1  0
  5  6  1  0
  5  7  1  0
  8  9  1  0
  8 10  1  0
  8 11  1  0
 12 16  1  0
 16 17  2  0
 17 19  1  0
 19 21  2  0
 21 23  1  0
 23 25  2  0
 25 16  1  0
 12 13  1  0
 12 14  1  0
 12 15  1  0
 17 18  1  0
 19 20  1  0
 21 22  1  0
 23 24  1  0
 25 26  1  0
M  CHG  1   8   1
M  END
>  <PDB_ID>  (1546) 
pdb1z29

>  <RESIDUE_NAME>  (1546) 
LYS   PHE

>  <FRAG_NAME>  (1546) 
ETAM   MBZ

>  <FRAG_ATOM_NUM>  (1546) 
fragi: 11  fragj: 15

>  <atom.prop.CHAIN_ID>  (1546) 
A A A A A A A A A A A Z Z Z Z Z Z Z Z Z Z Z Z Z Z Z

>  <atom.prop.IS_HEAVY_ATOM>  (1546) 
1 0 0 0 1 0 0 1 0 0 0 1 0 0 0 1 1 0 1 0 1 0 1 0 1 0

>  <DIFUSE_FUNC_ATOM>  (1546) 
n/a

>  <FINAL_SINGLE_POINT_ENERGY>  (1546) 
0

>  <NONCOV_INTER_ENERGY_QM>  (1546) 
0

>  <FF_Energy>  (1546) 
-9.49

>  <QM_Energy>  (1546) 
-16.65

>  <source>  (1546) 
ETAM_MBZ

>  <Index>  (1546) 
15572

$$$$
ETAM-pdb1z29-A-LYS-106:MBZ-pdb1z29-A-PHE-81
     RDKit          3D

 26 25  0  0  0  0  0  0  0  0999 V2000
    0.2351    1.6951    3.8182 C   0  0  0  0  0  0  0  0  0  0  0  0
   -0.2247    2.1008    4.5949 H   0  0  0  0  0  0  0  0  0  0  0  0
    0.1610    2.2724    3.0180 H   0  0  0  0  0  0  0  0  0  0  0  0
    1.2885    1.5560    4.0616 H   0  0  0  0  0  0  0  0  0  0  0  0
   -0.4226    0.3529    3.5112 C   0  0  0  0  0  0  0  0  0  0  0  0
    0.1444   -0.1367    2.8422 H   0  0  0  0  0  0  0  0  0  0  0  0
   -0.4594   -0.1873    4.3576 H   0  0  0  0  0  0  0  0  0  0  0  0
   -1.7915    0.5161    2.9706 N   0  0  0  0  0  4  0  0  0  0  0  0
   -2.1785   -0.3831    2.7614 H   0  0  0  0  0  0  0  0  0  0  0  0
   -2.3669    0.9764    3.6486 H   0  0  0  0  0  0  0  0  0  0  0  0
   -1.7588    1.0657    2.1343 H   0  0  0  0  0  0  0  0  0  0  0  0
   -0.0334    2.9002   -0.0518 C   0  0  0  0  0  0  0  0  0  0  0  0
   -0.6156    3.2219    0.6838 H   0  0  0  0  0  0  0  0  0  0  0  0
   -0.3986    3.1715   -0.9334 H   0  0  0  0  0  0  0  0  0  0  0  0
    0.9377    3.3816    0.0635 H   0  0  0  0  0  0  0  0  0  0  0  0
   -0.0003    1.4027   -0.0004 C   0  0  0  0  0  0  0  0  0  0  0  0
   -1.1913    0.6870    0.0026 C   0  0  0  0  0  0  0  0  0  0  0  0
   -2.0630    1.1770    0.0055 H   0  0  0  0  0  0  0  0  0  0  0  0
   -1.2013   -0.7042   -0.0000 C   0  0  0  0  0  0  0  0  0  0  0  0
   -2.0798   -1.1928    0.0010 H   0  0  0  0  0  0  0  0  0  0  0  0
   -0.0049   -1.3978   -0.0025 C   0  0  0  0  0  0  0  0  0  0  0  0
    0.0007   -2.3942   -0.0071 H   0  0  0  0  0  0  0  0  0  0  0  0
    1.2013   -0.6914    0.0000 C   0  0  0  0  0  0  0  0  0  0  0  0
    2.0819   -1.1892    0.0025 H   0  0  0  0  0  0  0  0  0  0  0  0
    1.1966    0.7037    0.0003 C   0  0  0  0  0  0  0  0  0  0  0  0
    2.0633    1.1978    0.0006 H   0  0  0  0  0  0  0  0  0  0  0  0
  1  5  1  0
  5  8  1  0
  1  2  1  0
  1  3  1  0
  1  4  1  0
  5  6  1  0
  5  7  1  0
  8  9  1  0
  8 10  1  0
  8 11  1  0
 12 16  1  0
 16 17  2  0
 17 19  1  0
 19 21  2  0
 21 23  1  0
 23 25  2  0
 25 16  1  0
 12 13  1  0
 12 14  1  0
 12 15  1  0
 17 18  1  0
 19 20  1  0
 21 22  1  0
 23 24  1  0
 25 26  1  0
M  CHG  1   8   1
M  END
>  <PDB_ID>  (1547) 
pdb1z29

>  <RESIDUE_NAME>  (1547) 
LYS   PHE

>  <FRAG_NAME>  (1547) 
ETAM   MBZ

>  <FRAG_ATOM_NUM>  (1547) 
fragi: 11  fragj: 15

>  <atom.prop.CHAIN_ID>  (1547) 
A A A A A A A A A A A Z Z Z Z Z Z Z Z Z Z Z Z Z Z Z

>  <atom.prop.IS_HEAVY_ATOM>  (1547) 
1 0 0 0 1 0 0 1 0 0 0 1 0 0 0 1 1 0 1 0 1 0 1 0 1 0

>  <DIFUSE_FUNC_ATOM>  (1547) 
n/a

>  <FINAL_SINGLE_POINT_ENERGY>  (1547) 
0

>  <NONCOV_INTER_ENERGY_QM>  (1547) 
0

>  <FF_Energy>  (1547) 
-6.5

>  <QM_Energy>  (1547) 
-14.13

>  <source>  (1547) 
ETAM_MBZ

>  <Index>  (1547) 
15574

$$$$
ETAM-pdb3cuz-A-LYS-285:MBZ-pdb3cuz-A-PHE-281
     RDKit          3D

 26 25  0  0  0  0  0  0  0  0999 V2000
   -1.5771   -1.8412    3.2644 C   0  0  0  0  0  0  0  0  0  0  0  0
   -1.7158   -2.5727    3.9269 H   0  0  0  0  0  0  0  0  0  0  0  0
   -1.6703   -2.1975    2.3388 H   0  0  0  0  0  0  0  0  0  0  0  0
   -2.3359   -1.0752    3.4241 H   0  0  0  0  0  0  0  0  0  0  0  0
   -0.1607   -1.2972    3.4329 C   0  0  0  0  0  0  0  0  0  0  0  0
   -0.0059   -0.5819    2.7522 H   0  0  0  0  0  0  0  0  0  0  0  0
   -0.0697   -0.9111    4.3498 H   0  0  0  0  0  0  0  0  0  0  0  0
    0.8531   -2.3773    3.2510 N   0  0  0  0  0  4  0  0  0  0  0  0
    1.2522   -2.3045    2.3382 H   0  0  0  0  0  0  0  0  0  0  0  0
    1.5697   -2.2765    3.9398 H   0  0  0  0  0  0  0  0  0  0  0  0
    0.4095   -3.2666    3.3543 H   0  0  0  0  0  0  0  0  0  0  0  0
    0.0647    2.9285   -0.0683 C   0  0  0  0  0  0  0  0  0  0  0  0
   -0.1637    3.1881   -1.0040 H   0  0  0  0  0  0  0  0  0  0  0  0
    1.0020    3.1989    0.1396 H   0  0  0  0  0  0  0  0  0  0  0  0
   -0.5963    3.4795    0.6008 H   0  0  0  0  0  0  0  0  0  0  0  0
   -0.0006    1.4104    0.0119 C   0  0  0  0  0  0  0  0  0  0  0  0
   -1.1979    0.7056   -0.0083 C   0  0  0  0  0  0  0  0  0  0  0  0
   -2.0641    1.1861   -0.0297 H   0  0  0  0  0  0  0  0  0  0  0  0
   -1.1975   -0.7000    0.0000 C   0  0  0  0  0  0  0  0  0  0  0  0
   -2.0743   -1.1893    0.0051 H   0  0  0  0  0  0  0  0  0  0  0  0
    0.0059   -1.3953    0.0028 C   0  0  0  0  0  0  0  0  0  0  0  0
   -0.0034   -2.3968    0.0066 H   0  0  0  0  0  0  0  0  0  0  0  0
    1.1975   -0.7050    0.0000 C   0  0  0  0  0  0  0  0  0  0  0  0
    2.0820   -1.1996    0.0038 H   0  0  0  0  0  0  0  0  0  0  0  0
    1.1926    0.6843   -0.0063 C   0  0  0  0  0  0  0  0  0  0  0  0
    2.0656    1.1809   -0.0252 H   0  0  0  0  0  0  0  0  0  0  0  0
  1  5  1  0
  5  8  1  0
  1  2  1  0
  1  3  1  0
  1  4  1  0
  5  6  1  0
  5  7  1  0
  8  9  1  0
  8 10  1  0
  8 11  1  0
 12 16  1  0
 16 17  2  0
 17 19  1  0
 19 21  2  0
 21 23  1  0
 23 25  2  0
 25 16  1  0
 12 13  1  0
 12 14  1  0
 12 15  1  0
 17 18  1  0
 19 20  1  0
 21 22  1  0
 23 24  1  0
 25 26  1  0
M  CHG  1   8   1
M  END
>  <PDB_ID>  (1548) 
pdb3cuz

>  <RESIDUE_NAME>  (1548) 
LYS   PHE

>  <FRAG_NAME>  (1548) 
ETAM   MBZ

>  <FRAG_ATOM_NUM>  (1548) 
fragi: 11  fragj: 15

>  <atom.prop.CHAIN_ID>  (1548) 
A A A A A A A A A A A Z Z Z Z Z Z Z Z Z Z Z Z Z Z Z

>  <atom.prop.IS_HEAVY_ATOM>  (1548) 
1 0 0 0 1 0 0 1 0 0 0 1 0 0 0 1 1 0 1 0 1 0 1 0 1 0

>  <DIFUSE_FUNC_ATOM>  (1548) 
n/a

>  <FINAL_SINGLE_POINT_ENERGY>  (1548) 
0

>  <NONCOV_INTER_ENERGY_QM>  (1548) 
0

>  <FF_Energy>  (1548) 
-4.65

>  <QM_Energy>  (1548) 
-11.87

>  <source>  (1548) 
ETAM_MBZ

>  <Index>  (1548) 
15584

$$$$
ETAM-pdb1z3s-A-LYS-473:MBZ-pdb1z3s-A-PHE-469
     RDKit          3D

 26 25  0  0  0  0  0  0  0  0999 V2000
   -0.7601   -0.5564    5.8305 C   0  0  0  0  0  0  0  0  0  0  0  0
   -0.0834   -1.2821    5.7284 H   0  0  0  0  0  0  0  0  0  0  0  0
   -1.6762   -0.9240    5.6855 H   0  0  0  0  0  0  0  0  0  0  0  0
   -0.6996   -0.1691    6.8476 H   0  0  0  0  0  0  0  0  0  0  0  0
   -0.4911    0.5122    4.7733 C   0  0  0  0  0  0  0  0  0  0  0  0
   -1.2399    1.1832    4.7897 H   0  0  0  0  0  0  0  0  0  0  0  0
    0.3673    0.9857    4.9988 H   0  0  0  0  0  0  0  0  0  0  0  0
   -0.3790   -0.0538    3.3822 N   0  0  0  0  0  4  0  0  0  0  0  0
   -1.2790   -0.0398    2.9543 H   0  0  0  0  0  0  0  0  0  0  0  0
    0.2580    0.5043    2.8565 H   0  0  0  0  0  0  0  0  0  0  0  0
   -0.0436   -0.9909    3.4413 H   0  0  0  0  0  0  0  0  0  0  0  0
   -0.0025    2.9077    0.0322 C   0  0  0  0  0  0  0  0  0  0  0  0
   -0.6517    3.2281   -0.6408 H   0  0  0  0  0  0  0  0  0  0  0  0
    0.9126    3.2205   -0.1738 H   0  0  0  0  0  0  0  0  0  0  0  0
   -0.2886    3.3262    0.9972 H   0  0  0  0  0  0  0  0  0  0  0  0
   -0.0001    1.4078    0.0007 C   0  0  0  0  0  0  0  0  0  0  0  0
   -1.2006    0.6986   -0.0002 C   0  0  0  0  0  0  0  0  0  0  0  0
   -2.0669    1.1863   -0.0019 H   0  0  0  0  0  0  0  0  0  0  0  0
   -1.2074   -0.7019   -0.0000 C   0  0  0  0  0  0  0  0  0  0  0  0
   -2.0814   -1.1923    0.0015 H   0  0  0  0  0  0  0  0  0  0  0  0
    0.0011   -1.4028    0.0004 C   0  0  0  0  0  0  0  0  0  0  0  0
   -0.0017   -2.3976    0.0003 H   0  0  0  0  0  0  0  0  0  0  0  0
    1.2074   -0.6997    0.0000 C   0  0  0  0  0  0  0  0  0  0  0  0
    2.0873   -1.1941    0.0013 H   0  0  0  0  0  0  0  0  0  0  0  0
    1.1997    0.6980   -0.0009 C   0  0  0  0  0  0  0  0  0  0  0  0
    2.0673    1.1938   -0.0034 H   0  0  0  0  0  0  0  0  0  0  0  0
  1  5  1  0
  5  8  1  0
  1  2  1  0
  1  3  1  0
  1  4  1  0
  5  6  1  0
  5  7  1  0
  8  9  1  0
  8 10  1  0
  8 11  1  0
 12 16  1  0
 16 17  2  0
 17 19  1  0
 19 21  2  0
 21 23  1  0
 23 25  2  0
 25 16  1  0
 12 13  1  0
 12 14  1  0
 12 15  1  0
 17 18  1  0
 19 20  1  0
 21 22  1  0
 23 24  1  0
 25 26  1  0
M  CHG  1   8   1
M  END
>  <PDB_ID>  (1549) 
pdb1z3s

>  <RESIDUE_NAME>  (1549) 
LYS   PHE

>  <FRAG_NAME>  (1549) 
ETAM   MBZ

>  <FRAG_ATOM_NUM>  (1549) 
fragi: 11  fragj: 15

>  <atom.prop.CHAIN_ID>  (1549) 
A A A A A A A A A A A Z Z Z Z Z Z Z Z Z Z Z Z Z Z Z

>  <atom.prop.IS_HEAVY_ATOM>  (1549) 
1 0 0 0 1 0 0 1 0 0 0 1 0 0 0 1 1 0 1 0 1 0 1 0 1 0

>  <DIFUSE_FUNC_ATOM>  (1549) 
n/a

>  <FINAL_SINGLE_POINT_ENERGY>  (1549) 
0

>  <NONCOV_INTER_ENERGY_QM>  (1549) 
0

>  <FF_Energy>  (1549) 
-7.89

>  <QM_Energy>  (1549) 
-14.18

>  <source>  (1549) 
ETAM_MBZ

>  <Index>  (1549) 
15603

$$$$
ETAM-pdb3cvz-B-LYS-106:MBZ-pdb3cvz-B-PHE-207
     RDKit          3D

 26 25  0  0  0  0  0  0  0  0999 V2000
   -0.9842   -2.3316    4.0787 C   0  0  0  0  0  0  0  0  0  0  0  0
   -1.8555   -2.1509    4.5079 H   0  0  0  0  0  0  0  0  0  0  0  0
   -0.2985   -2.5821    4.7437 H   0  0  0  0  0  0  0  0  0  0  0  0
   -1.0986   -3.1378    3.3542 H   0  0  0  0  0  0  0  0  0  0  0  0
   -0.5264   -1.0688    3.3654 C   0  0  0  0  0  0  0  0  0  0  0  0
   -0.3551   -1.2872    2.3951 H   0  0  0  0  0  0  0  0  0  0  0  0
   -1.2672   -0.3855    3.4059 H   0  0  0  0  0  0  0  0  0  0  0  0
    0.7096   -0.4792    3.9555 N   0  0  0  0  0  4  0  0  0  0  0  0
    0.4584    0.2656    4.5724 H   0  0  0  0  0  0  0  0  0  0  0  0
    1.2018   -1.1843    4.4637 H   0  0  0  0  0  0  0  0  0  0  0  0
    1.2900   -0.1270    3.2223 H   0  0  0  0  0  0  0  0  0  0  0  0
   -0.0023    2.8806   -0.0222 C   0  0  0  0  0  0  0  0  0  0  0  0
    0.8134    3.1994    0.4367 H   0  0  0  0  0  0  0  0  0  0  0  0
   -0.8198    3.1955    0.4380 H   0  0  0  0  0  0  0  0  0  0  0  0
   -0.0042    3.3016   -1.0276 H   0  0  0  0  0  0  0  0  0  0  0  0
    0.0017    1.3938   -0.0054 C   0  0  0  0  0  0  0  0  0  0  0  0
   -1.1965    0.6856   -0.0020 C   0  0  0  0  0  0  0  0  0  0  0  0
   -2.0629    1.1784   -0.0020 H   0  0  0  0  0  0  0  0  0  0  0  0
   -1.2042   -0.7039    0.0000 C   0  0  0  0  0  0  0  0  0  0  0  0
   -2.0793   -1.1958    0.0026 H   0  0  0  0  0  0  0  0  0  0  0  0
   -0.0045   -1.3887    0.0001 C   0  0  0  0  0  0  0  0  0  0  0  0
    0.0040   -2.3886    0.0001 H   0  0  0  0  0  0  0  0  0  0  0  0
    1.2042   -0.6849    0.0000 C   0  0  0  0  0  0  0  0  0  0  0  0
    2.0823   -1.1893   -0.0040 H   0  0  0  0  0  0  0  0  0  0  0  0
    1.1993    0.6982    0.0072 C   0  0  0  0  0  0  0  0  0  0  0  0
    2.0642    1.1988    0.0211 H   0  0  0  0  0  0  0  0  0  0  0  0
  1  5  1  0
  5  8  1  0
  1  2  1  0
  1  3  1  0
  1  4  1  0
  5  6  1  0
  5  7  1  0
  8  9  1  0
  8 10  1  0
  8 11  1  0
 12 16  1  0
 16 17  2  0
 17 19  1  0
 19 21  2  0
 21 23  1  0
 23 25  2  0
 25 16  1  0
 12 13  1  0
 12 14  1  0
 12 15  1  0
 17 18  1  0
 19 20  1  0
 21 22  1  0
 23 24  1  0
 25 26  1  0
M  CHG  1   8   1
M  END
>  <PDB_ID>  (1550) 
pdb3cvz

>  <RESIDUE_NAME>  (1550) 
LYS   PHE

>  <FRAG_NAME>  (1550) 
ETAM   MBZ

>  <FRAG_ATOM_NUM>  (1550) 
fragi: 11  fragj: 15

>  <atom.prop.CHAIN_ID>  (1550) 
A A A A A A A A A A A Z Z Z Z Z Z Z Z Z Z Z Z Z Z Z

>  <atom.prop.IS_HEAVY_ATOM>  (1550) 
1 0 0 0 1 0 0 1 0 0 0 1 0 0 0 1 1 0 1 0 1 0 1 0 1 0

>  <DIFUSE_FUNC_ATOM>  (1550) 
n/a

>  <FINAL_SINGLE_POINT_ENERGY>  (1550) 
0

>  <NONCOV_INTER_ENERGY_QM>  (1550) 
0

>  <FF_Energy>  (1550) 
-4.37

>  <QM_Energy>  (1550) 
-10.31

>  <source>  (1550) 
ETAM_MBZ

>  <Index>  (1550) 
15604

$$$$
ETAM-pdb1z3s-B-LYS-473:MBZ-pdb1z3s-B-PHE-469
     RDKit          3D

 26 25  0  0  0  0  0  0  0  0999 V2000
   -1.3281    0.1780    5.4176 C   0  0  0  0  0  0  0  0  0  0  0  0
   -2.2668   -0.0657    5.1804 H   0  0  0  0  0  0  0  0  0  0  0  0
   -1.1182    1.0896    5.0689 H   0  0  0  0  0  0  0  0  0  0  0  0
   -1.2395    0.1932    6.5039 H   0  0  0  0  0  0  0  0  0  0  0  0
   -0.3844   -0.8233    4.7622 C   0  0  0  0  0  0  0  0  0  0  0  0
    0.5471   -0.6557    5.0896 H   0  0  0  0  0  0  0  0  0  0  0  0
   -0.6619   -1.7506    5.0192 H   0  0  0  0  0  0  0  0  0  0  0  0
   -0.4027   -0.7081    3.2661 N   0  0  0  0  0  4  0  0  0  0  0  0
   -1.2768   -0.3228    2.9798 H   0  0  0  0  0  0  0  0  0  0  0  0
    0.3425   -0.1117    2.9767 H   0  0  0  0  0  0  0  0  0  0  0  0
   -0.2851   -1.6151    2.8683 H   0  0  0  0  0  0  0  0  0  0  0  0
   -0.0018    2.9050   -0.0043 C   0  0  0  0  0  0  0  0  0  0  0  0
   -0.6720    3.2103   -0.6648 H   0  0  0  0  0  0  0  0  0  0  0  0
    0.9063    3.2122   -0.2459 H   0  0  0  0  0  0  0  0  0  0  0  0
   -0.2581    3.3470    0.9585 H   0  0  0  0  0  0  0  0  0  0  0  0
   -0.0006    1.4051   -0.0006 C   0  0  0  0  0  0  0  0  0  0  0  0
   -1.1996    0.6970    0.0011 C   0  0  0  0  0  0  0  0  0  0  0  0
   -2.0659    1.1849    0.0013 H   0  0  0  0  0  0  0  0  0  0  0  0
   -1.2046   -0.7007    0.0000 C   0  0  0  0  0  0  0  0  0  0  0  0
   -2.0785   -1.1931    0.0013 H   0  0  0  0  0  0  0  0  0  0  0  0
    0.0036   -1.3992   -0.0009 C   0  0  0  0  0  0  0  0  0  0  0  0
   -0.0015   -2.3961   -0.0031 H   0  0  0  0  0  0  0  0  0  0  0  0
    1.2046   -0.6997   -0.0000 C   0  0  0  0  0  0  0  0  0  0  0  0
    2.0869   -1.1928    0.0016 H   0  0  0  0  0  0  0  0  0  0  0  0
    1.1965    0.6975    0.0004 C   0  0  0  0  0  0  0  0  0  0  0  0
    2.0648    1.1926    0.0009 H   0  0  0  0  0  0  0  0  0  0  0  0
  1  5  1  0
  5  8  1  0
  1  2  1  0
  1  3  1  0
  1  4  1  0
  5  6  1  0
  5  7  1  0
  8  9  1  0
  8 10  1  0
  8 11  1  0
 12 16  1  0
 16 17  2  0
 17 19  1  0
 19 21  2  0
 21 23  1  0
 23 25  2  0
 25 16  1  0
 12 13  1  0
 12 14  1  0
 12 15  1  0
 17 18  1  0
 19 20  1  0
 21 22  1  0
 23 24  1  0
 25 26  1  0
M  CHG  1   8   1
M  END
>  <PDB_ID>  (1551) 
pdb1z3s

>  <RESIDUE_NAME>  (1551) 
LYS   PHE

>  <FRAG_NAME>  (1551) 
ETAM   MBZ

>  <FRAG_ATOM_NUM>  (1551) 
fragi: 11  fragj: 15

>  <atom.prop.CHAIN_ID>  (1551) 
A A A A A A A A A A A Z Z Z Z Z Z Z Z Z Z Z Z Z Z Z

>  <atom.prop.IS_HEAVY_ATOM>  (1551) 
1 0 0 0 1 0 0 1 0 0 0 1 0 0 0 1 1 0 1 0 1 0 1 0 1 0

>  <DIFUSE_FUNC_ATOM>  (1551) 
n/a

>  <FINAL_SINGLE_POINT_ENERGY>  (1551) 
0

>  <NONCOV_INTER_ENERGY_QM>  (1551) 
0

>  <FF_Energy>  (1551) 
-7.4

>  <QM_Energy>  (1551) 
-14.11

>  <source>  (1551) 
ETAM_MBZ

>  <Index>  (1551) 
15605

$$$$
ETAM-pdb3cux-A-LYS-497:MBZ-pdb3cux-A-PHE-501
     RDKit          3D

 26 25  0  0  0  0  0  0  0  0999 V2000
    3.3877    1.2966    3.1208 C   0  0  0  0  0  0  0  0  0  0  0  0
    2.9764    2.1633    2.8361 H   0  0  0  0  0  0  0  0  0  0  0  0
    3.4841    0.6975    2.3246 H   0  0  0  0  0  0  0  0  0  0  0  0
    4.3792    1.4987    3.5261 H   0  0  0  0  0  0  0  0  0  0  0  0
    2.4761    0.6319    4.1214 C   0  0  0  0  0  0  0  0  0  0  0  0
    2.8787   -0.2378    4.4081 H   0  0  0  0  0  0  0  0  0  0  0  0
    2.3715    1.2265    4.9190 H   0  0  0  0  0  0  0  0  0  0  0  0
    1.1393    0.3759    3.5261 N   0  0  0  0  0  4  0  0  0  0  0  0
    0.7247    1.2442    3.2532 H   0  0  0  0  0  0  0  0  0  0  0  0
    1.2388   -0.2122    2.7243 H   0  0  0  0  0  0  0  0  0  0  0  0
    0.5550   -0.0756    4.2013 H   0  0  0  0  0  0  0  0  0  0  0  0
   -0.0063    2.8750   -0.0166 C   0  0  0  0  0  0  0  0  0  0  0  0
    0.8253    3.2062    0.3998 H   0  0  0  0  0  0  0  0  0  0  0  0
   -0.8062    3.2004    0.4633 H   0  0  0  0  0  0  0  0  0  0  0  0
   -0.0474    3.2763   -1.0292 H   0  0  0  0  0  0  0  0  0  0  0  0
    0.0009    1.3981    0.0177 C   0  0  0  0  0  0  0  0  0  0  0  0
   -1.2015    0.6961   -0.0083 C   0  0  0  0  0  0  0  0  0  0  0  0
   -2.0632    1.1945   -0.0341 H   0  0  0  0  0  0  0  0  0  0  0  0
   -1.2113   -0.6875    0.0000 C   0  0  0  0  0  0  0  0  0  0  0  0
   -2.0837   -1.1867    0.0113 H   0  0  0  0  0  0  0  0  0  0  0  0
    0.0004   -1.3988   -0.0056 C   0  0  0  0  0  0  0  0  0  0  0  0
   -0.0123   -2.3921   -0.0143 H   0  0  0  0  0  0  0  0  0  0  0  0
    1.2113   -0.7024    0.0000 C   0  0  0  0  0  0  0  0  0  0  0  0
    2.0870   -1.1980    0.0083 H   0  0  0  0  0  0  0  0  0  0  0  0
    1.2003    0.6946   -0.0038 C   0  0  0  0  0  0  0  0  0  0  0  0
    2.0667    1.1920   -0.0225 H   0  0  0  0  0  0  0  0  0  0  0  0
  1  5  1  0
  5  8  1  0
  1  2  1  0
  1  3  1  0
  1  4  1  0
  5  6  1  0
  5  7  1  0
  8  9  1  0
  8 10  1  0
  8 11  1  0
 12 16  1  0
 16 17  2  0
 17 19  1  0
 19 21  2  0
 21 23  1  0
 23 25  2  0
 25 16  1  0
 12 13  1  0
 12 14  1  0
 12 15  1  0
 17 18  1  0
 19 20  1  0
 21 22  1  0
 23 24  1  0
 25 26  1  0
M  CHG  1   8   1
M  END
>  <PDB_ID>  (1552) 
pdb3cux

>  <RESIDUE_NAME>  (1552) 
LYS   PHE

>  <FRAG_NAME>  (1552) 
ETAM   MBZ

>  <FRAG_ATOM_NUM>  (1552) 
fragi: 11  fragj: 15

>  <atom.prop.CHAIN_ID>  (1552) 
A A A A A A A A A A A Z Z Z Z Z Z Z Z Z Z Z Z Z Z Z

>  <atom.prop.IS_HEAVY_ATOM>  (1552) 
1 0 0 0 1 0 0 1 0 0 0 1 0 0 0 1 1 0 1 0 1 0 1 0 1 0

>  <DIFUSE_FUNC_ATOM>  (1552) 
n/a

>  <FINAL_SINGLE_POINT_ENERGY>  (1552) 
0

>  <NONCOV_INTER_ENERGY_QM>  (1552) 
0

>  <FF_Energy>  (1552) 
-7.37

>  <QM_Energy>  (1552) 
-12.83

>  <source>  (1552) 
ETAM_MBZ

>  <Index>  (1552) 
15630

$$$$
ETAM-pdb1z5h-B-LYS-682:MBZ-pdb1z5h-B-PHE-717
     RDKit          3D

 26 25  0  0  0  0  0  0  0  0999 V2000
   -0.7587   -0.8515   -4.3147 C   0  0  0  0  0  0  0  0  0  0  0  0
   -0.0949   -0.1186   -4.2105 H   0  0  0  0  0  0  0  0  0  0  0  0
   -1.1052   -0.8768   -5.2465 H   0  0  0  0  0  0  0  0  0  0  0  0
   -0.2691   -1.8005   -4.0964 H   0  0  0  0  0  0  0  0  0  0  0  0
   -1.9253   -0.5898   -3.3694 C   0  0  0  0  0  0  0  0  0  0  0  0
   -2.7025   -1.1704   -3.6439 H   0  0  0  0  0  0  0  0  0  0  0  0
   -1.6520   -0.8517   -2.4353 H   0  0  0  0  0  0  0  0  0  0  0  0
   -2.3661    0.8393   -3.3616 N   0  0  0  0  0  4  0  0  0  0  0  0
   -3.3308    0.8862   -3.6161 H   0  0  0  0  0  0  0  0  0  0  0  0
   -2.2394    1.2165   -2.4463 H   0  0  0  0  0  0  0  0  0  0  0  0
   -1.8181    1.3550   -4.0183 H   0  0  0  0  0  0  0  0  0  0  0  0
   -0.0029    2.9118   -0.0424 C   0  0  0  0  0  0  0  0  0  0  0  0
    0.8524    3.2297    0.3294 H   0  0  0  0  0  0  0  0  0  0  0  0
   -0.7733    3.2299    0.4846 H   0  0  0  0  0  0  0  0  0  0  0  0
   -0.0988    3.3178   -1.0493 H   0  0  0  0  0  0  0  0  0  0  0  0
    0.0014    1.4031   -0.0002 C   0  0  0  0  0  0  0  0  0  0  0  0
   -1.1952    0.6914    0.0001 C   0  0  0  0  0  0  0  0  0  0  0  0
   -2.0623    1.1842   -0.0009 H   0  0  0  0  0  0  0  0  0  0  0  0
   -1.2012   -0.6957   -0.0000 C   0  0  0  0  0  0  0  0  0  0  0  0
   -2.0800   -1.1893    0.0011 H   0  0  0  0  0  0  0  0  0  0  0  0
   -0.0036   -1.3945   -0.0004 C   0  0  0  0  0  0  0  0  0  0  0  0
   -0.0071   -2.3923   -0.0011 H   0  0  0  0  0  0  0  0  0  0  0  0
    1.2012   -0.6978   -0.0000 C   0  0  0  0  0  0  0  0  0  0  0  0
    2.0805   -1.1966    0.0011 H   0  0  0  0  0  0  0  0  0  0  0  0
    1.1975    0.6934    0.0004 C   0  0  0  0  0  0  0  0  0  0  0  0
    2.0662    1.1896    0.0003 H   0  0  0  0  0  0  0  0  0  0  0  0
  1  5  1  0
  5  8  1  0
  1  2  1  0
  1  3  1  0
  1  4  1  0
  5  6  1  0
  5  7  1  0
  8  9  1  0
  8 10  1  0
  8 11  1  0
 12 16  1  0
 16 17  2  0
 17 19  1  0
 19 21  2  0
 21 23  1  0
 23 25  2  0
 25 16  1  0
 12 13  1  0
 12 14  1  0
 12 15  1  0
 17 18  1  0
 19 20  1  0
 21 22  1  0
 23 24  1  0
 25 26  1  0
M  CHG  1   8   1
M  END
>  <PDB_ID>  (1553) 
pdb1z5h

>  <RESIDUE_NAME>  (1553) 
LYS   PHE

>  <FRAG_NAME>  (1553) 
ETAM   MBZ

>  <FRAG_ATOM_NUM>  (1553) 
fragi: 11  fragj: 15

>  <atom.prop.CHAIN_ID>  (1553) 
A A A A A A A A A A A Z Z Z Z Z Z Z Z Z Z Z Z Z Z Z

>  <atom.prop.IS_HEAVY_ATOM>  (1553) 
1 0 0 0 1 0 0 1 0 0 0 1 0 0 0 1 1 0 1 0 1 0 1 0 1 0

>  <DIFUSE_FUNC_ATOM>  (1553) 
n/a

>  <FINAL_SINGLE_POINT_ENERGY>  (1553) 
0

>  <NONCOV_INTER_ENERGY_QM>  (1553) 
0

>  <FF_Energy>  (1553) 
-3.69

>  <QM_Energy>  (1553) 
-9.88

>  <source>  (1553) 
ETAM_MBZ

>  <Index>  (1553) 
15634

$$$$
ETAM-pdb3cog-A-LYS-260:MBZ-pdb3cog-D-PHE-344
     RDKit          3D

 26 25  0  0  0  0  0  0  0  0999 V2000
    0.2777   -0.9927    3.2753 C   0  0  0  0  0  0  0  0  0  0  0  0
   -0.5117   -1.3862    2.8296 H   0  0  0  0  0  0  0  0  0  0  0  0
    0.8516   -0.5072    2.6346 H   0  0  0  0  0  0  0  0  0  0  0  0
   -0.0343   -0.3302    4.0827 H   0  0  0  0  0  0  0  0  0  0  0  0
    1.0997   -2.1351    3.8682 C   0  0  0  0  0  0  0  0  0  0  0  0
    1.9709   -1.7677    4.1977 H   0  0  0  0  0  0  0  0  0  0  0  0
    0.5949   -2.5292    4.6379 H   0  0  0  0  0  0  0  0  0  0  0  0
    1.3627   -3.1946    2.8571 N   0  0  0  0  0  4  0  0  0  0  0  0
    1.6475   -4.0327    3.3218 H   0  0  0  0  0  0  0  0  0  0  0  0
    0.5286   -3.3680    2.3340 H   0  0  0  0  0  0  0  0  0  0  0  0
    2.0875   -2.8908    2.2399 H   0  0  0  0  0  0  0  0  0  0  0  0
   -0.0025    2.8789    0.0020 C   0  0  0  0  0  0  0  0  0  0  0  0
    0.5544    3.1985    0.7554 H   0  0  0  0  0  0  0  0  0  0  0  0
   -0.9354    3.1972    0.0870 H   0  0  0  0  0  0  0  0  0  0  0  0
    0.4055    3.3169   -0.9089 H   0  0  0  0  0  0  0  0  0  0  0  0
   -0.0029    1.3952    0.0054 C   0  0  0  0  0  0  0  0  0  0  0  0
   -1.1964    0.6911   -0.0049 C   0  0  0  0  0  0  0  0  0  0  0  0
   -2.0625    1.1787   -0.0166 H   0  0  0  0  0  0  0  0  0  0  0  0
   -1.1924   -0.6950    0.0000 C   0  0  0  0  0  0  0  0  0  0  0  0
   -2.0675   -1.1956    0.0101 H   0  0  0  0  0  0  0  0  0  0  0  0
    0.0110   -1.3860   -0.0068 C   0  0  0  0  0  0  0  0  0  0  0  0
    0.0018   -2.3880   -0.0170 H   0  0  0  0  0  0  0  0  0  0  0  0
    1.1924   -0.6958    0.0000 C   0  0  0  0  0  0  0  0  0  0  0  0
    2.0824   -1.1885    0.0024 H   0  0  0  0  0  0  0  0  0  0  0  0
    1.1883    0.6905    0.0063 C   0  0  0  0  0  0  0  0  0  0  0  0
    2.0582    1.1873    0.0108 H   0  0  0  0  0  0  0  0  0  0  0  0
  1  5  1  0
  5  8  1  0
  1  2  1  0
  1  3  1  0
  1  4  1  0
  5  6  1  0
  5  7  1  0
  8  9  1  0
  8 10  1  0
  8 11  1  0
 12 16  1  0
 16 17  2  0
 17 19  1  0
 19 21  2  0
 21 23  1  0
 23 25  2  0
 25 16  1  0
 12 13  1  0
 12 14  1  0
 12 15  1  0
 17 18  1  0
 19 20  1  0
 21 22  1  0
 23 24  1  0
 25 26  1  0
M  CHG  1   8   1
M  END
>  <PDB_ID>  (1554) 
pdb3cog

>  <RESIDUE_NAME>  (1554) 
LYS   PHE

>  <FRAG_NAME>  (1554) 
ETAM   MBZ

>  <FRAG_ATOM_NUM>  (1554) 
fragi: 11  fragj: 15

>  <atom.prop.CHAIN_ID>  (1554) 
A A A A A A A A A A A Z Z Z Z Z Z Z Z Z Z Z Z Z Z Z

>  <atom.prop.IS_HEAVY_ATOM>  (1554) 
1 0 0 0 1 0 0 1 0 0 0 1 0 0 0 1 1 0 1 0 1 0 1 0 1 0

>  <DIFUSE_FUNC_ATOM>  (1554) 
n/a

>  <FINAL_SINGLE_POINT_ENERGY>  (1554) 
0

>  <NONCOV_INTER_ENERGY_QM>  (1554) 
0

>  <FF_Energy>  (1554) 
-2.07

>  <QM_Energy>  (1554) 
-7.78

>  <source>  (1554) 
ETAM_MBZ

>  <Index>  (1554) 
15643

$$$$
ETAM-pdb3czv-B-LEU-3:MBZ-pdb3czv-B-PHE-19
     RDKit          3D

 26 25  0  0  0  0  0  0  0  0999 V2000
    0.4986    0.4670   -3.2609 C   0  0  0  0  0  0  0  0  0  0  0  0
    0.4148    0.1018   -2.3349 H   0  0  0  0  0  0  0  0  0  0  0  0
    0.6220    1.4562   -3.2225 H   0  0  0  0  0  0  0  0  0  0  0  0
   -0.4493    0.2805   -3.7656 H   0  0  0  0  0  0  0  0  0  0  0  0
    1.7620   -0.1403   -3.8923 C   0  0  0  0  0  0  0  0  0  0  0  0
    1.7148   -1.1468   -3.8088 H   0  0  0  0  0  0  0  0  0  0  0  0
    1.7741    0.1241   -4.9497 H   0  0  0  0  0  0  0  0  0  0  0  0
    2.9819    0.3155   -3.1614 N   0  0  0  0  0  4  0  0  0  0  0  0
    2.9193    0.0252   -2.2107 H   0  0  0  0  0  0  0  0  0  0  0  0
    3.7867   -0.0900   -3.5870 H   0  0  0  0  0  0  0  0  0  0  0  0
    3.0377    1.3094   -3.2083 H   0  0  0  0  0  0  0  0  0  0  0  0
    0.0008    2.9028    0.0363 C   0  0  0  0  0  0  0  0  0  0  0  0
   -0.6379    3.2265   -0.6437 H   0  0  0  0  0  0  0  0  0  0  0  0
    0.9193    3.2142   -0.1514 H   0  0  0  0  0  0  0  0  0  0  0  0
   -0.3003    3.3161    0.9989 H   0  0  0  0  0  0  0  0  0  0  0  0
    0.0003    1.4024    0.0010 C   0  0  0  0  0  0  0  0  0  0  0  0
   -1.1976    0.6927   -0.0007 C   0  0  0  0  0  0  0  0  0  0  0  0
   -2.0642    1.1840   -0.0037 H   0  0  0  0  0  0  0  0  0  0  0  0
   -1.2042   -0.6997    0.0000 C   0  0  0  0  0  0  0  0  0  0  0  0
   -2.0797   -1.1927    0.0011 H   0  0  0  0  0  0  0  0  0  0  0  0
   -0.0005   -1.3959    0.0009 C   0  0  0  0  0  0  0  0  0  0  0  0
   -0.0025   -2.3939    0.0020 H   0  0  0  0  0  0  0  0  0  0  0  0
    1.2042   -0.6964    0.0000 C   0  0  0  0  0  0  0  0  0  0  0  0
    2.0841   -1.1932    0.0019 H   0  0  0  0  0  0  0  0  0  0  0  0
    1.1977    0.6968   -0.0012 C   0  0  0  0  0  0  0  0  0  0  0  0
    2.0654    1.1930   -0.0042 H   0  0  0  0  0  0  0  0  0  0  0  0
  1  5  1  0
  5  8  1  0
  1  2  1  0
  1  3  1  0
  1  4  1  0
  5  6  1  0
  5  7  1  0
  8  9  1  0
  8 10  1  0
  8 11  1  0
 12 16  1  0
 16 17  2  0
 17 19  1  0
 19 21  2  0
 21 23  1  0
 23 25  2  0
 25 16  1  0
 12 13  1  0
 12 14  1  0
 12 15  1  0
 17 18  1  0
 19 20  1  0
 21 22  1  0
 23 24  1  0
 25 26  1  0
M  CHG  1   8   1
M  END
>  <PDB_ID>  (1555) 
pdb3czv

>  <RESIDUE_NAME>  (1555) 
LEU   PHE

>  <FRAG_NAME>  (1555) 
ETAM   MBZ

>  <FRAG_ATOM_NUM>  (1555) 
fragi: 11  fragj: 15

>  <atom.prop.CHAIN_ID>  (1555) 
A A A A A A A A A A A Z Z Z Z Z Z Z Z Z Z Z Z Z Z Z

>  <atom.prop.IS_HEAVY_ATOM>  (1555) 
1 0 0 0 1 0 0 1 0 0 0 1 0 0 0 1 1 0 1 0 1 0 1 0 1 0

>  <DIFUSE_FUNC_ATOM>  (1555) 
n/a

>  <FINAL_SINGLE_POINT_ENERGY>  (1555) 
0

>  <NONCOV_INTER_ENERGY_QM>  (1555) 
0

>  <FF_Energy>  (1555) 
-2.6

>  <QM_Energy>  (1555) 
-9.25

>  <source>  (1555) 
ETAM_MBZ

>  <Index>  (1555) 
15656

$$$$
ETAM-pdb3czv-B-LYS-159:MBZ-pdb3czv-B-PHE-176
     RDKit          3D

 26 25  0  0  0  0  0  0  0  0999 V2000
   -0.9029   -3.1840    3.0375 C   0  0  0  0  0  0  0  0  0  0  0  0
   -1.1084   -3.6496    3.8939 H   0  0  0  0  0  0  0  0  0  0  0  0
   -0.1424   -3.6325    2.5772 H   0  0  0  0  0  0  0  0  0  0  0  0
   -1.7810   -3.2321    2.3935 H   0  0  0  0  0  0  0  0  0  0  0  0
   -0.4981   -1.7461    3.3521 C   0  0  0  0  0  0  0  0  0  0  0  0
    0.3155   -1.7618    3.9444 H   0  0  0  0  0  0  0  0  0  0  0  0
   -0.2548   -1.2823    2.4921 H   0  0  0  0  0  0  0  0  0  0  0  0
   -1.5803   -0.9738    4.0315 N   0  0  0  0  0  4  0  0  0  0  0  0
   -1.2986   -0.7666    4.9671 H   0  0  0  0  0  0  0  0  0  0  0  0
   -1.7412   -0.1241    3.5323 H   0  0  0  0  0  0  0  0  0  0  0  0
   -2.4159   -1.5205    4.0444 H   0  0  0  0  0  0  0  0  0  0  0  0
    0.0082    2.9045   -0.0921 C   0  0  0  0  0  0  0  0  0  0  0  0
   -0.6754    3.1769   -0.7592 H   0  0  0  0  0  0  0  0  0  0  0  0
    0.9138    3.1899   -0.3845 H   0  0  0  0  0  0  0  0  0  0  0  0
   -0.2150    3.4252    0.8390 H   0  0  0  0  0  0  0  0  0  0  0  0
   -0.0009    1.4060   -0.0008 C   0  0  0  0  0  0  0  0  0  0  0  0
   -1.1999    0.6986    0.0025 C   0  0  0  0  0  0  0  0  0  0  0  0
   -2.0658    1.1869    0.0050 H   0  0  0  0  0  0  0  0  0  0  0  0
   -1.2043   -0.6974    0.0000 C   0  0  0  0  0  0  0  0  0  0  0  0
   -2.0796   -1.1899    0.0020 H   0  0  0  0  0  0  0  0  0  0  0  0
    0.0014   -1.3982   -0.0037 C   0  0  0  0  0  0  0  0  0  0  0  0
   -0.0056   -2.3953   -0.0096 H   0  0  0  0  0  0  0  0  0  0  0  0
    1.2043   -0.7027   -0.0000 C   0  0  0  0  0  0  0  0  0  0  0  0
    2.0853   -1.1983    0.0028 H   0  0  0  0  0  0  0  0  0  0  0  0
    1.1994    0.6939    0.0020 C   0  0  0  0  0  0  0  0  0  0  0  0
    2.0668    1.1889    0.0049 H   0  0  0  0  0  0  0  0  0  0  0  0
  1  5  1  0
  5  8  1  0
  1  2  1  0
  1  3  1  0
  1  4  1  0
  5  6  1  0
  5  7  1  0
  8  9  1  0
  8 10  1  0
  8 11  1  0
 12 16  1  0
 16 17  2  0
 17 19  1  0
 19 21  2  0
 21 23  1  0
 23 25  2  0
 25 16  1  0
 12 13  1  0
 12 14  1  0
 12 15  1  0
 17 18  1  0
 19 20  1  0
 21 22  1  0
 23 24  1  0
 25 26  1  0
M  CHG  1   8   1
M  END
>  <PDB_ID>  (1556) 
pdb3czv

>  <RESIDUE_NAME>  (1556) 
LYS   PHE

>  <FRAG_NAME>  (1556) 
ETAM   MBZ

>  <FRAG_ATOM_NUM>  (1556) 
fragi: 11  fragj: 15

>  <atom.prop.CHAIN_ID>  (1556) 
A A A A A A A A A A A Z Z Z Z Z Z Z Z Z Z Z Z Z Z Z

>  <atom.prop.IS_HEAVY_ATOM>  (1556) 
1 0 0 0 1 0 0 1 0 0 0 1 0 0 0 1 1 0 1 0 1 0 1 0 1 0

>  <DIFUSE_FUNC_ATOM>  (1556) 
n/a

>  <FINAL_SINGLE_POINT_ENERGY>  (1556) 
0

>  <NONCOV_INTER_ENERGY_QM>  (1556) 
0

>  <FF_Energy>  (1556) 
-3.85

>  <QM_Energy>  (1556) 
-9.13

>  <source>  (1556) 
ETAM_MBZ

>  <Index>  (1556) 
15657

$$$$
ETAM-pdb3czv-B-LYS-213:MBZ-pdb3czv-B-PHE-260
     RDKit          3D

 26 25  0  0  0  0  0  0  0  0999 V2000
    0.7682   -1.9150    3.1342 C   0  0  0  0  0  0  0  0  0  0  0  0
    0.5049   -1.8264    2.1780 H   0  0  0  0  0  0  0  0  0  0  0  0
    0.6432   -1.0471    3.6064 H   0  0  0  0  0  0  0  0  0  0  0  0
    0.1374   -2.6684    3.6060 H   0  0  0  0  0  0  0  0  0  0  0  0
    2.2446   -2.2903    3.1958 C   0  0  0  0  0  0  0  0  0  0  0  0
    2.3649   -3.1971    2.7878 H   0  0  0  0  0  0  0  0  0  0  0  0
    2.7706   -1.6193    2.6707 H   0  0  0  0  0  0  0  0  0  0  0  0
    2.7395   -2.3135    4.5986 N   0  0  0  0  0  4  0  0  0  0  0  0
    3.4320   -1.6023    4.7183 H   0  0  0  0  0  0  0  0  0  0  0  0
    1.9768   -2.1457    5.2224 H   0  0  0  0  0  0  0  0  0  0  0  0
    3.1410   -3.2077    4.7945 H   0  0  0  0  0  0  0  0  0  0  0  0
    0.0017    2.9115   -0.0349 C   0  0  0  0  0  0  0  0  0  0  0  0
    0.8988    3.2227    0.2338 H   0  0  0  0  0  0  0  0  0  0  0  0
   -0.6956    3.2310    0.5871 H   0  0  0  0  0  0  0  0  0  0  0  0
   -0.2144    3.3252   -1.0198 H   0  0  0  0  0  0  0  0  0  0  0  0
    0.0019    1.4052   -0.0000 C   0  0  0  0  0  0  0  0  0  0  0  0
   -1.1980    0.6939    0.0006 C   0  0  0  0  0  0  0  0  0  0  0  0
   -2.0641    1.1838    0.0001 H   0  0  0  0  0  0  0  0  0  0  0  0
   -1.2030   -0.7009   -0.0000 C   0  0  0  0  0  0  0  0  0  0  0  0
   -2.0808   -1.1920    0.0021 H   0  0  0  0  0  0  0  0  0  0  0  0
   -0.0024   -1.3982   -0.0012 C   0  0  0  0  0  0  0  0  0  0  0  0
   -0.0031   -2.3946   -0.0032 H   0  0  0  0  0  0  0  0  0  0  0  0
    1.2030   -0.6973    0.0000 C   0  0  0  0  0  0  0  0  0  0  0  0
    2.0833   -1.1945    0.0019 H   0  0  0  0  0  0  0  0  0  0  0  0
    1.1985    0.6973    0.0006 C   0  0  0  0  0  0  0  0  0  0  0  0
    2.0665    1.1917    0.0012 H   0  0  0  0  0  0  0  0  0  0  0  0
  1  5  1  0
  5  8  1  0
  1  2  1  0
  1  3  1  0
  1  4  1  0
  5  6  1  0
  5  7  1  0
  8  9  1  0
  8 10  1  0
  8 11  1  0
 12 16  1  0
 16 17  2  0
 17 19  1  0
 19 21  2  0
 21 23  1  0
 23 25  2  0
 25 16  1  0
 12 13  1  0
 12 14  1  0
 12 15  1  0
 17 18  1  0
 19 20  1  0
 21 22  1  0
 23 24  1  0
 25 26  1  0
M  CHG  1   8   1
M  END
>  <PDB_ID>  (1557) 
pdb3czv

>  <RESIDUE_NAME>  (1557) 
LYS   PHE

>  <FRAG_NAME>  (1557) 
ETAM   MBZ

>  <FRAG_ATOM_NUM>  (1557) 
fragi: 11  fragj: 15

>  <atom.prop.CHAIN_ID>  (1557) 
A A A A A A A A A A A Z Z Z Z Z Z Z Z Z Z Z Z Z Z Z

>  <atom.prop.IS_HEAVY_ATOM>  (1557) 
1 0 0 0 1 0 0 1 0 0 0 1 0 0 0 1 1 0 1 0 1 0 1 0 1 0

>  <DIFUSE_FUNC_ATOM>  (1557) 
n/a

>  <FINAL_SINGLE_POINT_ENERGY>  (1557) 
0

>  <NONCOV_INTER_ENERGY_QM>  (1557) 
0

>  <FF_Energy>  (1557) 
1.65

>  <QM_Energy>  (1557) 
-3.98

>  <source>  (1557) 
ETAM_MBZ

>  <Index>  (1557) 
15660

$$$$
ETAM-pdb1z77-A-LYS-89:MBZ-pdb1z77-A-PHE-158
     RDKit          3D

 26 25  0  0  0  0  0  0  0  0999 V2000
   -1.7016   -3.0995    3.2000 C   0  0  0  0  0  0  0  0  0  0  0  0
   -0.9882   -2.9999    3.8910 H   0  0  0  0  0  0  0  0  0  0  0  0
   -1.2907   -3.3197    2.3176 H   0  0  0  0  0  0  0  0  0  0  0  0
   -2.3442   -3.9298    3.4928 H   0  0  0  0  0  0  0  0  0  0  0  0
   -2.4594   -1.7978    3.0802 C   0  0  0  0  0  0  0  0  0  0  0  0
   -3.1755   -1.8983    2.3908 H   0  0  0  0  0  0  0  0  0  0  0  0
   -2.8731   -1.5779    3.9626 H   0  0  0  0  0  0  0  0  0  0  0  0
   -1.5446   -0.7028    2.6814 N   0  0  0  0  0  4  0  0  0  0  0  0
   -1.4549   -0.6883    1.6850 H   0  0  0  0  0  0  0  0  0  0  0  0
   -1.9129    0.1729    2.9951 H   0  0  0  0  0  0  0  0  0  0  0  0
   -0.6439   -0.8521    3.0929 H   0  0  0  0  0  0  0  0  0  0  0  0
    0.0107    2.8670    0.0570 C   0  0  0  0  0  0  0  0  0  0  0  0
   -0.8030    3.2169   -0.3761 H   0  0  0  0  0  0  0  0  0  0  0  0
    0.8297    3.1978   -0.3823 H   0  0  0  0  0  0  0  0  0  0  0  0
    0.0185    3.2275    1.0856 H   0  0  0  0  0  0  0  0  0  0  0  0
   -0.0061    1.4051   -0.0092 C   0  0  0  0  0  0  0  0  0  0  0  0
   -1.2126    0.7145   -0.0002 C   0  0  0  0  0  0  0  0  0  0  0  0
   -2.0719    1.1963    0.0052 H   0  0  0  0  0  0  0  0  0  0  0  0
   -1.2089   -0.6927   -0.0000 C   0  0  0  0  0  0  0  0  0  0  0  0
   -2.0767   -1.1906    0.0031 H   0  0  0  0  0  0  0  0  0  0  0  0
    0.0167   -1.4009   -0.0023 C   0  0  0  0  0  0  0  0  0  0  0  0
   -0.0049   -2.3976   -0.0064 H   0  0  0  0  0  0  0  0  0  0  0  0
    1.2089   -0.7110    0.0000 C   0  0  0  0  0  0  0  0  0  0  0  0
    2.0940   -1.2011   -0.0051 H   0  0  0  0  0  0  0  0  0  0  0  0
    1.2020    0.6850    0.0117 C   0  0  0  0  0  0  0  0  0  0  0  0
    2.0665    1.1847    0.0347 H   0  0  0  0  0  0  0  0  0  0  0  0
  1  5  1  0
  5  8  1  0
  1  2  1  0
  1  3  1  0
  1  4  1  0
  5  6  1  0
  5  7  1  0
  8  9  1  0
  8 10  1  0
  8 11  1  0
 12 16  1  0
 16 17  2  0
 17 19  1  0
 19 21  2  0
 21 23  1  0
 23 25  2  0
 25 16  1  0
 12 13  1  0
 12 14  1  0
 12 15  1  0
 17 18  1  0
 19 20  1  0
 21 22  1  0
 23 24  1  0
 25 26  1  0
M  CHG  1   8   1
M  END
>  <PDB_ID>  (1558) 
pdb1z77

>  <RESIDUE_NAME>  (1558) 
LYS   PHE

>  <FRAG_NAME>  (1558) 
ETAM   MBZ

>  <FRAG_ATOM_NUM>  (1558) 
fragi: 11  fragj: 15

>  <atom.prop.CHAIN_ID>  (1558) 
A A A A A A A A A A A Z Z Z Z Z Z Z Z Z Z Z Z Z Z Z

>  <atom.prop.IS_HEAVY_ATOM>  (1558) 
1 0 0 0 1 0 0 1 0 0 0 1 0 0 0 1 1 0 1 0 1 0 1 0 1 0

>  <DIFUSE_FUNC_ATOM>  (1558) 
n/a

>  <FINAL_SINGLE_POINT_ENERGY>  (1558) 
0

>  <NONCOV_INTER_ENERGY_QM>  (1558) 
0

>  <FF_Energy>  (1558) 
-0.42

>  <QM_Energy>  (1558) 
-9.62

>  <source>  (1558) 
ETAM_MBZ

>  <Index>  (1558) 
15663

$$$$
ETAM-pdb1z7d-C-LYS-366:MBZ-pdb1z7d-C-PHE-408
     RDKit          3D

 26 25  0  0  0  0  0  0  0  0999 V2000
    1.0968    0.5537   -4.6687 C   0  0  0  0  0  0  0  0  0  0  0  0
    0.7455    0.4180   -5.5810 H   0  0  0  0  0  0  0  0  0  0  0  0
    1.6095   -0.2280   -4.3543 H   0  0  0  0  0  0  0  0  0  0  0  0
    1.7416    1.4326   -4.6607 H   0  0  0  0  0  0  0  0  0  0  0  0
   -0.0515    0.7953   -3.7319 C   0  0  0  0  0  0  0  0  0  0  0  0
    0.2953    0.8104   -2.7813 H   0  0  0  0  0  0  0  0  0  0  0  0
   -0.4508    1.7052   -3.9264 H   0  0  0  0  0  0  0  0  0  0  0  0
   -1.1098   -0.2278   -3.8414 N   0  0  0  0  0  4  0  0  0  0  0  0
   -0.8804   -0.8740   -4.5718 H   0  0  0  0  0  0  0  0  0  0  0  0
   -1.1909   -0.7245   -2.9752 H   0  0  0  0  0  0  0  0  0  0  0  0
   -1.9849    0.2122   -4.0525 H   0  0  0  0  0  0  0  0  0  0  0  0
    0.0050    2.9341   -0.0101 C   0  0  0  0  0  0  0  0  0  0  0  0
   -0.8213    3.2318   -0.4629 H   0  0  0  0  0  0  0  0  0  0  0  0
    0.8116    3.2273   -0.4997 H   0  0  0  0  0  0  0  0  0  0  0  0
    0.0286    3.3871    0.9810 H   0  0  0  0  0  0  0  0  0  0  0  0
    0.0019    1.4140    0.0006 C   0  0  0  0  0  0  0  0  0  0  0  0
   -1.2066    0.7030    0.0048 C   0  0  0  0  0  0  0  0  0  0  0  0
   -2.0693    1.1914    0.0096 H   0  0  0  0  0  0  0  0  0  0  0  0
   -1.2145   -0.7042    0.0000 C   0  0  0  0  0  0  0  0  0  0  0  0
   -2.0874   -1.1919    0.0023 H   0  0  0  0  0  0  0  0  0  0  0  0
   -0.0030   -1.4033   -0.0066 C   0  0  0  0  0  0  0  0  0  0  0  0
   -0.0053   -2.4002   -0.0168 H   0  0  0  0  0  0  0  0  0  0  0  0
    1.2145   -0.7044   -0.0000 C   0  0  0  0  0  0  0  0  0  0  0  0
    2.0873   -1.2031    0.0055 H   0  0  0  0  0  0  0  0  0  0  0  0
    1.2077    0.6948    0.0012 C   0  0  0  0  0  0  0  0  0  0  0  0
    2.0736    1.1923    0.0017 H   0  0  0  0  0  0  0  0  0  0  0  0
  1  5  1  0
  5  8  1  0
  1  2  1  0
  1  3  1  0
  1  4  1  0
  5  6  1  0
  5  7  1  0
  8  9  1  0
  8 10  1  0
  8 11  1  0
 12 16  1  0
 16 17  2  0
 17 19  1  0
 19 21  2  0
 21 23  1  0
 23 25  2  0
 25 16  1  0
 12 13  1  0
 12 14  1  0
 12 15  1  0
 17 18  1  0
 19 20  1  0
 21 22  1  0
 23 24  1  0
 25 26  1  0
M  CHG  1   8   1
M  END
>  <PDB_ID>  (1559) 
pdb1z7d

>  <RESIDUE_NAME>  (1559) 
LYS   PHE

>  <FRAG_NAME>  (1559) 
ETAM   MBZ

>  <FRAG_ATOM_NUM>  (1559) 
fragi: 11  fragj: 15

>  <atom.prop.CHAIN_ID>  (1559) 
A A A A A A A A A A A Z Z Z Z Z Z Z Z Z Z Z Z Z Z Z

>  <atom.prop.IS_HEAVY_ATOM>  (1559) 
1 0 0 0 1 0 0 1 0 0 0 1 0 0 0 1 1 0 1 0 1 0 1 0 1 0

>  <DIFUSE_FUNC_ATOM>  (1559) 
n/a

>  <FINAL_SINGLE_POINT_ENERGY>  (1559) 
0

>  <NONCOV_INTER_ENERGY_QM>  (1559) 
0

>  <FF_Energy>  (1559) 
-6.67

>  <QM_Energy>  (1559) 
-12.17

>  <source>  (1559) 
ETAM_MBZ

>  <Index>  (1559) 
15669

$$$$
ETAM-pdb3d0c-A-LYS-263:MBZ-pdb3d0c-A-PHE-21
     RDKit          3D

 26 25  0  0  0  0  0  0  0  0999 V2000
    5.4175    1.1659   -3.7137 C   0  0  0  0  0  0  0  0  0  0  0  0
    5.9368    0.8245   -2.9441 H   0  0  0  0  0  0  0  0  0  0  0  0
    5.1368    2.1026   -3.5706 H   0  0  0  0  0  0  0  0  0  0  0  0
    6.0371    1.1139   -4.6089 H   0  0  0  0  0  0  0  0  0  0  0  0
    4.1668    0.3024   -3.8789 C   0  0  0  0  0  0  0  0  0  0  0  0
    3.6440    0.6449   -4.6744 H   0  0  0  0  0  0  0  0  0  0  0  0
    4.4562   -0.6447   -4.0878 H   0  0  0  0  0  0  0  0  0  0  0  0
    3.2848    0.2901   -2.6841 N   0  0  0  0  0  4  0  0  0  0  0  0
    2.4511   -0.2224   -2.8907 H   0  0  0  0  0  0  0  0  0  0  0  0
    3.7629   -0.1454   -1.9213 H   0  0  0  0  0  0  0  0  0  0  0  0
    3.0460    1.2295   -2.4360 H   0  0  0  0  0  0  0  0  0  0  0  0
    0.0044    2.9150   -0.0154 C   0  0  0  0  0  0  0  0  0  0  0  0
    0.9434    3.2163    0.0228 H   0  0  0  0  0  0  0  0  0  0  0  0
   -0.5097    3.2285    0.7670 H   0  0  0  0  0  0  0  0  0  0  0  0
   -0.4496    3.3440   -0.9087 H   0  0  0  0  0  0  0  0  0  0  0  0
    0.0008    1.4063    0.0020 C   0  0  0  0  0  0  0  0  0  0  0  0
   -1.1983    0.6958   -0.0005 C   0  0  0  0  0  0  0  0  0  0  0  0
   -2.0640    1.1841   -0.0036 H   0  0  0  0  0  0  0  0  0  0  0  0
   -1.2026   -0.7009   -0.0000 C   0  0  0  0  0  0  0  0  0  0  0  0
   -2.0793   -1.1921    0.0028 H   0  0  0  0  0  0  0  0  0  0  0  0
   -0.0000   -1.3972   -0.0021 C   0  0  0  0  0  0  0  0  0  0  0  0
   -0.0035   -2.3955   -0.0058 H   0  0  0  0  0  0  0  0  0  0  0  0
    1.2026   -0.6997    0.0000 C   0  0  0  0  0  0  0  0  0  0  0  0
    2.0833   -1.1950    0.0028 H   0  0  0  0  0  0  0  0  0  0  0  0
    1.1976    0.6958    0.0007 C   0  0  0  0  0  0  0  0  0  0  0  0
    2.0669    1.1906   -0.0005 H   0  0  0  0  0  0  0  0  0  0  0  0
  1  5  1  0
  5  8  1  0
  1  2  1  0
  1  3  1  0
  1  4  1  0
  5  6  1  0
  5  7  1  0
  8  9  1  0
  8 10  1  0
  8 11  1  0
 12 16  1  0
 16 17  2  0
 17 19  1  0
 19 21  2  0
 21 23  1  0
 23 25  2  0
 25 16  1  0
 12 13  1  0
 12 14  1  0
 12 15  1  0
 17 18  1  0
 19 20  1  0
 21 22  1  0
 23 24  1  0
 25 26  1  0
M  CHG  1   8   1
M  END
>  <PDB_ID>  (1560) 
pdb3d0c

>  <RESIDUE_NAME>  (1560) 
LYS   PHE

>  <FRAG_NAME>  (1560) 
ETAM   MBZ

>  <FRAG_ATOM_NUM>  (1560) 
fragi: 11  fragj: 15

>  <atom.prop.CHAIN_ID>  (1560) 
A A A A A A A A A A A Z Z Z Z Z Z Z Z Z Z Z Z Z Z Z

>  <atom.prop.IS_HEAVY_ATOM>  (1560) 
1 0 0 0 1 0 0 1 0 0 0 1 0 0 0 1 1 0 1 0 1 0 1 0 1 0

>  <DIFUSE_FUNC_ATOM>  (1560) 
n/a

>  <FINAL_SINGLE_POINT_ENERGY>  (1560) 
0

>  <NONCOV_INTER_ENERGY_QM>  (1560) 
0

>  <FF_Energy>  (1560) 
-2.17

>  <QM_Energy>  (1560) 
-7.41

>  <source>  (1560) 
ETAM_MBZ

>  <Index>  (1560) 
15687

$$$$
ETAM-pdb1z90-A-LYS-99:MBZ-pdb1z90-A-PHE-110
     RDKit          3D

 26 25  0  0  0  0  0  0  0  0999 V2000
    2.3813   -1.9017    5.0200 C   0  0  0  0  0  0  0  0  0  0  0  0
    2.4898   -2.0264    5.9984 H   0  0  0  0  0  0  0  0  0  0  0  0
    1.7276   -1.1807    4.8280 H   0  0  0  0  0  0  0  0  0  0  0  0
    3.3435   -1.6605    4.5683 H   0  0  0  0  0  0  0  0  0  0  0  0
    1.7974   -3.2257    4.4432 C   0  0  0  0  0  0  0  0  0  0  0  0
    2.3294   -3.9641    4.7873 H   0  0  0  0  0  0  0  0  0  0  0  0
    0.8554   -3.2696    4.6843 H   0  0  0  0  0  0  0  0  0  0  0  0
    1.9597   -3.0960    2.9913 N   0  0  0  0  0  4  0  0  0  0  0  0
    2.8316   -2.6447    2.7828 H   0  0  0  0  0  0  0  0  0  0  0  0
    1.9519   -4.0038    2.5639 H   0  0  0  0  0  0  0  0  0  0  0  0
    1.2096   -2.5487    2.6101 H   0  0  0  0  0  0  0  0  0  0  0  0
   -0.0431    2.8942    0.0262 C   0  0  0  0  0  0  0  0  0  0  0  0
    0.8076    3.2118    0.4165 H   0  0  0  0  0  0  0  0  0  0  0  0
   -0.8176    3.1799    0.5703 H   0  0  0  0  0  0  0  0  0  0  0  0
   -0.1455    3.3433   -0.9616 H   0  0  0  0  0  0  0  0  0  0  0  0
   -0.0158    1.3972    0.0041 C   0  0  0  0  0  0  0  0  0  0  0  0
   -1.1983    0.6831    0.0136 C   0  0  0  0  0  0  0  0  0  0  0  0
   -2.0726    1.1790    0.0299 H   0  0  0  0  0  0  0  0  0  0  0  0
   -1.2102   -0.6918   -0.0000 C   0  0  0  0  0  0  0  0  0  0  0  0
   -2.0722   -1.1998    0.0026 H   0  0  0  0  0  0  0  0  0  0  0  0
    0.0170   -1.3962   -0.0161 C   0  0  0  0  0  0  0  0  0  0  0  0
    0.0021   -2.3909   -0.0395 H   0  0  0  0  0  0  0  0  0  0  0  0
    1.2102   -0.6970    0.0000 C   0  0  0  0  0  0  0  0  0  0  0  0
    2.0966   -1.1824    0.0143 H   0  0  0  0  0  0  0  0  0  0  0  0
    1.1970    0.7047   -0.0016 C   0  0  0  0  0  0  0  0  0  0  0  0
    2.0551    1.2051   -0.0078 H   0  0  0  0  0  0  0  0  0  0  0  0
  1  5  1  0
  5  8  1  0
  1  2  1  0
  1  3  1  0
  1  4  1  0
  5  6  1  0
  5  7  1  0
  8  9  1  0
  8 10  1  0
  8 11  1  0
 12 16  1  0
 16 17  2  0
 17 19  1  0
 19 21  2  0
 21 23  1  0
 23 25  2  0
 25 16  1  0
 12 13  1  0
 12 14  1  0
 12 15  1  0
 17 18  1  0
 19 20  1  0
 21 22  1  0
 23 24  1  0
 25 26  1  0
M  CHG  1   8   1
M  END
>  <PDB_ID>  (1561) 
pdb1z90

>  <RESIDUE_NAME>  (1561) 
LYS   PHE

>  <FRAG_NAME>  (1561) 
ETAM   MBZ

>  <FRAG_ATOM_NUM>  (1561) 
fragi: 11  fragj: 15

>  <atom.prop.CHAIN_ID>  (1561) 
A A A A A A A A A A A Z Z Z Z Z Z Z Z Z Z Z Z Z Z Z

>  <atom.prop.IS_HEAVY_ATOM>  (1561) 
1 0 0 0 1 0 0 1 0 0 0 1 0 0 0 1 1 0 1 0 1 0 1 0 1 0

>  <DIFUSE_FUNC_ATOM>  (1561) 
n/a

>  <FINAL_SINGLE_POINT_ENERGY>  (1561) 
0

>  <NONCOV_INTER_ENERGY_QM>  (1561) 
0

>  <FF_Energy>  (1561) 
-1.76

>  <QM_Energy>  (1561) 
-6.78

>  <source>  (1561) 
ETAM_MBZ

>  <Index>  (1561) 
15716

$$$$
ETAM-pdb1z7d-A-LYS-366:MBZ-pdb1z7d-A-PHE-408
     RDKit          3D

 26 25  0  0  0  0  0  0  0  0999 V2000
   -0.1105    0.1676   -4.5487 C   0  0  0  0  0  0  0  0  0  0  0  0
   -1.0374    0.5133   -4.4452 H   0  0  0  0  0  0  0  0  0  0  0  0
   -0.0226   -0.3409   -5.3980 H   0  0  0  0  0  0  0  0  0  0  0  0
    0.5767    1.0133   -4.5742 H   0  0  0  0  0  0  0  0  0  0  0  0
    0.1974   -0.7593   -3.3902 C   0  0  0  0  0  0  0  0  0  0  0  0
    1.0344   -1.2788   -3.6032 H   0  0  0  0  0  0  0  0  0  0  0  0
    0.3735   -0.2046   -2.5673 H   0  0  0  0  0  0  0  0  0  0  0  0
   -0.9065   -1.7058   -3.1128 N   0  0  0  0  0  4  0  0  0  0  0  0
   -0.6523   -2.3032   -2.3514 H   0  0  0  0  0  0  0  0  0  0  0  0
   -1.7333   -1.1957   -2.8724 H   0  0  0  0  0  0  0  0  0  0  0  0
   -1.0845   -2.2621   -3.9260 H   0  0  0  0  0  0  0  0  0  0  0  0
   -0.0001    2.9157   -0.0085 C   0  0  0  0  0  0  0  0  0  0  0  0
   -0.8684    3.2164   -0.3773 H   0  0  0  0  0  0  0  0  0  0  0  0
    0.7523    3.2128   -0.5803 H   0  0  0  0  0  0  0  0  0  0  0  0
    0.1238    3.3799    0.9699 H   0  0  0  0  0  0  0  0  0  0  0  0
   -0.0015    1.4051    0.0082 C   0  0  0  0  0  0  0  0  0  0  0  0
   -1.1996    0.7010   -0.0046 C   0  0  0  0  0  0  0  0  0  0  0  0
   -2.0644    1.1900   -0.0181 H   0  0  0  0  0  0  0  0  0  0  0  0
   -1.2039   -0.6924    0.0000 C   0  0  0  0  0  0  0  0  0  0  0  0
   -2.0787   -1.1865    0.0046 H   0  0  0  0  0  0  0  0  0  0  0  0
    0.0031   -1.3949    0.0002 C   0  0  0  0  0  0  0  0  0  0  0  0
   -0.0072   -2.3923    0.0004 H   0  0  0  0  0  0  0  0  0  0  0  0
    1.2039   -0.7020    0.0000 C   0  0  0  0  0  0  0  0  0  0  0  0
    2.0841   -1.2015    0.0039 H   0  0  0  0  0  0  0  0  0  0  0  0
    1.1980    0.6832   -0.0039 C   0  0  0  0  0  0  0  0  0  0  0  0
    2.0662    1.1843   -0.0163 H   0  0  0  0  0  0  0  0  0  0  0  0
  1  5  1  0
  5  8  1  0
  1  2  1  0
  1  3  1  0
  1  4  1  0
  5  6  1  0
  5  7  1  0
  8  9  1  0
  8 10  1  0
  8 11  1  0
 12 16  1  0
 16 17  2  0
 17 19  1  0
 19 21  2  0
 21 23  1  0
 23 25  2  0
 25 16  1  0
 12 13  1  0
 12 14  1  0
 12 15  1  0
 17 18  1  0
 19 20  1  0
 21 22  1  0
 23 24  1  0
 25 26  1  0
M  CHG  1   8   1
M  END
>  <PDB_ID>  (1562) 
pdb1z7d

>  <RESIDUE_NAME>  (1562) 
LYS   PHE

>  <FRAG_NAME>  (1562) 
ETAM   MBZ

>  <FRAG_ATOM_NUM>  (1562) 
fragi: 11  fragj: 15

>  <atom.prop.CHAIN_ID>  (1562) 
A A A A A A A A A A A Z Z Z Z Z Z Z Z Z Z Z Z Z Z Z

>  <atom.prop.IS_HEAVY_ATOM>  (1562) 
1 0 0 0 1 0 0 1 0 0 0 1 0 0 0 1 1 0 1 0 1 0 1 0 1 0

>  <DIFUSE_FUNC_ATOM>  (1562) 
n/a

>  <FINAL_SINGLE_POINT_ENERGY>  (1562) 
0

>  <NONCOV_INTER_ENERGY_QM>  (1562) 
0

>  <FF_Energy>  (1562) 
-5.42

>  <QM_Energy>  (1562) 
-13.45

>  <source>  (1562) 
ETAM_MBZ

>  <Index>  (1562) 
15729

$$$$
ETAM-pdb3d0c-B-LYS-263:MBZ-pdb3d0c-B-PHE-21
     RDKit          3D

 26 25  0  0  0  0  0  0  0  0999 V2000
   -5.4368    2.2788    3.1862 C   0  0  0  0  0  0  0  0  0  0  0  0
   -5.8819    2.2286    2.3009 H   0  0  0  0  0  0  0  0  0  0  0  0
   -4.9335    3.1290    3.2795 H   0  0  0  0  0  0  0  0  0  0  0  0
   -6.2012    2.2395    3.9622 H   0  0  0  0  0  0  0  0  0  0  0  0
   -4.4546    1.1141    3.3066 C   0  0  0  0  0  0  0  0  0  0  0  0
   -4.0102    1.1579    4.2076 H   0  0  0  0  0  0  0  0  0  0  0  0
   -4.9675    0.2517    3.2448 H   0  0  0  0  0  0  0  0  0  0  0  0
   -3.4052    1.1345    2.2434 N   0  0  0  0  0  4  0  0  0  0  0  0
   -2.8194    0.3328    2.3446 H   0  0  0  0  0  0  0  0  0  0  0  0
   -3.8456    1.1196    1.3475 H   0  0  0  0  0  0  0  0  0  0  0  0
   -2.8587    1.9650    2.3362 H   0  0  0  0  0  0  0  0  0  0  0  0
   -0.0061    2.9024    0.0093 C   0  0  0  0  0  0  0  0  0  0  0  0
   -0.9476    3.2075    0.0183 H   0  0  0  0  0  0  0  0  0  0  0  0
    0.4633    3.2167   -0.8038 H   0  0  0  0  0  0  0  0  0  0  0  0
    0.4941    3.3429    0.8719 H   0  0  0  0  0  0  0  0  0  0  0  0
   -0.0016    1.4048    0.0003 C   0  0  0  0  0  0  0  0  0  0  0  0
   -1.1994    0.6963   -0.0005 C   0  0  0  0  0  0  0  0  0  0  0  0
   -2.0657    1.1850   -0.0032 H   0  0  0  0  0  0  0  0  0  0  0  0
   -1.2061   -0.7001   -0.0000 C   0  0  0  0  0  0  0  0  0  0  0  0
   -2.0803   -1.1924    0.0009 H   0  0  0  0  0  0  0  0  0  0  0  0
    0.0024   -1.4000    0.0011 C   0  0  0  0  0  0  0  0  0  0  0  0
   -0.0036   -2.3969    0.0024 H   0  0  0  0  0  0  0  0  0  0  0  0
    1.2061   -0.7015   -0.0000 C   0  0  0  0  0  0  0  0  0  0  0  0
    2.0872   -1.1936    0.0010 H   0  0  0  0  0  0  0  0  0  0  0  0
    1.1986    0.7005   -0.0008 C   0  0  0  0  0  0  0  0  0  0  0  0
    2.0654    1.1936   -0.0034 H   0  0  0  0  0  0  0  0  0  0  0  0
  1  5  1  0
  5  8  1  0
  1  2  1  0
  1  3  1  0
  1  4  1  0
  5  6  1  0
  5  7  1  0
  8  9  1  0
  8 10  1  0
  8 11  1  0
 12 16  1  0
 16 17  2  0
 17 19  1  0
 19 21  2  0
 21 23  1  0
 23 25  2  0
 25 16  1  0
 12 13  1  0
 12 14  1  0
 12 15  1  0
 17 18  1  0
 19 20  1  0
 21 22  1  0
 23 24  1  0
 25 26  1  0
M  CHG  1   8   1
M  END
>  <PDB_ID>  (1563) 
pdb3d0c

>  <RESIDUE_NAME>  (1563) 
LYS   PHE

>  <FRAG_NAME>  (1563) 
ETAM   MBZ

>  <FRAG_ATOM_NUM>  (1563) 
fragi: 11  fragj: 15

>  <atom.prop.CHAIN_ID>  (1563) 
A A A A A A A A A A A Z Z Z Z Z Z Z Z Z Z Z Z Z Z Z

>  <atom.prop.IS_HEAVY_ATOM>  (1563) 
1 0 0 0 1 0 0 1 0 0 0 1 0 0 0 1 1 0 1 0 1 0 1 0 1 0

>  <DIFUSE_FUNC_ATOM>  (1563) 
n/a

>  <FINAL_SINGLE_POINT_ENERGY>  (1563) 
0

>  <NONCOV_INTER_ENERGY_QM>  (1563) 
0

>  <FF_Energy>  (1563) 
-0.77

>  <QM_Energy>  (1563) 
-6.42

>  <source>  (1563) 
ETAM_MBZ

>  <Index>  (1563) 
15733

$$$$
ETAM-pdb3d2u-A-LYS-171:MBZ-pdb3d2u-A-PHE-110
     RDKit          3D

 26 25  0  0  0  0  0  0  0  0999 V2000
    1.1231    0.2697   -4.6915 C   0  0  0  0  0  0  0  0  0  0  0  0
    0.8785    0.0820   -5.6452 H   0  0  0  0  0  0  0  0  0  0  0  0
    1.4394    1.2171   -4.6128 H   0  0  0  0  0  0  0  0  0  0  0  0
    0.2333    0.1475   -4.0740 H   0  0  0  0  0  0  0  0  0  0  0  0
    2.2659   -0.6557   -4.2960 C   0  0  0  0  0  0  0  0  0  0  0  0
    1.9616   -1.6102   -4.4062 H   0  0  0  0  0  0  0  0  0  0  0  0
    3.0408   -0.4985   -4.9201 H   0  0  0  0  0  0  0  0  0  0  0  0
    2.7182   -0.4469   -2.8951 N   0  0  0  0  0  4  0  0  0  0  0  0
    2.0865   -0.9050   -2.2699 H   0  0  0  0  0  0  0  0  0  0  0  0
    3.6354   -0.8289   -2.7816 H   0  0  0  0  0  0  0  0  0  0  0  0
    2.7361    0.5319   -2.6946 H   0  0  0  0  0  0  0  0  0  0  0  0
    0.0029    2.9152    0.0125 C   0  0  0  0  0  0  0  0  0  0  0  0
   -0.8095    3.2263   -0.4552 H   0  0  0  0  0  0  0  0  0  0  0  0
    0.8237    3.2225   -0.4424 H   0  0  0  0  0  0  0  0  0  0  0  0
   -0.0041    3.3472    1.0132 H   0  0  0  0  0  0  0  0  0  0  0  0
   -0.0003    1.4071    0.0013 C   0  0  0  0  0  0  0  0  0  0  0  0
   -1.2016    0.6964    0.0003 C   0  0  0  0  0  0  0  0  0  0  0  0
   -2.0669    1.1843   -0.0019 H   0  0  0  0  0  0  0  0  0  0  0  0
   -1.2050   -0.7021    0.0000 C   0  0  0  0  0  0  0  0  0  0  0  0
   -2.0785   -1.1955    0.0028 H   0  0  0  0  0  0  0  0  0  0  0  0
    0.0037   -1.3971   -0.0017 C   0  0  0  0  0  0  0  0  0  0  0  0
    0.0003   -2.3959   -0.0045 H   0  0  0  0  0  0  0  0  0  0  0  0
    1.2050   -0.6988   -0.0000 C   0  0  0  0  0  0  0  0  0  0  0  0
    2.0866   -1.1941    0.0021 H   0  0  0  0  0  0  0  0  0  0  0  0
    1.1983    0.6946    0.0001 C   0  0  0  0  0  0  0  0  0  0  0  0
    2.0667    1.1910   -0.0019 H   0  0  0  0  0  0  0  0  0  0  0  0
  1  5  1  0
  5  8  1  0
  1  2  1  0
  1  3  1  0
  1  4  1  0
  5  6  1  0
  5  7  1  0
  8  9  1  0
  8 10  1  0
  8 11  1  0
 12 16  1  0
 16 17  2  0
 17 19  1  0
 19 21  2  0
 21 23  1  0
 23 25  2  0
 25 16  1  0
 12 13  1  0
 12 14  1  0
 12 15  1  0
 17 18  1  0
 19 20  1  0
 21 22  1  0
 23 24  1  0
 25 26  1  0
M  CHG  1   8   1
M  END
>  <PDB_ID>  (1564) 
pdb3d2u

>  <RESIDUE_NAME>  (1564) 
LYS   PHE

>  <FRAG_NAME>  (1564) 
ETAM   MBZ

>  <FRAG_ATOM_NUM>  (1564) 
fragi: 11  fragj: 15

>  <atom.prop.CHAIN_ID>  (1564) 
A A A A A A A A A A A Z Z Z Z Z Z Z Z Z Z Z Z Z Z Z

>  <atom.prop.IS_HEAVY_ATOM>  (1564) 
1 0 0 0 1 0 0 1 0 0 0 1 0 0 0 1 1 0 1 0 1 0 1 0 1 0

>  <DIFUSE_FUNC_ATOM>  (1564) 
n/a

>  <FINAL_SINGLE_POINT_ENERGY>  (1564) 
0

>  <NONCOV_INTER_ENERGY_QM>  (1564) 
0

>  <FF_Energy>  (1564) 
-3.85

>  <QM_Energy>  (1564) 
-10.46

>  <source>  (1564) 
ETAM_MBZ

>  <Index>  (1564) 
15746

$$$$
ETAM-pdb1zab-A-LYS-119:MBZ-pdb1zab-A-PHE-95
     RDKit          3D

 26 25  0  0  0  0  0  0  0  0999 V2000
    1.3832   -0.6906    3.6680 C   0  0  0  0  0  0  0  0  0  0  0  0
    1.7010   -1.4363    3.0912 H   0  0  0  0  0  0  0  0  0  0  0  0
    1.4905   -0.9259    4.6285 H   0  0  0  0  0  0  0  0  0  0  0  0
    1.9769    0.1980    3.4535 H   0  0  0  0  0  0  0  0  0  0  0  0
   -0.0905   -0.4541    3.3881 C   0  0  0  0  0  0  0  0  0  0  0  0
   -0.4262    0.2615    4.0020 H   0  0  0  0  0  0  0  0  0  0  0  0
   -0.1964   -0.1518    2.4402 H   0  0  0  0  0  0  0  0  0  0  0  0
   -0.8744   -1.6925    3.5995 N   0  0  0  0  0  4  0  0  0  0  0  0
   -0.2995   -2.3822    4.0419 H   0  0  0  0  0  0  0  0  0  0  0  0
   -1.6640   -1.4947    4.1823 H   0  0  0  0  0  0  0  0  0  0  0  0
   -1.1926   -2.0422    2.7174 H   0  0  0  0  0  0  0  0  0  0  0  0
    0.0015    2.8959    0.0209 C   0  0  0  0  0  0  0  0  0  0  0  0
   -0.9044    3.2085   -0.2191 H   0  0  0  0  0  0  0  0  0  0  0  0
    0.6763    3.2127   -0.6288 H   0  0  0  0  0  0  0  0  0  0  0  0
    0.2531    3.3189    0.9936 H   0  0  0  0  0  0  0  0  0  0  0  0
   -0.0007    1.3978   -0.0002 C   0  0  0  0  0  0  0  0  0  0  0  0
   -1.1983    0.6911    0.0019 C   0  0  0  0  0  0  0  0  0  0  0  0
   -2.0638    1.1843    0.0032 H   0  0  0  0  0  0  0  0  0  0  0  0
   -1.2063   -0.6963   -0.0000 C   0  0  0  0  0  0  0  0  0  0  0  0
   -2.0789   -1.1920    0.0008 H   0  0  0  0  0  0  0  0  0  0  0  0
    0.0015   -1.3928   -0.0007 C   0  0  0  0  0  0  0  0  0  0  0  0
   -0.0011   -2.3906   -0.0028 H   0  0  0  0  0  0  0  0  0  0  0  0
    1.2063   -0.6930   -0.0000 C   0  0  0  0  0  0  0  0  0  0  0  0
    2.0853   -1.1924    0.0023 H   0  0  0  0  0  0  0  0  0  0  0  0
    1.1975    0.6932   -0.0009 C   0  0  0  0  0  0  0  0  0  0  0  0
    2.0644    1.1943   -0.0025 H   0  0  0  0  0  0  0  0  0  0  0  0
  1  5  1  0
  5  8  1  0
  1  2  1  0
  1  3  1  0
  1  4  1  0
  5  6  1  0
  5  7  1  0
  8  9  1  0
  8 10  1  0
  8 11  1  0
 12 16  1  0
 16 17  2  0
 17 19  1  0
 19 21  2  0
 21 23  1  0
 23 25  2  0
 25 16  1  0
 12 13  1  0
 12 14  1  0
 12 15  1  0
 17 18  1  0
 19 20  1  0
 21 22  1  0
 23 24  1  0
 25 26  1  0
M  CHG  1   8   1
M  END
>  <PDB_ID>  (1565) 
pdb1zab

>  <RESIDUE_NAME>  (1565) 
LYS   PHE

>  <FRAG_NAME>  (1565) 
ETAM   MBZ

>  <FRAG_ATOM_NUM>  (1565) 
fragi: 11  fragj: 15

>  <atom.prop.CHAIN_ID>  (1565) 
A A A A A A A A A A A Z Z Z Z Z Z Z Z Z Z Z Z Z Z Z

>  <atom.prop.IS_HEAVY_ATOM>  (1565) 
1 0 0 0 1 0 0 1 0 0 0 1 0 0 0 1 1 0 1 0 1 0 1 0 1 0

>  <DIFUSE_FUNC_ATOM>  (1565) 
n/a

>  <FINAL_SINGLE_POINT_ENERGY>  (1565) 
0

>  <NONCOV_INTER_ENERGY_QM>  (1565) 
0

>  <FF_Energy>  (1565) 
-5.31

>  <QM_Energy>  (1565) 
-12.7

>  <source>  (1565) 
ETAM_MBZ

>  <Index>  (1565) 
15747

$$$$
ETAM-pdb3cog-D-LYS-260:MBZ-pdb3cog-A-PHE-344
     RDKit          3D

 26 25  0  0  0  0  0  0  0  0999 V2000
    0.7718   -0.7673    3.5511 C   0  0  0  0  0  0  0  0  0  0  0  0
    0.7895   -0.7809    2.5545 H   0  0  0  0  0  0  0  0  0  0  0  0
    1.3893   -0.0661    3.8950 H   0  0  0  0  0  0  0  0  0  0  0  0
   -0.2421   -0.5921    3.9109 H   0  0  0  0  0  0  0  0  0  0  0  0
    1.3159   -2.1337    4.0366 C   0  0  0  0  0  0  0  0  0  0  0  0
    2.2609   -1.9824    4.3742 H   0  0  0  0  0  0  0  0  0  0  0  0
    0.7565   -2.4179    4.8345 H   0  0  0  0  0  0  0  0  0  0  0  0
    1.3083   -3.1807    3.0200 N   0  0  0  0  0  4  0  0  0  0  0  0
    1.5395   -2.7933    2.1228 H   0  0  0  0  0  0  0  0  0  0  0  0
    1.9813   -3.8906    3.2494 H   0  0  0  0  0  0  0  0  0  0  0  0
    0.3987   -3.6037    2.9651 H   0  0  0  0  0  0  0  0  0  0  0  0
   -0.0358    2.9110    0.0176 C   0  0  0  0  0  0  0  0  0  0  0  0
    0.5045    3.2208    0.7856 H   0  0  0  0  0  0  0  0  0  0  0  0
   -0.9784    3.1989    0.1016 H   0  0  0  0  0  0  0  0  0  0  0  0
    0.3715    3.3751   -0.8806 H   0  0  0  0  0  0  0  0  0  0  0  0
   -0.0074    1.4015    0.0061 C   0  0  0  0  0  0  0  0  0  0  0  0
   -1.1893    0.6827   -0.0110 C   0  0  0  0  0  0  0  0  0  0  0  0
   -2.0633    1.1699   -0.0329 H   0  0  0  0  0  0  0  0  0  0  0  0
   -1.1835   -0.6935   -0.0000 C   0  0  0  0  0  0  0  0  0  0  0  0
   -2.0625   -1.1963    0.0214 H   0  0  0  0  0  0  0  0  0  0  0  0
    0.0095   -1.3842   -0.0168 C   0  0  0  0  0  0  0  0  0  0  0  0
   -0.0077   -2.3916   -0.0423 H   0  0  0  0  0  0  0  0  0  0  0  0
    1.1835   -0.7095    0.0000 C   0  0  0  0  0  0  0  0  0  0  0  0
    2.0774   -1.1899   -0.0011 H   0  0  0  0  0  0  0  0  0  0  0  0
    1.1872    0.7030    0.0217 C   0  0  0  0  0  0  0  0  0  0  0  0
    2.0554    1.1839    0.0475 H   0  0  0  0  0  0  0  0  0  0  0  0
  1  5  1  0
  5  8  1  0
  1  2  1  0
  1  3  1  0
  1  4  1  0
  5  6  1  0
  5  7  1  0
  8  9  1  0
  8 10  1  0
  8 11  1  0
 12 16  1  0
 16 17  2  0
 17 19  1  0
 19 21  2  0
 21 23  1  0
 23 25  2  0
 25 16  1  0
 12 13  1  0
 12 14  1  0
 12 15  1  0
 17 18  1  0
 19 20  1  0
 21 22  1  0
 23 24  1  0
 25 26  1  0
M  CHG  1   8   1
M  END
>  <PDB_ID>  (1566) 
pdb3cog

>  <RESIDUE_NAME>  (1566) 
LYS   PHE

>  <FRAG_NAME>  (1566) 
ETAM   MBZ

>  <FRAG_ATOM_NUM>  (1566) 
fragi: 11  fragj: 15

>  <atom.prop.CHAIN_ID>  (1566) 
A A A A A A A A A A A Z Z Z Z Z Z Z Z Z Z Z Z Z Z Z

>  <atom.prop.IS_HEAVY_ATOM>  (1566) 
1 0 0 0 1 0 0 1 0 0 0 1 0 0 0 1 1 0 1 0 1 0 1 0 1 0

>  <DIFUSE_FUNC_ATOM>  (1566) 
n/a

>  <FINAL_SINGLE_POINT_ENERGY>  (1566) 
0

>  <NONCOV_INTER_ENERGY_QM>  (1566) 
0

>  <FF_Energy>  (1566) 
-2.43

>  <QM_Energy>  (1566) 
-8.28

>  <source>  (1566) 
ETAM_MBZ

>  <Index>  (1566) 
15771

$$$$
ETAM-pdb1zbs-A-LYS-74:MBZ-pdb1zbs-A-PHE-34
     RDKit          3D

 26 25  0  0  0  0  0  0  0  0999 V2000
    4.2295    2.6332    0.3170 C   0  0  0  0  0  0  0  0  0  0  0  0
    3.2858    2.3284    0.4034 H   0  0  0  0  0  0  0  0  0  0  0  0
    4.2658    3.5211   -0.1306 H   0  0  0  0  0  0  0  0  0  0  0  0
    4.6662    2.7194    1.3119 H   0  0  0  0  0  0  0  0  0  0  0  0
    4.9846    1.6265   -0.5472 C   0  0  0  0  0  0  0  0  0  0  0  0
    4.9613    0.7289   -0.0926 H   0  0  0  0  0  0  0  0  0  0  0  0
    4.5154    1.5460   -1.4338 H   0  0  0  0  0  0  0  0  0  0  0  0
    6.4049    2.0189   -0.7805 N   0  0  0  0  0  4  0  0  0  0  0  0
    6.4643    2.5605   -1.6178 H   0  0  0  0  0  0  0  0  0  0  0  0
    6.7291    2.5604   -0.0060 H   0  0  0  0  0  0  0  0  0  0  0  0
    6.9640    1.1954   -0.8719 H   0  0  0  0  0  0  0  0  0  0  0  0
    0.0071    2.9103    0.0323 C   0  0  0  0  0  0  0  0  0  0  0  0
    0.1983    3.1972    0.9589 H   0  0  0  0  0  0  0  0  0  0  0  0
   -0.8803    3.2251   -0.2669 H   0  0  0  0  0  0  0  0  0  0  0  0
    0.7580    3.3594   -0.6178 H   0  0  0  0  0  0  0  0  0  0  0  0
    0.0009    1.4058    0.0025 C   0  0  0  0  0  0  0  0  0  0  0  0
   -1.1988    0.6984   -0.0002 C   0  0  0  0  0  0  0  0  0  0  0  0
   -2.0644    1.1863   -0.0036 H   0  0  0  0  0  0  0  0  0  0  0  0
   -1.2057   -0.7003    0.0000 C   0  0  0  0  0  0  0  0  0  0  0  0
   -2.0809   -1.1902    0.0027 H   0  0  0  0  0  0  0  0  0  0  0  0
   -0.0001   -1.3998   -0.0018 C   0  0  0  0  0  0  0  0  0  0  0  0
   -0.0038   -2.3960   -0.0047 H   0  0  0  0  0  0  0  0  0  0  0  0
    1.2057   -0.6992   -0.0000 C   0  0  0  0  0  0  0  0  0  0  0  0
    2.0856   -1.1956    0.0026 H   0  0  0  0  0  0  0  0  0  0  0  0
    1.1981    0.6951   -0.0004 C   0  0  0  0  0  0  0  0  0  0  0  0
    2.0670    1.1910   -0.0035 H   0  0  0  0  0  0  0  0  0  0  0  0
  1  5  1  0
  5  8  1  0
  1  2  1  0
  1  3  1  0
  1  4  1  0
  5  6  1  0
  5  7  1  0
  8  9  1  0
  8 10  1  0
  8 11  1  0
 12 16  1  0
 16 17  2  0
 17 19  1  0
 19 21  2  0
 21 23  1  0
 23 25  2  0
 25 16  1  0
 12 13  1  0
 12 14  1  0
 12 15  1  0
 17 18  1  0
 19 20  1  0
 21 22  1  0
 23 24  1  0
 25 26  1  0
M  CHG  1   8   1
M  END
>  <PDB_ID>  (1567) 
pdb1zbs

>  <RESIDUE_NAME>  (1567) 
LYS   PHE

>  <FRAG_NAME>  (1567) 
ETAM   MBZ

>  <FRAG_ATOM_NUM>  (1567) 
fragi: 11  fragj: 15

>  <atom.prop.CHAIN_ID>  (1567) 
A A A A A A A A A A A Z Z Z Z Z Z Z Z Z Z Z Z Z Z Z

>  <atom.prop.IS_HEAVY_ATOM>  (1567) 
1 0 0 0 1 0 0 1 0 0 0 1 0 0 0 1 1 0 1 0 1 0 1 0 1 0

>  <DIFUSE_FUNC_ATOM>  (1567) 
n/a

>  <FINAL_SINGLE_POINT_ENERGY>  (1567) 
0

>  <NONCOV_INTER_ENERGY_QM>  (1567) 
0

>  <FF_Energy>  (1567) 
5.87

>  <QM_Energy>  (1567) 
0.14

>  <source>  (1567) 
ETAM_MBZ

>  <Index>  (1567) 
15785

$$$$
ETAM-pdb1zbp-A-LYS-82:MBZ-pdb1zbp-A-PHE-47
     RDKit          3D

 26 25  0  0  0  0  0  0  0  0999 V2000
    4.5025   -1.6259   -1.1578 C   0  0  0  0  0  0  0  0  0  0  0  0
    4.5562   -2.0943   -2.0362 H   0  0  0  0  0  0  0  0  0  0  0  0
    3.5524   -1.5619   -0.8622 H   0  0  0  0  0  0  0  0  0  0  0  0
    5.0606   -2.2030   -0.4205 H   0  0  0  0  0  0  0  0  0  0  0  0
    5.0574   -0.2251   -1.3176 C   0  0  0  0  0  0  0  0  0  0  0  0
    4.9428    0.2729   -0.4603 H   0  0  0  0  0  0  0  0  0  0  0  0
    6.0269   -0.2808   -1.5470 H   0  0  0  0  0  0  0  0  0  0  0  0
    4.3389    0.4987   -2.4032 N   0  0  0  0  0  4  0  0  0  0  0  0
    4.5684    1.4705   -2.3606 H   0  0  0  0  0  0  0  0  0  0  0  0
    4.6154    0.1269   -3.2891 H   0  0  0  0  0  0  0  0  0  0  0  0
    3.3542    0.3815   -2.2838 H   0  0  0  0  0  0  0  0  0  0  0  0
    0.0070    2.9062   -0.0092 C   0  0  0  0  0  0  0  0  0  0  0  0
    0.9457    3.2077   -0.0783 H   0  0  0  0  0  0  0  0  0  0  0  0
   -0.4143    3.2223    0.8273 H   0  0  0  0  0  0  0  0  0  0  0  0
   -0.5440    3.3413   -0.8430 H   0  0  0  0  0  0  0  0  0  0  0  0
    0.0001    1.4026    0.0041 C   0  0  0  0  0  0  0  0  0  0  0  0
   -1.1949    0.6962   -0.0007 C   0  0  0  0  0  0  0  0  0  0  0  0
   -2.0614    1.1860   -0.0057 H   0  0  0  0  0  0  0  0  0  0  0  0
   -1.1982   -0.6937    0.0000 C   0  0  0  0  0  0  0  0  0  0  0  0
   -2.0748   -1.1888    0.0039 H   0  0  0  0  0  0  0  0  0  0  0  0
    0.0039   -1.3929   -0.0036 C   0  0  0  0  0  0  0  0  0  0  0  0
   -0.0068   -2.3926   -0.0096 H   0  0  0  0  0  0  0  0  0  0  0  0
    1.1982   -0.7030    0.0000 C   0  0  0  0  0  0  0  0  0  0  0  0
    2.0821   -1.1954    0.0042 H   0  0  0  0  0  0  0  0  0  0  0  0
    1.1909    0.6908    0.0001 C   0  0  0  0  0  0  0  0  0  0  0  0
    2.0629    1.1848   -0.0040 H   0  0  0  0  0  0  0  0  0  0  0  0
  1  5  1  0
  5  8  1  0
  1  2  1  0
  1  3  1  0
  1  4  1  0
  5  6  1  0
  5  7  1  0
  8  9  1  0
  8 10  1  0
  8 11  1  0
 12 16  1  0
 16 17  2  0
 17 19  1  0
 19 21  2  0
 21 23  1  0
 23 25  2  0
 25 16  1  0
 12 13  1  0
 12 14  1  0
 12 15  1  0
 17 18  1  0
 19 20  1  0
 21 22  1  0
 23 24  1  0
 25 26  1  0
M  CHG  1   8   1
M  END
>  <PDB_ID>  (1568) 
pdb1zbp

>  <RESIDUE_NAME>  (1568) 
LYS   PHE

>  <FRAG_NAME>  (1568) 
ETAM   MBZ

>  <FRAG_ATOM_NUM>  (1568) 
fragi: 11  fragj: 15

>  <atom.prop.CHAIN_ID>  (1568) 
A A A A A A A A A A A Z Z Z Z Z Z Z Z Z Z Z Z Z Z Z

>  <atom.prop.IS_HEAVY_ATOM>  (1568) 
1 0 0 0 1 0 0 1 0 0 0 1 0 0 0 1 1 0 1 0 1 0 1 0 1 0

>  <DIFUSE_FUNC_ATOM>  (1568) 
n/a

>  <FINAL_SINGLE_POINT_ENERGY>  (1568) 
0

>  <NONCOV_INTER_ENERGY_QM>  (1568) 
0

>  <FF_Energy>  (1568) 
3.71

>  <QM_Energy>  (1568) 
-3.46

>  <source>  (1568) 
ETAM_MBZ

>  <Index>  (1568) 
15790

$$$$
ETAM-pdb3d5h-A-LYS-242:MBZ-pdb3d5h-A-PHE-247
     RDKit          3D

 26 25  0  0  0  0  0  0  0  0999 V2000
    3.7293   -1.4725   -4.2966 C   0  0  0  0  0  0  0  0  0  0  0  0
    3.2815   -1.7567   -5.1322 H   0  0  0  0  0  0  0  0  0  0  0  0
    4.6564   -1.1739   -4.4694 H   0  0  0  0  0  0  0  0  0  0  0  0
    3.1710   -0.6355   -3.8770 H   0  0  0  0  0  0  0  0  0  0  0  0
    3.7550   -2.6356   -3.3255 C   0  0  0  0  0  0  0  0  0  0  0  0
    4.1148   -3.4519   -3.7958 H   0  0  0  0  0  0  0  0  0  0  0  0
    4.3766   -2.4167   -2.5615 H   0  0  0  0  0  0  0  0  0  0  0  0
    2.4012   -2.9686   -2.7582 N   0  0  0  0  0  4  0  0  0  0  0  0
    2.1893   -2.3235   -2.0280 H   0  0  0  0  0  0  0  0  0  0  0  0
    1.7208   -2.8997   -3.4830 H   0  0  0  0  0  0  0  0  0  0  0  0
    2.4216   -3.8971   -2.3970 H   0  0  0  0  0  0  0  0  0  0  0  0
    0.0008    2.8892   -0.0043 C   0  0  0  0  0  0  0  0  0  0  0  0
   -0.6111    3.1979   -0.7185 H   0  0  0  0  0  0  0  0  0  0  0  0
    0.9272    3.1982   -0.1695 H   0  0  0  0  0  0  0  0  0  0  0  0
   -0.3320    3.3423    0.9295 H   0  0  0  0  0  0  0  0  0  0  0  0
   -0.0027    1.3939    0.0042 C   0  0  0  0  0  0  0  0  0  0  0  0
   -1.1951    0.6842    0.0018 C   0  0  0  0  0  0  0  0  0  0  0  0
   -2.0617    1.1818   -0.0003 H   0  0  0  0  0  0  0  0  0  0  0  0
   -1.1926   -0.6821    0.0000 C   0  0  0  0  0  0  0  0  0  0  0  0
   -2.0732   -1.1879    0.0016 H   0  0  0  0  0  0  0  0  0  0  0  0
   -0.0001   -1.3798   -0.0025 C   0  0  0  0  0  0  0  0  0  0  0  0
   -0.0161   -2.3847   -0.0068 H   0  0  0  0  0  0  0  0  0  0  0  0
    1.1926   -0.7033    0.0000 C   0  0  0  0  0  0  0  0  0  0  0  0
    2.0759   -1.2024    0.0061 H   0  0  0  0  0  0  0  0  0  0  0  0
    1.1979    0.6871   -0.0035 C   0  0  0  0  0  0  0  0  0  0  0  0
    2.0627    1.1807   -0.0129 H   0  0  0  0  0  0  0  0  0  0  0  0
  1  5  1  0
  5  8  1  0
  1  2  1  0
  1  3  1  0
  1  4  1  0
  5  6  1  0
  5  7  1  0
  8  9  1  0
  8 10  1  0
  8 11  1  0
 12 16  1  0
 16 17  2  0
 17 19  1  0
 19 21  2  0
 21 23  1  0
 23 25  2  0
 25 16  1  0
 12 13  1  0
 12 14  1  0
 12 15  1  0
 17 18  1  0
 19 20  1  0
 21 22  1  0
 23 24  1  0
 25 26  1  0
M  CHG  1   8   1
M  END
>  <PDB_ID>  (1569) 
pdb3d5h

>  <RESIDUE_NAME>  (1569) 
LYS   PHE

>  <FRAG_NAME>  (1569) 
ETAM   MBZ

>  <FRAG_ATOM_NUM>  (1569) 
fragi: 11  fragj: 15

>  <atom.prop.CHAIN_ID>  (1569) 
A A A A A A A A A A A Z Z Z Z Z Z Z Z Z Z Z Z Z Z Z

>  <atom.prop.IS_HEAVY_ATOM>  (1569) 
1 0 0 0 1 0 0 1 0 0 0 1 0 0 0 1 1 0 1 0 1 0 1 0 1 0

>  <DIFUSE_FUNC_ATOM>  (1569) 
n/a

>  <FINAL_SINGLE_POINT_ENERGY>  (1569) 
0

>  <NONCOV_INTER_ENERGY_QM>  (1569) 
0

>  <FF_Energy>  (1569) 
-1.39

>  <QM_Energy>  (1569) 
-6.74

>  <source>  (1569) 
ETAM_MBZ

>  <Index>  (1569) 
15822

$$$$
ETAM-pdb3d53-C-LYS-34:MBZ-pdb3d53-C-PHE-57
     RDKit          3D

 26 25  0  0  0  0  0  0  0  0999 V2000
   -0.0384   -2.4168   -5.0064 C   0  0  0  0  0  0  0  0  0  0  0  0
    0.7038   -3.0782   -5.0452 H   0  0  0  0  0  0  0  0  0  0  0  0
    0.1355   -1.6632   -5.6306 H   0  0  0  0  0  0  0  0  0  0  0  0
   -0.9659   -2.9101   -5.2972 H   0  0  0  0  0  0  0  0  0  0  0  0
   -0.1410   -1.8789   -3.6091 C   0  0  0  0  0  0  0  0  0  0  0  0
   -1.0193   -1.4210   -3.4910 H   0  0  0  0  0  0  0  0  0  0  0  0
   -0.0599   -2.6281   -2.9560 H   0  0  0  0  0  0  0  0  0  0  0  0
    0.9528   -0.9002   -3.3626 N   0  0  0  0  0  4  0  0  0  0  0  0
    1.0461   -0.3008   -4.1569 H   0  0  0  0  0  0  0  0  0  0  0  0
    0.7330   -0.3536   -2.5544 H   0  0  0  0  0  0  0  0  0  0  0  0
    1.8098   -1.3920   -3.2107 H   0  0  0  0  0  0  0  0  0  0  0  0
   -0.0092    2.9218    0.0153 C   0  0  0  0  0  0  0  0  0  0  0  0
   -0.8441    3.2282   -0.4136 H   0  0  0  0  0  0  0  0  0  0  0  0
    0.7877    3.2340   -0.4780 H   0  0  0  0  0  0  0  0  0  0  0  0
    0.0288    3.3650    1.0104 H   0  0  0  0  0  0  0  0  0  0  0  0
   -0.0039    1.4109    0.0084 C   0  0  0  0  0  0  0  0  0  0  0  0
   -1.2046    0.6942    0.0055 C   0  0  0  0  0  0  0  0  0  0  0  0
   -2.0712    1.1844    0.0062 H   0  0  0  0  0  0  0  0  0  0  0  0
   -1.2117   -0.7026    0.0000 C   0  0  0  0  0  0  0  0  0  0  0  0
   -2.0814   -1.1978    0.0063 H   0  0  0  0  0  0  0  0  0  0  0  0
    0.0050   -1.4022   -0.0127 C   0  0  0  0  0  0  0  0  0  0  0  0
    0.0005   -2.3978   -0.0318 H   0  0  0  0  0  0  0  0  0  0  0  0
    1.2117   -0.6996   -0.0000 C   0  0  0  0  0  0  0  0  0  0  0  0
    2.0912   -1.1941    0.0113 H   0  0  0  0  0  0  0  0  0  0  0  0
    1.2035    0.6993   -0.0012 C   0  0  0  0  0  0  0  0  0  0  0  0
    2.0672    1.1972   -0.0101 H   0  0  0  0  0  0  0  0  0  0  0  0
  1  5  1  0
  5  8  1  0
  1  2  1  0
  1  3  1  0
  1  4  1  0
  5  6  1  0
  5  7  1  0
  8  9  1  0
  8 10  1  0
  8 11  1  0
 12 16  1  0
 16 17  2  0
 17 19  1  0
 19 21  2  0
 21 23  1  0
 23 25  2  0
 25 16  1  0
 12 13  1  0
 12 14  1  0
 12 15  1  0
 17 18  1  0
 19 20  1  0
 21 22  1  0
 23 24  1  0
 25 26  1  0
M  CHG  1   8   1
M  END
>  <PDB_ID>  (1570) 
pdb3d53

>  <RESIDUE_NAME>  (1570) 
LYS   PHE

>  <FRAG_NAME>  (1570) 
ETAM   MBZ

>  <FRAG_ATOM_NUM>  (1570) 
fragi: 11  fragj: 15

>  <atom.prop.CHAIN_ID>  (1570) 
A A A A A A A A A A A Z Z Z Z Z Z Z Z Z Z Z Z Z Z Z

>  <atom.prop.IS_HEAVY_ATOM>  (1570) 
1 0 0 0 1 0 0 1 0 0 0 1 0 0 0 1 1 0 1 0 1 0 1 0 1 0

>  <DIFUSE_FUNC_ATOM>  (1570) 
n/a

>  <FINAL_SINGLE_POINT_ENERGY>  (1570) 
0

>  <NONCOV_INTER_ENERGY_QM>  (1570) 
0

>  <FF_Energy>  (1570) 
-7.29

>  <QM_Energy>  (1570) 
-14.23

>  <source>  (1570) 
ETAM_MBZ

>  <Index>  (1570) 
15823

$$$$
ETAM-pdb3d3a-A-LYS-516:MBZ-pdb3d3a-A-PHE-512
     RDKit          3D

 26 25  0  0  0  0  0  0  0  0999 V2000
    2.0756   -1.2225    4.7310 C   0  0  0  0  0  0  0  0  0  0  0  0
    2.8540   -1.8471    4.7529 H   0  0  0  0  0  0  0  0  0  0  0  0
    1.3017   -1.6300    5.2132 H   0  0  0  0  0  0  0  0  0  0  0  0
    2.3557   -0.2989    5.2376 H   0  0  0  0  0  0  0  0  0  0  0  0
    1.6800   -0.9898    3.2872 C   0  0  0  0  0  0  0  0  0  0  0  0
    2.2682   -0.2737    2.8967 H   0  0  0  0  0  0  0  0  0  0  0  0
    1.8205   -1.8390    2.7675 H   0  0  0  0  0  0  0  0  0  0  0  0
    0.2548   -0.5710    3.1542 N   0  0  0  0  0  4  0  0  0  0  0  0
   -0.3251   -1.3831    3.1104 H   0  0  0  0  0  0  0  0  0  0  0  0
   -0.0021   -0.0177    3.9451 H   0  0  0  0  0  0  0  0  0  0  0  0
    0.1452   -0.0345    2.3186 H   0  0  0  0  0  0  0  0  0  0  0  0
    0.0054    2.9090    0.0150 C   0  0  0  0  0  0  0  0  0  0  0  0
   -0.7376    3.2229   -0.5565 H   0  0  0  0  0  0  0  0  0  0  0  0
    0.8798    3.2157   -0.3303 H   0  0  0  0  0  0  0  0  0  0  0  0
   -0.1315    3.3413    1.0062 H   0  0  0  0  0  0  0  0  0  0  0  0
    0.0010    1.4026   -0.0004 C   0  0  0  0  0  0  0  0  0  0  0  0
   -1.1966    0.6982   -0.0007 C   0  0  0  0  0  0  0  0  0  0  0  0
   -2.0630    1.1873   -0.0028 H   0  0  0  0  0  0  0  0  0  0  0  0
   -1.2031   -0.6982   -0.0000 C   0  0  0  0  0  0  0  0  0  0  0  0
   -2.0790   -1.1885    0.0014 H   0  0  0  0  0  0  0  0  0  0  0  0
   -0.0004   -1.3958    0.0008 C   0  0  0  0  0  0  0  0  0  0  0  0
   -0.0038   -2.3937    0.0018 H   0  0  0  0  0  0  0  0  0  0  0  0
    1.2031   -0.6978   -0.0000 C   0  0  0  0  0  0  0  0  0  0  0  0
    2.0826   -1.1962    0.0011 H   0  0  0  0  0  0  0  0  0  0  0  0
    1.1960    0.6909    0.0003 C   0  0  0  0  0  0  0  0  0  0  0  0
    2.0651    1.1890    0.0002 H   0  0  0  0  0  0  0  0  0  0  0  0
  1  5  1  0
  5  8  1  0
  1  2  1  0
  1  3  1  0
  1  4  1  0
  5  6  1  0
  5  7  1  0
  8  9  1  0
  8 10  1  0
  8 11  1  0
 12 16  1  0
 16 17  2  0
 17 19  1  0
 19 21  2  0
 21 23  1  0
 23 25  2  0
 25 16  1  0
 12 13  1  0
 12 14  1  0
 12 15  1  0
 17 18  1  0
 19 20  1  0
 21 22  1  0
 23 24  1  0
 25 26  1  0
M  CHG  1   8   1
M  END
>  <PDB_ID>  (1571) 
pdb3d3a

>  <RESIDUE_NAME>  (1571) 
LYS   PHE

>  <FRAG_NAME>  (1571) 
ETAM   MBZ

>  <FRAG_ATOM_NUM>  (1571) 
fragi: 11  fragj: 15

>  <atom.prop.CHAIN_ID>  (1571) 
A A A A A A A A A A A Z Z Z Z Z Z Z Z Z Z Z Z Z Z Z

>  <atom.prop.IS_HEAVY_ATOM>  (1571) 
1 0 0 0 1 0 0 1 0 0 0 1 0 0 0 1 1 0 1 0 1 0 1 0 1 0

>  <DIFUSE_FUNC_ATOM>  (1571) 
n/a

>  <FINAL_SINGLE_POINT_ENERGY>  (1571) 
0

>  <NONCOV_INTER_ENERGY_QM>  (1571) 
0

>  <FF_Energy>  (1571) 
-8.9

>  <QM_Energy>  (1571) 
-17.04

>  <source>  (1571) 
ETAM_MBZ

>  <Index>  (1571) 
15826

$$$$
ETAM-pdb1zd1-A-LYS-55:MBZ-pdb1zd1-A-PHE-145
     RDKit          3D

 26 25  0  0  0  0  0  0  0  0999 V2000
    0.8788    2.0494   -3.5906 C   0  0  0  0  0  0  0  0  0  0  0  0
    0.8914    2.7144   -4.3440 H   0  0  0  0  0  0  0  0  0  0  0  0
    0.9722    2.5461   -2.7219 H   0  0  0  0  0  0  0  0  0  0  0  0
   -0.0323    1.4512   -3.6079 H   0  0  0  0  0  0  0  0  0  0  0  0
    2.2106    1.1990   -3.7452 C   0  0  0  0  0  0  0  0  0  0  0  0
    2.4202    1.1700   -4.7057 H   0  0  0  0  0  0  0  0  0  0  0  0
    2.9063    1.6616   -3.2260 H   0  0  0  0  0  0  0  0  0  0  0  0
    1.9446   -0.1286   -3.2166 N   0  0  0  0  0  4  0  0  0  0  0  0
    2.0700   -0.1385   -2.2193 H   0  0  0  0  0  0  0  0  0  0  0  0
    1.0002   -0.4042   -3.4240 H   0  0  0  0  0  0  0  0  0  0  0  0
    2.5727   -0.7993   -3.6255 H   0  0  0  0  0  0  0  0  0  0  0  0
   -0.0127    2.9812    0.0067 C   0  0  0  0  0  0  0  0  0  0  0  0
   -0.8882    3.2660   -0.3325 H   0  0  0  0  0  0  0  0  0  0  0  0
    0.7295    3.2822   -0.5595 H   0  0  0  0  0  0  0  0  0  0  0  0
    0.1200    3.4414    0.9859 H   0  0  0  0  0  0  0  0  0  0  0  0
    0.0046    1.4226    0.0132 C   0  0  0  0  0  0  0  0  0  0  0  0
   -1.1727    0.6893   -0.0159 C   0  0  0  0  0  0  0  0  0  0  0  0
   -2.0542    1.1778   -0.0515 H   0  0  0  0  0  0  0  0  0  0  0  0
   -1.1878   -0.7016    0.0000 C   0  0  0  0  0  0  0  0  0  0  0  0
   -2.0841   -1.1776    0.0330 H   0  0  0  0  0  0  0  0  0  0  0  0
   -0.0203   -1.4150   -0.0266 C   0  0  0  0  0  0  0  0  0  0  0  0
   -0.0225   -2.4064   -0.0647 H   0  0  0  0  0  0  0  0  0  0  0  0
    1.1878   -0.7155   -0.0000 C   0  0  0  0  0  0  0  0  0  0  0  0
    2.0702   -1.1963    0.0007 H   0  0  0  0  0  0  0  0  0  0  0  0
    1.1884    0.7203    0.0293 C   0  0  0  0  0  0  0  0  0  0  0  0
    2.0651    1.1867    0.0610 H   0  0  0  0  0  0  0  0  0  0  0  0
  1  5  1  0
  5  8  1  0
  1  2  1  0
  1  3  1  0
  1  4  1  0
  5  6  1  0
  5  7  1  0
  8  9  1  0
  8 10  1  0
  8 11  1  0
 12 16  1  0
 16 17  2  0
 17 19  1  0
 19 21  2  0
 21 23  1  0
 23 25  2  0
 25 16  1  0
 12 13  1  0
 12 14  1  0
 12 15  1  0
 17 18  1  0
 19 20  1  0
 21 22  1  0
 23 24  1  0
 25 26  1  0
M  CHG  1   8   1
M  END
>  <PDB_ID>  (1572) 
pdb1zd1

>  <RESIDUE_NAME>  (1572) 
LYS   PHE

>  <FRAG_NAME>  (1572) 
ETAM   MBZ

>  <FRAG_ATOM_NUM>  (1572) 
fragi: 11  fragj: 15

>  <atom.prop.CHAIN_ID>  (1572) 
A A A A A A A A A A A Z Z Z Z Z Z Z Z Z Z Z Z Z Z Z

>  <atom.prop.IS_HEAVY_ATOM>  (1572) 
1 0 0 0 1 0 0 1 0 0 0 1 0 0 0 1 1 0 1 0 1 0 1 0 1 0

>  <DIFUSE_FUNC_ATOM>  (1572) 
n/a

>  <FINAL_SINGLE_POINT_ENERGY>  (1572) 
0

>  <NONCOV_INTER_ENERGY_QM>  (1572) 
0

>  <FF_Energy>  (1572) 
-6.36

>  <QM_Energy>  (1572) 
-13.18

>  <source>  (1572) 
ETAM_MBZ

>  <Index>  (1572) 
15838

$$$$
ETAM-pdb3d2u-E-LYS-40:MBZ-pdb3d2u-E-PHE-74
     RDKit          3D

 26 25  0  0  0  0  0  0  0  0999 V2000
    4.9899   -0.5894    0.6336 C   0  0  0  0  0  0  0  0  0  0  0  0
    5.0625   -1.5157    0.9918 H   0  0  0  0  0  0  0  0  0  0  0  0
    5.8026   -0.0652    0.8671 H   0  0  0  0  0  0  0  0  0  0  0  0
    4.8923   -0.6329   -0.4512 H   0  0  0  0  0  0  0  0  0  0  0  0
    3.7835    0.0816    1.2782 C   0  0  0  0  0  0  0  0  0  0  0  0
    3.7011    1.0140    0.9185 H   0  0  0  0  0  0  0  0  0  0  0  0
    2.9576   -0.4349    1.0363 H   0  0  0  0  0  0  0  0  0  0  0  0
    3.9084    0.1382    2.7604 N   0  0  0  0  0  4  0  0  0  0  0  0
    3.0059    0.2857    3.1638 H   0  0  0  0  0  0  0  0  0  0  0  0
    4.2878   -0.7244    3.0938 H   0  0  0  0  0  0  0  0  0  0  0  0
    4.5148    0.8908    3.0134 H   0  0  0  0  0  0  0  0  0  0  0  0
   -0.0089    2.8955   -0.0118 C   0  0  0  0  0  0  0  0  0  0  0  0
   -0.3231    3.1938   -0.8992 H   0  0  0  0  0  0  0  0  0  0  0  0
    0.9077    3.2118    0.1733 H   0  0  0  0  0  0  0  0  0  0  0  0
   -0.6714    3.3227    0.7409 H   0  0  0  0  0  0  0  0  0  0  0  0
    0.0042    1.4009   -0.0008 C   0  0  0  0  0  0  0  0  0  0  0  0
   -1.1941    0.6968    0.0002 C   0  0  0  0  0  0  0  0  0  0  0  0
   -2.0598    1.1916   -0.0004 H   0  0  0  0  0  0  0  0  0  0  0  0
   -1.2045   -0.6914    0.0000 C   0  0  0  0  0  0  0  0  0  0  0  0
   -2.0864   -1.1807    0.0012 H   0  0  0  0  0  0  0  0  0  0  0  0
   -0.0123   -1.3942    0.0003 C   0  0  0  0  0  0  0  0  0  0  0  0
   -0.0172   -2.3932    0.0004 H   0  0  0  0  0  0  0  0  0  0  0  0
    1.2045   -0.7040   -0.0000 C   0  0  0  0  0  0  0  0  0  0  0  0
    2.0769   -1.2064    0.0008 H   0  0  0  0  0  0  0  0  0  0  0  0
    1.2022    0.6919    0.0003 C   0  0  0  0  0  0  0  0  0  0  0  0
    2.0703    1.1853    0.0008 H   0  0  0  0  0  0  0  0  0  0  0  0
  1  5  1  0
  5  8  1  0
  1  2  1  0
  1  3  1  0
  1  4  1  0
  5  6  1  0
  5  7  1  0
  8  9  1  0
  8 10  1  0
  8 11  1  0
 12 16  1  0
 16 17  2  0
 17 19  1  0
 19 21  2  0
 21 23  1  0
 23 25  2  0
 25 16  1  0
 12 13  1  0
 12 14  1  0
 12 15  1  0
 17 18  1  0
 19 20  1  0
 21 22  1  0
 23 24  1  0
 25 26  1  0
M  CHG  1   8   1
M  END
>  <PDB_ID>  (1573) 
pdb3d2u

>  <RESIDUE_NAME>  (1573) 
LYS   PHE

>  <FRAG_NAME>  (1573) 
ETAM   MBZ

>  <FRAG_ATOM_NUM>  (1573) 
fragi: 11  fragj: 15

>  <atom.prop.CHAIN_ID>  (1573) 
A A A A A A A A A A A Z Z Z Z Z Z Z Z Z Z Z Z Z Z Z

>  <atom.prop.IS_HEAVY_ATOM>  (1573) 
1 0 0 0 1 0 0 1 0 0 0 1 0 0 0 1 1 0 1 0 1 0 1 0 1 0

>  <DIFUSE_FUNC_ATOM>  (1573) 
n/a

>  <FINAL_SINGLE_POINT_ENERGY>  (1573) 
0

>  <NONCOV_INTER_ENERGY_QM>  (1573) 
0

>  <FF_Energy>  (1573) 
44.46

>  <QM_Energy>  (1573) 
4.16

>  <source>  (1573) 
ETAM_MBZ

>  <Index>  (1573) 
15845

$$$$
ETAM-pdb1zd8-A-LYS-214:MBZ-pdb1zd8-A-PHE-210
     RDKit          3D

 26 25  0  0  0  0  0  0  0  0999 V2000
    0.4906   -1.9721    3.6282 C   0  0  0  0  0  0  0  0  0  0  0  0
    0.9984   -1.4340    2.9696 H   0  0  0  0  0  0  0  0  0  0  0  0
    0.9361   -2.8394    3.7983 H   0  0  0  0  0  0  0  0  0  0  0  0
    0.4032   -1.4167    4.5620 H   0  0  0  0  0  0  0  0  0  0  0  0
   -0.8936   -2.2499    3.0544 C   0  0  0  0  0  0  0  0  0  0  0  0
   -1.4823   -1.4498    3.2258 H   0  0  0  0  0  0  0  0  0  0  0  0
   -0.8129   -2.3720    2.0566 H   0  0  0  0  0  0  0  0  0  0  0  0
   -1.5385   -3.4616    3.6410 N   0  0  0  0  0  4  0  0  0  0  0  0
   -2.0241   -3.9565    2.9222 H   0  0  0  0  0  0  0  0  0  0  0  0
   -0.8352   -4.0494    4.0376 H   0  0  0  0  0  0  0  0  0  0  0  0
   -2.1825   -3.1809    4.3508 H   0  0  0  0  0  0  0  0  0  0  0  0
    0.0124    2.9024    0.0152 C   0  0  0  0  0  0  0  0  0  0  0  0
   -0.5716    3.2211   -0.7147 H   0  0  0  0  0  0  0  0  0  0  0  0
    0.9436    3.2058   -0.1058 H   0  0  0  0  0  0  0  0  0  0  0  0
   -0.3563    3.3363    0.9447 H   0  0  0  0  0  0  0  0  0  0  0  0
    0.0022    1.4000    0.0039 C   0  0  0  0  0  0  0  0  0  0  0  0
   -1.2014    0.7019    0.0047 C   0  0  0  0  0  0  0  0  0  0  0  0
   -2.0636    1.1931    0.0080 H   0  0  0  0  0  0  0  0  0  0  0  0
   -1.2126   -0.6980    0.0000 C   0  0  0  0  0  0  0  0  0  0  0  0
   -2.0852   -1.1876    0.0029 H   0  0  0  0  0  0  0  0  0  0  0  0
   -0.0018   -1.3962   -0.0065 C   0  0  0  0  0  0  0  0  0  0  0  0
   -0.0065   -2.3947   -0.0160 H   0  0  0  0  0  0  0  0  0  0  0  0
    1.2126   -0.7007   -0.0000 C   0  0  0  0  0  0  0  0  0  0  0  0
    2.0864   -1.1984    0.0078 H   0  0  0  0  0  0  0  0  0  0  0  0
    1.2011    0.6929   -0.0020 C   0  0  0  0  0  0  0  0  0  0  0  0
    2.0679    1.1918   -0.0083 H   0  0  0  0  0  0  0  0  0  0  0  0
  1  5  1  0
  5  8  1  0
  1  2  1  0
  1  3  1  0
  1  4  1  0
  5  6  1  0
  5  7  1  0
  8  9  1  0
  8 10  1  0
  8 11  1  0
 12 16  1  0
 16 17  2  0
 17 19  1  0
 19 21  2  0
 21 23  1  0
 23 25  2  0
 25 16  1  0
 12 13  1  0
 12 14  1  0
 12 15  1  0
 17 18  1  0
 19 20  1  0
 21 22  1  0
 23 24  1  0
 25 26  1  0
M  CHG  1   8   1
M  END
>  <PDB_ID>  (1574) 
pdb1zd8

>  <RESIDUE_NAME>  (1574) 
LYS   PHE

>  <FRAG_NAME>  (1574) 
ETAM   MBZ

>  <FRAG_ATOM_NUM>  (1574) 
fragi: 11  fragj: 15

>  <atom.prop.CHAIN_ID>  (1574) 
A A A A A A A A A A A Z Z Z Z Z Z Z Z Z Z Z Z Z Z Z

>  <atom.prop.IS_HEAVY_ATOM>  (1574) 
1 0 0 0 1 0 0 1 0 0 0 1 0 0 0 1 1 0 1 0 1 0 1 0 1 0

>  <DIFUSE_FUNC_ATOM>  (1574) 
n/a

>  <FINAL_SINGLE_POINT_ENERGY>  (1574) 
0

>  <NONCOV_INTER_ENERGY_QM>  (1574) 
0

>  <FF_Energy>  (1574) 
-0.68

>  <QM_Energy>  (1574) 
-6.14

>  <source>  (1574) 
ETAM_MBZ

>  <Index>  (1574) 
15852

$$$$
ETAM-pdb1z6o-P-LYS-184:MBZ-pdb1z6o-P-PHE-180
     RDKit          3D

 26 25  0  0  0  0  0  0  0  0999 V2000
   -0.4505   -1.5818    4.6954 C   0  0  0  0  0  0  0  0  0  0  0  0
   -0.3403   -2.5465    4.9191 H   0  0  0  0  0  0  0  0  0  0  0  0
   -0.6879   -1.0654    5.5126 H   0  0  0  0  0  0  0  0  0  0  0  0
    0.4945   -1.2039    4.3052 H   0  0  0  0  0  0  0  0  0  0  0  0
   -1.5936   -1.4453    3.6861 C   0  0  0  0  0  0  0  0  0  0  0  0
   -1.3346   -1.9144    2.8402 H   0  0  0  0  0  0  0  0  0  0  0  0
   -2.4132   -1.8793    4.0647 H   0  0  0  0  0  0  0  0  0  0  0  0
   -1.8983   -0.0105    3.3770 N   0  0  0  0  0  4  0  0  0  0  0  0
   -1.5281    0.5648    4.1033 H   0  0  0  0  0  0  0  0  0  0  0  0
   -1.4784    0.2319    2.5049 H   0  0  0  0  0  0  0  0  0  0  0  0
   -2.8873    0.1083    3.3215 H   0  0  0  0  0  0  0  0  0  0  0  0
    0.0052    2.9202    0.0164 C   0  0  0  0  0  0  0  0  0  0  0  0
   -0.7820    3.2328   -0.4869 H   0  0  0  0  0  0  0  0  0  0  0  0
    0.8481    3.2283   -0.3924 H   0  0  0  0  0  0  0  0  0  0  0  0
   -0.0517    3.3424    1.0196 H   0  0  0  0  0  0  0  0  0  0  0  0
    0.0018    1.4118   -0.0007 C   0  0  0  0  0  0  0  0  0  0  0  0
   -1.2025    0.7035    0.0002 C   0  0  0  0  0  0  0  0  0  0  0  0
   -2.0661    1.1912   -0.0001 H   0  0  0  0  0  0  0  0  0  0  0  0
   -1.2101   -0.7002    0.0000 C   0  0  0  0  0  0  0  0  0  0  0  0
   -2.0847   -1.1896    0.0006 H   0  0  0  0  0  0  0  0  0  0  0  0
   -0.0004   -1.4074    0.0002 C   0  0  0  0  0  0  0  0  0  0  0  0
   -0.0092   -2.4024    0.0003 H   0  0  0  0  0  0  0  0  0  0  0  0
    1.2101   -0.7092    0.0000 C   0  0  0  0  0  0  0  0  0  0  0  0
    2.0878   -1.1987    0.0011 H   0  0  0  0  0  0  0  0  0  0  0  0
    1.2011    0.7015    0.0003 C   0  0  0  0  0  0  0  0  0  0  0  0
    2.0699    1.1914    0.0003 H   0  0  0  0  0  0  0  0  0  0  0  0
  1  5  1  0
  5  8  1  0
  1  2  1  0
  1  3  1  0
  1  4  1  0
  5  6  1  0
  5  7  1  0
  8  9  1  0
  8 10  1  0
  8 11  1  0
 12 16  1  0
 16 17  2  0
 17 19  1  0
 19 21  2  0
 21 23  1  0
 23 25  2  0
 25 16  1  0
 12 13  1  0
 12 14  1  0
 12 15  1  0
 17 18  1  0
 19 20  1  0
 21 22  1  0
 23 24  1  0
 25 26  1  0
M  CHG  1   8   1
M  END
>  <PDB_ID>  (1575) 
pdb1z6o

>  <RESIDUE_NAME>  (1575) 
LYS   PHE

>  <FRAG_NAME>  (1575) 
ETAM   MBZ

>  <FRAG_ATOM_NUM>  (1575) 
fragi: 11  fragj: 15

>  <atom.prop.CHAIN_ID>  (1575) 
A A A A A A A A A A A Z Z Z Z Z Z Z Z Z Z Z Z Z Z Z

>  <atom.prop.IS_HEAVY_ATOM>  (1575) 
1 0 0 0 1 0 0 1 0 0 0 1 0 0 0 1 1 0 1 0 1 0 1 0 1 0

>  <DIFUSE_FUNC_ATOM>  (1575) 
n/a

>  <FINAL_SINGLE_POINT_ENERGY>  (1575) 
0

>  <NONCOV_INTER_ENERGY_QM>  (1575) 
0

>  <FF_Energy>  (1575) 
-6.15

>  <QM_Energy>  (1575) 
-13.07

>  <source>  (1575) 
ETAM_MBZ

>  <Index>  (1575) 
15861

$$$$
ETAM-pdb1z6o-O-LYS-184:MBZ-pdb1z6o-O-PHE-180
     RDKit          3D

 26 25  0  0  0  0  0  0  0  0999 V2000
   -0.4482   -1.5816    4.6957 C   0  0  0  0  0  0  0  0  0  0  0  0
   -0.3379   -2.5460    4.9183 H   0  0  0  0  0  0  0  0  0  0  0  0
   -0.6862   -1.0649    5.5127 H   0  0  0  0  0  0  0  0  0  0  0  0
    0.4965   -1.2037    4.3044 H   0  0  0  0  0  0  0  0  0  0  0  0
   -1.5926   -1.4452    3.6865 C   0  0  0  0  0  0  0  0  0  0  0  0
   -1.3343   -1.9151    2.8403 H   0  0  0  0  0  0  0  0  0  0  0  0
   -2.4111   -1.8793    4.0668 H   0  0  0  0  0  0  0  0  0  0  0  0
   -1.8979   -0.0106    3.3768 N   0  0  0  0  0  4  0  0  0  0  0  0
   -2.8874    0.1061    3.3134 H   0  0  0  0  0  0  0  0  0  0  0  0
   -1.5352    0.5651    4.1065 H   0  0  0  0  0  0  0  0  0  0  0  0
   -1.4712    0.2342    2.5086 H   0  0  0  0  0  0  0  0  0  0  0  0
    0.0045    2.9200    0.0167 C   0  0  0  0  0  0  0  0  0  0  0  0
   -0.7835    3.2327   -0.4866 H   0  0  0  0  0  0  0  0  0  0  0  0
    0.8469    3.2282   -0.3930 H   0  0  0  0  0  0  0  0  0  0  0  0
   -0.0521    3.3427    1.0199 H   0  0  0  0  0  0  0  0  0  0  0  0
    0.0016    1.4120   -0.0011 C   0  0  0  0  0  0  0  0  0  0  0  0
   -1.2031    0.7033    0.0004 C   0  0  0  0  0  0  0  0  0  0  0  0
   -2.0666    1.1916    0.0004 H   0  0  0  0  0  0  0  0  0  0  0  0
   -1.2099   -0.7001   -0.0000 C   0  0  0  0  0  0  0  0  0  0  0  0
   -2.0850   -1.1901    0.0006 H   0  0  0  0  0  0  0  0  0  0  0  0
   -0.0000   -1.4077    0.0006 C   0  0  0  0  0  0  0  0  0  0  0  0
   -0.0083   -2.4014    0.0010 H   0  0  0  0  0  0  0  0  0  0  0  0
    1.2099   -0.7088    0.0000 C   0  0  0  0  0  0  0  0  0  0  0  0
    2.0876   -1.1985    0.0009 H   0  0  0  0  0  0  0  0  0  0  0  0
    1.2016    0.7013    0.0000 C   0  0  0  0  0  0  0  0  0  0  0  0
    2.0705    1.1914    0.0000 H   0  0  0  0  0  0  0  0  0  0  0  0
  1  5  1  0
  5  8  1  0
  1  2  1  0
  1  3  1  0
  1  4  1  0
  5  6  1  0
  5  7  1  0
  8  9  1  0
  8 10  1  0
  8 11  1  0
 12 16  1  0
 16 17  2  0
 17 19  1  0
 19 21  2  0
 21 23  1  0
 23 25  2  0
 25 16  1  0
 12 13  1  0
 12 14  1  0
 12 15  1  0
 17 18  1  0
 19 20  1  0
 21 22  1  0
 23 24  1  0
 25 26  1  0
M  CHG  1   8   1
M  END
>  <PDB_ID>  (1576) 
pdb1z6o

>  <RESIDUE_NAME>  (1576) 
LYS   PHE

>  <FRAG_NAME>  (1576) 
ETAM   MBZ

>  <FRAG_ATOM_NUM>  (1576) 
fragi: 11  fragj: 15

>  <atom.prop.CHAIN_ID>  (1576) 
A A A A A A A A A A A Z Z Z Z Z Z Z Z Z Z Z Z Z Z Z

>  <atom.prop.IS_HEAVY_ATOM>  (1576) 
1 0 0 0 1 0 0 1 0 0 0 1 0 0 0 1 1 0 1 0 1 0 1 0 1 0

>  <DIFUSE_FUNC_ATOM>  (1576) 
n/a

>  <FINAL_SINGLE_POINT_ENERGY>  (1576) 
0

>  <NONCOV_INTER_ENERGY_QM>  (1576) 
0

>  <FF_Energy>  (1576) 
-6.16

>  <QM_Energy>  (1576) 
-13.05

>  <source>  (1576) 
ETAM_MBZ

>  <Index>  (1576) 
15874

$$$$
ETAM-pdb1z6o-Q-LYS-184:MBZ-pdb1z6o-Q-PHE-180
     RDKit          3D

 26 25  0  0  0  0  0  0  0  0999 V2000
   -0.4492   -1.5830    4.6946 C   0  0  0  0  0  0  0  0  0  0  0  0
   -0.3392   -2.5471    4.9182 H   0  0  0  0  0  0  0  0  0  0  0  0
   -0.6870   -1.0668    5.5126 H   0  0  0  0  0  0  0  0  0  0  0  0
    0.4958   -1.2054    4.3043 H   0  0  0  0  0  0  0  0  0  0  0  0
   -1.5934   -1.4466    3.6856 C   0  0  0  0  0  0  0  0  0  0  0  0
   -1.3348   -1.9161    2.8392 H   0  0  0  0  0  0  0  0  0  0  0  0
   -2.4126   -1.8796    4.0656 H   0  0  0  0  0  0  0  0  0  0  0  0
   -1.8977   -0.0116    3.3771 N   0  0  0  0  0  4  0  0  0  0  0  0
   -1.4240    0.2488    2.5381 H   0  0  0  0  0  0  0  0  0  0  0  0
   -2.8828    0.0950    3.2575 H   0  0  0  0  0  0  0  0  0  0  0  0
   -1.5850    0.5587    4.1341 H   0  0  0  0  0  0  0  0  0  0  0  0
    0.0054    2.9202    0.0175 C   0  0  0  0  0  0  0  0  0  0  0  0
   -0.7828    3.2335   -0.4857 H   0  0  0  0  0  0  0  0  0  0  0  0
    0.8478    3.2286   -0.3926 H   0  0  0  0  0  0  0  0  0  0  0  0
   -0.0511    3.3425    1.0208 H   0  0  0  0  0  0  0  0  0  0  0  0
    0.0020    1.4120   -0.0009 C   0  0  0  0  0  0  0  0  0  0  0  0
   -1.2026    0.7037    0.0008 C   0  0  0  0  0  0  0  0  0  0  0  0
   -2.0662    1.1919    0.0010 H   0  0  0  0  0  0  0  0  0  0  0  0
   -1.2098   -0.6993   -0.0000 C   0  0  0  0  0  0  0  0  0  0  0  0
   -2.0846   -1.1889    0.0010 H   0  0  0  0  0  0  0  0  0  0  0  0
   -0.0004   -1.4080   -0.0004 C   0  0  0  0  0  0  0  0  0  0  0  0
   -0.0094   -2.4021   -0.0020 H   0  0  0  0  0  0  0  0  0  0  0  0
    1.2098   -0.7095    0.0000 C   0  0  0  0  0  0  0  0  0  0  0  0
    2.0881   -1.1990    0.0013 H   0  0  0  0  0  0  0  0  0  0  0  0
    1.2010    0.7011    0.0005 C   0  0  0  0  0  0  0  0  0  0  0  0
    2.0702    1.1909    0.0009 H   0  0  0  0  0  0  0  0  0  0  0  0
  1  5  1  0
  5  8  1  0
  1  2  1  0
  1  3  1  0
  1  4  1  0
  5  6  1  0
  5  7  1  0
  8  9  1  0
  8 10  1  0
  8 11  1  0
 12 16  1  0
 16 17  2  0
 17 19  1  0
 19 21  2  0
 21 23  1  0
 23 25  2  0
 25 16  1  0
 12 13  1  0
 12 14  1  0
 12 15  1  0
 17 18  1  0
 19 20  1  0
 21 22  1  0
 23 24  1  0
 25 26  1  0
M  CHG  1   8   1
M  END
>  <PDB_ID>  (1577) 
pdb1z6o

>  <RESIDUE_NAME>  (1577) 
LYS   PHE

>  <FRAG_NAME>  (1577) 
ETAM   MBZ

>  <FRAG_ATOM_NUM>  (1577) 
fragi: 11  fragj: 15

>  <atom.prop.CHAIN_ID>  (1577) 
A A A A A A A A A A A Z Z Z Z Z Z Z Z Z Z Z Z Z Z Z

>  <atom.prop.IS_HEAVY_ATOM>  (1577) 
1 0 0 0 1 0 0 1 0 0 0 1 0 0 0 1 1 0 1 0 1 0 1 0 1 0

>  <DIFUSE_FUNC_ATOM>  (1577) 
n/a

>  <FINAL_SINGLE_POINT_ENERGY>  (1577) 
0

>  <NONCOV_INTER_ENERGY_QM>  (1577) 
0

>  <FF_Energy>  (1577) 
-6.15

>  <QM_Energy>  (1577) 
-12.93

>  <source>  (1577) 
ETAM_MBZ

>  <Index>  (1577) 
15882

$$$$
ETAM-pdb1zem-B-LYS-8:MBZ-pdb1zem-B-PHE-87
     RDKit          3D

 26 25  0  0  0  0  0  0  0  0999 V2000
    0.1097   -2.9076   -2.6962 C   0  0  0  0  0  0  0  0  0  0  0  0
    0.9395   -3.2819   -2.3015 H   0  0  0  0  0  0  0  0  0  0  0  0
   -0.3315   -2.2849   -2.0627 H   0  0  0  0  0  0  0  0  0  0  0  0
    0.3195   -2.4137   -3.6450 H   0  0  0  0  0  0  0  0  0  0  0  0
   -0.8603   -4.0895   -2.9226 C   0  0  0  0  0  0  0  0  0  0  0  0
   -0.3446   -4.8439   -3.3395 H   0  0  0  0  0  0  0  0  0  0  0  0
   -1.2042   -4.3891   -2.0275 H   0  0  0  0  0  0  0  0  0  0  0  0
   -2.0080   -3.7281   -3.7998 N   0  0  0  0  0  4  0  0  0  0  0  0
   -2.6759   -3.2035   -3.2721 H   0  0  0  0  0  0  0  0  0  0  0  0
   -1.6781   -3.1766   -4.5658 H   0  0  0  0  0  0  0  0  0  0  0  0
   -2.4349   -4.5627   -4.1469 H   0  0  0  0  0  0  0  0  0  0  0  0
    0.0543    2.9596    0.1152 C   0  0  0  0  0  0  0  0  0  0  0  0
    0.8506    3.2676   -0.3941 H   0  0  0  0  0  0  0  0  0  0  0  0
    0.1516    3.1791    1.0797 H   0  0  0  0  0  0  0  0  0  0  0  0
   -0.8174    3.4917   -0.2657 H   0  0  0  0  0  0  0  0  0  0  0  0
    0.0100    1.4291    0.0018 C   0  0  0  0  0  0  0  0  0  0  0  0
   -1.1894    0.7218   -0.0016 C   0  0  0  0  0  0  0  0  0  0  0  0
   -2.0579    1.2038   -0.0067 H   0  0  0  0  0  0  0  0  0  0  0  0
   -1.2091   -0.7014   -0.0000 C   0  0  0  0  0  0  0  0  0  0  0  0
   -2.1024   -1.1639    0.0009 H   0  0  0  0  0  0  0  0  0  0  0  0
   -0.0300   -1.4152    0.0029 C   0  0  0  0  0  0  0  0  0  0  0  0
   -0.0398   -2.4136    0.0065 H   0  0  0  0  0  0  0  0  0  0  0  0
    1.2091   -0.7373    0.0000 C   0  0  0  0  0  0  0  0  0  0  0  0
    2.0712   -1.2263    0.0011 H   0  0  0  0  0  0  0  0  0  0  0  0
    1.2094    0.7030   -0.0030 C   0  0  0  0  0  0  0  0  0  0  0  0
    2.0831    1.1745   -0.0095 H   0  0  0  0  0  0  0  0  0  0  0  0
  1  5  1  0
  5  8  1  0
  1  2  1  0
  1  3  1  0
  1  4  1  0
  5  6  1  0
  5  7  1  0
  8  9  1  0
  8 10  1  0
  8 11  1  0
 12 16  1  0
 16 17  2  0
 17 19  1  0
 19 21  2  0
 21 23  1  0
 23 25  2  0
 25 16  1  0
 12 13  1  0
 12 14  1  0
 12 15  1  0
 17 18  1  0
 19 20  1  0
 21 22  1  0
 23 24  1  0
 25 26  1  0
M  CHG  1   8   1
M  END
>  <PDB_ID>  (1578) 
pdb1zem

>  <RESIDUE_NAME>  (1578) 
LYS   PHE

>  <FRAG_NAME>  (1578) 
ETAM   MBZ

>  <FRAG_ATOM_NUM>  (1578) 
fragi: 11  fragj: 15

>  <atom.prop.CHAIN_ID>  (1578) 
A A A A A A A A A A A Z Z Z Z Z Z Z Z Z Z Z Z Z Z Z

>  <atom.prop.IS_HEAVY_ATOM>  (1578) 
1 0 0 0 1 0 0 1 0 0 0 1 0 0 0 1 1 0 1 0 1 0 1 0 1 0

>  <DIFUSE_FUNC_ATOM>  (1578) 
n/a

>  <FINAL_SINGLE_POINT_ENERGY>  (1578) 
0

>  <NONCOV_INTER_ENERGY_QM>  (1578) 
0

>  <FF_Energy>  (1578) 
3.52

>  <QM_Energy>  (1578) 
-2.02

>  <source>  (1578) 
ETAM_MBZ

>  <Index>  (1578) 
15888

$$$$
ETAM-pdb3d4i-B-LYS-454:MBZ-pdb3d4i-B-PHE-500
     RDKit          3D

 26 25  0  0  0  0  0  0  0  0999 V2000
   -3.3551   -0.1945   -3.7224 C   0  0  0  0  0  0  0  0  0  0  0  0
   -3.7745   -1.0679   -3.4862 H   0  0  0  0  0  0  0  0  0  0  0  0
   -3.3734   -0.0630   -4.7107 H   0  0  0  0  0  0  0  0  0  0  0  0
   -3.9276    0.6055   -3.2531 H   0  0  0  0  0  0  0  0  0  0  0  0
   -1.9095   -0.2092   -3.2607 C   0  0  0  0  0  0  0  0  0  0  0  0
   -1.4492    0.6113   -3.5949 H   0  0  0  0  0  0  0  0  0  0  0  0
   -1.8824   -0.2270   -2.2627 H   0  0  0  0  0  0  0  0  0  0  0  0
   -1.1960   -1.4171   -3.7875 N   0  0  0  0  0  4  0  0  0  0  0  0
   -1.0494   -2.0613   -3.0395 H   0  0  0  0  0  0  0  0  0  0  0  0
   -1.7543   -1.8425   -4.4969 H   0  0  0  0  0  0  0  0  0  0  0  0
   -0.3182   -1.1372   -4.1702 H   0  0  0  0  0  0  0  0  0  0  0  0
    0.0016    2.9034    0.0013 C   0  0  0  0  0  0  0  0  0  0  0  0
    0.8473    3.2088    0.4127 H   0  0  0  0  0  0  0  0  0  0  0  0
   -0.7822    3.2109    0.5214 H   0  0  0  0  0  0  0  0  0  0  0  0
   -0.0641    3.3473   -0.9920 H   0  0  0  0  0  0  0  0  0  0  0  0
   -0.0004    1.4024   -0.0003 C   0  0  0  0  0  0  0  0  0  0  0  0
   -1.1942    0.6960   -0.0020 C   0  0  0  0  0  0  0  0  0  0  0  0
   -2.0614    1.1835   -0.0059 H   0  0  0  0  0  0  0  0  0  0  0  0
   -1.1956   -0.6952   -0.0000 C   0  0  0  0  0  0  0  0  0  0  0  0
   -2.0740   -1.1886    0.0054 H   0  0  0  0  0  0  0  0  0  0  0  0
    0.0030   -1.3915   -0.0036 C   0  0  0  0  0  0  0  0  0  0  0  0
   -0.0068   -2.3927   -0.0091 H   0  0  0  0  0  0  0  0  0  0  0  0
    1.1956   -0.7035    0.0000 C   0  0  0  0  0  0  0  0  0  0  0  0
    2.0802   -1.1961   -0.0006 H   0  0  0  0  0  0  0  0  0  0  0  0
    1.1916    0.6918    0.0059 C   0  0  0  0  0  0  0  0  0  0  0  0
    2.0628    1.1842    0.0138 H   0  0  0  0  0  0  0  0  0  0  0  0
  1  5  1  0
  5  8  1  0
  1  2  1  0
  1  3  1  0
  1  4  1  0
  5  6  1  0
  5  7  1  0
  8  9  1  0
  8 10  1  0
  8 11  1  0
 12 16  1  0
 16 17  2  0
 17 19  1  0
 19 21  2  0
 21 23  1  0
 23 25  2  0
 25 16  1  0
 12 13  1  0
 12 14  1  0
 12 15  1  0
 17 18  1  0
 19 20  1  0
 21 22  1  0
 23 24  1  0
 25 26  1  0
M  CHG  1   8   1
M  END
>  <PDB_ID>  (1579) 
pdb3d4i

>  <RESIDUE_NAME>  (1579) 
LYS   PHE

>  <FRAG_NAME>  (1579) 
ETAM   MBZ

>  <FRAG_ATOM_NUM>  (1579) 
fragi: 11  fragj: 15

>  <atom.prop.CHAIN_ID>  (1579) 
A A A A A A A A A A A Z Z Z Z Z Z Z Z Z Z Z Z Z Z Z

>  <atom.prop.IS_HEAVY_ATOM>  (1579) 
1 0 0 0 1 0 0 1 0 0 0 1 0 0 0 1 1 0 1 0 1 0 1 0 1 0

>  <DIFUSE_FUNC_ATOM>  (1579) 
n/a

>  <FINAL_SINGLE_POINT_ENERGY>  (1579) 
0

>  <NONCOV_INTER_ENERGY_QM>  (1579) 
0

>  <FF_Energy>  (1579) 
-2.57

>  <QM_Energy>  (1579) 
-8.51

>  <source>  (1579) 
ETAM_MBZ

>  <Index>  (1579) 
15893

$$$$
ETAM-pdb3d7i-C-LYS-44:MBZ-pdb3d7i-C-PHE-33
     RDKit          3D

 26 25  0  0  0  0  0  0  0  0999 V2000
   -0.6315   -2.4233    3.7494 C   0  0  0  0  0  0  0  0  0  0  0  0
   -0.4686   -3.0162    4.5381 H   0  0  0  0  0  0  0  0  0  0  0  0
   -0.7960   -2.9834    2.9377 H   0  0  0  0  0  0  0  0  0  0  0  0
   -1.5210   -1.8241    3.9442 H   0  0  0  0  0  0  0  0  0  0  0  0
    0.5815   -1.5723    3.5181 C   0  0  0  0  0  0  0  0  0  0  0  0
    0.4175   -0.9772    2.7135 H   0  0  0  0  0  0  0  0  0  0  0  0
    0.7135   -0.9639    4.3185 H   0  0  0  0  0  0  0  0  0  0  0  0
    1.8014   -2.3545    3.2996 N   0  0  0  0  0  4  0  0  0  0  0  0
    2.5598   -1.7454    3.0541 H   0  0  0  0  0  0  0  0  0  0  0  0
    2.0434   -2.8541    4.1357 H   0  0  0  0  0  0  0  0  0  0  0  0
    1.6578   -3.0126    2.5562 H   0  0  0  0  0  0  0  0  0  0  0  0
   -0.0300    2.9024    0.0151 C   0  0  0  0  0  0  0  0  0  0  0  0
    0.9001    3.2297   -0.0359 H   0  0  0  0  0  0  0  0  0  0  0  0
   -0.4768    3.2028    0.8425 H   0  0  0  0  0  0  0  0  0  0  0  0
   -0.5736    3.3383   -0.8230 H   0  0  0  0  0  0  0  0  0  0  0  0
   -0.0070    1.4057    0.0048 C   0  0  0  0  0  0  0  0  0  0  0  0
   -1.1869    0.6923    0.0018 C   0  0  0  0  0  0  0  0  0  0  0  0
   -2.0649    1.1735   -0.0004 H   0  0  0  0  0  0  0  0  0  0  0  0
   -1.1974   -0.7096   -0.0000 C   0  0  0  0  0  0  0  0  0  0  0  0
   -2.0751   -1.1939    0.0059 H   0  0  0  0  0  0  0  0  0  0  0  0
    0.0006   -1.3970   -0.0079 C   0  0  0  0  0  0  0  0  0  0  0  0
    0.0052   -2.3960   -0.0201 H   0  0  0  0  0  0  0  0  0  0  0  0
    1.1974   -0.6932    0.0000 C   0  0  0  0  0  0  0  0  0  0  0  0
    2.0823   -1.1876    0.0059 H   0  0  0  0  0  0  0  0  0  0  0  0
    1.1933    0.7017    0.0013 C   0  0  0  0  0  0  0  0  0  0  0  0
    2.0593    1.1972   -0.0010 H   0  0  0  0  0  0  0  0  0  0  0  0
  1  5  1  0
  5  8  1  0
  1  2  1  0
  1  3  1  0
  1  4  1  0
  5  6  1  0
  5  7  1  0
  8  9  1  0
  8 10  1  0
  8 11  1  0
 12 16  1  0
 16 17  2  0
 17 19  1  0
 19 21  2  0
 21 23  1  0
 23 25  2  0
 25 16  1  0
 12 13  1  0
 12 14  1  0
 12 15  1  0
 17 18  1  0
 19 20  1  0
 21 22  1  0
 23 24  1  0
 25 26  1  0
M  CHG  1   8   1
M  END
>  <PDB_ID>  (1580) 
pdb3d7i

>  <RESIDUE_NAME>  (1580) 
LYS   PHE

>  <FRAG_NAME>  (1580) 
ETAM   MBZ

>  <FRAG_ATOM_NUM>  (1580) 
fragi: 11  fragj: 15

>  <atom.prop.CHAIN_ID>  (1580) 
A A A A A A A A A A A Z Z Z Z Z Z Z Z Z Z Z Z Z Z Z

>  <atom.prop.IS_HEAVY_ATOM>  (1580) 
1 0 0 0 1 0 0 1 0 0 0 1 0 0 0 1 1 0 1 0 1 0 1 0 1 0

>  <DIFUSE_FUNC_ATOM>  (1580) 
n/a

>  <FINAL_SINGLE_POINT_ENERGY>  (1580) 
0

>  <NONCOV_INTER_ENERGY_QM>  (1580) 
0

>  <FF_Energy>  (1580) 
-3.71

>  <QM_Energy>  (1580) 
-9.11

>  <source>  (1580) 
ETAM_MBZ

>  <Index>  (1580) 
15895

$$$$
ETAM-pdb3d3x-B-LYS-345:MBZ-pdb3d3x-B-PHE-201
     RDKit          3D

 26 25  0  0  0  0  0  0  0  0999 V2000
    1.6271   -0.4657    4.5949 C   0  0  0  0  0  0  0  0  0  0  0  0
    1.5654   -0.3389    5.5837 H   0  0  0  0  0  0  0  0  0  0  0  0
    1.1325   -1.2903    4.3284 H   0  0  0  0  0  0  0  0  0  0  0  0
    1.1774    0.3943    4.0987 H   0  0  0  0  0  0  0  0  0  0  0  0
    3.1123   -0.6615    4.2307 C   0  0  0  0  0  0  0  0  0  0  0  0
    3.5971    0.2078    4.4057 H   0  0  0  0  0  0  0  0  0  0  0  0
    3.4992   -1.3611    4.8488 H   0  0  0  0  0  0  0  0  0  0  0  0
    3.3391   -1.0746    2.8175 N   0  0  0  0  0  4  0  0  0  0  0  0
    3.6316   -0.2818    2.2844 H   0  0  0  0  0  0  0  0  0  0  0  0
    4.0474   -1.7787    2.7879 H   0  0  0  0  0  0  0  0  0  0  0  0
    2.4887   -1.4389    2.4384 H   0  0  0  0  0  0  0  0  0  0  0  0
    0.0005    2.9008   -0.0107 C   0  0  0  0  0  0  0  0  0  0  0  0
    0.8932    3.2107    0.2801 H   0  0  0  0  0  0  0  0  0  0  0  0
   -0.7072    3.2138    0.6042 H   0  0  0  0  0  0  0  0  0  0  0  0
   -0.1976    3.3309   -0.9924 H   0  0  0  0  0  0  0  0  0  0  0  0
   -0.0004    1.4043   -0.0002 C   0  0  0  0  0  0  0  0  0  0  0  0
   -1.2016    0.6996   -0.0006 C   0  0  0  0  0  0  0  0  0  0  0  0
   -2.0666    1.1888   -0.0022 H   0  0  0  0  0  0  0  0  0  0  0  0
   -1.2131   -0.7028   -0.0000 C   0  0  0  0  0  0  0  0  0  0  0  0
   -2.0838   -1.1929    0.0018 H   0  0  0  0  0  0  0  0  0  0  0  0
    0.0018   -1.4052    0.0006 C   0  0  0  0  0  0  0  0  0  0  0  0
    0.0012   -2.3978    0.0012 H   0  0  0  0  0  0  0  0  0  0  0  0
    1.2131   -0.6959    0.0000 C   0  0  0  0  0  0  0  0  0  0  0  0
    2.0914   -1.1908    0.0010 H   0  0  0  0  0  0  0  0  0  0  0  0
    1.2002    0.7001    0.0002 C   0  0  0  0  0  0  0  0  0  0  0  0
    2.0667    1.1991    0.0005 H   0  0  0  0  0  0  0  0  0  0  0  0
  1  5  1  0
  5  8  1  0
  1  2  1  0
  1  3  1  0
  1  4  1  0
  5  6  1  0
  5  7  1  0
  8  9  1  0
  8 10  1  0
  8 11  1  0
 12 16  1  0
 16 17  2  0
 17 19  1  0
 19 21  2  0
 21 23  1  0
 23 25  2  0
 25 16  1  0
 12 13  1  0
 12 14  1  0
 12 15  1  0
 17 18  1  0
 19 20  1  0
 21 22  1  0
 23 24  1  0
 25 26  1  0
M  CHG  1   8   1
M  END
>  <PDB_ID>  (1581) 
pdb3d3x

>  <RESIDUE_NAME>  (1581) 
LYS   PHE

>  <FRAG_NAME>  (1581) 
ETAM   MBZ

>  <FRAG_ATOM_NUM>  (1581) 
fragi: 11  fragj: 15

>  <atom.prop.CHAIN_ID>  (1581) 
A A A A A A A A A A A Z Z Z Z Z Z Z Z Z Z Z Z Z Z Z

>  <atom.prop.IS_HEAVY_ATOM>  (1581) 
1 0 0 0 1 0 0 1 0 0 0 1 0 0 0 1 1 0 1 0 1 0 1 0 1 0

>  <DIFUSE_FUNC_ATOM>  (1581) 
n/a

>  <FINAL_SINGLE_POINT_ENERGY>  (1581) 
0

>  <NONCOV_INTER_ENERGY_QM>  (1581) 
0

>  <FF_Energy>  (1581) 
-2.2

>  <QM_Energy>  (1581) 
-7.46

>  <source>  (1581) 
ETAM_MBZ

>  <Index>  (1581) 
15899

$$$$
ETAM-pdb3d7i-B-LYS-44:MBZ-pdb3d7i-B-PHE-33
     RDKit          3D

 26 25  0  0  0  0  0  0  0  0999 V2000
   -0.9610   -2.2360    3.8529 C   0  0  0  0  0  0  0  0  0  0  0  0
   -0.7771   -2.7721    4.6568 H   0  0  0  0  0  0  0  0  0  0  0  0
   -1.1175   -2.7965    3.0602 H   0  0  0  0  0  0  0  0  0  0  0  0
   -1.8461   -1.6259    4.0331 H   0  0  0  0  0  0  0  0  0  0  0  0
    0.2387   -1.3266    3.5828 C   0  0  0  0  0  0  0  0  0  0  0  0
    0.0227   -0.7332    2.7951 H   0  0  0  0  0  0  0  0  0  0  0  0
    0.3810   -0.7324    4.3876 H   0  0  0  0  0  0  0  0  0  0  0  0
    1.5036   -2.0701    3.2988 N   0  0  0  0  0  4  0  0  0  0  0  0
    1.5018   -2.9275    3.8103 H   0  0  0  0  0  0  0  0  0  0  0  0
    1.5596   -2.2609    2.3203 H   0  0  0  0  0  0  0  0  0  0  0  0
    2.2830   -1.5119    3.5793 H   0  0  0  0  0  0  0  0  0  0  0  0
    0.0008    2.8796   -0.0272 C   0  0  0  0  0  0  0  0  0  0  0  0
    0.9371    3.1911    0.0030 H   0  0  0  0  0  0  0  0  0  0  0  0
   -0.5143    3.2057    0.7493 H   0  0  0  0  0  0  0  0  0  0  0  0
   -0.4575    3.2901   -0.9269 H   0  0  0  0  0  0  0  0  0  0  0  0
    0.0005    1.3897    0.0025 C   0  0  0  0  0  0  0  0  0  0  0  0
   -1.1943    0.6830    0.0032 C   0  0  0  0  0  0  0  0  0  0  0  0
   -2.0610    1.1777    0.0045 H   0  0  0  0  0  0  0  0  0  0  0  0
   -1.1988   -0.6970   -0.0000 C   0  0  0  0  0  0  0  0  0  0  0  0
   -2.0724   -1.1959    0.0021 H   0  0  0  0  0  0  0  0  0  0  0  0
    0.0016   -1.3793   -0.0047 C   0  0  0  0  0  0  0  0  0  0  0  0
    0.0025   -2.3838   -0.0126 H   0  0  0  0  0  0  0  0  0  0  0  0
    1.1988   -0.6870   -0.0000 C   0  0  0  0  0  0  0  0  0  0  0  0
    2.0799   -1.1885    0.0053 H   0  0  0  0  0  0  0  0  0  0  0  0
    1.1921    0.6905   -0.0010 C   0  0  0  0  0  0  0  0  0  0  0  0
    2.0605    1.1919   -0.0051 H   0  0  0  0  0  0  0  0  0  0  0  0
  1  5  1  0
  5  8  1  0
  1  2  1  0
  1  3  1  0
  1  4  1  0
  5  6  1  0
  5  7  1  0
  8  9  1  0
  8 10  1  0
  8 11  1  0
 12 16  1  0
 16 17  2  0
 17 19  1  0
 19 21  2  0
 21 23  1  0
 23 25  2  0
 25 16  1  0
 12 13  1  0
 12 14  1  0
 12 15  1  0
 17 18  1  0
 19 20  1  0
 21 22  1  0
 23 24  1  0
 25 26  1  0
M  CHG  1   8   1
M  END
>  <PDB_ID>  (1582) 
pdb3d7i

>  <RESIDUE_NAME>  (1582) 
LYS   PHE

>  <FRAG_NAME>  (1582) 
ETAM   MBZ

>  <FRAG_ATOM_NUM>  (1582) 
fragi: 11  fragj: 15

>  <atom.prop.CHAIN_ID>  (1582) 
A A A A A A A A A A A Z Z Z Z Z Z Z Z Z Z Z Z Z Z Z

>  <atom.prop.IS_HEAVY_ATOM>  (1582) 
1 0 0 0 1 0 0 1 0 0 0 1 0 0 0 1 1 0 1 0 1 0 1 0 1 0

>  <DIFUSE_FUNC_ATOM>  (1582) 
n/a

>  <FINAL_SINGLE_POINT_ENERGY>  (1582) 
0

>  <NONCOV_INTER_ENERGY_QM>  (1582) 
0

>  <FF_Energy>  (1582) 
-4.7

>  <QM_Energy>  (1582) 
-11.2

>  <source>  (1582) 
ETAM_MBZ

>  <Index>  (1582) 
15908

$$$$
ETAM-pdb3d9i-B-MET-1:MBZ-pdb3d9i-B-PHE-39
     RDKit          3D

 26 25  0  0  0  0  0  0  0  0999 V2000
   -0.9561   -2.9546   -5.0670 C   0  0  0  0  0  0  0  0  0  0  0  0
   -0.0962   -3.0869   -4.5690 H   0  0  0  0  0  0  0  0  0  0  0  0
   -1.4679   -3.8170   -5.0711 H   0  0  0  0  0  0  0  0  0  0  0  0
   -0.7232   -2.6844   -6.0969 H   0  0  0  0  0  0  0  0  0  0  0  0
   -1.7837   -1.8872   -4.3598 C   0  0  0  0  0  0  0  0  0  0  0  0
   -1.1901   -1.0769   -4.2419 H   0  0  0  0  0  0  0  0  0  0  0  0
   -2.6265   -1.6041   -4.9903 H   0  0  0  0  0  0  0  0  0  0  0  0
   -2.1889   -2.3403   -2.9910 N   0  0  0  0  0  4  0  0  0  0  0  0
   -3.0895   -1.9702   -2.7814 H   0  0  0  0  0  0  0  0  0  0  0  0
   -2.2177   -3.3350   -2.9750 H   0  0  0  0  0  0  0  0  0  0  0  0
   -1.5224   -2.0083   -2.3299 H   0  0  0  0  0  0  0  0  0  0  0  0
    0.0031    2.9071    0.0129 C   0  0  0  0  0  0  0  0  0  0  0  0
   -0.8722    3.2197   -0.3091 H   0  0  0  0  0  0  0  0  0  0  0  0
    0.7415    3.2222   -0.5557 H   0  0  0  0  0  0  0  0  0  0  0  0
    0.1556    3.3085    1.0148 H   0  0  0  0  0  0  0  0  0  0  0  0
    0.0016    1.4050   -0.0136 C   0  0  0  0  0  0  0  0  0  0  0  0
   -1.2003    0.6948    0.0092 C   0  0  0  0  0  0  0  0  0  0  0  0
   -2.0644    1.1872    0.0307 H   0  0  0  0  0  0  0  0  0  0  0  0
   -1.2076   -0.6981    0.0000 C   0  0  0  0  0  0  0  0  0  0  0  0
   -2.0815   -1.1925   -0.0059 H   0  0  0  0  0  0  0  0  0  0  0  0
    0.0008   -1.4007    0.0013 C   0  0  0  0  0  0  0  0  0  0  0  0
   -0.0049   -2.3960    0.0024 H   0  0  0  0  0  0  0  0  0  0  0  0
    1.2076   -0.7001    0.0000 C   0  0  0  0  0  0  0  0  0  0  0  0
    2.0864   -1.1935   -0.0017 H   0  0  0  0  0  0  0  0  0  0  0  0
    1.1978    0.6991    0.0031 C   0  0  0  0  0  0  0  0  0  0  0  0
    2.0671    1.1929    0.0166 H   0  0  0  0  0  0  0  0  0  0  0  0
  1  5  1  0
  5  8  1  0
  1  2  1  0
  1  3  1  0
  1  4  1  0
  5  6  1  0
  5  7  1  0
  8  9  1  0
  8 10  1  0
  8 11  1  0
 12 16  1  0
 16 17  2  0
 17 19  1  0
 19 21  2  0
 21 23  1  0
 23 25  2  0
 25 16  1  0
 12 13  1  0
 12 14  1  0
 12 15  1  0
 17 18  1  0
 19 20  1  0
 21 22  1  0
 23 24  1  0
 25 26  1  0
M  CHG  1   8   1
M  END
>  <PDB_ID>  (1583) 
pdb3d9i

>  <RESIDUE_NAME>  (1583) 
MET   PHE

>  <FRAG_NAME>  (1583) 
ETAM   MBZ

>  <FRAG_ATOM_NUM>  (1583) 
fragi: 11  fragj: 15

>  <atom.prop.CHAIN_ID>  (1583) 
A A A A A A A A A A A Z Z Z Z Z Z Z Z Z Z Z Z Z Z Z

>  <atom.prop.IS_HEAVY_ATOM>  (1583) 
1 0 0 0 1 0 0 1 0 0 0 1 0 0 0 1 1 0 1 0 1 0 1 0 1 0

>  <DIFUSE_FUNC_ATOM>  (1583) 
n/a

>  <FINAL_SINGLE_POINT_ENERGY>  (1583) 
0

>  <NONCOV_INTER_ENERGY_QM>  (1583) 
0

>  <FF_Energy>  (1583) 
-2.72

>  <QM_Energy>  (1583) 
-9.13

>  <source>  (1583) 
ETAM_MBZ

>  <Index>  (1583) 
15932

$$$$
ETAM-pdb3d6n-B-LYS-29:MBZ-pdb3d6n-B-PHE-25
     RDKit          3D

 26 25  0  0  0  0  0  0  0  0999 V2000
   -1.8477   -1.1674   -3.2238 C   0  0  0  0  0  0  0  0  0  0  0  0
   -1.4312   -0.5023   -2.5793 H   0  0  0  0  0  0  0  0  0  0  0  0
   -2.2395   -1.9188   -2.6647 H   0  0  0  0  0  0  0  0  0  0  0  0
   -2.6578   -0.6721   -3.7589 H   0  0  0  0  0  0  0  0  0  0  0  0
   -0.7063   -1.7677   -4.0756 C   0  0  0  0  0  0  0  0  0  0  0  0
   -0.6493   -2.7404   -3.9274 H   0  0  0  0  0  0  0  0  0  0  0  0
   -0.8424   -1.5491   -5.0269 H   0  0  0  0  0  0  0  0  0  0  0  0
    0.6977   -1.1484   -3.6526 N   0  0  0  0  0  4  0  0  0  0  0  0
    0.8227   -1.3628   -2.7007 H   0  0  0  0  0  0  0  0  0  0  0  0
    1.3751   -1.5755   -4.2229 H   0  0  0  0  0  0  0  0  0  0  0  0
    0.6349   -0.1796   -3.8107 H   0  0  0  0  0  0  0  0  0  0  0  0
   -0.0292    2.8900    0.0035 C   0  0  0  0  0  0  0  0  0  0  0  0
    0.8981    3.2176   -0.0709 H   0  0  0  0  0  0  0  0  0  0  0  0
   -0.4591    3.1952    0.8367 H   0  0  0  0  0  0  0  0  0  0  0  0
   -0.5919    3.3144   -0.8280 H   0  0  0  0  0  0  0  0  0  0  0  0
   -0.0052    1.3933    0.0042 C   0  0  0  0  0  0  0  0  0  0  0  0
   -1.1859    0.6764    0.0076 C   0  0  0  0  0  0  0  0  0  0  0  0
   -2.0626    1.1596    0.0141 H   0  0  0  0  0  0  0  0  0  0  0  0
   -1.1879   -0.7150   -0.0000 C   0  0  0  0  0  0  0  0  0  0  0  0
   -2.0645   -1.2069    0.0005 H   0  0  0  0  0  0  0  0  0  0  0  0
    0.0068   -1.3896   -0.0066 C   0  0  0  0  0  0  0  0  0  0  0  0
    0.0202   -2.3905   -0.0169 H   0  0  0  0  0  0  0  0  0  0  0  0
    1.1879   -0.6790    0.0000 C   0  0  0  0  0  0  0  0  0  0  0  0
    2.0830   -1.1690    0.0107 H   0  0  0  0  0  0  0  0  0  0  0  0
    1.1842    0.7140   -0.0053 C   0  0  0  0  0  0  0  0  0  0  0  0
    2.0513    1.2056   -0.0172 H   0  0  0  0  0  0  0  0  0  0  0  0
  1  5  1  0
  5  8  1  0
  1  2  1  0
  1  3  1  0
  1  4  1  0
  5  6  1  0
  5  7  1  0
  8  9  1  0
  8 10  1  0
  8 11  1  0
 12 16  1  0
 16 17  2  0
 17 19  1  0
 19 21  2  0
 21 23  1  0
 23 25  2  0
 25 16  1  0
 12 13  1  0
 12 14  1  0
 12 15  1  0
 17 18  1  0
 19 20  1  0
 21 22  1  0
 23 24  1  0
 25 26  1  0
M  CHG  1   8   1
M  END
>  <PDB_ID>  (1584) 
pdb3d6n

>  <RESIDUE_NAME>  (1584) 
LYS   PHE

>  <FRAG_NAME>  (1584) 
ETAM   MBZ

>  <FRAG_ATOM_NUM>  (1584) 
fragi: 11  fragj: 15

>  <atom.prop.CHAIN_ID>  (1584) 
A A A A A A A A A A A Z Z Z Z Z Z Z Z Z Z Z Z Z Z Z

>  <atom.prop.IS_HEAVY_ATOM>  (1584) 
1 0 0 0 1 0 0 1 0 0 0 1 0 0 0 1 1 0 1 0 1 0 1 0 1 0

>  <DIFUSE_FUNC_ATOM>  (1584) 
n/a

>  <FINAL_SINGLE_POINT_ENERGY>  (1584) 
0

>  <NONCOV_INTER_ENERGY_QM>  (1584) 
0

>  <FF_Energy>  (1584) 
-5.76

>  <QM_Energy>  (1584) 
-11.65

>  <source>  (1584) 
ETAM_MBZ

>  <Index>  (1584) 
15953

$$$$
ETAM-pdb3dad-A-LYS-150:MBZ-pdb3dad-A-PHE-190
     RDKit          3D

 26 25  0  0  0  0  0  0  0  0999 V2000
    3.0816   -1.2489   -4.0192 C   0  0  0  0  0  0  0  0  0  0  0  0
    3.8593   -1.7728   -4.3659 H   0  0  0  0  0  0  0  0  0  0  0  0
    2.9881   -0.4024   -4.5411 H   0  0  0  0  0  0  0  0  0  0  0  0
    2.1778   -1.8415   -4.1606 H   0  0  0  0  0  0  0  0  0  0  0  0
    3.3468   -0.8932   -2.5574 C   0  0  0  0  0  0  0  0  0  0  0  0
    4.2097   -0.3740   -2.5041 H   0  0  0  0  0  0  0  0  0  0  0  0
    2.6015   -0.2977   -2.2311 H   0  0  0  0  0  0  0  0  0  0  0  0
    3.4396   -2.0874   -1.6759 N   0  0  0  0  0  4  0  0  0  0  0  0
    3.5795   -2.9035   -2.2361 H   0  0  0  0  0  0  0  0  0  0  0  0
    4.2097   -1.9775   -1.0482 H   0  0  0  0  0  0  0  0  0  0  0  0
    2.5926   -2.1812   -1.1536 H   0  0  0  0  0  0  0  0  0  0  0  0
   -0.0038    2.9036    0.0466 C   0  0  0  0  0  0  0  0  0  0  0  0
   -0.9398    3.2129   -0.0228 H   0  0  0  0  0  0  0  0  0  0  0  0
    0.5439    3.2367   -0.7048 H   0  0  0  0  0  0  0  0  0  0  0  0
    0.4123    3.3159    0.9659 H   0  0  0  0  0  0  0  0  0  0  0  0
   -0.0003    1.4040    0.0009 C   0  0  0  0  0  0  0  0  0  0  0  0
   -1.2013    0.6951   -0.0011 C   0  0  0  0  0  0  0  0  0  0  0  0
   -2.0661    1.1859   -0.0043 H   0  0  0  0  0  0  0  0  0  0  0  0
   -1.2102   -0.7007    0.0000 C   0  0  0  0  0  0  0  0  0  0  0  0
   -2.0819   -1.1938    0.0006 H   0  0  0  0  0  0  0  0  0  0  0  0
    0.0011   -1.4008    0.0018 C   0  0  0  0  0  0  0  0  0  0  0  0
   -0.0014   -2.3952    0.0037 H   0  0  0  0  0  0  0  0  0  0  0  0
    1.2102   -0.6963    0.0000 C   0  0  0  0  0  0  0  0  0  0  0  0
    2.0879   -1.1922    0.0015 H   0  0  0  0  0  0  0  0  0  0  0  0
    1.2005    0.6988   -0.0015 C   0  0  0  0  0  0  0  0  0  0  0  0
    2.0667    1.1967   -0.0051 H   0  0  0  0  0  0  0  0  0  0  0  0
  1  5  1  0
  5  8  1  0
  1  2  1  0
  1  3  1  0
  1  4  1  0
  5  6  1  0
  5  7  1  0
  8  9  1  0
  8 10  1  0
  8 11  1  0
 12 16  1  0
 16 17  2  0
 17 19  1  0
 19 21  2  0
 21 23  1  0
 23 25  2  0
 25 16  1  0
 12 13  1  0
 12 14  1  0
 12 15  1  0
 17 18  1  0
 19 20  1  0
 21 22  1  0
 23 24  1  0
 25 26  1  0
M  CHG  1   8   1
M  END
>  <PDB_ID>  (1585) 
pdb3dad

>  <RESIDUE_NAME>  (1585) 
LYS   PHE

>  <FRAG_NAME>  (1585) 
ETAM   MBZ

>  <FRAG_ATOM_NUM>  (1585) 
fragi: 11  fragj: 15

>  <atom.prop.CHAIN_ID>  (1585) 
A A A A A A A A A A A Z Z Z Z Z Z Z Z Z Z Z Z Z Z Z

>  <atom.prop.IS_HEAVY_ATOM>  (1585) 
1 0 0 0 1 0 0 1 0 0 0 1 0 0 0 1 1 0 1 0 1 0 1 0 1 0

>  <DIFUSE_FUNC_ATOM>  (1585) 
n/a

>  <FINAL_SINGLE_POINT_ENERGY>  (1585) 
0

>  <NONCOV_INTER_ENERGY_QM>  (1585) 
0

>  <FF_Energy>  (1585) 
3.83

>  <QM_Energy>  (1585) 
-4.13

>  <source>  (1585) 
ETAM_MBZ

>  <Index>  (1585) 
15965

$$$$
ETAM-pdb3dad-B-LYS-150:MBZ-pdb3dad-B-PHE-190
     RDKit          3D

 26 25  0  0  0  0  0  0  0  0999 V2000
    3.7061   -1.1363   -2.7775 C   0  0  0  0  0  0  0  0  0  0  0  0
    3.6236   -1.7028   -1.9660 H   0  0  0  0  0  0  0  0  0  0  0  0
    4.6070   -1.2355   -3.1834 H   0  0  0  0  0  0  0  0  0  0  0  0
    2.9554   -1.4494   -3.5032 H   0  0  0  0  0  0  0  0  0  0  0  0
    3.5196    0.3291   -2.3661 C   0  0  0  0  0  0  0  0  0  0  0  0
    3.6557    0.9089   -3.1783 H   0  0  0  0  0  0  0  0  0  0  0  0
    2.5731    0.4533   -2.0434 H   0  0  0  0  0  0  0  0  0  0  0  0
    4.4630    0.7572   -1.2940 N   0  0  0  0  0  4  0  0  0  0  0  0
    4.0782    0.5235   -0.4024 H   0  0  0  0  0  0  0  0  0  0  0  0
    5.3369    0.2879   -1.4164 H   0  0  0  0  0  0  0  0  0  0  0  0
    4.6013    1.7446   -1.3510 H   0  0  0  0  0  0  0  0  0  0  0  0
   -0.0034    2.9291   -0.0511 C   0  0  0  0  0  0  0  0  0  0  0  0
   -0.9353    3.2247   -0.1967 H   0  0  0  0  0  0  0  0  0  0  0  0
    0.5836    3.2103   -0.7952 H   0  0  0  0  0  0  0  0  0  0  0  0
    0.3596    3.4084    0.8581 H   0  0  0  0  0  0  0  0  0  0  0  0
    0.0012    1.4150   -0.0030 C   0  0  0  0  0  0  0  0  0  0  0  0
   -1.2007    0.6973    0.0022 C   0  0  0  0  0  0  0  0  0  0  0  0
   -2.0680    1.1821    0.0059 H   0  0  0  0  0  0  0  0  0  0  0  0
   -1.2083   -0.7116   -0.0000 C   0  0  0  0  0  0  0  0  0  0  0  0
   -2.0833   -1.1974   -0.0008 H   0  0  0  0  0  0  0  0  0  0  0  0
   -0.0008   -1.4090    0.0002 C   0  0  0  0  0  0  0  0  0  0  0  0
    0.0031   -2.4020   -0.0002 H   0  0  0  0  0  0  0  0  0  0  0  0
    1.2083   -0.6974    0.0000 C   0  0  0  0  0  0  0  0  0  0  0  0
    2.0889   -1.1910    0.0009 H   0  0  0  0  0  0  0  0  0  0  0  0
    1.2003    0.7056    0.0006 C   0  0  0  0  0  0  0  0  0  0  0  0
    2.0690    1.1983    0.0027 H   0  0  0  0  0  0  0  0  0  0  0  0
  1  5  1  0
  5  8  1  0
  1  2  1  0
  1  3  1  0
  1  4  1  0
  5  6  1  0
  5  7  1  0
  8  9  1  0
  8 10  1  0
  8 11  1  0
 12 16  1  0
 16 17  2  0
 17 19  1  0
 19 21  2  0
 21 23  1  0
 23 25  2  0
 25 16  1  0
 12 13  1  0
 12 14  1  0
 12 15  1  0
 17 18  1  0
 19 20  1  0
 21 22  1  0
 23 24  1  0
 25 26  1  0
M  CHG  1   8   1
M  END
>  <PDB_ID>  (1586) 
pdb3dad

>  <RESIDUE_NAME>  (1586) 
LYS   PHE

>  <FRAG_NAME>  (1586) 
ETAM   MBZ

>  <FRAG_ATOM_NUM>  (1586) 
fragi: 11  fragj: 15

>  <atom.prop.CHAIN_ID>  (1586) 
A A A A A A A A A A A Z Z Z Z Z Z Z Z Z Z Z Z Z Z Z

>  <atom.prop.IS_HEAVY_ATOM>  (1586) 
1 0 0 0 1 0 0 1 0 0 0 1 0 0 0 1 1 0 1 0 1 0 1 0 1 0

>  <DIFUSE_FUNC_ATOM>  (1586) 
n/a

>  <FINAL_SINGLE_POINT_ENERGY>  (1586) 
0

>  <NONCOV_INTER_ENERGY_QM>  (1586) 
0

>  <FF_Energy>  (1586) 
1.3

>  <QM_Energy>  (1586) 
-4.61

>  <source>  (1586) 
ETAM_MBZ

>  <Index>  (1586) 
15966

$$$$
ETAM-pdb1zkl-A-LYS-379:MBZ-pdb1zkl-A-PHE-159
     RDKit          3D

 26 25  0  0  0  0  0  0  0  0999 V2000
   -3.6865   -3.2559    2.1506 C   0  0  0  0  0  0  0  0  0  0  0  0
   -2.8203   -3.3128    1.6708 H   0  0  0  0  0  0  0  0  0  0  0  0
   -4.4425   -3.4511    1.5398 H   0  0  0  0  0  0  0  0  0  0  0  0
   -3.6900   -3.9781    2.9670 H   0  0  0  0  0  0  0  0  0  0  0  0
   -3.8516   -1.8306    2.6809 C   0  0  0  0  0  0  0  0  0  0  0  0
   -4.5705   -1.8268    3.3772 H   0  0  0  0  0  0  0  0  0  0  0  0
   -2.9890   -1.5379    3.0948 H   0  0  0  0  0  0  0  0  0  0  0  0
   -4.2203   -0.8776    1.5893 N   0  0  0  0  0  4  0  0  0  0  0  0
   -3.3883   -0.5551    1.1411 H   0  0  0  0  0  0  0  0  0  0  0  0
   -4.8006   -1.3466    0.9260 H   0  0  0  0  0  0  0  0  0  0  0  0
   -4.7145   -0.1042    1.9826 H   0  0  0  0  0  0  0  0  0  0  0  0
    0.0026    2.9071   -0.0174 C   0  0  0  0  0  0  0  0  0  0  0  0
    0.9355    3.2140    0.0836 H   0  0  0  0  0  0  0  0  0  0  0  0
   -0.5653    3.2216    0.7260 H   0  0  0  0  0  0  0  0  0  0  0  0
   -0.3909    3.3319   -0.9409 H   0  0  0  0  0  0  0  0  0  0  0  0
    0.0018    1.4034   -0.0003 C   0  0  0  0  0  0  0  0  0  0  0  0
   -1.1977    0.6949   -0.0005 C   0  0  0  0  0  0  0  0  0  0  0  0
   -2.0628    1.1846   -0.0025 H   0  0  0  0  0  0  0  0  0  0  0  0
   -1.2026   -0.6993    0.0000 C   0  0  0  0  0  0  0  0  0  0  0  0
   -2.0796   -1.1913    0.0014 H   0  0  0  0  0  0  0  0  0  0  0  0
   -0.0017   -1.3955    0.0002 C   0  0  0  0  0  0  0  0  0  0  0  0
   -0.0041   -2.3941    0.0001 H   0  0  0  0  0  0  0  0  0  0  0  0
    1.2026   -0.6992   -0.0000 C   0  0  0  0  0  0  0  0  0  0  0  0
    2.0824   -1.1958    0.0005 H   0  0  0  0  0  0  0  0  0  0  0  0
    1.1976    0.6957    0.0005 C   0  0  0  0  0  0  0  0  0  0  0  0
    2.0669    1.1898    0.0008 H   0  0  0  0  0  0  0  0  0  0  0  0
  1  5  1  0
  5  8  1  0
  1  2  1  0
  1  3  1  0
  1  4  1  0
  5  6  1  0
  5  7  1  0
  8  9  1  0
  8 10  1  0
  8 11  1  0
 12 16  1  0
 16 17  2  0
 17 19  1  0
 19 21  2  0
 21 23  1  0
 23 25  2  0
 25 16  1  0
 12 13  1  0
 12 14  1  0
 12 15  1  0
 17 18  1  0
 19 20  1  0
 21 22  1  0
 23 24  1  0
 25 26  1  0
M  CHG  1   8   1
M  END
>  <PDB_ID>  (1587) 
pdb1zkl

>  <RESIDUE_NAME>  (1587) 
LYS   PHE

>  <FRAG_NAME>  (1587) 
ETAM   MBZ

>  <FRAG_ATOM_NUM>  (1587) 
fragi: 11  fragj: 15

>  <atom.prop.CHAIN_ID>  (1587) 
A A A A A A A A A A A Z Z Z Z Z Z Z Z Z Z Z Z Z Z Z

>  <atom.prop.IS_HEAVY_ATOM>  (1587) 
1 0 0 0 1 0 0 1 0 0 0 1 0 0 0 1 1 0 1 0 1 0 1 0 1 0

>  <DIFUSE_FUNC_ATOM>  (1587) 
n/a

>  <FINAL_SINGLE_POINT_ENERGY>  (1587) 
0

>  <NONCOV_INTER_ENERGY_QM>  (1587) 
0

>  <FF_Energy>  (1587) 
0.07

>  <QM_Energy>  (1587) 
-5.89

>  <source>  (1587) 
ETAM_MBZ

>  <Index>  (1587) 
15984

$$$$
ETAM-pdb1z7d-F-LYS-366:MBZ-pdb1z7d-F-PHE-408
     RDKit          3D

 26 25  0  0  0  0  0  0  0  0999 V2000
    1.3208   -0.3788   -4.1096 C   0  0  0  0  0  0  0  0  0  0  0  0
    0.3900   -0.5880   -3.7829 H   0  0  0  0  0  0  0  0  0  0  0  0
    1.4270   -0.7732   -5.0312 H   0  0  0  0  0  0  0  0  0  0  0  0
    1.4299    0.7035   -4.1792 H   0  0  0  0  0  0  0  0  0  0  0  0
    2.3309   -1.1401   -3.1569 C   0  0  0  0  0  0  0  0  0  0  0  0
    3.2280   -1.1839   -3.6087 H   0  0  0  0  0  0  0  0  0  0  0  0
    2.4278   -0.6149   -2.3050 H   0  0  0  0  0  0  0  0  0  0  0  0
    1.9334   -2.6258   -2.7534 N   0  0  0  0  0  4  0  0  0  0  0  0
    1.4738   -2.5668   -1.8855 H   0  0  0  0  0  0  0  0  0  0  0  0
    1.3414   -2.9611   -3.4651 H   0  0  0  0  0  0  0  0  0  0  0  0
    2.7721   -3.1352   -2.6963 H   0  0  0  0  0  0  0  0  0  0  0  0
   -0.0019    2.9252    0.0063 C   0  0  0  0  0  0  0  0  0  0  0  0
   -0.7126    3.2281   -0.6066 H   0  0  0  0  0  0  0  0  0  0  0  0
    0.8885    3.2310   -0.2874 H   0  0  0  0  0  0  0  0  0  0  0  0
   -0.1985    3.3613    0.9858 H   0  0  0  0  0  0  0  0  0  0  0  0
    0.0030    1.4067   -0.0007 C   0  0  0  0  0  0  0  0  0  0  0  0
   -1.1983    0.6942    0.0048 C   0  0  0  0  0  0  0  0  0  0  0  0
   -2.0629    1.1841    0.0113 H   0  0  0  0  0  0  0  0  0  0  0  0
   -1.2012   -0.6985    0.0000 C   0  0  0  0  0  0  0  0  0  0  0  0
   -2.0792   -1.1917   -0.0022 H   0  0  0  0  0  0  0  0  0  0  0  0
   -0.0006   -1.3984   -0.0005 C   0  0  0  0  0  0  0  0  0  0  0  0
   -0.0070   -2.3963   -0.0019 H   0  0  0  0  0  0  0  0  0  0  0  0
    1.2012   -0.7042   -0.0000 C   0  0  0  0  0  0  0  0  0  0  0  0
    2.0831   -1.1954    0.0046 H   0  0  0  0  0  0  0  0  0  0  0  0
    1.1958    0.7002   -0.0036 C   0  0  0  0  0  0  0  0  0  0  0  0
    2.0673    1.1888   -0.0092 H   0  0  0  0  0  0  0  0  0  0  0  0
  1  5  1  0
  5  8  1  0
  1  2  1  0
  1  3  1  0
  1  4  1  0
  5  6  1  0
  5  7  1  0
  8  9  1  0
  8 10  1  0
  8 11  1  0
 12 16  1  0
 16 17  2  0
 17 19  1  0
 19 21  2  0
 21 23  1  0
 23 25  2  0
 25 16  1  0
 12 13  1  0
 12 14  1  0
 12 15  1  0
 17 18  1  0
 19 20  1  0
 21 22  1  0
 23 24  1  0
 25 26  1  0
M  CHG  1   8   1
M  END
>  <PDB_ID>  (1588) 
pdb1z7d

>  <RESIDUE_NAME>  (1588) 
LYS   PHE

>  <FRAG_NAME>  (1588) 
ETAM   MBZ

>  <FRAG_ATOM_NUM>  (1588) 
fragi: 11  fragj: 15

>  <atom.prop.CHAIN_ID>  (1588) 
A A A A A A A A A A A Z Z Z Z Z Z Z Z Z Z Z Z Z Z Z

>  <atom.prop.IS_HEAVY_ATOM>  (1588) 
1 0 0 0 1 0 0 1 0 0 0 1 0 0 0 1 1 0 1 0 1 0 1 0 1 0

>  <DIFUSE_FUNC_ATOM>  (1588) 
n/a

>  <FINAL_SINGLE_POINT_ENERGY>  (1588) 
0

>  <NONCOV_INTER_ENERGY_QM>  (1588) 
0

>  <FF_Energy>  (1588) 
-2.56

>  <QM_Energy>  (1588) 
-9.63

>  <source>  (1588) 
ETAM_MBZ

>  <Index>  (1588) 
15987

$$$$
ETAM-pdb3daq-C-LYS-177:MBZ-pdb3daq-B-PHE-234
     RDKit          3D

 26 25  0  0  0  0  0  0  0  0999 V2000
    4.0942   -2.8013   -0.5086 C   0  0  0  0  0  0  0  0  0  0  0  0
    3.2185   -2.3226   -0.4995 H   0  0  0  0  0  0  0  0  0  0  0  0
    3.9398   -3.7875   -0.4708 H   0  0  0  0  0  0  0  0  0  0  0  0
    4.5971   -2.5714   -1.4480 H   0  0  0  0  0  0  0  0  0  0  0  0
    4.8993   -2.3824    0.6998 C   0  0  0  0  0  0  0  0  0  0  0  0
    5.7772   -2.8593    0.6905 H   0  0  0  0  0  0  0  0  0  0  0  0
    5.0558   -1.3954    0.6628 H   0  0  0  0  0  0  0  0  0  0  0  0
    4.1727   -2.7158    1.9451 N   0  0  0  0  0  4  0  0  0  0  0  0
    4.1899   -3.7063    2.0895 H   0  0  0  0  0  0  0  0  0  0  0  0
    4.6112   -2.2602    2.7219 H   0  0  0  0  0  0  0  0  0  0  0  0
    3.2230   -2.4077    1.8730 H   0  0  0  0  0  0  0  0  0  0  0  0
   -0.0119    2.8970    0.0358 C   0  0  0  0  0  0  0  0  0  0  0  0
   -0.7603    3.2146   -0.5219 H   0  0  0  0  0  0  0  0  0  0  0  0
    0.8577    3.2200   -0.2997 H   0  0  0  0  0  0  0  0  0  0  0  0
   -0.1511    3.3018    1.0382 H   0  0  0  0  0  0  0  0  0  0  0  0
   -0.0021    1.3988    0.0002 C   0  0  0  0  0  0  0  0  0  0  0  0
   -1.1896    0.6916    0.0048 C   0  0  0  0  0  0  0  0  0  0  0  0
   -2.0608    1.1836    0.0100 H   0  0  0  0  0  0  0  0  0  0  0  0
   -1.1979   -0.6925   -0.0000 C   0  0  0  0  0  0  0  0  0  0  0  0
   -2.0780   -1.1857    0.0011 H   0  0  0  0  0  0  0  0  0  0  0  0
   -0.0031   -1.3913   -0.0046 C   0  0  0  0  0  0  0  0  0  0  0  0
   -0.0076   -2.3891   -0.0118 H   0  0  0  0  0  0  0  0  0  0  0  0
    1.1979   -0.6964   -0.0000 C   0  0  0  0  0  0  0  0  0  0  0  0
    2.0781   -1.1971    0.0052 H   0  0  0  0  0  0  0  0  0  0  0  0
    1.1949    0.6898   -0.0004 C   0  0  0  0  0  0  0  0  0  0  0  0
    2.0618    1.1880   -0.0019 H   0  0  0  0  0  0  0  0  0  0  0  0
  1  5  1  0
  5  8  1  0
  1  2  1  0
  1  3  1  0
  1  4  1  0
  5  6  1  0
  5  7  1  0
  8  9  1  0
  8 10  1  0
  8 11  1  0
 12 16  1  0
 16 17  2  0
 17 19  1  0
 19 21  2  0
 21 23  1  0
 23 25  2  0
 25 16  1  0
 12 13  1  0
 12 14  1  0
 12 15  1  0
 17 18  1  0
 19 20  1  0
 21 22  1  0
 23 24  1  0
 25 26  1  0
M  CHG  1   8   1
M  END
>  <PDB_ID>  (1589) 
pdb3daq

>  <RESIDUE_NAME>  (1589) 
LYS   PHE

>  <FRAG_NAME>  (1589) 
ETAM   MBZ

>  <FRAG_ATOM_NUM>  (1589) 
fragi: 11  fragj: 15

>  <atom.prop.CHAIN_ID>  (1589) 
A A A A A A A A A A A Z Z Z Z Z Z Z Z Z Z Z Z Z Z Z

>  <atom.prop.IS_HEAVY_ATOM>  (1589) 
1 0 0 0 1 0 0 1 0 0 0 1 0 0 0 1 1 0 1 0 1 0 1 0 1 0

>  <DIFUSE_FUNC_ATOM>  (1589) 
n/a

>  <FINAL_SINGLE_POINT_ENERGY>  (1589) 
0

>  <NONCOV_INTER_ENERGY_QM>  (1589) 
0

>  <FF_Energy>  (1589) 
7.82

>  <QM_Energy>  (1589) 
-1.6

>  <source>  (1589) 
ETAM_MBZ

>  <Index>  (1589) 
15989

$$$$
ETAM-pdb1zmf-A-LYS-212:MBZ-pdb1zmf-A-PHE-182
     RDKit          3D

 26 25  0  0  0  0  0  0  0  0999 V2000
   -0.6393   -1.2958   -4.2317 C   0  0  0  0  0  0  0  0  0  0  0  0
   -0.2405   -2.1408   -3.9181 H   0  0  0  0  0  0  0  0  0  0  0  0
   -0.6283   -1.2256   -5.2135 H   0  0  0  0  0  0  0  0  0  0  0  0
   -1.6849   -1.3037   -3.9240 H   0  0  0  0  0  0  0  0  0  0  0  0
    0.1005   -0.1161   -3.6203 C   0  0  0  0  0  0  0  0  0  0  0  0
   -0.1214    0.7145   -4.1218 H   0  0  0  0  0  0  0  0  0  0  0  0
   -0.1558   -0.0197   -2.6630 H   0  0  0  0  0  0  0  0  0  0  0  0
    1.6125   -0.3280   -3.6913 N   0  0  0  0  0  4  0  0  0  0  0  0
    1.7904   -1.1089   -4.2783 H   0  0  0  0  0  0  0  0  0  0  0  0
    2.0249    0.4937   -4.0674 H   0  0  0  0  0  0  0  0  0  0  0  0
    1.9468   -0.4982   -2.7715 H   0  0  0  0  0  0  0  0  0  0  0  0
    0.0477    2.9644    0.0028 C   0  0  0  0  0  0  0  0  0  0  0  0
   -0.7257    3.2831   -0.5104 H   0  0  0  0  0  0  0  0  0  0  0  0
    0.9029    3.2351   -0.3944 H   0  0  0  0  0  0  0  0  0  0  0  0
   -0.0103    3.4023    0.9993 H   0  0  0  0  0  0  0  0  0  0  0  0
    0.0022    1.4189   -0.0028 C   0  0  0  0  0  0  0  0  0  0  0  0
   -1.2223    0.7138    0.0176 C   0  0  0  0  0  0  0  0  0  0  0  0
   -2.0749    1.2087    0.0427 H   0  0  0  0  0  0  0  0  0  0  0  0
   -1.2328   -0.6930    0.0000 C   0  0  0  0  0  0  0  0  0  0  0  0
   -2.0905   -1.1940   -0.0097 H   0  0  0  0  0  0  0  0  0  0  0  0
    0.0163   -1.4207   -0.0024 C   0  0  0  0  0  0  0  0  0  0  0  0
   -0.0052   -2.4050   -0.0064 H   0  0  0  0  0  0  0  0  0  0  0  0
    1.2328   -0.7125   -0.0000 C   0  0  0  0  0  0  0  0  0  0  0  0
    2.1075   -1.1976    0.0122 H   0  0  0  0  0  0  0  0  0  0  0  0
    1.2038    0.6935   -0.0125 C   0  0  0  0  0  0  0  0  0  0  0  0
    2.0755    1.1953   -0.0303 H   0  0  0  0  0  0  0  0  0  0  0  0
  1  5  1  0
  5  8  1  0
  1  2  1  0
  1  3  1  0
  1  4  1  0
  5  6  1  0
  5  7  1  0
  8  9  1  0
  8 10  1  0
  8 11  1  0
 12 16  1  0
 16 17  2  0
 17 19  1  0
 19 21  2  0
 21 23  1  0
 23 25  2  0
 25 16  1  0
 12 13  1  0
 12 14  1  0
 12 15  1  0
 17 18  1  0
 19 20  1  0
 21 22  1  0
 23 24  1  0
 25 26  1  0
M  CHG  1   8   1
M  END
>  <PDB_ID>  (1590) 
pdb1zmf

>  <RESIDUE_NAME>  (1590) 
LYS   PHE

>  <FRAG_NAME>  (1590) 
ETAM   MBZ

>  <FRAG_ATOM_NUM>  (1590) 
fragi: 11  fragj: 15

>  <atom.prop.CHAIN_ID>  (1590) 
A A A A A A A A A A A Z Z Z Z Z Z Z Z Z Z Z Z Z Z Z

>  <atom.prop.IS_HEAVY_ATOM>  (1590) 
1 0 0 0 1 0 0 1 0 0 0 1 0 0 0 1 1 0 1 0 1 0 1 0 1 0

>  <DIFUSE_FUNC_ATOM>  (1590) 
n/a

>  <FINAL_SINGLE_POINT_ENERGY>  (1590) 
0

>  <NONCOV_INTER_ENERGY_QM>  (1590) 
0

>  <FF_Energy>  (1590) 
-6.37

>  <QM_Energy>  (1590) 
-12.97

>  <source>  (1590) 
ETAM_MBZ

>  <Index>  (1590) 
16009

$$$$
ETAM-pdb3d7l-B-LYS-185:MBZ-pdb3d7l-D-PHE-171
     RDKit          3D

 26 25  0  0  0  0  0  0  0  0999 V2000
    2.6324    0.0414   -4.7176 C   0  0  0  0  0  0  0  0  0  0  0  0
    2.0915    0.7811   -4.3252 H   0  0  0  0  0  0  0  0  0  0  0  0
    2.7232    0.1689   -5.7022 H   0  0  0  0  0  0  0  0  0  0  0  0
    3.6219    0.0367   -4.2606 H   0  0  0  0  0  0  0  0  0  0  0  0
    1.8711   -1.2790   -4.4799 C   0  0  0  0  0  0  0  0  0  0  0  0
    1.0283   -1.2558   -5.0211 H   0  0  0  0  0  0  0  0  0  0  0  0
    2.4465   -2.0338   -4.8015 H   0  0  0  0  0  0  0  0  0  0  0  0
    1.5436   -1.4726   -3.0510 N   0  0  0  0  0  4  0  0  0  0  0  0
    0.8759   -2.2130   -2.9558 H   0  0  0  0  0  0  0  0  0  0  0  0
    2.3741   -1.7083   -2.5449 H   0  0  0  0  0  0  0  0  0  0  0  0
    1.1570   -0.6283   -2.6770 H   0  0  0  0  0  0  0  0  0  0  0  0
   -0.0228    2.9618    0.0708 C   0  0  0  0  0  0  0  0  0  0  0  0
    0.5213    3.2332    0.8501 H   0  0  0  0  0  0  0  0  0  0  0  0
   -0.9646    3.2457    0.1731 H   0  0  0  0  0  0  0  0  0  0  0  0
    0.3817    3.4632   -0.8084 H   0  0  0  0  0  0  0  0  0  0  0  0
   -0.0072    1.4291    0.0095 C   0  0  0  0  0  0  0  0  0  0  0  0
   -1.2119    0.7064    0.0053 C   0  0  0  0  0  0  0  0  0  0  0  0
   -2.0794    1.1894    0.0052 H   0  0  0  0  0  0  0  0  0  0  0  0
   -1.2196   -0.7096    0.0000 C   0  0  0  0  0  0  0  0  0  0  0  0
   -2.0860   -1.2008    0.0054 H   0  0  0  0  0  0  0  0  0  0  0  0
    0.0110   -1.4249   -0.0113 C   0  0  0  0  0  0  0  0  0  0  0  0
    0.0019   -2.4108   -0.0271 H   0  0  0  0  0  0  0  0  0  0  0  0
    1.2196   -0.7104    0.0000 C   0  0  0  0  0  0  0  0  0  0  0  0
    2.1015   -1.1938    0.0120 H   0  0  0  0  0  0  0  0  0  0  0  0
    1.2081    0.7095   -0.0035 C   0  0  0  0  0  0  0  0  0  0  0  0
    2.0714    1.2014   -0.0161 H   0  0  0  0  0  0  0  0  0  0  0  0
  1  5  1  0
  5  8  1  0
  1  2  1  0
  1  3  1  0
  1  4  1  0
  5  6  1  0
  5  7  1  0
  8  9  1  0
  8 10  1  0
  8 11  1  0
 12 16  1  0
 16 17  2  0
 17 19  1  0
 19 21  2  0
 21 23  1  0
 23 25  2  0
 25 16  1  0
 12 13  1  0
 12 14  1  0
 12 15  1  0
 17 18  1  0
 19 20  1  0
 21 22  1  0
 23 24  1  0
 25 26  1  0
M  CHG  1   8   1
M  END
>  <PDB_ID>  (1591) 
pdb3d7l

>  <RESIDUE_NAME>  (1591) 
LYS   PHE

>  <FRAG_NAME>  (1591) 
ETAM   MBZ

>  <FRAG_ATOM_NUM>  (1591) 
fragi: 11  fragj: 15

>  <atom.prop.CHAIN_ID>  (1591) 
A A A A A A A A A A A Z Z Z Z Z Z Z Z Z Z Z Z Z Z Z

>  <atom.prop.IS_HEAVY_ATOM>  (1591) 
1 0 0 0 1 0 0 1 0 0 0 1 0 0 0 1 1 0 1 0 1 0 1 0 1 0

>  <DIFUSE_FUNC_ATOM>  (1591) 
n/a

>  <FINAL_SINGLE_POINT_ENERGY>  (1591) 
0

>  <NONCOV_INTER_ENERGY_QM>  (1591) 
0

>  <FF_Energy>  (1591) 
-4.75

>  <QM_Energy>  (1591) 
-11.94

>  <source>  (1591) 
ETAM_MBZ

>  <Index>  (1591) 
16014

$$$$
ETAM-pdb1zmd-D-LYS-24:MBZ-pdb1zmd-C-PHE-468
     RDKit          3D

 26 25  0  0  0  0  0  0  0  0999 V2000
    1.1348   -2.0523   -4.8826 C   0  0  0  0  0  0  0  0  0  0  0  0
    1.9111   -2.3300   -4.3118 H   0  0  0  0  0  0  0  0  0  0  0  0
    1.4171   -1.2902   -5.4708 H   0  0  0  0  0  0  0  0  0  0  0  0
    0.8308   -2.8928   -5.5064 H   0  0  0  0  0  0  0  0  0  0  0  0
    0.0231   -1.5432   -3.9522 C   0  0  0  0  0  0  0  0  0  0  0  0
   -0.8327   -1.4965   -4.4634 H   0  0  0  0  0  0  0  0  0  0  0  0
   -0.0745   -2.1743   -3.1855 H   0  0  0  0  0  0  0  0  0  0  0  0
    0.3409   -0.1627   -3.4080 N   0  0  0  0  0  4  0  0  0  0  0  0
    0.7064    0.3930   -4.1480 H   0  0  0  0  0  0  0  0  0  0  0  0
   -0.4982    0.2395   -3.0547 H   0  0  0  0  0  0  0  0  0  0  0  0
    1.0132   -0.2557   -2.6806 H   0  0  0  0  0  0  0  0  0  0  0  0
    0.0050    2.9205    0.0218 C   0  0  0  0  0  0  0  0  0  0  0  0
   -0.7506    3.2368   -0.5385 H   0  0  0  0  0  0  0  0  0  0  0  0
    0.8718    3.2294   -0.3515 H   0  0  0  0  0  0  0  0  0  0  0  0
   -0.1059    3.3789    1.0045 H   0  0  0  0  0  0  0  0  0  0  0  0
   -0.0006    1.4060    0.0011 C   0  0  0  0  0  0  0  0  0  0  0  0
   -1.2134    0.6837   -0.0022 C   0  0  0  0  0  0  0  0  0  0  0  0
   -2.0741    1.1803   -0.0075 H   0  0  0  0  0  0  0  0  0  0  0  0
   -1.2192   -0.7078    0.0000 C   0  0  0  0  0  0  0  0  0  0  0  0
   -2.0808   -1.2094    0.0008 H   0  0  0  0  0  0  0  0  0  0  0  0
    0.0076   -1.3991    0.0024 C   0  0  0  0  0  0  0  0  0  0  0  0
    0.0125   -2.3938    0.0051 H   0  0  0  0  0  0  0  0  0  0  0  0
    1.2192   -0.6847   -0.0000 C   0  0  0  0  0  0  0  0  0  0  0  0
    2.0967   -1.1850    0.0005 H   0  0  0  0  0  0  0  0  0  0  0  0
    1.2064    0.7019   -0.0013 C   0  0  0  0  0  0  0  0  0  0  0  0
    2.0682    1.2077   -0.0043 H   0  0  0  0  0  0  0  0  0  0  0  0
  1  5  1  0
  5  8  1  0
  1  2  1  0
  1  3  1  0
  1  4  1  0
  5  6  1  0
  5  7  1  0
  8  9  1  0
  8 10  1  0
  8 11  1  0
 12 16  1  0
 16 17  2  0
 17 19  1  0
 19 21  2  0
 21 23  1  0
 23 25  2  0
 25 16  1  0
 12 13  1  0
 12 14  1  0
 12 15  1  0
 17 18  1  0
 19 20  1  0
 21 22  1  0
 23 24  1  0
 25 26  1  0
M  CHG  1   8   1
M  END
>  <PDB_ID>  (1592) 
pdb1zmd

>  <RESIDUE_NAME>  (1592) 
LYS   PHE

>  <FRAG_NAME>  (1592) 
ETAM   MBZ

>  <FRAG_ATOM_NUM>  (1592) 
fragi: 11  fragj: 15

>  <atom.prop.CHAIN_ID>  (1592) 
A A A A A A A A A A A Z Z Z Z Z Z Z Z Z Z Z Z Z Z Z

>  <atom.prop.IS_HEAVY_ATOM>  (1592) 
1 0 0 0 1 0 0 1 0 0 0 1 0 0 0 1 1 0 1 0 1 0 1 0 1 0

>  <DIFUSE_FUNC_ATOM>  (1592) 
n/a

>  <FINAL_SINGLE_POINT_ENERGY>  (1592) 
0

>  <NONCOV_INTER_ENERGY_QM>  (1592) 
0

>  <FF_Energy>  (1592) 
-8.3

>  <QM_Energy>  (1592) 
-15.3

>  <source>  (1592) 
ETAM_MBZ

>  <Index>  (1592) 
16015

$$$$
ETAM-pdb1zmr-A-LYS-176:MBZ-pdb1zmr-A-PHE-335
     RDKit          3D

 26 25  0  0  0  0  0  0  0  0999 V2000
   -0.3141   -0.1951   -3.7049 C   0  0  0  0  0  0  0  0  0  0  0  0
   -0.7782   -0.8765   -4.2586 H   0  0  0  0  0  0  0  0  0  0  0  0
   -0.3906   -0.4163   -2.7399 H   0  0  0  0  0  0  0  0  0  0  0  0
    0.7401   -0.1729   -3.9815 H   0  0  0  0  0  0  0  0  0  0  0  0
   -0.9742    1.1570   -3.9465 C   0  0  0  0  0  0  0  0  0  0  0  0
   -0.4450    1.8659   -3.4707 H   0  0  0  0  0  0  0  0  0  0  0  0
   -0.9629    1.3530   -4.9317 H   0  0  0  0  0  0  0  0  0  0  0  0
   -2.3839    1.1913   -3.4587 N   0  0  0  0  0  4  0  0  0  0  0  0
   -2.7502    2.1131   -3.5751 H   0  0  0  0  0  0  0  0  0  0  0  0
   -2.9310    0.5426   -3.9859 H   0  0  0  0  0  0  0  0  0  0  0  0
   -2.4041    0.9406   -2.4922 H   0  0  0  0  0  0  0  0  0  0  0  0
   -0.0004    2.9124    0.0090 C   0  0  0  0  0  0  0  0  0  0  0  0
   -0.7008    3.2182   -0.6165 H   0  0  0  0  0  0  0  0  0  0  0  0
    0.8955    3.2188   -0.2707 H   0  0  0  0  0  0  0  0  0  0  0  0
   -0.2122    3.3462    0.9862 H   0  0  0  0  0  0  0  0  0  0  0  0
    0.0011    1.4032    0.0024 C   0  0  0  0  0  0  0  0  0  0  0  0
   -1.1963    0.6939   -0.0004 C   0  0  0  0  0  0  0  0  0  0  0  0
   -2.0636    1.1847   -0.0042 H   0  0  0  0  0  0  0  0  0  0  0  0
   -1.2031   -0.6989   -0.0000 C   0  0  0  0  0  0  0  0  0  0  0  0
   -2.0806   -1.1896    0.0029 H   0  0  0  0  0  0  0  0  0  0  0  0
   -0.0033   -1.3957   -0.0020 C   0  0  0  0  0  0  0  0  0  0  0  0
   -0.0048   -2.3933   -0.0056 H   0  0  0  0  0  0  0  0  0  0  0  0
    1.2031   -0.6973    0.0000 C   0  0  0  0  0  0  0  0  0  0  0  0
    2.0820   -1.1965    0.0034 H   0  0  0  0  0  0  0  0  0  0  0  0
    1.1984    0.6947    0.0001 C   0  0  0  0  0  0  0  0  0  0  0  0
    2.0668    1.1911   -0.0023 H   0  0  0  0  0  0  0  0  0  0  0  0
  1  5  1  0
  5  8  1  0
  1  2  1  0
  1  3  1  0
  1  4  1  0
  5  6  1  0
  5  7  1  0
  8  9  1  0
  8 10  1  0
  8 11  1  0
 12 16  1  0
 16 17  2  0
 17 19  1  0
 19 21  2  0
 21 23  1  0
 23 25  2  0
 25 16  1  0
 12 13  1  0
 12 14  1  0
 12 15  1  0
 17 18  1  0
 19 20  1  0
 21 22  1  0
 23 24  1  0
 25 26  1  0
M  CHG  1   8   1
M  END
>  <PDB_ID>  (1593) 
pdb1zmr

>  <RESIDUE_NAME>  (1593) 
LYS   PHE

>  <FRAG_NAME>  (1593) 
ETAM   MBZ

>  <FRAG_ATOM_NUM>  (1593) 
fragi: 11  fragj: 15

>  <atom.prop.CHAIN_ID>  (1593) 
A A A A A A A A A A A Z Z Z Z Z Z Z Z Z Z Z Z Z Z Z

>  <atom.prop.IS_HEAVY_ATOM>  (1593) 
1 0 0 0 1 0 0 1 0 0 0 1 0 0 0 1 1 0 1 0 1 0 1 0 1 0

>  <DIFUSE_FUNC_ATOM>  (1593) 
n/a

>  <FINAL_SINGLE_POINT_ENERGY>  (1593) 
0

>  <NONCOV_INTER_ENERGY_QM>  (1593) 
0

>  <FF_Energy>  (1593) 
-5.17

>  <QM_Energy>  (1593) 
-10.48

>  <source>  (1593) 
ETAM_MBZ

>  <Index>  (1593) 
16016

$$$$
ETAM-pdb3daq-C-LYS-254:MBZ-pdb3daq-C-PHE-16
     RDKit          3D

 26 25  0  0  0  0  0  0  0  0999 V2000
    5.8283    0.4174   -3.1895 C   0  0  0  0  0  0  0  0  0  0  0  0
    5.6958   -0.5681   -3.2429 H   0  0  0  0  0  0  0  0  0  0  0  0
    6.1802    0.6690   -2.2931 H   0  0  0  0  0  0  0  0  0  0  0  0
    6.5373    0.7288   -3.9566 H   0  0  0  0  0  0  0  0  0  0  0  0
    4.4824    1.0917   -3.3822 C   0  0  0  0  0  0  0  0  0  0  0  0
    4.6248    2.0877   -3.4668 H   0  0  0  0  0  0  0  0  0  0  0  0
    4.0724    0.7640   -4.2458 H   0  0  0  0  0  0  0  0  0  0  0  0
    3.5244    0.8348   -2.2659 N   0  0  0  0  0  4  0  0  0  0  0  0
    3.5936    1.5731   -1.5964 H   0  0  0  0  0  0  0  0  0  0  0  0
    2.5957    0.7974   -2.6316 H   0  0  0  0  0  0  0  0  0  0  0  0
    3.7503   -0.0359   -1.8322 H   0  0  0  0  0  0  0  0  0  0  0  0
    0.0160    2.8934    0.0311 C   0  0  0  0  0  0  0  0  0  0  0  0
    0.9645    3.1884   -0.0123 H   0  0  0  0  0  0  0  0  0  0  0  0
   -0.3980    3.1811    0.8886 H   0  0  0  0  0  0  0  0  0  0  0  0
   -0.5229    3.3819   -0.7808 H   0  0  0  0  0  0  0  0  0  0  0  0
   -0.0038    1.3953   -0.0101 C   0  0  0  0  0  0  0  0  0  0  0  0
   -1.1985    0.6916    0.0081 C   0  0  0  0  0  0  0  0  0  0  0  0
   -2.0640    1.1780    0.0259 H   0  0  0  0  0  0  0  0  0  0  0  0
   -1.1946   -0.6961   -0.0000 C   0  0  0  0  0  0  0  0  0  0  0  0
   -2.0662   -1.1979    0.0004 H   0  0  0  0  0  0  0  0  0  0  0  0
    0.0136   -1.3839   -0.0062 C   0  0  0  0  0  0  0  0  0  0  0  0
    0.0075   -2.3858   -0.0160 H   0  0  0  0  0  0  0  0  0  0  0  0
    1.1946   -0.6890    0.0000 C   0  0  0  0  0  0  0  0  0  0  0  0
    2.0848   -1.1888    0.0003 H   0  0  0  0  0  0  0  0  0  0  0  0
    1.1887    0.6820    0.0081 C   0  0  0  0  0  0  0  0  0  0  0  0
    2.0579    1.1873    0.0267 H   0  0  0  0  0  0  0  0  0  0  0  0
  1  5  1  0
  5  8  1  0
  1  2  1  0
  1  3  1  0
  1  4  1  0
  5  6  1  0
  5  7  1  0
  8  9  1  0
  8 10  1  0
  8 11  1  0
 12 16  1  0
 16 17  2  0
 17 19  1  0
 19 21  2  0
 21 23  1  0
 23 25  2  0
 25 16  1  0
 12 13  1  0
 12 14  1  0
 12 15  1  0
 17 18  1  0
 19 20  1  0
 21 22  1  0
 23 24  1  0
 25 26  1  0
M  CHG  1   8   1
M  END
>  <PDB_ID>  (1594) 
pdb3daq

>  <RESIDUE_NAME>  (1594) 
LYS   PHE

>  <FRAG_NAME>  (1594) 
ETAM   MBZ

>  <FRAG_ATOM_NUM>  (1594) 
fragi: 11  fragj: 15

>  <atom.prop.CHAIN_ID>  (1594) 
A A A A A A A A A A A Z Z Z Z Z Z Z Z Z Z Z Z Z Z Z

>  <atom.prop.IS_HEAVY_ATOM>  (1594) 
1 0 0 0 1 0 0 1 0 0 0 1 0 0 0 1 1 0 1 0 1 0 1 0 1 0

>  <DIFUSE_FUNC_ATOM>  (1594) 
n/a

>  <FINAL_SINGLE_POINT_ENERGY>  (1594) 
0

>  <NONCOV_INTER_ENERGY_QM>  (1594) 
0

>  <FF_Energy>  (1594) 
-1.08

>  <QM_Energy>  (1594) 
-6.45

>  <source>  (1594) 
ETAM_MBZ

>  <Index>  (1594) 
16043

$$$$
ETAM-pdb1zr3-C-LYS-248:MBZ-pdb1zr3-B-PHE-183
     RDKit          3D

 26 25  0  0  0  0  0  0  0  0999 V2000
    3.1209   -0.4580   -2.4782 C   0  0  0  0  0  0  0  0  0  0  0  0
    3.3649   -0.7709   -3.3895 H   0  0  0  0  0  0  0  0  0  0  0  0
    2.1648   -0.6495   -2.2888 H   0  0  0  0  0  0  0  0  0  0  0  0
    3.7365   -0.9859   -1.7498 H   0  0  0  0  0  0  0  0  0  0  0  0
    3.3387    1.0475   -2.4058 C   0  0  0  0  0  0  0  0  0  0  0  0
    2.8475    1.4017   -1.6125 H   0  0  0  0  0  0  0  0  0  0  0  0
    4.3160    1.2220   -2.3027 H   0  0  0  0  0  0  0  0  0  0  0  0
    2.8424    1.6802   -3.6265 N   0  0  0  0  0  4  0  0  0  0  0  0
    2.5530    2.6225   -3.4338 H   0  0  0  0  0  0  0  0  0  0  0  0
    3.5647    1.6986   -4.3230 H   0  0  0  0  0  0  0  0  0  0  0  0
    2.0573    1.1674   -3.9861 H   0  0  0  0  0  0  0  0  0  0  0  0
   -0.0316    2.8794   -0.0145 C   0  0  0  0  0  0  0  0  0  0  0  0
   -0.8880    3.1718   -0.4085 H   0  0  0  0  0  0  0  0  0  0  0  0
    0.7385    3.1975   -0.5436 H   0  0  0  0  0  0  0  0  0  0  0  0
    0.0446    3.3071    0.9852 H   0  0  0  0  0  0  0  0  0  0  0  0
   -0.0082    1.3843   -0.0137 C   0  0  0  0  0  0  0  0  0  0  0  0
   -1.1686    0.6759    0.0201 C   0  0  0  0  0  0  0  0  0  0  0  0
   -2.0477    1.1689    0.0596 H   0  0  0  0  0  0  0  0  0  0  0  0
   -1.1539   -0.6621   -0.0000 C   0  0  0  0  0  0  0  0  0  0  0  0
   -2.0555   -1.1708   -0.0157 H   0  0  0  0  0  0  0  0  0  0  0  0
   -0.0046   -1.3580    0.0008 C   0  0  0  0  0  0  0  0  0  0  0  0
   -0.0367   -2.3747    0.0016 H   0  0  0  0  0  0  0  0  0  0  0  0
    1.1539   -0.7159    0.0000 C   0  0  0  0  0  0  0  0  0  0  0  0
    2.0506   -1.2119    0.0062 H   0  0  0  0  0  0  0  0  0  0  0  0
    1.1815    0.6759   -0.0072 C   0  0  0  0  0  0  0  0  0  0  0  0
    2.0511    1.1543   -0.0089 H   0  0  0  0  0  0  0  0  0  0  0  0
  1  5  1  0
  5  8  1  0
  1  2  1  0
  1  3  1  0
  1  4  1  0
  5  6  1  0
  5  7  1  0
  8  9  1  0
  8 10  1  0
  8 11  1  0
 12 16  1  0
 16 17  2  0
 17 19  1  0
 19 21  2  0
 21 23  1  0
 23 25  2  0
 25 16  1  0
 12 13  1  0
 12 14  1  0
 12 15  1  0
 17 18  1  0
 19 20  1  0
 21 22  1  0
 23 24  1  0
 25 26  1  0
M  CHG  1   8   1
M  END
>  <PDB_ID>  (1595) 
pdb1zr3

>  <RESIDUE_NAME>  (1595) 
LYS   PHE

>  <FRAG_NAME>  (1595) 
ETAM   MBZ

>  <FRAG_ATOM_NUM>  (1595) 
fragi: 11  fragj: 15

>  <atom.prop.CHAIN_ID>  (1595) 
A A A A A A A A A A A Z Z Z Z Z Z Z Z Z Z Z Z Z Z Z

>  <atom.prop.IS_HEAVY_ATOM>  (1595) 
1 0 0 0 1 0 0 1 0 0 0 1 0 0 0 1 1 0 1 0 1 0 1 0 1 0

>  <DIFUSE_FUNC_ATOM>  (1595) 
n/a

>  <FINAL_SINGLE_POINT_ENERGY>  (1595) 
0

>  <NONCOV_INTER_ENERGY_QM>  (1595) 
0

>  <FF_Energy>  (1595) 
4.1

>  <QM_Energy>  (1595) 
-2.82

>  <source>  (1595) 
ETAM_MBZ

>  <Index>  (1595) 
16075

$$$$
ETAM-pdb3df6-C-LYS-71:MBZ-pdb3df6-C-PHE-17
     RDKit          3D

 26 25  0  0  0  0  0  0  0  0999 V2000
   -0.4796   -1.3784    3.3859 C   0  0  0  0  0  0  0  0  0  0  0  0
   -0.1341   -0.7079    2.7326 H   0  0  0  0  0  0  0  0  0  0  0  0
   -0.9070   -2.1367    2.8992 H   0  0  0  0  0  0  0  0  0  0  0  0
    0.3484   -1.7557    3.9862 H   0  0  0  0  0  0  0  0  0  0  0  0
   -1.5574   -0.6955    4.2416 C   0  0  0  0  0  0  0  0  0  0  0  0
   -1.8993   -1.3418    4.8949 H   0  0  0  0  0  0  0  0  0  0  0  0
   -1.1701    0.1002    4.6628 H   0  0  0  0  0  0  0  0  0  0  0  0
   -2.6455   -0.2947    3.3097 N   0  0  0  0  0  4  0  0  0  0  0  0
   -3.2777   -1.0593    3.1891 H   0  0  0  0  0  0  0  0  0  0  0  0
   -3.1365    0.4883    3.6897 H   0  0  0  0  0  0  0  0  0  0  0  0
   -2.2500   -0.0447    2.4261 H   0  0  0  0  0  0  0  0  0  0  0  0
   -0.0122    2.9173    0.0105 C   0  0  0  0  0  0  0  0  0  0  0  0
   -0.6197    3.2317   -0.6992 H   0  0  0  0  0  0  0  0  0  0  0  0
    0.9109    3.2321   -0.1312 H   0  0  0  0  0  0  0  0  0  0  0  0
   -0.3615    3.3405    0.9523 H   0  0  0  0  0  0  0  0  0  0  0  0
   -0.0039    1.4090   -0.0095 C   0  0  0  0  0  0  0  0  0  0  0  0
   -1.2032    0.6937   -0.0074 C   0  0  0  0  0  0  0  0  0  0  0  0
   -2.0710    1.1839   -0.0126 H   0  0  0  0  0  0  0  0  0  0  0  0
   -1.2156   -0.7065   -0.0000 C   0  0  0  0  0  0  0  0  0  0  0  0
   -2.0838   -1.1993   -0.0029 H   0  0  0  0  0  0  0  0  0  0  0  0
    0.0043   -1.4089    0.0130 C   0  0  0  0  0  0  0  0  0  0  0  0
    0.0028   -2.4009    0.0303 H   0  0  0  0  0  0  0  0  0  0  0  0
    1.2156   -0.6992    0.0000 C   0  0  0  0  0  0  0  0  0  0  0  0
    2.0946   -1.1869   -0.0110 H   0  0  0  0  0  0  0  0  0  0  0  0
    1.2027    0.7119    0.0038 C   0  0  0  0  0  0  0  0  0  0  0  0
    2.0655    1.2054    0.0150 H   0  0  0  0  0  0  0  0  0  0  0  0
  1  5  1  0
  5  8  1  0
  1  2  1  0
  1  3  1  0
  1  4  1  0
  5  6  1  0
  5  7  1  0
  8  9  1  0
  8 10  1  0
  8 11  1  0
 12 16  1  0
 16 17  2  0
 17 19  1  0
 19 21  2  0
 21 23  1  0
 23 25  2  0
 25 16  1  0
 12 13  1  0
 12 14  1  0
 12 15  1  0
 17 18  1  0
 19 20  1  0
 21 22  1  0
 23 24  1  0
 25 26  1  0
M  CHG  1   8   1
M  END
>  <PDB_ID>  (1596) 
pdb3df6

>  <RESIDUE_NAME>  (1596) 
LYS   PHE

>  <FRAG_NAME>  (1596) 
ETAM   MBZ

>  <FRAG_ATOM_NUM>  (1596) 
fragi: 11  fragj: 15

>  <atom.prop.CHAIN_ID>  (1596) 
A A A A A A A A A A A Z Z Z Z Z Z Z Z Z Z Z Z Z Z Z

>  <atom.prop.IS_HEAVY_ATOM>  (1596) 
1 0 0 0 1 0 0 1 0 0 0 1 0 0 0 1 1 0 1 0 1 0 1 0 1 0

>  <DIFUSE_FUNC_ATOM>  (1596) 
n/a

>  <FINAL_SINGLE_POINT_ENERGY>  (1596) 
0

>  <NONCOV_INTER_ENERGY_QM>  (1596) 
0

>  <FF_Energy>  (1596) 
-4.55

>  <QM_Energy>  (1596) 
-10.83

>  <source>  (1596) 
ETAM_MBZ

>  <Index>  (1596) 
16079

$$$$
ETAM-pdb1zrl-A-LYS-57:MBZ-pdb1zrl-A-PHE-124
     RDKit          3D

 26 25  0  0  0  0  0  0  0  0999 V2000
   -0.4830   -0.9576   -3.3748 C   0  0  0  0  0  0  0  0  0  0  0  0
   -0.2190   -1.3353   -2.4827 H   0  0  0  0  0  0  0  0  0  0  0  0
   -0.8512   -0.0335   -3.2402 H   0  0  0  0  0  0  0  0  0  0  0  0
    0.4130   -0.8822   -3.9909 H   0  0  0  0  0  0  0  0  0  0  0  0
   -1.5702   -1.8327   -3.9714 C   0  0  0  0  0  0  0  0  0  0  0  0
   -1.6595   -1.6268   -4.9497 H   0  0  0  0  0  0  0  0  0  0  0  0
   -1.3124   -2.7972   -3.8658 H   0  0  0  0  0  0  0  0  0  0  0  0
   -2.9008   -1.6147   -3.3092 N   0  0  0  0  0  4  0  0  0  0  0  0
   -3.5654   -2.2484   -3.6992 H   0  0  0  0  0  0  0  0  0  0  0  0
   -2.8074   -1.7796   -2.3301 H   0  0  0  0  0  0  0  0  0  0  0  0
   -3.1929   -0.6744   -3.4690 H   0  0  0  0  0  0  0  0  0  0  0  0
    0.0056    2.9216   -0.1345 C   0  0  0  0  0  0  0  0  0  0  0  0
    0.7154    3.2737    0.4454 H   0  0  0  0  0  0  0  0  0  0  0  0
   -0.8852    3.2469    0.1216 H   0  0  0  0  0  0  0  0  0  0  0  0
    0.2068    3.2511   -1.1539 H   0  0  0  0  0  0  0  0  0  0  0  0
    0.0037    1.4118   -0.0010 C   0  0  0  0  0  0  0  0  0  0  0  0
   -1.1909    0.6992    0.0039 C   0  0  0  0  0  0  0  0  0  0  0  0
   -2.0606    1.1889    0.0086 H   0  0  0  0  0  0  0  0  0  0  0  0
   -1.2027   -0.6981    0.0000 C   0  0  0  0  0  0  0  0  0  0  0  0
   -2.0854   -1.1817    0.0010 H   0  0  0  0  0  0  0  0  0  0  0  0
   -0.0109   -1.3992   -0.0034 C   0  0  0  0  0  0  0  0  0  0  0  0
   -0.0165   -2.3982   -0.0086 H   0  0  0  0  0  0  0  0  0  0  0  0
    1.2027   -0.7097    0.0000 C   0  0  0  0  0  0  0  0  0  0  0  0
    2.0774   -1.2045    0.0030 H   0  0  0  0  0  0  0  0  0  0  0  0
    1.1981    0.6960    0.0005 C   0  0  0  0  0  0  0  0  0  0  0  0
    2.0696    1.1846    0.0012 H   0  0  0  0  0  0  0  0  0  0  0  0
  1  5  1  0
  5  8  1  0
  1  2  1  0
  1  3  1  0
  1  4  1  0
  5  6  1  0
  5  7  1  0
  8  9  1  0
  8 10  1  0
  8 11  1  0
 12 16  1  0
 16 17  2  0
 17 19  1  0
 19 21  2  0
 21 23  1  0
 23 25  2  0
 25 16  1  0
 12 13  1  0
 12 14  1  0
 12 15  1  0
 17 18  1  0
 19 20  1  0
 21 22  1  0
 23 24  1  0
 25 26  1  0
M  CHG  1   8   1
M  END
>  <PDB_ID>  (1597) 
pdb1zrl

>  <RESIDUE_NAME>  (1597) 
LYS   PHE

>  <FRAG_NAME>  (1597) 
ETAM   MBZ

>  <FRAG_ATOM_NUM>  (1597) 
fragi: 11  fragj: 15

>  <atom.prop.CHAIN_ID>  (1597) 
A A A A A A A A A A A Z Z Z Z Z Z Z Z Z Z Z Z Z Z Z

>  <atom.prop.IS_HEAVY_ATOM>  (1597) 
1 0 0 0 1 0 0 1 0 0 0 1 0 0 0 1 1 0 1 0 1 0 1 0 1 0

>  <DIFUSE_FUNC_ATOM>  (1597) 
n/a

>  <FINAL_SINGLE_POINT_ENERGY>  (1597) 
0

>  <NONCOV_INTER_ENERGY_QM>  (1597) 
0

>  <FF_Energy>  (1597) 
-1.95

>  <QM_Energy>  (1597) 
-7.05

>  <source>  (1597) 
ETAM_MBZ

>  <Index>  (1597) 
16080

$$$$
ETAM-pdb3df6-D-LYS-71:MBZ-pdb3df6-D-PHE-17
     RDKit          3D

 26 25  0  0  0  0  0  0  0  0999 V2000
   -0.3130   -1.1727    3.6778 C   0  0  0  0  0  0  0  0  0  0  0  0
    0.3493   -0.8004    4.3055 H   0  0  0  0  0  0  0  0  0  0  0  0
   -0.2207   -0.7857    2.7755 H   0  0  0  0  0  0  0  0  0  0  0  0
   -0.2098   -2.2567    3.6299 H   0  0  0  0  0  0  0  0  0  0  0  0
   -1.7147   -0.8211    4.2029 C   0  0  0  0  0  0  0  0  0  0  0  0
   -2.0183   -1.5681    4.8009 H   0  0  0  0  0  0  0  0  0  0  0  0
   -1.6412    0.0204    4.7452 H   0  0  0  0  0  0  0  0  0  0  0  0
   -2.6625   -0.6341    3.1087 N   0  0  0  0  0  4  0  0  0  0  0  0
   -3.5762   -0.4303    3.4732 H   0  0  0  0  0  0  0  0  0  0  0  0
   -2.3699    0.1287    2.5244 H   0  0  0  0  0  0  0  0  0  0  0  0
   -2.7157   -1.4673    2.5504 H   0  0  0  0  0  0  0  0  0  0  0  0
    0.0137    2.9069    0.0380 C   0  0  0  0  0  0  0  0  0  0  0  0
   -0.5912    3.2404   -0.6663 H   0  0  0  0  0  0  0  0  0  0  0  0
    0.9412    3.2113   -0.1027 H   0  0  0  0  0  0  0  0  0  0  0  0
   -0.3280    3.3149    0.9892 H   0  0  0  0  0  0  0  0  0  0  0  0
    0.0023    1.4038   -0.0085 C   0  0  0  0  0  0  0  0  0  0  0  0
   -1.2109    0.6977   -0.0092 C   0  0  0  0  0  0  0  0  0  0  0  0
   -2.0685    1.1896   -0.0180 H   0  0  0  0  0  0  0  0  0  0  0  0
   -1.2156   -0.7023    0.0000 C   0  0  0  0  0  0  0  0  0  0  0  0
   -2.0846   -1.1969    0.0072 H   0  0  0  0  0  0  0  0  0  0  0  0
    0.0022   -1.3999    0.0010 C   0  0  0  0  0  0  0  0  0  0  0  0
    0.0007   -2.3956    0.0021 H   0  0  0  0  0  0  0  0  0  0  0  0
    1.2156   -0.6952   -0.0000 C   0  0  0  0  0  0  0  0  0  0  0  0
    2.0907   -1.1947   -0.0114 H   0  0  0  0  0  0  0  0  0  0  0  0
    1.2064    0.6958    0.0167 C   0  0  0  0  0  0  0  0  0  0  0  0
    2.0701    1.1965    0.0460 H   0  0  0  0  0  0  0  0  0  0  0  0
  1  5  1  0
  5  8  1  0
  1  2  1  0
  1  3  1  0
  1  4  1  0
  5  6  1  0
  5  7  1  0
  8  9  1  0
  8 10  1  0
  8 11  1  0
 12 16  1  0
 16 17  2  0
 17 19  1  0
 19 21  2  0
 21 23  1  0
 23 25  2  0
 25 16  1  0
 12 13  1  0
 12 14  1  0
 12 15  1  0
 17 18  1  0
 19 20  1  0
 21 22  1  0
 23 24  1  0
 25 26  1  0
M  CHG  1   8   1
M  END
>  <PDB_ID>  (1598) 
pdb3df6

>  <RESIDUE_NAME>  (1598) 
LYS   PHE

>  <FRAG_NAME>  (1598) 
ETAM   MBZ

>  <FRAG_ATOM_NUM>  (1598) 
fragi: 11  fragj: 15

>  <atom.prop.CHAIN_ID>  (1598) 
A A A A A A A A A A A Z Z Z Z Z Z Z Z Z Z Z Z Z Z Z

>  <atom.prop.IS_HEAVY_ATOM>  (1598) 
1 0 0 0 1 0 0 1 0 0 0 1 0 0 0 1 1 0 1 0 1 0 1 0 1 0

>  <DIFUSE_FUNC_ATOM>  (1598) 
n/a

>  <FINAL_SINGLE_POINT_ENERGY>  (1598) 
0

>  <NONCOV_INTER_ENERGY_QM>  (1598) 
0

>  <FF_Energy>  (1598) 
-4.33

>  <QM_Energy>  (1598) 
-10.7

>  <source>  (1598) 
ETAM_MBZ

>  <Index>  (1598) 
16083

$$$$
ETAM-pdb1zsv-C-LYS-328:MBZ-pdb1zsv-C-PHE-43
     RDKit          3D

 26 25  0  0  0  0  0  0  0  0999 V2000
   -3.4109   -2.6938   -2.4340 C   0  0  0  0  0  0  0  0  0  0  0  0
   -3.2744   -2.4811   -1.4788 H   0  0  0  0  0  0  0  0  0  0  0  0
   -4.1974   -3.2774   -2.5652 H   0  0  0  0  0  0  0  0  0  0  0  0
   -3.5560   -1.7672   -2.9894 H   0  0  0  0  0  0  0  0  0  0  0  0
   -2.1603   -3.4509   -2.9422 C   0  0  0  0  0  0  0  0  0  0  0  0
   -2.4566   -4.1501   -3.6038 H   0  0  0  0  0  0  0  0  0  0  0  0
   -1.5628   -2.7963   -3.4212 H   0  0  0  0  0  0  0  0  0  0  0  0
   -1.3611   -4.1262   -1.8460 N   0  0  0  0  0  4  0  0  0  0  0  0
   -1.3743   -5.1088   -2.0023 H   0  0  0  0  0  0  0  0  0  0  0  0
   -0.4269   -3.7846   -1.8765 H   0  0  0  0  0  0  0  0  0  0  0  0
   -1.7781   -3.9100   -0.9687 H   0  0  0  0  0  0  0  0  0  0  0  0
   -0.0171    2.9664    0.0003 C   0  0  0  0  0  0  0  0  0  0  0  0
    0.8987    3.2653    0.2057 H   0  0  0  0  0  0  0  0  0  0  0  0
   -0.6612    3.2551    0.6873 H   0  0  0  0  0  0  0  0  0  0  0  0
   -0.3136    3.4099   -0.9503 H   0  0  0  0  0  0  0  0  0  0  0  0
   -0.0067    1.4270    0.0022 C   0  0  0  0  0  0  0  0  0  0  0  0
   -1.2039    0.6982   -0.0023 C   0  0  0  0  0  0  0  0  0  0  0  0
   -2.0762    1.1817   -0.0089 H   0  0  0  0  0  0  0  0  0  0  0  0
   -1.2154   -0.7142   -0.0000 C   0  0  0  0  0  0  0  0  0  0  0  0
   -2.0823   -1.2034    0.0036 H   0  0  0  0  0  0  0  0  0  0  0  0
    0.0118   -1.4272   -0.0008 C   0  0  0  0  0  0  0  0  0  0  0  0
    0.0076   -2.4114   -0.0029 H   0  0  0  0  0  0  0  0  0  0  0  0
    1.2154   -0.7049    0.0000 C   0  0  0  0  0  0  0  0  0  0  0  0
    2.1022   -1.1808    0.0010 H   0  0  0  0  0  0  0  0  0  0  0  0
    1.1988    0.7211    0.0009 C   0  0  0  0  0  0  0  0  0  0  0  0
    2.0658    1.2088    0.0003 H   0  0  0  0  0  0  0  0  0  0  0  0
  1  5  1  0
  5  8  1  0
  1  2  1  0
  1  3  1  0
  1  4  1  0
  5  6  1  0
  5  7  1  0
  8  9  1  0
  8 10  1  0
  8 11  1  0
 12 16  1  0
 16 17  2  0
 17 19  1  0
 19 21  2  0
 21 23  1  0
 23 25  2  0
 25 16  1  0
 12 13  1  0
 12 14  1  0
 12 15  1  0
 17 18  1  0
 19 20  1  0
 21 22  1  0
 23 24  1  0
 25 26  1  0
M  CHG  1   8   1
M  END
>  <PDB_ID>  (1599) 
pdb1zsv

>  <RESIDUE_NAME>  (1599) 
LYS   PHE

>  <FRAG_NAME>  (1599) 
ETAM   MBZ

>  <FRAG_ATOM_NUM>  (1599) 
fragi: 11  fragj: 15

>  <atom.prop.CHAIN_ID>  (1599) 
A A A A A A A A A A A Z Z Z Z Z Z Z Z Z Z Z Z Z Z Z

>  <atom.prop.IS_HEAVY_ATOM>  (1599) 
1 0 0 0 1 0 0 1 0 0 0 1 0 0 0 1 1 0 1 0 1 0 1 0 1 0

>  <DIFUSE_FUNC_ATOM>  (1599) 
n/a

>  <FINAL_SINGLE_POINT_ENERGY>  (1599) 
0

>  <NONCOV_INTER_ENERGY_QM>  (1599) 
0

>  <FF_Energy>  (1599) 
-0.31

>  <QM_Energy>  (1599) 
-5.45

>  <source>  (1599) 
ETAM_MBZ

>  <Index>  (1599) 
16090

$$$$
ETAM-pdb3dgz-A-LYS-62:MBZ-pdb3dgz-A-PHE-367
     RDKit          3D

 26 25  0  0  0  0  0  0  0  0999 V2000
    1.2255    0.1397   -3.9254 C   0  0  0  0  0  0  0  0  0  0  0  0
    1.7992    0.9488   -4.1655 H   0  0  0  0  0  0  0  0  0  0  0  0
    0.4969    0.4795   -3.2991 H   0  0  0  0  0  0  0  0  0  0  0  0
    0.7726   -0.2695   -4.8285 H   0  0  0  0  0  0  0  0  0  0  0  0
    2.1234   -0.8115   -3.0897 C   0  0  0  0  0  0  0  0  0  0  0  0
    2.9296   -0.2061   -2.7034 H   0  0  0  0  0  0  0  0  0  0  0  0
    1.6014   -0.9833   -2.1606 H   0  0  0  0  0  0  0  0  0  0  0  0
    2.7423   -2.1454   -3.4837 N   0  0  0  0  0  4  0  0  0  0  0  0
    3.3644   -2.4289   -2.7615 H   0  0  0  0  0  0  0  0  0  0  0  0
    2.0116   -2.8106   -3.5945 H   0  0  0  0  0  0  0  0  0  0  0  0
    3.2338   -2.0234   -4.3388 H   0  0  0  0  0  0  0  0  0  0  0  0
    0.0161    2.8991   -0.0973 C   0  0  0  0  0  0  0  0  0  0  0  0
   -0.8746    3.1935   -0.3930 H   0  0  0  0  0  0  0  0  0  0  0  0
    0.7260    3.1825   -0.7174 H   0  0  0  0  0  0  0  0  0  0  0  0
    0.2163    3.3512    0.8741 H   0  0  0  0  0  0  0  0  0  0  0  0
    0.0173    1.4035   -0.0388 C   0  0  0  0  0  0  0  0  0  0  0  0
   -1.2061    0.6748    0.0264 C   0  0  0  0  0  0  0  0  0  0  0  0
   -2.0590    1.1831    0.0908 H   0  0  0  0  0  0  0  0  0  0  0  0
   -1.2253   -0.7119    0.0000 C   0  0  0  0  0  0  0  0  0  0  0  0
   -2.1049   -1.1960   -0.0438 H   0  0  0  0  0  0  0  0  0  0  0  0
   -0.0356   -1.4049    0.0368 C   0  0  0  0  0  0  0  0  0  0  0  0
   -0.0016   -2.3909    0.0876 H   0  0  0  0  0  0  0  0  0  0  0  0
    1.2253   -0.6724   -0.0000 C   0  0  0  0  0  0  0  0  0  0  0  0
    2.0802   -1.1973   -0.0057 H   0  0  0  0  0  0  0  0  0  0  0  0
    1.2245    0.7110   -0.0244 C   0  0  0  0  0  0  0  0  0  0  0  0
    2.0833    1.2124   -0.0320 H   0  0  0  0  0  0  0  0  0  0  0  0
  1  5  1  0
  5  8  1  0
  1  2  1  0
  1  3  1  0
  1  4  1  0
  5  6  1  0
  5  7  1  0
  8  9  1  0
  8 10  1  0
  8 11  1  0
 12 16  1  0
 16 17  2  0
 17 19  1  0
 19 21  2  0
 21 23  1  0
 23 25  2  0
 25 16  1  0
 12 13  1  0
 12 14  1  0
 12 15  1  0
 17 18  1  0
 19 20  1  0
 21 22  1  0
 23 24  1  0
 25 26  1  0
M  CHG  1   8   1
M  END
>  <PDB_ID>  (1600) 
pdb3dgz

>  <RESIDUE_NAME>  (1600) 
LYS   PHE

>  <FRAG_NAME>  (1600) 
ETAM   MBZ

>  <FRAG_ATOM_NUM>  (1600) 
fragi: 11  fragj: 15

>  <atom.prop.CHAIN_ID>  (1600) 
A A A A A A A A A A A Z Z Z Z Z Z Z Z Z Z Z Z Z Z Z

>  <atom.prop.IS_HEAVY_ATOM>  (1600) 
1 0 0 0 1 0 0 1 0 0 0 1 0 0 0 1 1 0 1 0 1 0 1 0 1 0

>  <DIFUSE_FUNC_ATOM>  (1600) 
n/a

>  <FINAL_SINGLE_POINT_ENERGY>  (1600) 
0

>  <NONCOV_INTER_ENERGY_QM>  (1600) 
0

>  <FF_Energy>  (1600) 
2.61

>  <QM_Energy>  (1600) 
-6.15

>  <source>  (1600) 
ETAM_MBZ

>  <Index>  (1600) 
16092

$$$$
ETAM-pdb3dgz-A-LYS-31:MBZ-pdb3dgz-A-PHE-7
     RDKit          3D

 26 25  0  0  0  0  0  0  0  0999 V2000
   -4.3599    0.7934   -3.0180 C   0  0  0  0  0  0  0  0  0  0  0  0
   -5.2764    0.6766   -3.3608 H   0  0  0  0  0  0  0  0  0  0  0  0
   -3.8212    1.3792   -3.5986 H   0  0  0  0  0  0  0  0  0  0  0  0
   -4.3906    1.1987   -2.0067 H   0  0  0  0  0  0  0  0  0  0  0  0
   -3.6950   -0.5630   -2.9554 C   0  0  0  0  0  0  0  0  0  0  0  0
   -3.7438   -0.9324   -2.0350 H   0  0  0  0  0  0  0  0  0  0  0  0
   -4.1156   -1.1878   -3.6033 H   0  0  0  0  0  0  0  0  0  0  0  0
   -2.1753   -0.4655   -3.3314 N   0  0  0  0  0  4  0  0  0  0  0  0
   -1.6652   -0.4686   -2.4864 H   0  0  0  0  0  0  0  0  0  0  0  0
   -1.9617   -1.2523   -3.8885 H   0  0  0  0  0  0  0  0  0  0  0  0
   -2.0516    0.3781   -3.8286 H   0  0  0  0  0  0  0  0  0  0  0  0
    0.0154    2.9261   -0.0578 C   0  0  0  0  0  0  0  0  0  0  0  0
    0.9070    3.2337    0.2423 H   0  0  0  0  0  0  0  0  0  0  0  0
   -0.6975    3.2500    0.5471 H   0  0  0  0  0  0  0  0  0  0  0  0
   -0.1692    3.3362   -1.0508 H   0  0  0  0  0  0  0  0  0  0  0  0
    0.0074    1.4297   -0.0210 C   0  0  0  0  0  0  0  0  0  0  0  0
   -1.2416    0.7596   -0.0721 C   0  0  0  0  0  0  0  0  0  0  0  0
   -2.0726    1.2691   -0.1583 H   0  0  0  0  0  0  0  0  0  0  0  0
   -1.2811   -0.6522   -0.0000 C   0  0  0  0  0  0  0  0  0  0  0  0
   -2.1432   -1.1384    0.0121 H   0  0  0  0  0  0  0  0  0  0  0  0
   -0.0303   -1.4204    0.0599 C   0  0  0  0  0  0  0  0  0  0  0  0
   -0.0845   -2.4061    0.1433 H   0  0  0  0  0  0  0  0  0  0  0  0
    1.2811   -0.7772    0.0000 C   0  0  0  0  0  0  0  0  0  0  0  0
    2.0934   -1.2838   -0.0557 H   0  0  0  0  0  0  0  0  0  0  0  0
    1.2645    0.6605    0.0331 C   0  0  0  0  0  0  0  0  0  0  0  0
    2.1129    1.1618    0.0927 H   0  0  0  0  0  0  0  0  0  0  0  0
  1  5  1  0
  5  8  1  0
  1  2  1  0
  1  3  1  0
  1  4  1  0
  5  6  1  0
  5  7  1  0
  8  9  1  0
  8 10  1  0
  8 11  1  0
 12 16  1  0
 16 17  2  0
 17 19  1  0
 19 21  2  0
 21 23  1  0
 23 25  2  0
 25 16  1  0
 12 13  1  0
 12 14  1  0
 12 15  1  0
 17 18  1  0
 19 20  1  0
 21 22  1  0
 23 24  1  0
 25 26  1  0
M  CHG  1   8   1
M  END
>  <PDB_ID>  (1601) 
pdb3dgz

>  <RESIDUE_NAME>  (1601) 
LYS   PHE

>  <FRAG_NAME>  (1601) 
ETAM   MBZ

>  <FRAG_ATOM_NUM>  (1601) 
fragi: 11  fragj: 15

>  <atom.prop.CHAIN_ID>  (1601) 
A A A A A A A A A A A Z Z Z Z Z Z Z Z Z Z Z Z Z Z Z

>  <atom.prop.IS_HEAVY_ATOM>  (1601) 
1 0 0 0 1 0 0 1 0 0 0 1 0 0 0 1 1 0 1 0 1 0 1 0 1 0

>  <DIFUSE_FUNC_ATOM>  (1601) 
n/a

>  <FINAL_SINGLE_POINT_ENERGY>  (1601) 
0

>  <NONCOV_INTER_ENERGY_QM>  (1601) 
0

>  <FF_Energy>  (1601) 
-5.02

>  <QM_Energy>  (1601) 
-12.24

>  <source>  (1601) 
ETAM_MBZ

>  <Index>  (1601) 
16094

$$$$
ETAM-pdb1ztp-A-GLU-17:MBZ-pdb1ztp-A-PHE-20
     RDKit          3D

 26 25  0  0  0  0  0  0  0  0999 V2000
    4.4044    2.0685    0.9489 C   0  0  0  0  0  0  0  0  0  0  0  0
    4.4203    2.8590    1.5353 H   0  0  0  0  0  0  0  0  0  0  0  0
    3.4889    1.8099    0.7001 H   0  0  0  0  0  0  0  0  0  0  0  0
    4.8345    1.2395    1.5110 H   0  0  0  0  0  0  0  0  0  0  0  0
    5.1596    2.4221   -0.3369 C   0  0  0  0  0  0  0  0  0  0  0  0
    5.2430    1.5707   -0.8567 H   0  0  0  0  0  0  0  0  0  0  0  0
    4.6029    3.1591   -0.9156 H   0  0  0  0  0  0  0  0  0  0  0  0
    6.5313    2.9286   -0.0179 N   0  0  0  0  0  4  0  0  0  0  0  0
    6.4618    3.6324    0.6828 H   0  0  0  0  0  0  0  0  0  0  0  0
    7.0870    2.1718    0.3144 H   0  0  0  0  0  0  0  0  0  0  0  0
    6.9361    3.3095   -0.8438 H   0  0  0  0  0  0  0  0  0  0  0  0
    0.0077    2.8915   -0.0058 C   0  0  0  0  0  0  0  0  0  0  0  0
    0.9176    3.1985    0.2315 H   0  0  0  0  0  0  0  0  0  0  0  0
   -0.6607    3.2079    0.6506 H   0  0  0  0  0  0  0  0  0  0  0  0
   -0.2459    3.3294   -0.9712 H   0  0  0  0  0  0  0  0  0  0  0  0
    0.0001    1.3942    0.0014 C   0  0  0  0  0  0  0  0  0  0  0  0
   -1.1936    0.6954    0.0020 C   0  0  0  0  0  0  0  0  0  0  0  0
   -2.0600    1.1866    0.0028 H   0  0  0  0  0  0  0  0  0  0  0  0
   -1.1991   -0.6910   -0.0000 C   0  0  0  0  0  0  0  0  0  0  0  0
   -2.0772   -1.1848   -0.0007 H   0  0  0  0  0  0  0  0  0  0  0  0
   -0.0022   -1.3835    0.0002 C   0  0  0  0  0  0  0  0  0  0  0  0
   -0.0089   -2.3868   -0.0003 H   0  0  0  0  0  0  0  0  0  0  0  0
    1.1991   -0.6974   -0.0000 C   0  0  0  0  0  0  0  0  0  0  0  0
    2.0769   -1.2010    0.0044 H   0  0  0  0  0  0  0  0  0  0  0  0
    1.1957    0.6823   -0.0036 C   0  0  0  0  0  0  0  0  0  0  0  0
    2.0645    1.1832   -0.0109 H   0  0  0  0  0  0  0  0  0  0  0  0
  1  5  1  0
  5  8  1  0
  1  2  1  0
  1  3  1  0
  1  4  1  0
  5  6  1  0
  5  7  1  0
  8  9  1  0
  8 10  1  0
  8 11  1  0
 12 16  1  0
 16 17  2  0
 17 19  1  0
 19 21  2  0
 21 23  1  0
 23 25  2  0
 25 16  1  0
 12 13  1  0
 12 14  1  0
 12 15  1  0
 17 18  1  0
 19 20  1  0
 21 22  1  0
 23 24  1  0
 25 26  1  0
M  CHG  1   8   1
M  END
>  <PDB_ID>  (1602) 
pdb1ztp

>  <RESIDUE_NAME>  (1602) 
GLU   PHE

>  <FRAG_NAME>  (1602) 
ETAM   MBZ

>  <FRAG_ATOM_NUM>  (1602) 
fragi: 11  fragj: 15

>  <atom.prop.CHAIN_ID>  (1602) 
A A A A A A A A A A A Z Z Z Z Z Z Z Z Z Z Z Z Z Z Z

>  <atom.prop.IS_HEAVY_ATOM>  (1602) 
1 0 0 0 1 0 0 1 0 0 0 1 0 0 0 1 1 0 1 0 1 0 1 0 1 0

>  <DIFUSE_FUNC_ATOM>  (1602) 
n/a

>  <FINAL_SINGLE_POINT_ENERGY>  (1602) 
0

>  <NONCOV_INTER_ENERGY_QM>  (1602) 
0

>  <FF_Energy>  (1602) 
5.95

>  <QM_Energy>  (1602) 
0.52

>  <source>  (1602) 
ETAM_MBZ

>  <Index>  (1602) 
16096

$$$$
ETAM-pdb1ztx-E-LYS-399:MBZ-pdb1ztx-E-PHE-379
     RDKit          3D

 26 25  0  0  0  0  0  0  0  0999 V2000
   -1.2627    0.0551   -3.7181 C   0  0  0  0  0  0  0  0  0  0  0  0
   -1.2617    0.1442   -4.7101 H   0  0  0  0  0  0  0  0  0  0  0  0
   -0.6158    0.6968   -3.3158 H   0  0  0  0  0  0  0  0  0  0  0  0
   -2.2615    0.2862   -3.3478 H   0  0  0  0  0  0  0  0  0  0  0  0
   -0.8321   -1.3596   -3.3568 C   0  0  0  0  0  0  0  0  0  0  0  0
   -0.9095   -1.4801   -2.3640 H   0  0  0  0  0  0  0  0  0  0  0  0
   -1.4441   -2.0127   -3.8115 H   0  0  0  0  0  0  0  0  0  0  0  0
    0.5759   -1.6418   -3.7729 N   0  0  0  0  0  4  0  0  0  0  0  0
    0.6088   -1.7516   -4.7646 H   0  0  0  0  0  0  0  0  0  0  0  0
    1.1590   -0.8790   -3.4980 H   0  0  0  0  0  0  0  0  0  0  0  0
    0.8871   -2.4811   -3.3303 H   0  0  0  0  0  0  0  0  0  0  0  0
   -0.0013    2.8995   -0.0319 C   0  0  0  0  0  0  0  0  0  0  0  0
    0.9012    3.2150    0.2203 H   0  0  0  0  0  0  0  0  0  0  0  0
   -0.6864    3.2205    0.6044 H   0  0  0  0  0  0  0  0  0  0  0  0
   -0.2375    3.3136   -1.0121 H   0  0  0  0  0  0  0  0  0  0  0  0
    0.0015    1.4036   -0.0004 C   0  0  0  0  0  0  0  0  0  0  0  0
   -1.1981    0.6938   -0.0004 C   0  0  0  0  0  0  0  0  0  0  0  0
   -2.0633    1.1846   -0.0016 H   0  0  0  0  0  0  0  0  0  0  0  0
   -1.2040   -0.6980   -0.0000 C   0  0  0  0  0  0  0  0  0  0  0  0
   -2.0811   -1.1905    0.0012 H   0  0  0  0  0  0  0  0  0  0  0  0
   -0.0038   -1.3951    0.0001 C   0  0  0  0  0  0  0  0  0  0  0  0
   -0.0066   -2.3943    0.0000 H   0  0  0  0  0  0  0  0  0  0  0  0
    1.2040   -0.6998    0.0000 C   0  0  0  0  0  0  0  0  0  0  0  0
    2.0817   -1.1978    0.0007 H   0  0  0  0  0  0  0  0  0  0  0  0
    1.2004    0.6957    0.0007 C   0  0  0  0  0  0  0  0  0  0  0  0
    2.0672    1.1901    0.0015 H   0  0  0  0  0  0  0  0  0  0  0  0
  1  5  1  0
  5  8  1  0
  1  2  1  0
  1  3  1  0
  1  4  1  0
  5  6  1  0
  5  7  1  0
  8  9  1  0
  8 10  1  0
  8 11  1  0
 12 16  1  0
 16 17  2  0
 17 19  1  0
 19 21  2  0
 21 23  1  0
 23 25  2  0
 25 16  1  0
 12 13  1  0
 12 14  1  0
 12 15  1  0
 17 18  1  0
 19 20  1  0
 21 22  1  0
 23 24  1  0
 25 26  1  0
M  CHG  1   8   1
M  END
>  <PDB_ID>  (1603) 
pdb1ztx

>  <RESIDUE_NAME>  (1603) 
LYS   PHE

>  <FRAG_NAME>  (1603) 
ETAM   MBZ

>  <FRAG_ATOM_NUM>  (1603) 
fragi: 11  fragj: 15

>  <atom.prop.CHAIN_ID>  (1603) 
A A A A A A A A A A A Z Z Z Z Z Z Z Z Z Z Z Z Z Z Z

>  <atom.prop.IS_HEAVY_ATOM>  (1603) 
1 0 0 0 1 0 0 1 0 0 0 1 0 0 0 1 1 0 1 0 1 0 1 0 1 0

>  <DIFUSE_FUNC_ATOM>  (1603) 
n/a

>  <FINAL_SINGLE_POINT_ENERGY>  (1603) 
0

>  <NONCOV_INTER_ENERGY_QM>  (1603) 
0

>  <FF_Energy>  (1603) 
-3.99

>  <QM_Energy>  (1603) 
-10.09

>  <source>  (1603) 
ETAM_MBZ

>  <Index>  (1603) 
16100

$$$$
ETAM-pdb1zsy-A-LYS-300:MBZ-pdb1zsy-A-PHE-308
     RDKit          3D

 26 25  0  0  0  0  0  0  0  0999 V2000
    0.8892   -0.8630   -4.0948 C   0  0  0  0  0  0  0  0  0  0  0  0
    1.1957   -1.3854   -4.8747 H   0  0  0  0  0  0  0  0  0  0  0  0
    1.6283   -0.6767   -3.4676 H   0  0  0  0  0  0  0  0  0  0  0  0
    0.4932    0.0872   -4.4531 H   0  0  0  0  0  0  0  0  0  0  0  0
   -0.1944   -1.6405   -3.3697 C   0  0  0  0  0  0  0  0  0  0  0  0
   -0.3463   -1.2535   -2.4803 H   0  0  0  0  0  0  0  0  0  0  0  0
   -1.0117   -1.6635   -3.9132 H   0  0  0  0  0  0  0  0  0  0  0  0
    0.3079   -3.0737   -3.1936 N   0  0  0  0  0  4  0  0  0  0  0  0
    0.4194   -3.2472   -2.2224 H   0  0  0  0  0  0  0  0  0  0  0  0
   -0.3652   -3.6897   -3.5851 H   0  0  0  0  0  0  0  0  0  0  0  0
    1.1772   -3.1589   -3.6662 H   0  0  0  0  0  0  0  0  0  0  0  0
    0.0269    2.9289   -0.0512 C   0  0  0  0  0  0  0  0  0  0  0  0
    0.1275    3.2079   -0.9990 H   0  0  0  0  0  0  0  0  0  0  0  0
    0.8054    3.2293    0.4872 H   0  0  0  0  0  0  0  0  0  0  0  0
   -0.8643    3.4128    0.3485 H   0  0  0  0  0  0  0  0  0  0  0  0
   -0.0021    1.4215   -0.0165 C   0  0  0  0  0  0  0  0  0  0  0  0
   -1.2057    0.7082   -0.0230 C   0  0  0  0  0  0  0  0  0  0  0  0
   -2.0701    1.1861   -0.0449 H   0  0  0  0  0  0  0  0  0  0  0  0
   -1.2015   -0.7032    0.0000 C   0  0  0  0  0  0  0  0  0  0  0  0
   -2.0813   -1.1915   -0.0064 H   0  0  0  0  0  0  0  0  0  0  0  0
    0.0014   -1.4094    0.0335 C   0  0  0  0  0  0  0  0  0  0  0  0
   -0.0114   -2.4042    0.0806 H   0  0  0  0  0  0  0  0  0  0  0  0
    1.2015   -0.7180    0.0000 C   0  0  0  0  0  0  0  0  0  0  0  0
    2.0843   -1.2055   -0.0274 H   0  0  0  0  0  0  0  0  0  0  0  0
    1.2063    0.7010    0.0060 C   0  0  0  0  0  0  0  0  0  0  0  0
    2.0712    1.1837    0.0257 H   0  0  0  0  0  0  0  0  0  0  0  0
  1  5  1  0
  5  8  1  0
  1  2  1  0
  1  3  1  0
  1  4  1  0
  5  6  1  0
  5  7  1  0
  8  9  1  0
  8 10  1  0
  8 11  1  0
 12 16  1  0
 16 17  2  0
 17 19  1  0
 19 21  2  0
 21 23  1  0
 23 25  2  0
 25 16  1  0
 12 13  1  0
 12 14  1  0
 12 15  1  0
 17 18  1  0
 19 20  1  0
 21 22  1  0
 23 24  1  0
 25 26  1  0
M  CHG  1   8   1
M  END
>  <PDB_ID>  (1604) 
pdb1zsy

>  <RESIDUE_NAME>  (1604) 
LYS   PHE

>  <FRAG_NAME>  (1604) 
ETAM   MBZ

>  <FRAG_ATOM_NUM>  (1604) 
fragi: 11  fragj: 15

>  <atom.prop.CHAIN_ID>  (1604) 
A A A A A A A A A A A Z Z Z Z Z Z Z Z Z Z Z Z Z Z Z

>  <atom.prop.IS_HEAVY_ATOM>  (1604) 
1 0 0 0 1 0 0 1 0 0 0 1 0 0 0 1 1 0 1 0 1 0 1 0 1 0

>  <DIFUSE_FUNC_ATOM>  (1604) 
n/a

>  <FINAL_SINGLE_POINT_ENERGY>  (1604) 
0

>  <NONCOV_INTER_ENERGY_QM>  (1604) 
0

>  <FF_Energy>  (1604) 
-2.85

>  <QM_Energy>  (1604) 
-9.61

>  <source>  (1604) 
ETAM_MBZ

>  <Index>  (1604) 
16103

$$$$
ETAM-pdb3dhv-A-LYS-492:MBZ-pdb3dhv-A-PHE-196
     RDKit          3D

 26 25  0  0  0  0  0  0  0  0999 V2000
   -0.4436   -4.1585   -3.8801 C   0  0  0  0  0  0  0  0  0  0  0  0
   -0.9002   -3.4829   -4.4613 H   0  0  0  0  0  0  0  0  0  0  0  0
   -0.5479   -5.0681   -4.2859 H   0  0  0  0  0  0  0  0  0  0  0  0
    0.6185   -3.9173   -3.8364 H   0  0  0  0  0  0  0  0  0  0  0  0
   -1.1162   -4.1572   -2.5157 C   0  0  0  0  0  0  0  0  0  0  0  0
   -1.9019   -4.7822   -2.5447 H   0  0  0  0  0  0  0  0  0  0  0  0
   -0.4609   -4.4960   -1.8334 H   0  0  0  0  0  0  0  0  0  0  0  0
   -1.5717   -2.8092   -2.1352 N   0  0  0  0  0  4  0  0  0  0  0  0
   -1.5349   -2.2017   -2.9309 H   0  0  0  0  0  0  0  0  0  0  0  0
   -2.5140   -2.8520   -1.7974 H   0  0  0  0  0  0  0  0  0  0  0  0
   -0.9803   -2.4427   -1.4141 H   0  0  0  0  0  0  0  0  0  0  0  0
    0.0193    2.9075   -0.0915 C   0  0  0  0  0  0  0  0  0  0  0  0
    0.0298    3.1571   -1.0511 H   0  0  0  0  0  0  0  0  0  0  0  0
    0.8366    3.2325    0.3660 H   0  0  0  0  0  0  0  0  0  0  0  0
   -0.8345    3.4050    0.3687 H   0  0  0  0  0  0  0  0  0  0  0  0
   -0.0002    1.4056   -0.0009 C   0  0  0  0  0  0  0  0  0  0  0  0
   -1.1998    0.6947    0.0004 C   0  0  0  0  0  0  0  0  0  0  0  0
   -2.0657    1.1868    0.0009 H   0  0  0  0  0  0  0  0  0  0  0  0
   -1.2046   -0.6944   -0.0000 C   0  0  0  0  0  0  0  0  0  0  0  0
   -2.0785   -1.1919    0.0025 H   0  0  0  0  0  0  0  0  0  0  0  0
    0.0040   -1.3968   -0.0018 C   0  0  0  0  0  0  0  0  0  0  0  0
   -0.0069   -2.3953   -0.0053 H   0  0  0  0  0  0  0  0  0  0  0  0
    1.2046   -0.7047   -0.0000 C   0  0  0  0  0  0  0  0  0  0  0  0
    2.0855   -1.1959    0.0011 H   0  0  0  0  0  0  0  0  0  0  0  0
    1.1960    0.6957    0.0023 C   0  0  0  0  0  0  0  0  0  0  0  0
    2.0662    1.1890    0.0057 H   0  0  0  0  0  0  0  0  0  0  0  0
  1  5  1  0
  5  8  1  0
  1  2  1  0
  1  3  1  0
  1  4  1  0
  5  6  1  0
  5  7  1  0
  8  9  1  0
  8 10  1  0
  8 11  1  0
 12 16  1  0
 16 17  2  0
 17 19  1  0
 19 21  2  0
 21 23  1  0
 23 25  2  0
 25 16  1  0
 12 13  1  0
 12 14  1  0
 12 15  1  0
 17 18  1  0
 19 20  1  0
 21 22  1  0
 23 24  1  0
 25 26  1  0
M  CHG  1   8   1
M  END
>  <PDB_ID>  (1605) 
pdb3dhv

>  <RESIDUE_NAME>  (1605) 
LYS   PHE

>  <FRAG_NAME>  (1605) 
ETAM   MBZ

>  <FRAG_ATOM_NUM>  (1605) 
fragi: 11  fragj: 15

>  <atom.prop.CHAIN_ID>  (1605) 
A A A A A A A A A A A Z Z Z Z Z Z Z Z Z Z Z Z Z Z Z

>  <atom.prop.IS_HEAVY_ATOM>  (1605) 
1 0 0 0 1 0 0 1 0 0 0 1 0 0 0 1 1 0 1 0 1 0 1 0 1 0

>  <DIFUSE_FUNC_ATOM>  (1605) 
n/a

>  <FINAL_SINGLE_POINT_ENERGY>  (1605) 
0

>  <NONCOV_INTER_ENERGY_QM>  (1605) 
0

>  <FF_Energy>  (1605) 
0.6

>  <QM_Energy>  (1605) 
-7.93

>  <source>  (1605) 
ETAM_MBZ

>  <Index>  (1605) 
16109

$$$$
ETAM-pdb3dhg-A-LYS-469:MBZ-pdb3dhg-B-PHE-3
     RDKit          3D

 26 25  0  0  0  0  0  0  0  0999 V2000
    1.5171   -2.0796    3.1557 C   0  0  0  0  0  0  0  0  0  0  0  0
    2.1090   -2.3758    3.8923 H   0  0  0  0  0  0  0  0  0  0  0  0
    1.9670   -2.1716    2.2784 H   0  0  0  0  0  0  0  0  0  0  0  0
    0.6137   -2.6894    3.1580 H   0  0  0  0  0  0  0  0  0  0  0  0
    1.1946   -0.5753    3.3748 C   0  0  0  0  0  0  0  0  0  0  0  0
    0.7015   -0.2415    2.5732 H   0  0  0  0  0  0  0  0  0  0  0  0
    0.6131   -0.4952    4.1835 H   0  0  0  0  0  0  0  0  0  0  0  0
    2.4375    0.2358    3.5707 N   0  0  0  0  0  4  0  0  0  0  0  0
    2.3613    0.7512    4.4219 H   0  0  0  0  0  0  0  0  0  0  0  0
    3.2239   -0.3771    3.6162 H   0  0  0  0  0  0  0  0  0  0  0  0
    2.5419    0.8651    2.8021 H   0  0  0  0  0  0  0  0  0  0  0  0
    0.0019    2.9048    0.0135 C   0  0  0  0  0  0  0  0  0  0  0  0
   -0.9057    3.2178   -0.2237 H   0  0  0  0  0  0  0  0  0  0  0  0
    0.6724    3.2185   -0.6426 H   0  0  0  0  0  0  0  0  0  0  0  0
    0.2578    3.3457    0.9769 H   0  0  0  0  0  0  0  0  0  0  0  0
    0.0001    1.4056    0.0055 C   0  0  0  0  0  0  0  0  0  0  0  0
   -1.2045    0.6995    0.0011 C   0  0  0  0  0  0  0  0  0  0  0  0
   -2.0682    1.1875   -0.0028 H   0  0  0  0  0  0  0  0  0  0  0  0
   -1.2116   -0.7035   -0.0000 C   0  0  0  0  0  0  0  0  0  0  0  0
   -2.0814   -1.1956    0.0032 H   0  0  0  0  0  0  0  0  0  0  0  0
    0.0051   -1.4022   -0.0044 C   0  0  0  0  0  0  0  0  0  0  0  0
    0.0011   -2.3985   -0.0114 H   0  0  0  0  0  0  0  0  0  0  0  0
    1.2116   -0.7001    0.0000 C   0  0  0  0  0  0  0  0  0  0  0  0
    2.0912   -1.1919    0.0065 H   0  0  0  0  0  0  0  0  0  0  0  0
    1.1993    0.7006   -0.0022 C   0  0  0  0  0  0  0  0  0  0  0  0
    2.0670    1.1971   -0.0106 H   0  0  0  0  0  0  0  0  0  0  0  0
  1  5  1  0
  5  8  1  0
  1  2  1  0
  1  3  1  0
  1  4  1  0
  5  6  1  0
  5  7  1  0
  8  9  1  0
  8 10  1  0
  8 11  1  0
 12 16  1  0
 16 17  2  0
 17 19  1  0
 19 21  2  0
 21 23  1  0
 23 25  2  0
 25 16  1  0
 12 13  1  0
 12 14  1  0
 12 15  1  0
 17 18  1  0
 19 20  1  0
 21 22  1  0
 23 24  1  0
 25 26  1  0
M  CHG  1   8   1
M  END
>  <PDB_ID>  (1606) 
pdb3dhg

>  <RESIDUE_NAME>  (1606) 
LYS   PHE

>  <FRAG_NAME>  (1606) 
ETAM   MBZ

>  <FRAG_ATOM_NUM>  (1606) 
fragi: 11  fragj: 15

>  <atom.prop.CHAIN_ID>  (1606) 
A A A A A A A A A A A Z Z Z Z Z Z Z Z Z Z Z Z Z Z Z

>  <atom.prop.IS_HEAVY_ATOM>  (1606) 
1 0 0 0 1 0 0 1 0 0 0 1 0 0 0 1 1 0 1 0 1 0 1 0 1 0

>  <DIFUSE_FUNC_ATOM>  (1606) 
n/a

>  <FINAL_SINGLE_POINT_ENERGY>  (1606) 
0

>  <NONCOV_INTER_ENERGY_QM>  (1606) 
0

>  <FF_Energy>  (1606) 
-4.27

>  <QM_Energy>  (1606) 
-10.07

>  <source>  (1606) 
ETAM_MBZ

>  <Index>  (1606) 
16110

$$$$
ETAM-pdb1zmd-A-LYS-24:MBZ-pdb1zmd-B-PHE-468
     RDKit          3D

 26 25  0  0  0  0  0  0  0  0999 V2000
    1.1550   -2.2822   -4.8238 C   0  0  0  0  0  0  0  0  0  0  0  0
    1.8933   -2.4917   -4.1846 H   0  0  0  0  0  0  0  0  0  0  0  0
    1.4548   -1.5746   -5.4621 H   0  0  0  0  0  0  0  0  0  0  0  0
    0.9105   -3.1838   -5.3855 H   0  0  0  0  0  0  0  0  0  0  0  0
   -0.0379   -1.7020   -3.9984 C   0  0  0  0  0  0  0  0  0  0  0  0
   -0.8168   -1.6048   -4.6051 H   0  0  0  0  0  0  0  0  0  0  0  0
   -0.2433   -2.3346   -3.2615 H   0  0  0  0  0  0  0  0  0  0  0  0
    0.3205   -0.3579   -3.4213 N   0  0  0  0  0  4  0  0  0  0  0  0
    0.1464   -0.3712   -2.4399 H   0  0  0  0  0  0  0  0  0  0  0  0
    1.2860   -0.1799   -3.5943 H   0  0  0  0  0  0  0  0  0  0  0  0
   -0.2401    0.3409   -3.8589 H   0  0  0  0  0  0  0  0  0  0  0  0
    0.0076    2.9266   -0.0987 C   0  0  0  0  0  0  0  0  0  0  0  0
   -0.7236    3.1968   -0.7138 H   0  0  0  0  0  0  0  0  0  0  0  0
    0.8900    3.2007   -0.4649 H   0  0  0  0  0  0  0  0  0  0  0  0
   -0.1388    3.4588    0.8412 H   0  0  0  0  0  0  0  0  0  0  0  0
   -0.0036    1.4131   -0.0034 C   0  0  0  0  0  0  0  0  0  0  0  0
   -1.2109    0.7013    0.0018 C   0  0  0  0  0  0  0  0  0  0  0  0
   -2.0732    1.1929    0.0057 H   0  0  0  0  0  0  0  0  0  0  0  0
   -1.2197   -0.6980   -0.0000 C   0  0  0  0  0  0  0  0  0  0  0  0
   -2.0845   -1.1951   -0.0006 H   0  0  0  0  0  0  0  0  0  0  0  0
    0.0083   -1.4074    0.0003 C   0  0  0  0  0  0  0  0  0  0  0  0
   -0.0033   -2.3992    0.0001 H   0  0  0  0  0  0  0  0  0  0  0  0
    1.2197   -0.7052    0.0000 C   0  0  0  0  0  0  0  0  0  0  0  0
    2.0965   -1.1978    0.0004 H   0  0  0  0  0  0  0  0  0  0  0  0
    1.2062    0.6962    0.0012 C   0  0  0  0  0  0  0  0  0  0  0  0
    2.0705    1.1969    0.0046 H   0  0  0  0  0  0  0  0  0  0  0  0
  1  5  1  0
  5  8  1  0
  1  2  1  0
  1  3  1  0
  1  4  1  0
  5  6  1  0
  5  7  1  0
  8  9  1  0
  8 10  1  0
  8 11  1  0
 12 16  1  0
 16 17  2  0
 17 19  1  0
 19 21  2  0
 21 23  1  0
 23 25  2  0
 25 16  1  0
 12 13  1  0
 12 14  1  0
 12 15  1  0
 17 18  1  0
 19 20  1  0
 21 22  1  0
 23 24  1  0
 25 26  1  0
M  CHG  1   8   1
M  END
>  <PDB_ID>  (1607) 
pdb1zmd

>  <RESIDUE_NAME>  (1607) 
LYS   PHE

>  <FRAG_NAME>  (1607) 
ETAM   MBZ

>  <FRAG_ATOM_NUM>  (1607) 
fragi: 11  fragj: 15

>  <atom.prop.CHAIN_ID>  (1607) 
A A A A A A A A A A A Z Z Z Z Z Z Z Z Z Z Z Z Z Z Z

>  <atom.prop.IS_HEAVY_ATOM>  (1607) 
1 0 0 0 1 0 0 1 0 0 0 1 0 0 0 1 1 0 1 0 1 0 1 0 1 0

>  <DIFUSE_FUNC_ATOM>  (1607) 
n/a

>  <FINAL_SINGLE_POINT_ENERGY>  (1607) 
0

>  <NONCOV_INTER_ENERGY_QM>  (1607) 
0

>  <FF_Energy>  (1607) 
-8.58

>  <QM_Energy>  (1607) 
-15.94

>  <source>  (1607) 
ETAM_MBZ

>  <Index>  (1607) 
16116

$$$$
ETAM-pdb1zuw-C-LYS-20:MBZ-pdb1zuw-C-PHE-254
     RDKit          3D

 26 25  0  0  0  0  0  0  0  0999 V2000
    1.0604   -0.1279   -3.4388 C   0  0  0  0  0  0  0  0  0  0  0  0
    0.2272    0.4048   -3.3186 H   0  0  0  0  0  0  0  0  0  0  0  0
    1.0935   -0.8682   -2.7733 H   0  0  0  0  0  0  0  0  0  0  0  0
    1.0640   -0.5538   -4.4421 H   0  0  0  0  0  0  0  0  0  0  0  0
    2.2595    0.7913   -3.1985 C   0  0  0  0  0  0  0  0  0  0  0  0
    2.4189    1.3399   -4.0306 H   0  0  0  0  0  0  0  0  0  0  0  0
    2.0356    1.4245   -2.4459 H   0  0  0  0  0  0  0  0  0  0  0  0
    3.5220    0.0570   -2.8541 N   0  0  0  0  0  4  0  0  0  0  0  0
    3.2878   -0.8530   -2.5195 H   0  0  0  0  0  0  0  0  0  0  0  0
    4.0882   -0.0173   -3.6717 H   0  0  0  0  0  0  0  0  0  0  0  0
    4.0100    0.5636   -2.1472 H   0  0  0  0  0  0  0  0  0  0  0  0
   -0.0060    2.8964    0.0770 C   0  0  0  0  0  0  0  0  0  0  0  0
   -0.8297    3.2265   -0.3533 H   0  0  0  0  0  0  0  0  0  0  0  0
    0.8031    3.2324   -0.3757 H   0  0  0  0  0  0  0  0  0  0  0  0
    0.0067    3.2730    1.0997 H   0  0  0  0  0  0  0  0  0  0  0  0
   -0.0011    1.4021    0.0008 C   0  0  0  0  0  0  0  0  0  0  0  0
   -1.1968    0.6912    0.0004 C   0  0  0  0  0  0  0  0  0  0  0  0
   -2.0644    1.1834   -0.0005 H   0  0  0  0  0  0  0  0  0  0  0  0
   -1.2051   -0.6985    0.0000 C   0  0  0  0  0  0  0  0  0  0  0  0
   -2.0795   -1.1924   -0.0002 H   0  0  0  0  0  0  0  0  0  0  0  0
    0.0007   -1.3961    0.0019 C   0  0  0  0  0  0  0  0  0  0  0  0
   -0.0021   -2.3931    0.0042 H   0  0  0  0  0  0  0  0  0  0  0  0
    1.2051   -0.6970   -0.0000 C   0  0  0  0  0  0  0  0  0  0  0  0
    2.0858   -1.1920    0.0021 H   0  0  0  0  0  0  0  0  0  0  0  0
    1.1972    0.6982   -0.0031 C   0  0  0  0  0  0  0  0  0  0  0  0
    2.0638    1.1945   -0.0092 H   0  0  0  0  0  0  0  0  0  0  0  0
  1  5  1  0
  5  8  1  0
  1  2  1  0
  1  3  1  0
  1  4  1  0
  5  6  1  0
  5  7  1  0
  8  9  1  0
  8 10  1  0
  8 11  1  0
 12 16  1  0
 16 17  2  0
 17 19  1  0
 19 21  2  0
 21 23  1  0
 23 25  2  0
 25 16  1  0
 12 13  1  0
 12 14  1  0
 12 15  1  0
 17 18  1  0
 19 20  1  0
 21 22  1  0
 23 24  1  0
 25 26  1  0
M  CHG  1   8   1
M  END
>  <PDB_ID>  (1608) 
pdb1zuw

>  <RESIDUE_NAME>  (1608) 
LYS   PHE

>  <FRAG_NAME>  (1608) 
ETAM   MBZ

>  <FRAG_ATOM_NUM>  (1608) 
fragi: 11  fragj: 15

>  <atom.prop.CHAIN_ID>  (1608) 
A A A A A A A A A A A Z Z Z Z Z Z Z Z Z Z Z Z Z Z Z

>  <atom.prop.IS_HEAVY_ATOM>  (1608) 
1 0 0 0 1 0 0 1 0 0 0 1 0 0 0 1 1 0 1 0 1 0 1 0 1 0

>  <DIFUSE_FUNC_ATOM>  (1608) 
n/a

>  <FINAL_SINGLE_POINT_ENERGY>  (1608) 
0

>  <NONCOV_INTER_ENERGY_QM>  (1608) 
0

>  <FF_Energy>  (1608) 
-2.94

>  <QM_Energy>  (1608) 
-8.14

>  <source>  (1608) 
ETAM_MBZ

>  <Index>  (1608) 
16121

$$$$
ETAM-pdb1zoy-B-LYS-177:MBZ-pdb1zoy-B-PHE-210
     RDKit          3D

 26 25  0  0  0  0  0  0  0  0999 V2000
    0.0865    0.8168    4.7088 C   0  0  0  0  0  0  0  0  0  0  0  0
    0.7766    0.5943    5.3900 H   0  0  0  0  0  0  0  0  0  0  0  0
   -0.8198    0.5800    5.0439 H   0  0  0  0  0  0  0  0  0  0  0  0
    0.1209    1.8878    4.5097 H   0  0  0  0  0  0  0  0  0  0  0  0
    0.3660    0.0010    3.4521 C   0  0  0  0  0  0  0  0  0  0  0  0
   -0.3461    0.1968    2.7723 H   0  0  0  0  0  0  0  0  0  0  0  0
    1.2563    0.2753    3.0773 H   0  0  0  0  0  0  0  0  0  0  0  0
    0.3850   -1.4687    3.7279 N   0  0  0  0  0  4  0  0  0  0  0  0
   -0.0269   -1.9523    2.9571 H   0  0  0  0  0  0  0  0  0  0  0  0
    1.3298   -1.7679    3.8484 H   0  0  0  0  0  0  0  0  0  0  0  0
   -0.1355   -1.6533    4.5591 H   0  0  0  0  0  0  0  0  0  0  0  0
   -0.0048    2.8939   -0.0701 C   0  0  0  0  0  0  0  0  0  0  0  0
    0.8313    3.2260    0.3389 H   0  0  0  0  0  0  0  0  0  0  0  0
   -0.8002    3.2259    0.4127 H   0  0  0  0  0  0  0  0  0  0  0  0
   -0.0509    3.2817   -1.0877 H   0  0  0  0  0  0  0  0  0  0  0  0
   -0.0012    1.4017   -0.0012 C   0  0  0  0  0  0  0  0  0  0  0  0
   -1.1955    0.6922    0.0011 C   0  0  0  0  0  0  0  0  0  0  0  0
   -2.0634    1.1825    0.0027 H   0  0  0  0  0  0  0  0  0  0  0  0
   -1.2001   -0.6968    0.0000 C   0  0  0  0  0  0  0  0  0  0  0  0
   -2.0771   -1.1906    0.0013 H   0  0  0  0  0  0  0  0  0  0  0  0
    0.0007   -1.3958   -0.0012 C   0  0  0  0  0  0  0  0  0  0  0  0
   -0.0047   -2.3934   -0.0031 H   0  0  0  0  0  0  0  0  0  0  0  0
    1.2001   -0.6997    0.0000 C   0  0  0  0  0  0  0  0  0  0  0  0
    2.0824   -1.1932    0.0015 H   0  0  0  0  0  0  0  0  0  0  0  0
    1.1960    0.6983    0.0013 C   0  0  0  0  0  0  0  0  0  0  0  0
    2.0640    1.1909    0.0033 H   0  0  0  0  0  0  0  0  0  0  0  0
  1  5  1  0
  5  8  1  0
  1  2  1  0
  1  3  1  0
  1  4  1  0
  5  6  1  0
  5  7  1  0
  8  9  1  0
  8 10  1  0
  8 11  1  0
 12 16  1  0
 16 17  2  0
 17 19  1  0
 19 21  2  0
 21 23  1  0
 23 25  2  0
 25 16  1  0
 12 13  1  0
 12 14  1  0
 12 15  1  0
 17 18  1  0
 19 20  1  0
 21 22  1  0
 23 24  1  0
 25 26  1  0
M  CHG  1   8   1
M  END
>  <PDB_ID>  (1609) 
pdb1zoy

>  <RESIDUE_NAME>  (1609) 
LYS   PHE

>  <FRAG_NAME>  (1609) 
ETAM   MBZ

>  <FRAG_ATOM_NUM>  (1609) 
fragi: 11  fragj: 15

>  <atom.prop.CHAIN_ID>  (1609) 
A A A A A A A A A A A Z Z Z Z Z Z Z Z Z Z Z Z Z Z Z

>  <atom.prop.IS_HEAVY_ATOM>  (1609) 
1 0 0 0 1 0 0 1 0 0 0 1 0 0 0 1 1 0 1 0 1 0 1 0 1 0

>  <DIFUSE_FUNC_ATOM>  (1609) 
n/a

>  <FINAL_SINGLE_POINT_ENERGY>  (1609) 
0

>  <NONCOV_INTER_ENERGY_QM>  (1609) 
0

>  <FF_Energy>  (1609) 
-6.46

>  <QM_Energy>  (1609) 
-12.04

>  <source>  (1609) 
ETAM_MBZ

>  <Index>  (1609) 
16141

$$$$
ETAM-pdb1zoy-B-LYS-130:MBZ-pdb1zoy-B-PHE-198
     RDKit          3D

 26 25  0  0  0  0  0  0  0  0999 V2000
    0.2143    0.4373   -4.7462 C   0  0  0  0  0  0  0  0  0  0  0  0
    0.0170   -0.5397   -4.6831 H   0  0  0  0  0  0  0  0  0  0  0  0
    0.6849    0.6316   -5.6044 H   0  0  0  0  0  0  0  0  0  0  0  0
   -0.7285    0.9841   -4.7336 H   0  0  0  0  0  0  0  0  0  0  0  0
    1.1247    0.8251   -3.5948 C   0  0  0  0  0  0  0  0  0  0  0  0
    1.4242    1.7754   -3.7188 H   0  0  0  0  0  0  0  0  0  0  0  0
    0.6120    0.7579   -2.7332 H   0  0  0  0  0  0  0  0  0  0  0  0
    2.3320   -0.0553   -3.5090 N   0  0  0  0  0  4  0  0  0  0  0  0
    2.0908   -0.9730   -3.8186 H   0  0  0  0  0  0  0  0  0  0  0  0
    3.0514    0.3190   -4.0901 H   0  0  0  0  0  0  0  0  0  0  0  0
    2.6462   -0.0893   -2.5618 H   0  0  0  0  0  0  0  0  0  0  0  0
    0.0065    2.8910   -0.0074 C   0  0  0  0  0  0  0  0  0  0  0  0
   -0.4642    3.1975   -0.8216 H   0  0  0  0  0  0  0  0  0  0  0  0
    0.9477    3.1958   -0.0006 H   0  0  0  0  0  0  0  0  0  0  0  0
   -0.4941    3.3309    0.8551 H   0  0  0  0  0  0  0  0  0  0  0  0
    0.0003    1.3994   -0.0004 C   0  0  0  0  0  0  0  0  0  0  0  0
   -1.2007    0.6972    0.0003 C   0  0  0  0  0  0  0  0  0  0  0  0
   -2.0630    1.1926   -0.0004 H   0  0  0  0  0  0  0  0  0  0  0  0
   -1.2069   -0.6868    0.0000 C   0  0  0  0  0  0  0  0  0  0  0  0
   -2.0818   -1.1854    0.0011 H   0  0  0  0  0  0  0  0  0  0  0  0
   -0.0000   -1.3960   -0.0003 C   0  0  0  0  0  0  0  0  0  0  0  0
   -0.0136   -2.3923   -0.0010 H   0  0  0  0  0  0  0  0  0  0  0  0
    1.2069   -0.7057   -0.0000 C   0  0  0  0  0  0  0  0  0  0  0  0
    2.0841   -1.2017    0.0015 H   0  0  0  0  0  0  0  0  0  0  0  0
    1.2004    0.6920    0.0004 C   0  0  0  0  0  0  0  0  0  0  0  0
    2.0671    1.1871    0.0005 H   0  0  0  0  0  0  0  0  0  0  0  0
  1  5  1  0
  5  8  1  0
  1  2  1  0
  1  3  1  0
  1  4  1  0
  5  6  1  0
  5  7  1  0
  8  9  1  0
  8 10  1  0
  8 11  1  0
 12 16  1  0
 16 17  2  0
 17 19  1  0
 19 21  2  0
 21 23  1  0
 23 25  2  0
 25 16  1  0
 12 13  1  0
 12 14  1  0
 12 15  1  0
 17 18  1  0
 19 20  1  0
 21 22  1  0
 23 24  1  0
 25 26  1  0
M  CHG  1   8   1
M  END
>  <PDB_ID>  (1610) 
pdb1zoy

>  <RESIDUE_NAME>  (1610) 
LYS   PHE

>  <FRAG_NAME>  (1610) 
ETAM   MBZ

>  <FRAG_ATOM_NUM>  (1610) 
fragi: 11  fragj: 15

>  <atom.prop.CHAIN_ID>  (1610) 
A A A A A A A A A A A Z Z Z Z Z Z Z Z Z Z Z Z Z Z Z

>  <atom.prop.IS_HEAVY_ATOM>  (1610) 
1 0 0 0 1 0 0 1 0 0 0 1 0 0 0 1 1 0 1 0 1 0 1 0 1 0

>  <DIFUSE_FUNC_ATOM>  (1610) 
n/a

>  <FINAL_SINGLE_POINT_ENERGY>  (1610) 
0

>  <NONCOV_INTER_ENERGY_QM>  (1610) 
0

>  <FF_Energy>  (1610) 
-5.06

>  <QM_Energy>  (1610) 
-10.27

>  <source>  (1610) 
ETAM_MBZ

>  <Index>  (1610) 
16143

$$$$
ETAM-pdb3djd-A-LYS-82:MBZ-pdb3djd-A-PHE-78
     RDKit          3D

 26 25  0  0  0  0  0  0  0  0999 V2000
    1.6938   -2.4253    3.5637 C   0  0  0  0  0  0  0  0  0  0  0  0
    1.6913   -2.6516    4.5357 H   0  0  0  0  0  0  0  0  0  0  0  0
    0.7974   -2.6133    3.1687 H   0  0  0  0  0  0  0  0  0  0  0  0
    1.8834   -1.3559    3.4706 H   0  0  0  0  0  0  0  0  0  0  0  0
    2.7428   -3.3339    2.8517 C   0  0  0  0  0  0  0  0  0  0  0  0
    3.5622   -2.7794    2.6455 H   0  0  0  0  0  0  0  0  0  0  0  0
    3.0199   -4.0672    3.4889 H   0  0  0  0  0  0  0  0  0  0  0  0
    2.2758   -4.0013    1.5329 N   0  0  0  0  0  4  0  0  0  0  0  0
    1.9111   -4.8926    1.7598 H   0  0  0  0  0  0  0  0  0  0  0  0
    1.5808   -3.4212    1.1321 H   0  0  0  0  0  0  0  0  0  0  0  0
    3.0644   -4.0777    0.9394 H   0  0  0  0  0  0  0  0  0  0  0  0
   -0.0044    2.9085    0.0002 C   0  0  0  0  0  0  0  0  0  0  0  0
   -0.5953    3.2190   -0.7219 H   0  0  0  0  0  0  0  0  0  0  0  0
    0.9202    3.2210   -0.1140 H   0  0  0  0  0  0  0  0  0  0  0  0
   -0.3812    3.3152    0.9386 H   0  0  0  0  0  0  0  0  0  0  0  0
    0.0037    1.4045   -0.0143 C   0  0  0  0  0  0  0  0  0  0  0  0
   -1.1969    0.6908   -0.0071 C   0  0  0  0  0  0  0  0  0  0  0  0
   -2.0632    1.1831   -0.0077 H   0  0  0  0  0  0  0  0  0  0  0  0
   -1.2059   -0.7028    0.0000 C   0  0  0  0  0  0  0  0  0  0  0  0
   -2.0846   -1.1908   -0.0042 H   0  0  0  0  0  0  0  0  0  0  0  0
   -0.0098   -1.3950    0.0147 C   0  0  0  0  0  0  0  0  0  0  0  0
   -0.0091   -2.3962    0.0356 H   0  0  0  0  0  0  0  0  0  0  0  0
    1.2059   -0.7026    0.0000 C   0  0  0  0  0  0  0  0  0  0  0  0
    2.0803   -1.1984   -0.0137 H   0  0  0  0  0  0  0  0  0  0  0  0
    1.2031    0.7051    0.0067 C   0  0  0  0  0  0  0  0  0  0  0  0
    2.0690    1.1928    0.0264 H   0  0  0  0  0  0  0  0  0  0  0  0
  1  5  1  0
  5  8  1  0
  1  2  1  0
  1  3  1  0
  1  4  1  0
  5  6  1  0
  5  7  1  0
  8  9  1  0
  8 10  1  0
  8 11  1  0
 12 16  1  0
 16 17  2  0
 17 19  1  0
 19 21  2  0
 21 23  1  0
 23 25  2  0
 25 16  1  0
 12 13  1  0
 12 14  1  0
 12 15  1  0
 17 18  1  0
 19 20  1  0
 21 22  1  0
 23 24  1  0
 25 26  1  0
M  CHG  1   8   1
M  END
>  <PDB_ID>  (1611) 
pdb3djd

>  <RESIDUE_NAME>  (1611) 
LYS   PHE

>  <FRAG_NAME>  (1611) 
ETAM   MBZ

>  <FRAG_ATOM_NUM>  (1611) 
fragi: 11  fragj: 15

>  <atom.prop.CHAIN_ID>  (1611) 
A A A A A A A A A A A Z Z Z Z Z Z Z Z Z Z Z Z Z Z Z

>  <atom.prop.IS_HEAVY_ATOM>  (1611) 
1 0 0 0 1 0 0 1 0 0 0 1 0 0 0 1 1 0 1 0 1 0 1 0 1 0

>  <DIFUSE_FUNC_ATOM>  (1611) 
n/a

>  <FINAL_SINGLE_POINT_ENERGY>  (1611) 
0

>  <NONCOV_INTER_ENERGY_QM>  (1611) 
0

>  <FF_Energy>  (1611) 
-0.41

>  <QM_Energy>  (1611) 
-5.86

>  <source>  (1611) 
ETAM_MBZ

>  <Index>  (1611) 
16146

$$$$
ETAM-pdb3dli-A-ASP-253:MBZ-pdb3dli-A-PHE-256
     RDKit          3D

 26 25  0  0  0  0  0  0  0  0999 V2000
    4.7108    1.6661    0.2858 C   0  0  0  0  0  0  0  0  0  0  0  0
    4.9124    1.3227    1.1957 H   0  0  0  0  0  0  0  0  0  0  0  0
    3.7377    1.6037    0.0982 H   0  0  0  0  0  0  0  0  0  0  0  0
    5.2503    1.0638   -0.4451 H   0  0  0  0  0  0  0  0  0  0  0  0
    5.1086    3.1383    0.2367 C   0  0  0  0  0  0  0  0  0  0  0  0
    6.0972    3.2668    0.1887 H   0  0  0  0  0  0  0  0  0  0  0  0
    4.6746    3.6097   -0.6452 H   0  0  0  0  0  0  0  0  0  0  0  0
    4.6479    3.8476    1.4691 N   0  0  0  0  0  4  0  0  0  0  0  0
    5.2541    4.6181    1.6461 H   0  0  0  0  0  0  0  0  0  0  0  0
    3.7174    4.1743    1.3275 H   0  0  0  0  0  0  0  0  0  0  0  0
    4.6713    3.2130    2.2364 H   0  0  0  0  0  0  0  0  0  0  0  0
   -0.0038    2.9046   -0.0683 C   0  0  0  0  0  0  0  0  0  0  0  0
    0.9076    3.2249    0.1427 H   0  0  0  0  0  0  0  0  0  0  0  0
   -0.6649    3.2409    0.5851 H   0  0  0  0  0  0  0  0  0  0  0  0
   -0.2762    3.2947   -1.0490 H   0  0  0  0  0  0  0  0  0  0  0  0
    0.0000    1.4095   -0.0012 C   0  0  0  0  0  0  0  0  0  0  0  0
   -1.2041    0.6975    0.0011 C   0  0  0  0  0  0  0  0  0  0  0  0
   -2.0686    1.1886    0.0028 H   0  0  0  0  0  0  0  0  0  0  0  0
   -1.2122   -0.7004   -0.0000 C   0  0  0  0  0  0  0  0  0  0  0  0
   -2.0861   -1.1914    0.0023 H   0  0  0  0  0  0  0  0  0  0  0  0
   -0.0034   -1.4039   -0.0021 C   0  0  0  0  0  0  0  0  0  0  0  0
   -0.0067   -2.3985   -0.0057 H   0  0  0  0  0  0  0  0  0  0  0  0
    1.2122   -0.7025    0.0000 C   0  0  0  0  0  0  0  0  0  0  0  0
    2.0870   -1.1999    0.0013 H   0  0  0  0  0  0  0  0  0  0  0  0
    1.2075    0.6997    0.0022 C   0  0  0  0  0  0  0  0  0  0  0  0
    2.0710    1.1948    0.0057 H   0  0  0  0  0  0  0  0  0  0  0  0
  1  5  1  0
  5  8  1  0
  1  2  1  0
  1  3  1  0
  1  4  1  0
  5  6  1  0
  5  7  1  0
  8  9  1  0
  8 10  1  0
  8 11  1  0
 12 16  1  0
 16 17  2  0
 17 19  1  0
 19 21  2  0
 21 23  1  0
 23 25  2  0
 25 16  1  0
 12 13  1  0
 12 14  1  0
 12 15  1  0
 17 18  1  0
 19 20  1  0
 21 22  1  0
 23 24  1  0
 25 26  1  0
M  CHG  1   8   1
M  END
>  <PDB_ID>  (1612) 
pdb3dli

>  <RESIDUE_NAME>  (1612) 
ASP   PHE

>  <FRAG_NAME>  (1612) 
ETAM   MBZ

>  <FRAG_ATOM_NUM>  (1612) 
fragi: 11  fragj: 15

>  <atom.prop.CHAIN_ID>  (1612) 
A A A A A A A A A A A Z Z Z Z Z Z Z Z Z Z Z Z Z Z Z

>  <atom.prop.IS_HEAVY_ATOM>  (1612) 
1 0 0 0 1 0 0 1 0 0 0 1 0 0 0 1 1 0 1 0 1 0 1 0 1 0

>  <DIFUSE_FUNC_ATOM>  (1612) 
n/a

>  <FINAL_SINGLE_POINT_ENERGY>  (1612) 
0

>  <NONCOV_INTER_ENERGY_QM>  (1612) 
0

>  <FF_Energy>  (1612) 
5.52

>  <QM_Energy>  (1612) 
0.23

>  <source>  (1612) 
ETAM_MBZ

>  <Index>  (1612) 
16171

$$$$
ETAM-pdb3djd-B-LYS-276:MBZ-pdb3djd-B-PHE-266
     RDKit          3D

 26 25  0  0  0  0  0  0  0  0999 V2000
    5.2627   -0.3817    2.2663 C   0  0  0  0  0  0  0  0  0  0  0  0
    5.7318   -0.0936    1.4270 H   0  0  0  0  0  0  0  0  0  0  0  0
    5.8012   -1.1067    2.7061 H   0  0  0  0  0  0  0  0  0  0  0  0
    5.1654    0.4675    2.9428 H   0  0  0  0  0  0  0  0  0  0  0  0
    3.9153   -0.9862    1.8613 C   0  0  0  0  0  0  0  0  0  0  0  0
    3.2982   -0.2264    1.5827 H   0  0  0  0  0  0  0  0  0  0  0  0
    4.0619   -1.5611    1.0340 H   0  0  0  0  0  0  0  0  0  0  0  0
    3.2511   -1.7957    2.9050 N   0  0  0  0  0  4  0  0  0  0  0  0
    3.7320   -2.6677    3.0123 H   0  0  0  0  0  0  0  0  0  0  0  0
    3.2657   -1.3006    3.7744 H   0  0  0  0  0  0  0  0  0  0  0  0
    2.3020   -1.9726    2.6408 H   0  0  0  0  0  0  0  0  0  0  0  0
   -0.0184    2.9024    0.0218 C   0  0  0  0  0  0  0  0  0  0  0  0
    0.7459    3.2130    0.5696 H   0  0  0  0  0  0  0  0  0  0  0  0
   -0.8791    3.2051    0.4077 H   0  0  0  0  0  0  0  0  0  0  0  0
    0.0778    3.3571   -0.9641 H   0  0  0  0  0  0  0  0  0  0  0  0
   -0.0097    1.4056    0.0115 C   0  0  0  0  0  0  0  0  0  0  0  0
   -1.2075    0.6985    0.0032 C   0  0  0  0  0  0  0  0  0  0  0  0
   -2.0750    1.1842   -0.0021 H   0  0  0  0  0  0  0  0  0  0  0  0
   -1.2183   -0.7088    0.0000 C   0  0  0  0  0  0  0  0  0  0  0  0
   -2.0803   -1.2020    0.0128 H   0  0  0  0  0  0  0  0  0  0  0  0
    0.0099   -1.4004   -0.0200 C   0  0  0  0  0  0  0  0  0  0  0  0
    0.0116   -2.3958   -0.0490 H   0  0  0  0  0  0  0  0  0  0  0  0
    1.2183   -0.6907   -0.0000 C   0  0  0  0  0  0  0  0  0  0  0  0
    2.0972   -1.1906    0.0121 H   0  0  0  0  0  0  0  0  0  0  0  0
    1.2073    0.6959    0.0053 C   0  0  0  0  0  0  0  0  0  0  0  0
    2.0645    1.2050    0.0037 H   0  0  0  0  0  0  0  0  0  0  0  0
  1  5  1  0
  5  8  1  0
  1  2  1  0
  1  3  1  0
  1  4  1  0
  5  6  1  0
  5  7  1  0
  8  9  1  0
  8 10  1  0
  8 11  1  0
 12 16  1  0
 16 17  2  0
 17 19  1  0
 19 21  2  0
 21 23  1  0
 23 25  2  0
 25 16  1  0
 12 13  1  0
 12 14  1  0
 12 15  1  0
 17 18  1  0
 19 20  1  0
 21 22  1  0
 23 24  1  0
 25 26  1  0
M  CHG  1   8   1
M  END
>  <PDB_ID>  (1613) 
pdb3djd

>  <RESIDUE_NAME>  (1613) 
LYS   PHE

>  <FRAG_NAME>  (1613) 
ETAM   MBZ

>  <FRAG_ATOM_NUM>  (1613) 
fragi: 11  fragj: 15

>  <atom.prop.CHAIN_ID>  (1613) 
A A A A A A A A A A A Z Z Z Z Z Z Z Z Z Z Z Z Z Z Z

>  <atom.prop.IS_HEAVY_ATOM>  (1613) 
1 0 0 0 1 0 0 1 0 0 0 1 0 0 0 1 1 0 1 0 1 0 1 0 1 0

>  <DIFUSE_FUNC_ATOM>  (1613) 
n/a

>  <FINAL_SINGLE_POINT_ENERGY>  (1613) 
0

>  <NONCOV_INTER_ENERGY_QM>  (1613) 
0

>  <FF_Energy>  (1613) 
-0.14

>  <QM_Energy>  (1613) 
-5.34

>  <source>  (1613) 
ETAM_MBZ

>  <Index>  (1613) 
16205

$$$$
ETAM-pdb3dkb-A-LYS-6299:MBZ-pdb3dkb-A-PHE-6152
     RDKit          3D

 26 25  0  0  0  0  0  0  0  0999 V2000
    3.1324   -0.0498   -2.5551 C   0  0  0  0  0  0  0  0  0  0  0  0
    2.4968   -0.2506   -3.2940 H   0  0  0  0  0  0  0  0  0  0  0  0
    2.8307   -0.4858   -1.7130 H   0  0  0  0  0  0  0  0  0  0  0  0
    4.1221   -0.4215   -2.8206 H   0  0  0  0  0  0  0  0  0  0  0  0
    3.1322    1.4729   -2.3282 C   0  0  0  0  0  0  0  0  0  0  0  0
    3.7169    1.9006   -3.0222 H   0  0  0  0  0  0  0  0  0  0  0  0
    2.1951    1.8131   -2.4395 H   0  0  0  0  0  0  0  0  0  0  0  0
    3.6334    1.8550   -0.9628 N   0  0  0  0  0  4  0  0  0  0  0  0
    3.1931    1.2752   -0.2823 H   0  0  0  0  0  0  0  0  0  0  0  0
    4.6217    1.7250   -0.9330 H   0  0  0  0  0  0  0  0  0  0  0  0
    3.4100    2.8117   -0.7922 H   0  0  0  0  0  0  0  0  0  0  0  0
    0.0103    2.9031    0.0416 C   0  0  0  0  0  0  0  0  0  0  0  0
   -0.7235    3.2321   -0.5323 H   0  0  0  0  0  0  0  0  0  0  0  0
    0.8903    3.2136   -0.2826 H   0  0  0  0  0  0  0  0  0  0  0  0
   -0.1394    3.3152    1.0395 H   0  0  0  0  0  0  0  0  0  0  0  0
    0.0001    1.4017    0.0002 C   0  0  0  0  0  0  0  0  0  0  0  0
   -1.1971    0.6952   -0.0006 C   0  0  0  0  0  0  0  0  0  0  0  0
   -2.0630    1.1849   -0.0033 H   0  0  0  0  0  0  0  0  0  0  0  0
   -1.2015   -0.6958    0.0000 C   0  0  0  0  0  0  0  0  0  0  0  0
   -2.0771   -1.1906    0.0016 H   0  0  0  0  0  0  0  0  0  0  0  0
    0.0027   -1.3927    0.0010 C   0  0  0  0  0  0  0  0  0  0  0  0
   -0.0045   -2.3918    0.0014 H   0  0  0  0  0  0  0  0  0  0  0  0
    1.2015   -0.6989   -0.0000 C   0  0  0  0  0  0  0  0  0  0  0  0
    2.0831   -1.1954    0.0014 H   0  0  0  0  0  0  0  0  0  0  0  0
    1.1944    0.6905   -0.0006 C   0  0  0  0  0  0  0  0  0  0  0  0
    2.0647    1.1883   -0.0024 H   0  0  0  0  0  0  0  0  0  0  0  0
  1  5  1  0
  5  8  1  0
  1  2  1  0
  1  3  1  0
  1  4  1  0
  5  6  1  0
  5  7  1  0
  8  9  1  0
  8 10  1  0
  8 11  1  0
 12 16  1  0
 16 17  2  0
 17 19  1  0
 19 21  2  0
 21 23  1  0
 23 25  2  0
 25 16  1  0
 12 13  1  0
 12 14  1  0
 12 15  1  0
 17 18  1  0
 19 20  1  0
 21 22  1  0
 23 24  1  0
 25 26  1  0
M  CHG  1   8   1
M  END
>  <PDB_ID>  (1614) 
pdb3dkb

>  <RESIDUE_NAME>  (1614) 
LYS   PHE

>  <FRAG_NAME>  (1614) 
ETAM   MBZ

>  <FRAG_ATOM_NUM>  (1614) 
fragi: 11  fragj: 15

>  <atom.prop.CHAIN_ID>  (1614) 
A A A A A A A A A A A Z Z Z Z Z Z Z Z Z Z Z Z Z Z Z

>  <atom.prop.IS_HEAVY_ATOM>  (1614) 
1 0 0 0 1 0 0 1 0 0 0 1 0 0 0 1 1 0 1 0 1 0 1 0 1 0

>  <DIFUSE_FUNC_ATOM>  (1614) 
n/a

>  <FINAL_SINGLE_POINT_ENERGY>  (1614) 
0

>  <NONCOV_INTER_ENERGY_QM>  (1614) 
0

>  <FF_Energy>  (1614) 
36.1

>  <QM_Energy>  (1614) 
10.83

>  <source>  (1614) 
ETAM_MBZ

>  <Index>  (1614) 
16207

$$$$
ETAM-pdb3dnf-B-LYS-33:MBZ-pdb3dnf-B-PHE-56
     RDKit          3D

 26 25  0  0  0  0  0  0  0  0999 V2000
    2.5657    0.2757    3.9177 C   0  0  0  0  0  0  0  0  0  0  0  0
    2.6248   -0.7115    4.0153 H   0  0  0  0  0  0  0  0  0  0  0  0
    2.6435    0.7203    4.8025 H   0  0  0  0  0  0  0  0  0  0  0  0
    3.3749    0.6191    3.2732 H   0  0  0  0  0  0  0  0  0  0  0  0
    1.2027    0.6207    3.3231 C   0  0  0  0  0  0  0  0  0  0  0  0
    1.0620    1.6113    3.3962 H   0  0  0  0  0  0  0  0  0  0  0  0
    1.2009    0.3638    2.3528 H   0  0  0  0  0  0  0  0  0  0  0  0
    0.1025   -0.0857    4.0209 N   0  0  0  0  0  4  0  0  0  0  0  0
   -0.5515    0.5822    4.3764 H   0  0  0  0  0  0  0  0  0  0  0  0
   -0.3623   -0.6972    3.3793 H   0  0  0  0  0  0  0  0  0  0  0  0
    0.4761   -0.6207    4.7795 H   0  0  0  0  0  0  0  0  0  0  0  0
   -0.0447    2.9249   -0.0056 C   0  0  0  0  0  0  0  0  0  0  0  0
    0.7647    3.2475    0.4538 H   0  0  0  0  0  0  0  0  0  0  0  0
   -0.8679    3.2064    0.4554 H   0  0  0  0  0  0  0  0  0  0  0  0
   -0.0565    3.3468   -1.0106 H   0  0  0  0  0  0  0  0  0  0  0  0
   -0.0064    1.3999    0.0136 C   0  0  0  0  0  0  0  0  0  0  0  0
   -1.1899    0.6852   -0.0115 C   0  0  0  0  0  0  0  0  0  0  0  0
   -2.0644    1.1786   -0.0401 H   0  0  0  0  0  0  0  0  0  0  0  0
   -1.2026   -0.6969    0.0000 C   0  0  0  0  0  0  0  0  0  0  0  0
   -2.0816   -1.1884    0.0020 H   0  0  0  0  0  0  0  0  0  0  0  0
   -0.0079   -1.3920    0.0111 C   0  0  0  0  0  0  0  0  0  0  0  0
   -0.0063   -2.3900    0.0267 H   0  0  0  0  0  0  0  0  0  0  0  0
    1.2026   -0.6933    0.0000 C   0  0  0  0  0  0  0  0  0  0  0  0
    2.0794   -1.1977    0.0028 H   0  0  0  0  0  0  0  0  0  0  0  0
    1.2043    0.6972   -0.0132 C   0  0  0  0  0  0  0  0  0  0  0  0
    2.0627    1.1957   -0.0426 H   0  0  0  0  0  0  0  0  0  0  0  0
  1  5  1  0
  5  8  1  0
  1  2  1  0
  1  3  1  0
  1  4  1  0
  5  6  1  0
  5  7  1  0
  8  9  1  0
  8 10  1  0
  8 11  1  0
 12 16  1  0
 16 17  2  0
 17 19  1  0
 19 21  2  0
 21 23  1  0
 23 25  2  0
 25 16  1  0
 12 13  1  0
 12 14  1  0
 12 15  1  0
 17 18  1  0
 19 20  1  0
 21 22  1  0
 23 24  1  0
 25 26  1  0
M  CHG  1   8   1
M  END
>  <PDB_ID>  (1615) 
pdb3dnf

>  <RESIDUE_NAME>  (1615) 
LYS   PHE

>  <FRAG_NAME>  (1615) 
ETAM   MBZ

>  <FRAG_ATOM_NUM>  (1615) 
fragi: 11  fragj: 15

>  <atom.prop.CHAIN_ID>  (1615) 
A A A A A A A A A A A Z Z Z Z Z Z Z Z Z Z Z Z Z Z Z

>  <atom.prop.IS_HEAVY_ATOM>  (1615) 
1 0 0 0 1 0 0 1 0 0 0 1 0 0 0 1 1 0 1 0 1 0 1 0 1 0

>  <DIFUSE_FUNC_ATOM>  (1615) 
n/a

>  <FINAL_SINGLE_POINT_ENERGY>  (1615) 
0

>  <NONCOV_INTER_ENERGY_QM>  (1615) 
0

>  <FF_Energy>  (1615) 
-4.27

>  <QM_Energy>  (1615) 
-10.06

>  <source>  (1615) 
ETAM_MBZ

>  <Index>  (1615) 
16227

$$$$
ETAM-pdb1zy4-A-LYS-780:MBZ-pdb1zy4-A-PHE-771
     RDKit          3D

 26 25  0  0  0  0  0  0  0  0999 V2000
   -5.3012    0.5037   -1.6140 C   0  0  0  0  0  0  0  0  0  0  0  0
   -5.0342    1.3989   -1.9517 H   0  0  0  0  0  0  0  0  0  0  0  0
   -6.2356    0.5226   -1.2776 H   0  0  0  0  0  0  0  0  0  0  0  0
   -5.2352   -0.2146   -2.4312 H   0  0  0  0  0  0  0  0  0  0  0  0
   -4.3804    0.1190   -0.4724 C   0  0  0  0  0  0  0  0  0  0  0  0
   -3.4345    0.0991   -0.8079 H   0  0  0  0  0  0  0  0  0  0  0  0
   -4.4516    0.8094    0.2536 H   0  0  0  0  0  0  0  0  0  0  0  0
   -4.7251   -1.2164    0.0922 N   0  0  0  0  0  4  0  0  0  0  0  0
   -4.0599   -1.4585    0.7978 H   0  0  0  0  0  0  0  0  0  0  0  0
   -5.6404   -1.1801    0.4911 H   0  0  0  0  0  0  0  0  0  0  0  0
   -4.7036   -1.8993   -0.6366 H   0  0  0  0  0  0  0  0  0  0  0  0
    0.0042    2.9061   -0.0221 C   0  0  0  0  0  0  0  0  0  0  0  0
   -0.7240    3.2069   -0.6227 H   0  0  0  0  0  0  0  0  0  0  0  0
    0.8876    3.2064   -0.3547 H   0  0  0  0  0  0  0  0  0  0  0  0
   -0.1581    3.3652    0.9530 H   0  0  0  0  0  0  0  0  0  0  0  0
    0.0001    1.4069   -0.0010 C   0  0  0  0  0  0  0  0  0  0  0  0
   -1.1927    0.7016    0.0010 C   0  0  0  0  0  0  0  0  0  0  0  0
   -2.0612    1.1842    0.0018 H   0  0  0  0  0  0  0  0  0  0  0  0
   -1.1949   -0.6995    0.0000 C   0  0  0  0  0  0  0  0  0  0  0  0
   -2.0777   -1.1856    0.0009 H   0  0  0  0  0  0  0  0  0  0  0  0
   -0.0032   -1.3959   -0.0003 C   0  0  0  0  0  0  0  0  0  0  0  0
   -0.0090   -2.3962   -0.0012 H   0  0  0  0  0  0  0  0  0  0  0  0
    1.1949   -0.7062    0.0000 C   0  0  0  0  0  0  0  0  0  0  0  0
    2.0779   -1.2014    0.0019 H   0  0  0  0  0  0  0  0  0  0  0  0
    1.1958    0.6932    0.0003 C   0  0  0  0  0  0  0  0  0  0  0  0
    2.0651    1.1825    0.0008 H   0  0  0  0  0  0  0  0  0  0  0  0
  1  5  1  0
  5  8  1  0
  1  2  1  0
  1  3  1  0
  1  4  1  0
  5  6  1  0
  5  7  1  0
  8  9  1  0
  8 10  1  0
  8 11  1  0
 12 16  1  0
 16 17  2  0
 17 19  1  0
 19 21  2  0
 21 23  1  0
 23 25  2  0
 25 16  1  0
 12 13  1  0
 12 14  1  0
 12 15  1  0
 17 18  1  0
 19 20  1  0
 21 22  1  0
 23 24  1  0
 25 26  1  0
M  CHG  1   8   1
M  END
>  <PDB_ID>  (1616) 
pdb1zy4

>  <RESIDUE_NAME>  (1616) 
LYS   PHE

>  <FRAG_NAME>  (1616) 
ETAM   MBZ

>  <FRAG_ATOM_NUM>  (1616) 
fragi: 11  fragj: 15

>  <atom.prop.CHAIN_ID>  (1616) 
A A A A A A A A A A A Z Z Z Z Z Z Z Z Z Z Z Z Z Z Z

>  <atom.prop.IS_HEAVY_ATOM>  (1616) 
1 0 0 0 1 0 0 1 0 0 0 1 0 0 0 1 1 0 1 0 1 0 1 0 1 0

>  <DIFUSE_FUNC_ATOM>  (1616) 
n/a

>  <FINAL_SINGLE_POINT_ENERGY>  (1616) 
0

>  <NONCOV_INTER_ENERGY_QM>  (1616) 
0

>  <FF_Energy>  (1616) 
6.68

>  <QM_Energy>  (1616) 
-1.7

>  <source>  (1616) 
ETAM_MBZ

>  <Index>  (1616) 
16232

$$$$
ETAM-pdb3dol-B-LYS-73:MBZ-pdb3dol-B-PHE-130
     RDKit          3D

 26 25  0  0  0  0  0  0  0  0999 V2000
   -0.3206   -3.1065   -5.1207 C   0  0  0  0  0  0  0  0  0  0  0  0
   -0.4027   -4.0979   -5.0381 H   0  0  0  0  0  0  0  0  0  0  0  0
    0.5262   -2.8761   -5.5953 H   0  0  0  0  0  0  0  0  0  0  0  0
   -1.1609   -2.7356   -5.7076 H   0  0  0  0  0  0  0  0  0  0  0  0
   -0.2839   -2.5031   -3.7357 C   0  0  0  0  0  0  0  0  0  0  0  0
    0.5090   -2.8544   -3.2444 H   0  0  0  0  0  0  0  0  0  0  0  0
   -0.2260   -1.5105   -3.8102 H   0  0  0  0  0  0  0  0  0  0  0  0
   -1.5213   -2.8652   -2.9905 N   0  0  0  0  0  4  0  0  0  0  0  0
   -2.0067   -3.5858   -3.4842 H   0  0  0  0  0  0  0  0  0  0  0  0
   -1.2753   -3.1923   -2.0786 H   0  0  0  0  0  0  0  0  0  0  0  0
   -2.1075   -2.0599   -2.9114 H   0  0  0  0  0  0  0  0  0  0  0  0
   -0.0069    2.8963   -0.1038 C   0  0  0  0  0  0  0  0  0  0  0  0
   -0.7773    3.1641   -0.6716 H   0  0  0  0  0  0  0  0  0  0  0  0
    0.8491    3.1822   -0.5210 H   0  0  0  0  0  0  0  0  0  0  0  0
   -0.1006    3.4179    0.8486 H   0  0  0  0  0  0  0  0  0  0  0  0
   -0.0006    1.4077   -0.0015 C   0  0  0  0  0  0  0  0  0  0  0  0
   -1.1985    0.6922    0.0014 C   0  0  0  0  0  0  0  0  0  0  0  0
   -2.0670    1.1784    0.0030 H   0  0  0  0  0  0  0  0  0  0  0  0
   -1.2048   -0.7097    0.0000 C   0  0  0  0  0  0  0  0  0  0  0  0
   -2.0806   -1.1978    0.0031 H   0  0  0  0  0  0  0  0  0  0  0  0
   -0.0017   -1.4032   -0.0033 C   0  0  0  0  0  0  0  0  0  0  0  0
    0.0036   -2.3987   -0.0082 H   0  0  0  0  0  0  0  0  0  0  0  0
    1.2048   -0.6949   -0.0000 C   0  0  0  0  0  0  0  0  0  0  0  0
    2.0862   -1.1890    0.0018 H   0  0  0  0  0  0  0  0  0  0  0  0
    1.2007    0.7078    0.0033 C   0  0  0  0  0  0  0  0  0  0  0  0
    2.0657    1.1992    0.0084 H   0  0  0  0  0  0  0  0  0  0  0  0
  1  5  1  0
  5  8  1  0
  1  2  1  0
  1  3  1  0
  1  4  1  0
  5  6  1  0
  5  7  1  0
  8  9  1  0
  8 10  1  0
  8 11  1  0
 12 16  1  0
 16 17  2  0
 17 19  1  0
 19 21  2  0
 21 23  1  0
 23 25  2  0
 25 16  1  0
 12 13  1  0
 12 14  1  0
 12 15  1  0
 17 18  1  0
 19 20  1  0
 21 22  1  0
 23 24  1  0
 25 26  1  0
M  CHG  1   8   1
M  END
>  <PDB_ID>  (1617) 
pdb3dol

>  <RESIDUE_NAME>  (1617) 
LYS   PHE

>  <FRAG_NAME>  (1617) 
ETAM   MBZ

>  <FRAG_ATOM_NUM>  (1617) 
fragi: 11  fragj: 15

>  <atom.prop.CHAIN_ID>  (1617) 
A A A A A A A A A A A Z Z Z Z Z Z Z Z Z Z Z Z Z Z Z

>  <atom.prop.IS_HEAVY_ATOM>  (1617) 
1 0 0 0 1 0 0 1 0 0 0 1 0 0 0 1 1 0 1 0 1 0 1 0 1 0

>  <DIFUSE_FUNC_ATOM>  (1617) 
n/a

>  <FINAL_SINGLE_POINT_ENERGY>  (1617) 
0

>  <NONCOV_INTER_ENERGY_QM>  (1617) 
0

>  <FF_Energy>  (1617) 
-2.56

>  <QM_Energy>  (1617) 
-7.93

>  <source>  (1617) 
ETAM_MBZ

>  <Index>  (1617) 
16260

$$$$
ETAM-pdb3dme-A-LYS-63:MBZ-pdb3dme-A-PHE-329
     RDKit          3D

 26 25  0  0  0  0  0  0  0  0999 V2000
   -1.3228   -0.3536   -4.5538 C   0  0  0  0  0  0  0  0  0  0  0  0
   -1.2212    0.1807   -5.3853 H   0  0  0  0  0  0  0  0  0  0  0  0
   -1.3671   -1.3232   -4.7635 H   0  0  0  0  0  0  0  0  0  0  0  0
   -0.4489   -0.1784   -3.9262 H   0  0  0  0  0  0  0  0  0  0  0  0
   -2.6171    0.0598   -3.8566 C   0  0  0  0  0  0  0  0  0  0  0  0
   -2.6262    1.0566   -3.7801 H   0  0  0  0  0  0  0  0  0  0  0  0
   -3.3863   -0.2369   -4.4223 H   0  0  0  0  0  0  0  0  0  0  0  0
   -2.6917   -0.5494   -2.5413 N   0  0  0  0  0  4  0  0  0  0  0  0
   -3.0967    0.0926   -1.8806 H   0  0  0  0  0  0  0  0  0  0  0  0
   -3.2603   -1.3786   -2.5715 H   0  0  0  0  0  0  0  0  0  0  0  0
   -1.7722   -0.8024   -2.2199 H   0  0  0  0  0  0  0  0  0  0  0  0
    0.0432    2.9069    0.0128 C   0  0  0  0  0  0  0  0  0  0  0  0
    0.8433    3.1924   -0.5029 H   0  0  0  0  0  0  0  0  0  0  0  0
    0.1195    3.1958    0.9609 H   0  0  0  0  0  0  0  0  0  0  0  0
   -0.8249    3.4059   -0.4179 H   0  0  0  0  0  0  0  0  0  0  0  0
   -0.0037    1.3971   -0.0065 C   0  0  0  0  0  0  0  0  0  0  0  0
   -1.1918    0.6976   -0.0007 C   0  0  0  0  0  0  0  0  0  0  0  0
   -2.0609    1.1827    0.0020 H   0  0  0  0  0  0  0  0  0  0  0  0
   -1.1911   -0.6920    0.0000 C   0  0  0  0  0  0  0  0  0  0  0  0
   -2.0673   -1.1890   -0.0072 H   0  0  0  0  0  0  0  0  0  0  0  0
    0.0114   -1.3889    0.0121 C   0  0  0  0  0  0  0  0  0  0  0  0
   -0.0019   -2.3897    0.0289 H   0  0  0  0  0  0  0  0  0  0  0  0
    1.1911   -0.7003   -0.0000 C   0  0  0  0  0  0  0  0  0  0  0  0
    2.0816   -1.1910   -0.0037 H   0  0  0  0  0  0  0  0  0  0  0  0
    1.1841    0.6865   -0.0049 C   0  0  0  0  0  0  0  0  0  0  0  0
    2.0568    1.1830   -0.0083 H   0  0  0  0  0  0  0  0  0  0  0  0
  1  5  1  0
  5  8  1  0
  1  2  1  0
  1  3  1  0
  1  4  1  0
  5  6  1  0
  5  7  1  0
  8  9  1  0
  8 10  1  0
  8 11  1  0
 12 16  1  0
 16 17  2  0
 17 19  1  0
 19 21  2  0
 21 23  1  0
 23 25  2  0
 25 16  1  0
 12 13  1  0
 12 14  1  0
 12 15  1  0
 17 18  1  0
 19 20  1  0
 21 22  1  0
 23 24  1  0
 25 26  1  0
M  CHG  1   8   1
M  END
>  <PDB_ID>  (1618) 
pdb3dme

>  <RESIDUE_NAME>  (1618) 
LYS   PHE

>  <FRAG_NAME>  (1618) 
ETAM   MBZ

>  <FRAG_ATOM_NUM>  (1618) 
fragi: 11  fragj: 15

>  <atom.prop.CHAIN_ID>  (1618) 
A A A A A A A A A A A Z Z Z Z Z Z Z Z Z Z Z Z Z Z Z

>  <atom.prop.IS_HEAVY_ATOM>  (1618) 
1 0 0 0 1 0 0 1 0 0 0 1 0 0 0 1 1 0 1 0 1 0 1 0 1 0

>  <DIFUSE_FUNC_ATOM>  (1618) 
n/a

>  <FINAL_SINGLE_POINT_ENERGY>  (1618) 
0

>  <NONCOV_INTER_ENERGY_QM>  (1618) 
0

>  <FF_Energy>  (1618) 
-2.29

>  <QM_Energy>  (1618) 
-10.12

>  <source>  (1618) 
ETAM_MBZ

>  <Index>  (1618) 
16264

$$$$
ETAM-pdb3dol-A-LYS-46:MBZ-pdb3dol-A-PHE-116
     RDKit          3D

 26 25  0  0  0  0  0  0  0  0999 V2000
    2.0953    2.8167    4.0375 C   0  0  0  0  0  0  0  0  0  0  0  0
    2.6191    3.5925    3.6917 H   0  0  0  0  0  0  0  0  0  0  0  0
    2.6868    2.2208    4.5751 H   0  0  0  0  0  0  0  0  0  0  0  0
    1.2944    3.1893    4.6761 H   0  0  0  0  0  0  0  0  0  0  0  0
    1.5635    2.0252    2.8498 C   0  0  0  0  0  0  0  0  0  0  0  0
    0.9101    2.6046    2.3378 H   0  0  0  0  0  0  0  0  0  0  0  0
    2.3338    1.8138    2.2274 H   0  0  0  0  0  0  0  0  0  0  0  0
    0.8803    0.7441    3.2203 N   0  0  0  0  0  4  0  0  0  0  0  0
    0.8031    0.6904    4.2135 H   0  0  0  0  0  0  0  0  0  0  0  0
   -0.0283    0.7281    2.8089 H   0  0  0  0  0  0  0  0  0  0  0  0
    1.4196   -0.0237    2.8808 H   0  0  0  0  0  0  0  0  0  0  0  0
   -0.0034    2.9309    0.0171 C   0  0  0  0  0  0  0  0  0  0  0  0
    0.6174    3.2407   -0.6830 H   0  0  0  0  0  0  0  0  0  0  0  0
    0.2818    3.2220    0.9150 H   0  0  0  0  0  0  0  0  0  0  0  0
   -0.9805    3.3706   -0.1827 H   0  0  0  0  0  0  0  0  0  0  0  0
   -0.0022    1.4139   -0.0005 C   0  0  0  0  0  0  0  0  0  0  0  0
   -1.2002    0.6986    0.0009 C   0  0  0  0  0  0  0  0  0  0  0  0
   -2.0686    1.1830    0.0014 H   0  0  0  0  0  0  0  0  0  0  0  0
   -1.2031   -0.7046   -0.0000 C   0  0  0  0  0  0  0  0  0  0  0  0
   -2.0779   -1.1952    0.0009 H   0  0  0  0  0  0  0  0  0  0  0  0
    0.0052   -1.4047   -0.0001 C   0  0  0  0  0  0  0  0  0  0  0  0
   -0.0008   -2.4007   -0.0011 H   0  0  0  0  0  0  0  0  0  0  0  0
    1.2031   -0.7037    0.0000 C   0  0  0  0  0  0  0  0  0  0  0  0
    2.0874   -1.1927    0.0020 H   0  0  0  0  0  0  0  0  0  0  0  0
    1.1972    0.7005   -0.0003 C   0  0  0  0  0  0  0  0  0  0  0  0
    2.0657    1.1920   -0.0008 H   0  0  0  0  0  0  0  0  0  0  0  0
  1  5  1  0
  5  8  1  0
  1  2  1  0
  1  3  1  0
  1  4  1  0
  5  6  1  0
  5  7  1  0
  8  9  1  0
  8 10  1  0
  8 11  1  0
 12 16  1  0
 16 17  2  0
 17 19  1  0
 19 21  2  0
 21 23  1  0
 23 25  2  0
 25 16  1  0
 12 13  1  0
 12 14  1  0
 12 15  1  0
 17 18  1  0
 19 20  1  0
 21 22  1  0
 23 24  1  0
 25 26  1  0
M  CHG  1   8   1
M  END
>  <PDB_ID>  (1619) 
pdb3dol

>  <RESIDUE_NAME>  (1619) 
LYS   PHE

>  <FRAG_NAME>  (1619) 
ETAM   MBZ

>  <FRAG_ATOM_NUM>  (1619) 
fragi: 11  fragj: 15

>  <atom.prop.CHAIN_ID>  (1619) 
A A A A A A A A A A A Z Z Z Z Z Z Z Z Z Z Z Z Z Z Z

>  <atom.prop.IS_HEAVY_ATOM>  (1619) 
1 0 0 0 1 0 0 1 0 0 0 1 0 0 0 1 1 0 1 0 1 0 1 0 1 0

>  <DIFUSE_FUNC_ATOM>  (1619) 
n/a

>  <FINAL_SINGLE_POINT_ENERGY>  (1619) 
0

>  <NONCOV_INTER_ENERGY_QM>  (1619) 
0

>  <FF_Energy>  (1619) 
2.38

>  <QM_Energy>  (1619) 
-10.87

>  <source>  (1619) 
ETAM_MBZ

>  <Index>  (1619) 
16266

$$$$
ETAM-pdb3dhg-D-LYS-469:MBZ-pdb3dhg-E-PHE-3
     RDKit          3D

 26 25  0  0  0  0  0  0  0  0999 V2000
   -1.5831   -2.3976   -4.2050 C   0  0  0  0  0  0  0  0  0  0  0  0
   -0.6604   -2.4789   -4.5741 H   0  0  0  0  0  0  0  0  0  0  0  0
   -2.2201   -2.1467   -4.9298 H   0  0  0  0  0  0  0  0  0  0  0  0
   -1.8812   -3.3627   -3.7953 H   0  0  0  0  0  0  0  0  0  0  0  0
   -1.5796   -1.2526   -3.1532 C   0  0  0  0  0  0  0  0  0  0  0  0
   -2.4963   -0.8157   -3.1553 H   0  0  0  0  0  0  0  0  0  0  0  0
   -1.4511   -1.6652   -2.2333 H   0  0  0  0  0  0  0  0  0  0  0  0
   -0.5280   -0.1627   -3.3411 N   0  0  0  0  0  4  0  0  0  0  0  0
    0.3690   -0.5683   -3.2115 H   0  0  0  0  0  0  0  0  0  0  0  0
   -0.6169    0.2018   -4.2605 H   0  0  0  0  0  0  0  0  0  0  0  0
   -0.6906    0.5477   -2.6659 H   0  0  0  0  0  0  0  0  0  0  0  0
    0.0026    2.8935   -0.0197 C   0  0  0  0  0  0  0  0  0  0  0  0
    0.9186    3.2140    0.1642 H   0  0  0  0  0  0  0  0  0  0  0  0
   -0.6387    3.2212    0.6568 H   0  0  0  0  0  0  0  0  0  0  0  0
   -0.2986    3.3154   -0.9785 H   0  0  0  0  0  0  0  0  0  0  0  0
    0.0024    1.4061    0.0033 C   0  0  0  0  0  0  0  0  0  0  0  0
   -1.2007    0.6952   -0.0029 C   0  0  0  0  0  0  0  0  0  0  0  0
   -2.0661    1.1787   -0.0110 H   0  0  0  0  0  0  0  0  0  0  0  0
   -1.2061   -0.7154   -0.0000 C   0  0  0  0  0  0  0  0  0  0  0  0
   -2.0807   -1.2003    0.0055 H   0  0  0  0  0  0  0  0  0  0  0  0
   -0.0018   -1.4038   -0.0035 C   0  0  0  0  0  0  0  0  0  0  0  0
    0.0096   -2.3985   -0.0087 H   0  0  0  0  0  0  0  0  0  0  0  0
    1.2061   -0.6885    0.0000 C   0  0  0  0  0  0  0  0  0  0  0  0
    2.0875   -1.1857    0.0020 H   0  0  0  0  0  0  0  0  0  0  0  0
    1.2001    0.7065    0.0031 C   0  0  0  0  0  0  0  0  0  0  0  0
    2.0665    1.2015    0.0047 H   0  0  0  0  0  0  0  0  0  0  0  0
  1  5  1  0
  5  8  1  0
  1  2  1  0
  1  3  1  0
  1  4  1  0
  5  6  1  0
  5  7  1  0
  8  9  1  0
  8 10  1  0
  8 11  1  0
 12 16  1  0
 16 17  2  0
 17 19  1  0
 19 21  2  0
 21 23  1  0
 23 25  2  0
 25 16  1  0
 12 13  1  0
 12 14  1  0
 12 15  1  0
 17 18  1  0
 19 20  1  0
 21 22  1  0
 23 24  1  0
 25 26  1  0
M  CHG  1   8   1
M  END
>  <PDB_ID>  (1620) 
pdb3dhg

>  <RESIDUE_NAME>  (1620) 
LYS   PHE

>  <FRAG_NAME>  (1620) 
ETAM   MBZ

>  <FRAG_ATOM_NUM>  (1620) 
fragi: 11  fragj: 15

>  <atom.prop.CHAIN_ID>  (1620) 
A A A A A A A A A A A Z Z Z Z Z Z Z Z Z Z Z Z Z Z Z

>  <atom.prop.IS_HEAVY_ATOM>  (1620) 
1 0 0 0 1 0 0 1 0 0 0 1 0 0 0 1 1 0 1 0 1 0 1 0 1 0

>  <DIFUSE_FUNC_ATOM>  (1620) 
n/a

>  <FINAL_SINGLE_POINT_ENERGY>  (1620) 
0

>  <NONCOV_INTER_ENERGY_QM>  (1620) 
0

>  <FF_Energy>  (1620) 
-6.15

>  <QM_Energy>  (1620) 
-13.67

>  <source>  (1620) 
ETAM_MBZ

>  <Index>  (1620) 
16313

$$$$
ETAM-pdb3dkb-D-LYS-3287:MBZ-pdb3dkb-D-PHE-3152
     RDKit          3D

 26 25  0  0  0  0  0  0  0  0999 V2000
   -4.1007   -0.3031   -1.3218 C   0  0  0  0  0  0  0  0  0  0  0  0
   -3.1546   -0.5850   -1.3298 H   0  0  0  0  0  0  0  0  0  0  0  0
   -4.2069    0.6044   -0.9493 H   0  0  0  0  0  0  0  0  0  0  0  0
   -4.4870   -0.3196   -2.3410 H   0  0  0  0  0  0  0  0  0  0  0  0
   -4.8898   -1.2821   -0.4427 C   0  0  0  0  0  0  0  0  0  0  0  0
   -5.8795   -1.1111   -0.5852 H   0  0  0  0  0  0  0  0  0  0  0  0
   -4.6992   -2.2254   -0.7645 H   0  0  0  0  0  0  0  0  0  0  0  0
   -4.5860   -1.1963    1.0148 N   0  0  0  0  0  4  0  0  0  0  0  0
   -5.3380   -1.6006    1.5330 H   0  0  0  0  0  0  0  0  0  0  0  0
   -3.7407   -1.6931    1.2060 H   0  0  0  0  0  0  0  0  0  0  0  0
   -4.4773   -0.2372    1.2731 H   0  0  0  0  0  0  0  0  0  0  0  0
    0.0184    2.9002   -0.0370 C   0  0  0  0  0  0  0  0  0  0  0  0
   -0.3586    3.1937   -0.9053 H   0  0  0  0  0  0  0  0  0  0  0  0
    0.9577    3.2021    0.0611 H   0  0  0  0  0  0  0  0  0  0  0  0
   -0.5622    3.3827    0.7494 H   0  0  0  0  0  0  0  0  0  0  0  0
    0.0005    1.4004    0.0002 C   0  0  0  0  0  0  0  0  0  0  0  0
   -1.1970    0.6970   -0.0001 C   0  0  0  0  0  0  0  0  0  0  0  0
   -2.0620    1.1868   -0.0019 H   0  0  0  0  0  0  0  0  0  0  0  0
   -1.2012   -0.6945   -0.0000 C   0  0  0  0  0  0  0  0  0  0  0  0
   -2.0784   -1.1876    0.0020 H   0  0  0  0  0  0  0  0  0  0  0  0
    0.0001   -1.3924   -0.0008 C   0  0  0  0  0  0  0  0  0  0  0  0
   -0.0062   -2.3918   -0.0029 H   0  0  0  0  0  0  0  0  0  0  0  0
    1.2012   -0.6990    0.0000 C   0  0  0  0  0  0  0  0  0  0  0  0
    2.0816   -1.1983    0.0012 H   0  0  0  0  0  0  0  0  0  0  0  0
    1.1964    0.6884    0.0007 C   0  0  0  0  0  0  0  0  0  0  0  0
    2.0649    1.1863    0.0008 H   0  0  0  0  0  0  0  0  0  0  0  0
  1  5  1  0
  5  8  1  0
  1  2  1  0
  1  3  1  0
  1  4  1  0
  5  6  1  0
  5  7  1  0
  8  9  1  0
  8 10  1  0
  8 11  1  0
 12 16  1  0
 16 17  2  0
 17 19  1  0
 19 21  2  0
 21 23  1  0
 23 25  2  0
 25 16  1  0
 12 13  1  0
 12 14  1  0
 12 15  1  0
 17 18  1  0
 19 20  1  0
 21 22  1  0
 23 24  1  0
 25 26  1  0
M  CHG  1   8   1
M  END
>  <PDB_ID>  (1621) 
pdb3dkb

>  <RESIDUE_NAME>  (1621) 
LYS   PHE

>  <FRAG_NAME>  (1621) 
ETAM   MBZ

>  <FRAG_ATOM_NUM>  (1621) 
fragi: 11  fragj: 15

>  <atom.prop.CHAIN_ID>  (1621) 
A A A A A A A A A A A Z Z Z Z Z Z Z Z Z Z Z Z Z Z Z

>  <atom.prop.IS_HEAVY_ATOM>  (1621) 
1 0 0 0 1 0 0 1 0 0 0 1 0 0 0 1 1 0 1 0 1 0 1 0 1 0

>  <DIFUSE_FUNC_ATOM>  (1621) 
n/a

>  <FINAL_SINGLE_POINT_ENERGY>  (1621) 
0

>  <NONCOV_INTER_ENERGY_QM>  (1621) 
0

>  <FF_Energy>  (1621) 
6.95

>  <QM_Energy>  (1621) 
-1.51

>  <source>  (1621) 
ETAM_MBZ

>  <Index>  (1621) 
16316

$$$$
ETAM-pdb3dtz-B-LYS-140:MBZ-pdb3dtz-B-PHE-136
     RDKit          3D

 26 25  0  0  0  0  0  0  0  0999 V2000
    1.2858   -2.0384    2.8289 C   0  0  0  0  0  0  0  0  0  0  0  0
    1.1344   -2.9324    2.4114 H   0  0  0  0  0  0  0  0  0  0  0  0
    1.4476   -1.3575    2.1173 H   0  0  0  0  0  0  0  0  0  0  0  0
    0.3741   -1.7594    3.3571 H   0  0  0  0  0  0  0  0  0  0  0  0
    2.4867   -2.1071    3.7356 C   0  0  0  0  0  0  0  0  0  0  0  0
    3.3207   -2.0796    3.1871 H   0  0  0  0  0  0  0  0  0  0  0  0
    2.4734   -1.3321    4.3661 H   0  0  0  0  0  0  0  0  0  0  0  0
    2.4694   -3.3749    4.5268 N   0  0  0  0  0  4  0  0  0  0  0  0
    3.2640   -3.9272    4.2790 H   0  0  0  0  0  0  0  0  0  0  0  0
    2.5015   -3.1546    5.5006 H   0  0  0  0  0  0  0  0  0  0  0  0
    1.6315   -3.8789    4.3225 H   0  0  0  0  0  0  0  0  0  0  0  0
    0.0182    2.9081   -0.0084 C   0  0  0  0  0  0  0  0  0  0  0  0
   -0.5880    3.2195   -0.7266 H   0  0  0  0  0  0  0  0  0  0  0  0
    0.9491    3.2004   -0.1738 H   0  0  0  0  0  0  0  0  0  0  0  0
   -0.3109    3.3709    0.9220 H   0  0  0  0  0  0  0  0  0  0  0  0
   -0.0046    1.4022    0.0036 C   0  0  0  0  0  0  0  0  0  0  0  0
   -1.2078    0.6985   -0.0062 C   0  0  0  0  0  0  0  0  0  0  0  0
   -2.0711    1.1845   -0.0186 H   0  0  0  0  0  0  0  0  0  0  0  0
   -1.2099   -0.7033   -0.0000 C   0  0  0  0  0  0  0  0  0  0  0  0
   -2.0751   -1.2005    0.0090 H   0  0  0  0  0  0  0  0  0  0  0  0
    0.0132   -1.3951   -0.0037 C   0  0  0  0  0  0  0  0  0  0  0  0
    0.0079   -2.3941   -0.0091 H   0  0  0  0  0  0  0  0  0  0  0  0
    1.2099   -0.6950    0.0000 C   0  0  0  0  0  0  0  0  0  0  0  0
    2.0937   -1.1898   -0.0002 H   0  0  0  0  0  0  0  0  0  0  0  0
    1.1992    0.6926    0.0063 C   0  0  0  0  0  0  0  0  0  0  0  0
    2.0635    1.1958    0.0122 H   0  0  0  0  0  0  0  0  0  0  0  0
  1  5  1  0
  5  8  1  0
  1  2  1  0
  1  3  1  0
  1  4  1  0
  5  6  1  0
  5  7  1  0
  8  9  1  0
  8 10  1  0
  8 11  1  0
 12 16  1  0
 16 17  2  0
 17 19  1  0
 19 21  2  0
 21 23  1  0
 23 25  2  0
 25 16  1  0
 12 13  1  0
 12 14  1  0
 12 15  1  0
 17 18  1  0
 19 20  1  0
 21 22  1  0
 23 24  1  0
 25 26  1  0
M  CHG  1   8   1
M  END
>  <PDB_ID>  (1622) 
pdb3dtz

>  <RESIDUE_NAME>  (1622) 
LYS   PHE

>  <FRAG_NAME>  (1622) 
ETAM   MBZ

>  <FRAG_ATOM_NUM>  (1622) 
fragi: 11  fragj: 15

>  <atom.prop.CHAIN_ID>  (1622) 
A A A A A A A A A A A Z Z Z Z Z Z Z Z Z Z Z Z Z Z Z

>  <atom.prop.IS_HEAVY_ATOM>  (1622) 
1 0 0 0 1 0 0 1 0 0 0 1 0 0 0 1 1 0 1 0 1 0 1 0 1 0

>  <DIFUSE_FUNC_ATOM>  (1622) 
n/a

>  <FINAL_SINGLE_POINT_ENERGY>  (1622) 
0

>  <NONCOV_INTER_ENERGY_QM>  (1622) 
0

>  <FF_Energy>  (1622) 
4.2

>  <QM_Energy>  (1622) 
-2.12

>  <source>  (1622) 
ETAM_MBZ

>  <Index>  (1622) 
16320

$$$$
ETAM-pdb3dve-B-LYS-1868:MBZ-pdb3dve-B-PHE-1864
     RDKit          3D

 26 25  0  0  0  0  0  0  0  0999 V2000
    1.8995   -1.9357    3.9491 C   0  0  0  0  0  0  0  0  0  0  0  0
    2.5739   -1.5283    3.3451 H   0  0  0  0  0  0  0  0  0  0  0  0
    2.3339   -2.5570    4.5905 H   0  0  0  0  0  0  0  0  0  0  0  0
    1.3939   -1.1451    4.5035 H   0  0  0  0  0  0  0  0  0  0  0  0
    0.9080   -2.7088    3.1193 C   0  0  0  0  0  0  0  0  0  0  0  0
    0.5254   -3.4514    3.6652 H   0  0  0  0  0  0  0  0  0  0  0  0
    0.1771   -2.0985    2.8214 H   0  0  0  0  0  0  0  0  0  0  0  0
    1.5799   -3.2839    1.9206 N   0  0  0  0  0  4  0  0  0  0  0  0
    2.1474   -2.5823    1.4915 H   0  0  0  0  0  0  0  0  0  0  0  0
    2.1527   -4.0542    2.1995 H   0  0  0  0  0  0  0  0  0  0  0  0
    0.8876   -3.5987    1.2719 H   0  0  0  0  0  0  0  0  0  0  0  0
    0.0163    2.9343   -0.0506 C   0  0  0  0  0  0  0  0  0  0  0  0
   -0.6980    3.2149   -0.6802 H   0  0  0  0  0  0  0  0  0  0  0  0
    0.9090    3.2086   -0.3884 H   0  0  0  0  0  0  0  0  0  0  0  0
   -0.1547    3.4349    0.9025 H   0  0  0  0  0  0  0  0  0  0  0  0
   -0.0009    1.4187    0.0120 C   0  0  0  0  0  0  0  0  0  0  0  0
   -1.2088    0.7144    0.0085 C   0  0  0  0  0  0  0  0  0  0  0  0
   -2.0707    1.1980    0.0108 H   0  0  0  0  0  0  0  0  0  0  0  0
   -1.2135   -0.6981    0.0000 C   0  0  0  0  0  0  0  0  0  0  0  0
   -2.0838   -1.1885    0.0023 H   0  0  0  0  0  0  0  0  0  0  0  0
    0.0090   -1.4122   -0.0104 C   0  0  0  0  0  0  0  0  0  0  0  0
   -0.0076   -2.4036   -0.0257 H   0  0  0  0  0  0  0  0  0  0  0  0
    1.2135   -0.7135   -0.0000 C   0  0  0  0  0  0  0  0  0  0  0  0
    2.0935   -1.2021    0.0158 H   0  0  0  0  0  0  0  0  0  0  0  0
    1.2007    0.6907   -0.0101 C   0  0  0  0  0  0  0  0  0  0  0  0
    2.0715    1.1866   -0.0346 H   0  0  0  0  0  0  0  0  0  0  0  0
  1  5  1  0
  5  8  1  0
  1  2  1  0
  1  3  1  0
  1  4  1  0
  5  6  1  0
  5  7  1  0
  8  9  1  0
  8 10  1  0
  8 11  1  0
 12 16  1  0
 16 17  2  0
 17 19  1  0
 19 21  2  0
 21 23  1  0
 23 25  2  0
 25 16  1  0
 12 13  1  0
 12 14  1  0
 12 15  1  0
 17 18  1  0
 19 20  1  0
 21 22  1  0
 23 24  1  0
 25 26  1  0
M  CHG  1   8   1
M  END
>  <PDB_ID>  (1623) 
pdb3dve

>  <RESIDUE_NAME>  (1623) 
LYS   PHE

>  <FRAG_NAME>  (1623) 
ETAM   MBZ

>  <FRAG_ATOM_NUM>  (1623) 
fragi: 11  fragj: 15

>  <atom.prop.CHAIN_ID>  (1623) 
A A A A A A A A A A A Z Z Z Z Z Z Z Z Z Z Z Z Z Z Z

>  <atom.prop.IS_HEAVY_ATOM>  (1623) 
1 0 0 0 1 0 0 1 0 0 0 1 0 0 0 1 1 0 1 0 1 0 1 0 1 0

>  <DIFUSE_FUNC_ATOM>  (1623) 
n/a

>  <FINAL_SINGLE_POINT_ENERGY>  (1623) 
0

>  <NONCOV_INTER_ENERGY_QM>  (1623) 
0

>  <FF_Energy>  (1623) 
0.28

>  <QM_Energy>  (1623) 
-7.76

>  <source>  (1623) 
ETAM_MBZ

>  <Index>  (1623) 
16339

$$$$
ETAM-pdb3dkb-F-LYS-5299:MBZ-pdb3dkb-F-PHE-5152
     RDKit          3D

 26 25  0  0  0  0  0  0  0  0999 V2000
    3.2916   -0.4638   -2.4349 C   0  0  0  0  0  0  0  0  0  0  0  0
    2.6300   -0.5530   -1.6977 H   0  0  0  0  0  0  0  0  0  0  0  0
    3.9861    0.2070   -2.1984 H   0  0  0  0  0  0  0  0  0  0  0  0
    3.7717   -1.4287   -2.5981 H   0  0  0  0  0  0  0  0  0  0  0  0
    2.5628    0.0142   -3.6843 C   0  0  0  0  0  0  0  0  0  0  0  0
    3.2115    0.0162   -4.4553 H   0  0  0  0  0  0  0  0  0  0  0  0
    1.8226   -0.6360   -3.8962 H   0  0  0  0  0  0  0  0  0  0  0  0
    1.9858    1.3748   -3.5277 N   0  0  0  0  0  4  0  0  0  0  0  0
    2.4612    2.0100   -4.1363 H   0  0  0  0  0  0  0  0  0  0  0  0
    1.0142    1.3526   -3.7615 H   0  0  0  0  0  0  0  0  0  0  0  0
    2.0944    1.6754   -2.5798 H   0  0  0  0  0  0  0  0  0  0  0  0
    0.0088    2.9042    0.0001 C   0  0  0  0  0  0  0  0  0  0  0  0
   -0.5806    3.2163   -0.7321 H   0  0  0  0  0  0  0  0  0  0  0  0
    0.9412    3.2069   -0.1384 H   0  0  0  0  0  0  0  0  0  0  0  0
   -0.3489    3.3575    0.9246 H   0  0  0  0  0  0  0  0  0  0  0  0
   -0.0004    1.3995    0.0000 C   0  0  0  0  0  0  0  0  0  0  0  0
   -1.1977    0.6906   -0.0000 C   0  0  0  0  0  0  0  0  0  0  0  0
   -2.0637    1.1822   -0.0009 H   0  0  0  0  0  0  0  0  0  0  0  0
   -1.2026   -0.6977    0.0000 C   0  0  0  0  0  0  0  0  0  0  0  0
   -2.0778   -1.1932    0.0018 H   0  0  0  0  0  0  0  0  0  0  0  0
    0.0001   -1.3909   -0.0001 C   0  0  0  0  0  0  0  0  0  0  0  0
   -0.0018   -2.3901   -0.0004 H   0  0  0  0  0  0  0  0  0  0  0  0
    1.2026   -0.6938    0.0000 C   0  0  0  0  0  0  0  0  0  0  0  0
    2.0825   -1.1943    0.0012 H   0  0  0  0  0  0  0  0  0  0  0  0
    1.1981    0.6923    0.0001 C   0  0  0  0  0  0  0  0  0  0  0  0
    2.0642    1.1913   -0.0007 H   0  0  0  0  0  0  0  0  0  0  0  0
  1  5  1  0
  5  8  1  0
  1  2  1  0
  1  3  1  0
  1  4  1  0
  5  6  1  0
  5  7  1  0
  8  9  1  0
  8 10  1  0
  8 11  1  0
 12 16  1  0
 16 17  2  0
 17 19  1  0
 19 21  2  0
 21 23  1  0
 23 25  2  0
 25 16  1  0
 12 13  1  0
 12 14  1  0
 12 15  1  0
 17 18  1  0
 19 20  1  0
 21 22  1  0
 23 24  1  0
 25 26  1  0
M  CHG  1   8   1
M  END
>  <PDB_ID>  (1624) 
pdb3dkb

>  <RESIDUE_NAME>  (1624) 
LYS   PHE

>  <FRAG_NAME>  (1624) 
ETAM   MBZ

>  <FRAG_ATOM_NUM>  (1624) 
fragi: 11  fragj: 15

>  <atom.prop.CHAIN_ID>  (1624) 
A A A A A A A A A A A Z Z Z Z Z Z Z Z Z Z Z Z Z Z Z

>  <atom.prop.IS_HEAVY_ATOM>  (1624) 
1 0 0 0 1 0 0 1 0 0 0 1 0 0 0 1 1 0 1 0 1 0 1 0 1 0

>  <DIFUSE_FUNC_ATOM>  (1624) 
n/a

>  <FINAL_SINGLE_POINT_ENERGY>  (1624) 
0

>  <NONCOV_INTER_ENERGY_QM>  (1624) 
0

>  <FF_Energy>  (1624) 
2.33

>  <QM_Energy>  (1624) 
-5.63

>  <source>  (1624) 
ETAM_MBZ

>  <Index>  (1624) 
16346

$$$$
ETAM-pdb3e0s-B-LEU-213:MBZ-pdb3e0s-B-PHE-231
     RDKit          3D

 26 25  0  0  0  0  0  0  0  0999 V2000
   -0.2553    0.6372   -4.0194 C   0  0  0  0  0  0  0  0  0  0  0  0
   -0.0152    0.6329   -3.0515 H   0  0  0  0  0  0  0  0  0  0  0  0
    0.2668   -0.0577   -4.5053 H   0  0  0  0  0  0  0  0  0  0  0  0
    0.0473    1.6049   -4.4195 H   0  0  0  0  0  0  0  0  0  0  0  0
   -1.7436    0.2786   -4.1384 C   0  0  0  0  0  0  0  0  0  0  0  0
   -2.2853    0.8898   -3.5786 H   0  0  0  0  0  0  0  0  0  0  0  0
   -2.0716    0.3492   -5.1755 H   0  0  0  0  0  0  0  0  0  0  0  0
   -2.0087   -1.1247   -3.6651 N   0  0  0  0  0  4  0  0  0  0  0  0
   -1.7352   -1.1980   -2.7115 H   0  0  0  0  0  0  0  0  0  0  0  0
   -2.9804   -1.3163   -3.7589 H   0  0  0  0  0  0  0  0  0  0  0  0
   -1.4804   -1.7559   -4.2228 H   0  0  0  0  0  0  0  0  0  0  0  0
   -0.0071    2.9195    0.0298 C   0  0  0  0  0  0  0  0  0  0  0  0
   -0.7432    3.2338   -0.5479 H   0  0  0  0  0  0  0  0  0  0  0  0
    0.8704    3.2321   -0.2984 H   0  0  0  0  0  0  0  0  0  0  0  0
   -0.1598    3.3491    1.0198 H   0  0  0  0  0  0  0  0  0  0  0  0
   -0.0048    1.4057    0.0034 C   0  0  0  0  0  0  0  0  0  0  0  0
   -1.1896    0.7074   -0.0104 C   0  0  0  0  0  0  0  0  0  0  0  0
   -2.0632    1.1795   -0.0293 H   0  0  0  0  0  0  0  0  0  0  0  0
   -1.1942   -0.7115    0.0000 C   0  0  0  0  0  0  0  0  0  0  0  0
   -2.0742   -1.1901    0.0097 H   0  0  0  0  0  0  0  0  0  0  0  0
    0.0040   -1.4002   -0.0013 C   0  0  0  0  0  0  0  0  0  0  0  0
    0.0067   -2.3993   -0.0036 H   0  0  0  0  0  0  0  0  0  0  0  0
    1.1942   -0.6961    0.0000 C   0  0  0  0  0  0  0  0  0  0  0  0
    2.0826   -1.1903   -0.0038 H   0  0  0  0  0  0  0  0  0  0  0  0
    1.1903    0.6947    0.0084 C   0  0  0  0  0  0  0  0  0  0  0  0
    2.0598    1.1904    0.0169 H   0  0  0  0  0  0  0  0  0  0  0  0
  1  5  1  0
  5  8  1  0
  1  2  1  0
  1  3  1  0
  1  4  1  0
  5  6  1  0
  5  7  1  0
  8  9  1  0
  8 10  1  0
  8 11  1  0
 12 16  1  0
 16 17  2  0
 17 19  1  0
 19 21  2  0
 21 23  1  0
 23 25  2  0
 25 16  1  0
 12 13  1  0
 12 14  1  0
 12 15  1  0
 17 18  1  0
 19 20  1  0
 21 22  1  0
 23 24  1  0
 25 26  1  0
M  CHG  1   8   1
M  END
>  <PDB_ID>  (1625) 
pdb3e0s

>  <RESIDUE_NAME>  (1625) 
LEU   PHE

>  <FRAG_NAME>  (1625) 
ETAM   MBZ

>  <FRAG_ATOM_NUM>  (1625) 
fragi: 11  fragj: 15

>  <atom.prop.CHAIN_ID>  (1625) 
A A A A A A A A A A A Z Z Z Z Z Z Z Z Z Z Z Z Z Z Z

>  <atom.prop.IS_HEAVY_ATOM>  (1625) 
1 0 0 0 1 0 0 1 0 0 0 1 0 0 0 1 1 0 1 0 1 0 1 0 1 0

>  <DIFUSE_FUNC_ATOM>  (1625) 
n/a

>  <FINAL_SINGLE_POINT_ENERGY>  (1625) 
0

>  <NONCOV_INTER_ENERGY_QM>  (1625) 
0

>  <FF_Energy>  (1625) 
-5.13

>  <QM_Energy>  (1625) 
-10.93

>  <source>  (1625) 
ETAM_MBZ

>  <Index>  (1625) 
16376

$$$$
ETAM-pdb3e0m-C-LYS-224:MBZ-pdb3e0m-C-PHE-204
     RDKit          3D

 26 25  0  0  0  0  0  0  0  0999 V2000
    2.1487   -0.0574    4.2575 C   0  0  0  0  0  0  0  0  0  0  0  0
    2.5445    0.3820    5.0650 H   0  0  0  0  0  0  0  0  0  0  0  0
    1.8769    0.6435    3.5980 H   0  0  0  0  0  0  0  0  0  0  0  0
    2.9083   -0.6910    3.7996 H   0  0  0  0  0  0  0  0  0  0  0  0
    0.9019   -0.8254    4.6879 C   0  0  0  0  0  0  0  0  0  0  0  0
    1.1847   -1.5956    5.2818 H   0  0  0  0  0  0  0  0  0  0  0  0
    0.3186   -0.2114    5.2439 H   0  0  0  0  0  0  0  0  0  0  0  0
    0.0889   -1.3654    3.5528 N   0  0  0  0  0  4  0  0  0  0  0  0
    0.5833   -2.1199    3.1258 H   0  0  0  0  0  0  0  0  0  0  0  0
   -0.7866   -1.6911    3.9040 H   0  0  0  0  0  0  0  0  0  0  0  0
   -0.0627   -0.6397    2.8849 H   0  0  0  0  0  0  0  0  0  0  0  0
    0.0037    2.8908    0.0799 C   0  0  0  0  0  0  0  0  0  0  0  0
   -0.7941    3.2273   -0.3976 H   0  0  0  0  0  0  0  0  0  0  0  0
    0.8385    3.2222   -0.3338 H   0  0  0  0  0  0  0  0  0  0  0  0
   -0.0348    3.2730    1.1000 H   0  0  0  0  0  0  0  0  0  0  0  0
    0.0021    1.3997    0.0011 C   0  0  0  0  0  0  0  0  0  0  0  0
   -1.1951    0.6910   -0.0009 C   0  0  0  0  0  0  0  0  0  0  0  0
   -2.0615    1.1843   -0.0046 H   0  0  0  0  0  0  0  0  0  0  0  0
   -1.2009   -0.6955    0.0000 C   0  0  0  0  0  0  0  0  0  0  0  0
   -2.0786   -1.1900    0.0006 H   0  0  0  0  0  0  0  0  0  0  0  0
   -0.0016   -1.3941    0.0024 C   0  0  0  0  0  0  0  0  0  0  0  0
   -0.0064   -2.3917    0.0055 H   0  0  0  0  0  0  0  0  0  0  0  0
    1.2009   -0.6983    0.0000 C   0  0  0  0  0  0  0  0  0  0  0  0
    2.0810   -1.1932    0.0018 H   0  0  0  0  0  0  0  0  0  0  0  0
    1.1946    0.6971   -0.0027 C   0  0  0  0  0  0  0  0  0  0  0  0
    2.0639    1.1908   -0.0081 H   0  0  0  0  0  0  0  0  0  0  0  0
  1  5  1  0
  5  8  1  0
  1  2  1  0
  1  3  1  0
  1  4  1  0
  5  6  1  0
  5  7  1  0
  8  9  1  0
  8 10  1  0
  8 11  1  0
 12 16  1  0
 16 17  2  0
 17 19  1  0
 19 21  2  0
 21 23  1  0
 23 25  2  0
 25 16  1  0
 12 13  1  0
 12 14  1  0
 12 15  1  0
 17 18  1  0
 19 20  1  0
 21 22  1  0
 23 24  1  0
 25 26  1  0
M  CHG  1   8   1
M  END
>  <PDB_ID>  (1626) 
pdb3e0m

>  <RESIDUE_NAME>  (1626) 
LYS   PHE

>  <FRAG_NAME>  (1626) 
ETAM   MBZ

>  <FRAG_ATOM_NUM>  (1626) 
fragi: 11  fragj: 15

>  <atom.prop.CHAIN_ID>  (1626) 
A A A A A A A A A A A Z Z Z Z Z Z Z Z Z Z Z Z Z Z Z

>  <atom.prop.IS_HEAVY_ATOM>  (1626) 
1 0 0 0 1 0 0 1 0 0 0 1 0 0 0 1 1 0 1 0 1 0 1 0 1 0

>  <DIFUSE_FUNC_ATOM>  (1626) 
n/a

>  <FINAL_SINGLE_POINT_ENERGY>  (1626) 
0

>  <NONCOV_INTER_ENERGY_QM>  (1626) 
0

>  <FF_Energy>  (1626) 
-6.35

>  <QM_Energy>  (1626) 
-11.99

>  <source>  (1626) 
ETAM_MBZ

>  <Index>  (1626) 
16379

$$$$
ETAM-pdb3e0m-D-LYS-224:MBZ-pdb3e0m-D-PHE-204
     RDKit          3D

 26 25  0  0  0  0  0  0  0  0999 V2000
    1.6912   -0.1265    4.5184 C   0  0  0  0  0  0  0  0  0  0  0  0
    2.1031    0.1665    5.3788 H   0  0  0  0  0  0  0  0  0  0  0  0
    1.5224    0.6652    3.9354 H   0  0  0  0  0  0  0  0  0  0  0  0
    2.3746   -0.8065    4.0098 H   0  0  0  0  0  0  0  0  0  0  0  0
    0.3583   -0.7886    4.8248 C   0  0  0  0  0  0  0  0  0  0  0  0
    0.5227   -1.6022    5.3956 H   0  0  0  0  0  0  0  0  0  0  0  0
   -0.2119   -0.1448    5.3488 H   0  0  0  0  0  0  0  0  0  0  0  0
   -0.3733   -1.1971    3.5957 N   0  0  0  0  0  4  0  0  0  0  0  0
   -0.2811   -0.4836    2.9017 H   0  0  0  0  0  0  0  0  0  0  0  0
    0.0111   -2.0526    3.2495 H   0  0  0  0  0  0  0  0  0  0  0  0
   -1.3402   -1.3288    3.8132 H   0  0  0  0  0  0  0  0  0  0  0  0
    0.0049    2.9105    0.0291 C   0  0  0  0  0  0  0  0  0  0  0  0
   -0.7709    3.2304   -0.4937 H   0  0  0  0  0  0  0  0  0  0  0  0
    0.8572    3.2219   -0.3637 H   0  0  0  0  0  0  0  0  0  0  0  0
   -0.0723    3.3342    1.0304 H   0  0  0  0  0  0  0  0  0  0  0  0
   -0.0008    1.4059    0.0002 C   0  0  0  0  0  0  0  0  0  0  0  0
   -1.1955    0.6960   -0.0003 C   0  0  0  0  0  0  0  0  0  0  0  0
   -2.0636    1.1821   -0.0021 H   0  0  0  0  0  0  0  0  0  0  0  0
   -1.1995   -0.7015    0.0000 C   0  0  0  0  0  0  0  0  0  0  0  0
   -2.0770   -1.1920    0.0012 H   0  0  0  0  0  0  0  0  0  0  0  0
    0.0016   -1.3971    0.0006 C   0  0  0  0  0  0  0  0  0  0  0  0
   -0.0027   -2.3956    0.0008 H   0  0  0  0  0  0  0  0  0  0  0  0
    1.1995   -0.7002   -0.0000 C   0  0  0  0  0  0  0  0  0  0  0  0
    2.0831   -1.1933    0.0019 H   0  0  0  0  0  0  0  0  0  0  0  0
    1.1947    0.6970   -0.0006 C   0  0  0  0  0  0  0  0  0  0  0  0
    2.0641    1.1902   -0.0027 H   0  0  0  0  0  0  0  0  0  0  0  0
  1  5  1  0
  5  8  1  0
  1  2  1  0
  1  3  1  0
  1  4  1  0
  5  6  1  0
  5  7  1  0
  8  9  1  0
  8 10  1  0
  8 11  1  0
 12 16  1  0
 16 17  2  0
 17 19  1  0
 19 21  2  0
 21 23  1  0
 23 25  2  0
 25 16  1  0
 12 13  1  0
 12 14  1  0
 12 15  1  0
 17 18  1  0
 19 20  1  0
 21 22  1  0
 23 24  1  0
 25 26  1  0
M  CHG  1   8   1
M  END
>  <PDB_ID>  (1627) 
pdb3e0m

>  <RESIDUE_NAME>  (1627) 
LYS   PHE

>  <FRAG_NAME>  (1627) 
ETAM   MBZ

>  <FRAG_ATOM_NUM>  (1627) 
fragi: 11  fragj: 15

>  <atom.prop.CHAIN_ID>  (1627) 
A A A A A A A A A A A Z Z Z Z Z Z Z Z Z Z Z Z Z Z Z

>  <atom.prop.IS_HEAVY_ATOM>  (1627) 
1 0 0 0 1 0 0 1 0 0 0 1 0 0 0 1 1 0 1 0 1 0 1 0 1 0

>  <DIFUSE_FUNC_ATOM>  (1627) 
n/a

>  <FINAL_SINGLE_POINT_ENERGY>  (1627) 
0

>  <NONCOV_INTER_ENERGY_QM>  (1627) 
0

>  <FF_Energy>  (1627) 
-6.4

>  <QM_Energy>  (1627) 
-11.99

>  <source>  (1627) 
ETAM_MBZ

>  <Index>  (1627) 
16383

$$$$
ETAM-pdb3e1e-A-LYS-10:MBZ-pdb3e1e-A-PHE-71
     RDKit          3D

 26 25  0  0  0  0  0  0  0  0999 V2000
   -0.5976   -0.9609   -4.3249 C   0  0  0  0  0  0  0  0  0  0  0  0
   -0.4461   -1.4237   -5.1951 H   0  0  0  0  0  0  0  0  0  0  0  0
   -0.8351   -0.0058   -4.4838 H   0  0  0  0  0  0  0  0  0  0  0  0
   -1.4258   -1.4474   -3.8095 H   0  0  0  0  0  0  0  0  0  0  0  0
    0.6883   -1.0126   -3.5164 C   0  0  0  0  0  0  0  0  0  0  0  0
    1.4002   -0.4988   -4.0045 H   0  0  0  0  0  0  0  0  0  0  0  0
    0.5307   -0.5760   -2.6254 H   0  0  0  0  0  0  0  0  0  0  0  0
    1.1553   -2.4079   -3.2991 N   0  0  0  0  0  4  0  0  0  0  0  0
    1.6084   -2.4719   -2.4101 H   0  0  0  0  0  0  0  0  0  0  0  0
    0.3711   -3.0274   -3.3203 H   0  0  0  0  0  0  0  0  0  0  0  0
    1.7992   -2.6592   -4.0214 H   0  0  0  0  0  0  0  0  0  0  0  0
   -0.0059    2.9096    0.0609 C   0  0  0  0  0  0  0  0  0  0  0  0
    0.2292    3.1793    0.9841 H   0  0  0  0  0  0  0  0  0  0  0  0
   -0.9136    3.2210   -0.1817 H   0  0  0  0  0  0  0  0  0  0  0  0
    0.7018    3.3882   -0.6161 H   0  0  0  0  0  0  0  0  0  0  0  0
    0.0002    1.4055    0.0009 C   0  0  0  0  0  0  0  0  0  0  0  0
   -1.1974    0.6964   -0.0003 C   0  0  0  0  0  0  0  0  0  0  0  0
   -2.0641    1.1865   -0.0028 H   0  0  0  0  0  0  0  0  0  0  0  0
   -1.2052   -0.6986   -0.0000 C   0  0  0  0  0  0  0  0  0  0  0  0
   -2.0811   -1.1899    0.0015 H   0  0  0  0  0  0  0  0  0  0  0  0
   -0.0014   -1.4004    0.0003 C   0  0  0  0  0  0  0  0  0  0  0  0
   -0.0057   -2.3958    0.0005 H   0  0  0  0  0  0  0  0  0  0  0  0
    1.2052   -0.7001   -0.0000 C   0  0  0  0  0  0  0  0  0  0  0  0
    2.0844   -1.1953    0.0016 H   0  0  0  0  0  0  0  0  0  0  0  0
    1.1986    0.6972   -0.0009 C   0  0  0  0  0  0  0  0  0  0  0  0
    2.0666    1.1925   -0.0034 H   0  0  0  0  0  0  0  0  0  0  0  0
  1  5  1  0
  5  8  1  0
  1  2  1  0
  1  3  1  0
  1  4  1  0
  5  6  1  0
  5  7  1  0
  8  9  1  0
  8 10  1  0
  8 11  1  0
 12 16  1  0
 16 17  2  0
 17 19  1  0
 19 21  2  0
 21 23  1  0
 23 25  2  0
 25 16  1  0
 12 13  1  0
 12 14  1  0
 12 15  1  0
 17 18  1  0
 19 20  1  0
 21 22  1  0
 23 24  1  0
 25 26  1  0
M  CHG  1   8   1
M  END
>  <PDB_ID>  (1628) 
pdb3e1e

>  <RESIDUE_NAME>  (1628) 
LYS   PHE

>  <FRAG_NAME>  (1628) 
ETAM   MBZ

>  <FRAG_ATOM_NUM>  (1628) 
fragi: 11  fragj: 15

>  <atom.prop.CHAIN_ID>  (1628) 
A A A A A A A A A A A Z Z Z Z Z Z Z Z Z Z Z Z Z Z Z

>  <atom.prop.IS_HEAVY_ATOM>  (1628) 
1 0 0 0 1 0 0 1 0 0 0 1 0 0 0 1 1 0 1 0 1 0 1 0 1 0

>  <DIFUSE_FUNC_ATOM>  (1628) 
n/a

>  <FINAL_SINGLE_POINT_ENERGY>  (1628) 
0

>  <NONCOV_INTER_ENERGY_QM>  (1628) 
0

>  <FF_Energy>  (1628) 
-4.19

>  <QM_Energy>  (1628) 
-10.66

>  <source>  (1628) 
ETAM_MBZ

>  <Index>  (1628) 
16388

$$$$
ETAM-pdb3e1e-B-LYS-10:MBZ-pdb3e1e-B-PHE-4
     RDKit          3D

 26 25  0  0  0  0  0  0  0  0999 V2000
   -4.4888    1.0015    0.7705 C   0  0  0  0  0  0  0  0  0  0  0  0
   -3.5396    0.6989    0.7983 H   0  0  0  0  0  0  0  0  0  0  0  0
   -4.5938    1.7414    0.1122 H   0  0  0  0  0  0  0  0  0  0  0  0
   -5.1117    0.1641    0.4562 H   0  0  0  0  0  0  0  0  0  0  0  0
   -4.8784    1.5122    2.1443 C   0  0  0  0  0  0  0  0  0  0  0  0
   -4.2694    2.2674    2.3976 H   0  0  0  0  0  0  0  0  0  0  0  0
   -5.8221    1.8507    2.1130 H   0  0  0  0  0  0  0  0  0  0  0  0
   -4.7802    0.4400    3.1755 N   0  0  0  0  0  4  0  0  0  0  0  0
   -4.1539    0.7325    3.8968 H   0  0  0  0  0  0  0  0  0  0  0  0
   -5.6850    0.2714    3.5637 H   0  0  0  0  0  0  0  0  0  0  0  0
   -4.4361   -0.3965    2.7502 H   0  0  0  0  0  0  0  0  0  0  0  0
    0.0058    2.9063    0.0050 C   0  0  0  0  0  0  0  0  0  0  0  0
    0.0318    3.2095    0.9442 H   0  0  0  0  0  0  0  0  0  0  0  0
   -0.8091    3.2178   -0.4561 H   0  0  0  0  0  0  0  0  0  0  0  0
    0.8653    3.3370   -0.5085 H   0  0  0  0  0  0  0  0  0  0  0  0
   -0.0008    1.4037   -0.0006 C   0  0  0  0  0  0  0  0  0  0  0  0
   -1.1977    0.6974    0.0008 C   0  0  0  0  0  0  0  0  0  0  0  0
   -2.0647    1.1861    0.0009 H   0  0  0  0  0  0  0  0  0  0  0  0
   -1.2038   -0.6975    0.0000 C   0  0  0  0  0  0  0  0  0  0  0  0
   -2.0795   -1.1897    0.0010 H   0  0  0  0  0  0  0  0  0  0  0  0
    0.0003   -1.3959   -0.0005 C   0  0  0  0  0  0  0  0  0  0  0  0
   -0.0045   -2.3939   -0.0015 H   0  0  0  0  0  0  0  0  0  0  0  0
    1.2038   -0.6996    0.0000 C   0  0  0  0  0  0  0  0  0  0  0  0
    2.0834   -1.1971    0.0015 H   0  0  0  0  0  0  0  0  0  0  0  0
    1.1981    0.6920    0.0004 C   0  0  0  0  0  0  0  0  0  0  0  0
    2.0660    1.1894    0.0003 H   0  0  0  0  0  0  0  0  0  0  0  0
  1  5  1  0
  5  8  1  0
  1  2  1  0
  1  3  1  0
  1  4  1  0
  5  6  1  0
  5  7  1  0
  8  9  1  0
  8 10  1  0
  8 11  1  0
 12 16  1  0
 16 17  2  0
 17 19  1  0
 19 21  2  0
 21 23  1  0
 23 25  2  0
 25 16  1  0
 12 13  1  0
 12 14  1  0
 12 15  1  0
 17 18  1  0
 19 20  1  0
 21 22  1  0
 23 24  1  0
 25 26  1  0
M  CHG  1   8   1
M  END
>  <PDB_ID>  (1629) 
pdb3e1e

>  <RESIDUE_NAME>  (1629) 
LYS   PHE

>  <FRAG_NAME>  (1629) 
ETAM   MBZ

>  <FRAG_ATOM_NUM>  (1629) 
fragi: 11  fragj: 15

>  <atom.prop.CHAIN_ID>  (1629) 
A A A A A A A A A A A Z Z Z Z Z Z Z Z Z Z Z Z Z Z Z

>  <atom.prop.IS_HEAVY_ATOM>  (1629) 
1 0 0 0 1 0 0 1 0 0 0 1 0 0 0 1 1 0 1 0 1 0 1 0 1 0

>  <DIFUSE_FUNC_ATOM>  (1629) 
n/a

>  <FINAL_SINGLE_POINT_ENERGY>  (1629) 
0

>  <NONCOV_INTER_ENERGY_QM>  (1629) 
0

>  <FF_Energy>  (1629) 
5.31

>  <QM_Energy>  (1629) 
-0.77

>  <source>  (1629) 
ETAM_MBZ

>  <Index>  (1629) 
16390

$$$$
ETAM-pdb3e1e-C-LYS-10:MBZ-pdb3e1e-C-PHE-71
     RDKit          3D

 26 25  0  0  0  0  0  0  0  0999 V2000
   -0.6349   -2.9767   -4.4413 C   0  0  0  0  0  0  0  0  0  0  0  0
    0.0565   -3.6453   -4.1753 H   0  0  0  0  0  0  0  0  0  0  0  0
   -0.9098   -3.1333   -5.3873 H   0  0  0  0  0  0  0  0  0  0  0  0
   -1.5063   -3.1028   -3.7988 H   0  0  0  0  0  0  0  0  0  0  0  0
   -0.0432   -1.5921   -4.3290 C   0  0  0  0  0  0  0  0  0  0  0  0
    0.5094   -1.4029   -5.1395 H   0  0  0  0  0  0  0  0  0  0  0  0
   -0.7817   -0.9215   -4.2649 H   0  0  0  0  0  0  0  0  0  0  0  0
    0.8157   -1.4877   -3.1184 N   0  0  0  0  0  4  0  0  0  0  0  0
    1.0653   -2.4054   -2.8086 H   0  0  0  0  0  0  0  0  0  0  0  0
    1.6428   -0.9733   -3.3414 H   0  0  0  0  0  0  0  0  0  0  0  0
    0.3128   -1.0151   -2.3947 H   0  0  0  0  0  0  0  0  0  0  0  0
   -0.0084    2.8954    0.1252 C   0  0  0  0  0  0  0  0  0  0  0  0
    0.3178    3.1324    1.0327 H   0  0  0  0  0  0  0  0  0  0  0  0
   -0.9414    3.2103   -0.0050 H   0  0  0  0  0  0  0  0  0  0  0  0
    0.6197    3.4149   -0.5985 H   0  0  0  0  0  0  0  0  0  0  0  0
    0.0005    1.4037    0.0021 C   0  0  0  0  0  0  0  0  0  0  0  0
   -1.1973    0.6950   -0.0019 C   0  0  0  0  0  0  0  0  0  0  0  0
   -2.0644    1.1834   -0.0072 H   0  0  0  0  0  0  0  0  0  0  0  0
   -1.2007   -0.6995    0.0000 C   0  0  0  0  0  0  0  0  0  0  0  0
   -2.0773   -1.1918    0.0003 H   0  0  0  0  0  0  0  0  0  0  0  0
    0.0002   -1.3961    0.0033 C   0  0  0  0  0  0  0  0  0  0  0  0
   -0.0030   -2.3941    0.0081 H   0  0  0  0  0  0  0  0  0  0  0  0
    1.2007   -0.6979    0.0000 C   0  0  0  0  0  0  0  0  0  0  0  0
    2.0824   -1.1946    0.0018 H   0  0  0  0  0  0  0  0  0  0  0  0
    1.1966    0.6948   -0.0036 C   0  0  0  0  0  0  0  0  0  0  0  0
    2.0652    1.1902   -0.0112 H   0  0  0  0  0  0  0  0  0  0  0  0
  1  5  1  0
  5  8  1  0
  1  2  1  0
  1  3  1  0
  1  4  1  0
  5  6  1  0
  5  7  1  0
  8  9  1  0
  8 10  1  0
  8 11  1  0
 12 16  1  0
 16 17  2  0
 17 19  1  0
 19 21  2  0
 21 23  1  0
 23 25  2  0
 25 16  1  0
 12 13  1  0
 12 14  1  0
 12 15  1  0
 17 18  1  0
 19 20  1  0
 21 22  1  0
 23 24  1  0
 25 26  1  0
M  CHG  1   8   1
M  END
>  <PDB_ID>  (1630) 
pdb3e1e

>  <RESIDUE_NAME>  (1630) 
LYS   PHE

>  <FRAG_NAME>  (1630) 
ETAM   MBZ

>  <FRAG_ATOM_NUM>  (1630) 
fragi: 11  fragj: 15

>  <atom.prop.CHAIN_ID>  (1630) 
A A A A A A A A A A A Z Z Z Z Z Z Z Z Z Z Z Z Z Z Z

>  <atom.prop.IS_HEAVY_ATOM>  (1630) 
1 0 0 0 1 0 0 1 0 0 0 1 0 0 0 1 1 0 1 0 1 0 1 0 1 0

>  <DIFUSE_FUNC_ATOM>  (1630) 
n/a

>  <FINAL_SINGLE_POINT_ENERGY>  (1630) 
0

>  <NONCOV_INTER_ENERGY_QM>  (1630) 
0

>  <FF_Energy>  (1630) 
-6.42

>  <QM_Energy>  (1630) 
-13.81

>  <source>  (1630) 
ETAM_MBZ

>  <Index>  (1630) 
16393

$$$$
ETAM-pdb3e1e-E-LYS-10:MBZ-pdb3e1e-E-PHE-4
     RDKit          3D

 26 25  0  0  0  0  0  0  0  0999 V2000
   -4.5140    0.7820    0.4039 C   0  0  0  0  0  0  0  0  0  0  0  0
   -3.5738    0.4884    0.5399 H   0  0  0  0  0  0  0  0  0  0  0  0
   -4.5418    1.6166   -0.1354 H   0  0  0  0  0  0  0  0  0  0  0  0
   -5.0567   -0.0015   -0.1251 H   0  0  0  0  0  0  0  0  0  0  0  0
   -5.1348    1.0648    1.7651 C   0  0  0  0  0  0  0  0  0  0  0  0
   -6.1108    1.2544    1.6433 H   0  0  0  0  0  0  0  0  0  0  0  0
   -5.0271    0.2547    2.3451 H   0  0  0  0  0  0  0  0  0  0  0  0
   -4.4880    2.2308    2.4275 N   0  0  0  0  0  4  0  0  0  0  0  0
   -3.6363    2.4505    1.9536 H   0  0  0  0  0  0  0  0  0  0  0  0
   -5.1040    3.0170    2.3910 H   0  0  0  0  0  0  0  0  0  0  0  0
   -4.2916    2.0038    3.3803 H   0  0  0  0  0  0  0  0  0  0  0  0
   -0.0123    2.9115    0.0069 C   0  0  0  0  0  0  0  0  0  0  0  0
   -0.1939    3.2111    0.9316 H   0  0  0  0  0  0  0  0  0  0  0  0
   -0.7186    3.2148   -0.6146 H   0  0  0  0  0  0  0  0  0  0  0  0
    0.9271    3.3638   -0.3110 H   0  0  0  0  0  0  0  0  0  0  0  0
   -0.0018    1.4050   -0.0006 C   0  0  0  0  0  0  0  0  0  0  0  0
   -1.1977    0.6941    0.0004 C   0  0  0  0  0  0  0  0  0  0  0  0
   -2.0654    1.1855   -0.0000 H   0  0  0  0  0  0  0  0  0  0  0  0
   -1.2045   -0.6963   -0.0000 C   0  0  0  0  0  0  0  0  0  0  0  0
   -2.0793   -1.1906    0.0013 H   0  0  0  0  0  0  0  0  0  0  0  0
    0.0006   -1.3968    0.0001 C   0  0  0  0  0  0  0  0  0  0  0  0
   -0.0059   -2.3945   -0.0002 H   0  0  0  0  0  0  0  0  0  0  0  0
    1.2045   -0.7006    0.0000 C   0  0  0  0  0  0  0  0  0  0  0  0
    2.0841   -1.1968    0.0014 H   0  0  0  0  0  0  0  0  0  0  0  0
    1.1989    0.6946    0.0001 C   0  0  0  0  0  0  0  0  0  0  0  0
    2.0654    1.1907    0.0003 H   0  0  0  0  0  0  0  0  0  0  0  0
  1  5  1  0
  5  8  1  0
  1  2  1  0
  1  3  1  0
  1  4  1  0
  5  6  1  0
  5  7  1  0
  8  9  1  0
  8 10  1  0
  8 11  1  0
 12 16  1  0
 16 17  2  0
 17 19  1  0
 19 21  2  0
 21 23  1  0
 23 25  2  0
 25 16  1  0
 12 13  1  0
 12 14  1  0
 12 15  1  0
 17 18  1  0
 19 20  1  0
 21 22  1  0
 23 24  1  0
 25 26  1  0
M  CHG  1   8   1
M  END
>  <PDB_ID>  (1631) 
pdb3e1e

>  <RESIDUE_NAME>  (1631) 
LYS   PHE

>  <FRAG_NAME>  (1631) 
ETAM   MBZ

>  <FRAG_ATOM_NUM>  (1631) 
fragi: 11  fragj: 15

>  <atom.prop.CHAIN_ID>  (1631) 
A A A A A A A A A A A Z Z Z Z Z Z Z Z Z Z Z Z Z Z Z

>  <atom.prop.IS_HEAVY_ATOM>  (1631) 
1 0 0 0 1 0 0 1 0 0 0 1 0 0 0 1 1 0 1 0 1 0 1 0 1 0

>  <DIFUSE_FUNC_ATOM>  (1631) 
n/a

>  <FINAL_SINGLE_POINT_ENERGY>  (1631) 
0

>  <NONCOV_INTER_ENERGY_QM>  (1631) 
0

>  <FF_Energy>  (1631) 
6.19

>  <QM_Energy>  (1631) 
-0.38

>  <source>  (1631) 
ETAM_MBZ

>  <Index>  (1631) 
16395

$$$$
ETAM-pdb3e1e-E-LYS-10:MBZ-pdb3e1e-E-PHE-71
     RDKit          3D

 26 25  0  0  0  0  0  0  0  0999 V2000
   -0.3222   -2.2195   -4.0165 C   0  0  0  0  0  0  0  0  0  0  0  0
   -0.1075   -2.6604   -4.8815 H   0  0  0  0  0  0  0  0  0  0  0  0
   -0.2950   -1.2307   -4.1155 H   0  0  0  0  0  0  0  0  0  0  0  0
   -1.3233   -2.5184   -3.7057 H   0  0  0  0  0  0  0  0  0  0  0  0
    0.7238   -2.6317   -2.9897 C   0  0  0  0  0  0  0  0  0  0  0  0
    0.4528   -2.2805   -2.0917 H   0  0  0  0  0  0  0  0  0  0  0  0
    0.7649   -3.6324   -2.9527 H   0  0  0  0  0  0  0  0  0  0  0  0
    2.0696   -2.0990   -3.3387 N   0  0  0  0  0  4  0  0  0  0  0  0
    2.0622   -1.7734   -4.2832 H   0  0  0  0  0  0  0  0  0  0  0  0
    2.2963   -1.3430   -2.7255 H   0  0  0  0  0  0  0  0  0  0  0  0
    2.7490   -2.8246   -3.2403 H   0  0  0  0  0  0  0  0  0  0  0  0
   -0.0089    2.9096    0.0977 C   0  0  0  0  0  0  0  0  0  0  0  0
    0.1136    3.1547    1.0493 H   0  0  0  0  0  0  0  0  0  0  0  0
   -0.8823    3.2313   -0.2423 H   0  0  0  0  0  0  0  0  0  0  0  0
    0.7754    3.4019   -0.4773 H   0  0  0  0  0  0  0  0  0  0  0  0
   -0.0003    1.4072    0.0012 C   0  0  0  0  0  0  0  0  0  0  0  0
   -1.1970    0.6971   -0.0018 C   0  0  0  0  0  0  0  0  0  0  0  0
   -2.0650    1.1860   -0.0068 H   0  0  0  0  0  0  0  0  0  0  0  0
   -1.2055   -0.7000    0.0000 C   0  0  0  0  0  0  0  0  0  0  0  0
   -2.0811   -1.1902    0.0008 H   0  0  0  0  0  0  0  0  0  0  0  0
   -0.0011   -1.3998    0.0024 C   0  0  0  0  0  0  0  0  0  0  0  0
   -0.0050   -2.3959    0.0052 H   0  0  0  0  0  0  0  0  0  0  0  0
    1.2055   -0.7003   -0.0000 C   0  0  0  0  0  0  0  0  0  0  0  0
    2.0846   -1.1965    0.0007 H   0  0  0  0  0  0  0  0  0  0  0  0
    1.1985    0.6958   -0.0019 C   0  0  0  0  0  0  0  0  0  0  0  0
    2.0673    1.1916   -0.0064 H   0  0  0  0  0  0  0  0  0  0  0  0
  1  5  1  0
  5  8  1  0
  1  2  1  0
  1  3  1  0
  1  4  1  0
  5  6  1  0
  5  7  1  0
  8  9  1  0
  8 10  1  0
  8 11  1  0
 12 16  1  0
 16 17  2  0
 17 19  1  0
 19 21  2  0
 21 23  1  0
 23 25  2  0
 25 16  1  0
 12 13  1  0
 12 14  1  0
 12 15  1  0
 17 18  1  0
 19 20  1  0
 21 22  1  0
 23 24  1  0
 25 26  1  0
M  CHG  1   8   1
M  END
>  <PDB_ID>  (1632) 
pdb3e1e

>  <RESIDUE_NAME>  (1632) 
LYS   PHE

>  <FRAG_NAME>  (1632) 
ETAM   MBZ

>  <FRAG_ATOM_NUM>  (1632) 
fragi: 11  fragj: 15

>  <atom.prop.CHAIN_ID>  (1632) 
A A A A A A A A A A A Z Z Z Z Z Z Z Z Z Z Z Z Z Z Z

>  <atom.prop.IS_HEAVY_ATOM>  (1632) 
1 0 0 0 1 0 0 1 0 0 0 1 0 0 0 1 1 0 1 0 1 0 1 0 1 0

>  <DIFUSE_FUNC_ATOM>  (1632) 
n/a

>  <FINAL_SINGLE_POINT_ENERGY>  (1632) 
0

>  <NONCOV_INTER_ENERGY_QM>  (1632) 
0

>  <FF_Energy>  (1632) 
0.07

>  <QM_Energy>  (1632) 
-7.91

>  <source>  (1632) 
ETAM_MBZ

>  <Index>  (1632) 
16396

$$$$
ETAM-pdb3e1e-F-LYS-10:MBZ-pdb3e1e-F-PHE-71
     RDKit          3D

 26 25  0  0  0  0  0  0  0  0999 V2000
   -0.1982   -2.2492   -4.0404 C   0  0  0  0  0  0  0  0  0  0  0  0
    0.0063   -2.7628   -4.8633 H   0  0  0  0  0  0  0  0  0  0  0  0
   -0.0900   -1.2759   -4.1946 H   0  0  0  0  0  0  0  0  0  0  0  0
   -1.2280   -2.4501   -3.7448 H   0  0  0  0  0  0  0  0  0  0  0  0
    0.7659   -2.6780   -2.9466 C   0  0  0  0  0  0  0  0  0  0  0  0
    0.4616   -2.2829   -2.0731 H   0  0  0  0  0  0  0  0  0  0  0  0
    0.7434   -3.6804   -2.8693 H   0  0  0  0  0  0  0  0  0  0  0  0
    2.1550   -2.2397   -3.2238 N   0  0  0  0  0  4  0  0  0  0  0  0
    2.6021   -2.9050   -3.8226 H   0  0  0  0  0  0  0  0  0  0  0  0
    2.1400   -1.3458   -3.6726 H   0  0  0  0  0  0  0  0  0  0  0  0
    2.6617   -2.1720   -2.3642 H   0  0  0  0  0  0  0  0  0  0  0  0
   -0.0101    2.9132    0.0878 C   0  0  0  0  0  0  0  0  0  0  0  0
    0.0764    3.1623    1.0416 H   0  0  0  0  0  0  0  0  0  0  0  0
   -0.8671    3.2339   -0.2892 H   0  0  0  0  0  0  0  0  0  0  0  0
    0.7970    3.4009   -0.4589 H   0  0  0  0  0  0  0  0  0  0  0  0
   -0.0000    1.4060    0.0001 C   0  0  0  0  0  0  0  0  0  0  0  0
   -1.1970    0.6945   -0.0014 C   0  0  0  0  0  0  0  0  0  0  0  0
   -2.0649    1.1832   -0.0047 H   0  0  0  0  0  0  0  0  0  0  0  0
   -1.2050   -0.7029    0.0000 C   0  0  0  0  0  0  0  0  0  0  0  0
   -2.0804   -1.1927   -0.0008 H   0  0  0  0  0  0  0  0  0  0  0  0
   -0.0012   -1.3996    0.0040 C   0  0  0  0  0  0  0  0  0  0  0  0
   -0.0012   -2.3957    0.0093 H   0  0  0  0  0  0  0  0  0  0  0  0
    1.2050   -0.6960    0.0000 C   0  0  0  0  0  0  0  0  0  0  0  0
    2.0847   -1.1937    0.0008 H   0  0  0  0  0  0  0  0  0  0  0  0
    1.1982    0.6978   -0.0028 C   0  0  0  0  0  0  0  0  0  0  0  0
    2.0659    1.1945   -0.0080 H   0  0  0  0  0  0  0  0  0  0  0  0
  1  5  1  0
  5  8  1  0
  1  2  1  0
  1  3  1  0
  1  4  1  0
  5  6  1  0
  5  7  1  0
  8  9  1  0
  8 10  1  0
  8 11  1  0
 12 16  1  0
 16 17  2  0
 17 19  1  0
 19 21  2  0
 21 23  1  0
 23 25  2  0
 25 16  1  0
 12 13  1  0
 12 14  1  0
 12 15  1  0
 17 18  1  0
 19 20  1  0
 21 22  1  0
 23 24  1  0
 25 26  1  0
M  CHG  1   8   1
M  END
>  <PDB_ID>  (1633) 
pdb3e1e

>  <RESIDUE_NAME>  (1633) 
LYS   PHE

>  <FRAG_NAME>  (1633) 
ETAM   MBZ

>  <FRAG_ATOM_NUM>  (1633) 
fragi: 11  fragj: 15

>  <atom.prop.CHAIN_ID>  (1633) 
A A A A A A A A A A A Z Z Z Z Z Z Z Z Z Z Z Z Z Z Z

>  <atom.prop.IS_HEAVY_ATOM>  (1633) 
1 0 0 0 1 0 0 1 0 0 0 1 0 0 0 1 1 0 1 0 1 0 1 0 1 0

>  <DIFUSE_FUNC_ATOM>  (1633) 
n/a

>  <FINAL_SINGLE_POINT_ENERGY>  (1633) 
0

>  <NONCOV_INTER_ENERGY_QM>  (1633) 
0

>  <FF_Energy>  (1633) 
0.82

>  <QM_Energy>  (1633) 
-6.92

>  <source>  (1633) 
ETAM_MBZ

>  <Index>  (1633) 
16398

$$$$
ETAM-pdb3e1e-G-LYS-10:MBZ-pdb3e1e-G-PHE-71
     RDKit          3D

 26 25  0  0  0  0  0  0  0  0999 V2000
   -0.8990   -1.7576   -4.2037 C   0  0  0  0  0  0  0  0  0  0  0  0
   -0.7412   -2.3275   -5.0091 H   0  0  0  0  0  0  0  0  0  0  0  0
   -1.0061   -0.8044   -4.4838 H   0  0  0  0  0  0  0  0  0  0  0  0
   -1.8189   -2.0859   -3.7199 H   0  0  0  0  0  0  0  0  0  0  0  0
    0.3163   -1.8605   -3.2913 C   0  0  0  0  0  0  0  0  0  0  0  0
    1.1027   -1.4322   -3.7507 H   0  0  0  0  0  0  0  0  0  0  0  0
    0.1286   -1.3496   -2.4437 H   0  0  0  0  0  0  0  0  0  0  0  0
    0.6570   -3.2659   -2.9493 N   0  0  0  0  0  4  0  0  0  0  0  0
    1.2726   -3.6377   -3.6437 H   0  0  0  0  0  0  0  0  0  0  0  0
    1.1068   -3.2916   -2.0562 H   0  0  0  0  0  0  0  0  0  0  0  0
   -0.1796   -3.8129   -2.9172 H   0  0  0  0  0  0  0  0  0  0  0  0
   -0.0084    2.9098    0.0661 C   0  0  0  0  0  0  0  0  0  0  0  0
    0.2173    3.1783    0.9925 H   0  0  0  0  0  0  0  0  0  0  0  0
   -0.9138    3.2233   -0.1843 H   0  0  0  0  0  0  0  0  0  0  0  0
    0.7049    3.3939   -0.6009 H   0  0  0  0  0  0  0  0  0  0  0  0
   -0.0010    1.4057    0.0013 C   0  0  0  0  0  0  0  0  0  0  0  0
   -1.1972    0.6974   -0.0005 C   0  0  0  0  0  0  0  0  0  0  0  0
   -2.0650    1.1848   -0.0035 H   0  0  0  0  0  0  0  0  0  0  0  0
   -1.2036   -0.6997   -0.0000 C   0  0  0  0  0  0  0  0  0  0  0  0
   -2.0797   -1.1901    0.0008 H   0  0  0  0  0  0  0  0  0  0  0  0
    0.0002   -1.3983    0.0012 C   0  0  0  0  0  0  0  0  0  0  0  0
   -0.0041   -2.3958    0.0017 H   0  0  0  0  0  0  0  0  0  0  0  0
    1.2036   -0.7002   -0.0000 C   0  0  0  0  0  0  0  0  0  0  0  0
    2.0845   -1.1962    0.0017 H   0  0  0  0  0  0  0  0  0  0  0  0
    1.1980    0.6951   -0.0020 C   0  0  0  0  0  0  0  0  0  0  0  0
    2.0654    1.1905   -0.0071 H   0  0  0  0  0  0  0  0  0  0  0  0
  1  5  1  0
  5  8  1  0
  1  2  1  0
  1  3  1  0
  1  4  1  0
  5  6  1  0
  5  7  1  0
  8  9  1  0
  8 10  1  0
  8 11  1  0
 12 16  1  0
 16 17  2  0
 17 19  1  0
 19 21  2  0
 21 23  1  0
 23 25  2  0
 25 16  1  0
 12 13  1  0
 12 14  1  0
 12 15  1  0
 17 18  1  0
 19 20  1  0
 21 22  1  0
 23 24  1  0
 25 26  1  0
M  CHG  1   8   1
M  END
>  <PDB_ID>  (1634) 
pdb3e1e

>  <RESIDUE_NAME>  (1634) 
LYS   PHE

>  <FRAG_NAME>  (1634) 
ETAM   MBZ

>  <FRAG_ATOM_NUM>  (1634) 
fragi: 11  fragj: 15

>  <atom.prop.CHAIN_ID>  (1634) 
A A A A A A A A A A A Z Z Z Z Z Z Z Z Z Z Z Z Z Z Z

>  <atom.prop.IS_HEAVY_ATOM>  (1634) 
1 0 0 0 1 0 0 1 0 0 0 1 0 0 0 1 1 0 1 0 1 0 1 0 1 0

>  <DIFUSE_FUNC_ATOM>  (1634) 
n/a

>  <FINAL_SINGLE_POINT_ENERGY>  (1634) 
0

>  <NONCOV_INTER_ENERGY_QM>  (1634) 
0

>  <FF_Energy>  (1634) 
-1.5

>  <QM_Energy>  (1634) 
-8.24

>  <source>  (1634) 
ETAM_MBZ

>  <Index>  (1634) 
16399

$$$$
ETAM-pdb3e4z-B-LYS-697:MBZ-pdb3e4z-B-PHE-673
     RDKit          3D

 26 25  0  0  0  0  0  0  0  0999 V2000
    0.1902    2.4829   -4.2954 C   0  0  0  0  0  0  0  0  0  0  0  0
   -0.0985    3.0165   -3.4996 H   0  0  0  0  0  0  0  0  0  0  0  0
    0.2748    3.0894   -5.0878 H   0  0  0  0  0  0  0  0  0  0  0  0
    1.1611    2.0337   -4.0869 H   0  0  0  0  0  0  0  0  0  0  0  0
   -0.8785    1.4498   -4.5939 C   0  0  0  0  0  0  0  0  0  0  0  0
   -1.5768    1.8758   -5.1845 H   0  0  0  0  0  0  0  0  0  0  0  0
   -0.4548    0.6923   -5.1080 H   0  0  0  0  0  0  0  0  0  0  0  0
   -1.4978    0.9413   -3.3816 N   0  0  0  0  0  4  0  0  0  0  0  0
   -2.4879    1.1166   -3.3947 H   0  0  0  0  0  0  0  0  0  0  0  0
   -1.3481   -0.0505   -3.3024 H   0  0  0  0  0  0  0  0  0  0  0  0
   -1.1032    1.3908   -2.5733 H   0  0  0  0  0  0  0  0  0  0  0  0
   -0.0113    2.8952    0.0362 C   0  0  0  0  0  0  0  0  0  0  0  0
   -0.6211    3.2152   -0.6689 H   0  0  0  0  0  0  0  0  0  0  0  0
    0.9118    3.2109   -0.1059 H   0  0  0  0  0  0  0  0  0  0  0  0
   -0.3610    3.2864    0.9916 H   0  0  0  0  0  0  0  0  0  0  0  0
   -0.0007    1.3977   -0.0051 C   0  0  0  0  0  0  0  0  0  0  0  0
   -1.2078    0.6851    0.0004 C   0  0  0  0  0  0  0  0  0  0  0  0
   -2.0694    1.1759    0.0038 H   0  0  0  0  0  0  0  0  0  0  0  0
   -1.2087   -0.7085    0.0000 C   0  0  0  0  0  0  0  0  0  0  0  0
   -2.0746   -1.2077    0.0040 H   0  0  0  0  0  0  0  0  0  0  0  0
    0.0085   -1.3882   -0.0043 C   0  0  0  0  0  0  0  0  0  0  0  0
    0.0152   -2.3894   -0.0110 H   0  0  0  0  0  0  0  0  0  0  0  0
    1.2087   -0.6814   -0.0000 C   0  0  0  0  0  0  0  0  0  0  0  0
    2.0909   -1.1841   -0.0023 H   0  0  0  0  0  0  0  0  0  0  0  0
    1.2000    0.6954    0.0091 C   0  0  0  0  0  0  0  0  0  0  0  0
    2.0640    1.2014    0.0253 H   0  0  0  0  0  0  0  0  0  0  0  0
  1  5  1  0
  5  8  1  0
  1  2  1  0
  1  3  1  0
  1  4  1  0
  5  6  1  0
  5  7  1  0
  8  9  1  0
  8 10  1  0
  8 11  1  0
 12 16  1  0
 16 17  2  0
 17 19  1  0
 19 21  2  0
 21 23  1  0
 23 25  2  0
 25 16  1  0
 12 13  1  0
 12 14  1  0
 12 15  1  0
 17 18  1  0
 19 20  1  0
 21 22  1  0
 23 24  1  0
 25 26  1  0
M  CHG  1   8   1
M  END
>  <PDB_ID>  (1635) 
pdb3e4z

>  <RESIDUE_NAME>  (1635) 
LYS   PHE

>  <FRAG_NAME>  (1635) 
ETAM   MBZ

>  <FRAG_ATOM_NUM>  (1635) 
fragi: 11  fragj: 15

>  <atom.prop.CHAIN_ID>  (1635) 
A A A A A A A A A A A Z Z Z Z Z Z Z Z Z Z Z Z Z Z Z

>  <atom.prop.IS_HEAVY_ATOM>  (1635) 
1 0 0 0 1 0 0 1 0 0 0 1 0 0 0 1 1 0 1 0 1 0 1 0 1 0

>  <DIFUSE_FUNC_ATOM>  (1635) 
n/a

>  <FINAL_SINGLE_POINT_ENERGY>  (1635) 
0

>  <NONCOV_INTER_ENERGY_QM>  (1635) 
0

>  <FF_Energy>  (1635) 
-6.57

>  <QM_Energy>  (1635) 
-11.73

>  <source>  (1635) 
ETAM_MBZ

>  <Index>  (1635) 
16440

$$$$
ETAM-pdb3e5r-C-LYS-253:MBZ-pdb3e5r-C-PHE-170
     RDKit          3D

 26 25  0  0  0  0  0  0  0  0999 V2000
   -5.4850    2.3570   -0.9221 C   0  0  0  0  0  0  0  0  0  0  0  0
   -6.4140    2.0566   -1.0904 H   0  0  0  0  0  0  0  0  0  0  0  0
   -5.0707    2.7127   -1.7487 H   0  0  0  0  0  0  0  0  0  0  0  0
   -5.5012    3.1450   -0.1692 H   0  0  0  0  0  0  0  0  0  0  0  0
   -4.6674    1.1664   -0.4394 C   0  0  0  0  0  0  0  0  0  0  0  0
   -3.7163    1.4644   -0.2936 H   0  0  0  0  0  0  0  0  0  0  0  0
   -5.0391    0.8542    0.4438 H   0  0  0  0  0  0  0  0  0  0  0  0
   -4.6791    0.0288   -1.4009 N   0  0  0  0  0  4  0  0  0  0  0  0
   -3.7604   -0.3590   -1.4659 H   0  0  0  0  0  0  0  0  0  0  0  0
   -5.3155   -0.6706   -1.0782 H   0  0  0  0  0  0  0  0  0  0  0  0
   -4.9694    0.3574   -2.2994 H   0  0  0  0  0  0  0  0  0  0  0  0
   -0.0038    2.9002   -0.0117 C   0  0  0  0  0  0  0  0  0  0  0  0
    0.9240    3.2090    0.1314 H   0  0  0  0  0  0  0  0  0  0  0  0
   -0.6040    3.2100    0.7094 H   0  0  0  0  0  0  0  0  0  0  0  0
   -0.3593    3.3255   -0.9503 H   0  0  0  0  0  0  0  0  0  0  0  0
   -0.0003    1.3994    0.0007 C   0  0  0  0  0  0  0  0  0  0  0  0
   -1.1949    0.6935   -0.0008 C   0  0  0  0  0  0  0  0  0  0  0  0
   -2.0627    1.1864   -0.0038 H   0  0  0  0  0  0  0  0  0  0  0  0
   -1.2029   -0.6932   -0.0000 C   0  0  0  0  0  0  0  0  0  0  0  0
   -2.0790   -1.1882    0.0016 H   0  0  0  0  0  0  0  0  0  0  0  0
   -0.0007   -1.3934    0.0007 C   0  0  0  0  0  0  0  0  0  0  0  0
   -0.0075   -2.3910    0.0018 H   0  0  0  0  0  0  0  0  0  0  0  0
    1.2029   -0.6988   -0.0000 C   0  0  0  0  0  0  0  0  0  0  0  0
    2.0823   -1.1960    0.0018 H   0  0  0  0  0  0  0  0  0  0  0  0
    1.1958    0.6926   -0.0007 C   0  0  0  0  0  0  0  0  0  0  0  0
    2.0638    1.1899   -0.0026 H   0  0  0  0  0  0  0  0  0  0  0  0
  1  5  1  0
  5  8  1  0
  1  2  1  0
  1  3  1  0
  1  4  1  0
  5  6  1  0
  5  7  1  0
  8  9  1  0
  8 10  1  0
  8 11  1  0
 12 16  1  0
 16 17  2  0
 17 19  1  0
 19 21  2  0
 21 23  1  0
 23 25  2  0
 25 16  1  0
 12 13  1  0
 12 14  1  0
 12 15  1  0
 17 18  1  0
 19 20  1  0
 21 22  1  0
 23 24  1  0
 25 26  1  0
M  CHG  1   8   1
M  END
>  <PDB_ID>  (1636) 
pdb3e5r

>  <RESIDUE_NAME>  (1636) 
LYS   PHE

>  <FRAG_NAME>  (1636) 
ETAM   MBZ

>  <FRAG_ATOM_NUM>  (1636) 
fragi: 11  fragj: 15

>  <atom.prop.CHAIN_ID>  (1636) 
A A A A A A A A A A A Z Z Z Z Z Z Z Z Z Z Z Z Z Z Z

>  <atom.prop.IS_HEAVY_ATOM>  (1636) 
1 0 0 0 1 0 0 1 0 0 0 1 0 0 0 1 1 0 1 0 1 0 1 0 1 0

>  <DIFUSE_FUNC_ATOM>  (1636) 
n/a

>  <FINAL_SINGLE_POINT_ENERGY>  (1636) 
0

>  <NONCOV_INTER_ENERGY_QM>  (1636) 
0

>  <FF_Energy>  (1636) 
7.82

>  <QM_Energy>  (1636) 
-2.51

>  <source>  (1636) 
ETAM_MBZ

>  <Index>  (1636) 
16444

$$$$
ETAM-pdb3e7k-F-LYS-54:MBZ-pdb3e7k-E-PHE-8
     RDKit          3D

 26 25  0  0  0  0  0  0  0  0999 V2000
   -2.9642   -5.1927   -0.9315 C   0  0  0  0  0  0  0  0  0  0  0  0
   -3.0415   -5.6610   -0.0569 H   0  0  0  0  0  0  0  0  0  0  0  0
   -3.4410   -5.7019   -1.6402 H   0  0  0  0  0  0  0  0  0  0  0  0
   -3.3938   -4.1943   -0.8487 H   0  0  0  0  0  0  0  0  0  0  0  0
   -1.4717   -5.1391   -1.3098 C   0  0  0  0  0  0  0  0  0  0  0  0
   -1.1714   -6.0583   -1.5534 H   0  0  0  0  0  0  0  0  0  0  0  0
   -1.3621   -4.5293   -2.0911 H   0  0  0  0  0  0  0  0  0  0  0  0
   -0.6435   -4.6335   -0.1671 N   0  0  0  0  0  4  0  0  0  0  0  0
   -0.1419   -5.3971    0.2352 H   0  0  0  0  0  0  0  0  0  0  0  0
   -0.0024   -3.9487   -0.5076 H   0  0  0  0  0  0  0  0  0  0  0  0
   -1.2447   -4.2250    0.5166 H   0  0  0  0  0  0  0  0  0  0  0  0
    0.0234    2.9532    0.0477 C   0  0  0  0  0  0  0  0  0  0  0  0
   -0.7251    3.2836   -0.4905 H   0  0  0  0  0  0  0  0  0  0  0  0
    0.8948    3.2527   -0.2853 H   0  0  0  0  0  0  0  0  0  0  0  0
   -0.0971    3.3408    1.0593 H   0  0  0  0  0  0  0  0  0  0  0  0
    0.0008    1.4298   -0.0040 C   0  0  0  0  0  0  0  0  0  0  0  0
   -1.1953    0.7364   -0.0029 C   0  0  0  0  0  0  0  0  0  0  0  0
   -2.0648    1.2036   -0.0053 H   0  0  0  0  0  0  0  0  0  0  0  0
   -1.2065   -0.7054    0.0000 C   0  0  0  0  0  0  0  0  0  0  0  0
   -2.0887   -1.1730    0.0151 H   0  0  0  0  0  0  0  0  0  0  0  0
   -0.0003   -1.4267   -0.0162 C   0  0  0  0  0  0  0  0  0  0  0  0
   -0.0145   -2.4147   -0.0393 H   0  0  0  0  0  0  0  0  0  0  0  0
    1.2065   -0.7249    0.0000 C   0  0  0  0  0  0  0  0  0  0  0  0
    2.0872   -1.2092   -0.0032 H   0  0  0  0  0  0  0  0  0  0  0  0
    1.1948    0.6908    0.0231 C   0  0  0  0  0  0  0  0  0  0  0  0
    2.0716    1.1782    0.0591 H   0  0  0  0  0  0  0  0  0  0  0  0
  1  5  1  0
  5  8  1  0
  1  2  1  0
  1  3  1  0
  1  4  1  0
  5  6  1  0
  5  7  1  0
  8  9  1  0
  8 10  1  0
  8 11  1  0
 12 16  1  0
 16 17  2  0
 17 19  1  0
 19 21  2  0
 21 23  1  0
 23 25  2  0
 25 16  1  0
 12 13  1  0
 12 14  1  0
 12 15  1  0
 17 18  1  0
 19 20  1  0
 21 22  1  0
 23 24  1  0
 25 26  1  0
M  CHG  1   8   1
M  END
>  <PDB_ID>  (1637) 
pdb3e7k

>  <RESIDUE_NAME>  (1637) 
LYS   PHE

>  <FRAG_NAME>  (1637) 
ETAM   MBZ

>  <FRAG_ATOM_NUM>  (1637) 
fragi: 11  fragj: 15

>  <atom.prop.CHAIN_ID>  (1637) 
A A A A A A A A A A A Z Z Z Z Z Z Z Z Z Z Z Z Z Z Z

>  <atom.prop.IS_HEAVY_ATOM>  (1637) 
1 0 0 0 1 0 0 1 0 0 0 1 0 0 0 1 1 0 1 0 1 0 1 0 1 0

>  <DIFUSE_FUNC_ATOM>  (1637) 
n/a

>  <FINAL_SINGLE_POINT_ENERGY>  (1637) 
0

>  <NONCOV_INTER_ENERGY_QM>  (1637) 
0

>  <FF_Energy>  (1637) 
5.12

>  <QM_Energy>  (1637) 
-1.15

>  <source>  (1637) 
ETAM_MBZ

>  <Index>  (1637) 
16462

$$$$
ETAM-pdb3e7g-A-LYS-158:MBZ-pdb3e7g-A-PHE-154
     RDKit          3D

 26 25  0  0  0  0  0  0  0  0999 V2000
   -1.0893    0.5039    5.2108 C   0  0  0  0  0  0  0  0  0  0  0  0
   -0.7226   -0.2236    5.7883 H   0  0  0  0  0  0  0  0  0  0  0  0
   -2.0368    0.6914    5.4644 H   0  0  0  0  0  0  0  0  0  0  0  0
   -0.4983    1.4063    5.3672 H   0  0  0  0  0  0  0  0  0  0  0  0
   -1.0610    0.0327    3.7633 C   0  0  0  0  0  0  0  0  0  0  0  0
   -1.2787    0.8015    3.1661 H   0  0  0  0  0  0  0  0  0  0  0  0
   -0.1497   -0.3134    3.5505 H   0  0  0  0  0  0  0  0  0  0  0  0
   -2.0620   -1.0564    3.5439 N   0  0  0  0  0  4  0  0  0  0  0  0
   -1.6363   -1.9380    3.7398 H   0  0  0  0  0  0  0  0  0  0  0  0
   -2.8402   -0.9140    4.1531 H   0  0  0  0  0  0  0  0  0  0  0  0
   -2.3689   -1.0332    2.5939 H   0  0  0  0  0  0  0  0  0  0  0  0
   -0.0059    2.9006   -0.0575 C   0  0  0  0  0  0  0  0  0  0  0  0
    0.9064    3.2213    0.1433 H   0  0  0  0  0  0  0  0  0  0  0  0
   -0.6608    3.2305    0.6040 H   0  0  0  0  0  0  0  0  0  0  0  0
   -0.2903    3.2963   -1.0325 H   0  0  0  0  0  0  0  0  0  0  0  0
    0.0011    1.4022   -0.0006 C   0  0  0  0  0  0  0  0  0  0  0  0
   -1.1966    0.6920    0.0008 C   0  0  0  0  0  0  0  0  0  0  0  0
   -2.0636    1.1835    0.0015 H   0  0  0  0  0  0  0  0  0  0  0  0
   -1.2037   -0.6989   -0.0000 C   0  0  0  0  0  0  0  0  0  0  0  0
   -2.0802   -1.1915    0.0016 H   0  0  0  0  0  0  0  0  0  0  0  0
   -0.0031   -1.3953   -0.0014 C   0  0  0  0  0  0  0  0  0  0  0  0
   -0.0046   -2.3933   -0.0035 H   0  0  0  0  0  0  0  0  0  0  0  0
    1.2037   -0.6967    0.0000 C   0  0  0  0  0  0  0  0  0  0  0  0
    2.0826   -1.1950    0.0017 H   0  0  0  0  0  0  0  0  0  0  0  0
    1.1986    0.6967    0.0013 C   0  0  0  0  0  0  0  0  0  0  0  0
    2.0657    1.1925    0.0024 H   0  0  0  0  0  0  0  0  0  0  0  0
  1  5  1  0
  5  8  1  0
  1  2  1  0
  1  3  1  0
  1  4  1  0
  5  6  1  0
  5  7  1  0
  8  9  1  0
  8 10  1  0
  8 11  1  0
 12 16  1  0
 16 17  2  0
 17 19  1  0
 19 21  2  0
 21 23  1  0
 23 25  2  0
 25 16  1  0
 12 13  1  0
 12 14  1  0
 12 15  1  0
 17 18  1  0
 19 20  1  0
 21 22  1  0
 23 24  1  0
 25 26  1  0
M  CHG  1   8   1
M  END
>  <PDB_ID>  (1638) 
pdb3e7g

>  <RESIDUE_NAME>  (1638) 
LYS   PHE

>  <FRAG_NAME>  (1638) 
ETAM   MBZ

>  <FRAG_ATOM_NUM>  (1638) 
fragi: 11  fragj: 15

>  <atom.prop.CHAIN_ID>  (1638) 
A A A A A A A A A A A Z Z Z Z Z Z Z Z Z Z Z Z Z Z Z

>  <atom.prop.IS_HEAVY_ATOM>  (1638) 
1 0 0 0 1 0 0 1 0 0 0 1 0 0 0 1 1 0 1 0 1 0 1 0 1 0

>  <DIFUSE_FUNC_ATOM>  (1638) 
n/a

>  <FINAL_SINGLE_POINT_ENERGY>  (1638) 
0

>  <NONCOV_INTER_ENERGY_QM>  (1638) 
0

>  <FF_Energy>  (1638) 
-4.87

>  <QM_Energy>  (1638) 
-9.94

>  <source>  (1638) 
ETAM_MBZ

>  <Index>  (1638) 
16475

$$$$
ETAM-pdb3e5b-B-LYS-163:MBZ-pdb3e5b-B-PHE-159
     RDKit          3D

 26 25  0  0  0  0  0  0  0  0999 V2000
    1.4156   -0.7507    3.4222 C   0  0  0  0  0  0  0  0  0  0  0  0
    0.8524   -1.2712    2.7801 H   0  0  0  0  0  0  0  0  0  0  0  0
    1.6104    0.1518    3.0395 H   0  0  0  0  0  0  0  0  0  0  0  0
    0.8615   -0.6255    4.3525 H   0  0  0  0  0  0  0  0  0  0  0  0
    2.7457   -1.4918    3.6046 C   0  0  0  0  0  0  0  0  0  0  0  0
    3.2531   -1.0682    4.3613 H   0  0  0  0  0  0  0  0  0  0  0  0
    2.5557   -2.4496    3.8414 H   0  0  0  0  0  0  0  0  0  0  0  0
    3.6150   -1.4643    2.3653 N   0  0  0  0  0  4  0  0  0  0  0  0
    3.1478   -1.9563    1.6366 H   0  0  0  0  0  0  0  0  0  0  0  0
    3.7627   -0.5158    2.1007 H   0  0  0  0  0  0  0  0  0  0  0  0
    4.4836   -1.9023    2.5752 H   0  0  0  0  0  0  0  0  0  0  0  0
    0.0085    2.9360   -0.0339 C   0  0  0  0  0  0  0  0  0  0  0  0
   -0.6930    3.2231   -0.6735 H   0  0  0  0  0  0  0  0  0  0  0  0
    0.9070    3.2214   -0.3436 H   0  0  0  0  0  0  0  0  0  0  0  0
   -0.1873    3.4285    0.9185 H   0  0  0  0  0  0  0  0  0  0  0  0
   -0.0019    1.4166    0.0093 C   0  0  0  0  0  0  0  0  0  0  0  0
   -1.2045    0.7060   -0.0088 C   0  0  0  0  0  0  0  0  0  0  0  0
   -2.0702    1.1924   -0.0294 H   0  0  0  0  0  0  0  0  0  0  0  0
   -1.2151   -0.7011   -0.0000 C   0  0  0  0  0  0  0  0  0  0  0  0
   -2.0868   -1.1900    0.0078 H   0  0  0  0  0  0  0  0  0  0  0  0
    0.0019   -1.4114   -0.0005 C   0  0  0  0  0  0  0  0  0  0  0  0
   -0.0079   -2.4033   -0.0020 H   0  0  0  0  0  0  0  0  0  0  0  0
    1.2151   -0.7098   -0.0000 C   0  0  0  0  0  0  0  0  0  0  0  0
    2.0917   -1.2006    0.0022 H   0  0  0  0  0  0  0  0  0  0  0  0
    1.2045    0.6997    0.0001 C   0  0  0  0  0  0  0  0  0  0  0  0
    2.0709    1.1936   -0.0075 H   0  0  0  0  0  0  0  0  0  0  0  0
  1  5  1  0
  5  8  1  0
  1  2  1  0
  1  3  1  0
  1  4  1  0
  5  6  1  0
  5  7  1  0
  8  9  1  0
  8 10  1  0
  8 11  1  0
 12 16  1  0
 16 17  2  0
 17 19  1  0
 19 21  2  0
 21 23  1  0
 23 25  2  0
 25 16  1  0
 12 13  1  0
 12 14  1  0
 12 15  1  0
 17 18  1  0
 19 20  1  0
 21 22  1  0
 23 24  1  0
 25 26  1  0
M  CHG  1   8   1
M  END
>  <PDB_ID>  (1639) 
pdb3e5b

>  <RESIDUE_NAME>  (1639) 
LYS   PHE

>  <FRAG_NAME>  (1639) 
ETAM   MBZ

>  <FRAG_ATOM_NUM>  (1639) 
fragi: 11  fragj: 15

>  <atom.prop.CHAIN_ID>  (1639) 
A A A A A A A A A A A Z Z Z Z Z Z Z Z Z Z Z Z Z Z Z

>  <atom.prop.IS_HEAVY_ATOM>  (1639) 
1 0 0 0 1 0 0 1 0 0 0 1 0 0 0 1 1 0 1 0 1 0 1 0 1 0

>  <DIFUSE_FUNC_ATOM>  (1639) 
n/a

>  <FINAL_SINGLE_POINT_ENERGY>  (1639) 
0

>  <NONCOV_INTER_ENERGY_QM>  (1639) 
0

>  <FF_Energy>  (1639) 
-1.46

>  <QM_Energy>  (1639) 
-6.64

>  <source>  (1639) 
ETAM_MBZ

>  <Index>  (1639) 
16478

$$$$
ETAM-pdb3e96-A-LYS-265:MBZ-pdb3e96-A-PHE-23
     RDKit          3D

 26 25  0  0  0  0  0  0  0  0999 V2000
    5.1131    2.5678   -3.4863 C   0  0  0  0  0  0  0  0  0  0  0  0
    5.6695    2.3329   -2.7042 H   0  0  0  0  0  0  0  0  0  0  0  0
    4.6147    3.4073   -3.3364 H   0  0  0  0  0  0  0  0  0  0  0  0
    5.7537    2.6813   -4.3609 H   0  0  0  0  0  0  0  0  0  0  0  0
    4.1014    1.4392   -3.7154 C   0  0  0  0  0  0  0  0  0  0  0  0
    3.5108    1.6912   -4.4887 H   0  0  0  0  0  0  0  0  0  0  0  0
    4.6045    0.6026   -3.9553 H   0  0  0  0  0  0  0  0  0  0  0  0
    3.2561    1.1770   -2.5160 N   0  0  0  0  0  4  0  0  0  0  0  0
    2.3236    1.4885   -2.6941 H   0  0  0  0  0  0  0  0  0  0  0  0
    3.2517    0.1963   -2.3228 H   0  0  0  0  0  0  0  0  0  0  0  0
    3.6311    1.6710   -1.7333 H   0  0  0  0  0  0  0  0  0  0  0  0
    0.0105    2.9076    0.0621 C   0  0  0  0  0  0  0  0  0  0  0  0
    0.9489    3.2112   -0.0324 H   0  0  0  0  0  0  0  0  0  0  0  0
   -0.3651    3.1817    0.9366 H   0  0  0  0  0  0  0  0  0  0  0  0
   -0.5758    3.3940   -0.7175 H   0  0  0  0  0  0  0  0  0  0  0  0
   -0.0005    1.4048    0.0018 C   0  0  0  0  0  0  0  0  0  0  0  0
   -1.1995    0.7006   -0.0005 C   0  0  0  0  0  0  0  0  0  0  0  0
   -2.0651    1.1876   -0.0044 H   0  0  0  0  0  0  0  0  0  0  0  0
   -1.2058   -0.6993   -0.0000 C   0  0  0  0  0  0  0  0  0  0  0  0
   -2.0799   -1.1903    0.0013 H   0  0  0  0  0  0  0  0  0  0  0  0
    0.0024   -1.3990   -0.0001 C   0  0  0  0  0  0  0  0  0  0  0  0
   -0.0039   -2.3966   -0.0010 H   0  0  0  0  0  0  0  0  0  0  0  0
    1.2058   -0.7012    0.0000 C   0  0  0  0  0  0  0  0  0  0  0  0
    2.0859   -1.1959    0.0023 H   0  0  0  0  0  0  0  0  0  0  0  0
    1.1976    0.6942   -0.0012 C   0  0  0  0  0  0  0  0  0  0  0  0
    2.0655    1.1903   -0.0050 H   0  0  0  0  0  0  0  0  0  0  0  0
  1  5  1  0
  5  8  1  0
  1  2  1  0
  1  3  1  0
  1  4  1  0
  5  6  1  0
  5  7  1  0
  8  9  1  0
  8 10  1  0
  8 11  1  0
 12 16  1  0
 16 17  2  0
 17 19  1  0
 19 21  2  0
 21 23  1  0
 23 25  2  0
 25 16  1  0
 12 13  1  0
 12 14  1  0
 12 15  1  0
 17 18  1  0
 19 20  1  0
 21 22  1  0
 23 24  1  0
 25 26  1  0
M  CHG  1   8   1
M  END
>  <PDB_ID>  (1640) 
pdb3e96

>  <RESIDUE_NAME>  (1640) 
LYS   PHE

>  <FRAG_NAME>  (1640) 
ETAM   MBZ

>  <FRAG_ATOM_NUM>  (1640) 
fragi: 11  fragj: 15

>  <atom.prop.CHAIN_ID>  (1640) 
A A A A A A A A A A A Z Z Z Z Z Z Z Z Z Z Z Z Z Z Z

>  <atom.prop.IS_HEAVY_ATOM>  (1640) 
1 0 0 0 1 0 0 1 0 0 0 1 0 0 0 1 1 0 1 0 1 0 1 0 1 0

>  <DIFUSE_FUNC_ATOM>  (1640) 
n/a

>  <FINAL_SINGLE_POINT_ENERGY>  (1640) 
0

>  <NONCOV_INTER_ENERGY_QM>  (1640) 
0

>  <FF_Energy>  (1640) 
-1.71

>  <QM_Energy>  (1640) 
-6.78

>  <source>  (1640) 
ETAM_MBZ

>  <Index>  (1640) 
16485

$$$$
ETAM-pdb3e7g-B-LYS-158:MBZ-pdb3e7g-B-PHE-154
     RDKit          3D

 26 25  0  0  0  0  0  0  0  0999 V2000
    0.4015    1.2625    4.9522 C   0  0  0  0  0  0  0  0  0  0  0  0
    0.7088    0.4160    5.3782 H   0  0  0  0  0  0  0  0  0  0  0  0
   -0.5079    1.5012    5.2814 H   0  0  0  0  0  0  0  0  0  0  0  0
    1.0951    2.0621    5.2122 H   0  0  0  0  0  0  0  0  0  0  0  0
    0.3243    1.0424    3.4444 C   0  0  0  0  0  0  0  0  0  0  0  0
    0.1635    1.9211    2.9955 H   0  0  0  0  0  0  0  0  0  0  0  0
    1.1907    0.6592    3.1268 H   0  0  0  0  0  0  0  0  0  0  0  0
   -0.7852    0.1006    3.0892 N   0  0  0  0  0  4  0  0  0  0  0  0
   -0.4005   -0.7027    2.6402 H   0  0  0  0  0  0  0  0  0  0  0  0
   -1.2611   -0.1725    3.9226 H   0  0  0  0  0  0  0  0  0  0  0  0
   -1.4203    0.5612    2.4725 H   0  0  0  0  0  0  0  0  0  0  0  0
   -0.0065    2.8974   -0.0063 C   0  0  0  0  0  0  0  0  0  0  0  0
    0.9301    3.2085    0.0548 H   0  0  0  0  0  0  0  0  0  0  0  0
   -0.5398    3.2054    0.7663 H   0  0  0  0  0  0  0  0  0  0  0  0
   -0.4446    3.3247   -0.9083 H   0  0  0  0  0  0  0  0  0  0  0  0
   -0.0001    1.4000    0.0002 C   0  0  0  0  0  0  0  0  0  0  0  0
   -1.1975    0.6940   -0.0003 C   0  0  0  0  0  0  0  0  0  0  0  0
   -2.0635    1.1855   -0.0019 H   0  0  0  0  0  0  0  0  0  0  0  0
   -1.2033   -0.6963   -0.0000 C   0  0  0  0  0  0  0  0  0  0  0  0
   -2.0786   -1.1903    0.0016 H   0  0  0  0  0  0  0  0  0  0  0  0
    0.0006   -1.3935    0.0004 C   0  0  0  0  0  0  0  0  0  0  0  0
   -0.0044   -2.3922    0.0007 H   0  0  0  0  0  0  0  0  0  0  0  0
    1.2033   -0.6977    0.0000 C   0  0  0  0  0  0  0  0  0  0  0  0
    2.0838   -1.1945    0.0015 H   0  0  0  0  0  0  0  0  0  0  0  0
    1.1970    0.6936   -0.0003 C   0  0  0  0  0  0  0  0  0  0  0  0
    2.0647    1.1909   -0.0018 H   0  0  0  0  0  0  0  0  0  0  0  0
  1  5  1  0
  5  8  1  0
  1  2  1  0
  1  3  1  0
  1  4  1  0
  5  6  1  0
  5  7  1  0
  8  9  1  0
  8 10  1  0
  8 11  1  0
 12 16  1  0
 16 17  2  0
 17 19  1  0
 19 21  2  0
 21 23  1  0
 23 25  2  0
 25 16  1  0
 12 13  1  0
 12 14  1  0
 12 15  1  0
 17 18  1  0
 19 20  1  0
 21 22  1  0
 23 24  1  0
 25 26  1  0
M  CHG  1   8   1
M  END
>  <PDB_ID>  (1641) 
pdb3e7g

>  <RESIDUE_NAME>  (1641) 
LYS   PHE

>  <FRAG_NAME>  (1641) 
ETAM   MBZ

>  <FRAG_ATOM_NUM>  (1641) 
fragi: 11  fragj: 15

>  <atom.prop.CHAIN_ID>  (1641) 
A A A A A A A A A A A Z Z Z Z Z Z Z Z Z Z Z Z Z Z Z

>  <atom.prop.IS_HEAVY_ATOM>  (1641) 
1 0 0 0 1 0 0 1 0 0 0 1 0 0 0 1 1 0 1 0 1 0 1 0 1 0

>  <DIFUSE_FUNC_ATOM>  (1641) 
n/a

>  <FINAL_SINGLE_POINT_ENERGY>  (1641) 
0

>  <NONCOV_INTER_ENERGY_QM>  (1641) 
0

>  <FF_Energy>  (1641) 
-8.73

>  <QM_Energy>  (1641) 
-16.07

>  <source>  (1641) 
ETAM_MBZ

>  <Index>  (1641) 
16490

$$$$
ETAM-pdb3e5b-C-LYS-163:MBZ-pdb3e5b-C-PHE-159
     RDKit          3D

 26 25  0  0  0  0  0  0  0  0999 V2000
    1.0099   -1.6066    3.8074 C   0  0  0  0  0  0  0  0  0  0  0  0
    1.1645   -2.4319    4.3346 H   0  0  0  0  0  0  0  0  0  0  0  0
    0.5237   -1.8103    2.9675 H   0  0  0  0  0  0  0  0  0  0  0  0
    0.4051   -0.9227    4.4028 H   0  0  0  0  0  0  0  0  0  0  0  0
    2.3575   -0.9883    3.4569 C   0  0  0  0  0  0  0  0  0  0  0  0
    2.1967   -0.0652    3.0715 H   0  0  0  0  0  0  0  0  0  0  0  0
    2.8891   -0.8695    4.3118 H   0  0  0  0  0  0  0  0  0  0  0  0
    3.1533   -1.7852    2.4971 N   0  0  0  0  0  4  0  0  0  0  0  0
    3.6700   -1.1713    1.8985 H   0  0  0  0  0  0  0  0  0  0  0  0
    3.7890   -2.3756    2.9964 H   0  0  0  0  0  0  0  0  0  0  0  0
    2.5416   -2.3514    1.9426 H   0  0  0  0  0  0  0  0  0  0  0  0
    0.0098    2.9398   -0.0531 C   0  0  0  0  0  0  0  0  0  0  0  0
   -0.5818    3.2158   -0.7975 H   0  0  0  0  0  0  0  0  0  0  0  0
    0.9431    3.2287   -0.2136 H   0  0  0  0  0  0  0  0  0  0  0  0
   -0.3405    3.4367    0.8516 H   0  0  0  0  0  0  0  0  0  0  0  0
    0.0011    1.4174    0.0028 C   0  0  0  0  0  0  0  0  0  0  0  0
   -1.1996    0.7023   -0.0123 C   0  0  0  0  0  0  0  0  0  0  0  0
   -2.0680    1.1871   -0.0332 H   0  0  0  0  0  0  0  0  0  0  0  0
   -1.2136   -0.7106   -0.0000 C   0  0  0  0  0  0  0  0  0  0  0  0
   -2.0857   -1.1939    0.0049 H   0  0  0  0  0  0  0  0  0  0  0  0
   -0.0001   -1.4129    0.0072 C   0  0  0  0  0  0  0  0  0  0  0  0
    0.0010   -2.4045    0.0170 H   0  0  0  0  0  0  0  0  0  0  0  0
    1.2136   -0.7014   -0.0000 C   0  0  0  0  0  0  0  0  0  0  0  0
    2.0915   -1.1917   -0.0051 H   0  0  0  0  0  0  0  0  0  0  0  0
    1.1987    0.7052    0.0024 C   0  0  0  0  0  0  0  0  0  0  0  0
    2.0688    1.1989    0.0033 H   0  0  0  0  0  0  0  0  0  0  0  0
  1  5  1  0
  5  8  1  0
  1  2  1  0
  1  3  1  0
  1  4  1  0
  5  6  1  0
  5  7  1  0
  8  9  1  0
  8 10  1  0
  8 11  1  0
 12 16  1  0
 16 17  2  0
 17 19  1  0
 19 21  2  0
 21 23  1  0
 23 25  2  0
 25 16  1  0
 12 13  1  0
 12 14  1  0
 12 15  1  0
 17 18  1  0
 19 20  1  0
 21 22  1  0
 23 24  1  0
 25 26  1  0
M  CHG  1   8   1
M  END
>  <PDB_ID>  (1642) 
pdb3e5b

>  <RESIDUE_NAME>  (1642) 
LYS   PHE

>  <FRAG_NAME>  (1642) 
ETAM   MBZ

>  <FRAG_ATOM_NUM>  (1642) 
fragi: 11  fragj: 15

>  <atom.prop.CHAIN_ID>  (1642) 
A A A A A A A A A A A Z Z Z Z Z Z Z Z Z Z Z Z Z Z Z

>  <atom.prop.IS_HEAVY_ATOM>  (1642) 
1 0 0 0 1 0 0 1 0 0 0 1 0 0 0 1 1 0 1 0 1 0 1 0 1 0

>  <DIFUSE_FUNC_ATOM>  (1642) 
n/a

>  <FINAL_SINGLE_POINT_ENERGY>  (1642) 
0

>  <NONCOV_INTER_ENERGY_QM>  (1642) 
0

>  <FF_Energy>  (1642) 
-2.07

>  <QM_Energy>  (1642) 
-8.15

>  <source>  (1642) 
ETAM_MBZ

>  <Index>  (1642) 
16491

$$$$
ETAM-pdb3e4z-B-LYS-206:MBZ-pdb3e4z-B-PHE-215
     RDKit          3D

 26 25  0  0  0  0  0  0  0  0999 V2000
    0.8880   -0.4066   -4.8914 C   0  0  0  0  0  0  0  0  0  0  0  0
    0.8712   -0.8918   -5.7547 H   0  0  0  0  0  0  0  0  0  0  0  0
    0.8378    0.5721   -5.0304 H   0  0  0  0  0  0  0  0  0  0  0  0
    0.0483   -0.7304   -4.2764 H   0  0  0  0  0  0  0  0  0  0  0  0
    2.2029   -0.7242   -4.1878 C   0  0  0  0  0  0  0  0  0  0  0  0
    2.1292   -1.6207   -3.7543 H   0  0  0  0  0  0  0  0  0  0  0  0
    2.9378   -0.7380   -4.8650 H   0  0  0  0  0  0  0  0  0  0  0  0
    2.5103    0.3007   -3.1501 N   0  0  0  0  0  4  0  0  0  0  0  0
    2.5933   -0.1449   -2.2597 H   0  0  0  0  0  0  0  0  0  0  0  0
    3.3699    0.7558   -3.3795 H   0  0  0  0  0  0  0  0  0  0  0  0
    1.7718    0.9737   -3.1213 H   0  0  0  0  0  0  0  0  0  0  0  0
   -0.0181    2.9354    0.0221 C   0  0  0  0  0  0  0  0  0  0  0  0
    0.4566    3.2222    0.8432 H   0  0  0  0  0  0  0  0  0  0  0  0
   -0.9673    3.2208    0.0424 H   0  0  0  0  0  0  0  0  0  0  0  0
    0.4612    3.4156   -0.8310 H   0  0  0  0  0  0  0  0  0  0  0  0
   -0.0009    1.4114   -0.0054 C   0  0  0  0  0  0  0  0  0  0  0  0
   -1.1937    0.6982    0.0090 C   0  0  0  0  0  0  0  0  0  0  0  0
   -2.0648    1.1846    0.0248 H   0  0  0  0  0  0  0  0  0  0  0  0
   -1.2048   -0.7027    0.0000 C   0  0  0  0  0  0  0  0  0  0  0  0
   -2.0828   -1.1894   -0.0027 H   0  0  0  0  0  0  0  0  0  0  0  0
   -0.0010   -1.4114   -0.0030 C   0  0  0  0  0  0  0  0  0  0  0  0
   -0.0033   -2.4013   -0.0077 H   0  0  0  0  0  0  0  0  0  0  0  0
    1.2048   -0.7003    0.0000 C   0  0  0  0  0  0  0  0  0  0  0  0
    2.0873   -1.1912    0.0038 H   0  0  0  0  0  0  0  0  0  0  0  0
    1.1956    0.7048   -0.0006 C   0  0  0  0  0  0  0  0  0  0  0  0
    2.0654    1.1965    0.0018 H   0  0  0  0  0  0  0  0  0  0  0  0
  1  5  1  0
  5  8  1  0
  1  2  1  0
  1  3  1  0
  1  4  1  0
  5  6  1  0
  5  7  1  0
  8  9  1  0
  8 10  1  0
  8 11  1  0
 12 16  1  0
 16 17  2  0
 17 19  1  0
 19 21  2  0
 21 23  1  0
 23 25  2  0
 25 16  1  0
 12 13  1  0
 12 14  1  0
 12 15  1  0
 17 18  1  0
 19 20  1  0
 21 22  1  0
 23 24  1  0
 25 26  1  0
M  CHG  1   8   1
M  END
>  <PDB_ID>  (1643) 
pdb3e4z

>  <RESIDUE_NAME>  (1643) 
LYS   PHE

>  <FRAG_NAME>  (1643) 
ETAM   MBZ

>  <FRAG_ATOM_NUM>  (1643) 
fragi: 11  fragj: 15

>  <atom.prop.CHAIN_ID>  (1643) 
A A A A A A A A A A A Z Z Z Z Z Z Z Z Z Z Z Z Z Z Z

>  <atom.prop.IS_HEAVY_ATOM>  (1643) 
1 0 0 0 1 0 0 1 0 0 0 1 0 0 0 1 1 0 1 0 1 0 1 0 1 0

>  <DIFUSE_FUNC_ATOM>  (1643) 
n/a

>  <FINAL_SINGLE_POINT_ENERGY>  (1643) 
0

>  <NONCOV_INTER_ENERGY_QM>  (1643) 
0

>  <FF_Energy>  (1643) 
-4.4

>  <QM_Energy>  (1643) 
-10.28

>  <source>  (1643) 
ETAM_MBZ

>  <Index>  (1643) 
16495

$$$$
ETAM-pdb3ebb-A-LYS-652:MBZ-pdb3ebb-A-PHE-611
     RDKit          3D

 26 25  0  0  0  0  0  0  0  0999 V2000
    5.3602    2.3998   -2.4429 C   0  0  0  0  0  0  0  0  0  0  0  0
    6.3192    2.2924   -2.1803 H   0  0  0  0  0  0  0  0  0  0  0  0
    4.9192    3.0570   -1.8331 H   0  0  0  0  0  0  0  0  0  0  0  0
    5.3160    2.7813   -3.4629 H   0  0  0  0  0  0  0  0  0  0  0  0
    4.6631    1.0520   -2.2835 C   0  0  0  0  0  0  0  0  0  0  0  0
    5.1699    0.3698   -2.8294 H   0  0  0  0  0  0  0  0  0  0  0  0
    4.7252    0.7794   -1.3128 H   0  0  0  0  0  0  0  0  0  0  0  0
    3.2707    1.0910   -2.7024 N   0  0  0  0  0  4  0  0  0  0  0  0
    3.0506    1.9886   -3.0975 H   0  0  0  0  0  0  0  0  0  0  0  0
    3.0951    0.3829   -3.3937 H   0  0  0  0  0  0  0  0  0  0  0  0
    2.6653    0.9294   -1.9162 H   0  0  0  0  0  0  0  0  0  0  0  0
   -0.0098    2.9137   -0.0047 C   0  0  0  0  0  0  0  0  0  0  0  0
   -0.7832    3.2157   -0.5433 H   0  0  0  0  0  0  0  0  0  0  0  0
    0.8427    3.2316   -0.3924 H   0  0  0  0  0  0  0  0  0  0  0  0
   -0.1056    3.3678    0.9816 H   0  0  0  0  0  0  0  0  0  0  0  0
    0.0038    1.4152    0.0047 C   0  0  0  0  0  0  0  0  0  0  0  0
   -1.2055    0.6961   -0.0149 C   0  0  0  0  0  0  0  0  0  0  0  0
   -2.0678    1.1877   -0.0407 H   0  0  0  0  0  0  0  0  0  0  0  0
   -1.2113   -0.7031    0.0000 C   0  0  0  0  0  0  0  0  0  0  0  0
   -2.0851   -1.1954    0.0095 H   0  0  0  0  0  0  0  0  0  0  0  0
   -0.0013   -1.4075    0.0027 C   0  0  0  0  0  0  0  0  0  0  0  0
   -0.0079   -2.4031    0.0059 H   0  0  0  0  0  0  0  0  0  0  0  0
    1.2113   -0.7099   -0.0000 C   0  0  0  0  0  0  0  0  0  0  0  0
    2.0889   -1.1957   -0.0055 H   0  0  0  0  0  0  0  0  0  0  0  0
    1.2030    0.7092    0.0075 C   0  0  0  0  0  0  0  0  0  0  0  0
    2.0725    1.1947    0.0142 H   0  0  0  0  0  0  0  0  0  0  0  0
  1  5  1  0
  5  8  1  0
  1  2  1  0
  1  3  1  0
  1  4  1  0
  5  6  1  0
  5  7  1  0
  8  9  1  0
  8 10  1  0
  8 11  1  0
 12 16  1  0
 16 17  2  0
 17 19  1  0
 19 21  2  0
 21 23  1  0
 23 25  2  0
 25 16  1  0
 12 13  1  0
 12 14  1  0
 12 15  1  0
 17 18  1  0
 19 20  1  0
 21 22  1  0
 23 24  1  0
 25 26  1  0
M  CHG  1   8   1
M  END
>  <PDB_ID>  (1644) 
pdb3ebb

>  <RESIDUE_NAME>  (1644) 
LYS   PHE

>  <FRAG_NAME>  (1644) 
ETAM   MBZ

>  <FRAG_ATOM_NUM>  (1644) 
fragi: 11  fragj: 15

>  <atom.prop.CHAIN_ID>  (1644) 
A A A A A A A A A A A Z Z Z Z Z Z Z Z Z Z Z Z Z Z Z

>  <atom.prop.IS_HEAVY_ATOM>  (1644) 
1 0 0 0 1 0 0 1 0 0 0 1 0 0 0 1 1 0 1 0 1 0 1 0 1 0

>  <DIFUSE_FUNC_ATOM>  (1644) 
n/a

>  <FINAL_SINGLE_POINT_ENERGY>  (1644) 
0

>  <NONCOV_INTER_ENERGY_QM>  (1644) 
0

>  <FF_Energy>  (1644) 
-2.48

>  <QM_Energy>  (1644) 
-8.53

>  <source>  (1644) 
ETAM_MBZ

>  <Index>  (1644) 
16507

$$$$
ETAM-pdb3e7g-C-LYS-158:MBZ-pdb3e7g-C-PHE-154
     RDKit          3D

 26 25  0  0  0  0  0  0  0  0999 V2000
    0.1431    0.7547    4.9346 C   0  0  0  0  0  0  0  0  0  0  0  0
    0.3066    0.2934    5.8022 H   0  0  0  0  0  0  0  0  0  0  0  0
   -0.8242    0.9720    4.8389 H   0  0  0  0  0  0  0  0  0  0  0  0
    0.7165    1.6815    4.9156 H   0  0  0  0  0  0  0  0  0  0  0  0
    0.5417   -0.1839    3.8042 C   0  0  0  0  0  0  0  0  0  0  0  0
    0.4828    0.3096    2.9339 H   0  0  0  0  0  0  0  0  0  0  0  0
    1.4865   -0.4854    3.9473 H   0  0  0  0  0  0  0  0  0  0  0  0
   -0.3480   -1.3869    3.7433 N   0  0  0  0  0  4  0  0  0  0  0  0
   -0.1390   -1.9875    4.5120 H   0  0  0  0  0  0  0  0  0  0  0  0
   -1.2999   -1.0920    3.7938 H   0  0  0  0  0  0  0  0  0  0  0  0
   -0.1885   -1.8686    2.8840 H   0  0  0  0  0  0  0  0  0  0  0  0
   -0.0104    2.8823   -0.0394 C   0  0  0  0  0  0  0  0  0  0  0  0
    0.9134    3.2036    0.1040 H   0  0  0  0  0  0  0  0  0  0  0  0
   -0.6202    3.2096    0.6658 H   0  0  0  0  0  0  0  0  0  0  0  0
   -0.3577    3.2837   -0.9915 H   0  0  0  0  0  0  0  0  0  0  0  0
   -0.0018    1.3965    0.0007 C   0  0  0  0  0  0  0  0  0  0  0  0
   -1.1976    0.6896    0.0000 C   0  0  0  0  0  0  0  0  0  0  0  0
   -2.0647    1.1801   -0.0020 H   0  0  0  0  0  0  0  0  0  0  0  0
   -1.2018   -0.6991    0.0000 C   0  0  0  0  0  0  0  0  0  0  0  0
   -2.0736   -1.1965    0.0020 H   0  0  0  0  0  0  0  0  0  0  0  0
    0.0069   -1.3899   -0.0013 C   0  0  0  0  0  0  0  0  0  0  0  0
    0.0042   -2.3897   -0.0037 H   0  0  0  0  0  0  0  0  0  0  0  0
    1.2018   -0.6915    0.0000 C   0  0  0  0  0  0  0  0  0  0  0  0
    2.0864   -1.1871    0.0017 H   0  0  0  0  0  0  0  0  0  0  0  0
    1.1925    0.6945    0.0006 C   0  0  0  0  0  0  0  0  0  0  0  0
    2.0607    1.1944   -0.0002 H   0  0  0  0  0  0  0  0  0  0  0  0
  1  5  1  0
  5  8  1  0
  1  2  1  0
  1  3  1  0
  1  4  1  0
  5  6  1  0
  5  7  1  0
  8  9  1  0
  8 10  1  0
  8 11  1  0
 12 16  1  0
 16 17  2  0
 17 19  1  0
 19 21  2  0
 21 23  1  0
 23 25  2  0
 25 16  1  0
 12 13  1  0
 12 14  1  0
 12 15  1  0
 17 18  1  0
 19 20  1  0
 21 22  1  0
 23 24  1  0
 25 26  1  0
M  CHG  1   8   1
M  END
>  <PDB_ID>  (1645) 
pdb3e7g

>  <RESIDUE_NAME>  (1645) 
LYS   PHE

>  <FRAG_NAME>  (1645) 
ETAM   MBZ

>  <FRAG_ATOM_NUM>  (1645) 
fragi: 11  fragj: 15

>  <atom.prop.CHAIN_ID>  (1645) 
A A A A A A A A A A A Z Z Z Z Z Z Z Z Z Z Z Z Z Z Z

>  <atom.prop.IS_HEAVY_ATOM>  (1645) 
1 0 0 0 1 0 0 1 0 0 0 1 0 0 0 1 1 0 1 0 1 0 1 0 1 0

>  <DIFUSE_FUNC_ATOM>  (1645) 
n/a

>  <FINAL_SINGLE_POINT_ENERGY>  (1645) 
0

>  <NONCOV_INTER_ENERGY_QM>  (1645) 
0

>  <FF_Energy>  (1645) 
-6.2

>  <QM_Energy>  (1645) 
-11.8

>  <source>  (1645) 
ETAM_MBZ

>  <Index>  (1645) 
16519

$$$$
ETAM-pdb3ec3-A-LYS-435:MBZ-pdb3ec3-A-PHE-431
     RDKit          3D

 26 25  0  0  0  0  0  0  0  0999 V2000
   -2.4362   -1.8432   -4.1564 C   0  0  0  0  0  0  0  0  0  0  0  0
   -2.9993   -1.1718   -3.6586 H   0  0  0  0  0  0  0  0  0  0  0  0
   -3.0424   -2.3797   -4.7574 H   0  0  0  0  0  0  0  0  0  0  0  0
   -1.7331   -1.2959   -4.7843 H   0  0  0  0  0  0  0  0  0  0  0  0
   -1.7992   -2.7857   -3.1456 C   0  0  0  0  0  0  0  0  0  0  0  0
   -2.2648   -2.6564   -2.2509 H   0  0  0  0  0  0  0  0  0  0  0  0
   -1.9851   -3.7415   -3.4389 H   0  0  0  0  0  0  0  0  0  0  0  0
   -0.3530   -2.6011   -2.9740 N   0  0  0  0  0  4  0  0  0  0  0  0
   -0.1266   -2.5680   -1.9975 H   0  0  0  0  0  0  0  0  0  0  0  0
    0.1420   -3.3635   -3.3985 H   0  0  0  0  0  0  0  0  0  0  0  0
   -0.0643   -1.7428   -3.4066 H   0  0  0  0  0  0  0  0  0  0  0  0
    0.0113    2.9420    0.0151 C   0  0  0  0  0  0  0  0  0  0  0  0
    0.7556    3.2284    0.5929 H   0  0  0  0  0  0  0  0  0  0  0  0
   -0.8612    3.2410    0.3598 H   0  0  0  0  0  0  0  0  0  0  0  0
    0.1577    3.3677   -0.9776 H   0  0  0  0  0  0  0  0  0  0  0  0
   -0.0004    1.4162    0.0146 C   0  0  0  0  0  0  0  0  0  0  0  0
   -1.1983    0.7201   -0.0069 C   0  0  0  0  0  0  0  0  0  0  0  0
   -2.0666    1.1907   -0.0287 H   0  0  0  0  0  0  0  0  0  0  0  0
   -1.2111   -0.7183   -0.0000 C   0  0  0  0  0  0  0  0  0  0  0  0
   -2.0853   -1.1878    0.0184 H   0  0  0  0  0  0  0  0  0  0  0  0
   -0.0011   -1.4114   -0.0175 C   0  0  0  0  0  0  0  0  0  0  0  0
    0.0020   -2.4078   -0.0426 H   0  0  0  0  0  0  0  0  0  0  0  0
    1.2111   -0.7066    0.0000 C   0  0  0  0  0  0  0  0  0  0  0  0
    2.0884   -1.1976    0.0076 H   0  0  0  0  0  0  0  0  0  0  0  0
    1.1998    0.7000    0.0098 C   0  0  0  0  0  0  0  0  0  0  0  0
    2.0696    1.1933    0.0128 H   0  0  0  0  0  0  0  0  0  0  0  0
  1  5  1  0
  5  8  1  0
  1  2  1  0
  1  3  1  0
  1  4  1  0
  5  6  1  0
  5  7  1  0
  8  9  1  0
  8 10  1  0
  8 11  1  0
 12 16  1  0
 16 17  2  0
 17 19  1  0
 19 21  2  0
 21 23  1  0
 23 25  2  0
 25 16  1  0
 12 13  1  0
 12 14  1  0
 12 15  1  0
 17 18  1  0
 19 20  1  0
 21 22  1  0
 23 24  1  0
 25 26  1  0
M  CHG  1   8   1
M  END
>  <PDB_ID>  (1646) 
pdb3ec3

>  <RESIDUE_NAME>  (1646) 
LYS   PHE

>  <FRAG_NAME>  (1646) 
ETAM   MBZ

>  <FRAG_ATOM_NUM>  (1646) 
fragi: 11  fragj: 15

>  <atom.prop.CHAIN_ID>  (1646) 
A A A A A A A A A A A Z Z Z Z Z Z Z Z Z Z Z Z Z Z Z

>  <atom.prop.IS_HEAVY_ATOM>  (1646) 
1 0 0 0 1 0 0 1 0 0 0 1 0 0 0 1 1 0 1 0 1 0 1 0 1 0

>  <DIFUSE_FUNC_ATOM>  (1646) 
n/a

>  <FINAL_SINGLE_POINT_ENERGY>  (1646) 
0

>  <NONCOV_INTER_ENERGY_QM>  (1646) 
0

>  <FF_Energy>  (1646) 
-3.44

>  <QM_Energy>  (1646) 
-11.04

>  <source>  (1646) 
ETAM_MBZ

>  <Index>  (1646) 
16523

$$$$
ETAM-pdb3ec3-B-LYS-435:MBZ-pdb3ec3-B-PHE-431
     RDKit          3D

 26 25  0  0  0  0  0  0  0  0999 V2000
   -2.1871   -2.0546   -4.2012 C   0  0  0  0  0  0  0  0  0  0  0  0
   -3.0897   -1.6929   -3.9976 H   0  0  0  0  0  0  0  0  0  0  0  0
   -2.2572   -2.8662   -4.7705 H   0  0  0  0  0  0  0  0  0  0  0  0
   -1.6188   -1.2959   -4.7394 H   0  0  0  0  0  0  0  0  0  0  0  0
   -1.5133   -2.4513   -2.8736 C   0  0  0  0  0  0  0  0  0  0  0  0
   -1.4749   -1.6366   -2.2843 H   0  0  0  0  0  0  0  0  0  0  0  0
   -2.0896   -3.1427   -2.4227 H   0  0  0  0  0  0  0  0  0  0  0  0
   -0.1458   -2.9916   -3.0629 N   0  0  0  0  0  4  0  0  0  0  0  0
    0.3227   -2.4715   -3.7776 H   0  0  0  0  0  0  0  0  0  0  0  0
    0.3659   -2.9150   -2.2060 H   0  0  0  0  0  0  0  0  0  0  0  0
   -0.2011   -3.9540   -3.3325 H   0  0  0  0  0  0  0  0  0  0  0  0
    0.0123    2.9282   -0.0109 C   0  0  0  0  0  0  0  0  0  0  0  0
    0.7406    3.2224    0.5879 H   0  0  0  0  0  0  0  0  0  0  0  0
   -0.8701    3.2303    0.3144 H   0  0  0  0  0  0  0  0  0  0  0  0
    0.1824    3.3565   -0.9987 H   0  0  0  0  0  0  0  0  0  0  0  0
    0.0037    1.4131   -0.0058 C   0  0  0  0  0  0  0  0  0  0  0  0
   -1.1981    0.7053   -0.0009 C   0  0  0  0  0  0  0  0  0  0  0  0
   -2.0656    1.1837    0.0007 H   0  0  0  0  0  0  0  0  0  0  0  0
   -1.2097   -0.7200    0.0000 C   0  0  0  0  0  0  0  0  0  0  0  0
   -2.0861   -1.1936    0.0052 H   0  0  0  0  0  0  0  0  0  0  0  0
   -0.0071   -1.4065   -0.0039 C   0  0  0  0  0  0  0  0  0  0  0  0
    0.0020   -2.4051   -0.0097 H   0  0  0  0  0  0  0  0  0  0  0  0
    1.2097   -0.7013   -0.0000 C   0  0  0  0  0  0  0  0  0  0  0  0
    2.0857   -1.1933   -0.0031 H   0  0  0  0  0  0  0  0  0  0  0  0
    1.2015    0.7093    0.0106 C   0  0  0  0  0  0  0  0  0  0  0  0
    2.0698    1.1979    0.0287 H   0  0  0  0  0  0  0  0  0  0  0  0
  1  5  1  0
  5  8  1  0
  1  2  1  0
  1  3  1  0
  1  4  1  0
  5  6  1  0
  5  7  1  0
  8  9  1  0
  8 10  1  0
  8 11  1  0
 12 16  1  0
 16 17  2  0
 17 19  1  0
 19 21  2  0
 21 23  1  0
 23 25  2  0
 25 16  1  0
 12 13  1  0
 12 14  1  0
 12 15  1  0
 17 18  1  0
 19 20  1  0
 21 22  1  0
 23 24  1  0
 25 26  1  0
M  CHG  1   8   1
M  END
>  <PDB_ID>  (1647) 
pdb3ec3

>  <RESIDUE_NAME>  (1647) 
LYS   PHE

>  <FRAG_NAME>  (1647) 
ETAM   MBZ

>  <FRAG_ATOM_NUM>  (1647) 
fragi: 11  fragj: 15

>  <atom.prop.CHAIN_ID>  (1647) 
A A A A A A A A A A A Z Z Z Z Z Z Z Z Z Z Z Z Z Z Z

>  <atom.prop.IS_HEAVY_ATOM>  (1647) 
1 0 0 0 1 0 0 1 0 0 0 1 0 0 0 1 1 0 1 0 1 0 1 0 1 0

>  <DIFUSE_FUNC_ATOM>  (1647) 
n/a

>  <FINAL_SINGLE_POINT_ENERGY>  (1647) 
0

>  <NONCOV_INTER_ENERGY_QM>  (1647) 
0

>  <FF_Energy>  (1647) 
-1.49

>  <QM_Energy>  (1647) 
-8.57

>  <source>  (1647) 
ETAM_MBZ

>  <Index>  (1647) 
16524

$$$$
ETAM-pdb3efb-D-LYS-99:MBZ-pdb3efb-D-PHE-176
     RDKit          3D

 26 25  0  0  0  0  0  0  0  0999 V2000
    5.2286    1.9476    1.8189 C   0  0  0  0  0  0  0  0  0  0  0  0
    5.6684    2.7990    2.0828 H   0  0  0  0  0  0  0  0  0  0  0  0
    5.8203    1.4242    1.2160 H   0  0  0  0  0  0  0  0  0  0  0  0
    5.0276    1.3609    2.7153 H   0  0  0  0  0  0  0  0  0  0  0  0
    3.9428    2.2785    1.0682 C   0  0  0  0  0  0  0  0  0  0  0  0
    3.5172    1.4183    0.7617 H   0  0  0  0  0  0  0  0  0  0  0  0
    3.3075    2.7375    1.7012 H   0  0  0  0  0  0  0  0  0  0  0  0
    4.1727    3.1563   -0.1132 N   0  0  0  0  0  4  0  0  0  0  0  0
    3.9001    2.6717   -0.9442 H   0  0  0  0  0  0  0  0  0  0  0  0
    3.6293    3.9898   -0.0172 H   0  0  0  0  0  0  0  0  0  0  0  0
    5.1423    3.3929   -0.1661 H   0  0  0  0  0  0  0  0  0  0  0  0
    0.0046    2.8793   -0.0032 C   0  0  0  0  0  0  0  0  0  0  0  0
   -0.9347    3.1910   -0.0239 H   0  0  0  0  0  0  0  0  0  0  0  0
    0.4996    3.1860   -0.8044 H   0  0  0  0  0  0  0  0  0  0  0  0
    0.4825    3.3202    0.8717 H   0  0  0  0  0  0  0  0  0  0  0  0
    0.0020    1.3883    0.0012 C   0  0  0  0  0  0  0  0  0  0  0  0
   -1.1905    0.6877    0.0024 C   0  0  0  0  0  0  0  0  0  0  0  0
   -2.0564    1.1828    0.0036 H   0  0  0  0  0  0  0  0  0  0  0  0
   -1.1954   -0.6896   -0.0000 C   0  0  0  0  0  0  0  0  0  0  0  0
   -2.0750   -1.1857   -0.0010 H   0  0  0  0  0  0  0  0  0  0  0  0
   -0.0038   -1.3800    0.0009 C   0  0  0  0  0  0  0  0  0  0  0  0
   -0.0064   -2.3827    0.0019 H   0  0  0  0  0  0  0  0  0  0  0  0
    1.1954   -0.6910    0.0000 C   0  0  0  0  0  0  0  0  0  0  0  0
    2.0747   -1.1957    0.0043 H   0  0  0  0  0  0  0  0  0  0  0  0
    1.1924    0.6846   -0.0045 C   0  0  0  0  0  0  0  0  0  0  0  0
    2.0619    1.1853   -0.0131 H   0  0  0  0  0  0  0  0  0  0  0  0
  1  5  1  0
  5  8  1  0
  1  2  1  0
  1  3  1  0
  1  4  1  0
  5  6  1  0
  5  7  1  0
  8  9  1  0
  8 10  1  0
  8 11  1  0
 12 16  1  0
 16 17  2  0
 17 19  1  0
 19 21  2  0
 21 23  1  0
 23 25  2  0
 25 16  1  0
 12 13  1  0
 12 14  1  0
 12 15  1  0
 17 18  1  0
 19 20  1  0
 21 22  1  0
 23 24  1  0
 25 26  1  0
M  CHG  1   8   1
M  END
>  <PDB_ID>  (1648) 
pdb3efb

>  <RESIDUE_NAME>  (1648) 
LYS   PHE

>  <FRAG_NAME>  (1648) 
ETAM   MBZ

>  <FRAG_ATOM_NUM>  (1648) 
fragi: 11  fragj: 15

>  <atom.prop.CHAIN_ID>  (1648) 
A A A A A A A A A A A Z Z Z Z Z Z Z Z Z Z Z Z Z Z Z

>  <atom.prop.IS_HEAVY_ATOM>  (1648) 
1 0 0 0 1 0 0 1 0 0 0 1 0 0 0 1 1 0 1 0 1 0 1 0 1 0

>  <DIFUSE_FUNC_ATOM>  (1648) 
n/a

>  <FINAL_SINGLE_POINT_ENERGY>  (1648) 
0

>  <NONCOV_INTER_ENERGY_QM>  (1648) 
0

>  <FF_Energy>  (1648) 
11.53

>  <QM_Energy>  (1648) 
0.07

>  <source>  (1648) 
ETAM_MBZ

>  <Index>  (1648) 
16566

$$$$
ETAM-pdb3ehe-B-LYS-142:MBZ-pdb3ehe-B-PHE-111
     RDKit          3D

 26 25  0  0  0  0  0  0  0  0999 V2000
    0.7170   -4.2712    2.1979 C   0  0  0  0  0  0  0  0  0  0  0  0
    1.1049   -3.3612    2.1196 H   0  0  0  0  0  0  0  0  0  0  0  0
    0.3747   -4.5839    1.3204 H   0  0  0  0  0  0  0  0  0  0  0  0
    1.4948   -4.9558    2.5359 H   0  0  0  0  0  0  0  0  0  0  0  0
   -0.4374   -4.2270    3.1849 C   0  0  0  0  0  0  0  0  0  0  0  0
   -0.8768   -5.1303    3.2134 H   0  0  0  0  0  0  0  0  0  0  0  0
   -0.0773   -4.0155    4.0990 H   0  0  0  0  0  0  0  0  0  0  0  0
   -1.4540   -3.2021    2.8127 N   0  0  0  0  0  4  0  0  0  0  0  0
   -2.3661   -3.6046    2.8729 H   0  0  0  0  0  0  0  0  0  0  0  0
   -1.3864   -2.4277    3.4401 H   0  0  0  0  0  0  0  0  0  0  0  0
   -1.2844   -2.8929    1.8775 H   0  0  0  0  0  0  0  0  0  0  0  0
    0.0196    2.9084   -0.0837 C   0  0  0  0  0  0  0  0  0  0  0  0
   -0.4857    3.1759   -0.8925 H   0  0  0  0  0  0  0  0  0  0  0  0
    0.9648    3.1970   -0.1423 H   0  0  0  0  0  0  0  0  0  0  0  0
   -0.4293    3.4151    0.7706 H   0  0  0  0  0  0  0  0  0  0  0  0
   -0.0016    1.4017   -0.0006 C   0  0  0  0  0  0  0  0  0  0  0  0
   -1.1987    0.7019    0.0015 C   0  0  0  0  0  0  0  0  0  0  0  0
   -2.0638    1.1891    0.0029 H   0  0  0  0  0  0  0  0  0  0  0  0
   -1.2039   -0.6957    0.0000 C   0  0  0  0  0  0  0  0  0  0  0  0
   -2.0785   -1.1876    0.0035 H   0  0  0  0  0  0  0  0  0  0  0  0
    0.0028   -1.3933   -0.0045 C   0  0  0  0  0  0  0  0  0  0  0  0
   -0.0040   -2.3919   -0.0113 H   0  0  0  0  0  0  0  0  0  0  0  0
    1.2039   -0.6983   -0.0000 C   0  0  0  0  0  0  0  0  0  0  0  0
    2.0836   -1.1995    0.0025 H   0  0  0  0  0  0  0  0  0  0  0  0
    1.1974    0.6837    0.0036 C   0  0  0  0  0  0  0  0  0  0  0  0
    2.0655    1.1867    0.0085 H   0  0  0  0  0  0  0  0  0  0  0  0
  1  5  1  0
  5  8  1  0
  1  2  1  0
  1  3  1  0
  1  4  1  0
  5  6  1  0
  5  7  1  0
  8  9  1  0
  8 10  1  0
  8 11  1  0
 12 16  1  0
 16 17  2  0
 17 19  1  0
 19 21  2  0
 21 23  1  0
 23 25  2  0
 25 16  1  0
 12 13  1  0
 12 14  1  0
 12 15  1  0
 17 18  1  0
 19 20  1  0
 21 22  1  0
 23 24  1  0
 25 26  1  0
M  CHG  1   8   1
M  END
>  <PDB_ID>  (1649) 
pdb3ehe

>  <RESIDUE_NAME>  (1649) 
LYS   PHE

>  <FRAG_NAME>  (1649) 
ETAM   MBZ

>  <FRAG_ATOM_NUM>  (1649) 
fragi: 11  fragj: 15

>  <atom.prop.CHAIN_ID>  (1649) 
A A A A A A A A A A A Z Z Z Z Z Z Z Z Z Z Z Z Z Z Z

>  <atom.prop.IS_HEAVY_ATOM>  (1649) 
1 0 0 0 1 0 0 1 0 0 0 1 0 0 0 1 1 0 1 0 1 0 1 0 1 0

>  <DIFUSE_FUNC_ATOM>  (1649) 
n/a

>  <FINAL_SINGLE_POINT_ENERGY>  (1649) 
0

>  <NONCOV_INTER_ENERGY_QM>  (1649) 
0

>  <FF_Energy>  (1649) 
-2.13

>  <QM_Energy>  (1649) 
-7.92

>  <source>  (1649) 
ETAM_MBZ

>  <Index>  (1649) 
16592

$$$$
ETAM-pdb3egi-B-LYS-676:MBZ-pdb3egi-B-PHE-658
     RDKit          3D

 26 25  0  0  0  0  0  0  0  0999 V2000
    1.7540   -5.2675    2.1520 C   0  0  0  0  0  0  0  0  0  0  0  0
    1.9551   -6.2353    2.2238 H   0  0  0  0  0  0  0  0  0  0  0  0
    2.4538   -4.7259    2.5981 H   0  0  0  0  0  0  0  0  0  0  0  0
    1.7060   -4.9910    1.0988 H   0  0  0  0  0  0  0  0  0  0  0  0
    0.4229   -4.9968    2.8335 C   0  0  0  0  0  0  0  0  0  0  0  0
   -0.3114   -5.4217    2.2895 H   0  0  0  0  0  0  0  0  0  0  0  0
    0.4304   -5.4303    3.7434 H   0  0  0  0  0  0  0  0  0  0  0  0
    0.1438   -3.5497    2.9845 N   0  0  0  0  0  4  0  0  0  0  0  0
   -0.1443   -3.1705    2.1047 H   0  0  0  0  0  0  0  0  0  0  0  0
   -0.5845   -3.4175    3.6584 H   0  0  0  0  0  0  0  0  0  0  0  0
    0.9712   -3.0790    3.2942 H   0  0  0  0  0  0  0  0  0  0  0  0
   -0.0026    2.9120    0.0205 C   0  0  0  0  0  0  0  0  0  0  0  0
   -0.7170    3.2286   -0.5804 H   0  0  0  0  0  0  0  0  0  0  0  0
    0.8870    3.2248   -0.2683 H   0  0  0  0  0  0  0  0  0  0  0  0
   -0.1939    3.3309    1.0084 H   0  0  0  0  0  0  0  0  0  0  0  0
   -0.0015    1.4050   -0.0032 C   0  0  0  0  0  0  0  0  0  0  0  0
   -1.1993    0.6946    0.0045 C   0  0  0  0  0  0  0  0  0  0  0  0
   -2.0657    1.1840    0.0121 H   0  0  0  0  0  0  0  0  0  0  0  0
   -1.2026   -0.6979    0.0000 C   0  0  0  0  0  0  0  0  0  0  0  0
   -2.0778   -1.1924    0.0013 H   0  0  0  0  0  0  0  0  0  0  0  0
    0.0016   -1.3928   -0.0048 C   0  0  0  0  0  0  0  0  0  0  0  0
   -0.0055   -2.3944   -0.0120 H   0  0  0  0  0  0  0  0  0  0  0  0
    1.2026   -0.7022   -0.0000 C   0  0  0  0  0  0  0  0  0  0  0  0
    2.0832   -1.1974    0.0029 H   0  0  0  0  0  0  0  0  0  0  0  0
    1.1993    0.6934    0.0034 C   0  0  0  0  0  0  0  0  0  0  0  0
    2.0659    1.1885    0.0096 H   0  0  0  0  0  0  0  0  0  0  0  0
  1  5  1  0
  5  8  1  0
  1  2  1  0
  1  3  1  0
  1  4  1  0
  5  6  1  0
  5  7  1  0
  8  9  1  0
  8 10  1  0
  8 11  1  0
 12 16  1  0
 16 17  2  0
 17 19  1  0
 19 21  2  0
 21 23  1  0
 23 25  2  0
 25 16  1  0
 12 13  1  0
 12 14  1  0
 12 15  1  0
 17 18  1  0
 19 20  1  0
 21 22  1  0
 23 24  1  0
 25 26  1  0
M  CHG  1   8   1
M  END
>  <PDB_ID>  (1650) 
pdb3egi

>  <RESIDUE_NAME>  (1650) 
LYS   PHE

>  <FRAG_NAME>  (1650) 
ETAM   MBZ

>  <FRAG_ATOM_NUM>  (1650) 
fragi: 11  fragj: 15

>  <atom.prop.CHAIN_ID>  (1650) 
A A A A A A A A A A A Z Z Z Z Z Z Z Z Z Z Z Z Z Z Z

>  <atom.prop.IS_HEAVY_ATOM>  (1650) 
1 0 0 0 1 0 0 1 0 0 0 1 0 0 0 1 1 0 1 0 1 0 1 0 1 0

>  <DIFUSE_FUNC_ATOM>  (1650) 
n/a

>  <FINAL_SINGLE_POINT_ENERGY>  (1650) 
0

>  <NONCOV_INTER_ENERGY_QM>  (1650) 
0

>  <FF_Energy>  (1650) 
-1.63

>  <QM_Energy>  (1650) 
-7.11

>  <source>  (1650) 
ETAM_MBZ

>  <Index>  (1650) 
16595

$$$$
ETAM-pdb3ehe-B-LYS-238:MBZ-pdb3ehe-B-PHE-256
     RDKit          3D

 26 25  0  0  0  0  0  0  0  0999 V2000
    2.0833   -5.2918   -1.3208 C   0  0  0  0  0  0  0  0  0  0  0  0
    2.4467   -6.1821   -1.5850 H   0  0  0  0  0  0  0  0  0  0  0  0
    1.0917   -5.3416   -1.2288 H   0  0  0  0  0  0  0  0  0  0  0  0
    2.5112   -5.0122   -0.3580 H   0  0  0  0  0  0  0  0  0  0  0  0
    2.4175   -4.2869   -2.4188 C   0  0  0  0  0  0  0  0  0  0  0  0
    3.4134   -4.3004   -2.5774 H   0  0  0  0  0  0  0  0  0  0  0  0
    1.9614   -4.5746   -3.2712 H   0  0  0  0  0  0  0  0  0  0  0  0
    1.9964   -2.8935   -2.0897 N   0  0  0  0  0  4  0  0  0  0  0  0
    2.6128   -2.5173   -1.4000 H   0  0  0  0  0  0  0  0  0  0  0  0
    2.0337   -2.3339   -2.9162 H   0  0  0  0  0  0  0  0  0  0  0  0
    1.0628   -2.9063   -1.7352 H   0  0  0  0  0  0  0  0  0  0  0  0
   -0.0002    2.9073    0.0229 C   0  0  0  0  0  0  0  0  0  0  0  0
   -0.7615    3.2214   -0.5224 H   0  0  0  0  0  0  0  0  0  0  0  0
    0.8623    3.2188   -0.3437 H   0  0  0  0  0  0  0  0  0  0  0  0
   -0.1094    3.3296    1.0218 H   0  0  0  0  0  0  0  0  0  0  0  0
   -0.0001    1.4029    0.0004 C   0  0  0  0  0  0  0  0  0  0  0  0
   -1.1971    0.6931    0.0010 C   0  0  0  0  0  0  0  0  0  0  0  0
   -2.0635    1.1828    0.0006 H   0  0  0  0  0  0  0  0  0  0  0  0
   -1.2006   -0.6981    0.0000 C   0  0  0  0  0  0  0  0  0  0  0  0
   -2.0769   -1.1924    0.0011 H   0  0  0  0  0  0  0  0  0  0  0  0
    0.0005   -1.3941   -0.0001 C   0  0  0  0  0  0  0  0  0  0  0  0
   -0.0030   -2.3925   -0.0006 H   0  0  0  0  0  0  0  0  0  0  0  0
    1.2006   -0.6969    0.0000 C   0  0  0  0  0  0  0  0  0  0  0  0
    2.0827   -1.1953    0.0028 H   0  0  0  0  0  0  0  0  0  0  0  0
    1.1967    0.6931   -0.0012 C   0  0  0  0  0  0  0  0  0  0  0  0
    2.0652    1.1900   -0.0044 H   0  0  0  0  0  0  0  0  0  0  0  0
  1  5  1  0
  5  8  1  0
  1  2  1  0
  1  3  1  0
  1  4  1  0
  5  6  1  0
  5  7  1  0
  8  9  1  0
  8 10  1  0
  8 11  1  0
 12 16  1  0
 16 17  2  0
 17 19  1  0
 19 21  2  0
 21 23  1  0
 23 25  2  0
 25 16  1  0
 12 13  1  0
 12 14  1  0
 12 15  1  0
 17 18  1  0
 19 20  1  0
 21 22  1  0
 23 24  1  0
 25 26  1  0
M  CHG  1   8   1
M  END
>  <PDB_ID>  (1651) 
pdb3ehe

>  <RESIDUE_NAME>  (1651) 
LYS   PHE

>  <FRAG_NAME>  (1651) 
ETAM   MBZ

>  <FRAG_ATOM_NUM>  (1651) 
fragi: 11  fragj: 15

>  <atom.prop.CHAIN_ID>  (1651) 
A A A A A A A A A A A Z Z Z Z Z Z Z Z Z Z Z Z Z Z Z

>  <atom.prop.IS_HEAVY_ATOM>  (1651) 
1 0 0 0 1 0 0 1 0 0 0 1 0 0 0 1 1 0 1 0 1 0 1 0 1 0

>  <DIFUSE_FUNC_ATOM>  (1651) 
n/a

>  <FINAL_SINGLE_POINT_ENERGY>  (1651) 
0

>  <NONCOV_INTER_ENERGY_QM>  (1651) 
0

>  <FF_Energy>  (1651) 
0.17

>  <QM_Energy>  (1651) 
-7.1

>  <source>  (1651) 
ETAM_MBZ

>  <Index>  (1651) 
16626

$$$$
ETAM-pdb3ejx-D-LYS-22:MBZ-pdb3ejx-D-PHE-18
     RDKit          3D

 26 25  0  0  0  0  0  0  0  0999 V2000
   -0.0968   -1.1771    3.1083 C   0  0  0  0  0  0  0  0  0  0  0  0
    0.1582   -0.6726    2.2846 H   0  0  0  0  0  0  0  0  0  0  0  0
    0.1171   -2.1455    2.9881 H   0  0  0  0  0  0  0  0  0  0  0  0
    0.4782   -0.7903    3.9496 H   0  0  0  0  0  0  0  0  0  0  0  0
   -1.5992   -1.0378    3.3123 C   0  0  0  0  0  0  0  0  0  0  0  0
   -1.8007   -0.0946    3.5985 H   0  0  0  0  0  0  0  0  0  0  0  0
   -2.0625   -1.2122    2.4372 H   0  0  0  0  0  0  0  0  0  0  0  0
   -2.1177   -1.9813    4.3360 N   0  0  0  0  0  4  0  0  0  0  0  0
   -1.9341   -2.9208    4.0465 H   0  0  0  0  0  0  0  0  0  0  0  0
   -1.6638   -1.8065    5.2102 H   0  0  0  0  0  0  0  0  0  0  0  0
   -3.1033   -1.8513    4.4401 H   0  0  0  0  0  0  0  0  0  0  0  0
    0.0027    2.8982   -0.0207 C   0  0  0  0  0  0  0  0  0  0  0  0
   -0.7292    3.2027   -0.6128 H   0  0  0  0  0  0  0  0  0  0  0  0
    0.8830    3.2009   -0.3550 H   0  0  0  0  0  0  0  0  0  0  0  0
   -0.1529    3.3524    0.9579 H   0  0  0  0  0  0  0  0  0  0  0  0
   -0.0018    1.4018   -0.0015 C   0  0  0  0  0  0  0  0  0  0  0  0
   -1.2011    0.6972    0.0019 C   0  0  0  0  0  0  0  0  0  0  0  0
   -2.0663    1.1877    0.0046 H   0  0  0  0  0  0  0  0  0  0  0  0
   -1.2064   -0.6959   -0.0000 C   0  0  0  0  0  0  0  0  0  0  0  0
   -2.0786   -1.1918    0.0010 H   0  0  0  0  0  0  0  0  0  0  0  0
    0.0044   -1.3953   -0.0007 C   0  0  0  0  0  0  0  0  0  0  0  0
   -0.0033   -2.3934   -0.0023 H   0  0  0  0  0  0  0  0  0  0  0  0
    1.2064   -0.6999    0.0000 C   0  0  0  0  0  0  0  0  0  0  0  0
    2.0866   -1.1960    0.0012 H   0  0  0  0  0  0  0  0  0  0  0  0
    1.1985    0.6921    0.0004 C   0  0  0  0  0  0  0  0  0  0  0  0
    2.0652    1.1907    0.0011 H   0  0  0  0  0  0  0  0  0  0  0  0
  1  5  1  0
  5  8  1  0
  1  2  1  0
  1  3  1  0
  1  4  1  0
  5  6  1  0
  5  7  1  0
  8  9  1  0
  8 10  1  0
  8 11  1  0
 12 16  1  0
 16 17  2  0
 17 19  1  0
 19 21  2  0
 21 23  1  0
 23 25  2  0
 25 16  1  0
 12 13  1  0
 12 14  1  0
 12 15  1  0
 17 18  1  0
 19 20  1  0
 21 22  1  0
 23 24  1  0
 25 26  1  0
M  CHG  1   8   1
M  END
>  <PDB_ID>  (1652) 
pdb3ejx

>  <RESIDUE_NAME>  (1652) 
LYS   PHE

>  <FRAG_NAME>  (1652) 
ETAM   MBZ

>  <FRAG_ATOM_NUM>  (1652) 
fragi: 11  fragj: 15

>  <atom.prop.CHAIN_ID>  (1652) 
A A A A A A A A A A A Z Z Z Z Z Z Z Z Z Z Z Z Z Z Z

>  <atom.prop.IS_HEAVY_ATOM>  (1652) 
1 0 0 0 1 0 0 1 0 0 0 1 0 0 0 1 1 0 1 0 1 0 1 0 1 0

>  <DIFUSE_FUNC_ATOM>  (1652) 
n/a

>  <FINAL_SINGLE_POINT_ENERGY>  (1652) 
0

>  <NONCOV_INTER_ENERGY_QM>  (1652) 
0

>  <FF_Energy>  (1652) 
0.48

>  <QM_Energy>  (1652) 
-6.41

>  <source>  (1652) 
ETAM_MBZ

>  <Index>  (1652) 
16636

$$$$
ETAM-pdb3ek1-F-LYS-101:MBZ-pdb3ek1-F-PHE-159
     RDKit          3D

 26 25  0  0  0  0  0  0  0  0999 V2000
   -4.9903   -0.0728   -4.2022 C   0  0  0  0  0  0  0  0  0  0  0  0
   -5.4962    0.6463   -3.7382 H   0  0  0  0  0  0  0  0  0  0  0  0
   -5.0848   -0.9344   -3.7152 H   0  0  0  0  0  0  0  0  0  0  0  0
   -5.4068   -0.1949   -5.2020 H   0  0  0  0  0  0  0  0  0  0  0  0
   -3.5129    0.3107   -4.2388 C   0  0  0  0  0  0  0  0  0  0  0  0
   -3.0209   -0.3785   -4.7832 H   0  0  0  0  0  0  0  0  0  0  0  0
   -3.4278    1.2008   -4.7024 H   0  0  0  0  0  0  0  0  0  0  0  0
   -2.9308    0.3922   -2.8970 N   0  0  0  0  0  4  0  0  0  0  0  0
   -3.4407    1.0545   -2.3415 H   0  0  0  0  0  0  0  0  0  0  0  0
   -2.9693   -0.5056   -2.4511 H   0  0  0  0  0  0  0  0  0  0  0  0
   -1.9727    0.6855   -2.9555 H   0  0  0  0  0  0  0  0  0  0  0  0
   -0.0133    2.9139   -0.0267 C   0  0  0  0  0  0  0  0  0  0  0  0
    0.8830    3.2255    0.2194 H   0  0  0  0  0  0  0  0  0  0  0  0
   -0.7070    3.2250    0.5923 H   0  0  0  0  0  0  0  0  0  0  0  0
   -0.2462    3.2936   -1.0215 H   0  0  0  0  0  0  0  0  0  0  0  0
   -0.0012    1.3907    0.0234 C   0  0  0  0  0  0  0  0  0  0  0  0
   -1.1716    0.6960   -0.0009 C   0  0  0  0  0  0  0  0  0  0  0  0
   -2.0519    1.1804   -0.0217 H   0  0  0  0  0  0  0  0  0  0  0  0
   -1.1916   -0.7002    0.0000 C   0  0  0  0  0  0  0  0  0  0  0  0
   -2.0775   -1.1764    0.0138 H   0  0  0  0  0  0  0  0  0  0  0  0
   -0.0113   -1.3872   -0.0158 C   0  0  0  0  0  0  0  0  0  0  0  0
   -0.0058   -2.3890   -0.0399 H   0  0  0  0  0  0  0  0  0  0  0  0
    1.1916   -0.6924    0.0000 C   0  0  0  0  0  0  0  0  0  0  0  0
    2.0705   -1.1925    0.0179 H   0  0  0  0  0  0  0  0  0  0  0  0
    1.1842    0.6932   -0.0067 C   0  0  0  0  0  0  0  0  0  0  0  0
    2.0555    1.1893   -0.0350 H   0  0  0  0  0  0  0  0  0  0  0  0
  1  5  1  0
  5  8  1  0
  1  2  1  0
  1  3  1  0
  1  4  1  0
  5  6  1  0
  5  7  1  0
  8  9  1  0
  8 10  1  0
  8 11  1  0
 12 16  1  0
 16 17  2  0
 17 19  1  0
 19 21  2  0
 21 23  1  0
 23 25  2  0
 25 16  1  0
 12 13  1  0
 12 14  1  0
 12 15  1  0
 17 18  1  0
 19 20  1  0
 21 22  1  0
 23 24  1  0
 25 26  1  0
M  CHG  1   8   1
M  END
>  <PDB_ID>  (1653) 
pdb3ek1

>  <RESIDUE_NAME>  (1653) 
LYS   PHE

>  <FRAG_NAME>  (1653) 
ETAM   MBZ

>  <FRAG_ATOM_NUM>  (1653) 
fragi: 11  fragj: 15

>  <atom.prop.CHAIN_ID>  (1653) 
A A A A A A A A A A A Z Z Z Z Z Z Z Z Z Z Z Z Z Z Z

>  <atom.prop.IS_HEAVY_ATOM>  (1653) 
1 0 0 0 1 0 0 1 0 0 0 1 0 0 0 1 1 0 1 0 1 0 1 0 1 0

>  <DIFUSE_FUNC_ATOM>  (1653) 
n/a

>  <FINAL_SINGLE_POINT_ENERGY>  (1653) 
0

>  <NONCOV_INTER_ENERGY_QM>  (1653) 
0

>  <FF_Energy>  (1653) 
-2.82

>  <QM_Energy>  (1653) 
-8.07

>  <source>  (1653) 
ETAM_MBZ

>  <Index>  (1653) 
16657

$$$$
ETAM-pdb3enp-A-LYS-172:MBZ-pdb3enp-A-PHE-81
     RDKit          3D

 26 25  0  0  0  0  0  0  0  0999 V2000
    0.2818   -2.1128    5.1252 C   0  0  0  0  0  0  0  0  0  0  0  0
   -0.7161   -2.2338    5.1089 H   0  0  0  0  0  0  0  0  0  0  0  0
    0.5139   -1.4467    5.8419 H   0  0  0  0  0  0  0  0  0  0  0  0
    0.7449   -3.0679    5.3728 H   0  0  0  0  0  0  0  0  0  0  0  0
    0.7220   -1.5619    3.7943 C   0  0  0  0  0  0  0  0  0  0  0  0
    1.5153   -0.9919    3.9201 H   0  0  0  0  0  0  0  0  0  0  0  0
    0.8972   -2.3053    3.1717 H   0  0  0  0  0  0  0  0  0  0  0  0
   -0.4004   -0.7420    3.2835 N   0  0  0  0  0  4  0  0  0  0  0  0
   -0.5077    0.0730    3.8547 H   0  0  0  0  0  0  0  0  0  0  0  0
   -0.2110   -0.4641    2.3408 H   0  0  0  0  0  0  0  0  0  0  0  0
   -1.2453   -1.2773    3.3079 H   0  0  0  0  0  0  0  0  0  0  0  0
    0.0057    2.9320   -0.0335 C   0  0  0  0  0  0  0  0  0  0  0  0
   -0.4534    3.2074   -0.8660 H   0  0  0  0  0  0  0  0  0  0  0  0
    0.9503    3.2249   -0.0317 H   0  0  0  0  0  0  0  0  0  0  0  0
   -0.5008    3.4029    0.8090 H   0  0  0  0  0  0  0  0  0  0  0  0
    0.0003    1.4139    0.0089 C   0  0  0  0  0  0  0  0  0  0  0  0
   -1.1968    0.7018   -0.0053 C   0  0  0  0  0  0  0  0  0  0  0  0
   -2.0657    1.1869   -0.0206 H   0  0  0  0  0  0  0  0  0  0  0  0
   -1.2089   -0.7057   -0.0000 C   0  0  0  0  0  0  0  0  0  0  0  0
   -2.0875   -1.1875    0.0157 H   0  0  0  0  0  0  0  0  0  0  0  0
   -0.0069   -1.4092   -0.0145 C   0  0  0  0  0  0  0  0  0  0  0  0
   -0.0050   -2.4008   -0.0351 H   0  0  0  0  0  0  0  0  0  0  0  0
    1.2089   -0.7005    0.0000 C   0  0  0  0  0  0  0  0  0  0  0  0
    2.0854   -1.1989    0.0040 H   0  0  0  0  0  0  0  0  0  0  0  0
    1.2033    0.6998    0.0109 C   0  0  0  0  0  0  0  0  0  0  0  0
    2.0696    1.1947    0.0197 H   0  0  0  0  0  0  0  0  0  0  0  0
  1  5  1  0
  5  8  1  0
  1  2  1  0
  1  3  1  0
  1  4  1  0
  5  6  1  0
  5  7  1  0
  8  9  1  0
  8 10  1  0
  8 11  1  0
 12 16  1  0
 16 17  2  0
 17 19  1  0
 19 21  2  0
 21 23  1  0
 23 25  2  0
 25 16  1  0
 12 13  1  0
 12 14  1  0
 12 15  1  0
 17 18  1  0
 19 20  1  0
 21 22  1  0
 23 24  1  0
 25 26  1  0
M  CHG  1   8   1
M  END
>  <PDB_ID>  (1654) 
pdb3enp

>  <RESIDUE_NAME>  (1654) 
LYS   PHE

>  <FRAG_NAME>  (1654) 
ETAM   MBZ

>  <FRAG_ATOM_NUM>  (1654) 
fragi: 11  fragj: 15

>  <atom.prop.CHAIN_ID>  (1654) 
A A A A A A A A A A A Z Z Z Z Z Z Z Z Z Z Z Z Z Z Z

>  <atom.prop.IS_HEAVY_ATOM>  (1654) 
1 0 0 0 1 0 0 1 0 0 0 1 0 0 0 1 1 0 1 0 1 0 1 0 1 0

>  <DIFUSE_FUNC_ATOM>  (1654) 
n/a

>  <FINAL_SINGLE_POINT_ENERGY>  (1654) 
0

>  <NONCOV_INTER_ENERGY_QM>  (1654) 
0

>  <FF_Energy>  (1654) 
-8.62

>  <QM_Energy>  (1654) 
-16.38

>  <source>  (1654) 
ETAM_MBZ

>  <Index>  (1654) 
16686

$$$$
ETAM-pdb3ele-B-LYS-25:MBZ-pdb3ele-B-PHE-21
     RDKit          3D

 26 25  0  0  0  0  0  0  0  0999 V2000
    2.3930   -1.5897    3.3705 C   0  0  0  0  0  0  0  0  0  0  0  0
    3.0229   -2.1960    3.8444 H   0  0  0  0  0  0  0  0  0  0  0  0
    1.9775   -2.0561    2.5964 H   0  0  0  0  0  0  0  0  0  0  0  0
    1.6022   -1.3079    4.0656 H   0  0  0  0  0  0  0  0  0  0  0  0
    3.1750   -0.3772    2.8512 C   0  0  0  0  0  0  0  0  0  0  0  0
    2.5186    0.3258    2.5507 H   0  0  0  0  0  0  0  0  0  0  0  0
    3.7205    0.0033    3.6080 H   0  0  0  0  0  0  0  0  0  0  0  0
    4.0944   -0.7047    1.7075 N   0  0  0  0  0  4  0  0  0  0  0  0
    5.0383   -0.5842    2.0055 H   0  0  0  0  0  0  0  0  0  0  0  0
    3.9427   -1.6506    1.4308 H   0  0  0  0  0  0  0  0  0  0  0  0
    3.8963   -0.0913    0.9465 H   0  0  0  0  0  0  0  0  0  0  0  0
   -0.0180    2.9134   -0.0061 C   0  0  0  0  0  0  0  0  0  0  0  0
   -0.7048    3.2118   -0.6525 H   0  0  0  0  0  0  0  0  0  0  0  0
    0.8818    3.2323   -0.2652 H   0  0  0  0  0  0  0  0  0  0  0  0
   -0.2590    3.3562    0.9603 H   0  0  0  0  0  0  0  0  0  0  0  0
   -0.0010    1.4161    0.0015 C   0  0  0  0  0  0  0  0  0  0  0  0
   -1.2063    0.7030   -0.0035 C   0  0  0  0  0  0  0  0  0  0  0  0
   -2.0723    1.1898   -0.0108 H   0  0  0  0  0  0  0  0  0  0  0  0
   -1.2211   -0.7098    0.0000 C   0  0  0  0  0  0  0  0  0  0  0  0
   -2.0917   -1.1939    0.0026 H   0  0  0  0  0  0  0  0  0  0  0  0
   -0.0036   -1.4166    0.0017 C   0  0  0  0  0  0  0  0  0  0  0  0
   -0.0010   -2.4058    0.0037 H   0  0  0  0  0  0  0  0  0  0  0  0
    1.2211   -0.7014   -0.0000 C   0  0  0  0  0  0  0  0  0  0  0  0
    2.0941   -1.1956    0.0002 H   0  0  0  0  0  0  0  0  0  0  0  0
    1.2109    0.7088    0.0003 C   0  0  0  0  0  0  0  0  0  0  0  0
    2.0730    1.2035   -0.0013 H   0  0  0  0  0  0  0  0  0  0  0  0
  1  5  1  0
  5  8  1  0
  1  2  1  0
  1  3  1  0
  1  4  1  0
  5  6  1  0
  5  7  1  0
  8  9  1  0
  8 10  1  0
  8 11  1  0
 12 16  1  0
 16 17  2  0
 17 19  1  0
 19 21  2  0
 21 23  1  0
 23 25  2  0
 25 16  1  0
 12 13  1  0
 12 14  1  0
 12 15  1  0
 17 18  1  0
 19 20  1  0
 21 22  1  0
 23 24  1  0
 25 26  1  0
M  CHG  1   8   1
M  END
>  <PDB_ID>  (1655) 
pdb3ele

>  <RESIDUE_NAME>  (1655) 
LYS   PHE

>  <FRAG_NAME>  (1655) 
ETAM   MBZ

>  <FRAG_ATOM_NUM>  (1655) 
fragi: 11  fragj: 15

>  <atom.prop.CHAIN_ID>  (1655) 
A A A A A A A A A A A Z Z Z Z Z Z Z Z Z Z Z Z Z Z Z

>  <atom.prop.IS_HEAVY_ATOM>  (1655) 
1 0 0 0 1 0 0 1 0 0 0 1 0 0 0 1 1 0 1 0 1 0 1 0 1 0

>  <DIFUSE_FUNC_ATOM>  (1655) 
n/a

>  <FINAL_SINGLE_POINT_ENERGY>  (1655) 
0

>  <NONCOV_INTER_ENERGY_QM>  (1655) 
0

>  <FF_Energy>  (1655) 
-0.46

>  <QM_Energy>  (1655) 
-6.56

>  <source>  (1655) 
ETAM_MBZ

>  <Index>  (1655) 
16694

$$$$
ETAM-pdb3eo8-C-LYS-40:MBZ-pdb3eo8-D-PHE-88
     RDKit          3D

 26 25  0  0  0  0  0  0  0  0999 V2000
   -3.1950   -3.7602   -3.8399 C   0  0  0  0  0  0  0  0  0  0  0  0
   -2.7810   -4.4179   -4.4641 H   0  0  0  0  0  0  0  0  0  0  0  0
   -3.8374   -3.1789   -4.3338 H   0  0  0  0  0  0  0  0  0  0  0  0
   -3.7137   -4.2877   -3.0393 H   0  0  0  0  0  0  0  0  0  0  0  0
   -2.0672   -2.8558   -3.2992 C   0  0  0  0  0  0  0  0  0  0  0  0
   -1.8749   -2.1426   -3.9880 H   0  0  0  0  0  0  0  0  0  0  0  0
   -2.4019   -2.3966   -2.4642 H   0  0  0  0  0  0  0  0  0  0  0  0
   -0.7973   -3.5840   -2.9811 N   0  0  0  0  0  4  0  0  0  0  0  0
   -0.1297   -3.4063   -3.7017 H   0  0  0  0  0  0  0  0  0  0  0  0
   -0.4450   -3.2599   -2.1053 H   0  0  0  0  0  0  0  0  0  0  0  0
   -0.9859   -4.5628   -2.9286 H   0  0  0  0  0  0  0  0  0  0  0  0
    0.0100    2.8874    0.0176 C   0  0  0  0  0  0  0  0  0  0  0  0
   -0.6937    3.2190   -0.5907 H   0  0  0  0  0  0  0  0  0  0  0  0
    0.9049    3.2020   -0.2547 H   0  0  0  0  0  0  0  0  0  0  0  0
   -0.1930    3.2978    1.0068 H   0  0  0  0  0  0  0  0  0  0  0  0
    0.0005    1.3993   -0.0136 C   0  0  0  0  0  0  0  0  0  0  0  0
   -1.1982    0.7051   -0.0022 C   0  0  0  0  0  0  0  0  0  0  0  0
   -2.0624    1.1847    0.0032 H   0  0  0  0  0  0  0  0  0  0  0  0
   -1.1964   -0.7021   -0.0000 C   0  0  0  0  0  0  0  0  0  0  0  0
   -2.0760   -1.1876   -0.0122 H   0  0  0  0  0  0  0  0  0  0  0  0
   -0.0025   -1.3819    0.0203 C   0  0  0  0  0  0  0  0  0  0  0  0
   -0.0045   -2.3910    0.0498 H   0  0  0  0  0  0  0  0  0  0  0  0
    1.1964   -0.7014   -0.0000 C   0  0  0  0  0  0  0  0  0  0  0  0
    2.0750   -1.2062   -0.0102 H   0  0  0  0  0  0  0  0  0  0  0  0
    1.2002    0.6809   -0.0045 C   0  0  0  0  0  0  0  0  0  0  0  0
    2.0672    1.1788   -0.0021 H   0  0  0  0  0  0  0  0  0  0  0  0
  1  5  1  0
  5  8  1  0
  1  2  1  0
  1  3  1  0
  1  4  1  0
  5  6  1  0
  5  7  1  0
  8  9  1  0
  8 10  1  0
  8 11  1  0
 12 16  1  0
 16 17  2  0
 17 19  1  0
 19 21  2  0
 21 23  1  0
 23 25  2  0
 25 16  1  0
 12 13  1  0
 12 14  1  0
 12 15  1  0
 17 18  1  0
 19 20  1  0
 21 22  1  0
 23 24  1  0
 25 26  1  0
M  CHG  1   8   1
M  END
>  <PDB_ID>  (1656) 
pdb3eo8

>  <RESIDUE_NAME>  (1656) 
LYS   PHE

>  <FRAG_NAME>  (1656) 
ETAM   MBZ

>  <FRAG_ATOM_NUM>  (1656) 
fragi: 11  fragj: 15

>  <atom.prop.CHAIN_ID>  (1656) 
A A A A A A A A A A A Z Z Z Z Z Z Z Z Z Z Z Z Z Z Z

>  <atom.prop.IS_HEAVY_ATOM>  (1656) 
1 0 0 0 1 0 0 1 0 0 0 1 0 0 0 1 1 0 1 0 1 0 1 0 1 0

>  <DIFUSE_FUNC_ATOM>  (1656) 
n/a

>  <FINAL_SINGLE_POINT_ENERGY>  (1656) 
0

>  <NONCOV_INTER_ENERGY_QM>  (1656) 
0

>  <FF_Energy>  (1656) 
-1.81

>  <QM_Energy>  (1656) 
-7.12

>  <source>  (1656) 
ETAM_MBZ

>  <Index>  (1656) 
16711

$$$$
ETAM-pdb3eo7-A-LYS-350:MBZ-pdb3eo7-A-PHE-346
     RDKit          3D

 26 25  0  0  0  0  0  0  0  0999 V2000
    0.9132   -1.0311    3.5970 C   0  0  0  0  0  0  0  0  0  0  0  0
    1.2976   -1.5128    4.3825 H   0  0  0  0  0  0  0  0  0  0  0  0
    1.1225   -1.5316    2.7588 H   0  0  0  0  0  0  0  0  0  0  0  0
   -0.1697   -0.9905    3.7139 H   0  0  0  0  0  0  0  0  0  0  0  0
    1.5394    0.3450    3.5135 C   0  0  0  0  0  0  0  0  0  0  0  0
    1.0986    0.8718    2.7903 H   0  0  0  0  0  0  0  0  0  0  0  0
    1.4353    0.8161    4.3874 H   0  0  0  0  0  0  0  0  0  0  0  0
    3.0272    0.2537    3.1970 N   0  0  0  0  0  4  0  0  0  0  0  0
    3.3559   -0.6373    3.4902 H   0  0  0  0  0  0  0  0  0  0  0  0
    3.1464    0.3638    2.2163 H   0  0  0  0  0  0  0  0  0  0  0  0
    3.4970    0.9779    3.6885 H   0  0  0  0  0  0  0  0  0  0  0  0
    0.0275    2.8947   -0.0026 C   0  0  0  0  0  0  0  0  0  0  0  0
   -0.1355    3.1962   -0.9354 H   0  0  0  0  0  0  0  0  0  0  0  0
    0.9247    3.1901    0.3068 H   0  0  0  0  0  0  0  0  0  0  0  0
   -0.7182    3.3681    0.6361 H   0  0  0  0  0  0  0  0  0  0  0  0
    0.0019    1.3998    0.0115 C   0  0  0  0  0  0  0  0  0  0  0  0
   -1.1840    0.6846   -0.0030 C   0  0  0  0  0  0  0  0  0  0  0  0
   -2.0560    1.1750   -0.0172 H   0  0  0  0  0  0  0  0  0  0  0  0
   -1.1825   -0.6917   -0.0000 C   0  0  0  0  0  0  0  0  0  0  0  0
   -2.0715   -1.1842    0.0161 H   0  0  0  0  0  0  0  0  0  0  0  0
   -0.0099   -1.3786   -0.0164 C   0  0  0  0  0  0  0  0  0  0  0  0
   -0.0162   -2.3878   -0.0413 H   0  0  0  0  0  0  0  0  0  0  0  0
    1.1825   -0.7046   -0.0000 C   0  0  0  0  0  0  0  0  0  0  0  0
    2.0657   -1.2029    0.0079 H   0  0  0  0  0  0  0  0  0  0  0  0
    1.1920    0.6905    0.0080 C   0  0  0  0  0  0  0  0  0  0  0  0
    2.0632    1.1755    0.0102 H   0  0  0  0  0  0  0  0  0  0  0  0
  1  5  1  0
  5  8  1  0
  1  2  1  0
  1  3  1  0
  1  4  1  0
  5  6  1  0
  5  7  1  0
  8  9  1  0
  8 10  1  0
  8 11  1  0
 12 16  1  0
 16 17  2  0
 17 19  1  0
 19 21  2  0
 21 23  1  0
 23 25  2  0
 25 16  1  0
 12 13  1  0
 12 14  1  0
 12 15  1  0
 17 18  1  0
 19 20  1  0
 21 22  1  0
 23 24  1  0
 25 26  1  0
M  CHG  1   8   1
M  END
>  <PDB_ID>  (1657) 
pdb3eo7

>  <RESIDUE_NAME>  (1657) 
LYS   PHE

>  <FRAG_NAME>  (1657) 
ETAM   MBZ

>  <FRAG_ATOM_NUM>  (1657) 
fragi: 11  fragj: 15

>  <atom.prop.CHAIN_ID>  (1657) 
A A A A A A A A A A A Z Z Z Z Z Z Z Z Z Z Z Z Z Z Z

>  <atom.prop.IS_HEAVY_ATOM>  (1657) 
1 0 0 0 1 0 0 1 0 0 0 1 0 0 0 1 1 0 1 0 1 0 1 0 1 0

>  <DIFUSE_FUNC_ATOM>  (1657) 
n/a

>  <FINAL_SINGLE_POINT_ENERGY>  (1657) 
0

>  <NONCOV_INTER_ENERGY_QM>  (1657) 
0

>  <FF_Energy>  (1657) 
-4.24

>  <QM_Energy>  (1657) 
-9.54

>  <source>  (1657) 
ETAM_MBZ

>  <Index>  (1657) 
16736

$$$$
ETAM-pdb3ele-C-LYS-25:MBZ-pdb3ele-C-PHE-21
     RDKit          3D

 26 25  0  0  0  0  0  0  0  0999 V2000
    1.8304   -1.6853    3.7439 C   0  0  0  0  0  0  0  0  0  0  0  0
    2.4416   -2.2181    4.3223 H   0  0  0  0  0  0  0  0  0  0  0  0
    1.4896   -2.2455    2.9953 H   0  0  0  0  0  0  0  0  0  0  0  0
    0.9854   -1.3469    4.3435 H   0  0  0  0  0  0  0  0  0  0  0  0
    2.6228   -0.5168    3.1511 C   0  0  0  0  0  0  0  0  0  0  0  0
    1.9803    0.1007    2.6806 H   0  0  0  0  0  0  0  0  0  0  0  0
    3.0554   -0.0075    3.9046 H   0  0  0  0  0  0  0  0  0  0  0  0
    3.6752   -0.9537    2.1894 N   0  0  0  0  0  4  0  0  0  0  0  0
    3.6586   -1.9497    2.1116 H   0  0  0  0  0  0  0  0  0  0  0  0
    3.4969   -0.5440    1.2958 H   0  0  0  0  0  0  0  0  0  0  0  0
    4.5698   -0.6581    2.5218 H   0  0  0  0  0  0  0  0  0  0  0  0
   -0.0007    2.9262   -0.0071 C   0  0  0  0  0  0  0  0  0  0  0  0
   -0.6703    3.2284   -0.6700 H   0  0  0  0  0  0  0  0  0  0  0  0
    0.9076    3.2354   -0.2476 H   0  0  0  0  0  0  0  0  0  0  0  0
   -0.2581    3.3822    0.9488 H   0  0  0  0  0  0  0  0  0  0  0  0
    0.0030    1.4215    0.0045 C   0  0  0  0  0  0  0  0  0  0  0  0
   -1.2056    0.7075   -0.0040 C   0  0  0  0  0  0  0  0  0  0  0  0
   -2.0701    1.1940   -0.0144 H   0  0  0  0  0  0  0  0  0  0  0  0
   -1.2197   -0.7097   -0.0000 C   0  0  0  0  0  0  0  0  0  0  0  0
   -2.0953   -1.1896    0.0025 H   0  0  0  0  0  0  0  0  0  0  0  0
   -0.0097   -1.4212    0.0026 C   0  0  0  0  0  0  0  0  0  0  0  0
   -0.0077   -2.4090    0.0053 H   0  0  0  0  0  0  0  0  0  0  0  0
    1.2197   -0.7076    0.0000 C   0  0  0  0  0  0  0  0  0  0  0  0
    2.0906   -1.2021    0.0017 H   0  0  0  0  0  0  0  0  0  0  0  0
    1.2124    0.7095   -0.0030 C   0  0  0  0  0  0  0  0  0  0  0  0
    2.0765    1.1992   -0.0117 H   0  0  0  0  0  0  0  0  0  0  0  0
  1  5  1  0
  5  8  1  0
  1  2  1  0
  1  3  1  0
  1  4  1  0
  5  6  1  0
  5  7  1  0
  8  9  1  0
  8 10  1  0
  8 11  1  0
 12 16  1  0
 16 17  2  0
 17 19  1  0
 19 21  2  0
 21 23  1  0
 23 25  2  0
 25 16  1  0
 12 13  1  0
 12 14  1  0
 12 15  1  0
 17 18  1  0
 19 20  1  0
 21 22  1  0
 23 24  1  0
 25 26  1  0
M  CHG  1   8   1
M  END
>  <PDB_ID>  (1658) 
pdb3ele

>  <RESIDUE_NAME>  (1658) 
LYS   PHE

>  <FRAG_NAME>  (1658) 
ETAM   MBZ

>  <FRAG_ATOM_NUM>  (1658) 
fragi: 11  fragj: 15

>  <atom.prop.CHAIN_ID>  (1658) 
A A A A A A A A A A A Z Z Z Z Z Z Z Z Z Z Z Z Z Z Z

>  <atom.prop.IS_HEAVY_ATOM>  (1658) 
1 0 0 0 1 0 0 1 0 0 0 1 0 0 0 1 1 0 1 0 1 0 1 0 1 0

>  <DIFUSE_FUNC_ATOM>  (1658) 
n/a

>  <FINAL_SINGLE_POINT_ENERGY>  (1658) 
0

>  <NONCOV_INTER_ENERGY_QM>  (1658) 
0

>  <FF_Energy>  (1658) 
-1.29

>  <QM_Energy>  (1658) 
-7.72

>  <source>  (1658) 
ETAM_MBZ

>  <Index>  (1658) 
16738

$$$$
ETAM-pdb3eqx-A-LYS-332:MBZ-pdb3eqx-A-PHE-351
     RDKit          3D

 26 25  0  0  0  0  0  0  0  0999 V2000
   -2.9423   -4.2181    1.7162 C   0  0  0  0  0  0  0  0  0  0  0  0
   -3.8227   -4.6101    1.5468 H   0  0  0  0  0  0  0  0  0  0  0  0
   -2.9731   -3.2521    1.8629 H   0  0  0  0  0  0  0  0  0  0  0  0
   -2.5159   -4.6910    2.6009 H   0  0  0  0  0  0  0  0  0  0  0  0
   -2.0299   -4.5073    0.5047 C   0  0  0  0  0  0  0  0  0  0  0  0
   -1.0807   -4.2837    0.7671 H   0  0  0  0  0  0  0  0  0  0  0  0
   -2.0723   -5.4973    0.3097 H   0  0  0  0  0  0  0  0  0  0  0  0
   -2.3973   -3.7471   -0.7155 N   0  0  0  0  0  4  0  0  0  0  0  0
   -2.1468   -2.7858   -0.5978 H   0  0  0  0  0  0  0  0  0  0  0  0
   -1.9093   -4.1238   -1.5033 H   0  0  0  0  0  0  0  0  0  0  0  0
   -3.3837   -3.8184   -0.8691 H   0  0  0  0  0  0  0  0  0  0  0  0
   -0.0236    2.8657    0.0009 C   0  0  0  0  0  0  0  0  0  0  0  0
    0.7983    3.1932    0.4474 H   0  0  0  0  0  0  0  0  0  0  0  0
   -0.8342    3.1679    0.4850 H   0  0  0  0  0  0  0  0  0  0  0  0
   -0.0534    3.3035   -0.9968 H   0  0  0  0  0  0  0  0  0  0  0  0
   -0.0006    1.3905   -0.0046 C   0  0  0  0  0  0  0  0  0  0  0  0
   -1.2007    0.6753   -0.0023 C   0  0  0  0  0  0  0  0  0  0  0  0
   -2.0641    1.1767   -0.0033 H   0  0  0  0  0  0  0  0  0  0  0  0
   -1.2032   -0.6936   -0.0000 C   0  0  0  0  0  0  0  0  0  0  0  0
   -2.0765   -1.1981   -0.0053 H   0  0  0  0  0  0  0  0  0  0  0  0
   -0.0029   -1.3785    0.0109 C   0  0  0  0  0  0  0  0  0  0  0  0
   -0.0051   -2.3846    0.0261 H   0  0  0  0  0  0  0  0  0  0  0  0
    1.2032   -0.6922   -0.0000 C   0  0  0  0  0  0  0  0  0  0  0  0
    2.0803   -1.1939   -0.0032 H   0  0  0  0  0  0  0  0  0  0  0  0
    1.2042    0.6985   -0.0041 C   0  0  0  0  0  0  0  0  0  0  0  0
    2.0643    1.1949   -0.0070 H   0  0  0  0  0  0  0  0  0  0  0  0
  1  5  1  0
  5  8  1  0
  1  2  1  0
  1  3  1  0
  1  4  1  0
  5  6  1  0
  5  7  1  0
  8  9  1  0
  8 10  1  0
  8 11  1  0
 12 16  1  0
 16 17  2  0
 17 19  1  0
 19 21  2  0
 21 23  1  0
 23 25  2  0
 25 16  1  0
 12 13  1  0
 12 14  1  0
 12 15  1  0
 17 18  1  0
 19 20  1  0
 21 22  1  0
 23 24  1  0
 25 26  1  0
M  CHG  1   8   1
M  END
>  <PDB_ID>  (1659) 
pdb3eqx

>  <RESIDUE_NAME>  (1659) 
LYS   PHE

>  <FRAG_NAME>  (1659) 
ETAM   MBZ

>  <FRAG_ATOM_NUM>  (1659) 
fragi: 11  fragj: 15

>  <atom.prop.CHAIN_ID>  (1659) 
A A A A A A A A A A A Z Z Z Z Z Z Z Z Z Z Z Z Z Z Z

>  <atom.prop.IS_HEAVY_ATOM>  (1659) 
1 0 0 0 1 0 0 1 0 0 0 1 0 0 0 1 1 0 1 0 1 0 1 0 1 0

>  <DIFUSE_FUNC_ATOM>  (1659) 
n/a

>  <FINAL_SINGLE_POINT_ENERGY>  (1659) 
0

>  <NONCOV_INTER_ENERGY_QM>  (1659) 
0

>  <FF_Energy>  (1659) 
1.54

>  <QM_Energy>  (1659) 
-5.36

>  <source>  (1659) 
ETAM_MBZ

>  <Index>  (1659) 
16759

$$$$
ETAM-pdb3es4-B-LYS-107:MBZ-pdb3es4-B-PHE-64
     RDKit          3D

 26 25  0  0  0  0  0  0  0  0999 V2000
   -0.3555    1.3443   -3.4016 C   0  0  0  0  0  0  0  0  0  0  0  0
   -0.2344    1.7837   -2.5017 H   0  0  0  0  0  0  0  0  0  0  0  0
   -0.6216    0.3837   -3.2486 H   0  0  0  0  0  0  0  0  0  0  0  0
   -1.1843    1.8426   -3.9044 H   0  0  0  0  0  0  0  0  0  0  0  0
    0.9324    1.3862   -4.1504 C   0  0  0  0  0  0  0  0  0  0  0  0
    0.8326    0.9137   -5.0394 H   0  0  0  0  0  0  0  0  0  0  0  0
    1.1924    2.3445   -4.3402 H   0  0  0  0  0  0  0  0  0  0  0  0
    2.0924    0.7325   -3.4101 N   0  0  0  0  0  4  0  0  0  0  0  0
    2.1208   -0.2296   -3.6579 H   0  0  0  0  0  0  0  0  0  0  0  0
    2.9339    1.1863   -3.6812 H   0  0  0  0  0  0  0  0  0  0  0  0
    1.9397    0.8364   -2.4329 H   0  0  0  0  0  0  0  0  0  0  0  0
    0.0549    2.9498   -0.0941 C   0  0  0  0  0  0  0  0  0  0  0  0
   -0.6236    3.2157   -0.7718 H   0  0  0  0  0  0  0  0  0  0  0  0
    0.9687    3.1898   -0.4084 H   0  0  0  0  0  0  0  0  0  0  0  0
   -0.1470    3.4936    0.8287 H   0  0  0  0  0  0  0  0  0  0  0  0
    0.0055    1.4243    0.0109 C   0  0  0  0  0  0  0  0  0  0  0  0
   -1.1962    0.7093    0.0157 C   0  0  0  0  0  0  0  0  0  0  0  0
   -2.0629    1.1878    0.0291 H   0  0  0  0  0  0  0  0  0  0  0  0
   -1.1951   -0.7047   -0.0000 C   0  0  0  0  0  0  0  0  0  0  0  0
   -2.0790   -1.1876   -0.0101 H   0  0  0  0  0  0  0  0  0  0  0  0
    0.0014   -1.4112    0.0000 C   0  0  0  0  0  0  0  0  0  0  0  0
   -0.0122   -2.4080   -0.0005 H   0  0  0  0  0  0  0  0  0  0  0  0
    1.1951   -0.7208    0.0000 C   0  0  0  0  0  0  0  0  0  0  0  0
    2.0822   -1.1984    0.0199 H   0  0  0  0  0  0  0  0  0  0  0  0
    1.1893    0.7032   -0.0266 C   0  0  0  0  0  0  0  0  0  0  0  0
    2.0682    1.1787   -0.0742 H   0  0  0  0  0  0  0  0  0  0  0  0
  1  5  1  0
  5  8  1  0
  1  2  1  0
  1  3  1  0
  1  4  1  0
  5  6  1  0
  5  7  1  0
  8  9  1  0
  8 10  1  0
  8 11  1  0
 12 16  1  0
 16 17  2  0
 17 19  1  0
 19 21  2  0
 21 23  1  0
 23 25  2  0
 25 16  1  0
 12 13  1  0
 12 14  1  0
 12 15  1  0
 17 18  1  0
 19 20  1  0
 21 22  1  0
 23 24  1  0
 25 26  1  0
M  CHG  1   8   1
M  END
>  <PDB_ID>  (1660) 
pdb3es4

>  <RESIDUE_NAME>  (1660) 
LYS   PHE

>  <FRAG_NAME>  (1660) 
ETAM   MBZ

>  <FRAG_ATOM_NUM>  (1660) 
fragi: 11  fragj: 15

>  <atom.prop.CHAIN_ID>  (1660) 
A A A A A A A A A A A Z Z Z Z Z Z Z Z Z Z Z Z Z Z Z

>  <atom.prop.IS_HEAVY_ATOM>  (1660) 
1 0 0 0 1 0 0 1 0 0 0 1 0 0 0 1 1 0 1 0 1 0 1 0 1 0

>  <DIFUSE_FUNC_ATOM>  (1660) 
n/a

>  <FINAL_SINGLE_POINT_ENERGY>  (1660) 
0

>  <NONCOV_INTER_ENERGY_QM>  (1660) 
0

>  <FF_Energy>  (1660) 
-4.65

>  <QM_Energy>  (1660) 
-10.98

>  <source>  (1660) 
ETAM_MBZ

>  <Index>  (1660) 
16763

$$$$
ETAM-pdb3er6-C-LYS-123:MBZ-pdb3er6-C-PHE-98
     RDKit          3D

 26 25  0  0  0  0  0  0  0  0999 V2000
   -1.0777   -2.3637    3.4047 C   0  0  0  0  0  0  0  0  0  0  0  0
   -1.2228   -3.1502    4.0138 H   0  0  0  0  0  0  0  0  0  0  0  0
   -1.2368   -2.6581    2.4572 H   0  0  0  0  0  0  0  0  0  0  0  0
   -1.7654   -1.5593    3.6656 H   0  0  0  0  0  0  0  0  0  0  0  0
    0.4147   -1.9699    3.5160 C   0  0  0  0  0  0  0  0  0  0  0  0
    0.5549   -1.0786    3.0732 H   0  0  0  0  0  0  0  0  0  0  0  0
    0.6637   -1.8896    4.4863 H   0  0  0  0  0  0  0  0  0  0  0  0
    1.4023   -2.9821    2.8588 N   0  0  0  0  0  4  0  0  0  0  0  0
    1.3662   -3.8166    3.3871 H   0  0  0  0  0  0  0  0  0  0  0  0
    1.0999   -3.1298    1.9302 H   0  0  0  0  0  0  0  0  0  0  0  0
    2.3032   -2.5764    2.8845 H   0  0  0  0  0  0  0  0  0  0  0  0
    0.0248    2.9180   -0.0056 C   0  0  0  0  0  0  0  0  0  0  0  0
    0.8677    3.2190    0.4130 H   0  0  0  0  0  0  0  0  0  0  0  0
   -0.7632    3.2458    0.4925 H   0  0  0  0  0  0  0  0  0  0  0  0
   -0.0167    3.3500   -1.0055 H   0  0  0  0  0  0  0  0  0  0  0  0
    0.0016    1.4184    0.0093 C   0  0  0  0  0  0  0  0  0  0  0  0
   -1.1906    0.7219   -0.0228 C   0  0  0  0  0  0  0  0  0  0  0  0
   -2.0597    1.1852   -0.0626 H   0  0  0  0  0  0  0  0  0  0  0  0
   -1.1890   -0.7128   -0.0000 C   0  0  0  0  0  0  0  0  0  0  0  0
   -2.0767   -1.1831    0.0168 H   0  0  0  0  0  0  0  0  0  0  0  0
   -0.0007   -1.4063    0.0004 C   0  0  0  0  0  0  0  0  0  0  0  0
   -0.0095   -2.4094   -0.0000 H   0  0  0  0  0  0  0  0  0  0  0  0
    1.1890   -0.7220    0.0000 C   0  0  0  0  0  0  0  0  0  0  0  0
    2.0771   -1.2017   -0.0080 H   0  0  0  0  0  0  0  0  0  0  0  0
    1.1897    0.7008    0.0132 C   0  0  0  0  0  0  0  0  0  0  0  0
    2.0663    1.1762    0.0244 H   0  0  0  0  0  0  0  0  0  0  0  0
  1  5  1  0
  5  8  1  0
  1  2  1  0
  1  3  1  0
  1  4  1  0
  5  6  1  0
  5  7  1  0
  8  9  1  0
  8 10  1  0
  8 11  1  0
 12 16  1  0
 16 17  2  0
 17 19  1  0
 19 21  2  0
 21 23  1  0
 23 25  2  0
 25 16  1  0
 12 13  1  0
 12 14  1  0
 12 15  1  0
 17 18  1  0
 19 20  1  0
 21 22  1  0
 23 24  1  0
 25 26  1  0
M  CHG  1   8   1
M  END
>  <PDB_ID>  (1661) 
pdb3er6

>  <RESIDUE_NAME>  (1661) 
LYS   PHE

>  <FRAG_NAME>  (1661) 
ETAM   MBZ

>  <FRAG_ATOM_NUM>  (1661) 
fragi: 11  fragj: 15

>  <atom.prop.CHAIN_ID>  (1661) 
A A A A A A A A A A A Z Z Z Z Z Z Z Z Z Z Z Z Z Z Z

>  <atom.prop.IS_HEAVY_ATOM>  (1661) 
1 0 0 0 1 0 0 1 0 0 0 1 0 0 0 1 1 0 1 0 1 0 1 0 1 0

>  <DIFUSE_FUNC_ATOM>  (1661) 
n/a

>  <FINAL_SINGLE_POINT_ENERGY>  (1661) 
0

>  <NONCOV_INTER_ENERGY_QM>  (1661) 
0

>  <FF_Energy>  (1661) 
-3.25

>  <QM_Energy>  (1661) 
-9.33

>  <source>  (1661) 
ETAM_MBZ

>  <Index>  (1661) 
16772

$$$$
ETAM-pdb3etl-A-LYS-290:MBZ-pdb3etl-A-PHE-107
     RDKit          3D

 26 25  0  0  0  0  0  0  0  0999 V2000
   -2.2989   -1.8824    4.9320 C   0  0  0  0  0  0  0  0  0  0  0  0
   -2.5282   -2.8461    4.8963 H   0  0  0  0  0  0  0  0  0  0  0  0
   -2.9358   -1.3462    4.3935 H   0  0  0  0  0  0  0  0  0  0  0  0
   -2.3354   -1.5454    5.9680 H   0  0  0  0  0  0  0  0  0  0  0  0
   -0.8980   -1.6967    4.3494 C   0  0  0  0  0  0  0  0  0  0  0  0
   -0.6767   -0.7135    4.3504 H   0  0  0  0  0  0  0  0  0  0  0  0
   -0.2356   -2.1674    4.9459 H   0  0  0  0  0  0  0  0  0  0  0  0
   -0.7644   -2.2259    2.9611 N   0  0  0  0  0  4  0  0  0  0  0  0
   -1.0594   -3.1803    2.9423 H   0  0  0  0  0  0  0  0  0  0  0  0
   -1.3357   -1.6850    2.3454 H   0  0  0  0  0  0  0  0  0  0  0  0
    0.1911   -2.1631    2.6747 H   0  0  0  0  0  0  0  0  0  0  0  0
   -0.0030    2.9297    0.0209 C   0  0  0  0  0  0  0  0  0  0  0  0
   -0.7581    3.2376   -0.5362 H   0  0  0  0  0  0  0  0  0  0  0  0
    0.8632    3.2389   -0.3390 H   0  0  0  0  0  0  0  0  0  0  0  0
   -0.1244    3.3617    1.0143 H   0  0  0  0  0  0  0  0  0  0  0  0
    0.0011    1.4125   -0.0000 C   0  0  0  0  0  0  0  0  0  0  0  0
   -1.2013    0.6921   -0.0010 C   0  0  0  0  0  0  0  0  0  0  0  0
   -2.0673    1.1804   -0.0037 H   0  0  0  0  0  0  0  0  0  0  0  0
   -1.2066   -0.7079    0.0000 C   0  0  0  0  0  0  0  0  0  0  0  0
   -2.0817   -1.1976    0.0011 H   0  0  0  0  0  0  0  0  0  0  0  0
   -0.0018   -1.4031    0.0018 C   0  0  0  0  0  0  0  0  0  0  0  0
    0.0013   -2.3989    0.0038 H   0  0  0  0  0  0  0  0  0  0  0  0
    1.2066   -0.6976   -0.0000 C   0  0  0  0  0  0  0  0  0  0  0  0
    2.0861   -1.1926    0.0006 H   0  0  0  0  0  0  0  0  0  0  0  0
    1.2020    0.7040   -0.0007 C   0  0  0  0  0  0  0  0  0  0  0  0
    2.0689    1.1971   -0.0030 H   0  0  0  0  0  0  0  0  0  0  0  0
  1  5  1  0
  5  8  1  0
  1  2  1  0
  1  3  1  0
  1  4  1  0
  5  6  1  0
  5  7  1  0
  8  9  1  0
  8 10  1  0
  8 11  1  0
 12 16  1  0
 16 17  2  0
 17 19  1  0
 19 21  2  0
 21 23  1  0
 23 25  2  0
 25 16  1  0
 12 13  1  0
 12 14  1  0
 12 15  1  0
 17 18  1  0
 19 20  1  0
 21 22  1  0
 23 24  1  0
 25 26  1  0
M  CHG  1   8   1
M  END
>  <PDB_ID>  (1662) 
pdb3etl

>  <RESIDUE_NAME>  (1662) 
LYS   PHE

>  <FRAG_NAME>  (1662) 
ETAM   MBZ

>  <FRAG_ATOM_NUM>  (1662) 
fragi: 11  fragj: 15

>  <atom.prop.CHAIN_ID>  (1662) 
A A A A A A A A A A A Z Z Z Z Z Z Z Z Z Z Z Z Z Z Z

>  <atom.prop.IS_HEAVY_ATOM>  (1662) 
1 0 0 0 1 0 0 1 0 0 0 1 0 0 0 1 1 0 1 0 1 0 1 0 1 0

>  <DIFUSE_FUNC_ATOM>  (1662) 
n/a

>  <FINAL_SINGLE_POINT_ENERGY>  (1662) 
0

>  <NONCOV_INTER_ENERGY_QM>  (1662) 
0

>  <FF_Energy>  (1662) 
-4.14

>  <QM_Energy>  (1662) 
-11.52

>  <source>  (1662) 
ETAM_MBZ

>  <Index>  (1662) 
16776

$$$$
ETAM-pdb3etl-A-ALA-2:MBZ-pdb3etl-A-PHE-27
     RDKit          3D

 26 25  0  0  0  0  0  0  0  0999 V2000
   -3.5304    0.1378    2.3076 C   0  0  0  0  0  0  0  0  0  0  0  0
   -4.0536    0.8168    1.7932 H   0  0  0  0  0  0  0  0  0  0  0  0
   -2.9390   -0.3707    1.6824 H   0  0  0  0  0  0  0  0  0  0  0  0
   -4.1586   -0.4933    2.7608 H   0  0  0  0  0  0  0  0  0  0  0  0
   -2.6753    0.8429    3.3552 C   0  0  0  0  0  0  0  0  0  0  0  0
   -3.2822    1.1261    4.1066 H   0  0  0  0  0  0  0  0  0  0  0  0
   -1.9218    0.1588    3.7455 H   0  0  0  0  0  0  0  0  0  0  0  0
   -2.0568    2.0662    2.7785 N   0  0  0  0  0  4  0  0  0  0  0  0
   -1.2516    2.3109    3.3143 H   0  0  0  0  0  0  0  0  0  0  0  0
   -1.7905    1.8862    1.8345 H   0  0  0  0  0  0  0  0  0  0  0  0
   -2.7177    2.8129    2.8057 H   0  0  0  0  0  0  0  0  0  0  0  0
   -0.0114    2.9112   -0.0477 C   0  0  0  0  0  0  0  0  0  0  0  0
   -0.8948    3.2219    0.2730 H   0  0  0  0  0  0  0  0  0  0  0  0
    0.1454    3.1888   -0.9847 H   0  0  0  0  0  0  0  0  0  0  0  0
    0.7524    3.3822    0.5711 H   0  0  0  0  0  0  0  0  0  0  0  0
   -0.0022    1.4074   -0.0004 C   0  0  0  0  0  0  0  0  0  0  0  0
   -1.1964    0.6982   -0.0004 C   0  0  0  0  0  0  0  0  0  0  0  0
   -2.0657    1.1822   -0.0019 H   0  0  0  0  0  0  0  0  0  0  0  0
   -1.2025   -0.7038   -0.0000 C   0  0  0  0  0  0  0  0  0  0  0  0
   -2.0777   -1.1933    0.0010 H   0  0  0  0  0  0  0  0  0  0  0  0
    0.0034   -1.4002    0.0006 C   0  0  0  0  0  0  0  0  0  0  0  0
    0.0001   -2.3971    0.0008 H   0  0  0  0  0  0  0  0  0  0  0  0
    1.2025   -0.6999    0.0000 C   0  0  0  0  0  0  0  0  0  0  0  0
    2.0858   -1.1923    0.0004 H   0  0  0  0  0  0  0  0  0  0  0  0
    1.1952    0.6984    0.0002 C   0  0  0  0  0  0  0  0  0  0  0  0
    2.0636    1.1926   -0.0004 H   0  0  0  0  0  0  0  0  0  0  0  0
  1  5  1  0
  5  8  1  0
  1  2  1  0
  1  3  1  0
  1  4  1  0
  5  6  1  0
  5  7  1  0
  8  9  1  0
  8 10  1  0
  8 11  1  0
 12 16  1  0
 16 17  2  0
 17 19  1  0
 19 21  2  0
 21 23  1  0
 23 25  2  0
 25 16  1  0
 12 13  1  0
 12 14  1  0
 12 15  1  0
 17 18  1  0
 19 20  1  0
 21 22  1  0
 23 24  1  0
 25 26  1  0
M  CHG  1   8   1
M  END
>  <PDB_ID>  (1663) 
pdb3etl

>  <RESIDUE_NAME>  (1663) 
ALA   PHE

>  <FRAG_NAME>  (1663) 
ETAM   MBZ

>  <FRAG_ATOM_NUM>  (1663) 
fragi: 11  fragj: 15

>  <atom.prop.CHAIN_ID>  (1663) 
A A A A A A A A A A A Z Z Z Z Z Z Z Z Z Z Z Z Z Z Z

>  <atom.prop.IS_HEAVY_ATOM>  (1663) 
1 0 0 0 1 0 0 1 0 0 0 1 0 0 0 1 1 0 1 0 1 0 1 0 1 0

>  <DIFUSE_FUNC_ATOM>  (1663) 
n/a

>  <FINAL_SINGLE_POINT_ENERGY>  (1663) 
0

>  <NONCOV_INTER_ENERGY_QM>  (1663) 
0

>  <FF_Energy>  (1663) 
-1.97

>  <QM_Energy>  (1663) 
-8.75

>  <source>  (1663) 
ETAM_MBZ

>  <Index>  (1663) 
16779

$$$$
ETAM-pdb4a2c-B-LYS-97:MBZ-pdb4a2c-A-PHE-229
     RDKit          3D

 26 25  0  0  0  0  0  0  0  0999 V2000
   -1.0290    0.0541    3.7295 C   0  0  0  0  0  0  0  0  0  0  0  0
   -0.7492   -0.6710    3.1173 H   0  0  0  0  0  0  0  0  0  0  0  0
   -1.6006    0.7150    3.2657 H   0  0  0  0  0  0  0  0  0  0  0  0
   -1.5802   -0.3743    4.5666 H   0  0  0  0  0  0  0  0  0  0  0  0
    0.2174    0.7654    4.2369 C   0  0  0  0  0  0  0  0  0  0  0  0
   -0.0496    1.4132    4.9589 H   0  0  0  0  0  0  0  0  0  0  0  0
    0.8407    0.0840    4.6359 H   0  0  0  0  0  0  0  0  0  0  0  0
    0.9307    1.5053    3.1576 N   0  0  0  0  0  4  0  0  0  0  0  0
    1.8681    1.1671    3.0887 H   0  0  0  0  0  0  0  0  0  0  0  0
    0.4574    1.3610    2.2894 H   0  0  0  0  0  0  0  0  0  0  0  0
    0.9403    2.4810    3.3761 H   0  0  0  0  0  0  0  0  0  0  0  0
   -0.0025    2.9228   -0.0052 C   0  0  0  0  0  0  0  0  0  0  0  0
    0.8861    3.2261    0.2915 H   0  0  0  0  0  0  0  0  0  0  0  0
   -0.7182    3.2258    0.6001 H   0  0  0  0  0  0  0  0  0  0  0  0
   -0.1932    3.3354   -0.9960 H   0  0  0  0  0  0  0  0  0  0  0  0
    0.0016    1.4073    0.0126 C   0  0  0  0  0  0  0  0  0  0  0  0
   -1.1988    0.6883   -0.0037 C   0  0  0  0  0  0  0  0  0  0  0  0
   -2.0641    1.1798   -0.0191 H   0  0  0  0  0  0  0  0  0  0  0  0
   -1.1971   -0.6976   -0.0000 C   0  0  0  0  0  0  0  0  0  0  0  0
   -2.0732   -1.1980    0.0061 H   0  0  0  0  0  0  0  0  0  0  0  0
    0.0068   -1.3972   -0.0030 C   0  0  0  0  0  0  0  0  0  0  0  0
   -0.0087   -2.3991   -0.0077 H   0  0  0  0  0  0  0  0  0  0  0  0
    1.1971   -0.7132   -0.0000 C   0  0  0  0  0  0  0  0  0  0  0  0
    2.0850   -1.1880    0.0078 H   0  0  0  0  0  0  0  0  0  0  0  0
    1.1904    0.7123   -0.0058 C   0  0  0  0  0  0  0  0  0  0  0  0
    2.0631    1.1893   -0.0245 H   0  0  0  0  0  0  0  0  0  0  0  0
  1  5  1  0
  5  8  1  0
  1  2  1  0
  1  3  1  0
  1  4  1  0
  5  6  1  0
  5  7  1  0
  8  9  1  0
  8 10  1  0
  8 11  1  0
 12 16  1  0
 16 17  2  0
 17 19  1  0
 19 21  2  0
 21 23  1  0
 23 25  2  0
 25 16  1  0
 12 13  1  0
 12 14  1  0
 12 15  1  0
 17 18  1  0
 19 20  1  0
 21 22  1  0
 23 24  1  0
 25 26  1  0
M  CHG  1   8   1
M  END
>  <PDB_ID>  (1664) 
pdb4a2c

>  <RESIDUE_NAME>  (1664) 
LYS   PHE

>  <FRAG_NAME>  (1664) 
ETAM   MBZ

>  <FRAG_ATOM_NUM>  (1664) 
fragi: 11  fragj: 15

>  <atom.prop.CHAIN_ID>  (1664) 
A A A A A A A A A A A Z Z Z Z Z Z Z Z Z Z Z Z Z Z Z

>  <atom.prop.IS_HEAVY_ATOM>  (1664) 
1 0 0 0 1 0 0 1 0 0 0 1 0 0 0 1 1 0 1 0 1 0 1 0 1 0

>  <DIFUSE_FUNC_ATOM>  (1664) 
n/a

>  <FINAL_SINGLE_POINT_ENERGY>  (1664) 
0

>  <NONCOV_INTER_ENERGY_QM>  (1664) 
0

>  <FF_Energy>  (1664) 
-8.23

>  <QM_Energy>  (1664) 
-14.29

>  <source>  (1664) 
ETAM_MBZ

>  <Index>  (1664) 
16785

$$$$
ETAM-pdb4a4z-A-LYS-335:MBZ-pdb4a4z-A-PHE-315
     RDKit          3D

 26 25  0  0  0  0  0  0  0  0999 V2000
    0.7360    0.3708   -3.2880 C   0  0  0  0  0  0  0  0  0  0  0  0
    0.9048    0.9367   -4.0972 H   0  0  0  0  0  0  0  0  0  0  0  0
    0.6564    0.9620   -2.4834 H   0  0  0  0  0  0  0  0  0  0  0  0
   -0.2040   -0.1637   -3.4251 H   0  0  0  0  0  0  0  0  0  0  0  0
    1.9118   -0.5573   -3.0930 C   0  0  0  0  0  0  0  0  0  0  0  0
    1.7527   -1.1228   -2.2820 H   0  0  0  0  0  0  0  0  0  0  0  0
    2.0015   -1.1468   -3.8956 H   0  0  0  0  0  0  0  0  0  0  0  0
    3.1668    0.2148   -2.9109 N   0  0  0  0  0  4  0  0  0  0  0  0
    3.8941   -0.3990   -2.6035 H   0  0  0  0  0  0  0  0  0  0  0  0
    3.4292    0.6338   -3.7799 H   0  0  0  0  0  0  0  0  0  0  0  0
    3.0225    0.9295   -2.2267 H   0  0  0  0  0  0  0  0  0  0  0  0
   -0.0084    2.8939   -0.0243 C   0  0  0  0  0  0  0  0  0  0  0  0
   -0.8189    3.1914   -0.5340 H   0  0  0  0  0  0  0  0  0  0  0  0
    0.8138    3.2030   -0.5072 H   0  0  0  0  0  0  0  0  0  0  0  0
   -0.0275    3.3976    0.9422 H   0  0  0  0  0  0  0  0  0  0  0  0
    0.0015    1.3989   -0.0073 C   0  0  0  0  0  0  0  0  0  0  0  0
   -1.1986    0.6923   -0.0084 C   0  0  0  0  0  0  0  0  0  0  0  0
   -2.0636    1.1941   -0.0163 H   0  0  0  0  0  0  0  0  0  0  0  0
   -1.2193   -0.6924    0.0000 C   0  0  0  0  0  0  0  0  0  0  0  0
   -2.0880   -1.1857   -0.0103 H   0  0  0  0  0  0  0  0  0  0  0  0
   -0.0064   -1.3905    0.0251 C   0  0  0  0  0  0  0  0  0  0  0  0
   -0.0125   -2.3896    0.0615 H   0  0  0  0  0  0  0  0  0  0  0  0
    1.2193   -0.7006   -0.0000 C   0  0  0  0  0  0  0  0  0  0  0  0
    2.0851   -1.2009   -0.0095 H   0  0  0  0  0  0  0  0  0  0  0  0
    1.2035    0.6923   -0.0094 C   0  0  0  0  0  0  0  0  0  0  0  0
    2.0699    1.1943   -0.0184 H   0  0  0  0  0  0  0  0  0  0  0  0
  1  5  1  0
  5  8  1  0
  1  2  1  0
  1  3  1  0
  1  4  1  0
  5  6  1  0
  5  7  1  0
  8  9  1  0
  8 10  1  0
  8 11  1  0
 12 16  1  0
 16 17  2  0
 17 19  1  0
 19 21  2  0
 21 23  1  0
 23 25  2  0
 25 16  1  0
 12 13  1  0
 12 14  1  0
 12 15  1  0
 17 18  1  0
 19 20  1  0
 21 22  1  0
 23 24  1  0
 25 26  1  0
M  CHG  1   8   1
M  END
>  <PDB_ID>  (1665) 
pdb4a4z

>  <RESIDUE_NAME>  (1665) 
LYS   PHE

>  <FRAG_NAME>  (1665) 
ETAM   MBZ

>  <FRAG_ATOM_NUM>  (1665) 
fragi: 11  fragj: 15

>  <atom.prop.CHAIN_ID>  (1665) 
A A A A A A A A A A A Z Z Z Z Z Z Z Z Z Z Z Z Z Z Z

>  <atom.prop.IS_HEAVY_ATOM>  (1665) 
1 0 0 0 1 0 0 1 0 0 0 1 0 0 0 1 1 0 1 0 1 0 1 0 1 0

>  <DIFUSE_FUNC_ATOM>  (1665) 
n/a

>  <FINAL_SINGLE_POINT_ENERGY>  (1665) 
0

>  <NONCOV_INTER_ENERGY_QM>  (1665) 
0

>  <FF_Energy>  (1665) 
-0.02

>  <QM_Energy>  (1665) 
-7.81

>  <source>  (1665) 
ETAM_MBZ

>  <Index>  (1665) 
16811

$$$$
ETAM-pdb4a0m-B-LYS-91:MBZ-pdb4a0m-B-PHE-3
     RDKit          3D

 26 25  0  0  0  0  0  0  0  0999 V2000
    1.7726    7.1068    0.6878 C   0  0  0  0  0  0  0  0  0  0  0  0
    2.2548    6.7130    1.4699 H   0  0  0  0  0  0  0  0  0  0  0  0
    1.3539    7.9739    0.9540 H   0  0  0  0  0  0  0  0  0  0  0  0
    2.4814    7.2808   -0.1219 H   0  0  0  0  0  0  0  0  0  0  0  0
    0.6897    6.1618    0.2669 C   0  0  0  0  0  0  0  0  0  0  0  0
    0.3174    5.6948    1.0911 H   0  0  0  0  0  0  0  0  0  0  0  0
   -0.0783    6.6952   -0.1368 H   0  0  0  0  0  0  0  0  0  0  0  0
    1.1190    5.1353   -0.7070 N   0  0  0  0  0  4  0  0  0  0  0  0
    1.6471    4.4263   -0.2376 H   0  0  0  0  0  0  0  0  0  0  0  0
    0.3142    4.7199   -1.1346 H   0  0  0  0  0  0  0  0  0  0  0  0
    1.6880    5.5589   -1.4137 H   0  0  0  0  0  0  0  0  0  0  0  0
    0.0242    2.8953    0.0048 C   0  0  0  0  0  0  0  0  0  0  0  0
    0.3250    3.1922   -0.8902 H   0  0  0  0  0  0  0  0  0  0  0  0
    0.6537    3.1883    0.7090 H   0  0  0  0  0  0  0  0  0  0  0  0
   -0.9446    3.3530    0.2055 H   0  0  0  0  0  0  0  0  0  0  0  0
    0.0051    1.3833    0.0049 C   0  0  0  0  0  0  0  0  0  0  0  0
   -1.1939    0.6850   -0.0007 C   0  0  0  0  0  0  0  0  0  0  0  0
   -2.0547    1.1868   -0.0067 H   0  0  0  0  0  0  0  0  0  0  0  0
   -1.1917   -0.6776   -0.0000 C   0  0  0  0  0  0  0  0  0  0  0  0
   -2.0756   -1.1804    0.0063 H   0  0  0  0  0  0  0  0  0  0  0  0
   -0.0115   -1.3625   -0.0068 C   0  0  0  0  0  0  0  0  0  0  0  0
   -0.0162   -2.3729   -0.0176 H   0  0  0  0  0  0  0  0  0  0  0  0
    1.1917   -0.6894    0.0000 C   0  0  0  0  0  0  0  0  0  0  0  0
    2.0638   -1.2137    0.0044 H   0  0  0  0  0  0  0  0  0  0  0  0
    1.2004    0.6612    0.0027 C   0  0  0  0  0  0  0  0  0  0  0  0
    2.0678    1.1708    0.0025 H   0  0  0  0  0  0  0  0  0  0  0  0
  1  5  1  0
  5  8  1  0
  1  2  1  0
  1  3  1  0
  1  4  1  0
  5  6  1  0
  5  7  1  0
  8  9  1  0
  8 10  1  0
  8 11  1  0
 12 16  1  0
 16 17  2  0
 17 19  1  0
 19 21  2  0
 21 23  1  0
 23 25  2  0
 25 16  1  0
 12 13  1  0
 12 14  1  0
 12 15  1  0
 17 18  1  0
 19 20  1  0
 21 22  1  0
 23 24  1  0
 25 26  1  0
M  CHG  1   8   1
M  END
>  <PDB_ID>  (1666) 
pdb4a0m

>  <RESIDUE_NAME>  (1666) 
LYS   PHE

>  <FRAG_NAME>  (1666) 
ETAM   MBZ

>  <FRAG_ATOM_NUM>  (1666) 
fragi: 11  fragj: 15

>  <atom.prop.CHAIN_ID>  (1666) 
A A A A A A A A A A A Z Z Z Z Z Z Z Z Z Z Z Z Z Z Z

>  <atom.prop.IS_HEAVY_ATOM>  (1666) 
1 0 0 0 1 0 0 1 0 0 0 1 0 0 0 1 1 0 1 0 1 0 1 0 1 0

>  <DIFUSE_FUNC_ATOM>  (1666) 
n/a

>  <FINAL_SINGLE_POINT_ENERGY>  (1666) 
0

>  <NONCOV_INTER_ENERGY_QM>  (1666) 
0

>  <FF_Energy>  (1666) 
22.83

>  <QM_Energy>  (1666) 
7.35

>  <source>  (1666) 
ETAM_MBZ

>  <Index>  (1666) 
16812

$$$$
ETAM-pdb4a62-B-LYS-43:MBZ-pdb4a62-B-PHE-40
     RDKit          3D

 26 25  0  0  0  0  0  0  0  0999 V2000
    3.2482    4.4937    1.0994 C   0  0  0  0  0  0  0  0  0  0  0  0
    2.2642    4.4555    0.9473 H   0  0  0  0  0  0  0  0  0  0  0  0
    3.6609    5.1719    0.4969 H   0  0  0  0  0  0  0  0  0  0  0  0
    3.4370    4.7756    2.1353 H   0  0  0  0  0  0  0  0  0  0  0  0
    3.8392    3.1328    0.7691 C   0  0  0  0  0  0  0  0  0  0  0  0
    4.8262    3.1565    0.9382 H   0  0  0  0  0  0  0  0  0  0  0  0
    3.4214    2.4429    1.3639 H   0  0  0  0  0  0  0  0  0  0  0  0
    3.5962    2.7618   -0.6536 N   0  0  0  0  0  4  0  0  0  0  0  0
    3.8243    1.7985   -0.7874 H   0  0  0  0  0  0  0  0  0  0  0  0
    2.6341    2.9130   -0.8747 H   0  0  0  0  0  0  0  0  0  0  0  0
    4.1698    3.3280   -1.2451 H   0  0  0  0  0  0  0  0  0  0  0  0
    0.0056    2.8966    0.0047 C   0  0  0  0  0  0  0  0  0  0  0  0
   -0.3608    3.2063   -0.8602 H   0  0  0  0  0  0  0  0  0  0  0  0
    0.9385    3.2002    0.1295 H   0  0  0  0  0  0  0  0  0  0  0  0
   -0.5974    3.3364    0.7991 H   0  0  0  0  0  0  0  0  0  0  0  0
    0.0018    1.3956    0.0014 C   0  0  0  0  0  0  0  0  0  0  0  0
   -1.1933    0.6905   -0.0026 C   0  0  0  0  0  0  0  0  0  0  0  0
   -2.0594    1.1834   -0.0081 H   0  0  0  0  0  0  0  0  0  0  0  0
   -1.1970   -0.6920    0.0000 C   0  0  0  0  0  0  0  0  0  0  0  0
   -2.0772   -1.1870    0.0026 H   0  0  0  0  0  0  0  0  0  0  0  0
   -0.0043   -1.3855    0.0009 C   0  0  0  0  0  0  0  0  0  0  0  0
   -0.0080   -2.3873    0.0016 H   0  0  0  0  0  0  0  0  0  0  0  0
    1.1970   -0.6961   -0.0000 C   0  0  0  0  0  0  0  0  0  0  0  0
    2.0759   -1.1986    0.0006 H   0  0  0  0  0  0  0  0  0  0  0  0
    1.1959    0.6876    0.0003 C   0  0  0  0  0  0  0  0  0  0  0  0
    2.0649    1.1850   -0.0010 H   0  0  0  0  0  0  0  0  0  0  0  0
  1  5  1  0
  5  8  1  0
  1  2  1  0
  1  3  1  0
  1  4  1  0
  5  6  1  0
  5  7  1  0
  8  9  1  0
  8 10  1  0
  8 11  1  0
 12 16  1  0
 16 17  2  0
 17 19  1  0
 19 21  2  0
 21 23  1  0
 23 25  2  0
 25 16  1  0
 12 13  1  0
 12 14  1  0
 12 15  1  0
 17 18  1  0
 19 20  1  0
 21 22  1  0
 23 24  1  0
 25 26  1  0
M  CHG  1   8   1
M  END
>  <PDB_ID>  (1667) 
pdb4a62

>  <RESIDUE_NAME>  (1667) 
LYS   PHE

>  <FRAG_NAME>  (1667) 
ETAM   MBZ

>  <FRAG_ATOM_NUM>  (1667) 
fragi: 11  fragj: 15

>  <atom.prop.CHAIN_ID>  (1667) 
A A A A A A A A A A A Z Z Z Z Z Z Z Z Z Z Z Z Z Z Z

>  <atom.prop.IS_HEAVY_ATOM>  (1667) 
1 0 0 0 1 0 0 1 0 0 0 1 0 0 0 1 1 0 1 0 1 0 1 0 1 0

>  <DIFUSE_FUNC_ATOM>  (1667) 
n/a

>  <FINAL_SINGLE_POINT_ENERGY>  (1667) 
0

>  <NONCOV_INTER_ENERGY_QM>  (1667) 
0

>  <FF_Energy>  (1667) 
4.69

>  <QM_Energy>  (1667) 
-2.2

>  <source>  (1667) 
ETAM_MBZ

>  <Index>  (1667) 
16815

$$$$
ETAM-pdb3eud-A-LYS-77:MBZ-pdb3eud-A-PHE-14
     RDKit          3D

 26 25  0  0  0  0  0  0  0  0999 V2000
   -0.4801    0.8160    4.2353 C   0  0  0  0  0  0  0  0  0  0  0  0
    0.1176    1.6205    4.2613 H   0  0  0  0  0  0  0  0  0  0  0  0
   -0.6233    0.4835    5.1702 H   0  0  0  0  0  0  0  0  0  0  0  0
   -1.4445    1.1198    3.8280 H   0  0  0  0  0  0  0  0  0  0  0  0
    0.2012   -0.2724    3.4302 C   0  0  0  0  0  0  0  0  0  0  0  0
   -0.0553   -0.1823    2.4696 H   0  0  0  0  0  0  0  0  0  0  0  0
    1.1910   -0.1826    3.5245 H   0  0  0  0  0  0  0  0  0  0  0  0
   -0.2123   -1.6288    3.9185 N   0  0  0  0  0  4  0  0  0  0  0  0
    0.3479   -1.8770    4.7055 H   0  0  0  0  0  0  0  0  0  0  0  0
   -1.1744   -1.6003    4.1823 H   0  0  0  0  0  0  0  0  0  0  0  0
   -0.0812   -2.2926    3.1857 H   0  0  0  0  0  0  0  0  0  0  0  0
    0.0095    2.9180    0.0269 C   0  0  0  0  0  0  0  0  0  0  0  0
    0.8897    3.2156    0.3688 H   0  0  0  0  0  0  0  0  0  0  0  0
   -0.7222    3.2137    0.6252 H   0  0  0  0  0  0  0  0  0  0  0  0
   -0.1454    3.3929   -0.9419 H   0  0  0  0  0  0  0  0  0  0  0  0
    0.0065    1.4112   -0.0050 C   0  0  0  0  0  0  0  0  0  0  0  0
   -1.1931    0.6986    0.0067 C   0  0  0  0  0  0  0  0  0  0  0  0
   -2.0610    1.1835    0.0187 H   0  0  0  0  0  0  0  0  0  0  0  0
   -1.2047   -0.7123    0.0000 C   0  0  0  0  0  0  0  0  0  0  0  0
   -2.0855   -1.1909    0.0040 H   0  0  0  0  0  0  0  0  0  0  0  0
   -0.0079   -1.4097   -0.0100 C   0  0  0  0  0  0  0  0  0  0  0  0
    0.0024   -2.4014   -0.0247 H   0  0  0  0  0  0  0  0  0  0  0  0
    1.2047   -0.6937    0.0000 C   0  0  0  0  0  0  0  0  0  0  0  0
    2.0835   -1.1888    0.0032 H   0  0  0  0  0  0  0  0  0  0  0  0
    1.1945    0.7059    0.0083 C   0  0  0  0  0  0  0  0  0  0  0  0
    2.0677    1.1968    0.0235 H   0  0  0  0  0  0  0  0  0  0  0  0
  1  5  1  0
  5  8  1  0
  1  2  1  0
  1  3  1  0
  1  4  1  0
  5  6  1  0
  5  7  1  0
  8  9  1  0
  8 10  1  0
  8 11  1  0
 12 16  1  0
 16 17  2  0
 17 19  1  0
 19 21  2  0
 21 23  1  0
 23 25  2  0
 25 16  1  0
 12 13  1  0
 12 14  1  0
 12 15  1  0
 17 18  1  0
 19 20  1  0
 21 22  1  0
 23 24  1  0
 25 26  1  0
M  CHG  1   8   1
M  END
>  <PDB_ID>  (1668) 
pdb3eud

>  <RESIDUE_NAME>  (1668) 
LYS   PHE

>  <FRAG_NAME>  (1668) 
ETAM   MBZ

>  <FRAG_ATOM_NUM>  (1668) 
fragi: 11  fragj: 15

>  <atom.prop.CHAIN_ID>  (1668) 
A A A A A A A A A A A Z Z Z Z Z Z Z Z Z Z Z Z Z Z Z

>  <atom.prop.IS_HEAVY_ATOM>  (1668) 
1 0 0 0 1 0 0 1 0 0 0 1 0 0 0 1 1 0 1 0 1 0 1 0 1 0

>  <DIFUSE_FUNC_ATOM>  (1668) 
n/a

>  <FINAL_SINGLE_POINT_ENERGY>  (1668) 
0

>  <NONCOV_INTER_ENERGY_QM>  (1668) 
0

>  <FF_Energy>  (1668) 
-5.41

>  <QM_Energy>  (1668) 
-11.33

>  <source>  (1668) 
ETAM_MBZ

>  <Index>  (1668) 
16824

$$$$
ETAM-pdb4a0m-D-LYS-91:MBZ-pdb4a0m-D-PHE-3
     RDKit          3D

 26 25  0  0  0  0  0  0  0  0999 V2000
   -0.6295    0.0566    4.0253 C   0  0  0  0  0  0  0  0  0  0  0  0
   -1.3406   -0.0399    3.3321 H   0  0  0  0  0  0  0  0  0  0  0  0
   -1.0401    0.0572    4.9346 H   0  0  0  0  0  0  0  0  0  0  0  0
    0.0683   -0.7769    3.9445 H   0  0  0  0  0  0  0  0  0  0  0  0
    0.0754    1.3583    3.8141 C   0  0  0  0  0  0  0  0  0  0  0  0
   -0.2149    2.0146    4.5259 H   0  0  0  0  0  0  0  0  0  0  0  0
    1.0712    1.2190    3.9120 H   0  0  0  0  0  0  0  0  0  0  0  0
   -0.1986    1.9411    2.4839 N   0  0  0  0  0  4  0  0  0  0  0  0
    0.5343    1.6900    1.8488 H   0  0  0  0  0  0  0  0  0  0  0  0
   -1.0712    1.5932    2.1370 H   0  0  0  0  0  0  0  0  0  0  0  0
   -0.2454    2.9386    2.5566 H   0  0  0  0  0  0  0  0  0  0  0  0
   -0.0103    2.8730    0.0185 C   0  0  0  0  0  0  0  0  0  0  0  0
    0.8517    3.1789    0.4020 H   0  0  0  0  0  0  0  0  0  0  0  0
   -0.7712    3.1686    0.5819 H   0  0  0  0  0  0  0  0  0  0  0  0
   -0.1219    3.3315   -0.9641 H   0  0  0  0  0  0  0  0  0  0  0  0
   -0.0030    1.3805   -0.0035 C   0  0  0  0  0  0  0  0  0  0  0  0
   -1.1870    0.6732    0.0049 C   0  0  0  0  0  0  0  0  0  0  0  0
   -2.0580    1.1718    0.0139 H   0  0  0  0  0  0  0  0  0  0  0  0
   -1.1905   -0.6897   -0.0000 C   0  0  0  0  0  0  0  0  0  0  0  0
   -2.0637   -1.1963    0.0034 H   0  0  0  0  0  0  0  0  0  0  0  0
    0.0081   -1.3727   -0.0072 C   0  0  0  0  0  0  0  0  0  0  0  0
    0.0077   -2.3763   -0.0183 H   0  0  0  0  0  0  0  0  0  0  0  0
    1.1905   -0.6775    0.0000 C   0  0  0  0  0  0  0  0  0  0  0  0
    2.0794   -1.1797    0.0024 H   0  0  0  0  0  0  0  0  0  0  0  0
    1.1818    0.6863    0.0059 C   0  0  0  0  0  0  0  0  0  0  0  0
    2.0521    1.1934    0.0166 H   0  0  0  0  0  0  0  0  0  0  0  0
  1  5  1  0
  5  8  1  0
  1  2  1  0
  1  3  1  0
  1  4  1  0
  5  6  1  0
  5  7  1  0
  8  9  1  0
  8 10  1  0
  8 11  1  0
 12 16  1  0
 16 17  2  0
 17 19  1  0
 19 21  2  0
 21 23  1  0
 23 25  2  0
 25 16  1  0
 12 13  1  0
 12 14  1  0
 12 15  1  0
 17 18  1  0
 19 20  1  0
 21 22  1  0
 23 24  1  0
 25 26  1  0
M  CHG  1   8   1
M  END
>  <PDB_ID>  (1669) 
pdb4a0m

>  <RESIDUE_NAME>  (1669) 
LYS   PHE

>  <FRAG_NAME>  (1669) 
ETAM   MBZ

>  <FRAG_ATOM_NUM>  (1669) 
fragi: 11  fragj: 15

>  <atom.prop.CHAIN_ID>  (1669) 
A A A A A A A A A A A Z Z Z Z Z Z Z Z Z Z Z Z Z Z Z

>  <atom.prop.IS_HEAVY_ATOM>  (1669) 
1 0 0 0 1 0 0 1 0 0 0 1 0 0 0 1 1 0 1 0 1 0 1 0 1 0

>  <DIFUSE_FUNC_ATOM>  (1669) 
n/a

>  <FINAL_SINGLE_POINT_ENERGY>  (1669) 
0

>  <NONCOV_INTER_ENERGY_QM>  (1669) 
0

>  <FF_Energy>  (1669) 
17.48

>  <QM_Energy>  (1669) 
-2.99

>  <source>  (1669) 
ETAM_MBZ

>  <Index>  (1669) 
16830

$$$$
ETAM-pdb3eud-E-LYS-77:MBZ-pdb3eud-E-PHE-14
     RDKit          3D

 26 25  0  0  0  0  0  0  0  0999 V2000
   -0.9752    0.3026    4.2487 C   0  0  0  0  0  0  0  0  0  0  0  0
   -0.5600    0.4569    5.1390 H   0  0  0  0  0  0  0  0  0  0  0  0
   -1.6549   -0.4203    4.3038 H   0  0  0  0  0  0  0  0  0  0  0  0
   -1.4564    1.2220    3.9151 H   0  0  0  0  0  0  0  0  0  0  0  0
    0.1156   -0.1347    3.2779 C   0  0  0  0  0  0  0  0  0  0  0  0
   -0.2905   -0.2729    2.3730 H   0  0  0  0  0  0  0  0  0  0  0  0
    0.8088    0.5866    3.2202 H   0  0  0  0  0  0  0  0  0  0  0  0
    0.7710   -1.4068    3.7184 N   0  0  0  0  0  4  0  0  0  0  0  0
    0.3225   -2.1776    3.2703 H   0  0  0  0  0  0  0  0  0  0  0  0
    1.7359   -1.3823    3.4650 H   0  0  0  0  0  0  0  0  0  0  0  0
    0.6835   -1.4941    4.7092 H   0  0  0  0  0  0  0  0  0  0  0  0
    0.0076    2.8933    0.0196 C   0  0  0  0  0  0  0  0  0  0  0  0
    0.9051    3.1835    0.3271 H   0  0  0  0  0  0  0  0  0  0  0  0
   -0.6949    3.1886    0.6542 H   0  0  0  0  0  0  0  0  0  0  0  0
   -0.1888    3.3605   -0.9454 H   0  0  0  0  0  0  0  0  0  0  0  0
   -0.0022    1.3865   -0.0058 C   0  0  0  0  0  0  0  0  0  0  0  0
   -1.1837    0.6917   -0.0009 C   0  0  0  0  0  0  0  0  0  0  0  0
   -2.0544    1.1809    0.0014 H   0  0  0  0  0  0  0  0  0  0  0  0
   -1.1826   -0.6843    0.0000 C   0  0  0  0  0  0  0  0  0  0  0  0
   -2.0643   -1.1829   -0.0006 H   0  0  0  0  0  0  0  0  0  0  0  0
    0.0051   -1.3747    0.0039 C   0  0  0  0  0  0  0  0  0  0  0  0
   -0.0061   -2.3809    0.0096 H   0  0  0  0  0  0  0  0  0  0  0  0
    1.1826   -0.6940    0.0000 C   0  0  0  0  0  0  0  0  0  0  0  0
    2.0718   -1.1947   -0.0033 H   0  0  0  0  0  0  0  0  0  0  0  0
    1.1809    0.6748    0.0028 C   0  0  0  0  0  0  0  0  0  0  0  0
    2.0543    1.1760    0.0110 H   0  0  0  0  0  0  0  0  0  0  0  0
  1  5  1  0
  5  8  1  0
  1  2  1  0
  1  3  1  0
  1  4  1  0
  5  6  1  0
  5  7  1  0
  8  9  1  0
  8 10  1  0
  8 11  1  0
 12 16  1  0
 16 17  2  0
 17 19  1  0
 19 21  2  0
 21 23  1  0
 23 25  2  0
 25 16  1  0
 12 13  1  0
 12 14  1  0
 12 15  1  0
 17 18  1  0
 19 20  1  0
 21 22  1  0
 23 24  1  0
 25 26  1  0
M  CHG  1   8   1
M  END
>  <PDB_ID>  (1670) 
pdb3eud

>  <RESIDUE_NAME>  (1670) 
LYS   PHE

>  <FRAG_NAME>  (1670) 
ETAM   MBZ

>  <FRAG_ATOM_NUM>  (1670) 
fragi: 11  fragj: 15

>  <atom.prop.CHAIN_ID>  (1670) 
A A A A A A A A A A A Z Z Z Z Z Z Z Z Z Z Z Z Z Z Z

>  <atom.prop.IS_HEAVY_ATOM>  (1670) 
1 0 0 0 1 0 0 1 0 0 0 1 0 0 0 1 1 0 1 0 1 0 1 0 1 0

>  <DIFUSE_FUNC_ATOM>  (1670) 
n/a

>  <FINAL_SINGLE_POINT_ENERGY>  (1670) 
0

>  <NONCOV_INTER_ENERGY_QM>  (1670) 
0

>  <FF_Energy>  (1670) 
-4.81

>  <QM_Energy>  (1670) 
-11.3

>  <source>  (1670) 
ETAM_MBZ

>  <Index>  (1670) 
16836

$$$$
ETAM-pdb3eud-F-LYS-77:MBZ-pdb3eud-F-PHE-14
     RDKit          3D

 26 25  0  0  0  0  0  0  0  0999 V2000
    1.0615    1.0097    3.5308 C   0  0  0  0  0  0  0  0  0  0  0  0
    1.6527    1.0470    2.7336 H   0  0  0  0  0  0  0  0  0  0  0  0
    1.5997    0.9270    4.3608 H   0  0  0  0  0  0  0  0  0  0  0  0
    0.4727    1.9258    3.5785 H   0  0  0  0  0  0  0  0  0  0  0  0
    0.1627   -0.2107    3.4118 C   0  0  0  0  0  0  0  0  0  0  0  0
   -0.5424   -0.1680    4.1281 H   0  0  0  0  0  0  0  0  0  0  0  0
   -0.2925   -0.1956    2.5147 H   0  0  0  0  0  0  0  0  0  0  0  0
    0.9178   -1.4926    3.5504 N   0  0  0  0  0  4  0  0  0  0  0  0
    1.5786   -1.5668    2.8058 H   0  0  0  0  0  0  0  0  0  0  0  0
    1.3955   -1.4996    4.4270 H   0  0  0  0  0  0  0  0  0  0  0  0
    0.2770   -2.2571    3.5102 H   0  0  0  0  0  0  0  0  0  0  0  0
   -0.0004    2.8829   -0.0049 C   0  0  0  0  0  0  0  0  0  0  0  0
    0.9376    3.1940    0.0338 H   0  0  0  0  0  0  0  0  0  0  0  0
   -0.5135    3.1933    0.7821 H   0  0  0  0  0  0  0  0  0  0  0  0
   -0.4575    3.3216   -0.8919 H   0  0  0  0  0  0  0  0  0  0  0  0
    0.0008    1.3877   -0.0030 C   0  0  0  0  0  0  0  0  0  0  0  0
   -1.1914    0.6843    0.0013 C   0  0  0  0  0  0  0  0  0  0  0  0
   -2.0580    1.1806    0.0045 H   0  0  0  0  0  0  0  0  0  0  0  0
   -1.1954   -0.6891    0.0000 C   0  0  0  0  0  0  0  0  0  0  0  0
   -2.0734   -1.1893   -0.0004 H   0  0  0  0  0  0  0  0  0  0  0  0
   -0.0008   -1.3807    0.0016 C   0  0  0  0  0  0  0  0  0  0  0  0
   -0.0047   -2.3827    0.0039 H   0  0  0  0  0  0  0  0  0  0  0  0
    1.1954   -0.6893   -0.0000 C   0  0  0  0  0  0  0  0  0  0  0  0
    2.0768   -1.1919    0.0001 H   0  0  0  0  0  0  0  0  0  0  0  0
    1.1914    0.6872   -0.0000 C   0  0  0  0  0  0  0  0  0  0  0  0
    2.0606    1.1881    0.0013 H   0  0  0  0  0  0  0  0  0  0  0  0
  1  5  1  0
  5  8  1  0
  1  2  1  0
  1  3  1  0
  1  4  1  0
  5  6  1  0
  5  7  1  0
  8  9  1  0
  8 10  1  0
  8 11  1  0
 12 16  1  0
 16 17  2  0
 17 19  1  0
 19 21  2  0
 21 23  1  0
 23 25  2  0
 25 16  1  0
 12 13  1  0
 12 14  1  0
 12 15  1  0
 17 18  1  0
 19 20  1  0
 21 22  1  0
 23 24  1  0
 25 26  1  0
M  CHG  1   8   1
M  END
>  <PDB_ID>  (1671) 
pdb3eud

>  <RESIDUE_NAME>  (1671) 
LYS   PHE

>  <FRAG_NAME>  (1671) 
ETAM   MBZ

>  <FRAG_ATOM_NUM>  (1671) 
fragi: 11  fragj: 15

>  <atom.prop.CHAIN_ID>  (1671) 
A A A A A A A A A A A Z Z Z Z Z Z Z Z Z Z Z Z Z Z Z

>  <atom.prop.IS_HEAVY_ATOM>  (1671) 
1 0 0 0 1 0 0 1 0 0 0 1 0 0 0 1 1 0 1 0 1 0 1 0 1 0

>  <DIFUSE_FUNC_ATOM>  (1671) 
n/a

>  <FINAL_SINGLE_POINT_ENERGY>  (1671) 
0

>  <NONCOV_INTER_ENERGY_QM>  (1671) 
0

>  <FF_Energy>  (1671) 
-5.93

>  <QM_Energy>  (1671) 
-12.82

>  <source>  (1671) 
ETAM_MBZ

>  <Index>  (1671) 
16837

$$$$
ETAM-pdb4ack-A-LYS-149:MBZ-pdb4ack-A-PHE-145
     RDKit          3D

 26 25  0  0  0  0  0  0  0  0999 V2000
   -0.1400   -1.1422    3.7560 C   0  0  0  0  0  0  0  0  0  0  0  0
   -0.3766   -1.7200    2.9672 H   0  0  0  0  0  0  0  0  0  0  0  0
   -0.0721   -0.1878    3.4440 H   0  0  0  0  0  0  0  0  0  0  0  0
   -0.9511   -1.2076    4.4811 H   0  0  0  0  0  0  0  0  0  0  0  0
    1.0970   -1.5673    4.3335 C   0  0  0  0  0  0  0  0  0  0  0  0
    1.3139   -1.0326    5.1697 H   0  0  0  0  0  0  0  0  0  0  0  0
    1.0565   -2.5443    4.6098 H   0  0  0  0  0  0  0  0  0  0  0  0
    2.2403   -1.4142    3.3936 N   0  0  0  0  0  4  0  0  0  0  0  0
    2.6236   -0.4959    3.4842 H   0  0  0  0  0  0  0  0  0  0  0  0
    2.9421   -2.0925    3.6111 H   0  0  0  0  0  0  0  0  0  0  0  0
    1.9198   -1.5528    2.4570 H   0  0  0  0  0  0  0  0  0  0  0  0
    0.0164    2.8934   -0.0017 C   0  0  0  0  0  0  0  0  0  0  0  0
   -0.3412    3.2187   -0.8719 H   0  0  0  0  0  0  0  0  0  0  0  0
    0.9509    3.2135    0.1269 H   0  0  0  0  0  0  0  0  0  0  0  0
   -0.5856    3.3571    0.7798 H   0  0  0  0  0  0  0  0  0  0  0  0
    0.0085    1.4240    0.0004 C   0  0  0  0  0  0  0  0  0  0  0  0
   -1.2018    0.6979    0.0068 C   0  0  0  0  0  0  0  0  0  0  0  0
   -2.0659    1.1956    0.0150 H   0  0  0  0  0  0  0  0  0  0  0  0
   -1.2202   -0.7007   -0.0000 C   0  0  0  0  0  0  0  0  0  0  0  0
   -2.1014   -1.1838    0.0094 H   0  0  0  0  0  0  0  0  0  0  0  0
   -0.0206   -1.4230   -0.0182 C   0  0  0  0  0  0  0  0  0  0  0  0
   -0.0258   -2.4102   -0.0440 H   0  0  0  0  0  0  0  0  0  0  0  0
    1.2202   -0.7212    0.0000 C   0  0  0  0  0  0  0  0  0  0  0  0
    2.0856   -1.2070    0.0069 H   0  0  0  0  0  0  0  0  0  0  0  0
    1.2139    0.7230    0.0110 C   0  0  0  0  0  0  0  0  0  0  0  0
    2.0810    1.1968    0.0255 H   0  0  0  0  0  0  0  0  0  0  0  0
  1  5  1  0
  5  8  1  0
  1  2  1  0
  1  3  1  0
  1  4  1  0
  5  6  1  0
  5  7  1  0
  8  9  1  0
  8 10  1  0
  8 11  1  0
 12 16  1  0
 16 17  2  0
 17 19  1  0
 19 21  2  0
 21 23  1  0
 23 25  2  0
 25 16  1  0
 12 13  1  0
 12 14  1  0
 12 15  1  0
 17 18  1  0
 19 20  1  0
 21 22  1  0
 23 24  1  0
 25 26  1  0
M  CHG  1   8   1
M  END
>  <PDB_ID>  (1672) 
pdb4ack

>  <RESIDUE_NAME>  (1672) 
LYS   PHE

>  <FRAG_NAME>  (1672) 
ETAM   MBZ

>  <FRAG_ATOM_NUM>  (1672) 
fragi: 11  fragj: 15

>  <atom.prop.CHAIN_ID>  (1672) 
A A A A A A A A A A A Z Z Z Z Z Z Z Z Z Z Z Z Z Z Z

>  <atom.prop.IS_HEAVY_ATOM>  (1672) 
1 0 0 0 1 0 0 1 0 0 0 1 0 0 0 1 1 0 1 0 1 0 1 0 1 0

>  <DIFUSE_FUNC_ATOM>  (1672) 
n/a

>  <FINAL_SINGLE_POINT_ENERGY>  (1672) 
0

>  <NONCOV_INTER_ENERGY_QM>  (1672) 
0

>  <FF_Energy>  (1672) 
-4.45

>  <QM_Energy>  (1672) 
-10.71

>  <source>  (1672) 
ETAM_MBZ

>  <Index>  (1672) 
16869

$$$$
ETAM-pdb3er6-E-LYS-123:MBZ-pdb3er6-E-PHE-98
     RDKit          3D

 26 25  0  0  0  0  0  0  0  0999 V2000
   -1.0012   -2.5833    3.1639 C   0  0  0  0  0  0  0  0  0  0  0  0
   -1.2744   -3.5205    3.3579 H   0  0  0  0  0  0  0  0  0  0  0  0
   -0.9162   -2.4450    2.1819 H   0  0  0  0  0  0  0  0  0  0  0  0
   -1.7709   -1.9119    3.5447 H   0  0  0  0  0  0  0  0  0  0  0  0
    0.4098   -2.3511    3.8059 C   0  0  0  0  0  0  0  0  0  0  0  0
    0.6229   -1.3975    3.7698 H   0  0  0  0  0  0  0  0  0  0  0  0
    0.4097   -2.7112    4.7148 H   0  0  0  0  0  0  0  0  0  0  0  0
    1.4630   -3.1250    2.9688 N   0  0  0  0  0  4  0  0  0  0  0  0
    1.0762   -4.0068    2.7413 H   0  0  0  0  0  0  0  0  0  0  0  0
    1.6482   -2.5935    2.1549 H   0  0  0  0  0  0  0  0  0  0  0  0
    2.2747   -3.2228    3.5257 H   0  0  0  0  0  0  0  0  0  0  0  0
    0.0105    2.8997   -0.0755 C   0  0  0  0  0  0  0  0  0  0  0  0
    0.8603    3.2172    0.3198 H   0  0  0  0  0  0  0  0  0  0  0  0
   -0.7678    3.2336    0.4370 H   0  0  0  0  0  0  0  0  0  0  0  0
   -0.0580    3.3095   -1.0831 H   0  0  0  0  0  0  0  0  0  0  0  0
    0.0000    1.3933   -0.0116 C   0  0  0  0  0  0  0  0  0  0  0  0
   -1.1871    0.6920   -0.0168 C   0  0  0  0  0  0  0  0  0  0  0  0
   -2.0580    1.1855   -0.0345 H   0  0  0  0  0  0  0  0  0  0  0  0
   -1.2015   -0.6928    0.0000 C   0  0  0  0  0  0  0  0  0  0  0  0
   -2.0774   -1.1845   -0.0131 H   0  0  0  0  0  0  0  0  0  0  0  0
   -0.0032   -1.3859    0.0371 C   0  0  0  0  0  0  0  0  0  0  0  0
   -0.0056   -2.3843    0.0900 H   0  0  0  0  0  0  0  0  0  0  0  0
    1.2015   -0.6921   -0.0000 C   0  0  0  0  0  0  0  0  0  0  0  0
    2.0782   -1.1949   -0.0189 H   0  0  0  0  0  0  0  0  0  0  0  0
    1.1903    0.6855   -0.0087 C   0  0  0  0  0  0  0  0  0  0  0  0
    2.0610    1.1888   -0.0137 H   0  0  0  0  0  0  0  0  0  0  0  0
  1  5  1  0
  5  8  1  0
  1  2  1  0
  1  3  1  0
  1  4  1  0
  5  6  1  0
  5  7  1  0
  8  9  1  0
  8 10  1  0
  8 11  1  0
 12 16  1  0
 16 17  2  0
 17 19  1  0
 19 21  2  0
 21 23  1  0
 23 25  2  0
 25 16  1  0
 12 13  1  0
 12 14  1  0
 12 15  1  0
 17 18  1  0
 19 20  1  0
 21 22  1  0
 23 24  1  0
 25 26  1  0
M  CHG  1   8   1
M  END
>  <PDB_ID>  (1673) 
pdb3er6

>  <RESIDUE_NAME>  (1673) 
LYS   PHE

>  <FRAG_NAME>  (1673) 
ETAM   MBZ

>  <FRAG_ATOM_NUM>  (1673) 
fragi: 11  fragj: 15

>  <atom.prop.CHAIN_ID>  (1673) 
A A A A A A A A A A A Z Z Z Z Z Z Z Z Z Z Z Z Z Z Z

>  <atom.prop.IS_HEAVY_ATOM>  (1673) 
1 0 0 0 1 0 0 1 0 0 0 1 0 0 0 1 1 0 1 0 1 0 1 0 1 0

>  <DIFUSE_FUNC_ATOM>  (1673) 
n/a

>  <FINAL_SINGLE_POINT_ENERGY>  (1673) 
0

>  <NONCOV_INTER_ENERGY_QM>  (1673) 
0

>  <FF_Energy>  (1673) 
-1.97

>  <QM_Energy>  (1673) 
-7.83

>  <source>  (1673) 
ETAM_MBZ

>  <Index>  (1673) 
16898

$$$$
ETAM-pdb3exv-A-LYS-164:MBZ-pdb3exv-A-PHE-235
     RDKit          3D

 26 25  0  0  0  0  0  0  0  0999 V2000
   -0.3575   -1.3045    3.9637 C   0  0  0  0  0  0  0  0  0  0  0  0
   -0.4586   -2.1183    3.3998 H   0  0  0  0  0  0  0  0  0  0  0  0
   -0.5011   -1.5283    4.9223 H   0  0  0  0  0  0  0  0  0  0  0  0
    0.6535   -0.9159    3.8413 H   0  0  0  0  0  0  0  0  0  0  0  0
   -1.4002   -0.2873    3.5400 C   0  0  0  0  0  0  0  0  0  0  0  0
   -1.4631    0.4279    4.2435 H   0  0  0  0  0  0  0  0  0  0  0  0
   -1.1103    0.1375    2.6762 H   0  0  0  0  0  0  0  0  0  0  0  0
   -2.7413   -0.9038    3.3524 N   0  0  0  0  0  4  0  0  0  0  0  0
   -3.1114   -1.1690    4.2420 H   0  0  0  0  0  0  0  0  0  0  0  0
   -3.3532   -0.2428    2.9191 H   0  0  0  0  0  0  0  0  0  0  0  0
   -2.6567   -1.7120    2.7701 H   0  0  0  0  0  0  0  0  0  0  0  0
   -0.0007    2.8959   -0.0186 C   0  0  0  0  0  0  0  0  0  0  0  0
   -0.7797    3.1967   -0.5502 H   0  0  0  0  0  0  0  0  0  0  0  0
    0.8486    3.1980   -0.4288 H   0  0  0  0  0  0  0  0  0  0  0  0
   -0.0748    3.3565    0.9665 H   0  0  0  0  0  0  0  0  0  0  0  0
   -0.0010    1.3976    0.0043 C   0  0  0  0  0  0  0  0  0  0  0  0
   -1.1918    0.6921   -0.0038 C   0  0  0  0  0  0  0  0  0  0  0  0
   -2.0605    1.1822   -0.0137 H   0  0  0  0  0  0  0  0  0  0  0  0
   -1.1978   -0.6952    0.0000 C   0  0  0  0  0  0  0  0  0  0  0  0
   -2.0758   -1.1883    0.0017 H   0  0  0  0  0  0  0  0  0  0  0  0
   -0.0007   -1.3889    0.0035 C   0  0  0  0  0  0  0  0  0  0  0  0
   -0.0050   -2.3891    0.0079 H   0  0  0  0  0  0  0  0  0  0  0  0
    1.1978   -0.6955    0.0000 C   0  0  0  0  0  0  0  0  0  0  0  0
    2.0800   -1.1949    0.0018 H   0  0  0  0  0  0  0  0  0  0  0  0
    1.1935    0.6899   -0.0040 C   0  0  0  0  0  0  0  0  0  0  0  0
    2.0622    1.1886   -0.0136 H   0  0  0  0  0  0  0  0  0  0  0  0
  1  5  1  0
  5  8  1  0
  1  2  1  0
  1  3  1  0
  1  4  1  0
  5  6  1  0
  5  7  1  0
  8  9  1  0
  8 10  1  0
  8 11  1  0
 12 16  1  0
 16 17  2  0
 17 19  1  0
 19 21  2  0
 21 23  1  0
 23 25  2  0
 25 16  1  0
 12 13  1  0
 12 14  1  0
 12 15  1  0
 17 18  1  0
 19 20  1  0
 21 22  1  0
 23 24  1  0
 25 26  1  0
M  CHG  1   8   1
M  END
>  <PDB_ID>  (1674) 
pdb3exv

>  <RESIDUE_NAME>  (1674) 
LYS   PHE

>  <FRAG_NAME>  (1674) 
ETAM   MBZ

>  <FRAG_ATOM_NUM>  (1674) 
fragi: 11  fragj: 15

>  <atom.prop.CHAIN_ID>  (1674) 
A A A A A A A A A A A Z Z Z Z Z Z Z Z Z Z Z Z Z Z Z

>  <atom.prop.IS_HEAVY_ATOM>  (1674) 
1 0 0 0 1 0 0 1 0 0 0 1 0 0 0 1 1 0 1 0 1 0 1 0 1 0

>  <DIFUSE_FUNC_ATOM>  (1674) 
n/a

>  <FINAL_SINGLE_POINT_ENERGY>  (1674) 
0

>  <NONCOV_INTER_ENERGY_QM>  (1674) 
0

>  <FF_Energy>  (1674) 
-4.06

>  <QM_Energy>  (1674) 
-9.17

>  <source>  (1674) 
ETAM_MBZ

>  <Index>  (1674) 
16920

$$$$
ETAM-pdb3eud-F-LYS-80:MBZ-pdb3eud-F-PHE-87
     RDKit          3D

 26 25  0  0  0  0  0  0  0  0999 V2000
   -3.4279   -0.9367   -2.3059 C   0  0  0  0  0  0  0  0  0  0  0  0
   -4.3381   -1.0511   -1.9363 H   0  0  0  0  0  0  0  0  0  0  0  0
   -2.7714   -0.7456   -1.5916 H   0  0  0  0  0  0  0  0  0  0  0  0
   -3.1371   -1.8528   -2.8200 H   0  0  0  0  0  0  0  0  0  0  0  0
   -3.4410    0.2334   -3.2816 C   0  0  0  0  0  0  0  0  0  0  0  0
   -2.5408    0.2841   -3.7389 H   0  0  0  0  0  0  0  0  0  0  0  0
   -4.1364    0.0535   -3.9940 H   0  0  0  0  0  0  0  0  0  0  0  0
   -3.7331    1.5467   -2.6405 N   0  0  0  0  0  4  0  0  0  0  0  0
   -3.2672    2.2725   -3.1457 H   0  0  0  0  0  0  0  0  0  0  0  0
   -4.7193    1.7094   -2.6536 H   0  0  0  0  0  0  0  0  0  0  0  0
   -3.4079    1.5333   -1.6954 H   0  0  0  0  0  0  0  0  0  0  0  0
    0.0007    2.8933   -0.0018 C   0  0  0  0  0  0  0  0  0  0  0  0
   -0.4188    3.1993   -0.8422 H   0  0  0  0  0  0  0  0  0  0  0  0
    0.9375    3.2002    0.0669 H   0  0  0  0  0  0  0  0  0  0  0  0
   -0.5541    3.3353    0.8257 H   0  0  0  0  0  0  0  0  0  0  0  0
   -0.0008    1.3912    0.0018 C   0  0  0  0  0  0  0  0  0  0  0  0
   -1.1886    0.6878   -0.0032 C   0  0  0  0  0  0  0  0  0  0  0  0
   -2.0575    1.1803   -0.0105 H   0  0  0  0  0  0  0  0  0  0  0  0
   -1.1912   -0.6886   -0.0000 C   0  0  0  0  0  0  0  0  0  0  0  0
   -2.0702   -1.1876    0.0048 H   0  0  0  0  0  0  0  0  0  0  0  0
    0.0033   -1.3820   -0.0016 C   0  0  0  0  0  0  0  0  0  0  0  0
   -0.0049   -2.3846   -0.0047 H   0  0  0  0  0  0  0  0  0  0  0  0
    1.1912   -0.6936    0.0000 C   0  0  0  0  0  0  0  0  0  0  0  0
    2.0772   -1.1916    0.0004 H   0  0  0  0  0  0  0  0  0  0  0  0
    1.1861    0.6853    0.0030 C   0  0  0  0  0  0  0  0  0  0  0  0
    2.0582    1.1848    0.0053 H   0  0  0  0  0  0  0  0  0  0  0  0
  1  5  1  0
  5  8  1  0
  1  2  1  0
  1  3  1  0
  1  4  1  0
  5  6  1  0
  5  7  1  0
  8  9  1  0
  8 10  1  0
  8 11  1  0
 12 16  1  0
 16 17  2  0
 17 19  1  0
 19 21  2  0
 21 23  1  0
 23 25  2  0
 25 16  1  0
 12 13  1  0
 12 14  1  0
 12 15  1  0
 17 18  1  0
 19 20  1  0
 21 22  1  0
 23 24  1  0
 25 26  1  0
M  CHG  1   8   1
M  END
>  <PDB_ID>  (1675) 
pdb3eud

>  <RESIDUE_NAME>  (1675) 
LYS   PHE

>  <FRAG_NAME>  (1675) 
ETAM   MBZ

>  <FRAG_ATOM_NUM>  (1675) 
fragi: 11  fragj: 15

>  <atom.prop.CHAIN_ID>  (1675) 
A A A A A A A A A A A Z Z Z Z Z Z Z Z Z Z Z Z Z Z Z

>  <atom.prop.IS_HEAVY_ATOM>  (1675) 
1 0 0 0 1 0 0 1 0 0 0 1 0 0 0 1 1 0 1 0 1 0 1 0 1 0

>  <DIFUSE_FUNC_ATOM>  (1675) 
n/a

>  <FINAL_SINGLE_POINT_ENERGY>  (1675) 
0

>  <NONCOV_INTER_ENERGY_QM>  (1675) 
0

>  <FF_Energy>  (1675) 
6.07

>  <QM_Energy>  (1675) 
-2.34

>  <source>  (1675) 
ETAM_MBZ

>  <Index>  (1675) 
16924

$$$$
ETAM-pdb3exw-A-LYS-164:MBZ-pdb3exw-A-PHE-235
     RDKit          3D

 26 25  0  0  0  0  0  0  0  0999 V2000
    0.2059   -1.2651    3.8397 C   0  0  0  0  0  0  0  0  0  0  0  0
    0.1149   -2.0408    3.2261 H   0  0  0  0  0  0  0  0  0  0  0  0
    0.0930   -1.5510    4.7845 H   0  0  0  0  0  0  0  0  0  0  0  0
    1.1972   -0.8291    3.7160 H   0  0  0  0  0  0  0  0  0  0  0  0
   -0.8903   -0.2554    3.5066 C   0  0  0  0  0  0  0  0  0  0  0  0
   -0.8860    0.4703    4.1995 H   0  0  0  0  0  0  0  0  0  0  0  0
   -0.6972    0.1524    2.6099 H   0  0  0  0  0  0  0  0  0  0  0  0
   -2.2564   -0.8831    3.4690 N   0  0  0  0  0  4  0  0  0  0  0  0
   -2.3428   -1.4206    2.6342 H   0  0  0  0  0  0  0  0  0  0  0  0
   -2.3640   -1.4722    4.2659 H   0  0  0  0  0  0  0  0  0  0  0  0
   -2.9451   -0.1616    3.4824 H   0  0  0  0  0  0  0  0  0  0  0  0
    0.0026    2.8902   -0.0344 C   0  0  0  0  0  0  0  0  0  0  0  0
   -0.8459    3.1899   -0.4474 H   0  0  0  0  0  0  0  0  0  0  0  0
    0.7838    3.1884   -0.5647 H   0  0  0  0  0  0  0  0  0  0  0  0
    0.0740    3.3522    0.9502 H   0  0  0  0  0  0  0  0  0  0  0  0
    0.0034    1.3925   -0.0064 C   0  0  0  0  0  0  0  0  0  0  0  0
   -1.1938    0.6829    0.0002 C   0  0  0  0  0  0  0  0  0  0  0  0
   -2.0584    1.1804    0.0034 H   0  0  0  0  0  0  0  0  0  0  0  0
   -1.1976   -0.6931   -0.0000 C   0  0  0  0  0  0  0  0  0  0  0  0
   -2.0778   -1.1903   -0.0069 H   0  0  0  0  0  0  0  0  0  0  0  0
   -0.0076   -1.3814    0.0114 C   0  0  0  0  0  0  0  0  0  0  0  0
   -0.0049   -2.3841    0.0275 H   0  0  0  0  0  0  0  0  0  0  0  0
    1.1976   -0.6879   -0.0000 C   0  0  0  0  0  0  0  0  0  0  0  0
    2.0747   -1.1975   -0.0030 H   0  0  0  0  0  0  0  0  0  0  0  0
    1.1980    0.6870   -0.0052 C   0  0  0  0  0  0  0  0  0  0  0  0
    2.0647    1.1881   -0.0091 H   0  0  0  0  0  0  0  0  0  0  0  0
  1  5  1  0
  5  8  1  0
  1  2  1  0
  1  3  1  0
  1  4  1  0
  5  6  1  0
  5  7  1  0
  8  9  1  0
  8 10  1  0
  8 11  1  0
 12 16  1  0
 16 17  2  0
 17 19  1  0
 19 21  2  0
 21 23  1  0
 23 25  2  0
 25 16  1  0
 12 13  1  0
 12 14  1  0
 12 15  1  0
 17 18  1  0
 19 20  1  0
 21 22  1  0
 23 24  1  0
 25 26  1  0
M  CHG  1   8   1
M  END
>  <PDB_ID>  (1676) 
pdb3exw

>  <RESIDUE_NAME>  (1676) 
LYS   PHE

>  <FRAG_NAME>  (1676) 
ETAM   MBZ

>  <FRAG_ATOM_NUM>  (1676) 
fragi: 11  fragj: 15

>  <atom.prop.CHAIN_ID>  (1676) 
A A A A A A A A A A A Z Z Z Z Z Z Z Z Z Z Z Z Z Z Z

>  <atom.prop.IS_HEAVY_ATOM>  (1676) 
1 0 0 0 1 0 0 1 0 0 0 1 0 0 0 1 1 0 1 0 1 0 1 0 1 0

>  <DIFUSE_FUNC_ATOM>  (1676) 
n/a

>  <FINAL_SINGLE_POINT_ENERGY>  (1676) 
0

>  <NONCOV_INTER_ENERGY_QM>  (1676) 
0

>  <FF_Energy>  (1676) 
-4.92

>  <QM_Energy>  (1676) 
-10.91

>  <source>  (1676) 
ETAM_MBZ

>  <Index>  (1676) 
16925

$$$$
ETAM-pdb4ad1-A-LYS-379:MBZ-pdb4ad1-A-PHE-375
     RDKit          3D

 26 25  0  0  0  0  0  0  0  0999 V2000
    1.3160   -1.0175    3.9204 C   0  0  0  0  0  0  0  0  0  0  0  0
    1.4449   -0.0813    3.5897 H   0  0  0  0  0  0  0  0  0  0  0  0
    1.7595   -1.1174    4.8125 H   0  0  0  0  0  0  0  0  0  0  0  0
    0.2476   -1.1956    4.0432 H   0  0  0  0  0  0  0  0  0  0  0  0
    1.9518   -1.9712    2.9488 C   0  0  0  0  0  0  0  0  0  0  0  0
    1.7662   -2.9126    3.2323 H   0  0  0  0  0  0  0  0  0  0  0  0
    1.5761   -1.8196    2.0350 H   0  0  0  0  0  0  0  0  0  0  0  0
    3.4338   -1.7674    2.8999 N   0  0  0  0  0  4  0  0  0  0  0  0
    3.7196   -1.6725    1.9480 H   0  0  0  0  0  0  0  0  0  0  0  0
    3.6662   -0.9398    3.4070 H   0  0  0  0  0  0  0  0  0  0  0  0
    3.8861   -2.5547    3.3128 H   0  0  0  0  0  0  0  0  0  0  0  0
    0.0306    2.9240   -0.0442 C   0  0  0  0  0  0  0  0  0  0  0  0
   -0.3936    3.2053   -0.8952 H   0  0  0  0  0  0  0  0  0  0  0  0
    0.9797    3.2095   -0.0119 H   0  0  0  0  0  0  0  0  0  0  0  0
   -0.4951    3.4211    0.7711 H   0  0  0  0  0  0  0  0  0  0  0  0
    0.0032    1.4104    0.0063 C   0  0  0  0  0  0  0  0  0  0  0  0
   -1.2007    0.7019   -0.0045 C   0  0  0  0  0  0  0  0  0  0  0  0
   -2.0650    1.1867   -0.0166 H   0  0  0  0  0  0  0  0  0  0  0  0
   -1.2045   -0.7038    0.0000 C   0  0  0  0  0  0  0  0  0  0  0  0
   -2.0812   -1.1916   -0.0001 H   0  0  0  0  0  0  0  0  0  0  0  0
   -0.0011   -1.3996    0.0070 C   0  0  0  0  0  0  0  0  0  0  0  0
   -0.0045   -2.3984    0.0172 H   0  0  0  0  0  0  0  0  0  0  0  0
    1.2045   -0.7038    0.0000 C   0  0  0  0  0  0  0  0  0  0  0  0
    2.0839   -1.1982    0.0024 H   0  0  0  0  0  0  0  0  0  0  0  0
    1.1986    0.6949   -0.0088 C   0  0  0  0  0  0  0  0  0  0  0  0
    2.0697    1.1873   -0.0267 H   0  0  0  0  0  0  0  0  0  0  0  0
  1  5  1  0
  5  8  1  0
  1  2  1  0
  1  3  1  0
  1  4  1  0
  5  6  1  0
  5  7  1  0
  8  9  1  0
  8 10  1  0
  8 11  1  0
 12 16  1  0
 16 17  2  0
 17 19  1  0
 19 21  2  0
 21 23  1  0
 23 25  2  0
 25 16  1  0
 12 13  1  0
 12 14  1  0
 12 15  1  0
 17 18  1  0
 19 20  1  0
 21 22  1  0
 23 24  1  0
 25 26  1  0
M  CHG  1   8   1
M  END
>  <PDB_ID>  (1677) 
pdb4ad1

>  <RESIDUE_NAME>  (1677) 
LYS   PHE

>  <FRAG_NAME>  (1677) 
ETAM   MBZ

>  <FRAG_ATOM_NUM>  (1677) 
fragi: 11  fragj: 15

>  <atom.prop.CHAIN_ID>  (1677) 
A A A A A A A A A A A Z Z Z Z Z Z Z Z Z Z Z Z Z Z Z

>  <atom.prop.IS_HEAVY_ATOM>  (1677) 
1 0 0 0 1 0 0 1 0 0 0 1 0 0 0 1 1 0 1 0 1 0 1 0 1 0

>  <DIFUSE_FUNC_ATOM>  (1677) 
n/a

>  <FINAL_SINGLE_POINT_ENERGY>  (1677) 
0

>  <NONCOV_INTER_ENERGY_QM>  (1677) 
0

>  <FF_Energy>  (1677) 
0.96

>  <QM_Energy>  (1677) 
-5.85

>  <source>  (1677) 
ETAM_MBZ

>  <Index>  (1677) 
16928

$$$$
ETAM-pdb3ey7-A-LYS-51:MBZ-pdb3ey7-A-PHE-38
     RDKit          3D

 26 25  0  0  0  0  0  0  0  0999 V2000
   -2.4223   -1.3972    5.1098 C   0  0  0  0  0  0  0  0  0  0  0  0
   -2.9171   -1.4570    4.2459 H   0  0  0  0  0  0  0  0  0  0  0  0
   -2.4571   -0.4646    5.4588 H   0  0  0  0  0  0  0  0  0  0  0  0
   -2.8802   -2.0712    5.8338 H   0  0  0  0  0  0  0  0  0  0  0  0
   -0.9640   -1.7556    4.8512 C   0  0  0  0  0  0  0  0  0  0  0  0
   -0.3995   -1.3720    5.5753 H   0  0  0  0  0  0  0  0  0  0  0  0
   -0.8697   -2.7460    4.8295 H   0  0  0  0  0  0  0  0  0  0  0  0
   -0.5166   -1.1930    3.5319 N   0  0  0  0  0  4  0  0  0  0  0  0
   -0.9484   -1.7090    2.7954 H   0  0  0  0  0  0  0  0  0  0  0  0
   -0.7871   -0.2345    3.4799 H   0  0  0  0  0  0  0  0  0  0  0  0
    0.4754   -1.2714    3.4654 H   0  0  0  0  0  0  0  0  0  0  0  0
    0.0167    2.9005    0.0001 C   0  0  0  0  0  0  0  0  0  0  0  0
    0.8735    3.2017    0.3881 H   0  0  0  0  0  0  0  0  0  0  0  0
   -0.7527    3.2117    0.5352 H   0  0  0  0  0  0  0  0  0  0  0  0
   -0.0704    3.3423   -0.9926 H   0  0  0  0  0  0  0  0  0  0  0  0
    0.0076    1.3947   -0.0002 C   0  0  0  0  0  0  0  0  0  0  0  0
   -1.1929    0.6900   -0.0009 C   0  0  0  0  0  0  0  0  0  0  0  0
   -2.0566    1.1867   -0.0031 H   0  0  0  0  0  0  0  0  0  0  0  0
   -1.2010   -0.6935    0.0000 C   0  0  0  0  0  0  0  0  0  0  0  0
   -2.0821   -1.1855    0.0044 H   0  0  0  0  0  0  0  0  0  0  0  0
   -0.0089   -1.3895   -0.0032 C   0  0  0  0  0  0  0  0  0  0  0  0
   -0.0057   -2.3861   -0.0082 H   0  0  0  0  0  0  0  0  0  0  0  0
    1.2010   -0.6872    0.0000 C   0  0  0  0  0  0  0  0  0  0  0  0
    2.0769   -1.1955    0.0007 H   0  0  0  0  0  0  0  0  0  0  0  0
    1.1942    0.6854    0.0043 C   0  0  0  0  0  0  0  0  0  0  0  0
    2.0667    1.1885    0.0102 H   0  0  0  0  0  0  0  0  0  0  0  0
  1  5  1  0
  5  8  1  0
  1  2  1  0
  1  3  1  0
  1  4  1  0
  5  6  1  0
  5  7  1  0
  8  9  1  0
  8 10  1  0
  8 11  1  0
 12 16  1  0
 16 17  2  0
 17 19  1  0
 19 21  2  0
 21 23  1  0
 23 25  2  0
 25 16  1  0
 12 13  1  0
 12 14  1  0
 12 15  1  0
 17 18  1  0
 19 20  1  0
 21 22  1  0
 23 24  1  0
 25 26  1  0
M  CHG  1   8   1
M  END
>  <PDB_ID>  (1678) 
pdb3ey7

>  <RESIDUE_NAME>  (1678) 
LYS   PHE

>  <FRAG_NAME>  (1678) 
ETAM   MBZ

>  <FRAG_ATOM_NUM>  (1678) 
fragi: 11  fragj: 15

>  <atom.prop.CHAIN_ID>  (1678) 
A A A A A A A A A A A Z Z Z Z Z Z Z Z Z Z Z Z Z Z Z

>  <atom.prop.IS_HEAVY_ATOM>  (1678) 
1 0 0 0 1 0 0 1 0 0 0 1 0 0 0 1 1 0 1 0 1 0 1 0 1 0

>  <DIFUSE_FUNC_ATOM>  (1678) 
n/a

>  <FINAL_SINGLE_POINT_ENERGY>  (1678) 
0

>  <NONCOV_INTER_ENERGY_QM>  (1678) 
0

>  <FF_Energy>  (1678) 
-5.76

>  <QM_Energy>  (1678) 
-11.15

>  <source>  (1678) 
ETAM_MBZ

>  <Index>  (1678) 
16934

$$$$
ETAM-pdb3ey5-A-LYS-168:MBZ-pdb3ey5-A-PHE-70
     RDKit          3D

 26 25  0  0  0  0  0  0  0  0999 V2000
    2.8791   -3.6687    0.5217 C   0  0  0  0  0  0  0  0  0  0  0  0
    2.2405   -3.0828    0.0312 H   0  0  0  0  0  0  0  0  0  0  0  0
    2.7804   -3.5382    1.5035 H   0  0  0  0  0  0  0  0  0  0  0  0
    2.6560   -4.7082    0.2814 H   0  0  0  0  0  0  0  0  0  0  0  0
    4.3166   -3.2537    0.1237 C   0  0  0  0  0  0  0  0  0  0  0  0
    4.6371   -2.5471    0.7677 H   0  0  0  0  0  0  0  0  0  0  0  0
    4.9193   -4.0564    0.2116 H   0  0  0  0  0  0  0  0  0  0  0  0
    4.4447   -2.7079   -1.2951 N   0  0  0  0  0  4  0  0  0  0  0  0
    5.1018   -1.9625   -1.2854 H   0  0  0  0  0  0  0  0  0  0  0  0
    4.7593   -3.4425   -1.8863 H   0  0  0  0  0  0  0  0  0  0  0  0
    3.5520   -2.3831   -1.5871 H   0  0  0  0  0  0  0  0  0  0  0  0
   -0.0008    2.9062    0.0267 C   0  0  0  0  0  0  0  0  0  0  0  0
   -0.8839    3.2169   -0.2817 H   0  0  0  0  0  0  0  0  0  0  0  0
    0.7244    3.2205   -0.5631 H   0  0  0  0  0  0  0  0  0  0  0  0
    0.1715    3.3313    1.0154 H   0  0  0  0  0  0  0  0  0  0  0  0
    0.0003    1.4032    0.0135 C   0  0  0  0  0  0  0  0  0  0  0  0
   -1.1898    0.6872    0.0024 C   0  0  0  0  0  0  0  0  0  0  0  0
   -2.0599    1.1754   -0.0049 H   0  0  0  0  0  0  0  0  0  0  0  0
   -1.1879   -0.6970    0.0000 C   0  0  0  0  0  0  0  0  0  0  0  0
   -2.0679   -1.1952   -0.0003 H   0  0  0  0  0  0  0  0  0  0  0  0
    0.0077   -1.3961   -0.0005 C   0  0  0  0  0  0  0  0  0  0  0  0
   -0.0015   -2.3943   -0.0024 H   0  0  0  0  0  0  0  0  0  0  0  0
    1.1879   -0.7007   -0.0000 C   0  0  0  0  0  0  0  0  0  0  0  0
    2.0817   -1.1830    0.0129 H   0  0  0  0  0  0  0  0  0  0  0  0
    1.1818    0.7034   -0.0154 C   0  0  0  0  0  0  0  0  0  0  0  0
    2.0574    1.1879   -0.0486 H   0  0  0  0  0  0  0  0  0  0  0  0
  1  5  1  0
  5  8  1  0
  1  2  1  0
  1  3  1  0
  1  4  1  0
  5  6  1  0
  5  7  1  0
  8  9  1  0
  8 10  1  0
  8 11  1  0
 12 16  1  0
 16 17  2  0
 17 19  1  0
 19 21  2  0
 21 23  1  0
 23 25  2  0
 25 16  1  0
 12 13  1  0
 12 14  1  0
 12 15  1  0
 17 18  1  0
 19 20  1  0
 21 22  1  0
 23 24  1  0
 25 26  1  0
M  CHG  1   8   1
M  END
>  <PDB_ID>  (1679) 
pdb3ey5

>  <RESIDUE_NAME>  (1679) 
LYS   PHE

>  <FRAG_NAME>  (1679) 
ETAM   MBZ

>  <FRAG_ATOM_NUM>  (1679) 
fragi: 11  fragj: 15

>  <atom.prop.CHAIN_ID>  (1679) 
A A A A A A A A A A A Z Z Z Z Z Z Z Z Z Z Z Z Z Z Z

>  <atom.prop.IS_HEAVY_ATOM>  (1679) 
1 0 0 0 1 0 0 1 0 0 0 1 0 0 0 1 1 0 1 0 1 0 1 0 1 0

>  <DIFUSE_FUNC_ATOM>  (1679) 
n/a

>  <FINAL_SINGLE_POINT_ENERGY>  (1679) 
0

>  <NONCOV_INTER_ENERGY_QM>  (1679) 
0

>  <FF_Energy>  (1679) 
2.68

>  <QM_Energy>  (1679) 
-2.57

>  <source>  (1679) 
ETAM_MBZ

>  <Index>  (1679) 
16938

$$$$
ETAM-pdb3exw-B-LYS-164:MBZ-pdb3exw-B-PHE-235
     RDKit          3D

 26 25  0  0  0  0  0  0  0  0999 V2000
    0.2209   -1.2436    3.8456 C   0  0  0  0  0  0  0  0  0  0  0  0
    0.1554   -2.0263    3.2285 H   0  0  0  0  0  0  0  0  0  0  0  0
    0.1111   -1.5496    4.7901 H   0  0  0  0  0  0  0  0  0  0  0  0
    1.2070   -0.7926    3.7354 H   0  0  0  0  0  0  0  0  0  0  0  0
   -0.8805   -0.2716    3.5178 C   0  0  0  0  0  0  0  0  0  0  0  0
   -0.8890    0.4637    4.2024 H   0  0  0  0  0  0  0  0  0  0  0  0
   -0.7091    0.1328    2.6141 H   0  0  0  0  0  0  0  0  0  0  0  0
   -2.2108   -0.9351    3.5049 N   0  0  0  0  0  4  0  0  0  0  0  0
   -2.7713   -0.5429    2.7750 H   0  0  0  0  0  0  0  0  0  0  0  0
   -2.0923   -1.9148    3.3449 H   0  0  0  0  0  0  0  0  0  0  0  0
   -2.6617   -0.7926    4.3859 H   0  0  0  0  0  0  0  0  0  0  0  0
    0.0048    2.8987   -0.0191 C   0  0  0  0  0  0  0  0  0  0  0  0
   -0.8391    3.1988   -0.4392 H   0  0  0  0  0  0  0  0  0  0  0  0
    0.7906    3.1914   -0.5427 H   0  0  0  0  0  0  0  0  0  0  0  0
    0.0696    3.3605    0.9661 H   0  0  0  0  0  0  0  0  0  0  0  0
   -0.0002    1.3930    0.0089 C   0  0  0  0  0  0  0  0  0  0  0  0
   -1.1930    0.6869   -0.0106 C   0  0  0  0  0  0  0  0  0  0  0  0
   -2.0598    1.1788   -0.0340 H   0  0  0  0  0  0  0  0  0  0  0  0
   -1.1952   -0.6959    0.0000 C   0  0  0  0  0  0  0  0  0  0  0  0
   -2.0723   -1.1925    0.0092 H   0  0  0  0  0  0  0  0  0  0  0  0
    0.0003   -1.3822   -0.0002 C   0  0  0  0  0  0  0  0  0  0  0  0
    0.0014   -2.3840   -0.0013 H   0  0  0  0  0  0  0  0  0  0  0  0
    1.1952   -0.6865   -0.0000 C   0  0  0  0  0  0  0  0  0  0  0  0
    2.0776   -1.1928    0.0002 H   0  0  0  0  0  0  0  0  0  0  0  0
    1.1929    0.6848    0.0019 C   0  0  0  0  0  0  0  0  0  0  0  0
    2.0608    1.1888   -0.0022 H   0  0  0  0  0  0  0  0  0  0  0  0
  1  5  1  0
  5  8  1  0
  1  2  1  0
  1  3  1  0
  1  4  1  0
  5  6  1  0
  5  7  1  0
  8  9  1  0
  8 10  1  0
  8 11  1  0
 12 16  1  0
 16 17  2  0
 17 19  1  0
 19 21  2  0
 21 23  1  0
 23 25  2  0
 25 16  1  0
 12 13  1  0
 12 14  1  0
 12 15  1  0
 17 18  1  0
 19 20  1  0
 21 22  1  0
 23 24  1  0
 25 26  1  0
M  CHG  1   8   1
M  END
>  <PDB_ID>  (1680) 
pdb3exw

>  <RESIDUE_NAME>  (1680) 
LYS   PHE

>  <FRAG_NAME>  (1680) 
ETAM   MBZ

>  <FRAG_ATOM_NUM>  (1680) 
fragi: 11  fragj: 15

>  <atom.prop.CHAIN_ID>  (1680) 
A A A A A A A A A A A Z Z Z Z Z Z Z Z Z Z Z Z Z Z Z

>  <atom.prop.IS_HEAVY_ATOM>  (1680) 
1 0 0 0 1 0 0 1 0 0 0 1 0 0 0 1 1 0 1 0 1 0 1 0 1 0

>  <DIFUSE_FUNC_ATOM>  (1680) 
n/a

>  <FINAL_SINGLE_POINT_ENERGY>  (1680) 
0

>  <NONCOV_INTER_ENERGY_QM>  (1680) 
0

>  <FF_Energy>  (1680) 
-4.95

>  <QM_Energy>  (1680) 
-10.65

>  <source>  (1680) 
ETAM_MBZ

>  <Index>  (1680) 
16952

$$$$
ETAM-pdb3ey7-B-LYS-51:MBZ-pdb3ey7-B-PHE-38
     RDKit          3D

 26 25  0  0  0  0  0  0  0  0999 V2000
   -2.2527   -1.1243    5.0483 C   0  0  0  0  0  0  0  0  0  0  0  0
   -2.7847   -1.1624    4.2141 H   0  0  0  0  0  0  0  0  0  0  0  0
   -2.2625   -0.2136    5.4369 H   0  0  0  0  0  0  0  0  0  0  0  0
   -2.6849   -1.8176    5.7700 H   0  0  0  0  0  0  0  0  0  0  0  0
   -0.8079   -1.5026    4.7251 C   0  0  0  0  0  0  0  0  0  0  0  0
   -0.2162   -1.1632    5.4579 H   0  0  0  0  0  0  0  0  0  0  0  0
   -0.7401   -2.5007    4.6802 H   0  0  0  0  0  0  0  0  0  0  0  0
   -0.3768   -0.9191    3.4316 N   0  0  0  0  0  4  0  0  0  0  0  0
   -0.4538    0.0775    3.4721 H   0  0  0  0  0  0  0  0  0  0  0  0
    0.5743   -1.1717    3.2511 H   0  0  0  0  0  0  0  0  0  0  0  0
   -0.9587   -1.2684    2.6972 H   0  0  0  0  0  0  0  0  0  0  0  0
    0.0046    2.9019    0.0153 C   0  0  0  0  0  0  0  0  0  0  0  0
    0.8517    3.2031    0.4285 H   0  0  0  0  0  0  0  0  0  0  0  0
   -0.7777    3.2053    0.5390 H   0  0  0  0  0  0  0  0  0  0  0  0
   -0.0618    3.3573   -0.9728 H   0  0  0  0  0  0  0  0  0  0  0  0
    0.0015    1.3976    0.0011 C   0  0  0  0  0  0  0  0  0  0  0  0
   -1.1965    0.6935    0.0031 C   0  0  0  0  0  0  0  0  0  0  0  0
   -2.0599    1.1889    0.0052 H   0  0  0  0  0  0  0  0  0  0  0  0
   -1.1973   -0.6843    0.0000 C   0  0  0  0  0  0  0  0  0  0  0  0
   -2.0762   -1.1850    0.0015 H   0  0  0  0  0  0  0  0  0  0  0  0
    0.0014   -1.3884   -0.0038 C   0  0  0  0  0  0  0  0  0  0  0  0
   -0.0129   -2.3875   -0.0097 H   0  0  0  0  0  0  0  0  0  0  0  0
    1.1973   -0.7017    0.0000 C   0  0  0  0  0  0  0  0  0  0  0  0
    2.0787   -1.2008    0.0045 H   0  0  0  0  0  0  0  0  0  0  0  0
    1.1937    0.6833   -0.0005 C   0  0  0  0  0  0  0  0  0  0  0  0
    2.0641    1.1808   -0.0026 H   0  0  0  0  0  0  0  0  0  0  0  0
  1  5  1  0
  5  8  1  0
  1  2  1  0
  1  3  1  0
  1  4  1  0
  5  6  1  0
  5  7  1  0
  8  9  1  0
  8 10  1  0
  8 11  1  0
 12 16  1  0
 16 17  2  0
 17 19  1  0
 19 21  2  0
 21 23  1  0
 23 25  2  0
 25 16  1  0
 12 13  1  0
 12 14  1  0
 12 15  1  0
 17 18  1  0
 19 20  1  0
 21 22  1  0
 23 24  1  0
 25 26  1  0
M  CHG  1   8   1
M  END
>  <PDB_ID>  (1681) 
pdb3ey7

>  <RESIDUE_NAME>  (1681) 
LYS   PHE

>  <FRAG_NAME>  (1681) 
ETAM   MBZ

>  <FRAG_ATOM_NUM>  (1681) 
fragi: 11  fragj: 15

>  <atom.prop.CHAIN_ID>  (1681) 
A A A A A A A A A A A Z Z Z Z Z Z Z Z Z Z Z Z Z Z Z

>  <atom.prop.IS_HEAVY_ATOM>  (1681) 
1 0 0 0 1 0 0 1 0 0 0 1 0 0 0 1 1 0 1 0 1 0 1 0 1 0

>  <DIFUSE_FUNC_ATOM>  (1681) 
n/a

>  <FINAL_SINGLE_POINT_ENERGY>  (1681) 
0

>  <NONCOV_INTER_ENERGY_QM>  (1681) 
0

>  <FF_Energy>  (1681) 
-6.76

>  <QM_Energy>  (1681) 
-12.78

>  <source>  (1681) 
ETAM_MBZ

>  <Index>  (1681) 
16957

$$$$
ETAM-pdb4aef-A-LYS-362:MBZ-pdb4aef-A-PHE-346
     RDKit          3D

 26 25  0  0  0  0  0  0  0  0999 V2000
   -5.7948   -3.8618    1.3116 C   0  0  0  0  0  0  0  0  0  0  0  0
   -5.5869   -3.9702    2.2774 H   0  0  0  0  0  0  0  0  0  0  0  0
   -6.4003   -4.5864    1.0016 H   0  0  0  0  0  0  0  0  0  0  0  0
   -6.2866   -2.9006    1.1620 H   0  0  0  0  0  0  0  0  0  0  0  0
   -4.4911   -3.9496    0.5231 C   0  0  0  0  0  0  0  0  0  0  0  0
   -4.0850   -4.8578    0.6693 H   0  0  0  0  0  0  0  0  0  0  0  0
   -4.6974   -3.8466   -0.4563 H   0  0  0  0  0  0  0  0  0  0  0  0
   -3.5069   -2.9040    0.9269 N   0  0  0  0  0  4  0  0  0  0  0  0
   -2.8256   -2.7948    0.2039 H   0  0  0  0  0  0  0  0  0  0  0  0
   -3.9855   -2.0390    1.0718 H   0  0  0  0  0  0  0  0  0  0  0  0
   -3.0563   -3.1838    1.7736 H   0  0  0  0  0  0  0  0  0  0  0  0
    0.0057    2.9055    0.0107 C   0  0  0  0  0  0  0  0  0  0  0  0
    0.9240    3.2097   -0.1918 H   0  0  0  0  0  0  0  0  0  0  0  0
   -0.2839    3.2061    0.9062 H   0  0  0  0  0  0  0  0  0  0  0  0
   -0.6641    3.3522   -0.7241 H   0  0  0  0  0  0  0  0  0  0  0  0
    0.0012    1.4012    0.0007 C   0  0  0  0  0  0  0  0  0  0  0  0
   -1.1967    0.6922    0.0001 C   0  0  0  0  0  0  0  0  0  0  0  0
   -2.0625    1.1822   -0.0015 H   0  0  0  0  0  0  0  0  0  0  0  0
   -1.2019   -0.7001   -0.0000 C   0  0  0  0  0  0  0  0  0  0  0  0
   -2.0792   -1.1916    0.0020 H   0  0  0  0  0  0  0  0  0  0  0  0
   -0.0024   -1.3935   -0.0007 C   0  0  0  0  0  0  0  0  0  0  0  0
   -0.0022   -2.3930   -0.0025 H   0  0  0  0  0  0  0  0  0  0  0  0
    1.2019   -0.6949    0.0000 C   0  0  0  0  0  0  0  0  0  0  0  0
    2.0821   -1.1947    0.0020 H   0  0  0  0  0  0  0  0  0  0  0  0
    1.1979    0.6950   -0.0001 C   0  0  0  0  0  0  0  0  0  0  0  0
    2.0655    1.1921   -0.0013 H   0  0  0  0  0  0  0  0  0  0  0  0
  1  5  1  0
  5  8  1  0
  1  2  1  0
  1  3  1  0
  1  4  1  0
  5  6  1  0
  5  7  1  0
  8  9  1  0
  8 10  1  0
  8 11  1  0
 12 16  1  0
 16 17  2  0
 17 19  1  0
 19 21  2  0
 21 23  1  0
 23 25  2  0
 25 16  1  0
 12 13  1  0
 12 14  1  0
 12 15  1  0
 17 18  1  0
 19 20  1  0
 21 22  1  0
 23 24  1  0
 25 26  1  0
M  CHG  1   8   1
M  END
>  <PDB_ID>  (1682) 
pdb4aef

>  <RESIDUE_NAME>  (1682) 
LYS   PHE

>  <FRAG_NAME>  (1682) 
ETAM   MBZ

>  <FRAG_ATOM_NUM>  (1682) 
fragi: 11  fragj: 15

>  <atom.prop.CHAIN_ID>  (1682) 
A A A A A A A A A A A Z Z Z Z Z Z Z Z Z Z Z Z Z Z Z

>  <atom.prop.IS_HEAVY_ATOM>  (1682) 
1 0 0 0 1 0 0 1 0 0 0 1 0 0 0 1 1 0 1 0 1 0 1 0 1 0

>  <DIFUSE_FUNC_ATOM>  (1682) 
n/a

>  <FINAL_SINGLE_POINT_ENERGY>  (1682) 
0

>  <NONCOV_INTER_ENERGY_QM>  (1682) 
0

>  <FF_Energy>  (1682) 
3.33

>  <QM_Energy>  (1682) 
-2.25

>  <source>  (1682) 
ETAM_MBZ

>  <Index>  (1682) 
16963

$$$$
ETAM-pdb4aef-A-LYS-403:MBZ-pdb4aef-A-PHE-399
     RDKit          3D

 26 25  0  0  0  0  0  0  0  0999 V2000
    2.0484   -1.3612    4.2903 C   0  0  0  0  0  0  0  0  0  0  0  0
    2.3131   -0.6888    3.6128 H   0  0  0  0  0  0  0  0  0  0  0  0
    2.8432   -1.7399    4.7446 H   0  0  0  0  0  0  0  0  0  0  0  0
    1.4080   -0.8838    5.0320 H   0  0  0  0  0  0  0  0  0  0  0  0
    1.3058   -2.4914    3.5896 C   0  0  0  0  0  0  0  0  0  0  0  0
    1.8266   -2.7692    2.7817 H   0  0  0  0  0  0  0  0  0  0  0  0
    1.2290   -3.2678    4.2173 H   0  0  0  0  0  0  0  0  0  0  0  0
   -0.0587   -2.0637    3.1705 N   0  0  0  0  0  4  0  0  0  0  0  0
    0.0109   -1.2429    2.6050 H   0  0  0  0  0  0  0  0  0  0  0  0
   -0.4887   -2.7969    2.6459 H   0  0  0  0  0  0  0  0  0  0  0  0
   -0.6076   -1.8658    3.9825 H   0  0  0  0  0  0  0  0  0  0  0  0
    0.0025    2.9141   -0.0409 C   0  0  0  0  0  0  0  0  0  0  0  0
   -0.6775    3.2017   -0.6995 H   0  0  0  0  0  0  0  0  0  0  0  0
    0.9081    3.2081   -0.3088 H   0  0  0  0  0  0  0  0  0  0  0  0
   -0.2349    3.3833    0.9139 H   0  0  0  0  0  0  0  0  0  0  0  0
   -0.0003    1.4073   -0.0008 C   0  0  0  0  0  0  0  0  0  0  0  0
   -1.2013    0.6950    0.0008 C   0  0  0  0  0  0  0  0  0  0  0  0
   -2.0669    1.1841    0.0013 H   0  0  0  0  0  0  0  0  0  0  0  0
   -1.2060   -0.7012   -0.0000 C   0  0  0  0  0  0  0  0  0  0  0  0
   -2.0791   -1.1958    0.0018 H   0  0  0  0  0  0  0  0  0  0  0  0
    0.0049   -1.4014   -0.0012 C   0  0  0  0  0  0  0  0  0  0  0  0
   -0.0001   -2.3970   -0.0035 H   0  0  0  0  0  0  0  0  0  0  0  0
    1.2060   -0.6993   -0.0000 C   0  0  0  0  0  0  0  0  0  0  0  0
    2.0889   -1.1909    0.0017 H   0  0  0  0  0  0  0  0  0  0  0  0
    1.1968    0.6996    0.0012 C   0  0  0  0  0  0  0  0  0  0  0  0
    2.0658    1.1942    0.0030 H   0  0  0  0  0  0  0  0  0  0  0  0
  1  5  1  0
  5  8  1  0
  1  2  1  0
  1  3  1  0
  1  4  1  0
  5  6  1  0
  5  7  1  0
  8  9  1  0
  8 10  1  0
  8 11  1  0
 12 16  1  0
 16 17  2  0
 17 19  1  0
 19 21  2  0
 21 23  1  0
 23 25  2  0
 25 16  1  0
 12 13  1  0
 12 14  1  0
 12 15  1  0
 17 18  1  0
 19 20  1  0
 21 22  1  0
 23 24  1  0
 25 26  1  0
M  CHG  1   8   1
M  END
>  <PDB_ID>  (1683) 
pdb4aef

>  <RESIDUE_NAME>  (1683) 
LYS   PHE

>  <FRAG_NAME>  (1683) 
ETAM   MBZ

>  <FRAG_ATOM_NUM>  (1683) 
fragi: 11  fragj: 15

>  <atom.prop.CHAIN_ID>  (1683) 
A A A A A A A A A A A Z Z Z Z Z Z Z Z Z Z Z Z Z Z Z

>  <atom.prop.IS_HEAVY_ATOM>  (1683) 
1 0 0 0 1 0 0 1 0 0 0 1 0 0 0 1 1 0 1 0 1 0 1 0 1 0

>  <DIFUSE_FUNC_ATOM>  (1683) 
n/a

>  <FINAL_SINGLE_POINT_ENERGY>  (1683) 
0

>  <NONCOV_INTER_ENERGY_QM>  (1683) 
0

>  <FF_Energy>  (1683) 
-5.52

>  <QM_Energy>  (1683) 
-12.69

>  <source>  (1683) 
ETAM_MBZ

>  <Index>  (1683) 
16964

$$$$
ETAM-pdb4aef-B-LYS-403:MBZ-pdb4aef-B-PHE-399
     RDKit          3D

 26 25  0  0  0  0  0  0  0  0999 V2000
    1.9844   -1.6262    4.3152 C   0  0  0  0  0  0  0  0  0  0  0  0
    2.2548   -0.9515    3.6434 H   0  0  0  0  0  0  0  0  0  0  0  0
    2.7739   -2.0442    4.7409 H   0  0  0  0  0  0  0  0  0  0  0  0
    1.3780   -1.1433    5.0816 H   0  0  0  0  0  0  0  0  0  0  0  0
    1.1790   -2.7102    3.6177 C   0  0  0  0  0  0  0  0  0  0  0  0
    1.6549   -2.9837    2.7824 H   0  0  0  0  0  0  0  0  0  0  0  0
    1.0951   -3.4978    4.2272 H   0  0  0  0  0  0  0  0  0  0  0  0
   -0.1841   -2.2160    3.2654 N   0  0  0  0  0  4  0  0  0  0  0  0
   -0.8639   -2.8879    3.5562 H   0  0  0  0  0  0  0  0  0  0  0  0
   -0.3499   -1.3469    3.7295 H   0  0  0  0  0  0  0  0  0  0  0  0
   -0.2428   -2.0859    2.2762 H   0  0  0  0  0  0  0  0  0  0  0  0
    0.0020    2.9115   -0.0024 C   0  0  0  0  0  0  0  0  0  0  0  0
   -0.7048    3.2173   -0.6225 H   0  0  0  0  0  0  0  0  0  0  0  0
    0.8956    3.2142   -0.2975 H   0  0  0  0  0  0  0  0  0  0  0  0
   -0.1953    3.3548    0.9736 H   0  0  0  0  0  0  0  0  0  0  0  0
   -0.0013    1.4061    0.0000 C   0  0  0  0  0  0  0  0  0  0  0  0
   -1.2008    0.6966   -0.0001 C   0  0  0  0  0  0  0  0  0  0  0  0
   -2.0668    1.1845   -0.0018 H   0  0  0  0  0  0  0  0  0  0  0  0
   -1.2057   -0.7011   -0.0000 C   0  0  0  0  0  0  0  0  0  0  0  0
   -2.0780   -1.1956    0.0022 H   0  0  0  0  0  0  0  0  0  0  0  0
    0.0064   -1.4009   -0.0007 C   0  0  0  0  0  0  0  0  0  0  0  0
    0.0018   -2.3965   -0.0025 H   0  0  0  0  0  0  0  0  0  0  0  0
    1.2057   -0.6978    0.0000 C   0  0  0  0  0  0  0  0  0  0  0  0
    2.0893   -1.1908    0.0011 H   0  0  0  0  0  0  0  0  0  0  0  0
    1.1957    0.6971    0.0008 C   0  0  0  0  0  0  0  0  0  0  0  0
    2.0640    1.1941    0.0006 H   0  0  0  0  0  0  0  0  0  0  0  0
  1  5  1  0
  5  8  1  0
  1  2  1  0
  1  3  1  0
  1  4  1  0
  5  6  1  0
  5  7  1  0
  8  9  1  0
  8 10  1  0
  8 11  1  0
 12 16  1  0
 16 17  2  0
 17 19  1  0
 19 21  2  0
 21 23  1  0
 23 25  2  0
 25 16  1  0
 12 13  1  0
 12 14  1  0
 12 15  1  0
 17 18  1  0
 19 20  1  0
 21 22  1  0
 23 24  1  0
 25 26  1  0
M  CHG  1   8   1
M  END
>  <PDB_ID>  (1684) 
pdb4aef

>  <RESIDUE_NAME>  (1684) 
LYS   PHE

>  <FRAG_NAME>  (1684) 
ETAM   MBZ

>  <FRAG_ATOM_NUM>  (1684) 
fragi: 11  fragj: 15

>  <atom.prop.CHAIN_ID>  (1684) 
A A A A A A A A A A A Z Z Z Z Z Z Z Z Z Z Z Z Z Z Z

>  <atom.prop.IS_HEAVY_ATOM>  (1684) 
1 0 0 0 1 0 0 1 0 0 0 1 0 0 0 1 1 0 1 0 1 0 1 0 1 0

>  <DIFUSE_FUNC_ATOM>  (1684) 
n/a

>  <FINAL_SINGLE_POINT_ENERGY>  (1684) 
0

>  <NONCOV_INTER_ENERGY_QM>  (1684) 
0

>  <FF_Energy>  (1684) 
-4.93

>  <QM_Energy>  (1684) 
-12.5

>  <source>  (1684) 
ETAM_MBZ

>  <Index>  (1684) 
16967

$$$$
ETAM-pdb3ezo-A-LYS-276:MBZ-pdb3ezo-A-PHE-295
     RDKit          3D

 26 25  0  0  0  0  0  0  0  0999 V2000
    2.0558   -2.1618   -4.4595 C   0  0  0  0  0  0  0  0  0  0  0  0
    2.3696   -2.7697   -5.1817 H   0  0  0  0  0  0  0  0  0  0  0  0
    2.5464   -2.3456   -3.6143 H   0  0  0  0  0  0  0  0  0  0  0  0
    2.2055   -1.1243   -4.7581 H   0  0  0  0  0  0  0  0  0  0  0  0
    0.5381   -2.5069   -4.1947 C   0  0  0  0  0  0  0  0  0  0  0  0
    0.1386   -2.7851   -5.0807 H   0  0  0  0  0  0  0  0  0  0  0  0
    0.5195   -3.3132   -3.5840 H   0  0  0  0  0  0  0  0  0  0  0  0
   -0.2557   -1.4053   -3.6045 N   0  0  0  0  0  4  0  0  0  0  0  0
    0.3196   -0.5925   -3.5055 H   0  0  0  0  0  0  0  0  0  0  0  0
   -1.0302   -1.1920   -4.2023 H   0  0  0  0  0  0  0  0  0  0  0  0
   -0.5972   -1.6824   -2.7053 H   0  0  0  0  0  0  0  0  0  0  0  0
   -0.0034    2.8733    0.0112 C   0  0  0  0  0  0  0  0  0  0  0  0
   -0.7607    3.1901   -0.5413 H   0  0  0  0  0  0  0  0  0  0  0  0
    0.8602    3.2018   -0.3443 H   0  0  0  0  0  0  0  0  0  0  0  0
   -0.1272    3.3055    1.0042 H   0  0  0  0  0  0  0  0  0  0  0  0
    0.0076    1.3995    0.0076 C   0  0  0  0  0  0  0  0  0  0  0  0
   -1.1865    0.6862   -0.0066 C   0  0  0  0  0  0  0  0  0  0  0  0
   -2.0559    1.1803   -0.0234 H   0  0  0  0  0  0  0  0  0  0  0  0
   -1.2019   -0.7043   -0.0000 C   0  0  0  0  0  0  0  0  0  0  0  0
   -2.0882   -1.1846    0.0067 H   0  0  0  0  0  0  0  0  0  0  0  0
   -0.0241   -1.3895   -0.0013 C   0  0  0  0  0  0  0  0  0  0  0  0
   -0.0117   -2.3926   -0.0039 H   0  0  0  0  0  0  0  0  0  0  0  0
    1.2019   -0.6944   -0.0000 C   0  0  0  0  0  0  0  0  0  0  0  0
    2.0699   -1.2006    0.0021 H   0  0  0  0  0  0  0  0  0  0  0  0
    1.2030    0.7025    0.0003 C   0  0  0  0  0  0  0  0  0  0  0  0
    2.0696    1.1926   -0.0060 H   0  0  0  0  0  0  0  0  0  0  0  0
  1  5  1  0
  5  8  1  0
  1  2  1  0
  1  3  1  0
  1  4  1  0
  5  6  1  0
  5  7  1  0
  8  9  1  0
  8 10  1  0
  8 11  1  0
 12 16  1  0
 16 17  2  0
 17 19  1  0
 19 21  2  0
 21 23  1  0
 23 25  2  0
 25 16  1  0
 12 13  1  0
 12 14  1  0
 12 15  1  0
 17 18  1  0
 19 20  1  0
 21 22  1  0
 23 24  1  0
 25 26  1  0
M  CHG  1   8   1
M  END
>  <PDB_ID>  (1685) 
pdb3ezo

>  <RESIDUE_NAME>  (1685) 
LYS   PHE

>  <FRAG_NAME>  (1685) 
ETAM   MBZ

>  <FRAG_ATOM_NUM>  (1685) 
fragi: 11  fragj: 15

>  <atom.prop.CHAIN_ID>  (1685) 
A A A A A A A A A A A Z Z Z Z Z Z Z Z Z Z Z Z Z Z Z

>  <atom.prop.IS_HEAVY_ATOM>  (1685) 
1 0 0 0 1 0 0 1 0 0 0 1 0 0 0 1 1 0 1 0 1 0 1 0 1 0

>  <DIFUSE_FUNC_ATOM>  (1685) 
n/a

>  <FINAL_SINGLE_POINT_ENERGY>  (1685) 
0

>  <NONCOV_INTER_ENERGY_QM>  (1685) 
0

>  <FF_Energy>  (1685) 
-5.76

>  <QM_Energy>  (1685) 
-11.71

>  <source>  (1685) 
ETAM_MBZ

>  <Index>  (1685) 
16978

$$$$
ETAM-pdb4a4z-A-LYS-470:MBZ-pdb4a4z-A-PHE-440
     RDKit          3D

 26 25  0  0  0  0  0  0  0  0999 V2000
   -2.6277   -2.3397   -3.7740 C   0  0  0  0  0  0  0  0  0  0  0  0
   -3.2435   -2.5822   -3.0302 H   0  0  0  0  0  0  0  0  0  0  0  0
   -2.6214   -3.0592   -4.4625 H   0  0  0  0  0  0  0  0  0  0  0  0
   -2.9762   -1.4142   -4.2325 H   0  0  0  0  0  0  0  0  0  0  0  0
   -1.2248   -2.1930   -3.2140 C   0  0  0  0  0  0  0  0  0  0  0  0
   -0.5797   -2.0840   -3.9742 H   0  0  0  0  0  0  0  0  0  0  0  0
   -1.1874   -1.3730   -2.6366 H   0  0  0  0  0  0  0  0  0  0  0  0
   -0.8264   -3.3778   -2.4033 N   0  0  0  0  0  4  0  0  0  0  0  0
   -0.1283   -3.1065   -1.7425 H   0  0  0  0  0  0  0  0  0  0  0  0
   -1.6262   -3.7319   -1.9197 H   0  0  0  0  0  0  0  0  0  0  0  0
   -0.4601   -4.0842   -3.0077 H   0  0  0  0  0  0  0  0  0  0  0  0
   -0.0034    2.8961    0.0029 C   0  0  0  0  0  0  0  0  0  0  0  0
    0.9068    3.2046    0.2372 H   0  0  0  0  0  0  0  0  0  0  0  0
   -0.6675    3.1992    0.6698 H   0  0  0  0  0  0  0  0  0  0  0  0
   -0.2690    3.3405   -0.9564 H   0  0  0  0  0  0  0  0  0  0  0  0
    0.0002    1.3943   -0.0019 C   0  0  0  0  0  0  0  0  0  0  0  0
   -1.1916    0.6873    0.0021 C   0  0  0  0  0  0  0  0  0  0  0  0
   -2.0590    1.1793    0.0055 H   0  0  0  0  0  0  0  0  0  0  0  0
   -1.1940   -0.6940    0.0000 C   0  0  0  0  0  0  0  0  0  0  0  0
   -2.0727   -1.1906    0.0003 H   0  0  0  0  0  0  0  0  0  0  0  0
   -0.0002   -1.3842   -0.0003 C   0  0  0  0  0  0  0  0  0  0  0  0
   -0.0036   -2.3869   -0.0014 H   0  0  0  0  0  0  0  0  0  0  0  0
    1.1940   -0.6926   -0.0000 C   0  0  0  0  0  0  0  0  0  0  0  0
    2.0775   -1.1933    0.0018 H   0  0  0  0  0  0  0  0  0  0  0  0
    1.1917    0.6892    0.0001 C   0  0  0  0  0  0  0  0  0  0  0  0
    2.0615    1.1866    0.0010 H   0  0  0  0  0  0  0  0  0  0  0  0
  1  5  1  0
  5  8  1  0
  1  2  1  0
  1  3  1  0
  1  4  1  0
  5  6  1  0
  5  7  1  0
  8  9  1  0
  8 10  1  0
  8 11  1  0
 12 16  1  0
 16 17  2  0
 17 19  1  0
 19 21  2  0
 21 23  1  0
 23 25  2  0
 25 16  1  0
 12 13  1  0
 12 14  1  0
 12 15  1  0
 17 18  1  0
 19 20  1  0
 21 22  1  0
 23 24  1  0
 25 26  1  0
M  CHG  1   8   1
M  END
>  <PDB_ID>  (1686) 
pdb4a4z

>  <RESIDUE_NAME>  (1686) 
LYS   PHE

>  <FRAG_NAME>  (1686) 
ETAM   MBZ

>  <FRAG_ATOM_NUM>  (1686) 
fragi: 11  fragj: 15

>  <atom.prop.CHAIN_ID>  (1686) 
A A A A A A A A A A A Z Z Z Z Z Z Z Z Z Z Z Z Z Z Z

>  <atom.prop.IS_HEAVY_ATOM>  (1686) 
1 0 0 0 1 0 0 1 0 0 0 1 0 0 0 1 1 0 1 0 1 0 1 0 1 0

>  <DIFUSE_FUNC_ATOM>  (1686) 
n/a

>  <FINAL_SINGLE_POINT_ENERGY>  (1686) 
0

>  <NONCOV_INTER_ENERGY_QM>  (1686) 
0

>  <FF_Energy>  (1686) 
-1.28

>  <QM_Energy>  (1686) 
-8.54

>  <source>  (1686) 
ETAM_MBZ

>  <Index>  (1686) 
16979

$$$$
ETAM-pdb3f00-A-LYS-192:MBZ-pdb3f00-A-PHE-184
     RDKit          3D

 26 25  0  0  0  0  0  0  0  0999 V2000
   -1.7583    0.4055    3.6304 C   0  0  0  0  0  0  0  0  0  0  0  0
   -2.5150    0.3647    4.2750 H   0  0  0  0  0  0  0  0  0  0  0  0
   -2.0486    0.0869    2.7340 H   0  0  0  0  0  0  0  0  0  0  0  0
   -1.4271    1.4404    3.5450 H   0  0  0  0  0  0  0  0  0  0  0  0
   -0.6425   -0.5057    4.1316 C   0  0  0  0  0  0  0  0  0  0  0  0
   -0.3450   -0.1842    5.0352 H   0  0  0  0  0  0  0  0  0  0  0  0
   -1.0040   -1.4380    4.2234 H   0  0  0  0  0  0  0  0  0  0  0  0
    0.5254   -0.5224    3.2087 N   0  0  0  0  0  4  0  0  0  0  0  0
    0.2748   -0.0782    2.3487 H   0  0  0  0  0  0  0  0  0  0  0  0
    1.2874   -0.0317    3.6298 H   0  0  0  0  0  0  0  0  0  0  0  0
    0.7939   -1.4683    3.0311 H   0  0  0  0  0  0  0  0  0  0  0  0
   -0.0080    2.9153    0.0007 C   0  0  0  0  0  0  0  0  0  0  0  0
    0.8550    3.2242    0.3660 H   0  0  0  0  0  0  0  0  0  0  0  0
   -0.7664    3.2156    0.5569 H   0  0  0  0  0  0  0  0  0  0  0  0
   -0.1271    3.3475   -0.9928 H   0  0  0  0  0  0  0  0  0  0  0  0
    0.0000    1.4075    0.0048 C   0  0  0  0  0  0  0  0  0  0  0  0
   -1.1929    0.6899    0.0040 C   0  0  0  0  0  0  0  0  0  0  0  0
   -2.0638    1.1727    0.0047 H   0  0  0  0  0  0  0  0  0  0  0  0
   -1.1911   -0.7075    0.0000 C   0  0  0  0  0  0  0  0  0  0  0  0
   -2.0693   -1.1990    0.0002 H   0  0  0  0  0  0  0  0  0  0  0  0
    0.0068   -1.3946   -0.0018 C   0  0  0  0  0  0  0  0  0  0  0  0
    0.0000   -2.3987   -0.0045 H   0  0  0  0  0  0  0  0  0  0  0  0
    1.1911   -0.7068    0.0000 C   0  0  0  0  0  0  0  0  0  0  0  0
    2.0819   -1.1846    0.0079 H   0  0  0  0  0  0  0  0  0  0  0  0
    1.1861    0.7116   -0.0069 C   0  0  0  0  0  0  0  0  0  0  0  0
    2.0602    1.1907   -0.0212 H   0  0  0  0  0  0  0  0  0  0  0  0
  1  5  1  0
  5  8  1  0
  1  2  1  0
  1  3  1  0
  1  4  1  0
  5  6  1  0
  5  7  1  0
  8  9  1  0
  8 10  1  0
  8 11  1  0
 12 16  1  0
 16 17  2  0
 17 19  1  0
 19 21  2  0
 21 23  1  0
 23 25  2  0
 25 16  1  0
 12 13  1  0
 12 14  1  0
 12 15  1  0
 17 18  1  0
 19 20  1  0
 21 22  1  0
 23 24  1  0
 25 26  1  0
M  CHG  1   8   1
M  END
>  <PDB_ID>  (1687) 
pdb3f00

>  <RESIDUE_NAME>  (1687) 
LYS   PHE

>  <FRAG_NAME>  (1687) 
ETAM   MBZ

>  <FRAG_ATOM_NUM>  (1687) 
fragi: 11  fragj: 15

>  <atom.prop.CHAIN_ID>  (1687) 
A A A A A A A A A A A Z Z Z Z Z Z Z Z Z Z Z Z Z Z Z

>  <atom.prop.IS_HEAVY_ATOM>  (1687) 
1 0 0 0 1 0 0 1 0 0 0 1 0 0 0 1 1 0 1 0 1 0 1 0 1 0

>  <DIFUSE_FUNC_ATOM>  (1687) 
n/a

>  <FINAL_SINGLE_POINT_ENERGY>  (1687) 
0

>  <NONCOV_INTER_ENERGY_QM>  (1687) 
0

>  <FF_Energy>  (1687) 
-9.33

>  <QM_Energy>  (1687) 
-16.49

>  <source>  (1687) 
ETAM_MBZ

>  <Index>  (1687) 
16981

$$$$
ETAM-pdb4a69-C-LYS-443:MBZ-pdb4a69-C-PHE-457
     RDKit          3D

 26 25  0  0  0  0  0  0  0  0999 V2000
    1.9745    0.4672    3.5709 C   0  0  0  0  0  0  0  0  0  0  0  0
    2.3199    0.0573    2.7327 H   0  0  0  0  0  0  0  0  0  0  0  0
    2.3594    0.0084    4.3653 H   0  0  0  0  0  0  0  0  0  0  0  0
    2.2655    1.5173    3.5941 H   0  0  0  0  0  0  0  0  0  0  0  0
    0.4642    0.3081    3.6032 C   0  0  0  0  0  0  0  0  0  0  0  0
    0.1278    0.5840    4.4986 H   0  0  0  0  0  0  0  0  0  0  0  0
    0.0613    0.8798    2.8952 H   0  0  0  0  0  0  0  0  0  0  0  0
    0.1001   -1.1123    3.3553 N   0  0  0  0  0  4  0  0  0  0  0  0
   -0.8076   -1.1549    2.9380 H   0  0  0  0  0  0  0  0  0  0  0  0
    0.7712   -1.5246    2.7396 H   0  0  0  0  0  0  0  0  0  0  0  0
    0.0923   -1.6093    4.2229 H   0  0  0  0  0  0  0  0  0  0  0  0
    0.0024    2.9073    0.0134 C   0  0  0  0  0  0  0  0  0  0  0  0
    0.8814    3.2106    0.3498 H   0  0  0  0  0  0  0  0  0  0  0  0
   -0.7319    3.2079    0.6041 H   0  0  0  0  0  0  0  0  0  0  0  0
   -0.1524    3.3625   -0.9649 H   0  0  0  0  0  0  0  0  0  0  0  0
    0.0019    1.4036   -0.0031 C   0  0  0  0  0  0  0  0  0  0  0  0
   -1.1998    0.6908    0.0061 C   0  0  0  0  0  0  0  0  0  0  0  0
   -2.0635    1.1836    0.0154 H   0  0  0  0  0  0  0  0  0  0  0  0
   -1.2017   -0.6954    0.0000 C   0  0  0  0  0  0  0  0  0  0  0  0
   -2.0774   -1.1929   -0.0014 H   0  0  0  0  0  0  0  0  0  0  0  0
    0.0002   -1.3920   -0.0021 C   0  0  0  0  0  0  0  0  0  0  0  0
   -0.0060   -2.3917   -0.0054 H   0  0  0  0  0  0  0  0  0  0  0  0
    1.2017   -0.6994    0.0000 C   0  0  0  0  0  0  0  0  0  0  0  0
    2.0818   -1.1970    0.0038 H   0  0  0  0  0  0  0  0  0  0  0  0
    1.1977    0.6924   -0.0009 C   0  0  0  0  0  0  0  0  0  0  0  0
    2.0674    1.1875   -0.0010 H   0  0  0  0  0  0  0  0  0  0  0  0
  1  5  1  0
  5  8  1  0
  1  2  1  0
  1  3  1  0
  1  4  1  0
  5  6  1  0
  5  7  1  0
  8  9  1  0
  8 10  1  0
  8 11  1  0
 12 16  1  0
 16 17  2  0
 17 19  1  0
 19 21  2  0
 21 23  1  0
 23 25  2  0
 25 16  1  0
 12 13  1  0
 12 14  1  0
 12 15  1  0
 17 18  1  0
 19 20  1  0
 21 22  1  0
 23 24  1  0
 25 26  1  0
M  CHG  1   8   1
M  END
>  <PDB_ID>  (1688) 
pdb4a69

>  <RESIDUE_NAME>  (1688) 
LYS   PHE

>  <FRAG_NAME>  (1688) 
ETAM   MBZ

>  <FRAG_ATOM_NUM>  (1688) 
fragi: 11  fragj: 15

>  <atom.prop.CHAIN_ID>  (1688) 
A A A A A A A A A A A Z Z Z Z Z Z Z Z Z Z Z Z Z Z Z

>  <atom.prop.IS_HEAVY_ATOM>  (1688) 
1 0 0 0 1 0 0 1 0 0 0 1 0 0 0 1 1 0 1 0 1 0 1 0 1 0

>  <DIFUSE_FUNC_ATOM>  (1688) 
n/a

>  <FINAL_SINGLE_POINT_ENERGY>  (1688) 
0

>  <NONCOV_INTER_ENERGY_QM>  (1688) 
0

>  <FF_Energy>  (1688) 
-7.9

>  <QM_Energy>  (1688) 
-14.83

>  <source>  (1688) 
ETAM_MBZ

>  <Index>  (1688) 
16982

$$$$
ETAM-pdb3ezs-A-LYS-128:MBZ-pdb3ezs-B-PHE-103
     RDKit          3D

 26 25  0  0  0  0  0  0  0  0999 V2000
    0.7864   -3.3506    4.2223 C   0  0  0  0  0  0  0  0  0  0  0  0
    0.2144   -3.4389    5.0361 H   0  0  0  0  0  0  0  0  0  0  0  0
    1.7257   -3.6096    4.4401 H   0  0  0  0  0  0  0  0  0  0  0  0
    0.4041   -4.0134    3.4459 H   0  0  0  0  0  0  0  0  0  0  0  0
    0.7825   -1.8841    3.7913 C   0  0  0  0  0  0  0  0  0  0  0  0
    1.3222   -1.3480    4.4612 H   0  0  0  0  0  0  0  0  0  0  0  0
    1.2524   -1.8080    2.8964 H   0  0  0  0  0  0  0  0  0  0  0  0
   -0.5808   -1.2720    3.6718 N   0  0  0  0  0  4  0  0  0  0  0  0
   -1.1325   -1.5486    4.4564 H   0  0  0  0  0  0  0  0  0  0  0  0
   -0.4913   -0.2780    3.6530 H   0  0  0  0  0  0  0  0  0  0  0  0
   -1.0085   -1.5901    2.8277 H   0  0  0  0  0  0  0  0  0  0  0  0
   -0.0141    2.8919   -0.0026 C   0  0  0  0  0  0  0  0  0  0  0  0
   -0.6371    3.1953   -0.7062 H   0  0  0  0  0  0  0  0  0  0  0  0
    0.9060    3.2089   -0.1714 H   0  0  0  0  0  0  0  0  0  0  0  0
   -0.3442    3.3255    0.9414 H   0  0  0  0  0  0  0  0  0  0  0  0
   -0.0019    1.3938   -0.0010 C   0  0  0  0  0  0  0  0  0  0  0  0
   -1.1874    0.6842   -0.0003 C   0  0  0  0  0  0  0  0  0  0  0  0
   -2.0590    1.1757   -0.0015 H   0  0  0  0  0  0  0  0  0  0  0  0
   -1.1876   -0.6923   -0.0000 C   0  0  0  0  0  0  0  0  0  0  0  0
   -2.0680   -1.1909   -0.0024 H   0  0  0  0  0  0  0  0  0  0  0  0
    0.0032   -1.3820    0.0058 C   0  0  0  0  0  0  0  0  0  0  0  0
   -0.0030   -2.3856    0.0137 H   0  0  0  0  0  0  0  0  0  0  0  0
    1.1876   -0.6947    0.0000 C   0  0  0  0  0  0  0  0  0  0  0  0
    2.0756   -1.1898    0.0003 H   0  0  0  0  0  0  0  0  0  0  0  0
    1.1860    0.6910   -0.0046 C   0  0  0  0  0  0  0  0  0  0  0  0
    2.0570    1.1856   -0.0111 H   0  0  0  0  0  0  0  0  0  0  0  0
  1  5  1  0
  5  8  1  0
  1  2  1  0
  1  3  1  0
  1  4  1  0
  5  6  1  0
  5  7  1  0
  8  9  1  0
  8 10  1  0
  8 11  1  0
 12 16  1  0
 16 17  2  0
 17 19  1  0
 19 21  2  0
 21 23  1  0
 23 25  2  0
 25 16  1  0
 12 13  1  0
 12 14  1  0
 12 15  1  0
 17 18  1  0
 19 20  1  0
 21 22  1  0
 23 24  1  0
 25 26  1  0
M  CHG  1   8   1
M  END
>  <PDB_ID>  (1689) 
pdb3ezs

>  <RESIDUE_NAME>  (1689) 
LYS   PHE

>  <FRAG_NAME>  (1689) 
ETAM   MBZ

>  <FRAG_ATOM_NUM>  (1689) 
fragi: 11  fragj: 15

>  <atom.prop.CHAIN_ID>  (1689) 
A A A A A A A A A A A Z Z Z Z Z Z Z Z Z Z Z Z Z Z Z

>  <atom.prop.IS_HEAVY_ATOM>  (1689) 
1 0 0 0 1 0 0 1 0 0 0 1 0 0 0 1 1 0 1 0 1 0 1 0 1 0

>  <DIFUSE_FUNC_ATOM>  (1689) 
n/a

>  <FINAL_SINGLE_POINT_ENERGY>  (1689) 
0

>  <NONCOV_INTER_ENERGY_QM>  (1689) 
0

>  <FF_Energy>  (1689) 
-5.78

>  <QM_Energy>  (1689) 
-11.16

>  <source>  (1689) 
ETAM_MBZ

>  <Index>  (1689) 
17004

$$$$
ETAM-pdb4agu-B-LYS-34:MBZ-pdb4agu-B-PHE-19
     RDKit          3D

 26 25  0  0  0  0  0  0  0  0999 V2000
    4.1461   -0.0583    1.7732 C   0  0  0  0  0  0  0  0  0  0  0  0
    3.4695   -0.4740    1.1660 H   0  0  0  0  0  0  0  0  0  0  0  0
    4.6495   -0.7753    2.2540 H   0  0  0  0  0  0  0  0  0  0  0  0
    4.8479    0.5186    1.1710 H   0  0  0  0  0  0  0  0  0  0  0  0
    3.4244    0.7944    2.7935 C   0  0  0  0  0  0  0  0  0  0  0  0
    4.0953    1.2106    3.4061 H   0  0  0  0  0  0  0  0  0  0  0  0
    2.9147    1.5120    2.3197 H   0  0  0  0  0  0  0  0  0  0  0  0
    2.4803   -0.0316    3.5898 N   0  0  0  0  0  4  0  0  0  0  0  0
    2.9521   -0.3949    4.3935 H   0  0  0  0  0  0  0  0  0  0  0  0
    1.7089    0.5336    3.8830 H   0  0  0  0  0  0  0  0  0  0  0  0
    2.1458   -0.7881    3.0288 H   0  0  0  0  0  0  0  0  0  0  0  0
    0.0042    2.9150   -0.0237 C   0  0  0  0  0  0  0  0  0  0  0  0
    0.8927    3.2225    0.2892 H   0  0  0  0  0  0  0  0  0  0  0  0
   -0.7140    3.2297    0.5828 H   0  0  0  0  0  0  0  0  0  0  0  0
   -0.1727    3.3610   -1.0024 H   0  0  0  0  0  0  0  0  0  0  0  0
    0.0009    1.4073   -0.0077 C   0  0  0  0  0  0  0  0  0  0  0  0
   -1.1957    0.6961    0.0073 C   0  0  0  0  0  0  0  0  0  0  0  0
   -2.0628    1.1805    0.0226 H   0  0  0  0  0  0  0  0  0  0  0  0
   -1.1938   -0.7007   -0.0000 C   0  0  0  0  0  0  0  0  0  0  0  0
   -2.0740   -1.1919   -0.0062 H   0  0  0  0  0  0  0  0  0  0  0  0
    0.0007   -1.3905    0.0032 C   0  0  0  0  0  0  0  0  0  0  0  0
   -0.0052   -2.3951    0.0075 H   0  0  0  0  0  0  0  0  0  0  0  0
    1.1938   -0.7049    0.0000 C   0  0  0  0  0  0  0  0  0  0  0  0
    2.0785   -1.1985    0.0011 H   0  0  0  0  0  0  0  0  0  0  0  0
    1.1942    0.6927   -0.0029 C   0  0  0  0  0  0  0  0  0  0  0  0
    2.0659    1.1823   -0.0025 H   0  0  0  0  0  0  0  0  0  0  0  0
  1  5  1  0
  5  8  1  0
  1  2  1  0
  1  3  1  0
  1  4  1  0
  5  6  1  0
  5  7  1  0
  8  9  1  0
  8 10  1  0
  8 11  1  0
 12 16  1  0
 16 17  2  0
 17 19  1  0
 19 21  2  0
 21 23  1  0
 23 25  2  0
 25 16  1  0
 12 13  1  0
 12 14  1  0
 12 15  1  0
 17 18  1  0
 19 20  1  0
 21 22  1  0
 23 24  1  0
 25 26  1  0
M  CHG  1   8   1
M  END
>  <PDB_ID>  (1690) 
pdb4agu

>  <RESIDUE_NAME>  (1690) 
LYS   PHE

>  <FRAG_NAME>  (1690) 
ETAM   MBZ

>  <FRAG_ATOM_NUM>  (1690) 
fragi: 11  fragj: 15

>  <atom.prop.CHAIN_ID>  (1690) 
A A A A A A A A A A A Z Z Z Z Z Z Z Z Z Z Z Z Z Z Z

>  <atom.prop.IS_HEAVY_ATOM>  (1690) 
1 0 0 0 1 0 0 1 0 0 0 1 0 0 0 1 1 0 1 0 1 0 1 0 1 0

>  <DIFUSE_FUNC_ATOM>  (1690) 
n/a

>  <FINAL_SINGLE_POINT_ENERGY>  (1690) 
0

>  <NONCOV_INTER_ENERGY_QM>  (1690) 
0

>  <FF_Energy>  (1690) 
-2.26

>  <QM_Energy>  (1690) 
-7.51

>  <source>  (1690) 
ETAM_MBZ

>  <Index>  (1690) 
17007

$$$$
ETAM-pdb4ak1-A-LYS-354:MBZ-pdb4ak1-A-PHE-358
     RDKit          3D

 26 25  0  0  0  0  0  0  0  0999 V2000
    1.4547    1.7137    3.6423 C   0  0  0  0  0  0  0  0  0  0  0  0
    1.7224    1.6162    2.6986 H   0  0  0  0  0  0  0  0  0  0  0  0
    1.8349    1.0032    4.2080 H   0  0  0  0  0  0  0  0  0  0  0  0
    1.7928    2.6826    4.0098 H   0  0  0  0  0  0  0  0  0  0  0  0
   -0.0559    1.6549    3.7318 C   0  0  0  0  0  0  0  0  0  0  0  0
   -0.3313    1.7721    4.6822 H   0  0  0  0  0  0  0  0  0  0  0  0
   -0.4448    2.3817    3.1717 H   0  0  0  0  0  0  0  0  0  0  0  0
   -0.5387    0.3419    3.2379 N   0  0  0  0  0  4  0  0  0  0  0  0
   -0.9148   -0.1844    4.0008 H   0  0  0  0  0  0  0  0  0  0  0  0
   -1.2501    0.4857    2.5496 H   0  0  0  0  0  0  0  0  0  0  0  0
    0.2230   -0.1617    2.8295 H   0  0  0  0  0  0  0  0  0  0  0  0
   -0.0058    2.9190    0.0190 C   0  0  0  0  0  0  0  0  0  0  0  0
    0.8263    3.2179    0.4592 H   0  0  0  0  0  0  0  0  0  0  0  0
   -0.8054    3.2121    0.5194 H   0  0  0  0  0  0  0  0  0  0  0  0
   -0.0435    3.3743   -0.9707 H   0  0  0  0  0  0  0  0  0  0  0  0
   -0.0012    1.4038    0.0009 C   0  0  0  0  0  0  0  0  0  0  0  0
   -1.1980    0.6871   -0.0008 C   0  0  0  0  0  0  0  0  0  0  0  0
   -2.0665    1.1776   -0.0036 H   0  0  0  0  0  0  0  0  0  0  0  0
   -1.2017   -0.7023    0.0000 C   0  0  0  0  0  0  0  0  0  0  0  0
   -2.0757   -1.1980    0.0031 H   0  0  0  0  0  0  0  0  0  0  0  0
    0.0032   -1.3938   -0.0018 C   0  0  0  0  0  0  0  0  0  0  0  0
    0.0021   -2.3927   -0.0047 H   0  0  0  0  0  0  0  0  0  0  0  0
    1.2017   -0.6933   -0.0000 C   0  0  0  0  0  0  0  0  0  0  0  0
    2.0845   -1.1888    0.0016 H   0  0  0  0  0  0  0  0  0  0  0  0
    1.1961    0.6986    0.0017 C   0  0  0  0  0  0  0  0  0  0  0  0
    2.0633    1.1950    0.0023 H   0  0  0  0  0  0  0  0  0  0  0  0
  1  5  1  0
  5  8  1  0
  1  2  1  0
  1  3  1  0
  1  4  1  0
  5  6  1  0
  5  7  1  0
  8  9  1  0
  8 10  1  0
  8 11  1  0
 12 16  1  0
 16 17  2  0
 17 19  1  0
 19 21  2  0
 21 23  1  0
 23 25  2  0
 25 16  1  0
 12 13  1  0
 12 14  1  0
 12 15  1  0
 17 18  1  0
 19 20  1  0
 21 22  1  0
 23 24  1  0
 25 26  1  0
M  CHG  1   8   1
M  END
>  <PDB_ID>  (1691) 
pdb4ak1

>  <RESIDUE_NAME>  (1691) 
LYS   PHE

>  <FRAG_NAME>  (1691) 
ETAM   MBZ

>  <FRAG_ATOM_NUM>  (1691) 
fragi: 11  fragj: 15

>  <atom.prop.CHAIN_ID>  (1691) 
A A A A A A A A A A A Z Z Z Z Z Z Z Z Z Z Z Z Z Z Z

>  <atom.prop.IS_HEAVY_ATOM>  (1691) 
1 0 0 0 1 0 0 1 0 0 0 1 0 0 0 1 1 0 1 0 1 0 1 0 1 0

>  <DIFUSE_FUNC_ATOM>  (1691) 
n/a

>  <FINAL_SINGLE_POINT_ENERGY>  (1691) 
0

>  <NONCOV_INTER_ENERGY_QM>  (1691) 
0

>  <FF_Energy>  (1691) 
-9.45

>  <QM_Energy>  (1691) 
-16.65

>  <source>  (1691) 
ETAM_MBZ

>  <Index>  (1691) 
17043

$$$$
ETAM-pdb4ali-I-LYS-256:MBZ-pdb4ali-K-PHE-252
     RDKit          3D

 26 25  0  0  0  0  0  0  0  0999 V2000
    2.6477   -1.0682    4.4436 C   0  0  0  0  0  0  0  0  0  0  0  0
    2.2373   -1.7594    4.9966 H   0  0  0  0  0  0  0  0  0  0  0  0
    3.3806   -0.5977    4.8834 H   0  0  0  0  0  0  0  0  0  0  0  0
    3.0062   -1.5133    3.5156 H   0  0  0  0  0  0  0  0  0  0  0  0
    1.5718   -0.0453    4.0633 C   0  0  0  0  0  0  0  0  0  0  0  0
    1.2021    0.3722    4.9194 H   0  0  0  0  0  0  0  0  0  0  0  0
    2.0146    0.7162    3.5463 H   0  0  0  0  0  0  0  0  0  0  0  0
    0.4005   -0.5518    3.2429 N   0  0  0  0  0  4  0  0  0  0  0  0
    0.3014   -1.5291    3.4002 H   0  0  0  0  0  0  0  0  0  0  0  0
   -0.4211   -0.0705    3.5315 H   0  0  0  0  0  0  0  0  0  0  0  0
    0.5863   -0.3739    2.2821 H   0  0  0  0  0  0  0  0  0  0  0  0
   -0.0376    2.9187   -0.0297 C   0  0  0  0  0  0  0  0  0  0  0  0
   -0.5335    3.2101   -0.8317 H   0  0  0  0  0  0  0  0  0  0  0  0
    0.8975    3.2346   -0.0446 H   0  0  0  0  0  0  0  0  0  0  0  0
   -0.5251    3.3540    0.8426 H   0  0  0  0  0  0  0  0  0  0  0  0
   -0.0157    1.4077   -0.0215 C   0  0  0  0  0  0  0  0  0  0  0  0
   -1.2117    0.6833   -0.0095 C   0  0  0  0  0  0  0  0  0  0  0  0
   -2.0813    1.1805   -0.0087 H   0  0  0  0  0  0  0  0  0  0  0  0
   -1.2214   -0.6988   -0.0000 C   0  0  0  0  0  0  0  0  0  0  0  0
   -2.0734   -1.2122   -0.0090 H   0  0  0  0  0  0  0  0  0  0  0  0
    0.0280   -1.4068    0.0250 C   0  0  0  0  0  0  0  0  0  0  0  0
    0.0124   -2.3959    0.0597 H   0  0  0  0  0  0  0  0  0  0  0  0
    1.2214   -0.6967    0.0000 C   0  0  0  0  0  0  0  0  0  0  0  0
    2.1091   -1.1754   -0.0213 H   0  0  0  0  0  0  0  0  0  0  0  0
    1.1995    0.7113    0.0060 C   0  0  0  0  0  0  0  0  0  0  0  0
    2.0575    1.2133    0.0290 H   0  0  0  0  0  0  0  0  0  0  0  0
  1  5  1  0
  5  8  1  0
  1  2  1  0
  1  3  1  0
  1  4  1  0
  5  6  1  0
  5  7  1  0
  8  9  1  0
  8 10  1  0
  8 11  1  0
 12 16  1  0
 16 17  2  0
 17 19  1  0
 19 21  2  0
 21 23  1  0
 23 25  2  0
 25 16  1  0
 12 13  1  0
 12 14  1  0
 12 15  1  0
 17 18  1  0
 19 20  1  0
 21 22  1  0
 23 24  1  0
 25 26  1  0
M  CHG  1   8   1
M  END
>  <PDB_ID>  (1692) 
pdb4ali

>  <RESIDUE_NAME>  (1692) 
LYS   PHE

>  <FRAG_NAME>  (1692) 
ETAM   MBZ

>  <FRAG_ATOM_NUM>  (1692) 
fragi: 11  fragj: 15

>  <atom.prop.CHAIN_ID>  (1692) 
A A A A A A A A A A A Z Z Z Z Z Z Z Z Z Z Z Z Z Z Z

>  <atom.prop.IS_HEAVY_ATOM>  (1692) 
1 0 0 0 1 0 0 1 0 0 0 1 0 0 0 1 1 0 1 0 1 0 1 0 1 0

>  <DIFUSE_FUNC_ATOM>  (1692) 
n/a

>  <FINAL_SINGLE_POINT_ENERGY>  (1692) 
0

>  <NONCOV_INTER_ENERGY_QM>  (1692) 
0

>  <FF_Energy>  (1692) 
-8.82

>  <QM_Energy>  (1692) 
-16.92

>  <source>  (1692) 
ETAM_MBZ

>  <Index>  (1692) 
17060

$$$$
ETAM-pdb4ali-J-LYS-256:MBZ-pdb4ali-D-PHE-252
     RDKit          3D

 26 25  0  0  0  0  0  0  0  0999 V2000
    2.1640   -1.8675    4.5510 C   0  0  0  0  0  0  0  0  0  0  0  0
    1.5593   -2.6392    4.3389 H   0  0  0  0  0  0  0  0  0  0  0  0
    2.0867   -1.6497    5.5271 H   0  0  0  0  0  0  0  0  0  0  0  0
    3.1923   -2.1582    4.3363 H   0  0  0  0  0  0  0  0  0  0  0  0
    1.7061   -0.6641    3.7521 C   0  0  0  0  0  0  0  0  0  0  0  0
    1.9098    0.1662    4.2606 H   0  0  0  0  0  0  0  0  0  0  0  0
    2.1731   -0.6547    2.8737 H   0  0  0  0  0  0  0  0  0  0  0  0
    0.2303   -0.7446    3.5195 N   0  0  0  0  0  4  0  0  0  0  0  0
   -0.0171   -1.6880    3.3084 H   0  0  0  0  0  0  0  0  0  0  0  0
   -0.2478   -0.4469    4.3436 H   0  0  0  0  0  0  0  0  0  0  0  0
   -0.0134   -0.1518    2.7542 H   0  0  0  0  0  0  0  0  0  0  0  0
    0.0252    2.8790    0.0124 C   0  0  0  0  0  0  0  0  0  0  0  0
   -0.5029    3.2057   -0.7595 H   0  0  0  0  0  0  0  0  0  0  0  0
    0.9655    3.1850   -0.0467 H   0  0  0  0  0  0  0  0  0  0  0  0
   -0.4036    3.3270    0.9089 H   0  0  0  0  0  0  0  0  0  0  0  0
    0.0073    1.3927    0.0046 C   0  0  0  0  0  0  0  0  0  0  0  0
   -1.2004    0.6974    0.0531 C   0  0  0  0  0  0  0  0  0  0  0  0
   -2.0552    1.1924    0.1246 H   0  0  0  0  0  0  0  0  0  0  0  0
   -1.2063   -0.6870    0.0000 C   0  0  0  0  0  0  0  0  0  0  0  0
   -2.0846   -1.1809   -0.0016 H   0  0  0  0  0  0  0  0  0  0  0  0
   -0.0106   -1.3828   -0.0485 C   0  0  0  0  0  0  0  0  0  0  0  0
   -0.0155   -2.3817   -0.1193 H   0  0  0  0  0  0  0  0  0  0  0  0
    1.2063   -0.6978    0.0000 C   0  0  0  0  0  0  0  0  0  0  0  0
    2.0735   -1.2098    0.0428 H   0  0  0  0  0  0  0  0  0  0  0  0
    1.2037    0.6774   -0.0092 C   0  0  0  0  0  0  0  0  0  0  0  0
    2.0715    1.1812   -0.0270 H   0  0  0  0  0  0  0  0  0  0  0  0
  1  5  1  0
  5  8  1  0
  1  2  1  0
  1  3  1  0
  1  4  1  0
  5  6  1  0
  5  7  1  0
  8  9  1  0
  8 10  1  0
  8 11  1  0
 12 16  1  0
 16 17  2  0
 17 19  1  0
 19 21  2  0
 21 23  1  0
 23 25  2  0
 25 16  1  0
 12 13  1  0
 12 14  1  0
 12 15  1  0
 17 18  1  0
 19 20  1  0
 21 22  1  0
 23 24  1  0
 25 26  1  0
M  CHG  1   8   1
M  END
>  <PDB_ID>  (1693) 
pdb4ali

>  <RESIDUE_NAME>  (1693) 
LYS   PHE

>  <FRAG_NAME>  (1693) 
ETAM   MBZ

>  <FRAG_ATOM_NUM>  (1693) 
fragi: 11  fragj: 15

>  <atom.prop.CHAIN_ID>  (1693) 
A A A A A A A A A A A Z Z Z Z Z Z Z Z Z Z Z Z Z Z Z

>  <atom.prop.IS_HEAVY_ATOM>  (1693) 
1 0 0 0 1 0 0 1 0 0 0 1 0 0 0 1 1 0 1 0 1 0 1 0 1 0

>  <DIFUSE_FUNC_ATOM>  (1693) 
n/a

>  <FINAL_SINGLE_POINT_ENERGY>  (1693) 
0

>  <NONCOV_INTER_ENERGY_QM>  (1693) 
0

>  <FF_Energy>  (1693) 
-7.65

>  <QM_Energy>  (1693) 
-13.88

>  <source>  (1693) 
ETAM_MBZ

>  <Index>  (1693) 
17063

$$$$
ETAM-pdb4ali-D-LYS-256:MBZ-pdb4ali-J-PHE-252
     RDKit          3D

 26 25  0  0  0  0  0  0  0  0999 V2000
    2.9065   -1.4819    4.3711 C   0  0  0  0  0  0  0  0  0  0  0  0
    2.5118   -2.0916    5.0284 H   0  0  0  0  0  0  0  0  0  0  0  0
    3.7371   -1.0683    4.6844 H   0  0  0  0  0  0  0  0  0  0  0  0
    3.0819   -2.0088    3.4332 H   0  0  0  0  0  0  0  0  0  0  0  0
    1.8998   -0.3734    4.0805 C   0  0  0  0  0  0  0  0  0  0  0  0
    1.7229    0.1474    4.9493 H   0  0  0  0  0  0  0  0  0  0  0  0
    2.3340    0.3073    3.4433 H   0  0  0  0  0  0  0  0  0  0  0  0
    0.5498   -0.7602    3.4917 N   0  0  0  0  0  4  0  0  0  0  0  0
    0.4708   -1.7512    3.5103 H   0  0  0  0  0  0  0  0  0  0  0  0
   -0.1649   -0.3440    4.0434 H   0  0  0  0  0  0  0  0  0  0  0  0
    0.5075   -0.4248    2.5569 H   0  0  0  0  0  0  0  0  0  0  0  0
    0.0108    2.9033    0.0100 C   0  0  0  0  0  0  0  0  0  0  0  0
   -0.5911    3.1984   -0.7172 H   0  0  0  0  0  0  0  0  0  0  0  0
    0.9408    3.2000   -0.1493 H   0  0  0  0  0  0  0  0  0  0  0  0
   -0.3335    3.3593    0.9383 H   0  0  0  0  0  0  0  0  0  0  0  0
    0.0030    1.3992    0.0341 C   0  0  0  0  0  0  0  0  0  0  0  0
   -1.1957    0.7006    0.0324 C   0  0  0  0  0  0  0  0  0  0  0  0
   -2.0599    1.1920    0.0532 H   0  0  0  0  0  0  0  0  0  0  0  0
   -1.2065   -0.6934   -0.0000 C   0  0  0  0  0  0  0  0  0  0  0  0
   -2.0803   -1.1854    0.0105 H   0  0  0  0  0  0  0  0  0  0  0  0
    0.0001   -1.3938   -0.0452 C   0  0  0  0  0  0  0  0  0  0  0  0
   -0.0084   -2.3898   -0.1103 H   0  0  0  0  0  0  0  0  0  0  0  0
    1.2065   -0.7019    0.0000 C   0  0  0  0  0  0  0  0  0  0  0  0
    2.0817   -1.1972    0.0493 H   0  0  0  0  0  0  0  0  0  0  0  0
    1.1926    0.6893   -0.0213 C   0  0  0  0  0  0  0  0  0  0  0  0
    2.0628    1.1864   -0.0789 H   0  0  0  0  0  0  0  0  0  0  0  0
  1  5  1  0
  5  8  1  0
  1  2  1  0
  1  3  1  0
  1  4  1  0
  5  6  1  0
  5  7  1  0
  8  9  1  0
  8 10  1  0
  8 11  1  0
 12 16  1  0
 16 17  2  0
 17 19  1  0
 19 21  2  0
 21 23  1  0
 23 25  2  0
 25 16  1  0
 12 13  1  0
 12 14  1  0
 12 15  1  0
 17 18  1  0
 19 20  1  0
 21 22  1  0
 23 24  1  0
 25 26  1  0
M  CHG  1   8   1
M  END
>  <PDB_ID>  (1694) 
pdb4ali

>  <RESIDUE_NAME>  (1694) 
LYS   PHE

>  <FRAG_NAME>  (1694) 
ETAM   MBZ

>  <FRAG_ATOM_NUM>  (1694) 
fragi: 11  fragj: 15

>  <atom.prop.CHAIN_ID>  (1694) 
A A A A A A A A A A A Z Z Z Z Z Z Z Z Z Z Z Z Z Z Z

>  <atom.prop.IS_HEAVY_ATOM>  (1694) 
1 0 0 0 1 0 0 1 0 0 0 1 0 0 0 1 1 0 1 0 1 0 1 0 1 0

>  <DIFUSE_FUNC_ATOM>  (1694) 
n/a

>  <FINAL_SINGLE_POINT_ENERGY>  (1694) 
0

>  <NONCOV_INTER_ENERGY_QM>  (1694) 
0

>  <FF_Energy>  (1694) 
-7.66

>  <QM_Energy>  (1694) 
-14.29

>  <source>  (1694) 
ETAM_MBZ

>  <Index>  (1694) 
17067

$$$$
ETAM-pdb4ali-L-LYS-256:MBZ-pdb4ali-O-PHE-252
     RDKit          3D

 26 25  0  0  0  0  0  0  0  0999 V2000
    2.6767   -1.6744    4.4180 C   0  0  0  0  0  0  0  0  0  0  0  0
    2.1065   -2.2890    4.9127 H   0  0  0  0  0  0  0  0  0  0  0  0
    3.4781   -1.4027    4.8977 H   0  0  0  0  0  0  0  0  0  0  0  0
    2.9502   -2.1139    3.4587 H   0  0  0  0  0  0  0  0  0  0  0  0
    1.8622   -0.4192    4.0894 C   0  0  0  0  0  0  0  0  0  0  0  0
    1.6366    0.0614    4.9540 H   0  0  0  0  0  0  0  0  0  0  0  0
    2.4369    0.2107    3.5393 H   0  0  0  0  0  0  0  0  0  0  0  0
    0.5639   -0.6599    3.3298 N   0  0  0  0  0  4  0  0  0  0  0  0
    0.4744    0.0418    2.6307 H   0  0  0  0  0  0  0  0  0  0  0  0
    0.6059   -1.5617    2.9143 H   0  0  0  0  0  0  0  0  0  0  0  0
   -0.1914   -0.6077    3.9738 H   0  0  0  0  0  0  0  0  0  0  0  0
   -0.0297    2.8714   -0.0687 C   0  0  0  0  0  0  0  0  0  0  0  0
   -0.6800    3.1491   -0.7630 H   0  0  0  0  0  0  0  0  0  0  0  0
    0.8816    3.1943   -0.2881 H   0  0  0  0  0  0  0  0  0  0  0  0
   -0.3292    3.3356    0.8709 H   0  0  0  0  0  0  0  0  0  0  0  0
   -0.0012    1.3882   -0.0207 C   0  0  0  0  0  0  0  0  0  0  0  0
   -1.1930    0.6657    0.0007 C   0  0  0  0  0  0  0  0  0  0  0  0
   -2.0645    1.1692    0.0163 H   0  0  0  0  0  0  0  0  0  0  0  0
   -1.2132   -0.7099    0.0000 C   0  0  0  0  0  0  0  0  0  0  0  0
   -2.0828   -1.2052   -0.0204 H   0  0  0  0  0  0  0  0  0  0  0  0
   -0.0092   -1.3915    0.0297 C   0  0  0  0  0  0  0  0  0  0  0  0
    0.0118   -2.3864    0.0713 H   0  0  0  0  0  0  0  0  0  0  0  0
    1.2132   -0.6719   -0.0000 C   0  0  0  0  0  0  0  0  0  0  0  0
    2.0859   -1.1752   -0.0125 H   0  0  0  0  0  0  0  0  0  0  0  0
    1.2034    0.7194   -0.0097 C   0  0  0  0  0  0  0  0  0  0  0  0
    2.0607    1.2199   -0.0094 H   0  0  0  0  0  0  0  0  0  0  0  0
  1  5  1  0
  5  8  1  0
  1  2  1  0
  1  3  1  0
  1  4  1  0
  5  6  1  0
  5  7  1  0
  8  9  1  0
  8 10  1  0
  8 11  1  0
 12 16  1  0
 16 17  2  0
 17 19  1  0
 19 21  2  0
 21 23  1  0
 23 25  2  0
 25 16  1  0
 12 13  1  0
 12 14  1  0
 12 15  1  0
 17 18  1  0
 19 20  1  0
 21 22  1  0
 23 24  1  0
 25 26  1  0
M  CHG  1   8   1
M  END
>  <PDB_ID>  (1695) 
pdb4ali

>  <RESIDUE_NAME>  (1695) 
LYS   PHE

>  <FRAG_NAME>  (1695) 
ETAM   MBZ

>  <FRAG_ATOM_NUM>  (1695) 
fragi: 11  fragj: 15

>  <atom.prop.CHAIN_ID>  (1695) 
A A A A A A A A A A A Z Z Z Z Z Z Z Z Z Z Z Z Z Z Z

>  <atom.prop.IS_HEAVY_ATOM>  (1695) 
1 0 0 0 1 0 0 1 0 0 0 1 0 0 0 1 1 0 1 0 1 0 1 0 1 0

>  <DIFUSE_FUNC_ATOM>  (1695) 
n/a

>  <FINAL_SINGLE_POINT_ENERGY>  (1695) 
0

>  <NONCOV_INTER_ENERGY_QM>  (1695) 
0

>  <FF_Energy>  (1695) 
-7.81

>  <QM_Energy>  (1695) 
-14.74

>  <source>  (1695) 
ETAM_MBZ

>  <Index>  (1695) 
17069

$$$$
ETAM-pdb4ali-O-LYS-256:MBZ-pdb4ali-L-PHE-252
     RDKit          3D

 26 25  0  0  0  0  0  0  0  0999 V2000
    2.1142   -1.8969    4.4116 C   0  0  0  0  0  0  0  0  0  0  0  0
    1.6137   -2.6367    3.9599 H   0  0  0  0  0  0  0  0  0  0  0  0
    1.8454   -1.8525    5.3738 H   0  0  0  0  0  0  0  0  0  0  0  0
    3.1812   -2.1125    4.3552 H   0  0  0  0  0  0  0  0  0  0  0  0
    1.7316   -0.5776    3.7429 C   0  0  0  0  0  0  0  0  0  0  0  0
    1.8872    0.1685    4.3891 H   0  0  0  0  0  0  0  0  0  0  0  0
    2.3072   -0.4452    2.9365 H   0  0  0  0  0  0  0  0  0  0  0  0
    0.2979   -0.5786    3.3283 N   0  0  0  0  0  4  0  0  0  0  0  0
    0.2229   -0.2122    2.4023 H   0  0  0  0  0  0  0  0  0  0  0  0
   -0.0503   -1.5147    3.3489 H   0  0  0  0  0  0  0  0  0  0  0  0
   -0.2281   -0.0102    3.9591 H   0  0  0  0  0  0  0  0  0  0  0  0
    0.0152    2.9132    0.0094 C   0  0  0  0  0  0  0  0  0  0  0  0
   -0.5113    3.2213   -0.7693 H   0  0  0  0  0  0  0  0  0  0  0  0
    0.9561    3.2106   -0.0532 H   0  0  0  0  0  0  0  0  0  0  0  0
   -0.4169    3.3644    0.9025 H   0  0  0  0  0  0  0  0  0  0  0  0
    0.0039    1.4029    0.0091 C   0  0  0  0  0  0  0  0  0  0  0  0
   -1.1992    0.7186   -0.0088 C   0  0  0  0  0  0  0  0  0  0  0  0
   -2.0611    1.1987   -0.0286 H   0  0  0  0  0  0  0  0  0  0  0  0
   -1.2101   -0.7021   -0.0000 C   0  0  0  0  0  0  0  0  0  0  0  0
   -2.0887   -1.1787    0.0126 H   0  0  0  0  0  0  0  0  0  0  0  0
   -0.0082   -1.3976   -0.0073 C   0  0  0  0  0  0  0  0  0  0  0  0
   -0.0077   -2.3964   -0.0183 H   0  0  0  0  0  0  0  0  0  0  0  0
    1.2101   -0.7014   -0.0000 C   0  0  0  0  0  0  0  0  0  0  0  0
    2.0810   -1.2096    0.0014 H   0  0  0  0  0  0  0  0  0  0  0  0
    1.2035    0.6797    0.0070 C   0  0  0  0  0  0  0  0  0  0  0  0
    2.0713    1.1830    0.0099 H   0  0  0  0  0  0  0  0  0  0  0  0
  1  5  1  0
  5  8  1  0
  1  2  1  0
  1  3  1  0
  1  4  1  0
  5  6  1  0
  5  7  1  0
  8  9  1  0
  8 10  1  0
  8 11  1  0
 12 16  1  0
 16 17  2  0
 17 19  1  0
 19 21  2  0
 21 23  1  0
 23 25  2  0
 25 16  1  0
 12 13  1  0
 12 14  1  0
 12 15  1  0
 17 18  1  0
 19 20  1  0
 21 22  1  0
 23 24  1  0
 25 26  1  0
M  CHG  1   8   1
M  END
>  <PDB_ID>  (1696) 
pdb4ali

>  <RESIDUE_NAME>  (1696) 
LYS   PHE

>  <FRAG_NAME>  (1696) 
ETAM   MBZ

>  <FRAG_ATOM_NUM>  (1696) 
fragi: 11  fragj: 15

>  <atom.prop.CHAIN_ID>  (1696) 
A A A A A A A A A A A Z Z Z Z Z Z Z Z Z Z Z Z Z Z Z

>  <atom.prop.IS_HEAVY_ATOM>  (1696) 
1 0 0 0 1 0 0 1 0 0 0 1 0 0 0 1 1 0 1 0 1 0 1 0 1 0

>  <DIFUSE_FUNC_ATOM>  (1696) 
n/a

>  <FINAL_SINGLE_POINT_ENERGY>  (1696) 
0

>  <NONCOV_INTER_ENERGY_QM>  (1696) 
0

>  <FF_Energy>  (1696) 
-8.84

>  <QM_Energy>  (1696) 
-16.44

>  <source>  (1696) 
ETAM_MBZ

>  <Index>  (1696) 
17073

$$$$
ETAM-pdb3f41-A-LYS-59:MBZ-pdb3f41-A-PHE-182
     RDKit          3D

 26 25  0  0  0  0  0  0  0  0999 V2000
   -0.8290    2.2618   -3.7527 C   0  0  0  0  0  0  0  0  0  0  0  0
   -0.4995    2.5923   -4.6224 H   0  0  0  0  0  0  0  0  0  0  0  0
   -0.5598    2.8530   -3.0105 H   0  0  0  0  0  0  0  0  0  0  0  0
   -1.9159    2.1854   -3.7813 H   0  0  0  0  0  0  0  0  0  0  0  0
   -0.1800    0.8598   -3.5016 C   0  0  0  0  0  0  0  0  0  0  0  0
   -0.5189    0.5183   -2.6264 H   0  0  0  0  0  0  0  0  0  0  0  0
   -0.4733    0.2506   -4.2361 H   0  0  0  0  0  0  0  0  0  0  0  0
    1.3089    0.9368   -3.4730 N   0  0  0  0  0  4  0  0  0  0  0  0
    1.6903    0.0667   -3.7819 H   0  0  0  0  0  0  0  0  0  0  0  0
    1.6133    1.6717   -4.0782 H   0  0  0  0  0  0  0  0  0  0  0  0
    1.6121    1.1234   -2.5394 H   0  0  0  0  0  0  0  0  0  0  0  0
    0.0021    2.8755   -0.0055 C   0  0  0  0  0  0  0  0  0  0  0  0
   -0.5205    3.1878   -0.7891 H   0  0  0  0  0  0  0  0  0  0  0  0
    0.9428    3.1868   -0.0635 H   0  0  0  0  0  0  0  0  0  0  0  0
   -0.4388    3.3245    0.8844 H   0  0  0  0  0  0  0  0  0  0  0  0
   -0.0016    1.3943    0.0009 C   0  0  0  0  0  0  0  0  0  0  0  0
   -1.1964    0.6962    0.0008 C   0  0  0  0  0  0  0  0  0  0  0  0
   -2.0627    1.1851    0.0000 H   0  0  0  0  0  0  0  0  0  0  0  0
   -1.2013   -0.6956   -0.0000 C   0  0  0  0  0  0  0  0  0  0  0  0
   -2.0767   -1.1888    0.0021 H   0  0  0  0  0  0  0  0  0  0  0  0
    0.0016   -1.3901   -0.0013 C   0  0  0  0  0  0  0  0  0  0  0  0
   -0.0032   -2.3903   -0.0043 H   0  0  0  0  0  0  0  0  0  0  0  0
    1.2013   -0.6960    0.0000 C   0  0  0  0  0  0  0  0  0  0  0  0
    2.0828   -1.1952    0.0029 H   0  0  0  0  0  0  0  0  0  0  0  0
    1.1965    0.6911   -0.0004 C   0  0  0  0  0  0  0  0  0  0  0  0
    2.0619    1.1901   -0.0026 H   0  0  0  0  0  0  0  0  0  0  0  0
  1  5  1  0
  5  8  1  0
  1  2  1  0
  1  3  1  0
  1  4  1  0
  5  6  1  0
  5  7  1  0
  8  9  1  0
  8 10  1  0
  8 11  1  0
 12 16  1  0
 16 17  2  0
 17 19  1  0
 19 21  2  0
 21 23  1  0
 23 25  2  0
 25 16  1  0
 12 13  1  0
 12 14  1  0
 12 15  1  0
 17 18  1  0
 19 20  1  0
 21 22  1  0
 23 24  1  0
 25 26  1  0
M  CHG  1   8   1
M  END
>  <PDB_ID>  (1697) 
pdb3f41

>  <RESIDUE_NAME>  (1697) 
LYS   PHE

>  <FRAG_NAME>  (1697) 
ETAM   MBZ

>  <FRAG_ATOM_NUM>  (1697) 
fragi: 11  fragj: 15

>  <atom.prop.CHAIN_ID>  (1697) 
A A A A A A A A A A A Z Z Z Z Z Z Z Z Z Z Z Z Z Z Z

>  <atom.prop.IS_HEAVY_ATOM>  (1697) 
1 0 0 0 1 0 0 1 0 0 0 1 0 0 0 1 1 0 1 0 1 0 1 0 1 0

>  <DIFUSE_FUNC_ATOM>  (1697) 
n/a

>  <FINAL_SINGLE_POINT_ENERGY>  (1697) 
0

>  <NONCOV_INTER_ENERGY_QM>  (1697) 
0

>  <FF_Energy>  (1697) 
-7.03

>  <QM_Energy>  (1697) 
-13.14

>  <source>  (1697) 
ETAM_MBZ

>  <Index>  (1697) 
17110

$$$$
ETAM-pdb3f4n-A-LYS-177:MBZ-pdb3f4n-A-PHE-138
     RDKit          3D

 26 25  0  0  0  0  0  0  0  0999 V2000
    0.6374   -5.4941   -3.2566 C   0  0  0  0  0  0  0  0  0  0  0  0
    1.5242   -5.9217   -3.0971 H   0  0  0  0  0  0  0  0  0  0  0  0
    0.1977   -5.9113   -4.0493 H   0  0  0  0  0  0  0  0  0  0  0  0
    0.0096   -5.6619   -2.3815 H   0  0  0  0  0  0  0  0  0  0  0  0
    0.8771   -3.9924   -3.5744 C   0  0  0  0  0  0  0  0  0  0  0  0
    1.0656   -3.9017   -4.5538 H   0  0  0  0  0  0  0  0  0  0  0  0
    0.0442   -3.4842   -3.3511 H   0  0  0  0  0  0  0  0  0  0  0  0
    2.0356   -3.4045   -2.7938 N   0  0  0  0  0  4  0  0  0  0  0  0
    1.6790   -2.7293   -2.1564 H   0  0  0  0  0  0  0  0  0  0  0  0
    2.4914   -4.1389   -2.3003 H   0  0  0  0  0  0  0  0  0  0  0  0
    2.6655   -2.9763   -3.4342 H   0  0  0  0  0  0  0  0  0  0  0  0
    0.0169    2.9532    0.0094 C   0  0  0  0  0  0  0  0  0  0  0  0
    0.6217    3.2461   -0.7118 H   0  0  0  0  0  0  0  0  0  0  0  0
    0.3396    3.2349    0.8969 H   0  0  0  0  0  0  0  0  0  0  0  0
   -0.9526    3.4227   -0.1573 H   0  0  0  0  0  0  0  0  0  0  0  0
   -0.0014    1.4079   -0.0044 C   0  0  0  0  0  0  0  0  0  0  0  0
   -1.1860    0.6916   -0.0014 C   0  0  0  0  0  0  0  0  0  0  0  0
   -2.0610    1.1814   -0.0016 H   0  0  0  0  0  0  0  0  0  0  0  0
   -1.1940   -0.6954   -0.0000 C   0  0  0  0  0  0  0  0  0  0  0  0
   -2.0744   -1.1866   -0.0064 H   0  0  0  0  0  0  0  0  0  0  0  0
    0.0003   -1.3971    0.0121 C   0  0  0  0  0  0  0  0  0  0  0  0
   -0.0093   -2.3953    0.0285 H   0  0  0  0  0  0  0  0  0  0  0  0
    1.1940   -0.7048   -0.0000 C   0  0  0  0  0  0  0  0  0  0  0  0
    2.0796   -1.1925   -0.0025 H   0  0  0  0  0  0  0  0  0  0  0  0
    1.1871    0.6978   -0.0063 C   0  0  0  0  0  0  0  0  0  0  0  0
    2.0614    1.1866   -0.0126 H   0  0  0  0  0  0  0  0  0  0  0  0
  1  5  1  0
  5  8  1  0
  1  2  1  0
  1  3  1  0
  1  4  1  0
  5  6  1  0
  5  7  1  0
  8  9  1  0
  8 10  1  0
  8 11  1  0
 12 16  1  0
 16 17  2  0
 17 19  1  0
 19 21  2  0
 21 23  1  0
 23 25  2  0
 25 16  1  0
 12 13  1  0
 12 14  1  0
 12 15  1  0
 17 18  1  0
 19 20  1  0
 21 22  1  0
 23 24  1  0
 25 26  1  0
M  CHG  1   8   1
M  END
>  <PDB_ID>  (1698) 
pdb3f4n

>  <RESIDUE_NAME>  (1698) 
LYS   PHE

>  <FRAG_NAME>  (1698) 
ETAM   MBZ

>  <FRAG_ATOM_NUM>  (1698) 
fragi: 11  fragj: 15

>  <atom.prop.CHAIN_ID>  (1698) 
A A A A A A A A A A A Z Z Z Z Z Z Z Z Z Z Z Z Z Z Z

>  <atom.prop.IS_HEAVY_ATOM>  (1698) 
1 0 0 0 1 0 0 1 0 0 0 1 0 0 0 1 1 0 1 0 1 0 1 0 1 0

>  <DIFUSE_FUNC_ATOM>  (1698) 
n/a

>  <FINAL_SINGLE_POINT_ENERGY>  (1698) 
0

>  <NONCOV_INTER_ENERGY_QM>  (1698) 
0

>  <FF_Energy>  (1698) 
-1.34

>  <QM_Energy>  (1698) 
-6.41

>  <source>  (1698) 
ETAM_MBZ

>  <Index>  (1698) 
17111

$$$$
ETAM-pdb3f4n-E-LYS-177:MBZ-pdb3f4n-E-PHE-138
     RDKit          3D

 26 25  0  0  0  0  0  0  0  0999 V2000
   -1.4133   -3.6846   -3.0373 C   0  0  0  0  0  0  0  0  0  0  0  0
   -0.8060   -4.2862   -3.5298 H   0  0  0  0  0  0  0  0  0  0  0  0
   -2.3486   -3.7855   -3.3335 H   0  0  0  0  0  0  0  0  0  0  0  0
   -1.3574   -3.9315   -1.9770 H   0  0  0  0  0  0  0  0  0  0  0  0
   -0.9707   -2.2089   -3.3133 C   0  0  0  0  0  0  0  0  0  0  0  0
   -1.2805   -1.9587   -4.2498 H   0  0  0  0  0  0  0  0  0  0  0  0
   -1.4742   -1.6042   -2.6671 H   0  0  0  0  0  0  0  0  0  0  0  0
    0.5210   -1.8989   -3.2000 N   0  0  0  0  0  4  0  0  0  0  0  0
    0.8798   -1.7549   -4.1152 H   0  0  0  0  0  0  0  0  0  0  0  0
    0.6288   -1.0794   -2.6495 H   0  0  0  0  0  0  0  0  0  0  0  0
    0.9681   -2.6728   -2.7665 H   0  0  0  0  0  0  0  0  0  0  0  0
    0.0113    2.9457   -0.0099 C   0  0  0  0  0  0  0  0  0  0  0  0
   -0.0749    3.2399   -0.9482 H   0  0  0  0  0  0  0  0  0  0  0  0
    0.8648    3.2420    0.3882 H   0  0  0  0  0  0  0  0  0  0  0  0
   -0.7994    3.4006    0.5594 H   0  0  0  0  0  0  0  0  0  0  0  0
    0.0021    1.4214   -0.0003 C   0  0  0  0  0  0  0  0  0  0  0  0
   -1.2120    0.6983   -0.0074 C   0  0  0  0  0  0  0  0  0  0  0  0
   -2.0718    1.1956   -0.0195 H   0  0  0  0  0  0  0  0  0  0  0  0
   -1.2174   -0.6920   -0.0000 C   0  0  0  0  0  0  0  0  0  0  0  0
   -2.0914   -1.1908   -0.0027 H   0  0  0  0  0  0  0  0  0  0  0  0
   -0.0042   -1.4104    0.0128 C   0  0  0  0  0  0  0  0  0  0  0  0
   -0.0235   -2.4043    0.0309 H   0  0  0  0  0  0  0  0  0  0  0  0
    1.2174   -0.7238   -0.0000 C   0  0  0  0  0  0  0  0  0  0  0  0
    2.0894   -1.2097   -0.0044 H   0  0  0  0  0  0  0  0  0  0  0  0
    1.2142    0.7066   -0.0052 C   0  0  0  0  0  0  0  0  0  0  0  0
    2.0788    1.1883   -0.0130 H   0  0  0  0  0  0  0  0  0  0  0  0
  1  5  1  0
  5  8  1  0
  1  2  1  0
  1  3  1  0
  1  4  1  0
  5  6  1  0
  5  7  1  0
  8  9  1  0
  8 10  1  0
  8 11  1  0
 12 16  1  0
 16 17  2  0
 17 19  1  0
 19 21  2  0
 21 23  1  0
 23 25  2  0
 25 16  1  0
 12 13  1  0
 12 14  1  0
 12 15  1  0
 17 18  1  0
 19 20  1  0
 21 22  1  0
 23 24  1  0
 25 26  1  0
M  CHG  1   8   1
M  END
>  <PDB_ID>  (1699) 
pdb3f4n

>  <RESIDUE_NAME>  (1699) 
LYS   PHE

>  <FRAG_NAME>  (1699) 
ETAM   MBZ

>  <FRAG_ATOM_NUM>  (1699) 
fragi: 11  fragj: 15

>  <atom.prop.CHAIN_ID>  (1699) 
A A A A A A A A A A A Z Z Z Z Z Z Z Z Z Z Z Z Z Z Z

>  <atom.prop.IS_HEAVY_ATOM>  (1699) 
1 0 0 0 1 0 0 1 0 0 0 1 0 0 0 1 1 0 1 0 1 0 1 0 1 0

>  <DIFUSE_FUNC_ATOM>  (1699) 
n/a

>  <FINAL_SINGLE_POINT_ENERGY>  (1699) 
0

>  <NONCOV_INTER_ENERGY_QM>  (1699) 
0

>  <FF_Energy>  (1699) 
-5.77

>  <QM_Energy>  (1699) 
-13.05

>  <source>  (1699) 
ETAM_MBZ

>  <Index>  (1699) 
17113

$$$$
ETAM-pdb4aq1-A-LYS-498:MBZ-pdb4aq1-A-PHE-421
     RDKit          3D

 26 25  0  0  0  0  0  0  0  0999 V2000
   -2.1098   -0.9614   -4.4559 C   0  0  0  0  0  0  0  0  0  0  0  0
   -2.6668   -1.6028   -3.9299 H   0  0  0  0  0  0  0  0  0  0  0  0
   -1.9263   -1.3414   -5.3614 H   0  0  0  0  0  0  0  0  0  0  0  0
   -2.6626   -0.0290   -4.5713 H   0  0  0  0  0  0  0  0  0  0  0  0
   -0.7726   -0.7787   -3.7308 C   0  0  0  0  0  0  0  0  0  0  0  0
   -0.1238   -0.3379   -4.3569 H   0  0  0  0  0  0  0  0  0  0  0  0
   -0.9140   -0.1821   -2.9369 H   0  0  0  0  0  0  0  0  0  0  0  0
   -0.1936   -2.0818   -3.2641 N   0  0  0  0  0  4  0  0  0  0  0  0
   -0.6303   -2.8281   -3.7615 H   0  0  0  0  0  0  0  0  0  0  0  0
    0.7880   -2.0836   -3.4414 H   0  0  0  0  0  0  0  0  0  0  0  0
   -0.3624   -2.1808   -2.2857 H   0  0  0  0  0  0  0  0  0  0  0  0
   -0.0006    2.8816    0.0024 C   0  0  0  0  0  0  0  0  0  0  0  0
    0.8958    3.1915    0.2837 H   0  0  0  0  0  0  0  0  0  0  0  0
   -0.7011    3.1953    0.6267 H   0  0  0  0  0  0  0  0  0  0  0  0
   -0.2089    3.3224   -0.9725 H   0  0  0  0  0  0  0  0  0  0  0  0
   -0.0041    1.3902    0.0019 C   0  0  0  0  0  0  0  0  0  0  0  0
   -1.1881    0.6969    0.0026 C   0  0  0  0  0  0  0  0  0  0  0  0
   -2.0582    1.1882    0.0035 H   0  0  0  0  0  0  0  0  0  0  0  0
   -1.1947   -0.6828    0.0000 C   0  0  0  0  0  0  0  0  0  0  0  0
   -2.0748   -1.1787   -0.0006 H   0  0  0  0  0  0  0  0  0  0  0  0
    0.0003   -1.3851   -0.0004 C   0  0  0  0  0  0  0  0  0  0  0  0
   -0.0132   -2.3854   -0.0016 H   0  0  0  0  0  0  0  0  0  0  0  0
    1.1947   -0.7007   -0.0000 C   0  0  0  0  0  0  0  0  0  0  0  0
    2.0767   -1.2006    0.0052 H   0  0  0  0  0  0  0  0  0  0  0  0
    1.1919    0.6815   -0.0041 C   0  0  0  0  0  0  0  0  0  0  0  0
    2.0592    1.1806   -0.0122 H   0  0  0  0  0  0  0  0  0  0  0  0
  1  5  1  0
  5  8  1  0
  1  2  1  0
  1  3  1  0
  1  4  1  0
  5  6  1  0
  5  7  1  0
  8  9  1  0
  8 10  1  0
  8 11  1  0
 12 16  1  0
 16 17  2  0
 17 19  1  0
 19 21  2  0
 21 23  1  0
 23 25  2  0
 25 16  1  0
 12 13  1  0
 12 14  1  0
 12 15  1  0
 17 18  1  0
 19 20  1  0
 21 22  1  0
 23 24  1  0
 25 26  1  0
M  CHG  1   8   1
M  END
>  <PDB_ID>  (1700) 
pdb4aq1

>  <RESIDUE_NAME>  (1700) 
LYS   PHE

>  <FRAG_NAME>  (1700) 
ETAM   MBZ

>  <FRAG_ATOM_NUM>  (1700) 
fragi: 11  fragj: 15

>  <atom.prop.CHAIN_ID>  (1700) 
A A A A A A A A A A A Z Z Z Z Z Z Z Z Z Z Z Z Z Z Z

>  <atom.prop.IS_HEAVY_ATOM>  (1700) 
1 0 0 0 1 0 0 1 0 0 0 1 0 0 0 1 1 0 1 0 1 0 1 0 1 0

>  <DIFUSE_FUNC_ATOM>  (1700) 
n/a

>  <FINAL_SINGLE_POINT_ENERGY>  (1700) 
0

>  <NONCOV_INTER_ENERGY_QM>  (1700) 
0

>  <FF_Energy>  (1700) 
-5.54

>  <QM_Energy>  (1700) 
-12.89

>  <source>  (1700) 
ETAM_MBZ

>  <Index>  (1700) 
17119

$$$$
ETAM-pdb3f6a-B-LYS-14:MBZ-pdb3f6a-B-PHE-108
     RDKit          3D

 26 25  0  0  0  0  0  0  0  0999 V2000
    2.7786   -2.5014   -2.3099 C   0  0  0  0  0  0  0  0  0  0  0  0
    2.2511   -2.1825   -1.5343 H   0  0  0  0  0  0  0  0  0  0  0  0
    3.4701   -3.1516   -2.0277 H   0  0  0  0  0  0  0  0  0  0  0  0
    2.1094   -2.9766   -3.0272 H   0  0  0  0  0  0  0  0  0  0  0  0
    3.4768   -1.3001   -2.9450 C   0  0  0  0  0  0  0  0  0  0  0  0
    4.0934   -1.6301   -3.6666 H   0  0  0  0  0  0  0  0  0  0  0  0
    2.7814   -0.7079   -3.3641 H   0  0  0  0  0  0  0  0  0  0  0  0
    4.2604   -0.5101   -1.9541 N   0  0  0  0  0  4  0  0  0  0  0  0
    4.7598   -1.1338   -1.3544 H   0  0  0  0  0  0  0  0  0  0  0  0
    4.9064    0.0793   -2.4377 H   0  0  0  0  0  0  0  0  0  0  0  0
    3.6372    0.0506   -1.4102 H   0  0  0  0  0  0  0  0  0  0  0  0
   -0.0022    2.9056    0.0373 C   0  0  0  0  0  0  0  0  0  0  0  0
    0.9344    3.2174   -0.0386 H   0  0  0  0  0  0  0  0  0  0  0  0
   -0.4062    3.1917    0.8945 H   0  0  0  0  0  0  0  0  0  0  0  0
   -0.5714    3.3713   -0.7672 H   0  0  0  0  0  0  0  0  0  0  0  0
    0.0011    1.4030    0.0007 C   0  0  0  0  0  0  0  0  0  0  0  0
   -1.1944    0.6915   -0.0007 C   0  0  0  0  0  0  0  0  0  0  0  0
   -2.0627    1.1836   -0.0030 H   0  0  0  0  0  0  0  0  0  0  0  0
   -1.2038   -0.6991    0.0000 C   0  0  0  0  0  0  0  0  0  0  0  0
   -2.0807   -1.1900    0.0012 H   0  0  0  0  0  0  0  0  0  0  0  0
   -0.0036   -1.3973    0.0003 C   0  0  0  0  0  0  0  0  0  0  0  0
   -0.0044   -2.3934    0.0001 H   0  0  0  0  0  0  0  0  0  0  0  0
    1.2038   -0.6961   -0.0000 C   0  0  0  0  0  0  0  0  0  0  0  0
    2.0829   -1.1937    0.0017 H   0  0  0  0  0  0  0  0  0  0  0  0
    1.1969    0.6980   -0.0003 C   0  0  0  0  0  0  0  0  0  0  0  0
    2.0649    1.1935   -0.0019 H   0  0  0  0  0  0  0  0  0  0  0  0
  1  5  1  0
  5  8  1  0
  1  2  1  0
  1  3  1  0
  1  4  1  0
  5  6  1  0
  5  7  1  0
  8  9  1  0
  8 10  1  0
  8 11  1  0
 12 16  1  0
 16 17  2  0
 17 19  1  0
 19 21  2  0
 21 23  1  0
 23 25  2  0
 25 16  1  0
 12 13  1  0
 12 14  1  0
 12 15  1  0
 17 18  1  0
 19 20  1  0
 21 22  1  0
 23 24  1  0
 25 26  1  0
M  CHG  1   8   1
M  END
>  <PDB_ID>  (1701) 
pdb3f6a

>  <RESIDUE_NAME>  (1701) 
LYS   PHE

>  <FRAG_NAME>  (1701) 
ETAM   MBZ

>  <FRAG_ATOM_NUM>  (1701) 
fragi: 11  fragj: 15

>  <atom.prop.CHAIN_ID>  (1701) 
A A A A A A A A A A A Z Z Z Z Z Z Z Z Z Z Z Z Z Z Z

>  <atom.prop.IS_HEAVY_ATOM>  (1701) 
1 0 0 0 1 0 0 1 0 0 0 1 0 0 0 1 1 0 1 0 1 0 1 0 1 0

>  <DIFUSE_FUNC_ATOM>  (1701) 
n/a

>  <FINAL_SINGLE_POINT_ENERGY>  (1701) 
0

>  <NONCOV_INTER_ENERGY_QM>  (1701) 
0

>  <FF_Energy>  (1701) 
3.51

>  <QM_Energy>  (1701) 
-4.01

>  <source>  (1701) 
ETAM_MBZ

>  <Index>  (1701) 
17138

$$$$
ETAM-pdb4as2-A-LYS-65:MBZ-pdb4as2-A-PHE-69
     RDKit          3D

 26 25  0  0  0  0  0  0  0  0999 V2000
   -5.1296   -1.3588    0.5163 C   0  0  0  0  0  0  0  0  0  0  0  0
   -4.7696   -2.0410   -0.1156 H   0  0  0  0  0  0  0  0  0  0  0  0
   -6.1247   -1.3392    0.4651 H   0  0  0  0  0  0  0  0  0  0  0  0
   -4.8276   -1.6169    1.5314 H   0  0  0  0  0  0  0  0  0  0  0  0
   -4.6042    0.0243    0.0707 C   0  0  0  0  0  0  0  0  0  0  0  0
   -3.5975    0.0557    0.2675 H   0  0  0  0  0  0  0  0  0  0  0  0
   -4.6819    0.0743   -0.9518 H   0  0  0  0  0  0  0  0  0  0  0  0
   -5.2470    1.2369    0.6612 N   0  0  0  0  0  4  0  0  0  0  0  0
   -5.0515    2.0268    0.0828 H   0  0  0  0  0  0  0  0  0  0  0  0
   -6.2341    1.0935    0.7137 H   0  0  0  0  0  0  0  0  0  0  0  0
   -4.8799    1.3904    1.5769 H   0  0  0  0  0  0  0  0  0  0  0  0
    0.0010    2.8901    0.0159 C   0  0  0  0  0  0  0  0  0  0  0  0
   -0.7893    3.2003   -0.4921 H   0  0  0  0  0  0  0  0  0  0  0  0
    0.8411    3.2039   -0.4010 H   0  0  0  0  0  0  0  0  0  0  0  0
   -0.0560    3.3111    1.0196 H   0  0  0  0  0  0  0  0  0  0  0  0
    0.0054    1.3966    0.0002 C   0  0  0  0  0  0  0  0  0  0  0  0
   -1.1795    0.7022    0.0104 C   0  0  0  0  0  0  0  0  0  0  0  0
   -2.0493    1.1826    0.0241 H   0  0  0  0  0  0  0  0  0  0  0  0
   -1.1755   -0.6898   -0.0000 C   0  0  0  0  0  0  0  0  0  0  0  0
   -2.0714   -1.1750   -0.0030 H   0  0  0  0  0  0  0  0  0  0  0  0
   -0.0072   -1.3898   -0.0046 C   0  0  0  0  0  0  0  0  0  0  0  0
   -0.0172   -2.3916   -0.0121 H   0  0  0  0  0  0  0  0  0  0  0  0
    1.1755   -0.7066   -0.0000 C   0  0  0  0  0  0  0  0  0  0  0  0
    2.0654   -1.2006    0.0095 H   0  0  0  0  0  0  0  0  0  0  0  0
    1.1813    0.6875   -0.0060 C   0  0  0  0  0  0  0  0  0  0  0  0
    2.0601    1.1697   -0.0164 H   0  0  0  0  0  0  0  0  0  0  0  0
  1  5  1  0
  5  8  1  0
  1  2  1  0
  1  3  1  0
  1  4  1  0
  5  6  1  0
  5  7  1  0
  8  9  1  0
  8 10  1  0
  8 11  1  0
 12 16  1  0
 16 17  2  0
 17 19  1  0
 19 21  2  0
 21 23  1  0
 23 25  2  0
 25 16  1  0
 12 13  1  0
 12 14  1  0
 12 15  1  0
 17 18  1  0
 19 20  1  0
 21 22  1  0
 23 24  1  0
 25 26  1  0
M  CHG  1   8   1
M  END
>  <PDB_ID>  (1702) 
pdb4as2

>  <RESIDUE_NAME>  (1702) 
LYS   PHE

>  <FRAG_NAME>  (1702) 
ETAM   MBZ

>  <FRAG_ATOM_NUM>  (1702) 
fragi: 11  fragj: 15

>  <atom.prop.CHAIN_ID>  (1702) 
A A A A A A A A A A A Z Z Z Z Z Z Z Z Z Z Z Z Z Z Z

>  <atom.prop.IS_HEAVY_ATOM>  (1702) 
1 0 0 0 1 0 0 1 0 0 0 1 0 0 0 1 1 0 1 0 1 0 1 0 1 0

>  <DIFUSE_FUNC_ATOM>  (1702) 
n/a

>  <FINAL_SINGLE_POINT_ENERGY>  (1702) 
0

>  <NONCOV_INTER_ENERGY_QM>  (1702) 
0

>  <FF_Energy>  (1702) 
4.3

>  <QM_Energy>  (1702) 
-1.61

>  <source>  (1702) 
ETAM_MBZ

>  <Index>  (1702) 
17139

$$$$
ETAM-pdb3f6a-A-LYS-14:MBZ-pdb3f6a-A-PHE-108
     RDKit          3D

 26 25  0  0  0  0  0  0  0  0999 V2000
    1.5201   -3.7793   -1.5909 C   0  0  0  0  0  0  0  0  0  0  0  0
    2.2406   -3.8069   -2.2754 H   0  0  0  0  0  0  0  0  0  0  0  0
    1.6375   -2.9934   -0.9939 H   0  0  0  0  0  0  0  0  0  0  0  0
    0.5557   -3.7036   -2.0932 H   0  0  0  0  0  0  0  0  0  0  0  0
    1.6099   -5.0465   -0.7450 C   0  0  0  0  0  0  0  0  0  0  0  0
    1.3928   -5.8377   -1.3231 H   0  0  0  0  0  0  0  0  0  0  0  0
    2.5484   -5.1415   -0.4028 H   0  0  0  0  0  0  0  0  0  0  0  0
    0.6679   -5.0149    0.4142 N   0  0  0  0  0  4  0  0  0  0  0  0
    0.3049   -5.9326    0.5687 H   0  0  0  0  0  0  0  0  0  0  0  0
    1.1580   -4.7055    1.2276 H   0  0  0  0  0  0  0  0  0  0  0  0
   -0.0814   -4.3857    0.2117 H   0  0  0  0  0  0  0  0  0  0  0  0
    0.0046    2.8965    0.0647 C   0  0  0  0  0  0  0  0  0  0  0  0
    0.9434    3.2065   -0.0049 H   0  0  0  0  0  0  0  0  0  0  0  0
   -0.3967    3.1702    0.9286 H   0  0  0  0  0  0  0  0  0  0  0  0
   -0.5628    3.3791   -0.7312 H   0  0  0  0  0  0  0  0  0  0  0  0
    0.0006    1.4016    0.0010 C   0  0  0  0  0  0  0  0  0  0  0  0
   -1.1965    0.6973   -0.0008 C   0  0  0  0  0  0  0  0  0  0  0  0
   -2.0621    1.1872   -0.0041 H   0  0  0  0  0  0  0  0  0  0  0  0
   -1.2022   -0.6953    0.0000 C   0  0  0  0  0  0  0  0  0  0  0  0
   -2.0802   -1.1873    0.0003 H   0  0  0  0  0  0  0  0  0  0  0  0
   -0.0030   -1.3936    0.0021 C   0  0  0  0  0  0  0  0  0  0  0  0
   -0.0086   -2.3929    0.0041 H   0  0  0  0  0  0  0  0  0  0  0  0
    1.2022   -0.7009   -0.0000 C   0  0  0  0  0  0  0  0  0  0  0  0
    2.0808   -1.2003    0.0018 H   0  0  0  0  0  0  0  0  0  0  0  0
    1.1990    0.6910   -0.0023 C   0  0  0  0  0  0  0  0  0  0  0  0
    2.0668    1.1869   -0.0080 H   0  0  0  0  0  0  0  0  0  0  0  0
  1  5  1  0
  5  8  1  0
  1  2  1  0
  1  3  1  0
  1  4  1  0
  5  6  1  0
  5  7  1  0
  8  9  1  0
  8 10  1  0
  8 11  1  0
 12 16  1  0
 16 17  2  0
 17 19  1  0
 19 21  2  0
 21 23  1  0
 23 25  2  0
 25 16  1  0
 12 13  1  0
 12 14  1  0
 12 15  1  0
 17 18  1  0
 19 20  1  0
 21 22  1  0
 23 24  1  0
 25 26  1  0
M  CHG  1   8   1
M  END
>  <PDB_ID>  (1703) 
pdb3f6a

>  <RESIDUE_NAME>  (1703) 
LYS   PHE

>  <FRAG_NAME>  (1703) 
ETAM   MBZ

>  <FRAG_ATOM_NUM>  (1703) 
fragi: 11  fragj: 15

>  <atom.prop.CHAIN_ID>  (1703) 
A A A A A A A A A A A Z Z Z Z Z Z Z Z Z Z Z Z Z Z Z

>  <atom.prop.IS_HEAVY_ATOM>  (1703) 
1 0 0 0 1 0 0 1 0 0 0 1 0 0 0 1 1 0 1 0 1 0 1 0 1 0

>  <DIFUSE_FUNC_ATOM>  (1703) 
n/a

>  <FINAL_SINGLE_POINT_ENERGY>  (1703) 
0

>  <NONCOV_INTER_ENERGY_QM>  (1703) 
0

>  <FF_Energy>  (1703) 
4.63

>  <QM_Energy>  (1703) 
-1.62

>  <source>  (1703) 
ETAM_MBZ

>  <Index>  (1703) 
17141

$$$$
ETAM-pdb3f0y-G-LYS-164:MBZ-pdb3f0y-G-PHE-235
     RDKit          3D

 26 25  0  0  0  0  0  0  0  0999 V2000
    0.5175   -1.3296    3.8335 C   0  0  0  0  0  0  0  0  0  0  0  0
    0.4542   -2.1542    3.2885 H   0  0  0  0  0  0  0  0  0  0  0  0
    0.3817   -1.5267    4.7944 H   0  0  0  0  0  0  0  0  0  0  0  0
    1.5044   -0.8877    3.6958 H   0  0  0  0  0  0  0  0  0  0  0  0
   -0.5510   -0.3620    3.3793 C   0  0  0  0  0  0  0  0  0  0  0  0
   -0.5802    0.4202    4.0156 H   0  0  0  0  0  0  0  0  0  0  0  0
   -0.3118   -0.0107    2.4644 H   0  0  0  0  0  0  0  0  0  0  0  0
   -1.9087   -0.9807    3.3161 N   0  0  0  0  0  4  0  0  0  0  0  0
   -2.5894   -0.3105    3.6066 H   0  0  0  0  0  0  0  0  0  0  0  0
   -2.0966   -1.2665    2.3774 H   0  0  0  0  0  0  0  0  0  0  0  0
   -1.9369   -1.7747    3.9219 H   0  0  0  0  0  0  0  0  0  0  0  0
    0.0048    2.8918   -0.0131 C   0  0  0  0  0  0  0  0  0  0  0  0
   -0.8688    3.2003   -0.3632 H   0  0  0  0  0  0  0  0  0  0  0  0
    0.7481    3.1935   -0.5937 H   0  0  0  0  0  0  0  0  0  0  0  0
    0.1469    3.3469    0.9672 H   0  0  0  0  0  0  0  0  0  0  0  0
    0.0006    1.3966    0.0029 C   0  0  0  0  0  0  0  0  0  0  0  0
   -1.1938    0.6906   -0.0023 C   0  0  0  0  0  0  0  0  0  0  0  0
   -2.0612    1.1817   -0.0086 H   0  0  0  0  0  0  0  0  0  0  0  0
   -1.1984   -0.6966   -0.0000 C   0  0  0  0  0  0  0  0  0  0  0  0
   -2.0755   -1.1906    0.0012 H   0  0  0  0  0  0  0  0  0  0  0  0
   -0.0009   -1.3883    0.0017 C   0  0  0  0  0  0  0  0  0  0  0  0
   -0.0028   -2.3886    0.0038 H   0  0  0  0  0  0  0  0  0  0  0  0
    1.1984   -0.6937   -0.0000 C   0  0  0  0  0  0  0  0  0  0  0  0
    2.0795   -1.1937    0.0017 H   0  0  0  0  0  0  0  0  0  0  0  0
    1.1941    0.6913   -0.0023 C   0  0  0  0  0  0  0  0  0  0  0  0
    2.0630    1.1894   -0.0087 H   0  0  0  0  0  0  0  0  0  0  0  0
  1  5  1  0
  5  8  1  0
  1  2  1  0
  1  3  1  0
  1  4  1  0
  5  6  1  0
  5  7  1  0
  8  9  1  0
  8 10  1  0
  8 11  1  0
 12 16  1  0
 16 17  2  0
 17 19  1  0
 19 21  2  0
 21 23  1  0
 23 25  2  0
 25 16  1  0
 12 13  1  0
 12 14  1  0
 12 15  1  0
 17 18  1  0
 19 20  1  0
 21 22  1  0
 23 24  1  0
 25 26  1  0
M  CHG  1   8   1
M  END
>  <PDB_ID>  (1704) 
pdb3f0y

>  <RESIDUE_NAME>  (1704) 
LYS   PHE

>  <FRAG_NAME>  (1704) 
ETAM   MBZ

>  <FRAG_ATOM_NUM>  (1704) 
fragi: 11  fragj: 15

>  <atom.prop.CHAIN_ID>  (1704) 
A A A A A A A A A A A Z Z Z Z Z Z Z Z Z Z Z Z Z Z Z

>  <atom.prop.IS_HEAVY_ATOM>  (1704) 
1 0 0 0 1 0 0 1 0 0 0 1 0 0 0 1 1 0 1 0 1 0 1 0 1 0

>  <DIFUSE_FUNC_ATOM>  (1704) 
n/a

>  <FINAL_SINGLE_POINT_ENERGY>  (1704) 
0

>  <NONCOV_INTER_ENERGY_QM>  (1704) 
0

>  <FF_Energy>  (1704) 
-5.2

>  <QM_Energy>  (1704) 
-12.99

>  <source>  (1704) 
ETAM_MBZ

>  <Index>  (1704) 
17163

$$$$
ETAM-pdb3f41-B-LYS-59:MBZ-pdb3f41-B-PHE-182
     RDKit          3D

 26 25  0  0  0  0  0  0  0  0999 V2000
   -0.8423    2.4624   -3.8202 C   0  0  0  0  0  0  0  0  0  0  0  0
   -0.5448    2.9167   -4.6414 H   0  0  0  0  0  0  0  0  0  0  0  0
   -0.5586    2.9420   -3.0080 H   0  0  0  0  0  0  0  0  0  0  0  0
   -1.9293    2.3828   -3.8293 H   0  0  0  0  0  0  0  0  0  0  0  0
   -0.2199    1.0548   -3.7931 C   0  0  0  0  0  0  0  0  0  0  0  0
   -0.6984    0.5094   -3.0898 H   0  0  0  0  0  0  0  0  0  0  0  0
   -0.3864    0.6158   -4.6887 H   0  0  0  0  0  0  0  0  0  0  0  0
    1.2488    1.0396   -3.5075 N   0  0  0  0  0  4  0  0  0  0  0  0
    1.6077    0.1247   -3.6833 H   0  0  0  0  0  0  0  0  0  0  0  0
    1.7045    1.7005   -4.1005 H   0  0  0  0  0  0  0  0  0  0  0  0
    1.3990    1.2827   -2.5510 H   0  0  0  0  0  0  0  0  0  0  0  0
    0.0062    2.9043   -0.0032 C   0  0  0  0  0  0  0  0  0  0  0  0
   -0.6691    3.2162   -0.6568 H   0  0  0  0  0  0  0  0  0  0  0  0
    0.9133    3.2094   -0.2551 H   0  0  0  0  0  0  0  0  0  0  0  0
   -0.2355    3.3586    0.9577 H   0  0  0  0  0  0  0  0  0  0  0  0
   -0.0014    1.4021    0.0001 C   0  0  0  0  0  0  0  0  0  0  0  0
   -1.1973    0.7003    0.0003 C   0  0  0  0  0  0  0  0  0  0  0  0
   -2.0638    1.1849   -0.0004 H   0  0  0  0  0  0  0  0  0  0  0  0
   -1.2000   -0.6979    0.0000 C   0  0  0  0  0  0  0  0  0  0  0  0
   -2.0762   -1.1891    0.0011 H   0  0  0  0  0  0  0  0  0  0  0  0
    0.0026   -1.3913   -0.0002 C   0  0  0  0  0  0  0  0  0  0  0  0
   -0.0041   -2.3933   -0.0009 H   0  0  0  0  0  0  0  0  0  0  0  0
    1.2000   -0.7016    0.0000 C   0  0  0  0  0  0  0  0  0  0  0  0
    2.0823   -1.1982    0.0015 H   0  0  0  0  0  0  0  0  0  0  0  0
    1.1961    0.6885   -0.0002 C   0  0  0  0  0  0  0  0  0  0  0  0
    2.0652    1.1854   -0.0013 H   0  0  0  0  0  0  0  0  0  0  0  0
  1  5  1  0
  5  8  1  0
  1  2  1  0
  1  3  1  0
  1  4  1  0
  5  6  1  0
  5  7  1  0
  8  9  1  0
  8 10  1  0
  8 11  1  0
 12 16  1  0
 16 17  2  0
 17 19  1  0
 19 21  2  0
 21 23  1  0
 23 25  2  0
 25 16  1  0
 12 13  1  0
 12 14  1  0
 12 15  1  0
 17 18  1  0
 19 20  1  0
 21 22  1  0
 23 24  1  0
 25 26  1  0
M  CHG  1   8   1
M  END
>  <PDB_ID>  (1705) 
pdb3f41

>  <RESIDUE_NAME>  (1705) 
LYS   PHE

>  <FRAG_NAME>  (1705) 
ETAM   MBZ

>  <FRAG_ATOM_NUM>  (1705) 
fragi: 11  fragj: 15

>  <atom.prop.CHAIN_ID>  (1705) 
A A A A A A A A A A A Z Z Z Z Z Z Z Z Z Z Z Z Z Z Z

>  <atom.prop.IS_HEAVY_ATOM>  (1705) 
1 0 0 0 1 0 0 1 0 0 0 1 0 0 0 1 1 0 1 0 1 0 1 0 1 0

>  <DIFUSE_FUNC_ATOM>  (1705) 
n/a

>  <FINAL_SINGLE_POINT_ENERGY>  (1705) 
0

>  <NONCOV_INTER_ENERGY_QM>  (1705) 
0

>  <FF_Energy>  (1705) 
-7.32

>  <QM_Energy>  (1705) 
-12.75

>  <source>  (1705) 
ETAM_MBZ

>  <Index>  (1705) 
17188

$$$$
ETAM-pdb3fal-D-LYS-432:MBZ-pdb3fal-A-PHE-277
     RDKit          3D

 26 25  0  0  0  0  0  0  0  0999 V2000
   -2.9581   -0.3411    4.3219 C   0  0  0  0  0  0  0  0  0  0  0  0
   -3.4674   -0.4538    5.1679 H   0  0  0  0  0  0  0  0  0  0  0  0
   -2.0346   -0.6936    4.4209 H   0  0  0  0  0  0  0  0  0  0  0  0
   -3.4634   -0.8964    3.5316 H   0  0  0  0  0  0  0  0  0  0  0  0
   -2.8747    1.1545    4.0007 C   0  0  0  0  0  0  0  0  0  0  0  0
   -3.8075    1.5060    3.8614 H   0  0  0  0  0  0  0  0  0  0  0  0
   -2.4705    1.6314    4.7903 H   0  0  0  0  0  0  0  0  0  0  0  0
   -2.0563    1.4446    2.7835 N   0  0  0  0  0  4  0  0  0  0  0  0
   -1.7881    2.4067    2.7902 H   0  0  0  0  0  0  0  0  0  0  0  0
   -1.2414    0.8669    2.7905 H   0  0  0  0  0  0  0  0  0  0  0  0
   -2.6002    1.2511    1.9691 H   0  0  0  0  0  0  0  0  0  0  0  0
   -0.0020    2.8911   -0.0087 C   0  0  0  0  0  0  0  0  0  0  0  0
    0.8818    3.2028    0.3055 H   0  0  0  0  0  0  0  0  0  0  0  0
   -0.7273    3.2025    0.5860 H   0  0  0  0  0  0  0  0  0  0  0  0
   -0.1741    3.3135   -0.9987 H   0  0  0  0  0  0  0  0  0  0  0  0
   -0.0001    1.3958    0.0039 C   0  0  0  0  0  0  0  0  0  0  0  0
   -1.1963    0.6907   -0.0040 C   0  0  0  0  0  0  0  0  0  0  0  0
   -2.0622    1.1845   -0.0142 H   0  0  0  0  0  0  0  0  0  0  0  0
   -1.2022   -0.6938    0.0000 C   0  0  0  0  0  0  0  0  0  0  0  0
   -2.0764   -1.1908    0.0040 H   0  0  0  0  0  0  0  0  0  0  0  0
    0.0023   -1.3910    0.0005 C   0  0  0  0  0  0  0  0  0  0  0  0
   -0.0032   -2.3889    0.0012 H   0  0  0  0  0  0  0  0  0  0  0  0
    1.2022   -0.6942   -0.0000 C   0  0  0  0  0  0  0  0  0  0  0  0
    2.0833   -1.1919    0.0013 H   0  0  0  0  0  0  0  0  0  0  0  0
    1.1940    0.6925   -0.0005 C   0  0  0  0  0  0  0  0  0  0  0  0
    2.0624    1.1917   -0.0054 H   0  0  0  0  0  0  0  0  0  0  0  0
  1  5  1  0
  5  8  1  0
  1  2  1  0
  1  3  1  0
  1  4  1  0
  5  6  1  0
  5  7  1  0
  8  9  1  0
  8 10  1  0
  8 11  1  0
 12 16  1  0
 16 17  2  0
 17 19  1  0
 19 21  2  0
 21 23  1  0
 23 25  2  0
 25 16  1  0
 12 13  1  0
 12 14  1  0
 12 15  1  0
 17 18  1  0
 19 20  1  0
 21 22  1  0
 23 24  1  0
 25 26  1  0
M  CHG  1   8   1
M  END
>  <PDB_ID>  (1706) 
pdb3fal

>  <RESIDUE_NAME>  (1706) 
LYS   PHE

>  <FRAG_NAME>  (1706) 
ETAM   MBZ

>  <FRAG_ATOM_NUM>  (1706) 
fragi: 11  fragj: 15

>  <atom.prop.CHAIN_ID>  (1706) 
A A A A A A A A A A A Z Z Z Z Z Z Z Z Z Z Z Z Z Z Z

>  <atom.prop.IS_HEAVY_ATOM>  (1706) 
1 0 0 0 1 0 0 1 0 0 0 1 0 0 0 1 1 0 1 0 1 0 1 0 1 0

>  <DIFUSE_FUNC_ATOM>  (1706) 
n/a

>  <FINAL_SINGLE_POINT_ENERGY>  (1706) 
0

>  <NONCOV_INTER_ENERGY_QM>  (1706) 
0

>  <FF_Energy>  (1706) 
-3.66

>  <QM_Energy>  (1706) 
-9.1

>  <source>  (1706) 
ETAM_MBZ

>  <Index>  (1706) 
17222

$$$$
ETAM-pdb3fay-A-LYS-1230:MBZ-pdb3fay-A-PHE-1241
     RDKit          3D

 26 25  0  0  0  0  0  0  0  0999 V2000
    3.3603   -4.4642    0.0515 C   0  0  0  0  0  0  0  0  0  0  0  0
    4.1354   -5.0552   -0.1492 H   0  0  0  0  0  0  0  0  0  0  0  0
    2.7517   -4.4126   -0.7336 H   0  0  0  0  0  0  0  0  0  0  0  0
    2.8115   -4.8799    0.8966 H   0  0  0  0  0  0  0  0  0  0  0  0
    3.8794   -3.0690    0.3551 C   0  0  0  0  0  0  0  0  0  0  0  0
    3.1102   -2.4885    0.6363 H   0  0  0  0  0  0  0  0  0  0  0  0
    4.5375   -3.1228    1.1125 H   0  0  0  0  0  0  0  0  0  0  0  0
    4.5476   -2.4521   -0.8274 N   0  0  0  0  0  4  0  0  0  0  0  0
    5.5116   -2.7133   -0.8350 H   0  0  0  0  0  0  0  0  0  0  0  0
    4.1049   -2.7763   -1.6626 H   0  0  0  0  0  0  0  0  0  0  0  0
    4.4687   -1.4576   -0.7690 H   0  0  0  0  0  0  0  0  0  0  0  0
    0.0094    2.8967    0.0692 C   0  0  0  0  0  0  0  0  0  0  0  0
   -0.8719    3.2247   -0.2346 H   0  0  0  0  0  0  0  0  0  0  0  0
    0.7373    3.2295   -0.5107 H   0  0  0  0  0  0  0  0  0  0  0  0
    0.1809    3.2831    1.0739 H   0  0  0  0  0  0  0  0  0  0  0  0
    0.0020    1.4055    0.0009 C   0  0  0  0  0  0  0  0  0  0  0  0
   -1.1971    0.7026   -0.0014 C   0  0  0  0  0  0  0  0  0  0  0  0
   -2.0631    1.1906   -0.0052 H   0  0  0  0  0  0  0  0  0  0  0  0
   -1.2079   -0.7009   -0.0000 C   0  0  0  0  0  0  0  0  0  0  0  0
   -2.0865   -1.1861    0.0014 H   0  0  0  0  0  0  0  0  0  0  0  0
   -0.0059   -1.4044    0.0015 C   0  0  0  0  0  0  0  0  0  0  0  0
   -0.0081   -2.3986    0.0031 H   0  0  0  0  0  0  0  0  0  0  0  0
    1.2079   -0.7026   -0.0000 C   0  0  0  0  0  0  0  0  0  0  0  0
    2.0838   -1.1984    0.0016 H   0  0  0  0  0  0  0  0  0  0  0  0
    1.2010    0.6998   -0.0010 C   0  0  0  0  0  0  0  0  0  0  0  0
    2.0685    1.1928   -0.0041 H   0  0  0  0  0  0  0  0  0  0  0  0
  1  5  1  0
  5  8  1  0
  1  2  1  0
  1  3  1  0
  1  4  1  0
  5  6  1  0
  5  7  1  0
  8  9  1  0
  8 10  1  0
  8 11  1  0
 12 16  1  0
 16 17  2  0
 17 19  1  0
 19 21  2  0
 21 23  1  0
 23 25  2  0
 25 16  1  0
 12 13  1  0
 12 14  1  0
 12 15  1  0
 17 18  1  0
 19 20  1  0
 21 22  1  0
 23 24  1  0
 25 26  1  0
M  CHG  1   8   1
M  END
>  <PDB_ID>  (1707) 
pdb3fay

>  <RESIDUE_NAME>  (1707) 
LYS   PHE

>  <FRAG_NAME>  (1707) 
ETAM   MBZ

>  <FRAG_ATOM_NUM>  (1707) 
fragi: 11  fragj: 15

>  <atom.prop.CHAIN_ID>  (1707) 
A A A A A A A A A A A Z Z Z Z Z Z Z Z Z Z Z Z Z Z Z

>  <atom.prop.IS_HEAVY_ATOM>  (1707) 
1 0 0 0 1 0 0 1 0 0 0 1 0 0 0 1 1 0 1 0 1 0 1 0 1 0

>  <DIFUSE_FUNC_ATOM>  (1707) 
n/a

>  <FINAL_SINGLE_POINT_ENERGY>  (1707) 
0

>  <NONCOV_INTER_ENERGY_QM>  (1707) 
0

>  <FF_Energy>  (1707) 
5.77

>  <QM_Energy>  (1707) 
-1.63

>  <source>  (1707) 
ETAM_MBZ

>  <Index>  (1707) 
17228

$$$$
ETAM-pdb4aq1-C-LYS-416:MBZ-pdb4aq1-C-PHE-411
     RDKit          3D

 26 25  0  0  0  0  0  0  0  0999 V2000
   -0.4716   -2.3112    3.5687 C   0  0  0  0  0  0  0  0  0  0  0  0
   -0.3360   -3.1486    4.0756 H   0  0  0  0  0  0  0  0  0  0  0  0
   -0.2835   -2.4356    2.6070 H   0  0  0  0  0  0  0  0  0  0  0  0
   -1.5024   -1.9797    3.6936 H   0  0  0  0  0  0  0  0  0  0  0  0
    0.4789   -1.2543    4.1155 C   0  0  0  0  0  0  0  0  0  0  0  0
   -0.0036   -0.3923    4.1864 H   0  0  0  0  0  0  0  0  0  0  0  0
    0.8118   -1.5480    5.0009 H   0  0  0  0  0  0  0  0  0  0  0  0
    1.6161   -1.1129    3.1765 N   0  0  0  0  0  4  0  0  0  0  0  0
    1.2717   -1.0617    2.2385 H   0  0  0  0  0  0  0  0  0  0  0  0
    2.1249   -0.2780    3.3894 H   0  0  0  0  0  0  0  0  0  0  0  0
    2.2237   -1.9036    3.2646 H   0  0  0  0  0  0  0  0  0  0  0  0
    0.0025    2.8919   -0.0329 C   0  0  0  0  0  0  0  0  0  0  0  0
   -0.6565    3.1777   -0.7182 H   0  0  0  0  0  0  0  0  0  0  0  0
    0.9182    3.1831   -0.2850 H   0  0  0  0  0  0  0  0  0  0  0  0
   -0.2588    3.3706    0.9108 H   0  0  0  0  0  0  0  0  0  0  0  0
   -0.0047    1.3938    0.0126 C   0  0  0  0  0  0  0  0  0  0  0  0
   -1.1934    0.7018    0.0036 C   0  0  0  0  0  0  0  0  0  0  0  0
   -2.0626    1.1893   -0.0018 H   0  0  0  0  0  0  0  0  0  0  0  0
   -1.2032   -0.6924   -0.0000 C   0  0  0  0  0  0  0  0  0  0  0  0
   -2.0782   -1.1839    0.0042 H   0  0  0  0  0  0  0  0  0  0  0  0
    0.0033   -1.3948   -0.0079 C   0  0  0  0  0  0  0  0  0  0  0  0
   -0.0008   -2.3891   -0.0195 H   0  0  0  0  0  0  0  0  0  0  0  0
    1.2032   -0.6913   -0.0000 C   0  0  0  0  0  0  0  0  0  0  0  0
    2.0843   -1.1949    0.0137 H   0  0  0  0  0  0  0  0  0  0  0  0
    1.1948    0.6829   -0.0083 C   0  0  0  0  0  0  0  0  0  0  0  0
    2.0597    1.1899   -0.0307 H   0  0  0  0  0  0  0  0  0  0  0  0
  1  5  1  0
  5  8  1  0
  1  2  1  0
  1  3  1  0
  1  4  1  0
  5  6  1  0
  5  7  1  0
  8  9  1  0
  8 10  1  0
  8 11  1  0
 12 16  1  0
 16 17  2  0
 17 19  1  0
 19 21  2  0
 21 23  1  0
 23 25  2  0
 25 16  1  0
 12 13  1  0
 12 14  1  0
 12 15  1  0
 17 18  1  0
 19 20  1  0
 21 22  1  0
 23 24  1  0
 25 26  1  0
M  CHG  1   8   1
M  END
>  <PDB_ID>  (1708) 
pdb4aq1

>  <RESIDUE_NAME>  (1708) 
LYS   PHE

>  <FRAG_NAME>  (1708) 
ETAM   MBZ

>  <FRAG_ATOM_NUM>  (1708) 
fragi: 11  fragj: 15

>  <atom.prop.CHAIN_ID>  (1708) 
A A A A A A A A A A A Z Z Z Z Z Z Z Z Z Z Z Z Z Z Z

>  <atom.prop.IS_HEAVY_ATOM>  (1708) 
1 0 0 0 1 0 0 1 0 0 0 1 0 0 0 1 1 0 1 0 1 0 1 0 1 0

>  <DIFUSE_FUNC_ATOM>  (1708) 
n/a

>  <FINAL_SINGLE_POINT_ENERGY>  (1708) 
0

>  <NONCOV_INTER_ENERGY_QM>  (1708) 
0

>  <FF_Energy>  (1708) 
-6.29

>  <QM_Energy>  (1708) 
-13.8

>  <source>  (1708) 
ETAM_MBZ

>  <Index>  (1708) 
17240

$$$$
ETAM-pdb3fc3-A-LYS-172:MBZ-pdb3fc3-A-PHE-177
     RDKit          3D

 26 25  0  0  0  0  0  0  0  0999 V2000
    2.6108   -1.0952    3.1057 C   0  0  0  0  0  0  0  0  0  0  0  0
    2.6119   -1.0980    2.1099 H   0  0  0  0  0  0  0  0  0  0  0  0
    3.1287   -1.8704    3.4531 H   0  0  0  0  0  0  0  0  0  0  0  0
    3.0591   -0.1691    3.4654 H   0  0  0  0  0  0  0  0  0  0  0  0
    1.1448   -1.2579    3.5762 C   0  0  0  0  0  0  0  0  0  0  0  0
    1.1125   -1.1030    4.5690 H   0  0  0  0  0  0  0  0  0  0  0  0
    0.5885   -0.5527    3.1248 H   0  0  0  0  0  0  0  0  0  0  0  0
    0.5697   -2.6098    3.2692 N   0  0  0  0  0  4  0  0  0  0  0  0
    0.4184   -3.1004    4.1245 H   0  0  0  0  0  0  0  0  0  0  0  0
   -0.2952   -2.4931    2.7869 H   0  0  0  0  0  0  0  0  0  0  0  0
    1.2127   -3.1142    2.6969 H   0  0  0  0  0  0  0  0  0  0  0  0
   -0.0223    2.8993   -0.0599 C   0  0  0  0  0  0  0  0  0  0  0  0
    0.8947    3.2272    0.0609 H   0  0  0  0  0  0  0  0  0  0  0  0
   -0.6351    3.2300    0.6322 H   0  0  0  0  0  0  0  0  0  0  0  0
   -0.3814    3.2636   -1.0224 H   0  0  0  0  0  0  0  0  0  0  0  0
    0.0002    1.3991    0.0079 C   0  0  0  0  0  0  0  0  0  0  0  0
   -1.1892    0.6863   -0.0046 C   0  0  0  0  0  0  0  0  0  0  0  0
   -2.0600    1.1792   -0.0182 H   0  0  0  0  0  0  0  0  0  0  0  0
   -1.1960   -0.6963   -0.0000 C   0  0  0  0  0  0  0  0  0  0  0  0
   -2.0766   -1.1902   -0.0003 H   0  0  0  0  0  0  0  0  0  0  0  0
   -0.0033   -1.3931    0.0070 C   0  0  0  0  0  0  0  0  0  0  0  0
   -0.0044   -2.3904    0.0161 H   0  0  0  0  0  0  0  0  0  0  0  0
    1.1960   -0.6941   -0.0000 C   0  0  0  0  0  0  0  0  0  0  0  0
    2.0791   -1.1907    0.0033 H   0  0  0  0  0  0  0  0  0  0  0  0
    1.1924    0.6981   -0.0103 C   0  0  0  0  0  0  0  0  0  0  0  0
    2.0618    1.1914   -0.0319 H   0  0  0  0  0  0  0  0  0  0  0  0
  1  5  1  0
  5  8  1  0
  1  2  1  0
  1  3  1  0
  1  4  1  0
  5  6  1  0
  5  7  1  0
  8  9  1  0
  8 10  1  0
  8 11  1  0
 12 16  1  0
 16 17  2  0
 17 19  1  0
 19 21  2  0
 21 23  1  0
 23 25  2  0
 25 16  1  0
 12 13  1  0
 12 14  1  0
 12 15  1  0
 17 18  1  0
 19 20  1  0
 21 22  1  0
 23 24  1  0
 25 26  1  0
M  CHG  1   8   1
M  END
>  <PDB_ID>  (1709) 
pdb3fc3

>  <RESIDUE_NAME>  (1709) 
LYS   PHE

>  <FRAG_NAME>  (1709) 
ETAM   MBZ

>  <FRAG_ATOM_NUM>  (1709) 
fragi: 11  fragj: 15

>  <atom.prop.CHAIN_ID>  (1709) 
A A A A A A A A A A A Z Z Z Z Z Z Z Z Z Z Z Z Z Z Z

>  <atom.prop.IS_HEAVY_ATOM>  (1709) 
1 0 0 0 1 0 0 1 0 0 0 1 0 0 0 1 1 0 1 0 1 0 1 0 1 0

>  <DIFUSE_FUNC_ATOM>  (1709) 
n/a

>  <FINAL_SINGLE_POINT_ENERGY>  (1709) 
0

>  <NONCOV_INTER_ENERGY_QM>  (1709) 
0

>  <FF_Energy>  (1709) 
-3.59

>  <QM_Energy>  (1709) 
-9.75

>  <source>  (1709) 
ETAM_MBZ

>  <Index>  (1709) 
17250

$$$$
ETAM-pdb3f9t-A-LYS-137:MBZ-pdb3f9t-A-PHE-133
     RDKit          3D

 26 25  0  0  0  0  0  0  0  0999 V2000
    4.3973    0.0109   -3.3104 C   0  0  0  0  0  0  0  0  0  0  0  0
    3.5455    0.0782   -3.8284 H   0  0  0  0  0  0  0  0  0  0  0  0
    5.0839   -0.4684   -3.8547 H   0  0  0  0  0  0  0  0  0  0  0  0
    4.7566    1.0125   -3.0738 H   0  0  0  0  0  0  0  0  0  0  0  0
    4.1277   -0.8078   -2.0578 C   0  0  0  0  0  0  0  0  0  0  0  0
    4.9878   -0.9858   -1.6053 H   0  0  0  0  0  0  0  0  0  0  0  0
    3.5126   -0.3002   -1.4741 H   0  0  0  0  0  0  0  0  0  0  0  0
    3.5115   -2.0524   -2.4860 N   0  0  0  0  0  4  0  0  0  0  0  0
    2.9877   -1.9098   -3.3330 H   0  0  0  0  0  0  0  0  0  0  0  0
    4.2154   -2.7490   -2.6576 H   0  0  0  0  0  0  0  0  0  0  0  0
    2.8871   -2.3945   -1.7764 H   0  0  0  0  0  0  0  0  0  0  0  0
   -0.0062    2.9177    0.0455 C   0  0  0  0  0  0  0  0  0  0  0  0
    0.8962    3.2206    0.3193 H   0  0  0  0  0  0  0  0  0  0  0  0
   -0.6912    3.2002    0.7029 H   0  0  0  0  0  0  0  0  0  0  0  0
   -0.2411    3.4115   -0.8974 H   0  0  0  0  0  0  0  0  0  0  0  0
   -0.0009    1.4107   -0.0112 C   0  0  0  0  0  0  0  0  0  0  0  0
   -1.1923    0.6957    0.0152 C   0  0  0  0  0  0  0  0  0  0  0  0
   -2.0632    1.1827    0.0448 H   0  0  0  0  0  0  0  0  0  0  0  0
   -1.2021   -0.7030   -0.0000 C   0  0  0  0  0  0  0  0  0  0  0  0
   -2.0852   -1.1870    0.0052 H   0  0  0  0  0  0  0  0  0  0  0  0
   -0.0097   -1.4065   -0.0204 C   0  0  0  0  0  0  0  0  0  0  0  0
   -0.0069   -2.3986   -0.0498 H   0  0  0  0  0  0  0  0  0  0  0  0
    1.2021   -0.6988   -0.0000 C   0  0  0  0  0  0  0  0  0  0  0  0
    2.0805   -1.1981    0.0045 H   0  0  0  0  0  0  0  0  0  0  0  0
    1.2029    0.7018    0.0163 C   0  0  0  0  0  0  0  0  0  0  0  0
    2.0671    1.1930    0.0468 H   0  0  0  0  0  0  0  0  0  0  0  0
  1  5  1  0
  5  8  1  0
  1  2  1  0
  1  3  1  0
  1  4  1  0
  5  6  1  0
  5  7  1  0
  8  9  1  0
  8 10  1  0
  8 11  1  0
 12 16  1  0
 16 17  2  0
 17 19  1  0
 19 21  2  0
 21 23  1  0
 23 25  2  0
 25 16  1  0
 12 13  1  0
 12 14  1  0
 12 15  1  0
 17 18  1  0
 19 20  1  0
 21 22  1  0
 23 24  1  0
 25 26  1  0
M  CHG  1   8   1
M  END
>  <PDB_ID>  (1710) 
pdb3f9t

>  <RESIDUE_NAME>  (1710) 
LYS   PHE

>  <FRAG_NAME>  (1710) 
ETAM   MBZ

>  <FRAG_ATOM_NUM>  (1710) 
fragi: 11  fragj: 15

>  <atom.prop.CHAIN_ID>  (1710) 
A A A A A A A A A A A Z Z Z Z Z Z Z Z Z Z Z Z Z Z Z

>  <atom.prop.IS_HEAVY_ATOM>  (1710) 
1 0 0 0 1 0 0 1 0 0 0 1 0 0 0 1 1 0 1 0 1 0 1 0 1 0

>  <DIFUSE_FUNC_ATOM>  (1710) 
n/a

>  <FINAL_SINGLE_POINT_ENERGY>  (1710) 
0

>  <NONCOV_INTER_ENERGY_QM>  (1710) 
0

>  <FF_Energy>  (1710) 
-0.61

>  <QM_Energy>  (1710) 
-5.81

>  <source>  (1710) 
ETAM_MBZ

>  <Index>  (1710) 
17269

$$$$
ETAM-pdb4az9-A-LYS-23:MBZ-pdb4az9-A-PHE-34
     RDKit          3D

 26 25  0  0  0  0  0  0  0  0999 V2000
   -2.5512    1.7533    3.4722 C   0  0  0  0  0  0  0  0  0  0  0  0
   -2.4270    2.2695    4.3197 H   0  0  0  0  0  0  0  0  0  0  0  0
   -3.0374    0.9014    3.6700 H   0  0  0  0  0  0  0  0  0  0  0  0
   -3.1700    2.3492    2.8013 H   0  0  0  0  0  0  0  0  0  0  0  0
   -1.2076    1.4320    2.8869 C   0  0  0  0  0  0  0  0  0  0  0  0
   -1.3287    0.9150    2.0379 H   0  0  0  0  0  0  0  0  0  0  0  0
   -0.7181    2.2824    2.6883 H   0  0  0  0  0  0  0  0  0  0  0  0
   -0.4038    0.6213    3.8360 N   0  0  0  0  0  4  0  0  0  0  0  0
    0.2241    0.0346    3.3242 H   0  0  0  0  0  0  0  0  0  0  0  0
    0.1194    1.2296    4.4330 H   0  0  0  0  0  0  0  0  0  0  0  0
   -1.0132    0.0539    4.3896 H   0  0  0  0  0  0  0  0  0  0  0  0
    0.0178    2.9023   -0.0038 C   0  0  0  0  0  0  0  0  0  0  0  0
    0.8941    3.1994    0.3396 H   0  0  0  0  0  0  0  0  0  0  0  0
   -0.7223    3.2206    0.5670 H   0  0  0  0  0  0  0  0  0  0  0  0
   -0.1173    3.3211   -1.0010 H   0  0  0  0  0  0  0  0  0  0  0  0
    0.0004    1.3977    0.0170 C   0  0  0  0  0  0  0  0  0  0  0  0
   -1.1909    0.6985   -0.0113 C   0  0  0  0  0  0  0  0  0  0  0  0
   -2.0580    1.1889   -0.0414 H   0  0  0  0  0  0  0  0  0  0  0  0
   -1.1942   -0.6867    0.0000 C   0  0  0  0  0  0  0  0  0  0  0  0
   -2.0772   -1.1804    0.0244 H   0  0  0  0  0  0  0  0  0  0  0  0
   -0.0013   -1.3944   -0.0198 C   0  0  0  0  0  0  0  0  0  0  0  0
   -0.0152   -2.3913   -0.0485 H   0  0  0  0  0  0  0  0  0  0  0  0
    1.1942   -0.7061    0.0000 C   0  0  0  0  0  0  0  0  0  0  0  0
    2.0781   -1.1997    0.0059 H   0  0  0  0  0  0  0  0  0  0  0  0
    1.1918    0.6910    0.0142 C   0  0  0  0  0  0  0  0  0  0  0  0
    2.0628    1.1809    0.0213 H   0  0  0  0  0  0  0  0  0  0  0  0
  1  5  1  0
  5  8  1  0
  1  2  1  0
  1  3  1  0
  1  4  1  0
  5  6  1  0
  5  7  1  0
  8  9  1  0
  8 10  1  0
  8 11  1  0
 12 16  1  0
 16 17  2  0
 17 19  1  0
 19 21  2  0
 21 23  1  0
 23 25  2  0
 25 16  1  0
 12 13  1  0
 12 14  1  0
 12 15  1  0
 17 18  1  0
 19 20  1  0
 21 22  1  0
 23 24  1  0
 25 26  1  0
M  CHG  1   8   1
M  END
>  <PDB_ID>  (1711) 
pdb4az9

>  <RESIDUE_NAME>  (1711) 
LYS   PHE

>  <FRAG_NAME>  (1711) 
ETAM   MBZ

>  <FRAG_ATOM_NUM>  (1711) 
fragi: 11  fragj: 15

>  <atom.prop.CHAIN_ID>  (1711) 
A A A A A A A A A A A Z Z Z Z Z Z Z Z Z Z Z Z Z Z Z

>  <atom.prop.IS_HEAVY_ATOM>  (1711) 
1 0 0 0 1 0 0 1 0 0 0 1 0 0 0 1 1 0 1 0 1 0 1 0 1 0

>  <DIFUSE_FUNC_ATOM>  (1711) 
n/a

>  <FINAL_SINGLE_POINT_ENERGY>  (1711) 
0

>  <NONCOV_INTER_ENERGY_QM>  (1711) 
0

>  <FF_Energy>  (1711) 
10.15

>  <QM_Energy>  (1711) 
-5.99

>  <source>  (1711) 
ETAM_MBZ

>  <Index>  (1711) 
17272

$$$$
ETAM-pdb4az9-B-LYS-23:MBZ-pdb4az9-B-PHE-34
     RDKit          3D

 26 25  0  0  0  0  0  0  0  0999 V2000
   -2.5301    1.7238    3.6028 C   0  0  0  0  0  0  0  0  0  0  0  0
   -2.4370    2.2628    4.4394 H   0  0  0  0  0  0  0  0  0  0  0  0
   -2.9794    0.8560    3.8120 H   0  0  0  0  0  0  0  0  0  0  0  0
   -3.1544    2.2780    2.9020 H   0  0  0  0  0  0  0  0  0  0  0  0
   -1.1580    1.4423    3.0468 C   0  0  0  0  0  0  0  0  0  0  0  0
   -1.2440    0.9014    2.2117 H   0  0  0  0  0  0  0  0  0  0  0  0
   -0.7012    2.3065    2.8387 H   0  0  0  0  0  0  0  0  0  0  0  0
   -0.3398    0.6865    4.0332 N   0  0  0  0  0  4  0  0  0  0  0  0
    0.3136    1.3064    4.4667 H   0  0  0  0  0  0  0  0  0  0  0  0
   -0.9396    0.2925    4.7301 H   0  0  0  0  0  0  0  0  0  0  0  0
    0.1537   -0.0449    3.5635 H   0  0  0  0  0  0  0  0  0  0  0  0
   -0.0191    2.9014   -0.0375 C   0  0  0  0  0  0  0  0  0  0  0  0
    0.8640    3.2362    0.2315 H   0  0  0  0  0  0  0  0  0  0  0  0
   -0.7364    3.2222    0.5519 H   0  0  0  0  0  0  0  0  0  0  0  0
   -0.2230    3.2755   -1.0407 H   0  0  0  0  0  0  0  0  0  0  0  0
    0.0048    1.4045    0.0184 C   0  0  0  0  0  0  0  0  0  0  0  0
   -1.1912    0.6837   -0.0264 C   0  0  0  0  0  0  0  0  0  0  0  0
   -2.0586    1.1709   -0.0797 H   0  0  0  0  0  0  0  0  0  0  0  0
   -1.1962   -0.7116    0.0000 C   0  0  0  0  0  0  0  0  0  0  0  0
   -2.0773   -1.1975    0.0297 H   0  0  0  0  0  0  0  0  0  0  0  0
   -0.0069   -1.3944   -0.0133 C   0  0  0  0  0  0  0  0  0  0  0  0
    0.0010   -2.3969   -0.0338 H   0  0  0  0  0  0  0  0  0  0  0  0
    1.1962   -0.6960   -0.0000 C   0  0  0  0  0  0  0  0  0  0  0  0
    2.0787   -1.1858   -0.0035 H   0  0  0  0  0  0  0  0  0  0  0  0
    1.1932    0.7139    0.0213 C   0  0  0  0  0  0  0  0  0  0  0  0
    2.0645    1.1970    0.0376 H   0  0  0  0  0  0  0  0  0  0  0  0
  1  5  1  0
  5  8  1  0
  1  2  1  0
  1  3  1  0
  1  4  1  0
  5  6  1  0
  5  7  1  0
  8  9  1  0
  8 10  1  0
  8 11  1  0
 12 16  1  0
 16 17  2  0
 17 19  1  0
 19 21  2  0
 21 23  1  0
 23 25  2  0
 25 16  1  0
 12 13  1  0
 12 14  1  0
 12 15  1  0
 17 18  1  0
 19 20  1  0
 21 22  1  0
 23 24  1  0
 25 26  1  0
M  CHG  1   8   1
M  END
>  <PDB_ID>  (1712) 
pdb4az9

>  <RESIDUE_NAME>  (1712) 
LYS   PHE

>  <FRAG_NAME>  (1712) 
ETAM   MBZ

>  <FRAG_ATOM_NUM>  (1712) 
fragi: 11  fragj: 15

>  <atom.prop.CHAIN_ID>  (1712) 
A A A A A A A A A A A Z Z Z Z Z Z Z Z Z Z Z Z Z Z Z

>  <atom.prop.IS_HEAVY_ATOM>  (1712) 
1 0 0 0 1 0 0 1 0 0 0 1 0 0 0 1 1 0 1 0 1 0 1 0 1 0

>  <DIFUSE_FUNC_ATOM>  (1712) 
n/a

>  <FINAL_SINGLE_POINT_ENERGY>  (1712) 
0

>  <NONCOV_INTER_ENERGY_QM>  (1712) 
0

>  <FF_Energy>  (1712) 
-0.9

>  <QM_Energy>  (1712) 
-7.89

>  <source>  (1712) 
ETAM_MBZ

>  <Index>  (1712) 
17273

$$$$
ETAM-pdb3fd5-A-LYS-32:MBZ-pdb3fd5-A-PHE-269
     RDKit          3D

 26 25  0  0  0  0  0  0  0  0999 V2000
   -1.6308   -0.6498   -4.1749 C   0  0  0  0  0  0  0  0  0  0  0  0
   -1.2836   -0.3720   -5.0663 H   0  0  0  0  0  0  0  0  0  0  0  0
   -1.9311    0.1489   -3.6604 H   0  0  0  0  0  0  0  0  0  0  0  0
   -2.4817   -1.3151   -4.3212 H   0  0  0  0  0  0  0  0  0  0  0  0
   -0.5271   -1.3330   -3.4133 C   0  0  0  0  0  0  0  0  0  0  0  0
   -0.8897   -1.6959   -2.5625 H   0  0  0  0  0  0  0  0  0  0  0  0
   -0.1457   -2.0631   -3.9684 H   0  0  0  0  0  0  0  0  0  0  0  0
    0.5266   -0.3394   -3.1157 N   0  0  0  0  0  4  0  0  0  0  0  0
    0.9350   -0.0156   -3.9703 H   0  0  0  0  0  0  0  0  0  0  0  0
    0.1281    0.4366   -2.6253 H   0  0  0  0  0  0  0  0  0  0  0  0
    1.2360   -0.7602   -2.5485 H   0  0  0  0  0  0  0  0  0  0  0  0
    0.0175    2.9101    0.0292 C   0  0  0  0  0  0  0  0  0  0  0  0
    0.8858    3.2126   -0.3387 H   0  0  0  0  0  0  0  0  0  0  0  0
   -0.0889    3.1935    0.9723 H   0  0  0  0  0  0  0  0  0  0  0  0
   -0.7737    3.3836   -0.5522 H   0  0  0  0  0  0  0  0  0  0  0  0
    0.0017    1.3994   -0.0048 C   0  0  0  0  0  0  0  0  0  0  0  0
   -1.1878    0.6903    0.0055 C   0  0  0  0  0  0  0  0  0  0  0  0
   -2.0580    1.1790    0.0159 H   0  0  0  0  0  0  0  0  0  0  0  0
   -1.1910   -0.6977   -0.0000 C   0  0  0  0  0  0  0  0  0  0  0  0
   -2.0738   -1.1883   -0.0010 H   0  0  0  0  0  0  0  0  0  0  0  0
   -0.0027   -1.3882   -0.0023 C   0  0  0  0  0  0  0  0  0  0  0  0
   -0.0036   -2.3894   -0.0060 H   0  0  0  0  0  0  0  0  0  0  0  0
    1.1910   -0.6946    0.0000 C   0  0  0  0  0  0  0  0  0  0  0  0
    2.0752   -1.1935    0.0024 H   0  0  0  0  0  0  0  0  0  0  0  0
    1.1888    0.6908    0.0016 C   0  0  0  0  0  0  0  0  0  0  0  0
    2.0620    1.1851    0.0066 H   0  0  0  0  0  0  0  0  0  0  0  0
  1  5  1  0
  5  8  1  0
  1  2  1  0
  1  3  1  0
  1  4  1  0
  5  6  1  0
  5  7  1  0
  8  9  1  0
  8 10  1  0
  8 11  1  0
 12 16  1  0
 16 17  2  0
 17 19  1  0
 19 21  2  0
 21 23  1  0
 23 25  2  0
 25 16  1  0
 12 13  1  0
 12 14  1  0
 12 15  1  0
 17 18  1  0
 19 20  1  0
 21 22  1  0
 23 24  1  0
 25 26  1  0
M  CHG  1   8   1
M  END
>  <PDB_ID>  (1713) 
pdb3fd5

>  <RESIDUE_NAME>  (1713) 
LYS   PHE

>  <FRAG_NAME>  (1713) 
ETAM   MBZ

>  <FRAG_ATOM_NUM>  (1713) 
fragi: 11  fragj: 15

>  <atom.prop.CHAIN_ID>  (1713) 
A A A A A A A A A A A Z Z Z Z Z Z Z Z Z Z Z Z Z Z Z

>  <atom.prop.IS_HEAVY_ATOM>  (1713) 
1 0 0 0 1 0 0 1 0 0 0 1 0 0 0 1 1 0 1 0 1 0 1 0 1 0

>  <DIFUSE_FUNC_ATOM>  (1713) 
n/a

>  <FINAL_SINGLE_POINT_ENERGY>  (1713) 
0

>  <NONCOV_INTER_ENERGY_QM>  (1713) 
0

>  <FF_Energy>  (1713) 
-8.48

>  <QM_Energy>  (1713) 
-16.5

>  <source>  (1713) 
ETAM_MBZ

>  <Index>  (1713) 
17277

$$$$
ETAM-pdb3fd5-B-LYS-32:MBZ-pdb3fd5-B-PHE-269
     RDKit          3D

 26 25  0  0  0  0  0  0  0  0999 V2000
   -2.1588   -0.5500   -4.1635 C   0  0  0  0  0  0  0  0  0  0  0  0
   -1.9528   -0.2043   -5.0772 H   0  0  0  0  0  0  0  0  0  0  0  0
   -2.3420    0.2141   -3.5471 H   0  0  0  0  0  0  0  0  0  0  0  0
   -3.0472   -1.1791   -4.2183 H   0  0  0  0  0  0  0  0  0  0  0  0
   -0.9349   -1.3035   -3.6462 C   0  0  0  0  0  0  0  0  0  0  0  0
   -1.1686   -1.7477   -2.7884 H   0  0  0  0  0  0  0  0  0  0  0  0
   -0.6622   -1.9787   -4.3231 H   0  0  0  0  0  0  0  0  0  0  0  0
    0.1865   -0.3476   -3.4195 N   0  0  0  0  0  4  0  0  0  0  0  0
    0.3386   -0.2431   -2.4371 H   0  0  0  0  0  0  0  0  0  0  0  0
    1.0146   -0.7015   -3.8519 H   0  0  0  0  0  0  0  0  0  0  0  0
   -0.0487    0.5375   -3.8186 H   0  0  0  0  0  0  0  0  0  0  0  0
    0.0032    2.9249    0.0280 C   0  0  0  0  0  0  0  0  0  0  0  0
    0.7857    3.2334   -0.4889 H   0  0  0  0  0  0  0  0  0  0  0  0
    0.0564    3.2084    0.9725 H   0  0  0  0  0  0  0  0  0  0  0  0
   -0.8860    3.3804   -0.4077 H   0  0  0  0  0  0  0  0  0  0  0  0
   -0.0012    1.4059   -0.0006 C   0  0  0  0  0  0  0  0  0  0  0  0
   -1.1936    0.6954    0.0036 C   0  0  0  0  0  0  0  0  0  0  0  0
   -2.0626    1.1787    0.0083 H   0  0  0  0  0  0  0  0  0  0  0  0
   -1.1923   -0.6999    0.0000 C   0  0  0  0  0  0  0  0  0  0  0  0
   -2.0716   -1.1922    0.0023 H   0  0  0  0  0  0  0  0  0  0  0  0
    0.0047   -1.3934   -0.0043 C   0  0  0  0  0  0  0  0  0  0  0  0
   -0.0027   -2.3948   -0.0112 H   0  0  0  0  0  0  0  0  0  0  0  0
    1.1923   -0.7020   -0.0000 C   0  0  0  0  0  0  0  0  0  0  0  0
    2.0802   -1.1934    0.0040 H   0  0  0  0  0  0  0  0  0  0  0  0
    1.1902    0.6939    0.0013 C   0  0  0  0  0  0  0  0  0  0  0  0
    2.0619    1.1846    0.0029 H   0  0  0  0  0  0  0  0  0  0  0  0
  1  5  1  0
  5  8  1  0
  1  2  1  0
  1  3  1  0
  1  4  1  0
  5  6  1  0
  5  7  1  0
  8  9  1  0
  8 10  1  0
  8 11  1  0
 12 16  1  0
 16 17  2  0
 17 19  1  0
 19 21  2  0
 21 23  1  0
 23 25  2  0
 25 16  1  0
 12 13  1  0
 12 14  1  0
 12 15  1  0
 17 18  1  0
 19 20  1  0
 21 22  1  0
 23 24  1  0
 25 26  1  0
M  CHG  1   8   1
M  END
>  <PDB_ID>  (1714) 
pdb3fd5

>  <RESIDUE_NAME>  (1714) 
LYS   PHE

>  <FRAG_NAME>  (1714) 
ETAM   MBZ

>  <FRAG_ATOM_NUM>  (1714) 
fragi: 11  fragj: 15

>  <atom.prop.CHAIN_ID>  (1714) 
A A A A A A A A A A A Z Z Z Z Z Z Z Z Z Z Z Z Z Z Z

>  <atom.prop.IS_HEAVY_ATOM>  (1714) 
1 0 0 0 1 0 0 1 0 0 0 1 0 0 0 1 1 0 1 0 1 0 1 0 1 0

>  <DIFUSE_FUNC_ATOM>  (1714) 
n/a

>  <FINAL_SINGLE_POINT_ENERGY>  (1714) 
0

>  <NONCOV_INTER_ENERGY_QM>  (1714) 
0

>  <FF_Energy>  (1714) 
-9.04

>  <QM_Energy>  (1714) 
-16.48

>  <source>  (1714) 
ETAM_MBZ

>  <Index>  (1714) 
17278

$$$$
ETAM-pdb4b0t-B-LYS-370:MBZ-pdb4b0t-B-PHE-358
     RDKit          3D

 26 25  0  0  0  0  0  0  0  0999 V2000
   -0.5980    0.9448    4.7222 C   0  0  0  0  0  0  0  0  0  0  0  0
   -1.0376    0.5885    5.5364 H   0  0  0  0  0  0  0  0  0  0  0  0
   -0.9699    1.8307    4.4793 H   0  0  0  0  0  0  0  0  0  0  0  0
    0.4715    1.0441    4.9079 H   0  0  0  0  0  0  0  0  0  0  0  0
   -0.8596   -0.0209    3.5703 C   0  0  0  0  0  0  0  0  0  0  0  0
   -0.4501    0.3546    2.7348 H   0  0  0  0  0  0  0  0  0  0  0  0
   -0.4212   -0.8995    3.7787 H   0  0  0  0  0  0  0  0  0  0  0  0
   -2.3169   -0.2434    3.3438 N   0  0  0  0  0  4  0  0  0  0  0  0
   -2.6393   -0.9656    3.9544 H   0  0  0  0  0  0  0  0  0  0  0  0
   -2.8133    0.6025    3.5334 H   0  0  0  0  0  0  0  0  0  0  0  0
   -2.4657   -0.5146    2.3941 H   0  0  0  0  0  0  0  0  0  0  0  0
   -0.0050    2.8891   -0.0049 C   0  0  0  0  0  0  0  0  0  0  0  0
    0.8786    3.1995   -0.3214 H   0  0  0  0  0  0  0  0  0  0  0  0
   -0.1898    3.2022    0.9142 H   0  0  0  0  0  0  0  0  0  0  0  0
   -0.7635    3.3154   -0.6615 H   0  0  0  0  0  0  0  0  0  0  0  0
    0.0004    1.3948    0.0033 C   0  0  0  0  0  0  0  0  0  0  0  0
   -1.1932    0.6894   -0.0035 C   0  0  0  0  0  0  0  0  0  0  0  0
   -2.0610    1.1795   -0.0121 H   0  0  0  0  0  0  0  0  0  0  0  0
   -1.1962   -0.6974    0.0000 C   0  0  0  0  0  0  0  0  0  0  0  0
   -2.0730   -1.1931    0.0025 H   0  0  0  0  0  0  0  0  0  0  0  0
    0.0026   -1.3872    0.0021 C   0  0  0  0  0  0  0  0  0  0  0  0
    0.0012   -2.3885    0.0047 H   0  0  0  0  0  0  0  0  0  0  0  0
    1.1962   -0.6915   -0.0000 C   0  0  0  0  0  0  0  0  0  0  0  0
    2.0800   -1.1893    0.0016 H   0  0  0  0  0  0  0  0  0  0  0  0
    1.1901    0.6919   -0.0018 C   0  0  0  0  0  0  0  0  0  0  0  0
    2.0602    1.1902   -0.0078 H   0  0  0  0  0  0  0  0  0  0  0  0
  1  5  1  0
  5  8  1  0
  1  2  1  0
  1  3  1  0
  1  4  1  0
  5  6  1  0
  5  7  1  0
  8  9  1  0
  8 10  1  0
  8 11  1  0
 12 16  1  0
 16 17  2  0
 17 19  1  0
 19 21  2  0
 21 23  1  0
 23 25  2  0
 25 16  1  0
 12 13  1  0
 12 14  1  0
 12 15  1  0
 17 18  1  0
 19 20  1  0
 21 22  1  0
 23 24  1  0
 25 26  1  0
M  CHG  1   8   1
M  END
>  <PDB_ID>  (1715) 
pdb4b0t

>  <RESIDUE_NAME>  (1715) 
LYS   PHE

>  <FRAG_NAME>  (1715) 
ETAM   MBZ

>  <FRAG_ATOM_NUM>  (1715) 
fragi: 11  fragj: 15

>  <atom.prop.CHAIN_ID>  (1715) 
A A A A A A A A A A A Z Z Z Z Z Z Z Z Z Z Z Z Z Z Z

>  <atom.prop.IS_HEAVY_ATOM>  (1715) 
1 0 0 0 1 0 0 1 0 0 0 1 0 0 0 1 1 0 1 0 1 0 1 0 1 0

>  <DIFUSE_FUNC_ATOM>  (1715) 
n/a

>  <FINAL_SINGLE_POINT_ENERGY>  (1715) 
0

>  <NONCOV_INTER_ENERGY_QM>  (1715) 
0

>  <FF_Energy>  (1715) 
-5.39

>  <QM_Energy>  (1715) 
-11.35

>  <source>  (1715) 
ETAM_MBZ

>  <Index>  (1715) 
17289

$$$$
ETAM-pdb3fbt-D-LYS-366:MBZ-pdb3fbt-B-PHE-238
     RDKit          3D

 26 25  0  0  0  0  0  0  0  0999 V2000
   -2.4913   -1.1580    2.4788 C   0  0  0  0  0  0  0  0  0  0  0  0
   -2.9794   -0.3086    2.2850 H   0  0  0  0  0  0  0  0  0  0  0  0
   -2.0022   -1.4587    1.6614 H   0  0  0  0  0  0  0  0  0  0  0  0
   -1.7888   -1.0044    3.2979 H   0  0  0  0  0  0  0  0  0  0  0  0
   -3.4919   -2.2054    2.8432 C   0  0  0  0  0  0  0  0  0  0  0  0
   -3.1948   -3.0853    2.5123 H   0  0  0  0  0  0  0  0  0  0  0  0
   -3.6362   -2.2101    3.8182 H   0  0  0  0  0  0  0  0  0  0  0  0
   -4.7669   -1.8348    2.1639 N   0  0  0  0  0  4  0  0  0  0  0  0
   -4.8416   -0.8392    2.1229 H   0  0  0  0  0  0  0  0  0  0  0  0
   -4.7693   -2.2102    1.2381 H   0  0  0  0  0  0  0  0  0  0  0  0
   -5.5364   -2.2088    2.6799 H   0  0  0  0  0  0  0  0  0  0  0  0
    0.0122    2.9523   -0.0174 C   0  0  0  0  0  0  0  0  0  0  0  0
    0.9286    3.2467   -0.2073 H   0  0  0  0  0  0  0  0  0  0  0  0
   -0.3149    3.2707    0.8509 H   0  0  0  0  0  0  0  0  0  0  0  0
   -0.6394    3.3563   -0.7922 H   0  0  0  0  0  0  0  0  0  0  0  0
    0.0105    1.4311    0.0149 C   0  0  0  0  0  0  0  0  0  0  0  0
   -1.1974    0.7285   -0.0030 C   0  0  0  0  0  0  0  0  0  0  0  0
   -2.0646    1.1935   -0.0193 H   0  0  0  0  0  0  0  0  0  0  0  0
   -1.2171   -0.7363   -0.0000 C   0  0  0  0  0  0  0  0  0  0  0  0
   -2.1034   -1.1837    0.0101 H   0  0  0  0  0  0  0  0  0  0  0  0
   -0.0250   -1.4275   -0.0091 C   0  0  0  0  0  0  0  0  0  0  0  0
   -0.0008   -2.4196   -0.0218 H   0  0  0  0  0  0  0  0  0  0  0  0
    1.2171   -0.7059   -0.0000 C   0  0  0  0  0  0  0  0  0  0  0  0
    2.0831   -1.2067    0.0099 H   0  0  0  0  0  0  0  0  0  0  0  0
    1.2119    0.7101   -0.0029 C   0  0  0  0  0  0  0  0  0  0  0  0
    2.0815    1.1967   -0.0190 H   0  0  0  0  0  0  0  0  0  0  0  0
  1  5  1  0
  5  8  1  0
  1  2  1  0
  1  3  1  0
  1  4  1  0
  5  6  1  0
  5  7  1  0
  8  9  1  0
  8 10  1  0
  8 11  1  0
 12 16  1  0
 16 17  2  0
 17 19  1  0
 19 21  2  0
 21 23  1  0
 23 25  2  0
 25 16  1  0
 12 13  1  0
 12 14  1  0
 12 15  1  0
 17 18  1  0
 19 20  1  0
 21 22  1  0
 23 24  1  0
 25 26  1  0
M  CHG  1   8   1
M  END
>  <PDB_ID>  (1716) 
pdb3fbt

>  <RESIDUE_NAME>  (1716) 
LYS   PHE

>  <FRAG_NAME>  (1716) 
ETAM   MBZ

>  <FRAG_ATOM_NUM>  (1716) 
fragi: 11  fragj: 15

>  <atom.prop.CHAIN_ID>  (1716) 
A A A A A A A A A A A Z Z Z Z Z Z Z Z Z Z Z Z Z Z Z

>  <atom.prop.IS_HEAVY_ATOM>  (1716) 
1 0 0 0 1 0 0 1 0 0 0 1 0 0 0 1 1 0 1 0 1 0 1 0 1 0

>  <DIFUSE_FUNC_ATOM>  (1716) 
n/a

>  <FINAL_SINGLE_POINT_ENERGY>  (1716) 
0

>  <NONCOV_INTER_ENERGY_QM>  (1716) 
0

>  <FF_Energy>  (1716) 
32.49

>  <QM_Energy>  (1716) 
5.47

>  <source>  (1716) 
ETAM_MBZ

>  <Index>  (1716) 
17292

$$$$
ETAM-pdb4b0t-A-LYS-87:MBZ-pdb4b0t-A-PHE-388
     RDKit          3D

 26 25  0  0  0  0  0  0  0  0999 V2000
    3.1822   -4.5289   -3.8122 C   0  0  0  0  0  0  0  0  0  0  0  0
    3.6101   -4.4304   -2.9217 H   0  0  0  0  0  0  0  0  0  0  0  0
    3.6183   -3.9370   -4.4787 H   0  0  0  0  0  0  0  0  0  0  0  0
    3.2739   -5.5647   -4.1392 H   0  0  0  0  0  0  0  0  0  0  0  0
    1.7161   -4.1215   -3.6908 C   0  0  0  0  0  0  0  0  0  0  0  0
    1.3592   -3.9061   -4.6071 H   0  0  0  0  0  0  0  0  0  0  0  0
    1.1911   -4.8951   -3.3181 H   0  0  0  0  0  0  0  0  0  0  0  0
    1.5061   -2.9229   -2.7979 N   0  0  0  0  0  4  0  0  0  0  0  0
    0.6663   -3.0529   -2.2786 H   0  0  0  0  0  0  0  0  0  0  0  0
    2.2829   -2.8436   -2.1790 H   0  0  0  0  0  0  0  0  0  0  0  0
    1.4355   -2.1078   -3.3656 H   0  0  0  0  0  0  0  0  0  0  0  0
    0.0067    2.9088    0.0086 C   0  0  0  0  0  0  0  0  0  0  0  0
   -0.7760    3.2193   -0.5084 H   0  0  0  0  0  0  0  0  0  0  0  0
    0.8536    3.2120   -0.3993 H   0  0  0  0  0  0  0  0  0  0  0  0
   -0.0577    3.3407    1.0074 H   0  0  0  0  0  0  0  0  0  0  0  0
    0.0009    1.4053    0.0023 C   0  0  0  0  0  0  0  0  0  0  0  0
   -1.1957    0.7021    0.0008 C   0  0  0  0  0  0  0  0  0  0  0  0
   -2.0624    1.1888   -0.0013 H   0  0  0  0  0  0  0  0  0  0  0  0
   -1.2042   -0.6991    0.0000 C   0  0  0  0  0  0  0  0  0  0  0  0
   -2.0801   -1.1876    0.0027 H   0  0  0  0  0  0  0  0  0  0  0  0
    0.0015   -1.4019   -0.0027 C   0  0  0  0  0  0  0  0  0  0  0  0
   -0.0052   -2.3977   -0.0070 H   0  0  0  0  0  0  0  0  0  0  0  0
    1.2042   -0.7023    0.0000 C   0  0  0  0  0  0  0  0  0  0  0  0
    2.0856   -1.1942    0.0032 H   0  0  0  0  0  0  0  0  0  0  0  0
    1.1933    0.6960   -0.0003 C   0  0  0  0  0  0  0  0  0  0  0  0
    2.0645    1.1899   -0.0036 H   0  0  0  0  0  0  0  0  0  0  0  0
  1  5  1  0
  5  8  1  0
  1  2  1  0
  1  3  1  0
  1  4  1  0
  5  6  1  0
  5  7  1  0
  8  9  1  0
  8 10  1  0
  8 11  1  0
 12 16  1  0
 16 17  2  0
 17 19  1  0
 19 21  2  0
 21 23  1  0
 23 25  2  0
 25 16  1  0
 12 13  1  0
 12 14  1  0
 12 15  1  0
 17 18  1  0
 19 20  1  0
 21 22  1  0
 23 24  1  0
 25 26  1  0
M  CHG  1   8   1
M  END
>  <PDB_ID>  (1717) 
pdb4b0t

>  <RESIDUE_NAME>  (1717) 
LYS   PHE

>  <FRAG_NAME>  (1717) 
ETAM   MBZ

>  <FRAG_ATOM_NUM>  (1717) 
fragi: 11  fragj: 15

>  <atom.prop.CHAIN_ID>  (1717) 
A A A A A A A A A A A Z Z Z Z Z Z Z Z Z Z Z Z Z Z Z

>  <atom.prop.IS_HEAVY_ATOM>  (1717) 
1 0 0 0 1 0 0 1 0 0 0 1 0 0 0 1 1 0 1 0 1 0 1 0 1 0

>  <DIFUSE_FUNC_ATOM>  (1717) 
n/a

>  <FINAL_SINGLE_POINT_ENERGY>  (1717) 
0

>  <NONCOV_INTER_ENERGY_QM>  (1717) 
0

>  <FF_Energy>  (1717) 
-1.82

>  <QM_Energy>  (1717) 
-7.51

>  <source>  (1717) 
ETAM_MBZ

>  <Index>  (1717) 
17293

$$$$
ETAM-pdb4b0t-B-LYS-87:MBZ-pdb4b0t-B-PHE-388
     RDKit          3D

 26 25  0  0  0  0  0  0  0  0999 V2000
    3.2188   -4.4479   -4.0444 C   0  0  0  0  0  0  0  0  0  0  0  0
    3.9050   -4.1977   -3.3757 H   0  0  0  0  0  0  0  0  0  0  0  0
    3.3239   -3.9225   -4.8773 H   0  0  0  0  0  0  0  0  0  0  0  0
    3.3434   -5.5036   -4.2854 H   0  0  0  0  0  0  0  0  0  0  0  0
    1.8373   -4.1781   -3.4604 C   0  0  0  0  0  0  0  0  0  0  0  0
    1.1513   -4.2594   -4.1938 H   0  0  0  0  0  0  0  0  0  0  0  0
    1.6364   -4.8759   -2.7623 H   0  0  0  0  0  0  0  0  0  0  0  0
    1.7181   -2.8200   -2.8348 N   0  0  0  0  0  4  0  0  0  0  0  0
    1.8592   -2.9015   -1.8505 H   0  0  0  0  0  0  0  0  0  0  0  0
    2.4101   -2.2186   -3.2281 H   0  0  0  0  0  0  0  0  0  0  0  0
    0.8078   -2.4555   -3.0180 H   0  0  0  0  0  0  0  0  0  0  0  0
    0.0003    2.8883    0.0199 C   0  0  0  0  0  0  0  0  0  0  0  0
   -0.7783    3.2047   -0.4983 H   0  0  0  0  0  0  0  0  0  0  0  0
    0.8498    3.2028   -0.3729 H   0  0  0  0  0  0  0  0  0  0  0  0
   -0.0768    3.2996    1.0265 H   0  0  0  0  0  0  0  0  0  0  0  0
    0.0013    1.3943   -0.0039 C   0  0  0  0  0  0  0  0  0  0  0  0
   -1.1895    0.6904    0.0035 C   0  0  0  0  0  0  0  0  0  0  0  0
   -2.0575    1.1863    0.0106 H   0  0  0  0  0  0  0  0  0  0  0  0
   -1.1959   -0.6868   -0.0000 C   0  0  0  0  0  0  0  0  0  0  0  0
   -2.0770   -1.1828    0.0032 H   0  0  0  0  0  0  0  0  0  0  0  0
   -0.0044   -1.3875   -0.0060 C   0  0  0  0  0  0  0  0  0  0  0  0
   -0.0131   -2.3879   -0.0149 H   0  0  0  0  0  0  0  0  0  0  0  0
    1.1959   -0.6994   -0.0000 C   0  0  0  0  0  0  0  0  0  0  0  0
    2.0753   -1.1983    0.0015 H   0  0  0  0  0  0  0  0  0  0  0  0
    1.1926    0.6891    0.0064 C   0  0  0  0  0  0  0  0  0  0  0  0
    2.0627    1.1842    0.0181 H   0  0  0  0  0  0  0  0  0  0  0  0
  1  5  1  0
  5  8  1  0
  1  2  1  0
  1  3  1  0
  1  4  1  0
  5  6  1  0
  5  7  1  0
  8  9  1  0
  8 10  1  0
  8 11  1  0
 12 16  1  0
 16 17  2  0
 17 19  1  0
 19 21  2  0
 21 23  1  0
 23 25  2  0
 25 16  1  0
 12 13  1  0
 12 14  1  0
 12 15  1  0
 17 18  1  0
 19 20  1  0
 21 22  1  0
 23 24  1  0
 25 26  1  0
M  CHG  1   8   1
M  END
>  <PDB_ID>  (1718) 
pdb4b0t

>  <RESIDUE_NAME>  (1718) 
LYS   PHE

>  <FRAG_NAME>  (1718) 
ETAM   MBZ

>  <FRAG_ATOM_NUM>  (1718) 
fragi: 11  fragj: 15

>  <atom.prop.CHAIN_ID>  (1718) 
A A A A A A A A A A A Z Z Z Z Z Z Z Z Z Z Z Z Z Z Z

>  <atom.prop.IS_HEAVY_ATOM>  (1718) 
1 0 0 0 1 0 0 1 0 0 0 1 0 0 0 1 1 0 1 0 1 0 1 0 1 0

>  <DIFUSE_FUNC_ATOM>  (1718) 
n/a

>  <FINAL_SINGLE_POINT_ENERGY>  (1718) 
0

>  <NONCOV_INTER_ENERGY_QM>  (1718) 
0

>  <FF_Energy>  (1718) 
-1.9

>  <QM_Energy>  (1718) 
-7.36

>  <source>  (1718) 
ETAM_MBZ

>  <Index>  (1718) 
17298

$$$$
ETAM-pdb3fe1-B-LYS-330:MBZ-pdb3fe1-B-PHE-355
     RDKit          3D

 26 25  0  0  0  0  0  0  0  0999 V2000
    2.1521   -0.9576    4.0893 C   0  0  0  0  0  0  0  0  0  0  0  0
    1.8056   -0.6670    4.9768 H   0  0  0  0  0  0  0  0  0  0  0  0
    2.3947   -0.1650    3.5376 H   0  0  0  0  0  0  0  0  0  0  0  0
    3.0385   -1.5743    4.2380 H   0  0  0  0  0  0  0  0  0  0  0  0
    1.0568   -1.7271    3.3724 C   0  0  0  0  0  0  0  0  0  0  0  0
    1.3610   -1.9506    2.4579 H   0  0  0  0  0  0  0  0  0  0  0  0
    0.8419   -2.5444    3.8875 H   0  0  0  0  0  0  0  0  0  0  0  0
   -0.1496   -0.8590    3.2951 N   0  0  0  0  0  4  0  0  0  0  0  0
   -0.9646   -1.4305    3.1997 H   0  0  0  0  0  0  0  0  0  0  0  0
   -0.2199   -0.3137    4.1296 H   0  0  0  0  0  0  0  0  0  0  0  0
   -0.0713   -0.2526    2.5040 H   0  0  0  0  0  0  0  0  0  0  0  0
    0.0006    2.8788   -0.0146 C   0  0  0  0  0  0  0  0  0  0  0  0
   -0.8372    3.1892   -0.4428 H   0  0  0  0  0  0  0  0  0  0  0  0
    0.7935    3.1848   -0.5247 H   0  0  0  0  0  0  0  0  0  0  0  0
    0.0517    3.3283    0.9771 H   0  0  0  0  0  0  0  0  0  0  0  0
   -0.0030    1.3916   -0.0021 C   0  0  0  0  0  0  0  0  0  0  0  0
   -1.1904    0.6893    0.0010 C   0  0  0  0  0  0  0  0  0  0  0  0
   -2.0584    1.1846    0.0026 H   0  0  0  0  0  0  0  0  0  0  0  0
   -1.1882   -0.6776   -0.0000 C   0  0  0  0  0  0  0  0  0  0  0  0
   -2.0697   -1.1820    0.0007 H   0  0  0  0  0  0  0  0  0  0  0  0
    0.0023   -1.3789   -0.0009 C   0  0  0  0  0  0  0  0  0  0  0  0
   -0.0177   -2.3836   -0.0023 H   0  0  0  0  0  0  0  0  0  0  0  0
    1.1882   -0.7048    0.0000 C   0  0  0  0  0  0  0  0  0  0  0  0
    2.0735   -1.2027    0.0002 H   0  0  0  0  0  0  0  0  0  0  0  0
    1.1911    0.6805    0.0019 C   0  0  0  0  0  0  0  0  0  0  0  0
    2.0600    1.1754    0.0049 H   0  0  0  0  0  0  0  0  0  0  0  0
  1  5  1  0
  5  8  1  0
  1  2  1  0
  1  3  1  0
  1  4  1  0
  5  6  1  0
  5  7  1  0
  8  9  1  0
  8 10  1  0
  8 11  1  0
 12 16  1  0
 16 17  2  0
 17 19  1  0
 19 21  2  0
 21 23  1  0
 23 25  2  0
 25 16  1  0
 12 13  1  0
 12 14  1  0
 12 15  1  0
 17 18  1  0
 19 20  1  0
 21 22  1  0
 23 24  1  0
 25 26  1  0
M  CHG  1   8   1
M  END
>  <PDB_ID>  (1719) 
pdb3fe1

>  <RESIDUE_NAME>  (1719) 
LYS   PHE

>  <FRAG_NAME>  (1719) 
ETAM   MBZ

>  <FRAG_ATOM_NUM>  (1719) 
fragi: 11  fragj: 15

>  <atom.prop.CHAIN_ID>  (1719) 
A A A A A A A A A A A Z Z Z Z Z Z Z Z Z Z Z Z Z Z Z

>  <atom.prop.IS_HEAVY_ATOM>  (1719) 
1 0 0 0 1 0 0 1 0 0 0 1 0 0 0 1 1 0 1 0 1 0 1 0 1 0

>  <DIFUSE_FUNC_ATOM>  (1719) 
n/a

>  <FINAL_SINGLE_POINT_ENERGY>  (1719) 
0

>  <NONCOV_INTER_ENERGY_QM>  (1719) 
0

>  <FF_Energy>  (1719) 
-8.12

>  <QM_Energy>  (1719) 
-15.42

>  <source>  (1719) 
ETAM_MBZ

>  <Index>  (1719) 
17303

$$$$
ETAM-pdb4azs-A-LYS-449:MBZ-pdb4azs-A-PHE-446
     RDKit          3D

 26 25  0  0  0  0  0  0  0  0999 V2000
   -2.3123    0.2158    3.9216 C   0  0  0  0  0  0  0  0  0  0  0  0
   -3.2798    0.1966    4.1445 H   0  0  0  0  0  0  0  0  0  0  0  0
   -2.1510    0.7721    3.1149 H   0  0  0  0  0  0  0  0  0  0  0  0
   -1.7635    0.6411    4.7619 H   0  0  0  0  0  0  0  0  0  0  0  0
   -1.8538   -1.2059    3.6305 C   0  0  0  0  0  0  0  0  0  0  0  0
   -2.0872   -1.7875    4.4018 H   0  0  0  0  0  0  0  0  0  0  0  0
   -2.3018   -1.5299    2.8049 H   0  0  0  0  0  0  0  0  0  0  0  0
   -0.3740   -1.2269    3.4276 N   0  0  0  0  0  4  0  0  0  0  0  0
   -0.1068   -0.4388    2.8751 H   0  0  0  0  0  0  0  0  0  0  0  0
    0.0807   -1.1847    4.3161 H   0  0  0  0  0  0  0  0  0  0  0  0
   -0.1186   -2.0704    2.9579 H   0  0  0  0  0  0  0  0  0  0  0  0
   -0.0065    2.8958    0.0256 C   0  0  0  0  0  0  0  0  0  0  0  0
   -0.8138    3.2092   -0.4446 H   0  0  0  0  0  0  0  0  0  0  0  0
    0.8190    3.2112   -0.4094 H   0  0  0  0  0  0  0  0  0  0  0  0
   -0.0283    3.2995    1.0378 H   0  0  0  0  0  0  0  0  0  0  0  0
   -0.0041    1.3939   -0.0031 C   0  0  0  0  0  0  0  0  0  0  0  0
   -1.1952    0.6933    0.0151 C   0  0  0  0  0  0  0  0  0  0  0  0
   -2.0629    1.1842    0.0382 H   0  0  0  0  0  0  0  0  0  0  0  0
   -1.2016   -0.6937   -0.0000 C   0  0  0  0  0  0  0  0  0  0  0  0
   -2.0757   -1.1897    0.0084 H   0  0  0  0  0  0  0  0  0  0  0  0
    0.0020   -1.3853   -0.0244 C   0  0  0  0  0  0  0  0  0  0  0  0
   -0.0054   -2.3874   -0.0601 H   0  0  0  0  0  0  0  0  0  0  0  0
    1.2016   -0.6979   -0.0000 C   0  0  0  0  0  0  0  0  0  0  0  0
    2.0814   -1.1966    0.0101 H   0  0  0  0  0  0  0  0  0  0  0  0
    1.1973    0.6897    0.0124 C   0  0  0  0  0  0  0  0  0  0  0  0
    2.0615    1.1886    0.0322 H   0  0  0  0  0  0  0  0  0  0  0  0
  1  5  1  0
  5  8  1  0
  1  2  1  0
  1  3  1  0
  1  4  1  0
  5  6  1  0
  5  7  1  0
  8  9  1  0
  8 10  1  0
  8 11  1  0
 12 16  1  0
 16 17  2  0
 17 19  1  0
 19 21  2  0
 21 23  1  0
 23 25  2  0
 25 16  1  0
 12 13  1  0
 12 14  1  0
 12 15  1  0
 17 18  1  0
 19 20  1  0
 21 22  1  0
 23 24  1  0
 25 26  1  0
M  CHG  1   8   1
M  END
>  <PDB_ID>  (1720) 
pdb4azs

>  <RESIDUE_NAME>  (1720) 
LYS   PHE

>  <FRAG_NAME>  (1720) 
ETAM   MBZ

>  <FRAG_ATOM_NUM>  (1720) 
fragi: 11  fragj: 15

>  <atom.prop.CHAIN_ID>  (1720) 
A A A A A A A A A A A Z Z Z Z Z Z Z Z Z Z Z Z Z Z Z

>  <atom.prop.IS_HEAVY_ATOM>  (1720) 
1 0 0 0 1 0 0 1 0 0 0 1 0 0 0 1 1 0 1 0 1 0 1 0 1 0

>  <DIFUSE_FUNC_ATOM>  (1720) 
n/a

>  <FINAL_SINGLE_POINT_ENERGY>  (1720) 
0

>  <NONCOV_INTER_ENERGY_QM>  (1720) 
0

>  <FF_Energy>  (1720) 
-7.1

>  <QM_Energy>  (1720) 
-13.48

>  <source>  (1720) 
ETAM_MBZ

>  <Index>  (1720) 
17328

$$$$
ETAM-pdb3ff1-A-LYS-429:MBZ-pdb3ff1-A-PHE-424
     RDKit          3D

 26 25  0  0  0  0  0  0  0  0999 V2000
   -0.5198    2.1146    3.6351 C   0  0  0  0  0  0  0  0  0  0  0  0
   -1.2860    1.7573    3.1117 H   0  0  0  0  0  0  0  0  0  0  0  0
    0.2324    2.3532    3.0309 H   0  0  0  0  0  0  0  0  0  0  0  0
   -0.8427    3.0096    4.1670 H   0  0  0  0  0  0  0  0  0  0  0  0
   -0.0493    1.0467    4.6000 C   0  0  0  0  0  0  0  0  0  0  0  0
    0.7535    1.3664    5.0800 H   0  0  0  0  0  0  0  0  0  0  0  0
   -0.7797    0.8251    5.2288 H   0  0  0  0  0  0  0  0  0  0  0  0
    0.3053   -0.1740    3.8095 N   0  0  0  0  0  4  0  0  0  0  0  0
    0.1048   -0.0093    2.8452 H   0  0  0  0  0  0  0  0  0  0  0  0
    1.2775   -0.3672    3.9242 H   0  0  0  0  0  0  0  0  0  0  0  0
   -0.2337   -0.9464    4.1405 H   0  0  0  0  0  0  0  0  0  0  0  0
    0.0036    2.9194    0.0172 C   0  0  0  0  0  0  0  0  0  0  0  0
    0.8547    3.2222   -0.3932 H   0  0  0  0  0  0  0  0  0  0  0  0
   -0.0474    3.1990    0.9676 H   0  0  0  0  0  0  0  0  0  0  0  0
   -0.8210    3.3864   -0.5214 H   0  0  0  0  0  0  0  0  0  0  0  0
   -0.0060    1.4104   -0.0141 C   0  0  0  0  0  0  0  0  0  0  0  0
   -1.1965    0.7053    0.0051 C   0  0  0  0  0  0  0  0  0  0  0  0
   -2.0677    1.1814    0.0218 H   0  0  0  0  0  0  0  0  0  0  0  0
   -1.1990   -0.7074    0.0000 C   0  0  0  0  0  0  0  0  0  0  0  0
   -2.0736   -1.1935    0.0069 H   0  0  0  0  0  0  0  0  0  0  0  0
    0.0082   -1.4037   -0.0127 C   0  0  0  0  0  0  0  0  0  0  0  0
   -0.0012   -2.4034   -0.0319 H   0  0  0  0  0  0  0  0  0  0  0  0
    1.1990   -0.7103   -0.0000 C   0  0  0  0  0  0  0  0  0  0  0  0
    2.0880   -1.1916   -0.0041 H   0  0  0  0  0  0  0  0  0  0  0  0
    1.1943    0.7057    0.0217 C   0  0  0  0  0  0  0  0  0  0  0  0
    2.0606    1.1905    0.0617 H   0  0  0  0  0  0  0  0  0  0  0  0
  1  5  1  0
  5  8  1  0
  1  2  1  0
  1  3  1  0
  1  4  1  0
  5  6  1  0
  5  7  1  0
  8  9  1  0
  8 10  1  0
  8 11  1  0
 12 16  1  0
 16 17  2  0
 17 19  1  0
 19 21  2  0
 21 23  1  0
 23 25  2  0
 25 16  1  0
 12 13  1  0
 12 14  1  0
 12 15  1  0
 17 18  1  0
 19 20  1  0
 21 22  1  0
 23 24  1  0
 25 26  1  0
M  CHG  1   8   1
M  END
>  <PDB_ID>  (1721) 
pdb3ff1

>  <RESIDUE_NAME>  (1721) 
LYS   PHE

>  <FRAG_NAME>  (1721) 
ETAM   MBZ

>  <FRAG_ATOM_NUM>  (1721) 
fragi: 11  fragj: 15

>  <atom.prop.CHAIN_ID>  (1721) 
A A A A A A A A A A A Z Z Z Z Z Z Z Z Z Z Z Z Z Z Z

>  <atom.prop.IS_HEAVY_ATOM>  (1721) 
1 0 0 0 1 0 0 1 0 0 0 1 0 0 0 1 1 0 1 0 1 0 1 0 1 0

>  <DIFUSE_FUNC_ATOM>  (1721) 
n/a

>  <FINAL_SINGLE_POINT_ENERGY>  (1721) 
0

>  <NONCOV_INTER_ENERGY_QM>  (1721) 
0

>  <FF_Energy>  (1721) 
-7.36

>  <QM_Energy>  (1721) 
-12.39

>  <source>  (1721) 
ETAM_MBZ

>  <Index>  (1721) 
17351

$$$$
ETAM-pdb4b2z-A-LYS-254:MBZ-pdb4b2z-A-PHE-260
     RDKit          3D

 26 25  0  0  0  0  0  0  0  0999 V2000
    0.3096   -2.5921    4.5338 C   0  0  0  0  0  0  0  0  0  0  0  0
   -0.3203   -2.0455    5.0703 H   0  0  0  0  0  0  0  0  0  0  0  0
    0.8311   -3.2029    5.1154 H   0  0  0  0  0  0  0  0  0  0  0  0
   -0.2559   -3.1818    3.8125 H   0  0  0  0  0  0  0  0  0  0  0  0
    1.2812   -1.6533    3.8249 C   0  0  0  0  0  0  0  0  0  0  0  0
    0.7585   -0.9951    3.2809 H   0  0  0  0  0  0  0  0  0  0  0  0
    1.8180   -1.1610    4.5118 H   0  0  0  0  0  0  0  0  0  0  0  0
    2.2125   -2.4025    2.9226 N   0  0  0  0  0  4  0  0  0  0  0  0
    1.9590   -2.2276    1.9731 H   0  0  0  0  0  0  0  0  0  0  0  0
    3.1467   -2.0916    3.0858 H   0  0  0  0  0  0  0  0  0  0  0  0
    2.1424   -3.3786    3.1176 H   0  0  0  0  0  0  0  0  0  0  0  0
   -0.0187    2.9587    0.0048 C   0  0  0  0  0  0  0  0  0  0  0  0
    0.8508    3.2591    0.3603 H   0  0  0  0  0  0  0  0  0  0  0  0
   -0.7667    3.2403    0.5835 H   0  0  0  0  0  0  0  0  0  0  0  0
   -0.1584    3.4227   -0.9716 H   0  0  0  0  0  0  0  0  0  0  0  0
   -0.0031    1.4182   -0.0080 C   0  0  0  0  0  0  0  0  0  0  0  0
   -1.1930    0.6923    0.0138 C   0  0  0  0  0  0  0  0  0  0  0  0
   -2.0662    1.1755    0.0386 H   0  0  0  0  0  0  0  0  0  0  0  0
   -1.1943   -0.7062   -0.0000 C   0  0  0  0  0  0  0  0  0  0  0  0
   -2.0739   -1.1954   -0.0050 H   0  0  0  0  0  0  0  0  0  0  0  0
    0.0015   -1.4000   -0.0056 C   0  0  0  0  0  0  0  0  0  0  0  0
   -0.0027   -2.4004   -0.0141 H   0  0  0  0  0  0  0  0  0  0  0  0
    1.1943   -0.7055   -0.0000 C   0  0  0  0  0  0  0  0  0  0  0  0
    2.0817   -1.1943    0.0063 H   0  0  0  0  0  0  0  0  0  0  0  0
    1.1946    0.7012   -0.0002 C   0  0  0  0  0  0  0  0  0  0  0  0
    2.0649    1.1885    0.0052 H   0  0  0  0  0  0  0  0  0  0  0  0
  1  5  1  0
  5  8  1  0
  1  2  1  0
  1  3  1  0
  1  4  1  0
  5  6  1  0
  5  7  1  0
  8  9  1  0
  8 10  1  0
  8 11  1  0
 12 16  1  0
 16 17  2  0
 17 19  1  0
 19 21  2  0
 21 23  1  0
 23 25  2  0
 25 16  1  0
 12 13  1  0
 12 14  1  0
 12 15  1  0
 17 18  1  0
 19 20  1  0
 21 22  1  0
 23 24  1  0
 25 26  1  0
M  CHG  1   8   1
M  END
>  <PDB_ID>  (1722) 
pdb4b2z

>  <RESIDUE_NAME>  (1722) 
LYS   PHE

>  <FRAG_NAME>  (1722) 
ETAM   MBZ

>  <FRAG_ATOM_NUM>  (1722) 
fragi: 11  fragj: 15

>  <atom.prop.CHAIN_ID>  (1722) 
A A A A A A A A A A A Z Z Z Z Z Z Z Z Z Z Z Z Z Z Z

>  <atom.prop.IS_HEAVY_ATOM>  (1722) 
1 0 0 0 1 0 0 1 0 0 0 1 0 0 0 1 1 0 1 0 1 0 1 0 1 0

>  <DIFUSE_FUNC_ATOM>  (1722) 
n/a

>  <FINAL_SINGLE_POINT_ENERGY>  (1722) 
0

>  <NONCOV_INTER_ENERGY_QM>  (1722) 
0

>  <FF_Energy>  (1722) 
-2.9

>  <QM_Energy>  (1722) 
-9.4

>  <source>  (1722) 
ETAM_MBZ

>  <Index>  (1722) 
17369

$$$$
ETAM-pdb4b6c-A-LYS-202:MBZ-pdb4b6c-A-PHE-199
     RDKit          3D

 26 25  0  0  0  0  0  0  0  0999 V2000
   -3.8231    0.9335    4.4035 C   0  0  0  0  0  0  0  0  0  0  0  0
   -4.4266    0.2715    4.8450 H   0  0  0  0  0  0  0  0  0  0  0  0
   -4.3655    1.5672    3.8534 H   0  0  0  0  0  0  0  0  0  0  0  0
   -3.2901    1.4947    5.1709 H   0  0  0  0  0  0  0  0  0  0  0  0
   -2.8781    0.1929    3.4930 C   0  0  0  0  0  0  0  0  0  0  0  0
   -2.1051    0.7877    3.2665 H   0  0  0  0  0  0  0  0  0  0  0  0
   -2.5376   -0.6225    3.9642 H   0  0  0  0  0  0  0  0  0  0  0  0
   -3.5620   -0.2150    2.2455 N   0  0  0  0  0  4  0  0  0  0  0  0
   -2.9904    0.0181    1.4576 H   0  0  0  0  0  0  0  0  0  0  0  0
   -3.7221   -1.2026    2.2581 H   0  0  0  0  0  0  0  0  0  0  0  0
   -4.4384    0.2618    2.1718 H   0  0  0  0  0  0  0  0  0  0  0  0
    0.0037    2.9284   -0.0299 C   0  0  0  0  0  0  0  0  0  0  0  0
   -0.6514    3.2221   -0.7167 H   0  0  0  0  0  0  0  0  0  0  0  0
    0.9196    3.2273   -0.2707 H   0  0  0  0  0  0  0  0  0  0  0  0
   -0.2639    3.4158    0.9075 H   0  0  0  0  0  0  0  0  0  0  0  0
    0.0013    1.4151   -0.0038 C   0  0  0  0  0  0  0  0  0  0  0  0
   -1.1981    0.7003   -0.0134 C   0  0  0  0  0  0  0  0  0  0  0  0
   -2.0649    1.1786   -0.0308 H   0  0  0  0  0  0  0  0  0  0  0  0
   -1.1963   -0.7104   -0.0000 C   0  0  0  0  0  0  0  0  0  0  0  0
   -2.0773   -1.1948   -0.0048 H   0  0  0  0  0  0  0  0  0  0  0  0
   -0.0022   -1.3997    0.0209 C   0  0  0  0  0  0  0  0  0  0  0  0
   -0.0020   -2.4010    0.0509 H   0  0  0  0  0  0  0  0  0  0  0  0
    1.1963   -0.7052   -0.0000 C   0  0  0  0  0  0  0  0  0  0  0  0
    2.0803   -1.1982   -0.0113 H   0  0  0  0  0  0  0  0  0  0  0  0
    1.1990    0.6998   -0.0038 C   0  0  0  0  0  0  0  0  0  0  0  0
    2.0684    1.1862   -0.0074 H   0  0  0  0  0  0  0  0  0  0  0  0
  1  5  1  0
  5  8  1  0
  1  2  1  0
  1  3  1  0
  1  4  1  0
  5  6  1  0
  5  7  1  0
  8  9  1  0
  8 10  1  0
  8 11  1  0
 12 16  1  0
 16 17  2  0
 17 19  1  0
 19 21  2  0
 21 23  1  0
 23 25  2  0
 25 16  1  0
 12 13  1  0
 12 14  1  0
 12 15  1  0
 17 18  1  0
 19 20  1  0
 21 22  1  0
 23 24  1  0
 25 26  1  0
M  CHG  1   8   1
M  END
>  <PDB_ID>  (1723) 
pdb4b6c

>  <RESIDUE_NAME>  (1723) 
LYS   PHE

>  <FRAG_NAME>  (1723) 
ETAM   MBZ

>  <FRAG_ATOM_NUM>  (1723) 
fragi: 11  fragj: 15

>  <atom.prop.CHAIN_ID>  (1723) 
A A A A A A A A A A A Z Z Z Z Z Z Z Z Z Z Z Z Z Z Z

>  <atom.prop.IS_HEAVY_ATOM>  (1723) 
1 0 0 0 1 0 0 1 0 0 0 1 0 0 0 1 1 0 1 0 1 0 1 0 1 0

>  <DIFUSE_FUNC_ATOM>  (1723) 
n/a

>  <FINAL_SINGLE_POINT_ENERGY>  (1723) 
0

>  <NONCOV_INTER_ENERGY_QM>  (1723) 
0

>  <FF_Energy>  (1723) 
-1.76

>  <QM_Energy>  (1723) 
-8.64

>  <source>  (1723) 
ETAM_MBZ

>  <Index>  (1723) 
17373

$$$$
ETAM-pdb4b6c-B-LYS-202:MBZ-pdb4b6c-B-PHE-199
     RDKit          3D

 26 25  0  0  0  0  0  0  0  0999 V2000
   -3.4791    0.8691    4.5886 C   0  0  0  0  0  0  0  0  0  0  0  0
   -4.3857    0.5094    4.8124 H   0  0  0  0  0  0  0  0  0  0  0  0
   -3.5748    1.7641    4.1538 H   0  0  0  0  0  0  0  0  0  0  0  0
   -2.9057    0.9807    5.5089 H   0  0  0  0  0  0  0  0  0  0  0  0
   -2.8143   -0.0710    3.6150 C   0  0  0  0  0  0  0  0  0  0  0  0
   -1.8951    0.2676    3.4057 H   0  0  0  0  0  0  0  0  0  0  0  0
   -2.7418   -0.9796    4.0305 H   0  0  0  0  0  0  0  0  0  0  0  0
   -3.5944   -0.1722    2.3565 N   0  0  0  0  0  4  0  0  0  0  0  0
   -4.0333   -1.0698    2.3079 H   0  0  0  0  0  0  0  0  0  0  0  0
   -4.2944    0.5423    2.3393 H   0  0  0  0  0  0  0  0  0  0  0  0
   -2.9814   -0.0574    1.5740 H   0  0  0  0  0  0  0  0  0  0  0  0
   -0.0005    2.9172    0.0231 C   0  0  0  0  0  0  0  0  0  0  0  0
   -0.6563    3.2341   -0.6374 H   0  0  0  0  0  0  0  0  0  0  0  0
    0.9112    3.2251   -0.1818 H   0  0  0  0  0  0  0  0  0  0  0  0
   -0.2805    3.3259    0.9940 H   0  0  0  0  0  0  0  0  0  0  0  0
   -0.0013    1.4065   -0.0050 C   0  0  0  0  0  0  0  0  0  0  0  0
   -1.1960    0.6961    0.0089 C   0  0  0  0  0  0  0  0  0  0  0  0
   -2.0637    1.1787    0.0242 H   0  0  0  0  0  0  0  0  0  0  0  0
   -1.1941   -0.7025   -0.0000 C   0  0  0  0  0  0  0  0  0  0  0  0
   -2.0723   -1.1941   -0.0041 H   0  0  0  0  0  0  0  0  0  0  0  0
    0.0044   -1.3929   -0.0019 C   0  0  0  0  0  0  0  0  0  0  0  0
   -0.0013   -2.3952   -0.0051 H   0  0  0  0  0  0  0  0  0  0  0  0
    1.1941   -0.7028    0.0000 C   0  0  0  0  0  0  0  0  0  0  0  0
    2.0811   -1.1937    0.0041 H   0  0  0  0  0  0  0  0  0  0  0  0
    1.1929    0.6954   -0.0019 C   0  0  0  0  0  0  0  0  0  0  0  0
    2.0632    1.1858   -0.0025 H   0  0  0  0  0  0  0  0  0  0  0  0
  1  5  1  0
  5  8  1  0
  1  2  1  0
  1  3  1  0
  1  4  1  0
  5  6  1  0
  5  7  1  0
  8  9  1  0
  8 10  1  0
  8 11  1  0
 12 16  1  0
 16 17  2  0
 17 19  1  0
 19 21  2  0
 21 23  1  0
 23 25  2  0
 25 16  1  0
 12 13  1  0
 12 14  1  0
 12 15  1  0
 17 18  1  0
 19 20  1  0
 21 22  1  0
 23 24  1  0
 25 26  1  0
M  CHG  1   8   1
M  END
>  <PDB_ID>  (1724) 
pdb4b6c

>  <RESIDUE_NAME>  (1724) 
LYS   PHE

>  <FRAG_NAME>  (1724) 
ETAM   MBZ

>  <FRAG_ATOM_NUM>  (1724) 
fragi: 11  fragj: 15

>  <atom.prop.CHAIN_ID>  (1724) 
A A A A A A A A A A A Z Z Z Z Z Z Z Z Z Z Z Z Z Z Z

>  <atom.prop.IS_HEAVY_ATOM>  (1724) 
1 0 0 0 1 0 0 1 0 0 0 1 0 0 0 1 1 0 1 0 1 0 1 0 1 0

>  <DIFUSE_FUNC_ATOM>  (1724) 
n/a

>  <FINAL_SINGLE_POINT_ENERGY>  (1724) 
0

>  <NONCOV_INTER_ENERGY_QM>  (1724) 
0

>  <FF_Energy>  (1724) 
-1.9

>  <QM_Energy>  (1724) 
-8.6

>  <source>  (1724) 
ETAM_MBZ

>  <Index>  (1724) 
17374

$$$$
ETAM-pdb3fh3-B-LYS-103:MBZ-pdb3fh3-B-PHE-111
     RDKit          3D

 26 25  0  0  0  0  0  0  0  0999 V2000
    1.4006   -2.1089   -4.0820 C   0  0  0  0  0  0  0  0  0  0  0  0
    1.1516   -2.7832   -3.3927 H   0  0  0  0  0  0  0  0  0  0  0  0
    1.3124   -2.4995   -4.9933 H   0  0  0  0  0  0  0  0  0  0  0  0
    0.7430   -1.2441   -3.9943 H   0  0  0  0  0  0  0  0  0  0  0  0
    2.8591   -1.7232   -3.8672 C   0  0  0  0  0  0  0  0  0  0  0  0
    3.4466   -2.3868   -4.3483 H   0  0  0  0  0  0  0  0  0  0  0  0
    3.0196   -0.8133   -4.2723 H   0  0  0  0  0  0  0  0  0  0  0  0
    3.2616   -1.6837   -2.4205 N   0  0  0  0  0  4  0  0  0  0  0  0
    2.6553   -2.2797   -1.8980 H   0  0  0  0  0  0  0  0  0  0  0  0
    4.2037   -1.9995   -2.3375 H   0  0  0  0  0  0  0  0  0  0  0  0
    3.1867   -0.7464   -2.0881 H   0  0  0  0  0  0  0  0  0  0  0  0
   -0.0086    2.8976    0.0044 C   0  0  0  0  0  0  0  0  0  0  0  0
   -0.5290    3.2056   -0.7754 H   0  0  0  0  0  0  0  0  0  0  0  0
    0.9260    3.2104   -0.0352 H   0  0  0  0  0  0  0  0  0  0  0  0
   -0.4650    3.3233    0.8980 H   0  0  0  0  0  0  0  0  0  0  0  0
    0.0006    1.3952   -0.0034 C   0  0  0  0  0  0  0  0  0  0  0  0
   -1.1859    0.6857   -0.0003 C   0  0  0  0  0  0  0  0  0  0  0  0
   -2.0575    1.1787    0.0004 H   0  0  0  0  0  0  0  0  0  0  0  0
   -1.1935   -0.6953   -0.0000 C   0  0  0  0  0  0  0  0  0  0  0  0
   -2.0752   -1.1881   -0.0018 H   0  0  0  0  0  0  0  0  0  0  0  0
   -0.0050   -1.3863    0.0048 C   0  0  0  0  0  0  0  0  0  0  0  0
   -0.0050   -2.3878    0.0106 H   0  0  0  0  0  0  0  0  0  0  0  0
    1.1935   -0.6929    0.0000 C   0  0  0  0  0  0  0  0  0  0  0  0
    2.0748   -1.1925   -0.0014 H   0  0  0  0  0  0  0  0  0  0  0  0
    1.1903    0.6935   -0.0011 C   0  0  0  0  0  0  0  0  0  0  0  0
    2.0601    1.1886   -0.0010 H   0  0  0  0  0  0  0  0  0  0  0  0
  1  5  1  0
  5  8  1  0
  1  2  1  0
  1  3  1  0
  1  4  1  0
  5  6  1  0
  5  7  1  0
  8  9  1  0
  8 10  1  0
  8 11  1  0
 12 16  1  0
 16 17  2  0
 17 19  1  0
 19 21  2  0
 21 23  1  0
 23 25  2  0
 25 16  1  0
 12 13  1  0
 12 14  1  0
 12 15  1  0
 17 18  1  0
 19 20  1  0
 21 22  1  0
 23 24  1  0
 25 26  1  0
M  CHG  1   8   1
M  END
>  <PDB_ID>  (1725) 
pdb3fh3

>  <RESIDUE_NAME>  (1725) 
LYS   PHE

>  <FRAG_NAME>  (1725) 
ETAM   MBZ

>  <FRAG_ATOM_NUM>  (1725) 
fragi: 11  fragj: 15

>  <atom.prop.CHAIN_ID>  (1725) 
A A A A A A A A A A A Z Z Z Z Z Z Z Z Z Z Z Z Z Z Z

>  <atom.prop.IS_HEAVY_ATOM>  (1725) 
1 0 0 0 1 0 0 1 0 0 0 1 0 0 0 1 1 0 1 0 1 0 1 0 1 0

>  <DIFUSE_FUNC_ATOM>  (1725) 
n/a

>  <FINAL_SINGLE_POINT_ENERGY>  (1725) 
0

>  <NONCOV_INTER_ENERGY_QM>  (1725) 
0

>  <FF_Energy>  (1725) 
-1.27

>  <QM_Energy>  (1725) 
-6.92

>  <source>  (1725) 
ETAM_MBZ

>  <Index>  (1725) 
17383

$$$$
ETAM-pdb4b7v-B-LYS-70:MBZ-pdb4b7v-B-PHE-133
     RDKit          3D

 26 25  0  0  0  0  0  0  0  0999 V2000
   -0.5571    0.3542    3.4779 C   0  0  0  0  0  0  0  0  0  0  0  0
   -1.3222    0.5589    4.0846 H   0  0  0  0  0  0  0  0  0  0  0  0
   -0.8238    0.5072    2.5296 H   0  0  0  0  0  0  0  0  0  0  0  0
    0.2723    1.0180    3.7220 H   0  0  0  0  0  0  0  0  0  0  0  0
   -0.1856   -1.1114    3.6455 C   0  0  0  0  0  0  0  0  0  0  0  0
    0.6223   -1.3082    3.0838 H   0  0  0  0  0  0  0  0  0  0  0  0
    0.0387   -1.2821    4.6087 H   0  0  0  0  0  0  0  0  0  0  0  0
   -1.2974   -2.0141    3.2354 N   0  0  0  0  0  4  0  0  0  0  0  0
   -2.0849   -1.8609    3.8318 H   0  0  0  0  0  0  0  0  0  0  0  0
   -1.5507   -1.8184    2.2884 H   0  0  0  0  0  0  0  0  0  0  0  0
   -0.9974   -2.9643    3.3121 H   0  0  0  0  0  0  0  0  0  0  0  0
    0.0042    2.9131   -0.0005 C   0  0  0  0  0  0  0  0  0  0  0  0
    0.8990    3.2148    0.2890 H   0  0  0  0  0  0  0  0  0  0  0  0
   -0.7005    3.2185    0.6208 H   0  0  0  0  0  0  0  0  0  0  0  0
   -0.1977    3.3537   -0.9768 H   0  0  0  0  0  0  0  0  0  0  0  0
    0.0004    1.4037   -0.0009 C   0  0  0  0  0  0  0  0  0  0  0  0
   -1.1996    0.6925    0.0013 C   0  0  0  0  0  0  0  0  0  0  0  0
   -2.0647    1.1827    0.0022 H   0  0  0  0  0  0  0  0  0  0  0  0
   -1.2026   -0.6990    0.0000 C   0  0  0  0  0  0  0  0  0  0  0  0
   -2.0774   -1.1937    0.0015 H   0  0  0  0  0  0  0  0  0  0  0  0
    0.0010   -1.3935   -0.0014 C   0  0  0  0  0  0  0  0  0  0  0  0
   -0.0024   -2.3926   -0.0039 H   0  0  0  0  0  0  0  0  0  0  0  0
    1.2026   -0.6971    0.0000 C   0  0  0  0  0  0  0  0  0  0  0  0
    2.0840   -1.1949    0.0022 H   0  0  0  0  0  0  0  0  0  0  0  0
    1.1983    0.6934    0.0010 C   0  0  0  0  0  0  0  0  0  0  0  0
    2.0662    1.1900    0.0028 H   0  0  0  0  0  0  0  0  0  0  0  0
  1  5  1  0
  5  8  1  0
  1  2  1  0
  1  3  1  0
  1  4  1  0
  5  6  1  0
  5  7  1  0
  8  9  1  0
  8 10  1  0
  8 11  1  0
 12 16  1  0
 16 17  2  0
 17 19  1  0
 19 21  2  0
 21 23  1  0
 23 25  2  0
 25 16  1  0
 12 13  1  0
 12 14  1  0
 12 15  1  0
 17 18  1  0
 19 20  1  0
 21 22  1  0
 23 24  1  0
 25 26  1  0
M  CHG  1   8   1
M  END
>  <PDB_ID>  (1726) 
pdb4b7v

>  <RESIDUE_NAME>  (1726) 
LYS   PHE

>  <FRAG_NAME>  (1726) 
ETAM   MBZ

>  <FRAG_ATOM_NUM>  (1726) 
fragi: 11  fragj: 15

>  <atom.prop.CHAIN_ID>  (1726) 
A A A A A A A A A A A Z Z Z Z Z Z Z Z Z Z Z Z Z Z Z

>  <atom.prop.IS_HEAVY_ATOM>  (1726) 
1 0 0 0 1 0 0 1 0 0 0 1 0 0 0 1 1 0 1 0 1 0 1 0 1 0

>  <DIFUSE_FUNC_ATOM>  (1726) 
n/a

>  <FINAL_SINGLE_POINT_ENERGY>  (1726) 
0

>  <NONCOV_INTER_ENERGY_QM>  (1726) 
0

>  <FF_Energy>  (1726) 
-4.9

>  <QM_Energy>  (1726) 
-12.44

>  <source>  (1726) 
ETAM_MBZ

>  <Index>  (1726) 
17394

$$$$
ETAM-pdb3fkq-A-LYS-10:MBZ-pdb3fkq-A-PHE-59
     RDKit          3D

 26 25  0  0  0  0  0  0  0  0999 V2000
    0.5248   -4.7213   -1.7277 C   0  0  0  0  0  0  0  0  0  0  0  0
    0.8359   -4.8005   -0.7967 H   0  0  0  0  0  0  0  0  0  0  0  0
    0.5785   -3.7954   -2.0576 H   0  0  0  0  0  0  0  0  0  0  0  0
    1.1194   -5.3732   -2.3678 H   0  0  0  0  0  0  0  0  0  0  0  0
   -0.9408   -5.1657   -1.7836 C   0  0  0  0  0  0  0  0  0  0  0  0
   -1.1421   -5.4855   -2.7181 H   0  0  0  0  0  0  0  0  0  0  0  0
   -1.0628   -5.9431   -1.1531 H   0  0  0  0  0  0  0  0  0  0  0  0
   -1.8932   -4.0842   -1.4194 N   0  0  0  0  0  4  0  0  0  0  0  0
   -1.7510   -3.2992   -2.0219 H   0  0  0  0  0  0  0  0  0  0  0  0
   -2.8300   -4.4180   -1.5219 H   0  0  0  0  0  0  0  0  0  0  0  0
   -1.7372   -3.8100   -0.4705 H   0  0  0  0  0  0  0  0  0  0  0  0
   -0.0087    2.9078   -0.0020 C   0  0  0  0  0  0  0  0  0  0  0  0
    0.8841    3.2193    0.2838 H   0  0  0  0  0  0  0  0  0  0  0  0
   -0.7133    3.2124    0.6214 H   0  0  0  0  0  0  0  0  0  0  0  0
   -0.2166    3.3458   -0.9782 H   0  0  0  0  0  0  0  0  0  0  0  0
   -0.0020    1.4060   -0.0009 C   0  0  0  0  0  0  0  0  0  0  0  0
   -1.2010    0.6982    0.0072 C   0  0  0  0  0  0  0  0  0  0  0  0
   -2.0662    1.1875    0.0171 H   0  0  0  0  0  0  0  0  0  0  0  0
   -1.2044   -0.6952   -0.0000 C   0  0  0  0  0  0  0  0  0  0  0  0
   -2.0786   -1.1909    0.0004 H   0  0  0  0  0  0  0  0  0  0  0  0
    0.0041   -1.3981   -0.0056 C   0  0  0  0  0  0  0  0  0  0  0  0
   -0.0071   -2.3960   -0.0139 H   0  0  0  0  0  0  0  0  0  0  0  0
    1.2044   -0.7049   -0.0000 C   0  0  0  0  0  0  0  0  0  0  0  0
    2.0862   -1.1981    0.0063 H   0  0  0  0  0  0  0  0  0  0  0  0
    1.1989    0.6940   -0.0008 C   0  0  0  0  0  0  0  0  0  0  0  0
    2.0661    1.1880   -0.0022 H   0  0  0  0  0  0  0  0  0  0  0  0
  1  5  1  0
  5  8  1  0
  1  2  1  0
  1  3  1  0
  1  4  1  0
  5  6  1  0
  5  7  1  0
  8  9  1  0
  8 10  1  0
  8 11  1  0
 12 16  1  0
 16 17  2  0
 17 19  1  0
 19 21  2  0
 21 23  1  0
 23 25  2  0
 25 16  1  0
 12 13  1  0
 12 14  1  0
 12 15  1  0
 17 18  1  0
 19 20  1  0
 21 22  1  0
 23 24  1  0
 25 26  1  0
M  CHG  1   8   1
M  END
>  <PDB_ID>  (1727) 
pdb3fkq

>  <RESIDUE_NAME>  (1727) 
LYS   PHE

>  <FRAG_NAME>  (1727) 
ETAM   MBZ

>  <FRAG_ATOM_NUM>  (1727) 
fragi: 11  fragj: 15

>  <atom.prop.CHAIN_ID>  (1727) 
A A A A A A A A A A A Z Z Z Z Z Z Z Z Z Z Z Z Z Z Z

>  <atom.prop.IS_HEAVY_ATOM>  (1727) 
1 0 0 0 1 0 0 1 0 0 0 1 0 0 0 1 1 0 1 0 1 0 1 0 1 0

>  <DIFUSE_FUNC_ATOM>  (1727) 
n/a

>  <FINAL_SINGLE_POINT_ENERGY>  (1727) 
0

>  <NONCOV_INTER_ENERGY_QM>  (1727) 
0

>  <FF_Energy>  (1727) 
0.1

>  <QM_Energy>  (1727) 
-5.3

>  <source>  (1727) 
ETAM_MBZ

>  <Index>  (1727) 
17447

$$$$
ETAM-pdb3fle-A-LYS-168:MBZ-pdb3fle-A-PHE-285
     RDKit          3D

 26 25  0  0  0  0  0  0  0  0999 V2000
    0.1322   -0.6183    4.0369 C   0  0  0  0  0  0  0  0  0  0  0  0
    0.7696   -0.2305    4.7000 H   0  0  0  0  0  0  0  0  0  0  0  0
    0.2234   -0.1446    3.1631 H   0  0  0  0  0  0  0  0  0  0  0  0
    0.3719   -1.6719    3.8931 H   0  0  0  0  0  0  0  0  0  0  0  0
   -1.2902   -0.4046    4.5541 C   0  0  0  0  0  0  0  0  0  0  0  0
   -1.5356   -1.1888    5.1522 H   0  0  0  0  0  0  0  0  0  0  0  0
   -1.2971    0.4261    5.1400 H   0  0  0  0  0  0  0  0  0  0  0  0
   -2.3307   -0.2591    3.4976 N   0  0  0  0  0  4  0  0  0  0  0  0
   -2.5439    0.7097    3.3747 H   0  0  0  0  0  0  0  0  0  0  0  0
   -1.9862   -0.6384    2.6398 H   0  0  0  0  0  0  0  0  0  0  0  0
   -3.1549   -0.7516    3.7753 H   0  0  0  0  0  0  0  0  0  0  0  0
    0.0094    2.9196    0.0128 C   0  0  0  0  0  0  0  0  0  0  0  0
   -0.4755    3.2326   -0.7891 H   0  0  0  0  0  0  0  0  0  0  0  0
    0.9503    3.2222    0.0072 H   0  0  0  0  0  0  0  0  0  0  0  0
   -0.4736    3.3627    0.8837 H   0  0  0  0  0  0  0  0  0  0  0  0
    0.0026    1.4119    0.0055 C   0  0  0  0  0  0  0  0  0  0  0  0
   -1.1973    0.6993   -0.0004 C   0  0  0  0  0  0  0  0  0  0  0  0
   -2.0643    1.1818   -0.0063 H   0  0  0  0  0  0  0  0  0  0  0  0
   -1.1994   -0.7072    0.0000 C   0  0  0  0  0  0  0  0  0  0  0  0
   -2.0796   -1.1923    0.0034 H   0  0  0  0  0  0  0  0  0  0  0  0
   -0.0029   -1.4011   -0.0030 C   0  0  0  0  0  0  0  0  0  0  0  0
   -0.0034   -2.3998   -0.0077 H   0  0  0  0  0  0  0  0  0  0  0  0
    1.1994   -0.7029    0.0000 C   0  0  0  0  0  0  0  0  0  0  0  0
    2.0816   -1.1967    0.0055 H   0  0  0  0  0  0  0  0  0  0  0  0
    1.1976    0.7001   -0.0021 C   0  0  0  0  0  0  0  0  0  0  0  0
    2.0681    1.1888   -0.0093 H   0  0  0  0  0  0  0  0  0  0  0  0
  1  5  1  0
  5  8  1  0
  1  2  1  0
  1  3  1  0
  1  4  1  0
  5  6  1  0
  5  7  1  0
  8  9  1  0
  8 10  1  0
  8 11  1  0
 12 16  1  0
 16 17  2  0
 17 19  1  0
 19 21  2  0
 21 23  1  0
 23 25  2  0
 25 16  1  0
 12 13  1  0
 12 14  1  0
 12 15  1  0
 17 18  1  0
 19 20  1  0
 21 22  1  0
 23 24  1  0
 25 26  1  0
M  CHG  1   8   1
M  END
>  <PDB_ID>  (1728) 
pdb3fle

>  <RESIDUE_NAME>  (1728) 
LYS   PHE

>  <FRAG_NAME>  (1728) 
ETAM   MBZ

>  <FRAG_ATOM_NUM>  (1728) 
fragi: 11  fragj: 15

>  <atom.prop.CHAIN_ID>  (1728) 
A A A A A A A A A A A Z Z Z Z Z Z Z Z Z Z Z Z Z Z Z

>  <atom.prop.IS_HEAVY_ATOM>  (1728) 
1 0 0 0 1 0 0 1 0 0 0 1 0 0 0 1 1 0 1 0 1 0 1 0 1 0

>  <DIFUSE_FUNC_ATOM>  (1728) 
n/a

>  <FINAL_SINGLE_POINT_ENERGY>  (1728) 
0

>  <NONCOV_INTER_ENERGY_QM>  (1728) 
0

>  <FF_Energy>  (1728) 
-5.08

>  <QM_Energy>  (1728) 
-10.95

>  <source>  (1728) 
ETAM_MBZ

>  <Index>  (1728) 
17475

$$$$
ETAM-pdb4be3-A-LYS-252:MBZ-pdb4be3-A-PHE-259
     RDKit          3D

 26 25  0  0  0  0  0  0  0  0999 V2000
    4.6741   -3.7596   -3.6495 C   0  0  0  0  0  0  0  0  0  0  0  0
    4.2488   -3.6313   -4.5410 H   0  0  0  0  0  0  0  0  0  0  0  0
    4.2048   -4.4800   -3.1464 H   0  0  0  0  0  0  0  0  0  0  0  0
    5.7255   -4.0187   -3.7746 H   0  0  0  0  0  0  0  0  0  0  0  0
    4.4766   -2.4321   -2.8477 C   0  0  0  0  0  0  0  0  0  0  0  0
    4.7923   -2.5756   -1.9177 H   0  0  0  0  0  0  0  0  0  0  0  0
    5.0018   -1.7160   -3.2894 H   0  0  0  0  0  0  0  0  0  0  0  0
    3.0067   -2.0208   -2.8151 N   0  0  0  0  0  4  0  0  0  0  0  0
    2.9023   -1.1919   -3.3516 H   0  0  0  0  0  0  0  0  0  0  0  0
    2.4670   -2.7589   -3.2042 H   0  0  0  0  0  0  0  0  0  0  0  0
    2.7482   -1.8596   -1.8696 H   0  0  0  0  0  0  0  0  0  0  0  0
   -0.0132    2.9225    0.0622 C   0  0  0  0  0  0  0  0  0  0  0  0
    0.8996    3.2563   -0.0580 H   0  0  0  0  0  0  0  0  0  0  0  0
   -0.4224    3.2210    0.9001 H   0  0  0  0  0  0  0  0  0  0  0  0
   -0.6075    3.3584   -0.7409 H   0  0  0  0  0  0  0  0  0  0  0  0
   -0.0006    1.4244    0.0241 C   0  0  0  0  0  0  0  0  0  0  0  0
   -1.2202    0.6760    0.0129 C   0  0  0  0  0  0  0  0  0  0  0  0
   -2.0808    1.1678    0.0131 H   0  0  0  0  0  0  0  0  0  0  0  0
   -1.2149   -0.7217   -0.0000 C   0  0  0  0  0  0  0  0  0  0  0  0
   -2.0665   -1.2333    0.0025 H   0  0  0  0  0  0  0  0  0  0  0  0
    0.0343   -1.4166   -0.0157 C   0  0  0  0  0  0  0  0  0  0  0  0
    0.0294   -2.4061   -0.0383 H   0  0  0  0  0  0  0  0  0  0  0  0
    1.2149   -0.6942    0.0000 C   0  0  0  0  0  0  0  0  0  0  0  0
    2.1117   -1.1561    0.0280 H   0  0  0  0  0  0  0  0  0  0  0  0
    1.1865    0.7320   -0.0213 C   0  0  0  0  0  0  0  0  0  0  0  0
    2.0604    1.2178   -0.0718 H   0  0  0  0  0  0  0  0  0  0  0  0
  1  5  1  0
  5  8  1  0
  1  2  1  0
  1  3  1  0
  1  4  1  0
  5  6  1  0
  5  7  1  0
  8  9  1  0
  8 10  1  0
  8 11  1  0
 12 16  1  0
 16 17  2  0
 17 19  1  0
 19 21  2  0
 21 23  1  0
 23 25  2  0
 25 16  1  0
 12 13  1  0
 12 14  1  0
 12 15  1  0
 17 18  1  0
 19 20  1  0
 21 22  1  0
 23 24  1  0
 25 26  1  0
M  CHG  1   8   1
M  END
>  <PDB_ID>  (1729) 
pdb4be3

>  <RESIDUE_NAME>  (1729) 
LYS   PHE

>  <FRAG_NAME>  (1729) 
ETAM   MBZ

>  <FRAG_ATOM_NUM>  (1729) 
fragi: 11  fragj: 15

>  <atom.prop.CHAIN_ID>  (1729) 
A A A A A A A A A A A Z Z Z Z Z Z Z Z Z Z Z Z Z Z Z

>  <atom.prop.IS_HEAVY_ATOM>  (1729) 
1 0 0 0 1 0 0 1 0 0 0 1 0 0 0 1 1 0 1 0 1 0 1 0 1 0

>  <DIFUSE_FUNC_ATOM>  (1729) 
n/a

>  <FINAL_SINGLE_POINT_ENERGY>  (1729) 
0

>  <NONCOV_INTER_ENERGY_QM>  (1729) 
0

>  <FF_Energy>  (1729) 
-1.2

>  <QM_Energy>  (1729) 
-6.76

>  <source>  (1729) 
ETAM_MBZ

>  <Index>  (1729) 
17492

$$$$
ETAM-pdb4bgv-B-LYS-213:MBZ-pdb4bgv-B-PHE-217
     RDKit          3D

 26 25  0  0  0  0  0  0  0  0999 V2000
    4.4880   -0.4332   -0.4714 C   0  0  0  0  0  0  0  0  0  0  0  0
    4.0043   -0.3891    0.4004 H   0  0  0  0  0  0  0  0  0  0  0  0
    3.8402   -0.3489   -1.2245 H   0  0  0  0  0  0  0  0  0  0  0  0
    5.2040    0.3871   -0.5229 H   0  0  0  0  0  0  0  0  0  0  0  0
    5.1708   -1.7856   -0.5743 C   0  0  0  0  0  0  0  0  0  0  0  0
    5.8620   -1.7484   -1.2987 H   0  0  0  0  0  0  0  0  0  0  0  0
    5.6199   -1.9919    0.2974 H   0  0  0  0  0  0  0  0  0  0  0  0
    4.1933   -2.8670   -0.8872 N   0  0  0  0  0  4  0  0  0  0  0  0
    3.8000   -3.2130   -0.0370 H   0  0  0  0  0  0  0  0  0  0  0  0
    3.4675   -2.4984   -1.4670 H   0  0  0  0  0  0  0  0  0  0  0  0
    4.6624   -3.6079   -1.3660 H   0  0  0  0  0  0  0  0  0  0  0  0
   -0.0301    2.9031   -0.0401 C   0  0  0  0  0  0  0  0  0  0  0  0
    0.8952    3.2264    0.0171 H   0  0  0  0  0  0  0  0  0  0  0  0
   -0.5868    3.2205    0.7029 H   0  0  0  0  0  0  0  0  0  0  0  0
   -0.4624    3.2707   -0.9707 H   0  0  0  0  0  0  0  0  0  0  0  0
   -0.0005    1.3987    0.0111 C   0  0  0  0  0  0  0  0  0  0  0  0
   -1.1942    0.6834   -0.0069 C   0  0  0  0  0  0  0  0  0  0  0  0
   -2.0625    1.1734   -0.0258 H   0  0  0  0  0  0  0  0  0  0  0  0
   -1.1947   -0.7016   -0.0000 C   0  0  0  0  0  0  0  0  0  0  0  0
   -2.0719   -1.1986    0.0022 H   0  0  0  0  0  0  0  0  0  0  0  0
    0.0028   -1.3885    0.0058 C   0  0  0  0  0  0  0  0  0  0  0  0
    0.0027   -2.3901    0.0139 H   0  0  0  0  0  0  0  0  0  0  0  0
    1.1947   -0.6922    0.0000 C   0  0  0  0  0  0  0  0  0  0  0  0
    2.0808   -1.1866    0.0040 H   0  0  0  0  0  0  0  0  0  0  0  0
    1.1919    0.7003   -0.0099 C   0  0  0  0  0  0  0  0  0  0  0  0
    2.0597    1.1930   -0.0333 H   0  0  0  0  0  0  0  0  0  0  0  0
  1  5  1  0
  5  8  1  0
  1  2  1  0
  1  3  1  0
  1  4  1  0
  5  6  1  0
  5  7  1  0
  8  9  1  0
  8 10  1  0
  8 11  1  0
 12 16  1  0
 16 17  2  0
 17 19  1  0
 19 21  2  0
 21 23  1  0
 23 25  2  0
 25 16  1  0
 12 13  1  0
 12 14  1  0
 12 15  1  0
 17 18  1  0
 19 20  1  0
 21 22  1  0
 23 24  1  0
 25 26  1  0
M  CHG  1   8   1
M  END
>  <PDB_ID>  (1730) 
pdb4bgv

>  <RESIDUE_NAME>  (1730) 
LYS   PHE

>  <FRAG_NAME>  (1730) 
ETAM   MBZ

>  <FRAG_ATOM_NUM>  (1730) 
fragi: 11  fragj: 15

>  <atom.prop.CHAIN_ID>  (1730) 
A A A A A A A A A A A Z Z Z Z Z Z Z Z Z Z Z Z Z Z Z

>  <atom.prop.IS_HEAVY_ATOM>  (1730) 
1 0 0 0 1 0 0 1 0 0 0 1 0 0 0 1 1 0 1 0 1 0 1 0 1 0

>  <DIFUSE_FUNC_ATOM>  (1730) 
n/a

>  <FINAL_SINGLE_POINT_ENERGY>  (1730) 
0

>  <NONCOV_INTER_ENERGY_QM>  (1730) 
0

>  <FF_Energy>  (1730) 
2.16

>  <QM_Energy>  (1730) 
-2.85

>  <source>  (1730) 
ETAM_MBZ

>  <Index>  (1730) 
17506

$$$$
ETAM-pdb4be3-B-LYS-252:MBZ-pdb4be3-B-PHE-259
     RDKit          3D

 26 25  0  0  0  0  0  0  0  0999 V2000
    4.3507   -3.7563   -3.8587 C   0  0  0  0  0  0  0  0  0  0  0  0
    3.8948   -3.6480   -4.7142 H   0  0  0  0  0  0  0  0  0  0  0  0
    3.9462   -4.4278   -3.2798 H   0  0  0  0  0  0  0  0  0  0  0  0
    5.3911   -4.0249   -4.0423 H   0  0  0  0  0  0  0  0  0  0  0  0
    4.3205   -2.3865   -3.1129 C   0  0  0  0  0  0  0  0  0  0  0  0
    4.6391   -2.5072   -2.2063 H   0  0  0  0  0  0  0  0  0  0  0  0
    4.8050   -1.7266   -3.6310 H   0  0  0  0  0  0  0  0  0  0  0  0
    2.8220   -1.9585   -3.0539 N   0  0  0  0  0  4  0  0  0  0  0  0
    2.7345   -1.1151   -3.5626 H   0  0  0  0  0  0  0  0  0  0  0  0
    2.2903   -2.6844   -3.4642 H   0  0  0  0  0  0  0  0  0  0  0  0
    2.5870   -1.8322   -2.1022 H   0  0  0  0  0  0  0  0  0  0  0  0
    0.0742    2.9016    0.0817 C   0  0  0  0  0  0  0  0  0  0  0  0
    1.0152    3.1803   -0.0228 H   0  0  0  0  0  0  0  0  0  0  0  0
   -0.2821    3.1489    0.9690 H   0  0  0  0  0  0  0  0  0  0  0  0
   -0.5180    3.4131   -0.6771 H   0  0  0  0  0  0  0  0  0  0  0  0
    0.0190    1.4066   -0.0379 C   0  0  0  0  0  0  0  0  0  0  0  0
   -1.2027    0.7061    0.0735 C   0  0  0  0  0  0  0  0  0  0  0  0
   -2.0428    1.2048    0.2019 H   0  0  0  0  0  0  0  0  0  0  0  0
   -1.2140   -0.6829    0.0000 C   0  0  0  0  0  0  0  0  0  0  0  0
   -2.0906   -1.1766   -0.0406 H   0  0  0  0  0  0  0  0  0  0  0  0
   -0.0031   -1.4113   -0.0163 C   0  0  0  0  0  0  0  0  0  0  0  0
   -0.0186   -2.3965   -0.0393 H   0  0  0  0  0  0  0  0  0  0  0  0
    1.2140   -0.7066   -0.0000 C   0  0  0  0  0  0  0  0  0  0  0  0
    2.0866   -1.1976    0.0261 H   0  0  0  0  0  0  0  0  0  0  0  0
    1.1868    0.6881   -0.0193 C   0  0  0  0  0  0  0  0  0  0  0  0
    2.0744    1.1824   -0.0198 H   0  0  0  0  0  0  0  0  0  0  0  0
  1  5  1  0
  5  8  1  0
  1  2  1  0
  1  3  1  0
  1  4  1  0
  5  6  1  0
  5  7  1  0
  8  9  1  0
  8 10  1  0
  8 11  1  0
 12 16  1  0
 16 17  2  0
 17 19  1  0
 19 21  2  0
 21 23  1  0
 23 25  2  0
 25 16  1  0
 12 13  1  0
 12 14  1  0
 12 15  1  0
 17 18  1  0
 19 20  1  0
 21 22  1  0
 23 24  1  0
 25 26  1  0
M  CHG  1   8   1
M  END
>  <PDB_ID>  (1731) 
pdb4be3

>  <RESIDUE_NAME>  (1731) 
LYS   PHE

>  <FRAG_NAME>  (1731) 
ETAM   MBZ

>  <FRAG_ATOM_NUM>  (1731) 
fragi: 11  fragj: 15

>  <atom.prop.CHAIN_ID>  (1731) 
A A A A A A A A A A A Z Z Z Z Z Z Z Z Z Z Z Z Z Z Z

>  <atom.prop.IS_HEAVY_ATOM>  (1731) 
1 0 0 0 1 0 0 1 0 0 0 1 0 0 0 1 1 0 1 0 1 0 1 0 1 0

>  <DIFUSE_FUNC_ATOM>  (1731) 
n/a

>  <FINAL_SINGLE_POINT_ENERGY>  (1731) 
0

>  <NONCOV_INTER_ENERGY_QM>  (1731) 
0

>  <FF_Energy>  (1731) 
-1.71

>  <QM_Energy>  (1731) 
-6.83

>  <source>  (1731) 
ETAM_MBZ

>  <Index>  (1731) 
17558

$$$$
ETAM-pdb4big-A-LYS-125:MBZ-pdb4big-A-PHE-105
     RDKit          3D

 26 25  0  0  0  0  0  0  0  0999 V2000
   -1.1927   -0.5760   -4.1818 C   0  0  0  0  0  0  0  0  0  0  0  0
   -1.4368   -1.5256   -4.0017 H   0  0  0  0  0  0  0  0  0  0  0  0
   -0.9792   -0.4551   -5.1472 H   0  0  0  0  0  0  0  0  0  0  0  0
   -2.0464    0.0544   -3.9330 H   0  0  0  0  0  0  0  0  0  0  0  0
    0.0405   -0.2259   -3.3623 C   0  0  0  0  0  0  0  0  0  0  0  0
    0.3268    0.7154   -3.5844 H   0  0  0  0  0  0  0  0  0  0  0  0
   -0.1963   -0.2566   -2.3823 H   0  0  0  0  0  0  0  0  0  0  0  0
    1.2058   -1.1508   -3.6023 N   0  0  0  0  0  4  0  0  0  0  0  0
    0.8572   -2.0516   -3.8475 H   0  0  0  0  0  0  0  0  0  0  0  0
    1.7602   -0.7845   -4.3453 H   0  0  0  0  0  0  0  0  0  0  0  0
    1.7473   -1.2093   -2.7682 H   0  0  0  0  0  0  0  0  0  0  0  0
   -0.0040    2.9259    0.0160 C   0  0  0  0  0  0  0  0  0  0  0  0
   -0.7921    3.2305   -0.4920 H   0  0  0  0  0  0  0  0  0  0  0  0
    0.8376    3.2361   -0.3920 H   0  0  0  0  0  0  0  0  0  0  0  0
   -0.0667    3.3561    1.0156 H   0  0  0  0  0  0  0  0  0  0  0  0
    0.0025    1.4078    0.0015 C   0  0  0  0  0  0  0  0  0  0  0  0
   -1.1883    0.6942    0.0005 C   0  0  0  0  0  0  0  0  0  0  0  0
   -2.0598    1.1793   -0.0007 H   0  0  0  0  0  0  0  0  0  0  0  0
   -1.1959   -0.7060    0.0000 C   0  0  0  0  0  0  0  0  0  0  0  0
   -2.0790   -1.1899    0.0017 H   0  0  0  0  0  0  0  0  0  0  0  0
   -0.0055   -1.4019   -0.0004 C   0  0  0  0  0  0  0  0  0  0  0  0
   -0.0031   -2.3989   -0.0020 H   0  0  0  0  0  0  0  0  0  0  0  0
    1.1959   -0.7001   -0.0000 C   0  0  0  0  0  0  0  0  0  0  0  0
    2.0791   -1.1908    0.0026 H   0  0  0  0  0  0  0  0  0  0  0  0
    1.1913    0.7059   -0.0016 C   0  0  0  0  0  0  0  0  0  0  0  0
    2.0646    1.1919   -0.0058 H   0  0  0  0  0  0  0  0  0  0  0  0
  1  5  1  0
  5  8  1  0
  1  2  1  0
  1  3  1  0
  1  4  1  0
  5  6  1  0
  5  7  1  0
  8  9  1  0
  8 10  1  0
  8 11  1  0
 12 16  1  0
 16 17  2  0
 17 19  1  0
 19 21  2  0
 21 23  1  0
 23 25  2  0
 25 16  1  0
 12 13  1  0
 12 14  1  0
 12 15  1  0
 17 18  1  0
 19 20  1  0
 21 22  1  0
 23 24  1  0
 25 26  1  0
M  CHG  1   8   1
M  END
>  <PDB_ID>  (1732) 
pdb4big

>  <RESIDUE_NAME>  (1732) 
LYS   PHE

>  <FRAG_NAME>  (1732) 
ETAM   MBZ

>  <FRAG_ATOM_NUM>  (1732) 
fragi: 11  fragj: 15

>  <atom.prop.CHAIN_ID>  (1732) 
A A A A A A A A A A A Z Z Z Z Z Z Z Z Z Z Z Z Z Z Z

>  <atom.prop.IS_HEAVY_ATOM>  (1732) 
1 0 0 0 1 0 0 1 0 0 0 1 0 0 0 1 1 0 1 0 1 0 1 0 1 0

>  <DIFUSE_FUNC_ATOM>  (1732) 
n/a

>  <FINAL_SINGLE_POINT_ENERGY>  (1732) 
0

>  <NONCOV_INTER_ENERGY_QM>  (1732) 
0

>  <FF_Energy>  (1732) 
-5.28

>  <QM_Energy>  (1732) 
-12.71

>  <source>  (1732) 
ETAM_MBZ

>  <Index>  (1732) 
17560

$$$$
ETAM-pdb3frh-A-LYS-147:MBZ-pdb3frh-A-PHE-143
     RDKit          3D

 26 25  0  0  0  0  0  0  0  0999 V2000
   -1.3734   -1.8776    4.3549 C   0  0  0  0  0  0  0  0  0  0  0  0
   -0.9877   -2.7313    4.6855 H   0  0  0  0  0  0  0  0  0  0  0  0
   -1.8902   -1.4272    5.0745 H   0  0  0  0  0  0  0  0  0  0  0  0
   -0.5617   -1.2226    4.0385 H   0  0  0  0  0  0  0  0  0  0  0  0
   -2.3047   -2.1780    3.2015 C   0  0  0  0  0  0  0  0  0  0  0  0
   -3.1105   -2.6551    3.5497 H   0  0  0  0  0  0  0  0  0  0  0  0
   -2.5833   -1.3180    2.7749 H   0  0  0  0  0  0  0  0  0  0  0  0
   -1.6249   -3.0257    2.2011 N   0  0  0  0  0  4  0  0  0  0  0  0
   -1.4766   -3.9408    2.5789 H   0  0  0  0  0  0  0  0  0  0  0  0
   -2.1912   -3.0959    1.3785 H   0  0  0  0  0  0  0  0  0  0  0  0
   -0.7411   -2.6208    1.9604 H   0  0  0  0  0  0  0  0  0  0  0  0
   -0.0045    2.9103   -0.0230 C   0  0  0  0  0  0  0  0  0  0  0  0
   -0.6910    3.1983   -0.6742 H   0  0  0  0  0  0  0  0  0  0  0  0
    0.8976    3.2085   -0.2971 H   0  0  0  0  0  0  0  0  0  0  0  0
   -0.2345    3.3760    0.9353 H   0  0  0  0  0  0  0  0  0  0  0  0
   -0.0028    1.4033    0.0112 C   0  0  0  0  0  0  0  0  0  0  0  0
   -1.1903    0.6792   -0.0050 C   0  0  0  0  0  0  0  0  0  0  0  0
   -2.0639    1.1679   -0.0224 H   0  0  0  0  0  0  0  0  0  0  0  0
   -1.1930   -0.7065   -0.0000 C   0  0  0  0  0  0  0  0  0  0  0  0
   -2.0698   -1.2018    0.0105 H   0  0  0  0  0  0  0  0  0  0  0  0
    0.0028   -1.3896   -0.0076 C   0  0  0  0  0  0  0  0  0  0  0  0
    0.0052   -2.3926   -0.0196 H   0  0  0  0  0  0  0  0  0  0  0  0
    1.1930   -0.6932    0.0000 C   0  0  0  0  0  0  0  0  0  0  0  0
    2.0808   -1.1832    0.0064 H   0  0  0  0  0  0  0  0  0  0  0  0
    1.1904    0.7068    0.0014 C   0  0  0  0  0  0  0  0  0  0  0  0
    2.0585    1.1965   -0.0060 H   0  0  0  0  0  0  0  0  0  0  0  0
  1  5  1  0
  5  8  1  0
  1  2  1  0
  1  3  1  0
  1  4  1  0
  5  6  1  0
  5  7  1  0
  8  9  1  0
  8 10  1  0
  8 11  1  0
 12 16  1  0
 16 17  2  0
 17 19  1  0
 19 21  2  0
 21 23  1  0
 23 25  2  0
 25 16  1  0
 12 13  1  0
 12 14  1  0
 12 15  1  0
 17 18  1  0
 19 20  1  0
 21 22  1  0
 23 24  1  0
 25 26  1  0
M  CHG  1   8   1
M  END
>  <PDB_ID>  (1733) 
pdb3frh

>  <RESIDUE_NAME>  (1733) 
LYS   PHE

>  <FRAG_NAME>  (1733) 
ETAM   MBZ

>  <FRAG_ATOM_NUM>  (1733) 
fragi: 11  fragj: 15

>  <atom.prop.CHAIN_ID>  (1733) 
A A A A A A A A A A A Z Z Z Z Z Z Z Z Z Z Z Z Z Z Z

>  <atom.prop.IS_HEAVY_ATOM>  (1733) 
1 0 0 0 1 0 0 1 0 0 0 1 0 0 0 1 1 0 1 0 1 0 1 0 1 0

>  <DIFUSE_FUNC_ATOM>  (1733) 
n/a

>  <FINAL_SINGLE_POINT_ENERGY>  (1733) 
0

>  <NONCOV_INTER_ENERGY_QM>  (1733) 
0

>  <FF_Energy>  (1733) 
-1.27

>  <QM_Energy>  (1733) 
-9.19

>  <source>  (1733) 
ETAM_MBZ

>  <Index>  (1733) 
17562

$$$$
ETAM-pdb3frk-B-LYS-69:MBZ-pdb3frk-B-PHE-227
     RDKit          3D

 26 25  0  0  0  0  0  0  0  0999 V2000
    2.2082   -5.7448    0.5791 C   0  0  0  0  0  0  0  0  0  0  0  0
    2.6829   -6.5588    0.2466 H   0  0  0  0  0  0  0  0  0  0  0  0
    2.3233   -5.6706    1.5691 H   0  0  0  0  0  0  0  0  0  0  0  0
    2.6527   -4.8672    0.1097 H   0  0  0  0  0  0  0  0  0  0  0  0
    0.7193   -5.8945    0.2757 C   0  0  0  0  0  0  0  0  0  0  0  0
    0.6168   -6.3569   -0.6263 H   0  0  0  0  0  0  0  0  0  0  0  0
    0.3075   -6.5183    0.9685 H   0  0  0  0  0  0  0  0  0  0  0  0
   -0.0752   -4.6193    0.2511 N   0  0  0  0  0  4  0  0  0  0  0  0
    0.3741   -3.9457    0.8327 H   0  0  0  0  0  0  0  0  0  0  0  0
   -0.1207   -4.2838   -0.6868 H   0  0  0  0  0  0  0  0  0  0  0  0
   -0.9943   -4.8029    0.5915 H   0  0  0  0  0  0  0  0  0  0  0  0
   -0.0275    2.8910    0.0155 C   0  0  0  0  0  0  0  0  0  0  0  0
    0.8238    3.2096    0.4106 H   0  0  0  0  0  0  0  0  0  0  0  0
   -0.8013    3.1762    0.5651 H   0  0  0  0  0  0  0  0  0  0  0  0
   -0.1304    3.3559   -0.9651 H   0  0  0  0  0  0  0  0  0  0  0  0
   -0.0003    1.3971   -0.0137 C   0  0  0  0  0  0  0  0  0  0  0  0
   -1.1769    0.6790    0.0134 C   0  0  0  0  0  0  0  0  0  0  0  0
   -2.0579    1.1745    0.0436 H   0  0  0  0  0  0  0  0  0  0  0  0
   -1.2112   -0.7134   -0.0000 C   0  0  0  0  0  0  0  0  0  0  0  0
   -2.0900   -1.1875    0.0086 H   0  0  0  0  0  0  0  0  0  0  0  0
   -0.0225   -1.3960   -0.0236 C   0  0  0  0  0  0  0  0  0  0  0  0
    0.0046   -2.3899   -0.0573 H   0  0  0  0  0  0  0  0  0  0  0  0
    1.2112   -0.6753   -0.0000 C   0  0  0  0  0  0  0  0  0  0  0  0
    2.0780   -1.1852    0.0003 H   0  0  0  0  0  0  0  0  0  0  0  0
    1.1997    0.7087    0.0238 C   0  0  0  0  0  0  0  0  0  0  0  0
    2.0607    1.2117    0.0676 H   0  0  0  0  0  0  0  0  0  0  0  0
  1  5  1  0
  5  8  1  0
  1  2  1  0
  1  3  1  0
  1  4  1  0
  5  6  1  0
  5  7  1  0
  8  9  1  0
  8 10  1  0
  8 11  1  0
 12 16  1  0
 16 17  2  0
 17 19  1  0
 19 21  2  0
 21 23  1  0
 23 25  2  0
 25 16  1  0
 12 13  1  0
 12 14  1  0
 12 15  1  0
 17 18  1  0
 19 20  1  0
 21 22  1  0
 23 24  1  0
 25 26  1  0
M  CHG  1   8   1
M  END
>  <PDB_ID>  (1734) 
pdb3frk

>  <RESIDUE_NAME>  (1734) 
LYS   PHE

>  <FRAG_NAME>  (1734) 
ETAM   MBZ

>  <FRAG_ATOM_NUM>  (1734) 
fragi: 11  fragj: 15

>  <atom.prop.CHAIN_ID>  (1734) 
A A A A A A A A A A A Z Z Z Z Z Z Z Z Z Z Z Z Z Z Z

>  <atom.prop.IS_HEAVY_ATOM>  (1734) 
1 0 0 0 1 0 0 1 0 0 0 1 0 0 0 1 1 0 1 0 1 0 1 0 1 0

>  <DIFUSE_FUNC_ATOM>  (1734) 
n/a

>  <FINAL_SINGLE_POINT_ENERGY>  (1734) 
0

>  <NONCOV_INTER_ENERGY_QM>  (1734) 
0

>  <FF_Energy>  (1734) 
6.3

>  <QM_Energy>  (1734) 
-1.52

>  <source>  (1734) 
ETAM_MBZ

>  <Index>  (1734) 
17569

$$$$
ETAM-pdb3fsx-C-LYS-147:MBZ-pdb3fsx-C-PHE-108
     RDKit          3D

 26 25  0  0  0  0  0  0  0  0999 V2000
   -1.9913    0.1040    3.4538 C   0  0  0  0  0  0  0  0  0  0  0  0
   -2.1597   -0.5211    2.7323 H   0  0  0  0  0  0  0  0  0  0  0  0
   -1.8522    1.0213    3.1718 H   0  0  0  0  0  0  0  0  0  0  0  0
   -2.8132    0.0632    4.1686 H   0  0  0  0  0  0  0  0  0  0  0  0
   -0.7332   -0.3652    4.2208 C   0  0  0  0  0  0  0  0  0  0  0  0
   -0.4406    0.4053    4.8182 H   0  0  0  0  0  0  0  0  0  0  0  0
   -1.0226   -1.1194    4.8408 H   0  0  0  0  0  0  0  0  0  0  0  0
    0.3553   -0.7937    3.3805 N   0  0  0  0  0  4  0  0  0  0  0  0
    0.3388   -0.3042    2.5002 H   0  0  0  0  0  0  0  0  0  0  0  0
    1.2407   -0.6131    3.8260 H   0  0  0  0  0  0  0  0  0  0  0  0
    0.2925   -1.7817    3.1927 H   0  0  0  0  0  0  0  0  0  0  0  0
    0.0149    2.8755   -0.0039 C   0  0  0  0  0  0  0  0  0  0  0  0
   -0.7272    3.2024   -0.5720 H   0  0  0  0  0  0  0  0  0  0  0  0
    0.8903    3.1899   -0.3436 H   0  0  0  0  0  0  0  0  0  0  0  0
   -0.1216    3.3114    0.9858 H   0  0  0  0  0  0  0  0  0  0  0  0
    0.0030    1.4039   -0.0020 C   0  0  0  0  0  0  0  0  0  0  0  0
   -1.2038    0.7092   -0.0038 C   0  0  0  0  0  0  0  0  0  0  0  0
   -2.0635    1.1990   -0.0091 H   0  0  0  0  0  0  0  0  0  0  0  0
   -1.2074   -0.6884    0.0000 C   0  0  0  0  0  0  0  0  0  0  0  0
   -2.0834   -1.1814    0.0020 H   0  0  0  0  0  0  0  0  0  0  0  0
   -0.0002   -1.3979    0.0031 C   0  0  0  0  0  0  0  0  0  0  0  0
   -0.0160   -2.3954    0.0075 H   0  0  0  0  0  0  0  0  0  0  0  0
    1.2074   -0.7115   -0.0000 C   0  0  0  0  0  0  0  0  0  0  0  0
    2.0836   -1.2076   -0.0023 H   0  0  0  0  0  0  0  0  0  0  0  0
    1.2009    0.6847    0.0027 C   0  0  0  0  0  0  0  0  0  0  0  0
    2.0714    1.1800    0.0072 H   0  0  0  0  0  0  0  0  0  0  0  0
  1  5  1  0
  5  8  1  0
  1  2  1  0
  1  3  1  0
  1  4  1  0
  5  6  1  0
  5  7  1  0
  8  9  1  0
  8 10  1  0
  8 11  1  0
 12 16  1  0
 16 17  2  0
 17 19  1  0
 19 21  2  0
 21 23  1  0
 23 25  2  0
 25 16  1  0
 12 13  1  0
 12 14  1  0
 12 15  1  0
 17 18  1  0
 19 20  1  0
 21 22  1  0
 23 24  1  0
 25 26  1  0
M  CHG  1   8   1
M  END
>  <PDB_ID>  (1735) 
pdb3fsx

>  <RESIDUE_NAME>  (1735) 
LYS   PHE

>  <FRAG_NAME>  (1735) 
ETAM   MBZ

>  <FRAG_ATOM_NUM>  (1735) 
fragi: 11  fragj: 15

>  <atom.prop.CHAIN_ID>  (1735) 
A A A A A A A A A A A Z Z Z Z Z Z Z Z Z Z Z Z Z Z Z

>  <atom.prop.IS_HEAVY_ATOM>  (1735) 
1 0 0 0 1 0 0 1 0 0 0 1 0 0 0 1 1 0 1 0 1 0 1 0 1 0

>  <DIFUSE_FUNC_ATOM>  (1735) 
n/a

>  <FINAL_SINGLE_POINT_ENERGY>  (1735) 
0

>  <NONCOV_INTER_ENERGY_QM>  (1735) 
0

>  <FF_Energy>  (1735) 
-8.5

>  <QM_Energy>  (1735) 
-15.42

>  <source>  (1735) 
ETAM_MBZ

>  <Index>  (1735) 
17612

$$$$
ETAM-pdb3fsx-D-LYS-147:MBZ-pdb3fsx-D-PHE-108
     RDKit          3D

 26 25  0  0  0  0  0  0  0  0999 V2000
   -2.8011    0.4080    3.1021 C   0  0  0  0  0  0  0  0  0  0  0  0
   -3.0488    0.0541    2.2289 H   0  0  0  0  0  0  0  0  0  0  0  0
   -2.3745    1.2837    3.0656 H   0  0  0  0  0  0  0  0  0  0  0  0
   -3.6741    0.4422    3.7540 H   0  0  0  0  0  0  0  0  0  0  0  0
   -1.7783   -0.5887    3.7424 C   0  0  0  0  0  0  0  0  0  0  0  0
   -2.0250   -0.6754    4.7157 H   0  0  0  0  0  0  0  0  0  0  0  0
   -1.9253   -1.4820    3.3002 H   0  0  0  0  0  0  0  0  0  0  0  0
   -0.4178   -0.1525    3.5900 N   0  0  0  0  0  4  0  0  0  0  0  0
   -0.1814    0.5317    4.2926 H   0  0  0  0  0  0  0  0  0  0  0  0
    0.2188   -0.9293    3.6809 H   0  0  0  0  0  0  0  0  0  0  0  0
   -0.2757    0.2660    2.6834 H   0  0  0  0  0  0  0  0  0  0  0  0
    0.0014    2.9060    0.0127 C   0  0  0  0  0  0  0  0  0  0  0  0
   -0.7145    3.2262   -0.5857 H   0  0  0  0  0  0  0  0  0  0  0  0
    0.8888    3.2268   -0.2752 H   0  0  0  0  0  0  0  0  0  0  0  0
   -0.1902    3.3235    1.0012 H   0  0  0  0  0  0  0  0  0  0  0  0
    0.0056    1.4179   -0.0037 C   0  0  0  0  0  0  0  0  0  0  0  0
   -1.2146    0.7114    0.0098 C   0  0  0  0  0  0  0  0  0  0  0  0
   -2.0702    1.2014    0.0250 H   0  0  0  0  0  0  0  0  0  0  0  0
   -1.2228   -0.7016    0.0000 C   0  0  0  0  0  0  0  0  0  0  0  0
   -2.0924   -1.1914   -0.0017 H   0  0  0  0  0  0  0  0  0  0  0  0
    0.0014   -1.4187   -0.0055 C   0  0  0  0  0  0  0  0  0  0  0  0
   -0.0098   -2.4071   -0.0133 H   0  0  0  0  0  0  0  0  0  0  0  0
    1.2228   -0.7139   -0.0000 C   0  0  0  0  0  0  0  0  0  0  0  0
    2.0957   -1.2006    0.0056 H   0  0  0  0  0  0  0  0  0  0  0  0
    1.2075    0.7049   -0.0007 C   0  0  0  0  0  0  0  0  0  0  0  0
    2.0767    1.1942    0.0003 H   0  0  0  0  0  0  0  0  0  0  0  0
  1  5  1  0
  5  8  1  0
  1  2  1  0
  1  3  1  0
  1  4  1  0
  5  6  1  0
  5  7  1  0
  8  9  1  0
  8 10  1  0
  8 11  1  0
 12 16  1  0
 16 17  2  0
 17 19  1  0
 19 21  2  0
 21 23  1  0
 23 25  2  0
 25 16  1  0
 12 13  1  0
 12 14  1  0
 12 15  1  0
 17 18  1  0
 19 20  1  0
 21 22  1  0
 23 24  1  0
 25 26  1  0
M  CHG  1   8   1
M  END
>  <PDB_ID>  (1736) 
pdb3fsx

>  <RESIDUE_NAME>  (1736) 
LYS   PHE

>  <FRAG_NAME>  (1736) 
ETAM   MBZ

>  <FRAG_ATOM_NUM>  (1736) 
fragi: 11  fragj: 15

>  <atom.prop.CHAIN_ID>  (1736) 
A A A A A A A A A A A Z Z Z Z Z Z Z Z Z Z Z Z Z Z Z

>  <atom.prop.IS_HEAVY_ATOM>  (1736) 
1 0 0 0 1 0 0 1 0 0 0 1 0 0 0 1 1 0 1 0 1 0 1 0 1 0

>  <DIFUSE_FUNC_ATOM>  (1736) 
n/a

>  <FINAL_SINGLE_POINT_ENERGY>  (1736) 
0

>  <NONCOV_INTER_ENERGY_QM>  (1736) 
0

>  <FF_Energy>  (1736) 
-8.08

>  <QM_Energy>  (1736) 
-14.64

>  <source>  (1736) 
ETAM_MBZ

>  <Index>  (1736) 
17613

$$$$
ETAM-pdb4blk-A-LYS-216:MBZ-pdb4blk-A-PHE-143
     RDKit          3D

 26 25  0  0  0  0  0  0  0  0999 V2000
    1.4934    0.5258   -3.8128 C   0  0  0  0  0  0  0  0  0  0  0  0
    1.6584    0.4239   -4.7628 H   0  0  0  0  0  0  0  0  0  0  0  0
    1.9286   -0.1851   -3.3161 H   0  0  0  0  0  0  0  0  0  0  0  0
    1.8818    1.4884   -3.4800 H   0  0  0  0  0  0  0  0  0  0  0  0
   -0.0062    0.4244   -3.5755 C   0  0  0  0  0  0  0  0  0  0  0  0
   -0.1848    0.5400   -2.6282 H   0  0  0  0  0  0  0  0  0  0  0  0
   -0.4541    1.1182   -4.0840 H   0  0  0  0  0  0  0  0  0  0  0  0
   -0.5716   -0.8941   -3.9940 N   0  0  0  0  0  4  0  0  0  0  0  0
   -0.1833   -1.5511   -3.5367 H   0  0  0  0  0  0  0  0  0  0  0  0
   -1.4479   -0.9127   -3.8393 H   0  0  0  0  0  0  0  0  0  0  0  0
   -0.4288   -1.0245   -4.8636 H   0  0  0  0  0  0  0  0  0  0  0  0
   -0.0126    2.9057   -0.0123 C   0  0  0  0  0  0  0  0  0  0  0  0
   -0.7201    3.1938   -0.6105 H   0  0  0  0  0  0  0  0  0  0  0  0
    0.8448    3.2073   -0.3497 H   0  0  0  0  0  0  0  0  0  0  0  0
   -0.1797    3.3523    0.9680 H   0  0  0  0  0  0  0  0  0  0  0  0
   -0.0010    1.4036   -0.0059 C   0  0  0  0  0  0  0  0  0  0  0  0
   -1.1889    0.6899    0.0064 C   0  0  0  0  0  0  0  0  0  0  0  0
   -1.9979    1.1485   -0.0004 H   0  0  0  0  0  0  0  0  0  0  0  0
   -1.1899   -0.7052    0.0000 C   0  0  0  0  0  0  0  0  0  0  0  0
   -1.9945   -1.1718    0.0064 H   0  0  0  0  0  0  0  0  0  0  0  0
    0.0009   -1.3832    0.0013 C   0  0  0  0  0  0  0  0  0  0  0  0
    0.0019   -2.3130    0.0049 H   0  0  0  0  0  0  0  0  0  0  0  0
    1.1899   -0.7014   -0.0000 C   0  0  0  0  0  0  0  0  0  0  0  0
    1.9949   -1.1670    0.0001 H   0  0  0  0  0  0  0  0  0  0  0  0
    1.1890    0.6964   -0.0018 C   0  0  0  0  0  0  0  0  0  0  0  0
    1.9964    1.1567   -0.0070 H   0  0  0  0  0  0  0  0  0  0  0  0
  1  5  1  0
  5  8  1  0
  1  2  1  0
  1  3  1  0
  1  4  1  0
  5  6  1  0
  5  7  1  0
  8  9  1  0
  8 10  1  0
  8 11  1  0
 12 16  1  0
 16 17  2  0
 17 19  1  0
 19 21  2  0
 21 23  1  0
 23 25  2  0
 25 16  1  0
 12 13  1  0
 12 14  1  0
 12 15  1  0
 17 18  1  0
 19 20  1  0
 21 22  1  0
 23 24  1  0
 25 26  1  0
M  CHG  1   8   1
M  END
>  <PDB_ID>  (1737) 
pdb4blk

>  <RESIDUE_NAME>  (1737) 
LYS   PHE

>  <FRAG_NAME>  (1737) 
ETAM   MBZ

>  <FRAG_ATOM_NUM>  (1737) 
fragi: 11  fragj: 15

>  <atom.prop.CHAIN_ID>  (1737) 
A A A A A A A A A A A Z Z Z Z Z Z Z Z Z Z Z Z Z Z Z

>  <atom.prop.IS_HEAVY_ATOM>  (1737) 
1 0 0 0 1 0 0 1 0 0 0 1 0 0 0 1 1 0 1 0 1 0 1 0 1 0

>  <DIFUSE_FUNC_ATOM>  (1737) 
n/a

>  <FINAL_SINGLE_POINT_ENERGY>  (1737) 
0

>  <NONCOV_INTER_ENERGY_QM>  (1737) 
0

>  <FF_Energy>  (1737) 
-6.13

>  <QM_Energy>  (1737) 
-11.32

>  <source>  (1737) 
ETAM_MBZ

>  <Index>  (1737) 
17625

$$$$
ETAM-pdb4bl0-A-LYS-109:MBZ-pdb4bl0-A-PHE-64
     RDKit          3D

 26 25  0  0  0  0  0  0  0  0999 V2000
    0.2794   -2.3523   -5.1392 C   0  0  0  0  0  0  0  0  0  0  0  0
   -0.1523   -3.2080   -5.4010 H   0  0  0  0  0  0  0  0  0  0  0  0
    1.2643   -2.4085   -5.2532 H   0  0  0  0  0  0  0  0  0  0  0  0
   -0.1067   -1.5526   -5.7713 H   0  0  0  0  0  0  0  0  0  0  0  0
   -0.0234   -2.0868   -3.6708 C   0  0  0  0  0  0  0  0  0  0  0  0
    0.3183   -2.8550   -3.1247 H   0  0  0  0  0  0  0  0  0  0  0  0
    0.4512   -1.2494   -3.3877 H   0  0  0  0  0  0  0  0  0  0  0  0
   -1.4861   -1.9256   -3.4259 N   0  0  0  0  0  4  0  0  0  0  0  0
   -1.6908   -2.1718   -2.4798 H   0  0  0  0  0  0  0  0  0  0  0  0
   -1.7451   -0.9745   -3.5895 H   0  0  0  0  0  0  0  0  0  0  0  0
   -1.9921   -2.5237   -4.0464 H   0  0  0  0  0  0  0  0  0  0  0  0
    0.0008    2.9008   -0.0101 C   0  0  0  0  0  0  0  0  0  0  0  0
    0.8341    3.2090    0.4209 H   0  0  0  0  0  0  0  0  0  0  0  0
   -0.7984    3.2098    0.4817 H   0  0  0  0  0  0  0  0  0  0  0  0
   -0.0361    3.3300   -1.0114 H   0  0  0  0  0  0  0  0  0  0  0  0
    0.0005    1.3964    0.0005 C   0  0  0  0  0  0  0  0  0  0  0  0
   -1.1919    0.6910   -0.0001 C   0  0  0  0  0  0  0  0  0  0  0  0
   -2.0592    1.1829   -0.0019 H   0  0  0  0  0  0  0  0  0  0  0  0
   -1.1958   -0.6930   -0.0000 C   0  0  0  0  0  0  0  0  0  0  0  0
   -2.0745   -1.1881    0.0005 H   0  0  0  0  0  0  0  0  0  0  0  0
   -0.0006   -1.3872    0.0014 C   0  0  0  0  0  0  0  0  0  0  0  0
   -0.0064   -2.3885    0.0029 H   0  0  0  0  0  0  0  0  0  0  0  0
    1.1958   -0.6958    0.0000 C   0  0  0  0  0  0  0  0  0  0  0  0
    2.0783   -1.1957    0.0020 H   0  0  0  0  0  0  0  0  0  0  0  0
    1.1920    0.6885   -0.0018 C   0  0  0  0  0  0  0  0  0  0  0  0
    2.0622    1.1862   -0.0057 H   0  0  0  0  0  0  0  0  0  0  0  0
  1  5  1  0
  5  8  1  0
  1  2  1  0
  1  3  1  0
  1  4  1  0
  5  6  1  0
  5  7  1  0
  8  9  1  0
  8 10  1  0
  8 11  1  0
 12 16  1  0
 16 17  2  0
 17 19  1  0
 19 21  2  0
 21 23  1  0
 23 25  2  0
 25 16  1  0
 12 13  1  0
 12 14  1  0
 12 15  1  0
 17 18  1  0
 19 20  1  0
 21 22  1  0
 23 24  1  0
 25 26  1  0
M  CHG  1   8   1
M  END
>  <PDB_ID>  (1738) 
pdb4bl0

>  <RESIDUE_NAME>  (1738) 
LYS   PHE

>  <FRAG_NAME>  (1738) 
ETAM   MBZ

>  <FRAG_ATOM_NUM>  (1738) 
fragi: 11  fragj: 15

>  <atom.prop.CHAIN_ID>  (1738) 
A A A A A A A A A A A Z Z Z Z Z Z Z Z Z Z Z Z Z Z Z

>  <atom.prop.IS_HEAVY_ATOM>  (1738) 
1 0 0 0 1 0 0 1 0 0 0 1 0 0 0 1 1 0 1 0 1 0 1 0 1 0

>  <DIFUSE_FUNC_ATOM>  (1738) 
n/a

>  <FINAL_SINGLE_POINT_ENERGY>  (1738) 
0

>  <NONCOV_INTER_ENERGY_QM>  (1738) 
0

>  <FF_Energy>  (1738) 
-4.17

>  <QM_Energy>  (1738) 
-9.5

>  <source>  (1738) 
ETAM_MBZ

>  <Index>  (1738) 
17628

$$$$
ETAM-pdb4bht-B-LYS-107:MBZ-pdb4bht-B-PHE-24
     RDKit          3D

 26 25  0  0  0  0  0  0  0  0999 V2000
    0.0511    0.8659   -4.6169 C   0  0  0  0  0  0  0  0  0  0  0  0
    0.4160    0.5757   -5.4677 H   0  0  0  0  0  0  0  0  0  0  0  0
    0.4369    1.7210   -4.3718 H   0  0  0  0  0  0  0  0  0  0  0  0
   -1.0268    0.9881   -4.7234 H   0  0  0  0  0  0  0  0  0  0  0  0
    0.4753   -0.1517   -3.5616 C   0  0  0  0  0  0  0  0  0  0  0  0
    0.1356    0.1207   -2.6941 H   0  0  0  0  0  0  0  0  0  0  0  0
    0.1337   -1.0279   -3.8002 H   0  0  0  0  0  0  0  0  0  0  0  0
    1.9545   -0.2286   -3.4846 N   0  0  0  0  0  4  0  0  0  0  0  0
    2.2893    0.5670   -3.2664 H   0  0  0  0  0  0  0  0  0  0  0  0
    2.1962   -0.8228   -2.8682 H   0  0  0  0  0  0  0  0  0  0  0  0
    2.2872   -0.4769   -4.2714 H   0  0  0  0  0  0  0  0  0  0  0  0
   -0.0198    2.8560    0.0373 C   0  0  0  0  0  0  0  0  0  0  0  0
   -0.4987    3.1598   -0.7494 H   0  0  0  0  0  0  0  0  0  0  0  0
    0.8980    3.1695    0.0107 H   0  0  0  0  0  0  0  0  0  0  0  0
   -0.5067    3.2539    0.9277 H   0  0  0  0  0  0  0  0  0  0  0  0
   -0.0015    1.3682    0.0210 C   0  0  0  0  0  0  0  0  0  0  0  0
   -1.1828    0.6685   -0.0093 C   0  0  0  0  0  0  0  0  0  0  0  0
   -1.9914    1.1272    0.0066 H   0  0  0  0  0  0  0  0  0  0  0  0
   -1.1791   -0.6681   -0.0000 C   0  0  0  0  0  0  0  0  0  0  0  0
   -1.9839   -1.1336   -0.0183 H   0  0  0  0  0  0  0  0  0  0  0  0
    0.0061   -1.3549   -0.0171 C   0  0  0  0  0  0  0  0  0  0  0  0
    0.0016   -2.2848   -0.0229 H   0  0  0  0  0  0  0  0  0  0  0  0
    1.1791   -0.6902   -0.0000 C   0  0  0  0  0  0  0  0  0  0  0  0
    1.9830   -1.1586   -0.0064 H   0  0  0  0  0  0  0  0  0  0  0  0
    1.1782    0.6765    0.0053 C   0  0  0  0  0  0  0  0  0  0  0  0
    1.9851    1.1392    0.0205 H   0  0  0  0  0  0  0  0  0  0  0  0
  1  5  1  0
  5  8  1  0
  1  2  1  0
  1  3  1  0
  1  4  1  0
  5  6  1  0
  5  7  1  0
  8  9  1  0
  8 10  1  0
  8 11  1  0
 12 16  1  0
 16 17  2  0
 17 19  1  0
 19 21  2  0
 21 23  1  0
 23 25  2  0
 25 16  1  0
 12 13  1  0
 12 14  1  0
 12 15  1  0
 17 18  1  0
 19 20  1  0
 21 22  1  0
 23 24  1  0
 25 26  1  0
M  CHG  1   8   1
M  END
>  <PDB_ID>  (1739) 
pdb4bht

>  <RESIDUE_NAME>  (1739) 
LYS   PHE

>  <FRAG_NAME>  (1739) 
ETAM   MBZ

>  <FRAG_ATOM_NUM>  (1739) 
fragi: 11  fragj: 15

>  <atom.prop.CHAIN_ID>  (1739) 
A A A A A A A A A A A Z Z Z Z Z Z Z Z Z Z Z Z Z Z Z

>  <atom.prop.IS_HEAVY_ATOM>  (1739) 
1 0 0 0 1 0 0 1 0 0 0 1 0 0 0 1 1 0 1 0 1 0 1 0 1 0

>  <DIFUSE_FUNC_ATOM>  (1739) 
n/a

>  <FINAL_SINGLE_POINT_ENERGY>  (1739) 
0

>  <NONCOV_INTER_ENERGY_QM>  (1739) 
0

>  <FF_Energy>  (1739) 
-5.76

>  <QM_Energy>  (1739) 
-11.28

>  <source>  (1739) 
ETAM_MBZ

>  <Index>  (1739) 
17635

$$$$
ETAM-pdb4bop-A-LYS-327:MBZ-pdb4bop-A-PHE-312
     RDKit          3D

 26 25  0  0  0  0  0  0  0  0999 V2000
   -1.7968   -1.0807    3.5220 C   0  0  0  0  0  0  0  0  0  0  0  0
   -1.9994   -1.5849    4.3601 H   0  0  0  0  0  0  0  0  0  0  0  0
   -2.2367   -1.5272    2.7450 H   0  0  0  0  0  0  0  0  0  0  0  0
   -2.1921   -0.0693    3.6164 H   0  0  0  0  0  0  0  0  0  0  0  0
   -0.2938   -1.0954    3.3006 C   0  0  0  0  0  0  0  0  0  0  0  0
   -0.0858   -0.6474    2.4288 H   0  0  0  0  0  0  0  0  0  0  0  0
    0.1525   -0.5920    4.0433 H   0  0  0  0  0  0  0  0  0  0  0  0
    0.2460   -2.4931    3.2691 N   0  0  0  0  0  4  0  0  0  0  0  0
    0.8836   -2.6136    4.0270 H   0  0  0  0  0  0  0  0  0  0  0  0
   -0.5111   -3.1367    3.3564 H   0  0  0  0  0  0  0  0  0  0  0  0
    0.7183   -2.6407    2.4022 H   0  0  0  0  0  0  0  0  0  0  0  0
    0.0024    2.8982   -0.0096 C   0  0  0  0  0  0  0  0  0  0  0  0
    0.8468    3.2107    0.3970 H   0  0  0  0  0  0  0  0  0  0  0  0
   -0.7836    3.2113    0.4998 H   0  0  0  0  0  0  0  0  0  0  0  0
   -0.0605    3.3277   -1.0094 H   0  0  0  0  0  0  0  0  0  0  0  0
    0.0021    1.3991    0.0013 C   0  0  0  0  0  0  0  0  0  0  0  0
   -1.1927    0.6922    0.0008 C   0  0  0  0  0  0  0  0  0  0  0  0
   -2.0601    1.1841    0.0001 H   0  0  0  0  0  0  0  0  0  0  0  0
   -1.1994   -0.6953   -0.0000 C   0  0  0  0  0  0  0  0  0  0  0  0
   -2.0786   -1.1872    0.0017 H   0  0  0  0  0  0  0  0  0  0  0  0
   -0.0029   -1.3935   -0.0011 C   0  0  0  0  0  0  0  0  0  0  0  0
   -0.0071   -2.3915   -0.0034 H   0  0  0  0  0  0  0  0  0  0  0  0
    1.1994   -0.6973   -0.0000 C   0  0  0  0  0  0  0  0  0  0  0  0
    2.0799   -1.1941    0.0035 H   0  0  0  0  0  0  0  0  0  0  0  0
    1.1935    0.6948   -0.0010 C   0  0  0  0  0  0  0  0  0  0  0  0
    2.0642    1.1895   -0.0044 H   0  0  0  0  0  0  0  0  0  0  0  0
  1  5  1  0
  5  8  1  0
  1  2  1  0
  1  3  1  0
  1  4  1  0
  5  6  1  0
  5  7  1  0
  8  9  1  0
  8 10  1  0
  8 11  1  0
 12 16  1  0
 16 17  2  0
 17 19  1  0
 19 21  2  0
 21 23  1  0
 23 25  2  0
 25 16  1  0
 12 13  1  0
 12 14  1  0
 12 15  1  0
 17 18  1  0
 19 20  1  0
 21 22  1  0
 23 24  1  0
 25 26  1  0
M  CHG  1   8   1
M  END
>  <PDB_ID>  (1740) 
pdb4bop

>  <RESIDUE_NAME>  (1740) 
LYS   PHE

>  <FRAG_NAME>  (1740) 
ETAM   MBZ

>  <FRAG_ATOM_NUM>  (1740) 
fragi: 11  fragj: 15

>  <atom.prop.CHAIN_ID>  (1740) 
A A A A A A A A A A A Z Z Z Z Z Z Z Z Z Z Z Z Z Z Z

>  <atom.prop.IS_HEAVY_ATOM>  (1740) 
1 0 0 0 1 0 0 1 0 0 0 1 0 0 0 1 1 0 1 0 1 0 1 0 1 0

>  <DIFUSE_FUNC_ATOM>  (1740) 
n/a

>  <FINAL_SINGLE_POINT_ENERGY>  (1740) 
0

>  <NONCOV_INTER_ENERGY_QM>  (1740) 
0

>  <FF_Energy>  (1740) 
-3.59

>  <QM_Energy>  (1740) 
-11.47

>  <source>  (1740) 
ETAM_MBZ

>  <Index>  (1740) 
17651

$$$$
ETAM-pdb4bqa-A-LYS-332:MBZ-pdb4bqa-A-PHE-452
     RDKit          3D

 26 25  0  0  0  0  0  0  0  0999 V2000
   -1.8466   -1.3660   -3.4904 C   0  0  0  0  0  0  0  0  0  0  0  0
   -1.6396   -0.6952   -2.7855 H   0  0  0  0  0  0  0  0  0  0  0  0
   -1.8347   -0.9386   -4.3881 H   0  0  0  0  0  0  0  0  0  0  0  0
   -1.0914   -2.1514   -3.4630 H   0  0  0  0  0  0  0  0  0  0  0  0
   -3.2396   -1.9218   -3.2363 C   0  0  0  0  0  0  0  0  0  0  0  0
   -3.9053   -1.1698   -3.2939 H   0  0  0  0  0  0  0  0  0  0  0  0
   -3.4574   -2.5953   -3.9515 H   0  0  0  0  0  0  0  0  0  0  0  0
   -3.3573   -2.5749   -1.9012 N   0  0  0  0  0  4  0  0  0  0  0  0
   -2.9280   -3.4763   -1.9357 H   0  0  0  0  0  0  0  0  0  0  0  0
   -2.8987   -2.0106   -1.2155 H   0  0  0  0  0  0  0  0  0  0  0  0
   -4.3234   -2.6717   -1.6643 H   0  0  0  0  0  0  0  0  0  0  0  0
    0.0041    2.8955    0.0078 C   0  0  0  0  0  0  0  0  0  0  0  0
    0.8797    3.1973    0.3568 H   0  0  0  0  0  0  0  0  0  0  0  0
   -0.7363    3.2001    0.5901 H   0  0  0  0  0  0  0  0  0  0  0  0
   -0.1372    3.3477   -0.9738 H   0  0  0  0  0  0  0  0  0  0  0  0
    0.0002    1.3939   -0.0020 C   0  0  0  0  0  0  0  0  0  0  0  0
   -1.1910    0.6891    0.0017 C   0  0  0  0  0  0  0  0  0  0  0  0
   -2.0593    1.1810    0.0042 H   0  0  0  0  0  0  0  0  0  0  0  0
   -1.1938   -0.6925    0.0000 C   0  0  0  0  0  0  0  0  0  0  0  0
   -2.0729   -1.1882    0.0003 H   0  0  0  0  0  0  0  0  0  0  0  0
    0.0000   -1.3838   -0.0006 C   0  0  0  0  0  0  0  0  0  0  0  0
   -0.0042   -2.3857   -0.0022 H   0  0  0  0  0  0  0  0  0  0  0  0
    1.1938   -0.6934   -0.0000 C   0  0  0  0  0  0  0  0  0  0  0  0
    2.0775   -1.1942    0.0017 H   0  0  0  0  0  0  0  0  0  0  0  0
    1.1907    0.6869    0.0008 C   0  0  0  0  0  0  0  0  0  0  0  0
    2.0611    1.1860    0.0030 H   0  0  0  0  0  0  0  0  0  0  0  0
  1  5  1  0
  5  8  1  0
  1  2  1  0
  1  3  1  0
  1  4  1  0
  5  6  1  0
  5  7  1  0
  8  9  1  0
  8 10  1  0
  8 11  1  0
 12 16  1  0
 16 17  2  0
 17 19  1  0
 19 21  2  0
 21 23  1  0
 23 25  2  0
 25 16  1  0
 12 13  1  0
 12 14  1  0
 12 15  1  0
 17 18  1  0
 19 20  1  0
 21 22  1  0
 23 24  1  0
 25 26  1  0
M  CHG  1   8   1
M  END
>  <PDB_ID>  (1741) 
pdb4bqa

>  <RESIDUE_NAME>  (1741) 
LYS   PHE

>  <FRAG_NAME>  (1741) 
ETAM   MBZ

>  <FRAG_ATOM_NUM>  (1741) 
fragi: 11  fragj: 15

>  <atom.prop.CHAIN_ID>  (1741) 
A A A A A A A A A A A Z Z Z Z Z Z Z Z Z Z Z Z Z Z Z

>  <atom.prop.IS_HEAVY_ATOM>  (1741) 
1 0 0 0 1 0 0 1 0 0 0 1 0 0 0 1 1 0 1 0 1 0 1 0 1 0

>  <DIFUSE_FUNC_ATOM>  (1741) 
n/a

>  <FINAL_SINGLE_POINT_ENERGY>  (1741) 
0

>  <NONCOV_INTER_ENERGY_QM>  (1741) 
0

>  <FF_Energy>  (1741) 
-0.07

>  <QM_Energy>  (1741) 
-5.69

>  <source>  (1741) 
ETAM_MBZ

>  <Index>  (1741) 
17678

$$$$
ETAM-pdb3fyc-A-LYS-41:MBZ-pdb3fyc-A-PHE-12
     RDKit          3D

 26 25  0  0  0  0  0  0  0  0999 V2000
   -0.7227    0.9587    4.8653 C   0  0  0  0  0  0  0  0  0  0  0  0
   -0.7043    1.2402    5.8204 H   0  0  0  0  0  0  0  0  0  0  0  0
   -1.2586    0.1252    4.7629 H   0  0  0  0  0  0  0  0  0  0  0  0
   -1.1849    1.7496    4.2747 H   0  0  0  0  0  0  0  0  0  0  0  0
    0.6930    0.6857    4.4113 C   0  0  0  0  0  0  0  0  0  0  0  0
    1.1785    1.5582    4.3119 H   0  0  0  0  0  0  0  0  0  0  0  0
    1.1598    0.1343    5.1088 H   0  0  0  0  0  0  0  0  0  0  0  0
    0.7181   -0.0368    3.1201 N   0  0  0  0  0  4  0  0  0  0  0  0
   -0.0622    0.2478    2.5610 H   0  0  0  0  0  0  0  0  0  0  0  0
    1.5678    0.1735    2.6346 H   0  0  0  0  0  0  0  0  0  0  0  0
    0.6652   -1.0224    3.2859 H   0  0  0  0  0  0  0  0  0  0  0  0
   -0.0055    2.8982    0.0059 C   0  0  0  0  0  0  0  0  0  0  0  0
    0.8567    3.2068    0.3815 H   0  0  0  0  0  0  0  0  0  0  0  0
   -0.7654    3.1997    0.5645 H   0  0  0  0  0  0  0  0  0  0  0  0
   -0.1191    3.3474   -0.9807 H   0  0  0  0  0  0  0  0  0  0  0  0
    0.0003    1.3990   -0.0015 C   0  0  0  0  0  0  0  0  0  0  0  0
   -1.1963    0.6880    0.0004 C   0  0  0  0  0  0  0  0  0  0  0  0
   -2.0628    1.1835    0.0007 H   0  0  0  0  0  0  0  0  0  0  0  0
   -1.2037   -0.6949   -0.0000 C   0  0  0  0  0  0  0  0  0  0  0  0
   -2.0801   -1.1912    0.0009 H   0  0  0  0  0  0  0  0  0  0  0  0
   -0.0028   -1.3932    0.0002 C   0  0  0  0  0  0  0  0  0  0  0  0
   -0.0061   -2.3906    0.0001 H   0  0  0  0  0  0  0  0  0  0  0  0
    1.2037   -0.6964    0.0000 C   0  0  0  0  0  0  0  0  0  0  0  0
    2.0817   -1.1941    0.0007 H   0  0  0  0  0  0  0  0  0  0  0  0
    1.1987    0.6976    0.0010 C   0  0  0  0  0  0  0  0  0  0  0  0
    2.0646    1.1934    0.0025 H   0  0  0  0  0  0  0  0  0  0  0  0
  1  5  1  0
  5  8  1  0
  1  2  1  0
  1  3  1  0
  1  4  1  0
  5  6  1  0
  5  7  1  0
  8  9  1  0
  8 10  1  0
  8 11  1  0
 12 16  1  0
 16 17  2  0
 17 19  1  0
 19 21  2  0
 21 23  1  0
 23 25  2  0
 25 16  1  0
 12 13  1  0
 12 14  1  0
 12 15  1  0
 17 18  1  0
 19 20  1  0
 21 22  1  0
 23 24  1  0
 25 26  1  0
M  CHG  1   8   1
M  END
>  <PDB_ID>  (1742) 
pdb3fyc

>  <RESIDUE_NAME>  (1742) 
LYS   PHE

>  <FRAG_NAME>  (1742) 
ETAM   MBZ

>  <FRAG_ATOM_NUM>  (1742) 
fragi: 11  fragj: 15

>  <atom.prop.CHAIN_ID>  (1742) 
A A A A A A A A A A A Z Z Z Z Z Z Z Z Z Z Z Z Z Z Z

>  <atom.prop.IS_HEAVY_ATOM>  (1742) 
1 0 0 0 1 0 0 1 0 0 0 1 0 0 0 1 1 0 1 0 1 0 1 0 1 0

>  <DIFUSE_FUNC_ATOM>  (1742) 
n/a

>  <FINAL_SINGLE_POINT_ENERGY>  (1742) 
0

>  <NONCOV_INTER_ENERGY_QM>  (1742) 
0

>  <FF_Energy>  (1742) 
-8.56

>  <QM_Energy>  (1742) 
-15.79

>  <source>  (1742) 
ETAM_MBZ

>  <Index>  (1742) 
17688

$$$$
ETAM-pdb3fz4-A-LYS-99:MBZ-pdb3fz4-A-PHE-117
     RDKit          3D

 26 25  0  0  0  0  0  0  0  0999 V2000
   -0.3005   -0.3356    3.8783 C   0  0  0  0  0  0  0  0  0  0  0  0
   -0.4883    0.5964    4.1539 H   0  0  0  0  0  0  0  0  0  0  0  0
    0.1882   -0.3613    3.0175 H   0  0  0  0  0  0  0  0  0  0  0  0
    0.3038   -0.8187    4.6462 H   0  0  0  0  0  0  0  0  0  0  0  0
   -1.6485   -1.0633    3.6877 C   0  0  0  0  0  0  0  0  0  0  0  0
   -1.4684   -1.9600    3.2647 H   0  0  0  0  0  0  0  0  0  0  0  0
   -2.0562   -1.2192    4.5954 H   0  0  0  0  0  0  0  0  0  0  0  0
   -2.6238   -0.3058    2.8356 N   0  0  0  0  0  4  0  0  0  0  0  0
   -2.1663   -0.0126    1.9994 H   0  0  0  0  0  0  0  0  0  0  0  0
   -3.3917   -0.9015    2.6110 H   0  0  0  0  0  0  0  0  0  0  0  0
   -2.9485    0.4899    3.3415 H   0  0  0  0  0  0  0  0  0  0  0  0
    0.0312    2.9210    0.0288 C   0  0  0  0  0  0  0  0  0  0  0  0
    0.8700    3.2094   -0.4078 H   0  0  0  0  0  0  0  0  0  0  0  0
    0.0015    3.2066    0.9747 H   0  0  0  0  0  0  0  0  0  0  0  0
   -0.8003    3.3952   -0.4926 H   0  0  0  0  0  0  0  0  0  0  0  0
    0.0004    1.4009    0.0063 C   0  0  0  0  0  0  0  0  0  0  0  0
   -1.2027    0.6915   -0.0044 C   0  0  0  0  0  0  0  0  0  0  0  0
   -2.0655    1.1790   -0.0163 H   0  0  0  0  0  0  0  0  0  0  0  0
   -1.2016   -0.7043   -0.0000 C   0  0  0  0  0  0  0  0  0  0  0  0
   -2.0765   -1.1979    0.0053 H   0  0  0  0  0  0  0  0  0  0  0  0
   -0.0003   -1.3852   -0.0008 C   0  0  0  0  0  0  0  0  0  0  0  0
    0.0054   -2.3883   -0.0027 H   0  0  0  0  0  0  0  0  0  0  0  0
    1.2016   -0.6870    0.0000 C   0  0  0  0  0  0  0  0  0  0  0  0
    2.0814   -1.1974    0.0029 H   0  0  0  0  0  0  0  0  0  0  0  0
    1.2026    0.6842   -0.0011 C   0  0  0  0  0  0  0  0  0  0  0  0
    2.0670    1.1894   -0.0077 H   0  0  0  0  0  0  0  0  0  0  0  0
  1  5  1  0
  5  8  1  0
  1  2  1  0
  1  3  1  0
  1  4  1  0
  5  6  1  0
  5  7  1  0
  8  9  1  0
  8 10  1  0
  8 11  1  0
 12 16  1  0
 16 17  2  0
 17 19  1  0
 19 21  2  0
 21 23  1  0
 23 25  2  0
 25 16  1  0
 12 13  1  0
 12 14  1  0
 12 15  1  0
 17 18  1  0
 19 20  1  0
 21 22  1  0
 23 24  1  0
 25 26  1  0
M  CHG  1   8   1
M  END
>  <PDB_ID>  (1743) 
pdb3fz4

>  <RESIDUE_NAME>  (1743) 
LYS   PHE

>  <FRAG_NAME>  (1743) 
ETAM   MBZ

>  <FRAG_ATOM_NUM>  (1743) 
fragi: 11  fragj: 15

>  <atom.prop.CHAIN_ID>  (1743) 
A A A A A A A A A A A Z Z Z Z Z Z Z Z Z Z Z Z Z Z Z

>  <atom.prop.IS_HEAVY_ATOM>  (1743) 
1 0 0 0 1 0 0 1 0 0 0 1 0 0 0 1 1 0 1 0 1 0 1 0 1 0

>  <DIFUSE_FUNC_ATOM>  (1743) 
n/a

>  <FINAL_SINGLE_POINT_ENERGY>  (1743) 
0

>  <NONCOV_INTER_ENERGY_QM>  (1743) 
0

>  <FF_Energy>  (1743) 
-5.16

>  <QM_Energy>  (1743) 
-13.13

>  <source>  (1743) 
ETAM_MBZ

>  <Index>  (1743) 
17698

$$$$
ETAM-pdb4bow-B-LYS-230:MBZ-pdb4bow-B-PHE-313
     RDKit          3D

 26 25  0  0  0  0  0  0  0  0999 V2000
    0.2997   -0.5504   -4.0063 C   0  0  0  0  0  0  0  0  0  0  0  0
    0.0258   -1.3563   -3.5198 H   0  0  0  0  0  0  0  0  0  0  0  0
    0.3738   -0.6959   -4.9730 H   0  0  0  0  0  0  0  0  0  0  0  0
   -0.4917    0.1848   -3.8603 H   0  0  0  0  0  0  0  0  0  0  0  0
    1.5414    0.0075   -3.4559 C   0  0  0  0  0  0  0  0  0  0  0  0
    1.7265    0.9038   -3.8430 H   0  0  0  0  0  0  0  0  0  0  0  0
    1.4948    0.0609   -2.4644 H   0  0  0  0  0  0  0  0  0  0  0  0
    2.6739   -0.9062   -3.8242 N   0  0  0  0  0  4  0  0  0  0  0  0
    3.1657   -1.1646   -2.9953 H   0  0  0  0  0  0  0  0  0  0  0  0
    2.3043   -1.7193   -4.2671 H   0  0  0  0  0  0  0  0  0  0  0  0
    3.2878   -0.4282   -4.4484 H   0  0  0  0  0  0  0  0  0  0  0  0
   -0.0983    2.9410   -0.0160 C   0  0  0  0  0  0  0  0  0  0  0  0
    0.7953    3.2780    0.2238 H   0  0  0  0  0  0  0  0  0  0  0  0
   -0.7822    3.2092    0.6398 H   0  0  0  0  0  0  0  0  0  0  0  0
   -0.3705    3.3852   -0.9735 H   0  0  0  0  0  0  0  0  0  0  0  0
   -0.0327    1.4067   -0.0206 C   0  0  0  0  0  0  0  0  0  0  0  0
   -1.2226    0.6251    0.0211 C   0  0  0  0  0  0  0  0  0  0  0  0
   -2.1012    1.1295    0.0676 H   0  0  0  0  0  0  0  0  0  0  0  0
   -1.2249   -0.7323   -0.0000 C   0  0  0  0  0  0  0  0  0  0  0  0
   -2.0623   -1.2604   -0.0211 H   0  0  0  0  0  0  0  0  0  0  0  0
    0.0257   -1.3813    0.0112 C   0  0  0  0  0  0  0  0  0  0  0  0
    0.0510   -2.3855    0.0266 H   0  0  0  0  0  0  0  0  0  0  0  0
    1.2249   -0.6561    0.0000 C   0  0  0  0  0  0  0  0  0  0  0  0
    2.1134   -1.1561    0.0015 H   0  0  0  0  0  0  0  0  0  0  0  0
    1.2296    0.7379   -0.0116 C   0  0  0  0  0  0  0  0  0  0  0  0
    2.0543    1.2510   -0.0146 H   0  0  0  0  0  0  0  0  0  0  0  0
  1  5  1  0
  5  8  1  0
  1  2  1  0
  1  3  1  0
  1  4  1  0
  5  6  1  0
  5  7  1  0
  8  9  1  0
  8 10  1  0
  8 11  1  0
 12 16  1  0
 16 17  2  0
 17 19  1  0
 19 21  2  0
 21 23  1  0
 23 25  2  0
 25 16  1  0
 12 13  1  0
 12 14  1  0
 12 15  1  0
 17 18  1  0
 19 20  1  0
 21 22  1  0
 23 24  1  0
 25 26  1  0
M  CHG  1   8   1
M  END
>  <PDB_ID>  (1744) 
pdb4bow

>  <RESIDUE_NAME>  (1744) 
LYS   PHE

>  <FRAG_NAME>  (1744) 
ETAM   MBZ

>  <FRAG_ATOM_NUM>  (1744) 
fragi: 11  fragj: 15

>  <atom.prop.CHAIN_ID>  (1744) 
A A A A A A A A A A A Z Z Z Z Z Z Z Z Z Z Z Z Z Z Z

>  <atom.prop.IS_HEAVY_ATOM>  (1744) 
1 0 0 0 1 0 0 1 0 0 0 1 0 0 0 1 1 0 1 0 1 0 1 0 1 0

>  <DIFUSE_FUNC_ATOM>  (1744) 
n/a

>  <FINAL_SINGLE_POINT_ENERGY>  (1744) 
0

>  <NONCOV_INTER_ENERGY_QM>  (1744) 
0

>  <FF_Energy>  (1744) 
-3.15

>  <QM_Energy>  (1744) 
-8.37

>  <source>  (1744) 
ETAM_MBZ

>  <Index>  (1744) 
17706

$$$$
ETAM-pdb4bma-A-LYS-159:MBZ-pdb4bma-A-PHE-504
     RDKit          3D

 26 25  0  0  0  0  0  0  0  0999 V2000
   -1.0017   -4.5808   -3.3815 C   0  0  0  0  0  0  0  0  0  0  0  0
   -1.5235   -3.7467   -3.4704 H   0  0  0  0  0  0  0  0  0  0  0  0
   -1.5757   -5.3784   -3.4786 H   0  0  0  0  0  0  0  0  0  0  0  0
   -0.2350   -4.6011   -4.1560 H   0  0  0  0  0  0  0  0  0  0  0  0
   -0.3488   -4.6082   -2.0162 C   0  0  0  0  0  0  0  0  0  0  0  0
    0.1063   -5.4924   -1.8831 H   0  0  0  0  0  0  0  0  0  0  0  0
    0.3379   -3.8779   -1.9607 H   0  0  0  0  0  0  0  0  0  0  0  0
   -1.3473   -4.4111   -0.9052 N   0  0  0  0  0  4  0  0  0  0  0  0
   -1.0345   -4.9062   -0.0992 H   0  0  0  0  0  0  0  0  0  0  0  0
   -1.4163   -3.4377   -0.7030 H   0  0  0  0  0  0  0  0  0  0  0  0
   -2.2316   -4.7622   -1.2002 H   0  0  0  0  0  0  0  0  0  0  0  0
    0.0040    2.9428   -0.0192 C   0  0  0  0  0  0  0  0  0  0  0  0
   -0.0256    3.2325   -0.9602 H   0  0  0  0  0  0  0  0  0  0  0  0
    0.8263    3.2425    0.4323 H   0  0  0  0  0  0  0  0  0  0  0  0
   -0.8455    3.3895    0.4974 H   0  0  0  0  0  0  0  0  0  0  0  0
   -0.0011    1.4173   -0.0048 C   0  0  0  0  0  0  0  0  0  0  0  0
   -1.2110    0.6880    0.0008 C   0  0  0  0  0  0  0  0  0  0  0  0
   -2.0746    1.1764    0.0040 H   0  0  0  0  0  0  0  0  0  0  0  0
   -1.2107   -0.7123    0.0000 C   0  0  0  0  0  0  0  0  0  0  0  0
   -2.0743   -1.2122   -0.0047 H   0  0  0  0  0  0  0  0  0  0  0  0
    0.0148   -1.4026    0.0084 C   0  0  0  0  0  0  0  0  0  0  0  0
    0.0138   -2.3995    0.0197 H   0  0  0  0  0  0  0  0  0  0  0  0
    1.2107   -0.6948   -0.0000 C   0  0  0  0  0  0  0  0  0  0  0  0
    2.0970   -1.1822   -0.0011 H   0  0  0  0  0  0  0  0  0  0  0  0
    1.1973    0.7043   -0.0043 C   0  0  0  0  0  0  0  0  0  0  0  0
    2.0665    1.2012   -0.0077 H   0  0  0  0  0  0  0  0  0  0  0  0
  1  5  1  0
  5  8  1  0
  1  2  1  0
  1  3  1  0
  1  4  1  0
  5  6  1  0
  5  7  1  0
  8  9  1  0
  8 10  1  0
  8 11  1  0
 12 16  1  0
 16 17  2  0
 17 19  1  0
 19 21  2  0
 21 23  1  0
 23 25  2  0
 25 16  1  0
 12 13  1  0
 12 14  1  0
 12 15  1  0
 17 18  1  0
 19 20  1  0
 21 22  1  0
 23 24  1  0
 25 26  1  0
M  CHG  1   8   1
M  END
>  <PDB_ID>  (1745) 
pdb4bma

>  <RESIDUE_NAME>  (1745) 
LYS   PHE

>  <FRAG_NAME>  (1745) 
ETAM   MBZ

>  <FRAG_ATOM_NUM>  (1745) 
fragi: 11  fragj: 15

>  <atom.prop.CHAIN_ID>  (1745) 
A A A A A A A A A A A Z Z Z Z Z Z Z Z Z Z Z Z Z Z Z

>  <atom.prop.IS_HEAVY_ATOM>  (1745) 
1 0 0 0 1 0 0 1 0 0 0 1 0 0 0 1 1 0 1 0 1 0 1 0 1 0

>  <DIFUSE_FUNC_ATOM>  (1745) 
n/a

>  <FINAL_SINGLE_POINT_ENERGY>  (1745) 
0

>  <NONCOV_INTER_ENERGY_QM>  (1745) 
0

>  <FF_Energy>  (1745) 
1.32

>  <QM_Energy>  (1745) 
-5.0

>  <source>  (1745) 
ETAM_MBZ

>  <Index>  (1745) 
17707

$$$$
ETAM-pdb4btj-B-LYS-95:MBZ-pdb4btj-B-PHE-69
     RDKit          3D

 26 25  0  0  0  0  0  0  0  0999 V2000
   -3.9014   -3.0243   -0.4200 C   0  0  0  0  0  0  0  0  0  0  0  0
   -3.5497   -3.6316   -1.1297 H   0  0  0  0  0  0  0  0  0  0  0  0
   -3.3015   -2.2313   -0.3269 H   0  0  0  0  0  0  0  0  0  0  0  0
   -4.8927   -2.6803   -0.7150 H   0  0  0  0  0  0  0  0  0  0  0  0
   -3.9269   -3.7722    0.8918 C   0  0  0  0  0  0  0  0  0  0  0  0
   -4.5593   -3.3104    1.5216 H   0  0  0  0  0  0  0  0  0  0  0  0
   -4.2603   -4.7070    0.7321 H   0  0  0  0  0  0  0  0  0  0  0  0
   -2.5807   -3.8393    1.5188 N   0  0  0  0  0  4  0  0  0  0  0  0
   -2.1474   -4.7092    1.2827 H   0  0  0  0  0  0  0  0  0  0  0  0
   -2.0189   -3.0838    1.1816 H   0  0  0  0  0  0  0  0  0  0  0  0
   -2.6724   -3.7707    2.5121 H   0  0  0  0  0  0  0  0  0  0  0  0
   -0.0004    2.9182    0.0053 C   0  0  0  0  0  0  0  0  0  0  0  0
    0.8844    3.2210    0.3245 H   0  0  0  0  0  0  0  0  0  0  0  0
   -0.7237    3.2198    0.6067 H   0  0  0  0  0  0  0  0  0  0  0  0
   -0.1728    3.3676   -0.9727 H   0  0  0  0  0  0  0  0  0  0  0  0
   -0.0006    1.4080   -0.0024 C   0  0  0  0  0  0  0  0  0  0  0  0
   -1.1949    0.6959    0.0065 C   0  0  0  0  0  0  0  0  0  0  0  0
   -2.0638    1.1790    0.0161 H   0  0  0  0  0  0  0  0  0  0  0  0
   -1.1944   -0.7027    0.0000 C   0  0  0  0  0  0  0  0  0  0  0  0
   -2.0746   -1.1922    0.0004 H   0  0  0  0  0  0  0  0  0  0  0  0
    0.0009   -1.3934   -0.0049 C   0  0  0  0  0  0  0  0  0  0  0  0
   -0.0039   -2.3956   -0.0128 H   0  0  0  0  0  0  0  0  0  0  0  0
    1.1944   -0.7036   -0.0000 C   0  0  0  0  0  0  0  0  0  0  0  0
    2.0797   -1.1966    0.0041 H   0  0  0  0  0  0  0  0  0  0  0  0
    1.1946    0.6959    0.0008 C   0  0  0  0  0  0  0  0  0  0  0  0
    2.0647    1.1853    0.0023 H   0  0  0  0  0  0  0  0  0  0  0  0
  1  5  1  0
  5  8  1  0
  1  2  1  0
  1  3  1  0
  1  4  1  0
  5  6  1  0
  5  7  1  0
  8  9  1  0
  8 10  1  0
  8 11  1  0
 12 16  1  0
 16 17  2  0
 17 19  1  0
 19 21  2  0
 21 23  1  0
 23 25  2  0
 25 16  1  0
 12 13  1  0
 12 14  1  0
 12 15  1  0
 17 18  1  0
 19 20  1  0
 21 22  1  0
 23 24  1  0
 25 26  1  0
M  CHG  1   8   1
M  END
>  <PDB_ID>  (1746) 
pdb4btj

>  <RESIDUE_NAME>  (1746) 
LYS   PHE

>  <FRAG_NAME>  (1746) 
ETAM   MBZ

>  <FRAG_ATOM_NUM>  (1746) 
fragi: 11  fragj: 15

>  <atom.prop.CHAIN_ID>  (1746) 
A A A A A A A A A A A Z Z Z Z Z Z Z Z Z Z Z Z Z Z Z

>  <atom.prop.IS_HEAVY_ATOM>  (1746) 
1 0 0 0 1 0 0 1 0 0 0 1 0 0 0 1 1 0 1 0 1 0 1 0 1 0

>  <DIFUSE_FUNC_ATOM>  (1746) 
n/a

>  <FINAL_SINGLE_POINT_ENERGY>  (1746) 
0

>  <NONCOV_INTER_ENERGY_QM>  (1746) 
0

>  <FF_Energy>  (1746) 
10.62

>  <QM_Energy>  (1746) 
-2.57

>  <source>  (1746) 
ETAM_MBZ

>  <Index>  (1746) 
17716

$$$$
ETAM-pdb3fzz-A-LYS-114:MBZ-pdb3fzz-A-PHE-59
     RDKit          3D

 26 25  0  0  0  0  0  0  0  0999 V2000
   -1.9953   -3.3815   -2.0466 C   0  0  0  0  0  0  0  0  0  0  0  0
   -2.6761   -3.8922   -2.5718 H   0  0  0  0  0  0  0  0  0  0  0  0
   -1.0785   -3.6242   -2.3613 H   0  0  0  0  0  0  0  0  0  0  0  0
   -2.1519   -2.3164   -2.2175 H   0  0  0  0  0  0  0  0  0  0  0  0
   -2.1235   -3.7570   -0.5880 C   0  0  0  0  0  0  0  0  0  0  0  0
   -2.4140   -2.9551   -0.0671 H   0  0  0  0  0  0  0  0  0  0  0  0
   -2.8065   -4.4805   -0.4939 H   0  0  0  0  0  0  0  0  0  0  0  0
   -0.8242   -4.2402   -0.0572 N   0  0  0  0  0  4  0  0  0  0  0  0
   -0.4776   -3.5889    0.6188 H   0  0  0  0  0  0  0  0  0  0  0  0
   -0.9521   -5.1334    0.3754 H   0  0  0  0  0  0  0  0  0  0  0  0
   -0.1682   -4.3239   -0.8073 H   0  0  0  0  0  0  0  0  0  0  0  0
   -0.0117    2.8984   -0.0024 C   0  0  0  0  0  0  0  0  0  0  0  0
    0.8261    3.2122    0.4154 H   0  0  0  0  0  0  0  0  0  0  0  0
   -0.8049    3.2052    0.4999 H   0  0  0  0  0  0  0  0  0  0  0  0
   -0.0650    3.3274   -1.0031 H   0  0  0  0  0  0  0  0  0  0  0  0
   -0.0052    1.3982    0.0053 C   0  0  0  0  0  0  0  0  0  0  0  0
   -1.2035    0.6866   -0.0053 C   0  0  0  0  0  0  0  0  0  0  0  0
   -2.0688    1.1818   -0.0179 H   0  0  0  0  0  0  0  0  0  0  0  0
   -1.2058   -0.6927   -0.0000 C   0  0  0  0  0  0  0  0  0  0  0  0
   -2.0716   -1.1996    0.0082 H   0  0  0  0  0  0  0  0  0  0  0  0
    0.0137   -1.3892   -0.0034 C   0  0  0  0  0  0  0  0  0  0  0  0
    0.0017   -2.3883   -0.0088 H   0  0  0  0  0  0  0  0  0  0  0  0
    1.2058   -0.6955   -0.0000 C   0  0  0  0  0  0  0  0  0  0  0  0
    2.0908   -1.1880    0.0012 H   0  0  0  0  0  0  0  0  0  0  0  0
    1.1951    0.6926    0.0033 C   0  0  0  0  0  0  0  0  0  0  0  0
    2.0614    1.1947    0.0038 H   0  0  0  0  0  0  0  0  0  0  0  0
  1  5  1  0
  5  8  1  0
  1  2  1  0
  1  3  1  0
  1  4  1  0
  5  6  1  0
  5  7  1  0
  8  9  1  0
  8 10  1  0
  8 11  1  0
 12 16  1  0
 16 17  2  0
 17 19  1  0
 19 21  2  0
 21 23  1  0
 23 25  2  0
 25 16  1  0
 12 13  1  0
 12 14  1  0
 12 15  1  0
 17 18  1  0
 19 20  1  0
 21 22  1  0
 23 24  1  0
 25 26  1  0
M  CHG  1   8   1
M  END
>  <PDB_ID>  (1747) 
pdb3fzz

>  <RESIDUE_NAME>  (1747) 
LYS   PHE

>  <FRAG_NAME>  (1747) 
ETAM   MBZ

>  <FRAG_ATOM_NUM>  (1747) 
fragi: 11  fragj: 15

>  <atom.prop.CHAIN_ID>  (1747) 
A A A A A A A A A A A Z Z Z Z Z Z Z Z Z Z Z Z Z Z Z

>  <atom.prop.IS_HEAVY_ATOM>  (1747) 
1 0 0 0 1 0 0 1 0 0 0 1 0 0 0 1 1 0 1 0 1 0 1 0 1 0

>  <DIFUSE_FUNC_ATOM>  (1747) 
n/a

>  <FINAL_SINGLE_POINT_ENERGY>  (1747) 
0

>  <NONCOV_INTER_ENERGY_QM>  (1747) 
0

>  <FF_Energy>  (1747) 
26.5

>  <QM_Energy>  (1747) 
3.0

>  <source>  (1747) 
ETAM_MBZ

>  <Index>  (1747) 
17733

$$$$
ETAM-pdb3g4e-A-LYS-144:MBZ-pdb3g4e-A-PHE-138
     RDKit          3D

 26 25  0  0  0  0  0  0  0  0999 V2000
   -3.0596   -3.9953   -1.8280 C   0  0  0  0  0  0  0  0  0  0  0  0
   -3.1509   -3.8026   -0.8570 H   0  0  0  0  0  0  0  0  0  0  0  0
   -3.1934   -4.9653   -2.0029 H   0  0  0  0  0  0  0  0  0  0  0  0
   -3.8154   -3.4299   -2.3732 H   0  0  0  0  0  0  0  0  0  0  0  0
   -1.6577   -3.6119   -2.2689 C   0  0  0  0  0  0  0  0  0  0  0  0
   -1.5808   -3.7423   -3.2613 H   0  0  0  0  0  0  0  0  0  0  0  0
   -1.5028   -2.6419   -2.0577 H   0  0  0  0  0  0  0  0  0  0  0  0
   -0.6172   -4.4310   -1.5874 N   0  0  0  0  0  4  0  0  0  0  0  0
   -1.0535   -5.0248   -0.9119 H   0  0  0  0  0  0  0  0  0  0  0  0
   -0.1385   -4.9880   -2.2654 H   0  0  0  0  0  0  0  0  0  0  0  0
    0.0341   -3.8253   -1.1305 H   0  0  0  0  0  0  0  0  0  0  0  0
    0.0820    2.9101   -0.0284 C   0  0  0  0  0  0  0  0  0  0  0  0
   -0.4707    3.2165   -0.7743 H   0  0  0  0  0  0  0  0  0  0  0  0
    1.0216    3.1695   -0.1117 H   0  0  0  0  0  0  0  0  0  0  0  0
   -0.3122    3.3453    0.8900 H   0  0  0  0  0  0  0  0  0  0  0  0
    0.0227    1.3875   -0.0026 C   0  0  0  0  0  0  0  0  0  0  0  0
   -1.1915    0.7263   -0.0039 C   0  0  0  0  0  0  0  0  0  0  0  0
   -2.0392    1.2235   -0.0087 H   0  0  0  0  0  0  0  0  0  0  0  0
   -1.1906   -0.6569   -0.0000 C   0  0  0  0  0  0  0  0  0  0  0  0
   -2.0877   -1.1473    0.0166 H   0  0  0  0  0  0  0  0  0  0  0  0
   -0.0167   -1.3875   -0.0157 C   0  0  0  0  0  0  0  0  0  0  0  0
   -0.0498   -2.3846   -0.0382 H   0  0  0  0  0  0  0  0  0  0  0  0
    1.1906   -0.7230   -0.0000 C   0  0  0  0  0  0  0  0  0  0  0  0
    2.0609   -1.2296   -0.0029 H   0  0  0  0  0  0  0  0  0  0  0  0
    1.1855    0.6535    0.0222 C   0  0  0  0  0  0  0  0  0  0  0  0
    2.0741    1.1450    0.0571 H   0  0  0  0  0  0  0  0  0  0  0  0
  1  5  1  0
  5  8  1  0
  1  2  1  0
  1  3  1  0
  1  4  1  0
  5  6  1  0
  5  7  1  0
  8  9  1  0
  8 10  1  0
  8 11  1  0
 12 16  1  0
 16 17  2  0
 17 19  1  0
 19 21  2  0
 21 23  1  0
 23 25  2  0
 25 16  1  0
 12 13  1  0
 12 14  1  0
 12 15  1  0
 17 18  1  0
 19 20  1  0
 21 22  1  0
 23 24  1  0
 25 26  1  0
M  CHG  1   8   1
M  END
>  <PDB_ID>  (1748) 
pdb3g4e

>  <RESIDUE_NAME>  (1748) 
LYS   PHE

>  <FRAG_NAME>  (1748) 
ETAM   MBZ

>  <FRAG_ATOM_NUM>  (1748) 
fragi: 11  fragj: 15

>  <atom.prop.CHAIN_ID>  (1748) 
A A A A A A A A A A A Z Z Z Z Z Z Z Z Z Z Z Z Z Z Z

>  <atom.prop.IS_HEAVY_ATOM>  (1748) 
1 0 0 0 1 0 0 1 0 0 0 1 0 0 0 1 1 0 1 0 1 0 1 0 1 0

>  <DIFUSE_FUNC_ATOM>  (1748) 
n/a

>  <FINAL_SINGLE_POINT_ENERGY>  (1748) 
0

>  <NONCOV_INTER_ENERGY_QM>  (1748) 
0

>  <FF_Energy>  (1748) 
0.9

>  <QM_Energy>  (1748) 
-5.2

>  <source>  (1748) 
ETAM_MBZ

>  <Index>  (1748) 
17823

$$$$
ETAM-pdb3g3o-A-LYS-479:MBZ-pdb3g3o-A-PHE-203
     RDKit          3D

 26 25  0  0  0  0  0  0  0  0999 V2000
    0.2348   -0.9950    2.8491 C   0  0  0  0  0  0  0  0  0  0  0  0
   -0.1224   -0.0788    2.7293 H   0  0  0  0  0  0  0  0  0  0  0  0
    0.9397   -1.1926    2.1821 H   0  0  0  0  0  0  0  0  0  0  0  0
    0.6487   -1.0928    3.8527 H   0  0  0  0  0  0  0  0  0  0  0  0
   -0.9105   -1.9877    2.6459 C   0  0  0  0  0  0  0  0  0  0  0  0
   -1.6038   -1.8320    3.3533 H   0  0  0  0  0  0  0  0  0  0  0  0
   -1.3220   -1.8279    1.7460 H   0  0  0  0  0  0  0  0  0  0  0  0
   -0.4450   -3.4117    2.7235 N   0  0  0  0  0  4  0  0  0  0  0  0
   -1.2344   -4.0170    2.6495 H   0  0  0  0  0  0  0  0  0  0  0  0
    0.1893   -3.5881    1.9742 H   0  0  0  0  0  0  0  0  0  0  0  0
    0.0131   -3.5576    3.5974 H   0  0  0  0  0  0  0  0  0  0  0  0
   -0.0051    2.8726   -0.0031 C   0  0  0  0  0  0  0  0  0  0  0  0
   -0.5686    3.1821   -0.7573 H   0  0  0  0  0  0  0  0  0  0  0  0
    0.9288    3.1884   -0.1066 H   0  0  0  0  0  0  0  0  0  0  0  0
   -0.4040    3.3105    0.9119 H   0  0  0  0  0  0  0  0  0  0  0  0
   -0.0007    1.3910   -0.0001 C   0  0  0  0  0  0  0  0  0  0  0  0
   -1.1938    0.6886    0.0018 C   0  0  0  0  0  0  0  0  0  0  0  0
   -2.0615    1.1806    0.0037 H   0  0  0  0  0  0  0  0  0  0  0  0
   -1.2015   -0.6983   -0.0000 C   0  0  0  0  0  0  0  0  0  0  0  0
   -2.0758   -1.1930    0.0029 H   0  0  0  0  0  0  0  0  0  0  0  0
    0.0013   -1.3883   -0.0036 C   0  0  0  0  0  0  0  0  0  0  0  0
    0.0040   -2.3874   -0.0097 H   0  0  0  0  0  0  0  0  0  0  0  0
    1.2015   -0.6862   -0.0000 C   0  0  0  0  0  0  0  0  0  0  0  0
    2.0828   -1.1872    0.0031 H   0  0  0  0  0  0  0  0  0  0  0  0
    1.1932    0.6933    0.0019 C   0  0  0  0  0  0  0  0  0  0  0  0
    2.0602    1.1959    0.0041 H   0  0  0  0  0  0  0  0  0  0  0  0
  1  5  1  0
  5  8  1  0
  1  2  1  0
  1  3  1  0
  1  4  1  0
  5  6  1  0
  5  7  1  0
  8  9  1  0
  8 10  1  0
  8 11  1  0
 12 16  1  0
 16 17  2  0
 17 19  1  0
 19 21  2  0
 21 23  1  0
 23 25  2  0
 25 16  1  0
 12 13  1  0
 12 14  1  0
 12 15  1  0
 17 18  1  0
 19 20  1  0
 21 22  1  0
 23 24  1  0
 25 26  1  0
M  CHG  1   8   1
M  END
>  <PDB_ID>  (1749) 
pdb3g3o

>  <RESIDUE_NAME>  (1749) 
LYS   PHE

>  <FRAG_NAME>  (1749) 
ETAM   MBZ

>  <FRAG_ATOM_NUM>  (1749) 
fragi: 11  fragj: 15

>  <atom.prop.CHAIN_ID>  (1749) 
A A A A A A A A A A A Z Z Z Z Z Z Z Z Z Z Z Z Z Z Z

>  <atom.prop.IS_HEAVY_ATOM>  (1749) 
1 0 0 0 1 0 0 1 0 0 0 1 0 0 0 1 1 0 1 0 1 0 1 0 1 0

>  <DIFUSE_FUNC_ATOM>  (1749) 
n/a

>  <FINAL_SINGLE_POINT_ENERGY>  (1749) 
0

>  <NONCOV_INTER_ENERGY_QM>  (1749) 
0

>  <FF_Energy>  (1749) 
29.05

>  <QM_Energy>  (1749) 
1.55

>  <source>  (1749) 
ETAM_MBZ

>  <Index>  (1749) 
17828

$$$$
ETAM-pdb3g64-C-LYS-267:MBZ-pdb3g64-C-PHE-264
     RDKit          3D

 26 25  0  0  0  0  0  0  0  0999 V2000
   -2.4671   -0.0585    5.2129 C   0  0  0  0  0  0  0  0  0  0  0  0
   -1.7915    0.6714    5.1813 H   0  0  0  0  0  0  0  0  0  0  0  0
   -2.2121   -0.7357    5.8957 H   0  0  0  0  0  0  0  0  0  0  0  0
   -3.4484    0.3544    5.4464 H   0  0  0  0  0  0  0  0  0  0  0  0
   -2.4830   -0.7438    3.8547 C   0  0  0  0  0  0  0  0  0  0  0  0
   -3.1820   -1.4416    3.8486 H   0  0  0  0  0  0  0  0  0  0  0  0
   -2.6391   -0.0702    3.1491 H   0  0  0  0  0  0  0  0  0  0  0  0
   -1.1441   -1.3867    3.6327 N   0  0  0  0  0  4  0  0  0  0  0  0
   -1.0678   -2.1898    4.2191 H   0  0  0  0  0  0  0  0  0  0  0  0
   -1.0681   -1.6559    2.6758 H   0  0  0  0  0  0  0  0  0  0  0  0
   -0.4276   -0.7312    3.8595 H   0  0  0  0  0  0  0  0  0  0  0  0
   -0.0046    2.9203    0.0197 C   0  0  0  0  0  0  0  0  0  0  0  0
   -0.6476    3.2346   -0.6530 H   0  0  0  0  0  0  0  0  0  0  0  0
    0.9099    3.2307   -0.1615 H   0  0  0  0  0  0  0  0  0  0  0  0
   -0.3086    3.3227    0.9859 H   0  0  0  0  0  0  0  0  0  0  0  0
    0.0015    1.4062   -0.0107 C   0  0  0  0  0  0  0  0  0  0  0  0
   -1.1984    0.6951   -0.0019 C   0  0  0  0  0  0  0  0  0  0  0  0
   -2.0633    1.1871    0.0016 H   0  0  0  0  0  0  0  0  0  0  0  0
   -1.2044   -0.6957    0.0000 C   0  0  0  0  0  0  0  0  0  0  0  0
   -2.0796   -1.1899   -0.0020 H   0  0  0  0  0  0  0  0  0  0  0  0
    0.0001   -1.3962    0.0055 C   0  0  0  0  0  0  0  0  0  0  0  0
   -0.0072   -2.3945    0.0130 H   0  0  0  0  0  0  0  0  0  0  0  0
    1.2044   -0.7018   -0.0000 C   0  0  0  0  0  0  0  0  0  0  0  0
    2.0834   -1.1973   -0.0072 H   0  0  0  0  0  0  0  0  0  0  0  0
    1.1968    0.6923    0.0071 C   0  0  0  0  0  0  0  0  0  0  0  0
    2.0670    1.1882    0.0242 H   0  0  0  0  0  0  0  0  0  0  0  0
  1  5  1  0
  5  8  1  0
  1  2  1  0
  1  3  1  0
  1  4  1  0
  5  6  1  0
  5  7  1  0
  8  9  1  0
  8 10  1  0
  8 11  1  0
 12 16  1  0
 16 17  2  0
 17 19  1  0
 19 21  2  0
 21 23  1  0
 23 25  2  0
 25 16  1  0
 12 13  1  0
 12 14  1  0
 12 15  1  0
 17 18  1  0
 19 20  1  0
 21 22  1  0
 23 24  1  0
 25 26  1  0
M  CHG  1   8   1
M  END
>  <PDB_ID>  (1750) 
pdb3g64

>  <RESIDUE_NAME>  (1750) 
LYS   PHE

>  <FRAG_NAME>  (1750) 
ETAM   MBZ

>  <FRAG_ATOM_NUM>  (1750) 
fragi: 11  fragj: 15

>  <atom.prop.CHAIN_ID>  (1750) 
A A A A A A A A A A A Z Z Z Z Z Z Z Z Z Z Z Z Z Z Z

>  <atom.prop.IS_HEAVY_ATOM>  (1750) 
1 0 0 0 1 0 0 1 0 0 0 1 0 0 0 1 1 0 1 0 1 0 1 0 1 0

>  <DIFUSE_FUNC_ATOM>  (1750) 
n/a

>  <FINAL_SINGLE_POINT_ENERGY>  (1750) 
0

>  <NONCOV_INTER_ENERGY_QM>  (1750) 
0

>  <FF_Energy>  (1750) 
-4.99

>  <QM_Energy>  (1750) 
-10.79

>  <source>  (1750) 
ETAM_MBZ

>  <Index>  (1750) 
17835

$$$$
ETAM-pdb3g5w-A-LYS-267:MBZ-pdb3g5w-C-PHE-260
     RDKit          3D

 26 25  0  0  0  0  0  0  0  0999 V2000
   -2.7965    1.1520    4.0093 C   0  0  0  0  0  0  0  0  0  0  0  0
   -3.5344    1.0908    4.6756 H   0  0  0  0  0  0  0  0  0  0  0  0
   -2.8710    2.0000    3.4925 H   0  0  0  0  0  0  0  0  0  0  0  0
   -1.8442    1.1458    4.5394 H   0  0  0  0  0  0  0  0  0  0  0  0
   -2.9117   -0.0148    3.0480 C   0  0  0  0  0  0  0  0  0  0  0  0
   -2.1087   -0.0260    2.4470 H   0  0  0  0  0  0  0  0  0  0  0  0
   -2.9396   -0.8693    3.5714 H   0  0  0  0  0  0  0  0  0  0  0  0
   -4.1439    0.0830    2.2108 N   0  0  0  0  0  4  0  0  0  0  0  0
   -3.8833    0.1633    1.2497 H   0  0  0  0  0  0  0  0  0  0  0  0
   -4.6968   -0.7386    2.3420 H   0  0  0  0  0  0  0  0  0  0  0  0
   -4.6666    0.8886    2.4871 H   0  0  0  0  0  0  0  0  0  0  0  0
    0.0042    2.9177   -0.0053 C   0  0  0  0  0  0  0  0  0  0  0  0
    0.8516    3.2220    0.4013 H   0  0  0  0  0  0  0  0  0  0  0  0
   -0.7774    3.2269    0.5147 H   0  0  0  0  0  0  0  0  0  0  0  0
   -0.0635    3.3584   -0.9999 H   0  0  0  0  0  0  0  0  0  0  0  0
   -0.0004    1.4108   -0.0023 C   0  0  0  0  0  0  0  0  0  0  0  0
   -1.1981    0.7049    0.0062 C   0  0  0  0  0  0  0  0  0  0  0  0
   -2.0653    1.1893    0.0159 H   0  0  0  0  0  0  0  0  0  0  0  0
   -1.2061   -0.7010    0.0000 C   0  0  0  0  0  0  0  0  0  0  0  0
   -2.0828   -1.1878   -0.0003 H   0  0  0  0  0  0  0  0  0  0  0  0
   -0.0000   -1.4049   -0.0042 C   0  0  0  0  0  0  0  0  0  0  0  0
   -0.0062   -2.3997   -0.0105 H   0  0  0  0  0  0  0  0  0  0  0  0
    1.2061   -0.7052   -0.0000 C   0  0  0  0  0  0  0  0  0  0  0  0
    2.0859   -1.1982    0.0042 H   0  0  0  0  0  0  0  0  0  0  0  0
    1.1985    0.6954    0.0003 C   0  0  0  0  0  0  0  0  0  0  0  0
    2.0679    1.1890    0.0020 H   0  0  0  0  0  0  0  0  0  0  0  0
  1  5  1  0
  5  8  1  0
  1  2  1  0
  1  3  1  0
  1  4  1  0
  5  6  1  0
  5  7  1  0
  8  9  1  0
  8 10  1  0
  8 11  1  0
 12 16  1  0
 16 17  2  0
 17 19  1  0
 19 21  2  0
 21 23  1  0
 23 25  2  0
 25 16  1  0
 12 13  1  0
 12 14  1  0
 12 15  1  0
 17 18  1  0
 19 20  1  0
 21 22  1  0
 23 24  1  0
 25 26  1  0
M  CHG  1   8   1
M  END
>  <PDB_ID>  (1751) 
pdb3g5w

>  <RESIDUE_NAME>  (1751) 
LYS   PHE

>  <FRAG_NAME>  (1751) 
ETAM   MBZ

>  <FRAG_ATOM_NUM>  (1751) 
fragi: 11  fragj: 15

>  <atom.prop.CHAIN_ID>  (1751) 
A A A A A A A A A A A Z Z Z Z Z Z Z Z Z Z Z Z Z Z Z

>  <atom.prop.IS_HEAVY_ATOM>  (1751) 
1 0 0 0 1 0 0 1 0 0 0 1 0 0 0 1 1 0 1 0 1 0 1 0 1 0

>  <DIFUSE_FUNC_ATOM>  (1751) 
n/a

>  <FINAL_SINGLE_POINT_ENERGY>  (1751) 
0

>  <NONCOV_INTER_ENERGY_QM>  (1751) 
0

>  <FF_Energy>  (1751) 
-1.17

>  <QM_Energy>  (1751) 
-6.18

>  <source>  (1751) 
ETAM_MBZ

>  <Index>  (1751) 
17843

$$$$
ETAM-pdb3g75-A-LYS-207:MBZ-pdb3g75-A-PHE-204
     RDKit          3D

 26 25  0  0  0  0  0  0  0  0999 V2000
    2.5448   -0.4859   -5.1800 C   0  0  0  0  0  0  0  0  0  0  0  0
    1.7160   -0.4633   -5.7292 H   0  0  0  0  0  0  0  0  0  0  0  0
    3.2738   -0.9532   -5.6687 H   0  0  0  0  0  0  0  0  0  0  0  0
    2.8584    0.5377   -4.9751 H   0  0  0  0  0  0  0  0  0  0  0  0
    2.2580   -1.2395   -3.8957 C   0  0  0  0  0  0  0  0  0  0  0  0
    1.7955   -2.0963   -4.1169 H   0  0  0  0  0  0  0  0  0  0  0  0
    3.1208   -1.4348   -3.4326 H   0  0  0  0  0  0  0  0  0  0  0  0
    1.3926   -0.4311   -3.0016 N   0  0  0  0  0  4  0  0  0  0  0  0
    0.7539   -1.0326   -2.5218 H   0  0  0  0  0  0  0  0  0  0  0  0
    1.9604    0.0512   -2.3347 H   0  0  0  0  0  0  0  0  0  0  0  0
    0.8800    0.2337   -3.5447 H   0  0  0  0  0  0  0  0  0  0  0  0
    0.0012    2.8900   -0.0295 C   0  0  0  0  0  0  0  0  0  0  0  0
    0.5398    3.2134    0.7325 H   0  0  0  0  0  0  0  0  0  0  0  0
   -0.9342    3.2003    0.0315 H   0  0  0  0  0  0  0  0  0  0  0  0
    0.4305    3.3078   -0.9401 H   0  0  0  0  0  0  0  0  0  0  0  0
    0.0003    1.3912   -0.0001 C   0  0  0  0  0  0  0  0  0  0  0  0
   -1.1937    0.6845    0.0002 C   0  0  0  0  0  0  0  0  0  0  0  0
   -2.0604    1.1796   -0.0006 H   0  0  0  0  0  0  0  0  0  0  0  0
   -1.1984   -0.6935   -0.0000 C   0  0  0  0  0  0  0  0  0  0  0  0
   -2.0727   -1.1935    0.0017 H   0  0  0  0  0  0  0  0  0  0  0  0
    0.0029   -1.3847   -0.0007 C   0  0  0  0  0  0  0  0  0  0  0  0
    0.0002   -2.3847   -0.0025 H   0  0  0  0  0  0  0  0  0  0  0  0
    1.1984   -0.6887    0.0000 C   0  0  0  0  0  0  0  0  0  0  0  0
    2.0813   -1.1876    0.0015 H   0  0  0  0  0  0  0  0  0  0  0  0
    1.1905    0.6912    0.0007 C   0  0  0  0  0  0  0  0  0  0  0  0
    2.0602    1.1922    0.0011 H   0  0  0  0  0  0  0  0  0  0  0  0
  1  5  1  0
  5  8  1  0
  1  2  1  0
  1  3  1  0
  1  4  1  0
  5  6  1  0
  5  7  1  0
  8  9  1  0
  8 10  1  0
  8 11  1  0
 12 16  1  0
 16 17  2  0
 17 19  1  0
 19 21  2  0
 21 23  1  0
 23 25  2  0
 25 16  1  0
 12 13  1  0
 12 14  1  0
 12 15  1  0
 17 18  1  0
 19 20  1  0
 21 22  1  0
 23 24  1  0
 25 26  1  0
M  CHG  1   8   1
M  END
>  <PDB_ID>  (1752) 
pdb3g75

>  <RESIDUE_NAME>  (1752) 
LYS   PHE

>  <FRAG_NAME>  (1752) 
ETAM   MBZ

>  <FRAG_ATOM_NUM>  (1752) 
fragi: 11  fragj: 15

>  <atom.prop.CHAIN_ID>  (1752) 
A A A A A A A A A A A Z Z Z Z Z Z Z Z Z Z Z Z Z Z Z

>  <atom.prop.IS_HEAVY_ATOM>  (1752) 
1 0 0 0 1 0 0 1 0 0 0 1 0 0 0 1 1 0 1 0 1 0 1 0 1 0

>  <DIFUSE_FUNC_ATOM>  (1752) 
n/a

>  <FINAL_SINGLE_POINT_ENERGY>  (1752) 
0

>  <NONCOV_INTER_ENERGY_QM>  (1752) 
0

>  <FF_Energy>  (1752) 
-6.05

>  <QM_Energy>  (1752) 
-13.18

>  <source>  (1752) 
ETAM_MBZ

>  <Index>  (1752) 
17860

$$$$
ETAM-pdb3g6s-A-LYS-222:MBZ-pdb3g6s-A-PHE-225
     RDKit          3D

 26 25  0  0  0  0  0  0  0  0999 V2000
   -2.7968   -1.1342   -4.1968 C   0  0  0  0  0  0  0  0  0  0  0  0
   -3.2266   -1.4795   -5.0246 H   0  0  0  0  0  0  0  0  0  0  0  0
   -3.2635   -1.4859   -3.3927 H   0  0  0  0  0  0  0  0  0  0  0  0
   -1.7549   -1.4536   -4.1754 H   0  0  0  0  0  0  0  0  0  0  0  0
   -2.9198    0.3922   -4.1924 C   0  0  0  0  0  0  0  0  0  0  0  0
   -2.4048    0.7578   -4.9735 H   0  0  0  0  0  0  0  0  0  0  0  0
   -3.8883    0.6364   -4.3041 H   0  0  0  0  0  0  0  0  0  0  0  0
   -2.4018    1.0029   -2.9344 N   0  0  0  0  0  4  0  0  0  0  0  0
   -1.7124    0.4005   -2.5341 H   0  0  0  0  0  0  0  0  0  0  0  0
   -1.9927    1.8901   -3.1423 H   0  0  0  0  0  0  0  0  0  0  0  0
   -3.1569    1.1237   -2.2909 H   0  0  0  0  0  0  0  0  0  0  0  0
    0.0050    2.9006    0.0141 C   0  0  0  0  0  0  0  0  0  0  0  0
    0.7325    3.2021    0.6159 H   0  0  0  0  0  0  0  0  0  0  0  0
   -0.8779    3.2122    0.3395 H   0  0  0  0  0  0  0  0  0  0  0  0
    0.1754    3.3578   -0.9607 H   0  0  0  0  0  0  0  0  0  0  0  0
   -0.0017    1.4041   -0.0001 C   0  0  0  0  0  0  0  0  0  0  0  0
   -1.2054    0.6982   -0.0007 C   0  0  0  0  0  0  0  0  0  0  0  0
   -2.0683    1.1897   -0.0031 H   0  0  0  0  0  0  0  0  0  0  0  0
   -1.2148   -0.6991    0.0000 C   0  0  0  0  0  0  0  0  0  0  0  0
   -2.0836   -1.1941    0.0008 H   0  0  0  0  0  0  0  0  0  0  0  0
    0.0045   -1.4022    0.0011 C   0  0  0  0  0  0  0  0  0  0  0  0
   -0.0003   -2.3957    0.0025 H   0  0  0  0  0  0  0  0  0  0  0  0
    1.2148   -0.6971   -0.0000 C   0  0  0  0  0  0  0  0  0  0  0  0
    2.0922   -1.1933    0.0004 H   0  0  0  0  0  0  0  0  0  0  0  0
    1.2026    0.6960   -0.0003 C   0  0  0  0  0  0  0  0  0  0  0  0
    2.0680    1.1975   -0.0013 H   0  0  0  0  0  0  0  0  0  0  0  0
  1  5  1  0
  5  8  1  0
  1  2  1  0
  1  3  1  0
  1  4  1  0
  5  6  1  0
  5  7  1  0
  8  9  1  0
  8 10  1  0
  8 11  1  0
 12 16  1  0
 16 17  2  0
 17 19  1  0
 19 21  2  0
 21 23  1  0
 23 25  2  0
 25 16  1  0
 12 13  1  0
 12 14  1  0
 12 15  1  0
 17 18  1  0
 19 20  1  0
 21 22  1  0
 23 24  1  0
 25 26  1  0
M  CHG  1   8   1
M  END
>  <PDB_ID>  (1753) 
pdb3g6s

>  <RESIDUE_NAME>  (1753) 
LYS   PHE

>  <FRAG_NAME>  (1753) 
ETAM   MBZ

>  <FRAG_ATOM_NUM>  (1753) 
fragi: 11  fragj: 15

>  <atom.prop.CHAIN_ID>  (1753) 
A A A A A A A A A A A Z Z Z Z Z Z Z Z Z Z Z Z Z Z Z

>  <atom.prop.IS_HEAVY_ATOM>  (1753) 
1 0 0 0 1 0 0 1 0 0 0 1 0 0 0 1 1 0 1 0 1 0 1 0 1 0

>  <DIFUSE_FUNC_ATOM>  (1753) 
n/a

>  <FINAL_SINGLE_POINT_ENERGY>  (1753) 
0

>  <NONCOV_INTER_ENERGY_QM>  (1753) 
0

>  <FF_Energy>  (1753) 
-4.39

>  <QM_Energy>  (1753) 
-10.21

>  <source>  (1753) 
ETAM_MBZ

>  <Index>  (1753) 
17868

$$$$
ETAM-pdb4c6r-B-LYS-136:MBZ-pdb4c6r-B-PHE-126
     RDKit          3D

 26 25  0  0  0  0  0  0  0  0999 V2000
    3.1909   -3.3924    3.5560 C   0  0  0  0  0  0  0  0  0  0  0  0
    2.7282   -3.0396    4.3566 H   0  0  0  0  0  0  0  0  0  0  0  0
    3.7924   -4.1425    3.7923 H   0  0  0  0  0  0  0  0  0  0  0  0
    2.4412   -3.7544    2.8524 H   0  0  0  0  0  0  0  0  0  0  0  0
    4.0100   -2.2832    2.9299 C   0  0  0  0  0  0  0  0  0  0  0  0
    4.6018   -1.8819    3.6237 H   0  0  0  0  0  0  0  0  0  0  0  0
    4.5608   -2.6602    2.1897 H   0  0  0  0  0  0  0  0  0  0  0  0
    3.1099   -1.2330    2.3850 N   0  0  0  0  0  4  0  0  0  0  0  0
    2.3468   -1.6657    1.9056 H   0  0  0  0  0  0  0  0  0  0  0  0
    2.7593   -0.6740    3.1358 H   0  0  0  0  0  0  0  0  0  0  0  0
    3.6200   -0.6550    1.7485 H   0  0  0  0  0  0  0  0  0  0  0  0
   -0.0024    2.9057    0.0136 C   0  0  0  0  0  0  0  0  0  0  0  0
   -0.6710    3.2162   -0.6391 H   0  0  0  0  0  0  0  0  0  0  0  0
    0.9053    3.2131   -0.2127 H   0  0  0  0  0  0  0  0  0  0  0  0
   -0.2660    3.3126    0.9899 H   0  0  0  0  0  0  0  0  0  0  0  0
    0.0007    1.3994   -0.0080 C   0  0  0  0  0  0  0  0  0  0  0  0
   -1.1919    0.6948    0.0016 C   0  0  0  0  0  0  0  0  0  0  0  0
   -2.0602    1.1843    0.0087 H   0  0  0  0  0  0  0  0  0  0  0  0
   -1.1954   -0.6930   -0.0000 C   0  0  0  0  0  0  0  0  0  0  0  0
   -2.0759   -1.1858   -0.0042 H   0  0  0  0  0  0  0  0  0  0  0  0
   -0.0017   -1.3906    0.0068 C   0  0  0  0  0  0  0  0  0  0  0  0
   -0.0092   -2.3908    0.0161 H   0  0  0  0  0  0  0  0  0  0  0  0
    1.1954   -0.7011    0.0000 C   0  0  0  0  0  0  0  0  0  0  0  0
    2.0779   -1.1974   -0.0030 H   0  0  0  0  0  0  0  0  0  0  0  0
    1.1929    0.6905   -0.0004 C   0  0  0  0  0  0  0  0  0  0  0  0
    2.0633    1.1839    0.0034 H   0  0  0  0  0  0  0  0  0  0  0  0
  1  5  1  0
  5  8  1  0
  1  2  1  0
  1  3  1  0
  1  4  1  0
  5  6  1  0
  5  7  1  0
  8  9  1  0
  8 10  1  0
  8 11  1  0
 12 16  1  0
 16 17  2  0
 17 19  1  0
 19 21  2  0
 21 23  1  0
 23 25  2  0
 25 16  1  0
 12 13  1  0
 12 14  1  0
 12 15  1  0
 17 18  1  0
 19 20  1  0
 21 22  1  0
 23 24  1  0
 25 26  1  0
M  CHG  1   8   1
M  END
>  <PDB_ID>  (1754) 
pdb4c6r

>  <RESIDUE_NAME>  (1754) 
LYS   PHE

>  <FRAG_NAME>  (1754) 
ETAM   MBZ

>  <FRAG_ATOM_NUM>  (1754) 
fragi: 11  fragj: 15

>  <atom.prop.CHAIN_ID>  (1754) 
A A A A A A A A A A A Z Z Z Z Z Z Z Z Z Z Z Z Z Z Z

>  <atom.prop.IS_HEAVY_ATOM>  (1754) 
1 0 0 0 1 0 0 1 0 0 0 1 0 0 0 1 1 0 1 0 1 0 1 0 1 0

>  <DIFUSE_FUNC_ATOM>  (1754) 
n/a

>  <FINAL_SINGLE_POINT_ENERGY>  (1754) 
0

>  <NONCOV_INTER_ENERGY_QM>  (1754) 
0

>  <FF_Energy>  (1754) 
-0.59

>  <QM_Energy>  (1754) 
-7.09

>  <source>  (1754) 
ETAM_MBZ

>  <Index>  (1754) 
17881

$$$$
ETAM-pdb4c5f-A-LYS-191:MBZ-pdb4c5f-A-PHE-132
     RDKit          3D

 26 25  0  0  0  0  0  0  0  0999 V2000
   -4.1715   -1.4014    2.2929 C   0  0  0  0  0  0  0  0  0  0  0  0
   -3.8755   -2.2096    1.8031 H   0  0  0  0  0  0  0  0  0  0  0  0
   -4.5176   -0.7147    1.6696 H   0  0  0  0  0  0  0  0  0  0  0  0
   -4.9724   -1.6856    2.9755 H   0  0  0  0  0  0  0  0  0  0  0  0
   -2.9441   -0.8069    3.0398 C   0  0  0  0  0  0  0  0  0  0  0  0
   -3.0217   -1.0667    4.0221 H   0  0  0  0  0  0  0  0  0  0  0  0
   -2.1084   -1.2697    2.6848 H   0  0  0  0  0  0  0  0  0  0  0  0
   -2.7549    0.6790    2.9433 N   0  0  0  0  0  4  0  0  0  0  0  0
   -2.4007    1.0188    3.8124 H   0  0  0  0  0  0  0  0  0  0  0  0
   -2.1071    0.8776    2.2108 H   0  0  0  0  0  0  0  0  0  0  0  0
   -3.6338    1.1069    2.7445 H   0  0  0  0  0  0  0  0  0  0  0  0
    0.0082    2.8960    0.0160 C   0  0  0  0  0  0  0  0  0  0  0  0
   -0.5958    3.2102   -0.6986 H   0  0  0  0  0  0  0  0  0  0  0  0
    0.9363    3.1976   -0.1319 H   0  0  0  0  0  0  0  0  0  0  0  0
   -0.3371    3.3201    0.9589 H   0  0  0  0  0  0  0  0  0  0  0  0
    0.0008    1.3936    0.0036 C   0  0  0  0  0  0  0  0  0  0  0  0
   -1.2035    0.6843    0.0061 C   0  0  0  0  0  0  0  0  0  0  0  0
   -2.0664    1.1789    0.0110 H   0  0  0  0  0  0  0  0  0  0  0  0
   -1.2085   -0.7038    0.0000 C   0  0  0  0  0  0  0  0  0  0  0  0
   -2.0777   -1.2009    0.0009 H   0  0  0  0  0  0  0  0  0  0  0  0
    0.0006   -1.3840   -0.0055 C   0  0  0  0  0  0  0  0  0  0  0  0
    0.0079   -2.3871   -0.0140 H   0  0  0  0  0  0  0  0  0  0  0  0
    1.2085   -0.6833    0.0000 C   0  0  0  0  0  0  0  0  0  0  0  0
    2.0854   -1.1895    0.0084 H   0  0  0  0  0  0  0  0  0  0  0  0
    1.2021    0.6932   -0.0042 C   0  0  0  0  0  0  0  0  0  0  0  0
    2.0655    1.1989   -0.0137 H   0  0  0  0  0  0  0  0  0  0  0  0
  1  5  1  0
  5  8  1  0
  1  2  1  0
  1  3  1  0
  1  4  1  0
  5  6  1  0
  5  7  1  0
  8  9  1  0
  8 10  1  0
  8 11  1  0
 12 16  1  0
 16 17  2  0
 17 19  1  0
 19 21  2  0
 21 23  1  0
 23 25  2  0
 25 16  1  0
 12 13  1  0
 12 14  1  0
 12 15  1  0
 17 18  1  0
 19 20  1  0
 21 22  1  0
 23 24  1  0
 25 26  1  0
M  CHG  1   8   1
M  END
>  <PDB_ID>  (1755) 
pdb4c5f

>  <RESIDUE_NAME>  (1755) 
LYS   PHE

>  <FRAG_NAME>  (1755) 
ETAM   MBZ

>  <FRAG_ATOM_NUM>  (1755) 
fragi: 11  fragj: 15

>  <atom.prop.CHAIN_ID>  (1755) 
A A A A A A A A A A A Z Z Z Z Z Z Z Z Z Z Z Z Z Z Z

>  <atom.prop.IS_HEAVY_ATOM>  (1755) 
1 0 0 0 1 0 0 1 0 0 0 1 0 0 0 1 1 0 1 0 1 0 1 0 1 0

>  <DIFUSE_FUNC_ATOM>  (1755) 
n/a

>  <FINAL_SINGLE_POINT_ENERGY>  (1755) 
0

>  <NONCOV_INTER_ENERGY_QM>  (1755) 
0

>  <FF_Energy>  (1755) 
-4.23

>  <QM_Energy>  (1755) 
-11.09

>  <source>  (1755) 
ETAM_MBZ

>  <Index>  (1755) 
17882

$$$$
ETAM-pdb3g7s-A-LYS-470:MBZ-pdb3g7s-A-PHE-517
     RDKit          3D

 26 25  0  0  0  0  0  0  0  0999 V2000
   -6.0129    2.9665   -0.2703 C   0  0  0  0  0  0  0  0  0  0  0  0
   -6.1085    2.7741    0.7041 H   0  0  0  0  0  0  0  0  0  0  0  0
   -6.5478    2.3124   -0.8008 H   0  0  0  0  0  0  0  0  0  0  0  0
   -6.3934    3.9690   -0.4659 H   0  0  0  0  0  0  0  0  0  0  0  0
   -4.5497    2.8221   -0.6530 C   0  0  0  0  0  0  0  0  0  0  0  0
   -4.4341    3.0999   -1.6105 H   0  0  0  0  0  0  0  0  0  0  0  0
   -3.9991    3.4272   -0.0712 H   0  0  0  0  0  0  0  0  0  0  0  0
   -4.0671    1.4201   -0.4916 N   0  0  0  0  0  4  0  0  0  0  0  0
   -3.2602    1.2812   -1.0633 H   0  0  0  0  0  0  0  0  0  0  0  0
   -3.8322    1.2607    0.4665 H   0  0  0  0  0  0  0  0  0  0  0  0
   -4.7893    0.7889   -0.7706 H   0  0  0  0  0  0  0  0  0  0  0  0
    0.0044    2.9137   -0.0283 C   0  0  0  0  0  0  0  0  0  0  0  0
   -0.7682    3.2305    0.4975 H   0  0  0  0  0  0  0  0  0  0  0  0
   -0.0563    3.2008   -0.9712 H   0  0  0  0  0  0  0  0  0  0  0  0
    0.9045    3.3557    0.3989 H   0  0  0  0  0  0  0  0  0  0  0  0
   -0.0004    1.4066    0.0000 C   0  0  0  0  0  0  0  0  0  0  0  0
   -1.2016    0.7010   -0.0010 C   0  0  0  0  0  0  0  0  0  0  0  0
   -2.0656    1.1925   -0.0037 H   0  0  0  0  0  0  0  0  0  0  0  0
   -1.2097   -0.6937    0.0000 C   0  0  0  0  0  0  0  0  0  0  0  0
   -2.0835   -1.1865    0.0015 H   0  0  0  0  0  0  0  0  0  0  0  0
   -0.0005   -1.3999    0.0004 C   0  0  0  0  0  0  0  0  0  0  0  0
   -0.0100   -2.3956    0.0008 H   0  0  0  0  0  0  0  0  0  0  0  0
    1.2097   -0.7047    0.0000 C   0  0  0  0  0  0  0  0  0  0  0  0
    2.0858   -1.2020    0.0011 H   0  0  0  0  0  0  0  0  0  0  0  0
    1.2025    0.6907    0.0006 C   0  0  0  0  0  0  0  0  0  0  0  0
    2.0692    1.1886    0.0009 H   0  0  0  0  0  0  0  0  0  0  0  0
  1  5  1  0
  5  8  1  0
  1  2  1  0
  1  3  1  0
  1  4  1  0
  5  6  1  0
  5  7  1  0
  8  9  1  0
  8 10  1  0
  8 11  1  0
 12 16  1  0
 16 17  2  0
 17 19  1  0
 19 21  2  0
 21 23  1  0
 23 25  2  0
 25 16  1  0
 12 13  1  0
 12 14  1  0
 12 15  1  0
 17 18  1  0
 19 20  1  0
 21 22  1  0
 23 24  1  0
 25 26  1  0
M  CHG  1   8   1
M  END
>  <PDB_ID>  (1756) 
pdb3g7s

>  <RESIDUE_NAME>  (1756) 
LYS   PHE

>  <FRAG_NAME>  (1756) 
ETAM   MBZ

>  <FRAG_ATOM_NUM>  (1756) 
fragi: 11  fragj: 15

>  <atom.prop.CHAIN_ID>  (1756) 
A A A A A A A A A A A Z Z Z Z Z Z Z Z Z Z Z Z Z Z Z

>  <atom.prop.IS_HEAVY_ATOM>  (1756) 
1 0 0 0 1 0 0 1 0 0 0 1 0 0 0 1 1 0 1 0 1 0 1 0 1 0

>  <DIFUSE_FUNC_ATOM>  (1756) 
n/a

>  <FINAL_SINGLE_POINT_ENERGY>  (1756) 
0

>  <NONCOV_INTER_ENERGY_QM>  (1756) 
0

>  <FF_Energy>  (1756) 
15.01

>  <QM_Energy>  (1756) 
1.56

>  <source>  (1756) 
ETAM_MBZ

>  <Index>  (1756) 
17887

$$$$
ETAM-pdb4c5f-A-LYS-251:MBZ-pdb4c5f-A-PHE-246
     RDKit          3D

 26 25  0  0  0  0  0  0  0  0999 V2000
   -1.4942    0.9575    4.1045 C   0  0  0  0  0  0  0  0  0  0  0  0
   -2.3763    0.8863    4.5477 H   0  0  0  0  0  0  0  0  0  0  0  0
   -1.5908    1.1674    3.1432 H   0  0  0  0  0  0  0  0  0  0  0  0
   -0.9256    1.7550    4.5830 H   0  0  0  0  0  0  0  0  0  0  0  0
   -0.7697   -0.3873    4.2397 C   0  0  0  0  0  0  0  0  0  0  0  0
    0.2023   -0.2540    3.9926 H   0  0  0  0  0  0  0  0  0  0  0  0
   -0.8018   -0.6721    5.2103 H   0  0  0  0  0  0  0  0  0  0  0  0
   -1.3406   -1.4791    3.3935 N   0  0  0  0  0  4  0  0  0  0  0  0
   -2.0551   -1.9531    3.9063 H   0  0  0  0  0  0  0  0  0  0  0  0
   -1.7278   -1.0824    2.5630 H   0  0  0  0  0  0  0  0  0  0  0  0
   -0.6154   -2.1216    3.1534 H   0  0  0  0  0  0  0  0  0  0  0  0
    0.0053    2.9175    0.0182 C   0  0  0  0  0  0  0  0  0  0  0  0
    0.1845    3.2297   -0.9028 H   0  0  0  0  0  0  0  0  0  0  0  0
    0.7135    3.2126    0.6424 H   0  0  0  0  0  0  0  0  0  0  0  0
   -0.9334    3.3650    0.3448 H   0  0  0  0  0  0  0  0  0  0  0  0
   -0.0006    1.4072    0.0032 C   0  0  0  0  0  0  0  0  0  0  0  0
   -1.2013    0.6956    0.0032 C   0  0  0  0  0  0  0  0  0  0  0  0
   -2.0660    1.1862    0.0040 H   0  0  0  0  0  0  0  0  0  0  0  0
   -1.2059   -0.6977   -0.0000 C   0  0  0  0  0  0  0  0  0  0  0  0
   -2.0786   -1.1931    0.0044 H   0  0  0  0  0  0  0  0  0  0  0  0
    0.0045   -1.3983   -0.0077 C   0  0  0  0  0  0  0  0  0  0  0  0
   -0.0033   -2.3949   -0.0193 H   0  0  0  0  0  0  0  0  0  0  0  0
    1.2059   -0.7005    0.0000 C   0  0  0  0  0  0  0  0  0  0  0  0
    2.0869   -1.1948    0.0064 H   0  0  0  0  0  0  0  0  0  0  0  0
    1.1974    0.6937    0.0013 C   0  0  0  0  0  0  0  0  0  0  0  0
    2.0661    1.1907   -0.0005 H   0  0  0  0  0  0  0  0  0  0  0  0
  1  5  1  0
  5  8  1  0
  1  2  1  0
  1  3  1  0
  1  4  1  0
  5  6  1  0
  5  7  1  0
  8  9  1  0
  8 10  1  0
  8 11  1  0
 12 16  1  0
 16 17  2  0
 17 19  1  0
 19 21  2  0
 21 23  1  0
 23 25  2  0
 25 16  1  0
 12 13  1  0
 12 14  1  0
 12 15  1  0
 17 18  1  0
 19 20  1  0
 21 22  1  0
 23 24  1  0
 25 26  1  0
M  CHG  1   8   1
M  END
>  <PDB_ID>  (1757) 
pdb4c5f

>  <RESIDUE_NAME>  (1757) 
LYS   PHE

>  <FRAG_NAME>  (1757) 
ETAM   MBZ

>  <FRAG_ATOM_NUM>  (1757) 
fragi: 11  fragj: 15

>  <atom.prop.CHAIN_ID>  (1757) 
A A A A A A A A A A A Z Z Z Z Z Z Z Z Z Z Z Z Z Z Z

>  <atom.prop.IS_HEAVY_ATOM>  (1757) 
1 0 0 0 1 0 0 1 0 0 0 1 0 0 0 1 1 0 1 0 1 0 1 0 1 0

>  <DIFUSE_FUNC_ATOM>  (1757) 
n/a

>  <FINAL_SINGLE_POINT_ENERGY>  (1757) 
0

>  <NONCOV_INTER_ENERGY_QM>  (1757) 
0

>  <FF_Energy>  (1757) 
-5.66

>  <QM_Energy>  (1757) 
-12.12

>  <source>  (1757) 
ETAM_MBZ

>  <Index>  (1757) 
17896

$$$$
ETAM-pdb3g8g-A-LYS-116:MBZ-pdb3g8g-A-PHE-113
     RDKit          3D

 26 25  0  0  0  0  0  0  0  0999 V2000
   -2.6919    0.6864    3.1753 C   0  0  0  0  0  0  0  0  0  0  0  0
   -2.9964    1.2365    2.4000 H   0  0  0  0  0  0  0  0  0  0  0  0
   -1.8013    0.2836    2.9754 H   0  0  0  0  0  0  0  0  0  0  0  0
   -2.5998    1.3305    4.0498 H   0  0  0  0  0  0  0  0  0  0  0  0
   -3.6892   -0.4318    3.3973 C   0  0  0  0  0  0  0  0  0  0  0  0
   -3.3597   -1.0292    4.1290 H   0  0  0  0  0  0  0  0  0  0  0  0
   -4.5720   -0.0408    3.6595 H   0  0  0  0  0  0  0  0  0  0  0  0
   -3.8732   -1.2489    2.1516 N   0  0  0  0  0  4  0  0  0  0  0  0
   -3.1460   -1.0259    1.5061 H   0  0  0  0  0  0  0  0  0  0  0  0
   -3.8314   -2.2171    2.3883 H   0  0  0  0  0  0  0  0  0  0  0  0
   -4.7611   -1.0346    1.7509 H   0  0  0  0  0  0  0  0  0  0  0  0
   -0.0028    2.9070    0.0247 C   0  0  0  0  0  0  0  0  0  0  0  0
   -0.6703    3.2217   -0.6311 H   0  0  0  0  0  0  0  0  0  0  0  0
    0.9051    3.2198   -0.2026 H   0  0  0  0  0  0  0  0  0  0  0  0
   -0.2657    3.3295    0.9945 H   0  0  0  0  0  0  0  0  0  0  0  0
    0.0009    1.4048    0.0051 C   0  0  0  0  0  0  0  0  0  0  0  0
   -1.2013    0.6932    0.0086 C   0  0  0  0  0  0  0  0  0  0  0  0
   -2.0657    1.1818    0.0157 H   0  0  0  0  0  0  0  0  0  0  0  0
   -1.2031   -0.7031    0.0000 C   0  0  0  0  0  0  0  0  0  0  0  0
   -2.0764   -1.1975    0.0052 H   0  0  0  0  0  0  0  0  0  0  0  0
    0.0036   -1.3953   -0.0144 C   0  0  0  0  0  0  0  0  0  0  0  0
    0.0020   -2.3939   -0.0351 H   0  0  0  0  0  0  0  0  0  0  0  0
    1.2031   -0.6955   -0.0000 C   0  0  0  0  0  0  0  0  0  0  0  0
    2.0858   -1.1920    0.0114 H   0  0  0  0  0  0  0  0  0  0  0  0
    1.1968    0.6958    0.0007 C   0  0  0  0  0  0  0  0  0  0  0  0
    2.0657    1.1933   -0.0032 H   0  0  0  0  0  0  0  0  0  0  0  0
  1  5  1  0
  5  8  1  0
  1  2  1  0
  1  3  1  0
  1  4  1  0
  5  6  1  0
  5  7  1  0
  8  9  1  0
  8 10  1  0
  8 11  1  0
 12 16  1  0
 16 17  2  0
 17 19  1  0
 19 21  2  0
 21 23  1  0
 23 25  2  0
 25 16  1  0
 12 13  1  0
 12 14  1  0
 12 15  1  0
 17 18  1  0
 19 20  1  0
 21 22  1  0
 23 24  1  0
 25 26  1  0
M  CHG  1   8   1
M  END
>  <PDB_ID>  (1758) 
pdb3g8g

>  <RESIDUE_NAME>  (1758) 
LYS   PHE

>  <FRAG_NAME>  (1758) 
ETAM   MBZ

>  <FRAG_ATOM_NUM>  (1758) 
fragi: 11  fragj: 15

>  <atom.prop.CHAIN_ID>  (1758) 
A A A A A A A A A A A Z Z Z Z Z Z Z Z Z Z Z Z Z Z Z

>  <atom.prop.IS_HEAVY_ATOM>  (1758) 
1 0 0 0 1 0 0 1 0 0 0 1 0 0 0 1 1 0 1 0 1 0 1 0 1 0

>  <DIFUSE_FUNC_ATOM>  (1758) 
n/a

>  <FINAL_SINGLE_POINT_ENERGY>  (1758) 
0

>  <NONCOV_INTER_ENERGY_QM>  (1758) 
0

>  <FF_Energy>  (1758) 
-1.08

>  <QM_Energy>  (1758) 
-6.54

>  <source>  (1758) 
ETAM_MBZ

>  <Index>  (1758) 
17901

$$$$
ETAM-pdb4c98-A-LYS-253:MBZ-pdb4c98-A-PHE-216
     RDKit          3D

 26 25  0  0  0  0  0  0  0  0999 V2000
   -1.0651   -0.6889   -4.5213 C   0  0  0  0  0  0  0  0  0  0  0  0
   -1.9655   -0.9053   -4.2317 H   0  0  0  0  0  0  0  0  0  0  0  0
   -0.8492   -1.1684   -5.3363 H   0  0  0  0  0  0  0  0  0  0  0  0
   -0.9946    0.3832   -4.7052 H   0  0  0  0  0  0  0  0  0  0  0  0
   -0.1015   -1.1262   -3.4437 C   0  0  0  0  0  0  0  0  0  0  0  0
    0.8042   -0.9031   -3.7090 H   0  0  0  0  0  0  0  0  0  0  0  0
   -0.3283   -0.6868   -2.6087 H   0  0  0  0  0  0  0  0  0  0  0  0
   -0.1849   -2.5931   -3.2391 N   0  0  0  0  0  4  0  0  0  0  0  0
    0.0201   -3.0167   -3.9952 H   0  0  0  0  0  0  0  0  0  0  0  0
    0.3856   -2.8442   -2.6038 H   0  0  0  0  0  0  0  0  0  0  0  0
   -1.0099   -2.8201   -2.9943 H   0  0  0  0  0  0  0  0  0  0  0  0
   -0.0052    2.8901    0.0181 C   0  0  0  0  0  0  0  0  0  0  0  0
   -0.7528    3.1934   -0.5215 H   0  0  0  0  0  0  0  0  0  0  0  0
    0.8285    3.1970   -0.3709 H   0  0  0  0  0  0  0  0  0  0  0  0
   -0.1015    3.3051    1.0214 H   0  0  0  0  0  0  0  0  0  0  0  0
    0.0003    1.3933   -0.0030 C   0  0  0  0  0  0  0  0  0  0  0  0
   -1.1905    0.6863   -0.0003 C   0  0  0  0  0  0  0  0  0  0  0  0
   -1.9983    1.1487    0.0024 H   0  0  0  0  0  0  0  0  0  0  0  0
   -1.1964   -0.6923   -0.0000 C   0  0  0  0  0  0  0  0  0  0  0  0
   -2.0031   -1.1547   -0.0036 H   0  0  0  0  0  0  0  0  0  0  0  0
   -0.0020   -1.3858   -0.0008 C   0  0  0  0  0  0  0  0  0  0  0  0
   -0.0029   -2.3156   -0.0064 H   0  0  0  0  0  0  0  0  0  0  0  0
    1.1964   -0.6927   -0.0000 C   0  0  0  0  0  0  0  0  0  0  0  0
    2.0030   -1.1557    0.0004 H   0  0  0  0  0  0  0  0  0  0  0  0
    1.1921    0.6912    0.0040 C   0  0  0  0  0  0  0  0  0  0  0  0
    1.9989    1.1541    0.0068 H   0  0  0  0  0  0  0  0  0  0  0  0
  1  5  1  0
  5  8  1  0
  1  2  1  0
  1  3  1  0
  1  4  1  0
  5  6  1  0
  5  7  1  0
  8  9  1  0
  8 10  1  0
  8 11  1  0
 12 16  1  0
 16 17  2  0
 17 19  1  0
 19 21  2  0
 21 23  1  0
 23 25  2  0
 25 16  1  0
 12 13  1  0
 12 14  1  0
 12 15  1  0
 17 18  1  0
 19 20  1  0
 21 22  1  0
 23 24  1  0
 25 26  1  0
M  CHG  1   8   1
M  END
>  <PDB_ID>  (1759) 
pdb4c98

>  <RESIDUE_NAME>  (1759) 
LYS   PHE

>  <FRAG_NAME>  (1759) 
ETAM   MBZ

>  <FRAG_ATOM_NUM>  (1759) 
fragi: 11  fragj: 15

>  <atom.prop.CHAIN_ID>  (1759) 
A A A A A A A A A A A Z Z Z Z Z Z Z Z Z Z Z Z Z Z Z

>  <atom.prop.IS_HEAVY_ATOM>  (1759) 
1 0 0 0 1 0 0 1 0 0 0 1 0 0 0 1 1 0 1 0 1 0 1 0 1 0

>  <DIFUSE_FUNC_ATOM>  (1759) 
n/a

>  <FINAL_SINGLE_POINT_ENERGY>  (1759) 
0

>  <NONCOV_INTER_ENERGY_QM>  (1759) 
0

>  <FF_Energy>  (1759) 
-3.99

>  <QM_Energy>  (1759) 
-10.4

>  <source>  (1759) 
ETAM_MBZ

>  <Index>  (1759) 
17905

$$$$
ETAM-pdb4c9b-A-LYS-296:MBZ-pdb4c9b-A-PHE-265
     RDKit          3D

 26 25  0  0  0  0  0  0  0  0999 V2000
    0.2166   -0.9456   -4.5191 C   0  0  0  0  0  0  0  0  0  0  0  0
    0.0509   -1.7085   -5.1350 H   0  0  0  0  0  0  0  0  0  0  0  0
   -0.0470   -0.0890   -4.9494 H   0  0  0  0  0  0  0  0  0  0  0  0
   -0.3693   -1.0859   -3.6106 H   0  0  0  0  0  0  0  0  0  0  0  0
    1.6936   -0.8920   -4.2021 C   0  0  0  0  0  0  0  0  0  0  0  0
    1.9968   -1.7990   -3.9028 H   0  0  0  0  0  0  0  0  0  0  0  0
    2.1965   -0.6330   -5.0292 H   0  0  0  0  0  0  0  0  0  0  0  0
    1.9679    0.0937   -3.1336 N   0  0  0  0  0  4  0  0  0  0  0  0
    2.5258   -0.3314   -2.4192 H   0  0  0  0  0  0  0  0  0  0  0  0
    2.4606    0.8764   -3.5171 H   0  0  0  0  0  0  0  0  0  0  0  0
    1.1045    0.4080   -2.7363 H   0  0  0  0  0  0  0  0  0  0  0  0
    0.0002    2.8878    0.0124 C   0  0  0  0  0  0  0  0  0  0  0  0
   -0.6477    3.2045   -0.6628 H   0  0  0  0  0  0  0  0  0  0  0  0
    0.9151    3.1995   -0.1890 H   0  0  0  0  0  0  0  0  0  0  0  0
   -0.2896    3.3124    0.9735 H   0  0  0  0  0  0  0  0  0  0  0  0
   -0.0003    1.3942    0.0005 C   0  0  0  0  0  0  0  0  0  0  0  0
   -1.1927    0.6926    0.0017 C   0  0  0  0  0  0  0  0  0  0  0  0
   -2.0590    1.1860    0.0029 H   0  0  0  0  0  0  0  0  0  0  0  0
   -1.1955   -0.6870    0.0000 C   0  0  0  0  0  0  0  0  0  0  0  0
   -2.0735   -1.1861    0.0037 H   0  0  0  0  0  0  0  0  0  0  0  0
    0.0031   -1.3867   -0.0053 C   0  0  0  0  0  0  0  0  0  0  0  0
   -0.0102   -2.3883   -0.0135 H   0  0  0  0  0  0  0  0  0  0  0  0
    1.1955   -0.7021   -0.0000 C   0  0  0  0  0  0  0  0  0  0  0  0
    2.0789   -1.1962    0.0033 H   0  0  0  0  0  0  0  0  0  0  0  0
    1.1900    0.6890    0.0031 C   0  0  0  0  0  0  0  0  0  0  0  0
    2.0611    1.1830    0.0064 H   0  0  0  0  0  0  0  0  0  0  0  0
  1  5  1  0
  5  8  1  0
  1  2  1  0
  1  3  1  0
  1  4  1  0
  5  6  1  0
  5  7  1  0
  8  9  1  0
  8 10  1  0
  8 11  1  0
 12 16  1  0
 16 17  2  0
 17 19  1  0
 19 21  2  0
 21 23  1  0
 23 25  2  0
 25 16  1  0
 12 13  1  0
 12 14  1  0
 12 15  1  0
 17 18  1  0
 19 20  1  0
 21 22  1  0
 23 24  1  0
 25 26  1  0
M  CHG  1   8   1
M  END
>  <PDB_ID>  (1760) 
pdb4c9b

>  <RESIDUE_NAME>  (1760) 
LYS   PHE

>  <FRAG_NAME>  (1760) 
ETAM   MBZ

>  <FRAG_ATOM_NUM>  (1760) 
fragi: 11  fragj: 15

>  <atom.prop.CHAIN_ID>  (1760) 
A A A A A A A A A A A Z Z Z Z Z Z Z Z Z Z Z Z Z Z Z

>  <atom.prop.IS_HEAVY_ATOM>  (1760) 
1 0 0 0 1 0 0 1 0 0 0 1 0 0 0 1 1 0 1 0 1 0 1 0 1 0

>  <DIFUSE_FUNC_ATOM>  (1760) 
n/a

>  <FINAL_SINGLE_POINT_ENERGY>  (1760) 
0

>  <NONCOV_INTER_ENERGY_QM>  (1760) 
0

>  <FF_Energy>  (1760) 
-6.04

>  <QM_Energy>  (1760) 
-12.08

>  <source>  (1760) 
ETAM_MBZ

>  <Index>  (1760) 
17906

$$$$
ETAM-pdb3g79-B-LYS-296:MBZ-pdb3g79-B-PHE-113
     RDKit          3D

 26 25  0  0  0  0  0  0  0  0999 V2000
   -1.5053   -3.3067    2.7277 C   0  0  0  0  0  0  0  0  0  0  0  0
   -0.5522   -3.3102    2.4871 H   0  0  0  0  0  0  0  0  0  0  0  0
   -2.0837   -3.0936    1.9630 H   0  0  0  0  0  0  0  0  0  0  0  0
   -1.7848   -4.2737    3.1456 H   0  0  0  0  0  0  0  0  0  0  0  0
   -1.7168   -2.1950    3.8032 C   0  0  0  0  0  0  0  0  0  0  0  0
   -2.6433   -2.3076    4.1873 H   0  0  0  0  0  0  0  0  0  0  0  0
   -1.0514   -2.3507    4.5459 H   0  0  0  0  0  0  0  0  0  0  0  0
   -1.5625   -0.7912    3.2885 N   0  0  0  0  0  4  0  0  0  0  0  0
   -1.3354   -0.1896    4.0505 H   0  0  0  0  0  0  0  0  0  0  0  0
   -0.8317   -0.7727    2.6101 H   0  0  0  0  0  0  0  0  0  0  0  0
   -2.4211   -0.5024    2.8708 H   0  0  0  0  0  0  0  0  0  0  0  0
    0.0096    2.9369    0.0069 C   0  0  0  0  0  0  0  0  0  0  0  0
    0.9448    3.2277    0.1498 H   0  0  0  0  0  0  0  0  0  0  0  0
   -0.5752    3.2347    0.7482 H   0  0  0  0  0  0  0  0  0  0  0  0
   -0.3487    3.4073   -0.9088 H   0  0  0  0  0  0  0  0  0  0  0  0
   -0.0034    1.4158   -0.0094 C   0  0  0  0  0  0  0  0  0  0  0  0
   -1.2097    0.7097    0.0023 C   0  0  0  0  0  0  0  0  0  0  0  0
   -2.0718    1.2001    0.0112 H   0  0  0  0  0  0  0  0  0  0  0  0
   -1.2199   -0.6930   -0.0000 C   0  0  0  0  0  0  0  0  0  0  0  0
   -2.0880   -1.1875    0.0012 H   0  0  0  0  0  0  0  0  0  0  0  0
    0.0060   -1.4129   -0.0025 C   0  0  0  0  0  0  0  0  0  0  0  0
   -0.0104   -2.4019   -0.0061 H   0  0  0  0  0  0  0  0  0  0  0  0
    1.2199   -0.7108    0.0000 C   0  0  0  0  0  0  0  0  0  0  0  0
    2.0960   -1.2043   -0.0035 H   0  0  0  0  0  0  0  0  0  0  0  0
    1.2072    0.6913    0.0095 C   0  0  0  0  0  0  0  0  0  0  0  0
    2.0722    1.1911    0.0294 H   0  0  0  0  0  0  0  0  0  0  0  0
  1  5  1  0
  5  8  1  0
  1  2  1  0
  1  3  1  0
  1  4  1  0
  5  6  1  0
  5  7  1  0
  8  9  1  0
  8 10  1  0
  8 11  1  0
 12 16  1  0
 16 17  2  0
 17 19  1  0
 19 21  2  0
 21 23  1  0
 23 25  2  0
 25 16  1  0
 12 13  1  0
 12 14  1  0
 12 15  1  0
 17 18  1  0
 19 20  1  0
 21 22  1  0
 23 24  1  0
 25 26  1  0
M  CHG  1   8   1
M  END
>  <PDB_ID>  (1761) 
pdb3g79

>  <RESIDUE_NAME>  (1761) 
LYS   PHE

>  <FRAG_NAME>  (1761) 
ETAM   MBZ

>  <FRAG_ATOM_NUM>  (1761) 
fragi: 11  fragj: 15

>  <atom.prop.CHAIN_ID>  (1761) 
A A A A A A A A A A A Z Z Z Z Z Z Z Z Z Z Z Z Z Z Z

>  <atom.prop.IS_HEAVY_ATOM>  (1761) 
1 0 0 0 1 0 0 1 0 0 0 1 0 0 0 1 1 0 1 0 1 0 1 0 1 0

>  <DIFUSE_FUNC_ATOM>  (1761) 
n/a

>  <FINAL_SINGLE_POINT_ENERGY>  (1761) 
0

>  <NONCOV_INTER_ENERGY_QM>  (1761) 
0

>  <FF_Energy>  (1761) 
-6.28

>  <QM_Energy>  (1761) 
-12.88

>  <source>  (1761) 
ETAM_MBZ

>  <Index>  (1761) 
17916

$$$$
ETAM-pdb4c9y-B-LYS-22:MBZ-pdb4c9y-B-PHE-14
     RDKit          3D

 26 25  0  0  0  0  0  0  0  0999 V2000
   -0.1299   -2.4714    4.3145 C   0  0  0  0  0  0  0  0  0  0  0  0
    0.6470   -2.9129    4.7605 H   0  0  0  0  0  0  0  0  0  0  0  0
   -0.2071   -2.7975    3.3735 H   0  0  0  0  0  0  0  0  0  0  0  0
   -1.0400   -2.7341    4.8540 H   0  0  0  0  0  0  0  0  0  0  0  0
    0.0998   -0.9861    4.2965 C   0  0  0  0  0  0  0  0  0  0  0  0
   -0.6283   -0.5445    3.7716 H   0  0  0  0  0  0  0  0  0  0  0  0
    0.0909   -0.6379    5.2340 H   0  0  0  0  0  0  0  0  0  0  0  0
    1.4086   -0.6714    3.6738 N   0  0  0  0  0  4  0  0  0  0  0  0
    2.1254   -1.2160    4.1102 H   0  0  0  0  0  0  0  0  0  0  0  0
    1.3745   -0.8863    2.6974 H   0  0  0  0  0  0  0  0  0  0  0  0
    1.6097    0.3011    3.7933 H   0  0  0  0  0  0  0  0  0  0  0  0
    0.0047    2.9174    0.0014 C   0  0  0  0  0  0  0  0  0  0  0  0
   -0.7718    3.2213   -0.5280 H   0  0  0  0  0  0  0  0  0  0  0  0
    0.8556    3.2164   -0.4020 H   0  0  0  0  0  0  0  0  0  0  0  0
   -0.0707    3.3625    0.9935 H   0  0  0  0  0  0  0  0  0  0  0  0
   -0.0002    1.4036    0.0022 C   0  0  0  0  0  0  0  0  0  0  0  0
   -1.1929    0.7005    0.0016 C   0  0  0  0  0  0  0  0  0  0  0  0
   -2.0615    1.1876    0.0005 H   0  0  0  0  0  0  0  0  0  0  0  0
   -1.2012   -0.6960    0.0000 C   0  0  0  0  0  0  0  0  0  0  0  0
   -2.0804   -1.1837    0.0033 H   0  0  0  0  0  0  0  0  0  0  0  0
   -0.0037   -1.3950   -0.0037 C   0  0  0  0  0  0  0  0  0  0  0  0
   -0.0091   -2.3941   -0.0092 H   0  0  0  0  0  0  0  0  0  0  0  0
    1.2012   -0.7019    0.0000 C   0  0  0  0  0  0  0  0  0  0  0  0
    2.0801   -1.2014    0.0045 H   0  0  0  0  0  0  0  0  0  0  0  0
    1.1969    0.6887   -0.0001 C   0  0  0  0  0  0  0  0  0  0  0  0
    2.0659    1.1854   -0.0028 H   0  0  0  0  0  0  0  0  0  0  0  0
  1  5  1  0
  5  8  1  0
  1  2  1  0
  1  3  1  0
  1  4  1  0
  5  6  1  0
  5  7  1  0
  8  9  1  0
  8 10  1  0
  8 11  1  0
 12 16  1  0
 16 17  2  0
 17 19  1  0
 19 21  2  0
 21 23  1  0
 23 25  2  0
 25 16  1  0
 12 13  1  0
 12 14  1  0
 12 15  1  0
 17 18  1  0
 19 20  1  0
 21 22  1  0
 23 24  1  0
 25 26  1  0
M  CHG  1   8   1
M  END
>  <PDB_ID>  (1762) 
pdb4c9y

>  <RESIDUE_NAME>  (1762) 
LYS   PHE

>  <FRAG_NAME>  (1762) 
ETAM   MBZ

>  <FRAG_ATOM_NUM>  (1762) 
fragi: 11  fragj: 15

>  <atom.prop.CHAIN_ID>  (1762) 
A A A A A A A A A A A Z Z Z Z Z Z Z Z Z Z Z Z Z Z Z

>  <atom.prop.IS_HEAVY_ATOM>  (1762) 
1 0 0 0 1 0 0 1 0 0 0 1 0 0 0 1 1 0 1 0 1 0 1 0 1 0

>  <DIFUSE_FUNC_ATOM>  (1762) 
n/a

>  <FINAL_SINGLE_POINT_ENERGY>  (1762) 
0

>  <NONCOV_INTER_ENERGY_QM>  (1762) 
0

>  <FF_Energy>  (1762) 
-5.88

>  <QM_Energy>  (1762) 
-11.86

>  <source>  (1762) 
ETAM_MBZ

>  <Index>  (1762) 
17918

$$$$
ETAM-pdb4c5f-B-LYS-191:MBZ-pdb4c5f-B-PHE-132
     RDKit          3D

 26 25  0  0  0  0  0  0  0  0999 V2000
   -4.0978   -1.3857    3.1836 C   0  0  0  0  0  0  0  0  0  0  0  0
   -3.6420   -2.1315    2.7281 H   0  0  0  0  0  0  0  0  0  0  0  0
   -4.5758   -0.8050    2.5465 H   0  0  0  0  0  0  0  0  0  0  0  0
   -4.8015   -1.7820    3.9156 H   0  0  0  0  0  0  0  0  0  0  0  0
   -3.0294   -0.5349    3.8967 C   0  0  0  0  0  0  0  0  0  0  0  0
   -3.4908    0.0658    4.5529 H   0  0  0  0  0  0  0  0  0  0  0  0
   -2.4150   -1.1511    4.3941 H   0  0  0  0  0  0  0  0  0  0  0  0
   -2.2413    0.2865    2.9396 N   0  0  0  0  0  4  0  0  0  0  0  0
   -1.3222    0.4306    3.3049 H   0  0  0  0  0  0  0  0  0  0  0  0
   -2.1817   -0.1911    2.0634 H   0  0  0  0  0  0  0  0  0  0  0  0
   -2.6921    1.1691    2.8102 H   0  0  0  0  0  0  0  0  0  0  0  0
   -0.0103    2.9027    0.0388 C   0  0  0  0  0  0  0  0  0  0  0  0
   -0.6839    3.2305   -0.6017 H   0  0  0  0  0  0  0  0  0  0  0  0
    0.8950    3.2245   -0.1829 H   0  0  0  0  0  0  0  0  0  0  0  0
   -0.2691    3.2966    1.0216 H   0  0  0  0  0  0  0  0  0  0  0  0
   -0.0028    1.4026   -0.0135 C   0  0  0  0  0  0  0  0  0  0  0  0
   -1.1937    0.6840    0.0142 C   0  0  0  0  0  0  0  0  0  0  0  0
   -2.0651    1.1664    0.0431 H   0  0  0  0  0  0  0  0  0  0  0  0
   -1.1929   -0.7134   -0.0000 C   0  0  0  0  0  0  0  0  0  0  0  0
   -2.0667   -1.2061   -0.0072 H   0  0  0  0  0  0  0  0  0  0  0  0
    0.0084   -1.3912   -0.0017 C   0  0  0  0  0  0  0  0  0  0  0  0
    0.0148   -2.3939   -0.0048 H   0  0  0  0  0  0  0  0  0  0  0  0
    1.1929   -0.6873    0.0000 C   0  0  0  0  0  0  0  0  0  0  0  0
    2.0846   -1.1777    0.0022 H   0  0  0  0  0  0  0  0  0  0  0  0
    1.1882    0.7053    0.0010 C   0  0  0  0  0  0  0  0  0  0  0  0
    2.0573    1.1983    0.0121 H   0  0  0  0  0  0  0  0  0  0  0  0
  1  5  1  0
  5  8  1  0
  1  2  1  0
  1  3  1  0
  1  4  1  0
  5  6  1  0
  5  7  1  0
  8  9  1  0
  8 10  1  0
  8 11  1  0
 12 16  1  0
 16 17  2  0
 17 19  1  0
 19 21  2  0
 21 23  1  0
 23 25  2  0
 25 16  1  0
 12 13  1  0
 12 14  1  0
 12 15  1  0
 17 18  1  0
 19 20  1  0
 21 22  1  0
 23 24  1  0
 25 26  1  0
M  CHG  1   8   1
M  END
>  <PDB_ID>  (1763) 
pdb4c5f

>  <RESIDUE_NAME>  (1763) 
LYS   PHE

>  <FRAG_NAME>  (1763) 
ETAM   MBZ

>  <FRAG_ATOM_NUM>  (1763) 
fragi: 11  fragj: 15

>  <atom.prop.CHAIN_ID>  (1763) 
A A A A A A A A A A A Z Z Z Z Z Z Z Z Z Z Z Z Z Z Z

>  <atom.prop.IS_HEAVY_ATOM>  (1763) 
1 0 0 0 1 0 0 1 0 0 0 1 0 0 0 1 1 0 1 0 1 0 1 0 1 0

>  <DIFUSE_FUNC_ATOM>  (1763) 
n/a

>  <FINAL_SINGLE_POINT_ENERGY>  (1763) 
0

>  <NONCOV_INTER_ENERGY_QM>  (1763) 
0

>  <FF_Energy>  (1763) 
-4.53

>  <QM_Energy>  (1763) 
-11.05

>  <source>  (1763) 
ETAM_MBZ

>  <Index>  (1763) 
17920

$$$$
ETAM-pdb4c9y-B-LYS-44:MBZ-pdb4c9y-B-PHE-79
     RDKit          3D

 26 25  0  0  0  0  0  0  0  0999 V2000
    0.7533   -0.2196   -5.6771 C   0  0  0  0  0  0  0  0  0  0  0  0
    1.7021   -0.4154   -5.5186 H   0  0  0  0  0  0  0  0  0  0  0  0
    0.5331    0.7256   -5.5309 H   0  0  0  0  0  0  0  0  0  0  0  0
    0.4897   -0.5013   -6.6965 H   0  0  0  0  0  0  0  0  0  0  0  0
   -0.0840   -1.0669   -4.6834 C   0  0  0  0  0  0  0  0  0  0  0  0
   -1.0518   -0.8211   -4.8009 H   0  0  0  0  0  0  0  0  0  0  0  0
    0.0321   -2.0361   -4.9235 H   0  0  0  0  0  0  0  0  0  0  0  0
    0.3104   -0.8590   -3.2563 N   0  0  0  0  0  4  0  0  0  0  0  0
    0.4140    0.1188   -3.0832 H   0  0  0  0  0  0  0  0  0  0  0  0
   -0.3989   -1.2338   -2.6621 H   0  0  0  0  0  0  0  0  0  0  0  0
    1.1761   -1.3261   -3.0834 H   0  0  0  0  0  0  0  0  0  0  0  0
    0.0038    2.9222   -0.0025 C   0  0  0  0  0  0  0  0  0  0  0  0
    0.8395    3.2209    0.4252 H   0  0  0  0  0  0  0  0  0  0  0  0
   -0.7919    3.2244    0.4951 H   0  0  0  0  0  0  0  0  0  0  0  0
   -0.0379    3.3592   -1.0002 H   0  0  0  0  0  0  0  0  0  0  0  0
    0.0011    1.4034   -0.0028 C   0  0  0  0  0  0  0  0  0  0  0  0
   -1.1933    0.7001   -0.0031 C   0  0  0  0  0  0  0  0  0  0  0  0
   -2.0608    1.1898   -0.0068 H   0  0  0  0  0  0  0  0  0  0  0  0
   -1.2018   -0.6925   -0.0000 C   0  0  0  0  0  0  0  0  0  0  0  0
   -2.0825   -1.1816    0.0050 H   0  0  0  0  0  0  0  0  0  0  0  0
   -0.0068   -1.3945   -0.0016 C   0  0  0  0  0  0  0  0  0  0  0  0
   -0.0146   -2.3935   -0.0040 H   0  0  0  0  0  0  0  0  0  0  0  0
    1.2018   -0.7053    0.0000 C   0  0  0  0  0  0  0  0  0  0  0  0
    2.0784   -1.2049   -0.0030 H   0  0  0  0  0  0  0  0  0  0  0  0
    1.1991    0.6888    0.0075 C   0  0  0  0  0  0  0  0  0  0  0  0
    2.0679    1.1837    0.0200 H   0  0  0  0  0  0  0  0  0  0  0  0
  1  5  1  0
  5  8  1  0
  1  2  1  0
  1  3  1  0
  1  4  1  0
  5  6  1  0
  5  7  1  0
  8  9  1  0
  8 10  1  0
  8 11  1  0
 12 16  1  0
 16 17  2  0
 17 19  1  0
 19 21  2  0
 21 23  1  0
 23 25  2  0
 25 16  1  0
 12 13  1  0
 12 14  1  0
 12 15  1  0
 17 18  1  0
 19 20  1  0
 21 22  1  0
 23 24  1  0
 25 26  1  0
M  CHG  1   8   1
M  END
>  <PDB_ID>  (1764) 
pdb4c9y

>  <RESIDUE_NAME>  (1764) 
LYS   PHE

>  <FRAG_NAME>  (1764) 
ETAM   MBZ

>  <FRAG_ATOM_NUM>  (1764) 
fragi: 11  fragj: 15

>  <atom.prop.CHAIN_ID>  (1764) 
A A A A A A A A A A A Z Z Z Z Z Z Z Z Z Z Z Z Z Z Z

>  <atom.prop.IS_HEAVY_ATOM>  (1764) 
1 0 0 0 1 0 0 1 0 0 0 1 0 0 0 1 1 0 1 0 1 0 1 0 1 0

>  <DIFUSE_FUNC_ATOM>  (1764) 
n/a

>  <FINAL_SINGLE_POINT_ENERGY>  (1764) 
0

>  <NONCOV_INTER_ENERGY_QM>  (1764) 
0

>  <FF_Energy>  (1764) 
-7.31

>  <QM_Energy>  (1764) 
-14.24

>  <source>  (1764) 
ETAM_MBZ

>  <Index>  (1764) 
17921

$$$$
ETAM-pdb4cbu-G-LYS-141:MBZ-pdb4cbu-G-PHE-63
     RDKit          3D

 26 25  0  0  0  0  0  0  0  0999 V2000
   -1.7012   -0.7530   -3.8348 C   0  0  0  0  0  0  0  0  0  0  0  0
   -2.1141   -1.4732   -3.3340 H   0  0  0  0  0  0  0  0  0  0  0  0
   -1.7555   -0.9314   -4.7862 H   0  0  0  0  0  0  0  0  0  0  0  0
   -2.2188    0.1804   -3.6141 H   0  0  0  0  0  0  0  0  0  0  0  0
   -0.2313   -0.6829   -3.4453 C   0  0  0  0  0  0  0  0  0  0  0  0
    0.2277   -0.0424   -4.0117 H   0  0  0  0  0  0  0  0  0  0  0  0
   -0.1506   -0.4345   -2.5115 H   0  0  0  0  0  0  0  0  0  0  0  0
    0.3863   -2.0151   -3.6381 N   0  0  0  0  0  4  0  0  0  0  0  0
    0.3177   -2.2620   -4.4902 H   0  0  0  0  0  0  0  0  0  0  0  0
    1.2471   -1.9869   -3.4136 H   0  0  0  0  0  0  0  0  0  0  0  0
   -0.0259   -2.6180   -3.1285 H   0  0  0  0  0  0  0  0  0  0  0  0
   -0.0649    2.8995    0.0645 C   0  0  0  0  0  0  0  0  0  0  0  0
    0.8407    3.2230    0.1901 H   0  0  0  0  0  0  0  0  0  0  0  0
   -0.6076    3.1448    0.8301 H   0  0  0  0  0  0  0  0  0  0  0  0
   -0.4829    3.3755   -0.8225 H   0  0  0  0  0  0  0  0  0  0  0  0
   -0.0076    1.3996    0.0111 C   0  0  0  0  0  0  0  0  0  0  0  0
   -1.1792    0.6801   -0.0029 C   0  0  0  0  0  0  0  0  0  0  0  0
   -1.9891    1.1375    0.0201 H   0  0  0  0  0  0  0  0  0  0  0  0
   -1.1909   -0.7024   -0.0000 C   0  0  0  0  0  0  0  0  0  0  0  0
   -1.9985   -1.1628   -0.0067 H   0  0  0  0  0  0  0  0  0  0  0  0
   -0.0058   -1.3907    0.0011 C   0  0  0  0  0  0  0  0  0  0  0  0
   -0.0038   -2.3200   -0.0220 H   0  0  0  0  0  0  0  0  0  0  0  0
    1.1909   -0.6888    0.0000 C   0  0  0  0  0  0  0  0  0  0  0  0
    1.9976   -1.1518   -0.0134 H   0  0  0  0  0  0  0  0  0  0  0  0
    1.1926    0.7022   -0.0093 C   0  0  0  0  0  0  0  0  0  0  0  0
    1.9977    1.1655    0.0142 H   0  0  0  0  0  0  0  0  0  0  0  0
  1  5  1  0
  5  8  1  0
  1  2  1  0
  1  3  1  0
  1  4  1  0
  5  6  1  0
  5  7  1  0
  8  9  1  0
  8 10  1  0
  8 11  1  0
 12 16  1  0
 16 17  2  0
 17 19  1  0
 19 21  2  0
 21 23  1  0
 23 25  2  0
 25 16  1  0
 12 13  1  0
 12 14  1  0
 12 15  1  0
 17 18  1  0
 19 20  1  0
 21 22  1  0
 23 24  1  0
 25 26  1  0
M  CHG  1   8   1
M  END
>  <PDB_ID>  (1765) 
pdb4cbu

>  <RESIDUE_NAME>  (1765) 
LYS   PHE

>  <FRAG_NAME>  (1765) 
ETAM   MBZ

>  <FRAG_ATOM_NUM>  (1765) 
fragi: 11  fragj: 15

>  <atom.prop.CHAIN_ID>  (1765) 
A A A A A A A A A A A Z Z Z Z Z Z Z Z Z Z Z Z Z Z Z

>  <atom.prop.IS_HEAVY_ATOM>  (1765) 
1 0 0 0 1 0 0 1 0 0 0 1 0 0 0 1 1 0 1 0 1 0 1 0 1 0

>  <DIFUSE_FUNC_ATOM>  (1765) 
n/a

>  <FINAL_SINGLE_POINT_ENERGY>  (1765) 
0

>  <NONCOV_INTER_ENERGY_QM>  (1765) 
0

>  <FF_Energy>  (1765) 
-4.77

>  <QM_Energy>  (1765) 
-11.22

>  <source>  (1765) 
ETAM_MBZ

>  <Index>  (1765) 
17942

$$$$
ETAM-pdb4cc9-B-LYS-84:MBZ-pdb4cc9-B-PHE-80
     RDKit          3D

 26 25  0  0  0  0  0  0  0  0999 V2000
   -1.4033   -1.9798    4.3565 C   0  0  0  0  0  0  0  0  0  0  0  0
   -1.1173   -2.5400    5.1283 H   0  0  0  0  0  0  0  0  0  0  0  0
   -2.1761   -1.4083    4.6139 H   0  0  0  0  0  0  0  0  0  0  0  0
   -0.5732   -1.3418    4.0534 H   0  0  0  0  0  0  0  0  0  0  0  0
   -1.8424   -2.9032    3.2268 C   0  0  0  0  0  0  0  0  0  0  0  0
   -2.5980   -3.4732    3.5499 H   0  0  0  0  0  0  0  0  0  0  0  0
   -2.1527   -2.3460    2.4555 H   0  0  0  0  0  0  0  0  0  0  0  0
   -0.7229   -3.7776    2.7826 N   0  0  0  0  0  4  0  0  0  0  0  0
   -1.0885   -4.6599    2.4874 H   0  0  0  0  0  0  0  0  0  0  0  0
   -0.2440   -3.3412    2.0210 H   0  0  0  0  0  0  0  0  0  0  0  0
   -0.0881   -3.9155    3.5427 H   0  0  0  0  0  0  0  0  0  0  0  0
    0.0027    2.9333   -0.0337 C   0  0  0  0  0  0  0  0  0  0  0  0
   -0.7538    3.2193   -0.6063 H   0  0  0  0  0  0  0  0  0  0  0  0
    0.8681    3.2227   -0.4210 H   0  0  0  0  0  0  0  0  0  0  0  0
   -0.1090    3.4174    0.9365 H   0  0  0  0  0  0  0  0  0  0  0  0
    0.0006    1.4189    0.0081 C   0  0  0  0  0  0  0  0  0  0  0  0
   -1.1960    0.7009   -0.0063 C   0  0  0  0  0  0  0  0  0  0  0  0
   -2.0674    1.1809   -0.0227 H   0  0  0  0  0  0  0  0  0  0  0  0
   -1.2064   -0.7166   -0.0000 C   0  0  0  0  0  0  0  0  0  0  0  0
   -2.0815   -1.1966    0.0082 H   0  0  0  0  0  0  0  0  0  0  0  0
    0.0005   -1.4137   -0.0035 C   0  0  0  0  0  0  0  0  0  0  0  0
    0.0054   -2.4065   -0.0093 H   0  0  0  0  0  0  0  0  0  0  0  0
    1.2064   -0.7004   -0.0000 C   0  0  0  0  0  0  0  0  0  0  0  0
    2.0890   -1.1868    0.0032 H   0  0  0  0  0  0  0  0  0  0  0  0
    1.1948    0.7109    0.0017 C   0  0  0  0  0  0  0  0  0  0  0  0
    2.0669    1.1997   -0.0027 H   0  0  0  0  0  0  0  0  0  0  0  0
  1  5  1  0
  5  8  1  0
  1  2  1  0
  1  3  1  0
  1  4  1  0
  5  6  1  0
  5  7  1  0
  8  9  1  0
  8 10  1  0
  8 11  1  0
 12 16  1  0
 16 17  2  0
 17 19  1  0
 19 21  2  0
 21 23  1  0
 23 25  2  0
 25 16  1  0
 12 13  1  0
 12 14  1  0
 12 15  1  0
 17 18  1  0
 19 20  1  0
 21 22  1  0
 23 24  1  0
 25 26  1  0
M  CHG  1   8   1
M  END
>  <PDB_ID>  (1766) 
pdb4cc9

>  <RESIDUE_NAME>  (1766) 
LYS   PHE

>  <FRAG_NAME>  (1766) 
ETAM   MBZ

>  <FRAG_ATOM_NUM>  (1766) 
fragi: 11  fragj: 15

>  <atom.prop.CHAIN_ID>  (1766) 
A A A A A A A A A A A Z Z Z Z Z Z Z Z Z Z Z Z Z Z Z

>  <atom.prop.IS_HEAVY_ATOM>  (1766) 
1 0 0 0 1 0 0 1 0 0 0 1 0 0 0 1 1 0 1 0 1 0 1 0 1 0

>  <DIFUSE_FUNC_ATOM>  (1766) 
n/a

>  <FINAL_SINGLE_POINT_ENERGY>  (1766) 
0

>  <NONCOV_INTER_ENERGY_QM>  (1766) 
0

>  <FF_Energy>  (1766) 
-1.78

>  <QM_Energy>  (1766) 
-7.45

>  <source>  (1766) 
ETAM_MBZ

>  <Index>  (1766) 
17949

$$$$
ETAM-pdb3g8z-A-LYS-56:MBZ-pdb3g8z-A-PHE-40
     RDKit          3D

 26 25  0  0  0  0  0  0  0  0999 V2000
   -3.3870   -3.2870   -0.5042 C   0  0  0  0  0  0  0  0  0  0  0  0
   -4.3645   -3.4501   -0.3799 H   0  0  0  0  0  0  0  0  0  0  0  0
   -3.1919   -2.3128   -0.4055 H   0  0  0  0  0  0  0  0  0  0  0  0
   -2.8469   -3.8274    0.2734 H   0  0  0  0  0  0  0  0  0  0  0  0
   -2.9893   -3.7269   -1.8949 C   0  0  0  0  0  0  0  0  0  0  0  0
   -2.0118   -3.5652   -2.0227 H   0  0  0  0  0  0  0  0  0  0  0  0
   -3.1836   -4.7026   -1.9982 H   0  0  0  0  0  0  0  0  0  0  0  0
   -3.7491   -2.9665   -2.9168 N   0  0  0  0  0  4  0  0  0  0  0  0
   -4.7224   -3.1810   -2.8370 H   0  0  0  0  0  0  0  0  0  0  0  0
   -3.6119   -1.9859   -2.7733 H   0  0  0  0  0  0  0  0  0  0  0  0
   -3.4254   -3.2172   -3.8290 H   0  0  0  0  0  0  0  0  0  0  0  0
   -0.0234    2.8899    0.0034 C   0  0  0  0  0  0  0  0  0  0  0  0
    0.9075    3.2093    0.0588 H   0  0  0  0  0  0  0  0  0  0  0  0
   -0.5641    3.2004    0.7673 H   0  0  0  0  0  0  0  0  0  0  0  0
   -0.4625    3.3068   -0.9030 H   0  0  0  0  0  0  0  0  0  0  0  0
   -0.0072    1.3895    0.0168 C   0  0  0  0  0  0  0  0  0  0  0  0
   -1.1899    0.6838   -0.0102 C   0  0  0  0  0  0  0  0  0  0  0  0
   -2.0623    1.1762   -0.0391 H   0  0  0  0  0  0  0  0  0  0  0  0
   -1.1953   -0.6921    0.0000 C   0  0  0  0  0  0  0  0  0  0  0  0
   -2.0726   -1.1904    0.0119 H   0  0  0  0  0  0  0  0  0  0  0  0
   -0.0001   -1.3793   -0.0043 C   0  0  0  0  0  0  0  0  0  0  0  0
   -0.0016   -2.3825   -0.0108 H   0  0  0  0  0  0  0  0  0  0  0  0
    1.1953   -0.6876    0.0000 C   0  0  0  0  0  0  0  0  0  0  0  0
    2.0775   -1.1947    0.0066 H   0  0  0  0  0  0  0  0  0  0  0  0
    1.1972    0.6856   -0.0022 C   0  0  0  0  0  0  0  0  0  0  0  0
    2.0581    1.1908   -0.0185 H   0  0  0  0  0  0  0  0  0  0  0  0
  1  5  1  0
  5  8  1  0
  1  2  1  0
  1  3  1  0
  1  4  1  0
  5  6  1  0
  5  7  1  0
  8  9  1  0
  8 10  1  0
  8 11  1  0
 12 16  1  0
 16 17  2  0
 17 19  1  0
 19 21  2  0
 21 23  1  0
 23 25  2  0
 25 16  1  0
 12 13  1  0
 12 14  1  0
 12 15  1  0
 17 18  1  0
 19 20  1  0
 21 22  1  0
 23 24  1  0
 25 26  1  0
M  CHG  1   8   1
M  END
>  <PDB_ID>  (1767) 
pdb3g8z

>  <RESIDUE_NAME>  (1767) 
LYS   PHE

>  <FRAG_NAME>  (1767) 
ETAM   MBZ

>  <FRAG_ATOM_NUM>  (1767) 
fragi: 11  fragj: 15

>  <atom.prop.CHAIN_ID>  (1767) 
A A A A A A A A A A A Z Z Z Z Z Z Z Z Z Z Z Z Z Z Z

>  <atom.prop.IS_HEAVY_ATOM>  (1767) 
1 0 0 0 1 0 0 1 0 0 0 1 0 0 0 1 1 0 1 0 1 0 1 0 1 0

>  <DIFUSE_FUNC_ATOM>  (1767) 
n/a

>  <FINAL_SINGLE_POINT_ENERGY>  (1767) 
0

>  <NONCOV_INTER_ENERGY_QM>  (1767) 
0

>  <FF_Energy>  (1767) 
10.4

>  <QM_Energy>  (1767) 
-0.84

>  <source>  (1767) 
ETAM_MBZ

>  <Index>  (1767) 
17954

$$$$
ETAM-pdb4cbu-A-LYS-284:MBZ-pdb4cbu-A-PHE-280
     RDKit          3D

 26 25  0  0  0  0  0  0  0  0999 V2000
   -0.3075   -2.1228    3.4181 C   0  0  0  0  0  0  0  0  0  0  0  0
   -0.2572   -2.8397    4.0697 H   0  0  0  0  0  0  0  0  0  0  0  0
   -0.5662   -2.4722    2.5511 H   0  0  0  0  0  0  0  0  0  0  0  0
   -1.0416   -1.3868    3.7460 H   0  0  0  0  0  0  0  0  0  0  0  0
    1.0613   -1.4965    3.2927 C   0  0  0  0  0  0  0  0  0  0  0  0
    1.0138   -0.7702    2.6512 H   0  0  0  0  0  0  0  0  0  0  0  0
    1.3274   -1.1514    4.1590 H   0  0  0  0  0  0  0  0  0  0  0  0
    2.1352   -2.4522    2.8270 N   0  0  0  0  0  4  0  0  0  0  0  0
    1.9257   -2.7780    2.0261 H   0  0  0  0  0  0  0  0  0  0  0  0
    2.9158   -2.0277    2.7720 H   0  0  0  0  0  0  0  0  0  0  0  0
    2.2125   -3.1263    3.4030 H   0  0  0  0  0  0  0  0  0  0  0  0
    0.0313    2.9015   -0.0327 C   0  0  0  0  0  0  0  0  0  0  0  0
   -0.3983    3.1693   -0.8598 H   0  0  0  0  0  0  0  0  0  0  0  0
    0.9622    3.1747   -0.0459 H   0  0  0  0  0  0  0  0  0  0  0  0
   -0.4653    3.4075    0.7952 H   0  0  0  0  0  0  0  0  0  0  0  0
    0.0003    1.4019    0.0281 C   0  0  0  0  0  0  0  0  0  0  0  0
   -1.1835    0.6901   -0.0193 C   0  0  0  0  0  0  0  0  0  0  0  0
   -1.9913    1.1501   -0.0191 H   0  0  0  0  0  0  0  0  0  0  0  0
   -1.1954   -0.7020   -0.0000 C   0  0  0  0  0  0  0  0  0  0  0  0
   -2.0032   -1.1617   -0.0203 H   0  0  0  0  0  0  0  0  0  0  0  0
   -0.0100   -1.3943   -0.0236 C   0  0  0  0  0  0  0  0  0  0  0  0
   -0.0118   -2.3240   -0.0043 H   0  0  0  0  0  0  0  0  0  0  0  0
    1.1954   -0.6948    0.0000 C   0  0  0  0  0  0  0  0  0  0  0  0
    2.0009   -1.1582    0.0094 H   0  0  0  0  0  0  0  0  0  0  0  0
    1.1932    0.6991    0.0148 C   0  0  0  0  0  0  0  0  0  0  0  0
    2.0007    1.1613    0.0129 H   0  0  0  0  0  0  0  0  0  0  0  0
  1  5  1  0
  5  8  1  0
  1  2  1  0
  1  3  1  0
  1  4  1  0
  5  6  1  0
  5  7  1  0
  8  9  1  0
  8 10  1  0
  8 11  1  0
 12 16  1  0
 16 17  2  0
 17 19  1  0
 19 21  2  0
 21 23  1  0
 23 25  2  0
 25 16  1  0
 12 13  1  0
 12 14  1  0
 12 15  1  0
 17 18  1  0
 19 20  1  0
 21 22  1  0
 23 24  1  0
 25 26  1  0
M  CHG  1   8   1
M  END
>  <PDB_ID>  (1768) 
pdb4cbu

>  <RESIDUE_NAME>  (1768) 
LYS   PHE

>  <FRAG_NAME>  (1768) 
ETAM   MBZ

>  <FRAG_ATOM_NUM>  (1768) 
fragi: 11  fragj: 15

>  <atom.prop.CHAIN_ID>  (1768) 
A A A A A A A A A A A Z Z Z Z Z Z Z Z Z Z Z Z Z Z Z

>  <atom.prop.IS_HEAVY_ATOM>  (1768) 
1 0 0 0 1 0 0 1 0 0 0 1 0 0 0 1 1 0 1 0 1 0 1 0 1 0

>  <DIFUSE_FUNC_ATOM>  (1768) 
n/a

>  <FINAL_SINGLE_POINT_ENERGY>  (1768) 
0

>  <NONCOV_INTER_ENERGY_QM>  (1768) 
0

>  <FF_Energy>  (1768) 
-2.77

>  <QM_Energy>  (1768) 
-9.17

>  <source>  (1768) 
ETAM_MBZ

>  <Index>  (1768) 
17981

$$$$
ETAM-pdb4cgs-B-LYS-100:MBZ-pdb4cgs-B-PHE-119
     RDKit          3D

 26 25  0  0  0  0  0  0  0  0999 V2000
    5.1696    1.1332    0.0158 C   0  0  0  0  0  0  0  0  0  0  0  0
    4.4036    1.4715   -0.4753 H   0  0  0  0  0  0  0  0  0  0  0  0
    6.0136    1.1958   -0.4581 H   0  0  0  0  0  0  0  0  0  0  0  0
    5.2501    1.6658    0.9634 H   0  0  0  0  0  0  0  0  0  0  0  0
    4.9128   -0.3447    0.3697 C   0  0  0  0  0  0  0  0  0  0  0  0
    4.6703   -0.8278   -0.4542 H   0  0  0  0  0  0  0  0  0  0  0  0
    5.7260   -0.7145    0.7860 H   0  0  0  0  0  0  0  0  0  0  0  0
    3.7830   -0.3934    1.3355 N   0  0  0  0  0  4  0  0  0  0  0  0
    3.0814    0.2622    1.0582 H   0  0  0  0  0  0  0  0  0  0  0  0
    3.3947   -1.3149    1.3468 H   0  0  0  0  0  0  0  0  0  0  0  0
    4.1168   -0.1600    2.2491 H   0  0  0  0  0  0  0  0  0  0  0  0
    0.0011    2.8298   -0.0276 C   0  0  0  0  0  0  0  0  0  0  0  0
   -0.5695    3.1575   -0.7810 H   0  0  0  0  0  0  0  0  0  0  0  0
    0.9374    3.1600   -0.1504 H   0  0  0  0  0  0  0  0  0  0  0  0
   -0.3768    3.3136    0.8730 H   0  0  0  0  0  0  0  0  0  0  0  0
   -0.0055    1.3833   -0.0066 C   0  0  0  0  0  0  0  0  0  0  0  0
   -1.1737    0.6929   -0.0172 C   0  0  0  0  0  0  0  0  0  0  0  0
   -2.0520    1.1796   -0.0395 H   0  0  0  0  0  0  0  0  0  0  0  0
   -1.1846   -0.6887   -0.0000 C   0  0  0  0  0  0  0  0  0  0  0  0
   -2.0703   -1.1747   -0.0070 H   0  0  0  0  0  0  0  0  0  0  0  0
   -0.0081   -1.3662    0.0273 C   0  0  0  0  0  0  0  0  0  0  0  0
   -0.0190   -2.3821    0.0686 H   0  0  0  0  0  0  0  0  0  0  0  0
    1.1846   -0.7077    0.0000 C   0  0  0  0  0  0  0  0  0  0  0  0
    2.0636   -1.2039   -0.0160 H   0  0  0  0  0  0  0  0  0  0  0  0
    1.1873    0.6863   -0.0035 C   0  0  0  0  0  0  0  0  0  0  0  0
    2.0556    1.1763   -0.0043 H   0  0  0  0  0  0  0  0  0  0  0  0
  1  5  1  0
  5  8  1  0
  1  2  1  0
  1  3  1  0
  1  4  1  0
  5  6  1  0
  5  7  1  0
  8  9  1  0
  8 10  1  0
  8 11  1  0
 12 16  1  0
 16 17  2  0
 17 19  1  0
 19 21  2  0
 21 23  1  0
 23 25  2  0
 25 16  1  0
 12 13  1  0
 12 14  1  0
 12 15  1  0
 17 18  1  0
 19 20  1  0
 21 22  1  0
 23 24  1  0
 25 26  1  0
M  CHG  1   8   1
M  END
>  <PDB_ID>  (1769) 
pdb4cgs

>  <RESIDUE_NAME>  (1769) 
LYS   PHE

>  <FRAG_NAME>  (1769) 
ETAM   MBZ

>  <FRAG_ATOM_NUM>  (1769) 
fragi: 11  fragj: 15

>  <atom.prop.CHAIN_ID>  (1769) 
A A A A A A A A A A A Z Z Z Z Z Z Z Z Z Z Z Z Z Z Z

>  <atom.prop.IS_HEAVY_ATOM>  (1769) 
1 0 0 0 1 0 0 1 0 0 0 1 0 0 0 1 1 0 1 0 1 0 1 0 1 0

>  <DIFUSE_FUNC_ATOM>  (1769) 
n/a

>  <FINAL_SINGLE_POINT_ENERGY>  (1769) 
0

>  <NONCOV_INTER_ENERGY_QM>  (1769) 
0

>  <FF_Energy>  (1769) 
4.97

>  <QM_Energy>  (1769) 
-4.2

>  <source>  (1769) 
ETAM_MBZ

>  <Index>  (1769) 
18001

$$$$
ETAM-pdb4cbx-G-LYS-141:MBZ-pdb4cbx-G-PHE-63
     RDKit          3D

 26 25  0  0  0  0  0  0  0  0999 V2000
   -0.7014   -0.8514   -4.0469 C   0  0  0  0  0  0  0  0  0  0  0  0
   -1.2333   -1.4821   -3.4922 H   0  0  0  0  0  0  0  0  0  0  0  0
   -0.6342   -1.1837   -4.9818 H   0  0  0  0  0  0  0  0  0  0  0  0
   -1.1979    0.1190   -4.0515 H   0  0  0  0  0  0  0  0  0  0  0  0
    0.7006   -0.7563   -3.4644 C   0  0  0  0  0  0  0  0  0  0  0  0
    1.2533   -0.1503   -4.0442 H   0  0  0  0  0  0  0  0  0  0  0  0
    0.6446   -0.3603   -2.5438 H   0  0  0  0  0  0  0  0  0  0  0  0
    1.3624   -2.0897   -3.3815 N   0  0  0  0  0  4  0  0  0  0  0  0
    2.3526   -1.9641   -3.3308 H   0  0  0  0  0  0  0  0  0  0  0  0
    1.0413   -2.5673   -2.5642 H   0  0  0  0  0  0  0  0  0  0  0  0
    1.1331   -2.6230   -4.1946 H   0  0  0  0  0  0  0  0  0  0  0  0
   -0.0024    2.8978    0.0080 C   0  0  0  0  0  0  0  0  0  0  0  0
    0.8918    3.2040    0.3023 H   0  0  0  0  0  0  0  0  0  0  0  0
   -0.7075    3.1988    0.6349 H   0  0  0  0  0  0  0  0  0  0  0  0
   -0.2057    3.3479   -0.9637 H   0  0  0  0  0  0  0  0  0  0  0  0
    0.0003    1.3951   -0.0011 C   0  0  0  0  0  0  0  0  0  0  0  0
   -1.1911    0.6883    0.0020 C   0  0  0  0  0  0  0  0  0  0  0  0
   -2.0591    1.1803    0.0042 H   0  0  0  0  0  0  0  0  0  0  0  0
   -1.1950   -0.6944   -0.0000 C   0  0  0  0  0  0  0  0  0  0  0  0
   -2.0732   -1.1897    0.0008 H   0  0  0  0  0  0  0  0  0  0  0  0
   -0.0004   -1.3852   -0.0010 C   0  0  0  0  0  0  0  0  0  0  0  0
   -0.0041   -2.3874   -0.0027 H   0  0  0  0  0  0  0  0  0  0  0  0
    1.1950   -0.6934    0.0000 C   0  0  0  0  0  0  0  0  0  0  0  0
    2.0771   -1.1932    0.0021 H   0  0  0  0  0  0  0  0  0  0  0  0
    1.1913    0.6895    0.0000 C   0  0  0  0  0  0  0  0  0  0  0  0
    2.0614    1.1876    0.0001 H   0  0  0  0  0  0  0  0  0  0  0  0
  1  5  1  0
  5  8  1  0
  1  2  1  0
  1  3  1  0
  1  4  1  0
  5  6  1  0
  5  7  1  0
  8  9  1  0
  8 10  1  0
  8 11  1  0
 12 16  1  0
 16 17  2  0
 17 19  1  0
 19 21  2  0
 21 23  1  0
 23 25  2  0
 25 16  1  0
 12 13  1  0
 12 14  1  0
 12 15  1  0
 17 18  1  0
 19 20  1  0
 21 22  1  0
 23 24  1  0
 25 26  1  0
M  CHG  1   8   1
M  END
>  <PDB_ID>  (1770) 
pdb4cbx

>  <RESIDUE_NAME>  (1770) 
LYS   PHE

>  <FRAG_NAME>  (1770) 
ETAM   MBZ

>  <FRAG_ATOM_NUM>  (1770) 
fragi: 11  fragj: 15

>  <atom.prop.CHAIN_ID>  (1770) 
A A A A A A A A A A A Z Z Z Z Z Z Z Z Z Z Z Z Z Z Z

>  <atom.prop.IS_HEAVY_ATOM>  (1770) 
1 0 0 0 1 0 0 1 0 0 0 1 0 0 0 1 1 0 1 0 1 0 1 0 1 0

>  <DIFUSE_FUNC_ATOM>  (1770) 
n/a

>  <FINAL_SINGLE_POINT_ENERGY>  (1770) 
0

>  <NONCOV_INTER_ENERGY_QM>  (1770) 
0

>  <FF_Energy>  (1770) 
-4.39

>  <QM_Energy>  (1770) 
-10.96

>  <source>  (1770) 
ETAM_MBZ

>  <Index>  (1770) 
18005

$$$$
ETAM-pdb3gdi-B-LYS-201:MBZ-pdb3gdi-B-PHE-228
     RDKit          3D

 26 25  0  0  0  0  0  0  0  0999 V2000
    5.1448   -2.3754    3.4409 C   0  0  0  0  0  0  0  0  0  0  0  0
    5.2584   -3.3582    3.3113 H   0  0  0  0  0  0  0  0  0  0  0  0
    4.7213   -2.1962    4.3257 H   0  0  0  0  0  0  0  0  0  0  0  0
    6.1273   -1.9038    3.4202 H   0  0  0  0  0  0  0  0  0  0  0  0
    4.2253   -1.8458    2.3474 C   0  0  0  0  0  0  0  0  0  0  0  0
    4.6317   -2.0622    1.4516 H   0  0  0  0  0  0  0  0  0  0  0  0
    3.3378   -2.3178    2.4140 H   0  0  0  0  0  0  0  0  0  0  0  0
    4.0060   -0.3789    2.4432 N   0  0  0  0  0  4  0  0  0  0  0  0
    3.6474   -0.1551    3.3493 H   0  0  0  0  0  0  0  0  0  0  0  0
    4.8735    0.0974    2.3001 H   0  0  0  0  0  0  0  0  0  0  0  0
    3.3497   -0.0942    1.7438 H   0  0  0  0  0  0  0  0  0  0  0  0
   -0.0017    2.8993   -0.0479 C   0  0  0  0  0  0  0  0  0  0  0  0
    0.8851    3.2178    0.2493 H   0  0  0  0  0  0  0  0  0  0  0  0
   -0.7212    3.2257    0.5454 H   0  0  0  0  0  0  0  0  0  0  0  0
   -0.1837    3.3007   -1.0448 H   0  0  0  0  0  0  0  0  0  0  0  0
    0.0001    1.4031   -0.0003 C   0  0  0  0  0  0  0  0  0  0  0  0
   -1.1968    0.6962    0.0007 C   0  0  0  0  0  0  0  0  0  0  0  0
   -2.0632    1.1847    0.0006 H   0  0  0  0  0  0  0  0  0  0  0  0
   -1.2023   -0.6988    0.0000 C   0  0  0  0  0  0  0  0  0  0  0  0
   -2.0787   -1.1905    0.0010 H   0  0  0  0  0  0  0  0  0  0  0  0
    0.0005   -1.3959   -0.0010 C   0  0  0  0  0  0  0  0  0  0  0  0
   -0.0036   -2.3946   -0.0031 H   0  0  0  0  0  0  0  0  0  0  0  0
    1.2023   -0.6998   -0.0000 C   0  0  0  0  0  0  0  0  0  0  0  0
    2.0834   -1.1954    0.0020 H   0  0  0  0  0  0  0  0  0  0  0  0
    1.1962    0.6952    0.0005 C   0  0  0  0  0  0  0  0  0  0  0  0
    2.0649    1.1899    0.0004 H   0  0  0  0  0  0  0  0  0  0  0  0
  1  5  1  0
  5  8  1  0
  1  2  1  0
  1  3  1  0
  1  4  1  0
  5  6  1  0
  5  7  1  0
  8  9  1  0
  8 10  1  0
  8 11  1  0
 12 16  1  0
 16 17  2  0
 17 19  1  0
 19 21  2  0
 21 23  1  0
 23 25  2  0
 25 16  1  0
 12 13  1  0
 12 14  1  0
 12 15  1  0
 17 18  1  0
 19 20  1  0
 21 22  1  0
 23 24  1  0
 25 26  1  0
M  CHG  1   8   1
M  END
>  <PDB_ID>  (1771) 
pdb3gdi

>  <RESIDUE_NAME>  (1771) 
LYS   PHE

>  <FRAG_NAME>  (1771) 
ETAM   MBZ

>  <FRAG_ATOM_NUM>  (1771) 
fragi: 11  fragj: 15

>  <atom.prop.CHAIN_ID>  (1771) 
A A A A A A A A A A A Z Z Z Z Z Z Z Z Z Z Z Z Z Z Z

>  <atom.prop.IS_HEAVY_ATOM>  (1771) 
1 0 0 0 1 0 0 1 0 0 0 1 0 0 0 1 1 0 1 0 1 0 1 0 1 0

>  <DIFUSE_FUNC_ATOM>  (1771) 
n/a

>  <FINAL_SINGLE_POINT_ENERGY>  (1771) 
0

>  <NONCOV_INTER_ENERGY_QM>  (1771) 
0

>  <FF_Energy>  (1771) 
-1.17

>  <QM_Energy>  (1771) 
-6.38

>  <source>  (1771) 
ETAM_MBZ

>  <Index>  (1771) 
18036

$$$$
ETAM-pdb3gea-B-LYS-13:MBZ-pdb3gea-B-PHE-58
     RDKit          3D

 26 25  0  0  0  0  0  0  0  0999 V2000
   -3.3420    3.3804   -2.3203 C   0  0  0  0  0  0  0  0  0  0  0  0
   -3.8058    2.7282   -2.9267 H   0  0  0  0  0  0  0  0  0  0  0  0
   -2.3714    3.1301   -2.2558 H   0  0  0  0  0  0  0  0  0  0  0  0
   -3.4201    4.3780   -2.7527 H   0  0  0  0  0  0  0  0  0  0  0  0
   -3.9563    3.2814   -0.9467 C   0  0  0  0  0  0  0  0  0  0  0  0
   -3.4948    3.9244   -0.3318 H   0  0  0  0  0  0  0  0  0  0  0  0
   -4.9277    3.5221   -1.0026 H   0  0  0  0  0  0  0  0  0  0  0  0
   -3.8257    1.9078   -0.4025 N   0  0  0  0  0  4  0  0  0  0  0  0
   -2.9966    1.4821   -0.7660 H   0  0  0  0  0  0  0  0  0  0  0  0
   -3.7682    1.9481    0.5954 H   0  0  0  0  0  0  0  0  0  0  0  0
   -4.6236    1.3657   -0.6681 H   0  0  0  0  0  0  0  0  0  0  0  0
   -0.0102    2.8901   -0.0244 C   0  0  0  0  0  0  0  0  0  0  0  0
   -0.8259    3.1971   -0.5056 H   0  0  0  0  0  0  0  0  0  0  0  0
    0.8067    3.2092   -0.4960 H   0  0  0  0  0  0  0  0  0  0  0  0
   -0.0192    3.3760    0.9513 H   0  0  0  0  0  0  0  0  0  0  0  0
    0.0012    1.4010   -0.0077 C   0  0  0  0  0  0  0  0  0  0  0  0
   -1.1983    0.6916   -0.0084 C   0  0  0  0  0  0  0  0  0  0  0  0
   -2.0644    1.1932   -0.0173 H   0  0  0  0  0  0  0  0  0  0  0  0
   -1.2191   -0.6939    0.0000 C   0  0  0  0  0  0  0  0  0  0  0  0
   -2.0874   -1.1874   -0.0112 H   0  0  0  0  0  0  0  0  0  0  0  0
   -0.0057   -1.3907    0.0256 C   0  0  0  0  0  0  0  0  0  0  0  0
   -0.0110   -2.3907    0.0615 H   0  0  0  0  0  0  0  0  0  0  0  0
    1.2191   -0.7000    0.0000 C   0  0  0  0  0  0  0  0  0  0  0  0
    2.0855   -1.2009   -0.0095 H   0  0  0  0  0  0  0  0  0  0  0  0
    1.2028    0.6921   -0.0095 C   0  0  0  0  0  0  0  0  0  0  0  0
    2.0688    1.1949   -0.0180 H   0  0  0  0  0  0  0  0  0  0  0  0
  1  5  1  0
  5  8  1  0
  1  2  1  0
  1  3  1  0
  1  4  1  0
  5  6  1  0
  5  7  1  0
  8  9  1  0
  8 10  1  0
  8 11  1  0
 12 16  1  0
 16 17  2  0
 17 19  1  0
 19 21  2  0
 21 23  1  0
 23 25  2  0
 25 16  1  0
 12 13  1  0
 12 14  1  0
 12 15  1  0
 17 18  1  0
 19 20  1  0
 21 22  1  0
 23 24  1  0
 25 26  1  0
M  CHG  1   8   1
M  END
>  <PDB_ID>  (1772) 
pdb3gea

>  <RESIDUE_NAME>  (1772) 
LYS   PHE

>  <FRAG_NAME>  (1772) 
ETAM   MBZ

>  <FRAG_ATOM_NUM>  (1772) 
fragi: 11  fragj: 15

>  <atom.prop.CHAIN_ID>  (1772) 
A A A A A A A A A A A Z Z Z Z Z Z Z Z Z Z Z Z Z Z Z

>  <atom.prop.IS_HEAVY_ATOM>  (1772) 
1 0 0 0 1 0 0 1 0 0 0 1 0 0 0 1 1 0 1 0 1 0 1 0 1 0

>  <DIFUSE_FUNC_ATOM>  (1772) 
n/a

>  <FINAL_SINGLE_POINT_ENERGY>  (1772) 
0

>  <NONCOV_INTER_ENERGY_QM>  (1772) 
0

>  <FF_Energy>  (1772) 
33.18

>  <QM_Energy>  (1772) 
8.51

>  <source>  (1772) 
ETAM_MBZ

>  <Index>  (1772) 
18049

$$$$
ETAM-pdb3gek-B-LYS-88:MBZ-pdb3gek-B-PHE-46
     RDKit          3D

 26 25  0  0  0  0  0  0  0  0999 V2000
   -3.8365   -0.0359   -2.4258 C   0  0  0  0  0  0  0  0  0  0  0  0
   -3.2610    0.7111   -2.1065 H   0  0  0  0  0  0  0  0  0  0  0  0
   -3.8016   -0.7952   -1.7838 H   0  0  0  0  0  0  0  0  0  0  0  0
   -4.8647    0.3205   -2.4869 H   0  0  0  0  0  0  0  0  0  0  0  0
   -3.3134   -0.5132   -3.7754 C   0  0  0  0  0  0  0  0  0  0  0  0
   -4.0364   -1.0382   -4.2379 H   0  0  0  0  0  0  0  0  0  0  0  0
   -3.0920    0.2889   -4.3412 H   0  0  0  0  0  0  0  0  0  0  0  0
   -2.0937   -1.3716   -3.6525 N   0  0  0  0  0  4  0  0  0  0  0  0
   -2.3612   -2.3312   -3.7169 H   0  0  0  0  0  0  0  0  0  0  0  0
   -1.4594   -1.1472   -4.3900 H   0  0  0  0  0  0  0  0  0  0  0  0
   -1.6597   -1.1995   -2.7695 H   0  0  0  0  0  0  0  0  0  0  0  0
    0.0066    2.9134    0.0119 C   0  0  0  0  0  0  0  0  0  0  0  0
    0.9360    3.2141    0.1735 H   0  0  0  0  0  0  0  0  0  0  0  0
   -0.5972    3.2145    0.7355 H   0  0  0  0  0  0  0  0  0  0  0  0
   -0.3335    3.3738   -0.9158 H   0  0  0  0  0  0  0  0  0  0  0  0
   -0.0001    1.4072   -0.0049 C   0  0  0  0  0  0  0  0  0  0  0  0
   -1.1998    0.6988    0.0054 C   0  0  0  0  0  0  0  0  0  0  0  0
   -2.0659    1.1860    0.0154 H   0  0  0  0  0  0  0  0  0  0  0  0
   -1.2061   -0.7015    0.0000 C   0  0  0  0  0  0  0  0  0  0  0  0
   -2.0803   -1.1918   -0.0008 H   0  0  0  0  0  0  0  0  0  0  0  0
    0.0019   -1.4020   -0.0023 C   0  0  0  0  0  0  0  0  0  0  0  0
   -0.0025   -2.3975   -0.0058 H   0  0  0  0  0  0  0  0  0  0  0  0
    1.2061   -0.7007   -0.0000 C   0  0  0  0  0  0  0  0  0  0  0  0
    2.0873   -1.1940    0.0018 H   0  0  0  0  0  0  0  0  0  0  0  0
    1.1979    0.6983    0.0019 C   0  0  0  0  0  0  0  0  0  0  0  0
    2.0663    1.1930    0.0070 H   0  0  0  0  0  0  0  0  0  0  0  0
  1  5  1  0
  5  8  1  0
  1  2  1  0
  1  3  1  0
  1  4  1  0
  5  6  1  0
  5  7  1  0
  8  9  1  0
  8 10  1  0
  8 11  1  0
 12 16  1  0
 16 17  2  0
 17 19  1  0
 19 21  2  0
 21 23  1  0
 23 25  2  0
 25 16  1  0
 12 13  1  0
 12 14  1  0
 12 15  1  0
 17 18  1  0
 19 20  1  0
 21 22  1  0
 23 24  1  0
 25 26  1  0
M  CHG  1   8   1
M  END
>  <PDB_ID>  (1773) 
pdb3gek

>  <RESIDUE_NAME>  (1773) 
LYS   PHE

>  <FRAG_NAME>  (1773) 
ETAM   MBZ

>  <FRAG_ATOM_NUM>  (1773) 
fragi: 11  fragj: 15

>  <atom.prop.CHAIN_ID>  (1773) 
A A A A A A A A A A A Z Z Z Z Z Z Z Z Z Z Z Z Z Z Z

>  <atom.prop.IS_HEAVY_ATOM>  (1773) 
1 0 0 0 1 0 0 1 0 0 0 1 0 0 0 1 1 0 1 0 1 0 1 0 1 0

>  <DIFUSE_FUNC_ATOM>  (1773) 
n/a

>  <FINAL_SINGLE_POINT_ENERGY>  (1773) 
0

>  <NONCOV_INTER_ENERGY_QM>  (1773) 
0

>  <FF_Energy>  (1773) 
-4.04

>  <QM_Energy>  (1773) 
-9.05

>  <source>  (1773) 
ETAM_MBZ

>  <Index>  (1773) 
18058

$$$$
ETAM-pdb4co9-B-LYS-67:MBZ-pdb4co9-B-PHE-59
     RDKit          3D

 26 25  0  0  0  0  0  0  0  0999 V2000
    0.8493    1.6540   -3.2987 C   0  0  0  0  0  0  0  0  0  0  0  0
    1.7428    1.5875   -2.8670 H   0  0  0  0  0  0  0  0  0  0  0  0
    0.2140    2.1411   -2.7082 H   0  0  0  0  0  0  0  0  0  0  0  0
    0.9434    2.1828   -4.2472 H   0  0  0  0  0  0  0  0  0  0  0  0
    0.3144    0.2373   -3.5059 C   0  0  0  0  0  0  0  0  0  0  0  0
    0.9021   -0.2325   -4.1714 H   0  0  0  0  0  0  0  0  0  0  0  0
    0.3631   -0.2537   -2.6308 H   0  0  0  0  0  0  0  0  0  0  0  0
   -1.0826    0.2371   -3.9949 N   0  0  0  0  0  4  0  0  0  0  0  0
   -1.6811   -0.1653   -3.3011 H   0  0  0  0  0  0  0  0  0  0  0  0
   -1.3743    1.1769   -4.1795 H   0  0  0  0  0  0  0  0  0  0  0  0
   -1.1434   -0.3004   -4.8372 H   0  0  0  0  0  0  0  0  0  0  0  0
    0.0060    2.8939    0.0092 C   0  0  0  0  0  0  0  0  0  0  0  0
   -0.4378    3.2020   -0.8205 H   0  0  0  0  0  0  0  0  0  0  0  0
    0.9480    3.1972    0.0437 H   0  0  0  0  0  0  0  0  0  0  0  0
   -0.5203    3.3350    0.8557 H   0  0  0  0  0  0  0  0  0  0  0  0
    0.0028    1.3942    0.0059 C   0  0  0  0  0  0  0  0  0  0  0  0
   -1.1954    0.6859   -0.0058 C   0  0  0  0  0  0  0  0  0  0  0  0
   -2.0601    1.1812   -0.0203 H   0  0  0  0  0  0  0  0  0  0  0  0
   -1.1983   -0.6930    0.0000 C   0  0  0  0  0  0  0  0  0  0  0  0
   -2.0761   -1.1916    0.0135 H   0  0  0  0  0  0  0  0  0  0  0  0
   -0.0014   -1.3858   -0.0107 C   0  0  0  0  0  0  0  0  0  0  0  0
   -0.0041   -2.3861   -0.0270 H   0  0  0  0  0  0  0  0  0  0  0  0
    1.1983   -0.6918   -0.0000 C   0  0  0  0  0  0  0  0  0  0  0  0
    2.0791   -1.1931    0.0021 H   0  0  0  0  0  0  0  0  0  0  0  0
    1.1940    0.6905    0.0107 C   0  0  0  0  0  0  0  0  0  0  0  0
    2.0632    1.1889    0.0211 H   0  0  0  0  0  0  0  0  0  0  0  0
  1  5  1  0
  5  8  1  0
  1  2  1  0
  1  3  1  0
  1  4  1  0
  5  6  1  0
  5  7  1  0
  8  9  1  0
  8 10  1  0
  8 11  1  0
 12 16  1  0
 16 17  2  0
 17 19  1  0
 19 21  2  0
 21 23  1  0
 23 25  2  0
 25 16  1  0
 12 13  1  0
 12 14  1  0
 12 15  1  0
 17 18  1  0
 19 20  1  0
 21 22  1  0
 23 24  1  0
 25 26  1  0
M  CHG  1   8   1
M  END
>  <PDB_ID>  (1774) 
pdb4co9

>  <RESIDUE_NAME>  (1774) 
LYS   PHE

>  <FRAG_NAME>  (1774) 
ETAM   MBZ

>  <FRAG_ATOM_NUM>  (1774) 
fragi: 11  fragj: 15

>  <atom.prop.CHAIN_ID>  (1774) 
A A A A A A A A A A A Z Z Z Z Z Z Z Z Z Z Z Z Z Z Z

>  <atom.prop.IS_HEAVY_ATOM>  (1774) 
1 0 0 0 1 0 0 1 0 0 0 1 0 0 0 1 1 0 1 0 1 0 1 0 1 0

>  <DIFUSE_FUNC_ATOM>  (1774) 
n/a

>  <FINAL_SINGLE_POINT_ENERGY>  (1774) 
0

>  <NONCOV_INTER_ENERGY_QM>  (1774) 
0

>  <FF_Energy>  (1774) 
-6.02

>  <QM_Energy>  (1774) 
-11.48

>  <source>  (1774) 
ETAM_MBZ

>  <Index>  (1774) 
18089

$$$$
ETAM-pdb4co9-D-LYS-67:MBZ-pdb4co9-D-PHE-59
     RDKit          3D

 26 25  0  0  0  0  0  0  0  0999 V2000
    0.8539    1.6267   -3.2904 C   0  0  0  0  0  0  0  0  0  0  0  0
    1.7439    1.5557   -2.8498 H   0  0  0  0  0  0  0  0  0  0  0  0
    0.2187    2.1224   -2.7057 H   0  0  0  0  0  0  0  0  0  0  0  0
    0.9609    2.1547   -4.2379 H   0  0  0  0  0  0  0  0  0  0  0  0
    0.3102    0.2167   -3.4987 C   0  0  0  0  0  0  0  0  0  0  0  0
    0.8924   -0.2588   -4.1612 H   0  0  0  0  0  0  0  0  0  0  0  0
    0.3403   -0.2735   -2.6252 H   0  0  0  0  0  0  0  0  0  0  0  0
   -1.0895    0.2390   -4.0014 N   0  0  0  0  0  4  0  0  0  0  0  0
   -1.5653   -0.5857   -3.6965 H   0  0  0  0  0  0  0  0  0  0  0  0
   -1.5581    1.0471   -3.6444 H   0  0  0  0  0  0  0  0  0  0  0  0
   -1.0837    0.2703   -5.0005 H   0  0  0  0  0  0  0  0  0  0  0  0
    0.0011    2.8927    0.0140 C   0  0  0  0  0  0  0  0  0  0  0  0
   -0.4422    3.2033   -0.8175 H   0  0  0  0  0  0  0  0  0  0  0  0
    0.9433    3.2009    0.0476 H   0  0  0  0  0  0  0  0  0  0  0  0
   -0.5250    3.3371    0.8589 H   0  0  0  0  0  0  0  0  0  0  0  0
   -0.0005    1.4003    0.0117 C   0  0  0  0  0  0  0  0  0  0  0  0
   -1.1969    0.6882    0.0088 C   0  0  0  0  0  0  0  0  0  0  0  0
   -2.0623    1.1809    0.0118 H   0  0  0  0  0  0  0  0  0  0  0  0
   -1.1945   -0.6916    0.0000 C   0  0  0  0  0  0  0  0  0  0  0  0
   -2.0690   -1.1946    0.0024 H   0  0  0  0  0  0  0  0  0  0  0  0
    0.0093   -1.3894   -0.0108 C   0  0  0  0  0  0  0  0  0  0  0  0
   -0.0032   -2.3893   -0.0269 H   0  0  0  0  0  0  0  0  0  0  0  0
    1.1945   -0.6990   -0.0000 C   0  0  0  0  0  0  0  0  0  0  0  0
    2.0831   -1.1900    0.0161 H   0  0  0  0  0  0  0  0  0  0  0  0
    1.1881    0.6915   -0.0097 C   0  0  0  0  0  0  0  0  0  0  0  0
    2.0606    1.1860   -0.0330 H   0  0  0  0  0  0  0  0  0  0  0  0
  1  5  1  0
  5  8  1  0
  1  2  1  0
  1  3  1  0
  1  4  1  0
  5  6  1  0
  5  7  1  0
  8  9  1  0
  8 10  1  0
  8 11  1  0
 12 16  1  0
 16 17  2  0
 17 19  1  0
 19 21  2  0
 21 23  1  0
 23 25  2  0
 25 16  1  0
 12 13  1  0
 12 14  1  0
 12 15  1  0
 17 18  1  0
 19 20  1  0
 21 22  1  0
 23 24  1  0
 25 26  1  0
M  CHG  1   8   1
M  END
>  <PDB_ID>  (1775) 
pdb4co9

>  <RESIDUE_NAME>  (1775) 
LYS   PHE

>  <FRAG_NAME>  (1775) 
ETAM   MBZ

>  <FRAG_ATOM_NUM>  (1775) 
fragi: 11  fragj: 15

>  <atom.prop.CHAIN_ID>  (1775) 
A A A A A A A A A A A Z Z Z Z Z Z Z Z Z Z Z Z Z Z Z

>  <atom.prop.IS_HEAVY_ATOM>  (1775) 
1 0 0 0 1 0 0 1 0 0 0 1 0 0 0 1 1 0 1 0 1 0 1 0 1 0

>  <DIFUSE_FUNC_ATOM>  (1775) 
n/a

>  <FINAL_SINGLE_POINT_ENERGY>  (1775) 
0

>  <NONCOV_INTER_ENERGY_QM>  (1775) 
0

>  <FF_Energy>  (1775) 
-5.88

>  <QM_Energy>  (1775) 
-11.09

>  <source>  (1775) 
ETAM_MBZ

>  <Index>  (1775) 
18091

$$$$
ETAM-pdb4cos-A-LYS-294:MBZ-pdb4cos-A-PHE-270
     RDKit          3D

 26 25  0  0  0  0  0  0  0  0999 V2000
   -0.0735   -2.2831    3.8324 C   0  0  0  0  0  0  0  0  0  0  0  0
   -0.8307   -2.4219    3.1952 H   0  0  0  0  0  0  0  0  0  0  0  0
   -0.3960   -2.4057    4.7693 H   0  0  0  0  0  0  0  0  0  0  0  0
    0.7023   -3.0202    3.6252 H   0  0  0  0  0  0  0  0  0  0  0  0
    0.4321   -0.8644    3.6782 C   0  0  0  0  0  0  0  0  0  0  0  0
    1.0237   -0.6411    4.4336 H   0  0  0  0  0  0  0  0  0  0  0  0
    0.8912   -0.7700    2.8117 H   0  0  0  0  0  0  0  0  0  0  0  0
   -0.7606    0.0405    3.7038 N   0  0  0  0  0  4  0  0  0  0  0  0
   -0.6082    0.8007    3.0759 H   0  0  0  0  0  0  0  0  0  0  0  0
   -1.5683   -0.4741    3.4213 H   0  0  0  0  0  0  0  0  0  0  0  0
   -0.8881    0.3880    4.6307 H   0  0  0  0  0  0  0  0  0  0  0  0
    0.0200    2.8967   -0.0148 C   0  0  0  0  0  0  0  0  0  0  0  0
   -0.6168    3.2005   -0.7073 H   0  0  0  0  0  0  0  0  0  0  0  0
    0.9402    3.1993   -0.2147 H   0  0  0  0  0  0  0  0  0  0  0  0
   -0.2775    3.3606    0.9256 H   0  0  0  0  0  0  0  0  0  0  0  0
    0.0100    1.3984    0.0116 C   0  0  0  0  0  0  0  0  0  0  0  0
   -1.1952    0.6920   -0.0316 C   0  0  0  0  0  0  0  0  0  0  0  0
   -2.0546    1.1753   -0.0852 H   0  0  0  0  0  0  0  0  0  0  0  0
   -1.1872   -0.7057   -0.0000 C   0  0  0  0  0  0  0  0  0  0  0  0
   -2.0683   -1.1966    0.0300 H   0  0  0  0  0  0  0  0  0  0  0  0
    0.0033   -1.3860   -0.0087 C   0  0  0  0  0  0  0  0  0  0  0  0
    0.0119   -2.3873   -0.0216 H   0  0  0  0  0  0  0  0  0  0  0  0
    1.1872   -0.6812   -0.0000 C   0  0  0  0  0  0  0  0  0  0  0  0
    2.0772   -1.1857   -0.0139 H   0  0  0  0  0  0  0  0  0  0  0  0
    1.1820    0.6825    0.0287 C   0  0  0  0  0  0  0  0  0  0  0  0
    2.0621    1.1833    0.0629 H   0  0  0  0  0  0  0  0  0  0  0  0
  1  5  1  0
  5  8  1  0
  1  2  1  0
  1  3  1  0
  1  4  1  0
  5  6  1  0
  5  7  1  0
  8  9  1  0
  8 10  1  0
  8 11  1  0
 12 16  1  0
 16 17  2  0
 17 19  1  0
 19 21  2  0
 21 23  1  0
 23 25  2  0
 25 16  1  0
 12 13  1  0
 12 14  1  0
 12 15  1  0
 17 18  1  0
 19 20  1  0
 21 22  1  0
 23 24  1  0
 25 26  1  0
M  CHG  1   8   1
M  END
>  <PDB_ID>  (1776) 
pdb4cos

>  <RESIDUE_NAME>  (1776) 
LYS   PHE

>  <FRAG_NAME>  (1776) 
ETAM   MBZ

>  <FRAG_ATOM_NUM>  (1776) 
fragi: 11  fragj: 15

>  <atom.prop.CHAIN_ID>  (1776) 
A A A A A A A A A A A Z Z Z Z Z Z Z Z Z Z Z Z Z Z Z

>  <atom.prop.IS_HEAVY_ATOM>  (1776) 
1 0 0 0 1 0 0 1 0 0 0 1 0 0 0 1 1 0 1 0 1 0 1 0 1 0

>  <DIFUSE_FUNC_ATOM>  (1776) 
n/a

>  <FINAL_SINGLE_POINT_ENERGY>  (1776) 
0

>  <NONCOV_INTER_ENERGY_QM>  (1776) 
0

>  <FF_Energy>  (1776) 
-7.37

>  <QM_Energy>  (1776) 
-12.69

>  <source>  (1776) 
ETAM_MBZ

>  <Index>  (1776) 
18093

$$$$
ETAM-pdb3gfb-C-LYS-349:MBZ-pdb3gfb-C-PHE-346
     RDKit          3D

 26 25  0  0  0  0  0  0  0  0999 V2000
   -0.3787    3.1039   -4.1136 C   0  0  0  0  0  0  0  0  0  0  0  0
   -0.9006    2.7938   -3.3539 H   0  0  0  0  0  0  0  0  0  0  0  0
   -0.8317    3.0263   -4.9696 H   0  0  0  0  0  0  0  0  0  0  0  0
   -0.0677    4.1359   -3.9515 H   0  0  0  0  0  0  0  0  0  0  0  0
    0.9256    2.2239   -4.1849 C   0  0  0  0  0  0  0  0  0  0  0  0
    1.2732    2.2758   -5.1352 H   0  0  0  0  0  0  0  0  0  0  0  0
    1.6182    2.6601   -3.5864 H   0  0  0  0  0  0  0  0  0  0  0  0
    0.7597    0.7893   -3.7923 N   0  0  0  0  0  4  0  0  0  0  0  0
    1.5555    0.2708   -4.1009 H   0  0  0  0  0  0  0  0  0  0  0  0
    0.6810    0.7282   -2.7991 H   0  0  0  0  0  0  0  0  0  0  0  0
   -0.0662    0.4261   -4.2196 H   0  0  0  0  0  0  0  0  0  0  0  0
   -0.0373    2.9018   -0.0498 C   0  0  0  0  0  0  0  0  0  0  0  0
   -0.8894    3.1951   -0.4686 H   0  0  0  0  0  0  0  0  0  0  0  0
    0.7403    3.2195   -0.5812 H   0  0  0  0  0  0  0  0  0  0  0  0
    0.0240    3.3670    0.9340 H   0  0  0  0  0  0  0  0  0  0  0  0
   -0.0125    1.4392   -0.0069 C   0  0  0  0  0  0  0  0  0  0  0  0
   -1.2309    0.7079   -0.0253 C   0  0  0  0  0  0  0  0  0  0  0  0
   -2.0932    1.1912   -0.0578 H   0  0  0  0  0  0  0  0  0  0  0  0
   -1.2403   -0.7185   -0.0000 C   0  0  0  0  0  0  0  0  0  0  0  0
   -2.0865   -1.2188    0.0036 H   0  0  0  0  0  0  0  0  0  0  0  0
    0.0332   -1.4441    0.0233 C   0  0  0  0  0  0  0  0  0  0  0  0
    0.0047   -2.4282    0.0548 H   0  0  0  0  0  0  0  0  0  0  0  0
    1.2403   -0.7351    0.0000 C   0  0  0  0  0  0  0  0  0  0  0  0
    2.1254   -1.1780   -0.0207 H   0  0  0  0  0  0  0  0  0  0  0  0
    1.2102    0.7507    0.0090 C   0  0  0  0  0  0  0  0  0  0  0  0
    2.0711    1.2211    0.0259 H   0  0  0  0  0  0  0  0  0  0  0  0
  1  5  1  0
  5  8  1  0
  1  2  1  0
  1  3  1  0
  1  4  1  0
  5  6  1  0
  5  7  1  0
  8  9  1  0
  8 10  1  0
  8 11  1  0
 12 16  1  0
 16 17  2  0
 17 19  1  0
 19 21  2  0
 21 23  1  0
 23 25  2  0
 25 16  1  0
 12 13  1  0
 12 14  1  0
 12 15  1  0
 17 18  1  0
 19 20  1  0
 21 22  1  0
 23 24  1  0
 25 26  1  0
M  CHG  1   8   1
M  END
>  <PDB_ID>  (1777) 
pdb3gfb

>  <RESIDUE_NAME>  (1777) 
LYS   PHE

>  <FRAG_NAME>  (1777) 
ETAM   MBZ

>  <FRAG_ATOM_NUM>  (1777) 
fragi: 11  fragj: 15

>  <atom.prop.CHAIN_ID>  (1777) 
A A A A A A A A A A A Z Z Z Z Z Z Z Z Z Z Z Z Z Z Z

>  <atom.prop.IS_HEAVY_ATOM>  (1777) 
1 0 0 0 1 0 0 1 0 0 0 1 0 0 0 1 1 0 1 0 1 0 1 0 1 0

>  <DIFUSE_FUNC_ATOM>  (1777) 
n/a

>  <FINAL_SINGLE_POINT_ENERGY>  (1777) 
0

>  <NONCOV_INTER_ENERGY_QM>  (1777) 
0

>  <FF_Energy>  (1777) 
-6.95

>  <QM_Energy>  (1777) 
-12.39

>  <source>  (1777) 
ETAM_MBZ

>  <Index>  (1777) 
18101

$$$$
ETAM-pdb4co9-A-LYS-93:MBZ-pdb4co9-A-PHE-134
     RDKit          3D

 26 25  0  0  0  0  0  0  0  0999 V2000
   -2.8371    2.3109   -3.3855 C   0  0  0  0  0  0  0  0  0  0  0  0
   -2.5750    2.7611   -2.5352 H   0  0  0  0  0  0  0  0  0  0  0  0
   -3.0061    2.9922   -4.0936 H   0  0  0  0  0  0  0  0  0  0  0  0
   -2.0217    1.6625   -3.7060 H   0  0  0  0  0  0  0  0  0  0  0  0
   -4.1230    1.5352   -3.1453 C   0  0  0  0  0  0  0  0  0  0  0  0
   -4.8168    2.1675   -2.7692 H   0  0  0  0  0  0  0  0  0  0  0  0
   -4.4663    1.1957   -4.0331 H   0  0  0  0  0  0  0  0  0  0  0  0
   -3.9540    0.3910   -2.2190 N   0  0  0  0  0  4  0  0  0  0  0  0
   -4.6948    0.3927   -1.5461 H   0  0  0  0  0  0  0  0  0  0  0  0
   -3.9767   -0.4655   -2.7363 H   0  0  0  0  0  0  0  0  0  0  0  0
   -3.0764    0.4700   -1.7461 H   0  0  0  0  0  0  0  0  0  0  0  0
    0.0007    2.9029   -0.0046 C   0  0  0  0  0  0  0  0  0  0  0  0
   -0.6408    3.2109   -0.6917 H   0  0  0  0  0  0  0  0  0  0  0  0
    0.9187    3.2091   -0.2073 H   0  0  0  0  0  0  0  0  0  0  0  0
   -0.2947    3.3446    0.9471 H   0  0  0  0  0  0  0  0  0  0  0  0
   -0.0001    1.4006   -0.0056 C   0  0  0  0  0  0  0  0  0  0  0  0
   -1.1935    0.6962    0.0011 C   0  0  0  0  0  0  0  0  0  0  0  0
   -2.0623    1.1811    0.0053 H   0  0  0  0  0  0  0  0  0  0  0  0
   -1.1994   -0.7029    0.0000 C   0  0  0  0  0  0  0  0  0  0  0  0
   -2.0787   -1.1899   -0.0046 H   0  0  0  0  0  0  0  0  0  0  0  0
   -0.0032   -1.3915    0.0071 C   0  0  0  0  0  0  0  0  0  0  0  0
   -0.0016   -2.3931    0.0170 H   0  0  0  0  0  0  0  0  0  0  0  0
    1.1994   -0.6963   -0.0000 C   0  0  0  0  0  0  0  0  0  0  0  0
    2.0792   -1.1959   -0.0016 H   0  0  0  0  0  0  0  0  0  0  0  0
    1.1969    0.6939   -0.0026 C   0  0  0  0  0  0  0  0  0  0  0  0
    2.0640    1.1896   -0.0033 H   0  0  0  0  0  0  0  0  0  0  0  0
  1  5  1  0
  5  8  1  0
  1  2  1  0
  1  3  1  0
  1  4  1  0
  5  6  1  0
  5  7  1  0
  8  9  1  0
  8 10  1  0
  8 11  1  0
 12 16  1  0
 16 17  2  0
 17 19  1  0
 19 21  2  0
 21 23  1  0
 23 25  2  0
 25 16  1  0
 12 13  1  0
 12 14  1  0
 12 15  1  0
 17 18  1  0
 19 20  1  0
 21 22  1  0
 23 24  1  0
 25 26  1  0
M  CHG  1   8   1
M  END
>  <PDB_ID>  (1778) 
pdb4co9

>  <RESIDUE_NAME>  (1778) 
LYS   PHE

>  <FRAG_NAME>  (1778) 
ETAM   MBZ

>  <FRAG_ATOM_NUM>  (1778) 
fragi: 11  fragj: 15

>  <atom.prop.CHAIN_ID>  (1778) 
A A A A A A A A A A A Z Z Z Z Z Z Z Z Z Z Z Z Z Z Z

>  <atom.prop.IS_HEAVY_ATOM>  (1778) 
1 0 0 0 1 0 0 1 0 0 0 1 0 0 0 1 1 0 1 0 1 0 1 0 1 0

>  <DIFUSE_FUNC_ATOM>  (1778) 
n/a

>  <FINAL_SINGLE_POINT_ENERGY>  (1778) 
0

>  <NONCOV_INTER_ENERGY_QM>  (1778) 
0

>  <FF_Energy>  (1778) 
-1.77

>  <QM_Energy>  (1778) 
-7.22

>  <source>  (1778) 
ETAM_MBZ

>  <Index>  (1778) 
18108

$$$$
ETAM-pdb4cru-B-LYS-148:MBZ-pdb4cru-B-PHE-184
     RDKit          3D

 26 25  0  0  0  0  0  0  0  0999 V2000
    0.9129   -4.3689   -1.8455 C   0  0  0  0  0  0  0  0  0  0  0  0
    0.3595   -5.1143   -2.1278 H   0  0  0  0  0  0  0  0  0  0  0  0
    0.5450   -3.9594   -1.0468 H   0  0  0  0  0  0  0  0  0  0  0  0
    1.9231   -4.7231   -1.6403 H   0  0  0  0  0  0  0  0  0  0  0  0
    0.9252   -3.3328   -2.9551 C   0  0  0  0  0  0  0  0  0  0  0  0
    0.9011   -3.7837   -3.8133 H   0  0  0  0  0  0  0  0  0  0  0  0
    0.1536   -2.7521   -2.8593 H   0  0  0  0  0  0  0  0  0  0  0  0
    2.1602   -2.4831   -2.9051 N   0  0  0  0  0  4  0  0  0  0  0  0
    2.8840   -2.9927   -2.9959 H   0  0  0  0  0  0  0  0  0  0  0  0
    2.1438   -1.8848   -3.5642 H   0  0  0  0  0  0  0  0  0  0  0  0
    2.2033   -2.0548   -2.1264 H   0  0  0  0  0  0  0  0  0  0  0  0
    0.0031    2.8813   -0.0099 C   0  0  0  0  0  0  0  0  0  0  0  0
   -0.6648    3.1748   -0.6483 H   0  0  0  0  0  0  0  0  0  0  0  0
    0.8817    3.1770   -0.2939 H   0  0  0  0  0  0  0  0  0  0  0  0
   -0.2200    3.3232    0.9611 H   0  0  0  0  0  0  0  0  0  0  0  0
    0.0045    1.3869   -0.0034 C   0  0  0  0  0  0  0  0  0  0  0  0
   -1.1961    0.6934    0.0006 C   0  0  0  0  0  0  0  0  0  0  0  0
   -2.0002    1.1601   -0.0016 H   0  0  0  0  0  0  0  0  0  0  0  0
   -1.2004   -0.6865    0.0000 C   0  0  0  0  0  0  0  0  0  0  0  0
   -2.0070   -1.1492    0.0048 H   0  0  0  0  0  0  0  0  0  0  0  0
   -0.0028   -1.3818    0.0048 C   0  0  0  0  0  0  0  0  0  0  0  0
   -0.0058   -2.3112    0.0058 H   0  0  0  0  0  0  0  0  0  0  0  0
    1.2004   -0.6935    0.0000 C   0  0  0  0  0  0  0  0  0  0  0  0
    2.0060   -1.1580    0.0014 H   0  0  0  0  0  0  0  0  0  0  0  0
    1.1944    0.6815   -0.0019 C   0  0  0  0  0  0  0  0  0  0  0  0
    2.0019    1.1445   -0.0045 H   0  0  0  0  0  0  0  0  0  0  0  0
  1  5  1  0
  5  8  1  0
  1  2  1  0
  1  3  1  0
  1  4  1  0
  5  6  1  0
  5  7  1  0
  8  9  1  0
  8 10  1  0
  8 11  1  0
 12 16  1  0
 16 17  2  0
 17 19  1  0
 19 21  2  0
 21 23  1  0
 23 25  2  0
 25 16  1  0
 12 13  1  0
 12 14  1  0
 12 15  1  0
 17 18  1  0
 19 20  1  0
 21 22  1  0
 23 24  1  0
 25 26  1  0
M  CHG  1   8   1
M  END
>  <PDB_ID>  (1779) 
pdb4cru

>  <RESIDUE_NAME>  (1779) 
LYS   PHE

>  <FRAG_NAME>  (1779) 
ETAM   MBZ

>  <FRAG_ATOM_NUM>  (1779) 
fragi: 11  fragj: 15

>  <atom.prop.CHAIN_ID>  (1779) 
A A A A A A A A A A A Z Z Z Z Z Z Z Z Z Z Z Z Z Z Z

>  <atom.prop.IS_HEAVY_ATOM>  (1779) 
1 0 0 0 1 0 0 1 0 0 0 1 0 0 0 1 1 0 1 0 1 0 1 0 1 0

>  <DIFUSE_FUNC_ATOM>  (1779) 
n/a

>  <FINAL_SINGLE_POINT_ENERGY>  (1779) 
0

>  <NONCOV_INTER_ENERGY_QM>  (1779) 
0

>  <FF_Energy>  (1779) 
-1.84

>  <QM_Energy>  (1779) 
-7.99

>  <source>  (1779) 
ETAM_MBZ

>  <Index>  (1779) 
18143

$$$$
ETAM-pdb3ggy-B-LYS-135:MBZ-pdb3ggy-B-PHE-8
     RDKit          3D

 26 25  0  0  0  0  0  0  0  0999 V2000
    0.2237   -0.3740   -3.6923 C   0  0  0  0  0  0  0  0  0  0  0  0
   -0.3277    0.0918   -4.3753 H   0  0  0  0  0  0  0  0  0  0  0  0
    0.0008   -0.0470   -2.7815 H   0  0  0  0  0  0  0  0  0  0  0  0
    0.0186   -1.4433   -3.7444 H   0  0  0  0  0  0  0  0  0  0  0  0
    1.6952   -0.0734   -3.9686 C   0  0  0  0  0  0  0  0  0  0  0  0
    1.8948   -0.2899   -4.9275 H   0  0  0  0  0  0  0  0  0  0  0  0
    1.8604    0.9037   -3.8138 H   0  0  0  0  0  0  0  0  0  0  0  0
    2.6022   -0.8679   -3.0887 N   0  0  0  0  0  4  0  0  0  0  0  0
    3.4923   -0.4171   -3.0399 H   0  0  0  0  0  0  0  0  0  0  0  0
    2.2044   -0.9276   -2.1743 H   0  0  0  0  0  0  0  0  0  0  0  0
    2.7102   -1.7849   -3.4691 H   0  0  0  0  0  0  0  0  0  0  0  0
    0.0094    2.9020    0.0126 C   0  0  0  0  0  0  0  0  0  0  0  0
   -0.6763    3.2167   -0.6269 H   0  0  0  0  0  0  0  0  0  0  0  0
    0.9131    3.2051   -0.2511 H   0  0  0  0  0  0  0  0  0  0  0  0
   -0.2179    3.3359    0.9863 H   0  0  0  0  0  0  0  0  0  0  0  0
    0.0008    1.4019    0.0032 C   0  0  0  0  0  0  0  0  0  0  0  0
   -1.1987    0.6984    0.0001 C   0  0  0  0  0  0  0  0  0  0  0  0
   -2.0638    1.1860   -0.0037 H   0  0  0  0  0  0  0  0  0  0  0  0
   -1.2042   -0.7003    0.0000 C   0  0  0  0  0  0  0  0  0  0  0  0
   -2.0788   -1.1908    0.0031 H   0  0  0  0  0  0  0  0  0  0  0  0
    0.0013   -1.3945   -0.0026 C   0  0  0  0  0  0  0  0  0  0  0  0
   -0.0021   -2.3939   -0.0066 H   0  0  0  0  0  0  0  0  0  0  0  0
    1.2042   -0.6977   -0.0000 C   0  0  0  0  0  0  0  0  0  0  0  0
    2.0847   -1.1953    0.0035 H   0  0  0  0  0  0  0  0  0  0  0  0
    1.1965    0.6921   -0.0007 C   0  0  0  0  0  0  0  0  0  0  0  0
    2.0650    1.1901   -0.0047 H   0  0  0  0  0  0  0  0  0  0  0  0
  1  5  1  0
  5  8  1  0
  1  2  1  0
  1  3  1  0
  1  4  1  0
  5  6  1  0
  5  7  1  0
  8  9  1  0
  8 10  1  0
  8 11  1  0
 12 16  1  0
 16 17  2  0
 17 19  1  0
 19 21  2  0
 21 23  1  0
 23 25  2  0
 25 16  1  0
 12 13  1  0
 12 14  1  0
 12 15  1  0
 17 18  1  0
 19 20  1  0
 21 22  1  0
 23 24  1  0
 25 26  1  0
M  CHG  1   8   1
M  END
>  <PDB_ID>  (1780) 
pdb3ggy

>  <RESIDUE_NAME>  (1780) 
LYS   PHE

>  <FRAG_NAME>  (1780) 
ETAM   MBZ

>  <FRAG_ATOM_NUM>  (1780) 
fragi: 11  fragj: 15

>  <atom.prop.CHAIN_ID>  (1780) 
A A A A A A A A A A A Z Z Z Z Z Z Z Z Z Z Z Z Z Z Z

>  <atom.prop.IS_HEAVY_ATOM>  (1780) 
1 0 0 0 1 0 0 1 0 0 0 1 0 0 0 1 1 0 1 0 1 0 1 0 1 0

>  <DIFUSE_FUNC_ATOM>  (1780) 
n/a

>  <FINAL_SINGLE_POINT_ENERGY>  (1780) 
0

>  <NONCOV_INTER_ENERGY_QM>  (1780) 
0

>  <FF_Energy>  (1780) 
-4.92

>  <QM_Energy>  (1780) 
-12.28

>  <source>  (1780) 
ETAM_MBZ

>  <Index>  (1780) 
18149

$$$$
ETAM-pdb4cu7-A-LYS-216:MBZ-pdb4cu7-A-PHE-154
     RDKit          3D

 26 25  0  0  0  0  0  0  0  0999 V2000
    1.2096   -1.3400    3.7407 C   0  0  0  0  0  0  0  0  0  0  0  0
    1.5154   -0.7458    4.4698 H   0  0  0  0  0  0  0  0  0  0  0  0
    1.6190   -1.0912    2.8767 H   0  0  0  0  0  0  0  0  0  0  0  0
    1.4767   -2.3689    3.9817 H   0  0  0  0  0  0  0  0  0  0  0  0
   -0.3005   -1.2161    3.6150 C   0  0  0  0  0  0  0  0  0  0  0  0
   -0.6008   -1.7181    2.8004 H   0  0  0  0  0  0  0  0  0  0  0  0
   -0.7289   -1.6247    4.4248 H   0  0  0  0  0  0  0  0  0  0  0  0
   -0.7254    0.2032    3.5005 N   0  0  0  0  0  4  0  0  0  0  0  0
   -0.7730    0.4594    2.5354 H   0  0  0  0  0  0  0  0  0  0  0  0
   -1.6260    0.3159    3.9204 H   0  0  0  0  0  0  0  0  0  0  0  0
   -0.0629    0.7873    3.9698 H   0  0  0  0  0  0  0  0  0  0  0  0
   -0.0070    2.9048   -0.0109 C   0  0  0  0  0  0  0  0  0  0  0  0
   -0.4744    3.2020   -0.8290 H   0  0  0  0  0  0  0  0  0  0  0  0
    0.9314    3.2178    0.0017 H   0  0  0  0  0  0  0  0  0  0  0  0
   -0.5156    3.3558    0.8412 H   0  0  0  0  0  0  0  0  0  0  0  0
   -0.0010    1.4028    0.0059 C   0  0  0  0  0  0  0  0  0  0  0  0
   -1.1992    0.6938    0.0057 C   0  0  0  0  0  0  0  0  0  0  0  0
   -2.0657    1.1776    0.0085 H   0  0  0  0  0  0  0  0  0  0  0  0
   -1.1994   -0.7075   -0.0000 C   0  0  0  0  0  0  0  0  0  0  0  0
   -2.0744   -1.1995    0.0064 H   0  0  0  0  0  0  0  0  0  0  0  0
    0.0057   -1.3968   -0.0126 C   0  0  0  0  0  0  0  0  0  0  0  0
    0.0089   -2.3937   -0.0312 H   0  0  0  0  0  0  0  0  0  0  0  0
    1.1994   -0.6902    0.0000 C   0  0  0  0  0  0  0  0  0  0  0  0
    2.0860   -1.1865    0.0097 H   0  0  0  0  0  0  0  0  0  0  0  0
    1.1945    0.6979    0.0009 C   0  0  0  0  0  0  0  0  0  0  0  0
    2.0619    1.1954   -0.0027 H   0  0  0  0  0  0  0  0  0  0  0  0
  1  5  1  0
  5  8  1  0
  1  2  1  0
  1  3  1  0
  1  4  1  0
  5  6  1  0
  5  7  1  0
  8  9  1  0
  8 10  1  0
  8 11  1  0
 12 16  1  0
 16 17  2  0
 17 19  1  0
 19 21  2  0
 21 23  1  0
 23 25  2  0
 25 16  1  0
 12 13  1  0
 12 14  1  0
 12 15  1  0
 17 18  1  0
 19 20  1  0
 21 22  1  0
 23 24  1  0
 25 26  1  0
M  CHG  1   8   1
M  END
>  <PDB_ID>  (1781) 
pdb4cu7

>  <RESIDUE_NAME>  (1781) 
LYS   PHE

>  <FRAG_NAME>  (1781) 
ETAM   MBZ

>  <FRAG_ATOM_NUM>  (1781) 
fragi: 11  fragj: 15

>  <atom.prop.CHAIN_ID>  (1781) 
A A A A A A A A A A A Z Z Z Z Z Z Z Z Z Z Z Z Z Z Z

>  <atom.prop.IS_HEAVY_ATOM>  (1781) 
1 0 0 0 1 0 0 1 0 0 0 1 0 0 0 1 1 0 1 0 1 0 1 0 1 0

>  <DIFUSE_FUNC_ATOM>  (1781) 
n/a

>  <FINAL_SINGLE_POINT_ENERGY>  (1781) 
0

>  <NONCOV_INTER_ENERGY_QM>  (1781) 
0

>  <FF_Energy>  (1781) 
-8.55

>  <QM_Energy>  (1781) 
-15.62

>  <source>  (1781) 
ETAM_MBZ

>  <Index>  (1781) 
18164

$$$$
ETAM-pdb4cv2-B-LYS-17:MBZ-pdb4cv2-B-PHE-51
     RDKit          3D

 26 25  0  0  0  0  0  0  0  0999 V2000
   -4.2885   -3.4899    2.1590 C   0  0  0  0  0  0  0  0  0  0  0  0
   -4.2364   -4.1849    1.4595 H   0  0  0  0  0  0  0  0  0  0  0  0
   -4.7404   -3.8235    2.9713 H   0  0  0  0  0  0  0  0  0  0  0  0
   -3.2781   -3.1745    2.4196 H   0  0  0  0  0  0  0  0  0  0  0  0
   -5.0752   -2.3049    1.6130 C   0  0  0  0  0  0  0  0  0  0  0  0
   -5.9986   -2.6036    1.3754 H   0  0  0  0  0  0  0  0  0  0  0  0
   -5.1233   -1.5912    2.3102 H   0  0  0  0  0  0  0  0  0  0  0  0
   -4.4196   -1.7297    0.3776 N   0  0  0  0  0  4  0  0  0  0  0  0
   -3.6058   -2.2643    0.1690 H   0  0  0  0  0  0  0  0  0  0  0  0
   -5.0660   -1.7777   -0.3784 H   0  0  0  0  0  0  0  0  0  0  0  0
   -4.1713   -0.7826    0.5588 H   0  0  0  0  0  0  0  0  0  0  0  0
    0.0224    2.9008    0.0001 C   0  0  0  0  0  0  0  0  0  0  0  0
    0.9239    3.1989   -0.2866 H   0  0  0  0  0  0  0  0  0  0  0  0
   -0.1715    3.2044    0.9250 H   0  0  0  0  0  0  0  0  0  0  0  0
   -0.7066    3.3690   -0.6613 H   0  0  0  0  0  0  0  0  0  0  0  0
    0.0030    1.4006   -0.0102 C   0  0  0  0  0  0  0  0  0  0  0  0
   -1.1931    0.6999    0.0084 C   0  0  0  0  0  0  0  0  0  0  0  0
   -2.0577    1.1915    0.0269 H   0  0  0  0  0  0  0  0  0  0  0  0
   -1.1983   -0.6878    0.0000 C   0  0  0  0  0  0  0  0  0  0  0  0
   -2.0806   -1.1804    0.0013 H   0  0  0  0  0  0  0  0  0  0  0  0
   -0.0044   -1.3930   -0.0085 C   0  0  0  0  0  0  0  0  0  0  0  0
   -0.0169   -2.3918   -0.0216 H   0  0  0  0  0  0  0  0  0  0  0  0
    1.1983   -0.7063    0.0000 C   0  0  0  0  0  0  0  0  0  0  0  0
    2.0770   -1.2043    0.0003 H   0  0  0  0  0  0  0  0  0  0  0  0
    1.1945    0.6866    0.0103 C   0  0  0  0  0  0  0  0  0  0  0  0
    2.0658    1.1798    0.0319 H   0  0  0  0  0  0  0  0  0  0  0  0
  1  5  1  0
  5  8  1  0
  1  2  1  0
  1  3  1  0
  1  4  1  0
  5  6  1  0
  5  7  1  0
  8  9  1  0
  8 10  1  0
  8 11  1  0
 12 16  1  0
 16 17  2  0
 17 19  1  0
 19 21  2  0
 21 23  1  0
 23 25  2  0
 25 16  1  0
 12 13  1  0
 12 14  1  0
 12 15  1  0
 17 18  1  0
 19 20  1  0
 21 22  1  0
 23 24  1  0
 25 26  1  0
M  CHG  1   8   1
M  END
>  <PDB_ID>  (1782) 
pdb4cv2

>  <RESIDUE_NAME>  (1782) 
LYS   PHE

>  <FRAG_NAME>  (1782) 
ETAM   MBZ

>  <FRAG_ATOM_NUM>  (1782) 
fragi: 11  fragj: 15

>  <atom.prop.CHAIN_ID>  (1782) 
A A A A A A A A A A A Z Z Z Z Z Z Z Z Z Z Z Z Z Z Z

>  <atom.prop.IS_HEAVY_ATOM>  (1782) 
1 0 0 0 1 0 0 1 0 0 0 1 0 0 0 1 1 0 1 0 1 0 1 0 1 0

>  <DIFUSE_FUNC_ATOM>  (1782) 
n/a

>  <FINAL_SINGLE_POINT_ENERGY>  (1782) 
0

>  <NONCOV_INTER_ENERGY_QM>  (1782) 
0

>  <FF_Energy>  (1782) 
3.05

>  <QM_Energy>  (1782) 
-2.04

>  <source>  (1782) 
ETAM_MBZ

>  <Index>  (1782) 
18176

$$$$
ETAM-pdb3giu-A-LYS-45:MBZ-pdb3giu-A-PHE-95
     RDKit          3D

 26 25  0  0  0  0  0  0  0  0999 V2000
    1.5545    0.1738   -4.4347 C   0  0  0  0  0  0  0  0  0  0  0  0
    1.4781    1.1661   -4.5462 H   0  0  0  0  0  0  0  0  0  0  0  0
    1.6903   -0.2491   -5.3330 H   0  0  0  0  0  0  0  0  0  0  0  0
    2.4204   -0.0431   -3.8091 H   0  0  0  0  0  0  0  0  0  0  0  0
    0.2599   -0.3468   -3.8487 C   0  0  0  0  0  0  0  0  0  0  0  0
    0.0975    0.1144   -2.9627 H   0  0  0  0  0  0  0  0  0  0  0  0
   -0.5004   -0.0951   -4.4678 H   0  0  0  0  0  0  0  0  0  0  0  0
    0.2621   -1.8037   -3.6475 N   0  0  0  0  0  4  0  0  0  0  0  0
    0.5593   -2.2625   -4.4874 H   0  0  0  0  0  0  0  0  0  0  0  0
    0.8891   -2.0434   -2.9028 H   0  0  0  0  0  0  0  0  0  0  0  0
   -0.6613   -2.1165   -3.4121 H   0  0  0  0  0  0  0  0  0  0  0  0
    0.0485    2.8931   -0.0297 C   0  0  0  0  0  0  0  0  0  0  0  0
   -0.2431    3.1875   -0.9329 H   0  0  0  0  0  0  0  0  0  0  0  0
    0.9862    3.1750    0.1413 H   0  0  0  0  0  0  0  0  0  0  0  0
   -0.5878    3.3875    0.7043 H   0  0  0  0  0  0  0  0  0  0  0  0
    0.0071    1.3895    0.0010 C   0  0  0  0  0  0  0  0  0  0  0  0
   -1.1861    0.6909   -0.0024 C   0  0  0  0  0  0  0  0  0  0  0  0
   -2.0522    1.1776   -0.0079 H   0  0  0  0  0  0  0  0  0  0  0  0
   -1.1826   -0.6962    0.0000 C   0  0  0  0  0  0  0  0  0  0  0  0
   -2.0695   -1.1867   -0.0006 H   0  0  0  0  0  0  0  0  0  0  0  0
   -0.0048   -1.3752    0.0050 C   0  0  0  0  0  0  0  0  0  0  0  0
   -0.0006   -2.3818    0.0123 H   0  0  0  0  0  0  0  0  0  0  0  0
    1.1826   -0.6857   -0.0000 C   0  0  0  0  0  0  0  0  0  0  0  0
    2.0678   -1.1945    0.0004 H   0  0  0  0  0  0  0  0  0  0  0  0
    1.1837    0.6767   -0.0035 C   0  0  0  0  0  0  0  0  0  0  0  0
    2.0609    1.1767   -0.0100 H   0  0  0  0  0  0  0  0  0  0  0  0
  1  5  1  0
  5  8  1  0
  1  2  1  0
  1  3  1  0
  1  4  1  0
  5  6  1  0
  5  7  1  0
  8  9  1  0
  8 10  1  0
  8 11  1  0
 12 16  1  0
 16 17  2  0
 17 19  1  0
 19 21  2  0
 21 23  1  0
 23 25  2  0
 25 16  1  0
 12 13  1  0
 12 14  1  0
 12 15  1  0
 17 18  1  0
 19 20  1  0
 21 22  1  0
 23 24  1  0
 25 26  1  0
M  CHG  1   8   1
M  END
>  <PDB_ID>  (1783) 
pdb3giu

>  <RESIDUE_NAME>  (1783) 
LYS   PHE

>  <FRAG_NAME>  (1783) 
ETAM   MBZ

>  <FRAG_ATOM_NUM>  (1783) 
fragi: 11  fragj: 15

>  <atom.prop.CHAIN_ID>  (1783) 
A A A A A A A A A A A Z Z Z Z Z Z Z Z Z Z Z Z Z Z Z

>  <atom.prop.IS_HEAVY_ATOM>  (1783) 
1 0 0 0 1 0 0 1 0 0 0 1 0 0 0 1 1 0 1 0 1 0 1 0 1 0

>  <DIFUSE_FUNC_ATOM>  (1783) 
n/a

>  <FINAL_SINGLE_POINT_ENERGY>  (1783) 
0

>  <NONCOV_INTER_ENERGY_QM>  (1783) 
0

>  <FF_Energy>  (1783) 
-5.71

>  <QM_Energy>  (1783) 
-11.05

>  <source>  (1783) 
ETAM_MBZ

>  <Index>  (1783) 
18178

$$$$
ETAM-pdb4cuo-A-LYS-65:MBZ-pdb4cuo-A-PHE-77
     RDKit          3D

 26 25  0  0  0  0  0  0  0  0999 V2000
    0.8843   -0.8429    4.0020 C   0  0  0  0  0  0  0  0  0  0  0  0
    0.9777   -0.6840    4.9696 H   0  0  0  0  0  0  0  0  0  0  0  0
    1.6802   -0.5458    3.5020 H   0  0  0  0  0  0  0  0  0  0  0  0
    0.7207   -1.9058    3.8244 H   0  0  0  0  0  0  0  0  0  0  0  0
   -0.3290   -0.0405    3.4968 C   0  0  0  0  0  0  0  0  0  0  0  0
   -0.4741   -0.2471    2.5379 H   0  0  0  0  0  0  0  0  0  0  0  0
   -1.1242   -0.2884    4.0345 H   0  0  0  0  0  0  0  0  0  0  0  0
   -0.0684    1.4367    3.6502 N   0  0  0  0  0  4  0  0  0  0  0  0
   -0.8931    1.8746    3.9968 H   0  0  0  0  0  0  0  0  0  0  0  0
    0.6825    1.5661    4.2916 H   0  0  0  0  0  0  0  0  0  0  0  0
    0.1721    1.8156    2.7606 H   0  0  0  0  0  0  0  0  0  0  0  0
   -0.0736    2.9394    0.0108 C   0  0  0  0  0  0  0  0  0  0  0  0
    0.8457    3.2722    0.0864 H   0  0  0  0  0  0  0  0  0  0  0  0
   -0.6408    3.2177    0.7599 H   0  0  0  0  0  0  0  0  0  0  0  0
   -0.5055    3.3313   -0.9100 H   0  0  0  0  0  0  0  0  0  0  0  0
   -0.0135    1.4149    0.0214 C   0  0  0  0  0  0  0  0  0  0  0  0
   -1.2124    0.6736   -0.0010 C   0  0  0  0  0  0  0  0  0  0  0  0
   -2.0827    1.1712   -0.0197 H   0  0  0  0  0  0  0  0  0  0  0  0
   -1.2191   -0.7061   -0.0000 C   0  0  0  0  0  0  0  0  0  0  0  0
   -2.0786   -1.2159    0.0116 H   0  0  0  0  0  0  0  0  0  0  0  0
    0.0138   -1.4107   -0.0139 C   0  0  0  0  0  0  0  0  0  0  0  0
    0.0058   -2.4025   -0.0340 H   0  0  0  0  0  0  0  0  0  0  0  0
    1.2191   -0.7030    0.0000 C   0  0  0  0  0  0  0  0  0  0  0  0
    2.1035   -1.1800    0.0163 H   0  0  0  0  0  0  0  0  0  0  0  0
    1.2122    0.7312   -0.0066 C   0  0  0  0  0  0  0  0  0  0  0  0
    2.0641    1.2168   -0.0311 H   0  0  0  0  0  0  0  0  0  0  0  0
  1  5  1  0
  5  8  1  0
  1  2  1  0
  1  3  1  0
  1  4  1  0
  5  6  1  0
  5  7  1  0
  8  9  1  0
  8 10  1  0
  8 11  1  0
 12 16  1  0
 16 17  2  0
 17 19  1  0
 19 21  2  0
 21 23  1  0
 23 25  2  0
 25 16  1  0
 12 13  1  0
 12 14  1  0
 12 15  1  0
 17 18  1  0
 19 20  1  0
 21 22  1  0
 23 24  1  0
 25 26  1  0
M  CHG  1   8   1
M  END
>  <PDB_ID>  (1784) 
pdb4cuo

>  <RESIDUE_NAME>  (1784) 
LYS   PHE

>  <FRAG_NAME>  (1784) 
ETAM   MBZ

>  <FRAG_ATOM_NUM>  (1784) 
fragi: 11  fragj: 15

>  <atom.prop.CHAIN_ID>  (1784) 
A A A A A A A A A A A Z Z Z Z Z Z Z Z Z Z Z Z Z Z Z

>  <atom.prop.IS_HEAVY_ATOM>  (1784) 
1 0 0 0 1 0 0 1 0 0 0 1 0 0 0 1 1 0 1 0 1 0 1 0 1 0

>  <DIFUSE_FUNC_ATOM>  (1784) 
n/a

>  <FINAL_SINGLE_POINT_ENERGY>  (1784) 
0

>  <NONCOV_INTER_ENERGY_QM>  (1784) 
0

>  <FF_Energy>  (1784) 
-7.27

>  <QM_Energy>  (1784) 
-13.07

>  <source>  (1784) 
ETAM_MBZ

>  <Index>  (1784) 
18184

$$$$
ETAM-pdb4co6-F-LYS-3:MBZ-pdb4co6-B-PHE-268
     RDKit          3D

 26 25  0  0  0  0  0  0  0  0999 V2000
    0.5771   -1.4491    3.6877 C   0  0  0  0  0  0  0  0  0  0  0  0
    0.7582   -2.0047    4.4849 H   0  0  0  0  0  0  0  0  0  0  0  0
    0.7922   -1.9334    2.8535 H   0  0  0  0  0  0  0  0  0  0  0  0
   -0.4760   -1.1679    3.6785 H   0  0  0  0  0  0  0  0  0  0  0  0
    1.4414   -0.2005    3.7606 C   0  0  0  0  0  0  0  0  0  0  0  0
    0.9898    0.5377    3.2578 H   0  0  0  0  0  0  0  0  0  0  0  0
    1.5442    0.0687    4.7193 H   0  0  0  0  0  0  0  0  0  0  0  0
    2.7869   -0.4423    3.1725 N   0  0  0  0  0  4  0  0  0  0  0  0
    3.2245   -1.2043    3.6485 H   0  0  0  0  0  0  0  0  0  0  0  0
    2.6901   -0.6639    2.2025 H   0  0  0  0  0  0  0  0  0  0  0  0
    3.3457    0.3801    3.2731 H   0  0  0  0  0  0  0  0  0  0  0  0
   -0.0063    2.8716   -0.0024 C   0  0  0  0  0  0  0  0  0  0  0  0
    0.9025    3.1949    0.2070 H   0  0  0  0  0  0  0  0  0  0  0  0
   -0.6661    3.1876    0.6599 H   0  0  0  0  0  0  0  0  0  0  0  0
   -0.2891    3.2761   -0.9743 H   0  0  0  0  0  0  0  0  0  0  0  0
    0.0039    1.3956    0.0105 C   0  0  0  0  0  0  0  0  0  0  0  0
   -1.1922    0.6912   -0.0080 C   0  0  0  0  0  0  0  0  0  0  0  0
   -2.0592    1.1826   -0.0288 H   0  0  0  0  0  0  0  0  0  0  0  0
   -1.2016   -0.7002    0.0000 C   0  0  0  0  0  0  0  0  0  0  0  0
   -2.0815   -1.1878    0.0054 H   0  0  0  0  0  0  0  0  0  0  0  0
   -0.0095   -1.3917    0.0018 C   0  0  0  0  0  0  0  0  0  0  0  0
   -0.0050   -2.3908    0.0041 H   0  0  0  0  0  0  0  0  0  0  0  0
    1.2016   -0.6924   -0.0000 C   0  0  0  0  0  0  0  0  0  0  0  0
    2.0782   -1.1948    0.0031 H   0  0  0  0  0  0  0  0  0  0  0  0
    1.1979    0.6975   -0.0043 C   0  0  0  0  0  0  0  0  0  0  0  0
    2.0657    1.1926   -0.0187 H   0  0  0  0  0  0  0  0  0  0  0  0
  1  5  1  0
  5  8  1  0
  1  2  1  0
  1  3  1  0
  1  4  1  0
  5  6  1  0
  5  7  1  0
  8  9  1  0
  8 10  1  0
  8 11  1  0
 12 16  1  0
 16 17  2  0
 17 19  1  0
 19 21  2  0
 21 23  1  0
 23 25  2  0
 25 16  1  0
 12 13  1  0
 12 14  1  0
 12 15  1  0
 17 18  1  0
 19 20  1  0
 21 22  1  0
 23 24  1  0
 25 26  1  0
M  CHG  1   8   1
M  END
>  <PDB_ID>  (1785) 
pdb4co6

>  <RESIDUE_NAME>  (1785) 
LYS   PHE

>  <FRAG_NAME>  (1785) 
ETAM   MBZ

>  <FRAG_ATOM_NUM>  (1785) 
fragi: 11  fragj: 15

>  <atom.prop.CHAIN_ID>  (1785) 
A A A A A A A A A A A Z Z Z Z Z Z Z Z Z Z Z Z Z Z Z

>  <atom.prop.IS_HEAVY_ATOM>  (1785) 
1 0 0 0 1 0 0 1 0 0 0 1 0 0 0 1 1 0 1 0 1 0 1 0 1 0

>  <DIFUSE_FUNC_ATOM>  (1785) 
n/a

>  <FINAL_SINGLE_POINT_ENERGY>  (1785) 
0

>  <NONCOV_INTER_ENERGY_QM>  (1785) 
0

>  <FF_Energy>  (1785) 
-4.64

>  <QM_Energy>  (1785) 
-10.64

>  <source>  (1785) 
ETAM_MBZ

>  <Index>  (1785) 
18194

$$$$
ETAM-pdb3gk3-D-LYS-122:MBZ-pdb3gk3-D-PHE-118
     RDKit          3D

 26 25  0  0  0  0  0  0  0  0999 V2000
   -0.4278   -0.9613    3.3294 C   0  0  0  0  0  0  0  0  0  0  0  0
   -0.7891   -0.1387    3.7612 H   0  0  0  0  0  0  0  0  0  0  0  0
   -0.2052   -0.7758    2.3763 H   0  0  0  0  0  0  0  0  0  0  0  0
    0.4676   -1.2884    3.8578 H   0  0  0  0  0  0  0  0  0  0  0  0
   -1.4864   -2.0272    3.3734 C   0  0  0  0  0  0  0  0  0  0  0  0
   -2.1172   -1.8442    4.1540 H   0  0  0  0  0  0  0  0  0  0  0  0
   -2.0550   -1.9746    2.5280 H   0  0  0  0  0  0  0  0  0  0  0  0
   -0.9841   -3.4474    3.5056 N   0  0  0  0  0  4  0  0  0  0  0  0
   -1.7233   -4.0717    3.2694 H   0  0  0  0  0  0  0  0  0  0  0  0
   -0.2161   -3.5732    2.8849 H   0  0  0  0  0  0  0  0  0  0  0  0
   -0.6948   -3.5976    4.4465 H   0  0  0  0  0  0  0  0  0  0  0  0
    0.0134    2.8781   -0.0627 C   0  0  0  0  0  0  0  0  0  0  0  0
   -0.7694    3.1666   -0.6032 H   0  0  0  0  0  0  0  0  0  0  0  0
    0.8612    3.1591   -0.5002 H   0  0  0  0  0  0  0  0  0  0  0  0
   -0.0456    3.3670    0.9097 H   0  0  0  0  0  0  0  0  0  0  0  0
    0.0020    1.3907    0.0016 C   0  0  0  0  0  0  0  0  0  0  0  0
   -1.2004    0.6898   -0.0130 C   0  0  0  0  0  0  0  0  0  0  0  0
   -2.0616    1.1827   -0.0339 H   0  0  0  0  0  0  0  0  0  0  0  0
   -1.1993   -0.6941    0.0000 C   0  0  0  0  0  0  0  0  0  0  0  0
   -2.0776   -1.1893    0.0120 H   0  0  0  0  0  0  0  0  0  0  0  0
   -0.0080   -1.3715   -0.0021 C   0  0  0  0  0  0  0  0  0  0  0  0
   -0.0027   -2.3791   -0.0059 H   0  0  0  0  0  0  0  0  0  0  0  0
    1.1993   -0.6837   -0.0000 C   0  0  0  0  0  0  0  0  0  0  0  0
    2.0730   -1.2080   -0.0071 H   0  0  0  0  0  0  0  0  0  0  0  0
    1.2064    0.6688    0.0135 C   0  0  0  0  0  0  0  0  0  0  0  0
    2.0685    1.1818    0.0318 H   0  0  0  0  0  0  0  0  0  0  0  0
  1  5  1  0
  5  8  1  0
  1  2  1  0
  1  3  1  0
  1  4  1  0
  5  6  1  0
  5  7  1  0
  8  9  1  0
  8 10  1  0
  8 11  1  0
 12 16  1  0
 16 17  2  0
 17 19  1  0
 19 21  2  0
 21 23  1  0
 23 25  2  0
 25 16  1  0
 12 13  1  0
 12 14  1  0
 12 15  1  0
 17 18  1  0
 19 20  1  0
 21 22  1  0
 23 24  1  0
 25 26  1  0
M  CHG  1   8   1
M  END
>  <PDB_ID>  (1786) 
pdb3gk3

>  <RESIDUE_NAME>  (1786) 
LYS   PHE

>  <FRAG_NAME>  (1786) 
ETAM   MBZ

>  <FRAG_ATOM_NUM>  (1786) 
fragi: 11  fragj: 15

>  <atom.prop.CHAIN_ID>  (1786) 
A A A A A A A A A A A Z Z Z Z Z Z Z Z Z Z Z Z Z Z Z

>  <atom.prop.IS_HEAVY_ATOM>  (1786) 
1 0 0 0 1 0 0 1 0 0 0 1 0 0 0 1 1 0 1 0 1 0 1 0 1 0

>  <DIFUSE_FUNC_ATOM>  (1786) 
n/a

>  <FINAL_SINGLE_POINT_ENERGY>  (1786) 
0

>  <NONCOV_INTER_ENERGY_QM>  (1786) 
0

>  <FF_Energy>  (1786) 
-1.17

>  <QM_Energy>  (1786) 
-7.2

>  <source>  (1786) 
ETAM_MBZ

>  <Index>  (1786) 
18213

$$$$
ETAM-pdb3gjx-A-LYS-195:MBZ-pdb3gjx-A-PHE-179
     RDKit          3D

 26 25  0  0  0  0  0  0  0  0999 V2000
   -3.0356   -3.1727   -1.5741 C   0  0  0  0  0  0  0  0  0  0  0  0
   -3.6083   -3.7832   -2.1105 H   0  0  0  0  0  0  0  0  0  0  0  0
   -2.2469   -3.6618   -1.2170 H   0  0  0  0  0  0  0  0  0  0  0  0
   -2.6870   -2.3642   -2.2167 H   0  0  0  0  0  0  0  0  0  0  0  0
   -3.8568   -2.6507   -0.3929 C   0  0  0  0  0  0  0  0  0  0  0  0
   -3.3963   -1.8416   -0.0142 H   0  0  0  0  0  0  0  0  0  0  0  0
   -4.7641   -2.3768   -0.7279 H   0  0  0  0  0  0  0  0  0  0  0  0
   -4.0205   -3.6707    0.6839 N   0  0  0  0  0  4  0  0  0  0  0  0
   -4.8772   -4.1639    0.5430 H   0  0  0  0  0  0  0  0  0  0  0  0
   -3.2547   -4.3106    0.6508 H   0  0  0  0  0  0  0  0  0  0  0  0
   -4.0377   -3.2127    1.5717 H   0  0  0  0  0  0  0  0  0  0  0  0
   -0.0011    2.9085   -0.0089 C   0  0  0  0  0  0  0  0  0  0  0  0
    0.7892    3.2178    0.4942 H   0  0  0  0  0  0  0  0  0  0  0  0
   -0.8412    3.2155    0.4077 H   0  0  0  0  0  0  0  0  0  0  0  0
    0.0515    3.3331   -1.0114 H   0  0  0  0  0  0  0  0  0  0  0  0
   -0.0003    1.4009    0.0051 C   0  0  0  0  0  0  0  0  0  0  0  0
   -1.1920    0.6911   -0.0021 C   0  0  0  0  0  0  0  0  0  0  0  0
   -2.0611    1.1802   -0.0105 H   0  0  0  0  0  0  0  0  0  0  0  0
   -1.1936   -0.6961   -0.0000 C   0  0  0  0  0  0  0  0  0  0  0  0
   -2.0715   -1.1920    0.0046 H   0  0  0  0  0  0  0  0  0  0  0  0
    0.0044   -1.3923   -0.0022 C   0  0  0  0  0  0  0  0  0  0  0  0
   -0.0032   -2.3925   -0.0058 H   0  0  0  0  0  0  0  0  0  0  0  0
    1.1936   -0.6991    0.0000 C   0  0  0  0  0  0  0  0  0  0  0  0
    2.0807   -1.1897    0.0037 H   0  0  0  0  0  0  0  0  0  0  0  0
    1.1879    0.6955   -0.0008 C   0  0  0  0  0  0  0  0  0  0  0  0
    2.0607    1.1874   -0.0070 H   0  0  0  0  0  0  0  0  0  0  0  0
  1  5  1  0
  5  8  1  0
  1  2  1  0
  1  3  1  0
  1  4  1  0
  5  6  1  0
  5  7  1  0
  8  9  1  0
  8 10  1  0
  8 11  1  0
 12 16  1  0
 16 17  2  0
 17 19  1  0
 19 21  2  0
 21 23  1  0
 23 25  2  0
 25 16  1  0
 12 13  1  0
 12 14  1  0
 12 15  1  0
 17 18  1  0
 19 20  1  0
 21 22  1  0
 23 24  1  0
 25 26  1  0
M  CHG  1   8   1
M  END
>  <PDB_ID>  (1787) 
pdb3gjx

>  <RESIDUE_NAME>  (1787) 
LYS   PHE

>  <FRAG_NAME>  (1787) 
ETAM   MBZ

>  <FRAG_ATOM_NUM>  (1787) 
fragi: 11  fragj: 15

>  <atom.prop.CHAIN_ID>  (1787) 
A A A A A A A A A A A Z Z Z Z Z Z Z Z Z Z Z Z Z Z Z

>  <atom.prop.IS_HEAVY_ATOM>  (1787) 
1 0 0 0 1 0 0 1 0 0 0 1 0 0 0 1 1 0 1 0 1 0 1 0 1 0

>  <DIFUSE_FUNC_ATOM>  (1787) 
n/a

>  <FINAL_SINGLE_POINT_ENERGY>  (1787) 
0

>  <NONCOV_INTER_ENERGY_QM>  (1787) 
0

>  <FF_Energy>  (1787) 
46.66

>  <QM_Energy>  (1787) 
1.89

>  <source>  (1787) 
ETAM_MBZ

>  <Index>  (1787) 
18216

$$$$
ETAM-pdb4cyi-A-LYS-534:MBZ-pdb4cyi-A-PHE-624
     RDKit          3D

 26 25  0  0  0  0  0  0  0  0999 V2000
   -0.5832   -0.0836   -3.2666 C   0  0  0  0  0  0  0  0  0  0  0  0
   -0.7550    0.7850   -2.8699 H   0  0  0  0  0  0  0  0  0  0  0  0
   -0.8377   -0.7897   -2.6521 H   0  0  0  0  0  0  0  0  0  0  0  0
   -1.1610   -0.1805   -4.1858 H   0  0  0  0  0  0  0  0  0  0  0  0
    0.9123   -0.1996   -3.5346 C   0  0  0  0  0  0  0  0  0  0  0  0
    1.3339   -0.6640   -2.7939 H   0  0  0  0  0  0  0  0  0  0  0  0
    1.0514   -0.6906   -4.3594 H   0  0  0  0  0  0  0  0  0  0  0  0
    1.5577    1.1356   -3.6732 N   0  0  0  0  0  4  0  0  0  0  0  0
    1.4485    1.6043   -2.9247 H   0  0  0  0  0  0  0  0  0  0  0  0
    2.4287    1.0367   -3.8290 H   0  0  0  0  0  0  0  0  0  0  0  0
    1.1913    1.5806   -4.3502 H   0  0  0  0  0  0  0  0  0  0  0  0
    0.0009    2.8971    0.0117 C   0  0  0  0  0  0  0  0  0  0  0  0
   -0.6557    3.2010   -0.6348 H   0  0  0  0  0  0  0  0  0  0  0  0
    0.8852    3.1972   -0.2507 H   0  0  0  0  0  0  0  0  0  0  0  0
   -0.2414    3.3211    0.9862 H   0  0  0  0  0  0  0  0  0  0  0  0
    0.0003    1.3955   -0.0004 C   0  0  0  0  0  0  0  0  0  0  0  0
   -1.1920    0.6894    0.0007 C   0  0  0  0  0  0  0  0  0  0  0  0
   -1.9996    1.1510    0.0025 H   0  0  0  0  0  0  0  0  0  0  0  0
   -1.1953   -0.6967    0.0000 C   0  0  0  0  0  0  0  0  0  0  0  0
   -2.0015   -1.1607   -0.0028 H   0  0  0  0  0  0  0  0  0  0  0  0
    0.0004   -1.3863   -0.0031 C   0  0  0  0  0  0  0  0  0  0  0  0
    0.0016   -2.3158   -0.0044 H   0  0  0  0  0  0  0  0  0  0  0  0
    1.1953   -0.6914    0.0000 C   0  0  0  0  0  0  0  0  0  0  0  0
    2.0020   -1.1533   -0.0006 H   0  0  0  0  0  0  0  0  0  0  0  0
    1.1913    0.6896    0.0028 C   0  0  0  0  0  0  0  0  0  0  0  0
    1.9994    1.1521    0.0039 H   0  0  0  0  0  0  0  0  0  0  0  0
  1  5  1  0
  5  8  1  0
  1  2  1  0
  1  3  1  0
  1  4  1  0
  5  6  1  0
  5  7  1  0
  8  9  1  0
  8 10  1  0
  8 11  1  0
 12 16  1  0
 16 17  2  0
 17 19  1  0
 19 21  2  0
 21 23  1  0
 23 25  2  0
 25 16  1  0
 12 13  1  0
 12 14  1  0
 12 15  1  0
 17 18  1  0
 19 20  1  0
 21 22  1  0
 23 24  1  0
 25 26  1  0
M  CHG  1   8   1
M  END
>  <PDB_ID>  (1788) 
pdb4cyi

>  <RESIDUE_NAME>  (1788) 
LYS   PHE

>  <FRAG_NAME>  (1788) 
ETAM   MBZ

>  <FRAG_ATOM_NUM>  (1788) 
fragi: 11  fragj: 15

>  <atom.prop.CHAIN_ID>  (1788) 
A A A A A A A A A A A Z Z Z Z Z Z Z Z Z Z Z Z Z Z Z

>  <atom.prop.IS_HEAVY_ATOM>  (1788) 
1 0 0 0 1 0 0 1 0 0 0 1 0 0 0 1 1 0 1 0 1 0 1 0 1 0

>  <DIFUSE_FUNC_ATOM>  (1788) 
n/a

>  <FINAL_SINGLE_POINT_ENERGY>  (1788) 
0

>  <NONCOV_INTER_ENERGY_QM>  (1788) 
0

>  <FF_Energy>  (1788) 
-5.44

>  <QM_Energy>  (1788) 
-10.63

>  <source>  (1788) 
ETAM_MBZ

>  <Index>  (1788) 
18249

$$$$
ETAM-pdb4cyv-D-LYS-124:MBZ-pdb4cyv-B-PHE-9
     RDKit          3D

 26 25  0  0  0  0  0  0  0  0999 V2000
    0.9755    1.7010   -5.1619 C   0  0  0  0  0  0  0  0  0  0  0  0
    1.1404    2.5825   -4.7147 H   0  0  0  0  0  0  0  0  0  0  0  0
    0.0091    1.4567   -5.0631 H   0  0  0  0  0  0  0  0  0  0  0  0
    1.2034    1.8012   -6.2231 H   0  0  0  0  0  0  0  0  0  0  0  0
    1.8156    0.6398   -4.4618 C   0  0  0  0  0  0  0  0  0  0  0  0
    1.2473   -0.1622   -4.2905 H   0  0  0  0  0  0  0  0  0  0  0  0
    2.5816    0.3911   -5.0514 H   0  0  0  0  0  0  0  0  0  0  0  0
    2.3405    1.1571   -3.1652 N   0  0  0  0  0  4  0  0  0  0  0  0
    3.3311    1.0307   -3.1363 H   0  0  0  0  0  0  0  0  0  0  0  0
    2.1230    2.1289   -3.0855 H   0  0  0  0  0  0  0  0  0  0  0  0
    1.9155    0.6554   -2.4135 H   0  0  0  0  0  0  0  0  0  0  0  0
    0.0054    2.9142   -0.0192 C   0  0  0  0  0  0  0  0  0  0  0  0
   -0.6702    3.2088   -0.6824 H   0  0  0  0  0  0  0  0  0  0  0  0
    0.9132    3.2113   -0.2852 H   0  0  0  0  0  0  0  0  0  0  0  0
   -0.2328    3.4004    0.9268 H   0  0  0  0  0  0  0  0  0  0  0  0
   -0.0006    1.4033    0.0141 C   0  0  0  0  0  0  0  0  0  0  0  0
   -1.1962    0.6884   -0.0059 C   0  0  0  0  0  0  0  0  0  0  0  0
   -2.0643    1.1766   -0.0261 H   0  0  0  0  0  0  0  0  0  0  0  0
   -1.1968   -0.7027   -0.0000 C   0  0  0  0  0  0  0  0  0  0  0  0
   -2.0721   -1.1974    0.0059 H   0  0  0  0  0  0  0  0  0  0  0  0
    0.0042   -1.3907   -0.0005 C   0  0  0  0  0  0  0  0  0  0  0  0
    0.0041   -2.3914   -0.0019 H   0  0  0  0  0  0  0  0  0  0  0  0
    1.1968   -0.6920    0.0000 C   0  0  0  0  0  0  0  0  0  0  0  0
    2.0826   -1.1895    0.0074 H   0  0  0  0  0  0  0  0  0  0  0  0
    1.1926    0.6936   -0.0077 C   0  0  0  0  0  0  0  0  0  0  0  0
    2.0624    1.1914   -0.0302 H   0  0  0  0  0  0  0  0  0  0  0  0
  1  5  1  0
  5  8  1  0
  1  2  1  0
  1  3  1  0
  1  4  1  0
  5  6  1  0
  5  7  1  0
  8  9  1  0
  8 10  1  0
  8 11  1  0
 12 16  1  0
 16 17  2  0
 17 19  1  0
 19 21  2  0
 21 23  1  0
 23 25  2  0
 25 16  1  0
 12 13  1  0
 12 14  1  0
 12 15  1  0
 17 18  1  0
 19 20  1  0
 21 22  1  0
 23 24  1  0
 25 26  1  0
M  CHG  1   8   1
M  END
>  <PDB_ID>  (1789) 
pdb4cyv

>  <RESIDUE_NAME>  (1789) 
LYS   PHE

>  <FRAG_NAME>  (1789) 
ETAM   MBZ

>  <FRAG_ATOM_NUM>  (1789) 
fragi: 11  fragj: 15

>  <atom.prop.CHAIN_ID>  (1789) 
A A A A A A A A A A A Z Z Z Z Z Z Z Z Z Z Z Z Z Z Z

>  <atom.prop.IS_HEAVY_ATOM>  (1789) 
1 0 0 0 1 0 0 1 0 0 0 1 0 0 0 1 1 0 1 0 1 0 1 0 1 0

>  <DIFUSE_FUNC_ATOM>  (1789) 
n/a

>  <FINAL_SINGLE_POINT_ENERGY>  (1789) 
0

>  <NONCOV_INTER_ENERGY_QM>  (1789) 
0

>  <FF_Energy>  (1789) 
-4.56

>  <QM_Energy>  (1789) 
-10.27

>  <source>  (1789) 
ETAM_MBZ

>  <Index>  (1789) 
18252

$$$$
ETAM-pdb4cyv-F-LYS-124:MBZ-pdb4cyv-D-PHE-9
     RDKit          3D

 26 25  0  0  0  0  0  0  0  0999 V2000
    0.5504    1.0608   -5.1997 C   0  0  0  0  0  0  0  0  0  0  0  0
    0.6056    1.9424   -4.7328 H   0  0  0  0  0  0  0  0  0  0  0  0
   -0.3828    0.7088   -5.1460 H   0  0  0  0  0  0  0  0  0  0  0  0
    0.8088    1.2057   -6.2488 H   0  0  0  0  0  0  0  0  0  0  0  0
    1.4788    0.0850   -4.5066 C   0  0  0  0  0  0  0  0  0  0  0  0
    1.1129   -0.8407   -4.6031 H   0  0  0  0  0  0  0  0  0  0  0  0
    2.3820    0.1313   -4.9344 H   0  0  0  0  0  0  0  0  0  0  0  0
    1.6083    0.4104   -3.0581 N   0  0  0  0  0  4  0  0  0  0  0  0
    0.8076    0.0666   -2.5689 H   0  0  0  0  0  0  0  0  0  0  0  0
    2.4335   -0.0207   -2.6951 H   0  0  0  0  0  0  0  0  0  0  0  0
    1.6694    1.4016   -2.9459 H   0  0  0  0  0  0  0  0  0  0  0  0
    0.0056    2.9031   -0.0030 C   0  0  0  0  0  0  0  0  0  0  0  0
   -0.6373    3.2095   -0.6924 H   0  0  0  0  0  0  0  0  0  0  0  0
    0.9253    3.2057   -0.2156 H   0  0  0  0  0  0  0  0  0  0  0  0
   -0.2819    3.3622    0.9429 H   0  0  0  0  0  0  0  0  0  0  0  0
   -0.0019    1.4032    0.0087 C   0  0  0  0  0  0  0  0  0  0  0  0
   -1.1981    0.6934   -0.0096 C   0  0  0  0  0  0  0  0  0  0  0  0
   -2.0647    1.1835   -0.0312 H   0  0  0  0  0  0  0  0  0  0  0  0
   -1.2018   -0.6955    0.0000 C   0  0  0  0  0  0  0  0  0  0  0  0
   -2.0783   -1.1907    0.0092 H   0  0  0  0  0  0  0  0  0  0  0  0
   -0.0003   -1.3924   -0.0009 C   0  0  0  0  0  0  0  0  0  0  0  0
   -0.0060   -2.3912   -0.0026 H   0  0  0  0  0  0  0  0  0  0  0  0
    1.2018   -0.6989    0.0000 C   0  0  0  0  0  0  0  0  0  0  0  0
    2.0821   -1.1989    0.0005 H   0  0  0  0  0  0  0  0  0  0  0  0
    1.2004    0.6901    0.0018 C   0  0  0  0  0  0  0  0  0  0  0  0
    2.0661    1.1882   -0.0034 H   0  0  0  0  0  0  0  0  0  0  0  0
  1  5  1  0
  5  8  1  0
  1  2  1  0
  1  3  1  0
  1  4  1  0
  5  6  1  0
  5  7  1  0
  8  9  1  0
  8 10  1  0
  8 11  1  0
 12 16  1  0
 16 17  2  0
 17 19  1  0
 19 21  2  0
 21 23  1  0
 23 25  2  0
 25 16  1  0
 12 13  1  0
 12 14  1  0
 12 15  1  0
 17 18  1  0
 19 20  1  0
 21 22  1  0
 23 24  1  0
 25 26  1  0
M  CHG  1   8   1
M  END
>  <PDB_ID>  (1790) 
pdb4cyv

>  <RESIDUE_NAME>  (1790) 
LYS   PHE

>  <FRAG_NAME>  (1790) 
ETAM   MBZ

>  <FRAG_ATOM_NUM>  (1790) 
fragi: 11  fragj: 15

>  <atom.prop.CHAIN_ID>  (1790) 
A A A A A A A A A A A Z Z Z Z Z Z Z Z Z Z Z Z Z Z Z

>  <atom.prop.IS_HEAVY_ATOM>  (1790) 
1 0 0 0 1 0 0 1 0 0 0 1 0 0 0 1 1 0 1 0 1 0 1 0 1 0

>  <DIFUSE_FUNC_ATOM>  (1790) 
n/a

>  <FINAL_SINGLE_POINT_ENERGY>  (1790) 
0

>  <NONCOV_INTER_ENERGY_QM>  (1790) 
0

>  <FF_Energy>  (1790) 
-6.38

>  <QM_Energy>  (1790) 
-12.69

>  <source>  (1790) 
ETAM_MBZ

>  <Index>  (1790) 
18256

$$$$
ETAM-pdb4cyi-G-LYS-534:MBZ-pdb4cyi-G-PHE-624
     RDKit          3D

 26 25  0  0  0  0  0  0  0  0999 V2000
   -0.6989    0.0288   -3.2941 C   0  0  0  0  0  0  0  0  0  0  0  0
   -0.9103    0.9084   -2.9424 H   0  0  0  0  0  0  0  0  0  0  0  0
   -0.9672   -0.6586   -2.6646 H   0  0  0  0  0  0  0  0  0  0  0  0
   -1.2294   -0.1181   -4.2349 H   0  0  0  0  0  0  0  0  0  0  0  0
    0.8099   -0.0604   -3.4835 C   0  0  0  0  0  0  0  0  0  0  0  0
    1.2038   -0.4899   -2.7086 H   0  0  0  0  0  0  0  0  0  0  0  0
    1.0016   -0.5723   -4.2844 H   0  0  0  0  0  0  0  0  0  0  0  0
    1.4289    1.2859   -3.6331 N   0  0  0  0  0  4  0  0  0  0  0  0
    1.2701    1.7757   -2.9075 H   0  0  0  0  0  0  0  0  0  0  0  0
    2.3079    1.2055   -3.7422 H   0  0  0  0  0  0  0  0  0  0  0  0
    1.0864    1.7003   -4.3428 H   0  0  0  0  0  0  0  0  0  0  0  0
   -0.0004    2.8955    0.0091 C   0  0  0  0  0  0  0  0  0  0  0  0
   -0.6593    3.1968   -0.6364 H   0  0  0  0  0  0  0  0  0  0  0  0
    0.8826    3.1948   -0.2559 H   0  0  0  0  0  0  0  0  0  0  0  0
   -0.2404    3.3225    0.9829 H   0  0  0  0  0  0  0  0  0  0  0  0
    0.0002    1.3946    0.0000 C   0  0  0  0  0  0  0  0  0  0  0  0
   -1.1923    0.6871    0.0007 C   0  0  0  0  0  0  0  0  0  0  0  0
   -2.0002    1.1474    0.0024 H   0  0  0  0  0  0  0  0  0  0  0  0
   -1.1952   -0.6945   -0.0000 C   0  0  0  0  0  0  0  0  0  0  0  0
   -2.0001   -1.1587   -0.0027 H   0  0  0  0  0  0  0  0  0  0  0  0
    0.0008   -1.3842   -0.0031 C   0  0  0  0  0  0  0  0  0  0  0  0
    0.0017   -2.3148   -0.0044 H   0  0  0  0  0  0  0  0  0  0  0  0
    1.1952   -0.6918    0.0000 C   0  0  0  0  0  0  0  0  0  0  0  0
    2.0015   -1.1549   -0.0006 H   0  0  0  0  0  0  0  0  0  0  0  0
    1.1913    0.6887    0.0024 C   0  0  0  0  0  0  0  0  0  0  0  0
    1.9992    1.1515    0.0038 H   0  0  0  0  0  0  0  0  0  0  0  0
  1  5  1  0
  5  8  1  0
  1  2  1  0
  1  3  1  0
  1  4  1  0
  5  6  1  0
  5  7  1  0
  8  9  1  0
  8 10  1  0
  8 11  1  0
 12 16  1  0
 16 17  2  0
 17 19  1  0
 19 21  2  0
 21 23  1  0
 23 25  2  0
 25 16  1  0
 12 13  1  0
 12 14  1  0
 12 15  1  0
 17 18  1  0
 19 20  1  0
 21 22  1  0
 23 24  1  0
 25 26  1  0
M  CHG  1   8   1
M  END
>  <PDB_ID>  (1791) 
pdb4cyi

>  <RESIDUE_NAME>  (1791) 
LYS   PHE

>  <FRAG_NAME>  (1791) 
ETAM   MBZ

>  <FRAG_ATOM_NUM>  (1791) 
fragi: 11  fragj: 15

>  <atom.prop.CHAIN_ID>  (1791) 
A A A A A A A A A A A Z Z Z Z Z Z Z Z Z Z Z Z Z Z Z

>  <atom.prop.IS_HEAVY_ATOM>  (1791) 
1 0 0 0 1 0 0 1 0 0 0 1 0 0 0 1 1 0 1 0 1 0 1 0 1 0

>  <DIFUSE_FUNC_ATOM>  (1791) 
n/a

>  <FINAL_SINGLE_POINT_ENERGY>  (1791) 
0

>  <NONCOV_INTER_ENERGY_QM>  (1791) 
0

>  <FF_Energy>  (1791) 
-5.6

>  <QM_Energy>  (1791) 
-10.79

>  <source>  (1791) 
ETAM_MBZ

>  <Index>  (1791) 
18271

$$$$
ETAM-pdb3gm8-A-LYS-88:MBZ-pdb3gm8-A-PHE-25
     RDKit          3D

 26 25  0  0  0  0  0  0  0  0999 V2000
    0.7334   -1.6159    3.6786 C   0  0  0  0  0  0  0  0  0  0  0  0
    1.3145   -1.1922    4.3744 H   0  0  0  0  0  0  0  0  0  0  0  0
    1.0410   -1.3290    2.7711 H   0  0  0  0  0  0  0  0  0  0  0  0
    0.7975   -2.7009    3.7608 H   0  0  0  0  0  0  0  0  0  0  0  0
   -0.6758   -1.1288    3.8771 C   0  0  0  0  0  0  0  0  0  0  0  0
   -1.2976   -1.6844    3.3516 H   0  0  0  0  0  0  0  0  0  0  0  0
   -0.8987   -1.1360    4.8370 H   0  0  0  0  0  0  0  0  0  0  0  0
   -0.7287    0.2764    3.3731 N   0  0  0  0  0  4  0  0  0  0  0  0
    0.1951    0.6549    3.3572 H   0  0  0  0  0  0  0  0  0  0  0  0
   -1.1098    0.2806    2.4502 H   0  0  0  0  0  0  0  0  0  0  0  0
   -1.3058    0.8220    3.9789 H   0  0  0  0  0  0  0  0  0  0  0  0
    0.0050    2.9059   -0.0327 C   0  0  0  0  0  0  0  0  0  0  0  0
   -0.5226    3.1870   -0.8242 H   0  0  0  0  0  0  0  0  0  0  0  0
    0.9467    3.2049   -0.1127 H   0  0  0  0  0  0  0  0  0  0  0  0
   -0.4271    3.3823    0.8475 H   0  0  0  0  0  0  0  0  0  0  0  0
    0.0058    1.3942    0.0050 C   0  0  0  0  0  0  0  0  0  0  0  0
   -1.1810    0.6799   -0.0224 C   0  0  0  0  0  0  0  0  0  0  0  0
   -2.0524    1.1767   -0.0603 H   0  0  0  0  0  0  0  0  0  0  0  0
   -1.1901   -0.6935    0.0000 C   0  0  0  0  0  0  0  0  0  0  0  0
   -2.0773   -1.1838    0.0132 H   0  0  0  0  0  0  0  0  0  0  0  0
   -0.0156   -1.3794    0.0062 C   0  0  0  0  0  0  0  0  0  0  0  0
   -0.0128   -2.3853    0.0149 H   0  0  0  0  0  0  0  0  0  0  0  0
    1.1901   -0.6944    0.0000 C   0  0  0  0  0  0  0  0  0  0  0  0
    2.0669   -1.1976   -0.0112 H   0  0  0  0  0  0  0  0  0  0  0  0
    1.1908    0.6932    0.0112 C   0  0  0  0  0  0  0  0  0  0  0  0
    2.0629    1.1842    0.0230 H   0  0  0  0  0  0  0  0  0  0  0  0
  1  5  1  0
  5  8  1  0
  1  2  1  0
  1  3  1  0
  1  4  1  0
  5  6  1  0
  5  7  1  0
  8  9  1  0
  8 10  1  0
  8 11  1  0
 12 16  1  0
 16 17  2  0
 17 19  1  0
 19 21  2  0
 21 23  1  0
 23 25  2  0
 25 16  1  0
 12 13  1  0
 12 14  1  0
 12 15  1  0
 17 18  1  0
 19 20  1  0
 21 22  1  0
 23 24  1  0
 25 26  1  0
M  CHG  1   8   1
M  END
>  <PDB_ID>  (1792) 
pdb3gm8

>  <RESIDUE_NAME>  (1792) 
LYS   PHE

>  <FRAG_NAME>  (1792) 
ETAM   MBZ

>  <FRAG_ATOM_NUM>  (1792) 
fragi: 11  fragj: 15

>  <atom.prop.CHAIN_ID>  (1792) 
A A A A A A A A A A A Z Z Z Z Z Z Z Z Z Z Z Z Z Z Z

>  <atom.prop.IS_HEAVY_ATOM>  (1792) 
1 0 0 0 1 0 0 1 0 0 0 1 0 0 0 1 1 0 1 0 1 0 1 0 1 0

>  <DIFUSE_FUNC_ATOM>  (1792) 
n/a

>  <FINAL_SINGLE_POINT_ENERGY>  (1792) 
0

>  <NONCOV_INTER_ENERGY_QM>  (1792) 
0

>  <FF_Energy>  (1792) 
-8.84

>  <QM_Energy>  (1792) 
-15.86

>  <source>  (1792) 
ETAM_MBZ

>  <Index>  (1792) 
18281

$$$$
ETAM-pdb4d01-A-LYS-187:MBZ-pdb4d01-A-PHE-161
     RDKit          3D

 26 25  0  0  0  0  0  0  0  0999 V2000
    2.1708    1.0005    4.5161 C   0  0  0  0  0  0  0  0  0  0  0  0
    1.7500    1.6434    3.8862 H   0  0  0  0  0  0  0  0  0  0  0  0
    3.0000    0.6197    4.1217 H   0  0  0  0  0  0  0  0  0  0  0  0
    2.4197    1.5188    5.4421 H   0  0  0  0  0  0  0  0  0  0  0  0
    1.1754   -0.1617    4.7478 C   0  0  0  0  0  0  0  0  0  0  0  0
    1.5978   -0.8145    5.3529 H   0  0  0  0  0  0  0  0  0  0  0  0
    0.3469    0.2111    5.1303 H   0  0  0  0  0  0  0  0  0  0  0  0
    0.8972   -0.7850    3.4369 N   0  0  0  0  0  4  0  0  0  0  0  0
    0.3280   -0.1728    2.8866 H   0  0  0  0  0  0  0  0  0  0  0  0
    1.7584   -0.9572    2.9560 H   0  0  0  0  0  0  0  0  0  0  0  0
    0.4150   -1.6522    3.5720 H   0  0  0  0  0  0  0  0  0  0  0  0
    0.0321    2.8727    0.0364 C   0  0  0  0  0  0  0  0  0  0  0  0
   -0.6790    3.2062   -0.5690 H   0  0  0  0  0  0  0  0  0  0  0  0
    0.9265    3.1733   -0.2683 H   0  0  0  0  0  0  0  0  0  0  0  0
   -0.1438    3.3015    1.0229 H   0  0  0  0  0  0  0  0  0  0  0  0
    0.0064    1.3829    0.0106 C   0  0  0  0  0  0  0  0  0  0  0  0
   -1.1912    0.6975   -0.0053 C   0  0  0  0  0  0  0  0  0  0  0  0
   -2.0523    1.1840   -0.0218 H   0  0  0  0  0  0  0  0  0  0  0  0
   -1.1864   -0.6911    0.0000 C   0  0  0  0  0  0  0  0  0  0  0  0
   -2.0712   -1.1832    0.0153 H   0  0  0  0  0  0  0  0  0  0  0  0
   -0.0049   -1.3705   -0.0135 C   0  0  0  0  0  0  0  0  0  0  0  0
   -0.0037   -2.3782   -0.0340 H   0  0  0  0  0  0  0  0  0  0  0  0
    1.1864   -0.6856    0.0000 C   0  0  0  0  0  0  0  0  0  0  0  0
    2.0676   -1.2024    0.0050 H   0  0  0  0  0  0  0  0  0  0  0  0
    1.1897    0.6667    0.0082 C   0  0  0  0  0  0  0  0  0  0  0  0
    2.0624    1.1733    0.0119 H   0  0  0  0  0  0  0  0  0  0  0  0
  1  5  1  0
  5  8  1  0
  1  2  1  0
  1  3  1  0
  1  4  1  0
  5  6  1  0
  5  7  1  0
  8  9  1  0
  8 10  1  0
  8 11  1  0
 12 16  1  0
 16 17  2  0
 17 19  1  0
 19 21  2  0
 21 23  1  0
 23 25  2  0
 25 16  1  0
 12 13  1  0
 12 14  1  0
 12 15  1  0
 17 18  1  0
 19 20  1  0
 21 22  1  0
 23 24  1  0
 25 26  1  0
M  CHG  1   8   1
M  END
>  <PDB_ID>  (1793) 
pdb4d01

>  <RESIDUE_NAME>  (1793) 
LYS   PHE

>  <FRAG_NAME>  (1793) 
ETAM   MBZ

>  <FRAG_ATOM_NUM>  (1793) 
fragi: 11  fragj: 15

>  <atom.prop.CHAIN_ID>  (1793) 
A A A A A A A A A A A Z Z Z Z Z Z Z Z Z Z Z Z Z Z Z

>  <atom.prop.IS_HEAVY_ATOM>  (1793) 
1 0 0 0 1 0 0 1 0 0 0 1 0 0 0 1 1 0 1 0 1 0 1 0 1 0

>  <DIFUSE_FUNC_ATOM>  (1793) 
n/a

>  <FINAL_SINGLE_POINT_ENERGY>  (1793) 
0

>  <NONCOV_INTER_ENERGY_QM>  (1793) 
0

>  <FF_Energy>  (1793) 
-6.88

>  <QM_Energy>  (1793) 
-12.46

>  <source>  (1793) 
ETAM_MBZ

>  <Index>  (1793) 
18282

$$$$
ETAM-pdb3gkq-A-LYS-191:MBZ-pdb3gkq-A-PHE-188
     RDKit          3D

 26 25  0  0  0  0  0  0  0  0999 V2000
   -1.0811   -0.3849    3.9524 C   0  0  0  0  0  0  0  0  0  0  0  0
   -1.9431   -0.8706    4.0554 H   0  0  0  0  0  0  0  0  0  0  0  0
   -1.1319    0.2499    3.1882 H   0  0  0  0  0  0  0  0  0  0  0  0
   -0.8928    0.1831    4.8635 H   0  0  0  0  0  0  0  0  0  0  0  0
    0.0211   -1.3967    3.6761 C   0  0  0  0  0  0  0  0  0  0  0  0
    0.0661   -2.0472    4.4369 H   0  0  0  0  0  0  0  0  0  0  0  0
   -0.1955   -1.8940    2.8335 H   0  0  0  0  0  0  0  0  0  0  0  0
    1.3568   -0.7363    3.5215 N   0  0  0  0  0  4  0  0  0  0  0  0
    2.0736   -1.3912    3.7517 H   0  0  0  0  0  0  0  0  0  0  0  0
    1.4646   -0.4345    2.5767 H   0  0  0  0  0  0  0  0  0  0  0  0
    1.4059    0.0493    4.1356 H   0  0  0  0  0  0  0  0  0  0  0  0
    0.0037    2.9195   -0.0274 C   0  0  0  0  0  0  0  0  0  0  0  0
   -0.6599    3.2133   -0.7002 H   0  0  0  0  0  0  0  0  0  0  0  0
    0.9157    3.2181   -0.2702 H   0  0  0  0  0  0  0  0  0  0  0  0
   -0.2573    3.3865    0.9223 H   0  0  0  0  0  0  0  0  0  0  0  0
    0.0007    1.4108    0.0009 C   0  0  0  0  0  0  0  0  0  0  0  0
   -1.1978    0.7008    0.0014 C   0  0  0  0  0  0  0  0  0  0  0  0
   -2.0654    1.1864    0.0015 H   0  0  0  0  0  0  0  0  0  0  0  0
   -1.2054   -0.7024   -0.0000 C   0  0  0  0  0  0  0  0  0  0  0  0
   -2.0824   -1.1893    0.0024 H   0  0  0  0  0  0  0  0  0  0  0  0
   -0.0020   -1.4045   -0.0023 C   0  0  0  0  0  0  0  0  0  0  0  0
   -0.0057   -2.3994   -0.0063 H   0  0  0  0  0  0  0  0  0  0  0  0
    1.2054   -0.7032   -0.0000 C   0  0  0  0  0  0  0  0  0  0  0  0
    2.0851   -1.1969    0.0025 H   0  0  0  0  0  0  0  0  0  0  0  0
    1.1991    0.6985    0.0001 C   0  0  0  0  0  0  0  0  0  0  0  0
    2.0681    1.1908   -0.0009 H   0  0  0  0  0  0  0  0  0  0  0  0
  1  5  1  0
  5  8  1  0
  1  2  1  0
  1  3  1  0
  1  4  1  0
  5  6  1  0
  5  7  1  0
  8  9  1  0
  8 10  1  0
  8 11  1  0
 12 16  1  0
 16 17  2  0
 17 19  1  0
 19 21  2  0
 21 23  1  0
 23 25  2  0
 25 16  1  0
 12 13  1  0
 12 14  1  0
 12 15  1  0
 17 18  1  0
 19 20  1  0
 21 22  1  0
 23 24  1  0
 25 26  1  0
M  CHG  1   8   1
M  END
>  <PDB_ID>  (1794) 
pdb3gkq

>  <RESIDUE_NAME>  (1794) 
LYS   PHE

>  <FRAG_NAME>  (1794) 
ETAM   MBZ

>  <FRAG_ATOM_NUM>  (1794) 
fragi: 11  fragj: 15

>  <atom.prop.CHAIN_ID>  (1794) 
A A A A A A A A A A A Z Z Z Z Z Z Z Z Z Z Z Z Z Z Z

>  <atom.prop.IS_HEAVY_ATOM>  (1794) 
1 0 0 0 1 0 0 1 0 0 0 1 0 0 0 1 1 0 1 0 1 0 1 0 1 0

>  <DIFUSE_FUNC_ATOM>  (1794) 
n/a

>  <FINAL_SINGLE_POINT_ENERGY>  (1794) 
0

>  <NONCOV_INTER_ENERGY_QM>  (1794) 
0

>  <FF_Energy>  (1794) 
-6.96

>  <QM_Energy>  (1794) 
-14.11

>  <source>  (1794) 
ETAM_MBZ

>  <Index>  (1794) 
18299

$$$$
ETAM-pdb4cyv-C-LYS-307:MBZ-pdb4cyv-D-PHE-63
     RDKit          3D

 26 25  0  0  0  0  0  0  0  0999 V2000
   -3.6095   -3.1809   -4.5795 C   0  0  0  0  0  0  0  0  0  0  0  0
   -2.7253   -3.2889   -5.0404 H   0  0  0  0  0  0  0  0  0  0  0  0
   -3.8497   -2.2084   -4.5560 H   0  0  0  0  0  0  0  0  0  0  0  0
   -4.3673   -3.7119   -5.1556 H   0  0  0  0  0  0  0  0  0  0  0  0
   -3.4680   -3.6774   -3.1420 C   0  0  0  0  0  0  0  0  0  0  0  0
   -4.3511   -3.6479   -2.7047 H   0  0  0  0  0  0  0  0  0  0  0  0
   -3.0961   -4.5911   -3.1536 H   0  0  0  0  0  0  0  0  0  0  0  0
   -2.5312   -2.7642   -2.4441 N   0  0  0  0  0  4  0  0  0  0  0  0
   -2.6109   -2.8953   -1.4557 H   0  0  0  0  0  0  0  0  0  0  0  0
   -1.5934   -2.9635   -2.7311 H   0  0  0  0  0  0  0  0  0  0  0  0
   -2.7553   -1.8159   -2.6734 H   0  0  0  0  0  0  0  0  0  0  0  0
   -0.0041    2.9013   -0.0241 C   0  0  0  0  0  0  0  0  0  0  0  0
   -0.7984    3.2152   -0.5272 H   0  0  0  0  0  0  0  0  0  0  0  0
    0.8326    3.2026   -0.4608 H   0  0  0  0  0  0  0  0  0  0  0  0
   -0.0402    3.3713    0.9587 H   0  0  0  0  0  0  0  0  0  0  0  0
   -0.0165    1.4096    0.0003 C   0  0  0  0  0  0  0  0  0  0  0  0
   -1.2024    0.7192    0.0073 C   0  0  0  0  0  0  0  0  0  0  0  0
   -2.0715    1.2070    0.0167 H   0  0  0  0  0  0  0  0  0  0  0  0
   -1.2102   -0.6707   -0.0000 C   0  0  0  0  0  0  0  0  0  0  0  0
   -2.0790   -1.1723   -0.0086 H   0  0  0  0  0  0  0  0  0  0  0  0
    0.0141   -1.3959    0.0063 C   0  0  0  0  0  0  0  0  0  0  0  0
   -0.0267   -2.3937    0.0145 H   0  0  0  0  0  0  0  0  0  0  0  0
    1.2102   -0.7268    0.0000 C   0  0  0  0  0  0  0  0  0  0  0  0
    2.0889   -1.2216    0.0069 H   0  0  0  0  0  0  0  0  0  0  0  0
    1.2048    0.6645   -0.0139 C   0  0  0  0  0  0  0  0  0  0  0  0
    2.0665    1.1705   -0.0350 H   0  0  0  0  0  0  0  0  0  0  0  0
  1  5  1  0
  5  8  1  0
  1  2  1  0
  1  3  1  0
  1  4  1  0
  5  6  1  0
  5  7  1  0
  8  9  1  0
  8 10  1  0
  8 11  1  0
 12 16  1  0
 16 17  2  0
 17 19  1  0
 19 21  2  0
 21 23  1  0
 23 25  2  0
 25 16  1  0
 12 13  1  0
 12 14  1  0
 12 15  1  0
 17 18  1  0
 19 20  1  0
 21 22  1  0
 23 24  1  0
 25 26  1  0
M  CHG  1   8   1
M  END
>  <PDB_ID>  (1795) 
pdb4cyv

>  <RESIDUE_NAME>  (1795) 
LYS   PHE

>  <FRAG_NAME>  (1795) 
ETAM   MBZ

>  <FRAG_ATOM_NUM>  (1795) 
fragi: 11  fragj: 15

>  <atom.prop.CHAIN_ID>  (1795) 
A A A A A A A A A A A Z Z Z Z Z Z Z Z Z Z Z Z Z Z Z

>  <atom.prop.IS_HEAVY_ATOM>  (1795) 
1 0 0 0 1 0 0 1 0 0 0 1 0 0 0 1 1 0 1 0 1 0 1 0 1 0

>  <DIFUSE_FUNC_ATOM>  (1795) 
n/a

>  <FINAL_SINGLE_POINT_ENERGY>  (1795) 
0

>  <NONCOV_INTER_ENERGY_QM>  (1795) 
0

>  <FF_Energy>  (1795) 
-0.75

>  <QM_Energy>  (1795) 
-6.17

>  <source>  (1795) 
ETAM_MBZ

>  <Index>  (1795) 
18330

$$$$
ETAM-pdb4d41-J-LYS-256:MBZ-pdb4d41-A-PHE-252
     RDKit          3D

 26 25  0  0  0  0  0  0  0  0999 V2000
    3.0847   -1.1582    4.0936 C   0  0  0  0  0  0  0  0  0  0  0  0
    3.2939   -0.5787    4.8642 H   0  0  0  0  0  0  0  0  0  0  0  0
    3.3686   -0.7509    3.2417 H   0  0  0  0  0  0  0  0  0  0  0  0
    3.6098   -2.1052    4.2187 H   0  0  0  0  0  0  0  0  0  0  0  0
    1.6078   -1.4183    4.0526 C   0  0  0  0  0  0  0  0  0  0  0  0
    1.4418   -2.3257    3.6020 H   0  0  0  0  0  0  0  0  0  0  0  0
    1.2623   -1.5254    5.0132 H   0  0  0  0  0  0  0  0  0  0  0  0
    0.7686   -0.3973    3.3670 N   0  0  0  0  0  4  0  0  0  0  0  0
    0.1793    0.0511    4.0378 H   0  0  0  0  0  0  0  0  0  0  0  0
    1.3609    0.2814    2.9334 H   0  0  0  0  0  0  0  0  0  0  0  0
    0.2060   -0.8434    2.6713 H   0  0  0  0  0  0  0  0  0  0  0  0
    0.0256    2.9082   -0.0149 C   0  0  0  0  0  0  0  0  0  0  0  0
   -0.6141    3.1986   -0.7131 H   0  0  0  0  0  0  0  0  0  0  0  0
    0.9490    3.1897   -0.2383 H   0  0  0  0  0  0  0  0  0  0  0  0
   -0.2559    3.3924    0.9201 H   0  0  0  0  0  0  0  0  0  0  0  0
    0.0029    1.3992    0.0337 C   0  0  0  0  0  0  0  0  0  0  0  0
   -1.1912    0.7102   -0.0258 C   0  0  0  0  0  0  0  0  0  0  0  0
   -2.0534    1.1940   -0.0879 H   0  0  0  0  0  0  0  0  0  0  0  0
   -1.1940   -0.6875   -0.0000 C   0  0  0  0  0  0  0  0  0  0  0  0
   -2.0752   -1.1778    0.0051 H   0  0  0  0  0  0  0  0  0  0  0  0
    0.0049   -1.3983    0.0211 C   0  0  0  0  0  0  0  0  0  0  0  0
   -0.0110   -2.3923    0.0501 H   0  0  0  0  0  0  0  0  0  0  0  0
    1.1940   -0.7053    0.0000 C   0  0  0  0  0  0  0  0  0  0  0  0
    2.0804   -1.1974    0.0075 H   0  0  0  0  0  0  0  0  0  0  0  0
    1.1834    0.6817   -0.0290 C   0  0  0  0  0  0  0  0  0  0  0  0
    2.0584    1.1767   -0.0987 H   0  0  0  0  0  0  0  0  0  0  0  0
  1  5  1  0
  5  8  1  0
  1  2  1  0
  1  3  1  0
  1  4  1  0
  5  6  1  0
  5  7  1  0
  8  9  1  0
  8 10  1  0
  8 11  1  0
 12 16  1  0
 16 17  2  0
 17 19  1  0
 19 21  2  0
 21 23  1  0
 23 25  2  0
 25 16  1  0
 12 13  1  0
 12 14  1  0
 12 15  1  0
 17 18  1  0
 19 20  1  0
 21 22  1  0
 23 24  1  0
 25 26  1  0
M  CHG  1   8   1
M  END
>  <PDB_ID>  (1796) 
pdb4d41

>  <RESIDUE_NAME>  (1796) 
LYS   PHE

>  <FRAG_NAME>  (1796) 
ETAM   MBZ

>  <FRAG_ATOM_NUM>  (1796) 
fragi: 11  fragj: 15

>  <atom.prop.CHAIN_ID>  (1796) 
A A A A A A A A A A A Z Z Z Z Z Z Z Z Z Z Z Z Z Z Z

>  <atom.prop.IS_HEAVY_ATOM>  (1796) 
1 0 0 0 1 0 0 1 0 0 0 1 0 0 0 1 1 0 1 0 1 0 1 0 1 0

>  <DIFUSE_FUNC_ATOM>  (1796) 
n/a

>  <FINAL_SINGLE_POINT_ENERGY>  (1796) 
0

>  <NONCOV_INTER_ENERGY_QM>  (1796) 
0

>  <FF_Energy>  (1796) 
-7.94

>  <QM_Energy>  (1796) 
-14.8

>  <source>  (1796) 
ETAM_MBZ

>  <Index>  (1796) 
18336

$$$$
ETAM-pdb4d41-D-LYS-256:MBZ-pdb4d41-I-PHE-252
     RDKit          3D

 26 25  0  0  0  0  0  0  0  0999 V2000
    2.4050   -1.4703    4.4706 C   0  0  0  0  0  0  0  0  0  0  0  0
    1.8360   -2.1493    4.8918 H   0  0  0  0  0  0  0  0  0  0  0  0
    3.0364   -1.0600    5.0992 H   0  0  0  0  0  0  0  0  0  0  0  0
    2.9536   -1.9193    3.6426 H   0  0  0  0  0  0  0  0  0  0  0  0
    1.5255   -0.3898    3.8884 C   0  0  0  0  0  0  0  0  0  0  0  0
    1.3712    0.3360    4.6144 H   0  0  0  0  0  0  0  0  0  0  0  0
    2.0597    0.1087    3.1512 H   0  0  0  0  0  0  0  0  0  0  0  0
    0.1877   -0.7552    3.3151 N   0  0  0  0  0  4  0  0  0  0  0  0
   -0.5266   -0.4901    3.9598 H   0  0  0  0  0  0  0  0  0  0  0  0
    0.0611   -0.2728    2.4512 H   0  0  0  0  0  0  0  0  0  0  0  0
    0.1576   -1.7409    3.1615 H   0  0  0  0  0  0  0  0  0  0  0  0
   -0.0129    2.9027   -0.0626 C   0  0  0  0  0  0  0  0  0  0  0  0
   -0.6708    3.1730   -0.7510 H   0  0  0  0  0  0  0  0  0  0  0  0
    0.9000    3.2011   -0.3040 H   0  0  0  0  0  0  0  0  0  0  0  0
   -0.2876    3.3878    0.8740 H   0  0  0  0  0  0  0  0  0  0  0  0
   -0.0079    1.4086    0.0132 C   0  0  0  0  0  0  0  0  0  0  0  0
   -1.1948    0.6994    0.0005 C   0  0  0  0  0  0  0  0  0  0  0  0
   -2.0679    1.1754   -0.0093 H   0  0  0  0  0  0  0  0  0  0  0  0
   -1.1921   -0.7060   -0.0000 C   0  0  0  0  0  0  0  0  0  0  0  0
   -2.0680   -1.1974    0.0021 H   0  0  0  0  0  0  0  0  0  0  0  0
    0.0132   -1.3983   -0.0014 C   0  0  0  0  0  0  0  0  0  0  0  0
    0.0050   -2.3982   -0.0039 H   0  0  0  0  0  0  0  0  0  0  0  0
    1.1921   -0.7028    0.0000 C   0  0  0  0  0  0  0  0  0  0  0  0
    2.0859   -1.1878    0.0116 H   0  0  0  0  0  0  0  0  0  0  0  0
    1.1894    0.6992   -0.0122 C   0  0  0  0  0  0  0  0  0  0  0  0
    2.0573    1.1893   -0.0403 H   0  0  0  0  0  0  0  0  0  0  0  0
  1  5  1  0
  5  8  1  0
  1  2  1  0
  1  3  1  0
  1  4  1  0
  5  6  1  0
  5  7  1  0
  8  9  1  0
  8 10  1  0
  8 11  1  0
 12 16  1  0
 16 17  2  0
 17 19  1  0
 19 21  2  0
 21 23  1  0
 23 25  2  0
 25 16  1  0
 12 13  1  0
 12 14  1  0
 12 15  1  0
 17 18  1  0
 19 20  1  0
 21 22  1  0
 23 24  1  0
 25 26  1  0
M  CHG  1   8   1
M  END
>  <PDB_ID>  (1797) 
pdb4d41

>  <RESIDUE_NAME>  (1797) 
LYS   PHE

>  <FRAG_NAME>  (1797) 
ETAM   MBZ

>  <FRAG_ATOM_NUM>  (1797) 
fragi: 11  fragj: 15

>  <atom.prop.CHAIN_ID>  (1797) 
A A A A A A A A A A A Z Z Z Z Z Z Z Z Z Z Z Z Z Z Z

>  <atom.prop.IS_HEAVY_ATOM>  (1797) 
1 0 0 0 1 0 0 1 0 0 0 1 0 0 0 1 1 0 1 0 1 0 1 0 1 0

>  <DIFUSE_FUNC_ATOM>  (1797) 
n/a

>  <FINAL_SINGLE_POINT_ENERGY>  (1797) 
0

>  <NONCOV_INTER_ENERGY_QM>  (1797) 
0

>  <FF_Energy>  (1797) 
-8.6

>  <QM_Energy>  (1797) 
-15.93

>  <source>  (1797) 
ETAM_MBZ

>  <Index>  (1797) 
18338

$$$$
ETAM-pdb4d41-L-LYS-256:MBZ-pdb4d41-H-PHE-252
     RDKit          3D

 26 25  0  0  0  0  0  0  0  0999 V2000
    2.0445   -1.8383    4.4711 C   0  0  0  0  0  0  0  0  0  0  0  0
    1.4822   -2.6382    4.2914 H   0  0  0  0  0  0  0  0  0  0  0  0
    1.9250   -1.5334    5.4099 H   0  0  0  0  0  0  0  0  0  0  0  0
    3.0911   -2.0998    4.3147 H   0  0  0  0  0  0  0  0  0  0  0  0
    1.6174   -0.7247    3.5402 C   0  0  0  0  0  0  0  0  0  0  0  0
    1.9027    0.1607    3.9303 H   0  0  0  0  0  0  0  0  0  0  0  0
    2.0824   -0.8385    2.6510 H   0  0  0  0  0  0  0  0  0  0  0  0
    0.1348   -0.6860    3.3015 N   0  0  0  0  0  4  0  0  0  0  0  0
   -0.1855    0.2537    3.3982 H   0  0  0  0  0  0  0  0  0  0  0  0
   -0.0540   -1.0166    2.3795 H   0  0  0  0  0  0  0  0  0  0  0  0
   -0.3177   -1.2705    3.9718 H   0  0  0  0  0  0  0  0  0  0  0  0
   -0.0231    2.8815   -0.1109 C   0  0  0  0  0  0  0  0  0  0  0  0
   -0.6477    3.1336   -0.8397 H   0  0  0  0  0  0  0  0  0  0  0  0
    0.8983    3.1873   -0.3164 H   0  0  0  0  0  0  0  0  0  0  0  0
   -0.3477    3.3919    0.7959 H   0  0  0  0  0  0  0  0  0  0  0  0
   -0.0051    1.3873   -0.0109 C   0  0  0  0  0  0  0  0  0  0  0  0
   -1.1906    0.6675   -0.0116 C   0  0  0  0  0  0  0  0  0  0  0  0
   -2.0643    1.1597   -0.0223 H   0  0  0  0  0  0  0  0  0  0  0  0
   -1.1973   -0.7125    0.0000 C   0  0  0  0  0  0  0  0  0  0  0  0
   -2.0685   -1.2082   -0.0172 H   0  0  0  0  0  0  0  0  0  0  0  0
   -0.0010   -1.3755    0.0366 C   0  0  0  0  0  0  0  0  0  0  0  0
    0.0207   -2.3784    0.0900 H   0  0  0  0  0  0  0  0  0  0  0  0
    1.1973   -0.6666   -0.0000 C   0  0  0  0  0  0  0  0  0  0  0  0
    2.0794   -1.1774   -0.0149 H   0  0  0  0  0  0  0  0  0  0  0  0
    1.1967    0.6998   -0.0142 C   0  0  0  0  0  0  0  0  0  0  0  0
    2.0553    1.2080   -0.0277 H   0  0  0  0  0  0  0  0  0  0  0  0
  1  5  1  0
  5  8  1  0
  1  2  1  0
  1  3  1  0
  1  4  1  0
  5  6  1  0
  5  7  1  0
  8  9  1  0
  8 10  1  0
  8 11  1  0
 12 16  1  0
 16 17  2  0
 17 19  1  0
 19 21  2  0
 21 23  1  0
 23 25  2  0
 25 16  1  0
 12 13  1  0
 12 14  1  0
 12 15  1  0
 17 18  1  0
 19 20  1  0
 21 22  1  0
 23 24  1  0
 25 26  1  0
M  CHG  1   8   1
M  END
>  <PDB_ID>  (1798) 
pdb4d41

>  <RESIDUE_NAME>  (1798) 
LYS   PHE

>  <FRAG_NAME>  (1798) 
ETAM   MBZ

>  <FRAG_ATOM_NUM>  (1798) 
fragi: 11  fragj: 15

>  <atom.prop.CHAIN_ID>  (1798) 
A A A A A A A A A A A Z Z Z Z Z Z Z Z Z Z Z Z Z Z Z

>  <atom.prop.IS_HEAVY_ATOM>  (1798) 
1 0 0 0 1 0 0 1 0 0 0 1 0 0 0 1 1 0 1 0 1 0 1 0 1 0

>  <DIFUSE_FUNC_ATOM>  (1798) 
n/a

>  <FINAL_SINGLE_POINT_ENERGY>  (1798) 
0

>  <NONCOV_INTER_ENERGY_QM>  (1798) 
0

>  <FF_Energy>  (1798) 
-8.39

>  <QM_Energy>  (1798) 
-16.22

>  <source>  (1798) 
ETAM_MBZ

>  <Index>  (1798) 
18345

$$$$
ETAM-pdb4d41-M-LYS-256:MBZ-pdb4d41-K-PHE-252
     RDKit          3D

 26 25  0  0  0  0  0  0  0  0999 V2000
    1.9914   -2.0493    4.3354 C   0  0  0  0  0  0  0  0  0  0  0  0
    1.5592   -2.7474    3.7688 H   0  0  0  0  0  0  0  0  0  0  0  0
    1.6469   -2.1088    5.2693 H   0  0  0  0  0  0  0  0  0  0  0  0
    3.0694   -2.2104    4.3407 H   0  0  0  0  0  0  0  0  0  0  0  0
    1.6244   -0.6829    3.7754 C   0  0  0  0  0  0  0  0  0  0  0  0
    1.7239   -0.0009    4.4891 H   0  0  0  0  0  0  0  0  0  0  0  0
    2.2175   -0.4756    3.0073 H   0  0  0  0  0  0  0  0  0  0  0  0
    0.2053   -0.7063    3.3100 N   0  0  0  0  0  4  0  0  0  0  0  0
    0.1681   -0.4234    2.3526 H   0  0  0  0  0  0  0  0  0  0  0  0
   -0.1560   -1.6329    3.4019 H   0  0  0  0  0  0  0  0  0  0  0  0
   -0.3344   -0.0776    3.8678 H   0  0  0  0  0  0  0  0  0  0  0  0
    0.0142    2.9078    0.0339 C   0  0  0  0  0  0  0  0  0  0  0  0
   -0.5669    3.2093   -0.7077 H   0  0  0  0  0  0  0  0  0  0  0  0
    0.9493    3.2036   -0.0988 H   0  0  0  0  0  0  0  0  0  0  0  0
   -0.3533    3.3626    0.9537 H   0  0  0  0  0  0  0  0  0  0  0  0
    0.0040    1.3971    0.0439 C   0  0  0  0  0  0  0  0  0  0  0  0
   -1.1950    0.6887    0.0100 C   0  0  0  0  0  0  0  0  0  0  0  0
   -2.0578    1.1839   -0.0083 H   0  0  0  0  0  0  0  0  0  0  0  0
   -1.1902   -0.6856    0.0000 C   0  0  0  0  0  0  0  0  0  0  0  0
   -2.0732   -1.1871    0.0213 H   0  0  0  0  0  0  0  0  0  0  0  0
   -0.0016   -1.3859   -0.0375 C   0  0  0  0  0  0  0  0  0  0  0  0
   -0.0137   -2.3857   -0.0923 H   0  0  0  0  0  0  0  0  0  0  0  0
    1.1902   -0.7019    0.0000 C   0  0  0  0  0  0  0  0  0  0  0  0
    2.0734   -1.1992    0.0415 H   0  0  0  0  0  0  0  0  0  0  0  0
    1.1926    0.6878   -0.0164 C   0  0  0  0  0  0  0  0  0  0  0  0
    2.0618    1.1786   -0.0733 H   0  0  0  0  0  0  0  0  0  0  0  0
  1  5  1  0
  5  8  1  0
  1  2  1  0
  1  3  1  0
  1  4  1  0
  5  6  1  0
  5  7  1  0
  8  9  1  0
  8 10  1  0
  8 11  1  0
 12 16  1  0
 16 17  2  0
 17 19  1  0
 19 21  2  0
 21 23  1  0
 23 25  2  0
 25 16  1  0
 12 13  1  0
 12 14  1  0
 12 15  1  0
 17 18  1  0
 19 20  1  0
 21 22  1  0
 23 24  1  0
 25 26  1  0
M  CHG  1   8   1
M  END
>  <PDB_ID>  (1799) 
pdb4d41

>  <RESIDUE_NAME>  (1799) 
LYS   PHE

>  <FRAG_NAME>  (1799) 
ETAM   MBZ

>  <FRAG_ATOM_NUM>  (1799) 
fragi: 11  fragj: 15

>  <atom.prop.CHAIN_ID>  (1799) 
A A A A A A A A A A A Z Z Z Z Z Z Z Z Z Z Z Z Z Z Z

>  <atom.prop.IS_HEAVY_ATOM>  (1799) 
1 0 0 0 1 0 0 1 0 0 0 1 0 0 0 1 1 0 1 0 1 0 1 0 1 0

>  <DIFUSE_FUNC_ATOM>  (1799) 
n/a

>  <FINAL_SINGLE_POINT_ENERGY>  (1799) 
0

>  <NONCOV_INTER_ENERGY_QM>  (1799) 
0

>  <FF_Energy>  (1799) 
-8.96

>  <QM_Energy>  (1799) 
-16.33

>  <source>  (1799) 
ETAM_MBZ

>  <Index>  (1799) 
18350

$$$$
ETAM-pdb4d41-H-LYS-256:MBZ-pdb4d41-L-PHE-252
     RDKit          3D

 26 25  0  0  0  0  0  0  0  0999 V2000
    1.9614   -1.8401    4.3710 C   0  0  0  0  0  0  0  0  0  0  0  0
    1.5384   -2.6130    3.9013 H   0  0  0  0  0  0  0  0  0  0  0  0
    1.6620   -1.8213    5.3238 H   0  0  0  0  0  0  0  0  0  0  0  0
    3.0435   -1.9688    4.3480 H   0  0  0  0  0  0  0  0  0  0  0  0
    1.5171   -0.5585    3.6967 C   0  0  0  0  0  0  0  0  0  0  0  0
    1.5621    0.1966    4.3579 H   0  0  0  0  0  0  0  0  0  0  0  0
    2.1366   -0.3543    2.9319 H   0  0  0  0  0  0  0  0  0  0  0  0
    0.1145   -0.6506    3.1674 N   0  0  0  0  0  4  0  0  0  0  0  0
    0.0051    0.0033    2.4219 H   0  0  0  0  0  0  0  0  0  0  0  0
   -0.0469   -1.5762    2.8331 H   0  0  0  0  0  0  0  0  0  0  0  0
   -0.5246   -0.4388    3.9032 H   0  0  0  0  0  0  0  0  0  0  0  0
    0.0123    2.8837   -0.0505 C   0  0  0  0  0  0  0  0  0  0  0  0
   -0.6710    3.1902   -0.7000 H   0  0  0  0  0  0  0  0  0  0  0  0
    0.9168    3.1864   -0.3184 H   0  0  0  0  0  0  0  0  0  0  0  0
   -0.2167    3.3485    0.9085 H   0  0  0  0  0  0  0  0  0  0  0  0
    0.0027    1.3935   -0.0257 C   0  0  0  0  0  0  0  0  0  0  0  0
   -1.1899    0.6978   -0.0018 C   0  0  0  0  0  0  0  0  0  0  0  0
   -2.0547    1.1895    0.0132 H   0  0  0  0  0  0  0  0  0  0  0  0
   -1.1879   -0.6801    0.0000 C   0  0  0  0  0  0  0  0  0  0  0  0
   -2.0717   -1.1771   -0.0418 H   0  0  0  0  0  0  0  0  0  0  0  0
   -0.0039   -1.3789    0.0594 C   0  0  0  0  0  0  0  0  0  0  0  0
   -0.0199   -2.3789    0.1455 H   0  0  0  0  0  0  0  0  0  0  0  0
    1.1879   -0.7063   -0.0000 C   0  0  0  0  0  0  0  0  0  0  0  0
    2.0680   -1.2101   -0.0194 H   0  0  0  0  0  0  0  0  0  0  0  0
    1.1911    0.6740   -0.0320 C   0  0  0  0  0  0  0  0  0  0  0  0
    2.0639    1.1685   -0.0607 H   0  0  0  0  0  0  0  0  0  0  0  0
  1  5  1  0
  5  8  1  0
  1  2  1  0
  1  3  1  0
  1  4  1  0
  5  6  1  0
  5  7  1  0
  8  9  1  0
  8 10  1  0
  8 11  1  0
 12 16  1  0
 16 17  2  0
 17 19  1  0
 19 21  2  0
 21 23  1  0
 23 25  2  0
 25 16  1  0
 12 13  1  0
 12 14  1  0
 12 15  1  0
 17 18  1  0
 19 20  1  0
 21 22  1  0
 23 24  1  0
 25 26  1  0
M  CHG  1   8   1
M  END
>  <PDB_ID>  (1800) 
pdb4d41

>  <RESIDUE_NAME>  (1800) 
LYS   PHE

>  <FRAG_NAME>  (1800) 
ETAM   MBZ

>  <FRAG_ATOM_NUM>  (1800) 
fragi: 11  fragj: 15

>  <atom.prop.CHAIN_ID>  (1800) 
A A A A A A A A A A A Z Z Z Z Z Z Z Z Z Z Z Z Z Z Z

>  <atom.prop.IS_HEAVY_ATOM>  (1800) 
1 0 0 0 1 0 0 1 0 0 0 1 0 0 0 1 1 0 1 0 1 0 1 0 1 0

>  <DIFUSE_FUNC_ATOM>  (1800) 
n/a

>  <FINAL_SINGLE_POINT_ENERGY>  (1800) 
0

>  <NONCOV_INTER_ENERGY_QM>  (1800) 
0

>  <FF_Energy>  (1800) 
-8.73

>  <QM_Energy>  (1800) 
-16.38

>  <source>  (1800) 
ETAM_MBZ

>  <Index>  (1800) 
18356

$$$$
ETAM-pdb4d42-M-LYS-256:MBZ-pdb4d42-H-PHE-252
     RDKit          3D

 26 25  0  0  0  0  0  0  0  0999 V2000
    2.2300   -1.7411    4.6181 C   0  0  0  0  0  0  0  0  0  0  0  0
    1.6893   -2.5149    4.2920 H   0  0  0  0  0  0  0  0  0  0  0  0
    2.0664   -1.6016    5.5929 H   0  0  0  0  0  0  0  0  0  0  0  0
    3.2874   -1.9545    4.4608 H   0  0  0  0  0  0  0  0  0  0  0  0
    1.7676   -0.4867    3.8714 C   0  0  0  0  0  0  0  0  0  0  0  0
    1.9460    0.3182    4.4469 H   0  0  0  0  0  0  0  0  0  0  0  0
    2.3009   -0.3976    3.0228 H   0  0  0  0  0  0  0  0  0  0  0  0
    0.2997   -0.5130    3.5186 N   0  0  0  0  0  4  0  0  0  0  0  0
    0.1642   -0.0037    2.6735 H   0  0  0  0  0  0  0  0  0  0  0  0
    0.0158   -1.4601    3.3984 H   0  0  0  0  0  0  0  0  0  0  0  0
   -0.2159   -0.0920    4.2598 H   0  0  0  0  0  0  0  0  0  0  0  0
    0.0265    2.9354   -0.0373 C   0  0  0  0  0  0  0  0  0  0  0  0
   -0.5227    3.2186   -0.8060 H   0  0  0  0  0  0  0  0  0  0  0  0
    0.9660    3.2167   -0.1358 H   0  0  0  0  0  0  0  0  0  0  0  0
   -0.3749    3.4128    0.8566 H   0  0  0  0  0  0  0  0  0  0  0  0
    0.0028    1.4131    0.0124 C   0  0  0  0  0  0  0  0  0  0  0  0
   -1.2005    0.7076    0.0121 C   0  0  0  0  0  0  0  0  0  0  0  0
   -2.0644    1.1888    0.0190 H   0  0  0  0  0  0  0  0  0  0  0  0
   -1.2023   -0.7026   -0.0000 C   0  0  0  0  0  0  0  0  0  0  0  0
   -2.0802   -1.1894   -0.0144 H   0  0  0  0  0  0  0  0  0  0  0  0
    0.0027   -1.4040    0.0099 C   0  0  0  0  0  0  0  0  0  0  0  0
   -0.0036   -2.3993    0.0235 H   0  0  0  0  0  0  0  0  0  0  0  0
    1.2023   -0.7048    0.0000 C   0  0  0  0  0  0  0  0  0  0  0  0
    2.0853   -1.1979    0.0193 H   0  0  0  0  0  0  0  0  0  0  0  0
    1.1949    0.6908   -0.0344 C   0  0  0  0  0  0  0  0  0  0  0  0
    2.0658    1.1838   -0.0945 H   0  0  0  0  0  0  0  0  0  0  0  0
  1  5  1  0
  5  8  1  0
  1  2  1  0
  1  3  1  0
  1  4  1  0
  5  6  1  0
  5  7  1  0
  8  9  1  0
  8 10  1  0
  8 11  1  0
 12 16  1  0
 16 17  2  0
 17 19  1  0
 19 21  2  0
 21 23  1  0
 23 25  2  0
 25 16  1  0
 12 13  1  0
 12 14  1  0
 12 15  1  0
 17 18  1  0
 19 20  1  0
 21 22  1  0
 23 24  1  0
 25 26  1  0
M  CHG  1   8   1
M  END
>  <PDB_ID>  (1801) 
pdb4d42

>  <RESIDUE_NAME>  (1801) 
LYS   PHE

>  <FRAG_NAME>  (1801) 
ETAM   MBZ

>  <FRAG_ATOM_NUM>  (1801) 
fragi: 11  fragj: 15

>  <atom.prop.CHAIN_ID>  (1801) 
A A A A A A A A A A A Z Z Z Z Z Z Z Z Z Z Z Z Z Z Z

>  <atom.prop.IS_HEAVY_ATOM>  (1801) 
1 0 0 0 1 0 0 1 0 0 0 1 0 0 0 1 1 0 1 0 1 0 1 0 1 0

>  <DIFUSE_FUNC_ATOM>  (1801) 
n/a

>  <FINAL_SINGLE_POINT_ENERGY>  (1801) 
0

>  <NONCOV_INTER_ENERGY_QM>  (1801) 
0

>  <FF_Energy>  (1801) 
-7.97

>  <QM_Energy>  (1801) 
-14.56

>  <source>  (1801) 
ETAM_MBZ

>  <Index>  (1801) 
18362

$$$$
ETAM-pdb4d42-N-LYS-256:MBZ-pdb4d42-L-PHE-252
     RDKit          3D

 26 25  0  0  0  0  0  0  0  0999 V2000
    2.6624   -1.1673    3.7457 C   0  0  0  0  0  0  0  0  0  0  0  0
    3.1463   -0.2951    3.6024 H   0  0  0  0  0  0  0  0  0  0  0  0
    2.4406   -1.5573    2.8433 H   0  0  0  0  0  0  0  0  0  0  0  0
    3.3353   -1.8525    4.2613 H   0  0  0  0  0  0  0  0  0  0  0  0
    1.3907   -0.9011    4.4852 C   0  0  0  0  0  0  0  0  0  0  0  0
    1.0760   -1.7119    4.9385 H   0  0  0  0  0  0  0  0  0  0  0  0
    1.4969   -0.1425    5.0972 H   0  0  0  0  0  0  0  0  0  0  0  0
    0.3376   -0.5120    3.4326 N   0  0  0  0  0  4  0  0  0  0  0  0
    0.2331   -1.2748    2.8077 H   0  0  0  0  0  0  0  0  0  0  0  0
   -0.5129   -0.3233    3.9059 H   0  0  0  0  0  0  0  0  0  0  0  0
    0.6642    0.2947    2.9563 H   0  0  0  0  0  0  0  0  0  0  0  0
    0.0242    2.9493   -0.0648 C   0  0  0  0  0  0  0  0  0  0  0  0
   -0.5657    3.2230   -0.8065 H   0  0  0  0  0  0  0  0  0  0  0  0
    0.9577    3.2273   -0.2194 H   0  0  0  0  0  0  0  0  0  0  0  0
   -0.3277    3.4339    0.8459 H   0  0  0  0  0  0  0  0  0  0  0  0
    0.0069    1.4166   -0.0091 C   0  0  0  0  0  0  0  0  0  0  0  0
   -1.1887    0.7196   -0.0118 C   0  0  0  0  0  0  0  0  0  0  0  0
   -2.0572    1.1969   -0.0236 H   0  0  0  0  0  0  0  0  0  0  0  0
   -1.2004   -0.7013    0.0000 C   0  0  0  0  0  0  0  0  0  0  0  0
   -2.0859   -1.1746    0.0278 H   0  0  0  0  0  0  0  0  0  0  0  0
   -0.0055   -1.4184   -0.0246 C   0  0  0  0  0  0  0  0  0  0  0  0
   -0.0099   -2.4039   -0.0590 H   0  0  0  0  0  0  0  0  0  0  0  0
    1.2004   -0.7062   -0.0000 C   0  0  0  0  0  0  0  0  0  0  0  0
    2.0821   -1.1988   -0.0133 H   0  0  0  0  0  0  0  0  0  0  0  0
    1.1873    0.6897    0.0455 C   0  0  0  0  0  0  0  0  0  0  0  0
    2.0652    1.1807    0.1197 H   0  0  0  0  0  0  0  0  0  0  0  0
  1  5  1  0
  5  8  1  0
  1  2  1  0
  1  3  1  0
  1  4  1  0
  5  6  1  0
  5  7  1  0
  8  9  1  0
  8 10  1  0
  8 11  1  0
 12 16  1  0
 16 17  2  0
 17 19  1  0
 19 21  2  0
 21 23  1  0
 23 25  2  0
 25 16  1  0
 12 13  1  0
 12 14  1  0
 12 15  1  0
 17 18  1  0
 19 20  1  0
 21 22  1  0
 23 24  1  0
 25 26  1  0
M  CHG  1   8   1
M  END
>  <PDB_ID>  (1802) 
pdb4d42

>  <RESIDUE_NAME>  (1802) 
LYS   PHE

>  <FRAG_NAME>  (1802) 
ETAM   MBZ

>  <FRAG_ATOM_NUM>  (1802) 
fragi: 11  fragj: 15

>  <atom.prop.CHAIN_ID>  (1802) 
A A A A A A A A A A A Z Z Z Z Z Z Z Z Z Z Z Z Z Z Z

>  <atom.prop.IS_HEAVY_ATOM>  (1802) 
1 0 0 0 1 0 0 1 0 0 0 1 0 0 0 1 1 0 1 0 1 0 1 0 1 0

>  <DIFUSE_FUNC_ATOM>  (1802) 
n/a

>  <FINAL_SINGLE_POINT_ENERGY>  (1802) 
0

>  <NONCOV_INTER_ENERGY_QM>  (1802) 
0

>  <FF_Energy>  (1802) 
-7.77

>  <QM_Energy>  (1802) 
-14.27

>  <source>  (1802) 
ETAM_MBZ

>  <Index>  (1802) 
18364

$$$$
ETAM-pdb4d42-H-LYS-256:MBZ-pdb4d42-M-PHE-252
     RDKit          3D

 26 25  0  0  0  0  0  0  0  0999 V2000
    2.0454   -1.6310    4.5694 C   0  0  0  0  0  0  0  0  0  0  0  0
    1.6120   -2.4766    4.2567 H   0  0  0  0  0  0  0  0  0  0  0  0
    1.7447   -1.4290    5.5018 H   0  0  0  0  0  0  0  0  0  0  0  0
    3.1247   -1.7837    4.5815 H   0  0  0  0  0  0  0  0  0  0  0  0
    1.6164   -0.4968    3.6614 C   0  0  0  0  0  0  0  0  0  0  0  0
    1.8658    0.3731    4.0843 H   0  0  0  0  0  0  0  0  0  0  0  0
    2.0804   -0.5886    2.7824 H   0  0  0  0  0  0  0  0  0  0  0  0
    0.1480   -0.5349    3.4470 N   0  0  0  0  0  4  0  0  0  0  0  0
   -0.3141   -0.1124    4.2266 H   0  0  0  0  0  0  0  0  0  0  0  0
   -0.0805   -0.0324    2.6125 H   0  0  0  0  0  0  0  0  0  0  0  0
   -0.1519   -1.4852    3.3564 H   0  0  0  0  0  0  0  0  0  0  0  0
   -0.0036    2.9273   -0.0518 C   0  0  0  0  0  0  0  0  0  0  0  0
   -0.5364    3.2159   -0.8278 H   0  0  0  0  0  0  0  0  0  0  0  0
    0.9311    3.2300   -0.1128 H   0  0  0  0  0  0  0  0  0  0  0  0
   -0.4433    3.3709    0.8414 H   0  0  0  0  0  0  0  0  0  0  0  0
    0.0020    1.4078   -0.0325 C   0  0  0  0  0  0  0  0  0  0  0  0
   -1.1940    0.7093   -0.0327 C   0  0  0  0  0  0  0  0  0  0  0  0
   -2.0593    1.1941   -0.0569 H   0  0  0  0  0  0  0  0  0  0  0  0
   -1.1954   -0.6868    0.0000 C   0  0  0  0  0  0  0  0  0  0  0  0
   -2.0771   -1.1775   -0.0241 H   0  0  0  0  0  0  0  0  0  0  0  0
   -0.0023   -1.3921    0.0667 C   0  0  0  0  0  0  0  0  0  0  0  0
   -0.0236   -2.3889    0.1633 H   0  0  0  0  0  0  0  0  0  0  0  0
    1.1954   -0.7206   -0.0000 C   0  0  0  0  0  0  0  0  0  0  0  0
    2.0733   -1.2132   -0.0467 H   0  0  0  0  0  0  0  0  0  0  0  0
    1.1943    0.6823   -0.0015 C   0  0  0  0  0  0  0  0  0  0  0  0
    2.0677    1.1699    0.0191 H   0  0  0  0  0  0  0  0  0  0  0  0
  1  5  1  0
  5  8  1  0
  1  2  1  0
  1  3  1  0
  1  4  1  0
  5  6  1  0
  5  7  1  0
  8  9  1  0
  8 10  1  0
  8 11  1  0
 12 16  1  0
 16 17  2  0
 17 19  1  0
 19 21  2  0
 21 23  1  0
 23 25  2  0
 25 16  1  0
 12 13  1  0
 12 14  1  0
 12 15  1  0
 17 18  1  0
 19 20  1  0
 21 22  1  0
 23 24  1  0
 25 26  1  0
M  CHG  1   8   1
M  END
>  <PDB_ID>  (1803) 
pdb4d42

>  <RESIDUE_NAME>  (1803) 
LYS   PHE

>  <FRAG_NAME>  (1803) 
ETAM   MBZ

>  <FRAG_ATOM_NUM>  (1803) 
fragi: 11  fragj: 15

>  <atom.prop.CHAIN_ID>  (1803) 
A A A A A A A A A A A Z Z Z Z Z Z Z Z Z Z Z Z Z Z Z

>  <atom.prop.IS_HEAVY_ATOM>  (1803) 
1 0 0 0 1 0 0 1 0 0 0 1 0 0 0 1 1 0 1 0 1 0 1 0 1 0

>  <DIFUSE_FUNC_ATOM>  (1803) 
n/a

>  <FINAL_SINGLE_POINT_ENERGY>  (1803) 
0

>  <NONCOV_INTER_ENERGY_QM>  (1803) 
0

>  <FF_Energy>  (1803) 
-8.19

>  <QM_Energy>  (1803) 
-15.0

>  <source>  (1803) 
ETAM_MBZ

>  <Index>  (1803) 
18366

$$$$
ETAM-pdb4d05-B-LYS-239:MBZ-pdb4d05-B-PHE-236
     RDKit          3D

 26 25  0  0  0  0  0  0  0  0999 V2000
    3.9050   -2.7799    3.6246 C   0  0  0  0  0  0  0  0  0  0  0  0
    4.5691   -3.4859    3.5901 H   0  0  0  0  0  0  0  0  0  0  0  0
    3.8204   -2.4522    4.5343 H   0  0  0  0  0  0  0  0  0  0  0  0
    4.2306   -1.9596    2.9850 H   0  0  0  0  0  0  0  0  0  0  0  0
    2.5849   -3.3698    3.2255 C   0  0  0  0  0  0  0  0  0  0  0  0
    2.6467   -3.7236    2.3244 H   0  0  0  0  0  0  0  0  0  0  0  0
    2.3398   -4.0701    3.8497 H   0  0  0  0  0  0  0  0  0  0  0  0
    1.5339   -2.3246    3.2505 N   0  0  0  0  0  4  0  0  0  0  0  0
    1.7414   -1.6708    2.6833 H   0  0  0  0  0  0  0  0  0  0  0  0
    0.7510   -2.6755    3.0136 H   0  0  0  0  0  0  0  0  0  0  0  0
    1.4623   -1.9853    4.0704 H   0  0  0  0  0  0  0  0  0  0  0  0
   -0.0022    2.8924   -0.0288 C   0  0  0  0  0  0  0  0  0  0  0  0
    0.8567    3.1934    0.3071 H   0  0  0  0  0  0  0  0  0  0  0  0
   -0.7103    3.2000    0.5582 H   0  0  0  0  0  0  0  0  0  0  0  0
   -0.1593    3.3154   -1.0210 H   0  0  0  0  0  0  0  0  0  0  0  0
   -0.0035    1.3936   -0.0010 C   0  0  0  0  0  0  0  0  0  0  0  0
   -1.1929    0.6925    0.0040 C   0  0  0  0  0  0  0  0  0  0  0  0
   -1.9990    1.1571   -0.0057 H   0  0  0  0  0  0  0  0  0  0  0  0
   -1.2015   -0.6972    0.0000 C   0  0  0  0  0  0  0  0  0  0  0  0
   -2.0074   -1.1613    0.0049 H   0  0  0  0  0  0  0  0  0  0  0  0
    0.0063   -1.3890   -0.0029 C   0  0  0  0  0  0  0  0  0  0  0  0
    0.0116   -2.3193    0.0082 H   0  0  0  0  0  0  0  0  0  0  0  0
    1.2015   -0.6858    0.0000 C   0  0  0  0  0  0  0  0  0  0  0  0
    2.0107   -1.1445    0.0020 H   0  0  0  0  0  0  0  0  0  0  0  0
    1.1900    0.6858   -0.0001 C   0  0  0  0  0  0  0  0  0  0  0  0
    1.9960    1.1496   -0.0081 H   0  0  0  0  0  0  0  0  0  0  0  0
  1  5  1  0
  5  8  1  0
  1  2  1  0
  1  3  1  0
  1  4  1  0
  5  6  1  0
  5  7  1  0
  8  9  1  0
  8 10  1  0
  8 11  1  0
 12 16  1  0
 16 17  2  0
 17 19  1  0
 19 21  2  0
 21 23  1  0
 23 25  2  0
 25 16  1  0
 12 13  1  0
 12 14  1  0
 12 15  1  0
 17 18  1  0
 19 20  1  0
 21 22  1  0
 23 24  1  0
 25 26  1  0
M  CHG  1   8   1
M  END
>  <PDB_ID>  (1804) 
pdb4d05

>  <RESIDUE_NAME>  (1804) 
LYS   PHE

>  <FRAG_NAME>  (1804) 
ETAM   MBZ

>  <FRAG_ATOM_NUM>  (1804) 
fragi: 11  fragj: 15

>  <atom.prop.CHAIN_ID>  (1804) 
A A A A A A A A A A A Z Z Z Z Z Z Z Z Z Z Z Z Z Z Z

>  <atom.prop.IS_HEAVY_ATOM>  (1804) 
1 0 0 0 1 0 0 1 0 0 0 1 0 0 0 1 1 0 1 0 1 0 1 0 1 0

>  <DIFUSE_FUNC_ATOM>  (1804) 
n/a

>  <FINAL_SINGLE_POINT_ENERGY>  (1804) 
0

>  <NONCOV_INTER_ENERGY_QM>  (1804) 
0

>  <FF_Energy>  (1804) 
-3.04

>  <QM_Energy>  (1804) 
-8.5

>  <source>  (1804) 
ETAM_MBZ

>  <Index>  (1804) 
18370

$$$$
ETAM-pdb3gos-B-LYS-263:MBZ-pdb3gos-B-PHE-183
     RDKit          3D

 26 25  0  0  0  0  0  0  0  0999 V2000
   -3.9087   -2.3789   -0.9145 C   0  0  0  0  0  0  0  0  0  0  0  0
   -3.3178   -2.0530   -1.6520 H   0  0  0  0  0  0  0  0  0  0  0  0
   -3.5599   -2.0533   -0.0360 H   0  0  0  0  0  0  0  0  0  0  0  0
   -4.9161   -1.9912   -1.0663 H   0  0  0  0  0  0  0  0  0  0  0  0
   -3.8467   -3.9219   -0.9054 C   0  0  0  0  0  0  0  0  0  0  0  0
   -4.3595   -4.2515   -0.1126 H   0  0  0  0  0  0  0  0  0  0  0  0
   -4.2794   -4.2580   -1.7433 H   0  0  0  0  0  0  0  0  0  0  0  0
   -2.4477   -4.4091   -0.8343 N   0  0  0  0  0  4  0  0  0  0  0  0
   -2.4446   -5.4072   -0.7698 H   0  0  0  0  0  0  0  0  0  0  0  0
   -1.9536   -4.1270   -1.6572 H   0  0  0  0  0  0  0  0  0  0  0  0
   -1.9992   -4.0222   -0.0279 H   0  0  0  0  0  0  0  0  0  0  0  0
    0.0111    2.8674    0.0795 C   0  0  0  0  0  0  0  0  0  0  0  0
   -0.8194    3.2159   -0.3184 H   0  0  0  0  0  0  0  0  0  0  0  0
    0.8131    3.2087   -0.3791 H   0  0  0  0  0  0  0  0  0  0  0  0
    0.0507    3.2511    1.0990 H   0  0  0  0  0  0  0  0  0  0  0  0
    0.0022    1.3893    0.0162 C   0  0  0  0  0  0  0  0  0  0  0  0
   -1.1757    0.7095   -0.0087 C   0  0  0  0  0  0  0  0  0  0  0  0
   -2.0471    1.1946   -0.0346 H   0  0  0  0  0  0  0  0  0  0  0  0
   -1.1860   -0.6806    0.0000 C   0  0  0  0  0  0  0  0  0  0  0  0
   -2.0839   -1.1560    0.0199 H   0  0  0  0  0  0  0  0  0  0  0  0
   -0.0267   -1.3736   -0.0160 C   0  0  0  0  0  0  0  0  0  0  0  0
   -0.0324   -2.3826   -0.0406 H   0  0  0  0  0  0  0  0  0  0  0  0
    1.1860   -0.7053    0.0000 C   0  0  0  0  0  0  0  0  0  0  0  0
    2.0541   -1.2274    0.0064 H   0  0  0  0  0  0  0  0  0  0  0  0
    1.2002    0.6608    0.0085 C   0  0  0  0  0  0  0  0  0  0  0  0
    2.0679    1.1614    0.0082 H   0  0  0  0  0  0  0  0  0  0  0  0
  1  5  1  0
  5  8  1  0
  1  2  1  0
  1  3  1  0
  1  4  1  0
  5  6  1  0
  5  7  1  0
  8  9  1  0
  8 10  1  0
  8 11  1  0
 12 16  1  0
 16 17  2  0
 17 19  1  0
 19 21  2  0
 21 23  1  0
 23 25  2  0
 25 16  1  0
 12 13  1  0
 12 14  1  0
 12 15  1  0
 17 18  1  0
 19 20  1  0
 21 22  1  0
 23 24  1  0
 25 26  1  0
M  CHG  1   8   1
M  END
>  <PDB_ID>  (1805) 
pdb3gos

>  <RESIDUE_NAME>  (1805) 
LYS   PHE

>  <FRAG_NAME>  (1805) 
ETAM   MBZ

>  <FRAG_ATOM_NUM>  (1805) 
fragi: 11  fragj: 15

>  <atom.prop.CHAIN_ID>  (1805) 
A A A A A A A A A A A Z Z Z Z Z Z Z Z Z Z Z Z Z Z Z

>  <atom.prop.IS_HEAVY_ATOM>  (1805) 
1 0 0 0 1 0 0 1 0 0 0 1 0 0 0 1 1 0 1 0 1 0 1 0 1 0

>  <DIFUSE_FUNC_ATOM>  (1805) 
n/a

>  <FINAL_SINGLE_POINT_ENERGY>  (1805) 
0

>  <NONCOV_INTER_ENERGY_QM>  (1805) 
0

>  <FF_Energy>  (1805) 
8.24

>  <QM_Energy>  (1805) 
-0.7

>  <source>  (1805) 
ETAM_MBZ

>  <Index>  (1805) 
18372

$$$$
ETAM-pdb4d6v-A-LYS-283:MBZ-pdb4d6v-A-PHE-274
     RDKit          3D

 26 25  0  0  0  0  0  0  0  0999 V2000
    3.9695   -0.1092    2.2488 C   0  0  0  0  0  0  0  0  0  0  0  0
    4.6759   -0.2506    2.9347 H   0  0  0  0  0  0  0  0  0  0  0  0
    3.8805   -0.9126    1.6701 H   0  0  0  0  0  0  0  0  0  0  0  0
    3.0199    0.0720    2.7523 H   0  0  0  0  0  0  0  0  0  0  0  0
    4.3670    1.0723    1.3789 C   0  0  0  0  0  0  0  0  0  0  0  0
    3.5784    1.3454    0.8213 H   0  0  0  0  0  0  0  0  0  0  0  0
    4.6255    1.8404    1.9719 H   0  0  0  0  0  0  0  0  0  0  0  0
    5.5088    0.7427    0.4815 N   0  0  0  0  0  4  0  0  0  0  0  0
    5.1731    0.6289   -0.4529 H   0  0  0  0  0  0  0  0  0  0  0  0
    6.1768    1.4851    0.5091 H   0  0  0  0  0  0  0  0  0  0  0  0
    5.9375   -0.1062    0.7894 H   0  0  0  0  0  0  0  0  0  0  0  0
   -0.0005    2.8965    0.0002 C   0  0  0  0  0  0  0  0  0  0  0  0
    0.8492    3.2037    0.4015 H   0  0  0  0  0  0  0  0  0  0  0  0
   -0.7783    3.2036    0.5277 H   0  0  0  0  0  0  0  0  0  0  0  0
   -0.0777    3.3362   -0.9942 H   0  0  0  0  0  0  0  0  0  0  0  0
   -0.0004    1.3950   -0.0000 C   0  0  0  0  0  0  0  0  0  0  0  0
   -1.1913    0.6884   -0.0006 C   0  0  0  0  0  0  0  0  0  0  0  0
   -2.0605    1.1799   -0.0022 H   0  0  0  0  0  0  0  0  0  0  0  0
   -1.1949   -0.6939    0.0000 C   0  0  0  0  0  0  0  0  0  0  0  0
   -2.0727   -1.1900    0.0010 H   0  0  0  0  0  0  0  0  0  0  0  0
    0.0007   -1.3853    0.0005 C   0  0  0  0  0  0  0  0  0  0  0  0
   -0.0031   -2.3865    0.0002 H   0  0  0  0  0  0  0  0  0  0  0  0
    1.1949   -0.6928   -0.0000 C   0  0  0  0  0  0  0  0  0  0  0  0
    2.0782   -1.1925    0.0006 H   0  0  0  0  0  0  0  0  0  0  0  0
    1.1911    0.6886    0.0000 C   0  0  0  0  0  0  0  0  0  0  0  0
    2.0607    1.1879   -0.0004 H   0  0  0  0  0  0  0  0  0  0  0  0
  1  5  1  0
  5  8  1  0
  1  2  1  0
  1  3  1  0
  1  4  1  0
  5  6  1  0
  5  7  1  0
  8  9  1  0
  8 10  1  0
  8 11  1  0
 12 16  1  0
 16 17  2  0
 17 19  1  0
 19 21  2  0
 21 23  1  0
 23 25  2  0
 25 16  1  0
 12 13  1  0
 12 14  1  0
 12 15  1  0
 17 18  1  0
 19 20  1  0
 21 22  1  0
 23 24  1  0
 25 26  1  0
M  CHG  1   8   1
M  END
>  <PDB_ID>  (1806) 
pdb4d6v

>  <RESIDUE_NAME>  (1806) 
LYS   PHE

>  <FRAG_NAME>  (1806) 
ETAM   MBZ

>  <FRAG_ATOM_NUM>  (1806) 
fragi: 11  fragj: 15

>  <atom.prop.CHAIN_ID>  (1806) 
A A A A A A A A A A A Z Z Z Z Z Z Z Z Z Z Z Z Z Z Z

>  <atom.prop.IS_HEAVY_ATOM>  (1806) 
1 0 0 0 1 0 0 1 0 0 0 1 0 0 0 1 1 0 1 0 1 0 1 0 1 0

>  <DIFUSE_FUNC_ATOM>  (1806) 
n/a

>  <FINAL_SINGLE_POINT_ENERGY>  (1806) 
0

>  <NONCOV_INTER_ENERGY_QM>  (1806) 
0

>  <FF_Energy>  (1806) 
6.13

>  <QM_Energy>  (1806) 
-1.61

>  <source>  (1806) 
ETAM_MBZ

>  <Index>  (1806) 
18383

$$$$
ETAM-pdb3gq7-A-LYS-101:MBZ-pdb3gq7-A-PHE-132
     RDKit          3D

 26 25  0  0  0  0  0  0  0  0999 V2000
    2.3785   -0.5804   -4.1399 C   0  0  0  0  0  0  0  0  0  0  0  0
    3.0150   -1.3323   -4.2665 H   0  0  0  0  0  0  0  0  0  0  0  0
    2.6535   -0.0122   -3.3736 H   0  0  0  0  0  0  0  0  0  0  0  0
    2.3610    0.0265   -5.0452 H   0  0  0  0  0  0  0  0  0  0  0  0
    1.0048   -1.1506   -3.8525 C   0  0  0  0  0  0  0  0  0  0  0  0
    0.4754   -0.4818   -3.3297 H   0  0  0  0  0  0  0  0  0  0  0  0
    0.5404   -1.3387   -4.7180 H   0  0  0  0  0  0  0  0  0  0  0  0
    1.1093   -2.4113   -3.0703 N   0  0  0  0  0  4  0  0  0  0  0  0
    0.7590   -2.2590   -2.1464 H   0  0  0  0  0  0  0  0  0  0  0  0
    0.5714   -3.1254   -3.5178 H   0  0  0  0  0  0  0  0  0  0  0  0
    2.0675   -2.6941   -3.0227 H   0  0  0  0  0  0  0  0  0  0  0  0
   -0.0039    2.9110   -0.0068 C   0  0  0  0  0  0  0  0  0  0  0  0
   -0.8847    3.2135   -0.3416 H   0  0  0  0  0  0  0  0  0  0  0  0
    0.7284    3.2150   -0.6001 H   0  0  0  0  0  0  0  0  0  0  0  0
    0.1526    3.3626    0.9728 H   0  0  0  0  0  0  0  0  0  0  0  0
   -0.0013    1.4058    0.0001 C   0  0  0  0  0  0  0  0  0  0  0  0
   -1.1989    0.6967    0.0016 C   0  0  0  0  0  0  0  0  0  0  0  0
   -2.0663    1.1830    0.0027 H   0  0  0  0  0  0  0  0  0  0  0  0
   -1.2054   -0.7052    0.0000 C   0  0  0  0  0  0  0  0  0  0  0  0
   -2.0785   -1.1956   -0.0001 H   0  0  0  0  0  0  0  0  0  0  0  0
    0.0039   -1.3987    0.0004 C   0  0  0  0  0  0  0  0  0  0  0  0
    0.0017   -2.3971    0.0003 H   0  0  0  0  0  0  0  0  0  0  0  0
    1.2054   -0.6983   -0.0000 C   0  0  0  0  0  0  0  0  0  0  0  0
    2.0876   -1.1907    0.0026 H   0  0  0  0  0  0  0  0  0  0  0  0
    1.1963    0.6996   -0.0022 C   0  0  0  0  0  0  0  0  0  0  0  0
    2.0650    1.1951   -0.0065 H   0  0  0  0  0  0  0  0  0  0  0  0
  1  5  1  0
  5  8  1  0
  1  2  1  0
  1  3  1  0
  1  4  1  0
  5  6  1  0
  5  7  1  0
  8  9  1  0
  8 10  1  0
  8 11  1  0
 12 16  1  0
 16 17  2  0
 17 19  1  0
 19 21  2  0
 21 23  1  0
 23 25  2  0
 25 16  1  0
 12 13  1  0
 12 14  1  0
 12 15  1  0
 17 18  1  0
 19 20  1  0
 21 22  1  0
 23 24  1  0
 25 26  1  0
M  CHG  1   8   1
M  END
>  <PDB_ID>  (1807) 
pdb3gq7

>  <RESIDUE_NAME>  (1807) 
LYS   PHE

>  <FRAG_NAME>  (1807) 
ETAM   MBZ

>  <FRAG_ATOM_NUM>  (1807) 
fragi: 11  fragj: 15

>  <atom.prop.CHAIN_ID>  (1807) 
A A A A A A A A A A A Z Z Z Z Z Z Z Z Z Z Z Z Z Z Z

>  <atom.prop.IS_HEAVY_ATOM>  (1807) 
1 0 0 0 1 0 0 1 0 0 0 1 0 0 0 1 1 0 1 0 1 0 1 0 1 0

>  <DIFUSE_FUNC_ATOM>  (1807) 
n/a

>  <FINAL_SINGLE_POINT_ENERGY>  (1807) 
0

>  <NONCOV_INTER_ENERGY_QM>  (1807) 
0

>  <FF_Energy>  (1807) 
-4.57

>  <QM_Energy>  (1807) 
-12.31

>  <source>  (1807) 
ETAM_MBZ

>  <Index>  (1807) 
18385

$$$$
ETAM-pdb3gn6-B-LYS-78:MBZ-pdb3gn6-B-PHE-118
     RDKit          3D

 26 25  0  0  0  0  0  0  0  0999 V2000
   -3.1668   -1.4445   -2.7486 C   0  0  0  0  0  0  0  0  0  0  0  0
   -2.7674   -2.1333   -2.1525 H   0  0  0  0  0  0  0  0  0  0  0  0
   -3.4763   -1.8592   -3.5972 H   0  0  0  0  0  0  0  0  0  0  0  0
   -4.0138   -0.9807   -2.2430 H   0  0  0  0  0  0  0  0  0  0  0  0
   -2.1008   -0.4165   -3.0755 C   0  0  0  0  0  0  0  0  0  0  0  0
   -2.5202    0.3263   -3.6281 H   0  0  0  0  0  0  0  0  0  0  0  0
   -1.7758    0.0083   -2.2105 H   0  0  0  0  0  0  0  0  0  0  0  0
   -0.9149   -0.9506   -3.8182 N   0  0  0  0  0  4  0  0  0  0  0  0
   -1.1830   -1.1550   -4.7582 H   0  0  0  0  0  0  0  0  0  0  0  0
   -0.1906   -0.2637   -3.8140 H   0  0  0  0  0  0  0  0  0  0  0  0
   -0.5962   -1.7823   -3.3689 H   0  0  0  0  0  0  0  0  0  0  0  0
    0.0244    2.8813   -0.1070 C   0  0  0  0  0  0  0  0  0  0  0  0
   -0.5236    3.1415   -0.8987 H   0  0  0  0  0  0  0  0  0  0  0  0
    0.9692    3.1729   -0.2377 H   0  0  0  0  0  0  0  0  0  0  0  0
   -0.3681    3.4228    0.7538 H   0  0  0  0  0  0  0  0  0  0  0  0
    0.0060    1.3984    0.0068 C   0  0  0  0  0  0  0  0  0  0  0  0
   -1.1929    0.7047   -0.0025 C   0  0  0  0  0  0  0  0  0  0  0  0
   -2.0565    1.2002   -0.0121 H   0  0  0  0  0  0  0  0  0  0  0  0
   -1.2073   -0.6864   -0.0000 C   0  0  0  0  0  0  0  0  0  0  0  0
   -2.0919   -1.1710   -0.0009 H   0  0  0  0  0  0  0  0  0  0  0  0
   -0.0194   -1.3913    0.0052 C   0  0  0  0  0  0  0  0  0  0  0  0
   -0.0237   -2.3899    0.0121 H   0  0  0  0  0  0  0  0  0  0  0  0
    1.2073   -0.7038    0.0000 C   0  0  0  0  0  0  0  0  0  0  0  0
    2.0725   -1.2164    0.0044 H   0  0  0  0  0  0  0  0  0  0  0  0
    1.2064    0.6783   -0.0095 C   0  0  0  0  0  0  0  0  0  0  0  0
    2.0730    1.1785   -0.0290 H   0  0  0  0  0  0  0  0  0  0  0  0
  1  5  1  0
  5  8  1  0
  1  2  1  0
  1  3  1  0
  1  4  1  0
  5  6  1  0
  5  7  1  0
  8  9  1  0
  8 10  1  0
  8 11  1  0
 12 16  1  0
 16 17  2  0
 17 19  1  0
 19 21  2  0
 21 23  1  0
 23 25  2  0
 25 16  1  0
 12 13  1  0
 12 14  1  0
 12 15  1  0
 17 18  1  0
 19 20  1  0
 21 22  1  0
 23 24  1  0
 25 26  1  0
M  CHG  1   8   1
M  END
>  <PDB_ID>  (1808) 
pdb3gn6

>  <RESIDUE_NAME>  (1808) 
LYS   PHE

>  <FRAG_NAME>  (1808) 
ETAM   MBZ

>  <FRAG_ATOM_NUM>  (1808) 
fragi: 11  fragj: 15

>  <atom.prop.CHAIN_ID>  (1808) 
A A A A A A A A A A A Z Z Z Z Z Z Z Z Z Z Z Z Z Z Z

>  <atom.prop.IS_HEAVY_ATOM>  (1808) 
1 0 0 0 1 0 0 1 0 0 0 1 0 0 0 1 1 0 1 0 1 0 1 0 1 0

>  <DIFUSE_FUNC_ATOM>  (1808) 
n/a

>  <FINAL_SINGLE_POINT_ENERGY>  (1808) 
0

>  <NONCOV_INTER_ENERGY_QM>  (1808) 
0

>  <FF_Energy>  (1808) 
-1.39

>  <QM_Energy>  (1808) 
-8.48

>  <source>  (1808) 
ETAM_MBZ

>  <Index>  (1808) 
18391

$$$$
ETAM-pdb3gk3-B-LYS-103:MBZ-pdb3gk3-A-PHE-66
     RDKit          3D

 26 25  0  0  0  0  0  0  0  0999 V2000
    0.7843    1.6299   -3.6858 C   0  0  0  0  0  0  0  0  0  0  0  0
    1.2015    2.1606   -4.4250 H   0  0  0  0  0  0  0  0  0  0  0  0
    0.4379    2.2534   -2.9832 H   0  0  0  0  0  0  0  0  0  0  0  0
   -0.0514    1.0602   -4.0922 H   0  0  0  0  0  0  0  0  0  0  0  0
    1.8442    0.7452   -3.0670 C   0  0  0  0  0  0  0  0  0  0  0  0
    1.4357    0.2144   -2.3243 H   0  0  0  0  0  0  0  0  0  0  0  0
    2.1994    0.1217   -3.7641 H   0  0  0  0  0  0  0  0  0  0  0  0
    2.9609    1.5623   -2.5293 N   0  0  0  0  0  4  0  0  0  0  0  0
    3.0347    2.4117   -3.0524 H   0  0  0  0  0  0  0  0  0  0  0  0
    2.7832    1.7776   -1.5685 H   0  0  0  0  0  0  0  0  0  0  0  0
    3.8159    1.0499   -2.6029 H   0  0  0  0  0  0  0  0  0  0  0  0
    0.0170    2.9215    0.0512 C   0  0  0  0  0  0  0  0  0  0  0  0
   -0.8254    3.2591   -0.3176 H   0  0  0  0  0  0  0  0  0  0  0  0
    0.8029    3.2478   -0.4342 H   0  0  0  0  0  0  0  0  0  0  0  0
    0.0925    3.3034    1.0693 H   0  0  0  0  0  0  0  0  0  0  0  0
    0.0028    1.4125   -0.0117 C   0  0  0  0  0  0  0  0  0  0  0  0
   -1.2025    0.6999    0.0088 C   0  0  0  0  0  0  0  0  0  0  0  0
   -2.0652    1.1832    0.0286 H   0  0  0  0  0  0  0  0  0  0  0  0
   -1.1989   -0.7031   -0.0000 C   0  0  0  0  0  0  0  0  0  0  0  0
   -2.0728   -1.1975   -0.0012 H   0  0  0  0  0  0  0  0  0  0  0  0
    0.0106   -1.3986   -0.0057 C   0  0  0  0  0  0  0  0  0  0  0  0
    0.0008   -2.3979   -0.0144 H   0  0  0  0  0  0  0  0  0  0  0  0
    1.1989   -0.7048   -0.0000 C   0  0  0  0  0  0  0  0  0  0  0  0
    2.0872   -1.1910   -0.0009 H   0  0  0  0  0  0  0  0  0  0  0  0
    1.1891    0.6941    0.0086 C   0  0  0  0  0  0  0  0  0  0  0  0
    2.0656    1.1858    0.0291 H   0  0  0  0  0  0  0  0  0  0  0  0
  1  5  1  0
  5  8  1  0
  1  2  1  0
  1  3  1  0
  1  4  1  0
  5  6  1  0
  5  7  1  0
  8  9  1  0
  8 10  1  0
  8 11  1  0
 12 16  1  0
 16 17  2  0
 17 19  1  0
 19 21  2  0
 21 23  1  0
 23 25  2  0
 25 16  1  0
 12 13  1  0
 12 14  1  0
 12 15  1  0
 17 18  1  0
 19 20  1  0
 21 22  1  0
 23 24  1  0
 25 26  1  0
M  CHG  1   8   1
M  END
>  <PDB_ID>  (1809) 
pdb3gk3

>  <RESIDUE_NAME>  (1809) 
LYS   PHE

>  <FRAG_NAME>  (1809) 
ETAM   MBZ

>  <FRAG_ATOM_NUM>  (1809) 
fragi: 11  fragj: 15

>  <atom.prop.CHAIN_ID>  (1809) 
A A A A A A A A A A A Z Z Z Z Z Z Z Z Z Z Z Z Z Z Z

>  <atom.prop.IS_HEAVY_ATOM>  (1809) 
1 0 0 0 1 0 0 1 0 0 0 1 0 0 0 1 1 0 1 0 1 0 1 0 1 0

>  <DIFUSE_FUNC_ATOM>  (1809) 
n/a

>  <FINAL_SINGLE_POINT_ENERGY>  (1809) 
0

>  <NONCOV_INTER_ENERGY_QM>  (1809) 
0

>  <FF_Energy>  (1809) 
-0.02

>  <QM_Energy>  (1809) 
-7.9

>  <source>  (1809) 
ETAM_MBZ

>  <Index>  (1809) 
18409

$$$$
ETAM-pdb3gr6-D-LYS-26:MBZ-pdb3gr6-D-PHE-22
     RDKit          3D

 26 25  0  0  0  0  0  0  0  0999 V2000
    1.3994   -1.3181    3.0724 C   0  0  0  0  0  0  0  0  0  0  0  0
    1.6609   -2.1403    2.5485 H   0  0  0  0  0  0  0  0  0  0  0  0
    0.6730   -0.8390    2.5609 H   0  0  0  0  0  0  0  0  0  0  0  0
    1.0605   -1.5860    4.0731 H   0  0  0  0  0  0  0  0  0  0  0  0
    2.6525   -0.3652    3.0398 C   0  0  0  0  0  0  0  0  0  0  0  0
    2.5660    0.2060    2.1922 H   0  0  0  0  0  0  0  0  0  0  0  0
    2.5447    0.2905    3.8224 H   0  0  0  0  0  0  0  0  0  0  0  0
    3.9847   -0.9855    3.0890 N   0  0  0  0  0  4  0  0  0  0  0  0
    4.2913   -1.2076    2.1607 H   0  0  0  0  0  0  0  0  0  0  0  0
    4.6400   -0.3529    3.5082 H   0  0  0  0  0  0  0  0  0  0  0  0
    3.9489   -1.8269    3.6332 H   0  0  0  0  0  0  0  0  0  0  0  0
   -0.0018    2.9100    0.0210 C   0  0  0  0  0  0  0  0  0  0  0  0
   -0.4713    3.2308   -0.7834 H   0  0  0  0  0  0  0  0  0  0  0  0
    0.9368    3.2083    0.0427 H   0  0  0  0  0  0  0  0  0  0  0  0
   -0.5100    3.3115    0.8977 H   0  0  0  0  0  0  0  0  0  0  0  0
   -0.0035    1.4011   -0.0164 C   0  0  0  0  0  0  0  0  0  0  0  0
   -1.2000    0.6985   -0.0157 C   0  0  0  0  0  0  0  0  0  0  0  0
   -2.0637    1.1990   -0.0284 H   0  0  0  0  0  0  0  0  0  0  0  0
   -1.2042   -0.6697    0.0000 C   0  0  0  0  0  0  0  0  0  0  0  0
   -2.0786   -1.1782    0.0161 H   0  0  0  0  0  0  0  0  0  0  0  0
    0.0052   -1.3885   -0.0045 C   0  0  0  0  0  0  0  0  0  0  0  0
   -0.0280   -2.3885   -0.0114 H   0  0  0  0  0  0  0  0  0  0  0  0
    1.2042   -0.7202    0.0000 C   0  0  0  0  0  0  0  0  0  0  0  0
    2.0824   -1.2115   -0.0213 H   0  0  0  0  0  0  0  0  0  0  0  0
    1.1983    0.6788    0.0366 C   0  0  0  0  0  0  0  0  0  0  0  0
    2.0637    1.1733    0.1003 H   0  0  0  0  0  0  0  0  0  0  0  0
  1  5  1  0
  5  8  1  0
  1  2  1  0
  1  3  1  0
  1  4  1  0
  5  6  1  0
  5  7  1  0
  8  9  1  0
  8 10  1  0
  8 11  1  0
 12 16  1  0
 16 17  2  0
 17 19  1  0
 19 21  2  0
 21 23  1  0
 23 25  2  0
 25 16  1  0
 12 13  1  0
 12 14  1  0
 12 15  1  0
 17 18  1  0
 19 20  1  0
 21 22  1  0
 23 24  1  0
 25 26  1  0
M  CHG  1   8   1
M  END
>  <PDB_ID>  (1810) 
pdb3gr6

>  <RESIDUE_NAME>  (1810) 
LYS   PHE

>  <FRAG_NAME>  (1810) 
ETAM   MBZ

>  <FRAG_ATOM_NUM>  (1810) 
fragi: 11  fragj: 15

>  <atom.prop.CHAIN_ID>  (1810) 
A A A A A A A A A A A Z Z Z Z Z Z Z Z Z Z Z Z Z Z Z

>  <atom.prop.IS_HEAVY_ATOM>  (1810) 
1 0 0 0 1 0 0 1 0 0 0 1 0 0 0 1 1 0 1 0 1 0 1 0 1 0

>  <DIFUSE_FUNC_ATOM>  (1810) 
n/a

>  <FINAL_SINGLE_POINT_ENERGY>  (1810) 
0

>  <NONCOV_INTER_ENERGY_QM>  (1810) 
0

>  <FF_Energy>  (1810) 
-0.09

>  <QM_Energy>  (1810) 
-5.5

>  <source>  (1810) 
ETAM_MBZ

>  <Index>  (1810) 
18417

$$$$
ETAM-pdb3gr9-A-LYS-171:MBZ-pdb3gr9-A-PHE-176
     RDKit          3D

 26 25  0  0  0  0  0  0  0  0999 V2000
    0.4496   -0.4535    3.1985 C   0  0  0  0  0  0  0  0  0  0  0  0
    0.6409   -0.5847    2.2312 H   0  0  0  0  0  0  0  0  0  0  0  0
   -0.4480   -0.0435    3.3212 H   0  0  0  0  0  0  0  0  0  0  0  0
    0.5086   -1.4040    3.7287 H   0  0  0  0  0  0  0  0  0  0  0  0
    1.4807    0.5061    3.7520 C   0  0  0  0  0  0  0  0  0  0  0  0
    2.3962    0.1050    3.6505 H   0  0  0  0  0  0  0  0  0  0  0  0
    1.4478    1.3662    3.2335 H   0  0  0  0  0  0  0  0  0  0  0  0
    1.2533    0.8178    5.2088 N   0  0  0  0  0  4  0  0  0  0  0  0
    0.3754    0.4366    5.4866 H   0  0  0  0  0  0  0  0  0  0  0  0
    1.9886    0.4098    5.7445 H   0  0  0  0  0  0  0  0  0  0  0  0
    1.2504    1.8069    5.3298 H   0  0  0  0  0  0  0  0  0  0  0  0
    0.0162    2.8790    0.0341 C   0  0  0  0  0  0  0  0  0  0  0  0
   -0.7503    3.2112   -0.4940 H   0  0  0  0  0  0  0  0  0  0  0  0
    0.8754    3.1927   -0.3405 H   0  0  0  0  0  0  0  0  0  0  0  0
   -0.0738    3.3011    1.0350 H   0  0  0  0  0  0  0  0  0  0  0  0
    0.0021    1.3825   -0.0002 C   0  0  0  0  0  0  0  0  0  0  0  0
   -1.2055    0.6989    0.0063 C   0  0  0  0  0  0  0  0  0  0  0  0
   -2.0603    1.2061    0.0137 H   0  0  0  0  0  0  0  0  0  0  0  0
   -1.2166   -0.6703    0.0000 C   0  0  0  0  0  0  0  0  0  0  0  0
   -2.0825   -1.1796   -0.0052 H   0  0  0  0  0  0  0  0  0  0  0  0
    0.0063   -1.3833    0.0027 C   0  0  0  0  0  0  0  0  0  0  0  0
   -0.0201   -2.3829    0.0061 H   0  0  0  0  0  0  0  0  0  0  0  0
    1.2166   -0.7063   -0.0000 C   0  0  0  0  0  0  0  0  0  0  0  0
    2.0876   -1.2029    0.0058 H   0  0  0  0  0  0  0  0  0  0  0  0
    1.1972    0.6786   -0.0088 C   0  0  0  0  0  0  0  0  0  0  0  0
    2.0658    1.1835   -0.0223 H   0  0  0  0  0  0  0  0  0  0  0  0
  1  5  1  0
  5  8  1  0
  1  2  1  0
  1  3  1  0
  1  4  1  0
  5  6  1  0
  5  7  1  0
  8  9  1  0
  8 10  1  0
  8 11  1  0
 12 16  1  0
 16 17  2  0
 17 19  1  0
 19 21  2  0
 21 23  1  0
 23 25  2  0
 25 16  1  0
 12 13  1  0
 12 14  1  0
 12 15  1  0
 17 18  1  0
 19 20  1  0
 21 22  1  0
 23 24  1  0
 25 26  1  0
M  CHG  1   8   1
M  END
>  <PDB_ID>  (1811) 
pdb3gr9

>  <RESIDUE_NAME>  (1811) 
LYS   PHE

>  <FRAG_NAME>  (1811) 
ETAM   MBZ

>  <FRAG_ATOM_NUM>  (1811) 
fragi: 11  fragj: 15

>  <atom.prop.CHAIN_ID>  (1811) 
A A A A A A A A A A A Z Z Z Z Z Z Z Z Z Z Z Z Z Z Z

>  <atom.prop.IS_HEAVY_ATOM>  (1811) 
1 0 0 0 1 0 0 1 0 0 0 1 0 0 0 1 1 0 1 0 1 0 1 0 1 0

>  <DIFUSE_FUNC_ATOM>  (1811) 
n/a

>  <FINAL_SINGLE_POINT_ENERGY>  (1811) 
0

>  <NONCOV_INTER_ENERGY_QM>  (1811) 
0

>  <FF_Energy>  (1811) 
0.21

>  <QM_Energy>  (1811) 
-6.34

>  <source>  (1811) 
ETAM_MBZ

>  <Index>  (1811) 
18423

$$$$
ETAM-pdb3gri-A-LYS-274:MBZ-pdb3gri-A-PHE-321
     RDKit          3D

 26 25  0  0  0  0  0  0  0  0999 V2000
   -1.2403    0.3588   -4.2938 C   0  0  0  0  0  0  0  0  0  0  0  0
   -1.5106   -0.2294   -5.0384 H   0  0  0  0  0  0  0  0  0  0  0  0
   -0.7144    1.1311   -4.6084 H   0  0  0  0  0  0  0  0  0  0  0  0
   -2.1309    0.7164   -3.7771 H   0  0  0  0  0  0  0  0  0  0  0  0
   -0.3719   -0.4550   -3.3258 C   0  0  0  0  0  0  0  0  0  0  0  0
   -0.0752    0.1557   -2.5760 H   0  0  0  0  0  0  0  0  0  0  0  0
   -0.9462   -1.1822   -2.9202 H   0  0  0  0  0  0  0  0  0  0  0  0
    0.8169   -1.0646   -3.9625 N   0  0  0  0  0  4  0  0  0  0  0  0
    1.0630   -0.5438   -4.7812 H   0  0  0  0  0  0  0  0  0  0  0  0
    1.5842   -1.0552   -3.3199 H   0  0  0  0  0  0  0  0  0  0  0  0
    0.6120   -2.0094   -4.2200 H   0  0  0  0  0  0  0  0  0  0  0  0
   -0.0115    2.8966    0.0637 C   0  0  0  0  0  0  0  0  0  0  0  0
    0.8104    3.1857    0.5463 H   0  0  0  0  0  0  0  0  0  0  0  0
   -0.8223    3.1750    0.5698 H   0  0  0  0  0  0  0  0  0  0  0  0
   -0.0286    3.4131   -0.8961 H   0  0  0  0  0  0  0  0  0  0  0  0
   -0.0030    1.3992   -0.0099 C   0  0  0  0  0  0  0  0  0  0  0  0
   -1.2007    0.6873   -0.0049 C   0  0  0  0  0  0  0  0  0  0  0  0
   -2.0669    1.1866   -0.0059 H   0  0  0  0  0  0  0  0  0  0  0  0
   -1.2144   -0.6940    0.0000 C   0  0  0  0  0  0  0  0  0  0  0  0
   -2.0848   -1.1925   -0.0046 H   0  0  0  0  0  0  0  0  0  0  0  0
   -0.0012   -1.3981    0.0129 C   0  0  0  0  0  0  0  0  0  0  0  0
   -0.0025   -2.3897    0.0306 H   0  0  0  0  0  0  0  0  0  0  0  0
    1.2144   -0.6904    0.0000 C   0  0  0  0  0  0  0  0  0  0  0  0
    2.0892   -1.1940   -0.0093 H   0  0  0  0  0  0  0  0  0  0  0  0
    1.2049    0.6961    0.0019 C   0  0  0  0  0  0  0  0  0  0  0  0
    2.0656    1.2012    0.0113 H   0  0  0  0  0  0  0  0  0  0  0  0
  1  5  1  0
  5  8  1  0
  1  2  1  0
  1  3  1  0
  1  4  1  0
  5  6  1  0
  5  7  1  0
  8  9  1  0
  8 10  1  0
  8 11  1  0
 12 16  1  0
 16 17  2  0
 17 19  1  0
 19 21  2  0
 21 23  1  0
 23 25  2  0
 25 16  1  0
 12 13  1  0
 12 14  1  0
 12 15  1  0
 17 18  1  0
 19 20  1  0
 21 22  1  0
 23 24  1  0
 25 26  1  0
M  CHG  1   8   1
M  END
>  <PDB_ID>  (1812) 
pdb3gri

>  <RESIDUE_NAME>  (1812) 
LYS   PHE

>  <FRAG_NAME>  (1812) 
ETAM   MBZ

>  <FRAG_ATOM_NUM>  (1812) 
fragi: 11  fragj: 15

>  <atom.prop.CHAIN_ID>  (1812) 
A A A A A A A A A A A Z Z Z Z Z Z Z Z Z Z Z Z Z Z Z

>  <atom.prop.IS_HEAVY_ATOM>  (1812) 
1 0 0 0 1 0 0 1 0 0 0 1 0 0 0 1 1 0 1 0 1 0 1 0 1 0

>  <DIFUSE_FUNC_ATOM>  (1812) 
n/a

>  <FINAL_SINGLE_POINT_ENERGY>  (1812) 
0

>  <NONCOV_INTER_ENERGY_QM>  (1812) 
0

>  <FF_Energy>  (1812) 
-5.96

>  <QM_Energy>  (1812) 
-11.16

>  <source>  (1812) 
ETAM_MBZ

>  <Index>  (1812) 
18435

$$$$
ETAM-pdb3gkq-F-LYS-191:MBZ-pdb3gkq-F-PHE-188
     RDKit          3D

 26 25  0  0  0  0  0  0  0  0999 V2000
   -1.0984   -0.5981    3.8944 C   0  0  0  0  0  0  0  0  0  0  0  0
   -1.9456   -1.1058    4.0090 H   0  0  0  0  0  0  0  0  0  0  0  0
   -1.1602    0.0056    3.1069 H   0  0  0  0  0  0  0  0  0  0  0  0
   -0.9263    0.0037    4.7867 H   0  0  0  0  0  0  0  0  0  0  0  0
    0.0350   -1.5923    3.6549 C   0  0  0  0  0  0  0  0  0  0  0  0
    0.1217   -2.1849    4.4589 H   0  0  0  0  0  0  0  0  0  0  0  0
   -0.1909   -2.1555    2.8562 H   0  0  0  0  0  0  0  0  0  0  0  0
    1.3404   -0.9032    3.4135 N   0  0  0  0  0  4  0  0  0  0  0  0
    2.0833   -1.4868    3.7356 H   0  0  0  0  0  0  0  0  0  0  0  0
    1.4448   -0.7317    2.4355 H   0  0  0  0  0  0  0  0  0  0  0  0
    1.3515   -0.0374    3.9111 H   0  0  0  0  0  0  0  0  0  0  0  0
   -0.0008    2.9196   -0.0145 C   0  0  0  0  0  0  0  0  0  0  0  0
   -0.6745    3.2167   -0.6747 H   0  0  0  0  0  0  0  0  0  0  0  0
    0.9060    3.2226   -0.2637 H   0  0  0  0  0  0  0  0  0  0  0  0
   -0.2516    3.3714    0.9452 H   0  0  0  0  0  0  0  0  0  0  0  0
    0.0014    1.4101   -0.0012 C   0  0  0  0  0  0  0  0  0  0  0  0
   -1.2006    0.6967    0.0008 C   0  0  0  0  0  0  0  0  0  0  0  0
   -2.0665    1.1855    0.0018 H   0  0  0  0  0  0  0  0  0  0  0  0
   -1.2071   -0.7037    0.0000 C   0  0  0  0  0  0  0  0  0  0  0  0
   -2.0827   -1.1939    0.0005 H   0  0  0  0  0  0  0  0  0  0  0  0
   -0.0009   -1.4023    0.0002 C   0  0  0  0  0  0  0  0  0  0  0  0
   -0.0015   -2.3980   -0.0001 H   0  0  0  0  0  0  0  0  0  0  0  0
    1.2071   -0.6989   -0.0000 C   0  0  0  0  0  0  0  0  0  0  0  0
    2.0863   -1.1947    0.0015 H   0  0  0  0  0  0  0  0  0  0  0  0
    1.2001    0.6981    0.0002 C   0  0  0  0  0  0  0  0  0  0  0  0
    2.0682    1.1938    0.0003 H   0  0  0  0  0  0  0  0  0  0  0  0
  1  5  1  0
  5  8  1  0
  1  2  1  0
  1  3  1  0
  1  4  1  0
  5  6  1  0
  5  7  1  0
  8  9  1  0
  8 10  1  0
  8 11  1  0
 12 16  1  0
 16 17  2  0
 17 19  1  0
 19 21  2  0
 21 23  1  0
 23 25  2  0
 25 16  1  0
 12 13  1  0
 12 14  1  0
 12 15  1  0
 17 18  1  0
 19 20  1  0
 21 22  1  0
 23 24  1  0
 25 26  1  0
M  CHG  1   8   1
M  END
>  <PDB_ID>  (1813) 
pdb3gkq

>  <RESIDUE_NAME>  (1813) 
LYS   PHE

>  <FRAG_NAME>  (1813) 
ETAM   MBZ

>  <FRAG_ATOM_NUM>  (1813) 
fragi: 11  fragj: 15

>  <atom.prop.CHAIN_ID>  (1813) 
A A A A A A A A A A A Z Z Z Z Z Z Z Z Z Z Z Z Z Z Z

>  <atom.prop.IS_HEAVY_ATOM>  (1813) 
1 0 0 0 1 0 0 1 0 0 0 1 0 0 0 1 1 0 1 0 1 0 1 0 1 0

>  <DIFUSE_FUNC_ATOM>  (1813) 
n/a

>  <FINAL_SINGLE_POINT_ENERGY>  (1813) 
0

>  <NONCOV_INTER_ENERGY_QM>  (1813) 
0

>  <FF_Energy>  (1813) 
-6.99

>  <QM_Energy>  (1813) 
-14.67

>  <source>  (1813) 
ETAM_MBZ

>  <Index>  (1813) 
18438

$$$$
ETAM-pdb3grn-B-LYS-52:MBZ-pdb3grn-B-PHE-90
     RDKit          3D

 26 25  0  0  0  0  0  0  0  0999 V2000
   -4.0892   -1.8962    3.1732 C   0  0  0  0  0  0  0  0  0  0  0  0
   -4.2110   -2.7863    2.7459 H   0  0  0  0  0  0  0  0  0  0  0  0
   -4.4752   -1.8971    4.0903 H   0  0  0  0  0  0  0  0  0  0  0  0
   -3.0223   -1.6836    3.2414 H   0  0  0  0  0  0  0  0  0  0  0  0
   -4.8229   -0.8525    2.3386 C   0  0  0  0  0  0  0  0  0  0  0  0
   -5.8195   -0.9851    2.4555 H   0  0  0  0  0  0  0  0  0  0  0  0
   -4.5953    0.0673    2.6947 H   0  0  0  0  0  0  0  0  0  0  0  0
   -4.4991   -0.8967    0.8778 N   0  0  0  0  0  4  0  0  0  0  0  0
   -3.5074   -0.9056    0.7626 H   0  0  0  0  0  0  0  0  0  0  0  0
   -4.8926   -1.7232    0.4799 H   0  0  0  0  0  0  0  0  0  0  0  0
   -4.8840   -0.0908    0.4324 H   0  0  0  0  0  0  0  0  0  0  0  0
   -0.0122    2.8919   -0.0001 C   0  0  0  0  0  0  0  0  0  0  0  0
    0.7525    3.2025    0.5441 H   0  0  0  0  0  0  0  0  0  0  0  0
   -0.8723    3.1964    0.3802 H   0  0  0  0  0  0  0  0  0  0  0  0
    0.0859    3.3267   -0.9947 H   0  0  0  0  0  0  0  0  0  0  0  0
   -0.0070    1.3946    0.0013 C   0  0  0  0  0  0  0  0  0  0  0  0
   -1.2099    0.6993   -0.0005 C   0  0  0  0  0  0  0  0  0  0  0  0
   -2.0698    1.1979   -0.0034 H   0  0  0  0  0  0  0  0  0  0  0  0
   -1.2135   -0.6769    0.0000 C   0  0  0  0  0  0  0  0  0  0  0  0
   -2.0786   -1.1885    0.0128 H   0  0  0  0  0  0  0  0  0  0  0  0
    0.0134   -1.3935   -0.0161 C   0  0  0  0  0  0  0  0  0  0  0  0
   -0.0120   -2.3879   -0.0393 H   0  0  0  0  0  0  0  0  0  0  0  0
    1.2135   -0.7053   -0.0000 C   0  0  0  0  0  0  0  0  0  0  0  0
    2.0932   -1.2019    0.0024 H   0  0  0  0  0  0  0  0  0  0  0  0
    1.2034    0.6818    0.0153 C   0  0  0  0  0  0  0  0  0  0  0  0
    2.0650    1.1871    0.0357 H   0  0  0  0  0  0  0  0  0  0  0  0
  1  5  1  0
  5  8  1  0
  1  2  1  0
  1  3  1  0
  1  4  1  0
  5  6  1  0
  5  7  1  0
  8  9  1  0
  8 10  1  0
  8 11  1  0
 12 16  1  0
 16 17  2  0
 17 19  1  0
 19 21  2  0
 21 23  1  0
 23 25  2  0
 25 16  1  0
 12 13  1  0
 12 14  1  0
 12 15  1  0
 17 18  1  0
 19 20  1  0
 21 22  1  0
 23 24  1  0
 25 26  1  0
M  CHG  1   8   1
M  END
>  <PDB_ID>  (1814) 
pdb3grn

>  <RESIDUE_NAME>  (1814) 
LYS   PHE

>  <FRAG_NAME>  (1814) 
ETAM   MBZ

>  <FRAG_ATOM_NUM>  (1814) 
fragi: 11  fragj: 15

>  <atom.prop.CHAIN_ID>  (1814) 
A A A A A A A A A A A Z Z Z Z Z Z Z Z Z Z Z Z Z Z Z

>  <atom.prop.IS_HEAVY_ATOM>  (1814) 
1 0 0 0 1 0 0 1 0 0 0 1 0 0 0 1 1 0 1 0 1 0 1 0 1 0

>  <DIFUSE_FUNC_ATOM>  (1814) 
n/a

>  <FINAL_SINGLE_POINT_ENERGY>  (1814) 
0

>  <NONCOV_INTER_ENERGY_QM>  (1814) 
0

>  <FF_Energy>  (1814) 
1.59

>  <QM_Energy>  (1814) 
-3.75

>  <source>  (1814) 
ETAM_MBZ

>  <Index>  (1814) 
18442

$$$$
ETAM-pdb3grk-F-LYS-101:MBZ-pdb3grk-F-PHE-98
     RDKit          3D

 26 25  0  0  0  0  0  0  0  0999 V2000
   -3.3052   -1.5956    4.5517 C   0  0  0  0  0  0  0  0  0  0  0  0
   -3.6229   -0.7831    5.0351 H   0  0  0  0  0  0  0  0  0  0  0  0
   -2.3112   -1.6547    4.6041 H   0  0  0  0  0  0  0  0  0  0  0  0
   -3.7245   -2.4710    5.0476 H   0  0  0  0  0  0  0  0  0  0  0  0
   -3.7098   -1.4718    3.0681 C   0  0  0  0  0  0  0  0  0  0  0  0
   -4.6929   -1.6843    2.9884 H   0  0  0  0  0  0  0  0  0  0  0  0
   -3.5730   -0.5148    2.7801 H   0  0  0  0  0  0  0  0  0  0  0  0
   -2.9376   -2.3740    2.1511 N   0  0  0  0  0  4  0  0  0  0  0  0
   -3.4959   -2.5785    1.3497 H   0  0  0  0  0  0  0  0  0  0  0  0
   -2.0986   -1.9125    1.8706 H   0  0  0  0  0  0  0  0  0  0  0  0
   -2.7157   -3.2179    2.6348 H   0  0  0  0  0  0  0  0  0  0  0  0
   -0.0021    2.9064    0.0167 C   0  0  0  0  0  0  0  0  0  0  0  0
   -0.7999    3.2223   -0.4688 H   0  0  0  0  0  0  0  0  0  0  0  0
    0.8319    3.2227   -0.4041 H   0  0  0  0  0  0  0  0  0  0  0  0
   -0.0422    3.3203    1.0243 H   0  0  0  0  0  0  0  0  0  0  0  0
   -0.0008    1.4034   -0.0101 C   0  0  0  0  0  0  0  0  0  0  0  0
   -1.2004    0.6979    0.0038 C   0  0  0  0  0  0  0  0  0  0  0  0
   -2.0653    1.1877    0.0150 H   0  0  0  0  0  0  0  0  0  0  0  0
   -1.2064   -0.6964    0.0000 C   0  0  0  0  0  0  0  0  0  0  0  0
   -2.0805   -1.1897   -0.0031 H   0  0  0  0  0  0  0  0  0  0  0  0
    0.0008   -1.3976    0.0028 C   0  0  0  0  0  0  0  0  0  0  0  0
   -0.0061   -2.3942    0.0065 H   0  0  0  0  0  0  0  0  0  0  0  0
    1.2064   -0.7004    0.0000 C   0  0  0  0  0  0  0  0  0  0  0  0
    2.0851   -1.1980   -0.0032 H   0  0  0  0  0  0  0  0  0  0  0  0
    1.2004    0.6931    0.0036 C   0  0  0  0  0  0  0  0  0  0  0  0
    2.0670    1.1904    0.0151 H   0  0  0  0  0  0  0  0  0  0  0  0
  1  5  1  0
  5  8  1  0
  1  2  1  0
  1  3  1  0
  1  4  1  0
  5  6  1  0
  5  7  1  0
  8  9  1  0
  8 10  1  0
  8 11  1  0
 12 16  1  0
 16 17  2  0
 17 19  1  0
 19 21  2  0
 21 23  1  0
 23 25  2  0
 25 16  1  0
 12 13  1  0
 12 14  1  0
 12 15  1  0
 17 18  1  0
 19 20  1  0
 21 22  1  0
 23 24  1  0
 25 26  1  0
M  CHG  1   8   1
M  END
>  <PDB_ID>  (1815) 
pdb3grk

>  <RESIDUE_NAME>  (1815) 
LYS   PHE

>  <FRAG_NAME>  (1815) 
ETAM   MBZ

>  <FRAG_ATOM_NUM>  (1815) 
fragi: 11  fragj: 15

>  <atom.prop.CHAIN_ID>  (1815) 
A A A A A A A A A A A Z Z Z Z Z Z Z Z Z Z Z Z Z Z Z

>  <atom.prop.IS_HEAVY_ATOM>  (1815) 
1 0 0 0 1 0 0 1 0 0 0 1 0 0 0 1 1 0 1 0 1 0 1 0 1 0

>  <DIFUSE_FUNC_ATOM>  (1815) 
n/a

>  <FINAL_SINGLE_POINT_ENERGY>  (1815) 
0

>  <NONCOV_INTER_ENERGY_QM>  (1815) 
0

>  <FF_Energy>  (1815) 
-0.43

>  <QM_Energy>  (1815) 
-7.58

>  <source>  (1815) 
ETAM_MBZ

>  <Index>  (1815) 
18451

$$$$
ETAM-pdb4d9s-A-LYS-304:MBZ-pdb4d9s-B-PHE-109
     RDKit          3D

 26 25  0  0  0  0  0  0  0  0999 V2000
   -0.7260   -3.0112   -3.6848 C   0  0  0  0  0  0  0  0  0  0  0  0
   -1.6659   -2.8140   -3.4335 H   0  0  0  0  0  0  0  0  0  0  0  0
   -0.3620   -3.7499   -3.1312 H   0  0  0  0  0  0  0  0  0  0  0  0
   -0.6953   -3.3052   -4.7340 H   0  0  0  0  0  0  0  0  0  0  0  0
    0.1136   -1.7628   -3.4403 C   0  0  0  0  0  0  0  0  0  0  0  0
    0.2592   -1.6597   -2.4533 H   0  0  0  0  0  0  0  0  0  0  0  0
    1.0027   -1.8779   -3.8900 H   0  0  0  0  0  0  0  0  0  0  0  0
   -0.5486   -0.5403   -3.9693 N   0  0  0  0  0  4  0  0  0  0  0  0
   -0.0102   -0.1733   -4.7281 H   0  0  0  0  0  0  0  0  0  0  0  0
   -1.4658   -0.7727   -4.2912 H   0  0  0  0  0  0  0  0  0  0  0  0
   -0.6132    0.1436   -3.2426 H   0  0  0  0  0  0  0  0  0  0  0  0
   -0.0055    2.9041    0.0268 C   0  0  0  0  0  0  0  0  0  0  0  0
   -0.6688    3.2230   -0.6269 H   0  0  0  0  0  0  0  0  0  0  0  0
    0.9026    3.2200   -0.1812 H   0  0  0  0  0  0  0  0  0  0  0  0
   -0.2806    3.3111    0.9999 H   0  0  0  0  0  0  0  0  0  0  0  0
    0.0009    1.3984   -0.0030 C   0  0  0  0  0  0  0  0  0  0  0  0
   -1.1902    0.6885    0.0043 C   0  0  0  0  0  0  0  0  0  0  0  0
   -2.0593    1.1800    0.0116 H   0  0  0  0  0  0  0  0  0  0  0  0
   -1.1957   -0.6960    0.0000 C   0  0  0  0  0  0  0  0  0  0  0  0
   -2.0753   -1.1888   -0.0056 H   0  0  0  0  0  0  0  0  0  0  0  0
   -0.0036   -1.3859    0.0050 C   0  0  0  0  0  0  0  0  0  0  0  0
   -0.0057   -2.3893    0.0113 H   0  0  0  0  0  0  0  0  0  0  0  0
    1.1957   -0.6968   -0.0000 C   0  0  0  0  0  0  0  0  0  0  0  0
    2.0767   -1.1957    0.0019 H   0  0  0  0  0  0  0  0  0  0  0  0
    1.1929    0.6919   -0.0063 C   0  0  0  0  0  0  0  0  0  0  0  0
    2.0631    1.1861   -0.0140 H   0  0  0  0  0  0  0  0  0  0  0  0
  1  5  1  0
  5  8  1  0
  1  2  1  0
  1  3  1  0
  1  4  1  0
  5  6  1  0
  5  7  1  0
  8  9  1  0
  8 10  1  0
  8 11  1  0
 12 16  1  0
 16 17  2  0
 17 19  1  0
 19 21  2  0
 21 23  1  0
 23 25  2  0
 25 16  1  0
 12 13  1  0
 12 14  1  0
 12 15  1  0
 17 18  1  0
 19 20  1  0
 21 22  1  0
 23 24  1  0
 25 26  1  0
M  CHG  1   8   1
M  END
>  <PDB_ID>  (1816) 
pdb4d9s

>  <RESIDUE_NAME>  (1816) 
LYS   PHE

>  <FRAG_NAME>  (1816) 
ETAM   MBZ

>  <FRAG_ATOM_NUM>  (1816) 
fragi: 11  fragj: 15

>  <atom.prop.CHAIN_ID>  (1816) 
A A A A A A A A A A A Z Z Z Z Z Z Z Z Z Z Z Z Z Z Z

>  <atom.prop.IS_HEAVY_ATOM>  (1816) 
1 0 0 0 1 0 0 1 0 0 0 1 0 0 0 1 1 0 1 0 1 0 1 0 1 0

>  <DIFUSE_FUNC_ATOM>  (1816) 
n/a

>  <FINAL_SINGLE_POINT_ENERGY>  (1816) 
0

>  <NONCOV_INTER_ENERGY_QM>  (1816) 
0

>  <FF_Energy>  (1816) 
-5.19

>  <QM_Energy>  (1816) 
-10.44

>  <source>  (1816) 
ETAM_MBZ

>  <Index>  (1816) 
18454

$$$$
ETAM-pdb3gkq-D-LYS-191:MBZ-pdb3gkq-D-PHE-188
     RDKit          3D

 26 25  0  0  0  0  0  0  0  0999 V2000
   -1.0770   -0.5017    3.9087 C   0  0  0  0  0  0  0  0  0  0  0  0
   -1.9225   -0.9921    4.0862 H   0  0  0  0  0  0  0  0  0  0  0  0
   -1.1752    0.0915    3.1196 H   0  0  0  0  0  0  0  0  0  0  0  0
   -0.8360    0.1083    4.7792 H   0  0  0  0  0  0  0  0  0  0  0  0
    0.0231   -1.5158    3.6224 C   0  0  0  0  0  0  0  0  0  0  0  0
    0.1131   -2.1269    4.4071 H   0  0  0  0  0  0  0  0  0  0  0  0
   -0.2250   -2.0444    2.8117 H   0  0  0  0  0  0  0  0  0  0  0  0
    1.3248   -0.8308    3.3816 N   0  0  0  0  0  4  0  0  0  0  0  0
    1.6091   -0.9846    2.4364 H   0  0  0  0  0  0  0  0  0  0  0  0
    1.2175    0.1493    3.5437 H   0  0  0  0  0  0  0  0  0  0  0  0
    2.0132   -1.2014    4.0038 H   0  0  0  0  0  0  0  0  0  0  0  0
    0.0012    2.9107   -0.0297 C   0  0  0  0  0  0  0  0  0  0  0  0
   -0.6995    3.2035   -0.6643 H   0  0  0  0  0  0  0  0  0  0  0  0
    0.8980    3.2102   -0.3227 H   0  0  0  0  0  0  0  0  0  0  0  0
   -0.2070    3.3751    0.9342 H   0  0  0  0  0  0  0  0  0  0  0  0
    0.0008    1.4057    0.0008 C   0  0  0  0  0  0  0  0  0  0  0  0
   -1.1992    0.6946    0.0014 C   0  0  0  0  0  0  0  0  0  0  0  0
   -2.0648    1.1859    0.0014 H   0  0  0  0  0  0  0  0  0  0  0  0
   -1.2060   -0.6983   -0.0000 C   0  0  0  0  0  0  0  0  0  0  0  0
   -2.0817   -1.1908    0.0018 H   0  0  0  0  0  0  0  0  0  0  0  0
   -0.0015   -1.3995   -0.0024 C   0  0  0  0  0  0  0  0  0  0  0  0
   -0.0054   -2.3956   -0.0064 H   0  0  0  0  0  0  0  0  0  0  0  0
    1.2060   -0.6993   -0.0000 C   0  0  0  0  0  0  0  0  0  0  0  0
    2.0853   -1.1962    0.0033 H   0  0  0  0  0  0  0  0  0  0  0  0
    1.1999    0.6970    0.0002 C   0  0  0  0  0  0  0  0  0  0  0  0
    2.0672    1.1921   -0.0009 H   0  0  0  0  0  0  0  0  0  0  0  0
  1  5  1  0
  5  8  1  0
  1  2  1  0
  1  3  1  0
  1  4  1  0
  5  6  1  0
  5  7  1  0
  8  9  1  0
  8 10  1  0
  8 11  1  0
 12 16  1  0
 16 17  2  0
 17 19  1  0
 19 21  2  0
 21 23  1  0
 23 25  2  0
 25 16  1  0
 12 13  1  0
 12 14  1  0
 12 15  1  0
 17 18  1  0
 19 20  1  0
 21 22  1  0
 23 24  1  0
 25 26  1  0
M  CHG  1   8   1
M  END
>  <PDB_ID>  (1817) 
pdb3gkq

>  <RESIDUE_NAME>  (1817) 
LYS   PHE

>  <FRAG_NAME>  (1817) 
ETAM   MBZ

>  <FRAG_ATOM_NUM>  (1817) 
fragi: 11  fragj: 15

>  <atom.prop.CHAIN_ID>  (1817) 
A A A A A A A A A A A Z Z Z Z Z Z Z Z Z Z Z Z Z Z Z

>  <atom.prop.IS_HEAVY_ATOM>  (1817) 
1 0 0 0 1 0 0 1 0 0 0 1 0 0 0 1 1 0 1 0 1 0 1 0 1 0

>  <DIFUSE_FUNC_ATOM>  (1817) 
n/a

>  <FINAL_SINGLE_POINT_ENERGY>  (1817) 
0

>  <NONCOV_INTER_ENERGY_QM>  (1817) 
0

>  <FF_Energy>  (1817) 
-6.88

>  <QM_Energy>  (1817) 
-14.2

>  <source>  (1817) 
ETAM_MBZ

>  <Index>  (1817) 
18460

$$$$
ETAM-pdb4dc2-A-LYS-467:MBZ-pdb4dc2-A-PHE-443
     RDKit          3D

 26 25  0  0  0  0  0  0  0  0999 V2000
    5.4944    1.5175    1.3684 C   0  0  0  0  0  0  0  0  0  0  0  0
    5.7177    0.8310    2.0497 H   0  0  0  0  0  0  0  0  0  0  0  0
    6.1092    2.2938    1.4383 H   0  0  0  0  0  0  0  0  0  0  0  0
    5.6173    1.0717    0.3814 H   0  0  0  0  0  0  0  0  0  0  0  0
    4.0673    1.9941    1.5950 C   0  0  0  0  0  0  0  0  0  0  0  0
    3.4613    1.5487    0.9270 H   0  0  0  0  0  0  0  0  0  0  0  0
    3.7729    1.7285    2.5197 H   0  0  0  0  0  0  0  0  0  0  0  0
    3.9172    3.4907    1.4568 N   0  0  0  0  0  4  0  0  0  0  0  0
    4.6660    3.8382    0.8995 H   0  0  0  0  0  0  0  0  0  0  0  0
    3.0446    3.6864    1.0189 H   0  0  0  0  0  0  0  0  0  0  0  0
    3.9461    3.9004    2.3637 H   0  0  0  0  0  0  0  0  0  0  0  0
    0.0155    2.8842    0.0736 C   0  0  0  0  0  0  0  0  0  0  0  0
   -0.9014    3.2116   -0.0608 H   0  0  0  0  0  0  0  0  0  0  0  0
    0.6374    3.2260   -0.6072 H   0  0  0  0  0  0  0  0  0  0  0  0
    0.3572    3.2440    1.0441 H   0  0  0  0  0  0  0  0  0  0  0  0
    0.0006    1.3927   -0.0061 C   0  0  0  0  0  0  0  0  0  0  0  0
   -1.1892    0.6934    0.0058 C   0  0  0  0  0  0  0  0  0  0  0  0
   -2.0568    1.1839    0.0171 H   0  0  0  0  0  0  0  0  0  0  0  0
   -1.1928   -0.6910   -0.0000 C   0  0  0  0  0  0  0  0  0  0  0  0
   -2.0737   -1.1844   -0.0026 H   0  0  0  0  0  0  0  0  0  0  0  0
   -0.0024   -1.3829   -0.0003 C   0  0  0  0  0  0  0  0  0  0  0  0
   -0.0060   -2.3854   -0.0011 H   0  0  0  0  0  0  0  0  0  0  0  0
    1.1928   -0.6925    0.0000 C   0  0  0  0  0  0  0  0  0  0  0  0
    2.0743   -1.1981    0.0011 H   0  0  0  0  0  0  0  0  0  0  0  0
    1.1911    0.6804    0.0007 C   0  0  0  0  0  0  0  0  0  0  0  0
    2.0613    1.1822    0.0059 H   0  0  0  0  0  0  0  0  0  0  0  0
  1  5  1  0
  5  8  1  0
  1  2  1  0
  1  3  1  0
  1  4  1  0
  5  6  1  0
  5  7  1  0
  8  9  1  0
  8 10  1  0
  8 11  1  0
 12 16  1  0
 16 17  2  0
 17 19  1  0
 19 21  2  0
 21 23  1  0
 23 25  2  0
 25 16  1  0
 12 13  1  0
 12 14  1  0
 12 15  1  0
 17 18  1  0
 19 20  1  0
 21 22  1  0
 23 24  1  0
 25 26  1  0
M  CHG  1   8   1
M  END
>  <PDB_ID>  (1818) 
pdb4dc2

>  <RESIDUE_NAME>  (1818) 
LYS   PHE

>  <FRAG_NAME>  (1818) 
ETAM   MBZ

>  <FRAG_ATOM_NUM>  (1818) 
fragi: 11  fragj: 15

>  <atom.prop.CHAIN_ID>  (1818) 
A A A A A A A A A A A Z Z Z Z Z Z Z Z Z Z Z Z Z Z Z

>  <atom.prop.IS_HEAVY_ATOM>  (1818) 
1 0 0 0 1 0 0 1 0 0 0 1 0 0 0 1 1 0 1 0 1 0 1 0 1 0

>  <DIFUSE_FUNC_ATOM>  (1818) 
n/a

>  <FINAL_SINGLE_POINT_ENERGY>  (1818) 
0

>  <NONCOV_INTER_ENERGY_QM>  (1818) 
0

>  <FF_Energy>  (1818) 
6.74

>  <QM_Energy>  (1818) 
-1.3

>  <source>  (1818) 
ETAM_MBZ

>  <Index>  (1818) 
18466

$$$$
ETAM-pdb3gsz-A-LYS-155:MBZ-pdb3gsz-A-PHE-145
     RDKit          3D

 26 25  0  0  0  0  0  0  0  0999 V2000
    0.6877   -1.4235    3.8029 C   0  0  0  0  0  0  0  0  0  0  0  0
    0.6930   -1.6691    2.8259 H   0  0  0  0  0  0  0  0  0  0  0  0
    0.9113   -2.2462    4.3387 H   0  0  0  0  0  0  0  0  0  0  0  0
    1.4732   -0.6865    3.9700 H   0  0  0  0  0  0  0  0  0  0  0  0
   -0.7433   -0.9779    4.1799 C   0  0  0  0  0  0  0  0  0  0  0  0
   -1.3375   -1.7834    4.1270 H   0  0  0  0  0  0  0  0  0  0  0  0
   -0.7220   -0.6487    5.1263 H   0  0  0  0  0  0  0  0  0  0  0  0
   -1.2219    0.0677    3.2882 N   0  0  0  0  0  4  0  0  0  0  0  0
   -0.5034    0.3213    2.6325 H   0  0  0  0  0  0  0  0  0  0  0  0
   -2.0263   -0.2525    2.7762 H   0  0  0  0  0  0  0  0  0  0  0  0
   -1.4797    0.8840    3.8151 H   0  0  0  0  0  0  0  0  0  0  0  0
    0.0083    2.9133    0.0177 C   0  0  0  0  0  0  0  0  0  0  0  0
    0.8725    3.2138    0.3846 H   0  0  0  0  0  0  0  0  0  0  0  0
   -0.7502    3.2246    0.5653 H   0  0  0  0  0  0  0  0  0  0  0  0
   -0.0978    3.3663   -0.9681 H   0  0  0  0  0  0  0  0  0  0  0  0
   -0.0039    1.4023    0.0066 C   0  0  0  0  0  0  0  0  0  0  0  0
   -1.1964    0.6990   -0.0222 C   0  0  0  0  0  0  0  0  0  0  0  0
   -2.0629    1.2018   -0.0612 H   0  0  0  0  0  0  0  0  0  0  0  0
   -1.2167   -0.6757   -0.0000 C   0  0  0  0  0  0  0  0  0  0  0  0
   -2.0840   -1.1795    0.0250 H   0  0  0  0  0  0  0  0  0  0  0  0
    0.0088   -1.4091   -0.0103 C   0  0  0  0  0  0  0  0  0  0  0  0
   -0.0210   -2.3968   -0.0250 H   0  0  0  0  0  0  0  0  0  0  0  0
    1.2167   -0.7166    0.0000 C   0  0  0  0  0  0  0  0  0  0  0  0
    2.0943   -1.1941   -0.0089 H   0  0  0  0  0  0  0  0  0  0  0  0
    1.1915    0.7002    0.0258 C   0  0  0  0  0  0  0  0  0  0  0  0
    2.0622    1.1916    0.0578 H   0  0  0  0  0  0  0  0  0  0  0  0
  1  5  1  0
  5  8  1  0
  1  2  1  0
  1  3  1  0
  1  4  1  0
  5  6  1  0
  5  7  1  0
  8  9  1  0
  8 10  1  0
  8 11  1  0
 12 16  1  0
 16 17  2  0
 17 19  1  0
 19 21  2  0
 21 23  1  0
 23 25  2  0
 25 16  1  0
 12 13  1  0
 12 14  1  0
 12 15  1  0
 17 18  1  0
 19 20  1  0
 21 22  1  0
 23 24  1  0
 25 26  1  0
M  CHG  1   8   1
M  END
>  <PDB_ID>  (1819) 
pdb3gsz

>  <RESIDUE_NAME>  (1819) 
LYS   PHE

>  <FRAG_NAME>  (1819) 
ETAM   MBZ

>  <FRAG_ATOM_NUM>  (1819) 
fragi: 11  fragj: 15

>  <atom.prop.CHAIN_ID>  (1819) 
A A A A A A A A A A A Z Z Z Z Z Z Z Z Z Z Z Z Z Z Z

>  <atom.prop.IS_HEAVY_ATOM>  (1819) 
1 0 0 0 1 0 0 1 0 0 0 1 0 0 0 1 1 0 1 0 1 0 1 0 1 0

>  <DIFUSE_FUNC_ATOM>  (1819) 
n/a

>  <FINAL_SINGLE_POINT_ENERGY>  (1819) 
0

>  <NONCOV_INTER_ENERGY_QM>  (1819) 
0

>  <FF_Energy>  (1819) 
-8.05

>  <QM_Energy>  (1819) 
-14.4

>  <source>  (1819) 
ETAM_MBZ

>  <Index>  (1819) 
18478

$$$$
ETAM-pdb4ddd-A-LYS-162:MBZ-pdb4ddd-A-PHE-105
     RDKit          3D

 26 25  0  0  0  0  0  0  0  0999 V2000
    2.1250   -5.5777   -1.6103 C   0  0  0  0  0  0  0  0  0  0  0  0
    2.0124   -6.1424   -2.4412 H   0  0  0  0  0  0  0  0  0  0  0  0
    1.2252   -5.5129   -1.1562 H   0  0  0  0  0  0  0  0  0  0  0  0
    2.8218   -6.0786   -0.9382 H   0  0  0  0  0  0  0  0  0  0  0  0
    2.5389   -4.1778   -2.0419 C   0  0  0  0  0  0  0  0  0  0  0  0
    2.8502   -3.6661   -1.2430 H   0  0  0  0  0  0  0  0  0  0  0  0
    3.2805   -4.2436   -2.7074 H   0  0  0  0  0  0  0  0  0  0  0  0
    1.3860   -3.4368   -2.6737 N   0  0  0  0  0  4  0  0  0  0  0  0
    1.5324   -2.4582   -2.5601 H   0  0  0  0  0  0  0  0  0  0  0  0
    1.3484   -3.6674   -3.6423 H   0  0  0  0  0  0  0  0  0  0  0  0
    0.5421   -3.7121   -2.2225 H   0  0  0  0  0  0  0  0  0  0  0  0
    0.0079    2.9186   -0.0285 C   0  0  0  0  0  0  0  0  0  0  0  0
    0.8628    3.2212    0.3505 H   0  0  0  0  0  0  0  0  0  0  0  0
   -0.7646    3.2362    0.4903 H   0  0  0  0  0  0  0  0  0  0  0  0
   -0.0752    3.3175   -1.0395 H   0  0  0  0  0  0  0  0  0  0  0  0
   -0.0022    1.4017    0.0072 C   0  0  0  0  0  0  0  0  0  0  0  0
   -1.1947    0.6963   -0.0104 C   0  0  0  0  0  0  0  0  0  0  0  0
   -2.0614    1.1841   -0.0313 H   0  0  0  0  0  0  0  0  0  0  0  0
   -1.1907   -0.6882    0.0000 C   0  0  0  0  0  0  0  0  0  0  0  0
   -2.0731   -1.1851    0.0047 H   0  0  0  0  0  0  0  0  0  0  0  0
    0.0008   -1.3865    0.0057 C   0  0  0  0  0  0  0  0  0  0  0  0
   -0.0111   -2.3883    0.0132 H   0  0  0  0  0  0  0  0  0  0  0  0
    1.1907   -0.7014   -0.0000 C   0  0  0  0  0  0  0  0  0  0  0  0
    2.0757   -1.2055   -0.0008 H   0  0  0  0  0  0  0  0  0  0  0  0
    1.1962    0.6782   -0.0026 C   0  0  0  0  0  0  0  0  0  0  0  0
    2.0640    1.1765   -0.0120 H   0  0  0  0  0  0  0  0  0  0  0  0
  1  5  1  0
  5  8  1  0
  1  2  1  0
  1  3  1  0
  1  4  1  0
  5  6  1  0
  5  7  1  0
  8  9  1  0
  8 10  1  0
  8 11  1  0
 12 16  1  0
 16 17  2  0
 17 19  1  0
 19 21  2  0
 21 23  1  0
 23 25  2  0
 25 16  1  0
 12 13  1  0
 12 14  1  0
 12 15  1  0
 17 18  1  0
 19 20  1  0
 21 22  1  0
 23 24  1  0
 25 26  1  0
M  CHG  1   8   1
M  END
>  <PDB_ID>  (1820) 
pdb4ddd

>  <RESIDUE_NAME>  (1820) 
LYS   PHE

>  <FRAG_NAME>  (1820) 
ETAM   MBZ

>  <FRAG_ATOM_NUM>  (1820) 
fragi: 11  fragj: 15

>  <atom.prop.CHAIN_ID>  (1820) 
A A A A A A A A A A A Z Z Z Z Z Z Z Z Z Z Z Z Z Z Z

>  <atom.prop.IS_HEAVY_ATOM>  (1820) 
1 0 0 0 1 0 0 1 0 0 0 1 0 0 0 1 1 0 1 0 1 0 1 0 1 0

>  <DIFUSE_FUNC_ATOM>  (1820) 
n/a

>  <FINAL_SINGLE_POINT_ENERGY>  (1820) 
0

>  <NONCOV_INTER_ENERGY_QM>  (1820) 
0

>  <FF_Energy>  (1820) 
-1.6

>  <QM_Energy>  (1820) 
-7.03

>  <source>  (1820) 
ETAM_MBZ

>  <Index>  (1820) 
18485

$$$$
ETAM-pdb3gtd-B-LYS-245:MBZ-pdb3gtd-B-PHE-62
     RDKit          3D

 26 25  0  0  0  0  0  0  0  0999 V2000
    2.8819   -3.5974    0.7233 C   0  0  0  0  0  0  0  0  0  0  0  0
    1.8952   -3.4891    0.6916 H   0  0  0  0  0  0  0  0  0  0  0  0
    3.3228   -2.7342    0.9386 H   0  0  0  0  0  0  0  0  0  0  0  0
    3.1342   -4.3281    1.4917 H   0  0  0  0  0  0  0  0  0  0  0  0
    3.3625   -4.0538   -0.6544 C   0  0  0  0  0  0  0  0  0  0  0  0
    4.3593   -3.9529   -0.6980 H   0  0  0  0  0  0  0  0  0  0  0  0
    3.1289   -5.0220   -0.7737 H   0  0  0  0  0  0  0  0  0  0  0  0
    2.7413   -3.2613   -1.7575 N   0  0  0  0  0  4  0  0  0  0  0  0
    1.9543   -3.7591   -2.1169 H   0  0  0  0  0  0  0  0  0  0  0  0
    2.4464   -2.3758   -1.4006 H   0  0  0  0  0  0  0  0  0  0  0  0
    3.4138   -3.1246   -2.4836 H   0  0  0  0  0  0  0  0  0  0  0  0
   -0.0261    2.9151   -0.0040 C   0  0  0  0  0  0  0  0  0  0  0  0
   -0.1791    3.2200    0.9241 H   0  0  0  0  0  0  0  0  0  0  0  0
   -0.7564    3.2041   -0.6036 H   0  0  0  0  0  0  0  0  0  0  0  0
    0.8957    3.3773   -0.3573 H   0  0  0  0  0  0  0  0  0  0  0  0
   -0.0004    1.4021    0.0013 C   0  0  0  0  0  0  0  0  0  0  0  0
   -1.1877    0.6884   -0.0022 C   0  0  0  0  0  0  0  0  0  0  0  0
   -2.0600    1.1761   -0.0075 H   0  0  0  0  0  0  0  0  0  0  0  0
   -1.1918   -0.6993   -0.0000 C   0  0  0  0  0  0  0  0  0  0  0  0
   -2.0758   -1.1881    0.0060 H   0  0  0  0  0  0  0  0  0  0  0  0
   -0.0066   -1.3884   -0.0042 C   0  0  0  0  0  0  0  0  0  0  0  0
   -0.0046   -2.3900   -0.0104 H   0  0  0  0  0  0  0  0  0  0  0  0
    1.1918   -0.6942   -0.0000 C   0  0  0  0  0  0  0  0  0  0  0  0
    2.0743   -1.1971    0.0009 H   0  0  0  0  0  0  0  0  0  0  0  0
    1.1946    0.6913    0.0052 C   0  0  0  0  0  0  0  0  0  0  0  0
    2.0629    1.1870    0.0112 H   0  0  0  0  0  0  0  0  0  0  0  0
  1  5  1  0
  5  8  1  0
  1  2  1  0
  1  3  1  0
  1  4  1  0
  5  6  1  0
  5  7  1  0
  8  9  1  0
  8 10  1  0
  8 11  1  0
 12 16  1  0
 16 17  2  0
 17 19  1  0
 19 21  2  0
 21 23  1  0
 23 25  2  0
 25 16  1  0
 12 13  1  0
 12 14  1  0
 12 15  1  0
 17 18  1  0
 19 20  1  0
 21 22  1  0
 23 24  1  0
 25 26  1  0
M  CHG  1   8   1
M  END
>  <PDB_ID>  (1821) 
pdb3gtd

>  <RESIDUE_NAME>  (1821) 
LYS   PHE

>  <FRAG_NAME>  (1821) 
ETAM   MBZ

>  <FRAG_ATOM_NUM>  (1821) 
fragi: 11  fragj: 15

>  <atom.prop.CHAIN_ID>  (1821) 
A A A A A A A A A A A Z Z Z Z Z Z Z Z Z Z Z Z Z Z Z

>  <atom.prop.IS_HEAVY_ATOM>  (1821) 
1 0 0 0 1 0 0 1 0 0 0 1 0 0 0 1 1 0 1 0 1 0 1 0 1 0

>  <DIFUSE_FUNC_ATOM>  (1821) 
n/a

>  <FINAL_SINGLE_POINT_ENERGY>  (1821) 
0

>  <NONCOV_INTER_ENERGY_QM>  (1821) 
0

>  <FF_Energy>  (1821) 
0.9

>  <QM_Energy>  (1821) 
-5.77

>  <source>  (1821) 
ETAM_MBZ

>  <Index>  (1821) 
18494

$$$$
ETAM-pdb3gkq-E-LYS-191:MBZ-pdb3gkq-E-PHE-188
     RDKit          3D

 26 25  0  0  0  0  0  0  0  0999 V2000
   -1.2839   -0.4053    3.8536 C   0  0  0  0  0  0  0  0  0  0  0  0
   -2.1655   -0.8604    3.9229 H   0  0  0  0  0  0  0  0  0  0  0  0
   -1.2833    0.2393    3.0962 H   0  0  0  0  0  0  0  0  0  0  0  0
   -1.0945    0.1379    4.7795 H   0  0  0  0  0  0  0  0  0  0  0  0
   -0.2121   -1.4642    3.5893 C   0  0  0  0  0  0  0  0  0  0  0  0
   -0.2239   -2.1312    4.3385 H   0  0  0  0  0  0  0  0  0  0  0  0
   -0.4265   -1.9350    2.7300 H   0  0  0  0  0  0  0  0  0  0  0  0
    1.1642   -0.8690    3.4885 N   0  0  0  0  0  4  0  0  0  0  0  0
    1.3756   -0.7014    2.5281 H   0  0  0  0  0  0  0  0  0  0  0  0
    1.1842   -0.0105    3.9964 H   0  0  0  0  0  0  0  0  0  0  0  0
    1.8237   -1.5092    3.8761 H   0  0  0  0  0  0  0  0  0  0  0  0
    0.0016    2.9099   -0.0166 C   0  0  0  0  0  0  0  0  0  0  0  0
   -0.6673    3.2108   -0.6825 H   0  0  0  0  0  0  0  0  0  0  0  0
    0.9114    3.2151   -0.2625 H   0  0  0  0  0  0  0  0  0  0  0  0
   -0.2540    3.3659    0.9399 H   0  0  0  0  0  0  0  0  0  0  0  0
    0.0019    1.4080   -0.0033 C   0  0  0  0  0  0  0  0  0  0  0  0
   -1.2001    0.6964    0.0008 C   0  0  0  0  0  0  0  0  0  0  0  0
   -2.0655    1.1843    0.0028 H   0  0  0  0  0  0  0  0  0  0  0  0
   -1.2044   -0.7043    0.0000 C   0  0  0  0  0  0  0  0  0  0  0  0
   -2.0807   -1.1939   -0.0006 H   0  0  0  0  0  0  0  0  0  0  0  0
   -0.0005   -1.4012    0.0025 C   0  0  0  0  0  0  0  0  0  0  0  0
   -0.0003   -2.3972    0.0059 H   0  0  0  0  0  0  0  0  0  0  0  0
    1.2044   -0.6975   -0.0000 C   0  0  0  0  0  0  0  0  0  0  0  0
    2.0852   -1.1939   -0.0004 H   0  0  0  0  0  0  0  0  0  0  0  0
    1.1986    0.6986   -0.0000 C   0  0  0  0  0  0  0  0  0  0  0  0
    2.0671    1.1932    0.0014 H   0  0  0  0  0  0  0  0  0  0  0  0
  1  5  1  0
  5  8  1  0
  1  2  1  0
  1  3  1  0
  1  4  1  0
  5  6  1  0
  5  7  1  0
  8  9  1  0
  8 10  1  0
  8 11  1  0
 12 16  1  0
 16 17  2  0
 17 19  1  0
 19 21  2  0
 21 23  1  0
 23 25  2  0
 25 16  1  0
 12 13  1  0
 12 14  1  0
 12 15  1  0
 17 18  1  0
 19 20  1  0
 21 22  1  0
 23 24  1  0
 25 26  1  0
M  CHG  1   8   1
M  END
>  <PDB_ID>  (1822) 
pdb3gkq

>  <RESIDUE_NAME>  (1822) 
LYS   PHE

>  <FRAG_NAME>  (1822) 
ETAM   MBZ

>  <FRAG_ATOM_NUM>  (1822) 
fragi: 11  fragj: 15

>  <atom.prop.CHAIN_ID>  (1822) 
A A A A A A A A A A A Z Z Z Z Z Z Z Z Z Z Z Z Z Z Z

>  <atom.prop.IS_HEAVY_ATOM>  (1822) 
1 0 0 0 1 0 0 1 0 0 0 1 0 0 0 1 1 0 1 0 1 0 1 0 1 0

>  <DIFUSE_FUNC_ATOM>  (1822) 
n/a

>  <FINAL_SINGLE_POINT_ENERGY>  (1822) 
0

>  <NONCOV_INTER_ENERGY_QM>  (1822) 
0

>  <FF_Energy>  (1822) 
-7.07

>  <QM_Energy>  (1822) 
-14.43

>  <source>  (1822) 
ETAM_MBZ

>  <Index>  (1822) 
18503

$$$$
ETAM-pdb4df9-E-LYS-373:MBZ-pdb4df9-E-PHE-396
     RDKit          3D

 26 25  0  0  0  0  0  0  0  0999 V2000
    0.5365    0.7983   -3.5978 C   0  0  0  0  0  0  0  0  0  0  0  0
    1.0406    1.2408   -2.8539 H   0  0  0  0  0  0  0  0  0  0  0  0
   -0.2565    0.3179   -3.2211 H   0  0  0  0  0  0  0  0  0  0  0  0
    0.1849    1.5671   -4.2857 H   0  0  0  0  0  0  0  0  0  0  0  0
    1.4253   -0.1820   -4.2752 C   0  0  0  0  0  0  0  0  0  0  0  0
    0.9071   -0.6745   -4.9901 H   0  0  0  0  0  0  0  0  0  0  0  0
    2.1864    0.3052   -4.7291 H   0  0  0  0  0  0  0  0  0  0  0  0
    1.9999   -1.1832   -3.3352 N   0  0  0  0  0  4  0  0  0  0  0  0
    2.9561   -0.9562   -3.1534 H   0  0  0  0  0  0  0  0  0  0  0  0
    1.4843   -1.1686   -2.4793 H   0  0  0  0  0  0  0  0  0  0  0  0
    1.9432   -2.0925   -3.7452 H   0  0  0  0  0  0  0  0  0  0  0  0
    0.0008    2.9235    0.0427 C   0  0  0  0  0  0  0  0  0  0  0  0
   -0.6498    3.2545   -0.6013 H   0  0  0  0  0  0  0  0  0  0  0  0
    0.9088    3.2367   -0.1159 H   0  0  0  0  0  0  0  0  0  0  0  0
   -0.3021    3.2771    1.0283 H   0  0  0  0  0  0  0  0  0  0  0  0
    0.0016    1.4097   -0.0153 C   0  0  0  0  0  0  0  0  0  0  0  0
   -1.1945    0.6963   -0.0088 C   0  0  0  0  0  0  0  0  0  0  0  0
   -2.0623    1.1805   -0.0117 H   0  0  0  0  0  0  0  0  0  0  0  0
   -1.1942   -0.7022   -0.0000 C   0  0  0  0  0  0  0  0  0  0  0  0
   -2.0766   -1.1909   -0.0016 H   0  0  0  0  0  0  0  0  0  0  0  0
   -0.0030   -1.3942    0.0125 C   0  0  0  0  0  0  0  0  0  0  0  0
   -0.0076   -2.3966    0.0302 H   0  0  0  0  0  0  0  0  0  0  0  0
    1.1942   -0.7054   -0.0000 C   0  0  0  0  0  0  0  0  0  0  0  0
    2.0776   -1.1991   -0.0158 H   0  0  0  0  0  0  0  0  0  0  0  0
    1.1960    0.6959    0.0116 C   0  0  0  0  0  0  0  0  0  0  0  0
    2.0658    1.1836    0.0395 H   0  0  0  0  0  0  0  0  0  0  0  0
  1  5  1  0
  5  8  1  0
  1  2  1  0
  1  3  1  0
  1  4  1  0
  5  6  1  0
  5  7  1  0
  8  9  1  0
  8 10  1  0
  8 11  1  0
 12 16  1  0
 16 17  2  0
 17 19  1  0
 19 21  2  0
 21 23  1  0
 23 25  2  0
 25 16  1  0
 12 13  1  0
 12 14  1  0
 12 15  1  0
 17 18  1  0
 19 20  1  0
 21 22  1  0
 23 24  1  0
 25 26  1  0
M  CHG  1   8   1
M  END
>  <PDB_ID>  (1823) 
pdb4df9

>  <RESIDUE_NAME>  (1823) 
LYS   PHE

>  <FRAG_NAME>  (1823) 
ETAM   MBZ

>  <FRAG_ATOM_NUM>  (1823) 
fragi: 11  fragj: 15

>  <atom.prop.CHAIN_ID>  (1823) 
A A A A A A A A A A A Z Z Z Z Z Z Z Z Z Z Z Z Z Z Z

>  <atom.prop.IS_HEAVY_ATOM>  (1823) 
1 0 0 0 1 0 0 1 0 0 0 1 0 0 0 1 1 0 1 0 1 0 1 0 1 0

>  <DIFUSE_FUNC_ATOM>  (1823) 
n/a

>  <FINAL_SINGLE_POINT_ENERGY>  (1823) 
0

>  <NONCOV_INTER_ENERGY_QM>  (1823) 
0

>  <FF_Energy>  (1823) 
-5.75

>  <QM_Energy>  (1823) 
-12.39

>  <source>  (1823) 
ETAM_MBZ

>  <Index>  (1823) 
18516

$$$$
ETAM-pdb4dhk-A-LYS-4:MBZ-pdb4dhk-A-PHE-160
     RDKit          3D

 26 25  0  0  0  0  0  0  0  0999 V2000
   -0.8307    4.6969    2.4237 C   0  0  0  0  0  0  0  0  0  0  0  0
   -0.5596    3.7335    2.3810 H   0  0  0  0  0  0  0  0  0  0  0  0
   -1.1575    4.9079    3.3461 H   0  0  0  0  0  0  0  0  0  0  0  0
    0.0398    5.3165    2.2079 H   0  0  0  0  0  0  0  0  0  0  0  0
   -1.9649    4.9214    1.4483 C   0  0  0  0  0  0  0  0  0  0  0  0
   -2.2459    5.8808    1.4876 H   0  0  0  0  0  0  0  0  0  0  0  0
   -1.6490    4.7066    0.5234 H   0  0  0  0  0  0  0  0  0  0  0  0
   -3.1249    4.0574    1.7811 N   0  0  0  0  0  4  0  0  0  0  0  0
   -2.8276    3.1032    1.8294 H   0  0  0  0  0  0  0  0  0  0  0  0
   -3.5030    4.3331    2.6645 H   0  0  0  0  0  0  0  0  0  0  0  0
   -3.8254    4.1528    1.0741 H   0  0  0  0  0  0  0  0  0  0  0  0
   -0.0070    2.8890    0.0253 C   0  0  0  0  0  0  0  0  0  0  0  0
    0.7808    3.1872    0.5546 H   0  0  0  0  0  0  0  0  0  0  0  0
   -0.8500    3.1823    0.4630 H   0  0  0  0  0  0  0  0  0  0  0  0
    0.0461    3.3627   -0.9550 H   0  0  0  0  0  0  0  0  0  0  0  0
   -0.0007    1.3966   -0.0068 C   0  0  0  0  0  0  0  0  0  0  0  0
   -1.1888    0.6840    0.0081 C   0  0  0  0  0  0  0  0  0  0  0  0
   -2.0600    1.1755    0.0239 H   0  0  0  0  0  0  0  0  0  0  0  0
   -1.1947   -0.6981   -0.0000 C   0  0  0  0  0  0  0  0  0  0  0  0
   -2.0733   -1.1930    0.0007 H   0  0  0  0  0  0  0  0  0  0  0  0
    0.0005   -1.3896   -0.0073 C   0  0  0  0  0  0  0  0  0  0  0  0
    0.0004   -2.3892   -0.0178 H   0  0  0  0  0  0  0  0  0  0  0  0
    1.1947   -0.6905   -0.0000 C   0  0  0  0  0  0  0  0  0  0  0  0
    2.0796   -1.1864    0.0020 H   0  0  0  0  0  0  0  0  0  0  0  0
    1.1890    0.6974    0.0060 C   0  0  0  0  0  0  0  0  0  0  0  0
    2.0588    1.1929    0.0188 H   0  0  0  0  0  0  0  0  0  0  0  0
  1  5  1  0
  5  8  1  0
  1  2  1  0
  1  3  1  0
  1  4  1  0
  5  6  1  0
  5  7  1  0
  8  9  1  0
  8 10  1  0
  8 11  1  0
 12 16  1  0
 16 17  2  0
 17 19  1  0
 19 21  2  0
 21 23  1  0
 23 25  2  0
 25 16  1  0
 12 13  1  0
 12 14  1  0
 12 15  1  0
 17 18  1  0
 19 20  1  0
 21 22  1  0
 23 24  1  0
 25 26  1  0
M  CHG  1   8   1
M  END
>  <PDB_ID>  (1824) 
pdb4dhk

>  <RESIDUE_NAME>  (1824) 
LYS   PHE

>  <FRAG_NAME>  (1824) 
ETAM   MBZ

>  <FRAG_ATOM_NUM>  (1824) 
fragi: 11  fragj: 15

>  <atom.prop.CHAIN_ID>  (1824) 
A A A A A A A A A A A Z Z Z Z Z Z Z Z Z Z Z Z Z Z Z

>  <atom.prop.IS_HEAVY_ATOM>  (1824) 
1 0 0 0 1 0 0 1 0 0 0 1 0 0 0 1 1 0 1 0 1 0 1 0 1 0

>  <DIFUSE_FUNC_ATOM>  (1824) 
n/a

>  <FINAL_SINGLE_POINT_ENERGY>  (1824) 
0

>  <NONCOV_INTER_ENERGY_QM>  (1824) 
0

>  <FF_Energy>  (1824) 
12.73

>  <QM_Energy>  (1824) 
1.65

>  <source>  (1824) 
ETAM_MBZ

>  <Index>  (1824) 
18542

$$$$
ETAM-pdb4dhx-A-LYS-1229:MBZ-pdb4dhx-A-PHE-1225
     RDKit          3D

 26 25  0  0  0  0  0  0  0  0999 V2000
   -3.4713   -0.4560   -3.3621 C   0  0  0  0  0  0  0  0  0  0  0  0
   -3.1919   -0.4522   -4.2905 H   0  0  0  0  0  0  0  0  0  0  0  0
   -2.9423    0.1739   -2.8480 H   0  0  0  0  0  0  0  0  0  0  0  0
   -4.5230   -0.1760   -3.3017 H   0  0  0  0  0  0  0  0  0  0  0  0
   -3.2357   -1.8402   -2.8023 C   0  0  0  0  0  0  0  0  0  0  0  0
   -3.3245   -1.8213   -1.8363 H   0  0  0  0  0  0  0  0  0  0  0  0
   -3.8702   -2.4622   -3.1916 H   0  0  0  0  0  0  0  0  0  0  0  0
   -1.8686   -2.2851   -3.1435 N   0  0  0  0  0  4  0  0  0  0  0  0
   -1.7239   -3.1010   -2.8162 H   0  0  0  0  0  0  0  0  0  0  0  0
   -1.7666   -2.3069   -4.0273 H   0  0  0  0  0  0  0  0  0  0  0  0
   -1.2704   -1.7244   -2.7966 H   0  0  0  0  0  0  0  0  0  0  0  0
    0.0046    2.8985    0.0029 C   0  0  0  0  0  0  0  0  0  0  0  0
    0.8250    3.1908    0.4299 H   0  0  0  0  0  0  0  0  0  0  0  0
   -0.7589    3.1960    0.5211 H   0  0  0  0  0  0  0  0  0  0  0  0
   -0.0508    3.3426   -0.9910 H   0  0  0  0  0  0  0  0  0  0  0  0
   -0.0006    1.3957   -0.0008 C   0  0  0  0  0  0  0  0  0  0  0  0
   -1.1909    0.6896    0.0003 C   0  0  0  0  0  0  0  0  0  0  0  0
   -1.9988    1.1504    0.0009 H   0  0  0  0  0  0  0  0  0  0  0  0
   -1.1942   -0.6947   -0.0000 C   0  0  0  0  0  0  0  0  0  0  0  0
   -1.9995   -1.1594   -0.0005 H   0  0  0  0  0  0  0  0  0  0  0  0
    0.0015   -1.3855   -0.0004 C   0  0  0  0  0  0  0  0  0  0  0  0
    0.0017   -2.3152   -0.0015 H   0  0  0  0  0  0  0  0  0  0  0  0
    1.1942   -0.6931   -0.0000 C   0  0  0  0  0  0  0  0  0  0  0  0
    2.0010   -1.1560   -0.0006 H   0  0  0  0  0  0  0  0  0  0  0  0
    1.1901    0.6880    0.0009 C   0  0  0  0  0  0  0  0  0  0  0  0
    1.9982    1.1496    0.0007 H   0  0  0  0  0  0  0  0  0  0  0  0
  1  5  1  0
  5  8  1  0
  1  2  1  0
  1  3  1  0
  1  4  1  0
  5  6  1  0
  5  7  1  0
  8  9  1  0
  8 10  1  0
  8 11  1  0
 12 16  1  0
 16 17  2  0
 17 19  1  0
 19 21  2  0
 21 23  1  0
 23 25  2  0
 25 16  1  0
 12 13  1  0
 12 14  1  0
 12 15  1  0
 17 18  1  0
 19 20  1  0
 21 22  1  0
 23 24  1  0
 25 26  1  0
M  CHG  1   8   1
M  END
>  <PDB_ID>  (1825) 
pdb4dhx

>  <RESIDUE_NAME>  (1825) 
LYS   PHE

>  <FRAG_NAME>  (1825) 
ETAM   MBZ

>  <FRAG_ATOM_NUM>  (1825) 
fragi: 11  fragj: 15

>  <atom.prop.CHAIN_ID>  (1825) 
A A A A A A A A A A A Z Z Z Z Z Z Z Z Z Z Z Z Z Z Z

>  <atom.prop.IS_HEAVY_ATOM>  (1825) 
1 0 0 0 1 0 0 1 0 0 0 1 0 0 0 1 1 0 1 0 1 0 1 0 1 0

>  <DIFUSE_FUNC_ATOM>  (1825) 
n/a

>  <FINAL_SINGLE_POINT_ENERGY>  (1825) 
0

>  <NONCOV_INTER_ENERGY_QM>  (1825) 
0

>  <FF_Energy>  (1825) 
-3.32

>  <QM_Energy>  (1825) 
-9.08

>  <source>  (1825) 
ETAM_MBZ

>  <Index>  (1825) 
18562

$$$$
ETAM-pdb4dix-B-LYS-408:MBZ-pdb4dix-B-PHE-475
     RDKit          3D

 26 25  0  0  0  0  0  0  0  0999 V2000
   -2.9469   -0.7611    3.1901 C   0  0  0  0  0  0  0  0  0  0  0  0
   -3.6399   -0.6516    3.9001 H   0  0  0  0  0  0  0  0  0  0  0  0
   -2.8542    0.0898    2.6758 H   0  0  0  0  0  0  0  0  0  0  0  0
   -1.9927   -0.9936    3.6629 H   0  0  0  0  0  0  0  0  0  0  0  0
   -3.4087   -1.8553    2.2303 C   0  0  0  0  0  0  0  0  0  0  0  0
   -4.4004   -1.7474    2.0704 H   0  0  0  0  0  0  0  0  0  0  0  0
   -2.9381   -1.7289    1.3453 H   0  0  0  0  0  0  0  0  0  0  0  0
   -3.1450   -3.2380    2.7260 N   0  0  0  0  0  4  0  0  0  0  0  0
   -2.9169   -3.8276    1.9527 H   0  0  0  0  0  0  0  0  0  0  0  0
   -2.3812   -3.2176    3.3698 H   0  0  0  0  0  0  0  0  0  0  0  0
   -3.9613   -3.5852    3.1838 H   0  0  0  0  0  0  0  0  0  0  0  0
    0.0299    2.9063    0.0280 C   0  0  0  0  0  0  0  0  0  0  0  0
    0.8348    3.2106   -0.4628 H   0  0  0  0  0  0  0  0  0  0  0  0
    0.0629    3.1927    0.9759 H   0  0  0  0  0  0  0  0  0  0  0  0
   -0.8358    3.3838   -0.4311 H   0  0  0  0  0  0  0  0  0  0  0  0
    0.0024    1.4042   -0.0047 C   0  0  0  0  0  0  0  0  0  0  0  0
   -1.1982    0.6906    0.0091 C   0  0  0  0  0  0  0  0  0  0  0  0
   -2.0626    1.1802    0.0240 H   0  0  0  0  0  0  0  0  0  0  0  0
   -1.1973   -0.6987   -0.0000 C   0  0  0  0  0  0  0  0  0  0  0  0
   -2.0765   -1.1940   -0.0031 H   0  0  0  0  0  0  0  0  0  0  0  0
   -0.0002   -1.3922   -0.0026 C   0  0  0  0  0  0  0  0  0  0  0  0
   -0.0021   -2.3919   -0.0061 H   0  0  0  0  0  0  0  0  0  0  0  0
    1.1973   -0.6957   -0.0000 C   0  0  0  0  0  0  0  0  0  0  0  0
    2.0805   -1.1955    0.0045 H   0  0  0  0  0  0  0  0  0  0  0  0
    1.1960    0.6917   -0.0019 C   0  0  0  0  0  0  0  0  0  0  0  0
    2.0656    1.1872   -0.0026 H   0  0  0  0  0  0  0  0  0  0  0  0
  1  5  1  0
  5  8  1  0
  1  2  1  0
  1  3  1  0
  1  4  1  0
  5  6  1  0
  5  7  1  0
  8  9  1  0
  8 10  1  0
  8 11  1  0
 12 16  1  0
 16 17  2  0
 17 19  1  0
 19 21  2  0
 21 23  1  0
 23 25  2  0
 25 16  1  0
 12 13  1  0
 12 14  1  0
 12 15  1  0
 17 18  1  0
 19 20  1  0
 21 22  1  0
 23 24  1  0
 25 26  1  0
M  CHG  1   8   1
M  END
>  <PDB_ID>  (1826) 
pdb4dix

>  <RESIDUE_NAME>  (1826) 
LYS   PHE

>  <FRAG_NAME>  (1826) 
ETAM   MBZ

>  <FRAG_ATOM_NUM>  (1826) 
fragi: 11  fragj: 15

>  <atom.prop.CHAIN_ID>  (1826) 
A A A A A A A A A A A Z Z Z Z Z Z Z Z Z Z Z Z Z Z Z

>  <atom.prop.IS_HEAVY_ATOM>  (1826) 
1 0 0 0 1 0 0 1 0 0 0 1 0 0 0 1 1 0 1 0 1 0 1 0 1 0

>  <DIFUSE_FUNC_ATOM>  (1826) 
n/a

>  <FINAL_SINGLE_POINT_ENERGY>  (1826) 
0

>  <NONCOV_INTER_ENERGY_QM>  (1826) 
0

>  <FF_Energy>  (1826) 
8.63

>  <QM_Energy>  (1826) 
-2.42

>  <source>  (1826) 
ETAM_MBZ

>  <Index>  (1826) 
18570

$$$$
ETAM-pdb3gwj-A-LYS-11:MBZ-pdb3gwj-A-PHE-583
     RDKit          3D

 26 25  0  0  0  0  0  0  0  0999 V2000
    1.2039    1.5443   -3.6691 C   0  0  0  0  0  0  0  0  0  0  0  0
    1.8656    1.4544   -4.4119 H   0  0  0  0  0  0  0  0  0  0  0  0
    1.6803    1.5586   -2.7920 H   0  0  0  0  0  0  0  0  0  0  0  0
    0.6665    2.4846   -3.7917 H   0  0  0  0  0  0  0  0  0  0  0  0
    0.2767    0.3434   -3.6976 C   0  0  0  0  0  0  0  0  0  0  0  0
   -0.4044    0.4381   -2.9737 H   0  0  0  0  0  0  0  0  0  0  0  0
   -0.1802    0.3031   -4.5850 H   0  0  0  0  0  0  0  0  0  0  0  0
    1.0431   -0.9182   -3.4854 N   0  0  0  0  0  4  0  0  0  0  0  0
    0.6652   -1.4054   -2.6992 H   0  0  0  0  0  0  0  0  0  0  0  0
    0.9708   -1.4891   -4.3018 H   0  0  0  0  0  0  0  0  0  0  0  0
    2.0026   -0.6967   -3.3140 H   0  0  0  0  0  0  0  0  0  0  0  0
    0.0025    2.9106    0.0087 C   0  0  0  0  0  0  0  0  0  0  0  0
   -0.7307    3.2203   -0.5770 H   0  0  0  0  0  0  0  0  0  0  0  0
    0.8823    3.2162   -0.3223 H   0  0  0  0  0  0  0  0  0  0  0  0
   -0.1523    3.3452    0.9963 H   0  0  0  0  0  0  0  0  0  0  0  0
    0.0005    1.4057    0.0003 C   0  0  0  0  0  0  0  0  0  0  0  0
   -1.1961    0.6983    0.0017 C   0  0  0  0  0  0  0  0  0  0  0  0
   -2.0639    1.1877    0.0024 H   0  0  0  0  0  0  0  0  0  0  0  0
   -1.2043   -0.6976    0.0000 C   0  0  0  0  0  0  0  0  0  0  0  0
   -2.0824   -1.1869    0.0017 H   0  0  0  0  0  0  0  0  0  0  0  0
   -0.0036   -1.4002   -0.0015 C   0  0  0  0  0  0  0  0  0  0  0  0
   -0.0081   -2.3961   -0.0037 H   0  0  0  0  0  0  0  0  0  0  0  0
    1.2043   -0.7021    0.0000 C   0  0  0  0  0  0  0  0  0  0  0  0
    2.0823   -1.1985    0.0025 H   0  0  0  0  0  0  0  0  0  0  0  0
    1.1993    0.6958   -0.0004 C   0  0  0  0  0  0  0  0  0  0  0  0
    2.0673    1.1901   -0.0024 H   0  0  0  0  0  0  0  0  0  0  0  0
  1  5  1  0
  5  8  1  0
  1  2  1  0
  1  3  1  0
  1  4  1  0
  5  6  1  0
  5  7  1  0
  8  9  1  0
  8 10  1  0
  8 11  1  0
 12 16  1  0
 16 17  2  0
 17 19  1  0
 19 21  2  0
 21 23  1  0
 23 25  2  0
 25 16  1  0
 12 13  1  0
 12 14  1  0
 12 15  1  0
 17 18  1  0
 19 20  1  0
 21 22  1  0
 23 24  1  0
 25 26  1  0
M  CHG  1   8   1
M  END
>  <PDB_ID>  (1827) 
pdb3gwj

>  <RESIDUE_NAME>  (1827) 
LYS   PHE

>  <FRAG_NAME>  (1827) 
ETAM   MBZ

>  <FRAG_ATOM_NUM>  (1827) 
fragi: 11  fragj: 15

>  <atom.prop.CHAIN_ID>  (1827) 
A A A A A A A A A A A Z Z Z Z Z Z Z Z Z Z Z Z Z Z Z

>  <atom.prop.IS_HEAVY_ATOM>  (1827) 
1 0 0 0 1 0 0 1 0 0 0 1 0 0 0 1 1 0 1 0 1 0 1 0 1 0

>  <DIFUSE_FUNC_ATOM>  (1827) 
n/a

>  <FINAL_SINGLE_POINT_ENERGY>  (1827) 
0

>  <NONCOV_INTER_ENERGY_QM>  (1827) 
0

>  <FF_Energy>  (1827) 
-7.52

>  <QM_Energy>  (1827) 
-14.31

>  <source>  (1827) 
ETAM_MBZ

>  <Index>  (1827) 
18573

$$$$
ETAM-pdb3gwj-C-LYS-11:MBZ-pdb3gwj-C-PHE-583
     RDKit          3D

 26 25  0  0  0  0  0  0  0  0999 V2000
    1.1281    1.5643   -3.5197 C   0  0  0  0  0  0  0  0  0  0  0  0
    1.8339    1.4972   -4.2189 H   0  0  0  0  0  0  0  0  0  0  0  0
    1.5410    1.5742   -2.6139 H   0  0  0  0  0  0  0  0  0  0  0  0
    0.5733    2.4909   -3.6665 H   0  0  0  0  0  0  0  0  0  0  0  0
    0.2247    0.3462   -3.6261 C   0  0  0  0  0  0  0  0  0  0  0  0
   -0.5138    0.4271   -2.9529 H   0  0  0  0  0  0  0  0  0  0  0  0
   -0.1744    0.3139   -4.5451 H   0  0  0  0  0  0  0  0  0  0  0  0
    0.9736   -0.9249   -3.3763 N   0  0  0  0  0  4  0  0  0  0  0  0
    1.7104   -0.7488   -2.7269 H   0  0  0  0  0  0  0  0  0  0  0  0
    0.3474   -1.6056   -3.0002 H   0  0  0  0  0  0  0  0  0  0  0  0
    1.3544   -1.2551   -4.2377 H   0  0  0  0  0  0  0  0  0  0  0  0
    0.0008    2.9104    0.0317 C   0  0  0  0  0  0  0  0  0  0  0  0
   -0.6908    3.2299   -0.5972 H   0  0  0  0  0  0  0  0  0  0  0  0
    0.9007    3.2214   -0.2310 H   0  0  0  0  0  0  0  0  0  0  0  0
   -0.2227    3.3268    1.0139 H   0  0  0  0  0  0  0  0  0  0  0  0
   -0.0003    1.4084    0.0005 C   0  0  0  0  0  0  0  0  0  0  0  0
   -1.2038    0.7012    0.0005 C   0  0  0  0  0  0  0  0  0  0  0  0
   -2.0676    1.1892   -0.0001 H   0  0  0  0  0  0  0  0  0  0  0  0
   -1.2100   -0.7009    0.0000 C   0  0  0  0  0  0  0  0  0  0  0  0
   -2.0827   -1.1921    0.0011 H   0  0  0  0  0  0  0  0  0  0  0  0
    0.0025   -1.4042   -0.0002 C   0  0  0  0  0  0  0  0  0  0  0  0
   -0.0029   -2.3985   -0.0010 H   0  0  0  0  0  0  0  0  0  0  0  0
    1.2100   -0.7019    0.0000 C   0  0  0  0  0  0  0  0  0  0  0  0
    2.0892   -1.1962    0.0020 H   0  0  0  0  0  0  0  0  0  0  0  0
    1.2016    0.6974   -0.0008 C   0  0  0  0  0  0  0  0  0  0  0  0
    2.0683    1.1934   -0.0037 H   0  0  0  0  0  0  0  0  0  0  0  0
  1  5  1  0
  5  8  1  0
  1  2  1  0
  1  3  1  0
  1  4  1  0
  5  6  1  0
  5  7  1  0
  8  9  1  0
  8 10  1  0
  8 11  1  0
 12 16  1  0
 16 17  2  0
 17 19  1  0
 19 21  2  0
 21 23  1  0
 23 25  2  0
 25 16  1  0
 12 13  1  0
 12 14  1  0
 12 15  1  0
 17 18  1  0
 19 20  1  0
 21 22  1  0
 23 24  1  0
 25 26  1  0
M  CHG  1   8   1
M  END
>  <PDB_ID>  (1828) 
pdb3gwj

>  <RESIDUE_NAME>  (1828) 
LYS   PHE

>  <FRAG_NAME>  (1828) 
ETAM   MBZ

>  <FRAG_ATOM_NUM>  (1828) 
fragi: 11  fragj: 15

>  <atom.prop.CHAIN_ID>  (1828) 
A A A A A A A A A A A Z Z Z Z Z Z Z Z Z Z Z Z Z Z Z

>  <atom.prop.IS_HEAVY_ATOM>  (1828) 
1 0 0 0 1 0 0 1 0 0 0 1 0 0 0 1 1 0 1 0 1 0 1 0 1 0

>  <DIFUSE_FUNC_ATOM>  (1828) 
n/a

>  <FINAL_SINGLE_POINT_ENERGY>  (1828) 
0

>  <NONCOV_INTER_ENERGY_QM>  (1828) 
0

>  <FF_Energy>  (1828) 
-7.5

>  <QM_Energy>  (1828) 
-14.44

>  <source>  (1828) 
ETAM_MBZ

>  <Index>  (1828) 
18581

$$$$
ETAM-pdb3gvx-B-LEU-1:MBZ-pdb3gvx-B-PHE-24
     RDKit          3D

 26 25  0  0  0  0  0  0  0  0999 V2000
    3.1422    1.8903    4.7217 C   0  0  0  0  0  0  0  0  0  0  0  0
    2.2870    1.6655    5.3104 H   0  0  0  0  0  0  0  0  0  0  0  0
    3.2379    0.9900    4.1671 H   0  0  0  0  0  0  0  0  0  0  0  0
    3.9764    1.8781    5.4232 H   0  0  0  0  0  0  0  0  0  0  0  0
    2.6892    2.9670    3.7097 C   0  0  0  0  0  0  0  0  0  0  0  0
    2.3200    3.7671    4.1718 H   0  0  0  0  0  0  0  0  0  0  0  0
    3.5426    3.2691    3.1026 H   0  0  0  0  0  0  0  0  0  0  0  0
    1.6270    2.4231    2.8135 N   0  0  0  0  0  4  0  0  0  0  0  0
    0.8465    2.1433    3.3654 H   0  0  0  0  0  0  0  0  0  0  0  0
    1.3490    3.1314    2.1700 H   0  0  0  0  0  0  0  0  0  0  0  0
    1.9891    1.6381    2.3175 H   0  0  0  0  0  0  0  0  0  0  0  0
   -0.0126    2.8913   -0.0505 C   0  0  0  0  0  0  0  0  0  0  0  0
   -0.5240    3.1742   -0.8524 H   0  0  0  0  0  0  0  0  0  0  0  0
    0.9264    3.2088   -0.1041 H   0  0  0  0  0  0  0  0  0  0  0  0
   -0.4701    3.3717    0.8144 H   0  0  0  0  0  0  0  0  0  0  0  0
   -0.0030    1.4006   -0.0010 C   0  0  0  0  0  0  0  0  0  0  0  0
   -1.1949    0.6976   -0.0024 C   0  0  0  0  0  0  0  0  0  0  0  0
   -2.0621    1.1927   -0.0066 H   0  0  0  0  0  0  0  0  0  0  0  0
   -1.2018   -0.6820   -0.0000 C   0  0  0  0  0  0  0  0  0  0  0  0
   -2.0807   -1.1799    0.0031 H   0  0  0  0  0  0  0  0  0  0  0  0
   -0.0019   -1.3906    0.0007 C   0  0  0  0  0  0  0  0  0  0  0  0
   -0.0207   -2.3908    0.0009 H   0  0  0  0  0  0  0  0  0  0  0  0
    1.2018   -0.7110    0.0000 C   0  0  0  0  0  0  0  0  0  0  0  0
    2.0787   -1.2082   -0.0012 H   0  0  0  0  0  0  0  0  0  0  0  0
    1.1998    0.6854    0.0027 C   0  0  0  0  0  0  0  0  0  0  0  0
    2.0664    1.1802    0.0067 H   0  0  0  0  0  0  0  0  0  0  0  0
  1  5  1  0
  5  8  1  0
  1  2  1  0
  1  3  1  0
  1  4  1  0
  5  6  1  0
  5  7  1  0
  8  9  1  0
  8 10  1  0
  8 11  1  0
 12 16  1  0
 16 17  2  0
 17 19  1  0
 19 21  2  0
 21 23  1  0
 23 25  2  0
 25 16  1  0
 12 13  1  0
 12 14  1  0
 12 15  1  0
 17 18  1  0
 19 20  1  0
 21 22  1  0
 23 24  1  0
 25 26  1  0
M  CHG  1   8   1
M  END
>  <PDB_ID>  (1829) 
pdb3gvx

>  <RESIDUE_NAME>  (1829) 
LEU   PHE

>  <FRAG_NAME>  (1829) 
ETAM   MBZ

>  <FRAG_ATOM_NUM>  (1829) 
fragi: 11  fragj: 15

>  <atom.prop.CHAIN_ID>  (1829) 
A A A A A A A A A A A Z Z Z Z Z Z Z Z Z Z Z Z Z Z Z

>  <atom.prop.IS_HEAVY_ATOM>  (1829) 
1 0 0 0 1 0 0 1 0 0 0 1 0 0 0 1 1 0 1 0 1 0 1 0 1 0

>  <DIFUSE_FUNC_ATOM>  (1829) 
n/a

>  <FINAL_SINGLE_POINT_ENERGY>  (1829) 
0

>  <NONCOV_INTER_ENERGY_QM>  (1829) 
0

>  <FF_Energy>  (1829) 
-3.94

>  <QM_Energy>  (1829) 
-9.56

>  <source>  (1829) 
ETAM_MBZ

>  <Index>  (1829) 
18584

$$$$
ETAM-pdb4djn-A-LYS-168:MBZ-pdb4djn-A-PHE-265
     RDKit          3D

 26 25  0  0  0  0  0  0  0  0999 V2000
    0.5822    1.3280   -4.0537 C   0  0  0  0  0  0  0  0  0  0  0  0
    0.1190    1.6826   -3.2400 H   0  0  0  0  0  0  0  0  0  0  0  0
    0.2941    0.3818   -4.2113 H   0  0  0  0  0  0  0  0  0  0  0  0
    0.2796    1.9285   -4.9116 H   0  0  0  0  0  0  0  0  0  0  0  0
    2.0749    1.3473   -3.8121 C   0  0  0  0  0  0  0  0  0  0  0  0
    2.5346    0.8387   -4.5454 H   0  0  0  0  0  0  0  0  0  0  0  0
    2.3986    2.2982   -3.8253 H   0  0  0  0  0  0  0  0  0  0  0  0
    2.4303    0.7333   -2.5004 N   0  0  0  0  0  4  0  0  0  0  0  0
    3.2132    1.2155   -2.1112 H   0  0  0  0  0  0  0  0  0  0  0  0
    1.6495    0.8052   -1.8810 H   0  0  0  0  0  0  0  0  0  0  0  0
    2.6621   -0.2284   -2.6381 H   0  0  0  0  0  0  0  0  0  0  0  0
    0.0120    2.9025    0.0041 C   0  0  0  0  0  0  0  0  0  0  0  0
   -0.3909    3.2106   -0.8481 H   0  0  0  0  0  0  0  0  0  0  0  0
    0.9539    3.2036    0.0792 H   0  0  0  0  0  0  0  0  0  0  0  0
   -0.5473    3.3639    0.8180 H   0  0  0  0  0  0  0  0  0  0  0  0
    0.0017    1.3995    0.0086 C   0  0  0  0  0  0  0  0  0  0  0  0
   -1.1950    0.6930   -0.0055 C   0  0  0  0  0  0  0  0  0  0  0  0
   -2.0607    1.1841   -0.0209 H   0  0  0  0  0  0  0  0  0  0  0  0
   -1.1990   -0.6956   -0.0000 C   0  0  0  0  0  0  0  0  0  0  0  0
   -2.0772   -1.1895    0.0082 H   0  0  0  0  0  0  0  0  0  0  0  0
   -0.0006   -1.3896   -0.0038 C   0  0  0  0  0  0  0  0  0  0  0  0
   -0.0038   -2.3903   -0.0097 H   0  0  0  0  0  0  0  0  0  0  0  0
    1.1990   -0.6954   -0.0000 C   0  0  0  0  0  0  0  0  0  0  0  0
    2.0799   -1.1953    0.0035 H   0  0  0  0  0  0  0  0  0  0  0  0
    1.1938    0.6881    0.0008 C   0  0  0  0  0  0  0  0  0  0  0  0
    2.0641    1.1864   -0.0054 H   0  0  0  0  0  0  0  0  0  0  0  0
  1  5  1  0
  5  8  1  0
  1  2  1  0
  1  3  1  0
  1  4  1  0
  5  6  1  0
  5  7  1  0
  8  9  1  0
  8 10  1  0
  8 11  1  0
 12 16  1  0
 16 17  2  0
 17 19  1  0
 19 21  2  0
 21 23  1  0
 23 25  2  0
 25 16  1  0
 12 13  1  0
 12 14  1  0
 12 15  1  0
 17 18  1  0
 19 20  1  0
 21 22  1  0
 23 24  1  0
 25 26  1  0
M  CHG  1   8   1
M  END
>  <PDB_ID>  (1830) 
pdb4djn

>  <RESIDUE_NAME>  (1830) 
LYS   PHE

>  <FRAG_NAME>  (1830) 
ETAM   MBZ

>  <FRAG_ATOM_NUM>  (1830) 
fragi: 11  fragj: 15

>  <atom.prop.CHAIN_ID>  (1830) 
A A A A A A A A A A A Z Z Z Z Z Z Z Z Z Z Z Z Z Z Z

>  <atom.prop.IS_HEAVY_ATOM>  (1830) 
1 0 0 0 1 0 0 1 0 0 0 1 0 0 0 1 1 0 1 0 1 0 1 0 1 0

>  <DIFUSE_FUNC_ATOM>  (1830) 
n/a

>  <FINAL_SINGLE_POINT_ENERGY>  (1830) 
0

>  <NONCOV_INTER_ENERGY_QM>  (1830) 
0

>  <FF_Energy>  (1830) 
-1.42

>  <QM_Energy>  (1830) 
-9.22

>  <source>  (1830) 
ETAM_MBZ

>  <Index>  (1830) 
18589

$$$$
ETAM-pdb4djn-B-LYS-168:MBZ-pdb4djn-B-PHE-198
     RDKit          3D

 26 25  0  0  0  0  0  0  0  0999 V2000
    1.0589   -1.7852   -5.2729 C   0  0  0  0  0  0  0  0  0  0  0  0
    2.0027   -1.6599   -4.9495 H   0  0  0  0  0  0  0  0  0  0  0  0
    0.5729   -0.9089   -5.1910 H   0  0  0  0  0  0  0  0  0  0  0  0
    1.0897   -2.0657   -6.3258 H   0  0  0  0  0  0  0  0  0  0  0  0
    0.3754   -2.8020   -4.3867 C   0  0  0  0  0  0  0  0  0  0  0  0
   -0.5457   -2.9634   -4.7229 H   0  0  0  0  0  0  0  0  0  0  0  0
    0.8987   -3.6476   -4.3938 H   0  0  0  0  0  0  0  0  0  0  0  0
    0.3078   -2.2764   -3.0006 N   0  0  0  0  0  4  0  0  0  0  0  0
   -0.3047   -1.4856   -2.9724 H   0  0  0  0  0  0  0  0  0  0  0  0
   -0.0400   -2.9890   -2.3902 H   0  0  0  0  0  0  0  0  0  0  0  0
    1.2227   -2.0001   -2.7035 H   0  0  0  0  0  0  0  0  0  0  0  0
    0.0032    2.9100    0.0334 C   0  0  0  0  0  0  0  0  0  0  0  0
    0.9457    3.2151   -0.0294 H   0  0  0  0  0  0  0  0  0  0  0  0
   -0.3983    3.1901    0.8976 H   0  0  0  0  0  0  0  0  0  0  0  0
   -0.5590    3.3883   -0.7686 H   0  0  0  0  0  0  0  0  0  0  0  0
    0.0021    1.4091   -0.0090 C   0  0  0  0  0  0  0  0  0  0  0  0
   -1.2006    0.6900    0.0082 C   0  0  0  0  0  0  0  0  0  0  0  0
   -2.0662    1.1811    0.0259 H   0  0  0  0  0  0  0  0  0  0  0  0
   -1.2068   -0.7051    0.0000 C   0  0  0  0  0  0  0  0  0  0  0  0
   -2.0801   -1.1983   -0.0007 H   0  0  0  0  0  0  0  0  0  0  0  0
    0.0000   -1.3998   -0.0054 C   0  0  0  0  0  0  0  0  0  0  0  0
    0.0021   -2.3955   -0.0137 H   0  0  0  0  0  0  0  0  0  0  0  0
    1.2068   -0.6945    0.0000 C   0  0  0  0  0  0  0  0  0  0  0  0
    2.0869   -1.1912    0.0010 H   0  0  0  0  0  0  0  0  0  0  0  0
    1.1985    0.7004    0.0061 C   0  0  0  0  0  0  0  0  0  0  0  0
    2.0677    1.1965    0.0210 H   0  0  0  0  0  0  0  0  0  0  0  0
  1  5  1  0
  5  8  1  0
  1  2  1  0
  1  3  1  0
  1  4  1  0
  5  6  1  0
  5  7  1  0
  8  9  1  0
  8 10  1  0
  8 11  1  0
 12 16  1  0
 16 17  2  0
 17 19  1  0
 19 21  2  0
 21 23  1  0
 23 25  2  0
 25 16  1  0
 12 13  1  0
 12 14  1  0
 12 15  1  0
 17 18  1  0
 19 20  1  0
 21 22  1  0
 23 24  1  0
 25 26  1  0
M  CHG  1   8   1
M  END
>  <PDB_ID>  (1831) 
pdb4djn

>  <RESIDUE_NAME>  (1831) 
LYS   PHE

>  <FRAG_NAME>  (1831) 
ETAM   MBZ

>  <FRAG_ATOM_NUM>  (1831) 
fragi: 11  fragj: 15

>  <atom.prop.CHAIN_ID>  (1831) 
A A A A A A A A A A A Z Z Z Z Z Z Z Z Z Z Z Z Z Z Z

>  <atom.prop.IS_HEAVY_ATOM>  (1831) 
1 0 0 0 1 0 0 1 0 0 0 1 0 0 0 1 1 0 1 0 1 0 1 0 1 0

>  <DIFUSE_FUNC_ATOM>  (1831) 
n/a

>  <FINAL_SINGLE_POINT_ENERGY>  (1831) 
0

>  <NONCOV_INTER_ENERGY_QM>  (1831) 
0

>  <FF_Energy>  (1831) 
-3.83

>  <QM_Energy>  (1831) 
-10.8

>  <source>  (1831) 
ETAM_MBZ

>  <Index>  (1831) 
18593

$$$$
ETAM-pdb3gxa-A-LYS-276:MBZ-pdb3gxa-A-PHE-234
     RDKit          3D

 26 25  0  0  0  0  0  0  0  0999 V2000
   -1.1631   -0.1976   -4.1803 C   0  0  0  0  0  0  0  0  0  0  0  0
   -1.6816    0.2715   -4.8857 H   0  0  0  0  0  0  0  0  0  0  0  0
   -1.0405    0.3871   -3.3876 H   0  0  0  0  0  0  0  0  0  0  0  0
   -1.6999   -1.0979   -3.8815 H   0  0  0  0  0  0  0  0  0  0  0  0
    0.2051   -0.5478   -4.7392 C   0  0  0  0  0  0  0  0  0  0  0  0
    0.1354   -1.3943   -5.2663 H   0  0  0  0  0  0  0  0  0  0  0  0
    0.5141    0.1923   -5.3368 H   0  0  0  0  0  0  0  0  0  0  0  0
    1.1979   -0.7353   -3.6412 N   0  0  0  0  0  4  0  0  0  0  0  0
    0.8124   -0.3912   -2.7859 H   0  0  0  0  0  0  0  0  0  0  0  0
    1.4073   -1.7075   -3.5486 H   0  0  0  0  0  0  0  0  0  0  0  0
    2.0323   -0.2312   -3.8612 H   0  0  0  0  0  0  0  0  0  0  0  0
    0.0002    2.8997   -0.0792 C   0  0  0  0  0  0  0  0  0  0  0  0
    0.7375    3.2349    0.4850 H   0  0  0  0  0  0  0  0  0  0  0  0
   -0.8762    3.2242    0.2372 H   0  0  0  0  0  0  0  0  0  0  0  0
    0.1527    3.2799   -1.0893 H   0  0  0  0  0  0  0  0  0  0  0  0
   -0.0017    1.4023   -0.0025 C   0  0  0  0  0  0  0  0  0  0  0  0
   -1.2004    0.6954    0.0011 C   0  0  0  0  0  0  0  0  0  0  0  0
   -2.0657    1.1865    0.0031 H   0  0  0  0  0  0  0  0  0  0  0  0
   -1.2049   -0.6944   -0.0000 C   0  0  0  0  0  0  0  0  0  0  0  0
   -2.0787   -1.1912    0.0009 H   0  0  0  0  0  0  0  0  0  0  0  0
    0.0025   -1.3947   -0.0011 C   0  0  0  0  0  0  0  0  0  0  0  0
   -0.0056   -2.3923   -0.0028 H   0  0  0  0  0  0  0  0  0  0  0  0
    1.2049   -0.7005    0.0000 C   0  0  0  0  0  0  0  0  0  0  0  0
    2.0848   -1.1972    0.0004 H   0  0  0  0  0  0  0  0  0  0  0  0
    1.1996    0.6918    0.0025 C   0  0  0  0  0  0  0  0  0  0  0  0
    2.0655    1.1894    0.0067 H   0  0  0  0  0  0  0  0  0  0  0  0
  1  5  1  0
  5  8  1  0
  1  2  1  0
  1  3  1  0
  1  4  1  0
  5  6  1  0
  5  7  1  0
  8  9  1  0
  8 10  1  0
  8 11  1  0
 12 16  1  0
 16 17  2  0
 17 19  1  0
 19 21  2  0
 21 23  1  0
 23 25  2  0
 25 16  1  0
 12 13  1  0
 12 14  1  0
 12 15  1  0
 17 18  1  0
 19 20  1  0
 21 22  1  0
 23 24  1  0
 25 26  1  0
M  CHG  1   8   1
M  END
>  <PDB_ID>  (1832) 
pdb3gxa

>  <RESIDUE_NAME>  (1832) 
LYS   PHE

>  <FRAG_NAME>  (1832) 
ETAM   MBZ

>  <FRAG_ATOM_NUM>  (1832) 
fragi: 11  fragj: 15

>  <atom.prop.CHAIN_ID>  (1832) 
A A A A A A A A A A A Z Z Z Z Z Z Z Z Z Z Z Z Z Z Z

>  <atom.prop.IS_HEAVY_ATOM>  (1832) 
1 0 0 0 1 0 0 1 0 0 0 1 0 0 0 1 1 0 1 0 1 0 1 0 1 0

>  <DIFUSE_FUNC_ATOM>  (1832) 
n/a

>  <FINAL_SINGLE_POINT_ENERGY>  (1832) 
0

>  <NONCOV_INTER_ENERGY_QM>  (1832) 
0

>  <FF_Energy>  (1832) 
-6.58

>  <QM_Energy>  (1832) 
-12.25

>  <source>  (1832) 
ETAM_MBZ

>  <Index>  (1832) 
18604

$$$$
ETAM-pdb3gxa-B-LYS-276:MBZ-pdb3gxa-B-PHE-234
     RDKit          3D

 26 25  0  0  0  0  0  0  0  0999 V2000
   -1.8701   -0.0922   -4.2048 C   0  0  0  0  0  0  0  0  0  0  0  0
   -2.4493    0.1846   -4.9621 H   0  0  0  0  0  0  0  0  0  0  0  0
   -1.7547    0.6537   -3.5600 H   0  0  0  0  0  0  0  0  0  0  0  0
   -2.3433   -0.9291   -3.6911 H   0  0  0  0  0  0  0  0  0  0  0  0
   -0.5067   -0.4834   -4.7493 C   0  0  0  0  0  0  0  0  0  0  0  0
   -0.6114   -1.2583   -5.3706 H   0  0  0  0  0  0  0  0  0  0  0  0
   -0.1157    0.2915   -5.2451 H   0  0  0  0  0  0  0  0  0  0  0  0
    0.4257   -0.8712   -3.6410 N   0  0  0  0  0  4  0  0  0  0  0  0
    0.2408   -0.2998   -2.8442 H   0  0  0  0  0  0  0  0  0  0  0  0
    0.2778   -1.8310   -3.4116 H   0  0  0  0  0  0  0  0  0  0  0  0
    1.3666   -0.7356   -3.9446 H   0  0  0  0  0  0  0  0  0  0  0  0
   -0.0103    2.8915   -0.0967 C   0  0  0  0  0  0  0  0  0  0  0  0
    0.7638    3.2401    0.4076 H   0  0  0  0  0  0  0  0  0  0  0  0
   -0.8638    3.2216    0.2744 H   0  0  0  0  0  0  0  0  0  0  0  0
    0.0698    3.2522   -1.1221 H   0  0  0  0  0  0  0  0  0  0  0  0
   -0.0020    1.4019    0.0029 C   0  0  0  0  0  0  0  0  0  0  0  0
   -1.1986    0.6951    0.0009 C   0  0  0  0  0  0  0  0  0  0  0  0
   -2.0646    1.1874   -0.0012 H   0  0  0  0  0  0  0  0  0  0  0  0
   -1.2058   -0.6944   -0.0000 C   0  0  0  0  0  0  0  0  0  0  0  0
   -2.0801   -1.1894    0.0047 H   0  0  0  0  0  0  0  0  0  0  0  0
    0.0008   -1.3957   -0.0062 C   0  0  0  0  0  0  0  0  0  0  0  0
   -0.0067   -2.3931   -0.0158 H   0  0  0  0  0  0  0  0  0  0  0  0
    1.2058   -0.7009    0.0000 C   0  0  0  0  0  0  0  0  0  0  0  0
    2.0846   -1.1975    0.0037 H   0  0  0  0  0  0  0  0  0  0  0  0
    1.1997    0.6940    0.0024 C   0  0  0  0  0  0  0  0  0  0  0  0
    2.0657    1.1912    0.0033 H   0  0  0  0  0  0  0  0  0  0  0  0
  1  5  1  0
  5  8  1  0
  1  2  1  0
  1  3  1  0
  1  4  1  0
  5  6  1  0
  5  7  1  0
  8  9  1  0
  8 10  1  0
  8 11  1  0
 12 16  1  0
 16 17  2  0
 17 19  1  0
 19 21  2  0
 21 23  1  0
 23 25  2  0
 25 16  1  0
 12 13  1  0
 12 14  1  0
 12 15  1  0
 17 18  1  0
 19 20  1  0
 21 22  1  0
 23 24  1  0
 25 26  1  0
M  CHG  1   8   1
M  END
>  <PDB_ID>  (1833) 
pdb3gxa

>  <RESIDUE_NAME>  (1833) 
LYS   PHE

>  <FRAG_NAME>  (1833) 
ETAM   MBZ

>  <FRAG_ATOM_NUM>  (1833) 
fragi: 11  fragj: 15

>  <atom.prop.CHAIN_ID>  (1833) 
A A A A A A A A A A A Z Z Z Z Z Z Z Z Z Z Z Z Z Z Z

>  <atom.prop.IS_HEAVY_ATOM>  (1833) 
1 0 0 0 1 0 0 1 0 0 0 1 0 0 0 1 1 0 1 0 1 0 1 0 1 0

>  <DIFUSE_FUNC_ATOM>  (1833) 
n/a

>  <FINAL_SINGLE_POINT_ENERGY>  (1833) 
0

>  <NONCOV_INTER_ENERGY_QM>  (1833) 
0

>  <FF_Energy>  (1833) 
-6.94

>  <QM_Energy>  (1833) 
-12.45

>  <source>  (1833) 
ETAM_MBZ

>  <Index>  (1833) 
18606

$$$$
ETAM-pdb3gxa-E-LYS-276:MBZ-pdb3gxa-E-PHE-234
     RDKit          3D

 26 25  0  0  0  0  0  0  0  0999 V2000
   -1.2883   -0.0546   -4.0003 C   0  0  0  0  0  0  0  0  0  0  0  0
   -1.7879    0.5603   -4.6085 H   0  0  0  0  0  0  0  0  0  0  0  0
   -1.1058    0.4048   -3.1327 H   0  0  0  0  0  0  0  0  0  0  0  0
   -1.9048   -0.9328   -3.8086 H   0  0  0  0  0  0  0  0  0  0  0  0
    0.0467   -0.4017   -4.6531 C   0  0  0  0  0  0  0  0  0  0  0  0
   -0.1208   -1.0785   -5.3849 H   0  0  0  0  0  0  0  0  0  0  0  0
    0.4187    0.4325   -5.0867 H   0  0  0  0  0  0  0  0  0  0  0  0
    1.0454   -0.9450   -3.7042 N   0  0  0  0  0  4  0  0  0  0  0  0
    0.8277   -1.8999   -3.4981 H   0  0  0  0  0  0  0  0  0  0  0  0
    1.9583   -0.8937   -4.1117 H   0  0  0  0  0  0  0  0  0  0  0  0
    1.0292   -0.4111   -2.8578 H   0  0  0  0  0  0  0  0  0  0  0  0
    0.0014    2.8965   -0.0625 C   0  0  0  0  0  0  0  0  0  0  0  0
    0.7368    3.2326    0.5063 H   0  0  0  0  0  0  0  0  0  0  0  0
   -0.8766    3.2202    0.2576 H   0  0  0  0  0  0  0  0  0  0  0  0
    0.1532    3.2928   -1.0665 H   0  0  0  0  0  0  0  0  0  0  0  0
    0.0028    1.4036    0.0010 C   0  0  0  0  0  0  0  0  0  0  0  0
   -1.1957    0.6972   -0.0000 C   0  0  0  0  0  0  0  0  0  0  0  0
   -2.0617    1.1895   -0.0022 H   0  0  0  0  0  0  0  0  0  0  0  0
   -1.2044   -0.6951    0.0000 C   0  0  0  0  0  0  0  0  0  0  0  0
   -2.0849   -1.1837    0.0041 H   0  0  0  0  0  0  0  0  0  0  0  0
   -0.0092   -1.3978   -0.0038 C   0  0  0  0  0  0  0  0  0  0  0  0
   -0.0130   -2.3950   -0.0103 H   0  0  0  0  0  0  0  0  0  0  0  0
    1.2044   -0.7027   -0.0000 C   0  0  0  0  0  0  0  0  0  0  0  0
    2.0791   -1.2028    0.0020 H   0  0  0  0  0  0  0  0  0  0  0  0
    1.2021    0.6947    0.0028 C   0  0  0  0  0  0  0  0  0  0  0  0
    2.0696    1.1876    0.0052 H   0  0  0  0  0  0  0  0  0  0  0  0
  1  5  1  0
  5  8  1  0
  1  2  1  0
  1  3  1  0
  1  4  1  0
  5  6  1  0
  5  7  1  0
  8  9  1  0
  8 10  1  0
  8 11  1  0
 12 16  1  0
 16 17  2  0
 17 19  1  0
 19 21  2  0
 21 23  1  0
 23 25  2  0
 25 16  1  0
 12 13  1  0
 12 14  1  0
 12 15  1  0
 17 18  1  0
 19 20  1  0
 21 22  1  0
 23 24  1  0
 25 26  1  0
M  CHG  1   8   1
M  END
>  <PDB_ID>  (1834) 
pdb3gxa

>  <RESIDUE_NAME>  (1834) 
LYS   PHE

>  <FRAG_NAME>  (1834) 
ETAM   MBZ

>  <FRAG_ATOM_NUM>  (1834) 
fragi: 11  fragj: 15

>  <atom.prop.CHAIN_ID>  (1834) 
A A A A A A A A A A A Z Z Z Z Z Z Z Z Z Z Z Z Z Z Z

>  <atom.prop.IS_HEAVY_ATOM>  (1834) 
1 0 0 0 1 0 0 1 0 0 0 1 0 0 0 1 1 0 1 0 1 0 1 0 1 0

>  <DIFUSE_FUNC_ATOM>  (1834) 
n/a

>  <FINAL_SINGLE_POINT_ENERGY>  (1834) 
0

>  <NONCOV_INTER_ENERGY_QM>  (1834) 
0

>  <FF_Energy>  (1834) 
-6.41

>  <QM_Energy>  (1834) 
-12.12

>  <source>  (1834) 
ETAM_MBZ

>  <Index>  (1834) 
18609

$$$$
ETAM-pdb4dlq-A-LYS-618:MBZ-pdb4dlq-A-PHE-672
     RDKit          3D

 26 25  0  0  0  0  0  0  0  0999 V2000
    1.8894   -6.0290    0.3580 C   0  0  0  0  0  0  0  0  0  0  0  0
    2.1354   -5.9688    1.3257 H   0  0  0  0  0  0  0  0  0  0  0  0
    2.0377   -6.9630    0.0332 H   0  0  0  0  0  0  0  0  0  0  0  0
    0.8291   -5.7962    0.2596 H   0  0  0  0  0  0  0  0  0  0  0  0
    2.7736   -5.0885   -0.4314 C   0  0  0  0  0  0  0  0  0  0  0  0
    3.7301   -5.4034   -0.3617 H   0  0  0  0  0  0  0  0  0  0  0  0
    2.5046   -5.1261   -1.4043 H   0  0  0  0  0  0  0  0  0  0  0  0
    2.6904   -3.6840    0.0393 N   0  0  0  0  0  4  0  0  0  0  0  0
    1.9585   -3.6015    0.7167 H   0  0  0  0  0  0  0  0  0  0  0  0
    3.5606   -3.4189    0.4549 H   0  0  0  0  0  0  0  0  0  0  0  0
    2.4949   -3.0827   -0.7362 H   0  0  0  0  0  0  0  0  0  0  0  0
   -0.0042    2.8966   -0.0027 C   0  0  0  0  0  0  0  0  0  0  0  0
    0.7996    3.2057    0.4829 H   0  0  0  0  0  0  0  0  0  0  0  0
   -0.8320    3.2045    0.4420 H   0  0  0  0  0  0  0  0  0  0  0  0
    0.0201    3.3379   -0.9991 H   0  0  0  0  0  0  0  0  0  0  0  0
   -0.0028    1.3969   -0.0013 C   0  0  0  0  0  0  0  0  0  0  0  0
   -1.1950    0.6895    0.0040 C   0  0  0  0  0  0  0  0  0  0  0  0
   -2.0630    1.1825    0.0099 H   0  0  0  0  0  0  0  0  0  0  0  0
   -1.2014   -0.6929   -0.0000 C   0  0  0  0  0  0  0  0  0  0  0  0
   -2.0775   -1.1893   -0.0023 H   0  0  0  0  0  0  0  0  0  0  0  0
   -0.0017   -1.3878    0.0014 C   0  0  0  0  0  0  0  0  0  0  0  0
   -0.0058   -2.3882    0.0028 H   0  0  0  0  0  0  0  0  0  0  0  0
    1.2014   -0.6956    0.0000 C   0  0  0  0  0  0  0  0  0  0  0  0
    2.0804   -1.1975    0.0038 H   0  0  0  0  0  0  0  0  0  0  0  0
    1.1995    0.6899   -0.0041 C   0  0  0  0  0  0  0  0  0  0  0  0
    2.0635    1.1897   -0.0095 H   0  0  0  0  0  0  0  0  0  0  0  0
  1  5  1  0
  5  8  1  0
  1  2  1  0
  1  3  1  0
  1  4  1  0
  5  6  1  0
  5  7  1  0
  8  9  1  0
  8 10  1  0
  8 11  1  0
 12 16  1  0
 16 17  2  0
 17 19  1  0
 19 21  2  0
 21 23  1  0
 23 25  2  0
 25 16  1  0
 12 13  1  0
 12 14  1  0
 12 15  1  0
 17 18  1  0
 19 20  1  0
 21 22  1  0
 23 24  1  0
 25 26  1  0
M  CHG  1   8   1
M  END
>  <PDB_ID>  (1835) 
pdb4dlq

>  <RESIDUE_NAME>  (1835) 
LYS   PHE

>  <FRAG_NAME>  (1835) 
ETAM   MBZ

>  <FRAG_ATOM_NUM>  (1835) 
fragi: 11  fragj: 15

>  <atom.prop.CHAIN_ID>  (1835) 
A A A A A A A A A A A Z Z Z Z Z Z Z Z Z Z Z Z Z Z Z

>  <atom.prop.IS_HEAVY_ATOM>  (1835) 
1 0 0 0 1 0 0 1 0 0 0 1 0 0 0 1 1 0 1 0 1 0 1 0 1 0

>  <DIFUSE_FUNC_ATOM>  (1835) 
n/a

>  <FINAL_SINGLE_POINT_ENERGY>  (1835) 
0

>  <NONCOV_INTER_ENERGY_QM>  (1835) 
0

>  <FF_Energy>  (1835) 
2.15

>  <QM_Energy>  (1835) 
-4.36

>  <source>  (1835) 
ETAM_MBZ

>  <Index>  (1835) 
18624

$$$$
ETAM-pdb3gz1-B-LYS-142:MBZ-pdb3gz1-B-PHE-108
     RDKit          3D

 26 25  0  0  0  0  0  0  0  0999 V2000
    0.5733   -3.7778    3.3325 C   0  0  0  0  0  0  0  0  0  0  0  0
    0.3757   -3.9314    2.3563 H   0  0  0  0  0  0  0  0  0  0  0  0
    0.9197   -4.6388    3.7246 H   0  0  0  0  0  0  0  0  0  0  0  0
    1.3733   -3.0401    3.3950 H   0  0  0  0  0  0  0  0  0  0  0  0
   -0.6606   -3.3724    4.0333 C   0  0  0  0  0  0  0  0  0  0  0  0
   -1.3315   -4.1152    4.0024 H   0  0  0  0  0  0  0  0  0  0  0  0
   -0.4551   -3.1532    4.9889 H   0  0  0  0  0  0  0  0  0  0  0  0
   -1.2352   -2.1809    3.3819 N   0  0  0  0  0  4  0  0  0  0  0  0
   -0.5586   -1.4417    3.3717 H   0  0  0  0  0  0  0  0  0  0  0  0
   -1.4960   -2.4025    2.4399 H   0  0  0  0  0  0  0  0  0  0  0  0
   -2.0466   -1.8776    3.8860 H   0  0  0  0  0  0  0  0  0  0  0  0
   -0.0260    2.9235   -0.0011 C   0  0  0  0  0  0  0  0  0  0  0  0
    0.7374    3.2279    0.5464 H   0  0  0  0  0  0  0  0  0  0  0  0
   -0.8871    3.2192    0.3820 H   0  0  0  0  0  0  0  0  0  0  0  0
    0.0713    3.3698   -0.9907 H   0  0  0  0  0  0  0  0  0  0  0  0
   -0.0161    1.4173   -0.0147 C   0  0  0  0  0  0  0  0  0  0  0  0
   -1.2077    0.7136   -0.0341 C   0  0  0  0  0  0  0  0  0  0  0  0
   -2.0780    1.1963   -0.0737 H   0  0  0  0  0  0  0  0  0  0  0  0
   -1.2204   -0.6942    0.0000 C   0  0  0  0  0  0  0  0  0  0  0  0
   -2.0801   -1.1912    0.0359 H   0  0  0  0  0  0  0  0  0  0  0  0
    0.0239   -1.4234   -0.0154 C   0  0  0  0  0  0  0  0  0  0  0  0
    0.0018   -2.4047   -0.0366 H   0  0  0  0  0  0  0  0  0  0  0  0
    1.2204   -0.7073    0.0000 C   0  0  0  0  0  0  0  0  0  0  0  0
    2.1076   -1.1894   -0.0331 H   0  0  0  0  0  0  0  0  0  0  0  0
    1.2000    0.6939    0.0642 C   0  0  0  0  0  0  0  0  0  0  0  0
    2.0551    1.1966    0.1663 H   0  0  0  0  0  0  0  0  0  0  0  0
  1  5  1  0
  5  8  1  0
  1  2  1  0
  1  3  1  0
  1  4  1  0
  5  6  1  0
  5  7  1  0
  8  9  1  0
  8 10  1  0
  8 11  1  0
 12 16  1  0
 16 17  2  0
 17 19  1  0
 19 21  2  0
 21 23  1  0
 23 25  2  0
 25 16  1  0
 12 13  1  0
 12 14  1  0
 12 15  1  0
 17 18  1  0
 19 20  1  0
 21 22  1  0
 23 24  1  0
 25 26  1  0
M  CHG  1   8   1
M  END
>  <PDB_ID>  (1836) 
pdb3gz1

>  <RESIDUE_NAME>  (1836) 
LYS   PHE

>  <FRAG_NAME>  (1836) 
ETAM   MBZ

>  <FRAG_ATOM_NUM>  (1836) 
fragi: 11  fragj: 15

>  <atom.prop.CHAIN_ID>  (1836) 
A A A A A A A A A A A Z Z Z Z Z Z Z Z Z Z Z Z Z Z Z

>  <atom.prop.IS_HEAVY_ATOM>  (1836) 
1 0 0 0 1 0 0 1 0 0 0 1 0 0 0 1 1 0 1 0 1 0 1 0 1 0

>  <DIFUSE_FUNC_ATOM>  (1836) 
n/a

>  <FINAL_SINGLE_POINT_ENERGY>  (1836) 
0

>  <NONCOV_INTER_ENERGY_QM>  (1836) 
0

>  <FF_Energy>  (1836) 
-3.87

>  <QM_Energy>  (1836) 
-9.35

>  <source>  (1836) 
ETAM_MBZ

>  <Index>  (1836) 
18637

$$$$
ETAM-pdb3gze-A-LYS-73:MBZ-pdb3gze-A-PHE-100
     RDKit          3D

 26 25  0  0  0  0  0  0  0  0999 V2000
   -1.1746   -3.2460   -3.5994 C   0  0  0  0  0  0  0  0  0  0  0  0
   -1.9671   -3.5118   -3.0424 H   0  0  0  0  0  0  0  0  0  0  0  0
   -0.3382   -3.4019   -3.0656 H   0  0  0  0  0  0  0  0  0  0  0  0
   -1.1443   -3.8858   -4.4814 H   0  0  0  0  0  0  0  0  0  0  0  0
   -1.2796   -1.7577   -3.9103 C   0  0  0  0  0  0  0  0  0  0  0  0
   -1.5846   -1.6496   -4.8820 H   0  0  0  0  0  0  0  0  0  0  0  0
   -2.0281   -1.3577   -3.3377 H   0  0  0  0  0  0  0  0  0  0  0  0
   -0.0413   -0.9358   -3.7092 N   0  0  0  0  0  4  0  0  0  0  0  0
   -0.2788    0.0311   -3.7727 H   0  0  0  0  0  0  0  0  0  0  0  0
    0.3378   -1.1337   -2.8079 H   0  0  0  0  0  0  0  0  0  0  0  0
    0.6232   -1.1692   -4.4153 H   0  0  0  0  0  0  0  0  0  0  0  0
   -0.0034    2.8658   -0.0440 C   0  0  0  0  0  0  0  0  0  0  0  0
    0.8109    3.2027    0.4003 H   0  0  0  0  0  0  0  0  0  0  0  0
   -0.8223    3.2018    0.3907 H   0  0  0  0  0  0  0  0  0  0  0  0
    0.0022    3.2473   -1.0650 H   0  0  0  0  0  0  0  0  0  0  0  0
   -0.0037    1.3928    0.0110 C   0  0  0  0  0  0  0  0  0  0  0  0
   -1.2011    0.6774   -0.0099 C   0  0  0  0  0  0  0  0  0  0  0  0
   -2.0674    1.1630   -0.0338 H   0  0  0  0  0  0  0  0  0  0  0  0
   -1.1944   -0.7138    0.0000 C   0  0  0  0  0  0  0  0  0  0  0  0
   -2.0602   -1.2170   -0.0013 H   0  0  0  0  0  0  0  0  0  0  0  0
    0.0197   -1.3820    0.0130 C   0  0  0  0  0  0  0  0  0  0  0  0
    0.0282   -2.3859    0.0318 H   0  0  0  0  0  0  0  0  0  0  0  0
    1.1944   -0.6754    0.0000 C   0  0  0  0  0  0  0  0  0  0  0  0
    2.0905   -1.1682    0.0021 H   0  0  0  0  0  0  0  0  0  0  0  0
    1.1851    0.7010   -0.0140 C   0  0  0  0  0  0  0  0  0  0  0  0
    2.0529    1.2037   -0.0436 H   0  0  0  0  0  0  0  0  0  0  0  0
  1  5  1  0
  5  8  1  0
  1  2  1  0
  1  3  1  0
  1  4  1  0
  5  6  1  0
  5  7  1  0
  8  9  1  0
  8 10  1  0
  8 11  1  0
 12 16  1  0
 16 17  2  0
 17 19  1  0
 19 21  2  0
 21 23  1  0
 23 25  2  0
 25 16  1  0
 12 13  1  0
 12 14  1  0
 12 15  1  0
 17 18  1  0
 19 20  1  0
 21 22  1  0
 23 24  1  0
 25 26  1  0
M  CHG  1   8   1
M  END
>  <PDB_ID>  (1837) 
pdb3gze

>  <RESIDUE_NAME>  (1837) 
LYS   PHE

>  <FRAG_NAME>  (1837) 
ETAM   MBZ

>  <FRAG_ATOM_NUM>  (1837) 
fragi: 11  fragj: 15

>  <atom.prop.CHAIN_ID>  (1837) 
A A A A A A A A A A A Z Z Z Z Z Z Z Z Z Z Z Z Z Z Z

>  <atom.prop.IS_HEAVY_ATOM>  (1837) 
1 0 0 0 1 0 0 1 0 0 0 1 0 0 0 1 1 0 1 0 1 0 1 0 1 0

>  <DIFUSE_FUNC_ATOM>  (1837) 
n/a

>  <FINAL_SINGLE_POINT_ENERGY>  (1837) 
0

>  <NONCOV_INTER_ENERGY_QM>  (1837) 
0

>  <FF_Energy>  (1837) 
-6.58

>  <QM_Energy>  (1837) 
-12.34

>  <source>  (1837) 
ETAM_MBZ

>  <Index>  (1837) 
18647

$$$$
ETAM-pdb3gzm-B-LYS-11:MBZ-pdb3gzm-B-PHE-7
     RDKit          3D

 26 25  0  0  0  0  0  0  0  0999 V2000
   -0.5581   -1.1891   -3.4051 C   0  0  0  0  0  0  0  0  0  0  0  0
   -0.6991   -0.4621   -2.7232 H   0  0  0  0  0  0  0  0  0  0  0  0
   -0.9845   -0.9004   -4.2701 H   0  0  0  0  0  0  0  0  0  0  0  0
    0.5143   -1.2870   -3.5745 H   0  0  0  0  0  0  0  0  0  0  0  0
   -1.2226   -2.4468   -2.9269 C   0  0  0  0  0  0  0  0  0  0  0  0
   -0.9267   -3.2116   -3.4690 H   0  0  0  0  0  0  0  0  0  0  0  0
   -1.0460   -2.5789   -1.9686 H   0  0  0  0  0  0  0  0  0  0  0  0
   -2.7024   -2.2559   -3.1252 N   0  0  0  0  0  4  0  0  0  0  0  0
   -2.8897   -2.1711   -4.1010 H   0  0  0  0  0  0  0  0  0  0  0  0
   -3.1827   -3.0458   -2.7526 H   0  0  0  0  0  0  0  0  0  0  0  0
   -2.9885   -1.4275   -2.6500 H   0  0  0  0  0  0  0  0  0  0  0  0
    0.0316    2.9194   -0.0216 C   0  0  0  0  0  0  0  0  0  0  0  0
    0.3448    3.2368    0.8508 H   0  0  0  0  0  0  0  0  0  0  0  0
   -0.8683    3.2382   -0.2418 H   0  0  0  0  0  0  0  0  0  0  0  0
    0.7123    3.3112   -0.7773 H   0  0  0  0  0  0  0  0  0  0  0  0
    0.0067    1.4100    0.0037 C   0  0  0  0  0  0  0  0  0  0  0  0
   -1.1938    0.7147   -0.0220 C   0  0  0  0  0  0  0  0  0  0  0  0
   -2.0569    1.1993   -0.0576 H   0  0  0  0  0  0  0  0  0  0  0  0
   -1.1976   -0.6880    0.0000 C   0  0  0  0  0  0  0  0  0  0  0  0
   -2.0874   -1.1709    0.0102 H   0  0  0  0  0  0  0  0  0  0  0  0
   -0.0121   -1.4035    0.0101 C   0  0  0  0  0  0  0  0  0  0  0  0
   -0.0267   -2.3993    0.0241 H   0  0  0  0  0  0  0  0  0  0  0  0
    1.1976   -0.7181   -0.0000 C   0  0  0  0  0  0  0  0  0  0  0  0
    2.0735   -1.2162   -0.0116 H   0  0  0  0  0  0  0  0  0  0  0  0
    1.1993    0.6849    0.0083 C   0  0  0  0  0  0  0  0  0  0  0  0
    2.0730    1.1710    0.0172 H   0  0  0  0  0  0  0  0  0  0  0  0
  1  5  1  0
  5  8  1  0
  1  2  1  0
  1  3  1  0
  1  4  1  0
  5  6  1  0
  5  7  1  0
  8  9  1  0
  8 10  1  0
  8 11  1  0
 12 16  1  0
 16 17  2  0
 17 19  1  0
 19 21  2  0
 21 23  1  0
 23 25  2  0
 25 16  1  0
 12 13  1  0
 12 14  1  0
 12 15  1  0
 17 18  1  0
 19 20  1  0
 21 22  1  0
 23 24  1  0
 25 26  1  0
M  CHG  1   8   1
M  END
>  <PDB_ID>  (1838) 
pdb3gzm

>  <RESIDUE_NAME>  (1838) 
LYS   PHE

>  <FRAG_NAME>  (1838) 
ETAM   MBZ

>  <FRAG_ATOM_NUM>  (1838) 
fragi: 11  fragj: 15

>  <atom.prop.CHAIN_ID>  (1838) 
A A A A A A A A A A A Z Z Z Z Z Z Z Z Z Z Z Z Z Z Z

>  <atom.prop.IS_HEAVY_ATOM>  (1838) 
1 0 0 0 1 0 0 1 0 0 0 1 0 0 0 1 1 0 1 0 1 0 1 0 1 0

>  <DIFUSE_FUNC_ATOM>  (1838) 
n/a

>  <FINAL_SINGLE_POINT_ENERGY>  (1838) 
0

>  <NONCOV_INTER_ENERGY_QM>  (1838) 
0

>  <FF_Energy>  (1838) 
-1.39

>  <QM_Energy>  (1838) 
-7.94

>  <source>  (1838) 
ETAM_MBZ

>  <Index>  (1838) 
18652

$$$$
ETAM-pdb3gze-D-LYS-73:MBZ-pdb3gze-D-PHE-100
     RDKit          3D

 26 25  0  0  0  0  0  0  0  0999 V2000
   -4.4995   -2.0616   -1.8627 C   0  0  0  0  0  0  0  0  0  0  0  0
   -5.0617   -1.8437   -1.0752 H   0  0  0  0  0  0  0  0  0  0  0  0
   -3.5599   -2.2230   -1.5916 H   0  0  0  0  0  0  0  0  0  0  0  0
   -4.8895   -2.9645   -2.3326 H   0  0  0  0  0  0  0  0  0  0  0  0
   -4.5318   -0.8756   -2.8286 C   0  0  0  0  0  0  0  0  0  0  0  0
   -4.4867   -1.2196   -3.7700 H   0  0  0  0  0  0  0  0  0  0  0  0
   -5.3932   -0.3766   -2.7050 H   0  0  0  0  0  0  0  0  0  0  0  0
   -3.3830    0.0806   -2.6073 N   0  0  0  0  0  4  0  0  0  0  0  0
   -3.6672    0.9926   -2.8892 H   0  0  0  0  0  0  0  0  0  0  0  0
   -3.1459    0.0777   -1.6397 H   0  0  0  0  0  0  0  0  0  0  0  0
   -2.6056   -0.2205   -3.1519 H   0  0  0  0  0  0  0  0  0  0  0  0
   -0.0151    2.8879   -0.0217 C   0  0  0  0  0  0  0  0  0  0  0  0
    0.9195    3.2057   -0.0349 H   0  0  0  0  0  0  0  0  0  0  0  0
   -0.4965    3.2079    0.7787 H   0  0  0  0  0  0  0  0  0  0  0  0
   -0.5206    3.2847   -0.9021 H   0  0  0  0  0  0  0  0  0  0  0  0
    0.0018    1.3960    0.0121 C   0  0  0  0  0  0  0  0  0  0  0  0
   -1.1881    0.6946   -0.0037 C   0  0  0  0  0  0  0  0  0  0  0  0
   -2.0564    1.1822   -0.0196 H   0  0  0  0  0  0  0  0  0  0  0  0
   -1.1908   -0.6942    0.0000 C   0  0  0  0  0  0  0  0  0  0  0  0
   -2.0722   -1.1873   -0.0010 H   0  0  0  0  0  0  0  0  0  0  0  0
    0.0035   -1.3943    0.0064 C   0  0  0  0  0  0  0  0  0  0  0  0
   -0.0071   -2.3934    0.0153 H   0  0  0  0  0  0  0  0  0  0  0  0
    1.1908   -0.7029   -0.0000 C   0  0  0  0  0  0  0  0  0  0  0  0
    2.0793   -1.1876    0.0072 H   0  0  0  0  0  0  0  0  0  0  0  0
    1.1828    0.7008   -0.0147 C   0  0  0  0  0  0  0  0  0  0  0  0
    2.0581    1.1860   -0.0463 H   0  0  0  0  0  0  0  0  0  0  0  0
  1  5  1  0
  5  8  1  0
  1  2  1  0
  1  3  1  0
  1  4  1  0
  5  6  1  0
  5  7  1  0
  8  9  1  0
  8 10  1  0
  8 11  1  0
 12 16  1  0
 16 17  2  0
 17 19  1  0
 19 21  2  0
 21 23  1  0
 23 25  2  0
 25 16  1  0
 12 13  1  0
 12 14  1  0
 12 15  1  0
 17 18  1  0
 19 20  1  0
 21 22  1  0
 23 24  1  0
 25 26  1  0
M  CHG  1   8   1
M  END
>  <PDB_ID>  (1839) 
pdb3gze

>  <RESIDUE_NAME>  (1839) 
LYS   PHE

>  <FRAG_NAME>  (1839) 
ETAM   MBZ

>  <FRAG_ATOM_NUM>  (1839) 
fragi: 11  fragj: 15

>  <atom.prop.CHAIN_ID>  (1839) 
A A A A A A A A A A A Z Z Z Z Z Z Z Z Z Z Z Z Z Z Z

>  <atom.prop.IS_HEAVY_ATOM>  (1839) 
1 0 0 0 1 0 0 1 0 0 0 1 0 0 0 1 1 0 1 0 1 0 1 0 1 0

>  <DIFUSE_FUNC_ATOM>  (1839) 
n/a

>  <FINAL_SINGLE_POINT_ENERGY>  (1839) 
0

>  <NONCOV_INTER_ENERGY_QM>  (1839) 
0

>  <FF_Energy>  (1839) 
-2.1

>  <QM_Energy>  (1839) 
-7.52

>  <source>  (1839) 
ETAM_MBZ

>  <Index>  (1839) 
18653

$$$$
ETAM-pdb3gzm-A-LYS-11:MBZ-pdb3gzm-A-PHE-7
     RDKit          3D

 26 25  0  0  0  0  0  0  0  0999 V2000
   -0.1608   -2.0544   -2.9906 C   0  0  0  0  0  0  0  0  0  0  0  0
   -0.0323   -2.9765   -3.3397 H   0  0  0  0  0  0  0  0  0  0  0  0
   -0.1581   -2.0554   -1.9970 H   0  0  0  0  0  0  0  0  0  0  0  0
    0.6723   -1.4409   -3.3338 H   0  0  0  0  0  0  0  0  0  0  0  0
   -1.5065   -1.5250   -3.4795 C   0  0  0  0  0  0  0  0  0  0  0  0
   -1.4695   -0.5232   -3.5204 H   0  0  0  0  0  0  0  0  0  0  0  0
   -1.6835   -1.8801   -4.4017 H   0  0  0  0  0  0  0  0  0  0  0  0
   -2.6501   -1.9288   -2.5788 N   0  0  0  0  0  4  0  0  0  0  0  0
   -2.5152   -1.5124   -1.6842 H   0  0  0  0  0  0  0  0  0  0  0  0
   -3.5031   -1.6094   -2.9817 H   0  0  0  0  0  0  0  0  0  0  0  0
   -2.6589   -2.9212   -2.4975 H   0  0  0  0  0  0  0  0  0  0  0  0
    0.0294    2.9082   -0.0086 C   0  0  0  0  0  0  0  0  0  0  0  0
    0.3747    3.2238    0.8541 H   0  0  0  0  0  0  0  0  0  0  0  0
   -0.8779    3.2324   -0.1938 H   0  0  0  0  0  0  0  0  0  0  0  0
    0.6855    3.2903   -0.7907 H   0  0  0  0  0  0  0  0  0  0  0  0
   -0.0036    1.4056    0.0195 C   0  0  0  0  0  0  0  0  0  0  0  0
   -1.2082    0.7126    0.0066 C   0  0  0  0  0  0  0  0  0  0  0  0
   -2.0692    1.1987    0.0002 H   0  0  0  0  0  0  0  0  0  0  0  0
   -1.2146   -0.6935    0.0000 C   0  0  0  0  0  0  0  0  0  0  0  0
   -2.0755   -1.1922    0.0012 H   0  0  0  0  0  0  0  0  0  0  0  0
    0.0222   -1.4019   -0.0069 C   0  0  0  0  0  0  0  0  0  0  0  0
    0.0011   -2.3973   -0.0172 H   0  0  0  0  0  0  0  0  0  0  0  0
    1.2146   -0.7078   -0.0000 C   0  0  0  0  0  0  0  0  0  0  0  0
    2.0986   -1.1916    0.0205 H   0  0  0  0  0  0  0  0  0  0  0  0
    1.1896    0.6851   -0.0192 C   0  0  0  0  0  0  0  0  0  0  0  0
    2.0624    1.1883   -0.0632 H   0  0  0  0  0  0  0  0  0  0  0  0
  1  5  1  0
  5  8  1  0
  1  2  1  0
  1  3  1  0
  1  4  1  0
  5  6  1  0
  5  7  1  0
  8  9  1  0
  8 10  1  0
  8 11  1  0
 12 16  1  0
 16 17  2  0
 17 19  1  0
 19 21  2  0
 21 23  1  0
 23 25  2  0
 25 16  1  0
 12 13  1  0
 12 14  1  0
 12 15  1  0
 17 18  1  0
 19 20  1  0
 21 22  1  0
 23 24  1  0
 25 26  1  0
M  CHG  1   8   1
M  END
>  <PDB_ID>  (1840) 
pdb3gzm

>  <RESIDUE_NAME>  (1840) 
LYS   PHE

>  <FRAG_NAME>  (1840) 
ETAM   MBZ

>  <FRAG_ATOM_NUM>  (1840) 
fragi: 11  fragj: 15

>  <atom.prop.CHAIN_ID>  (1840) 
A A A A A A A A A A A Z Z Z Z Z Z Z Z Z Z Z Z Z Z Z

>  <atom.prop.IS_HEAVY_ATOM>  (1840) 
1 0 0 0 1 0 0 1 0 0 0 1 0 0 0 1 1 0 1 0 1 0 1 0 1 0

>  <DIFUSE_FUNC_ATOM>  (1840) 
n/a

>  <FINAL_SINGLE_POINT_ENERGY>  (1840) 
0

>  <NONCOV_INTER_ENERGY_QM>  (1840) 
0

>  <FF_Energy>  (1840) 
9.11

>  <QM_Energy>  (1840) 
-5.03

>  <source>  (1840) 
ETAM_MBZ

>  <Index>  (1840) 
18655

$$$$
ETAM-pdb3h16-D-LYS-276:MBZ-pdb3h16-D-PHE-244
     RDKit          3D

 26 25  0  0  0  0  0  0  0  0999 V2000
   -0.2890    1.3441    3.8040 C   0  0  0  0  0  0  0  0  0  0  0  0
    0.1600    1.9935    3.2093 H   0  0  0  0  0  0  0  0  0  0  0  0
   -0.2985    0.4389    3.4078 H   0  0  0  0  0  0  0  0  0  0  0  0
    0.2342    1.3128    4.7597 H   0  0  0  0  0  0  0  0  0  0  0  0
   -1.7377    1.7967    4.0085 C   0  0  0  0  0  0  0  0  0  0  0  0
   -2.1844    1.1611    4.6526 H   0  0  0  0  0  0  0  0  0  0  0  0
   -1.7317    2.7133    4.4306 H   0  0  0  0  0  0  0  0  0  0  0  0
   -2.5328    1.8478    2.7446 N   0  0  0  0  0  4  0  0  0  0  0  0
   -3.0609    2.6958    2.7222 H   0  0  0  0  0  0  0  0  0  0  0  0
   -1.9112    1.8167    1.9637 H   0  0  0  0  0  0  0  0  0  0  0  0
   -3.1522    1.0647    2.7139 H   0  0  0  0  0  0  0  0  0  0  0  0
    0.0010    2.9041    0.0088 C   0  0  0  0  0  0  0  0  0  0  0  0
    0.9408    3.2094    0.0457 H   0  0  0  0  0  0  0  0  0  0  0  0
   -0.5064    3.2057    0.8018 H   0  0  0  0  0  0  0  0  0  0  0  0
   -0.4605    3.3506   -0.8720 H   0  0  0  0  0  0  0  0  0  0  0  0
   -0.0005    1.4021   -0.0002 C   0  0  0  0  0  0  0  0  0  0  0  0
   -1.1972    0.6939   -0.0001 C   0  0  0  0  0  0  0  0  0  0  0  0
   -2.0636    1.1828   -0.0014 H   0  0  0  0  0  0  0  0  0  0  0  0
   -1.2014   -0.6985   -0.0000 C   0  0  0  0  0  0  0  0  0  0  0  0
   -2.0771   -1.1924    0.0011 H   0  0  0  0  0  0  0  0  0  0  0  0
    0.0015   -1.3950    0.0007 C   0  0  0  0  0  0  0  0  0  0  0  0
   -0.0027   -2.3936    0.0013 H   0  0  0  0  0  0  0  0  0  0  0  0
    1.2014   -0.6969   -0.0000 C   0  0  0  0  0  0  0  0  0  0  0  0
    2.0836   -1.1941    0.0012 H   0  0  0  0  0  0  0  0  0  0  0  0
    1.1962    0.6944   -0.0004 C   0  0  0  0  0  0  0  0  0  0  0  0
    2.0642    1.1909   -0.0016 H   0  0  0  0  0  0  0  0  0  0  0  0
  1  5  1  0
  5  8  1  0
  1  2  1  0
  1  3  1  0
  1  4  1  0
  5  6  1  0
  5  7  1  0
  8  9  1  0
  8 10  1  0
  8 11  1  0
 12 16  1  0
 16 17  2  0
 17 19  1  0
 19 21  2  0
 21 23  1  0
 23 25  2  0
 25 16  1  0
 12 13  1  0
 12 14  1  0
 12 15  1  0
 17 18  1  0
 19 20  1  0
 21 22  1  0
 23 24  1  0
 25 26  1  0
M  CHG  1   8   1
M  END
>  <PDB_ID>  (1841) 
pdb3h16

>  <RESIDUE_NAME>  (1841) 
LYS   PHE

>  <FRAG_NAME>  (1841) 
ETAM   MBZ

>  <FRAG_ATOM_NUM>  (1841) 
fragi: 11  fragj: 15

>  <atom.prop.CHAIN_ID>  (1841) 
A A A A A A A A A A A Z Z Z Z Z Z Z Z Z Z Z Z Z Z Z

>  <atom.prop.IS_HEAVY_ATOM>  (1841) 
1 0 0 0 1 0 0 1 0 0 0 1 0 0 0 1 1 0 1 0 1 0 1 0 1 0

>  <DIFUSE_FUNC_ATOM>  (1841) 
n/a

>  <FINAL_SINGLE_POINT_ENERGY>  (1841) 
0

>  <NONCOV_INTER_ENERGY_QM>  (1841) 
0

>  <FF_Energy>  (1841) 
-4.26

>  <QM_Energy>  (1841) 
-9.6

>  <source>  (1841) 
ETAM_MBZ

>  <Index>  (1841) 
18701

$$$$
ETAM-pdb3h1t-A-LYS-108:MBZ-pdb3h1t-A-PHE-130
     RDKit          3D

 26 25  0  0  0  0  0  0  0  0999 V2000
   -0.2757    1.6706   -3.8547 C   0  0  0  0  0  0  0  0  0  0  0  0
   -0.7274    1.6886   -2.9628 H   0  0  0  0  0  0  0  0  0  0  0  0
   -0.8944    2.0353   -4.5502 H   0  0  0  0  0  0  0  0  0  0  0  0
    0.6118    2.3019   -3.8097 H   0  0  0  0  0  0  0  0  0  0  0  0
    0.0448    0.2234   -4.2048 C   0  0  0  0  0  0  0  0  0  0  0  0
    0.0789    0.1320   -5.2051 H   0  0  0  0  0  0  0  0  0  0  0  0
    0.9483   -0.0084   -3.8306 H   0  0  0  0  0  0  0  0  0  0  0  0
   -0.9665   -0.7270   -3.6619 N   0  0  0  0  0  4  0  0  0  0  0  0
   -0.8412   -0.8139   -2.6741 H   0  0  0  0  0  0  0  0  0  0  0  0
   -1.8840   -0.3796   -3.8541 H   0  0  0  0  0  0  0  0  0  0  0  0
   -0.8476   -1.6198   -4.0954 H   0  0  0  0  0  0  0  0  0  0  0  0
   -0.0006    2.9089    0.1456 C   0  0  0  0  0  0  0  0  0  0  0  0
   -0.7810    3.2605   -0.3353 H   0  0  0  0  0  0  0  0  0  0  0  0
    0.8472    3.2472   -0.2165 H   0  0  0  0  0  0  0  0  0  0  0  0
   -0.0736    3.2220    1.1871 H   0  0  0  0  0  0  0  0  0  0  0  0
   -0.0029    1.4105    0.0035 C   0  0  0  0  0  0  0  0  0  0  0  0
   -1.2030    0.6981    0.0000 C   0  0  0  0  0  0  0  0  0  0  0  0
   -2.0696    1.1840   -0.0040 H   0  0  0  0  0  0  0  0  0  0  0  0
   -1.2041   -0.7017   -0.0000 C   0  0  0  0  0  0  0  0  0  0  0  0
   -2.0765   -1.1963    0.0003 H   0  0  0  0  0  0  0  0  0  0  0  0
    0.0082   -1.4004    0.0011 C   0  0  0  0  0  0  0  0  0  0  0  0
   -0.0001   -2.3983    0.0024 H   0  0  0  0  0  0  0  0  0  0  0  0
    1.2041   -0.7035   -0.0000 C   0  0  0  0  0  0  0  0  0  0  0  0
    2.0891   -1.1940    0.0040 H   0  0  0  0  0  0  0  0  0  0  0  0
    1.1977    0.6971   -0.0045 C   0  0  0  0  0  0  0  0  0  0  0  0
    2.0652    1.1912   -0.0140 H   0  0  0  0  0  0  0  0  0  0  0  0
  1  5  1  0
  5  8  1  0
  1  2  1  0
  1  3  1  0
  1  4  1  0
  5  6  1  0
  5  7  1  0
  8  9  1  0
  8 10  1  0
  8 11  1  0
 12 16  1  0
 16 17  2  0
 17 19  1  0
 19 21  2  0
 21 23  1  0
 23 25  2  0
 25 16  1  0
 12 13  1  0
 12 14  1  0
 12 15  1  0
 17 18  1  0
 19 20  1  0
 21 22  1  0
 23 24  1  0
 25 26  1  0
M  CHG  1   8   1
M  END
>  <PDB_ID>  (1842) 
pdb3h1t

>  <RESIDUE_NAME>  (1842) 
LYS   PHE

>  <FRAG_NAME>  (1842) 
ETAM   MBZ

>  <FRAG_ATOM_NUM>  (1842) 
fragi: 11  fragj: 15

>  <atom.prop.CHAIN_ID>  (1842) 
A A A A A A A A A A A Z Z Z Z Z Z Z Z Z Z Z Z Z Z Z

>  <atom.prop.IS_HEAVY_ATOM>  (1842) 
1 0 0 0 1 0 0 1 0 0 0 1 0 0 0 1 1 0 1 0 1 0 1 0 1 0

>  <DIFUSE_FUNC_ATOM>  (1842) 
n/a

>  <FINAL_SINGLE_POINT_ENERGY>  (1842) 
0

>  <NONCOV_INTER_ENERGY_QM>  (1842) 
0

>  <FF_Energy>  (1842) 
-7.36

>  <QM_Energy>  (1842) 
-13.8

>  <source>  (1842) 
ETAM_MBZ

>  <Index>  (1842) 
18713

$$$$
ETAM-pdb4dqx-A-LYS-141:MBZ-pdb4dqx-A-PHE-137
     RDKit          3D

 26 25  0  0  0  0  0  0  0  0999 V2000
   -0.1807   -2.3409    4.7791 C   0  0  0  0  0  0  0  0  0  0  0  0
    0.6674   -1.8296    4.9398 H   0  0  0  0  0  0  0  0  0  0  0  0
   -0.0613   -3.2820    5.1048 H   0  0  0  0  0  0  0  0  0  0  0  0
   -1.0058   -1.8660    5.3098 H   0  0  0  0  0  0  0  0  0  0  0  0
   -0.3376   -2.4454    3.1675 C   0  0  0  0  0  0  0  0  0  0  0  0
   -0.2867   -1.5254    2.8121 H   0  0  0  0  0  0  0  0  0  0  0  0
    0.4092   -3.0026    2.8398 H   0  0  0  0  0  0  0  0  0  0  0  0
   -1.6702   -3.0800    2.7781 N   0  0  0  0  0  4  0  0  0  0  0  0
   -1.7292   -3.0991    1.7862 H   0  0  0  0  0  0  0  0  0  0  0  0
   -1.6972   -4.0016    3.1476 H   0  0  0  0  0  0  0  0  0  0  0  0
   -2.4025   -2.5288    3.1610 H   0  0  0  0  0  0  0  0  0  0  0  0
   -0.0079    2.9414   -0.0433 C   0  0  0  0  0  0  0  0  0  0  0  0
   -0.5348    3.2236   -0.8296 H   0  0  0  0  0  0  0  0  0  0  0  0
    0.9304    3.2418   -0.1102 H   0  0  0  0  0  0  0  0  0  0  0  0
   -0.4449    3.4144    0.8361 H   0  0  0  0  0  0  0  0  0  0  0  0
   -0.0093    1.4231   -0.0029 C   0  0  0  0  0  0  0  0  0  0  0  0
   -1.2147    0.7232   -0.0411 C   0  0  0  0  0  0  0  0  0  0  0  0
   -2.0776    1.1892   -0.0977 H   0  0  0  0  0  0  0  0  0  0  0  0
   -1.2203   -0.7220   -0.0000 C   0  0  0  0  0  0  0  0  0  0  0  0
   -2.0865   -1.1964    0.0190 H   0  0  0  0  0  0  0  0  0  0  0  0
    0.0051   -1.4079    0.0135 C   0  0  0  0  0  0  0  0  0  0  0  0
    0.0002   -2.4127    0.0327 H   0  0  0  0  0  0  0  0  0  0  0  0
    1.2203   -0.7193    0.0000 C   0  0  0  0  0  0  0  0  0  0  0  0
    2.0945   -1.2076   -0.0294 H   0  0  0  0  0  0  0  0  0  0  0  0
    1.2189    0.7028    0.0306 C   0  0  0  0  0  0  0  0  0  0  0  0
    2.0730    1.1937    0.0742 H   0  0  0  0  0  0  0  0  0  0  0  0
  1  5  1  0
  5  8  1  0
  1  2  1  0
  1  3  1  0
  1  4  1  0
  5  6  1  0
  5  7  1  0
  8  9  1  0
  8 10  1  0
  8 11  1  0
 12 16  1  0
 16 17  2  0
 17 19  1  0
 19 21  2  0
 21 23  1  0
 23 25  2  0
 25 16  1  0
 12 13  1  0
 12 14  1  0
 12 15  1  0
 17 18  1  0
 19 20  1  0
 21 22  1  0
 23 24  1  0
 25 26  1  0
M  CHG  1   8   1
M  END
>  <PDB_ID>  (1843) 
pdb4dqx

>  <RESIDUE_NAME>  (1843) 
LYS   PHE

>  <FRAG_NAME>  (1843) 
ETAM   MBZ

>  <FRAG_ATOM_NUM>  (1843) 
fragi: 11  fragj: 15

>  <atom.prop.CHAIN_ID>  (1843) 
A A A A A A A A A A A Z Z Z Z Z Z Z Z Z Z Z Z Z Z Z

>  <atom.prop.IS_HEAVY_ATOM>  (1843) 
1 0 0 0 1 0 0 1 0 0 0 1 0 0 0 1 1 0 1 0 1 0 1 0 1 0

>  <DIFUSE_FUNC_ATOM>  (1843) 
n/a

>  <FINAL_SINGLE_POINT_ENERGY>  (1843) 
0

>  <NONCOV_INTER_ENERGY_QM>  (1843) 
0

>  <FF_Energy>  (1843) 
-2.21

>  <QM_Energy>  (1843) 
-7.81

>  <source>  (1843) 
ETAM_MBZ

>  <Index>  (1843) 
18715

$$$$
ETAM-pdb3h3d-Y-LYS-390:MBZ-pdb3h3d-Y-PHE-394
     RDKit          3D

 26 25  0  0  0  0  0  0  0  0999 V2000
   -4.5252    0.7747   -0.6253 C   0  0  0  0  0  0  0  0  0  0  0  0
   -3.9703    1.3014   -1.2801 H   0  0  0  0  0  0  0  0  0  0  0  0
   -4.1125    0.8649    0.2878 H   0  0  0  0  0  0  0  0  0  0  0  0
   -5.5242    1.2099   -0.5954 H   0  0  0  0  0  0  0  0  0  0  0  0
   -4.4790   -0.6997   -1.0314 C   0  0  0  0  0  0  0  0  0  0  0  0
   -4.4903   -0.7473   -2.0498 H   0  0  0  0  0  0  0  0  0  0  0  0
   -3.5798   -1.0807   -0.7369 H   0  0  0  0  0  0  0  0  0  0  0  0
   -5.5636   -1.5406   -0.4924 N   0  0  0  0  0  4  0  0  0  0  0  0
   -6.4432   -1.0747   -0.6095 H   0  0  0  0  0  0  0  0  0  0  0  0
   -5.5865   -2.4162   -0.9793 H   0  0  0  0  0  0  0  0  0  0  0  0
   -5.4082   -1.7100    0.4834 H   0  0  0  0  0  0  0  0  0  0  0  0
    0.0117    2.9014    0.0047 C   0  0  0  0  0  0  0  0  0  0  0  0
   -0.9045    3.2183   -0.1523 H   0  0  0  0  0  0  0  0  0  0  0  0
    0.6390    3.2146   -0.6838 H   0  0  0  0  0  0  0  0  0  0  0  0
    0.3456    3.2783    0.9714 H   0  0  0  0  0  0  0  0  0  0  0  0
   -0.0020    1.4122   -0.0225 C   0  0  0  0  0  0  0  0  0  0  0  0
   -1.1960    0.7075    0.0026 C   0  0  0  0  0  0  0  0  0  0  0  0
   -2.0664    1.1918    0.0215 H   0  0  0  0  0  0  0  0  0  0  0  0
   -1.2151   -0.7061    0.0000 C   0  0  0  0  0  0  0  0  0  0  0  0
   -2.0890   -1.1860   -0.0062 H   0  0  0  0  0  0  0  0  0  0  0  0
   -0.0024   -1.4174    0.0086 C   0  0  0  0  0  0  0  0  0  0  0  0
   -0.0034   -2.4043    0.0200 H   0  0  0  0  0  0  0  0  0  0  0  0
    1.2151   -0.7024   -0.0000 C   0  0  0  0  0  0  0  0  0  0  0  0
    2.0910   -1.1935   -0.0126 H   0  0  0  0  0  0  0  0  0  0  0  0
    1.2004    0.7062    0.0113 C   0  0  0  0  0  0  0  0  0  0  0  0
    2.0664    1.2003    0.0431 H   0  0  0  0  0  0  0  0  0  0  0  0
  1  5  1  0
  5  8  1  0
  1  2  1  0
  1  3  1  0
  1  4  1  0
  5  6  1  0
  5  7  1  0
  8  9  1  0
  8 10  1  0
  8 11  1  0
 12 16  1  0
 16 17  2  0
 17 19  1  0
 19 21  2  0
 21 23  1  0
 23 25  2  0
 25 16  1  0
 12 13  1  0
 12 14  1  0
 12 15  1  0
 17 18  1  0
 19 20  1  0
 21 22  1  0
 23 24  1  0
 25 26  1  0
M  CHG  1   8   1
M  END
>  <PDB_ID>  (1844) 
pdb3h3d

>  <RESIDUE_NAME>  (1844) 
LYS   PHE

>  <FRAG_NAME>  (1844) 
ETAM   MBZ

>  <FRAG_ATOM_NUM>  (1844) 
fragi: 11  fragj: 15

>  <atom.prop.CHAIN_ID>  (1844) 
A A A A A A A A A A A Z Z Z Z Z Z Z Z Z Z Z Z Z Z Z

>  <atom.prop.IS_HEAVY_ATOM>  (1844) 
1 0 0 0 1 0 0 1 0 0 0 1 0 0 0 1 1 0 1 0 1 0 1 0 1 0

>  <DIFUSE_FUNC_ATOM>  (1844) 
n/a

>  <FINAL_SINGLE_POINT_ENERGY>  (1844) 
0

>  <NONCOV_INTER_ENERGY_QM>  (1844) 
0

>  <FF_Energy>  (1844) 
12.34

>  <QM_Energy>  (1844) 
0.09

>  <source>  (1844) 
ETAM_MBZ

>  <Index>  (1844) 
18751

$$$$
ETAM-pdb4dvj-B-LYS-47:MBZ-pdb4dvj-B-PHE-124
     RDKit          3D

 26 25  0  0  0  0  0  0  0  0999 V2000
   -1.4061    0.3401   -3.7463 C   0  0  0  0  0  0  0  0  0  0  0  0
   -1.8374    0.0056   -2.9184 H   0  0  0  0  0  0  0  0  0  0  0  0
   -1.7807   -0.1069   -4.5471 H   0  0  0  0  0  0  0  0  0  0  0  0
   -1.5686    1.4150   -3.8257 H   0  0  0  0  0  0  0  0  0  0  0  0
    0.0995    0.0043   -3.6713 C   0  0  0  0  0  0  0  0  0  0  0  0
    0.5761    0.4986   -4.4024 H   0  0  0  0  0  0  0  0  0  0  0  0
    0.4544    0.3107   -2.7843 H   0  0  0  0  0  0  0  0  0  0  0  0
    0.3858   -1.4807   -3.8219 N   0  0  0  0  0  4  0  0  0  0  0  0
    1.1711   -1.5919   -4.4217 H   0  0  0  0  0  0  0  0  0  0  0  0
    0.5796   -1.8573   -2.9221 H   0  0  0  0  0  0  0  0  0  0  0  0
   -0.4152   -1.9183   -4.2154 H   0  0  0  0  0  0  0  0  0  0  0  0
   -0.0176    2.9191    0.0766 C   0  0  0  0  0  0  0  0  0  0  0  0
   -0.8148    3.2353   -0.3899 H   0  0  0  0  0  0  0  0  0  0  0  0
    0.8160    3.2585   -0.3013 H   0  0  0  0  0  0  0  0  0  0  0  0
   -0.0783    3.2748    1.1051 H   0  0  0  0  0  0  0  0  0  0  0  0
    0.0075    1.4058    0.0075 C   0  0  0  0  0  0  0  0  0  0  0  0
   -1.1941    0.6886    0.0136 C   0  0  0  0  0  0  0  0  0  0  0  0
   -2.0633    1.1755    0.0266 H   0  0  0  0  0  0  0  0  0  0  0  0
   -1.2159   -0.7293   -0.0000 C   0  0  0  0  0  0  0  0  0  0  0  0
   -2.0903   -1.2025   -0.0015 H   0  0  0  0  0  0  0  0  0  0  0  0
   -0.0122   -1.4139   -0.0091 C   0  0  0  0  0  0  0  0  0  0  0  0
    0.0020   -2.4130   -0.0232 H   0  0  0  0  0  0  0  0  0  0  0  0
    1.2159   -0.7069    0.0000 C   0  0  0  0  0  0  0  0  0  0  0  0
    2.0895   -1.1737    0.0160 H   0  0  0  0  0  0  0  0  0  0  0  0
    1.1987    0.7558   -0.0119 C   0  0  0  0  0  0  0  0  0  0  0  0
    2.0664    1.2186   -0.0343 H   0  0  0  0  0  0  0  0  0  0  0  0
  1  5  1  0
  5  8  1  0
  1  2  1  0
  1  3  1  0
  1  4  1  0
  5  6  1  0
  5  7  1  0
  8  9  1  0
  8 10  1  0
  8 11  1  0
 12 16  1  0
 16 17  2  0
 17 19  1  0
 19 21  2  0
 21 23  1  0
 23 25  2  0
 25 16  1  0
 12 13  1  0
 12 14  1  0
 12 15  1  0
 17 18  1  0
 19 20  1  0
 21 22  1  0
 23 24  1  0
 25 26  1  0
M  CHG  1   8   1
M  END
>  <PDB_ID>  (1845) 
pdb4dvj

>  <RESIDUE_NAME>  (1845) 
LYS   PHE

>  <FRAG_NAME>  (1845) 
ETAM   MBZ

>  <FRAG_ATOM_NUM>  (1845) 
fragi: 11  fragj: 15

>  <atom.prop.CHAIN_ID>  (1845) 
A A A A A A A A A A A Z Z Z Z Z Z Z Z Z Z Z Z Z Z Z

>  <atom.prop.IS_HEAVY_ATOM>  (1845) 
1 0 0 0 1 0 0 1 0 0 0 1 0 0 0 1 1 0 1 0 1 0 1 0 1 0

>  <DIFUSE_FUNC_ATOM>  (1845) 
n/a

>  <FINAL_SINGLE_POINT_ENERGY>  (1845) 
0

>  <NONCOV_INTER_ENERGY_QM>  (1845) 
0

>  <FF_Energy>  (1845) 
-6.46

>  <QM_Energy>  (1845) 
-12.71

>  <source>  (1845) 
ETAM_MBZ

>  <Index>  (1845) 
18757

$$$$
ETAM-pdb3h49-A-LYS-201:MBZ-pdb3h49-A-PHE-197
     RDKit          3D

 26 25  0  0  0  0  0  0  0  0999 V2000
    0.6676   -2.3354    4.7334 C   0  0  0  0  0  0  0  0  0  0  0  0
    1.4075   -1.9741    5.2914 H   0  0  0  0  0  0  0  0  0  0  0  0
    0.7285   -3.3269    4.6772 H   0  0  0  0  0  0  0  0  0  0  0  0
   -0.2821   -2.0680    5.1969 H   0  0  0  0  0  0  0  0  0  0  0  0
    0.7887   -1.7604    3.3321 C   0  0  0  0  0  0  0  0  0  0  0  0
    0.0416   -2.1202    2.7662 H   0  0  0  0  0  0  0  0  0  0  0  0
    0.7050   -0.7607    3.3805 H   0  0  0  0  0  0  0  0  0  0  0  0
    2.0919   -2.1088    2.6965 N   0  0  0  0  0  4  0  0  0  0  0  0
    2.2594   -1.4929    1.9283 H   0  0  0  0  0  0  0  0  0  0  0  0
    2.8235   -2.0126    3.3699 H   0  0  0  0  0  0  0  0  0  0  0  0
    2.0583   -3.0521    2.3696 H   0  0  0  0  0  0  0  0  0  0  0  0
   -0.0011    2.9102    0.0121 C   0  0  0  0  0  0  0  0  0  0  0  0
   -0.4290    3.2241   -0.8202 H   0  0  0  0  0  0  0  0  0  0  0  0
    0.9352    3.2180    0.0768 H   0  0  0  0  0  0  0  0  0  0  0  0
   -0.5504    3.3402    0.8496 H   0  0  0  0  0  0  0  0  0  0  0  0
    0.0000    1.4070   -0.0005 C   0  0  0  0  0  0  0  0  0  0  0  0
   -1.1970    0.6950   -0.0004 C   0  0  0  0  0  0  0  0  0  0  0  0
   -2.0648    1.1839   -0.0021 H   0  0  0  0  0  0  0  0  0  0  0  0
   -1.2040   -0.7006    0.0000 C   0  0  0  0  0  0  0  0  0  0  0  0
   -2.0806   -1.1912    0.0008 H   0  0  0  0  0  0  0  0  0  0  0  0
   -0.0014   -1.3995    0.0012 C   0  0  0  0  0  0  0  0  0  0  0  0
   -0.0050   -2.3971    0.0023 H   0  0  0  0  0  0  0  0  0  0  0  0
    1.2040   -0.7011   -0.0000 C   0  0  0  0  0  0  0  0  0  0  0  0
    2.0842   -1.1954    0.0007 H   0  0  0  0  0  0  0  0  0  0  0  0
    1.1984    0.6993   -0.0003 C   0  0  0  0  0  0  0  0  0  0  0  0
    2.0668    1.1924   -0.0011 H   0  0  0  0  0  0  0  0  0  0  0  0
  1  5  1  0
  5  8  1  0
  1  2  1  0
  1  3  1  0
  1  4  1  0
  5  6  1  0
  5  7  1  0
  8  9  1  0
  8 10  1  0
  8 11  1  0
 12 16  1  0
 16 17  2  0
 17 19  1  0
 19 21  2  0
 21 23  1  0
 23 25  2  0
 25 16  1  0
 12 13  1  0
 12 14  1  0
 12 15  1  0
 17 18  1  0
 19 20  1  0
 21 22  1  0
 23 24  1  0
 25 26  1  0
M  CHG  1   8   1
M  END
>  <PDB_ID>  (1846) 
pdb3h49

>  <RESIDUE_NAME>  (1846) 
LYS   PHE

>  <FRAG_NAME>  (1846) 
ETAM   MBZ

>  <FRAG_ATOM_NUM>  (1846) 
fragi: 11  fragj: 15

>  <atom.prop.CHAIN_ID>  (1846) 
A A A A A A A A A A A Z Z Z Z Z Z Z Z Z Z Z Z Z Z Z

>  <atom.prop.IS_HEAVY_ATOM>  (1846) 
1 0 0 0 1 0 0 1 0 0 0 1 0 0 0 1 1 0 1 0 1 0 1 0 1 0

>  <DIFUSE_FUNC_ATOM>  (1846) 
n/a

>  <FINAL_SINGLE_POINT_ENERGY>  (1846) 
0

>  <NONCOV_INTER_ENERGY_QM>  (1846) 
0

>  <FF_Energy>  (1846) 
-2.87

>  <QM_Energy>  (1846) 
-10.17

>  <source>  (1846) 
ETAM_MBZ

>  <Index>  (1846) 
18763

$$$$
ETAM-pdb3h43-L-LYS-75:MBZ-pdb3h43-I-PHE-123
     RDKit          3D

 26 25  0  0  0  0  0  0  0  0999 V2000
    4.3501    1.9590    0.2599 C   0  0  0  0  0  0  0  0  0  0  0  0
    5.2696    2.3212    0.3913 H   0  0  0  0  0  0  0  0  0  0  0  0
    3.7626    2.6580   -0.1403 H   0  0  0  0  0  0  0  0  0  0  0  0
    4.3990    1.1064   -0.4174 H   0  0  0  0  0  0  0  0  0  0  0  0
    3.7857    1.5693    1.6122 C   0  0  0  0  0  0  0  0  0  0  0  0
    2.8498    1.2402    1.4934 H   0  0  0  0  0  0  0  0  0  0  0  0
    4.3488    0.8423    2.0046 H   0  0  0  0  0  0  0  0  0  0  0  0
    3.7803    2.7362    2.5374 N   0  0  0  0  0  4  0  0  0  0  0  0
    4.5660    2.6746    3.1527 H   0  0  0  0  0  0  0  0  0  0  0  0
    3.8365    3.5804    2.0057 H   0  0  0  0  0  0  0  0  0  0  0  0
    2.9345    2.7315    3.0710 H   0  0  0  0  0  0  0  0  0  0  0  0
    0.0221    2.9077    0.0768 C   0  0  0  0  0  0  0  0  0  0  0  0
   -0.8943    3.2331   -0.0803 H   0  0  0  0  0  0  0  0  0  0  0  0
    0.6535    3.2379   -0.6038 H   0  0  0  0  0  0  0  0  0  0  0  0
    0.3498    3.2787    1.0479 H   0  0  0  0  0  0  0  0  0  0  0  0
    0.0007    1.4048    0.0011 C   0  0  0  0  0  0  0  0  0  0  0  0
   -1.1984    0.7046   -0.0007 C   0  0  0  0  0  0  0  0  0  0  0  0
   -2.0624    1.1906   -0.0043 H   0  0  0  0  0  0  0  0  0  0  0  0
   -1.2003   -0.6941   -0.0000 C   0  0  0  0  0  0  0  0  0  0  0  0
   -2.0782   -1.1851    0.0005 H   0  0  0  0  0  0  0  0  0  0  0  0
    0.0021   -1.3947    0.0018 C   0  0  0  0  0  0  0  0  0  0  0  0
   -0.0093   -2.3944    0.0039 H   0  0  0  0  0  0  0  0  0  0  0  0
    1.2003   -0.7050    0.0000 C   0  0  0  0  0  0  0  0  0  0  0  0
    2.0815   -1.2025    0.0017 H   0  0  0  0  0  0  0  0  0  0  0  0
    1.1956    0.6845   -0.0022 C   0  0  0  0  0  0  0  0  0  0  0  0
    2.0666    1.1814   -0.0073 H   0  0  0  0  0  0  0  0  0  0  0  0
  1  5  1  0
  5  8  1  0
  1  2  1  0
  1  3  1  0
  1  4  1  0
  5  6  1  0
  5  7  1  0
  8  9  1  0
  8 10  1  0
  8 11  1  0
 12 16  1  0
 16 17  2  0
 17 19  1  0
 19 21  2  0
 21 23  1  0
 23 25  2  0
 25 16  1  0
 12 13  1  0
 12 14  1  0
 12 15  1  0
 17 18  1  0
 19 20  1  0
 21 22  1  0
 23 24  1  0
 25 26  1  0
M  CHG  1   8   1
M  END
>  <PDB_ID>  (1847) 
pdb3h43

>  <RESIDUE_NAME>  (1847) 
LYS   PHE

>  <FRAG_NAME>  (1847) 
ETAM   MBZ

>  <FRAG_ATOM_NUM>  (1847) 
fragi: 11  fragj: 15

>  <atom.prop.CHAIN_ID>  (1847) 
A A A A A A A A A A A Z Z Z Z Z Z Z Z Z Z Z Z Z Z Z

>  <atom.prop.IS_HEAVY_ATOM>  (1847) 
1 0 0 0 1 0 0 1 0 0 0 1 0 0 0 1 1 0 1 0 1 0 1 0 1 0

>  <DIFUSE_FUNC_ATOM>  (1847) 
n/a

>  <FINAL_SINGLE_POINT_ENERGY>  (1847) 
0

>  <NONCOV_INTER_ENERGY_QM>  (1847) 
0

>  <FF_Energy>  (1847) 
13.88

>  <QM_Energy>  (1847) 
-0.28

>  <source>  (1847) 
ETAM_MBZ

>  <Index>  (1847) 
18766

$$$$
ETAM-pdb3h3d-X-LYS-76:MBZ-pdb3h3d-X-PHE-80
     RDKit          3D

 26 25  0  0  0  0  0  0  0  0999 V2000
   -5.7102   -0.9728    0.4791 C   0  0  0  0  0  0  0  0  0  0  0  0
   -5.8021   -0.7319    1.4454 H   0  0  0  0  0  0  0  0  0  0  0  0
   -6.5419   -1.4348    0.1701 H   0  0  0  0  0  0  0  0  0  0  0  0
   -5.5787   -0.0586   -0.0997 H   0  0  0  0  0  0  0  0  0  0  0  0
   -4.5652   -1.8407    0.2930 C   0  0  0  0  0  0  0  0  0  0  0  0
   -3.7473   -1.3599    0.4512 H   0  0  0  0  0  0  0  0  0  0  0  0
   -4.6779   -2.6591    0.7869 H   0  0  0  0  0  0  0  0  0  0  0  0
   -4.7533   -2.0661   -1.1011 N   0  0  0  0  0  4  0  0  0  0  0  0
   -3.9798   -1.6965   -1.6362 H   0  0  0  0  0  0  0  0  0  0  0  0
   -4.8261   -3.0533   -1.3029 H   0  0  0  0  0  0  0  0  0  0  0  0
   -5.5988   -1.6204   -1.4308 H   0  0  0  0  0  0  0  0  0  0  0  0
    0.0001    2.8682    0.0572 C   0  0  0  0  0  0  0  0  0  0  0  0
   -0.9195    3.1967   -0.0423 H   0  0  0  0  0  0  0  0  0  0  0  0
    0.6021    3.2156   -0.6362 H   0  0  0  0  0  0  0  0  0  0  0  0
    0.3715    3.2184    1.0203 H   0  0  0  0  0  0  0  0  0  0  0  0
   -0.0106    1.3892   -0.0157 C   0  0  0  0  0  0  0  0  0  0  0  0
   -1.1824    0.6997    0.0120 C   0  0  0  0  0  0  0  0  0  0  0  0
   -2.0591    1.1896    0.0409 H   0  0  0  0  0  0  0  0  0  0  0  0
   -1.2019   -0.6861    0.0000 C   0  0  0  0  0  0  0  0  0  0  0  0
   -2.0759   -1.1783   -0.0185 H   0  0  0  0  0  0  0  0  0  0  0  0
    0.0060   -1.3977    0.0159 C   0  0  0  0  0  0  0  0  0  0  0  0
   -0.0043   -2.3883    0.0380 H   0  0  0  0  0  0  0  0  0  0  0  0
    1.2019   -0.6930    0.0000 C   0  0  0  0  0  0  0  0  0  0  0  0
    2.0852   -1.1886   -0.0016 H   0  0  0  0  0  0  0  0  0  0  0  0
    1.1870    0.6879   -0.0121 C   0  0  0  0  0  0  0  0  0  0  0  0
    2.0530    1.1938   -0.0196 H   0  0  0  0  0  0  0  0  0  0  0  0
  1  5  1  0
  5  8  1  0
  1  2  1  0
  1  3  1  0
  1  4  1  0
  5  6  1  0
  5  7  1  0
  8  9  1  0
  8 10  1  0
  8 11  1  0
 12 16  1  0
 16 17  2  0
 17 19  1  0
 19 21  2  0
 21 23  1  0
 23 25  2  0
 25 16  1  0
 12 13  1  0
 12 14  1  0
 12 15  1  0
 17 18  1  0
 19 20  1  0
 21 22  1  0
 23 24  1  0
 25 26  1  0
M  CHG  1   8   1
M  END
>  <PDB_ID>  (1848) 
pdb3h3d

>  <RESIDUE_NAME>  (1848) 
LYS   PHE

>  <FRAG_NAME>  (1848) 
ETAM   MBZ

>  <FRAG_ATOM_NUM>  (1848) 
fragi: 11  fragj: 15

>  <atom.prop.CHAIN_ID>  (1848) 
A A A A A A A A A A A Z Z Z Z Z Z Z Z Z Z Z Z Z Z Z

>  <atom.prop.IS_HEAVY_ATOM>  (1848) 
1 0 0 0 1 0 0 1 0 0 0 1 0 0 0 1 1 0 1 0 1 0 1 0 1 0

>  <DIFUSE_FUNC_ATOM>  (1848) 
n/a

>  <FINAL_SINGLE_POINT_ENERGY>  (1848) 
0

>  <NONCOV_INTER_ENERGY_QM>  (1848) 
0

>  <FF_Energy>  (1848) 
6.4

>  <QM_Energy>  (1848) 
-1.63

>  <source>  (1848) 
ETAM_MBZ

>  <Index>  (1848) 
18767

$$$$
ETAM-pdb3h5k-A-LYS-114:MBZ-pdb3h5k-A-PHE-157
     RDKit          3D

 26 25  0  0  0  0  0  0  0  0999 V2000
    0.7349   -3.2892    3.0908 C   0  0  0  0  0  0  0  0  0  0  0  0
    1.6924   -3.0411    3.1415 H   0  0  0  0  0  0  0  0  0  0  0  0
    0.4773   -3.5313    2.1660 H   0  0  0  0  0  0  0  0  0  0  0  0
    0.5485   -4.1376    3.7494 H   0  0  0  0  0  0  0  0  0  0  0  0
   -0.0986   -2.0841    3.5235 C   0  0  0  0  0  0  0  0  0  0  0  0
    0.0211   -1.9440    4.5140 H   0  0  0  0  0  0  0  0  0  0  0  0
    0.2425   -1.2643    3.0465 H   0  0  0  0  0  0  0  0  0  0  0  0
   -1.5675   -2.2358    3.2313 N   0  0  0  0  0  4  0  0  0  0  0  0
   -2.0259   -1.3719    3.4232 H   0  0  0  0  0  0  0  0  0  0  0  0
   -1.6824   -2.4779    2.2707 H   0  0  0  0  0  0  0  0  0  0  0  0
   -1.9398   -2.9554    3.8116 H   0  0  0  0  0  0  0  0  0  0  0  0
    0.0234    2.9114   -0.0189 C   0  0  0  0  0  0  0  0  0  0  0  0
   -0.7041    3.2129   -0.6211 H   0  0  0  0  0  0  0  0  0  0  0  0
    0.9084    3.1969   -0.3617 H   0  0  0  0  0  0  0  0  0  0  0  0
   -0.1274    3.3863    0.9505 H   0  0  0  0  0  0  0  0  0  0  0  0
    0.0028    1.4046    0.0134 C   0  0  0  0  0  0  0  0  0  0  0  0
   -1.2020    0.6949   -0.0055 C   0  0  0  0  0  0  0  0  0  0  0  0
   -2.0633    1.1831   -0.0236 H   0  0  0  0  0  0  0  0  0  0  0  0
   -1.1961   -0.6964    0.0000 C   0  0  0  0  0  0  0  0  0  0  0  0
   -2.0714   -1.1962    0.0082 H   0  0  0  0  0  0  0  0  0  0  0  0
    0.0089   -1.3932   -0.0042 C   0  0  0  0  0  0  0  0  0  0  0  0
   -0.0007   -2.3927   -0.0103 H   0  0  0  0  0  0  0  0  0  0  0  0
    1.1961   -0.7002   -0.0000 C   0  0  0  0  0  0  0  0  0  0  0  0
    2.0847   -1.1920    0.0072 H   0  0  0  0  0  0  0  0  0  0  0  0
    1.1903    0.6902   -0.0037 C   0  0  0  0  0  0  0  0  0  0  0  0
    2.0646    1.1847   -0.0202 H   0  0  0  0  0  0  0  0  0  0  0  0
  1  5  1  0
  5  8  1  0
  1  2  1  0
  1  3  1  0
  1  4  1  0
  5  6  1  0
  5  7  1  0
  8  9  1  0
  8 10  1  0
  8 11  1  0
 12 16  1  0
 16 17  2  0
 17 19  1  0
 19 21  2  0
 21 23  1  0
 23 25  2  0
 25 16  1  0
 12 13  1  0
 12 14  1  0
 12 15  1  0
 17 18  1  0
 19 20  1  0
 21 22  1  0
 23 24  1  0
 25 26  1  0
M  CHG  1   8   1
M  END
>  <PDB_ID>  (1849) 
pdb3h5k

>  <RESIDUE_NAME>  (1849) 
LYS   PHE

>  <FRAG_NAME>  (1849) 
ETAM   MBZ

>  <FRAG_ATOM_NUM>  (1849) 
fragi: 11  fragj: 15

>  <atom.prop.CHAIN_ID>  (1849) 
A A A A A A A A A A A Z Z Z Z Z Z Z Z Z Z Z Z Z Z Z

>  <atom.prop.IS_HEAVY_ATOM>  (1849) 
1 0 0 0 1 0 0 1 0 0 0 1 0 0 0 1 1 0 1 0 1 0 1 0 1 0

>  <DIFUSE_FUNC_ATOM>  (1849) 
n/a

>  <FINAL_SINGLE_POINT_ENERGY>  (1849) 
0

>  <NONCOV_INTER_ENERGY_QM>  (1849) 
0

>  <FF_Energy>  (1849) 
-4.09

>  <QM_Energy>  (1849) 
-9.98

>  <source>  (1849) 
ETAM_MBZ

>  <Index>  (1849) 
18801

$$$$
ETAM-pdb3h5k-B-LYS-114:MBZ-pdb3h5k-B-PHE-157
     RDKit          3D

 26 25  0  0  0  0  0  0  0  0999 V2000
    0.9252   -2.8992    3.3224 C   0  0  0  0  0  0  0  0  0  0  0  0
    1.8185   -2.5162    3.5055 H   0  0  0  0  0  0  0  0  0  0  0  0
    0.8239   -3.1334    2.3673 H   0  0  0  0  0  0  0  0  0  0  0  0
    0.7818   -3.7913    3.9321 H   0  0  0  0  0  0  0  0  0  0  0  0
   -0.1311   -1.8419    3.6710 C   0  0  0  0  0  0  0  0  0  0  0  0
   -0.1373   -1.7106    4.6739 H   0  0  0  0  0  0  0  0  0  0  0  0
    0.1414   -0.9634    3.2498 H   0  0  0  0  0  0  0  0  0  0  0  0
   -1.5249   -2.1818    3.2199 N   0  0  0  0  0  4  0  0  0  0  0  0
   -2.1372   -1.4356    3.4708 H   0  0  0  0  0  0  0  0  0  0  0  0
   -1.5241   -2.3047    2.2305 H   0  0  0  0  0  0  0  0  0  0  0  0
   -1.8139   -3.0242    3.6676 H   0  0  0  0  0  0  0  0  0  0  0  0
   -0.0108    2.9028   -0.0521 C   0  0  0  0  0  0  0  0  0  0  0  0
   -0.7235    3.1822   -0.6835 H   0  0  0  0  0  0  0  0  0  0  0  0
    0.8796    3.2050   -0.3703 H   0  0  0  0  0  0  0  0  0  0  0  0
   -0.2041    3.3954    0.9008 H   0  0  0  0  0  0  0  0  0  0  0  0
   -0.0005    1.4005    0.0040 C   0  0  0  0  0  0  0  0  0  0  0  0
   -1.1913    0.6836   -0.0201 C   0  0  0  0  0  0  0  0  0  0  0  0
   -2.0610    1.1781   -0.0542 H   0  0  0  0  0  0  0  0  0  0  0  0
   -1.1992   -0.6973   -0.0000 C   0  0  0  0  0  0  0  0  0  0  0  0
   -2.0780   -1.1916    0.0015 H   0  0  0  0  0  0  0  0  0  0  0  0
   -0.0050   -1.3920    0.0193 C   0  0  0  0  0  0  0  0  0  0  0  0
   -0.0047   -2.3904    0.0459 H   0  0  0  0  0  0  0  0  0  0  0  0
    1.1992   -0.6945    0.0000 C   0  0  0  0  0  0  0  0  0  0  0  0
    2.0794   -1.1927   -0.0104 H   0  0  0  0  0  0  0  0  0  0  0  0
    1.1967    0.6996   -0.0032 C   0  0  0  0  0  0  0  0  0  0  0  0
    2.0635    1.1928   -0.0115 H   0  0  0  0  0  0  0  0  0  0  0  0
  1  5  1  0
  5  8  1  0
  1  2  1  0
  1  3  1  0
  1  4  1  0
  5  6  1  0
  5  7  1  0
  8  9  1  0
  8 10  1  0
  8 11  1  0
 12 16  1  0
 16 17  2  0
 17 19  1  0
 19 21  2  0
 21 23  1  0
 23 25  2  0
 25 16  1  0
 12 13  1  0
 12 14  1  0
 12 15  1  0
 17 18  1  0
 19 20  1  0
 21 22  1  0
 23 24  1  0
 25 26  1  0
M  CHG  1   8   1
M  END
>  <PDB_ID>  (1850) 
pdb3h5k

>  <RESIDUE_NAME>  (1850) 
LYS   PHE

>  <FRAG_NAME>  (1850) 
ETAM   MBZ

>  <FRAG_ATOM_NUM>  (1850) 
fragi: 11  fragj: 15

>  <atom.prop.CHAIN_ID>  (1850) 
A A A A A A A A A A A Z Z Z Z Z Z Z Z Z Z Z Z Z Z Z

>  <atom.prop.IS_HEAVY_ATOM>  (1850) 
1 0 0 0 1 0 0 1 0 0 0 1 0 0 0 1 1 0 1 0 1 0 1 0 1 0

>  <DIFUSE_FUNC_ATOM>  (1850) 
n/a

>  <FINAL_SINGLE_POINT_ENERGY>  (1850) 
0

>  <NONCOV_INTER_ENERGY_QM>  (1850) 
0

>  <FF_Energy>  (1850) 
-4.31

>  <QM_Energy>  (1850) 
-10.57

>  <source>  (1850) 
ETAM_MBZ

>  <Index>  (1850) 
18802

$$$$
ETAM-pdb3h5n-B-LYS-10:MBZ-pdb3h5n-A-PHE-286
     RDKit          3D

 26 25  0  0  0  0  0  0  0  0999 V2000
   -0.9382   -1.6396   -3.9752 C   0  0  0  0  0  0  0  0  0  0  0  0
   -1.1215   -1.9060   -3.0337 H   0  0  0  0  0  0  0  0  0  0  0  0
   -1.1761   -2.3813   -4.5953 H   0  0  0  0  0  0  0  0  0  0  0  0
   -1.5554   -0.7740   -4.2158 H   0  0  0  0  0  0  0  0  0  0  0  0
    0.5504   -1.3425   -4.1179 C   0  0  0  0  0  0  0  0  0  0  0  0
    0.8095   -1.4220   -5.0871 H   0  0  0  0  0  0  0  0  0  0  0  0
    0.7272   -0.3989   -3.8177 H   0  0  0  0  0  0  0  0  0  0  0  0
    1.4222   -2.2750   -3.3094 N   0  0  0  0  0  4  0  0  0  0  0  0
    1.8725   -1.7510   -2.5922 H   0  0  0  0  0  0  0  0  0  0  0  0
    0.8482   -2.9834   -2.9092 H   0  0  0  0  0  0  0  0  0  0  0  0
    2.1005   -2.6836   -3.9139 H   0  0  0  0  0  0  0  0  0  0  0  0
   -0.0123    2.9235    0.0081 C   0  0  0  0  0  0  0  0  0  0  0  0
   -0.7102    3.2247   -0.6209 H   0  0  0  0  0  0  0  0  0  0  0  0
    0.8836    3.2324   -0.2647 H   0  0  0  0  0  0  0  0  0  0  0  0
   -0.2324    3.3511    0.9862 H   0  0  0  0  0  0  0  0  0  0  0  0
   -0.0027    1.4122   -0.0008 C   0  0  0  0  0  0  0  0  0  0  0  0
   -1.2022    0.6921    0.0083 C   0  0  0  0  0  0  0  0  0  0  0  0
   -2.0696    1.1746    0.0196 H   0  0  0  0  0  0  0  0  0  0  0  0
   -1.1991   -0.7094   -0.0000 C   0  0  0  0  0  0  0  0  0  0  0  0
   -2.0738   -1.2022   -0.0061 H   0  0  0  0  0  0  0  0  0  0  0  0
    0.0048   -1.3965    0.0018 C   0  0  0  0  0  0  0  0  0  0  0  0
    0.0011   -2.3994    0.0040 H   0  0  0  0  0  0  0  0  0  0  0  0
    1.1991   -0.7052   -0.0000 C   0  0  0  0  0  0  0  0  0  0  0  0
    2.0851   -1.1928    0.0065 H   0  0  0  0  0  0  0  0  0  0  0  0
    1.2001    0.7068   -0.0092 C   0  0  0  0  0  0  0  0  0  0  0  0
    2.0654    1.1920   -0.0229 H   0  0  0  0  0  0  0  0  0  0  0  0
  1  5  1  0
  5  8  1  0
  1  2  1  0
  1  3  1  0
  1  4  1  0
  5  6  1  0
  5  7  1  0
  8  9  1  0
  8 10  1  0
  8 11  1  0
 12 16  1  0
 16 17  2  0
 17 19  1  0
 19 21  2  0
 21 23  1  0
 23 25  2  0
 25 16  1  0
 12 13  1  0
 12 14  1  0
 12 15  1  0
 17 18  1  0
 19 20  1  0
 21 22  1  0
 23 24  1  0
 25 26  1  0
M  CHG  1   8   1
M  END
>  <PDB_ID>  (1851) 
pdb3h5n

>  <RESIDUE_NAME>  (1851) 
LYS   PHE

>  <FRAG_NAME>  (1851) 
ETAM   MBZ

>  <FRAG_ATOM_NUM>  (1851) 
fragi: 11  fragj: 15

>  <atom.prop.CHAIN_ID>  (1851) 
A A A A A A A A A A A Z Z Z Z Z Z Z Z Z Z Z Z Z Z Z

>  <atom.prop.IS_HEAVY_ATOM>  (1851) 
1 0 0 0 1 0 0 1 0 0 0 1 0 0 0 1 1 0 1 0 1 0 1 0 1 0

>  <DIFUSE_FUNC_ATOM>  (1851) 
n/a

>  <FINAL_SINGLE_POINT_ENERGY>  (1851) 
0

>  <NONCOV_INTER_ENERGY_QM>  (1851) 
0

>  <FF_Energy>  (1851) 
-4.15

>  <QM_Energy>  (1851) 
-10.07

>  <source>  (1851) 
ETAM_MBZ

>  <Index>  (1851) 
18809

$$$$
ETAM-pdb3h8f-C-LYS-288:MBZ-pdb3h8f-B-PHE-431
     RDKit          3D

 26 25  0  0  0  0  0  0  0  0999 V2000
    2.6930   -1.5308    5.4231 C   0  0  0  0  0  0  0  0  0  0  0  0
    2.2719   -0.8934    6.0522 H   0  0  0  0  0  0  0  0  0  0  0  0
    3.5637   -1.1924    5.0989 H   0  0  0  0  0  0  0  0  0  0  0  0
    2.8474   -2.4826    5.9315 H   0  0  0  0  0  0  0  0  0  0  0  0
    1.7683   -1.7167    4.2284 C   0  0  0  0  0  0  0  0  0  0  0  0
    2.1743   -2.4099    3.6005 H   0  0  0  0  0  0  0  0  0  0  0  0
    0.8838   -2.1084    4.5521 H   0  0  0  0  0  0  0  0  0  0  0  0
    1.4591   -0.4727    3.4152 N   0  0  0  0  0  4  0  0  0  0  0  0
    1.0746    0.2151    4.0221 H   0  0  0  0  0  0  0  0  0  0  0  0
    2.3045   -0.1421    3.0087 H   0  0  0  0  0  0  0  0  0  0  0  0
    0.8045   -0.7128    2.7059 H   0  0  0  0  0  0  0  0  0  0  0  0
    0.0061    2.9109    0.0065 C   0  0  0  0  0  0  0  0  0  0  0  0
    0.9265    3.2134    0.2109 H   0  0  0  0  0  0  0  0  0  0  0  0
   -0.6312    3.2126    0.7013 H   0  0  0  0  0  0  0  0  0  0  0  0
   -0.2910    3.3725   -0.9351 H   0  0  0  0  0  0  0  0  0  0  0  0
    0.0034    1.4010   -0.0056 C   0  0  0  0  0  0  0  0  0  0  0  0
   -1.1961    0.6806    0.0109 C   0  0  0  0  0  0  0  0  0  0  0  0
   -2.0622    1.1739    0.0302 H   0  0  0  0  0  0  0  0  0  0  0  0
   -1.1978   -0.7031   -0.0000 C   0  0  0  0  0  0  0  0  0  0  0  0
   -2.0761   -1.1975   -0.0039 H   0  0  0  0  0  0  0  0  0  0  0  0
   -0.0076   -1.3801   -0.0039 C   0  0  0  0  0  0  0  0  0  0  0  0
   -0.0024   -2.3888   -0.0101 H   0  0  0  0  0  0  0  0  0  0  0  0
    1.1978   -0.6932    0.0000 C   0  0  0  0  0  0  0  0  0  0  0  0
    2.0750   -1.1972    0.0054 H   0  0  0  0  0  0  0  0  0  0  0  0
    1.2003    0.6947   -0.0014 C   0  0  0  0  0  0  0  0  0  0  0  0
    2.0671    1.1891   -0.0007 H   0  0  0  0  0  0  0  0  0  0  0  0
  1  5  1  0
  5  8  1  0
  1  2  1  0
  1  3  1  0
  1  4  1  0
  5  6  1  0
  5  7  1  0
  8  9  1  0
  8 10  1  0
  8 11  1  0
 12 16  1  0
 16 17  2  0
 17 19  1  0
 19 21  2  0
 21 23  1  0
 23 25  2  0
 25 16  1  0
 12 13  1  0
 12 14  1  0
 12 15  1  0
 17 18  1  0
 19 20  1  0
 21 22  1  0
 23 24  1  0
 25 26  1  0
M  CHG  1   8   1
M  END
>  <PDB_ID>  (1852) 
pdb3h8f

>  <RESIDUE_NAME>  (1852) 
LYS   PHE

>  <FRAG_NAME>  (1852) 
ETAM   MBZ

>  <FRAG_ATOM_NUM>  (1852) 
fragi: 11  fragj: 15

>  <atom.prop.CHAIN_ID>  (1852) 
A A A A A A A A A A A Z Z Z Z Z Z Z Z Z Z Z Z Z Z Z

>  <atom.prop.IS_HEAVY_ATOM>  (1852) 
1 0 0 0 1 0 0 1 0 0 0 1 0 0 0 1 1 0 1 0 1 0 1 0 1 0

>  <DIFUSE_FUNC_ATOM>  (1852) 
n/a

>  <FINAL_SINGLE_POINT_ENERGY>  (1852) 
0

>  <NONCOV_INTER_ENERGY_QM>  (1852) 
0

>  <FF_Energy>  (1852) 
-6.12

>  <QM_Energy>  (1852) 
-12.07

>  <source>  (1852) 
ETAM_MBZ

>  <Index>  (1852) 
18861

$$$$
ETAM-pdb3h8f-F-LYS-288:MBZ-pdb3h8f-A-PHE-431
     RDKit          3D

 26 25  0  0  0  0  0  0  0  0999 V2000
    2.6629   -1.7026    5.5191 C   0  0  0  0  0  0  0  0  0  0  0  0
    1.9663   -1.3901    6.1493 H   0  0  0  0  0  0  0  0  0  0  0  0
    3.3722   -1.0214    5.4050 H   0  0  0  0  0  0  0  0  0  0  0  0
    3.1058   -2.6224    5.9012 H   0  0  0  0  0  0  0  0  0  0  0  0
    2.0172   -1.9595    4.1710 C   0  0  0  0  0  0  0  0  0  0  0  0
    2.6261   -2.5498    3.6175 H   0  0  0  0  0  0  0  0  0  0  0  0
    1.1495   -2.4630    4.3087 H   0  0  0  0  0  0  0  0  0  0  0  0
    1.7169   -0.7094    3.3725 N   0  0  0  0  0  4  0  0  0  0  0  0
    1.6225   -0.9592    2.4134 H   0  0  0  0  0  0  0  0  0  0  0  0
    0.8689   -0.3109    3.7098 H   0  0  0  0  0  0  0  0  0  0  0  0
    2.4687   -0.0677    3.4890 H   0  0  0  0  0  0  0  0  0  0  0  0
    0.0051    2.8773   -0.0093 C   0  0  0  0  0  0  0  0  0  0  0  0
    0.9354    3.1946    0.1156 H   0  0  0  0  0  0  0  0  0  0  0  0
   -0.5823    3.2053    0.7181 H   0  0  0  0  0  0  0  0  0  0  0  0
   -0.3617    3.3074   -0.9413 H   0  0  0  0  0  0  0  0  0  0  0  0
    0.0022    1.3979    0.0086 C   0  0  0  0  0  0  0  0  0  0  0  0
   -1.2026    0.6987    0.0006 C   0  0  0  0  0  0  0  0  0  0  0  0
   -2.0636    1.1947   -0.0062 H   0  0  0  0  0  0  0  0  0  0  0  0
   -1.2148   -0.6924    0.0000 C   0  0  0  0  0  0  0  0  0  0  0  0
   -2.0887   -1.1851    0.0002 H   0  0  0  0  0  0  0  0  0  0  0  0
   -0.0069   -1.3961    0.0018 C   0  0  0  0  0  0  0  0  0  0  0  0
   -0.0133   -2.3936    0.0035 H   0  0  0  0  0  0  0  0  0  0  0  0
    1.2148   -0.7029   -0.0000 C   0  0  0  0  0  0  0  0  0  0  0  0
    2.0843   -1.2033    0.0080 H   0  0  0  0  0  0  0  0  0  0  0  0
    1.2073    0.6948   -0.0110 C   0  0  0  0  0  0  0  0  0  0  0  0
    2.0706    1.1918   -0.0335 H   0  0  0  0  0  0  0  0  0  0  0  0
  1  5  1  0
  5  8  1  0
  1  2  1  0
  1  3  1  0
  1  4  1  0
  5  6  1  0
  5  7  1  0
  8  9  1  0
  8 10  1  0
  8 11  1  0
 12 16  1  0
 16 17  2  0
 17 19  1  0
 19 21  2  0
 21 23  1  0
 23 25  2  0
 25 16  1  0
 12 13  1  0
 12 14  1  0
 12 15  1  0
 17 18  1  0
 19 20  1  0
 21 22  1  0
 23 24  1  0
 25 26  1  0
M  CHG  1   8   1
M  END
>  <PDB_ID>  (1853) 
pdb3h8f

>  <RESIDUE_NAME>  (1853) 
LYS   PHE

>  <FRAG_NAME>  (1853) 
ETAM   MBZ

>  <FRAG_ATOM_NUM>  (1853) 
fragi: 11  fragj: 15

>  <atom.prop.CHAIN_ID>  (1853) 
A A A A A A A A A A A Z Z Z Z Z Z Z Z Z Z Z Z Z Z Z

>  <atom.prop.IS_HEAVY_ATOM>  (1853) 
1 0 0 0 1 0 0 1 0 0 0 1 0 0 0 1 1 0 1 0 1 0 1 0 1 0

>  <DIFUSE_FUNC_ATOM>  (1853) 
n/a

>  <FINAL_SINGLE_POINT_ENERGY>  (1853) 
0

>  <NONCOV_INTER_ENERGY_QM>  (1853) 
0

>  <FF_Energy>  (1853) 
-5.39

>  <QM_Energy>  (1853) 
-11.91

>  <source>  (1853) 
ETAM_MBZ

>  <Index>  (1853) 
18862

$$$$
ETAM-pdb3h9w-A-LYS-23:MBZ-pdb3h9w-A-PHE-124
     RDKit          3D

 26 25  0  0  0  0  0  0  0  0999 V2000
   -5.3568    2.6451    0.1220 C   0  0  0  0  0  0  0  0  0  0  0  0
   -4.6191    2.7077   -0.5446 H   0  0  0  0  0  0  0  0  0  0  0  0
   -5.6123    3.5557    0.4362 H   0  0  0  0  0  0  0  0  0  0  0  0
   -6.2212    2.1817   -0.3535 H   0  0  0  0  0  0  0  0  0  0  0  0
   -4.8601    1.8414    1.3199 C   0  0  0  0  0  0  0  0  0  0  0  0
   -4.1320    2.3642    1.7801 H   0  0  0  0  0  0  0  0  0  0  0  0
   -5.6221    1.7240    1.9693 H   0  0  0  0  0  0  0  0  0  0  0  0
   -4.3334    0.5014    0.9401 N   0  0  0  0  0  4  0  0  0  0  0  0
   -4.8072   -0.2021    1.4683 H   0  0  0  0  0  0  0  0  0  0  0  0
   -4.4878    0.3492   -0.0359 H   0  0  0  0  0  0  0  0  0  0  0  0
   -3.3537    0.4634    1.1334 H   0  0  0  0  0  0  0  0  0  0  0  0
    0.0023    2.9027    0.0244 C   0  0  0  0  0  0  0  0  0  0  0  0
    0.8748    3.2038    0.3853 H   0  0  0  0  0  0  0  0  0  0  0  0
   -0.7429    3.2023    0.6050 H   0  0  0  0  0  0  0  0  0  0  0  0
   -0.1309    3.3661   -0.9531 H   0  0  0  0  0  0  0  0  0  0  0  0
    0.0004    1.4033    0.0010 C   0  0  0  0  0  0  0  0  0  0  0  0
   -1.1989    0.6988   -0.0008 C   0  0  0  0  0  0  0  0  0  0  0  0
   -2.0636    1.1884   -0.0041 H   0  0  0  0  0  0  0  0  0  0  0  0
   -1.2040   -0.6953    0.0000 C   0  0  0  0  0  0  0  0  0  0  0  0
   -2.0811   -1.1881    0.0019 H   0  0  0  0  0  0  0  0  0  0  0  0
   -0.0006   -1.3956    0.0003 C   0  0  0  0  0  0  0  0  0  0  0  0
   -0.0086   -2.3941    0.0003 H   0  0  0  0  0  0  0  0  0  0  0  0
    1.2040   -0.7032   -0.0000 C   0  0  0  0  0  0  0  0  0  0  0  0
    2.0827   -1.1993    0.0015 H   0  0  0  0  0  0  0  0  0  0  0  0
    1.1991    0.6919   -0.0005 C   0  0  0  0  0  0  0  0  0  0  0  0
    2.0677    1.1871   -0.0028 H   0  0  0  0  0  0  0  0  0  0  0  0
  1  5  1  0
  5  8  1  0
  1  2  1  0
  1  3  1  0
  1  4  1  0
  5  6  1  0
  5  7  1  0
  8  9  1  0
  8 10  1  0
  8 11  1  0
 12 16  1  0
 16 17  2  0
 17 19  1  0
 19 21  2  0
 21 23  1  0
 23 25  2  0
 25 16  1  0
 12 13  1  0
 12 14  1  0
 12 15  1  0
 17 18  1  0
 19 20  1  0
 21 22  1  0
 23 24  1  0
 25 26  1  0
M  CHG  1   8   1
M  END
>  <PDB_ID>  (1854) 
pdb3h9w

>  <RESIDUE_NAME>  (1854) 
LYS   PHE

>  <FRAG_NAME>  (1854) 
ETAM   MBZ

>  <FRAG_ATOM_NUM>  (1854) 
fragi: 11  fragj: 15

>  <atom.prop.CHAIN_ID>  (1854) 
A A A A A A A A A A A Z Z Z Z Z Z Z Z Z Z Z Z Z Z Z

>  <atom.prop.IS_HEAVY_ATOM>  (1854) 
1 0 0 0 1 0 0 1 0 0 0 1 0 0 0 1 1 0 1 0 1 0 1 0 1 0

>  <DIFUSE_FUNC_ATOM>  (1854) 
n/a

>  <FINAL_SINGLE_POINT_ENERGY>  (1854) 
0

>  <NONCOV_INTER_ENERGY_QM>  (1854) 
0

>  <FF_Energy>  (1854) 
1.11

>  <QM_Energy>  (1854) 
-5.22

>  <source>  (1854) 
ETAM_MBZ

>  <Index>  (1854) 
18875

$$$$
ETAM-pdb4e4w-A-LYS-724:MBZ-pdb4e4w-A-PHE-720
     RDKit          3D

 26 25  0  0  0  0  0  0  0  0999 V2000
    0.7845   -1.5638    3.8306 C   0  0  0  0  0  0  0  0  0  0  0  0
    0.7241   -0.8692    3.1263 H   0  0  0  0  0  0  0  0  0  0  0  0
    1.4717   -1.3272    4.5034 H   0  0  0  0  0  0  0  0  0  0  0  0
   -0.1812   -1.6300    4.3317 H   0  0  0  0  0  0  0  0  0  0  0  0
    1.1522   -2.8869    3.1921 C   0  0  0  0  0  0  0  0  0  0  0  0
    1.3665   -3.5522    3.9182 H   0  0  0  0  0  0  0  0  0  0  0  0
    0.3590   -3.2322    2.6748 H   0  0  0  0  0  0  0  0  0  0  0  0
    2.3166   -2.7761    2.2767 N   0  0  0  0  0  4  0  0  0  0  0  0
    1.9979   -2.7884    1.3290 H   0  0  0  0  0  0  0  0  0  0  0  0
    2.8000   -1.9185    2.4549 H   0  0  0  0  0  0  0  0  0  0  0  0
    2.9358   -3.5467    2.4309 H   0  0  0  0  0  0  0  0  0  0  0  0
    0.0047    2.9355   -0.0207 C   0  0  0  0  0  0  0  0  0  0  0  0
   -0.2833    3.2205   -0.9303 H   0  0  0  0  0  0  0  0  0  0  0  0
    0.9374    3.2376    0.1552 H   0  0  0  0  0  0  0  0  0  0  0  0
   -0.6435    3.4342    0.6998 H   0  0  0  0  0  0  0  0  0  0  0  0
    0.0016    1.4126    0.0076 C   0  0  0  0  0  0  0  0  0  0  0  0
   -1.1946    0.6975   -0.0182 C   0  0  0  0  0  0  0  0  0  0  0  0
   -2.0624    1.1790   -0.0509 H   0  0  0  0  0  0  0  0  0  0  0  0
   -1.1934   -0.7056   -0.0000 C   0  0  0  0  0  0  0  0  0  0  0  0
   -2.0756   -1.1918    0.0150 H   0  0  0  0  0  0  0  0  0  0  0  0
   -0.0026   -1.3949   -0.0015 C   0  0  0  0  0  0  0  0  0  0  0  0
   -0.0058   -2.3990   -0.0038 H   0  0  0  0  0  0  0  0  0  0  0  0
    1.1934   -0.7065   -0.0000 C   0  0  0  0  0  0  0  0  0  0  0  0
    2.0770   -1.1994   -0.0062 H   0  0  0  0  0  0  0  0  0  0  0  0
    1.1956    0.6968    0.0120 C   0  0  0  0  0  0  0  0  0  0  0  0
    2.0671    1.1829    0.0230 H   0  0  0  0  0  0  0  0  0  0  0  0
  1  5  1  0
  5  8  1  0
  1  2  1  0
  1  3  1  0
  1  4  1  0
  5  6  1  0
  5  7  1  0
  8  9  1  0
  8 10  1  0
  8 11  1  0
 12 16  1  0
 16 17  2  0
 17 19  1  0
 19 21  2  0
 21 23  1  0
 23 25  2  0
 25 16  1  0
 12 13  1  0
 12 14  1  0
 12 15  1  0
 17 18  1  0
 19 20  1  0
 21 22  1  0
 23 24  1  0
 25 26  1  0
M  CHG  1   8   1
M  END
>  <PDB_ID>  (1855) 
pdb4e4w

>  <RESIDUE_NAME>  (1855) 
LYS   PHE

>  <FRAG_NAME>  (1855) 
ETAM   MBZ

>  <FRAG_ATOM_NUM>  (1855) 
fragi: 11  fragj: 15

>  <atom.prop.CHAIN_ID>  (1855) 
A A A A A A A A A A A Z Z Z Z Z Z Z Z Z Z Z Z Z Z Z

>  <atom.prop.IS_HEAVY_ATOM>  (1855) 
1 0 0 0 1 0 0 1 0 0 0 1 0 0 0 1 1 0 1 0 1 0 1 0 1 0

>  <DIFUSE_FUNC_ATOM>  (1855) 
n/a

>  <FINAL_SINGLE_POINT_ENERGY>  (1855) 
0

>  <NONCOV_INTER_ENERGY_QM>  (1855) 
0

>  <FF_Energy>  (1855) 
-1.68

>  <QM_Energy>  (1855) 
-8.55

>  <source>  (1855) 
ETAM_MBZ

>  <Index>  (1855) 
18913

$$$$
ETAM-pdb3hc7-A-LYS-112:MBZ-pdb3hc7-A-PHE-250
     RDKit          3D

 26 25  0  0  0  0  0  0  0  0999 V2000
    0.1571   -1.1917    4.0358 C   0  0  0  0  0  0  0  0  0  0  0  0
    0.8444   -1.0467    4.7384 H   0  0  0  0  0  0  0  0  0  0  0  0
    0.2478   -0.5177    3.3132 H   0  0  0  0  0  0  0  0  0  0  0  0
    0.2833   -2.1885    3.6135 H   0  0  0  0  0  0  0  0  0  0  0  0
   -1.2217   -1.0354    4.6699 C   0  0  0  0  0  0  0  0  0  0  0  0
   -1.4897   -1.9100    5.0767 H   0  0  0  0  0  0  0  0  0  0  0  0
   -1.1691   -0.3403    5.3893 H   0  0  0  0  0  0  0  0  0  0  0  0
   -2.2366   -0.6278    3.6646 N   0  0  0  0  0  4  0  0  0  0  0  0
   -2.5044    0.3220    3.8283 H   0  0  0  0  0  0  0  0  0  0  0  0
   -1.8489   -0.7117    2.7466 H   0  0  0  0  0  0  0  0  0  0  0  0
   -3.0390   -1.2194    3.7432 H   0  0  0  0  0  0  0  0  0  0  0  0
    0.0005    2.8992   -0.0087 C   0  0  0  0  0  0  0  0  0  0  0  0
   -0.3811    3.1980   -0.8701 H   0  0  0  0  0  0  0  0  0  0  0  0
    0.9354    3.2036    0.0955 H   0  0  0  0  0  0  0  0  0  0  0  0
   -0.5890    3.3435    0.7932 H   0  0  0  0  0  0  0  0  0  0  0  0
    0.0002    1.3946    0.0008 C   0  0  0  0  0  0  0  0  0  0  0  0
   -1.1915    0.6909   -0.0016 C   0  0  0  0  0  0  0  0  0  0  0  0
   -2.0586    1.1827   -0.0056 H   0  0  0  0  0  0  0  0  0  0  0  0
   -1.1944   -0.6911   -0.0000 C   0  0  0  0  0  0  0  0  0  0  0  0
   -2.0742   -1.1868    0.0022 H   0  0  0  0  0  0  0  0  0  0  0  0
   -0.0017   -1.3836   -0.0004 C   0  0  0  0  0  0  0  0  0  0  0  0
   -0.0079   -2.3866   -0.0009 H   0  0  0  0  0  0  0  0  0  0  0  0
    1.1944   -0.6967   -0.0000 C   0  0  0  0  0  0  0  0  0  0  0  0
    2.0756   -1.1976    0.0006 H   0  0  0  0  0  0  0  0  0  0  0  0
    1.1930    0.6858    0.0012 C   0  0  0  0  0  0  0  0  0  0  0  0
    2.0622    1.1835    0.0014 H   0  0  0  0  0  0  0  0  0  0  0  0
  1  5  1  0
  5  8  1  0
  1  2  1  0
  1  3  1  0
  1  4  1  0
  5  6  1  0
  5  7  1  0
  8  9  1  0
  8 10  1  0
  8 11  1  0
 12 16  1  0
 16 17  2  0
 17 19  1  0
 19 21  2  0
 21 23  1  0
 23 25  2  0
 25 16  1  0
 12 13  1  0
 12 14  1  0
 12 15  1  0
 17 18  1  0
 19 20  1  0
 21 22  1  0
 23 24  1  0
 25 26  1  0
M  CHG  1   8   1
M  END
>  <PDB_ID>  (1856) 
pdb3hc7

>  <RESIDUE_NAME>  (1856) 
LYS   PHE

>  <FRAG_NAME>  (1856) 
ETAM   MBZ

>  <FRAG_ATOM_NUM>  (1856) 
fragi: 11  fragj: 15

>  <atom.prop.CHAIN_ID>  (1856) 
A A A A A A A A A A A Z Z Z Z Z Z Z Z Z Z Z Z Z Z Z

>  <atom.prop.IS_HEAVY_ATOM>  (1856) 
1 0 0 0 1 0 0 1 0 0 0 1 0 0 0 1 1 0 1 0 1 0 1 0 1 0

>  <DIFUSE_FUNC_ATOM>  (1856) 
n/a

>  <FINAL_SINGLE_POINT_ENERGY>  (1856) 
0

>  <NONCOV_INTER_ENERGY_QM>  (1856) 
0

>  <FF_Energy>  (1856) 
-4.75

>  <QM_Energy>  (1856) 
-10.1

>  <source>  (1856) 
ETAM_MBZ

>  <Index>  (1856) 
18914

$$$$
ETAM-pdb4e5y-C-LYS-81:MBZ-pdb4e5y-C-PHE-86
     RDKit          3D

 26 25  0  0  0  0  0  0  0  0999 V2000
    5.1172   -1.0048    3.8320 C   0  0  0  0  0  0  0  0  0  0  0  0
    5.6103   -1.8270    3.5648 H   0  0  0  0  0  0  0  0  0  0  0  0
    4.7459   -1.1085    4.7498 H   0  0  0  0  0  0  0  0  0  0  0  0
    5.8092   -0.1627    3.8254 H   0  0  0  0  0  0  0  0  0  0  0  0
    3.9524   -0.8013    2.8596 C   0  0  0  0  0  0  0  0  0  0  0  0
    3.2315   -0.2705    3.3226 H   0  0  0  0  0  0  0  0  0  0  0  0
    4.2777   -0.2662    2.0697 H   0  0  0  0  0  0  0  0  0  0  0  0
    3.3545   -2.0913    2.3552 N   0  0  0  0  0  4  0  0  0  0  0  0
    4.0825   -2.7633    2.2500 H   0  0  0  0  0  0  0  0  0  0  0  0
    2.6824   -2.4143    3.0159 H   0  0  0  0  0  0  0  0  0  0  0  0
    2.9162   -1.9210    1.4770 H   0  0  0  0  0  0  0  0  0  0  0  0
   -0.0079    2.9152   -0.0140 C   0  0  0  0  0  0  0  0  0  0  0  0
    0.8853    3.2269    0.2647 H   0  0  0  0  0  0  0  0  0  0  0  0
   -0.7124    3.2210    0.6054 H   0  0  0  0  0  0  0  0  0  0  0  0
   -0.2186    3.3411   -0.9950 H   0  0  0  0  0  0  0  0  0  0  0  0
    0.0004    1.4056   -0.0016 C   0  0  0  0  0  0  0  0  0  0  0  0
   -1.2001    0.6875    0.0012 C   0  0  0  0  0  0  0  0  0  0  0  0
   -2.0667    1.1792    0.0029 H   0  0  0  0  0  0  0  0  0  0  0  0
   -1.2033   -0.7025    0.0000 C   0  0  0  0  0  0  0  0  0  0  0  0
   -2.0785   -1.1975    0.0003 H   0  0  0  0  0  0  0  0  0  0  0  0
   -0.0004   -1.3930    0.0008 C   0  0  0  0  0  0  0  0  0  0  0  0
   -0.0005   -2.3932    0.0012 H   0  0  0  0  0  0  0  0  0  0  0  0
    1.2033   -0.6956    0.0000 C   0  0  0  0  0  0  0  0  0  0  0  0
    2.0835   -1.1937    0.0013 H   0  0  0  0  0  0  0  0  0  0  0  0
    1.2002    0.6980   -0.0005 C   0  0  0  0  0  0  0  0  0  0  0  0
    2.0662    1.1931   -0.0006 H   0  0  0  0  0  0  0  0  0  0  0  0
  1  5  1  0
  5  8  1  0
  1  2  1  0
  1  3  1  0
  1  4  1  0
  5  6  1  0
  5  7  1  0
  8  9  1  0
  8 10  1  0
  8 11  1  0
 12 16  1  0
 16 17  2  0
 17 19  1  0
 19 21  2  0
 21 23  1  0
 23 25  2  0
 25 16  1  0
 12 13  1  0
 12 14  1  0
 12 15  1  0
 17 18  1  0
 19 20  1  0
 21 22  1  0
 23 24  1  0
 25 26  1  0
M  CHG  1   8   1
M  END
>  <PDB_ID>  (1857) 
pdb4e5y

>  <RESIDUE_NAME>  (1857) 
LYS   PHE

>  <FRAG_NAME>  (1857) 
ETAM   MBZ

>  <FRAG_ATOM_NUM>  (1857) 
fragi: 11  fragj: 15

>  <atom.prop.CHAIN_ID>  (1857) 
A A A A A A A A A A A Z Z Z Z Z Z Z Z Z Z Z Z Z Z Z

>  <atom.prop.IS_HEAVY_ATOM>  (1857) 
1 0 0 0 1 0 0 1 0 0 0 1 0 0 0 1 1 0 1 0 1 0 1 0 1 0

>  <DIFUSE_FUNC_ATOM>  (1857) 
n/a

>  <FINAL_SINGLE_POINT_ENERGY>  (1857) 
0

>  <NONCOV_INTER_ENERGY_QM>  (1857) 
0

>  <FF_Energy>  (1857) 
-0.5

>  <QM_Energy>  (1857) 
-6.07

>  <source>  (1857) 
ETAM_MBZ

>  <Index>  (1857) 
18921

$$$$
ETAM-pdb3he0-A-LYS-166:MBZ-pdb3he0-A-PHE-171
     RDKit          3D

 26 25  0  0  0  0  0  0  0  0999 V2000
    3.7000    1.5333    2.8248 C   0  0  0  0  0  0  0  0  0  0  0  0
    4.1555    2.2812    3.2953 H   0  0  0  0  0  0  0  0  0  0  0  0
    2.7596    1.7777    2.6145 H   0  0  0  0  0  0  0  0  0  0  0  0
    4.2265    1.3401    1.8902 H   0  0  0  0  0  0  0  0  0  0  0  0
    3.6895    0.3096    3.7506 C   0  0  0  0  0  0  0  0  0  0  0  0
    4.6273   -0.0312    3.8441 H   0  0  0  0  0  0  0  0  0  0  0  0
    3.3512    0.5898    4.6515 H   0  0  0  0  0  0  0  0  0  0  0  0
    2.8184   -0.7938    3.2228 N   0  0  0  0  0  4  0  0  0  0  0  0
    3.2791   -1.6670    3.3642 H   0  0  0  0  0  0  0  0  0  0  0  0
    1.9501   -0.7848    3.7131 H   0  0  0  0  0  0  0  0  0  0  0  0
    2.6610   -0.6460    2.2491 H   0  0  0  0  0  0  0  0  0  0  0  0
   -0.0101    2.9113   -0.0206 C   0  0  0  0  0  0  0  0  0  0  0  0
    0.9188    3.2217   -0.1232 H   0  0  0  0  0  0  0  0  0  0  0  0
   -0.4145    3.2244    0.8209 H   0  0  0  0  0  0  0  0  0  0  0  0
   -0.5929    3.3238   -0.8441 H   0  0  0  0  0  0  0  0  0  0  0  0
    0.0015    1.4003    0.0003 C   0  0  0  0  0  0  0  0  0  0  0  0
   -1.1978    0.6857    0.0005 C   0  0  0  0  0  0  0  0  0  0  0  0
   -2.0628    1.1839    0.0000 H   0  0  0  0  0  0  0  0  0  0  0  0
   -1.2025   -0.6916    0.0000 C   0  0  0  0  0  0  0  0  0  0  0  0
   -2.0785   -1.1918    0.0019 H   0  0  0  0  0  0  0  0  0  0  0  0
   -0.0016   -1.3905   -0.0007 C   0  0  0  0  0  0  0  0  0  0  0  0
   -0.0074   -2.3894   -0.0028 H   0  0  0  0  0  0  0  0  0  0  0  0
    1.2025   -0.6965    0.0000 C   0  0  0  0  0  0  0  0  0  0  0  0
    2.0814   -1.1959    0.0023 H   0  0  0  0  0  0  0  0  0  0  0  0
    1.1979    0.6926   -0.0001 C   0  0  0  0  0  0  0  0  0  0  0  0
    2.0660    1.1894   -0.0013 H   0  0  0  0  0  0  0  0  0  0  0  0
  1  5  1  0
  5  8  1  0
  1  2  1  0
  1  3  1  0
  1  4  1  0
  5  6  1  0
  5  7  1  0
  8  9  1  0
  8 10  1  0
  8 11  1  0
 12 16  1  0
 16 17  2  0
 17 19  1  0
 19 21  2  0
 21 23  1  0
 23 25  2  0
 25 16  1  0
 12 13  1  0
 12 14  1  0
 12 15  1  0
 17 18  1  0
 19 20  1  0
 21 22  1  0
 23 24  1  0
 25 26  1  0
M  CHG  1   8   1
M  END
>  <PDB_ID>  (1858) 
pdb3he0

>  <RESIDUE_NAME>  (1858) 
LYS   PHE

>  <FRAG_NAME>  (1858) 
ETAM   MBZ

>  <FRAG_ATOM_NUM>  (1858) 
fragi: 11  fragj: 15

>  <atom.prop.CHAIN_ID>  (1858) 
A A A A A A A A A A A Z Z Z Z Z Z Z Z Z Z Z Z Z Z Z

>  <atom.prop.IS_HEAVY_ATOM>  (1858) 
1 0 0 0 1 0 0 1 0 0 0 1 0 0 0 1 1 0 1 0 1 0 1 0 1 0

>  <DIFUSE_FUNC_ATOM>  (1858) 
n/a

>  <FINAL_SINGLE_POINT_ENERGY>  (1858) 
0

>  <NONCOV_INTER_ENERGY_QM>  (1858) 
0

>  <FF_Energy>  (1858) 
-3.54

>  <QM_Energy>  (1858) 
-8.78

>  <source>  (1858) 
ETAM_MBZ

>  <Index>  (1858) 
18956

$$$$
ETAM-pdb3hf3-B-LYS-107:MBZ-pdb3hf3-B-PHE-132
     RDKit          3D

 26 25  0  0  0  0  0  0  0  0999 V2000
   -1.6738   -0.1943   -3.6174 C   0  0  0  0  0  0  0  0  0  0  0  0
   -2.3415   -0.1887   -2.8749 H   0  0  0  0  0  0  0  0  0  0  0  0
   -2.1401   -0.3340   -4.4892 H   0  0  0  0  0  0  0  0  0  0  0  0
   -1.1543    0.7637   -3.6378 H   0  0  0  0  0  0  0  0  0  0  0  0
   -0.7189   -1.3571   -3.3943 C   0  0  0  0  0  0  0  0  0  0  0  0
   -0.0302   -1.3659   -4.1139 H   0  0  0  0  0  0  0  0  0  0  0  0
   -0.2799   -1.2629   -2.5040 H   0  0  0  0  0  0  0  0  0  0  0  0
   -1.4590   -2.6907   -3.4235 N   0  0  0  0  0  4  0  0  0  0  0  0
   -2.2351   -2.6314   -2.8064 H   0  0  0  0  0  0  0  0  0  0  0  0
   -1.7642   -2.8586   -4.3537 H   0  0  0  0  0  0  0  0  0  0  0  0
   -0.8326   -3.4029   -3.1282 H   0  0  0  0  0  0  0  0  0  0  0  0
   -0.0004    2.9020    0.0498 C   0  0  0  0  0  0  0  0  0  0  0  0
   -0.5005    3.2293   -0.7383 H   0  0  0  0  0  0  0  0  0  0  0  0
    0.9409    3.2073    0.0283 H   0  0  0  0  0  0  0  0  0  0  0  0
   -0.4684    3.3180    0.9420 H   0  0  0  0  0  0  0  0  0  0  0  0
    0.0006    1.3978    0.0046 C   0  0  0  0  0  0  0  0  0  0  0  0
   -1.1847    0.6935    0.0098 C   0  0  0  0  0  0  0  0  0  0  0  0
   -2.0573    1.1847    0.0194 H   0  0  0  0  0  0  0  0  0  0  0  0
   -1.1970   -0.6936    0.0000 C   0  0  0  0  0  0  0  0  0  0  0  0
   -2.0808   -1.1795    0.0266 H   0  0  0  0  0  0  0  0  0  0  0  0
   -0.0119   -1.3884   -0.0439 C   0  0  0  0  0  0  0  0  0  0  0  0
   -0.0116   -2.3858   -0.1075 H   0  0  0  0  0  0  0  0  0  0  0  0
    1.1970   -0.6964    0.0000 C   0  0  0  0  0  0  0  0  0  0  0  0
    2.0718   -1.2026    0.0117 H   0  0  0  0  0  0  0  0  0  0  0  0
    1.1959    0.6870    0.0295 C   0  0  0  0  0  0  0  0  0  0  0  0
    2.0629    1.1842    0.0685 H   0  0  0  0  0  0  0  0  0  0  0  0
  1  5  1  0
  5  8  1  0
  1  2  1  0
  1  3  1  0
  1  4  1  0
  5  6  1  0
  5  7  1  0
  8  9  1  0
  8 10  1  0
  8 11  1  0
 12 16  1  0
 16 17  2  0
 17 19  1  0
 19 21  2  0
 21 23  1  0
 23 25  2  0
 25 16  1  0
 12 13  1  0
 12 14  1  0
 12 15  1  0
 17 18  1  0
 19 20  1  0
 21 22  1  0
 23 24  1  0
 25 26  1  0
M  CHG  1   8   1
M  END
>  <PDB_ID>  (1859) 
pdb3hf3

>  <RESIDUE_NAME>  (1859) 
LYS   PHE

>  <FRAG_NAME>  (1859) 
ETAM   MBZ

>  <FRAG_ATOM_NUM>  (1859) 
fragi: 11  fragj: 15

>  <atom.prop.CHAIN_ID>  (1859) 
A A A A A A A A A A A Z Z Z Z Z Z Z Z Z Z Z Z Z Z Z

>  <atom.prop.IS_HEAVY_ATOM>  (1859) 
1 0 0 0 1 0 0 1 0 0 0 1 0 0 0 1 1 0 1 0 1 0 1 0 1 0

>  <DIFUSE_FUNC_ATOM>  (1859) 
n/a

>  <FINAL_SINGLE_POINT_ENERGY>  (1859) 
0

>  <NONCOV_INTER_ENERGY_QM>  (1859) 
0

>  <FF_Energy>  (1859) 
-2.61

>  <QM_Energy>  (1859) 
-8.34

>  <source>  (1859) 
ETAM_MBZ

>  <Index>  (1859) 
18969

$$$$
ETAM-pdb3hfr-A-LYS-172:MBZ-pdb3hfr-A-PHE-196
     RDKit          3D

 26 25  0  0  0  0  0  0  0  0999 V2000
    1.1502   -2.3769    3.6289 C   0  0  0  0  0  0  0  0  0  0  0  0
    1.1434   -2.6543    2.6771 H   0  0  0  0  0  0  0  0  0  0  0  0
    0.5162   -2.9233    4.1614 H   0  0  0  0  0  0  0  0  0  0  0  0
    2.1557   -2.5047    4.0296 H   0  0  0  0  0  0  0  0  0  0  0  0
    0.7245   -0.9208    3.7129 C   0  0  0  0  0  0  0  0  0  0  0  0
    0.7158   -0.6398    4.6777 H   0  0  0  0  0  0  0  0  0  0  0  0
    1.3949   -0.3569    3.2206 H   0  0  0  0  0  0  0  0  0  0  0  0
   -0.6228   -0.7001    3.1274 N   0  0  0  0  0  4  0  0  0  0  0  0
   -1.0626    0.0722    3.5859 H   0  0  0  0  0  0  0  0  0  0  0  0
   -0.5337   -0.5024    2.1514 H   0  0  0  0  0  0  0  0  0  0  0  0
   -1.1781   -1.5221    3.2518 H   0  0  0  0  0  0  0  0  0  0  0  0
   -0.0077    2.8995    0.0338 C   0  0  0  0  0  0  0  0  0  0  0  0
   -0.5942    3.2212   -0.6897 H   0  0  0  0  0  0  0  0  0  0  0  0
    0.9187    3.2147   -0.0751 H   0  0  0  0  0  0  0  0  0  0  0  0
   -0.3873    3.3003    0.9737 H   0  0  0  0  0  0  0  0  0  0  0  0
    0.0014    1.3968   -0.0038 C   0  0  0  0  0  0  0  0  0  0  0  0
   -1.1987    0.6866    0.0022 C   0  0  0  0  0  0  0  0  0  0  0  0
   -2.0636    1.1797    0.0069 H   0  0  0  0  0  0  0  0  0  0  0  0
   -1.2016   -0.7003   -0.0000 C   0  0  0  0  0  0  0  0  0  0  0  0
   -2.0747   -1.1973    0.0032 H   0  0  0  0  0  0  0  0  0  0  0  0
    0.0023   -1.3861   -0.0040 C   0  0  0  0  0  0  0  0  0  0  0  0
    0.0031   -2.3885   -0.0106 H   0  0  0  0  0  0  0  0  0  0  0  0
    1.2016   -0.6896    0.0000 C   0  0  0  0  0  0  0  0  0  0  0  0
    2.0825   -1.1902    0.0001 H   0  0  0  0  0  0  0  0  0  0  0  0
    1.1950    0.6925    0.0056 C   0  0  0  0  0  0  0  0  0  0  0  0
    2.0633    1.1930    0.0162 H   0  0  0  0  0  0  0  0  0  0  0  0
  1  5  1  0
  5  8  1  0
  1  2  1  0
  1  3  1  0
  1  4  1  0
  5  6  1  0
  5  7  1  0
  8  9  1  0
  8 10  1  0
  8 11  1  0
 12 16  1  0
 16 17  2  0
 17 19  1  0
 19 21  2  0
 21 23  1  0
 23 25  2  0
 25 16  1  0
 12 13  1  0
 12 14  1  0
 12 15  1  0
 17 18  1  0
 19 20  1  0
 21 22  1  0
 23 24  1  0
 25 26  1  0
M  CHG  1   8   1
M  END
>  <PDB_ID>  (1860) 
pdb3hfr

>  <RESIDUE_NAME>  (1860) 
LYS   PHE

>  <FRAG_NAME>  (1860) 
ETAM   MBZ

>  <FRAG_ATOM_NUM>  (1860) 
fragi: 11  fragj: 15

>  <atom.prop.CHAIN_ID>  (1860) 
A A A A A A A A A A A Z Z Z Z Z Z Z Z Z Z Z Z Z Z Z

>  <atom.prop.IS_HEAVY_ATOM>  (1860) 
1 0 0 0 1 0 0 1 0 0 0 1 0 0 0 1 1 0 1 0 1 0 1 0 1 0

>  <DIFUSE_FUNC_ATOM>  (1860) 
n/a

>  <FINAL_SINGLE_POINT_ENERGY>  (1860) 
0

>  <NONCOV_INTER_ENERGY_QM>  (1860) 
0

>  <FF_Energy>  (1860) 
-9.15

>  <QM_Energy>  (1860) 
-17.15

>  <source>  (1860) 
ETAM_MBZ

>  <Index>  (1860) 
18974

$$$$
ETAM-pdb3hei-C-LYS-172:MBZ-pdb3hei-C-PHE-68
     RDKit          3D

 26 25  0  0  0  0  0  0  0  0999 V2000
   -1.3467   -1.4358   -3.6200 C   0  0  0  0  0  0  0  0  0  0  0  0
   -1.3403   -2.0644   -2.8698 H   0  0  0  0  0  0  0  0  0  0  0  0
   -1.2612   -1.8753   -4.4895 H   0  0  0  0  0  0  0  0  0  0  0  0
   -2.2683   -0.8542   -3.5968 H   0  0  0  0  0  0  0  0  0  0  0  0
   -0.1762   -0.4631   -3.4495 C   0  0  0  0  0  0  0  0  0  0  0  0
   -0.1376    0.1317   -4.2152 H   0  0  0  0  0  0  0  0  0  0  0  0
   -0.2537   -0.0135   -2.5929 H   0  0  0  0  0  0  0  0  0  0  0  0
    1.0423   -1.3485   -3.4415 N   0  0  0  0  0  4  0  0  0  0  0  0
    0.7677   -2.2770   -3.6758 H   0  0  0  0  0  0  0  0  0  0  0  0
    1.6945   -1.0056   -4.1124 H   0  0  0  0  0  0  0  0  0  0  0  0
    1.4479   -1.3311   -2.5314 H   0  0  0  0  0  0  0  0  0  0  0  0
   -0.0179    2.8517    0.0209 C   0  0  0  0  0  0  0  0  0  0  0  0
   -0.7789    3.1949   -0.5051 H   0  0  0  0  0  0  0  0  0  0  0  0
    0.8425    3.2012   -0.3130 H   0  0  0  0  0  0  0  0  0  0  0  0
   -0.1395    3.2262    1.0374 H   0  0  0  0  0  0  0  0  0  0  0  0
   -0.0052    1.3970   -0.0341 C   0  0  0  0  0  0  0  0  0  0  0  0
   -1.2167    0.6792   -0.0152 C   0  0  0  0  0  0  0  0  0  0  0  0
   -2.0750    1.1772   -0.0137 H   0  0  0  0  0  0  0  0  0  0  0  0
   -1.2121   -0.6983    0.0000 C   0  0  0  0  0  0  0  0  0  0  0  0
   -2.0652   -1.2165   -0.0274 H   0  0  0  0  0  0  0  0  0  0  0  0
    0.0257   -1.3850    0.0572 C   0  0  0  0  0  0  0  0  0  0  0  0
    0.0017   -2.3904    0.1418 H   0  0  0  0  0  0  0  0  0  0  0  0
    1.2121   -0.7144   -0.0000 C   0  0  0  0  0  0  0  0  0  0  0  0
    2.0983   -1.1800   -0.0355 H   0  0  0  0  0  0  0  0  0  0  0  0
    1.1962    0.7215   -0.0079 C   0  0  0  0  0  0  0  0  0  0  0  0
    2.0611    1.2019    0.0055 H   0  0  0  0  0  0  0  0  0  0  0  0
  1  5  1  0
  5  8  1  0
  1  2  1  0
  1  3  1  0
  1  4  1  0
  5  6  1  0
  5  7  1  0
  8  9  1  0
  8 10  1  0
  8 11  1  0
 12 16  1  0
 16 17  2  0
 17 19  1  0
 19 21  2  0
 21 23  1  0
 23 25  2  0
 25 16  1  0
 12 13  1  0
 12 14  1  0
 12 15  1  0
 17 18  1  0
 19 20  1  0
 21 22  1  0
 23 24  1  0
 25 26  1  0
M  CHG  1   8   1
M  END
>  <PDB_ID>  (1861) 
pdb3hei

>  <RESIDUE_NAME>  (1861) 
LYS   PHE

>  <FRAG_NAME>  (1861) 
ETAM   MBZ

>  <FRAG_ATOM_NUM>  (1861) 
fragi: 11  fragj: 15

>  <atom.prop.CHAIN_ID>  (1861) 
A A A A A A A A A A A Z Z Z Z Z Z Z Z Z Z Z Z Z Z Z

>  <atom.prop.IS_HEAVY_ATOM>  (1861) 
1 0 0 0 1 0 0 1 0 0 0 1 0 0 0 1 1 0 1 0 1 0 1 0 1 0

>  <DIFUSE_FUNC_ATOM>  (1861) 
n/a

>  <FINAL_SINGLE_POINT_ENERGY>  (1861) 
0

>  <NONCOV_INTER_ENERGY_QM>  (1861) 
0

>  <FF_Energy>  (1861) 
-6.72

>  <QM_Energy>  (1861) 
-14.63

>  <source>  (1861) 
ETAM_MBZ

>  <Index>  (1861) 
18975

$$$$
ETAM-pdb3hei-E-LYS-172:MBZ-pdb3hei-E-PHE-68
     RDKit          3D

 26 25  0  0  0  0  0  0  0  0999 V2000
   -2.0988   -2.1397   -3.1974 C   0  0  0  0  0  0  0  0  0  0  0  0
   -2.0331   -2.2617   -2.1976 H   0  0  0  0  0  0  0  0  0  0  0  0
   -2.3214   -3.0339   -3.6073 H   0  0  0  0  0  0  0  0  0  0  0  0
   -2.9116   -1.4456   -3.4111 H   0  0  0  0  0  0  0  0  0  0  0  0
   -0.6766   -1.7303   -3.7135 C   0  0  0  0  0  0  0  0  0  0  0  0
   -0.0197   -2.4191   -3.3667 H   0  0  0  0  0  0  0  0  0  0  0  0
   -0.6878   -1.8046   -4.7236 H   0  0  0  0  0  0  0  0  0  0  0  0
   -0.2355   -0.3715   -3.3160 N   0  0  0  0  0  4  0  0  0  0  0  0
   -0.7869    0.3119   -3.7946 H   0  0  0  0  0  0  0  0  0  0  0  0
   -0.3491   -0.2585   -2.3281 H   0  0  0  0  0  0  0  0  0  0  0  0
    0.7282   -0.2494   -3.5566 H   0  0  0  0  0  0  0  0  0  0  0  0
   -0.0384    2.9179    0.0854 C   0  0  0  0  0  0  0  0  0  0  0  0
   -0.8250    3.2515   -0.3977 H   0  0  0  0  0  0  0  0  0  0  0  0
    0.8023    3.2810   -0.2684 H   0  0  0  0  0  0  0  0  0  0  0  0
   -0.1260    3.2443    1.1217 H   0  0  0  0  0  0  0  0  0  0  0  0
   -0.0027    1.4332   -0.0292 C   0  0  0  0  0  0  0  0  0  0  0  0
   -1.1901    0.7109    0.0076 C   0  0  0  0  0  0  0  0  0  0  0  0
   -2.0711    1.1794    0.0399 H   0  0  0  0  0  0  0  0  0  0  0  0
   -1.2248   -0.7459    0.0000 C   0  0  0  0  0  0  0  0  0  0  0  0
   -2.1026   -1.1964    0.0012 H   0  0  0  0  0  0  0  0  0  0  0  0
   -0.0171   -1.4488   -0.0066 C   0  0  0  0  0  0  0  0  0  0  0  0
    0.0128   -2.4269   -0.0165 H   0  0  0  0  0  0  0  0  0  0  0  0
    1.2248   -0.6977   -0.0000 C   0  0  0  0  0  0  0  0  0  0  0  0
    2.0977   -1.1793   -0.0134 H   0  0  0  0  0  0  0  0  0  0  0  0
    1.2099    0.7482    0.0283 C   0  0  0  0  0  0  0  0  0  0  0  0
    2.0684    1.2271    0.0876 H   0  0  0  0  0  0  0  0  0  0  0  0
  1  5  1  0
  5  8  1  0
  1  2  1  0
  1  3  1  0
  1  4  1  0
  5  6  1  0
  5  7  1  0
  8  9  1  0
  8 10  1  0
  8 11  1  0
 12 16  1  0
 16 17  2  0
 17 19  1  0
 19 21  2  0
 21 23  1  0
 23 25  2  0
 25 16  1  0
 12 13  1  0
 12 14  1  0
 12 15  1  0
 17 18  1  0
 19 20  1  0
 21 22  1  0
 23 24  1  0
 25 26  1  0
M  CHG  1   8   1
M  END
>  <PDB_ID>  (1862) 
pdb3hei

>  <RESIDUE_NAME>  (1862) 
LYS   PHE

>  <FRAG_NAME>  (1862) 
ETAM   MBZ

>  <FRAG_ATOM_NUM>  (1862) 
fragi: 11  fragj: 15

>  <atom.prop.CHAIN_ID>  (1862) 
A A A A A A A A A A A Z Z Z Z Z Z Z Z Z Z Z Z Z Z Z

>  <atom.prop.IS_HEAVY_ATOM>  (1862) 
1 0 0 0 1 0 0 1 0 0 0 1 0 0 0 1 1 0 1 0 1 0 1 0 1 0

>  <DIFUSE_FUNC_ATOM>  (1862) 
n/a

>  <FINAL_SINGLE_POINT_ENERGY>  (1862) 
0

>  <NONCOV_INTER_ENERGY_QM>  (1862) 
0

>  <FF_Energy>  (1862) 
-9.32

>  <QM_Energy>  (1862) 
-17.58

>  <source>  (1862) 
ETAM_MBZ

>  <Index>  (1862) 
18977

$$$$
ETAM-pdb3hei-G-LYS-172:MBZ-pdb3hei-G-PHE-68
     RDKit          3D

 26 25  0  0  0  0  0  0  0  0999 V2000
   -1.1217   -1.4594   -3.7394 C   0  0  0  0  0  0  0  0  0  0  0  0
   -1.0637   -1.9788   -2.9238 H   0  0  0  0  0  0  0  0  0  0  0  0
   -1.1147   -1.9799   -4.5564 H   0  0  0  0  0  0  0  0  0  0  0  0
   -1.9932   -0.8052   -3.7120 H   0  0  0  0  0  0  0  0  0  0  0  0
    0.1627   -0.5154   -3.7811 C   0  0  0  0  0  0  0  0  0  0  0  0
    0.2392   -0.1674   -4.6898 H   0  0  0  0  0  0  0  0  0  0  0  0
    0.0351    0.1799   -3.1074 H   0  0  0  0  0  0  0  0  0  0  0  0
    1.3413   -1.3667   -3.4421 N   0  0  0  0  0  4  0  0  0  0  0  0
    1.0581   -2.3240   -3.4122 H   0  0  0  0  0  0  0  0  0  0  0  0
    2.0464   -1.2457   -4.1397 H   0  0  0  0  0  0  0  0  0  0  0  0
    1.7000   -1.0933   -2.5507 H   0  0  0  0  0  0  0  0  0  0  0  0
   -0.0006    2.8971    0.0676 C   0  0  0  0  0  0  0  0  0  0  0  0
   -0.7367    3.2479   -0.4749 H   0  0  0  0  0  0  0  0  0  0  0  0
    0.8752    3.2327   -0.2131 H   0  0  0  0  0  0  0  0  0  0  0  0
   -0.1630    3.2463    1.0873 H   0  0  0  0  0  0  0  0  0  0  0  0
   -0.0011    1.4127   -0.0141 C   0  0  0  0  0  0  0  0  0  0  0  0
   -1.2084    0.7275    0.0070 C   0  0  0  0  0  0  0  0  0  0  0  0
   -2.0664    1.2098    0.0261 H   0  0  0  0  0  0  0  0  0  0  0  0
   -1.2097   -0.6835    0.0000 C   0  0  0  0  0  0  0  0  0  0  0  0
   -2.0913   -1.1722   -0.0031 H   0  0  0  0  0  0  0  0  0  0  0  0
   -0.0005   -1.4179   -0.0006 C   0  0  0  0  0  0  0  0  0  0  0  0
   -0.0308   -2.4074   -0.0023 H   0  0  0  0  0  0  0  0  0  0  0  0
    1.2097   -0.7321   -0.0000 C   0  0  0  0  0  0  0  0  0  0  0  0
    2.0875   -1.2184   -0.0037 H   0  0  0  0  0  0  0  0  0  0  0  0
    1.2100    0.6932    0.0077 C   0  0  0  0  0  0  0  0  0  0  0  0
    2.0749    1.1762    0.0281 H   0  0  0  0  0  0  0  0  0  0  0  0
  1  5  1  0
  5  8  1  0
  1  2  1  0
  1  3  1  0
  1  4  1  0
  5  6  1  0
  5  7  1  0
  8  9  1  0
  8 10  1  0
  8 11  1  0
 12 16  1  0
 16 17  2  0
 17 19  1  0
 19 21  2  0
 21 23  1  0
 23 25  2  0
 25 16  1  0
 12 13  1  0
 12 14  1  0
 12 15  1  0
 17 18  1  0
 19 20  1  0
 21 22  1  0
 23 24  1  0
 25 26  1  0
M  CHG  1   8   1
M  END
>  <PDB_ID>  (1863) 
pdb3hei

>  <RESIDUE_NAME>  (1863) 
LYS   PHE

>  <FRAG_NAME>  (1863) 
ETAM   MBZ

>  <FRAG_ATOM_NUM>  (1863) 
fragi: 11  fragj: 15

>  <atom.prop.CHAIN_ID>  (1863) 
A A A A A A A A A A A Z Z Z Z Z Z Z Z Z Z Z Z Z Z Z

>  <atom.prop.IS_HEAVY_ATOM>  (1863) 
1 0 0 0 1 0 0 1 0 0 0 1 0 0 0 1 1 0 1 0 1 0 1 0 1 0

>  <DIFUSE_FUNC_ATOM>  (1863) 
n/a

>  <FINAL_SINGLE_POINT_ENERGY>  (1863) 
0

>  <NONCOV_INTER_ENERGY_QM>  (1863) 
0

>  <FF_Energy>  (1863) 
-6.42

>  <QM_Energy>  (1863) 
-13.54

>  <source>  (1863) 
ETAM_MBZ

>  <Index>  (1863) 
18980

$$$$
ETAM-pdb3hei-I-LYS-172:MBZ-pdb3hei-I-PHE-68
     RDKit          3D

 26 25  0  0  0  0  0  0  0  0999 V2000
   -1.0649   -1.8200   -3.5416 C   0  0  0  0  0  0  0  0  0  0  0  0
   -1.0763   -1.9646   -2.5698 H   0  0  0  0  0  0  0  0  0  0  0  0
   -1.0139   -2.6625   -4.0451 H   0  0  0  0  0  0  0  0  0  0  0  0
   -1.9682   -1.2840   -3.8329 H   0  0  0  0  0  0  0  0  0  0  0  0
    0.1886   -0.9708   -3.8898 C   0  0  0  0  0  0  0  0  0  0  0  0
    0.2888   -0.9573   -4.8896 H   0  0  0  0  0  0  0  0  0  0  0  0
    0.0283   -0.0317   -3.5710 H   0  0  0  0  0  0  0  0  0  0  0  0
    1.4468   -1.4964   -3.2716 N   0  0  0  0  0  4  0  0  0  0  0  0
    1.2238   -1.9509   -2.4119 H   0  0  0  0  0  0  0  0  0  0  0  0
    1.8718   -2.1475   -3.8978 H   0  0  0  0  0  0  0  0  0  0  0  0
    2.0695   -0.7360   -3.1001 H   0  0  0  0  0  0  0  0  0  0  0  0
   -0.0036    2.9048    0.0125 C   0  0  0  0  0  0  0  0  0  0  0  0
   -0.6420    3.2278   -0.6658 H   0  0  0  0  0  0  0  0  0  0  0  0
    0.9119    3.2266   -0.1642 H   0  0  0  0  0  0  0  0  0  0  0  0
   -0.3139    3.3118    0.9748 H   0  0  0  0  0  0  0  0  0  0  0  0
    0.0031    1.4209   -0.0100 C   0  0  0  0  0  0  0  0  0  0  0  0
   -1.1961    0.7047   -0.0132 C   0  0  0  0  0  0  0  0  0  0  0  0
   -2.0671    1.1827   -0.0258 H   0  0  0  0  0  0  0  0  0  0  0  0
   -1.2149   -0.7264   -0.0000 C   0  0  0  0  0  0  0  0  0  0  0  0
   -2.0939   -1.1933   -0.0003 H   0  0  0  0  0  0  0  0  0  0  0  0
   -0.0143   -1.4187    0.0140 C   0  0  0  0  0  0  0  0  0  0  0  0
   -0.0006   -2.4128    0.0337 H   0  0  0  0  0  0  0  0  0  0  0  0
    1.2149   -0.7053    0.0000 C   0  0  0  0  0  0  0  0  0  0  0  0
    2.0867   -1.1932   -0.0148 H   0  0  0  0  0  0  0  0  0  0  0  0
    1.2073    0.7247    0.0092 C   0  0  0  0  0  0  0  0  0  0  0  0
    2.0722    1.2060    0.0285 H   0  0  0  0  0  0  0  0  0  0  0  0
  1  5  1  0
  5  8  1  0
  1  2  1  0
  1  3  1  0
  1  4  1  0
  5  6  1  0
  5  7  1  0
  8  9  1  0
  8 10  1  0
  8 11  1  0
 12 16  1  0
 16 17  2  0
 17 19  1  0
 19 21  2  0
 21 23  1  0
 23 25  2  0
 25 16  1  0
 12 13  1  0
 12 14  1  0
 12 15  1  0
 17 18  1  0
 19 20  1  0
 21 22  1  0
 23 24  1  0
 25 26  1  0
M  CHG  1   8   1
M  END
>  <PDB_ID>  (1864) 
pdb3hei

>  <RESIDUE_NAME>  (1864) 
LYS   PHE

>  <FRAG_NAME>  (1864) 
ETAM   MBZ

>  <FRAG_ATOM_NUM>  (1864) 
fragi: 11  fragj: 15

>  <atom.prop.CHAIN_ID>  (1864) 
A A A A A A A A A A A Z Z Z Z Z Z Z Z Z Z Z Z Z Z Z

>  <atom.prop.IS_HEAVY_ATOM>  (1864) 
1 0 0 0 1 0 0 1 0 0 0 1 0 0 0 1 1 0 1 0 1 0 1 0 1 0

>  <DIFUSE_FUNC_ATOM>  (1864) 
n/a

>  <FINAL_SINGLE_POINT_ENERGY>  (1864) 
0

>  <NONCOV_INTER_ENERGY_QM>  (1864) 
0

>  <FF_Energy>  (1864) 
-5.6

>  <QM_Energy>  (1864) 
-12.43

>  <source>  (1864) 
ETAM_MBZ

>  <Index>  (1864) 
18981

$$$$
ETAM-pdb3hei-K-LYS-172:MBZ-pdb3hei-K-PHE-68
     RDKit          3D

 26 25  0  0  0  0  0  0  0  0999 V2000
   -1.0332   -1.5016   -3.5660 C   0  0  0  0  0  0  0  0  0  0  0  0
   -1.0731   -2.0191   -2.7358 H   0  0  0  0  0  0  0  0  0  0  0  0
   -0.9265   -2.0626   -4.3609 H   0  0  0  0  0  0  0  0  0  0  0  0
   -1.9315   -0.8918   -3.6629 H   0  0  0  0  0  0  0  0  0  0  0  0
    0.2192   -0.5607   -3.4781 C   0  0  0  0  0  0  0  0  0  0  0  0
    0.2929   -0.0507   -4.3081 H   0  0  0  0  0  0  0  0  0  0  0  0
    0.1397    0.0024   -2.6833 H   0  0  0  0  0  0  0  0  0  0  0  0
    1.4901   -1.4469   -3.3299 N   0  0  0  0  0  4  0  0  0  0  0  0
    1.7690   -1.4117   -2.3821 H   0  0  0  0  0  0  0  0  0  0  0  0
    1.2444   -2.3659   -3.5990 H   0  0  0  0  0  0  0  0  0  0  0  0
    2.1862   -1.0715   -3.9237 H   0  0  0  0  0  0  0  0  0  0  0  0
    0.0334    2.9267    0.0311 C   0  0  0  0  0  0  0  0  0  0  0  0
   -0.6997    3.2644   -0.5190 H   0  0  0  0  0  0  0  0  0  0  0  0
    0.9130    3.2341   -0.2627 H   0  0  0  0  0  0  0  0  0  0  0  0
   -0.1178    3.3328    1.0313 H   0  0  0  0  0  0  0  0  0  0  0  0
    0.0100    1.4110    0.0032 C   0  0  0  0  0  0  0  0  0  0  0  0
   -1.1800    0.7146    0.0009 C   0  0  0  0  0  0  0  0  0  0  0  0
   -2.0531    1.1880   -0.0013 H   0  0  0  0  0  0  0  0  0  0  0  0
   -1.2017   -0.7204    0.0000 C   0  0  0  0  0  0  0  0  0  0  0  0
   -2.0867   -1.1810   -0.0090 H   0  0  0  0  0  0  0  0  0  0  0  0
   -0.0104   -1.4225    0.0132 C   0  0  0  0  0  0  0  0  0  0  0  0
    0.0060   -2.4071    0.0309 H   0  0  0  0  0  0  0  0  0  0  0  0
    1.2017   -0.6916    0.0000 C   0  0  0  0  0  0  0  0  0  0  0  0
    2.0823   -1.1818    0.0047 H   0  0  0  0  0  0  0  0  0  0  0  0
    1.1805    0.7088   -0.0172 C   0  0  0  0  0  0  0  0  0  0  0  0
    2.0635    1.1982   -0.0468 H   0  0  0  0  0  0  0  0  0  0  0  0
  1  5  1  0
  5  8  1  0
  1  2  1  0
  1  3  1  0
  1  4  1  0
  5  6  1  0
  5  7  1  0
  8  9  1  0
  8 10  1  0
  8 11  1  0
 12 16  1  0
 16 17  2  0
 17 19  1  0
 19 21  2  0
 21 23  1  0
 23 25  2  0
 25 16  1  0
 12 13  1  0
 12 14  1  0
 12 15  1  0
 17 18  1  0
 19 20  1  0
 21 22  1  0
 23 24  1  0
 25 26  1  0
M  CHG  1   8   1
M  END
>  <PDB_ID>  (1865) 
pdb3hei

>  <RESIDUE_NAME>  (1865) 
LYS   PHE

>  <FRAG_NAME>  (1865) 
ETAM   MBZ

>  <FRAG_ATOM_NUM>  (1865) 
fragi: 11  fragj: 15

>  <atom.prop.CHAIN_ID>  (1865) 
A A A A A A A A A A A Z Z Z Z Z Z Z Z Z Z Z Z Z Z Z

>  <atom.prop.IS_HEAVY_ATOM>  (1865) 
1 0 0 0 1 0 0 1 0 0 0 1 0 0 0 1 1 0 1 0 1 0 1 0 1 0

>  <DIFUSE_FUNC_ATOM>  (1865) 
n/a

>  <FINAL_SINGLE_POINT_ENERGY>  (1865) 
0

>  <NONCOV_INTER_ENERGY_QM>  (1865) 
0

>  <FF_Energy>  (1865) 
-6.12

>  <QM_Energy>  (1865) 
-13.86

>  <source>  (1865) 
ETAM_MBZ

>  <Index>  (1865) 
18982

$$$$
ETAM-pdb3hei-M-LYS-172:MBZ-pdb3hei-M-PHE-68
     RDKit          3D

 26 25  0  0  0  0  0  0  0  0999 V2000
   -1.3379   -1.4922   -2.9820 C   0  0  0  0  0  0  0  0  0  0  0  0
   -1.2768   -1.0273   -2.0813 H   0  0  0  0  0  0  0  0  0  0  0  0
   -1.6866   -2.4305   -2.8105 H   0  0  0  0  0  0  0  0  0  0  0  0
   -2.0413   -0.9550   -3.6182 H   0  0  0  0  0  0  0  0  0  0  0  0
    0.0827   -1.6232   -3.5292 C   0  0  0  0  0  0  0  0  0  0  0  0
    0.5568   -2.3417   -2.9713 H   0  0  0  0  0  0  0  0  0  0  0  0
    0.0087   -2.0167   -4.4743 H   0  0  0  0  0  0  0  0  0  0  0  0
    0.8391   -0.4232   -3.5462 N   0  0  0  0  0  4  0  0  0  0  0  0
    0.2674    0.3665   -3.8180 H   0  0  0  0  0  0  0  0  0  0  0  0
    1.2267   -0.2214   -2.6334 H   0  0  0  0  0  0  0  0  0  0  0  0
    1.6093   -0.4846   -4.2002 H   0  0  0  0  0  0  0  0  0  0  0  0
   -0.0326    2.9180    0.0452 C   0  0  0  0  0  0  0  0  0  0  0  0
   -0.7472    3.2423   -0.5387 H   0  0  0  0  0  0  0  0  0  0  0  0
    0.8528    3.2474   -0.2120 H   0  0  0  0  0  0  0  0  0  0  0  0
   -0.2386    3.2908    1.0485 H   0  0  0  0  0  0  0  0  0  0  0  0
   -0.0163    1.4070   -0.0135 C   0  0  0  0  0  0  0  0  0  0  0  0
   -1.2010    0.7018   -0.0019 C   0  0  0  0  0  0  0  0  0  0  0  0
   -2.0750    1.1723    0.0036 H   0  0  0  0  0  0  0  0  0  0  0  0
   -1.1995   -0.7143    0.0000 C   0  0  0  0  0  0  0  0  0  0  0  0
   -2.0585   -1.2098    0.0082 H   0  0  0  0  0  0  0  0  0  0  0  0
    0.0339   -1.3945   -0.0082 C   0  0  0  0  0  0  0  0  0  0  0  0
    0.0223   -2.3986   -0.0206 H   0  0  0  0  0  0  0  0  0  0  0  0
    1.1995   -0.6998   -0.0000 C   0  0  0  0  0  0  0  0  0  0  0  0
    2.0996   -1.1745   -0.0096 H   0  0  0  0  0  0  0  0  0  0  0  0
    1.1833    0.6998    0.0236 C   0  0  0  0  0  0  0  0  0  0  0  0
    2.0497    1.1981    0.0669 H   0  0  0  0  0  0  0  0  0  0  0  0
  1  5  1  0
  5  8  1  0
  1  2  1  0
  1  3  1  0
  1  4  1  0
  5  6  1  0
  5  7  1  0
  8  9  1  0
  8 10  1  0
  8 11  1  0
 12 16  1  0
 16 17  2  0
 17 19  1  0
 19 21  2  0
 21 23  1  0
 23 25  2  0
 25 16  1  0
 12 13  1  0
 12 14  1  0
 12 15  1  0
 17 18  1  0
 19 20  1  0
 21 22  1  0
 23 24  1  0
 25 26  1  0
M  CHG  1   8   1
M  END
>  <PDB_ID>  (1866) 
pdb3hei

>  <RESIDUE_NAME>  (1866) 
LYS   PHE

>  <FRAG_NAME>  (1866) 
ETAM   MBZ

>  <FRAG_ATOM_NUM>  (1866) 
fragi: 11  fragj: 15

>  <atom.prop.CHAIN_ID>  (1866) 
A A A A A A A A A A A Z Z Z Z Z Z Z Z Z Z Z Z Z Z Z

>  <atom.prop.IS_HEAVY_ATOM>  (1866) 
1 0 0 0 1 0 0 1 0 0 0 1 0 0 0 1 1 0 1 0 1 0 1 0 1 0

>  <DIFUSE_FUNC_ATOM>  (1866) 
n/a

>  <FINAL_SINGLE_POINT_ENERGY>  (1866) 
0

>  <NONCOV_INTER_ENERGY_QM>  (1866) 
0

>  <FF_Energy>  (1866) 
3.54

>  <QM_Energy>  (1866) 
-10.39

>  <source>  (1866) 
ETAM_MBZ

>  <Index>  (1866) 
18983

$$$$
ETAM-pdb3he2-A-LYS-156:MBZ-pdb3he2-A-PHE-118
     RDKit          3D

 26 25  0  0  0  0  0  0  0  0999 V2000
   -1.3314   -0.3878   -3.8781 C   0  0  0  0  0  0  0  0  0  0  0  0
   -1.3283   -0.2587   -4.8633 H   0  0  0  0  0  0  0  0  0  0  0  0
   -0.5626    0.0822   -3.4615 H   0  0  0  0  0  0  0  0  0  0  0  0
   -2.2492    0.0480   -3.4834 H   0  0  0  0  0  0  0  0  0  0  0  0
   -1.2332   -1.8715   -3.5702 C   0  0  0  0  0  0  0  0  0  0  0  0
   -1.7239   -2.0601   -2.7058 H   0  0  0  0  0  0  0  0  0  0  0  0
   -1.6988   -2.3906   -4.3044 H   0  0  0  0  0  0  0  0  0  0  0  0
    0.1718   -2.3751   -3.4443 N   0  0  0  0  0  4  0  0  0  0  0  0
    0.6909   -2.1009   -4.2521 H   0  0  0  0  0  0  0  0  0  0  0  0
    0.5871   -1.9836   -2.6262 H   0  0  0  0  0  0  0  0  0  0  0  0
    0.1570   -3.3710   -3.3734 H   0  0  0  0  0  0  0  0  0  0  0  0
    0.0011    2.9243   -0.0034 C   0  0  0  0  0  0  0  0  0  0  0  0
   -0.7051    3.2161   -0.6277 H   0  0  0  0  0  0  0  0  0  0  0  0
    0.8947    3.2209   -0.3014 H   0  0  0  0  0  0  0  0  0  0  0  0
   -0.1972    3.3922    0.9608 H   0  0  0  0  0  0  0  0  0  0  0  0
    0.0020    1.3946    0.0155 C   0  0  0  0  0  0  0  0  0  0  0  0
   -1.1750    0.6888   -0.0018 C   0  0  0  0  0  0  0  0  0  0  0  0
   -2.0511    1.1826   -0.0178 H   0  0  0  0  0  0  0  0  0  0  0  0
   -1.1880   -0.6886   -0.0000 C   0  0  0  0  0  0  0  0  0  0  0  0
   -2.0791   -1.1735    0.0002 H   0  0  0  0  0  0  0  0  0  0  0  0
   -0.0168   -1.3852    0.0037 C   0  0  0  0  0  0  0  0  0  0  0  0
   -0.0179   -2.3861    0.0081 H   0  0  0  0  0  0  0  0  0  0  0  0
    1.1880   -0.6971    0.0000 C   0  0  0  0  0  0  0  0  0  0  0  0
    2.0659   -1.2020    0.0113 H   0  0  0  0  0  0  0  0  0  0  0  0
    1.1898    0.6876   -0.0173 C   0  0  0  0  0  0  0  0  0  0  0  0
    2.0608    1.1809   -0.0546 H   0  0  0  0  0  0  0  0  0  0  0  0
  1  5  1  0
  5  8  1  0
  1  2  1  0
  1  3  1  0
  1  4  1  0
  5  6  1  0
  5  7  1  0
  8  9  1  0
  8 10  1  0
  8 11  1  0
 12 16  1  0
 16 17  2  0
 17 19  1  0
 19 21  2  0
 21 23  1  0
 23 25  2  0
 25 16  1  0
 12 13  1  0
 12 14  1  0
 12 15  1  0
 17 18  1  0
 19 20  1  0
 21 22  1  0
 23 24  1  0
 25 26  1  0
M  CHG  1   8   1
M  END
>  <PDB_ID>  (1867) 
pdb3he2

>  <RESIDUE_NAME>  (1867) 
LYS   PHE

>  <FRAG_NAME>  (1867) 
ETAM   MBZ

>  <FRAG_ATOM_NUM>  (1867) 
fragi: 11  fragj: 15

>  <atom.prop.CHAIN_ID>  (1867) 
A A A A A A A A A A A Z Z Z Z Z Z Z Z Z Z Z Z Z Z Z

>  <atom.prop.IS_HEAVY_ATOM>  (1867) 
1 0 0 0 1 0 0 1 0 0 0 1 0 0 0 1 1 0 1 0 1 0 1 0 1 0

>  <DIFUSE_FUNC_ATOM>  (1867) 
n/a

>  <FINAL_SINGLE_POINT_ENERGY>  (1867) 
0

>  <NONCOV_INTER_ENERGY_QM>  (1867) 
0

>  <FF_Energy>  (1867) 
-5.07

>  <QM_Energy>  (1867) 
-11.36

>  <source>  (1867) 
ETAM_MBZ

>  <Index>  (1867) 
18988

$$$$
ETAM-pdb4eae-A-LYS-131:MBZ-pdb4eae-A-PHE-143
     RDKit          3D

 26 25  0  0  0  0  0  0  0  0999 V2000
   -4.6895    2.6004    1.5382 C   0  0  0  0  0  0  0  0  0  0  0  0
   -3.9034    2.3974    2.1184 H   0  0  0  0  0  0  0  0  0  0  0  0
   -5.5295    2.3146    1.9953 H   0  0  0  0  0  0  0  0  0  0  0  0
   -4.7311    3.6765    1.3691 H   0  0  0  0  0  0  0  0  0  0  0  0
   -4.5521    1.8245    0.2454 C   0  0  0  0  0  0  0  0  0  0  0  0
   -5.2727    2.1065   -0.3855 H   0  0  0  0  0  0  0  0  0  0  0  0
   -3.6587    2.0149   -0.1591 H   0  0  0  0  0  0  0  0  0  0  0  0
   -4.6708    0.3592    0.4987 N   0  0  0  0  0  4  0  0  0  0  0  0
   -5.0095    0.2113    1.4266 H   0  0  0  0  0  0  0  0  0  0  0  0
   -5.3084   -0.0393   -0.1599 H   0  0  0  0  0  0  0  0  0  0  0  0
   -3.7729   -0.0670    0.3976 H   0  0  0  0  0  0  0  0  0  0  0  0
    0.0064    2.9123    0.0394 C   0  0  0  0  0  0  0  0  0  0  0  0
    0.7283    3.1950    0.6631 H   0  0  0  0  0  0  0  0  0  0  0  0
   -0.8802    3.2097    0.3807 H   0  0  0  0  0  0  0  0  0  0  0  0
    0.1778    3.4190   -0.9103 H   0  0  0  0  0  0  0  0  0  0  0  0
    0.0020    1.4051   -0.0132 C   0  0  0  0  0  0  0  0  0  0  0  0
   -1.1890    0.6996    0.0053 C   0  0  0  0  0  0  0  0  0  0  0  0
   -2.0591    1.1823    0.0211 H   0  0  0  0  0  0  0  0  0  0  0  0
   -1.1936   -0.7015    0.0000 C   0  0  0  0  0  0  0  0  0  0  0  0
   -2.0755   -1.1870   -0.0032 H   0  0  0  0  0  0  0  0  0  0  0  0
   -0.0012   -1.3949    0.0007 C   0  0  0  0  0  0  0  0  0  0  0  0
   -0.0034   -2.3943    0.0017 H   0  0  0  0  0  0  0  0  0  0  0  0
    1.1936   -0.6994   -0.0000 C   0  0  0  0  0  0  0  0  0  0  0  0
    2.0779   -1.1947   -0.0043 H   0  0  0  0  0  0  0  0  0  0  0  0
    1.1882    0.6911    0.0072 C   0  0  0  0  0  0  0  0  0  0  0  0
    2.0629    1.1841    0.0265 H   0  0  0  0  0  0  0  0  0  0  0  0
  1  5  1  0
  5  8  1  0
  1  2  1  0
  1  3  1  0
  1  4  1  0
  5  6  1  0
  5  7  1  0
  8  9  1  0
  8 10  1  0
  8 11  1  0
 12 16  1  0
 16 17  2  0
 17 19  1  0
 19 21  2  0
 21 23  1  0
 23 25  2  0
 25 16  1  0
 12 13  1  0
 12 14  1  0
 12 15  1  0
 17 18  1  0
 19 20  1  0
 21 22  1  0
 23 24  1  0
 25 26  1  0
M  CHG  1   8   1
M  END
>  <PDB_ID>  (1868) 
pdb4eae

>  <RESIDUE_NAME>  (1868) 
LYS   PHE

>  <FRAG_NAME>  (1868) 
ETAM   MBZ

>  <FRAG_ATOM_NUM>  (1868) 
fragi: 11  fragj: 15

>  <atom.prop.CHAIN_ID>  (1868) 
A A A A A A A A A A A Z Z Z Z Z Z Z Z Z Z Z Z Z Z Z

>  <atom.prop.IS_HEAVY_ATOM>  (1868) 
1 0 0 0 1 0 0 1 0 0 0 1 0 0 0 1 1 0 1 0 1 0 1 0 1 0

>  <DIFUSE_FUNC_ATOM>  (1868) 
n/a

>  <FINAL_SINGLE_POINT_ENERGY>  (1868) 
0

>  <NONCOV_INTER_ENERGY_QM>  (1868) 
0

>  <FF_Energy>  (1868) 
4.5

>  <QM_Energy>  (1868) 
-3.16

>  <source>  (1868) 
ETAM_MBZ

>  <Index>  (1868) 
19001

$$$$
ETAM-pdb3hei-A-LYS-172:MBZ-pdb3hei-A-PHE-68
     RDKit          3D

 26 25  0  0  0  0  0  0  0  0999 V2000
   -1.7046   -1.6533   -3.3461 C   0  0  0  0  0  0  0  0  0  0  0  0
   -1.4583   -2.0208   -2.4675 H   0  0  0  0  0  0  0  0  0  0  0  0
   -1.8075   -2.3563   -4.0269 H   0  0  0  0  0  0  0  0  0  0  0  0
   -2.6456   -1.1116   -3.2510 H   0  0  0  0  0  0  0  0  0  0  0  0
   -0.5935   -0.6904   -3.8017 C   0  0  0  0  0  0  0  0  0  0  0  0
   -0.5516   -0.7079   -4.8173 H   0  0  0  0  0  0  0  0  0  0  0  0
   -0.8591    0.2544   -3.5355 H   0  0  0  0  0  0  0  0  0  0  0  0
    0.7806   -0.9741   -3.2589 N   0  0  0  0  0  4  0  0  0  0  0  0
    0.9137   -0.4459   -2.4242 H   0  0  0  0  0  0  0  0  0  0  0  0
    0.8557   -1.9489   -3.0614 H   0  0  0  0  0  0  0  0  0  0  0  0
    1.4587   -0.7107   -3.9410 H   0  0  0  0  0  0  0  0  0  0  0  0
   -0.0330    2.9272    0.0165 C   0  0  0  0  0  0  0  0  0  0  0  0
   -0.8212    3.2439   -0.4703 H   0  0  0  0  0  0  0  0  0  0  0  0
    0.8077    3.2643   -0.3571 H   0  0  0  0  0  0  0  0  0  0  0  0
   -0.1082    3.2997    1.0380 H   0  0  0  0  0  0  0  0  0  0  0  0
   -0.0107    1.4281   -0.0334 C   0  0  0  0  0  0  0  0  0  0  0  0
   -1.2028    0.7105   -0.0077 C   0  0  0  0  0  0  0  0  0  0  0  0
   -2.0791    1.1780    0.0052 H   0  0  0  0  0  0  0  0  0  0  0  0
   -1.2190   -0.7345   -0.0000 C   0  0  0  0  0  0  0  0  0  0  0  0
   -2.0883   -1.2041   -0.0040 H   0  0  0  0  0  0  0  0  0  0  0  0
    0.0023   -1.4311    0.0153 C   0  0  0  0  0  0  0  0  0  0  0  0
    0.0148   -2.4180    0.0363 H   0  0  0  0  0  0  0  0  0  0  0  0
    1.2190   -0.7022   -0.0000 C   0  0  0  0  0  0  0  0  0  0  0  0
    2.1006   -1.1841   -0.0281 H   0  0  0  0  0  0  0  0  0  0  0  0
    1.2112    0.7292    0.0258 C   0  0  0  0  0  0  0  0  0  0  0  0
    2.0652    1.2155    0.0844 H   0  0  0  0  0  0  0  0  0  0  0  0
  1  5  1  0
  5  8  1  0
  1  2  1  0
  1  3  1  0
  1  4  1  0
  5  6  1  0
  5  7  1  0
  8  9  1  0
  8 10  1  0
  8 11  1  0
 12 16  1  0
 16 17  2  0
 17 19  1  0
 19 21  2  0
 21 23  1  0
 23 25  2  0
 25 16  1  0
 12 13  1  0
 12 14  1  0
 12 15  1  0
 17 18  1  0
 19 20  1  0
 21 22  1  0
 23 24  1  0
 25 26  1  0
M  CHG  1   8   1
M  END
>  <PDB_ID>  (1869) 
pdb3hei

>  <RESIDUE_NAME>  (1869) 
LYS   PHE

>  <FRAG_NAME>  (1869) 
ETAM   MBZ

>  <FRAG_ATOM_NUM>  (1869) 
fragi: 11  fragj: 15

>  <atom.prop.CHAIN_ID>  (1869) 
A A A A A A A A A A A Z Z Z Z Z Z Z Z Z Z Z Z Z Z Z

>  <atom.prop.IS_HEAVY_ATOM>  (1869) 
1 0 0 0 1 0 0 1 0 0 0 1 0 0 0 1 1 0 1 0 1 0 1 0 1 0

>  <DIFUSE_FUNC_ATOM>  (1869) 
n/a

>  <FINAL_SINGLE_POINT_ENERGY>  (1869) 
0

>  <NONCOV_INTER_ENERGY_QM>  (1869) 
0

>  <FF_Energy>  (1869) 
-7.93

>  <QM_Energy>  (1869) 
-15.81

>  <source>  (1869) 
ETAM_MBZ

>  <Index>  (1869) 
19019

$$$$
ETAM-pdb4e6p-C-LYS-209:MBZ-pdb4e6p-C-PHE-198
     RDKit          3D

 26 25  0  0  0  0  0  0  0  0999 V2000
   -0.1365    1.9721    3.9645 C   0  0  0  0  0  0  0  0  0  0  0  0
   -0.0545    2.0108    4.9537 H   0  0  0  0  0  0  0  0  0  0  0  0
   -0.8876    2.5440    3.6539 H   0  0  0  0  0  0  0  0  0  0  0  0
    0.7910    2.3310    3.5184 H   0  0  0  0  0  0  0  0  0  0  0  0
   -0.4233    0.5334    3.5576 C   0  0  0  0  0  0  0  0  0  0  0  0
   -0.1349    0.4023    2.6091 H   0  0  0  0  0  0  0  0  0  0  0  0
    0.0984   -0.0805    4.1505 H   0  0  0  0  0  0  0  0  0  0  0  0
   -1.8702    0.2239    3.6798 N   0  0  0  0  0  4  0  0  0  0  0  0
   -2.1026   -0.5306    3.0655 H   0  0  0  0  0  0  0  0  0  0  0  0
   -2.0767   -0.0389    4.6232 H   0  0  0  0  0  0  0  0  0  0  0  0
   -2.4061    1.0320    3.4335 H   0  0  0  0  0  0  0  0  0  0  0  0
    0.0029    2.9173    0.0155 C   0  0  0  0  0  0  0  0  0  0  0  0
    0.9384    3.2172    0.1252 H   0  0  0  0  0  0  0  0  0  0  0  0
   -0.5614    3.2111    0.7724 H   0  0  0  0  0  0  0  0  0  0  0  0
   -0.3909    3.3740   -0.8925 H   0  0  0  0  0  0  0  0  0  0  0  0
    0.0011    1.4062   -0.0042 C   0  0  0  0  0  0  0  0  0  0  0  0
   -1.1973    0.6964    0.0061 C   0  0  0  0  0  0  0  0  0  0  0  0
   -2.0637    1.1853    0.0172 H   0  0  0  0  0  0  0  0  0  0  0  0
   -1.2035   -0.7000   -0.0000 C   0  0  0  0  0  0  0  0  0  0  0  0
   -2.0792   -1.1912   -0.0025 H   0  0  0  0  0  0  0  0  0  0  0  0
    0.0012   -1.4004   -0.0004 C   0  0  0  0  0  0  0  0  0  0  0  0
   -0.0023   -2.3963   -0.0010 H   0  0  0  0  0  0  0  0  0  0  0  0
    1.2035   -0.6984    0.0000 C   0  0  0  0  0  0  0  0  0  0  0  0
    2.0853   -1.1932    0.0032 H   0  0  0  0  0  0  0  0  0  0  0  0
    1.1950    0.6961   -0.0016 C   0  0  0  0  0  0  0  0  0  0  0  0
    2.0651    1.1915   -0.0017 H   0  0  0  0  0  0  0  0  0  0  0  0
  1  5  1  0
  5  8  1  0
  1  2  1  0
  1  3  1  0
  1  4  1  0
  5  6  1  0
  5  7  1  0
  8  9  1  0
  8 10  1  0
  8 11  1  0
 12 16  1  0
 16 17  2  0
 17 19  1  0
 19 21  2  0
 21 23  1  0
 23 25  2  0
 25 16  1  0
 12 13  1  0
 12 14  1  0
 12 15  1  0
 17 18  1  0
 19 20  1  0
 21 22  1  0
 23 24  1  0
 25 26  1  0
M  CHG  1   8   1
M  END
>  <PDB_ID>  (1870) 
pdb4e6p

>  <RESIDUE_NAME>  (1870) 
LYS   PHE

>  <FRAG_NAME>  (1870) 
ETAM   MBZ

>  <FRAG_ATOM_NUM>  (1870) 
fragi: 11  fragj: 15

>  <atom.prop.CHAIN_ID>  (1870) 
A A A A A A A A A A A Z Z Z Z Z Z Z Z Z Z Z Z Z Z Z

>  <atom.prop.IS_HEAVY_ATOM>  (1870) 
1 0 0 0 1 0 0 1 0 0 0 1 0 0 0 1 1 0 1 0 1 0 1 0 1 0

>  <DIFUSE_FUNC_ATOM>  (1870) 
n/a

>  <FINAL_SINGLE_POINT_ENERGY>  (1870) 
0

>  <NONCOV_INTER_ENERGY_QM>  (1870) 
0

>  <FF_Energy>  (1870) 
-5.98

>  <QM_Energy>  (1870) 
-11.3

>  <source>  (1870) 
ETAM_MBZ

>  <Index>  (1870) 
19027

$$$$
ETAM-pdb3he2-B-LYS-156:MBZ-pdb3he2-B-PHE-118
     RDKit          3D

 26 25  0  0  0  0  0  0  0  0999 V2000
   -1.3222   -0.4094   -3.7840 C   0  0  0  0  0  0  0  0  0  0  0  0
   -1.1706   -0.1935   -4.7474 H   0  0  0  0  0  0  0  0  0  0  0  0
   -0.5755   -0.0368   -3.2341 H   0  0  0  0  0  0  0  0  0  0  0  0
   -2.2512    0.0657   -3.4689 H   0  0  0  0  0  0  0  0  0  0  0  0
   -1.3413   -1.9226   -3.6197 C   0  0  0  0  0  0  0  0  0  0  0  0
   -1.6579   -2.1504   -2.7055 H   0  0  0  0  0  0  0  0  0  0  0  0
   -1.9441   -2.3213   -4.3030 H   0  0  0  0  0  0  0  0  0  0  0  0
    0.0470   -2.4868   -3.8080 N   0  0  0  0  0  4  0  0  0  0  0  0
    0.5098   -2.5005   -2.9257 H   0  0  0  0  0  0  0  0  0  0  0  0
   -0.0291   -3.4117   -4.1699 H   0  0  0  0  0  0  0  0  0  0  0  0
    0.5443   -1.9080   -4.4472 H   0  0  0  0  0  0  0  0  0  0  0  0
    0.0090    2.9265    0.0363 C   0  0  0  0  0  0  0  0  0  0  0  0
   -0.7221    3.2393   -0.5465 H   0  0  0  0  0  0  0  0  0  0  0  0
    0.8900    3.2224   -0.2931 H   0  0  0  0  0  0  0  0  0  0  0  0
   -0.1413    3.3685    1.0212 H   0  0  0  0  0  0  0  0  0  0  0  0
   -0.0053    1.4064    0.0282 C   0  0  0  0  0  0  0  0  0  0  0  0
   -1.2059    0.7116    0.0095 C   0  0  0  0  0  0  0  0  0  0  0  0
   -2.0686    1.1977    0.0020 H   0  0  0  0  0  0  0  0  0  0  0  0
   -1.2083   -0.6873    0.0000 C   0  0  0  0  0  0  0  0  0  0  0  0
   -2.0744   -1.1878   -0.0011 H   0  0  0  0  0  0  0  0  0  0  0  0
    0.0199   -1.4011   -0.0058 C   0  0  0  0  0  0  0  0  0  0  0  0
   -0.0052   -2.3956   -0.0148 H   0  0  0  0  0  0  0  0  0  0  0  0
    1.2083   -0.7102   -0.0000 C   0  0  0  0  0  0  0  0  0  0  0  0
    2.0944   -1.1971    0.0287 H   0  0  0  0  0  0  0  0  0  0  0  0
    1.1913    0.6806   -0.0319 C   0  0  0  0  0  0  0  0  0  0  0  0
    2.0601    1.1826   -0.1006 H   0  0  0  0  0  0  0  0  0  0  0  0
  1  5  1  0
  5  8  1  0
  1  2  1  0
  1  3  1  0
  1  4  1  0
  5  6  1  0
  5  7  1  0
  8  9  1  0
  8 10  1  0
  8 11  1  0
 12 16  1  0
 16 17  2  0
 17 19  1  0
 19 21  2  0
 21 23  1  0
 23 25  2  0
 25 16  1  0
 12 13  1  0
 12 14  1  0
 12 15  1  0
 17 18  1  0
 19 20  1  0
 21 22  1  0
 23 24  1  0
 25 26  1  0
M  CHG  1   8   1
M  END
>  <PDB_ID>  (1871) 
pdb3he2

>  <RESIDUE_NAME>  (1871) 
LYS   PHE

>  <FRAG_NAME>  (1871) 
ETAM   MBZ

>  <FRAG_ATOM_NUM>  (1871) 
fragi: 11  fragj: 15

>  <atom.prop.CHAIN_ID>  (1871) 
A A A A A A A A A A A Z Z Z Z Z Z Z Z Z Z Z Z Z Z Z

>  <atom.prop.IS_HEAVY_ATOM>  (1871) 
1 0 0 0 1 0 0 1 0 0 0 1 0 0 0 1 1 0 1 0 1 0 1 0 1 0

>  <DIFUSE_FUNC_ATOM>  (1871) 
n/a

>  <FINAL_SINGLE_POINT_ENERGY>  (1871) 
0

>  <NONCOV_INTER_ENERGY_QM>  (1871) 
0

>  <FF_Energy>  (1871) 
-4.34

>  <QM_Energy>  (1871) 
-9.47

>  <source>  (1871) 
ETAM_MBZ

>  <Index>  (1871) 
19028

$$$$
ETAM-pdb4edl-F-LYS-252:MBZ-pdb4edl-E-PHE-299
     RDKit          3D

 26 25  0  0  0  0  0  0  0  0999 V2000
   -4.5255   -0.2683   -0.0065 C   0  0  0  0  0  0  0  0  0  0  0  0
   -3.8209    0.3442   -0.3900 H   0  0  0  0  0  0  0  0  0  0  0  0
   -5.4302    0.1285   -0.2126 H   0  0  0  0  0  0  0  0  0  0  0  0
   -4.4515   -1.2310   -0.5122 H   0  0  0  0  0  0  0  0  0  0  0  0
   -4.3531   -0.3154    1.5044 C   0  0  0  0  0  0  0  0  0  0  0  0
   -5.1759   -0.7433    1.9132 H   0  0  0  0  0  0  0  0  0  0  0  0
   -3.5632   -0.9112    1.7238 H   0  0  0  0  0  0  0  0  0  0  0  0
   -4.1390    1.0202    2.1410 N   0  0  0  0  0  4  0  0  0  0  0  0
   -4.9393    1.5935    1.9771 H   0  0  0  0  0  0  0  0  0  0  0  0
   -4.0065    0.8977    3.1230 H   0  0  0  0  0  0  0  0  0  0  0  0
   -3.3304    1.4482    1.7422 H   0  0  0  0  0  0  0  0  0  0  0  0
    0.0349    2.9287   -0.0301 C   0  0  0  0  0  0  0  0  0  0  0  0
   -0.7133    3.2273   -0.6140 H   0  0  0  0  0  0  0  0  0  0  0  0
    0.9083    3.2004   -0.4243 H   0  0  0  0  0  0  0  0  0  0  0  0
   -0.0672    3.4541    0.9194 H   0  0  0  0  0  0  0  0  0  0  0  0
    0.0030    1.4079    0.0270 C   0  0  0  0  0  0  0  0  0  0  0  0
   -1.2007    0.6997   -0.0122 C   0  0  0  0  0  0  0  0  0  0  0  0
   -2.0613    1.1900   -0.0502 H   0  0  0  0  0  0  0  0  0  0  0  0
   -1.1980   -0.6894   -0.0000 C   0  0  0  0  0  0  0  0  0  0  0  0
   -2.0798   -1.1844    0.0125 H   0  0  0  0  0  0  0  0  0  0  0  0
   -0.0033   -1.3924   -0.0028 C   0  0  0  0  0  0  0  0  0  0  0  0
   -0.0144   -2.3914   -0.0073 H   0  0  0  0  0  0  0  0  0  0  0  0
    1.1980   -0.7049   -0.0000 C   0  0  0  0  0  0  0  0  0  0  0  0
    2.0774   -1.2094    0.0124 H   0  0  0  0  0  0  0  0  0  0  0  0
    1.2010    0.6791   -0.0120 C   0  0  0  0  0  0  0  0  0  0  0  0
    2.0698    1.1767   -0.0504 H   0  0  0  0  0  0  0  0  0  0  0  0
  1  5  1  0
  5  8  1  0
  1  2  1  0
  1  3  1  0
  1  4  1  0
  5  6  1  0
  5  7  1  0
  8  9  1  0
  8 10  1  0
  8 11  1  0
 12 16  1  0
 16 17  2  0
 17 19  1  0
 19 21  2  0
 21 23  1  0
 23 25  2  0
 25 16  1  0
 12 13  1  0
 12 14  1  0
 12 15  1  0
 17 18  1  0
 19 20  1  0
 21 22  1  0
 23 24  1  0
 25 26  1  0
M  CHG  1   8   1
M  END
>  <PDB_ID>  (1872) 
pdb4edl

>  <RESIDUE_NAME>  (1872) 
LYS   PHE

>  <FRAG_NAME>  (1872) 
ETAM   MBZ

>  <FRAG_ATOM_NUM>  (1872) 
fragi: 11  fragj: 15

>  <atom.prop.CHAIN_ID>  (1872) 
A A A A A A A A A A A Z Z Z Z Z Z Z Z Z Z Z Z Z Z Z

>  <atom.prop.IS_HEAVY_ATOM>  (1872) 
1 0 0 0 1 0 0 1 0 0 0 1 0 0 0 1 1 0 1 0 1 0 1 0 1 0

>  <DIFUSE_FUNC_ATOM>  (1872) 
n/a

>  <FINAL_SINGLE_POINT_ENERGY>  (1872) 
0

>  <NONCOV_INTER_ENERGY_QM>  (1872) 
0

>  <FF_Energy>  (1872) 
1.28

>  <QM_Energy>  (1872) 
-4.97

>  <source>  (1872) 
ETAM_MBZ

>  <Index>  (1872) 
19042

$$$$
ETAM-pdb4eei-A-LYS-415:MBZ-pdb4eei-A-PHE-411
     RDKit          3D

 26 25  0  0  0  0  0  0  0  0999 V2000
    2.0925   -2.0325    3.5078 C   0  0  0  0  0  0  0  0  0  0  0  0
    2.6388   -2.4615    4.2227 H   0  0  0  0  0  0  0  0  0  0  0  0
    1.6181   -2.7297    2.9761 H   0  0  0  0  0  0  0  0  0  0  0  0
    1.3516   -1.3847    3.9764 H   0  0  0  0  0  0  0  0  0  0  0  0
    3.0194   -1.2635    2.5828 C   0  0  0  0  0  0  0  0  0  0  0  0
    2.4721   -0.8132    1.8720 H   0  0  0  0  0  0  0  0  0  0  0  0
    3.5006   -0.5590    3.1131 H   0  0  0  0  0  0  0  0  0  0  0  0
    4.0258   -2.1527    1.9311 N   0  0  0  0  0  4  0  0  0  0  0  0
    3.8975   -2.1245    0.9413 H   0  0  0  0  0  0  0  0  0  0  0  0
    4.9438   -1.8341    2.1606 H   0  0  0  0  0  0  0  0  0  0  0  0
    3.9020   -3.0870    2.2608 H   0  0  0  0  0  0  0  0  0  0  0  0
    0.0021    2.8947   -0.0057 C   0  0  0  0  0  0  0  0  0  0  0  0
   -0.6757    3.1989   -0.6593 H   0  0  0  0  0  0  0  0  0  0  0  0
    0.9081    3.1989   -0.2631 H   0  0  0  0  0  0  0  0  0  0  0  0
   -0.2383    3.3451    0.9573 H   0  0  0  0  0  0  0  0  0  0  0  0
   -0.0001    1.3935    0.0026 C   0  0  0  0  0  0  0  0  0  0  0  0
   -1.1905    0.6887   -0.0014 C   0  0  0  0  0  0  0  0  0  0  0  0
   -2.0586    1.1811   -0.0066 H   0  0  0  0  0  0  0  0  0  0  0  0
   -1.1944   -0.6920    0.0000 C   0  0  0  0  0  0  0  0  0  0  0  0
   -2.0727   -1.1881    0.0024 H   0  0  0  0  0  0  0  0  0  0  0  0
    0.0004   -1.3849   -0.0000 C   0  0  0  0  0  0  0  0  0  0  0  0
   -0.0039   -2.3857   -0.0008 H   0  0  0  0  0  0  0  0  0  0  0  0
    1.1944   -0.6928   -0.0000 C   0  0  0  0  0  0  0  0  0  0  0  0
    2.0778   -1.1926    0.0022 H   0  0  0  0  0  0  0  0  0  0  0  0
    1.1902    0.6875   -0.0011 C   0  0  0  0  0  0  0  0  0  0  0  0
    2.0605    1.1862   -0.0055 H   0  0  0  0  0  0  0  0  0  0  0  0
  1  5  1  0
  5  8  1  0
  1  2  1  0
  1  3  1  0
  1  4  1  0
  5  6  1  0
  5  7  1  0
  8  9  1  0
  8 10  1  0
  8 11  1  0
 12 16  1  0
 16 17  2  0
 17 19  1  0
 19 21  2  0
 21 23  1  0
 23 25  2  0
 25 16  1  0
 12 13  1  0
 12 14  1  0
 12 15  1  0
 17 18  1  0
 19 20  1  0
 21 22  1  0
 23 24  1  0
 25 26  1  0
M  CHG  1   8   1
M  END
>  <PDB_ID>  (1873) 
pdb4eei

>  <RESIDUE_NAME>  (1873) 
LYS   PHE

>  <FRAG_NAME>  (1873) 
ETAM   MBZ

>  <FRAG_ATOM_NUM>  (1873) 
fragi: 11  fragj: 15

>  <atom.prop.CHAIN_ID>  (1873) 
A A A A A A A A A A A Z Z Z Z Z Z Z Z Z Z Z Z Z Z Z

>  <atom.prop.IS_HEAVY_ATOM>  (1873) 
1 0 0 0 1 0 0 1 0 0 0 1 0 0 0 1 1 0 1 0 1 0 1 0 1 0

>  <DIFUSE_FUNC_ATOM>  (1873) 
n/a

>  <FINAL_SINGLE_POINT_ENERGY>  (1873) 
0

>  <NONCOV_INTER_ENERGY_QM>  (1873) 
0

>  <FF_Energy>  (1873) 
4.99

>  <QM_Energy>  (1873) 
-3.55

>  <source>  (1873) 
ETAM_MBZ

>  <Index>  (1873) 
19057

$$$$
ETAM-pdb3hic-A-LYS-67:MBZ-pdb3hic-A-PHE-34
     RDKit          3D

 26 25  0  0  0  0  0  0  0  0999 V2000
    0.1197    0.2191    5.1681 C   0  0  0  0  0  0  0  0  0  0  0  0
    0.6192    1.0395    5.4184 H   0  0  0  0  0  0  0  0  0  0  0  0
    0.5127   -0.5795    5.6061 H   0  0  0  0  0  0  0  0  0  0  0  0
   -0.9186    0.3246    5.4826 H   0  0  0  0  0  0  0  0  0  0  0  0
    0.2174    0.0368    3.6555 C   0  0  0  0  0  0  0  0  0  0  0  0
   -0.1697    0.8452    3.2065 H   0  0  0  0  0  0  0  0  0  0  0  0
    1.1827   -0.0482    3.4013 H   0  0  0  0  0  0  0  0  0  0  0  0
   -0.5189   -1.1779    3.1966 N   0  0  0  0  0  4  0  0  0  0  0  0
    0.0418   -1.6726    2.5342 H   0  0  0  0  0  0  0  0  0  0  0  0
   -0.7087   -1.7649    3.9822 H   0  0  0  0  0  0  0  0  0  0  0  0
   -1.3775   -0.9003    2.7692 H   0  0  0  0  0  0  0  0  0  0  0  0
   -0.0032    2.8880   -0.0421 C   0  0  0  0  0  0  0  0  0  0  0  0
    0.8969    3.2070    0.2176 H   0  0  0  0  0  0  0  0  0  0  0  0
   -0.6945    3.2144    0.5866 H   0  0  0  0  0  0  0  0  0  0  0  0
   -0.2293    3.2964   -1.0271 H   0  0  0  0  0  0  0  0  0  0  0  0
   -0.0007    1.3975   -0.0004 C   0  0  0  0  0  0  0  0  0  0  0  0
   -1.1968    0.6902    0.0005 C   0  0  0  0  0  0  0  0  0  0  0  0
   -2.0634    1.1835   -0.0000 H   0  0  0  0  0  0  0  0  0  0  0  0
   -1.2024   -0.6943    0.0000 C   0  0  0  0  0  0  0  0  0  0  0  0
   -2.0778   -1.1910    0.0022 H   0  0  0  0  0  0  0  0  0  0  0  0
   -0.0000   -1.3894   -0.0013 C   0  0  0  0  0  0  0  0  0  0  0  0
   -0.0047   -2.3894   -0.0039 H   0  0  0  0  0  0  0  0  0  0  0  0
    1.2024   -0.6961   -0.0000 C   0  0  0  0  0  0  0  0  0  0  0  0
    2.0826   -1.1953    0.0018 H   0  0  0  0  0  0  0  0  0  0  0  0
    1.1975    0.6921    0.0012 C   0  0  0  0  0  0  0  0  0  0  0  0
    2.0641    1.1902    0.0021 H   0  0  0  0  0  0  0  0  0  0  0  0
  1  5  1  0
  5  8  1  0
  1  2  1  0
  1  3  1  0
  1  4  1  0
  5  6  1  0
  5  7  1  0
  8  9  1  0
  8 10  1  0
  8 11  1  0
 12 16  1  0
 16 17  2  0
 17 19  1  0
 19 21  2  0
 21 23  1  0
 23 25  2  0
 25 16  1  0
 12 13  1  0
 12 14  1  0
 12 15  1  0
 17 18  1  0
 19 20  1  0
 21 22  1  0
 23 24  1  0
 25 26  1  0
M  CHG  1   8   1
M  END
>  <PDB_ID>  (1874) 
pdb3hic

>  <RESIDUE_NAME>  (1874) 
LYS   PHE

>  <FRAG_NAME>  (1874) 
ETAM   MBZ

>  <FRAG_ATOM_NUM>  (1874) 
fragi: 11  fragj: 15

>  <atom.prop.CHAIN_ID>  (1874) 
A A A A A A A A A A A Z Z Z Z Z Z Z Z Z Z Z Z Z Z Z

>  <atom.prop.IS_HEAVY_ATOM>  (1874) 
1 0 0 0 1 0 0 1 0 0 0 1 0 0 0 1 1 0 1 0 1 0 1 0 1 0

>  <DIFUSE_FUNC_ATOM>  (1874) 
n/a

>  <FINAL_SINGLE_POINT_ENERGY>  (1874) 
0

>  <NONCOV_INTER_ENERGY_QM>  (1874) 
0

>  <FF_Energy>  (1874) 
-7.49

>  <QM_Energy>  (1874) 
-14.74

>  <source>  (1874) 
ETAM_MBZ

>  <Index>  (1874) 
19068

$$$$
ETAM-pdb3hin-A-LYS-262:MBZ-pdb3hin-A-PHE-258
     RDKit          3D

 26 25  0  0  0  0  0  0  0  0999 V2000
   -4.6377   -2.6641   -3.8787 C   0  0  0  0  0  0  0  0  0  0  0  0
   -5.4687   -2.1291   -3.7330 H   0  0  0  0  0  0  0  0  0  0  0  0
   -4.8750   -3.5605   -4.2508 H   0  0  0  0  0  0  0  0  0  0  0  0
   -4.0172   -2.1423   -4.6072 H   0  0  0  0  0  0  0  0  0  0  0  0
   -3.9433   -2.8629   -2.5332 C   0  0  0  0  0  0  0  0  0  0  0  0
   -4.3858   -3.6344   -2.0525 H   0  0  0  0  0  0  0  0  0  0  0  0
   -2.9794   -3.1182   -2.7017 H   0  0  0  0  0  0  0  0  0  0  0  0
   -3.9792   -1.6577   -1.6521 N   0  0  0  0  0  4  0  0  0  0  0  0
   -4.5540   -0.9581   -2.0742 H   0  0  0  0  0  0  0  0  0  0  0  0
   -4.3560   -1.9112   -0.7627 H   0  0  0  0  0  0  0  0  0  0  0  0
   -3.0512   -1.3066   -1.5370 H   0  0  0  0  0  0  0  0  0  0  0  0
   -0.0001    2.9144   -0.0141 C   0  0  0  0  0  0  0  0  0  0  0  0
    0.8727    3.2232    0.3308 H   0  0  0  0  0  0  0  0  0  0  0  0
   -0.7449    3.2268    0.5548 H   0  0  0  0  0  0  0  0  0  0  0  0
   -0.1369    3.3438   -1.0065 H   0  0  0  0  0  0  0  0  0  0  0  0
   -0.0015    1.4129   -0.0015 C   0  0  0  0  0  0  0  0  0  0  0  0
   -1.2050    0.6982    0.0028 C   0  0  0  0  0  0  0  0  0  0  0  0
   -2.0703    1.1874    0.0068 H   0  0  0  0  0  0  0  0  0  0  0  0
   -1.2103   -0.7008    0.0000 C   0  0  0  0  0  0  0  0  0  0  0  0
   -2.0796   -1.1967   -0.0065 H   0  0  0  0  0  0  0  0  0  0  0  0
    0.0084   -1.4075    0.0081 C   0  0  0  0  0  0  0  0  0  0  0  0
   -0.0024   -2.4010    0.0187 H   0  0  0  0  0  0  0  0  0  0  0  0
    1.2103   -0.7063   -0.0000 C   0  0  0  0  0  0  0  0  0  0  0  0
    2.0931   -1.1920    0.0019 H   0  0  0  0  0  0  0  0  0  0  0  0
    1.1981    0.7035   -0.0094 C   0  0  0  0  0  0  0  0  0  0  0  0
    2.0669    1.1952   -0.0230 H   0  0  0  0  0  0  0  0  0  0  0  0
  1  5  1  0
  5  8  1  0
  1  2  1  0
  1  3  1  0
  1  4  1  0
  5  6  1  0
  5  7  1  0
  8  9  1  0
  8 10  1  0
  8 11  1  0
 12 16  1  0
 16 17  2  0
 17 19  1  0
 19 21  2  0
 21 23  1  0
 23 25  2  0
 25 16  1  0
 12 13  1  0
 12 14  1  0
 12 15  1  0
 17 18  1  0
 19 20  1  0
 21 22  1  0
 23 24  1  0
 25 26  1  0
M  CHG  1   8   1
M  END
>  <PDB_ID>  (1875) 
pdb3hin

>  <RESIDUE_NAME>  (1875) 
LYS   PHE

>  <FRAG_NAME>  (1875) 
ETAM   MBZ

>  <FRAG_ATOM_NUM>  (1875) 
fragi: 11  fragj: 15

>  <atom.prop.CHAIN_ID>  (1875) 
A A A A A A A A A A A Z Z Z Z Z Z Z Z Z Z Z Z Z Z Z

>  <atom.prop.IS_HEAVY_ATOM>  (1875) 
1 0 0 0 1 0 0 1 0 0 0 1 0 0 0 1 1 0 1 0 1 0 1 0 1 0

>  <DIFUSE_FUNC_ATOM>  (1875) 
n/a

>  <FINAL_SINGLE_POINT_ENERGY>  (1875) 
0

>  <NONCOV_INTER_ENERGY_QM>  (1875) 
0

>  <FF_Energy>  (1875) 
1.08

>  <QM_Energy>  (1875) 
-4.97

>  <source>  (1875) 
ETAM_MBZ

>  <Index>  (1875) 
19073

$$$$
ETAM-pdb3hjj-A-LYS-61:MBZ-pdb3hjj-A-PHE-47
     RDKit          3D

 26 25  0  0  0  0  0  0  0  0999 V2000
    0.3735    0.7878   -3.6915 C   0  0  0  0  0  0  0  0  0  0  0  0
    0.5236    0.2223   -2.8836 H   0  0  0  0  0  0  0  0  0  0  0  0
    0.6338    1.7308   -3.4990 H   0  0  0  0  0  0  0  0  0  0  0  0
    0.9957    0.4106   -4.5032 H   0  0  0  0  0  0  0  0  0  0  0  0
   -1.1262    0.7613   -4.0260 C   0  0  0  0  0  0  0  0  0  0  0  0
   -1.5816    1.4916   -3.5131 H   0  0  0  0  0  0  0  0  0  0  0  0
   -1.2391    0.9301   -5.0076 H   0  0  0  0  0  0  0  0  0  0  0  0
   -1.7608   -0.5522   -3.6772 N   0  0  0  0  0  4  0  0  0  0  0  0
   -1.0459   -1.2093   -3.4485 H   0  0  0  0  0  0  0  0  0  0  0  0
   -2.3665   -0.4243   -2.8945 H   0  0  0  0  0  0  0  0  0  0  0  0
   -2.2847   -0.8794   -4.4610 H   0  0  0  0  0  0  0  0  0  0  0  0
    0.0064    2.9036    0.0117 C   0  0  0  0  0  0  0  0  0  0  0  0
   -0.9202    3.2169   -0.1100 H   0  0  0  0  0  0  0  0  0  0  0  0
    0.5976    3.2172   -0.7123 H   0  0  0  0  0  0  0  0  0  0  0  0
    0.3779    3.3208    0.9476 H   0  0  0  0  0  0  0  0  0  0  0  0
   -0.0007    1.4021   -0.0066 C   0  0  0  0  0  0  0  0  0  0  0  0
   -1.1961    0.6958    0.0007 C   0  0  0  0  0  0  0  0  0  0  0  0
   -2.0636    1.1845    0.0053 H   0  0  0  0  0  0  0  0  0  0  0  0
   -1.2020   -0.6974    0.0000 C   0  0  0  0  0  0  0  0  0  0  0  0
   -2.0773   -1.1911   -0.0026 H   0  0  0  0  0  0  0  0  0  0  0  0
    0.0031   -1.3974    0.0051 C   0  0  0  0  0  0  0  0  0  0  0  0
   -0.0027   -2.3938    0.0122 H   0  0  0  0  0  0  0  0  0  0  0  0
    1.2020   -0.6988   -0.0000 C   0  0  0  0  0  0  0  0  0  0  0  0
    2.0843   -1.1923   -0.0026 H   0  0  0  0  0  0  0  0  0  0  0  0
    1.1937    0.6956    0.0008 C   0  0  0  0  0  0  0  0  0  0  0  0
    2.0632    1.1907    0.0060 H   0  0  0  0  0  0  0  0  0  0  0  0
  1  5  1  0
  5  8  1  0
  1  2  1  0
  1  3  1  0
  1  4  1  0
  5  6  1  0
  5  7  1  0
  8  9  1  0
  8 10  1  0
  8 11  1  0
 12 16  1  0
 16 17  2  0
 17 19  1  0
 19 21  2  0
 21 23  1  0
 23 25  2  0
 25 16  1  0
 12 13  1  0
 12 14  1  0
 12 15  1  0
 17 18  1  0
 19 20  1  0
 21 22  1  0
 23 24  1  0
 25 26  1  0
M  CHG  1   8   1
M  END
>  <PDB_ID>  (1876) 
pdb3hjj

>  <RESIDUE_NAME>  (1876) 
LYS   PHE

>  <FRAG_NAME>  (1876) 
ETAM   MBZ

>  <FRAG_ATOM_NUM>  (1876) 
fragi: 11  fragj: 15

>  <atom.prop.CHAIN_ID>  (1876) 
A A A A A A A A A A A Z Z Z Z Z Z Z Z Z Z Z Z Z Z Z

>  <atom.prop.IS_HEAVY_ATOM>  (1876) 
1 0 0 0 1 0 0 1 0 0 0 1 0 0 0 1 1 0 1 0 1 0 1 0 1 0

>  <DIFUSE_FUNC_ATOM>  (1876) 
n/a

>  <FINAL_SINGLE_POINT_ENERGY>  (1876) 
0

>  <NONCOV_INTER_ENERGY_QM>  (1876) 
0

>  <FF_Energy>  (1876) 
-6.06

>  <QM_Energy>  (1876) 
-11.29

>  <source>  (1876) 
ETAM_MBZ

>  <Index>  (1876) 
19108

$$$$
ETAM-pdb3hjt-A-LYS-114:MBZ-pdb3hjt-A-PHE-110
     RDKit          3D

 26 25  0  0  0  0  0  0  0  0999 V2000
   -4.7781   -0.8250    4.0516 C   0  0  0  0  0  0  0  0  0  0  0  0
   -5.2811   -1.5041    3.5281 H   0  0  0  0  0  0  0  0  0  0  0  0
   -5.3599   -0.0463    4.2589 H   0  0  0  0  0  0  0  0  0  0  0  0
   -4.4601   -1.2789    4.9902 H   0  0  0  0  0  0  0  0  0  0  0  0
   -3.5902   -0.3292    3.1901 C   0  0  0  0  0  0  0  0  0  0  0  0
   -2.9945    0.2430    3.7724 H   0  0  0  0  0  0  0  0  0  0  0  0
   -3.0536   -1.1345    2.8976 H   0  0  0  0  0  0  0  0  0  0  0  0
   -3.9881    0.4609    1.9718 N   0  0  0  0  0  4  0  0  0  0  0  0
   -3.1650    0.7923    1.5190 H   0  0  0  0  0  0  0  0  0  0  0  0
   -4.5017   -0.1311    1.3562 H   0  0  0  0  0  0  0  0  0  0  0  0
   -4.5536    1.2303    2.2567 H   0  0  0  0  0  0  0  0  0  0  0  0
    0.0085    2.9081    0.0438 C   0  0  0  0  0  0  0  0  0  0  0  0
   -0.3897    3.2424   -0.7973 H   0  0  0  0  0  0  0  0  0  0  0  0
    0.9452    3.2093    0.1417 H   0  0  0  0  0  0  0  0  0  0  0  0
   -0.5605    3.3369    0.8687 H   0  0  0  0  0  0  0  0  0  0  0  0
    0.0007    1.4038    0.0015 C   0  0  0  0  0  0  0  0  0  0  0  0
   -1.2004    0.6936   -0.0018 C   0  0  0  0  0  0  0  0  0  0  0  0
   -2.0648    1.1851   -0.0063 H   0  0  0  0  0  0  0  0  0  0  0  0
   -1.2056   -0.6977   -0.0000 C   0  0  0  0  0  0  0  0  0  0  0  0
   -2.0795   -1.1926    0.0012 H   0  0  0  0  0  0  0  0  0  0  0  0
    0.0014   -1.3979    0.0020 C   0  0  0  0  0  0  0  0  0  0  0  0
   -0.0030   -2.3940    0.0047 H   0  0  0  0  0  0  0  0  0  0  0  0
    1.2056   -0.6978    0.0000 C   0  0  0  0  0  0  0  0  0  0  0  0
    2.0863   -1.1937    0.0013 H   0  0  0  0  0  0  0  0  0  0  0  0
    1.1983    0.6960   -0.0017 C   0  0  0  0  0  0  0  0  0  0  0  0
    2.0664    1.1922   -0.0061 H   0  0  0  0  0  0  0  0  0  0  0  0
  1  5  1  0
  5  8  1  0
  1  2  1  0
  1  3  1  0
  1  4  1  0
  5  6  1  0
  5  7  1  0
  8  9  1  0
  8 10  1  0
  8 11  1  0
 12 16  1  0
 16 17  2  0
 17 19  1  0
 19 21  2  0
 21 23  1  0
 23 25  2  0
 25 16  1  0
 12 13  1  0
 12 14  1  0
 12 15  1  0
 17 18  1  0
 19 20  1  0
 21 22  1  0
 23 24  1  0
 25 26  1  0
M  CHG  1   8   1
M  END
>  <PDB_ID>  (1877) 
pdb3hjt

>  <RESIDUE_NAME>  (1877) 
LYS   PHE

>  <FRAG_NAME>  (1877) 
ETAM   MBZ

>  <FRAG_ATOM_NUM>  (1877) 
fragi: 11  fragj: 15

>  <atom.prop.CHAIN_ID>  (1877) 
A A A A A A A A A A A Z Z Z Z Z Z Z Z Z Z Z Z Z Z Z

>  <atom.prop.IS_HEAVY_ATOM>  (1877) 
1 0 0 0 1 0 0 1 0 0 0 1 0 0 0 1 1 0 1 0 1 0 1 0 1 0

>  <DIFUSE_FUNC_ATOM>  (1877) 
n/a

>  <FINAL_SINGLE_POINT_ENERGY>  (1877) 
0

>  <NONCOV_INTER_ENERGY_QM>  (1877) 
0

>  <FF_Energy>  (1877) 
-0.86

>  <QM_Energy>  (1877) 
-6.77

>  <source>  (1877) 
ETAM_MBZ

>  <Index>  (1877) 
19111

$$$$
ETAM-pdb3hjn-B-LYS-58:MBZ-pdb3hjn-A-PHE-115
     RDKit          3D

 26 25  0  0  0  0  0  0  0  0999 V2000
    0.4176   -0.9450    3.6551 C   0  0  0  0  0  0  0  0  0  0  0  0
    0.6785   -0.3362    4.3933 H   0  0  0  0  0  0  0  0  0  0  0  0
    0.6383   -0.5477    2.7742 H   0  0  0  0  0  0  0  0  0  0  0  0
    0.9566   -1.8859    3.7656 H   0  0  0  0  0  0  0  0  0  0  0  0
   -1.0833   -1.1753    3.7220 C   0  0  0  0  0  0  0  0  0  0  0  0
   -1.3537   -1.7802    2.9613 H   0  0  0  0  0  0  0  0  0  0  0  0
   -1.3020   -1.6457    4.5881 H   0  0  0  0  0  0  0  0  0  0  0  0
   -1.8692    0.0851    3.6428 N   0  0  0  0  0  4  0  0  0  0  0  0
   -2.8358   -0.1151    3.8036 H   0  0  0  0  0  0  0  0  0  0  0  0
   -1.5406    0.7255    4.3361 H   0  0  0  0  0  0  0  0  0  0  0  0
   -1.7576    0.4891    2.7349 H   0  0  0  0  0  0  0  0  0  0  0  0
    0.0022    2.9132   -0.0227 C   0  0  0  0  0  0  0  0  0  0  0  0
   -0.5085    3.2065   -0.8186 H   0  0  0  0  0  0  0  0  0  0  0  0
    0.9438    3.2148   -0.0708 H   0  0  0  0  0  0  0  0  0  0  0  0
   -0.4526    3.3721    0.8552 H   0  0  0  0  0  0  0  0  0  0  0  0
    0.0005    1.4067   -0.0005 C   0  0  0  0  0  0  0  0  0  0  0  0
   -1.2002    0.6970   -0.0003 C   0  0  0  0  0  0  0  0  0  0  0  0
   -2.0664    1.1858   -0.0015 H   0  0  0  0  0  0  0  0  0  0  0  0
   -1.2074   -0.7020    0.0000 C   0  0  0  0  0  0  0  0  0  0  0  0
   -2.0809   -1.1930    0.0016 H   0  0  0  0  0  0  0  0  0  0  0  0
    0.0004   -1.4019   -0.0000 C   0  0  0  0  0  0  0  0  0  0  0  0
   -0.0015   -2.3969   -0.0008 H   0  0  0  0  0  0  0  0  0  0  0  0
    1.2074   -0.6981    0.0000 C   0  0  0  0  0  0  0  0  0  0  0  0
    2.0872   -1.1935    0.0013 H   0  0  0  0  0  0  0  0  0  0  0  0
    1.1993    0.6984    0.0008 C   0  0  0  0  0  0  0  0  0  0  0  0
    2.0671    1.1949    0.0011 H   0  0  0  0  0  0  0  0  0  0  0  0
  1  5  1  0
  5  8  1  0
  1  2  1  0
  1  3  1  0
  1  4  1  0
  5  6  1  0
  5  7  1  0
  8  9  1  0
  8 10  1  0
  8 11  1  0
 12 16  1  0
 16 17  2  0
 17 19  1  0
 19 21  2  0
 21 23  1  0
 23 25  2  0
 25 16  1  0
 12 13  1  0
 12 14  1  0
 12 15  1  0
 17 18  1  0
 19 20  1  0
 21 22  1  0
 23 24  1  0
 25 26  1  0
M  CHG  1   8   1
M  END
>  <PDB_ID>  (1878) 
pdb3hjn

>  <RESIDUE_NAME>  (1878) 
LYS   PHE

>  <FRAG_NAME>  (1878) 
ETAM   MBZ

>  <FRAG_ATOM_NUM>  (1878) 
fragi: 11  fragj: 15

>  <atom.prop.CHAIN_ID>  (1878) 
A A A A A A A A A A A Z Z Z Z Z Z Z Z Z Z Z Z Z Z Z

>  <atom.prop.IS_HEAVY_ATOM>  (1878) 
1 0 0 0 1 0 0 1 0 0 0 1 0 0 0 1 1 0 1 0 1 0 1 0 1 0

>  <DIFUSE_FUNC_ATOM>  (1878) 
n/a

>  <FINAL_SINGLE_POINT_ENERGY>  (1878) 
0

>  <NONCOV_INTER_ENERGY_QM>  (1878) 
0

>  <FF_Energy>  (1878) 
-6.14

>  <QM_Energy>  (1878) 
-12.39

>  <source>  (1878) 
ETAM_MBZ

>  <Index>  (1878) 
19140

$$$$
ETAM-pdb4ehw-A-LYS-225:MBZ-pdb4ehw-A-PHE-221
     RDKit          3D

 26 25  0  0  0  0  0  0  0  0999 V2000
    1.0736   -2.2277    5.0693 C   0  0  0  0  0  0  0  0  0  0  0  0
    1.5939   -2.8228    5.6689 H   0  0  0  0  0  0  0  0  0  0  0  0
    0.2312   -2.6663    4.7823 H   0  0  0  0  0  0  0  0  0  0  0  0
    0.8286   -1.3131    5.6092 H   0  0  0  0  0  0  0  0  0  0  0  0
    1.9116   -1.9274    3.8335 C   0  0  0  0  0  0  0  0  0  0  0  0
    2.6590   -1.3266    4.0881 H   0  0  0  0  0  0  0  0  0  0  0  0
    2.2596   -2.7805    3.4631 H   0  0  0  0  0  0  0  0  0  0  0  0
    1.0596   -1.2574    2.8176 N   0  0  0  0  0  4  0  0  0  0  0  0
    0.8887   -1.8867    2.0590 H   0  0  0  0  0  0  0  0  0  0  0  0
    0.1901   -0.9924    3.2347 H   0  0  0  0  0  0  0  0  0  0  0  0
    1.5277   -0.4428    2.4763 H   0  0  0  0  0  0  0  0  0  0  0  0
    0.0191    2.8952   -0.0074 C   0  0  0  0  0  0  0  0  0  0  0  0
   -0.1784    3.1994   -0.9296 H   0  0  0  0  0  0  0  0  0  0  0  0
    0.9177    3.1985    0.2804 H   0  0  0  0  0  0  0  0  0  0  0  0
   -0.7099    3.3629    0.6543 H   0  0  0  0  0  0  0  0  0  0  0  0
    0.0015    1.3983    0.0068 C   0  0  0  0  0  0  0  0  0  0  0  0
   -1.1926    0.6974   -0.0051 C   0  0  0  0  0  0  0  0  0  0  0  0
   -2.0590    1.1860   -0.0189 H   0  0  0  0  0  0  0  0  0  0  0  0
   -1.1956   -0.6927    0.0000 C   0  0  0  0  0  0  0  0  0  0  0  0
   -2.0744   -1.1861    0.0043 H   0  0  0  0  0  0  0  0  0  0  0  0
    0.0020   -1.3918    0.0015 C   0  0  0  0  0  0  0  0  0  0  0  0
   -0.0074   -2.3914    0.0030 H   0  0  0  0  0  0  0  0  0  0  0  0
    1.1956   -0.7009   -0.0000 C   0  0  0  0  0  0  0  0  0  0  0  0
    2.0795   -1.1945    0.0029 H   0  0  0  0  0  0  0  0  0  0  0  0
    1.1892    0.6897   -0.0033 C   0  0  0  0  0  0  0  0  0  0  0  0
    2.0625    1.1839   -0.0144 H   0  0  0  0  0  0  0  0  0  0  0  0
  1  5  1  0
  5  8  1  0
  1  2  1  0
  1  3  1  0
  1  4  1  0
  5  6  1  0
  5  7  1  0
  8  9  1  0
  8 10  1  0
  8 11  1  0
 12 16  1  0
 16 17  2  0
 17 19  1  0
 19 21  2  0
 21 23  1  0
 23 25  2  0
 25 16  1  0
 12 13  1  0
 12 14  1  0
 12 15  1  0
 17 18  1  0
 19 20  1  0
 21 22  1  0
 23 24  1  0
 25 26  1  0
M  CHG  1   8   1
M  END
>  <PDB_ID>  (1879) 
pdb4ehw

>  <RESIDUE_NAME>  (1879) 
LYS   PHE

>  <FRAG_NAME>  (1879) 
ETAM   MBZ

>  <FRAG_ATOM_NUM>  (1879) 
fragi: 11  fragj: 15

>  <atom.prop.CHAIN_ID>  (1879) 
A A A A A A A A A A A Z Z Z Z Z Z Z Z Z Z Z Z Z Z Z

>  <atom.prop.IS_HEAVY_ATOM>  (1879) 
1 0 0 0 1 0 0 1 0 0 0 1 0 0 0 1 1 0 1 0 1 0 1 0 1 0

>  <DIFUSE_FUNC_ATOM>  (1879) 
n/a

>  <FINAL_SINGLE_POINT_ENERGY>  (1879) 
0

>  <NONCOV_INTER_ENERGY_QM>  (1879) 
0

>  <FF_Energy>  (1879) 
-3.64

>  <QM_Energy>  (1879) 
-11.46

>  <source>  (1879) 
ETAM_MBZ

>  <Index>  (1879) 
19147

$$$$
ETAM-pdb3hm0-A-LYS-138:MBZ-pdb3hm0-A-PHE-55
     RDKit          3D

 26 25  0  0  0  0  0  0  0  0999 V2000
   -2.0261   -4.5949   -0.4259 C   0  0  0  0  0  0  0  0  0  0  0  0
   -1.9697   -3.6704   -0.0628 H   0  0  0  0  0  0  0  0  0  0  0  0
   -2.9766   -4.8768   -0.5063 H   0  0  0  0  0  0  0  0  0  0  0  0
   -1.5662   -4.6138   -1.4140 H   0  0  0  0  0  0  0  0  0  0  0  0
   -1.3237   -5.5433    0.5567 C   0  0  0  0  0  0  0  0  0  0  0  0
   -1.9879   -5.8401    1.2465 H   0  0  0  0  0  0  0  0  0  0  0  0
   -0.9957   -6.3443    0.0514 H   0  0  0  0  0  0  0  0  0  0  0  0
   -0.1611   -4.8886    1.2444 N   0  0  0  0  0  4  0  0  0  0  0  0
    0.6873   -5.2267    0.8418 H   0  0  0  0  0  0  0  0  0  0  0  0
   -0.2259   -3.9008    1.1228 H   0  0  0  0  0  0  0  0  0  0  0  0
   -0.1894   -5.1135    2.2161 H   0  0  0  0  0  0  0  0  0  0  0  0
   -0.0091    2.8928   -0.0256 C   0  0  0  0  0  0  0  0  0  0  0  0
   -0.8219    3.1923   -0.5256 H   0  0  0  0  0  0  0  0  0  0  0  0
    0.8106    3.2049   -0.5061 H   0  0  0  0  0  0  0  0  0  0  0  0
   -0.0247    3.3911    0.9437 H   0  0  0  0  0  0  0  0  0  0  0  0
    0.0015    1.3990   -0.0081 C   0  0  0  0  0  0  0  0  0  0  0  0
   -1.1983    0.6921   -0.0084 C   0  0  0  0  0  0  0  0  0  0  0  0
   -2.0638    1.1940   -0.0168 H   0  0  0  0  0  0  0  0  0  0  0  0
   -1.2193   -0.6927   -0.0000 C   0  0  0  0  0  0  0  0  0  0  0  0
   -2.0880   -1.1862   -0.0099 H   0  0  0  0  0  0  0  0  0  0  0  0
   -0.0062   -1.3904    0.0261 C   0  0  0  0  0  0  0  0  0  0  0  0
   -0.0115   -2.3897    0.0617 H   0  0  0  0  0  0  0  0  0  0  0  0
    1.2193   -0.7008    0.0000 C   0  0  0  0  0  0  0  0  0  0  0  0
    2.0855   -1.2003   -0.0098 H   0  0  0  0  0  0  0  0  0  0  0  0
    1.2029    0.6928   -0.0096 C   0  0  0  0  0  0  0  0  0  0  0  0
    2.0697    1.1954   -0.0195 H   0  0  0  0  0  0  0  0  0  0  0  0
  1  5  1  0
  5  8  1  0
  1  2  1  0
  1  3  1  0
  1  4  1  0
  5  6  1  0
  5  7  1  0
  8  9  1  0
  8 10  1  0
  8 11  1  0
 12 16  1  0
 16 17  2  0
 17 19  1  0
 19 21  2  0
 21 23  1  0
 23 25  2  0
 25 16  1  0
 12 13  1  0
 12 14  1  0
 12 15  1  0
 17 18  1  0
 19 20  1  0
 21 22  1  0
 23 24  1  0
 25 26  1  0
M  CHG  1   8   1
M  END
>  <PDB_ID>  (1880) 
pdb3hm0

>  <RESIDUE_NAME>  (1880) 
LYS   PHE

>  <FRAG_NAME>  (1880) 
ETAM   MBZ

>  <FRAG_ATOM_NUM>  (1880) 
fragi: 11  fragj: 15

>  <atom.prop.CHAIN_ID>  (1880) 
A A A A A A A A A A A Z Z Z Z Z Z Z Z Z Z Z Z Z Z Z

>  <atom.prop.IS_HEAVY_ATOM>  (1880) 
1 0 0 0 1 0 0 1 0 0 0 1 0 0 0 1 1 0 1 0 1 0 1 0 1 0

>  <DIFUSE_FUNC_ATOM>  (1880) 
n/a

>  <FINAL_SINGLE_POINT_ENERGY>  (1880) 
0

>  <NONCOV_INTER_ENERGY_QM>  (1880) 
0

>  <FF_Energy>  (1880) 
0.94

>  <QM_Energy>  (1880) 
-4.14

>  <source>  (1880) 
ETAM_MBZ

>  <Index>  (1880) 
19160

$$$$
ETAM-pdb4ejq-F-LYS-588:MBZ-pdb4ejq-F-PHE-535
     RDKit          3D

 26 25  0  0  0  0  0  0  0  0999 V2000
    4.5198    0.0602    0.8822 C   0  0  0  0  0  0  0  0  0  0  0  0
    4.0384   -0.1797    0.0404 H   0  0  0  0  0  0  0  0  0  0  0  0
    5.4702   -0.2396    0.8236 H   0  0  0  0  0  0  0  0  0  0  0  0
    4.5028    1.1442    0.9955 H   0  0  0  0  0  0  0  0  0  0  0  0
    3.8542   -0.6597    2.0443 C   0  0  0  0  0  0  0  0  0  0  0  0
    4.3952   -0.5104    2.8734 H   0  0  0  0  0  0  0  0  0  0  0  0
    2.9356   -0.2854    2.1762 H   0  0  0  0  0  0  0  0  0  0  0  0
    3.7517   -2.1260    1.7845 N   0  0  0  0  0  4  0  0  0  0  0  0
    3.4417   -2.5868    2.6152 H   0  0  0  0  0  0  0  0  0  0  0  0
    3.0963   -2.2849    1.0474 H   0  0  0  0  0  0  0  0  0  0  0  0
    4.6479   -2.4772    1.5191 H   0  0  0  0  0  0  0  0  0  0  0  0
   -0.0177    2.8926   -0.0072 C   0  0  0  0  0  0  0  0  0  0  0  0
    0.7964    3.2069   -0.4674 H   0  0  0  0  0  0  0  0  0  0  0  0
   -0.0533    3.2063    0.9274 H   0  0  0  0  0  0  0  0  0  0  0  0
   -0.8793    3.3057   -0.5316 H   0  0  0  0  0  0  0  0  0  0  0  0
   -0.0010    1.3962    0.0031 C   0  0  0  0  0  0  0  0  0  0  0  0
   -1.1915    0.6880   -0.0013 C   0  0  0  0  0  0  0  0  0  0  0  0
   -2.0613    1.1788   -0.0070 H   0  0  0  0  0  0  0  0  0  0  0  0
   -1.1954   -0.6961   -0.0000 C   0  0  0  0  0  0  0  0  0  0  0  0
   -2.0735   -1.1910    0.0015 H   0  0  0  0  0  0  0  0  0  0  0  0
    0.0004   -1.3869    0.0007 C   0  0  0  0  0  0  0  0  0  0  0  0
   -0.0026   -2.3886    0.0012 H   0  0  0  0  0  0  0  0  0  0  0  0
    1.1954   -0.6935   -0.0000 C   0  0  0  0  0  0  0  0  0  0  0  0
    2.0786   -1.1922    0.0025 H   0  0  0  0  0  0  0  0  0  0  0  0
    1.1921    0.6923   -0.0025 C   0  0  0  0  0  0  0  0  0  0  0  0
    2.0608    1.1889   -0.0091 H   0  0  0  0  0  0  0  0  0  0  0  0
  1  5  1  0
  5  8  1  0
  1  2  1  0
  1  3  1  0
  1  4  1  0
  5  6  1  0
  5  7  1  0
  8  9  1  0
  8 10  1  0
  8 11  1  0
 12 16  1  0
 16 17  2  0
 17 19  1  0
 19 21  2  0
 21 23  1  0
 23 25  2  0
 25 16  1  0
 12 13  1  0
 12 14  1  0
 12 15  1  0
 17 18  1  0
 19 20  1  0
 21 22  1  0
 23 24  1  0
 25 26  1  0
M  CHG  1   8   1
M  END
>  <PDB_ID>  (1881) 
pdb4ejq

>  <RESIDUE_NAME>  (1881) 
LYS   PHE

>  <FRAG_NAME>  (1881) 
ETAM   MBZ

>  <FRAG_ATOM_NUM>  (1881) 
fragi: 11  fragj: 15

>  <atom.prop.CHAIN_ID>  (1881) 
A A A A A A A A A A A Z Z Z Z Z Z Z Z Z Z Z Z Z Z Z

>  <atom.prop.IS_HEAVY_ATOM>  (1881) 
1 0 0 0 1 0 0 1 0 0 0 1 0 0 0 1 1 0 1 0 1 0 1 0 1 0

>  <DIFUSE_FUNC_ATOM>  (1881) 
n/a

>  <FINAL_SINGLE_POINT_ENERGY>  (1881) 
0

>  <NONCOV_INTER_ENERGY_QM>  (1881) 
0

>  <FF_Energy>  (1881) 
1.44

>  <QM_Energy>  (1881) 
-5.03

>  <source>  (1881) 
ETAM_MBZ

>  <Index>  (1881) 
19199

$$$$
ETAM-pdb4ekx-A-LYS-117:MBZ-pdb4ekx-A-PHE-49
     RDKit          3D

 26 25  0  0  0  0  0  0  0  0999 V2000
    3.4104   -3.4194    0.8515 C   0  0  0  0  0  0  0  0  0  0  0  0
    3.8672   -2.6038    0.5104 H   0  0  0  0  0  0  0  0  0  0  0  0
    4.0651   -4.1608    0.9617 H   0  0  0  0  0  0  0  0  0  0  0  0
    2.9655   -3.1942    1.8208 H   0  0  0  0  0  0  0  0  0  0  0  0
    2.3593   -3.8461   -0.1568 C   0  0  0  0  0  0  0  0  0  0  0  0
    1.6774   -3.1081   -0.2510 H   0  0  0  0  0  0  0  0  0  0  0  0
    2.8014   -3.9771   -1.0548 H   0  0  0  0  0  0  0  0  0  0  0  0
    1.6562   -5.1077    0.2228 N   0  0  0  0  0  4  0  0  0  0  0  0
    0.9172   -4.8939    0.8598 H   0  0  0  0  0  0  0  0  0  0  0  0
    1.2803   -5.5347   -0.5984 H   0  0  0  0  0  0  0  0  0  0  0  0
    2.3063   -5.7289    0.6578 H   0  0  0  0  0  0  0  0  0  0  0  0
    0.0042    2.8946   -0.0103 C   0  0  0  0  0  0  0  0  0  0  0  0
    0.8656    3.2054    0.3602 H   0  0  0  0  0  0  0  0  0  0  0  0
   -0.7581    3.2070    0.5346 H   0  0  0  0  0  0  0  0  0  0  0  0
   -0.1023    3.3253   -1.0059 H   0  0  0  0  0  0  0  0  0  0  0  0
    0.0038    1.3928    0.0011 C   0  0  0  0  0  0  0  0  0  0  0  0
   -1.1898    0.6894    0.0023 C   0  0  0  0  0  0  0  0  0  0  0  0
   -2.0571    1.1839    0.0037 H   0  0  0  0  0  0  0  0  0  0  0  0
   -1.1978   -0.6932   -0.0000 C   0  0  0  0  0  0  0  0  0  0  0  0
   -2.0786   -1.1860    0.0006 H   0  0  0  0  0  0  0  0  0  0  0  0
   -0.0067   -1.3865   -0.0010 C   0  0  0  0  0  0  0  0  0  0  0  0
   -0.0052   -2.3856   -0.0030 H   0  0  0  0  0  0  0  0  0  0  0  0
    1.1978   -0.6882   -0.0000 C   0  0  0  0  0  0  0  0  0  0  0  0
    2.0765   -1.1954    0.0042 H   0  0  0  0  0  0  0  0  0  0  0  0
    1.1927    0.6857   -0.0024 C   0  0  0  0  0  0  0  0  0  0  0  0
    2.0632    1.1878   -0.0076 H   0  0  0  0  0  0  0  0  0  0  0  0
  1  5  1  0
  5  8  1  0
  1  2  1  0
  1  3  1  0
  1  4  1  0
  5  6  1  0
  5  7  1  0
  8  9  1  0
  8 10  1  0
  8 11  1  0
 12 16  1  0
 16 17  2  0
 17 19  1  0
 19 21  2  0
 21 23  1  0
 23 25  2  0
 25 16  1  0
 12 13  1  0
 12 14  1  0
 12 15  1  0
 17 18  1  0
 19 20  1  0
 21 22  1  0
 23 24  1  0
 25 26  1  0
M  CHG  1   8   1
M  END
>  <PDB_ID>  (1882) 
pdb4ekx

>  <RESIDUE_NAME>  (1882) 
LYS   PHE

>  <FRAG_NAME>  (1882) 
ETAM   MBZ

>  <FRAG_ATOM_NUM>  (1882) 
fragi: 11  fragj: 15

>  <atom.prop.CHAIN_ID>  (1882) 
A A A A A A A A A A A Z Z Z Z Z Z Z Z Z Z Z Z Z Z Z

>  <atom.prop.IS_HEAVY_ATOM>  (1882) 
1 0 0 0 1 0 0 1 0 0 0 1 0 0 0 1 1 0 1 0 1 0 1 0 1 0

>  <DIFUSE_FUNC_ATOM>  (1882) 
n/a

>  <FINAL_SINGLE_POINT_ENERGY>  (1882) 
0

>  <NONCOV_INTER_ENERGY_QM>  (1882) 
0

>  <FF_Energy>  (1882) 
7.67

>  <QM_Energy>  (1882) 
-1.71

>  <source>  (1882) 
ETAM_MBZ

>  <Index>  (1882) 
19219

$$$$
ETAM-pdb4eoz-D-LYS-174:MBZ-pdb4eoz-D-PHE-216
     RDKit          3D

 26 25  0  0  0  0  0  0  0  0999 V2000
   -4.3345   -3.7768   -1.1614 C   0  0  0  0  0  0  0  0  0  0  0  0
   -5.0387   -4.3727   -0.8055 H   0  0  0  0  0  0  0  0  0  0  0  0
   -3.4352   -4.0693   -0.8748 H   0  0  0  0  0  0  0  0  0  0  0  0
   -4.3785   -3.7957   -2.2504 H   0  0  0  0  0  0  0  0  0  0  0  0
   -4.5805   -2.3559   -0.6268 C   0  0  0  0  0  0  0  0  0  0  0  0
   -5.5622   -2.1881   -0.5964 H   0  0  0  0  0  0  0  0  0  0  0  0
   -4.1941   -2.2838    0.2889 H   0  0  0  0  0  0  0  0  0  0  0  0
   -3.9331   -1.3210   -1.5147 N   0  0  0  0  0  4  0  0  0  0  0  0
   -4.5731   -1.0719   -2.2367 H   0  0  0  0  0  0  0  0  0  0  0  0
   -3.7085   -0.5214   -0.9642 H   0  0  0  0  0  0  0  0  0  0  0  0
   -3.1055   -1.7097   -1.9094 H   0  0  0  0  0  0  0  0  0  0  0  0
   -0.0097    2.8832    0.0389 C   0  0  0  0  0  0  0  0  0  0  0  0
   -0.7615    3.2092   -0.5116 H   0  0  0  0  0  0  0  0  0  0  0  0
    0.8578    3.2148   -0.2960 H   0  0  0  0  0  0  0  0  0  0  0  0
   -0.1445    3.2827    1.0441 H   0  0  0  0  0  0  0  0  0  0  0  0
    0.0008    1.3982   -0.0037 C   0  0  0  0  0  0  0  0  0  0  0  0
   -1.1952    0.6901   -0.0018 C   0  0  0  0  0  0  0  0  0  0  0  0
   -2.0634    1.1792   -0.0031 H   0  0  0  0  0  0  0  0  0  0  0  0
   -1.2044   -0.7054    0.0000 C   0  0  0  0  0  0  0  0  0  0  0  0
   -2.0796   -1.1946    0.0029 H   0  0  0  0  0  0  0  0  0  0  0  0
   -0.0028   -1.3957    0.0001 C   0  0  0  0  0  0  0  0  0  0  0  0
    0.0053   -2.3920   -0.0002 H   0  0  0  0  0  0  0  0  0  0  0  0
    1.2044   -0.6867    0.0000 C   0  0  0  0  0  0  0  0  0  0  0  0
    2.0844   -1.1872   -0.0024 H   0  0  0  0  0  0  0  0  0  0  0  0
    1.1971    0.6996    0.0053 C   0  0  0  0  0  0  0  0  0  0  0  0
    2.0637    1.1995    0.0152 H   0  0  0  0  0  0  0  0  0  0  0  0
  1  5  1  0
  5  8  1  0
  1  2  1  0
  1  3  1  0
  1  4  1  0
  5  6  1  0
  5  7  1  0
  8  9  1  0
  8 10  1  0
  8 11  1  0
 12 16  1  0
 16 17  2  0
 17 19  1  0
 19 21  2  0
 21 23  1  0
 23 25  2  0
 25 16  1  0
 12 13  1  0
 12 14  1  0
 12 15  1  0
 17 18  1  0
 19 20  1  0
 21 22  1  0
 23 24  1  0
 25 26  1  0
M  CHG  1   8   1
M  END
>  <PDB_ID>  (1883) 
pdb4eoz

>  <RESIDUE_NAME>  (1883) 
LYS   PHE

>  <FRAG_NAME>  (1883) 
ETAM   MBZ

>  <FRAG_ATOM_NUM>  (1883) 
fragi: 11  fragj: 15

>  <atom.prop.CHAIN_ID>  (1883) 
A A A A A A A A A A A Z Z Z Z Z Z Z Z Z Z Z Z Z Z Z

>  <atom.prop.IS_HEAVY_ATOM>  (1883) 
1 0 0 0 1 0 0 1 0 0 0 1 0 0 0 1 1 0 1 0 1 0 1 0 1 0

>  <DIFUSE_FUNC_ATOM>  (1883) 
n/a

>  <FINAL_SINGLE_POINT_ENERGY>  (1883) 
0

>  <NONCOV_INTER_ENERGY_QM>  (1883) 
0

>  <FF_Energy>  (1883) 
2.41

>  <QM_Energy>  (1883) 
-4.48

>  <source>  (1883) 
ETAM_MBZ

>  <Index>  (1883) 
19239

$$$$
ETAM-pdb4edb-E-ASP-1:MBZ-pdb4edb-F-PHE-140
     RDKit          3D

 26 25  0  0  0  0  0  0  0  0999 V2000
   -4.1968   -1.0369    1.2279 C   0  0  0  0  0  0  0  0  0  0  0  0
   -4.5780   -0.1205    1.1975 H   0  0  0  0  0  0  0  0  0  0  0  0
   -3.2921   -1.0516    0.8198 H   0  0  0  0  0  0  0  0  0  0  0  0
   -4.8467   -1.7040    0.6617 H   0  0  0  0  0  0  0  0  0  0  0  0
   -4.0587   -1.4431    2.7029 C   0  0  0  0  0  0  0  0  0  0  0  0
   -4.2878   -2.4158    2.8181 H   0  0  0  0  0  0  0  0  0  0  0  0
   -3.0308   -1.3071    3.0392 H   0  0  0  0  0  0  0  0  0  0  0  0
   -5.0278   -0.6798    3.5479 N   0  0  0  0  0  4  0  0  0  0  0  0
   -5.5392   -1.3201    4.1145 H   0  0  0  0  0  0  0  0  0  0  0  0
   -4.5247   -0.0431    4.1250 H   0  0  0  0  0  0  0  0  0  0  0  0
   -5.6520   -0.1788    2.9543 H   0  0  0  0  0  0  0  0  0  0  0  0
    0.0186    2.9037   -0.0165 C   0  0  0  0  0  0  0  0  0  0  0  0
   -0.6109    3.2080   -0.7191 H   0  0  0  0  0  0  0  0  0  0  0  0
    0.9432    3.1983   -0.2182 H   0  0  0  0  0  0  0  0  0  0  0  0
   -0.2798    3.3787    0.9181 H   0  0  0  0  0  0  0  0  0  0  0  0
    0.0022    1.3996    0.0067 C   0  0  0  0  0  0  0  0  0  0  0  0
   -1.1967    0.6903   -0.0058 C   0  0  0  0  0  0  0  0  0  0  0  0
   -2.0610    1.1819   -0.0204 H   0  0  0  0  0  0  0  0  0  0  0  0
   -1.1977   -0.6952   -0.0000 C   0  0  0  0  0  0  0  0  0  0  0  0
   -2.0758   -1.1910    0.0027 H   0  0  0  0  0  0  0  0  0  0  0  0
   -0.0007   -1.3884    0.0035 C   0  0  0  0  0  0  0  0  0  0  0  0
   -0.0045   -2.3894    0.0076 H   0  0  0  0  0  0  0  0  0  0  0  0
    1.1977   -0.6953   -0.0000 C   0  0  0  0  0  0  0  0  0  0  0  0
    2.0789   -1.1961    0.0024 H   0  0  0  0  0  0  0  0  0  0  0  0
    1.1952    0.6891   -0.0044 C   0  0  0  0  0  0  0  0  0  0  0  0
    2.0645    1.1861   -0.0164 H   0  0  0  0  0  0  0  0  0  0  0  0
  1  5  1  0
  5  8  1  0
  1  2  1  0
  1  3  1  0
  1  4  1  0
  5  6  1  0
  5  7  1  0
  8  9  1  0
  8 10  1  0
  8 11  1  0
 12 16  1  0
 16 17  2  0
 17 19  1  0
 19 21  2  0
 21 23  1  0
 23 25  2  0
 25 16  1  0
 12 13  1  0
 12 14  1  0
 12 15  1  0
 17 18  1  0
 19 20  1  0
 21 22  1  0
 23 24  1  0
 25 26  1  0
M  CHG  1   8   1
M  END
>  <PDB_ID>  (1884) 
pdb4edb

>  <RESIDUE_NAME>  (1884) 
ASP   PHE

>  <FRAG_NAME>  (1884) 
ETAM   MBZ

>  <FRAG_ATOM_NUM>  (1884) 
fragi: 11  fragj: 15

>  <atom.prop.CHAIN_ID>  (1884) 
A A A A A A A A A A A Z Z Z Z Z Z Z Z Z Z Z Z Z Z Z

>  <atom.prop.IS_HEAVY_ATOM>  (1884) 
1 0 0 0 1 0 0 1 0 0 0 1 0 0 0 1 1 0 1 0 1 0 1 0 1 0

>  <DIFUSE_FUNC_ATOM>  (1884) 
n/a

>  <FINAL_SINGLE_POINT_ENERGY>  (1884) 
0

>  <NONCOV_INTER_ENERGY_QM>  (1884) 
0

>  <FF_Energy>  (1884) 
41.03

>  <QM_Energy>  (1884) 
2.36

>  <source>  (1884) 
ETAM_MBZ

>  <Index>  (1884) 
19252

$$$$
ETAM-pdb3hnq-C-LYS-65:MBZ-pdb3hnq-C-PHE-52
     RDKit          3D

 26 25  0  0  0  0  0  0  0  0999 V2000
    2.2814   -1.5235   -5.2139 C   0  0  0  0  0  0  0  0  0  0  0  0
    2.9020   -1.3713   -4.4495 H   0  0  0  0  0  0  0  0  0  0  0  0
    2.1562   -0.6785   -5.7267 H   0  0  0  0  0  0  0  0  0  0  0  0
    2.7190   -2.2722   -5.8742 H   0  0  0  0  0  0  0  0  0  0  0  0
    0.9282   -1.9606   -4.6618 C   0  0  0  0  0  0  0  0  0  0  0  0
    0.2599   -1.9654   -5.4169 H   0  0  0  0  0  0  0  0  0  0  0  0
    1.0125   -2.9025   -4.3114 H   0  0  0  0  0  0  0  0  0  0  0  0
    0.4359   -1.0779   -3.5774 N   0  0  0  0  0  4  0  0  0  0  0  0
   -0.4366   -0.6701   -3.8478 H   0  0  0  0  0  0  0  0  0  0  0  0
    0.3079   -1.6140   -2.7418 H   0  0  0  0  0  0  0  0  0  0  0  0
    1.1036   -0.3525   -3.4074 H   0  0  0  0  0  0  0  0  0  0  0  0
   -0.0079    2.8965    0.0169 C   0  0  0  0  0  0  0  0  0  0  0  0
   -0.9000    3.2054   -0.2784 H   0  0  0  0  0  0  0  0  0  0  0  0
    0.7034    3.2160   -0.5923 H   0  0  0  0  0  0  0  0  0  0  0  0
    0.1814    3.3257    1.0008 H   0  0  0  0  0  0  0  0  0  0  0  0
   -0.0010    1.4004    0.0003 C   0  0  0  0  0  0  0  0  0  0  0  0
   -1.1967    0.6925   -0.0000 C   0  0  0  0  0  0  0  0  0  0  0  0
   -2.0637    1.1839   -0.0012 H   0  0  0  0  0  0  0  0  0  0  0  0
   -1.2020   -0.6952   -0.0000 C   0  0  0  0  0  0  0  0  0  0  0  0
   -2.0794   -1.1893    0.0012 H   0  0  0  0  0  0  0  0  0  0  0  0
   -0.0020   -1.3935   -0.0000 C   0  0  0  0  0  0  0  0  0  0  0  0
   -0.0075   -2.3922   -0.0009 H   0  0  0  0  0  0  0  0  0  0  0  0
    1.2020   -0.7002    0.0000 C   0  0  0  0  0  0  0  0  0  0  0  0
    2.0812   -1.1975    0.0015 H   0  0  0  0  0  0  0  0  0  0  0  0
    1.1998    0.6960   -0.0003 C   0  0  0  0  0  0  0  0  0  0  0  0
    2.0655    1.1901   -0.0010 H   0  0  0  0  0  0  0  0  0  0  0  0
  1  5  1  0
  5  8  1  0
  1  2  1  0
  1  3  1  0
  1  4  1  0
  5  6  1  0
  5  7  1  0
  8  9  1  0
  8 10  1  0
  8 11  1  0
 12 16  1  0
 16 17  2  0
 17 19  1  0
 19 21  2  0
 21 23  1  0
 23 25  2  0
 25 16  1  0
 12 13  1  0
 12 14  1  0
 12 15  1  0
 17 18  1  0
 19 20  1  0
 21 22  1  0
 23 24  1  0
 25 26  1  0
M  CHG  1   8   1
M  END
>  <PDB_ID>  (1885) 
pdb3hnq

>  <RESIDUE_NAME>  (1885) 
LYS   PHE

>  <FRAG_NAME>  (1885) 
ETAM   MBZ

>  <FRAG_ATOM_NUM>  (1885) 
fragi: 11  fragj: 15

>  <atom.prop.CHAIN_ID>  (1885) 
A A A A A A A A A A A Z Z Z Z Z Z Z Z Z Z Z Z Z Z Z

>  <atom.prop.IS_HEAVY_ATOM>  (1885) 
1 0 0 0 1 0 0 1 0 0 0 1 0 0 0 1 1 0 1 0 1 0 1 0 1 0

>  <DIFUSE_FUNC_ATOM>  (1885) 
n/a

>  <FINAL_SINGLE_POINT_ENERGY>  (1885) 
0

>  <NONCOV_INTER_ENERGY_QM>  (1885) 
0

>  <FF_Energy>  (1885) 
-6.06

>  <QM_Energy>  (1885) 
-11.95

>  <source>  (1885) 
ETAM_MBZ

>  <Index>  (1885) 
19253

$$$$
ETAM-pdb3hpk-B-LYS-124:MBZ-pdb3hpk-B-PHE-53
     RDKit          3D

 26 25  0  0  0  0  0  0  0  0999 V2000
    1.7874   -0.6326    4.0654 C   0  0  0  0  0  0  0  0  0  0  0  0
    1.7617   -0.5768    5.0587 H   0  0  0  0  0  0  0  0  0  0  0  0
    2.6904   -0.3828    3.7297 H   0  0  0  0  0  0  0  0  0  0  0  0
    1.5389   -1.6445    3.7454 H   0  0  0  0  0  0  0  0  0  0  0  0
    0.7847    0.3775    3.5117 C   0  0  0  0  0  0  0  0  0  0  0  0
    1.0316    1.2958    3.8356 H   0  0  0  0  0  0  0  0  0  0  0  0
    0.8292    0.3675    2.5080 H   0  0  0  0  0  0  0  0  0  0  0  0
   -0.6397    0.0861    3.9327 N   0  0  0  0  0  4  0  0  0  0  0  0
   -0.7374   -0.8951    4.0706 H   0  0  0  0  0  0  0  0  0  0  0  0
   -0.8280    0.5731    4.7798 H   0  0  0  0  0  0  0  0  0  0  0  0
   -1.2542    0.3954    3.2135 H   0  0  0  0  0  0  0  0  0  0  0  0
    0.0015    2.9155   -0.0078 C   0  0  0  0  0  0  0  0  0  0  0  0
    0.6823    3.2211    0.6368 H   0  0  0  0  0  0  0  0  0  0  0  0
   -0.9028    3.2188    0.2434 H   0  0  0  0  0  0  0  0  0  0  0  0
    0.2419    3.3468   -0.9795 H   0  0  0  0  0  0  0  0  0  0  0  0
    0.0018    1.4022    0.0001 C   0  0  0  0  0  0  0  0  0  0  0  0
   -1.1977    0.6965   -0.0098 C   0  0  0  0  0  0  0  0  0  0  0  0
   -2.0622    1.1848   -0.0254 H   0  0  0  0  0  0  0  0  0  0  0  0
   -1.1997   -0.6963    0.0000 C   0  0  0  0  0  0  0  0  0  0  0  0
   -2.0771   -1.1893    0.0033 H   0  0  0  0  0  0  0  0  0  0  0  0
   -0.0006   -1.3905    0.0072 C   0  0  0  0  0  0  0  0  0  0  0  0
   -0.0068   -2.3919    0.0170 H   0  0  0  0  0  0  0  0  0  0  0  0
    1.1997   -0.7011    0.0000 C   0  0  0  0  0  0  0  0  0  0  0  0
    2.0803   -1.1996   -0.0052 H   0  0  0  0  0  0  0  0  0  0  0  0
    1.1965    0.6892    0.0025 C   0  0  0  0  0  0  0  0  0  0  0  0
    2.0664    1.1849    0.0058 H   0  0  0  0  0  0  0  0  0  0  0  0
  1  5  1  0
  5  8  1  0
  1  2  1  0
  1  3  1  0
  1  4  1  0
  5  6  1  0
  5  7  1  0
  8  9  1  0
  8 10  1  0
  8 11  1  0
 12 16  1  0
 16 17  2  0
 17 19  1  0
 19 21  2  0
 21 23  1  0
 23 25  2  0
 25 16  1  0
 12 13  1  0
 12 14  1  0
 12 15  1  0
 17 18  1  0
 19 20  1  0
 21 22  1  0
 23 24  1  0
 25 26  1  0
M  CHG  1   8   1
M  END
>  <PDB_ID>  (1886) 
pdb3hpk

>  <RESIDUE_NAME>  (1886) 
LYS   PHE

>  <FRAG_NAME>  (1886) 
ETAM   MBZ

>  <FRAG_ATOM_NUM>  (1886) 
fragi: 11  fragj: 15

>  <atom.prop.CHAIN_ID>  (1886) 
A A A A A A A A A A A Z Z Z Z Z Z Z Z Z Z Z Z Z Z Z

>  <atom.prop.IS_HEAVY_ATOM>  (1886) 
1 0 0 0 1 0 0 1 0 0 0 1 0 0 0 1 1 0 1 0 1 0 1 0 1 0

>  <DIFUSE_FUNC_ATOM>  (1886) 
n/a

>  <FINAL_SINGLE_POINT_ENERGY>  (1886) 
0

>  <NONCOV_INTER_ENERGY_QM>  (1886) 
0

>  <FF_Energy>  (1886) 
-6.11

>  <QM_Energy>  (1886) 
-11.51

>  <source>  (1886) 
ETAM_MBZ

>  <Index>  (1886) 
19258

$$$$
ETAM-pdb3hqc-A-LYS-1402:MBZ-pdb3hqc-A-PHE-1399
     RDKit          3D

 26 25  0  0  0  0  0  0  0  0999 V2000
   -4.4782    2.4417   -0.7019 C   0  0  0  0  0  0  0  0  0  0  0  0
   -3.8864    2.4127    0.1061 H   0  0  0  0  0  0  0  0  0  0  0  0
   -5.3934    2.1216   -0.4516 H   0  0  0  0  0  0  0  0  0  0  0  0
   -4.5496    3.4734   -1.0465 H   0  0  0  0  0  0  0  0  0  0  0  0
   -3.9104    1.5141   -1.7506 C   0  0  0  0  0  0  0  0  0  0  0  0
   -4.4994    1.5333   -2.5594 H   0  0  0  0  0  0  0  0  0  0  0  0
   -2.9924    1.8244   -2.0017 H   0  0  0  0  0  0  0  0  0  0  0  0
   -3.8318    0.1243   -1.2369 N   0  0  0  0  0  4  0  0  0  0  0  0
   -3.6389    0.1413   -0.2559 H   0  0  0  0  0  0  0  0  0  0  0  0
   -4.7032   -0.3403   -1.3972 H   0  0  0  0  0  0  0  0  0  0  0  0
   -3.1006   -0.3666   -1.7118 H   0  0  0  0  0  0  0  0  0  0  0  0
    0.0308    2.8796    0.0477 C   0  0  0  0  0  0  0  0  0  0  0  0
    0.9104    3.1820   -0.3050 H   0  0  0  0  0  0  0  0  0  0  0  0
   -0.0767    3.1653    0.9957 H   0  0  0  0  0  0  0  0  0  0  0  0
   -0.7495    3.3659   -0.5377 H   0  0  0  0  0  0  0  0  0  0  0  0
    0.0005    1.3963    0.0048 C   0  0  0  0  0  0  0  0  0  0  0  0
   -1.1922    0.7005   -0.0078 C   0  0  0  0  0  0  0  0  0  0  0  0
   -2.0591    1.1819   -0.0240 H   0  0  0  0  0  0  0  0  0  0  0  0
   -1.1903   -0.6985    0.0000 C   0  0  0  0  0  0  0  0  0  0  0  0
   -2.0701   -1.1872    0.0194 H   0  0  0  0  0  0  0  0  0  0  0  0
    0.0018   -1.3798   -0.0171 C   0  0  0  0  0  0  0  0  0  0  0  0
   -0.0060   -2.3898   -0.0434 H   0  0  0  0  0  0  0  0  0  0  0  0
    1.1903   -0.7042   -0.0000 C   0  0  0  0  0  0  0  0  0  0  0  0
    2.0751   -1.1992   -0.0006 H   0  0  0  0  0  0  0  0  0  0  0  0
    1.1900    0.6857    0.0201 C   0  0  0  0  0  0  0  0  0  0  0  0
    2.0612    1.1779    0.0455 H   0  0  0  0  0  0  0  0  0  0  0  0
  1  5  1  0
  5  8  1  0
  1  2  1  0
  1  3  1  0
  1  4  1  0
  5  6  1  0
  5  7  1  0
  8  9  1  0
  8 10  1  0
  8 11  1  0
 12 16  1  0
 16 17  2  0
 17 19  1  0
 19 21  2  0
 21 23  1  0
 23 25  2  0
 25 16  1  0
 12 13  1  0
 12 14  1  0
 12 15  1  0
 17 18  1  0
 19 20  1  0
 21 22  1  0
 23 24  1  0
 25 26  1  0
M  CHG  1   8   1
M  END
>  <PDB_ID>  (1887) 
pdb3hqc

>  <RESIDUE_NAME>  (1887) 
LYS   PHE

>  <FRAG_NAME>  (1887) 
ETAM   MBZ

>  <FRAG_ATOM_NUM>  (1887) 
fragi: 11  fragj: 15

>  <atom.prop.CHAIN_ID>  (1887) 
A A A A A A A A A A A Z Z Z Z Z Z Z Z Z Z Z Z Z Z Z

>  <atom.prop.IS_HEAVY_ATOM>  (1887) 
1 0 0 0 1 0 0 1 0 0 0 1 0 0 0 1 1 0 1 0 1 0 1 0 1 0

>  <DIFUSE_FUNC_ATOM>  (1887) 
n/a

>  <FINAL_SINGLE_POINT_ENERGY>  (1887) 
0

>  <NONCOV_INTER_ENERGY_QM>  (1887) 
0

>  <FF_Energy>  (1887) 
5.87

>  <QM_Energy>  (1887) 
-4.82

>  <source>  (1887) 
ETAM_MBZ

>  <Index>  (1887) 
19267

$$$$
ETAM-pdb3hp7-A-LYS-72:MBZ-pdb3hp7-A-PHE-228
     RDKit          3D

 26 25  0  0  0  0  0  0  0  0999 V2000
   -1.9844   -0.0396    5.4208 C   0  0  0  0  0  0  0  0  0  0  0  0
   -2.7028   -0.6535    5.1100 H   0  0  0  0  0  0  0  0  0  0  0  0
   -2.1619    0.8868    5.1056 H   0  0  0  0  0  0  0  0  0  0  0  0
   -1.9707   -0.0417    6.5108 H   0  0  0  0  0  0  0  0  0  0  0  0
   -0.6690   -0.5032    4.8694 C   0  0  0  0  0  0  0  0  0  0  0  0
    0.0483    0.1443    5.1436 H   0  0  0  0  0  0  0  0  0  0  0  0
   -0.4519   -1.4056    5.2544 H   0  0  0  0  0  0  0  0  0  0  0  0
   -0.7179   -0.5918    3.4106 N   0  0  0  0  0  4  0  0  0  0  0  0
   -1.4671   -0.0255    3.0565 H   0  0  0  0  0  0  0  0  0  0  0  0
    0.1478   -0.2691    3.0162 H   0  0  0  0  0  0  0  0  0  0  0  0
   -0.8682   -1.5431    3.1285 H   0  0  0  0  0  0  0  0  0  0  0  0
   -0.0390    2.8698    0.0285 C   0  0  0  0  0  0  0  0  0  0  0  0
   -0.8555    3.1812   -0.4378 H   0  0  0  0  0  0  0  0  0  0  0  0
    0.7770    3.2080   -0.4198 H   0  0  0  0  0  0  0  0  0  0  0  0
   -0.0574    3.3081    1.0263 H   0  0  0  0  0  0  0  0  0  0  0  0
   -0.0140    1.3877    0.0162 C   0  0  0  0  0  0  0  0  0  0  0  0
   -1.1984    0.6727   -0.0081 C   0  0  0  0  0  0  0  0  0  0  0  0
   -2.0695    1.1687   -0.0337 H   0  0  0  0  0  0  0  0  0  0  0  0
   -1.1970   -0.6920   -0.0000 C   0  0  0  0  0  0  0  0  0  0  0  0
   -2.0608   -1.2069    0.0189 H   0  0  0  0  0  0  0  0  0  0  0  0
    0.0208   -1.3817   -0.0161 C   0  0  0  0  0  0  0  0  0  0  0  0
    0.0115   -2.3828   -0.0399 H   0  0  0  0  0  0  0  0  0  0  0  0
    1.1970   -0.6852    0.0000 C   0  0  0  0  0  0  0  0  0  0  0  0
    2.0914   -1.1769    0.0079 H   0  0  0  0  0  0  0  0  0  0  0  0
    1.1917    0.6984    0.0080 C   0  0  0  0  0  0  0  0  0  0  0  0
    2.0511    1.2018    0.0068 H   0  0  0  0  0  0  0  0  0  0  0  0
  1  5  1  0
  5  8  1  0
  1  2  1  0
  1  3  1  0
  1  4  1  0
  5  6  1  0
  5  7  1  0
  8  9  1  0
  8 10  1  0
  8 11  1  0
 12 16  1  0
 16 17  2  0
 17 19  1  0
 19 21  2  0
 21 23  1  0
 23 25  2  0
 25 16  1  0
 12 13  1  0
 12 14  1  0
 12 15  1  0
 17 18  1  0
 19 20  1  0
 21 22  1  0
 23 24  1  0
 25 26  1  0
M  CHG  1   8   1
M  END
>  <PDB_ID>  (1888) 
pdb3hp7

>  <RESIDUE_NAME>  (1888) 
LYS   PHE

>  <FRAG_NAME>  (1888) 
ETAM   MBZ

>  <FRAG_ATOM_NUM>  (1888) 
fragi: 11  fragj: 15

>  <atom.prop.CHAIN_ID>  (1888) 
A A A A A A A A A A A Z Z Z Z Z Z Z Z Z Z Z Z Z Z Z

>  <atom.prop.IS_HEAVY_ATOM>  (1888) 
1 0 0 0 1 0 0 1 0 0 0 1 0 0 0 1 1 0 1 0 1 0 1 0 1 0

>  <DIFUSE_FUNC_ATOM>  (1888) 
n/a

>  <FINAL_SINGLE_POINT_ENERGY>  (1888) 
0

>  <NONCOV_INTER_ENERGY_QM>  (1888) 
0

>  <FF_Energy>  (1888) 
-7.08

>  <QM_Energy>  (1888) 
-12.95

>  <source>  (1888) 
ETAM_MBZ

>  <Index>  (1888) 
19284

$$$$
ETAM-pdb4esf-A-LYS-99:MBZ-pdb4esf-A-PHE-95
     RDKit          3D

 26 25  0  0  0  0  0  0  0  0999 V2000
   -1.6097   -0.9284    4.7932 C   0  0  0  0  0  0  0  0  0  0  0  0
   -1.7215   -1.8296    5.2066 H   0  0  0  0  0  0  0  0  0  0  0  0
   -1.7233   -0.2197    5.4852 H   0  0  0  0  0  0  0  0  0  0  0  0
   -0.6027   -0.8566    4.3823 H   0  0  0  0  0  0  0  0  0  0  0  0
   -2.6830   -0.7448    3.7292 C   0  0  0  0  0  0  0  0  0  0  0  0
   -3.5789   -0.8780    4.1521 H   0  0  0  0  0  0  0  0  0  0  0  0
   -2.6196    0.1844    3.3669 H   0  0  0  0  0  0  0  0  0  0  0  0
   -2.4974   -1.7165    2.6407 N   0  0  0  0  0  4  0  0  0  0  0  0
   -1.9351   -2.4830    2.9601 H   0  0  0  0  0  0  0  0  0  0  0  0
   -3.3880   -2.0654    2.3406 H   0  0  0  0  0  0  0  0  0  0  0  0
   -2.0400   -1.2758    1.8652 H   0  0  0  0  0  0  0  0  0  0  0  0
   -0.0065    2.9023    0.0071 C   0  0  0  0  0  0  0  0  0  0  0  0
   -0.7218    3.2107   -0.5976 H   0  0  0  0  0  0  0  0  0  0  0  0
    0.8822    3.2122   -0.2875 H   0  0  0  0  0  0  0  0  0  0  0  0
   -0.1974    3.3257    0.9932 H   0  0  0  0  0  0  0  0  0  0  0  0
   -0.0028    1.3948   -0.0055 C   0  0  0  0  0  0  0  0  0  0  0  0
   -1.1960    0.6875   -0.0053 C   0  0  0  0  0  0  0  0  0  0  0  0
   -2.0628    1.1799   -0.0103 H   0  0  0  0  0  0  0  0  0  0  0  0
   -1.1932   -0.6884    0.0000 C   0  0  0  0  0  0  0  0  0  0  0  0
   -2.0700   -1.1921    0.0030 H   0  0  0  0  0  0  0  0  0  0  0  0
    0.0057   -1.3820    0.0032 C   0  0  0  0  0  0  0  0  0  0  0  0
   -0.0067   -2.3859    0.0069 H   0  0  0  0  0  0  0  0  0  0  0  0
    1.1932   -0.6994   -0.0000 C   0  0  0  0  0  0  0  0  0  0  0  0
    2.0790   -1.1962   -0.0066 H   0  0  0  0  0  0  0  0  0  0  0  0
    1.1931    0.6875    0.0077 C   0  0  0  0  0  0  0  0  0  0  0  0
    2.0604    1.1833    0.0217 H   0  0  0  0  0  0  0  0  0  0  0  0
  1  5  1  0
  5  8  1  0
  1  2  1  0
  1  3  1  0
  1  4  1  0
  5  6  1  0
  5  7  1  0
  8  9  1  0
  8 10  1  0
  8 11  1  0
 12 16  1  0
 16 17  2  0
 17 19  1  0
 19 21  2  0
 21 23  1  0
 23 25  2  0
 25 16  1  0
 12 13  1  0
 12 14  1  0
 12 15  1  0
 17 18  1  0
 19 20  1  0
 21 22  1  0
 23 24  1  0
 25 26  1  0
M  CHG  1   8   1
M  END
>  <PDB_ID>  (1889) 
pdb4esf

>  <RESIDUE_NAME>  (1889) 
LYS   PHE

>  <FRAG_NAME>  (1889) 
ETAM   MBZ

>  <FRAG_ATOM_NUM>  (1889) 
fragi: 11  fragj: 15

>  <atom.prop.CHAIN_ID>  (1889) 
A A A A A A A A A A A Z Z Z Z Z Z Z Z Z Z Z Z Z Z Z

>  <atom.prop.IS_HEAVY_ATOM>  (1889) 
1 0 0 0 1 0 0 1 0 0 0 1 0 0 0 1 1 0 1 0 1 0 1 0 1 0

>  <DIFUSE_FUNC_ATOM>  (1889) 
n/a

>  <FINAL_SINGLE_POINT_ENERGY>  (1889) 
0

>  <NONCOV_INTER_ENERGY_QM>  (1889) 
0

>  <FF_Energy>  (1889) 
-2.49

>  <QM_Energy>  (1889) 
-10.29

>  <source>  (1889) 
ETAM_MBZ

>  <Index>  (1889) 
19338

$$$$
ETAM-pdb3htk-C-LYS-91:MBZ-pdb3htk-C-PHE-22
     RDKit          3D

 26 25  0  0  0  0  0  0  0  0999 V2000
   -1.8468   -2.5228    4.7024 C   0  0  0  0  0  0  0  0  0  0  0  0
   -2.5117   -1.8320    4.9812 H   0  0  0  0  0  0  0  0  0  0  0  0
   -1.8556   -3.2816    5.3510 H   0  0  0  0  0  0  0  0  0  0  0  0
   -2.1203   -2.8971    3.7158 H   0  0  0  0  0  0  0  0  0  0  0  0
   -0.4579   -1.8898    4.7224 C   0  0  0  0  0  0  0  0  0  0  0  0
   -0.2383   -1.6291    5.6704 H   0  0  0  0  0  0  0  0  0  0  0  0
    0.2128   -2.5784    4.4209 H   0  0  0  0  0  0  0  0  0  0  0  0
   -0.3620   -0.6967    3.8499 N   0  0  0  0  0  4  0  0  0  0  0  0
   -1.2600   -0.2606    3.7774 H   0  0  0  0  0  0  0  0  0  0  0  0
    0.2914   -0.0473    4.2403 H   0  0  0  0  0  0  0  0  0  0  0  0
   -0.0521   -0.9721    2.9388 H   0  0  0  0  0  0  0  0  0  0  0  0
    0.0057    2.9155    0.0181 C   0  0  0  0  0  0  0  0  0  0  0  0
   -0.6119    3.2316   -0.6856 H   0  0  0  0  0  0  0  0  0  0  0  0
    0.9312    3.2187   -0.1496 H   0  0  0  0  0  0  0  0  0  0  0  0
   -0.3200    3.3426    0.9666 H   0  0  0  0  0  0  0  0  0  0  0  0
   -0.0013    1.4127    0.0007 C   0  0  0  0  0  0  0  0  0  0  0  0
   -1.2068    0.7048   -0.0013 C   0  0  0  0  0  0  0  0  0  0  0  0
   -2.0699    1.1927   -0.0050 H   0  0  0  0  0  0  0  0  0  0  0  0
   -1.2122   -0.6991   -0.0000 C   0  0  0  0  0  0  0  0  0  0  0  0
   -2.0836   -1.1930    0.0020 H   0  0  0  0  0  0  0  0  0  0  0  0
    0.0068   -1.4104    0.0000 C   0  0  0  0  0  0  0  0  0  0  0  0
   -0.0052   -2.4019   -0.0007 H   0  0  0  0  0  0  0  0  0  0  0  0
    1.2122   -0.7072    0.0000 C   0  0  0  0  0  0  0  0  0  0  0  0
    2.0930   -1.1959    0.0010 H   0  0  0  0  0  0  0  0  0  0  0  0
    1.2012    0.6992    0.0005 C   0  0  0  0  0  0  0  0  0  0  0  0
    2.0690    1.1925    0.0001 H   0  0  0  0  0  0  0  0  0  0  0  0
  1  5  1  0
  5  8  1  0
  1  2  1  0
  1  3  1  0
  1  4  1  0
  5  6  1  0
  5  7  1  0
  8  9  1  0
  8 10  1  0
  8 11  1  0
 12 16  1  0
 16 17  2  0
 17 19  1  0
 19 21  2  0
 21 23  1  0
 23 25  2  0
 25 16  1  0
 12 13  1  0
 12 14  1  0
 12 15  1  0
 17 18  1  0
 19 20  1  0
 21 22  1  0
 23 24  1  0
 25 26  1  0
M  CHG  1   8   1
M  END
>  <PDB_ID>  (1890) 
pdb3htk

>  <RESIDUE_NAME>  (1890) 
LYS   PHE

>  <FRAG_NAME>  (1890) 
ETAM   MBZ

>  <FRAG_ATOM_NUM>  (1890) 
fragi: 11  fragj: 15

>  <atom.prop.CHAIN_ID>  (1890) 
A A A A A A A A A A A Z Z Z Z Z Z Z Z Z Z Z Z Z Z Z

>  <atom.prop.IS_HEAVY_ATOM>  (1890) 
1 0 0 0 1 0 0 1 0 0 0 1 0 0 0 1 1 0 1 0 1 0 1 0 1 0

>  <DIFUSE_FUNC_ATOM>  (1890) 
n/a

>  <FINAL_SINGLE_POINT_ENERGY>  (1890) 
0

>  <NONCOV_INTER_ENERGY_QM>  (1890) 
0

>  <FF_Energy>  (1890) 
-5.95

>  <QM_Energy>  (1890) 
-11.36

>  <source>  (1890) 
ETAM_MBZ

>  <Index>  (1890) 
19345

$$$$
ETAM-pdb3hq6-B-LYS-52:MBZ-pdb3hq6-B-PHE-162
     RDKit          3D

 26 25  0  0  0  0  0  0  0  0999 V2000
   -1.3262   -3.2076   -3.5711 C   0  0  0  0  0  0  0  0  0  0  0  0
   -1.8950   -3.5473   -4.3293 H   0  0  0  0  0  0  0  0  0  0  0  0
   -1.5625   -3.7237   -2.7406 H   0  0  0  0  0  0  0  0  0  0  0  0
   -0.2770   -3.3819   -3.8100 H   0  0  0  0  0  0  0  0  0  0  0  0
   -1.6806   -1.7415   -3.3338 C   0  0  0  0  0  0  0  0  0  0  0  0
   -1.2007   -1.4019   -2.5663 H   0  0  0  0  0  0  0  0  0  0  0  0
   -1.5676   -1.2340   -4.1487 H   0  0  0  0  0  0  0  0  0  0  0  0
   -3.1944   -1.7598   -2.9856 N   0  0  0  0  0  4  0  0  0  0  0  0
   -3.6862   -2.0208   -3.8030 H   0  0  0  0  0  0  0  0  0  0  0  0
   -3.3269   -2.4201   -2.2610 H   0  0  0  0  0  0  0  0  0  0  0  0
   -3.4440   -0.8489   -2.6917 H   0  0  0  0  0  0  0  0  0  0  0  0
   -0.0473    2.9417   -0.0043 C   0  0  0  0  0  0  0  0  0  0  0  0
    0.8320    3.2568    0.3275 H   0  0  0  0  0  0  0  0  0  0  0  0
   -0.7758    3.2187    0.6092 H   0  0  0  0  0  0  0  0  0  0  0  0
   -0.2286    3.4024   -0.9754 H   0  0  0  0  0  0  0  0  0  0  0  0
   -0.0146    1.4307   -0.0238 C   0  0  0  0  0  0  0  0  0  0  0  0
   -1.2095    0.6995    0.0029 C   0  0  0  0  0  0  0  0  0  0  0  0
   -2.0883    1.1712    0.0241 H   0  0  0  0  0  0  0  0  0  0  0  0
   -1.2419   -0.7552    0.0000 C   0  0  0  0  0  0  0  0  0  0  0  0
   -2.0915   -1.2234    0.0003 H   0  0  0  0  0  0  0  0  0  0  0  0
    0.0100   -1.4331   -0.0013 C   0  0  0  0  0  0  0  0  0  0  0  0
    0.0407   -2.4195   -0.0039 H   0  0  0  0  0  0  0  0  0  0  0  0
    1.2419   -0.6812   -0.0000 C   0  0  0  0  0  0  0  0  0  0  0  0
    2.1173   -1.1660   -0.0132 H   0  0  0  0  0  0  0  0  0  0  0  0
    1.2141    0.7393    0.0222 C   0  0  0  0  0  0  0  0  0  0  0  0
    2.0649    1.2424    0.0694 H   0  0  0  0  0  0  0  0  0  0  0  0
  1  5  1  0
  5  8  1  0
  1  2  1  0
  1  3  1  0
  1  4  1  0
  5  6  1  0
  5  7  1  0
  8  9  1  0
  8 10  1  0
  8 11  1  0
 12 16  1  0
 16 17  2  0
 17 19  1  0
 19 21  2  0
 21 23  1  0
 23 25  2  0
 25 16  1  0
 12 13  1  0
 12 14  1  0
 12 15  1  0
 17 18  1  0
 19 20  1  0
 21 22  1  0
 23 24  1  0
 25 26  1  0
M  CHG  1   8   1
M  END
>  <PDB_ID>  (1891) 
pdb3hq6

>  <RESIDUE_NAME>  (1891) 
LYS   PHE

>  <FRAG_NAME>  (1891) 
ETAM   MBZ

>  <FRAG_ATOM_NUM>  (1891) 
fragi: 11  fragj: 15

>  <atom.prop.CHAIN_ID>  (1891) 
A A A A A A A A A A A Z Z Z Z Z Z Z Z Z Z Z Z Z Z Z

>  <atom.prop.IS_HEAVY_ATOM>  (1891) 
1 0 0 0 1 0 0 1 0 0 0 1 0 0 0 1 1 0 1 0 1 0 1 0 1 0

>  <DIFUSE_FUNC_ATOM>  (1891) 
n/a

>  <FINAL_SINGLE_POINT_ENERGY>  (1891) 
0

>  <NONCOV_INTER_ENERGY_QM>  (1891) 
0

>  <FF_Energy>  (1891) 
-2.2

>  <QM_Energy>  (1891) 
-7.34

>  <source>  (1891) 
ETAM_MBZ

>  <Index>  (1891) 
19351

$$$$
ETAM-pdb3hum-A-LYS-249:MBZ-pdb3hum-A-PHE-243
     RDKit          3D

 26 25  0  0  0  0  0  0  0  0999 V2000
   -1.8188    0.2141    3.8097 C   0  0  0  0  0  0  0  0  0  0  0  0
   -2.2281   -0.5250    4.3298 H   0  0  0  0  0  0  0  0  0  0  0  0
   -2.0755    0.1577    2.8536 H   0  0  0  0  0  0  0  0  0  0  0  0
   -2.1751    1.1623    4.2125 H   0  0  0  0  0  0  0  0  0  0  0  0
   -0.3292    0.1354    3.9270 C   0  0  0  0  0  0  0  0  0  0  0  0
    0.1016    0.6465    3.1861 H   0  0  0  0  0  0  0  0  0  0  0  0
   -0.0328    0.5046    4.8067 H   0  0  0  0  0  0  0  0  0  0  0  0
    0.1450   -1.3086    3.8397 N   0  0  0  0  0  4  0  0  0  0  0  0
   -0.0372   -1.7523    4.7103 H   0  0  0  0  0  0  0  0  0  0  0  0
   -0.3549   -1.7596    3.1085 H   0  0  0  0  0  0  0  0  0  0  0  0
    1.1198   -1.3085    3.6457 H   0  0  0  0  0  0  0  0  0  0  0  0
    0.0011    2.9371   -0.0052 C   0  0  0  0  0  0  0  0  0  0  0  0
    0.9124    3.2394   -0.2248 H   0  0  0  0  0  0  0  0  0  0  0  0
   -0.2803    3.2339    0.8906 H   0  0  0  0  0  0  0  0  0  0  0  0
   -0.6804    3.3806   -0.7311 H   0  0  0  0  0  0  0  0  0  0  0  0
    0.0079    1.4039   -0.0047 C   0  0  0  0  0  0  0  0  0  0  0  0
   -1.1918    0.6809   -0.0078 C   0  0  0  0  0  0  0  0  0  0  0  0
   -2.0590    1.1759   -0.0167 H   0  0  0  0  0  0  0  0  0  0  0  0
   -1.1981   -0.7041   -0.0000 C   0  0  0  0  0  0  0  0  0  0  0  0
   -2.0736   -1.1991    0.0077 H   0  0  0  0  0  0  0  0  0  0  0  0
    0.0006   -1.3892   -0.0009 C   0  0  0  0  0  0  0  0  0  0  0  0
    0.0003   -2.3925   -0.0029 H   0  0  0  0  0  0  0  0  0  0  0  0
    1.1981   -0.6968   -0.0000 C   0  0  0  0  0  0  0  0  0  0  0  0
    2.0811   -1.1827   -0.0075 H   0  0  0  0  0  0  0  0  0  0  0  0
    1.1833    0.7052    0.0134 C   0  0  0  0  0  0  0  0  0  0  0  0
    2.0627    1.1922    0.0364 H   0  0  0  0  0  0  0  0  0  0  0  0
  1  5  1  0
  5  8  1  0
  1  2  1  0
  1  3  1  0
  1  4  1  0
  5  6  1  0
  5  7  1  0
  8  9  1  0
  8 10  1  0
  8 11  1  0
 12 16  1  0
 16 17  2  0
 17 19  1  0
 19 21  2  0
 21 23  1  0
 23 25  2  0
 25 16  1  0
 12 13  1  0
 12 14  1  0
 12 15  1  0
 17 18  1  0
 19 20  1  0
 21 22  1  0
 23 24  1  0
 25 26  1  0
M  CHG  1   8   1
M  END
>  <PDB_ID>  (1892) 
pdb3hum

>  <RESIDUE_NAME>  (1892) 
LYS   PHE

>  <FRAG_NAME>  (1892) 
ETAM   MBZ

>  <FRAG_ATOM_NUM>  (1892) 
fragi: 11  fragj: 15

>  <atom.prop.CHAIN_ID>  (1892) 
A A A A A A A A A A A Z Z Z Z Z Z Z Z Z Z Z Z Z Z Z

>  <atom.prop.IS_HEAVY_ATOM>  (1892) 
1 0 0 0 1 0 0 1 0 0 0 1 0 0 0 1 1 0 1 0 1 0 1 0 1 0

>  <DIFUSE_FUNC_ATOM>  (1892) 
n/a

>  <FINAL_SINGLE_POINT_ENERGY>  (1892) 
0

>  <NONCOV_INTER_ENERGY_QM>  (1892) 
0

>  <FF_Energy>  (1892) 
-6.34

>  <QM_Energy>  (1892) 
-11.35

>  <source>  (1892) 
ETAM_MBZ

>  <Index>  (1892) 
19368

$$$$
ETAM-pdb3huj-F-LYS-143:MBZ-pdb3huj-E-PHE-173
     RDKit          3D

 26 25  0  0  0  0  0  0  0  0999 V2000
    2.3822   -0.4052   -3.9763 C   0  0  0  0  0  0  0  0  0  0  0  0
    3.1876   -0.6565   -3.4454 H   0  0  0  0  0  0  0  0  0  0  0  0
    2.2006    0.5704   -3.8789 H   0  0  0  0  0  0  0  0  0  0  0  0
    2.5732   -0.6232   -5.0271 H   0  0  0  0  0  0  0  0  0  0  0  0
    1.1850   -1.1770   -3.4352 C   0  0  0  0  0  0  0  0  0  0  0  0
    1.1236   -2.0619   -3.9170 H   0  0  0  0  0  0  0  0  0  0  0  0
    1.3370   -1.3674   -2.4550 H   0  0  0  0  0  0  0  0  0  0  0  0
   -0.1139   -0.4513   -3.5905 N   0  0  0  0  0  4  0  0  0  0  0  0
   -0.8626   -1.1108   -3.5672 H   0  0  0  0  0  0  0  0  0  0  0  0
   -0.2155    0.2022   -2.8424 H   0  0  0  0  0  0  0  0  0  0  0  0
   -0.1167    0.0321   -4.4644 H   0  0  0  0  0  0  0  0  0  0  0  0
    0.0031    2.9018    0.0006 C   0  0  0  0  0  0  0  0  0  0  0  0
   -0.7788    3.2102   -0.5239 H   0  0  0  0  0  0  0  0  0  0  0  0
    0.8503    3.2046   -0.4136 H   0  0  0  0  0  0  0  0  0  0  0  0
   -0.0621    3.3544    0.9901 H   0  0  0  0  0  0  0  0  0  0  0  0
   -0.0019    1.4020    0.0074 C   0  0  0  0  0  0  0  0  0  0  0  0
   -1.2023    0.6973    0.0022 C   0  0  0  0  0  0  0  0  0  0  0  0
   -2.0662    1.1875   -0.0010 H   0  0  0  0  0  0  0  0  0  0  0  0
   -1.2066   -0.6957    0.0000 C   0  0  0  0  0  0  0  0  0  0  0  0
   -2.0783   -1.1929    0.0030 H   0  0  0  0  0  0  0  0  0  0  0  0
    0.0059   -1.3957   -0.0051 C   0  0  0  0  0  0  0  0  0  0  0  0
   -0.0022   -2.3931   -0.0133 H   0  0  0  0  0  0  0  0  0  0  0  0
    1.2066   -0.6991    0.0000 C   0  0  0  0  0  0  0  0  0  0  0  0
    2.0873   -1.1950    0.0084 H   0  0  0  0  0  0  0  0  0  0  0  0
    1.1983    0.6912   -0.0045 C   0  0  0  0  0  0  0  0  0  0  0  0
    2.0652    1.1911   -0.0178 H   0  0  0  0  0  0  0  0  0  0  0  0
  1  5  1  0
  5  8  1  0
  1  2  1  0
  1  3  1  0
  1  4  1  0
  5  6  1  0
  5  7  1  0
  8  9  1  0
  8 10  1  0
  8 11  1  0
 12 16  1  0
 16 17  2  0
 17 19  1  0
 19 21  2  0
 21 23  1  0
 23 25  2  0
 25 16  1  0
 12 13  1  0
 12 14  1  0
 12 15  1  0
 17 18  1  0
 19 20  1  0
 21 22  1  0
 23 24  1  0
 25 26  1  0
M  CHG  1   8   1
M  END
>  <PDB_ID>  (1893) 
pdb3huj

>  <RESIDUE_NAME>  (1893) 
LYS   PHE

>  <FRAG_NAME>  (1893) 
ETAM   MBZ

>  <FRAG_ATOM_NUM>  (1893) 
fragi: 11  fragj: 15

>  <atom.prop.CHAIN_ID>  (1893) 
A A A A A A A A A A A Z Z Z Z Z Z Z Z Z Z Z Z Z Z Z

>  <atom.prop.IS_HEAVY_ATOM>  (1893) 
1 0 0 0 1 0 0 1 0 0 0 1 0 0 0 1 1 0 1 0 1 0 1 0 1 0

>  <DIFUSE_FUNC_ATOM>  (1893) 
n/a

>  <FINAL_SINGLE_POINT_ENERGY>  (1893) 
0

>  <NONCOV_INTER_ENERGY_QM>  (1893) 
0

>  <FF_Energy>  (1893) 
-7.02

>  <QM_Energy>  (1893) 
-13.34

>  <source>  (1893) 
ETAM_MBZ

>  <Index>  (1893) 
19374

$$$$
ETAM-pdb4eu3-B-LYS-337:MBZ-pdb4eu3-B-PHE-333
     RDKit          3D

 26 25  0  0  0  0  0  0  0  0999 V2000
   -1.5036   -2.5401    4.1931 C   0  0  0  0  0  0  0  0  0  0  0  0
   -1.0598   -3.4198    4.3252 H   0  0  0  0  0  0  0  0  0  0  0  0
   -2.1566   -2.3672    4.9228 H   0  0  0  0  0  0  0  0  0  0  0  0
   -0.7477   -1.7549    4.1964 H   0  0  0  0  0  0  0  0  0  0  0  0
   -2.2605   -2.5776    2.8694 C   0  0  0  0  0  0  0  0  0  0  0  0
   -1.6187   -2.8266    2.1363 H   0  0  0  0  0  0  0  0  0  0  0  0
   -2.9734   -3.2838    2.9240 H   0  0  0  0  0  0  0  0  0  0  0  0
   -2.8953   -1.2681    2.5391 N   0  0  0  0  0  4  0  0  0  0  0  0
   -3.1430   -0.7987    3.3860 H   0  0  0  0  0  0  0  0  0  0  0  0
   -2.2482   -0.7098    2.0221 H   0  0  0  0  0  0  0  0  0  0  0  0
   -3.7148   -1.4280    1.9907 H   0  0  0  0  0  0  0  0  0  0  0  0
   -0.0013    2.9017    0.0044 C   0  0  0  0  0  0  0  0  0  0  0  0
   -0.6225    3.2067   -0.7007 H   0  0  0  0  0  0  0  0  0  0  0  0
    0.9215    3.2078   -0.1697 H   0  0  0  0  0  0  0  0  0  0  0  0
   -0.3259    3.3383    0.9489 H   0  0  0  0  0  0  0  0  0  0  0  0
   -0.0000    1.3964    0.0033 C   0  0  0  0  0  0  0  0  0  0  0  0
   -1.1917    0.6896   -0.0000 C   0  0  0  0  0  0  0  0  0  0  0  0
   -2.0606    1.1802   -0.0032 H   0  0  0  0  0  0  0  0  0  0  0  0
   -1.1949   -0.6957    0.0000 C   0  0  0  0  0  0  0  0  0  0  0  0
   -2.0725   -1.1914    0.0024 H   0  0  0  0  0  0  0  0  0  0  0  0
    0.0022   -1.3873   -0.0009 C   0  0  0  0  0  0  0  0  0  0  0  0
   -0.0008   -2.3877   -0.0025 H   0  0  0  0  0  0  0  0  0  0  0  0
    1.1949   -0.6916   -0.0000 C   0  0  0  0  0  0  0  0  0  0  0  0
    2.0799   -1.1909    0.0034 H   0  0  0  0  0  0  0  0  0  0  0  0
    1.1896    0.6886   -0.0024 C   0  0  0  0  0  0  0  0  0  0  0  0
    2.0607    1.1878   -0.0091 H   0  0  0  0  0  0  0  0  0  0  0  0
  1  5  1  0
  5  8  1  0
  1  2  1  0
  1  3  1  0
  1  4  1  0
  5  6  1  0
  5  7  1  0
  8  9  1  0
  8 10  1  0
  8 11  1  0
 12 16  1  0
 16 17  2  0
 17 19  1  0
 19 21  2  0
 21 23  1  0
 23 25  2  0
 25 16  1  0
 12 13  1  0
 12 14  1  0
 12 15  1  0
 17 18  1  0
 19 20  1  0
 21 22  1  0
 23 24  1  0
 25 26  1  0
M  CHG  1   8   1
M  END
>  <PDB_ID>  (1894) 
pdb4eu3

>  <RESIDUE_NAME>  (1894) 
LYS   PHE

>  <FRAG_NAME>  (1894) 
ETAM   MBZ

>  <FRAG_ATOM_NUM>  (1894) 
fragi: 11  fragj: 15

>  <atom.prop.CHAIN_ID>  (1894) 
A A A A A A A A A A A Z Z Z Z Z Z Z Z Z Z Z Z Z Z Z

>  <atom.prop.IS_HEAVY_ATOM>  (1894) 
1 0 0 0 1 0 0 1 0 0 0 1 0 0 0 1 1 0 1 0 1 0 1 0 1 0

>  <DIFUSE_FUNC_ATOM>  (1894) 
n/a

>  <FINAL_SINGLE_POINT_ENERGY>  (1894) 
0

>  <NONCOV_INTER_ENERGY_QM>  (1894) 
0

>  <FF_Energy>  (1894) 
-2.22

>  <QM_Energy>  (1894) 
-10.2

>  <source>  (1894) 
ETAM_MBZ

>  <Index>  (1894) 
19381

$$$$
ETAM-pdb4evd-A-LYS-8:MBZ-pdb4evd-A-PHE-4
     RDKit          3D

 26 25  0  0  0  0  0  0  0  0999 V2000
    1.2401   -3.1438   -2.7275 C   0  0  0  0  0  0  0  0  0  0  0  0
    1.3035   -2.4677   -2.0064 H   0  0  0  0  0  0  0  0  0  0  0  0
    0.2996   -3.2793   -3.0070 H   0  0  0  0  0  0  0  0  0  0  0  0
    1.8186   -2.8011   -3.5854 H   0  0  0  0  0  0  0  0  0  0  0  0
    1.7847   -4.4732   -2.1955 C   0  0  0  0  0  0  0  0  0  0  0  0
    1.5146   -5.2086   -2.8269 H   0  0  0  0  0  0  0  0  0  0  0  0
    2.7891   -4.4252   -2.1725 H   0  0  0  0  0  0  0  0  0  0  0  0
    1.2826   -4.8036   -0.8202 N   0  0  0  0  0  4  0  0  0  0  0  0
    0.7412   -5.6401   -0.8639 H   0  0  0  0  0  0  0  0  0  0  0  0
    2.0625   -4.9347   -0.2128 H   0  0  0  0  0  0  0  0  0  0  0  0
    0.7175   -4.0503   -0.4904 H   0  0  0  0  0  0  0  0  0  0  0  0
   -0.0093    2.9076   -0.0028 C   0  0  0  0  0  0  0  0  0  0  0  0
    0.5455    3.2179    0.7564 H   0  0  0  0  0  0  0  0  0  0  0  0
   -0.9477    3.2094    0.0956 H   0  0  0  0  0  0  0  0  0  0  0  0
    0.3899    3.3593   -0.9109 H   0  0  0  0  0  0  0  0  0  0  0  0
   -0.0004    1.4047   -0.0037 C   0  0  0  0  0  0  0  0  0  0  0  0
   -1.1976    0.6978   -0.0055 C   0  0  0  0  0  0  0  0  0  0  0  0
   -2.0642    1.1871   -0.0122 H   0  0  0  0  0  0  0  0  0  0  0  0
   -1.2041   -0.6972   -0.0000 C   0  0  0  0  0  0  0  0  0  0  0  0
   -2.0811   -1.1884    0.0007 H   0  0  0  0  0  0  0  0  0  0  0  0
   -0.0018   -1.3975    0.0067 C   0  0  0  0  0  0  0  0  0  0  0  0
   -0.0072   -2.3955    0.0156 H   0  0  0  0  0  0  0  0  0  0  0  0
    1.2041   -0.7019   -0.0000 C   0  0  0  0  0  0  0  0  0  0  0  0
    2.0830   -1.1994   -0.0054 H   0  0  0  0  0  0  0  0  0  0  0  0
    1.1998    0.6939    0.0026 C   0  0  0  0  0  0  0  0  0  0  0  0
    2.0666    1.1892    0.0086 H   0  0  0  0  0  0  0  0  0  0  0  0
  1  5  1  0
  5  8  1  0
  1  2  1  0
  1  3  1  0
  1  4  1  0
  5  6  1  0
  5  7  1  0
  8  9  1  0
  8 10  1  0
  8 11  1  0
 12 16  1  0
 16 17  2  0
 17 19  1  0
 19 21  2  0
 21 23  1  0
 23 25  2  0
 25 16  1  0
 12 13  1  0
 12 14  1  0
 12 15  1  0
 17 18  1  0
 19 20  1  0
 21 22  1  0
 23 24  1  0
 25 26  1  0
M  CHG  1   8   1
M  END
>  <PDB_ID>  (1895) 
pdb4evd

>  <RESIDUE_NAME>  (1895) 
LYS   PHE

>  <FRAG_NAME>  (1895) 
ETAM   MBZ

>  <FRAG_ATOM_NUM>  (1895) 
fragi: 11  fragj: 15

>  <atom.prop.CHAIN_ID>  (1895) 
A A A A A A A A A A A Z Z Z Z Z Z Z Z Z Z Z Z Z Z Z

>  <atom.prop.IS_HEAVY_ATOM>  (1895) 
1 0 0 0 1 0 0 1 0 0 0 1 0 0 0 1 1 0 1 0 1 0 1 0 1 0

>  <DIFUSE_FUNC_ATOM>  (1895) 
n/a

>  <FINAL_SINGLE_POINT_ENERGY>  (1895) 
0

>  <NONCOV_INTER_ENERGY_QM>  (1895) 
0

>  <FF_Energy>  (1895) 
1.32

>  <QM_Energy>  (1895) 
-3.71

>  <source>  (1895) 
ETAM_MBZ

>  <Index>  (1895) 
19392

$$$$
ETAM-pdb3hvw-A-LYS-241:MBZ-pdb3hvw-A-PHE-247
     RDKit          3D

 26 25  0  0  0  0  0  0  0  0999 V2000
   -2.9221   -0.7373   -3.1387 C   0  0  0  0  0  0  0  0  0  0  0  0
   -2.3444    0.0680   -3.1630 H   0  0  0  0  0  0  0  0  0  0  0  0
   -3.0530   -1.0494   -2.2071 H   0  0  0  0  0  0  0  0  0  0  0  0
   -3.8916   -0.4923   -3.5723 H   0  0  0  0  0  0  0  0  0  0  0  0
   -2.2455   -1.8442   -3.9304 C   0  0  0  0  0  0  0  0  0  0  0  0
   -2.8361   -2.6571   -3.9199 H   0  0  0  0  0  0  0  0  0  0  0  0
   -2.1355   -1.5412   -4.8829 H   0  0  0  0  0  0  0  0  0  0  0  0
   -0.9172   -2.1967   -3.3726 N   0  0  0  0  0  4  0  0  0  0  0  0
   -1.0347   -2.6353   -2.4809 H   0  0  0  0  0  0  0  0  0  0  0  0
   -0.4504   -2.8257   -3.9941 H   0  0  0  0  0  0  0  0  0  0  0  0
   -0.3689   -1.3667   -3.2654 H   0  0  0  0  0  0  0  0  0  0  0  0
    0.0022    2.9005   -0.0138 C   0  0  0  0  0  0  0  0  0  0  0  0
    0.9077    3.2089    0.2361 H   0  0  0  0  0  0  0  0  0  0  0  0
   -0.6760    3.2139    0.6344 H   0  0  0  0  0  0  0  0  0  0  0  0
   -0.2407    3.3299   -0.9857 H   0  0  0  0  0  0  0  0  0  0  0  0
    0.0008    1.4015    0.0009 C   0  0  0  0  0  0  0  0  0  0  0  0
   -1.1983    0.6934    0.0000 C   0  0  0  0  0  0  0  0  0  0  0  0
   -2.0642    1.1823   -0.0022 H   0  0  0  0  0  0  0  0  0  0  0  0
   -1.2025   -0.7006    0.0000 C   0  0  0  0  0  0  0  0  0  0  0  0
   -2.0778   -1.1935    0.0018 H   0  0  0  0  0  0  0  0  0  0  0  0
    0.0010   -1.3930   -0.0005 C   0  0  0  0  0  0  0  0  0  0  0  0
   -0.0008   -2.3929   -0.0016 H   0  0  0  0  0  0  0  0  0  0  0  0
    1.2025   -0.6961    0.0000 C   0  0  0  0  0  0  0  0  0  0  0  0
    2.0839   -1.1934    0.0024 H   0  0  0  0  0  0  0  0  0  0  0  0
    1.1966    0.6949   -0.0005 C   0  0  0  0  0  0  0  0  0  0  0  0
    2.0652    1.1918   -0.0025 H   0  0  0  0  0  0  0  0  0  0  0  0
  1  5  1  0
  5  8  1  0
  1  2  1  0
  1  3  1  0
  1  4  1  0
  5  6  1  0
  5  7  1  0
  8  9  1  0
  8 10  1  0
  8 11  1  0
 12 16  1  0
 16 17  2  0
 17 19  1  0
 19 21  2  0
 21 23  1  0
 23 25  2  0
 25 16  1  0
 12 13  1  0
 12 14  1  0
 12 15  1  0
 17 18  1  0
 19 20  1  0
 21 22  1  0
 23 24  1  0
 25 26  1  0
M  CHG  1   8   1
M  END
>  <PDB_ID>  (1896) 
pdb3hvw

>  <RESIDUE_NAME>  (1896) 
LYS   PHE

>  <FRAG_NAME>  (1896) 
ETAM   MBZ

>  <FRAG_ATOM_NUM>  (1896) 
fragi: 11  fragj: 15

>  <atom.prop.CHAIN_ID>  (1896) 
A A A A A A A A A A A Z Z Z Z Z Z Z Z Z Z Z Z Z Z Z

>  <atom.prop.IS_HEAVY_ATOM>  (1896) 
1 0 0 0 1 0 0 1 0 0 0 1 0 0 0 1 1 0 1 0 1 0 1 0 1 0

>  <DIFUSE_FUNC_ATOM>  (1896) 
n/a

>  <FINAL_SINGLE_POINT_ENERGY>  (1896) 
0

>  <NONCOV_INTER_ENERGY_QM>  (1896) 
0

>  <FF_Energy>  (1896) 
-4.38

>  <QM_Energy>  (1896) 
-9.65

>  <source>  (1896) 
ETAM_MBZ

>  <Index>  (1896) 
19395

$$$$
ETAM-pdb3ht3-A-LYS-684:MBZ-pdb3ht3-A-PHE-743
     RDKit          3D

 26 25  0  0  0  0  0  0  0  0999 V2000
   -1.2939   -4.6936   -1.4600 C   0  0  0  0  0  0  0  0  0  0  0  0
   -1.0025   -4.3635   -0.5714 H   0  0  0  0  0  0  0  0  0  0  0  0
   -0.6783   -4.3821   -2.1719 H   0  0  0  0  0  0  0  0  0  0  0  0
   -1.3209   -5.7832   -1.4524 H   0  0  0  0  0  0  0  0  0  0  0  0
   -2.6790   -4.1353   -1.7474 C   0  0  0  0  0  0  0  0  0  0  0  0
   -3.1215   -4.7081   -2.4436 H   0  0  0  0  0  0  0  0  0  0  0  0
   -3.2257   -4.1727   -0.9050 H   0  0  0  0  0  0  0  0  0  0  0  0
   -2.6233   -2.7321   -2.2319 N   0  0  0  0  0  4  0  0  0  0  0  0
   -3.1196   -2.1408   -1.5968 H   0  0  0  0  0  0  0  0  0  0  0  0
   -1.6699   -2.4370   -2.2874 H   0  0  0  0  0  0  0  0  0  0  0  0
   -3.0437   -2.6759   -3.1372 H   0  0  0  0  0  0  0  0  0  0  0  0
   -0.0079    2.9078    0.0192 C   0  0  0  0  0  0  0  0  0  0  0  0
    0.9066    3.2129    0.2403 H   0  0  0  0  0  0  0  0  0  0  0  0
   -0.6598    3.2008    0.7030 H   0  0  0  0  0  0  0  0  0  0  0  0
   -0.2915    3.3637   -0.9293 H   0  0  0  0  0  0  0  0  0  0  0  0
   -0.0026    1.4016   -0.0012 C   0  0  0  0  0  0  0  0  0  0  0  0
   -1.1966    0.6877   -0.0013 C   0  0  0  0  0  0  0  0  0  0  0  0
   -2.0649    1.1801   -0.0039 H   0  0  0  0  0  0  0  0  0  0  0  0
   -1.2028   -0.6976    0.0000 C   0  0  0  0  0  0  0  0  0  0  0  0
   -2.0779   -1.1943    0.0026 H   0  0  0  0  0  0  0  0  0  0  0  0
    0.0017   -1.3960   -0.0008 C   0  0  0  0  0  0  0  0  0  0  0  0
   -0.0006   -2.3922   -0.0020 H   0  0  0  0  0  0  0  0  0  0  0  0
    1.2028   -0.6938   -0.0000 C   0  0  0  0  0  0  0  0  0  0  0  0
    2.0849   -1.1910   -0.0009 H   0  0  0  0  0  0  0  0  0  0  0  0
    1.1975    0.6981    0.0033 C   0  0  0  0  0  0  0  0  0  0  0  0
    2.0627    1.1954    0.0076 H   0  0  0  0  0  0  0  0  0  0  0  0
  1  5  1  0
  5  8  1  0
  1  2  1  0
  1  3  1  0
  1  4  1  0
  5  6  1  0
  5  7  1  0
  8  9  1  0
  8 10  1  0
  8 11  1  0
 12 16  1  0
 16 17  2  0
 17 19  1  0
 19 21  2  0
 21 23  1  0
 23 25  2  0
 25 16  1  0
 12 13  1  0
 12 14  1  0
 12 15  1  0
 17 18  1  0
 19 20  1  0
 21 22  1  0
 23 24  1  0
 25 26  1  0
M  CHG  1   8   1
M  END
>  <PDB_ID>  (1897) 
pdb3ht3

>  <RESIDUE_NAME>  (1897) 
LYS   PHE

>  <FRAG_NAME>  (1897) 
ETAM   MBZ

>  <FRAG_ATOM_NUM>  (1897) 
fragi: 11  fragj: 15

>  <atom.prop.CHAIN_ID>  (1897) 
A A A A A A A A A A A Z Z Z Z Z Z Z Z Z Z Z Z Z Z Z

>  <atom.prop.IS_HEAVY_ATOM>  (1897) 
1 0 0 0 1 0 0 1 0 0 0 1 0 0 0 1 1 0 1 0 1 0 1 0 1 0

>  <DIFUSE_FUNC_ATOM>  (1897) 
n/a

>  <FINAL_SINGLE_POINT_ENERGY>  (1897) 
0

>  <NONCOV_INTER_ENERGY_QM>  (1897) 
0

>  <FF_Energy>  (1897) 
-0.9

>  <QM_Energy>  (1897) 
-6.93

>  <source>  (1897) 
ETAM_MBZ

>  <Index>  (1897) 
19413

$$$$
ETAM-pdb4ex5-A-LYS-450:MBZ-pdb4ex5-A-PHE-459
     RDKit          3D

 26 25  0  0  0  0  0  0  0  0999 V2000
   -0.1365    0.0953    4.2730 C   0  0  0  0  0  0  0  0  0  0  0  0
   -0.6292    0.9537    4.3700 H   0  0  0  0  0  0  0  0  0  0  0  0
    0.7701    0.2560    3.8976 H   0  0  0  0  0  0  0  0  0  0  0  0
   -0.0307   -0.3586    5.2584 H   0  0  0  0  0  0  0  0  0  0  0  0
   -0.9092   -0.8052    3.3145 C   0  0  0  0  0  0  0  0  0  0  0  0
   -1.0675   -0.3061    2.4528 H   0  0  0  0  0  0  0  0  0  0  0  0
   -0.3504   -1.6182    3.1066 H   0  0  0  0  0  0  0  0  0  0  0  0
   -2.2377   -1.2609    3.8582 N   0  0  0  0  0  4  0  0  0  0  0  0
   -2.9543   -1.0082    3.2132 H   0  0  0  0  0  0  0  0  0  0  0  0
   -2.2162   -2.2507    3.9744 H   0  0  0  0  0  0  0  0  0  0  0  0
   -2.3961   -0.8176    4.7367 H   0  0  0  0  0  0  0  0  0  0  0  0
    0.0002    2.9176   -0.0743 C   0  0  0  0  0  0  0  0  0  0  0  0
   -0.7877    3.1937   -0.6161 H   0  0  0  0  0  0  0  0  0  0  0  0
    0.8427    3.1940   -0.5270 H   0  0  0  0  0  0  0  0  0  0  0  0
   -0.0514    3.4385    0.8818 H   0  0  0  0  0  0  0  0  0  0  0  0
   -0.0045    1.4109    0.0051 C   0  0  0  0  0  0  0  0  0  0  0  0
   -1.1929    0.7125    0.0014 C   0  0  0  0  0  0  0  0  0  0  0  0
   -2.0630    1.1966   -0.0013 H   0  0  0  0  0  0  0  0  0  0  0  0
   -1.1956   -0.6827    0.0000 C   0  0  0  0  0  0  0  0  0  0  0  0
   -2.0781   -1.1736   -0.0130 H   0  0  0  0  0  0  0  0  0  0  0  0
    0.0020   -1.3987    0.0180 C   0  0  0  0  0  0  0  0  0  0  0  0
   -0.0269   -2.3979    0.0437 H   0  0  0  0  0  0  0  0  0  0  0  0
    1.1956   -0.7257    0.0000 C   0  0  0  0  0  0  0  0  0  0  0  0
    2.0780   -1.2127    0.0050 H   0  0  0  0  0  0  0  0  0  0  0  0
    1.1955    0.6838   -0.0245 C   0  0  0  0  0  0  0  0  0  0  0  0
    2.0649    1.1704   -0.0646 H   0  0  0  0  0  0  0  0  0  0  0  0
  1  5  1  0
  5  8  1  0
  1  2  1  0
  1  3  1  0
  1  4  1  0
  5  6  1  0
  5  7  1  0
  8  9  1  0
  8 10  1  0
  8 11  1  0
 12 16  1  0
 16 17  2  0
 17 19  1  0
 19 21  2  0
 21 23  1  0
 23 25  2  0
 25 16  1  0
 12 13  1  0
 12 14  1  0
 12 15  1  0
 17 18  1  0
 19 20  1  0
 21 22  1  0
 23 24  1  0
 25 26  1  0
M  CHG  1   8   1
M  END
>  <PDB_ID>  (1898) 
pdb4ex5

>  <RESIDUE_NAME>  (1898) 
LYS   PHE

>  <FRAG_NAME>  (1898) 
ETAM   MBZ

>  <FRAG_ATOM_NUM>  (1898) 
fragi: 11  fragj: 15

>  <atom.prop.CHAIN_ID>  (1898) 
A A A A A A A A A A A Z Z Z Z Z Z Z Z Z Z Z Z Z Z Z

>  <atom.prop.IS_HEAVY_ATOM>  (1898) 
1 0 0 0 1 0 0 1 0 0 0 1 0 0 0 1 1 0 1 0 1 0 1 0 1 0

>  <DIFUSE_FUNC_ATOM>  (1898) 
n/a

>  <FINAL_SINGLE_POINT_ENERGY>  (1898) 
0

>  <NONCOV_INTER_ENERGY_QM>  (1898) 
0

>  <FF_Energy>  (1898) 
-3.15

>  <QM_Energy>  (1898) 
-8.22

>  <source>  (1898) 
ETAM_MBZ

>  <Index>  (1898) 
19417

$$$$
ETAM-pdb3hxl-A-LYS-229:MBZ-pdb3hxl-A-PHE-200
     RDKit          3D

 26 25  0  0  0  0  0  0  0  0999 V2000
    3.2255   -2.5382    4.1648 C   0  0  0  0  0  0  0  0  0  0  0  0
    4.1231   -2.9002    4.3768 H   0  0  0  0  0  0  0  0  0  0  0  0
    2.7231   -3.1555    3.5756 H   0  0  0  0  0  0  0  0  0  0  0  0
    2.6693   -2.3917    5.0906 H   0  0  0  0  0  0  0  0  0  0  0  0
    3.3992   -1.2117    3.4393 C   0  0  0  0  0  0  0  0  0  0  0  0
    2.5264   -0.7206    3.4489 H   0  0  0  0  0  0  0  0  0  0  0  0
    4.0886   -0.6673    3.9198 H   0  0  0  0  0  0  0  0  0  0  0  0
    3.8305   -1.4192    2.0334 N   0  0  0  0  0  4  0  0  0  0  0  0
    3.0598   -1.7606    1.4954 H   0  0  0  0  0  0  0  0  0  0  0  0
    4.1463   -0.5507    1.6504 H   0  0  0  0  0  0  0  0  0  0  0  0
    4.5754   -2.0858    2.0087 H   0  0  0  0  0  0  0  0  0  0  0  0
    0.0054    2.9154    0.0128 C   0  0  0  0  0  0  0  0  0  0  0  0
   -0.8488    3.2258   -0.3765 H   0  0  0  0  0  0  0  0  0  0  0  0
    0.7772    3.2228   -0.5239 H   0  0  0  0  0  0  0  0  0  0  0  0
    0.0968    3.3545    1.0064 H   0  0  0  0  0  0  0  0  0  0  0  0
    0.0017    1.4071    0.0009 C   0  0  0  0  0  0  0  0  0  0  0  0
   -1.1975    0.6961    0.0002 C   0  0  0  0  0  0  0  0  0  0  0  0
   -2.0638    1.1814   -0.0014 H   0  0  0  0  0  0  0  0  0  0  0  0
   -1.2027   -0.7069   -0.0000 C   0  0  0  0  0  0  0  0  0  0  0  0
   -2.0807   -1.1935    0.0016 H   0  0  0  0  0  0  0  0  0  0  0  0
   -0.0025   -1.3985   -0.0004 C   0  0  0  0  0  0  0  0  0  0  0  0
   -0.0005   -2.3972   -0.0017 H   0  0  0  0  0  0  0  0  0  0  0  0
    1.2027   -0.6975    0.0000 C   0  0  0  0  0  0  0  0  0  0  0  0
    2.0828   -1.1939    0.0018 H   0  0  0  0  0  0  0  0  0  0  0  0
    1.1983    0.6996   -0.0007 C   0  0  0  0  0  0  0  0  0  0  0  0
    2.0670    1.1932   -0.0030 H   0  0  0  0  0  0  0  0  0  0  0  0
  1  5  1  0
  5  8  1  0
  1  2  1  0
  1  3  1  0
  1  4  1  0
  5  6  1  0
  5  7  1  0
  8  9  1  0
  8 10  1  0
  8 11  1  0
 12 16  1  0
 16 17  2  0
 17 19  1  0
 19 21  2  0
 21 23  1  0
 23 25  2  0
 25 16  1  0
 12 13  1  0
 12 14  1  0
 12 15  1  0
 17 18  1  0
 19 20  1  0
 21 22  1  0
 23 24  1  0
 25 26  1  0
M  CHG  1   8   1
M  END
>  <PDB_ID>  (1899) 
pdb3hxl

>  <RESIDUE_NAME>  (1899) 
LYS   PHE

>  <FRAG_NAME>  (1899) 
ETAM   MBZ

>  <FRAG_ATOM_NUM>  (1899) 
fragi: 11  fragj: 15

>  <atom.prop.CHAIN_ID>  (1899) 
A A A A A A A A A A A Z Z Z Z Z Z Z Z Z Z Z Z Z Z Z

>  <atom.prop.IS_HEAVY_ATOM>  (1899) 
1 0 0 0 1 0 0 1 0 0 0 1 0 0 0 1 1 0 1 0 1 0 1 0 1 0

>  <DIFUSE_FUNC_ATOM>  (1899) 
n/a

>  <FINAL_SINGLE_POINT_ENERGY>  (1899) 
0

>  <NONCOV_INTER_ENERGY_QM>  (1899) 
0

>  <FF_Energy>  (1899) 
0.03

>  <QM_Energy>  (1899) 
-5.59

>  <source>  (1899) 
ETAM_MBZ

>  <Index>  (1899) 
19428

$$$$
ETAM-pdb3hyh-B-LYS-148:MBZ-pdb3hyh-B-PHE-274
     RDKit          3D

 26 25  0  0  0  0  0  0  0  0999 V2000
   -1.1983   -1.8881   -3.5062 C   0  0  0  0  0  0  0  0  0  0  0  0
   -1.4080   -2.1144   -2.5598 H   0  0  0  0  0  0  0  0  0  0  0  0
   -0.2337   -2.0423   -3.6921 H   0  0  0  0  0  0  0  0  0  0  0  0
   -1.7954   -2.5185   -4.1650 H   0  0  0  0  0  0  0  0  0  0  0  0
   -1.4962   -0.4032   -3.7215 C   0  0  0  0  0  0  0  0  0  0  0  0
   -1.5489   -0.2277   -4.7041 H   0  0  0  0  0  0  0  0  0  0  0  0
   -2.3766   -0.1893   -3.2977 H   0  0  0  0  0  0  0  0  0  0  0  0
   -0.4383    0.4441   -3.1216 N   0  0  0  0  0  4  0  0  0  0  0  0
    0.4056    0.3500   -3.6501 H   0  0  0  0  0  0  0  0  0  0  0  0
   -0.7309    1.4006   -3.1306 H   0  0  0  0  0  0  0  0  0  0  0  0
   -0.2736    0.1559   -2.1778 H   0  0  0  0  0  0  0  0  0  0  0  0
    0.0086    2.9181   -0.0128 C   0  0  0  0  0  0  0  0  0  0  0  0
   -0.6746    3.2192   -0.6613 H   0  0  0  0  0  0  0  0  0  0  0  0
    0.9131    3.2163   -0.2796 H   0  0  0  0  0  0  0  0  0  0  0  0
   -0.2212    3.3807    0.9471 H   0  0  0  0  0  0  0  0  0  0  0  0
    0.0017    1.4077    0.0044 C   0  0  0  0  0  0  0  0  0  0  0  0
   -1.1976    0.6929   -0.0013 C   0  0  0  0  0  0  0  0  0  0  0  0
   -2.0644    1.1812   -0.0079 H   0  0  0  0  0  0  0  0  0  0  0  0
   -1.2022   -0.7048   -0.0000 C   0  0  0  0  0  0  0  0  0  0  0  0
   -2.0802   -1.1949    0.0009 H   0  0  0  0  0  0  0  0  0  0  0  0
   -0.0022   -1.3989    0.0023 C   0  0  0  0  0  0  0  0  0  0  0  0
    0.0003   -2.3961    0.0056 H   0  0  0  0  0  0  0  0  0  0  0  0
    1.2022   -0.6957   -0.0000 C   0  0  0  0  0  0  0  0  0  0  0  0
    2.0829   -1.1931    0.0040 H   0  0  0  0  0  0  0  0  0  0  0  0
    1.1980    0.6988   -0.0054 C   0  0  0  0  0  0  0  0  0  0  0  0
    2.0668    1.1930   -0.0171 H   0  0  0  0  0  0  0  0  0  0  0  0
  1  5  1  0
  5  8  1  0
  1  2  1  0
  1  3  1  0
  1  4  1  0
  5  6  1  0
  5  7  1  0
  8  9  1  0
  8 10  1  0
  8 11  1  0
 12 16  1  0
 16 17  2  0
 17 19  1  0
 19 21  2  0
 21 23  1  0
 23 25  2  0
 25 16  1  0
 12 13  1  0
 12 14  1  0
 12 15  1  0
 17 18  1  0
 19 20  1  0
 21 22  1  0
 23 24  1  0
 25 26  1  0
M  CHG  1   8   1
M  END
>  <PDB_ID>  (1900) 
pdb3hyh

>  <RESIDUE_NAME>  (1900) 
LYS   PHE

>  <FRAG_NAME>  (1900) 
ETAM   MBZ

>  <FRAG_ATOM_NUM>  (1900) 
fragi: 11  fragj: 15

>  <atom.prop.CHAIN_ID>  (1900) 
A A A A A A A A A A A Z Z Z Z Z Z Z Z Z Z Z Z Z Z Z

>  <atom.prop.IS_HEAVY_ATOM>  (1900) 
1 0 0 0 1 0 0 1 0 0 0 1 0 0 0 1 1 0 1 0 1 0 1 0 1 0

>  <DIFUSE_FUNC_ATOM>  (1900) 
n/a

>  <FINAL_SINGLE_POINT_ENERGY>  (1900) 
0

>  <NONCOV_INTER_ENERGY_QM>  (1900) 
0

>  <FF_Energy>  (1900) 
-10.04

>  <QM_Energy>  (1900) 
-17.41

>  <source>  (1900) 
ETAM_MBZ

>  <Index>  (1900) 
19448

$$$$
ETAM-pdb4eyt-E-LYS-517:MBZ-pdb4eyt-C-PHE-521
     RDKit          3D

 26 25  0  0  0  0  0  0  0  0999 V2000
   -1.9873   -1.6772    5.3531 C   0  0  0  0  0  0  0  0  0  0  0  0
   -2.4328   -0.8760    4.9774 H   0  0  0  0  0  0  0  0  0  0  0  0
   -1.2590   -1.4219    5.9732 H   0  0  0  0  0  0  0  0  0  0  0  0
   -2.7236   -2.2709    5.8947 H   0  0  0  0  0  0  0  0  0  0  0  0
   -1.3862   -2.4822    4.2043 C   0  0  0  0  0  0  0  0  0  0  0  0
   -0.8244   -3.2251    4.5896 H   0  0  0  0  0  0  0  0  0  0  0  0
   -2.1366   -2.8993    3.6747 H   0  0  0  0  0  0  0  0  0  0  0  0
   -0.5449   -1.6586    3.2910 N   0  0  0  0  0  4  0  0  0  0  0  0
   -0.0356   -0.9859    3.8268 H   0  0  0  0  0  0  0  0  0  0  0  0
    0.0934   -2.2531    2.8036 H   0  0  0  0  0  0  0  0  0  0  0  0
   -1.1333   -1.1882    2.6338 H   0  0  0  0  0  0  0  0  0  0  0  0
    0.0190    2.9166    0.0111 C   0  0  0  0  0  0  0  0  0  0  0  0
    0.8754    3.2111   -0.3905 H   0  0  0  0  0  0  0  0  0  0  0  0
   -0.0511    3.2115    0.9544 H   0  0  0  0  0  0  0  0  0  0  0  0
   -0.7905    3.3876   -0.5463 H   0  0  0  0  0  0  0  0  0  0  0  0
   -0.0001    1.4021   -0.0024 C   0  0  0  0  0  0  0  0  0  0  0  0
   -1.1951    0.6929    0.0022 C   0  0  0  0  0  0  0  0  0  0  0  0
   -2.0627    1.1809    0.0060 H   0  0  0  0  0  0  0  0  0  0  0  0
   -1.1968   -0.6979   -0.0000 C   0  0  0  0  0  0  0  0  0  0  0  0
   -2.0740   -1.1918    0.0008 H   0  0  0  0  0  0  0  0  0  0  0  0
    0.0013   -1.3895   -0.0018 C   0  0  0  0  0  0  0  0  0  0  0  0
   -0.0019   -2.3909   -0.0054 H   0  0  0  0  0  0  0  0  0  0  0  0
    1.1968   -0.6962    0.0000 C   0  0  0  0  0  0  0  0  0  0  0  0
    2.0800   -1.1956    0.0012 H   0  0  0  0  0  0  0  0  0  0  0  0
    1.1939    0.6886    0.0020 C   0  0  0  0  0  0  0  0  0  0  0  0
    2.0638    1.1861    0.0063 H   0  0  0  0  0  0  0  0  0  0  0  0
  1  5  1  0
  5  8  1  0
  1  2  1  0
  1  3  1  0
  1  4  1  0
  5  6  1  0
  5  7  1  0
  8  9  1  0
  8 10  1  0
  8 11  1  0
 12 16  1  0
 16 17  2  0
 17 19  1  0
 19 21  2  0
 21 23  1  0
 23 25  2  0
 25 16  1  0
 12 13  1  0
 12 14  1  0
 12 15  1  0
 17 18  1  0
 19 20  1  0
 21 22  1  0
 23 24  1  0
 25 26  1  0
M  CHG  1   8   1
M  END
>  <PDB_ID>  (1901) 
pdb4eyt

>  <RESIDUE_NAME>  (1901) 
LYS   PHE

>  <FRAG_NAME>  (1901) 
ETAM   MBZ

>  <FRAG_ATOM_NUM>  (1901) 
fragi: 11  fragj: 15

>  <atom.prop.CHAIN_ID>  (1901) 
A A A A A A A A A A A Z Z Z Z Z Z Z Z Z Z Z Z Z Z Z

>  <atom.prop.IS_HEAVY_ATOM>  (1901) 
1 0 0 0 1 0 0 1 0 0 0 1 0 0 0 1 1 0 1 0 1 0 1 0 1 0

>  <DIFUSE_FUNC_ATOM>  (1901) 
n/a

>  <FINAL_SINGLE_POINT_ENERGY>  (1901) 
0

>  <NONCOV_INTER_ENERGY_QM>  (1901) 
0

>  <FF_Energy>  (1901) 
-5.43

>  <QM_Energy>  (1901) 
-11.92

>  <source>  (1901) 
ETAM_MBZ

>  <Index>  (1901) 
19460

$$$$
ETAM-pdb4ezc-B-LYS-361:MBZ-pdb4ezc-B-PHE-371
     RDKit          3D

 26 25  0  0  0  0  0  0  0  0999 V2000
   -0.6263   -0.4705   -5.0821 C   0  0  0  0  0  0  0  0  0  0  0  0
   -0.3225   -0.2406   -6.0067 H   0  0  0  0  0  0  0  0  0  0  0  0
   -1.1229   -1.3391   -5.1009 H   0  0  0  0  0  0  0  0  0  0  0  0
    0.2519   -0.5850   -4.4468 H   0  0  0  0  0  0  0  0  0  0  0  0
   -1.5797    0.6210   -4.6006 C   0  0  0  0  0  0  0  0  0  0  0  0
   -1.0541    1.4796   -4.4832 H   0  0  0  0  0  0  0  0  0  0  0  0
   -2.2703    0.7879   -5.3232 H   0  0  0  0  0  0  0  0  0  0  0  0
   -2.2825    0.3057   -3.3232 N   0  0  0  0  0  4  0  0  0  0  0  0
   -1.9976    0.9561   -2.6204 H   0  0  0  0  0  0  0  0  0  0  0  0
   -3.2695    0.3750   -3.4636 H   0  0  0  0  0  0  0  0  0  0  0  0
   -2.0470   -0.6224   -3.0382 H   0  0  0  0  0  0  0  0  0  0  0  0
    0.0039    2.9218    0.0083 C   0  0  0  0  0  0  0  0  0  0  0  0
   -0.5264    3.2293   -0.7665 H   0  0  0  0  0  0  0  0  0  0  0  0
    0.9425    3.2227   -0.0518 H   0  0  0  0  0  0  0  0  0  0  0  0
   -0.4311    3.3598    0.9066 H   0  0  0  0  0  0  0  0  0  0  0  0
    0.0010    1.4095    0.0005 C   0  0  0  0  0  0  0  0  0  0  0  0
   -1.2078    0.6911    0.0011 C   0  0  0  0  0  0  0  0  0  0  0  0
   -2.0695    1.1806    0.0010 H   0  0  0  0  0  0  0  0  0  0  0  0
   -1.2040   -0.7022   -0.0000 C   0  0  0  0  0  0  0  0  0  0  0  0
   -2.0764   -1.2010    0.0084 H   0  0  0  0  0  0  0  0  0  0  0  0
    0.0044   -1.3948   -0.0111 C   0  0  0  0  0  0  0  0  0  0  0  0
    0.0008   -2.3945   -0.0273 H   0  0  0  0  0  0  0  0  0  0  0  0
    1.2040   -0.6978    0.0000 C   0  0  0  0  0  0  0  0  0  0  0  0
    2.0865   -1.1960    0.0025 H   0  0  0  0  0  0  0  0  0  0  0  0
    1.2023    0.6943    0.0095 C   0  0  0  0  0  0  0  0  0  0  0  0
    2.0688    1.1905    0.0220 H   0  0  0  0  0  0  0  0  0  0  0  0
  1  5  1  0
  5  8  1  0
  1  2  1  0
  1  3  1  0
  1  4  1  0
  5  6  1  0
  5  7  1  0
  8  9  1  0
  8 10  1  0
  8 11  1  0
 12 16  1  0
 16 17  2  0
 17 19  1  0
 19 21  2  0
 21 23  1  0
 23 25  2  0
 25 16  1  0
 12 13  1  0
 12 14  1  0
 12 15  1  0
 17 18  1  0
 19 20  1  0
 21 22  1  0
 23 24  1  0
 25 26  1  0
M  CHG  1   8   1
M  END
>  <PDB_ID>  (1902) 
pdb4ezc

>  <RESIDUE_NAME>  (1902) 
LYS   PHE

>  <FRAG_NAME>  (1902) 
ETAM   MBZ

>  <FRAG_ATOM_NUM>  (1902) 
fragi: 11  fragj: 15

>  <atom.prop.CHAIN_ID>  (1902) 
A A A A A A A A A A A Z Z Z Z Z Z Z Z Z Z Z Z Z Z Z

>  <atom.prop.IS_HEAVY_ATOM>  (1902) 
1 0 0 0 1 0 0 1 0 0 0 1 0 0 0 1 1 0 1 0 1 0 1 0 1 0

>  <DIFUSE_FUNC_ATOM>  (1902) 
n/a

>  <FINAL_SINGLE_POINT_ENERGY>  (1902) 
0

>  <NONCOV_INTER_ENERGY_QM>  (1902) 
0

>  <FF_Energy>  (1902) 
-4.73

>  <QM_Energy>  (1902) 
-9.93

>  <source>  (1902) 
ETAM_MBZ

>  <Index>  (1902) 
19475

$$$$
ETAM-pdb4ex5-A-LYS-601:MBZ-pdb4ex5-A-PHE-430
     RDKit          3D

 26 25  0  0  0  0  0  0  0  0999 V2000
    1.2765   -2.1093    3.3633 C   0  0  0  0  0  0  0  0  0  0  0  0
    2.0814   -1.5269    3.2638 H   0  0  0  0  0  0  0  0  0  0  0  0
    1.2214   -2.7424    2.5930 H   0  0  0  0  0  0  0  0  0  0  0  0
    1.3680   -2.6827    4.2858 H   0  0  0  0  0  0  0  0  0  0  0  0
    0.0368   -1.2246    3.3497 C   0  0  0  0  0  0  0  0  0  0  0  0
    0.0013   -0.7016    4.2299 H   0  0  0  0  0  0  0  0  0  0  0  0
    0.1490   -0.5200    2.6144 H   0  0  0  0  0  0  0  0  0  0  0  0
   -1.2799   -1.9083    3.1526 N   0  0  0  0  0  4  0  0  0  0  0  0
   -2.0080   -1.2254    3.1658 H   0  0  0  0  0  0  0  0  0  0  0  0
   -1.2750   -2.3803    2.2729 H   0  0  0  0  0  0  0  0  0  0  0  0
   -1.4206   -2.5676    3.8894 H   0  0  0  0  0  0  0  0  0  0  0  0
   -0.0038    2.9003   -0.0301 C   0  0  0  0  0  0  0  0  0  0  0  0
   -0.7670    3.1906   -0.6009 H   0  0  0  0  0  0  0  0  0  0  0  0
    0.8572    3.1981   -0.4342 H   0  0  0  0  0  0  0  0  0  0  0  0
   -0.1044    3.4080    0.9291 H   0  0  0  0  0  0  0  0  0  0  0  0
   -0.0011    1.3939    0.0117 C   0  0  0  0  0  0  0  0  0  0  0  0
   -1.1721    0.6890   -0.0070 C   0  0  0  0  0  0  0  0  0  0  0  0
   -2.0517    1.1803   -0.0271 H   0  0  0  0  0  0  0  0  0  0  0  0
   -1.1885   -0.6910   -0.0000 C   0  0  0  0  0  0  0  0  0  0  0  0
   -2.0732   -1.1789    0.0156 H   0  0  0  0  0  0  0  0  0  0  0  0
   -0.0031   -1.3927   -0.0123 C   0  0  0  0  0  0  0  0  0  0  0  0
   -0.0084   -2.3890   -0.0302 H   0  0  0  0  0  0  0  0  0  0  0  0
    1.1885   -0.6955    0.0000 C   0  0  0  0  0  0  0  0  0  0  0  0
    2.0749   -1.1858    0.0050 H   0  0  0  0  0  0  0  0  0  0  0  0
    1.1764    0.6964    0.0076 C   0  0  0  0  0  0  0  0  0  0  0  0
    2.0536    1.1882    0.0094 H   0  0  0  0  0  0  0  0  0  0  0  0
  1  5  1  0
  5  8  1  0
  1  2  1  0
  1  3  1  0
  1  4  1  0
  5  6  1  0
  5  7  1  0
  8  9  1  0
  8 10  1  0
  8 11  1  0
 12 16  1  0
 16 17  2  0
 17 19  1  0
 19 21  2  0
 21 23  1  0
 23 25  2  0
 25 16  1  0
 12 13  1  0
 12 14  1  0
 12 15  1  0
 17 18  1  0
 19 20  1  0
 21 22  1  0
 23 24  1  0
 25 26  1  0
M  CHG  1   8   1
M  END
>  <PDB_ID>  (1903) 
pdb4ex5

>  <RESIDUE_NAME>  (1903) 
LYS   PHE

>  <FRAG_NAME>  (1903) 
ETAM   MBZ

>  <FRAG_ATOM_NUM>  (1903) 
fragi: 11  fragj: 15

>  <atom.prop.CHAIN_ID>  (1903) 
A A A A A A A A A A A Z Z Z Z Z Z Z Z Z Z Z Z Z Z Z

>  <atom.prop.IS_HEAVY_ATOM>  (1903) 
1 0 0 0 1 0 0 1 0 0 0 1 0 0 0 1 1 0 1 0 1 0 1 0 1 0

>  <DIFUSE_FUNC_ATOM>  (1903) 
n/a

>  <FINAL_SINGLE_POINT_ENERGY>  (1903) 
0

>  <NONCOV_INTER_ENERGY_QM>  (1903) 
0

>  <FF_Energy>  (1903) 
-4.97

>  <QM_Energy>  (1903) 
-12.23

>  <source>  (1903) 
ETAM_MBZ

>  <Index>  (1903) 
19487

$$$$
ETAM-pdb3hz3-A-LYS-1219:MBZ-pdb3hz3-A-PHE-1223
     RDKit          3D

 26 25  0  0  0  0  0  0  0  0999 V2000
    0.1900    1.0636   -3.8140 C   0  0  0  0  0  0  0  0  0  0  0  0
    0.6863    1.3948   -4.6122 H   0  0  0  0  0  0  0  0  0  0  0  0
    0.6427    1.3671   -2.9800 H   0  0  0  0  0  0  0  0  0  0  0  0
   -0.8238    1.4637   -3.8344 H   0  0  0  0  0  0  0  0  0  0  0  0
    0.2085   -0.4680   -3.8396 C   0  0  0  0  0  0  0  0  0  0  0  0
   -0.4256   -0.8117   -3.1575 H   0  0  0  0  0  0  0  0  0  0  0  0
   -0.0504   -0.7814   -4.7460 H   0  0  0  0  0  0  0  0  0  0  0  0
    1.5937   -0.9746   -3.5229 N   0  0  0  0  0  4  0  0  0  0  0  0
    2.2027   -0.1940   -3.4067 H   0  0  0  0  0  0  0  0  0  0  0  0
    1.5565   -1.5083   -2.6830 H   0  0  0  0  0  0  0  0  0  0  0  0
    1.9079   -1.5449   -4.2770 H   0  0  0  0  0  0  0  0  0  0  0  0
   -0.0011    2.9407    0.0324 C   0  0  0  0  0  0  0  0  0  0  0  0
   -0.8829    3.2478   -0.2869 H   0  0  0  0  0  0  0  0  0  0  0  0
    0.7279    3.2477   -0.5563 H   0  0  0  0  0  0  0  0  0  0  0  0
    0.1648    3.3667    1.0218 H   0  0  0  0  0  0  0  0  0  0  0  0
   -0.0047    1.4217    0.0117 C   0  0  0  0  0  0  0  0  0  0  0  0
   -1.2117    0.7256    0.0102 C   0  0  0  0  0  0  0  0  0  0  0  0
   -2.0731    1.2229    0.0154 H   0  0  0  0  0  0  0  0  0  0  0  0
   -1.2380   -0.6767   -0.0000 C   0  0  0  0  0  0  0  0  0  0  0  0
   -2.1036   -1.1698    0.0035 H   0  0  0  0  0  0  0  0  0  0  0  0
    0.0007   -1.4320   -0.0139 C   0  0  0  0  0  0  0  0  0  0  0  0
   -0.0345   -2.4099   -0.0330 H   0  0  0  0  0  0  0  0  0  0  0  0
    1.2380   -0.7342   -0.0000 C   0  0  0  0  0  0  0  0  0  0  0  0
    2.1017   -1.2181    0.0160 H   0  0  0  0  0  0  0  0  0  0  0  0
    1.2157    0.6956   -0.0081 C   0  0  0  0  0  0  0  0  0  0  0  0
    2.0789    1.1899   -0.0291 H   0  0  0  0  0  0  0  0  0  0  0  0
  1  5  1  0
  5  8  1  0
  1  2  1  0
  1  3  1  0
  1  4  1  0
  5  6  1  0
  5  7  1  0
  8  9  1  0
  8 10  1  0
  8 11  1  0
 12 16  1  0
 16 17  2  0
 17 19  1  0
 19 21  2  0
 21 23  1  0
 23 25  2  0
 25 16  1  0
 12 13  1  0
 12 14  1  0
 12 15  1  0
 17 18  1  0
 19 20  1  0
 21 22  1  0
 23 24  1  0
 25 26  1  0
M  CHG  1   8   1
M  END
>  <PDB_ID>  (1904) 
pdb3hz3

>  <RESIDUE_NAME>  (1904) 
LYS   PHE

>  <FRAG_NAME>  (1904) 
ETAM   MBZ

>  <FRAG_ATOM_NUM>  (1904) 
fragi: 11  fragj: 15

>  <atom.prop.CHAIN_ID>  (1904) 
A A A A A A A A A A A Z Z Z Z Z Z Z Z Z Z Z Z Z Z Z

>  <atom.prop.IS_HEAVY_ATOM>  (1904) 
1 0 0 0 1 0 0 1 0 0 0 1 0 0 0 1 1 0 1 0 1 0 1 0 1 0

>  <DIFUSE_FUNC_ATOM>  (1904) 
n/a

>  <FINAL_SINGLE_POINT_ENERGY>  (1904) 
0

>  <NONCOV_INTER_ENERGY_QM>  (1904) 
0

>  <FF_Energy>  (1904) 
-6.37

>  <QM_Energy>  (1904) 
-12.95

>  <source>  (1904) 
ETAM_MBZ

>  <Index>  (1904) 
19488

$$$$
ETAM-pdb4ezi-A-LYS-33:MBZ-pdb4ezi-A-PHE-172
     RDKit          3D

 26 25  0  0  0  0  0  0  0  0999 V2000
    3.5143    3.8720    0.1749 C   0  0  0  0  0  0  0  0  0  0  0  0
    2.5264    3.9214    0.1530 H   0  0  0  0  0  0  0  0  0  0  0  0
    3.8945    3.8951   -0.7381 H   0  0  0  0  0  0  0  0  0  0  0  0
    3.9173    4.6913    0.7703 H   0  0  0  0  0  0  0  0  0  0  0  0
    3.9045    2.5387    0.8137 C   0  0  0  0  0  0  0  0  0  0  0  0
    3.4155    2.4489    1.6894 H   0  0  0  0  0  0  0  0  0  0  0  0
    3.6049    1.7932    0.2065 H   0  0  0  0  0  0  0  0  0  0  0  0
    5.3619    2.4236    1.0504 N   0  0  0  0  0  4  0  0  0  0  0  0
    5.5287    1.8006    1.8158 H   0  0  0  0  0  0  0  0  0  0  0  0
    5.8076    2.0668    0.2289 H   0  0  0  0  0  0  0  0  0  0  0  0
    5.7387    3.3250    1.2681 H   0  0  0  0  0  0  0  0  0  0  0  0
    0.0177    2.8983    0.0096 C   0  0  0  0  0  0  0  0  0  0  0  0
    0.7992    3.1967   -0.5198 H   0  0  0  0  0  0  0  0  0  0  0  0
    0.0913    3.1950    0.9522 H   0  0  0  0  0  0  0  0  0  0  0  0
   -0.8726    3.3595   -0.4178 H   0  0  0  0  0  0  0  0  0  0  0  0
   -0.0025    1.3951   -0.0021 C   0  0  0  0  0  0  0  0  0  0  0  0
   -1.1877    0.6905    0.0066 C   0  0  0  0  0  0  0  0  0  0  0  0
   -2.0593    1.1725    0.0168 H   0  0  0  0  0  0  0  0  0  0  0  0
   -1.1841   -0.7012   -0.0000 C   0  0  0  0  0  0  0  0  0  0  0  0
   -2.0596   -1.1974   -0.0054 H   0  0  0  0  0  0  0  0  0  0  0  0
    0.0146   -1.3812    0.0033 C   0  0  0  0  0  0  0  0  0  0  0  0
    0.0114   -2.3864    0.0073 H   0  0  0  0  0  0  0  0  0  0  0  0
    1.1841   -0.6883    0.0000 C   0  0  0  0  0  0  0  0  0  0  0  0
    2.0805   -1.1809    0.0054 H   0  0  0  0  0  0  0  0  0  0  0  0
    1.1755    0.6851   -0.0078 C   0  0  0  0  0  0  0  0  0  0  0  0
    2.0528    1.1855   -0.0190 H   0  0  0  0  0  0  0  0  0  0  0  0
  1  5  1  0
  5  8  1  0
  1  2  1  0
  1  3  1  0
  1  4  1  0
  5  6  1  0
  5  7  1  0
  8  9  1  0
  8 10  1  0
  8 11  1  0
 12 16  1  0
 16 17  2  0
 17 19  1  0
 19 21  2  0
 21 23  1  0
 23 25  2  0
 25 16  1  0
 12 13  1  0
 12 14  1  0
 12 15  1  0
 17 18  1  0
 19 20  1  0
 21 22  1  0
 23 24  1  0
 25 26  1  0
M  CHG  1   8   1
M  END
>  <PDB_ID>  (1905) 
pdb4ezi

>  <RESIDUE_NAME>  (1905) 
LYS   PHE

>  <FRAG_NAME>  (1905) 
ETAM   MBZ

>  <FRAG_ATOM_NUM>  (1905) 
fragi: 11  fragj: 15

>  <atom.prop.CHAIN_ID>  (1905) 
A A A A A A A A A A A Z Z Z Z Z Z Z Z Z Z Z Z Z Z Z

>  <atom.prop.IS_HEAVY_ATOM>  (1905) 
1 0 0 0 1 0 0 1 0 0 0 1 0 0 0 1 1 0 1 0 1 0 1 0 1 0

>  <DIFUSE_FUNC_ATOM>  (1905) 
n/a

>  <FINAL_SINGLE_POINT_ENERGY>  (1905) 
0

>  <NONCOV_INTER_ENERGY_QM>  (1905) 
0

>  <FF_Energy>  (1905) 
10.45

>  <QM_Energy>  (1905) 
0.82

>  <source>  (1905) 
ETAM_MBZ

>  <Index>  (1905) 
19500

$$$$
ETAM-pdb3i26-B-LYS-104:MBZ-pdb3i26-B-PHE-80
     RDKit          3D

 26 25  0  0  0  0  0  0  0  0999 V2000
    2.0830   -2.2705    4.5300 C   0  0  0  0  0  0  0  0  0  0  0  0
    2.3582   -1.5742    5.1805 H   0  0  0  0  0  0  0  0  0  0  0  0
    2.8608   -2.8166    4.2461 H   0  0  0  0  0  0  0  0  0  0  0  0
    1.3507   -2.9233    5.0051 H   0  0  0  0  0  0  0  0  0  0  0  0
    1.4819   -1.6066    3.3240 C   0  0  0  0  0  0  0  0  0  0  0  0
    2.2213   -1.1490    2.8050 H   0  0  0  0  0  0  0  0  0  0  0  0
    1.0870   -2.3206    2.7248 H   0  0  0  0  0  0  0  0  0  0  0  0
    0.4607   -0.6430    3.6772 N   0  0  0  0  0  4  0  0  0  0  0  0
    0.7439   -0.1087    4.4813 H   0  0  0  0  0  0  0  0  0  0  0  0
    0.2977   -0.0077    2.9136 H   0  0  0  0  0  0  0  0  0  0  0  0
   -0.4043   -1.1107    3.8939 H   0  0  0  0  0  0  0  0  0  0  0  0
   -0.0012    2.8868   -0.0024 C   0  0  0  0  0  0  0  0  0  0  0  0
   -0.6969    3.1945   -0.6330 H   0  0  0  0  0  0  0  0  0  0  0  0
    0.8957    3.2026   -0.2712 H   0  0  0  0  0  0  0  0  0  0  0  0
   -0.2246    3.3221    0.9716 H   0  0  0  0  0  0  0  0  0  0  0  0
    0.0072    1.3887   -0.0052 C   0  0  0  0  0  0  0  0  0  0  0  0
   -1.1931    0.6753    0.0061 C   0  0  0  0  0  0  0  0  0  0  0  0
   -2.0571    1.1830    0.0177 H   0  0  0  0  0  0  0  0  0  0  0  0
   -1.2071   -0.6923    0.0000 C   0  0  0  0  0  0  0  0  0  0  0  0
   -2.0863   -1.1891    0.0001 H   0  0  0  0  0  0  0  0  0  0  0  0
   -0.0159   -1.3867   -0.0039 C   0  0  0  0  0  0  0  0  0  0  0  0
   -0.0073   -2.3833   -0.0101 H   0  0  0  0  0  0  0  0  0  0  0  0
    1.2071   -0.6817   -0.0000 C   0  0  0  0  0  0  0  0  0  0  0  0
    2.0768   -1.1927    0.0017 H   0  0  0  0  0  0  0  0  0  0  0  0
    1.2018    0.6968    0.0030 C   0  0  0  0  0  0  0  0  0  0  0  0
    2.0666    1.1986    0.0104 H   0  0  0  0  0  0  0  0  0  0  0  0
  1  5  1  0
  5  8  1  0
  1  2  1  0
  1  3  1  0
  1  4  1  0
  5  6  1  0
  5  7  1  0
  8  9  1  0
  8 10  1  0
  8 11  1  0
 12 16  1  0
 16 17  2  0
 17 19  1  0
 19 21  2  0
 21 23  1  0
 23 25  2  0
 25 16  1  0
 12 13  1  0
 12 14  1  0
 12 15  1  0
 17 18  1  0
 19 20  1  0
 21 22  1  0
 23 24  1  0
 25 26  1  0
M  CHG  1   8   1
M  END
>  <PDB_ID>  (1906) 
pdb3i26

>  <RESIDUE_NAME>  (1906) 
LYS   PHE

>  <FRAG_NAME>  (1906) 
ETAM   MBZ

>  <FRAG_ATOM_NUM>  (1906) 
fragi: 11  fragj: 15

>  <atom.prop.CHAIN_ID>  (1906) 
A A A A A A A A A A A Z Z Z Z Z Z Z Z Z Z Z Z Z Z Z

>  <atom.prop.IS_HEAVY_ATOM>  (1906) 
1 0 0 0 1 0 0 1 0 0 0 1 0 0 0 1 1 0 1 0 1 0 1 0 1 0

>  <DIFUSE_FUNC_ATOM>  (1906) 
n/a

>  <FINAL_SINGLE_POINT_ENERGY>  (1906) 
0

>  <NONCOV_INTER_ENERGY_QM>  (1906) 
0

>  <FF_Energy>  (1906) 
-6.97

>  <QM_Energy>  (1906) 
-12.25

>  <source>  (1906) 
ETAM_MBZ

>  <Index>  (1906) 
19539

$$$$
ETAM-pdb4ex5-B-LYS-601:MBZ-pdb4ex5-B-PHE-430
     RDKit          3D

 26 25  0  0  0  0  0  0  0  0999 V2000
    1.2779   -1.9479    3.4378 C   0  0  0  0  0  0  0  0  0  0  0  0
    2.0893   -1.3773    3.3398 H   0  0  0  0  0  0  0  0  0  0  0  0
    1.2350   -2.6124    2.6967 H   0  0  0  0  0  0  0  0  0  0  0  0
    1.3552   -2.4909    4.3797 H   0  0  0  0  0  0  0  0  0  0  0  0
    0.0422   -1.0613    3.3765 C   0  0  0  0  0  0  0  0  0  0  0  0
   -0.0212   -0.5289    4.2443 H   0  0  0  0  0  0  0  0  0  0  0  0
    0.1675   -0.3763    2.6298 H   0  0  0  0  0  0  0  0  0  0  0  0
   -1.2652   -1.7666    3.1573 N   0  0  0  0  0  4  0  0  0  0  0  0
   -1.1280   -2.7480    3.2722 H   0  0  0  0  0  0  0  0  0  0  0  0
   -1.9284   -1.4358    3.8249 H   0  0  0  0  0  0  0  0  0  0  0  0
   -1.5877   -1.5738    2.2329 H   0  0  0  0  0  0  0  0  0  0  0  0
    0.0120    2.8974   -0.1308 C   0  0  0  0  0  0  0  0  0  0  0  0
   -0.7618    3.1564   -0.7051 H   0  0  0  0  0  0  0  0  0  0  0  0
    0.8665    3.1560   -0.5773 H   0  0  0  0  0  0  0  0  0  0  0  0
   -0.0611    3.4639    0.7975 H   0  0  0  0  0  0  0  0  0  0  0  0
    0.0017    1.3961    0.0053 C   0  0  0  0  0  0  0  0  0  0  0  0
   -1.1790    0.6966   -0.0049 C   0  0  0  0  0  0  0  0  0  0  0  0
   -2.0513    1.1906   -0.0176 H   0  0  0  0  0  0  0  0  0  0  0  0
   -1.1866   -0.6772    0.0000 C   0  0  0  0  0  0  0  0  0  0  0  0
   -2.0809   -1.1656   -0.0027 H   0  0  0  0  0  0  0  0  0  0  0  0
   -0.0187   -1.3808    0.0107 C   0  0  0  0  0  0  0  0  0  0  0  0
   -0.0303   -2.3841    0.0253 H   0  0  0  0  0  0  0  0  0  0  0  0
    1.1866   -0.7072    0.0000 C   0  0  0  0  0  0  0  0  0  0  0  0
    2.0612   -1.2187    0.0016 H   0  0  0  0  0  0  0  0  0  0  0  0
    1.1960    0.6724   -0.0110 C   0  0  0  0  0  0  0  0  0  0  0  0
    2.0653    1.1673   -0.0315 H   0  0  0  0  0  0  0  0  0  0  0  0
  1  5  1  0
  5  8  1  0
  1  2  1  0
  1  3  1  0
  1  4  1  0
  5  6  1  0
  5  7  1  0
  8  9  1  0
  8 10  1  0
  8 11  1  0
 12 16  1  0
 16 17  2  0
 17 19  1  0
 19 21  2  0
 21 23  1  0
 23 25  2  0
 25 16  1  0
 12 13  1  0
 12 14  1  0
 12 15  1  0
 17 18  1  0
 19 20  1  0
 21 22  1  0
 23 24  1  0
 25 26  1  0
M  CHG  1   8   1
M  END
>  <PDB_ID>  (1907) 
pdb4ex5

>  <RESIDUE_NAME>  (1907) 
LYS   PHE

>  <FRAG_NAME>  (1907) 
ETAM   MBZ

>  <FRAG_ATOM_NUM>  (1907) 
fragi: 11  fragj: 15

>  <atom.prop.CHAIN_ID>  (1907) 
A A A A A A A A A A A Z Z Z Z Z Z Z Z Z Z Z Z Z Z Z

>  <atom.prop.IS_HEAVY_ATOM>  (1907) 
1 0 0 0 1 0 0 1 0 0 0 1 0 0 0 1 1 0 1 0 1 0 1 0 1 0

>  <DIFUSE_FUNC_ATOM>  (1907) 
n/a

>  <FINAL_SINGLE_POINT_ENERGY>  (1907) 
0

>  <NONCOV_INTER_ENERGY_QM>  (1907) 
0

>  <FF_Energy>  (1907) 
-5.53

>  <QM_Energy>  (1907) 
-13.78

>  <source>  (1907) 
ETAM_MBZ

>  <Index>  (1907) 
19562

$$$$
ETAM-pdb3i33-A-LYS-101:MBZ-pdb3i33-A-PHE-116
     RDKit          3D

 26 25  0  0  0  0  0  0  0  0999 V2000
   -3.3685   -1.1312    3.3650 C   0  0  0  0  0  0  0  0  0  0  0  0
   -3.2154   -1.8757    4.0151 H   0  0  0  0  0  0  0  0  0  0  0  0
   -2.7465   -1.2331    2.5888 H   0  0  0  0  0  0  0  0  0  0  0  0
   -4.3924   -1.2006    2.9978 H   0  0  0  0  0  0  0  0  0  0  0  0
   -3.0621    0.1943    4.0618 C   0  0  0  0  0  0  0  0  0  0  0  0
   -3.9171    0.5461    4.4759 H   0  0  0  0  0  0  0  0  0  0  0  0
   -2.4113    0.0181    4.8183 H   0  0  0  0  0  0  0  0  0  0  0  0
   -2.4894    1.2475    3.1682 N   0  0  0  0  0  4  0  0  0  0  0  0
   -3.2086    1.8952    2.9219 H   0  0  0  0  0  0  0  0  0  0  0  0
   -1.7566    1.7238    3.6501 H   0  0  0  0  0  0  0  0  0  0  0  0
   -2.1264    0.8164    2.3439 H   0  0  0  0  0  0  0  0  0  0  0  0
    0.0063    2.8980   -0.0127 C   0  0  0  0  0  0  0  0  0  0  0  0
    0.9351    3.2009    0.1307 H   0  0  0  0  0  0  0  0  0  0  0  0
   -0.5925    3.2119    0.7079 H   0  0  0  0  0  0  0  0  0  0  0  0
   -0.3444    3.3295   -0.9502 H   0  0  0  0  0  0  0  0  0  0  0  0
   -0.0020    1.3993   -0.0059 C   0  0  0  0  0  0  0  0  0  0  0  0
   -1.1955    0.6998    0.0061 C   0  0  0  0  0  0  0  0  0  0  0  0
   -2.0632    1.1801    0.0181 H   0  0  0  0  0  0  0  0  0  0  0  0
   -1.1937   -0.7023    0.0000 C   0  0  0  0  0  0  0  0  0  0  0  0
   -2.0690   -1.1937   -0.0046 H   0  0  0  0  0  0  0  0  0  0  0  0
    0.0089   -1.3876    0.0018 C   0  0  0  0  0  0  0  0  0  0  0  0
    0.0020   -2.3925    0.0040 H   0  0  0  0  0  0  0  0  0  0  0  0
    1.1937   -0.7000   -0.0000 C   0  0  0  0  0  0  0  0  0  0  0  0
    2.0820   -1.1918    0.0018 H   0  0  0  0  0  0  0  0  0  0  0  0
    1.1887    0.6908   -0.0020 C   0  0  0  0  0  0  0  0  0  0  0  0
    2.0599    1.1849   -0.0015 H   0  0  0  0  0  0  0  0  0  0  0  0
  1  5  1  0
  5  8  1  0
  1  2  1  0
  1  3  1  0
  1  4  1  0
  5  6  1  0
  5  7  1  0
  8  9  1  0
  8 10  1  0
  8 11  1  0
 12 16  1  0
 16 17  2  0
 17 19  1  0
 19 21  2  0
 21 23  1  0
 23 25  2  0
 25 16  1  0
 12 13  1  0
 12 14  1  0
 12 15  1  0
 17 18  1  0
 19 20  1  0
 21 22  1  0
 23 24  1  0
 25 26  1  0
M  CHG  1   8   1
M  END
>  <PDB_ID>  (1908) 
pdb3i33

>  <RESIDUE_NAME>  (1908) 
LYS   PHE

>  <FRAG_NAME>  (1908) 
ETAM   MBZ

>  <FRAG_ATOM_NUM>  (1908) 
fragi: 11  fragj: 15

>  <atom.prop.CHAIN_ID>  (1908) 
A A A A A A A A A A A Z Z Z Z Z Z Z Z Z Z Z Z Z Z Z

>  <atom.prop.IS_HEAVY_ATOM>  (1908) 
1 0 0 0 1 0 0 1 0 0 0 1 0 0 0 1 1 0 1 0 1 0 1 0 1 0

>  <DIFUSE_FUNC_ATOM>  (1908) 
n/a

>  <FINAL_SINGLE_POINT_ENERGY>  (1908) 
0

>  <NONCOV_INTER_ENERGY_QM>  (1908) 
0

>  <FF_Energy>  (1908) 
-4.27

>  <QM_Energy>  (1908) 
-9.64

>  <source>  (1908) 
ETAM_MBZ

>  <Index>  (1908) 
19568

$$$$
ETAM-pdb3i3r-B-LYS-68:MBZ-pdb3i3r-B-PHE-127
     RDKit          3D

 26 25  0  0  0  0  0  0  0  0999 V2000
    5.3298   -0.5762   -2.7599 C   0  0  0  0  0  0  0  0  0  0  0  0
    4.6492    0.1342   -2.9471 H   0  0  0  0  0  0  0  0  0  0  0  0
    5.3631   -1.2125   -3.5321 H   0  0  0  0  0  0  0  0  0  0  0  0
    6.3063   -0.1044   -2.6508 H   0  0  0  0  0  0  0  0  0  0  0  0
    4.9074   -1.3373   -1.5243 C   0  0  0  0  0  0  0  0  0  0  0  0
    5.5798   -2.0518   -1.3331 H   0  0  0  0  0  0  0  0  0  0  0  0
    4.8651   -0.7062   -0.7488 H   0  0  0  0  0  0  0  0  0  0  0  0
    3.5742   -1.9598   -1.7194 N   0  0  0  0  0  4  0  0  0  0  0  0
    3.6637   -2.9556   -1.6897 H   0  0  0  0  0  0  0  0  0  0  0  0
    2.9552   -1.6579   -0.9940 H   0  0  0  0  0  0  0  0  0  0  0  0
    3.2041   -1.6855   -2.6083 H   0  0  0  0  0  0  0  0  0  0  0  0
   -0.0066    2.9286   -0.0085 C   0  0  0  0  0  0  0  0  0  0  0  0
    0.9037    3.2313   -0.2316 H   0  0  0  0  0  0  0  0  0  0  0  0
   -0.2865    3.2309    0.8865 H   0  0  0  0  0  0  0  0  0  0  0  0
   -0.6923    3.3599   -0.7378 H   0  0  0  0  0  0  0  0  0  0  0  0
   -0.0012    1.4099   -0.0037 C   0  0  0  0  0  0  0  0  0  0  0  0
   -1.1996    0.6929    0.0043 C   0  0  0  0  0  0  0  0  0  0  0  0
   -2.0668    1.1826    0.0125 H   0  0  0  0  0  0  0  0  0  0  0  0
   -1.2045   -0.7008   -0.0000 C   0  0  0  0  0  0  0  0  0  0  0  0
   -2.0784   -1.1945   -0.0035 H   0  0  0  0  0  0  0  0  0  0  0  0
    0.0027   -1.4001    0.0026 C   0  0  0  0  0  0  0  0  0  0  0  0
   -0.0035   -2.3976    0.0057 H   0  0  0  0  0  0  0  0  0  0  0  0
    1.2045   -0.7027    0.0000 C   0  0  0  0  0  0  0  0  0  0  0  0
    2.0867   -1.1934    0.0017 H   0  0  0  0  0  0  0  0  0  0  0  0
    1.1982    0.7008   -0.0032 C   0  0  0  0  0  0  0  0  0  0  0  0
    2.0660    1.1926   -0.0061 H   0  0  0  0  0  0  0  0  0  0  0  0
  1  5  1  0
  5  8  1  0
  1  2  1  0
  1  3  1  0
  1  4  1  0
  5  6  1  0
  5  7  1  0
  8  9  1  0
  8 10  1  0
  8 11  1  0
 12 16  1  0
 16 17  2  0
 17 19  1  0
 19 21  2  0
 21 23  1  0
 23 25  2  0
 25 16  1  0
 12 13  1  0
 12 14  1  0
 12 15  1  0
 17 18  1  0
 19 20  1  0
 21 22  1  0
 23 24  1  0
 25 26  1  0
M  CHG  1   8   1
M  END
>  <PDB_ID>  (1909) 
pdb3i3r

>  <RESIDUE_NAME>  (1909) 
LYS   PHE

>  <FRAG_NAME>  (1909) 
ETAM   MBZ

>  <FRAG_ATOM_NUM>  (1909) 
fragi: 11  fragj: 15

>  <atom.prop.CHAIN_ID>  (1909) 
A A A A A A A A A A A Z Z Z Z Z Z Z Z Z Z Z Z Z Z Z

>  <atom.prop.IS_HEAVY_ATOM>  (1909) 
1 0 0 0 1 0 0 1 0 0 0 1 0 0 0 1 1 0 1 0 1 0 1 0 1 0

>  <DIFUSE_FUNC_ATOM>  (1909) 
n/a

>  <FINAL_SINGLE_POINT_ENERGY>  (1909) 
0

>  <NONCOV_INTER_ENERGY_QM>  (1909) 
0

>  <FF_Energy>  (1909) 
3.1

>  <QM_Energy>  (1909) 
-2.66

>  <source>  (1909) 
ETAM_MBZ

>  <Index>  (1909) 
19575

$$$$
ETAM-pdb4f3l-B-LYS-205:MBZ-pdb4f3l-B-PHE-193
     RDKit          3D

 26 25  0  0  0  0  0  0  0  0999 V2000
   -0.9484   -1.8120    4.7232 C   0  0  0  0  0  0  0  0  0  0  0  0
   -1.4829   -1.0439    5.0618 H   0  0  0  0  0  0  0  0  0  0  0  0
   -0.9587   -2.5565    5.3834 H   0  0  0  0  0  0  0  0  0  0  0  0
   -1.3878   -2.1624    3.7892 H   0  0  0  0  0  0  0  0  0  0  0  0
    0.4895   -1.3545    4.5312 C   0  0  0  0  0  0  0  0  0  0  0  0
    0.8151   -0.9424    5.3872 H   0  0  0  0  0  0  0  0  0  0  0  0
    1.0596   -2.1550    4.3223 H   0  0  0  0  0  0  0  0  0  0  0  0
    0.6162   -0.3635    3.4323 N   0  0  0  0  0  4  0  0  0  0  0  0
    0.9143    0.5142    3.8075 H   0  0  0  0  0  0  0  0  0  0  0  0
    1.2896   -0.6872    2.7674 H   0  0  0  0  0  0  0  0  0  0  0  0
   -0.2699   -0.2503    2.9821 H   0  0  0  0  0  0  0  0  0  0  0  0
   -0.0020    2.9029   -0.0074 C   0  0  0  0  0  0  0  0  0  0  0  0
    0.9366    3.2087    0.0238 H   0  0  0  0  0  0  0  0  0  0  0  0
   -0.5109    3.2108    0.7799 H   0  0  0  0  0  0  0  0  0  0  0  0
   -0.4650    3.3354   -0.8944 H   0  0  0  0  0  0  0  0  0  0  0  0
   -0.0015    1.3960   -0.0007 C   0  0  0  0  0  0  0  0  0  0  0  0
   -1.1937    0.6892   -0.0002 C   0  0  0  0  0  0  0  0  0  0  0  0
   -2.0616    1.1822   -0.0013 H   0  0  0  0  0  0  0  0  0  0  0  0
   -1.1978   -0.6923    0.0000 C   0  0  0  0  0  0  0  0  0  0  0  0
   -2.0748   -1.1898    0.0008 H   0  0  0  0  0  0  0  0  0  0  0  0
    0.0010   -1.3855    0.0009 C   0  0  0  0  0  0  0  0  0  0  0  0
   -0.0052   -2.3872    0.0021 H   0  0  0  0  0  0  0  0  0  0  0  0
    1.1978   -0.6956    0.0000 C   0  0  0  0  0  0  0  0  0  0  0  0
    2.0796   -1.1955    0.0011 H   0  0  0  0  0  0  0  0  0  0  0  0
    1.1941    0.6882    0.0000 C   0  0  0  0  0  0  0  0  0  0  0  0
    2.0620    1.1869   -0.0003 H   0  0  0  0  0  0  0  0  0  0  0  0
  1  5  1  0
  5  8  1  0
  1  2  1  0
  1  3  1  0
  1  4  1  0
  5  6  1  0
  5  7  1  0
  8  9  1  0
  8 10  1  0
  8 11  1  0
 12 16  1  0
 16 17  2  0
 17 19  1  0
 19 21  2  0
 21 23  1  0
 23 25  2  0
 25 16  1  0
 12 13  1  0
 12 14  1  0
 12 15  1  0
 17 18  1  0
 19 20  1  0
 21 22  1  0
 23 24  1  0
 25 26  1  0
M  CHG  1   8   1
M  END
>  <PDB_ID>  (1910) 
pdb4f3l

>  <RESIDUE_NAME>  (1910) 
LYS   PHE

>  <FRAG_NAME>  (1910) 
ETAM   MBZ

>  <FRAG_ATOM_NUM>  (1910) 
fragi: 11  fragj: 15

>  <atom.prop.CHAIN_ID>  (1910) 
A A A A A A A A A A A Z Z Z Z Z Z Z Z Z Z Z Z Z Z Z

>  <atom.prop.IS_HEAVY_ATOM>  (1910) 
1 0 0 0 1 0 0 1 0 0 0 1 0 0 0 1 1 0 1 0 1 0 1 0 1 0

>  <DIFUSE_FUNC_ATOM>  (1910) 
n/a

>  <FINAL_SINGLE_POINT_ENERGY>  (1910) 
0

>  <NONCOV_INTER_ENERGY_QM>  (1910) 
0

>  <FF_Energy>  (1910) 
-7.61

>  <QM_Energy>  (1910) 
-13.75

>  <source>  (1910) 
ETAM_MBZ

>  <Index>  (1910) 
19583

$$$$
ETAM-pdb3i4k-C-LYS-171:MBZ-pdb3i4k-C-PHE-26
     RDKit          3D

 26 25  0  0  0  0  0  0  0  0999 V2000
   -3.9242    0.2816   -2.8236 C   0  0  0  0  0  0  0  0  0  0  0  0
   -3.6221   -0.1233   -3.6860 H   0  0  0  0  0  0  0  0  0  0  0  0
   -3.2761    0.9871   -2.5380 H   0  0  0  0  0  0  0  0  0  0  0  0
   -4.8998    0.7429   -2.9770 H   0  0  0  0  0  0  0  0  0  0  0  0
   -3.9390   -0.8192   -1.7546 C   0  0  0  0  0  0  0  0  0  0  0  0
   -2.9732   -1.0531   -1.5255 H   0  0  0  0  0  0  0  0  0  0  0  0
   -4.3499   -0.4328   -0.9050 H   0  0  0  0  0  0  0  0  0  0  0  0
   -4.6652   -2.0694   -2.1150 N   0  0  0  0  0  4  0  0  0  0  0  0
   -4.0024   -2.7885   -2.3232 H   0  0  0  0  0  0  0  0  0  0  0  0
   -5.2378   -2.3525   -1.3463 H   0  0  0  0  0  0  0  0  0  0  0  0
   -5.2390   -1.8994   -2.9155 H   0  0  0  0  0  0  0  0  0  0  0  0
    0.0023    2.9071   -0.0203 C   0  0  0  0  0  0  0  0  0  0  0  0
    0.9060    3.2160    0.2342 H   0  0  0  0  0  0  0  0  0  0  0  0
   -0.6811    3.2245    0.6187 H   0  0  0  0  0  0  0  0  0  0  0  0
   -0.2316    3.3351   -0.9951 H   0  0  0  0  0  0  0  0  0  0  0  0
   -0.0009    1.4044   -0.0001 C   0  0  0  0  0  0  0  0  0  0  0  0
   -1.1990    0.6966   -0.0007 C   0  0  0  0  0  0  0  0  0  0  0  0
   -2.0654    1.1871   -0.0031 H   0  0  0  0  0  0  0  0  0  0  0  0
   -1.2054   -0.6963    0.0000 C   0  0  0  0  0  0  0  0  0  0  0  0
   -2.0803   -1.1899    0.0021 H   0  0  0  0  0  0  0  0  0  0  0  0
    0.0010   -1.3984    0.0002 C   0  0  0  0  0  0  0  0  0  0  0  0
   -0.0055   -2.3945   -0.0004 H   0  0  0  0  0  0  0  0  0  0  0  0
    1.2054   -0.7007   -0.0000 C   0  0  0  0  0  0  0  0  0  0  0  0
    2.0858   -1.1961    0.0010 H   0  0  0  0  0  0  0  0  0  0  0  0
    1.1989    0.6943    0.0007 C   0  0  0  0  0  0  0  0  0  0  0  0
    2.0661    1.1912    0.0011 H   0  0  0  0  0  0  0  0  0  0  0  0
  1  5  1  0
  5  8  1  0
  1  2  1  0
  1  3  1  0
  1  4  1  0
  5  6  1  0
  5  7  1  0
  8  9  1  0
  8 10  1  0
  8 11  1  0
 12 16  1  0
 16 17  2  0
 17 19  1  0
 19 21  2  0
 21 23  1  0
 23 25  2  0
 25 16  1  0
 12 13  1  0
 12 14  1  0
 12 15  1  0
 17 18  1  0
 19 20  1  0
 21 22  1  0
 23 24  1  0
 25 26  1  0
M  CHG  1   8   1
M  END
>  <PDB_ID>  (1911) 
pdb3i4k

>  <RESIDUE_NAME>  (1911) 
LYS   PHE

>  <FRAG_NAME>  (1911) 
ETAM   MBZ

>  <FRAG_ATOM_NUM>  (1911) 
fragi: 11  fragj: 15

>  <atom.prop.CHAIN_ID>  (1911) 
A A A A A A A A A A A Z Z Z Z Z Z Z Z Z Z Z Z Z Z Z

>  <atom.prop.IS_HEAVY_ATOM>  (1911) 
1 0 0 0 1 0 0 1 0 0 0 1 0 0 0 1 1 0 1 0 1 0 1 0 1 0

>  <DIFUSE_FUNC_ATOM>  (1911) 
n/a

>  <FINAL_SINGLE_POINT_ENERGY>  (1911) 
0

>  <NONCOV_INTER_ENERGY_QM>  (1911) 
0

>  <FF_Energy>  (1911) 
6.56

>  <QM_Energy>  (1911) 
-1.71

>  <source>  (1911) 
ETAM_MBZ

>  <Index>  (1911) 
19601

$$$$
ETAM-pdb3i4k-D-LYS-171:MBZ-pdb3i4k-D-PHE-26
     RDKit          3D

 26 25  0  0  0  0  0  0  0  0999 V2000
   -3.5344   -0.3325   -2.6569 C   0  0  0  0  0  0  0  0  0  0  0  0
   -2.9028   -0.3906   -3.4265 H   0  0  0  0  0  0  0  0  0  0  0  0
   -3.2286    0.3685   -2.0168 H   0  0  0  0  0  0  0  0  0  0  0  0
   -4.5212   -0.0611   -3.0319 H   0  0  0  0  0  0  0  0  0  0  0  0
   -3.5288   -1.6846   -1.9272 C   0  0  0  0  0  0  0  0  0  0  0  0
   -2.6062   -1.8348   -1.5409 H   0  0  0  0  0  0  0  0  0  0  0  0
   -4.1787   -1.6320   -1.1527 H   0  0  0  0  0  0  0  0  0  0  0  0
   -3.8914   -2.8488   -2.7894 N   0  0  0  0  0  4  0  0  0  0  0  0
   -4.8023   -3.1728   -2.5382 H   0  0  0  0  0  0  0  0  0  0  0  0
   -3.8875   -2.5631   -3.7463 H   0  0  0  0  0  0  0  0  0  0  0  0
   -3.2248   -3.5792   -2.6535 H   0  0  0  0  0  0  0  0  0  0  0  0
    0.0012    2.9093   -0.0156 C   0  0  0  0  0  0  0  0  0  0  0  0
    0.9033    3.2177    0.2427 H   0  0  0  0  0  0  0  0  0  0  0  0
   -0.6852    3.2222    0.6225 H   0  0  0  0  0  0  0  0  0  0  0  0
   -0.2307    3.3371   -0.9910 H   0  0  0  0  0  0  0  0  0  0  0  0
    0.0010    1.4053    0.0003 C   0  0  0  0  0  0  0  0  0  0  0  0
   -1.1989    0.6952   -0.0013 C   0  0  0  0  0  0  0  0  0  0  0  0
   -2.0646    1.1862   -0.0050 H   0  0  0  0  0  0  0  0  0  0  0  0
   -1.2050   -0.6974    0.0000 C   0  0  0  0  0  0  0  0  0  0  0  0
   -2.0805   -1.1902    0.0024 H   0  0  0  0  0  0  0  0  0  0  0  0
   -0.0014   -1.3969   -0.0003 C   0  0  0  0  0  0  0  0  0  0  0  0
   -0.0066   -2.3946   -0.0013 H   0  0  0  0  0  0  0  0  0  0  0  0
    1.2050   -0.7005   -0.0000 C   0  0  0  0  0  0  0  0  0  0  0  0
    2.0831   -1.1975    0.0005 H   0  0  0  0  0  0  0  0  0  0  0  0
    1.1993    0.6943    0.0012 C   0  0  0  0  0  0  0  0  0  0  0  0
    2.0672    1.1899    0.0019 H   0  0  0  0  0  0  0  0  0  0  0  0
  1  5  1  0
  5  8  1  0
  1  2  1  0
  1  3  1  0
  1  4  1  0
  5  6  1  0
  5  7  1  0
  8  9  1  0
  8 10  1  0
  8 11  1  0
 12 16  1  0
 16 17  2  0
 17 19  1  0
 19 21  2  0
 21 23  1  0
 23 25  2  0
 25 16  1  0
 12 13  1  0
 12 14  1  0
 12 15  1  0
 17 18  1  0
 19 20  1  0
 21 22  1  0
 23 24  1  0
 25 26  1  0
M  CHG  1   8   1
M  END
>  <PDB_ID>  (1912) 
pdb3i4k

>  <RESIDUE_NAME>  (1912) 
LYS   PHE

>  <FRAG_NAME>  (1912) 
ETAM   MBZ

>  <FRAG_ATOM_NUM>  (1912) 
fragi: 11  fragj: 15

>  <atom.prop.CHAIN_ID>  (1912) 
A A A A A A A A A A A Z Z Z Z Z Z Z Z Z Z Z Z Z Z Z

>  <atom.prop.IS_HEAVY_ATOM>  (1912) 
1 0 0 0 1 0 0 1 0 0 0 1 0 0 0 1 1 0 1 0 1 0 1 0 1 0

>  <DIFUSE_FUNC_ATOM>  (1912) 
n/a

>  <FINAL_SINGLE_POINT_ENERGY>  (1912) 
0

>  <NONCOV_INTER_ENERGY_QM>  (1912) 
0

>  <FF_Energy>  (1912) 
7.77

>  <QM_Energy>  (1912) 
-1.58

>  <source>  (1912) 
ETAM_MBZ

>  <Index>  (1912) 
19602

$$$$
ETAM-pdb3i4k-E-LYS-171:MBZ-pdb3i4k-E-PHE-26
     RDKit          3D

 26 25  0  0  0  0  0  0  0  0999 V2000
   -3.5985    0.1420   -2.6351 C   0  0  0  0  0  0  0  0  0  0  0  0
   -3.0233   -0.0457   -3.4284 H   0  0  0  0  0  0  0  0  0  0  0  0
   -3.1557    0.8142   -2.0458 H   0  0  0  0  0  0  0  0  0  0  0  0
   -4.5505    0.5467   -2.9787 H   0  0  0  0  0  0  0  0  0  0  0  0
   -3.7484   -1.1732   -1.8314 C   0  0  0  0  0  0  0  0  0  0  0  0
   -2.8512   -1.3733   -1.3886 H   0  0  0  0  0  0  0  0  0  0  0  0
   -4.4101   -1.0035   -1.0737 H   0  0  0  0  0  0  0  0  0  0  0  0
   -4.1901   -2.3794   -2.5998 N   0  0  0  0  0  4  0  0  0  0  0  0
   -5.1821   -2.3541   -2.7077 H   0  0  0  0  0  0  0  0  0  0  0  0
   -3.7531   -2.3742   -3.4976 H   0  0  0  0  0  0  0  0  0  0  0  0
   -3.9246   -3.2018   -2.0995 H   0  0  0  0  0  0  0  0  0  0  0  0
    0.0044    2.9164    0.0149 C   0  0  0  0  0  0  0  0  0  0  0  0
    0.9206    3.2162    0.2368 H   0  0  0  0  0  0  0  0  0  0  0  0
   -0.6461    3.2156    0.6978 H   0  0  0  0  0  0  0  0  0  0  0  0
   -0.2753    3.3707   -0.9356 H   0  0  0  0  0  0  0  0  0  0  0  0
    0.0007    1.4096    0.0000 C   0  0  0  0  0  0  0  0  0  0  0  0
   -1.1991    0.6994   -0.0017 C   0  0  0  0  0  0  0  0  0  0  0  0
   -2.0650    1.1845   -0.0054 H   0  0  0  0  0  0  0  0  0  0  0  0
   -1.2045   -0.7048    0.0000 C   0  0  0  0  0  0  0  0  0  0  0  0
   -2.0808   -1.1927    0.0023 H   0  0  0  0  0  0  0  0  0  0  0  0
   -0.0003   -1.4042    0.0007 C   0  0  0  0  0  0  0  0  0  0  0  0
   -0.0017   -2.3988    0.0011 H   0  0  0  0  0  0  0  0  0  0  0  0
    1.2045   -0.7001    0.0000 C   0  0  0  0  0  0  0  0  0  0  0  0
    2.0855   -1.1940   -0.0001 H   0  0  0  0  0  0  0  0  0  0  0  0
    1.1986    0.6999    0.0010 C   0  0  0  0  0  0  0  0  0  0  0  0
    2.0669    1.1935    0.0019 H   0  0  0  0  0  0  0  0  0  0  0  0
  1  5  1  0
  5  8  1  0
  1  2  1  0
  1  3  1  0
  1  4  1  0
  5  6  1  0
  5  7  1  0
  8  9  1  0
  8 10  1  0
  8 11  1  0
 12 16  1  0
 16 17  2  0
 17 19  1  0
 19 21  2  0
 21 23  1  0
 23 25  2  0
 25 16  1  0
 12 13  1  0
 12 14  1  0
 12 15  1  0
 17 18  1  0
 19 20  1  0
 21 22  1  0
 23 24  1  0
 25 26  1  0
M  CHG  1   8   1
M  END
>  <PDB_ID>  (1913) 
pdb3i4k

>  <RESIDUE_NAME>  (1913) 
LYS   PHE

>  <FRAG_NAME>  (1913) 
ETAM   MBZ

>  <FRAG_ATOM_NUM>  (1913) 
fragi: 11  fragj: 15

>  <atom.prop.CHAIN_ID>  (1913) 
A A A A A A A A A A A Z Z Z Z Z Z Z Z Z Z Z Z Z Z Z

>  <atom.prop.IS_HEAVY_ATOM>  (1913) 
1 0 0 0 1 0 0 1 0 0 0 1 0 0 0 1 1 0 1 0 1 0 1 0 1 0

>  <DIFUSE_FUNC_ATOM>  (1913) 
n/a

>  <FINAL_SINGLE_POINT_ENERGY>  (1913) 
0

>  <NONCOV_INTER_ENERGY_QM>  (1913) 
0

>  <FF_Energy>  (1913) 
20.57

>  <QM_Energy>  (1913) 
-0.01

>  <source>  (1913) 
ETAM_MBZ

>  <Index>  (1913) 
19603

$$$$
ETAM-pdb3i4k-F-LYS-171:MBZ-pdb3i4k-F-PHE-26
     RDKit          3D

 26 25  0  0  0  0  0  0  0  0999 V2000
   -3.5292    0.6977   -2.8733 C   0  0  0  0  0  0  0  0  0  0  0  0
   -2.9647    0.4387   -3.6515 H   0  0  0  0  0  0  0  0  0  0  0  0
   -3.0684    1.3928   -2.3292 H   0  0  0  0  0  0  0  0  0  0  0  0
   -4.4666    1.1108   -3.2459 H   0  0  0  0  0  0  0  0  0  0  0  0
   -3.7476   -0.5385   -1.9986 C   0  0  0  0  0  0  0  0  0  0  0  0
   -2.8513   -0.8265   -1.6196 H   0  0  0  0  0  0  0  0  0  0  0  0
   -4.3339   -0.2779   -1.2120 H   0  0  0  0  0  0  0  0  0  0  0  0
   -4.3719   -1.7023   -2.7003 N   0  0  0  0  0  4  0  0  0  0  0  0
   -3.8950   -1.8592   -3.5632 H   0  0  0  0  0  0  0  0  0  0  0  0
   -4.2981   -2.5124   -2.1212 H   0  0  0  0  0  0  0  0  0  0  0  0
   -5.3333   -1.5003   -2.8784 H   0  0  0  0  0  0  0  0  0  0  0  0
    0.0029    2.9070    0.0187 C   0  0  0  0  0  0  0  0  0  0  0  0
    0.9049    3.2086    0.2885 H   0  0  0  0  0  0  0  0  0  0  0  0
   -0.6838    3.2069    0.6631 H   0  0  0  0  0  0  0  0  0  0  0  0
   -0.2254    3.3605   -0.9459 H   0  0  0  0  0  0  0  0  0  0  0  0
    0.0002    1.4041    0.0009 C   0  0  0  0  0  0  0  0  0  0  0  0
   -1.1995    0.6962   -0.0011 C   0  0  0  0  0  0  0  0  0  0  0  0
   -2.0647    1.1857   -0.0044 H   0  0  0  0  0  0  0  0  0  0  0  0
   -1.2042   -0.6984   -0.0000 C   0  0  0  0  0  0  0  0  0  0  0  0
   -2.0786   -1.1916    0.0022 H   0  0  0  0  0  0  0  0  0  0  0  0
    0.0019   -1.3959    0.0004 C   0  0  0  0  0  0  0  0  0  0  0  0
   -0.0037   -2.3946    0.0008 H   0  0  0  0  0  0  0  0  0  0  0  0
    1.2042   -0.6998   -0.0000 C   0  0  0  0  0  0  0  0  0  0  0  0
    2.0845   -1.1955    0.0016 H   0  0  0  0  0  0  0  0  0  0  0  0
    1.1974    0.6939   -0.0002 C   0  0  0  0  0  0  0  0  0  0  0  0
    2.0662    1.1895   -0.0019 H   0  0  0  0  0  0  0  0  0  0  0  0
  1  5  1  0
  5  8  1  0
  1  2  1  0
  1  3  1  0
  1  4  1  0
  5  6  1  0
  5  7  1  0
  8  9  1  0
  8 10  1  0
  8 11  1  0
 12 16  1  0
 16 17  2  0
 17 19  1  0
 19 21  2  0
 21 23  1  0
 23 25  2  0
 25 16  1  0
 12 13  1  0
 12 14  1  0
 12 15  1  0
 17 18  1  0
 19 20  1  0
 21 22  1  0
 23 24  1  0
 25 26  1  0
M  CHG  1   8   1
M  END
>  <PDB_ID>  (1914) 
pdb3i4k

>  <RESIDUE_NAME>  (1914) 
LYS   PHE

>  <FRAG_NAME>  (1914) 
ETAM   MBZ

>  <FRAG_ATOM_NUM>  (1914) 
fragi: 11  fragj: 15

>  <atom.prop.CHAIN_ID>  (1914) 
A A A A A A A A A A A Z Z Z Z Z Z Z Z Z Z Z Z Z Z Z

>  <atom.prop.IS_HEAVY_ATOM>  (1914) 
1 0 0 0 1 0 0 1 0 0 0 1 0 0 0 1 1 0 1 0 1 0 1 0 1 0

>  <DIFUSE_FUNC_ATOM>  (1914) 
n/a

>  <FINAL_SINGLE_POINT_ENERGY>  (1914) 
0

>  <NONCOV_INTER_ENERGY_QM>  (1914) 
0

>  <FF_Energy>  (1914) 
5.28

>  <QM_Energy>  (1914) 
-2.58

>  <source>  (1914) 
ETAM_MBZ

>  <Index>  (1914) 
19605

$$$$
ETAM-pdb3i4k-G-LYS-171:MBZ-pdb3i4k-G-PHE-26
     RDKit          3D

 26 25  0  0  0  0  0  0  0  0999 V2000
   -3.7515    0.0646   -2.7571 C   0  0  0  0  0  0  0  0  0  0  0  0
   -3.1482   -0.1241   -3.5272 H   0  0  0  0  0  0  0  0  0  0  0  0
   -3.3653    0.7863   -2.1889 H   0  0  0  0  0  0  0  0  0  0  0  0
   -4.7166    0.3963   -3.1403 H   0  0  0  0  0  0  0  0  0  0  0  0
   -3.8664   -1.2061   -1.9117 C   0  0  0  0  0  0  0  0  0  0  0  0
   -2.9899   -1.3452   -1.4217 H   0  0  0  0  0  0  0  0  0  0  0  0
   -4.5836   -1.0613   -1.2097 H   0  0  0  0  0  0  0  0  0  0  0  0
   -4.1893   -2.4378   -2.6873 N   0  0  0  0  0  4  0  0  0  0  0  0
   -3.7844   -3.2302   -2.2324 H   0  0  0  0  0  0  0  0  0  0  0  0
   -5.1811   -2.5484   -2.7340 H   0  0  0  0  0  0  0  0  0  0  0  0
   -3.8174   -2.3540   -3.6109 H   0  0  0  0  0  0  0  0  0  0  0  0
    0.0016    2.9098   -0.0027 C   0  0  0  0  0  0  0  0  0  0  0  0
    0.9109    3.2156    0.2384 H   0  0  0  0  0  0  0  0  0  0  0  0
   -0.6683    3.2176    0.6563 H   0  0  0  0  0  0  0  0  0  0  0  0
   -0.2532    3.3493   -0.9670 H   0  0  0  0  0  0  0  0  0  0  0  0
    0.0008    1.4058    0.0005 C   0  0  0  0  0  0  0  0  0  0  0  0
   -1.1987    0.6958   -0.0005 C   0  0  0  0  0  0  0  0  0  0  0  0
   -2.0649    1.1845   -0.0027 H   0  0  0  0  0  0  0  0  0  0  0  0
   -1.2045   -0.7008    0.0000 C   0  0  0  0  0  0  0  0  0  0  0  0
   -2.0813   -1.1921    0.0018 H   0  0  0  0  0  0  0  0  0  0  0  0
   -0.0018   -1.3981   -0.0001 C   0  0  0  0  0  0  0  0  0  0  0  0
   -0.0037   -2.3953   -0.0008 H   0  0  0  0  0  0  0  0  0  0  0  0
    1.2045   -0.6989   -0.0000 C   0  0  0  0  0  0  0  0  0  0  0  0
    2.0836   -1.1963    0.0014 H   0  0  0  0  0  0  0  0  0  0  0  0
    1.1998    0.6963    0.0000 C   0  0  0  0  0  0  0  0  0  0  0  0
    2.0672    1.1918   -0.0017 H   0  0  0  0  0  0  0  0  0  0  0  0
  1  5  1  0
  5  8  1  0
  1  2  1  0
  1  3  1  0
  1  4  1  0
  5  6  1  0
  5  7  1  0
  8  9  1  0
  8 10  1  0
  8 11  1  0
 12 16  1  0
 16 17  2  0
 17 19  1  0
 19 21  2  0
 21 23  1  0
 23 25  2  0
 25 16  1  0
 12 13  1  0
 12 14  1  0
 12 15  1  0
 17 18  1  0
 19 20  1  0
 21 22  1  0
 23 24  1  0
 25 26  1  0
M  CHG  1   8   1
M  END
>  <PDB_ID>  (1915) 
pdb3i4k

>  <RESIDUE_NAME>  (1915) 
LYS   PHE

>  <FRAG_NAME>  (1915) 
ETAM   MBZ

>  <FRAG_ATOM_NUM>  (1915) 
fragi: 11  fragj: 15

>  <atom.prop.CHAIN_ID>  (1915) 
A A A A A A A A A A A Z Z Z Z Z Z Z Z Z Z Z Z Z Z Z

>  <atom.prop.IS_HEAVY_ATOM>  (1915) 
1 0 0 0 1 0 0 1 0 0 0 1 0 0 0 1 1 0 1 0 1 0 1 0 1 0

>  <DIFUSE_FUNC_ATOM>  (1915) 
n/a

>  <FINAL_SINGLE_POINT_ENERGY>  (1915) 
0

>  <NONCOV_INTER_ENERGY_QM>  (1915) 
0

>  <FF_Energy>  (1915) 
9.22

>  <QM_Energy>  (1915) 
-1.63

>  <source>  (1915) 
ETAM_MBZ

>  <Index>  (1915) 
19607

$$$$
ETAM-pdb4f4w-A-LYS-153:MBZ-pdb4f4w-A-PHE-5
     RDKit          3D

 26 25  0  0  0  0  0  0  0  0999 V2000
   -0.1328   -2.3871   -4.3561 C   0  0  0  0  0  0  0  0  0  0  0  0
   -0.9490   -1.9914   -4.0132 H   0  0  0  0  0  0  0  0  0  0  0  0
   -0.1376   -2.3779   -5.3253 H   0  0  0  0  0  0  0  0  0  0  0  0
    0.7213   -1.8131   -3.9968 H   0  0  0  0  0  0  0  0  0  0  0  0
   -0.0787   -3.8104   -3.9026 C   0  0  0  0  0  0  0  0  0  0  0  0
   -0.6888   -4.3468   -4.4332 H   0  0  0  0  0  0  0  0  0  0  0  0
    0.8284   -4.1449   -3.9803 H   0  0  0  0  0  0  0  0  0  0  0  0
   -0.4916   -3.8808   -2.4888 N   0  0  0  0  0  4  0  0  0  0  0  0
    0.0557   -3.3896   -1.9870 H   0  0  0  0  0  0  0  0  0  0  0  0
   -1.3212   -3.5728   -2.3982 H   0  0  0  0  0  0  0  0  0  0  0  0
   -0.4638   -4.7240   -2.2054 H   0  0  0  0  0  0  0  0  0  0  0  0
    0.0062    2.8997   -0.0045 C   0  0  0  0  0  0  0  0  0  0  0  0
   -0.6457    3.1913   -0.6598 H   0  0  0  0  0  0  0  0  0  0  0  0
    0.8919    3.1962   -0.2685 H   0  0  0  0  0  0  0  0  0  0  0  0
   -0.2401    3.3498    0.9572 H   0  0  0  0  0  0  0  0  0  0  0  0
    0.0103    1.3953    0.0013 C   0  0  0  0  0  0  0  0  0  0  0  0
   -1.1950    0.6876   -0.0075 C   0  0  0  0  0  0  0  0  0  0  0  0
   -2.0020    1.1489   -0.0042 H   0  0  0  0  0  0  0  0  0  0  0  0
   -1.1934   -0.6880   -0.0000 C   0  0  0  0  0  0  0  0  0  0  0  0
   -1.9999   -1.1508   -0.0011 H   0  0  0  0  0  0  0  0  0  0  0  0
   -0.0077   -1.3802    0.0084 C   0  0  0  0  0  0  0  0  0  0  0  0
   -0.0145   -2.3098    0.0057 H   0  0  0  0  0  0  0  0  0  0  0  0
    1.1934   -0.7011   -0.0000 C   0  0  0  0  0  0  0  0  0  0  0  0
    1.9969   -1.1691    0.0047 H   0  0  0  0  0  0  0  0  0  0  0  0
    1.1924    0.6864   -0.0021 C   0  0  0  0  0  0  0  0  0  0  0  0
    2.0007    1.1453    0.0006 H   0  0  0  0  0  0  0  0  0  0  0  0
  1  5  1  0
  5  8  1  0
  1  2  1  0
  1  3  1  0
  1  4  1  0
  5  6  1  0
  5  7  1  0
  8  9  1  0
  8 10  1  0
  8 11  1  0
 12 16  1  0
 16 17  2  0
 17 19  1  0
 19 21  2  0
 21 23  1  0
 23 25  2  0
 25 16  1  0
 12 13  1  0
 12 14  1  0
 12 15  1  0
 17 18  1  0
 19 20  1  0
 21 22  1  0
 23 24  1  0
 25 26  1  0
M  CHG  1   8   1
M  END
>  <PDB_ID>  (1916) 
pdb4f4w

>  <RESIDUE_NAME>  (1916) 
LYS   PHE

>  <FRAG_NAME>  (1916) 
ETAM   MBZ

>  <FRAG_ATOM_NUM>  (1916) 
fragi: 11  fragj: 15

>  <atom.prop.CHAIN_ID>  (1916) 
A A A A A A A A A A A Z Z Z Z Z Z Z Z Z Z Z Z Z Z Z

>  <atom.prop.IS_HEAVY_ATOM>  (1916) 
1 0 0 0 1 0 0 1 0 0 0 1 0 0 0 1 1 0 1 0 1 0 1 0 1 0

>  <DIFUSE_FUNC_ATOM>  (1916) 
n/a

>  <FINAL_SINGLE_POINT_ENERGY>  (1916) 
0

>  <NONCOV_INTER_ENERGY_QM>  (1916) 
0

>  <FF_Energy>  (1916) 
-1.1

>  <QM_Energy>  (1916) 
-6.37

>  <source>  (1916) 
ETAM_MBZ

>  <Index>  (1916) 
19644

$$$$
ETAM-pdb3i4g-A-LYS-382:MBZ-pdb3i4g-A-PHE-258
     RDKit          3D

 26 25  0  0  0  0  0  0  0  0999 V2000
   -0.1176   -0.1178    3.7410 C   0  0  0  0  0  0  0  0  0  0  0  0
   -0.5090   -0.2511    4.6469 H   0  0  0  0  0  0  0  0  0  0  0  0
   -0.8128   -0.2581    3.0420 H   0  0  0  0  0  0  0  0  0  0  0  0
    0.2689    0.8985    3.6643 H   0  0  0  0  0  0  0  0  0  0  0  0
    0.9833   -1.1947    3.5365 C   0  0  0  0  0  0  0  0  0  0  0  0
    1.3944   -1.0520    2.6279 H   0  0  0  0  0  0  0  0  0  0  0  0
    1.6978   -1.0464    4.2315 H   0  0  0  0  0  0  0  0  0  0  0  0
    0.4790   -2.5998    3.6370 N   0  0  0  0  0  4  0  0  0  0  0  0
    1.1739   -3.1667    4.0756 H   0  0  0  0  0  0  0  0  0  0  0  0
   -0.3577   -2.6094    4.1805 H   0  0  0  0  0  0  0  0  0  0  0  0
    0.2904   -2.9464    2.7198 H   0  0  0  0  0  0  0  0  0  0  0  0
   -0.0061    2.9098   -0.0184 C   0  0  0  0  0  0  0  0  0  0  0  0
    0.8873    3.2183    0.2426 H   0  0  0  0  0  0  0  0  0  0  0  0
   -0.7062    3.2133    0.5975 H   0  0  0  0  0  0  0  0  0  0  0  0
   -0.2270    3.3174   -1.0048 H   0  0  0  0  0  0  0  0  0  0  0  0
    0.0014    1.3923   -0.0065 C   0  0  0  0  0  0  0  0  0  0  0  0
   -1.1723    0.6846    0.0203 C   0  0  0  0  0  0  0  0  0  0  0  0
   -2.0474    1.1868    0.0552 H   0  0  0  0  0  0  0  0  0  0  0  0
   -1.1846   -0.6708   -0.0000 C   0  0  0  0  0  0  0  0  0  0  0  0
   -2.0765   -1.1685   -0.0114 H   0  0  0  0  0  0  0  0  0  0  0  0
   -0.0097   -1.3897   -0.0040 C   0  0  0  0  0  0  0  0  0  0  0  0
   -0.0299   -2.3856   -0.0102 H   0  0  0  0  0  0  0  0  0  0  0  0
    1.1846   -0.7071   -0.0000 C   0  0  0  0  0  0  0  0  0  0  0  0
    2.0678   -1.1990    0.0108 H   0  0  0  0  0  0  0  0  0  0  0  0
    1.1806    0.6907   -0.0098 C   0  0  0  0  0  0  0  0  0  0  0  0
    2.0572    1.1766   -0.0196 H   0  0  0  0  0  0  0  0  0  0  0  0
  1  5  1  0
  5  8  1  0
  1  2  1  0
  1  3  1  0
  1  4  1  0
  5  6  1  0
  5  7  1  0
  8  9  1  0
  8 10  1  0
  8 11  1  0
 12 16  1  0
 16 17  2  0
 17 19  1  0
 19 21  2  0
 21 23  1  0
 23 25  2  0
 25 16  1  0
 12 13  1  0
 12 14  1  0
 12 15  1  0
 17 18  1  0
 19 20  1  0
 21 22  1  0
 23 24  1  0
 25 26  1  0
M  CHG  1   8   1
M  END
>  <PDB_ID>  (1917) 
pdb3i4g

>  <RESIDUE_NAME>  (1917) 
LYS   PHE

>  <FRAG_NAME>  (1917) 
ETAM   MBZ

>  <FRAG_ATOM_NUM>  (1917) 
fragi: 11  fragj: 15

>  <atom.prop.CHAIN_ID>  (1917) 
A A A A A A A A A A A Z Z Z Z Z Z Z Z Z Z Z Z Z Z Z

>  <atom.prop.IS_HEAVY_ATOM>  (1917) 
1 0 0 0 1 0 0 1 0 0 0 1 0 0 0 1 1 0 1 0 1 0 1 0 1 0

>  <DIFUSE_FUNC_ATOM>  (1917) 
n/a

>  <FINAL_SINGLE_POINT_ENERGY>  (1917) 
0

>  <NONCOV_INTER_ENERGY_QM>  (1917) 
0

>  <FF_Energy>  (1917) 
-4.35

>  <QM_Energy>  (1917) 
-9.75

>  <source>  (1917) 
ETAM_MBZ

>  <Index>  (1917) 
19648

$$$$
ETAM-pdb3i6t-A-LYS-172:MBZ-pdb3i6t-A-PHE-176
     RDKit          3D

 26 25  0  0  0  0  0  0  0  0999 V2000
    0.1900    0.3962   -3.6692 C   0  0  0  0  0  0  0  0  0  0  0  0
    0.1555    0.3906   -2.6645 H   0  0  0  0  0  0  0  0  0  0  0  0
   -0.3911    1.1432   -4.0072 H   0  0  0  0  0  0  0  0  0  0  0  0
    1.2168    0.6051   -3.9695 H   0  0  0  0  0  0  0  0  0  0  0  0
   -0.3283   -0.9054   -4.1879 C   0  0  0  0  0  0  0  0  0  0  0  0
   -0.4609   -0.8462   -5.1601 H   0  0  0  0  0  0  0  0  0  0  0  0
    0.2865   -1.6310   -3.9382 H   0  0  0  0  0  0  0  0  0  0  0  0
   -1.6243   -1.1036   -3.5218 N   0  0  0  0  0  4  0  0  0  0  0  0
   -1.6906   -2.0437   -3.1797 H   0  0  0  0  0  0  0  0  0  0  0  0
   -1.7125   -0.4677   -2.7518 H   0  0  0  0  0  0  0  0  0  0  0  0
   -2.3702   -0.9377   -4.1712 H   0  0  0  0  0  0  0  0  0  0  0  0
   -0.0281    2.9113   -0.0133 C   0  0  0  0  0  0  0  0  0  0  0  0
   -0.5446    3.1890   -0.8154 H   0  0  0  0  0  0  0  0  0  0  0  0
    0.9136    3.2193   -0.0802 H   0  0  0  0  0  0  0  0  0  0  0  0
   -0.4803    3.3708    0.8656 H   0  0  0  0  0  0  0  0  0  0  0  0
   -0.0096    1.4042    0.0119 C   0  0  0  0  0  0  0  0  0  0  0  0
   -1.1981    0.6791   -0.0086 C   0  0  0  0  0  0  0  0  0  0  0  0
   -2.0713    1.1683   -0.0317 H   0  0  0  0  0  0  0  0  0  0  0  0
   -1.2006   -0.7062   -0.0000 C   0  0  0  0  0  0  0  0  0  0  0  0
   -2.0641   -1.2114    0.0145 H   0  0  0  0  0  0  0  0  0  0  0  0
    0.0221   -1.3976   -0.0105 C   0  0  0  0  0  0  0  0  0  0  0  0
    0.0159   -2.3940   -0.0256 H   0  0  0  0  0  0  0  0  0  0  0  0
    1.2006   -0.6914   -0.0000 C   0  0  0  0  0  0  0  0  0  0  0  0
    2.0963   -1.1700    0.0046 H   0  0  0  0  0  0  0  0  0  0  0  0
    1.1857    0.7120    0.0072 C   0  0  0  0  0  0  0  0  0  0  0  0
    2.0538    1.2062    0.0081 H   0  0  0  0  0  0  0  0  0  0  0  0
  1  5  1  0
  5  8  1  0
  1  2  1  0
  1  3  1  0
  1  4  1  0
  5  6  1  0
  5  7  1  0
  8  9  1  0
  8 10  1  0
  8 11  1  0
 12 16  1  0
 16 17  2  0
 17 19  1  0
 19 21  2  0
 21 23  1  0
 23 25  2  0
 25 16  1  0
 12 13  1  0
 12 14  1  0
 12 15  1  0
 17 18  1  0
 19 20  1  0
 21 22  1  0
 23 24  1  0
 25 26  1  0
M  CHG  1   8   1
M  END
>  <PDB_ID>  (1918) 
pdb3i6t

>  <RESIDUE_NAME>  (1918) 
LYS   PHE

>  <FRAG_NAME>  (1918) 
ETAM   MBZ

>  <FRAG_ATOM_NUM>  (1918) 
fragi: 11  fragj: 15

>  <atom.prop.CHAIN_ID>  (1918) 
A A A A A A A A A A A Z Z Z Z Z Z Z Z Z Z Z Z Z Z Z

>  <atom.prop.IS_HEAVY_ATOM>  (1918) 
1 0 0 0 1 0 0 1 0 0 0 1 0 0 0 1 1 0 1 0 1 0 1 0 1 0

>  <DIFUSE_FUNC_ATOM>  (1918) 
n/a

>  <FINAL_SINGLE_POINT_ENERGY>  (1918) 
0

>  <NONCOV_INTER_ENERGY_QM>  (1918) 
0

>  <FF_Energy>  (1918) 
-5.98

>  <QM_Energy>  (1918) 
-12.47

>  <source>  (1918) 
ETAM_MBZ

>  <Index>  (1918) 
19649

$$$$
ETAM-pdb3i6t-D-LYS-172:MBZ-pdb3i6t-D-PHE-176
     RDKit          3D

 26 25  0  0  0  0  0  0  0  0999 V2000
   -0.3124    0.2342   -3.5796 C   0  0  0  0  0  0  0  0  0  0  0  0
   -0.3074    0.2349   -2.5838 H   0  0  0  0  0  0  0  0  0  0  0  0
   -0.9193    0.9444   -3.9224 H   0  0  0  0  0  0  0  0  0  0  0  0
    0.6983    0.4432   -3.9302 H   0  0  0  0  0  0  0  0  0  0  0  0
   -0.8247   -1.1214   -4.0653 C   0  0  0  0  0  0  0  0  0  0  0  0
   -1.0118   -1.0675   -5.0423 H   0  0  0  0  0  0  0  0  0  0  0  0
   -0.1303   -1.8140   -3.8891 H   0  0  0  0  0  0  0  0  0  0  0  0
   -2.0886   -1.4998   -3.3443 N   0  0  0  0  0  4  0  0  0  0  0  0
   -1.9862   -1.2848   -2.3758 H   0  0  0  0  0  0  0  0  0  0  0  0
   -2.8488   -0.9822   -3.7293 H   0  0  0  0  0  0  0  0  0  0  0  0
   -2.2485   -2.4775   -3.4610 H   0  0  0  0  0  0  0  0  0  0  0  0
    0.0137    2.8976   -0.0428 C   0  0  0  0  0  0  0  0  0  0  0  0
   -0.6165    3.1865   -0.7530 H   0  0  0  0  0  0  0  0  0  0  0  0
    0.9374    3.1950   -0.2522 H   0  0  0  0  0  0  0  0  0  0  0  0
   -0.2878    3.3868    0.8834 H   0  0  0  0  0  0  0  0  0  0  0  0
    0.0052    1.4028    0.0089 C   0  0  0  0  0  0  0  0  0  0  0  0
   -1.2014    0.6938   -0.0037 C   0  0  0  0  0  0  0  0  0  0  0  0
   -2.0638    1.1874   -0.0168 H   0  0  0  0  0  0  0  0  0  0  0  0
   -1.2110   -0.7016    0.0000 C   0  0  0  0  0  0  0  0  0  0  0  0
   -2.0839   -1.1940    0.0069 H   0  0  0  0  0  0  0  0  0  0  0  0
   -0.0019   -1.4023   -0.0044 C   0  0  0  0  0  0  0  0  0  0  0  0
    0.0028   -2.3929   -0.0112 H   0  0  0  0  0  0  0  0  0  0  0  0
    1.2110   -0.6865   -0.0000 C   0  0  0  0  0  0  0  0  0  0  0  0
    2.0876   -1.1899    0.0053 H   0  0  0  0  0  0  0  0  0  0  0  0
    1.1982    0.6938   -0.0008 C   0  0  0  0  0  0  0  0  0  0  0  0
    2.0681    1.1975   -0.0096 H   0  0  0  0  0  0  0  0  0  0  0  0
  1  5  1  0
  5  8  1  0
  1  2  1  0
  1  3  1  0
  1  4  1  0
  5  6  1  0
  5  7  1  0
  8  9  1  0
  8 10  1  0
  8 11  1  0
 12 16  1  0
 16 17  2  0
 17 19  1  0
 19 21  2  0
 21 23  1  0
 23 25  2  0
 25 16  1  0
 12 13  1  0
 12 14  1  0
 12 15  1  0
 17 18  1  0
 19 20  1  0
 21 22  1  0
 23 24  1  0
 25 26  1  0
M  CHG  1   8   1
M  END
>  <PDB_ID>  (1919) 
pdb3i6t

>  <RESIDUE_NAME>  (1919) 
LYS   PHE

>  <FRAG_NAME>  (1919) 
ETAM   MBZ

>  <FRAG_ATOM_NUM>  (1919) 
fragi: 11  fragj: 15

>  <atom.prop.CHAIN_ID>  (1919) 
A A A A A A A A A A A Z Z Z Z Z Z Z Z Z Z Z Z Z Z Z

>  <atom.prop.IS_HEAVY_ATOM>  (1919) 
1 0 0 0 1 0 0 1 0 0 0 1 0 0 0 1 1 0 1 0 1 0 1 0 1 0

>  <DIFUSE_FUNC_ATOM>  (1919) 
n/a

>  <FINAL_SINGLE_POINT_ENERGY>  (1919) 
0

>  <NONCOV_INTER_ENERGY_QM>  (1919) 
0

>  <FF_Energy>  (1919) 
-4.87

>  <QM_Energy>  (1919) 
-11.98

>  <source>  (1919) 
ETAM_MBZ

>  <Index>  (1919) 
19652

$$$$
ETAM-pdb4f8k-B-LYS-103:MBZ-pdb4f8k-B-PHE-62
     RDKit          3D

 26 25  0  0  0  0  0  0  0  0999 V2000
    1.9739   -0.4145   -3.9372 C   0  0  0  0  0  0  0  0  0  0  0  0
    2.6000   -0.9964   -3.4244 H   0  0  0  0  0  0  0  0  0  0  0  0
    1.8710   -0.7576   -4.8673 H   0  0  0  0  0  0  0  0  0  0  0  0
    1.0000   -0.4333   -3.4480 H   0  0  0  0  0  0  0  0  0  0  0  0
    2.5444    0.9847   -3.9937 C   0  0  0  0  0  0  0  0  0  0  0  0
    3.2378    1.0270   -4.7336 H   0  0  0  0  0  0  0  0  0  0  0  0
    1.8025    1.6317   -4.2433 H   0  0  0  0  0  0  0  0  0  0  0  0
    3.1711    1.4415   -2.7244 N   0  0  0  0  0  4  0  0  0  0  0  0
    3.4545    2.3954   -2.8183 H   0  0  0  0  0  0  0  0  0  0  0  0
    2.5093    1.3612   -1.9796 H   0  0  0  0  0  0  0  0  0  0  0  0
    3.9693    0.8740   -2.5255 H   0  0  0  0  0  0  0  0  0  0  0  0
   -0.0126    2.9152   -0.0620 C   0  0  0  0  0  0  0  0  0  0  0  0
   -0.6928    3.1818   -0.7279 H   0  0  0  0  0  0  0  0  0  0  0  0
    0.8915    3.2113   -0.3339 H   0  0  0  0  0  0  0  0  0  0  0  0
   -0.2580    3.3870    0.8895 H   0  0  0  0  0  0  0  0  0  0  0  0
    0.0046    1.3894   -0.0186 C   0  0  0  0  0  0  0  0  0  0  0  0
   -1.1705    0.6956    0.0324 C   0  0  0  0  0  0  0  0  0  0  0  0
   -2.0437    1.1866    0.0938 H   0  0  0  0  0  0  0  0  0  0  0  0
   -1.1864   -0.6850   -0.0000 C   0  0  0  0  0  0  0  0  0  0  0  0
   -2.0810   -1.1639   -0.0301 H   0  0  0  0  0  0  0  0  0  0  0  0
   -0.0224   -1.3816    0.0103 C   0  0  0  0  0  0  0  0  0  0  0  0
   -0.0239   -2.3848    0.0247 H   0  0  0  0  0  0  0  0  0  0  0  0
    1.1864   -0.6997    0.0000 C   0  0  0  0  0  0  0  0  0  0  0  0
    2.0601   -1.2074    0.0117 H   0  0  0  0  0  0  0  0  0  0  0  0
    1.1884    0.6812   -0.0242 C   0  0  0  0  0  0  0  0  0  0  0  0
    2.0615    1.1742   -0.0474 H   0  0  0  0  0  0  0  0  0  0  0  0
  1  5  1  0
  5  8  1  0
  1  2  1  0
  1  3  1  0
  1  4  1  0
  5  6  1  0
  5  7  1  0
  8  9  1  0
  8 10  1  0
  8 11  1  0
 12 16  1  0
 16 17  2  0
 17 19  1  0
 19 21  2  0
 21 23  1  0
 23 25  2  0
 25 16  1  0
 12 13  1  0
 12 14  1  0
 12 15  1  0
 17 18  1  0
 19 20  1  0
 21 22  1  0
 23 24  1  0
 25 26  1  0
M  CHG  1   8   1
M  END
>  <PDB_ID>  (1920) 
pdb4f8k

>  <RESIDUE_NAME>  (1920) 
LYS   PHE

>  <FRAG_NAME>  (1920) 
ETAM   MBZ

>  <FRAG_ATOM_NUM>  (1920) 
fragi: 11  fragj: 15

>  <atom.prop.CHAIN_ID>  (1920) 
A A A A A A A A A A A Z Z Z Z Z Z Z Z Z Z Z Z Z Z Z

>  <atom.prop.IS_HEAVY_ATOM>  (1920) 
1 0 0 0 1 0 0 1 0 0 0 1 0 0 0 1 1 0 1 0 1 0 1 0 1 0

>  <DIFUSE_FUNC_ATOM>  (1920) 
n/a

>  <FINAL_SINGLE_POINT_ENERGY>  (1920) 
0

>  <NONCOV_INTER_ENERGY_QM>  (1920) 
0

>  <FF_Energy>  (1920) 
-2.97

>  <QM_Energy>  (1920) 
-8.36

>  <source>  (1920) 
ETAM_MBZ

>  <Index>  (1920) 
19673

$$$$
ETAM-pdb3i7u-A-LYS-129:MBZ-pdb3i7u-A-PHE-12
     RDKit          3D

 26 25  0  0  0  0  0  0  0  0999 V2000
   -0.0139   -0.0465    3.7491 C   0  0  0  0  0  0  0  0  0  0  0  0
    0.1878   -0.2853    2.8035 H   0  0  0  0  0  0  0  0  0  0  0  0
   -0.5164   -0.7842    4.1900 H   0  0  0  0  0  0  0  0  0  0  0  0
    0.9245    0.1102    4.2811 H   0  0  0  0  0  0  0  0  0  0  0  0
   -0.8780    1.2021    3.7606 C   0  0  0  0  0  0  0  0  0  0  0  0
   -1.7271    1.0154    3.2604 H   0  0  0  0  0  0  0  0  0  0  0  0
   -1.1046    1.4335    4.7104 H   0  0  0  0  0  0  0  0  0  0  0  0
   -0.1837    2.3571    3.1301 N   0  0  0  0  0  4  0  0  0  0  0  0
   -0.5705    2.5223    2.2234 H   0  0  0  0  0  0  0  0  0  0  0  0
   -0.3067    3.1696    3.6995 H   0  0  0  0  0  0  0  0  0  0  0  0
    0.7911    2.1524    3.0454 H   0  0  0  0  0  0  0  0  0  0  0  0
   -0.0028    2.8936   -0.0106 C   0  0  0  0  0  0  0  0  0  0  0  0
    0.8740    3.2073    0.3233 H   0  0  0  0  0  0  0  0  0  0  0  0
   -0.7395    3.2059    0.5723 H   0  0  0  0  0  0  0  0  0  0  0  0
   -0.1557    3.3263   -0.9992 H   0  0  0  0  0  0  0  0  0  0  0  0
    0.0003    1.4002   -0.0007 C   0  0  0  0  0  0  0  0  0  0  0  0
   -1.1975    0.6934   -0.0004 C   0  0  0  0  0  0  0  0  0  0  0  0
   -2.0630    1.1854   -0.0016 H   0  0  0  0  0  0  0  0  0  0  0  0
   -1.2033   -0.6964   -0.0000 C   0  0  0  0  0  0  0  0  0  0  0  0
   -2.0791   -1.1906    0.0009 H   0  0  0  0  0  0  0  0  0  0  0  0
   -0.0002   -1.3944    0.0011 C   0  0  0  0  0  0  0  0  0  0  0  0
   -0.0050   -2.3922    0.0025 H   0  0  0  0  0  0  0  0  0  0  0  0
    1.2033   -0.6982   -0.0000 C   0  0  0  0  0  0  0  0  0  0  0  0
    2.0836   -1.1950    0.0008 H   0  0  0  0  0  0  0  0  0  0  0  0
    1.1974    0.6954    0.0000 C   0  0  0  0  0  0  0  0  0  0  0  0
    2.0650    1.1912   -0.0003 H   0  0  0  0  0  0  0  0  0  0  0  0
  1  5  1  0
  5  8  1  0
  1  2  1  0
  1  3  1  0
  1  4  1  0
  5  6  1  0
  5  7  1  0
  8  9  1  0
  8 10  1  0
  8 11  1  0
 12 16  1  0
 16 17  2  0
 17 19  1  0
 19 21  2  0
 21 23  1  0
 23 25  2  0
 25 16  1  0
 12 13  1  0
 12 14  1  0
 12 15  1  0
 17 18  1  0
 19 20  1  0
 21 22  1  0
 23 24  1  0
 25 26  1  0
M  CHG  1   8   1
M  END
>  <PDB_ID>  (1921) 
pdb3i7u

>  <RESIDUE_NAME>  (1921) 
LYS   PHE

>  <FRAG_NAME>  (1921) 
ETAM   MBZ

>  <FRAG_ATOM_NUM>  (1921) 
fragi: 11  fragj: 15

>  <atom.prop.CHAIN_ID>  (1921) 
A A A A A A A A A A A Z Z Z Z Z Z Z Z Z Z Z Z Z Z Z

>  <atom.prop.IS_HEAVY_ATOM>  (1921) 
1 0 0 0 1 0 0 1 0 0 0 1 0 0 0 1 1 0 1 0 1 0 1 0 1 0

>  <DIFUSE_FUNC_ATOM>  (1921) 
n/a

>  <FINAL_SINGLE_POINT_ENERGY>  (1921) 
0

>  <NONCOV_INTER_ENERGY_QM>  (1921) 
0

>  <FF_Energy>  (1921) 
-6.23

>  <QM_Energy>  (1921) 
-11.48

>  <source>  (1921) 
ETAM_MBZ

>  <Index>  (1921) 
19675

$$$$
ETAM-pdb3i7u-B-LYS-3:MBZ-pdb3i7u-D-PHE-77
     RDKit          3D

 26 25  0  0  0  0  0  0  0  0999 V2000
    1.0457    1.2241   -3.8242 C   0  0  0  0  0  0  0  0  0  0  0  0
    1.7246    1.1898   -3.1006 H   0  0  0  0  0  0  0  0  0  0  0  0
    0.6180    2.1189   -3.8623 H   0  0  0  0  0  0  0  0  0  0  0  0
    1.5441    1.0366   -4.7753 H   0  0  0  0  0  0  0  0  0  0  0  0
   -0.0317    0.1776   -3.5346 C   0  0  0  0  0  0  0  0  0  0  0  0
   -0.5560    0.4680   -2.7255 H   0  0  0  0  0  0  0  0  0  0  0  0
   -0.6605    0.1340   -4.3202 H   0  0  0  0  0  0  0  0  0  0  0  0
    0.5286   -1.1895   -3.2849 N   0  0  0  0  0  4  0  0  0  0  0  0
    0.8112   -1.2574   -2.3305 H   0  0  0  0  0  0  0  0  0  0  0  0
   -0.1742   -1.8713   -3.4798 H   0  0  0  0  0  0  0  0  0  0  0  0
    1.3150   -1.3339   -3.8817 H   0  0  0  0  0  0  0  0  0  0  0  0
   -0.0155    2.9027    0.0939 C   0  0  0  0  0  0  0  0  0  0  0  0
   -0.5933    3.2467   -0.6247 H   0  0  0  0  0  0  0  0  0  0  0  0
    0.9121    3.2215    0.0086 H   0  0  0  0  0  0  0  0  0  0  0  0
   -0.4102    3.2561    1.0465 H   0  0  0  0  0  0  0  0  0  0  0  0
   -0.0013    1.4048    0.0008 C   0  0  0  0  0  0  0  0  0  0  0  0
   -1.1965    0.6929   -0.0006 C   0  0  0  0  0  0  0  0  0  0  0  0
   -2.0648    1.1810   -0.0035 H   0  0  0  0  0  0  0  0  0  0  0  0
   -1.2019   -0.7025   -0.0000 C   0  0  0  0  0  0  0  0  0  0  0  0
   -2.0783   -1.1940    0.0004 H   0  0  0  0  0  0  0  0  0  0  0  0
    0.0000   -1.3974    0.0016 C   0  0  0  0  0  0  0  0  0  0  0  0
   -0.0021   -2.3955    0.0033 H   0  0  0  0  0  0  0  0  0  0  0  0
    1.2019   -0.6986    0.0000 C   0  0  0  0  0  0  0  0  0  0  0  0
    2.0840   -1.1924    0.0019 H   0  0  0  0  0  0  0  0  0  0  0  0
    1.1977    0.7007   -0.0019 C   0  0  0  0  0  0  0  0  0  0  0  0
    2.0646    1.1934   -0.0061 H   0  0  0  0  0  0  0  0  0  0  0  0
  1  5  1  0
  5  8  1  0
  1  2  1  0
  1  3  1  0
  1  4  1  0
  5  6  1  0
  5  7  1  0
  8  9  1  0
  8 10  1  0
  8 11  1  0
 12 16  1  0
 16 17  2  0
 17 19  1  0
 19 21  2  0
 21 23  1  0
 23 25  2  0
 25 16  1  0
 12 13  1  0
 12 14  1  0
 12 15  1  0
 17 18  1  0
 19 20  1  0
 21 22  1  0
 23 24  1  0
 25 26  1  0
M  CHG  1   8   1
M  END
>  <PDB_ID>  (1922) 
pdb3i7u

>  <RESIDUE_NAME>  (1922) 
LYS   PHE

>  <FRAG_NAME>  (1922) 
ETAM   MBZ

>  <FRAG_ATOM_NUM>  (1922) 
fragi: 11  fragj: 15

>  <atom.prop.CHAIN_ID>  (1922) 
A A A A A A A A A A A Z Z Z Z Z Z Z Z Z Z Z Z Z Z Z

>  <atom.prop.IS_HEAVY_ATOM>  (1922) 
1 0 0 0 1 0 0 1 0 0 0 1 0 0 0 1 1 0 1 0 1 0 1 0 1 0

>  <DIFUSE_FUNC_ATOM>  (1922) 
n/a

>  <FINAL_SINGLE_POINT_ENERGY>  (1922) 
0

>  <NONCOV_INTER_ENERGY_QM>  (1922) 
0

>  <FF_Energy>  (1922) 
-8.11

>  <QM_Energy>  (1922) 
-16.3

>  <source>  (1922) 
ETAM_MBZ

>  <Index>  (1922) 
19677

$$$$
ETAM-pdb3i7u-C-LYS-3:MBZ-pdb3i7u-A-PHE-77
     RDKit          3D

 26 25  0  0  0  0  0  0  0  0999 V2000
    0.0376    0.6261   -4.4115 C   0  0  0  0  0  0  0  0  0  0  0  0
    0.3016    1.5141   -4.0518 H   0  0  0  0  0  0  0  0  0  0  0  0
   -0.8797    0.6634   -4.7911 H   0  0  0  0  0  0  0  0  0  0  0  0
    0.7358    0.3424   -5.1990 H   0  0  0  0  0  0  0  0  0  0  0  0
    0.0498   -0.3829   -3.2714 C   0  0  0  0  0  0  0  0  0  0  0  0
    0.9927   -0.5057   -2.9565 H   0  0  0  0  0  0  0  0  0  0  0  0
   -0.5048   -0.0271   -2.5154 H   0  0  0  0  0  0  0  0  0  0  0  0
   -0.4987   -1.7050   -3.6983 N   0  0  0  0  0  4  0  0  0  0  0  0
   -1.4245   -1.5788   -4.0514 H   0  0  0  0  0  0  0  0  0  0  0  0
    0.0853   -2.0884   -4.4120 H   0  0  0  0  0  0  0  0  0  0  0  0
   -0.5193   -2.3213   -2.9128 H   0  0  0  0  0  0  0  0  0  0  0  0
   -0.0027    2.9054    0.0494 C   0  0  0  0  0  0  0  0  0  0  0  0
   -0.5611    3.2346   -0.6944 H   0  0  0  0  0  0  0  0  0  0  0  0
    0.9302    3.2160   -0.0305 H   0  0  0  0  0  0  0  0  0  0  0  0
   -0.4105    3.3046    0.9780 H   0  0  0  0  0  0  0  0  0  0  0  0
    0.0002    1.4046    0.0000 C   0  0  0  0  0  0  0  0  0  0  0  0
   -1.1988    0.6922   -0.0007 C   0  0  0  0  0  0  0  0  0  0  0  0
   -2.0648    1.1814   -0.0032 H   0  0  0  0  0  0  0  0  0  0  0  0
   -1.2028   -0.7016    0.0000 C   0  0  0  0  0  0  0  0  0  0  0  0
   -2.0780   -1.1949    0.0011 H   0  0  0  0  0  0  0  0  0  0  0  0
    0.0004   -1.3959    0.0016 C   0  0  0  0  0  0  0  0  0  0  0  0
   -0.0005   -2.3942    0.0032 H   0  0  0  0  0  0  0  0  0  0  0  0
    1.2028   -0.6962    0.0000 C   0  0  0  0  0  0  0  0  0  0  0  0
    2.0839   -1.1935    0.0008 H   0  0  0  0  0  0  0  0  0  0  0  0
    1.1983    0.6969   -0.0009 C   0  0  0  0  0  0  0  0  0  0  0  0
    2.0653    1.1929   -0.0032 H   0  0  0  0  0  0  0  0  0  0  0  0
  1  5  1  0
  5  8  1  0
  1  2  1  0
  1  3  1  0
  1  4  1  0
  5  6  1  0
  5  7  1  0
  8  9  1  0
  8 10  1  0
  8 11  1  0
 12 16  1  0
 16 17  2  0
 17 19  1  0
 19 21  2  0
 21 23  1  0
 23 25  2  0
 25 16  1  0
 12 13  1  0
 12 14  1  0
 12 15  1  0
 17 18  1  0
 19 20  1  0
 21 22  1  0
 23 24  1  0
 25 26  1  0
M  CHG  1   8   1
M  END
>  <PDB_ID>  (1923) 
pdb3i7u

>  <RESIDUE_NAME>  (1923) 
LYS   PHE

>  <FRAG_NAME>  (1923) 
ETAM   MBZ

>  <FRAG_ATOM_NUM>  (1923) 
fragi: 11  fragj: 15

>  <atom.prop.CHAIN_ID>  (1923) 
A A A A A A A A A A A Z Z Z Z Z Z Z Z Z Z Z Z Z Z Z

>  <atom.prop.IS_HEAVY_ATOM>  (1923) 
1 0 0 0 1 0 0 1 0 0 0 1 0 0 0 1 1 0 1 0 1 0 1 0 1 0

>  <DIFUSE_FUNC_ATOM>  (1923) 
n/a

>  <FINAL_SINGLE_POINT_ENERGY>  (1923) 
0

>  <NONCOV_INTER_ENERGY_QM>  (1923) 
0

>  <FF_Energy>  (1923) 
-5.43

>  <QM_Energy>  (1923) 
-11.59

>  <source>  (1923) 
ETAM_MBZ

>  <Index>  (1923) 
19683

$$$$
ETAM-pdb3i83-A-LYS-186:MBZ-pdb3i83-A-PHE-127
     RDKit          3D

 26 25  0  0  0  0  0  0  0  0999 V2000
   -2.2202   -1.8354   -3.1464 C   0  0  0  0  0  0  0  0  0  0  0  0
   -1.6521   -1.5778   -2.3449 H   0  0  0  0  0  0  0  0  0  0  0  0
   -1.6580   -2.4519   -3.7247 H   0  0  0  0  0  0  0  0  0  0  0  0
   -3.0905   -2.3879   -2.7923 H   0  0  0  0  0  0  0  0  0  0  0  0
   -2.5432   -0.6209   -3.9147 C   0  0  0  0  0  0  0  0  0  0  0  0
   -1.7184   -0.3193   -4.4253 H   0  0  0  0  0  0  0  0  0  0  0  0
   -3.2546   -0.8417   -4.6049 H   0  0  0  0  0  0  0  0  0  0  0  0
   -3.0055    0.4467   -3.0706 N   0  0  0  0  0  4  0  0  0  0  0  0
   -4.0105    0.4252   -2.9849 H   0  0  0  0  0  0  0  0  0  0  0  0
   -2.6098    0.3679   -2.1471 H   0  0  0  0  0  0  0  0  0  0  0  0
   -2.7413    1.3430   -3.4509 H   0  0  0  0  0  0  0  0  0  0  0  0
   -0.0297    2.9144   -0.0078 C   0  0  0  0  0  0  0  0  0  0  0  0
    0.6679    3.2256    0.6232 H   0  0  0  0  0  0  0  0  0  0  0  0
   -0.9305    3.2022    0.2869 H   0  0  0  0  0  0  0  0  0  0  0  0
    0.1665    3.3820   -0.9727 H   0  0  0  0  0  0  0  0  0  0  0  0
   -0.0058    1.3988   -0.0169 C   0  0  0  0  0  0  0  0  0  0  0  0
   -1.1983    0.6781   -0.0072 C   0  0  0  0  0  0  0  0  0  0  0  0
   -2.0671    1.1779   -0.0072 H   0  0  0  0  0  0  0  0  0  0  0  0
   -1.2013   -0.6884    0.0000 C   0  0  0  0  0  0  0  0  0  0  0  0
   -2.0717   -1.1974   -0.0051 H   0  0  0  0  0  0  0  0  0  0  0  0
    0.0062   -1.3801    0.0167 C   0  0  0  0  0  0  0  0  0  0  0  0
   -0.0083   -2.3865    0.0410 H   0  0  0  0  0  0  0  0  0  0  0  0
    1.2013   -0.7028    0.0000 C   0  0  0  0  0  0  0  0  0  0  0  0
    2.0827   -1.1955   -0.0158 H   0  0  0  0  0  0  0  0  0  0  0  0
    1.1979    0.6944    0.0075 C   0  0  0  0  0  0  0  0  0  0  0  0
    2.0618    1.1896    0.0301 H   0  0  0  0  0  0  0  0  0  0  0  0
  1  5  1  0
  5  8  1  0
  1  2  1  0
  1  3  1  0
  1  4  1  0
  5  6  1  0
  5  7  1  0
  8  9  1  0
  8 10  1  0
  8 11  1  0
 12 16  1  0
 16 17  2  0
 17 19  1  0
 19 21  2  0
 21 23  1  0
 23 25  2  0
 25 16  1  0
 12 13  1  0
 12 14  1  0
 12 15  1  0
 17 18  1  0
 19 20  1  0
 21 22  1  0
 23 24  1  0
 25 26  1  0
M  CHG  1   8   1
M  END
>  <PDB_ID>  (1924) 
pdb3i83

>  <RESIDUE_NAME>  (1924) 
LYS   PHE

>  <FRAG_NAME>  (1924) 
ETAM   MBZ

>  <FRAG_ATOM_NUM>  (1924) 
fragi: 11  fragj: 15

>  <atom.prop.CHAIN_ID>  (1924) 
A A A A A A A A A A A Z Z Z Z Z Z Z Z Z Z Z Z Z Z Z

>  <atom.prop.IS_HEAVY_ATOM>  (1924) 
1 0 0 0 1 0 0 1 0 0 0 1 0 0 0 1 1 0 1 0 1 0 1 0 1 0

>  <DIFUSE_FUNC_ATOM>  (1924) 
n/a

>  <FINAL_SINGLE_POINT_ENERGY>  (1924) 
0

>  <NONCOV_INTER_ENERGY_QM>  (1924) 
0

>  <FF_Energy>  (1924) 
-3.19

>  <QM_Energy>  (1924) 
-9.09

>  <source>  (1924) 
ETAM_MBZ

>  <Index>  (1924) 
19693

$$$$
ETAM-pdb4f99-A-LYS-387:MBZ-pdb4f99-B-PHE-232
     RDKit          3D

 26 25  0  0  0  0  0  0  0  0999 V2000
   -0.7074   -2.7039    4.4494 C   0  0  0  0  0  0  0  0  0  0  0  0
   -1.6480   -2.4147    4.5848 H   0  0  0  0  0  0  0  0  0  0  0  0
   -0.3965   -3.2521    5.2164 H   0  0  0  0  0  0  0  0  0  0  0  0
   -0.6495   -3.3018    3.5399 H   0  0  0  0  0  0  0  0  0  0  0  0
    0.1713   -1.4695    4.3466 C   0  0  0  0  0  0  0  0  0  0  0  0
    0.3545   -1.1234    5.2588 H   0  0  0  0  0  0  0  0  0  0  0  0
    1.0183   -1.7096    3.8879 H   0  0  0  0  0  0  0  0  0  0  0  0
   -0.5389   -0.4258    3.5568 N   0  0  0  0  0  4  0  0  0  0  0  0
   -1.3945   -0.1884    4.0156 H   0  0  0  0  0  0  0  0  0  0  0  0
    0.0396    0.3863    3.4846 H   0  0  0  0  0  0  0  0  0  0  0  0
   -0.7353   -0.7789    2.6425 H   0  0  0  0  0  0  0  0  0  0  0  0
    0.0188    2.9155    0.0109 C   0  0  0  0  0  0  0  0  0  0  0  0
    0.9528    3.2085    0.1656 H   0  0  0  0  0  0  0  0  0  0  0  0
   -0.5724    3.2158    0.7473 H   0  0  0  0  0  0  0  0  0  0  0  0
   -0.3275    3.3976   -0.9033 H   0  0  0  0  0  0  0  0  0  0  0  0
    0.0007    1.4037   -0.0161 C   0  0  0  0  0  0  0  0  0  0  0  0
   -1.1935    0.6939    0.0199 C   0  0  0  0  0  0  0  0  0  0  0  0
   -2.0598    1.1825    0.0593 H   0  0  0  0  0  0  0  0  0  0  0  0
   -1.1947   -0.6945   -0.0000 C   0  0  0  0  0  0  0  0  0  0  0  0
   -2.0733   -1.1895   -0.0088 H   0  0  0  0  0  0  0  0  0  0  0  0
    0.0025   -1.3907   -0.0062 C   0  0  0  0  0  0  0  0  0  0  0  0
   -0.0056   -2.3912   -0.0160 H   0  0  0  0  0  0  0  0  0  0  0  0
    1.1947   -0.6993   -0.0000 C   0  0  0  0  0  0  0  0  0  0  0  0
    2.0794   -1.1965    0.0049 H   0  0  0  0  0  0  0  0  0  0  0  0
    1.1903    0.6869    0.0024 C   0  0  0  0  0  0  0  0  0  0  0  0
    2.0630    1.1835    0.0165 H   0  0  0  0  0  0  0  0  0  0  0  0
  1  5  1  0
  5  8  1  0
  1  2  1  0
  1  3  1  0
  1  4  1  0
  5  6  1  0
  5  7  1  0
  8  9  1  0
  8 10  1  0
  8 11  1  0
 12 16  1  0
 16 17  2  0
 17 19  1  0
 19 21  2  0
 21 23  1  0
 23 25  2  0
 25 16  1  0
 12 13  1  0
 12 14  1  0
 12 15  1  0
 17 18  1  0
 19 20  1  0
 21 22  1  0
 23 24  1  0
 25 26  1  0
M  CHG  1   8   1
M  END
>  <PDB_ID>  (1925) 
pdb4f99

>  <RESIDUE_NAME>  (1925) 
LYS   PHE

>  <FRAG_NAME>  (1925) 
ETAM   MBZ

>  <FRAG_ATOM_NUM>  (1925) 
fragi: 11  fragj: 15

>  <atom.prop.CHAIN_ID>  (1925) 
A A A A A A A A A A A Z Z Z Z Z Z Z Z Z Z Z Z Z Z Z

>  <atom.prop.IS_HEAVY_ATOM>  (1925) 
1 0 0 0 1 0 0 1 0 0 0 1 0 0 0 1 1 0 1 0 1 0 1 0 1 0

>  <DIFUSE_FUNC_ATOM>  (1925) 
n/a

>  <FINAL_SINGLE_POINT_ENERGY>  (1925) 
0

>  <NONCOV_INTER_ENERGY_QM>  (1925) 
0

>  <FF_Energy>  (1925) 
-7.4

>  <QM_Energy>  (1925) 
-13.66

>  <source>  (1925) 
ETAM_MBZ

>  <Index>  (1925) 
19697

$$$$
ETAM-pdb4f2n-D-LYS-96:MBZ-pdb4f2n-D-PHE-99
     RDKit          3D

 26 25  0  0  0  0  0  0  0  0999 V2000
    3.4383    2.7829   -2.9468 C   0  0  0  0  0  0  0  0  0  0  0  0
    2.8759    2.8172   -2.1279 H   0  0  0  0  0  0  0  0  0  0  0  0
    2.8686    2.7714   -3.7612 H   0  0  0  0  0  0  0  0  0  0  0  0
    4.0729    3.6687   -2.9739 H   0  0  0  0  0  0  0  0  0  0  0  0
    4.2671    1.5076   -2.9147 C   0  0  0  0  0  0  0  0  0  0  0  0
    4.7362    1.4033   -3.7902 H   0  0  0  0  0  0  0  0  0  0  0  0
    4.9407    1.5755   -2.1802 H   0  0  0  0  0  0  0  0  0  0  0  0
    3.4006    0.3193   -2.6771 N   0  0  0  0  0  4  0  0  0  0  0  0
    2.7903    0.5038   -1.9077 H   0  0  0  0  0  0  0  0  0  0  0  0
    2.8598    0.1346   -3.4973 H   0  0  0  0  0  0  0  0  0  0  0  0
    3.9743   -0.4724   -2.4688 H   0  0  0  0  0  0  0  0  0  0  0  0
    0.0009    2.9111    0.0130 C   0  0  0  0  0  0  0  0  0  0  0  0
   -0.7536    3.2260   -0.5395 H   0  0  0  0  0  0  0  0  0  0  0  0
    0.8671    3.2243   -0.3418 H   0  0  0  0  0  0  0  0  0  0  0  0
   -0.1210    3.3222    1.0151 H   0  0  0  0  0  0  0  0  0  0  0  0
    0.0026    1.4101   -0.0148 C   0  0  0  0  0  0  0  0  0  0  0  0
   -1.2025    0.6968    0.0117 C   0  0  0  0  0  0  0  0  0  0  0  0
   -2.0652    1.1897    0.0379 H   0  0  0  0  0  0  0  0  0  0  0  0
   -1.2076   -0.6951   -0.0000 C   0  0  0  0  0  0  0  0  0  0  0  0
   -2.0859   -1.1873   -0.0149 H   0  0  0  0  0  0  0  0  0  0  0  0
   -0.0079   -1.3985    0.0107 C   0  0  0  0  0  0  0  0  0  0  0  0
   -0.0153   -2.3968    0.0257 H   0  0  0  0  0  0  0  0  0  0  0  0
    1.2076   -0.7090   -0.0000 C   0  0  0  0  0  0  0  0  0  0  0  0
    2.0819   -1.2076   -0.0011 H   0  0  0  0  0  0  0  0  0  0  0  0
    1.2078    0.6957   -0.0076 C   0  0  0  0  0  0  0  0  0  0  0  0
    2.0733    1.1867   -0.0088 H   0  0  0  0  0  0  0  0  0  0  0  0
  1  5  1  0
  5  8  1  0
  1  2  1  0
  1  3  1  0
  1  4  1  0
  5  6  1  0
  5  7  1  0
  8  9  1  0
  8 10  1  0
  8 11  1  0
 12 16  1  0
 16 17  2  0
 17 19  1  0
 19 21  2  0
 21 23  1  0
 23 25  2  0
 25 16  1  0
 12 13  1  0
 12 14  1  0
 12 15  1  0
 17 18  1  0
 19 20  1  0
 21 22  1  0
 23 24  1  0
 25 26  1  0
M  CHG  1   8   1
M  END
>  <PDB_ID>  (1926) 
pdb4f2n

>  <RESIDUE_NAME>  (1926) 
LYS   PHE

>  <FRAG_NAME>  (1926) 
ETAM   MBZ

>  <FRAG_ATOM_NUM>  (1926) 
fragi: 11  fragj: 15

>  <atom.prop.CHAIN_ID>  (1926) 
A A A A A A A A A A A Z Z Z Z Z Z Z Z Z Z Z Z Z Z Z

>  <atom.prop.IS_HEAVY_ATOM>  (1926) 
1 0 0 0 1 0 0 1 0 0 0 1 0 0 0 1 1 0 1 0 1 0 1 0 1 0

>  <DIFUSE_FUNC_ATOM>  (1926) 
n/a

>  <FINAL_SINGLE_POINT_ENERGY>  (1926) 
0

>  <NONCOV_INTER_ENERGY_QM>  (1926) 
0

>  <FF_Energy>  (1926) 
-2.75

>  <QM_Energy>  (1926) 
-8.74

>  <source>  (1926) 
ETAM_MBZ

>  <Index>  (1926) 
19701

$$$$
ETAM-pdb4fas-B-LYS-42:MBZ-pdb4fas-B-PHE-63
     RDKit          3D

 26 25  0  0  0  0  0  0  0  0999 V2000
   -2.0461   -4.0259   -0.9025 C   0  0  0  0  0  0  0  0  0  0  0  0
   -1.3024   -3.4851   -0.5185 H   0  0  0  0  0  0  0  0  0  0  0  0
   -2.9054   -3.5265   -0.8277 H   0  0  0  0  0  0  0  0  0  0  0  0
   -1.8380   -4.2549   -1.9477 H   0  0  0  0  0  0  0  0  0  0  0  0
   -2.1772   -5.3056   -0.0519 C   0  0  0  0  0  0  0  0  0  0  0  0
   -2.5309   -6.0365   -0.6470 H   0  0  0  0  0  0  0  0  0  0  0  0
   -1.2554   -5.5668    0.2565 H   0  0  0  0  0  0  0  0  0  0  0  0
   -3.0586   -5.1184    1.0958 N   0  0  0  0  0  4  0  0  0  0  0  0
   -2.8605   -5.8061    1.8000 H   0  0  0  0  0  0  0  0  0  0  0  0
   -2.9250   -4.2041    1.4896 H   0  0  0  0  0  0  0  0  0  0  0  0
   -4.0187   -5.2114    0.8137 H   0  0  0  0  0  0  0  0  0  0  0  0
   -0.0455    2.9266    0.0549 C   0  0  0  0  0  0  0  0  0  0  0  0
    0.8835    3.2560    0.0024 H   0  0  0  0  0  0  0  0  0  0  0  0
   -0.4800    3.1961    0.8997 H   0  0  0  0  0  0  0  0  0  0  0  0
   -0.6001    3.3987   -0.7561 H   0  0  0  0  0  0  0  0  0  0  0  0
   -0.0114    1.4064    0.0048 C   0  0  0  0  0  0  0  0  0  0  0  0
   -1.1982    0.6647    0.0239 C   0  0  0  0  0  0  0  0  0  0  0  0
   -2.0745    1.1514    0.0547 H   0  0  0  0  0  0  0  0  0  0  0  0
   -1.1980   -0.7220   -0.0000 C   0  0  0  0  0  0  0  0  0  0  0  0
   -2.0585   -1.2276    0.0137 H   0  0  0  0  0  0  0  0  0  0  0  0
    0.0251   -1.3961   -0.0420 C   0  0  0  0  0  0  0  0  0  0  0  0
    0.0377   -2.3901   -0.1024 H   0  0  0  0  0  0  0  0  0  0  0  0
    1.1980   -0.6714   -0.0000 C   0  0  0  0  0  0  0  0  0  0  0  0
    2.0985   -1.1552    0.0234 H   0  0  0  0  0  0  0  0  0  0  0  0
    1.1844    0.7184    0.0133 C   0  0  0  0  0  0  0  0  0  0  0  0
    2.0500    1.2185    0.0287 H   0  0  0  0  0  0  0  0  0  0  0  0
  1  5  1  0
  5  8  1  0
  1  2  1  0
  1  3  1  0
  1  4  1  0
  5  6  1  0
  5  7  1  0
  8  9  1  0
  8 10  1  0
  8 11  1  0
 12 16  1  0
 16 17  2  0
 17 19  1  0
 19 21  2  0
 21 23  1  0
 23 25  2  0
 25 16  1  0
 12 13  1  0
 12 14  1  0
 12 15  1  0
 17 18  1  0
 19 20  1  0
 21 22  1  0
 23 24  1  0
 25 26  1  0
M  CHG  1   8   1
M  END
>  <PDB_ID>  (1927) 
pdb4fas

>  <RESIDUE_NAME>  (1927) 
LYS   PHE

>  <FRAG_NAME>  (1927) 
ETAM   MBZ

>  <FRAG_ATOM_NUM>  (1927) 
fragi: 11  fragj: 15

>  <atom.prop.CHAIN_ID>  (1927) 
A A A A A A A A A A A Z Z Z Z Z Z Z Z Z Z Z Z Z Z Z

>  <atom.prop.IS_HEAVY_ATOM>  (1927) 
1 0 0 0 1 0 0 1 0 0 0 1 0 0 0 1 1 0 1 0 1 0 1 0 1 0

>  <DIFUSE_FUNC_ATOM>  (1927) 
n/a

>  <FINAL_SINGLE_POINT_ENERGY>  (1927) 
0

>  <NONCOV_INTER_ENERGY_QM>  (1927) 
0

>  <FF_Energy>  (1927) 
4.74

>  <QM_Energy>  (1927) 
-0.89

>  <source>  (1927) 
ETAM_MBZ

>  <Index>  (1927) 
19724

$$$$
ETAM-pdb3ial-A-LYS-114:MBZ-pdb3ial-A-PHE-111
     RDKit          3D

 26 25  0  0  0  0  0  0  0  0999 V2000
   -3.2508    2.0756    4.4445 C   0  0  0  0  0  0  0  0  0  0  0  0
   -2.2793    1.9827    4.2615 H   0  0  0  0  0  0  0  0  0  0  0  0
   -3.4546    1.8386    5.3864 H   0  0  0  0  0  0  0  0  0  0  0  0
   -3.5473    3.1093    4.2663 H   0  0  0  0  0  0  0  0  0  0  0  0
   -4.0097    1.1155    3.5293 C   0  0  0  0  0  0  0  0  0  0  0  0
   -4.8695    0.8545    3.9767 H   0  0  0  0  0  0  0  0  0  0  0  0
   -4.2234    1.5893    2.6701 H   0  0  0  0  0  0  0  0  0  0  0  0
   -3.2228   -0.1176    3.2248 N   0  0  0  0  0  4  0  0  0  0  0  0
   -2.7969   -0.0220    2.3265 H   0  0  0  0  0  0  0  0  0  0  0  0
   -2.5178   -0.2382    3.9220 H   0  0  0  0  0  0  0  0  0  0  0  0
   -3.8354   -0.9068    3.2248 H   0  0  0  0  0  0  0  0  0  0  0  0
    0.0247    2.9130   -0.0113 C   0  0  0  0  0  0  0  0  0  0  0  0
    0.1143    3.2080   -0.9521 H   0  0  0  0  0  0  0  0  0  0  0  0
    0.7972    3.2105    0.5316 H   0  0  0  0  0  0  0  0  0  0  0  0
   -0.8698    3.3808    0.3999 H   0  0  0  0  0  0  0  0  0  0  0  0
    0.0005    1.4049    0.0025 C   0  0  0  0  0  0  0  0  0  0  0  0
   -1.1935    0.6946   -0.0113 C   0  0  0  0  0  0  0  0  0  0  0  0
   -2.0615    1.1825   -0.0309 H   0  0  0  0  0  0  0  0  0  0  0  0
   -1.1973   -0.6984    0.0000 C   0  0  0  0  0  0  0  0  0  0  0  0
   -2.0773   -1.1893    0.0010 H   0  0  0  0  0  0  0  0  0  0  0  0
   -0.0020   -1.3937    0.0113 C   0  0  0  0  0  0  0  0  0  0  0  0
   -0.0060   -2.3938    0.0268 H   0  0  0  0  0  0  0  0  0  0  0  0
    1.1973   -0.7009   -0.0000 C   0  0  0  0  0  0  0  0  0  0  0  0
    2.0789   -1.1970   -0.0055 H   0  0  0  0  0  0  0  0  0  0  0  0
    1.1950    0.6935   -0.0025 C   0  0  0  0  0  0  0  0  0  0  0  0
    2.0643    1.1867   -0.0086 H   0  0  0  0  0  0  0  0  0  0  0  0
  1  5  1  0
  5  8  1  0
  1  2  1  0
  1  3  1  0
  1  4  1  0
  5  6  1  0
  5  7  1  0
  8  9  1  0
  8 10  1  0
  8 11  1  0
 12 16  1  0
 16 17  2  0
 17 19  1  0
 19 21  2  0
 21 23  1  0
 23 25  2  0
 25 16  1  0
 12 13  1  0
 12 14  1  0
 12 15  1  0
 17 18  1  0
 19 20  1  0
 21 22  1  0
 23 24  1  0
 25 26  1  0
M  CHG  1   8   1
M  END
>  <PDB_ID>  (1928) 
pdb3ial

>  <RESIDUE_NAME>  (1928) 
LYS   PHE

>  <FRAG_NAME>  (1928) 
ETAM   MBZ

>  <FRAG_ATOM_NUM>  (1928) 
fragi: 11  fragj: 15

>  <atom.prop.CHAIN_ID>  (1928) 
A A A A A A A A A A A Z Z Z Z Z Z Z Z Z Z Z Z Z Z Z

>  <atom.prop.IS_HEAVY_ATOM>  (1928) 
1 0 0 0 1 0 0 1 0 0 0 1 0 0 0 1 1 0 1 0 1 0 1 0 1 0

>  <DIFUSE_FUNC_ATOM>  (1928) 
n/a

>  <FINAL_SINGLE_POINT_ENERGY>  (1928) 
0

>  <NONCOV_INTER_ENERGY_QM>  (1928) 
0

>  <FF_Energy>  (1928) 
-2.71

>  <QM_Energy>  (1928) 
-7.8

>  <source>  (1928) 
ETAM_MBZ

>  <Index>  (1928) 
19734

$$$$
ETAM-pdb4f9z-A-LYS-256:MBZ-pdb4f9z-A-PHE-252
     RDKit          3D

 26 25  0  0  0  0  0  0  0  0999 V2000
    2.5651   -0.8866    4.6758 C   0  0  0  0  0  0  0  0  0  0  0  0
    2.4538    0.0941    4.7824 H   0  0  0  0  0  0  0  0  0  0  0  0
    3.0873   -1.0942    3.8582 H   0  0  0  0  0  0  0  0  0  0  0  0
    3.0933   -1.2801    5.5443 H   0  0  0  0  0  0  0  0  0  0  0  0
    1.1905   -1.5203    4.5479 C   0  0  0  0  0  0  0  0  0  0  0  0
    1.2982   -2.5198    4.4713 H   0  0  0  0  0  0  0  0  0  0  0  0
    0.6619   -1.3242    5.3834 H   0  0  0  0  0  0  0  0  0  0  0  0
    0.4343   -1.0217    3.3674 N   0  0  0  0  0  4  0  0  0  0  0  0
   -0.3806   -1.5844    3.2334 H   0  0  0  0  0  0  0  0  0  0  0  0
    0.1628   -0.0727    3.5238 H   0  0  0  0  0  0  0  0  0  0  0  0
    1.0147   -1.0740    2.5552 H   0  0  0  0  0  0  0  0  0  0  0  0
    0.0022    2.8958   -0.0115 C   0  0  0  0  0  0  0  0  0  0  0  0
   -0.6915    3.1966   -0.6479 H   0  0  0  0  0  0  0  0  0  0  0  0
    0.9016    3.1994   -0.2900 H   0  0  0  0  0  0  0  0  0  0  0  0
   -0.2165    3.3435    0.9579 H   0  0  0  0  0  0  0  0  0  0  0  0
    0.0023    1.3927    0.0004 C   0  0  0  0  0  0  0  0  0  0  0  0
   -1.1909    0.6913   -0.0024 C   0  0  0  0  0  0  0  0  0  0  0  0
   -2.0573    1.1879   -0.0080 H   0  0  0  0  0  0  0  0  0  0  0  0
   -1.1993   -0.6868    0.0000 C   0  0  0  0  0  0  0  0  0  0  0  0
   -2.0792   -1.1820    0.0016 H   0  0  0  0  0  0  0  0  0  0  0  0
   -0.0051   -1.3856    0.0021 C   0  0  0  0  0  0  0  0  0  0  0  0
   -0.0120   -2.3858    0.0046 H   0  0  0  0  0  0  0  0  0  0  0  0
    1.1993   -0.6963   -0.0000 C   0  0  0  0  0  0  0  0  0  0  0  0
    2.0769   -1.1993   -0.0005 H   0  0  0  0  0  0  0  0  0  0  0  0
    1.1937    0.6848   -0.0001 C   0  0  0  0  0  0  0  0  0  0  0  0
    2.0645    1.1843   -0.0015 H   0  0  0  0  0  0  0  0  0  0  0  0
  1  5  1  0
  5  8  1  0
  1  2  1  0
  1  3  1  0
  1  4  1  0
  5  6  1  0
  5  7  1  0
  8  9  1  0
  8 10  1  0
  8 11  1  0
 12 16  1  0
 16 17  2  0
 17 19  1  0
 19 21  2  0
 21 23  1  0
 23 25  2  0
 25 16  1  0
 12 13  1  0
 12 14  1  0
 12 15  1  0
 17 18  1  0
 19 20  1  0
 21 22  1  0
 23 24  1  0
 25 26  1  0
M  CHG  1   8   1
M  END
>  <PDB_ID>  (1929) 
pdb4f9z

>  <RESIDUE_NAME>  (1929) 
LYS   PHE

>  <FRAG_NAME>  (1929) 
ETAM   MBZ

>  <FRAG_ATOM_NUM>  (1929) 
fragi: 11  fragj: 15

>  <atom.prop.CHAIN_ID>  (1929) 
A A A A A A A A A A A Z Z Z Z Z Z Z Z Z Z Z Z Z Z Z

>  <atom.prop.IS_HEAVY_ATOM>  (1929) 
1 0 0 0 1 0 0 1 0 0 0 1 0 0 0 1 1 0 1 0 1 0 1 0 1 0

>  <DIFUSE_FUNC_ATOM>  (1929) 
n/a

>  <FINAL_SINGLE_POINT_ENERGY>  (1929) 
0

>  <NONCOV_INTER_ENERGY_QM>  (1929) 
0

>  <FF_Energy>  (1929) 
-6.87

>  <QM_Energy>  (1929) 
-13.37

>  <source>  (1929) 
ETAM_MBZ

>  <Index>  (1929) 
19744

$$$$
ETAM-pdb3ic1-B-LYS-297:MBZ-pdb3ic1-B-PHE-226
     RDKit          3D

 26 25  0  0  0  0  0  0  0  0999 V2000
    0.8373   -1.7933    5.1289 C   0  0  0  0  0  0  0  0  0  0  0  0
    0.1845   -2.5528    5.0404 H   0  0  0  0  0  0  0  0  0  0  0  0
    0.3378   -0.9267    5.0282 H   0  0  0  0  0  0  0  0  0  0  0  0
    1.2838   -1.8288    6.1226 H   0  0  0  0  0  0  0  0  0  0  0  0
    1.8483   -1.8974    4.0233 C   0  0  0  0  0  0  0  0  0  0  0  0
    2.6173   -1.3066    4.2141 H   0  0  0  0  0  0  0  0  0  0  0  0
    2.1359   -2.8379    3.9176 H   0  0  0  0  0  0  0  0  0  0  0  0
    1.1932   -1.4447    2.7516 N   0  0  0  0  0  4  0  0  0  0  0  0
    1.2308   -2.1850    2.0842 H   0  0  0  0  0  0  0  0  0  0  0  0
    0.2431   -1.2075    2.9418 H   0  0  0  0  0  0  0  0  0  0  0  0
    1.6787   -0.6476    2.4011 H   0  0  0  0  0  0  0  0  0  0  0  0
   -0.0083    2.9264   -0.0145 C   0  0  0  0  0  0  0  0  0  0  0  0
    0.9001    3.2350    0.2024 H   0  0  0  0  0  0  0  0  0  0  0  0
   -0.6713    3.2342    0.6451 H   0  0  0  0  0  0  0  0  0  0  0  0
   -0.2822    3.3374   -0.9862 H   0  0  0  0  0  0  0  0  0  0  0  0
   -0.0011    1.4116    0.0080 C   0  0  0  0  0  0  0  0  0  0  0  0
   -1.2018    0.6981   -0.0122 C   0  0  0  0  0  0  0  0  0  0  0  0
   -2.0677    1.1855   -0.0365 H   0  0  0  0  0  0  0  0  0  0  0  0
   -1.2070   -0.7010   -0.0000 C   0  0  0  0  0  0  0  0  0  0  0  0
   -2.0815   -1.1929    0.0053 H   0  0  0  0  0  0  0  0  0  0  0  0
    0.0012   -1.4044    0.0066 C   0  0  0  0  0  0  0  0  0  0  0  0
   -0.0045   -2.3987    0.0154 H   0  0  0  0  0  0  0  0  0  0  0  0
    1.2070   -0.7039    0.0000 C   0  0  0  0  0  0  0  0  0  0  0  0
    2.0876   -1.1965   -0.0018 H   0  0  0  0  0  0  0  0  0  0  0  0
    1.2017    0.6995   -0.0024 C   0  0  0  0  0  0  0  0  0  0  0  0
    2.0682    1.1928   -0.0125 H   0  0  0  0  0  0  0  0  0  0  0  0
  1  5  1  0
  5  8  1  0
  1  2  1  0
  1  3  1  0
  1  4  1  0
  5  6  1  0
  5  7  1  0
  8  9  1  0
  8 10  1  0
  8 11  1  0
 12 16  1  0
 16 17  2  0
 17 19  1  0
 19 21  2  0
 21 23  1  0
 23 25  2  0
 25 16  1  0
 12 13  1  0
 12 14  1  0
 12 15  1  0
 17 18  1  0
 19 20  1  0
 21 22  1  0
 23 24  1  0
 25 26  1  0
M  CHG  1   8   1
M  END
>  <PDB_ID>  (1930) 
pdb3ic1

>  <RESIDUE_NAME>  (1930) 
LYS   PHE

>  <FRAG_NAME>  (1930) 
ETAM   MBZ

>  <FRAG_ATOM_NUM>  (1930) 
fragi: 11  fragj: 15

>  <atom.prop.CHAIN_ID>  (1930) 
A A A A A A A A A A A Z Z Z Z Z Z Z Z Z Z Z Z Z Z Z

>  <atom.prop.IS_HEAVY_ATOM>  (1930) 
1 0 0 0 1 0 0 1 0 0 0 1 0 0 0 1 1 0 1 0 1 0 1 0 1 0

>  <DIFUSE_FUNC_ATOM>  (1930) 
n/a

>  <FINAL_SINGLE_POINT_ENERGY>  (1930) 
0

>  <NONCOV_INTER_ENERGY_QM>  (1930) 
0

>  <FF_Energy>  (1930) 
-2.25

>  <QM_Energy>  (1930) 
-10.81

>  <source>  (1930) 
ETAM_MBZ

>  <Index>  (1930) 
19775

$$$$
ETAM-pdb4f9z-B-LYS-256:MBZ-pdb4f9z-B-PHE-252
     RDKit          3D

 26 25  0  0  0  0  0  0  0  0999 V2000
    2.1185   -1.3327    4.4976 C   0  0  0  0  0  0  0  0  0  0  0  0
    2.3633   -1.6593    3.5940 H   0  0  0  0  0  0  0  0  0  0  0  0
    2.0154   -2.0876    5.1320 H   0  0  0  0  0  0  0  0  0  0  0  0
    2.9020   -0.6669    4.8594 H   0  0  0  0  0  0  0  0  0  0  0  0
    0.7882   -0.5959    4.4021 C   0  0  0  0  0  0  0  0  0  0  0  0
    0.4186   -0.4737    5.3326 H   0  0  0  0  0  0  0  0  0  0  0  0
    0.9518    0.3187    4.0094 H   0  0  0  0  0  0  0  0  0  0  0  0
   -0.2189   -1.3089    3.5684 N   0  0  0  0  0  4  0  0  0  0  0  0
   -0.4268   -2.1938    3.9851 H   0  0  0  0  0  0  0  0  0  0  0  0
   -1.0521   -0.7595    3.5135 H   0  0  0  0  0  0  0  0  0  0  0  0
    0.1503   -1.4495    2.6504 H   0  0  0  0  0  0  0  0  0  0  0  0
   -0.0091    2.9164    0.0016 C   0  0  0  0  0  0  0  0  0  0  0  0
   -0.6872    3.2148   -0.6506 H   0  0  0  0  0  0  0  0  0  0  0  0
    0.8958    3.2225   -0.2475 H   0  0  0  0  0  0  0  0  0  0  0  0
   -0.2565    3.3571    0.9673 H   0  0  0  0  0  0  0  0  0  0  0  0
   -0.0022    1.4018    0.0033 C   0  0  0  0  0  0  0  0  0  0  0  0
   -1.1906    0.6918   -0.0010 C   0  0  0  0  0  0  0  0  0  0  0  0
   -2.0626    1.1763   -0.0064 H   0  0  0  0  0  0  0  0  0  0  0  0
   -1.1933   -0.7017   -0.0000 C   0  0  0  0  0  0  0  0  0  0  0  0
   -2.0720   -1.1930    0.0035 H   0  0  0  0  0  0  0  0  0  0  0  0
    0.0021   -1.3899   -0.0021 C   0  0  0  0  0  0  0  0  0  0  0  0
    0.0018   -2.3908   -0.0052 H   0  0  0  0  0  0  0  0  0  0  0  0
    1.1933   -0.6934    0.0000 C   0  0  0  0  0  0  0  0  0  0  0  0
    2.0797   -1.1910    0.0029 H   0  0  0  0  0  0  0  0  0  0  0  0
    1.1907    0.6914   -0.0002 C   0  0  0  0  0  0  0  0  0  0  0  0
    2.0607    1.1891   -0.0036 H   0  0  0  0  0  0  0  0  0  0  0  0
  1  5  1  0
  5  8  1  0
  1  2  1  0
  1  3  1  0
  1  4  1  0
  5  6  1  0
  5  7  1  0
  8  9  1  0
  8 10  1  0
  8 11  1  0
 12 16  1  0
 16 17  2  0
 17 19  1  0
 19 21  2  0
 21 23  1  0
 23 25  2  0
 25 16  1  0
 12 13  1  0
 12 14  1  0
 12 15  1  0
 17 18  1  0
 19 20  1  0
 21 22  1  0
 23 24  1  0
 25 26  1  0
M  CHG  1   8   1
M  END
>  <PDB_ID>  (1931) 
pdb4f9z

>  <RESIDUE_NAME>  (1931) 
LYS   PHE

>  <FRAG_NAME>  (1931) 
ETAM   MBZ

>  <FRAG_ATOM_NUM>  (1931) 
fragi: 11  fragj: 15

>  <atom.prop.CHAIN_ID>  (1931) 
A A A A A A A A A A A Z Z Z Z Z Z Z Z Z Z Z Z Z Z Z

>  <atom.prop.IS_HEAVY_ATOM>  (1931) 
1 0 0 0 1 0 0 1 0 0 0 1 0 0 0 1 1 0 1 0 1 0 1 0 1 0

>  <DIFUSE_FUNC_ATOM>  (1931) 
n/a

>  <FINAL_SINGLE_POINT_ENERGY>  (1931) 
0

>  <NONCOV_INTER_ENERGY_QM>  (1931) 
0

>  <FF_Energy>  (1931) 
-6.36

>  <QM_Energy>  (1931) 
-12.7

>  <source>  (1931) 
ETAM_MBZ

>  <Index>  (1931) 
19784

$$$$
ETAM-pdb3ici-A-LYS-84:MBZ-pdb3ici-A-PHE-54
     RDKit          3D

 26 25  0  0  0  0  0  0  0  0999 V2000
    0.6286   -1.4732    4.4303 C   0  0  0  0  0  0  0  0  0  0  0  0
    0.4129   -2.3959    4.1865 H   0  0  0  0  0  0  0  0  0  0  0  0
    0.4358   -1.2690    5.3679 H   0  0  0  0  0  0  0  0  0  0  0  0
    1.6912   -1.3083    4.2520 H   0  0  0  0  0  0  0  0  0  0  0  0
   -0.1537   -0.5230    3.5391 C   0  0  0  0  0  0  0  0  0  0  0  0
    0.2630    0.3952    3.5912 H   0  0  0  0  0  0  0  0  0  0  0  0
   -0.0892   -0.8395    2.5832 H   0  0  0  0  0  0  0  0  0  0  0  0
   -1.6079   -0.4110    3.9086 N   0  0  0  0  0  4  0  0  0  0  0  0
   -2.0571    0.2072    3.2686 H   0  0  0  0  0  0  0  0  0  0  0  0
   -2.0244   -1.3148    3.8595 H   0  0  0  0  0  0  0  0  0  0  0  0
   -1.6792   -0.0526    4.8364 H   0  0  0  0  0  0  0  0  0  0  0  0
   -0.0022    2.9082   -0.0096 C   0  0  0  0  0  0  0  0  0  0  0  0
    0.7758    3.2151    0.5139 H   0  0  0  0  0  0  0  0  0  0  0  0
   -0.8521    3.2199    0.3826 H   0  0  0  0  0  0  0  0  0  0  0  0
    0.0791    3.3467   -1.0042 H   0  0  0  0  0  0  0  0  0  0  0  0
   -0.0067    1.4027   -0.0078 C   0  0  0  0  0  0  0  0  0  0  0  0
   -1.1925    0.7036    0.0095 C   0  0  0  0  0  0  0  0  0  0  0  0
   -2.0638    1.1859    0.0277 H   0  0  0  0  0  0  0  0  0  0  0  0
   -1.1974   -0.6935    0.0000 C   0  0  0  0  0  0  0  0  0  0  0  0
   -2.0722   -1.1865   -0.0034 H   0  0  0  0  0  0  0  0  0  0  0  0
    0.0101   -1.3980   -0.0024 C   0  0  0  0  0  0  0  0  0  0  0  0
   -0.0047   -2.3944   -0.0060 H   0  0  0  0  0  0  0  0  0  0  0  0
    1.1974   -0.7046   -0.0000 C   0  0  0  0  0  0  0  0  0  0  0  0
    2.0853   -1.1935    0.0022 H   0  0  0  0  0  0  0  0  0  0  0  0
    1.1891    0.6898    0.0006 C   0  0  0  0  0  0  0  0  0  0  0  0
    2.0589    1.1858    0.0065 H   0  0  0  0  0  0  0  0  0  0  0  0
  1  5  1  0
  5  8  1  0
  1  2  1  0
  1  3  1  0
  1  4  1  0
  5  6  1  0
  5  7  1  0
  8  9  1  0
  8 10  1  0
  8 11  1  0
 12 16  1  0
 16 17  2  0
 17 19  1  0
 19 21  2  0
 21 23  1  0
 23 25  2  0
 25 16  1  0
 12 13  1  0
 12 14  1  0
 12 15  1  0
 17 18  1  0
 19 20  1  0
 21 22  1  0
 23 24  1  0
 25 26  1  0
M  CHG  1   8   1
M  END
>  <PDB_ID>  (1932) 
pdb3ici

>  <RESIDUE_NAME>  (1932) 
LYS   PHE

>  <FRAG_NAME>  (1932) 
ETAM   MBZ

>  <FRAG_ATOM_NUM>  (1932) 
fragi: 11  fragj: 15

>  <atom.prop.CHAIN_ID>  (1932) 
A A A A A A A A A A A Z Z Z Z Z Z Z Z Z Z Z Z Z Z Z

>  <atom.prop.IS_HEAVY_ATOM>  (1932) 
1 0 0 0 1 0 0 1 0 0 0 1 0 0 0 1 1 0 1 0 1 0 1 0 1 0

>  <DIFUSE_FUNC_ATOM>  (1932) 
n/a

>  <FINAL_SINGLE_POINT_ENERGY>  (1932) 
0

>  <NONCOV_INTER_ENERGY_QM>  (1932) 
0

>  <FF_Energy>  (1932) 
-5.34

>  <QM_Energy>  (1932) 
-10.35

>  <source>  (1932) 
ETAM_MBZ

>  <Index>  (1932) 
19796

$$$$
ETAM-pdb4fdt-B-LYS-338:MBZ-pdb4fdt-A-PHE-397
     RDKit          3D

 26 25  0  0  0  0  0  0  0  0999 V2000
   -0.5497   -3.2975   -5.1012 C   0  0  0  0  0  0  0  0  0  0  0  0
   -1.2526   -3.7521   -4.5623 H   0  0  0  0  0  0  0  0  0  0  0  0
   -0.0298   -3.9663   -5.6236 H   0  0  0  0  0  0  0  0  0  0  0  0
   -1.0365   -2.6160   -5.7987 H   0  0  0  0  0  0  0  0  0  0  0  0
    0.3960   -2.5703   -4.1585 C   0  0  0  0  0  0  0  0  0  0  0  0
    0.6280   -3.1797   -3.3971 H   0  0  0  0  0  0  0  0  0  0  0  0
    1.2351   -2.3354   -4.6560 H   0  0  0  0  0  0  0  0  0  0  0  0
   -0.2171   -1.3251   -3.6200 N   0  0  0  0  0  4  0  0  0  0  0  0
   -0.1509   -0.6000   -4.3052 H   0  0  0  0  0  0  0  0  0  0  0  0
   -1.1782   -1.4948   -3.4045 H   0  0  0  0  0  0  0  0  0  0  0  0
    0.2684   -1.0484   -2.7905 H   0  0  0  0  0  0  0  0  0  0  0  0
   -0.0032    2.8866    0.0153 C   0  0  0  0  0  0  0  0  0  0  0  0
   -0.7785    3.1997   -0.5122 H   0  0  0  0  0  0  0  0  0  0  0  0
    0.8483    3.2014   -0.3760 H   0  0  0  0  0  0  0  0  0  0  0  0
   -0.0873    3.3065    1.0176 H   0  0  0  0  0  0  0  0  0  0  0  0
   -0.0001    1.3915   -0.0048 C   0  0  0  0  0  0  0  0  0  0  0  0
   -1.1966    0.6873    0.0046 C   0  0  0  0  0  0  0  0  0  0  0  0
   -2.0611    1.1824    0.0136 H   0  0  0  0  0  0  0  0  0  0  0  0
   -1.1996   -0.6910    0.0000 C   0  0  0  0  0  0  0  0  0  0  0  0
   -2.0753   -1.1917   -0.0036 H   0  0  0  0  0  0  0  0  0  0  0  0
    0.0015   -1.3849    0.0020 C   0  0  0  0  0  0  0  0  0  0  0  0
   -0.0036   -2.3856    0.0037 H   0  0  0  0  0  0  0  0  0  0  0  0
    1.1996   -0.6916    0.0000 C   0  0  0  0  0  0  0  0  0  0  0  0
    2.0808   -1.1932    0.0012 H   0  0  0  0  0  0  0  0  0  0  0  0
    1.1952    0.6886   -0.0018 C   0  0  0  0  0  0  0  0  0  0  0  0
    2.0627    1.1898   -0.0017 H   0  0  0  0  0  0  0  0  0  0  0  0
  1  5  1  0
  5  8  1  0
  1  2  1  0
  1  3  1  0
  1  4  1  0
  5  6  1  0
  5  7  1  0
  8  9  1  0
  8 10  1  0
  8 11  1  0
 12 16  1  0
 16 17  2  0
 17 19  1  0
 19 21  2  0
 21 23  1  0
 23 25  2  0
 25 16  1  0
 12 13  1  0
 12 14  1  0
 12 15  1  0
 17 18  1  0
 19 20  1  0
 21 22  1  0
 23 24  1  0
 25 26  1  0
M  CHG  1   8   1
M  END
>  <PDB_ID>  (1933) 
pdb4fdt

>  <RESIDUE_NAME>  (1933) 
LYS   PHE

>  <FRAG_NAME>  (1933) 
ETAM   MBZ

>  <FRAG_ATOM_NUM>  (1933) 
fragi: 11  fragj: 15

>  <atom.prop.CHAIN_ID>  (1933) 
A A A A A A A A A A A Z Z Z Z Z Z Z Z Z Z Z Z Z Z Z

>  <atom.prop.IS_HEAVY_ATOM>  (1933) 
1 0 0 0 1 0 0 1 0 0 0 1 0 0 0 1 1 0 1 0 1 0 1 0 1 0

>  <DIFUSE_FUNC_ATOM>  (1933) 
n/a

>  <FINAL_SINGLE_POINT_ENERGY>  (1933) 
0

>  <NONCOV_INTER_ENERGY_QM>  (1933) 
0

>  <FF_Energy>  (1933) 
-5.97

>  <QM_Energy>  (1933) 
-11.9

>  <source>  (1933) 
ETAM_MBZ

>  <Index>  (1933) 
19808

$$$$
ETAM-pdb3idf-B-LYS-78:MBZ-pdb3idf-B-PHE-74
     RDKit          3D

 26 25  0  0  0  0  0  0  0  0999 V2000
   -0.5758   -1.0399    4.2952 C   0  0  0  0  0  0  0  0  0  0  0  0
    0.1007   -0.7065    3.6521 H   0  0  0  0  0  0  0  0  0  0  0  0
   -0.5298   -2.0266    4.3764 H   0  0  0  0  0  0  0  0  0  0  0  0
   -0.3930   -0.5908    5.2714 H   0  0  0  0  0  0  0  0  0  0  0  0
   -1.9681   -0.6651    3.7659 C   0  0  0  0  0  0  0  0  0  0  0  0
   -2.1588   -1.1911    2.9478 H   0  0  0  0  0  0  0  0  0  0  0  0
   -2.6439   -0.8451    4.4679 H   0  0  0  0  0  0  0  0  0  0  0  0
   -2.0127    0.8162    3.4147 N   0  0  0  0  0  4  0  0  0  0  0  0
   -1.2050    1.2538    3.7937 H   0  0  0  0  0  0  0  0  0  0  0  0
   -2.0235    0.9037    2.4249 H   0  0  0  0  0  0  0  0  0  0  0  0
   -2.8375    1.2081    3.8077 H   0  0  0  0  0  0  0  0  0  0  0  0
   -0.0032    2.9128    0.0308 C   0  0  0  0  0  0  0  0  0  0  0  0
   -0.7591    3.2250   -0.5199 H   0  0  0  0  0  0  0  0  0  0  0  0
    0.8623    3.2251   -0.3253 H   0  0  0  0  0  0  0  0  0  0  0  0
   -0.1232    3.3263    1.0321 H   0  0  0  0  0  0  0  0  0  0  0  0
    0.0001    1.4038    0.0002 C   0  0  0  0  0  0  0  0  0  0  0  0
   -1.2015    0.6945    0.0068 C   0  0  0  0  0  0  0  0  0  0  0  0
   -2.0652    1.1910    0.0152 H   0  0  0  0  0  0  0  0  0  0  0  0
   -1.2086   -0.6904   -0.0000 C   0  0  0  0  0  0  0  0  0  0  0  0
   -2.0832   -1.1887    0.0017 H   0  0  0  0  0  0  0  0  0  0  0  0
   -0.0010   -1.3979   -0.0077 C   0  0  0  0  0  0  0  0  0  0  0  0
   -0.0121   -2.3941   -0.0193 H   0  0  0  0  0  0  0  0  0  0  0  0
    1.2086   -0.7059   -0.0000 C   0  0  0  0  0  0  0  0  0  0  0  0
    2.0852   -1.2008    0.0062 H   0  0  0  0  0  0  0  0  0  0  0  0
    1.2023    0.6959    0.0006 C   0  0  0  0  0  0  0  0  0  0  0  0
    2.0689    1.1893    0.0002 H   0  0  0  0  0  0  0  0  0  0  0  0
  1  5  1  0
  5  8  1  0
  1  2  1  0
  1  3  1  0
  1  4  1  0
  5  6  1  0
  5  7  1  0
  8  9  1  0
  8 10  1  0
  8 11  1  0
 12 16  1  0
 16 17  2  0
 17 19  1  0
 19 21  2  0
 21 23  1  0
 23 25  2  0
 25 16  1  0
 12 13  1  0
 12 14  1  0
 12 15  1  0
 17 18  1  0
 19 20  1  0
 21 22  1  0
 23 24  1  0
 25 26  1  0
M  CHG  1   8   1
M  END
>  <PDB_ID>  (1934) 
pdb3idf

>  <RESIDUE_NAME>  (1934) 
LYS   PHE

>  <FRAG_NAME>  (1934) 
ETAM   MBZ

>  <FRAG_ATOM_NUM>  (1934) 
fragi: 11  fragj: 15

>  <atom.prop.CHAIN_ID>  (1934) 
A A A A A A A A A A A Z Z Z Z Z Z Z Z Z Z Z Z Z Z Z

>  <atom.prop.IS_HEAVY_ATOM>  (1934) 
1 0 0 0 1 0 0 1 0 0 0 1 0 0 0 1 1 0 1 0 1 0 1 0 1 0

>  <DIFUSE_FUNC_ATOM>  (1934) 
n/a

>  <FINAL_SINGLE_POINT_ENERGY>  (1934) 
0

>  <NONCOV_INTER_ENERGY_QM>  (1934) 
0

>  <FF_Energy>  (1934) 
-5.53

>  <QM_Energy>  (1934) 
-11.48

>  <source>  (1934) 
ETAM_MBZ

>  <Index>  (1934) 
19816

$$$$
ETAM-pdb3idu-A-LYS-494:MBZ-pdb3idu-A-PHE-435
     RDKit          3D

 26 25  0  0  0  0  0  0  0  0999 V2000
   -5.4206   -2.9930    0.9735 C   0  0  0  0  0  0  0  0  0  0  0  0
   -5.2823   -2.7877    1.9391 H   0  0  0  0  0  0  0  0  0  0  0  0
   -5.7870   -3.9128    0.8672 H   0  0  0  0  0  0  0  0  0  0  0  0
   -6.1358   -2.2803    0.5629 H   0  0  0  0  0  0  0  0  0  0  0  0
   -4.0742   -2.9226    0.2649 C   0  0  0  0  0  0  0  0  0  0  0  0
   -4.1999   -3.1790   -0.6983 H   0  0  0  0  0  0  0  0  0  0  0  0
   -3.7344   -1.9782    0.3051 H   0  0  0  0  0  0  0  0  0  0  0  0
   -3.0626   -3.8313    0.8830 N   0  0  0  0  0  4  0  0  0  0  0  0
   -2.3485   -4.0312    0.2139 H   0  0  0  0  0  0  0  0  0  0  0  0
   -2.6615   -3.3833    1.6802 H   0  0  0  0  0  0  0  0  0  0  0  0
   -3.5096   -4.6797    1.1629 H   0  0  0  0  0  0  0  0  0  0  0  0
   -0.0046    2.8988   -0.0076 C   0  0  0  0  0  0  0  0  0  0  0  0
    0.9246    3.2111    0.1237 H   0  0  0  0  0  0  0  0  0  0  0  0
   -0.5944    3.2100    0.7225 H   0  0  0  0  0  0  0  0  0  0  0  0
   -0.3717    3.3317   -0.9381 H   0  0  0  0  0  0  0  0  0  0  0  0
   -0.0001    1.4014    0.0004 C   0  0  0  0  0  0  0  0  0  0  0  0
   -1.1971    0.6934   -0.0007 C   0  0  0  0  0  0  0  0  0  0  0  0
   -2.0634    1.1847   -0.0035 H   0  0  0  0  0  0  0  0  0  0  0  0
   -1.2043   -0.6975   -0.0000 C   0  0  0  0  0  0  0  0  0  0  0  0
   -2.0800   -1.1906    0.0026 H   0  0  0  0  0  0  0  0  0  0  0  0
   -0.0015   -1.3951   -0.0002 C   0  0  0  0  0  0  0  0  0  0  0  0
   -0.0046   -2.3931   -0.0013 H   0  0  0  0  0  0  0  0  0  0  0  0
    1.2043   -0.6969    0.0000 C   0  0  0  0  0  0  0  0  0  0  0  0
    2.0834   -1.1950    0.0012 H   0  0  0  0  0  0  0  0  0  0  0  0
    1.1987    0.6947    0.0005 C   0  0  0  0  0  0  0  0  0  0  0  0
    2.0660    1.1916   -0.0001 H   0  0  0  0  0  0  0  0  0  0  0  0
  1  5  1  0
  5  8  1  0
  1  2  1  0
  1  3  1  0
  1  4  1  0
  5  6  1  0
  5  7  1  0
  8  9  1  0
  8 10  1  0
  8 11  1  0
 12 16  1  0
 16 17  2  0
 17 19  1  0
 19 21  2  0
 21 23  1  0
 23 25  2  0
 25 16  1  0
 12 13  1  0
 12 14  1  0
 12 15  1  0
 17 18  1  0
 19 20  1  0
 21 22  1  0
 23 24  1  0
 25 26  1  0
M  CHG  1   8   1
M  END
>  <PDB_ID>  (1935) 
pdb3idu

>  <RESIDUE_NAME>  (1935) 
LYS   PHE

>  <FRAG_NAME>  (1935) 
ETAM   MBZ

>  <FRAG_ATOM_NUM>  (1935) 
fragi: 11  fragj: 15

>  <atom.prop.CHAIN_ID>  (1935) 
A A A A A A A A A A A Z Z Z Z Z Z Z Z Z Z Z Z Z Z Z

>  <atom.prop.IS_HEAVY_ATOM>  (1935) 
1 0 0 0 1 0 0 1 0 0 0 1 0 0 0 1 1 0 1 0 1 0 1 0 1 0

>  <DIFUSE_FUNC_ATOM>  (1935) 
n/a

>  <FINAL_SINGLE_POINT_ENERGY>  (1935) 
0

>  <NONCOV_INTER_ENERGY_QM>  (1935) 
0

>  <FF_Energy>  (1935) 
3.4

>  <QM_Energy>  (1935) 
-2.5

>  <source>  (1935) 
ETAM_MBZ

>  <Index>  (1935) 
19823

$$$$
ETAM-pdb3idf-A-LYS-78:MBZ-pdb3idf-A-PHE-74
     RDKit          3D

 26 25  0  0  0  0  0  0  0  0999 V2000
    0.3443   -1.4694    4.4056 C   0  0  0  0  0  0  0  0  0  0  0  0
    0.9120   -1.0685    3.6858 H   0  0  0  0  0  0  0  0  0  0  0  0
    0.7534   -2.3300    4.7105 H   0  0  0  0  0  0  0  0  0  0  0  0
    0.3091   -0.7793    5.2486 H   0  0  0  0  0  0  0  0  0  0  0  0
   -1.0259   -1.7595    3.8359 C   0  0  0  0  0  0  0  0  0  0  0  0
   -1.5982   -2.1650    4.5479 H   0  0  0  0  0  0  0  0  0  0  0  0
   -1.4398   -0.9043    3.5238 H   0  0  0  0  0  0  0  0  0  0  0  0
   -0.9289   -2.7012    2.6918 N   0  0  0  0  0  4  0  0  0  0  0  0
   -1.1543   -3.6252    3.0001 H   0  0  0  0  0  0  0  0  0  0  0  0
   -1.5707   -2.4240    1.9759 H   0  0  0  0  0  0  0  0  0  0  0  0
    0.0023   -2.6890    2.3274 H   0  0  0  0  0  0  0  0  0  0  0  0
   -0.0052    2.9107    0.0022 C   0  0  0  0  0  0  0  0  0  0  0  0
   -0.7458    3.2163   -0.5767 H   0  0  0  0  0  0  0  0  0  0  0  0
    0.8706    3.2161   -0.3397 H   0  0  0  0  0  0  0  0  0  0  0  0
   -0.1500    3.3512    0.9887 H   0  0  0  0  0  0  0  0  0  0  0  0
   -0.0050    1.4056    0.0036 C   0  0  0  0  0  0  0  0  0  0  0  0
   -1.2080    0.6937    0.0011 C   0  0  0  0  0  0  0  0  0  0  0  0
   -2.0729    1.1849   -0.0006 H   0  0  0  0  0  0  0  0  0  0  0  0
   -1.2151   -0.7022    0.0000 C   0  0  0  0  0  0  0  0  0  0  0  0
   -2.0770   -1.2033    0.0046 H   0  0  0  0  0  0  0  0  0  0  0  0
    0.0163   -1.4059   -0.0066 C   0  0  0  0  0  0  0  0  0  0  0  0
    0.0102   -2.3964   -0.0164 H   0  0  0  0  0  0  0  0  0  0  0  0
    1.2151   -0.6935   -0.0000 C   0  0  0  0  0  0  0  0  0  0  0  0
    2.1000   -1.1818    0.0046 H   0  0  0  0  0  0  0  0  0  0  0  0
    1.1968    0.7023    0.0019 C   0  0  0  0  0  0  0  0  0  0  0  0
    2.0628    1.2038    0.0010 H   0  0  0  0  0  0  0  0  0  0  0  0
  1  5  1  0
  5  8  1  0
  1  2  1  0
  1  3  1  0
  1  4  1  0
  5  6  1  0
  5  7  1  0
  8  9  1  0
  8 10  1  0
  8 11  1  0
 12 16  1  0
 16 17  2  0
 17 19  1  0
 19 21  2  0
 21 23  1  0
 23 25  2  0
 25 16  1  0
 12 13  1  0
 12 14  1  0
 12 15  1  0
 17 18  1  0
 19 20  1  0
 21 22  1  0
 23 24  1  0
 25 26  1  0
M  CHG  1   8   1
M  END
>  <PDB_ID>  (1936) 
pdb3idf

>  <RESIDUE_NAME>  (1936) 
LYS   PHE

>  <FRAG_NAME>  (1936) 
ETAM   MBZ

>  <FRAG_ATOM_NUM>  (1936) 
fragi: 11  fragj: 15

>  <atom.prop.CHAIN_ID>  (1936) 
A A A A A A A A A A A Z Z Z Z Z Z Z Z Z Z Z Z Z Z Z

>  <atom.prop.IS_HEAVY_ATOM>  (1936) 
1 0 0 0 1 0 0 1 0 0 0 1 0 0 0 1 1 0 1 0 1 0 1 0 1 0

>  <DIFUSE_FUNC_ATOM>  (1936) 
n/a

>  <FINAL_SINGLE_POINT_ENERGY>  (1936) 
0

>  <NONCOV_INTER_ENERGY_QM>  (1936) 
0

>  <FF_Energy>  (1936) 
-2.99

>  <QM_Energy>  (1936) 
-10.64

>  <source>  (1936) 
ETAM_MBZ

>  <Index>  (1936) 
19830

$$$$
ETAM-pdb3if2-A-LYS-291:MBZ-pdb3if2-B-PHE-3
     RDKit          3D

 26 25  0  0  0  0  0  0  0  0999 V2000
    0.0440   -3.4814   -4.0452 C   0  0  0  0  0  0  0  0  0  0  0  0
    0.6455   -3.9141   -4.7047 H   0  0  0  0  0  0  0  0  0  0  0  0
   -0.9071   -3.6551   -4.2669 H   0  0  0  0  0  0  0  0  0  0  0  0
    0.2545   -3.8910   -3.0573 H   0  0  0  0  0  0  0  0  0  0  0  0
    0.2863   -1.9827   -4.0725 C   0  0  0  0  0  0  0  0  0  0  0  0
    0.1117   -1.6446   -4.9975 H   0  0  0  0  0  0  0  0  0  0  0  0
   -0.3435   -1.5422   -3.4324 H   0  0  0  0  0  0  0  0  0  0  0  0
    1.6770   -1.6757   -3.6884 N   0  0  0  0  0  4  0  0  0  0  0  0
    2.0819   -2.4650   -3.2222 H   0  0  0  0  0  0  0  0  0  0  0  0
    2.2147   -1.4641   -4.5061 H   0  0  0  0  0  0  0  0  0  0  0  0
    1.6912   -0.8858   -3.0718 H   0  0  0  0  0  0  0  0  0  0  0  0
    0.0542    2.9389    0.0383 C   0  0  0  0  0  0  0  0  0  0  0  0
    0.8198    3.2382   -0.5225 H   0  0  0  0  0  0  0  0  0  0  0  0
    0.2012    3.1962    0.9878 H   0  0  0  0  0  0  0  0  0  0  0  0
   -0.8366    3.4609   -0.3114 H   0  0  0  0  0  0  0  0  0  0  0  0
    0.0005    1.4256   -0.0259 C   0  0  0  0  0  0  0  0  0  0  0  0
   -1.2054    0.7009    0.0244 C   0  0  0  0  0  0  0  0  0  0  0  0
   -2.0699    1.1821    0.0766 H   0  0  0  0  0  0  0  0  0  0  0  0
   -1.2072   -0.7119   -0.0000 C   0  0  0  0  0  0  0  0  0  0  0  0
   -2.0827   -1.1990   -0.0144 H   0  0  0  0  0  0  0  0  0  0  0  0
    0.0019   -1.4122   -0.0021 C   0  0  0  0  0  0  0  0  0  0  0  0
    0.0001   -2.4066   -0.0059 H   0  0  0  0  0  0  0  0  0  0  0  0
    1.2072   -0.7072    0.0000 C   0  0  0  0  0  0  0  0  0  0  0  0
    2.0893   -1.1963    0.0006 H   0  0  0  0  0  0  0  0  0  0  0  0
    1.2030    0.7048    0.0036 C   0  0  0  0  0  0  0  0  0  0  0  0
    2.0719    1.1933    0.0273 H   0  0  0  0  0  0  0  0  0  0  0  0
  1  5  1  0
  5  8  1  0
  1  2  1  0
  1  3  1  0
  1  4  1  0
  5  6  1  0
  5  7  1  0
  8  9  1  0
  8 10  1  0
  8 11  1  0
 12 16  1  0
 16 17  2  0
 17 19  1  0
 19 21  2  0
 21 23  1  0
 23 25  2  0
 25 16  1  0
 12 13  1  0
 12 14  1  0
 12 15  1  0
 17 18  1  0
 19 20  1  0
 21 22  1  0
 23 24  1  0
 25 26  1  0
M  CHG  1   8   1
M  END
>  <PDB_ID>  (1937) 
pdb3if2

>  <RESIDUE_NAME>  (1937) 
LYS   PHE

>  <FRAG_NAME>  (1937) 
ETAM   MBZ

>  <FRAG_ATOM_NUM>  (1937) 
fragi: 11  fragj: 15

>  <atom.prop.CHAIN_ID>  (1937) 
A A A A A A A A A A A Z Z Z Z Z Z Z Z Z Z Z Z Z Z Z

>  <atom.prop.IS_HEAVY_ATOM>  (1937) 
1 0 0 0 1 0 0 1 0 0 0 1 0 0 0 1 1 0 1 0 1 0 1 0 1 0

>  <DIFUSE_FUNC_ATOM>  (1937) 
n/a

>  <FINAL_SINGLE_POINT_ENERGY>  (1937) 
0

>  <NONCOV_INTER_ENERGY_QM>  (1937) 
0

>  <FF_Energy>  (1937) 
-4.18

>  <QM_Energy>  (1937) 
-9.36

>  <source>  (1937) 
ETAM_MBZ

>  <Index>  (1937) 
19853

$$$$
ETAM-pdb3if2-B-LYS-291:MBZ-pdb3if2-A-PHE-3
     RDKit          3D

 26 25  0  0  0  0  0  0  0  0999 V2000
    0.5073   -3.5327   -4.0470 C   0  0  0  0  0  0  0  0  0  0  0  0
    0.9753   -3.9384   -4.8200 H   0  0  0  0  0  0  0  0  0  0  0  0
   -0.4744   -3.6179   -4.1413 H   0  0  0  0  0  0  0  0  0  0  0  0
    0.8095   -4.0708   -3.1485 H   0  0  0  0  0  0  0  0  0  0  0  0
    0.8683   -2.0207   -3.9894 C   0  0  0  0  0  0  0  0  0  0  0  0
    0.7290   -1.6296   -4.8984 H   0  0  0  0  0  0  0  0  0  0  0  0
    0.2567   -1.5765   -3.3366 H   0  0  0  0  0  0  0  0  0  0  0  0
    2.2967   -1.7944   -3.5648 N   0  0  0  0  0  4  0  0  0  0  0  0
    2.3367   -1.7705   -2.5696 H   0  0  0  0  0  0  0  0  0  0  0  0
    2.8577   -2.5406   -3.9121 H   0  0  0  0  0  0  0  0  0  0  0  0
    2.6106   -0.9271   -3.9409 H   0  0  0  0  0  0  0  0  0  0  0  0
    0.0775    2.9326    0.0666 C   0  0  0  0  0  0  0  0  0  0  0  0
    0.8720    3.2284   -0.4531 H   0  0  0  0  0  0  0  0  0  0  0  0
    0.1827    3.1731    1.0259 H   0  0  0  0  0  0  0  0  0  0  0  0
   -0.7899    3.4693   -0.3177 H   0  0  0  0  0  0  0  0  0  0  0  0
    0.0048    1.4242   -0.0231 C   0  0  0  0  0  0  0  0  0  0  0  0
   -1.2082    0.7032    0.0260 C   0  0  0  0  0  0  0  0  0  0  0  0
   -2.0678    1.1915    0.0784 H   0  0  0  0  0  0  0  0  0  0  0  0
   -1.2137   -0.7036   -0.0000 C   0  0  0  0  0  0  0  0  0  0  0  0
   -2.0879   -1.1925   -0.0097 H   0  0  0  0  0  0  0  0  0  0  0  0
   -0.0016   -1.4117   -0.0100 C   0  0  0  0  0  0  0  0  0  0  0  0
   -0.0099   -2.4052   -0.0242 H   0  0  0  0  0  0  0  0  0  0  0  0
    1.2137   -0.7127   -0.0000 C   0  0  0  0  0  0  0  0  0  0  0  0
    2.0893   -1.2023    0.0038 H   0  0  0  0  0  0  0  0  0  0  0  0
    1.2050    0.7005    0.0071 C   0  0  0  0  0  0  0  0  0  0  0  0
    2.0758    1.1891    0.0330 H   0  0  0  0  0  0  0  0  0  0  0  0
  1  5  1  0
  5  8  1  0
  1  2  1  0
  1  3  1  0
  1  4  1  0
  5  6  1  0
  5  7  1  0
  8  9  1  0
  8 10  1  0
  8 11  1  0
 12 16  1  0
 16 17  2  0
 17 19  1  0
 19 21  2  0
 21 23  1  0
 23 25  2  0
 25 16  1  0
 12 13  1  0
 12 14  1  0
 12 15  1  0
 17 18  1  0
 19 20  1  0
 21 22  1  0
 23 24  1  0
 25 26  1  0
M  CHG  1   8   1
M  END
>  <PDB_ID>  (1938) 
pdb3if2

>  <RESIDUE_NAME>  (1938) 
LYS   PHE

>  <FRAG_NAME>  (1938) 
ETAM   MBZ

>  <FRAG_ATOM_NUM>  (1938) 
fragi: 11  fragj: 15

>  <atom.prop.CHAIN_ID>  (1938) 
A A A A A A A A A A A Z Z Z Z Z Z Z Z Z Z Z Z Z Z Z

>  <atom.prop.IS_HEAVY_ATOM>  (1938) 
1 0 0 0 1 0 0 1 0 0 0 1 0 0 0 1 1 0 1 0 1 0 1 0 1 0

>  <DIFUSE_FUNC_ATOM>  (1938) 
n/a

>  <FINAL_SINGLE_POINT_ENERGY>  (1938) 
0

>  <NONCOV_INTER_ENERGY_QM>  (1938) 
0

>  <FF_Energy>  (1938) 
-3.23

>  <QM_Energy>  (1938) 
-8.28

>  <source>  (1938) 
ETAM_MBZ

>  <Index>  (1938) 
19855

$$$$
ETAM-pdb4f9z-E-LYS-256:MBZ-pdb4f9z-E-PHE-252
     RDKit          3D

 26 25  0  0  0  0  0  0  0  0999 V2000
    2.0084   -0.5723    4.1950 C   0  0  0  0  0  0  0  0  0  0  0  0
    2.1029    0.2506    3.6424 H   0  0  0  0  0  0  0  0  0  0  0  0
    2.6453   -1.2706    3.8835 H   0  0  0  0  0  0  0  0  0  0  0  0
    2.2236   -0.3302    5.2358 H   0  0  0  0  0  0  0  0  0  0  0  0
    0.5973   -1.1008    4.0359 C   0  0  0  0  0  0  0  0  0  0  0  0
    0.5871   -1.7857    3.2992 H   0  0  0  0  0  0  0  0  0  0  0  0
    0.3188   -1.5506    4.8919 H   0  0  0  0  0  0  0  0  0  0  0  0
   -0.3722   -0.0250    3.7146 N   0  0  0  0  0  4  0  0  0  0  0  0
   -0.2070    0.3075    2.7857 H   0  0  0  0  0  0  0  0  0  0  0  0
   -1.3031   -0.3843    3.7789 H   0  0  0  0  0  0  0  0  0  0  0  0
   -0.2612    0.7290    4.3623 H   0  0  0  0  0  0  0  0  0  0  0  0
    0.0004    2.9091   -0.0135 C   0  0  0  0  0  0  0  0  0  0  0  0
   -0.6666    3.2098   -0.6772 H   0  0  0  0  0  0  0  0  0  0  0  0
    0.9103    3.2107   -0.2546 H   0  0  0  0  0  0  0  0  0  0  0  0
   -0.2569    3.3566    0.9466 H   0  0  0  0  0  0  0  0  0  0  0  0
   -0.0014    1.4010   -0.0038 C   0  0  0  0  0  0  0  0  0  0  0  0
   -1.1957    0.6969   -0.0002 C   0  0  0  0  0  0  0  0  0  0  0  0
   -2.0628    1.1834    0.0012 H   0  0  0  0  0  0  0  0  0  0  0  0
   -1.1970   -0.6965    0.0000 C   0  0  0  0  0  0  0  0  0  0  0  0
   -2.0724   -1.1911    0.0004 H   0  0  0  0  0  0  0  0  0  0  0  0
    0.0070   -1.3921    0.0009 C   0  0  0  0  0  0  0  0  0  0  0  0
   -0.0017   -2.3927    0.0014 H   0  0  0  0  0  0  0  0  0  0  0  0
    1.1970   -0.7003    0.0000 C   0  0  0  0  0  0  0  0  0  0  0  0
    2.0832   -1.1930   -0.0015 H   0  0  0  0  0  0  0  0  0  0  0  0
    1.1900    0.6911    0.0030 C   0  0  0  0  0  0  0  0  0  0  0  0
    2.0611    1.1862    0.0097 H   0  0  0  0  0  0  0  0  0  0  0  0
  1  5  1  0
  5  8  1  0
  1  2  1  0
  1  3  1  0
  1  4  1  0
  5  6  1  0
  5  7  1  0
  8  9  1  0
  8 10  1  0
  8 11  1  0
 12 16  1  0
 16 17  2  0
 17 19  1  0
 19 21  2  0
 21 23  1  0
 23 25  2  0
 25 16  1  0
 12 13  1  0
 12 14  1  0
 12 15  1  0
 17 18  1  0
 19 20  1  0
 21 22  1  0
 23 24  1  0
 25 26  1  0
M  CHG  1   8   1
M  END
>  <PDB_ID>  (1939) 
pdb4f9z

>  <RESIDUE_NAME>  (1939) 
LYS   PHE

>  <FRAG_NAME>  (1939) 
ETAM   MBZ

>  <FRAG_ATOM_NUM>  (1939) 
fragi: 11  fragj: 15

>  <atom.prop.CHAIN_ID>  (1939) 
A A A A A A A A A A A Z Z Z Z Z Z Z Z Z Z Z Z Z Z Z

>  <atom.prop.IS_HEAVY_ATOM>  (1939) 
1 0 0 0 1 0 0 1 0 0 0 1 0 0 0 1 1 0 1 0 1 0 1 0 1 0

>  <DIFUSE_FUNC_ATOM>  (1939) 
n/a

>  <FINAL_SINGLE_POINT_ENERGY>  (1939) 
0

>  <NONCOV_INTER_ENERGY_QM>  (1939) 
0

>  <FF_Energy>  (1939) 
-7.72

>  <QM_Energy>  (1939) 
-13.39

>  <source>  (1939) 
ETAM_MBZ

>  <Index>  (1939) 
19888

$$$$
ETAM-pdb3iet-B-LYS-114:MBZ-pdb3iet-B-PHE-146
     RDKit          3D

 26 25  0  0  0  0  0  0  0  0999 V2000
    1.0283   -2.0872    2.9987 C   0  0  0  0  0  0  0  0  0  0  0  0
    0.8687   -2.1275    2.0160 H   0  0  0  0  0  0  0  0  0  0  0  0
    1.4808   -1.2338    3.2391 H   0  0  0  0  0  0  0  0  0  0  0  0
    0.0688   -2.1358    3.5136 H   0  0  0  0  0  0  0  0  0  0  0  0
    1.9700   -3.2529    3.3803 C   0  0  0  0  0  0  0  0  0  0  0  0
    2.9138   -2.9865    3.1501 H   0  0  0  0  0  0  0  0  0  0  0  0
    1.9142   -3.3935    4.3760 H   0  0  0  0  0  0  0  0  0  0  0  0
    1.6418   -4.5456    2.6844 N   0  0  0  0  0  4  0  0  0  0  0  0
    0.9536   -5.0339    3.2159 H   0  0  0  0  0  0  0  0  0  0  0  0
    1.2889   -4.3425    1.7741 H   0  0  0  0  0  0  0  0  0  0  0  0
    2.4710   -5.0949    2.6139 H   0  0  0  0  0  0  0  0  0  0  0  0
    0.0052    2.9001   -0.0047 C   0  0  0  0  0  0  0  0  0  0  0  0
    0.7386    3.2026    0.5864 H   0  0  0  0  0  0  0  0  0  0  0  0
   -0.8737    3.2110    0.3275 H   0  0  0  0  0  0  0  0  0  0  0  0
    0.1655    3.3429   -0.9878 H   0  0  0  0  0  0  0  0  0  0  0  0
   -0.0022    1.3962   -0.0030 C   0  0  0  0  0  0  0  0  0  0  0  0
   -1.1895    0.7019    0.0010 C   0  0  0  0  0  0  0  0  0  0  0  0
   -2.0582    1.1885    0.0029 H   0  0  0  0  0  0  0  0  0  0  0  0
   -1.1902   -0.6849   -0.0000 C   0  0  0  0  0  0  0  0  0  0  0  0
   -2.0714   -1.1804   -0.0007 H   0  0  0  0  0  0  0  0  0  0  0  0
    0.0044   -1.3865    0.0018 C   0  0  0  0  0  0  0  0  0  0  0  0
   -0.0139   -2.3897    0.0045 H   0  0  0  0  0  0  0  0  0  0  0  0
    1.1902   -0.7080    0.0000 C   0  0  0  0  0  0  0  0  0  0  0  0
    2.0767   -1.2014   -0.0002 H   0  0  0  0  0  0  0  0  0  0  0  0
    1.1872    0.6812    0.0002 C   0  0  0  0  0  0  0  0  0  0  0  0
    2.0604    1.1752    0.0021 H   0  0  0  0  0  0  0  0  0  0  0  0
  1  5  1  0
  5  8  1  0
  1  2  1  0
  1  3  1  0
  1  4  1  0
  5  6  1  0
  5  7  1  0
  8  9  1  0
  8 10  1  0
  8 11  1  0
 12 16  1  0
 16 17  2  0
 17 19  1  0
 19 21  2  0
 21 23  1  0
 23 25  2  0
 25 16  1  0
 12 13  1  0
 12 14  1  0
 12 15  1  0
 17 18  1  0
 19 20  1  0
 21 22  1  0
 23 24  1  0
 25 26  1  0
M  CHG  1   8   1
M  END
>  <PDB_ID>  (1940) 
pdb3iet

>  <RESIDUE_NAME>  (1940) 
LYS   PHE

>  <FRAG_NAME>  (1940) 
ETAM   MBZ

>  <FRAG_ATOM_NUM>  (1940) 
fragi: 11  fragj: 15

>  <atom.prop.CHAIN_ID>  (1940) 
A A A A A A A A A A A Z Z Z Z Z Z Z Z Z Z Z Z Z Z Z

>  <atom.prop.IS_HEAVY_ATOM>  (1940) 
1 0 0 0 1 0 0 1 0 0 0 1 0 0 0 1 1 0 1 0 1 0 1 0 1 0

>  <DIFUSE_FUNC_ATOM>  (1940) 
n/a

>  <FINAL_SINGLE_POINT_ENERGY>  (1940) 
0

>  <NONCOV_INTER_ENERGY_QM>  (1940) 
0

>  <FF_Energy>  (1940) 
2.98

>  <QM_Energy>  (1940) 
-2.23

>  <source>  (1940) 
ETAM_MBZ

>  <Index>  (1940) 
19915

$$$$
ETAM-pdb4fke-A-LYS-883:MBZ-pdb4fke-A-PHE-893
     RDKit          3D

 26 25  0  0  0  0  0  0  0  0999 V2000
    4.0458   -1.7211   -3.6982 C   0  0  0  0  0  0  0  0  0  0  0  0
    4.5805   -2.5159   -3.9731 H   0  0  0  0  0  0  0  0  0  0  0  0
    4.4966   -0.8846   -3.9962 H   0  0  0  0  0  0  0  0  0  0  0  0
    3.0648   -1.7787   -4.1698 H   0  0  0  0  0  0  0  0  0  0  0  0
    3.9434   -1.7043   -2.1825 C   0  0  0  0  0  0  0  0  0  0  0  0
    4.8321   -1.4318   -1.7984 H   0  0  0  0  0  0  0  0  0  0  0  0
    3.2547   -1.0232   -1.9096 H   0  0  0  0  0  0  0  0  0  0  0  0
    3.5599   -3.0325   -1.6255 N   0  0  0  0  0  4  0  0  0  0  0  0
    2.6919   -2.9481   -1.1376 H   0  0  0  0  0  0  0  0  0  0  0  0
    3.4630   -3.6886   -2.3728 H   0  0  0  0  0  0  0  0  0  0  0  0
    4.2703   -3.3437   -0.9956 H   0  0  0  0  0  0  0  0  0  0  0  0
    0.0042    2.9015   -0.0065 C   0  0  0  0  0  0  0  0  0  0  0  0
   -0.5052    3.2054   -0.7982 H   0  0  0  0  0  0  0  0  0  0  0  0
    0.9446    3.2074   -0.0447 H   0  0  0  0  0  0  0  0  0  0  0  0
   -0.4537    3.3541    0.8730 H   0  0  0  0  0  0  0  0  0  0  0  0
    0.0004    1.3998    0.0047 C   0  0  0  0  0  0  0  0  0  0  0  0
   -1.1959    0.6906   -0.0050 C   0  0  0  0  0  0  0  0  0  0  0  0
   -2.0619    1.1825   -0.0163 H   0  0  0  0  0  0  0  0  0  0  0  0
   -1.1993   -0.6948   -0.0000 C   0  0  0  0  0  0  0  0  0  0  0  0
   -2.0774   -1.1905    0.0049 H   0  0  0  0  0  0  0  0  0  0  0  0
   -0.0008   -1.3897    0.0004 C   0  0  0  0  0  0  0  0  0  0  0  0
   -0.0051   -2.3897    0.0001 H   0  0  0  0  0  0  0  0  0  0  0  0
    1.1993   -0.6963    0.0000 C   0  0  0  0  0  0  0  0  0  0  0  0
    2.0809   -1.1964    0.0011 H   0  0  0  0  0  0  0  0  0  0  0  0
    1.1963    0.6904   -0.0002 C   0  0  0  0  0  0  0  0  0  0  0  0
    2.0647    1.1876   -0.0050 H   0  0  0  0  0  0  0  0  0  0  0  0
  1  5  1  0
  5  8  1  0
  1  2  1  0
  1  3  1  0
  1  4  1  0
  5  6  1  0
  5  7  1  0
  8  9  1  0
  8 10  1  0
  8 11  1  0
 12 16  1  0
 16 17  2  0
 17 19  1  0
 19 21  2  0
 21 23  1  0
 23 25  2  0
 25 16  1  0
 12 13  1  0
 12 14  1  0
 12 15  1  0
 17 18  1  0
 19 20  1  0
 21 22  1  0
 23 24  1  0
 25 26  1  0
M  CHG  1   8   1
M  END
>  <PDB_ID>  (1941) 
pdb4fke

>  <RESIDUE_NAME>  (1941) 
LYS   PHE

>  <FRAG_NAME>  (1941) 
ETAM   MBZ

>  <FRAG_ATOM_NUM>  (1941) 
fragi: 11  fragj: 15

>  <atom.prop.CHAIN_ID>  (1941) 
A A A A A A A A A A A Z Z Z Z Z Z Z Z Z Z Z Z Z Z Z

>  <atom.prop.IS_HEAVY_ATOM>  (1941) 
1 0 0 0 1 0 0 1 0 0 0 1 0 0 0 1 1 0 1 0 1 0 1 0 1 0

>  <DIFUSE_FUNC_ATOM>  (1941) 
n/a

>  <FINAL_SINGLE_POINT_ENERGY>  (1941) 
0

>  <NONCOV_INTER_ENERGY_QM>  (1941) 
0

>  <FF_Energy>  (1941) 
0.42

>  <QM_Energy>  (1941) 
-4.67

>  <source>  (1941) 
ETAM_MBZ

>  <Index>  (1941) 
19959

$$$$
ETAM-pdb3ic9-C-LYS-52:MBZ-pdb3ic9-C-PHE-351
     RDKit          3D

 26 25  0  0  0  0  0  0  0  0999 V2000
    2.2735    1.6966    3.6538 C   0  0  0  0  0  0  0  0  0  0  0  0
    1.7305    2.4206    3.2154 H   0  0  0  0  0  0  0  0  0  0  0  0
    2.8758    2.1181    4.3395 H   0  0  0  0  0  0  0  0  0  0  0  0
    1.5754    1.0547    4.1911 H   0  0  0  0  0  0  0  0  0  0  0  0
    3.0750    0.9821    2.6458 C   0  0  0  0  0  0  0  0  0  0  0  0
    3.4199    0.1205    3.0200 H   0  0  0  0  0  0  0  0  0  0  0  0
    2.5240    0.7913    1.8319 H   0  0  0  0  0  0  0  0  0  0  0  0
    4.2498    1.8169    2.2316 N   0  0  0  0  0  4  0  0  0  0  0  0
    4.9802    1.7076    2.9032 H   0  0  0  0  0  0  0  0  0  0  0  0
    4.5656    1.5136    1.3350 H   0  0  0  0  0  0  0  0  0  0  0  0
    3.9703    2.7735    2.1871 H   0  0  0  0  0  0  0  0  0  0  0  0
    0.0061    2.9059   -0.0009 C   0  0  0  0  0  0  0  0  0  0  0  0
    0.8896    3.2125    0.3163 H   0  0  0  0  0  0  0  0  0  0  0  0
   -0.7203    3.2203    0.5902 H   0  0  0  0  0  0  0  0  0  0  0  0
   -0.1599    3.3406   -0.9866 H   0  0  0  0  0  0  0  0  0  0  0  0
   -0.0000    1.4081    0.0027 C   0  0  0  0  0  0  0  0  0  0  0  0
   -1.1995    0.7046    0.0077 C   0  0  0  0  0  0  0  0  0  0  0  0
   -2.0653    1.1948    0.0153 H   0  0  0  0  0  0  0  0  0  0  0  0
   -1.2127   -0.6969    0.0000 C   0  0  0  0  0  0  0  0  0  0  0  0
   -2.0865   -1.1845   -0.0091 H   0  0  0  0  0  0  0  0  0  0  0  0
   -0.0024   -1.4030    0.0073 C   0  0  0  0  0  0  0  0  0  0  0  0
   -0.0114   -2.3990    0.0177 H   0  0  0  0  0  0  0  0  0  0  0  0
    1.2127   -0.7082   -0.0000 C   0  0  0  0  0  0  0  0  0  0  0  0
    2.0865   -1.2015    0.0092 H   0  0  0  0  0  0  0  0  0  0  0  0
    1.2020    0.6954   -0.0177 C   0  0  0  0  0  0  0  0  0  0  0  0
    2.0691    1.1898   -0.0461 H   0  0  0  0  0  0  0  0  0  0  0  0
  1  5  1  0
  5  8  1  0
  1  2  1  0
  1  3  1  0
  1  4  1  0
  5  6  1  0
  5  7  1  0
  8  9  1  0
  8 10  1  0
  8 11  1  0
 12 16  1  0
 16 17  2  0
 17 19  1  0
 19 21  2  0
 21 23  1  0
 23 25  2  0
 25 16  1  0
 12 13  1  0
 12 14  1  0
 12 15  1  0
 17 18  1  0
 19 20  1  0
 21 22  1  0
 23 24  1  0
 25 26  1  0
M  CHG  1   8   1
M  END
>  <PDB_ID>  (1942) 
pdb3ic9

>  <RESIDUE_NAME>  (1942) 
LYS   PHE

>  <FRAG_NAME>  (1942) 
ETAM   MBZ

>  <FRAG_ATOM_NUM>  (1942) 
fragi: 11  fragj: 15

>  <atom.prop.CHAIN_ID>  (1942) 
A A A A A A A A A A A Z Z Z Z Z Z Z Z Z Z Z Z Z Z Z

>  <atom.prop.IS_HEAVY_ATOM>  (1942) 
1 0 0 0 1 0 0 1 0 0 0 1 0 0 0 1 1 0 1 0 1 0 1 0 1 0

>  <DIFUSE_FUNC_ATOM>  (1942) 
n/a

>  <FINAL_SINGLE_POINT_ENERGY>  (1942) 
0

>  <NONCOV_INTER_ENERGY_QM>  (1942) 
0

>  <FF_Energy>  (1942) 
3.34

>  <QM_Energy>  (1942) 
-3.5

>  <source>  (1942) 
ETAM_MBZ

>  <Index>  (1942) 
19974

$$$$
ETAM-pdb4fml-B-LYS-192:MBZ-pdb4fml-B-PHE-145
     RDKit          3D

 26 25  0  0  0  0  0  0  0  0999 V2000
   -1.3324    0.3736    4.2665 C   0  0  0  0  0  0  0  0  0  0  0  0
   -1.1414    0.5969    5.1911 H   0  0  0  0  0  0  0  0  0  0  0  0
   -1.8349   -0.4550    4.2212 H   0  0  0  0  0  0  0  0  0  0  0  0
   -1.9256    1.1734    3.8232 H   0  0  0  0  0  0  0  0  0  0  0  0
    0.0107    0.1567    3.5418 C   0  0  0  0  0  0  0  0  0  0  0  0
   -0.1349    0.0774    2.5864 H   0  0  0  0  0  0  0  0  0  0  0  0
    0.6192    0.8843    3.7432 H   0  0  0  0  0  0  0  0  0  0  0  0
    0.5850   -1.1077    4.0499 N   0  0  0  0  0  4  0  0  0  0  0  0
    1.3654   -1.2684    3.6533 H   0  0  0  0  0  0  0  0  0  0  0  0
    0.7141   -1.0515    4.9287 H   0  0  0  0  0  0  0  0  0  0  0  0
    0.0307   -1.7826    3.8816 H   0  0  0  0  0  0  0  0  0  0  0  0
   -0.0103    2.9573    0.0807 C   0  0  0  0  0  0  0  0  0  0  0  0
    0.8731    3.2387    0.3672 H   0  0  0  0  0  0  0  0  0  0  0  0
   -0.6695    3.2176    0.7426 H   0  0  0  0  0  0  0  0  0  0  0  0
   -0.2467    3.4503   -0.8623 H   0  0  0  0  0  0  0  0  0  0  0  0
   -0.0096    1.4293   -0.0021 C   0  0  0  0  0  0  0  0  0  0  0  0
   -1.2236    0.7286    0.0153 C   0  0  0  0  0  0  0  0  0  0  0  0
   -2.0293    1.1935    0.0172 H   0  0  0  0  0  0  0  0  0  0  0  0
   -1.2223   -0.7243    0.0000 C   0  0  0  0  0  0  0  0  0  0  0  0
   -2.0256   -1.1930   -0.0295 H   0  0  0  0  0  0  0  0  0  0  0  0
    0.0156   -1.4202   -0.0498 C   0  0  0  0  0  0  0  0  0  0  0  0
    0.0227   -2.3507   -0.0497 H   0  0  0  0  0  0  0  0  0  0  0  0
    1.2223   -0.7172   -0.0000 C   0  0  0  0  0  0  0  0  0  0  0  0
    2.0294   -1.1792   -0.0108 H   0  0  0  0  0  0  0  0  0  0  0  0
    1.2176    0.7039    0.0366 C   0  0  0  0  0  0  0  0  0  0  0  0
    2.0248    1.1660    0.0365 H   0  0  0  0  0  0  0  0  0  0  0  0
  1  5  1  0
  5  8  1  0
  1  2  1  0
  1  3  1  0
  1  4  1  0
  5  6  1  0
  5  7  1  0
  8  9  1  0
  8 10  1  0
  8 11  1  0
 12 16  1  0
 16 17  2  0
 17 19  1  0
 19 21  2  0
 21 23  1  0
 23 25  2  0
 25 16  1  0
 12 13  1  0
 12 14  1  0
 12 15  1  0
 17 18  1  0
 19 20  1  0
 21 22  1  0
 23 24  1  0
 25 26  1  0
M  CHG  1   8   1
M  END
>  <PDB_ID>  (1943) 
pdb4fml

>  <RESIDUE_NAME>  (1943) 
LYS   PHE

>  <FRAG_NAME>  (1943) 
ETAM   MBZ

>  <FRAG_ATOM_NUM>  (1943) 
fragi: 11  fragj: 15

>  <atom.prop.CHAIN_ID>  (1943) 
A A A A A A A A A A A Z Z Z Z Z Z Z Z Z Z Z Z Z Z Z

>  <atom.prop.IS_HEAVY_ATOM>  (1943) 
1 0 0 0 1 0 0 1 0 0 0 1 0 0 0 1 1 0 1 0 1 0 1 0 1 0

>  <DIFUSE_FUNC_ATOM>  (1943) 
n/a

>  <FINAL_SINGLE_POINT_ENERGY>  (1943) 
0

>  <NONCOV_INTER_ENERGY_QM>  (1943) 
0

>  <FF_Energy>  (1943) 
-5.81

>  <QM_Energy>  (1943) 
-11.26

>  <source>  (1943) 
ETAM_MBZ

>  <Index>  (1943) 
19982

$$$$
ETAM-pdb3iji-A-LYS-200:MBZ-pdb3iji-A-PHE-61
     RDKit          3D

 26 25  0  0  0  0  0  0  0  0999 V2000
   -2.1936   -3.9083    4.7740 C   0  0  0  0  0  0  0  0  0  0  0  0
   -2.7632   -3.1238    4.9681 H   0  0  0  0  0  0  0  0  0  0  0  0
   -1.2495   -3.7362    5.0117 H   0  0  0  0  0  0  0  0  0  0  0  0
   -2.5558   -4.7615    5.3476 H   0  0  0  0  0  0  0  0  0  0  0  0
   -2.2720   -4.2094    3.2814 C   0  0  0  0  0  0  0  0  0  0  0  0
   -1.6258   -4.9530    3.0666 H   0  0  0  0  0  0  0  0  0  0  0  0
   -3.2031   -4.5308    3.0651 H   0  0  0  0  0  0  0  0  0  0  0  0
   -1.9544   -3.0282    2.4304 N   0  0  0  0  0  4  0  0  0  0  0  0
   -2.6642   -2.3344    2.5489 H   0  0  0  0  0  0  0  0  0  0  0  0
   -1.0697   -2.6529    2.7028 H   0  0  0  0  0  0  0  0  0  0  0  0
   -1.9186   -3.3107    1.4722 H   0  0  0  0  0  0  0  0  0  0  0  0
    0.0056    2.8994    0.0083 C   0  0  0  0  0  0  0  0  0  0  0  0
   -0.6073    3.2142   -0.7028 H   0  0  0  0  0  0  0  0  0  0  0  0
    0.9321    3.2068   -0.1576 H   0  0  0  0  0  0  0  0  0  0  0  0
   -0.3253    3.3395    0.9490 H   0  0  0  0  0  0  0  0  0  0  0  0
    0.0011    1.4024   -0.0001 C   0  0  0  0  0  0  0  0  0  0  0  0
   -1.1990    0.6952    0.0002 C   0  0  0  0  0  0  0  0  0  0  0  0
   -2.0644    1.1845   -0.0004 H   0  0  0  0  0  0  0  0  0  0  0  0
   -1.2041   -0.7002   -0.0000 C   0  0  0  0  0  0  0  0  0  0  0  0
   -2.0792   -1.1925    0.0004 H   0  0  0  0  0  0  0  0  0  0  0  0
   -0.0001   -1.3957    0.0007 C   0  0  0  0  0  0  0  0  0  0  0  0
   -0.0019   -2.3932    0.0012 H   0  0  0  0  0  0  0  0  0  0  0  0
    1.2041   -0.6961    0.0000 C   0  0  0  0  0  0  0  0  0  0  0  0
    2.0834   -1.1944    0.0014 H   0  0  0  0  0  0  0  0  0  0  0  0
    1.1980    0.6944   -0.0008 C   0  0  0  0  0  0  0  0  0  0  0  0
    2.0663    1.1916   -0.0030 H   0  0  0  0  0  0  0  0  0  0  0  0
  1  5  1  0
  5  8  1  0
  1  2  1  0
  1  3  1  0
  1  4  1  0
  5  6  1  0
  5  7  1  0
  8  9  1  0
  8 10  1  0
  8 11  1  0
 12 16  1  0
 16 17  2  0
 17 19  1  0
 19 21  2  0
 21 23  1  0
 23 25  2  0
 25 16  1  0
 12 13  1  0
 12 14  1  0
 12 15  1  0
 17 18  1  0
 19 20  1  0
 21 22  1  0
 23 24  1  0
 25 26  1  0
M  CHG  1   8   1
M  END
>  <PDB_ID>  (1944) 
pdb3iji

>  <RESIDUE_NAME>  (1944) 
LYS   PHE

>  <FRAG_NAME>  (1944) 
ETAM   MBZ

>  <FRAG_ATOM_NUM>  (1944) 
fragi: 11  fragj: 15

>  <atom.prop.CHAIN_ID>  (1944) 
A A A A A A A A A A A Z Z Z Z Z Z Z Z Z Z Z Z Z Z Z

>  <atom.prop.IS_HEAVY_ATOM>  (1944) 
1 0 0 0 1 0 0 1 0 0 0 1 0 0 0 1 1 0 1 0 1 0 1 0 1 0

>  <DIFUSE_FUNC_ATOM>  (1944) 
n/a

>  <FINAL_SINGLE_POINT_ENERGY>  (1944) 
0

>  <NONCOV_INTER_ENERGY_QM>  (1944) 
0

>  <FF_Energy>  (1944) 
-1.1

>  <QM_Energy>  (1944) 
-6.98

>  <source>  (1944) 
ETAM_MBZ

>  <Index>  (1944) 
19983

$$$$
ETAM-pdb4fm4-A-LYS-118:MBZ-pdb4fm4-B-PHE-69
     RDKit          3D

 26 25  0  0  0  0  0  0  0  0999 V2000
    2.4055   -3.2584   -3.9939 C   0  0  0  0  0  0  0  0  0  0  0  0
    3.3461   -3.3792   -3.6880 H   0  0  0  0  0  0  0  0  0  0  0  0
    2.1472   -2.2975   -3.9359 H   0  0  0  0  0  0  0  0  0  0  0  0
    2.3435   -3.5679   -5.0372 H   0  0  0  0  0  0  0  0  0  0  0  0
    1.4881   -4.0690   -3.0983 C   0  0  0  0  0  0  0  0  0  0  0  0
    0.5399   -3.8329   -3.3100 H   0  0  0  0  0  0  0  0  0  0  0  0
    1.6381   -5.0407   -3.2783 H   0  0  0  0  0  0  0  0  0  0  0  0
    1.7678   -3.7769   -1.6851 N   0  0  0  0  0  4  0  0  0  0  0  0
    0.9302   -3.4696   -1.2281 H   0  0  0  0  0  0  0  0  0  0  0  0
    2.1073   -4.6021   -1.2272 H   0  0  0  0  0  0  0  0  0  0  0  0
    2.4611   -3.0557   -1.6173 H   0  0  0  0  0  0  0  0  0  0  0  0
   -0.0069    2.8957   -0.0290 C   0  0  0  0  0  0  0  0  0  0  0  0
    0.8713    3.2098    0.2851 H   0  0  0  0  0  0  0  0  0  0  0  0
   -0.7397    3.2103    0.5486 H   0  0  0  0  0  0  0  0  0  0  0  0
   -0.1703    3.2922   -1.0311 H   0  0  0  0  0  0  0  0  0  0  0  0
   -0.0021    1.3930    0.0057 C   0  0  0  0  0  0  0  0  0  0  0  0
   -1.2021    0.6866   -0.0054 C   0  0  0  0  0  0  0  0  0  0  0  0
   -2.0655    1.1803   -0.0189 H   0  0  0  0  0  0  0  0  0  0  0  0
   -1.2031   -0.6960   -0.0000 C   0  0  0  0  0  0  0  0  0  0  0  0
   -2.0749   -1.1968    0.0023 H   0  0  0  0  0  0  0  0  0  0  0  0
    0.0027   -1.3858    0.0040 C   0  0  0  0  0  0  0  0  0  0  0  0
    0.0033   -2.3855    0.0095 H   0  0  0  0  0  0  0  0  0  0  0  0
    1.2031   -0.6857    0.0000 C   0  0  0  0  0  0  0  0  0  0  0  0
    2.0837   -1.1925    0.0020 H   0  0  0  0  0  0  0  0  0  0  0  0
    1.2015    0.6879   -0.0043 C   0  0  0  0  0  0  0  0  0  0  0  0
    2.0635    1.1941   -0.0150 H   0  0  0  0  0  0  0  0  0  0  0  0
  1  5  1  0
  5  8  1  0
  1  2  1  0
  1  3  1  0
  1  4  1  0
  5  6  1  0
  5  7  1  0
  8  9  1  0
  8 10  1  0
  8 11  1  0
 12 16  1  0
 16 17  2  0
 17 19  1  0
 19 21  2  0
 21 23  1  0
 23 25  2  0
 25 16  1  0
 12 13  1  0
 12 14  1  0
 12 15  1  0
 17 18  1  0
 19 20  1  0
 21 22  1  0
 23 24  1  0
 25 26  1  0
M  CHG  1   8   1
M  END
>  <PDB_ID>  (1945) 
pdb4fm4

>  <RESIDUE_NAME>  (1945) 
LYS   PHE

>  <FRAG_NAME>  (1945) 
ETAM   MBZ

>  <FRAG_ATOM_NUM>  (1945) 
fragi: 11  fragj: 15

>  <atom.prop.CHAIN_ID>  (1945) 
A A A A A A A A A A A Z Z Z Z Z Z Z Z Z Z Z Z Z Z Z

>  <atom.prop.IS_HEAVY_ATOM>  (1945) 
1 0 0 0 1 0 0 1 0 0 0 1 0 0 0 1 1 0 1 0 1 0 1 0 1 0

>  <DIFUSE_FUNC_ATOM>  (1945) 
n/a

>  <FINAL_SINGLE_POINT_ENERGY>  (1945) 
0

>  <NONCOV_INTER_ENERGY_QM>  (1945) 
0

>  <FF_Energy>  (1945) 
0.46

>  <QM_Energy>  (1945) 
-6.13

>  <source>  (1945) 
ETAM_MBZ

>  <Index>  (1945) 
19987

$$$$
ETAM-pdb4fm4-C-LYS-118:MBZ-pdb4fm4-D-PHE-69
     RDKit          3D

 26 25  0  0  0  0  0  0  0  0999 V2000
    2.1726   -3.2434   -4.4066 C   0  0  0  0  0  0  0  0  0  0  0  0
    3.1361   -3.2348   -4.1246 H   0  0  0  0  0  0  0  0  0  0  0  0
    1.8202   -2.3034   -4.3900 H   0  0  0  0  0  0  0  0  0  0  0  0
    2.1151   -3.6174   -5.4288 H   0  0  0  0  0  0  0  0  0  0  0  0
    1.3869   -4.0727   -3.4208 C   0  0  0  0  0  0  0  0  0  0  0  0
    0.4194   -3.9225   -3.5634 H   0  0  0  0  0  0  0  0  0  0  0  0
    1.6202   -5.0277   -3.5346 H   0  0  0  0  0  0  0  0  0  0  0  0
    1.7587   -3.6332   -2.0556 N   0  0  0  0  0  4  0  0  0  0  0  0
    1.4334   -4.3038   -1.3881 H   0  0  0  0  0  0  0  0  0  0  0  0
    2.7537   -3.5533   -1.9889 H   0  0  0  0  0  0  0  0  0  0  0  0
    1.3403   -2.7446   -1.8644 H   0  0  0  0  0  0  0  0  0  0  0  0
   -0.0133    2.9010   -0.0148 C   0  0  0  0  0  0  0  0  0  0  0  0
    0.8908    3.2178    0.2224 H   0  0  0  0  0  0  0  0  0  0  0  0
   -0.6900    3.2138    0.6320 H   0  0  0  0  0  0  0  0  0  0  0  0
   -0.2664    3.3229   -0.9874 H   0  0  0  0  0  0  0  0  0  0  0  0
   -0.0060    1.4030   -0.0001 C   0  0  0  0  0  0  0  0  0  0  0  0
   -1.2055    0.6955   -0.0042 C   0  0  0  0  0  0  0  0  0  0  0  0
   -2.0701    1.1867   -0.0109 H   0  0  0  0  0  0  0  0  0  0  0  0
   -1.2105   -0.6958   -0.0000 C   0  0  0  0  0  0  0  0  0  0  0  0
   -2.0772   -1.1966    0.0053 H   0  0  0  0  0  0  0  0  0  0  0  0
    0.0118   -1.4016   -0.0012 C   0  0  0  0  0  0  0  0  0  0  0  0
    0.0023   -2.3938   -0.0034 H   0  0  0  0  0  0  0  0  0  0  0  0
    1.2105   -0.6965    0.0000 C   0  0  0  0  0  0  0  0  0  0  0  0
    2.0943   -1.1905   -0.0017 H   0  0  0  0  0  0  0  0  0  0  0  0
    1.1997    0.6954    0.0055 C   0  0  0  0  0  0  0  0  0  0  0  0
    2.0633    1.1977    0.0131 H   0  0  0  0  0  0  0  0  0  0  0  0
  1  5  1  0
  5  8  1  0
  1  2  1  0
  1  3  1  0
  1  4  1  0
  5  6  1  0
  5  7  1  0
  8  9  1  0
  8 10  1  0
  8 11  1  0
 12 16  1  0
 16 17  2  0
 17 19  1  0
 19 21  2  0
 21 23  1  0
 23 25  2  0
 25 16  1  0
 12 13  1  0
 12 14  1  0
 12 15  1  0
 17 18  1  0
 19 20  1  0
 21 22  1  0
 23 24  1  0
 25 26  1  0
M  CHG  1   8   1
M  END
>  <PDB_ID>  (1946) 
pdb4fm4

>  <RESIDUE_NAME>  (1946) 
LYS   PHE

>  <FRAG_NAME>  (1946) 
ETAM   MBZ

>  <FRAG_ATOM_NUM>  (1946) 
fragi: 11  fragj: 15

>  <atom.prop.CHAIN_ID>  (1946) 
A A A A A A A A A A A Z Z Z Z Z Z Z Z Z Z Z Z Z Z Z

>  <atom.prop.IS_HEAVY_ATOM>  (1946) 
1 0 0 0 1 0 0 1 0 0 0 1 0 0 0 1 1 0 1 0 1 0 1 0 1 0

>  <DIFUSE_FUNC_ATOM>  (1946) 
n/a

>  <FINAL_SINGLE_POINT_ENERGY>  (1946) 
0

>  <NONCOV_INTER_ENERGY_QM>  (1946) 
0

>  <FF_Energy>  (1946) 
-0.75

>  <QM_Energy>  (1946) 
-7.49

>  <source>  (1946) 
ETAM_MBZ

>  <Index>  (1946) 
19990

$$$$
ETAM-pdb3ihx-A-LYS-42:MBZ-pdb3ihx-C-PHE-35
     RDKit          3D

 26 25  0  0  0  0  0  0  0  0999 V2000
    2.9306   -5.9002    0.2233 C   0  0  0  0  0  0  0  0  0  0  0  0
    3.8658   -5.7229    0.5011 H   0  0  0  0  0  0  0  0  0  0  0  0
    2.7281   -5.4549   -0.6391 H   0  0  0  0  0  0  0  0  0  0  0  0
    2.8171   -6.9754    0.0849 H   0  0  0  0  0  0  0  0  0  0  0  0
    1.9805   -5.3465    1.3008 C   0  0  0  0  0  0  0  0  0  0  0  0
    1.0542   -5.6611    1.0960 H   0  0  0  0  0  0  0  0  0  0  0  0
    2.2669   -5.7074    2.1880 H   0  0  0  0  0  0  0  0  0  0  0  0
    2.0116   -3.8670    1.3283 N   0  0  0  0  0  4  0  0  0  0  0  0
    1.1983   -3.5225    1.7997 H   0  0  0  0  0  0  0  0  0  0  0  0
    2.8314   -3.5571    1.8120 H   0  0  0  0  0  0  0  0  0  0  0  0
    2.0264   -3.5141    0.3915 H   0  0  0  0  0  0  0  0  0  0  0  0
    0.0258    2.9235   -0.0242 C   0  0  0  0  0  0  0  0  0  0  0  0
   -0.6369    3.2267   -0.6956 H   0  0  0  0  0  0  0  0  0  0  0  0
    0.9417    3.2085   -0.2750 H   0  0  0  0  0  0  0  0  0  0  0  0
   -0.2221    3.3957    0.9265 H   0  0  0  0  0  0  0  0  0  0  0  0
    0.0013    1.4164    0.0014 C   0  0  0  0  0  0  0  0  0  0  0  0
   -1.1925    0.7229    0.0014 C   0  0  0  0  0  0  0  0  0  0  0  0
   -2.0625    1.1959    0.0010 H   0  0  0  0  0  0  0  0  0  0  0  0
   -1.2081   -0.7104    0.0000 C   0  0  0  0  0  0  0  0  0  0  0  0
   -2.0862   -1.1817    0.0022 H   0  0  0  0  0  0  0  0  0  0  0  0
    0.0009   -1.4199   -0.0029 C   0  0  0  0  0  0  0  0  0  0  0  0
    0.0002   -2.4082   -0.0070 H   0  0  0  0  0  0  0  0  0  0  0  0
    1.2081   -0.7038    0.0000 C   0  0  0  0  0  0  0  0  0  0  0  0
    2.0892   -1.1938    0.0039 H   0  0  0  0  0  0  0  0  0  0  0  0
    1.1904    0.6948    0.0000 C   0  0  0  0  0  0  0  0  0  0  0  0
    2.0661    1.1910   -0.0019 H   0  0  0  0  0  0  0  0  0  0  0  0
  1  5  1  0
  5  8  1  0
  1  2  1  0
  1  3  1  0
  1  4  1  0
  5  6  1  0
  5  7  1  0
  8  9  1  0
  8 10  1  0
  8 11  1  0
 12 16  1  0
 16 17  2  0
 17 19  1  0
 19 21  2  0
 21 23  1  0
 23 25  2  0
 25 16  1  0
 12 13  1  0
 12 14  1  0
 12 15  1  0
 17 18  1  0
 19 20  1  0
 21 22  1  0
 23 24  1  0
 25 26  1  0
M  CHG  1   8   1
M  END
>  <PDB_ID>  (1947) 
pdb3ihx

>  <RESIDUE_NAME>  (1947) 
LYS   PHE

>  <FRAG_NAME>  (1947) 
ETAM   MBZ

>  <FRAG_ATOM_NUM>  (1947) 
fragi: 11  fragj: 15

>  <atom.prop.CHAIN_ID>  (1947) 
A A A A A A A A A A A Z Z Z Z Z Z Z Z Z Z Z Z Z Z Z

>  <atom.prop.IS_HEAVY_ATOM>  (1947) 
1 0 0 0 1 0 0 1 0 0 0 1 0 0 0 1 1 0 1 0 1 0 1 0 1 0

>  <DIFUSE_FUNC_ATOM>  (1947) 
n/a

>  <FINAL_SINGLE_POINT_ENERGY>  (1947) 
0

>  <NONCOV_INTER_ENERGY_QM>  (1947) 
0

>  <FF_Energy>  (1947) 
0.74

>  <QM_Energy>  (1947) 
-5.17

>  <source>  (1947) 
ETAM_MBZ

>  <Index>  (1947) 
19991

$$$$
ETAM-pdb4fm4-E-LYS-51:MBZ-pdb4fm4-E-PHE-58
     RDKit          3D

 26 25  0  0  0  0  0  0  0  0999 V2000
   -0.0979    0.3638   -3.2097 C   0  0  0  0  0  0  0  0  0  0  0  0
   -0.1406   -0.4607   -3.7678 H   0  0  0  0  0  0  0  0  0  0  0  0
   -0.0549    0.1217   -2.2443 H   0  0  0  0  0  0  0  0  0  0  0  0
    0.7962    0.9274   -3.4762 H   0  0  0  0  0  0  0  0  0  0  0  0
   -1.3565    1.1733   -3.4470 C   0  0  0  0  0  0  0  0  0  0  0  0
   -2.1452    0.6706   -3.0859 H   0  0  0  0  0  0  0  0  0  0  0  0
   -1.2815    2.0495   -2.9657 H   0  0  0  0  0  0  0  0  0  0  0  0
   -1.5788    1.4402   -4.9046 N   0  0  0  0  0  4  0  0  0  0  0  0
   -2.5499    1.6085   -5.0607 H   0  0  0  0  0  0  0  0  0  0  0  0
   -1.0483    2.2411   -5.1738 H   0  0  0  0  0  0  0  0  0  0  0  0
   -1.2842    0.6457   -5.4308 H   0  0  0  0  0  0  0  0  0  0  0  0
    0.0008    2.9113    0.0061 C   0  0  0  0  0  0  0  0  0  0  0  0
   -0.7581    3.2238   -0.5360 H   0  0  0  0  0  0  0  0  0  0  0  0
    0.8640    3.2204   -0.3502 H   0  0  0  0  0  0  0  0  0  0  0  0
   -0.1130    3.3221    1.0093 H   0  0  0  0  0  0  0  0  0  0  0  0
   -0.0002    1.4039   -0.0134 C   0  0  0  0  0  0  0  0  0  0  0  0
   -1.1978    0.6931    0.0100 C   0  0  0  0  0  0  0  0  0  0  0  0
   -2.0635    1.1851    0.0329 H   0  0  0  0  0  0  0  0  0  0  0  0
   -1.2044   -0.6966   -0.0000 C   0  0  0  0  0  0  0  0  0  0  0  0
   -2.0787   -1.1916   -0.0057 H   0  0  0  0  0  0  0  0  0  0  0  0
    0.0022   -1.3989   -0.0003 C   0  0  0  0  0  0  0  0  0  0  0  0
   -0.0024   -2.3934   -0.0007 H   0  0  0  0  0  0  0  0  0  0  0  0
    1.2044   -0.6964   -0.0000 C   0  0  0  0  0  0  0  0  0  0  0  0
    2.0865   -1.1924   -0.0012 H   0  0  0  0  0  0  0  0  0  0  0  0
    1.1958    0.6949    0.0037 C   0  0  0  0  0  0  0  0  0  0  0  0
    2.0650    1.1929    0.0181 H   0  0  0  0  0  0  0  0  0  0  0  0
  1  5  1  0
  5  8  1  0
  1  2  1  0
  1  3  1  0
  1  4  1  0
  5  6  1  0
  5  7  1  0
  8  9  1  0
  8 10  1  0
  8 11  1  0
 12 16  1  0
 16 17  2  0
 17 19  1  0
 19 21  2  0
 21 23  1  0
 23 25  2  0
 25 16  1  0
 12 13  1  0
 12 14  1  0
 12 15  1  0
 17 18  1  0
 19 20  1  0
 21 22  1  0
 23 24  1  0
 25 26  1  0
M  CHG  1   8   1
M  END
>  <PDB_ID>  (1948) 
pdb4fm4

>  <RESIDUE_NAME>  (1948) 
LYS   PHE

>  <FRAG_NAME>  (1948) 
ETAM   MBZ

>  <FRAG_ATOM_NUM>  (1948) 
fragi: 11  fragj: 15

>  <atom.prop.CHAIN_ID>  (1948) 
A A A A A A A A A A A Z Z Z Z Z Z Z Z Z Z Z Z Z Z Z

>  <atom.prop.IS_HEAVY_ATOM>  (1948) 
1 0 0 0 1 0 0 1 0 0 0 1 0 0 0 1 1 0 1 0 1 0 1 0 1 0

>  <DIFUSE_FUNC_ATOM>  (1948) 
n/a

>  <FINAL_SINGLE_POINT_ENERGY>  (1948) 
0

>  <NONCOV_INTER_ENERGY_QM>  (1948) 
0

>  <FF_Energy>  (1948) 
-2.29

>  <QM_Energy>  (1948) 
-7.98

>  <source>  (1948) 
ETAM_MBZ

>  <Index>  (1948) 
19992

$$$$
ETAM-pdb4fm4-E-LYS-118:MBZ-pdb4fm4-F-PHE-69
     RDKit          3D

 26 25  0  0  0  0  0  0  0  0999 V2000
    1.9057   -3.2864   -4.4497 C   0  0  0  0  0  0  0  0  0  0  0  0
    2.8617   -3.1069   -4.2109 H   0  0  0  0  0  0  0  0  0  0  0  0
    1.3998   -2.4226   -4.4588 H   0  0  0  0  0  0  0  0  0  0  0  0
    1.8771   -3.7120   -5.4528 H   0  0  0  0  0  0  0  0  0  0  0  0
    1.3028   -4.1945   -3.4011 C   0  0  0  0  0  0  0  0  0  0  0  0
    0.3181   -4.2550   -3.5463 H   0  0  0  0  0  0  0  0  0  0  0  0
    1.7130   -5.1007   -3.4761 H   0  0  0  0  0  0  0  0  0  0  0  0
    1.5657   -3.6489   -2.0442 N   0  0  0  0  0  4  0  0  0  0  0  0
    1.7591   -4.4014   -1.4143 H   0  0  0  0  0  0  0  0  0  0  0  0
    2.3521   -3.0328   -2.0798 H   0  0  0  0  0  0  0  0  0  0  0  0
    0.7620   -3.1460   -1.7258 H   0  0  0  0  0  0  0  0  0  0  0  0
   -0.0025    2.8933   -0.0114 C   0  0  0  0  0  0  0  0  0  0  0  0
    0.8930    3.2065    0.2590 H   0  0  0  0  0  0  0  0  0  0  0  0
   -0.7021    3.2092    0.6092 H   0  0  0  0  0  0  0  0  0  0  0  0
   -0.2177    3.3131   -0.9940 H   0  0  0  0  0  0  0  0  0  0  0  0
   -0.0020    1.4000    0.0012 C   0  0  0  0  0  0  0  0  0  0  0  0
   -1.2043    0.6984   -0.0012 C   0  0  0  0  0  0  0  0  0  0  0  0
   -2.0660    1.1923   -0.0051 H   0  0  0  0  0  0  0  0  0  0  0  0
   -1.2101   -0.6898   -0.0000 C   0  0  0  0  0  0  0  0  0  0  0  0
   -2.0821   -1.1886    0.0037 H   0  0  0  0  0  0  0  0  0  0  0  0
    0.0027   -1.3948   -0.0023 C   0  0  0  0  0  0  0  0  0  0  0  0
   -0.0069   -2.3906   -0.0057 H   0  0  0  0  0  0  0  0  0  0  0  0
    1.2101   -0.6982    0.0000 C   0  0  0  0  0  0  0  0  0  0  0  0
    2.0872   -1.2017    0.0013 H   0  0  0  0  0  0  0  0  0  0  0  0
    1.2037    0.6844    0.0024 C   0  0  0  0  0  0  0  0  0  0  0  0
    2.0675    1.1888    0.0046 H   0  0  0  0  0  0  0  0  0  0  0  0
  1  5  1  0
  5  8  1  0
  1  2  1  0
  1  3  1  0
  1  4  1  0
  5  6  1  0
  5  7  1  0
  8  9  1  0
  8 10  1  0
  8 11  1  0
 12 16  1  0
 16 17  2  0
 17 19  1  0
 19 21  2  0
 21 23  1  0
 23 25  2  0
 25 16  1  0
 12 13  1  0
 12 14  1  0
 12 15  1  0
 17 18  1  0
 19 20  1  0
 21 22  1  0
 23 24  1  0
 25 26  1  0
M  CHG  1   8   1
M  END
>  <PDB_ID>  (1949) 
pdb4fm4

>  <RESIDUE_NAME>  (1949) 
LYS   PHE

>  <FRAG_NAME>  (1949) 
ETAM   MBZ

>  <FRAG_ATOM_NUM>  (1949) 
fragi: 11  fragj: 15

>  <atom.prop.CHAIN_ID>  (1949) 
A A A A A A A A A A A Z Z Z Z Z Z Z Z Z Z Z Z Z Z Z

>  <atom.prop.IS_HEAVY_ATOM>  (1949) 
1 0 0 0 1 0 0 1 0 0 0 1 0 0 0 1 1 0 1 0 1 0 1 0 1 0

>  <DIFUSE_FUNC_ATOM>  (1949) 
n/a

>  <FINAL_SINGLE_POINT_ENERGY>  (1949) 
0

>  <NONCOV_INTER_ENERGY_QM>  (1949) 
0

>  <FF_Energy>  (1949) 
-0.36

>  <QM_Energy>  (1949) 
-7.01

>  <source>  (1949) 
ETAM_MBZ

>  <Index>  (1949) 
19993

$$$$
ETAM-pdb4fm4-M-LYS-118:MBZ-pdb4fm4-N-PHE-69
     RDKit          3D

 26 25  0  0  0  0  0  0  0  0999 V2000
    2.2093   -3.2989   -4.1027 C   0  0  0  0  0  0  0  0  0  0  0  0
    3.1793   -3.4097   -3.8889 H   0  0  0  0  0  0  0  0  0  0  0  0
    1.9571   -2.3355   -4.0285 H   0  0  0  0  0  0  0  0  0  0  0  0
    2.0464   -3.6190   -5.1318 H   0  0  0  0  0  0  0  0  0  0  0  0
    1.3933   -4.0965   -3.1068 C   0  0  0  0  0  0  0  0  0  0  0  0
    0.4397   -3.8363   -3.1868 H   0  0  0  0  0  0  0  0  0  0  0  0
    1.5117   -5.0637   -3.2914 H   0  0  0  0  0  0  0  0  0  0  0  0
    1.8812   -3.7859   -1.7507 N   0  0  0  0  0  4  0  0  0  0  0  0
    2.7193   -4.3033   -1.5654 H   0  0  0  0  0  0  0  0  0  0  0  0
    2.0761   -2.8058   -1.6773 H   0  0  0  0  0  0  0  0  0  0  0  0
    1.1847   -4.0348   -1.0750 H   0  0  0  0  0  0  0  0  0  0  0  0
   -0.0137    2.9103   -0.0322 C   0  0  0  0  0  0  0  0  0  0  0  0
    0.8961    3.2247    0.1647 H   0  0  0  0  0  0  0  0  0  0  0  0
   -0.6715    3.2282    0.6243 H   0  0  0  0  0  0  0  0  0  0  0  0
   -0.2990    3.3004   -1.0091 H   0  0  0  0  0  0  0  0  0  0  0  0
   -0.0064    1.4027    0.0067 C   0  0  0  0  0  0  0  0  0  0  0  0
   -1.2107    0.6930   -0.0034 C   0  0  0  0  0  0  0  0  0  0  0  0
   -2.0735    1.1876   -0.0147 H   0  0  0  0  0  0  0  0  0  0  0  0
   -1.2136   -0.6929    0.0000 C   0  0  0  0  0  0  0  0  0  0  0  0
   -2.0771   -1.1989   -0.0005 H   0  0  0  0  0  0  0  0  0  0  0  0
    0.0140   -1.3969    0.0066 C   0  0  0  0  0  0  0  0  0  0  0  0
    0.0013   -2.3914    0.0152 H   0  0  0  0  0  0  0  0  0  0  0  0
    1.2136   -0.6965    0.0000 C   0  0  0  0  0  0  0  0  0  0  0  0
    2.0956   -1.1932    0.0039 H   0  0  0  0  0  0  0  0  0  0  0  0
    1.2032    0.6905   -0.0099 C   0  0  0  0  0  0  0  0  0  0  0  0
    2.0649    1.1967   -0.0298 H   0  0  0  0  0  0  0  0  0  0  0  0
  1  5  1  0
  5  8  1  0
  1  2  1  0
  1  3  1  0
  1  4  1  0
  5  6  1  0
  5  7  1  0
  8  9  1  0
  8 10  1  0
  8 11  1  0
 12 16  1  0
 16 17  2  0
 17 19  1  0
 19 21  2  0
 21 23  1  0
 23 25  2  0
 25 16  1  0
 12 13  1  0
 12 14  1  0
 12 15  1  0
 17 18  1  0
 19 20  1  0
 21 22  1  0
 23 24  1  0
 25 26  1  0
M  CHG  1   8   1
M  END
>  <PDB_ID>  (1950) 
pdb4fm4

>  <RESIDUE_NAME>  (1950) 
LYS   PHE

>  <FRAG_NAME>  (1950) 
ETAM   MBZ

>  <FRAG_ATOM_NUM>  (1950) 
fragi: 11  fragj: 15

>  <atom.prop.CHAIN_ID>  (1950) 
A A A A A A A A A A A Z Z Z Z Z Z Z Z Z Z Z Z Z Z Z

>  <atom.prop.IS_HEAVY_ATOM>  (1950) 
1 0 0 0 1 0 0 1 0 0 0 1 0 0 0 1 1 0 1 0 1 0 1 0 1 0

>  <DIFUSE_FUNC_ATOM>  (1950) 
n/a

>  <FINAL_SINGLE_POINT_ENERGY>  (1950) 
0

>  <NONCOV_INTER_ENERGY_QM>  (1950) 
0

>  <FF_Energy>  (1950) 
-0.03

>  <QM_Energy>  (1950) 
-6.32

>  <source>  (1950) 
ETAM_MBZ

>  <Index>  (1950) 
20001

$$$$
ETAM-pdb4fm4-O-LYS-118:MBZ-pdb4fm4-P-PHE-69
     RDKit          3D

 26 25  0  0  0  0  0  0  0  0999 V2000
    2.2732   -3.2545   -4.1375 C   0  0  0  0  0  0  0  0  0  0  0  0
    3.1676   -3.5742   -3.8421 H   0  0  0  0  0  0  0  0  0  0  0  0
    2.2036   -2.2684   -4.0302 H   0  0  0  0  0  0  0  0  0  0  0  0
    2.1632   -3.4890   -5.1963 H   0  0  0  0  0  0  0  0  0  0  0  0
    1.2036   -3.9218   -3.2937 C   0  0  0  0  0  0  0  0  0  0  0  0
    0.3180   -3.4934   -3.4948 H   0  0  0  0  0  0  0  0  0  0  0  0
    1.1549   -4.8943   -3.5408 H   0  0  0  0  0  0  0  0  0  0  0  0
    1.4929   -3.7968   -1.8499 N   0  0  0  0  0  4  0  0  0  0  0  0
    0.7805   -3.2476   -1.4093 H   0  0  0  0  0  0  0  0  0  0  0  0
    1.5148   -4.7062   -1.4308 H   0  0  0  0  0  0  0  0  0  0  0  0
    2.3802   -3.3521   -1.7215 H   0  0  0  0  0  0  0  0  0  0  0  0
   -0.0249    2.8889   -0.0471 C   0  0  0  0  0  0  0  0  0  0  0  0
    0.8772    3.2172    0.1659 H   0  0  0  0  0  0  0  0  0  0  0  0
   -0.7002    3.2132    0.5892 H   0  0  0  0  0  0  0  0  0  0  0  0
   -0.2913    3.2625   -1.0358 H   0  0  0  0  0  0  0  0  0  0  0  0
   -0.0064    1.3952    0.0072 C   0  0  0  0  0  0  0  0  0  0  0  0
   -1.2113    0.6820   -0.0034 C   0  0  0  0  0  0  0  0  0  0  0  0
   -2.0728    1.1822   -0.0143 H   0  0  0  0  0  0  0  0  0  0  0  0
   -1.2158   -0.6942    0.0000 C   0  0  0  0  0  0  0  0  0  0  0  0
   -2.0777   -1.2042   -0.0002 H   0  0  0  0  0  0  0  0  0  0  0  0
    0.0103   -1.3905    0.0065 C   0  0  0  0  0  0  0  0  0  0  0  0
    0.0052   -2.3871    0.0157 H   0  0  0  0  0  0  0  0  0  0  0  0
    1.2158   -0.6878    0.0000 C   0  0  0  0  0  0  0  0  0  0  0  0
    2.0946   -1.1894    0.0045 H   0  0  0  0  0  0  0  0  0  0  0  0
    1.2075    0.6954   -0.0103 C   0  0  0  0  0  0  0  0  0  0  0  0
    2.0639    1.2036   -0.0314 H   0  0  0  0  0  0  0  0  0  0  0  0
  1  5  1  0
  5  8  1  0
  1  2  1  0
  1  3  1  0
  1  4  1  0
  5  6  1  0
  5  7  1  0
  8  9  1  0
  8 10  1  0
  8 11  1  0
 12 16  1  0
 16 17  2  0
 17 19  1  0
 19 21  2  0
 21 23  1  0
 23 25  2  0
 25 16  1  0
 12 13  1  0
 12 14  1  0
 12 15  1  0
 17 18  1  0
 19 20  1  0
 21 22  1  0
 23 24  1  0
 25 26  1  0
M  CHG  1   8   1
M  END
>  <PDB_ID>  (1951) 
pdb4fm4

>  <RESIDUE_NAME>  (1951) 
LYS   PHE

>  <FRAG_NAME>  (1951) 
ETAM   MBZ

>  <FRAG_ATOM_NUM>  (1951) 
fragi: 11  fragj: 15

>  <atom.prop.CHAIN_ID>  (1951) 
A A A A A A A A A A A Z Z Z Z Z Z Z Z Z Z Z Z Z Z Z

>  <atom.prop.IS_HEAVY_ATOM>  (1951) 
1 0 0 0 1 0 0 1 0 0 0 1 0 0 0 1 1 0 1 0 1 0 1 0 1 0

>  <DIFUSE_FUNC_ATOM>  (1951) 
n/a

>  <FINAL_SINGLE_POINT_ENERGY>  (1951) 
0

>  <NONCOV_INTER_ENERGY_QM>  (1951) 
0

>  <FF_Energy>  (1951) 
0.13

>  <QM_Energy>  (1951) 
-6.9

>  <source>  (1951) 
ETAM_MBZ

>  <Index>  (1951) 
20003

$$$$
ETAM-pdb3ijw-B-LYS-232:MBZ-pdb3ijw-B-PHE-256
     RDKit          3D

 26 25  0  0  0  0  0  0  0  0999 V2000
   -4.5843    0.2020   -2.5427 C   0  0  0  0  0  0  0  0  0  0  0  0
   -3.7222    0.6833   -2.7111 H   0  0  0  0  0  0  0  0  0  0  0  0
   -5.3475    0.8401   -2.6597 H   0  0  0  0  0  0  0  0  0  0  0  0
   -4.6845   -0.6003   -3.2737 H   0  0  0  0  0  0  0  0  0  0  0  0
   -4.5891   -0.3015   -1.1190 C   0  0  0  0  0  0  0  0  0  0  0  0
   -5.4498   -0.7797   -0.9418 H   0  0  0  0  0  0  0  0  0  0  0  0
   -3.8257   -0.9370   -0.9926 H   0  0  0  0  0  0  0  0  0  0  0  0
   -4.4500    0.8245   -0.1620 N   0  0  0  0  0  4  0  0  0  0  0  0
   -3.8942    0.5334    0.6174 H   0  0  0  0  0  0  0  0  0  0  0  0
   -4.0060    1.5967   -0.6178 H   0  0  0  0  0  0  0  0  0  0  0  0
   -5.3550    1.1019    0.1605 H   0  0  0  0  0  0  0  0  0  0  0  0
   -0.0004    2.8884    0.0068 C   0  0  0  0  0  0  0  0  0  0  0  0
   -0.7864    3.2080   -0.4971 H   0  0  0  0  0  0  0  0  0  0  0  0
    0.8440    3.2019   -0.3952 H   0  0  0  0  0  0  0  0  0  0  0  0
   -0.0618    3.2940    1.0167 H   0  0  0  0  0  0  0  0  0  0  0  0
   -0.0041    1.4017   -0.0127 C   0  0  0  0  0  0  0  0  0  0  0  0
   -1.1970    0.7137    0.0057 C   0  0  0  0  0  0  0  0  0  0  0  0
   -2.0638    1.2018    0.0226 H   0  0  0  0  0  0  0  0  0  0  0  0
   -1.2138   -0.6891   -0.0000 C   0  0  0  0  0  0  0  0  0  0  0  0
   -2.0899   -1.1743   -0.0098 H   0  0  0  0  0  0  0  0  0  0  0  0
   -0.0052   -1.4056    0.0107 C   0  0  0  0  0  0  0  0  0  0  0  0
   -0.0193   -2.3987    0.0253 H   0  0  0  0  0  0  0  0  0  0  0  0
    1.2138   -0.7120    0.0000 C   0  0  0  0  0  0  0  0  0  0  0  0
    2.0858   -1.2082   -0.0036 H   0  0  0  0  0  0  0  0  0  0  0  0
    1.2063    0.6913   -0.0037 C   0  0  0  0  0  0  0  0  0  0  0  0
    2.0688    1.1879   -0.0004 H   0  0  0  0  0  0  0  0  0  0  0  0
  1  5  1  0
  5  8  1  0
  1  2  1  0
  1  3  1  0
  1  4  1  0
  5  6  1  0
  5  7  1  0
  8  9  1  0
  8 10  1  0
  8 11  1  0
 12 16  1  0
 16 17  2  0
 17 19  1  0
 19 21  2  0
 21 23  1  0
 23 25  2  0
 25 16  1  0
 12 13  1  0
 12 14  1  0
 12 15  1  0
 17 18  1  0
 19 20  1  0
 21 22  1  0
 23 24  1  0
 25 26  1  0
M  CHG  1   8   1
M  END
>  <PDB_ID>  (1952) 
pdb3ijw

>  <RESIDUE_NAME>  (1952) 
LYS   PHE

>  <FRAG_NAME>  (1952) 
ETAM   MBZ

>  <FRAG_ATOM_NUM>  (1952) 
fragi: 11  fragj: 15

>  <atom.prop.CHAIN_ID>  (1952) 
A A A A A A A A A A A Z Z Z Z Z Z Z Z Z Z Z Z Z Z Z

>  <atom.prop.IS_HEAVY_ATOM>  (1952) 
1 0 0 0 1 0 0 1 0 0 0 1 0 0 0 1 1 0 1 0 1 0 1 0 1 0

>  <DIFUSE_FUNC_ATOM>  (1952) 
n/a

>  <FINAL_SINGLE_POINT_ENERGY>  (1952) 
0

>  <NONCOV_INTER_ENERGY_QM>  (1952) 
0

>  <FF_Energy>  (1952) 
3.45

>  <QM_Energy>  (1952) 
-3.19

>  <source>  (1952) 
ETAM_MBZ

>  <Index>  (1952) 
20006

$$$$
ETAM-pdb3ik4-A-LYS-209:MBZ-pdb3ik4-A-PHE-239
     RDKit          3D

 26 25  0  0  0  0  0  0  0  0999 V2000
   -2.1694   -3.1694    4.4511 C   0  0  0  0  0  0  0  0  0  0  0  0
   -2.9569   -2.7771    3.9826 H   0  0  0  0  0  0  0  0  0  0  0  0
   -2.4327   -3.4801    5.3606 H   0  0  0  0  0  0  0  0  0  0  0  0
   -1.8048   -4.0216    3.8775 H   0  0  0  0  0  0  0  0  0  0  0  0
   -1.1087   -2.0798    4.6039 C   0  0  0  0  0  0  0  0  0  0  0  0
   -1.4065   -1.4427    5.3265 H   0  0  0  0  0  0  0  0  0  0  0  0
   -0.2477   -2.5115    4.9031 H   0  0  0  0  0  0  0  0  0  0  0  0
   -0.8724   -1.3277    3.3522 N   0  0  0  0  0  4  0  0  0  0  0  0
    0.0944   -1.3890    3.1005 H   0  0  0  0  0  0  0  0  0  0  0  0
   -1.4310   -1.7140    2.6169 H   0  0  0  0  0  0  0  0  0  0  0  0
   -1.1197   -0.3668    3.4853 H   0  0  0  0  0  0  0  0  0  0  0  0
    0.0080    2.9250   -0.0108 C   0  0  0  0  0  0  0  0  0  0  0  0
   -0.8472    3.2244   -0.4038 H   0  0  0  0  0  0  0  0  0  0  0  0
    0.7781    3.2158   -0.5568 H   0  0  0  0  0  0  0  0  0  0  0  0
    0.1033    3.3771    0.9763 H   0  0  0  0  0  0  0  0  0  0  0  0
    0.0014    1.4078    0.0027 C   0  0  0  0  0  0  0  0  0  0  0  0
   -1.1962    0.7014   -0.0010 C   0  0  0  0  0  0  0  0  0  0  0  0
   -2.0624    1.1857   -0.0059 H   0  0  0  0  0  0  0  0  0  0  0  0
   -1.1986   -0.6994    0.0000 C   0  0  0  0  0  0  0  0  0  0  0  0
   -2.0795   -1.1875    0.0017 H   0  0  0  0  0  0  0  0  0  0  0  0
   -0.0016   -1.3982    0.0004 C   0  0  0  0  0  0  0  0  0  0  0  0
   -0.0072   -2.3970    0.0002 H   0  0  0  0  0  0  0  0  0  0  0  0
    1.1986   -0.7042   -0.0000 C   0  0  0  0  0  0  0  0  0  0  0  0
    2.0808   -1.1998    0.0028 H   0  0  0  0  0  0  0  0  0  0  0  0
    1.1963    0.6928   -0.0021 C   0  0  0  0  0  0  0  0  0  0  0  0
    2.0665    1.1843   -0.0083 H   0  0  0  0  0  0  0  0  0  0  0  0
  1  5  1  0
  5  8  1  0
  1  2  1  0
  1  3  1  0
  1  4  1  0
  5  6  1  0
  5  7  1  0
  8  9  1  0
  8 10  1  0
  8 11  1  0
 12 16  1  0
 16 17  2  0
 17 19  1  0
 19 21  2  0
 21 23  1  0
 23 25  2  0
 25 16  1  0
 12 13  1  0
 12 14  1  0
 12 15  1  0
 17 18  1  0
 19 20  1  0
 21 22  1  0
 23 24  1  0
 25 26  1  0
M  CHG  1   8   1
M  END
>  <PDB_ID>  (1953) 
pdb3ik4

>  <RESIDUE_NAME>  (1953) 
LYS   PHE

>  <FRAG_NAME>  (1953) 
ETAM   MBZ

>  <FRAG_ATOM_NUM>  (1953) 
fragi: 11  fragj: 15

>  <atom.prop.CHAIN_ID>  (1953) 
A A A A A A A A A A A Z Z Z Z Z Z Z Z Z Z Z Z Z Z Z

>  <atom.prop.IS_HEAVY_ATOM>  (1953) 
1 0 0 0 1 0 0 1 0 0 0 1 0 0 0 1 1 0 1 0 1 0 1 0 1 0

>  <DIFUSE_FUNC_ATOM>  (1953) 
n/a

>  <FINAL_SINGLE_POINT_ENERGY>  (1953) 
0

>  <NONCOV_INTER_ENERGY_QM>  (1953) 
0

>  <FF_Energy>  (1953) 
-5.56

>  <QM_Energy>  (1953) 
-11.62

>  <source>  (1953) 
ETAM_MBZ

>  <Index>  (1953) 
20011

$$$$
ETAM-pdb3ik4-B-LYS-209:MBZ-pdb3ik4-B-PHE-239
     RDKit          3D

 26 25  0  0  0  0  0  0  0  0999 V2000
   -2.0931   -2.7745    4.4203 C   0  0  0  0  0  0  0  0  0  0  0  0
   -2.7766   -2.4056    3.7952 H   0  0  0  0  0  0  0  0  0  0  0  0
   -2.5107   -2.9775    5.3014 H   0  0  0  0  0  0  0  0  0  0  0  0
   -1.6907   -3.6957    3.9991 H   0  0  0  0  0  0  0  0  0  0  0  0
   -1.0120   -1.7044    4.6362 C   0  0  0  0  0  0  0  0  0  0  0  0
   -1.4444   -0.8982    5.0742 H   0  0  0  0  0  0  0  0  0  0  0  0
   -0.3279   -2.0697    5.2905 H   0  0  0  0  0  0  0  0  0  0  0  0
   -0.3089   -1.2633    3.3946 N   0  0  0  0  0  4  0  0  0  0  0  0
   -0.8637   -1.5037    2.5989 H   0  0  0  0  0  0  0  0  0  0  0  0
   -0.1757   -0.2741    3.4252 H   0  0  0  0  0  0  0  0  0  0  0  0
    0.5774   -1.7207    3.3374 H   0  0  0  0  0  0  0  0  0  0  0  0
    0.0023    2.9066    0.0026 C   0  0  0  0  0  0  0  0  0  0  0  0
   -0.8581    3.2131   -0.3782 H   0  0  0  0  0  0  0  0  0  0  0  0
    0.7663    3.2114   -0.5467 H   0  0  0  0  0  0  0  0  0  0  0  0
    0.1061    3.3488    0.9935 H   0  0  0  0  0  0  0  0  0  0  0  0
    0.0003    1.3998   -0.0001 C   0  0  0  0  0  0  0  0  0  0  0  0
   -1.1947    0.6926   -0.0054 C   0  0  0  0  0  0  0  0  0  0  0  0
   -2.0616    1.1824   -0.0144 H   0  0  0  0  0  0  0  0  0  0  0  0
   -1.1959   -0.6934   -0.0000 C   0  0  0  0  0  0  0  0  0  0  0  0
   -2.0754   -1.1886    0.0044 H   0  0  0  0  0  0  0  0  0  0  0  0
   -0.0009   -1.3884    0.0012 C   0  0  0  0  0  0  0  0  0  0  0  0
   -0.0087   -2.3904    0.0026 H   0  0  0  0  0  0  0  0  0  0  0  0
    1.1959   -0.7005   -0.0000 C   0  0  0  0  0  0  0  0  0  0  0  0
    2.0780   -1.1989   -0.0021 H   0  0  0  0  0  0  0  0  0  0  0  0
    1.1953    0.6899    0.0043 C   0  0  0  0  0  0  0  0  0  0  0  0
    2.0644    1.1843    0.0095 H   0  0  0  0  0  0  0  0  0  0  0  0
  1  5  1  0
  5  8  1  0
  1  2  1  0
  1  3  1  0
  1  4  1  0
  5  6  1  0
  5  7  1  0
  8  9  1  0
  8 10  1  0
  8 11  1  0
 12 16  1  0
 16 17  2  0
 17 19  1  0
 19 21  2  0
 21 23  1  0
 23 25  2  0
 25 16  1  0
 12 13  1  0
 12 14  1  0
 12 15  1  0
 17 18  1  0
 19 20  1  0
 21 22  1  0
 23 24  1  0
 25 26  1  0
M  CHG  1   8   1
M  END
>  <PDB_ID>  (1954) 
pdb3ik4

>  <RESIDUE_NAME>  (1954) 
LYS   PHE

>  <FRAG_NAME>  (1954) 
ETAM   MBZ

>  <FRAG_ATOM_NUM>  (1954) 
fragi: 11  fragj: 15

>  <atom.prop.CHAIN_ID>  (1954) 
A A A A A A A A A A A Z Z Z Z Z Z Z Z Z Z Z Z Z Z Z

>  <atom.prop.IS_HEAVY_ATOM>  (1954) 
1 0 0 0 1 0 0 1 0 0 0 1 0 0 0 1 1 0 1 0 1 0 1 0 1 0

>  <DIFUSE_FUNC_ATOM>  (1954) 
n/a

>  <FINAL_SINGLE_POINT_ENERGY>  (1954) 
0

>  <NONCOV_INTER_ENERGY_QM>  (1954) 
0

>  <FF_Energy>  (1954) 
-6.24

>  <QM_Energy>  (1954) 
-12.41

>  <source>  (1954) 
ETAM_MBZ

>  <Index>  (1954) 
20012

$$$$
ETAM-pdb3ik4-C-LYS-209:MBZ-pdb3ik4-C-PHE-239
     RDKit          3D

 26 25  0  0  0  0  0  0  0  0999 V2000
   -2.3613   -2.3652    3.2353 C   0  0  0  0  0  0  0  0  0  0  0  0
   -2.3666   -1.9559    2.3287 H   0  0  0  0  0  0  0  0  0  0  0  0
   -3.2885   -2.4385    3.5874 H   0  0  0  0  0  0  0  0  0  0  0  0
   -1.9273   -3.3629    3.1700 H   0  0  0  0  0  0  0  0  0  0  0  0
   -1.5602   -1.4648    4.1677 C   0  0  0  0  0  0  0  0  0  0  0  0
   -2.0398   -0.5862    4.2599 H   0  0  0  0  0  0  0  0  0  0  0  0
   -1.5083   -1.8999    5.0715 H   0  0  0  0  0  0  0  0  0  0  0  0
   -0.1827   -1.2194    3.6634 N   0  0  0  0  0  4  0  0  0  0  0  0
    0.3387   -0.7184    4.3533 H   0  0  0  0  0  0  0  0  0  0  0  0
    0.2631   -2.0943    3.4769 H   0  0  0  0  0  0  0  0  0  0  0  0
   -0.2281   -0.6819    2.8221 H   0  0  0  0  0  0  0  0  0  0  0  0
    0.0046    2.9048   -0.0032 C   0  0  0  0  0  0  0  0  0  0  0  0
   -0.7908    3.2108   -0.5061 H   0  0  0  0  0  0  0  0  0  0  0  0
    0.8410    3.2062   -0.4386 H   0  0  0  0  0  0  0  0  0  0  0  0
   -0.0348    3.3542    0.9890 H   0  0  0  0  0  0  0  0  0  0  0  0
    0.0004    1.4004    0.0030 C   0  0  0  0  0  0  0  0  0  0  0  0
   -1.1955    0.6885   -0.0012 C   0  0  0  0  0  0  0  0  0  0  0  0
   -2.0621    1.1801   -0.0065 H   0  0  0  0  0  0  0  0  0  0  0  0
   -1.1964   -0.6959    0.0000 C   0  0  0  0  0  0  0  0  0  0  0  0
   -2.0728   -1.1935    0.0060 H   0  0  0  0  0  0  0  0  0  0  0  0
    0.0035   -1.3899   -0.0045 C   0  0  0  0  0  0  0  0  0  0  0  0
   -0.0044   -2.3917   -0.0114 H   0  0  0  0  0  0  0  0  0  0  0  0
    1.1964   -0.6996    0.0000 C   0  0  0  0  0  0  0  0  0  0  0  0
    2.0811   -1.1911    0.0027 H   0  0  0  0  0  0  0  0  0  0  0  0
    1.1916    0.6965    0.0026 C   0  0  0  0  0  0  0  0  0  0  0  0
    2.0627    1.1882    0.0034 H   0  0  0  0  0  0  0  0  0  0  0  0
  1  5  1  0
  5  8  1  0
  1  2  1  0
  1  3  1  0
  1  4  1  0
  5  6  1  0
  5  7  1  0
  8  9  1  0
  8 10  1  0
  8 11  1  0
 12 16  1  0
 16 17  2  0
 17 19  1  0
 19 21  2  0
 21 23  1  0
 23 25  2  0
 25 16  1  0
 12 13  1  0
 12 14  1  0
 12 15  1  0
 17 18  1  0
 19 20  1  0
 21 22  1  0
 23 24  1  0
 25 26  1  0
M  CHG  1   8   1
M  END
>  <PDB_ID>  (1955) 
pdb3ik4

>  <RESIDUE_NAME>  (1955) 
LYS   PHE

>  <FRAG_NAME>  (1955) 
ETAM   MBZ

>  <FRAG_ATOM_NUM>  (1955) 
fragi: 11  fragj: 15

>  <atom.prop.CHAIN_ID>  (1955) 
A A A A A A A A A A A Z Z Z Z Z Z Z Z Z Z Z Z Z Z Z

>  <atom.prop.IS_HEAVY_ATOM>  (1955) 
1 0 0 0 1 0 0 1 0 0 0 1 0 0 0 1 1 0 1 0 1 0 1 0 1 0

>  <DIFUSE_FUNC_ATOM>  (1955) 
n/a

>  <FINAL_SINGLE_POINT_ENERGY>  (1955) 
0

>  <NONCOV_INTER_ENERGY_QM>  (1955) 
0

>  <FF_Energy>  (1955) 
-6.5

>  <QM_Energy>  (1955) 
-12.14

>  <source>  (1955) 
ETAM_MBZ

>  <Index>  (1955) 
20013

$$$$
ETAM-pdb4fmt-C-LYS-123:MBZ-pdb4fmt-C-PHE-92
     RDKit          3D

 26 25  0  0  0  0  0  0  0  0999 V2000
   -3.7442   -3.0878    0.1923 C   0  0  0  0  0  0  0  0  0  0  0  0
   -3.0685   -2.3825   -0.0698 H   0  0  0  0  0  0  0  0  0  0  0  0
   -4.1500   -2.8130    1.0765 H   0  0  0  0  0  0  0  0  0  0  0  0
   -4.5380   -3.0814   -0.5546 H   0  0  0  0  0  0  0  0  0  0  0  0
   -3.0345   -4.4035    0.3677 C   0  0  0  0  0  0  0  0  0  0  0  0
   -2.9156   -4.8379   -0.5332 H   0  0  0  0  0  0  0  0  0  0  0  0
   -2.1226   -4.2379    0.7619 H   0  0  0  0  0  0  0  0  0  0  0  0
   -3.7827   -5.3286    1.2551 N   0  0  0  0  0  4  0  0  0  0  0  0
   -3.5980   -6.2737    0.9833 H   0  0  0  0  0  0  0  0  0  0  0  0
   -3.4913   -5.1910    2.2024 H   0  0  0  0  0  0  0  0  0  0  0  0
   -4.7626   -5.1460    1.1777 H   0  0  0  0  0  0  0  0  0  0  0  0
    0.0007    2.9080    0.0099 C   0  0  0  0  0  0  0  0  0  0  0  0
   -0.7506    3.2110   -0.5622 H   0  0  0  0  0  0  0  0  0  0  0  0
    0.8700    3.2116   -0.3579 H   0  0  0  0  0  0  0  0  0  0  0  0
   -0.1235    3.3614    0.9933 H   0  0  0  0  0  0  0  0  0  0  0  0
    0.0011    1.4046    0.0152 C   0  0  0  0  0  0  0  0  0  0  0  0
   -1.1940    0.6932    0.0039 C   0  0  0  0  0  0  0  0  0  0  0  0
   -2.0617    1.1799   -0.0031 H   0  0  0  0  0  0  0  0  0  0  0  0
   -1.1947   -0.7009    0.0000 C   0  0  0  0  0  0  0  0  0  0  0  0
   -2.0743   -1.1921    0.0144 H   0  0  0  0  0  0  0  0  0  0  0  0
   -0.0006   -1.3911   -0.0216 C   0  0  0  0  0  0  0  0  0  0  0  0
   -0.0042   -2.3931   -0.0534 H   0  0  0  0  0  0  0  0  0  0  0  0
    1.1947   -0.7007   -0.0000 C   0  0  0  0  0  0  0  0  0  0  0  0
    2.0785   -1.1958    0.0155 H   0  0  0  0  0  0  0  0  0  0  0  0
    1.1935    0.6949    0.0025 C   0  0  0  0  0  0  0  0  0  0  0  0
    2.0647    1.1861   -0.0059 H   0  0  0  0  0  0  0  0  0  0  0  0
  1  5  1  0
  5  8  1  0
  1  2  1  0
  1  3  1  0
  1  4  1  0
  5  6  1  0
  5  7  1  0
  8  9  1  0
  8 10  1  0
  8 11  1  0
 12 16  1  0
 16 17  2  0
 17 19  1  0
 19 21  2  0
 21 23  1  0
 23 25  2  0
 25 16  1  0
 12 13  1  0
 12 14  1  0
 12 15  1  0
 17 18  1  0
 19 20  1  0
 21 22  1  0
 23 24  1  0
 25 26  1  0
M  CHG  1   8   1
M  END
>  <PDB_ID>  (1956) 
pdb4fmt

>  <RESIDUE_NAME>  (1956) 
LYS   PHE

>  <FRAG_NAME>  (1956) 
ETAM   MBZ

>  <FRAG_ATOM_NUM>  (1956) 
fragi: 11  fragj: 15

>  <atom.prop.CHAIN_ID>  (1956) 
A A A A A A A A A A A Z Z Z Z Z Z Z Z Z Z Z Z Z Z Z

>  <atom.prop.IS_HEAVY_ATOM>  (1956) 
1 0 0 0 1 0 0 1 0 0 0 1 0 0 0 1 1 0 1 0 1 0 1 0 1 0

>  <DIFUSE_FUNC_ATOM>  (1956) 
n/a

>  <FINAL_SINGLE_POINT_ENERGY>  (1956) 
0

>  <NONCOV_INTER_ENERGY_QM>  (1956) 
0

>  <FF_Energy>  (1956) 
20.79

>  <QM_Energy>  (1956) 
1.5

>  <source>  (1956) 
ETAM_MBZ

>  <Index>  (1956) 
20015

$$$$
ETAM-pdb3ilf-A-LYS-171:MBZ-pdb3ilf-A-PHE-137
     RDKit          3D

 26 25  0  0  0  0  0  0  0  0999 V2000
    2.4647    1.8475   -4.0461 C   0  0  0  0  0  0  0  0  0  0  0  0
    2.5443    1.7800   -5.0190 H   0  0  0  0  0  0  0  0  0  0  0  0
    3.3279    1.8196   -3.5864 H   0  0  0  0  0  0  0  0  0  0  0  0
    1.9565    2.7784   -3.7944 H   0  0  0  0  0  0  0  0  0  0  0  0
    1.6131    0.6048   -3.5456 C   0  0  0  0  0  0  0  0  0  0  0  0
    1.1280    0.8945   -2.6853 H   0  0  0  0  0  0  0  0  0  0  0  0
    0.8645    0.4509   -4.2344 H   0  0  0  0  0  0  0  0  0  0  0  0
    2.2999   -0.7430   -3.2772 N   0  0  0  0  0  4  0  0  0  0  0  0
    3.2754   -0.6223   -3.4101 H   0  0  0  0  0  0  0  0  0  0  0  0
    2.1009   -1.0090   -2.3427 H   0  0  0  0  0  0  0  0  0  0  0  0
    1.9357   -1.4068   -3.9178 H   0  0  0  0  0  0  0  0  0  0  0  0
    0.0093    2.9336    0.0155 C   0  0  0  0  0  0  0  0  0  0  0  0
   -0.7771    3.2345   -0.4927 H   0  0  0  0  0  0  0  0  0  0  0  0
    0.8532    3.2371   -0.3883 H   0  0  0  0  0  0  0  0  0  0  0  0
   -0.0556    3.3624    1.0155 H   0  0  0  0  0  0  0  0  0  0  0  0
    0.0122    1.4071    0.0071 C   0  0  0  0  0  0  0  0  0  0  0  0
   -1.2265    0.7021    0.0100 C   0  0  0  0  0  0  0  0  0  0  0  0
   -2.0708    1.2048    0.0173 H   0  0  0  0  0  0  0  0  0  0  0  0
   -1.2356   -0.6971    0.0000 C   0  0  0  0  0  0  0  0  0  0  0  0
   -2.0963   -1.1979   -0.0155 H   0  0  0  0  0  0  0  0  0  0  0  0
    0.0007   -1.4095    0.0144 C   0  0  0  0  0  0  0  0  0  0  0  0
   -0.0083   -2.3998    0.0341 H   0  0  0  0  0  0  0  0  0  0  0  0
    1.2356   -0.7051   -0.0000 C   0  0  0  0  0  0  0  0  0  0  0  0
    2.1004   -1.1988    0.0130 H   0  0  0  0  0  0  0  0  0  0  0  0
    1.2136    0.7025   -0.0314 C   0  0  0  0  0  0  0  0  0  0  0  0
    2.0797    1.1992   -0.0831 H   0  0  0  0  0  0  0  0  0  0  0  0
  1  5  1  0
  5  8  1  0
  1  2  1  0
  1  3  1  0
  1  4  1  0
  5  6  1  0
  5  7  1  0
  8  9  1  0
  8 10  1  0
  8 11  1  0
 12 16  1  0
 16 17  2  0
 17 19  1  0
 19 21  2  0
 21 23  1  0
 23 25  2  0
 25 16  1  0
 12 13  1  0
 12 14  1  0
 12 15  1  0
 17 18  1  0
 19 20  1  0
 21 22  1  0
 23 24  1  0
 25 26  1  0
M  CHG  1   8   1
M  END
>  <PDB_ID>  (1957) 
pdb3ilf

>  <RESIDUE_NAME>  (1957) 
LYS   PHE

>  <FRAG_NAME>  (1957) 
ETAM   MBZ

>  <FRAG_ATOM_NUM>  (1957) 
fragi: 11  fragj: 15

>  <atom.prop.CHAIN_ID>  (1957) 
A A A A A A A A A A A Z Z Z Z Z Z Z Z Z Z Z Z Z Z Z

>  <atom.prop.IS_HEAVY_ATOM>  (1957) 
1 0 0 0 1 0 0 1 0 0 0 1 0 0 0 1 1 0 1 0 1 0 1 0 1 0

>  <DIFUSE_FUNC_ATOM>  (1957) 
n/a

>  <FINAL_SINGLE_POINT_ENERGY>  (1957) 
0

>  <NONCOV_INTER_ENERGY_QM>  (1957) 
0

>  <FF_Energy>  (1957) 
-4.82

>  <QM_Energy>  (1957) 
-11.66

>  <source>  (1957) 
ETAM_MBZ

>  <Index>  (1957) 
20028

$$$$
ETAM-pdb4fix-A-LYS-621:MBZ-pdb4fix-A-PHE-473
     RDKit          3D

 26 25  0  0  0  0  0  0  0  0999 V2000
   -1.1570   -1.1894    4.1724 C   0  0  0  0  0  0  0  0  0  0  0  0
   -1.6574   -1.9335    3.7529 H   0  0  0  0  0  0  0  0  0  0  0  0
   -1.3515   -1.1312    5.1417 H   0  0  0  0  0  0  0  0  0  0  0  0
   -0.0890   -1.3591    4.0348 H   0  0  0  0  0  0  0  0  0  0  0  0
   -1.5828    0.1172    3.5111 C   0  0  0  0  0  0  0  0  0  0  0  0
   -1.3425    0.8804    4.1189 H   0  0  0  0  0  0  0  0  0  0  0  0
   -1.0794    0.2230    2.6478 H   0  0  0  0  0  0  0  0  0  0  0  0
   -3.0467    0.1573    3.2304 N   0  0  0  0  0  4  0  0  0  0  0  0
   -3.5069    0.6719    3.9525 H   0  0  0  0  0  0  0  0  0  0  0  0
   -3.2020    0.6017    2.3488 H   0  0  0  0  0  0  0  0  0  0  0  0
   -3.4036   -0.7755    3.2029 H   0  0  0  0  0  0  0  0  0  0  0  0
    0.0051    2.8986   -0.0177 C   0  0  0  0  0  0  0  0  0  0  0  0
    0.7751    3.2142    0.5124 H   0  0  0  0  0  0  0  0  0  0  0  0
   -0.8509    3.2154    0.3575 H   0  0  0  0  0  0  0  0  0  0  0  0
    0.1010    3.3130   -1.0213 H   0  0  0  0  0  0  0  0  0  0  0  0
    0.0021    1.4021    0.0039 C   0  0  0  0  0  0  0  0  0  0  0  0
   -1.2066    0.6926   -0.0038 C   0  0  0  0  0  0  0  0  0  0  0  0
   -2.0675    1.1875   -0.0136 H   0  0  0  0  0  0  0  0  0  0  0  0
   -1.2161   -0.7027    0.0000 C   0  0  0  0  0  0  0  0  0  0  0  0
   -2.0836   -1.1978    0.0009 H   0  0  0  0  0  0  0  0  0  0  0  0
    0.0027   -1.3987    0.0040 C   0  0  0  0  0  0  0  0  0  0  0  0
    0.0043   -2.3930    0.0088 H   0  0  0  0  0  0  0  0  0  0  0  0
    1.2161   -0.6900   -0.0000 C   0  0  0  0  0  0  0  0  0  0  0  0
    2.0914   -1.1898    0.0012 H   0  0  0  0  0  0  0  0  0  0  0  0
    1.2019    0.6967   -0.0041 C   0  0  0  0  0  0  0  0  0  0  0  0
    2.0680    1.2001   -0.0136 H   0  0  0  0  0  0  0  0  0  0  0  0
  1  5  1  0
  5  8  1  0
  1  2  1  0
  1  3  1  0
  1  4  1  0
  5  6  1  0
  5  7  1  0
  8  9  1  0
  8 10  1  0
  8 11  1  0
 12 16  1  0
 16 17  2  0
 17 19  1  0
 19 21  2  0
 21 23  1  0
 23 25  2  0
 25 16  1  0
 12 13  1  0
 12 14  1  0
 12 15  1  0
 17 18  1  0
 19 20  1  0
 21 22  1  0
 23 24  1  0
 25 26  1  0
M  CHG  1   8   1
M  END
>  <PDB_ID>  (1958) 
pdb4fix

>  <RESIDUE_NAME>  (1958) 
LYS   PHE

>  <FRAG_NAME>  (1958) 
ETAM   MBZ

>  <FRAG_ATOM_NUM>  (1958) 
fragi: 11  fragj: 15

>  <atom.prop.CHAIN_ID>  (1958) 
A A A A A A A A A A A Z Z Z Z Z Z Z Z Z Z Z Z Z Z Z

>  <atom.prop.IS_HEAVY_ATOM>  (1958) 
1 0 0 0 1 0 0 1 0 0 0 1 0 0 0 1 1 0 1 0 1 0 1 0 1 0

>  <DIFUSE_FUNC_ATOM>  (1958) 
n/a

>  <FINAL_SINGLE_POINT_ENERGY>  (1958) 
0

>  <NONCOV_INTER_ENERGY_QM>  (1958) 
0

>  <FF_Energy>  (1958) 
-3.82

>  <QM_Energy>  (1958) 
-8.95

>  <source>  (1958) 
ETAM_MBZ

>  <Index>  (1958) 
20042

$$$$
ETAM-pdb4fq5-B-LYS-29:MBZ-pdb4fq5-B-PHE-41
     RDKit          3D

 26 25  0  0  0  0  0  0  0  0999 V2000
    5.4387   -3.6878    2.5564 C   0  0  0  0  0  0  0  0  0  0  0  0
    5.0264   -3.3324    3.3917 H   0  0  0  0  0  0  0  0  0  0  0  0
    6.3601   -3.3236    2.4497 H   0  0  0  0  0  0  0  0  0  0  0  0
    5.4968   -4.7738    2.6285 H   0  0  0  0  0  0  0  0  0  0  0  0
    4.5968   -3.2322    1.3691 C   0  0  0  0  0  0  0  0  0  0  0  0
    5.2089   -2.9708    0.6201 H   0  0  0  0  0  0  0  0  0  0  0  0
    4.0190   -3.9946    1.0700 H   0  0  0  0  0  0  0  0  0  0  0  0
    3.7304   -2.0704    1.7224 N   0  0  0  0  0  4  0  0  0  0  0  0
    2.9905   -1.9960    1.0557 H   0  0  0  0  0  0  0  0  0  0  0  0
    3.3480   -2.2093    2.6349 H   0  0  0  0  0  0  0  0  0  0  0  0
    4.2778   -1.2348    1.7117 H   0  0  0  0  0  0  0  0  0  0  0  0
   -0.0043    2.9019   -0.0355 C   0  0  0  0  0  0  0  0  0  0  0  0
    0.8551    3.2228    0.3200 H   0  0  0  0  0  0  0  0  0  0  0  0
   -0.7684    3.2225    0.4956 H   0  0  0  0  0  0  0  0  0  0  0  0
   -0.1137    3.2949   -1.0463 H   0  0  0  0  0  0  0  0  0  0  0  0
    0.0003    1.4010    0.0074 C   0  0  0  0  0  0  0  0  0  0  0  0
   -1.1974    0.6917   -0.0069 C   0  0  0  0  0  0  0  0  0  0  0  0
   -2.0628    1.1831   -0.0232 H   0  0  0  0  0  0  0  0  0  0  0  0
   -1.2003   -0.6955    0.0000 C   0  0  0  0  0  0  0  0  0  0  0  0
   -2.0781   -1.1907    0.0033 H   0  0  0  0  0  0  0  0  0  0  0  0
   -0.0021   -1.3909    0.0044 C   0  0  0  0  0  0  0  0  0  0  0  0
   -0.0074   -2.3913    0.0100 H   0  0  0  0  0  0  0  0  0  0  0  0
    1.2003   -0.7000    0.0000 C   0  0  0  0  0  0  0  0  0  0  0  0
    2.0809   -1.1982    0.0016 H   0  0  0  0  0  0  0  0  0  0  0  0
    1.1992    0.6936   -0.0049 C   0  0  0  0  0  0  0  0  0  0  0  0
    2.0661    1.1878   -0.0177 H   0  0  0  0  0  0  0  0  0  0  0  0
  1  5  1  0
  5  8  1  0
  1  2  1  0
  1  3  1  0
  1  4  1  0
  5  6  1  0
  5  7  1  0
  8  9  1  0
  8 10  1  0
  8 11  1  0
 12 16  1  0
 16 17  2  0
 17 19  1  0
 19 21  2  0
 21 23  1  0
 23 25  2  0
 25 16  1  0
 12 13  1  0
 12 14  1  0
 12 15  1  0
 17 18  1  0
 19 20  1  0
 21 22  1  0
 23 24  1  0
 25 26  1  0
M  CHG  1   8   1
M  END
>  <PDB_ID>  (1959) 
pdb4fq5

>  <RESIDUE_NAME>  (1959) 
LYS   PHE

>  <FRAG_NAME>  (1959) 
ETAM   MBZ

>  <FRAG_ATOM_NUM>  (1959) 
fragi: 11  fragj: 15

>  <atom.prop.CHAIN_ID>  (1959) 
A A A A A A A A A A A Z Z Z Z Z Z Z Z Z Z Z Z Z Z Z

>  <atom.prop.IS_HEAVY_ATOM>  (1959) 
1 0 0 0 1 0 0 1 0 0 0 1 0 0 0 1 1 0 1 0 1 0 1 0 1 0

>  <DIFUSE_FUNC_ATOM>  (1959) 
n/a

>  <FINAL_SINGLE_POINT_ENERGY>  (1959) 
0

>  <NONCOV_INTER_ENERGY_QM>  (1959) 
0

>  <FF_Energy>  (1959) 
1.8

>  <QM_Energy>  (1959) 
-3.46

>  <source>  (1959) 
ETAM_MBZ

>  <Index>  (1959) 
20045

$$$$
ETAM-pdb4fqd-A-LYS-218:MBZ-pdb4fqd-A-PHE-340
     RDKit          3D

 26 25  0  0  0  0  0  0  0  0999 V2000
    0.7779   -3.2211   -3.1391 C   0  0  0  0  0  0  0  0  0  0  0  0
    1.3187   -3.1118   -2.3097 H   0  0  0  0  0  0  0  0  0  0  0  0
    1.1096   -3.9974   -3.6665 H   0  0  0  0  0  0  0  0  0  0  0  0
   -0.2608   -3.4006   -2.8615 H   0  0  0  0  0  0  0  0  0  0  0  0
    0.9245   -1.9654   -3.9819 C   0  0  0  0  0  0  0  0  0  0  0  0
    1.8785   -1.8881   -4.2867 H   0  0  0  0  0  0  0  0  0  0  0  0
    0.3344   -2.0455   -4.7911 H   0  0  0  0  0  0  0  0  0  0  0  0
    0.5523   -0.7382   -3.2267 N   0  0  0  0  0  4  0  0  0  0  0  0
    1.3479   -0.1364   -3.1595 H   0  0  0  0  0  0  0  0  0  0  0  0
   -0.1856   -0.2648   -3.7063 H   0  0  0  0  0  0  0  0  0  0  0  0
    0.2461   -0.9933   -2.3098 H   0  0  0  0  0  0  0  0  0  0  0  0
   -0.0034    2.8916    0.0039 C   0  0  0  0  0  0  0  0  0  0  0  0
    0.9103    3.2003    0.2231 H   0  0  0  0  0  0  0  0  0  0  0  0
   -0.6561    3.1950    0.6827 H   0  0  0  0  0  0  0  0  0  0  0  0
   -0.2848    3.3376   -0.9500 H   0  0  0  0  0  0  0  0  0  0  0  0
   -0.0002    1.3929   -0.0041 C   0  0  0  0  0  0  0  0  0  0  0  0
   -1.1920    0.6871    0.0016 C   0  0  0  0  0  0  0  0  0  0  0  0
   -2.0599    1.1802    0.0059 H   0  0  0  0  0  0  0  0  0  0  0  0
   -1.1949   -0.6927   -0.0000 C   0  0  0  0  0  0  0  0  0  0  0  0
   -2.0737   -1.1898   -0.0012 H   0  0  0  0  0  0  0  0  0  0  0  0
   -0.0002   -1.3837    0.0014 C   0  0  0  0  0  0  0  0  0  0  0  0
   -0.0037   -2.3854    0.0032 H   0  0  0  0  0  0  0  0  0  0  0  0
    1.1949   -0.6920   -0.0000 C   0  0  0  0  0  0  0  0  0  0  0  0
    2.0782   -1.1939   -0.0008 H   0  0  0  0  0  0  0  0  0  0  0  0
    1.1924    0.6883    0.0012 C   0  0  0  0  0  0  0  0  0  0  0  0
    2.0609    1.1873    0.0056 H   0  0  0  0  0  0  0  0  0  0  0  0
  1  5  1  0
  5  8  1  0
  1  2  1  0
  1  3  1  0
  1  4  1  0
  5  6  1  0
  5  7  1  0
  8  9  1  0
  8 10  1  0
  8 11  1  0
 12 16  1  0
 16 17  2  0
 17 19  1  0
 19 21  2  0
 21 23  1  0
 23 25  2  0
 25 16  1  0
 12 13  1  0
 12 14  1  0
 12 15  1  0
 17 18  1  0
 19 20  1  0
 21 22  1  0
 23 24  1  0
 25 26  1  0
M  CHG  1   8   1
M  END
>  <PDB_ID>  (1960) 
pdb4fqd

>  <RESIDUE_NAME>  (1960) 
LYS   PHE

>  <FRAG_NAME>  (1960) 
ETAM   MBZ

>  <FRAG_ATOM_NUM>  (1960) 
fragi: 11  fragj: 15

>  <atom.prop.CHAIN_ID>  (1960) 
A A A A A A A A A A A Z Z Z Z Z Z Z Z Z Z Z Z Z Z Z

>  <atom.prop.IS_HEAVY_ATOM>  (1960) 
1 0 0 0 1 0 0 1 0 0 0 1 0 0 0 1 1 0 1 0 1 0 1 0 1 0

>  <DIFUSE_FUNC_ATOM>  (1960) 
n/a

>  <FINAL_SINGLE_POINT_ENERGY>  (1960) 
0

>  <NONCOV_INTER_ENERGY_QM>  (1960) 
0

>  <FF_Energy>  (1960) 
-8.46

>  <QM_Energy>  (1960) 
-15.89

>  <source>  (1960) 
ETAM_MBZ

>  <Index>  (1960) 
20050

$$$$
ETAM-pdb4fq5-A-LYS-29:MBZ-pdb4fq5-A-PHE-41
     RDKit          3D

 26 25  0  0  0  0  0  0  0  0999 V2000
    3.7553   -3.5834    1.7439 C   0  0  0  0  0  0  0  0  0  0  0  0
    2.7829   -3.6318    1.9186 H   0  0  0  0  0  0  0  0  0  0  0  0
    4.1266   -2.7089    2.0196 H   0  0  0  0  0  0  0  0  0  0  0  0
    4.2545   -4.3731    2.3054 H   0  0  0  0  0  0  0  0  0  0  0  0
    3.9932   -3.7661    0.2505 C   0  0  0  0  0  0  0  0  0  0  0  0
    4.9396   -4.1047    0.1120 H   0  0  0  0  0  0  0  0  0  0  0  0
    3.3659   -4.4860   -0.0920 H   0  0  0  0  0  0  0  0  0  0  0  0
    3.7990   -2.5314   -0.5625 N   0  0  0  0  0  4  0  0  0  0  0  0
    3.2464   -2.7491   -1.3662 H   0  0  0  0  0  0  0  0  0  0  0  0
    3.3323   -1.8425   -0.0101 H   0  0  0  0  0  0  0  0  0  0  0  0
    4.6897   -2.1833   -0.8521 H   0  0  0  0  0  0  0  0  0  0  0  0
   -0.0003    2.9056   -0.0317 C   0  0  0  0  0  0  0  0  0  0  0  0
    0.8291    3.2221    0.3926 H   0  0  0  0  0  0  0  0  0  0  0  0
   -0.8029    3.2242    0.4407 H   0  0  0  0  0  0  0  0  0  0  0  0
   -0.0298    3.3030   -1.0462 H   0  0  0  0  0  0  0  0  0  0  0  0
   -0.0007    1.4004    0.0084 C   0  0  0  0  0  0  0  0  0  0  0  0
   -1.1988    0.6917   -0.0050 C   0  0  0  0  0  0  0  0  0  0  0  0
   -2.0644    1.1821   -0.0197 H   0  0  0  0  0  0  0  0  0  0  0  0
   -1.2016   -0.6977   -0.0000 C   0  0  0  0  0  0  0  0  0  0  0  0
   -2.0770   -1.1936    0.0061 H   0  0  0  0  0  0  0  0  0  0  0  0
    0.0006   -1.3888   -0.0018 C   0  0  0  0  0  0  0  0  0  0  0  0
   -0.0030   -2.3904   -0.0043 H   0  0  0  0  0  0  0  0  0  0  0  0
    1.2016   -0.6967    0.0000 C   0  0  0  0  0  0  0  0  0  0  0  0
    2.0822   -1.1965    0.0037 H   0  0  0  0  0  0  0  0  0  0  0  0
    1.1988    0.6911   -0.0016 C   0  0  0  0  0  0  0  0  0  0  0  0
    2.0647    1.1887   -0.0108 H   0  0  0  0  0  0  0  0  0  0  0  0
  1  5  1  0
  5  8  1  0
  1  2  1  0
  1  3  1  0
  1  4  1  0
  5  6  1  0
  5  7  1  0
  8  9  1  0
  8 10  1  0
  8 11  1  0
 12 16  1  0
 16 17  2  0
 17 19  1  0
 19 21  2  0
 21 23  1  0
 23 25  2  0
 25 16  1  0
 12 13  1  0
 12 14  1  0
 12 15  1  0
 17 18  1  0
 19 20  1  0
 21 22  1  0
 23 24  1  0
 25 26  1  0
M  CHG  1   8   1
M  END
>  <PDB_ID>  (1961) 
pdb4fq5

>  <RESIDUE_NAME>  (1961) 
LYS   PHE

>  <FRAG_NAME>  (1961) 
ETAM   MBZ

>  <FRAG_ATOM_NUM>  (1961) 
fragi: 11  fragj: 15

>  <atom.prop.CHAIN_ID>  (1961) 
A A A A A A A A A A A Z Z Z Z Z Z Z Z Z Z Z Z Z Z Z

>  <atom.prop.IS_HEAVY_ATOM>  (1961) 
1 0 0 0 1 0 0 1 0 0 0 1 0 0 0 1 1 0 1 0 1 0 1 0 1 0

>  <DIFUSE_FUNC_ATOM>  (1961) 
n/a

>  <FINAL_SINGLE_POINT_ENERGY>  (1961) 
0

>  <NONCOV_INTER_ENERGY_QM>  (1961) 
0

>  <FF_Energy>  (1961) 
6.82

>  <QM_Energy>  (1961) 
0.73

>  <source>  (1961) 
ETAM_MBZ

>  <Index>  (1961) 
20059

$$$$
ETAM-pdb3imi-D-LYS-40:MBZ-pdb3imi-D-PHE-80
     RDKit          3D

 26 25  0  0  0  0  0  0  0  0999 V2000
   -1.4363    0.1020    4.2595 C   0  0  0  0  0  0  0  0  0  0  0  0
   -1.9689    0.0386    5.1010 H   0  0  0  0  0  0  0  0  0  0  0  0
   -1.4135    1.0492    3.9453 H   0  0  0  0  0  0  0  0  0  0  0  0
   -0.4166   -0.2226    4.4669 H   0  0  0  0  0  0  0  0  0  0  0  0
   -2.1309   -0.7466    3.1839 C   0  0  0  0  0  0  0  0  0  0  0  0
   -1.4957   -0.8843    2.4207 H   0  0  0  0  0  0  0  0  0  0  0  0
   -2.3669   -1.6378    3.5777 H   0  0  0  0  0  0  0  0  0  0  0  0
   -3.3896   -0.0977    2.6580 N   0  0  0  0  0  4  0  0  0  0  0  0
   -3.9847    0.1181    3.4268 H   0  0  0  0  0  0  0  0  0  0  0  0
   -3.1411    0.7351    2.1712 H   0  0  0  0  0  0  0  0  0  0  0  0
   -3.8439   -0.7335    2.0406 H   0  0  0  0  0  0  0  0  0  0  0  0
   -0.0153    2.9139    0.0091 C   0  0  0  0  0  0  0  0  0  0  0  0
    0.9145    3.2252   -0.0997 H   0  0  0  0  0  0  0  0  0  0  0  0
   -0.3986    3.2082    0.8694 H   0  0  0  0  0  0  0  0  0  0  0  0
   -0.6110    3.3538   -0.7907 H   0  0  0  0  0  0  0  0  0  0  0  0
   -0.0060    1.4069   -0.0048 C   0  0  0  0  0  0  0  0  0  0  0  0
   -1.1970    0.6923    0.0100 C   0  0  0  0  0  0  0  0  0  0  0  0
   -2.0689    1.1695    0.0270 H   0  0  0  0  0  0  0  0  0  0  0  0
   -1.1962   -0.7162   -0.0000 C   0  0  0  0  0  0  0  0  0  0  0  0
   -2.0662   -1.2080    0.0008 H   0  0  0  0  0  0  0  0  0  0  0  0
    0.0165   -1.3984   -0.0085 C   0  0  0  0  0  0  0  0  0  0  0  0
    0.0181   -2.3986   -0.0211 H   0  0  0  0  0  0  0  0  0  0  0  0
    1.1962   -0.6925    0.0000 C   0  0  0  0  0  0  0  0  0  0  0  0
    2.0911   -1.1758    0.0055 H   0  0  0  0  0  0  0  0  0  0  0  0
    1.1865    0.7080    0.0032 C   0  0  0  0  0  0  0  0  0  0  0  0
    2.0569    1.2003    0.0103 H   0  0  0  0  0  0  0  0  0  0  0  0
  1  5  1  0
  5  8  1  0
  1  2  1  0
  1  3  1  0
  1  4  1  0
  5  6  1  0
  5  7  1  0
  8  9  1  0
  8 10  1  0
  8 11  1  0
 12 16  1  0
 16 17  2  0
 17 19  1  0
 19 21  2  0
 21 23  1  0
 23 25  2  0
 25 16  1  0
 12 13  1  0
 12 14  1  0
 12 15  1  0
 17 18  1  0
 19 20  1  0
 21 22  1  0
 23 24  1  0
 25 26  1  0
M  CHG  1   8   1
M  END
>  <PDB_ID>  (1962) 
pdb3imi

>  <RESIDUE_NAME>  (1962) 
LYS   PHE

>  <FRAG_NAME>  (1962) 
ETAM   MBZ

>  <FRAG_ATOM_NUM>  (1962) 
fragi: 11  fragj: 15

>  <atom.prop.CHAIN_ID>  (1962) 
A A A A A A A A A A A Z Z Z Z Z Z Z Z Z Z Z Z Z Z Z

>  <atom.prop.IS_HEAVY_ATOM>  (1962) 
1 0 0 0 1 0 0 1 0 0 0 1 0 0 0 1 1 0 1 0 1 0 1 0 1 0

>  <DIFUSE_FUNC_ATOM>  (1962) 
n/a

>  <FINAL_SINGLE_POINT_ENERGY>  (1962) 
0

>  <NONCOV_INTER_ENERGY_QM>  (1962) 
0

>  <FF_Energy>  (1962) 
-1.41

>  <QM_Energy>  (1962) 
-7.79

>  <source>  (1962) 
ETAM_MBZ

>  <Index>  (1962) 
20068

$$$$
ETAM-pdb3ioy-B-LYS-248:MBZ-pdb3ioy-B-PHE-4
     RDKit          3D

 26 25  0  0  0  0  0  0  0  0999 V2000
    4.9908   -1.5465    1.6185 C   0  0  0  0  0  0  0  0  0  0  0  0
    5.1089   -2.2212    2.3248 H   0  0  0  0  0  0  0  0  0  0  0  0
    5.8032   -1.0114    1.4760 H   0  0  0  0  0  0  0  0  0  0  0  0
    4.7178   -2.0430    0.6874 H   0  0  0  0  0  0  0  0  0  0  0  0
    3.8558   -0.6014    2.0378 C   0  0  0  0  0  0  0  0  0  0  0  0
    3.1942   -0.5385    1.2762 H   0  0  0  0  0  0  0  0  0  0  0  0
    3.3766   -1.0078    2.8297 H   0  0  0  0  0  0  0  0  0  0  0  0
    4.3119    0.7760    2.4005 N   0  0  0  0  0  4  0  0  0  0  0  0
    3.9430    1.0185    3.2963 H   0  0  0  0  0  0  0  0  0  0  0  0
    5.3100    0.7940    2.4304 H   0  0  0  0  0  0  0  0  0  0  0  0
    3.9827    1.4214    1.7140 H   0  0  0  0  0  0  0  0  0  0  0  0
    0.0021    2.8997   -0.0277 C   0  0  0  0  0  0  0  0  0  0  0  0
    0.8448    3.2227    0.3724 H   0  0  0  0  0  0  0  0  0  0  0  0
   -0.7856    3.2248    0.4694 H   0  0  0  0  0  0  0  0  0  0  0  0
   -0.0579    3.3073   -1.0369 H   0  0  0  0  0  0  0  0  0  0  0  0
    0.0022    1.4077    0.0077 C   0  0  0  0  0  0  0  0  0  0  0  0
   -1.1963    0.6931   -0.0029 C   0  0  0  0  0  0  0  0  0  0  0  0
   -2.0648    1.1808   -0.0137 H   0  0  0  0  0  0  0  0  0  0  0  0
   -1.2037   -0.7076    0.0000 C   0  0  0  0  0  0  0  0  0  0  0  0
   -2.0829   -1.1934    0.0061 H   0  0  0  0  0  0  0  0  0  0  0  0
   -0.0074   -1.3995   -0.0030 C   0  0  0  0  0  0  0  0  0  0  0  0
   -0.0025   -2.3975   -0.0078 H   0  0  0  0  0  0  0  0  0  0  0  0
    1.2037   -0.6968    0.0000 C   0  0  0  0  0  0  0  0  0  0  0  0
    2.0820   -1.1949    0.0054 H   0  0  0  0  0  0  0  0  0  0  0  0
    1.2015    0.7032   -0.0018 C   0  0  0  0  0  0  0  0  0  0  0  0
    2.0679    1.1953   -0.0104 H   0  0  0  0  0  0  0  0  0  0  0  0
  1  5  1  0
  5  8  1  0
  1  2  1  0
  1  3  1  0
  1  4  1  0
  5  6  1  0
  5  7  1  0
  8  9  1  0
  8 10  1  0
  8 11  1  0
 12 16  1  0
 16 17  2  0
 17 19  1  0
 19 21  2  0
 21 23  1  0
 23 25  2  0
 25 16  1  0
 12 13  1  0
 12 14  1  0
 12 15  1  0
 17 18  1  0
 19 20  1  0
 21 22  1  0
 23 24  1  0
 25 26  1  0
M  CHG  1   8   1
M  END
>  <PDB_ID>  (1963) 
pdb3ioy

>  <RESIDUE_NAME>  (1963) 
LYS   PHE

>  <FRAG_NAME>  (1963) 
ETAM   MBZ

>  <FRAG_ATOM_NUM>  (1963) 
fragi: 11  fragj: 15

>  <atom.prop.CHAIN_ID>  (1963) 
A A A A A A A A A A A Z Z Z Z Z Z Z Z Z Z Z Z Z Z Z

>  <atom.prop.IS_HEAVY_ATOM>  (1963) 
1 0 0 0 1 0 0 1 0 0 0 1 0 0 0 1 1 0 1 0 1 0 1 0 1 0

>  <DIFUSE_FUNC_ATOM>  (1963) 
n/a

>  <FINAL_SINGLE_POINT_ENERGY>  (1963) 
0

>  <NONCOV_INTER_ENERGY_QM>  (1963) 
0

>  <FF_Energy>  (1963) 
4.86

>  <QM_Energy>  (1963) 
-2.75

>  <source>  (1963) 
ETAM_MBZ

>  <Index>  (1963) 
20086

$$$$
ETAM-pdb4fuq-A-LYS-473:MBZ-pdb4fuq-A-PHE-437
     RDKit          3D

 26 25  0  0  0  0  0  0  0  0999 V2000
    3.3045   -1.3383    3.8557 C   0  0  0  0  0  0  0  0  0  0  0  0
    3.6368   -1.9847    3.1743 H   0  0  0  0  0  0  0  0  0  0  0  0
    3.2930   -1.7659    4.7556 H   0  0  0  0  0  0  0  0  0  0  0  0
    3.9712   -0.4765    3.8810 H   0  0  0  0  0  0  0  0  0  0  0  0
    1.8849   -0.9398    3.4919 C   0  0  0  0  0  0  0  0  0  0  0  0
    1.5305   -0.3182    4.1909 H   0  0  0  0  0  0  0  0  0  0  0  0
    1.8924   -0.4735    2.6066 H   0  0  0  0  0  0  0  0  0  0  0  0
    0.9952   -2.1360    3.4054 N   0  0  0  0  0  4  0  0  0  0  0  0
    0.3014   -1.9802    2.7036 H   0  0  0  0  0  0  0  0  0  0  0  0
    1.5428   -2.9370    3.1663 H   0  0  0  0  0  0  0  0  0  0  0  0
    0.5532   -2.2817    4.2892 H   0  0  0  0  0  0  0  0  0  0  0  0
   -0.0008    2.8944   -0.0051 C   0  0  0  0  0  0  0  0  0  0  0  0
    0.9146    3.2018    0.2033 H   0  0  0  0  0  0  0  0  0  0  0  0
   -0.6488    3.2026    0.6743 H   0  0  0  0  0  0  0  0  0  0  0  0
   -0.2897    3.3259   -0.9634 H   0  0  0  0  0  0  0  0  0  0  0  0
   -0.0004    1.3943    0.0001 C   0  0  0  0  0  0  0  0  0  0  0  0
   -1.1910    0.6889    0.0001 C   0  0  0  0  0  0  0  0  0  0  0  0
   -2.0598    1.1807   -0.0014 H   0  0  0  0  0  0  0  0  0  0  0  0
   -1.1942   -0.6931    0.0000 C   0  0  0  0  0  0  0  0  0  0  0  0
   -2.0729   -1.1892    0.0008 H   0  0  0  0  0  0  0  0  0  0  0  0
    0.0008   -1.3861   -0.0002 C   0  0  0  0  0  0  0  0  0  0  0  0
   -0.0046   -2.3875   -0.0008 H   0  0  0  0  0  0  0  0  0  0  0  0
    1.1942   -0.6941   -0.0000 C   0  0  0  0  0  0  0  0  0  0  0  0
    2.0782   -1.1922    0.0013 H   0  0  0  0  0  0  0  0  0  0  0  0
    1.1906    0.6901    0.0000 C   0  0  0  0  0  0  0  0  0  0  0  0
    2.0604    1.1875   -0.0013 H   0  0  0  0  0  0  0  0  0  0  0  0
  1  5  1  0
  5  8  1  0
  1  2  1  0
  1  3  1  0
  1  4  1  0
  5  6  1  0
  5  7  1  0
  8  9  1  0
  8 10  1  0
  8 11  1  0
 12 16  1  0
 16 17  2  0
 17 19  1  0
 19 21  2  0
 21 23  1  0
 23 25  2  0
 25 16  1  0
 12 13  1  0
 12 14  1  0
 12 15  1  0
 17 18  1  0
 19 20  1  0
 21 22  1  0
 23 24  1  0
 25 26  1  0
M  CHG  1   8   1
M  END
>  <PDB_ID>  (1964) 
pdb4fuq

>  <RESIDUE_NAME>  (1964) 
LYS   PHE

>  <FRAG_NAME>  (1964) 
ETAM   MBZ

>  <FRAG_ATOM_NUM>  (1964) 
fragi: 11  fragj: 15

>  <atom.prop.CHAIN_ID>  (1964) 
A A A A A A A A A A A Z Z Z Z Z Z Z Z Z Z Z Z Z Z Z

>  <atom.prop.IS_HEAVY_ATOM>  (1964) 
1 0 0 0 1 0 0 1 0 0 0 1 0 0 0 1 1 0 1 0 1 0 1 0 1 0

>  <DIFUSE_FUNC_ATOM>  (1964) 
n/a

>  <FINAL_SINGLE_POINT_ENERGY>  (1964) 
0

>  <NONCOV_INTER_ENERGY_QM>  (1964) 
0

>  <FF_Energy>  (1964) 
-4.53

>  <QM_Energy>  (1964) 
-10.75

>  <source>  (1964) 
ETAM_MBZ

>  <Index>  (1964) 
20124

$$$$
ETAM-pdb4fuq-D-LYS-473:MBZ-pdb4fuq-D-PHE-437
     RDKit          3D

 26 25  0  0  0  0  0  0  0  0999 V2000
    3.6218   -1.3800    3.3953 C   0  0  0  0  0  0  0  0  0  0  0  0
    3.8471   -2.0249    2.6670 H   0  0  0  0  0  0  0  0  0  0  0  0
    3.7815   -1.8063    4.2839 H   0  0  0  0  0  0  0  0  0  0  0  0
    4.2639   -0.5041    3.3024 H   0  0  0  0  0  0  0  0  0  0  0  0
    2.1528   -1.0239    3.2882 C   0  0  0  0  0  0  0  0  0  0  0  0
    1.8886   -0.4781    4.0793 H   0  0  0  0  0  0  0  0  0  0  0  0
    2.0005   -0.5047    2.4513 H   0  0  0  0  0  0  0  0  0  0  0  0
    1.3243   -2.2640    3.2516 N   0  0  0  0  0  4  0  0  0  0  0  0
    1.8585   -3.0281    3.6102 H   0  0  0  0  0  0  0  0  0  0  0  0
    0.5077   -2.1316    3.8119 H   0  0  0  0  0  0  0  0  0  0  0  0
    1.0567   -2.4542    2.3085 H   0  0  0  0  0  0  0  0  0  0  0  0
   -0.0024    2.9024   -0.0031 C   0  0  0  0  0  0  0  0  0  0  0  0
    0.9331    3.2092    0.0734 H   0  0  0  0  0  0  0  0  0  0  0  0
   -0.5477    3.2075    0.7623 H   0  0  0  0  0  0  0  0  0  0  0  0
   -0.4247    3.3368   -0.9092 H   0  0  0  0  0  0  0  0  0  0  0  0
    0.0004    1.3980   -0.0004 C   0  0  0  0  0  0  0  0  0  0  0  0
   -1.1923    0.6897   -0.0005 C   0  0  0  0  0  0  0  0  0  0  0  0
   -2.0600    1.1801   -0.0022 H   0  0  0  0  0  0  0  0  0  0  0  0
   -1.1955   -0.6962   -0.0000 C   0  0  0  0  0  0  0  0  0  0  0  0
   -2.0744   -1.1907   -0.0003 H   0  0  0  0  0  0  0  0  0  0  0  0
   -0.0008   -1.3886    0.0024 C   0  0  0  0  0  0  0  0  0  0  0  0
   -0.0033   -2.3893    0.0053 H   0  0  0  0  0  0  0  0  0  0  0  0
    1.1955   -0.6954    0.0000 C   0  0  0  0  0  0  0  0  0  0  0  0
    2.0788   -1.1936    0.0007 H   0  0  0  0  0  0  0  0  0  0  0  0
    1.1927    0.6923   -0.0016 C   0  0  0  0  0  0  0  0  0  0  0  0
    2.0620    1.1878   -0.0045 H   0  0  0  0  0  0  0  0  0  0  0  0
  1  5  1  0
  5  8  1  0
  1  2  1  0
  1  3  1  0
  1  4  1  0
  5  6  1  0
  5  7  1  0
  8  9  1  0
  8 10  1  0
  8 11  1  0
 12 16  1  0
 16 17  2  0
 17 19  1  0
 19 21  2  0
 21 23  1  0
 23 25  2  0
 25 16  1  0
 12 13  1  0
 12 14  1  0
 12 15  1  0
 17 18  1  0
 19 20  1  0
 21 22  1  0
 23 24  1  0
 25 26  1  0
M  CHG  1   8   1
M  END
>  <PDB_ID>  (1965) 
pdb4fuq

>  <RESIDUE_NAME>  (1965) 
LYS   PHE

>  <FRAG_NAME>  (1965) 
ETAM   MBZ

>  <FRAG_ATOM_NUM>  (1965) 
fragi: 11  fragj: 15

>  <atom.prop.CHAIN_ID>  (1965) 
A A A A A A A A A A A Z Z Z Z Z Z Z Z Z Z Z Z Z Z Z

>  <atom.prop.IS_HEAVY_ATOM>  (1965) 
1 0 0 0 1 0 0 1 0 0 0 1 0 0 0 1 1 0 1 0 1 0 1 0 1 0

>  <DIFUSE_FUNC_ATOM>  (1965) 
n/a

>  <FINAL_SINGLE_POINT_ENERGY>  (1965) 
0

>  <NONCOV_INTER_ENERGY_QM>  (1965) 
0

>  <FF_Energy>  (1965) 
-3.47

>  <QM_Energy>  (1965) 
-10.12

>  <source>  (1965) 
ETAM_MBZ

>  <Index>  (1965) 
20131

$$$$
ETAM-pdb3ird-A-LYS-67:MBZ-pdb3ird-A-PHE-63
     RDKit          3D

 26 25  0  0  0  0  0  0  0  0999 V2000
    0.3061   -2.2986    4.3631 C   0  0  0  0  0  0  0  0  0  0  0  0
    0.9994   -2.9159    4.7409 H   0  0  0  0  0  0  0  0  0  0  0  0
   -0.2308   -1.9099    5.1151 H   0  0  0  0  0  0  0  0  0  0  0  0
    0.8217   -1.4820    3.8577 H   0  0  0  0  0  0  0  0  0  0  0  0
   -0.6296   -3.1072    3.4617 C   0  0  0  0  0  0  0  0  0  0  0  0
   -0.1398   -3.3198    2.5999 H   0  0  0  0  0  0  0  0  0  0  0  0
   -0.8303   -3.9903    3.9183 H   0  0  0  0  0  0  0  0  0  0  0  0
   -1.9131   -2.4265    3.1357 N   0  0  0  0  0  4  0  0  0  0  0  0
   -2.2082   -1.8822    3.9199 H   0  0  0  0  0  0  0  0  0  0  0  0
   -1.7804   -1.8297    2.3452 H   0  0  0  0  0  0  0  0  0  0  0  0
   -2.6079   -3.1134    2.9246 H   0  0  0  0  0  0  0  0  0  0  0  0
   -0.0076    2.9358   -0.0399 C   0  0  0  0  0  0  0  0  0  0  0  0
   -0.7566    3.2103   -0.6254 H   0  0  0  0  0  0  0  0  0  0  0  0
    0.8630    3.2228   -0.4125 H   0  0  0  0  0  0  0  0  0  0  0  0
   -0.1394    3.4084    0.9334 H   0  0  0  0  0  0  0  0  0  0  0  0
   -0.0020    1.4187    0.0081 C   0  0  0  0  0  0  0  0  0  0  0  0
   -1.2133    0.6964    0.0122 C   0  0  0  0  0  0  0  0  0  0  0  0
   -2.0778    1.1838    0.0229 H   0  0  0  0  0  0  0  0  0  0  0  0
   -1.2312   -0.7224    0.0000 C   0  0  0  0  0  0  0  0  0  0  0  0
   -2.0936   -1.2078    0.0099 H   0  0  0  0  0  0  0  0  0  0  0  0
    0.0010   -1.4277   -0.0248 C   0  0  0  0  0  0  0  0  0  0  0  0
    0.0222   -2.4034   -0.0583 H   0  0  0  0  0  0  0  0  0  0  0  0
    1.2312   -0.6752   -0.0000 C   0  0  0  0  0  0  0  0  0  0  0  0
    2.1053   -1.1813    0.0153 H   0  0  0  0  0  0  0  0  0  0  0  0
    1.2143    0.7103    0.0045 C   0  0  0  0  0  0  0  0  0  0  0  0
    2.0719    1.2219    0.0041 H   0  0  0  0  0  0  0  0  0  0  0  0
  1  5  1  0
  5  8  1  0
  1  2  1  0
  1  3  1  0
  1  4  1  0
  5  6  1  0
  5  7  1  0
  8  9  1  0
  8 10  1  0
  8 11  1  0
 12 16  1  0
 16 17  2  0
 17 19  1  0
 19 21  2  0
 21 23  1  0
 23 25  2  0
 25 16  1  0
 12 13  1  0
 12 14  1  0
 12 15  1  0
 17 18  1  0
 19 20  1  0
 21 22  1  0
 23 24  1  0
 25 26  1  0
M  CHG  1   8   1
M  END
>  <PDB_ID>  (1966) 
pdb3ird

>  <RESIDUE_NAME>  (1966) 
LYS   PHE

>  <FRAG_NAME>  (1966) 
ETAM   MBZ

>  <FRAG_ATOM_NUM>  (1966) 
fragi: 11  fragj: 15

>  <atom.prop.CHAIN_ID>  (1966) 
A A A A A A A A A A A Z Z Z Z Z Z Z Z Z Z Z Z Z Z Z

>  <atom.prop.IS_HEAVY_ATOM>  (1966) 
1 0 0 0 1 0 0 1 0 0 0 1 0 0 0 1 1 0 1 0 1 0 1 0 1 0

>  <DIFUSE_FUNC_ATOM>  (1966) 
n/a

>  <FINAL_SINGLE_POINT_ENERGY>  (1966) 
0

>  <NONCOV_INTER_ENERGY_QM>  (1966) 
0

>  <FF_Energy>  (1966) 
-3.32

>  <QM_Energy>  (1966) 
-10.02

>  <source>  (1966) 
ETAM_MBZ

>  <Index>  (1966) 
20143

$$$$
ETAM-pdb3iru-B-LYS-3:MBZ-pdb3iru-A-PHE-244
     RDKit          3D

 26 25  0  0  0  0  0  0  0  0999 V2000
   -0.9935    0.8841    3.8458 C   0  0  0  0  0  0  0  0  0  0  0  0
   -1.1533    0.7791    4.8167 H   0  0  0  0  0  0  0  0  0  0  0  0
   -1.7987    0.6446    3.3220 H   0  0  0  0  0  0  0  0  0  0  0  0
   -0.6946    1.9088    3.6253 H   0  0  0  0  0  0  0  0  0  0  0  0
    0.1297   -0.0694    3.4470 C   0  0  0  0  0  0  0  0  0  0  0  0
    0.4325    0.1580    2.5283 H   0  0  0  0  0  0  0  0  0  0  0  0
    0.8786    0.0277    4.0935 H   0  0  0  0  0  0  0  0  0  0  0  0
   -0.3751   -1.4622    3.4756 N   0  0  0  0  0  4  0  0  0  0  0  0
    0.3527   -2.0882    3.1920 H   0  0  0  0  0  0  0  0  0  0  0  0
   -0.6689   -1.6934    4.4040 H   0  0  0  0  0  0  0  0  0  0  0  0
   -1.1513   -1.5500    2.8507 H   0  0  0  0  0  0  0  0  0  0  0  0
   -0.0047    2.8972   -0.0044 C   0  0  0  0  0  0  0  0  0  0  0  0
    0.9063    3.2126   -0.2184 H   0  0  0  0  0  0  0  0  0  0  0  0
   -0.2970    3.2101    0.8854 H   0  0  0  0  0  0  0  0  0  0  0  0
   -0.6827    3.3252   -0.7428 H   0  0  0  0  0  0  0  0  0  0  0  0
    0.0019    1.4049   -0.0003 C   0  0  0  0  0  0  0  0  0  0  0  0
   -1.1925    0.6971   -0.0031 C   0  0  0  0  0  0  0  0  0  0  0  0
   -2.0612    1.1870   -0.0086 H   0  0  0  0  0  0  0  0  0  0  0  0
   -1.2053   -0.6998   -0.0000 C   0  0  0  0  0  0  0  0  0  0  0  0
   -2.0796   -1.1894   -0.0046 H   0  0  0  0  0  0  0  0  0  0  0  0
    0.0029   -1.4052    0.0118 C   0  0  0  0  0  0  0  0  0  0  0  0
   -0.0024   -2.3982    0.0275 H   0  0  0  0  0  0  0  0  0  0  0  0
    1.2053   -0.7004    0.0000 C   0  0  0  0  0  0  0  0  0  0  0  0
    2.0875   -1.1861   -0.0009 H   0  0  0  0  0  0  0  0  0  0  0  0
    1.1877    0.7035   -0.0083 C   0  0  0  0  0  0  0  0  0  0  0  0
    2.0628    1.1948   -0.0214 H   0  0  0  0  0  0  0  0  0  0  0  0
  1  5  1  0
  5  8  1  0
  1  2  1  0
  1  3  1  0
  1  4  1  0
  5  6  1  0
  5  7  1  0
  8  9  1  0
  8 10  1  0
  8 11  1  0
 12 16  1  0
 16 17  2  0
 17 19  1  0
 19 21  2  0
 21 23  1  0
 23 25  2  0
 25 16  1  0
 12 13  1  0
 12 14  1  0
 12 15  1  0
 17 18  1  0
 19 20  1  0
 21 22  1  0
 23 24  1  0
 25 26  1  0
M  CHG  1   8   1
M  END
>  <PDB_ID>  (1967) 
pdb3iru

>  <RESIDUE_NAME>  (1967) 
LYS   PHE

>  <FRAG_NAME>  (1967) 
ETAM   MBZ

>  <FRAG_ATOM_NUM>  (1967) 
fragi: 11  fragj: 15

>  <atom.prop.CHAIN_ID>  (1967) 
A A A A A A A A A A A Z Z Z Z Z Z Z Z Z Z Z Z Z Z Z

>  <atom.prop.IS_HEAVY_ATOM>  (1967) 
1 0 0 0 1 0 0 1 0 0 0 1 0 0 0 1 1 0 1 0 1 0 1 0 1 0

>  <DIFUSE_FUNC_ATOM>  (1967) 
n/a

>  <FINAL_SINGLE_POINT_ENERGY>  (1967) 
0

>  <NONCOV_INTER_ENERGY_QM>  (1967) 
0

>  <FF_Energy>  (1967) 
-6.57

>  <QM_Energy>  (1967) 
-13.81

>  <source>  (1967) 
ETAM_MBZ

>  <Index>  (1967) 
20160

$$$$
ETAM-pdb4fyp-B-LYS-109:MBZ-pdb4fyp-B-PHE-106
     RDKit          3D

 26 25  0  0  0  0  0  0  0  0999 V2000
    0.4614    0.1134    4.3885 C   0  0  0  0  0  0  0  0  0  0  0  0
    0.3851   -0.4632    5.1903 H   0  0  0  0  0  0  0  0  0  0  0  0
   -0.3736    0.0952    3.8565 H   0  0  0  0  0  0  0  0  0  0  0  0
    0.6451    1.1373    4.7139 H   0  0  0  0  0  0  0  0  0  0  0  0
    1.6045   -0.3852    3.5297 C   0  0  0  0  0  0  0  0  0  0  0  0
    1.4998   -0.0193    2.5997 H   0  0  0  0  0  0  0  0  0  0  0  0
    2.4716   -0.0492    3.9110 H   0  0  0  0  0  0  0  0  0  0  0  0
    1.6449   -1.8700    3.4660 N   0  0  0  0  0  4  0  0  0  0  0  0
    1.9578   -2.1559    2.5605 H   0  0  0  0  0  0  0  0  0  0  0  0
    2.2747   -2.2157    4.1615 H   0  0  0  0  0  0  0  0  0  0  0  0
    0.7289   -2.2345    3.6337 H   0  0  0  0  0  0  0  0  0  0  0  0
   -0.0285    2.8927    0.0881 C   0  0  0  0  0  0  0  0  0  0  0  0
   -0.6574    3.2369   -0.5766 H   0  0  0  0  0  0  0  0  0  0  0  0
    0.8824    3.2272   -0.0329 H   0  0  0  0  0  0  0  0  0  0  0  0
   -0.3747    3.2003    1.0749 H   0  0  0  0  0  0  0  0  0  0  0  0
   -0.0011    1.4040   -0.0165 C   0  0  0  0  0  0  0  0  0  0  0  0
   -1.2048    0.6783    0.0074 C   0  0  0  0  0  0  0  0  0  0  0  0
   -2.0696    1.1706    0.0288 H   0  0  0  0  0  0  0  0  0  0  0  0
   -1.2061   -0.7117   -0.0000 C   0  0  0  0  0  0  0  0  0  0  0  0
   -2.0770   -1.2097    0.0047 H   0  0  0  0  0  0  0  0  0  0  0  0
    0.0013   -1.3936   -0.0124 C   0  0  0  0  0  0  0  0  0  0  0  0
    0.0104   -2.3933   -0.0306 H   0  0  0  0  0  0  0  0  0  0  0  0
    1.2061   -0.6868    0.0000 C   0  0  0  0  0  0  0  0  0  0  0  0
    2.0877   -1.1844   -0.0054 H   0  0  0  0  0  0  0  0  0  0  0  0
    1.2046    0.7098    0.0215 C   0  0  0  0  0  0  0  0  0  0  0  0
    2.0642    1.2050    0.0628 H   0  0  0  0  0  0  0  0  0  0  0  0
  1  5  1  0
  5  8  1  0
  1  2  1  0
  1  3  1  0
  1  4  1  0
  5  6  1  0
  5  7  1  0
  8  9  1  0
  8 10  1  0
  8 11  1  0
 12 16  1  0
 16 17  2  0
 17 19  1  0
 19 21  2  0
 21 23  1  0
 23 25  2  0
 25 16  1  0
 12 13  1  0
 12 14  1  0
 12 15  1  0
 17 18  1  0
 19 20  1  0
 21 22  1  0
 23 24  1  0
 25 26  1  0
M  CHG  1   8   1
M  END
>  <PDB_ID>  (1968) 
pdb4fyp

>  <RESIDUE_NAME>  (1968) 
LYS   PHE

>  <FRAG_NAME>  (1968) 
ETAM   MBZ

>  <FRAG_ATOM_NUM>  (1968) 
fragi: 11  fragj: 15

>  <atom.prop.CHAIN_ID>  (1968) 
A A A A A A A A A A A Z Z Z Z Z Z Z Z Z Z Z Z Z Z Z

>  <atom.prop.IS_HEAVY_ATOM>  (1968) 
1 0 0 0 1 0 0 1 0 0 0 1 0 0 0 1 1 0 1 0 1 0 1 0 1 0

>  <DIFUSE_FUNC_ATOM>  (1968) 
n/a

>  <FINAL_SINGLE_POINT_ENERGY>  (1968) 
0

>  <NONCOV_INTER_ENERGY_QM>  (1968) 
0

>  <FF_Energy>  (1968) 
-4.0

>  <QM_Energy>  (1968) 
-9.95

>  <source>  (1968) 
ETAM_MBZ

>  <Index>  (1968) 
20168

$$$$
ETAM-pdb4fmt-A-LYS-123:MBZ-pdb4fmt-A-PHE-92
     RDKit          3D

 26 25  0  0  0  0  0  0  0  0999 V2000
   -3.5692   -3.1426   -0.1707 C   0  0  0  0  0  0  0  0  0  0  0  0
   -2.8472   -2.5405   -0.5461 H   0  0  0  0  0  0  0  0  0  0  0  0
   -3.8621   -2.7531    0.7167 H   0  0  0  0  0  0  0  0  0  0  0  0
   -4.4208   -3.1072   -0.8501 H   0  0  0  0  0  0  0  0  0  0  0  0
   -2.9950   -4.5062    0.0610 C   0  0  0  0  0  0  0  0  0  0  0  0
   -2.8738   -4.9728   -0.8253 H   0  0  0  0  0  0  0  0  0  0  0  0
   -2.0878   -4.4180    0.4930 H   0  0  0  0  0  0  0  0  0  0  0  0
   -3.8593   -5.3432    0.9284 N   0  0  0  0  0  4  0  0  0  0  0  0
   -3.3276   -6.1101    1.2885 H   0  0  0  0  0  0  0  0  0  0  0  0
   -4.2039   -4.7919    1.6884 H   0  0  0  0  0  0  0  0  0  0  0  0
   -4.6292   -5.6930    0.3951 H   0  0  0  0  0  0  0  0  0  0  0  0
    0.0033    2.9063    0.0120 C   0  0  0  0  0  0  0  0  0  0  0  0
   -0.7381    3.2141   -0.5739 H   0  0  0  0  0  0  0  0  0  0  0  0
    0.8787    3.2127   -0.3445 H   0  0  0  0  0  0  0  0  0  0  0  0
   -0.1342    3.3708    0.9884 H   0  0  0  0  0  0  0  0  0  0  0  0
    0.0015    1.4021    0.0115 C   0  0  0  0  0  0  0  0  0  0  0  0
   -1.1941    0.6932   -0.0029 C   0  0  0  0  0  0  0  0  0  0  0  0
   -2.0615    1.1797   -0.0167 H   0  0  0  0  0  0  0  0  0  0  0  0
   -1.1946   -0.6995    0.0000 C   0  0  0  0  0  0  0  0  0  0  0  0
   -2.0740   -1.1912    0.0169 H   0  0  0  0  0  0  0  0  0  0  0  0
    0.0002   -1.3897   -0.0184 C   0  0  0  0  0  0  0  0  0  0  0  0
   -0.0037   -2.3916   -0.0458 H   0  0  0  0  0  0  0  0  0  0  0  0
    1.1946   -0.6998    0.0000 C   0  0  0  0  0  0  0  0  0  0  0  0
    2.0787   -1.1950    0.0077 H   0  0  0  0  0  0  0  0  0  0  0  0
    1.1924    0.6936    0.0098 C   0  0  0  0  0  0  0  0  0  0  0  0
    2.0640    1.1857    0.0146 H   0  0  0  0  0  0  0  0  0  0  0  0
  1  5  1  0
  5  8  1  0
  1  2  1  0
  1  3  1  0
  1  4  1  0
  5  6  1  0
  5  7  1  0
  8  9  1  0
  8 10  1  0
  8 11  1  0
 12 16  1  0
 16 17  2  0
 17 19  1  0
 19 21  2  0
 21 23  1  0
 23 25  2  0
 25 16  1  0
 12 13  1  0
 12 14  1  0
 12 15  1  0
 17 18  1  0
 19 20  1  0
 21 22  1  0
 23 24  1  0
 25 26  1  0
M  CHG  1   8   1
M  END
>  <PDB_ID>  (1969) 
pdb4fmt

>  <RESIDUE_NAME>  (1969) 
LYS   PHE

>  <FRAG_NAME>  (1969) 
ETAM   MBZ

>  <FRAG_ATOM_NUM>  (1969) 
fragi: 11  fragj: 15

>  <atom.prop.CHAIN_ID>  (1969) 
A A A A A A A A A A A Z Z Z Z Z Z Z Z Z Z Z Z Z Z Z

>  <atom.prop.IS_HEAVY_ATOM>  (1969) 
1 0 0 0 1 0 0 1 0 0 0 1 0 0 0 1 1 0 1 0 1 0 1 0 1 0

>  <DIFUSE_FUNC_ATOM>  (1969) 
n/a

>  <FINAL_SINGLE_POINT_ENERGY>  (1969) 
0

>  <NONCOV_INTER_ENERGY_QM>  (1969) 
0

>  <FF_Energy>  (1969) 
10.91

>  <QM_Energy>  (1969) 
0.9

>  <source>  (1969) 
ETAM_MBZ

>  <Index>  (1969) 
20171

$$$$
ETAM-pdb4fz2-B-LYS-282:MBZ-pdb4fz2-B-PHE-229
     RDKit          3D

 26 25  0  0  0  0  0  0  0  0999 V2000
    0.1788   -0.3268    3.6086 C   0  0  0  0  0  0  0  0  0  0  0  0
   -0.4468    0.2175    3.0697 H   0  0  0  0  0  0  0  0  0  0  0  0
    1.1031    0.0193    3.5463 H   0  0  0  0  0  0  0  0  0  0  0  0
   -0.1418   -0.3204    4.6504 H   0  0  0  0  0  0  0  0  0  0  0  0
    0.1620   -1.7545    3.0688 C   0  0  0  0  0  0  0  0  0  0  0  0
    0.2491   -1.7225    2.0692 H   0  0  0  0  0  0  0  0  0  0  0  0
    0.9479   -2.2526    3.4466 H   0  0  0  0  0  0  0  0  0  0  0  0
   -1.0930   -2.4759    3.4284 N   0  0  0  0  0  4  0  0  0  0  0  0
   -1.0954   -3.3725    2.9884 H   0  0  0  0  0  0  0  0  0  0  0  0
   -1.1367   -2.5885    4.4203 H   0  0  0  0  0  0  0  0  0  0  0  0
   -1.8794   -1.9455    3.1155 H   0  0  0  0  0  0  0  0  0  0  0  0
   -0.0003    2.8955   -0.0013 C   0  0  0  0  0  0  0  0  0  0  0  0
    0.9249    3.2048   -0.1626 H   0  0  0  0  0  0  0  0  0  0  0  0
   -0.3358    3.2039    0.8753 H   0  0  0  0  0  0  0  0  0  0  0  0
   -0.6344    3.3356   -0.7709 H   0  0  0  0  0  0  0  0  0  0  0  0
    0.0004    1.3954   -0.0013 C   0  0  0  0  0  0  0  0  0  0  0  0
   -1.1913    0.6897    0.0038 C   0  0  0  0  0  0  0  0  0  0  0  0
   -2.0595    1.1815    0.0089 H   0  0  0  0  0  0  0  0  0  0  0  0
   -1.1944   -0.6938   -0.0000 C   0  0  0  0  0  0  0  0  0  0  0  0
   -2.0730   -1.1903   -0.0000 H   0  0  0  0  0  0  0  0  0  0  0  0
    0.0019   -1.3883   -0.0023 C   0  0  0  0  0  0  0  0  0  0  0  0
   -0.0032   -2.3879   -0.0060 H   0  0  0  0  0  0  0  0  0  0  0  0
    1.1944   -0.6938    0.0000 C   0  0  0  0  0  0  0  0  0  0  0  0
    2.0798   -1.1910    0.0036 H   0  0  0  0  0  0  0  0  0  0  0  0
    1.1890    0.6909   -0.0002 C   0  0  0  0  0  0  0  0  0  0  0  0
    2.0605    1.1881   -0.0003 H   0  0  0  0  0  0  0  0  0  0  0  0
  1  5  1  0
  5  8  1  0
  1  2  1  0
  1  3  1  0
  1  4  1  0
  5  6  1  0
  5  7  1  0
  8  9  1  0
  8 10  1  0
  8 11  1  0
 12 16  1  0
 16 17  2  0
 17 19  1  0
 19 21  2  0
 21 23  1  0
 23 25  2  0
 25 16  1  0
 12 13  1  0
 12 14  1  0
 12 15  1  0
 17 18  1  0
 19 20  1  0
 21 22  1  0
 23 24  1  0
 25 26  1  0
M  CHG  1   8   1
M  END
>  <PDB_ID>  (1970) 
pdb4fz2

>  <RESIDUE_NAME>  (1970) 
LYS   PHE

>  <FRAG_NAME>  (1970) 
ETAM   MBZ

>  <FRAG_ATOM_NUM>  (1970) 
fragi: 11  fragj: 15

>  <atom.prop.CHAIN_ID>  (1970) 
A A A A A A A A A A A Z Z Z Z Z Z Z Z Z Z Z Z Z Z Z

>  <atom.prop.IS_HEAVY_ATOM>  (1970) 
1 0 0 0 1 0 0 1 0 0 0 1 0 0 0 1 1 0 1 0 1 0 1 0 1 0

>  <DIFUSE_FUNC_ATOM>  (1970) 
n/a

>  <FINAL_SINGLE_POINT_ENERGY>  (1970) 
0

>  <NONCOV_INTER_ENERGY_QM>  (1970) 
0

>  <FF_Energy>  (1970) 
7.44

>  <QM_Energy>  (1970) 
-6.99

>  <source>  (1970) 
ETAM_MBZ

>  <Index>  (1970) 
20180

$$$$
ETAM-pdb3it9-A-LYS-35:MBZ-pdb3it9-A-PHE-155
     RDKit          3D

 26 25  0  0  0  0  0  0  0  0999 V2000
   -0.8399    0.3943   -3.5662 C   0  0  0  0  0  0  0  0  0  0  0  0
   -0.0989    0.2847   -4.2290 H   0  0  0  0  0  0  0  0  0  0  0  0
   -0.4572    0.4527   -2.6444 H   0  0  0  0  0  0  0  0  0  0  0  0
   -1.3752    1.3181   -3.7856 H   0  0  0  0  0  0  0  0  0  0  0  0
   -1.7386   -0.8066   -3.6422 C   0  0  0  0  0  0  0  0  0  0  0  0
   -2.5060   -0.6896   -3.0139 H   0  0  0  0  0  0  0  0  0  0  0  0
   -2.0817   -0.9088   -4.5746 H   0  0  0  0  0  0  0  0  0  0  0  0
   -0.9868   -2.0345   -3.2660 N   0  0  0  0  0  4  0  0  0  0  0  0
   -0.8988   -2.0779   -2.2710 H   0  0  0  0  0  0  0  0  0  0  0  0
   -1.4810   -2.8398   -3.5935 H   0  0  0  0  0  0  0  0  0  0  0  0
   -0.0780   -2.0080   -3.6815 H   0  0  0  0  0  0  0  0  0  0  0  0
   -0.0026    2.9015    0.0054 C   0  0  0  0  0  0  0  0  0  0  0  0
   -0.6433    3.2124   -0.6801 H   0  0  0  0  0  0  0  0  0  0  0  0
    0.9142    3.2150   -0.1919 H   0  0  0  0  0  0  0  0  0  0  0  0
   -0.3028    3.3350    0.9593 H   0  0  0  0  0  0  0  0  0  0  0  0
    0.0016    1.4070   -0.0002 C   0  0  0  0  0  0  0  0  0  0  0  0
   -1.2002    0.6909   -0.0009 C   0  0  0  0  0  0  0  0  0  0  0  0
   -2.0661    1.1797   -0.0032 H   0  0  0  0  0  0  0  0  0  0  0  0
   -1.2058   -0.7076   -0.0000 C   0  0  0  0  0  0  0  0  0  0  0  0
   -2.0813   -1.1979    0.0036 H   0  0  0  0  0  0  0  0  0  0  0  0
   -0.0027   -1.4002   -0.0018 C   0  0  0  0  0  0  0  0  0  0  0  0
    0.0022   -2.3965   -0.0046 H   0  0  0  0  0  0  0  0  0  0  0  0
    1.2058   -0.6940    0.0000 C   0  0  0  0  0  0  0  0  0  0  0  0
    2.0858   -1.1914    0.0001 H   0  0  0  0  0  0  0  0  0  0  0  0
    1.2012    0.7040    0.0029 C   0  0  0  0  0  0  0  0  0  0  0  0
    2.0677    1.1977    0.0061 H   0  0  0  0  0  0  0  0  0  0  0  0
  1  5  1  0
  5  8  1  0
  1  2  1  0
  1  3  1  0
  1  4  1  0
  5  6  1  0
  5  7  1  0
  8  9  1  0
  8 10  1  0
  8 11  1  0
 12 16  1  0
 16 17  2  0
 17 19  1  0
 19 21  2  0
 21 23  1  0
 23 25  2  0
 25 16  1  0
 12 13  1  0
 12 14  1  0
 12 15  1  0
 17 18  1  0
 19 20  1  0
 21 22  1  0
 23 24  1  0
 25 26  1  0
M  CHG  1   8   1
M  END
>  <PDB_ID>  (1971) 
pdb3it9

>  <RESIDUE_NAME>  (1971) 
LYS   PHE

>  <FRAG_NAME>  (1971) 
ETAM   MBZ

>  <FRAG_ATOM_NUM>  (1971) 
fragi: 11  fragj: 15

>  <atom.prop.CHAIN_ID>  (1971) 
A A A A A A A A A A A Z Z Z Z Z Z Z Z Z Z Z Z Z Z Z

>  <atom.prop.IS_HEAVY_ATOM>  (1971) 
1 0 0 0 1 0 0 1 0 0 0 1 0 0 0 1 1 0 1 0 1 0 1 0 1 0

>  <DIFUSE_FUNC_ATOM>  (1971) 
n/a

>  <FINAL_SINGLE_POINT_ENERGY>  (1971) 
0

>  <NONCOV_INTER_ENERGY_QM>  (1971) 
0

>  <FF_Energy>  (1971) 
-5.54

>  <QM_Energy>  (1971) 
-13.34

>  <source>  (1971) 
ETAM_MBZ

>  <Index>  (1971) 
20200

$$$$
ETAM-pdb4g1g-A-LYS-251:MBZ-pdb4g1g-A-PHE-254
     RDKit          3D

 26 25  0  0  0  0  0  0  0  0999 V2000
   -5.6736    3.3399   -0.0477 C   0  0  0  0  0  0  0  0  0  0  0  0
   -6.4064    2.7364   -0.3343 H   0  0  0  0  0  0  0  0  0  0  0  0
   -5.7130    4.2012   -0.5366 H   0  0  0  0  0  0  0  0  0  0  0  0
   -5.7662    3.5306    1.0215 H   0  0  0  0  0  0  0  0  0  0  0  0
   -4.3414    2.6668   -0.3625 C   0  0  0  0  0  0  0  0  0  0  0  0
   -4.1206    2.8260   -1.3305 H   0  0  0  0  0  0  0  0  0  0  0  0
   -3.6244    3.0908    0.2018 H   0  0  0  0  0  0  0  0  0  0  0  0
   -4.3681    1.2026   -0.1010 N   0  0  0  0  0  4  0  0  0  0  0  0
   -4.7884    1.0326    0.7897 H   0  0  0  0  0  0  0  0  0  0  0  0
   -4.9003    0.7480   -0.8143 H   0  0  0  0  0  0  0  0  0  0  0  0
   -3.4330    0.8476   -0.1032 H   0  0  0  0  0  0  0  0  0  0  0  0
   -0.0218    2.9375    0.0018 C   0  0  0  0  0  0  0  0  0  0  0  0
   -0.9253    3.2308    0.2721 H   0  0  0  0  0  0  0  0  0  0  0  0
    0.2010    3.2413   -0.9103 H   0  0  0  0  0  0  0  0  0  0  0  0
    0.6909    3.4005    0.6844 H   0  0  0  0  0  0  0  0  0  0  0  0
   -0.0043    1.4136    0.0043 C   0  0  0  0  0  0  0  0  0  0  0  0
   -1.2088    0.6920   -0.0033 C   0  0  0  0  0  0  0  0  0  0  0  0
   -2.0736    1.1793   -0.0130 H   0  0  0  0  0  0  0  0  0  0  0  0
   -1.2062   -0.7049    0.0000 C   0  0  0  0  0  0  0  0  0  0  0  0
   -2.0768   -1.2031    0.0048 H   0  0  0  0  0  0  0  0  0  0  0  0
    0.0067   -1.3968   -0.0008 C   0  0  0  0  0  0  0  0  0  0  0  0
    0.0042   -2.3963   -0.0029 H   0  0  0  0  0  0  0  0  0  0  0  0
    1.2062   -0.6965   -0.0000 C   0  0  0  0  0  0  0  0  0  0  0  0
    2.0889   -1.1966    0.0020 H   0  0  0  0  0  0  0  0  0  0  0  0
    1.2064    0.6926   -0.0001 C   0  0  0  0  0  0  0  0  0  0  0  0
    2.0689    1.1927   -0.0038 H   0  0  0  0  0  0  0  0  0  0  0  0
  1  5  1  0
  5  8  1  0
  1  2  1  0
  1  3  1  0
  1  4  1  0
  5  6  1  0
  5  7  1  0
  8  9  1  0
  8 10  1  0
  8 11  1  0
 12 16  1  0
 16 17  2  0
 17 19  1  0
 19 21  2  0
 21 23  1  0
 23 25  2  0
 25 16  1  0
 12 13  1  0
 12 14  1  0
 12 15  1  0
 17 18  1  0
 19 20  1  0
 21 22  1  0
 23 24  1  0
 25 26  1  0
M  CHG  1   8   1
M  END
>  <PDB_ID>  (1972) 
pdb4g1g

>  <RESIDUE_NAME>  (1972) 
LYS   PHE

>  <FRAG_NAME>  (1972) 
ETAM   MBZ

>  <FRAG_ATOM_NUM>  (1972) 
fragi: 11  fragj: 15

>  <atom.prop.CHAIN_ID>  (1972) 
A A A A A A A A A A A Z Z Z Z Z Z Z Z Z Z Z Z Z Z Z

>  <atom.prop.IS_HEAVY_ATOM>  (1972) 
1 0 0 0 1 0 0 1 0 0 0 1 0 0 0 1 1 0 1 0 1 0 1 0 1 0

>  <DIFUSE_FUNC_ATOM>  (1972) 
n/a

>  <FINAL_SINGLE_POINT_ENERGY>  (1972) 
0

>  <NONCOV_INTER_ENERGY_QM>  (1972) 
0

>  <FF_Energy>  (1972) 
5.33

>  <QM_Energy>  (1972) 
-0.61

>  <source>  (1972) 
ETAM_MBZ

>  <Index>  (1972) 
20204

$$$$
ETAM-pdb3isq-A-LYS-237:MBZ-pdb3isq-A-PHE-209
     RDKit          3D

 26 25  0  0  0  0  0  0  0  0999 V2000
    1.5387   -1.6944   -3.8775 C   0  0  0  0  0  0  0  0  0  0  0  0
    1.6207   -2.3618   -4.5967 H   0  0  0  0  0  0  0  0  0  0  0  0
    2.3295   -1.6830   -3.2914 H   0  0  0  0  0  0  0  0  0  0  0  0
    1.3797   -0.7051   -4.3067 H   0  0  0  0  0  0  0  0  0  0  0  0
    0.3115   -2.0890   -3.0057 C   0  0  0  0  0  0  0  0  0  0  0  0
    0.6404   -2.1759   -2.0281 H   0  0  0  0  0  0  0  0  0  0  0  0
   -0.3292   -1.2752   -2.9839 H   0  0  0  0  0  0  0  0  0  0  0  0
   -0.4963   -3.3169   -3.3432 N   0  0  0  0  0  4  0  0  0  0  0  0
   -1.4315   -3.1826   -3.0282 H   0  0  0  0  0  0  0  0  0  0  0  0
   -0.4836   -3.4496   -4.3305 H   0  0  0  0  0  0  0  0  0  0  0  0
   -0.0906   -4.1042   -2.8869 H   0  0  0  0  0  0  0  0  0  0  0  0
    0.0114    2.9053   -0.0554 C   0  0  0  0  0  0  0  0  0  0  0  0
   -0.6179    3.1805   -0.7738 H   0  0  0  0  0  0  0  0  0  0  0  0
    0.9374    3.1936   -0.2743 H   0  0  0  0  0  0  0  0  0  0  0  0
   -0.2894    3.4000    0.8681 H   0  0  0  0  0  0  0  0  0  0  0  0
    0.0059    1.3978    0.0018 C   0  0  0  0  0  0  0  0  0  0  0  0
   -1.1902    0.7084   -0.0094 C   0  0  0  0  0  0  0  0  0  0  0  0
   -2.0537    1.2045   -0.0257 H   0  0  0  0  0  0  0  0  0  0  0  0
   -1.2031   -0.6769   -0.0000 C   0  0  0  0  0  0  0  0  0  0  0  0
   -2.0896   -1.1647   -0.0093 H   0  0  0  0  0  0  0  0  0  0  0  0
   -0.0159   -1.3932    0.0238 C   0  0  0  0  0  0  0  0  0  0  0  0
   -0.0313   -2.3893    0.0575 H   0  0  0  0  0  0  0  0  0  0  0  0
    1.2031   -0.7118   -0.0000 C   0  0  0  0  0  0  0  0  0  0  0  0
    2.0716   -1.2181   -0.0041 H   0  0  0  0  0  0  0  0  0  0  0  0
    1.2002    0.6757   -0.0162 C   0  0  0  0  0  0  0  0  0  0  0  0
    2.0716    1.1719   -0.0421 H   0  0  0  0  0  0  0  0  0  0  0  0
  1  5  1  0
  5  8  1  0
  1  2  1  0
  1  3  1  0
  1  4  1  0
  5  6  1  0
  5  7  1  0
  8  9  1  0
  8 10  1  0
  8 11  1  0
 12 16  1  0
 16 17  2  0
 17 19  1  0
 19 21  2  0
 21 23  1  0
 23 25  2  0
 25 16  1  0
 12 13  1  0
 12 14  1  0
 12 15  1  0
 17 18  1  0
 19 20  1  0
 21 22  1  0
 23 24  1  0
 25 26  1  0
M  CHG  1   8   1
M  END
>  <PDB_ID>  (1973) 
pdb3isq

>  <RESIDUE_NAME>  (1973) 
LYS   PHE

>  <FRAG_NAME>  (1973) 
ETAM   MBZ

>  <FRAG_ATOM_NUM>  (1973) 
fragi: 11  fragj: 15

>  <atom.prop.CHAIN_ID>  (1973) 
A A A A A A A A A A A Z Z Z Z Z Z Z Z Z Z Z Z Z Z Z

>  <atom.prop.IS_HEAVY_ATOM>  (1973) 
1 0 0 0 1 0 0 1 0 0 0 1 0 0 0 1 1 0 1 0 1 0 1 0 1 0

>  <DIFUSE_FUNC_ATOM>  (1973) 
n/a

>  <FINAL_SINGLE_POINT_ENERGY>  (1973) 
0

>  <NONCOV_INTER_ENERGY_QM>  (1973) 
0

>  <FF_Energy>  (1973) 
1.38

>  <QM_Energy>  (1973) 
-5.27

>  <source>  (1973) 
ETAM_MBZ

>  <Index>  (1973) 
20206

$$$$
ETAM-pdb4g23-A-LYS-200:MBZ-pdb4g23-A-PHE-196
     RDKit          3D

 26 25  0  0  0  0  0  0  0  0999 V2000
   -0.6144    0.3887    4.3712 C   0  0  0  0  0  0  0  0  0  0  0  0
   -0.5354    1.3422    4.1115 H   0  0  0  0  0  0  0  0  0  0  0  0
   -0.3202    0.2499    5.3067 H   0  0  0  0  0  0  0  0  0  0  0  0
   -1.6580    0.0868    4.2823 H   0  0  0  0  0  0  0  0  0  0  0  0
    0.2655   -0.4423    3.4536 C   0  0  0  0  0  0  0  0  0  0  0  0
    0.1078   -1.4240    3.6496 H   0  0  0  0  0  0  0  0  0  0  0  0
   -0.0146   -0.2769    2.4936 H   0  0  0  0  0  0  0  0  0  0  0  0
    1.7278   -0.1568    3.5820 N   0  0  0  0  0  4  0  0  0  0  0  0
    2.0688   -0.5655    4.4271 H   0  0  0  0  0  0  0  0  0  0  0  0
    2.2088   -0.5484    2.7993 H   0  0  0  0  0  0  0  0  0  0  0  0
    1.8682    0.8316    3.6047 H   0  0  0  0  0  0  0  0  0  0  0  0
    0.0596    2.9085   -0.0315 C   0  0  0  0  0  0  0  0  0  0  0  0
    0.4093    3.1762   -0.9230 H   0  0  0  0  0  0  0  0  0  0  0  0
    0.6784    3.2075    0.6878 H   0  0  0  0  0  0  0  0  0  0  0  0
   -0.8953    3.4121    0.1183 H   0  0  0  0  0  0  0  0  0  0  0  0
    0.0029    1.4049    0.0072 C   0  0  0  0  0  0  0  0  0  0  0  0
   -1.2010    0.6958   -0.0146 C   0  0  0  0  0  0  0  0  0  0  0  0
   -2.0625    1.1869   -0.0417 H   0  0  0  0  0  0  0  0  0  0  0  0
   -1.2006   -0.6936   -0.0000 C   0  0  0  0  0  0  0  0  0  0  0  0
   -2.0765   -1.1909    0.0080 H   0  0  0  0  0  0  0  0  0  0  0  0
    0.0024   -1.3926    0.0056 C   0  0  0  0  0  0  0  0  0  0  0  0
   -0.0067   -2.3918    0.0133 H   0  0  0  0  0  0  0  0  0  0  0  0
    1.2006   -0.7003   -0.0000 C   0  0  0  0  0  0  0  0  0  0  0  0
    2.0820   -1.1992   -0.0036 H   0  0  0  0  0  0  0  0  0  0  0  0
    1.1957    0.6857    0.0018 C   0  0  0  0  0  0  0  0  0  0  0  0
    2.0672    1.1833   -0.0014 H   0  0  0  0  0  0  0  0  0  0  0  0
  1  5  1  0
  5  8  1  0
  1  2  1  0
  1  3  1  0
  1  4  1  0
  5  6  1  0
  5  7  1  0
  8  9  1  0
  8 10  1  0
  8 11  1  0
 12 16  1  0
 16 17  2  0
 17 19  1  0
 19 21  2  0
 21 23  1  0
 23 25  2  0
 25 16  1  0
 12 13  1  0
 12 14  1  0
 12 15  1  0
 17 18  1  0
 19 20  1  0
 21 22  1  0
 23 24  1  0
 25 26  1  0
M  CHG  1   8   1
M  END
>  <PDB_ID>  (1974) 
pdb4g23

>  <RESIDUE_NAME>  (1974) 
LYS   PHE

>  <FRAG_NAME>  (1974) 
ETAM   MBZ

>  <FRAG_ATOM_NUM>  (1974) 
fragi: 11  fragj: 15

>  <atom.prop.CHAIN_ID>  (1974) 
A A A A A A A A A A A Z Z Z Z Z Z Z Z Z Z Z Z Z Z Z

>  <atom.prop.IS_HEAVY_ATOM>  (1974) 
1 0 0 0 1 0 0 1 0 0 0 1 0 0 0 1 1 0 1 0 1 0 1 0 1 0

>  <DIFUSE_FUNC_ATOM>  (1974) 
n/a

>  <FINAL_SINGLE_POINT_ENERGY>  (1974) 
0

>  <NONCOV_INTER_ENERGY_QM>  (1974) 
0

>  <FF_Energy>  (1974) 
-5.82

>  <QM_Energy>  (1974) 
-12.14

>  <source>  (1974) 
ETAM_MBZ

>  <Index>  (1974) 
20213

$$$$
ETAM-pdb4g22-A-LYS-268:MBZ-pdb4g22-A-PHE-430
     RDKit          3D

 26 25  0  0  0  0  0  0  0  0999 V2000
    0.1092   -0.3049    3.5227 C   0  0  0  0  0  0  0  0  0  0  0  0
    0.1007    0.1770    4.3866 H   0  0  0  0  0  0  0  0  0  0  0  0
   -0.0792    0.3072    2.7687 H   0  0  0  0  0  0  0  0  0  0  0  0
    1.1078   -0.7176    3.3792 H   0  0  0  0  0  0  0  0  0  0  0  0
   -0.9762   -1.4052    3.5546 C   0  0  0  0  0  0  0  0  0  0  0  0
   -0.8765   -1.9802    2.7666 H   0  0  0  0  0  0  0  0  0  0  0  0
   -0.9071   -1.9028    4.3967 H   0  0  0  0  0  0  0  0  0  0  0  0
   -2.3452   -0.7227    3.4964 N   0  0  0  0  0  4  0  0  0  0  0  0
   -2.6155   -0.6498    2.5434 H   0  0  0  0  0  0  0  0  0  0  0  0
   -2.9923   -1.2807    4.0025 H   0  0  0  0  0  0  0  0  0  0  0  0
   -2.2614    0.1773    3.9068 H   0  0  0  0  0  0  0  0  0  0  0  0
    0.0417    2.9218   -0.0874 C   0  0  0  0  0  0  0  0  0  0  0  0
    0.8763    3.1835   -0.5230 H   0  0  0  0  0  0  0  0  0  0  0  0
   -0.0374    3.2490    0.8288 H   0  0  0  0  0  0  0  0  0  0  0  0
   -0.7849    3.3344   -0.6659 H   0  0  0  0  0  0  0  0  0  0  0  0
    0.0051    1.3873   -0.0375 C   0  0  0  0  0  0  0  0  0  0  0  0
   -1.2323    0.7080   -0.0361 C   0  0  0  0  0  0  0  0  0  0  0  0
   -2.0708    1.1936   -0.0604 H   0  0  0  0  0  0  0  0  0  0  0  0
   -1.2107   -0.6960   -0.0000 C   0  0  0  0  0  0  0  0  0  0  0  0
   -2.0606   -1.2128   -0.0360 H   0  0  0  0  0  0  0  0  0  0  0  0
    0.0365   -1.3754    0.0903 C   0  0  0  0  0  0  0  0  0  0  0  0
    0.0168   -2.3717    0.2216 H   0  0  0  0  0  0  0  0  0  0  0  0
    1.2107   -0.6931    0.0000 C   0  0  0  0  0  0  0  0  0  0  0  0
    2.0970   -1.1889   -0.0532 H   0  0  0  0  0  0  0  0  0  0  0  0
    1.1907    0.6692   -0.0167 C   0  0  0  0  0  0  0  0  0  0  0  0
    2.0650    1.1828   -0.0143 H   0  0  0  0  0  0  0  0  0  0  0  0
  1  5  1  0
  5  8  1  0
  1  2  1  0
  1  3  1  0
  1  4  1  0
  5  6  1  0
  5  7  1  0
  8  9  1  0
  8 10  1  0
  8 11  1  0
 12 16  1  0
 16 17  2  0
 17 19  1  0
 19 21  2  0
 21 23  1  0
 23 25  2  0
 25 16  1  0
 12 13  1  0
 12 14  1  0
 12 15  1  0
 17 18  1  0
 19 20  1  0
 21 22  1  0
 23 24  1  0
 25 26  1  0
M  CHG  1   8   1
M  END
>  <PDB_ID>  (1975) 
pdb4g22

>  <RESIDUE_NAME>  (1975) 
LYS   PHE

>  <FRAG_NAME>  (1975) 
ETAM   MBZ

>  <FRAG_ATOM_NUM>  (1975) 
fragi: 11  fragj: 15

>  <atom.prop.CHAIN_ID>  (1975) 
A A A A A A A A A A A Z Z Z Z Z Z Z Z Z Z Z Z Z Z Z

>  <atom.prop.IS_HEAVY_ATOM>  (1975) 
1 0 0 0 1 0 0 1 0 0 0 1 0 0 0 1 1 0 1 0 1 0 1 0 1 0

>  <DIFUSE_FUNC_ATOM>  (1975) 
n/a

>  <FINAL_SINGLE_POINT_ENERGY>  (1975) 
0

>  <NONCOV_INTER_ENERGY_QM>  (1975) 
0

>  <FF_Energy>  (1975) 
-5.05

>  <QM_Energy>  (1975) 
-11.36

>  <source>  (1975) 
ETAM_MBZ

>  <Index>  (1975) 
20214

$$$$
ETAM-pdb4fr4-C-LYS-184:MBZ-pdb4fr4-F-PHE-290
     RDKit          3D

 26 25  0  0  0  0  0  0  0  0999 V2000
    1.8981    1.7664   -4.3591 C   0  0  0  0  0  0  0  0  0  0  0  0
    2.2355    1.9249   -3.4295 H   0  0  0  0  0  0  0  0  0  0  0  0
    1.2266    2.4707   -4.5919 H   0  0  0  0  0  0  0  0  0  0  0  0
    2.7370    1.8431   -5.0507 H   0  0  0  0  0  0  0  0  0  0  0  0
    1.2395    0.4248   -4.4174 C   0  0  0  0  0  0  0  0  0  0  0  0
    0.6988    0.3503   -5.2632 H   0  0  0  0  0  0  0  0  0  0  0  0
    1.9416   -0.2964   -4.4238 H   0  0  0  0  0  0  0  0  0  0  0  0
    0.3310    0.1935   -3.2508 N   0  0  0  0  0  4  0  0  0  0  0  0
    0.4273   -0.7512   -2.9428 H   0  0  0  0  0  0  0  0  0  0  0  0
    0.5816    0.8165   -2.5127 H   0  0  0  0  0  0  0  0  0  0  0  0
   -0.6117    0.3635   -3.5316 H   0  0  0  0  0  0  0  0  0  0  0  0
   -0.0059    2.8934   -0.0021 C   0  0  0  0  0  0  0  0  0  0  0  0
   -0.8802    3.1972   -0.3530 H   0  0  0  0  0  0  0  0  0  0  0  0
    0.7376    3.2080   -0.5746 H   0  0  0  0  0  0  0  0  0  0  0  0
    0.1273    3.3326    0.9866 H   0  0  0  0  0  0  0  0  0  0  0  0
    0.0037    1.3990   -0.0048 C   0  0  0  0  0  0  0  0  0  0  0  0
   -1.2027    0.6708   -0.0055 C   0  0  0  0  0  0  0  0  0  0  0  0
   -2.0670    1.1635   -0.0111 H   0  0  0  0  0  0  0  0  0  0  0  0
   -1.2018   -0.7172   -0.0000 C   0  0  0  0  0  0  0  0  0  0  0  0
   -2.0693   -1.2172    0.0010 H   0  0  0  0  0  0  0  0  0  0  0  0
    0.0066   -1.3851    0.0066 C   0  0  0  0  0  0  0  0  0  0  0  0
    0.0242   -2.3877    0.0154 H   0  0  0  0  0  0  0  0  0  0  0  0
    1.2018   -0.6727    0.0000 C   0  0  0  0  0  0  0  0  0  0  0  0
    2.0879   -1.1727   -0.0060 H   0  0  0  0  0  0  0  0  0  0  0  0
    1.1924    0.7052    0.0037 C   0  0  0  0  0  0  0  0  0  0  0  0
    2.0616    1.2070    0.0123 H   0  0  0  0  0  0  0  0  0  0  0  0
  1  5  1  0
  5  8  1  0
  1  2  1  0
  1  3  1  0
  1  4  1  0
  5  6  1  0
  5  7  1  0
  8  9  1  0
  8 10  1  0
  8 11  1  0
 12 16  1  0
 16 17  2  0
 17 19  1  0
 19 21  2  0
 21 23  1  0
 23 25  2  0
 25 16  1  0
 12 13  1  0
 12 14  1  0
 12 15  1  0
 17 18  1  0
 19 20  1  0
 21 22  1  0
 23 24  1  0
 25 26  1  0
M  CHG  1   8   1
M  END
>  <PDB_ID>  (1976) 
pdb4fr4

>  <RESIDUE_NAME>  (1976) 
LYS   PHE

>  <FRAG_NAME>  (1976) 
ETAM   MBZ

>  <FRAG_ATOM_NUM>  (1976) 
fragi: 11  fragj: 15

>  <atom.prop.CHAIN_ID>  (1976) 
A A A A A A A A A A A Z Z Z Z Z Z Z Z Z Z Z Z Z Z Z

>  <atom.prop.IS_HEAVY_ATOM>  (1976) 
1 0 0 0 1 0 0 1 0 0 0 1 0 0 0 1 1 0 1 0 1 0 1 0 1 0

>  <DIFUSE_FUNC_ATOM>  (1976) 
n/a

>  <FINAL_SINGLE_POINT_ENERGY>  (1976) 
0

>  <NONCOV_INTER_ENERGY_QM>  (1976) 
0

>  <FF_Energy>  (1976) 
-9.05

>  <QM_Energy>  (1976) 
-15.68

>  <source>  (1976) 
ETAM_MBZ

>  <Index>  (1976) 
20217

$$$$
ETAM-pdb4g2v-A-LYS-340:MBZ-pdb4g2v-A-PHE-337
     RDKit          3D

 26 25  0  0  0  0  0  0  0  0999 V2000
   -2.8798    1.3858   -3.1543 C   0  0  0  0  0  0  0  0  0  0  0  0
   -3.1573    1.4158   -2.1925 H   0  0  0  0  0  0  0  0  0  0  0  0
   -3.4156    0.6879   -3.6315 H   0  0  0  0  0  0  0  0  0  0  0  0
   -3.0856    2.3557   -3.6072 H   0  0  0  0  0  0  0  0  0  0  0  0
   -1.4190    1.0077   -3.2245 C   0  0  0  0  0  0  0  0  0  0  0  0
   -1.1346    0.9712   -4.1830 H   0  0  0  0  0  0  0  0  0  0  0  0
   -0.8763    1.6987   -2.7449 H   0  0  0  0  0  0  0  0  0  0  0  0
   -1.1876   -0.3176   -2.5964 N   0  0  0  0  0  4  0  0  0  0  0  0
   -1.2352   -0.2271   -1.6012 H   0  0  0  0  0  0  0  0  0  0  0  0
   -1.8882   -0.9605   -2.9070 H   0  0  0  0  0  0  0  0  0  0  0  0
   -0.2833   -0.6568   -2.8575 H   0  0  0  0  0  0  0  0  0  0  0  0
   -0.0051    2.8971   -0.0066 C   0  0  0  0  0  0  0  0  0  0  0  0
    0.9069    3.2077    0.2123 H   0  0  0  0  0  0  0  0  0  0  0  0
   -0.6629    3.2049    0.6632 H   0  0  0  0  0  0  0  0  0  0  0  0
   -0.2823    3.3269   -0.9692 H   0  0  0  0  0  0  0  0  0  0  0  0
   -0.0002    1.3965    0.0005 C   0  0  0  0  0  0  0  0  0  0  0  0
   -1.1917    0.6900   -0.0003 C   0  0  0  0  0  0  0  0  0  0  0  0
   -2.0599    1.1800   -0.0018 H   0  0  0  0  0  0  0  0  0  0  0  0
   -1.1945   -0.6949   -0.0000 C   0  0  0  0  0  0  0  0  0  0  0  0
   -2.0736   -1.1903    0.0007 H   0  0  0  0  0  0  0  0  0  0  0  0
    0.0007   -1.3883    0.0007 C   0  0  0  0  0  0  0  0  0  0  0  0
   -0.0036   -2.3883    0.0014 H   0  0  0  0  0  0  0  0  0  0  0  0
    1.1945   -0.6947   -0.0000 C   0  0  0  0  0  0  0  0  0  0  0  0
    2.0788   -1.1928    0.0015 H   0  0  0  0  0  0  0  0  0  0  0  0
    1.1912    0.6914   -0.0010 C   0  0  0  0  0  0  0  0  0  0  0  0
    2.0611    1.1881   -0.0036 H   0  0  0  0  0  0  0  0  0  0  0  0
  1  5  1  0
  5  8  1  0
  1  2  1  0
  1  3  1  0
  1  4  1  0
  5  6  1  0
  5  7  1  0
  8  9  1  0
  8 10  1  0
  8 11  1  0
 12 16  1  0
 16 17  2  0
 17 19  1  0
 19 21  2  0
 21 23  1  0
 23 25  2  0
 25 16  1  0
 12 13  1  0
 12 14  1  0
 12 15  1  0
 17 18  1  0
 19 20  1  0
 21 22  1  0
 23 24  1  0
 25 26  1  0
M  CHG  1   8   1
M  END
>  <PDB_ID>  (1977) 
pdb4g2v

>  <RESIDUE_NAME>  (1977) 
LYS   PHE

>  <FRAG_NAME>  (1977) 
ETAM   MBZ

>  <FRAG_ATOM_NUM>  (1977) 
fragi: 11  fragj: 15

>  <atom.prop.CHAIN_ID>  (1977) 
A A A A A A A A A A A Z Z Z Z Z Z Z Z Z Z Z Z Z Z Z

>  <atom.prop.IS_HEAVY_ATOM>  (1977) 
1 0 0 0 1 0 0 1 0 0 0 1 0 0 0 1 1 0 1 0 1 0 1 0 1 0

>  <DIFUSE_FUNC_ATOM>  (1977) 
n/a

>  <FINAL_SINGLE_POINT_ENERGY>  (1977) 
0

>  <NONCOV_INTER_ENERGY_QM>  (1977) 
0

>  <FF_Energy>  (1977) 
4.09

>  <QM_Energy>  (1977) 
-6.98

>  <source>  (1977) 
ETAM_MBZ

>  <Index>  (1977) 
20225

$$$$
ETAM-pdb3iuo-B-LYS-689:MBZ-pdb3iuo-B-PHE-685
     RDKit          3D

 26 25  0  0  0  0  0  0  0  0999 V2000
    0.6169    0.6552    4.8372 C   0  0  0  0  0  0  0  0  0  0  0  0
    0.8307    1.5293    4.4162 H   0  0  0  0  0  0  0  0  0  0  0  0
    1.0448    0.5843    5.7312 H   0  0  0  0  0  0  0  0  0  0  0  0
   -0.4635    0.5907    4.9662 H   0  0  0  0  0  0  0  0  0  0  0  0
    1.1230   -0.4557    3.9565 C   0  0  0  0  0  0  0  0  0  0  0  0
    2.1113   -0.4482    3.9583 H   0  0  0  0  0  0  0  0  0  0  0  0
    0.7707   -1.3194    4.2862 H   0  0  0  0  0  0  0  0  0  0  0  0
    0.6241   -0.1962    2.6043 N   0  0  0  0  0  4  0  0  0  0  0  0
    0.4024    0.7772    2.5012 H   0  0  0  0  0  0  0  0  0  0  0  0
    1.3219   -0.4446    1.9271 H   0  0  0  0  0  0  0  0  0  0  0  0
   -0.2031   -0.7383    2.4335 H   0  0  0  0  0  0  0  0  0  0  0  0
    0.0801    2.9523   -0.0218 C   0  0  0  0  0  0  0  0  0  0  0  0
    0.1505    3.2182   -0.9775 H   0  0  0  0  0  0  0  0  0  0  0  0
    0.8980    3.2232    0.4747 H   0  0  0  0  0  0  0  0  0  0  0  0
   -0.7648    3.4878    0.4112 H   0  0  0  0  0  0  0  0  0  0  0  0
    0.0041    1.4248    0.0232 C   0  0  0  0  0  0  0  0  0  0  0  0
   -1.1748    0.7278   -0.0322 C   0  0  0  0  0  0  0  0  0  0  0  0
   -2.0505    1.1906   -0.0975 H   0  0  0  0  0  0  0  0  0  0  0  0
   -1.1877   -0.7106   -0.0000 C   0  0  0  0  0  0  0  0  0  0  0  0
   -2.0873   -1.1636    0.0151 H   0  0  0  0  0  0  0  0  0  0  0  0
   -0.0216   -1.4117    0.0105 C   0  0  0  0  0  0  0  0  0  0  0  0
   -0.0190   -2.4096    0.0247 H   0  0  0  0  0  0  0  0  0  0  0  0
    1.1877   -0.7177   -0.0000 C   0  0  0  0  0  0  0  0  0  0  0  0
    2.0656   -1.2158   -0.0052 H   0  0  0  0  0  0  0  0  0  0  0  0
    1.1922    0.6873   -0.0015 C   0  0  0  0  0  0  0  0  0  0  0  0
    2.0699    1.1701   -0.0221 H   0  0  0  0  0  0  0  0  0  0  0  0
  1  5  1  0
  5  8  1  0
  1  2  1  0
  1  3  1  0
  1  4  1  0
  5  6  1  0
  5  7  1  0
  8  9  1  0
  8 10  1  0
  8 11  1  0
 12 16  1  0
 16 17  2  0
 17 19  1  0
 19 21  2  0
 21 23  1  0
 23 25  2  0
 25 16  1  0
 12 13  1  0
 12 14  1  0
 12 15  1  0
 17 18  1  0
 19 20  1  0
 21 22  1  0
 23 24  1  0
 25 26  1  0
M  CHG  1   8   1
M  END
>  <PDB_ID>  (1978) 
pdb3iuo

>  <RESIDUE_NAME>  (1978) 
LYS   PHE

>  <FRAG_NAME>  (1978) 
ETAM   MBZ

>  <FRAG_ATOM_NUM>  (1978) 
fragi: 11  fragj: 15

>  <atom.prop.CHAIN_ID>  (1978) 
A A A A A A A A A A A Z Z Z Z Z Z Z Z Z Z Z Z Z Z Z

>  <atom.prop.IS_HEAVY_ATOM>  (1978) 
1 0 0 0 1 0 0 1 0 0 0 1 0 0 0 1 1 0 1 0 1 0 1 0 1 0

>  <DIFUSE_FUNC_ATOM>  (1978) 
n/a

>  <FINAL_SINGLE_POINT_ENERGY>  (1978) 
0

>  <NONCOV_INTER_ENERGY_QM>  (1978) 
0

>  <FF_Energy>  (1978) 
-0.22

>  <QM_Energy>  (1978) 
-10.05

>  <source>  (1978) 
ETAM_MBZ

>  <Index>  (1978) 
20228

$$$$
ETAM-pdb3ivz-B-LYS-90:MBZ-pdb3ivz-B-PHE-57
     RDKit          3D

 26 25  0  0  0  0  0  0  0  0999 V2000
   -1.2467   -1.9076    4.2938 C   0  0  0  0  0  0  0  0  0  0  0  0
   -1.3137   -1.7810    5.2710 H   0  0  0  0  0  0  0  0  0  0  0  0
   -0.5474   -2.5645    4.0601 H   0  0  0  0  0  0  0  0  0  0  0  0
   -2.2063   -2.2611    3.9166 H   0  0  0  0  0  0  0  0  0  0  0  0
   -0.8922   -0.5696    3.6519 C   0  0  0  0  0  0  0  0  0  0  0  0
   -1.5763   -0.3648    2.9425 H   0  0  0  0  0  0  0  0  0  0  0  0
   -0.9435    0.1469    4.3578 H   0  0  0  0  0  0  0  0  0  0  0  0
    0.4552   -0.5746    3.0516 N   0  0  0  0  0  4  0  0  0  0  0  0
    0.6796   -1.4977    2.7320 H   0  0  0  0  0  0  0  0  0  0  0  0
    0.4820    0.0582    2.2756 H   0  0  0  0  0  0  0  0  0  0  0  0
    1.1310   -0.2886    3.7343 H   0  0  0  0  0  0  0  0  0  0  0  0
   -0.0035    2.9133    0.0080 C   0  0  0  0  0  0  0  0  0  0  0  0
   -0.5180    3.2161   -0.7764 H   0  0  0  0  0  0  0  0  0  0  0  0
    0.9338    3.2177   -0.0300 H   0  0  0  0  0  0  0  0  0  0  0  0
   -0.4622    3.3437    0.8982 H   0  0  0  0  0  0  0  0  0  0  0  0
    0.0023    1.3977    0.0010 C   0  0  0  0  0  0  0  0  0  0  0  0
   -1.1927    0.6858   -0.0061 C   0  0  0  0  0  0  0  0  0  0  0  0
   -2.0610    1.1815   -0.0172 H   0  0  0  0  0  0  0  0  0  0  0  0
   -1.2044   -0.7000   -0.0000 C   0  0  0  0  0  0  0  0  0  0  0  0
   -2.0830   -1.1897    0.0069 H   0  0  0  0  0  0  0  0  0  0  0  0
   -0.0118   -1.3890   -0.0016 C   0  0  0  0  0  0  0  0  0  0  0  0
   -0.0025   -2.3881   -0.0042 H   0  0  0  0  0  0  0  0  0  0  0  0
    1.2044   -0.6861    0.0000 C   0  0  0  0  0  0  0  0  0  0  0  0
    2.0774   -1.1970   -0.0019 H   0  0  0  0  0  0  0  0  0  0  0  0
    1.2022    0.6916    0.0067 C   0  0  0  0  0  0  0  0  0  0  0  0
    2.0663    1.1943    0.0149 H   0  0  0  0  0  0  0  0  0  0  0  0
  1  5  1  0
  5  8  1  0
  1  2  1  0
  1  3  1  0
  1  4  1  0
  5  6  1  0
  5  7  1  0
  8  9  1  0
  8 10  1  0
  8 11  1  0
 12 16  1  0
 16 17  2  0
 17 19  1  0
 19 21  2  0
 21 23  1  0
 23 25  2  0
 25 16  1  0
 12 13  1  0
 12 14  1  0
 12 15  1  0
 17 18  1  0
 19 20  1  0
 21 22  1  0
 23 24  1  0
 25 26  1  0
M  CHG  1   8   1
M  END
>  <PDB_ID>  (1979) 
pdb3ivz

>  <RESIDUE_NAME>  (1979) 
LYS   PHE

>  <FRAG_NAME>  (1979) 
ETAM   MBZ

>  <FRAG_ATOM_NUM>  (1979) 
fragi: 11  fragj: 15

>  <atom.prop.CHAIN_ID>  (1979) 
A A A A A A A A A A A Z Z Z Z Z Z Z Z Z Z Z Z Z Z Z

>  <atom.prop.IS_HEAVY_ATOM>  (1979) 
1 0 0 0 1 0 0 1 0 0 0 1 0 0 0 1 1 0 1 0 1 0 1 0 1 0

>  <DIFUSE_FUNC_ATOM>  (1979) 
n/a

>  <FINAL_SINGLE_POINT_ENERGY>  (1979) 
0

>  <NONCOV_INTER_ENERGY_QM>  (1979) 
0

>  <FF_Energy>  (1979) 
-8.94

>  <QM_Energy>  (1979) 
-17.29

>  <source>  (1979) 
ETAM_MBZ

>  <Index>  (1979) 
20236

$$$$
ETAM-pdb3iwf-A-LYS-68:MBZ-pdb3iwf-A-PHE-64
     RDKit          3D

 26 25  0  0  0  0  0  0  0  0999 V2000
    0.6880   -1.9244    3.7156 C   0  0  0  0  0  0  0  0  0  0  0  0
    1.0022   -2.5623    4.4158 H   0  0  0  0  0  0  0  0  0  0  0  0
    0.2993   -2.4281    2.9473 H   0  0  0  0  0  0  0  0  0  0  0  0
   -0.0998   -1.3084    4.1494 H   0  0  0  0  0  0  0  0  0  0  0  0
    1.8303   -1.0970    3.2445 C   0  0  0  0  0  0  0  0  0  0  0  0
    1.5466   -0.5204    2.4892 H   0  0  0  0  0  0  0  0  0  0  0  0
    2.1887   -0.5509    3.9902 H   0  0  0  0  0  0  0  0  0  0  0  0
    2.9071   -2.0198    2.7660 N   0  0  0  0  0  4  0  0  0  0  0  0
    3.6038   -2.1057    3.4758 H   0  0  0  0  0  0  0  0  0  0  0  0
    2.5088   -2.9149    2.5728 H   0  0  0  0  0  0  0  0  0  0  0  0
    3.3146   -1.6442    1.9362 H   0  0  0  0  0  0  0  0  0  0  0  0
    0.0006    2.9004   -0.0323 C   0  0  0  0  0  0  0  0  0  0  0  0
   -0.4667    3.1931   -0.8573 H   0  0  0  0  0  0  0  0  0  0  0  0
    0.9433    3.2098   -0.0334 H   0  0  0  0  0  0  0  0  0  0  0  0
   -0.5001    3.3674    0.8158 H   0  0  0  0  0  0  0  0  0  0  0  0
    0.0003    1.4072   -0.0008 C   0  0  0  0  0  0  0  0  0  0  0  0
   -1.1953    0.7003   -0.0062 C   0  0  0  0  0  0  0  0  0  0  0  0
   -2.0645    1.1804   -0.0156 H   0  0  0  0  0  0  0  0  0  0  0  0
   -1.2004   -0.7104    0.0000 C   0  0  0  0  0  0  0  0  0  0  0  0
   -2.0794   -1.1925   -0.0011 H   0  0  0  0  0  0  0  0  0  0  0  0
   -0.0036   -1.3987    0.0096 C   0  0  0  0  0  0  0  0  0  0  0  0
   -0.0017   -2.3999    0.0229 H   0  0  0  0  0  0  0  0  0  0  0  0
    1.2004   -0.7026   -0.0000 C   0  0  0  0  0  0  0  0  0  0  0  0
    2.0818   -1.1945   -0.0039 H   0  0  0  0  0  0  0  0  0  0  0  0
    1.1986    0.7042   -0.0027 C   0  0  0  0  0  0  0  0  0  0  0  0
    2.0657    1.1916   -0.0067 H   0  0  0  0  0  0  0  0  0  0  0  0
  1  5  1  0
  5  8  1  0
  1  2  1  0
  1  3  1  0
  1  4  1  0
  5  6  1  0
  5  7  1  0
  8  9  1  0
  8 10  1  0
  8 11  1  0
 12 16  1  0
 16 17  2  0
 17 19  1  0
 19 21  2  0
 21 23  1  0
 23 25  2  0
 25 16  1  0
 12 13  1  0
 12 14  1  0
 12 15  1  0
 17 18  1  0
 19 20  1  0
 21 22  1  0
 23 24  1  0
 25 26  1  0
M  CHG  1   8   1
M  END
>  <PDB_ID>  (1980) 
pdb3iwf

>  <RESIDUE_NAME>  (1980) 
LYS   PHE

>  <FRAG_NAME>  (1980) 
ETAM   MBZ

>  <FRAG_ATOM_NUM>  (1980) 
fragi: 11  fragj: 15

>  <atom.prop.CHAIN_ID>  (1980) 
A A A A A A A A A A A Z Z Z Z Z Z Z Z Z Z Z Z Z Z Z

>  <atom.prop.IS_HEAVY_ATOM>  (1980) 
1 0 0 0 1 0 0 1 0 0 0 1 0 0 0 1 1 0 1 0 1 0 1 0 1 0

>  <DIFUSE_FUNC_ATOM>  (1980) 
n/a

>  <FINAL_SINGLE_POINT_ENERGY>  (1980) 
0

>  <NONCOV_INTER_ENERGY_QM>  (1980) 
0

>  <FF_Energy>  (1980) 
-1.71

>  <QM_Energy>  (1980) 
-8.13

>  <source>  (1980) 
ETAM_MBZ

>  <Index>  (1980) 
20239

$$$$
ETAM-pdb4g5e-B-LYS-181:MBZ-pdb4g5e-B-PHE-263
     RDKit          3D

 26 25  0  0  0  0  0  0  0  0999 V2000
    0.0111   -3.5121    3.2869 C   0  0  0  0  0  0  0  0  0  0  0  0
    0.3905   -4.0549    4.0348 H   0  0  0  0  0  0  0  0  0  0  0  0
    0.5386   -2.6705    3.1793 H   0  0  0  0  0  0  0  0  0  0  0  0
    0.0888   -4.0904    2.3662 H   0  0  0  0  0  0  0  0  0  0  0  0
   -1.4293   -3.1403    3.6389 C   0  0  0  0  0  0  0  0  0  0  0  0
   -2.0056   -3.9607    3.5436 H   0  0  0  0  0  0  0  0  0  0  0  0
   -1.4593   -2.8448    4.6020 H   0  0  0  0  0  0  0  0  0  0  0  0
   -1.9788   -2.0549    2.7779 N   0  0  0  0  0  4  0  0  0  0  0  0
   -2.7802   -2.3955    2.2883 H   0  0  0  0  0  0  0  0  0  0  0  0
   -2.2400   -1.2791    3.3514 H   0  0  0  0  0  0  0  0  0  0  0  0
   -1.2810   -1.7684    2.1220 H   0  0  0  0  0  0  0  0  0  0  0  0
    0.0053    2.9164   -0.0363 C   0  0  0  0  0  0  0  0  0  0  0  0
    0.6974    3.2339    0.5873 H   0  0  0  0  0  0  0  0  0  0  0  0
   -0.8924    3.2306    0.2160 H   0  0  0  0  0  0  0  0  0  0  0  0
    0.2350    3.3179   -1.0233 H   0  0  0  0  0  0  0  0  0  0  0  0
   -0.0009    1.4056    0.0039 C   0  0  0  0  0  0  0  0  0  0  0  0
   -1.1939    0.6953   -0.0040 C   0  0  0  0  0  0  0  0  0  0  0  0
   -2.0627    1.1798   -0.0140 H   0  0  0  0  0  0  0  0  0  0  0  0
   -1.1940   -0.7011    0.0000 C   0  0  0  0  0  0  0  0  0  0  0  0
   -2.0727   -1.1928    0.0013 H   0  0  0  0  0  0  0  0  0  0  0  0
    0.0034   -1.3929    0.0042 C   0  0  0  0  0  0  0  0  0  0  0  0
   -0.0022   -2.3940    0.0099 H   0  0  0  0  0  0  0  0  0  0  0  0
    1.1940   -0.7009   -0.0000 C   0  0  0  0  0  0  0  0  0  0  0  0
    2.0805   -1.1935    0.0008 H   0  0  0  0  0  0  0  0  0  0  0  0
    1.1914    0.6940   -0.0041 C   0  0  0  0  0  0  0  0  0  0  0  0
    2.0624    1.1858   -0.0133 H   0  0  0  0  0  0  0  0  0  0  0  0
  1  5  1  0
  5  8  1  0
  1  2  1  0
  1  3  1  0
  1  4  1  0
  5  6  1  0
  5  7  1  0
  8  9  1  0
  8 10  1  0
  8 11  1  0
 12 16  1  0
 16 17  2  0
 17 19  1  0
 19 21  2  0
 21 23  1  0
 23 25  2  0
 25 16  1  0
 12 13  1  0
 12 14  1  0
 12 15  1  0
 17 18  1  0
 19 20  1  0
 21 22  1  0
 23 24  1  0
 25 26  1  0
M  CHG  1   8   1
M  END
>  <PDB_ID>  (1981) 
pdb4g5e

>  <RESIDUE_NAME>  (1981) 
LYS   PHE

>  <FRAG_NAME>  (1981) 
ETAM   MBZ

>  <FRAG_ATOM_NUM>  (1981) 
fragi: 11  fragj: 15

>  <atom.prop.CHAIN_ID>  (1981) 
A A A A A A A A A A A Z Z Z Z Z Z Z Z Z Z Z Z Z Z Z

>  <atom.prop.IS_HEAVY_ATOM>  (1981) 
1 0 0 0 1 0 0 1 0 0 0 1 0 0 0 1 1 0 1 0 1 0 1 0 1 0

>  <DIFUSE_FUNC_ATOM>  (1981) 
n/a

>  <FINAL_SINGLE_POINT_ENERGY>  (1981) 
0

>  <NONCOV_INTER_ENERGY_QM>  (1981) 
0

>  <FF_Energy>  (1981) 
-3.57

>  <QM_Energy>  (1981) 
-10.96

>  <source>  (1981) 
ETAM_MBZ

>  <Index>  (1981) 
20266

$$$$
ETAM-pdb4g7f-A-LYS-334:MBZ-pdb4g7f-A-PHE-299
     RDKit          3D

 26 25  0  0  0  0  0  0  0  0999 V2000
    1.1153    3.1505   -2.7956 C   0  0  0  0  0  0  0  0  0  0  0  0
    1.1922    2.3999   -2.1379 H   0  0  0  0  0  0  0  0  0  0  0  0
    0.8538    3.9882   -2.3133 H   0  0  0  0  0  0  0  0  0  0  0  0
    2.0859    3.3046   -3.2670 H   0  0  0  0  0  0  0  0  0  0  0  0
    0.0297    2.8082   -3.7924 C   0  0  0  0  0  0  0  0  0  0  0  0
   -0.0571    3.5567   -4.4513 H   0  0  0  0  0  0  0  0  0  0  0  0
    0.2806    1.9690   -4.2755 H   0  0  0  0  0  0  0  0  0  0  0  0
   -1.2702    2.6077   -3.1063 N   0  0  0  0  0  4  0  0  0  0  0  0
   -1.5152    1.6382   -3.1305 H   0  0  0  0  0  0  0  0  0  0  0  0
   -1.1957    2.9076   -2.1541 H   0  0  0  0  0  0  0  0  0  0  0  0
   -1.9781    3.1423   -3.5686 H   0  0  0  0  0  0  0  0  0  0  0  0
   -0.0115    2.9249    0.0163 C   0  0  0  0  0  0  0  0  0  0  0  0
   -0.7948    3.2245   -0.4704 H   0  0  0  0  0  0  0  0  0  0  0  0
    0.7920    3.2317   -0.4331 H   0  0  0  0  0  0  0  0  0  0  0  0
   -0.0373    3.3490    1.0201 H   0  0  0  0  0  0  0  0  0  0  0  0
   -0.0042    1.4127   -0.0014 C   0  0  0  0  0  0  0  0  0  0  0  0
   -1.1941    0.6969    0.0048 C   0  0  0  0  0  0  0  0  0  0  0  0
   -2.0006    1.1584    0.0080 H   0  0  0  0  0  0  0  0  0  0  0  0
   -1.2064   -0.6988    0.0000 C   0  0  0  0  0  0  0  0  0  0  0  0
   -2.0158   -1.1567    0.0028 H   0  0  0  0  0  0  0  0  0  0  0  0
    0.0055   -1.4137    0.0017 C   0  0  0  0  0  0  0  0  0  0  0  0
    0.0042   -2.3444   -0.0042 H   0  0  0  0  0  0  0  0  0  0  0  0
    1.2064   -0.7067    0.0000 C   0  0  0  0  0  0  0  0  0  0  0  0
    2.0158   -1.1645   -0.0053 H   0  0  0  0  0  0  0  0  0  0  0  0
    1.1928    0.7096   -0.0052 C   0  0  0  0  0  0  0  0  0  0  0  0
    1.9973    1.1758    0.0001 H   0  0  0  0  0  0  0  0  0  0  0  0
  1  5  1  0
  5  8  1  0
  1  2  1  0
  1  3  1  0
  1  4  1  0
  5  6  1  0
  5  7  1  0
  8  9  1  0
  8 10  1  0
  8 11  1  0
 12 16  1  0
 16 17  2  0
 17 19  1  0
 19 21  2  0
 21 23  1  0
 23 25  2  0
 25 16  1  0
 12 13  1  0
 12 14  1  0
 12 15  1  0
 17 18  1  0
 19 20  1  0
 21 22  1  0
 23 24  1  0
 25 26  1  0
M  CHG  1   8   1
M  END
>  <PDB_ID>  (1982) 
pdb4g7f

>  <RESIDUE_NAME>  (1982) 
LYS   PHE

>  <FRAG_NAME>  (1982) 
ETAM   MBZ

>  <FRAG_ATOM_NUM>  (1982) 
fragi: 11  fragj: 15

>  <atom.prop.CHAIN_ID>  (1982) 
A A A A A A A A A A A Z Z Z Z Z Z Z Z Z Z Z Z Z Z Z

>  <atom.prop.IS_HEAVY_ATOM>  (1982) 
1 0 0 0 1 0 0 1 0 0 0 1 0 0 0 1 1 0 1 0 1 0 1 0 1 0

>  <DIFUSE_FUNC_ATOM>  (1982) 
n/a

>  <FINAL_SINGLE_POINT_ENERGY>  (1982) 
0

>  <NONCOV_INTER_ENERGY_QM>  (1982) 
0

>  <FF_Energy>  (1982) 
2.81

>  <QM_Energy>  (1982) 
-4.53

>  <source>  (1982) 
ETAM_MBZ

>  <Index>  (1982) 
20291

$$$$
ETAM-pdb3iuc-C-LYS-353:MBZ-pdb3iuc-C-PHE-378
     RDKit          3D

 26 25  0  0  0  0  0  0  0  0999 V2000
    2.2049   -0.4981    4.4326 C   0  0  0  0  0  0  0  0  0  0  0  0
    1.9100   -0.2933    5.3650 H   0  0  0  0  0  0  0  0  0  0  0  0
    2.4994    0.3435    3.9817 H   0  0  0  0  0  0  0  0  0  0  0  0
    3.0561   -1.1771    4.4835 H   0  0  0  0  0  0  0  0  0  0  0  0
    1.0052   -1.0691    3.6580 C   0  0  0  0  0  0  0  0  0  0  0  0
    1.2547   -1.1522    2.6910 H   0  0  0  0  0  0  0  0  0  0  0  0
    0.7892   -1.9781    4.0201 H   0  0  0  0  0  0  0  0  0  0  0  0
   -0.2257   -0.1960    3.7698 N   0  0  0  0  0  4  0  0  0  0  0  0
   -0.8160   -0.5658    4.4812 H   0  0  0  0  0  0  0  0  0  0  0  0
    0.0584    0.7285    4.0053 H   0  0  0  0  0  0  0  0  0  0  0  0
   -0.6986   -0.1981    2.8939 H   0  0  0  0  0  0  0  0  0  0  0  0
    0.0065    2.8825   -0.0153 C   0  0  0  0  0  0  0  0  0  0  0  0
   -0.8200    3.1924   -0.4623 H   0  0  0  0  0  0  0  0  0  0  0  0
    0.8129    3.1840   -0.5041 H   0  0  0  0  0  0  0  0  0  0  0  0
    0.0347    3.3248    0.9805 H   0  0  0  0  0  0  0  0  0  0  0  0
   -0.0012    1.3901   -0.0050 C   0  0  0  0  0  0  0  0  0  0  0  0
   -1.1856    0.6939   -0.0079 C   0  0  0  0  0  0  0  0  0  0  0  0
   -2.0564    1.1798   -0.0169 H   0  0  0  0  0  0  0  0  0  0  0  0
   -1.1893   -0.6960   -0.0000 C   0  0  0  0  0  0  0  0  0  0  0  0
   -2.0677   -1.1875    0.0085 H   0  0  0  0  0  0  0  0  0  0  0  0
    0.0057   -1.3811   -0.0018 C   0  0  0  0  0  0  0  0  0  0  0  0
    0.0055   -2.3839   -0.0044 H   0  0  0  0  0  0  0  0  0  0  0  0
    1.1893   -0.6851    0.0000 C   0  0  0  0  0  0  0  0  0  0  0  0
    2.0767   -1.1880   -0.0080 H   0  0  0  0  0  0  0  0  0  0  0  0
    1.1812    0.6782    0.0147 C   0  0  0  0  0  0  0  0  0  0  0  0
    2.0544    1.1843    0.0402 H   0  0  0  0  0  0  0  0  0  0  0  0
  1  5  1  0
  5  8  1  0
  1  2  1  0
  1  3  1  0
  1  4  1  0
  5  6  1  0
  5  7  1  0
  8  9  1  0
  8 10  1  0
  8 11  1  0
 12 16  1  0
 16 17  2  0
 17 19  1  0
 19 21  2  0
 21 23  1  0
 23 25  2  0
 25 16  1  0
 12 13  1  0
 12 14  1  0
 12 15  1  0
 17 18  1  0
 19 20  1  0
 21 22  1  0
 23 24  1  0
 25 26  1  0
M  CHG  1   8   1
M  END
>  <PDB_ID>  (1983) 
pdb3iuc

>  <RESIDUE_NAME>  (1983) 
LYS   PHE

>  <FRAG_NAME>  (1983) 
ETAM   MBZ

>  <FRAG_ATOM_NUM>  (1983) 
fragi: 11  fragj: 15

>  <atom.prop.CHAIN_ID>  (1983) 
A A A A A A A A A A A Z Z Z Z Z Z Z Z Z Z Z Z Z Z Z

>  <atom.prop.IS_HEAVY_ATOM>  (1983) 
1 0 0 0 1 0 0 1 0 0 0 1 0 0 0 1 1 0 1 0 1 0 1 0 1 0

>  <DIFUSE_FUNC_ATOM>  (1983) 
n/a

>  <FINAL_SINGLE_POINT_ENERGY>  (1983) 
0

>  <NONCOV_INTER_ENERGY_QM>  (1983) 
0

>  <FF_Energy>  (1983) 
-7.11

>  <QM_Energy>  (1983) 
-12.45

>  <source>  (1983) 
ETAM_MBZ

>  <Index>  (1983) 
20306

$$$$
ETAM-pdb4g84-A-LYS-106:MBZ-pdb4g84-A-PHE-370
     RDKit          3D

 26 25  0  0  0  0  0  0  0  0999 V2000
    0.7840   -4.1202   -3.5718 C   0  0  0  0  0  0  0  0  0  0  0  0
    0.7440   -4.1675   -4.5634 H   0  0  0  0  0  0  0  0  0  0  0  0
   -0.0007   -4.5773   -3.1685 H   0  0  0  0  0  0  0  0  0  0  0  0
    1.6946   -4.6132   -3.2314 H   0  0  0  0  0  0  0  0  0  0  0  0
    0.7605   -2.6567   -3.1543 C   0  0  0  0  0  0  0  0  0  0  0  0
    0.8942   -2.5996   -2.1611 H   0  0  0  0  0  0  0  0  0  0  0  0
    1.5151   -2.1758   -3.6103 H   0  0  0  0  0  0  0  0  0  0  0  0
   -0.5262   -1.9954   -3.5121 N   0  0  0  0  0  4  0  0  0  0  0  0
   -1.2868   -2.5440   -3.1671 H   0  0  0  0  0  0  0  0  0  0  0  0
   -0.5557   -1.0850   -3.1006 H   0  0  0  0  0  0  0  0  0  0  0  0
   -0.5921   -1.9166   -4.5063 H   0  0  0  0  0  0  0  0  0  0  0  0
    0.0042    2.8935   -0.0074 C   0  0  0  0  0  0  0  0  0  0  0  0
    0.8294    3.2014    0.4392 H   0  0  0  0  0  0  0  0  0  0  0  0
   -0.8027    3.2052    0.4701 H   0  0  0  0  0  0  0  0  0  0  0  0
   -0.0136    3.3268   -1.0074 H   0  0  0  0  0  0  0  0  0  0  0  0
    0.0010    1.3918   -0.0003 C   0  0  0  0  0  0  0  0  0  0  0  0
   -1.1923    0.6910    0.0003 C   0  0  0  0  0  0  0  0  0  0  0  0
   -2.0577    1.1849   -0.0001 H   0  0  0  0  0  0  0  0  0  0  0  0
   -1.1942   -0.6873   -0.0000 C   0  0  0  0  0  0  0  0  0  0  0  0
   -2.0738   -1.1849   -0.0006 H   0  0  0  0  0  0  0  0  0  0  0  0
   -0.0006   -1.3812    0.0023 C   0  0  0  0  0  0  0  0  0  0  0  0
   -0.0093   -2.3844    0.0048 H   0  0  0  0  0  0  0  0  0  0  0  0
    1.1942   -0.6960   -0.0000 C   0  0  0  0  0  0  0  0  0  0  0  0
    2.0759   -1.1992    0.0016 H   0  0  0  0  0  0  0  0  0  0  0  0
    1.1919    0.6817   -0.0024 C   0  0  0  0  0  0  0  0  0  0  0  0
    2.0618    1.1813   -0.0065 H   0  0  0  0  0  0  0  0  0  0  0  0
  1  5  1  0
  5  8  1  0
  1  2  1  0
  1  3  1  0
  1  4  1  0
  5  6  1  0
  5  7  1  0
  8  9  1  0
  8 10  1  0
  8 11  1  0
 12 16  1  0
 16 17  2  0
 17 19  1  0
 19 21  2  0
 21 23  1  0
 23 25  2  0
 25 16  1  0
 12 13  1  0
 12 14  1  0
 12 15  1  0
 17 18  1  0
 19 20  1  0
 21 22  1  0
 23 24  1  0
 25 26  1  0
M  CHG  1   8   1
M  END
>  <PDB_ID>  (1984) 
pdb4g84

>  <RESIDUE_NAME>  (1984) 
LYS   PHE

>  <FRAG_NAME>  (1984) 
ETAM   MBZ

>  <FRAG_ATOM_NUM>  (1984) 
fragi: 11  fragj: 15

>  <atom.prop.CHAIN_ID>  (1984) 
A A A A A A A A A A A Z Z Z Z Z Z Z Z Z Z Z Z Z Z Z

>  <atom.prop.IS_HEAVY_ATOM>  (1984) 
1 0 0 0 1 0 0 1 0 0 0 1 0 0 0 1 1 0 1 0 1 0 1 0 1 0

>  <DIFUSE_FUNC_ATOM>  (1984) 
n/a

>  <FINAL_SINGLE_POINT_ENERGY>  (1984) 
0

>  <NONCOV_INTER_ENERGY_QM>  (1984) 
0

>  <FF_Energy>  (1984) 
-4.34

>  <QM_Energy>  (1984) 
-9.75

>  <source>  (1984) 
ETAM_MBZ

>  <Index>  (1984) 
20307

$$$$
ETAM-pdb3iwf-B-LYS-68:MBZ-pdb3iwf-B-PHE-64
     RDKit          3D

 26 25  0  0  0  0  0  0  0  0999 V2000
    0.9522   -1.9666    3.6434 C   0  0  0  0  0  0  0  0  0  0  0  0
    1.2856   -2.6500    4.2795 H   0  0  0  0  0  0  0  0  0  0  0  0
    0.5861   -2.3903    2.8268 H   0  0  0  0  0  0  0  0  0  0  0  0
    0.1591   -1.3970    4.1279 H   0  0  0  0  0  0  0  0  0  0  0  0
    2.0859   -1.0552    3.2598 C   0  0  0  0  0  0  0  0  0  0  0  0
    1.7196   -0.2490    2.7928 H   0  0  0  0  0  0  0  0  0  0  0  0
    2.5724   -0.7651    4.0856 H   0  0  0  0  0  0  0  0  0  0  0  0
    3.0359   -1.7508    2.3554 N   0  0  0  0  0  4  0  0  0  0  0  0
    3.7154   -2.2428    2.9004 H   0  0  0  0  0  0  0  0  0  0  0  0
    2.5354   -2.3989    1.7815 H   0  0  0  0  0  0  0  0  0  0  0  0
    3.4965   -1.0788    1.7756 H   0  0  0  0  0  0  0  0  0  0  0  0
   -0.0069    2.9024   -0.0082 C   0  0  0  0  0  0  0  0  0  0  0  0
   -0.5541    3.2071   -0.7728 H   0  0  0  0  0  0  0  0  0  0  0  0
    0.9283    3.2131   -0.0859 H   0  0  0  0  0  0  0  0  0  0  0  0
   -0.4279    3.3416    0.8962 H   0  0  0  0  0  0  0  0  0  0  0  0
   -0.0031    1.4041   -0.0026 C   0  0  0  0  0  0  0  0  0  0  0  0
   -1.2013    0.6859   -0.0039 C   0  0  0  0  0  0  0  0  0  0  0  0
   -2.0690    1.1752   -0.0089 H   0  0  0  0  0  0  0  0  0  0  0  0
   -1.2054   -0.7070    0.0000 C   0  0  0  0  0  0  0  0  0  0  0  0
   -2.0761   -1.2032    0.0019 H   0  0  0  0  0  0  0  0  0  0  0  0
    0.0056   -1.3984    0.0024 C   0  0  0  0  0  0  0  0  0  0  0  0
    0.0109   -2.3936    0.0053 H   0  0  0  0  0  0  0  0  0  0  0  0
    1.2054   -0.6859   -0.0000 C   0  0  0  0  0  0  0  0  0  0  0  0
    2.0903   -1.1838   -0.0036 H   0  0  0  0  0  0  0  0  0  0  0  0
    1.1988    0.7013    0.0041 C   0  0  0  0  0  0  0  0  0  0  0  0
    2.0631    1.2021    0.0110 H   0  0  0  0  0  0  0  0  0  0  0  0
  1  5  1  0
  5  8  1  0
  1  2  1  0
  1  3  1  0
  1  4  1  0
  5  6  1  0
  5  7  1  0
  8  9  1  0
  8 10  1  0
  8 11  1  0
 12 16  1  0
 16 17  2  0
 17 19  1  0
 19 21  2  0
 21 23  1  0
 23 25  2  0
 25 16  1  0
 12 13  1  0
 12 14  1  0
 12 15  1  0
 17 18  1  0
 19 20  1  0
 21 22  1  0
 23 24  1  0
 25 26  1  0
M  CHG  1   8   1
M  END
>  <PDB_ID>  (1985) 
pdb3iwf

>  <RESIDUE_NAME>  (1985) 
LYS   PHE

>  <FRAG_NAME>  (1985) 
ETAM   MBZ

>  <FRAG_ATOM_NUM>  (1985) 
fragi: 11  fragj: 15

>  <atom.prop.CHAIN_ID>  (1985) 
A A A A A A A A A A A Z Z Z Z Z Z Z Z Z Z Z Z Z Z Z

>  <atom.prop.IS_HEAVY_ATOM>  (1985) 
1 0 0 0 1 0 0 1 0 0 0 1 0 0 0 1 1 0 1 0 1 0 1 0 1 0

>  <DIFUSE_FUNC_ATOM>  (1985) 
n/a

>  <FINAL_SINGLE_POINT_ENERGY>  (1985) 
0

>  <NONCOV_INTER_ENERGY_QM>  (1985) 
0

>  <FF_Energy>  (1985) 
-1.26

>  <QM_Energy>  (1985) 
-8.24

>  <source>  (1985) 
ETAM_MBZ

>  <Index>  (1985) 
20311

$$$$
ETAM-pdb3js3-A-LYS-2:MBZ-pdb3js3-A-PHE-193
     RDKit          3D

 26 25  0  0  0  0  0  0  0  0999 V2000
   -1.6983   -0.7577    5.0232 C   0  0  0  0  0  0  0  0  0  0  0  0
   -1.5122   -1.6059    4.5076 H   0  0  0  0  0  0  0  0  0  0  0  0
   -2.6650   -0.5076    4.8738 H   0  0  0  0  0  0  0  0  0  0  0  0
   -1.5578   -0.9649    6.0841 H   0  0  0  0  0  0  0  0  0  0  0  0
   -0.8311    0.3227    4.5148 C   0  0  0  0  0  0  0  0  0  0  0  0
   -0.9592    1.1451    5.0497 H   0  0  0  0  0  0  0  0  0  0  0  0
    0.1168    0.0353    4.5249 H   0  0  0  0  0  0  0  0  0  0  0  0
   -1.2429    0.5823    3.1209 N   0  0  0  0  0  4  0  0  0  0  0  0
   -0.4317    0.7149    2.5487 H   0  0  0  0  0  0  0  0  0  0  0  0
   -1.7687   -0.1960    2.7740 H   0  0  0  0  0  0  0  0  0  0  0  0
   -1.8112    1.4062    3.0849 H   0  0  0  0  0  0  0  0  0  0  0  0
    0.0006    2.9037   -0.0078 C   0  0  0  0  0  0  0  0  0  0  0  0
   -0.8180    3.2038   -0.4770 H   0  0  0  0  0  0  0  0  0  0  0  0
    0.8148    3.2073   -0.4822 H   0  0  0  0  0  0  0  0  0  0  0  0
    0.0025    3.3631    0.9807 H   0  0  0  0  0  0  0  0  0  0  0  0
    0.0041    1.4002    0.0086 C   0  0  0  0  0  0  0  0  0  0  0  0
   -1.1789    0.6922   -0.0053 C   0  0  0  0  0  0  0  0  0  0  0  0
   -2.0536    1.1789   -0.0207 H   0  0  0  0  0  0  0  0  0  0  0  0
   -1.1865   -0.6980    0.0000 C   0  0  0  0  0  0  0  0  0  0  0  0
   -2.0777   -1.1794    0.0061 H   0  0  0  0  0  0  0  0  0  0  0  0
   -0.0141   -1.3905   -0.0006 C   0  0  0  0  0  0  0  0  0  0  0  0
   -0.0123   -2.3919   -0.0026 H   0  0  0  0  0  0  0  0  0  0  0  0
    1.1865   -0.6994   -0.0000 C   0  0  0  0  0  0  0  0  0  0  0  0
    2.0674   -1.1978    0.0042 H   0  0  0  0  0  0  0  0  0  0  0  0
    1.1889    0.6955   -0.0026 C   0  0  0  0  0  0  0  0  0  0  0  0
    2.0622    1.1823   -0.0142 H   0  0  0  0  0  0  0  0  0  0  0  0
  1  5  1  0
  5  8  1  0
  1  2  1  0
  1  3  1  0
  1  4  1  0
  5  6  1  0
  5  7  1  0
  8  9  1  0
  8 10  1  0
  8 11  1  0
 12 16  1  0
 16 17  2  0
 17 19  1  0
 19 21  2  0
 21 23  1  0
 23 25  2  0
 25 16  1  0
 12 13  1  0
 12 14  1  0
 12 15  1  0
 17 18  1  0
 19 20  1  0
 21 22  1  0
 23 24  1  0
 25 26  1  0
M  CHG  1   8   1
M  END
>  <PDB_ID>  (1986) 
pdb3js3

>  <RESIDUE_NAME>  (1986) 
LYS   PHE

>  <FRAG_NAME>  (1986) 
ETAM   MBZ

>  <FRAG_ATOM_NUM>  (1986) 
fragi: 11  fragj: 15

>  <atom.prop.CHAIN_ID>  (1986) 
A A A A A A A A A A A Z Z Z Z Z Z Z Z Z Z Z Z Z Z Z

>  <atom.prop.IS_HEAVY_ATOM>  (1986) 
1 0 0 0 1 0 0 1 0 0 0 1 0 0 0 1 1 0 1 0 1 0 1 0 1 0

>  <DIFUSE_FUNC_ATOM>  (1986) 
n/a

>  <FINAL_SINGLE_POINT_ENERGY>  (1986) 
0

>  <NONCOV_INTER_ENERGY_QM>  (1986) 
0

>  <FF_Energy>  (1986) 
-7.32

>  <QM_Energy>  (1986) 
-13.75

>  <source>  (1986) 
ETAM_MBZ

>  <Index>  (1986) 
20333

$$$$
ETAM-pdb3js3-A-LYS-26:MBZ-pdb3js3-A-PHE-52
     RDKit          3D

 26 25  0  0  0  0  0  0  0  0999 V2000
   -4.1280    3.6845    0.9911 C   0  0  0  0  0  0  0  0  0  0  0  0
   -4.7057    4.1024    0.2999 H   0  0  0  0  0  0  0  0  0  0  0  0
   -3.1696    3.7957    0.7611 H   0  0  0  0  0  0  0  0  0  0  0  0
   -4.3196    4.1688    1.9486 H   0  0  0  0  0  0  0  0  0  0  0  0
   -4.4440    2.2055    1.0638 C   0  0  0  0  0  0  0  0  0  0  0  0
   -3.8492    1.7762    1.7533 H   0  0  0  0  0  0  0  0  0  0  0  0
   -5.4008    2.0883    1.3530 H   0  0  0  0  0  0  0  0  0  0  0  0
   -4.2452    1.5193   -0.2426 N   0  0  0  0  0  4  0  0  0  0  0  0
   -3.7476    2.1246   -0.8625 H   0  0  0  0  0  0  0  0  0  0  0  0
   -3.7208    0.6805   -0.1000 H   0  0  0  0  0  0  0  0  0  0  0  0
   -5.1350    1.2945   -0.6372 H   0  0  0  0  0  0  0  0  0  0  0  0
   -0.0160    2.8989   -0.0006 C   0  0  0  0  0  0  0  0  0  0  0  0
    0.8654    3.2124    0.3188 H   0  0  0  0  0  0  0  0  0  0  0  0
   -0.7433    3.1969    0.5990 H   0  0  0  0  0  0  0  0  0  0  0  0
   -0.1915    3.3423   -0.9808 H   0  0  0  0  0  0  0  0  0  0  0  0
   -0.0019    1.3958   -0.0061 C   0  0  0  0  0  0  0  0  0  0  0  0
   -1.1867    0.6927    0.0019 C   0  0  0  0  0  0  0  0  0  0  0  0
   -2.0585    1.1847    0.0078 H   0  0  0  0  0  0  0  0  0  0  0  0
   -1.1971   -0.6913    0.0000 C   0  0  0  0  0  0  0  0  0  0  0  0
   -2.0792   -1.1812   -0.0020 H   0  0  0  0  0  0  0  0  0  0  0  0
   -0.0073   -1.3882    0.0025 C   0  0  0  0  0  0  0  0  0  0  0  0
   -0.0111   -2.3885    0.0052 H   0  0  0  0  0  0  0  0  0  0  0  0
    1.1971   -0.6973   -0.0000 C   0  0  0  0  0  0  0  0  0  0  0  0
    2.0751   -1.2000   -0.0022 H   0  0  0  0  0  0  0  0  0  0  0  0
    1.1958    0.6883    0.0016 C   0  0  0  0  0  0  0  0  0  0  0  0
    2.0620    1.1863    0.0078 H   0  0  0  0  0  0  0  0  0  0  0  0
  1  5  1  0
  5  8  1  0
  1  2  1  0
  1  3  1  0
  1  4  1  0
  5  6  1  0
  5  7  1  0
  8  9  1  0
  8 10  1  0
  8 11  1  0
 12 16  1  0
 16 17  2  0
 17 19  1  0
 19 21  2  0
 21 23  1  0
 23 25  2  0
 25 16  1  0
 12 13  1  0
 12 14  1  0
 12 15  1  0
 17 18  1  0
 19 20  1  0
 21 22  1  0
 23 24  1  0
 25 26  1  0
M  CHG  1   8   1
M  END
>  <PDB_ID>  (1987) 
pdb3js3

>  <RESIDUE_NAME>  (1987) 
LYS   PHE

>  <FRAG_NAME>  (1987) 
ETAM   MBZ

>  <FRAG_ATOM_NUM>  (1987) 
fragi: 11  fragj: 15

>  <atom.prop.CHAIN_ID>  (1987) 
A A A A A A A A A A A Z Z Z Z Z Z Z Z Z Z Z Z Z Z Z

>  <atom.prop.IS_HEAVY_ATOM>  (1987) 
1 0 0 0 1 0 0 1 0 0 0 1 0 0 0 1 1 0 1 0 1 0 1 0 1 0

>  <DIFUSE_FUNC_ATOM>  (1987) 
n/a

>  <FINAL_SINGLE_POINT_ENERGY>  (1987) 
0

>  <NONCOV_INTER_ENERGY_QM>  (1987) 
0

>  <FF_Energy>  (1987) 
6.02

>  <QM_Energy>  (1987) 
-1.8

>  <source>  (1987) 
ETAM_MBZ

>  <Index>  (1987) 
20334

$$$$
ETAM-pdb3js3-B-LYS-2:MBZ-pdb3js3-B-PHE-193
     RDKit          3D

 26 25  0  0  0  0  0  0  0  0999 V2000
   -1.5308   -0.8017    5.3307 C   0  0  0  0  0  0  0  0  0  0  0  0
   -2.2911   -0.1972    5.5488 H   0  0  0  0  0  0  0  0  0  0  0  0
   -0.6799   -0.4260    5.6860 H   0  0  0  0  0  0  0  0  0  0  0  0
   -1.7084   -1.7738    5.7908 H   0  0  0  0  0  0  0  0  0  0  0  0
   -1.4168   -0.9086    3.8169 C   0  0  0  0  0  0  0  0  0  0  0  0
   -0.7382   -1.6101    3.5924 H   0  0  0  0  0  0  0  0  0  0  0  0
   -2.3057   -1.1787    3.4430 H   0  0  0  0  0  0  0  0  0  0  0  0
   -1.0041    0.3855    3.2155 N   0  0  0  0  0  4  0  0  0  0  0  0
   -1.0794    0.3287    2.2203 H   0  0  0  0  0  0  0  0  0  0  0  0
   -1.5985    1.1151    3.5548 H   0  0  0  0  0  0  0  0  0  0  0  0
   -0.0570    0.5824    3.4679 H   0  0  0  0  0  0  0  0  0  0  0  0
   -0.0020    2.9072    0.0106 C   0  0  0  0  0  0  0  0  0  0  0  0
   -0.8257    3.2146   -0.4360 H   0  0  0  0  0  0  0  0  0  0  0  0
    0.8073    3.2176   -0.4599 H   0  0  0  0  0  0  0  0  0  0  0  0
    0.0121    3.3335    1.0137 H   0  0  0  0  0  0  0  0  0  0  0  0
    0.0001    1.4003    0.0002 C   0  0  0  0  0  0  0  0  0  0  0  0
   -1.1870    0.6941    0.0061 C   0  0  0  0  0  0  0  0  0  0  0  0
   -2.0585    1.1833    0.0140 H   0  0  0  0  0  0  0  0  0  0  0  0
   -1.1948   -0.6938    0.0000 C   0  0  0  0  0  0  0  0  0  0  0  0
   -2.0799   -1.1812   -0.0005 H   0  0  0  0  0  0  0  0  0  0  0  0
   -0.0088   -1.3930   -0.0030 C   0  0  0  0  0  0  0  0  0  0  0  0
   -0.0118   -2.3916   -0.0080 H   0  0  0  0  0  0  0  0  0  0  0  0
    1.1948   -0.6999   -0.0000 C   0  0  0  0  0  0  0  0  0  0  0  0
    2.0742   -1.2003    0.0054 H   0  0  0  0  0  0  0  0  0  0  0  0
    1.1958    0.6922   -0.0033 C   0  0  0  0  0  0  0  0  0  0  0  0
    2.0634    1.1851   -0.0091 H   0  0  0  0  0  0  0  0  0  0  0  0
  1  5  1  0
  5  8  1  0
  1  2  1  0
  1  3  1  0
  1  4  1  0
  5  6  1  0
  5  7  1  0
  8  9  1  0
  8 10  1  0
  8 11  1  0
 12 16  1  0
 16 17  2  0
 17 19  1  0
 19 21  2  0
 21 23  1  0
 23 25  2  0
 25 16  1  0
 12 13  1  0
 12 14  1  0
 12 15  1  0
 17 18  1  0
 19 20  1  0
 21 22  1  0
 23 24  1  0
 25 26  1  0
M  CHG  1   8   1
M  END
>  <PDB_ID>  (1988) 
pdb3js3

>  <RESIDUE_NAME>  (1988) 
LYS   PHE

>  <FRAG_NAME>  (1988) 
ETAM   MBZ

>  <FRAG_ATOM_NUM>  (1988) 
fragi: 11  fragj: 15

>  <atom.prop.CHAIN_ID>  (1988) 
A A A A A A A A A A A Z Z Z Z Z Z Z Z Z Z Z Z Z Z Z

>  <atom.prop.IS_HEAVY_ATOM>  (1988) 
1 0 0 0 1 0 0 1 0 0 0 1 0 0 0 1 1 0 1 0 1 0 1 0 1 0

>  <DIFUSE_FUNC_ATOM>  (1988) 
n/a

>  <FINAL_SINGLE_POINT_ENERGY>  (1988) 
0

>  <NONCOV_INTER_ENERGY_QM>  (1988) 
0

>  <FF_Energy>  (1988) 
-8.34

>  <QM_Energy>  (1988) 
-15.83

>  <source>  (1988) 
ETAM_MBZ

>  <Index>  (1988) 
20336

$$$$
ETAM-pdb3js3-C-LYS-2:MBZ-pdb3js3-C-PHE-193
     RDKit          3D

 26 25  0  0  0  0  0  0  0  0999 V2000
   -1.2144   -0.9089    5.7868 C   0  0  0  0  0  0  0  0  0  0  0  0
   -1.7465   -0.1377    6.1250 H   0  0  0  0  0  0  0  0  0  0  0  0
   -0.2569   -0.8033    6.0388 H   0  0  0  0  0  0  0  0  0  0  0  0
   -1.5972   -1.8232    6.2401 H   0  0  0  0  0  0  0  0  0  0  0  0
   -1.3184   -0.9464    4.2741 C   0  0  0  0  0  0  0  0  0  0  0  0
   -0.8194   -1.7504    3.9353 H   0  0  0  0  0  0  0  0  0  0  0  0
   -2.2863   -1.0381    4.0172 H   0  0  0  0  0  0  0  0  0  0  0  0
   -0.7610    0.2739    3.6556 N   0  0  0  0  0  4  0  0  0  0  0  0
   -0.2788    0.8127    4.3480 H   0  0  0  0  0  0  0  0  0  0  0  0
   -0.1208    0.0212    2.9280 H   0  0  0  0  0  0  0  0  0  0  0  0
   -1.5026    0.8234    3.2672 H   0  0  0  0  0  0  0  0  0  0  0  0
   -0.0025    2.9106   -0.0091 C   0  0  0  0  0  0  0  0  0  0  0  0
   -0.8172    3.2140   -0.4807 H   0  0  0  0  0  0  0  0  0  0  0  0
    0.8160    3.2181   -0.4715 H   0  0  0  0  0  0  0  0  0  0  0  0
   -0.0091    3.3604    0.9838 H   0  0  0  0  0  0  0  0  0  0  0  0
    0.0021    1.4092    0.0000 C   0  0  0  0  0  0  0  0  0  0  0  0
   -1.1826    0.7006    0.0013 C   0  0  0  0  0  0  0  0  0  0  0  0
   -2.0566    1.1860    0.0022 H   0  0  0  0  0  0  0  0  0  0  0  0
   -1.1928   -0.6966    0.0000 C   0  0  0  0  0  0  0  0  0  0  0  0
   -2.0837   -1.1764   -0.0023 H   0  0  0  0  0  0  0  0  0  0  0  0
   -0.0146   -1.4031    0.0030 C   0  0  0  0  0  0  0  0  0  0  0  0
   -0.0200   -2.3998    0.0071 H   0  0  0  0  0  0  0  0  0  0  0  0
    1.1928   -0.7113    0.0000 C   0  0  0  0  0  0  0  0  0  0  0  0
    2.0724   -1.2036    0.0023 H   0  0  0  0  0  0  0  0  0  0  0  0
    1.1951    0.7013   -0.0043 C   0  0  0  0  0  0  0  0  0  0  0  0
    2.0661    1.1826   -0.0112 H   0  0  0  0  0  0  0  0  0  0  0  0
  1  5  1  0
  5  8  1  0
  1  2  1  0
  1  3  1  0
  1  4  1  0
  5  6  1  0
  5  7  1  0
  8  9  1  0
  8 10  1  0
  8 11  1  0
 12 16  1  0
 16 17  2  0
 17 19  1  0
 19 21  2  0
 21 23  1  0
 23 25  2  0
 25 16  1  0
 12 13  1  0
 12 14  1  0
 12 15  1  0
 17 18  1  0
 19 20  1  0
 21 22  1  0
 23 24  1  0
 25 26  1  0
M  CHG  1   8   1
M  END
>  <PDB_ID>  (1989) 
pdb3js3

>  <RESIDUE_NAME>  (1989) 
LYS   PHE

>  <FRAG_NAME>  (1989) 
ETAM   MBZ

>  <FRAG_ATOM_NUM>  (1989) 
fragi: 11  fragj: 15

>  <atom.prop.CHAIN_ID>  (1989) 
A A A A A A A A A A A Z Z Z Z Z Z Z Z Z Z Z Z Z Z Z

>  <atom.prop.IS_HEAVY_ATOM>  (1989) 
1 0 0 0 1 0 0 1 0 0 0 1 0 0 0 1 1 0 1 0 1 0 1 0 1 0

>  <DIFUSE_FUNC_ATOM>  (1989) 
n/a

>  <FINAL_SINGLE_POINT_ENERGY>  (1989) 
0

>  <NONCOV_INTER_ENERGY_QM>  (1989) 
0

>  <FF_Energy>  (1989) 
-6.95

>  <QM_Energy>  (1989) 
-12.18

>  <source>  (1989) 
ETAM_MBZ

>  <Index>  (1989) 
20337

$$$$
ETAM-pdb3js3-D-LYS-2:MBZ-pdb3js3-D-PHE-193
     RDKit          3D

 26 25  0  0  0  0  0  0  0  0999 V2000
   -1.4129   -0.7347    5.2234 C   0  0  0  0  0  0  0  0  0  0  0  0
   -2.1256   -0.0617    5.4117 H   0  0  0  0  0  0  0  0  0  0  0  0
   -0.5403   -0.4121    5.5836 H   0  0  0  0  0  0  0  0  0  0  0  0
   -1.6738   -1.6648    5.7285 H   0  0  0  0  0  0  0  0  0  0  0  0
   -1.2867   -0.9038    3.7179 C   0  0  0  0  0  0  0  0  0  0  0  0
   -0.6990   -1.6899    3.5279 H   0  0  0  0  0  0  0  0  0  0  0  0
   -2.1943   -1.0647    3.3315 H   0  0  0  0  0  0  0  0  0  0  0  0
   -0.6977    0.3119    3.0984 N   0  0  0  0  0  4  0  0  0  0  0  0
   -0.7143    1.0625    3.7581 H   0  0  0  0  0  0  0  0  0  0  0  0
    0.2470    0.1234    2.8303 H   0  0  0  0  0  0  0  0  0  0  0  0
   -1.2304    0.5648    2.2913 H   0  0  0  0  0  0  0  0  0  0  0  0
    0.0069    2.9411    0.0196 C   0  0  0  0  0  0  0  0  0  0  0  0
   -0.8514    3.2479   -0.3573 H   0  0  0  0  0  0  0  0  0  0  0  0
    0.7734    3.2458   -0.5209 H   0  0  0  0  0  0  0  0  0  0  0  0
    0.1076    3.3809    1.0118 H   0  0  0  0  0  0  0  0  0  0  0  0
    0.0044    1.4181    0.0077 C   0  0  0  0  0  0  0  0  0  0  0  0
   -1.1957    0.7035    0.0005 C   0  0  0  0  0  0  0  0  0  0  0  0
   -2.0647    1.1820   -0.0053 H   0  0  0  0  0  0  0  0  0  0  0  0
   -1.2031   -0.7171    0.0000 C   0  0  0  0  0  0  0  0  0  0  0  0
   -2.0842   -1.1929    0.0054 H   0  0  0  0  0  0  0  0  0  0  0  0
   -0.0083   -1.4070   -0.0068 C   0  0  0  0  0  0  0  0  0  0  0  0
    0.0002   -2.4043   -0.0172 H   0  0  0  0  0  0  0  0  0  0  0  0
    1.2031   -0.7012   -0.0000 C   0  0  0  0  0  0  0  0  0  0  0  0
    2.0816   -1.1966    0.0075 H   0  0  0  0  0  0  0  0  0  0  0  0
    1.1996    0.7037   -0.0014 C   0  0  0  0  0  0  0  0  0  0  0  0
    2.0703    1.1925   -0.0104 H   0  0  0  0  0  0  0  0  0  0  0  0
  1  5  1  0
  5  8  1  0
  1  2  1  0
  1  3  1  0
  1  4  1  0
  5  6  1  0
  5  7  1  0
  8  9  1  0
  8 10  1  0
  8 11  1  0
 12 16  1  0
 16 17  2  0
 17 19  1  0
 19 21  2  0
 21 23  1  0
 23 25  2  0
 25 16  1  0
 12 13  1  0
 12 14  1  0
 12 15  1  0
 17 18  1  0
 19 20  1  0
 21 22  1  0
 23 24  1  0
 25 26  1  0
M  CHG  1   8   1
M  END
>  <PDB_ID>  (1990) 
pdb3js3

>  <RESIDUE_NAME>  (1990) 
LYS   PHE

>  <FRAG_NAME>  (1990) 
ETAM   MBZ

>  <FRAG_ATOM_NUM>  (1990) 
fragi: 11  fragj: 15

>  <atom.prop.CHAIN_ID>  (1990) 
A A A A A A A A A A A Z Z Z Z Z Z Z Z Z Z Z Z Z Z Z

>  <atom.prop.IS_HEAVY_ATOM>  (1990) 
1 0 0 0 1 0 0 1 0 0 0 1 0 0 0 1 1 0 1 0 1 0 1 0 1 0

>  <DIFUSE_FUNC_ATOM>  (1990) 
n/a

>  <FINAL_SINGLE_POINT_ENERGY>  (1990) 
0

>  <NONCOV_INTER_ENERGY_QM>  (1990) 
0

>  <FF_Energy>  (1990) 
-8.69

>  <QM_Energy>  (1990) 
-16.8

>  <source>  (1990) 
ETAM_MBZ

>  <Index>  (1990) 
20339

$$$$
ETAM-pdb4g7a-B-LYS-41:MBZ-pdb4g7a-B-PHE-225
     RDKit          3D

 26 25  0  0  0  0  0  0  0  0999 V2000
   -3.9998   -1.4365   -3.8143 C   0  0  0  0  0  0  0  0  0  0  0  0
   -4.7976   -1.6196   -4.3819 H   0  0  0  0  0  0  0  0  0  0  0  0
   -3.9267   -2.1205   -3.0940 H   0  0  0  0  0  0  0  0  0  0  0  0
   -3.1074   -1.4865   -4.4382 H   0  0  0  0  0  0  0  0  0  0  0  0
   -4.1607   -0.0706   -3.1738 C   0  0  0  0  0  0  0  0  0  0  0  0
   -4.2207    0.6232   -3.8970 H   0  0  0  0  0  0  0  0  0  0  0  0
   -5.0121   -0.0586   -2.6415 H   0  0  0  0  0  0  0  0  0  0  0  0
   -3.0207    0.2520   -2.2803 N   0  0  0  0  0  4  0  0  0  0  0  0
   -2.1878   -0.1716   -2.6362 H   0  0  0  0  0  0  0  0  0  0  0  0
   -2.8986    1.2437   -2.2403 H   0  0  0  0  0  0  0  0  0  0  0  0
   -3.2072   -0.0977   -1.3620 H   0  0  0  0  0  0  0  0  0  0  0  0
    0.0011    2.9013    0.0279 C   0  0  0  0  0  0  0  0  0  0  0  0
    0.9383    3.2075    0.1074 H   0  0  0  0  0  0  0  0  0  0  0  0
   -0.5385    3.1948    0.8040 H   0  0  0  0  0  0  0  0  0  0  0  0
   -0.4237    3.3619   -0.8641 H   0  0  0  0  0  0  0  0  0  0  0  0
    0.0010    1.4018   -0.0000 C   0  0  0  0  0  0  0  0  0  0  0  0
   -1.1979    0.6940   -0.0005 C   0  0  0  0  0  0  0  0  0  0  0  0
   -2.0634    1.1846   -0.0021 H   0  0  0  0  0  0  0  0  0  0  0  0
   -1.2013   -0.6968    0.0000 C   0  0  0  0  0  0  0  0  0  0  0  0
   -2.0774   -1.1911    0.0007 H   0  0  0  0  0  0  0  0  0  0  0  0
    0.0009   -1.3946    0.0018 C   0  0  0  0  0  0  0  0  0  0  0  0
   -0.0038   -2.3933    0.0039 H   0  0  0  0  0  0  0  0  0  0  0  0
    1.2013   -0.6981   -0.0000 C   0  0  0  0  0  0  0  0  0  0  0  0
    2.0828   -1.1940    0.0014 H   0  0  0  0  0  0  0  0  0  0  0  0
    1.1959    0.6937   -0.0012 C   0  0  0  0  0  0  0  0  0  0  0  0
    2.0651    1.1892   -0.0036 H   0  0  0  0  0  0  0  0  0  0  0  0
  1  5  1  0
  5  8  1  0
  1  2  1  0
  1  3  1  0
  1  4  1  0
  5  6  1  0
  5  7  1  0
  8  9  1  0
  8 10  1  0
  8 11  1  0
 12 16  1  0
 16 17  2  0
 17 19  1  0
 19 21  2  0
 21 23  1  0
 23 25  2  0
 25 16  1  0
 12 13  1  0
 12 14  1  0
 12 15  1  0
 17 18  1  0
 19 20  1  0
 21 22  1  0
 23 24  1  0
 25 26  1  0
M  CHG  1   8   1
M  END
>  <PDB_ID>  (1991) 
pdb4g7a

>  <RESIDUE_NAME>  (1991) 
LYS   PHE

>  <FRAG_NAME>  (1991) 
ETAM   MBZ

>  <FRAG_ATOM_NUM>  (1991) 
fragi: 11  fragj: 15

>  <atom.prop.CHAIN_ID>  (1991) 
A A A A A A A A A A A Z Z Z Z Z Z Z Z Z Z Z Z Z Z Z

>  <atom.prop.IS_HEAVY_ATOM>  (1991) 
1 0 0 0 1 0 0 1 0 0 0 1 0 0 0 1 1 0 1 0 1 0 1 0 1 0

>  <DIFUSE_FUNC_ATOM>  (1991) 
n/a

>  <FINAL_SINGLE_POINT_ENERGY>  (1991) 
0

>  <NONCOV_INTER_ENERGY_QM>  (1991) 
0

>  <FF_Energy>  (1991) 
0.15

>  <QM_Energy>  (1991) 
-7.11

>  <source>  (1991) 
ETAM_MBZ

>  <Index>  (1991) 
20347

$$$$
ETAM-pdb4g7n-B-LYS-532:MBZ-pdb4g7n-B-PHE-567
     RDKit          3D

 26 25  0  0  0  0  0  0  0  0999 V2000
   -1.5311   -0.0352   -3.6448 C   0  0  0  0  0  0  0  0  0  0  0  0
   -1.0019    0.8106   -3.6478 H   0  0  0  0  0  0  0  0  0  0  0  0
   -2.1509   -0.0426   -2.8625 H   0  0  0  0  0  0  0  0  0  0  0  0
   -2.1179   -0.0877   -4.5619 H   0  0  0  0  0  0  0  0  0  0  0  0
   -0.5584   -1.2101   -3.4980 C   0  0  0  0  0  0  0  0  0  0  0  0
    0.0576   -1.2157   -4.3031 H   0  0  0  0  0  0  0  0  0  0  0  0
    0.0181   -1.0461   -2.6796 H   0  0  0  0  0  0  0  0  0  0  0  0
   -1.2128   -2.5353   -3.3753 N   0  0  0  0  0  4  0  0  0  0  0  0
   -2.2065   -2.4176   -3.3620 H   0  0  0  0  0  0  0  0  0  0  0  0
   -0.9557   -3.1082   -4.1547 H   0  0  0  0  0  0  0  0  0  0  0  0
   -0.9180   -2.9764   -2.5264 H   0  0  0  0  0  0  0  0  0  0  0  0
   -0.0021    2.8841    0.0070 C   0  0  0  0  0  0  0  0  0  0  0  0
   -0.6821    3.1969   -0.6386 H   0  0  0  0  0  0  0  0  0  0  0  0
    0.9015    3.1966   -0.2425 H   0  0  0  0  0  0  0  0  0  0  0  0
   -0.2452    3.3111    0.9800 H   0  0  0  0  0  0  0  0  0  0  0  0
   -0.0001    1.3928   -0.0003 C   0  0  0  0  0  0  0  0  0  0  0  0
   -1.1956    0.6853   -0.0072 C   0  0  0  0  0  0  0  0  0  0  0  0
   -2.0613    1.1828   -0.0193 H   0  0  0  0  0  0  0  0  0  0  0  0
   -1.1995   -0.6897   -0.0000 C   0  0  0  0  0  0  0  0  0  0  0  0
   -2.0759   -1.1905    0.0066 H   0  0  0  0  0  0  0  0  0  0  0  0
   -0.0012   -1.3827   -0.0008 C   0  0  0  0  0  0  0  0  0  0  0  0
   -0.0071   -2.3848   -0.0024 H   0  0  0  0  0  0  0  0  0  0  0  0
    1.1995   -0.6942   -0.0000 C   0  0  0  0  0  0  0  0  0  0  0  0
    2.0790   -1.1970   -0.0043 H   0  0  0  0  0  0  0  0  0  0  0  0
    1.1969    0.6884    0.0083 C   0  0  0  0  0  0  0  0  0  0  0  0
    2.0629    1.1875    0.0194 H   0  0  0  0  0  0  0  0  0  0  0  0
  1  5  1  0
  5  8  1  0
  1  2  1  0
  1  3  1  0
  1  4  1  0
  5  6  1  0
  5  7  1  0
  8  9  1  0
  8 10  1  0
  8 11  1  0
 12 16  1  0
 16 17  2  0
 17 19  1  0
 19 21  2  0
 21 23  1  0
 23 25  2  0
 25 16  1  0
 12 13  1  0
 12 14  1  0
 12 15  1  0
 17 18  1  0
 19 20  1  0
 21 22  1  0
 23 24  1  0
 25 26  1  0
M  CHG  1   8   1
M  END
>  <PDB_ID>  (1992) 
pdb4g7n

>  <RESIDUE_NAME>  (1992) 
LYS   PHE

>  <FRAG_NAME>  (1992) 
ETAM   MBZ

>  <FRAG_ATOM_NUM>  (1992) 
fragi: 11  fragj: 15

>  <atom.prop.CHAIN_ID>  (1992) 
A A A A A A A A A A A Z Z Z Z Z Z Z Z Z Z Z Z Z Z Z

>  <atom.prop.IS_HEAVY_ATOM>  (1992) 
1 0 0 0 1 0 0 1 0 0 0 1 0 0 0 1 1 0 1 0 1 0 1 0 1 0

>  <DIFUSE_FUNC_ATOM>  (1992) 
n/a

>  <FINAL_SINGLE_POINT_ENERGY>  (1992) 
0

>  <NONCOV_INTER_ENERGY_QM>  (1992) 
0

>  <FF_Energy>  (1992) 
-4.18

>  <QM_Energy>  (1992) 
-10.0

>  <source>  (1992) 
ETAM_MBZ

>  <Index>  (1992) 
20355

$$$$
ETAM-pdb3ju5-A-LYS-264:MBZ-pdb3ju5-A-PHE-270
     RDKit          3D

 26 25  0  0  0  0  0  0  0  0999 V2000
   -1.5030   -1.2250   -3.2993 C   0  0  0  0  0  0  0  0  0  0  0  0
   -1.5750   -1.0604   -2.3329 H   0  0  0  0  0  0  0  0  0  0  0  0
   -1.9267   -2.0700   -3.5680 H   0  0  0  0  0  0  0  0  0  0  0  0
   -1.9567   -0.3980   -3.8456 H   0  0  0  0  0  0  0  0  0  0  0  0
   -0.0239   -1.2873   -3.6689 C   0  0  0  0  0  0  0  0  0  0  0  0
    0.2012   -0.4804   -4.2046 H   0  0  0  0  0  0  0  0  0  0  0  0
    0.5098   -1.3053   -2.8301 H   0  0  0  0  0  0  0  0  0  0  0  0
    0.2152   -2.4943   -4.4470 N   0  0  0  0  0  4  0  0  0  0  0  0
   -0.1223   -2.3750   -5.3864 H   0  0  0  0  0  0  0  0  0  0  0  0
    1.1990   -2.6961   -4.4822 H   0  0  0  0  0  0  0  0  0  0  0  0
   -0.2597   -3.2764   -4.0310 H   0  0  0  0  0  0  0  0  0  0  0  0
   -0.0622    2.8967   -0.1576 C   0  0  0  0  0  0  0  0  0  0  0  0
    0.8392    3.2507   -0.0263 H   0  0  0  0  0  0  0  0  0  0  0  0
   -0.7108    3.2431    0.4871 H   0  0  0  0  0  0  0  0  0  0  0  0
   -0.3919    3.2086   -1.1487 H   0  0  0  0  0  0  0  0  0  0  0  0
   -0.0143    1.4034   -0.0364 C   0  0  0  0  0  0  0  0  0  0  0  0
   -1.2108    0.6984   -0.0002 C   0  0  0  0  0  0  0  0  0  0  0  0
   -2.0793    1.1660    0.0243 H   0  0  0  0  0  0  0  0  0  0  0  0
   -1.2071   -0.7318    0.0000 C   0  0  0  0  0  0  0  0  0  0  0  0
   -2.0646   -1.2201   -0.0399 H   0  0  0  0  0  0  0  0  0  0  0  0
    0.0236   -1.3968    0.0588 C   0  0  0  0  0  0  0  0  0  0  0  0
    0.0376   -2.3930    0.1431 H   0  0  0  0  0  0  0  0  0  0  0  0
    1.2071   -0.6787   -0.0000 C   0  0  0  0  0  0  0  0  0  0  0  0
    2.1002   -1.1737   -0.0262 H   0  0  0  0  0  0  0  0  0  0  0  0
    1.2016    0.7055   -0.0223 C   0  0  0  0  0  0  0  0  0  0  0  0
    2.0571    1.2126   -0.0292 H   0  0  0  0  0  0  0  0  0  0  0  0
  1  5  1  0
  5  8  1  0
  1  2  1  0
  1  3  1  0
  1  4  1  0
  5  6  1  0
  5  7  1  0
  8  9  1  0
  8 10  1  0
  8 11  1  0
 12 16  1  0
 16 17  2  0
 17 19  1  0
 19 21  2  0
 21 23  1  0
 23 25  2  0
 25 16  1  0
 12 13  1  0
 12 14  1  0
 12 15  1  0
 17 18  1  0
 19 20  1  0
 21 22  1  0
 23 24  1  0
 25 26  1  0
M  CHG  1   8   1
M  END
>  <PDB_ID>  (1993) 
pdb3ju5

>  <RESIDUE_NAME>  (1993) 
LYS   PHE

>  <FRAG_NAME>  (1993) 
ETAM   MBZ

>  <FRAG_ATOM_NUM>  (1993) 
fragi: 11  fragj: 15

>  <atom.prop.CHAIN_ID>  (1993) 
A A A A A A A A A A A Z Z Z Z Z Z Z Z Z Z Z Z Z Z Z

>  <atom.prop.IS_HEAVY_ATOM>  (1993) 
1 0 0 0 1 0 0 1 0 0 0 1 0 0 0 1 1 0 1 0 1 0 1 0 1 0

>  <DIFUSE_FUNC_ATOM>  (1993) 
n/a

>  <FINAL_SINGLE_POINT_ENERGY>  (1993) 
0

>  <NONCOV_INTER_ENERGY_QM>  (1993) 
0

>  <FF_Energy>  (1993) 
-2.14

>  <QM_Energy>  (1993) 
-7.21

>  <source>  (1993) 
ETAM_MBZ

>  <Index>  (1993) 
20406

$$$$
ETAM-pdb3ju5-B-LYS-310:MBZ-pdb3ju5-B-PHE-299
     RDKit          3D

 26 25  0  0  0  0  0  0  0  0999 V2000
    0.8535   -0.3377    3.1951 C   0  0  0  0  0  0  0  0  0  0  0  0
    1.7000   -0.7815    2.9164 H   0  0  0  0  0  0  0  0  0  0  0  0
    0.1559   -0.4589    2.4959 H   0  0  0  0  0  0  0  0  0  0  0  0
    0.5086   -0.7624    4.1378 H   0  0  0  0  0  0  0  0  0  0  0  0
    1.1271    1.1547    3.3355 C   0  0  0  0  0  0  0  0  0  0  0  0
    1.1958    1.5470    2.4259 H   0  0  0  0  0  0  0  0  0  0  0  0
    0.3749    1.5658    3.8373 H   0  0  0  0  0  0  0  0  0  0  0  0
    2.3707    1.3182    4.0567 N   0  0  0  0  0  4  0  0  0  0  0  0
    2.2927    2.0636    4.7286 H   0  0  0  0  0  0  0  0  0  0  0  0
    2.6082    0.4716    4.5468 H   0  0  0  0  0  0  0  0  0  0  0  0
    3.1196    1.5389    3.4213 H   0  0  0  0  0  0  0  0  0  0  0  0
    0.0959    2.8995   -0.0047 C   0  0  0  0  0  0  0  0  0  0  0  0
    0.4044    3.1670   -0.9108 H   0  0  0  0  0  0  0  0  0  0  0  0
    0.7599    3.1724    0.6833 H   0  0  0  0  0  0  0  0  0  0  0  0
   -0.8368    3.4247    0.2011 H   0  0  0  0  0  0  0  0  0  0  0  0
    0.0136    1.3806    0.0188 C   0  0  0  0  0  0  0  0  0  0  0  0
   -1.2033    0.6928    0.0138 C   0  0  0  0  0  0  0  0  0  0  0  0
   -2.0528    1.2036    0.0189 H   0  0  0  0  0  0  0  0  0  0  0  0
   -1.2086   -0.6708    0.0000 C   0  0  0  0  0  0  0  0  0  0  0  0
   -2.0855   -1.1751    0.0123 H   0  0  0  0  0  0  0  0  0  0  0  0
   -0.0142   -1.3608   -0.0285 C   0  0  0  0  0  0  0  0  0  0  0  0
   -0.0316   -2.3746   -0.0721 H   0  0  0  0  0  0  0  0  0  0  0  0
    1.2086   -0.7076   -0.0000 C   0  0  0  0  0  0  0  0  0  0  0  0
    2.0670   -1.2213    0.0242 H   0  0  0  0  0  0  0  0  0  0  0  0
    1.2040    0.6657   -0.0040 C   0  0  0  0  0  0  0  0  0  0  0  0
    2.0748    1.1687   -0.0245 H   0  0  0  0  0  0  0  0  0  0  0  0
  1  5  1  0
  5  8  1  0
  1  2  1  0
  1  3  1  0
  1  4  1  0
  5  6  1  0
  5  7  1  0
  8  9  1  0
  8 10  1  0
  8 11  1  0
 12 16  1  0
 16 17  2  0
 17 19  1  0
 19 21  2  0
 21 23  1  0
 23 25  2  0
 25 16  1  0
 12 13  1  0
 12 14  1  0
 12 15  1  0
 17 18  1  0
 19 20  1  0
 21 22  1  0
 23 24  1  0
 25 26  1  0
M  CHG  1   8   1
M  END
>  <PDB_ID>  (1994) 
pdb3ju5

>  <RESIDUE_NAME>  (1994) 
LYS   PHE

>  <FRAG_NAME>  (1994) 
ETAM   MBZ

>  <FRAG_ATOM_NUM>  (1994) 
fragi: 11  fragj: 15

>  <atom.prop.CHAIN_ID>  (1994) 
A A A A A A A A A A A Z Z Z Z Z Z Z Z Z Z Z Z Z Z Z

>  <atom.prop.IS_HEAVY_ATOM>  (1994) 
1 0 0 0 1 0 0 1 0 0 0 1 0 0 0 1 1 0 1 0 1 0 1 0 1 0

>  <DIFUSE_FUNC_ATOM>  (1994) 
n/a

>  <FINAL_SINGLE_POINT_ENERGY>  (1994) 
0

>  <NONCOV_INTER_ENERGY_QM>  (1994) 
0

>  <FF_Energy>  (1994) 
-2.51

>  <QM_Energy>  (1994) 
-7.81

>  <source>  (1994) 
ETAM_MBZ

>  <Index>  (1994) 
20409

$$$$
ETAM-pdb3ixq-D-LYS-97:MBZ-pdb3ixq-D-PHE-207
     RDKit          3D

 26 25  0  0  0  0  0  0  0  0999 V2000
   -0.3563   -0.2729    3.4096 C   0  0  0  0  0  0  0  0  0  0  0  0
   -1.0444    0.3258    3.8397 H   0  0  0  0  0  0  0  0  0  0  0  0
   -0.2597    0.0026    2.4444 H   0  0  0  0  0  0  0  0  0  0  0  0
    0.5988   -0.1253    3.9138 H   0  0  0  0  0  0  0  0  0  0  0  0
   -0.8920   -1.7091    3.4404 C   0  0  0  0  0  0  0  0  0  0  0  0
   -1.8395   -1.7051    3.0914 H   0  0  0  0  0  0  0  0  0  0  0  0
   -0.3337   -2.2725    2.8149 H   0  0  0  0  0  0  0  0  0  0  0  0
   -0.8752   -2.3253    4.7992 N   0  0  0  0  0  4  0  0  0  0  0  0
   -0.5951   -3.2817    4.7242 H   0  0  0  0  0  0  0  0  0  0  0  0
   -0.2295   -1.8294    5.3785 H   0  0  0  0  0  0  0  0  0  0  0  0
   -1.7902   -2.2729    5.1961 H   0  0  0  0  0  0  0  0  0  0  0  0
   -0.0294    2.9407    0.0279 C   0  0  0  0  0  0  0  0  0  0  0  0
    0.2811    3.2295    0.9229 H   0  0  0  0  0  0  0  0  0  0  0  0
   -0.9636    3.2267   -0.1330 H   0  0  0  0  0  0  0  0  0  0  0  0
    0.6029    3.4202   -0.7194 H   0  0  0  0  0  0  0  0  0  0  0  0
   -0.0071    1.4162    0.0062 C   0  0  0  0  0  0  0  0  0  0  0  0
   -1.2033    0.6924    0.0152 C   0  0  0  0  0  0  0  0  0  0  0  0
   -2.0740    1.1727    0.0312 H   0  0  0  0  0  0  0  0  0  0  0  0
   -1.2015   -0.7121   -0.0000 C   0  0  0  0  0  0  0  0  0  0  0  0
   -2.0682   -1.2089    0.0005 H   0  0  0  0  0  0  0  0  0  0  0  0
    0.0192   -1.4045   -0.0141 C   0  0  0  0  0  0  0  0  0  0  0  0
    0.0137   -2.4009   -0.0345 H   0  0  0  0  0  0  0  0  0  0  0  0
    1.2015   -0.6985   -0.0000 C   0  0  0  0  0  0  0  0  0  0  0  0
    2.0950   -1.1797    0.0176 H   0  0  0  0  0  0  0  0  0  0  0  0
    1.1913    0.7065   -0.0072 C   0  0  0  0  0  0  0  0  0  0  0  0
    2.0607    1.1993   -0.0227 H   0  0  0  0  0  0  0  0  0  0  0  0
  1  5  1  0
  5  8  1  0
  1  2  1  0
  1  3  1  0
  1  4  1  0
  5  6  1  0
  5  7  1  0
  8  9  1  0
  8 10  1  0
  8 11  1  0
 12 16  1  0
 16 17  2  0
 17 19  1  0
 19 21  2  0
 21 23  1  0
 23 25  2  0
 25 16  1  0
 12 13  1  0
 12 14  1  0
 12 15  1  0
 17 18  1  0
 19 20  1  0
 21 22  1  0
 23 24  1  0
 25 26  1  0
M  CHG  1   8   1
M  END
>  <PDB_ID>  (1995) 
pdb3ixq

>  <RESIDUE_NAME>  (1995) 
LYS   PHE

>  <FRAG_NAME>  (1995) 
ETAM   MBZ

>  <FRAG_ATOM_NUM>  (1995) 
fragi: 11  fragj: 15

>  <atom.prop.CHAIN_ID>  (1995) 
A A A A A A A A A A A Z Z Z Z Z Z Z Z Z Z Z Z Z Z Z

>  <atom.prop.IS_HEAVY_ATOM>  (1995) 
1 0 0 0 1 0 0 1 0 0 0 1 0 0 0 1 1 0 1 0 1 0 1 0 1 0

>  <DIFUSE_FUNC_ATOM>  (1995) 
n/a

>  <FINAL_SINGLE_POINT_ENERGY>  (1995) 
0

>  <NONCOV_INTER_ENERGY_QM>  (1995) 
0

>  <FF_Energy>  (1995) 
-3.36

>  <QM_Energy>  (1995) 
-8.47

>  <source>  (1995) 
ETAM_MBZ

>  <Index>  (1995) 
20416

$$$$
ETAM-pdb3jpz-B-LYS-306:MBZ-pdb3jpz-B-PHE-295
     RDKit          3D

 26 25  0  0  0  0  0  0  0  0999 V2000
    1.6794   -1.6424    3.0310 C   0  0  0  0  0  0  0  0  0  0  0  0
    2.0954   -1.8673    2.1836 H   0  0  0  0  0  0  0  0  0  0  0  0
    0.7898   -1.2854    2.8845 H   0  0  0  0  0  0  0  0  0  0  0  0
    1.6098   -2.5400    3.6454 H   0  0  0  0  0  0  0  0  0  0  0  0
    2.5188   -0.5686    3.7031 C   0  0  0  0  0  0  0  0  0  0  0  0
    2.3684   -0.5976    4.6606 H   0  0  0  0  0  0  0  0  0  0  0  0
    3.4556   -0.7259    3.5060 H   0  0  0  0  0  0  0  0  0  0  0  0
    2.1641    0.7906    3.2166 N   0  0  0  0  0  4  0  0  0  0  0  0
    2.7080    1.4482    3.6560 H   0  0  0  0  0  0  0  0  0  0  0  0
    2.3085    0.8489    2.2699 H   0  0  0  0  0  0  0  0  0  0  0  0
    1.2402    0.9747    3.4037 H   0  0  0  0  0  0  0  0  0  0  0  0
    0.0054    2.8930   -0.0101 C   0  0  0  0  0  0  0  0  0  0  0  0
    0.0533    3.1802   -0.9356 H   0  0  0  0  0  0  0  0  0  0  0  0
    0.7945    3.1924    0.4679 H   0  0  0  0  0  0  0  0  0  0  0  0
   -0.8743    3.3419    0.4511 H   0  0  0  0  0  0  0  0  0  0  0  0
    0.0013    1.3940    0.0051 C   0  0  0  0  0  0  0  0  0  0  0  0
   -1.1920    0.6874   -0.0014 C   0  0  0  0  0  0  0  0  0  0  0  0
   -1.9996    1.1477   -0.0021 H   0  0  0  0  0  0  0  0  0  0  0  0
   -1.1945   -0.6938    0.0000 C   0  0  0  0  0  0  0  0  0  0  0  0
   -2.0008   -1.1578    0.0023 H   0  0  0  0  0  0  0  0  0  0  0  0
    0.0007   -1.3846   -0.0013 C   0  0  0  0  0  0  0  0  0  0  0  0
    0.0015   -2.3143    0.0028 H   0  0  0  0  0  0  0  0  0  0  0  0
    1.1945   -0.6920    0.0000 C   0  0  0  0  0  0  0  0  0  0  0  0
    2.0008   -1.1548    0.0008 H   0  0  0  0  0  0  0  0  0  0  0  0
    1.1899    0.6890   -0.0025 C   0  0  0  0  0  0  0  0  0  0  0  0
    1.9978    1.1506   -0.0032 H   0  0  0  0  0  0  0  0  0  0  0  0
  1  5  1  0
  5  8  1  0
  1  2  1  0
  1  3  1  0
  1  4  1  0
  5  6  1  0
  5  7  1  0
  8  9  1  0
  8 10  1  0
  8 11  1  0
 12 16  1  0
 16 17  2  0
 17 19  1  0
 19 21  2  0
 21 23  1  0
 23 25  2  0
 25 16  1  0
 12 13  1  0
 12 14  1  0
 12 15  1  0
 17 18  1  0
 19 20  1  0
 21 22  1  0
 23 24  1  0
 25 26  1  0
M  CHG  1   8   1
M  END
>  <PDB_ID>  (1996) 
pdb3jpz

>  <RESIDUE_NAME>  (1996) 
LYS   PHE

>  <FRAG_NAME>  (1996) 
ETAM   MBZ

>  <FRAG_ATOM_NUM>  (1996) 
fragi: 11  fragj: 15

>  <atom.prop.CHAIN_ID>  (1996) 
A A A A A A A A A A A Z Z Z Z Z Z Z Z Z Z Z Z Z Z Z

>  <atom.prop.IS_HEAVY_ATOM>  (1996) 
1 0 0 0 1 0 0 1 0 0 0 1 0 0 0 1 1 0 1 0 1 0 1 0 1 0

>  <DIFUSE_FUNC_ATOM>  (1996) 
n/a

>  <FINAL_SINGLE_POINT_ENERGY>  (1996) 
0

>  <NONCOV_INTER_ENERGY_QM>  (1996) 
0

>  <FF_Energy>  (1996) 
-4.06

>  <QM_Energy>  (1996) 
-9.52

>  <source>  (1996) 
ETAM_MBZ

>  <Index>  (1996) 
20418

$$$$
ETAM-pdb3jrk-C-LYS-49:MBZ-pdb3jrk-C-PHE-22
     RDKit          3D

 26 25  0  0  0  0  0  0  0  0999 V2000
    0.3309   -0.8333   -3.9003 C   0  0  0  0  0  0  0  0  0  0  0  0
    0.5123   -1.1259   -2.9678 H   0  0  0  0  0  0  0  0  0  0  0  0
    0.0028   -1.5954   -4.4468 H   0  0  0  0  0  0  0  0  0  0  0  0
   -0.4244   -0.0475   -3.8889 H   0  0  0  0  0  0  0  0  0  0  0  0
    1.6525   -0.3403   -4.5120 C   0  0  0  0  0  0  0  0  0  0  0  0
    2.1804   -1.1498   -4.8356 H   0  0  0  0  0  0  0  0  0  0  0  0
    1.4384    0.2140   -5.3408 H   0  0  0  0  0  0  0  0  0  0  0  0
    2.5502    0.4825   -3.6096 N   0  0  0  0  0  4  0  0  0  0  0  0
    2.4264    0.1744   -2.6715 H   0  0  0  0  0  0  0  0  0  0  0  0
    3.4945    0.3502   -3.8940 H   0  0  0  0  0  0  0  0  0  0  0  0
    2.2947    1.4407   -3.6957 H   0  0  0  0  0  0  0  0  0  0  0  0
   -0.0098    2.9326    0.0071 C   0  0  0  0  0  0  0  0  0  0  0  0
   -0.5643    3.2262    0.7697 H   0  0  0  0  0  0  0  0  0  0  0  0
   -0.3864    3.2362   -0.8533 H   0  0  0  0  0  0  0  0  0  0  0  0
    0.9774    3.3811    0.1181 H   0  0  0  0  0  0  0  0  0  0  0  0
    0.0008    1.4177   -0.0011 C   0  0  0  0  0  0  0  0  0  0  0  0
   -1.1949    0.7076    0.0009 C   0  0  0  0  0  0  0  0  0  0  0  0
   -2.0646    1.1907    0.0016 H   0  0  0  0  0  0  0  0  0  0  0  0
   -1.2044   -0.7010    0.0000 C   0  0  0  0  0  0  0  0  0  0  0  0
   -2.0873   -1.1815    0.0009 H   0  0  0  0  0  0  0  0  0  0  0  0
   -0.0091   -1.4086   -0.0004 C   0  0  0  0  0  0  0  0  0  0  0  0
   -0.0145   -2.4026   -0.0016 H   0  0  0  0  0  0  0  0  0  0  0  0
    1.2044   -0.7114    0.0000 C   0  0  0  0  0  0  0  0  0  0  0  0
    2.0805   -1.2074    0.0013 H   0  0  0  0  0  0  0  0  0  0  0  0
    1.2031    0.6957    0.0006 C   0  0  0  0  0  0  0  0  0  0  0  0
    2.0716    1.1848    0.0019 H   0  0  0  0  0  0  0  0  0  0  0  0
  1  5  1  0
  5  8  1  0
  1  2  1  0
  1  3  1  0
  1  4  1  0
  5  6  1  0
  5  7  1  0
  8  9  1  0
  8 10  1  0
  8 11  1  0
 12 16  1  0
 16 17  2  0
 17 19  1  0
 19 21  2  0
 21 23  1  0
 23 25  2  0
 25 16  1  0
 12 13  1  0
 12 14  1  0
 12 15  1  0
 17 18  1  0
 19 20  1  0
 21 22  1  0
 23 24  1  0
 25 26  1  0
M  CHG  1   8   1
M  END
>  <PDB_ID>  (1997) 
pdb3jrk

>  <RESIDUE_NAME>  (1997) 
LYS   PHE

>  <FRAG_NAME>  (1997) 
ETAM   MBZ

>  <FRAG_ATOM_NUM>  (1997) 
fragi: 11  fragj: 15

>  <atom.prop.CHAIN_ID>  (1997) 
A A A A A A A A A A A Z Z Z Z Z Z Z Z Z Z Z Z Z Z Z

>  <atom.prop.IS_HEAVY_ATOM>  (1997) 
1 0 0 0 1 0 0 1 0 0 0 1 0 0 0 1 1 0 1 0 1 0 1 0 1 0

>  <DIFUSE_FUNC_ATOM>  (1997) 
n/a

>  <FINAL_SINGLE_POINT_ENERGY>  (1997) 
0

>  <NONCOV_INTER_ENERGY_QM>  (1997) 
0

>  <FF_Energy>  (1997) 
-4.54

>  <QM_Energy>  (1997) 
-9.55

>  <source>  (1997) 
ETAM_MBZ

>  <Index>  (1997) 
20457

$$$$
ETAM-pdb4gdi-A-LYS-160:MBZ-pdb4gdi-A-PHE-130
     RDKit          3D

 26 25  0  0  0  0  0  0  0  0999 V2000
    1.3523    1.9002   -3.8009 C   0  0  0  0  0  0  0  0  0  0  0  0
    1.1058    1.8435   -2.8643 H   0  0  0  0  0  0  0  0  0  0  0  0
    0.6920    2.4179   -4.2881 H   0  0  0  0  0  0  0  0  0  0  0  0
    2.3230    2.3885   -3.8866 H   0  0  0  0  0  0  0  0  0  0  0  0
    1.3650    0.4871   -4.3747 C   0  0  0  0  0  0  0  0  0  0  0  0
    1.3055    0.5333   -5.3413 H   0  0  0  0  0  0  0  0  0  0  0  0
    2.1839    0.0404   -4.1089 H   0  0  0  0  0  0  0  0  0  0  0  0
    0.2069   -0.3197   -3.8706 N   0  0  0  0  0  4  0  0  0  0  0  0
    0.2338   -1.1382   -4.2169 H   0  0  0  0  0  0  0  0  0  0  0  0
    0.2415   -0.3785   -2.9833 H   0  0  0  0  0  0  0  0  0  0  0  0
   -0.5588    0.0691   -4.1046 H   0  0  0  0  0  0  0  0  0  0  0  0
   -0.0033    2.9106    0.0298 C   0  0  0  0  0  0  0  0  0  0  0  0
   -0.7567    3.2140   -0.4995 H   0  0  0  0  0  0  0  0  0  0  0  0
    0.8259    3.2166   -0.3717 H   0  0  0  0  0  0  0  0  0  0  0  0
   -0.0852    3.3314    1.0320 H   0  0  0  0  0  0  0  0  0  0  0  0
    0.0015    1.4060    0.0045 C   0  0  0  0  0  0  0  0  0  0  0  0
   -1.1948    0.6960    0.0049 C   0  0  0  0  0  0  0  0  0  0  0  0
   -2.0015    1.1588    0.0133 H   0  0  0  0  0  0  0  0  0  0  0  0
   -1.2043   -0.7021   -0.0000 C   0  0  0  0  0  0  0  0  0  0  0  0
   -2.0128   -1.1627   -0.0011 H   0  0  0  0  0  0  0  0  0  0  0  0
   -0.0060   -1.4010   -0.0048 C   0  0  0  0  0  0  0  0  0  0  0  0
   -0.0073   -2.3317   -0.0126 H   0  0  0  0  0  0  0  0  0  0  0  0
    1.2043   -0.7009   -0.0000 C   0  0  0  0  0  0  0  0  0  0  0  0
    2.0109   -1.1639   -0.0106 H   0  0  0  0  0  0  0  0  0  0  0  0
    1.1992    0.7020   -0.0047 C   0  0  0  0  0  0  0  0  0  0  0  0
    2.0058    1.1650    0.0039 H   0  0  0  0  0  0  0  0  0  0  0  0
  1  5  1  0
  5  8  1  0
  1  2  1  0
  1  3  1  0
  1  4  1  0
  5  6  1  0
  5  7  1  0
  8  9  1  0
  8 10  1  0
  8 11  1  0
 12 16  1  0
 16 17  2  0
 17 19  1  0
 19 21  2  0
 21 23  1  0
 23 25  2  0
 25 16  1  0
 12 13  1  0
 12 14  1  0
 12 15  1  0
 17 18  1  0
 19 20  1  0
 21 22  1  0
 23 24  1  0
 25 26  1  0
M  CHG  1   8   1
M  END
>  <PDB_ID>  (1998) 
pdb4gdi

>  <RESIDUE_NAME>  (1998) 
LYS   PHE

>  <FRAG_NAME>  (1998) 
ETAM   MBZ

>  <FRAG_ATOM_NUM>  (1998) 
fragi: 11  fragj: 15

>  <atom.prop.CHAIN_ID>  (1998) 
A A A A A A A A A A A Z Z Z Z Z Z Z Z Z Z Z Z Z Z Z

>  <atom.prop.IS_HEAVY_ATOM>  (1998) 
1 0 0 0 1 0 0 1 0 0 0 1 0 0 0 1 1 0 1 0 1 0 1 0 1 0

>  <DIFUSE_FUNC_ATOM>  (1998) 
n/a

>  <FINAL_SINGLE_POINT_ENERGY>  (1998) 
0

>  <NONCOV_INTER_ENERGY_QM>  (1998) 
0

>  <FF_Energy>  (1998) 
-6.86

>  <QM_Energy>  (1998) 
-12.07

>  <source>  (1998) 
ETAM_MBZ

>  <Index>  (1998) 
20460

$$$$
ETAM-pdb3jtp-A-LYS-25:MBZ-pdb3jtp-D-PHE-38
     RDKit          3D

 26 25  0  0  0  0  0  0  0  0999 V2000
   -3.5730   -2.6579    1.6680 C   0  0  0  0  0  0  0  0  0  0  0  0
   -2.7951   -2.2528    1.1912 H   0  0  0  0  0  0  0  0  0  0  0  0
   -4.4107   -2.1756    1.4182 H   0  0  0  0  0  0  0  0  0  0  0  0
   -3.6642   -3.7017    1.3675 H   0  0  0  0  0  0  0  0  0  0  0  0
   -3.3538   -2.4917    3.1745 C   0  0  0  0  0  0  0  0  0  0  0  0
   -3.7431   -3.2664    3.6486 H   0  0  0  0  0  0  0  0  0  0  0  0
   -2.3856   -2.4079    3.3562 H   0  0  0  0  0  0  0  0  0  0  0  0
   -4.0506   -1.2298    3.6426 N   0  0  0  0  0  4  0  0  0  0  0  0
   -4.3637   -0.7242    2.8444 H   0  0  0  0  0  0  0  0  0  0  0  0
   -4.8239   -1.4867    4.2139 H   0  0  0  0  0  0  0  0  0  0  0  0
   -3.4032   -0.6835    4.1649 H   0  0  0  0  0  0  0  0  0  0  0  0
    0.0033    2.9252    0.0088 C   0  0  0  0  0  0  0  0  0  0  0  0
   -0.8315    3.2326   -0.4140 H   0  0  0  0  0  0  0  0  0  0  0  0
    0.7995    3.2297   -0.4853 H   0  0  0  0  0  0  0  0  0  0  0  0
    0.0479    3.3522    1.0107 H   0  0  0  0  0  0  0  0  0  0  0  0
   -0.0007    1.4069   -0.0063 C   0  0  0  0  0  0  0  0  0  0  0  0
   -1.1939    0.7011   -0.0010 C   0  0  0  0  0  0  0  0  0  0  0  0
   -2.0626    1.1912    0.0010 H   0  0  0  0  0  0  0  0  0  0  0  0
   -1.2052   -0.6937    0.0000 C   0  0  0  0  0  0  0  0  0  0  0  0
   -2.0818   -1.1842   -0.0015 H   0  0  0  0  0  0  0  0  0  0  0  0
   -0.0002   -1.4026    0.0054 C   0  0  0  0  0  0  0  0  0  0  0  0
   -0.0103   -2.3967    0.0123 H   0  0  0  0  0  0  0  0  0  0  0  0
    1.2052   -0.7051   -0.0000 C   0  0  0  0  0  0  0  0  0  0  0  0
    2.0842   -1.1975   -0.0035 H   0  0  0  0  0  0  0  0  0  0  0  0
    1.1949    0.6934    0.0018 C   0  0  0  0  0  0  0  0  0  0  0  0
    2.0650    1.1884    0.0086 H   0  0  0  0  0  0  0  0  0  0  0  0
  1  5  1  0
  5  8  1  0
  1  2  1  0
  1  3  1  0
  1  4  1  0
  5  6  1  0
  5  7  1  0
  8  9  1  0
  8 10  1  0
  8 11  1  0
 12 16  1  0
 16 17  2  0
 17 19  1  0
 19 21  2  0
 21 23  1  0
 23 25  2  0
 25 16  1  0
 12 13  1  0
 12 14  1  0
 12 15  1  0
 17 18  1  0
 19 20  1  0
 21 22  1  0
 23 24  1  0
 25 26  1  0
M  CHG  1   8   1
M  END
>  <PDB_ID>  (1999) 
pdb3jtp

>  <RESIDUE_NAME>  (1999) 
LYS   PHE

>  <FRAG_NAME>  (1999) 
ETAM   MBZ

>  <FRAG_ATOM_NUM>  (1999) 
fragi: 11  fragj: 15

>  <atom.prop.CHAIN_ID>  (1999) 
A A A A A A A A A A A Z Z Z Z Z Z Z Z Z Z Z Z Z Z Z

>  <atom.prop.IS_HEAVY_ATOM>  (1999) 
1 0 0 0 1 0 0 1 0 0 0 1 0 0 0 1 1 0 1 0 1 0 1 0 1 0

>  <DIFUSE_FUNC_ATOM>  (1999) 
n/a

>  <FINAL_SINGLE_POINT_ENERGY>  (1999) 
0

>  <NONCOV_INTER_ENERGY_QM>  (1999) 
0

>  <FF_Energy>  (1999) 
3.88

>  <QM_Energy>  (1999) 
-1.85

>  <source>  (1999) 
ETAM_MBZ

>  <Index>  (1999) 
20461

$$$$
ETAM-pdb3jwh-A-LYS-349:MBZ-pdb3jwh-A-PHE-381
     RDKit          3D

 26 25  0  0  0  0  0  0  0  0999 V2000
   -0.5940   -4.8798    0.2679 C   0  0  0  0  0  0  0  0  0  0  0  0
   -0.0642   -4.0407    0.3377 H   0  0  0  0  0  0  0  0  0  0  0  0
   -1.2313   -4.8232   -0.4946 H   0  0  0  0  0  0  0  0  0  0  0  0
    0.0899   -5.7098    0.0905 H   0  0  0  0  0  0  0  0  0  0  0  0
   -1.3938   -5.0597    1.5577 C   0  0  0  0  0  0  0  0  0  0  0  0
   -1.8913   -5.9312    1.5103 H   0  0  0  0  0  0  0  0  0  0  0  0
   -0.7547   -5.0965    2.3325 H   0  0  0  0  0  0  0  0  0  0  0  0
   -2.3701   -3.9508    1.7831 N   0  0  0  0  0  4  0  0  0  0  0  0
   -2.1172   -3.4542    2.6117 H   0  0  0  0  0  0  0  0  0  0  0  0
   -2.3504   -3.3315    0.9999 H   0  0  0  0  0  0  0  0  0  0  0  0
   -3.2856   -4.3355    1.8859 H   0  0  0  0  0  0  0  0  0  0  0  0
   -0.0049    2.9042    0.0240 C   0  0  0  0  0  0  0  0  0  0  0  0
   -0.5727    3.2230   -0.7205 H   0  0  0  0  0  0  0  0  0  0  0  0
    0.9270    3.2208   -0.0743 H   0  0  0  0  0  0  0  0  0  0  0  0
   -0.4018    3.3285    0.9463 H   0  0  0  0  0  0  0  0  0  0  0  0
    0.0031    1.4068    0.0005 C   0  0  0  0  0  0  0  0  0  0  0  0
   -1.1978    0.6934    0.0000 C   0  0  0  0  0  0  0  0  0  0  0  0
   -2.0640    1.1838   -0.0018 H   0  0  0  0  0  0  0  0  0  0  0  0
   -1.2058   -0.7044    0.0000 C   0  0  0  0  0  0  0  0  0  0  0  0
   -2.0829   -1.1927    0.0014 H   0  0  0  0  0  0  0  0  0  0  0  0
   -0.0053   -1.4015   -0.0001 C   0  0  0  0  0  0  0  0  0  0  0  0
   -0.0022   -2.3970   -0.0004 H   0  0  0  0  0  0  0  0  0  0  0  0
    1.2058   -0.6964   -0.0000 C   0  0  0  0  0  0  0  0  0  0  0  0
    2.0835   -1.1935    0.0020 H   0  0  0  0  0  0  0  0  0  0  0  0
    1.2000    0.7022   -0.0004 C   0  0  0  0  0  0  0  0  0  0  0  0
    2.0681    1.1953   -0.0026 H   0  0  0  0  0  0  0  0  0  0  0  0
  1  5  1  0
  5  8  1  0
  1  2  1  0
  1  3  1  0
  1  4  1  0
  5  6  1  0
  5  7  1  0
  8  9  1  0
  8 10  1  0
  8 11  1  0
 12 16  1  0
 16 17  2  0
 17 19  1  0
 19 21  2  0
 21 23  1  0
 23 25  2  0
 25 16  1  0
 12 13  1  0
 12 14  1  0
 12 15  1  0
 17 18  1  0
 19 20  1  0
 21 22  1  0
 23 24  1  0
 25 26  1  0
M  CHG  1   8   1
M  END
>  <PDB_ID>  (2000) 
pdb3jwh

>  <RESIDUE_NAME>  (2000) 
LYS   PHE

>  <FRAG_NAME>  (2000) 
ETAM   MBZ

>  <FRAG_ATOM_NUM>  (2000) 
fragi: 11  fragj: 15

>  <atom.prop.CHAIN_ID>  (2000) 
A A A A A A A A A A A Z Z Z Z Z Z Z Z Z Z Z Z Z Z Z

>  <atom.prop.IS_HEAVY_ATOM>  (2000) 
1 0 0 0 1 0 0 1 0 0 0 1 0 0 0 1 1 0 1 0 1 0 1 0 1 0

>  <DIFUSE_FUNC_ATOM>  (2000) 
n/a

>  <FINAL_SINGLE_POINT_ENERGY>  (2000) 
0

>  <NONCOV_INTER_ENERGY_QM>  (2000) 
0

>  <FF_Energy>  (2000) 
8.13

>  <QM_Energy>  (2000) 
-2.16

>  <source>  (2000) 
ETAM_MBZ

>  <Index>  (2000) 
20472

$$$$
ETAM-pdb3jq1-A-LYS-367:MBZ-pdb3jq1-A-PHE-255
     RDKit          3D

 26 25  0  0  0  0  0  0  0  0999 V2000
   -1.0717   -0.1894    3.7939 C   0  0  0  0  0  0  0  0  0  0  0  0
   -1.4960   -0.3712    4.6822 H   0  0  0  0  0  0  0  0  0  0  0  0
   -1.7343   -0.3710    3.0660 H   0  0  0  0  0  0  0  0  0  0  0  0
   -0.7484    0.8506    3.7467 H   0  0  0  0  0  0  0  0  0  0  0  0
    0.0912   -1.1743    3.6218 C   0  0  0  0  0  0  0  0  0  0  0  0
    0.5184   -1.0166    2.7454 H   0  0  0  0  0  0  0  0  0  0  0  0
    0.7318   -1.0488    4.3635 H   0  0  0  0  0  0  0  0  0  0  0  0
   -0.4526   -2.5699    3.6658 N   0  0  0  0  0  4  0  0  0  0  0  0
   -0.6811   -2.8014    4.6093 H   0  0  0  0  0  0  0  0  0  0  0  0
   -1.2713   -2.6191    3.0976 H   0  0  0  0  0  0  0  0  0  0  0  0
    0.2389   -3.2004    3.3197 H   0  0  0  0  0  0  0  0  0  0  0  0
   -0.0274    2.8952   -0.0310 C   0  0  0  0  0  0  0  0  0  0  0  0
    0.8916    3.2134    0.1154 H   0  0  0  0  0  0  0  0  0  0  0  0
   -0.6473    3.2153    0.6620 H   0  0  0  0  0  0  0  0  0  0  0  0
   -0.3687    3.2780   -0.9928 H   0  0  0  0  0  0  0  0  0  0  0  0
   -0.0125    1.3907    0.0167 C   0  0  0  0  0  0  0  0  0  0  0  0
   -1.2019    0.6754    0.0059 C   0  0  0  0  0  0  0  0  0  0  0  0
   -2.0740    1.1593    0.0008 H   0  0  0  0  0  0  0  0  0  0  0  0
   -1.2028   -0.7193   -0.0000 C   0  0  0  0  0  0  0  0  0  0  0  0
   -2.0598   -1.2225    0.0018 H   0  0  0  0  0  0  0  0  0  0  0  0
    0.0264   -1.3904   -0.0062 C   0  0  0  0  0  0  0  0  0  0  0  0
    0.0399   -2.3881   -0.0159 H   0  0  0  0  0  0  0  0  0  0  0  0
    1.2028   -0.6659   -0.0000 C   0  0  0  0  0  0  0  0  0  0  0  0
    2.1003   -1.1567    0.0186 H   0  0  0  0  0  0  0  0  0  0  0  0
    1.1880    0.7094   -0.0163 C   0  0  0  0  0  0  0  0  0  0  0  0
    2.0471    1.2183   -0.0532 H   0  0  0  0  0  0  0  0  0  0  0  0
  1  5  1  0
  5  8  1  0
  1  2  1  0
  1  3  1  0
  1  4  1  0
  5  6  1  0
  5  7  1  0
  8  9  1  0
  8 10  1  0
  8 11  1  0
 12 16  1  0
 16 17  2  0
 17 19  1  0
 19 21  2  0
 21 23  1  0
 23 25  2  0
 25 16  1  0
 12 13  1  0
 12 14  1  0
 12 15  1  0
 17 18  1  0
 19 20  1  0
 21 22  1  0
 23 24  1  0
 25 26  1  0
M  CHG  1   8   1
M  END
>  <PDB_ID>  (2001) 
pdb3jq1

>  <RESIDUE_NAME>  (2001) 
LYS   PHE

>  <FRAG_NAME>  (2001) 
ETAM   MBZ

>  <FRAG_ATOM_NUM>  (2001) 
fragi: 11  fragj: 15

>  <atom.prop.CHAIN_ID>  (2001) 
A A A A A A A A A A A Z Z Z Z Z Z Z Z Z Z Z Z Z Z Z

>  <atom.prop.IS_HEAVY_ATOM>  (2001) 
1 0 0 0 1 0 0 1 0 0 0 1 0 0 0 1 1 0 1 0 1 0 1 0 1 0

>  <DIFUSE_FUNC_ATOM>  (2001) 
n/a

>  <FINAL_SINGLE_POINT_ENERGY>  (2001) 
0

>  <NONCOV_INTER_ENERGY_QM>  (2001) 
0

>  <FF_Energy>  (2001) 
-4.57

>  <QM_Energy>  (2001) 
-9.63

>  <source>  (2001) 
ETAM_MBZ

>  <Index>  (2001) 
20481

$$$$
ETAM-pdb3jxa-A-LYS-239:MBZ-pdb3jxa-A-PHE-312
     RDKit          3D

 26 25  0  0  0  0  0  0  0  0999 V2000
   -1.1784   -5.2885    1.2917 C   0  0  0  0  0  0  0  0  0  0  0  0
   -0.5583   -5.2622    2.0695 H   0  0  0  0  0  0  0  0  0  0  0  0
   -1.5655   -6.1987    1.1886 H   0  0  0  0  0  0  0  0  0  0  0  0
   -1.9883   -4.5800    1.4662 H   0  0  0  0  0  0  0  0  0  0  0  0
   -0.3927   -4.9493    0.0313 C   0  0  0  0  0  0  0  0  0  0  0  0
   -1.0320   -4.8703   -0.7382 H   0  0  0  0  0  0  0  0  0  0  0  0
    0.0659   -4.0662    0.1630 H   0  0  0  0  0  0  0  0  0  0  0  0
    0.6281   -5.9879   -0.2863 N   0  0  0  0  0  4  0  0  0  0  0  0
    0.1737   -6.7914   -0.6686 H   0  0  0  0  0  0  0  0  0  0  0  0
    1.2766   -5.6211   -0.9513 H   0  0  0  0  0  0  0  0  0  0  0  0
    1.1123   -6.2417    0.5497 H   0  0  0  0  0  0  0  0  0  0  0  0
   -0.0001    2.9088   -0.0112 C   0  0  0  0  0  0  0  0  0  0  0  0
   -0.8266    3.2092   -0.4671 H   0  0  0  0  0  0  0  0  0  0  0  0
    0.8070    3.2082   -0.5009 H   0  0  0  0  0  0  0  0  0  0  0  0
    0.0206    3.3709    0.9757 H   0  0  0  0  0  0  0  0  0  0  0  0
   -0.0004    1.4005    0.0058 C   0  0  0  0  0  0  0  0  0  0  0  0
   -1.1917    0.6926   -0.0014 C   0  0  0  0  0  0  0  0  0  0  0  0
   -2.0605    1.1822   -0.0090 H   0  0  0  0  0  0  0  0  0  0  0  0
   -1.1965   -0.6951    0.0000 C   0  0  0  0  0  0  0  0  0  0  0  0
   -2.0762   -1.1876    0.0017 H   0  0  0  0  0  0  0  0  0  0  0  0
   -0.0015   -1.3898    0.0014 C   0  0  0  0  0  0  0  0  0  0  0  0
   -0.0061   -2.3906    0.0026 H   0  0  0  0  0  0  0  0  0  0  0  0
    1.1965   -0.6985   -0.0000 C   0  0  0  0  0  0  0  0  0  0  0  0
    2.0786   -1.1971    0.0046 H   0  0  0  0  0  0  0  0  0  0  0  0
    1.1936    0.6903   -0.0058 C   0  0  0  0  0  0  0  0  0  0  0  0
    2.0629    1.1863   -0.0190 H   0  0  0  0  0  0  0  0  0  0  0  0
  1  5  1  0
  5  8  1  0
  1  2  1  0
  1  3  1  0
  1  4  1  0
  5  6  1  0
  5  7  1  0
  8  9  1  0
  8 10  1  0
  8 11  1  0
 12 16  1  0
 16 17  2  0
 17 19  1  0
 19 21  2  0
 21 23  1  0
 23 25  2  0
 25 16  1  0
 12 13  1  0
 12 14  1  0
 12 15  1  0
 17 18  1  0
 19 20  1  0
 21 22  1  0
 23 24  1  0
 25 26  1  0
M  CHG  1   8   1
M  END
>  <PDB_ID>  (2002) 
pdb3jxa

>  <RESIDUE_NAME>  (2002) 
LYS   PHE

>  <FRAG_NAME>  (2002) 
ETAM   MBZ

>  <FRAG_ATOM_NUM>  (2002) 
fragi: 11  fragj: 15

>  <atom.prop.CHAIN_ID>  (2002) 
A A A A A A A A A A A Z Z Z Z Z Z Z Z Z Z Z Z Z Z Z

>  <atom.prop.IS_HEAVY_ATOM>  (2002) 
1 0 0 0 1 0 0 1 0 0 0 1 0 0 0 1 1 0 1 0 1 0 1 0 1 0

>  <DIFUSE_FUNC_ATOM>  (2002) 
n/a

>  <FINAL_SINGLE_POINT_ENERGY>  (2002) 
0

>  <NONCOV_INTER_ENERGY_QM>  (2002) 
0

>  <FF_Energy>  (2002) 
9.45

>  <QM_Energy>  (2002) 
-0.19

>  <source>  (2002) 
ETAM_MBZ

>  <Index>  (2002) 
20482

$$$$
ETAM-pdb4ger-A-LYS-406:MBZ-pdb4ger-C-PHE-123
     RDKit          3D

 26 25  0  0  0  0  0  0  0  0999 V2000
    1.4069   -3.9903    2.7795 C   0  0  0  0  0  0  0  0  0  0  0  0
    2.0207   -4.6708    3.1090 H   0  0  0  0  0  0  0  0  0  0  0  0
    1.1575   -4.0998    1.8450 H   0  0  0  0  0  0  0  0  0  0  0  0
    0.5061   -3.9960    3.3932 H   0  0  0  0  0  0  0  0  0  0  0  0
    2.0225   -2.6283    2.9733 C   0  0  0  0  0  0  0  0  0  0  0  0
    1.3496   -1.9182    2.6806 H   0  0  0  0  0  0  0  0  0  0  0  0
    2.1779   -2.4766    3.9716 H   0  0  0  0  0  0  0  0  0  0  0  0
    3.3001   -2.3951    2.2538 N   0  0  0  0  0  4  0  0  0  0  0  0
    3.1785   -1.6573    1.5896 H   0  0  0  0  0  0  0  0  0  0  0  0
    4.0106   -2.1393    2.9103 H   0  0  0  0  0  0  0  0  0  0  0  0
    3.5723   -3.2313    1.7771 H   0  0  0  0  0  0  0  0  0  0  0  0
   -0.0425    2.8792    0.0032 C   0  0  0  0  0  0  0  0  0  0  0  0
    0.8537    3.2242    0.2276 H   0  0  0  0  0  0  0  0  0  0  0  0
   -0.7233    3.1824    0.6484 H   0  0  0  0  0  0  0  0  0  0  0  0
   -0.3120    3.3069   -0.9625 H   0  0  0  0  0  0  0  0  0  0  0  0
   -0.0034    1.3959    0.0013 C   0  0  0  0  0  0  0  0  0  0  0  0
   -1.2061    0.6581   -0.0062 C   0  0  0  0  0  0  0  0  0  0  0  0
   -2.0729    1.1546   -0.0180 H   0  0  0  0  0  0  0  0  0  0  0  0
   -1.2026   -0.7184   -0.0000 C   0  0  0  0  0  0  0  0  0  0  0  0
   -2.0631   -1.2292    0.0105 H   0  0  0  0  0  0  0  0  0  0  0  0
    0.0173   -1.3899   -0.0066 C   0  0  0  0  0  0  0  0  0  0  0  0
    0.0288   -2.3903   -0.0168 H   0  0  0  0  0  0  0  0  0  0  0  0
    1.2026   -0.6753    0.0000 C   0  0  0  0  0  0  0  0  0  0  0  0
    2.0963   -1.1574   -0.0020 H   0  0  0  0  0  0  0  0  0  0  0  0
    1.1923    0.7296    0.0115 C   0  0  0  0  0  0  0  0  0  0  0  0
    2.0546    1.2202    0.0258 H   0  0  0  0  0  0  0  0  0  0  0  0
  1  5  1  0
  5  8  1  0
  1  2  1  0
  1  3  1  0
  1  4  1  0
  5  6  1  0
  5  7  1  0
  8  9  1  0
  8 10  1  0
  8 11  1  0
 12 16  1  0
 16 17  2  0
 17 19  1  0
 19 21  2  0
 21 23  1  0
 23 25  2  0
 25 16  1  0
 12 13  1  0
 12 14  1  0
 12 15  1  0
 17 18  1  0
 19 20  1  0
 21 22  1  0
 23 24  1  0
 25 26  1  0
M  CHG  1   8   1
M  END
>  <PDB_ID>  (2003) 
pdb4ger

>  <RESIDUE_NAME>  (2003) 
LYS   PHE

>  <FRAG_NAME>  (2003) 
ETAM   MBZ

>  <FRAG_ATOM_NUM>  (2003) 
fragi: 11  fragj: 15

>  <atom.prop.CHAIN_ID>  (2003) 
A A A A A A A A A A A Z Z Z Z Z Z Z Z Z Z Z Z Z Z Z

>  <atom.prop.IS_HEAVY_ATOM>  (2003) 
1 0 0 0 1 0 0 1 0 0 0 1 0 0 0 1 1 0 1 0 1 0 1 0 1 0

>  <DIFUSE_FUNC_ATOM>  (2003) 
n/a

>  <FINAL_SINGLE_POINT_ENERGY>  (2003) 
0

>  <NONCOV_INTER_ENERGY_QM>  (2003) 
0

>  <FF_Energy>  (2003) 
-1.04

>  <QM_Energy>  (2003) 
-7.04

>  <source>  (2003) 
ETAM_MBZ

>  <Index>  (2003) 
20485

$$$$
ETAM-pdb4ge1-B-LYS-56:MBZ-pdb4ge1-B-PHE-191
     RDKit          3D

 26 25  0  0  0  0  0  0  0  0999 V2000
    5.6759    0.6472    2.6046 C   0  0  0  0  0  0  0  0  0  0  0  0
    5.9387    1.5420    2.2555 H   0  0  0  0  0  0  0  0  0  0  0  0
    6.3851   -0.0225    2.4061 H   0  0  0  0  0  0  0  0  0  0  0  0
    5.5515    0.7164    3.6853 H   0  0  0  0  0  0  0  0  0  0  0  0
    4.3910    0.2133    1.9115 C   0  0  0  0  0  0  0  0  0  0  0  0
    4.1887   -0.7358    2.1647 H   0  0  0  0  0  0  0  0  0  0  0  0
    3.6384    0.7999    2.2228 H   0  0  0  0  0  0  0  0  0  0  0  0
    4.4951    0.3067    0.4203 N   0  0  0  0  0  4  0  0  0  0  0  0
    3.6614   -0.0581    0.0113 H   0  0  0  0  0  0  0  0  0  0  0  0
    4.6092    1.2632    0.1596 H   0  0  0  0  0  0  0  0  0  0  0  0
    5.2832   -0.2239    0.1132 H   0  0  0  0  0  0  0  0  0  0  0  0
   -0.0027    2.8961   -0.0036 C   0  0  0  0  0  0  0  0  0  0  0  0
    0.7589    3.2057    0.5455 H   0  0  0  0  0  0  0  0  0  0  0  0
   -0.8650    3.2020    0.3728 H   0  0  0  0  0  0  0  0  0  0  0  0
    0.1020    3.3358   -0.9954 H   0  0  0  0  0  0  0  0  0  0  0  0
    0.0002    1.3952    0.0002 C   0  0  0  0  0  0  0  0  0  0  0  0
   -1.1902    0.6891   -0.0023 C   0  0  0  0  0  0  0  0  0  0  0  0
   -2.0592    1.1804   -0.0072 H   0  0  0  0  0  0  0  0  0  0  0  0
   -1.1954   -0.6955    0.0000 C   0  0  0  0  0  0  0  0  0  0  0  0
   -2.0746   -1.1888    0.0020 H   0  0  0  0  0  0  0  0  0  0  0  0
   -0.0015   -1.3870    0.0017 C   0  0  0  0  0  0  0  0  0  0  0  0
   -0.0025   -2.3876    0.0036 H   0  0  0  0  0  0  0  0  0  0  0  0
    1.1954   -0.6922    0.0000 C   0  0  0  0  0  0  0  0  0  0  0  0
    2.0780   -1.1926   -0.0006 H   0  0  0  0  0  0  0  0  0  0  0  0
    1.1916    0.6904    0.0004 C   0  0  0  0  0  0  0  0  0  0  0  0
    2.0610    1.1885   -0.0003 H   0  0  0  0  0  0  0  0  0  0  0  0
  1  5  1  0
  5  8  1  0
  1  2  1  0
  1  3  1  0
  1  4  1  0
  5  6  1  0
  5  7  1  0
  8  9  1  0
  8 10  1  0
  8 11  1  0
 12 16  1  0
 16 17  2  0
 17 19  1  0
 19 21  2  0
 21 23  1  0
 23 25  2  0
 25 16  1  0
 12 13  1  0
 12 14  1  0
 12 15  1  0
 17 18  1  0
 19 20  1  0
 21 22  1  0
 23 24  1  0
 25 26  1  0
M  CHG  1   8   1
M  END
>  <PDB_ID>  (2004) 
pdb4ge1

>  <RESIDUE_NAME>  (2004) 
LYS   PHE

>  <FRAG_NAME>  (2004) 
ETAM   MBZ

>  <FRAG_ATOM_NUM>  (2004) 
fragi: 11  fragj: 15

>  <atom.prop.CHAIN_ID>  (2004) 
A A A A A A A A A A A Z Z Z Z Z Z Z Z Z Z Z Z Z Z Z

>  <atom.prop.IS_HEAVY_ATOM>  (2004) 
1 0 0 0 1 0 0 1 0 0 0 1 0 0 0 1 1 0 1 0 1 0 1 0 1 0

>  <DIFUSE_FUNC_ATOM>  (2004) 
n/a

>  <FINAL_SINGLE_POINT_ENERGY>  (2004) 
0

>  <NONCOV_INTER_ENERGY_QM>  (2004) 
0

>  <FF_Energy>  (2004) 
1.3

>  <QM_Energy>  (2004) 
-4.63

>  <source>  (2004) 
ETAM_MBZ

>  <Index>  (2004) 
20518

$$$$
ETAM-pdb3jur-A-LYS-444:MBZ-pdb3jur-A-PHE-421
     RDKit          3D

 26 25  0  0  0  0  0  0  0  0999 V2000
   -1.7358   -1.8951   -4.9326 C   0  0  0  0  0  0  0  0  0  0  0  0
   -2.6668   -2.2493   -4.8725 H   0  0  0  0  0  0  0  0  0  0  0  0
   -1.3149   -2.1921   -5.7869 H   0  0  0  0  0  0  0  0  0  0  0  0
   -1.7804   -0.8060   -4.9296 H   0  0  0  0  0  0  0  0  0  0  0  0
   -0.9267   -2.4470   -3.7712 C   0  0  0  0  0  0  0  0  0  0  0  0
   -0.4297   -3.2662   -4.0840 H   0  0  0  0  0  0  0  0  0  0  0  0
   -0.2475   -1.7561   -3.4926 H   0  0  0  0  0  0  0  0  0  0  0  0
   -1.7687   -2.8009   -2.6069 N   0  0  0  0  0  4  0  0  0  0  0  0
   -1.7188   -2.0716   -1.9220 H   0  0  0  0  0  0  0  0  0  0  0  0
   -2.7187   -2.9148   -2.9016 H   0  0  0  0  0  0  0  0  0  0  0  0
   -1.4414   -3.6570   -2.2042 H   0  0  0  0  0  0  0  0  0  0  0  0
    0.0012    2.9298   -0.0013 C   0  0  0  0  0  0  0  0  0  0  0  0
    0.9399    3.2334    0.0048 H   0  0  0  0  0  0  0  0  0  0  0  0
   -0.4867    3.2373    0.7994 H   0  0  0  0  0  0  0  0  0  0  0  0
   -0.4827    3.3727   -0.8719 H   0  0  0  0  0  0  0  0  0  0  0  0
   -0.0013    1.4169    0.0009 C   0  0  0  0  0  0  0  0  0  0  0  0
   -1.2011    0.7062    0.0018 C   0  0  0  0  0  0  0  0  0  0  0  0
   -2.0690    1.1901    0.0028 H   0  0  0  0  0  0  0  0  0  0  0  0
   -1.2111   -0.7057   -0.0000 C   0  0  0  0  0  0  0  0  0  0  0  0
   -2.0857   -1.1909   -0.0015 H   0  0  0  0  0  0  0  0  0  0  0  0
    0.0004   -1.4127    0.0024 C   0  0  0  0  0  0  0  0  0  0  0  0
   -0.0062   -2.4056    0.0056 H   0  0  0  0  0  0  0  0  0  0  0  0
    1.2111   -0.7095   -0.0000 C   0  0  0  0  0  0  0  0  0  0  0  0
    2.0898   -1.1975    0.0030 H   0  0  0  0  0  0  0  0  0  0  0  0
    1.2020    0.7048   -0.0052 C   0  0  0  0  0  0  0  0  0  0  0  0
    2.0693    1.1944   -0.0140 H   0  0  0  0  0  0  0  0  0  0  0  0
  1  5  1  0
  5  8  1  0
  1  2  1  0
  1  3  1  0
  1  4  1  0
  5  6  1  0
  5  7  1  0
  8  9  1  0
  8 10  1  0
  8 11  1  0
 12 16  1  0
 16 17  2  0
 17 19  1  0
 19 21  2  0
 21 23  1  0
 23 25  2  0
 25 16  1  0
 12 13  1  0
 12 14  1  0
 12 15  1  0
 17 18  1  0
 19 20  1  0
 21 22  1  0
 23 24  1  0
 25 26  1  0
M  CHG  1   8   1
M  END
>  <PDB_ID>  (2005) 
pdb3jur

>  <RESIDUE_NAME>  (2005) 
LYS   PHE

>  <FRAG_NAME>  (2005) 
ETAM   MBZ

>  <FRAG_ATOM_NUM>  (2005) 
fragi: 11  fragj: 15

>  <atom.prop.CHAIN_ID>  (2005) 
A A A A A A A A A A A Z Z Z Z Z Z Z Z Z Z Z Z Z Z Z

>  <atom.prop.IS_HEAVY_ATOM>  (2005) 
1 0 0 0 1 0 0 1 0 0 0 1 0 0 0 1 1 0 1 0 1 0 1 0 1 0

>  <DIFUSE_FUNC_ATOM>  (2005) 
n/a

>  <FINAL_SINGLE_POINT_ENERGY>  (2005) 
0

>  <NONCOV_INTER_ENERGY_QM>  (2005) 
0

>  <FF_Energy>  (2005) 
-2.48

>  <QM_Energy>  (2005) 
-10.17

>  <source>  (2005) 
ETAM_MBZ

>  <Index>  (2005) 
20534

$$$$
ETAM-pdb3jxi-B-LYS-178:MBZ-pdb3jxi-B-PHE-217
     RDKit          3D

 26 25  0  0  0  0  0  0  0  0999 V2000
    1.6907    1.3153    3.8729 C   0  0  0  0  0  0  0  0  0  0  0  0
    2.1950    1.3849    2.9807 H   0  0  0  0  0  0  0  0  0  0  0  0
    2.1375    2.0039    4.4912 H   0  0  0  0  0  0  0  0  0  0  0  0
    0.6522    1.6054    3.7135 H   0  0  0  0  0  0  0  0  0  0  0  0
    1.9118   -0.0214    4.4294 C   0  0  0  0  0  0  0  0  0  0  0  0
    2.4811    0.0570    5.2769 H   0  0  0  0  0  0  0  0  0  0  0  0
    1.0150   -0.4123    4.7338 H   0  0  0  0  0  0  0  0  0  0  0  0
    2.5413   -0.9354    3.5173 N   0  0  0  0  0  4  0  0  0  0  0  0
    2.2502   -1.8833    3.7030 H   0  0  0  0  0  0  0  0  0  0  0  0
    2.2986   -0.7129    2.5642 H   0  0  0  0  0  0  0  0  0  0  0  0
    3.5456   -0.8919    3.6041 H   0  0  0  0  0  0  0  0  0  0  0  0
    0.0325    2.8689   -0.0197 C   0  0  0  0  0  0  0  0  0  0  0  0
    0.8667    3.1780    0.4138 H   0  0  0  0  0  0  0  0  0  0  0  0
   -0.7656    3.1962    0.4659 H   0  0  0  0  0  0  0  0  0  0  0  0
    0.0059    3.3109   -1.0157 H   0  0  0  0  0  0  0  0  0  0  0  0
    0.0154    1.3836   -0.0170 C   0  0  0  0  0  0  0  0  0  0  0  0
   -1.1732    0.6977    0.0157 C   0  0  0  0  0  0  0  0  0  0  0  0
   -2.0378    1.2040    0.0502 H   0  0  0  0  0  0  0  0  0  0  0  0
   -1.1921   -0.6677   -0.0000 C   0  0  0  0  0  0  0  0  0  0  0  0
   -2.0920   -1.1500   -0.0262 H   0  0  0  0  0  0  0  0  0  0  0  0
   -0.0363   -1.3749    0.0211 C   0  0  0  0  0  0  0  0  0  0  0  0
   -0.0445   -2.3773    0.0513 H   0  0  0  0  0  0  0  0  0  0  0  0
    1.1921   -0.7043    0.0000 C   0  0  0  0  0  0  0  0  0  0  0  0
    2.0522   -1.2252    0.0008 H   0  0  0  0  0  0  0  0  0  0  0  0
    1.1942    0.6656   -0.0198 C   0  0  0  0  0  0  0  0  0  0  0  0
    2.0714    1.1630   -0.0376 H   0  0  0  0  0  0  0  0  0  0  0  0
  1  5  1  0
  5  8  1  0
  1  2  1  0
  1  3  1  0
  1  4  1  0
  5  6  1  0
  5  7  1  0
  8  9  1  0
  8 10  1  0
  8 11  1  0
 12 16  1  0
 16 17  2  0
 17 19  1  0
 19 21  2  0
 21 23  1  0
 23 25  2  0
 25 16  1  0
 12 13  1  0
 12 14  1  0
 12 15  1  0
 17 18  1  0
 19 20  1  0
 21 22  1  0
 23 24  1  0
 25 26  1  0
M  CHG  1   8   1
M  END
>  <PDB_ID>  (2006) 
pdb3jxi

>  <RESIDUE_NAME>  (2006) 
LYS   PHE

>  <FRAG_NAME>  (2006) 
ETAM   MBZ

>  <FRAG_ATOM_NUM>  (2006) 
fragi: 11  fragj: 15

>  <atom.prop.CHAIN_ID>  (2006) 
A A A A A A A A A A A Z Z Z Z Z Z Z Z Z Z Z Z Z Z Z

>  <atom.prop.IS_HEAVY_ATOM>  (2006) 
1 0 0 0 1 0 0 1 0 0 0 1 0 0 0 1 1 0 1 0 1 0 1 0 1 0

>  <DIFUSE_FUNC_ATOM>  (2006) 
n/a

>  <FINAL_SINGLE_POINT_ENERGY>  (2006) 
0

>  <NONCOV_INTER_ENERGY_QM>  (2006) 
0

>  <FF_Energy>  (2006) 
-4.14

>  <QM_Energy>  (2006) 
-9.14

>  <source>  (2006) 
ETAM_MBZ

>  <Index>  (2006) 
20560

$$$$
ETAM-pdb4ger-B-LYS-406:MBZ-pdb4ger-D-PHE-123
     RDKit          3D

 26 25  0  0  0  0  0  0  0  0999 V2000
    1.1159   -2.9508    2.7785 C   0  0  0  0  0  0  0  0  0  0  0  0
    0.7436   -2.6656    1.8745 H   0  0  0  0  0  0  0  0  0  0  0  0
    1.3064   -2.0953    3.2979 H   0  0  0  0  0  0  0  0  0  0  0  0
    0.3299   -3.4923    3.3049 H   0  0  0  0  0  0  0  0  0  0  0  0
    2.4264   -3.6764    2.5515 C   0  0  0  0  0  0  0  0  0  0  0  0
    2.6543   -4.1996    3.3400 H   0  0  0  0  0  0  0  0  0  0  0  0
    2.3762   -4.1997    1.7320 H   0  0  0  0  0  0  0  0  0  0  0  0
    3.4453   -2.5813    2.3756 N   0  0  0  0  0  4  0  0  0  0  0  0
    4.2987   -2.8622    2.8065 H   0  0  0  0  0  0  0  0  0  0  0  0
    3.5880   -2.4273    1.4013 H   0  0  0  0  0  0  0  0  0  0  0  0
    3.1036   -1.7505    2.8060 H   0  0  0  0  0  0  0  0  0  0  0  0
   -0.0018    2.9039    0.0090 C   0  0  0  0  0  0  0  0  0  0  0  0
    0.8763    3.2051    0.3447 H   0  0  0  0  0  0  0  0  0  0  0  0
   -0.7383    3.2097    0.5907 H   0  0  0  0  0  0  0  0  0  0  0  0
   -0.1505    3.3524   -0.9732 H   0  0  0  0  0  0  0  0  0  0  0  0
   -0.0065    1.3924    0.0019 C   0  0  0  0  0  0  0  0  0  0  0  0
   -1.2103    0.6875    0.0014 C   0  0  0  0  0  0  0  0  0  0  0  0
   -2.0718    1.1933    0.0007 H   0  0  0  0  0  0  0  0  0  0  0  0
   -1.2229   -0.6837    0.0000 C   0  0  0  0  0  0  0  0  0  0  0  0
   -2.0868   -1.1919    0.0025 H   0  0  0  0  0  0  0  0  0  0  0  0
    0.0013   -1.3915   -0.0036 C   0  0  0  0  0  0  0  0  0  0  0  0
   -0.0132   -2.3880   -0.0090 H   0  0  0  0  0  0  0  0  0  0  0  0
    1.2229   -0.7018    0.0000 C   0  0  0  0  0  0  0  0  0  0  0  0
    2.0916   -1.2015    0.0040 H   0  0  0  0  0  0  0  0  0  0  0  0
    1.2154    0.6971    0.0004 C   0  0  0  0  0  0  0  0  0  0  0  0
    2.0690    1.1994   -0.0013 H   0  0  0  0  0  0  0  0  0  0  0  0
  1  5  1  0
  5  8  1  0
  1  2  1  0
  1  3  1  0
  1  4  1  0
  5  6  1  0
  5  7  1  0
  8  9  1  0
  8 10  1  0
  8 11  1  0
 12 16  1  0
 16 17  2  0
 17 19  1  0
 19 21  2  0
 21 23  1  0
 23 25  2  0
 25 16  1  0
 12 13  1  0
 12 14  1  0
 12 15  1  0
 17 18  1  0
 19 20  1  0
 21 22  1  0
 23 24  1  0
 25 26  1  0
M  CHG  1   8   1
M  END
>  <PDB_ID>  (2007) 
pdb4ger

>  <RESIDUE_NAME>  (2007) 
LYS   PHE

>  <FRAG_NAME>  (2007) 
ETAM   MBZ

>  <FRAG_ATOM_NUM>  (2007) 
fragi: 11  fragj: 15

>  <atom.prop.CHAIN_ID>  (2007) 
A A A A A A A A A A A Z Z Z Z Z Z Z Z Z Z Z Z Z Z Z

>  <atom.prop.IS_HEAVY_ATOM>  (2007) 
1 0 0 0 1 0 0 1 0 0 0 1 0 0 0 1 1 0 1 0 1 0 1 0 1 0

>  <DIFUSE_FUNC_ATOM>  (2007) 
n/a

>  <FINAL_SINGLE_POINT_ENERGY>  (2007) 
0

>  <NONCOV_INTER_ENERGY_QM>  (2007) 
0

>  <FF_Energy>  (2007) 
1.33

>  <QM_Energy>  (2007) 
-3.93

>  <source>  (2007) 
ETAM_MBZ

>  <Index>  (2007) 
20562

$$$$
ETAM-pdb4gj4-C-LYS-368:MBZ-pdb4gj4-C-PHE-387
     RDKit          3D

 26 25  0  0  0  0  0  0  0  0999 V2000
   -0.7001    1.2773   -3.6877 C   0  0  0  0  0  0  0  0  0  0  0  0
   -1.2685    1.2788   -2.8699 H   0  0  0  0  0  0  0  0  0  0  0  0
   -1.2524    1.0721   -4.4904 H   0  0  0  0  0  0  0  0  0  0  0  0
   -0.2768    2.2743   -3.8098 H   0  0  0  0  0  0  0  0  0  0  0  0
    0.3721    0.1998   -3.5400 C   0  0  0  0  0  0  0  0  0  0  0  0
    0.9796    0.2331   -4.3470 H   0  0  0  0  0  0  0  0  0  0  0  0
    0.9326    0.4089   -2.7251 H   0  0  0  0  0  0  0  0  0  0  0  0
   -0.1752   -1.1913   -3.4054 N   0  0  0  0  0  4  0  0  0  0  0  0
    0.4104   -1.7134   -2.7888 H   0  0  0  0  0  0  0  0  0  0  0  0
   -1.0999   -1.1420   -3.0352 H   0  0  0  0  0  0  0  0  0  0  0  0
   -0.1921   -1.6229   -4.3046 H   0  0  0  0  0  0  0  0  0  0  0  0
   -0.0099    2.8981    0.0142 C   0  0  0  0  0  0  0  0  0  0  0  0
   -0.4584    3.2146   -0.8074 H   0  0  0  0  0  0  0  0  0  0  0  0
    0.9252    3.2138    0.0605 H   0  0  0  0  0  0  0  0  0  0  0  0
   -0.5436    3.3197    0.8661 H   0  0  0  0  0  0  0  0  0  0  0  0
   -0.0009    1.4036   -0.0012 C   0  0  0  0  0  0  0  0  0  0  0  0
   -1.2029    0.6892    0.0050 C   0  0  0  0  0  0  0  0  0  0  0  0
   -2.0672    1.1804    0.0117 H   0  0  0  0  0  0  0  0  0  0  0  0
   -1.2051   -0.7021   -0.0000 C   0  0  0  0  0  0  0  0  0  0  0  0
   -2.0769   -1.1992    0.0037 H   0  0  0  0  0  0  0  0  0  0  0  0
    0.0047   -1.3943   -0.0084 C   0  0  0  0  0  0  0  0  0  0  0  0
    0.0009   -2.3943   -0.0209 H   0  0  0  0  0  0  0  0  0  0  0  0
    1.2051   -0.6986    0.0000 C   0  0  0  0  0  0  0  0  0  0  0  0
    2.0877   -1.1908    0.0041 H   0  0  0  0  0  0  0  0  0  0  0  0
    1.1990    0.7023    0.0046 C   0  0  0  0  0  0  0  0  0  0  0  0
    2.0652    1.1959    0.0118 H   0  0  0  0  0  0  0  0  0  0  0  0
  1  5  1  0
  5  8  1  0
  1  2  1  0
  1  3  1  0
  1  4  1  0
  5  6  1  0
  5  7  1  0
  8  9  1  0
  8 10  1  0
  8 11  1  0
 12 16  1  0
 16 17  2  0
 17 19  1  0
 19 21  2  0
 21 23  1  0
 23 25  2  0
 25 16  1  0
 12 13  1  0
 12 14  1  0
 12 15  1  0
 17 18  1  0
 19 20  1  0
 21 22  1  0
 23 24  1  0
 25 26  1  0
M  CHG  1   8   1
M  END
>  <PDB_ID>  (2008) 
pdb4gj4

>  <RESIDUE_NAME>  (2008) 
LYS   PHE

>  <FRAG_NAME>  (2008) 
ETAM   MBZ

>  <FRAG_ATOM_NUM>  (2008) 
fragi: 11  fragj: 15

>  <atom.prop.CHAIN_ID>  (2008) 
A A A A A A A A A A A Z Z Z Z Z Z Z Z Z Z Z Z Z Z Z

>  <atom.prop.IS_HEAVY_ATOM>  (2008) 
1 0 0 0 1 0 0 1 0 0 0 1 0 0 0 1 1 0 1 0 1 0 1 0 1 0

>  <DIFUSE_FUNC_ATOM>  (2008) 
n/a

>  <FINAL_SINGLE_POINT_ENERGY>  (2008) 
0

>  <NONCOV_INTER_ENERGY_QM>  (2008) 
0

>  <FF_Energy>  (2008) 
-7.6

>  <QM_Energy>  (2008) 
-14.56

>  <source>  (2008) 
ETAM_MBZ

>  <Index>  (2008) 
20567

$$$$
ETAM-pdb4gkl-B-LYS-78:MBZ-pdb4gkl-B-PHE-161
     RDKit          3D

 26 25  0  0  0  0  0  0  0  0999 V2000
   -0.0934   -4.8304    0.7569 C   0  0  0  0  0  0  0  0  0  0  0  0
   -0.2649   -5.4533    0.0077 H   0  0  0  0  0  0  0  0  0  0  0  0
    0.2869   -3.9765    0.4349 H   0  0  0  0  0  0  0  0  0  0  0  0
   -1.0268   -4.6351    1.2848 H   0  0  0  0  0  0  0  0  0  0  0  0
    0.9046   -5.4771    1.7034 C   0  0  0  0  0  0  0  0  0  0  0  0
    0.8177   -5.0470    2.6082 H   0  0  0  0  0  0  0  0  0  0  0  0
    0.6806   -6.4539    1.7926 H   0  0  0  0  0  0  0  0  0  0  0  0
    2.3002   -5.3365    1.2262 N   0  0  0  0  0  4  0  0  0  0  0  0
    2.8916   -5.0797    1.9923 H   0  0  0  0  0  0  0  0  0  0  0  0
    2.6120   -6.2064    0.8421 H   0  0  0  0  0  0  0  0  0  0  0  0
    2.3427   -4.6275    0.5207 H   0  0  0  0  0  0  0  0  0  0  0  0
   -0.0061    2.8992   -0.0020 C   0  0  0  0  0  0  0  0  0  0  0  0
    0.7790    3.2079    0.5139 H   0  0  0  0  0  0  0  0  0  0  0  0
   -0.8511    3.2030    0.4134 H   0  0  0  0  0  0  0  0  0  0  0  0
    0.0540    3.3416   -0.9964 H   0  0  0  0  0  0  0  0  0  0  0  0
   -0.0016    1.3954   -0.0011 C   0  0  0  0  0  0  0  0  0  0  0  0
   -1.1958    0.6874    0.0032 C   0  0  0  0  0  0  0  0  0  0  0  0
   -2.0634    1.1813    0.0077 H   0  0  0  0  0  0  0  0  0  0  0  0
   -1.2036   -0.6966   -0.0000 C   0  0  0  0  0  0  0  0  0  0  0  0
   -2.0768   -1.1936    0.0000 H   0  0  0  0  0  0  0  0  0  0  0  0
    0.0015   -1.3895   -0.0019 C   0  0  0  0  0  0  0  0  0  0  0  0
    0.0021   -2.3878   -0.0052 H   0  0  0  0  0  0  0  0  0  0  0  0
    1.2036   -0.6878    0.0000 C   0  0  0  0  0  0  0  0  0  0  0  0
    2.0844   -1.1903    0.0026 H   0  0  0  0  0  0  0  0  0  0  0  0
    1.1960    0.6911   -0.0002 C   0  0  0  0  0  0  0  0  0  0  0  0
    2.0623    1.1956   -0.0002 H   0  0  0  0  0  0  0  0  0  0  0  0
  1  5  1  0
  5  8  1  0
  1  2  1  0
  1  3  1  0
  1  4  1  0
  5  6  1  0
  5  7  1  0
  8  9  1  0
  8 10  1  0
  8 11  1  0
 12 16  1  0
 16 17  2  0
 17 19  1  0
 19 21  2  0
 21 23  1  0
 23 25  2  0
 25 16  1  0
 12 13  1  0
 12 14  1  0
 12 15  1  0
 17 18  1  0
 19 20  1  0
 21 22  1  0
 23 24  1  0
 25 26  1  0
M  CHG  1   8   1
M  END
>  <PDB_ID>  (2009) 
pdb4gkl

>  <RESIDUE_NAME>  (2009) 
LYS   PHE

>  <FRAG_NAME>  (2009) 
ETAM   MBZ

>  <FRAG_ATOM_NUM>  (2009) 
fragi: 11  fragj: 15

>  <atom.prop.CHAIN_ID>  (2009) 
A A A A A A A A A A A Z Z Z Z Z Z Z Z Z Z Z Z Z Z Z

>  <atom.prop.IS_HEAVY_ATOM>  (2009) 
1 0 0 0 1 0 0 1 0 0 0 1 0 0 0 1 1 0 1 0 1 0 1 0 1 0

>  <DIFUSE_FUNC_ATOM>  (2009) 
n/a

>  <FINAL_SINGLE_POINT_ENERGY>  (2009) 
0

>  <NONCOV_INTER_ENERGY_QM>  (2009) 
0

>  <FF_Energy>  (2009) 
8.92

>  <QM_Energy>  (2009) 
0.24

>  <source>  (2009) 
ETAM_MBZ

>  <Index>  (2009) 
20594

$$$$
ETAM-pdb4gkl-A-LYS-78:MBZ-pdb4gkl-A-PHE-161
     RDKit          3D

 26 25  0  0  0  0  0  0  0  0999 V2000
   -0.1363   -4.7544    0.8117 C   0  0  0  0  0  0  0  0  0  0  0  0
   -0.3179   -5.5832    0.3001 H   0  0  0  0  0  0  0  0  0  0  0  0
    0.2420   -4.0505    0.2271 H   0  0  0  0  0  0  0  0  0  0  0  0
   -1.0660   -4.3943    1.2524 H   0  0  0  0  0  0  0  0  0  0  0  0
    0.8624   -5.0673    1.9031 C   0  0  0  0  0  0  0  0  0  0  0  0
    1.1613   -4.2115    2.3297 H   0  0  0  0  0  0  0  0  0  0  0  0
    0.4221   -5.6428    2.5958 H   0  0  0  0  0  0  0  0  0  0  0  0
    2.0459   -5.7790    1.3578 N   0  0  0  0  0  4  0  0  0  0  0  0
    2.2440   -5.4403    0.4373 H   0  0  0  0  0  0  0  0  0  0  0  0
    2.8356   -5.6152    1.9501 H   0  0  0  0  0  0  0  0  0  0  0  0
    1.8565   -6.7602    1.3183 H   0  0  0  0  0  0  0  0  0  0  0  0
    0.0075    2.8981   -0.0157 C   0  0  0  0  0  0  0  0  0  0  0  0
    0.6982    3.2085    0.6194 H   0  0  0  0  0  0  0  0  0  0  0  0
   -0.8916    3.2140    0.2484 H   0  0  0  0  0  0  0  0  0  0  0  0
    0.2370    3.3228   -0.9931 H   0  0  0  0  0  0  0  0  0  0  0  0
   -0.0015    1.3998    0.0005 C   0  0  0  0  0  0  0  0  0  0  0  0
   -1.1912    0.7031   -0.0102 C   0  0  0  0  0  0  0  0  0  0  0  0
   -2.0593    1.1862   -0.0269 H   0  0  0  0  0  0  0  0  0  0  0  0
   -1.1939   -0.6945    0.0000 C   0  0  0  0  0  0  0  0  0  0  0  0
   -2.0725   -1.1840    0.0031 H   0  0  0  0  0  0  0  0  0  0  0  0
    0.0045   -1.3896    0.0073 C   0  0  0  0  0  0  0  0  0  0  0  0
   -0.0050   -2.3912    0.0174 H   0  0  0  0  0  0  0  0  0  0  0  0
    1.1939   -0.7007   -0.0000 C   0  0  0  0  0  0  0  0  0  0  0  0
    2.0790   -1.1974   -0.0060 H   0  0  0  0  0  0  0  0  0  0  0  0
    1.1881    0.6819    0.0024 C   0  0  0  0  0  0  0  0  0  0  0  0
    2.0610    1.1809    0.0045 H   0  0  0  0  0  0  0  0  0  0  0  0
  1  5  1  0
  5  8  1  0
  1  2  1  0
  1  3  1  0
  1  4  1  0
  5  6  1  0
  5  7  1  0
  8  9  1  0
  8 10  1  0
  8 11  1  0
 12 16  1  0
 16 17  2  0
 17 19  1  0
 19 21  2  0
 21 23  1  0
 23 25  2  0
 25 16  1  0
 12 13  1  0
 12 14  1  0
 12 15  1  0
 17 18  1  0
 19 20  1  0
 21 22  1  0
 23 24  1  0
 25 26  1  0
M  CHG  1   8   1
M  END
>  <PDB_ID>  (2010) 
pdb4gkl

>  <RESIDUE_NAME>  (2010) 
LYS   PHE

>  <FRAG_NAME>  (2010) 
ETAM   MBZ

>  <FRAG_ATOM_NUM>  (2010) 
fragi: 11  fragj: 15

>  <atom.prop.CHAIN_ID>  (2010) 
A A A A A A A A A A A Z Z Z Z Z Z Z Z Z Z Z Z Z Z Z

>  <atom.prop.IS_HEAVY_ATOM>  (2010) 
1 0 0 0 1 0 0 1 0 0 0 1 0 0 0 1 1 0 1 0 1 0 1 0 1 0

>  <DIFUSE_FUNC_ATOM>  (2010) 
n/a

>  <FINAL_SINGLE_POINT_ENERGY>  (2010) 
0

>  <NONCOV_INTER_ENERGY_QM>  (2010) 
0

>  <FF_Energy>  (2010) 
8.1

>  <QM_Energy>  (2010) 
0.24

>  <source>  (2010) 
ETAM_MBZ

>  <Index>  (2010) 
20622

$$$$
ETAM-pdb3k2i-A-LYS-313:MBZ-pdb3k2i-A-PHE-244
     RDKit          3D

 26 25  0  0  0  0  0  0  0  0999 V2000
   -1.3893   -1.5276   -5.5455 C   0  0  0  0  0  0  0  0  0  0  0  0
   -1.9573   -2.3413   -5.7121 H   0  0  0  0  0  0  0  0  0  0  0  0
   -0.4290   -1.8185   -5.4665 H   0  0  0  0  0  0  0  0  0  0  0  0
   -1.4951   -0.8300   -6.3763 H   0  0  0  0  0  0  0  0  0  0  0  0
   -1.8059   -0.9280   -4.2298 C   0  0  0  0  0  0  0  0  0  0  0  0
   -1.0504   -0.5047   -3.7879 H   0  0  0  0  0  0  0  0  0  0  0  0
   -2.5779   -0.3483   -4.3432 H   0  0  0  0  0  0  0  0  0  0  0  0
   -2.2488   -2.1342   -3.3522 N   0  0  0  0  0  4  0  0  0  0  0  0
   -1.9425   -1.9585   -2.4282 H   0  0  0  0  0  0  0  0  0  0  0  0
   -3.2345   -2.1915   -3.4007 H   0  0  0  0  0  0  0  0  0  0  0  0
   -1.8230   -2.9450   -3.7240 H   0  0  0  0  0  0  0  0  0  0  0  0
   -0.0126    2.8861   -0.0147 C   0  0  0  0  0  0  0  0  0  0  0  0
    0.8846    3.2147    0.2345 H   0  0  0  0  0  0  0  0  0  0  0  0
   -0.7049    3.2065    0.6120 H   0  0  0  0  0  0  0  0  0  0  0  0
   -0.2490    3.2860   -1.0007 H   0  0  0  0  0  0  0  0  0  0  0  0
    0.0010    1.4083    0.0108 C   0  0  0  0  0  0  0  0  0  0  0  0
   -1.2022    0.7047   -0.0073 C   0  0  0  0  0  0  0  0  0  0  0  0
   -2.0675    1.1899   -0.0270 H   0  0  0  0  0  0  0  0  0  0  0  0
   -1.2178   -0.7098   -0.0000 C   0  0  0  0  0  0  0  0  0  0  0  0
   -2.0877   -1.1935    0.0137 H   0  0  0  0  0  0  0  0  0  0  0  0
    0.0014   -1.4192   -0.0101 C   0  0  0  0  0  0  0  0  0  0  0  0
    0.0030   -2.4049   -0.0246 H   0  0  0  0  0  0  0  0  0  0  0  0
    1.2178   -0.6992    0.0000 C   0  0  0  0  0  0  0  0  0  0  0  0
    2.0959   -1.1855    0.0041 H   0  0  0  0  0  0  0  0  0  0  0  0
    1.1998    0.7153    0.0067 C   0  0  0  0  0  0  0  0  0  0  0  0
    2.0674    1.2071    0.0077 H   0  0  0  0  0  0  0  0  0  0  0  0
  1  5  1  0
  5  8  1  0
  1  2  1  0
  1  3  1  0
  1  4  1  0
  5  6  1  0
  5  7  1  0
  8  9  1  0
  8 10  1  0
  8 11  1  0
 12 16  1  0
 16 17  2  0
 17 19  1  0
 19 21  2  0
 21 23  1  0
 23 25  2  0
 25 16  1  0
 12 13  1  0
 12 14  1  0
 12 15  1  0
 17 18  1  0
 19 20  1  0
 21 22  1  0
 23 24  1  0
 25 26  1  0
M  CHG  1   8   1
M  END
>  <PDB_ID>  (2011) 
pdb3k2i

>  <RESIDUE_NAME>  (2011) 
LYS   PHE

>  <FRAG_NAME>  (2011) 
ETAM   MBZ

>  <FRAG_ATOM_NUM>  (2011) 
fragi: 11  fragj: 15

>  <atom.prop.CHAIN_ID>  (2011) 
A A A A A A A A A A A Z Z Z Z Z Z Z Z Z Z Z Z Z Z Z

>  <atom.prop.IS_HEAVY_ATOM>  (2011) 
1 0 0 0 1 0 0 1 0 0 0 1 0 0 0 1 1 0 1 0 1 0 1 0 1 0

>  <DIFUSE_FUNC_ATOM>  (2011) 
n/a

>  <FINAL_SINGLE_POINT_ENERGY>  (2011) 
0

>  <NONCOV_INTER_ENERGY_QM>  (2011) 
0

>  <FF_Energy>  (2011) 
-2.91

>  <QM_Energy>  (2011) 
-8.43

>  <source>  (2011) 
ETAM_MBZ

>  <Index>  (2011) 
20639

$$$$
ETAM-pdb4gnt-A-LYS-124:MBZ-pdb4gnt-A-PHE-128
     RDKit          3D

 26 25  0  0  0  0  0  0  0  0999 V2000
    5.4827   -0.9888   -0.5315 C   0  0  0  0  0  0  0  0  0  0  0  0
    5.7626   -1.5248   -1.3157 H   0  0  0  0  0  0  0  0  0  0  0  0
    6.2554   -0.7744    0.0487 H   0  0  0  0  0  0  0  0  0  0  0  0
    5.0400   -0.0573   -0.8842 H   0  0  0  0  0  0  0  0  0  0  0  0
    4.4717   -1.7913    0.2746 C   0  0  0  0  0  0  0  0  0  0  0  0
    4.2531   -1.2833    1.1204 H   0  0  0  0  0  0  0  0  0  0  0  0
    3.6198   -1.8750   -0.2630 H   0  0  0  0  0  0  0  0  0  0  0  0
    4.9472   -3.1583    0.6414 N   0  0  0  0  0  4  0  0  0  0  0  0
    5.4771   -3.5363   -0.1155 H   0  0  0  0  0  0  0  0  0  0  0  0
    5.5201   -3.0993    1.4570 H   0  0  0  0  0  0  0  0  0  0  0  0
    4.1580   -3.7428    0.8257 H   0  0  0  0  0  0  0  0  0  0  0  0
   -0.0040    2.8980   -0.0003 C   0  0  0  0  0  0  0  0  0  0  0  0
    0.9347    3.2060   -0.0160 H   0  0  0  0  0  0  0  0  0  0  0  0
   -0.4711    3.2014    0.8158 H   0  0  0  0  0  0  0  0  0  0  0  0
   -0.5135    3.3350   -0.8592 H   0  0  0  0  0  0  0  0  0  0  0  0
   -0.0009    1.3965   -0.0032 C   0  0  0  0  0  0  0  0  0  0  0  0
   -1.1928    0.6899    0.0006 C   0  0  0  0  0  0  0  0  0  0  0  0
   -2.0606    1.1816    0.0027 H   0  0  0  0  0  0  0  0  0  0  0  0
   -1.1966   -0.6939   -0.0000 C   0  0  0  0  0  0  0  0  0  0  0  0
   -2.0741   -1.1903    0.0002 H   0  0  0  0  0  0  0  0  0  0  0  0
    0.0005   -1.3866    0.0007 C   0  0  0  0  0  0  0  0  0  0  0  0
   -0.0039   -2.3880    0.0011 H   0  0  0  0  0  0  0  0  0  0  0  0
    1.1966   -0.6950    0.0000 C   0  0  0  0  0  0  0  0  0  0  0  0
    2.0796   -1.1947   -0.0005 H   0  0  0  0  0  0  0  0  0  0  0  0
    1.1932    0.6890    0.0019 C   0  0  0  0  0  0  0  0  0  0  0  0
    2.0616    1.1872    0.0064 H   0  0  0  0  0  0  0  0  0  0  0  0
  1  5  1  0
  5  8  1  0
  1  2  1  0
  1  3  1  0
  1  4  1  0
  5  6  1  0
  5  7  1  0
  8  9  1  0
  8 10  1  0
  8 11  1  0
 12 16  1  0
 16 17  2  0
 17 19  1  0
 19 21  2  0
 21 23  1  0
 23 25  2  0
 25 16  1  0
 12 13  1  0
 12 14  1  0
 12 15  1  0
 17 18  1  0
 19 20  1  0
 21 22  1  0
 23 24  1  0
 25 26  1  0
M  CHG  1   8   1
M  END
>  <PDB_ID>  (2012) 
pdb4gnt

>  <RESIDUE_NAME>  (2012) 
LYS   PHE

>  <FRAG_NAME>  (2012) 
ETAM   MBZ

>  <FRAG_ATOM_NUM>  (2012) 
fragi: 11  fragj: 15

>  <atom.prop.CHAIN_ID>  (2012) 
A A A A A A A A A A A Z Z Z Z Z Z Z Z Z Z Z Z Z Z Z

>  <atom.prop.IS_HEAVY_ATOM>  (2012) 
1 0 0 0 1 0 0 1 0 0 0 1 0 0 0 1 1 0 1 0 1 0 1 0 1 0

>  <DIFUSE_FUNC_ATOM>  (2012) 
n/a

>  <FINAL_SINGLE_POINT_ENERGY>  (2012) 
0

>  <NONCOV_INTER_ENERGY_QM>  (2012) 
0

>  <FF_Energy>  (2012) 
8.83

>  <QM_Energy>  (2012) 
0.16

>  <source>  (2012) 
ETAM_MBZ

>  <Index>  (2012) 
20650

$$$$
ETAM-pdb3jur-C-LYS-444:MBZ-pdb3jur-C-PHE-421
     RDKit          3D

 26 25  0  0  0  0  0  0  0  0999 V2000
   -2.3359   -1.5348   -4.2403 C   0  0  0  0  0  0  0  0  0  0  0  0
   -2.7448   -1.5930   -3.3375 H   0  0  0  0  0  0  0  0  0  0  0  0
   -2.9364   -1.9317   -4.9229 H   0  0  0  0  0  0  0  0  0  0  0  0
   -2.1748   -0.4846   -4.4837 H   0  0  0  0  0  0  0  0  0  0  0  0
   -1.0262   -2.3012   -4.2354 C   0  0  0  0  0  0  0  0  0  0  0  0
   -1.0050   -2.9201   -5.0230 H   0  0  0  0  0  0  0  0  0  0  0  0
   -0.2661   -1.6529   -4.3080 H   0  0  0  0  0  0  0  0  0  0  0  0
   -0.8639   -3.1025   -2.9831 N   0  0  0  0  0  4  0  0  0  0  0  0
   -0.4917   -2.5174   -2.2655 H   0  0  0  0  0  0  0  0  0  0  0  0
   -1.7540   -3.4562   -2.7023 H   0  0  0  0  0  0  0  0  0  0  0  0
   -0.2392   -3.8614   -3.1582 H   0  0  0  0  0  0  0  0  0  0  0  0
    0.0028    2.9149    0.0055 C   0  0  0  0  0  0  0  0  0  0  0  0
    0.9402    3.2186   -0.0617 H   0  0  0  0  0  0  0  0  0  0  0  0
   -0.4161    3.2168    0.8475 H   0  0  0  0  0  0  0  0  0  0  0  0
   -0.5517    3.3610   -0.8201 H   0  0  0  0  0  0  0  0  0  0  0  0
   -0.0003    1.4080   -0.0031 C   0  0  0  0  0  0  0  0  0  0  0  0
   -1.2018    0.6955   -0.0036 C   0  0  0  0  0  0  0  0  0  0  0  0
   -2.0672    1.1847   -0.0081 H   0  0  0  0  0  0  0  0  0  0  0  0
   -1.2061   -0.7010    0.0000 C   0  0  0  0  0  0  0  0  0  0  0  0
   -2.0810   -1.1941    0.0015 H   0  0  0  0  0  0  0  0  0  0  0  0
    0.0018   -1.4020    0.0035 C   0  0  0  0  0  0  0  0  0  0  0  0
   -0.0021   -2.3976    0.0078 H   0  0  0  0  0  0  0  0  0  0  0  0
    1.2061   -0.7006   -0.0000 C   0  0  0  0  0  0  0  0  0  0  0  0
    2.0872   -1.1937   -0.0036 H   0  0  0  0  0  0  0  0  0  0  0  0
    1.2003    0.7002    0.0031 C   0  0  0  0  0  0  0  0  0  0  0  0
    2.0670    1.1937    0.0088 H   0  0  0  0  0  0  0  0  0  0  0  0
  1  5  1  0
  5  8  1  0
  1  2  1  0
  1  3  1  0
  1  4  1  0
  5  6  1  0
  5  7  1  0
  8  9  1  0
  8 10  1  0
  8 11  1  0
 12 16  1  0
 16 17  2  0
 17 19  1  0
 19 21  2  0
 21 23  1  0
 23 25  2  0
 25 16  1  0
 12 13  1  0
 12 14  1  0
 12 15  1  0
 17 18  1  0
 19 20  1  0
 21 22  1  0
 23 24  1  0
 25 26  1  0
M  CHG  1   8   1
M  END
>  <PDB_ID>  (2013) 
pdb3jur

>  <RESIDUE_NAME>  (2013) 
LYS   PHE

>  <FRAG_NAME>  (2013) 
ETAM   MBZ

>  <FRAG_ATOM_NUM>  (2013) 
fragi: 11  fragj: 15

>  <atom.prop.CHAIN_ID>  (2013) 
A A A A A A A A A A A Z Z Z Z Z Z Z Z Z Z Z Z Z Z Z

>  <atom.prop.IS_HEAVY_ATOM>  (2013) 
1 0 0 0 1 0 0 1 0 0 0 1 0 0 0 1 1 0 1 0 1 0 1 0 1 0

>  <DIFUSE_FUNC_ATOM>  (2013) 
n/a

>  <FINAL_SINGLE_POINT_ENERGY>  (2013) 
0

>  <NONCOV_INTER_ENERGY_QM>  (2013) 
0

>  <FF_Energy>  (2013) 
-2.87

>  <QM_Energy>  (2013) 
-9.62

>  <source>  (2013) 
ETAM_MBZ

>  <Index>  (2013) 
20652

$$$$
ETAM-pdb4gpi-B-LYS-100:MBZ-pdb4gpi-B-PHE-22
     RDKit          3D

 26 25  0  0  0  0  0  0  0  0999 V2000
   -3.1489   -3.5645    3.0418 C   0  0  0  0  0  0  0  0  0  0  0  0
   -3.5267   -3.3218    2.1515 H   0  0  0  0  0  0  0  0  0  0  0  0
   -3.1288   -2.7634    3.6348 H   0  0  0  0  0  0  0  0  0  0  0  0
   -3.7895   -4.3197    3.4974 H   0  0  0  0  0  0  0  0  0  0  0  0
   -1.7331   -4.0659    2.8507 C   0  0  0  0  0  0  0  0  0  0  0  0
   -1.4032   -4.4523    3.7122 H   0  0  0  0  0  0  0  0  0  0  0  0
   -1.7283   -4.7758    2.1457 H   0  0  0  0  0  0  0  0  0  0  0  0
   -0.8308   -2.9589    2.4345 N   0  0  0  0  0  4  0  0  0  0  0  0
   -1.3068   -2.0856    2.5377 H   0  0  0  0  0  0  0  0  0  0  0  0
   -0.0125   -2.9639    3.0082 H   0  0  0  0  0  0  0  0  0  0  0  0
   -0.5690   -3.0863    1.4779 H   0  0  0  0  0  0  0  0  0  0  0  0
   -0.0021    2.9223   -0.0070 C   0  0  0  0  0  0  0  0  0  0  0  0
   -0.9185    3.2228   -0.2163 H   0  0  0  0  0  0  0  0  0  0  0  0
    0.6437    3.2238   -0.6902 H   0  0  0  0  0  0  0  0  0  0  0  0
    0.2860    3.3723    0.9431 H   0  0  0  0  0  0  0  0  0  0  0  0
    0.0002    1.4033   -0.0024 C   0  0  0  0  0  0  0  0  0  0  0  0
   -1.1937    0.6911   -0.0043 C   0  0  0  0  0  0  0  0  0  0  0  0
   -2.0629    1.1815   -0.0101 H   0  0  0  0  0  0  0  0  0  0  0  0
   -1.1990   -0.6979   -0.0000 C   0  0  0  0  0  0  0  0  0  0  0  0
   -2.0766   -1.1912    0.0025 H   0  0  0  0  0  0  0  0  0  0  0  0
   -0.0000   -1.3956    0.0017 C   0  0  0  0  0  0  0  0  0  0  0  0
   -0.0034   -2.3928    0.0031 H   0  0  0  0  0  0  0  0  0  0  0  0
    1.1990   -0.6971    0.0000 C   0  0  0  0  0  0  0  0  0  0  0  0
    2.0822   -1.1923   -0.0039 H   0  0  0  0  0  0  0  0  0  0  0  0
    1.1936    0.6962    0.0050 C   0  0  0  0  0  0  0  0  0  0  0  0
    2.0636    1.1903    0.0126 H   0  0  0  0  0  0  0  0  0  0  0  0
  1  5  1  0
  5  8  1  0
  1  2  1  0
  1  3  1  0
  1  4  1  0
  5  6  1  0
  5  7  1  0
  8  9  1  0
  8 10  1  0
  8 11  1  0
 12 16  1  0
 16 17  2  0
 17 19  1  0
 19 21  2  0
 21 23  1  0
 23 25  2  0
 25 16  1  0
 12 13  1  0
 12 14  1  0
 12 15  1  0
 17 18  1  0
 19 20  1  0
 21 22  1  0
 23 24  1  0
 25 26  1  0
M  CHG  1   8   1
M  END
>  <PDB_ID>  (2014) 
pdb4gpi

>  <RESIDUE_NAME>  (2014) 
LYS   PHE

>  <FRAG_NAME>  (2014) 
ETAM   MBZ

>  <FRAG_ATOM_NUM>  (2014) 
fragi: 11  fragj: 15

>  <atom.prop.CHAIN_ID>  (2014) 
A A A A A A A A A A A Z Z Z Z Z Z Z Z Z Z Z Z Z Z Z

>  <atom.prop.IS_HEAVY_ATOM>  (2014) 
1 0 0 0 1 0 0 1 0 0 0 1 0 0 0 1 1 0 1 0 1 0 1 0 1 0

>  <DIFUSE_FUNC_ATOM>  (2014) 
n/a

>  <FINAL_SINGLE_POINT_ENERGY>  (2014) 
0

>  <NONCOV_INTER_ENERGY_QM>  (2014) 
0

>  <FF_Energy>  (2014) 
-0.45

>  <QM_Energy>  (2014) 
-7.41

>  <source>  (2014) 
ETAM_MBZ

>  <Index>  (2014) 
20653

$$$$
ETAM-pdb4gkp-A-LYS-482:MBZ-pdb4gkp-A-PHE-406
     RDKit          3D

 26 25  0  0  0  0  0  0  0  0999 V2000
    4.1622    1.5475   -1.2652 C   0  0  0  0  0  0  0  0  0  0  0  0
    4.8125    2.2681   -1.5154 H   0  0  0  0  0  0  0  0  0  0  0  0
    3.2299    1.9118   -1.3286 H   0  0  0  0  0  0  0  0  0  0  0  0
    4.2658    0.7214   -1.9688 H   0  0  0  0  0  0  0  0  0  0  0  0
    4.4235    1.1371    0.1659 C   0  0  0  0  0  0  0  0  0  0  0  0
    4.0964    0.2021    0.3034 H   0  0  0  0  0  0  0  0  0  0  0  0
    5.4085    1.1721    0.3423 H   0  0  0  0  0  0  0  0  0  0  0  0
    3.7252    2.0434    1.1109 N   0  0  0  0  0  4  0  0  0  0  0  0
    3.8093    2.9877    0.7922 H   0  0  0  0  0  0  0  0  0  0  0  0
    2.7581    1.7932    1.1610 H   0  0  0  0  0  0  0  0  0  0  0  0
    4.1376    1.9609    2.0185 H   0  0  0  0  0  0  0  0  0  0  0  0
   -0.0086    2.9197   -0.0045 C   0  0  0  0  0  0  0  0  0  0  0  0
   -0.5867    3.2169   -0.7467 H   0  0  0  0  0  0  0  0  0  0  0  0
    0.9217    3.2283   -0.1201 H   0  0  0  0  0  0  0  0  0  0  0  0
   -0.3934    3.3631    0.9139 H   0  0  0  0  0  0  0  0  0  0  0  0
   -0.0003    1.4056    0.0023 C   0  0  0  0  0  0  0  0  0  0  0  0
   -1.1944    0.6824   -0.0050 C   0  0  0  0  0  0  0  0  0  0  0  0
   -2.0644    1.1731   -0.0154 H   0  0  0  0  0  0  0  0  0  0  0  0
   -1.1981   -0.7053    0.0000 C   0  0  0  0  0  0  0  0  0  0  0  0
   -2.0741   -1.2000    0.0070 H   0  0  0  0  0  0  0  0  0  0  0  0
    0.0015   -1.3944   -0.0023 C   0  0  0  0  0  0  0  0  0  0  0  0
    0.0040   -2.3935   -0.0065 H   0  0  0  0  0  0  0  0  0  0  0  0
    1.1981   -0.6916   -0.0000 C   0  0  0  0  0  0  0  0  0  0  0  0
    2.0828   -1.1857   -0.0005 H   0  0  0  0  0  0  0  0  0  0  0  0
    1.1932    0.7034    0.0050 C   0  0  0  0  0  0  0  0  0  0  0  0
    2.0621    1.1965    0.0094 H   0  0  0  0  0  0  0  0  0  0  0  0
  1  5  1  0
  5  8  1  0
  1  2  1  0
  1  3  1  0
  1  4  1  0
  5  6  1  0
  5  7  1  0
  8  9  1  0
  8 10  1  0
  8 11  1  0
 12 16  1  0
 16 17  2  0
 17 19  1  0
 19 21  2  0
 21 23  1  0
 23 25  2  0
 25 16  1  0
 12 13  1  0
 12 14  1  0
 12 15  1  0
 17 18  1  0
 19 20  1  0
 21 22  1  0
 23 24  1  0
 25 26  1  0
M  CHG  1   8   1
M  END
>  <PDB_ID>  (2015) 
pdb4gkp

>  <RESIDUE_NAME>  (2015) 
LYS   PHE

>  <FRAG_NAME>  (2015) 
ETAM   MBZ

>  <FRAG_ATOM_NUM>  (2015) 
fragi: 11  fragj: 15

>  <atom.prop.CHAIN_ID>  (2015) 
A A A A A A A A A A A Z Z Z Z Z Z Z Z Z Z Z Z Z Z Z

>  <atom.prop.IS_HEAVY_ATOM>  (2015) 
1 0 0 0 1 0 0 1 0 0 0 1 0 0 0 1 1 0 1 0 1 0 1 0 1 0

>  <DIFUSE_FUNC_ATOM>  (2015) 
n/a

>  <FINAL_SINGLE_POINT_ENERGY>  (2015) 
0

>  <NONCOV_INTER_ENERGY_QM>  (2015) 
0

>  <FF_Energy>  (2015) 
13.43

>  <QM_Energy>  (2015) 
-0.06

>  <source>  (2015) 
ETAM_MBZ

>  <Index>  (2015) 
20655

$$$$
ETAM-pdb3k32-A-LYS-25:MBZ-pdb3k32-A-PHE-150
     RDKit          3D

 26 25  0  0  0  0  0  0  0  0999 V2000
   -3.1428   -4.5180    2.1694 C   0  0  0  0  0  0  0  0  0  0  0  0
   -2.5530   -5.2149    1.7760 H   0  0  0  0  0  0  0  0  0  0  0  0
   -4.0973   -4.7216    1.9795 H   0  0  0  0  0  0  0  0  0  0  0  0
   -2.9948   -4.5045    3.2492 H   0  0  0  0  0  0  0  0  0  0  0  0
   -2.7970   -3.1751    1.5422 C   0  0  0  0  0  0  0  0  0  0  0  0
   -3.2470   -2.4482    2.0624 H   0  0  0  0  0  0  0  0  0  0  0  0
   -1.8056   -3.0446    1.5786 H   0  0  0  0  0  0  0  0  0  0  0  0
   -3.2472   -3.1132    0.1226 N   0  0  0  0  0  4  0  0  0  0  0  0
   -2.7768   -2.3639   -0.3409 H   0  0  0  0  0  0  0  0  0  0  0  0
   -3.0306   -3.9773   -0.3309 H   0  0  0  0  0  0  0  0  0  0  0  0
   -4.2340   -2.9578    0.0954 H   0  0  0  0  0  0  0  0  0  0  0  0
   -0.0076    2.8870   -0.0134 C   0  0  0  0  0  0  0  0  0  0  0  0
    0.8539    3.2041    0.3510 H   0  0  0  0  0  0  0  0  0  0  0  0
   -0.7686    3.1986    0.5335 H   0  0  0  0  0  0  0  0  0  0  0  0
   -0.1220    3.3095   -1.0117 H   0  0  0  0  0  0  0  0  0  0  0  0
   -0.0006    1.3911    0.0019 C   0  0  0  0  0  0  0  0  0  0  0  0
   -1.1930    0.6836   -0.0057 C   0  0  0  0  0  0  0  0  0  0  0  0
   -2.0603    1.1792   -0.0162 H   0  0  0  0  0  0  0  0  0  0  0  0
   -1.1979   -0.6931    0.0000 C   0  0  0  0  0  0  0  0  0  0  0  0
   -2.0733   -1.1926    0.0019 H   0  0  0  0  0  0  0  0  0  0  0  0
    0.0011   -1.3828    0.0051 C   0  0  0  0  0  0  0  0  0  0  0  0
   -0.0011   -2.3848    0.0120 H   0  0  0  0  0  0  0  0  0  0  0  0
    1.1979   -0.6889   -0.0000 C   0  0  0  0  0  0  0  0  0  0  0  0
    2.0801   -1.1908   -0.0016 H   0  0  0  0  0  0  0  0  0  0  0  0
    1.1925    0.6901   -0.0013 C   0  0  0  0  0  0  0  0  0  0  0  0
    2.0605    1.1912   -0.0057 H   0  0  0  0  0  0  0  0  0  0  0  0
  1  5  1  0
  5  8  1  0
  1  2  1  0
  1  3  1  0
  1  4  1  0
  5  6  1  0
  5  7  1  0
  8  9  1  0
  8 10  1  0
  8 11  1  0
 12 16  1  0
 16 17  2  0
 17 19  1  0
 19 21  2  0
 21 23  1  0
 23 25  2  0
 25 16  1  0
 12 13  1  0
 12 14  1  0
 12 15  1  0
 17 18  1  0
 19 20  1  0
 21 22  1  0
 23 24  1  0
 25 26  1  0
M  CHG  1   8   1
M  END
>  <PDB_ID>  (2016) 
pdb3k32

>  <RESIDUE_NAME>  (2016) 
LYS   PHE

>  <FRAG_NAME>  (2016) 
ETAM   MBZ

>  <FRAG_ATOM_NUM>  (2016) 
fragi: 11  fragj: 15

>  <atom.prop.CHAIN_ID>  (2016) 
A A A A A A A A A A A Z Z Z Z Z Z Z Z Z Z Z Z Z Z Z

>  <atom.prop.IS_HEAVY_ATOM>  (2016) 
1 0 0 0 1 0 0 1 0 0 0 1 0 0 0 1 1 0 1 0 1 0 1 0 1 0

>  <DIFUSE_FUNC_ATOM>  (2016) 
n/a

>  <FINAL_SINGLE_POINT_ENERGY>  (2016) 
0

>  <NONCOV_INTER_ENERGY_QM>  (2016) 
0

>  <FF_Energy>  (2016) 
7.37

>  <QM_Energy>  (2016) 
-0.67

>  <source>  (2016) 
ETAM_MBZ

>  <Index>  (2016) 
20659

$$$$
ETAM-pdb3k32-B-LYS-198:MBZ-pdb3k32-B-PHE-150
     RDKit          3D

 26 25  0  0  0  0  0  0  0  0999 V2000
   -2.1317   -0.2682   -4.5623 C   0  0  0  0  0  0  0  0  0  0  0  0
   -2.6895   -1.0105   -4.2175 H   0  0  0  0  0  0  0  0  0  0  0  0
   -1.9154   -0.3979   -5.5190 H   0  0  0  0  0  0  0  0  0  0  0  0
   -2.6757    0.6689   -4.4438 H   0  0  0  0  0  0  0  0  0  0  0  0
   -0.8291   -0.2305   -3.7710 C   0  0  0  0  0  0  0  0  0  0  0  0
   -0.1834    0.3870   -4.2399 H   0  0  0  0  0  0  0  0  0  0  0  0
   -1.0169    0.1515   -2.8562 H   0  0  0  0  0  0  0  0  0  0  0  0
   -0.1976   -1.5702   -3.6181 N   0  0  0  0  0  4  0  0  0  0  0  0
   -0.8835   -2.2255   -3.3037 H   0  0  0  0  0  0  0  0  0  0  0  0
    0.1699   -1.8661   -4.4994 H   0  0  0  0  0  0  0  0  0  0  0  0
    0.5424   -1.5125   -2.9490 H   0  0  0  0  0  0  0  0  0  0  0  0
    0.0040    2.8862    0.0029 C   0  0  0  0  0  0  0  0  0  0  0  0
    0.8026    3.1918    0.5003 H   0  0  0  0  0  0  0  0  0  0  0  0
   -0.8283    3.1966    0.4375 H   0  0  0  0  0  0  0  0  0  0  0  0
    0.0432    3.3300   -0.9919 H   0  0  0  0  0  0  0  0  0  0  0  0
   -0.0007    1.3882   -0.0000 C   0  0  0  0  0  0  0  0  0  0  0  0
   -1.1858    0.6926   -0.0037 C   0  0  0  0  0  0  0  0  0  0  0  0
   -2.0548    1.1838   -0.0102 H   0  0  0  0  0  0  0  0  0  0  0  0
   -1.1872   -0.6842   -0.0000 C   0  0  0  0  0  0  0  0  0  0  0  0
   -2.0678   -1.1829    0.0029 H   0  0  0  0  0  0  0  0  0  0  0  0
    0.0042   -1.3796    0.0016 C   0  0  0  0  0  0  0  0  0  0  0  0
   -0.0077   -2.3825    0.0035 H   0  0  0  0  0  0  0  0  0  0  0  0
    1.1872   -0.6962   -0.0000 C   0  0  0  0  0  0  0  0  0  0  0  0
    2.0746   -1.1940   -0.0014 H   0  0  0  0  0  0  0  0  0  0  0  0
    1.1823    0.6792    0.0022 C   0  0  0  0  0  0  0  0  0  0  0  0
    2.0561    1.1779    0.0045 H   0  0  0  0  0  0  0  0  0  0  0  0
  1  5  1  0
  5  8  1  0
  1  2  1  0
  1  3  1  0
  1  4  1  0
  5  6  1  0
  5  7  1  0
  8  9  1  0
  8 10  1  0
  8 11  1  0
 12 16  1  0
 16 17  2  0
 17 19  1  0
 19 21  2  0
 21 23  1  0
 23 25  2  0
 25 16  1  0
 12 13  1  0
 12 14  1  0
 12 15  1  0
 17 18  1  0
 19 20  1  0
 21 22  1  0
 23 24  1  0
 25 26  1  0
M  CHG  1   8   1
M  END
>  <PDB_ID>  (2017) 
pdb3k32

>  <RESIDUE_NAME>  (2017) 
LYS   PHE

>  <FRAG_NAME>  (2017) 
ETAM   MBZ

>  <FRAG_ATOM_NUM>  (2017) 
fragi: 11  fragj: 15

>  <atom.prop.CHAIN_ID>  (2017) 
A A A A A A A A A A A Z Z Z Z Z Z Z Z Z Z Z Z Z Z Z

>  <atom.prop.IS_HEAVY_ATOM>  (2017) 
1 0 0 0 1 0 0 1 0 0 0 1 0 0 0 1 1 0 1 0 1 0 1 0 1 0

>  <DIFUSE_FUNC_ATOM>  (2017) 
n/a

>  <FINAL_SINGLE_POINT_ENERGY>  (2017) 
0

>  <NONCOV_INTER_ENERGY_QM>  (2017) 
0

>  <FF_Energy>  (2017) 
-6.08

>  <QM_Energy>  (2017) 
-11.68

>  <source>  (2017) 
ETAM_MBZ

>  <Index>  (2017) 
20663

$$$$
ETAM-pdb3k32-C-LYS-25:MBZ-pdb3k32-C-PHE-150
     RDKit          3D

 26 25  0  0  0  0  0  0  0  0999 V2000
    0.2152   -2.8224    5.1364 C   0  0  0  0  0  0  0  0  0  0  0  0
    0.1071   -3.6550    4.6051 H   0  0  0  0  0  0  0  0  0  0  0  0
   -0.1429   -2.9451    6.0545 H   0  0  0  0  0  0  0  0  0  0  0  0
    1.2758   -2.5790    5.1993 H   0  0  0  0  0  0  0  0  0  0  0  0
   -0.5511   -1.7096    4.4591 C   0  0  0  0  0  0  0  0  0  0  0  0
   -1.3779   -2.0774    4.0519 H   0  0  0  0  0  0  0  0  0  0  0  0
   -0.7699   -1.0052    5.1236 H   0  0  0  0  0  0  0  0  0  0  0  0
    0.3009   -1.1147    3.3807 N   0  0  0  0  0  4  0  0  0  0  0  0
   -0.2857   -0.6590    2.7146 H   0  0  0  0  0  0  0  0  0  0  0  0
    0.9281   -0.4526    3.7869 H   0  0  0  0  0  0  0  0  0  0  0  0
    0.8191   -1.8418    2.9352 H   0  0  0  0  0  0  0  0  0  0  0  0
    0.0008    2.9029    0.0061 C   0  0  0  0  0  0  0  0  0  0  0  0
    0.6897    3.2110   -0.6309 H   0  0  0  0  0  0  0  0  0  0  0  0
    0.1974    3.2029    0.9260 H   0  0  0  0  0  0  0  0  0  0  0  0
   -0.9515    3.3414   -0.2920 H   0  0  0  0  0  0  0  0  0  0  0  0
    0.0016    1.3969   -0.0018 C   0  0  0  0  0  0  0  0  0  0  0  0
   -1.1883    0.6901    0.0002 C   0  0  0  0  0  0  0  0  0  0  0  0
   -2.0576    1.1824    0.0007 H   0  0  0  0  0  0  0  0  0  0  0  0
   -1.1944   -0.6929   -0.0000 C   0  0  0  0  0  0  0  0  0  0  0  0
   -2.0772   -1.1850    0.0047 H   0  0  0  0  0  0  0  0  0  0  0  0
   -0.0060   -1.3888   -0.0044 C   0  0  0  0  0  0  0  0  0  0  0  0
   -0.0086   -2.3884   -0.0108 H   0  0  0  0  0  0  0  0  0  0  0  0
    1.1944   -0.6953   -0.0000 C   0  0  0  0  0  0  0  0  0  0  0  0
    2.0754   -1.1969   -0.0000 H   0  0  0  0  0  0  0  0  0  0  0  0
    1.1927    0.6899    0.0059 C   0  0  0  0  0  0  0  0  0  0  0  0
    2.0629    1.1850    0.0151 H   0  0  0  0  0  0  0  0  0  0  0  0
  1  5  1  0
  5  8  1  0
  1  2  1  0
  1  3  1  0
  1  4  1  0
  5  6  1  0
  5  7  1  0
  8  9  1  0
  8 10  1  0
  8 11  1  0
 12 16  1  0
 16 17  2  0
 17 19  1  0
 19 21  2  0
 21 23  1  0
 23 25  2  0
 25 16  1  0
 12 13  1  0
 12 14  1  0
 12 15  1  0
 17 18  1  0
 19 20  1  0
 21 22  1  0
 23 24  1  0
 25 26  1  0
M  CHG  1   8   1
M  END
>  <PDB_ID>  (2018) 
pdb3k32

>  <RESIDUE_NAME>  (2018) 
LYS   PHE

>  <FRAG_NAME>  (2018) 
ETAM   MBZ

>  <FRAG_ATOM_NUM>  (2018) 
fragi: 11  fragj: 15

>  <atom.prop.CHAIN_ID>  (2018) 
A A A A A A A A A A A Z Z Z Z Z Z Z Z Z Z Z Z Z Z Z

>  <atom.prop.IS_HEAVY_ATOM>  (2018) 
1 0 0 0 1 0 0 1 0 0 0 1 0 0 0 1 1 0 1 0 1 0 1 0 1 0

>  <DIFUSE_FUNC_ATOM>  (2018) 
n/a

>  <FINAL_SINGLE_POINT_ENERGY>  (2018) 
0

>  <NONCOV_INTER_ENERGY_QM>  (2018) 
0

>  <FF_Energy>  (2018) 
-6.86

>  <QM_Energy>  (2018) 
-13.13

>  <source>  (2018) 
ETAM_MBZ

>  <Index>  (2018) 
20664

$$$$
ETAM-pdb4gqb-A-LYS-275:MBZ-pdb4gqb-A-PHE-243
     RDKit          3D

 26 25  0  0  0  0  0  0  0  0999 V2000
   -0.4857   -0.9711   -3.1320 C   0  0  0  0  0  0  0  0  0  0  0  0
   -0.3600   -0.4350   -2.2966 H   0  0  0  0  0  0  0  0  0  0  0  0
   -0.8080   -1.8873   -2.8940 H   0  0  0  0  0  0  0  0  0  0  0  0
   -1.2387   -0.4827   -3.7505 H   0  0  0  0  0  0  0  0  0  0  0  0
    0.8506   -1.0958   -3.8321 C   0  0  0  0  0  0  0  0  0  0  0  0
    0.7328   -1.6342   -4.6665 H   0  0  0  0  0  0  0  0  0  0  0  0
    1.1825   -0.1820   -4.0689 H   0  0  0  0  0  0  0  0  0  0  0  0
    1.8414   -1.7642   -2.9536 N   0  0  0  0  0  4  0  0  0  0  0  0
    2.4301   -1.0750   -2.5292 H   0  0  0  0  0  0  0  0  0  0  0  0
    1.3625   -2.2781   -2.2410 H   0  0  0  0  0  0  0  0  0  0  0  0
    2.4008   -2.3908   -3.4974 H   0  0  0  0  0  0  0  0  0  0  0  0
   -0.0002    2.9196   -0.0504 C   0  0  0  0  0  0  0  0  0  0  0  0
    0.8658    3.2354    0.2690 H   0  0  0  0  0  0  0  0  0  0  0  0
   -0.7537    3.2424    0.4782 H   0  0  0  0  0  0  0  0  0  0  0  0
   -0.1314    3.2727   -1.0732 H   0  0  0  0  0  0  0  0  0  0  0  0
    0.0001    1.4091    0.0039 C   0  0  0  0  0  0  0  0  0  0  0  0
   -1.1954    0.6952   -0.0073 C   0  0  0  0  0  0  0  0  0  0  0  0
   -2.0640    1.1785   -0.0217 H   0  0  0  0  0  0  0  0  0  0  0  0
   -1.1947   -0.7036    0.0000 C   0  0  0  0  0  0  0  0  0  0  0  0
   -2.0757   -1.1929    0.0057 H   0  0  0  0  0  0  0  0  0  0  0  0
   -0.0007   -1.3944    0.0013 C   0  0  0  0  0  0  0  0  0  0  0  0
   -0.0035   -2.3966    0.0029 H   0  0  0  0  0  0  0  0  0  0  0  0
    1.1947   -0.7029   -0.0000 C   0  0  0  0  0  0  0  0  0  0  0  0
    2.0790   -1.1966   -0.0014 H   0  0  0  0  0  0  0  0  0  0  0  0
    1.1960    0.6966    0.0021 C   0  0  0  0  0  0  0  0  0  0  0  0
    2.0655    1.1860    0.0011 H   0  0  0  0  0  0  0  0  0  0  0  0
  1  5  1  0
  5  8  1  0
  1  2  1  0
  1  3  1  0
  1  4  1  0
  5  6  1  0
  5  7  1  0
  8  9  1  0
  8 10  1  0
  8 11  1  0
 12 16  1  0
 16 17  2  0
 17 19  1  0
 19 21  2  0
 21 23  1  0
 23 25  2  0
 25 16  1  0
 12 13  1  0
 12 14  1  0
 12 15  1  0
 17 18  1  0
 19 20  1  0
 21 22  1  0
 23 24  1  0
 25 26  1  0
M  CHG  1   8   1
M  END
>  <PDB_ID>  (2019) 
pdb4gqb

>  <RESIDUE_NAME>  (2019) 
LYS   PHE

>  <FRAG_NAME>  (2019) 
ETAM   MBZ

>  <FRAG_ATOM_NUM>  (2019) 
fragi: 11  fragj: 15

>  <atom.prop.CHAIN_ID>  (2019) 
A A A A A A A A A A A Z Z Z Z Z Z Z Z Z Z Z Z Z Z Z

>  <atom.prop.IS_HEAVY_ATOM>  (2019) 
1 0 0 0 1 0 0 1 0 0 0 1 0 0 0 1 1 0 1 0 1 0 1 0 1 0

>  <DIFUSE_FUNC_ATOM>  (2019) 
n/a

>  <FINAL_SINGLE_POINT_ENERGY>  (2019) 
0

>  <NONCOV_INTER_ENERGY_QM>  (2019) 
0

>  <FF_Energy>  (2019) 
-1.21

>  <QM_Energy>  (2019) 
-9.78

>  <source>  (2019) 
ETAM_MBZ

>  <Index>  (2019) 
20678

$$$$
ETAM-pdb3k32-D-LYS-25:MBZ-pdb3k32-D-PHE-150
     RDKit          3D

 26 25  0  0  0  0  0  0  0  0999 V2000
    0.3028   -2.4045    4.4650 C   0  0  0  0  0  0  0  0  0  0  0  0
    0.7812   -2.9842    3.8187 H   0  0  0  0  0  0  0  0  0  0  0  0
   -0.5857   -2.7814    4.6898 H   0  0  0  0  0  0  0  0  0  0  0  0
    0.8968   -2.3150    5.3745 H   0  0  0  0  0  0  0  0  0  0  0  0
    0.0992   -1.0375    3.8279 C   0  0  0  0  0  0  0  0  0  0  0  0
    0.2963   -0.3258    4.5217 H   0  0  0  0  0  0  0  0  0  0  0  0
    0.7742   -0.9263    3.0805 H   0  0  0  0  0  0  0  0  0  0  0  0
   -1.2638   -0.8248    3.2880 N   0  0  0  0  0  4  0  0  0  0  0  0
   -1.2023   -0.4474    2.3630 H   0  0  0  0  0  0  0  0  0  0  0  0
   -1.7525   -1.6971    3.2593 H   0  0  0  0  0  0  0  0  0  0  0  0
   -1.7613   -0.1844    3.8752 H   0  0  0  0  0  0  0  0  0  0  0  0
    0.0013    2.9121   -0.0053 C   0  0  0  0  0  0  0  0  0  0  0  0
    0.7717    3.2152   -0.5433 H   0  0  0  0  0  0  0  0  0  0  0  0
    0.0697    3.2189    0.9310 H   0  0  0  0  0  0  0  0  0  0  0  0
   -0.8967    3.3571   -0.4339 H   0  0  0  0  0  0  0  0  0  0  0  0
    0.0004    1.4000   -0.0023 C   0  0  0  0  0  0  0  0  0  0  0  0
   -1.1937    0.6870    0.0017 C   0  0  0  0  0  0  0  0  0  0  0  0
   -2.0620    1.1806    0.0046 H   0  0  0  0  0  0  0  0  0  0  0  0
   -1.1984   -0.6955   -0.0000 C   0  0  0  0  0  0  0  0  0  0  0  0
   -2.0777   -1.1905    0.0022 H   0  0  0  0  0  0  0  0  0  0  0  0
   -0.0054   -1.3888   -0.0031 C   0  0  0  0  0  0  0  0  0  0  0  0
   -0.0063   -2.3890   -0.0074 H   0  0  0  0  0  0  0  0  0  0  0  0
    1.1984   -0.6942   -0.0000 C   0  0  0  0  0  0  0  0  0  0  0  0
    2.0775   -1.1978    0.0015 H   0  0  0  0  0  0  0  0  0  0  0  0
    1.1986    0.6914    0.0037 C   0  0  0  0  0  0  0  0  0  0  0  0
    2.0652    1.1889    0.0095 H   0  0  0  0  0  0  0  0  0  0  0  0
  1  5  1  0
  5  8  1  0
  1  2  1  0
  1  3  1  0
  1  4  1  0
  5  6  1  0
  5  7  1  0
  8  9  1  0
  8 10  1  0
  8 11  1  0
 12 16  1  0
 16 17  2  0
 17 19  1  0
 19 21  2  0
 21 23  1  0
 23 25  2  0
 25 16  1  0
 12 13  1  0
 12 14  1  0
 12 15  1  0
 17 18  1  0
 19 20  1  0
 21 22  1  0
 23 24  1  0
 25 26  1  0
M  CHG  1   8   1
M  END
>  <PDB_ID>  (2020) 
pdb3k32

>  <RESIDUE_NAME>  (2020) 
LYS   PHE

>  <FRAG_NAME>  (2020) 
ETAM   MBZ

>  <FRAG_ATOM_NUM>  (2020) 
fragi: 11  fragj: 15

>  <atom.prop.CHAIN_ID>  (2020) 
A A A A A A A A A A A Z Z Z Z Z Z Z Z Z Z Z Z Z Z Z

>  <atom.prop.IS_HEAVY_ATOM>  (2020) 
1 0 0 0 1 0 0 1 0 0 0 1 0 0 0 1 1 0 1 0 1 0 1 0 1 0

>  <DIFUSE_FUNC_ATOM>  (2020) 
n/a

>  <FINAL_SINGLE_POINT_ENERGY>  (2020) 
0

>  <NONCOV_INTER_ENERGY_QM>  (2020) 
0

>  <FF_Energy>  (2020) 
-7.32

>  <QM_Energy>  (2020) 
-14.83

>  <source>  (2020) 
ETAM_MBZ

>  <Index>  (2020) 
20729

$$$$
ETAM-pdb3k3k-B-LYS-59:MBZ-pdb3k3k-B-PHE-108
     RDKit          3D

 26 25  0  0  0  0  0  0  0  0999 V2000
    2.8653   -4.5607   -4.3519 C   0  0  0  0  0  0  0  0  0  0  0  0
    2.3994   -4.1165   -5.0994 H   0  0  0  0  0  0  0  0  0  0  0  0
    2.2936   -5.2344   -3.9134 H   0  0  0  0  0  0  0  0  0  0  0  0
    3.7642   -5.0469   -4.7311 H   0  0  0  0  0  0  0  0  0  0  0  0
    3.2512   -3.5049   -3.3221 C   0  0  0  0  0  0  0  0  0  0  0  0
    3.8041   -3.9298   -2.6065 H   0  0  0  0  0  0  0  0  0  0  0  0
    3.7796   -2.7848   -3.7704 H   0  0  0  0  0  0  0  0  0  0  0  0
    2.0298   -2.8829   -2.6851 N   0  0  0  0  0  4  0  0  0  0  0  0
    1.2258   -3.4038   -2.9584 H   0  0  0  0  0  0  0  0  0  0  0  0
    2.1361   -2.9092   -1.6955 H   0  0  0  0  0  0  0  0  0  0  0  0
    1.9515   -1.9403   -2.9972 H   0  0  0  0  0  0  0  0  0  0  0  0
   -0.0163    2.9150   -0.0008 C   0  0  0  0  0  0  0  0  0  0  0  0
   -0.8281    3.2140   -0.4763 H   0  0  0  0  0  0  0  0  0  0  0  0
    0.8043    3.2254   -0.4534 H   0  0  0  0  0  0  0  0  0  0  0  0
   -0.0333    3.3706    0.9892 H   0  0  0  0  0  0  0  0  0  0  0  0
   -0.0063    1.4133    0.0210 C   0  0  0  0  0  0  0  0  0  0  0  0
   -1.1927    0.6886    0.0047 C   0  0  0  0  0  0  0  0  0  0  0  0
   -2.0682    1.1599   -0.0050 H   0  0  0  0  0  0  0  0  0  0  0  0
   -1.1831   -0.7216   -0.0000 C   0  0  0  0  0  0  0  0  0  0  0  0
   -2.0554   -1.2142   -0.0053 H   0  0  0  0  0  0  0  0  0  0  0  0
    0.0251   -1.4013    0.0046 C   0  0  0  0  0  0  0  0  0  0  0  0
    0.0287   -2.3993    0.0107 H   0  0  0  0  0  0  0  0  0  0  0  0
    1.1831   -0.6874   -0.0000 C   0  0  0  0  0  0  0  0  0  0  0  0
    2.0904   -1.1643    0.0201 H   0  0  0  0  0  0  0  0  0  0  0  0
    1.1739    0.7084   -0.0303 C   0  0  0  0  0  0  0  0  0  0  0  0
    2.0482    1.1976   -0.0913 H   0  0  0  0  0  0  0  0  0  0  0  0
  1  5  1  0
  5  8  1  0
  1  2  1  0
  1  3  1  0
  1  4  1  0
  5  6  1  0
  5  7  1  0
  8  9  1  0
  8 10  1  0
  8 11  1  0
 12 16  1  0
 16 17  2  0
 17 19  1  0
 19 21  2  0
 21 23  1  0
 23 25  2  0
 25 16  1  0
 12 13  1  0
 12 14  1  0
 12 15  1  0
 17 18  1  0
 19 20  1  0
 21 22  1  0
 23 24  1  0
 25 26  1  0
M  CHG  1   8   1
M  END
>  <PDB_ID>  (2021) 
pdb3k3k

>  <RESIDUE_NAME>  (2021) 
LYS   PHE

>  <FRAG_NAME>  (2021) 
ETAM   MBZ

>  <FRAG_ATOM_NUM>  (2021) 
fragi: 11  fragj: 15

>  <atom.prop.CHAIN_ID>  (2021) 
A A A A A A A A A A A Z Z Z Z Z Z Z Z Z Z Z Z Z Z Z

>  <atom.prop.IS_HEAVY_ATOM>  (2021) 
1 0 0 0 1 0 0 1 0 0 0 1 0 0 0 1 1 0 1 0 1 0 1 0 1 0

>  <DIFUSE_FUNC_ATOM>  (2021) 
n/a

>  <FINAL_SINGLE_POINT_ENERGY>  (2021) 
0

>  <NONCOV_INTER_ENERGY_QM>  (2021) 
0

>  <FF_Energy>  (2021) 
-1.44

>  <QM_Energy>  (2021) 
-6.77

>  <source>  (2021) 
ETAM_MBZ

>  <Index>  (2021) 
20737

$$$$
ETAM-pdb3k7n-A-LYS-535:MBZ-pdb3k7n-A-PHE-527
     RDKit          3D

 26 25  0  0  0  0  0  0  0  0999 V2000
   -0.0245    0.3180   -3.7506 C   0  0  0  0  0  0  0  0  0  0  0  0
   -0.6940   -0.2245   -3.2704 H   0  0  0  0  0  0  0  0  0  0  0  0
   -0.0632    0.1709   -4.7244 H   0  0  0  0  0  0  0  0  0  0  0  0
   -0.2312    1.3699   -3.5534 H   0  0  0  0  0  0  0  0  0  0  0  0
    1.3568   -0.0309   -3.2472 C   0  0  0  0  0  0  0  0  0  0  0  0
    2.0320    0.2886   -3.8804 H   0  0  0  0  0  0  0  0  0  0  0  0
    1.4817    0.3271   -2.3444 H   0  0  0  0  0  0  0  0  0  0  0  0
    1.4109   -1.5347   -3.1899 N   0  0  0  0  0  4  0  0  0  0  0  0
    0.6911   -1.8607   -2.5821 H   0  0  0  0  0  0  0  0  0  0  0  0
    1.2735   -1.8982   -4.1083 H   0  0  0  0  0  0  0  0  0  0  0  0
    2.3030   -1.8123   -2.8424 H   0  0  0  0  0  0  0  0  0  0  0  0
   -0.0263    2.9738    0.0351 C   0  0  0  0  0  0  0  0  0  0  0  0
   -0.7491    3.2881   -0.5507 H   0  0  0  0  0  0  0  0  0  0  0  0
    0.8562    3.2951   -0.2522 H   0  0  0  0  0  0  0  0  0  0  0  0
   -0.2136    3.3725    1.0320 H   0  0  0  0  0  0  0  0  0  0  0  0
   -0.0088    1.4458   -0.0202 C   0  0  0  0  0  0  0  0  0  0  0  0
   -1.2088    0.7056   -0.0160 C   0  0  0  0  0  0  0  0  0  0  0  0
   -2.0826    1.1727   -0.0259 H   0  0  0  0  0  0  0  0  0  0  0  0
   -1.2060   -0.7295   -0.0000 C   0  0  0  0  0  0  0  0  0  0  0  0
   -2.0742   -1.2135    0.0058 H   0  0  0  0  0  0  0  0  0  0  0  0
    0.0198   -1.4293    0.0100 C   0  0  0  0  0  0  0  0  0  0  0  0
    0.0092   -2.4240    0.0242 H   0  0  0  0  0  0  0  0  0  0  0  0
    1.2060   -0.7253    0.0000 C   0  0  0  0  0  0  0  0  0  0  0  0
    2.1017   -1.1830   -0.0239 H   0  0  0  0  0  0  0  0  0  0  0  0
    1.1977    0.7327    0.0262 C   0  0  0  0  0  0  0  0  0  0  0  0
    2.0655    1.2014    0.0773 H   0  0  0  0  0  0  0  0  0  0  0  0
  1  5  1  0
  5  8  1  0
  1  2  1  0
  1  3  1  0
  1  4  1  0
  5  6  1  0
  5  7  1  0
  8  9  1  0
  8 10  1  0
  8 11  1  0
 12 16  1  0
 16 17  2  0
 17 19  1  0
 19 21  2  0
 21 23  1  0
 23 25  2  0
 25 16  1  0
 12 13  1  0
 12 14  1  0
 12 15  1  0
 17 18  1  0
 19 20  1  0
 21 22  1  0
 23 24  1  0
 25 26  1  0
M  CHG  1   8   1
M  END
>  <PDB_ID>  (2022) 
pdb3k7n

>  <RESIDUE_NAME>  (2022) 
LYS   PHE

>  <FRAG_NAME>  (2022) 
ETAM   MBZ

>  <FRAG_ATOM_NUM>  (2022) 
fragi: 11  fragj: 15

>  <atom.prop.CHAIN_ID>  (2022) 
A A A A A A A A A A A Z Z Z Z Z Z Z Z Z Z Z Z Z Z Z

>  <atom.prop.IS_HEAVY_ATOM>  (2022) 
1 0 0 0 1 0 0 1 0 0 0 1 0 0 0 1 1 0 1 0 1 0 1 0 1 0

>  <DIFUSE_FUNC_ATOM>  (2022) 
n/a

>  <FINAL_SINGLE_POINT_ENERGY>  (2022) 
0

>  <NONCOV_INTER_ENERGY_QM>  (2022) 
0

>  <FF_Energy>  (2022) 
-3.93

>  <QM_Energy>  (2022) 
-12.72

>  <source>  (2022) 
ETAM_MBZ

>  <Index>  (2022) 
20748

$$$$
ETAM-pdb4gvq-C-LYS-94:MBZ-pdb4gvq-C-PHE-190
     RDKit          3D

 26 25  0  0  0  0  0  0  0  0999 V2000
   -3.7934   -0.2075   -1.8658 C   0  0  0  0  0  0  0  0  0  0  0  0
   -3.0644   -0.8451   -1.6132 H   0  0  0  0  0  0  0  0  0  0  0  0
   -3.6587    0.6586   -1.3843 H   0  0  0  0  0  0  0  0  0  0  0  0
   -3.7416   -0.0243   -2.9390 H   0  0  0  0  0  0  0  0  0  0  0  0
   -5.1217   -0.7972   -1.4365 C   0  0  0  0  0  0  0  0  0  0  0  0
   -5.7021   -0.0728   -1.0909 H   0  0  0  0  0  0  0  0  0  0  0  0
   -5.5430   -1.2477   -2.2121 H   0  0  0  0  0  0  0  0  0  0  0  0
   -4.8674   -1.7839   -0.3661 N   0  0  0  0  0  4  0  0  0  0  0  0
   -4.1489   -2.4181   -0.6558 H   0  0  0  0  0  0  0  0  0  0  0  0
   -4.5736   -1.3101    0.4657 H   0  0  0  0  0  0  0  0  0  0  0  0
   -5.7049   -2.2979   -0.1759 H   0  0  0  0  0  0  0  0  0  0  0  0
   -0.0034    2.9020    0.0080 C   0  0  0  0  0  0  0  0  0  0  0  0
   -0.7610    3.2125   -0.5348 H   0  0  0  0  0  0  0  0  0  0  0  0
    0.8604    3.2167   -0.3385 H   0  0  0  0  0  0  0  0  0  0  0  0
   -0.1263    3.2981    1.0160 H   0  0  0  0  0  0  0  0  0  0  0  0
    0.0038    1.3962   -0.0178 C   0  0  0  0  0  0  0  0  0  0  0  0
   -1.1925    0.6942   -0.0000 C   0  0  0  0  0  0  0  0  0  0  0  0
   -2.0586    1.1890    0.0116 H   0  0  0  0  0  0  0  0  0  0  0  0
   -1.2033   -0.6923   -0.0000 C   0  0  0  0  0  0  0  0  0  0  0  0
   -2.0812   -1.1841   -0.0011 H   0  0  0  0  0  0  0  0  0  0  0  0
   -0.0049   -1.3903    0.0027 C   0  0  0  0  0  0  0  0  0  0  0  0
   -0.0120   -2.3910    0.0057 H   0  0  0  0  0  0  0  0  0  0  0  0
    1.2033   -0.7019    0.0000 C   0  0  0  0  0  0  0  0  0  0  0  0
    2.0793   -1.1966   -0.0117 H   0  0  0  0  0  0  0  0  0  0  0  0
    1.1936    0.6941    0.0152 C   0  0  0  0  0  0  0  0  0  0  0  0
    2.0639    1.1873    0.0494 H   0  0  0  0  0  0  0  0  0  0  0  0
  1  5  1  0
  5  8  1  0
  1  2  1  0
  1  3  1  0
  1  4  1  0
  5  6  1  0
  5  7  1  0
  8  9  1  0
  8 10  1  0
  8 11  1  0
 12 16  1  0
 16 17  2  0
 17 19  1  0
 19 21  2  0
 21 23  1  0
 23 25  2  0
 25 16  1  0
 12 13  1  0
 12 14  1  0
 12 15  1  0
 17 18  1  0
 19 20  1  0
 21 22  1  0
 23 24  1  0
 25 26  1  0
M  CHG  1   8   1
M  END
>  <PDB_ID>  (2023) 
pdb4gvq

>  <RESIDUE_NAME>  (2023) 
LYS   PHE

>  <FRAG_NAME>  (2023) 
ETAM   MBZ

>  <FRAG_ATOM_NUM>  (2023) 
fragi: 11  fragj: 15

>  <atom.prop.CHAIN_ID>  (2023) 
A A A A A A A A A A A Z Z Z Z Z Z Z Z Z Z Z Z Z Z Z

>  <atom.prop.IS_HEAVY_ATOM>  (2023) 
1 0 0 0 1 0 0 1 0 0 0 1 0 0 0 1 1 0 1 0 1 0 1 0 1 0

>  <DIFUSE_FUNC_ATOM>  (2023) 
n/a

>  <FINAL_SINGLE_POINT_ENERGY>  (2023) 
0

>  <NONCOV_INTER_ENERGY_QM>  (2023) 
0

>  <FF_Energy>  (2023) 
4.18

>  <QM_Energy>  (2023) 
-0.91

>  <source>  (2023) 
ETAM_MBZ

>  <Index>  (2023) 
20767

$$$$
ETAM-pdb4gvq-A-LYS-100:MBZ-pdb4gvq-A-PHE-105
     RDKit          3D

 26 25  0  0  0  0  0  0  0  0999 V2000
   -2.6863    1.7859    2.3552 C   0  0  0  0  0  0  0  0  0  0  0  0
   -2.0000    1.0915    2.5148 H   0  0  0  0  0  0  0  0  0  0  0  0
   -2.6897    2.0779    1.4101 H   0  0  0  0  0  0  0  0  0  0  0  0
   -3.6664    1.3788    2.6039 H   0  0  0  0  0  0  0  0  0  0  0  0
   -2.3622    3.0003    3.2375 C   0  0  0  0  0  0  0  0  0  0  0  0
   -3.1842    3.6380    3.2073 H   0  0  0  0  0  0  0  0  0  0  0  0
   -2.3485    2.6755    4.2265 H   0  0  0  0  0  0  0  0  0  0  0  0
   -1.1350    3.8066    2.9937 N   0  0  0  0  0  4  0  0  0  0  0  0
   -0.5051    3.6921    3.7612 H   0  0  0  0  0  0  0  0  0  0  0  0
   -0.6954    3.4950    2.1518 H   0  0  0  0  0  0  0  0  0  0  0  0
   -1.3837    4.7711    2.9051 H   0  0  0  0  0  0  0  0  0  0  0  0
    0.0217    2.9353   -0.0037 C   0  0  0  0  0  0  0  0  0  0  0  0
    0.8909    3.2226   -0.3818 H   0  0  0  0  0  0  0  0  0  0  0  0
   -0.0725    3.2334    0.9368 H   0  0  0  0  0  0  0  0  0  0  0  0
   -0.7688    3.4102   -0.5849 H   0  0  0  0  0  0  0  0  0  0  0  0
   -0.0008    1.4119   -0.0083 C   0  0  0  0  0  0  0  0  0  0  0  0
   -1.1979    0.6874    0.0046 C   0  0  0  0  0  0  0  0  0  0  0  0
   -2.0661    1.1780    0.0166 H   0  0  0  0  0  0  0  0  0  0  0  0
   -1.1999   -0.7017   -0.0000 C   0  0  0  0  0  0  0  0  0  0  0  0
   -2.0766   -1.1969   -0.0049 H   0  0  0  0  0  0  0  0  0  0  0  0
   -0.0010   -1.3932    0.0038 C   0  0  0  0  0  0  0  0  0  0  0  0
   -0.0022   -2.3944    0.0088 H   0  0  0  0  0  0  0  0  0  0  0  0
    1.1999   -0.6984    0.0000 C   0  0  0  0  0  0  0  0  0  0  0  0
    2.0811   -1.1969   -0.0006 H   0  0  0  0  0  0  0  0  0  0  0  0
    1.1997    0.6939   -0.0002 C   0  0  0  0  0  0  0  0  0  0  0  0
    2.0671    1.1891    0.0047 H   0  0  0  0  0  0  0  0  0  0  0  0
  1  5  1  0
  5  8  1  0
  1  2  1  0
  1  3  1  0
  1  4  1  0
  5  6  1  0
  5  7  1  0
  8  9  1  0
  8 10  1  0
  8 11  1  0
 12 16  1  0
 16 17  2  0
 17 19  1  0
 19 21  2  0
 21 23  1  0
 23 25  2  0
 25 16  1  0
 12 13  1  0
 12 14  1  0
 12 15  1  0
 17 18  1  0
 19 20  1  0
 21 22  1  0
 23 24  1  0
 25 26  1  0
M  CHG  1   8   1
M  END
>  <PDB_ID>  (2024) 
pdb4gvq

>  <RESIDUE_NAME>  (2024) 
LYS   PHE

>  <FRAG_NAME>  (2024) 
ETAM   MBZ

>  <FRAG_ATOM_NUM>  (2024) 
fragi: 11  fragj: 15

>  <atom.prop.CHAIN_ID>  (2024) 
A A A A A A A A A A A Z Z Z Z Z Z Z Z Z Z Z Z Z Z Z

>  <atom.prop.IS_HEAVY_ATOM>  (2024) 
1 0 0 0 1 0 0 1 0 0 0 1 0 0 0 1 1 0 1 0 1 0 1 0 1 0

>  <DIFUSE_FUNC_ATOM>  (2024) 
n/a

>  <FINAL_SINGLE_POINT_ENERGY>  (2024) 
0

>  <NONCOV_INTER_ENERGY_QM>  (2024) 
0

>  <FF_Energy>  (2024) 
7.56

>  <QM_Energy>  (2024) 
2.07

>  <source>  (2024) 
ETAM_MBZ

>  <Index>  (2024) 
20779

$$$$
ETAM-pdb3k93-A-LYS-16:MBZ-pdb3k93-A-PHE-54
     RDKit          3D

 26 25  0  0  0  0  0  0  0  0999 V2000
   -3.2634   -2.5429   -4.4346 C   0  0  0  0  0  0  0  0  0  0  0  0
   -3.6428   -1.8694   -5.0561 H   0  0  0  0  0  0  0  0  0  0  0  0
   -3.8960   -2.7355   -3.6948 H   0  0  0  0  0  0  0  0  0  0  0  0
   -3.0802   -3.4643   -4.9875 H   0  0  0  0  0  0  0  0  0  0  0  0
   -1.9691   -1.9743   -3.8329 C   0  0  0  0  0  0  0  0  0  0  0  0
   -1.6111   -2.6111   -3.1659 H   0  0  0  0  0  0  0  0  0  0  0  0
   -1.3164   -1.8104   -4.5577 H   0  0  0  0  0  0  0  0  0  0  0  0
   -2.2628   -0.6498   -3.1332 N   0  0  0  0  0  4  0  0  0  0  0  0
   -1.4055   -0.1611   -3.0172 H   0  0  0  0  0  0  0  0  0  0  0  0
   -2.8881   -0.1277   -3.7020 H   0  0  0  0  0  0  0  0  0  0  0  0
   -2.6747   -0.8469   -2.2512 H   0  0  0  0  0  0  0  0  0  0  0  0
    0.0030    2.9418    0.0037 C   0  0  0  0  0  0  0  0  0  0  0  0
   -0.7874    3.2439   -0.4993 H   0  0  0  0  0  0  0  0  0  0  0  0
    0.8436    3.2372   -0.4162 H   0  0  0  0  0  0  0  0  0  0  0  0
   -0.0464    3.3873    0.9972 H   0  0  0  0  0  0  0  0  0  0  0  0
   -0.0029    1.4079    0.0012 C   0  0  0  0  0  0  0  0  0  0  0  0
   -1.2052    0.6938   -0.0034 C   0  0  0  0  0  0  0  0  0  0  0  0
   -2.0690    1.1855   -0.0105 H   0  0  0  0  0  0  0  0  0  0  0  0
   -1.2048   -0.6933    0.0000 C   0  0  0  0  0  0  0  0  0  0  0  0
   -2.0752   -1.1958    0.0037 H   0  0  0  0  0  0  0  0  0  0  0  0
    0.0094   -1.3944    0.0009 C   0  0  0  0  0  0  0  0  0  0  0  0
   -0.0047   -2.3933    0.0019 H   0  0  0  0  0  0  0  0  0  0  0  0
    1.2048   -0.7036   -0.0000 C   0  0  0  0  0  0  0  0  0  0  0  0
    2.0881   -1.1973   -0.0006 H   0  0  0  0  0  0  0  0  0  0  0  0
    1.1987    0.6895    0.0013 C   0  0  0  0  0  0  0  0  0  0  0  0
    2.0666    1.1873    0.0014 H   0  0  0  0  0  0  0  0  0  0  0  0
  1  5  1  0
  5  8  1  0
  1  2  1  0
  1  3  1  0
  1  4  1  0
  5  6  1  0
  5  7  1  0
  8  9  1  0
  8 10  1  0
  8 11  1  0
 12 16  1  0
 16 17  2  0
 17 19  1  0
 19 21  2  0
 21 23  1  0
 23 25  2  0
 25 16  1  0
 12 13  1  0
 12 14  1  0
 12 15  1  0
 17 18  1  0
 19 20  1  0
 21 22  1  0
 23 24  1  0
 25 26  1  0
M  CHG  1   8   1
M  END
>  <PDB_ID>  (2025) 
pdb3k93

>  <RESIDUE_NAME>  (2025) 
LYS   PHE

>  <FRAG_NAME>  (2025) 
ETAM   MBZ

>  <FRAG_ATOM_NUM>  (2025) 
fragi: 11  fragj: 15

>  <atom.prop.CHAIN_ID>  (2025) 
A A A A A A A A A A A Z Z Z Z Z Z Z Z Z Z Z Z Z Z Z

>  <atom.prop.IS_HEAVY_ATOM>  (2025) 
1 0 0 0 1 0 0 1 0 0 0 1 0 0 0 1 1 0 1 0 1 0 1 0 1 0

>  <DIFUSE_FUNC_ATOM>  (2025) 
n/a

>  <FINAL_SINGLE_POINT_ENERGY>  (2025) 
0

>  <NONCOV_INTER_ENERGY_QM>  (2025) 
0

>  <FF_Energy>  (2025) 
-4.31

>  <QM_Energy>  (2025) 
-10.18

>  <source>  (2025) 
ETAM_MBZ

>  <Index>  (2025) 
20780

$$$$
ETAM-pdb3k8z-C-LYS-378:MBZ-pdb3k8z-B-PHE-368
     RDKit          3D

 26 25  0  0  0  0  0  0  0  0999 V2000
   -2.3289   -4.5766   -1.3341 C   0  0  0  0  0  0  0  0  0  0  0  0
   -2.0800   -5.1610   -2.1011 H   0  0  0  0  0  0  0  0  0  0  0  0
   -2.3318   -3.6224   -1.6150 H   0  0  0  0  0  0  0  0  0  0  0  0
   -3.3267   -4.8491   -0.9903 H   0  0  0  0  0  0  0  0  0  0  0  0
   -1.2973   -4.7537   -0.2361 C   0  0  0  0  0  0  0  0  0  0  0  0
   -1.3756   -3.9973    0.4106 H   0  0  0  0  0  0  0  0  0  0  0  0
   -1.4672   -5.6181    0.2352 H   0  0  0  0  0  0  0  0  0  0  0  0
    0.0755   -4.7689   -0.8086 N   0  0  0  0  0  4  0  0  0  0  0  0
    0.6137   -5.4839   -0.3629 H   0  0  0  0  0  0  0  0  0  0  0  0
    0.0240   -4.9515   -1.7894 H   0  0  0  0  0  0  0  0  0  0  0  0
    0.5090   -3.8809   -0.6564 H   0  0  0  0  0  0  0  0  0  0  0  0
   -0.0015    2.8921    0.0034 C   0  0  0  0  0  0  0  0  0  0  0  0
   -0.7964    3.1997   -0.4971 H   0  0  0  0  0  0  0  0  0  0  0  0
    0.8346    3.2024   -0.4239 H   0  0  0  0  0  0  0  0  0  0  0  0
   -0.0468    3.3277    1.0015 H   0  0  0  0  0  0  0  0  0  0  0  0
    0.0004    1.3935   -0.0003 C   0  0  0  0  0  0  0  0  0  0  0  0
   -1.1899    0.6900   -0.0006 C   0  0  0  0  0  0  0  0  0  0  0  0
   -2.0586    1.1815   -0.0027 H   0  0  0  0  0  0  0  0  0  0  0  0
   -1.1931   -0.6926   -0.0000 C   0  0  0  0  0  0  0  0  0  0  0  0
   -2.0731   -1.1871    0.0030 H   0  0  0  0  0  0  0  0  0  0  0  0
   -0.0008   -1.3845   -0.0011 C   0  0  0  0  0  0  0  0  0  0  0  0
   -0.0046   -2.3860   -0.0033 H   0  0  0  0  0  0  0  0  0  0  0  0
    1.1931   -0.6938    0.0000 C   0  0  0  0  0  0  0  0  0  0  0  0
    2.0763   -1.1942    0.0004 H   0  0  0  0  0  0  0  0  0  0  0  0
    1.1904    0.6875    0.0020 C   0  0  0  0  0  0  0  0  0  0  0  0
    2.0606    1.1853    0.0046 H   0  0  0  0  0  0  0  0  0  0  0  0
  1  5  1  0
  5  8  1  0
  1  2  1  0
  1  3  1  0
  1  4  1  0
  5  6  1  0
  5  7  1  0
  8  9  1  0
  8 10  1  0
  8 11  1  0
 12 16  1  0
 16 17  2  0
 17 19  1  0
 19 21  2  0
 21 23  1  0
 23 25  2  0
 25 16  1  0
 12 13  1  0
 12 14  1  0
 12 15  1  0
 17 18  1  0
 19 20  1  0
 21 22  1  0
 23 24  1  0
 25 26  1  0
M  CHG  1   8   1
M  END
>  <PDB_ID>  (2026) 
pdb3k8z

>  <RESIDUE_NAME>  (2026) 
LYS   PHE

>  <FRAG_NAME>  (2026) 
ETAM   MBZ

>  <FRAG_ATOM_NUM>  (2026) 
fragi: 11  fragj: 15

>  <atom.prop.CHAIN_ID>  (2026) 
A A A A A A A A A A A Z Z Z Z Z Z Z Z Z Z Z Z Z Z Z

>  <atom.prop.IS_HEAVY_ATOM>  (2026) 
1 0 0 0 1 0 0 1 0 0 0 1 0 0 0 1 1 0 1 0 1 0 1 0 1 0

>  <DIFUSE_FUNC_ATOM>  (2026) 
n/a

>  <FINAL_SINGLE_POINT_ENERGY>  (2026) 
0

>  <NONCOV_INTER_ENERGY_QM>  (2026) 
0

>  <FF_Energy>  (2026) 
2.52

>  <QM_Energy>  (2026) 
-3.79

>  <source>  (2026) 
ETAM_MBZ

>  <Index>  (2026) 
20786

$$$$
ETAM-pdb3k9g-A-LYS-193:MBZ-pdb3k9g-A-PHE-186
     RDKit          3D

 26 25  0  0  0  0  0  0  0  0999 V2000
   -1.3486   -4.6227    2.1940 C   0  0  0  0  0  0  0  0  0  0  0  0
   -1.3631   -5.6051    1.9918 H   0  0  0  0  0  0  0  0  0  0  0  0
   -1.2736   -4.1125    1.3350 H   0  0  0  0  0  0  0  0  0  0  0  0
   -2.2864   -4.3531    2.6798 H   0  0  0  0  0  0  0  0  0  0  0  0
   -0.1398   -4.3212    3.0432 C   0  0  0  0  0  0  0  0  0  0  0  0
   -0.2866   -3.4788    3.5475 H   0  0  0  0  0  0  0  0  0  0  0  0
    0.0292   -5.0764    3.6652 H   0  0  0  0  0  0  0  0  0  0  0  0
    1.0581   -4.1499    2.1521 N   0  0  0  0  0  4  0  0  0  0  0  0
    1.2543   -3.1770    2.0559 H   0  0  0  0  0  0  0  0  0  0  0  0
    1.8377   -4.6152    2.5644 H   0  0  0  0  0  0  0  0  0  0  0  0
    0.8572   -4.5466    1.2598 H   0  0  0  0  0  0  0  0  0  0  0  0
   -0.0029    2.8943    0.0208 C   0  0  0  0  0  0  0  0  0  0  0  0
   -0.5737    3.2103   -0.7216 H   0  0  0  0  0  0  0  0  0  0  0  0
    0.9285    3.2080   -0.0823 H   0  0  0  0  0  0  0  0  0  0  0  0
   -0.3954    3.3192    0.9446 H   0  0  0  0  0  0  0  0  0  0  0  0
    0.0021    1.3990    0.0039 C   0  0  0  0  0  0  0  0  0  0  0  0
   -1.1858    0.6945   -0.0015 C   0  0  0  0  0  0  0  0  0  0  0  0
   -2.0567    1.1888   -0.0077 H   0  0  0  0  0  0  0  0  0  0  0  0
   -1.2023   -0.6918    0.0000 C   0  0  0  0  0  0  0  0  0  0  0  0
   -2.0881   -1.1760    0.0034 H   0  0  0  0  0  0  0  0  0  0  0  0
   -0.0185   -1.3956   -0.0010 C   0  0  0  0  0  0  0  0  0  0  0  0
   -0.0170   -2.3913   -0.0031 H   0  0  0  0  0  0  0  0  0  0  0  0
    1.2023   -0.6971    0.0000 C   0  0  0  0  0  0  0  0  0  0  0  0
    2.0734   -1.2051    0.0037 H   0  0  0  0  0  0  0  0  0  0  0  0
    1.2023    0.6910   -0.0013 C   0  0  0  0  0  0  0  0  0  0  0  0
    2.0681    1.1882   -0.0066 H   0  0  0  0  0  0  0  0  0  0  0  0
  1  5  1  0
  5  8  1  0
  1  2  1  0
  1  3  1  0
  1  4  1  0
  5  6  1  0
  5  7  1  0
  8  9  1  0
  8 10  1  0
  8 11  1  0
 12 16  1  0
 16 17  2  0
 17 19  1  0
 19 21  2  0
 21 23  1  0
 23 25  2  0
 25 16  1  0
 12 13  1  0
 12 14  1  0
 12 15  1  0
 17 18  1  0
 19 20  1  0
 21 22  1  0
 23 24  1  0
 25 26  1  0
M  CHG  1   8   1
M  END
>  <PDB_ID>  (2027) 
pdb3k9g

>  <RESIDUE_NAME>  (2027) 
LYS   PHE

>  <FRAG_NAME>  (2027) 
ETAM   MBZ

>  <FRAG_ATOM_NUM>  (2027) 
fragi: 11  fragj: 15

>  <atom.prop.CHAIN_ID>  (2027) 
A A A A A A A A A A A Z Z Z Z Z Z Z Z Z Z Z Z Z Z Z

>  <atom.prop.IS_HEAVY_ATOM>  (2027) 
1 0 0 0 1 0 0 1 0 0 0 1 0 0 0 1 1 0 1 0 1 0 1 0 1 0

>  <DIFUSE_FUNC_ATOM>  (2027) 
n/a

>  <FINAL_SINGLE_POINT_ENERGY>  (2027) 
0

>  <NONCOV_INTER_ENERGY_QM>  (2027) 
0

>  <FF_Energy>  (2027) 
-0.76

>  <QM_Energy>  (2027) 
-6.1

>  <source>  (2027) 
ETAM_MBZ

>  <Index>  (2027) 
20791

$$$$
ETAM-pdb3k8z-F-LYS-378:MBZ-pdb3k8z-E-PHE-368
     RDKit          3D

 26 25  0  0  0  0  0  0  0  0999 V2000
   -2.2604   -4.6319   -1.3883 C   0  0  0  0  0  0  0  0  0  0  0  0
   -2.0145   -5.2155   -2.1554 H   0  0  0  0  0  0  0  0  0  0  0  0
   -2.2693   -3.6776   -1.6677 H   0  0  0  0  0  0  0  0  0  0  0  0
   -3.2539   -4.9090   -1.0356 H   0  0  0  0  0  0  0  0  0  0  0  0
   -1.2254   -4.8067   -0.2955 C   0  0  0  0  0  0  0  0  0  0  0  0
   -1.3056   -4.0535    0.3538 H   0  0  0  0  0  0  0  0  0  0  0  0
   -1.3872   -5.6737    0.1723 H   0  0  0  0  0  0  0  0  0  0  0  0
    0.1435   -4.8110   -0.8750 N   0  0  0  0  0  4  0  0  0  0  0  0
    0.0990   -5.0977   -1.8314 H   0  0  0  0  0  0  0  0  0  0  0  0
    0.5308   -3.8906   -0.8207 H   0  0  0  0  0  0  0  0  0  0  0  0
    0.7199   -5.4470   -0.3620 H   0  0  0  0  0  0  0  0  0  0  0  0
   -0.0033    2.8915    0.0038 C   0  0  0  0  0  0  0  0  0  0  0  0
   -0.8000    3.1975   -0.4958 H   0  0  0  0  0  0  0  0  0  0  0  0
    0.8316    3.2004   -0.4269 H   0  0  0  0  0  0  0  0  0  0  0  0
   -0.0461    3.3286    1.0013 H   0  0  0  0  0  0  0  0  0  0  0  0
   -0.0004    1.3915    0.0004 C   0  0  0  0  0  0  0  0  0  0  0  0
   -1.1917    0.6868   -0.0007 C   0  0  0  0  0  0  0  0  0  0  0  0
   -2.0596    1.1803   -0.0035 H   0  0  0  0  0  0  0  0  0  0  0  0
   -1.1944   -0.6917    0.0000 C   0  0  0  0  0  0  0  0  0  0  0  0
   -2.0719   -1.1905    0.0028 H   0  0  0  0  0  0  0  0  0  0  0  0
    0.0020   -1.3816   -0.0012 C   0  0  0  0  0  0  0  0  0  0  0  0
   -0.0028   -2.3847   -0.0039 H   0  0  0  0  0  0  0  0  0  0  0  0
    1.1944   -0.6915   -0.0000 C   0  0  0  0  0  0  0  0  0  0  0  0
    2.0779   -1.1923    0.0008 H   0  0  0  0  0  0  0  0  0  0  0  0
    1.1900    0.6864    0.0015 C   0  0  0  0  0  0  0  0  0  0  0  0
    2.0604    1.1864    0.0027 H   0  0  0  0  0  0  0  0  0  0  0  0
  1  5  1  0
  5  8  1  0
  1  2  1  0
  1  3  1  0
  1  4  1  0
  5  6  1  0
  5  7  1  0
  8  9  1  0
  8 10  1  0
  8 11  1  0
 12 16  1  0
 16 17  2  0
 17 19  1  0
 19 21  2  0
 21 23  1  0
 23 25  2  0
 25 16  1  0
 12 13  1  0
 12 14  1  0
 12 15  1  0
 17 18  1  0
 19 20  1  0
 21 22  1  0
 23 24  1  0
 25 26  1  0
M  CHG  1   8   1
M  END
>  <PDB_ID>  (2028) 
pdb3k8z

>  <RESIDUE_NAME>  (2028) 
LYS   PHE

>  <FRAG_NAME>  (2028) 
ETAM   MBZ

>  <FRAG_ATOM_NUM>  (2028) 
fragi: 11  fragj: 15

>  <atom.prop.CHAIN_ID>  (2028) 
A A A A A A A A A A A Z Z Z Z Z Z Z Z Z Z Z Z Z Z Z

>  <atom.prop.IS_HEAVY_ATOM>  (2028) 
1 0 0 0 1 0 0 1 0 0 0 1 0 0 0 1 1 0 1 0 1 0 1 0 1 0

>  <DIFUSE_FUNC_ATOM>  (2028) 
n/a

>  <FINAL_SINGLE_POINT_ENERGY>  (2028) 
0

>  <NONCOV_INTER_ENERGY_QM>  (2028) 
0

>  <FF_Energy>  (2028) 
2.03

>  <QM_Energy>  (2028) 
-4.13

>  <source>  (2028) 
ETAM_MBZ

>  <Index>  (2028) 
20793

$$$$
ETAM-pdb3k9t-A-LYS-208:MBZ-pdb3k9t-A-PHE-205
     RDKit          3D

 26 25  0  0  0  0  0  0  0  0999 V2000
    2.5248   -0.0562    3.8851 C   0  0  0  0  0  0  0  0  0  0  0  0
    2.7908    0.3911    3.0224 H   0  0  0  0  0  0  0  0  0  0  0  0
    3.2261   -0.7416    4.1154 H   0  0  0  0  0  0  0  0  0  0  0  0
    2.5213    0.7005    4.6695 H   0  0  0  0  0  0  0  0  0  0  0  0
    1.2112   -0.7416    3.6976 C   0  0  0  0  0  0  0  0  0  0  0  0
    0.7163   -0.7814    4.5555 H   0  0  0  0  0  0  0  0  0  0  0  0
    0.6758   -0.2792    3.0026 H   0  0  0  0  0  0  0  0  0  0  0  0
    1.4584   -2.1698    3.2293 N   0  0  0  0  0  4  0  0  0  0  0  0
    1.4470   -2.7672    4.0235 H   0  0  0  0  0  0  0  0  0  0  0  0
    0.7373   -2.4216    2.5933 H   0  0  0  0  0  0  0  0  0  0  0  0
    2.3446   -2.2042    2.7813 H   0  0  0  0  0  0  0  0  0  0  0  0
   -0.0039    2.9019    0.0502 C   0  0  0  0  0  0  0  0  0  0  0  0
   -0.7283    3.2263   -0.5282 H   0  0  0  0  0  0  0  0  0  0  0  0
    0.8798    3.2182   -0.2402 H   0  0  0  0  0  0  0  0  0  0  0  0
   -0.1822    3.2809    1.0565 H   0  0  0  0  0  0  0  0  0  0  0  0
   -0.0023    1.3960   -0.0031 C   0  0  0  0  0  0  0  0  0  0  0  0
   -1.1915    0.6866    0.0077 C   0  0  0  0  0  0  0  0  0  0  0  0
   -2.0614    1.1770    0.0201 H   0  0  0  0  0  0  0  0  0  0  0  0
   -1.1948   -0.6962   -0.0000 C   0  0  0  0  0  0  0  0  0  0  0  0
   -2.0697   -1.1951    0.0107 H   0  0  0  0  0  0  0  0  0  0  0  0
    0.0070   -1.3889   -0.0203 C   0  0  0  0  0  0  0  0  0  0  0  0
    0.0033   -2.3874   -0.0495 H   0  0  0  0  0  0  0  0  0  0  0  0
    1.1948   -0.6895   -0.0000 C   0  0  0  0  0  0  0  0  0  0  0  0
    2.0830   -1.1849    0.0049 H   0  0  0  0  0  0  0  0  0  0  0  0
    1.1867    0.6921    0.0157 C   0  0  0  0  0  0  0  0  0  0  0  0
    2.0568    1.1916    0.0403 H   0  0  0  0  0  0  0  0  0  0  0  0
  1  5  1  0
  5  8  1  0
  1  2  1  0
  1  3  1  0
  1  4  1  0
  5  6  1  0
  5  7  1  0
  8  9  1  0
  8 10  1  0
  8 11  1  0
 12 16  1  0
 16 17  2  0
 17 19  1  0
 19 21  2  0
 21 23  1  0
 23 25  2  0
 25 16  1  0
 12 13  1  0
 12 14  1  0
 12 15  1  0
 17 18  1  0
 19 20  1  0
 21 22  1  0
 23 24  1  0
 25 26  1  0
M  CHG  1   8   1
M  END
>  <PDB_ID>  (2029) 
pdb3k9t

>  <RESIDUE_NAME>  (2029) 
LYS   PHE

>  <FRAG_NAME>  (2029) 
ETAM   MBZ

>  <FRAG_ATOM_NUM>  (2029) 
fragi: 11  fragj: 15

>  <atom.prop.CHAIN_ID>  (2029) 
A A A A A A A A A A A Z Z Z Z Z Z Z Z Z Z Z Z Z Z Z

>  <atom.prop.IS_HEAVY_ATOM>  (2029) 
1 0 0 0 1 0 0 1 0 0 0 1 0 0 0 1 1 0 1 0 1 0 1 0 1 0

>  <DIFUSE_FUNC_ATOM>  (2029) 
n/a

>  <FINAL_SINGLE_POINT_ENERGY>  (2029) 
0

>  <NONCOV_INTER_ENERGY_QM>  (2029) 
0

>  <FF_Energy>  (2029) 
-4.65

>  <QM_Energy>  (2029) 
-11.04

>  <source>  (2029) 
ETAM_MBZ

>  <Index>  (2029) 
20800

$$$$
ETAM-pdb4gvq-B-LYS-100:MBZ-pdb4gvq-B-PHE-105
     RDKit          3D

 26 25  0  0  0  0  0  0  0  0999 V2000
   -3.5023    2.2172    1.5310 C   0  0  0  0  0  0  0  0  0  0  0  0
   -2.9357    1.4100    1.6587 H   0  0  0  0  0  0  0  0  0  0  0  0
   -3.3437    2.6140    0.6339 H   0  0  0  0  0  0  0  0  0  0  0  0
   -4.5503    1.9277    1.6092 H   0  0  0  0  0  0  0  0  0  0  0  0
   -3.1237    3.2481    2.5908 C   0  0  0  0  0  0  0  0  0  0  0  0
   -3.9821    3.6408    2.9811 H   0  0  0  0  0  0  0  0  0  0  0  0
   -2.6589    2.7637    3.3614 H   0  0  0  0  0  0  0  0  0  0  0  0
   -2.2479    4.3739    2.1385 N   0  0  0  0  0  4  0  0  0  0  0  0
   -1.8411    4.1394    1.2576 H   0  0  0  0  0  0  0  0  0  0  0  0
   -2.7990    5.2007    2.0472 H   0  0  0  0  0  0  0  0  0  0  0  0
   -1.5280    4.5209    2.8139 H   0  0  0  0  0  0  0  0  0  0  0  0
    0.0132    2.9323    0.0121 C   0  0  0  0  0  0  0  0  0  0  0  0
    0.9563    3.2261   -0.0504 H   0  0  0  0  0  0  0  0  0  0  0  0
   -0.3966    3.2274    0.8632 H   0  0  0  0  0  0  0  0  0  0  0  0
   -0.5350    3.4087   -0.8007 H   0  0  0  0  0  0  0  0  0  0  0  0
   -0.0013    1.4103   -0.0067 C   0  0  0  0  0  0  0  0  0  0  0  0
   -1.1987    0.6923    0.0053 C   0  0  0  0  0  0  0  0  0  0  0  0
   -2.0670    1.1821    0.0167 H   0  0  0  0  0  0  0  0  0  0  0  0
   -1.2016   -0.6984    0.0000 C   0  0  0  0  0  0  0  0  0  0  0  0
   -2.0776   -1.1935   -0.0019 H   0  0  0  0  0  0  0  0  0  0  0  0
    0.0011   -1.3964   -0.0008 C   0  0  0  0  0  0  0  0  0  0  0  0
   -0.0040   -2.3945   -0.0024 H   0  0  0  0  0  0  0  0  0  0  0  0
    1.2016   -0.7005    0.0000 C   0  0  0  0  0  0  0  0  0  0  0  0
    2.0833   -1.1975    0.0008 H   0  0  0  0  0  0  0  0  0  0  0  0
    1.1988    0.6927    0.0022 C   0  0  0  0  0  0  0  0  0  0  0  0
    2.0661    1.1884    0.0095 H   0  0  0  0  0  0  0  0  0  0  0  0
  1  5  1  0
  5  8  1  0
  1  2  1  0
  1  3  1  0
  1  4  1  0
  5  6  1  0
  5  7  1  0
  8  9  1  0
  8 10  1  0
  8 11  1  0
 12 16  1  0
 16 17  2  0
 17 19  1  0
 19 21  2  0
 21 23  1  0
 23 25  2  0
 25 16  1  0
 12 13  1  0
 12 14  1  0
 12 15  1  0
 17 18  1  0
 19 20  1  0
 21 22  1  0
 23 24  1  0
 25 26  1  0
M  CHG  1   8   1
M  END
>  <PDB_ID>  (2030) 
pdb4gvq

>  <RESIDUE_NAME>  (2030) 
LYS   PHE

>  <FRAG_NAME>  (2030) 
ETAM   MBZ

>  <FRAG_ATOM_NUM>  (2030) 
fragi: 11  fragj: 15

>  <atom.prop.CHAIN_ID>  (2030) 
A A A A A A A A A A A Z Z Z Z Z Z Z Z Z Z Z Z Z Z Z

>  <atom.prop.IS_HEAVY_ATOM>  (2030) 
1 0 0 0 1 0 0 1 0 0 0 1 0 0 0 1 1 0 1 0 1 0 1 0 1 0

>  <DIFUSE_FUNC_ATOM>  (2030) 
n/a

>  <FINAL_SINGLE_POINT_ENERGY>  (2030) 
0

>  <NONCOV_INTER_ENERGY_QM>  (2030) 
0

>  <FF_Energy>  (2030) 
6.78

>  <QM_Energy>  (2030) 
0.33

>  <source>  (2030) 
ETAM_MBZ

>  <Index>  (2030) 
20833

$$$$
ETAM-pdb3k9t-A-LYS-262:MBZ-pdb3k9t-A-PHE-292
     RDKit          3D

 26 25  0  0  0  0  0  0  0  0999 V2000
   -0.9574   -1.7229   -3.6943 C   0  0  0  0  0  0  0  0  0  0  0  0
   -0.8794   -2.1652   -2.8009 H   0  0  0  0  0  0  0  0  0  0  0  0
   -0.5341   -2.2992   -4.3925 H   0  0  0  0  0  0  0  0  0  0  0  0
   -2.0147   -1.6085   -3.9328 H   0  0  0  0  0  0  0  0  0  0  0  0
   -0.2031   -0.3921   -3.6431 C   0  0  0  0  0  0  0  0  0  0  0  0
   -0.1746   -0.0015   -4.5633 H   0  0  0  0  0  0  0  0  0  0  0  0
   -0.6904    0.2316   -3.0320 H   0  0  0  0  0  0  0  0  0  0  0  0
    1.1949   -0.5758   -3.1439 N   0  0  0  0  0  4  0  0  0  0  0  0
    1.7261   -1.0675   -3.8312 H   0  0  0  0  0  0  0  0  0  0  0  0
    1.6041    0.3194   -2.9776 H   0  0  0  0  0  0  0  0  0  0  0  0
    1.1735   -1.1002   -2.2943 H   0  0  0  0  0  0  0  0  0  0  0  0
    0.0053    2.9057    0.0131 C   0  0  0  0  0  0  0  0  0  0  0  0
    0.8541    3.2031    0.4244 H   0  0  0  0  0  0  0  0  0  0  0  0
   -0.7752    3.2085    0.5398 H   0  0  0  0  0  0  0  0  0  0  0  0
   -0.0635    3.3615   -0.9746 H   0  0  0  0  0  0  0  0  0  0  0  0
   -0.0006    1.3980   -0.0021 C   0  0  0  0  0  0  0  0  0  0  0  0
   -1.1936    0.6971    0.0049 C   0  0  0  0  0  0  0  0  0  0  0  0
   -2.0607    1.1814    0.0124 H   0  0  0  0  0  0  0  0  0  0  0  0
   -1.1935   -0.6971    0.0000 C   0  0  0  0  0  0  0  0  0  0  0  0
   -2.0719   -1.1897   -0.0045 H   0  0  0  0  0  0  0  0  0  0  0  0
    0.0027   -1.3843    0.0035 C   0  0  0  0  0  0  0  0  0  0  0  0
   -0.0025   -2.3889    0.0079 H   0  0  0  0  0  0  0  0  0  0  0  0
    1.1935   -0.6967   -0.0000 C   0  0  0  0  0  0  0  0  0  0  0  0
    2.0784   -1.1972    0.0038 H   0  0  0  0  0  0  0  0  0  0  0  0
    1.1915    0.6830   -0.0064 C   0  0  0  0  0  0  0  0  0  0  0  0
    2.0627    1.1824   -0.0152 H   0  0  0  0  0  0  0  0  0  0  0  0
  1  5  1  0
  5  8  1  0
  1  2  1  0
  1  3  1  0
  1  4  1  0
  5  6  1  0
  5  7  1  0
  8  9  1  0
  8 10  1  0
  8 11  1  0
 12 16  1  0
 16 17  2  0
 17 19  1  0
 19 21  2  0
 21 23  1  0
 23 25  2  0
 25 16  1  0
 12 13  1  0
 12 14  1  0
 12 15  1  0
 17 18  1  0
 19 20  1  0
 21 22  1  0
 23 24  1  0
 25 26  1  0
M  CHG  1   8   1
M  END
>  <PDB_ID>  (2031) 
pdb3k9t

>  <RESIDUE_NAME>  (2031) 
LYS   PHE

>  <FRAG_NAME>  (2031) 
ETAM   MBZ

>  <FRAG_ATOM_NUM>  (2031) 
fragi: 11  fragj: 15

>  <atom.prop.CHAIN_ID>  (2031) 
A A A A A A A A A A A Z Z Z Z Z Z Z Z Z Z Z Z Z Z Z

>  <atom.prop.IS_HEAVY_ATOM>  (2031) 
1 0 0 0 1 0 0 1 0 0 0 1 0 0 0 1 1 0 1 0 1 0 1 0 1 0

>  <DIFUSE_FUNC_ATOM>  (2031) 
n/a

>  <FINAL_SINGLE_POINT_ENERGY>  (2031) 
0

>  <NONCOV_INTER_ENERGY_QM>  (2031) 
0

>  <FF_Energy>  (2031) 
-7.81

>  <QM_Energy>  (2031) 
-15.35

>  <source>  (2031) 
ETAM_MBZ

>  <Index>  (2031) 
20835

$$$$
ETAM-pdb3k5h-B-LYS-148:MBZ-pdb3k5h-B-PHE-105
     RDKit          3D

 26 25  0  0  0  0  0  0  0  0999 V2000
    0.9371    4.1838   -3.7481 C   0  0  0  0  0  0  0  0  0  0  0  0
    0.7718    4.0563   -4.7160 H   0  0  0  0  0  0  0  0  0  0  0  0
    1.8515    4.5270   -3.5838 H   0  0  0  0  0  0  0  0  0  0  0  0
    0.2178    4.9074   -3.3643 H   0  0  0  0  0  0  0  0  0  0  0  0
    0.7816    2.8439   -3.0429 C   0  0  0  0  0  0  0  0  0  0  0  0
    0.9223    2.9971   -2.0262 H   0  0  0  0  0  0  0  0  0  0  0  0
   -0.2140    2.5572   -3.1121 H   0  0  0  0  0  0  0  0  0  0  0  0
    1.6270    1.6854   -3.4582 N   0  0  0  0  0  4  0  0  0  0  0  0
    2.5758    1.8600   -3.1983 H   0  0  0  0  0  0  0  0  0  0  0  0
    1.2997    0.8583   -3.0026 H   0  0  0  0  0  0  0  0  0  0  0  0
    1.5647    1.5714   -4.4487 H   0  0  0  0  0  0  0  0  0  0  0  0
    0.0588    2.9174    0.0391 C   0  0  0  0  0  0  0  0  0  0  0  0
   -0.5674    3.2340   -0.6665 H   0  0  0  0  0  0  0  0  0  0  0  0
    0.9921    3.1827   -0.1839 H   0  0  0  0  0  0  0  0  0  0  0  0
   -0.2144    3.4064    0.9742 H   0  0  0  0  0  0  0  0  0  0  0  0
    0.0064    1.3982    0.0464 C   0  0  0  0  0  0  0  0  0  0  0  0
   -1.1968    0.6997    0.0293 C   0  0  0  0  0  0  0  0  0  0  0  0
   -2.0583    1.1966    0.0369 H   0  0  0  0  0  0  0  0  0  0  0  0
   -1.2080   -0.6875    0.0000 C   0  0  0  0  0  0  0  0  0  0  0  0
   -2.0788   -1.1827    0.0106 H   0  0  0  0  0  0  0  0  0  0  0  0
    0.0005   -1.3791   -0.0422 C   0  0  0  0  0  0  0  0  0  0  0  0
   -0.0123   -2.3836   -0.1052 H   0  0  0  0  0  0  0  0  0  0  0  0
    1.2080   -0.7039   -0.0000 C   0  0  0  0  0  0  0  0  0  0  0  0
    2.0773   -1.2033    0.0554 H   0  0  0  0  0  0  0  0  0  0  0  0
    1.1898    0.6727   -0.0334 C   0  0  0  0  0  0  0  0  0  0  0  0
    2.0624    1.1776   -0.1195 H   0  0  0  0  0  0  0  0  0  0  0  0
  1  5  1  0
  5  8  1  0
  1  2  1  0
  1  3  1  0
  1  4  1  0
  5  6  1  0
  5  7  1  0
  8  9  1  0
  8 10  1  0
  8 11  1  0
 12 16  1  0
 16 17  2  0
 17 19  1  0
 19 21  2  0
 21 23  1  0
 23 25  2  0
 25 16  1  0
 12 13  1  0
 12 14  1  0
 12 15  1  0
 17 18  1  0
 19 20  1  0
 21 22  1  0
 23 24  1  0
 25 26  1  0
M  CHG  1   8   1
M  END
>  <PDB_ID>  (2032) 
pdb3k5h

>  <RESIDUE_NAME>  (2032) 
LYS   PHE

>  <FRAG_NAME>  (2032) 
ETAM   MBZ

>  <FRAG_ATOM_NUM>  (2032) 
fragi: 11  fragj: 15

>  <atom.prop.CHAIN_ID>  (2032) 
A A A A A A A A A A A Z Z Z Z Z Z Z Z Z Z Z Z Z Z Z

>  <atom.prop.IS_HEAVY_ATOM>  (2032) 
1 0 0 0 1 0 0 1 0 0 0 1 0 0 0 1 1 0 1 0 1 0 1 0 1 0

>  <DIFUSE_FUNC_ATOM>  (2032) 
n/a

>  <FINAL_SINGLE_POINT_ENERGY>  (2032) 
0

>  <NONCOV_INTER_ENERGY_QM>  (2032) 
0

>  <FF_Energy>  (2032) 
4.11

>  <QM_Energy>  (2032) 
-6.74

>  <source>  (2032) 
ETAM_MBZ

>  <Index>  (2032) 
20847

$$$$
ETAM-pdb3kcm-B-LYS-145:MBZ-pdb3kcm-B-PHE-161
     RDKit          3D

 26 25  0  0  0  0  0  0  0  0999 V2000
    0.6982   -2.6379   -3.3879 C   0  0  0  0  0  0  0  0  0  0  0  0
    1.2580   -2.2589   -2.6419 H   0  0  0  0  0  0  0  0  0  0  0  0
    1.0236   -2.2520   -4.2589 H   0  0  0  0  0  0  0  0  0  0  0  0
    0.8198   -3.7208   -3.4095 H   0  0  0  0  0  0  0  0  0  0  0  0
   -0.7312   -2.1993   -3.1791 C   0  0  0  0  0  0  0  0  0  0  0  0
   -1.2980   -2.5615   -3.9222 H   0  0  0  0  0  0  0  0  0  0  0  0
   -1.0647   -2.5681   -2.3071 H   0  0  0  0  0  0  0  0  0  0  0  0
   -0.8431   -0.7211   -3.1564 N   0  0  0  0  0  4  0  0  0  0  0  0
   -0.0491   -0.3191   -3.6150 H   0  0  0  0  0  0  0  0  0  0  0  0
   -1.6783   -0.4412   -3.6312 H   0  0  0  0  0  0  0  0  0  0  0  0
   -0.8763   -0.4019   -2.2081 H   0  0  0  0  0  0  0  0  0  0  0  0
   -0.0046    2.9029   -0.0037 C   0  0  0  0  0  0  0  0  0  0  0  0
   -0.7336    3.2082   -0.5977 H   0  0  0  0  0  0  0  0  0  0  0  0
    0.8773    3.2118   -0.3284 H   0  0  0  0  0  0  0  0  0  0  0  0
   -0.1696    3.3486    0.9772 H   0  0  0  0  0  0  0  0  0  0  0  0
   -0.0022    1.4031    0.0022 C   0  0  0  0  0  0  0  0  0  0  0  0
   -1.1896    0.6922   -0.0016 C   0  0  0  0  0  0  0  0  0  0  0  0
   -2.0618    1.1774   -0.0073 H   0  0  0  0  0  0  0  0  0  0  0  0
   -1.1923   -0.7007   -0.0000 C   0  0  0  0  0  0  0  0  0  0  0  0
   -2.0726   -1.1919    0.0007 H   0  0  0  0  0  0  0  0  0  0  0  0
    0.0018   -1.3919    0.0021 C   0  0  0  0  0  0  0  0  0  0  0  0
   -0.0024   -2.3939    0.0045 H   0  0  0  0  0  0  0  0  0  0  0  0
    1.1923   -0.7000   -0.0000 C   0  0  0  0  0  0  0  0  0  0  0  0
    2.0794   -1.1916    0.0019 H   0  0  0  0  0  0  0  0  0  0  0  0
    1.1900    0.6972   -0.0027 C   0  0  0  0  0  0  0  0  0  0  0  0
    2.0606    1.1879   -0.0085 H   0  0  0  0  0  0  0  0  0  0  0  0
  1  5  1  0
  5  8  1  0
  1  2  1  0
  1  3  1  0
  1  4  1  0
  5  6  1  0
  5  7  1  0
  8  9  1  0
  8 10  1  0
  8 11  1  0
 12 16  1  0
 16 17  2  0
 17 19  1  0
 19 21  2  0
 21 23  1  0
 23 25  2  0
 25 16  1  0
 12 13  1  0
 12 14  1  0
 12 15  1  0
 17 18  1  0
 19 20  1  0
 21 22  1  0
 23 24  1  0
 25 26  1  0
M  CHG  1   8   1
M  END
>  <PDB_ID>  (2033) 
pdb3kcm

>  <RESIDUE_NAME>  (2033) 
LYS   PHE

>  <FRAG_NAME>  (2033) 
ETAM   MBZ

>  <FRAG_ATOM_NUM>  (2033) 
fragi: 11  fragj: 15

>  <atom.prop.CHAIN_ID>  (2033) 
A A A A A A A A A A A Z Z Z Z Z Z Z Z Z Z Z Z Z Z Z

>  <atom.prop.IS_HEAVY_ATOM>  (2033) 
1 0 0 0 1 0 0 1 0 0 0 1 0 0 0 1 1 0 1 0 1 0 1 0 1 0

>  <DIFUSE_FUNC_ATOM>  (2033) 
n/a

>  <FINAL_SINGLE_POINT_ENERGY>  (2033) 
0

>  <NONCOV_INTER_ENERGY_QM>  (2033) 
0

>  <FF_Energy>  (2033) 
-8.07

>  <QM_Energy>  (2033) 
-16.85

>  <source>  (2033) 
ETAM_MBZ

>  <Index>  (2033) 
20855

$$$$
ETAM-pdb3kcm-C-LYS-145:MBZ-pdb3kcm-C-PHE-161
     RDKit          3D

 26 25  0  0  0  0  0  0  0  0999 V2000
    1.4302   -1.4741   -3.7197 C   0  0  0  0  0  0  0  0  0  0  0  0
    1.6538   -1.4210   -2.7367 H   0  0  0  0  0  0  0  0  0  0  0  0
    2.1421   -0.9725   -4.2290 H   0  0  0  0  0  0  0  0  0  0  0  0
    1.4220   -2.5175   -4.0352 H   0  0  0  0  0  0  0  0  0  0  0  0
    0.1140   -0.7637   -3.9374 C   0  0  0  0  0  0  0  0  0  0  0  0
   -0.1168   -0.7914   -4.9142 H   0  0  0  0  0  0  0  0  0  0  0  0
   -0.6053   -1.2391   -3.4230 H   0  0  0  0  0  0  0  0  0  0  0  0
    0.1752    0.6505   -3.4919 N   0  0  0  0  0  4  0  0  0  0  0  0
   -0.7451    0.9709   -3.2694 H   0  0  0  0  0  0  0  0  0  0  0  0
    0.7575    0.7205   -2.6816 H   0  0  0  0  0  0  0  0  0  0  0  0
    0.5560    1.2146   -4.2249 H   0  0  0  0  0  0  0  0  0  0  0  0
    0.0036    2.8965    0.0408 C   0  0  0  0  0  0  0  0  0  0  0  0
   -0.7100    3.2243   -0.5555 H   0  0  0  0  0  0  0  0  0  0  0  0
    0.8931    3.2137   -0.2431 H   0  0  0  0  0  0  0  0  0  0  0  0
   -0.1878    3.2945    1.0373 H   0  0  0  0  0  0  0  0  0  0  0  0
    0.0017    1.4032   -0.0004 C   0  0  0  0  0  0  0  0  0  0  0  0
   -1.1956    0.7011    0.0002 C   0  0  0  0  0  0  0  0  0  0  0  0
   -2.0627    1.1890   -0.0008 H   0  0  0  0  0  0  0  0  0  0  0  0
   -1.2092   -0.7027   -0.0000 C   0  0  0  0  0  0  0  0  0  0  0  0
   -2.0838   -1.1878    0.0118 H   0  0  0  0  0  0  0  0  0  0  0  0
   -0.0032   -1.4021   -0.0152 C   0  0  0  0  0  0  0  0  0  0  0  0
   -0.0011   -2.3953   -0.0371 H   0  0  0  0  0  0  0  0  0  0  0  0
    1.2092   -0.6947    0.0000 C   0  0  0  0  0  0  0  0  0  0  0  0
    2.0858   -1.1934    0.0008 H   0  0  0  0  0  0  0  0  0  0  0  0
    1.1971    0.6952    0.0153 C   0  0  0  0  0  0  0  0  0  0  0  0
    2.0662    1.1945    0.0375 H   0  0  0  0  0  0  0  0  0  0  0  0
  1  5  1  0
  5  8  1  0
  1  2  1  0
  1  3  1  0
  1  4  1  0
  5  6  1  0
  5  7  1  0
  8  9  1  0
  8 10  1  0
  8 11  1  0
 12 16  1  0
 16 17  2  0
 17 19  1  0
 19 21  2  0
 21 23  1  0
 23 25  2  0
 25 16  1  0
 12 13  1  0
 12 14  1  0
 12 15  1  0
 17 18  1  0
 19 20  1  0
 21 22  1  0
 23 24  1  0
 25 26  1  0
M  CHG  1   8   1
M  END
>  <PDB_ID>  (2034) 
pdb3kcm

>  <RESIDUE_NAME>  (2034) 
LYS   PHE

>  <FRAG_NAME>  (2034) 
ETAM   MBZ

>  <FRAG_ATOM_NUM>  (2034) 
fragi: 11  fragj: 15

>  <atom.prop.CHAIN_ID>  (2034) 
A A A A A A A A A A A Z Z Z Z Z Z Z Z Z Z Z Z Z Z Z

>  <atom.prop.IS_HEAVY_ATOM>  (2034) 
1 0 0 0 1 0 0 1 0 0 0 1 0 0 0 1 1 0 1 0 1 0 1 0 1 0

>  <DIFUSE_FUNC_ATOM>  (2034) 
n/a

>  <FINAL_SINGLE_POINT_ENERGY>  (2034) 
0

>  <NONCOV_INTER_ENERGY_QM>  (2034) 
0

>  <FF_Energy>  (2034) 
-8.64

>  <QM_Energy>  (2034) 
-14.63

>  <source>  (2034) 
ETAM_MBZ

>  <Index>  (2034) 
20856

$$$$
ETAM-pdb4h1s-A-LYS-494:MBZ-pdb4h1s-A-PHE-380
     RDKit          3D

 26 25  0  0  0  0  0  0  0  0999 V2000
    1.5396   -0.8413    4.3142 C   0  0  0  0  0  0  0  0  0  0  0  0
    1.3580   -0.5559    5.2456 H   0  0  0  0  0  0  0  0  0  0  0  0
    1.8909   -0.0898    3.7731 H   0  0  0  0  0  0  0  0  0  0  0  0
    2.2788   -1.6422    4.3293 H   0  0  0  0  0  0  0  0  0  0  0  0
    0.2224   -1.3175    3.6864 C   0  0  0  0  0  0  0  0  0  0  0  0
    0.4089   -1.6210    2.7456 H   0  0  0  0  0  0  0  0  0  0  0  0
   -0.1166   -2.1045    4.2133 H   0  0  0  0  0  0  0  0  0  0  0  0
   -0.8260   -0.2559    3.6610 N   0  0  0  0  0  4  0  0  0  0  0  0
   -0.4510    0.5674    3.2371 H   0  0  0  0  0  0  0  0  0  0  0  0
   -1.6098   -0.5791    3.1330 H   0  0  0  0  0  0  0  0  0  0  0  0
   -1.1111   -0.0520    4.5968 H   0  0  0  0  0  0  0  0  0  0  0  0
   -0.0023    2.9019    0.0006 C   0  0  0  0  0  0  0  0  0  0  0  0
   -0.6431    3.2046   -0.6879 H   0  0  0  0  0  0  0  0  0  0  0  0
    0.9153    3.2087   -0.2020 H   0  0  0  0  0  0  0  0  0  0  0  0
   -0.3003    3.3424    0.9521 H   0  0  0  0  0  0  0  0  0  0  0  0
    0.0006    1.3978    0.0026 C   0  0  0  0  0  0  0  0  0  0  0  0
   -1.1947    0.6908   -0.0059 C   0  0  0  0  0  0  0  0  0  0  0  0
   -2.0605    1.1839   -0.0181 H   0  0  0  0  0  0  0  0  0  0  0  0
   -1.1975   -0.6916    0.0000 C   0  0  0  0  0  0  0  0  0  0  0  0
   -2.0761   -1.1884    0.0112 H   0  0  0  0  0  0  0  0  0  0  0  0
   -0.0019   -1.3876   -0.0069 C   0  0  0  0  0  0  0  0  0  0  0  0
   -0.0085   -2.3885   -0.0176 H   0  0  0  0  0  0  0  0  0  0  0  0
    1.1975   -0.6976   -0.0000 C   0  0  0  0  0  0  0  0  0  0  0  0
    2.0782   -1.1989   -0.0011 H   0  0  0  0  0  0  0  0  0  0  0  0
    1.1961    0.6882    0.0101 C   0  0  0  0  0  0  0  0  0  0  0  0
    2.0645    1.1850    0.0218 H   0  0  0  0  0  0  0  0  0  0  0  0
  1  5  1  0
  5  8  1  0
  1  2  1  0
  1  3  1  0
  1  4  1  0
  5  6  1  0
  5  7  1  0
  8  9  1  0
  8 10  1  0
  8 11  1  0
 12 16  1  0
 16 17  2  0
 17 19  1  0
 19 21  2  0
 21 23  1  0
 23 25  2  0
 25 16  1  0
 12 13  1  0
 12 14  1  0
 12 15  1  0
 17 18  1  0
 19 20  1  0
 21 22  1  0
 23 24  1  0
 25 26  1  0
M  CHG  1   8   1
M  END
>  <PDB_ID>  (2035) 
pdb4h1s

>  <RESIDUE_NAME>  (2035) 
LYS   PHE

>  <FRAG_NAME>  (2035) 
ETAM   MBZ

>  <FRAG_ATOM_NUM>  (2035) 
fragi: 11  fragj: 15

>  <atom.prop.CHAIN_ID>  (2035) 
A A A A A A A A A A A Z Z Z Z Z Z Z Z Z Z Z Z Z Z Z

>  <atom.prop.IS_HEAVY_ATOM>  (2035) 
1 0 0 0 1 0 0 1 0 0 0 1 0 0 0 1 1 0 1 0 1 0 1 0 1 0

>  <DIFUSE_FUNC_ATOM>  (2035) 
n/a

>  <FINAL_SINGLE_POINT_ENERGY>  (2035) 
0

>  <NONCOV_INTER_ENERGY_QM>  (2035) 
0

>  <FF_Energy>  (2035) 
-6.94

>  <QM_Energy>  (2035) 
-12.23

>  <source>  (2035) 
ETAM_MBZ

>  <Index>  (2035) 
20864

$$$$
ETAM-pdb4h1s-B-LYS-494:MBZ-pdb4h1s-B-PHE-380
     RDKit          3D

 26 25  0  0  0  0  0  0  0  0999 V2000
    1.5058   -0.6626    4.3135 C   0  0  0  0  0  0  0  0  0  0  0  0
    1.3799   -0.2948    5.2299 H   0  0  0  0  0  0  0  0  0  0  0  0
    1.8702    0.0384    3.7077 H   0  0  0  0  0  0  0  0  0  0  0  0
    2.2094   -1.4940    4.3588 H   0  0  0  0  0  0  0  0  0  0  0  0
    0.1528   -1.1055    3.7808 C   0  0  0  0  0  0  0  0  0  0  0  0
    0.2835   -1.5565    2.8987 H   0  0  0  0  0  0  0  0  0  0  0  0
   -0.2560   -1.7495    4.4276 H   0  0  0  0  0  0  0  0  0  0  0  0
   -0.7526    0.0588    3.6088 N   0  0  0  0  0  4  0  0  0  0  0  0
   -0.6485    0.6802    4.3858 H   0  0  0  0  0  0  0  0  0  0  0  0
   -0.5197    0.5405    2.7638 H   0  0  0  0  0  0  0  0  0  0  0  0
   -1.6998   -0.2594    3.5619 H   0  0  0  0  0  0  0  0  0  0  0  0
    0.0042    2.8960   -0.0170 C   0  0  0  0  0  0  0  0  0  0  0  0
   -0.5704    3.1937   -0.7678 H   0  0  0  0  0  0  0  0  0  0  0  0
    0.9391    3.1990   -0.1459 H   0  0  0  0  0  0  0  0  0  0  0  0
   -0.3723    3.3620    0.8936 H   0  0  0  0  0  0  0  0  0  0  0  0
   -0.0002    1.3952    0.0056 C   0  0  0  0  0  0  0  0  0  0  0  0
   -1.1942    0.6909   -0.0113 C   0  0  0  0  0  0  0  0  0  0  0  0
   -2.0598    1.1858   -0.0331 H   0  0  0  0  0  0  0  0  0  0  0  0
   -1.1980   -0.6884    0.0000 C   0  0  0  0  0  0  0  0  0  0  0  0
   -2.0763   -1.1866    0.0081 H   0  0  0  0  0  0  0  0  0  0  0  0
   -0.0004   -1.3858    0.0017 C   0  0  0  0  0  0  0  0  0  0  0  0
   -0.0094   -2.3867    0.0035 H   0  0  0  0  0  0  0  0  0  0  0  0
    1.1980   -0.6984    0.0000 C   0  0  0  0  0  0  0  0  0  0  0  0
    2.0784   -1.1983   -0.0025 H   0  0  0  0  0  0  0  0  0  0  0  0
    1.1948    0.6865    0.0040 C   0  0  0  0  0  0  0  0  0  0  0  0
    2.0631    1.1841    0.0046 H   0  0  0  0  0  0  0  0  0  0  0  0
  1  5  1  0
  5  8  1  0
  1  2  1  0
  1  3  1  0
  1  4  1  0
  5  6  1  0
  5  7  1  0
  8  9  1  0
  8 10  1  0
  8 11  1  0
 12 16  1  0
 16 17  2  0
 17 19  1  0
 19 21  2  0
 21 23  1  0
 23 25  2  0
 25 16  1  0
 12 13  1  0
 12 14  1  0
 12 15  1  0
 17 18  1  0
 19 20  1  0
 21 22  1  0
 23 24  1  0
 25 26  1  0
M  CHG  1   8   1
M  END
>  <PDB_ID>  (2036) 
pdb4h1s

>  <RESIDUE_NAME>  (2036) 
LYS   PHE

>  <FRAG_NAME>  (2036) 
ETAM   MBZ

>  <FRAG_ATOM_NUM>  (2036) 
fragi: 11  fragj: 15

>  <atom.prop.CHAIN_ID>  (2036) 
A A A A A A A A A A A Z Z Z Z Z Z Z Z Z Z Z Z Z Z Z

>  <atom.prop.IS_HEAVY_ATOM>  (2036) 
1 0 0 0 1 0 0 1 0 0 0 1 0 0 0 1 1 0 1 0 1 0 1 0 1 0

>  <DIFUSE_FUNC_ATOM>  (2036) 
n/a

>  <FINAL_SINGLE_POINT_ENERGY>  (2036) 
0

>  <NONCOV_INTER_ENERGY_QM>  (2036) 
0

>  <FF_Energy>  (2036) 
-7.88

>  <QM_Energy>  (2036) 
-13.73

>  <source>  (2036) 
ETAM_MBZ

>  <Index>  (2036) 
20874

$$$$
ETAM-pdb3k5h-A-LYS-148:MBZ-pdb3k5h-A-PHE-105
     RDKit          3D

 26 25  0  0  0  0  0  0  0  0999 V2000
    1.7957    4.3689   -3.3476 C   0  0  0  0  0  0  0  0  0  0  0  0
    2.4870    4.5545   -4.0448 H   0  0  0  0  0  0  0  0  0  0  0  0
    2.2178    4.3930   -2.4417 H   0  0  0  0  0  0  0  0  0  0  0  0
    1.0320    5.1448   -3.3989 H   0  0  0  0  0  0  0  0  0  0  0  0
    1.2365    2.9674   -3.5820 C   0  0  0  0  0  0  0  0  0  0  0  0
    0.2843    2.9380   -3.2379 H   0  0  0  0  0  0  0  0  0  0  0  0
    1.2036    2.7946   -4.5802 H   0  0  0  0  0  0  0  0  0  0  0  0
    2.0200    1.8757   -2.9287 N   0  0  0  0  0  4  0  0  0  0  0  0
    2.1481    1.1290   -3.5791 H   0  0  0  0  0  0  0  0  0  0  0  0
    2.9087    2.2325   -2.6463 H   0  0  0  0  0  0  0  0  0  0  0  0
    1.5201    1.5447   -2.1301 H   0  0  0  0  0  0  0  0  0  0  0  0
   -0.0217    2.9288    0.0290 C   0  0  0  0  0  0  0  0  0  0  0  0
   -0.7291    3.2462   -0.5721 H   0  0  0  0  0  0  0  0  0  0  0  0
    0.8665    3.2577   -0.2268 H   0  0  0  0  0  0  0  0  0  0  0  0
   -0.2402    3.3170    1.0239 H   0  0  0  0  0  0  0  0  0  0  0  0
    0.0002    1.4174   -0.0196 C   0  0  0  0  0  0  0  0  0  0  0  0
   -1.1839    0.6800    0.0200 C   0  0  0  0  0  0  0  0  0  0  0  0
   -2.0619    1.1684    0.0632 H   0  0  0  0  0  0  0  0  0  0  0  0
   -1.1940   -0.7118    0.0000 C   0  0  0  0  0  0  0  0  0  0  0  0
   -2.0814   -1.1938   -0.0033 H   0  0  0  0  0  0  0  0  0  0  0  0
   -0.0140   -1.4047   -0.0129 C   0  0  0  0  0  0  0  0  0  0  0  0
   -0.0021   -2.3996   -0.0316 H   0  0  0  0  0  0  0  0  0  0  0  0
    1.1940   -0.6954    0.0000 C   0  0  0  0  0  0  0  0  0  0  0  0
    2.0756   -1.1905    0.0023 H   0  0  0  0  0  0  0  0  0  0  0  0
    1.1978    0.7145    0.0126 C   0  0  0  0  0  0  0  0  0  0  0  0
    2.0651    1.1978    0.0439 H   0  0  0  0  0  0  0  0  0  0  0  0
  1  5  1  0
  5  8  1  0
  1  2  1  0
  1  3  1  0
  1  4  1  0
  5  6  1  0
  5  7  1  0
  8  9  1  0
  8 10  1  0
  8 11  1  0
 12 16  1  0
 16 17  2  0
 17 19  1  0
 19 21  2  0
 21 23  1  0
 23 25  2  0
 25 16  1  0
 12 13  1  0
 12 14  1  0
 12 15  1  0
 17 18  1  0
 19 20  1  0
 21 22  1  0
 23 24  1  0
 25 26  1  0
M  CHG  1   8   1
M  END
>  <PDB_ID>  (2037) 
pdb3k5h

>  <RESIDUE_NAME>  (2037) 
LYS   PHE

>  <FRAG_NAME>  (2037) 
ETAM   MBZ

>  <FRAG_ATOM_NUM>  (2037) 
fragi: 11  fragj: 15

>  <atom.prop.CHAIN_ID>  (2037) 
A A A A A A A A A A A Z Z Z Z Z Z Z Z Z Z Z Z Z Z Z

>  <atom.prop.IS_HEAVY_ATOM>  (2037) 
1 0 0 0 1 0 0 1 0 0 0 1 0 0 0 1 1 0 1 0 1 0 1 0 1 0

>  <DIFUSE_FUNC_ATOM>  (2037) 
n/a

>  <FINAL_SINGLE_POINT_ENERGY>  (2037) 
0

>  <NONCOV_INTER_ENERGY_QM>  (2037) 
0

>  <FF_Energy>  (2037) 
-5.55

>  <QM_Energy>  (2037) 
-11.72

>  <source>  (2037) 
ETAM_MBZ

>  <Index>  (2037) 
20910

$$$$
ETAM-pdb3kew-B-LYS-214:MBZ-pdb3kew-B-PHE-131
     RDKit          3D

 26 25  0  0  0  0  0  0  0  0999 V2000
   -2.3900   -1.8708    3.2445 C   0  0  0  0  0  0  0  0  0  0  0  0
   -1.6839   -1.3325    2.7925 H   0  0  0  0  0  0  0  0  0  0  0  0
   -2.5235   -1.5482    4.1771 H   0  0  0  0  0  0  0  0  0  0  0  0
   -3.3240   -1.7551    2.6948 H   0  0  0  0  0  0  0  0  0  0  0  0
   -1.9335   -3.3245    3.2954 C   0  0  0  0  0  0  0  0  0  0  0  0
   -1.2573   -3.4234    4.0382 H   0  0  0  0  0  0  0  0  0  0  0  0
   -2.7283   -3.9039    3.5189 H   0  0  0  0  0  0  0  0  0  0  0  0
   -1.3332   -3.7891    2.0223 N   0  0  0  0  0  4  0  0  0  0  0  0
   -2.0197   -4.2855    1.4901 H   0  0  0  0  0  0  0  0  0  0  0  0
   -1.0118   -3.0006    1.4969 H   0  0  0  0  0  0  0  0  0  0  0  0
   -0.5619   -4.3953    2.2176 H   0  0  0  0  0  0  0  0  0  0  0  0
   -0.0017    2.9166   -0.0288 C   0  0  0  0  0  0  0  0  0  0  0  0
    0.9338    3.2207   -0.0484 H   0  0  0  0  0  0  0  0  0  0  0  0
   -0.4789    3.2349    0.7708 H   0  0  0  0  0  0  0  0  0  0  0  0
   -0.5058    3.3231   -0.9057 H   0  0  0  0  0  0  0  0  0  0  0  0
    0.0007    1.4043    0.0025 C   0  0  0  0  0  0  0  0  0  0  0  0
   -1.1996    0.6929    0.0011 C   0  0  0  0  0  0  0  0  0  0  0  0
   -2.0647    1.1868   -0.0001 H   0  0  0  0  0  0  0  0  0  0  0  0
   -1.2050   -0.6943   -0.0000 C   0  0  0  0  0  0  0  0  0  0  0  0
   -2.0803   -1.1905   -0.0022 H   0  0  0  0  0  0  0  0  0  0  0  0
   -0.0007   -1.3950    0.0044 C   0  0  0  0  0  0  0  0  0  0  0  0
   -0.0080   -2.3936    0.0101 H   0  0  0  0  0  0  0  0  0  0  0  0
    1.2050   -0.7018    0.0000 C   0  0  0  0  0  0  0  0  0  0  0  0
    2.0835   -1.1980    0.0043 H   0  0  0  0  0  0  0  0  0  0  0  0
    1.1996    0.6940   -0.0079 C   0  0  0  0  0  0  0  0  0  0  0  0
    2.0675    1.1889   -0.0219 H   0  0  0  0  0  0  0  0  0  0  0  0
  1  5  1  0
  5  8  1  0
  1  2  1  0
  1  3  1  0
  1  4  1  0
  5  6  1  0
  5  7  1  0
  8  9  1  0
  8 10  1  0
  8 11  1  0
 12 16  1  0
 16 17  2  0
 17 19  1  0
 19 21  2  0
 21 23  1  0
 23 25  2  0
 25 16  1  0
 12 13  1  0
 12 14  1  0
 12 15  1  0
 17 18  1  0
 19 20  1  0
 21 22  1  0
 23 24  1  0
 25 26  1  0
M  CHG  1   8   1
M  END
>  <PDB_ID>  (2038) 
pdb3kew

>  <RESIDUE_NAME>  (2038) 
LYS   PHE

>  <FRAG_NAME>  (2038) 
ETAM   MBZ

>  <FRAG_ATOM_NUM>  (2038) 
fragi: 11  fragj: 15

>  <atom.prop.CHAIN_ID>  (2038) 
A A A A A A A A A A A Z Z Z Z Z Z Z Z Z Z Z Z Z Z Z

>  <atom.prop.IS_HEAVY_ATOM>  (2038) 
1 0 0 0 1 0 0 1 0 0 0 1 0 0 0 1 1 0 1 0 1 0 1 0 1 0

>  <DIFUSE_FUNC_ATOM>  (2038) 
n/a

>  <FINAL_SINGLE_POINT_ENERGY>  (2038) 
0

>  <NONCOV_INTER_ENERGY_QM>  (2038) 
0

>  <FF_Energy>  (2038) 
-0.92

>  <QM_Energy>  (2038) 
-7.76

>  <source>  (2038) 
ETAM_MBZ

>  <Index>  (2038) 
20914

$$$$
ETAM-pdb3k8z-C-LYS-201:MBZ-pdb3k8z-C-PHE-238
     RDKit          3D

 26 25  0  0  0  0  0  0  0  0999 V2000
    1.1763   -1.1673    4.8507 C   0  0  0  0  0  0  0  0  0  0  0  0
    0.9145   -2.0167    4.4053 H   0  0  0  0  0  0  0  0  0  0  0  0
    0.7463   -1.0970    5.7437 H   0  0  0  0  0  0  0  0  0  0  0  0
    2.2588   -1.1555    4.9778 H   0  0  0  0  0  0  0  0  0  0  0  0
    0.7100   -0.0050    3.9943 C   0  0  0  0  0  0  0  0  0  0  0  0
    0.4301    0.7493    4.5934 H   0  0  0  0  0  0  0  0  0  0  0  0
    1.4725    0.3035    3.4199 H   0  0  0  0  0  0  0  0  0  0  0  0
   -0.4330   -0.3878    3.1243 N   0  0  0  0  0  4  0  0  0  0  0  0
   -0.1089   -0.9915    2.3954 H   0  0  0  0  0  0  0  0  0  0  0  0
   -1.1212   -0.8637    3.6705 H   0  0  0  0  0  0  0  0  0  0  0  0
   -0.8348    0.4351    2.7222 H   0  0  0  0  0  0  0  0  0  0  0  0
   -0.0019    2.9004    0.0048 C   0  0  0  0  0  0  0  0  0  0  0  0
    0.8417    3.2090   -0.4075 H   0  0  0  0  0  0  0  0  0  0  0  0
   -0.0752    3.2022    0.9431 H   0  0  0  0  0  0  0  0  0  0  0  0
   -0.8263    3.3451   -0.5528 H   0  0  0  0  0  0  0  0  0  0  0  0
   -0.0023    1.3964   -0.0025 C   0  0  0  0  0  0  0  0  0  0  0  0
   -1.1937    0.6890    0.0050 C   0  0  0  0  0  0  0  0  0  0  0  0
   -2.0618    1.1791    0.0125 H   0  0  0  0  0  0  0  0  0  0  0  0
   -1.1962   -0.6962    0.0000 C   0  0  0  0  0  0  0  0  0  0  0  0
   -2.0715   -1.1941   -0.0017 H   0  0  0  0  0  0  0  0  0  0  0  0
    0.0054   -1.3872   -0.0015 C   0  0  0  0  0  0  0  0  0  0  0  0
    0.0014   -2.3874   -0.0043 H   0  0  0  0  0  0  0  0  0  0  0  0
    1.1962   -0.6918   -0.0000 C   0  0  0  0  0  0  0  0  0  0  0  0
    2.0819   -1.1899    0.0037 H   0  0  0  0  0  0  0  0  0  0  0  0
    1.1905    0.6899   -0.0011 C   0  0  0  0  0  0  0  0  0  0  0  0
    2.0596    1.1903   -0.0019 H   0  0  0  0  0  0  0  0  0  0  0  0
  1  5  1  0
  5  8  1  0
  1  2  1  0
  1  3  1  0
  1  4  1  0
  5  6  1  0
  5  7  1  0
  8  9  1  0
  8 10  1  0
  8 11  1  0
 12 16  1  0
 16 17  2  0
 17 19  1  0
 19 21  2  0
 21 23  1  0
 23 25  2  0
 25 16  1  0
 12 13  1  0
 12 14  1  0
 12 15  1  0
 17 18  1  0
 19 20  1  0
 21 22  1  0
 23 24  1  0
 25 26  1  0
M  CHG  1   8   1
M  END
>  <PDB_ID>  (2039) 
pdb3k8z

>  <RESIDUE_NAME>  (2039) 
LYS   PHE

>  <FRAG_NAME>  (2039) 
ETAM   MBZ

>  <FRAG_ATOM_NUM>  (2039) 
fragi: 11  fragj: 15

>  <atom.prop.CHAIN_ID>  (2039) 
A A A A A A A A A A A Z Z Z Z Z Z Z Z Z Z Z Z Z Z Z

>  <atom.prop.IS_HEAVY_ATOM>  (2039) 
1 0 0 0 1 0 0 1 0 0 0 1 0 0 0 1 1 0 1 0 1 0 1 0 1 0

>  <DIFUSE_FUNC_ATOM>  (2039) 
n/a

>  <FINAL_SINGLE_POINT_ENERGY>  (2039) 
0

>  <NONCOV_INTER_ENERGY_QM>  (2039) 
0

>  <FF_Energy>  (2039) 
-9.01

>  <QM_Energy>  (2039) 
-16.82

>  <source>  (2039) 
ETAM_MBZ

>  <Index>  (2039) 
20936

$$$$
ETAM-pdb3kg8-A-LYS-1204:MBZ-pdb3kg8-A-PHE-1212
     RDKit          3D

 26 25  0  0  0  0  0  0  0  0999 V2000
   -5.6221   -0.4682    1.7058 C   0  0  0  0  0  0  0  0  0  0  0  0
   -5.4874   -0.7381    2.6549 H   0  0  0  0  0  0  0  0  0  0  0  0
   -6.5919   -0.3507    1.5161 H   0  0  0  0  0  0  0  0  0  0  0  0
   -5.1172    0.4835    1.5406 H   0  0  0  0  0  0  0  0  0  0  0  0
   -5.0850   -1.5984    0.7993 C   0  0  0  0  0  0  0  0  0  0  0  0
   -5.8564   -2.1872    0.5366 H   0  0  0  0  0  0  0  0  0  0  0  0
   -4.7017   -1.1826   -0.0315 H   0  0  0  0  0  0  0  0  0  0  0  0
   -4.0308   -2.4345    1.4626 N   0  0  0  0  0  4  0  0  0  0  0  0
   -4.2275   -2.4922    2.4393 H   0  0  0  0  0  0  0  0  0  0  0  0
   -4.0382   -3.3468    1.0603 H   0  0  0  0  0  0  0  0  0  0  0  0
   -3.1398   -2.0082    1.3205 H   0  0  0  0  0  0  0  0  0  0  0  0
   -0.0073    2.9020    0.0140 C   0  0  0  0  0  0  0  0  0  0  0  0
   -0.8500    3.2045   -0.4053 H   0  0  0  0  0  0  0  0  0  0  0  0
    0.7810    3.2122   -0.4948 H   0  0  0  0  0  0  0  0  0  0  0  0
    0.0454    3.3317    1.0143 H   0  0  0  0  0  0  0  0  0  0  0  0
   -0.0004    1.3953    0.0016 C   0  0  0  0  0  0  0  0  0  0  0  0
   -1.1983    0.6849    0.0050 C   0  0  0  0  0  0  0  0  0  0  0  0
   -2.0635    1.1820    0.0103 H   0  0  0  0  0  0  0  0  0  0  0  0
   -1.2007   -0.6914   -0.0000 C   0  0  0  0  0  0  0  0  0  0  0  0
   -2.0759   -1.1925   -0.0011 H   0  0  0  0  0  0  0  0  0  0  0  0
   -0.0001   -1.3850   -0.0020 C   0  0  0  0  0  0  0  0  0  0  0  0
   -0.0052   -2.3862   -0.0055 H   0  0  0  0  0  0  0  0  0  0  0  0
    1.2007   -0.6936    0.0000 C   0  0  0  0  0  0  0  0  0  0  0  0
    2.0807   -1.1964    0.0059 H   0  0  0  0  0  0  0  0  0  0  0  0
    1.1988    0.6898   -0.0046 C   0  0  0  0  0  0  0  0  0  0  0  0
    2.0641    1.1901   -0.0130 H   0  0  0  0  0  0  0  0  0  0  0  0
  1  5  1  0
  5  8  1  0
  1  2  1  0
  1  3  1  0
  1  4  1  0
  5  6  1  0
  5  7  1  0
  8  9  1  0
  8 10  1  0
  8 11  1  0
 12 16  1  0
 16 17  2  0
 17 19  1  0
 19 21  2  0
 21 23  1  0
 23 25  2  0
 25 16  1  0
 12 13  1  0
 12 14  1  0
 12 15  1  0
 17 18  1  0
 19 20  1  0
 21 22  1  0
 23 24  1  0
 25 26  1  0
M  CHG  1   8   1
M  END
>  <PDB_ID>  (2040) 
pdb3kg8

>  <RESIDUE_NAME>  (2040) 
LYS   PHE

>  <FRAG_NAME>  (2040) 
ETAM   MBZ

>  <FRAG_ATOM_NUM>  (2040) 
fragi: 11  fragj: 15

>  <atom.prop.CHAIN_ID>  (2040) 
A A A A A A A A A A A Z Z Z Z Z Z Z Z Z Z Z Z Z Z Z

>  <atom.prop.IS_HEAVY_ATOM>  (2040) 
1 0 0 0 1 0 0 1 0 0 0 1 0 0 0 1 1 0 1 0 1 0 1 0 1 0

>  <DIFUSE_FUNC_ATOM>  (2040) 
n/a

>  <FINAL_SINGLE_POINT_ENERGY>  (2040) 
0

>  <NONCOV_INTER_ENERGY_QM>  (2040) 
0

>  <FF_Energy>  (2040) 
0.71

>  <QM_Energy>  (2040) 
-4.4

>  <source>  (2040) 
ETAM_MBZ

>  <Index>  (2040) 
20952

$$$$
ETAM-pdb4h0r-A-LYS-51:MBZ-pdb4h0r-A-PHE-174
     RDKit          3D

 26 25  0  0  0  0  0  0  0  0999 V2000
   -1.7025   -2.9146    3.5131 C   0  0  0  0  0  0  0  0  0  0  0  0
   -0.9354   -3.5377    3.4745 H   0  0  0  0  0  0  0  0  0  0  0  0
   -2.0148   -2.6717    2.6068 H   0  0  0  0  0  0  0  0  0  0  0  0
   -2.5202   -3.4221    4.0249 H   0  0  0  0  0  0  0  0  0  0  0  0
   -1.3148   -1.6792    4.2633 C   0  0  0  0  0  0  0  0  0  0  0  0
   -2.1266   -1.0772    4.3730 H   0  0  0  0  0  0  0  0  0  0  0  0
   -1.0069   -1.9305    5.1995 H   0  0  0  0  0  0  0  0  0  0  0  0
   -0.2165   -0.8630    3.6182 N   0  0  0  0  0  4  0  0  0  0  0  0
   -0.3588   -0.8586    2.6334 H   0  0  0  0  0  0  0  0  0  0  0  0
   -0.2561    0.0651    3.9765 H   0  0  0  0  0  0  0  0  0  0  0  0
    0.6613   -1.2789    3.8369 H   0  0  0  0  0  0  0  0  0  0  0  0
   -0.0077    2.9085    0.0760 C   0  0  0  0  0  0  0  0  0  0  0  0
   -0.6331    3.2565   -0.5956 H   0  0  0  0  0  0  0  0  0  0  0  0
    0.9100    3.2302   -0.0610 H   0  0  0  0  0  0  0  0  0  0  0  0
   -0.3385    3.2733    1.0484 H   0  0  0  0  0  0  0  0  0  0  0  0
   -0.0014    1.4013   -0.0148 C   0  0  0  0  0  0  0  0  0  0  0  0
   -1.1861    0.7034    0.0025 C   0  0  0  0  0  0  0  0  0  0  0  0
   -2.0574    1.1974    0.0160 H   0  0  0  0  0  0  0  0  0  0  0  0
   -1.2040   -0.6817    0.0000 C   0  0  0  0  0  0  0  0  0  0  0  0
   -2.0862   -1.1694    0.0133 H   0  0  0  0  0  0  0  0  0  0  0  0
   -0.0097   -1.3977   -0.0194 C   0  0  0  0  0  0  0  0  0  0  0  0
   -0.0248   -2.3924   -0.0471 H   0  0  0  0  0  0  0  0  0  0  0  0
    1.2040   -0.7106   -0.0000 C   0  0  0  0  0  0  0  0  0  0  0  0
    2.0772   -1.2091   -0.0068 H   0  0  0  0  0  0  0  0  0  0  0  0
    1.1972    0.6853    0.0317 C   0  0  0  0  0  0  0  0  0  0  0  0
    2.0639    1.1802    0.0875 H   0  0  0  0  0  0  0  0  0  0  0  0
  1  5  1  0
  5  8  1  0
  1  2  1  0
  1  3  1  0
  1  4  1  0
  5  6  1  0
  5  7  1  0
  8  9  1  0
  8 10  1  0
  8 11  1  0
 12 16  1  0
 16 17  2  0
 17 19  1  0
 19 21  2  0
 21 23  1  0
 23 25  2  0
 25 16  1  0
 12 13  1  0
 12 14  1  0
 12 15  1  0
 17 18  1  0
 19 20  1  0
 21 22  1  0
 23 24  1  0
 25 26  1  0
M  CHG  1   8   1
M  END
>  <PDB_ID>  (2041) 
pdb4h0r

>  <RESIDUE_NAME>  (2041) 
LYS   PHE

>  <FRAG_NAME>  (2041) 
ETAM   MBZ

>  <FRAG_ATOM_NUM>  (2041) 
fragi: 11  fragj: 15

>  <atom.prop.CHAIN_ID>  (2041) 
A A A A A A A A A A A Z Z Z Z Z Z Z Z Z Z Z Z Z Z Z

>  <atom.prop.IS_HEAVY_ATOM>  (2041) 
1 0 0 0 1 0 0 1 0 0 0 1 0 0 0 1 1 0 1 0 1 0 1 0 1 0

>  <DIFUSE_FUNC_ATOM>  (2041) 
n/a

>  <FINAL_SINGLE_POINT_ENERGY>  (2041) 
0

>  <NONCOV_INTER_ENERGY_QM>  (2041) 
0

>  <FF_Energy>  (2041) 
-7.04

>  <QM_Energy>  (2041) 
-13.35

>  <source>  (2041) 
ETAM_MBZ

>  <Index>  (2041) 
20976

$$$$
ETAM-pdb3k92-E-LYS-95:MBZ-pdb3k92-E-PHE-18
     RDKit          3D

 26 25  0  0  0  0  0  0  0  0999 V2000
    0.2971   -2.5321    4.3993 C   0  0  0  0  0  0  0  0  0  0  0  0
    0.5530   -2.8195    3.4621 H   0  0  0  0  0  0  0  0  0  0  0  0
    0.3714   -3.3453    4.9976 H   0  0  0  0  0  0  0  0  0  0  0  0
    1.0196   -1.7896    4.7379 H   0  0  0  0  0  0  0  0  0  0  0  0
   -1.1000   -2.0586    4.3973 C   0  0  0  0  0  0  0  0  0  0  0  0
   -1.7034   -2.8162    4.6849 H   0  0  0  0  0  0  0  0  0  0  0  0
   -1.1948   -1.3143    5.0735 H   0  0  0  0  0  0  0  0  0  0  0  0
   -1.4596   -1.6034    3.1075 N   0  0  0  0  0  4  0  0  0  0  0  0
   -1.1489   -2.2461    2.3901 H   0  0  0  0  0  0  0  0  0  0  0  0
   -2.4634   -1.5072    3.0177 H   0  0  0  0  0  0  0  0  0  0  0  0
   -1.0479   -0.7000    2.9072 H   0  0  0  0  0  0  0  0  0  0  0  0
    0.0156    2.9060   -0.0128 C   0  0  0  0  0  0  0  0  0  0  0  0
    0.4297    3.2242    0.8227 H   0  0  0  0  0  0  0  0  0  0  0  0
   -0.9116    3.2268   -0.1078 H   0  0  0  0  0  0  0  0  0  0  0  0
    0.5895    3.3244   -0.8397 H   0  0  0  0  0  0  0  0  0  0  0  0
    0.0002    1.4054    0.0060 C   0  0  0  0  0  0  0  0  0  0  0  0
   -1.2078    0.7001   -0.0217 C   0  0  0  0  0  0  0  0  0  0  0  0
   -2.0674    1.1926   -0.0581 H   0  0  0  0  0  0  0  0  0  0  0  0
   -1.2128   -0.6935   -0.0000 C   0  0  0  0  0  0  0  0  0  0  0  0
   -2.0843   -1.1907    0.0187 H   0  0  0  0  0  0  0  0  0  0  0  0
    0.0030   -1.4064   -0.0030 C   0  0  0  0  0  0  0  0  0  0  0  0
   -0.0031   -2.3949   -0.0076 H   0  0  0  0  0  0  0  0  0  0  0  0
    1.2128   -0.6955    0.0000 C   0  0  0  0  0  0  0  0  0  0  0  0
    2.0909   -1.1976   -0.0098 H   0  0  0  0  0  0  0  0  0  0  0  0
    1.2046    0.6900    0.0187 C   0  0  0  0  0  0  0  0  0  0  0  0
    2.0691    1.1932    0.0402 H   0  0  0  0  0  0  0  0  0  0  0  0
  1  5  1  0
  5  8  1  0
  1  2  1  0
  1  3  1  0
  1  4  1  0
  5  6  1  0
  5  7  1  0
  8  9  1  0
  8 10  1  0
  8 11  1  0
 12 16  1  0
 16 17  2  0
 17 19  1  0
 19 21  2  0
 21 23  1  0
 23 25  2  0
 25 16  1  0
 12 13  1  0
 12 14  1  0
 12 15  1  0
 17 18  1  0
 19 20  1  0
 21 22  1  0
 23 24  1  0
 25 26  1  0
M  CHG  1   8   1
M  END
>  <PDB_ID>  (2042) 
pdb3k92

>  <RESIDUE_NAME>  (2042) 
LYS   PHE

>  <FRAG_NAME>  (2042) 
ETAM   MBZ

>  <FRAG_ATOM_NUM>  (2042) 
fragi: 11  fragj: 15

>  <atom.prop.CHAIN_ID>  (2042) 
A A A A A A A A A A A Z Z Z Z Z Z Z Z Z Z Z Z Z Z Z

>  <atom.prop.IS_HEAVY_ATOM>  (2042) 
1 0 0 0 1 0 0 1 0 0 0 1 0 0 0 1 1 0 1 0 1 0 1 0 1 0

>  <DIFUSE_FUNC_ATOM>  (2042) 
n/a

>  <FINAL_SINGLE_POINT_ENERGY>  (2042) 
0

>  <NONCOV_INTER_ENERGY_QM>  (2042) 
0

>  <FF_Energy>  (2042) 
-4.87

>  <QM_Energy>  (2042) 
-11.78

>  <source>  (2042) 
ETAM_MBZ

>  <Index>  (2042) 
20990

$$$$
ETAM-pdb3khx-A-LYS-319:MBZ-pdb3khx-A-PHE-312
     RDKit          3D

 26 25  0  0  0  0  0  0  0  0999 V2000
    0.8317    5.4789    1.2747 C   0  0  0  0  0  0  0  0  0  0  0  0
    0.4416    5.3059    0.3700 H   0  0  0  0  0  0  0  0  0  0  0  0
    1.3320    6.3448    1.2616 H   0  0  0  0  0  0  0  0  0  0  0  0
    0.0190    5.5548    1.9971 H   0  0  0  0  0  0  0  0  0  0  0  0
    1.8002    4.3647    1.6056 C   0  0  0  0  0  0  0  0  0  0  0  0
    2.1974    4.5334    2.5081 H   0  0  0  0  0  0  0  0  0  0  0  0
    1.3070    3.4944    1.6165 H   0  0  0  0  0  0  0  0  0  0  0  0
    2.8871    4.2991    0.5973 N   0  0  0  0  0  4  0  0  0  0  0  0
    3.4337    5.1357    0.6408 H   0  0  0  0  0  0  0  0  0  0  0  0
    3.4706    3.5093    0.7866 H   0  0  0  0  0  0  0  0  0  0  0  0
    2.4893    4.2073   -0.3163 H   0  0  0  0  0  0  0  0  0  0  0  0
    0.0015    2.9143    0.0170 C   0  0  0  0  0  0  0  0  0  0  0  0
    0.9412    3.2162   -0.0150 H   0  0  0  0  0  0  0  0  0  0  0  0
   -0.4454    3.2076    0.8482 H   0  0  0  0  0  0  0  0  0  0  0  0
   -0.5245    3.3676   -0.8232 H   0  0  0  0  0  0  0  0  0  0  0  0
   -0.0000    1.4017   -0.0016 C   0  0  0  0  0  0  0  0  0  0  0  0
   -1.1956    0.6949    0.0039 C   0  0  0  0  0  0  0  0  0  0  0  0
   -2.0631    1.1850    0.0097 H   0  0  0  0  0  0  0  0  0  0  0  0
   -1.2013   -0.6964    0.0000 C   0  0  0  0  0  0  0  0  0  0  0  0
   -2.0782   -1.1893   -0.0024 H   0  0  0  0  0  0  0  0  0  0  0  0
   -0.0006   -1.3930    0.0016 C   0  0  0  0  0  0  0  0  0  0  0  0
   -0.0048   -2.3923    0.0031 H   0  0  0  0  0  0  0  0  0  0  0  0
    1.2013   -0.6976   -0.0000 C   0  0  0  0  0  0  0  0  0  0  0  0
    2.0815   -1.1966    0.0028 H   0  0  0  0  0  0  0  0  0  0  0  0
    1.1962    0.6903   -0.0039 C   0  0  0  0  0  0  0  0  0  0  0  0
    2.0648    1.1885   -0.0088 H   0  0  0  0  0  0  0  0  0  0  0  0
  1  5  1  0
  5  8  1  0
  1  2  1  0
  1  3  1  0
  1  4  1  0
  5  6  1  0
  5  7  1  0
  8  9  1  0
  8 10  1  0
  8 11  1  0
 12 16  1  0
 16 17  2  0
 17 19  1  0
 19 21  2  0
 21 23  1  0
 23 25  2  0
 25 16  1  0
 12 13  1  0
 12 14  1  0
 12 15  1  0
 17 18  1  0
 19 20  1  0
 21 22  1  0
 23 24  1  0
 25 26  1  0
M  CHG  1   8   1
M  END
>  <PDB_ID>  (2043) 
pdb3khx

>  <RESIDUE_NAME>  (2043) 
LYS   PHE

>  <FRAG_NAME>  (2043) 
ETAM   MBZ

>  <FRAG_ATOM_NUM>  (2043) 
fragi: 11  fragj: 15

>  <atom.prop.CHAIN_ID>  (2043) 
A A A A A A A A A A A Z Z Z Z Z Z Z Z Z Z Z Z Z Z Z

>  <atom.prop.IS_HEAVY_ATOM>  (2043) 
1 0 0 0 1 0 0 1 0 0 0 1 0 0 0 1 1 0 1 0 1 0 1 0 1 0

>  <DIFUSE_FUNC_ATOM>  (2043) 
n/a

>  <FINAL_SINGLE_POINT_ENERGY>  (2043) 
0

>  <NONCOV_INTER_ENERGY_QM>  (2043) 
0

>  <FF_Energy>  (2043) 
35.39

>  <QM_Energy>  (2043) 
6.97

>  <source>  (2043) 
ETAM_MBZ

>  <Index>  (2043) 
21013

$$$$
ETAM-pdb3k8z-F-LYS-201:MBZ-pdb3k8z-F-PHE-238
     RDKit          3D

 26 25  0  0  0  0  0  0  0  0999 V2000
    1.1701   -1.1874    4.8517 C   0  0  0  0  0  0  0  0  0  0  0  0
    0.8982   -2.0358    4.4107 H   0  0  0  0  0  0  0  0  0  0  0  0
    0.7444   -1.1092    5.7467 H   0  0  0  0  0  0  0  0  0  0  0  0
    2.2532   -1.1847    4.9735 H   0  0  0  0  0  0  0  0  0  0  0  0
    0.7141   -0.0248    3.9938 C   0  0  0  0  0  0  0  0  0  0  0  0
    0.4424    0.7345    4.5900 H   0  0  0  0  0  0  0  0  0  0  0  0
    1.4773    0.2738    3.4146 H   0  0  0  0  0  0  0  0  0  0  0  0
   -0.4346   -0.4011    3.1292 N   0  0  0  0  0  4  0  0  0  0  0  0
   -0.6530   -1.3668    3.2684 H   0  0  0  0  0  0  0  0  0  0  0  0
   -1.2288    0.1586    3.3680 H   0  0  0  0  0  0  0  0  0  0  0  0
   -0.1939   -0.2476    2.1713 H   0  0  0  0  0  0  0  0  0  0  0  0
    0.0031    2.8996    0.0087 C   0  0  0  0  0  0  0  0  0  0  0  0
    0.8470    3.2075   -0.4053 H   0  0  0  0  0  0  0  0  0  0  0  0
   -0.0664    3.1997    0.9491 H   0  0  0  0  0  0  0  0  0  0  0  0
   -0.8225    3.3461   -0.5455 H   0  0  0  0  0  0  0  0  0  0  0  0
    0.0005    1.3976   -0.0021 C   0  0  0  0  0  0  0  0  0  0  0  0
   -1.1923    0.6917    0.0047 C   0  0  0  0  0  0  0  0  0  0  0  0
   -2.0600    1.1822    0.0112 H   0  0  0  0  0  0  0  0  0  0  0  0
   -1.1959   -0.6943   -0.0000 C   0  0  0  0  0  0  0  0  0  0  0  0
   -2.0754   -1.1889   -0.0004 H   0  0  0  0  0  0  0  0  0  0  0  0
   -0.0011   -1.3892   -0.0023 C   0  0  0  0  0  0  0  0  0  0  0  0
   -0.0056   -2.3894   -0.0063 H   0  0  0  0  0  0  0  0  0  0  0  0
    1.1959   -0.6960    0.0000 C   0  0  0  0  0  0  0  0  0  0  0  0
    2.0786   -1.1954    0.0032 H   0  0  0  0  0  0  0  0  0  0  0  0
    1.1929    0.6902   -0.0003 C   0  0  0  0  0  0  0  0  0  0  0  0
    2.0627    1.1862   -0.0002 H   0  0  0  0  0  0  0  0  0  0  0  0
  1  5  1  0
  5  8  1  0
  1  2  1  0
  1  3  1  0
  1  4  1  0
  5  6  1  0
  5  7  1  0
  8  9  1  0
  8 10  1  0
  8 11  1  0
 12 16  1  0
 16 17  2  0
 17 19  1  0
 19 21  2  0
 21 23  1  0
 23 25  2  0
 25 16  1  0
 12 13  1  0
 12 14  1  0
 12 15  1  0
 17 18  1  0
 19 20  1  0
 21 22  1  0
 23 24  1  0
 25 26  1  0
M  CHG  1   8   1
M  END
>  <PDB_ID>  (2044) 
pdb3k8z

>  <RESIDUE_NAME>  (2044) 
LYS   PHE

>  <FRAG_NAME>  (2044) 
ETAM   MBZ

>  <FRAG_ATOM_NUM>  (2044) 
fragi: 11  fragj: 15

>  <atom.prop.CHAIN_ID>  (2044) 
A A A A A A A A A A A Z Z Z Z Z Z Z Z Z Z Z Z Z Z Z

>  <atom.prop.IS_HEAVY_ATOM>  (2044) 
1 0 0 0 1 0 0 1 0 0 0 1 0 0 0 1 1 0 1 0 1 0 1 0 1 0

>  <DIFUSE_FUNC_ATOM>  (2044) 
n/a

>  <FINAL_SINGLE_POINT_ENERGY>  (2044) 
0

>  <NONCOV_INTER_ENERGY_QM>  (2044) 
0

>  <FF_Energy>  (2044) 
-9.62

>  <QM_Energy>  (2044) 
-17.13

>  <source>  (2044) 
ETAM_MBZ

>  <Index>  (2044) 
21048

$$$$
ETAM-pdb4hfs-B-LYS-250:MBZ-pdb4hfs-B-PHE-234
     RDKit          3D

 26 25  0  0  0  0  0  0  0  0999 V2000
    0.3112    0.1840    3.5984 C   0  0  0  0  0  0  0  0  0  0  0  0
    0.5753    0.2974    2.6353 H   0  0  0  0  0  0  0  0  0  0  0  0
    0.7987    0.8664    4.1504 H   0  0  0  0  0  0  0  0  0  0  0  0
   -0.7593    0.3700    3.6856 H   0  0  0  0  0  0  0  0  0  0  0  0
    0.7364   -1.2013    4.0566 C   0  0  0  0  0  0  0  0  0  0  0  0
    1.7459   -1.2470    4.0602 H   0  0  0  0  0  0  0  0  0  0  0  0
    0.4169   -1.3429    5.0039 H   0  0  0  0  0  0  0  0  0  0  0  0
    0.2049   -2.2955    3.1982 N   0  0  0  0  0  4  0  0  0  0  0  0
   -0.5249   -1.9364    2.6174 H   0  0  0  0  0  0  0  0  0  0  0  0
    0.9414   -2.6552    2.6263 H   0  0  0  0  0  0  0  0  0  0  0  0
   -0.1563   -3.0256    3.7774 H   0  0  0  0  0  0  0  0  0  0  0  0
    0.0044    2.9067    0.0292 C   0  0  0  0  0  0  0  0  0  0  0  0
    0.8765    3.2059    0.3768 H   0  0  0  0  0  0  0  0  0  0  0  0
   -0.7407    3.2046    0.6007 H   0  0  0  0  0  0  0  0  0  0  0  0
   -0.1330    3.3507   -0.9568 H   0  0  0  0  0  0  0  0  0  0  0  0
    0.0018    1.4044    0.0025 C   0  0  0  0  0  0  0  0  0  0  0  0
   -1.1950    0.6973    0.0051 C   0  0  0  0  0  0  0  0  0  0  0  0
   -2.0617    1.1820    0.0094 H   0  0  0  0  0  0  0  0  0  0  0  0
   -1.1948   -0.6997   -0.0000 C   0  0  0  0  0  0  0  0  0  0  0  0
   -2.0744   -1.1903   -0.0068 H   0  0  0  0  0  0  0  0  0  0  0  0
    0.0008   -1.3899    0.0054 C   0  0  0  0  0  0  0  0  0  0  0  0
   -0.0082   -2.3956    0.0131 H   0  0  0  0  0  0  0  0  0  0  0  0
    1.1948   -0.7077    0.0000 C   0  0  0  0  0  0  0  0  0  0  0  0
    2.0786   -1.1968    0.0063 H   0  0  0  0  0  0  0  0  0  0  0  0
    1.1924    0.6957   -0.0130 C   0  0  0  0  0  0  0  0  0  0  0  0
    2.0643    1.1827   -0.0344 H   0  0  0  0  0  0  0  0  0  0  0  0
  1  5  1  0
  5  8  1  0
  1  2  1  0
  1  3  1  0
  1  4  1  0
  5  6  1  0
  5  7  1  0
  8  9  1  0
  8 10  1  0
  8 11  1  0
 12 16  1  0
 16 17  2  0
 17 19  1  0
 19 21  2  0
 21 23  1  0
 23 25  2  0
 25 16  1  0
 12 13  1  0
 12 14  1  0
 12 15  1  0
 17 18  1  0
 19 20  1  0
 21 22  1  0
 23 24  1  0
 25 26  1  0
M  CHG  1   8   1
M  END
>  <PDB_ID>  (2045) 
pdb4hfs

>  <RESIDUE_NAME>  (2045) 
LYS   PHE

>  <FRAG_NAME>  (2045) 
ETAM   MBZ

>  <FRAG_ATOM_NUM>  (2045) 
fragi: 11  fragj: 15

>  <atom.prop.CHAIN_ID>  (2045) 
A A A A A A A A A A A Z Z Z Z Z Z Z Z Z Z Z Z Z Z Z

>  <atom.prop.IS_HEAVY_ATOM>  (2045) 
1 0 0 0 1 0 0 1 0 0 0 1 0 0 0 1 1 0 1 0 1 0 1 0 1 0

>  <DIFUSE_FUNC_ATOM>  (2045) 
n/a

>  <FINAL_SINGLE_POINT_ENERGY>  (2045) 
0

>  <NONCOV_INTER_ENERGY_QM>  (2045) 
0

>  <FF_Energy>  (2045) 
-5.27

>  <QM_Energy>  (2045) 
-12.4

>  <source>  (2045) 
ETAM_MBZ

>  <Index>  (2045) 
21084

$$$$
ETAM-pdb3kox-F-LYS-42:MBZ-pdb3kox-B-PHE-452
     RDKit          3D

 26 25  0  0  0  0  0  0  0  0999 V2000
    1.8710   -3.7810    3.9226 C   0  0  0  0  0  0  0  0  0  0  0  0
    2.3959   -4.5217    3.5501 H   0  0  0  0  0  0  0  0  0  0  0  0
    1.9340   -3.7249    4.9000 H   0  0  0  0  0  0  0  0  0  0  0  0
    2.2355   -2.8469    3.4952 H   0  0  0  0  0  0  0  0  0  0  0  0
    0.4040   -3.9665    3.5301 C   0  0  0  0  0  0  0  0  0  0  0  0
    0.3517   -4.3832    2.6388 H   0  0  0  0  0  0  0  0  0  0  0  0
   -0.0545   -4.5076    4.2144 H   0  0  0  0  0  0  0  0  0  0  0  0
   -0.2617   -2.5959    3.4673 N   0  0  0  0  0  4  0  0  0  0  0  0
    0.1098   -2.1032    2.6887 H   0  0  0  0  0  0  0  0  0  0  0  0
   -1.2405   -2.7276    3.3612 H   0  0  0  0  0  0  0  0  0  0  0  0
   -0.0643   -2.1129    4.3136 H   0  0  0  0  0  0  0  0  0  0  0  0
    0.0143    2.9389    0.0019 C   0  0  0  0  0  0  0  0  0  0  0  0
   -0.6404    3.2411   -0.6665 H   0  0  0  0  0  0  0  0  0  0  0  0
    0.9290    3.2277   -0.2166 H   0  0  0  0  0  0  0  0  0  0  0  0
   -0.2576    3.3753    0.9629 H   0  0  0  0  0  0  0  0  0  0  0  0
    0.0027    1.4045   -0.0038 C   0  0  0  0  0  0  0  0  0  0  0  0
   -1.1862    0.6961   -0.0030 C   0  0  0  0  0  0  0  0  0  0  0  0
   -2.0573    1.1800   -0.0057 H   0  0  0  0  0  0  0  0  0  0  0  0
   -1.1858   -0.6970    0.0000 C   0  0  0  0  0  0  0  0  0  0  0  0
   -2.0755   -1.1823    0.0073 H   0  0  0  0  0  0  0  0  0  0  0  0
   -0.0099   -1.3841   -0.0049 C   0  0  0  0  0  0  0  0  0  0  0  0
   -0.0116   -2.3901   -0.0126 H   0  0  0  0  0  0  0  0  0  0  0  0
    1.1858   -0.7010   -0.0000 C   0  0  0  0  0  0  0  0  0  0  0  0
    2.0670   -1.2060   -0.0034 H   0  0  0  0  0  0  0  0  0  0  0  0
    1.1934    0.6815    0.0117 C   0  0  0  0  0  0  0  0  0  0  0  0
    2.0660    1.1744    0.0307 H   0  0  0  0  0  0  0  0  0  0  0  0
  1  5  1  0
  5  8  1  0
  1  2  1  0
  1  3  1  0
  1  4  1  0
  5  6  1  0
  5  7  1  0
  8  9  1  0
  8 10  1  0
  8 11  1  0
 12 16  1  0
 16 17  2  0
 17 19  1  0
 19 21  2  0
 21 23  1  0
 23 25  2  0
 25 16  1  0
 12 13  1  0
 12 14  1  0
 12 15  1  0
 17 18  1  0
 19 20  1  0
 21 22  1  0
 23 24  1  0
 25 26  1  0
M  CHG  1   8   1
M  END
>  <PDB_ID>  (2046) 
pdb3kox

>  <RESIDUE_NAME>  (2046) 
LYS   PHE

>  <FRAG_NAME>  (2046) 
ETAM   MBZ

>  <FRAG_ATOM_NUM>  (2046) 
fragi: 11  fragj: 15

>  <atom.prop.CHAIN_ID>  (2046) 
A A A A A A A A A A A Z Z Z Z Z Z Z Z Z Z Z Z Z Z Z

>  <atom.prop.IS_HEAVY_ATOM>  (2046) 
1 0 0 0 1 0 0 1 0 0 0 1 0 0 0 1 1 0 1 0 1 0 1 0 1 0

>  <DIFUSE_FUNC_ATOM>  (2046) 
n/a

>  <FINAL_SINGLE_POINT_ENERGY>  (2046) 
0

>  <NONCOV_INTER_ENERGY_QM>  (2046) 
0

>  <FF_Energy>  (2046) 
-3.54

>  <QM_Energy>  (2046) 
-9.11

>  <source>  (2046) 
ETAM_MBZ

>  <Index>  (2046) 
21090

$$$$
ETAM-pdb3k8z-D-LYS-378:MBZ-pdb3k8z-C-PHE-368
     RDKit          3D

 26 25  0  0  0  0  0  0  0  0999 V2000
    0.1841   -4.4013   -1.8620 C   0  0  0  0  0  0  0  0  0  0  0  0
   -0.1291   -3.5841   -1.4015 H   0  0  0  0  0  0  0  0  0  0  0  0
    0.3293   -5.1422   -1.2230 H   0  0  0  0  0  0  0  0  0  0  0  0
   -0.5634   -4.7040   -2.5954 H   0  0  0  0  0  0  0  0  0  0  0  0
    1.4945   -4.0961   -2.5603 C   0  0  0  0  0  0  0  0  0  0  0  0
    2.1413   -3.7233   -1.8952 H   0  0  0  0  0  0  0  0  0  0  0  0
    1.8633   -4.9400   -2.9488 H   0  0  0  0  0  0  0  0  0  0  0  0
    1.2921   -3.1032   -3.6539 N   0  0  0  0  0  4  0  0  0  0  0  0
    2.1201   -2.5541   -3.7586 H   0  0  0  0  0  0  0  0  0  0  0  0
    1.0985   -3.5859   -4.5070 H   0  0  0  0  0  0  0  0  0  0  0  0
    0.5223   -2.5093   -3.4225 H   0  0  0  0  0  0  0  0  0  0  0  0
   -0.0034    2.8962   -0.0072 C   0  0  0  0  0  0  0  0  0  0  0  0
   -0.7427    3.1965   -0.5924 H   0  0  0  0  0  0  0  0  0  0  0  0
    0.8723    3.2019   -0.3520 H   0  0  0  0  0  0  0  0  0  0  0  0
   -0.1509    3.3451    0.9750 H   0  0  0  0  0  0  0  0  0  0  0  0
   -0.0002    1.3937    0.0025 C   0  0  0  0  0  0  0  0  0  0  0  0
   -1.1903    0.6898   -0.0031 C   0  0  0  0  0  0  0  0  0  0  0  0
   -2.0582    1.1835   -0.0111 H   0  0  0  0  0  0  0  0  0  0  0  0
   -1.1950   -0.6884    0.0000 C   0  0  0  0  0  0  0  0  0  0  0  0
   -2.0746   -1.1853    0.0036 H   0  0  0  0  0  0  0  0  0  0  0  0
   -0.0013   -1.3848    0.0004 C   0  0  0  0  0  0  0  0  0  0  0  0
   -0.0095   -2.3863    0.0003 H   0  0  0  0  0  0  0  0  0  0  0  0
    1.1950   -0.6975    0.0000 C   0  0  0  0  0  0  0  0  0  0  0  0
    2.0768   -1.1965    0.0010 H   0  0  0  0  0  0  0  0  0  0  0  0
    1.1919    0.6873    0.0002 C   0  0  0  0  0  0  0  0  0  0  0  0
    2.0616    1.1848   -0.0026 H   0  0  0  0  0  0  0  0  0  0  0  0
  1  5  1  0
  5  8  1  0
  1  2  1  0
  1  3  1  0
  1  4  1  0
  5  6  1  0
  5  7  1  0
  8  9  1  0
  8 10  1  0
  8 11  1  0
 12 16  1  0
 16 17  2  0
 17 19  1  0
 19 21  2  0
 21 23  1  0
 23 25  2  0
 25 16  1  0
 12 13  1  0
 12 14  1  0
 12 15  1  0
 17 18  1  0
 19 20  1  0
 21 22  1  0
 23 24  1  0
 25 26  1  0
M  CHG  1   8   1
M  END
>  <PDB_ID>  (2047) 
pdb3k8z

>  <RESIDUE_NAME>  (2047) 
LYS   PHE

>  <FRAG_NAME>  (2047) 
ETAM   MBZ

>  <FRAG_ATOM_NUM>  (2047) 
fragi: 11  fragj: 15

>  <atom.prop.CHAIN_ID>  (2047) 
A A A A A A A A A A A Z Z Z Z Z Z Z Z Z Z Z Z Z Z Z

>  <atom.prop.IS_HEAVY_ATOM>  (2047) 
1 0 0 0 1 0 0 1 0 0 0 1 0 0 0 1 1 0 1 0 1 0 1 0 1 0

>  <DIFUSE_FUNC_ATOM>  (2047) 
n/a

>  <FINAL_SINGLE_POINT_ENERGY>  (2047) 
0

>  <NONCOV_INTER_ENERGY_QM>  (2047) 
0

>  <FF_Energy>  (2047) 
0.44

>  <QM_Energy>  (2047) 
-4.61

>  <source>  (2047) 
ETAM_MBZ

>  <Index>  (2047) 
21100

$$$$
ETAM-pdb3krt-A-LYS-300:MBZ-pdb3krt-A-PHE-332
     RDKit          3D

 26 25  0  0  0  0  0  0  0  0999 V2000
   -0.3656   -3.4657   -2.5430 C   0  0  0  0  0  0  0  0  0  0  0  0
   -0.0727   -4.3537   -2.2031 H   0  0  0  0  0  0  0  0  0  0  0  0
   -0.3508   -2.7930   -1.8104 H   0  0  0  0  0  0  0  0  0  0  0  0
    0.3092   -3.1466   -3.3373 H   0  0  0  0  0  0  0  0  0  0  0  0
   -1.8013   -3.5944   -3.0463 C   0  0  0  0  0  0  0  0  0  0  0  0
   -2.4158   -3.6234   -2.2611 H   0  0  0  0  0  0  0  0  0  0  0  0
   -2.0152   -2.8031   -3.6151 H   0  0  0  0  0  0  0  0  0  0  0  0
   -1.9624   -4.8372   -3.8469 N   0  0  0  0  0  4  0  0  0  0  0  0
   -1.7188   -5.6277   -3.2853 H   0  0  0  0  0  0  0  0  0  0  0  0
   -2.9133   -4.9194   -4.1450 H   0  0  0  0  0  0  0  0  0  0  0  0
   -1.3636   -4.7976   -4.6465 H   0  0  0  0  0  0  0  0  0  0  0  0
   -0.0063    2.9131    0.0229 C   0  0  0  0  0  0  0  0  0  0  0  0
   -0.7072    3.2366   -0.5849 H   0  0  0  0  0  0  0  0  0  0  0  0
    0.8876    3.2317   -0.2347 H   0  0  0  0  0  0  0  0  0  0  0  0
   -0.2223    3.3184    1.0114 H   0  0  0  0  0  0  0  0  0  0  0  0
   -0.0039    1.4101   -0.0085 C   0  0  0  0  0  0  0  0  0  0  0  0
   -1.1926    0.7057    0.0103 C   0  0  0  0  0  0  0  0  0  0  0  0
   -2.0639    1.1821    0.0302 H   0  0  0  0  0  0  0  0  0  0  0  0
   -1.1936   -0.7038   -0.0000 C   0  0  0  0  0  0  0  0  0  0  0  0
   -2.0728   -1.1894   -0.0044 H   0  0  0  0  0  0  0  0  0  0  0  0
    0.0054   -1.3972   -0.0021 C   0  0  0  0  0  0  0  0  0  0  0  0
   -0.0027   -2.3985   -0.0056 H   0  0  0  0  0  0  0  0  0  0  0  0
    1.1936   -0.7067   -0.0000 C   0  0  0  0  0  0  0  0  0  0  0  0
    2.0813   -1.1969    0.0027 H   0  0  0  0  0  0  0  0  0  0  0  0
    1.1910    0.6918    0.0003 C   0  0  0  0  0  0  0  0  0  0  0  0
    2.0624    1.1831    0.0059 H   0  0  0  0  0  0  0  0  0  0  0  0
  1  5  1  0
  5  8  1  0
  1  2  1  0
  1  3  1  0
  1  4  1  0
  5  6  1  0
  5  7  1  0
  8  9  1  0
  8 10  1  0
  8 11  1  0
 12 16  1  0
 16 17  2  0
 17 19  1  0
 19 21  2  0
 21 23  1  0
 23 25  2  0
 25 16  1  0
 12 13  1  0
 12 14  1  0
 12 15  1  0
 17 18  1  0
 19 20  1  0
 21 22  1  0
 23 24  1  0
 25 26  1  0
M  CHG  1   8   1
M  END
>  <PDB_ID>  (2048) 
pdb3krt

>  <RESIDUE_NAME>  (2048) 
LYS   PHE

>  <FRAG_NAME>  (2048) 
ETAM   MBZ

>  <FRAG_ATOM_NUM>  (2048) 
fragi: 11  fragj: 15

>  <atom.prop.CHAIN_ID>  (2048) 
A A A A A A A A A A A Z Z Z Z Z Z Z Z Z Z Z Z Z Z Z

>  <atom.prop.IS_HEAVY_ATOM>  (2048) 
1 0 0 0 1 0 0 1 0 0 0 1 0 0 0 1 1 0 1 0 1 0 1 0 1 0

>  <DIFUSE_FUNC_ATOM>  (2048) 
n/a

>  <FINAL_SINGLE_POINT_ENERGY>  (2048) 
0

>  <NONCOV_INTER_ENERGY_QM>  (2048) 
0

>  <FF_Energy>  (2048) 
3.47

>  <QM_Energy>  (2048) 
-1.8

>  <source>  (2048) 
ETAM_MBZ

>  <Index>  (2048) 
21117

$$$$
ETAM-pdb4hi6-A-LYS-55:MBZ-pdb4hi6-A-PHE-82
     RDKit          3D

 26 25  0  0  0  0  0  0  0  0999 V2000
    3.4444   -1.4051   -3.5647 C   0  0  0  0  0  0  0  0  0  0  0  0
    3.4330   -2.1793   -2.9426 H   0  0  0  0  0  0  0  0  0  0  0  0
    3.6387   -0.5643   -3.0721 H   0  0  0  0  0  0  0  0  0  0  0  0
    4.2223   -1.5651   -4.3113 H   0  0  0  0  0  0  0  0  0  0  0  0
    2.0751   -1.2822   -4.2139 C   0  0  0  0  0  0  0  0  0  0  0  0
    2.1132   -0.5629   -4.9187 H   0  0  0  0  0  0  0  0  0  0  0  0
    1.8510   -2.1541   -4.6675 H   0  0  0  0  0  0  0  0  0  0  0  0
    1.0011   -0.9509   -3.2390 N   0  0  0  0  0  4  0  0  0  0  0  0
    0.5191   -1.7875   -2.9801 H   0  0  0  0  0  0  0  0  0  0  0  0
    1.4078   -0.5335   -2.4261 H   0  0  0  0  0  0  0  0  0  0  0  0
    0.3585   -0.3101   -3.6581 H   0  0  0  0  0  0  0  0  0  0  0  0
   -0.0066    2.9145    0.0221 C   0  0  0  0  0  0  0  0  0  0  0  0
   -0.7141    3.2258   -0.5891 H   0  0  0  0  0  0  0  0  0  0  0  0
    0.8846    3.2266   -0.2575 H   0  0  0  0  0  0  0  0  0  0  0  0
   -0.2116    3.3279    1.0096 H   0  0  0  0  0  0  0  0  0  0  0  0
   -0.0003    1.4021   -0.0052 C   0  0  0  0  0  0  0  0  0  0  0  0
   -1.1918    0.6913    0.0011 C   0  0  0  0  0  0  0  0  0  0  0  0
   -2.0617    1.1823    0.0052 H   0  0  0  0  0  0  0  0  0  0  0  0
   -1.1973   -0.6944    0.0000 C   0  0  0  0  0  0  0  0  0  0  0  0
   -2.0783   -1.1870   -0.0000 H   0  0  0  0  0  0  0  0  0  0  0  0
   -0.0049   -1.3929    0.0003 C   0  0  0  0  0  0  0  0  0  0  0  0
   -0.0090   -2.3914    0.0005 H   0  0  0  0  0  0  0  0  0  0  0  0
    1.1973   -0.6987    0.0000 C   0  0  0  0  0  0  0  0  0  0  0  0
    2.0776   -1.1987   -0.0017 H   0  0  0  0  0  0  0  0  0  0  0  0
    1.1969    0.6926    0.0038 C   0  0  0  0  0  0  0  0  0  0  0  0
    2.0646    1.1867    0.0125 H   0  0  0  0  0  0  0  0  0  0  0  0
  1  5  1  0
  5  8  1  0
  1  2  1  0
  1  3  1  0
  1  4  1  0
  5  6  1  0
  5  7  1  0
  8  9  1  0
  8 10  1  0
  8 11  1  0
 12 16  1  0
 16 17  2  0
 17 19  1  0
 19 21  2  0
 21 23  1  0
 23 25  2  0
 25 16  1  0
 12 13  1  0
 12 14  1  0
 12 15  1  0
 17 18  1  0
 19 20  1  0
 21 22  1  0
 23 24  1  0
 25 26  1  0
M  CHG  1   8   1
M  END
>  <PDB_ID>  (2049) 
pdb4hi6

>  <RESIDUE_NAME>  (2049) 
LYS   PHE

>  <FRAG_NAME>  (2049) 
ETAM   MBZ

>  <FRAG_ATOM_NUM>  (2049) 
fragi: 11  fragj: 15

>  <atom.prop.CHAIN_ID>  (2049) 
A A A A A A A A A A A Z Z Z Z Z Z Z Z Z Z Z Z Z Z Z

>  <atom.prop.IS_HEAVY_ATOM>  (2049) 
1 0 0 0 1 0 0 1 0 0 0 1 0 0 0 1 1 0 1 0 1 0 1 0 1 0

>  <DIFUSE_FUNC_ATOM>  (2049) 
n/a

>  <FINAL_SINGLE_POINT_ENERGY>  (2049) 
0

>  <NONCOV_INTER_ENERGY_QM>  (2049) 
0

>  <FF_Energy>  (2049) 
-6.81

>  <QM_Energy>  (2049) 
-13.71

>  <source>  (2049) 
ETAM_MBZ

>  <Index>  (2049) 
21123

$$$$
ETAM-pdb4hhh-U-LYS-10:MBZ-pdb4hhh-U-PHE-50
     RDKit          3D

 26 25  0  0  0  0  0  0  0  0999 V2000
    0.9211   -0.9078    3.3225 C   0  0  0  0  0  0  0  0  0  0  0  0
    0.7483   -0.7327    2.3618 H   0  0  0  0  0  0  0  0  0  0  0  0
    0.2334   -0.4755    3.8904 H   0  0  0  0  0  0  0  0  0  0  0  0
    0.8959   -1.9838    3.4946 H   0  0  0  0  0  0  0  0  0  0  0  0
    2.2803   -0.3416    3.6851 C   0  0  0  0  0  0  0  0  0  0  0  0
    2.2070    0.1374    4.5738 H   0  0  0  0  0  0  0  0  0  0  0  0
    2.9309   -1.1075    3.8038 H   0  0  0  0  0  0  0  0  0  0  0  0
    2.8209    0.5997    2.6718 N   0  0  0  0  0  4  0  0  0  0  0  0
    3.7218    0.2856    2.3720 H   0  0  0  0  0  0  0  0  0  0  0  0
    2.2023    0.6361    1.8865 H   0  0  0  0  0  0  0  0  0  0  0  0
    2.9022    1.5118    3.0745 H   0  0  0  0  0  0  0  0  0  0  0  0
    0.0018    2.8978   -0.0740 C   0  0  0  0  0  0  0  0  0  0  0  0
    0.9301    3.2135    0.0064 H   0  0  0  0  0  0  0  0  0  0  0  0
   -0.5734    3.2485    0.6439 H   0  0  0  0  0  0  0  0  0  0  0  0
   -0.3892    3.2799   -1.0170 H   0  0  0  0  0  0  0  0  0  0  0  0
   -0.0016    1.4020   -0.0016 C   0  0  0  0  0  0  0  0  0  0  0  0
   -1.2037    0.7017    0.0005 C   0  0  0  0  0  0  0  0  0  0  0  0
   -2.0658    1.1909    0.0014 H   0  0  0  0  0  0  0  0  0  0  0  0
   -1.2056   -0.6914    0.0000 C   0  0  0  0  0  0  0  0  0  0  0  0
   -2.0781   -1.1897   -0.0001 H   0  0  0  0  0  0  0  0  0  0  0  0
    0.0075   -1.3958    0.0019 C   0  0  0  0  0  0  0  0  0  0  0  0
   -0.0059   -2.3929    0.0038 H   0  0  0  0  0  0  0  0  0  0  0  0
    1.2056   -0.7028   -0.0000 C   0  0  0  0  0  0  0  0  0  0  0  0
    2.0870   -1.1988    0.0007 H   0  0  0  0  0  0  0  0  0  0  0  0
    1.1978    0.6863   -0.0007 C   0  0  0  0  0  0  0  0  0  0  0  0
    2.0664    1.1859   -0.0012 H   0  0  0  0  0  0  0  0  0  0  0  0
  1  5  1  0
  5  8  1  0
  1  2  1  0
  1  3  1  0
  1  4  1  0
  5  6  1  0
  5  7  1  0
  8  9  1  0
  8 10  1  0
  8 11  1  0
 12 16  1  0
 16 17  2  0
 17 19  1  0
 19 21  2  0
 21 23  1  0
 23 25  2  0
 25 16  1  0
 12 13  1  0
 12 14  1  0
 12 15  1  0
 17 18  1  0
 19 20  1  0
 21 22  1  0
 23 24  1  0
 25 26  1  0
M  CHG  1   8   1
M  END
>  <PDB_ID>  (2050) 
pdb4hhh

>  <RESIDUE_NAME>  (2050) 
LYS   PHE

>  <FRAG_NAME>  (2050) 
ETAM   MBZ

>  <FRAG_ATOM_NUM>  (2050) 
fragi: 11  fragj: 15

>  <atom.prop.CHAIN_ID>  (2050) 
A A A A A A A A A A A Z Z Z Z Z Z Z Z Z Z Z Z Z Z Z

>  <atom.prop.IS_HEAVY_ATOM>  (2050) 
1 0 0 0 1 0 0 1 0 0 0 1 0 0 0 1 1 0 1 0 1 0 1 0 1 0

>  <DIFUSE_FUNC_ATOM>  (2050) 
n/a

>  <FINAL_SINGLE_POINT_ENERGY>  (2050) 
0

>  <NONCOV_INTER_ENERGY_QM>  (2050) 
0

>  <FF_Energy>  (2050) 
-1.99

>  <QM_Energy>  (2050) 
-10.67

>  <source>  (2050) 
ETAM_MBZ

>  <Index>  (2050) 
21128

$$$$
ETAM-pdb4hi0-E-LYS-127:MBZ-pdb4hi0-F-PHE-46
     RDKit          3D

 26 25  0  0  0  0  0  0  0  0999 V2000
    3.7980    0.2920   -4.7467 C   0  0  0  0  0  0  0  0  0  0  0  0
    4.3096    1.1175   -4.5350 H   0  0  0  0  0  0  0  0  0  0  0  0
    2.8247    0.4877   -4.7871 H   0  0  0  0  0  0  0  0  0  0  0  0
    4.1231   -0.0862   -5.7160 H   0  0  0  0  0  0  0  0  0  0  0  0
    4.0411   -0.7269   -3.6358 C   0  0  0  0  0  0  0  0  0  0  0  0
    3.5814   -1.5864   -3.8798 H   0  0  0  0  0  0  0  0  0  0  0  0
    5.0285   -0.8985   -3.5650 H   0  0  0  0  0  0  0  0  0  0  0  0
    3.5311   -0.2588   -2.3141 N   0  0  0  0  0  4  0  0  0  0  0  0
    2.5626   -0.0291   -2.3970 H   0  0  0  0  0  0  0  0  0  0  0  0
    3.6486   -0.9863   -1.6392 H   0  0  0  0  0  0  0  0  0  0  0  0
    4.0449    0.5492   -2.0302 H   0  0  0  0  0  0  0  0  0  0  0  0
    0.0033    2.8942   -0.0073 C   0  0  0  0  0  0  0  0  0  0  0  0
   -0.5328    3.1979   -0.7820 H   0  0  0  0  0  0  0  0  0  0  0  0
    0.9421    3.2007   -0.0804 H   0  0  0  0  0  0  0  0  0  0  0  0
   -0.4230    3.3460    0.8884 H   0  0  0  0  0  0  0  0  0  0  0  0
    0.0008    1.3952    0.0032 C   0  0  0  0  0  0  0  0  0  0  0  0
   -1.1930    0.6901   -0.0022 C   0  0  0  0  0  0  0  0  0  0  0  0
   -2.0601    1.1823   -0.0092 H   0  0  0  0  0  0  0  0  0  0  0  0
   -1.1970   -0.6936   -0.0000 C   0  0  0  0  0  0  0  0  0  0  0  0
   -2.0754   -1.1891    0.0026 H   0  0  0  0  0  0  0  0  0  0  0  0
   -0.0010   -1.3872    0.0011 C   0  0  0  0  0  0  0  0  0  0  0  0
   -0.0044   -2.3875    0.0024 H   0  0  0  0  0  0  0  0  0  0  0  0
    1.1970   -0.6940   -0.0000 C   0  0  0  0  0  0  0  0  0  0  0  0
    2.0793   -1.1946    0.0019 H   0  0  0  0  0  0  0  0  0  0  0  0
    1.1932    0.6895   -0.0021 C   0  0  0  0  0  0  0  0  0  0  0  0
    2.0622    1.1873   -0.0085 H   0  0  0  0  0  0  0  0  0  0  0  0
  1  5  1  0
  5  8  1  0
  1  2  1  0
  1  3  1  0
  1  4  1  0
  5  6  1  0
  5  7  1  0
  8  9  1  0
  8 10  1  0
  8 11  1  0
 12 16  1  0
 16 17  2  0
 17 19  1  0
 19 21  2  0
 21 23  1  0
 23 25  2  0
 25 16  1  0
 12 13  1  0
 12 14  1  0
 12 15  1  0
 17 18  1  0
 19 20  1  0
 21 22  1  0
 23 24  1  0
 25 26  1  0
M  CHG  1   8   1
M  END
>  <PDB_ID>  (2051) 
pdb4hi0

>  <RESIDUE_NAME>  (2051) 
LYS   PHE

>  <FRAG_NAME>  (2051) 
ETAM   MBZ

>  <FRAG_ATOM_NUM>  (2051) 
fragi: 11  fragj: 15

>  <atom.prop.CHAIN_ID>  (2051) 
A A A A A A A A A A A Z Z Z Z Z Z Z Z Z Z Z Z Z Z Z

>  <atom.prop.IS_HEAVY_ATOM>  (2051) 
1 0 0 0 1 0 0 1 0 0 0 1 0 0 0 1 1 0 1 0 1 0 1 0 1 0

>  <DIFUSE_FUNC_ATOM>  (2051) 
n/a

>  <FINAL_SINGLE_POINT_ENERGY>  (2051) 
0

>  <NONCOV_INTER_ENERGY_QM>  (2051) 
0

>  <FF_Energy>  (2051) 
-1.38

>  <QM_Energy>  (2051) 
-7.38

>  <source>  (2051) 
ETAM_MBZ

>  <Index>  (2051) 
21133

$$$$
ETAM-pdb4hi0-F-LYS-127:MBZ-pdb4hi0-E-PHE-46
     RDKit          3D

 26 25  0  0  0  0  0  0  0  0999 V2000
    4.0369    0.2066   -4.5644 C   0  0  0  0  0  0  0  0  0  0  0  0
    4.5627    1.0256   -4.3642 H   0  0  0  0  0  0  0  0  0  0  0  0
    3.0668    0.4132   -4.5984 H   0  0  0  0  0  0  0  0  0  0  0  0
    4.3482   -0.1808   -5.5345 H   0  0  0  0  0  0  0  0  0  0  0  0
    4.2796   -0.8108   -3.4578 C   0  0  0  0  0  0  0  0  0  0  0  0
    3.8157   -1.6685   -3.6986 H   0  0  0  0  0  0  0  0  0  0  0  0
    5.2664   -0.9859   -3.3895 H   0  0  0  0  0  0  0  0  0  0  0  0
    3.7756   -0.3350   -2.1408 N   0  0  0  0  0  4  0  0  0  0  0  0
    3.2181   -1.0503   -1.7213 H   0  0  0  0  0  0  0  0  0  0  0  0
    4.5505   -0.1229   -1.5463 H   0  0  0  0  0  0  0  0  0  0  0  0
    3.2221    0.4861   -2.2748 H   0  0  0  0  0  0  0  0  0  0  0  0
    0.0048    2.8971   -0.0085 C   0  0  0  0  0  0  0  0  0  0  0  0
   -0.5290    3.1999   -0.7857 H   0  0  0  0  0  0  0  0  0  0  0  0
    0.9440    3.2020   -0.0813 H   0  0  0  0  0  0  0  0  0  0  0  0
   -0.4226    3.3517    0.8853 H   0  0  0  0  0  0  0  0  0  0  0  0
    0.0008    1.3975    0.0040 C   0  0  0  0  0  0  0  0  0  0  0  0
   -1.1944    0.6915   -0.0027 C   0  0  0  0  0  0  0  0  0  0  0  0
   -2.0614    1.1828   -0.0110 H   0  0  0  0  0  0  0  0  0  0  0  0
   -1.1990   -0.6954   -0.0000 C   0  0  0  0  0  0  0  0  0  0  0  0
   -2.0768   -1.1902    0.0027 H   0  0  0  0  0  0  0  0  0  0  0  0
   -0.0003   -1.3897    0.0005 C   0  0  0  0  0  0  0  0  0  0  0  0
   -0.0032   -2.3895    0.0005 H   0  0  0  0  0  0  0  0  0  0  0  0
    1.1990   -0.6946   -0.0000 C   0  0  0  0  0  0  0  0  0  0  0  0
    2.0799   -1.1938    0.0023 H   0  0  0  0  0  0  0  0  0  0  0  0
    1.1939    0.6908   -0.0019 C   0  0  0  0  0  0  0  0  0  0  0  0
    2.0632    1.1888   -0.0079 H   0  0  0  0  0  0  0  0  0  0  0  0
  1  5  1  0
  5  8  1  0
  1  2  1  0
  1  3  1  0
  1  4  1  0
  5  6  1  0
  5  7  1  0
  8  9  1  0
  8 10  1  0
  8 11  1  0
 12 16  1  0
 16 17  2  0
 17 19  1  0
 19 21  2  0
 21 23  1  0
 23 25  2  0
 25 16  1  0
 12 13  1  0
 12 14  1  0
 12 15  1  0
 17 18  1  0
 19 20  1  0
 21 22  1  0
 23 24  1  0
 25 26  1  0
M  CHG  1   8   1
M  END
>  <PDB_ID>  (2052) 
pdb4hi0

>  <RESIDUE_NAME>  (2052) 
LYS   PHE

>  <FRAG_NAME>  (2052) 
ETAM   MBZ

>  <FRAG_ATOM_NUM>  (2052) 
fragi: 11  fragj: 15

>  <atom.prop.CHAIN_ID>  (2052) 
A A A A A A A A A A A Z Z Z Z Z Z Z Z Z Z Z Z Z Z Z

>  <atom.prop.IS_HEAVY_ATOM>  (2052) 
1 0 0 0 1 0 0 1 0 0 0 1 0 0 0 1 1 0 1 0 1 0 1 0 1 0

>  <DIFUSE_FUNC_ATOM>  (2052) 
n/a

>  <FINAL_SINGLE_POINT_ENERGY>  (2052) 
0

>  <NONCOV_INTER_ENERGY_QM>  (2052) 
0

>  <FF_Energy>  (2052) 
-0.69

>  <QM_Energy>  (2052) 
-6.52

>  <source>  (2052) 
ETAM_MBZ

>  <Index>  (2052) 
21134

$$$$
ETAM-pdb4hj1-C-LYS-994:MBZ-pdb4hj1-C-PHE-1002
     RDKit          3D

 26 25  0  0  0  0  0  0  0  0999 V2000
   -0.6866   -5.1005   -3.6397 C   0  0  0  0  0  0  0  0  0  0  0  0
   -0.9487   -4.7606   -4.5439 H   0  0  0  0  0  0  0  0  0  0  0  0
   -1.4137   -5.6881   -3.2825 H   0  0  0  0  0  0  0  0  0  0  0  0
    0.2226   -5.6930   -3.7413 H   0  0  0  0  0  0  0  0  0  0  0  0
   -0.5262   -3.9069   -2.7033 C   0  0  0  0  0  0  0  0  0  0  0  0
   -1.4426   -3.5691   -2.4511 H   0  0  0  0  0  0  0  0  0  0  0  0
   -0.0647   -4.2159   -1.8616 H   0  0  0  0  0  0  0  0  0  0  0  0
    0.2560   -2.7922   -3.3055 N   0  0  0  0  0  4  0  0  0  0  0  0
    0.6094   -2.2048   -2.5784 H   0  0  0  0  0  0  0  0  0  0  0  0
    1.0179   -3.1684   -3.8312 H   0  0  0  0  0  0  0  0  0  0  0  0
   -0.3374   -2.2596   -3.9084 H   0  0  0  0  0  0  0  0  0  0  0  0
    0.0029    2.9151    0.0002 C   0  0  0  0  0  0  0  0  0  0  0  0
   -0.7376    3.2209   -0.5788 H   0  0  0  0  0  0  0  0  0  0  0  0
    0.8785    3.2183   -0.3439 H   0  0  0  0  0  0  0  0  0  0  0  0
   -0.1391    3.3612    0.9845 H   0  0  0  0  0  0  0  0  0  0  0  0
   -0.0003    1.4078    0.0025 C   0  0  0  0  0  0  0  0  0  0  0  0
   -1.1993    0.6961   -0.0037 C   0  0  0  0  0  0  0  0  0  0  0  0
   -2.0660    1.1850   -0.0123 H   0  0  0  0  0  0  0  0  0  0  0  0
   -1.2040   -0.6983   -0.0000 C   0  0  0  0  0  0  0  0  0  0  0  0
   -2.0792   -1.1914    0.0034 H   0  0  0  0  0  0  0  0  0  0  0  0
    0.0012   -1.3980    0.0016 C   0  0  0  0  0  0  0  0  0  0  0  0
   -0.0050   -2.3952    0.0038 H   0  0  0  0  0  0  0  0  0  0  0  0
    1.2040   -0.7011    0.0000 C   0  0  0  0  0  0  0  0  0  0  0  0
    2.0847   -1.1968    0.0003 H   0  0  0  0  0  0  0  0  0  0  0  0
    1.1984    0.6936   -0.0004 C   0  0  0  0  0  0  0  0  0  0  0  0
    2.0670    1.1892   -0.0041 H   0  0  0  0  0  0  0  0  0  0  0  0
  1  5  1  0
  5  8  1  0
  1  2  1  0
  1  3  1  0
  1  4  1  0
  5  6  1  0
  5  7  1  0
  8  9  1  0
  8 10  1  0
  8 11  1  0
 12 16  1  0
 16 17  2  0
 17 19  1  0
 19 21  2  0
 21 23  1  0
 23 25  2  0
 25 16  1  0
 12 13  1  0
 12 14  1  0
 12 15  1  0
 17 18  1  0
 19 20  1  0
 21 22  1  0
 23 24  1  0
 25 26  1  0
M  CHG  1   8   1
M  END
>  <PDB_ID>  (2053) 
pdb4hj1

>  <RESIDUE_NAME>  (2053) 
LYS   PHE

>  <FRAG_NAME>  (2053) 
ETAM   MBZ

>  <FRAG_ATOM_NUM>  (2053) 
fragi: 11  fragj: 15

>  <atom.prop.CHAIN_ID>  (2053) 
A A A A A A A A A A A Z Z Z Z Z Z Z Z Z Z Z Z Z Z Z

>  <atom.prop.IS_HEAVY_ATOM>  (2053) 
1 0 0 0 1 0 0 1 0 0 0 1 0 0 0 1 1 0 1 0 1 0 1 0 1 0

>  <DIFUSE_FUNC_ATOM>  (2053) 
n/a

>  <FINAL_SINGLE_POINT_ENERGY>  (2053) 
0

>  <NONCOV_INTER_ENERGY_QM>  (2053) 
0

>  <FF_Energy>  (2053) 
-3.36

>  <QM_Energy>  (2053) 
-9.51

>  <source>  (2053) 
ETAM_MBZ

>  <Index>  (2053) 
21142

$$$$
ETAM-pdb3kra-B-LYS-17:MBZ-pdb3kra-B-PHE-37
     RDKit          3D

 26 25  0  0  0  0  0  0  0  0999 V2000
    0.9346   -1.5081   -4.4067 C   0  0  0  0  0  0  0  0  0  0  0  0
    1.8515   -1.3995   -4.0465 H   0  0  0  0  0  0  0  0  0  0  0  0
    0.9528   -1.9225   -5.3069 H   0  0  0  0  0  0  0  0  0  0  0  0
    0.3196   -2.0948   -3.7243 H   0  0  0  0  0  0  0  0  0  0  0  0
    0.3414   -0.0708   -4.5803 C   0  0  0  0  0  0  0  0  0  0  0  0
    1.0804    0.5212   -4.9002 H   0  0  0  0  0  0  0  0  0  0  0  0
   -0.3702   -0.1229   -5.2807 H   0  0  0  0  0  0  0  0  0  0  0  0
   -0.2116    0.4307   -3.3213 N   0  0  0  0  0  4  0  0  0  0  0  0
   -1.0539    0.9470   -3.4970 H   0  0  0  0  0  0  0  0  0  0  0  0
   -0.4223   -0.3360   -2.7083 H   0  0  0  0  0  0  0  0  0  0  0  0
    0.4518    1.0342   -2.8704 H   0  0  0  0  0  0  0  0  0  0  0  0
    0.0192    2.8837    0.2126 C   0  0  0  0  0  0  0  0  0  0  0  0
   -0.8901    3.2310    0.0674 H   0  0  0  0  0  0  0  0  0  0  0  0
    0.6727    3.2835   -0.4053 H   0  0  0  0  0  0  0  0  0  0  0  0
    0.3174    3.1471    1.2274 H   0  0  0  0  0  0  0  0  0  0  0  0
    0.0044    1.4171    0.0016 C   0  0  0  0  0  0  0  0  0  0  0  0
   -1.1894    0.7224   -0.0000 C   0  0  0  0  0  0  0  0  0  0  0  0
   -2.0598    1.1970   -0.0023 H   0  0  0  0  0  0  0  0  0  0  0  0
   -1.2057   -0.7074    0.0000 C   0  0  0  0  0  0  0  0  0  0  0  0
   -2.1013   -1.1652   -0.0017 H   0  0  0  0  0  0  0  0  0  0  0  0
   -0.0351   -1.4070    0.0041 C   0  0  0  0  0  0  0  0  0  0  0  0
   -0.0293   -2.4072    0.0093 H   0  0  0  0  0  0  0  0  0  0  0  0
    1.2057   -0.7192    0.0000 C   0  0  0  0  0  0  0  0  0  0  0  0
    2.0670   -1.2290    0.0020 H   0  0  0  0  0  0  0  0  0  0  0  0
    1.2201    0.6941   -0.0057 C   0  0  0  0  0  0  0  0  0  0  0  0
    2.0813    1.1779   -0.0156 H   0  0  0  0  0  0  0  0  0  0  0  0
  1  5  1  0
  5  8  1  0
  1  2  1  0
  1  3  1  0
  1  4  1  0
  5  6  1  0
  5  7  1  0
  8  9  1  0
  8 10  1  0
  8 11  1  0
 12 16  1  0
 16 17  2  0
 17 19  1  0
 19 21  2  0
 21 23  1  0
 23 25  2  0
 25 16  1  0
 12 13  1  0
 12 14  1  0
 12 15  1  0
 17 18  1  0
 19 20  1  0
 21 22  1  0
 23 24  1  0
 25 26  1  0
M  CHG  1   8   1
M  END
>  <PDB_ID>  (2054) 
pdb3kra

>  <RESIDUE_NAME>  (2054) 
LYS   PHE

>  <FRAG_NAME>  (2054) 
ETAM   MBZ

>  <FRAG_ATOM_NUM>  (2054) 
fragi: 11  fragj: 15

>  <atom.prop.CHAIN_ID>  (2054) 
A A A A A A A A A A A Z Z Z Z Z Z Z Z Z Z Z Z Z Z Z

>  <atom.prop.IS_HEAVY_ATOM>  (2054) 
1 0 0 0 1 0 0 1 0 0 0 1 0 0 0 1 1 0 1 0 1 0 1 0 1 0

>  <DIFUSE_FUNC_ATOM>  (2054) 
n/a

>  <FINAL_SINGLE_POINT_ENERGY>  (2054) 
0

>  <NONCOV_INTER_ENERGY_QM>  (2054) 
0

>  <FF_Energy>  (2054) 
-8.92

>  <QM_Energy>  (2054) 
-15.87

>  <source>  (2054) 
ETAM_MBZ

>  <Index>  (2054) 
21150

$$$$
ETAM-pdb3kvd-D-LYS-240:MBZ-pdb3kvd-D-PHE-206
     RDKit          3D

 26 25  0  0  0  0  0  0  0  0999 V2000
   -2.1380   -3.2248    2.8415 C   0  0  0  0  0  0  0  0  0  0  0  0
   -1.6341   -3.8239    2.2488 H   0  0  0  0  0  0  0  0  0  0  0  0
   -2.4450   -2.4125    2.3830 H   0  0  0  0  0  0  0  0  0  0  0  0
   -2.9861   -3.7546    3.2751 H   0  0  0  0  0  0  0  0  0  0  0  0
   -1.2010   -2.7956    3.9883 C   0  0  0  0  0  0  0  0  0  0  0  0
   -1.7073   -2.2024    4.6176 H   0  0  0  0  0  0  0  0  0  0  0  0
   -0.8955   -3.6128    4.4830 H   0  0  0  0  0  0  0  0  0  0  0  0
    0.0361   -2.0374    3.5026 N   0  0  0  0  0  4  0  0  0  0  0  0
    0.0412   -2.0540    2.5101 H   0  0  0  0  0  0  0  0  0  0  0  0
   -0.0199   -1.1040    3.8367 H   0  0  0  0  0  0  0  0  0  0  0  0
    0.8410   -2.4917    3.8648 H   0  0  0  0  0  0  0  0  0  0  0  0
   -0.0051    2.9186    0.0017 C   0  0  0  0  0  0  0  0  0  0  0  0
   -0.7424    3.2268   -0.5838 H   0  0  0  0  0  0  0  0  0  0  0  0
    0.8728    3.2267   -0.3381 H   0  0  0  0  0  0  0  0  0  0  0  0
   -0.1542    3.3631    0.9857 H   0  0  0  0  0  0  0  0  0  0  0  0
   -0.0047    1.4185   -0.0008 C   0  0  0  0  0  0  0  0  0  0  0  0
   -1.2235    0.6936    0.0051 C   0  0  0  0  0  0  0  0  0  0  0  0
   -2.0830    1.1947    0.0116 H   0  0  0  0  0  0  0  0  0  0  0  0
   -1.2444   -0.7061    0.0000 C   0  0  0  0  0  0  0  0  0  0  0  0
   -2.0935   -1.2091   -0.0020 H   0  0  0  0  0  0  0  0  0  0  0  0
    0.0148   -1.4262   -0.0006 C   0  0  0  0  0  0  0  0  0  0  0  0
    0.0107   -2.4056   -0.0019 H   0  0  0  0  0  0  0  0  0  0  0  0
    1.2444   -0.6944    0.0000 C   0  0  0  0  0  0  0  0  0  0  0  0
    2.1158   -1.1824    0.0041 H   0  0  0  0  0  0  0  0  0  0  0  0
    1.2134    0.7146   -0.0037 C   0  0  0  0  0  0  0  0  0  0  0  0
    2.0727    1.2218   -0.0093 H   0  0  0  0  0  0  0  0  0  0  0  0
  1  5  1  0
  5  8  1  0
  1  2  1  0
  1  3  1  0
  1  4  1  0
  5  6  1  0
  5  7  1  0
  8  9  1  0
  8 10  1  0
  8 11  1  0
 12 16  1  0
 16 17  2  0
 17 19  1  0
 19 21  2  0
 21 23  1  0
 23 25  2  0
 25 16  1  0
 12 13  1  0
 12 14  1  0
 12 15  1  0
 17 18  1  0
 19 20  1  0
 21 22  1  0
 23 24  1  0
 25 26  1  0
M  CHG  1   8   1
M  END
>  <PDB_ID>  (2055) 
pdb3kvd

>  <RESIDUE_NAME>  (2055) 
LYS   PHE

>  <FRAG_NAME>  (2055) 
ETAM   MBZ

>  <FRAG_ATOM_NUM>  (2055) 
fragi: 11  fragj: 15

>  <atom.prop.CHAIN_ID>  (2055) 
A A A A A A A A A A A Z Z Z Z Z Z Z Z Z Z Z Z Z Z Z

>  <atom.prop.IS_HEAVY_ATOM>  (2055) 
1 0 0 0 1 0 0 1 0 0 0 1 0 0 0 1 1 0 1 0 1 0 1 0 1 0

>  <DIFUSE_FUNC_ATOM>  (2055) 
n/a

>  <FINAL_SINGLE_POINT_ENERGY>  (2055) 
0

>  <NONCOV_INTER_ENERGY_QM>  (2055) 
0

>  <FF_Energy>  (2055) 
-5.0

>  <QM_Energy>  (2055) 
-11.75

>  <source>  (2055) 
ETAM_MBZ

>  <Index>  (2055) 
21182

$$$$
ETAM-pdb3kv5-D-LYS-408:MBZ-pdb3kv5-D-PHE-405
     RDKit          3D

 26 25  0  0  0  0  0  0  0  0999 V2000
    1.4449    2.7018    4.1441 C   0  0  0  0  0  0  0  0  0  0  0  0
    2.1705    2.5116    4.8081 H   0  0  0  0  0  0  0  0  0  0  0  0
    0.6919    2.0559    4.2853 H   0  0  0  0  0  0  0  0  0  0  0  0
    1.0750    3.7137    4.3098 H   0  0  0  0  0  0  0  0  0  0  0  0
    1.9976    2.5024    2.7533 C   0  0  0  0  0  0  0  0  0  0  0  0
    1.5765    3.1653    2.1327 H   0  0  0  0  0  0  0  0  0  0  0  0
    2.9876    2.6477    2.7679 H   0  0  0  0  0  0  0  0  0  0  0  0
    1.7131    1.1297    2.2642 N   0  0  0  0  0  4  0  0  0  0  0  0
    2.3606    0.8930    1.5395 H   0  0  0  0  0  0  0  0  0  0  0  0
    1.8074    0.4807    3.0195 H   0  0  0  0  0  0  0  0  0  0  0  0
    0.7808    1.0899    1.9041 H   0  0  0  0  0  0  0  0  0  0  0  0
    0.0032    2.8995   -0.0020 C   0  0  0  0  0  0  0  0  0  0  0  0
   -0.7298    3.2094   -0.5901 H   0  0  0  0  0  0  0  0  0  0  0  0
    0.8832    3.2062   -0.3371 H   0  0  0  0  0  0  0  0  0  0  0  0
   -0.1507    3.3430    0.9817 H   0  0  0  0  0  0  0  0  0  0  0  0
    0.0006    1.4035   -0.0004 C   0  0  0  0  0  0  0  0  0  0  0  0
   -1.1971    0.6972    0.0003 C   0  0  0  0  0  0  0  0  0  0  0  0
   -2.0636    1.1877   -0.0005 H   0  0  0  0  0  0  0  0  0  0  0  0
   -1.2053   -0.6971    0.0000 C   0  0  0  0  0  0  0  0  0  0  0  0
   -2.0813   -1.1880    0.0019 H   0  0  0  0  0  0  0  0  0  0  0  0
   -0.0011   -1.3989   -0.0004 C   0  0  0  0  0  0  0  0  0  0  0  0
   -0.0062   -2.3956   -0.0014 H   0  0  0  0  0  0  0  0  0  0  0  0
    1.2053   -0.7013   -0.0000 C   0  0  0  0  0  0  0  0  0  0  0  0
    2.0838   -1.1958    0.0018 H   0  0  0  0  0  0  0  0  0  0  0  0
    1.1977    0.6964    0.0005 C   0  0  0  0  0  0  0  0  0  0  0  0
    2.0660    1.1911    0.0013 H   0  0  0  0  0  0  0  0  0  0  0  0
  1  5  1  0
  5  8  1  0
  1  2  1  0
  1  3  1  0
  1  4  1  0
  5  6  1  0
  5  7  1  0
  8  9  1  0
  8 10  1  0
  8 11  1  0
 12 16  1  0
 16 17  2  0
 17 19  1  0
 19 21  2  0
 21 23  1  0
 23 25  2  0
 25 16  1  0
 12 13  1  0
 12 14  1  0
 12 15  1  0
 17 18  1  0
 19 20  1  0
 21 22  1  0
 23 24  1  0
 25 26  1  0
M  CHG  1   8   1
M  END
>  <PDB_ID>  (2056) 
pdb3kv5

>  <RESIDUE_NAME>  (2056) 
LYS   PHE

>  <FRAG_NAME>  (2056) 
ETAM   MBZ

>  <FRAG_ATOM_NUM>  (2056) 
fragi: 11  fragj: 15

>  <atom.prop.CHAIN_ID>  (2056) 
A A A A A A A A A A A Z Z Z Z Z Z Z Z Z Z Z Z Z Z Z

>  <atom.prop.IS_HEAVY_ATOM>  (2056) 
1 0 0 0 1 0 0 1 0 0 0 1 0 0 0 1 1 0 1 0 1 0 1 0 1 0

>  <DIFUSE_FUNC_ATOM>  (2056) 
n/a

>  <FINAL_SINGLE_POINT_ENERGY>  (2056) 
0

>  <NONCOV_INTER_ENERGY_QM>  (2056) 
0

>  <FF_Energy>  (2056) 
36.84

>  <QM_Energy>  (2056) 
6.63

>  <source>  (2056) 
ETAM_MBZ

>  <Index>  (2056) 
21184

$$$$
ETAM-pdb4hny-A-LYS-549:MBZ-pdb4hny-A-PHE-681
     RDKit          3D

 26 25  0  0  0  0  0  0  0  0999 V2000
    1.2039    0.0799    3.7980 C   0  0  0  0  0  0  0  0  0  0  0  0
    1.3135    0.0704    2.8116 H   0  0  0  0  0  0  0  0  0  0  0  0
    2.0563   -0.1577    4.2483 H   0  0  0  0  0  0  0  0  0  0  0  0
    0.9053    1.0808    4.1100 H   0  0  0  0  0  0  0  0  0  0  0  0
    0.1497   -0.9501    4.1800 C   0  0  0  0  0  0  0  0  0  0  0  0
    0.1285   -1.0365    5.1831 H   0  0  0  0  0  0  0  0  0  0  0  0
   -0.7518   -0.6215    3.8729 H   0  0  0  0  0  0  0  0  0  0  0  0
    0.4084   -2.2902    3.5816 N   0  0  0  0  0  4  0  0  0  0  0  0
    1.2875   -2.2757    3.1053 H   0  0  0  0  0  0  0  0  0  0  0  0
    0.4314   -2.9778    4.3066 H   0  0  0  0  0  0  0  0  0  0  0  0
   -0.3213   -2.5096    2.9345 H   0  0  0  0  0  0  0  0  0  0  0  0
    0.0028    2.9163   -0.0030 C   0  0  0  0  0  0  0  0  0  0  0  0
    0.8845    3.2185   -0.3322 H   0  0  0  0  0  0  0  0  0  0  0  0
   -0.1618    3.2236    0.9220 H   0  0  0  0  0  0  0  0  0  0  0  0
   -0.7595    3.3641   -0.6406 H   0  0  0  0  0  0  0  0  0  0  0  0
   -0.0000    1.4041   -0.0001 C   0  0  0  0  0  0  0  0  0  0  0  0
   -1.1917    0.6931   -0.0001 C   0  0  0  0  0  0  0  0  0  0  0  0
   -2.0622    1.1784   -0.0010 H   0  0  0  0  0  0  0  0  0  0  0  0
   -1.1943   -0.7019    0.0000 C   0  0  0  0  0  0  0  0  0  0  0  0
   -2.0751   -1.1914   -0.0009 H   0  0  0  0  0  0  0  0  0  0  0  0
   -0.0012   -1.3936    0.0024 C   0  0  0  0  0  0  0  0  0  0  0  0
   -0.0002   -2.3931    0.0054 H   0  0  0  0  0  0  0  0  0  0  0  0
    1.1943   -0.6942   -0.0000 C   0  0  0  0  0  0  0  0  0  0  0  0
    2.0789   -1.1929    0.0017 H   0  0  0  0  0  0  0  0  0  0  0  0
    1.1929    0.6925   -0.0023 C   0  0  0  0  0  0  0  0  0  0  0  0
    2.0630    1.1878   -0.0062 H   0  0  0  0  0  0  0  0  0  0  0  0
  1  5  1  0
  5  8  1  0
  1  2  1  0
  1  3  1  0
  1  4  1  0
  5  6  1  0
  5  7  1  0
  8  9  1  0
  8 10  1  0
  8 11  1  0
 12 16  1  0
 16 17  2  0
 17 19  1  0
 19 21  2  0
 21 23  1  0
 23 25  2  0
 25 16  1  0
 12 13  1  0
 12 14  1  0
 12 15  1  0
 17 18  1  0
 19 20  1  0
 21 22  1  0
 23 24  1  0
 25 26  1  0
M  CHG  1   8   1
M  END
>  <PDB_ID>  (2057) 
pdb4hny

>  <RESIDUE_NAME>  (2057) 
LYS   PHE

>  <FRAG_NAME>  (2057) 
ETAM   MBZ

>  <FRAG_ATOM_NUM>  (2057) 
fragi: 11  fragj: 15

>  <atom.prop.CHAIN_ID>  (2057) 
A A A A A A A A A A A Z Z Z Z Z Z Z Z Z Z Z Z Z Z Z

>  <atom.prop.IS_HEAVY_ATOM>  (2057) 
1 0 0 0 1 0 0 1 0 0 0 1 0 0 0 1 1 0 1 0 1 0 1 0 1 0

>  <DIFUSE_FUNC_ATOM>  (2057) 
n/a

>  <FINAL_SINGLE_POINT_ENERGY>  (2057) 
0

>  <NONCOV_INTER_ENERGY_QM>  (2057) 
0

>  <FF_Energy>  (2057) 
-4.75

>  <QM_Energy>  (2057) 
-10.01

>  <source>  (2057) 
ETAM_MBZ

>  <Index>  (2057) 
21193

$$$$
ETAM-pdb3kxq-B-LYS-195:MBZ-pdb3kxq-B-PHE-191
     RDKit          3D

 26 25  0  0  0  0  0  0  0  0999 V2000
    1.0672   -2.1828    4.2998 C   0  0  0  0  0  0  0  0  0  0  0  0
    1.8132   -2.8545    4.4713 H   0  0  0  0  0  0  0  0  0  0  0  0
    0.5173   -2.1323    5.1549 H   0  0  0  0  0  0  0  0  0  0  0  0
    1.5014   -1.2056    4.0888 H   0  0  0  0  0  0  0  0  0  0  0  0
    0.1563   -2.7847    3.2108 C   0  0  0  0  0  0  0  0  0  0  0  0
    0.4719   -2.4697    2.3268 H   0  0  0  0  0  0  0  0  0  0  0  0
    0.2014   -3.7723    3.2729 H   0  0  0  0  0  0  0  0  0  0  0  0
   -1.2417   -2.3296    3.4379 N   0  0  0  0  0  4  0  0  0  0  0  0
   -1.7204   -2.9982    4.0059 H   0  0  0  0  0  0  0  0  0  0  0  0
   -1.2308   -1.4432    3.9009 H   0  0  0  0  0  0  0  0  0  0  0  0
   -1.7091   -2.2422    2.5583 H   0  0  0  0  0  0  0  0  0  0  0  0
   -0.0421    2.8580    0.0275 C   0  0  0  0  0  0  0  0  0  0  0  0
   -0.7906    3.1618   -0.5531 H   0  0  0  0  0  0  0  0  0  0  0  0
    0.8261    3.1939   -0.3245 H   0  0  0  0  0  0  0  0  0  0  0  0
   -0.1901    3.3037    1.0111 H   0  0  0  0  0  0  0  0  0  0  0  0
   -0.0119    1.3834    0.0236 C   0  0  0  0  0  0  0  0  0  0  0  0
   -1.1729    0.6842    0.0010 C   0  0  0  0  0  0  0  0  0  0  0  0
   -2.0567    1.1631   -0.0168 H   0  0  0  0  0  0  0  0  0  0  0  0
   -1.1772   -0.7033    0.0000 C   0  0  0  0  0  0  0  0  0  0  0  0
   -2.0659   -1.1852    0.0131 H   0  0  0  0  0  0  0  0  0  0  0  0
   -0.0100   -1.3656   -0.0167 C   0  0  0  0  0  0  0  0  0  0  0  0
   -0.0018   -2.3815   -0.0424 H   0  0  0  0  0  0  0  0  0  0  0  0
    1.1772   -0.6893   -0.0000 C   0  0  0  0  0  0  0  0  0  0  0  0
    2.0624   -1.1979    0.0197 H   0  0  0  0  0  0  0  0  0  0  0  0
    1.1948    0.6906   -0.0079 C   0  0  0  0  0  0  0  0  0  0  0  0
    2.0514    1.1857   -0.0363 H   0  0  0  0  0  0  0  0  0  0  0  0
  1  5  1  0
  5  8  1  0
  1  2  1  0
  1  3  1  0
  1  4  1  0
  5  6  1  0
  5  7  1  0
  8  9  1  0
  8 10  1  0
  8 11  1  0
 12 16  1  0
 16 17  2  0
 17 19  1  0
 19 21  2  0
 21 23  1  0
 23 25  2  0
 25 16  1  0
 12 13  1  0
 12 14  1  0
 12 15  1  0
 17 18  1  0
 19 20  1  0
 21 22  1  0
 23 24  1  0
 25 26  1  0
M  CHG  1   8   1
M  END
>  <PDB_ID>  (2058) 
pdb3kxq

>  <RESIDUE_NAME>  (2058) 
LYS   PHE

>  <FRAG_NAME>  (2058) 
ETAM   MBZ

>  <FRAG_ATOM_NUM>  (2058) 
fragi: 11  fragj: 15

>  <atom.prop.CHAIN_ID>  (2058) 
A A A A A A A A A A A Z Z Z Z Z Z Z Z Z Z Z Z Z Z Z

>  <atom.prop.IS_HEAVY_ATOM>  (2058) 
1 0 0 0 1 0 0 1 0 0 0 1 0 0 0 1 1 0 1 0 1 0 1 0 1 0

>  <DIFUSE_FUNC_ATOM>  (2058) 
n/a

>  <FINAL_SINGLE_POINT_ENERGY>  (2058) 
0

>  <NONCOV_INTER_ENERGY_QM>  (2058) 
0

>  <FF_Energy>  (2058) 
-3.29

>  <QM_Energy>  (2058) 
-8.65

>  <source>  (2058) 
ETAM_MBZ

>  <Index>  (2058) 
21211

$$$$
ETAM-pdb4hl7-A-LYS-163:MBZ-pdb4hl7-A-PHE-352
     RDKit          3D

 26 25  0  0  0  0  0  0  0  0999 V2000
    0.6038   -2.6690   -2.9425 C   0  0  0  0  0  0  0  0  0  0  0  0
    0.4672   -2.5364   -1.9499 H   0  0  0  0  0  0  0  0  0  0  0  0
    1.5685   -2.4583   -3.1539 H   0  0  0  0  0  0  0  0  0  0  0  0
    0.4363   -3.7232   -3.1631 H   0  0  0  0  0  0  0  0  0  0  0  0
   -0.2797   -1.7315   -3.6901 C   0  0  0  0  0  0  0  0  0  0  0  0
   -0.2209   -1.8839   -4.6515 H   0  0  0  0  0  0  0  0  0  0  0  0
   -1.1930   -1.7582   -3.3464 H   0  0  0  0  0  0  0  0  0  0  0  0
    0.2822   -0.3140   -3.4083 N   0  0  0  0  0  4  0  0  0  0  0  0
    1.1469   -0.2336   -3.8826 H   0  0  0  0  0  0  0  0  0  0  0  0
   -0.3753    0.3425   -3.7492 H   0  0  0  0  0  0  0  0  0  0  0  0
    0.4010   -0.2272   -2.4300 H   0  0  0  0  0  0  0  0  0  0  0  0
   -0.0073    2.9070    0.0487 C   0  0  0  0  0  0  0  0  0  0  0  0
    0.7630    3.1900    0.6099 H   0  0  0  0  0  0  0  0  0  0  0  0
   -0.8640    3.1900    0.4668 H   0  0  0  0  0  0  0  0  0  0  0  0
    0.0778    3.4020   -0.9187 H   0  0  0  0  0  0  0  0  0  0  0  0
   -0.0022    1.4054   -0.0114 C   0  0  0  0  0  0  0  0  0  0  0  0
   -1.1903    0.7015   -0.0060 C   0  0  0  0  0  0  0  0  0  0  0  0
   -2.0613    1.1919   -0.0075 H   0  0  0  0  0  0  0  0  0  0  0  0
   -1.1999   -0.6868    0.0000 C   0  0  0  0  0  0  0  0  0  0  0  0
   -2.0890   -1.1717   -0.0096 H   0  0  0  0  0  0  0  0  0  0  0  0
   -0.0203   -1.3894    0.0199 C   0  0  0  0  0  0  0  0  0  0  0  0
   -0.0296   -2.3924    0.0481 H   0  0  0  0  0  0  0  0  0  0  0  0
    1.1999   -0.7144    0.0000 C   0  0  0  0  0  0  0  0  0  0  0  0
    2.0680   -1.2233   -0.0115 H   0  0  0  0  0  0  0  0  0  0  0  0
    1.2128    0.6836   -0.0024 C   0  0  0  0  0  0  0  0  0  0  0  0
    2.0730    1.1757    0.0012 H   0  0  0  0  0  0  0  0  0  0  0  0
  1  5  1  0
  5  8  1  0
  1  2  1  0
  1  3  1  0
  1  4  1  0
  5  6  1  0
  5  7  1  0
  8  9  1  0
  8 10  1  0
  8 11  1  0
 12 16  1  0
 16 17  2  0
 17 19  1  0
 19 21  2  0
 21 23  1  0
 23 25  2  0
 25 16  1  0
 12 13  1  0
 12 14  1  0
 12 15  1  0
 17 18  1  0
 19 20  1  0
 21 22  1  0
 23 24  1  0
 25 26  1  0
M  CHG  1   8   1
M  END
>  <PDB_ID>  (2059) 
pdb4hl7

>  <RESIDUE_NAME>  (2059) 
LYS   PHE

>  <FRAG_NAME>  (2059) 
ETAM   MBZ

>  <FRAG_ATOM_NUM>  (2059) 
fragi: 11  fragj: 15

>  <atom.prop.CHAIN_ID>  (2059) 
A A A A A A A A A A A Z Z Z Z Z Z Z Z Z Z Z Z Z Z Z

>  <atom.prop.IS_HEAVY_ATOM>  (2059) 
1 0 0 0 1 0 0 1 0 0 0 1 0 0 0 1 1 0 1 0 1 0 1 0 1 0

>  <DIFUSE_FUNC_ATOM>  (2059) 
n/a

>  <FINAL_SINGLE_POINT_ENERGY>  (2059) 
0

>  <NONCOV_INTER_ENERGY_QM>  (2059) 
0

>  <FF_Energy>  (2059) 
-5.88

>  <QM_Energy>  (2059) 
-14.24

>  <source>  (2059) 
ETAM_MBZ

>  <Index>  (2059) 
21215

$$$$
ETAM-pdb4hkx-E-LYS-172:MBZ-pdb4hkx-E-PHE-118
     RDKit          3D

 26 25  0  0  0  0  0  0  0  0999 V2000
   -1.1603   -0.3336    4.0316 C   0  0  0  0  0  0  0  0  0  0  0  0
   -1.5843   -0.4332    3.1326 H   0  0  0  0  0  0  0  0  0  0  0  0
   -1.8635   -0.1366    4.7136 H   0  0  0  0  0  0  0  0  0  0  0  0
   -0.6720   -1.2723    4.2934 H   0  0  0  0  0  0  0  0  0  0  0  0
   -0.1901    0.8285    3.9845 C   0  0  0  0  0  0  0  0  0  0  0  0
   -0.6353    1.6109    3.5461 H   0  0  0  0  0  0  0  0  0  0  0  0
    0.0705    1.0767    4.9185 H   0  0  0  0  0  0  0  0  0  0  0  0
    1.0372    0.4735    3.2154 N   0  0  0  0  0  4  0  0  0  0  0  0
    1.8299    0.5138    3.8222 H   0  0  0  0  0  0  0  0  0  0  0  0
    0.9410   -0.4510    2.8493 H   0  0  0  0  0  0  0  0  0  0  0  0
    1.1551    1.1223    2.4643 H   0  0  0  0  0  0  0  0  0  0  0  0
    0.0112    2.9128    0.0136 C   0  0  0  0  0  0  0  0  0  0  0  0
    0.8949    3.2116    0.3407 H   0  0  0  0  0  0  0  0  0  0  0  0
   -0.7150    3.2165    0.6125 H   0  0  0  0  0  0  0  0  0  0  0  0
   -0.1522    3.3751   -0.9599 H   0  0  0  0  0  0  0  0  0  0  0  0
    0.0037    1.4033   -0.0038 C   0  0  0  0  0  0  0  0  0  0  0  0
   -1.2018    0.6980    0.0041 C   0  0  0  0  0  0  0  0  0  0  0  0
   -2.0641    1.1909    0.0117 H   0  0  0  0  0  0  0  0  0  0  0  0
   -1.2108   -0.6979    0.0000 C   0  0  0  0  0  0  0  0  0  0  0  0
   -2.0851   -1.1890    0.0005 H   0  0  0  0  0  0  0  0  0  0  0  0
   -0.0034   -1.4003   -0.0033 C   0  0  0  0  0  0  0  0  0  0  0  0
   -0.0034   -2.3932   -0.0089 H   0  0  0  0  0  0  0  0  0  0  0  0
    1.2108   -0.6938   -0.0000 C   0  0  0  0  0  0  0  0  0  0  0  0
    2.0860   -1.1975    0.0013 H   0  0  0  0  0  0  0  0  0  0  0  0
    1.2015    0.6908    0.0029 C   0  0  0  0  0  0  0  0  0  0  0  0
    2.0698    1.1927    0.0096 H   0  0  0  0  0  0  0  0  0  0  0  0
  1  5  1  0
  5  8  1  0
  1  2  1  0
  1  3  1  0
  1  4  1  0
  5  6  1  0
  5  7  1  0
  8  9  1  0
  8 10  1  0
  8 11  1  0
 12 16  1  0
 16 17  2  0
 17 19  1  0
 19 21  2  0
 21 23  1  0
 23 25  2  0
 25 16  1  0
 12 13  1  0
 12 14  1  0
 12 15  1  0
 17 18  1  0
 19 20  1  0
 21 22  1  0
 23 24  1  0
 25 26  1  0
M  CHG  1   8   1
M  END
>  <PDB_ID>  (2060) 
pdb4hkx

>  <RESIDUE_NAME>  (2060) 
LYS   PHE

>  <FRAG_NAME>  (2060) 
ETAM   MBZ

>  <FRAG_ATOM_NUM>  (2060) 
fragi: 11  fragj: 15

>  <atom.prop.CHAIN_ID>  (2060) 
A A A A A A A A A A A Z Z Z Z Z Z Z Z Z Z Z Z Z Z Z

>  <atom.prop.IS_HEAVY_ATOM>  (2060) 
1 0 0 0 1 0 0 1 0 0 0 1 0 0 0 1 1 0 1 0 1 0 1 0 1 0

>  <DIFUSE_FUNC_ATOM>  (2060) 
n/a

>  <FINAL_SINGLE_POINT_ENERGY>  (2060) 
0

>  <NONCOV_INTER_ENERGY_QM>  (2060) 
0

>  <FF_Energy>  (2060) 
-8.48

>  <QM_Energy>  (2060) 
-15.06

>  <source>  (2060) 
ETAM_MBZ

>  <Index>  (2060) 
21249

$$$$
ETAM-pdb3kzh-A-LYS-130:MBZ-pdb3kzh-A-PHE-126
     RDKit          3D

 26 25  0  0  0  0  0  0  0  0999 V2000
    0.6739   -2.6803    4.4540 C   0  0  0  0  0  0  0  0  0  0  0  0
    1.3474   -3.3526    4.7511 H   0  0  0  0  0  0  0  0  0  0  0  0
    0.1298   -2.3766    5.2315 H   0  0  0  0  0  0  0  0  0  0  0  0
    1.1969   -1.8215    4.0332 H   0  0  0  0  0  0  0  0  0  0  0  0
   -0.2415   -3.3235    3.4406 C   0  0  0  0  0  0  0  0  0  0  0  0
    0.3196   -3.7596    2.7219 H   0  0  0  0  0  0  0  0  0  0  0  0
   -0.7774   -4.0497    3.8954 H   0  0  0  0  0  0  0  0  0  0  0  0
   -1.1742   -2.3613    2.8077 N   0  0  0  0  0  4  0  0  0  0  0  0
   -2.0928   -2.7568    2.7768 H   0  0  0  0  0  0  0  0  0  0  0  0
   -1.1938   -1.5143    3.3407 H   0  0  0  0  0  0  0  0  0  0  0  0
   -0.8672   -2.1610    1.8769 H   0  0  0  0  0  0  0  0  0  0  0  0
   -0.0057    2.9286    0.1287 C   0  0  0  0  0  0  0  0  0  0  0  0
   -0.7728    3.2779   -0.3832 H   0  0  0  0  0  0  0  0  0  0  0  0
    0.8510    3.2701   -0.2200 H   0  0  0  0  0  0  0  0  0  0  0  0
   -0.1070    3.2799    1.1554 H   0  0  0  0  0  0  0  0  0  0  0  0
    0.0003    1.4256   -0.0017 C   0  0  0  0  0  0  0  0  0  0  0  0
   -1.2128    0.7109   -0.0032 C   0  0  0  0  0  0  0  0  0  0  0  0
   -2.0748    1.1959   -0.0084 H   0  0  0  0  0  0  0  0  0  0  0  0
   -1.2240   -0.7088    0.0000 C   0  0  0  0  0  0  0  0  0  0  0  0
   -2.0935   -1.1930   -0.0037 H   0  0  0  0  0  0  0  0  0  0  0  0
   -0.0022   -1.4170    0.0097 C   0  0  0  0  0  0  0  0  0  0  0  0
   -0.0087   -2.4099    0.0229 H   0  0  0  0  0  0  0  0  0  0  0  0
    1.2240   -0.7147   -0.0000 C   0  0  0  0  0  0  0  0  0  0  0  0
    2.0954   -1.2058   -0.0023 H   0  0  0  0  0  0  0  0  0  0  0  0
    1.2147    0.7040   -0.0048 C   0  0  0  0  0  0  0  0  0  0  0  0
    2.0787    1.1963   -0.0113 H   0  0  0  0  0  0  0  0  0  0  0  0
  1  5  1  0
  5  8  1  0
  1  2  1  0
  1  3  1  0
  1  4  1  0
  5  6  1  0
  5  7  1  0
  8  9  1  0
  8 10  1  0
  8 11  1  0
 12 16  1  0
 16 17  2  0
 17 19  1  0
 19 21  2  0
 21 23  1  0
 23 25  2  0
 25 16  1  0
 12 13  1  0
 12 14  1  0
 12 15  1  0
 17 18  1  0
 19 20  1  0
 21 22  1  0
 23 24  1  0
 25 26  1  0
M  CHG  1   8   1
M  END
>  <PDB_ID>  (2061) 
pdb3kzh

>  <RESIDUE_NAME>  (2061) 
LYS   PHE

>  <FRAG_NAME>  (2061) 
ETAM   MBZ

>  <FRAG_ATOM_NUM>  (2061) 
fragi: 11  fragj: 15

>  <atom.prop.CHAIN_ID>  (2061) 
A A A A A A A A A A A Z Z Z Z Z Z Z Z Z Z Z Z Z Z Z

>  <atom.prop.IS_HEAVY_ATOM>  (2061) 
1 0 0 0 1 0 0 1 0 0 0 1 0 0 0 1 1 0 1 0 1 0 1 0 1 0

>  <DIFUSE_FUNC_ATOM>  (2061) 
n/a

>  <FINAL_SINGLE_POINT_ENERGY>  (2061) 
0

>  <NONCOV_INTER_ENERGY_QM>  (2061) 
0

>  <FF_Energy>  (2061) 
-3.6

>  <QM_Energy>  (2061) 
-11.87

>  <source>  (2061) 
ETAM_MBZ

>  <Index>  (2061) 
21284

$$$$
ETAM-pdb3kzv-A-LYS-210:MBZ-pdb3kzv-A-PHE-206
     RDKit          3D

 26 25  0  0  0  0  0  0  0  0999 V2000
   -0.8779   -2.3366    3.5071 C   0  0  0  0  0  0  0  0  0  0  0  0
   -1.2194   -3.1828    3.1126 H   0  0  0  0  0  0  0  0  0  0  0  0
   -0.9096   -1.6028    2.8367 H   0  0  0  0  0  0  0  0  0  0  0  0
   -1.5037   -2.0656    4.3575 H   0  0  0  0  0  0  0  0  0  0  0  0
    0.5664   -2.5468    3.9287 C   0  0  0  0  0  0  0  0  0  0  0  0
    0.6239   -2.4975    4.9297 H   0  0  0  0  0  0  0  0  0  0  0  0
    0.8636   -3.4592    3.6326 H   0  0  0  0  0  0  0  0  0  0  0  0
    1.4726   -1.5238    3.3368 N   0  0  0  0  0  4  0  0  0  0  0  0
    2.2489   -1.3761    3.9481 H   0  0  0  0  0  0  0  0  0  0  0  0
    1.8008   -1.8460    2.4499 H   0  0  0  0  0  0  0  0  0  0  0  0
    0.9720   -0.6672    3.2183 H   0  0  0  0  0  0  0  0  0  0  0  0
    0.0044    2.8634   -0.0221 C   0  0  0  0  0  0  0  0  0  0  0  0
   -0.3355    3.1560   -0.9099 H   0  0  0  0  0  0  0  0  0  0  0  0
    0.9406    3.1721    0.1082 H   0  0  0  0  0  0  0  0  0  0  0  0
   -0.6105    3.3395    0.7417 H   0  0  0  0  0  0  0  0  0  0  0  0
    0.0009    1.3691    0.0061 C   0  0  0  0  0  0  0  0  0  0  0  0
   -1.1478    0.6696    0.0070 C   0  0  0  0  0  0  0  0  0  0  0  0
   -2.0347    1.1554    0.0111 H   0  0  0  0  0  0  0  0  0  0  0  0
   -1.1418   -0.6827   -0.0000 C   0  0  0  0  0  0  0  0  0  0  0  0
   -2.0481   -1.1723   -0.0037 H   0  0  0  0  0  0  0  0  0  0  0  0
   -0.0126   -1.3416   -0.0006 C   0  0  0  0  0  0  0  0  0  0  0  0
   -0.0095   -2.3647   -0.0022 H   0  0  0  0  0  0  0  0  0  0  0  0
    1.1418   -0.6801    0.0000 C   0  0  0  0  0  0  0  0  0  0  0  0
    2.0397   -1.1926    0.0116 H   0  0  0  0  0  0  0  0  0  0  0  0
    1.1596    0.6657   -0.0125 C   0  0  0  0  0  0  0  0  0  0  0  0
    2.0410    1.1597   -0.0369 H   0  0  0  0  0  0  0  0  0  0  0  0
  1  5  1  0
  5  8  1  0
  1  2  1  0
  1  3  1  0
  1  4  1  0
  5  6  1  0
  5  7  1  0
  8  9  1  0
  8 10  1  0
  8 11  1  0
 12 16  1  0
 16 17  2  0
 17 19  1  0
 19 21  2  0
 21 23  1  0
 23 25  2  0
 25 16  1  0
 12 13  1  0
 12 14  1  0
 12 15  1  0
 17 18  1  0
 19 20  1  0
 21 22  1  0
 23 24  1  0
 25 26  1  0
M  CHG  1   8   1
M  END
>  <PDB_ID>  (2062) 
pdb3kzv

>  <RESIDUE_NAME>  (2062) 
LYS   PHE

>  <FRAG_NAME>  (2062) 
ETAM   MBZ

>  <FRAG_ATOM_NUM>  (2062) 
fragi: 11  fragj: 15

>  <atom.prop.CHAIN_ID>  (2062) 
A A A A A A A A A A A Z Z Z Z Z Z Z Z Z Z Z Z Z Z Z

>  <atom.prop.IS_HEAVY_ATOM>  (2062) 
1 0 0 0 1 0 0 1 0 0 0 1 0 0 0 1 1 0 1 0 1 0 1 0 1 0

>  <DIFUSE_FUNC_ATOM>  (2062) 
n/a

>  <FINAL_SINGLE_POINT_ENERGY>  (2062) 
0

>  <NONCOV_INTER_ENERGY_QM>  (2062) 
0

>  <FF_Energy>  (2062) 
-5.24

>  <QM_Energy>  (2062) 
-10.5

>  <source>  (2062) 
ETAM_MBZ

>  <Index>  (2062) 
21291

$$$$
ETAM-pdb3kzv-A-LYS-45:MBZ-pdb3kzv-A-PHE-53
     RDKit          3D

 26 25  0  0  0  0  0  0  0  0999 V2000
   -2.7130    1.6738   -4.6946 C   0  0  0  0  0  0  0  0  0  0  0  0
   -1.7337    1.6883   -4.8402 H   0  0  0  0  0  0  0  0  0  0  0  0
   -3.0273    2.5257   -4.3018 H   0  0  0  0  0  0  0  0  0  0  0  0
   -3.2028    1.5365   -5.6587 H   0  0  0  0  0  0  0  0  0  0  0  0
   -3.0520    0.5327   -3.7321 C   0  0  0  0  0  0  0  0  0  0  0  0
   -3.1269    0.8927   -2.8307 H   0  0  0  0  0  0  0  0  0  0  0  0
   -3.8579    0.0844   -4.0459 H   0  0  0  0  0  0  0  0  0  0  0  0
   -1.8941   -0.3783   -3.8235 N   0  0  0  0  0  4  0  0  0  0  0  0
   -2.1433   -1.1891   -4.3565 H   0  0  0  0  0  0  0  0  0  0  0  0
   -1.1305    0.0898   -4.2729 H   0  0  0  0  0  0  0  0  0  0  0  0
   -1.6130   -0.6608   -2.9041 H   0  0  0  0  0  0  0  0  0  0  0  0
   -0.0035    2.9392   -0.0447 C   0  0  0  0  0  0  0  0  0  0  0  0
    0.8414    3.2480    0.3327 H   0  0  0  0  0  0  0  0  0  0  0  0
   -0.7880    3.2580    0.4404 H   0  0  0  0  0  0  0  0  0  0  0  0
   -0.0692    3.3010   -1.0707 H   0  0  0  0  0  0  0  0  0  0  0  0
   -0.0090    1.4087    0.0171 C   0  0  0  0  0  0  0  0  0  0  0  0
   -1.2096    0.7086   -0.0187 C   0  0  0  0  0  0  0  0  0  0  0  0
   -2.0707    1.2034   -0.0594 H   0  0  0  0  0  0  0  0  0  0  0  0
   -1.2116   -0.6724   -0.0000 C   0  0  0  0  0  0  0  0  0  0  0  0
   -2.0773   -1.1843    0.0194 H   0  0  0  0  0  0  0  0  0  0  0  0
    0.0229   -1.4098   -0.0057 C   0  0  0  0  0  0  0  0  0  0  0  0
   -0.0203   -2.3989   -0.0145 H   0  0  0  0  0  0  0  0  0  0  0  0
    1.2116   -0.7264    0.0000 C   0  0  0  0  0  0  0  0  0  0  0  0
    2.0988   -1.2008    0.0004 H   0  0  0  0  0  0  0  0  0  0  0  0
    1.1958    0.6912    0.0073 C   0  0  0  0  0  0  0  0  0  0  0  0
    2.0649    1.1826    0.0043 H   0  0  0  0  0  0  0  0  0  0  0  0
  1  5  1  0
  5  8  1  0
  1  2  1  0
  1  3  1  0
  1  4  1  0
  5  6  1  0
  5  7  1  0
  8  9  1  0
  8 10  1  0
  8 11  1  0
 12 16  1  0
 16 17  2  0
 17 19  1  0
 19 21  2  0
 21 23  1  0
 23 25  2  0
 25 16  1  0
 12 13  1  0
 12 14  1  0
 12 15  1  0
 17 18  1  0
 19 20  1  0
 21 22  1  0
 23 24  1  0
 25 26  1  0
M  CHG  1   8   1
M  END
>  <PDB_ID>  (2063) 
pdb3kzv

>  <RESIDUE_NAME>  (2063) 
LYS   PHE

>  <FRAG_NAME>  (2063) 
ETAM   MBZ

>  <FRAG_ATOM_NUM>  (2063) 
fragi: 11  fragj: 15

>  <atom.prop.CHAIN_ID>  (2063) 
A A A A A A A A A A A Z Z Z Z Z Z Z Z Z Z Z Z Z Z Z

>  <atom.prop.IS_HEAVY_ATOM>  (2063) 
1 0 0 0 1 0 0 1 0 0 0 1 0 0 0 1 1 0 1 0 1 0 1 0 1 0

>  <DIFUSE_FUNC_ATOM>  (2063) 
n/a

>  <FINAL_SINGLE_POINT_ENERGY>  (2063) 
0

>  <NONCOV_INTER_ENERGY_QM>  (2063) 
0

>  <FF_Energy>  (2063) 
-4.5

>  <QM_Energy>  (2063) 
-9.55

>  <source>  (2063) 
ETAM_MBZ

>  <Index>  (2063) 
21295

$$$$
ETAM-pdb4hl7-B-LYS-163:MBZ-pdb4hl7-B-PHE-352
     RDKit          3D

 26 25  0  0  0  0  0  0  0  0999 V2000
   -0.1028   -2.7030   -2.6942 C   0  0  0  0  0  0  0  0  0  0  0  0
   -0.9365   -2.4569   -2.1977 H   0  0  0  0  0  0  0  0  0  0  0  0
    0.6849   -2.6174   -2.0816 H   0  0  0  0  0  0  0  0  0  0  0  0
   -0.1853   -3.7471   -2.9957 H   0  0  0  0  0  0  0  0  0  0  0  0
    0.0723   -1.7771   -3.8576 C   0  0  0  0  0  0  0  0  0  0  0  0
    0.8963   -2.0342   -4.3749 H   0  0  0  0  0  0  0  0  0  0  0  0
   -0.7222   -1.8487   -4.4718 H   0  0  0  0  0  0  0  0  0  0  0  0
    0.2114   -0.3404   -3.4302 N   0  0  0  0  0  4  0  0  0  0  0  0
   -0.2507    0.2412   -4.0957 H   0  0  0  0  0  0  0  0  0  0  0  0
   -0.2055   -0.2290   -2.5318 H   0  0  0  0  0  0  0  0  0  0  0  0
    1.1798   -0.1086   -3.3884 H   0  0  0  0  0  0  0  0  0  0  0  0
    0.0001    2.8807   -0.0011 C   0  0  0  0  0  0  0  0  0  0  0  0
    0.6724    3.1924    0.6562 H   0  0  0  0  0  0  0  0  0  0  0  0
   -0.9076    3.1923    0.2438 H   0  0  0  0  0  0  0  0  0  0  0  0
    0.2513    3.3223   -0.9654 H   0  0  0  0  0  0  0  0  0  0  0  0
    0.0018    1.3954   -0.0051 C   0  0  0  0  0  0  0  0  0  0  0  0
   -1.1992    0.6881   -0.0045 C   0  0  0  0  0  0  0  0  0  0  0  0
   -2.0632    1.1838   -0.0081 H   0  0  0  0  0  0  0  0  0  0  0  0
   -1.2063   -0.6977   -0.0000 C   0  0  0  0  0  0  0  0  0  0  0  0
   -2.0816   -1.1934    0.0037 H   0  0  0  0  0  0  0  0  0  0  0  0
   -0.0039   -1.3907    0.0016 C   0  0  0  0  0  0  0  0  0  0  0  0
   -0.0022   -2.3888    0.0035 H   0  0  0  0  0  0  0  0  0  0  0  0
    1.2063   -0.6897    0.0000 C   0  0  0  0  0  0  0  0  0  0  0  0
    2.0830   -1.1935   -0.0057 H   0  0  0  0  0  0  0  0  0  0  0  0
    1.2013    0.6945    0.0080 C   0  0  0  0  0  0  0  0  0  0  0  0
    2.0657    1.1953    0.0224 H   0  0  0  0  0  0  0  0  0  0  0  0
  1  5  1  0
  5  8  1  0
  1  2  1  0
  1  3  1  0
  1  4  1  0
  5  6  1  0
  5  7  1  0
  8  9  1  0
  8 10  1  0
  8 11  1  0
 12 16  1  0
 16 17  2  0
 17 19  1  0
 19 21  2  0
 21 23  1  0
 23 25  2  0
 25 16  1  0
 12 13  1  0
 12 14  1  0
 12 15  1  0
 17 18  1  0
 19 20  1  0
 21 22  1  0
 23 24  1  0
 25 26  1  0
M  CHG  1   8   1
M  END
>  <PDB_ID>  (2064) 
pdb4hl7

>  <RESIDUE_NAME>  (2064) 
LYS   PHE

>  <FRAG_NAME>  (2064) 
ETAM   MBZ

>  <FRAG_ATOM_NUM>  (2064) 
fragi: 11  fragj: 15

>  <atom.prop.CHAIN_ID>  (2064) 
A A A A A A A A A A A Z Z Z Z Z Z Z Z Z Z Z Z Z Z Z

>  <atom.prop.IS_HEAVY_ATOM>  (2064) 
1 0 0 0 1 0 0 1 0 0 0 1 0 0 0 1 1 0 1 0 1 0 1 0 1 0

>  <DIFUSE_FUNC_ATOM>  (2064) 
n/a

>  <FINAL_SINGLE_POINT_ENERGY>  (2064) 
0

>  <NONCOV_INTER_ENERGY_QM>  (2064) 
0

>  <FF_Energy>  (2064) 
-5.17

>  <QM_Energy>  (2064) 
-12.2

>  <source>  (2064) 
ETAM_MBZ

>  <Index>  (2064) 
21299

$$$$
ETAM-pdb3l0r-A-LYS-80:MBZ-pdb3l0r-A-PHE-34
     RDKit          3D

 26 25  0  0  0  0  0  0  0  0999 V2000
    0.6313    0.5522    5.0909 C   0  0  0  0  0  0  0  0  0  0  0  0
    1.1404    1.3932    5.2561 H   0  0  0  0  0  0  0  0  0  0  0  0
    1.1236   -0.2252    5.4735 H   0  0  0  0  0  0  0  0  0  0  0  0
   -0.3386    0.6290    5.5823 H   0  0  0  0  0  0  0  0  0  0  0  0
    0.5011    0.3506    3.5853 C   0  0  0  0  0  0  0  0  0  0  0  0
   -0.3167    0.8357    3.2634 H   0  0  0  0  0  0  0  0  0  0  0  0
    1.3076    0.7436    3.1354 H   0  0  0  0  0  0  0  0  0  0  0  0
    0.3909   -1.0894    3.2229 N   0  0  0  0  0  4  0  0  0  0  0  0
    0.9811   -1.2798    2.4388 H   0  0  0  0  0  0  0  0  0  0  0  0
    0.6752   -1.6495    3.9998 H   0  0  0  0  0  0  0  0  0  0  0  0
   -0.5578   -1.2997    2.9877 H   0  0  0  0  0  0  0  0  0  0  0  0
   -0.0085    2.8983   -0.0026 C   0  0  0  0  0  0  0  0  0  0  0  0
    0.8098    3.2196    0.4480 H   0  0  0  0  0  0  0  0  0  0  0  0
   -0.8222    3.2104    0.4624 H   0  0  0  0  0  0  0  0  0  0  0  0
   -0.0200    3.3268   -1.0049 H   0  0  0  0  0  0  0  0  0  0  0  0
   -0.0002    1.4121    0.0045 C   0  0  0  0  0  0  0  0  0  0  0  0
   -1.2015    0.6985    0.0028 C   0  0  0  0  0  0  0  0  0  0  0  0
   -2.0688    1.1853    0.0017 H   0  0  0  0  0  0  0  0  0  0  0  0
   -1.2136   -0.7097   -0.0000 C   0  0  0  0  0  0  0  0  0  0  0  0
   -2.0885   -1.1939    0.0006 H   0  0  0  0  0  0  0  0  0  0  0  0
   -0.0047   -1.4124   -0.0018 C   0  0  0  0  0  0  0  0  0  0  0  0
   -0.0006   -2.4027   -0.0050 H   0  0  0  0  0  0  0  0  0  0  0  0
    1.2136   -0.6981    0.0000 C   0  0  0  0  0  0  0  0  0  0  0  0
    2.0901   -1.1933    0.0067 H   0  0  0  0  0  0  0  0  0  0  0  0
    1.2064    0.7096   -0.0055 C   0  0  0  0  0  0  0  0  0  0  0  0
    2.0697    1.2023   -0.0178 H   0  0  0  0  0  0  0  0  0  0  0  0
  1  5  1  0
  5  8  1  0
  1  2  1  0
  1  3  1  0
  1  4  1  0
  5  6  1  0
  5  7  1  0
  8  9  1  0
  8 10  1  0
  8 11  1  0
 12 16  1  0
 16 17  2  0
 17 19  1  0
 19 21  2  0
 21 23  1  0
 23 25  2  0
 25 16  1  0
 12 13  1  0
 12 14  1  0
 12 15  1  0
 17 18  1  0
 19 20  1  0
 21 22  1  0
 23 24  1  0
 25 26  1  0
M  CHG  1   8   1
M  END
>  <PDB_ID>  (2065) 
pdb3l0r

>  <RESIDUE_NAME>  (2065) 
LYS   PHE

>  <FRAG_NAME>  (2065) 
ETAM   MBZ

>  <FRAG_ATOM_NUM>  (2065) 
fragi: 11  fragj: 15

>  <atom.prop.CHAIN_ID>  (2065) 
A A A A A A A A A A A Z Z Z Z Z Z Z Z Z Z Z Z Z Z Z

>  <atom.prop.IS_HEAVY_ATOM>  (2065) 
1 0 0 0 1 0 0 1 0 0 0 1 0 0 0 1 1 0 1 0 1 0 1 0 1 0

>  <DIFUSE_FUNC_ATOM>  (2065) 
n/a

>  <FINAL_SINGLE_POINT_ENERGY>  (2065) 
0

>  <NONCOV_INTER_ENERGY_QM>  (2065) 
0

>  <FF_Energy>  (2065) 
-7.89

>  <QM_Energy>  (2065) 
-15.4

>  <source>  (2065) 
ETAM_MBZ

>  <Index>  (2065) 
21300

$$$$
ETAM-pdb3l0r-B-LYS-80:MBZ-pdb3l0r-B-PHE-34
     RDKit          3D

 26 25  0  0  0  0  0  0  0  0999 V2000
    0.5634    0.1722    5.1071 C   0  0  0  0  0  0  0  0  0  0  0  0
    0.8336    1.1177    4.9509 H   0  0  0  0  0  0  0  0  0  0  0  0
    1.2089   -0.2733    5.7198 H   0  0  0  0  0  0  0  0  0  0  0  0
   -0.4149    0.1746    5.5876 H   0  0  0  0  0  0  0  0  0  0  0  0
    0.5401   -0.5620    3.7907 C   0  0  0  0  0  0  0  0  0  0  0  0
    1.4412   -0.5190    3.3766 H   0  0  0  0  0  0  0  0  0  0  0  0
    0.2719   -1.5054    3.9470 H   0  0  0  0  0  0  0  0  0  0  0  0
   -0.4420    0.0929    2.9103 N   0  0  0  0  0  4  0  0  0  0  0  0
    0.0310    0.5427    2.1500 H   0  0  0  0  0  0  0  0  0  0  0  0
   -1.0775   -0.5897    2.5439 H   0  0  0  0  0  0  0  0  0  0  0  0
   -0.9578    0.7780    3.4284 H   0  0  0  0  0  0  0  0  0  0  0  0
   -0.0017    2.8950   -0.0036 C   0  0  0  0  0  0  0  0  0  0  0  0
    0.8471    3.2072    0.3996 H   0  0  0  0  0  0  0  0  0  0  0  0
   -0.7816    3.2039    0.5216 H   0  0  0  0  0  0  0  0  0  0  0  0
   -0.0772    3.3363   -0.9974 H   0  0  0  0  0  0  0  0  0  0  0  0
    0.0014    1.4004   -0.0028 C   0  0  0  0  0  0  0  0  0  0  0  0
   -1.1975    0.6912   -0.0005 C   0  0  0  0  0  0  0  0  0  0  0  0
   -2.0631    1.1869   -0.0004 H   0  0  0  0  0  0  0  0  0  0  0  0
   -1.2078   -0.6955   -0.0000 C   0  0  0  0  0  0  0  0  0  0  0  0
   -2.0823   -1.1897    0.0007 H   0  0  0  0  0  0  0  0  0  0  0  0
   -0.0041   -1.3940    0.0010 C   0  0  0  0  0  0  0  0  0  0  0  0
   -0.0081   -2.3925    0.0020 H   0  0  0  0  0  0  0  0  0  0  0  0
    1.2078   -0.6990   -0.0000 C   0  0  0  0  0  0  0  0  0  0  0  0
    2.0833   -1.1970   -0.0007 H   0  0  0  0  0  0  0  0  0  0  0  0
    1.2002    0.6970    0.0024 C   0  0  0  0  0  0  0  0  0  0  0  0
    2.0669    1.1930    0.0066 H   0  0  0  0  0  0  0  0  0  0  0  0
  1  5  1  0
  5  8  1  0
  1  2  1  0
  1  3  1  0
  1  4  1  0
  5  6  1  0
  5  7  1  0
  8  9  1  0
  8 10  1  0
  8 11  1  0
 12 16  1  0
 16 17  2  0
 17 19  1  0
 19 21  2  0
 21 23  1  0
 23 25  2  0
 25 16  1  0
 12 13  1  0
 12 14  1  0
 12 15  1  0
 17 18  1  0
 19 20  1  0
 21 22  1  0
 23 24  1  0
 25 26  1  0
M  CHG  1   8   1
M  END
>  <PDB_ID>  (2066) 
pdb3l0r

>  <RESIDUE_NAME>  (2066) 
LYS   PHE

>  <FRAG_NAME>  (2066) 
ETAM   MBZ

>  <FRAG_ATOM_NUM>  (2066) 
fragi: 11  fragj: 15

>  <atom.prop.CHAIN_ID>  (2066) 
A A A A A A A A A A A Z Z Z Z Z Z Z Z Z Z Z Z Z Z Z

>  <atom.prop.IS_HEAVY_ATOM>  (2066) 
1 0 0 0 1 0 0 1 0 0 0 1 0 0 0 1 1 0 1 0 1 0 1 0 1 0

>  <DIFUSE_FUNC_ATOM>  (2066) 
n/a

>  <FINAL_SINGLE_POINT_ENERGY>  (2066) 
0

>  <NONCOV_INTER_ENERGY_QM>  (2066) 
0

>  <FF_Energy>  (2066) 
-9.14

>  <QM_Energy>  (2066) 
-18.04

>  <source>  (2066) 
ETAM_MBZ

>  <Index>  (2066) 
21301

$$$$
ETAM-pdb3kzu-A-LYS-75:MBZ-pdb3kzu-A-PHE-139
     RDKit          3D

 26 25  0  0  0  0  0  0  0  0999 V2000
   -0.0427   -0.2230    3.5666 C   0  0  0  0  0  0  0  0  0  0  0  0
   -0.7277   -0.2804    4.2829 H   0  0  0  0  0  0  0  0  0  0  0  0
   -0.4735   -0.1317    2.6773 H   0  0  0  0  0  0  0  0  0  0  0  0
    0.5775    0.6551    3.7463 H   0  0  0  0  0  0  0  0  0  0  0  0
    0.7835   -1.5113    3.5785 C   0  0  0  0  0  0  0  0  0  0  0  0
    1.4284   -1.4857    2.8266 H   0  0  0  0  0  0  0  0  0  0  0  0
    1.2554   -1.5818    4.4474 H   0  0  0  0  0  0  0  0  0  0  0  0
   -0.1300   -2.6762    3.4115 N   0  0  0  0  0  4  0  0  0  0  0  0
   -0.3530   -3.0537    4.3100 H   0  0  0  0  0  0  0  0  0  0  0  0
   -0.9679   -2.3767    2.9558 H   0  0  0  0  0  0  0  0  0  0  0  0
    0.3222   -3.3746    2.8570 H   0  0  0  0  0  0  0  0  0  0  0  0
    0.0080    2.8930   -0.0657 C   0  0  0  0  0  0  0  0  0  0  0  0
    0.8945    3.2229    0.2064 H   0  0  0  0  0  0  0  0  0  0  0  0
   -0.7108    3.2403    0.5098 H   0  0  0  0  0  0  0  0  0  0  0  0
   -0.1793    3.2562   -1.0762 H   0  0  0  0  0  0  0  0  0  0  0  0
    0.0068    1.4070    0.0144 C   0  0  0  0  0  0  0  0  0  0  0  0
   -1.2005    0.7073   -0.0141 C   0  0  0  0  0  0  0  0  0  0  0  0
   -2.0603    1.1970   -0.0455 H   0  0  0  0  0  0  0  0  0  0  0  0
   -1.2083   -0.6936    0.0000 C   0  0  0  0  0  0  0  0  0  0  0  0
   -2.0892   -1.1802    0.0054 H   0  0  0  0  0  0  0  0  0  0  0  0
   -0.0106   -1.4002    0.0076 C   0  0  0  0  0  0  0  0  0  0  0  0
   -0.0218   -2.3990    0.0181 H   0  0  0  0  0  0  0  0  0  0  0  0
    1.2083   -0.7161   -0.0000 C   0  0  0  0  0  0  0  0  0  0  0  0
    2.0793   -1.2107    0.0015 H   0  0  0  0  0  0  0  0  0  0  0  0
    1.2043    0.6956   -0.0079 C   0  0  0  0  0  0  0  0  0  0  0  0
    2.0738    1.1815   -0.0308 H   0  0  0  0  0  0  0  0  0  0  0  0
  1  5  1  0
  5  8  1  0
  1  2  1  0
  1  3  1  0
  1  4  1  0
  5  6  1  0
  5  7  1  0
  8  9  1  0
  8 10  1  0
  8 11  1  0
 12 16  1  0
 16 17  2  0
 17 19  1  0
 19 21  2  0
 21 23  1  0
 23 25  2  0
 25 16  1  0
 12 13  1  0
 12 14  1  0
 12 15  1  0
 17 18  1  0
 19 20  1  0
 21 22  1  0
 23 24  1  0
 25 26  1  0
M  CHG  1   8   1
M  END
>  <PDB_ID>  (2067) 
pdb3kzu

>  <RESIDUE_NAME>  (2067) 
LYS   PHE

>  <FRAG_NAME>  (2067) 
ETAM   MBZ

>  <FRAG_ATOM_NUM>  (2067) 
fragi: 11  fragj: 15

>  <atom.prop.CHAIN_ID>  (2067) 
A A A A A A A A A A A Z Z Z Z Z Z Z Z Z Z Z Z Z Z Z

>  <atom.prop.IS_HEAVY_ATOM>  (2067) 
1 0 0 0 1 0 0 1 0 0 0 1 0 0 0 1 1 0 1 0 1 0 1 0 1 0

>  <DIFUSE_FUNC_ATOM>  (2067) 
n/a

>  <FINAL_SINGLE_POINT_ENERGY>  (2067) 
0

>  <NONCOV_INTER_ENERGY_QM>  (2067) 
0

>  <FF_Energy>  (2067) 
-4.59

>  <QM_Energy>  (2067) 
-10.91

>  <source>  (2067) 
ETAM_MBZ

>  <Index>  (2067) 
21304

$$$$
ETAM-pdb3kzu-B-LYS-75:MBZ-pdb3kzu-B-PHE-139
     RDKit          3D

 26 25  0  0  0  0  0  0  0  0999 V2000
   -0.0910   -0.2865    3.5335 C   0  0  0  0  0  0  0  0  0  0  0  0
   -0.8670   -0.3974    4.1415 H   0  0  0  0  0  0  0  0  0  0  0  0
   -0.3928   -0.1863    2.5936 H   0  0  0  0  0  0  0  0  0  0  0  0
    0.4597    0.6079    3.8250 H   0  0  0  0  0  0  0  0  0  0  0  0
    0.7841   -1.5420    3.6301 C   0  0  0  0  0  0  0  0  0  0  0  0
    1.4503   -1.5277    2.9067 H   0  0  0  0  0  0  0  0  0  0  0  0
    1.2026   -1.5773    4.5200 H   0  0  0  0  0  0  0  0  0  0  0  0
   -0.1112   -2.7419    3.4557 N   0  0  0  0  0  4  0  0  0  0  0  0
    0.2662   -3.5034    3.9756 H   0  0  0  0  0  0  0  0  0  0  0  0
   -1.0214   -2.5157    3.7921 H   0  0  0  0  0  0  0  0  0  0  0  0
   -0.1522   -2.9758    2.4877 H   0  0  0  0  0  0  0  0  0  0  0  0
    0.0085    2.8945   -0.0352 C   0  0  0  0  0  0  0  0  0  0  0  0
    0.8974    3.2123    0.2396 H   0  0  0  0  0  0  0  0  0  0  0  0
   -0.7056    3.2298    0.5522 H   0  0  0  0  0  0  0  0  0  0  0  0
   -0.1820    3.2879   -1.0337 H   0  0  0  0  0  0  0  0  0  0  0  0
    0.0007    1.4006    0.0082 C   0  0  0  0  0  0  0  0  0  0  0  0
   -1.1995    0.7000   -0.0103 C   0  0  0  0  0  0  0  0  0  0  0  0
   -2.0627    1.1871   -0.0323 H   0  0  0  0  0  0  0  0  0  0  0  0
   -1.2037   -0.6981    0.0000 C   0  0  0  0  0  0  0  0  0  0  0  0
   -2.0754   -1.1920    0.0083 H   0  0  0  0  0  0  0  0  0  0  0  0
    0.0067   -1.3925    0.0000 C   0  0  0  0  0  0  0  0  0  0  0  0
    0.0000   -2.3916   -0.0005 H   0  0  0  0  0  0  0  0  0  0  0  0
    1.2037   -0.6967    0.0000 C   0  0  0  0  0  0  0  0  0  0  0  0
    2.0852   -1.1931    0.0000 H   0  0  0  0  0  0  0  0  0  0  0  0
    1.1921    0.6866    0.0020 C   0  0  0  0  0  0  0  0  0  0  0  0
    2.0644    1.1879   -0.0019 H   0  0  0  0  0  0  0  0  0  0  0  0
  1  5  1  0
  5  8  1  0
  1  2  1  0
  1  3  1  0
  1  4  1  0
  5  6  1  0
  5  7  1  0
  8  9  1  0
  8 10  1  0
  8 11  1  0
 12 16  1  0
 16 17  2  0
 17 19  1  0
 19 21  2  0
 21 23  1  0
 23 25  2  0
 25 16  1  0
 12 13  1  0
 12 14  1  0
 12 15  1  0
 17 18  1  0
 19 20  1  0
 21 22  1  0
 23 24  1  0
 25 26  1  0
M  CHG  1   8   1
M  END
>  <PDB_ID>  (2068) 
pdb3kzu

>  <RESIDUE_NAME>  (2068) 
LYS   PHE

>  <FRAG_NAME>  (2068) 
ETAM   MBZ

>  <FRAG_ATOM_NUM>  (2068) 
fragi: 11  fragj: 15

>  <atom.prop.CHAIN_ID>  (2068) 
A A A A A A A A A A A Z Z Z Z Z Z Z Z Z Z Z Z Z Z Z

>  <atom.prop.IS_HEAVY_ATOM>  (2068) 
1 0 0 0 1 0 0 1 0 0 0 1 0 0 0 1 1 0 1 0 1 0 1 0 1 0

>  <DIFUSE_FUNC_ATOM>  (2068) 
n/a

>  <FINAL_SINGLE_POINT_ENERGY>  (2068) 
0

>  <NONCOV_INTER_ENERGY_QM>  (2068) 
0

>  <FF_Energy>  (2068) 
-4.3

>  <QM_Energy>  (2068) 
-10.85

>  <source>  (2068) 
ETAM_MBZ

>  <Index>  (2068) 
21348

$$$$
ETAM-pdb3l3s-E-LYS-71:MBZ-pdb3l3s-E-PHE-86
     RDKit          3D

 26 25  0  0  0  0  0  0  0  0999 V2000
    0.3324   -4.5630   -3.3378 C   0  0  0  0  0  0  0  0  0  0  0  0
    0.0301   -3.6251   -3.5260 H   0  0  0  0  0  0  0  0  0  0  0  0
    0.1290   -5.1376   -4.1339 H   0  0  0  0  0  0  0  0  0  0  0  0
    1.4105   -4.5559   -3.1780 H   0  0  0  0  0  0  0  0  0  0  0  0
   -0.4567   -5.0929   -2.1488 C   0  0  0  0  0  0  0  0  0  0  0  0
   -1.4395   -5.1383   -2.4095 H   0  0  0  0  0  0  0  0  0  0  0  0
   -0.1603   -6.0498   -1.9666 H   0  0  0  0  0  0  0  0  0  0  0  0
   -0.3236   -4.3009   -0.9042 N   0  0  0  0  0  4  0  0  0  0  0  0
    0.6434   -4.2187   -0.6611 H   0  0  0  0  0  0  0  0  0  0  0  0
   -0.7093   -3.3877   -1.0450 H   0  0  0  0  0  0  0  0  0  0  0  0
   -0.8153   -4.7581   -0.1621 H   0  0  0  0  0  0  0  0  0  0  0  0
    0.0051    2.9346    0.0985 C   0  0  0  0  0  0  0  0  0  0  0  0
   -0.7129    3.2812   -0.4831 H   0  0  0  0  0  0  0  0  0  0  0  0
    0.8935    3.2544   -0.1910 H   0  0  0  0  0  0  0  0  0  0  0  0
   -0.1713    3.3185    1.1033 H   0  0  0  0  0  0  0  0  0  0  0  0
   -0.0029    1.4237    0.0020 C   0  0  0  0  0  0  0  0  0  0  0  0
   -1.2129    0.7166   -0.0017 C   0  0  0  0  0  0  0  0  0  0  0  0
   -2.0754    1.1994   -0.0072 H   0  0  0  0  0  0  0  0  0  0  0  0
   -1.2224   -0.7039   -0.0000 C   0  0  0  0  0  0  0  0  0  0  0  0
   -2.0913   -1.1900   -0.0010 H   0  0  0  0  0  0  0  0  0  0  0  0
    0.0035   -1.4176    0.0052 C   0  0  0  0  0  0  0  0  0  0  0  0
   -0.0091   -2.4085    0.0119 H   0  0  0  0  0  0  0  0  0  0  0  0
    1.2224   -0.7167    0.0000 C   0  0  0  0  0  0  0  0  0  0  0  0
    2.0961   -1.2071    0.0016 H   0  0  0  0  0  0  0  0  0  0  0  0
    1.2123    0.6978   -0.0055 C   0  0  0  0  0  0  0  0  0  0  0  0
    2.0761    1.1926   -0.0158 H   0  0  0  0  0  0  0  0  0  0  0  0
  1  5  1  0
  5  8  1  0
  1  2  1  0
  1  3  1  0
  1  4  1  0
  5  6  1  0
  5  7  1  0
  8  9  1  0
  8 10  1  0
  8 11  1  0
 12 16  1  0
 16 17  2  0
 17 19  1  0
 19 21  2  0
 21 23  1  0
 23 25  2  0
 25 16  1  0
 12 13  1  0
 12 14  1  0
 12 15  1  0
 17 18  1  0
 19 20  1  0
 21 22  1  0
 23 24  1  0
 25 26  1  0
M  CHG  1   8   1
M  END
>  <PDB_ID>  (2069) 
pdb3l3s

>  <RESIDUE_NAME>  (2069) 
LYS   PHE

>  <FRAG_NAME>  (2069) 
ETAM   MBZ

>  <FRAG_ATOM_NUM>  (2069) 
fragi: 11  fragj: 15

>  <atom.prop.CHAIN_ID>  (2069) 
A A A A A A A A A A A Z Z Z Z Z Z Z Z Z Z Z Z Z Z Z

>  <atom.prop.IS_HEAVY_ATOM>  (2069) 
1 0 0 0 1 0 0 1 0 0 0 1 0 0 0 1 1 0 1 0 1 0 1 0 1 0

>  <DIFUSE_FUNC_ATOM>  (2069) 
n/a

>  <FINAL_SINGLE_POINT_ENERGY>  (2069) 
0

>  <NONCOV_INTER_ENERGY_QM>  (2069) 
0

>  <FF_Energy>  (2069) 
11.56

>  <QM_Energy>  (2069) 
-0.42

>  <source>  (2069) 
ETAM_MBZ

>  <Index>  (2069) 
21356

$$$$
ETAM-pdb3l3s-F-LYS-71:MBZ-pdb3l3s-F-PHE-86
     RDKit          3D

 26 25  0  0  0  0  0  0  0  0999 V2000
    0.4693   -3.7986   -3.1295 C   0  0  0  0  0  0  0  0  0  0  0  0
    0.7763   -2.9357   -2.7323 H   0  0  0  0  0  0  0  0  0  0  0  0
    0.1377   -3.6428   -4.0584 H   0  0  0  0  0  0  0  0  0  0  0  0
    1.3165   -4.4832   -3.1716 H   0  0  0  0  0  0  0  0  0  0  0  0
   -0.6877   -4.3350   -2.2868 C   0  0  0  0  0  0  0  0  0  0  0  0
   -1.4386   -3.6565   -2.3049 H   0  0  0  0  0  0  0  0  0  0  0  0
   -1.0342   -5.1830   -2.7194 H   0  0  0  0  0  0  0  0  0  0  0  0
   -0.3271   -4.6236   -0.8717 N   0  0  0  0  0  4  0  0  0  0  0  0
   -0.7480   -3.9392   -0.2764 H   0  0  0  0  0  0  0  0  0  0  0  0
   -0.6594   -5.5328   -0.6242 H   0  0  0  0  0  0  0  0  0  0  0  0
    0.6663   -4.5907   -0.7693 H   0  0  0  0  0  0  0  0  0  0  0  0
    0.0080    2.9459    0.0718 C   0  0  0  0  0  0  0  0  0  0  0  0
   -0.6724    3.2813   -0.5588 H   0  0  0  0  0  0  0  0  0  0  0  0
    0.9137    3.2543   -0.1703 H   0  0  0  0  0  0  0  0  0  0  0  0
   -0.2265    3.3471    1.0578 H   0  0  0  0  0  0  0  0  0  0  0  0
   -0.0005    1.4274    0.0012 C   0  0  0  0  0  0  0  0  0  0  0  0
   -1.2185    0.7123   -0.0012 C   0  0  0  0  0  0  0  0  0  0  0  0
   -2.0777    1.1975   -0.0053 H   0  0  0  0  0  0  0  0  0  0  0  0
   -1.2274   -0.7098   -0.0000 C   0  0  0  0  0  0  0  0  0  0  0  0
   -2.0937   -1.1967    0.0004 H   0  0  0  0  0  0  0  0  0  0  0  0
    0.0023   -1.4222    0.0028 C   0  0  0  0  0  0  0  0  0  0  0  0
   -0.0048   -2.4112    0.0063 H   0  0  0  0  0  0  0  0  0  0  0  0
    1.2274   -0.7132   -0.0000 C   0  0  0  0  0  0  0  0  0  0  0  0
    2.1004   -1.2031    0.0014 H   0  0  0  0  0  0  0  0  0  0  0  0
    1.2167    0.7055   -0.0028 C   0  0  0  0  0  0  0  0  0  0  0  0
    2.0786    1.1988   -0.0083 H   0  0  0  0  0  0  0  0  0  0  0  0
  1  5  1  0
  5  8  1  0
  1  2  1  0
  1  3  1  0
  1  4  1  0
  5  6  1  0
  5  7  1  0
  8  9  1  0
  8 10  1  0
  8 11  1  0
 12 16  1  0
 16 17  2  0
 17 19  1  0
 19 21  2  0
 21 23  1  0
 23 25  2  0
 25 16  1  0
 12 13  1  0
 12 14  1  0
 12 15  1  0
 17 18  1  0
 19 20  1  0
 21 22  1  0
 23 24  1  0
 25 26  1  0
M  CHG  1   8   1
M  END
>  <PDB_ID>  (2070) 
pdb3l3s

>  <RESIDUE_NAME>  (2070) 
LYS   PHE

>  <FRAG_NAME>  (2070) 
ETAM   MBZ

>  <FRAG_ATOM_NUM>  (2070) 
fragi: 11  fragj: 15

>  <atom.prop.CHAIN_ID>  (2070) 
A A A A A A A A A A A Z Z Z Z Z Z Z Z Z Z Z Z Z Z Z

>  <atom.prop.IS_HEAVY_ATOM>  (2070) 
1 0 0 0 1 0 0 1 0 0 0 1 0 0 0 1 1 0 1 0 1 0 1 0 1 0

>  <DIFUSE_FUNC_ATOM>  (2070) 
n/a

>  <FINAL_SINGLE_POINT_ENERGY>  (2070) 
0

>  <NONCOV_INTER_ENERGY_QM>  (2070) 
0

>  <FF_Energy>  (2070) 
2.75

>  <QM_Energy>  (2070) 
-3.47

>  <source>  (2070) 
ETAM_MBZ

>  <Index>  (2070) 
21357

$$$$
ETAM-pdb3l3s-G-LYS-71:MBZ-pdb3l3s-G-PHE-86
     RDKit          3D

 26 25  0  0  0  0  0  0  0  0999 V2000
    0.0237   -5.1515   -2.1046 C   0  0  0  0  0  0  0  0  0  0  0  0
   -0.4232   -4.5005   -2.6988 H   0  0  0  0  0  0  0  0  0  0  0  0
   -0.1464   -6.0807   -2.3933 H   0  0  0  0  0  0  0  0  0  0  0  0
    1.0976   -4.9651   -2.1169 H   0  0  0  0  0  0  0  0  0  0  0  0
   -0.5175   -4.9741   -0.6919 C   0  0  0  0  0  0  0  0  0  0  0  0
   -0.1702   -5.7339   -0.1159 H   0  0  0  0  0  0  0  0  0  0  0  0
   -0.1412   -4.1126   -0.3077 H   0  0  0  0  0  0  0  0  0  0  0  0
   -1.9997   -4.9367   -0.6009 N   0  0  0  0  0  4  0  0  0  0  0  0
   -2.2819   -4.1200   -0.0967 H   0  0  0  0  0  0  0  0  0  0  0  0
   -2.3898   -4.9117   -1.5216 H   0  0  0  0  0  0  0  0  0  0  0  0
   -2.3248   -5.7530   -0.1234 H   0  0  0  0  0  0  0  0  0  0  0  0
    0.0119    2.9347    0.0645 C   0  0  0  0  0  0  0  0  0  0  0  0
   -0.7461    3.2744   -0.4712 H   0  0  0  0  0  0  0  0  0  0  0  0
    0.8769    3.2538   -0.2926 H   0  0  0  0  0  0  0  0  0  0  0  0
   -0.0927    3.3539    1.0652 H   0  0  0  0  0  0  0  0  0  0  0  0
   -0.0002    1.4242    0.0022 C   0  0  0  0  0  0  0  0  0  0  0  0
   -1.2152    0.7149   -0.0017 C   0  0  0  0  0  0  0  0  0  0  0  0
   -2.0752    1.1976   -0.0073 H   0  0  0  0  0  0  0  0  0  0  0  0
   -1.2236   -0.7086   -0.0000 C   0  0  0  0  0  0  0  0  0  0  0  0
   -2.0927   -1.1927   -0.0003 H   0  0  0  0  0  0  0  0  0  0  0  0
    0.0001   -1.4170    0.0038 C   0  0  0  0  0  0  0  0  0  0  0  0
   -0.0060   -2.4092    0.0085 H   0  0  0  0  0  0  0  0  0  0  0  0
    1.2236   -0.7124    0.0000 C   0  0  0  0  0  0  0  0  0  0  0  0
    2.0962   -1.2067    0.0014 H   0  0  0  0  0  0  0  0  0  0  0  0
    1.2153    0.6990   -0.0043 C   0  0  0  0  0  0  0  0  0  0  0  0
    2.0789    1.1946   -0.0130 H   0  0  0  0  0  0  0  0  0  0  0  0
  1  5  1  0
  5  8  1  0
  1  2  1  0
  1  3  1  0
  1  4  1  0
  5  6  1  0
  5  7  1  0
  8  9  1  0
  8 10  1  0
  8 11  1  0
 12 16  1  0
 16 17  2  0
 17 19  1  0
 19 21  2  0
 21 23  1  0
 23 25  2  0
 25 16  1  0
 12 13  1  0
 12 14  1  0
 12 15  1  0
 17 18  1  0
 19 20  1  0
 21 22  1  0
 23 24  1  0
 25 26  1  0
M  CHG  1   8   1
M  END
>  <PDB_ID>  (2071) 
pdb3l3s

>  <RESIDUE_NAME>  (2071) 
LYS   PHE

>  <FRAG_NAME>  (2071) 
ETAM   MBZ

>  <FRAG_ATOM_NUM>  (2071) 
fragi: 11  fragj: 15

>  <atom.prop.CHAIN_ID>  (2071) 
A A A A A A A A A A A Z Z Z Z Z Z Z Z Z Z Z Z Z Z Z

>  <atom.prop.IS_HEAVY_ATOM>  (2071) 
1 0 0 0 1 0 0 1 0 0 0 1 0 0 0 1 1 0 1 0 1 0 1 0 1 0

>  <DIFUSE_FUNC_ATOM>  (2071) 
n/a

>  <FINAL_SINGLE_POINT_ENERGY>  (2071) 
0

>  <NONCOV_INTER_ENERGY_QM>  (2071) 
0

>  <FF_Energy>  (2071) 
6.44

>  <QM_Energy>  (2071) 
-1.51

>  <source>  (2071) 
ETAM_MBZ

>  <Index>  (2071) 
21358

$$$$
ETAM-pdb3l3s-K-LYS-71:MBZ-pdb3l3s-K-PHE-86
     RDKit          3D

 26 25  0  0  0  0  0  0  0  0999 V2000
    0.3411   -5.3175   -1.8964 C   0  0  0  0  0  0  0  0  0  0  0  0
    0.7195   -4.4281   -2.1094 H   0  0  0  0  0  0  0  0  0  0  0  0
   -0.1375   -5.6987   -2.6733 H   0  0  0  0  0  0  0  0  0  0  0  0
    1.1518   -5.9891   -1.6134 H   0  0  0  0  0  0  0  0  0  0  0  0
   -0.6516   -5.1602   -0.7439 C   0  0  0  0  0  0  0  0  0  0  0  0
   -1.0572   -6.0680   -0.5410 H   0  0  0  0  0  0  0  0  0  0  0  0
   -0.1418   -4.8688    0.0837 H   0  0  0  0  0  0  0  0  0  0  0  0
   -1.7575   -4.1834   -0.9972 N   0  0  0  0  0  4  0  0  0  0  0  0
   -1.7354   -3.4753   -0.2942 H   0  0  0  0  0  0  0  0  0  0  0  0
   -1.6296   -3.7708   -1.8978 H   0  0  0  0  0  0  0  0  0  0  0  0
   -2.6320   -4.6636   -0.9669 H   0  0  0  0  0  0  0  0  0  0  0  0
    0.0164    2.9389    0.0697 C   0  0  0  0  0  0  0  0  0  0  0  0
   -0.5825    3.2860   -0.6336 H   0  0  0  0  0  0  0  0  0  0  0  0
    0.9462    3.2453   -0.0595 H   0  0  0  0  0  0  0  0  0  0  0  0
   -0.3291    3.3493    1.0186 H   0  0  0  0  0  0  0  0  0  0  0  0
    0.0024    1.4269    0.0012 C   0  0  0  0  0  0  0  0  0  0  0  0
   -1.2138    0.7104   -0.0032 C   0  0  0  0  0  0  0  0  0  0  0  0
   -2.0745    1.1945   -0.0099 H   0  0  0  0  0  0  0  0  0  0  0  0
   -1.2239   -0.7127    0.0000 C   0  0  0  0  0  0  0  0  0  0  0  0
   -2.0936   -1.1963    0.0023 H   0  0  0  0  0  0  0  0  0  0  0  0
   -0.0006   -1.4232    0.0026 C   0  0  0  0  0  0  0  0  0  0  0  0
   -0.0027   -2.4118    0.0055 H   0  0  0  0  0  0  0  0  0  0  0  0
    1.2239   -0.7111   -0.0000 C   0  0  0  0  0  0  0  0  0  0  0  0
    2.0974   -1.2002   -0.0000 H   0  0  0  0  0  0  0  0  0  0  0  0
    1.2121    0.7096   -0.0006 C   0  0  0  0  0  0  0  0  0  0  0  0
    2.0784    1.1997   -0.0029 H   0  0  0  0  0  0  0  0  0  0  0  0
  1  5  1  0
  5  8  1  0
  1  2  1  0
  1  3  1  0
  1  4  1  0
  5  6  1  0
  5  7  1  0
  8  9  1  0
  8 10  1  0
  8 11  1  0
 12 16  1  0
 16 17  2  0
 17 19  1  0
 19 21  2  0
 21 23  1  0
 23 25  2  0
 25 16  1  0
 12 13  1  0
 12 14  1  0
 12 15  1  0
 17 18  1  0
 19 20  1  0
 21 22  1  0
 23 24  1  0
 25 26  1  0
M  CHG  1   8   1
M  END
>  <PDB_ID>  (2072) 
pdb3l3s

>  <RESIDUE_NAME>  (2072) 
LYS   PHE

>  <FRAG_NAME>  (2072) 
ETAM   MBZ

>  <FRAG_ATOM_NUM>  (2072) 
fragi: 11  fragj: 15

>  <atom.prop.CHAIN_ID>  (2072) 
A A A A A A A A A A A Z Z Z Z Z Z Z Z Z Z Z Z Z Z Z

>  <atom.prop.IS_HEAVY_ATOM>  (2072) 
1 0 0 0 1 0 0 1 0 0 0 1 0 0 0 1 1 0 1 0 1 0 1 0 1 0

>  <DIFUSE_FUNC_ATOM>  (2072) 
n/a

>  <FINAL_SINGLE_POINT_ENERGY>  (2072) 
0

>  <NONCOV_INTER_ENERGY_QM>  (2072) 
0

>  <FF_Energy>  (2072) 
0.97

>  <QM_Energy>  (2072) 
-5.08

>  <source>  (2072) 
ETAM_MBZ

>  <Index>  (2072) 
21361

$$$$
ETAM-pdb3l3s-L-LYS-71:MBZ-pdb3l3s-L-PHE-86
     RDKit          3D

 26 25  0  0  0  0  0  0  0  0999 V2000
   -0.1203   -5.4700   -2.5720 C   0  0  0  0  0  0  0  0  0  0  0  0
    0.3125   -4.6778   -2.9798 H   0  0  0  0  0  0  0  0  0  0  0  0
   -0.7490   -5.8972   -3.2065 H   0  0  0  0  0  0  0  0  0  0  0  0
    0.6493   -6.1904   -2.2945 H   0  0  0  0  0  0  0  0  0  0  0  0
   -0.9058   -5.0156   -1.3427 C   0  0  0  0  0  0  0  0  0  0  0  0
   -1.3110   -5.8244   -0.9026 H   0  0  0  0  0  0  0  0  0  0  0  0
   -0.2681   -4.5855   -0.6940 H   0  0  0  0  0  0  0  0  0  0  0  0
   -1.9875   -4.0489   -1.6792 N   0  0  0  0  0  4  0  0  0  0  0  0
   -2.2078   -3.5038   -0.8705 H   0  0  0  0  0  0  0  0  0  0  0  0
   -1.6772   -3.4480   -2.4146 H   0  0  0  0  0  0  0  0  0  0  0  0
   -2.7991   -4.5505   -1.9772 H   0  0  0  0  0  0  0  0  0  0  0  0
    0.0111    2.9416    0.1340 C   0  0  0  0  0  0  0  0  0  0  0  0
   -0.7040    3.3051   -0.4379 H   0  0  0  0  0  0  0  0  0  0  0  0
    0.9003    3.2672   -0.1367 H   0  0  0  0  0  0  0  0  0  0  0  0
   -0.1700    3.3078    1.1445 H   0  0  0  0  0  0  0  0  0  0  0  0
   -0.0001    1.4262    0.0034 C   0  0  0  0  0  0  0  0  0  0  0  0
   -1.2183    0.7136   -0.0028 C   0  0  0  0  0  0  0  0  0  0  0  0
   -2.0769    1.1989   -0.0105 H   0  0  0  0  0  0  0  0  0  0  0  0
   -1.2285   -0.7075   -0.0000 C   0  0  0  0  0  0  0  0  0  0  0  0
   -2.0951   -1.1944    0.0004 H   0  0  0  0  0  0  0  0  0  0  0  0
    0.0019   -1.4225    0.0040 C   0  0  0  0  0  0  0  0  0  0  0  0
   -0.0062   -2.4109    0.0094 H   0  0  0  0  0  0  0  0  0  0  0  0
    1.2285   -0.7132   -0.0000 C   0  0  0  0  0  0  0  0  0  0  0  0
    2.0998   -1.2045    0.0023 H   0  0  0  0  0  0  0  0  0  0  0  0
    1.2165    0.7035   -0.0046 C   0  0  0  0  0  0  0  0  0  0  0  0
    2.0788    1.1978   -0.0147 H   0  0  0  0  0  0  0  0  0  0  0  0
  1  5  1  0
  5  8  1  0
  1  2  1  0
  1  3  1  0
  1  4  1  0
  5  6  1  0
  5  7  1  0
  8  9  1  0
  8 10  1  0
  8 11  1  0
 12 16  1  0
 16 17  2  0
 17 19  1  0
 19 21  2  0
 21 23  1  0
 23 25  2  0
 25 16  1  0
 12 13  1  0
 12 14  1  0
 12 15  1  0
 17 18  1  0
 19 20  1  0
 21 22  1  0
 23 24  1  0
 25 26  1  0
M  CHG  1   8   1
M  END
>  <PDB_ID>  (2073) 
pdb3l3s

>  <RESIDUE_NAME>  (2073) 
LYS   PHE

>  <FRAG_NAME>  (2073) 
ETAM   MBZ

>  <FRAG_ATOM_NUM>  (2073) 
fragi: 11  fragj: 15

>  <atom.prop.CHAIN_ID>  (2073) 
A A A A A A A A A A A Z Z Z Z Z Z Z Z Z Z Z Z Z Z Z

>  <atom.prop.IS_HEAVY_ATOM>  (2073) 
1 0 0 0 1 0 0 1 0 0 0 1 0 0 0 1 1 0 1 0 1 0 1 0 1 0

>  <DIFUSE_FUNC_ATOM>  (2073) 
n/a

>  <FINAL_SINGLE_POINT_ENERGY>  (2073) 
0

>  <NONCOV_INTER_ENERGY_QM>  (2073) 
0

>  <FF_Energy>  (2073) 
0.08

>  <QM_Energy>  (2073) 
-4.93

>  <source>  (2073) 
ETAM_MBZ

>  <Index>  (2073) 
21363

$$$$
ETAM-pdb3l3s-A-LYS-71:MBZ-pdb3l3s-A-PHE-86
     RDKit          3D

 26 25  0  0  0  0  0  0  0  0999 V2000
    0.3228   -5.0818   -2.4948 C   0  0  0  0  0  0  0  0  0  0  0  0
   -0.1404   -4.4375   -3.0860 H   0  0  0  0  0  0  0  0  0  0  0  0
    0.1525   -6.0142   -2.7773 H   0  0  0  0  0  0  0  0  0  0  0  0
    1.3950   -4.8877   -2.5253 H   0  0  0  0  0  0  0  0  0  0  0  0
   -0.1884   -4.9007   -1.0826 C   0  0  0  0  0  0  0  0  0  0  0  0
    0.2274   -5.6061   -0.4911 H   0  0  0  0  0  0  0  0  0  0  0  0
    0.1072   -3.9969   -0.7402 H   0  0  0  0  0  0  0  0  0  0  0  0
   -1.6675   -4.9947   -0.9799 N   0  0  0  0  0  4  0  0  0  0  0  0
   -1.9333   -5.0276   -0.0162 H   0  0  0  0  0  0  0  0  0  0  0  0
   -2.0830   -4.1955   -1.4132 H   0  0  0  0  0  0  0  0  0  0  0  0
   -1.9812   -5.8248   -1.4406 H   0  0  0  0  0  0  0  0  0  0  0  0
    0.0018    2.9239    0.1431 C   0  0  0  0  0  0  0  0  0  0  0  0
   -0.6834    3.2926   -0.4637 H   0  0  0  0  0  0  0  0  0  0  0  0
    0.9047    3.2530   -0.0830 H   0  0  0  0  0  0  0  0  0  0  0  0
   -0.2307    3.2739    1.1488 H   0  0  0  0  0  0  0  0  0  0  0  0
   -0.0025    1.4239    0.0028 C   0  0  0  0  0  0  0  0  0  0  0  0
   -1.2151    0.7129   -0.0039 C   0  0  0  0  0  0  0  0  0  0  0  0
   -2.0762    1.1932   -0.0127 H   0  0  0  0  0  0  0  0  0  0  0  0
   -1.2208   -0.7103   -0.0000 C   0  0  0  0  0  0  0  0  0  0  0  0
   -2.0880   -1.1969   -0.0010 H   0  0  0  0  0  0  0  0  0  0  0  0
    0.0063   -1.4169    0.0068 C   0  0  0  0  0  0  0  0  0  0  0  0
   -0.0013   -2.4096    0.0158 H   0  0  0  0  0  0  0  0  0  0  0  0
    1.2208   -0.7121    0.0000 C   0  0  0  0  0  0  0  0  0  0  0  0
    2.0976   -1.2008    0.0006 H   0  0  0  0  0  0  0  0  0  0  0  0
    1.2114    0.7025   -0.0057 C   0  0  0  0  0  0  0  0  0  0  0  0
    2.0747    1.1965   -0.0168 H   0  0  0  0  0  0  0  0  0  0  0  0
  1  5  1  0
  5  8  1  0
  1  2  1  0
  1  3  1  0
  1  4  1  0
  5  6  1  0
  5  7  1  0
  8  9  1  0
  8 10  1  0
  8 11  1  0
 12 16  1  0
 16 17  2  0
 17 19  1  0
 19 21  2  0
 21 23  1  0
 23 25  2  0
 25 16  1  0
 12 13  1  0
 12 14  1  0
 12 15  1  0
 17 18  1  0
 19 20  1  0
 21 22  1  0
 23 24  1  0
 25 26  1  0
M  CHG  1   8   1
M  END
>  <PDB_ID>  (2074) 
pdb3l3s

>  <RESIDUE_NAME>  (2074) 
LYS   PHE

>  <FRAG_NAME>  (2074) 
ETAM   MBZ

>  <FRAG_ATOM_NUM>  (2074) 
fragi: 11  fragj: 15

>  <atom.prop.CHAIN_ID>  (2074) 
A A A A A A A A A A A Z Z Z Z Z Z Z Z Z Z Z Z Z Z Z

>  <atom.prop.IS_HEAVY_ATOM>  (2074) 
1 0 0 0 1 0 0 1 0 0 0 1 0 0 0 1 1 0 1 0 1 0 1 0 1 0

>  <DIFUSE_FUNC_ATOM>  (2074) 
n/a

>  <FINAL_SINGLE_POINT_ENERGY>  (2074) 
0

>  <NONCOV_INTER_ENERGY_QM>  (2074) 
0

>  <FF_Energy>  (2074) 
5.48

>  <QM_Energy>  (2074) 
-1.75

>  <source>  (2074) 
ETAM_MBZ

>  <Index>  (2074) 
21364

$$$$
ETAM-pdb3l51-A-LYS-637:MBZ-pdb3l51-A-PHE-657
     RDKit          3D

 26 25  0  0  0  0  0  0  0  0999 V2000
   -2.4732   -1.6241    3.3465 C   0  0  0  0  0  0  0  0  0  0  0  0
   -2.2629   -2.2035    4.1282 H   0  0  0  0  0  0  0  0  0  0  0  0
   -3.3773   -1.2217    3.4507 H   0  0  0  0  0  0  0  0  0  0  0  0
   -1.7344   -0.8244    3.2917 H   0  0  0  0  0  0  0  0  0  0  0  0
   -2.4684   -2.4839    2.0908 C   0  0  0  0  0  0  0  0  0  0  0  0
   -2.6440   -1.8945    1.2932 H   0  0  0  0  0  0  0  0  0  0  0  0
   -1.5559   -2.8969    1.9833 H   0  0  0  0  0  0  0  0  0  0  0  0
   -3.4903   -3.5660    2.1314 N   0  0  0  0  0  4  0  0  0  0  0  0
   -4.3649   -3.2074    1.8084 H   0  0  0  0  0  0  0  0  0  0  0  0
   -3.1985   -4.3192    1.5425 H   0  0  0  0  0  0  0  0  0  0  0  0
   -3.5892   -3.8937    3.0707 H   0  0  0  0  0  0  0  0  0  0  0  0
   -0.0006    2.8877   -0.0291 C   0  0  0  0  0  0  0  0  0  0  0  0
    0.8233    3.2071    0.4101 H   0  0  0  0  0  0  0  0  0  0  0  0
   -0.8097    3.2064    0.4369 H   0  0  0  0  0  0  0  0  0  0  0  0
   -0.0178    3.2957   -1.0398 H   0  0  0  0  0  0  0  0  0  0  0  0
    0.0007    1.3925    0.0013 C   0  0  0  0  0  0  0  0  0  0  0  0
   -1.1904    0.6921   -0.0009 C   0  0  0  0  0  0  0  0  0  0  0  0
   -2.0577    1.1837   -0.0044 H   0  0  0  0  0  0  0  0  0  0  0  0
   -1.1951   -0.6906    0.0000 C   0  0  0  0  0  0  0  0  0  0  0  0
   -2.0759   -1.1845   -0.0038 H   0  0  0  0  0  0  0  0  0  0  0  0
   -0.0039   -1.3844    0.0084 C   0  0  0  0  0  0  0  0  0  0  0  0
   -0.0085   -2.3864    0.0197 H   0  0  0  0  0  0  0  0  0  0  0  0
    1.1951   -0.6950   -0.0000 C   0  0  0  0  0  0  0  0  0  0  0  0
    2.0757   -1.1987    0.0020 H   0  0  0  0  0  0  0  0  0  0  0  0
    1.1937    0.6854   -0.0088 C   0  0  0  0  0  0  0  0  0  0  0  0
    2.0620    1.1843   -0.0233 H   0  0  0  0  0  0  0  0  0  0  0  0
  1  5  1  0
  5  8  1  0
  1  2  1  0
  1  3  1  0
  1  4  1  0
  5  6  1  0
  5  7  1  0
  8  9  1  0
  8 10  1  0
  8 11  1  0
 12 16  1  0
 16 17  2  0
 17 19  1  0
 19 21  2  0
 21 23  1  0
 23 25  2  0
 25 16  1  0
 12 13  1  0
 12 14  1  0
 12 15  1  0
 17 18  1  0
 19 20  1  0
 21 22  1  0
 23 24  1  0
 25 26  1  0
M  CHG  1   8   1
M  END
>  <PDB_ID>  (2075) 
pdb3l51

>  <RESIDUE_NAME>  (2075) 
LYS   PHE

>  <FRAG_NAME>  (2075) 
ETAM   MBZ

>  <FRAG_ATOM_NUM>  (2075) 
fragi: 11  fragj: 15

>  <atom.prop.CHAIN_ID>  (2075) 
A A A A A A A A A A A Z Z Z Z Z Z Z Z Z Z Z Z Z Z Z

>  <atom.prop.IS_HEAVY_ATOM>  (2075) 
1 0 0 0 1 0 0 1 0 0 0 1 0 0 0 1 1 0 1 0 1 0 1 0 1 0

>  <DIFUSE_FUNC_ATOM>  (2075) 
n/a

>  <FINAL_SINGLE_POINT_ENERGY>  (2075) 
0

>  <NONCOV_INTER_ENERGY_QM>  (2075) 
0

>  <FF_Energy>  (2075) 
22.36

>  <QM_Energy>  (2075) 
0.06

>  <source>  (2075) 
ETAM_MBZ

>  <Index>  (2075) 
21391

$$$$
ETAM-pdb4hy1-B-LYS-19:MBZ-pdb4hy1-B-PHE-144
     RDKit          3D

 26 25  0  0  0  0  0  0  0  0999 V2000
    1.3601   -4.3619   -4.5435 C   0  0  0  0  0  0  0  0  0  0  0  0
    1.5182   -5.0150   -3.8138 H   0  0  0  0  0  0  0  0  0  0  0  0
    2.2171   -3.9922   -4.8779 H   0  0  0  0  0  0  0  0  0  0  0  0
    0.8527   -4.8695   -5.3638 H   0  0  0  0  0  0  0  0  0  0  0  0
    0.5131   -3.2229   -4.0048 C   0  0  0  0  0  0  0  0  0  0  0  0
    0.3211   -2.5823   -4.7389 H   0  0  0  0  0  0  0  0  0  0  0  0
   -0.3320   -3.5905   -3.6340 H   0  0  0  0  0  0  0  0  0  0  0  0
    1.2611   -2.5210   -2.9219 N   0  0  0  0  0  4  0  0  0  0  0  0
    1.9735   -1.9511   -3.3289 H   0  0  0  0  0  0  0  0  0  0  0  0
    0.6291   -1.9484   -2.4023 H   0  0  0  0  0  0  0  0  0  0  0  0
    1.6772   -3.1982   -2.3167 H   0  0  0  0  0  0  0  0  0  0  0  0
    0.0081    2.9242   -0.0036 C   0  0  0  0  0  0  0  0  0  0  0  0
    0.9490    3.2239   -0.0014 H   0  0  0  0  0  0  0  0  0  0  0  0
   -0.4726    3.2353    0.8010 H   0  0  0  0  0  0  0  0  0  0  0  0
   -0.4776    3.3732   -0.8700 H   0  0  0  0  0  0  0  0  0  0  0  0
   -0.0006    1.4098    0.0012 C   0  0  0  0  0  0  0  0  0  0  0  0
   -1.2053    0.6890    0.0031 C   0  0  0  0  0  0  0  0  0  0  0  0
   -2.0696    1.1791    0.0059 H   0  0  0  0  0  0  0  0  0  0  0  0
   -1.2049   -0.7047    0.0000 C   0  0  0  0  0  0  0  0  0  0  0  0
   -2.0793   -1.1999    0.0014 H   0  0  0  0  0  0  0  0  0  0  0  0
   -0.0006   -1.3939   -0.0027 C   0  0  0  0  0  0  0  0  0  0  0  0
    0.0005   -2.3944   -0.0076 H   0  0  0  0  0  0  0  0  0  0  0  0
    1.2049   -0.6963   -0.0000 C   0  0  0  0  0  0  0  0  0  0  0  0
    2.0841   -1.1975    0.0048 H   0  0  0  0  0  0  0  0  0  0  0  0
    1.2065    0.6962   -0.0017 C   0  0  0  0  0  0  0  0  0  0  0  0
    2.0701    1.1929   -0.0056 H   0  0  0  0  0  0  0  0  0  0  0  0
  1  5  1  0
  5  8  1  0
  1  2  1  0
  1  3  1  0
  1  4  1  0
  5  6  1  0
  5  7  1  0
  8  9  1  0
  8 10  1  0
  8 11  1  0
 12 16  1  0
 16 17  2  0
 17 19  1  0
 19 21  2  0
 21 23  1  0
 23 25  2  0
 25 16  1  0
 12 13  1  0
 12 14  1  0
 12 15  1  0
 17 18  1  0
 19 20  1  0
 21 22  1  0
 23 24  1  0
 25 26  1  0
M  CHG  1   8   1
M  END
>  <PDB_ID>  (2076) 
pdb4hy1

>  <RESIDUE_NAME>  (2076) 
LYS   PHE

>  <FRAG_NAME>  (2076) 
ETAM   MBZ

>  <FRAG_ATOM_NUM>  (2076) 
fragi: 11  fragj: 15

>  <atom.prop.CHAIN_ID>  (2076) 
A A A A A A A A A A A Z Z Z Z Z Z Z Z Z Z Z Z Z Z Z

>  <atom.prop.IS_HEAVY_ATOM>  (2076) 
1 0 0 0 1 0 0 1 0 0 0 1 0 0 0 1 1 0 1 0 1 0 1 0 1 0

>  <DIFUSE_FUNC_ATOM>  (2076) 
n/a

>  <FINAL_SINGLE_POINT_ENERGY>  (2076) 
0

>  <NONCOV_INTER_ENERGY_QM>  (2076) 
0

>  <FF_Energy>  (2076) 
-3.4

>  <QM_Energy>  (2076) 
-10.47

>  <source>  (2076) 
ETAM_MBZ

>  <Index>  (2076) 
21407

$$$$
ETAM-pdb4hyj-A-LYS-237:MBZ-pdb4hyj-A-PHE-234
     RDKit          3D

 26 25  0  0  0  0  0  0  0  0999 V2000
   -5.3730    1.5578   -1.3696 C   0  0  0  0  0  0  0  0  0  0  0  0
   -5.9574    1.3297   -0.5903 H   0  0  0  0  0  0  0  0  0  0  0  0
   -5.6269    0.9905   -2.1541 H   0  0  0  0  0  0  0  0  0  0  0  0
   -5.5318    2.6045   -1.6294 H   0  0  0  0  0  0  0  0  0  0  0  0
   -3.9364    1.2635   -1.0026 C   0  0  0  0  0  0  0  0  0  0  0  0
   -3.3470    1.4867   -1.7790 H   0  0  0  0  0  0  0  0  0  0  0  0
   -3.6767    1.8244   -0.2163 H   0  0  0  0  0  0  0  0  0  0  0  0
   -3.7684   -0.1712   -0.6568 N   0  0  0  0  0  4  0  0  0  0  0  0
   -4.3579   -0.3980    0.1189 H   0  0  0  0  0  0  0  0  0  0  0  0
   -4.0183   -0.7346   -1.4433 H   0  0  0  0  0  0  0  0  0  0  0  0
   -2.8141   -0.3440   -0.4116 H   0  0  0  0  0  0  0  0  0  0  0  0
   -0.0011    2.8981   -0.0043 C   0  0  0  0  0  0  0  0  0  0  0  0
    0.8778    3.2046   -0.3365 H   0  0  0  0  0  0  0  0  0  0  0  0
   -0.1655    3.2094    0.9187 H   0  0  0  0  0  0  0  0  0  0  0  0
   -0.7693    3.3330   -0.6437 H   0  0  0  0  0  0  0  0  0  0  0  0
   -0.0008    1.3984    0.0019 C   0  0  0  0  0  0  0  0  0  0  0  0
   -1.1964    0.6912   -0.0015 C   0  0  0  0  0  0  0  0  0  0  0  0
   -2.0627    1.1817   -0.0059 H   0  0  0  0  0  0  0  0  0  0  0  0
   -1.1990   -0.6965   -0.0000 C   0  0  0  0  0  0  0  0  0  0  0  0
   -2.0746   -1.1922    0.0034 H   0  0  0  0  0  0  0  0  0  0  0  0
    0.0025   -1.3878   -0.0016 C   0  0  0  0  0  0  0  0  0  0  0  0
   -0.0020   -2.3893   -0.0046 H   0  0  0  0  0  0  0  0  0  0  0  0
    1.1990   -0.6955    0.0000 C   0  0  0  0  0  0  0  0  0  0  0  0
    2.0816   -1.1944    0.0021 H   0  0  0  0  0  0  0  0  0  0  0  0
    1.1947    0.6901    0.0012 C   0  0  0  0  0  0  0  0  0  0  0  0
    2.0625    1.1888    0.0008 H   0  0  0  0  0  0  0  0  0  0  0  0
  1  5  1  0
  5  8  1  0
  1  2  1  0
  1  3  1  0
  1  4  1  0
  5  6  1  0
  5  7  1  0
  8  9  1  0
  8 10  1  0
  8 11  1  0
 12 16  1  0
 16 17  2  0
 17 19  1  0
 19 21  2  0
 21 23  1  0
 23 25  2  0
 25 16  1  0
 12 13  1  0
 12 14  1  0
 12 15  1  0
 17 18  1  0
 19 20  1  0
 21 22  1  0
 23 24  1  0
 25 26  1  0
M  CHG  1   8   1
M  END
>  <PDB_ID>  (2077) 
pdb4hyj

>  <RESIDUE_NAME>  (2077) 
LYS   PHE

>  <FRAG_NAME>  (2077) 
ETAM   MBZ

>  <FRAG_ATOM_NUM>  (2077) 
fragi: 11  fragj: 15

>  <atom.prop.CHAIN_ID>  (2077) 
A A A A A A A A A A A Z Z Z Z Z Z Z Z Z Z Z Z Z Z Z

>  <atom.prop.IS_HEAVY_ATOM>  (2077) 
1 0 0 0 1 0 0 1 0 0 0 1 0 0 0 1 1 0 1 0 1 0 1 0 1 0

>  <DIFUSE_FUNC_ATOM>  (2077) 
n/a

>  <FINAL_SINGLE_POINT_ENERGY>  (2077) 
0

>  <NONCOV_INTER_ENERGY_QM>  (2077) 
0

>  <FF_Energy>  (2077) 
44.14

>  <QM_Energy>  (2077) 
14.19

>  <source>  (2077) 
ETAM_MBZ

>  <Index>  (2077) 
21411

$$$$
ETAM-pdb3l77-A-LYS-71:MBZ-pdb3l77-A-PHE-121
     RDKit          3D

 26 25  0  0  0  0  0  0  0  0999 V2000
   -2.7134   -0.8948   -3.2039 C   0  0  0  0  0  0  0  0  0  0  0  0
   -3.2913   -0.6446   -2.4157 H   0  0  0  0  0  0  0  0  0  0  0  0
   -1.9350   -1.4375   -2.8607 H   0  0  0  0  0  0  0  0  0  0  0  0
   -3.2977   -1.5044   -3.8931 H   0  0  0  0  0  0  0  0  0  0  0  0
   -2.1734    0.3722   -3.8163 C   0  0  0  0  0  0  0  0  0  0  0  0
   -1.5848    0.1367   -4.5959 H   0  0  0  0  0  0  0  0  0  0  0  0
   -2.9403    0.9298   -4.1497 H   0  0  0  0  0  0  0  0  0  0  0  0
   -1.3907    1.1593   -2.8368 N   0  0  0  0  0  4  0  0  0  0  0  0
   -1.9753    1.8609   -2.4263 H   0  0  0  0  0  0  0  0  0  0  0  0
   -1.0442    0.5539   -2.1196 H   0  0  0  0  0  0  0  0  0  0  0  0
   -0.6194    1.5999   -3.3003 H   0  0  0  0  0  0  0  0  0  0  0  0
    0.0096    2.8946   -0.0115 C   0  0  0  0  0  0  0  0  0  0  0  0
    0.9058    3.1986    0.2748 H   0  0  0  0  0  0  0  0  0  0  0  0
   -0.6935    3.2098    0.6073 H   0  0  0  0  0  0  0  0  0  0  0  0
   -0.1915    3.3270   -0.9916 H   0  0  0  0  0  0  0  0  0  0  0  0
    0.0012    1.3963   -0.0043 C   0  0  0  0  0  0  0  0  0  0  0  0
   -1.1964    0.6909   -0.0047 C   0  0  0  0  0  0  0  0  0  0  0  0
   -2.0609    1.1824   -0.0099 H   0  0  0  0  0  0  0  0  0  0  0  0
   -1.1969   -0.6938   -0.0000 C   0  0  0  0  0  0  0  0  0  0  0  0
   -2.0740   -1.1918   -0.0014 H   0  0  0  0  0  0  0  0  0  0  0  0
    0.0028   -1.3879    0.0084 C   0  0  0  0  0  0  0  0  0  0  0  0
   -0.0015   -2.3880    0.0195 H   0  0  0  0  0  0  0  0  0  0  0  0
    1.1969   -0.6933   -0.0000 C   0  0  0  0  0  0  0  0  0  0  0  0
    2.0805   -1.1929   -0.0050 H   0  0  0  0  0  0  0  0  0  0  0  0
    1.1925    0.6878    0.0007 C   0  0  0  0  0  0  0  0  0  0  0  0
    2.0626    1.1875    0.0037 H   0  0  0  0  0  0  0  0  0  0  0  0
  1  5  1  0
  5  8  1  0
  1  2  1  0
  1  3  1  0
  1  4  1  0
  5  6  1  0
  5  7  1  0
  8  9  1  0
  8 10  1  0
  8 11  1  0
 12 16  1  0
 16 17  2  0
 17 19  1  0
 19 21  2  0
 21 23  1  0
 23 25  2  0
 25 16  1  0
 12 13  1  0
 12 14  1  0
 12 15  1  0
 17 18  1  0
 19 20  1  0
 21 22  1  0
 23 24  1  0
 25 26  1  0
M  CHG  1   8   1
M  END
>  <PDB_ID>  (2078) 
pdb3l77

>  <RESIDUE_NAME>  (2078) 
LYS   PHE

>  <FRAG_NAME>  (2078) 
ETAM   MBZ

>  <FRAG_ATOM_NUM>  (2078) 
fragi: 11  fragj: 15

>  <atom.prop.CHAIN_ID>  (2078) 
A A A A A A A A A A A Z Z Z Z Z Z Z Z Z Z Z Z Z Z Z

>  <atom.prop.IS_HEAVY_ATOM>  (2078) 
1 0 0 0 1 0 0 1 0 0 0 1 0 0 0 1 1 0 1 0 1 0 1 0 1 0

>  <DIFUSE_FUNC_ATOM>  (2078) 
n/a

>  <FINAL_SINGLE_POINT_ENERGY>  (2078) 
0

>  <NONCOV_INTER_ENERGY_QM>  (2078) 
0

>  <FF_Energy>  (2078) 
-5.56

>  <QM_Energy>  (2078) 
-12.65

>  <source>  (2078) 
ETAM_MBZ

>  <Index>  (2078) 
21430

$$$$
ETAM-pdb3l82-B-VAL-164:MBZ-pdb3l82-B-PHE-167
     RDKit          3D

 26 25  0  0  0  0  0  0  0  0999 V2000
    4.8635   -1.0660    4.0439 C   0  0  0  0  0  0  0  0  0  0  0  0
    4.8527   -1.6380    4.8543 H   0  0  0  0  0  0  0  0  0  0  0  0
    5.8603   -1.1378    3.6090 H   0  0  0  0  0  0  0  0  0  0  0  0
    4.6345   -0.0266    4.2788 H   0  0  0  0  0  0  0  0  0  0  0  0
    3.8111   -1.6440    3.0556 C   0  0  0  0  0  0  0  0  0  0  0  0
    4.0102   -2.6007    2.8445 H   0  0  0  0  0  0  0  0  0  0  0  0
    2.8229   -1.5902    3.5122 H   0  0  0  0  0  0  0  0  0  0  0  0
    3.8208   -0.8908    1.7689 N   0  0  0  0  0  4  0  0  0  0  0  0
    3.8740    0.0851    1.9624 H   0  0  0  0  0  0  0  0  0  0  0  0
    4.6120   -1.1727    1.2314 H   0  0  0  0  0  0  0  0  0  0  0  0
    2.9832   -1.0912    1.2668 H   0  0  0  0  0  0  0  0  0  0  0  0
   -0.0112    2.9142   -0.0058 C   0  0  0  0  0  0  0  0  0  0  0  0
   -0.9395    3.2161    0.1553 H   0  0  0  0  0  0  0  0  0  0  0  0
    0.3177    3.2210   -0.8866 H   0  0  0  0  0  0  0  0  0  0  0  0
    0.6200    3.3697    0.7572 H   0  0  0  0  0  0  0  0  0  0  0  0
   -0.0003    1.4098    0.0005 C   0  0  0  0  0  0  0  0  0  0  0  0
   -1.1994    0.6959    0.0007 C   0  0  0  0  0  0  0  0  0  0  0  0
   -2.0670    1.1837   -0.0001 H   0  0  0  0  0  0  0  0  0  0  0  0
   -1.2047   -0.7019   -0.0000 C   0  0  0  0  0  0  0  0  0  0  0  0
   -2.0809   -1.1935    0.0008 H   0  0  0  0  0  0  0  0  0  0  0  0
    0.0004   -1.4022    0.0005 C   0  0  0  0  0  0  0  0  0  0  0  0
   -0.0036   -2.3983    0.0008 H   0  0  0  0  0  0  0  0  0  0  0  0
    1.2047   -0.7012    0.0000 C   0  0  0  0  0  0  0  0  0  0  0  0
    2.0859   -1.1950    0.0028 H   0  0  0  0  0  0  0  0  0  0  0  0
    1.1993    0.6996   -0.0017 C   0  0  0  0  0  0  0  0  0  0  0  0
    2.0677    1.1927   -0.0056 H   0  0  0  0  0  0  0  0  0  0  0  0
  1  5  1  0
  5  8  1  0
  1  2  1  0
  1  3  1  0
  1  4  1  0
  5  6  1  0
  5  7  1  0
  8  9  1  0
  8 10  1  0
  8 11  1  0
 12 16  1  0
 16 17  2  0
 17 19  1  0
 19 21  2  0
 21 23  1  0
 23 25  2  0
 25 16  1  0
 12 13  1  0
 12 14  1  0
 12 15  1  0
 17 18  1  0
 19 20  1  0
 21 22  1  0
 23 24  1  0
 25 26  1  0
M  CHG  1   8   1
M  END
>  <PDB_ID>  (2079) 
pdb3l82

>  <RESIDUE_NAME>  (2079) 
VAL   PHE

>  <FRAG_NAME>  (2079) 
ETAM   MBZ

>  <FRAG_ATOM_NUM>  (2079) 
fragi: 11  fragj: 15

>  <atom.prop.CHAIN_ID>  (2079) 
A A A A A A A A A A A Z Z Z Z Z Z Z Z Z Z Z Z Z Z Z

>  <atom.prop.IS_HEAVY_ATOM>  (2079) 
1 0 0 0 1 0 0 1 0 0 0 1 0 0 0 1 1 0 1 0 1 0 1 0 1 0

>  <DIFUSE_FUNC_ATOM>  (2079) 
n/a

>  <FINAL_SINGLE_POINT_ENERGY>  (2079) 
0

>  <NONCOV_INTER_ENERGY_QM>  (2079) 
0

>  <FF_Energy>  (2079) 
1.55

>  <QM_Energy>  (2079) 
-4.97

>  <source>  (2079) 
ETAM_MBZ

>  <Index>  (2079) 
21463

$$$$
ETAM-pdb4i17-A-LYS-215:MBZ-pdb4i17-A-PHE-180
     RDKit          3D

 26 25  0  0  0  0  0  0  0  0999 V2000
   -1.0346   -0.3745    3.9575 C   0  0  0  0  0  0  0  0  0  0  0  0
   -1.8251   -0.8138    4.3795 H   0  0  0  0  0  0  0  0  0  0  0  0
   -1.3016    0.0433    3.0913 H   0  0  0  0  0  0  0  0  0  0  0  0
   -0.6821    0.4118    4.6250 H   0  0  0  0  0  0  0  0  0  0  0  0
    0.0244   -1.4195    3.6925 C   0  0  0  0  0  0  0  0  0  0  0  0
    0.6885   -1.0551    3.0319 H   0  0  0  0  0  0  0  0  0  0  0  0
    0.5068   -1.6256    4.5505 H   0  0  0  0  0  0  0  0  0  0  0  0
   -0.5572   -2.6790    3.1504 N   0  0  0  0  0  4  0  0  0  0  0  0
   -0.9236   -2.5076    2.2362 H   0  0  0  0  0  0  0  0  0  0  0  0
    0.1550   -3.3776    3.0999 H   0  0  0  0  0  0  0  0  0  0  0  0
   -1.2908   -2.9911    3.7532 H   0  0  0  0  0  0  0  0  0  0  0  0
   -0.0050    2.9303   -0.0896 C   0  0  0  0  0  0  0  0  0  0  0  0
    0.8881    3.2425    0.0458 H   0  0  0  0  0  0  0  0  0  0  0  0
   -0.6820    3.2654    0.4966 H   0  0  0  0  0  0  0  0  0  0  0  0
   -0.2951    3.1666   -1.1134 H   0  0  0  0  0  0  0  0  0  0  0  0
    0.0022    1.4129    0.0111 C   0  0  0  0  0  0  0  0  0  0  0  0
   -1.1946    0.6931    0.0178 C   0  0  0  0  0  0  0  0  0  0  0  0
   -2.0628    1.1783    0.0340 H   0  0  0  0  0  0  0  0  0  0  0  0
   -1.1947   -0.7046   -0.0000 C   0  0  0  0  0  0  0  0  0  0  0  0
   -2.0763   -1.1928   -0.0169 H   0  0  0  0  0  0  0  0  0  0  0  0
   -0.0038   -1.3950    0.0076 C   0  0  0  0  0  0  0  0  0  0  0  0
   -0.0080   -2.3984    0.0178 H   0  0  0  0  0  0  0  0  0  0  0  0
    1.1947   -0.7074    0.0000 C   0  0  0  0  0  0  0  0  0  0  0  0
    2.0777   -1.1975    0.0216 H   0  0  0  0  0  0  0  0  0  0  0  0
    1.1961    0.7009   -0.0365 C   0  0  0  0  0  0  0  0  0  0  0  0
    2.0647    1.1847   -0.0980 H   0  0  0  0  0  0  0  0  0  0  0  0
  1  5  1  0
  5  8  1  0
  1  2  1  0
  1  3  1  0
  1  4  1  0
  5  6  1  0
  5  7  1  0
  8  9  1  0
  8 10  1  0
  8 11  1  0
 12 16  1  0
 16 17  2  0
 17 19  1  0
 19 21  2  0
 21 23  1  0
 23 25  2  0
 25 16  1  0
 12 13  1  0
 12 14  1  0
 12 15  1  0
 17 18  1  0
 19 20  1  0
 21 22  1  0
 23 24  1  0
 25 26  1  0
M  CHG  1   8   1
M  END
>  <PDB_ID>  (2080) 
pdb4i17

>  <RESIDUE_NAME>  (2080) 
LYS   PHE

>  <FRAG_NAME>  (2080) 
ETAM   MBZ

>  <FRAG_ATOM_NUM>  (2080) 
fragi: 11  fragj: 15

>  <atom.prop.CHAIN_ID>  (2080) 
A A A A A A A A A A A Z Z Z Z Z Z Z Z Z Z Z Z Z Z Z

>  <atom.prop.IS_HEAVY_ATOM>  (2080) 
1 0 0 0 1 0 0 1 0 0 0 1 0 0 0 1 1 0 1 0 1 0 1 0 1 0

>  <DIFUSE_FUNC_ATOM>  (2080) 
n/a

>  <FINAL_SINGLE_POINT_ENERGY>  (2080) 
0

>  <NONCOV_INTER_ENERGY_QM>  (2080) 
0

>  <FF_Energy>  (2080) 
-4.58

>  <QM_Energy>  (2080) 
-11.66

>  <source>  (2080) 
ETAM_MBZ

>  <Index>  (2080) 
21476

$$$$
ETAM-pdb3l9q-A-LYS-369:MBZ-pdb3l9q-A-PHE-365
     RDKit          3D

 26 25  0  0  0  0  0  0  0  0999 V2000
   -1.0672    1.3338    3.7665 C   0  0  0  0  0  0  0  0  0  0  0  0
   -1.7317    1.5420    4.4748 H   0  0  0  0  0  0  0  0  0  0  0  0
   -1.3335    1.7477    2.9042 H   0  0  0  0  0  0  0  0  0  0  0  0
   -0.0928    1.7207    4.0646 H   0  0  0  0  0  0  0  0  0  0  0  0
   -1.0236   -0.1816    3.5786 C   0  0  0  0  0  0  0  0  0  0  0  0
   -0.3888   -0.3977    2.8354 H   0  0  0  0  0  0  0  0  0  0  0  0
   -0.6972   -0.6039    4.4250 H   0  0  0  0  0  0  0  0  0  0  0  0
   -2.3735   -0.7313    3.2456 N   0  0  0  0  0  4  0  0  0  0  0  0
   -2.8078   -0.1440    2.5653 H   0  0  0  0  0  0  0  0  0  0  0  0
   -2.2705   -1.6544    2.8792 H   0  0  0  0  0  0  0  0  0  0  0  0
   -2.9308   -0.7574    4.0734 H   0  0  0  0  0  0  0  0  0  0  0  0
    0.0398    2.9236   -0.0047 C   0  0  0  0  0  0  0  0  0  0  0  0
    0.4905    3.2040   -0.8423 H   0  0  0  0  0  0  0  0  0  0  0  0
    0.5564    3.2169    0.7888 H   0  0  0  0  0  0  0  0  0  0  0  0
   -0.9371    3.4059    0.0314 H   0  0  0  0  0  0  0  0  0  0  0  0
    0.0025    1.4068    0.0088 C   0  0  0  0  0  0  0  0  0  0  0  0
   -1.1942    0.7032   -0.0086 C   0  0  0  0  0  0  0  0  0  0  0  0
   -2.0613    1.1875   -0.0289 H   0  0  0  0  0  0  0  0  0  0  0  0
   -1.1981   -0.6988   -0.0000 C   0  0  0  0  0  0  0  0  0  0  0  0
   -2.0773   -1.1866    0.0108 H   0  0  0  0  0  0  0  0  0  0  0  0
    0.0014   -1.3987   -0.0044 C   0  0  0  0  0  0  0  0  0  0  0  0
   -0.0050   -2.3964   -0.0111 H   0  0  0  0  0  0  0  0  0  0  0  0
    1.1981   -0.7027   -0.0000 C   0  0  0  0  0  0  0  0  0  0  0  0
    2.0814   -1.1964    0.0018 H   0  0  0  0  0  0  0  0  0  0  0  0
    1.1904    0.6902    0.0043 C   0  0  0  0  0  0  0  0  0  0  0  0
    2.0653    1.1839    0.0035 H   0  0  0  0  0  0  0  0  0  0  0  0
  1  5  1  0
  5  8  1  0
  1  2  1  0
  1  3  1  0
  1  4  1  0
  5  6  1  0
  5  7  1  0
  8  9  1  0
  8 10  1  0
  8 11  1  0
 12 16  1  0
 16 17  2  0
 17 19  1  0
 19 21  2  0
 21 23  1  0
 23 25  2  0
 25 16  1  0
 12 13  1  0
 12 14  1  0
 12 15  1  0
 17 18  1  0
 19 20  1  0
 21 22  1  0
 23 24  1  0
 25 26  1  0
M  CHG  1   8   1
M  END
>  <PDB_ID>  (2081) 
pdb3l9q

>  <RESIDUE_NAME>  (2081) 
LYS   PHE

>  <FRAG_NAME>  (2081) 
ETAM   MBZ

>  <FRAG_ATOM_NUM>  (2081) 
fragi: 11  fragj: 15

>  <atom.prop.CHAIN_ID>  (2081) 
A A A A A A A A A A A Z Z Z Z Z Z Z Z Z Z Z Z Z Z Z

>  <atom.prop.IS_HEAVY_ATOM>  (2081) 
1 0 0 0 1 0 0 1 0 0 0 1 0 0 0 1 1 0 1 0 1 0 1 0 1 0

>  <DIFUSE_FUNC_ATOM>  (2081) 
n/a

>  <FINAL_SINGLE_POINT_ENERGY>  (2081) 
0

>  <NONCOV_INTER_ENERGY_QM>  (2081) 
0

>  <FF_Energy>  (2081) 
-5.38

>  <QM_Energy>  (2081) 
-11.63

>  <source>  (2081) 
ETAM_MBZ

>  <Index>  (2081) 
21503

$$$$
ETAM-pdb4i4t-F-LYS-341:MBZ-pdb4i4t-F-PHE-263
     RDKit          3D

 26 25  0  0  0  0  0  0  0  0999 V2000
    0.6781   -1.5240    3.7728 C   0  0  0  0  0  0  0  0  0  0  0  0
    0.9071   -1.4359    4.7109 H   0  0  0  0  0  0  0  0  0  0  0  0
    1.4556   -1.8002    3.2626 H   0  0  0  0  0  0  0  0  0  0  0  0
   -0.1053   -2.2743    3.6648 H   0  0  0  0  0  0  0  0  0  0  0  0
    0.2333   -0.1634    3.2622 C   0  0  0  0  0  0  0  0  0  0  0  0
    0.0593   -0.2200    2.3100 H   0  0  0  0  0  0  0  0  0  0  0  0
   -0.5699    0.1088    3.7345 H   0  0  0  0  0  0  0  0  0  0  0  0
    1.2782    0.8727    3.4846 N   0  0  0  0  0  4  0  0  0  0  0  0
    1.4538    0.9468    4.3536 H   0  0  0  0  0  0  0  0  0  0  0  0
    2.0265    0.6475    3.0575 H   0  0  0  0  0  0  0  0  0  0  0  0
    0.9962    1.6597    3.1787 H   0  0  0  0  0  0  0  0  0  0  0  0
    0.0015    2.9059   -0.0177 C   0  0  0  0  0  0  0  0  0  0  0  0
    0.7906    3.2144    0.4553 H   0  0  0  0  0  0  0  0  0  0  0  0
   -0.7990    3.2165    0.4339 H   0  0  0  0  0  0  0  0  0  0  0  0
    0.0158    3.3079   -1.0308 H   0  0  0  0  0  0  0  0  0  0  0  0
   -0.0010    1.3995    0.0115 C   0  0  0  0  0  0  0  0  0  0  0  0
   -1.1976    0.6920   -0.0064 C   0  0  0  0  0  0  0  0  0  0  0  0
   -2.0056    1.1534   -0.0061 H   0  0  0  0  0  0  0  0  0  0  0  0
   -1.1991   -0.6987    0.0000 C   0  0  0  0  0  0  0  0  0  0  0  0
   -2.0040   -1.1645   -0.0027 H   0  0  0  0  0  0  0  0  0  0  0  0
    0.0047   -1.3906   -0.0027 C   0  0  0  0  0  0  0  0  0  0  0  0
    0.0076   -2.3202    0.0025 H   0  0  0  0  0  0  0  0  0  0  0  0
    1.1991   -0.6947    0.0000 C   0  0  0  0  0  0  0  0  0  0  0  0
    2.0063   -1.1564    0.0017 H   0  0  0  0  0  0  0  0  0  0  0  0
    1.1939    0.6925   -0.0024 C   0  0  0  0  0  0  0  0  0  0  0  0
    2.0012    1.1553   -0.0016 H   0  0  0  0  0  0  0  0  0  0  0  0
  1  5  1  0
  5  8  1  0
  1  2  1  0
  1  3  1  0
  1  4  1  0
  5  6  1  0
  5  7  1  0
  8  9  1  0
  8 10  1  0
  8 11  1  0
 12 16  1  0
 16 17  2  0
 17 19  1  0
 19 21  2  0
 21 23  1  0
 23 25  2  0
 25 16  1  0
 12 13  1  0
 12 14  1  0
 12 15  1  0
 17 18  1  0
 19 20  1  0
 21 22  1  0
 23 24  1  0
 25 26  1  0
M  CHG  1   8   1
M  END
>  <PDB_ID>  (2082) 
pdb4i4t

>  <RESIDUE_NAME>  (2082) 
LYS   PHE

>  <FRAG_NAME>  (2082) 
ETAM   MBZ

>  <FRAG_ATOM_NUM>  (2082) 
fragi: 11  fragj: 15

>  <atom.prop.CHAIN_ID>  (2082) 
A A A A A A A A A A A Z Z Z Z Z Z Z Z Z Z Z Z Z Z Z

>  <atom.prop.IS_HEAVY_ATOM>  (2082) 
1 0 0 0 1 0 0 1 0 0 0 1 0 0 0 1 1 0 1 0 1 0 1 0 1 0

>  <DIFUSE_FUNC_ATOM>  (2082) 
n/a

>  <FINAL_SINGLE_POINT_ENERGY>  (2082) 
0

>  <NONCOV_INTER_ENERGY_QM>  (2082) 
0

>  <FF_Energy>  (2082) 
-5.15

>  <QM_Energy>  (2082) 
-12.8

>  <source>  (2082) 
ETAM_MBZ

>  <Index>  (2082) 
21505

$$$$
ETAM-pdb3k9d-D-LYS-264:MBZ-pdb3k9d-D-PHE-349
     RDKit          3D

 26 25  0  0  0  0  0  0  0  0999 V2000
    5.6766   -2.8614    0.0648 C   0  0  0  0  0  0  0  0  0  0  0  0
    5.6740   -2.5645    1.0154 H   0  0  0  0  0  0  0  0  0  0  0  0
    6.4774   -3.4243   -0.1171 H   0  0  0  0  0  0  0  0  0  0  0  0
    4.7792   -3.4506   -0.1236 H   0  0  0  0  0  0  0  0  0  0  0  0
    5.7468   -1.6214   -0.8267 C   0  0  0  0  0  0  0  0  0  0  0  0
    6.6094   -1.1326   -0.6296 H   0  0  0  0  0  0  0  0  0  0  0  0
    5.7777   -1.9208   -1.7931 H   0  0  0  0  0  0  0  0  0  0  0  0
    4.6031   -0.6817   -0.6459 N   0  0  0  0  0  4  0  0  0  0  0  0
    4.8863    0.2389   -0.9131 H   0  0  0  0  0  0  0  0  0  0  0  0
    3.8393   -0.9769   -1.2184 H   0  0  0  0  0  0  0  0  0  0  0  0
    4.3242   -0.6819    0.3133 H   0  0  0  0  0  0  0  0  0  0  0  0
   -0.0001    2.9087   -0.0047 C   0  0  0  0  0  0  0  0  0  0  0  0
   -0.7282    3.2148   -0.5992 H   0  0  0  0  0  0  0  0  0  0  0  0
    0.8822    3.2137   -0.3292 H   0  0  0  0  0  0  0  0  0  0  0  0
   -0.1645    3.3522    0.9774 H   0  0  0  0  0  0  0  0  0  0  0  0
   -0.0009    1.4054   -0.0014 C   0  0  0  0  0  0  0  0  0  0  0  0
   -1.1999    0.6987   -0.0019 C   0  0  0  0  0  0  0  0  0  0  0  0
   -2.0654    1.1858   -0.0049 H   0  0  0  0  0  0  0  0  0  0  0  0
   -1.2053   -0.6997   -0.0000 C   0  0  0  0  0  0  0  0  0  0  0  0
   -2.0783   -1.1919    0.0005 H   0  0  0  0  0  0  0  0  0  0  0  0
    0.0032   -1.3982    0.0033 C   0  0  0  0  0  0  0  0  0  0  0  0
   -0.0026   -2.3950    0.0074 H   0  0  0  0  0  0  0  0  0  0  0  0
    1.2053   -0.7003    0.0000 C   0  0  0  0  0  0  0  0  0  0  0  0
    2.0858   -1.1952   -0.0012 H   0  0  0  0  0  0  0  0  0  0  0  0
    1.1977    0.6942   -0.0000 C   0  0  0  0  0  0  0  0  0  0  0  0
    2.0659    1.1904    0.0005 H   0  0  0  0  0  0  0  0  0  0  0  0
  1  5  1  0
  5  8  1  0
  1  2  1  0
  1  3  1  0
  1  4  1  0
  5  6  1  0
  5  7  1  0
  8  9  1  0
  8 10  1  0
  8 11  1  0
 12 16  1  0
 16 17  2  0
 17 19  1  0
 19 21  2  0
 21 23  1  0
 23 25  2  0
 25 16  1  0
 12 13  1  0
 12 14  1  0
 12 15  1  0
 17 18  1  0
 19 20  1  0
 21 22  1  0
 23 24  1  0
 25 26  1  0
M  CHG  1   8   1
M  END
>  <PDB_ID>  (2083) 
pdb3k9d

>  <RESIDUE_NAME>  (2083) 
LYS   PHE

>  <FRAG_NAME>  (2083) 
ETAM   MBZ

>  <FRAG_ATOM_NUM>  (2083) 
fragi: 11  fragj: 15

>  <atom.prop.CHAIN_ID>  (2083) 
A A A A A A A A A A A Z Z Z Z Z Z Z Z Z Z Z Z Z Z Z

>  <atom.prop.IS_HEAVY_ATOM>  (2083) 
1 0 0 0 1 0 0 1 0 0 0 1 0 0 0 1 1 0 1 0 1 0 1 0 1 0

>  <DIFUSE_FUNC_ATOM>  (2083) 
n/a

>  <FINAL_SINGLE_POINT_ENERGY>  (2083) 
0

>  <NONCOV_INTER_ENERGY_QM>  (2083) 
0

>  <FF_Energy>  (2083) 
1.39

>  <QM_Energy>  (2083) 
-3.65

>  <source>  (2083) 
ETAM_MBZ

>  <Index>  (2083) 
21530

$$$$
ETAM-pdb4i8p-A-LYS-246:MBZ-pdb4i8p-A-PHE-242
     RDKit          3D

 26 25  0  0  0  0  0  0  0  0999 V2000
   -0.0896   -2.1439    3.4926 C   0  0  0  0  0  0  0  0  0  0  0  0
   -0.0115   -2.8873    4.1638 H   0  0  0  0  0  0  0  0  0  0  0  0
   -0.1884   -2.5435    2.5762 H   0  0  0  0  0  0  0  0  0  0  0  0
   -0.9876   -1.5687    3.7181 H   0  0  0  0  0  0  0  0  0  0  0  0
    1.1834   -1.3251    3.5278 C   0  0  0  0  0  0  0  0  0  0  0  0
    1.0833   -0.5388    2.9146 H   0  0  0  0  0  0  0  0  0  0  0  0
    1.3350   -0.9952    4.4615 H   0  0  0  0  0  0  0  0  0  0  0  0
    2.3537   -2.1329    3.1005 N   0  0  0  0  0  4  0  0  0  0  0  0
    2.2395   -2.4048    2.1444 H   0  0  0  0  0  0  0  0  0  0  0  0
    3.1869   -1.5880    3.1947 H   0  0  0  0  0  0  0  0  0  0  0  0
    2.4219   -2.9497    3.6742 H   0  0  0  0  0  0  0  0  0  0  0  0
   -0.0032    2.9195    0.0005 C   0  0  0  0  0  0  0  0  0  0  0  0
   -0.6292    3.2344   -0.6955 H   0  0  0  0  0  0  0  0  0  0  0  0
    0.9182    3.2316   -0.1725 H   0  0  0  0  0  0  0  0  0  0  0  0
   -0.3218    3.3598    0.9453 H   0  0  0  0  0  0  0  0  0  0  0  0
   -0.0010    1.4093   -0.0148 C   0  0  0  0  0  0  0  0  0  0  0  0
   -1.1977    0.6936   -0.0078 C   0  0  0  0  0  0  0  0  0  0  0  0
   -2.0656    1.1782   -0.0095 H   0  0  0  0  0  0  0  0  0  0  0  0
   -1.1968   -0.7045    0.0000 C   0  0  0  0  0  0  0  0  0  0  0  0
   -2.0749   -1.1952   -0.0062 H   0  0  0  0  0  0  0  0  0  0  0  0
    0.0006   -1.3932    0.0178 C   0  0  0  0  0  0  0  0  0  0  0  0
   -0.0033   -2.3959    0.0434 H   0  0  0  0  0  0  0  0  0  0  0  0
    1.1968   -0.7034   -0.0000 C   0  0  0  0  0  0  0  0  0  0  0  0
    2.0803   -1.1970   -0.0149 H   0  0  0  0  0  0  0  0  0  0  0  0
    1.1980    0.6982    0.0047 C   0  0  0  0  0  0  0  0  0  0  0  0
    2.0658    1.1876    0.0210 H   0  0  0  0  0  0  0  0  0  0  0  0
  1  5  1  0
  5  8  1  0
  1  2  1  0
  1  3  1  0
  1  4  1  0
  5  6  1  0
  5  7  1  0
  8  9  1  0
  8 10  1  0
  8 11  1  0
 12 16  1  0
 16 17  2  0
 17 19  1  0
 19 21  2  0
 21 23  1  0
 23 25  2  0
 25 16  1  0
 12 13  1  0
 12 14  1  0
 12 15  1  0
 17 18  1  0
 19 20  1  0
 21 22  1  0
 23 24  1  0
 25 26  1  0
M  CHG  1   8   1
M  END
>  <PDB_ID>  (2084) 
pdb4i8p

>  <RESIDUE_NAME>  (2084) 
LYS   PHE

>  <FRAG_NAME>  (2084) 
ETAM   MBZ

>  <FRAG_ATOM_NUM>  (2084) 
fragi: 11  fragj: 15

>  <atom.prop.CHAIN_ID>  (2084) 
A A A A A A A A A A A Z Z Z Z Z Z Z Z Z Z Z Z Z Z Z

>  <atom.prop.IS_HEAVY_ATOM>  (2084) 
1 0 0 0 1 0 0 1 0 0 0 1 0 0 0 1 1 0 1 0 1 0 1 0 1 0

>  <DIFUSE_FUNC_ATOM>  (2084) 
n/a

>  <FINAL_SINGLE_POINT_ENERGY>  (2084) 
0

>  <NONCOV_INTER_ENERGY_QM>  (2084) 
0

>  <FF_Energy>  (2084) 
-3.41

>  <QM_Energy>  (2084) 
-9.2

>  <source>  (2084) 
ETAM_MBZ

>  <Index>  (2084) 
21554

$$$$
ETAM-pdb3lbb-A-LYS-99:MBZ-pdb3lbb-A-PHE-64
     RDKit          3D

 26 25  0  0  0  0  0  0  0  0999 V2000
    3.1374    2.9505    3.6666 C   0  0  0  0  0  0  0  0  0  0  0  0
    2.7522    3.8541    3.6209 H   0  0  0  0  0  0  0  0  0  0  0  0
    4.0271    2.9022    3.2528 H   0  0  0  0  0  0  0  0  0  0  0  0
    3.1996    2.6327    4.7074 H   0  0  0  0  0  0  0  0  0  0  0  0
    2.2093    1.9924    2.9272 C   0  0  0  0  0  0  0  0  0  0  0  0
    1.2355    2.2083    3.1475 H   0  0  0  0  0  0  0  0  0  0  0  0
    2.3055    2.1207    1.9182 H   0  0  0  0  0  0  0  0  0  0  0  0
    2.3730    0.4175    3.1816 N   0  0  0  0  0  4  0  0  0  0  0  0
    3.2234    0.1592    2.7643 H   0  0  0  0  0  0  0  0  0  0  0  0
    2.3794    0.2967    4.1562 H   0  0  0  0  0  0  0  0  0  0  0  0
    1.5989   -0.0111    2.7547 H   0  0  0  0  0  0  0  0  0  0  0  0
    0.0011    2.8995    0.0365 C   0  0  0  0  0  0  0  0  0  0  0  0
    0.7200    3.2139    0.6362 H   0  0  0  0  0  0  0  0  0  0  0  0
   -0.8844    3.2183    0.3360 H   0  0  0  0  0  0  0  0  0  0  0  0
    0.1843    3.3519   -0.9381 H   0  0  0  0  0  0  0  0  0  0  0  0
    0.0015    1.4207    0.0129 C   0  0  0  0  0  0  0  0  0  0  0  0
   -1.2149    0.7287    0.0057 C   0  0  0  0  0  0  0  0  0  0  0  0
   -2.0725    1.2171    0.0034 H   0  0  0  0  0  0  0  0  0  0  0  0
   -1.2399   -0.6976   -0.0000 C   0  0  0  0  0  0  0  0  0  0  0  0
   -2.1075   -1.1774    0.0084 H   0  0  0  0  0  0  0  0  0  0  0  0
   -0.0059   -1.4371   -0.0163 C   0  0  0  0  0  0  0  0  0  0  0  0
   -0.0153   -2.4117   -0.0387 H   0  0  0  0  0  0  0  0  0  0  0  0
    1.2399   -0.7133   -0.0000 C   0  0  0  0  0  0  0  0  0  0  0  0
    2.1017   -1.2099    0.0140 H   0  0  0  0  0  0  0  0  0  0  0  0
    1.2193    0.6987   -0.0023 C   0  0  0  0  0  0  0  0  0  0  0  0
    2.0817    1.2001   -0.0156 H   0  0  0  0  0  0  0  0  0  0  0  0
  1  5  1  0
  5  8  1  0
  1  2  1  0
  1  3  1  0
  1  4  1  0
  5  6  1  0
  5  7  1  0
  8  9  1  0
  8 10  1  0
  8 11  1  0
 12 16  1  0
 16 17  2  0
 17 19  1  0
 19 21  2  0
 21 23  1  0
 23 25  2  0
 25 16  1  0
 12 13  1  0
 12 14  1  0
 12 15  1  0
 17 18  1  0
 19 20  1  0
 21 22  1  0
 23 24  1  0
 25 26  1  0
M  CHG  1   8   1
M  END
>  <PDB_ID>  (2085) 
pdb3lbb

>  <RESIDUE_NAME>  (2085) 
LYS   PHE

>  <FRAG_NAME>  (2085) 
ETAM   MBZ

>  <FRAG_ATOM_NUM>  (2085) 
fragi: 11  fragj: 15

>  <atom.prop.CHAIN_ID>  (2085) 
A A A A A A A A A A A Z Z Z Z Z Z Z Z Z Z Z Z Z Z Z

>  <atom.prop.IS_HEAVY_ATOM>  (2085) 
1 0 0 0 1 0 0 1 0 0 0 1 0 0 0 1 1 0 1 0 1 0 1 0 1 0

>  <DIFUSE_FUNC_ATOM>  (2085) 
n/a

>  <FINAL_SINGLE_POINT_ENERGY>  (2085) 
0

>  <NONCOV_INTER_ENERGY_QM>  (2085) 
0

>  <FF_Energy>  (2085) 
-4.31

>  <QM_Energy>  (2085) 
-9.97

>  <source>  (2085) 
ETAM_MBZ

>  <Index>  (2085) 
21560

$$$$
ETAM-pdb4i9b-A-LYS-333:MBZ-pdb4i9b-B-PHE-497
     RDKit          3D

 26 25  0  0  0  0  0  0  0  0999 V2000
    2.1665   -0.9247    4.9602 C   0  0  0  0  0  0  0  0  0  0  0  0
    1.8906   -1.8897    5.0762 H   0  0  0  0  0  0  0  0  0  0  0  0
    1.7140   -0.3838    5.6837 H   0  0  0  0  0  0  0  0  0  0  0  0
    3.2430   -0.8627    5.1190 H   0  0  0  0  0  0  0  0  0  0  0  0
    1.6872   -0.4388    3.6164 C   0  0  0  0  0  0  0  0  0  0  0  0
    2.0206    0.4938    3.4620 H   0  0  0  0  0  0  0  0  0  0  0  0
    2.0467   -1.0384    2.8984 H   0  0  0  0  0  0  0  0  0  0  0  0
    0.1964   -0.4379    3.5417 N   0  0  0  0  0  4  0  0  0  0  0  0
   -0.0862   -0.6612    2.6102 H   0  0  0  0  0  0  0  0  0  0  0  0
   -0.1653   -1.1196    4.1760 H   0  0  0  0  0  0  0  0  0  0  0  0
   -0.1451    0.4669    3.7895 H   0  0  0  0  0  0  0  0  0  0  0  0
    0.0020    2.9190   -0.0065 C   0  0  0  0  0  0  0  0  0  0  0  0
   -0.7244    3.2188   -0.6062 H   0  0  0  0  0  0  0  0  0  0  0  0
    0.8859    3.2216   -0.3298 H   0  0  0  0  0  0  0  0  0  0  0  0
   -0.1659    3.3773    0.9681 H   0  0  0  0  0  0  0  0  0  0  0  0
    0.0013    1.4069    0.0085 C   0  0  0  0  0  0  0  0  0  0  0  0
   -1.1979    0.6934   -0.0134 C   0  0  0  0  0  0  0  0  0  0  0  0
   -2.0636    1.1784   -0.0398 H   0  0  0  0  0  0  0  0  0  0  0  0
   -1.1959   -0.7036    0.0000 C   0  0  0  0  0  0  0  0  0  0  0  0
   -2.0743   -1.1954    0.0184 H   0  0  0  0  0  0  0  0  0  0  0  0
    0.0001   -1.3913   -0.0108 C   0  0  0  0  0  0  0  0  0  0  0  0
   -0.0011   -2.3940   -0.0271 H   0  0  0  0  0  0  0  0  0  0  0  0
    1.1959   -0.6993    0.0000 C   0  0  0  0  0  0  0  0  0  0  0  0
    2.0796   -1.1956   -0.0020 H   0  0  0  0  0  0  0  0  0  0  0  0
    1.1965    0.6939    0.0158 C   0  0  0  0  0  0  0  0  0  0  0  0
    2.0659    1.1857    0.0316 H   0  0  0  0  0  0  0  0  0  0  0  0
  1  5  1  0
  5  8  1  0
  1  2  1  0
  1  3  1  0
  1  4  1  0
  5  6  1  0
  5  7  1  0
  8  9  1  0
  8 10  1  0
  8 11  1  0
 12 16  1  0
 16 17  2  0
 17 19  1  0
 19 21  2  0
 21 23  1  0
 23 25  2  0
 25 16  1  0
 12 13  1  0
 12 14  1  0
 12 15  1  0
 17 18  1  0
 19 20  1  0
 21 22  1  0
 23 24  1  0
 25 26  1  0
M  CHG  1   8   1
M  END
>  <PDB_ID>  (2086) 
pdb4i9b

>  <RESIDUE_NAME>  (2086) 
LYS   PHE

>  <FRAG_NAME>  (2086) 
ETAM   MBZ

>  <FRAG_ATOM_NUM>  (2086) 
fragi: 11  fragj: 15

>  <atom.prop.CHAIN_ID>  (2086) 
A A A A A A A A A A A Z Z Z Z Z Z Z Z Z Z Z Z Z Z Z

>  <atom.prop.IS_HEAVY_ATOM>  (2086) 
1 0 0 0 1 0 0 1 0 0 0 1 0 0 0 1 1 0 1 0 1 0 1 0 1 0

>  <DIFUSE_FUNC_ATOM>  (2086) 
n/a

>  <FINAL_SINGLE_POINT_ENERGY>  (2086) 
0

>  <NONCOV_INTER_ENERGY_QM>  (2086) 
0

>  <FF_Energy>  (2086) 
-8.1

>  <QM_Energy>  (2086) 
-14.68

>  <source>  (2086) 
ETAM_MBZ

>  <Index>  (2086) 
21567

$$$$
ETAM-pdb3lbb-B-LYS-99:MBZ-pdb3lbb-B-PHE-64
     RDKit          3D

 26 25  0  0  0  0  0  0  0  0999 V2000
    3.3331    3.2693    3.2560 C   0  0  0  0  0  0  0  0  0  0  0  0
    2.9055    4.1644    3.2230 H   0  0  0  0  0  0  0  0  0  0  0  0
    4.2129    3.2836    2.7969 H   0  0  0  0  0  0  0  0  0  0  0  0
    3.4686    2.9689    4.2951 H   0  0  0  0  0  0  0  0  0  0  0  0
    2.4212    2.2798    2.5012 C   0  0  0  0  0  0  0  0  0  0  0  0
    1.4383    2.6060    2.5952 H   0  0  0  0  0  0  0  0  0  0  0  0
    2.6107    2.3745    1.4828 H   0  0  0  0  0  0  0  0  0  0  0  0
    2.4251    0.7661    2.8207 N   0  0  0  0  0  4  0  0  0  0  0  0
    3.3613    0.4973    2.9993 H   0  0  0  0  0  0  0  0  0  0  0  0
    1.8551    0.6240    3.6180 H   0  0  0  0  0  0  0  0  0  0  0  0
    2.0602    0.2901    2.0325 H   0  0  0  0  0  0  0  0  0  0  0  0
    0.0077    2.9247   -0.0074 C   0  0  0  0  0  0  0  0  0  0  0  0
    0.7874    3.2337    0.5065 H   0  0  0  0  0  0  0  0  0  0  0  0
   -0.8403    3.2341    0.3828 H   0  0  0  0  0  0  0  0  0  0  0  0
    0.0847    3.3286   -1.0169 H   0  0  0  0  0  0  0  0  0  0  0  0
    0.0052    1.4141    0.0184 C   0  0  0  0  0  0  0  0  0  0  0  0
   -1.1998    0.7119   -0.0128 C   0  0  0  0  0  0  0  0  0  0  0  0
   -2.0641    1.2019   -0.0456 H   0  0  0  0  0  0  0  0  0  0  0  0
   -1.2247   -0.7032   -0.0000 C   0  0  0  0  0  0  0  0  0  0  0  0
   -2.1021   -1.1765    0.0133 H   0  0  0  0  0  0  0  0  0  0  0  0
   -0.0210   -1.4101   -0.0039 C   0  0  0  0  0  0  0  0  0  0  0  0
   -0.0171   -2.4025   -0.0100 H   0  0  0  0  0  0  0  0  0  0  0  0
    1.2247   -0.7065   -0.0000 C   0  0  0  0  0  0  0  0  0  0  0  0
    2.0839   -1.2137    0.0053 H   0  0  0  0  0  0  0  0  0  0  0  0
    1.2155    0.6938   -0.0018 C   0  0  0  0  0  0  0  0  0  0  0  0
    2.0792    1.1927   -0.0179 H   0  0  0  0  0  0  0  0  0  0  0  0
  1  5  1  0
  5  8  1  0
  1  2  1  0
  1  3  1  0
  1  4  1  0
  5  6  1  0
  5  7  1  0
  8  9  1  0
  8 10  1  0
  8 11  1  0
 12 16  1  0
 16 17  2  0
 17 19  1  0
 19 21  2  0
 21 23  1  0
 23 25  2  0
 25 16  1  0
 12 13  1  0
 12 14  1  0
 12 15  1  0
 17 18  1  0
 19 20  1  0
 21 22  1  0
 23 24  1  0
 25 26  1  0
M  CHG  1   8   1
M  END
>  <PDB_ID>  (2087) 
pdb3lbb

>  <RESIDUE_NAME>  (2087) 
LYS   PHE

>  <FRAG_NAME>  (2087) 
ETAM   MBZ

>  <FRAG_ATOM_NUM>  (2087) 
fragi: 11  fragj: 15

>  <atom.prop.CHAIN_ID>  (2087) 
A A A A A A A A A A A Z Z Z Z Z Z Z Z Z Z Z Z Z Z Z

>  <atom.prop.IS_HEAVY_ATOM>  (2087) 
1 0 0 0 1 0 0 1 0 0 0 1 0 0 0 1 1 0 1 0 1 0 1 0 1 0

>  <DIFUSE_FUNC_ATOM>  (2087) 
n/a

>  <FINAL_SINGLE_POINT_ENERGY>  (2087) 
0

>  <NONCOV_INTER_ENERGY_QM>  (2087) 
0

>  <FF_Energy>  (2087) 
-2.17

>  <QM_Energy>  (2087) 
-10.39

>  <source>  (2087) 
ETAM_MBZ

>  <Index>  (2087) 
21579

$$$$
ETAM-pdb4ia5-B-LYS-237:MBZ-pdb4ia5-B-PHE-243
     RDKit          3D

 26 25  0  0  0  0  0  0  0  0999 V2000
   -2.4344   -0.7493   -3.1644 C   0  0  0  0  0  0  0  0  0  0  0  0
   -3.3379   -0.3377   -3.2431 H   0  0  0  0  0  0  0  0  0  0  0  0
   -2.2761   -1.0552   -2.2305 H   0  0  0  0  0  0  0  0  0  0  0  0
   -2.3730   -1.6056   -3.8361 H   0  0  0  0  0  0  0  0  0  0  0  0
   -1.3931    0.3068   -3.5073 C   0  0  0  0  0  0  0  0  0  0  0  0
   -1.4609    0.5218   -4.4929 H   0  0  0  0  0  0  0  0  0  0  0  0
   -1.6060    1.1515   -2.9940 H   0  0  0  0  0  0  0  0  0  0  0  0
    0.0056   -0.1070   -3.1977 N   0  0  0  0  0  4  0  0  0  0  0  0
    0.5483    0.7028   -2.9781 H   0  0  0  0  0  0  0  0  0  0  0  0
    0.0002   -0.7295   -2.4164 H   0  0  0  0  0  0  0  0  0  0  0  0
    0.3966   -0.5687   -3.9920 H   0  0  0  0  0  0  0  0  0  0  0  0
    0.0157    2.8926    0.0085 C   0  0  0  0  0  0  0  0  0  0  0  0
   -0.6075    3.2033   -0.6912 H   0  0  0  0  0  0  0  0  0  0  0  0
    0.9400    3.1904   -0.1696 H   0  0  0  0  0  0  0  0  0  0  0  0
   -0.2993    3.3314    0.9552 H   0  0  0  0  0  0  0  0  0  0  0  0
    0.0006    1.3943    0.0165 C   0  0  0  0  0  0  0  0  0  0  0  0
   -1.1924    0.6862   -0.0161 C   0  0  0  0  0  0  0  0  0  0  0  0
   -2.0592    1.1761   -0.0523 H   0  0  0  0  0  0  0  0  0  0  0  0
   -1.1932   -0.6985    0.0000 C   0  0  0  0  0  0  0  0  0  0  0  0
   -2.0704   -1.1945    0.0138 H   0  0  0  0  0  0  0  0  0  0  0  0
    0.0026   -1.3865   -0.0005 C   0  0  0  0  0  0  0  0  0  0  0  0
    0.0040   -2.3876   -0.0016 H   0  0  0  0  0  0  0  0  0  0  0  0
    1.1932   -0.6874   -0.0000 C   0  0  0  0  0  0  0  0  0  0  0  0
    2.0799   -1.1875    0.0020 H   0  0  0  0  0  0  0  0  0  0  0  0
    1.1891    0.6919    0.0000 C   0  0  0  0  0  0  0  0  0  0  0  0
    2.0593    1.1910   -0.0126 H   0  0  0  0  0  0  0  0  0  0  0  0
  1  5  1  0
  5  8  1  0
  1  2  1  0
  1  3  1  0
  1  4  1  0
  5  6  1  0
  5  7  1  0
  8  9  1  0
  8 10  1  0
  8 11  1  0
 12 16  1  0
 16 17  2  0
 17 19  1  0
 19 21  2  0
 21 23  1  0
 23 25  2  0
 25 16  1  0
 12 13  1  0
 12 14  1  0
 12 15  1  0
 17 18  1  0
 19 20  1  0
 21 22  1  0
 23 24  1  0
 25 26  1  0
M  CHG  1   8   1
M  END
>  <PDB_ID>  (2088) 
pdb4ia5

>  <RESIDUE_NAME>  (2088) 
LYS   PHE

>  <FRAG_NAME>  (2088) 
ETAM   MBZ

>  <FRAG_ATOM_NUM>  (2088) 
fragi: 11  fragj: 15

>  <atom.prop.CHAIN_ID>  (2088) 
A A A A A A A A A A A Z Z Z Z Z Z Z Z Z Z Z Z Z Z Z

>  <atom.prop.IS_HEAVY_ATOM>  (2088) 
1 0 0 0 1 0 0 1 0 0 0 1 0 0 0 1 1 0 1 0 1 0 1 0 1 0

>  <DIFUSE_FUNC_ATOM>  (2088) 
n/a

>  <FINAL_SINGLE_POINT_ENERGY>  (2088) 
0

>  <NONCOV_INTER_ENERGY_QM>  (2088) 
0

>  <FF_Energy>  (2088) 
-8.66

>  <QM_Energy>  (2088) 
-16.58

>  <source>  (2088) 
ETAM_MBZ

>  <Index>  (2088) 
21585

$$$$
ETAM-pdb3ldu-A-LYS-116:MBZ-pdb3ldu-A-PHE-93
     RDKit          3D

 26 25  0  0  0  0  0  0  0  0999 V2000
   -3.9117   -0.7827    2.8010 C   0  0  0  0  0  0  0  0  0  0  0  0
   -3.7897   -0.6854    1.8200 H   0  0  0  0  0  0  0  0  0  0  0  0
   -4.1201    0.0948    3.2164 H   0  0  0  0  0  0  0  0  0  0  0  0
   -4.7347   -1.4718    2.9906 H   0  0  0  0  0  0  0  0  0  0  0  0
   -2.5977   -1.2992    3.4008 C   0  0  0  0  0  0  0  0  0  0  0  0
   -2.7688   -1.5872    4.3510 H   0  0  0  0  0  0  0  0  0  0  0  0
   -2.2986   -2.1061    2.8759 H   0  0  0  0  0  0  0  0  0  0  0  0
   -1.4960   -0.2799    3.3931 N   0  0  0  0  0  4  0  0  0  0  0  0
   -1.0304   -0.2978    4.2748 H   0  0  0  0  0  0  0  0  0  0  0  0
   -0.8521   -0.5027    2.6651 H   0  0  0  0  0  0  0  0  0  0  0  0
   -1.8892    0.6232    3.2344 H   0  0  0  0  0  0  0  0  0  0  0  0
   -0.0009    2.9189   -0.0254 C   0  0  0  0  0  0  0  0  0  0  0  0
   -0.8905    3.2207   -0.3349 H   0  0  0  0  0  0  0  0  0  0  0  0
    0.7131    3.2133   -0.6435 H   0  0  0  0  0  0  0  0  0  0  0  0
    0.1866    3.3869    0.9411 H   0  0  0  0  0  0  0  0  0  0  0  0
   -0.0028    1.4061   -0.0022 C   0  0  0  0  0  0  0  0  0  0  0  0
   -1.1958    0.6972   -0.0039 C   0  0  0  0  0  0  0  0  0  0  0  0
   -2.0643    1.1830   -0.0088 H   0  0  0  0  0  0  0  0  0  0  0  0
   -1.1965   -0.6962    0.0000 C   0  0  0  0  0  0  0  0  0  0  0  0
   -2.0726   -1.1917   -0.0010 H   0  0  0  0  0  0  0  0  0  0  0  0
    0.0088   -1.3973    0.0073 C   0  0  0  0  0  0  0  0  0  0  0  0
   -0.0030   -2.3953    0.0172 H   0  0  0  0  0  0  0  0  0  0  0  0
    1.1965   -0.7033    0.0000 C   0  0  0  0  0  0  0  0  0  0  0  0
    2.0846   -1.1919   -0.0027 H   0  0  0  0  0  0  0  0  0  0  0  0
    1.1897    0.6935   -0.0012 C   0  0  0  0  0  0  0  0  0  0  0  0
    2.0612    1.1865   -0.0018 H   0  0  0  0  0  0  0  0  0  0  0  0
  1  5  1  0
  5  8  1  0
  1  2  1  0
  1  3  1  0
  1  4  1  0
  5  6  1  0
  5  7  1  0
  8  9  1  0
  8 10  1  0
  8 11  1  0
 12 16  1  0
 16 17  2  0
 17 19  1  0
 19 21  2  0
 21 23  1  0
 23 25  2  0
 25 16  1  0
 12 13  1  0
 12 14  1  0
 12 15  1  0
 17 18  1  0
 19 20  1  0
 21 22  1  0
 23 24  1  0
 25 26  1  0
M  CHG  1   8   1
M  END
>  <PDB_ID>  (2089) 
pdb3ldu

>  <RESIDUE_NAME>  (2089) 
LYS   PHE

>  <FRAG_NAME>  (2089) 
ETAM   MBZ

>  <FRAG_ATOM_NUM>  (2089) 
fragi: 11  fragj: 15

>  <atom.prop.CHAIN_ID>  (2089) 
A A A A A A A A A A A Z Z Z Z Z Z Z Z Z Z Z Z Z Z Z

>  <atom.prop.IS_HEAVY_ATOM>  (2089) 
1 0 0 0 1 0 0 1 0 0 0 1 0 0 0 1 1 0 1 0 1 0 1 0 1 0

>  <DIFUSE_FUNC_ATOM>  (2089) 
n/a

>  <FINAL_SINGLE_POINT_ENERGY>  (2089) 
0

>  <NONCOV_INTER_ENERGY_QM>  (2089) 
0

>  <FF_Energy>  (2089) 
-6.87

>  <QM_Energy>  (2089) 
-13.31

>  <source>  (2089) 
ETAM_MBZ

>  <Index>  (2089) 
21621

$$$$
ETAM-pdb4icu-C-LYS-510:MBZ-pdb4icu-C-PHE-514
     RDKit          3D

 26 25  0  0  0  0  0  0  0  0999 V2000
    0.4151    0.1049   -3.7882 C   0  0  0  0  0  0  0  0  0  0  0  0
    0.0057    0.6035   -3.0327 H   0  0  0  0  0  0  0  0  0  0  0  0
    0.1291    0.4931   -4.6576 H   0  0  0  0  0  0  0  0  0  0  0  0
    1.4996    0.1795   -3.7098 H   0  0  0  0  0  0  0  0  0  0  0  0
   -0.0523   -1.3443   -3.7256 C   0  0  0  0  0  0  0  0  0  0  0  0
    0.4005   -1.8644   -4.4523 H   0  0  0  0  0  0  0  0  0  0  0  0
    0.2046   -1.7311   -2.8377 H   0  0  0  0  0  0  0  0  0  0  0  0
   -1.5353   -1.4589   -3.8960 N   0  0  0  0  0  4  0  0  0  0  0  0
   -1.7888   -2.4245   -3.9142 H   0  0  0  0  0  0  0  0  0  0  0  0
   -1.9883   -1.0042   -3.1314 H   0  0  0  0  0  0  0  0  0  0  0  0
   -1.8005   -1.0229   -4.7539 H   0  0  0  0  0  0  0  0  0  0  0  0
    0.0016    2.9091    0.0308 C   0  0  0  0  0  0  0  0  0  0  0  0
   -0.7770    3.2321   -0.4820 H   0  0  0  0  0  0  0  0  0  0  0  0
    0.8510    3.2263   -0.3578 H   0  0  0  0  0  0  0  0  0  0  0  0
   -0.0735    3.3201    1.0375 H   0  0  0  0  0  0  0  0  0  0  0  0
   -0.0007    1.4095   -0.0035 C   0  0  0  0  0  0  0  0  0  0  0  0
   -1.2043    0.7039   -0.0017 C   0  0  0  0  0  0  0  0  0  0  0  0
   -2.0681    1.1885   -0.0027 H   0  0  0  0  0  0  0  0  0  0  0  0
   -1.2069   -0.7014   -0.0000 C   0  0  0  0  0  0  0  0  0  0  0  0
   -2.0807   -1.1921    0.0013 H   0  0  0  0  0  0  0  0  0  0  0  0
    0.0034   -1.4024    0.0011 C   0  0  0  0  0  0  0  0  0  0  0  0
   -0.0031   -2.3993    0.0023 H   0  0  0  0  0  0  0  0  0  0  0  0
    1.2069   -0.7042    0.0000 C   0  0  0  0  0  0  0  0  0  0  0  0
    2.0877   -1.1987   -0.0023 H   0  0  0  0  0  0  0  0  0  0  0  0
    1.2017    0.6947    0.0041 C   0  0  0  0  0  0  0  0  0  0  0  0
    2.0685    1.1893    0.0109 H   0  0  0  0  0  0  0  0  0  0  0  0
  1  5  1  0
  5  8  1  0
  1  2  1  0
  1  3  1  0
  1  4  1  0
  5  6  1  0
  5  7  1  0
  8  9  1  0
  8 10  1  0
  8 11  1  0
 12 16  1  0
 16 17  2  0
 17 19  1  0
 19 21  2  0
 21 23  1  0
 23 25  2  0
 25 16  1  0
 12 13  1  0
 12 14  1  0
 12 15  1  0
 17 18  1  0
 19 20  1  0
 21 22  1  0
 23 24  1  0
 25 26  1  0
M  CHG  1   8   1
M  END
>  <PDB_ID>  (2090) 
pdb4icu

>  <RESIDUE_NAME>  (2090) 
LYS   PHE

>  <FRAG_NAME>  (2090) 
ETAM   MBZ

>  <FRAG_ATOM_NUM>  (2090) 
fragi: 11  fragj: 15

>  <atom.prop.CHAIN_ID>  (2090) 
A A A A A A A A A A A Z Z Z Z Z Z Z Z Z Z Z Z Z Z Z

>  <atom.prop.IS_HEAVY_ATOM>  (2090) 
1 0 0 0 1 0 0 1 0 0 0 1 0 0 0 1 1 0 1 0 1 0 1 0 1 0

>  <DIFUSE_FUNC_ATOM>  (2090) 
n/a

>  <FINAL_SINGLE_POINT_ENERGY>  (2090) 
0

>  <NONCOV_INTER_ENERGY_QM>  (2090) 
0

>  <FF_Energy>  (2090) 
-5.29

>  <QM_Energy>  (2090) 
-10.46

>  <source>  (2090) 
ETAM_MBZ

>  <Index>  (2090) 
21630

$$$$
ETAM-pdb3ler-A-LYS-257:MBZ-pdb3ler-A-PHE-17
     RDKit          3D

 26 25  0  0  0  0  0  0  0  0999 V2000
   -5.7004    0.3177    3.5156 C   0  0  0  0  0  0  0  0  0  0  0  0
   -6.0129   -0.4526    2.9668 H   0  0  0  0  0  0  0  0  0  0  0  0
   -5.9620    1.1752    3.0837 H   0  0  0  0  0  0  0  0  0  0  0  0
   -6.1884    0.2626    4.4887 H   0  0  0  0  0  0  0  0  0  0  0  0
   -4.1923    0.2629    3.6320 C   0  0  0  0  0  0  0  0  0  0  0  0
   -3.8680    1.1011    4.0846 H   0  0  0  0  0  0  0  0  0  0  0  0
   -3.9358   -0.5265    4.2019 H   0  0  0  0  0  0  0  0  0  0  0  0
   -3.5303    0.1399    2.3070 N   0  0  0  0  0  4  0  0  0  0  0  0
   -3.1337    1.0212    2.0507 H   0  0  0  0  0  0  0  0  0  0  0  0
   -2.8078   -0.5489    2.3589 H   0  0  0  0  0  0  0  0  0  0  0  0
   -4.2051   -0.1344    1.6219 H   0  0  0  0  0  0  0  0  0  0  0  0
    0.0040    2.9068   -0.0029 C   0  0  0  0  0  0  0  0  0  0  0  0
   -0.9234    3.2145   -0.1616 H   0  0  0  0  0  0  0  0  0  0  0  0
    0.6082    3.2111   -0.7262 H   0  0  0  0  0  0  0  0  0  0  0  0
    0.3482    3.3599    0.9268 H   0  0  0  0  0  0  0  0  0  0  0  0
    0.0027    1.4042    0.0038 C   0  0  0  0  0  0  0  0  0  0  0  0
   -1.1989    0.6919   -0.0019 C   0  0  0  0  0  0  0  0  0  0  0  0
   -2.0646    1.1773   -0.0083 H   0  0  0  0  0  0  0  0  0  0  0  0
   -1.1999   -0.7096    0.0000 C   0  0  0  0  0  0  0  0  0  0  0  0
   -2.0752   -1.2005    0.0017 H   0  0  0  0  0  0  0  0  0  0  0  0
    0.0029   -1.3956    0.0013 C   0  0  0  0  0  0  0  0  0  0  0  0
    0.0090   -2.3942    0.0023 H   0  0  0  0  0  0  0  0  0  0  0  0
    1.1999   -0.6885   -0.0000 C   0  0  0  0  0  0  0  0  0  0  0  0
    2.0850   -1.1860    0.0024 H   0  0  0  0  0  0  0  0  0  0  0  0
    1.1933    0.6976   -0.0032 C   0  0  0  0  0  0  0  0  0  0  0  0
    2.0638    1.1951   -0.0112 H   0  0  0  0  0  0  0  0  0  0  0  0
  1  5  1  0
  5  8  1  0
  1  2  1  0
  1  3  1  0
  1  4  1  0
  5  6  1  0
  5  7  1  0
  8  9  1  0
  8 10  1  0
  8 11  1  0
 12 16  1  0
 16 17  2  0
 17 19  1  0
 19 21  2  0
 21 23  1  0
 23 25  2  0
 25 16  1  0
 12 13  1  0
 12 14  1  0
 12 15  1  0
 17 18  1  0
 19 20  1  0
 21 22  1  0
 23 24  1  0
 25 26  1  0
M  CHG  1   8   1
M  END
>  <PDB_ID>  (2091) 
pdb3ler

>  <RESIDUE_NAME>  (2091) 
LYS   PHE

>  <FRAG_NAME>  (2091) 
ETAM   MBZ

>  <FRAG_ATOM_NUM>  (2091) 
fragi: 11  fragj: 15

>  <atom.prop.CHAIN_ID>  (2091) 
A A A A A A A A A A A Z Z Z Z Z Z Z Z Z Z Z Z Z Z Z

>  <atom.prop.IS_HEAVY_ATOM>  (2091) 
1 0 0 0 1 0 0 1 0 0 0 1 0 0 0 1 1 0 1 0 1 0 1 0 1 0

>  <DIFUSE_FUNC_ATOM>  (2091) 
n/a

>  <FINAL_SINGLE_POINT_ENERGY>  (2091) 
0

>  <NONCOV_INTER_ENERGY_QM>  (2091) 
0

>  <FF_Energy>  (2091) 
-1.4

>  <QM_Energy>  (2091) 
-7.34

>  <source>  (2091) 
ETAM_MBZ

>  <Index>  (2091) 
21633

$$$$
ETAM-pdb3lfh-C-LYS-127:MBZ-pdb3lfh-D-PHE-71
     RDKit          3D

 26 25  0  0  0  0  0  0  0  0999 V2000
    1.2345    0.3337    3.4547 C   0  0  0  0  0  0  0  0  0  0  0  0
    1.2317    0.5794    2.4868 H   0  0  0  0  0  0  0  0  0  0  0  0
    1.4990   -0.6240    3.5582 H   0  0  0  0  0  0  0  0  0  0  0  0
    1.9693    0.9544    3.9674 H   0  0  0  0  0  0  0  0  0  0  0  0
   -0.1603    0.5173    4.0095 C   0  0  0  0  0  0  0  0  0  0  0  0
   -0.1626    0.2709    4.9772 H   0  0  0  0  0  0  0  0  0  0  0  0
   -0.4310    1.4740    3.9065 H   0  0  0  0  0  0  0  0  0  0  0  0
   -1.1258   -0.3451    3.2815 N   0  0  0  0  0  4  0  0  0  0  0  0
   -2.0192   -0.2949    3.7284 H   0  0  0  0  0  0  0  0  0  0  0  0
   -1.2075   -0.0306    2.3369 H   0  0  0  0  0  0  0  0  0  0  0  0
   -0.8006   -1.2911    3.2915 H   0  0  0  0  0  0  0  0  0  0  0  0
   -0.0008    2.8933   -0.0002 C   0  0  0  0  0  0  0  0  0  0  0  0
    0.7337    3.2005    0.5875 H   0  0  0  0  0  0  0  0  0  0  0  0
   -0.8796    3.2014    0.3355 H   0  0  0  0  0  0  0  0  0  0  0  0
    0.1533    3.3346   -0.9849 H   0  0  0  0  0  0  0  0  0  0  0  0
   -0.0013    1.3941    0.0008 C   0  0  0  0  0  0  0  0  0  0  0  0
   -1.1905    0.6886   -0.0013 C   0  0  0  0  0  0  0  0  0  0  0  0
   -2.0593    1.1790   -0.0049 H   0  0  0  0  0  0  0  0  0  0  0  0
   -1.1924   -0.6924   -0.0000 C   0  0  0  0  0  0  0  0  0  0  0  0
   -2.0703   -1.1896    0.0028 H   0  0  0  0  0  0  0  0  0  0  0  0
    0.0025   -1.3836   -0.0004 C   0  0  0  0  0  0  0  0  0  0  0  0
   -0.0041   -2.3867   -0.0016 H   0  0  0  0  0  0  0  0  0  0  0  0
    1.1924   -0.6951   -0.0000 C   0  0  0  0  0  0  0  0  0  0  0  0
    2.0775   -1.1923    0.0014 H   0  0  0  0  0  0  0  0  0  0  0  0
    1.1892    0.6885    0.0009 C   0  0  0  0  0  0  0  0  0  0  0  0
    2.0595    1.1851    0.0007 H   0  0  0  0  0  0  0  0  0  0  0  0
  1  5  1  0
  5  8  1  0
  1  2  1  0
  1  3  1  0
  1  4  1  0
  5  6  1  0
  5  7  1  0
  8  9  1  0
  8 10  1  0
  8 11  1  0
 12 16  1  0
 16 17  2  0
 17 19  1  0
 19 21  2  0
 21 23  1  0
 23 25  2  0
 25 16  1  0
 12 13  1  0
 12 14  1  0
 12 15  1  0
 17 18  1  0
 19 20  1  0
 21 22  1  0
 23 24  1  0
 25 26  1  0
M  CHG  1   8   1
M  END
>  <PDB_ID>  (2092) 
pdb3lfh

>  <RESIDUE_NAME>  (2092) 
LYS   PHE

>  <FRAG_NAME>  (2092) 
ETAM   MBZ

>  <FRAG_ATOM_NUM>  (2092) 
fragi: 11  fragj: 15

>  <atom.prop.CHAIN_ID>  (2092) 
A A A A A A A A A A A Z Z Z Z Z Z Z Z Z Z Z Z Z Z Z

>  <atom.prop.IS_HEAVY_ATOM>  (2092) 
1 0 0 0 1 0 0 1 0 0 0 1 0 0 0 1 1 0 1 0 1 0 1 0 1 0

>  <DIFUSE_FUNC_ATOM>  (2092) 
n/a

>  <FINAL_SINGLE_POINT_ENERGY>  (2092) 
0

>  <NONCOV_INTER_ENERGY_QM>  (2092) 
0

>  <FF_Energy>  (2092) 
-7.51

>  <QM_Energy>  (2092) 
-15.16

>  <source>  (2092) 
ETAM_MBZ

>  <Index>  (2092) 
21643

$$$$
ETAM-pdb3lfh-E-LYS-127:MBZ-pdb3lfh-F-PHE-71
     RDKit          3D

 26 25  0  0  0  0  0  0  0  0999 V2000
    0.9694    0.2861    3.3510 C   0  0  0  0  0  0  0  0  0  0  0  0
    0.8928    0.7907    2.4993 H   0  0  0  0  0  0  0  0  0  0  0  0
    1.1648   -0.6709    3.1754 H   0  0  0  0  0  0  0  0  0  0  0  0
    1.7801    0.7115    3.9425 H   0  0  0  0  0  0  0  0  0  0  0  0
   -0.3689    0.3787    4.0898 C   0  0  0  0  0  0  0  0  0  0  0  0
   -0.2827   -0.0951    4.9727 H   0  0  0  0  0  0  0  0  0  0  0  0
   -0.5747    1.3473    4.2646 H   0  0  0  0  0  0  0  0  0  0  0  0
   -1.4982   -0.2282    3.3183 N   0  0  0  0  0  4  0  0  0  0  0  0
   -1.4695    0.1061    2.3784 H   0  0  0  0  0  0  0  0  0  0  0  0
   -1.4041   -1.2223    3.3266 H   0  0  0  0  0  0  0  0  0  0  0  0
   -2.3631    0.0324    3.7442 H   0  0  0  0  0  0  0  0  0  0  0  0
    0.0026    2.8957   -0.0053 C   0  0  0  0  0  0  0  0  0  0  0  0
    0.7069    3.2058    0.6154 H   0  0  0  0  0  0  0  0  0  0  0  0
   -0.8916    3.2063    0.2790 H   0  0  0  0  0  0  0  0  0  0  0  0
    0.2080    3.3302   -0.9837 H   0  0  0  0  0  0  0  0  0  0  0  0
    0.0010    1.3950    0.0020 C   0  0  0  0  0  0  0  0  0  0  0  0
   -1.1902    0.6922    0.0001 C   0  0  0  0  0  0  0  0  0  0  0  0
   -2.0583    1.1833   -0.0024 H   0  0  0  0  0  0  0  0  0  0  0  0
   -1.1944   -0.6916   -0.0000 C   0  0  0  0  0  0  0  0  0  0  0  0
   -2.0753   -1.1856    0.0031 H   0  0  0  0  0  0  0  0  0  0  0  0
   -0.0019   -1.3866   -0.0027 C   0  0  0  0  0  0  0  0  0  0  0  0
   -0.0075   -2.3882   -0.0075 H   0  0  0  0  0  0  0  0  0  0  0  0
    1.1944   -0.6967   -0.0000 C   0  0  0  0  0  0  0  0  0  0  0  0
    2.0763   -1.1969    0.0027 H   0  0  0  0  0  0  0  0  0  0  0  0
    1.1912    0.6877    0.0006 C   0  0  0  0  0  0  0  0  0  0  0  0
    2.0624    1.1843   -0.0013 H   0  0  0  0  0  0  0  0  0  0  0  0
  1  5  1  0
  5  8  1  0
  1  2  1  0
  1  3  1  0
  1  4  1  0
  5  6  1  0
  5  7  1  0
  8  9  1  0
  8 10  1  0
  8 11  1  0
 12 16  1  0
 16 17  2  0
 17 19  1  0
 19 21  2  0
 21 23  1  0
 23 25  2  0
 25 16  1  0
 12 13  1  0
 12 14  1  0
 12 15  1  0
 17 18  1  0
 19 20  1  0
 21 22  1  0
 23 24  1  0
 25 26  1  0
M  CHG  1   8   1
M  END
>  <PDB_ID>  (2093) 
pdb3lfh

>  <RESIDUE_NAME>  (2093) 
LYS   PHE

>  <FRAG_NAME>  (2093) 
ETAM   MBZ

>  <FRAG_ATOM_NUM>  (2093) 
fragi: 11  fragj: 15

>  <atom.prop.CHAIN_ID>  (2093) 
A A A A A A A A A A A Z Z Z Z Z Z Z Z Z Z Z Z Z Z Z

>  <atom.prop.IS_HEAVY_ATOM>  (2093) 
1 0 0 0 1 0 0 1 0 0 0 1 0 0 0 1 1 0 1 0 1 0 1 0 1 0

>  <DIFUSE_FUNC_ATOM>  (2093) 
n/a

>  <FINAL_SINGLE_POINT_ENERGY>  (2093) 
0

>  <NONCOV_INTER_ENERGY_QM>  (2093) 
0

>  <FF_Energy>  (2093) 
-6.6

>  <QM_Energy>  (2093) 
-13.93

>  <source>  (2093) 
ETAM_MBZ

>  <Index>  (2093) 
21647

$$$$
ETAM-pdb3lfh-F-LYS-127:MBZ-pdb3lfh-E-PHE-71
     RDKit          3D

 26 25  0  0  0  0  0  0  0  0999 V2000
    2.7706    0.6393    3.0924 C   0  0  0  0  0  0  0  0  0  0  0  0
    2.3336    0.9829    2.2593 H   0  0  0  0  0  0  0  0  0  0  0  0
    3.1813   -0.2550    2.9037 H   0  0  0  0  0  0  0  0  0  0  0  0
    3.5582    1.3329    3.3867 H   0  0  0  0  0  0  0  0  0  0  0  0
    1.7129    0.4677    4.1577 C   0  0  0  0  0  0  0  0  0  0  0  0
    2.1413    0.1194    4.9923 H   0  0  0  0  0  0  0  0  0  0  0  0
    1.2921    1.3559    4.3486 H   0  0  0  0  0  0  0  0  0  0  0  0
    0.6644   -0.4828    3.7128 N   0  0  0  0  0  4  0  0  0  0  0  0
    0.0038   -0.6213    4.4512 H   0  0  0  0  0  0  0  0  0  0  0  0
    0.1951   -0.1112    2.9106 H   0  0  0  0  0  0  0  0  0  0  0  0
    1.0866   -1.3582    3.4754 H   0  0  0  0  0  0  0  0  0  0  0  0
    0.0017    2.9061    0.0032 C   0  0  0  0  0  0  0  0  0  0  0  0
    0.9087    3.2089    0.2541 H   0  0  0  0  0  0  0  0  0  0  0  0
   -0.6727    3.2074    0.6600 H   0  0  0  0  0  0  0  0  0  0  0  0
   -0.2462    3.3509   -0.9605 H   0  0  0  0  0  0  0  0  0  0  0  0
    0.0013    1.3991   -0.0021 C   0  0  0  0  0  0  0  0  0  0  0  0
   -1.1914    0.6897    0.0008 C   0  0  0  0  0  0  0  0  0  0  0  0
   -2.0605    1.1792    0.0022 H   0  0  0  0  0  0  0  0  0  0  0  0
   -1.1954   -0.6989   -0.0000 C   0  0  0  0  0  0  0  0  0  0  0  0
   -2.0748   -1.1917    0.0006 H   0  0  0  0  0  0  0  0  0  0  0  0
   -0.0012   -1.3891   -0.0006 C   0  0  0  0  0  0  0  0  0  0  0  0
   -0.0020   -2.3903   -0.0019 H   0  0  0  0  0  0  0  0  0  0  0  0
    1.1954   -0.6944   -0.0000 C   0  0  0  0  0  0  0  0  0  0  0  0
    2.0782   -1.1913    0.0004 H   0  0  0  0  0  0  0  0  0  0  0  0
    1.1912    0.6936    0.0018 C   0  0  0  0  0  0  0  0  0  0  0  0
    2.0624    1.1884    0.0054 H   0  0  0  0  0  0  0  0  0  0  0  0
  1  5  1  0
  5  8  1  0
  1  2  1  0
  1  3  1  0
  1  4  1  0
  5  6  1  0
  5  7  1  0
  8  9  1  0
  8 10  1  0
  8 11  1  0
 12 16  1  0
 16 17  2  0
 17 19  1  0
 19 21  2  0
 21 23  1  0
 23 25  2  0
 25 16  1  0
 12 13  1  0
 12 14  1  0
 12 15  1  0
 17 18  1  0
 19 20  1  0
 21 22  1  0
 23 24  1  0
 25 26  1  0
M  CHG  1   8   1
M  END
>  <PDB_ID>  (2094) 
pdb3lfh

>  <RESIDUE_NAME>  (2094) 
LYS   PHE

>  <FRAG_NAME>  (2094) 
ETAM   MBZ

>  <FRAG_ATOM_NUM>  (2094) 
fragi: 11  fragj: 15

>  <atom.prop.CHAIN_ID>  (2094) 
A A A A A A A A A A A Z Z Z Z Z Z Z Z Z Z Z Z Z Z Z

>  <atom.prop.IS_HEAVY_ATOM>  (2094) 
1 0 0 0 1 0 0 1 0 0 0 1 0 0 0 1 1 0 1 0 1 0 1 0 1 0

>  <DIFUSE_FUNC_ATOM>  (2094) 
n/a

>  <FINAL_SINGLE_POINT_ENERGY>  (2094) 
0

>  <NONCOV_INTER_ENERGY_QM>  (2094) 
0

>  <FF_Energy>  (2094) 
-6.51

>  <QM_Energy>  (2094) 
-11.63

>  <source>  (2094) 
ETAM_MBZ

>  <Index>  (2094) 
21648

$$$$
ETAM-pdb4i99-B-LYS-1139:MBZ-pdb4i99-D-PHE-204
     RDKit          3D

 26 25  0  0  0  0  0  0  0  0999 V2000
   -0.6148   -2.9114    2.8058 C   0  0  0  0  0  0  0  0  0  0  0  0
   -0.2053   -3.8097    2.6757 H   0  0  0  0  0  0  0  0  0  0  0  0
   -0.5836   -2.3924    1.9571 H   0  0  0  0  0  0  0  0  0  0  0  0
   -1.6550   -3.0372    3.1062 H   0  0  0  0  0  0  0  0  0  0  0  0
    0.1894   -2.1619    3.8600 C   0  0  0  0  0  0  0  0  0  0  0  0
   -0.2229   -1.2609    4.0032 H   0  0  0  0  0  0  0  0  0  0  0  0
    0.1599   -2.6772    4.7183 H   0  0  0  0  0  0  0  0  0  0  0  0
    1.6113   -1.9892    3.4418 N   0  0  0  0  0  4  0  0  0  0  0  0
    2.2114   -2.3165    4.1708 H   0  0  0  0  0  0  0  0  0  0  0  0
    1.7764   -2.5157    2.6091 H   0  0  0  0  0  0  0  0  0  0  0  0
    1.7887   -1.0212    3.2691 H   0  0  0  0  0  0  0  0  0  0  0  0
   -0.0003    2.9085    0.0040 C   0  0  0  0  0  0  0  0  0  0  0  0
    0.9352    3.2146   -0.0775 H   0  0  0  0  0  0  0  0  0  0  0  0
   -0.4084    3.2125    0.8512 H   0  0  0  0  0  0  0  0  0  0  0  0
   -0.5672    3.3499   -0.8156 H   0  0  0  0  0  0  0  0  0  0  0  0
   -0.0001    1.4037    0.0001 C   0  0  0  0  0  0  0  0  0  0  0  0
   -1.1977    0.6947    0.0001 C   0  0  0  0  0  0  0  0  0  0  0  0
   -2.0640    1.1850   -0.0010 H   0  0  0  0  0  0  0  0  0  0  0  0
   -1.2023   -0.6969   -0.0000 C   0  0  0  0  0  0  0  0  0  0  0  0
   -2.0784   -1.1910    0.0013 H   0  0  0  0  0  0  0  0  0  0  0  0
    0.0004   -1.3964    0.0003 C   0  0  0  0  0  0  0  0  0  0  0  0
   -0.0054   -2.3940   -0.0001 H   0  0  0  0  0  0  0  0  0  0  0  0
    1.2023   -0.7002   -0.0000 C   0  0  0  0  0  0  0  0  0  0  0  0
    2.0837   -1.1956    0.0017 H   0  0  0  0  0  0  0  0  0  0  0  0
    1.1974    0.6952   -0.0005 C   0  0  0  0  0  0  0  0  0  0  0  0
    2.0654    1.1901   -0.0019 H   0  0  0  0  0  0  0  0  0  0  0  0
  1  5  1  0
  5  8  1  0
  1  2  1  0
  1  3  1  0
  1  4  1  0
  5  6  1  0
  5  7  1  0
  8  9  1  0
  8 10  1  0
  8 11  1  0
 12 16  1  0
 16 17  2  0
 17 19  1  0
 19 21  2  0
 21 23  1  0
 23 25  2  0
 25 16  1  0
 12 13  1  0
 12 14  1  0
 12 15  1  0
 17 18  1  0
 19 20  1  0
 21 22  1  0
 23 24  1  0
 25 26  1  0
M  CHG  1   8   1
M  END
>  <PDB_ID>  (2095) 
pdb4i99

>  <RESIDUE_NAME>  (2095) 
LYS   PHE

>  <FRAG_NAME>  (2095) 
ETAM   MBZ

>  <FRAG_ATOM_NUM>  (2095) 
fragi: 11  fragj: 15

>  <atom.prop.CHAIN_ID>  (2095) 
A A A A A A A A A A A Z Z Z Z Z Z Z Z Z Z Z Z Z Z Z

>  <atom.prop.IS_HEAVY_ATOM>  (2095) 
1 0 0 0 1 0 0 1 0 0 0 1 0 0 0 1 1 0 1 0 1 0 1 0 1 0

>  <DIFUSE_FUNC_ATOM>  (2095) 
n/a

>  <FINAL_SINGLE_POINT_ENERGY>  (2095) 
0

>  <NONCOV_INTER_ENERGY_QM>  (2095) 
0

>  <FF_Energy>  (2095) 
0.39

>  <QM_Energy>  (2095) 
-6.85

>  <source>  (2095) 
ETAM_MBZ

>  <Index>  (2095) 
21665

$$$$
ETAM-pdb4icu-A-LYS-497:MBZ-pdb4icu-D-PHE-514
     RDKit          3D

 26 25  0  0  0  0  0  0  0  0999 V2000
    2.9337   -3.7193    2.7785 C   0  0  0  0  0  0  0  0  0  0  0  0
    2.8942   -4.6760    3.0528 H   0  0  0  0  0  0  0  0  0  0  0  0
    2.3141   -3.1765    3.3366 H   0  0  0  0  0  0  0  0  0  0  0  0
    3.9503   -3.3535    2.9228 H   0  0  0  0  0  0  0  0  0  0  0  0
    2.5058   -3.6105    1.3313 C   0  0  0  0  0  0  0  0  0  0  0  0
    2.5377   -2.6488    1.0490 H   0  0  0  0  0  0  0  0  0  0  0  0
    3.1393   -4.1383    0.7585 H   0  0  0  0  0  0  0  0  0  0  0  0
    1.1185   -4.1299    1.1211 N   0  0  0  0  0  4  0  0  0  0  0  0
    1.1191   -5.1213    1.2369 H   0  0  0  0  0  0  0  0  0  0  0  0
    0.5075   -3.7116    1.7905 H   0  0  0  0  0  0  0  0  0  0  0  0
    0.8184   -3.8980    0.1980 H   0  0  0  0  0  0  0  0  0  0  0  0
   -0.0016    2.8919    0.0158 C   0  0  0  0  0  0  0  0  0  0  0  0
   -0.8096    3.2063   -0.4604 H   0  0  0  0  0  0  0  0  0  0  0  0
    0.8233    3.2066   -0.4302 H   0  0  0  0  0  0  0  0  0  0  0  0
   -0.0199    3.3199    1.0181 H   0  0  0  0  0  0  0  0  0  0  0  0
   -0.0005    1.3986    0.0012 C   0  0  0  0  0  0  0  0  0  0  0  0
   -1.2013    0.6905    0.0030 C   0  0  0  0  0  0  0  0  0  0  0  0
   -2.0657    1.1825    0.0048 H   0  0  0  0  0  0  0  0  0  0  0  0
   -1.2070   -0.6997    0.0000 C   0  0  0  0  0  0  0  0  0  0  0  0
   -2.0801   -1.1951    0.0018 H   0  0  0  0  0  0  0  0  0  0  0  0
   -0.0008   -1.3908   -0.0044 C   0  0  0  0  0  0  0  0  0  0  0  0
    0.0012   -2.3899   -0.0112 H   0  0  0  0  0  0  0  0  0  0  0  0
    1.2070   -0.6902   -0.0000 C   0  0  0  0  0  0  0  0  0  0  0  0
    2.0842   -1.1945    0.0046 H   0  0  0  0  0  0  0  0  0  0  0  0
    1.2025    0.6916    0.0002 C   0  0  0  0  0  0  0  0  0  0  0  0
    2.0660    1.1944   -0.0010 H   0  0  0  0  0  0  0  0  0  0  0  0
  1  5  1  0
  5  8  1  0
  1  2  1  0
  1  3  1  0
  1  4  1  0
  5  6  1  0
  5  7  1  0
  8  9  1  0
  8 10  1  0
  8 11  1  0
 12 16  1  0
 16 17  2  0
 17 19  1  0
 19 21  2  0
 21 23  1  0
 23 25  2  0
 25 16  1  0
 12 13  1  0
 12 14  1  0
 12 15  1  0
 17 18  1  0
 19 20  1  0
 21 22  1  0
 23 24  1  0
 25 26  1  0
M  CHG  1   8   1
M  END
>  <PDB_ID>  (2096) 
pdb4icu

>  <RESIDUE_NAME>  (2096) 
LYS   PHE

>  <FRAG_NAME>  (2096) 
ETAM   MBZ

>  <FRAG_ATOM_NUM>  (2096) 
fragi: 11  fragj: 15

>  <atom.prop.CHAIN_ID>  (2096) 
A A A A A A A A A A A Z Z Z Z Z Z Z Z Z Z Z Z Z Z Z

>  <atom.prop.IS_HEAVY_ATOM>  (2096) 
1 0 0 0 1 0 0 1 0 0 0 1 0 0 0 1 1 0 1 0 1 0 1 0 1 0

>  <DIFUSE_FUNC_ATOM>  (2096) 
n/a

>  <FINAL_SINGLE_POINT_ENERGY>  (2096) 
0

>  <NONCOV_INTER_ENERGY_QM>  (2096) 
0

>  <FF_Energy>  (2096) 
7.0

>  <QM_Energy>  (2096) 
-2.45

>  <source>  (2096) 
ETAM_MBZ

>  <Index>  (2096) 
21666

$$$$
ETAM-pdb3ler-B-LYS-257:MBZ-pdb3ler-B-PHE-17
     RDKit          3D

 26 25  0  0  0  0  0  0  0  0999 V2000
   -5.2771    0.9924    4.1177 C   0  0  0  0  0  0  0  0  0  0  0  0
   -5.2574    1.9958    4.1925 H   0  0  0  0  0  0  0  0  0  0  0  0
   -4.5357    0.6152    4.6842 H   0  0  0  0  0  0  0  0  0  0  0  0
   -6.2268    0.6404    4.5205 H   0  0  0  0  0  0  0  0  0  0  0  0
   -5.0640    0.6009    2.7056 C   0  0  0  0  0  0  0  0  0  0  0  0
   -5.4295   -0.3173    2.5396 H   0  0  0  0  0  0  0  0  0  0  0  0
   -5.5165    1.2502    2.0908 H   0  0  0  0  0  0  0  0  0  0  0  0
   -3.5913    0.5858    2.3658 N   0  0  0  0  0  4  0  0  0  0  0  0
   -3.4478   -0.0254    1.5930 H   0  0  0  0  0  0  0  0  0  0  0  0
   -3.3078    1.5106    2.1301 H   0  0  0  0  0  0  0  0  0  0  0  0
   -3.0831    0.2624    3.1592 H   0  0  0  0  0  0  0  0  0  0  0  0
    0.0130    2.9042    0.0098 C   0  0  0  0  0  0  0  0  0  0  0  0
   -0.9226    3.2209   -0.0241 H   0  0  0  0  0  0  0  0  0  0  0  0
    0.5283    3.2153   -0.7735 H   0  0  0  0  0  0  0  0  0  0  0  0
    0.4747    3.3325    0.8995 H   0  0  0  0  0  0  0  0  0  0  0  0
    0.0012    1.4048   -0.0015 C   0  0  0  0  0  0  0  0  0  0  0  0
   -1.2169    0.6916    0.0035 C   0  0  0  0  0  0  0  0  0  0  0  0
   -2.0720    1.1898    0.0085 H   0  0  0  0  0  0  0  0  0  0  0  0
   -1.2136   -0.6920    0.0000 C   0  0  0  0  0  0  0  0  0  0  0  0
   -2.0763   -1.2028    0.0014 H   0  0  0  0  0  0  0  0  0  0  0  0
    0.0153   -1.3956   -0.0038 C   0  0  0  0  0  0  0  0  0  0  0  0
   -0.0014   -2.3930   -0.0103 H   0  0  0  0  0  0  0  0  0  0  0  0
    1.2136   -0.7034    0.0000 C   0  0  0  0  0  0  0  0  0  0  0  0
    2.0956   -1.1925    0.0033 H   0  0  0  0  0  0  0  0  0  0  0  0
    1.2004    0.6946    0.0018 C   0  0  0  0  0  0  0  0  0  0  0  0
    2.0689    1.1920    0.0049 H   0  0  0  0  0  0  0  0  0  0  0  0
  1  5  1  0
  5  8  1  0
  1  2  1  0
  1  3  1  0
  1  4  1  0
  5  6  1  0
  5  7  1  0
  8  9  1  0
  8 10  1  0
  8 11  1  0
 12 16  1  0
 16 17  2  0
 17 19  1  0
 19 21  2  0
 21 23  1  0
 23 25  2  0
 25 16  1  0
 12 13  1  0
 12 14  1  0
 12 15  1  0
 17 18  1  0
 19 20  1  0
 21 22  1  0
 23 24  1  0
 25 26  1  0
M  CHG  1   8   1
M  END
>  <PDB_ID>  (2097) 
pdb3ler

>  <RESIDUE_NAME>  (2097) 
LYS   PHE

>  <FRAG_NAME>  (2097) 
ETAM   MBZ

>  <FRAG_ATOM_NUM>  (2097) 
fragi: 11  fragj: 15

>  <atom.prop.CHAIN_ID>  (2097) 
A A A A A A A A A A A Z Z Z Z Z Z Z Z Z Z Z Z Z Z Z

>  <atom.prop.IS_HEAVY_ATOM>  (2097) 
1 0 0 0 1 0 0 1 0 0 0 1 0 0 0 1 1 0 1 0 1 0 1 0 1 0

>  <DIFUSE_FUNC_ATOM>  (2097) 
n/a

>  <FINAL_SINGLE_POINT_ENERGY>  (2097) 
0

>  <NONCOV_INTER_ENERGY_QM>  (2097) 
0

>  <FF_Energy>  (2097) 
-1.15

>  <QM_Energy>  (2097) 
-6.16

>  <source>  (2097) 
ETAM_MBZ

>  <Index>  (2097) 
21672

$$$$
ETAM-pdb4ied-C-LYS-113:MBZ-pdb4ied-C-PHE-80
     RDKit          3D

 26 25  0  0  0  0  0  0  0  0999 V2000
    1.0585   -1.4250    3.8168 C   0  0  0  0  0  0  0  0  0  0  0  0
    1.7317   -1.2744    4.5474 H   0  0  0  0  0  0  0  0  0  0  0  0
    1.2510   -0.7882    3.0637 H   0  0  0  0  0  0  0  0  0  0  0  0
    1.1885   -2.4405    3.4427 H   0  0  0  0  0  0  0  0  0  0  0  0
   -0.3248   -1.1373    4.3589 C   0  0  0  0  0  0  0  0  0  0  0  0
   -0.6400   -1.9573    4.8651 H   0  0  0  0  0  0  0  0  0  0  0  0
   -0.2492   -0.3804    5.0290 H   0  0  0  0  0  0  0  0  0  0  0  0
   -1.2560   -0.7986    3.3266 N   0  0  0  0  0  4  0  0  0  0  0  0
   -2.2001   -1.0231    3.6056 H   0  0  0  0  0  0  0  0  0  0  0  0
   -1.2190    0.1883    3.1182 H   0  0  0  0  0  0  0  0  0  0  0  0
   -1.0527   -1.3052    2.4776 H   0  0  0  0  0  0  0  0  0  0  0  0
   -0.0460    2.8985    0.0840 C   0  0  0  0  0  0  0  0  0  0  0  0
   -0.6769    3.2269   -0.5982 H   0  0  0  0  0  0  0  0  0  0  0  0
    0.8671    3.2367   -0.0660 H   0  0  0  0  0  0  0  0  0  0  0  0
   -0.3813    3.2758    1.0501 H   0  0  0  0  0  0  0  0  0  0  0  0
   -0.0107    1.3963    0.0094 C   0  0  0  0  0  0  0  0  0  0  0  0
   -1.1863    0.6897    0.0156 C   0  0  0  0  0  0  0  0  0  0  0  0
   -2.0648    1.1683    0.0302 H   0  0  0  0  0  0  0  0  0  0  0  0
   -1.1911   -0.7079   -0.0000 C   0  0  0  0  0  0  0  0  0  0  0  0
   -2.0682   -1.1963    0.0083 H   0  0  0  0  0  0  0  0  0  0  0  0
    0.0062   -1.3929   -0.0247 C   0  0  0  0  0  0  0  0  0  0  0  0
    0.0090   -2.3923   -0.0608 H   0  0  0  0  0  0  0  0  0  0  0  0
    1.1911   -0.6900    0.0000 C   0  0  0  0  0  0  0  0  0  0  0  0
    2.0827   -1.1823    0.0202 H   0  0  0  0  0  0  0  0  0  0  0  0
    1.1908    0.7048   -0.0002 C   0  0  0  0  0  0  0  0  0  0  0  0
    2.0528    1.1985   -0.0082 H   0  0  0  0  0  0  0  0  0  0  0  0
  1  5  1  0
  5  8  1  0
  1  2  1  0
  1  3  1  0
  1  4  1  0
  5  6  1  0
  5  7  1  0
  8  9  1  0
  8 10  1  0
  8 11  1  0
 12 16  1  0
 16 17  2  0
 17 19  1  0
 19 21  2  0
 21 23  1  0
 23 25  2  0
 25 16  1  0
 12 13  1  0
 12 14  1  0
 12 15  1  0
 17 18  1  0
 19 20  1  0
 21 22  1  0
 23 24  1  0
 25 26  1  0
M  CHG  1   8   1
M  END
>  <PDB_ID>  (2098) 
pdb4ied

>  <RESIDUE_NAME>  (2098) 
LYS   PHE

>  <FRAG_NAME>  (2098) 
ETAM   MBZ

>  <FRAG_ATOM_NUM>  (2098) 
fragi: 11  fragj: 15

>  <atom.prop.CHAIN_ID>  (2098) 
A A A A A A A A A A A Z Z Z Z Z Z Z Z Z Z Z Z Z Z Z

>  <atom.prop.IS_HEAVY_ATOM>  (2098) 
1 0 0 0 1 0 0 1 0 0 0 1 0 0 0 1 1 0 1 0 1 0 1 0 1 0

>  <DIFUSE_FUNC_ATOM>  (2098) 
n/a

>  <FINAL_SINGLE_POINT_ENERGY>  (2098) 
0

>  <NONCOV_INTER_ENERGY_QM>  (2098) 
0

>  <FF_Energy>  (2098) 
-6.99

>  <QM_Energy>  (2098) 
-13.8

>  <source>  (2098) 
ETAM_MBZ

>  <Index>  (2098) 
21673

$$$$
ETAM-pdb3lg3-A-LYS-174:MBZ-pdb3lg3-A-PHE-170
     RDKit          3D

 26 25  0  0  0  0  0  0  0  0999 V2000
    1.7434   -1.6187    3.8793 C   0  0  0  0  0  0  0  0  0  0  0  0
    2.1311   -2.3044    4.4865 H   0  0  0  0  0  0  0  0  0  0  0  0
    1.1668   -2.0495    3.1935 H   0  0  0  0  0  0  0  0  0  0  0  0
    1.1328   -0.9359    4.4703 H   0  0  0  0  0  0  0  0  0  0  0  0
    2.8737   -0.8887    3.1795 C   0  0  0  0  0  0  0  0  0  0  0  0
    2.4867   -0.2048    2.5549 H   0  0  0  0  0  0  0  0  0  0  0  0
    3.4363   -0.4182    3.8653 H   0  0  0  0  0  0  0  0  0  0  0  0
    3.7457   -1.8207    2.3965 N   0  0  0  0  0  4  0  0  0  0  0  0
    4.7025   -1.6301    2.6096 H   0  0  0  0  0  0  0  0  0  0  0  0
    3.5245   -2.7616    2.6447 H   0  0  0  0  0  0  0  0  0  0  0  0
    3.5822   -1.6803    1.4221 H   0  0  0  0  0  0  0  0  0  0  0  0
   -0.0020    2.9046   -0.0489 C   0  0  0  0  0  0  0  0  0  0  0  0
   -0.7255    3.1869   -0.6694 H   0  0  0  0  0  0  0  0  0  0  0  0
    0.8835    3.1969   -0.3913 H   0  0  0  0  0  0  0  0  0  0  0  0
   -0.1699    3.4034    0.9056 H   0  0  0  0  0  0  0  0  0  0  0  0
   -0.0022    1.4043    0.0106 C   0  0  0  0  0  0  0  0  0  0  0  0
   -1.1971    0.6937   -0.0047 C   0  0  0  0  0  0  0  0  0  0  0  0
   -2.0658    1.1805   -0.0201 H   0  0  0  0  0  0  0  0  0  0  0  0
   -1.2024   -0.7033    0.0000 C   0  0  0  0  0  0  0  0  0  0  0  0
   -2.0753   -1.1959    0.0063 H   0  0  0  0  0  0  0  0  0  0  0  0
    0.0055   -1.3958   -0.0022 C   0  0  0  0  0  0  0  0  0  0  0  0
    0.0032   -2.3950   -0.0063 H   0  0  0  0  0  0  0  0  0  0  0  0
    1.2024   -0.6961   -0.0000 C   0  0  0  0  0  0  0  0  0  0  0  0
    2.0865   -1.1894    0.0057 H   0  0  0  0  0  0  0  0  0  0  0  0
    1.1939    0.6973   -0.0037 C   0  0  0  0  0  0  0  0  0  0  0  0
    2.0631    1.1939   -0.0178 H   0  0  0  0  0  0  0  0  0  0  0  0
  1  5  1  0
  5  8  1  0
  1  2  1  0
  1  3  1  0
  1  4  1  0
  5  6  1  0
  5  7  1  0
  8  9  1  0
  8 10  1  0
  8 11  1  0
 12 16  1  0
 16 17  2  0
 17 19  1  0
 19 21  2  0
 21 23  1  0
 23 25  2  0
 25 16  1  0
 12 13  1  0
 12 14  1  0
 12 15  1  0
 17 18  1  0
 19 20  1  0
 21 22  1  0
 23 24  1  0
 25 26  1  0
M  CHG  1   8   1
M  END
>  <PDB_ID>  (2099) 
pdb3lg3

>  <RESIDUE_NAME>  (2099) 
LYS   PHE

>  <FRAG_NAME>  (2099) 
ETAM   MBZ

>  <FRAG_ATOM_NUM>  (2099) 
fragi: 11  fragj: 15

>  <atom.prop.CHAIN_ID>  (2099) 
A A A A A A A A A A A Z Z Z Z Z Z Z Z Z Z Z Z Z Z Z

>  <atom.prop.IS_HEAVY_ATOM>  (2099) 
1 0 0 0 1 0 0 1 0 0 0 1 0 0 0 1 1 0 1 0 1 0 1 0 1 0

>  <DIFUSE_FUNC_ATOM>  (2099) 
n/a

>  <FINAL_SINGLE_POINT_ENERGY>  (2099) 
0

>  <NONCOV_INTER_ENERGY_QM>  (2099) 
0

>  <FF_Energy>  (2099) 
-1.38

>  <QM_Energy>  (2099) 
-6.56

>  <source>  (2099) 
ETAM_MBZ

>  <Index>  (2099) 
21689

$$$$
ETAM-pdb4i2n-F-LYS-258:MBZ-pdb4i2n-F-PHE-183
     RDKit          3D

 26 25  0  0  0  0  0  0  0  0999 V2000
   -0.6681   -0.4209   -3.6209 C   0  0  0  0  0  0  0  0  0  0  0  0
   -0.5364   -0.0054   -4.5144 H   0  0  0  0  0  0  0  0  0  0  0  0
   -0.2508    0.1365   -2.9120 H   0  0  0  0  0  0  0  0  0  0  0  0
   -1.7364   -0.5096   -3.4231 H   0  0  0  0  0  0  0  0  0  0  0  0
   -0.0003   -1.7843   -3.6184 C   0  0  0  0  0  0  0  0  0  0  0  0
   -0.1779   -2.2333   -2.7393 H   0  0  0  0  0  0  0  0  0  0  0  0
   -0.3925   -2.3418   -4.3542 H   0  0  0  0  0  0  0  0  0  0  0  0
    1.4729   -1.6771   -3.8213 N   0  0  0  0  0  4  0  0  0  0  0  0
    1.6543   -1.2625   -4.7124 H   0  0  0  0  0  0  0  0  0  0  0  0
    1.8647   -1.1071   -3.1002 H   0  0  0  0  0  0  0  0  0  0  0  0
    1.8786   -2.5891   -3.7867 H   0  0  0  0  0  0  0  0  0  0  0  0
   -0.0010    2.9075   -0.0500 C   0  0  0  0  0  0  0  0  0  0  0  0
    0.9030    3.2234    0.1909 H   0  0  0  0  0  0  0  0  0  0  0  0
   -0.6819    3.2348    0.5858 H   0  0  0  0  0  0  0  0  0  0  0  0
   -0.2429    3.3118   -1.0329 H   0  0  0  0  0  0  0  0  0  0  0  0
    0.0002    1.4054   -0.0009 C   0  0  0  0  0  0  0  0  0  0  0  0
   -1.1989    0.6956    0.0014 C   0  0  0  0  0  0  0  0  0  0  0  0
   -2.0654    1.1851    0.0029 H   0  0  0  0  0  0  0  0  0  0  0  0
   -1.2053   -0.6998    0.0000 C   0  0  0  0  0  0  0  0  0  0  0  0
   -2.0812   -1.1907    0.0016 H   0  0  0  0  0  0  0  0  0  0  0  0
   -0.0019   -1.3978   -0.0012 C   0  0  0  0  0  0  0  0  0  0  0  0
   -0.0052   -2.3953   -0.0033 H   0  0  0  0  0  0  0  0  0  0  0  0
    1.2053   -0.6994   -0.0000 C   0  0  0  0  0  0  0  0  0  0  0  0
    2.0839   -1.1973    0.0016 H   0  0  0  0  0  0  0  0  0  0  0  0
    1.2005    0.6960    0.0007 C   0  0  0  0  0  0  0  0  0  0  0  0
    2.0676    1.1915    0.0012 H   0  0  0  0  0  0  0  0  0  0  0  0
  1  5  1  0
  5  8  1  0
  1  2  1  0
  1  3  1  0
  1  4  1  0
  5  6  1  0
  5  7  1  0
  8  9  1  0
  8 10  1  0
  8 11  1  0
 12 16  1  0
 16 17  2  0
 17 19  1  0
 19 21  2  0
 21 23  1  0
 23 25  2  0
 25 16  1  0
 12 13  1  0
 12 14  1  0
 12 15  1  0
 17 18  1  0
 19 20  1  0
 21 22  1  0
 23 24  1  0
 25 26  1  0
M  CHG  1   8   1
M  END
>  <PDB_ID>  (2100) 
pdb4i2n

>  <RESIDUE_NAME>  (2100) 
LYS   PHE

>  <FRAG_NAME>  (2100) 
ETAM   MBZ

>  <FRAG_ATOM_NUM>  (2100) 
fragi: 11  fragj: 15

>  <atom.prop.CHAIN_ID>  (2100) 
A A A A A A A A A A A Z Z Z Z Z Z Z Z Z Z Z Z Z Z Z

>  <atom.prop.IS_HEAVY_ATOM>  (2100) 
1 0 0 0 1 0 0 1 0 0 0 1 0 0 0 1 1 0 1 0 1 0 1 0 1 0

>  <DIFUSE_FUNC_ATOM>  (2100) 
n/a

>  <FINAL_SINGLE_POINT_ENERGY>  (2100) 
0

>  <NONCOV_INTER_ENERGY_QM>  (2100) 
0

>  <FF_Energy>  (2100) 
-5.06

>  <QM_Energy>  (2100) 
-10.49

>  <source>  (2100) 
ETAM_MBZ

>  <Index>  (2100) 
21691

$$$$
ETAM-pdb3lhx-B-LYS-81:MBZ-pdb3lhx-B-PHE-205
     RDKit          3D

 26 25  0  0  0  0  0  0  0  0999 V2000
    0.4232   -1.5912    4.3357 C   0  0  0  0  0  0  0  0  0  0  0  0
    0.6540   -2.3620    3.7578 H   0  0  0  0  0  0  0  0  0  0  0  0
    0.0066   -1.8929    5.1816 H   0  0  0  0  0  0  0  0  0  0  0  0
    1.3441   -1.0615    4.5793 H   0  0  0  0  0  0  0  0  0  0  0  0
   -0.5360   -0.6862    3.6020 C   0  0  0  0  0  0  0  0  0  0  0  0
   -0.7464    0.1106    4.1679 H   0  0  0  0  0  0  0  0  0  0  0  0
   -0.1253   -0.3858    2.7419 H   0  0  0  0  0  0  0  0  0  0  0  0
   -1.8327   -1.4028    3.2858 N   0  0  0  0  0  4  0  0  0  0  0  0
   -2.5480   -1.0413    3.8756 H   0  0  0  0  0  0  0  0  0  0  0  0
   -2.0591   -1.2432    2.3300 H   0  0  0  0  0  0  0  0  0  0  0  0
   -1.7076   -2.3758    3.4526 H   0  0  0  0  0  0  0  0  0  0  0  0
    0.0412    2.9472    0.0126 C   0  0  0  0  0  0  0  0  0  0  0  0
   -0.4306    3.2540   -0.8003 H   0  0  0  0  0  0  0  0  0  0  0  0
    0.9881    3.2302    0.0085 H   0  0  0  0  0  0  0  0  0  0  0  0
   -0.4399    3.4173    0.8703 H   0  0  0  0  0  0  0  0  0  0  0  0
    0.0103    1.4268    0.0235 C   0  0  0  0  0  0  0  0  0  0  0  0
   -1.1996    0.7200    0.0002 C   0  0  0  0  0  0  0  0  0  0  0  0
   -2.0616    1.1911   -0.0174 H   0  0  0  0  0  0  0  0  0  0  0  0
   -1.1930   -0.7097   -0.0000 C   0  0  0  0  0  0  0  0  0  0  0  0
   -2.0816   -1.1838    0.0267 H   0  0  0  0  0  0  0  0  0  0  0  0
   -0.0061   -1.4101   -0.0344 C   0  0  0  0  0  0  0  0  0  0  0  0
   -0.0089   -2.4058   -0.0839 H   0  0  0  0  0  0  0  0  0  0  0  0
    1.1930   -0.7135    0.0000 C   0  0  0  0  0  0  0  0  0  0  0  0
    2.0765   -1.2091    0.0191 H   0  0  0  0  0  0  0  0  0  0  0  0
    1.1954    0.6865    0.0106 C   0  0  0  0  0  0  0  0  0  0  0  0
    2.0761    1.1720    0.0080 H   0  0  0  0  0  0  0  0  0  0  0  0
  1  5  1  0
  5  8  1  0
  1  2  1  0
  1  3  1  0
  1  4  1  0
  5  6  1  0
  5  7  1  0
  8  9  1  0
  8 10  1  0
  8 11  1  0
 12 16  1  0
 16 17  2  0
 17 19  1  0
 19 21  2  0
 21 23  1  0
 23 25  2  0
 25 16  1  0
 12 13  1  0
 12 14  1  0
 12 15  1  0
 17 18  1  0
 19 20  1  0
 21 22  1  0
 23 24  1  0
 25 26  1  0
M  CHG  1   8   1
M  END
>  <PDB_ID>  (2101) 
pdb3lhx

>  <RESIDUE_NAME>  (2101) 
LYS   PHE

>  <FRAG_NAME>  (2101) 
ETAM   MBZ

>  <FRAG_ATOM_NUM>  (2101) 
fragi: 11  fragj: 15

>  <atom.prop.CHAIN_ID>  (2101) 
A A A A A A A A A A A Z Z Z Z Z Z Z Z Z Z Z Z Z Z Z

>  <atom.prop.IS_HEAVY_ATOM>  (2101) 
1 0 0 0 1 0 0 1 0 0 0 1 0 0 0 1 1 0 1 0 1 0 1 0 1 0

>  <DIFUSE_FUNC_ATOM>  (2101) 
n/a

>  <FINAL_SINGLE_POINT_ENERGY>  (2101) 
0

>  <NONCOV_INTER_ENERGY_QM>  (2101) 
0

>  <FF_Energy>  (2101) 
-5.35

>  <QM_Energy>  (2101) 
-12.7

>  <source>  (2101) 
ETAM_MBZ

>  <Index>  (2101) 
21697

$$$$
ETAM-pdb3lic-A-LYS-83:MBZ-pdb3lic-A-PHE-194
     RDKit          3D

 26 25  0  0  0  0  0  0  0  0999 V2000
   -2.2574   -1.6740   -3.6055 C   0  0  0  0  0  0  0  0  0  0  0  0
   -1.9637   -1.7318   -2.6573 H   0  0  0  0  0  0  0  0  0  0  0  0
   -1.5270   -1.9605   -4.2150 H   0  0  0  0  0  0  0  0  0  0  0  0
   -3.1150   -2.3313   -3.7488 H   0  0  0  0  0  0  0  0  0  0  0  0
   -2.6026   -0.2133   -3.9169 C   0  0  0  0  0  0  0  0  0  0  0  0
   -2.3078   -0.0013   -4.8407 H   0  0  0  0  0  0  0  0  0  0  0  0
   -3.5822   -0.0852   -3.8244 H   0  0  0  0  0  0  0  0  0  0  0  0
   -1.8933    0.6982   -2.9511 N   0  0  0  0  0  4  0  0  0  0  0  0
   -1.5872    1.5117   -3.4397 H   0  0  0  0  0  0  0  0  0  0  0  0
   -2.5265    0.9542   -2.2247 H   0  0  0  0  0  0  0  0  0  0  0  0
   -1.1099    0.2156   -2.5672 H   0  0  0  0  0  0  0  0  0  0  0  0
   -0.0276    2.9310    0.0156 C   0  0  0  0  0  0  0  0  0  0  0  0
   -0.9725    3.2234   -0.0497 H   0  0  0  0  0  0  0  0  0  0  0  0
    0.4955    3.2510   -0.7645 H   0  0  0  0  0  0  0  0  0  0  0  0
    0.3939    3.4096    0.8995 H   0  0  0  0  0  0  0  0  0  0  0  0
    0.0008    1.4198    0.0164 C   0  0  0  0  0  0  0  0  0  0  0  0
   -1.1986    0.6899   -0.0110 C   0  0  0  0  0  0  0  0  0  0  0  0
   -2.0684    1.1807   -0.0401 H   0  0  0  0  0  0  0  0  0  0  0  0
   -1.2121   -0.7110   -0.0000 C   0  0  0  0  0  0  0  0  0  0  0  0
   -2.0892   -1.1971    0.0133 H   0  0  0  0  0  0  0  0  0  0  0  0
   -0.0062   -1.4203   -0.0056 C   0  0  0  0  0  0  0  0  0  0  0  0
   -0.0012   -2.4068   -0.0142 H   0  0  0  0  0  0  0  0  0  0  0  0
    1.2121   -0.6999   -0.0000 C   0  0  0  0  0  0  0  0  0  0  0  0
    2.0903   -1.1879    0.0056 H   0  0  0  0  0  0  0  0  0  0  0  0
    1.2040    0.7215    0.0002 C   0  0  0  0  0  0  0  0  0  0  0  0
    2.0699    1.2069   -0.0128 H   0  0  0  0  0  0  0  0  0  0  0  0
  1  5  1  0
  5  8  1  0
  1  2  1  0
  1  3  1  0
  1  4  1  0
  5  6  1  0
  5  7  1  0
  8  9  1  0
  8 10  1  0
  8 11  1  0
 12 16  1  0
 16 17  2  0
 17 19  1  0
 19 21  2  0
 21 23  1  0
 23 25  2  0
 25 16  1  0
 12 13  1  0
 12 14  1  0
 12 15  1  0
 17 18  1  0
 19 20  1  0
 21 22  1  0
 23 24  1  0
 25 26  1  0
M  CHG  1   8   1
M  END
>  <PDB_ID>  (2102) 
pdb3lic

>  <RESIDUE_NAME>  (2102) 
LYS   PHE

>  <FRAG_NAME>  (2102) 
ETAM   MBZ

>  <FRAG_ATOM_NUM>  (2102) 
fragi: 11  fragj: 15

>  <atom.prop.CHAIN_ID>  (2102) 
A A A A A A A A A A A Z Z Z Z Z Z Z Z Z Z Z Z Z Z Z

>  <atom.prop.IS_HEAVY_ATOM>  (2102) 
1 0 0 0 1 0 0 1 0 0 0 1 0 0 0 1 1 0 1 0 1 0 1 0 1 0

>  <DIFUSE_FUNC_ATOM>  (2102) 
n/a

>  <FINAL_SINGLE_POINT_ENERGY>  (2102) 
0

>  <NONCOV_INTER_ENERGY_QM>  (2102) 
0

>  <FF_Energy>  (2102) 
-5.38

>  <QM_Energy>  (2102) 
-11.62

>  <source>  (2102) 
ETAM_MBZ

>  <Index>  (2102) 
21704

$$$$
ETAM-pdb3ler-C-LYS-257:MBZ-pdb3ler-C-PHE-17
     RDKit          3D

 26 25  0  0  0  0  0  0  0  0999 V2000
   -5.7011    0.4867    3.5324 C   0  0  0  0  0  0  0  0  0  0  0  0
   -5.7551   -0.4901    3.3940 H   0  0  0  0  0  0  0  0  0  0  0  0
   -6.1794    0.9786    2.8212 H   0  0  0  0  0  0  0  0  0  0  0  0
   -6.1576    0.7284    4.4922 H   0  0  0  0  0  0  0  0  0  0  0  0
   -4.2479    0.9063    3.5319 C   0  0  0  0  0  0  0  0  0  0  0  0
   -4.1967    1.9115    3.6398 H   0  0  0  0  0  0  0  0  0  0  0  0
   -3.7855    0.4910    4.3313 H   0  0  0  0  0  0  0  0  0  0  0  0
   -3.5150    0.5172    2.2968 N   0  0  0  0  0  4  0  0  0  0  0  0
   -2.8844    1.2496    2.0398 H   0  0  0  0  0  0  0  0  0  0  0  0
   -3.0002   -0.3224    2.4666 H   0  0  0  0  0  0  0  0  0  0  0  0
   -4.1695    0.3642    1.5566 H   0  0  0  0  0  0  0  0  0  0  0  0
   -0.0021    2.9082    0.0169 C   0  0  0  0  0  0  0  0  0  0  0  0
   -0.9422    3.2141   -0.0065 H   0  0  0  0  0  0  0  0  0  0  0  0
    0.4972    3.2227   -0.7775 H   0  0  0  0  0  0  0  0  0  0  0  0
    0.4687    3.3391    0.9005 H   0  0  0  0  0  0  0  0  0  0  0  0
   -0.0021    1.4065    0.0003 C   0  0  0  0  0  0  0  0  0  0  0  0
   -1.1931    0.7088   -0.0069 C   0  0  0  0  0  0  0  0  0  0  0  0
   -2.0635    1.1840   -0.0186 H   0  0  0  0  0  0  0  0  0  0  0  0
   -1.1967   -0.7068    0.0000 C   0  0  0  0  0  0  0  0  0  0  0  0
   -2.0762   -1.1883    0.0055 H   0  0  0  0  0  0  0  0  0  0  0  0
    0.0023   -1.3997    0.0014 C   0  0  0  0  0  0  0  0  0  0  0  0
   -0.0002   -2.3989    0.0029 H   0  0  0  0  0  0  0  0  0  0  0  0
    1.1967   -0.7027   -0.0000 C   0  0  0  0  0  0  0  0  0  0  0  0
    2.0825   -1.1955   -0.0036 H   0  0  0  0  0  0  0  0  0  0  0  0
    1.1928    0.6940    0.0052 C   0  0  0  0  0  0  0  0  0  0  0  0
    2.0628    1.1864    0.0116 H   0  0  0  0  0  0  0  0  0  0  0  0
  1  5  1  0
  5  8  1  0
  1  2  1  0
  1  3  1  0
  1  4  1  0
  5  6  1  0
  5  7  1  0
  8  9  1  0
  8 10  1  0
  8 11  1  0
 12 16  1  0
 16 17  2  0
 17 19  1  0
 19 21  2  0
 21 23  1  0
 23 25  2  0
 25 16  1  0
 12 13  1  0
 12 14  1  0
 12 15  1  0
 17 18  1  0
 19 20  1  0
 21 22  1  0
 23 24  1  0
 25 26  1  0
M  CHG  1   8   1
M  END
>  <PDB_ID>  (2103) 
pdb3ler

>  <RESIDUE_NAME>  (2103) 
LYS   PHE

>  <FRAG_NAME>  (2103) 
ETAM   MBZ

>  <FRAG_ATOM_NUM>  (2103) 
fragi: 11  fragj: 15

>  <atom.prop.CHAIN_ID>  (2103) 
A A A A A A A A A A A Z Z Z Z Z Z Z Z Z Z Z Z Z Z Z

>  <atom.prop.IS_HEAVY_ATOM>  (2103) 
1 0 0 0 1 0 0 1 0 0 0 1 0 0 0 1 1 0 1 0 1 0 1 0 1 0

>  <DIFUSE_FUNC_ATOM>  (2103) 
n/a

>  <FINAL_SINGLE_POINT_ENERGY>  (2103) 
0

>  <NONCOV_INTER_ENERGY_QM>  (2103) 
0

>  <FF_Energy>  (2103) 
-1.3

>  <QM_Energy>  (2103) 
-7.04

>  <source>  (2103) 
ETAM_MBZ

>  <Index>  (2103) 
21708

$$$$
ETAM-pdb4ihc-A-LYS-63:MBZ-pdb4ihc-A-PHE-59
     RDKit          3D

 26 25  0  0  0  0  0  0  0  0999 V2000
    1.9890   -0.5709    5.0209 C   0  0  0  0  0  0  0  0  0  0  0  0
    2.3199    0.0545    4.3266 H   0  0  0  0  0  0  0  0  0  0  0  0
    2.4261   -1.4560    4.9385 H   0  0  0  0  0  0  0  0  0  0  0  0
    2.2063   -0.1568    6.0055 H   0  0  0  0  0  0  0  0  0  0  0  0
    0.5009   -0.7436    4.8528 C   0  0  0  0  0  0  0  0  0  0  0  0
    0.2406   -1.6479    5.1513 H   0  0  0  0  0  0  0  0  0  0  0  0
    0.0303   -0.0424    5.3644 H   0  0  0  0  0  0  0  0  0  0  0  0
    0.2080   -0.5912    3.4158 N   0  0  0  0  0  4  0  0  0  0  0  0
   -0.6807   -0.1439    3.2969 H   0  0  0  0  0  0  0  0  0  0  0  0
    0.9182   -0.0324    2.9824 H   0  0  0  0  0  0  0  0  0  0  0  0
    0.1849   -1.4914    2.9776 H   0  0  0  0  0  0  0  0  0  0  0  0
   -0.0118    2.8904    0.0035 C   0  0  0  0  0  0  0  0  0  0  0  0
   -0.6749    3.1958   -0.6620 H   0  0  0  0  0  0  0  0  0  0  0  0
    0.8978    3.2029   -0.2230 H   0  0  0  0  0  0  0  0  0  0  0  0
   -0.2831    3.3209    0.9675 H   0  0  0  0  0  0  0  0  0  0  0  0
   -0.0033    1.3910   -0.0019 C   0  0  0  0  0  0  0  0  0  0  0  0
   -1.1882    0.6875    0.0129 C   0  0  0  0  0  0  0  0  0  0  0  0
   -2.0601    1.1806    0.0321 H   0  0  0  0  0  0  0  0  0  0  0  0
   -1.1988   -0.6929    0.0000 C   0  0  0  0  0  0  0  0  0  0  0  0
   -2.0744   -1.1885   -0.0045 H   0  0  0  0  0  0  0  0  0  0  0  0
    0.0011   -1.3864   -0.0043 C   0  0  0  0  0  0  0  0  0  0  0  0
   -0.0002   -2.3856   -0.0109 H   0  0  0  0  0  0  0  0  0  0  0  0
    1.1988   -0.6875   -0.0000 C   0  0  0  0  0  0  0  0  0  0  0  0
    2.0803   -1.1891    0.0101 H   0  0  0  0  0  0  0  0  0  0  0  0
    1.1904    0.6882   -0.0067 C   0  0  0  0  0  0  0  0  0  0  0  0
    2.0577    1.1927   -0.0156 H   0  0  0  0  0  0  0  0  0  0  0  0
  1  5  1  0
  5  8  1  0
  1  2  1  0
  1  3  1  0
  1  4  1  0
  5  6  1  0
  5  7  1  0
  8  9  1  0
  8 10  1  0
  8 11  1  0
 12 16  1  0
 16 17  2  0
 17 19  1  0
 19 21  2  0
 21 23  1  0
 23 25  2  0
 25 16  1  0
 12 13  1  0
 12 14  1  0
 12 15  1  0
 17 18  1  0
 19 20  1  0
 21 22  1  0
 23 24  1  0
 25 26  1  0
M  CHG  1   8   1
M  END
>  <PDB_ID>  (2104) 
pdb4ihc

>  <RESIDUE_NAME>  (2104) 
LYS   PHE

>  <FRAG_NAME>  (2104) 
ETAM   MBZ

>  <FRAG_ATOM_NUM>  (2104) 
fragi: 11  fragj: 15

>  <atom.prop.CHAIN_ID>  (2104) 
A A A A A A A A A A A Z Z Z Z Z Z Z Z Z Z Z Z Z Z Z

>  <atom.prop.IS_HEAVY_ATOM>  (2104) 
1 0 0 0 1 0 0 1 0 0 0 1 0 0 0 1 1 0 1 0 1 0 1 0 1 0

>  <DIFUSE_FUNC_ATOM>  (2104) 
n/a

>  <FINAL_SINGLE_POINT_ENERGY>  (2104) 
0

>  <NONCOV_INTER_ENERGY_QM>  (2104) 
0

>  <FF_Energy>  (2104) 
-7.42

>  <QM_Energy>  (2104) 
-13.42

>  <source>  (2104) 
ETAM_MBZ

>  <Index>  (2104) 
21729

$$$$
ETAM-pdb4ihc-C-LYS-63:MBZ-pdb4ihc-C-PHE-59
     RDKit          3D

 26 25  0  0  0  0  0  0  0  0999 V2000
    1.5575   -0.8800    5.0246 C   0  0  0  0  0  0  0  0  0  0  0  0
    2.1016   -0.3811    4.3633 H   0  0  0  0  0  0  0  0  0  0  0  0
    1.8345   -1.8301    5.0676 H   0  0  0  0  0  0  0  0  0  0  0  0
    1.6841   -0.4252    6.0071 H   0  0  0  0  0  0  0  0  0  0  0  0
    0.0994   -0.8195    4.5955 C   0  0  0  0  0  0  0  0  0  0  0  0
   -0.4075   -1.5462    5.0645 H   0  0  0  0  0  0  0  0  0  0  0  0
   -0.2814    0.0691    4.8625 H   0  0  0  0  0  0  0  0  0  0  0  0
   -0.0487   -0.9920    3.1232 N   0  0  0  0  0  4  0  0  0  0  0  0
    0.1319   -1.9445    2.8817 H   0  0  0  0  0  0  0  0  0  0  0  0
   -0.9795   -0.7485    2.8530 H   0  0  0  0  0  0  0  0  0  0  0  0
    0.6024   -0.3975    2.6529 H   0  0  0  0  0  0  0  0  0  0  0  0
    0.0126    2.9111    0.0279 C   0  0  0  0  0  0  0  0  0  0  0  0
   -0.6630    3.2313   -0.6148 H   0  0  0  0  0  0  0  0  0  0  0  0
    0.9189    3.2164   -0.2111 H   0  0  0  0  0  0  0  0  0  0  0  0
   -0.2307    3.3416    0.9993 H   0  0  0  0  0  0  0  0  0  0  0  0
    0.0043    1.3973    0.0052 C   0  0  0  0  0  0  0  0  0  0  0  0
   -1.1871    0.6930   -0.0068 C   0  0  0  0  0  0  0  0  0  0  0  0
   -2.0557    1.1856   -0.0221 H   0  0  0  0  0  0  0  0  0  0  0  0
   -1.1959   -0.6931    0.0000 C   0  0  0  0  0  0  0  0  0  0  0  0
   -2.0784   -1.1827    0.0082 H   0  0  0  0  0  0  0  0  0  0  0  0
   -0.0064   -1.3916   -0.0033 C   0  0  0  0  0  0  0  0  0  0  0  0
   -0.0076   -2.3896   -0.0089 H   0  0  0  0  0  0  0  0  0  0  0  0
    1.1959   -0.6943   -0.0000 C   0  0  0  0  0  0  0  0  0  0  0  0
    2.0753   -1.1957    0.0003 H   0  0  0  0  0  0  0  0  0  0  0  0
    1.1892    0.6886    0.0049 C   0  0  0  0  0  0  0  0  0  0  0  0
    2.0630    1.1852    0.0074 H   0  0  0  0  0  0  0  0  0  0  0  0
  1  5  1  0
  5  8  1  0
  1  2  1  0
  1  3  1  0
  1  4  1  0
  5  6  1  0
  5  7  1  0
  8  9  1  0
  8 10  1  0
  8 11  1  0
 12 16  1  0
 16 17  2  0
 17 19  1  0
 19 21  2  0
 21 23  1  0
 23 25  2  0
 25 16  1  0
 12 13  1  0
 12 14  1  0
 12 15  1  0
 17 18  1  0
 19 20  1  0
 21 22  1  0
 23 24  1  0
 25 26  1  0
M  CHG  1   8   1
M  END
>  <PDB_ID>  (2105) 
pdb4ihc

>  <RESIDUE_NAME>  (2105) 
LYS   PHE

>  <FRAG_NAME>  (2105) 
ETAM   MBZ

>  <FRAG_ATOM_NUM>  (2105) 
fragi: 11  fragj: 15

>  <atom.prop.CHAIN_ID>  (2105) 
A A A A A A A A A A A Z Z Z Z Z Z Z Z Z Z Z Z Z Z Z

>  <atom.prop.IS_HEAVY_ATOM>  (2105) 
1 0 0 0 1 0 0 1 0 0 0 1 0 0 0 1 1 0 1 0 1 0 1 0 1 0

>  <DIFUSE_FUNC_ATOM>  (2105) 
n/a

>  <FINAL_SINGLE_POINT_ENERGY>  (2105) 
0

>  <NONCOV_INTER_ENERGY_QM>  (2105) 
0

>  <FF_Energy>  (2105) 
-7.38

>  <QM_Energy>  (2105) 
-14.86

>  <source>  (2105) 
ETAM_MBZ

>  <Index>  (2105) 
21733

$$$$
ETAM-pdb4ied-B-LYS-113:MBZ-pdb4ied-B-PHE-80
     RDKit          3D

 26 25  0  0  0  0  0  0  0  0999 V2000
    0.9960   -1.5080    3.7819 C   0  0  0  0  0  0  0  0  0  0  0  0
    1.6467   -1.4091    4.5515 H   0  0  0  0  0  0  0  0  0  0  0  0
    1.2700   -0.8500    3.0640 H   0  0  0  0  0  0  0  0  0  0  0  0
    1.1065   -2.5138    3.3764 H   0  0  0  0  0  0  0  0  0  0  0  0
   -0.3811   -1.1599    4.2610 C   0  0  0  0  0  0  0  0  0  0  0  0
   -0.7430   -1.9341    4.8188 H   0  0  0  0  0  0  0  0  0  0  0  0
   -0.3195   -0.3594    4.8922 H   0  0  0  0  0  0  0  0  0  0  0  0
   -1.3533   -0.8486    3.1938 N   0  0  0  0  0  4  0  0  0  0  0  0
   -1.1017    0.0129    2.7486 H   0  0  0  0  0  0  0  0  0  0  0  0
   -1.3545   -1.5839    2.5133 H   0  0  0  0  0  0  0  0  0  0  0  0
   -2.2699   -0.7614    3.5881 H   0  0  0  0  0  0  0  0  0  0  0  0
   -0.1063    2.8933    0.1080 C   0  0  0  0  0  0  0  0  0  0  0  0
   -0.7259    3.1937   -0.5975 H   0  0  0  0  0  0  0  0  0  0  0  0
    0.8004    3.2594   -0.0211 H   0  0  0  0  0  0  0  0  0  0  0  0
   -0.4801    3.2873    1.0531 H   0  0  0  0  0  0  0  0  0  0  0  0
   -0.0269    1.3969    0.0677 C   0  0  0  0  0  0  0  0  0  0  0  0
   -1.2044    0.6401    0.0274 C   0  0  0  0  0  0  0  0  0  0  0  0
   -2.0882    1.1124    0.0173 H   0  0  0  0  0  0  0  0  0  0  0  0
   -1.1883   -0.7569    0.0000 C   0  0  0  0  0  0  0  0  0  0  0  0
   -2.0263   -1.2731    0.0464 H   0  0  0  0  0  0  0  0  0  0  0  0
    0.0562   -1.3825   -0.0933 C   0  0  0  0  0  0  0  0  0  0  0  0
    0.0953   -2.3710   -0.2279 H   0  0  0  0  0  0  0  0  0  0  0  0
    1.1883   -0.6321    0.0000 C   0  0  0  0  0  0  0  0  0  0  0  0
    2.1082   -1.1127    0.0777 H   0  0  0  0  0  0  0  0  0  0  0  0
    1.1751    0.7346   -0.0018 C   0  0  0  0  0  0  0  0  0  0  0  0
    2.0275    1.2490   -0.0532 H   0  0  0  0  0  0  0  0  0  0  0  0
  1  5  1  0
  5  8  1  0
  1  2  1  0
  1  3  1  0
  1  4  1  0
  5  6  1  0
  5  7  1  0
  8  9  1  0
  8 10  1  0
  8 11  1  0
 12 16  1  0
 16 17  2  0
 17 19  1  0
 19 21  2  0
 21 23  1  0
 23 25  2  0
 25 16  1  0
 12 13  1  0
 12 14  1  0
 12 15  1  0
 17 18  1  0
 19 20  1  0
 21 22  1  0
 23 24  1  0
 25 26  1  0
M  CHG  1   8   1
M  END
>  <PDB_ID>  (2106) 
pdb4ied

>  <RESIDUE_NAME>  (2106) 
LYS   PHE

>  <FRAG_NAME>  (2106) 
ETAM   MBZ

>  <FRAG_ATOM_NUM>  (2106) 
fragi: 11  fragj: 15

>  <atom.prop.CHAIN_ID>  (2106) 
A A A A A A A A A A A Z Z Z Z Z Z Z Z Z Z Z Z Z Z Z

>  <atom.prop.IS_HEAVY_ATOM>  (2106) 
1 0 0 0 1 0 0 1 0 0 0 1 0 0 0 1 1 0 1 0 1 0 1 0 1 0

>  <DIFUSE_FUNC_ATOM>  (2106) 
n/a

>  <FINAL_SINGLE_POINT_ENERGY>  (2106) 
0

>  <NONCOV_INTER_ENERGY_QM>  (2106) 
0

>  <FF_Energy>  (2106) 
-6.89

>  <QM_Energy>  (2106) 
-13.52

>  <source>  (2106) 
ETAM_MBZ

>  <Index>  (2106) 
21734

$$$$
ETAM-pdb4ihc-D-LYS-63:MBZ-pdb4ihc-D-PHE-59
     RDKit          3D

 26 25  0  0  0  0  0  0  0  0999 V2000
    1.8479   -0.8111    4.8222 C   0  0  0  0  0  0  0  0  0  0  0  0
    2.3155   -0.3414    4.0957 H   0  0  0  0  0  0  0  0  0  0  0  0
    2.1507   -1.7420    4.9183 H   0  0  0  0  0  0  0  0  0  0  0  0
    2.0247   -0.2815    5.7583 H   0  0  0  0  0  0  0  0  0  0  0  0
    0.3551   -0.8080    4.5280 C   0  0  0  0  0  0  0  0  0  0  0  0
   -0.0708   -1.5805    5.0067 H   0  0  0  0  0  0  0  0  0  0  0  0
   -0.0419    0.0465    4.8729 H   0  0  0  0  0  0  0  0  0  0  0  0
    0.0805   -0.9219    3.0720 N   0  0  0  0  0  4  0  0  0  0  0  0
   -0.6436   -0.2807    2.8186 H   0  0  0  0  0  0  0  0  0  0  0  0
    0.9113   -0.7071    2.5594 H   0  0  0  0  0  0  0  0  0  0  0  0
   -0.2109   -1.8547    2.8601 H   0  0  0  0  0  0  0  0  0  0  0  0
   -0.0052    2.8843    0.0365 C   0  0  0  0  0  0  0  0  0  0  0  0
   -0.6310    3.2104   -0.6542 H   0  0  0  0  0  0  0  0  0  0  0  0
    0.9158    3.2001   -0.1301 H   0  0  0  0  0  0  0  0  0  0  0  0
   -0.3284    3.2873    0.9964 H   0  0  0  0  0  0  0  0  0  0  0  0
   -0.0015    1.3912   -0.0029 C   0  0  0  0  0  0  0  0  0  0  0  0
   -1.1848    0.6956    0.0091 C   0  0  0  0  0  0  0  0  0  0  0  0
   -2.0564    1.1890    0.0233 H   0  0  0  0  0  0  0  0  0  0  0  0
   -1.1984   -0.6855    0.0000 C   0  0  0  0  0  0  0  0  0  0  0  0
   -2.0791   -1.1761   -0.0050 H   0  0  0  0  0  0  0  0  0  0  0  0
   -0.0057   -1.3880   -0.0001 C   0  0  0  0  0  0  0  0  0  0  0  0
   -0.0151   -2.3877   -0.0007 H   0  0  0  0  0  0  0  0  0  0  0  0
    1.1984   -0.7000    0.0000 C   0  0  0  0  0  0  0  0  0  0  0  0
    2.0757   -1.1998    0.0059 H   0  0  0  0  0  0  0  0  0  0  0  0
    1.1920    0.6866   -0.0060 C   0  0  0  0  0  0  0  0  0  0  0  0
    2.0609    1.1843   -0.0133 H   0  0  0  0  0  0  0  0  0  0  0  0
  1  5  1  0
  5  8  1  0
  1  2  1  0
  1  3  1  0
  1  4  1  0
  5  6  1  0
  5  7  1  0
  8  9  1  0
  8 10  1  0
  8 11  1  0
 12 16  1  0
 16 17  2  0
 17 19  1  0
 19 21  2  0
 21 23  1  0
 23 25  2  0
 25 16  1  0
 12 13  1  0
 12 14  1  0
 12 15  1  0
 17 18  1  0
 19 20  1  0
 21 22  1  0
 23 24  1  0
 25 26  1  0
M  CHG  1   8   1
M  END
>  <PDB_ID>  (2107) 
pdb4ihc

>  <RESIDUE_NAME>  (2107) 
LYS   PHE

>  <FRAG_NAME>  (2107) 
ETAM   MBZ

>  <FRAG_ATOM_NUM>  (2107) 
fragi: 11  fragj: 15

>  <atom.prop.CHAIN_ID>  (2107) 
A A A A A A A A A A A Z Z Z Z Z Z Z Z Z Z Z Z Z Z Z

>  <atom.prop.IS_HEAVY_ATOM>  (2107) 
1 0 0 0 1 0 0 1 0 0 0 1 0 0 0 1 1 0 1 0 1 0 1 0 1 0

>  <DIFUSE_FUNC_ATOM>  (2107) 
n/a

>  <FINAL_SINGLE_POINT_ENERGY>  (2107) 
0

>  <NONCOV_INTER_ENERGY_QM>  (2107) 
0

>  <FF_Energy>  (2107) 
-7.44

>  <QM_Energy>  (2107) 
-15.14

>  <source>  (2107) 
ETAM_MBZ

>  <Index>  (2107) 
21736

$$$$
ETAM-pdb4ihc-E-LYS-63:MBZ-pdb4ihc-E-PHE-59
     RDKit          3D

 26 25  0  0  0  0  0  0  0  0999 V2000
    1.9944   -0.7324    4.8353 C   0  0  0  0  0  0  0  0  0  0  0  0
    2.3063   -0.0922    4.1588 H   0  0  0  0  0  0  0  0  0  0  0  0
    2.3554   -1.6341    4.6941 H   0  0  0  0  0  0  0  0  0  0  0  0
    2.2760   -0.3782    5.8269 H   0  0  0  0  0  0  0  0  0  0  0  0
    0.4734   -0.8042    4.7711 C   0  0  0  0  0  0  0  0  0  0  0  0
    0.1639   -1.5916    5.3048 H   0  0  0  0  0  0  0  0  0  0  0  0
    0.0933    0.0341    5.1634 H   0  0  0  0  0  0  0  0  0  0  0  0
    0.0053   -0.9471    3.3672 N   0  0  0  0  0  4  0  0  0  0  0  0
   -0.9738   -0.7476    3.3215 H   0  0  0  0  0  0  0  0  0  0  0  0
    0.5049   -0.3068    2.7841 H   0  0  0  0  0  0  0  0  0  0  0  0
    0.1710   -1.8824    3.0548 H   0  0  0  0  0  0  0  0  0  0  0  0
   -0.0091    2.9188    0.0142 C   0  0  0  0  0  0  0  0  0  0  0  0
   -0.7018    3.2289   -0.6096 H   0  0  0  0  0  0  0  0  0  0  0  0
    0.8880    3.2318   -0.2358 H   0  0  0  0  0  0  0  0  0  0  0  0
   -0.2405    3.3279    0.9976 H   0  0  0  0  0  0  0  0  0  0  0  0
   -0.0001    1.4014   -0.0111 C   0  0  0  0  0  0  0  0  0  0  0  0
   -1.1710    0.6941    0.0069 C   0  0  0  0  0  0  0  0  0  0  0  0
   -2.0520    1.1762    0.0241 H   0  0  0  0  0  0  0  0  0  0  0  0
   -1.1851   -0.7026    0.0000 C   0  0  0  0  0  0  0  0  0  0  0  0
   -2.0766   -1.1785   -0.0114 H   0  0  0  0  0  0  0  0  0  0  0  0
   -0.0131   -1.3935    0.0102 C   0  0  0  0  0  0  0  0  0  0  0  0
   -0.0069   -2.3934    0.0245 H   0  0  0  0  0  0  0  0  0  0  0  0
    1.1851   -0.6946   -0.0000 C   0  0  0  0  0  0  0  0  0  0  0  0
    2.0684   -1.1928   -0.0016 H   0  0  0  0  0  0  0  0  0  0  0  0
    1.1842    0.6953   -0.0060 C   0  0  0  0  0  0  0  0  0  0  0  0
    2.0586    1.1857   -0.0077 H   0  0  0  0  0  0  0  0  0  0  0  0
  1  5  1  0
  5  8  1  0
  1  2  1  0
  1  3  1  0
  1  4  1  0
  5  6  1  0
  5  7  1  0
  8  9  1  0
  8 10  1  0
  8 11  1  0
 12 16  1  0
 16 17  2  0
 17 19  1  0
 19 21  2  0
 21 23  1  0
 23 25  2  0
 25 16  1  0
 12 13  1  0
 12 14  1  0
 12 15  1  0
 17 18  1  0
 19 20  1  0
 21 22  1  0
 23 24  1  0
 25 26  1  0
M  CHG  1   8   1
M  END
>  <PDB_ID>  (2108) 
pdb4ihc

>  <RESIDUE_NAME>  (2108) 
LYS   PHE

>  <FRAG_NAME>  (2108) 
ETAM   MBZ

>  <FRAG_ATOM_NUM>  (2108) 
fragi: 11  fragj: 15

>  <atom.prop.CHAIN_ID>  (2108) 
A A A A A A A A A A A Z Z Z Z Z Z Z Z Z Z Z Z Z Z Z

>  <atom.prop.IS_HEAVY_ATOM>  (2108) 
1 0 0 0 1 0 0 1 0 0 0 1 0 0 0 1 1 0 1 0 1 0 1 0 1 0

>  <DIFUSE_FUNC_ATOM>  (2108) 
n/a

>  <FINAL_SINGLE_POINT_ENERGY>  (2108) 
0

>  <NONCOV_INTER_ENERGY_QM>  (2108) 
0

>  <FF_Energy>  (2108) 
-7.16

>  <QM_Energy>  (2108) 
-13.5

>  <source>  (2108) 
ETAM_MBZ

>  <Index>  (2108) 
21738

$$$$
ETAM-pdb3lic-A-LYS-232:MBZ-pdb3lic-A-PHE-228
     RDKit          3D

 26 25  0  0  0  0  0  0  0  0999 V2000
   -3.4683   -2.0245    5.0091 C   0  0  0  0  0  0  0  0  0  0  0  0
   -4.2669   -1.5295    4.6827 H   0  0  0  0  0  0  0  0  0  0  0  0
   -2.8059   -1.3945    5.4000 H   0  0  0  0  0  0  0  0  0  0  0  0
   -3.7937   -2.7026    5.7980 H   0  0  0  0  0  0  0  0  0  0  0  0
   -2.8147   -2.7509    3.8146 C   0  0  0  0  0  0  0  0  0  0  0  0
   -1.8966   -3.0312    4.0887 H   0  0  0  0  0  0  0  0  0  0  0  0
   -3.3647   -3.5575    3.6058 H   0  0  0  0  0  0  0  0  0  0  0  0
   -2.7508   -1.8639    2.6543 N   0  0  0  0  0  4  0  0  0  0  0  0
   -2.3024   -1.0007    2.9042 H   0  0  0  0  0  0  0  0  0  0  0  0
   -2.2280   -2.2991    1.9161 H   0  0  0  0  0  0  0  0  0  0  0  0
   -3.6768   -1.6634    2.3216 H   0  0  0  0  0  0  0  0  0  0  0  0
   -0.0179    2.9088    0.1097 C   0  0  0  0  0  0  0  0  0  0  0  0
   -0.8043    3.2444   -0.3620 H   0  0  0  0  0  0  0  0  0  0  0  0
    0.8244    3.2583   -0.2382 H   0  0  0  0  0  0  0  0  0  0  0  0
   -0.0990    3.2286    1.1486 H   0  0  0  0  0  0  0  0  0  0  0  0
    0.0046    1.3970   -0.0166 C   0  0  0  0  0  0  0  0  0  0  0  0
   -1.1772    0.6716    0.0181 C   0  0  0  0  0  0  0  0  0  0  0  0
   -2.0518    1.1705    0.0564 H   0  0  0  0  0  0  0  0  0  0  0  0
   -1.1836   -0.6921    0.0000 C   0  0  0  0  0  0  0  0  0  0  0  0
   -2.0774   -1.1847   -0.0025 H   0  0  0  0  0  0  0  0  0  0  0  0
   -0.0185   -1.3902   -0.0130 C   0  0  0  0  0  0  0  0  0  0  0  0
   -0.0110   -2.3854   -0.0322 H   0  0  0  0  0  0  0  0  0  0  0  0
    1.1836   -0.6861   -0.0000 C   0  0  0  0  0  0  0  0  0  0  0  0
    2.0661   -1.1924    0.0029 H   0  0  0  0  0  0  0  0  0  0  0  0
    1.1911    0.6997    0.0115 C   0  0  0  0  0  0  0  0  0  0  0  0
    2.0607    1.1891    0.0401 H   0  0  0  0  0  0  0  0  0  0  0  0
  1  5  1  0
  5  8  1  0
  1  2  1  0
  1  3  1  0
  1  4  1  0
  5  6  1  0
  5  7  1  0
  8  9  1  0
  8 10  1  0
  8 11  1  0
 12 16  1  0
 16 17  2  0
 17 19  1  0
 19 21  2  0
 21 23  1  0
 23 25  2  0
 25 16  1  0
 12 13  1  0
 12 14  1  0
 12 15  1  0
 17 18  1  0
 19 20  1  0
 21 22  1  0
 23 24  1  0
 25 26  1  0
M  CHG  1   8   1
M  END
>  <PDB_ID>  (2109) 
pdb3lic

>  <RESIDUE_NAME>  (2109) 
LYS   PHE

>  <FRAG_NAME>  (2109) 
ETAM   MBZ

>  <FRAG_ATOM_NUM>  (2109) 
fragi: 11  fragj: 15

>  <atom.prop.CHAIN_ID>  (2109) 
A A A A A A A A A A A Z Z Z Z Z Z Z Z Z Z Z Z Z Z Z

>  <atom.prop.IS_HEAVY_ATOM>  (2109) 
1 0 0 0 1 0 0 1 0 0 0 1 0 0 0 1 1 0 1 0 1 0 1 0 1 0

>  <DIFUSE_FUNC_ATOM>  (2109) 
n/a

>  <FINAL_SINGLE_POINT_ENERGY>  (2109) 
0

>  <NONCOV_INTER_ENERGY_QM>  (2109) 
0

>  <FF_Energy>  (2109) 
-1.52

>  <QM_Energy>  (2109) 
-7.42

>  <source>  (2109) 
ETAM_MBZ

>  <Index>  (2109) 
21739

$$$$
ETAM-pdb4ihc-F-LYS-63:MBZ-pdb4ihc-F-PHE-59
     RDKit          3D

 26 25  0  0  0  0  0  0  0  0999 V2000
    1.9995   -0.7180    4.7060 C   0  0  0  0  0  0  0  0  0  0  0  0
    2.3012    0.0445    4.1588 H   0  0  0  0  0  0  0  0  0  0  0  0
    2.4329   -1.5600    4.4330 H   0  0  0  0  0  0  0  0  0  0  0  0
    2.2359   -0.5197    5.7515 H   0  0  0  0  0  0  0  0  0  0  0  0
    0.4910   -0.8693    4.5437 C   0  0  0  0  0  0  0  0  0  0  0  0
    0.2118   -1.7535    4.9249 H   0  0  0  0  0  0  0  0  0  0  0  0
    0.0358   -0.1353    5.0539 H   0  0  0  0  0  0  0  0  0  0  0  0
    0.0811   -0.8002    3.1145 N   0  0  0  0  0  4  0  0  0  0  0  0
   -0.7054   -0.1897    3.0247 H   0  0  0  0  0  0  0  0  0  0  0  0
    0.8412   -0.4495    2.5680 H   0  0  0  0  0  0  0  0  0  0  0  0
   -0.1668   -1.7144    2.7959 H   0  0  0  0  0  0  0  0  0  0  0  0
    0.0039    2.8905    0.0011 C   0  0  0  0  0  0  0  0  0  0  0  0
   -0.7193    3.1978   -0.6004 H   0  0  0  0  0  0  0  0  0  0  0  0
    0.8895    3.1966   -0.3196 H   0  0  0  0  0  0  0  0  0  0  0  0
   -0.1668    3.3300    0.9838 H   0  0  0  0  0  0  0  0  0  0  0  0
    0.0028    1.3934    0.0007 C   0  0  0  0  0  0  0  0  0  0  0  0
   -1.1919    0.6916    0.0092 C   0  0  0  0  0  0  0  0  0  0  0  0
   -2.0582    1.1851    0.0206 H   0  0  0  0  0  0  0  0  0  0  0  0
   -1.1988   -0.6918    0.0000 C   0  0  0  0  0  0  0  0  0  0  0  0
   -2.0775   -1.1866   -0.0040 H   0  0  0  0  0  0  0  0  0  0  0  0
   -0.0011   -1.3897   -0.0021 C   0  0  0  0  0  0  0  0  0  0  0  0
   -0.0046   -2.3872   -0.0061 H   0  0  0  0  0  0  0  0  0  0  0  0
    1.1988   -0.6923   -0.0000 C   0  0  0  0  0  0  0  0  0  0  0  0
    2.0801   -1.1925    0.0089 H   0  0  0  0  0  0  0  0  0  0  0  0
    1.1902    0.6889   -0.0079 C   0  0  0  0  0  0  0  0  0  0  0  0
    2.0623    1.1880   -0.0207 H   0  0  0  0  0  0  0  0  0  0  0  0
  1  5  1  0
  5  8  1  0
  1  2  1  0
  1  3  1  0
  1  4  1  0
  5  6  1  0
  5  7  1  0
  8  9  1  0
  8 10  1  0
  8 11  1  0
 12 16  1  0
 16 17  2  0
 17 19  1  0
 19 21  2  0
 21 23  1  0
 23 25  2  0
 25 16  1  0
 12 13  1  0
 12 14  1  0
 12 15  1  0
 17 18  1  0
 19 20  1  0
 21 22  1  0
 23 24  1  0
 25 26  1  0
M  CHG  1   8   1
M  END
>  <PDB_ID>  (2110) 
pdb4ihc

>  <RESIDUE_NAME>  (2110) 
LYS   PHE

>  <FRAG_NAME>  (2110) 
ETAM   MBZ

>  <FRAG_ATOM_NUM>  (2110) 
fragi: 11  fragj: 15

>  <atom.prop.CHAIN_ID>  (2110) 
A A A A A A A A A A A Z Z Z Z Z Z Z Z Z Z Z Z Z Z Z

>  <atom.prop.IS_HEAVY_ATOM>  (2110) 
1 0 0 0 1 0 0 1 0 0 0 1 0 0 0 1 1 0 1 0 1 0 1 0 1 0

>  <DIFUSE_FUNC_ATOM>  (2110) 
n/a

>  <FINAL_SINGLE_POINT_ENERGY>  (2110) 
0

>  <NONCOV_INTER_ENERGY_QM>  (2110) 
0

>  <FF_Energy>  (2110) 
-7.82

>  <QM_Energy>  (2110) 
-15.23

>  <source>  (2110) 
ETAM_MBZ

>  <Index>  (2110) 
21740

$$$$
ETAM-pdb4ihc-H-LYS-63:MBZ-pdb4ihc-H-PHE-59
     RDKit          3D

 26 25  0  0  0  0  0  0  0  0999 V2000
    1.7139   -0.7250    4.7809 C   0  0  0  0  0  0  0  0  0  0  0  0
    2.1623   -0.0544    4.2063 H   0  0  0  0  0  0  0  0  0  0  0  0
    2.0632   -1.6354    4.6040 H   0  0  0  0  0  0  0  0  0  0  0  0
    1.8831   -0.4713    5.8273 H   0  0  0  0  0  0  0  0  0  0  0  0
    0.2230   -0.7109    4.4663 C   0  0  0  0  0  0  0  0  0  0  0  0
   -0.2132   -1.4795    4.9263 H   0  0  0  0  0  0  0  0  0  0  0  0
   -0.1697    0.1465    4.7879 H   0  0  0  0  0  0  0  0  0  0  0  0
    0.0011   -0.8301    2.9925 N   0  0  0  0  0  4  0  0  0  0  0  0
    0.7639   -1.3282    2.5846 H   0  0  0  0  0  0  0  0  0  0  0  0
   -0.8508   -1.3247    2.8282 H   0  0  0  0  0  0  0  0  0  0  0  0
   -0.0566    0.0836    2.5948 H   0  0  0  0  0  0  0  0  0  0  0  0
    0.0024    2.8865    0.0192 C   0  0  0  0  0  0  0  0  0  0  0  0
   -0.6155    3.2049   -0.6802 H   0  0  0  0  0  0  0  0  0  0  0  0
    0.9251    3.1975   -0.1376 H   0  0  0  0  0  0  0  0  0  0  0  0
   -0.3317    3.2928    0.9739 H   0  0  0  0  0  0  0  0  0  0  0  0
    0.0034    1.3935   -0.0039 C   0  0  0  0  0  0  0  0  0  0  0  0
   -1.1921    0.6981    0.0122 C   0  0  0  0  0  0  0  0  0  0  0  0
   -2.0567    1.1878    0.0314 H   0  0  0  0  0  0  0  0  0  0  0  0
   -1.1954   -0.6903   -0.0000 C   0  0  0  0  0  0  0  0  0  0  0  0
   -2.0780   -1.1813    0.0092 H   0  0  0  0  0  0  0  0  0  0  0  0
   -0.0063   -1.3861   -0.0231 C   0  0  0  0  0  0  0  0  0  0  0  0
   -0.0125   -2.3873   -0.0576 H   0  0  0  0  0  0  0  0  0  0  0  0
    1.1954   -0.6996   -0.0000 C   0  0  0  0  0  0  0  0  0  0  0  0
    2.0743   -1.2030    0.0078 H   0  0  0  0  0  0  0  0  0  0  0  0
    1.1950    0.6844    0.0148 C   0  0  0  0  0  0  0  0  0  0  0  0
    2.0652    1.1800    0.0386 H   0  0  0  0  0  0  0  0  0  0  0  0
  1  5  1  0
  5  8  1  0
  1  2  1  0
  1  3  1  0
  1  4  1  0
  5  6  1  0
  5  7  1  0
  8  9  1  0
  8 10  1  0
  8 11  1  0
 12 16  1  0
 16 17  2  0
 17 19  1  0
 19 21  2  0
 21 23  1  0
 23 25  2  0
 25 16  1  0
 12 13  1  0
 12 14  1  0
 12 15  1  0
 17 18  1  0
 19 20  1  0
 21 22  1  0
 23 24  1  0
 25 26  1  0
M  CHG  1   8   1
M  END
>  <PDB_ID>  (2111) 
pdb4ihc

>  <RESIDUE_NAME>  (2111) 
LYS   PHE

>  <FRAG_NAME>  (2111) 
ETAM   MBZ

>  <FRAG_ATOM_NUM>  (2111) 
fragi: 11  fragj: 15

>  <atom.prop.CHAIN_ID>  (2111) 
A A A A A A A A A A A Z Z Z Z Z Z Z Z Z Z Z Z Z Z Z

>  <atom.prop.IS_HEAVY_ATOM>  (2111) 
1 0 0 0 1 0 0 1 0 0 0 1 0 0 0 1 1 0 1 0 1 0 1 0 1 0

>  <DIFUSE_FUNC_ATOM>  (2111) 
n/a

>  <FINAL_SINGLE_POINT_ENERGY>  (2111) 
0

>  <NONCOV_INTER_ENERGY_QM>  (2111) 
0

>  <FF_Energy>  (2111) 
-7.52

>  <QM_Energy>  (2111) 
-15.5

>  <source>  (2111) 
ETAM_MBZ

>  <Index>  (2111) 
21744

$$$$
ETAM-pdb4iib-B-LYS-639:MBZ-pdb4iib-B-PHE-631
     RDKit          3D

 26 25  0  0  0  0  0  0  0  0999 V2000
    0.5708    0.5056   -3.5403 C   0  0  0  0  0  0  0  0  0  0  0  0
    0.4805   -0.0678   -2.7536 H   0  0  0  0  0  0  0  0  0  0  0  0
    0.5067    1.4591   -3.3340 H   0  0  0  0  0  0  0  0  0  0  0  0
    1.5316    0.3079   -4.0155 H   0  0  0  0  0  0  0  0  0  0  0  0
   -0.5447    0.1448   -4.5414 C   0  0  0  0  0  0  0  0  0  0  0  0
   -0.4948    0.7682   -5.3116 H   0  0  0  0  0  0  0  0  0  0  0  0
   -0.4154   -0.7926   -4.8394 H   0  0  0  0  0  0  0  0  0  0  0  0
   -1.8873    0.2750   -3.8813 N   0  0  0  0  0  4  0  0  0  0  0  0
   -2.3491    1.0827   -4.2401 H   0  0  0  0  0  0  0  0  0  0  0  0
   -2.4267   -0.5399   -4.0786 H   0  0  0  0  0  0  0  0  0  0  0  0
   -1.7576    0.3660   -2.8968 H   0  0  0  0  0  0  0  0  0  0  0  0
    0.0335    2.9300   -0.0021 C   0  0  0  0  0  0  0  0  0  0  0  0
   -0.8224    3.2692   -0.2953 H   0  0  0  0  0  0  0  0  0  0  0  0
    0.7979    3.2436   -0.5037 H   0  0  0  0  0  0  0  0  0  0  0  0
    0.1711    3.2617    1.0270 H   0  0  0  0  0  0  0  0  0  0  0  0
    0.0047    1.4241   -0.0441 C   0  0  0  0  0  0  0  0  0  0  0  0
   -1.2444    0.7200    0.0241 C   0  0  0  0  0  0  0  0  0  0  0  0
   -2.0788    1.2105    0.0842 H   0  0  0  0  0  0  0  0  0  0  0  0
   -1.2241   -0.6851   -0.0000 C   0  0  0  0  0  0  0  0  0  0  0  0
   -2.0901   -1.1930   -0.0490 H   0  0  0  0  0  0  0  0  0  0  0  0
    0.0056   -1.3974    0.0458 C   0  0  0  0  0  0  0  0  0  0  0  0
   -0.0322   -2.4012    0.1120 H   0  0  0  0  0  0  0  0  0  0  0  0
    1.2241   -0.7431    0.0000 C   0  0  0  0  0  0  0  0  0  0  0  0
    2.0917   -1.2366   -0.0137 H   0  0  0  0  0  0  0  0  0  0  0  0
    1.2341    0.6814   -0.0259 C   0  0  0  0  0  0  0  0  0  0  0  0
    2.0927    1.1676   -0.0322 H   0  0  0  0  0  0  0  0  0  0  0  0
  1  5  1  0
  5  8  1  0
  1  2  1  0
  1  3  1  0
  1  4  1  0
  5  6  1  0
  5  7  1  0
  8  9  1  0
  8 10  1  0
  8 11  1  0
 12 16  1  0
 16 17  2  0
 17 19  1  0
 19 21  2  0
 21 23  1  0
 23 25  2  0
 25 16  1  0
 12 13  1  0
 12 14  1  0
 12 15  1  0
 17 18  1  0
 19 20  1  0
 21 22  1  0
 23 24  1  0
 25 26  1  0
M  CHG  1   8   1
M  END
>  <PDB_ID>  (2112) 
pdb4iib

>  <RESIDUE_NAME>  (2112) 
LYS   PHE

>  <FRAG_NAME>  (2112) 
ETAM   MBZ

>  <FRAG_ATOM_NUM>  (2112) 
fragi: 11  fragj: 15

>  <atom.prop.CHAIN_ID>  (2112) 
A A A A A A A A A A A Z Z Z Z Z Z Z Z Z Z Z Z Z Z Z

>  <atom.prop.IS_HEAVY_ATOM>  (2112) 
1 0 0 0 1 0 0 1 0 0 0 1 0 0 0 1 1 0 1 0 1 0 1 0 1 0

>  <DIFUSE_FUNC_ATOM>  (2112) 
n/a

>  <FINAL_SINGLE_POINT_ENERGY>  (2112) 
0

>  <NONCOV_INTER_ENERGY_QM>  (2112) 
0

>  <FF_Energy>  (2112) 
-5.86

>  <QM_Energy>  (2112) 
-11.36

>  <source>  (2112) 
ETAM_MBZ

>  <Index>  (2112) 
21753

$$$$
ETAM-pdb4ij7-A-LYS-21:MBZ-pdb4ij7-A-PHE-145
     RDKit          3D

 26 25  0  0  0  0  0  0  0  0999 V2000
    0.4906   -0.9526   -4.2699 C   0  0  0  0  0  0  0  0  0  0  0  0
    1.2670   -0.9743   -4.8902 H   0  0  0  0  0  0  0  0  0  0  0  0
    0.4552   -0.0852   -3.7871 H   0  0  0  0  0  0  0  0  0  0  0  0
   -0.4252   -1.0708   -4.8491 H   0  0  0  0  0  0  0  0  0  0  0  0
    0.6520   -2.0707   -3.2499 C   0  0  0  0  0  0  0  0  0  0  0  0
    0.6666   -1.6713   -2.3273 H   0  0  0  0  0  0  0  0  0  0  0  0
   -0.1364   -2.6915   -3.3175 H   0  0  0  0  0  0  0  0  0  0  0  0
    1.9083   -2.8599   -3.4556 N   0  0  0  0  0  4  0  0  0  0  0  0
    2.6955   -2.2625   -3.3166 H   0  0  0  0  0  0  0  0  0  0  0  0
    1.9333   -3.6112   -2.7998 H   0  0  0  0  0  0  0  0  0  0  0  0
    1.9181   -3.2218   -4.3857 H   0  0  0  0  0  0  0  0  0  0  0  0
   -0.0078    2.9313    0.0047 C   0  0  0  0  0  0  0  0  0  0  0  0
    0.8770    3.2401   -0.3054 H   0  0  0  0  0  0  0  0  0  0  0  0
   -0.1938    3.2284    0.9281 H   0  0  0  0  0  0  0  0  0  0  0  0
   -0.7625    3.3728   -0.6462 H   0  0  0  0  0  0  0  0  0  0  0  0
   -0.0002    1.4176   -0.0034 C   0  0  0  0  0  0  0  0  0  0  0  0
   -1.2024    0.7024   -0.0016 C   0  0  0  0  0  0  0  0  0  0  0  0
   -2.0684    1.1874   -0.0028 H   0  0  0  0  0  0  0  0  0  0  0  0
   -1.2086   -0.7046   -0.0000 C   0  0  0  0  0  0  0  0  0  0  0  0
   -2.0842   -1.1921   -0.0036 H   0  0  0  0  0  0  0  0  0  0  0  0
   -0.0000   -1.4102    0.0086 C   0  0  0  0  0  0  0  0  0  0  0  0
   -0.0074   -2.4048    0.0200 H   0  0  0  0  0  0  0  0  0  0  0  0
    1.2086   -0.7106   -0.0000 C   0  0  0  0  0  0  0  0  0  0  0  0
    2.0882   -1.1983   -0.0021 H   0  0  0  0  0  0  0  0  0  0  0  0
    1.2026    0.7054   -0.0036 C   0  0  0  0  0  0  0  0  0  0  0  0
    2.0703    1.1923   -0.0068 H   0  0  0  0  0  0  0  0  0  0  0  0
  1  5  1  0
  5  8  1  0
  1  2  1  0
  1  3  1  0
  1  4  1  0
  5  6  1  0
  5  7  1  0
  8  9  1  0
  8 10  1  0
  8 11  1  0
 12 16  1  0
 16 17  2  0
 17 19  1  0
 19 21  2  0
 21 23  1  0
 23 25  2  0
 25 16  1  0
 12 13  1  0
 12 14  1  0
 12 15  1  0
 17 18  1  0
 19 20  1  0
 21 22  1  0
 23 24  1  0
 25 26  1  0
M  CHG  1   8   1
M  END
>  <PDB_ID>  (2113) 
pdb4ij7

>  <RESIDUE_NAME>  (2113) 
LYS   PHE

>  <FRAG_NAME>  (2113) 
ETAM   MBZ

>  <FRAG_ATOM_NUM>  (2113) 
fragi: 11  fragj: 15

>  <atom.prop.CHAIN_ID>  (2113) 
A A A A A A A A A A A Z Z Z Z Z Z Z Z Z Z Z Z Z Z Z

>  <atom.prop.IS_HEAVY_ATOM>  (2113) 
1 0 0 0 1 0 0 1 0 0 0 1 0 0 0 1 1 0 1 0 1 0 1 0 1 0

>  <DIFUSE_FUNC_ATOM>  (2113) 
n/a

>  <FINAL_SINGLE_POINT_ENERGY>  (2113) 
0

>  <NONCOV_INTER_ENERGY_QM>  (2113) 
0

>  <FF_Energy>  (2113) 
-1.19

>  <QM_Energy>  (2113) 
-6.88

>  <source>  (2113) 
ETAM_MBZ

>  <Index>  (2113) 
21758

$$$$
ETAM-pdb3ler-D-LYS-257:MBZ-pdb3ler-D-PHE-17
     RDKit          3D

 26 25  0  0  0  0  0  0  0  0999 V2000
   -5.7093    0.6168    3.4885 C   0  0  0  0  0  0  0  0  0  0  0  0
   -6.0106   -0.2131    3.0244 H   0  0  0  0  0  0  0  0  0  0  0  0
   -5.9808    1.4186    2.9600 H   0  0  0  0  0  0  0  0  0  0  0  0
   -6.1993    0.6638    4.4609 H   0  0  0  0  0  0  0  0  0  0  0  0
   -4.2022    0.5937    3.6064 C   0  0  0  0  0  0  0  0  0  0  0  0
   -3.8964    1.4621    3.9904 H   0  0  0  0  0  0  0  0  0  0  0  0
   -3.9372   -0.1547    4.2106 H   0  0  0  0  0  0  0  0  0  0  0  0
   -3.6145    0.3982    2.2843 N   0  0  0  0  0  4  0  0  0  0  0  0
   -3.1315   -0.4816    2.2469 H   0  0  0  0  0  0  0  0  0  0  0  0
   -4.3333    0.4025    1.5820 H   0  0  0  0  0  0  0  0  0  0  0  0
   -2.9612    1.1344    2.0838 H   0  0  0  0  0  0  0  0  0  0  0  0
    0.0067    2.9135   -0.0075 C   0  0  0  0  0  0  0  0  0  0  0  0
   -0.9276    3.2223   -0.0947 H   0  0  0  0  0  0  0  0  0  0  0  0
    0.5607    3.2187   -0.7665 H   0  0  0  0  0  0  0  0  0  0  0  0
    0.4160    3.3621    0.8977 H   0  0  0  0  0  0  0  0  0  0  0  0
    0.0056    1.4070   -0.0024 C   0  0  0  0  0  0  0  0  0  0  0  0
   -1.1990    0.6915   -0.0010 C   0  0  0  0  0  0  0  0  0  0  0  0
   -2.0627    1.1851   -0.0018 H   0  0  0  0  0  0  0  0  0  0  0  0
   -1.2064   -0.7007   -0.0000 C   0  0  0  0  0  0  0  0  0  0  0  0
   -2.0857   -1.1910   -0.0068 H   0  0  0  0  0  0  0  0  0  0  0  0
   -0.0091   -1.4004    0.0120 C   0  0  0  0  0  0  0  0  0  0  0  0
   -0.0058   -2.3947    0.0281 H   0  0  0  0  0  0  0  0  0  0  0  0
    1.2064   -0.6959   -0.0000 C   0  0  0  0  0  0  0  0  0  0  0  0
    2.0813   -1.1970   -0.0008 H   0  0  0  0  0  0  0  0  0  0  0  0
    1.2025    0.6984   -0.0086 C   0  0  0  0  0  0  0  0  0  0  0  0
    2.0710    1.1924   -0.0200 H   0  0  0  0  0  0  0  0  0  0  0  0
  1  5  1  0
  5  8  1  0
  1  2  1  0
  1  3  1  0
  1  4  1  0
  5  6  1  0
  5  7  1  0
  8  9  1  0
  8 10  1  0
  8 11  1  0
 12 16  1  0
 16 17  2  0
 17 19  1  0
 19 21  2  0
 21 23  1  0
 23 25  2  0
 25 16  1  0
 12 13  1  0
 12 14  1  0
 12 15  1  0
 17 18  1  0
 19 20  1  0
 21 22  1  0
 23 24  1  0
 25 26  1  0
M  CHG  1   8   1
M  END
>  <PDB_ID>  (2114) 
pdb3ler

>  <RESIDUE_NAME>  (2114) 
LYS   PHE

>  <FRAG_NAME>  (2114) 
ETAM   MBZ

>  <FRAG_ATOM_NUM>  (2114) 
fragi: 11  fragj: 15

>  <atom.prop.CHAIN_ID>  (2114) 
A A A A A A A A A A A Z Z Z Z Z Z Z Z Z Z Z Z Z Z Z

>  <atom.prop.IS_HEAVY_ATOM>  (2114) 
1 0 0 0 1 0 0 1 0 0 0 1 0 0 0 1 1 0 1 0 1 0 1 0 1 0

>  <DIFUSE_FUNC_ATOM>  (2114) 
n/a

>  <FINAL_SINGLE_POINT_ENERGY>  (2114) 
0

>  <NONCOV_INTER_ENERGY_QM>  (2114) 
0

>  <FF_Energy>  (2114) 
-1.28

>  <QM_Energy>  (2114) 
-7.08

>  <source>  (2114) 
ETAM_MBZ

>  <Index>  (2114) 
21771

$$$$
ETAM-pdb3lkm-A-LYS-680:MBZ-pdb3lkm-A-PHE-743
     RDKit          3D

 26 25  0  0  0  0  0  0  0  0999 V2000
   -3.9393   -3.7465   -1.5831 C   0  0  0  0  0  0  0  0  0  0  0  0
   -4.4804   -3.0750   -1.0834 H   0  0  0  0  0  0  0  0  0  0  0  0
   -4.5231   -4.2685   -2.1989 H   0  0  0  0  0  0  0  0  0  0  0  0
   -3.1816   -3.2258   -2.1686 H   0  0  0  0  0  0  0  0  0  0  0  0
   -3.3195   -4.7122   -0.5742 C   0  0  0  0  0  0  0  0  0  0  0  0
   -4.0648   -5.1798   -0.0759 H   0  0  0  0  0  0  0  0  0  0  0  0
   -2.8005   -5.4179   -1.0803 H   0  0  0  0  0  0  0  0  0  0  0  0
   -2.4117   -4.0579    0.4133 N   0  0  0  0  0  4  0  0  0  0  0  0
   -2.7475   -3.1383    0.6112 H   0  0  0  0  0  0  0  0  0  0  0  0
   -2.3949   -4.5979    1.2530 H   0  0  0  0  0  0  0  0  0  0  0  0
   -1.4911   -4.0039    0.0299 H   0  0  0  0  0  0  0  0  0  0  0  0
   -0.0020    2.9038   -0.0091 C   0  0  0  0  0  0  0  0  0  0  0  0
   -0.7638    3.2026   -0.5690 H   0  0  0  0  0  0  0  0  0  0  0  0
    0.8602    3.2038   -0.3939 H   0  0  0  0  0  0  0  0  0  0  0  0
   -0.1077    3.3672    0.9719 H   0  0  0  0  0  0  0  0  0  0  0  0
   -0.0026    1.3996    0.0102 C   0  0  0  0  0  0  0  0  0  0  0  0
   -1.1932    0.6943    0.0018 C   0  0  0  0  0  0  0  0  0  0  0  0
   -2.0630    1.1814   -0.0039 H   0  0  0  0  0  0  0  0  0  0  0  0
   -1.1996   -0.6996    0.0000 C   0  0  0  0  0  0  0  0  0  0  0  0
   -2.0769   -1.1896    0.0050 H   0  0  0  0  0  0  0  0  0  0  0  0
   -0.0009   -1.3918   -0.0061 C   0  0  0  0  0  0  0  0  0  0  0  0
   -0.0024   -2.3924   -0.0154 H   0  0  0  0  0  0  0  0  0  0  0  0
    1.1996   -0.6971   -0.0000 C   0  0  0  0  0  0  0  0  0  0  0  0
    2.0809   -1.1947    0.0100 H   0  0  0  0  0  0  0  0  0  0  0  0
    1.1966    0.6947   -0.0059 C   0  0  0  0  0  0  0  0  0  0  0  0
    2.0624    1.1910   -0.0225 H   0  0  0  0  0  0  0  0  0  0  0  0
  1  5  1  0
  5  8  1  0
  1  2  1  0
  1  3  1  0
  1  4  1  0
  5  6  1  0
  5  7  1  0
  8  9  1  0
  8 10  1  0
  8 11  1  0
 12 16  1  0
 16 17  2  0
 17 19  1  0
 19 21  2  0
 21 23  1  0
 23 25  2  0
 25 16  1  0
 12 13  1  0
 12 14  1  0
 12 15  1  0
 17 18  1  0
 19 20  1  0
 21 22  1  0
 23 24  1  0
 25 26  1  0
M  CHG  1   8   1
M  END
>  <PDB_ID>  (2115) 
pdb3lkm

>  <RESIDUE_NAME>  (2115) 
LYS   PHE

>  <FRAG_NAME>  (2115) 
ETAM   MBZ

>  <FRAG_ATOM_NUM>  (2115) 
fragi: 11  fragj: 15

>  <atom.prop.CHAIN_ID>  (2115) 
A A A A A A A A A A A Z Z Z Z Z Z Z Z Z Z Z Z Z Z Z

>  <atom.prop.IS_HEAVY_ATOM>  (2115) 
1 0 0 0 1 0 0 1 0 0 0 1 0 0 0 1 1 0 1 0 1 0 1 0 1 0

>  <DIFUSE_FUNC_ATOM>  (2115) 
n/a

>  <FINAL_SINGLE_POINT_ENERGY>  (2115) 
0

>  <NONCOV_INTER_ENERGY_QM>  (2115) 
0

>  <FF_Energy>  (2115) 
1.22

>  <QM_Energy>  (2115) 
-4.13

>  <source>  (2115) 
ETAM_MBZ

>  <Index>  (2115) 
21780

$$$$
ETAM-pdb3lic-A-LYS-121:MBZ-pdb3lic-A-PHE-124
     RDKit          3D

 26 25  0  0  0  0  0  0  0  0999 V2000
   -1.1828    2.0899   -3.5125 C   0  0  0  0  0  0  0  0  0  0  0  0
   -0.9586    2.4279   -2.5972 H   0  0  0  0  0  0  0  0  0  0  0  0
   -1.9455    1.4446   -3.4507 H   0  0  0  0  0  0  0  0  0  0  0  0
   -1.4814    2.9326   -4.1360 H   0  0  0  0  0  0  0  0  0  0  0  0
    0.0094    1.3771   -4.0711 C   0  0  0  0  0  0  0  0  0  0  0  0
    0.0281    1.4732   -5.0585 H   0  0  0  0  0  0  0  0  0  0  0  0
    0.8401    1.7413   -3.6679 H   0  0  0  0  0  0  0  0  0  0  0  0
   -0.0992   -0.0739   -3.7283 N   0  0  0  0  0  4  0  0  0  0  0  0
   -0.7446   -0.5118   -4.3525 H   0  0  0  0  0  0  0  0  0  0  0  0
    0.7993   -0.5005   -3.8184 H   0  0  0  0  0  0  0  0  0  0  0  0
   -0.4239   -0.1658   -2.7883 H   0  0  0  0  0  0  0  0  0  0  0  0
    0.0043    2.9921   -0.0554 C   0  0  0  0  0  0  0  0  0  0  0  0
   -0.2876    3.2397   -0.9619 H   0  0  0  0  0  0  0  0  0  0  0  0
    0.9284    3.2769    0.1286 H   0  0  0  0  0  0  0  0  0  0  0  0
   -0.6527    3.4852    0.6612 H   0  0  0  0  0  0  0  0  0  0  0  0
   -0.0051    1.4230    0.0077 C   0  0  0  0  0  0  0  0  0  0  0  0
   -1.1919    0.6987   -0.0373 C   0  0  0  0  0  0  0  0  0  0  0  0
   -2.0669    1.1864   -0.1000 H   0  0  0  0  0  0  0  0  0  0  0  0
   -1.2142   -0.7046    0.0000 C   0  0  0  0  0  0  0  0  0  0  0  0
   -2.0867   -1.1887    0.0043 H   0  0  0  0  0  0  0  0  0  0  0  0
    0.0001   -1.4176    0.0334 C   0  0  0  0  0  0  0  0  0  0  0  0
   -0.0054   -2.4041    0.0793 H   0  0  0  0  0  0  0  0  0  0  0  0
    1.2142   -0.7074   -0.0000 C   0  0  0  0  0  0  0  0  0  0  0  0
    2.0914   -1.1928   -0.0200 H   0  0  0  0  0  0  0  0  0  0  0  0
    1.1970    0.7079   -0.0038 C   0  0  0  0  0  0  0  0  0  0  0  0
    2.0665    1.2008   -0.0158 H   0  0  0  0  0  0  0  0  0  0  0  0
  1  5  1  0
  5  8  1  0
  1  2  1  0
  1  3  1  0
  1  4  1  0
  5  6  1  0
  5  7  1  0
  8  9  1  0
  8 10  1  0
  8 11  1  0
 12 16  1  0
 16 17  2  0
 17 19  1  0
 19 21  2  0
 21 23  1  0
 23 25  2  0
 25 16  1  0
 12 13  1  0
 12 14  1  0
 12 15  1  0
 17 18  1  0
 19 20  1  0
 21 22  1  0
 23 24  1  0
 25 26  1  0
M  CHG  1   8   1
M  END
>  <PDB_ID>  (2116) 
pdb3lic

>  <RESIDUE_NAME>  (2116) 
LYS   PHE

>  <FRAG_NAME>  (2116) 
ETAM   MBZ

>  <FRAG_ATOM_NUM>  (2116) 
fragi: 11  fragj: 15

>  <atom.prop.CHAIN_ID>  (2116) 
A A A A A A A A A A A Z Z Z Z Z Z Z Z Z Z Z Z Z Z Z

>  <atom.prop.IS_HEAVY_ATOM>  (2116) 
1 0 0 0 1 0 0 1 0 0 0 1 0 0 0 1 1 0 1 0 1 0 1 0 1 0

>  <DIFUSE_FUNC_ATOM>  (2116) 
n/a

>  <FINAL_SINGLE_POINT_ENERGY>  (2116) 
0

>  <NONCOV_INTER_ENERGY_QM>  (2116) 
0

>  <FF_Energy>  (2116) 
-6.83

>  <QM_Energy>  (2116) 
-12.98

>  <source>  (2116) 
ETAM_MBZ

>  <Index>  (2116) 
21782

$$$$
ETAM-pdb3llx-A-LYS-245:MBZ-pdb3llx-A-PHE-252
     RDKit          3D

 26 25  0  0  0  0  0  0  0  0999 V2000
   -0.1817   -0.6646   -4.5038 C   0  0  0  0  0  0  0  0  0  0  0  0
   -0.6557   -1.4464   -4.1214 H   0  0  0  0  0  0  0  0  0  0  0  0
    0.1002   -0.8432   -5.4366 H   0  0  0  0  0  0  0  0  0  0  0  0
   -0.8299    0.2112   -4.4741 H   0  0  0  0  0  0  0  0  0  0  0  0
    1.0837   -0.4237   -3.6659 C   0  0  0  0  0  0  0  0  0  0  0  0
    1.6432    0.2718   -4.1337 H   0  0  0  0  0  0  0  0  0  0  0  0
    0.8033   -0.0536   -2.7714 H   0  0  0  0  0  0  0  0  0  0  0  0
    1.8808   -1.6509   -3.4672 N   0  0  0  0  0  4  0  0  0  0  0  0
    2.4080   -1.5766   -2.6193 H   0  0  0  0  0  0  0  0  0  0  0  0
    1.2708   -2.4434   -3.4092 H   0  0  0  0  0  0  0  0  0  0  0  0
    2.5088   -1.7730   -4.2370 H   0  0  0  0  0  0  0  0  0  0  0  0
    0.0869    2.9247    0.0826 C   0  0  0  0  0  0  0  0  0  0  0  0
    1.0420    3.1707    0.2142 H   0  0  0  0  0  0  0  0  0  0  0  0
   -0.4522    3.2022    0.8720 H   0  0  0  0  0  0  0  0  0  0  0  0
   -0.2867    3.4578   -0.7916 H   0  0  0  0  0  0  0  0  0  0  0  0
    0.0213    1.4030    0.0067 C   0  0  0  0  0  0  0  0  0  0  0  0
   -1.1734    0.7123   -0.0022 C   0  0  0  0  0  0  0  0  0  0  0  0
   -2.0387    1.2045   -0.0112 H   0  0  0  0  0  0  0  0  0  0  0  0
   -1.1847   -0.6783   -0.0000 C   0  0  0  0  0  0  0  0  0  0  0  0
   -2.0817   -1.1571    0.0110 H   0  0  0  0  0  0  0  0  0  0  0  0
   -0.0157   -1.3973   -0.0099 C   0  0  0  0  0  0  0  0  0  0  0  0
   -0.0346   -2.3939   -0.0243 H   0  0  0  0  0  0  0  0  0  0  0  0
    1.1847   -0.7183   -0.0000 C   0  0  0  0  0  0  0  0  0  0  0  0
    2.0630   -1.2071    0.0050 H   0  0  0  0  0  0  0  0  0  0  0  0
    1.1677    0.6786    0.0055 C   0  0  0  0  0  0  0  0  0  0  0  0
    2.0674    1.1599    0.0077 H   0  0  0  0  0  0  0  0  0  0  0  0
  1  5  1  0
  5  8  1  0
  1  2  1  0
  1  3  1  0
  1  4  1  0
  5  6  1  0
  5  7  1  0
  8  9  1  0
  8 10  1  0
  8 11  1  0
 12 16  1  0
 16 17  2  0
 17 19  1  0
 19 21  2  0
 21 23  1  0
 23 25  2  0
 25 16  1  0
 12 13  1  0
 12 14  1  0
 12 15  1  0
 17 18  1  0
 19 20  1  0
 21 22  1  0
 23 24  1  0
 25 26  1  0
M  CHG  1   8   1
M  END
>  <PDB_ID>  (2117) 
pdb3llx

>  <RESIDUE_NAME>  (2117) 
LYS   PHE

>  <FRAG_NAME>  (2117) 
ETAM   MBZ

>  <FRAG_ATOM_NUM>  (2117) 
fragi: 11  fragj: 15

>  <atom.prop.CHAIN_ID>  (2117) 
A A A A A A A A A A A Z Z Z Z Z Z Z Z Z Z Z Z Z Z Z

>  <atom.prop.IS_HEAVY_ATOM>  (2117) 
1 0 0 0 1 0 0 1 0 0 0 1 0 0 0 1 1 0 1 0 1 0 1 0 1 0

>  <DIFUSE_FUNC_ATOM>  (2117) 
n/a

>  <FINAL_SINGLE_POINT_ENERGY>  (2117) 
0

>  <NONCOV_INTER_ENERGY_QM>  (2117) 
0

>  <FF_Energy>  (2117) 
-4.59

>  <QM_Energy>  (2117) 
-10.07

>  <source>  (2117) 
ETAM_MBZ

>  <Index>  (2117) 
21799

$$$$
ETAM-pdb3lkd-A-LYS-439:MBZ-pdb3lkd-A-PHE-453
     RDKit          3D

 26 25  0  0  0  0  0  0  0  0999 V2000
    0.5339   -2.0464   -4.2886 C   0  0  0  0  0  0  0  0  0  0  0  0
    0.5862   -2.4533   -5.1962 H   0  0  0  0  0  0  0  0  0  0  0  0
   -0.3559   -2.2279   -3.8808 H   0  0  0  0  0  0  0  0  0  0  0  0
    1.3103   -2.4815   -3.6593 H   0  0  0  0  0  0  0  0  0  0  0  0
    0.7031   -0.5407   -4.4245 C   0  0  0  0  0  0  0  0  0  0  0  0
    1.6398   -0.3472   -4.7369 H   0  0  0  0  0  0  0  0  0  0  0  0
    0.0592   -0.2043   -5.1200 H   0  0  0  0  0  0  0  0  0  0  0  0
    0.4575    0.1696   -3.1457 N   0  0  0  0  0  4  0  0  0  0  0  0
    1.2348    0.7656   -2.9402 H   0  0  0  0  0  0  0  0  0  0  0  0
   -0.3740    0.7210   -3.2243 H   0  0  0  0  0  0  0  0  0  0  0  0
    0.3462   -0.4977   -2.4085 H   0  0  0  0  0  0  0  0  0  0  0  0
   -0.0061    2.9102    0.0007 C   0  0  0  0  0  0  0  0  0  0  0  0
   -0.4304    3.2152   -0.8362 H   0  0  0  0  0  0  0  0  0  0  0  0
    0.9291    3.2194    0.0683 H   0  0  0  0  0  0  0  0  0  0  0  0
   -0.5609    3.3436    0.8328 H   0  0  0  0  0  0  0  0  0  0  0  0
   -0.0005    1.4041   -0.0006 C   0  0  0  0  0  0  0  0  0  0  0  0
   -1.1971    0.6925    0.0000 C   0  0  0  0  0  0  0  0  0  0  0  0
   -2.0646    1.1828   -0.0006 H   0  0  0  0  0  0  0  0  0  0  0  0
   -1.2013   -0.6980   -0.0000 C   0  0  0  0  0  0  0  0  0  0  0  0
   -2.0771   -1.1924    0.0006 H   0  0  0  0  0  0  0  0  0  0  0  0
    0.0013   -1.3961    0.0008 C   0  0  0  0  0  0  0  0  0  0  0  0
   -0.0039   -2.3943    0.0011 H   0  0  0  0  0  0  0  0  0  0  0  0
    1.2013   -0.6992    0.0000 C   0  0  0  0  0  0  0  0  0  0  0  0
    2.0831   -1.1939    0.0011 H   0  0  0  0  0  0  0  0  0  0  0  0
    1.1963    0.6967   -0.0002 C   0  0  0  0  0  0  0  0  0  0  0  0
    2.0648    1.1905   -0.0006 H   0  0  0  0  0  0  0  0  0  0  0  0
  1  5  1  0
  5  8  1  0
  1  2  1  0
  1  3  1  0
  1  4  1  0
  5  6  1  0
  5  7  1  0
  8  9  1  0
  8 10  1  0
  8 11  1  0
 12 16  1  0
 16 17  2  0
 17 19  1  0
 19 21  2  0
 21 23  1  0
 23 25  2  0
 25 16  1  0
 12 13  1  0
 12 14  1  0
 12 15  1  0
 17 18  1  0
 19 20  1  0
 21 22  1  0
 23 24  1  0
 25 26  1  0
M  CHG  1   8   1
M  END
>  <PDB_ID>  (2118) 
pdb3lkd

>  <RESIDUE_NAME>  (2118) 
LYS   PHE

>  <FRAG_NAME>  (2118) 
ETAM   MBZ

>  <FRAG_ATOM_NUM>  (2118) 
fragi: 11  fragj: 15

>  <atom.prop.CHAIN_ID>  (2118) 
A A A A A A A A A A A Z Z Z Z Z Z Z Z Z Z Z Z Z Z Z

>  <atom.prop.IS_HEAVY_ATOM>  (2118) 
1 0 0 0 1 0 0 1 0 0 0 1 0 0 0 1 1 0 1 0 1 0 1 0 1 0

>  <DIFUSE_FUNC_ATOM>  (2118) 
n/a

>  <FINAL_SINGLE_POINT_ENERGY>  (2118) 
0

>  <NONCOV_INTER_ENERGY_QM>  (2118) 
0

>  <FF_Energy>  (2118) 
-9.17

>  <QM_Energy>  (2118) 
-16.44

>  <source>  (2118) 
ETAM_MBZ

>  <Index>  (2118) 
21819

$$$$
ETAM-pdb4ima-A-LYS-78:MBZ-pdb4ima-A-PHE-110
     RDKit          3D

 26 25  0  0  0  0  0  0  0  0999 V2000
   -3.8530   -3.8472    0.6974 C   0  0  0  0  0  0  0  0  0  0  0  0
   -3.6919   -4.4539   -0.0744 H   0  0  0  0  0  0  0  0  0  0  0  0
   -4.6396   -4.1551    1.2216 H   0  0  0  0  0  0  0  0  0  0  0  0
   -2.9739   -3.8544    1.3417 H   0  0  0  0  0  0  0  0  0  0  0  0
   -4.1397   -2.4525    0.1661 C   0  0  0  0  0  0  0  0  0  0  0  0
   -4.3181   -1.8388    0.9406 H   0  0  0  0  0  0  0  0  0  0  0  0
   -3.3325   -2.1211   -0.3304 H   0  0  0  0  0  0  0  0  0  0  0  0
   -5.3145   -2.4384   -0.7481 N   0  0  0  0  0  4  0  0  0  0  0  0
   -5.2856   -1.6138   -1.3121 H   0  0  0  0  0  0  0  0  0  0  0  0
   -5.2873   -3.2470   -1.3354 H   0  0  0  0  0  0  0  0  0  0  0  0
   -6.1550   -2.4454   -0.2073 H   0  0  0  0  0  0  0  0  0  0  0  0
   -0.0032    2.8920    0.0221 C   0  0  0  0  0  0  0  0  0  0  0  0
    0.9276    3.1987    0.1601 H   0  0  0  0  0  0  0  0  0  0  0  0
   -0.5887    3.1857    0.7647 H   0  0  0  0  0  0  0  0  0  0  0  0
   -0.3740    3.3444   -0.8977 H   0  0  0  0  0  0  0  0  0  0  0  0
    0.0012    1.3951   -0.0007 C   0  0  0  0  0  0  0  0  0  0  0  0
   -1.1896    0.6904    0.0035 C   0  0  0  0  0  0  0  0  0  0  0  0
   -2.0581    1.1828    0.0082 H   0  0  0  0  0  0  0  0  0  0  0  0
   -1.1941   -0.6922   -0.0000 C   0  0  0  0  0  0  0  0  0  0  0  0
   -2.0760   -1.1858    0.0008 H   0  0  0  0  0  0  0  0  0  0  0  0
   -0.0035   -1.3867   -0.0031 C   0  0  0  0  0  0  0  0  0  0  0  0
   -0.0082   -2.3884   -0.0082 H   0  0  0  0  0  0  0  0  0  0  0  0
    1.1941   -0.6964    0.0000 C   0  0  0  0  0  0  0  0  0  0  0  0
    2.0755   -1.1960    0.0032 H   0  0  0  0  0  0  0  0  0  0  0  0
    1.1919    0.6897    0.0002 C   0  0  0  0  0  0  0  0  0  0  0  0
    2.0623    1.1856    0.0004 H   0  0  0  0  0  0  0  0  0  0  0  0
  1  5  1  0
  5  8  1  0
  1  2  1  0
  1  3  1  0
  1  4  1  0
  5  6  1  0
  5  7  1  0
  8  9  1  0
  8 10  1  0
  8 11  1  0
 12 16  1  0
 16 17  2  0
 17 19  1  0
 19 21  2  0
 21 23  1  0
 23 25  2  0
 25 16  1  0
 12 13  1  0
 12 14  1  0
 12 15  1  0
 17 18  1  0
 19 20  1  0
 21 22  1  0
 23 24  1  0
 25 26  1  0
M  CHG  1   8   1
M  END
>  <PDB_ID>  (2119) 
pdb4ima

>  <RESIDUE_NAME>  (2119) 
LYS   PHE

>  <FRAG_NAME>  (2119) 
ETAM   MBZ

>  <FRAG_ATOM_NUM>  (2119) 
fragi: 11  fragj: 15

>  <atom.prop.CHAIN_ID>  (2119) 
A A A A A A A A A A A Z Z Z Z Z Z Z Z Z Z Z Z Z Z Z

>  <atom.prop.IS_HEAVY_ATOM>  (2119) 
1 0 0 0 1 0 0 1 0 0 0 1 0 0 0 1 1 0 1 0 1 0 1 0 1 0

>  <DIFUSE_FUNC_ATOM>  (2119) 
n/a

>  <FINAL_SINGLE_POINT_ENERGY>  (2119) 
0

>  <NONCOV_INTER_ENERGY_QM>  (2119) 
0

>  <FF_Energy>  (2119) 
17.86

>  <QM_Energy>  (2119) 
1.01

>  <source>  (2119) 
ETAM_MBZ

>  <Index>  (2119) 
21821

$$$$
ETAM-pdb3llv-A-LYS-37:MBZ-pdb3llv-A-PHE-83
     RDKit          3D

 26 25  0  0  0  0  0  0  0  0999 V2000
    0.4951   -4.8819   -1.6930 C   0  0  0  0  0  0  0  0  0  0  0  0
    0.7443   -4.0539   -2.1971 H   0  0  0  0  0  0  0  0  0  0  0  0
   -0.0798   -5.4619   -2.2692 H   0  0  0  0  0  0  0  0  0  0  0  0
    1.4061   -5.4269   -1.4456 H   0  0  0  0  0  0  0  0  0  0  0  0
   -0.2939   -4.4822   -0.4662 C   0  0  0  0  0  0  0  0  0  0  0  0
   -0.5498   -5.3046    0.0407 H   0  0  0  0  0  0  0  0  0  0  0  0
    0.2737   -3.8970    0.1134 H   0  0  0  0  0  0  0  0  0  0  0  0
   -1.5221   -3.7432   -0.8518 N   0  0  0  0  0  4  0  0  0  0  0  0
   -2.3257   -4.3055   -0.6536 H   0  0  0  0  0  0  0  0  0  0  0  0
   -1.5758   -2.8910   -0.3309 H   0  0  0  0  0  0  0  0  0  0  0  0
   -1.4942   -3.5357   -1.8297 H   0  0  0  0  0  0  0  0  0  0  0  0
    0.0004    2.9077   -0.0065 C   0  0  0  0  0  0  0  0  0  0  0  0
   -0.3899    3.2104   -0.8608 H   0  0  0  0  0  0  0  0  0  0  0  0
    0.9314    3.2183    0.0968 H   0  0  0  0  0  0  0  0  0  0  0  0
   -0.5842    3.3555    0.7970 H   0  0  0  0  0  0  0  0  0  0  0  0
   -0.0007    1.4060    0.0071 C   0  0  0  0  0  0  0  0  0  0  0  0
   -1.2047    0.6919   -0.0074 C   0  0  0  0  0  0  0  0  0  0  0  0
   -2.0670    1.1839   -0.0245 H   0  0  0  0  0  0  0  0  0  0  0  0
   -1.2029   -0.6945    0.0000 C   0  0  0  0  0  0  0  0  0  0  0  0
   -2.0751   -1.1966    0.0053 H   0  0  0  0  0  0  0  0  0  0  0  0
    0.0077   -1.3928    0.0022 C   0  0  0  0  0  0  0  0  0  0  0  0
   -0.0059   -2.3946    0.0044 H   0  0  0  0  0  0  0  0  0  0  0  0
    1.2029   -0.7063   -0.0000 C   0  0  0  0  0  0  0  0  0  0  0  0
    2.0863   -1.1957    0.0012 H   0  0  0  0  0  0  0  0  0  0  0  0
    1.1977    0.6959   -0.0020 C   0  0  0  0  0  0  0  0  0  0  0  0
    2.0662    1.1871   -0.0106 H   0  0  0  0  0  0  0  0  0  0  0  0
  1  5  1  0
  5  8  1  0
  1  2  1  0
  1  3  1  0
  1  4  1  0
  5  6  1  0
  5  7  1  0
  8  9  1  0
  8 10  1  0
  8 11  1  0
 12 16  1  0
 16 17  2  0
 17 19  1  0
 19 21  2  0
 21 23  1  0
 23 25  2  0
 25 16  1  0
 12 13  1  0
 12 14  1  0
 12 15  1  0
 17 18  1  0
 19 20  1  0
 21 22  1  0
 23 24  1  0
 25 26  1  0
M  CHG  1   8   1
M  END
>  <PDB_ID>  (2120) 
pdb3llv

>  <RESIDUE_NAME>  (2120) 
LYS   PHE

>  <FRAG_NAME>  (2120) 
ETAM   MBZ

>  <FRAG_ATOM_NUM>  (2120) 
fragi: 11  fragj: 15

>  <atom.prop.CHAIN_ID>  (2120) 
A A A A A A A A A A A Z Z Z Z Z Z Z Z Z Z Z Z Z Z Z

>  <atom.prop.IS_HEAVY_ATOM>  (2120) 
1 0 0 0 1 0 0 1 0 0 0 1 0 0 0 1 1 0 1 0 1 0 1 0 1 0

>  <DIFUSE_FUNC_ATOM>  (2120) 
n/a

>  <FINAL_SINGLE_POINT_ENERGY>  (2120) 
0

>  <NONCOV_INTER_ENERGY_QM>  (2120) 
0

>  <FF_Energy>  (2120) 
44.68

>  <QM_Energy>  (2120) 
1.93

>  <source>  (2120) 
ETAM_MBZ

>  <Index>  (2120) 
21848

$$$$
ETAM-pdb3lnu-A-LYS-377:MBZ-pdb3lnu-A-PHE-372
     RDKit          3D

 26 25  0  0  0  0  0  0  0  0999 V2000
   -0.1030    1.9895    4.7698 C   0  0  0  0  0  0  0  0  0  0  0  0
    0.5179    2.1922    5.5200 H   0  0  0  0  0  0  0  0  0  0  0  0
   -1.0339    2.2417    5.0110 H   0  0  0  0  0  0  0  0  0  0  0  0
    0.2012    2.5723    3.9004 H   0  0  0  0  0  0  0  0  0  0  0  0
   -0.0577    0.4975    4.4861 C   0  0  0  0  0  0  0  0  0  0  0  0
    0.8441    0.2606    4.1218 H   0  0  0  0  0  0  0  0  0  0  0  0
   -0.2102   -0.0025    5.3401 H   0  0  0  0  0  0  0  0  0  0  0  0
   -1.1035    0.1007    3.4952 N   0  0  0  0  0  4  0  0  0  0  0  0
   -0.9642   -0.8527    3.2347 H   0  0  0  0  0  0  0  0  0  0  0  0
   -2.0063    0.2087    3.9092 H   0  0  0  0  0  0  0  0  0  0  0  0
   -1.0311    0.6853    2.6894 H   0  0  0  0  0  0  0  0  0  0  0  0
    0.0041    2.9139   -0.0469 C   0  0  0  0  0  0  0  0  0  0  0  0
    0.8390    3.2305    0.3757 H   0  0  0  0  0  0  0  0  0  0  0  0
   -0.7931    3.2360    0.4387 H   0  0  0  0  0  0  0  0  0  0  0  0
   -0.0340    3.3221   -1.0569 H   0  0  0  0  0  0  0  0  0  0  0  0
    0.0006    1.4071   -0.0002 C   0  0  0  0  0  0  0  0  0  0  0  0
   -1.1997    0.6953    0.0001 C   0  0  0  0  0  0  0  0  0  0  0  0
   -2.0657    1.1840   -0.0009 H   0  0  0  0  0  0  0  0  0  0  0  0
   -1.2051   -0.7023    0.0000 C   0  0  0  0  0  0  0  0  0  0  0  0
   -2.0803   -1.1942    0.0020 H   0  0  0  0  0  0  0  0  0  0  0  0
    0.0007   -1.3998   -0.0010 C   0  0  0  0  0  0  0  0  0  0  0  0
   -0.0007   -2.3964   -0.0027 H   0  0  0  0  0  0  0  0  0  0  0  0
    1.2051   -0.6977   -0.0000 C   0  0  0  0  0  0  0  0  0  0  0  0
    2.0854   -1.1936    0.0019 H   0  0  0  0  0  0  0  0  0  0  0  0
    1.1984    0.6974    0.0010 C   0  0  0  0  0  0  0  0  0  0  0  0
    2.0672    1.1932    0.0021 H   0  0  0  0  0  0  0  0  0  0  0  0
  1  5  1  0
  5  8  1  0
  1  2  1  0
  1  3  1  0
  1  4  1  0
  5  6  1  0
  5  7  1  0
  8  9  1  0
  8 10  1  0
  8 11  1  0
 12 16  1  0
 16 17  2  0
 17 19  1  0
 19 21  2  0
 21 23  1  0
 23 25  2  0
 25 16  1  0
 12 13  1  0
 12 14  1  0
 12 15  1  0
 17 18  1  0
 19 20  1  0
 21 22  1  0
 23 24  1  0
 25 26  1  0
M  CHG  1   8   1
M  END
>  <PDB_ID>  (2121) 
pdb3lnu

>  <RESIDUE_NAME>  (2121) 
LYS   PHE

>  <FRAG_NAME>  (2121) 
ETAM   MBZ

>  <FRAG_ATOM_NUM>  (2121) 
fragi: 11  fragj: 15

>  <atom.prop.CHAIN_ID>  (2121) 
A A A A A A A A A A A Z Z Z Z Z Z Z Z Z Z Z Z Z Z Z

>  <atom.prop.IS_HEAVY_ATOM>  (2121) 
1 0 0 0 1 0 0 1 0 0 0 1 0 0 0 1 1 0 1 0 1 0 1 0 1 0

>  <DIFUSE_FUNC_ATOM>  (2121) 
n/a

>  <FINAL_SINGLE_POINT_ENERGY>  (2121) 
0

>  <NONCOV_INTER_ENERGY_QM>  (2121) 
0

>  <FF_Energy>  (2121) 
-7.31

>  <QM_Energy>  (2121) 
-13.25

>  <source>  (2121) 
ETAM_MBZ

>  <Index>  (2121) 
21858

$$$$
ETAM-pdb3lo7-A-LEU-45:MBZ-pdb3lo7-A-PHE-72
     RDKit          3D

 26 25  0  0  0  0  0  0  0  0999 V2000
    4.0521   -1.3025    3.2500 C   0  0  0  0  0  0  0  0  0  0  0  0
    3.9645   -2.1958    2.7713 H   0  0  0  0  0  0  0  0  0  0  0  0
    4.9408   -1.3196    3.7444 H   0  0  0  0  0  0  0  0  0  0  0  0
    3.2684   -1.2715    4.0069 H   0  0  0  0  0  0  0  0  0  0  0  0
    4.1542   -0.2156    2.1686 C   0  0  0  0  0  0  0  0  0  0  0  0
    3.2611    0.2404    2.0993 H   0  0  0  0  0  0  0  0  0  0  0  0
    4.9025    0.5224    2.4580 H   0  0  0  0  0  0  0  0  0  0  0  0
    4.4629   -0.8189    0.8383 N   0  0  0  0  0  4  0  0  0  0  0  0
    3.7358   -1.4544    0.5919 H   0  0  0  0  0  0  0  0  0  0  0  0
    4.5228   -0.0938    0.1578 H   0  0  0  0  0  0  0  0  0  0  0  0
    5.3312   -1.3039    0.8941 H   0  0  0  0  0  0  0  0  0  0  0  0
    0.0005    2.9127    0.0107 C   0  0  0  0  0  0  0  0  0  0  0  0
   -0.8141    3.2196   -0.4551 H   0  0  0  0  0  0  0  0  0  0  0  0
    0.8196    3.2199   -0.4467 H   0  0  0  0  0  0  0  0  0  0  0  0
   -0.0046    3.3409    1.0131 H   0  0  0  0  0  0  0  0  0  0  0  0
    0.0009    1.4060    0.0022 C   0  0  0  0  0  0  0  0  0  0  0  0
   -1.2029    0.6966   -0.0003 C   0  0  0  0  0  0  0  0  0  0  0  0
   -2.0664    1.1884   -0.0033 H   0  0  0  0  0  0  0  0  0  0  0  0
   -1.2095   -0.6974    0.0000 C   0  0  0  0  0  0  0  0  0  0  0  0
   -2.0851   -1.1900    0.0021 H   0  0  0  0  0  0  0  0  0  0  0  0
   -0.0043   -1.3973   -0.0008 C   0  0  0  0  0  0  0  0  0  0  0  0
   -0.0088   -2.3955   -0.0022 H   0  0  0  0  0  0  0  0  0  0  0  0
    1.2095   -0.7019   -0.0000 C   0  0  0  0  0  0  0  0  0  0  0  0
    2.0841   -1.2021    0.0035 H   0  0  0  0  0  0  0  0  0  0  0  0
    1.2063    0.6940   -0.0010 C   0  0  0  0  0  0  0  0  0  0  0  0
    2.0711    1.1901   -0.0050 H   0  0  0  0  0  0  0  0  0  0  0  0
  1  5  1  0
  5  8  1  0
  1  2  1  0
  1  3  1  0
  1  4  1  0
  5  6  1  0
  5  7  1  0
  8  9  1  0
  8 10  1  0
  8 11  1  0
 12 16  1  0
 16 17  2  0
 17 19  1  0
 19 21  2  0
 21 23  1  0
 23 25  2  0
 25 16  1  0
 12 13  1  0
 12 14  1  0
 12 15  1  0
 17 18  1  0
 19 20  1  0
 21 22  1  0
 23 24  1  0
 25 26  1  0
M  CHG  1   8   1
M  END
>  <PDB_ID>  (2122) 
pdb3lo7

>  <RESIDUE_NAME>  (2122) 
LEU   PHE

>  <FRAG_NAME>  (2122) 
ETAM   MBZ

>  <FRAG_ATOM_NUM>  (2122) 
fragi: 11  fragj: 15

>  <atom.prop.CHAIN_ID>  (2122) 
A A A A A A A A A A A Z Z Z Z Z Z Z Z Z Z Z Z Z Z Z

>  <atom.prop.IS_HEAVY_ATOM>  (2122) 
1 0 0 0 1 0 0 1 0 0 0 1 0 0 0 1 1 0 1 0 1 0 1 0 1 0

>  <DIFUSE_FUNC_ATOM>  (2122) 
n/a

>  <FINAL_SINGLE_POINT_ENERGY>  (2122) 
0

>  <NONCOV_INTER_ENERGY_QM>  (2122) 
0

>  <FF_Energy>  (2122) 
1.53

>  <QM_Energy>  (2122) 
-4.0

>  <source>  (2122) 
ETAM_MBZ

>  <Index>  (2122) 
21862

$$$$
ETAM-pdb3loc-C-LYS-19:MBZ-pdb3loc-C-PHE-58
     RDKit          3D

 26 25  0  0  0  0  0  0  0  0999 V2000
   -0.9335   -4.5728    3.8056 C   0  0  0  0  0  0  0  0  0  0  0  0
   -1.2155   -3.7536    4.2979 H   0  0  0  0  0  0  0  0  0  0  0  0
   -1.1284   -5.3837    4.3508 H   0  0  0  0  0  0  0  0  0  0  0  0
   -1.5132   -4.6327    2.8844 H   0  0  0  0  0  0  0  0  0  0  0  0
    0.5669   -4.5012    3.5505 C   0  0  0  0  0  0  0  0  0  0  0  0
    1.0100   -4.1310    4.3543 H   0  0  0  0  0  0  0  0  0  0  0  0
    0.9007   -5.4110    3.3481 H   0  0  0  0  0  0  0  0  0  0  0  0
    0.7957   -3.6151    2.3973 N   0  0  0  0  0  4  0  0  0  0  0  0
    1.7768   -3.4392    2.2942 H   0  0  0  0  0  0  0  0  0  0  0  0
    0.4501   -4.0486    1.5619 H   0  0  0  0  0  0  0  0  0  0  0  0
    0.3185   -2.7450    2.5381 H   0  0  0  0  0  0  0  0  0  0  0  0
    0.0025    2.8841   -0.0123 C   0  0  0  0  0  0  0  0  0  0  0  0
   -0.8454    3.1888   -0.4238 H   0  0  0  0  0  0  0  0  0  0  0  0
    0.7835    3.1863   -0.5412 H   0  0  0  0  0  0  0  0  0  0  0  0
    0.0752    3.3274    0.9808 H   0  0  0  0  0  0  0  0  0  0  0  0
    0.0006    1.3892   -0.0052 C   0  0  0  0  0  0  0  0  0  0  0  0
   -1.1918    0.6928    0.0075 C   0  0  0  0  0  0  0  0  0  0  0  0
   -2.0579    1.1838    0.0214 H   0  0  0  0  0  0  0  0  0  0  0  0
   -1.1941   -0.6905    0.0000 C   0  0  0  0  0  0  0  0  0  0  0  0
   -2.0721   -1.1856   -0.0047 H   0  0  0  0  0  0  0  0  0  0  0  0
   -0.0010   -1.3758    0.0008 C   0  0  0  0  0  0  0  0  0  0  0  0
   -0.0063   -2.3826    0.0013 H   0  0  0  0  0  0  0  0  0  0  0  0
    1.1941   -0.6934   -0.0000 C   0  0  0  0  0  0  0  0  0  0  0  0
    2.0739   -1.1996    0.0034 H   0  0  0  0  0  0  0  0  0  0  0  0
    1.1922    0.6777   -0.0031 C   0  0  0  0  0  0  0  0  0  0  0  0
    2.0616    1.1804   -0.0045 H   0  0  0  0  0  0  0  0  0  0  0  0
  1  5  1  0
  5  8  1  0
  1  2  1  0
  1  3  1  0
  1  4  1  0
  5  6  1  0
  5  7  1  0
  8  9  1  0
  8 10  1  0
  8 11  1  0
 12 16  1  0
 16 17  2  0
 17 19  1  0
 19 21  2  0
 21 23  1  0
 23 25  2  0
 25 16  1  0
 12 13  1  0
 12 14  1  0
 12 15  1  0
 17 18  1  0
 19 20  1  0
 21 22  1  0
 23 24  1  0
 25 26  1  0
M  CHG  1   8   1
M  END
>  <PDB_ID>  (2123) 
pdb3loc

>  <RESIDUE_NAME>  (2123) 
LYS   PHE

>  <FRAG_NAME>  (2123) 
ETAM   MBZ

>  <FRAG_ATOM_NUM>  (2123) 
fragi: 11  fragj: 15

>  <atom.prop.CHAIN_ID>  (2123) 
A A A A A A A A A A A Z Z Z Z Z Z Z Z Z Z Z Z Z Z Z

>  <atom.prop.IS_HEAVY_ATOM>  (2123) 
1 0 0 0 1 0 0 1 0 0 0 1 0 0 0 1 1 0 1 0 1 0 1 0 1 0

>  <DIFUSE_FUNC_ATOM>  (2123) 
n/a

>  <FINAL_SINGLE_POINT_ENERGY>  (2123) 
0

>  <NONCOV_INTER_ENERGY_QM>  (2123) 
0

>  <FF_Energy>  (2123) 
-0.86

>  <QM_Energy>  (2123) 
-6.84

>  <source>  (2123) 
ETAM_MBZ

>  <Index>  (2123) 
21869

$$$$
ETAM-pdb4iib-A-LYS-639:MBZ-pdb4iib-A-PHE-631
     RDKit          3D

 26 25  0  0  0  0  0  0  0  0999 V2000
   -0.5152    0.3359    3.5010 C   0  0  0  0  0  0  0  0  0  0  0  0
   -0.4295   -0.2284    2.6921 H   0  0  0  0  0  0  0  0  0  0  0  0
   -0.4693    1.2974    3.2735 H   0  0  0  0  0  0  0  0  0  0  0  0
   -1.4675    0.1249    3.9874 H   0  0  0  0  0  0  0  0  0  0  0  0
    0.6487    0.0087    4.4411 C   0  0  0  0  0  0  0  0  0  0  0  0
    0.6259    0.6307    5.2145 H   0  0  0  0  0  0  0  0  0  0  0  0
    0.5642   -0.9321    4.7480 H   0  0  0  0  0  0  0  0  0  0  0  0
    1.9591    0.1732    3.7161 N   0  0  0  0  0  4  0  0  0  0  0  0
    2.5817    0.6991    4.2901 H   0  0  0  0  0  0  0  0  0  0  0  0
    2.3419   -0.7283    3.5337 H   0  0  0  0  0  0  0  0  0  0  0  0
    1.7950    0.6549    2.8594 H   0  0  0  0  0  0  0  0  0  0  0  0
   -0.0996    2.9012    0.0279 C   0  0  0  0  0  0  0  0  0  0  0  0
    0.7477    3.2546    0.3622 H   0  0  0  0  0  0  0  0  0  0  0  0
   -0.8709    3.1785    0.5600 H   0  0  0  0  0  0  0  0  0  0  0  0
   -0.2414    3.2853   -0.9823 H   0  0  0  0  0  0  0  0  0  0  0  0
   -0.0303    1.4180    0.0198 C   0  0  0  0  0  0  0  0  0  0  0  0
   -1.2189    0.6775   -0.0173 C   0  0  0  0  0  0  0  0  0  0  0  0
   -2.0940    1.1675   -0.0587 H   0  0  0  0  0  0  0  0  0  0  0  0
   -1.2245   -0.7105    0.0000 C   0  0  0  0  0  0  0  0  0  0  0  0
   -2.0790   -1.2185    0.0185 H   0  0  0  0  0  0  0  0  0  0  0  0
    0.0149   -1.3991   -0.0067 C   0  0  0  0  0  0  0  0  0  0  0  0
    0.0118   -2.3980   -0.0167 H   0  0  0  0  0  0  0  0  0  0  0  0
    1.2245   -0.6974   -0.0000 C   0  0  0  0  0  0  0  0  0  0  0  0
    2.1047   -1.1959    0.0028 H   0  0  0  0  0  0  0  0  0  0  0  0
    1.2343    0.7115    0.0041 C   0  0  0  0  0  0  0  0  0  0  0  0
    2.0652    1.2174   -0.0039 H   0  0  0  0  0  0  0  0  0  0  0  0
  1  5  1  0
  5  8  1  0
  1  2  1  0
  1  3  1  0
  1  4  1  0
  5  6  1  0
  5  7  1  0
  8  9  1  0
  8 10  1  0
  8 11  1  0
 12 16  1  0
 16 17  2  0
 17 19  1  0
 19 21  2  0
 21 23  1  0
 23 25  2  0
 25 16  1  0
 12 13  1  0
 12 14  1  0
 12 15  1  0
 17 18  1  0
 19 20  1  0
 21 22  1  0
 23 24  1  0
 25 26  1  0
M  CHG  1   8   1
M  END
>  <PDB_ID>  (2124) 
pdb4iib

>  <RESIDUE_NAME>  (2124) 
LYS   PHE

>  <FRAG_NAME>  (2124) 
ETAM   MBZ

>  <FRAG_ATOM_NUM>  (2124) 
fragi: 11  fragj: 15

>  <atom.prop.CHAIN_ID>  (2124) 
A A A A A A A A A A A Z Z Z Z Z Z Z Z Z Z Z Z Z Z Z

>  <atom.prop.IS_HEAVY_ATOM>  (2124) 
1 0 0 0 1 0 0 1 0 0 0 1 0 0 0 1 1 0 1 0 1 0 1 0 1 0

>  <DIFUSE_FUNC_ATOM>  (2124) 
n/a

>  <FINAL_SINGLE_POINT_ENERGY>  (2124) 
0

>  <NONCOV_INTER_ENERGY_QM>  (2124) 
0

>  <FF_Energy>  (2124) 
-5.91

>  <QM_Energy>  (2124) 
-11.67

>  <source>  (2124) 
ETAM_MBZ

>  <Index>  (2124) 
21886

$$$$
ETAM-pdb4iql-B-LYS-124:MBZ-pdb4iql-B-PHE-121
     RDKit          3D

 26 25  0  0  0  0  0  0  0  0999 V2000
    0.7194   -0.1005    4.1255 C   0  0  0  0  0  0  0  0  0  0  0  0
   -0.0931    0.1480    3.6254 H   0  0  0  0  0  0  0  0  0  0  0  0
    1.5144   -0.1276    3.5427 H   0  0  0  0  0  0  0  0  0  0  0  0
    0.8867    0.6504    4.8977 H   0  0  0  0  0  0  0  0  0  0  0  0
    0.5183   -1.4676    4.7598 C   0  0  0  0  0  0  0  0  0  0  0  0
    1.3732   -1.7446    5.2126 H   0  0  0  0  0  0  0  0  0  0  0  0
   -0.2042   -1.4006    5.4569 H   0  0  0  0  0  0  0  0  0  0  0  0
    0.1371   -2.5067    3.7629 N   0  0  0  0  0  4  0  0  0  0  0  0
   -0.6653   -3.0027    4.0923 H   0  0  0  0  0  0  0  0  0  0  0  0
   -0.0758   -2.0672    2.8913 H   0  0  0  0  0  0  0  0  0  0  0  0
    0.8979   -3.1428    3.6406 H   0  0  0  0  0  0  0  0  0  0  0  0
   -0.0181    2.9092    0.0829 C   0  0  0  0  0  0  0  0  0  0  0  0
   -0.6784    3.2589   -0.5502 H   0  0  0  0  0  0  0  0  0  0  0  0
    0.8865    3.2440   -0.0871 H   0  0  0  0  0  0  0  0  0  0  0  0
   -0.3098    3.2404    1.0795 H   0  0  0  0  0  0  0  0  0  0  0  0
    0.0003    1.4127   -0.0268 C   0  0  0  0  0  0  0  0  0  0  0  0
   -1.2083    0.6951    0.0134 C   0  0  0  0  0  0  0  0  0  0  0  0
   -2.0709    1.1834    0.0510 H   0  0  0  0  0  0  0  0  0  0  0  0
   -1.2208   -0.7149   -0.0000 C   0  0  0  0  0  0  0  0  0  0  0  0
   -2.0896   -1.2009   -0.0065 H   0  0  0  0  0  0  0  0  0  0  0  0
   -0.0033   -1.4103   -0.0022 C   0  0  0  0  0  0  0  0  0  0  0  0
    0.0051   -2.4032   -0.0055 H   0  0  0  0  0  0  0  0  0  0  0  0
    1.2208   -0.6953    0.0000 C   0  0  0  0  0  0  0  0  0  0  0  0
    2.0945   -1.1908   -0.0079 H   0  0  0  0  0  0  0  0  0  0  0  0
    1.2113    0.7128    0.0156 C   0  0  0  0  0  0  0  0  0  0  0  0
    2.0711    1.2077    0.0561 H   0  0  0  0  0  0  0  0  0  0  0  0
  1  5  1  0
  5  8  1  0
  1  2  1  0
  1  3  1  0
  1  4  1  0
  5  6  1  0
  5  7  1  0
  8  9  1  0
  8 10  1  0
  8 11  1  0
 12 16  1  0
 16 17  2  0
 17 19  1  0
 19 21  2  0
 21 23  1  0
 23 25  2  0
 25 16  1  0
 12 13  1  0
 12 14  1  0
 12 15  1  0
 17 18  1  0
 19 20  1  0
 21 22  1  0
 23 24  1  0
 25 26  1  0
M  CHG  1   8   1
M  END
>  <PDB_ID>  (2125) 
pdb4iql

>  <RESIDUE_NAME>  (2125) 
LYS   PHE

>  <FRAG_NAME>  (2125) 
ETAM   MBZ

>  <FRAG_ATOM_NUM>  (2125) 
fragi: 11  fragj: 15

>  <atom.prop.CHAIN_ID>  (2125) 
A A A A A A A A A A A Z Z Z Z Z Z Z Z Z Z Z Z Z Z Z

>  <atom.prop.IS_HEAVY_ATOM>  (2125) 
1 0 0 0 1 0 0 1 0 0 0 1 0 0 0 1 1 0 1 0 1 0 1 0 1 0

>  <DIFUSE_FUNC_ATOM>  (2125) 
n/a

>  <FINAL_SINGLE_POINT_ENERGY>  (2125) 
0

>  <NONCOV_INTER_ENERGY_QM>  (2125) 
0

>  <FF_Energy>  (2125) 
-4.07

>  <QM_Energy>  (2125) 
-9.48

>  <source>  (2125) 
ETAM_MBZ

>  <Index>  (2125) 
21903

$$$$
ETAM-pdb3lqn-A-LYS-141:MBZ-pdb3lqn-A-PHE-9
     RDKit          3D

 26 25  0  0  0  0  0  0  0  0999 V2000
   -2.0952   -1.4965   -3.6283 C   0  0  0  0  0  0  0  0  0  0  0  0
   -2.4589   -2.0350   -2.8766 H   0  0  0  0  0  0  0  0  0  0  0  0
   -1.1300   -1.3063   -3.4849 H   0  0  0  0  0  0  0  0  0  0  0  0
   -2.2112   -2.0598   -4.5542 H   0  0  0  0  0  0  0  0  0  0  0  0
   -2.8460   -0.1770   -3.6881 C   0  0  0  0  0  0  0  0  0  0  0  0
   -2.3870    0.4297   -4.3425 H   0  0  0  0  0  0  0  0  0  0  0  0
   -3.7823   -0.3481   -4.0075 H   0  0  0  0  0  0  0  0  0  0  0  0
   -2.8995    0.4919   -2.3582 N   0  0  0  0  0  4  0  0  0  0  0  0
   -3.2857   -0.1389   -1.6856 H   0  0  0  0  0  0  0  0  0  0  0  0
   -1.9754    0.7521   -2.0808 H   0  0  0  0  0  0  0  0  0  0  0  0
   -3.4729    1.3083   -2.4211 H   0  0  0  0  0  0  0  0  0  0  0  0
   -0.0142    2.8747   -0.0072 C   0  0  0  0  0  0  0  0  0  0  0  0
    0.4652    3.1845   -0.8152 H   0  0  0  0  0  0  0  0  0  0  0  0
    0.4312    3.1911    0.8170 H   0  0  0  0  0  0  0  0  0  0  0  0
   -1.0168    3.3017   -0.0293 H   0  0  0  0  0  0  0  0  0  0  0  0
   -0.0019    1.3824   -0.0007 C   0  0  0  0  0  0  0  0  0  0  0  0
   -1.1864    0.6770    0.0023 C   0  0  0  0  0  0  0  0  0  0  0  0
   -2.0562    1.1782    0.0051 H   0  0  0  0  0  0  0  0  0  0  0  0
   -1.1907   -0.6830    0.0000 C   0  0  0  0  0  0  0  0  0  0  0  0
   -2.0702   -1.1873   -0.0005 H   0  0  0  0  0  0  0  0  0  0  0  0
   -0.0011   -1.3731    0.0006 C   0  0  0  0  0  0  0  0  0  0  0  0
   -0.0074   -2.3777    0.0011 H   0  0  0  0  0  0  0  0  0  0  0  0
    1.1907   -0.6885    0.0000 C   0  0  0  0  0  0  0  0  0  0  0  0
    2.0731   -1.1923    0.0022 H   0  0  0  0  0  0  0  0  0  0  0  0
    1.1894    0.6851   -0.0022 C   0  0  0  0  0  0  0  0  0  0  0  0
    2.0568    1.1862   -0.0058 H   0  0  0  0  0  0  0  0  0  0  0  0
  1  5  1  0
  5  8  1  0
  1  2  1  0
  1  3  1  0
  1  4  1  0
  5  6  1  0
  5  7  1  0
  8  9  1  0
  8 10  1  0
  8 11  1  0
 12 16  1  0
 16 17  2  0
 17 19  1  0
 19 21  2  0
 21 23  1  0
 23 25  2  0
 25 16  1  0
 12 13  1  0
 12 14  1  0
 12 15  1  0
 17 18  1  0
 19 20  1  0
 21 22  1  0
 23 24  1  0
 25 26  1  0
M  CHG  1   8   1
M  END
>  <PDB_ID>  (2126) 
pdb3lqn

>  <RESIDUE_NAME>  (2126) 
LYS   PHE

>  <FRAG_NAME>  (2126) 
ETAM   MBZ

>  <FRAG_ATOM_NUM>  (2126) 
fragi: 11  fragj: 15

>  <atom.prop.CHAIN_ID>  (2126) 
A A A A A A A A A A A Z Z Z Z Z Z Z Z Z Z Z Z Z Z Z

>  <atom.prop.IS_HEAVY_ATOM>  (2126) 
1 0 0 0 1 0 0 1 0 0 0 1 0 0 0 1 1 0 1 0 1 0 1 0 1 0

>  <DIFUSE_FUNC_ATOM>  (2126) 
n/a

>  <FINAL_SINGLE_POINT_ENERGY>  (2126) 
0

>  <NONCOV_INTER_ENERGY_QM>  (2126) 
0

>  <FF_Energy>  (2126) 
-1.4

>  <QM_Energy>  (2126) 
-8.99

>  <source>  (2126) 
ETAM_MBZ

>  <Index>  (2126) 
21909

$$$$
ETAM-pdb4iss-A-LYS-18:MBZ-pdb4iss-A-PHE-15
     RDKit          3D

 26 25  0  0  0  0  0  0  0  0999 V2000
   -2.6903    2.1025    4.7576 C   0  0  0  0  0  0  0  0  0  0  0  0
   -3.1854    1.5152    5.3862 H   0  0  0  0  0  0  0  0  0  0  0  0
   -3.3199    2.6107    4.1830 H   0  0  0  0  0  0  0  0  0  0  0  0
   -2.0863    2.8057    5.3309 H   0  0  0  0  0  0  0  0  0  0  0  0
   -1.8169    1.2256    3.8619 C   0  0  0  0  0  0  0  0  0  0  0  0
   -1.2563    1.8291    3.2683 H   0  0  0  0  0  0  0  0  0  0  0  0
   -1.1714    0.7054    4.4496 H   0  0  0  0  0  0  0  0  0  0  0  0
   -2.5657    0.2621    2.9997 N   0  0  0  0  0  4  0  0  0  0  0  0
   -3.4927    0.6042    2.8528 H   0  0  0  0  0  0  0  0  0  0  0  0
   -2.0967    0.1721    2.1231 H   0  0  0  0  0  0  0  0  0  0  0  0
   -2.6030   -0.6264    3.4544 H   0  0  0  0  0  0  0  0  0  0  0  0
    0.0012    2.8857    0.0244 C   0  0  0  0  0  0  0  0  0  0  0  0
   -0.8202    3.2070   -0.4180 H   0  0  0  0  0  0  0  0  0  0  0  0
    0.8121    3.2051   -0.4389 H   0  0  0  0  0  0  0  0  0  0  0  0
    0.0148    3.2765    1.0419 H   0  0  0  0  0  0  0  0  0  0  0  0
   -0.0009    1.4059   -0.0070 C   0  0  0  0  0  0  0  0  0  0  0  0
   -1.2122    0.7007    0.0034 C   0  0  0  0  0  0  0  0  0  0  0  0
   -2.0708    1.1926    0.0119 H   0  0  0  0  0  0  0  0  0  0  0  0
   -1.2135   -0.6933    0.0000 C   0  0  0  0  0  0  0  0  0  0  0  0
   -2.0816   -1.1948    0.0053 H   0  0  0  0  0  0  0  0  0  0  0  0
    0.0075   -1.3992   -0.0088 C   0  0  0  0  0  0  0  0  0  0  0  0
   -0.0077   -2.3963   -0.0220 H   0  0  0  0  0  0  0  0  0  0  0  0
    1.2135   -0.7071   -0.0000 C   0  0  0  0  0  0  0  0  0  0  0  0
    2.0921   -1.1998   -0.0011 H   0  0  0  0  0  0  0  0  0  0  0  0
    1.2056    0.6930    0.0124 C   0  0  0  0  0  0  0  0  0  0  0  0
    2.0697    1.1900    0.0350 H   0  0  0  0  0  0  0  0  0  0  0  0
  1  5  1  0
  5  8  1  0
  1  2  1  0
  1  3  1  0
  1  4  1  0
  5  6  1  0
  5  7  1  0
  8  9  1  0
  8 10  1  0
  8 11  1  0
 12 16  1  0
 16 17  2  0
 17 19  1  0
 19 21  2  0
 21 23  1  0
 23 25  2  0
 25 16  1  0
 12 13  1  0
 12 14  1  0
 12 15  1  0
 17 18  1  0
 19 20  1  0
 21 22  1  0
 23 24  1  0
 25 26  1  0
M  CHG  1   8   1
M  END
>  <PDB_ID>  (2127) 
pdb4iss

>  <RESIDUE_NAME>  (2127) 
LYS   PHE

>  <FRAG_NAME>  (2127) 
ETAM   MBZ

>  <FRAG_ATOM_NUM>  (2127) 
fragi: 11  fragj: 15

>  <atom.prop.CHAIN_ID>  (2127) 
A A A A A A A A A A A Z Z Z Z Z Z Z Z Z Z Z Z Z Z Z

>  <atom.prop.IS_HEAVY_ATOM>  (2127) 
1 0 0 0 1 0 0 1 0 0 0 1 0 0 0 1 1 0 1 0 1 0 1 0 1 0

>  <DIFUSE_FUNC_ATOM>  (2127) 
n/a

>  <FINAL_SINGLE_POINT_ENERGY>  (2127) 
0

>  <NONCOV_INTER_ENERGY_QM>  (2127) 
0

>  <FF_Energy>  (2127) 
-4.82

>  <QM_Energy>  (2127) 
-12.01

>  <source>  (2127) 
ETAM_MBZ

>  <Index>  (2127) 
21950

$$$$
ETAM-pdb4ivi-A-ALA-25:MBZ-pdb4ivi-A-PHE-79
     RDKit          3D

 26 25  0  0  0  0  0  0  0  0999 V2000
   -5.2541    2.1215    1.0787 C   0  0  0  0  0  0  0  0  0  0  0  0
   -6.0648    2.6472    0.8236 H   0  0  0  0  0  0  0  0  0  0  0  0
   -5.3472    1.1829    0.7494 H   0  0  0  0  0  0  0  0  0  0  0  0
   -5.1584    2.1180    2.0739 H   0  0  0  0  0  0  0  0  0  0  0  0
   -4.0179    2.7588    0.4520 C   0  0  0  0  0  0  0  0  0  0  0  0
   -3.2155    2.2058    0.7014 H   0  0  0  0  0  0  0  0  0  0  0  0
   -4.1145    2.7737   -0.6336 H   0  0  0  0  0  0  0  0  0  0  0  0
   -3.8204    4.1297    1.0006 N   0  0  0  0  0  4  0  0  0  0  0  0
   -4.4284    4.2614    1.7799 H   0  0  0  0  0  0  0  0  0  0  0  0
   -2.8723    4.2326    1.2916 H   0  0  0  0  0  0  0  0  0  0  0  0
   -4.0303    4.7996    0.2922 H   0  0  0  0  0  0  0  0  0  0  0  0
    0.0026    2.9045   -0.0025 C   0  0  0  0  0  0  0  0  0  0  0  0
    0.8878    3.2114    0.3170 H   0  0  0  0  0  0  0  0  0  0  0  0
   -0.7201    3.2152    0.5987 H   0  0  0  0  0  0  0  0  0  0  0  0
   -0.1683    3.3495   -0.9828 H   0  0  0  0  0  0  0  0  0  0  0  0
    0.0000    1.4039    0.0011 C   0  0  0  0  0  0  0  0  0  0  0  0
   -1.1980    0.6945   -0.0006 C   0  0  0  0  0  0  0  0  0  0  0  0
   -2.0642    1.1838   -0.0033 H   0  0  0  0  0  0  0  0  0  0  0  0
   -1.2032   -0.6992   -0.0000 C   0  0  0  0  0  0  0  0  0  0  0  0
   -2.0789   -1.1918    0.0033 H   0  0  0  0  0  0  0  0  0  0  0  0
    0.0009   -1.3966   -0.0014 C   0  0  0  0  0  0  0  0  0  0  0  0
   -0.0032   -2.3941   -0.0037 H   0  0  0  0  0  0  0  0  0  0  0  0
    1.2032   -0.6989   -0.0000 C   0  0  0  0  0  0  0  0  0  0  0  0
    2.0846   -1.1939    0.0014 H   0  0  0  0  0  0  0  0  0  0  0  0
    1.1971    0.6963    0.0009 C   0  0  0  0  0  0  0  0  0  0  0  0
    2.0655    1.1911    0.0004 H   0  0  0  0  0  0  0  0  0  0  0  0
  1  5  1  0
  5  8  1  0
  1  2  1  0
  1  3  1  0
  1  4  1  0
  5  6  1  0
  5  7  1  0
  8  9  1  0
  8 10  1  0
  8 11  1  0
 12 16  1  0
 16 17  2  0
 17 19  1  0
 19 21  2  0
 21 23  1  0
 23 25  2  0
 25 16  1  0
 12 13  1  0
 12 14  1  0
 12 15  1  0
 17 18  1  0
 19 20  1  0
 21 22  1  0
 23 24  1  0
 25 26  1  0
M  CHG  1   8   1
M  END
>  <PDB_ID>  (2128) 
pdb4ivi

>  <RESIDUE_NAME>  (2128) 
ALA   PHE

>  <FRAG_NAME>  (2128) 
ETAM   MBZ

>  <FRAG_ATOM_NUM>  (2128) 
fragi: 11  fragj: 15

>  <atom.prop.CHAIN_ID>  (2128) 
A A A A A A A A A A A Z Z Z Z Z Z Z Z Z Z Z Z Z Z Z

>  <atom.prop.IS_HEAVY_ATOM>  (2128) 
1 0 0 0 1 0 0 1 0 0 0 1 0 0 0 1 1 0 1 0 1 0 1 0 1 0

>  <DIFUSE_FUNC_ATOM>  (2128) 
n/a

>  <FINAL_SINGLE_POINT_ENERGY>  (2128) 
0

>  <NONCOV_INTER_ENERGY_QM>  (2128) 
0

>  <FF_Energy>  (2128) 
8.41

>  <QM_Energy>  (2128) 
-0.23

>  <source>  (2128) 
ETAM_MBZ

>  <Index>  (2128) 
21998

$$$$
ETAM-pdb3lwk-A-LYS-174:MBZ-pdb3lwk-A-PHE-115
     RDKit          3D

 26 25  0  0  0  0  0  0  0  0999 V2000
   -0.3924   -0.7950    3.3194 C   0  0  0  0  0  0  0  0  0  0  0  0
   -0.1913    0.0836    3.7356 H   0  0  0  0  0  0  0  0  0  0  0  0
   -0.0525   -0.8292    2.3873 H   0  0  0  0  0  0  0  0  0  0  0  0
    0.0701   -1.5889    3.9058 H   0  0  0  0  0  0  0  0  0  0  0  0
   -1.9025   -0.9736    3.2840 C   0  0  0  0  0  0  0  0  0  0  0  0
   -2.3418   -0.0578    3.2496 H   0  0  0  0  0  0  0  0  0  0  0  0
   -2.1575   -1.4558    2.4259 H   0  0  0  0  0  0  0  0  0  0  0  0
   -2.4897   -1.7366    4.4467 N   0  0  0  0  0  4  0  0  0  0  0  0
   -2.1958   -2.6865    4.3878 H   0  0  0  0  0  0  0  0  0  0  0  0
   -2.1642   -1.3286    5.2949 H   0  0  0  0  0  0  0  0  0  0  0  0
   -3.4832   -1.6808    4.3981 H   0  0  0  0  0  0  0  0  0  0  0  0
   -0.0028    2.9245   -0.0070 C   0  0  0  0  0  0  0  0  0  0  0  0
   -0.7510    3.2197    0.5678 H   0  0  0  0  0  0  0  0  0  0  0  0
   -0.1259    3.2272   -0.9408 H   0  0  0  0  0  0  0  0  0  0  0  0
    0.9108    3.3809    0.3738 H   0  0  0  0  0  0  0  0  0  0  0  0
    0.0041    1.4031   -0.0116 C   0  0  0  0  0  0  0  0  0  0  0  0
   -1.1871    0.7065    0.0044 C   0  0  0  0  0  0  0  0  0  0  0  0
   -2.0557    1.1842    0.0174 H   0  0  0  0  0  0  0  0  0  0  0  0
   -1.1882   -0.7018   -0.0000 C   0  0  0  0  0  0  0  0  0  0  0  0
   -2.0721   -1.1836   -0.0032 H   0  0  0  0  0  0  0  0  0  0  0  0
    0.0003   -1.3891    0.0023 C   0  0  0  0  0  0  0  0  0  0  0  0
   -0.0020   -2.3925    0.0055 H   0  0  0  0  0  0  0  0  0  0  0  0
    1.1882   -0.6988   -0.0000 C   0  0  0  0  0  0  0  0  0  0  0  0
    2.0748   -1.1972   -0.0043 H   0  0  0  0  0  0  0  0  0  0  0  0
    1.1828    0.6800    0.0049 C   0  0  0  0  0  0  0  0  0  0  0  0
    2.0619    1.1765    0.0200 H   0  0  0  0  0  0  0  0  0  0  0  0
  1  5  1  0
  5  8  1  0
  1  2  1  0
  1  3  1  0
  1  4  1  0
  5  6  1  0
  5  7  1  0
  8  9  1  0
  8 10  1  0
  8 11  1  0
 12 16  1  0
 16 17  2  0
 17 19  1  0
 19 21  2  0
 21 23  1  0
 23 25  2  0
 25 16  1  0
 12 13  1  0
 12 14  1  0
 12 15  1  0
 17 18  1  0
 19 20  1  0
 21 22  1  0
 23 24  1  0
 25 26  1  0
M  CHG  1   8   1
M  END
>  <PDB_ID>  (2129) 
pdb3lwk

>  <RESIDUE_NAME>  (2129) 
LYS   PHE

>  <FRAG_NAME>  (2129) 
ETAM   MBZ

>  <FRAG_ATOM_NUM>  (2129) 
fragi: 11  fragj: 15

>  <atom.prop.CHAIN_ID>  (2129) 
A A A A A A A A A A A Z Z Z Z Z Z Z Z Z Z Z Z Z Z Z

>  <atom.prop.IS_HEAVY_ATOM>  (2129) 
1 0 0 0 1 0 0 1 0 0 0 1 0 0 0 1 1 0 1 0 1 0 1 0 1 0

>  <DIFUSE_FUNC_ATOM>  (2129) 
n/a

>  <FINAL_SINGLE_POINT_ENERGY>  (2129) 
0

>  <NONCOV_INTER_ENERGY_QM>  (2129) 
0

>  <FF_Energy>  (2129) 
-1.44

>  <QM_Energy>  (2129) 
-7.36

>  <source>  (2129) 
ETAM_MBZ

>  <Index>  (2129) 
22020

$$$$
ETAM-pdb4ix3-A-LYS-200:MBZ-pdb4ix3-A-PHE-183
     RDKit          3D

 26 25  0  0  0  0  0  0  0  0999 V2000
   -3.6341   -2.7145    4.0637 C   0  0  0  0  0  0  0  0  0  0  0  0
   -3.2924   -3.1870    4.8623 H   0  0  0  0  0  0  0  0  0  0  0  0
   -3.7748   -3.3355    3.3082 H   0  0  0  0  0  0  0  0  0  0  0  0
   -4.5732   -2.2183    4.3086 H   0  0  0  0  0  0  0  0  0  0  0  0
   -2.5939   -1.6750    3.6404 C   0  0  0  0  0  0  0  0  0  0  0  0
   -2.9305   -1.1953    2.8280 H   0  0  0  0  0  0  0  0  0  0  0  0
   -2.4742   -1.0169    4.3861 H   0  0  0  0  0  0  0  0  0  0  0  0
   -1.2790   -2.3087    3.3278 N   0  0  0  0  0  4  0  0  0  0  0  0
   -0.9823   -2.8544    4.1102 H   0  0  0  0  0  0  0  0  0  0  0  0
   -1.3791   -2.8957    2.5259 H   0  0  0  0  0  0  0  0  0  0  0  0
   -0.6054   -1.5945    3.1414 H   0  0  0  0  0  0  0  0  0  0  0  0
   -0.0059    2.9116    0.0577 C   0  0  0  0  0  0  0  0  0  0  0  0
   -0.7449    3.2286   -0.5182 H   0  0  0  0  0  0  0  0  0  0  0  0
    0.8698    3.2300   -0.2731 H   0  0  0  0  0  0  0  0  0  0  0  0
   -0.1573    3.3259    1.0545 H   0  0  0  0  0  0  0  0  0  0  0  0
    0.0024    1.4021    0.0120 C   0  0  0  0  0  0  0  0  0  0  0  0
   -1.2158    0.6855    0.0156 C   0  0  0  0  0  0  0  0  0  0  0  0
   -2.0727    1.1744    0.0282 H   0  0  0  0  0  0  0  0  0  0  0  0
   -1.2131   -0.7185    0.0000 C   0  0  0  0  0  0  0  0  0  0  0  0
   -2.0790   -1.2137   -0.0079 H   0  0  0  0  0  0  0  0  0  0  0  0
    0.0020   -1.3858   -0.0022 C   0  0  0  0  0  0  0  0  0  0  0  0
    0.0159   -2.3921   -0.0057 H   0  0  0  0  0  0  0  0  0  0  0  0
    1.2131   -0.6849    0.0000 C   0  0  0  0  0  0  0  0  0  0  0  0
    2.0889   -1.1892    0.0213 H   0  0  0  0  0  0  0  0  0  0  0  0
    1.2114    0.7017   -0.0254 C   0  0  0  0  0  0  0  0  0  0  0  0
    2.0696    1.2033   -0.0717 H   0  0  0  0  0  0  0  0  0  0  0  0
  1  5  1  0
  5  8  1  0
  1  2  1  0
  1  3  1  0
  1  4  1  0
  5  6  1  0
  5  7  1  0
  8  9  1  0
  8 10  1  0
  8 11  1  0
 12 16  1  0
 16 17  2  0
 17 19  1  0
 19 21  2  0
 21 23  1  0
 23 25  2  0
 25 16  1  0
 12 13  1  0
 12 14  1  0
 12 15  1  0
 17 18  1  0
 19 20  1  0
 21 22  1  0
 23 24  1  0
 25 26  1  0
M  CHG  1   8   1
M  END
>  <PDB_ID>  (2130) 
pdb4ix3

>  <RESIDUE_NAME>  (2130) 
LYS   PHE

>  <FRAG_NAME>  (2130) 
ETAM   MBZ

>  <FRAG_ATOM_NUM>  (2130) 
fragi: 11  fragj: 15

>  <atom.prop.CHAIN_ID>  (2130) 
A A A A A A A A A A A Z Z Z Z Z Z Z Z Z Z Z Z Z Z Z

>  <atom.prop.IS_HEAVY_ATOM>  (2130) 
1 0 0 0 1 0 0 1 0 0 0 1 0 0 0 1 1 0 1 0 1 0 1 0 1 0

>  <DIFUSE_FUNC_ATOM>  (2130) 
n/a

>  <FINAL_SINGLE_POINT_ENERGY>  (2130) 
0

>  <NONCOV_INTER_ENERGY_QM>  (2130) 
0

>  <FF_Energy>  (2130) 
-3.68

>  <QM_Energy>  (2130) 
-9.07

>  <source>  (2130) 
ETAM_MBZ

>  <Index>  (2130) 
22029

$$$$
ETAM-pdb4ixj-A-LYS-59:MBZ-pdb4ixj-A-PHE-91
     RDKit          3D

 26 25  0  0  0  0  0  0  0  0999 V2000
    1.7414    2.1748   -3.0039 C   0  0  0  0  0  0  0  0  0  0  0  0
    1.1579    1.7804   -2.3038 H   0  0  0  0  0  0  0  0  0  0  0  0
    2.1470    1.4610   -3.5628 H   0  0  0  0  0  0  0  0  0  0  0  0
    1.1457    2.8315   -3.6378 H   0  0  0  0  0  0  0  0  0  0  0  0
    2.8616    2.9467   -2.3193 C   0  0  0  0  0  0  0  0  0  0  0  0
    3.3932    3.4320   -3.0140 H   0  0  0  0  0  0  0  0  0  0  0  0
    2.4608    3.6085   -1.6857 H   0  0  0  0  0  0  0  0  0  0  0  0
    3.7641    2.0299   -1.5634 N   0  0  0  0  0  4  0  0  0  0  0  0
    3.3139    1.1451   -1.4480 H   0  0  0  0  0  0  0  0  0  0  0  0
    4.6151    1.9100   -2.0737 H   0  0  0  0  0  0  0  0  0  0  0  0
    3.9617    2.4264   -0.6675 H   0  0  0  0  0  0  0  0  0  0  0  0
   -0.0020    2.9194   -0.0055 C   0  0  0  0  0  0  0  0  0  0  0  0
   -0.8266    3.2183   -0.4638 H   0  0  0  0  0  0  0  0  0  0  0  0
    0.8058    3.2216   -0.4919 H   0  0  0  0  0  0  0  0  0  0  0  0
    0.0145    3.3789    0.9828 H   0  0  0  0  0  0  0  0  0  0  0  0
    0.0009    1.4106    0.0070 C   0  0  0  0  0  0  0  0  0  0  0  0
   -1.1975    0.6987   -0.0030 C   0  0  0  0  0  0  0  0  0  0  0  0
   -2.0640    1.1852   -0.0139 H   0  0  0  0  0  0  0  0  0  0  0  0
   -1.2023   -0.7006    0.0000 C   0  0  0  0  0  0  0  0  0  0  0  0
   -2.0798   -1.1899    0.0013 H   0  0  0  0  0  0  0  0  0  0  0  0
   -0.0005   -1.4016    0.0023 C   0  0  0  0  0  0  0  0  0  0  0  0
   -0.0063   -2.3977    0.0050 H   0  0  0  0  0  0  0  0  0  0  0  0
    1.2023   -0.7035   -0.0000 C   0  0  0  0  0  0  0  0  0  0  0  0
    2.0838   -1.1969    0.0038 H   0  0  0  0  0  0  0  0  0  0  0  0
    1.1971    0.6964   -0.0063 C   0  0  0  0  0  0  0  0  0  0  0  0
    2.0674    1.1887   -0.0212 H   0  0  0  0  0  0  0  0  0  0  0  0
  1  5  1  0
  5  8  1  0
  1  2  1  0
  1  3  1  0
  1  4  1  0
  5  6  1  0
  5  7  1  0
  8  9  1  0
  8 10  1  0
  8 11  1  0
 12 16  1  0
 16 17  2  0
 17 19  1  0
 19 21  2  0
 21 23  1  0
 23 25  2  0
 25 16  1  0
 12 13  1  0
 12 14  1  0
 12 15  1  0
 17 18  1  0
 19 20  1  0
 21 22  1  0
 23 24  1  0
 25 26  1  0
M  CHG  1   8   1
M  END
>  <PDB_ID>  (2131) 
pdb4ixj

>  <RESIDUE_NAME>  (2131) 
LYS   PHE

>  <FRAG_NAME>  (2131) 
ETAM   MBZ

>  <FRAG_ATOM_NUM>  (2131) 
fragi: 11  fragj: 15

>  <atom.prop.CHAIN_ID>  (2131) 
A A A A A A A A A A A Z Z Z Z Z Z Z Z Z Z Z Z Z Z Z

>  <atom.prop.IS_HEAVY_ATOM>  (2131) 
1 0 0 0 1 0 0 1 0 0 0 1 0 0 0 1 1 0 1 0 1 0 1 0 1 0

>  <DIFUSE_FUNC_ATOM>  (2131) 
n/a

>  <FINAL_SINGLE_POINT_ENERGY>  (2131) 
0

>  <NONCOV_INTER_ENERGY_QM>  (2131) 
0

>  <FF_Energy>  (2131) 
2.51

>  <QM_Energy>  (2131) 
-4.1

>  <source>  (2131) 
ETAM_MBZ

>  <Index>  (2131) 
22030

$$$$
ETAM-pdb4ixj-B-LYS-147:MBZ-pdb4ixj-B-PHE-135
     RDKit          3D

 26 25  0  0  0  0  0  0  0  0999 V2000
   -1.2088   -4.2176   -1.3342 C   0  0  0  0  0  0  0  0  0  0  0  0
   -0.3550   -4.5493   -1.7489 H   0  0  0  0  0  0  0  0  0  0  0  0
   -1.1116   -3.2361   -1.1406 H   0  0  0  0  0  0  0  0  0  0  0  0
   -2.0098   -4.3430   -2.0627 H   0  0  0  0  0  0  0  0  0  0  0  0
   -1.4255   -4.9541   -0.0120 C   0  0  0  0  0  0  0  0  0  0  0  0
   -1.4927   -5.9414   -0.1977 H   0  0  0  0  0  0  0  0  0  0  0  0
   -0.6283   -4.7973    0.5822 H   0  0  0  0  0  0  0  0  0  0  0  0
   -2.6647   -4.5117    0.7135 N   0  0  0  0  0  4  0  0  0  0  0  0
   -3.0833   -5.3027    1.1536 H   0  0  0  0  0  0  0  0  0  0  0  0
   -2.4144   -3.8334    1.4000 H   0  0  0  0  0  0  0  0  0  0  0  0
   -3.3002   -4.1122    0.0562 H   0  0  0  0  0  0  0  0  0  0  0  0
   -0.0092    2.9094   -0.0081 C   0  0  0  0  0  0  0  0  0  0  0  0
   -0.8513    3.2045   -0.4355 H   0  0  0  0  0  0  0  0  0  0  0  0
    0.7796    3.2116   -0.5224 H   0  0  0  0  0  0  0  0  0  0  0  0
    0.0416    3.3617    0.9824 H   0  0  0  0  0  0  0  0  0  0  0  0
   -0.0021    1.4004    0.0050 C   0  0  0  0  0  0  0  0  0  0  0  0
   -1.1963    0.6933    0.0040 C   0  0  0  0  0  0  0  0  0  0  0  0
   -2.0637    1.1833    0.0050 H   0  0  0  0  0  0  0  0  0  0  0  0
   -1.2008   -0.6967   -0.0000 C   0  0  0  0  0  0  0  0  0  0  0  0
   -2.0769   -1.1910   -0.0011 H   0  0  0  0  0  0  0  0  0  0  0  0
    0.0015   -1.3911   -0.0004 C   0  0  0  0  0  0  0  0  0  0  0  0
   -0.0029   -2.3905   -0.0015 H   0  0  0  0  0  0  0  0  0  0  0  0
    1.2008   -0.6970    0.0000 C   0  0  0  0  0  0  0  0  0  0  0  0
    2.0824   -1.1952    0.0077 H   0  0  0  0  0  0  0  0  0  0  0  0
    1.1969    0.6911   -0.0086 C   0  0  0  0  0  0  0  0  0  0  0  0
    2.0631    1.1891   -0.0253 H   0  0  0  0  0  0  0  0  0  0  0  0
  1  5  1  0
  5  8  1  0
  1  2  1  0
  1  3  1  0
  1  4  1  0
  5  6  1  0
  5  7  1  0
  8  9  1  0
  8 10  1  0
  8 11  1  0
 12 16  1  0
 16 17  2  0
 17 19  1  0
 19 21  2  0
 21 23  1  0
 23 25  2  0
 25 16  1  0
 12 13  1  0
 12 14  1  0
 12 15  1  0
 17 18  1  0
 19 20  1  0
 21 22  1  0
 23 24  1  0
 25 26  1  0
M  CHG  1   8   1
M  END
>  <PDB_ID>  (2132) 
pdb4ixj

>  <RESIDUE_NAME>  (2132) 
LYS   PHE

>  <FRAG_NAME>  (2132) 
ETAM   MBZ

>  <FRAG_ATOM_NUM>  (2132) 
fragi: 11  fragj: 15

>  <atom.prop.CHAIN_ID>  (2132) 
A A A A A A A A A A A Z Z Z Z Z Z Z Z Z Z Z Z Z Z Z

>  <atom.prop.IS_HEAVY_ATOM>  (2132) 
1 0 0 0 1 0 0 1 0 0 0 1 0 0 0 1 1 0 1 0 1 0 1 0 1 0

>  <DIFUSE_FUNC_ATOM>  (2132) 
n/a

>  <FINAL_SINGLE_POINT_ENERGY>  (2132) 
0

>  <NONCOV_INTER_ENERGY_QM>  (2132) 
0

>  <FF_Energy>  (2132) 
5.44

>  <QM_Energy>  (2132) 
-1.82

>  <source>  (2132) 
ETAM_MBZ

>  <Index>  (2132) 
22033

$$$$
ETAM-pdb3lxz-A-LYS-137:MBZ-pdb3lxz-A-PHE-181
     RDKit          3D

 26 25  0  0  0  0  0  0  0  0999 V2000
   -1.8598   -0.6144   -4.9366 C   0  0  0  0  0  0  0  0  0  0  0  0
   -1.5615   -1.1016   -5.7355 H   0  0  0  0  0  0  0  0  0  0  0  0
   -2.7602   -0.2356   -5.0425 H   0  0  0  0  0  0  0  0  0  0  0  0
   -1.8772   -1.3105   -4.0979 H   0  0  0  0  0  0  0  0  0  0  0  0
   -0.8943    0.4578   -4.6060 C   0  0  0  0  0  0  0  0  0  0  0  0
    0.0123    0.0679   -4.4522 H   0  0  0  0  0  0  0  0  0  0  0  0
   -0.8524    1.1234   -5.3499 H   0  0  0  0  0  0  0  0  0  0  0  0
   -1.3323    1.1527   -3.3678 N   0  0  0  0  0  4  0  0  0  0  0  0
   -0.5315    1.3870   -2.8170 H   0  0  0  0  0  0  0  0  0  0  0  0
   -1.8250    1.9880   -3.6116 H   0  0  0  0  0  0  0  0  0  0  0  0
   -1.9343    0.5504   -2.8436 H   0  0  0  0  0  0  0  0  0  0  0  0
    0.0073    2.9239   -0.0267 C   0  0  0  0  0  0  0  0  0  0  0  0
    0.6452    3.2186   -0.7243 H   0  0  0  0  0  0  0  0  0  0  0  0
    0.2913    3.2333    0.8701 H   0  0  0  0  0  0  0  0  0  0  0  0
   -0.9551    3.3870   -0.2444 H   0  0  0  0  0  0  0  0  0  0  0  0
   -0.0059    1.4102   -0.0154 C   0  0  0  0  0  0  0  0  0  0  0  0
   -1.2094    0.6945    0.0182 C   0  0  0  0  0  0  0  0  0  0  0  0
   -2.0719    1.1923    0.0547 H   0  0  0  0  0  0  0  0  0  0  0  0
   -1.2161   -0.6883    0.0000 C   0  0  0  0  0  0  0  0  0  0  0  0
   -2.0828   -1.1926   -0.0220 H   0  0  0  0  0  0  0  0  0  0  0  0
    0.0063   -1.4025    0.0142 C   0  0  0  0  0  0  0  0  0  0  0  0
   -0.0098   -2.3952    0.0337 H   0  0  0  0  0  0  0  0  0  0  0  0
    1.2161   -0.7066    0.0000 C   0  0  0  0  0  0  0  0  0  0  0  0
    2.0935   -1.2016    0.0038 H   0  0  0  0  0  0  0  0  0  0  0  0
    1.2090    0.6927   -0.0170 C   0  0  0  0  0  0  0  0  0  0  0  0
    2.0697    1.1931   -0.0318 H   0  0  0  0  0  0  0  0  0  0  0  0
  1  5  1  0
  5  8  1  0
  1  2  1  0
  1  3  1  0
  1  4  1  0
  5  6  1  0
  5  7  1  0
  8  9  1  0
  8 10  1  0
  8 11  1  0
 12 16  1  0
 16 17  2  0
 17 19  1  0
 19 21  2  0
 21 23  1  0
 23 25  2  0
 25 16  1  0
 12 13  1  0
 12 14  1  0
 12 15  1  0
 17 18  1  0
 19 20  1  0
 21 22  1  0
 23 24  1  0
 25 26  1  0
M  CHG  1   8   1
M  END
>  <PDB_ID>  (2133) 
pdb3lxz

>  <RESIDUE_NAME>  (2133) 
LYS   PHE

>  <FRAG_NAME>  (2133) 
ETAM   MBZ

>  <FRAG_ATOM_NUM>  (2133) 
fragi: 11  fragj: 15

>  <atom.prop.CHAIN_ID>  (2133) 
A A A A A A A A A A A Z Z Z Z Z Z Z Z Z Z Z Z Z Z Z

>  <atom.prop.IS_HEAVY_ATOM>  (2133) 
1 0 0 0 1 0 0 1 0 0 0 1 0 0 0 1 1 0 1 0 1 0 1 0 1 0

>  <DIFUSE_FUNC_ATOM>  (2133) 
n/a

>  <FINAL_SINGLE_POINT_ENERGY>  (2133) 
0

>  <NONCOV_INTER_ENERGY_QM>  (2133) 
0

>  <FF_Energy>  (2133) 
-6.52

>  <QM_Energy>  (2133) 
-11.77

>  <source>  (2133) 
ETAM_MBZ

>  <Index>  (2133) 
22074

$$$$
ETAM-pdb4izh-A-LYS-212:MBZ-pdb4izh-A-PHE-194
     RDKit          3D

 26 25  0  0  0  0  0  0  0  0999 V2000
    4.5666   -0.7016    1.4025 C   0  0  0  0  0  0  0  0  0  0  0  0
    3.7242   -0.5808    0.8918 H   0  0  0  0  0  0  0  0  0  0  0  0
    5.3375   -0.8142    0.7878 H   0  0  0  0  0  0  0  0  0  0  0  0
    4.7339    0.1863    2.0123 H   0  0  0  0  0  0  0  0  0  0  0  0
    4.4395   -1.9678    2.2618 C   0  0  0  0  0  0  0  0  0  0  0  0
    5.3571   -2.2806    2.5098 H   0  0  0  0  0  0  0  0  0  0  0  0
    3.9314   -1.7411    3.0936 H   0  0  0  0  0  0  0  0  0  0  0  0
    3.7260   -3.0646    1.5337 N   0  0  0  0  0  4  0  0  0  0  0  0
    4.3467   -3.4712    0.8652 H   0  0  0  0  0  0  0  0  0  0  0  0
    3.4351   -3.7576    2.1902 H   0  0  0  0  0  0  0  0  0  0  0  0
    2.9299   -2.6839    1.0678 H   0  0  0  0  0  0  0  0  0  0  0  0
   -0.0082    2.9047   -0.0041 C   0  0  0  0  0  0  0  0  0  0  0  0
   -0.8176    3.2095   -0.4839 H   0  0  0  0  0  0  0  0  0  0  0  0
    0.8153    3.2202   -0.4531 H   0  0  0  0  0  0  0  0  0  0  0  0
   -0.0298    3.3372    0.9962 H   0  0  0  0  0  0  0  0  0  0  0  0
    0.0016    1.4125   -0.0066 C   0  0  0  0  0  0  0  0  0  0  0  0
   -1.2054    0.6930    0.0048 C   0  0  0  0  0  0  0  0  0  0  0  0
   -2.0684    1.1865    0.0149 H   0  0  0  0  0  0  0  0  0  0  0  0
   -1.2117   -0.7015    0.0000 C   0  0  0  0  0  0  0  0  0  0  0  0
   -2.0868   -1.1957   -0.0030 H   0  0  0  0  0  0  0  0  0  0  0  0
   -0.0032   -1.4088    0.0017 C   0  0  0  0  0  0  0  0  0  0  0  0
   -0.0102   -2.4029    0.0030 H   0  0  0  0  0  0  0  0  0  0  0  0
    1.2117   -0.7100    0.0000 C   0  0  0  0  0  0  0  0  0  0  0  0
    2.0890   -1.1959   -0.0004 H   0  0  0  0  0  0  0  0  0  0  0  0
    1.2069    0.7149    0.0001 C   0  0  0  0  0  0  0  0  0  0  0  0
    2.0716    1.1975    0.0049 H   0  0  0  0  0  0  0  0  0  0  0  0
  1  5  1  0
  5  8  1  0
  1  2  1  0
  1  3  1  0
  1  4  1  0
  5  6  1  0
  5  7  1  0
  8  9  1  0
  8 10  1  0
  8 11  1  0
 12 16  1  0
 16 17  2  0
 17 19  1  0
 19 21  2  0
 21 23  1  0
 23 25  2  0
 25 16  1  0
 12 13  1  0
 12 14  1  0
 12 15  1  0
 17 18  1  0
 19 20  1  0
 21 22  1  0
 23 24  1  0
 25 26  1  0
M  CHG  1   8   1
M  END
>  <PDB_ID>  (2134) 
pdb4izh

>  <RESIDUE_NAME>  (2134) 
LYS   PHE

>  <FRAG_NAME>  (2134) 
ETAM   MBZ

>  <FRAG_ATOM_NUM>  (2134) 
fragi: 11  fragj: 15

>  <atom.prop.CHAIN_ID>  (2134) 
A A A A A A A A A A A Z Z Z Z Z Z Z Z Z Z Z Z Z Z Z

>  <atom.prop.IS_HEAVY_ATOM>  (2134) 
1 0 0 0 1 0 0 1 0 0 0 1 0 0 0 1 1 0 1 0 1 0 1 0 1 0

>  <DIFUSE_FUNC_ATOM>  (2134) 
n/a

>  <FINAL_SINGLE_POINT_ENERGY>  (2134) 
0

>  <NONCOV_INTER_ENERGY_QM>  (2134) 
0

>  <FF_Energy>  (2134) 
1.54

>  <QM_Energy>  (2134) 
-3.63

>  <source>  (2134) 
ETAM_MBZ

>  <Index>  (2134) 
22085

$$$$
ETAM-pdb3lyc-D-LYS-75:MBZ-pdb3lyc-D-PHE-99
     RDKit          3D

 26 25  0  0  0  0  0  0  0  0999 V2000
   -6.4431    1.7331    0.2025 C   0  0  0  0  0  0  0  0  0  0  0  0
   -6.1075    2.6323   -0.0567 H   0  0  0  0  0  0  0  0  0  0  0  0
   -6.3120    1.5815    1.1764 H   0  0  0  0  0  0  0  0  0  0  0  0
   -7.5103    1.6875   -0.0144 H   0  0  0  0  0  0  0  0  0  0  0  0
   -5.6581    0.6767   -0.5671 C   0  0  0  0  0  0  0  0  0  0  0  0
   -6.0185   -0.2297   -0.3414 H   0  0  0  0  0  0  0  0  0  0  0  0
   -5.7646    0.8387   -1.5501 H   0  0  0  0  0  0  0  0  0  0  0  0
   -4.1856    0.7085   -0.2297 N   0  0  0  0  0  4  0  0  0  0  0  0
   -3.7623    1.4676   -0.7160 H   0  0  0  0  0  0  0  0  0  0  0  0
   -4.0854    0.8315    0.7535 H   0  0  0  0  0  0  0  0  0  0  0  0
   -3.7733   -0.1526   -0.5120 H   0  0  0  0  0  0  0  0  0  0  0  0
   -0.0090    2.8935   -0.0270 C   0  0  0  0  0  0  0  0  0  0  0  0
   -0.8218    3.1921   -0.5283 H   0  0  0  0  0  0  0  0  0  0  0  0
    0.8114    3.2037   -0.5086 H   0  0  0  0  0  0  0  0  0  0  0  0
   -0.0245    3.3921    0.9421 H   0  0  0  0  0  0  0  0  0  0  0  0
    0.0015    1.3998   -0.0085 C   0  0  0  0  0  0  0  0  0  0  0  0
   -1.1986    0.6920   -0.0085 C   0  0  0  0  0  0  0  0  0  0  0  0
   -2.0638    1.1938   -0.0170 H   0  0  0  0  0  0  0  0  0  0  0  0
   -1.2194   -0.6927    0.0000 C   0  0  0  0  0  0  0  0  0  0  0  0
   -2.0882   -1.1863   -0.0090 H   0  0  0  0  0  0  0  0  0  0  0  0
   -0.0059   -1.3907    0.0264 C   0  0  0  0  0  0  0  0  0  0  0  0
   -0.0115   -2.3894    0.0638 H   0  0  0  0  0  0  0  0  0  0  0  0
    1.2194   -0.7005   -0.0000 C   0  0  0  0  0  0  0  0  0  0  0  0
    2.0853   -1.2007   -0.0089 H   0  0  0  0  0  0  0  0  0  0  0  0
    1.2030    0.6921   -0.0095 C   0  0  0  0  0  0  0  0  0  0  0  0
    2.0696    1.1949   -0.0200 H   0  0  0  0  0  0  0  0  0  0  0  0
  1  5  1  0
  5  8  1  0
  1  2  1  0
  1  3  1  0
  1  4  1  0
  5  6  1  0
  5  7  1  0
  8  9  1  0
  8 10  1  0
  8 11  1  0
 12 16  1  0
 16 17  2  0
 17 19  1  0
 19 21  2  0
 21 23  1  0
 23 25  2  0
 25 16  1  0
 12 13  1  0
 12 14  1  0
 12 15  1  0
 17 18  1  0
 19 20  1  0
 21 22  1  0
 23 24  1  0
 25 26  1  0
M  CHG  1   8   1
M  END
>  <PDB_ID>  (2135) 
pdb3lyc

>  <RESIDUE_NAME>  (2135) 
LYS   PHE

>  <FRAG_NAME>  (2135) 
ETAM   MBZ

>  <FRAG_ATOM_NUM>  (2135) 
fragi: 11  fragj: 15

>  <atom.prop.CHAIN_ID>  (2135) 
A A A A A A A A A A A Z Z Z Z Z Z Z Z Z Z Z Z Z Z Z

>  <atom.prop.IS_HEAVY_ATOM>  (2135) 
1 0 0 0 1 0 0 1 0 0 0 1 0 0 0 1 1 0 1 0 1 0 1 0 1 0

>  <DIFUSE_FUNC_ATOM>  (2135) 
n/a

>  <FINAL_SINGLE_POINT_ENERGY>  (2135) 
0

>  <NONCOV_INTER_ENERGY_QM>  (2135) 
0

>  <FF_Energy>  (2135) 
9.35

>  <QM_Energy>  (2135) 
-1.17

>  <source>  (2135) 
ETAM_MBZ

>  <Index>  (2135) 
22096

$$$$
ETAM-pdb4izz-A-LYS-113:MBZ-pdb4izz-A-PHE-161
     RDKit          3D

 26 25  0  0  0  0  0  0  0  0999 V2000
   -0.3183    0.7970    5.0539 C   0  0  0  0  0  0  0  0  0  0  0  0
   -1.2041    1.0449    4.6742 H   0  0  0  0  0  0  0  0  0  0  0  0
    0.1261    1.5966    5.4431 H   0  0  0  0  0  0  0  0  0  0  0  0
   -0.4665    0.0563    5.8397 H   0  0  0  0  0  0  0  0  0  0  0  0
    0.5554    0.2547    3.9330 C   0  0  0  0  0  0  0  0  0  0  0  0
    0.6008    0.9385    3.1968 H   0  0  0  0  0  0  0  0  0  0  0  0
    1.4847    0.1056    4.2887 H   0  0  0  0  0  0  0  0  0  0  0  0
    0.0348   -1.0247    3.3785 N   0  0  0  0  0  4  0  0  0  0  0  0
   -0.6314   -1.4145    4.0137 H   0  0  0  0  0  0  0  0  0  0  0  0
   -0.4048   -0.8501    2.4980 H   0  0  0  0  0  0  0  0  0  0  0  0
    0.7924   -1.6647    3.2536 H   0  0  0  0  0  0  0  0  0  0  0  0
    0.0026    2.9030    0.0062 C   0  0  0  0  0  0  0  0  0  0  0  0
    0.8070    3.2039    0.4964 H   0  0  0  0  0  0  0  0  0  0  0  0
   -0.8252    3.2062    0.4537 H   0  0  0  0  0  0  0  0  0  0  0  0
    0.0293    3.3530   -0.9863 H   0  0  0  0  0  0  0  0  0  0  0  0
    0.0003    1.3965   -0.0028 C   0  0  0  0  0  0  0  0  0  0  0  0
   -1.1923    0.6874    0.0029 C   0  0  0  0  0  0  0  0  0  0  0  0
   -2.0608    1.1791    0.0077 H   0  0  0  0  0  0  0  0  0  0  0  0
   -1.1951   -0.6954    0.0000 C   0  0  0  0  0  0  0  0  0  0  0  0
   -2.0729   -1.1917   -0.0010 H   0  0  0  0  0  0  0  0  0  0  0  0
    0.0001   -1.3858    0.0000 C   0  0  0  0  0  0  0  0  0  0  0  0
   -0.0022   -2.3874   -0.0009 H   0  0  0  0  0  0  0  0  0  0  0  0
    1.1951   -0.6925    0.0000 C   0  0  0  0  0  0  0  0  0  0  0  0
    2.0788   -1.1925    0.0020 H   0  0  0  0  0  0  0  0  0  0  0  0
    1.1919    0.6898   -0.0001 C   0  0  0  0  0  0  0  0  0  0  0  0
    2.0619    1.1879    0.0012 H   0  0  0  0  0  0  0  0  0  0  0  0
  1  5  1  0
  5  8  1  0
  1  2  1  0
  1  3  1  0
  1  4  1  0
  5  6  1  0
  5  7  1  0
  8  9  1  0
  8 10  1  0
  8 11  1  0
 12 16  1  0
 16 17  2  0
 17 19  1  0
 19 21  2  0
 21 23  1  0
 23 25  2  0
 25 16  1  0
 12 13  1  0
 12 14  1  0
 12 15  1  0
 17 18  1  0
 19 20  1  0
 21 22  1  0
 23 24  1  0
 25 26  1  0
M  CHG  1   8   1
M  END
>  <PDB_ID>  (2136) 
pdb4izz

>  <RESIDUE_NAME>  (2136) 
LYS   PHE

>  <FRAG_NAME>  (2136) 
ETAM   MBZ

>  <FRAG_ATOM_NUM>  (2136) 
fragi: 11  fragj: 15

>  <atom.prop.CHAIN_ID>  (2136) 
A A A A A A A A A A A Z Z Z Z Z Z Z Z Z Z Z Z Z Z Z

>  <atom.prop.IS_HEAVY_ATOM>  (2136) 
1 0 0 0 1 0 0 1 0 0 0 1 0 0 0 1 1 0 1 0 1 0 1 0 1 0

>  <DIFUSE_FUNC_ATOM>  (2136) 
n/a

>  <FINAL_SINGLE_POINT_ENERGY>  (2136) 
0

>  <NONCOV_INTER_ENERGY_QM>  (2136) 
0

>  <FF_Energy>  (2136) 
-8.07

>  <QM_Energy>  (2136) 
-15.05

>  <source>  (2136) 
ETAM_MBZ

>  <Index>  (2136) 
22117

$$$$
ETAM-pdb3lyc-M-LYS-75:MBZ-pdb3lyc-M-PHE-93
     RDKit          3D

 26 25  0  0  0  0  0  0  0  0999 V2000
   -1.3124    1.3937    4.0148 C   0  0  0  0  0  0  0  0  0  0  0  0
   -1.2932    1.8403    4.9020 H   0  0  0  0  0  0  0  0  0  0  0  0
   -1.4293    2.0623    3.2895 H   0  0  0  0  0  0  0  0  0  0  0  0
   -0.3686    0.8694    3.8642 H   0  0  0  0  0  0  0  0  0  0  0  0
   -2.5112    0.4326    3.9827 C   0  0  0  0  0  0  0  0  0  0  0  0
   -2.3865   -0.2558    4.7039 H   0  0  0  0  0  0  0  0  0  0  0  0
   -3.3448    0.9576    4.1796 H   0  0  0  0  0  0  0  0  0  0  0  0
   -2.6563   -0.2504    2.6682 N   0  0  0  0  0  4  0  0  0  0  0  0
   -2.6627   -1.2397    2.8078 H   0  0  0  0  0  0  0  0  0  0  0  0
   -3.5139    0.0333    2.2406 H   0  0  0  0  0  0  0  0  0  0  0  0
   -1.8892   -0.0010    2.0784 H   0  0  0  0  0  0  0  0  0  0  0  0
    0.0017    2.8981    0.0139 C   0  0  0  0  0  0  0  0  0  0  0  0
    0.9263    3.2042    0.1833 H   0  0  0  0  0  0  0  0  0  0  0  0
   -0.6116    3.1937    0.7310 H   0  0  0  0  0  0  0  0  0  0  0  0
   -0.3325    3.3600   -0.9151 H   0  0  0  0  0  0  0  0  0  0  0  0
    0.0012    1.3994   -0.0165 C   0  0  0  0  0  0  0  0  0  0  0  0
   -1.1898    0.6936    0.0108 C   0  0  0  0  0  0  0  0  0  0  0  0
   -2.0583    1.1817    0.0377 H   0  0  0  0  0  0  0  0  0  0  0  0
   -1.1936   -0.6972    0.0000 C   0  0  0  0  0  0  0  0  0  0  0  0
   -2.0760   -1.1865   -0.0035 H   0  0  0  0  0  0  0  0  0  0  0  0
   -0.0041   -1.3872   -0.0036 C   0  0  0  0  0  0  0  0  0  0  0  0
   -0.0060   -2.3898   -0.0093 H   0  0  0  0  0  0  0  0  0  0  0  0
    1.1936   -0.6977   -0.0000 C   0  0  0  0  0  0  0  0  0  0  0  0
    2.0755   -1.1976   -0.0023 H   0  0  0  0  0  0  0  0  0  0  0  0
    1.1927    0.6892    0.0094 C   0  0  0  0  0  0  0  0  0  0  0  0
    2.0626    1.1834    0.0347 H   0  0  0  0  0  0  0  0  0  0  0  0
  1  5  1  0
  5  8  1  0
  1  2  1  0
  1  3  1  0
  1  4  1  0
  5  6  1  0
  5  7  1  0
  8  9  1  0
  8 10  1  0
  8 11  1  0
 12 16  1  0
 16 17  2  0
 17 19  1  0
 19 21  2  0
 21 23  1  0
 23 25  2  0
 25 16  1  0
 12 13  1  0
 12 14  1  0
 12 15  1  0
 17 18  1  0
 19 20  1  0
 21 22  1  0
 23 24  1  0
 25 26  1  0
M  CHG  1   8   1
M  END
>  <PDB_ID>  (2137) 
pdb3lyc

>  <RESIDUE_NAME>  (2137) 
LYS   PHE

>  <FRAG_NAME>  (2137) 
ETAM   MBZ

>  <FRAG_ATOM_NUM>  (2137) 
fragi: 11  fragj: 15

>  <atom.prop.CHAIN_ID>  (2137) 
A A A A A A A A A A A Z Z Z Z Z Z Z Z Z Z Z Z Z Z Z

>  <atom.prop.IS_HEAVY_ATOM>  (2137) 
1 0 0 0 1 0 0 1 0 0 0 1 0 0 0 1 1 0 1 0 1 0 1 0 1 0

>  <DIFUSE_FUNC_ATOM>  (2137) 
n/a

>  <FINAL_SINGLE_POINT_ENERGY>  (2137) 
0

>  <NONCOV_INTER_ENERGY_QM>  (2137) 
0

>  <FF_Energy>  (2137) 
-4.03

>  <QM_Energy>  (2137) 
-11.32

>  <source>  (2137) 
ETAM_MBZ

>  <Index>  (2137) 
22121

$$$$
ETAM-pdb4j0e-B-LYS-5:MBZ-pdb4j0e-B-PHE-35
     RDKit          3D

 26 25  0  0  0  0  0  0  0  0999 V2000
    0.2660   -2.2350   -3.3298 C   0  0  0  0  0  0  0  0  0  0  0  0
   -0.4482   -2.5390   -2.6937 H   0  0  0  0  0  0  0  0  0  0  0  0
    1.1532   -2.2674   -2.8631 H   0  0  0  0  0  0  0  0  0  0  0  0
    0.2923   -2.9207   -4.1767 H   0  0  0  0  0  0  0  0  0  0  0  0
   -0.0182   -0.8097   -3.7315 C   0  0  0  0  0  0  0  0  0  0  0  0
    0.1878   -0.2096   -2.9942 H   0  0  0  0  0  0  0  0  0  0  0  0
    0.4478   -0.5986   -4.5582 H   0  0  0  0  0  0  0  0  0  0  0  0
   -1.4991   -0.7903   -3.9825 N   0  0  0  0  0  4  0  0  0  0  0  0
   -1.7890   -1.6957   -4.2851 H   0  0  0  0  0  0  0  0  0  0  0  0
   -1.9689   -0.5483   -3.1366 H   0  0  0  0  0  0  0  0  0  0  0  0
   -1.7000   -0.1150   -4.6887 H   0  0  0  0  0  0  0  0  0  0  0  0
   -0.0283    2.9409   -0.0105 C   0  0  0  0  0  0  0  0  0  0  0  0
    0.8309    3.2595    0.3414 H   0  0  0  0  0  0  0  0  0  0  0  0
   -0.7927    3.2505    0.5212 H   0  0  0  0  0  0  0  0  0  0  0  0
   -0.1416    3.3559   -1.0120 H   0  0  0  0  0  0  0  0  0  0  0  0
   -0.0198    1.4377   -0.0054 C   0  0  0  0  0  0  0  0  0  0  0  0
   -1.2077    0.6735    0.0175 C   0  0  0  0  0  0  0  0  0  0  0  0
   -2.0875    1.1629    0.0462 H   0  0  0  0  0  0  0  0  0  0  0  0
   -1.2077   -0.7104    0.0000 C   0  0  0  0  0  0  0  0  0  0  0  0
   -2.0774   -1.2187   -0.0431 H   0  0  0  0  0  0  0  0  0  0  0  0
    0.0169   -1.4468    0.0446 C   0  0  0  0  0  0  0  0  0  0  0  0
    0.0267   -2.4027    0.1001 H   0  0  0  0  0  0  0  0  0  0  0  0
    1.2077   -0.6704    0.0000 C   0  0  0  0  0  0  0  0  0  0  0  0
    2.1091   -1.1710    0.0122 H   0  0  0  0  0  0  0  0  0  0  0  0
    1.2106    0.7163   -0.0567 C   0  0  0  0  0  0  0  0  0  0  0  0
    2.0584    1.2213   -0.1338 H   0  0  0  0  0  0  0  0  0  0  0  0
  1  5  1  0
  5  8  1  0
  1  2  1  0
  1  3  1  0
  1  4  1  0
  5  6  1  0
  5  7  1  0
  8  9  1  0
  8 10  1  0
  8 11  1  0
 12 16  1  0
 16 17  2  0
 17 19  1  0
 19 21  2  0
 21 23  1  0
 23 25  2  0
 25 16  1  0
 12 13  1  0
 12 14  1  0
 12 15  1  0
 17 18  1  0
 19 20  1  0
 21 22  1  0
 23 24  1  0
 25 26  1  0
M  CHG  1   8   1
M  END
>  <PDB_ID>  (2138) 
pdb4j0e

>  <RESIDUE_NAME>  (2138) 
LYS   PHE

>  <FRAG_NAME>  (2138) 
ETAM   MBZ

>  <FRAG_ATOM_NUM>  (2138) 
fragi: 11  fragj: 15

>  <atom.prop.CHAIN_ID>  (2138) 
A A A A A A A A A A A Z Z Z Z Z Z Z Z Z Z Z Z Z Z Z

>  <atom.prop.IS_HEAVY_ATOM>  (2138) 
1 0 0 0 1 0 0 1 0 0 0 1 0 0 0 1 1 0 1 0 1 0 1 0 1 0

>  <DIFUSE_FUNC_ATOM>  (2138) 
n/a

>  <FINAL_SINGLE_POINT_ENERGY>  (2138) 
0

>  <NONCOV_INTER_ENERGY_QM>  (2138) 
0

>  <FF_Energy>  (2138) 
-5.55

>  <QM_Energy>  (2138) 
-10.96

>  <source>  (2138) 
ETAM_MBZ

>  <Index>  (2138) 
22131

$$$$
ETAM-pdb3lyu-B-LYS-209:MBZ-pdb3lyu-B-PHE-205
     RDKit          3D

 26 25  0  0  0  0  0  0  0  0999 V2000
   -3.2936   -1.7061   -3.9052 C   0  0  0  0  0  0  0  0  0  0  0  0
   -4.1522   -1.2068   -4.0122 H   0  0  0  0  0  0  0  0  0  0  0  0
   -3.2531   -2.4513   -4.5703 H   0  0  0  0  0  0  0  0  0  0  0  0
   -2.4693   -1.0210   -4.1032 H   0  0  0  0  0  0  0  0  0  0  0  0
   -3.2489   -2.3031   -2.5028 C   0  0  0  0  0  0  0  0  0  0  0  0
   -3.7401   -3.1781   -2.5096 H   0  0  0  0  0  0  0  0  0  0  0  0
   -2.2911   -2.4698   -2.2528 H   0  0  0  0  0  0  0  0  0  0  0  0
   -3.8681   -1.4001   -1.4987 N   0  0  0  0  0  4  0  0  0  0  0  0
   -3.2881   -1.3590   -0.6848 H   0  0  0  0  0  0  0  0  0  0  0  0
   -3.9618   -0.4838   -1.8880 H   0  0  0  0  0  0  0  0  0  0  0  0
   -4.7707   -1.7501   -1.2483 H   0  0  0  0  0  0  0  0  0  0  0  0
   -0.0002    2.9084   -0.0252 C   0  0  0  0  0  0  0  0  0  0  0  0
    0.8029    3.2238    0.4581 H   0  0  0  0  0  0  0  0  0  0  0  0
   -0.8294    3.2203    0.4138 H   0  0  0  0  0  0  0  0  0  0  0  0
    0.0259    3.3328   -1.0288 H   0  0  0  0  0  0  0  0  0  0  0  0
    0.0025    1.4052    0.0003 C   0  0  0  0  0  0  0  0  0  0  0  0
   -1.1967    0.6877    0.0007 C   0  0  0  0  0  0  0  0  0  0  0  0
   -2.0637    1.1772    0.0000 H   0  0  0  0  0  0  0  0  0  0  0  0
   -1.2009   -0.7069   -0.0000 C   0  0  0  0  0  0  0  0  0  0  0  0
   -2.0784   -1.1977    0.0020 H   0  0  0  0  0  0  0  0  0  0  0  0
   -0.0024   -1.3979   -0.0016 C   0  0  0  0  0  0  0  0  0  0  0  0
    0.0034   -2.3953   -0.0043 H   0  0  0  0  0  0  0  0  0  0  0  0
    1.2009   -0.6925    0.0000 C   0  0  0  0  0  0  0  0  0  0  0  0
    2.0826   -1.1879    0.0022 H   0  0  0  0  0  0  0  0  0  0  0  0
    1.1966    0.7043    0.0006 C   0  0  0  0  0  0  0  0  0  0  0  0
    2.0652    1.1965    0.0008 H   0  0  0  0  0  0  0  0  0  0  0  0
  1  5  1  0
  5  8  1  0
  1  2  1  0
  1  3  1  0
  1  4  1  0
  5  6  1  0
  5  7  1  0
  8  9  1  0
  8 10  1  0
  8 11  1  0
 12 16  1  0
 16 17  2  0
 17 19  1  0
 19 21  2  0
 21 23  1  0
 23 25  2  0
 25 16  1  0
 12 13  1  0
 12 14  1  0
 12 15  1  0
 17 18  1  0
 19 20  1  0
 21 22  1  0
 23 24  1  0
 25 26  1  0
M  CHG  1   8   1
M  END
>  <PDB_ID>  (2139) 
pdb3lyu

>  <RESIDUE_NAME>  (2139) 
LYS   PHE

>  <FRAG_NAME>  (2139) 
ETAM   MBZ

>  <FRAG_ATOM_NUM>  (2139) 
fragi: 11  fragj: 15

>  <atom.prop.CHAIN_ID>  (2139) 
A A A A A A A A A A A Z Z Z Z Z Z Z Z Z Z Z Z Z Z Z

>  <atom.prop.IS_HEAVY_ATOM>  (2139) 
1 0 0 0 1 0 0 1 0 0 0 1 0 0 0 1 1 0 1 0 1 0 1 0 1 0

>  <DIFUSE_FUNC_ATOM>  (2139) 
n/a

>  <FINAL_SINGLE_POINT_ENERGY>  (2139) 
0

>  <NONCOV_INTER_ENERGY_QM>  (2139) 
0

>  <FF_Energy>  (2139) 
4.06

>  <QM_Energy>  (2139) 
-2.14

>  <source>  (2139) 
ETAM_MBZ

>  <Index>  (2139) 
22133

$$$$
ETAM-pdb3lyu-A-LYS-209:MBZ-pdb3lyu-A-PHE-205
     RDKit          3D

 26 25  0  0  0  0  0  0  0  0999 V2000
   -3.3121   -1.6879   -3.9061 C   0  0  0  0  0  0  0  0  0  0  0  0
   -4.1729   -1.1945   -4.0221 H   0  0  0  0  0  0  0  0  0  0  0  0
   -3.2661   -2.4411   -4.5601 H   0  0  0  0  0  0  0  0  0  0  0  0
   -2.4885   -1.0022   -4.1052 H   0  0  0  0  0  0  0  0  0  0  0  0
   -3.2754   -2.2711   -2.4943 C   0  0  0  0  0  0  0  0  0  0  0  0
   -3.7727   -3.1421   -2.4906 H   0  0  0  0  0  0  0  0  0  0  0  0
   -2.3201   -2.4418   -2.2389 H   0  0  0  0  0  0  0  0  0  0  0  0
   -3.8929   -1.3522   -1.4848 N   0  0  0  0  0  4  0  0  0  0  0  0
   -4.3711   -0.6169   -1.9615 H   0  0  0  0  0  0  0  0  0  0  0  0
   -4.5386   -1.8682   -0.9252 H   0  0  0  0  0  0  0  0  0  0  0  0
   -3.1735   -0.9703   -0.9073 H   0  0  0  0  0  0  0  0  0  0  0  0
   -0.0095    2.9100   -0.0283 C   0  0  0  0  0  0  0  0  0  0  0  0
    0.7893    3.2297    0.4589 H   0  0  0  0  0  0  0  0  0  0  0  0
   -0.8426    3.2188    0.4063 H   0  0  0  0  0  0  0  0  0  0  0  0
    0.0198    3.3349   -1.0317 H   0  0  0  0  0  0  0  0  0  0  0  0
   -0.0001    1.4048    0.0000 C   0  0  0  0  0  0  0  0  0  0  0  0
   -1.1999    0.6898    0.0007 C   0  0  0  0  0  0  0  0  0  0  0  0
   -2.0667    1.1805    0.0000 H   0  0  0  0  0  0  0  0  0  0  0  0
   -1.2064   -0.7055    0.0000 C   0  0  0  0  0  0  0  0  0  0  0  0
   -2.0802   -1.1977    0.0013 H   0  0  0  0  0  0  0  0  0  0  0  0
   -0.0012   -1.3974   -0.0008 C   0  0  0  0  0  0  0  0  0  0  0  0
    0.0029   -2.3941   -0.0024 H   0  0  0  0  0  0  0  0  0  0  0  0
    1.2064   -0.6921   -0.0000 C   0  0  0  0  0  0  0  0  0  0  0  0
    2.0862   -1.1911    0.0016 H   0  0  0  0  0  0  0  0  0  0  0  0
    1.2012    0.7004    0.0001 C   0  0  0  0  0  0  0  0  0  0  0  0
    2.0665    1.1977   -0.0005 H   0  0  0  0  0  0  0  0  0  0  0  0
  1  5  1  0
  5  8  1  0
  1  2  1  0
  1  3  1  0
  1  4  1  0
  5  6  1  0
  5  7  1  0
  8  9  1  0
  8 10  1  0
  8 11  1  0
 12 16  1  0
 16 17  2  0
 17 19  1  0
 19 21  2  0
 21 23  1  0
 23 25  2  0
 25 16  1  0
 12 13  1  0
 12 14  1  0
 12 15  1  0
 17 18  1  0
 19 20  1  0
 21 22  1  0
 23 24  1  0
 25 26  1  0
M  CHG  1   8   1
M  END
>  <PDB_ID>  (2140) 
pdb3lyu

>  <RESIDUE_NAME>  (2140) 
LYS   PHE

>  <FRAG_NAME>  (2140) 
ETAM   MBZ

>  <FRAG_ATOM_NUM>  (2140) 
fragi: 11  fragj: 15

>  <atom.prop.CHAIN_ID>  (2140) 
A A A A A A A A A A A Z Z Z Z Z Z Z Z Z Z Z Z Z Z Z

>  <atom.prop.IS_HEAVY_ATOM>  (2140) 
1 0 0 0 1 0 0 1 0 0 0 1 0 0 0 1 1 0 1 0 1 0 1 0 1 0

>  <DIFUSE_FUNC_ATOM>  (2140) 
n/a

>  <FINAL_SINGLE_POINT_ENERGY>  (2140) 
0

>  <NONCOV_INTER_ENERGY_QM>  (2140) 
0

>  <FF_Energy>  (2140) 
3.57

>  <QM_Energy>  (2140) 
-3.3

>  <source>  (2140) 
ETAM_MBZ

>  <Index>  (2140) 
22147

$$$$
ETAM-pdb3m1i-C-LYS-112:MBZ-pdb3m1i-C-PHE-108
     RDKit          3D

 26 25  0  0  0  0  0  0  0  0999 V2000
    0.2069    0.3000    5.4854 C   0  0  0  0  0  0  0  0  0  0  0  0
   -0.6597    0.6217    5.1976 H   0  0  0  0  0  0  0  0  0  0  0  0
    0.8920    0.9808    5.5592 H   0  0  0  0  0  0  0  0  0  0  0  0
    0.1000   -0.2060    6.4449 H   0  0  0  0  0  0  0  0  0  0  0  0
    0.6832   -0.7774    4.5092 C   0  0  0  0  0  0  0  0  0  0  0  0
    0.9903   -1.5632    5.0304 H   0  0  0  0  0  0  0  0  0  0  0  0
   -0.0724   -1.0234    3.9157 H   0  0  0  0  0  0  0  0  0  0  0  0
    1.7952   -0.2357    3.7118 N   0  0  0  0  0  4  0  0  0  0  0  0
    1.8105   -0.6715    2.8091 H   0  0  0  0  0  0  0  0  0  0  0  0
    1.6814    0.7533    3.5971 H   0  0  0  0  0  0  0  0  0  0  0  0
    2.6655   -0.4144    4.1766 H   0  0  0  0  0  0  0  0  0  0  0  0
   -0.0051    2.9395    0.0133 C   0  0  0  0  0  0  0  0  0  0  0  0
   -0.6292    3.2414   -0.6852 H   0  0  0  0  0  0  0  0  0  0  0  0
    0.9152    3.2432   -0.1538 H   0  0  0  0  0  0  0  0  0  0  0  0
   -0.3330    3.3549    0.9663 H   0  0  0  0  0  0  0  0  0  0  0  0
    0.0021    1.4178   -0.0025 C   0  0  0  0  0  0  0  0  0  0  0  0
   -1.1821    0.7116    0.0169 C   0  0  0  0  0  0  0  0  0  0  0  0
   -2.0588    1.1788    0.0420 H   0  0  0  0  0  0  0  0  0  0  0  0
   -1.1911   -0.7198    0.0000 C   0  0  0  0  0  0  0  0  0  0  0  0
   -2.0857   -1.1802   -0.0009 H   0  0  0  0  0  0  0  0  0  0  0  0
   -0.0208   -1.4062   -0.0126 C   0  0  0  0  0  0  0  0  0  0  0  0
   -0.0057   -2.4056   -0.0311 H   0  0  0  0  0  0  0  0  0  0  0  0
    1.1911   -0.7019    0.0000 C   0  0  0  0  0  0  0  0  0  0  0  0
    2.0697   -1.2056    0.0126 H   0  0  0  0  0  0  0  0  0  0  0  0
    1.2009    0.6985   -0.0018 C   0  0  0  0  0  0  0  0  0  0  0  0
    2.0697    1.1845   -0.0033 H   0  0  0  0  0  0  0  0  0  0  0  0
  1  5  1  0
  5  8  1  0
  1  2  1  0
  1  3  1  0
  1  4  1  0
  5  6  1  0
  5  7  1  0
  8  9  1  0
  8 10  1  0
  8 11  1  0
 12 16  1  0
 16 17  2  0
 17 19  1  0
 19 21  2  0
 21 23  1  0
 23 25  2  0
 25 16  1  0
 12 13  1  0
 12 14  1  0
 12 15  1  0
 17 18  1  0
 19 20  1  0
 21 22  1  0
 23 24  1  0
 25 26  1  0
M  CHG  1   8   1
M  END
>  <PDB_ID>  (2141) 
pdb3m1i

>  <RESIDUE_NAME>  (2141) 
LYS   PHE

>  <FRAG_NAME>  (2141) 
ETAM   MBZ

>  <FRAG_ATOM_NUM>  (2141) 
fragi: 11  fragj: 15

>  <atom.prop.CHAIN_ID>  (2141) 
A A A A A A A A A A A Z Z Z Z Z Z Z Z Z Z Z Z Z Z Z

>  <atom.prop.IS_HEAVY_ATOM>  (2141) 
1 0 0 0 1 0 0 1 0 0 0 1 0 0 0 1 1 0 1 0 1 0 1 0 1 0

>  <DIFUSE_FUNC_ATOM>  (2141) 
n/a

>  <FINAL_SINGLE_POINT_ENERGY>  (2141) 
0

>  <NONCOV_INTER_ENERGY_QM>  (2141) 
0

>  <FF_Energy>  (2141) 
-4.94

>  <QM_Energy>  (2141) 
-10.16

>  <source>  (2141) 
ETAM_MBZ

>  <Index>  (2141) 
22163

$$$$
ETAM-pdb3lyu-D-LYS-209:MBZ-pdb3lyu-D-PHE-205
     RDKit          3D

 26 25  0  0  0  0  0  0  0  0999 V2000
   -3.2768   -1.7286   -3.9023 C   0  0  0  0  0  0  0  0  0  0  0  0
   -4.1403   -1.2395   -4.0271 H   0  0  0  0  0  0  0  0  0  0  0  0
   -3.2230   -2.4831   -4.5560 H   0  0  0  0  0  0  0  0  0  0  0  0
   -2.4536   -1.0398   -4.0916 H   0  0  0  0  0  0  0  0  0  0  0  0
   -3.2443   -2.3024   -2.4982 C   0  0  0  0  0  0  0  0  0  0  0  0
   -3.7575   -3.1639   -2.4841 H   0  0  0  0  0  0  0  0  0  0  0  0
   -2.2926   -2.4866   -2.2402 H   0  0  0  0  0  0  0  0  0  0  0  0
   -3.8435   -1.3636   -1.5020 N   0  0  0  0  0  4  0  0  0  0  0  0
   -4.8015   -1.6051   -1.3585 H   0  0  0  0  0  0  0  0  0  0  0  0
   -3.3444   -1.4368   -0.6399 H   0  0  0  0  0  0  0  0  0  0  0  0
   -3.7799   -0.4300   -1.8509 H   0  0  0  0  0  0  0  0  0  0  0  0
   -0.0103    2.9082   -0.0391 C   0  0  0  0  0  0  0  0  0  0  0  0
    0.7846    3.2308    0.4510 H   0  0  0  0  0  0  0  0  0  0  0  0
   -0.8469    3.2204    0.3855 H   0  0  0  0  0  0  0  0  0  0  0  0
    0.0274    3.3270   -1.0447 H   0  0  0  0  0  0  0  0  0  0  0  0
   -0.0018    1.4007   -0.0003 C   0  0  0  0  0  0  0  0  0  0  0  0
   -1.1956    0.6874    0.0003 C   0  0  0  0  0  0  0  0  0  0  0  0
   -2.0639    1.1777   -0.0003 H   0  0  0  0  0  0  0  0  0  0  0  0
   -1.1987   -0.6997   -0.0000 C   0  0  0  0  0  0  0  0  0  0  0  0
   -2.0737   -1.1958    0.0030 H   0  0  0  0  0  0  0  0  0  0  0  0
    0.0028   -1.3895   -0.0027 C   0  0  0  0  0  0  0  0  0  0  0  0
    0.0009   -2.3906   -0.0072 H   0  0  0  0  0  0  0  0  0  0  0  0
    1.1987   -0.6935    0.0000 C   0  0  0  0  0  0  0  0  0  0  0  0
    2.0825   -1.1914    0.0014 H   0  0  0  0  0  0  0  0  0  0  0  0
    1.1947    0.6945    0.0027 C   0  0  0  0  0  0  0  0  0  0  0  0
    2.0617    1.1922    0.0055 H   0  0  0  0  0  0  0  0  0  0  0  0
  1  5  1  0
  5  8  1  0
  1  2  1  0
  1  3  1  0
  1  4  1  0
  5  6  1  0
  5  7  1  0
  8  9  1  0
  8 10  1  0
  8 11  1  0
 12 16  1  0
 16 17  2  0
 17 19  1  0
 19 21  2  0
 21 23  1  0
 23 25  2  0
 25 16  1  0
 12 13  1  0
 12 14  1  0
 12 15  1  0
 17 18  1  0
 19 20  1  0
 21 22  1  0
 23 24  1  0
 25 26  1  0
M  CHG  1   8   1
M  END
>  <PDB_ID>  (2142) 
pdb3lyu

>  <RESIDUE_NAME>  (2142) 
LYS   PHE

>  <FRAG_NAME>  (2142) 
ETAM   MBZ

>  <FRAG_ATOM_NUM>  (2142) 
fragi: 11  fragj: 15

>  <atom.prop.CHAIN_ID>  (2142) 
A A A A A A A A A A A Z Z Z Z Z Z Z Z Z Z Z Z Z Z Z

>  <atom.prop.IS_HEAVY_ATOM>  (2142) 
1 0 0 0 1 0 0 1 0 0 0 1 0 0 0 1 1 0 1 0 1 0 1 0 1 0

>  <DIFUSE_FUNC_ATOM>  (2142) 
n/a

>  <FINAL_SINGLE_POINT_ENERGY>  (2142) 
0

>  <NONCOV_INTER_ENERGY_QM>  (2142) 
0

>  <FF_Energy>  (2142) 
4.23

>  <QM_Energy>  (2142) 
-2.21

>  <source>  (2142) 
ETAM_MBZ

>  <Index>  (2142) 
22164

$$$$
ETAM-pdb3m1i-C-LYS-1055:MBZ-pdb3m1i-C-PHE-1051
     RDKit          3D

 26 25  0  0  0  0  0  0  0  0999 V2000
    1.5392   -2.9374    3.3583 C   0  0  0  0  0  0  0  0  0  0  0  0
    2.2135   -2.3196    2.9586 H   0  0  0  0  0  0  0  0  0  0  0  0
    1.9859   -3.7831    3.6463 H   0  0  0  0  0  0  0  0  0  0  0  0
    1.1028   -2.4570    4.2341 H   0  0  0  0  0  0  0  0  0  0  0  0
    0.4998   -3.2697    2.3077 C   0  0  0  0  0  0  0  0  0  0  0  0
   -0.1764   -3.8903    2.7023 H   0  0  0  0  0  0  0  0  0  0  0  0
    0.0514   -2.4275    2.0139 H   0  0  0  0  0  0  0  0  0  0  0  0
    1.1368   -3.9213    1.1354 N   0  0  0  0  0  4  0  0  0  0  0  0
    0.5416   -3.8274    0.3377 H   0  0  0  0  0  0  0  0  0  0  0  0
    2.0165   -3.4834    0.9487 H   0  0  0  0  0  0  0  0  0  0  0  0
    1.2825   -4.8910    1.3307 H   0  0  0  0  0  0  0  0  0  0  0  0
    0.0401    2.9165    0.0118 C   0  0  0  0  0  0  0  0  0  0  0  0
   -0.6667    3.2449   -0.5936 H   0  0  0  0  0  0  0  0  0  0  0  0
    0.9365    3.2060   -0.2833 H   0  0  0  0  0  0  0  0  0  0  0  0
   -0.1396    3.3475    0.9967 H   0  0  0  0  0  0  0  0  0  0  0  0
    0.0055    1.4163    0.0021 C   0  0  0  0  0  0  0  0  0  0  0  0
   -1.2028    0.7271    0.0013 C   0  0  0  0  0  0  0  0  0  0  0  0
   -2.0639    1.2028    0.0004 H   0  0  0  0  0  0  0  0  0  0  0  0
   -1.2145   -0.7066   -0.0000 C   0  0  0  0  0  0  0  0  0  0  0  0
   -2.0923   -1.1797    0.0035 H   0  0  0  0  0  0  0  0  0  0  0  0
   -0.0041   -1.4215   -0.0048 C   0  0  0  0  0  0  0  0  0  0  0  0
   -0.0094   -2.4103   -0.0123 H   0  0  0  0  0  0  0  0  0  0  0  0
    1.2145   -0.7136    0.0000 C   0  0  0  0  0  0  0  0  0  0  0  0
    2.0897   -1.2037    0.0034 H   0  0  0  0  0  0  0  0  0  0  0  0
    1.2014    0.6984    0.0014 C   0  0  0  0  0  0  0  0  0  0  0  0
    2.0742    1.1878    0.0012 H   0  0  0  0  0  0  0  0  0  0  0  0
  1  5  1  0
  5  8  1  0
  1  2  1  0
  1  3  1  0
  1  4  1  0
  5  6  1  0
  5  7  1  0
  8  9  1  0
  8 10  1  0
  8 11  1  0
 12 16  1  0
 16 17  2  0
 17 19  1  0
 19 21  2  0
 21 23  1  0
 23 25  2  0
 25 16  1  0
 12 13  1  0
 12 14  1  0
 12 15  1  0
 17 18  1  0
 19 20  1  0
 21 22  1  0
 23 24  1  0
 25 26  1  0
M  CHG  1   8   1
M  END
>  <PDB_ID>  (2143) 
pdb3m1i

>  <RESIDUE_NAME>  (2143) 
LYS   PHE

>  <FRAG_NAME>  (2143) 
ETAM   MBZ

>  <FRAG_ATOM_NUM>  (2143) 
fragi: 11  fragj: 15

>  <atom.prop.CHAIN_ID>  (2143) 
A A A A A A A A A A A Z Z Z Z Z Z Z Z Z Z Z Z Z Z Z

>  <atom.prop.IS_HEAVY_ATOM>  (2143) 
1 0 0 0 1 0 0 1 0 0 0 1 0 0 0 1 1 0 1 0 1 0 1 0 1 0

>  <DIFUSE_FUNC_ATOM>  (2143) 
n/a

>  <FINAL_SINGLE_POINT_ENERGY>  (2143) 
0

>  <NONCOV_INTER_ENERGY_QM>  (2143) 
0

>  <FF_Energy>  (2143) 
14.4

>  <QM_Energy>  (2143) 
-0.33

>  <source>  (2143) 
ETAM_MBZ

>  <Index>  (2143) 
22165

$$$$
ETAM-pdb3lyu-C-LYS-209:MBZ-pdb3lyu-C-PHE-205
     RDKit          3D

 26 25  0  0  0  0  0  0  0  0999 V2000
   -3.2790   -1.6892   -3.9300 C   0  0  0  0  0  0  0  0  0  0  0  0
   -4.1385   -1.1906   -4.0425 H   0  0  0  0  0  0  0  0  0  0  0  0
   -3.2388   -2.4396   -4.5884 H   0  0  0  0  0  0  0  0  0  0  0  0
   -2.4528   -1.0068   -4.1295 H   0  0  0  0  0  0  0  0  0  0  0  0
   -3.2423   -2.2789   -2.5213 C   0  0  0  0  0  0  0  0  0  0  0  0
   -3.7440   -3.1503   -2.5255 H   0  0  0  0  0  0  0  0  0  0  0  0
   -2.2854   -2.4622   -2.2756 H   0  0  0  0  0  0  0  0  0  0  0  0
   -3.8426   -1.3695   -1.5167 N   0  0  0  0  0  4  0  0  0  0  0  0
   -4.2779   -0.5983   -1.9818 H   0  0  0  0  0  0  0  0  0  0  0  0
   -4.5281   -1.8659   -0.9830 H   0  0  0  0  0  0  0  0  0  0  0  0
   -3.1279   -1.0288   -0.9042 H   0  0  0  0  0  0  0  0  0  0  0  0
    0.0005    2.9024   -0.0262 C   0  0  0  0  0  0  0  0  0  0  0  0
    0.7974    3.2192    0.4661 H   0  0  0  0  0  0  0  0  0  0  0  0
   -0.8341    3.2174    0.4025 H   0  0  0  0  0  0  0  0  0  0  0  0
    0.0393    3.3286   -1.0287 H   0  0  0  0  0  0  0  0  0  0  0  0
    0.0011    1.4016    0.0000 C   0  0  0  0  0  0  0  0  0  0  0  0
   -1.1952    0.6939   -0.0002 C   0  0  0  0  0  0  0  0  0  0  0  0
   -2.0624    1.1855   -0.0013 H   0  0  0  0  0  0  0  0  0  0  0  0
   -1.2030   -0.6973    0.0000 C   0  0  0  0  0  0  0  0  0  0  0  0
   -2.0793   -1.1897    0.0014 H   0  0  0  0  0  0  0  0  0  0  0  0
    0.0002   -1.3967   -0.0006 C   0  0  0  0  0  0  0  0  0  0  0  0
   -0.0026   -2.3925   -0.0023 H   0  0  0  0  0  0  0  0  0  0  0  0
    1.2030   -0.6959   -0.0000 C   0  0  0  0  0  0  0  0  0  0  0  0
    2.0841   -1.1924    0.0015 H   0  0  0  0  0  0  0  0  0  0  0  0
    1.1939    0.6944    0.0008 C   0  0  0  0  0  0  0  0  0  0  0  0
    2.0637    1.1911    0.0011 H   0  0  0  0  0  0  0  0  0  0  0  0
  1  5  1  0
  5  8  1  0
  1  2  1  0
  1  3  1  0
  1  4  1  0
  5  6  1  0
  5  7  1  0
  8  9  1  0
  8 10  1  0
  8 11  1  0
 12 16  1  0
 16 17  2  0
 17 19  1  0
 19 21  2  0
 21 23  1  0
 23 25  2  0
 25 16  1  0
 12 13  1  0
 12 14  1  0
 12 15  1  0
 17 18  1  0
 19 20  1  0
 21 22  1  0
 23 24  1  0
 25 26  1  0
M  CHG  1   8   1
M  END
>  <PDB_ID>  (2144) 
pdb3lyu

>  <RESIDUE_NAME>  (2144) 
LYS   PHE

>  <FRAG_NAME>  (2144) 
ETAM   MBZ

>  <FRAG_ATOM_NUM>  (2144) 
fragi: 11  fragj: 15

>  <atom.prop.CHAIN_ID>  (2144) 
A A A A A A A A A A A Z Z Z Z Z Z Z Z Z Z Z Z Z Z Z

>  <atom.prop.IS_HEAVY_ATOM>  (2144) 
1 0 0 0 1 0 0 1 0 0 0 1 0 0 0 1 1 0 1 0 1 0 1 0 1 0

>  <DIFUSE_FUNC_ATOM>  (2144) 
n/a

>  <FINAL_SINGLE_POINT_ENERGY>  (2144) 
0

>  <NONCOV_INTER_ENERGY_QM>  (2144) 
0

>  <FF_Energy>  (2144) 
3.98

>  <QM_Energy>  (2144) 
-2.93

>  <source>  (2144) 
ETAM_MBZ

>  <Index>  (2144) 
22188

$$$$
ETAM-pdb3m45-A-LYS-121:MBZ-pdb3m45-A-PHE-35
     RDKit          3D

 26 25  0  0  0  0  0  0  0  0999 V2000
    1.3014    0.4539    3.8171 C   0  0  0  0  0  0  0  0  0  0  0  0
    0.8746    1.1672    4.3374 H   0  0  0  0  0  0  0  0  0  0  0  0
    1.4113    0.6871    2.8708 H   0  0  0  0  0  0  0  0  0  0  0  0
    2.2965    0.2974    4.2336 H   0  0  0  0  0  0  0  0  0  0  0  0
    0.5007   -0.8254    3.9423 C   0  0  0  0  0  0  0  0  0  0  0  0
    0.9270   -1.5340    3.3603 H   0  0  0  0  0  0  0  0  0  0  0  0
    0.5468   -1.1452    4.9006 H   0  0  0  0  0  0  0  0  0  0  0  0
   -0.9141   -0.6619    3.5518 N   0  0  0  0  0  4  0  0  0  0  0  0
   -1.0126   -0.8179    2.5679 H   0  0  0  0  0  0  0  0  0  0  0  0
   -1.4798   -1.3218    4.0493 H   0  0  0  0  0  0  0  0  0  0  0  0
   -1.2197    0.2665    3.7707 H   0  0  0  0  0  0  0  0  0  0  0  0
   -0.0043    2.9730   -0.0376 C   0  0  0  0  0  0  0  0  0  0  0  0
   -0.7833    3.2520   -0.5809 H   0  0  0  0  0  0  0  0  0  0  0  0
    0.8446    3.2616   -0.4580 H   0  0  0  0  0  0  0  0  0  0  0  0
   -0.0803    3.4652    0.9320 H   0  0  0  0  0  0  0  0  0  0  0  0
    0.0010    1.4432    0.0066 C   0  0  0  0  0  0  0  0  0  0  0  0
   -1.2269    0.7078   -0.0178 C   0  0  0  0  0  0  0  0  0  0  0  0
   -2.0858    1.1883   -0.0490 H   0  0  0  0  0  0  0  0  0  0  0  0
   -1.2378   -0.7320    0.0000 C   0  0  0  0  0  0  0  0  0  0  0  0
   -2.0995   -1.2126    0.0103 H   0  0  0  0  0  0  0  0  0  0  0  0
    0.0008   -1.4347    0.0043 C   0  0  0  0  0  0  0  0  0  0  0  0
    0.0111   -2.4198    0.0098 H   0  0  0  0  0  0  0  0  0  0  0  0
    1.2378   -0.7047   -0.0000 C   0  0  0  0  0  0  0  0  0  0  0  0
    2.1073   -1.1957   -0.0065 H   0  0  0  0  0  0  0  0  0  0  0  0
    1.2252    0.7203    0.0069 C   0  0  0  0  0  0  0  0  0  0  0  0
    2.0842    1.2141    0.0115 H   0  0  0  0  0  0  0  0  0  0  0  0
  1  5  1  0
  5  8  1  0
  1  2  1  0
  1  3  1  0
  1  4  1  0
  5  6  1  0
  5  7  1  0
  8  9  1  0
  8 10  1  0
  8 11  1  0
 12 16  1  0
 16 17  2  0
 17 19  1  0
 19 21  2  0
 21 23  1  0
 23 25  2  0
 25 16  1  0
 12 13  1  0
 12 14  1  0
 12 15  1  0
 17 18  1  0
 19 20  1  0
 21 22  1  0
 23 24  1  0
 25 26  1  0
M  CHG  1   8   1
M  END
>  <PDB_ID>  (2145) 
pdb3m45

>  <RESIDUE_NAME>  (2145) 
LYS   PHE

>  <FRAG_NAME>  (2145) 
ETAM   MBZ

>  <FRAG_ATOM_NUM>  (2145) 
fragi: 11  fragj: 15

>  <atom.prop.CHAIN_ID>  (2145) 
A A A A A A A A A A A Z Z Z Z Z Z Z Z Z Z Z Z Z Z Z

>  <atom.prop.IS_HEAVY_ATOM>  (2145) 
1 0 0 0 1 0 0 1 0 0 0 1 0 0 0 1 1 0 1 0 1 0 1 0 1 0

>  <DIFUSE_FUNC_ATOM>  (2145) 
n/a

>  <FINAL_SINGLE_POINT_ENERGY>  (2145) 
0

>  <NONCOV_INTER_ENERGY_QM>  (2145) 
0

>  <FF_Energy>  (2145) 
-7.64

>  <QM_Energy>  (2145) 
-15.42

>  <source>  (2145) 
ETAM_MBZ

>  <Index>  (2145) 
22197

$$$$
ETAM-pdb3m45-B-LYS-121:MBZ-pdb3m45-B-PHE-35
     RDKit          3D

 26 25  0  0  0  0  0  0  0  0999 V2000
   -2.1253    0.7334   -3.7052 C   0  0  0  0  0  0  0  0  0  0  0  0
   -1.7571    1.3242   -4.4140 H   0  0  0  0  0  0  0  0  0  0  0  0
   -1.9834    1.1352   -2.8073 H   0  0  0  0  0  0  0  0  0  0  0  0
   -3.1998    0.6471   -3.8671 H   0  0  0  0  0  0  0  0  0  0  0  0
   -1.3768   -0.6302   -3.7607 C   0  0  0  0  0  0  0  0  0  0  0  0
   -1.6881   -1.1980   -3.0336 H   0  0  0  0  0  0  0  0  0  0  0  0
   -1.4893   -1.0238   -4.6445 H   0  0  0  0  0  0  0  0  0  0  0  0
    0.1275   -0.3329   -3.5436 N   0  0  0  0  0  4  0  0  0  0  0  0
    0.2130    0.1926   -2.7092 H   0  0  0  0  0  0  0  0  0  0  0  0
    0.5985   -1.2008   -3.4692 H   0  0  0  0  0  0  0  0  0  0  0  0
    0.4487    0.1818   -4.3258 H   0  0  0  0  0  0  0  0  0  0  0  0
    0.0113    2.9451    0.0180 C   0  0  0  0  0  0  0  0  0  0  0  0
    0.8229    3.2523    0.5000 H   0  0  0  0  0  0  0  0  0  0  0  0
   -0.8099    3.2514    0.4849 H   0  0  0  0  0  0  0  0  0  0  0  0
    0.0195    3.4304   -0.9580 H   0  0  0  0  0  0  0  0  0  0  0  0
    0.0124    1.4457   -0.0084 C   0  0  0  0  0  0  0  0  0  0  0  0
   -1.2079    0.7143    0.0057 C   0  0  0  0  0  0  0  0  0  0  0  0
   -2.0718    1.1881    0.0184 H   0  0  0  0  0  0  0  0  0  0  0  0
   -1.2219   -0.7386    0.0000 C   0  0  0  0  0  0  0  0  0  0  0  0
   -2.1045   -1.1987    0.0035 H   0  0  0  0  0  0  0  0  0  0  0  0
   -0.0197   -1.4463   -0.0083 C   0  0  0  0  0  0  0  0  0  0  0  0
   -0.0003   -2.4283   -0.0206 H   0  0  0  0  0  0  0  0  0  0  0  0
    1.2219   -0.7118    0.0000 C   0  0  0  0  0  0  0  0  0  0  0  0
    2.0931   -1.1962    0.0002 H   0  0  0  0  0  0  0  0  0  0  0  0
    1.2153    0.7366    0.0110 C   0  0  0  0  0  0  0  0  0  0  0  0
    2.0855    1.2078    0.0315 H   0  0  0  0  0  0  0  0  0  0  0  0
  1  5  1  0
  5  8  1  0
  1  2  1  0
  1  3  1  0
  1  4  1  0
  5  6  1  0
  5  7  1  0
  8  9  1  0
  8 10  1  0
  8 11  1  0
 12 16  1  0
 16 17  2  0
 17 19  1  0
 19 21  2  0
 21 23  1  0
 23 25  2  0
 25 16  1  0
 12 13  1  0
 12 14  1  0
 12 15  1  0
 17 18  1  0
 19 20  1  0
 21 22  1  0
 23 24  1  0
 25 26  1  0
M  CHG  1   8   1
M  END
>  <PDB_ID>  (2146) 
pdb3m45

>  <RESIDUE_NAME>  (2146) 
LYS   PHE

>  <FRAG_NAME>  (2146) 
ETAM   MBZ

>  <FRAG_ATOM_NUM>  (2146) 
fragi: 11  fragj: 15

>  <atom.prop.CHAIN_ID>  (2146) 
A A A A A A A A A A A Z Z Z Z Z Z Z Z Z Z Z Z Z Z Z

>  <atom.prop.IS_HEAVY_ATOM>  (2146) 
1 0 0 0 1 0 0 1 0 0 0 1 0 0 0 1 1 0 1 0 1 0 1 0 1 0

>  <DIFUSE_FUNC_ATOM>  (2146) 
n/a

>  <FINAL_SINGLE_POINT_ENERGY>  (2146) 
0

>  <NONCOV_INTER_ENERGY_QM>  (2146) 
0

>  <FF_Energy>  (2146) 
-8.54

>  <QM_Energy>  (2146) 
-15.53

>  <source>  (2146) 
ETAM_MBZ

>  <Index>  (2146) 
22198

$$$$
ETAM-pdb3m5w-B-LYS-301:MBZ-pdb3m5w-B-PHE-297
     RDKit          3D

 26 25  0  0  0  0  0  0  0  0999 V2000
   -0.5809   -2.5334    3.6599 C   0  0  0  0  0  0  0  0  0  0  0  0
   -0.2423   -3.1230    4.3891 H   0  0  0  0  0  0  0  0  0  0  0  0
   -0.7662   -3.0738    2.8428 H   0  0  0  0  0  0  0  0  0  0  0  0
   -1.5068   -2.0620    3.9896 H   0  0  0  0  0  0  0  0  0  0  0  0
    0.4865   -1.5089    3.3302 C   0  0  0  0  0  0  0  0  0  0  0  0
    0.1737   -0.9435    2.5882 H   0  0  0  0  0  0  0  0  0  0  0  0
    0.6895   -0.9826    4.1365 H   0  0  0  0  0  0  0  0  0  0  0  0
    1.6809   -2.2673    2.9134 N   0  0  0  0  0  4  0  0  0  0  0  0
    1.4046   -3.1519    2.5336 H   0  0  0  0  0  0  0  0  0  0  0  0
    2.1831   -1.7521    2.2165 H   0  0  0  0  0  0  0  0  0  0  0  0
    2.2779   -2.4198    3.7036 H   0  0  0  0  0  0  0  0  0  0  0  0
    0.0161    2.9332    0.0013 C   0  0  0  0  0  0  0  0  0  0  0  0
   -0.2308    3.2347   -0.9050 H   0  0  0  0  0  0  0  0  0  0  0  0
    0.9258    3.2273    0.2468 H   0  0  0  0  0  0  0  0  0  0  0  0
   -0.6818    3.3859    0.7057 H   0  0  0  0  0  0  0  0  0  0  0  0
    0.0034    1.4120    0.0037 C   0  0  0  0  0  0  0  0  0  0  0  0
   -1.1959    0.7065   -0.0098 C   0  0  0  0  0  0  0  0  0  0  0  0
   -2.0615    1.1906   -0.0276 H   0  0  0  0  0  0  0  0  0  0  0  0
   -1.1971   -0.6966   -0.0000 C   0  0  0  0  0  0  0  0  0  0  0  0
   -2.0814   -1.1825    0.0061 H   0  0  0  0  0  0  0  0  0  0  0  0
   -0.0056   -1.3970    0.0023 C   0  0  0  0  0  0  0  0  0  0  0  0
   -0.0139   -2.3970    0.0050 H   0  0  0  0  0  0  0  0  0  0  0  0
    1.1971   -0.7097    0.0000 C   0  0  0  0  0  0  0  0  0  0  0  0
    2.0767   -1.2088   -0.0033 H   0  0  0  0  0  0  0  0  0  0  0  0
    1.1981    0.6849    0.0038 C   0  0  0  0  0  0  0  0  0  0  0  0
    2.0703    1.1765    0.0055 H   0  0  0  0  0  0  0  0  0  0  0  0
  1  5  1  0
  5  8  1  0
  1  2  1  0
  1  3  1  0
  1  4  1  0
  5  6  1  0
  5  7  1  0
  8  9  1  0
  8 10  1  0
  8 11  1  0
 12 16  1  0
 16 17  2  0
 17 19  1  0
 19 21  2  0
 21 23  1  0
 23 25  2  0
 25 16  1  0
 12 13  1  0
 12 14  1  0
 12 15  1  0
 17 18  1  0
 19 20  1  0
 21 22  1  0
 23 24  1  0
 25 26  1  0
M  CHG  1   8   1
M  END
>  <PDB_ID>  (2147) 
pdb3m5w

>  <RESIDUE_NAME>  (2147) 
LYS   PHE

>  <FRAG_NAME>  (2147) 
ETAM   MBZ

>  <FRAG_ATOM_NUM>  (2147) 
fragi: 11  fragj: 15

>  <atom.prop.CHAIN_ID>  (2147) 
A A A A A A A A A A A Z Z Z Z Z Z Z Z Z Z Z Z Z Z Z

>  <atom.prop.IS_HEAVY_ATOM>  (2147) 
1 0 0 0 1 0 0 1 0 0 0 1 0 0 0 1 1 0 1 0 1 0 1 0 1 0

>  <DIFUSE_FUNC_ATOM>  (2147) 
n/a

>  <FINAL_SINGLE_POINT_ENERGY>  (2147) 
0

>  <NONCOV_INTER_ENERGY_QM>  (2147) 
0

>  <FF_Energy>  (2147) 
-3.34

>  <QM_Energy>  (2147) 
-11.15

>  <source>  (2147) 
ETAM_MBZ

>  <Index>  (2147) 
22221

$$$$
ETAM-pdb3m62-A-LYS-804:MBZ-pdb3m62-A-PHE-853
     RDKit          3D

 26 25  0  0  0  0  0  0  0  0999 V2000
    0.2154   -2.1888   -3.9616 C   0  0  0  0  0  0  0  0  0  0  0  0
    0.1625   -2.6409   -3.0882 H   0  0  0  0  0  0  0  0  0  0  0  0
    1.1363   -1.9280   -4.1889 H   0  0  0  0  0  0  0  0  0  0  0  0
   -0.1558   -2.8677   -4.7293 H   0  0  0  0  0  0  0  0  0  0  0  0
   -0.6572   -0.9353   -3.9217 C   0  0  0  0  0  0  0  0  0  0  0  0
   -0.6988   -0.5545   -4.8329 H   0  0  0  0  0  0  0  0  0  0  0  0
   -1.5558   -1.1903   -3.5977 H   0  0  0  0  0  0  0  0  0  0  0  0
   -0.0294   -0.0020   -3.0056 N   0  0  0  0  0  4  0  0  0  0  0  0
   -0.7237    0.5749   -2.5620 H   0  0  0  0  0  0  0  0  0  0  0  0
    0.4770   -0.4984   -2.2926 H   0  0  0  0  0  0  0  0  0  0  0  0
    0.6141    0.5938   -3.4984 H   0  0  0  0  0  0  0  0  0  0  0  0
    0.0031    2.8721   -0.0060 C   0  0  0  0  0  0  0  0  0  0  0  0
   -0.8628    3.1989   -0.3631 H   0  0  0  0  0  0  0  0  0  0  0  0
    0.7577    3.1971   -0.5621 H   0  0  0  0  0  0  0  0  0  0  0  0
    0.1254    3.3109    0.9842 H   0  0  0  0  0  0  0  0  0  0  0  0
    0.0007    1.4050   -0.0109 C   0  0  0  0  0  0  0  0  0  0  0  0
   -1.2037    0.7048    0.0043 C   0  0  0  0  0  0  0  0  0  0  0  0
   -2.0672    1.1897    0.0176 H   0  0  0  0  0  0  0  0  0  0  0  0
   -1.2147   -0.7077    0.0000 C   0  0  0  0  0  0  0  0  0  0  0  0
   -2.0890   -1.1902   -0.0103 H   0  0  0  0  0  0  0  0  0  0  0  0
   -0.0076   -1.3978    0.0122 C   0  0  0  0  0  0  0  0  0  0  0  0
    0.0000   -2.3955    0.0286 H   0  0  0  0  0  0  0  0  0  0  0  0
    1.2147   -0.6933   -0.0000 C   0  0  0  0  0  0  0  0  0  0  0  0
    2.0855   -1.2034   -0.0028 H   0  0  0  0  0  0  0  0  0  0  0  0
    1.2106    0.6889   -0.0056 C   0  0  0  0  0  0  0  0  0  0  0  0
    2.0722    1.1947   -0.0069 H   0  0  0  0  0  0  0  0  0  0  0  0
  1  5  1  0
  5  8  1  0
  1  2  1  0
  1  3  1  0
  1  4  1  0
  5  6  1  0
  5  7  1  0
  8  9  1  0
  8 10  1  0
  8 11  1  0
 12 16  1  0
 16 17  2  0
 17 19  1  0
 19 21  2  0
 21 23  1  0
 23 25  2  0
 25 16  1  0
 12 13  1  0
 12 14  1  0
 12 15  1  0
 17 18  1  0
 19 20  1  0
 21 22  1  0
 23 24  1  0
 25 26  1  0
M  CHG  1   8   1
M  END
>  <PDB_ID>  (2148) 
pdb3m62

>  <RESIDUE_NAME>  (2148) 
LYS   PHE

>  <FRAG_NAME>  (2148) 
ETAM   MBZ

>  <FRAG_ATOM_NUM>  (2148) 
fragi: 11  fragj: 15

>  <atom.prop.CHAIN_ID>  (2148) 
A A A A A A A A A A A Z Z Z Z Z Z Z Z Z Z Z Z Z Z Z

>  <atom.prop.IS_HEAVY_ATOM>  (2148) 
1 0 0 0 1 0 0 1 0 0 0 1 0 0 0 1 1 0 1 0 1 0 1 0 1 0

>  <DIFUSE_FUNC_ATOM>  (2148) 
n/a

>  <FINAL_SINGLE_POINT_ENERGY>  (2148) 
0

>  <NONCOV_INTER_ENERGY_QM>  (2148) 
0

>  <FF_Energy>  (2148) 
-10.12

>  <QM_Energy>  (2148) 
-19.18

>  <source>  (2148) 
ETAM_MBZ

>  <Index>  (2148) 
22226

$$$$
ETAM-pdb3m62-A-LYS-951:MBZ-pdb3m62-A-PHE-947
     RDKit          3D

 26 25  0  0  0  0  0  0  0  0999 V2000
   -0.6917   -2.5689    4.0974 C   0  0  0  0  0  0  0  0  0  0  0  0
   -0.5874   -3.1979    3.3332 H   0  0  0  0  0  0  0  0  0  0  0  0
   -0.5740   -3.0512    4.9591 H   0  0  0  0  0  0  0  0  0  0  0  0
    0.0639   -1.7871    4.0202 H   0  0  0  0  0  0  0  0  0  0  0  0
   -2.0911   -1.9867    4.0572 C   0  0  0  0  0  0  0  0  0  0  0  0
   -2.6538   -2.4403    4.7481 H   0  0  0  0  0  0  0  0  0  0  0  0
   -2.0441   -1.0082    4.2571 H   0  0  0  0  0  0  0  0  0  0  0  0
   -2.7057   -2.1833    2.7181 N   0  0  0  0  0  4  0  0  0  0  0  0
   -2.6449   -3.1482    2.4624 H   0  0  0  0  0  0  0  0  0  0  0  0
   -3.6660   -1.9063    2.7488 H   0  0  0  0  0  0  0  0  0  0  0  0
   -2.2191   -1.6277    2.0445 H   0  0  0  0  0  0  0  0  0  0  0  0
    0.0041    2.9047    0.0036 C   0  0  0  0  0  0  0  0  0  0  0  0
   -0.7590    3.2163   -0.5432 H   0  0  0  0  0  0  0  0  0  0  0  0
    0.8657    3.2126   -0.3725 H   0  0  0  0  0  0  0  0  0  0  0  0
   -0.0992    3.3392    0.9979 H   0  0  0  0  0  0  0  0  0  0  0  0
    0.0016    1.4069   -0.0033 C   0  0  0  0  0  0  0  0  0  0  0  0
   -1.1991    0.6989   -0.0116 C   0  0  0  0  0  0  0  0  0  0  0  0
   -2.0644    1.1880   -0.0270 H   0  0  0  0  0  0  0  0  0  0  0  0
   -1.2065   -0.6996    0.0000 C   0  0  0  0  0  0  0  0  0  0  0  0
   -2.0855   -1.1878   -0.0008 H   0  0  0  0  0  0  0  0  0  0  0  0
   -0.0066   -1.4015    0.0135 C   0  0  0  0  0  0  0  0  0  0  0  0
   -0.0074   -2.3960    0.0322 H   0  0  0  0  0  0  0  0  0  0  0  0
    1.2065   -0.6999   -0.0000 C   0  0  0  0  0  0  0  0  0  0  0  0
    2.0829   -1.2007   -0.0093 H   0  0  0  0  0  0  0  0  0  0  0  0
    1.2041    0.6952    0.0014 C   0  0  0  0  0  0  0  0  0  0  0  0
    2.0701    1.1906    0.0047 H   0  0  0  0  0  0  0  0  0  0  0  0
  1  5  1  0
  5  8  1  0
  1  2  1  0
  1  3  1  0
  1  4  1  0
  5  6  1  0
  5  7  1  0
  8  9  1  0
  8 10  1  0
  8 11  1  0
 12 16  1  0
 16 17  2  0
 17 19  1  0
 19 21  2  0
 21 23  1  0
 23 25  2  0
 25 16  1  0
 12 13  1  0
 12 14  1  0
 12 15  1  0
 17 18  1  0
 19 20  1  0
 21 22  1  0
 23 24  1  0
 25 26  1  0
M  CHG  1   8   1
M  END
>  <PDB_ID>  (2149) 
pdb3m62

>  <RESIDUE_NAME>  (2149) 
LYS   PHE

>  <FRAG_NAME>  (2149) 
ETAM   MBZ

>  <FRAG_ATOM_NUM>  (2149) 
fragi: 11  fragj: 15

>  <atom.prop.CHAIN_ID>  (2149) 
A A A A A A A A A A A Z Z Z Z Z Z Z Z Z Z Z Z Z Z Z

>  <atom.prop.IS_HEAVY_ATOM>  (2149) 
1 0 0 0 1 0 0 1 0 0 0 1 0 0 0 1 1 0 1 0 1 0 1 0 1 0

>  <DIFUSE_FUNC_ATOM>  (2149) 
n/a

>  <FINAL_SINGLE_POINT_ENERGY>  (2149) 
0

>  <NONCOV_INTER_ENERGY_QM>  (2149) 
0

>  <FF_Energy>  (2149) 
-2.27

>  <QM_Energy>  (2149) 
-8.95

>  <source>  (2149) 
ETAM_MBZ

>  <Index>  (2149) 
22228

$$$$
ETAM-pdb3lyu-E-LYS-209:MBZ-pdb3lyu-E-PHE-205
     RDKit          3D

 26 25  0  0  0  0  0  0  0  0999 V2000
   -3.2539   -1.6775   -3.9628 C   0  0  0  0  0  0  0  0  0  0  0  0
   -4.1134   -1.1845   -4.0807 H   0  0  0  0  0  0  0  0  0  0  0  0
   -3.1971   -2.4212   -4.6263 H   0  0  0  0  0  0  0  0  0  0  0  0
   -2.4300   -0.9866   -4.1417 H   0  0  0  0  0  0  0  0  0  0  0  0
   -3.2368   -2.2876   -2.5515 C   0  0  0  0  0  0  0  0  0  0  0  0
   -3.7425   -3.1615   -2.5716 H   0  0  0  0  0  0  0  0  0  0  0  0
   -2.2798   -2.4885   -2.2978 H   0  0  0  0  0  0  0  0  0  0  0  0
   -3.8428   -1.4040   -1.4850 N   0  0  0  0  0  4  0  0  0  0  0  0
   -4.2249   -1.9818   -0.7695 H   0  0  0  0  0  0  0  0  0  0  0  0
   -3.1284   -0.8195   -1.1101 H   0  0  0  0  0  0  0  0  0  0  0  0
   -4.5596   -0.8497   -1.8981 H   0  0  0  0  0  0  0  0  0  0  0  0
   -0.0023    2.9081   -0.0244 C   0  0  0  0  0  0  0  0  0  0  0  0
    0.7925    3.2236    0.4735 H   0  0  0  0  0  0  0  0  0  0  0  0
   -0.8388    3.2184    0.4033 H   0  0  0  0  0  0  0  0  0  0  0  0
    0.0390    3.3387   -1.0249 H   0  0  0  0  0  0  0  0  0  0  0  0
    0.0013    1.4037   -0.0005 C   0  0  0  0  0  0  0  0  0  0  0  0
   -1.1982    0.6855    0.0006 C   0  0  0  0  0  0  0  0  0  0  0  0
   -2.0646    1.1758    0.0005 H   0  0  0  0  0  0  0  0  0  0  0  0
   -1.2018   -0.7066   -0.0000 C   0  0  0  0  0  0  0  0  0  0  0  0
   -2.0765   -1.2009    0.0015 H   0  0  0  0  0  0  0  0  0  0  0  0
    0.0012   -1.3930   -0.0007 C   0  0  0  0  0  0  0  0  0  0  0  0
    0.0055   -2.3927   -0.0017 H   0  0  0  0  0  0  0  0  0  0  0  0
    1.2018   -0.6906    0.0000 C   0  0  0  0  0  0  0  0  0  0  0  0
    2.0843   -1.1869    0.0015 H   0  0  0  0  0  0  0  0  0  0  0  0
    1.1957    0.7009    0.0006 C   0  0  0  0  0  0  0  0  0  0  0  0
    2.0638    1.1969    0.0011 H   0  0  0  0  0  0  0  0  0  0  0  0
  1  5  1  0
  5  8  1  0
  1  2  1  0
  1  3  1  0
  1  4  1  0
  5  6  1  0
  5  7  1  0
  8  9  1  0
  8 10  1  0
  8 11  1  0
 12 16  1  0
 16 17  2  0
 17 19  1  0
 19 21  2  0
 21 23  1  0
 23 25  2  0
 25 16  1  0
 12 13  1  0
 12 14  1  0
 12 15  1  0
 17 18  1  0
 19 20  1  0
 21 22  1  0
 23 24  1  0
 25 26  1  0
M  CHG  1   8   1
M  END
>  <PDB_ID>  (2150) 
pdb3lyu

>  <RESIDUE_NAME>  (2150) 
LYS   PHE

>  <FRAG_NAME>  (2150) 
ETAM   MBZ

>  <FRAG_ATOM_NUM>  (2150) 
fragi: 11  fragj: 15

>  <atom.prop.CHAIN_ID>  (2150) 
A A A A A A A A A A A Z Z Z Z Z Z Z Z Z Z Z Z Z Z Z

>  <atom.prop.IS_HEAVY_ATOM>  (2150) 
1 0 0 0 1 0 0 1 0 0 0 1 0 0 0 1 1 0 1 0 1 0 1 0 1 0

>  <DIFUSE_FUNC_ATOM>  (2150) 
n/a

>  <FINAL_SINGLE_POINT_ENERGY>  (2150) 
0

>  <NONCOV_INTER_ENERGY_QM>  (2150) 
0

>  <FF_Energy>  (2150) 
3.65

>  <QM_Energy>  (2150) 
-4.07

>  <source>  (2150) 
ETAM_MBZ

>  <Index>  (2150) 
22229

$$$$
ETAM-pdb4j82-A-LYS-218:MBZ-pdb4j82-A-PHE-177
     RDKit          3D

 26 25  0  0  0  0  0  0  0  0999 V2000
   -1.4534    1.0235   -3.6728 C   0  0  0  0  0  0  0  0  0  0  0  0
   -2.0073    1.0752   -2.8491 H   0  0  0  0  0  0  0  0  0  0  0  0
   -1.3096    0.0766   -3.9362 H   0  0  0  0  0  0  0  0  0  0  0  0
   -1.9596    1.5509   -4.4814 H   0  0  0  0  0  0  0  0  0  0  0  0
   -0.0900    1.6483   -3.3729 C   0  0  0  0  0  0  0  0  0  0  0  0
   -0.1385    2.6363   -3.5757 H   0  0  0  0  0  0  0  0  0  0  0  0
    0.1017    1.5434   -2.3869 H   0  0  0  0  0  0  0  0  0  0  0  0
    1.0257    1.0442   -4.1535 N   0  0  0  0  0  4  0  0  0  0  0  0
    1.7729    1.7039   -4.2288 H   0  0  0  0  0  0  0  0  0  0  0  0
    1.3504    0.2231   -3.6858 H   0  0  0  0  0  0  0  0  0  0  0  0
    0.6979    0.8033   -5.0664 H   0  0  0  0  0  0  0  0  0  0  0  0
    0.0018    2.9125   -0.0231 C   0  0  0  0  0  0  0  0  0  0  0  0
   -0.8153    3.2048   -0.4987 H   0  0  0  0  0  0  0  0  0  0  0  0
    0.8175    3.2031   -0.5028 H   0  0  0  0  0  0  0  0  0  0  0  0
    0.0047    3.3876    0.9579 H   0  0  0  0  0  0  0  0  0  0  0  0
    0.0005    1.3980    0.0103 C   0  0  0  0  0  0  0  0  0  0  0  0
   -1.1932    0.6924   -0.0026 C   0  0  0  0  0  0  0  0  0  0  0  0
   -2.0609    1.1846   -0.0153 H   0  0  0  0  0  0  0  0  0  0  0  0
   -1.2001   -0.6943   -0.0000 C   0  0  0  0  0  0  0  0  0  0  0  0
   -2.0769   -1.1878    0.0070 H   0  0  0  0  0  0  0  0  0  0  0  0
   -0.0013   -1.3888   -0.0055 C   0  0  0  0  0  0  0  0  0  0  0  0
   -0.0051   -2.3888   -0.0142 H   0  0  0  0  0  0  0  0  0  0  0  0
    1.2001   -0.6954    0.0000 C   0  0  0  0  0  0  0  0  0  0  0  0
    2.0797   -1.1963    0.0072 H   0  0  0  0  0  0  0  0  0  0  0  0
    1.1940    0.6881   -0.0022 C   0  0  0  0  0  0  0  0  0  0  0  0
    2.0636    1.1874   -0.0141 H   0  0  0  0  0  0  0  0  0  0  0  0
  1  5  1  0
  5  8  1  0
  1  2  1  0
  1  3  1  0
  1  4  1  0
  5  6  1  0
  5  7  1  0
  8  9  1  0
  8 10  1  0
  8 11  1  0
 12 16  1  0
 16 17  2  0
 17 19  1  0
 19 21  2  0
 21 23  1  0
 23 25  2  0
 25 16  1  0
 12 13  1  0
 12 14  1  0
 12 15  1  0
 17 18  1  0
 19 20  1  0
 21 22  1  0
 23 24  1  0
 25 26  1  0
M  CHG  1   8   1
M  END
>  <PDB_ID>  (2151) 
pdb4j82

>  <RESIDUE_NAME>  (2151) 
LYS   PHE

>  <FRAG_NAME>  (2151) 
ETAM   MBZ

>  <FRAG_ATOM_NUM>  (2151) 
fragi: 11  fragj: 15

>  <atom.prop.CHAIN_ID>  (2151) 
A A A A A A A A A A A Z Z Z Z Z Z Z Z Z Z Z Z Z Z Z

>  <atom.prop.IS_HEAVY_ATOM>  (2151) 
1 0 0 0 1 0 0 1 0 0 0 1 0 0 0 1 1 0 1 0 1 0 1 0 1 0

>  <DIFUSE_FUNC_ATOM>  (2151) 
n/a

>  <FINAL_SINGLE_POINT_ENERGY>  (2151) 
0

>  <NONCOV_INTER_ENERGY_QM>  (2151) 
0

>  <FF_Energy>  (2151) 
-3.7

>  <QM_Energy>  (2151) 
-9.01

>  <source>  (2151) 
ETAM_MBZ

>  <Index>  (2151) 
22243

$$$$
ETAM-pdb4j79-B-LYS-2:MBZ-pdb4j79-A-PHE-142
     RDKit          3D

 26 25  0  0  0  0  0  0  0  0999 V2000
   -2.1421   -3.5604   -3.4900 C   0  0  0  0  0  0  0  0  0  0  0  0
   -2.6954   -4.3067   -3.8693 H   0  0  0  0  0  0  0  0  0  0  0  0
   -2.5293   -2.6840   -3.7872 H   0  0  0  0  0  0  0  0  0  0  0  0
   -2.1902   -3.6105   -2.4023 H   0  0  0  0  0  0  0  0  0  0  0  0
   -0.7333   -3.6770   -4.0370 C   0  0  0  0  0  0  0  0  0  0  0  0
   -0.3815   -4.5917   -3.8517 H   0  0  0  0  0  0  0  0  0  0  0  0
   -0.7459   -3.5124   -5.0216 H   0  0  0  0  0  0  0  0  0  0  0  0
    0.1704   -2.6692   -3.3882 N   0  0  0  0  0  4  0  0  0  0  0  0
   -0.3862   -1.9552   -2.9695 H   0  0  0  0  0  0  0  0  0  0  0  0
    0.7181   -3.1250   -2.6900 H   0  0  0  0  0  0  0  0  0  0  0  0
    0.7668   -2.2720   -4.0827 H   0  0  0  0  0  0  0  0  0  0  0  0
   -0.0237    2.9169   -0.0100 C   0  0  0  0  0  0  0  0  0  0  0  0
   -0.6900    3.2111    0.6633 H   0  0  0  0  0  0  0  0  0  0  0  0
   -0.2949    3.2028   -0.9207 H   0  0  0  0  0  0  0  0  0  0  0  0
    0.9282    3.3930    0.2248 H   0  0  0  0  0  0  0  0  0  0  0  0
    0.0022    1.4036    0.0047 C   0  0  0  0  0  0  0  0  0  0  0  0
   -1.1856    0.6967    0.0046 C   0  0  0  0  0  0  0  0  0  0  0  0
   -2.0579    1.1811    0.0065 H   0  0  0  0  0  0  0  0  0  0  0  0
   -1.1928   -0.7006    0.0000 C   0  0  0  0  0  0  0  0  0  0  0  0
   -2.0792   -1.1835   -0.0034 H   0  0  0  0  0  0  0  0  0  0  0  0
   -0.0091   -1.3961    0.0021 C   0  0  0  0  0  0  0  0  0  0  0  0
   -0.0098   -2.3956    0.0044 H   0  0  0  0  0  0  0  0  0  0  0  0
    1.1928   -0.7024    0.0000 C   0  0  0  0  0  0  0  0  0  0  0  0
    2.0746   -1.1972    0.0085 H   0  0  0  0  0  0  0  0  0  0  0  0
    1.1925    0.6988   -0.0115 C   0  0  0  0  0  0  0  0  0  0  0  0
    2.0636    1.1860   -0.0327 H   0  0  0  0  0  0  0  0  0  0  0  0
  1  5  1  0
  5  8  1  0
  1  2  1  0
  1  3  1  0
  1  4  1  0
  5  6  1  0
  5  7  1  0
  8  9  1  0
  8 10  1  0
  8 11  1  0
 12 16  1  0
 16 17  2  0
 17 19  1  0
 19 21  2  0
 21 23  1  0
 23 25  2  0
 25 16  1  0
 12 13  1  0
 12 14  1  0
 12 15  1  0
 17 18  1  0
 19 20  1  0
 21 22  1  0
 23 24  1  0
 25 26  1  0
M  CHG  1   8   1
M  END
>  <PDB_ID>  (2152) 
pdb4j79

>  <RESIDUE_NAME>  (2152) 
LYS   PHE

>  <FRAG_NAME>  (2152) 
ETAM   MBZ

>  <FRAG_ATOM_NUM>  (2152) 
fragi: 11  fragj: 15

>  <atom.prop.CHAIN_ID>  (2152) 
A A A A A A A A A A A Z Z Z Z Z Z Z Z Z Z Z Z Z Z Z

>  <atom.prop.IS_HEAVY_ATOM>  (2152) 
1 0 0 0 1 0 0 1 0 0 0 1 0 0 0 1 1 0 1 0 1 0 1 0 1 0

>  <DIFUSE_FUNC_ATOM>  (2152) 
n/a

>  <FINAL_SINGLE_POINT_ENERGY>  (2152) 
0

>  <NONCOV_INTER_ENERGY_QM>  (2152) 
0

>  <FF_Energy>  (2152) 
-3.4

>  <QM_Energy>  (2152) 
-8.51

>  <source>  (2152) 
ETAM_MBZ

>  <Index>  (2152) 
22264

$$$$
ETAM-pdb3m8e-B-LYS-54:MBZ-pdb3m8e-B-PHE-58
     RDKit          3D

 26 25  0  0  0  0  0  0  0  0999 V2000
   -1.4556   -1.7832   -4.2505 C   0  0  0  0  0  0  0  0  0  0  0  0
   -2.2088   -2.2799   -4.6717 H   0  0  0  0  0  0  0  0  0  0  0  0
   -0.7830   -1.5284   -4.9386 H   0  0  0  0  0  0  0  0  0  0  0  0
   -1.8465   -0.8776   -3.7867 H   0  0  0  0  0  0  0  0  0  0  0  0
   -0.7925   -2.6789   -3.2307 C   0  0  0  0  0  0  0  0  0  0  0  0
   -0.4070   -3.4833   -3.6951 H   0  0  0  0  0  0  0  0  0  0  0  0
   -0.0434   -2.1773   -2.7855 H   0  0  0  0  0  0  0  0  0  0  0  0
   -1.7499   -3.1472   -2.1762 N   0  0  0  0  0  4  0  0  0  0  0  0
   -1.4869   -4.0630   -1.8801 H   0  0  0  0  0  0  0  0  0  0  0  0
   -1.7165   -2.5179   -1.4025 H   0  0  0  0  0  0  0  0  0  0  0  0
   -2.6714   -3.1665   -2.5576 H   0  0  0  0  0  0  0  0  0  0  0  0
    0.0170    2.9203   -0.0104 C   0  0  0  0  0  0  0  0  0  0  0  0
   -0.2204    3.2164   -0.9239 H   0  0  0  0  0  0  0  0  0  0  0  0
    0.9266    3.2160    0.2385 H   0  0  0  0  0  0  0  0  0  0  0  0
   -0.6854    3.3818    0.6837 H   0  0  0  0  0  0  0  0  0  0  0  0
    0.0025    1.4054    0.0041 C   0  0  0  0  0  0  0  0  0  0  0  0
   -1.1981    0.6977   -0.0055 C   0  0  0  0  0  0  0  0  0  0  0  0
   -2.0635    1.1894   -0.0177 H   0  0  0  0  0  0  0  0  0  0  0  0
   -1.2071   -0.6973    0.0000 C   0  0  0  0  0  0  0  0  0  0  0  0
   -2.0835   -1.1884    0.0022 H   0  0  0  0  0  0  0  0  0  0  0  0
   -0.0035   -1.3994    0.0039 C   0  0  0  0  0  0  0  0  0  0  0  0
   -0.0070   -2.3949    0.0088 H   0  0  0  0  0  0  0  0  0  0  0  0
    1.2071   -0.6995   -0.0000 C   0  0  0  0  0  0  0  0  0  0  0  0
    2.0836   -1.1982    0.0004 H   0  0  0  0  0  0  0  0  0  0  0  0
    1.1992    0.6931   -0.0025 C   0  0  0  0  0  0  0  0  0  0  0  0
    2.0680    1.1908   -0.0102 H   0  0  0  0  0  0  0  0  0  0  0  0
  1  5  1  0
  5  8  1  0
  1  2  1  0
  1  3  1  0
  1  4  1  0
  5  6  1  0
  5  7  1  0
  8  9  1  0
  8 10  1  0
  8 11  1  0
 12 16  1  0
 16 17  2  0
 17 19  1  0
 19 21  2  0
 21 23  1  0
 23 25  2  0
 25 16  1  0
 12 13  1  0
 12 14  1  0
 12 15  1  0
 17 18  1  0
 19 20  1  0
 21 22  1  0
 23 24  1  0
 25 26  1  0
M  CHG  1   8   1
M  END
>  <PDB_ID>  (2153) 
pdb3m8e

>  <RESIDUE_NAME>  (2153) 
LYS   PHE

>  <FRAG_NAME>  (2153) 
ETAM   MBZ

>  <FRAG_ATOM_NUM>  (2153) 
fragi: 11  fragj: 15

>  <atom.prop.CHAIN_ID>  (2153) 
A A A A A A A A A A A Z Z Z Z Z Z Z Z Z Z Z Z Z Z Z

>  <atom.prop.IS_HEAVY_ATOM>  (2153) 
1 0 0 0 1 0 0 1 0 0 0 1 0 0 0 1 1 0 1 0 1 0 1 0 1 0

>  <DIFUSE_FUNC_ATOM>  (2153) 
n/a

>  <FINAL_SINGLE_POINT_ENERGY>  (2153) 
0

>  <NONCOV_INTER_ENERGY_QM>  (2153) 
0

>  <FF_Energy>  (2153) 
-1.47

>  <QM_Energy>  (2153) 
-9.32

>  <source>  (2153) 
ETAM_MBZ

>  <Index>  (2153) 
22268

$$$$
ETAM-pdb3ma2-A-LYS-146:MBZ-pdb3ma2-A-PHE-234
     RDKit          3D

 26 25  0  0  0  0  0  0  0  0999 V2000
   -1.3632    0.4335   -3.2202 C   0  0  0  0  0  0  0  0  0  0  0  0
   -1.5551    1.4448   -3.1982 H   0  0  0  0  0  0  0  0  0  0  0  0
   -0.9618    0.2179   -2.2978 H   0  0  0  0  0  0  0  0  0  0  0  0
   -2.3068   -0.1013   -3.3283 H   0  0  0  0  0  0  0  0  0  0  0  0
   -0.3222    0.1851   -4.2436 C   0  0  0  0  0  0  0  0  0  0  0  0
   -0.7699    0.1973   -5.1690 H   0  0  0  0  0  0  0  0  0  0  0  0
    0.3242    0.9849   -4.2467 H   0  0  0  0  0  0  0  0  0  0  0  0
    0.3945   -1.0176   -4.0681 N   0  0  0  0  0  4  0  0  0  0  0  0
    0.9744   -1.2243   -4.8728 H   0  0  0  0  0  0  0  0  0  0  0  0
    1.0032   -0.9709   -3.2592 H   0  0  0  0  0  0  0  0  0  0  0  0
   -0.2298   -1.8043   -3.9345 H   0  0  0  0  0  0  0  0  0  0  0  0
    0.0361    2.8712   -0.0323 C   0  0  0  0  0  0  0  0  0  0  0  0
   -0.6341    3.1821   -0.6948 H   0  0  0  0  0  0  0  0  0  0  0  0
    0.9497    3.1550   -0.2983 H   0  0  0  0  0  0  0  0  0  0  0  0
   -0.1948    3.3437    0.9224 H   0  0  0  0  0  0  0  0  0  0  0  0
    0.0046    1.3741   -0.0094 C   0  0  0  0  0  0  0  0  0  0  0  0
   -1.1691    0.6776   -0.0151 C   0  0  0  0  0  0  0  0  0  0  0  0
   -2.0427    1.1679   -0.0321 H   0  0  0  0  0  0  0  0  0  0  0  0
   -1.1632   -0.6846    0.0000 C   0  0  0  0  0  0  0  0  0  0  0  0
   -2.0560   -1.1802   -0.0000 H   0  0  0  0  0  0  0  0  0  0  0  0
   -0.0058   -1.3499    0.0160 C   0  0  0  0  0  0  0  0  0  0  0  0
   -0.0035   -2.3668    0.0395 H   0  0  0  0  0  0  0  0  0  0  0  0
    1.1632   -0.6779   -0.0000 C   0  0  0  0  0  0  0  0  0  0  0  0
    2.0531   -1.1949   -0.0174 H   0  0  0  0  0  0  0  0  0  0  0  0
    1.1704    0.6606    0.0085 C   0  0  0  0  0  0  0  0  0  0  0  0
    2.0497    1.1659    0.0280 H   0  0  0  0  0  0  0  0  0  0  0  0
  1  5  1  0
  5  8  1  0
  1  2  1  0
  1  3  1  0
  1  4  1  0
  5  6  1  0
  5  7  1  0
  8  9  1  0
  8 10  1  0
  8 11  1  0
 12 16  1  0
 16 17  2  0
 17 19  1  0
 19 21  2  0
 21 23  1  0
 23 25  2  0
 25 16  1  0
 12 13  1  0
 12 14  1  0
 12 15  1  0
 17 18  1  0
 19 20  1  0
 21 22  1  0
 23 24  1  0
 25 26  1  0
M  CHG  1   8   1
M  END
>  <PDB_ID>  (2154) 
pdb3ma2

>  <RESIDUE_NAME>  (2154) 
LYS   PHE

>  <FRAG_NAME>  (2154) 
ETAM   MBZ

>  <FRAG_ATOM_NUM>  (2154) 
fragi: 11  fragj: 15

>  <atom.prop.CHAIN_ID>  (2154) 
A A A A A A A A A A A Z Z Z Z Z Z Z Z Z Z Z Z Z Z Z

>  <atom.prop.IS_HEAVY_ATOM>  (2154) 
1 0 0 0 1 0 0 1 0 0 0 1 0 0 0 1 1 0 1 0 1 0 1 0 1 0

>  <DIFUSE_FUNC_ATOM>  (2154) 
n/a

>  <FINAL_SINGLE_POINT_ENERGY>  (2154) 
0

>  <NONCOV_INTER_ENERGY_QM>  (2154) 
0

>  <FF_Energy>  (2154) 
-2.28

>  <QM_Energy>  (2154) 
-8.15

>  <source>  (2154) 
ETAM_MBZ

>  <Index>  (2154) 
22302

$$$$
ETAM-pdb4jc2-A-LYS-178:MBZ-pdb4jc2-A-PHE-152
     RDKit          3D

 26 25  0  0  0  0  0  0  0  0999 V2000
    0.6621    0.8987   -4.4785 C   0  0  0  0  0  0  0  0  0  0  0  0
    0.6373    0.8693   -5.4538 H   0  0  0  0  0  0  0  0  0  0  0  0
    1.5169    1.2057   -4.1201 H   0  0  0  0  0  0  0  0  0  0  0  0
   -0.1267    1.5637   -4.1269 H   0  0  0  0  0  0  0  0  0  0  0  0
    0.3601   -0.4823   -3.9305 C   0  0  0  0  0  0  0  0  0  0  0  0
   -0.3102   -0.3885   -3.1672 H   0  0  0  0  0  0  0  0  0  0  0  0
   -0.1092   -1.0235   -4.6573 H   0  0  0  0  0  0  0  0  0  0  0  0
    1.5335   -1.2446   -3.4477 N   0  0  0  0  0  4  0  0  0  0  0  0
    2.3620   -0.6971   -3.5686 H   0  0  0  0  0  0  0  0  0  0  0  0
    1.4175   -1.4605   -2.4775 H   0  0  0  0  0  0  0  0  0  0  0  0
    1.6186   -2.0949   -3.9684 H   0  0  0  0  0  0  0  0  0  0  0  0
   -0.0108    2.9105   -0.0262 C   0  0  0  0  0  0  0  0  0  0  0  0
   -0.7342    3.2193   -0.6213 H   0  0  0  0  0  0  0  0  0  0  0  0
    0.8712    3.2342   -0.3269 H   0  0  0  0  0  0  0  0  0  0  0  0
   -0.1936    3.3599    0.9498 H   0  0  0  0  0  0  0  0  0  0  0  0
    0.0009    1.4148   -0.0170 C   0  0  0  0  0  0  0  0  0  0  0  0
   -1.2039    0.6954    0.0197 C   0  0  0  0  0  0  0  0  0  0  0  0
   -2.0680    1.1872    0.0596 H   0  0  0  0  0  0  0  0  0  0  0  0
   -1.2153   -0.7045   -0.0000 C   0  0  0  0  0  0  0  0  0  0  0  0
   -2.0904   -1.1925   -0.0240 H   0  0  0  0  0  0  0  0  0  0  0  0
   -0.0087   -1.4106    0.0162 C   0  0  0  0  0  0  0  0  0  0  0  0
   -0.0062   -2.4007    0.0380 H   0  0  0  0  0  0  0  0  0  0  0  0
    1.2153   -0.7000    0.0000 C   0  0  0  0  0  0  0  0  0  0  0  0
    2.0880   -1.1999    0.0038 H   0  0  0  0  0  0  0  0  0  0  0  0
    1.2117    0.7049   -0.0190 C   0  0  0  0  0  0  0  0  0  0  0  0
    2.0740    1.1986   -0.0344 H   0  0  0  0  0  0  0  0  0  0  0  0
  1  5  1  0
  5  8  1  0
  1  2  1  0
  1  3  1  0
  1  4  1  0
  5  6  1  0
  5  7  1  0
  8  9  1  0
  8 10  1  0
  8 11  1  0
 12 16  1  0
 16 17  2  0
 17 19  1  0
 19 21  2  0
 21 23  1  0
 23 25  2  0
 25 16  1  0
 12 13  1  0
 12 14  1  0
 12 15  1  0
 17 18  1  0
 19 20  1  0
 21 22  1  0
 23 24  1  0
 25 26  1  0
M  CHG  1   8   1
M  END
>  <PDB_ID>  (2155) 
pdb4jc2

>  <RESIDUE_NAME>  (2155) 
LYS   PHE

>  <FRAG_NAME>  (2155) 
ETAM   MBZ

>  <FRAG_ATOM_NUM>  (2155) 
fragi: 11  fragj: 15

>  <atom.prop.CHAIN_ID>  (2155) 
A A A A A A A A A A A Z Z Z Z Z Z Z Z Z Z Z Z Z Z Z

>  <atom.prop.IS_HEAVY_ATOM>  (2155) 
1 0 0 0 1 0 0 1 0 0 0 1 0 0 0 1 1 0 1 0 1 0 1 0 1 0

>  <DIFUSE_FUNC_ATOM>  (2155) 
n/a

>  <FINAL_SINGLE_POINT_ENERGY>  (2155) 
0

>  <NONCOV_INTER_ENERGY_QM>  (2155) 
0

>  <FF_Energy>  (2155) 
-6.06

>  <QM_Energy>  (2155) 
-13.1

>  <source>  (2155) 
ETAM_MBZ

>  <Index>  (2155) 
22310

$$$$
ETAM-pdb3mao-A-LYS-36:MBZ-pdb3mao-A-PHE-16
     RDKit          3D

 26 25  0  0  0  0  0  0  0  0999 V2000
   -3.2428    0.2215   -3.4826 C   0  0  0  0  0  0  0  0  0  0  0  0
   -3.8263    0.7369   -4.1073 H   0  0  0  0  0  0  0  0  0  0  0  0
   -2.7246    0.8519   -2.9081 H   0  0  0  0  0  0  0  0  0  0  0  0
   -3.8796   -0.3869   -2.8402 H   0  0  0  0  0  0  0  0  0  0  0  0
   -2.2651   -0.6104   -4.3004 C   0  0  0  0  0  0  0  0  0  0  0  0
   -2.7693   -1.3285   -4.7841 H   0  0  0  0  0  0  0  0  0  0  0  0
   -1.8120   -0.0199   -4.9716 H   0  0  0  0  0  0  0  0  0  0  0  0
   -1.2139   -1.2556   -3.4372 N   0  0  0  0  0  4  0  0  0  0  0  0
   -0.8730   -2.0713   -3.8987 H   0  0  0  0  0  0  0  0  0  0  0  0
   -0.4701   -0.6078   -3.2960 H   0  0  0  0  0  0  0  0  0  0  0  0
   -1.6218   -1.5036   -2.5619 H   0  0  0  0  0  0  0  0  0  0  0  0
   -0.0489    2.8935   -0.0523 C   0  0  0  0  0  0  0  0  0  0  0  0
    0.8061    3.2372    0.3007 H   0  0  0  0  0  0  0  0  0  0  0  0
   -0.8161    3.2058    0.4839 H   0  0  0  0  0  0  0  0  0  0  0  0
   -0.1702    3.2922   -1.0594 H   0  0  0  0  0  0  0  0  0  0  0  0
   -0.0132    1.3919    0.0052 C   0  0  0  0  0  0  0  0  0  0  0  0
   -1.1741    0.6742   -0.0161 C   0  0  0  0  0  0  0  0  0  0  0  0
   -2.0578    1.1534   -0.0448 H   0  0  0  0  0  0  0  0  0  0  0  0
   -1.1627   -0.6959    0.0000 C   0  0  0  0  0  0  0  0  0  0  0  0
   -2.0495   -1.1955    0.0163 H   0  0  0  0  0  0  0  0  0  0  0  0
    0.0099   -1.3678   -0.0041 C   0  0  0  0  0  0  0  0  0  0  0  0
   -0.0019   -2.3852   -0.0110 H   0  0  0  0  0  0  0  0  0  0  0  0
    1.1627   -0.7031   -0.0000 C   0  0  0  0  0  0  0  0  0  0  0  0
    2.0674   -1.1848   -0.0063 H   0  0  0  0  0  0  0  0  0  0  0  0
    1.1774    0.7006    0.0150 C   0  0  0  0  0  0  0  0  0  0  0  0
    2.0457    1.1797    0.0315 H   0  0  0  0  0  0  0  0  0  0  0  0
  1  5  1  0
  5  8  1  0
  1  2  1  0
  1  3  1  0
  1  4  1  0
  5  6  1  0
  5  7  1  0
  8  9  1  0
  8 10  1  0
  8 11  1  0
 12 16  1  0
 16 17  2  0
 17 19  1  0
 19 21  2  0
 21 23  1  0
 23 25  2  0
 25 16  1  0
 12 13  1  0
 12 14  1  0
 12 15  1  0
 17 18  1  0
 19 20  1  0
 21 22  1  0
 23 24  1  0
 25 26  1  0
M  CHG  1   8   1
M  END
>  <PDB_ID>  (2156) 
pdb3mao

>  <RESIDUE_NAME>  (2156) 
LYS   PHE

>  <FRAG_NAME>  (2156) 
ETAM   MBZ

>  <FRAG_ATOM_NUM>  (2156) 
fragi: 11  fragj: 15

>  <atom.prop.CHAIN_ID>  (2156) 
A A A A A A A A A A A Z Z Z Z Z Z Z Z Z Z Z Z Z Z Z

>  <atom.prop.IS_HEAVY_ATOM>  (2156) 
1 0 0 0 1 0 0 1 0 0 0 1 0 0 0 1 1 0 1 0 1 0 1 0 1 0

>  <DIFUSE_FUNC_ATOM>  (2156) 
n/a

>  <FINAL_SINGLE_POINT_ENERGY>  (2156) 
0

>  <NONCOV_INTER_ENERGY_QM>  (2156) 
0

>  <FF_Energy>  (2156) 
-5.68

>  <QM_Energy>  (2156) 
-10.97

>  <source>  (2156) 
ETAM_MBZ

>  <Index>  (2156) 
22319

$$$$
ETAM-pdb4j75-B-LYS-422:MBZ-pdb4j75-B-PHE-350
     RDKit          3D

 26 25  0  0  0  0  0  0  0  0999 V2000
    0.6949    0.2099    4.1285 C   0  0  0  0  0  0  0  0  0  0  0  0
    0.5749    1.1881    4.3649 H   0  0  0  0  0  0  0  0  0  0  0  0
    1.0186   -0.2659    4.9635 H   0  0  0  0  0  0  0  0  0  0  0  0
   -0.2831   -0.1950    3.8685 H   0  0  0  0  0  0  0  0  0  0  0  0
    1.7660    0.0991    3.0640 C   0  0  0  0  0  0  0  0  0  0  0  0
    1.9256   -0.8627    2.8543 H   0  0  0  0  0  0  0  0  0  0  0  0
    1.4685    0.5801    2.2433 H   0  0  0  0  0  0  0  0  0  0  0  0
    3.0482    0.7110    3.5467 N   0  0  0  0  0  4  0  0  0  0  0  0
    3.7300   -0.0082    3.6595 H   0  0  0  0  0  0  0  0  0  0  0  0
    3.3650    1.3764    2.8742 H   0  0  0  0  0  0  0  0  0  0  0  0
    2.8847    1.1631    4.4202 H   0  0  0  0  0  0  0  0  0  0  0  0
   -0.0099    2.9320    0.0014 C   0  0  0  0  0  0  0  0  0  0  0  0
   -0.6055    3.2305   -0.7249 H   0  0  0  0  0  0  0  0  0  0  0  0
    0.9175    3.2362   -0.1371 H   0  0  0  0  0  0  0  0  0  0  0  0
   -0.3699    3.3737    0.9305 H   0  0  0  0  0  0  0  0  0  0  0  0
   -0.0037    1.4094    0.0006 C   0  0  0  0  0  0  0  0  0  0  0  0
   -1.1928    0.6853    0.0012 C   0  0  0  0  0  0  0  0  0  0  0  0
   -2.0663    1.1771    0.0013 H   0  0  0  0  0  0  0  0  0  0  0  0
   -1.2002   -0.7003   -0.0000 C   0  0  0  0  0  0  0  0  0  0  0  0
   -2.0785   -1.1929   -0.0016 H   0  0  0  0  0  0  0  0  0  0  0  0
   -0.0033   -1.3956    0.0029 C   0  0  0  0  0  0  0  0  0  0  0  0
   -0.0033   -2.3934    0.0064 H   0  0  0  0  0  0  0  0  0  0  0  0
    1.2002   -0.6959   -0.0000 C   0  0  0  0  0  0  0  0  0  0  0  0
    2.0816   -1.1953    0.0023 H   0  0  0  0  0  0  0  0  0  0  0  0
    1.1998    0.6972   -0.0048 C   0  0  0  0  0  0  0  0  0  0  0  0
    2.0650    1.1931   -0.0128 H   0  0  0  0  0  0  0  0  0  0  0  0
  1  5  1  0
  5  8  1  0
  1  2  1  0
  1  3  1  0
  1  4  1  0
  5  6  1  0
  5  7  1  0
  8  9  1  0
  8 10  1  0
  8 11  1  0
 12 16  1  0
 16 17  2  0
 17 19  1  0
 19 21  2  0
 21 23  1  0
 23 25  2  0
 25 16  1  0
 12 13  1  0
 12 14  1  0
 12 15  1  0
 17 18  1  0
 19 20  1  0
 21 22  1  0
 23 24  1  0
 25 26  1  0
M  CHG  1   8   1
M  END
>  <PDB_ID>  (2157) 
pdb4j75

>  <RESIDUE_NAME>  (2157) 
LYS   PHE

>  <FRAG_NAME>  (2157) 
ETAM   MBZ

>  <FRAG_ATOM_NUM>  (2157) 
fragi: 11  fragj: 15

>  <atom.prop.CHAIN_ID>  (2157) 
A A A A A A A A A A A Z Z Z Z Z Z Z Z Z Z Z Z Z Z Z

>  <atom.prop.IS_HEAVY_ATOM>  (2157) 
1 0 0 0 1 0 0 1 0 0 0 1 0 0 0 1 1 0 1 0 1 0 1 0 1 0

>  <DIFUSE_FUNC_ATOM>  (2157) 
n/a

>  <FINAL_SINGLE_POINT_ENERGY>  (2157) 
0

>  <NONCOV_INTER_ENERGY_QM>  (2157) 
0

>  <FF_Energy>  (2157) 
1.01

>  <QM_Energy>  (2157) 
-5.62

>  <source>  (2157) 
ETAM_MBZ

>  <Index>  (2157) 
22322

$$$$
ETAM-pdb4j4l-D-LYS-27:MBZ-pdb4j4l-B-PHE-177
     RDKit          3D

 26 25  0  0  0  0  0  0  0  0999 V2000
   -2.5675    0.1732   -4.0902 C   0  0  0  0  0  0  0  0  0  0  0  0
   -1.7305   -0.1837   -4.4932 H   0  0  0  0  0  0  0  0  0  0  0  0
   -3.2665    0.2880   -4.7882 H   0  0  0  0  0  0  0  0  0  0  0  0
   -2.9287   -0.5430   -3.3521 H   0  0  0  0  0  0  0  0  0  0  0  0
   -2.2808    1.5051   -3.4559 C   0  0  0  0  0  0  0  0  0  0  0  0
   -2.5999    2.2385   -4.0742 H   0  0  0  0  0  0  0  0  0  0  0  0
   -2.8057    1.5788   -2.5951 H   0  0  0  0  0  0  0  0  0  0  0  0
   -0.8537    1.6967   -3.1721 N   0  0  0  0  0  4  0  0  0  0  0  0
   -0.6730    2.6609   -2.9627 H   0  0  0  0  0  0  0  0  0  0  0  0
   -0.5830    1.1353   -2.3864 H   0  0  0  0  0  0  0  0  0  0  0  0
   -0.3078    1.4281   -3.9691 H   0  0  0  0  0  0  0  0  0  0  0  0
   -0.0298    2.9043   -0.0604 C   0  0  0  0  0  0  0  0  0  0  0  0
   -0.9636    3.1822   -0.2416 H   0  0  0  0  0  0  0  0  0  0  0  0
    0.5723    3.1893   -0.7955 H   0  0  0  0  0  0  0  0  0  0  0  0
    0.2974    3.4004    0.8534 H   0  0  0  0  0  0  0  0  0  0  0  0
   -0.0018    1.3970   -0.0008 C   0  0  0  0  0  0  0  0  0  0  0  0
   -1.1866    0.6737   -0.0002 C   0  0  0  0  0  0  0  0  0  0  0  0
   -2.0620    1.1648   -0.0010 H   0  0  0  0  0  0  0  0  0  0  0  0
   -1.1920   -0.7085   -0.0000 C   0  0  0  0  0  0  0  0  0  0  0  0
   -2.0680   -1.2042   -0.0019 H   0  0  0  0  0  0  0  0  0  0  0  0
    0.0049   -1.3928    0.0052 C   0  0  0  0  0  0  0  0  0  0  0  0
    0.0142   -2.3901    0.0121 H   0  0  0  0  0  0  0  0  0  0  0  0
    1.1920   -0.6806    0.0000 C   0  0  0  0  0  0  0  0  0  0  0  0
    2.0836   -1.1713    0.0008 H   0  0  0  0  0  0  0  0  0  0  0  0
    1.1835    0.7112   -0.0042 C   0  0  0  0  0  0  0  0  0  0  0  0
    2.0546    1.2038   -0.0105 H   0  0  0  0  0  0  0  0  0  0  0  0
  1  5  1  0
  5  8  1  0
  1  2  1  0
  1  3  1  0
  1  4  1  0
  5  6  1  0
  5  7  1  0
  8  9  1  0
  8 10  1  0
  8 11  1  0
 12 16  1  0
 16 17  2  0
 17 19  1  0
 19 21  2  0
 21 23  1  0
 23 25  2  0
 25 16  1  0
 12 13  1  0
 12 14  1  0
 12 15  1  0
 17 18  1  0
 19 20  1  0
 21 22  1  0
 23 24  1  0
 25 26  1  0
M  CHG  1   8   1
M  END
>  <PDB_ID>  (2158) 
pdb4j4l

>  <RESIDUE_NAME>  (2158) 
LYS   PHE

>  <FRAG_NAME>  (2158) 
ETAM   MBZ

>  <FRAG_ATOM_NUM>  (2158) 
fragi: 11  fragj: 15

>  <atom.prop.CHAIN_ID>  (2158) 
A A A A A A A A A A A Z Z Z Z Z Z Z Z Z Z Z Z Z Z Z

>  <atom.prop.IS_HEAVY_ATOM>  (2158) 
1 0 0 0 1 0 0 1 0 0 0 1 0 0 0 1 1 0 1 0 1 0 1 0 1 0

>  <DIFUSE_FUNC_ATOM>  (2158) 
n/a

>  <FINAL_SINGLE_POINT_ENERGY>  (2158) 
0

>  <NONCOV_INTER_ENERGY_QM>  (2158) 
0

>  <FF_Energy>  (2158) 
-7.33

>  <QM_Energy>  (2158) 
-13.46

>  <source>  (2158) 
ETAM_MBZ

>  <Index>  (2158) 
22325

$$$$
ETAM-pdb4j7z-F-LYS-62:MBZ-pdb4j7z-F-PHE-85
     RDKit          3D

 26 25  0  0  0  0  0  0  0  0999 V2000
    1.7956   -1.9190    2.8417 C   0  0  0  0  0  0  0  0  0  0  0  0
    2.7753   -1.7068    2.8822 H   0  0  0  0  0  0  0  0  0  0  0  0
    1.5392   -2.0994    1.8891 H   0  0  0  0  0  0  0  0  0  0  0  0
    1.5973   -2.8073    3.4416 H   0  0  0  0  0  0  0  0  0  0  0  0
    1.0249   -0.6945    3.3156 C   0  0  0  0  0  0  0  0  0  0  0  0
    0.6676   -0.2041    2.5166 H   0  0  0  0  0  0  0  0  0  0  0  0
    0.2532   -0.9931    3.8841 H   0  0  0  0  0  0  0  0  0  0  0  0
    1.8832    0.2386    4.1143 N   0  0  0  0  0  4  0  0  0  0  0  0
    2.1250   -0.1984    4.9784 H   0  0  0  0  0  0  0  0  0  0  0  0
    2.7110    0.4449    3.5957 H   0  0  0  0  0  0  0  0  0  0  0  0
    1.3753    1.0796    4.2902 H   0  0  0  0  0  0  0  0  0  0  0  0
   -0.0022    2.8279   -0.0326 C   0  0  0  0  0  0  0  0  0  0  0  0
   -0.8944    3.1303   -0.3507 H   0  0  0  0  0  0  0  0  0  0  0  0
    0.7068    3.1196   -0.6668 H   0  0  0  0  0  0  0  0  0  0  0  0
    0.1916    3.2915    0.9347 H   0  0  0  0  0  0  0  0  0  0  0  0
   -0.0047    1.3508    0.0042 C   0  0  0  0  0  0  0  0  0  0  0  0
   -1.1752    0.6564   -0.0059 C   0  0  0  0  0  0  0  0  0  0  0  0
   -2.0467    1.1633   -0.0189 H   0  0  0  0  0  0  0  0  0  0  0  0
   -1.1689   -0.6699    0.0000 C   0  0  0  0  0  0  0  0  0  0  0  0
   -2.0468   -1.1925    0.0021 H   0  0  0  0  0  0  0  0  0  0  0  0
    0.0109   -1.3357    0.0049 C   0  0  0  0  0  0  0  0  0  0  0  0
    0.0076   -2.3512    0.0122 H   0  0  0  0  0  0  0  0  0  0  0  0
    1.1689   -0.6594   -0.0000 C   0  0  0  0  0  0  0  0  0  0  0  0
    2.0634   -1.1796   -0.0001 H   0  0  0  0  0  0  0  0  0  0  0  0
    1.1690    0.6578   -0.0032 C   0  0  0  0  0  0  0  0  0  0  0  0
    2.0397    1.1799   -0.0123 H   0  0  0  0  0  0  0  0  0  0  0  0
  1  5  1  0
  5  8  1  0
  1  2  1  0
  1  3  1  0
  1  4  1  0
  5  6  1  0
  5  7  1  0
  8  9  1  0
  8 10  1  0
  8 11  1  0
 12 16  1  0
 16 17  2  0
 17 19  1  0
 19 21  2  0
 21 23  1  0
 23 25  2  0
 25 16  1  0
 12 13  1  0
 12 14  1  0
 12 15  1  0
 17 18  1  0
 19 20  1  0
 21 22  1  0
 23 24  1  0
 25 26  1  0
M  CHG  1   8   1
M  END
>  <PDB_ID>  (2159) 
pdb4j7z

>  <RESIDUE_NAME>  (2159) 
LYS   PHE

>  <FRAG_NAME>  (2159) 
ETAM   MBZ

>  <FRAG_ATOM_NUM>  (2159) 
fragi: 11  fragj: 15

>  <atom.prop.CHAIN_ID>  (2159) 
A A A A A A A A A A A Z Z Z Z Z Z Z Z Z Z Z Z Z Z Z

>  <atom.prop.IS_HEAVY_ATOM>  (2159) 
1 0 0 0 1 0 0 1 0 0 0 1 0 0 0 1 1 0 1 0 1 0 1 0 1 0

>  <DIFUSE_FUNC_ATOM>  (2159) 
n/a

>  <FINAL_SINGLE_POINT_ENERGY>  (2159) 
0

>  <NONCOV_INTER_ENERGY_QM>  (2159) 
0

>  <FF_Energy>  (2159) 
-1.04

>  <QM_Energy>  (2159) 
-7.14

>  <source>  (2159) 
ETAM_MBZ

>  <Index>  (2159) 
22329

$$$$
ETAM-pdb4j81-D-LYS-1:MBZ-pdb4j81-A-PHE-142
     RDKit          3D

 26 25  0  0  0  0  0  0  0  0999 V2000
    2.3616   -3.4397    3.1897 C   0  0  0  0  0  0  0  0  0  0  0  0
    3.0442   -4.0271    3.6227 H   0  0  0  0  0  0  0  0  0  0  0  0
    2.5650   -2.4828    3.3906 H   0  0  0  0  0  0  0  0  0  0  0  0
    2.4057   -3.5886    2.1108 H   0  0  0  0  0  0  0  0  0  0  0  0
    0.9975   -3.7759    3.7666 C   0  0  0  0  0  0  0  0  0  0  0  0
    0.7187   -4.6790    3.4358 H   0  0  0  0  0  0  0  0  0  0  0  0
    1.0628   -3.7969    4.7655 H   0  0  0  0  0  0  0  0  0  0  0  0
   -0.0199   -2.7703    3.3637 N   0  0  0  0  0  4  0  0  0  0  0  0
    0.1535   -2.4799    2.4227 H   0  0  0  0  0  0  0  0  0  0  0  0
   -0.9314   -3.1764    3.4252 H   0  0  0  0  0  0  0  0  0  0  0  0
    0.0348   -1.9789    3.9728 H   0  0  0  0  0  0  0  0  0  0  0  0
    0.0304    2.9098    0.0155 C   0  0  0  0  0  0  0  0  0  0  0  0
    0.7001    3.2084   -0.6538 H   0  0  0  0  0  0  0  0  0  0  0  0
    0.2958    3.1971    0.9280 H   0  0  0  0  0  0  0  0  0  0  0  0
   -0.9165    3.3938   -0.2233 H   0  0  0  0  0  0  0  0  0  0  0  0
   -0.0007    1.4008   -0.0029 C   0  0  0  0  0  0  0  0  0  0  0  0
   -1.1906    0.6962    0.0078 C   0  0  0  0  0  0  0  0  0  0  0  0
   -2.0601    1.1844    0.0202 H   0  0  0  0  0  0  0  0  0  0  0  0
   -1.1952   -0.6942   -0.0000 C   0  0  0  0  0  0  0  0  0  0  0  0
   -2.0753   -1.1858   -0.0009 H   0  0  0  0  0  0  0  0  0  0  0  0
   -0.0003   -1.3909   -0.0052 C   0  0  0  0  0  0  0  0  0  0  0  0
   -0.0075   -2.3916   -0.0131 H   0  0  0  0  0  0  0  0  0  0  0  0
    1.1952   -0.7004    0.0000 C   0  0  0  0  0  0  0  0  0  0  0  0
    2.0781   -1.1968    0.0051 H   0  0  0  0  0  0  0  0  0  0  0  0
    1.1915    0.6885    0.0004 C   0  0  0  0  0  0  0  0  0  0  0  0
    2.0626    1.1839    0.0019 H   0  0  0  0  0  0  0  0  0  0  0  0
  1  5  1  0
  5  8  1  0
  1  2  1  0
  1  3  1  0
  1  4  1  0
  5  6  1  0
  5  7  1  0
  8  9  1  0
  8 10  1  0
  8 11  1  0
 12 16  1  0
 16 17  2  0
 17 19  1  0
 19 21  2  0
 21 23  1  0
 23 25  2  0
 25 16  1  0
 12 13  1  0
 12 14  1  0
 12 15  1  0
 17 18  1  0
 19 20  1  0
 21 22  1  0
 23 24  1  0
 25 26  1  0
M  CHG  1   8   1
M  END
>  <PDB_ID>  (2160) 
pdb4j81

>  <RESIDUE_NAME>  (2160) 
LYS   PHE

>  <FRAG_NAME>  (2160) 
ETAM   MBZ

>  <FRAG_ATOM_NUM>  (2160) 
fragi: 11  fragj: 15

>  <atom.prop.CHAIN_ID>  (2160) 
A A A A A A A A A A A Z Z Z Z Z Z Z Z Z Z Z Z Z Z Z

>  <atom.prop.IS_HEAVY_ATOM>  (2160) 
1 0 0 0 1 0 0 1 0 0 0 1 0 0 0 1 1 0 1 0 1 0 1 0 1 0

>  <DIFUSE_FUNC_ATOM>  (2160) 
n/a

>  <FINAL_SINGLE_POINT_ENERGY>  (2160) 
0

>  <NONCOV_INTER_ENERGY_QM>  (2160) 
0

>  <FF_Energy>  (2160) 
-3.38

>  <QM_Energy>  (2160) 
-9.25

>  <source>  (2160) 
ETAM_MBZ

>  <Index>  (2160) 
22331

$$$$
ETAM-pdb3mc1-A-LYS-109:MBZ-pdb3mc1-A-PHE-75
     RDKit          3D

 26 25  0  0  0  0  0  0  0  0999 V2000
    1.7798   -5.0209   -2.6208 C   0  0  0  0  0  0  0  0  0  0  0  0
    1.2529   -5.7969   -2.9515 H   0  0  0  0  0  0  0  0  0  0  0  0
    2.4870   -5.3251   -1.9912 H   0  0  0  0  0  0  0  0  0  0  0  0
    2.2435   -4.5133   -3.4666 H   0  0  0  0  0  0  0  0  0  0  0  0
    0.8404   -4.0874   -1.8724 C   0  0  0  0  0  0  0  0  0  0  0  0
    0.4663   -4.5680   -1.0815 H   0  0  0  0  0  0  0  0  0  0  0  0
    1.3530   -3.2863   -1.5677 H   0  0  0  0  0  0  0  0  0  0  0  0
   -0.2776   -3.6486   -2.7538 N   0  0  0  0  0  4  0  0  0  0  0  0
   -0.8795   -4.4253   -2.9360 H   0  0  0  0  0  0  0  0  0  0  0  0
   -0.7937   -2.9247   -2.2983 H   0  0  0  0  0  0  0  0  0  0  0  0
    0.0954   -3.3042   -3.6146 H   0  0  0  0  0  0  0  0  0  0  0  0
   -0.0143    2.9019    0.0505 C   0  0  0  0  0  0  0  0  0  0  0  0
   -0.7582    3.2221   -0.5135 H   0  0  0  0  0  0  0  0  0  0  0  0
    0.8582    3.2269   -0.2787 H   0  0  0  0  0  0  0  0  0  0  0  0
   -0.1616    3.2973    1.0555 H   0  0  0  0  0  0  0  0  0  0  0  0
   -0.0026    1.4027    0.0000 C   0  0  0  0  0  0  0  0  0  0  0  0
   -1.1968    0.6979   -0.0007 C   0  0  0  0  0  0  0  0  0  0  0  0
   -2.0648    1.1859   -0.0035 H   0  0  0  0  0  0  0  0  0  0  0  0
   -1.2028   -0.6967   -0.0000 C   0  0  0  0  0  0  0  0  0  0  0  0
   -2.0794   -1.1881    0.0008 H   0  0  0  0  0  0  0  0  0  0  0  0
   -0.0001   -1.3953    0.0011 C   0  0  0  0  0  0  0  0  0  0  0  0
   -0.0078   -2.3949    0.0021 H   0  0  0  0  0  0  0  0  0  0  0  0
    1.2028   -0.7046    0.0000 C   0  0  0  0  0  0  0  0  0  0  0  0
    2.0833   -1.1985    0.0008 H   0  0  0  0  0  0  0  0  0  0  0  0
    1.1995    0.6959   -0.0004 C   0  0  0  0  0  0  0  0  0  0  0  0
    2.0650    1.1891   -0.0019 H   0  0  0  0  0  0  0  0  0  0  0  0
  1  5  1  0
  5  8  1  0
  1  2  1  0
  1  3  1  0
  1  4  1  0
  5  6  1  0
  5  7  1  0
  8  9  1  0
  8 10  1  0
  8 11  1  0
 12 16  1  0
 16 17  2  0
 17 19  1  0
 19 21  2  0
 21 23  1  0
 23 25  2  0
 25 16  1  0
 12 13  1  0
 12 14  1  0
 12 15  1  0
 17 18  1  0
 19 20  1  0
 21 22  1  0
 23 24  1  0
 25 26  1  0
M  CHG  1   8   1
M  END
>  <PDB_ID>  (2161) 
pdb3mc1

>  <RESIDUE_NAME>  (2161) 
LYS   PHE

>  <FRAG_NAME>  (2161) 
ETAM   MBZ

>  <FRAG_ATOM_NUM>  (2161) 
fragi: 11  fragj: 15

>  <atom.prop.CHAIN_ID>  (2161) 
A A A A A A A A A A A Z Z Z Z Z Z Z Z Z Z Z Z Z Z Z

>  <atom.prop.IS_HEAVY_ATOM>  (2161) 
1 0 0 0 1 0 0 1 0 0 0 1 0 0 0 1 1 0 1 0 1 0 1 0 1 0

>  <DIFUSE_FUNC_ATOM>  (2161) 
n/a

>  <FINAL_SINGLE_POINT_ENERGY>  (2161) 
0

>  <NONCOV_INTER_ENERGY_QM>  (2161) 
0

>  <FF_Energy>  (2161) 
-0.89

>  <QM_Energy>  (2161) 
-6.97

>  <source>  (2161) 
ETAM_MBZ

>  <Index>  (2161) 
22345

$$$$
ETAM-pdb3mc2-A-LYS-596:MBZ-pdb3mc2-A-PHE-599
     RDKit          3D

 26 25  0  0  0  0  0  0  0  0999 V2000
    3.5173    2.3148   -2.1071 C   0  0  0  0  0  0  0  0  0  0  0  0
    3.8684    1.7649   -1.3577 H   0  0  0  0  0  0  0  0  0  0  0  0
    2.6326    2.7017   -1.8721 H   0  0  0  0  0  0  0  0  0  0  0  0
    4.2151    3.1308   -2.2952 H   0  0  0  0  0  0  0  0  0  0  0  0
    3.3491    1.4201   -3.3334 C   0  0  0  0  0  0  0  0  0  0  0  0
    2.8492    1.9378   -4.0400 H   0  0  0  0  0  0  0  0  0  0  0  0
    4.2643    1.2004   -3.6965 H   0  0  0  0  0  0  0  0  0  0  0  0
    2.6246    0.1662   -3.0370 N   0  0  0  0  0  4  0  0  0  0  0  0
    2.1393   -0.1435   -3.8558 H   0  0  0  0  0  0  0  0  0  0  0  0
    3.2755   -0.5396   -2.7515 H   0  0  0  0  0  0  0  0  0  0  0  0
    1.9641    0.3248   -2.3012 H   0  0  0  0  0  0  0  0  0  0  0  0
   -0.0105    2.9212    0.0803 C   0  0  0  0  0  0  0  0  0  0  0  0
   -0.5487    3.2581   -0.6728 H   0  0  0  0  0  0  0  0  0  0  0  0
    0.9239    3.2309    0.0327 H   0  0  0  0  0  0  0  0  0  0  0  0
   -0.4458    3.3036    1.0036 H   0  0  0  0  0  0  0  0  0  0  0  0
   -0.0010    1.4070    0.0011 C   0  0  0  0  0  0  0  0  0  0  0  0
   -1.1984    0.6898   -0.0009 C   0  0  0  0  0  0  0  0  0  0  0  0
   -2.0663    1.1791   -0.0045 H   0  0  0  0  0  0  0  0  0  0  0  0
   -1.1995   -0.7004    0.0000 C   0  0  0  0  0  0  0  0  0  0  0  0
   -2.0769   -1.1951   -0.0000 H   0  0  0  0  0  0  0  0  0  0  0  0
   -0.0011   -1.3900    0.0025 C   0  0  0  0  0  0  0  0  0  0  0  0
   -0.0046   -2.3935    0.0056 H   0  0  0  0  0  0  0  0  0  0  0  0
    1.1995   -0.7010    0.0000 C   0  0  0  0  0  0  0  0  0  0  0  0
    2.0801   -1.1981    0.0013 H   0  0  0  0  0  0  0  0  0  0  0  0
    1.2005    0.6947   -0.0026 C   0  0  0  0  0  0  0  0  0  0  0  0
    2.0669    1.1878   -0.0081 H   0  0  0  0  0  0  0  0  0  0  0  0
  1  5  1  0
  5  8  1  0
  1  2  1  0
  1  3  1  0
  1  4  1  0
  5  6  1  0
  5  7  1  0
  8  9  1  0
  8 10  1  0
  8 11  1  0
 12 16  1  0
 16 17  2  0
 17 19  1  0
 19 21  2  0
 21 23  1  0
 23 25  2  0
 25 16  1  0
 12 13  1  0
 12 14  1  0
 12 15  1  0
 17 18  1  0
 19 20  1  0
 21 22  1  0
 23 24  1  0
 25 26  1  0
M  CHG  1   8   1
M  END
>  <PDB_ID>  (2162) 
pdb3mc2

>  <RESIDUE_NAME>  (2162) 
LYS   PHE

>  <FRAG_NAME>  (2162) 
ETAM   MBZ

>  <FRAG_ATOM_NUM>  (2162) 
fragi: 11  fragj: 15

>  <atom.prop.CHAIN_ID>  (2162) 
A A A A A A A A A A A Z Z Z Z Z Z Z Z Z Z Z Z Z Z Z

>  <atom.prop.IS_HEAVY_ATOM>  (2162) 
1 0 0 0 1 0 0 1 0 0 0 1 0 0 0 1 1 0 1 0 1 0 1 0 1 0

>  <DIFUSE_FUNC_ATOM>  (2162) 
n/a

>  <FINAL_SINGLE_POINT_ENERGY>  (2162) 
0

>  <NONCOV_INTER_ENERGY_QM>  (2162) 
0

>  <FF_Energy>  (2162) 
-4.65

>  <QM_Energy>  (2162) 
-11.09

>  <source>  (2162) 
ETAM_MBZ

>  <Index>  (2162) 
22353

$$$$
ETAM-pdb3mc1-B-LYS-109:MBZ-pdb3mc1-B-PHE-75
     RDKit          3D

 26 25  0  0  0  0  0  0  0  0999 V2000
    1.5580   -5.4265   -2.5544 C   0  0  0  0  0  0  0  0  0  0  0  0
    0.9670   -6.1946   -2.7891 H   0  0  0  0  0  0  0  0  0  0  0  0
    2.3958   -5.7593   -2.1281 H   0  0  0  0  0  0  0  0  0  0  0  0
    1.8199   -4.8968   -3.4703 H   0  0  0  0  0  0  0  0  0  0  0  0
    0.8342   -4.5331   -1.5777 C   0  0  0  0  0  0  0  0  0  0  0  0
    0.6654   -5.0331   -0.7321 H   0  0  0  0  0  0  0  0  0  0  0  0
    1.3892   -3.7265   -1.3900 H   0  0  0  0  0  0  0  0  0  0  0  0
   -0.4757   -4.0973   -2.1538 N   0  0  0  0  0  4  0  0  0  0  0  0
   -0.5636   -4.4593   -3.0795 H   0  0  0  0  0  0  0  0  0  0  0  0
   -1.2171   -4.4464   -1.5831 H   0  0  0  0  0  0  0  0  0  0  0  0
   -0.5075   -3.0993   -2.1767 H   0  0  0  0  0  0  0  0  0  0  0  0
   -0.0034    2.9133    0.0200 C   0  0  0  0  0  0  0  0  0  0  0  0
   -0.6302    3.2268   -0.6756 H   0  0  0  0  0  0  0  0  0  0  0  0
    0.9180    3.2227   -0.1565 H   0  0  0  0  0  0  0  0  0  0  0  0
   -0.3218    3.3373    0.9724 H   0  0  0  0  0  0  0  0  0  0  0  0
   -0.0002    1.4076   -0.0001 C   0  0  0  0  0  0  0  0  0  0  0  0
   -1.1982    0.6974   -0.0001 C   0  0  0  0  0  0  0  0  0  0  0  0
   -2.0647    1.1872   -0.0019 H   0  0  0  0  0  0  0  0  0  0  0  0
   -1.2055   -0.6978    0.0000 C   0  0  0  0  0  0  0  0  0  0  0  0
   -2.0824   -1.1890    0.0014 H   0  0  0  0  0  0  0  0  0  0  0  0
   -0.0016   -1.4011    0.0004 C   0  0  0  0  0  0  0  0  0  0  0  0
   -0.0076   -2.3966    0.0001 H   0  0  0  0  0  0  0  0  0  0  0  0
    1.2055   -0.7023   -0.0000 C   0  0  0  0  0  0  0  0  0  0  0  0
    2.0846   -1.1977    0.0014 H   0  0  0  0  0  0  0  0  0  0  0  0
    1.1999    0.6962   -0.0002 C   0  0  0  0  0  0  0  0  0  0  0  0
    2.0674    1.1912   -0.0009 H   0  0  0  0  0  0  0  0  0  0  0  0
  1  5  1  0
  5  8  1  0
  1  2  1  0
  1  3  1  0
  1  4  1  0
  5  6  1  0
  5  7  1  0
  8  9  1  0
  8 10  1  0
  8 11  1  0
 12 16  1  0
 16 17  2  0
 17 19  1  0
 19 21  2  0
 21 23  1  0
 23 25  2  0
 25 16  1  0
 12 13  1  0
 12 14  1  0
 12 15  1  0
 17 18  1  0
 19 20  1  0
 21 22  1  0
 23 24  1  0
 25 26  1  0
M  CHG  1   8   1
M  END
>  <PDB_ID>  (2163) 
pdb3mc1

>  <RESIDUE_NAME>  (2163) 
LYS   PHE

>  <FRAG_NAME>  (2163) 
ETAM   MBZ

>  <FRAG_ATOM_NUM>  (2163) 
fragi: 11  fragj: 15

>  <atom.prop.CHAIN_ID>  (2163) 
A A A A A A A A A A A Z Z Z Z Z Z Z Z Z Z Z Z Z Z Z

>  <atom.prop.IS_HEAVY_ATOM>  (2163) 
1 0 0 0 1 0 0 1 0 0 0 1 0 0 0 1 1 0 1 0 1 0 1 0 1 0

>  <DIFUSE_FUNC_ATOM>  (2163) 
n/a

>  <FINAL_SINGLE_POINT_ENERGY>  (2163) 
0

>  <NONCOV_INTER_ENERGY_QM>  (2163) 
0

>  <FF_Energy>  (2163) 
-0.37

>  <QM_Energy>  (2163) 
-6.61

>  <source>  (2163) 
ETAM_MBZ

>  <Index>  (2163) 
22372

$$$$
ETAM-pdb4jc2-C-LYS-178:MBZ-pdb4jc2-C-PHE-152
     RDKit          3D

 26 25  0  0  0  0  0  0  0  0999 V2000
    0.3113    0.8033   -4.6696 C   0  0  0  0  0  0  0  0  0  0  0  0
    0.1575    0.9949   -5.6538 H   0  0  0  0  0  0  0  0  0  0  0  0
    1.2593    1.0894   -4.4516 H   0  0  0  0  0  0  0  0  0  0  0  0
   -0.3775    1.4153   -4.0872 H   0  0  0  0  0  0  0  0  0  0  0  0
    0.1940   -0.6735   -4.4457 C   0  0  0  0  0  0  0  0  0  0  0  0
   -0.7246   -0.8822   -4.1147 H   0  0  0  0  0  0  0  0  0  0  0  0
    0.3571   -1.1500   -5.3076 H   0  0  0  0  0  0  0  0  0  0  0  0
    1.1816   -1.0860   -3.4580 N   0  0  0  0  0  4  0  0  0  0  0  0
    1.8724   -1.6789   -3.8835 H   0  0  0  0  0  0  0  0  0  0  0  0
    1.6419   -0.2820   -3.0699 H   0  0  0  0  0  0  0  0  0  0  0  0
    0.7368   -1.5935   -2.7130 H   0  0  0  0  0  0  0  0  0  0  0  0
    0.0147    2.8624   -0.0223 C   0  0  0  0  0  0  0  0  0  0  0  0
   -0.7611    3.1854   -0.5555 H   0  0  0  0  0  0  0  0  0  0  0  0
    0.8671    3.1684   -0.4365 H   0  0  0  0  0  0  0  0  0  0  0  0
   -0.0522    3.3251    0.9623 H   0  0  0  0  0  0  0  0  0  0  0  0
   -0.0021    1.3931   -0.0073 C   0  0  0  0  0  0  0  0  0  0  0  0
   -1.1949    0.6969   -0.0236 C   0  0  0  0  0  0  0  0  0  0  0  0
   -2.0607    1.1837   -0.0535 H   0  0  0  0  0  0  0  0  0  0  0  0
   -1.1960   -0.6932    0.0000 C   0  0  0  0  0  0  0  0  0  0  0  0
   -2.0690   -1.1910   -0.0094 H   0  0  0  0  0  0  0  0  0  0  0  0
    0.0095   -1.3836    0.0380 C   0  0  0  0  0  0  0  0  0  0  0  0
   -0.0003   -2.3848    0.0923 H   0  0  0  0  0  0  0  0  0  0  0  0
    1.1960   -0.6962   -0.0000 C   0  0  0  0  0  0  0  0  0  0  0  0
    2.0820   -1.1926   -0.0216 H   0  0  0  0  0  0  0  0  0  0  0  0
    1.1875    0.6830   -0.0070 C   0  0  0  0  0  0  0  0  0  0  0  0
    2.0594    1.1842   -0.0125 H   0  0  0  0  0  0  0  0  0  0  0  0
  1  5  1  0
  5  8  1  0
  1  2  1  0
  1  3  1  0
  1  4  1  0
  5  6  1  0
  5  7  1  0
  8  9  1  0
  8 10  1  0
  8 11  1  0
 12 16  1  0
 16 17  2  0
 17 19  1  0
 19 21  2  0
 21 23  1  0
 23 25  2  0
 25 16  1  0
 12 13  1  0
 12 14  1  0
 12 15  1  0
 17 18  1  0
 19 20  1  0
 21 22  1  0
 23 24  1  0
 25 26  1  0
M  CHG  1   8   1
M  END
>  <PDB_ID>  (2164) 
pdb4jc2

>  <RESIDUE_NAME>  (2164) 
LYS   PHE

>  <FRAG_NAME>  (2164) 
ETAM   MBZ

>  <FRAG_ATOM_NUM>  (2164) 
fragi: 11  fragj: 15

>  <atom.prop.CHAIN_ID>  (2164) 
A A A A A A A A A A A Z Z Z Z Z Z Z Z Z Z Z Z Z Z Z

>  <atom.prop.IS_HEAVY_ATOM>  (2164) 
1 0 0 0 1 0 0 1 0 0 0 1 0 0 0 1 1 0 1 0 1 0 1 0 1 0

>  <DIFUSE_FUNC_ATOM>  (2164) 
n/a

>  <FINAL_SINGLE_POINT_ENERGY>  (2164) 
0

>  <NONCOV_INTER_ENERGY_QM>  (2164) 
0

>  <FF_Energy>  (2164) 
-6.15

>  <QM_Energy>  (2164) 
-12.2

>  <source>  (2164) 
ETAM_MBZ

>  <Index>  (2164) 
22383

$$$$
ETAM-pdb4jjm-B-LYS-97:MBZ-pdb4jjm-B-PHE-25
     RDKit          3D

 26 25  0  0  0  0  0  0  0  0999 V2000
    2.8210   -0.0350    3.7467 C   0  0  0  0  0  0  0  0  0  0  0  0
    2.9300   -0.9526    3.3849 H   0  0  0  0  0  0  0  0  0  0  0  0
    3.0621   -0.0055    4.7087 H   0  0  0  0  0  0  0  0  0  0  0  0
    3.4708    0.6443    3.1952 H   0  0  0  0  0  0  0  0  0  0  0  0
    1.3649    0.3742    3.5995 C   0  0  0  0  0  0  0  0  0  0  0  0
    1.1239    0.9949    4.3479 H   0  0  0  0  0  0  0  0  0  0  0  0
    1.2475    0.8512    2.7258 H   0  0  0  0  0  0  0  0  0  0  0  0
    0.4639   -0.8084    3.6359 N   0  0  0  0  0  4  0  0  0  0  0  0
    0.9964   -1.6369    3.4619 H   0  0  0  0  0  0  0  0  0  0  0  0
    0.0335   -0.8696    4.5363 H   0  0  0  0  0  0  0  0  0  0  0  0
   -0.2411   -0.7103    2.9338 H   0  0  0  0  0  0  0  0  0  0  0  0
   -0.0077    2.8981   -0.0113 C   0  0  0  0  0  0  0  0  0  0  0  0
    0.8327    3.2051   -0.4295 H   0  0  0  0  0  0  0  0  0  0  0  0
   -0.0853    3.2130    0.9217 H   0  0  0  0  0  0  0  0  0  0  0  0
   -0.8366    3.3242   -0.5766 H   0  0  0  0  0  0  0  0  0  0  0  0
   -0.0012    1.3972    0.0014 C   0  0  0  0  0  0  0  0  0  0  0  0
   -1.1942    0.6886   -0.0006 C   0  0  0  0  0  0  0  0  0  0  0  0
   -2.0621    1.1796   -0.0037 H   0  0  0  0  0  0  0  0  0  0  0  0
   -1.1973   -0.6962   -0.0000 C   0  0  0  0  0  0  0  0  0  0  0  0
   -2.0734   -1.1930    0.0006 H   0  0  0  0  0  0  0  0  0  0  0  0
    0.0020   -1.3885    0.0019 C   0  0  0  0  0  0  0  0  0  0  0  0
   -0.0006   -2.3885    0.0038 H   0  0  0  0  0  0  0  0  0  0  0  0
    1.1973   -0.6930    0.0000 C   0  0  0  0  0  0  0  0  0  0  0  0
    2.0805   -1.1916    0.0018 H   0  0  0  0  0  0  0  0  0  0  0  0
    1.1934    0.6919   -0.0027 C   0  0  0  0  0  0  0  0  0  0  0  0
    2.0620    1.1898   -0.0081 H   0  0  0  0  0  0  0  0  0  0  0  0
  1  5  1  0
  5  8  1  0
  1  2  1  0
  1  3  1  0
  1  4  1  0
  5  6  1  0
  5  7  1  0
  8  9  1  0
  8 10  1  0
  8 11  1  0
 12 16  1  0
 16 17  2  0
 17 19  1  0
 19 21  2  0
 21 23  1  0
 23 25  2  0
 25 16  1  0
 12 13  1  0
 12 14  1  0
 12 15  1  0
 17 18  1  0
 19 20  1  0
 21 22  1  0
 23 24  1  0
 25 26  1  0
M  CHG  1   8   1
M  END
>  <PDB_ID>  (2165) 
pdb4jjm

>  <RESIDUE_NAME>  (2165) 
LYS   PHE

>  <FRAG_NAME>  (2165) 
ETAM   MBZ

>  <FRAG_ATOM_NUM>  (2165) 
fragi: 11  fragj: 15

>  <atom.prop.CHAIN_ID>  (2165) 
A A A A A A A A A A A Z Z Z Z Z Z Z Z Z Z Z Z Z Z Z

>  <atom.prop.IS_HEAVY_ATOM>  (2165) 
1 0 0 0 1 0 0 1 0 0 0 1 0 0 0 1 1 0 1 0 1 0 1 0 1 0

>  <DIFUSE_FUNC_ATOM>  (2165) 
n/a

>  <FINAL_SINGLE_POINT_ENERGY>  (2165) 
0

>  <NONCOV_INTER_ENERGY_QM>  (2165) 
0

>  <FF_Energy>  (2165) 
-7.19

>  <QM_Energy>  (2165) 
-12.86

>  <source>  (2165) 
ETAM_MBZ

>  <Index>  (2165) 
22422

$$$$
ETAM-pdb3mgk-A-LYS-78:MBZ-pdb3mgk-A-PHE-84
     RDKit          3D

 26 25  0  0  0  0  0  0  0  0999 V2000
    1.6963    0.6799   -3.0569 C   0  0  0  0  0  0  0  0  0  0  0  0
    1.6790    0.9044   -2.0824 H   0  0  0  0  0  0  0  0  0  0  0  0
    1.9713    1.4868   -3.5797 H   0  0  0  0  0  0  0  0  0  0  0  0
    2.4353   -0.1051   -3.2173 H   0  0  0  0  0  0  0  0  0  0  0  0
    0.2981    0.2739   -3.4883 C   0  0  0  0  0  0  0  0  0  0  0  0
    0.0026   -0.5097   -2.9483 H   0  0  0  0  0  0  0  0  0  0  0  0
   -0.3243    1.0395   -3.3476 H   0  0  0  0  0  0  0  0  0  0  0  0
    0.2918   -0.1005   -4.9377 N   0  0  0  0  0  4  0  0  0  0  0  0
    0.1985   -1.0910   -5.0190 H   0  0  0  0  0  0  0  0  0  0  0  0
   -0.4766    0.3498   -5.3889 H   0  0  0  0  0  0  0  0  0  0  0  0
    1.1487    0.1936   -5.3555 H   0  0  0  0  0  0  0  0  0  0  0  0
   -0.0052    2.9043   -0.0070 C   0  0  0  0  0  0  0  0  0  0  0  0
   -0.3055    3.2044   -0.9003 H   0  0  0  0  0  0  0  0  0  0  0  0
    0.9136    3.2154    0.1865 H   0  0  0  0  0  0  0  0  0  0  0  0
   -0.6701    3.3477    0.7341 H   0  0  0  0  0  0  0  0  0  0  0  0
   -0.0004    1.4029    0.0022 C   0  0  0  0  0  0  0  0  0  0  0  0
   -1.1995    0.6907   -0.0043 C   0  0  0  0  0  0  0  0  0  0  0  0
   -2.0658    1.1819   -0.0128 H   0  0  0  0  0  0  0  0  0  0  0  0
   -1.2056   -0.7013    0.0000 C   0  0  0  0  0  0  0  0  0  0  0  0
   -2.0793   -1.1957    0.0037 H   0  0  0  0  0  0  0  0  0  0  0  0
    0.0000   -1.3965    0.0009 C   0  0  0  0  0  0  0  0  0  0  0  0
    0.0003   -2.3931    0.0018 H   0  0  0  0  0  0  0  0  0  0  0  0
    1.2056   -0.6933   -0.0000 C   0  0  0  0  0  0  0  0  0  0  0  0
    2.0860   -1.1921   -0.0000 H   0  0  0  0  0  0  0  0  0  0  0  0
    1.1998    0.6974    0.0012 C   0  0  0  0  0  0  0  0  0  0  0  0
    2.0652    1.1952    0.0006 H   0  0  0  0  0  0  0  0  0  0  0  0
  1  5  1  0
  5  8  1  0
  1  2  1  0
  1  3  1  0
  1  4  1  0
  5  6  1  0
  5  7  1  0
  8  9  1  0
  8 10  1  0
  8 11  1  0
 12 16  1  0
 16 17  2  0
 17 19  1  0
 19 21  2  0
 21 23  1  0
 23 25  2  0
 25 16  1  0
 12 13  1  0
 12 14  1  0
 12 15  1  0
 17 18  1  0
 19 20  1  0
 21 22  1  0
 23 24  1  0
 25 26  1  0
M  CHG  1   8   1
M  END
>  <PDB_ID>  (2166) 
pdb3mgk

>  <RESIDUE_NAME>  (2166) 
LYS   PHE

>  <FRAG_NAME>  (2166) 
ETAM   MBZ

>  <FRAG_ATOM_NUM>  (2166) 
fragi: 11  fragj: 15

>  <atom.prop.CHAIN_ID>  (2166) 
A A A A A A A A A A A Z Z Z Z Z Z Z Z Z Z Z Z Z Z Z

>  <atom.prop.IS_HEAVY_ATOM>  (2166) 
1 0 0 0 1 0 0 1 0 0 0 1 0 0 0 1 1 0 1 0 1 0 1 0 1 0

>  <DIFUSE_FUNC_ATOM>  (2166) 
n/a

>  <FINAL_SINGLE_POINT_ENERGY>  (2166) 
0

>  <NONCOV_INTER_ENERGY_QM>  (2166) 
0

>  <FF_Energy>  (2166) 
3.01

>  <QM_Energy>  (2166) 
-5.82

>  <source>  (2166) 
ETAM_MBZ

>  <Index>  (2166) 
22426

$$$$
ETAM-pdb3mgk-B-LYS-78:MBZ-pdb3mgk-B-PHE-10
     RDKit          3D

 26 25  0  0  0  0  0  0  0  0999 V2000
    1.6106    2.6482    3.9534 C   0  0  0  0  0  0  0  0  0  0  0  0
    0.6291    2.7665    4.0350 H   0  0  0  0  0  0  0  0  0  0  0  0
    2.0840    3.0992    4.6990 H   0  0  0  0  0  0  0  0  0  0  0  0
    1.8462    1.5841    3.9692 H   0  0  0  0  0  0  0  0  0  0  0  0
    2.0632    3.3050    2.6334 C   0  0  0  0  0  0  0  0  0  0  0  0
    2.7936    2.7504    2.2398 H   0  0  0  0  0  0  0  0  0  0  0  0
    1.2844    3.3286    2.0098 H   0  0  0  0  0  0  0  0  0  0  0  0
    2.5574    4.6886    2.8684 N   0  0  0  0  0  4  0  0  0  0  0  0
    3.1712    4.9525    2.1250 H   0  0  0  0  0  0  0  0  0  0  0  0
    1.7805    5.3172    2.9001 H   0  0  0  0  0  0  0  0  0  0  0  0
    3.0508    4.7212    3.7376 H   0  0  0  0  0  0  0  0  0  0  0  0
   -0.0005    2.8790    0.0224 C   0  0  0  0  0  0  0  0  0  0  0  0
    0.7968    3.1924    0.5159 H   0  0  0  0  0  0  0  0  0  0  0  0
   -0.8355    3.1932    0.4494 H   0  0  0  0  0  0  0  0  0  0  0  0
    0.0401    3.3161   -0.9753 H   0  0  0  0  0  0  0  0  0  0  0  0
   -0.0005    1.3991    0.0116 C   0  0  0  0  0  0  0  0  0  0  0  0
   -1.1988    0.6989    0.0156 C   0  0  0  0  0  0  0  0  0  0  0  0
   -2.0651    1.1880    0.0283 H   0  0  0  0  0  0  0  0  0  0  0  0
   -1.2146   -0.7051   -0.0000 C   0  0  0  0  0  0  0  0  0  0  0  0
   -2.0889   -1.1897    0.0079 H   0  0  0  0  0  0  0  0  0  0  0  0
   -0.0062   -1.4052   -0.0243 C   0  0  0  0  0  0  0  0  0  0  0  0
    0.0051   -2.3927   -0.0589 H   0  0  0  0  0  0  0  0  0  0  0  0
    1.2146   -0.6826    0.0000 C   0  0  0  0  0  0  0  0  0  0  0  0
    2.0876   -1.1925    0.0210 H   0  0  0  0  0  0  0  0  0  0  0  0
    1.2055    0.6949   -0.0029 C   0  0  0  0  0  0  0  0  0  0  0  0
    2.0664    1.2031   -0.0164 H   0  0  0  0  0  0  0  0  0  0  0  0
  1  5  1  0
  5  8  1  0
  1  2  1  0
  1  3  1  0
  1  4  1  0
  5  6  1  0
  5  7  1  0
  8  9  1  0
  8 10  1  0
  8 11  1  0
 12 16  1  0
 16 17  2  0
 17 19  1  0
 19 21  2  0
 21 23  1  0
 23 25  2  0
 25 16  1  0
 12 13  1  0
 12 14  1  0
 12 15  1  0
 17 18  1  0
 19 20  1  0
 21 22  1  0
 23 24  1  0
 25 26  1  0
M  CHG  1   8   1
M  END
>  <PDB_ID>  (2167) 
pdb3mgk

>  <RESIDUE_NAME>  (2167) 
LYS   PHE

>  <FRAG_NAME>  (2167) 
ETAM   MBZ

>  <FRAG_ATOM_NUM>  (2167) 
fragi: 11  fragj: 15

>  <atom.prop.CHAIN_ID>  (2167) 
A A A A A A A A A A A Z Z Z Z Z Z Z Z Z Z Z Z Z Z Z

>  <atom.prop.IS_HEAVY_ATOM>  (2167) 
1 0 0 0 1 0 0 1 0 0 0 1 0 0 0 1 1 0 1 0 1 0 1 0 1 0

>  <DIFUSE_FUNC_ATOM>  (2167) 
n/a

>  <FINAL_SINGLE_POINT_ENERGY>  (2167) 
0

>  <NONCOV_INTER_ENERGY_QM>  (2167) 
0

>  <FF_Energy>  (2167) 
16.8

>  <QM_Energy>  (2167) 
0.4

>  <source>  (2167) 
ETAM_MBZ

>  <Index>  (2167) 
22428

$$$$
ETAM-pdb4jle-B-LYS-143:MBZ-pdb4jle-A-PHE-65
     RDKit          3D

 26 25  0  0  0  0  0  0  0  0999 V2000
    0.8367    0.9241   -4.0799 C   0  0  0  0  0  0  0  0  0  0  0  0
    0.2918    1.7453   -3.9555 H   0  0  0  0  0  0  0  0  0  0  0  0
    0.9976    0.7548   -5.0456 H   0  0  0  0  0  0  0  0  0  0  0  0
    1.7973    1.0640   -3.5843 H   0  0  0  0  0  0  0  0  0  0  0  0
    0.0895   -0.2524   -3.4944 C   0  0  0  0  0  0  0  0  0  0  0  0
    0.4995   -1.1037   -3.8397 H   0  0  0  0  0  0  0  0  0  0  0  0
    0.1871   -0.2359   -2.4922 H   0  0  0  0  0  0  0  0  0  0  0  0
   -1.3468   -0.2257   -3.8441 N   0  0  0  0  0  4  0  0  0  0  0  0
   -1.5585   -0.9889   -4.4563 H   0  0  0  0  0  0  0  0  0  0  0  0
   -1.8977   -0.3067   -3.0116 H   0  0  0  0  0  0  0  0  0  0  0  0
   -1.5647    0.6370   -4.3034 H   0  0  0  0  0  0  0  0  0  0  0  0
   -0.0001    2.9297    0.0846 C   0  0  0  0  0  0  0  0  0  0  0  0
   -0.7309    3.2667   -0.4719 H   0  0  0  0  0  0  0  0  0  0  0  0
    0.8791    3.2509   -0.2009 H   0  0  0  0  0  0  0  0  0  0  0  0
   -0.1676    3.2834    1.1019 H   0  0  0  0  0  0  0  0  0  0  0  0
   -0.0002    1.4152   -0.0024 C   0  0  0  0  0  0  0  0  0  0  0  0
   -1.1946    0.6993    0.0066 C   0  0  0  0  0  0  0  0  0  0  0  0
   -2.0650    1.1788    0.0167 H   0  0  0  0  0  0  0  0  0  0  0  0
   -1.1935   -0.7062    0.0000 C   0  0  0  0  0  0  0  0  0  0  0  0
   -2.0761   -1.1923   -0.0025 H   0  0  0  0  0  0  0  0  0  0  0  0
   -0.0010   -1.3991   -0.0012 C   0  0  0  0  0  0  0  0  0  0  0  0
   -0.0052   -2.4006   -0.0032 H   0  0  0  0  0  0  0  0  0  0  0  0
    1.1935   -0.7083   -0.0000 C   0  0  0  0  0  0  0  0  0  0  0  0
    2.0790   -1.1988    0.0044 H   0  0  0  0  0  0  0  0  0  0  0  0
    1.1958    0.6991   -0.0030 C   0  0  0  0  0  0  0  0  0  0  0  0
    2.0661    1.1839   -0.0060 H   0  0  0  0  0  0  0  0  0  0  0  0
  1  5  1  0
  5  8  1  0
  1  2  1  0
  1  3  1  0
  1  4  1  0
  5  6  1  0
  5  7  1  0
  8  9  1  0
  8 10  1  0
  8 11  1  0
 12 16  1  0
 16 17  2  0
 17 19  1  0
 19 21  2  0
 21 23  1  0
 23 25  2  0
 25 16  1  0
 12 13  1  0
 12 14  1  0
 12 15  1  0
 17 18  1  0
 19 20  1  0
 21 22  1  0
 23 24  1  0
 25 26  1  0
M  CHG  1   8   1
M  END
>  <PDB_ID>  (2168) 
pdb4jle

>  <RESIDUE_NAME>  (2168) 
LYS   PHE

>  <FRAG_NAME>  (2168) 
ETAM   MBZ

>  <FRAG_ATOM_NUM>  (2168) 
fragi: 11  fragj: 15

>  <atom.prop.CHAIN_ID>  (2168) 
A A A A A A A A A A A Z Z Z Z Z Z Z Z Z Z Z Z Z Z Z

>  <atom.prop.IS_HEAVY_ATOM>  (2168) 
1 0 0 0 1 0 0 1 0 0 0 1 0 0 0 1 1 0 1 0 1 0 1 0 1 0

>  <DIFUSE_FUNC_ATOM>  (2168) 
n/a

>  <FINAL_SINGLE_POINT_ENERGY>  (2168) 
0

>  <NONCOV_INTER_ENERGY_QM>  (2168) 
0

>  <FF_Energy>  (2168) 
-6.12

>  <QM_Energy>  (2168) 
-12.34

>  <source>  (2168) 
ETAM_MBZ

>  <Index>  (2168) 
22445

$$$$
ETAM-pdb3mi9-A-LYS-21:MBZ-pdb3mi9-A-PHE-34
     RDKit          3D

 26 25  0  0  0  0  0  0  0  0999 V2000
    0.0507    0.0632    3.6445 C   0  0  0  0  0  0  0  0  0  0  0  0
   -0.2900   -0.6251    4.2674 H   0  0  0  0  0  0  0  0  0  0  0  0
   -0.3663   -0.0231    2.7515 H   0  0  0  0  0  0  0  0  0  0  0  0
   -0.1694    1.0511    4.0489 H   0  0  0  0  0  0  0  0  0  0  0  0
    1.5582   -0.1222    3.4945 C   0  0  0  0  0  0  0  0  0  0  0  0
    1.9180    0.6184    2.9113 H   0  0  0  0  0  0  0  0  0  0  0  0
    1.9860   -0.0378    4.4043 H   0  0  0  0  0  0  0  0  0  0  0  0
    1.9326   -1.4362    2.9000 N   0  0  0  0  0  4  0  0  0  0  0  0
    1.2473   -2.1191    3.1489 H   0  0  0  0  0  0  0  0  0  0  0  0
    1.9739   -1.3494    1.9051 H   0  0  0  0  0  0  0  0  0  0  0  0
    2.8266   -1.7147    3.2490 H   0  0  0  0  0  0  0  0  0  0  0  0
    0.0131    2.8909    0.1380 C   0  0  0  0  0  0  0  0  0  0  0  0
    0.9116    3.1664    0.4662 H   0  0  0  0  0  0  0  0  0  0  0  0
   -0.6877    3.1502    0.7964 H   0  0  0  0  0  0  0  0  0  0  0  0
   -0.1826    3.4455   -0.7797 H   0  0  0  0  0  0  0  0  0  0  0  0
    0.0004    1.4040    0.0029 C   0  0  0  0  0  0  0  0  0  0  0  0
   -1.2008    0.7006   -0.0034 C   0  0  0  0  0  0  0  0  0  0  0  0
   -2.0648    1.1905   -0.0112 H   0  0  0  0  0  0  0  0  0  0  0  0
   -1.2078   -0.6953   -0.0000 C   0  0  0  0  0  0  0  0  0  0  0  0
   -2.0825   -1.1876    0.0013 H   0  0  0  0  0  0  0  0  0  0  0  0
   -0.0003   -1.3985    0.0037 C   0  0  0  0  0  0  0  0  0  0  0  0
   -0.0088   -2.3948    0.0083 H   0  0  0  0  0  0  0  0  0  0  0  0
    1.2078   -0.7036    0.0000 C   0  0  0  0  0  0  0  0  0  0  0  0
    2.0855   -1.2000    0.0012 H   0  0  0  0  0  0  0  0  0  0  0  0
    1.2008    0.6928   -0.0032 C   0  0  0  0  0  0  0  0  0  0  0  0
    2.0685    1.1894   -0.0108 H   0  0  0  0  0  0  0  0  0  0  0  0
  1  5  1  0
  5  8  1  0
  1  2  1  0
  1  3  1  0
  1  4  1  0
  5  6  1  0
  5  7  1  0
  8  9  1  0
  8 10  1  0
  8 11  1  0
 12 16  1  0
 16 17  2  0
 17 19  1  0
 19 21  2  0
 21 23  1  0
 23 25  2  0
 25 16  1  0
 12 13  1  0
 12 14  1  0
 12 15  1  0
 17 18  1  0
 19 20  1  0
 21 22  1  0
 23 24  1  0
 25 26  1  0
M  CHG  1   8   1
M  END
>  <PDB_ID>  (2169) 
pdb3mi9

>  <RESIDUE_NAME>  (2169) 
LYS   PHE

>  <FRAG_NAME>  (2169) 
ETAM   MBZ

>  <FRAG_ATOM_NUM>  (2169) 
fragi: 11  fragj: 15

>  <atom.prop.CHAIN_ID>  (2169) 
A A A A A A A A A A A Z Z Z Z Z Z Z Z Z Z Z Z Z Z Z

>  <atom.prop.IS_HEAVY_ATOM>  (2169) 
1 0 0 0 1 0 0 1 0 0 0 1 0 0 0 1 1 0 1 0 1 0 1 0 1 0

>  <DIFUSE_FUNC_ATOM>  (2169) 
n/a

>  <FINAL_SINGLE_POINT_ENERGY>  (2169) 
0

>  <NONCOV_INTER_ENERGY_QM>  (2169) 
0

>  <FF_Energy>  (2169) 
-4.91

>  <QM_Energy>  (2169) 
-13.27

>  <source>  (2169) 
ETAM_MBZ

>  <Index>  (2169) 
22452

$$$$
ETAM-pdb3mi9-B-LYS-93:MBZ-pdb3mi9-B-PHE-89
     RDKit          3D

 26 25  0  0  0  0  0  0  0  0999 V2000
   -1.2405   -0.6033   -4.3817 C   0  0  0  0  0  0  0  0  0  0  0  0
   -1.5763    0.3319   -4.2459 H   0  0  0  0  0  0  0  0  0  0  0  0
   -1.8032   -1.0559   -5.0765 H   0  0  0  0  0  0  0  0  0  0  0  0
   -0.2166   -0.5489   -4.7515 H   0  0  0  0  0  0  0  0  0  0  0  0
   -1.3473   -1.3552   -3.0969 C   0  0  0  0  0  0  0  0  0  0  0  0
   -0.9812   -2.2731   -3.2130 H   0  0  0  0  0  0  0  0  0  0  0  0
   -0.8483   -0.8744   -2.3823 H   0  0  0  0  0  0  0  0  0  0  0  0
   -2.7755   -1.4479   -2.7114 N   0  0  0  0  0  4  0  0  0  0  0  0
   -2.9503   -0.8519   -1.9266 H   0  0  0  0  0  0  0  0  0  0  0  0
   -3.3490   -1.1625   -3.4799 H   0  0  0  0  0  0  0  0  0  0  0  0
   -2.9949   -2.3924   -2.4661 H   0  0  0  0  0  0  0  0  0  0  0  0
    0.0021    2.9036   -0.0050 C   0  0  0  0  0  0  0  0  0  0  0  0
    0.3662    3.2131    0.8593 H   0  0  0  0  0  0  0  0  0  0  0  0
   -0.9278    3.2116   -0.1369 H   0  0  0  0  0  0  0  0  0  0  0  0
    0.6120    3.3363   -0.7981 H   0  0  0  0  0  0  0  0  0  0  0  0
    0.0003    1.4036    0.0006 C   0  0  0  0  0  0  0  0  0  0  0  0
   -1.1951    0.6956    0.0016 C   0  0  0  0  0  0  0  0  0  0  0  0
   -2.0634    1.1822    0.0026 H   0  0  0  0  0  0  0  0  0  0  0  0
   -1.1997   -0.7014    0.0000 C   0  0  0  0  0  0  0  0  0  0  0  0
   -2.0790   -1.1905    0.0011 H   0  0  0  0  0  0  0  0  0  0  0  0
   -0.0028   -1.3959   -0.0013 C   0  0  0  0  0  0  0  0  0  0  0  0
   -0.0028   -2.3937   -0.0036 H   0  0  0  0  0  0  0  0  0  0  0  0
    1.1997   -0.6963   -0.0000 C   0  0  0  0  0  0  0  0  0  0  0  0
    2.0811   -1.1953    0.0034 H   0  0  0  0  0  0  0  0  0  0  0  0
    1.1976    0.6944   -0.0009 C   0  0  0  0  0  0  0  0  0  0  0  0
    2.0651    1.1897   -0.0032 H   0  0  0  0  0  0  0  0  0  0  0  0
  1  5  1  0
  5  8  1  0
  1  2  1  0
  1  3  1  0
  1  4  1  0
  5  6  1  0
  5  7  1  0
  8  9  1  0
  8 10  1  0
  8 11  1  0
 12 16  1  0
 16 17  2  0
 17 19  1  0
 19 21  2  0
 21 23  1  0
 23 25  2  0
 25 16  1  0
 12 13  1  0
 12 14  1  0
 12 15  1  0
 17 18  1  0
 19 20  1  0
 21 22  1  0
 23 24  1  0
 25 26  1  0
M  CHG  1   8   1
M  END
>  <PDB_ID>  (2170) 
pdb3mi9

>  <RESIDUE_NAME>  (2170) 
LYS   PHE

>  <FRAG_NAME>  (2170) 
ETAM   MBZ

>  <FRAG_ATOM_NUM>  (2170) 
fragi: 11  fragj: 15

>  <atom.prop.CHAIN_ID>  (2170) 
A A A A A A A A A A A Z Z Z Z Z Z Z Z Z Z Z Z Z Z Z

>  <atom.prop.IS_HEAVY_ATOM>  (2170) 
1 0 0 0 1 0 0 1 0 0 0 1 0 0 0 1 1 0 1 0 1 0 1 0 1 0

>  <DIFUSE_FUNC_ATOM>  (2170) 
n/a

>  <FINAL_SINGLE_POINT_ENERGY>  (2170) 
0

>  <NONCOV_INTER_ENERGY_QM>  (2170) 
0

>  <FF_Energy>  (2170) 
-0.24

>  <QM_Energy>  (2170) 
-8.39

>  <source>  (2170) 
ETAM_MBZ

>  <Index>  (2170) 
22495

$$$$
ETAM-pdb3mkq-A-LYS-218:MBZ-pdb3mkq-A-PHE-177
     RDKit          3D

 26 25  0  0  0  0  0  0  0  0999 V2000
   -0.3684    0.4798   -5.3584 C   0  0  0  0  0  0  0  0  0  0  0  0
   -0.0719   -0.4054   -5.6987 H   0  0  0  0  0  0  0  0  0  0  0  0
   -0.4737    1.1232   -6.1075 H   0  0  0  0  0  0  0  0  0  0  0  0
   -1.3319    0.3587   -4.8633 H   0  0  0  0  0  0  0  0  0  0  0  0
    0.6842    1.0127   -4.4005 C   0  0  0  0  0  0  0  0  0  0  0  0
    1.5747    0.9896   -4.8526 H   0  0  0  0  0  0  0  0  0  0  0  0
    0.4560    1.9550   -4.1593 H   0  0  0  0  0  0  0  0  0  0  0  0
    0.7346    0.1878   -3.1699 N   0  0  0  0  0  4  0  0  0  0  0  0
   -0.1569    0.2096   -2.7153 H   0  0  0  0  0  0  0  0  0  0  0  0
    0.9623   -0.7561   -3.4093 H   0  0  0  0  0  0  0  0  0  0  0  0
    1.4321    0.5511   -2.5514 H   0  0  0  0  0  0  0  0  0  0  0  0
    0.0106    2.9077   -0.0690 C   0  0  0  0  0  0  0  0  0  0  0  0
   -0.6565    3.1894   -0.7467 H   0  0  0  0  0  0  0  0  0  0  0  0
    0.9224    3.1975   -0.3310 H   0  0  0  0  0  0  0  0  0  0  0  0
   -0.2379    3.4095    0.8662 H   0  0  0  0  0  0  0  0  0  0  0  0
   -0.0000    1.4055   -0.0009 C   0  0  0  0  0  0  0  0  0  0  0  0
   -1.2008    0.7008    0.0020 C   0  0  0  0  0  0  0  0  0  0  0  0
   -2.0653    1.1924    0.0040 H   0  0  0  0  0  0  0  0  0  0  0  0
   -1.2073   -0.6914    0.0000 C   0  0  0  0  0  0  0  0  0  0  0  0
   -2.0826   -1.1864    0.0015 H   0  0  0  0  0  0  0  0  0  0  0  0
    0.0010   -1.4010   -0.0019 C   0  0  0  0  0  0  0  0  0  0  0  0
   -0.0110   -2.3958   -0.0050 H   0  0  0  0  0  0  0  0  0  0  0  0
    1.2073   -0.7050    0.0000 C   0  0  0  0  0  0  0  0  0  0  0  0
    2.0859   -1.2007    0.0023 H   0  0  0  0  0  0  0  0  0  0  0  0
    1.1999    0.6911    0.0007 C   0  0  0  0  0  0  0  0  0  0  0  0
    2.0681    1.1878    0.0022 H   0  0  0  0  0  0  0  0  0  0  0  0
  1  5  1  0
  5  8  1  0
  1  2  1  0
  1  3  1  0
  1  4  1  0
  5  6  1  0
  5  7  1  0
  8  9  1  0
  8 10  1  0
  8 11  1  0
 12 16  1  0
 16 17  2  0
 17 19  1  0
 19 21  2  0
 21 23  1  0
 23 25  2  0
 25 16  1  0
 12 13  1  0
 12 14  1  0
 12 15  1  0
 17 18  1  0
 19 20  1  0
 21 22  1  0
 23 24  1  0
 25 26  1  0
M  CHG  1   8   1
M  END
>  <PDB_ID>  (2171) 
pdb3mkq

>  <RESIDUE_NAME>  (2171) 
LYS   PHE

>  <FRAG_NAME>  (2171) 
ETAM   MBZ

>  <FRAG_ATOM_NUM>  (2171) 
fragi: 11  fragj: 15

>  <atom.prop.CHAIN_ID>  (2171) 
A A A A A A A A A A A Z Z Z Z Z Z Z Z Z Z Z Z Z Z Z

>  <atom.prop.IS_HEAVY_ATOM>  (2171) 
1 0 0 0 1 0 0 1 0 0 0 1 0 0 0 1 1 0 1 0 1 0 1 0 1 0

>  <DIFUSE_FUNC_ATOM>  (2171) 
n/a

>  <FINAL_SINGLE_POINT_ENERGY>  (2171) 
0

>  <NONCOV_INTER_ENERGY_QM>  (2171) 
0

>  <FF_Energy>  (2171) 
-8.41

>  <QM_Energy>  (2171) 
-15.25

>  <source>  (2171) 
ETAM_MBZ

>  <Index>  (2171) 
22502

$$$$
ETAM-pdb3mkq-E-LYS-218:MBZ-pdb3mkq-E-PHE-177
     RDKit          3D

 26 25  0  0  0  0  0  0  0  0999 V2000
   -0.7496    0.4630   -4.4508 C   0  0  0  0  0  0  0  0  0  0  0  0
   -1.1933    0.6228   -3.5865 H   0  0  0  0  0  0  0  0  0  0  0  0
   -0.6173   -0.4964   -4.6263 H   0  0  0  0  0  0  0  0  0  0  0  0
   -1.3595    0.8897   -5.2471 H   0  0  0  0  0  0  0  0  0  0  0  0
    0.6200    1.1482   -4.4301 C   0  0  0  0  0  0  0  0  0  0  0  0
    1.0154    1.0983   -5.3598 H   0  0  0  0  0  0  0  0  0  0  0  0
    0.4850    2.1256   -4.2060 H   0  0  0  0  0  0  0  0  0  0  0  0
    1.5741    0.5522   -3.4600 N   0  0  0  0  0  4  0  0  0  0  0  0
    2.1251   -0.1441   -3.9196 H   0  0  0  0  0  0  0  0  0  0  0  0
    2.1733    1.2677   -3.1001 H   0  0  0  0  0  0  0  0  0  0  0  0
    1.0658    0.1325   -2.7075 H   0  0  0  0  0  0  0  0  0  0  0  0
    0.0049    2.9027   -0.0359 C   0  0  0  0  0  0  0  0  0  0  0  0
   -0.6534    3.2002   -0.7151 H   0  0  0  0  0  0  0  0  0  0  0  0
    0.9189    3.2047   -0.2725 H   0  0  0  0  0  0  0  0  0  0  0  0
   -0.2624    3.3752    0.9093 H   0  0  0  0  0  0  0  0  0  0  0  0
   -0.0008    1.4082   -0.0010 C   0  0  0  0  0  0  0  0  0  0  0  0
   -1.2046    0.7020    0.0014 C   0  0  0  0  0  0  0  0  0  0  0  0
   -2.0681    1.1925    0.0032 H   0  0  0  0  0  0  0  0  0  0  0  0
   -1.2153   -0.6980   -0.0000 C   0  0  0  0  0  0  0  0  0  0  0  0
   -2.0868   -1.1898    0.0019 H   0  0  0  0  0  0  0  0  0  0  0  0
    0.0001   -1.4055   -0.0018 C   0  0  0  0  0  0  0  0  0  0  0  0
   -0.0077   -2.3989   -0.0049 H   0  0  0  0  0  0  0  0  0  0  0  0
    1.2153   -0.7043    0.0000 C   0  0  0  0  0  0  0  0  0  0  0  0
    2.0902   -1.1992    0.0015 H   0  0  0  0  0  0  0  0  0  0  0  0
    1.2054    0.6976    0.0014 C   0  0  0  0  0  0  0  0  0  0  0  0
    2.0704    1.1946    0.0031 H   0  0  0  0  0  0  0  0  0  0  0  0
  1  5  1  0
  5  8  1  0
  1  2  1  0
  1  3  1  0
  1  4  1  0
  5  6  1  0
  5  7  1  0
  8  9  1  0
  8 10  1  0
  8 11  1  0
 12 16  1  0
 16 17  2  0
 17 19  1  0
 19 21  2  0
 21 23  1  0
 23 25  2  0
 25 16  1  0
 12 13  1  0
 12 14  1  0
 12 15  1  0
 17 18  1  0
 19 20  1  0
 21 22  1  0
 23 24  1  0
 25 26  1  0
M  CHG  1   8   1
M  END
>  <PDB_ID>  (2172) 
pdb3mkq

>  <RESIDUE_NAME>  (2172) 
LYS   PHE

>  <FRAG_NAME>  (2172) 
ETAM   MBZ

>  <FRAG_ATOM_NUM>  (2172) 
fragi: 11  fragj: 15

>  <atom.prop.CHAIN_ID>  (2172) 
A A A A A A A A A A A Z Z Z Z Z Z Z Z Z Z Z Z Z Z Z

>  <atom.prop.IS_HEAVY_ATOM>  (2172) 
1 0 0 0 1 0 0 1 0 0 0 1 0 0 0 1 1 0 1 0 1 0 1 0 1 0

>  <DIFUSE_FUNC_ATOM>  (2172) 
n/a

>  <FINAL_SINGLE_POINT_ENERGY>  (2172) 
0

>  <NONCOV_INTER_ENERGY_QM>  (2172) 
0

>  <FF_Energy>  (2172) 
-6.77

>  <QM_Energy>  (2172) 
-12.37

>  <source>  (2172) 
ETAM_MBZ

>  <Index>  (2172) 
22507

$$$$
ETAM-pdb3mmk-B-LYS-78:MBZ-pdb3mmk-B-PHE-69
     RDKit          3D

 26 25  0  0  0  0  0  0  0  0999 V2000
    1.6671   -3.7780    1.5359 C   0  0  0  0  0  0  0  0  0  0  0  0
    2.4245   -4.1901    2.0450 H   0  0  0  0  0  0  0  0  0  0  0  0
    0.8011   -4.1570    1.8649 H   0  0  0  0  0  0  0  0  0  0  0  0
    1.6698   -2.7030    1.7158 H   0  0  0  0  0  0  0  0  0  0  0  0
    1.8222   -4.1229    0.0729 C   0  0  0  0  0  0  0  0  0  0  0  0
    1.0655   -3.7179   -0.4420 H   0  0  0  0  0  0  0  0  0  0  0  0
    2.6887   -3.7518   -0.2632 H   0  0  0  0  0  0  0  0  0  0  0  0
    1.8128   -5.5942   -0.1232 N   0  0  0  0  0  4  0  0  0  0  0  0
    1.1643   -6.0123    0.5124 H   0  0  0  0  0  0  0  0  0  0  0  0
    1.5406   -5.8039   -1.0628 H   0  0  0  0  0  0  0  0  0  0  0  0
    2.7285   -5.9596    0.0474 H   0  0  0  0  0  0  0  0  0  0  0  0
    0.0012    2.8981   -0.0055 C   0  0  0  0  0  0  0  0  0  0  0  0
    0.6735    3.2073    0.6494 H   0  0  0  0  0  0  0  0  0  0  0  0
   -0.9061    3.2060    0.2347 H   0  0  0  0  0  0  0  0  0  0  0  0
    0.2547    3.3308   -0.9733 H   0  0  0  0  0  0  0  0  0  0  0  0
    0.0010    1.3952    0.0016 C   0  0  0  0  0  0  0  0  0  0  0  0
   -1.1915    0.6873   -0.0017 C   0  0  0  0  0  0  0  0  0  0  0  0
   -2.0594    1.1796   -0.0069 H   0  0  0  0  0  0  0  0  0  0  0  0
   -1.1951   -0.6951   -0.0000 C   0  0  0  0  0  0  0  0  0  0  0  0
   -2.0740   -1.1905    0.0015 H   0  0  0  0  0  0  0  0  0  0  0  0
   -0.0019   -1.3850    0.0012 C   0  0  0  0  0  0  0  0  0  0  0  0
   -0.0032   -2.3866    0.0025 H   0  0  0  0  0  0  0  0  0  0  0  0
    1.1951   -0.6913   -0.0000 C   0  0  0  0  0  0  0  0  0  0  0  0
    2.0775   -1.1936    0.0018 H   0  0  0  0  0  0  0  0  0  0  0  0
    1.1924    0.6888   -0.0011 C   0  0  0  0  0  0  0  0  0  0  0  0
    2.0616    1.1875   -0.0048 H   0  0  0  0  0  0  0  0  0  0  0  0
  1  5  1  0
  5  8  1  0
  1  2  1  0
  1  3  1  0
  1  4  1  0
  5  6  1  0
  5  7  1  0
  8  9  1  0
  8 10  1  0
  8 11  1  0
 12 16  1  0
 16 17  2  0
 17 19  1  0
 19 21  2  0
 21 23  1  0
 23 25  2  0
 25 16  1  0
 12 13  1  0
 12 14  1  0
 12 15  1  0
 17 18  1  0
 19 20  1  0
 21 22  1  0
 23 24  1  0
 25 26  1  0
M  CHG  1   8   1
M  END
>  <PDB_ID>  (2173) 
pdb3mmk

>  <RESIDUE_NAME>  (2173) 
LYS   PHE

>  <FRAG_NAME>  (2173) 
ETAM   MBZ

>  <FRAG_ATOM_NUM>  (2173) 
fragi: 11  fragj: 15

>  <atom.prop.CHAIN_ID>  (2173) 
A A A A A A A A A A A Z Z Z Z Z Z Z Z Z Z Z Z Z Z Z

>  <atom.prop.IS_HEAVY_ATOM>  (2173) 
1 0 0 0 1 0 0 1 0 0 0 1 0 0 0 1 1 0 1 0 1 0 1 0 1 0

>  <DIFUSE_FUNC_ATOM>  (2173) 
n/a

>  <FINAL_SINGLE_POINT_ENERGY>  (2173) 
0

>  <NONCOV_INTER_ENERGY_QM>  (2173) 
0

>  <FF_Energy>  (2173) 
7.76

>  <QM_Energy>  (2173) 
-1.27

>  <source>  (2173) 
ETAM_MBZ

>  <Index>  (2173) 
22519

$$$$
ETAM-pdb4jng-C-LYS-56:MBZ-pdb4jng-B-PHE-78
     RDKit          3D

 26 25  0  0  0  0  0  0  0  0999 V2000
    2.3202   -5.3726    0.2281 C   0  0  0  0  0  0  0  0  0  0  0  0
    3.1536   -5.2539   -0.2939 H   0  0  0  0  0  0  0  0  0  0  0  0
    1.5401   -5.4948   -0.3694 H   0  0  0  0  0  0  0  0  0  0  0  0
    2.4226   -6.2525    0.8634 H   0  0  0  0  0  0  0  0  0  0  0  0
    2.0946   -4.1324    1.0752 C   0  0  0  0  0  0  0  0  0  0  0  0
    2.8694   -4.0262    1.7113 H   0  0  0  0  0  0  0  0  0  0  0  0
    2.0716   -3.3249    0.4722 H   0  0  0  0  0  0  0  0  0  0  0  0
    0.8283   -4.1875    1.8587 N   0  0  0  0  0  4  0  0  0  0  0  0
    0.2372   -4.9005    1.4823 H   0  0  0  0  0  0  0  0  0  0  0  0
    1.0388   -4.3954    2.8137 H   0  0  0  0  0  0  0  0  0  0  0  0
    0.3656   -3.3034    1.8017 H   0  0  0  0  0  0  0  0  0  0  0  0
   -0.0001    2.8943   -0.0044 C   0  0  0  0  0  0  0  0  0  0  0  0
   -0.5918    3.1967   -0.7384 H   0  0  0  0  0  0  0  0  0  0  0  0
    0.9305    3.2011   -0.1489 H   0  0  0  0  0  0  0  0  0  0  0  0
   -0.3594    3.3454    0.9205 H   0  0  0  0  0  0  0  0  0  0  0  0
    0.0000    1.3953    0.0059 C   0  0  0  0  0  0  0  0  0  0  0  0
   -1.1943    0.6900   -0.0076 C   0  0  0  0  0  0  0  0  0  0  0  0
   -2.0603    1.1845   -0.0242 H   0  0  0  0  0  0  0  0  0  0  0  0
   -1.1983   -0.6903   -0.0000 C   0  0  0  0  0  0  0  0  0  0  0  0
   -2.0754   -1.1885    0.0048 H   0  0  0  0  0  0  0  0  0  0  0  0
   -0.0001   -1.3865    0.0027 C   0  0  0  0  0  0  0  0  0  0  0  0
   -0.0068   -2.3870    0.0060 H   0  0  0  0  0  0  0  0  0  0  0  0
    1.1983   -0.6954    0.0000 C   0  0  0  0  0  0  0  0  0  0  0  0
    2.0790   -1.1966    0.0001 H   0  0  0  0  0  0  0  0  0  0  0  0
    1.1944    0.6869   -0.0010 C   0  0  0  0  0  0  0  0  0  0  0  0
    2.0628    1.1869   -0.0074 H   0  0  0  0  0  0  0  0  0  0  0  0
  1  5  1  0
  5  8  1  0
  1  2  1  0
  1  3  1  0
  1  4  1  0
  5  6  1  0
  5  7  1  0
  8  9  1  0
  8 10  1  0
  8 11  1  0
 12 16  1  0
 16 17  2  0
 17 19  1  0
 19 21  2  0
 21 23  1  0
 23 25  2  0
 25 16  1  0
 12 13  1  0
 12 14  1  0
 12 15  1  0
 17 18  1  0
 19 20  1  0
 21 22  1  0
 23 24  1  0
 25 26  1  0
M  CHG  1   8   1
M  END
>  <PDB_ID>  (2174) 
pdb4jng

>  <RESIDUE_NAME>  (2174) 
LYS   PHE

>  <FRAG_NAME>  (2174) 
ETAM   MBZ

>  <FRAG_ATOM_NUM>  (2174) 
fragi: 11  fragj: 15

>  <atom.prop.CHAIN_ID>  (2174) 
A A A A A A A A A A A Z Z Z Z Z Z Z Z Z Z Z Z Z Z Z

>  <atom.prop.IS_HEAVY_ATOM>  (2174) 
1 0 0 0 1 0 0 1 0 0 0 1 0 0 0 1 1 0 1 0 1 0 1 0 1 0

>  <DIFUSE_FUNC_ATOM>  (2174) 
n/a

>  <FINAL_SINGLE_POINT_ENERGY>  (2174) 
0

>  <NONCOV_INTER_ENERGY_QM>  (2174) 
0

>  <FF_Energy>  (2174) 
0.52

>  <QM_Energy>  (2174) 
-6.36

>  <source>  (2174) 
ETAM_MBZ

>  <Index>  (2174) 
22528

$$$$
ETAM-pdb3mnd-B-LYS-150:MBZ-pdb3mnd-A-PHE-47
     RDKit          3D

 26 25  0  0  0  0  0  0  0  0999 V2000
   -1.6298   -3.3637   -3.5863 C   0  0  0  0  0  0  0  0  0  0  0  0
   -2.1661   -2.5494   -3.4051 H   0  0  0  0  0  0  0  0  0  0  0  0
   -1.8642   -3.7528   -4.4672 H   0  0  0  0  0  0  0  0  0  0  0  0
   -0.5715   -3.1029   -3.5805 H   0  0  0  0  0  0  0  0  0  0  0  0
   -1.9392   -4.3967   -2.5043 C   0  0  0  0  0  0  0  0  0  0  0  0
   -2.8921   -4.6883   -2.5995 H   0  0  0  0  0  0  0  0  0  0  0  0
   -1.3373   -5.1867   -2.6307 H   0  0  0  0  0  0  0  0  0  0  0  0
   -1.7309   -3.8347   -1.1385 N   0  0  0  0  0  4  0  0  0  0  0  0
   -1.4784   -2.8711   -1.2134 H   0  0  0  0  0  0  0  0  0  0  0  0
   -2.5768   -3.9211   -0.6140 H   0  0  0  0  0  0  0  0  0  0  0  0
   -0.9997   -4.3396   -0.6824 H   0  0  0  0  0  0  0  0  0  0  0  0
    0.0014    2.8941   -0.0052 C   0  0  0  0  0  0  0  0  0  0  0  0
   -0.9317    3.2034    0.1082 H   0  0  0  0  0  0  0  0  0  0  0  0
    0.3772    3.1973   -0.8687 H   0  0  0  0  0  0  0  0  0  0  0  0
    0.5996    3.3345    0.7924 H   0  0  0  0  0  0  0  0  0  0  0  0
   -0.0003    1.3979    0.0022 C   0  0  0  0  0  0  0  0  0  0  0  0
   -1.1895    0.6964   -0.0051 C   0  0  0  0  0  0  0  0  0  0  0  0
   -2.0592    1.1851   -0.0155 H   0  0  0  0  0  0  0  0  0  0  0  0
   -1.1998   -0.6963   -0.0000 C   0  0  0  0  0  0  0  0  0  0  0  0
   -2.0780   -1.1859    0.0014 H   0  0  0  0  0  0  0  0  0  0  0  0
   -0.0002   -1.3949    0.0045 C   0  0  0  0  0  0  0  0  0  0  0  0
   -0.0043   -2.3919    0.0107 H   0  0  0  0  0  0  0  0  0  0  0  0
    1.1998   -0.6965    0.0000 C   0  0  0  0  0  0  0  0  0  0  0  0
    2.0812   -1.1918   -0.0010 H   0  0  0  0  0  0  0  0  0  0  0  0
    1.1899    0.6934   -0.0017 C   0  0  0  0  0  0  0  0  0  0  0  0
    2.0610    1.1907   -0.0067 H   0  0  0  0  0  0  0  0  0  0  0  0
  1  5  1  0
  5  8  1  0
  1  2  1  0
  1  3  1  0
  1  4  1  0
  5  6  1  0
  5  7  1  0
  8  9  1  0
  8 10  1  0
  8 11  1  0
 12 16  1  0
 16 17  2  0
 17 19  1  0
 19 21  2  0
 21 23  1  0
 23 25  2  0
 25 16  1  0
 12 13  1  0
 12 14  1  0
 12 15  1  0
 17 18  1  0
 19 20  1  0
 21 22  1  0
 23 24  1  0
 25 26  1  0
M  CHG  1   8   1
M  END
>  <PDB_ID>  (2175) 
pdb3mnd

>  <RESIDUE_NAME>  (2175) 
LYS   PHE

>  <FRAG_NAME>  (2175) 
ETAM   MBZ

>  <FRAG_ATOM_NUM>  (2175) 
fragi: 11  fragj: 15

>  <atom.prop.CHAIN_ID>  (2175) 
A A A A A A A A A A A Z Z Z Z Z Z Z Z Z Z Z Z Z Z Z

>  <atom.prop.IS_HEAVY_ATOM>  (2175) 
1 0 0 0 1 0 0 1 0 0 0 1 0 0 0 1 1 0 1 0 1 0 1 0 1 0

>  <DIFUSE_FUNC_ATOM>  (2175) 
n/a

>  <FINAL_SINGLE_POINT_ENERGY>  (2175) 
0

>  <NONCOV_INTER_ENERGY_QM>  (2175) 
0

>  <FF_Energy>  (2175) 
1.58

>  <QM_Energy>  (2175) 
-5.98

>  <source>  (2175) 
ETAM_MBZ

>  <Index>  (2175) 
22533

$$$$
ETAM-pdb4jq6-A-LYS-173:MBZ-pdb4jq6-A-PHE-169
     RDKit          3D

 26 25  0  0  0  0  0  0  0  0999 V2000
   -5.1132    1.1000   -0.5222 C   0  0  0  0  0  0  0  0  0  0  0  0
   -4.4863    1.8417   -0.2995 H   0  0  0  0  0  0  0  0  0  0  0  0
   -6.0474    1.3640   -0.2984 H   0  0  0  0  0  0  0  0  0  0  0  0
   -5.0505    0.8939   -1.5907 H   0  0  0  0  0  0  0  0  0  0  0  0
   -4.7409   -0.1152    0.3122 C   0  0  0  0  0  0  0  0  0  0  0  0
   -5.5116   -0.7549    0.3174 H   0  0  0  0  0  0  0  0  0  0  0  0
   -3.9443   -0.5609   -0.0993 H   0  0  0  0  0  0  0  0  0  0  0  0
   -4.4155    0.2701    1.7139 N   0  0  0  0  0  4  0  0  0  0  0  0
   -5.1827    0.0338    2.3082 H   0  0  0  0  0  0  0  0  0  0  0  0
   -3.5975   -0.2218    2.0103 H   0  0  0  0  0  0  0  0  0  0  0  0
   -4.2493    1.2541    1.7562 H   0  0  0  0  0  0  0  0  0  0  0  0
    0.0067    2.9039    0.0051 C   0  0  0  0  0  0  0  0  0  0  0  0
    0.6937    3.2052    0.6474 H   0  0  0  0  0  0  0  0  0  0  0  0
   -0.8937    3.2152    0.2674 H   0  0  0  0  0  0  0  0  0  0  0  0
    0.2404    3.3528   -0.9603 H   0  0  0  0  0  0  0  0  0  0  0  0
    0.0004    1.4003   -0.0051 C   0  0  0  0  0  0  0  0  0  0  0  0
   -1.1983    0.6926   -0.0002 C   0  0  0  0  0  0  0  0  0  0  0  0
   -2.0641    1.1850    0.0020 H   0  0  0  0  0  0  0  0  0  0  0  0
   -1.2023   -0.6951   -0.0000 C   0  0  0  0  0  0  0  0  0  0  0  0
   -2.0776   -1.1909    0.0001 H   0  0  0  0  0  0  0  0  0  0  0  0
   -0.0001   -1.3903    0.0020 C   0  0  0  0  0  0  0  0  0  0  0  0
   -0.0050   -2.3901    0.0043 H   0  0  0  0  0  0  0  0  0  0  0  0
    1.2023   -0.6967    0.0000 C   0  0  0  0  0  0  0  0  0  0  0  0
    2.0819   -1.1973   -0.0028 H   0  0  0  0  0  0  0  0  0  0  0  0
    1.1980    0.6892    0.0033 C   0  0  0  0  0  0  0  0  0  0  0  0
    2.0659    1.1886    0.0111 H   0  0  0  0  0  0  0  0  0  0  0  0
  1  5  1  0
  5  8  1  0
  1  2  1  0
  1  3  1  0
  1  4  1  0
  5  6  1  0
  5  7  1  0
  8  9  1  0
  8 10  1  0
  8 11  1  0
 12 16  1  0
 16 17  2  0
 17 19  1  0
 19 21  2  0
 21 23  1  0
 23 25  2  0
 25 16  1  0
 12 13  1  0
 12 14  1  0
 12 15  1  0
 17 18  1  0
 19 20  1  0
 21 22  1  0
 23 24  1  0
 25 26  1  0
M  CHG  1   8   1
M  END
>  <PDB_ID>  (2176) 
pdb4jq6

>  <RESIDUE_NAME>  (2176) 
LYS   PHE

>  <FRAG_NAME>  (2176) 
ETAM   MBZ

>  <FRAG_ATOM_NUM>  (2176) 
fragi: 11  fragj: 15

>  <atom.prop.CHAIN_ID>  (2176) 
A A A A A A A A A A A Z Z Z Z Z Z Z Z Z Z Z Z Z Z Z

>  <atom.prop.IS_HEAVY_ATOM>  (2176) 
1 0 0 0 1 0 0 1 0 0 0 1 0 0 0 1 1 0 1 0 1 0 1 0 1 0

>  <DIFUSE_FUNC_ATOM>  (2176) 
n/a

>  <FINAL_SINGLE_POINT_ENERGY>  (2176) 
0

>  <NONCOV_INTER_ENERGY_QM>  (2176) 
0

>  <FF_Energy>  (2176) 
0.61

>  <QM_Energy>  (2176) 
-5.02

>  <source>  (2176) 
ETAM_MBZ

>  <Index>  (2176) 
22548

$$$$
ETAM-pdb4jta-Y-LYS-31:MBZ-pdb4jta-Y-PHE-2
     RDKit          3D

 26 25  0  0  0  0  0  0  0  0999 V2000
   -2.9265   -4.0759   -1.3282 C   0  0  0  0  0  0  0  0  0  0  0  0
   -3.3875   -4.6473   -1.9982 H   0  0  0  0  0  0  0  0  0  0  0  0
   -3.2658   -3.1426   -1.3766 H   0  0  0  0  0  0  0  0  0  0  0  0
   -3.1225   -4.4723   -0.3319 H   0  0  0  0  0  0  0  0  0  0  0  0
   -1.4380   -4.0670   -1.6400 C   0  0  0  0  0  0  0  0  0  0  0  0
   -0.9696   -3.4817   -0.9716 H   0  0  0  0  0  0  0  0  0  0  0  0
   -1.0820   -5.0025   -1.5547 H   0  0  0  0  0  0  0  0  0  0  0  0
   -1.1568   -3.5619   -3.0125 N   0  0  0  0  0  4  0  0  0  0  0  0
   -0.3243   -3.9923   -3.3596 H   0  0  0  0  0  0  0  0  0  0  0  0
   -1.9249   -3.7862   -3.6121 H   0  0  0  0  0  0  0  0  0  0  0  0
   -1.0342   -2.5705   -2.9824 H   0  0  0  0  0  0  0  0  0  0  0  0
   -0.0009    2.9031   -0.0197 C   0  0  0  0  0  0  0  0  0  0  0  0
   -0.4188    3.1991   -0.8658 H   0  0  0  0  0  0  0  0  0  0  0  0
    0.9365    3.2116    0.0446 H   0  0  0  0  0  0  0  0  0  0  0  0
   -0.5565    3.3561    0.8014 H   0  0  0  0  0  0  0  0  0  0  0  0
    0.0004    1.4015   -0.0004 C   0  0  0  0  0  0  0  0  0  0  0  0
   -1.1971    0.6935   -0.0000 C   0  0  0  0  0  0  0  0  0  0  0  0
   -2.0633    1.1840   -0.0005 H   0  0  0  0  0  0  0  0  0  0  0  0
   -1.2025   -0.6978   -0.0000 C   0  0  0  0  0  0  0  0  0  0  0  0
   -2.0784   -1.1911    0.0019 H   0  0  0  0  0  0  0  0  0  0  0  0
   -0.0001   -1.3947   -0.0002 C   0  0  0  0  0  0  0  0  0  0  0  0
   -0.0035   -2.3931   -0.0006 H   0  0  0  0  0  0  0  0  0  0  0  0
    1.2025   -0.6971    0.0000 C   0  0  0  0  0  0  0  0  0  0  0  0
    2.0835   -1.1938    0.0011 H   0  0  0  0  0  0  0  0  0  0  0  0
    1.1968    0.6948    0.0006 C   0  0  0  0  0  0  0  0  0  0  0  0
    2.0652    1.1908    0.0013 H   0  0  0  0  0  0  0  0  0  0  0  0
  1  5  1  0
  5  8  1  0
  1  2  1  0
  1  3  1  0
  1  4  1  0
  5  6  1  0
  5  7  1  0
  8  9  1  0
  8 10  1  0
  8 11  1  0
 12 16  1  0
 16 17  2  0
 17 19  1  0
 19 21  2  0
 21 23  1  0
 23 25  2  0
 25 16  1  0
 12 13  1  0
 12 14  1  0
 12 15  1  0
 17 18  1  0
 19 20  1  0
 21 22  1  0
 23 24  1  0
 25 26  1  0
M  CHG  1   8   1
M  END
>  <PDB_ID>  (2177) 
pdb4jta

>  <RESIDUE_NAME>  (2177) 
LYS   PHE

>  <FRAG_NAME>  (2177) 
ETAM   MBZ

>  <FRAG_ATOM_NUM>  (2177) 
fragi: 11  fragj: 15

>  <atom.prop.CHAIN_ID>  (2177) 
A A A A A A A A A A A Z Z Z Z Z Z Z Z Z Z Z Z Z Z Z

>  <atom.prop.IS_HEAVY_ATOM>  (2177) 
1 0 0 0 1 0 0 1 0 0 0 1 0 0 0 1 1 0 1 0 1 0 1 0 1 0

>  <DIFUSE_FUNC_ATOM>  (2177) 
n/a

>  <FINAL_SINGLE_POINT_ENERGY>  (2177) 
0

>  <NONCOV_INTER_ENERGY_QM>  (2177) 
0

>  <FF_Energy>  (2177) 
4.41

>  <QM_Energy>  (2177) 
-4.81

>  <source>  (2177) 
ETAM_MBZ

>  <Index>  (2177) 
22597

$$$$
ETAM-pdb3mmy-C-LYS-302:MBZ-pdb3mmy-C-PHE-221
     RDKit          3D

 26 25  0  0  0  0  0  0  0  0999 V2000
   -0.5356   -0.8752   -4.5561 C   0  0  0  0  0  0  0  0  0  0  0  0
   -1.1627   -1.2780   -5.2142 H   0  0  0  0  0  0  0  0  0  0  0  0
   -0.1186   -1.5836   -3.9964 H   0  0  0  0  0  0  0  0  0  0  0  0
    0.2469   -0.3396   -5.0937 H   0  0  0  0  0  0  0  0  0  0  0  0
   -1.3159    0.0593   -3.6525 C   0  0  0  0  0  0  0  0  0  0  0  0
   -0.7676    0.2748   -2.8517 H   0  0  0  0  0  0  0  0  0  0  0  0
   -1.5386    0.8894   -4.1524 H   0  0  0  0  0  0  0  0  0  0  0  0
   -2.5816   -0.6044   -3.2164 N   0  0  0  0  0  4  0  0  0  0  0  0
   -3.3555   -0.1668   -3.6710 H   0  0  0  0  0  0  0  0  0  0  0  0
   -2.5483   -1.5714   -3.4636 H   0  0  0  0  0  0  0  0  0  0  0  0
   -2.6766   -0.5126   -2.2263 H   0  0  0  0  0  0  0  0  0  0  0  0
   -0.0227    2.8929   -0.0082 C   0  0  0  0  0  0  0  0  0  0  0  0
   -0.7847    3.1902   -0.5700 H   0  0  0  0  0  0  0  0  0  0  0  0
    0.8382    3.2064   -0.3874 H   0  0  0  0  0  0  0  0  0  0  0  0
   -0.1377    3.3569    0.9713 H   0  0  0  0  0  0  0  0  0  0  0  0
   -0.0094    1.3994    0.0117 C   0  0  0  0  0  0  0  0  0  0  0  0
   -1.2004    0.6837   -0.0177 C   0  0  0  0  0  0  0  0  0  0  0  0
   -2.0700    1.1827   -0.0540 H   0  0  0  0  0  0  0  0  0  0  0  0
   -1.2110   -0.6905   -0.0000 C   0  0  0  0  0  0  0  0  0  0  0  0
   -2.0767   -1.1962    0.0172 H   0  0  0  0  0  0  0  0  0  0  0  0
    0.0084   -1.3941   -0.0037 C   0  0  0  0  0  0  0  0  0  0  0  0
   -0.0007   -2.3886   -0.0091 H   0  0  0  0  0  0  0  0  0  0  0  0
    1.2110   -0.6933   -0.0000 C   0  0  0  0  0  0  0  0  0  0  0  0
    2.0915   -1.1910   -0.0030 H   0  0  0  0  0  0  0  0  0  0  0  0
    1.2014    0.6949    0.0097 C   0  0  0  0  0  0  0  0  0  0  0  0
    2.0611    1.2000    0.0145 H   0  0  0  0  0  0  0  0  0  0  0  0
  1  5  1  0
  5  8  1  0
  1  2  1  0
  1  3  1  0
  1  4  1  0
  5  6  1  0
  5  7  1  0
  8  9  1  0
  8 10  1  0
  8 11  1  0
 12 16  1  0
 16 17  2  0
 17 19  1  0
 19 21  2  0
 21 23  1  0
 23 25  2  0
 25 16  1  0
 12 13  1  0
 12 14  1  0
 12 15  1  0
 17 18  1  0
 19 20  1  0
 21 22  1  0
 23 24  1  0
 25 26  1  0
M  CHG  1   8   1
M  END
>  <PDB_ID>  (2178) 
pdb3mmy

>  <RESIDUE_NAME>  (2178) 
LYS   PHE

>  <FRAG_NAME>  (2178) 
ETAM   MBZ

>  <FRAG_ATOM_NUM>  (2178) 
fragi: 11  fragj: 15

>  <atom.prop.CHAIN_ID>  (2178) 
A A A A A A A A A A A Z Z Z Z Z Z Z Z Z Z Z Z Z Z Z

>  <atom.prop.IS_HEAVY_ATOM>  (2178) 
1 0 0 0 1 0 0 1 0 0 0 1 0 0 0 1 1 0 1 0 1 0 1 0 1 0

>  <DIFUSE_FUNC_ATOM>  (2178) 
n/a

>  <FINAL_SINGLE_POINT_ENERGY>  (2178) 
0

>  <NONCOV_INTER_ENERGY_QM>  (2178) 
0

>  <FF_Energy>  (2178) 
-4.59

>  <QM_Energy>  (2178) 
-10.94

>  <source>  (2178) 
ETAM_MBZ

>  <Index>  (2178) 
22614

$$$$
ETAM-pdb3mtc-A-LYS-338:MBZ-pdb3mtc-A-PHE-323
     RDKit          3D

 26 25  0  0  0  0  0  0  0  0999 V2000
    0.4934   -4.7786    0.3640 C   0  0  0  0  0  0  0  0  0  0  0  0
    0.7664   -5.7058    0.1408 H   0  0  0  0  0  0  0  0  0  0  0  0
    0.6471   -4.1711   -0.4051 H   0  0  0  0  0  0  0  0  0  0  0  0
   -0.5680   -4.7738    0.6121 H   0  0  0  0  0  0  0  0  0  0  0  0
    1.3361   -4.2944    1.5408 C   0  0  0  0  0  0  0  0  0  0  0  0
    0.9972   -3.4023    1.8358 H   0  0  0  0  0  0  0  0  0  0  0  0
    1.2517   -4.9490    2.2907 H   0  0  0  0  0  0  0  0  0  0  0  0
    2.7745   -4.1710    1.1564 N   0  0  0  0  0  4  0  0  0  0  0  0
    2.9275   -4.6545    0.2966 H   0  0  0  0  0  0  0  0  0  0  0  0
    3.0036   -3.2050    1.0455 H   0  0  0  0  0  0  0  0  0  0  0  0
    3.3418   -4.5709    1.8736 H   0  0  0  0  0  0  0  0  0  0  0  0
   -0.0124    2.9000    0.0009 C   0  0  0  0  0  0  0  0  0  0  0  0
   -0.6619    3.2088   -0.6789 H   0  0  0  0  0  0  0  0  0  0  0  0
    0.9001    3.2247   -0.2040 H   0  0  0  0  0  0  0  0  0  0  0  0
   -0.3075    3.3359    0.9554 H   0  0  0  0  0  0  0  0  0  0  0  0
    0.0038    1.4119   -0.0022 C   0  0  0  0  0  0  0  0  0  0  0  0
   -1.2014    0.6959    0.0095 C   0  0  0  0  0  0  0  0  0  0  0  0
   -2.0674    1.1924    0.0236 H   0  0  0  0  0  0  0  0  0  0  0  0
   -1.2243   -0.7059   -0.0000 C   0  0  0  0  0  0  0  0  0  0  0  0
   -2.0988   -1.1887   -0.0048 H   0  0  0  0  0  0  0  0  0  0  0  0
   -0.0164   -1.4120   -0.0007 C   0  0  0  0  0  0  0  0  0  0  0  0
   -0.0106   -2.4028   -0.0027 H   0  0  0  0  0  0  0  0  0  0  0  0
    1.2243   -0.7025    0.0000 C   0  0  0  0  0  0  0  0  0  0  0  0
    2.0879   -1.2004    0.0071 H   0  0  0  0  0  0  0  0  0  0  0  0
    1.2140    0.7126   -0.0066 C   0  0  0  0  0  0  0  0  0  0  0  0
    2.0760    1.2042   -0.0148 H   0  0  0  0  0  0  0  0  0  0  0  0
  1  5  1  0
  5  8  1  0
  1  2  1  0
  1  3  1  0
  1  4  1  0
  5  6  1  0
  5  7  1  0
  8  9  1  0
  8 10  1  0
  8 11  1  0
 12 16  1  0
 16 17  2  0
 17 19  1  0
 19 21  2  0
 21 23  1  0
 23 25  2  0
 25 16  1  0
 12 13  1  0
 12 14  1  0
 12 15  1  0
 17 18  1  0
 19 20  1  0
 21 22  1  0
 23 24  1  0
 25 26  1  0
M  CHG  1   8   1
M  END
>  <PDB_ID>  (2179) 
pdb3mtc

>  <RESIDUE_NAME>  (2179) 
LYS   PHE

>  <FRAG_NAME>  (2179) 
ETAM   MBZ

>  <FRAG_ATOM_NUM>  (2179) 
fragi: 11  fragj: 15

>  <atom.prop.CHAIN_ID>  (2179) 
A A A A A A A A A A A Z Z Z Z Z Z Z Z Z Z Z Z Z Z Z

>  <atom.prop.IS_HEAVY_ATOM>  (2179) 
1 0 0 0 1 0 0 1 0 0 0 1 0 0 0 1 1 0 1 0 1 0 1 0 1 0

>  <DIFUSE_FUNC_ATOM>  (2179) 
n/a

>  <FINAL_SINGLE_POINT_ENERGY>  (2179) 
0

>  <NONCOV_INTER_ENERGY_QM>  (2179) 
0

>  <FF_Energy>  (2179) 
3.32

>  <QM_Energy>  (2179) 
-3.22

>  <source>  (2179) 
ETAM_MBZ

>  <Index>  (2179) 
22619

$$$$
ETAM-pdb3mud-C-LYS-220:MBZ-pdb3mud-C-PHE-216
     RDKit          3D

 26 25  0  0  0  0  0  0  0  0999 V2000
   -2.7959   -2.0441   -3.7406 C   0  0  0  0  0  0  0  0  0  0  0  0
   -3.0673   -1.2604   -3.1910 H   0  0  0  0  0  0  0  0  0  0  0  0
   -3.5551   -2.6785   -3.8389 H   0  0  0  0  0  0  0  0  0  0  0  0
   -2.4979   -1.6947   -4.7292 H   0  0  0  0  0  0  0  0  0  0  0  0
   -1.6542   -2.7610   -3.0316 C   0  0  0  0  0  0  0  0  0  0  0  0
   -1.2671   -3.4473   -3.6538 H   0  0  0  0  0  0  0  0  0  0  0  0
   -0.9409   -2.0908   -2.8059 H   0  0  0  0  0  0  0  0  0  0  0  0
   -2.1087   -3.4315   -1.7837 N   0  0  0  0  0  4  0  0  0  0  0  0
   -1.6768   -4.3308   -1.7138 H   0  0  0  0  0  0  0  0  0  0  0  0
   -1.8515   -2.8746   -0.9945 H   0  0  0  0  0  0  0  0  0  0  0  0
   -3.1024   -3.5390   -1.8079 H   0  0  0  0  0  0  0  0  0  0  0  0
   -0.0007    2.9073   -0.0022 C   0  0  0  0  0  0  0  0  0  0  0  0
    0.7154    3.2134    0.6060 H   0  0  0  0  0  0  0  0  0  0  0  0
   -0.8896    3.2127    0.3047 H   0  0  0  0  0  0  0  0  0  0  0  0
    0.1829    3.3493   -0.9814 H   0  0  0  0  0  0  0  0  0  0  0  0
    0.0003    1.4027   -0.0024 C   0  0  0  0  0  0  0  0  0  0  0  0
   -1.1975    0.6944   -0.0003 C   0  0  0  0  0  0  0  0  0  0  0  0
   -2.0638    1.1851    0.0002 H   0  0  0  0  0  0  0  0  0  0  0  0
   -1.2034   -0.6977    0.0000 C   0  0  0  0  0  0  0  0  0  0  0  0
   -2.0794   -1.1904    0.0003 H   0  0  0  0  0  0  0  0  0  0  0  0
   -0.0012   -1.3949    0.0017 C   0  0  0  0  0  0  0  0  0  0  0  0
   -0.0049   -2.3933    0.0038 H   0  0  0  0  0  0  0  0  0  0  0  0
    1.2034   -0.6981    0.0000 C   0  0  0  0  0  0  0  0  0  0  0  0
    2.0827   -1.1958   -0.0008 H   0  0  0  0  0  0  0  0  0  0  0  0
    1.1983    0.6935    0.0010 C   0  0  0  0  0  0  0  0  0  0  0  0
    2.0662    1.1901    0.0028 H   0  0  0  0  0  0  0  0  0  0  0  0
  1  5  1  0
  5  8  1  0
  1  2  1  0
  1  3  1  0
  1  4  1  0
  5  6  1  0
  5  7  1  0
  8  9  1  0
  8 10  1  0
  8 11  1  0
 12 16  1  0
 16 17  2  0
 17 19  1  0
 19 21  2  0
 21 23  1  0
 23 25  2  0
 25 16  1  0
 12 13  1  0
 12 14  1  0
 12 15  1  0
 17 18  1  0
 19 20  1  0
 21 22  1  0
 23 24  1  0
 25 26  1  0
M  CHG  1   8   1
M  END
>  <PDB_ID>  (2180) 
pdb3mud

>  <RESIDUE_NAME>  (2180) 
LYS   PHE

>  <FRAG_NAME>  (2180) 
ETAM   MBZ

>  <FRAG_ATOM_NUM>  (2180) 
fragi: 11  fragj: 15

>  <atom.prop.CHAIN_ID>  (2180) 
A A A A A A A A A A A Z Z Z Z Z Z Z Z Z Z Z Z Z Z Z

>  <atom.prop.IS_HEAVY_ATOM>  (2180) 
1 0 0 0 1 0 0 1 0 0 0 1 0 0 0 1 1 0 1 0 1 0 1 0 1 0

>  <DIFUSE_FUNC_ATOM>  (2180) 
n/a

>  <FINAL_SINGLE_POINT_ENERGY>  (2180) 
0

>  <NONCOV_INTER_ENERGY_QM>  (2180) 
0

>  <FF_Energy>  (2180) 
-0.57

>  <QM_Energy>  (2180) 
-7.66

>  <source>  (2180) 
ETAM_MBZ

>  <Index>  (2180) 
22637

$$$$
ETAM-pdb3mud-D-LYS-220:MBZ-pdb3mud-D-PHE-216
     RDKit          3D

 26 25  0  0  0  0  0  0  0  0999 V2000
    2.2227   -0.9095    4.1070 C   0  0  0  0  0  0  0  0  0  0  0  0
    2.9147   -0.2027    3.9489 H   0  0  0  0  0  0  0  0  0  0  0  0
    2.6420   -1.6831    4.5849 H   0  0  0  0  0  0  0  0  0  0  0  0
    1.4363   -0.4931    4.7366 H   0  0  0  0  0  0  0  0  0  0  0  0
    1.7058   -1.3889    2.7706 C   0  0  0  0  0  0  0  0  0  0  0  0
    1.0171   -2.0981    2.9201 H   0  0  0  0  0  0  0  0  0  0  0  0
    1.2897   -0.6200    2.2844 H   0  0  0  0  0  0  0  0  0  0  0  0
    2.8103   -1.9455    1.9495 N   0  0  0  0  0  4  0  0  0  0  0  0
    2.4737   -2.7281    1.4248 H   0  0  0  0  0  0  0  0  0  0  0  0
    3.1455   -1.2435    1.3212 H   0  0  0  0  0  0  0  0  0  0  0  0
    3.5555   -2.2407    2.5477 H   0  0  0  0  0  0  0  0  0  0  0  0
    0.0013    2.8468   -0.0097 C   0  0  0  0  0  0  0  0  0  0  0  0
   -0.6565    3.1562   -0.6880 H   0  0  0  0  0  0  0  0  0  0  0  0
    0.9160    3.1579   -0.2455 H   0  0  0  0  0  0  0  0  0  0  0  0
   -0.2677    3.2972    0.9457 H   0  0  0  0  0  0  0  0  0  0  0  0
   -0.0005    1.3725    0.0028 C   0  0  0  0  0  0  0  0  0  0  0  0
   -1.1809    0.6779   -0.0029 C   0  0  0  0  0  0  0  0  0  0  0  0
   -2.0508    1.1737   -0.0105 H   0  0  0  0  0  0  0  0  0  0  0  0
   -1.1772   -0.6815   -0.0000 C   0  0  0  0  0  0  0  0  0  0  0  0
   -2.0589   -1.1869    0.0016 H   0  0  0  0  0  0  0  0  0  0  0  0
    0.0049   -1.3585    0.0030 C   0  0  0  0  0  0  0  0  0  0  0  0
   -0.0032   -2.3713    0.0068 H   0  0  0  0  0  0  0  0  0  0  0  0
    1.1772   -0.6848    0.0000 C   0  0  0  0  0  0  0  0  0  0  0  0
    2.0675   -1.1890    0.0012 H   0  0  0  0  0  0  0  0  0  0  0  0
    1.1764    0.6744   -0.0029 C   0  0  0  0  0  0  0  0  0  0  0  0
    2.0502    1.1776   -0.0106 H   0  0  0  0  0  0  0  0  0  0  0  0
  1  5  1  0
  5  8  1  0
  1  2  1  0
  1  3  1  0
  1  4  1  0
  5  6  1  0
  5  7  1  0
  8  9  1  0
  8 10  1  0
  8 11  1  0
 12 16  1  0
 16 17  2  0
 17 19  1  0
 19 21  2  0
 21 23  1  0
 23 25  2  0
 25 16  1  0
 12 13  1  0
 12 14  1  0
 12 15  1  0
 17 18  1  0
 19 20  1  0
 21 22  1  0
 23 24  1  0
 25 26  1  0
M  CHG  1   8   1
M  END
>  <PDB_ID>  (2181) 
pdb3mud

>  <RESIDUE_NAME>  (2181) 
LYS   PHE

>  <FRAG_NAME>  (2181) 
ETAM   MBZ

>  <FRAG_ATOM_NUM>  (2181) 
fragi: 11  fragj: 15

>  <atom.prop.CHAIN_ID>  (2181) 
A A A A A A A A A A A Z Z Z Z Z Z Z Z Z Z Z Z Z Z Z

>  <atom.prop.IS_HEAVY_ATOM>  (2181) 
1 0 0 0 1 0 0 1 0 0 0 1 0 0 0 1 1 0 1 0 1 0 1 0 1 0

>  <DIFUSE_FUNC_ATOM>  (2181) 
n/a

>  <FINAL_SINGLE_POINT_ENERGY>  (2181) 
0

>  <NONCOV_INTER_ENERGY_QM>  (2181) 
0

>  <FF_Energy>  (2181) 
12.99

>  <QM_Energy>  (2181) 
-1.54

>  <source>  (2181) 
ETAM_MBZ

>  <Index>  (2181) 
22638

$$$$
ETAM-pdb3mva-O-LYS-253:MBZ-pdb3mva-O-PHE-217
     RDKit          3D

 26 25  0  0  0  0  0  0  0  0999 V2000
   -4.1103   -2.5971   -1.6272 C   0  0  0  0  0  0  0  0  0  0  0  0
   -4.7496   -2.9872   -2.2764 H   0  0  0  0  0  0  0  0  0  0  0  0
   -4.5707   -2.3328   -0.7905 H   0  0  0  0  0  0  0  0  0  0  0  0
   -3.3541   -3.3452   -1.3893 H   0  0  0  0  0  0  0  0  0  0  0  0
   -3.4830   -1.3427   -2.2555 C   0  0  0  0  0  0  0  0  0  0  0  0
   -2.7464   -1.0105   -1.6417 H   0  0  0  0  0  0  0  0  0  0  0  0
   -3.0441   -1.6078   -3.1321 H   0  0  0  0  0  0  0  0  0  0  0  0
   -4.4386   -0.2133   -2.5172 N   0  0  0  0  0  4  0  0  0  0  0  0
   -4.7985   -0.3003   -3.4437 H   0  0  0  0  0  0  0  0  0  0  0  0
   -5.1842   -0.2594   -1.8564 H   0  0  0  0  0  0  0  0  0  0  0  0
   -3.9524    0.6523   -2.4212 H   0  0  0  0  0  0  0  0  0  0  0  0
    0.0064    2.9008    0.0144 C   0  0  0  0  0  0  0  0  0  0  0  0
   -0.7996    3.2106   -0.4634 H   0  0  0  0  0  0  0  0  0  0  0  0
    0.8336    3.2047   -0.4322 H   0  0  0  0  0  0  0  0  0  0  0  0
   -0.0113    3.3317    1.0155 H   0  0  0  0  0  0  0  0  0  0  0  0
    0.0007    1.3924    0.0040 C   0  0  0  0  0  0  0  0  0  0  0  0
   -1.1858    0.6894    0.0008 C   0  0  0  0  0  0  0  0  0  0  0  0
   -2.0559    1.1793   -0.0017 H   0  0  0  0  0  0  0  0  0  0  0  0
   -1.1876   -0.6905   -0.0000 C   0  0  0  0  0  0  0  0  0  0  0  0
   -2.0693   -1.1865    0.0041 H   0  0  0  0  0  0  0  0  0  0  0  0
    0.0015   -1.3815   -0.0048 C   0  0  0  0  0  0  0  0  0  0  0  0
   -0.0053   -2.3853   -0.0121 H   0  0  0  0  0  0  0  0  0  0  0  0
    1.1876   -0.6944   -0.0000 C   0  0  0  0  0  0  0  0  0  0  0  0
    2.0745   -1.1922    0.0047 H   0  0  0  0  0  0  0  0  0  0  0  0
    1.1836    0.6846   -0.0001 C   0  0  0  0  0  0  0  0  0  0  0  0
    2.0584    1.1814   -0.0041 H   0  0  0  0  0  0  0  0  0  0  0  0
  1  5  1  0
  5  8  1  0
  1  2  1  0
  1  3  1  0
  1  4  1  0
  5  6  1  0
  5  7  1  0
  8  9  1  0
  8 10  1  0
  8 11  1  0
 12 16  1  0
 16 17  2  0
 17 19  1  0
 19 21  2  0
 21 23  1  0
 23 25  2  0
 25 16  1  0
 12 13  1  0
 12 14  1  0
 12 15  1  0
 17 18  1  0
 19 20  1  0
 21 22  1  0
 23 24  1  0
 25 26  1  0
M  CHG  1   8   1
M  END
>  <PDB_ID>  (2182) 
pdb3mva

>  <RESIDUE_NAME>  (2182) 
LYS   PHE

>  <FRAG_NAME>  (2182) 
ETAM   MBZ

>  <FRAG_ATOM_NUM>  (2182) 
fragi: 11  fragj: 15

>  <atom.prop.CHAIN_ID>  (2182) 
A A A A A A A A A A A Z Z Z Z Z Z Z Z Z Z Z Z Z Z Z

>  <atom.prop.IS_HEAVY_ATOM>  (2182) 
1 0 0 0 1 0 0 1 0 0 0 1 0 0 0 1 1 0 1 0 1 0 1 0 1 0

>  <DIFUSE_FUNC_ATOM>  (2182) 
n/a

>  <FINAL_SINGLE_POINT_ENERGY>  (2182) 
0

>  <NONCOV_INTER_ENERGY_QM>  (2182) 
0

>  <FF_Energy>  (2182) 
6.62

>  <QM_Energy>  (2182) 
-2.43

>  <source>  (2182) 
ETAM_MBZ

>  <Index>  (2182) 
22643

$$$$
ETAM-pdb4k02-B-LYS-123:MBZ-pdb4k02-B-PHE-93
     RDKit          3D

 26 25  0  0  0  0  0  0  0  0999 V2000
   -0.7203    1.3879   -5.1094 C   0  0  0  0  0  0  0  0  0  0  0  0
   -0.3707    0.7863   -5.8153 H   0  0  0  0  0  0  0  0  0  0  0  0
   -0.8750    2.2997   -5.4663 H   0  0  0  0  0  0  0  0  0  0  0  0
   -1.6644    0.9872   -4.7404 H   0  0  0  0  0  0  0  0  0  0  0  0
    0.2959    1.4690   -3.9883 C   0  0  0  0  0  0  0  0  0  0  0  0
    1.1628    1.7812   -4.3552 H   0  0  0  0  0  0  0  0  0  0  0  0
   -0.0357    2.0918   -3.2909 H   0  0  0  0  0  0  0  0  0  0  0  0
    0.4683    0.1152   -3.3992 N   0  0  0  0  0  4  0  0  0  0  0  0
    0.4190    0.1777   -2.4023 H   0  0  0  0  0  0  0  0  0  0  0  0
   -0.2569   -0.4867   -3.7323 H   0  0  0  0  0  0  0  0  0  0  0  0
    1.3581   -0.2533   -3.6670 H   0  0  0  0  0  0  0  0  0  0  0  0
    0.0025    2.8917   -0.0018 C   0  0  0  0  0  0  0  0  0  0  0  0
   -0.6774    3.2031   -0.6483 H   0  0  0  0  0  0  0  0  0  0  0  0
    0.9072    3.2002   -0.2545 H   0  0  0  0  0  0  0  0  0  0  0  0
   -0.2376    3.3299    0.9669 H   0  0  0  0  0  0  0  0  0  0  0  0
    0.0004    1.3941   -0.0034 C   0  0  0  0  0  0  0  0  0  0  0  0
   -1.1969    0.6874    0.0048 C   0  0  0  0  0  0  0  0  0  0  0  0
   -2.0616    1.1823    0.0130 H   0  0  0  0  0  0  0  0  0  0  0  0
   -1.1997   -0.6934    0.0000 C   0  0  0  0  0  0  0  0  0  0  0  0
   -2.0755   -1.1924   -0.0049 H   0  0  0  0  0  0  0  0  0  0  0  0
   -0.0003   -1.3835    0.0040 C   0  0  0  0  0  0  0  0  0  0  0  0
   -0.0045   -2.3863    0.0089 H   0  0  0  0  0  0  0  0  0  0  0  0
    1.1997   -0.6938    0.0000 C   0  0  0  0  0  0  0  0  0  0  0  0
    2.0800   -1.1957    0.0028 H   0  0  0  0  0  0  0  0  0  0  0  0
    1.1968    0.6892   -0.0055 C   0  0  0  0  0  0  0  0  0  0  0  0
    2.0633    1.1883   -0.0117 H   0  0  0  0  0  0  0  0  0  0  0  0
  1  5  1  0
  5  8  1  0
  1  2  1  0
  1  3  1  0
  1  4  1  0
  5  6  1  0
  5  7  1  0
  8  9  1  0
  8 10  1  0
  8 11  1  0
 12 16  1  0
 16 17  2  0
 17 19  1  0
 19 21  2  0
 21 23  1  0
 23 25  2  0
 25 16  1  0
 12 13  1  0
 12 14  1  0
 12 15  1  0
 17 18  1  0
 19 20  1  0
 21 22  1  0
 23 24  1  0
 25 26  1  0
M  CHG  1   8   1
M  END
>  <PDB_ID>  (2183) 
pdb4k02

>  <RESIDUE_NAME>  (2183) 
LYS   PHE

>  <FRAG_NAME>  (2183) 
ETAM   MBZ

>  <FRAG_ATOM_NUM>  (2183) 
fragi: 11  fragj: 15

>  <atom.prop.CHAIN_ID>  (2183) 
A A A A A A A A A A A Z Z Z Z Z Z Z Z Z Z Z Z Z Z Z

>  <atom.prop.IS_HEAVY_ATOM>  (2183) 
1 0 0 0 1 0 0 1 0 0 0 1 0 0 0 1 1 0 1 0 1 0 1 0 1 0

>  <DIFUSE_FUNC_ATOM>  (2183) 
n/a

>  <FINAL_SINGLE_POINT_ENERGY>  (2183) 
0

>  <NONCOV_INTER_ENERGY_QM>  (2183) 
0

>  <FF_Energy>  (2183) 
-9.22

>  <QM_Energy>  (2183) 
-15.88

>  <source>  (2183) 
ETAM_MBZ

>  <Index>  (2183) 
22648

$$$$
ETAM-pdb4k06-B-LYS-122:MBZ-pdb4k06-A-PHE-3
     RDKit          3D

 26 25  0  0  0  0  0  0  0  0999 V2000
   -4.4605   -0.8645    2.4635 C   0  0  0  0  0  0  0  0  0  0  0  0
   -4.2053    0.0788    2.6805 H   0  0  0  0  0  0  0  0  0  0  0  0
   -3.6572   -1.4543    2.5612 H   0  0  0  0  0  0  0  0  0  0  0  0
   -5.2238   -1.1913    3.1696 H   0  0  0  0  0  0  0  0  0  0  0  0
   -4.9307   -0.9208    1.0286 C   0  0  0  0  0  0  0  0  0  0  0  0
   -5.1833   -1.8618    0.8032 H   0  0  0  0  0  0  0  0  0  0  0  0
   -5.7302   -0.3285    0.9218 H   0  0  0  0  0  0  0  0  0  0  0  0
   -3.8602   -0.4670    0.1067 N   0  0  0  0  0  4  0  0  0  0  0  0
   -4.0083   -0.8662   -0.7983 H   0  0  0  0  0  0  0  0  0  0  0  0
   -3.8799    0.5307    0.0374 H   0  0  0  0  0  0  0  0  0  0  0  0
   -2.9711   -0.7591    0.4582 H   0  0  0  0  0  0  0  0  0  0  0  0
    0.0008    2.8987    0.0026 C   0  0  0  0  0  0  0  0  0  0  0  0
    0.8903    3.2044   -0.3021 H   0  0  0  0  0  0  0  0  0  0  0  0
   -0.1866    3.2052    0.9244 H   0  0  0  0  0  0  0  0  0  0  0  0
   -0.7479    3.3399   -0.6554 H   0  0  0  0  0  0  0  0  0  0  0  0
   -0.0006    1.3975    0.0029 C   0  0  0  0  0  0  0  0  0  0  0  0
   -1.1944    0.6905   -0.0026 C   0  0  0  0  0  0  0  0  0  0  0  0
   -2.0611    1.1810   -0.0084 H   0  0  0  0  0  0  0  0  0  0  0  0
   -1.1977   -0.6966   -0.0000 C   0  0  0  0  0  0  0  0  0  0  0  0
   -2.0741   -1.1921    0.0015 H   0  0  0  0  0  0  0  0  0  0  0  0
    0.0012   -1.3889    0.0010 C   0  0  0  0  0  0  0  0  0  0  0  0
   -0.0013   -2.3889    0.0014 H   0  0  0  0  0  0  0  0  0  0  0  0
    1.1977   -0.6937    0.0000 C   0  0  0  0  0  0  0  0  0  0  0  0
    2.0812   -1.1927    0.0024 H   0  0  0  0  0  0  0  0  0  0  0  0
    1.1938    0.6912   -0.0013 C   0  0  0  0  0  0  0  0  0  0  0  0
    2.0625    1.1899   -0.0071 H   0  0  0  0  0  0  0  0  0  0  0  0
  1  5  1  0
  5  8  1  0
  1  2  1  0
  1  3  1  0
  1  4  1  0
  5  6  1  0
  5  7  1  0
  8  9  1  0
  8 10  1  0
  8 11  1  0
 12 16  1  0
 16 17  2  0
 17 19  1  0
 19 21  2  0
 21 23  1  0
 23 25  2  0
 25 16  1  0
 12 13  1  0
 12 14  1  0
 12 15  1  0
 17 18  1  0
 19 20  1  0
 21 22  1  0
 23 24  1  0
 25 26  1  0
M  CHG  1   8   1
M  END
>  <PDB_ID>  (2184) 
pdb4k06

>  <RESIDUE_NAME>  (2184) 
LYS   PHE

>  <FRAG_NAME>  (2184) 
ETAM   MBZ

>  <FRAG_ATOM_NUM>  (2184) 
fragi: 11  fragj: 15

>  <atom.prop.CHAIN_ID>  (2184) 
A A A A A A A A A A A Z Z Z Z Z Z Z Z Z Z Z Z Z Z Z

>  <atom.prop.IS_HEAVY_ATOM>  (2184) 
1 0 0 0 1 0 0 1 0 0 0 1 0 0 0 1 1 0 1 0 1 0 1 0 1 0

>  <DIFUSE_FUNC_ATOM>  (2184) 
n/a

>  <FINAL_SINGLE_POINT_ENERGY>  (2184) 
0

>  <NONCOV_INTER_ENERGY_QM>  (2184) 
0

>  <FF_Energy>  (2184) 
47.26

>  <QM_Energy>  (2184) 
16.0

>  <source>  (2184) 
ETAM_MBZ

>  <Index>  (2184) 
22651

$$$$
ETAM-pdb3mmy-E-LYS-302:MBZ-pdb3mmy-E-PHE-221
     RDKit          3D

 26 25  0  0  0  0  0  0  0  0999 V2000
   -0.5766   -0.9618   -4.4643 C   0  0  0  0  0  0  0  0  0  0  0  0
   -1.2316   -1.3930   -5.0737 H   0  0  0  0  0  0  0  0  0  0  0  0
   -0.1097   -1.6444   -3.9141 H   0  0  0  0  0  0  0  0  0  0  0  0
    0.1548   -0.4077   -5.0525 H   0  0  0  0  0  0  0  0  0  0  0  0
   -1.3358   -0.0302   -3.5284 C   0  0  0  0  0  0  0  0  0  0  0  0
   -0.8082    0.0864   -2.6906 H   0  0  0  0  0  0  0  0  0  0  0  0
   -1.4574    0.8509   -3.9784 H   0  0  0  0  0  0  0  0  0  0  0  0
   -2.6650   -0.6044   -3.1994 N   0  0  0  0  0  4  0  0  0  0  0  0
   -2.7102   -1.5482   -3.5266 H   0  0  0  0  0  0  0  0  0  0  0  0
   -2.7997   -0.5878   -2.2086 H   0  0  0  0  0  0  0  0  0  0  0  0
   -3.3807   -0.0629   -3.6414 H   0  0  0  0  0  0  0  0  0  0  0  0
   -0.0394    2.9092    0.0034 C   0  0  0  0  0  0  0  0  0  0  0  0
   -0.8257    3.1959   -0.5276 H   0  0  0  0  0  0  0  0  0  0  0  0
    0.8025    3.2273   -0.4118 H   0  0  0  0  0  0  0  0  0  0  0  0
   -0.1183    3.3757    0.9854 H   0  0  0  0  0  0  0  0  0  0  0  0
   -0.0115    1.4027    0.0209 C   0  0  0  0  0  0  0  0  0  0  0  0
   -1.2063    0.6864   -0.0113 C   0  0  0  0  0  0  0  0  0  0  0  0
   -2.0745    1.1803   -0.0442 H   0  0  0  0  0  0  0  0  0  0  0  0
   -1.2167   -0.7007   -0.0000 C   0  0  0  0  0  0  0  0  0  0  0  0
   -2.0768   -1.2040    0.0166 H   0  0  0  0  0  0  0  0  0  0  0  0
    0.0136   -1.3970   -0.0098 C   0  0  0  0  0  0  0  0  0  0  0  0
    0.0086   -2.3928   -0.0244 H   0  0  0  0  0  0  0  0  0  0  0  0
    1.2167   -0.6914    0.0000 C   0  0  0  0  0  0  0  0  0  0  0  0
    2.0976   -1.1863    0.0088 H   0  0  0  0  0  0  0  0  0  0  0  0
    1.2042    0.6999    0.0002 C   0  0  0  0  0  0  0  0  0  0  0  0
    2.0614    1.2059   -0.0153 H   0  0  0  0  0  0  0  0  0  0  0  0
  1  5  1  0
  5  8  1  0
  1  2  1  0
  1  3  1  0
  1  4  1  0
  5  6  1  0
  5  7  1  0
  8  9  1  0
  8 10  1  0
  8 11  1  0
 12 16  1  0
 16 17  2  0
 17 19  1  0
 19 21  2  0
 21 23  1  0
 23 25  2  0
 25 16  1  0
 12 13  1  0
 12 14  1  0
 12 15  1  0
 17 18  1  0
 19 20  1  0
 21 22  1  0
 23 24  1  0
 25 26  1  0
M  CHG  1   8   1
M  END
>  <PDB_ID>  (2185) 
pdb3mmy

>  <RESIDUE_NAME>  (2185) 
LYS   PHE

>  <FRAG_NAME>  (2185) 
ETAM   MBZ

>  <FRAG_ATOM_NUM>  (2185) 
fragi: 11  fragj: 15

>  <atom.prop.CHAIN_ID>  (2185) 
A A A A A A A A A A A Z Z Z Z Z Z Z Z Z Z Z Z Z Z Z

>  <atom.prop.IS_HEAVY_ATOM>  (2185) 
1 0 0 0 1 0 0 1 0 0 0 1 0 0 0 1 1 0 1 0 1 0 1 0 1 0

>  <DIFUSE_FUNC_ATOM>  (2185) 
n/a

>  <FINAL_SINGLE_POINT_ENERGY>  (2185) 
0

>  <NONCOV_INTER_ENERGY_QM>  (2185) 
0

>  <FF_Energy>  (2185) 
-4.29

>  <QM_Energy>  (2185) 
-10.68

>  <source>  (2185) 
ETAM_MBZ

>  <Index>  (2185) 
22670

$$$$
ETAM-pdb3mw6-C-LYS-42:MBZ-pdb3mw6-C-PHE-88
     RDKit          3D

 26 25  0  0  0  0  0  0  0  0999 V2000
    0.2849    0.3540    3.7889 C   0  0  0  0  0  0  0  0  0  0  0  0
   -0.2156    1.1508    4.1246 H   0  0  0  0  0  0  0  0  0  0  0  0
    0.3490    0.3923    2.7930 H   0  0  0  0  0  0  0  0  0  0  0  0
    1.2889    0.3594    4.2129 H   0  0  0  0  0  0  0  0  0  0  0  0
   -0.4678   -0.8860    4.1750 C   0  0  0  0  0  0  0  0  0  0  0  0
    0.0789   -1.6870    3.9555 H   0  0  0  0  0  0  0  0  0  0  0  0
   -0.6693   -0.8617    5.1491 H   0  0  0  0  0  0  0  0  0  0  0  0
   -1.7343   -0.9332    3.4139 N   0  0  0  0  0  4  0  0  0  0  0  0
   -1.7539   -1.7560    2.8441 H   0  0  0  0  0  0  0  0  0  0  0  0
   -2.5083   -0.9527    4.0490 H   0  0  0  0  0  0  0  0  0  0  0  0
   -1.8063   -0.1231    2.8296 H   0  0  0  0  0  0  0  0  0  0  0  0
    0.0032    2.8881   -0.0271 C   0  0  0  0  0  0  0  0  0  0  0  0
    0.6933    3.2069    0.6073 H   0  0  0  0  0  0  0  0  0  0  0  0
   -0.8963    3.2066    0.2343 H   0  0  0  0  0  0  0  0  0  0  0  0
    0.2320    3.3101   -1.0057 H   0  0  0  0  0  0  0  0  0  0  0  0
   -0.0021    1.3960   -0.0021 C   0  0  0  0  0  0  0  0  0  0  0  0
   -1.1994    0.6901   -0.0036 C   0  0  0  0  0  0  0  0  0  0  0  0
   -2.0642    1.1836   -0.0087 H   0  0  0  0  0  0  0  0  0  0  0  0
   -1.2035   -0.6941    0.0000 C   0  0  0  0  0  0  0  0  0  0  0  0
   -2.0764   -1.1936    0.0010 H   0  0  0  0  0  0  0  0  0  0  0  0
    0.0030   -1.3888    0.0035 C   0  0  0  0  0  0  0  0  0  0  0  0
   -0.0016   -2.3883    0.0084 H   0  0  0  0  0  0  0  0  0  0  0  0
    1.2035   -0.6931   -0.0000 C   0  0  0  0  0  0  0  0  0  0  0  0
    2.0847   -1.1939   -0.0028 H   0  0  0  0  0  0  0  0  0  0  0  0
    1.1986    0.6899    0.0022 C   0  0  0  0  0  0  0  0  0  0  0  0
    2.0630    1.1916    0.0064 H   0  0  0  0  0  0  0  0  0  0  0  0
  1  5  1  0
  5  8  1  0
  1  2  1  0
  1  3  1  0
  1  4  1  0
  5  6  1  0
  5  7  1  0
  8  9  1  0
  8 10  1  0
  8 11  1  0
 12 16  1  0
 16 17  2  0
 17 19  1  0
 19 21  2  0
 21 23  1  0
 23 25  2  0
 25 16  1  0
 12 13  1  0
 12 14  1  0
 12 15  1  0
 17 18  1  0
 19 20  1  0
 21 22  1  0
 23 24  1  0
 25 26  1  0
M  CHG  1   8   1
M  END
>  <PDB_ID>  (2186) 
pdb3mw6

>  <RESIDUE_NAME>  (2186) 
LYS   PHE

>  <FRAG_NAME>  (2186) 
ETAM   MBZ

>  <FRAG_ATOM_NUM>  (2186) 
fragi: 11  fragj: 15

>  <atom.prop.CHAIN_ID>  (2186) 
A A A A A A A A A A A Z Z Z Z Z Z Z Z Z Z Z Z Z Z Z

>  <atom.prop.IS_HEAVY_ATOM>  (2186) 
1 0 0 0 1 0 0 1 0 0 0 1 0 0 0 1 1 0 1 0 1 0 1 0 1 0

>  <DIFUSE_FUNC_ATOM>  (2186) 
n/a

>  <FINAL_SINGLE_POINT_ENERGY>  (2186) 
0

>  <NONCOV_INTER_ENERGY_QM>  (2186) 
0

>  <FF_Energy>  (2186) 
-6.1

>  <QM_Energy>  (2186) 
-12.48

>  <source>  (2186) 
ETAM_MBZ

>  <Index>  (2186) 
22678

$$$$
ETAM-pdb4k2j-I-LYS-1138:MBZ-pdb4k2j-I-PHE-1056
     RDKit          3D

 26 25  0  0  0  0  0  0  0  0999 V2000
    1.0107   -1.2960    3.0951 C   0  0  0  0  0  0  0  0  0  0  0  0
    0.6060   -0.4153    3.1321 H   0  0  0  0  0  0  0  0  0  0  0  0
    1.3930   -1.4517    2.2173 H   0  0  0  0  0  0  0  0  0  0  0  0
    1.7996   -1.3586    3.8446 H   0  0  0  0  0  0  0  0  0  0  0  0
   -0.1011   -2.3467    3.3302 C   0  0  0  0  0  0  0  0  0  0  0  0
   -0.3816   -2.3199    4.2589 H   0  0  0  0  0  0  0  0  0  0  0  0
   -0.8509   -2.1621    2.7436 H   0  0  0  0  0  0  0  0  0  0  0  0
    0.4148   -3.7305    3.0266 N   0  0  0  0  0  4  0  0  0  0  0  0
   -0.2271   -4.3314    3.1632 H   0  0  0  0  0  0  0  0  0  0  0  0
    0.6784   -3.7775    2.1776 H   0  0  0  0  0  0  0  0  0  0  0  0
    1.1051   -3.9207    3.5551 H   0  0  0  0  0  0  0  0  0  0  0  0
    0.0032    2.8911    0.0177 C   0  0  0  0  0  0  0  0  0  0  0  0
   -0.7416    3.1996   -0.5221 H   0  0  0  0  0  0  0  0  0  0  0  0
    0.8394    3.1964   -0.3664 H   0  0  0  0  0  0  0  0  0  0  0  0
   -0.0948    3.3002    1.0233 H   0  0  0  0  0  0  0  0  0  0  0  0
    0.0026    1.3969   -0.0067 C   0  0  0  0  0  0  0  0  0  0  0  0
   -1.2031    0.6896    0.0061 C   0  0  0  0  0  0  0  0  0  0  0  0
   -2.0102    1.1523    0.0087 H   0  0  0  0  0  0  0  0  0  0  0  0
   -1.2052   -0.6999    0.0000 C   0  0  0  0  0  0  0  0  0  0  0  0
   -2.0101   -1.1663    0.0037 H   0  0  0  0  0  0  0  0  0  0  0  0
    0.0006   -1.3887    0.0042 C   0  0  0  0  0  0  0  0  0  0  0  0
    0.0026   -2.3189   -0.0017 H   0  0  0  0  0  0  0  0  0  0  0  0
    1.2052   -0.6930    0.0000 C   0  0  0  0  0  0  0  0  0  0  0  0
    2.0115   -1.1568   -0.0046 H   0  0  0  0  0  0  0  0  0  0  0  0
    1.1999    0.6952   -0.0036 C   0  0  0  0  0  0  0  0  0  0  0  0
    2.0059    1.1592   -0.0011 H   0  0  0  0  0  0  0  0  0  0  0  0
  1  5  1  0
  5  8  1  0
  1  2  1  0
  1  3  1  0
  1  4  1  0
  5  6  1  0
  5  7  1  0
  8  9  1  0
  8 10  1  0
  8 11  1  0
 12 16  1  0
 16 17  2  0
 17 19  1  0
 19 21  2  0
 21 23  1  0
 23 25  2  0
 25 16  1  0
 12 13  1  0
 12 14  1  0
 12 15  1  0
 17 18  1  0
 19 20  1  0
 21 22  1  0
 23 24  1  0
 25 26  1  0
M  CHG  1   8   1
M  END
>  <PDB_ID>  (2187) 
pdb4k2j

>  <RESIDUE_NAME>  (2187) 
LYS   PHE

>  <FRAG_NAME>  (2187) 
ETAM   MBZ

>  <FRAG_ATOM_NUM>  (2187) 
fragi: 11  fragj: 15

>  <atom.prop.CHAIN_ID>  (2187) 
A A A A A A A A A A A Z Z Z Z Z Z Z Z Z Z Z Z Z Z Z

>  <atom.prop.IS_HEAVY_ATOM>  (2187) 
1 0 0 0 1 0 0 1 0 0 0 1 0 0 0 1 1 0 1 0 1 0 1 0 1 0

>  <DIFUSE_FUNC_ATOM>  (2187) 
n/a

>  <FINAL_SINGLE_POINT_ENERGY>  (2187) 
0

>  <NONCOV_INTER_ENERGY_QM>  (2187) 
0

>  <FF_Energy>  (2187) 
0.84

>  <QM_Energy>  (2187) 
-5.7

>  <source>  (2187) 
ETAM_MBZ

>  <Index>  (2187) 
22713

$$$$
ETAM-pdb4k33-A-LYS-708:MBZ-pdb4k33-A-PHE-704
     RDKit          3D

 26 25  0  0  0  0  0  0  0  0999 V2000
    0.1691   -2.4273    2.8684 C   0  0  0  0  0  0  0  0  0  0  0  0
    0.2790   -1.4903    2.5996 H   0  0  0  0  0  0  0  0  0  0  0  0
    0.3405   -2.5699    3.8232 H   0  0  0  0  0  0  0  0  0  0  0  0
   -0.8446   -2.7513    2.6326 H   0  0  0  0  0  0  0  0  0  0  0  0
    1.1341   -3.2843    2.0643 C   0  0  0  0  0  0  0  0  0  0  0  0
    0.9779   -4.2581    2.2968 H   0  0  0  0  0  0  0  0  0  0  0  0
    0.9280   -3.1715    1.0788 H   0  0  0  0  0  0  0  0  0  0  0  0
    2.5786   -2.9628    2.2928 N   0  0  0  0  0  4  0  0  0  0  0  0
    2.7298   -2.8128    3.2675 H   0  0  0  0  0  0  0  0  0  0  0  0
    3.1373   -3.7270    1.9772 H   0  0  0  0  0  0  0  0  0  0  0  0
    2.8150   -2.1375    1.7828 H   0  0  0  0  0  0  0  0  0  0  0  0
   -0.0831    2.8200    0.1639 C   0  0  0  0  0  0  0  0  0  0  0  0
   -0.4391    3.2229   -0.6517 H   0  0  0  0  0  0  0  0  0  0  0  0
    0.7904    3.1746    0.4221 H   0  0  0  0  0  0  0  0  0  0  0  0
   -0.7786    3.0517    0.9704 H   0  0  0  0  0  0  0  0  0  0  0  0
    0.0004    1.3856    0.0039 C   0  0  0  0  0  0  0  0  0  0  0  0
   -1.1984    0.6839   -0.0038 C   0  0  0  0  0  0  0  0  0  0  0  0
   -2.0564    1.1924   -0.0132 H   0  0  0  0  0  0  0  0  0  0  0  0
   -1.1819   -0.6513   -0.0000 C   0  0  0  0  0  0  0  0  0  0  0  0
   -2.0741   -1.1725    0.0525 H   0  0  0  0  0  0  0  0  0  0  0  0
   -0.0079   -1.3825   -0.0620 C   0  0  0  0  0  0  0  0  0  0  0  0
   -0.0387   -2.3701   -0.1497 H   0  0  0  0  0  0  0  0  0  0  0  0
    1.1819   -0.7061    0.0000 C   0  0  0  0  0  0  0  0  0  0  0  0
    2.0660   -1.2195    0.0027 H   0  0  0  0  0  0  0  0  0  0  0  0
    1.2058    0.6704    0.0619 C   0  0  0  0  0  0  0  0  0  0  0  0
    2.0628    1.1610    0.1458 H   0  0  0  0  0  0  0  0  0  0  0  0
  1  5  1  0
  5  8  1  0
  1  2  1  0
  1  3  1  0
  1  4  1  0
  5  6  1  0
  5  7  1  0
  8  9  1  0
  8 10  1  0
  8 11  1  0
 12 16  1  0
 16 17  2  0
 17 19  1  0
 19 21  2  0
 21 23  1  0
 23 25  2  0
 25 16  1  0
 12 13  1  0
 12 14  1  0
 12 15  1  0
 17 18  1  0
 19 20  1  0
 21 22  1  0
 23 24  1  0
 25 26  1  0
M  CHG  1   8   1
M  END
>  <PDB_ID>  (2188) 
pdb4k33

>  <RESIDUE_NAME>  (2188) 
LYS   PHE

>  <FRAG_NAME>  (2188) 
ETAM   MBZ

>  <FRAG_ATOM_NUM>  (2188) 
fragi: 11  fragj: 15

>  <atom.prop.CHAIN_ID>  (2188) 
A A A A A A A A A A A Z Z Z Z Z Z Z Z Z Z Z Z Z Z Z

>  <atom.prop.IS_HEAVY_ATOM>  (2188) 
1 0 0 0 1 0 0 1 0 0 0 1 0 0 0 1 1 0 1 0 1 0 1 0 1 0

>  <DIFUSE_FUNC_ATOM>  (2188) 
n/a

>  <FINAL_SINGLE_POINT_ENERGY>  (2188) 
0

>  <NONCOV_INTER_ENERGY_QM>  (2188) 
0

>  <FF_Energy>  (2188) 
9.16

>  <QM_Energy>  (2188) 
-4.28

>  <source>  (2188) 
ETAM_MBZ

>  <Index>  (2188) 
22718

$$$$
ETAM-pdb3myd-A-LYS-506:MBZ-pdb3myd-A-PHE-472
     RDKit          3D

 26 25  0  0  0  0  0  0  0  0999 V2000
   -0.8393    0.5254   -3.7905 C   0  0  0  0  0  0  0  0  0  0  0  0
   -1.1133    0.4685   -2.8330 H   0  0  0  0  0  0  0  0  0  0  0  0
   -1.4727    0.0004   -4.3555 H   0  0  0  0  0  0  0  0  0  0  0  0
   -0.9000    1.5700   -4.0962 H   0  0  0  0  0  0  0  0  0  0  0  0
    0.5586   -0.0621   -3.9402 C   0  0  0  0  0  0  0  0  0  0  0  0
    0.9804    0.3105   -4.7710 H   0  0  0  0  0  0  0  0  0  0  0  0
    1.1107    0.2066   -3.1467 H   0  0  0  0  0  0  0  0  0  0  0  0
    0.5324   -1.5535   -4.0337 N   0  0  0  0  0  4  0  0  0  0  0  0
    1.2484   -1.8563   -4.6602 H   0  0  0  0  0  0  0  0  0  0  0  0
    0.6908   -1.9422   -3.1272 H   0  0  0  0  0  0  0  0  0  0  0  0
   -0.3592   -1.8454   -4.3746 H   0  0  0  0  0  0  0  0  0  0  0  0
   -0.0039    2.9269    0.0533 C   0  0  0  0  0  0  0  0  0  0  0  0
   -0.7795    3.2524   -0.4581 H   0  0  0  0  0  0  0  0  0  0  0  0
    0.8478    3.2506   -0.3179 H   0  0  0  0  0  0  0  0  0  0  0  0
   -0.0906    3.3087    1.0705 H   0  0  0  0  0  0  0  0  0  0  0  0
   -0.0012    1.4269   -0.0046 C   0  0  0  0  0  0  0  0  0  0  0  0
   -1.2078    0.7119    0.0072 C   0  0  0  0  0  0  0  0  0  0  0  0
   -2.0746    1.1891    0.0194 H   0  0  0  0  0  0  0  0  0  0  0  0
   -1.2173   -0.7180    0.0000 C   0  0  0  0  0  0  0  0  0  0  0  0
   -2.0900   -1.1962    0.0006 H   0  0  0  0  0  0  0  0  0  0  0  0
    0.0000   -1.4251   -0.0066 C   0  0  0  0  0  0  0  0  0  0  0  0
    0.0006   -2.4134   -0.0161 H   0  0  0  0  0  0  0  0  0  0  0  0
    1.2173   -0.7087   -0.0000 C   0  0  0  0  0  0  0  0  0  0  0  0
    2.0958   -1.1955    0.0032 H   0  0  0  0  0  0  0  0  0  0  0  0
    1.2089    0.7129    0.0039 C   0  0  0  0  0  0  0  0  0  0  0  0
    2.0737    1.2008    0.0119 H   0  0  0  0  0  0  0  0  0  0  0  0
  1  5  1  0
  5  8  1  0
  1  2  1  0
  1  3  1  0
  1  4  1  0
  5  6  1  0
  5  7  1  0
  8  9  1  0
  8 10  1  0
  8 11  1  0
 12 16  1  0
 16 17  2  0
 17 19  1  0
 19 21  2  0
 21 23  1  0
 23 25  2  0
 25 16  1  0
 12 13  1  0
 12 14  1  0
 12 15  1  0
 17 18  1  0
 19 20  1  0
 21 22  1  0
 23 24  1  0
 25 26  1  0
M  CHG  1   8   1
M  END
>  <PDB_ID>  (2189) 
pdb3myd

>  <RESIDUE_NAME>  (2189) 
LYS   PHE

>  <FRAG_NAME>  (2189) 
ETAM   MBZ

>  <FRAG_ATOM_NUM>  (2189) 
fragi: 11  fragj: 15

>  <atom.prop.CHAIN_ID>  (2189) 
A A A A A A A A A A A Z Z Z Z Z Z Z Z Z Z Z Z Z Z Z

>  <atom.prop.IS_HEAVY_ATOM>  (2189) 
1 0 0 0 1 0 0 1 0 0 0 1 0 0 0 1 1 0 1 0 1 0 1 0 1 0

>  <DIFUSE_FUNC_ATOM>  (2189) 
n/a

>  <FINAL_SINGLE_POINT_ENERGY>  (2189) 
0

>  <NONCOV_INTER_ENERGY_QM>  (2189) 
0

>  <FF_Energy>  (2189) 
-5.74

>  <QM_Energy>  (2189) 
-11.05

>  <source>  (2189) 
ETAM_MBZ

>  <Index>  (2189) 
22725

$$$$
ETAM-pdb3mw6-F-LYS-42:MBZ-pdb3mw6-F-PHE-88
     RDKit          3D

 26 25  0  0  0  0  0  0  0  0999 V2000
    0.1771    0.1474    4.0603 C   0  0  0  0  0  0  0  0  0  0  0  0
   -0.3959    0.8928    4.3862 H   0  0  0  0  0  0  0  0  0  0  0  0
    0.2004    0.1388    3.0654 H   0  0  0  0  0  0  0  0  0  0  0  0
    1.1894    0.2807    4.4419 H   0  0  0  0  0  0  0  0  0  0  0  0
   -0.4071   -1.1558    4.5412 C   0  0  0  0  0  0  0  0  0  0  0  0
    0.2424   -1.8966    4.3669 H   0  0  0  0  0  0  0  0  0  0  0  0
   -0.5871   -1.0980    5.5236 H   0  0  0  0  0  0  0  0  0  0  0  0
   -1.6894   -1.4607    3.8329 N   0  0  0  0  0  4  0  0  0  0  0  0
   -1.4960   -1.6497    2.8714 H   0  0  0  0  0  0  0  0  0  0  0  0
   -2.1150   -2.2592    4.2557 H   0  0  0  0  0  0  0  0  0  0  0  0
   -2.2995   -0.6736    3.9064 H   0  0  0  0  0  0  0  0  0  0  0  0
    0.0002    2.9044    0.0044 C   0  0  0  0  0  0  0  0  0  0  0  0
    0.7043    3.2078    0.6305 H   0  0  0  0  0  0  0  0  0  0  0  0
   -0.8942    3.2112    0.2983 H   0  0  0  0  0  0  0  0  0  0  0  0
    0.2028    3.3571   -0.9663 H   0  0  0  0  0  0  0  0  0  0  0  0
   -0.0025    1.4001   -0.0016 C   0  0  0  0  0  0  0  0  0  0  0  0
   -1.2001    0.6961    0.0062 C   0  0  0  0  0  0  0  0  0  0  0  0
   -2.0648    1.1864    0.0156 H   0  0  0  0  0  0  0  0  0  0  0  0
   -1.2013   -0.6914   -0.0000 C   0  0  0  0  0  0  0  0  0  0  0  0
   -2.0748   -1.1906    0.0022 H   0  0  0  0  0  0  0  0  0  0  0  0
    0.0073   -1.3932   -0.0078 C   0  0  0  0  0  0  0  0  0  0  0  0
   -0.0026   -2.3898   -0.0195 H   0  0  0  0  0  0  0  0  0  0  0  0
    1.2013   -0.6973    0.0000 C   0  0  0  0  0  0  0  0  0  0  0  0
    2.0859   -1.1955    0.0047 H   0  0  0  0  0  0  0  0  0  0  0  0
    1.1953    0.6857    0.0032 C   0  0  0  0  0  0  0  0  0  0  0  0
    2.0630    1.1868    0.0082 H   0  0  0  0  0  0  0  0  0  0  0  0
  1  5  1  0
  5  8  1  0
  1  2  1  0
  1  3  1  0
  1  4  1  0
  5  6  1  0
  5  7  1  0
  8  9  1  0
  8 10  1  0
  8 11  1  0
 12 16  1  0
 16 17  2  0
 17 19  1  0
 19 21  2  0
 21 23  1  0
 23 25  2  0
 25 16  1  0
 12 13  1  0
 12 14  1  0
 12 15  1  0
 17 18  1  0
 19 20  1  0
 21 22  1  0
 23 24  1  0
 25 26  1  0
M  CHG  1   8   1
M  END
>  <PDB_ID>  (2190) 
pdb3mw6

>  <RESIDUE_NAME>  (2190) 
LYS   PHE

>  <FRAG_NAME>  (2190) 
ETAM   MBZ

>  <FRAG_ATOM_NUM>  (2190) 
fragi: 11  fragj: 15

>  <atom.prop.CHAIN_ID>  (2190) 
A A A A A A A A A A A Z Z Z Z Z Z Z Z Z Z Z Z Z Z Z

>  <atom.prop.IS_HEAVY_ATOM>  (2190) 
1 0 0 0 1 0 0 1 0 0 0 1 0 0 0 1 1 0 1 0 1 0 1 0 1 0

>  <DIFUSE_FUNC_ATOM>  (2190) 
n/a

>  <FINAL_SINGLE_POINT_ENERGY>  (2190) 
0

>  <NONCOV_INTER_ENERGY_QM>  (2190) 
0

>  <FF_Energy>  (2190) 
-4.73

>  <QM_Energy>  (2190) 
-9.92

>  <source>  (2190) 
ETAM_MBZ

>  <Index>  (2190) 
22743

$$$$
ETAM-pdb3mz2-A-LYS-200:MBZ-pdb3mz2-A-PHE-196
     RDKit          3D

 26 25  0  0  0  0  0  0  0  0999 V2000
    0.5095   -2.2725    3.4393 C   0  0  0  0  0  0  0  0  0  0  0  0
    1.2583   -1.8559    2.9186 H   0  0  0  0  0  0  0  0  0  0  0  0
    0.8395   -3.1186    3.8639 H   0  0  0  0  0  0  0  0  0  0  0  0
    0.1810   -1.5813    4.2153 H   0  0  0  0  0  0  0  0  0  0  0  0
   -0.5986   -2.6403    2.4578 C   0  0  0  0  0  0  0  0  0  0  0  0
   -1.0808   -1.8052    2.1904 H   0  0  0  0  0  0  0  0  0  0  0  0
   -0.1844   -3.0571    1.6481 H   0  0  0  0  0  0  0  0  0  0  0  0
   -1.5546   -3.5901    3.0692 N   0  0  0  0  0  4  0  0  0  0  0  0
   -1.0516   -4.2989    3.5659 H   0  0  0  0  0  0  0  0  0  0  0  0
   -2.1524   -3.1010    3.7055 H   0  0  0  0  0  0  0  0  0  0  0  0
   -2.1098   -4.0165    2.3534 H   0  0  0  0  0  0  0  0  0  0  0  0
    0.0062    2.9089    0.0604 C   0  0  0  0  0  0  0  0  0  0  0  0
   -0.7343    3.2360   -0.4962 H   0  0  0  0  0  0  0  0  0  0  0  0
    0.8809    3.2241   -0.2583 H   0  0  0  0  0  0  0  0  0  0  0  0
   -0.1398    3.2916    1.0704 H   0  0  0  0  0  0  0  0  0  0  0  0
    0.0038    1.4024    0.0045 C   0  0  0  0  0  0  0  0  0  0  0  0
   -1.2054    0.6883    0.0128 C   0  0  0  0  0  0  0  0  0  0  0  0
   -2.0656    1.1817    0.0266 H   0  0  0  0  0  0  0  0  0  0  0  0
   -1.2015   -0.6979   -0.0000 C   0  0  0  0  0  0  0  0  0  0  0  0
   -2.0781   -1.1966    0.0069 H   0  0  0  0  0  0  0  0  0  0  0  0
   -0.0043   -1.3831   -0.0204 C   0  0  0  0  0  0  0  0  0  0  0  0
   -0.0042   -2.3872   -0.0503 H   0  0  0  0  0  0  0  0  0  0  0  0
    1.2015   -0.6947    0.0000 C   0  0  0  0  0  0  0  0  0  0  0  0
    2.0776   -1.2036    0.0138 H   0  0  0  0  0  0  0  0  0  0  0  0
    1.2059    0.6849    0.0031 C   0  0  0  0  0  0  0  0  0  0  0  0
    2.0712    1.1849    0.0042 H   0  0  0  0  0  0  0  0  0  0  0  0
  1  5  1  0
  5  8  1  0
  1  2  1  0
  1  3  1  0
  1  4  1  0
  5  6  1  0
  5  7  1  0
  8  9  1  0
  8 10  1  0
  8 11  1  0
 12 16  1  0
 16 17  2  0
 17 19  1  0
 19 21  2  0
 21 23  1  0
 23 25  2  0
 25 16  1  0
 12 13  1  0
 12 14  1  0
 12 15  1  0
 17 18  1  0
 19 20  1  0
 21 22  1  0
 23 24  1  0
 25 26  1  0
M  CHG  1   8   1
M  END
>  <PDB_ID>  (2191) 
pdb3mz2

>  <RESIDUE_NAME>  (2191) 
LYS   PHE

>  <FRAG_NAME>  (2191) 
ETAM   MBZ

>  <FRAG_ATOM_NUM>  (2191) 
fragi: 11  fragj: 15

>  <atom.prop.CHAIN_ID>  (2191) 
A A A A A A A A A A A Z Z Z Z Z Z Z Z Z Z Z Z Z Z Z

>  <atom.prop.IS_HEAVY_ATOM>  (2191) 
1 0 0 0 1 0 0 1 0 0 0 1 0 0 0 1 1 0 1 0 1 0 1 0 1 0

>  <DIFUSE_FUNC_ATOM>  (2191) 
n/a

>  <FINAL_SINGLE_POINT_ENERGY>  (2191) 
0

>  <NONCOV_INTER_ENERGY_QM>  (2191) 
0

>  <FF_Energy>  (2191) 
8.35

>  <QM_Energy>  (2191) 
-1.71

>  <source>  (2191) 
ETAM_MBZ

>  <Index>  (2191) 
22751

$$$$
ETAM-pdb3n1b-A-LYS-960:MBZ-pdb3n1b-A-PHE-902
     RDKit          3D

 26 25  0  0  0  0  0  0  0  0999 V2000
    0.8527   -2.0224   -4.1801 C   0  0  0  0  0  0  0  0  0  0  0  0
    1.5107   -2.3158   -4.8673 H   0  0  0  0  0  0  0  0  0  0  0  0
    0.9245   -1.0411   -4.0323 H   0  0  0  0  0  0  0  0  0  0  0  0
   -0.1527   -2.2559   -4.5305 H   0  0  0  0  0  0  0  0  0  0  0  0
    1.1688   -2.7322   -2.8730 C   0  0  0  0  0  0  0  0  0  0  0  0
    0.4634   -2.5007   -2.1982 H   0  0  0  0  0  0  0  0  0  0  0  0
    1.1562   -3.7233   -3.0292 H   0  0  0  0  0  0  0  0  0  0  0  0
    2.5039   -2.3400   -2.3380 N   0  0  0  0  0  4  0  0  0  0  0  0
    3.0306   -1.8911   -3.0591 H   0  0  0  0  0  0  0  0  0  0  0  0
    2.3809   -1.7109   -1.5713 H   0  0  0  0  0  0  0  0  0  0  0  0
    2.9879   -3.1569   -2.0274 H   0  0  0  0  0  0  0  0  0  0  0  0
   -0.0026    2.8967    0.0051 C   0  0  0  0  0  0  0  0  0  0  0  0
   -0.6142    3.2052   -0.7057 H   0  0  0  0  0  0  0  0  0  0  0  0
    0.9215    3.2055   -0.1508 H   0  0  0  0  0  0  0  0  0  0  0  0
   -0.3428    3.3256    0.9477 H   0  0  0  0  0  0  0  0  0  0  0  0
   -0.0001    1.3943   -0.0019 C   0  0  0  0  0  0  0  0  0  0  0  0
   -1.1915    0.6876    0.0009 C   0  0  0  0  0  0  0  0  0  0  0  0
   -2.0601    1.1799    0.0029 H   0  0  0  0  0  0  0  0  0  0  0  0
   -1.1947   -0.6939    0.0000 C   0  0  0  0  0  0  0  0  0  0  0  0
   -2.0729   -1.1908    0.0011 H   0  0  0  0  0  0  0  0  0  0  0  0
    0.0001   -1.3846   -0.0001 C   0  0  0  0  0  0  0  0  0  0  0  0
   -0.0026   -2.3865   -0.0008 H   0  0  0  0  0  0  0  0  0  0  0  0
    1.1947   -0.6925   -0.0000 C   0  0  0  0  0  0  0  0  0  0  0  0
    2.0775   -1.1926    0.0009 H   0  0  0  0  0  0  0  0  0  0  0  0
    1.1915    0.6891    0.0011 C   0  0  0  0  0  0  0  0  0  0  0  0
    2.0613    1.1879    0.0034 H   0  0  0  0  0  0  0  0  0  0  0  0
  1  5  1  0
  5  8  1  0
  1  2  1  0
  1  3  1  0
  1  4  1  0
  5  6  1  0
  5  7  1  0
  8  9  1  0
  8 10  1  0
  8 11  1  0
 12 16  1  0
 16 17  2  0
 17 19  1  0
 19 21  2  0
 21 23  1  0
 23 25  2  0
 25 16  1  0
 12 13  1  0
 12 14  1  0
 12 15  1  0
 17 18  1  0
 19 20  1  0
 21 22  1  0
 23 24  1  0
 25 26  1  0
M  CHG  1   8   1
M  END
>  <PDB_ID>  (2192) 
pdb3n1b

>  <RESIDUE_NAME>  (2192) 
LYS   PHE

>  <FRAG_NAME>  (2192) 
ETAM   MBZ

>  <FRAG_ATOM_NUM>  (2192) 
fragi: 11  fragj: 15

>  <atom.prop.CHAIN_ID>  (2192) 
A A A A A A A A A A A Z Z Z Z Z Z Z Z Z Z Z Z Z Z Z

>  <atom.prop.IS_HEAVY_ATOM>  (2192) 
1 0 0 0 1 0 0 1 0 0 0 1 0 0 0 1 1 0 1 0 1 0 1 0 1 0

>  <DIFUSE_FUNC_ATOM>  (2192) 
n/a

>  <FINAL_SINGLE_POINT_ENERGY>  (2192) 
0

>  <NONCOV_INTER_ENERGY_QM>  (2192) 
0

>  <FF_Energy>  (2192) 
0.19

>  <QM_Energy>  (2192) 
-8.14

>  <source>  (2192) 
ETAM_MBZ

>  <Index>  (2192) 
22783

$$$$
ETAM-pdb3n1b-B-LYS-960:MBZ-pdb3n1b-B-PHE-902
     RDKit          3D

 26 25  0  0  0  0  0  0  0  0999 V2000
    0.8041   -0.2882   -3.9839 C   0  0  0  0  0  0  0  0  0  0  0  0
    1.3603    0.0708   -4.7268 H   0  0  0  0  0  0  0  0  0  0  0  0
    0.6254    0.4215   -3.3116 H   0  0  0  0  0  0  0  0  0  0  0  0
   -0.1447   -0.6388   -4.3900 H   0  0  0  0  0  0  0  0  0  0  0  0
    1.5674   -1.4149   -3.3080 C   0  0  0  0  0  0  0  0  0  0  0  0
    1.0141   -1.7770   -2.5550 H   0  0  0  0  0  0  0  0  0  0  0  0
    1.7283   -2.1465   -3.9753 H   0  0  0  0  0  0  0  0  0  0  0  0
    2.8747   -0.9459   -2.7727 N   0  0  0  0  0  4  0  0  0  0  0  0
    3.5903   -1.5937   -3.0320 H   0  0  0  0  0  0  0  0  0  0  0  0
    3.0843   -0.0454   -3.1526 H   0  0  0  0  0  0  0  0  0  0  0  0
    2.8220   -0.8850   -1.7759 H   0  0  0  0  0  0  0  0  0  0  0  0
   -0.0014    2.8969    0.0025 C   0  0  0  0  0  0  0  0  0  0  0  0
   -0.7188    3.2043   -0.6032 H   0  0  0  0  0  0  0  0  0  0  0  0
    0.8856    3.2048   -0.3032 H   0  0  0  0  0  0  0  0  0  0  0  0
   -0.1852    3.3323    0.9846 H   0  0  0  0  0  0  0  0  0  0  0  0
   -0.0001    1.3951   -0.0009 C   0  0  0  0  0  0  0  0  0  0  0  0
   -1.1917    0.6889    0.0003 C   0  0  0  0  0  0  0  0  0  0  0  0
   -2.0599    1.1803    0.0005 H   0  0  0  0  0  0  0  0  0  0  0  0
   -1.1951   -0.6946    0.0000 C   0  0  0  0  0  0  0  0  0  0  0  0
   -2.0738   -1.1896    0.0013 H   0  0  0  0  0  0  0  0  0  0  0  0
   -0.0002   -1.3852   -0.0001 C   0  0  0  0  0  0  0  0  0  0  0  0
   -0.0029   -2.3875   -0.0011 H   0  0  0  0  0  0  0  0  0  0  0  0
    1.1951   -0.6929   -0.0000 C   0  0  0  0  0  0  0  0  0  0  0  0
    2.0778   -1.1933    0.0010 H   0  0  0  0  0  0  0  0  0  0  0  0
    1.1920    0.6888    0.0007 C   0  0  0  0  0  0  0  0  0  0  0  0
    2.0617    1.1875    0.0016 H   0  0  0  0  0  0  0  0  0  0  0  0
  1  5  1  0
  5  8  1  0
  1  2  1  0
  1  3  1  0
  1  4  1  0
  5  6  1  0
  5  7  1  0
  8  9  1  0
  8 10  1  0
  8 11  1  0
 12 16  1  0
 16 17  2  0
 17 19  1  0
 19 21  2  0
 21 23  1  0
 23 25  2  0
 25 16  1  0
 12 13  1  0
 12 14  1  0
 12 15  1  0
 17 18  1  0
 19 20  1  0
 21 22  1  0
 23 24  1  0
 25 26  1  0
M  CHG  1   8   1
M  END
>  <PDB_ID>  (2193) 
pdb3n1b

>  <RESIDUE_NAME>  (2193) 
LYS   PHE

>  <FRAG_NAME>  (2193) 
ETAM   MBZ

>  <FRAG_ATOM_NUM>  (2193) 
fragi: 11  fragj: 15

>  <atom.prop.CHAIN_ID>  (2193) 
A A A A A A A A A A A Z Z Z Z Z Z Z Z Z Z Z Z Z Z Z

>  <atom.prop.IS_HEAVY_ATOM>  (2193) 
1 0 0 0 1 0 0 1 0 0 0 1 0 0 0 1 1 0 1 0 1 0 1 0 1 0

>  <DIFUSE_FUNC_ATOM>  (2193) 
n/a

>  <FINAL_SINGLE_POINT_ENERGY>  (2193) 
0

>  <NONCOV_INTER_ENERGY_QM>  (2193) 
0

>  <FF_Energy>  (2193) 
-3.13

>  <QM_Energy>  (2193) 
-10.43

>  <source>  (2193) 
ETAM_MBZ

>  <Index>  (2193) 
22785

$$$$
ETAM-pdb3n2l-H-LYS-20:MBZ-pdb3n2l-H-PHE-24
     RDKit          3D

 26 25  0  0  0  0  0  0  0  0999 V2000
   -1.6802   -4.8116    2.5149 C   0  0  0  0  0  0  0  0  0  0  0  0
   -1.8700   -5.2295    1.6344 H   0  0  0  0  0  0  0  0  0  0  0  0
   -2.3193   -5.1346    3.2016 H   0  0  0  0  0  0  0  0  0  0  0  0
   -0.6691   -5.0808    2.8204 H   0  0  0  0  0  0  0  0  0  0  0  0
   -1.8831   -3.2619    2.3637 C   0  0  0  0  0  0  0  0  0  0  0  0
   -1.8664   -2.8518    3.2878 H   0  0  0  0  0  0  0  0  0  0  0  0
   -1.0957   -2.8908    1.8492 H   0  0  0  0  0  0  0  0  0  0  0  0
   -3.1741   -2.8199    1.6603 N   0  0  0  0  0  4  0  0  0  0  0  0
   -3.4121   -1.9160    1.9931 H   0  0  0  0  0  0  0  0  0  0  0  0
   -3.0019   -2.8022    0.6832 H   0  0  0  0  0  0  0  0  0  0  0  0
   -3.8850   -3.4754    1.8814 H   0  0  0  0  0  0  0  0  0  0  0  0
    0.0050    2.8905    0.0137 C   0  0  0  0  0  0  0  0  0  0  0  0
    0.8901    3.1958    0.3307 H   0  0  0  0  0  0  0  0  0  0  0  0
   -0.7185    3.2002    0.6106 H   0  0  0  0  0  0  0  0  0  0  0  0
   -0.1656    3.3255   -0.9711 H   0  0  0  0  0  0  0  0  0  0  0  0
    0.0000    1.3969    0.0097 C   0  0  0  0  0  0  0  0  0  0  0  0
   -1.1823    0.6955    0.0003 C   0  0  0  0  0  0  0  0  0  0  0  0
   -2.0553    1.1804   -0.0073 H   0  0  0  0  0  0  0  0  0  0  0  0
   -1.1824   -0.6917   -0.0000 C   0  0  0  0  0  0  0  0  0  0  0  0
   -2.0689   -1.1817    0.0111 H   0  0  0  0  0  0  0  0  0  0  0  0
   -0.0018   -1.3833   -0.0129 C   0  0  0  0  0  0  0  0  0  0  0  0
   -0.0126   -2.3897   -0.0323 H   0  0  0  0  0  0  0  0  0  0  0  0
    1.1824   -0.7057    0.0000 C   0  0  0  0  0  0  0  0  0  0  0  0
    2.0699   -1.1981    0.0091 H   0  0  0  0  0  0  0  0  0  0  0  0
    1.1840    0.6882    0.0029 C   0  0  0  0  0  0  0  0  0  0  0  0
    2.0589    1.1761   -0.0004 H   0  0  0  0  0  0  0  0  0  0  0  0
  1  5  1  0
  5  8  1  0
  1  2  1  0
  1  3  1  0
  1  4  1  0
  5  6  1  0
  5  7  1  0
  8  9  1  0
  8 10  1  0
  8 11  1  0
 12 16  1  0
 16 17  2  0
 17 19  1  0
 19 21  2  0
 21 23  1  0
 23 25  2  0
 25 16  1  0
 12 13  1  0
 12 14  1  0
 12 15  1  0
 17 18  1  0
 19 20  1  0
 21 22  1  0
 23 24  1  0
 25 26  1  0
M  CHG  1   8   1
M  END
>  <PDB_ID>  (2194) 
pdb3n2l

>  <RESIDUE_NAME>  (2194) 
LYS   PHE

>  <FRAG_NAME>  (2194) 
ETAM   MBZ

>  <FRAG_ATOM_NUM>  (2194) 
fragi: 11  fragj: 15

>  <atom.prop.CHAIN_ID>  (2194) 
A A A A A A A A A A A Z Z Z Z Z Z Z Z Z Z Z Z Z Z Z

>  <atom.prop.IS_HEAVY_ATOM>  (2194) 
1 0 0 0 1 0 0 1 0 0 0 1 0 0 0 1 1 0 1 0 1 0 1 0 1 0

>  <DIFUSE_FUNC_ATOM>  (2194) 
n/a

>  <FINAL_SINGLE_POINT_ENERGY>  (2194) 
0

>  <NONCOV_INTER_ENERGY_QM>  (2194) 
0

>  <FF_Energy>  (2194) 
1.37

>  <QM_Energy>  (2194) 
-4.68

>  <source>  (2194) 
ETAM_MBZ

>  <Index>  (2194) 
22811

$$$$
ETAM-pdb4k9q-A-LYS-494:MBZ-pdb4k9q-A-PHE-514
     RDKit          3D

 26 25  0  0  0  0  0  0  0  0999 V2000
    0.5180   -1.6796   -4.4934 C   0  0  0  0  0  0  0  0  0  0  0  0
    0.4576   -1.0703   -5.2742 H   0  0  0  0  0  0  0  0  0  0  0  0
    0.8211   -2.5820   -4.7746 H   0  0  0  0  0  0  0  0  0  0  0  0
    1.2310   -1.2706   -3.7775 H   0  0  0  0  0  0  0  0  0  0  0  0
   -0.8665   -1.8065   -3.8702 C   0  0  0  0  0  0  0  0  0  0  0  0
   -1.4955   -2.1812   -4.5486 H   0  0  0  0  0  0  0  0  0  0  0  0
   -0.8154   -2.4205   -3.0844 H   0  0  0  0  0  0  0  0  0  0  0  0
   -1.3718   -0.4740   -3.4175 N   0  0  0  0  0  4  0  0  0  0  0  0
   -1.6839    0.0457   -4.2109 H   0  0  0  0  0  0  0  0  0  0  0  0
   -2.1304   -0.6089   -2.7826 H   0  0  0  0  0  0  0  0  0  0  0  0
   -0.6334    0.0194   -2.9607 H   0  0  0  0  0  0  0  0  0  0  0  0
    0.0047    2.9082   -0.0008 C   0  0  0  0  0  0  0  0  0  0  0  0
   -0.6446    3.2131   -0.6799 H   0  0  0  0  0  0  0  0  0  0  0  0
    0.9197    3.2117   -0.2145 H   0  0  0  0  0  0  0  0  0  0  0  0
   -0.2779    3.3560    0.9519 H   0  0  0  0  0  0  0  0  0  0  0  0
    0.0022    1.3986    0.0037 C   0  0  0  0  0  0  0  0  0  0  0  0
   -1.1901    0.6872   -0.0082 C   0  0  0  0  0  0  0  0  0  0  0  0
   -2.0583    1.1784   -0.0245 H   0  0  0  0  0  0  0  0  0  0  0  0
   -1.1912   -0.6951   -0.0000 C   0  0  0  0  0  0  0  0  0  0  0  0
   -2.0731   -1.1902    0.0031 H   0  0  0  0  0  0  0  0  0  0  0  0
   -0.0014   -1.3871    0.0055 C   0  0  0  0  0  0  0  0  0  0  0  0
   -0.0036   -2.3884    0.0125 H   0  0  0  0  0  0  0  0  0  0  0  0
    1.1912   -0.6942    0.0000 C   0  0  0  0  0  0  0  0  0  0  0  0
    2.0763   -1.1927   -0.0020 H   0  0  0  0  0  0  0  0  0  0  0  0
    1.1893    0.6907   -0.0009 C   0  0  0  0  0  0  0  0  0  0  0  0
    2.0617    1.1856   -0.0054 H   0  0  0  0  0  0  0  0  0  0  0  0
  1  5  1  0
  5  8  1  0
  1  2  1  0
  1  3  1  0
  1  4  1  0
  5  6  1  0
  5  7  1  0
  8  9  1  0
  8 10  1  0
  8 11  1  0
 12 16  1  0
 16 17  2  0
 17 19  1  0
 19 21  2  0
 21 23  1  0
 23 25  2  0
 25 16  1  0
 12 13  1  0
 12 14  1  0
 12 15  1  0
 17 18  1  0
 19 20  1  0
 21 22  1  0
 23 24  1  0
 25 26  1  0
M  CHG  1   8   1
M  END
>  <PDB_ID>  (2195) 
pdb4k9q

>  <RESIDUE_NAME>  (2195) 
LYS   PHE

>  <FRAG_NAME>  (2195) 
ETAM   MBZ

>  <FRAG_ATOM_NUM>  (2195) 
fragi: 11  fragj: 15

>  <atom.prop.CHAIN_ID>  (2195) 
A A A A A A A A A A A Z Z Z Z Z Z Z Z Z Z Z Z Z Z Z

>  <atom.prop.IS_HEAVY_ATOM>  (2195) 
1 0 0 0 1 0 0 1 0 0 0 1 0 0 0 1 1 0 1 0 1 0 1 0 1 0

>  <DIFUSE_FUNC_ATOM>  (2195) 
n/a

>  <FINAL_SINGLE_POINT_ENERGY>  (2195) 
0

>  <NONCOV_INTER_ENERGY_QM>  (2195) 
0

>  <FF_Energy>  (2195) 
-6.62

>  <QM_Energy>  (2195) 
-12.38

>  <source>  (2195) 
ETAM_MBZ

>  <Index>  (2195) 
22818

$$$$
ETAM-pdb4k8v-D-LYS-492:MBZ-pdb4k8v-D-PHE-412
     RDKit          3D

 26 25  0  0  0  0  0  0  0  0999 V2000
    1.8384   -1.5222    3.7745 C   0  0  0  0  0  0  0  0  0  0  0  0
    2.2912   -1.9674    3.0175 H   0  0  0  0  0  0  0  0  0  0  0  0
    1.8138   -2.1022    4.5737 H   0  0  0  0  0  0  0  0  0  0  0  0
    2.3833   -0.6106    4.0194 H   0  0  0  0  0  0  0  0  0  0  0  0
    0.4131   -1.1862    3.3669 C   0  0  0  0  0  0  0  0  0  0  0  0
    0.1640   -0.2950    3.7630 H   0  0  0  0  0  0  0  0  0  0  0  0
    0.3714   -1.1093    2.3632 H   0  0  0  0  0  0  0  0  0  0  0  0
   -0.5658   -2.2112    3.8181 N   0  0  0  0  0  4  0  0  0  0  0  0
   -1.1752   -2.4442    3.0609 H   0  0  0  0  0  0  0  0  0  0  0  0
   -0.0754   -3.0293    4.1168 H   0  0  0  0  0  0  0  0  0  0  0  0
   -1.1019   -1.8460    4.5791 H   0  0  0  0  0  0  0  0  0  0  0  0
   -0.0021    2.9239   -0.0173 C   0  0  0  0  0  0  0  0  0  0  0  0
    0.9227    3.2346    0.1144 H   0  0  0  0  0  0  0  0  0  0  0  0
   -0.6034    3.2389    0.6960 H   0  0  0  0  0  0  0  0  0  0  0  0
   -0.3595    3.3418   -0.9584 H   0  0  0  0  0  0  0  0  0  0  0  0
    0.0010    1.4152    0.0027 C   0  0  0  0  0  0  0  0  0  0  0  0
   -1.1980    0.7003   -0.0065 C   0  0  0  0  0  0  0  0  0  0  0  0
   -2.0664    1.1819   -0.0189 H   0  0  0  0  0  0  0  0  0  0  0  0
   -1.2003   -0.7085   -0.0000 C   0  0  0  0  0  0  0  0  0  0  0  0
   -2.0775   -1.1952    0.0055 H   0  0  0  0  0  0  0  0  0  0  0  0
    0.0026   -1.4069    0.0006 C   0  0  0  0  0  0  0  0  0  0  0  0
   -0.0015   -2.4036    0.0012 H   0  0  0  0  0  0  0  0  0  0  0  0
    1.2003   -0.7063    0.0000 C   0  0  0  0  0  0  0  0  0  0  0  0
    2.0859   -1.1922   -0.0013 H   0  0  0  0  0  0  0  0  0  0  0  0
    1.1944    0.7062    0.0031 C   0  0  0  0  0  0  0  0  0  0  0  0
    2.0665    1.1917    0.0056 H   0  0  0  0  0  0  0  0  0  0  0  0
  1  5  1  0
  5  8  1  0
  1  2  1  0
  1  3  1  0
  1  4  1  0
  5  6  1  0
  5  7  1  0
  8  9  1  0
  8 10  1  0
  8 11  1  0
 12 16  1  0
 16 17  2  0
 17 19  1  0
 19 21  2  0
 21 23  1  0
 23 25  2  0
 25 16  1  0
 12 13  1  0
 12 14  1  0
 12 15  1  0
 17 18  1  0
 19 20  1  0
 21 22  1  0
 23 24  1  0
 25 26  1  0
M  CHG  1   8   1
M  END
>  <PDB_ID>  (2196) 
pdb4k8v

>  <RESIDUE_NAME>  (2196) 
LYS   PHE

>  <FRAG_NAME>  (2196) 
ETAM   MBZ

>  <FRAG_ATOM_NUM>  (2196) 
fragi: 11  fragj: 15

>  <atom.prop.CHAIN_ID>  (2196) 
A A A A A A A A A A A Z Z Z Z Z Z Z Z Z Z Z Z Z Z Z

>  <atom.prop.IS_HEAVY_ATOM>  (2196) 
1 0 0 0 1 0 0 1 0 0 0 1 0 0 0 1 1 0 1 0 1 0 1 0 1 0

>  <DIFUSE_FUNC_ATOM>  (2196) 
n/a

>  <FINAL_SINGLE_POINT_ENERGY>  (2196) 
0

>  <NONCOV_INTER_ENERGY_QM>  (2196) 
0

>  <FF_Energy>  (2196) 
-2.34

>  <QM_Energy>  (2196) 
-9.15

>  <source>  (2196) 
ETAM_MBZ

>  <Index>  (2196) 
22824

$$$$
ETAM-pdb4kc5-B-LYS-3131:MBZ-pdb4kc5-B-PHE-3214
     RDKit          3D

 26 25  0  0  0  0  0  0  0  0999 V2000
   -5.6356   -2.3662    1.9883 C   0  0  0  0  0  0  0  0  0  0  0  0
   -5.9644   -1.5043    2.3615 H   0  0  0  0  0  0  0  0  0  0  0  0
   -6.2252   -3.1144    2.2757 H   0  0  0  0  0  0  0  0  0  0  0  0
   -5.6244   -2.3091    0.8999 H   0  0  0  0  0  0  0  0  0  0  0  0
   -4.2362   -2.6228    2.5429 C   0  0  0  0  0  0  0  0  0  0  0  0
   -4.3145   -3.0287    3.4436 H   0  0  0  0  0  0  0  0  0  0  0  0
   -3.7489   -3.2254    1.9249 H   0  0  0  0  0  0  0  0  0  0  0  0
   -3.5052   -1.3242    2.6471 N   0  0  0  0  0  4  0  0  0  0  0  0
   -4.1615   -0.5727    2.5963 H   0  0  0  0  0  0  0  0  0  0  0  0
   -3.0191   -1.2892    3.5192 H   0  0  0  0  0  0  0  0  0  0  0  0
   -2.8525   -1.2525    1.8945 H   0  0  0  0  0  0  0  0  0  0  0  0
    0.0036    2.8817    0.0330 C   0  0  0  0  0  0  0  0  0  0  0  0
   -0.7225    3.2054   -0.5516 H   0  0  0  0  0  0  0  0  0  0  0  0
    0.8863    3.2030   -0.2704 H   0  0  0  0  0  0  0  0  0  0  0  0
   -0.1695    3.2927    1.0276 H   0  0  0  0  0  0  0  0  0  0  0  0
    0.0061    1.3950    0.0077 C   0  0  0  0  0  0  0  0  0  0  0  0
   -1.1862    0.6926    0.0027 C   0  0  0  0  0  0  0  0  0  0  0  0
   -2.0550    1.1785   -0.0006 H   0  0  0  0  0  0  0  0  0  0  0  0
   -1.1920   -0.7039    0.0000 C   0  0  0  0  0  0  0  0  0  0  0  0
   -2.0777   -1.1875    0.0065 H   0  0  0  0  0  0  0  0  0  0  0  0
   -0.0089   -1.3905   -0.0097 C   0  0  0  0  0  0  0  0  0  0  0  0
   -0.0025   -2.3917   -0.0240 H   0  0  0  0  0  0  0  0  0  0  0  0
    1.1920   -0.6932   -0.0000 C   0  0  0  0  0  0  0  0  0  0  0  0
    2.0737   -1.1902    0.0090 H   0  0  0  0  0  0  0  0  0  0  0  0
    1.1889    0.7000   -0.0007 C   0  0  0  0  0  0  0  0  0  0  0  0
    2.0622    1.1891   -0.0085 H   0  0  0  0  0  0  0  0  0  0  0  0
  1  5  1  0
  5  8  1  0
  1  2  1  0
  1  3  1  0
  1  4  1  0
  5  6  1  0
  5  7  1  0
  8  9  1  0
  8 10  1  0
  8 11  1  0
 12 16  1  0
 16 17  2  0
 17 19  1  0
 19 21  2  0
 21 23  1  0
 23 25  2  0
 25 16  1  0
 12 13  1  0
 12 14  1  0
 12 15  1  0
 17 18  1  0
 19 20  1  0
 21 22  1  0
 23 24  1  0
 25 26  1  0
M  CHG  1   8   1
M  END
>  <PDB_ID>  (2197) 
pdb4kc5

>  <RESIDUE_NAME>  (2197) 
LYS   PHE

>  <FRAG_NAME>  (2197) 
ETAM   MBZ

>  <FRAG_ATOM_NUM>  (2197) 
fragi: 11  fragj: 15

>  <atom.prop.CHAIN_ID>  (2197) 
A A A A A A A A A A A Z Z Z Z Z Z Z Z Z Z Z Z Z Z Z

>  <atom.prop.IS_HEAVY_ATOM>  (2197) 
1 0 0 0 1 0 0 1 0 0 0 1 0 0 0 1 1 0 1 0 1 0 1 0 1 0

>  <DIFUSE_FUNC_ATOM>  (2197) 
n/a

>  <FINAL_SINGLE_POINT_ENERGY>  (2197) 
0

>  <NONCOV_INTER_ENERGY_QM>  (2197) 
0

>  <FF_Energy>  (2197) 
-1.24

>  <QM_Energy>  (2197) 
-6.85

>  <source>  (2197) 
ETAM_MBZ

>  <Index>  (2197) 
22856

$$$$
ETAM-pdb4kd5-C-LYS-220:MBZ-pdb4kd5-C-PHE-206
     RDKit          3D

 26 25  0  0  0  0  0  0  0  0999 V2000
   -1.6465    0.8923   -4.7529 C   0  0  0  0  0  0  0  0  0  0  0  0
   -1.2703    0.6236   -5.6316 H   0  0  0  0  0  0  0  0  0  0  0  0
   -1.2993    1.7807   -4.4781 H   0  0  0  0  0  0  0  0  0  0  0  0
   -2.7318    0.9483   -4.8369 H   0  0  0  0  0  0  0  0  0  0  0  0
   -1.2302   -0.1370   -3.7098 C   0  0  0  0  0  0  0  0  0  0  0  0
   -1.7419    0.0353   -2.8622 H   0  0  0  0  0  0  0  0  0  0  0  0
   -1.4675   -1.0546   -4.0466 H   0  0  0  0  0  0  0  0  0  0  0  0
    0.2296   -0.0884   -3.4163 N   0  0  0  0  0  4  0  0  0  0  0  0
    0.4864   -0.8939   -2.8837 H   0  0  0  0  0  0  0  0  0  0  0  0
    0.7402   -0.0780   -4.2757 H   0  0  0  0  0  0  0  0  0  0  0  0
    0.4348    0.7389   -2.8945 H   0  0  0  0  0  0  0  0  0  0  0  0
   -0.0037    2.8937   -0.0010 C   0  0  0  0  0  0  0  0  0  0  0  0
   -0.5040    3.1972   -0.7979 H   0  0  0  0  0  0  0  0  0  0  0  0
    0.9346    3.2038   -0.0241 H   0  0  0  0  0  0  0  0  0  0  0  0
   -0.4783    3.3274    0.8792 H   0  0  0  0  0  0  0  0  0  0  0  0
    0.0012    1.3954    0.0013 C   0  0  0  0  0  0  0  0  0  0  0  0
   -1.1936    0.6884   -0.0017 C   0  0  0  0  0  0  0  0  0  0  0  0
   -2.0603    1.1815   -0.0069 H   0  0  0  0  0  0  0  0  0  0  0  0
   -1.1965   -0.6933    0.0000 C   0  0  0  0  0  0  0  0  0  0  0  0
   -2.0742   -1.1899    0.0026 H   0  0  0  0  0  0  0  0  0  0  0  0
   -0.0006   -1.3867    0.0004 C   0  0  0  0  0  0  0  0  0  0  0  0
   -0.0051   -2.3880    0.0003 H   0  0  0  0  0  0  0  0  0  0  0  0
    1.1965   -0.6949   -0.0000 C   0  0  0  0  0  0  0  0  0  0  0  0
    2.0790   -1.1941    0.0012 H   0  0  0  0  0  0  0  0  0  0  0  0
    1.1930    0.6911   -0.0000 C   0  0  0  0  0  0  0  0  0  0  0  0
    2.0627    1.1871   -0.0018 H   0  0  0  0  0  0  0  0  0  0  0  0
  1  5  1  0
  5  8  1  0
  1  2  1  0
  1  3  1  0
  1  4  1  0
  5  6  1  0
  5  7  1  0
  8  9  1  0
  8 10  1  0
  8 11  1  0
 12 16  1  0
 16 17  2  0
 17 19  1  0
 19 21  2  0
 21 23  1  0
 23 25  2  0
 25 16  1  0
 12 13  1  0
 12 14  1  0
 12 15  1  0
 17 18  1  0
 19 20  1  0
 21 22  1  0
 23 24  1  0
 25 26  1  0
M  CHG  1   8   1
M  END
>  <PDB_ID>  (2198) 
pdb4kd5

>  <RESIDUE_NAME>  (2198) 
LYS   PHE

>  <FRAG_NAME>  (2198) 
ETAM   MBZ

>  <FRAG_ATOM_NUM>  (2198) 
fragi: 11  fragj: 15

>  <atom.prop.CHAIN_ID>  (2198) 
A A A A A A A A A A A Z Z Z Z Z Z Z Z Z Z Z Z Z Z Z

>  <atom.prop.IS_HEAVY_ATOM>  (2198) 
1 0 0 0 1 0 0 1 0 0 0 1 0 0 0 1 1 0 1 0 1 0 1 0 1 0

>  <DIFUSE_FUNC_ATOM>  (2198) 
n/a

>  <FINAL_SINGLE_POINT_ENERGY>  (2198) 
0

>  <NONCOV_INTER_ENERGY_QM>  (2198) 
0

>  <FF_Energy>  (2198) 
-8.58

>  <QM_Energy>  (2198) 
-14.72

>  <source>  (2198) 
ETAM_MBZ

>  <Index>  (2198) 
22858

$$$$
ETAM-pdb3n52-C-LYS-69:MBZ-pdb3n52-C-PHE-20
     RDKit          3D

 26 25  0  0  0  0  0  0  0  0999 V2000
    1.7941   -5.0009   -0.7966 C   0  0  0  0  0  0  0  0  0  0  0  0
    2.0374   -5.5476   -1.5900 H   0  0  0  0  0  0  0  0  0  0  0  0
    0.9320   -4.5310   -0.9488 H   0  0  0  0  0  0  0  0  0  0  0  0
    1.6932   -5.6567    0.0682 H   0  0  0  0  0  0  0  0  0  0  0  0
    2.9037   -3.9127   -0.6098 C   0  0  0  0  0  0  0  0  0  0  0  0
    3.8000   -4.3749   -0.5936 H   0  0  0  0  0  0  0  0  0  0  0  0
    2.8839   -3.3002   -1.4115 H   0  0  0  0  0  0  0  0  0  0  0  0
    2.7763   -3.0568    0.6566 N   0  0  0  0  0  4  0  0  0  0  0  0
    1.8819   -3.2229    1.0527 H   0  0  0  0  0  0  0  0  0  0  0  0
    3.4950   -3.3267    1.2859 H   0  0  0  0  0  0  0  0  0  0  0  0
    2.8749   -2.1042    0.3969 H   0  0  0  0  0  0  0  0  0  0  0  0
   -0.0070    2.9567    0.0130 C   0  0  0  0  0  0  0  0  0  0  0  0
   -0.8218    3.2445   -0.4611 H   0  0  0  0  0  0  0  0  0  0  0  0
    0.8112    3.2551   -0.4496 H   0  0  0  0  0  0  0  0  0  0  0  0
   -0.0170    3.4005    1.0085 H   0  0  0  0  0  0  0  0  0  0  0  0
    0.0032    1.4201    0.0104 C   0  0  0  0  0  0  0  0  0  0  0  0
   -1.1872    0.7090    0.0180 C   0  0  0  0  0  0  0  0  0  0  0  0
   -2.0629    1.1843    0.0354 H   0  0  0  0  0  0  0  0  0  0  0  0
   -1.2129   -0.7257   -0.0000 C   0  0  0  0  0  0  0  0  0  0  0  0
   -2.0880   -1.1914    0.0008 H   0  0  0  0  0  0  0  0  0  0  0  0
   -0.0028   -1.4261   -0.0161 C   0  0  0  0  0  0  0  0  0  0  0  0
    0.0163   -2.4089   -0.0381 H   0  0  0  0  0  0  0  0  0  0  0  0
    1.2129   -0.6865    0.0000 C   0  0  0  0  0  0  0  0  0  0  0  0
    2.0920   -1.1779    0.0220 H   0  0  0  0  0  0  0  0  0  0  0  0
    1.1868    0.7091   -0.0123 C   0  0  0  0  0  0  0  0  0  0  0  0
    2.0641    1.2085   -0.0391 H   0  0  0  0  0  0  0  0  0  0  0  0
  1  5  1  0
  5  8  1  0
  1  2  1  0
  1  3  1  0
  1  4  1  0
  5  6  1  0
  5  7  1  0
  8  9  1  0
  8 10  1  0
  8 11  1  0
 12 16  1  0
 16 17  2  0
 17 19  1  0
 19 21  2  0
 21 23  1  0
 23 25  2  0
 25 16  1  0
 12 13  1  0
 12 14  1  0
 12 15  1  0
 17 18  1  0
 19 20  1  0
 21 22  1  0
 23 24  1  0
 25 26  1  0
M  CHG  1   8   1
M  END
>  <PDB_ID>  (2199) 
pdb3n52

>  <RESIDUE_NAME>  (2199) 
LYS   PHE

>  <FRAG_NAME>  (2199) 
ETAM   MBZ

>  <FRAG_ATOM_NUM>  (2199) 
fragi: 11  fragj: 15

>  <atom.prop.CHAIN_ID>  (2199) 
A A A A A A A A A A A Z Z Z Z Z Z Z Z Z Z Z Z Z Z Z

>  <atom.prop.IS_HEAVY_ATOM>  (2199) 
1 0 0 0 1 0 0 1 0 0 0 1 0 0 0 1 1 0 1 0 1 0 1 0 1 0

>  <DIFUSE_FUNC_ATOM>  (2199) 
n/a

>  <FINAL_SINGLE_POINT_ENERGY>  (2199) 
0

>  <NONCOV_INTER_ENERGY_QM>  (2199) 
0

>  <FF_Energy>  (2199) 
15.75

>  <QM_Energy>  (2199) 
3.77

>  <source>  (2199) 
ETAM_MBZ

>  <Index>  (2199) 
22867

$$$$
ETAM-pdb4kd5-A-LYS-59:MBZ-pdb4kd5-A-PHE-264
     RDKit          3D

 26 25  0  0  0  0  0  0  0  0999 V2000
    2.5251   -4.6596   -0.9179 C   0  0  0  0  0  0  0  0  0  0  0  0
    2.9439   -5.3541   -1.4968 H   0  0  0  0  0  0  0  0  0  0  0  0
    1.6526   -4.9872   -0.5665 H   0  0  0  0  0  0  0  0  0  0  0  0
    3.1887   -4.4604   -0.0765 H   0  0  0  0  0  0  0  0  0  0  0  0
    2.2724   -3.4131   -1.7605 C   0  0  0  0  0  0  0  0  0  0  0  0
    1.9952   -2.6605   -1.1514 H   0  0  0  0  0  0  0  0  0  0  0  0
    3.1307   -3.1502   -2.2175 H   0  0  0  0  0  0  0  0  0  0  0  0
    1.2134   -3.6145   -2.7961 N   0  0  0  0  0  4  0  0  0  0  0  0
    1.1054   -2.7737   -3.3230 H   0  0  0  0  0  0  0  0  0  0  0  0
    1.4842   -4.3602   -3.4021 H   0  0  0  0  0  0  0  0  0  0  0  0
    0.3522   -3.8430   -2.3452 H   0  0  0  0  0  0  0  0  0  0  0  0
   -0.0009    2.8968   -0.0000 C   0  0  0  0  0  0  0  0  0  0  0  0
    0.8389    3.2059    0.4174 H   0  0  0  0  0  0  0  0  0  0  0  0
   -0.7919    3.2051    0.5061 H   0  0  0  0  0  0  0  0  0  0  0  0
   -0.0555    3.3312   -0.9982 H   0  0  0  0  0  0  0  0  0  0  0  0
    0.0003    1.3950    0.0041 C   0  0  0  0  0  0  0  0  0  0  0  0
   -1.1919    0.6894    0.0003 C   0  0  0  0  0  0  0  0  0  0  0  0
   -2.0596    1.1806   -0.0040 H   0  0  0  0  0  0  0  0  0  0  0  0
   -1.1953   -0.6951    0.0000 C   0  0  0  0  0  0  0  0  0  0  0  0
   -2.0736   -1.1895    0.0013 H   0  0  0  0  0  0  0  0  0  0  0  0
   -0.0004   -1.3851   -0.0000 C   0  0  0  0  0  0  0  0  0  0  0  0
   -0.0030   -2.3869   -0.0006 H   0  0  0  0  0  0  0  0  0  0  0  0
    1.1953   -0.6928   -0.0000 C   0  0  0  0  0  0  0  0  0  0  0  0
    2.0778   -1.1939    0.0048 H   0  0  0  0  0  0  0  0  0  0  0  0
    1.1920    0.6887   -0.0044 C   0  0  0  0  0  0  0  0  0  0  0  0
    2.0609    1.1873   -0.0147 H   0  0  0  0  0  0  0  0  0  0  0  0
  1  5  1  0
  5  8  1  0
  1  2  1  0
  1  3  1  0
  1  4  1  0
  5  6  1  0
  5  7  1  0
  8  9  1  0
  8 10  1  0
  8 11  1  0
 12 16  1  0
 16 17  2  0
 17 19  1  0
 19 21  2  0
 21 23  1  0
 23 25  2  0
 25 16  1  0
 12 13  1  0
 12 14  1  0
 12 15  1  0
 17 18  1  0
 19 20  1  0
 21 22  1  0
 23 24  1  0
 25 26  1  0
M  CHG  1   8   1
M  END
>  <PDB_ID>  (2200) 
pdb4kd5

>  <RESIDUE_NAME>  (2200) 
LYS   PHE

>  <FRAG_NAME>  (2200) 
ETAM   MBZ

>  <FRAG_ATOM_NUM>  (2200) 
fragi: 11  fragj: 15

>  <atom.prop.CHAIN_ID>  (2200) 
A A A A A A A A A A A Z Z Z Z Z Z Z Z Z Z Z Z Z Z Z

>  <atom.prop.IS_HEAVY_ATOM>  (2200) 
1 0 0 0 1 0 0 1 0 0 0 1 0 0 0 1 1 0 1 0 1 0 1 0 1 0

>  <DIFUSE_FUNC_ATOM>  (2200) 
n/a

>  <FINAL_SINGLE_POINT_ENERGY>  (2200) 
0

>  <NONCOV_INTER_ENERGY_QM>  (2200) 
0

>  <FF_Energy>  (2200) 
2.94

>  <QM_Energy>  (2200) 
-4.79

>  <source>  (2200) 
ETAM_MBZ

>  <Index>  (2200) 
22888

$$$$
ETAM-pdb3n6h-A-LYS-216:MBZ-pdb3n6h-A-PHE-212
     RDKit          3D

 26 25  0  0  0  0  0  0  0  0999 V2000
    0.5052    1.6811    3.8201 C   0  0  0  0  0  0  0  0  0  0  0  0
   -0.4598    1.8409    3.9848 H   0  0  0  0  0  0  0  0  0  0  0  0
    0.7242    1.8047    2.8610 H   0  0  0  0  0  0  0  0  0  0  0  0
    1.0815    2.3976    4.4055 H   0  0  0  0  0  0  0  0  0  0  0  0
    0.8376    0.2444    4.2165 C   0  0  0  0  0  0  0  0  0  0  0  0
    1.7933    0.0575    3.9832 H   0  0  0  0  0  0  0  0  0  0  0  0
    0.7148    0.1446    5.2057 H   0  0  0  0  0  0  0  0  0  0  0  0
   -0.0402   -0.7383    3.5130 N   0  0  0  0  0  4  0  0  0  0  0  0
   -0.5668   -0.2638    2.8096 H   0  0  0  0  0  0  0  0  0  0  0  0
    0.5275   -1.4437    3.0915 H   0  0  0  0  0  0  0  0  0  0  0  0
   -0.6617   -1.1567    4.1738 H   0  0  0  0  0  0  0  0  0  0  0  0
    0.0062    2.8953    0.0010 C   0  0  0  0  0  0  0  0  0  0  0  0
    0.9007    3.2026    0.2950 H   0  0  0  0  0  0  0  0  0  0  0  0
   -0.6987    3.2081    0.6228 H   0  0  0  0  0  0  0  0  0  0  0  0
   -0.1922    3.3393   -0.9745 H   0  0  0  0  0  0  0  0  0  0  0  0
    0.0004    1.4043   -0.0005 C   0  0  0  0  0  0  0  0  0  0  0  0
   -1.1995    0.6983    0.0043 C   0  0  0  0  0  0  0  0  0  0  0  0
   -2.0647    1.1859    0.0096 H   0  0  0  0  0  0  0  0  0  0  0  0
   -1.2016   -0.6981    0.0000 C   0  0  0  0  0  0  0  0  0  0  0  0
   -2.0786   -1.1908   -0.0008 H   0  0  0  0  0  0  0  0  0  0  0  0
    0.0010   -1.3964   -0.0020 C   0  0  0  0  0  0  0  0  0  0  0  0
   -0.0066   -2.3961   -0.0053 H   0  0  0  0  0  0  0  0  0  0  0  0
    1.2016   -0.7041   -0.0000 C   0  0  0  0  0  0  0  0  0  0  0  0
    2.0829   -1.1978    0.0041 H   0  0  0  0  0  0  0  0  0  0  0  0
    1.1981    0.6961   -0.0019 C   0  0  0  0  0  0  0  0  0  0  0  0
    2.0659    1.1877   -0.0053 H   0  0  0  0  0  0  0  0  0  0  0  0
  1  5  1  0
  5  8  1  0
  1  2  1  0
  1  3  1  0
  1  4  1  0
  5  6  1  0
  5  7  1  0
  8  9  1  0
  8 10  1  0
  8 11  1  0
 12 16  1  0
 16 17  2  0
 17 19  1  0
 19 21  2  0
 21 23  1  0
 23 25  2  0
 25 16  1  0
 12 13  1  0
 12 14  1  0
 12 15  1  0
 17 18  1  0
 19 20  1  0
 21 22  1  0
 23 24  1  0
 25 26  1  0
M  CHG  1   8   1
M  END
>  <PDB_ID>  (2201) 
pdb3n6h

>  <RESIDUE_NAME>  (2201) 
LYS   PHE

>  <FRAG_NAME>  (2201) 
ETAM   MBZ

>  <FRAG_ATOM_NUM>  (2201) 
fragi: 11  fragj: 15

>  <atom.prop.CHAIN_ID>  (2201) 
A A A A A A A A A A A Z Z Z Z Z Z Z Z Z Z Z Z Z Z Z

>  <atom.prop.IS_HEAVY_ATOM>  (2201) 
1 0 0 0 1 0 0 1 0 0 0 1 0 0 0 1 1 0 1 0 1 0 1 0 1 0

>  <DIFUSE_FUNC_ATOM>  (2201) 
n/a

>  <FINAL_SINGLE_POINT_ENERGY>  (2201) 
0

>  <NONCOV_INTER_ENERGY_QM>  (2201) 
0

>  <FF_Energy>  (2201) 
-8.16

>  <QM_Energy>  (2201) 
-14.56

>  <source>  (2201) 
ETAM_MBZ

>  <Index>  (2201) 
22901

$$$$
ETAM-pdb3n6h-B-LYS-216:MBZ-pdb3n6h-B-PHE-212
     RDKit          3D

 26 25  0  0  0  0  0  0  0  0999 V2000
   -0.4229    2.6445    3.9856 C   0  0  0  0  0  0  0  0  0  0  0  0
   -1.2502    2.3941    4.4684 H   0  0  0  0  0  0  0  0  0  0  0  0
   -0.5776    2.6864    3.0087 H   0  0  0  0  0  0  0  0  0  0  0  0
   -0.1150    3.6329    4.3265 H   0  0  0  0  0  0  0  0  0  0  0  0
    0.6560    1.5690    4.2662 C   0  0  0  0  0  0  0  0  0  0  0  0
    1.5656    2.0134    4.2090 H   0  0  0  0  0  0  0  0  0  0  0  0
    0.5381    1.2459    5.2196 H   0  0  0  0  0  0  0  0  0  0  0  0
    0.6307    0.3866    3.3435 N   0  0  0  0  0  4  0  0  0  0  0  0
   -0.2909    0.2790    2.9774 H   0  0  0  0  0  0  0  0  0  0  0  0
    1.2761    0.5406    2.5981 H   0  0  0  0  0  0  0  0  0  0  0  0
    0.8912   -0.4309    3.8536 H   0  0  0  0  0  0  0  0  0  0  0  0
    0.0030    2.9041   -0.0120 C   0  0  0  0  0  0  0  0  0  0  0  0
    0.9364    3.2100    0.0920 H   0  0  0  0  0  0  0  0  0  0  0  0
   -0.5673    3.2184    0.7295 H   0  0  0  0  0  0  0  0  0  0  0  0
   -0.3863    3.3346   -0.9347 H   0  0  0  0  0  0  0  0  0  0  0  0
   -0.0007    1.3997    0.0005 C   0  0  0  0  0  0  0  0  0  0  0  0
   -1.1968    0.6923   -0.0009 C   0  0  0  0  0  0  0  0  0  0  0  0
   -2.0623    1.1861   -0.0036 H   0  0  0  0  0  0  0  0  0  0  0  0
   -1.2006   -0.6897   -0.0000 C   0  0  0  0  0  0  0  0  0  0  0  0
   -2.0768   -1.1889   -0.0010 H   0  0  0  0  0  0  0  0  0  0  0  0
    0.0015   -1.3899    0.0038 C   0  0  0  0  0  0  0  0  0  0  0  0
   -0.0086   -2.3896    0.0085 H   0  0  0  0  0  0  0  0  0  0  0  0
    1.2006   -0.7003    0.0000 C   0  0  0  0  0  0  0  0  0  0  0  0
    2.0815   -1.1982    0.0012 H   0  0  0  0  0  0  0  0  0  0  0  0
    1.1961    0.6880   -0.0035 C   0  0  0  0  0  0  0  0  0  0  0  0
    2.0650    1.1860   -0.0097 H   0  0  0  0  0  0  0  0  0  0  0  0
  1  5  1  0
  5  8  1  0
  1  2  1  0
  1  3  1  0
  1  4  1  0
  5  6  1  0
  5  7  1  0
  8  9  1  0
  8 10  1  0
  8 11  1  0
 12 16  1  0
 16 17  2  0
 17 19  1  0
 19 21  2  0
 21 23  1  0
 23 25  2  0
 25 16  1  0
 12 13  1  0
 12 14  1  0
 12 15  1  0
 17 18  1  0
 19 20  1  0
 21 22  1  0
 23 24  1  0
 25 26  1  0
M  CHG  1   8   1
M  END
>  <PDB_ID>  (2202) 
pdb3n6h

>  <RESIDUE_NAME>  (2202) 
LYS   PHE

>  <FRAG_NAME>  (2202) 
ETAM   MBZ

>  <FRAG_ATOM_NUM>  (2202) 
fragi: 11  fragj: 15

>  <atom.prop.CHAIN_ID>  (2202) 
A A A A A A A A A A A Z Z Z Z Z Z Z Z Z Z Z Z Z Z Z

>  <atom.prop.IS_HEAVY_ATOM>  (2202) 
1 0 0 0 1 0 0 1 0 0 0 1 0 0 0 1 1 0 1 0 1 0 1 0 1 0

>  <DIFUSE_FUNC_ATOM>  (2202) 
n/a

>  <FINAL_SINGLE_POINT_ENERGY>  (2202) 
0

>  <NONCOV_INTER_ENERGY_QM>  (2202) 
0

>  <FF_Energy>  (2202) 
-8.6

>  <QM_Energy>  (2202) 
-14.79

>  <source>  (2202) 
ETAM_MBZ

>  <Index>  (2202) 
22903

$$$$
ETAM-pdb3n6h-C-LYS-197:MBZ-pdb3n6h-C-PHE-228
     RDKit          3D

 26 25  0  0  0  0  0  0  0  0999 V2000
    5.2388   -0.9149   -1.9524 C   0  0  0  0  0  0  0  0  0  0  0  0
    5.5493   -1.8219   -1.6912 H   0  0  0  0  0  0  0  0  0  0  0  0
    5.9805   -0.3944   -2.3582 H   0  0  0  0  0  0  0  0  0  0  0  0
    4.4342   -1.0128   -2.6811 H   0  0  0  0  0  0  0  0  0  0  0  0
    4.7677   -0.1836   -0.6931 C   0  0  0  0  0  0  0  0  0  0  0  0
    3.9902   -0.6821   -0.3012 H   0  0  0  0  0  0  0  0  0  0  0  0
    5.5164   -0.1727   -0.0256 H   0  0  0  0  0  0  0  0  0  0  0  0
    4.3479    1.2286   -0.9778 N   0  0  0  0  0  4  0  0  0  0  0  0
    3.7321    1.2334   -1.7632 H   0  0  0  0  0  0  0  0  0  0  0  0
    3.8797    1.5967   -0.1768 H   0  0  0  0  0  0  0  0  0  0  0  0
    5.1581    1.7744   -1.1782 H   0  0  0  0  0  0  0  0  0  0  0  0
   -0.0048    2.9167    0.0062 C   0  0  0  0  0  0  0  0  0  0  0  0
   -0.8620    3.2187   -0.3792 H   0  0  0  0  0  0  0  0  0  0  0  0
    0.7637    3.2261   -0.5328 H   0  0  0  0  0  0  0  0  0  0  0  0
    0.0873    3.3586    0.9984 H   0  0  0  0  0  0  0  0  0  0  0  0
    0.0009    1.4062    0.0029 C   0  0  0  0  0  0  0  0  0  0  0  0
   -1.1981    0.6912   -0.0009 C   0  0  0  0  0  0  0  0  0  0  0  0
   -2.0649    1.1818   -0.0059 H   0  0  0  0  0  0  0  0  0  0  0  0
   -1.2026   -0.7020   -0.0000 C   0  0  0  0  0  0  0  0  0  0  0  0
   -2.0794   -1.1935    0.0047 H   0  0  0  0  0  0  0  0  0  0  0  0
   -0.0027   -1.3956   -0.0035 C   0  0  0  0  0  0  0  0  0  0  0  0
   -0.0025   -2.3942   -0.0085 H   0  0  0  0  0  0  0  0  0  0  0  0
    1.2026   -0.6971    0.0000 C   0  0  0  0  0  0  0  0  0  0  0  0
    2.0824   -1.1951    0.0033 H   0  0  0  0  0  0  0  0  0  0  0  0
    1.2000    0.6973    0.0015 C   0  0  0  0  0  0  0  0  0  0  0  0
    2.0665    1.1923    0.0009 H   0  0  0  0  0  0  0  0  0  0  0  0
  1  5  1  0
  5  8  1  0
  1  2  1  0
  1  3  1  0
  1  4  1  0
  5  6  1  0
  5  7  1  0
  8  9  1  0
  8 10  1  0
  8 11  1  0
 12 16  1  0
 16 17  2  0
 17 19  1  0
 19 21  2  0
 21 23  1  0
 23 25  2  0
 25 16  1  0
 12 13  1  0
 12 14  1  0
 12 15  1  0
 17 18  1  0
 19 20  1  0
 21 22  1  0
 23 24  1  0
 25 26  1  0
M  CHG  1   8   1
M  END
>  <PDB_ID>  (2203) 
pdb3n6h

>  <RESIDUE_NAME>  (2203) 
LYS   PHE

>  <FRAG_NAME>  (2203) 
ETAM   MBZ

>  <FRAG_ATOM_NUM>  (2203) 
fragi: 11  fragj: 15

>  <atom.prop.CHAIN_ID>  (2203) 
A A A A A A A A A A A Z Z Z Z Z Z Z Z Z Z Z Z Z Z Z

>  <atom.prop.IS_HEAVY_ATOM>  (2203) 
1 0 0 0 1 0 0 1 0 0 0 1 0 0 0 1 1 0 1 0 1 0 1 0 1 0

>  <DIFUSE_FUNC_ATOM>  (2203) 
n/a

>  <FINAL_SINGLE_POINT_ENERGY>  (2203) 
0

>  <NONCOV_INTER_ENERGY_QM>  (2203) 
0

>  <FF_Energy>  (2203) 
2.68

>  <QM_Energy>  (2203) 
-2.88

>  <source>  (2203) 
ETAM_MBZ

>  <Index>  (2203) 
22905

$$$$
ETAM-pdb3n6h-D-LYS-197:MBZ-pdb3n6h-D-PHE-228
     RDKit          3D

 26 25  0  0  0  0  0  0  0  0999 V2000
    5.1823   -1.6414   -1.8994 C   0  0  0  0  0  0  0  0  0  0  0  0
    5.6832   -2.4805   -2.0978 H   0  0  0  0  0  0  0  0  0  0  0  0
    5.6596   -0.8594   -2.2915 H   0  0  0  0  0  0  0  0  0  0  0  0
    4.1948   -1.7108   -2.3555 H   0  0  0  0  0  0  0  0  0  0  0  0
    5.1162   -1.4612   -0.3833 C   0  0  0  0  0  0  0  0  0  0  0  0
    4.4569   -2.1229   -0.0083 H   0  0  0  0  0  0  0  0  0  0  0  0
    6.0230   -1.6594    0.0059 H   0  0  0  0  0  0  0  0  0  0  0  0
    4.7053   -0.0820    0.0179 N   0  0  0  0  0  4  0  0  0  0  0  0
    4.2102   -0.1252    0.8836 H   0  0  0  0  0  0  0  0  0  0  0  0
    5.5199    0.4864    0.1238 H   0  0  0  0  0  0  0  0  0  0  0  0
    4.1144    0.3043   -0.6890 H   0  0  0  0  0  0  0  0  0  0  0  0
    0.0017    2.9148   -0.0021 C   0  0  0  0  0  0  0  0  0  0  0  0
   -0.7656    3.2196   -0.5462 H   0  0  0  0  0  0  0  0  0  0  0  0
    0.8601    3.2184   -0.3891 H   0  0  0  0  0  0  0  0  0  0  0  0
   -0.0933    3.3633    0.9868 H   0  0  0  0  0  0  0  0  0  0  0  0
    0.0002    1.4084    0.0029 C   0  0  0  0  0  0  0  0  0  0  0  0
   -1.2018    0.6969   -0.0024 C   0  0  0  0  0  0  0  0  0  0  0  0
   -2.0674    1.1857   -0.0094 H   0  0  0  0  0  0  0  0  0  0  0  0
   -1.2077   -0.7017   -0.0000 C   0  0  0  0  0  0  0  0  0  0  0  0
   -2.0816   -1.1937    0.0033 H   0  0  0  0  0  0  0  0  0  0  0  0
    0.0010   -1.4009    0.0004 C   0  0  0  0  0  0  0  0  0  0  0  0
   -0.0032   -2.3971    0.0003 H   0  0  0  0  0  0  0  0  0  0  0  0
    1.2077   -0.7007   -0.0000 C   0  0  0  0  0  0  0  0  0  0  0  0
    2.0865   -1.1954    0.0014 H   0  0  0  0  0  0  0  0  0  0  0  0
    1.2007    0.6979   -0.0008 C   0  0  0  0  0  0  0  0  0  0  0  0
    2.0677    1.1931   -0.0046 H   0  0  0  0  0  0  0  0  0  0  0  0
  1  5  1  0
  5  8  1  0
  1  2  1  0
  1  3  1  0
  1  4  1  0
  5  6  1  0
  5  7  1  0
  8  9  1  0
  8 10  1  0
  8 11  1  0
 12 16  1  0
 16 17  2  0
 17 19  1  0
 19 21  2  0
 21 23  1  0
 23 25  2  0
 25 16  1  0
 12 13  1  0
 12 14  1  0
 12 15  1  0
 17 18  1  0
 19 20  1  0
 21 22  1  0
 23 24  1  0
 25 26  1  0
M  CHG  1   8   1
M  END
>  <PDB_ID>  (2204) 
pdb3n6h

>  <RESIDUE_NAME>  (2204) 
LYS   PHE

>  <FRAG_NAME>  (2204) 
ETAM   MBZ

>  <FRAG_ATOM_NUM>  (2204) 
fragi: 11  fragj: 15

>  <atom.prop.CHAIN_ID>  (2204) 
A A A A A A A A A A A Z Z Z Z Z Z Z Z Z Z Z Z Z Z Z

>  <atom.prop.IS_HEAVY_ATOM>  (2204) 
1 0 0 0 1 0 0 1 0 0 0 1 0 0 0 1 1 0 1 0 1 0 1 0 1 0

>  <DIFUSE_FUNC_ATOM>  (2204) 
n/a

>  <FINAL_SINGLE_POINT_ENERGY>  (2204) 
0

>  <NONCOV_INTER_ENERGY_QM>  (2204) 
0

>  <FF_Energy>  (2204) 
0.74

>  <QM_Energy>  (2204) 
-4.45

>  <source>  (2204) 
ETAM_MBZ

>  <Index>  (2204) 
22906

$$$$
ETAM-pdb4ki3-B-LYS-63:MBZ-pdb4ki3-B-PHE-188
     RDKit          3D

 26 25  0  0  0  0  0  0  0  0999 V2000
    3.9489   -1.4858    3.3861 C   0  0  0  0  0  0  0  0  0  0  0  0
    3.5668   -0.5865    3.6065 H   0  0  0  0  0  0  0  0  0  0  0  0
    4.8470   -1.5792    3.8185 H   0  0  0  0  0  0  0  0  0  0  0  0
    3.2885   -2.2483    3.7992 H   0  0  0  0  0  0  0  0  0  0  0  0
    4.1168   -1.5907    1.8829 C   0  0  0  0  0  0  0  0  0  0  0  0
    4.6108   -2.4366    1.6652 H   0  0  0  0  0  0  0  0  0  0  0  0
    3.2109   -1.6238    1.4516 H   0  0  0  0  0  0  0  0  0  0  0  0
    4.8771   -0.4279    1.3214 N   0  0  0  0  0  4  0  0  0  0  0  0
    5.3602   -0.7203    0.4987 H   0  0  0  0  0  0  0  0  0  0  0  0
    4.2362    0.3028    1.0966 H   0  0  0  0  0  0  0  0  0  0  0  0
    5.5321   -0.1068    2.0027 H   0  0  0  0  0  0  0  0  0  0  0  0
   -0.0244    2.9048   -0.0009 C   0  0  0  0  0  0  0  0  0  0  0  0
    0.9047    3.2194    0.1064 H   0  0  0  0  0  0  0  0  0  0  0  0
   -0.5988    3.2005    0.7444 H   0  0  0  0  0  0  0  0  0  0  0  0
   -0.4222    3.3245   -0.9249 H   0  0  0  0  0  0  0  0  0  0  0  0
   -0.0065    1.4054   -0.0037 C   0  0  0  0  0  0  0  0  0  0  0  0
   -1.1881    0.6860    0.0126 C   0  0  0  0  0  0  0  0  0  0  0  0
   -2.0642    1.1725    0.0332 H   0  0  0  0  0  0  0  0  0  0  0  0
   -1.1919   -0.6999    0.0000 C   0  0  0  0  0  0  0  0  0  0  0  0
   -2.0738   -1.1926   -0.0054 H   0  0  0  0  0  0  0  0  0  0  0  0
   -0.0018   -1.3940   -0.0028 C   0  0  0  0  0  0  0  0  0  0  0  0
   -0.0074   -2.3953   -0.0071 H   0  0  0  0  0  0  0  0  0  0  0  0
    1.1919   -0.7035    0.0000 C   0  0  0  0  0  0  0  0  0  0  0  0
    2.0786   -1.1933    0.0081 H   0  0  0  0  0  0  0  0  0  0  0  0
    1.1965    0.7061   -0.0061 C   0  0  0  0  0  0  0  0  0  0  0  0
    2.0611    1.1912   -0.0125 H   0  0  0  0  0  0  0  0  0  0  0  0
  1  5  1  0
  5  8  1  0
  1  2  1  0
  1  3  1  0
  1  4  1  0
  5  6  1  0
  5  7  1  0
  8  9  1  0
  8 10  1  0
  8 11  1  0
 12 16  1  0
 16 17  2  0
 17 19  1  0
 19 21  2  0
 21 23  1  0
 23 25  2  0
 25 16  1  0
 12 13  1  0
 12 14  1  0
 12 15  1  0
 17 18  1  0
 19 20  1  0
 21 22  1  0
 23 24  1  0
 25 26  1  0
M  CHG  1   8   1
M  END
>  <PDB_ID>  (2205) 
pdb4ki3

>  <RESIDUE_NAME>  (2205) 
LYS   PHE

>  <FRAG_NAME>  (2205) 
ETAM   MBZ

>  <FRAG_ATOM_NUM>  (2205) 
fragi: 11  fragj: 15

>  <atom.prop.CHAIN_ID>  (2205) 
A A A A A A A A A A A Z Z Z Z Z Z Z Z Z Z Z Z Z Z Z

>  <atom.prop.IS_HEAVY_ATOM>  (2205) 
1 0 0 0 1 0 0 1 0 0 0 1 0 0 0 1 1 0 1 0 1 0 1 0 1 0

>  <DIFUSE_FUNC_ATOM>  (2205) 
n/a

>  <FINAL_SINGLE_POINT_ENERGY>  (2205) 
0

>  <NONCOV_INTER_ENERGY_QM>  (2205) 
0

>  <FF_Energy>  (2205) 
2.33

>  <QM_Energy>  (2205) 
-3.03

>  <source>  (2205) 
ETAM_MBZ

>  <Index>  (2205) 
22926

$$$$
ETAM-pdb4ki3-H-LYS-63:MBZ-pdb4ki3-H-PHE-188
     RDKit          3D

 26 25  0  0  0  0  0  0  0  0999 V2000
    3.7949   -1.7726    2.5144 C   0  0  0  0  0  0  0  0  0  0  0  0
    3.3828   -0.8745    2.3520 H   0  0  0  0  0  0  0  0  0  0  0  0
    4.7034   -1.6504    2.9194 H   0  0  0  0  0  0  0  0  0  0  0  0
    3.1697   -2.3202    3.2197 H   0  0  0  0  0  0  0  0  0  0  0  0
    3.9604   -2.4768    1.1644 C   0  0  0  0  0  0  0  0  0  0  0  0
    4.4753   -3.3271    1.3075 H   0  0  0  0  0  0  0  0  0  0  0  0
    3.0498   -2.7058    0.8082 H   0  0  0  0  0  0  0  0  0  0  0  0
    4.6775   -1.6300    0.1700 N   0  0  0  0  0  4  0  0  0  0  0  0
    4.9673   -0.7795    0.6075 H   0  0  0  0  0  0  0  0  0  0  0  0
    5.4784   -2.1229   -0.1681 H   0  0  0  0  0  0  0  0  0  0  0  0
    4.0642   -1.4231   -0.5915 H   0  0  0  0  0  0  0  0  0  0  0  0
   -0.0191    2.9103    0.0171 C   0  0  0  0  0  0  0  0  0  0  0  0
    0.9125    3.2223    0.0721 H   0  0  0  0  0  0  0  0  0  0  0  0
   -0.5558    3.2081    0.7858 H   0  0  0  0  0  0  0  0  0  0  0  0
   -0.4627    3.3274   -0.8869 H   0  0  0  0  0  0  0  0  0  0  0  0
   -0.0042    1.3998    0.0199 C   0  0  0  0  0  0  0  0  0  0  0  0
   -1.1890    0.6832    0.0117 C   0  0  0  0  0  0  0  0  0  0  0  0
   -2.0620    1.1711    0.0130 H   0  0  0  0  0  0  0  0  0  0  0  0
   -1.1872   -0.6978   -0.0000 C   0  0  0  0  0  0  0  0  0  0  0  0
   -2.0674   -1.1958    0.0089 H   0  0  0  0  0  0  0  0  0  0  0  0
    0.0034   -1.3853   -0.0221 C   0  0  0  0  0  0  0  0  0  0  0  0
    0.0001   -2.3876   -0.0551 H   0  0  0  0  0  0  0  0  0  0  0  0
    1.1872   -0.6939    0.0000 C   0  0  0  0  0  0  0  0  0  0  0  0
    2.0767   -1.1900    0.0248 H   0  0  0  0  0  0  0  0  0  0  0  0
    1.1898    0.6940   -0.0095 C   0  0  0  0  0  0  0  0  0  0  0  0
    2.0571    1.1875   -0.0384 H   0  0  0  0  0  0  0  0  0  0  0  0
  1  5  1  0
  5  8  1  0
  1  2  1  0
  1  3  1  0
  1  4  1  0
  5  6  1  0
  5  7  1  0
  8  9  1  0
  8 10  1  0
  8 11  1  0
 12 16  1  0
 16 17  2  0
 17 19  1  0
 19 21  2  0
 21 23  1  0
 23 25  2  0
 25 16  1  0
 12 13  1  0
 12 14  1  0
 12 15  1  0
 17 18  1  0
 19 20  1  0
 21 22  1  0
 23 24  1  0
 25 26  1  0
M  CHG  1   8   1
M  END
>  <PDB_ID>  (2206) 
pdb4ki3

>  <RESIDUE_NAME>  (2206) 
LYS   PHE

>  <FRAG_NAME>  (2206) 
ETAM   MBZ

>  <FRAG_ATOM_NUM>  (2206) 
fragi: 11  fragj: 15

>  <atom.prop.CHAIN_ID>  (2206) 
A A A A A A A A A A A Z Z Z Z Z Z Z Z Z Z Z Z Z Z Z

>  <atom.prop.IS_HEAVY_ATOM>  (2206) 
1 0 0 0 1 0 0 1 0 0 0 1 0 0 0 1 1 0 1 0 1 0 1 0 1 0

>  <DIFUSE_FUNC_ATOM>  (2206) 
n/a

>  <FINAL_SINGLE_POINT_ENERGY>  (2206) 
0

>  <NONCOV_INTER_ENERGY_QM>  (2206) 
0

>  <FF_Energy>  (2206) 
2.89

>  <QM_Energy>  (2206) 
-3.25

>  <source>  (2206) 
ETAM_MBZ

>  <Index>  (2206) 
22930

$$$$
ETAM-pdb4kk2-B-LYS-177:MBZ-pdb4kk2-B-PHE-258
     RDKit          3D

 26 25  0  0  0  0  0  0  0  0999 V2000
    1.2819   -0.6477   -4.2454 C   0  0  0  0  0  0  0  0  0  0  0  0
    2.2044   -0.7332   -3.8849 H   0  0  0  0  0  0  0  0  0  0  0  0
    1.3030   -0.3023   -5.1771 H   0  0  0  0  0  0  0  0  0  0  0  0
    0.8058   -1.6281   -4.2389 H   0  0  0  0  0  0  0  0  0  0  0  0
    0.5156    0.3464   -3.3794 C   0  0  0  0  0  0  0  0  0  0  0  0
    0.8614    0.2865   -2.4323 H   0  0  0  0  0  0  0  0  0  0  0  0
    0.6990    1.2811   -3.7170 H   0  0  0  0  0  0  0  0  0  0  0  0
   -0.9623    0.1176   -3.3698 N   0  0  0  0  0  4  0  0  0  0  0  0
   -1.2478   -0.1445   -2.4492 H   0  0  0  0  0  0  0  0  0  0  0  0
   -1.4260    0.9594   -3.6398 H   0  0  0  0  0  0  0  0  0  0  0  0
   -1.1848   -0.6127   -4.0138 H   0  0  0  0  0  0  0  0  0  0  0  0
   -0.0019    2.8789   -0.0051 C   0  0  0  0  0  0  0  0  0  0  0  0
   -0.7087    3.1885   -0.6242 H   0  0  0  0  0  0  0  0  0  0  0  0
    0.8907    3.1922   -0.2946 H   0  0  0  0  0  0  0  0  0  0  0  0
   -0.2041    3.3212    0.9704 H   0  0  0  0  0  0  0  0  0  0  0  0
    0.0010    1.3903    0.0008 C   0  0  0  0  0  0  0  0  0  0  0  0
   -1.1893    0.6853   -0.0015 C   0  0  0  0  0  0  0  0  0  0  0  0
   -2.0574    1.1792   -0.0056 H   0  0  0  0  0  0  0  0  0  0  0  0
   -1.1938   -0.6925    0.0000 C   0  0  0  0  0  0  0  0  0  0  0  0
   -2.0732   -1.1883   -0.0001 H   0  0  0  0  0  0  0  0  0  0  0  0
   -0.0027   -1.3804    0.0036 C   0  0  0  0  0  0  0  0  0  0  0  0
   -0.0043   -2.3843    0.0086 H   0  0  0  0  0  0  0  0  0  0  0  0
    1.1938   -0.6911   -0.0000 C   0  0  0  0  0  0  0  0  0  0  0  0
    2.0755   -1.1936    0.0007 H   0  0  0  0  0  0  0  0  0  0  0  0
    1.1910    0.6883   -0.0029 C   0  0  0  0  0  0  0  0  0  0  0  0
    2.0605    1.1872   -0.0084 H   0  0  0  0  0  0  0  0  0  0  0  0
  1  5  1  0
  5  8  1  0
  1  2  1  0
  1  3  1  0
  1  4  1  0
  5  6  1  0
  5  7  1  0
  8  9  1  0
  8 10  1  0
  8 11  1  0
 12 16  1  0
 16 17  2  0
 17 19  1  0
 19 21  2  0
 21 23  1  0
 23 25  2  0
 25 16  1  0
 12 13  1  0
 12 14  1  0
 12 15  1  0
 17 18  1  0
 19 20  1  0
 21 22  1  0
 23 24  1  0
 25 26  1  0
M  CHG  1   8   1
M  END
>  <PDB_ID>  (2207) 
pdb4kk2

>  <RESIDUE_NAME>  (2207) 
LYS   PHE

>  <FRAG_NAME>  (2207) 
ETAM   MBZ

>  <FRAG_ATOM_NUM>  (2207) 
fragi: 11  fragj: 15

>  <atom.prop.CHAIN_ID>  (2207) 
A A A A A A A A A A A Z Z Z Z Z Z Z Z Z Z Z Z Z Z Z

>  <atom.prop.IS_HEAVY_ATOM>  (2207) 
1 0 0 0 1 0 0 1 0 0 0 1 0 0 0 1 1 0 1 0 1 0 1 0 1 0

>  <DIFUSE_FUNC_ATOM>  (2207) 
n/a

>  <FINAL_SINGLE_POINT_ENERGY>  (2207) 
0

>  <NONCOV_INTER_ENERGY_QM>  (2207) 
0

>  <FF_Energy>  (2207) 
-7.04

>  <QM_Energy>  (2207) 
-14.82

>  <source>  (2207) 
ETAM_MBZ

>  <Index>  (2207) 
22954

$$$$
ETAM-pdb4kl5-A-LYS-70:MBZ-pdb4kl5-A-PHE-56
     RDKit          3D

 26 25  0  0  0  0  0  0  0  0999 V2000
   -1.6540   -1.4172   -3.9263 C   0  0  0  0  0  0  0  0  0  0  0  0
   -2.2383   -2.1533   -3.6206 H   0  0  0  0  0  0  0  0  0  0  0  0
   -1.6083   -1.3791   -4.9131 H   0  0  0  0  0  0  0  0  0  0  0  0
   -2.0802   -0.4788   -3.5714 H   0  0  0  0  0  0  0  0  0  0  0  0
   -0.2518   -1.6256   -3.3678 C   0  0  0  0  0  0  0  0  0  0  0  0
    0.3478   -0.8902   -3.7100 H   0  0  0  0  0  0  0  0  0  0  0  0
   -0.2886   -1.5566   -2.3622 H   0  0  0  0  0  0  0  0  0  0  0  0
    0.3441   -2.9475   -3.7404 N   0  0  0  0  0  4  0  0  0  0  0  0
    1.3316   -2.8452   -3.8377 H   0  0  0  0  0  0  0  0  0  0  0  0
    0.1422   -3.6116   -3.0231 H   0  0  0  0  0  0  0  0  0  0  0  0
   -0.0511   -3.2522   -4.6047 H   0  0  0  0  0  0  0  0  0  0  0  0
   -0.0187    2.9156    0.0136 C   0  0  0  0  0  0  0  0  0  0  0  0
   -0.7090    3.2188   -0.6188 H   0  0  0  0  0  0  0  0  0  0  0  0
    0.8782    3.2329   -0.2373 H   0  0  0  0  0  0  0  0  0  0  0  0
   -0.2580    3.3274    0.9940 H   0  0  0  0  0  0  0  0  0  0  0  0
   -0.0012    1.4066   -0.0035 C   0  0  0  0  0  0  0  0  0  0  0  0
   -1.2016    0.6817   -0.0032 C   0  0  0  0  0  0  0  0  0  0  0  0
   -2.0696    1.1696   -0.0069 H   0  0  0  0  0  0  0  0  0  0  0  0
   -1.2048   -0.7148   -0.0000 C   0  0  0  0  0  0  0  0  0  0  0  0
   -2.0763   -1.2087    0.0032 H   0  0  0  0  0  0  0  0  0  0  0  0
    0.0031   -1.4006    0.0001 C   0  0  0  0  0  0  0  0  0  0  0  0
    0.0126   -2.3976   -0.0003 H   0  0  0  0  0  0  0  0  0  0  0  0
    1.2048   -0.6874   -0.0000 C   0  0  0  0  0  0  0  0  0  0  0  0
    2.0895   -1.1796   -0.0038 H   0  0  0  0  0  0  0  0  0  0  0  0
    1.1996    0.7145    0.0066 C   0  0  0  0  0  0  0  0  0  0  0  0
    2.0632    1.2072    0.0176 H   0  0  0  0  0  0  0  0  0  0  0  0
  1  5  1  0
  5  8  1  0
  1  2  1  0
  1  3  1  0
  1  4  1  0
  5  6  1  0
  5  7  1  0
  8  9  1  0
  8 10  1  0
  8 11  1  0
 12 16  1  0
 16 17  2  0
 17 19  1  0
 19 21  2  0
 21 23  1  0
 23 25  2  0
 25 16  1  0
 12 13  1  0
 12 14  1  0
 12 15  1  0
 17 18  1  0
 19 20  1  0
 21 22  1  0
 23 24  1  0
 25 26  1  0
M  CHG  1   8   1
M  END
>  <PDB_ID>  (2208) 
pdb4kl5

>  <RESIDUE_NAME>  (2208) 
LYS   PHE

>  <FRAG_NAME>  (2208) 
ETAM   MBZ

>  <FRAG_ATOM_NUM>  (2208) 
fragi: 11  fragj: 15

>  <atom.prop.CHAIN_ID>  (2208) 
A A A A A A A A A A A Z Z Z Z Z Z Z Z Z Z Z Z Z Z Z

>  <atom.prop.IS_HEAVY_ATOM>  (2208) 
1 0 0 0 1 0 0 1 0 0 0 1 0 0 0 1 1 0 1 0 1 0 1 0 1 0

>  <DIFUSE_FUNC_ATOM>  (2208) 
n/a

>  <FINAL_SINGLE_POINT_ENERGY>  (2208) 
0

>  <NONCOV_INTER_ENERGY_QM>  (2208) 
0

>  <FF_Energy>  (2208) 
-1.51

>  <QM_Energy>  (2208) 
-7.3

>  <source>  (2208) 
ETAM_MBZ

>  <Index>  (2208) 
22969

$$$$
ETAM-pdb4km5-A-LYS-279:MBZ-pdb4km5-A-PHE-265
     RDKit          3D

 26 25  0  0  0  0  0  0  0  0999 V2000
   -2.0939   -4.1269   -0.6162 C   0  0  0  0  0  0  0  0  0  0  0  0
   -2.8217   -3.5219   -0.9195 H   0  0  0  0  0  0  0  0  0  0  0  0
   -1.2612   -3.6113   -0.4479 H   0  0  0  0  0  0  0  0  0  0  0  0
   -2.4018   -4.6160    0.3079 H   0  0  0  0  0  0  0  0  0  0  0  0
   -1.8216   -5.1448   -1.7105 C   0  0  0  0  0  0  0  0  0  0  0  0
   -1.1418   -5.8067   -1.3785 H   0  0  0  0  0  0  0  0  0  0  0  0
   -2.6731   -5.6366   -1.9182 H   0  0  0  0  0  0  0  0  0  0  0  0
   -1.3125   -4.5074   -2.9563 N   0  0  0  0  0  4  0  0  0  0  0  0
   -0.3936   -4.1502   -2.7941 H   0  0  0  0  0  0  0  0  0  0  0  0
   -1.2833   -5.1876   -3.6880 H   0  0  0  0  0  0  0  0  0  0  0  0
   -1.9212   -3.7587   -3.2183 H   0  0  0  0  0  0  0  0  0  0  0  0
    0.0067    2.8927    0.0045 C   0  0  0  0  0  0  0  0  0  0  0  0
    0.7165    3.1995   -0.6126 H   0  0  0  0  0  0  0  0  0  0  0  0
    0.1819    3.1965    0.9303 H   0  0  0  0  0  0  0  0  0  0  0  0
   -0.9317    3.3420   -0.3203 H   0  0  0  0  0  0  0  0  0  0  0  0
    0.0002    1.3932   -0.0006 C   0  0  0  0  0  0  0  0  0  0  0  0
   -1.1918    0.6889    0.0008 C   0  0  0  0  0  0  0  0  0  0  0  0
   -2.0595    1.1806    0.0014 H   0  0  0  0  0  0  0  0  0  0  0  0
   -1.1946   -0.6923   -0.0000 C   0  0  0  0  0  0  0  0  0  0  0  0
   -2.0730   -1.1888    0.0012 H   0  0  0  0  0  0  0  0  0  0  0  0
    0.0007   -1.3834   -0.0008 C   0  0  0  0  0  0  0  0  0  0  0  0
   -0.0043   -2.3857   -0.0019 H   0  0  0  0  0  0  0  0  0  0  0  0
    1.1946   -0.6931    0.0000 C   0  0  0  0  0  0  0  0  0  0  0  0
    2.0779   -1.1939    0.0015 H   0  0  0  0  0  0  0  0  0  0  0  0
    1.1909    0.6867    0.0007 C   0  0  0  0  0  0  0  0  0  0  0  0
    2.0606    1.1854    0.0012 H   0  0  0  0  0  0  0  0  0  0  0  0
  1  5  1  0
  5  8  1  0
  1  2  1  0
  1  3  1  0
  1  4  1  0
  5  6  1  0
  5  7  1  0
  8  9  1  0
  8 10  1  0
  8 11  1  0
 12 16  1  0
 16 17  2  0
 17 19  1  0
 19 21  2  0
 21 23  1  0
 23 25  2  0
 25 16  1  0
 12 13  1  0
 12 14  1  0
 12 15  1  0
 17 18  1  0
 19 20  1  0
 21 22  1  0
 23 24  1  0
 25 26  1  0
M  CHG  1   8   1
M  END
>  <PDB_ID>  (2209) 
pdb4km5

>  <RESIDUE_NAME>  (2209) 
LYS   PHE

>  <FRAG_NAME>  (2209) 
ETAM   MBZ

>  <FRAG_ATOM_NUM>  (2209) 
fragi: 11  fragj: 15

>  <atom.prop.CHAIN_ID>  (2209) 
A A A A A A A A A A A Z Z Z Z Z Z Z Z Z Z Z Z Z Z Z

>  <atom.prop.IS_HEAVY_ATOM>  (2209) 
1 0 0 0 1 0 0 1 0 0 0 1 0 0 0 1 1 0 1 0 1 0 1 0 1 0

>  <DIFUSE_FUNC_ATOM>  (2209) 
n/a

>  <FINAL_SINGLE_POINT_ENERGY>  (2209) 
0

>  <NONCOV_INTER_ENERGY_QM>  (2209) 
0

>  <FF_Energy>  (2209) 
2.75

>  <QM_Energy>  (2209) 
-2.46

>  <source>  (2209) 
ETAM_MBZ

>  <Index>  (2209) 
22973

$$$$
ETAM-pdb3nap-B-LYS-122:MBZ-pdb3nap-B-PHE-83
     RDKit          3D

 26 25  0  0  0  0  0  0  0  0999 V2000
    0.6492    0.9474   -4.1894 C   0  0  0  0  0  0  0  0  0  0  0  0
   -0.2696    1.3309   -4.2692 H   0  0  0  0  0  0  0  0  0  0  0  0
    1.0214    0.7731   -5.1000 H   0  0  0  0  0  0  0  0  0  0  0  0
    1.2889    1.6656   -3.6767 H   0  0  0  0  0  0  0  0  0  0  0  0
    0.5412   -0.4015   -3.4516 C   0  0  0  0  0  0  0  0  0  0  0  0
    0.3979   -0.2223   -2.4753 H   0  0  0  0  0  0  0  0  0  0  0  0
   -0.2516   -0.9011   -3.8102 H   0  0  0  0  0  0  0  0  0  0  0  0
    1.7727   -1.2549   -3.6171 N   0  0  0  0  0  4  0  0  0  0  0  0
    2.2533   -0.9707   -4.4424 H   0  0  0  0  0  0  0  0  0  0  0  0
    2.3587   -1.1322   -2.8207 H   0  0  0  0  0  0  0  0  0  0  0  0
    1.4953   -2.2087   -3.6937 H   0  0  0  0  0  0  0  0  0  0  0  0
    0.0090    2.9057   -0.0509 C   0  0  0  0  0  0  0  0  0  0  0  0
   -0.5975    3.1918   -0.7817 H   0  0  0  0  0  0  0  0  0  0  0  0
    0.9391    3.2007   -0.2284 H   0  0  0  0  0  0  0  0  0  0  0  0
   -0.3244    3.3870    0.8685 H   0  0  0  0  0  0  0  0  0  0  0  0
   -0.0005    1.4087   -0.0007 C   0  0  0  0  0  0  0  0  0  0  0  0
   -1.1986    0.7026    0.0021 C   0  0  0  0  0  0  0  0  0  0  0  0
   -2.0654    1.1888    0.0039 H   0  0  0  0  0  0  0  0  0  0  0  0
   -1.2060   -0.6995    0.0000 C   0  0  0  0  0  0  0  0  0  0  0  0
   -2.0827   -1.1874    0.0009 H   0  0  0  0  0  0  0  0  0  0  0  0
   -0.0005   -1.4031   -0.0013 C   0  0  0  0  0  0  0  0  0  0  0  0
   -0.0071   -2.3992   -0.0039 H   0  0  0  0  0  0  0  0  0  0  0  0
    1.2060   -0.7052   -0.0000 C   0  0  0  0  0  0  0  0  0  0  0  0
    2.0854   -1.1987    0.0018 H   0  0  0  0  0  0  0  0  0  0  0  0
    1.1996    0.6966   -0.0000 C   0  0  0  0  0  0  0  0  0  0  0  0
    2.0672    1.1895   -0.0007 H   0  0  0  0  0  0  0  0  0  0  0  0
  1  5  1  0
  5  8  1  0
  1  2  1  0
  1  3  1  0
  1  4  1  0
  5  6  1  0
  5  7  1  0
  8  9  1  0
  8 10  1  0
  8 11  1  0
 12 16  1  0
 16 17  2  0
 17 19  1  0
 19 21  2  0
 21 23  1  0
 23 25  2  0
 25 16  1  0
 12 13  1  0
 12 14  1  0
 12 15  1  0
 17 18  1  0
 19 20  1  0
 21 22  1  0
 23 24  1  0
 25 26  1  0
M  CHG  1   8   1
M  END
>  <PDB_ID>  (2210) 
pdb3nap

>  <RESIDUE_NAME>  (2210) 
LYS   PHE

>  <FRAG_NAME>  (2210) 
ETAM   MBZ

>  <FRAG_ATOM_NUM>  (2210) 
fragi: 11  fragj: 15

>  <atom.prop.CHAIN_ID>  (2210) 
A A A A A A A A A A A Z Z Z Z Z Z Z Z Z Z Z Z Z Z Z

>  <atom.prop.IS_HEAVY_ATOM>  (2210) 
1 0 0 0 1 0 0 1 0 0 0 1 0 0 0 1 1 0 1 0 1 0 1 0 1 0

>  <DIFUSE_FUNC_ATOM>  (2210) 
n/a

>  <FINAL_SINGLE_POINT_ENERGY>  (2210) 
0

>  <NONCOV_INTER_ENERGY_QM>  (2210) 
0

>  <FF_Energy>  (2210) 
-4.85

>  <QM_Energy>  (2210) 
-11.12

>  <source>  (2210) 
ETAM_MBZ

>  <Index>  (2210) 
22999

$$$$
ETAM-pdb3na8-A-LYS-277:MBZ-pdb3na8-A-PHE-36
     RDKit          3D

 26 25  0  0  0  0  0  0  0  0999 V2000
    5.5426    0.8124   -3.7155 C   0  0  0  0  0  0  0  0  0  0  0  0
    6.0780    0.2309   -3.1165 H   0  0  0  0  0  0  0  0  0  0  0  0
    5.4962    1.7376   -3.3638 H   0  0  0  0  0  0  0  0  0  0  0  0
    6.0069    0.8298   -4.7015 H   0  0  0  0  0  0  0  0  0  0  0  0
    4.1268    0.2531   -3.7964 C   0  0  0  0  0  0  0  0  0  0  0  0
    3.5741    0.8569   -4.3810 H   0  0  0  0  0  0  0  0  0  0  0  0
    4.1631   -0.6582   -4.2215 H   0  0  0  0  0  0  0  0  0  0  0  0
    3.4842    0.1440   -2.4599 N   0  0  0  0  0  4  0  0  0  0  0  0
    3.2231   -0.8069   -2.2937 H   0  0  0  0  0  0  0  0  0  0  0  0
    4.1286    0.4421   -1.7562 H   0  0  0  0  0  0  0  0  0  0  0  0
    2.6695    0.7233   -2.4345 H   0  0  0  0  0  0  0  0  0  0  0  0
   -0.0013    2.8976   -0.0009 C   0  0  0  0  0  0  0  0  0  0  0  0
    0.9320    3.2048    0.1047 H   0  0  0  0  0  0  0  0  0  0  0  0
   -0.5687    3.2041    0.7477 H   0  0  0  0  0  0  0  0  0  0  0  0
   -0.3944    3.3360   -0.9181 H   0  0  0  0  0  0  0  0  0  0  0  0
   -0.0004    1.3946   -0.0004 C   0  0  0  0  0  0  0  0  0  0  0  0
   -1.1912    0.6881    0.0016 C   0  0  0  0  0  0  0  0  0  0  0  0
   -2.0596    1.1798    0.0027 H   0  0  0  0  0  0  0  0  0  0  0  0
   -1.1941   -0.6939    0.0000 C   0  0  0  0  0  0  0  0  0  0  0  0
   -2.0731   -1.1902    0.0012 H   0  0  0  0  0  0  0  0  0  0  0  0
    0.0000   -1.3848   -0.0010 C   0  0  0  0  0  0  0  0  0  0  0  0
   -0.0028   -2.3867   -0.0033 H   0  0  0  0  0  0  0  0  0  0  0  0
    1.1941   -0.6928    0.0000 C   0  0  0  0  0  0  0  0  0  0  0  0
    2.0779   -1.1933    0.0029 H   0  0  0  0  0  0  0  0  0  0  0  0
    1.1915    0.6889   -0.0002 C   0  0  0  0  0  0  0  0  0  0  0  0
    2.0611    1.1870   -0.0007 H   0  0  0  0  0  0  0  0  0  0  0  0
  1  5  1  0
  5  8  1  0
  1  2  1  0
  1  3  1  0
  1  4  1  0
  5  6  1  0
  5  7  1  0
  8  9  1  0
  8 10  1  0
  8 11  1  0
 12 16  1  0
 16 17  2  0
 17 19  1  0
 19 21  2  0
 21 23  1  0
 23 25  2  0
 25 16  1  0
 12 13  1  0
 12 14  1  0
 12 15  1  0
 17 18  1  0
 19 20  1  0
 21 22  1  0
 23 24  1  0
 25 26  1  0
M  CHG  1   8   1
M  END
>  <PDB_ID>  (2211) 
pdb3na8

>  <RESIDUE_NAME>  (2211) 
LYS   PHE

>  <FRAG_NAME>  (2211) 
ETAM   MBZ

>  <FRAG_ATOM_NUM>  (2211) 
fragi: 11  fragj: 15

>  <atom.prop.CHAIN_ID>  (2211) 
A A A A A A A A A A A Z Z Z Z Z Z Z Z Z Z Z Z Z Z Z

>  <atom.prop.IS_HEAVY_ATOM>  (2211) 
1 0 0 0 1 0 0 1 0 0 0 1 0 0 0 1 1 0 1 0 1 0 1 0 1 0

>  <DIFUSE_FUNC_ATOM>  (2211) 
n/a

>  <FINAL_SINGLE_POINT_ENERGY>  (2211) 
0

>  <NONCOV_INTER_ENERGY_QM>  (2211) 
0

>  <FF_Energy>  (2211) 
-1.75

>  <QM_Energy>  (2211) 
-7.34

>  <source>  (2211) 
ETAM_MBZ

>  <Index>  (2211) 
23001

$$$$
ETAM-pdb3naw-B-LYS-766:MBZ-pdb3naw-B-PHE-773
     RDKit          3D

 26 25  0  0  0  0  0  0  0  0999 V2000
    3.0177   -1.5759   -3.7382 C   0  0  0  0  0  0  0  0  0  0  0  0
    2.9978   -2.0449   -4.6071 H   0  0  0  0  0  0  0  0  0  0  0  0
    3.8579   -1.7498   -3.2501 H   0  0  0  0  0  0  0  0  0  0  0  0
    2.9199   -0.5041   -3.9103 H   0  0  0  0  0  0  0  0  0  0  0  0
    1.8455   -2.0909   -2.8827 C   0  0  0  0  0  0  0  0  0  0  0  0
    1.8830   -1.6265   -1.9751 H   0  0  0  0  0  0  0  0  0  0  0  0
    0.9740   -1.7928   -3.3211 H   0  0  0  0  0  0  0  0  0  0  0  0
    1.7807   -3.5798   -2.6556 N   0  0  0  0  0  4  0  0  0  0  0  0
    1.9849   -4.0456   -3.5125 H   0  0  0  0  0  0  0  0  0  0  0  0
    2.4513   -3.8289   -1.9615 H   0  0  0  0  0  0  0  0  0  0  0  0
    0.8640   -3.8192   -2.3465 H   0  0  0  0  0  0  0  0  0  0  0  0
   -0.0088    2.9216    0.0211 C   0  0  0  0  0  0  0  0  0  0  0  0
   -0.7688    3.2283   -0.5276 H   0  0  0  0  0  0  0  0  0  0  0  0
    0.8530    3.2331   -0.3433 H   0  0  0  0  0  0  0  0  0  0  0  0
   -0.1234    3.3410    1.0206 H   0  0  0  0  0  0  0  0  0  0  0  0
   -0.0017    1.4105   -0.0004 C   0  0  0  0  0  0  0  0  0  0  0  0
   -1.1916    0.6956    0.0087 C   0  0  0  0  0  0  0  0  0  0  0  0
   -2.0646    1.1772    0.0203 H   0  0  0  0  0  0  0  0  0  0  0  0
   -1.1989   -0.7114    0.0000 C   0  0  0  0  0  0  0  0  0  0  0  0
   -2.0770   -1.1959   -0.0022 H   0  0  0  0  0  0  0  0  0  0  0  0
    0.0021   -1.4075   -0.0032 C   0  0  0  0  0  0  0  0  0  0  0  0
    0.0057   -2.4015   -0.0079 H   0  0  0  0  0  0  0  0  0  0  0  0
    1.1989   -0.6966    0.0000 C   0  0  0  0  0  0  0  0  0  0  0  0
    2.0858   -1.1839    0.0075 H   0  0  0  0  0  0  0  0  0  0  0  0
    1.1912    0.7094   -0.0051 C   0  0  0  0  0  0  0  0  0  0  0  0
    2.0617    1.1980   -0.0129 H   0  0  0  0  0  0  0  0  0  0  0  0
  1  5  1  0
  5  8  1  0
  1  2  1  0
  1  3  1  0
  1  4  1  0
  5  6  1  0
  5  7  1  0
  8  9  1  0
  8 10  1  0
  8 11  1  0
 12 16  1  0
 16 17  2  0
 17 19  1  0
 19 21  2  0
 21 23  1  0
 23 25  2  0
 25 16  1  0
 12 13  1  0
 12 14  1  0
 12 15  1  0
 17 18  1  0
 19 20  1  0
 21 22  1  0
 23 24  1  0
 25 26  1  0
M  CHG  1   8   1
M  END
>  <PDB_ID>  (2212) 
pdb3naw

>  <RESIDUE_NAME>  (2212) 
LYS   PHE

>  <FRAG_NAME>  (2212) 
ETAM   MBZ

>  <FRAG_ATOM_NUM>  (2212) 
fragi: 11  fragj: 15

>  <atom.prop.CHAIN_ID>  (2212) 
A A A A A A A A A A A Z Z Z Z Z Z Z Z Z Z Z Z Z Z Z

>  <atom.prop.IS_HEAVY_ATOM>  (2212) 
1 0 0 0 1 0 0 1 0 0 0 1 0 0 0 1 1 0 1 0 1 0 1 0 1 0

>  <DIFUSE_FUNC_ATOM>  (2212) 
n/a

>  <FINAL_SINGLE_POINT_ENERGY>  (2212) 
0

>  <NONCOV_INTER_ENERGY_QM>  (2212) 
0

>  <FF_Energy>  (2212) 
2.57

>  <QM_Energy>  (2212) 
-4.59

>  <source>  (2212) 
ETAM_MBZ

>  <Index>  (2212) 
23010

$$$$
ETAM-pdb3na8-B-LYS-277:MBZ-pdb3na8-B-PHE-36
     RDKit          3D

 26 25  0  0  0  0  0  0  0  0999 V2000
    5.3813    0.9080   -3.8439 C   0  0  0  0  0  0  0  0  0  0  0  0
    5.9568    0.4124   -3.2067 H   0  0  0  0  0  0  0  0  0  0  0  0
    5.2831    1.8554   -3.5712 H   0  0  0  0  0  0  0  0  0  0  0  0
    5.8325    0.8679   -4.8353 H   0  0  0  0  0  0  0  0  0  0  0  0
    4.0013    0.2611   -3.8548 C   0  0  0  0  0  0  0  0  0  0  0  0
    3.4094    0.7727   -4.4878 H   0  0  0  0  0  0  0  0  0  0  0  0
    4.0885   -0.6820   -4.1942 H   0  0  0  0  0  0  0  0  0  0  0  0
    3.3690    0.2370   -2.5065 N   0  0  0  0  0  4  0  0  0  0  0  0
    3.9742    0.6854   -1.8492 H   0  0  0  0  0  0  0  0  0  0  0  0
    2.4952    0.7207   -2.5426 H   0  0  0  0  0  0  0  0  0  0  0  0
    3.2164   -0.7106   -2.2295 H   0  0  0  0  0  0  0  0  0  0  0  0
    0.0309    2.8184    0.0086 C   0  0  0  0  0  0  0  0  0  0  0  0
    0.9837    3.1153    0.0469 H   0  0  0  0  0  0  0  0  0  0  0  0
   -0.4514    3.1278    0.8263 H   0  0  0  0  0  0  0  0  0  0  0  0
   -0.4342    3.2932   -0.8553 H   0  0  0  0  0  0  0  0  0  0  0  0
    0.0085    1.3438   -0.0087 C   0  0  0  0  0  0  0  0  0  0  0  0
   -1.1625    0.6507    0.0051 C   0  0  0  0  0  0  0  0  0  0  0  0
   -2.0316    1.1640    0.0180 H   0  0  0  0  0  0  0  0  0  0  0  0
   -1.1517   -0.6584    0.0000 C   0  0  0  0  0  0  0  0  0  0  0  0
   -2.0459   -1.1776    0.0006 H   0  0  0  0  0  0  0  0  0  0  0  0
   -0.0100   -1.3084   -0.0043 C   0  0  0  0  0  0  0  0  0  0  0  0
   -0.0159   -2.3420   -0.0116 H   0  0  0  0  0  0  0  0  0  0  0  0
    1.1517   -0.6698    0.0000 C   0  0  0  0  0  0  0  0  0  0  0  0
    2.0371   -1.1995   -0.0012 H   0  0  0  0  0  0  0  0  0  0  0  0
    1.1640    0.6420    0.0079 C   0  0  0  0  0  0  0  0  0  0  0  0
    2.0446    1.1539    0.0261 H   0  0  0  0  0  0  0  0  0  0  0  0
  1  5  1  0
  5  8  1  0
  1  2  1  0
  1  3  1  0
  1  4  1  0
  5  6  1  0
  5  7  1  0
  8  9  1  0
  8 10  1  0
  8 11  1  0
 12 16  1  0
 16 17  2  0
 17 19  1  0
 19 21  2  0
 21 23  1  0
 23 25  2  0
 25 16  1  0
 12 13  1  0
 12 14  1  0
 12 15  1  0
 17 18  1  0
 19 20  1  0
 21 22  1  0
 23 24  1  0
 25 26  1  0
M  CHG  1   8   1
M  END
>  <PDB_ID>  (2213) 
pdb3na8

>  <RESIDUE_NAME>  (2213) 
LYS   PHE

>  <FRAG_NAME>  (2213) 
ETAM   MBZ

>  <FRAG_ATOM_NUM>  (2213) 
fragi: 11  fragj: 15

>  <atom.prop.CHAIN_ID>  (2213) 
A A A A A A A A A A A Z Z Z Z Z Z Z Z Z Z Z Z Z Z Z

>  <atom.prop.IS_HEAVY_ATOM>  (2213) 
1 0 0 0 1 0 0 1 0 0 0 1 0 0 0 1 1 0 1 0 1 0 1 0 1 0

>  <DIFUSE_FUNC_ATOM>  (2213) 
n/a

>  <FINAL_SINGLE_POINT_ENERGY>  (2213) 
0

>  <NONCOV_INTER_ENERGY_QM>  (2213) 
0

>  <FF_Energy>  (2213) 
-2.07

>  <QM_Energy>  (2213) 
-7.23

>  <source>  (2213) 
ETAM_MBZ

>  <Index>  (2213) 
23043

$$$$
ETAM-pdb3neu-A-LYS-67:MBZ-pdb3neu-A-PHE-73
     RDKit          3D

 26 25  0  0  0  0  0  0  0  0999 V2000
    2.0860   -1.4362    3.2944 C   0  0  0  0  0  0  0  0  0  0  0  0
    1.7269   -1.9302    2.5083 H   0  0  0  0  0  0  0  0  0  0  0  0
    2.2040   -2.0549    4.0648 H   0  0  0  0  0  0  0  0  0  0  0  0
    3.0556   -1.0143    3.0298 H   0  0  0  0  0  0  0  0  0  0  0  0
    1.0888   -0.3569    3.6875 C   0  0  0  0  0  0  0  0  0  0  0  0
    1.4090    0.0928    4.5241 H   0  0  0  0  0  0  0  0  0  0  0  0
    1.0373    0.3229    2.9515 H   0  0  0  0  0  0  0  0  0  0  0  0
   -0.2695   -0.9219    3.9261 N   0  0  0  0  0  4  0  0  0  0  0  0
   -0.7589   -0.9832    3.0569 H   0  0  0  0  0  0  0  0  0  0  0  0
   -0.1833   -1.8325    4.3279 H   0  0  0  0  0  0  0  0  0  0  0  0
   -0.7706   -0.3251    4.5519 H   0  0  0  0  0  0  0  0  0  0  0  0
   -0.0053    2.8878   -0.0073 C   0  0  0  0  0  0  0  0  0  0  0  0
    0.7599    3.2042    0.5315 H   0  0  0  0  0  0  0  0  0  0  0  0
   -0.8652    3.1959    0.3703 H   0  0  0  0  0  0  0  0  0  0  0  0
    0.0916    3.3214   -1.0026 H   0  0  0  0  0  0  0  0  0  0  0  0
    0.0008    1.3892    0.0021 C   0  0  0  0  0  0  0  0  0  0  0  0
   -1.1900    0.6862    0.0011 C   0  0  0  0  0  0  0  0  0  0  0  0
   -2.0572    1.1789   -0.0004 H   0  0  0  0  0  0  0  0  0  0  0  0
   -1.1888   -0.6895    0.0000 C   0  0  0  0  0  0  0  0  0  0  0  0
   -2.0695   -1.1889    0.0015 H   0  0  0  0  0  0  0  0  0  0  0  0
   -0.0000   -1.3774   -0.0010 C   0  0  0  0  0  0  0  0  0  0  0  0
   -0.0077   -2.3837   -0.0026 H   0  0  0  0  0  0  0  0  0  0  0  0
    1.1888   -0.6964    0.0000 C   0  0  0  0  0  0  0  0  0  0  0  0
    2.0737   -1.1943    0.0036 H   0  0  0  0  0  0  0  0  0  0  0  0
    1.1892    0.6880   -0.0021 C   0  0  0  0  0  0  0  0  0  0  0  0
    2.0594    1.1823   -0.0077 H   0  0  0  0  0  0  0  0  0  0  0  0
  1  5  1  0
  5  8  1  0
  1  2  1  0
  1  3  1  0
  1  4  1  0
  5  6  1  0
  5  7  1  0
  8  9  1  0
  8 10  1  0
  8 11  1  0
 12 16  1  0
 16 17  2  0
 17 19  1  0
 19 21  2  0
 21 23  1  0
 23 25  2  0
 25 16  1  0
 12 13  1  0
 12 14  1  0
 12 15  1  0
 17 18  1  0
 19 20  1  0
 21 22  1  0
 23 24  1  0
 25 26  1  0
M  CHG  1   8   1
M  END
>  <PDB_ID>  (2214) 
pdb3neu

>  <RESIDUE_NAME>  (2214) 
LYS   PHE

>  <FRAG_NAME>  (2214) 
ETAM   MBZ

>  <FRAG_ATOM_NUM>  (2214) 
fragi: 11  fragj: 15

>  <atom.prop.CHAIN_ID>  (2214) 
A A A A A A A A A A A Z Z Z Z Z Z Z Z Z Z Z Z Z Z Z

>  <atom.prop.IS_HEAVY_ATOM>  (2214) 
1 0 0 0 1 0 0 1 0 0 0 1 0 0 0 1 1 0 1 0 1 0 1 0 1 0

>  <DIFUSE_FUNC_ATOM>  (2214) 
n/a

>  <FINAL_SINGLE_POINT_ENERGY>  (2214) 
0

>  <NONCOV_INTER_ENERGY_QM>  (2214) 
0

>  <FF_Energy>  (2214) 
-6.51

>  <QM_Energy>  (2214) 
-11.6

>  <source>  (2214) 
ETAM_MBZ

>  <Index>  (2214) 
23073

$$$$
ETAM-pdb4kre-A-LYS-127:MBZ-pdb4kre-A-PHE-113
     RDKit          3D

 26 25  0  0  0  0  0  0  0  0999 V2000
   -5.5338   -0.1443    1.9796 C   0  0  0  0  0  0  0  0  0  0  0  0
   -6.0498   -0.6037    2.6989 H   0  0  0  0  0  0  0  0  0  0  0  0
   -6.1117    0.5214    1.5157 H   0  0  0  0  0  0  0  0  0  0  0  0
   -4.6864    0.3740    2.4285 H   0  0  0  0  0  0  0  0  0  0  0  0
   -5.0869   -1.1852    0.9654 C   0  0  0  0  0  0  0  0  0  0  0  0
   -4.4854   -1.8468    1.4216 H   0  0  0  0  0  0  0  0  0  0  0  0
   -5.8948   -1.6703    0.6184 H   0  0  0  0  0  0  0  0  0  0  0  0
   -4.3576   -0.5711   -0.1797 N   0  0  0  0  0  4  0  0  0  0  0  0
   -4.9791   -0.4793   -0.9567 H   0  0  0  0  0  0  0  0  0  0  0  0
   -4.0202    0.3308    0.0887 H   0  0  0  0  0  0  0  0  0  0  0  0
   -3.5872   -1.1559   -0.4331 H   0  0  0  0  0  0  0  0  0  0  0  0
    0.0029    2.8980   -0.0220 C   0  0  0  0  0  0  0  0  0  0  0  0
   -0.7854    3.1945   -0.5446 H   0  0  0  0  0  0  0  0  0  0  0  0
    0.8449    3.1948   -0.4546 H   0  0  0  0  0  0  0  0  0  0  0  0
   -0.0511    3.3682    0.9599 H   0  0  0  0  0  0  0  0  0  0  0  0
    0.0007    1.3966    0.0064 C   0  0  0  0  0  0  0  0  0  0  0  0
   -1.1930    0.6894   -0.0051 C   0  0  0  0  0  0  0  0  0  0  0  0
   -2.0605    1.1814   -0.0185 H   0  0  0  0  0  0  0  0  0  0  0  0
   -1.1956   -0.6945    0.0000 C   0  0  0  0  0  0  0  0  0  0  0  0
   -2.0741   -1.1901    0.0032 H   0  0  0  0  0  0  0  0  0  0  0  0
   -0.0011   -1.3854    0.0028 C   0  0  0  0  0  0  0  0  0  0  0  0
   -0.0048   -2.3880    0.0066 H   0  0  0  0  0  0  0  0  0  0  0  0
    1.1956   -0.6948    0.0000 C   0  0  0  0  0  0  0  0  0  0  0  0
    2.0778   -1.1952    0.0026 H   0  0  0  0  0  0  0  0  0  0  0  0
    1.1934    0.6887   -0.0041 C   0  0  0  0  0  0  0  0  0  0  0  0
    2.0625    1.1855   -0.0159 H   0  0  0  0  0  0  0  0  0  0  0  0
  1  5  1  0
  5  8  1  0
  1  2  1  0
  1  3  1  0
  1  4  1  0
  5  6  1  0
  5  7  1  0
  8  9  1  0
  8 10  1  0
  8 11  1  0
 12 16  1  0
 16 17  2  0
 17 19  1  0
 19 21  2  0
 21 23  1  0
 23 25  2  0
 25 16  1  0
 12 13  1  0
 12 14  1  0
 12 15  1  0
 17 18  1  0
 19 20  1  0
 21 22  1  0
 23 24  1  0
 25 26  1  0
M  CHG  1   8   1
M  END
>  <PDB_ID>  (2215) 
pdb4kre

>  <RESIDUE_NAME>  (2215) 
LYS   PHE

>  <FRAG_NAME>  (2215) 
ETAM   MBZ

>  <FRAG_ATOM_NUM>  (2215) 
fragi: 11  fragj: 15

>  <atom.prop.CHAIN_ID>  (2215) 
A A A A A A A A A A A Z Z Z Z Z Z Z Z Z Z Z Z Z Z Z

>  <atom.prop.IS_HEAVY_ATOM>  (2215) 
1 0 0 0 1 0 0 1 0 0 0 1 0 0 0 1 1 0 1 0 1 0 1 0 1 0

>  <DIFUSE_FUNC_ATOM>  (2215) 
n/a

>  <FINAL_SINGLE_POINT_ENERGY>  (2215) 
0

>  <NONCOV_INTER_ENERGY_QM>  (2215) 
0

>  <FF_Energy>  (2215) 
4.44

>  <QM_Energy>  (2215) 
-2.03

>  <source>  (2215) 
ETAM_MBZ

>  <Index>  (2215) 
23074

$$$$
ETAM-pdb3na8-C-LYS-277:MBZ-pdb3na8-C-PHE-36
     RDKit          3D

 26 25  0  0  0  0  0  0  0  0999 V2000
    5.5210    0.8130   -3.4539 C   0  0  0  0  0  0  0  0  0  0  0  0
    6.1057    0.3600   -2.7925 H   0  0  0  0  0  0  0  0  0  0  0  0
    5.3565    1.7556   -3.1910 H   0  0  0  0  0  0  0  0  0  0  0  0
    6.0109    0.7974   -4.4275 H   0  0  0  0  0  0  0  0  0  0  0  0
    4.1869    0.0825   -3.5051 C   0  0  0  0  0  0  0  0  0  0  0  0
    3.6056    0.5174   -4.2019 H   0  0  0  0  0  0  0  0  0  0  0  0
    4.3495   -0.8726   -3.7767 H   0  0  0  0  0  0  0  0  0  0  0  0
    3.4773    0.1030   -2.1964 N   0  0  0  0  0  4  0  0  0  0  0  0
    4.0808   -0.2594   -1.4863 H   0  0  0  0  0  0  0  0  0  0  0  0
    3.2232    1.0430   -1.9717 H   0  0  0  0  0  0  0  0  0  0  0  0
    2.6540   -0.4613   -2.2567 H   0  0  0  0  0  0  0  0  0  0  0  0
    0.0005    2.8967    0.0003 C   0  0  0  0  0  0  0  0  0  0  0  0
    0.9360    3.2035    0.0890 H   0  0  0  0  0  0  0  0  0  0  0  0
   -0.5523    3.2025    0.7616 H   0  0  0  0  0  0  0  0  0  0  0  0
   -0.4103    3.3388   -0.9075 H   0  0  0  0  0  0  0  0  0  0  0  0
   -0.0001    1.3950   -0.0022 C   0  0  0  0  0  0  0  0  0  0  0  0
   -1.1918    0.6896    0.0015 C   0  0  0  0  0  0  0  0  0  0  0  0
   -2.0595    1.1814    0.0041 H   0  0  0  0  0  0  0  0  0  0  0  0
   -1.1947   -0.6932    0.0000 C   0  0  0  0  0  0  0  0  0  0  0  0
   -2.0731   -1.1892   -0.0006 H   0  0  0  0  0  0  0  0  0  0  0  0
    0.0003   -1.3858    0.0004 C   0  0  0  0  0  0  0  0  0  0  0  0
   -0.0041   -2.3873    0.0001 H   0  0  0  0  0  0  0  0  0  0  0  0
    1.1947   -0.6941    0.0000 C   0  0  0  0  0  0  0  0  0  0  0  0
    2.0781   -1.1940    0.0012 H   0  0  0  0  0  0  0  0  0  0  0  0
    1.1915    0.6885    0.0002 C   0  0  0  0  0  0  0  0  0  0  0  0
    2.0617    1.1865    0.0010 H   0  0  0  0  0  0  0  0  0  0  0  0
  1  5  1  0
  5  8  1  0
  1  2  1  0
  1  3  1  0
  1  4  1  0
  5  6  1  0
  5  7  1  0
  8  9  1  0
  8 10  1  0
  8 11  1  0
 12 16  1  0
 16 17  2  0
 17 19  1  0
 19 21  2  0
 21 23  1  0
 23 25  2  0
 25 16  1  0
 12 13  1  0
 12 14  1  0
 12 15  1  0
 17 18  1  0
 19 20  1  0
 21 22  1  0
 23 24  1  0
 25 26  1  0
M  CHG  1   8   1
M  END
>  <PDB_ID>  (2216) 
pdb3na8

>  <RESIDUE_NAME>  (2216) 
LYS   PHE

>  <FRAG_NAME>  (2216) 
ETAM   MBZ

>  <FRAG_ATOM_NUM>  (2216) 
fragi: 11  fragj: 15

>  <atom.prop.CHAIN_ID>  (2216) 
A A A A A A A A A A A Z Z Z Z Z Z Z Z Z Z Z Z Z Z Z

>  <atom.prop.IS_HEAVY_ATOM>  (2216) 
1 0 0 0 1 0 0 1 0 0 0 1 0 0 0 1 1 0 1 0 1 0 1 0 1 0

>  <DIFUSE_FUNC_ATOM>  (2216) 
n/a

>  <FINAL_SINGLE_POINT_ENERGY>  (2216) 
0

>  <NONCOV_INTER_ENERGY_QM>  (2216) 
0

>  <FF_Energy>  (2216) 
-1.0

>  <QM_Energy>  (2216) 
-7.47

>  <source>  (2216) 
ETAM_MBZ

>  <Index>  (2216) 
23077

$$$$
ETAM-pdb3nfv-A-LYS-31:MBZ-pdb3nfv-A-PHE-370
     RDKit          3D

 26 25  0  0  0  0  0  0  0  0999 V2000
    0.3057   -0.8973    4.0770 C   0  0  0  0  0  0  0  0  0  0  0  0
    1.1812   -0.5092    3.8151 H   0  0  0  0  0  0  0  0  0  0  0  0
    0.1970   -1.8065    3.6937 H   0  0  0  0  0  0  0  0  0  0  0  0
    0.2725   -0.9725    5.1639 H   0  0  0  0  0  0  0  0  0  0  0  0
   -0.8076   -0.0023    3.5407 C   0  0  0  0  0  0  0  0  0  0  0  0
   -0.9820    0.7302    4.2197 H   0  0  0  0  0  0  0  0  0  0  0  0
   -0.4761    0.4465    2.6940 H   0  0  0  0  0  0  0  0  0  0  0  0
   -2.0650   -0.7158    3.2555 N   0  0  0  0  0  4  0  0  0  0  0  0
   -2.7648   -0.4486    3.9219 H   0  0  0  0  0  0  0  0  0  0  0  0
   -2.3830   -0.4858    2.3333 H   0  0  0  0  0  0  0  0  0  0  0  0
   -1.9152   -1.7047    3.3150 H   0  0  0  0  0  0  0  0  0  0  0  0
    0.0303    2.8797    0.0048 C   0  0  0  0  0  0  0  0  0  0  0  0
    0.7399    3.2008   -0.6154 H   0  0  0  0  0  0  0  0  0  0  0  0
    0.2146    3.1929    0.9307 H   0  0  0  0  0  0  0  0  0  0  0  0
   -0.8953    3.3638   -0.3067 H   0  0  0  0  0  0  0  0  0  0  0  0
    0.0001    1.4120   -0.0129 C   0  0  0  0  0  0  0  0  0  0  0  0
   -1.2110    0.6887   -0.0039 C   0  0  0  0  0  0  0  0  0  0  0  0
   -2.0741    1.1761   -0.0016 H   0  0  0  0  0  0  0  0  0  0  0  0
   -1.2146   -0.7177    0.0000 C   0  0  0  0  0  0  0  0  0  0  0  0
   -2.0830   -1.2092   -0.0139 H   0  0  0  0  0  0  0  0  0  0  0  0
    0.0003   -1.4027    0.0256 C   0  0  0  0  0  0  0  0  0  0  0  0
    0.0139   -2.3969    0.0611 H   0  0  0  0  0  0  0  0  0  0  0  0
    1.2146   -0.6850   -0.0000 C   0  0  0  0  0  0  0  0  0  0  0  0
    2.0925   -1.1883   -0.0106 H   0  0  0  0  0  0  0  0  0  0  0  0
    1.2105    0.7047   -0.0088 C   0  0  0  0  0  0  0  0  0  0  0  0
    2.0709    1.2067   -0.0126 H   0  0  0  0  0  0  0  0  0  0  0  0
  1  5  1  0
  5  8  1  0
  1  2  1  0
  1  3  1  0
  1  4  1  0
  5  6  1  0
  5  7  1  0
  8  9  1  0
  8 10  1  0
  8 11  1  0
 12 16  1  0
 16 17  2  0
 17 19  1  0
 19 21  2  0
 21 23  1  0
 23 25  2  0
 25 16  1  0
 12 13  1  0
 12 14  1  0
 12 15  1  0
 17 18  1  0
 19 20  1  0
 21 22  1  0
 23 24  1  0
 25 26  1  0
M  CHG  1   8   1
M  END
>  <PDB_ID>  (2217) 
pdb3nfv

>  <RESIDUE_NAME>  (2217) 
LYS   PHE

>  <FRAG_NAME>  (2217) 
ETAM   MBZ

>  <FRAG_ATOM_NUM>  (2217) 
fragi: 11  fragj: 15

>  <atom.prop.CHAIN_ID>  (2217) 
A A A A A A A A A A A Z Z Z Z Z Z Z Z Z Z Z Z Z Z Z

>  <atom.prop.IS_HEAVY_ATOM>  (2217) 
1 0 0 0 1 0 0 1 0 0 0 1 0 0 0 1 1 0 1 0 1 0 1 0 1 0

>  <DIFUSE_FUNC_ATOM>  (2217) 
n/a

>  <FINAL_SINGLE_POINT_ENERGY>  (2217) 
0

>  <NONCOV_INTER_ENERGY_QM>  (2217) 
0

>  <FF_Energy>  (2217) 
-5.78

>  <QM_Energy>  (2217) 
-13.05

>  <source>  (2217) 
ETAM_MBZ

>  <Index>  (2217) 
23086

$$$$
ETAM-pdb3na8-D-LYS-277:MBZ-pdb3na8-D-PHE-36
     RDKit          3D

 26 25  0  0  0  0  0  0  0  0999 V2000
    5.1557    1.1705   -3.7781 C   0  0  0  0  0  0  0  0  0  0  0  0
    5.8039    0.6636   -3.2224 H   0  0  0  0  0  0  0  0  0  0  0  0
    5.0377    2.0921   -3.4286 H   0  0  0  0  0  0  0  0  0  0  0  0
    5.5324    1.2244   -4.7995 H   0  0  0  0  0  0  0  0  0  0  0  0
    3.8124    0.4568   -3.7301 C   0  0  0  0  0  0  0  0  0  0  0  0
    3.1637    0.9461   -4.3227 H   0  0  0  0  0  0  0  0  0  0  0  0
    3.9272   -0.4767   -4.0852 H   0  0  0  0  0  0  0  0  0  0  0  0
    3.2570    0.3883   -2.3500 N   0  0  0  0  0  4  0  0  0  0  0  0
    2.4543    0.9803   -2.2864 H   0  0  0  0  0  0  0  0  0  0  0  0
    2.9950   -0.5544   -2.1447 H   0  0  0  0  0  0  0  0  0  0  0  0
    3.9504    0.6924   -1.6982 H   0  0  0  0  0  0  0  0  0  0  0  0
   -0.0013    2.8975    0.0055 C   0  0  0  0  0  0  0  0  0  0  0  0
    0.9379    3.2046   -0.0351 H   0  0  0  0  0  0  0  0  0  0  0  0
   -0.4422    3.2000    0.8382 H   0  0  0  0  0  0  0  0  0  0  0  0
   -0.5343    3.3442   -0.8339 H   0  0  0  0  0  0  0  0  0  0  0  0
   -0.0006    1.3953   -0.0024 C   0  0  0  0  0  0  0  0  0  0  0  0
   -1.1919    0.6887    0.0025 C   0  0  0  0  0  0  0  0  0  0  0  0
   -2.0602    1.1797    0.0071 H   0  0  0  0  0  0  0  0  0  0  0  0
   -1.1948   -0.6946   -0.0000 C   0  0  0  0  0  0  0  0  0  0  0  0
   -2.0730   -1.1911   -0.0002 H   0  0  0  0  0  0  0  0  0  0  0  0
    0.0014   -1.3859   -0.0007 C   0  0  0  0  0  0  0  0  0  0  0  0
   -0.0027   -2.3875   -0.0025 H   0  0  0  0  0  0  0  0  0  0  0  0
    1.1948   -0.6942    0.0000 C   0  0  0  0  0  0  0  0  0  0  0  0
    2.0789   -1.1922    0.0022 H   0  0  0  0  0  0  0  0  0  0  0  0
    1.1911    0.6908    0.0006 C   0  0  0  0  0  0  0  0  0  0  0  0
    2.0604    1.1876    0.0022 H   0  0  0  0  0  0  0  0  0  0  0  0
  1  5  1  0
  5  8  1  0
  1  2  1  0
  1  3  1  0
  1  4  1  0
  5  6  1  0
  5  7  1  0
  8  9  1  0
  8 10  1  0
  8 11  1  0
 12 16  1  0
 16 17  2  0
 17 19  1  0
 19 21  2  0
 21 23  1  0
 23 25  2  0
 25 16  1  0
 12 13  1  0
 12 14  1  0
 12 15  1  0
 17 18  1  0
 19 20  1  0
 21 22  1  0
 23 24  1  0
 25 26  1  0
M  CHG  1   8   1
M  END
>  <PDB_ID>  (2218) 
pdb3na8

>  <RESIDUE_NAME>  (2218) 
LYS   PHE

>  <FRAG_NAME>  (2218) 
ETAM   MBZ

>  <FRAG_ATOM_NUM>  (2218) 
fragi: 11  fragj: 15

>  <atom.prop.CHAIN_ID>  (2218) 
A A A A A A A A A A A Z Z Z Z Z Z Z Z Z Z Z Z Z Z Z

>  <atom.prop.IS_HEAVY_ATOM>  (2218) 
1 0 0 0 1 0 0 1 0 0 0 1 0 0 0 1 1 0 1 0 1 0 1 0 1 0

>  <DIFUSE_FUNC_ATOM>  (2218) 
n/a

>  <FINAL_SINGLE_POINT_ENERGY>  (2218) 
0

>  <NONCOV_INTER_ENERGY_QM>  (2218) 
0

>  <FF_Energy>  (2218) 
-1.49

>  <QM_Energy>  (2218) 
-7.95

>  <source>  (2218) 
ETAM_MBZ

>  <Index>  (2218) 
23110

$$$$
ETAM-pdb4kuj-A-LYS-233:MBZ-pdb4kuj-A-PHE-39
     RDKit          3D

 26 25  0  0  0  0  0  0  0  0999 V2000
   -1.8497   -3.1866    4.4187 C   0  0  0  0  0  0  0  0  0  0  0  0
   -2.6458   -3.7815    4.5438 H   0  0  0  0  0  0  0  0  0  0  0  0
   -1.4011   -3.0460    5.3038 H   0  0  0  0  0  0  0  0  0  0  0  0
   -1.1487   -3.6725    3.7399 H   0  0  0  0  0  0  0  0  0  0  0  0
   -2.3454   -1.8273    3.9148 C   0  0  0  0  0  0  0  0  0  0  0  0
   -2.9592   -1.9923    3.1042 H   0  0  0  0  0  0  0  0  0  0  0  0
   -2.9618   -1.4254    4.6360 H   0  0  0  0  0  0  0  0  0  0  0  0
   -1.3287   -0.8001    3.5365 N   0  0  0  0  0  4  0  0  0  0  0  0
   -1.5596   -0.4230    2.6417 H   0  0  0  0  0  0  0  0  0  0  0  0
   -1.3276   -0.0708    4.2193 H   0  0  0  0  0  0  0  0  0  0  0  0
   -0.4271   -1.2287    3.4995 H   0  0  0  0  0  0  0  0  0  0  0  0
    0.0099    2.9201   -0.0151 C   0  0  0  0  0  0  0  0  0  0  0  0
   -0.1387    3.2106   -0.9487 H   0  0  0  0  0  0  0  0  0  0  0  0
    0.8907    3.2214    0.3190 H   0  0  0  0  0  0  0  0  0  0  0  0
   -0.7594    3.3797    0.6054 H   0  0  0  0  0  0  0  0  0  0  0  0
    0.0003    1.4090    0.0055 C   0  0  0  0  0  0  0  0  0  0  0  0
   -1.2000    0.6912   -0.0027 C   0  0  0  0  0  0  0  0  0  0  0  0
   -2.0655    1.1803   -0.0118 H   0  0  0  0  0  0  0  0  0  0  0  0
   -1.1980   -0.6993    0.0000 C   0  0  0  0  0  0  0  0  0  0  0  0
   -2.0745   -1.1959    0.0028 H   0  0  0  0  0  0  0  0  0  0  0  0
    0.0031   -1.3944    0.0012 C   0  0  0  0  0  0  0  0  0  0  0  0
   -0.0018   -2.3940    0.0024 H   0  0  0  0  0  0  0  0  0  0  0  0
    1.1980   -0.6983   -0.0000 C   0  0  0  0  0  0  0  0  0  0  0  0
    2.0826   -1.1950    0.0032 H   0  0  0  0  0  0  0  0  0  0  0  0
    1.1966    0.6917   -0.0040 C   0  0  0  0  0  0  0  0  0  0  0  0
    2.0666    1.1872   -0.0142 H   0  0  0  0  0  0  0  0  0  0  0  0
  1  5  1  0
  5  8  1  0
  1  2  1  0
  1  3  1  0
  1  4  1  0
  5  6  1  0
  5  7  1  0
  8  9  1  0
  8 10  1  0
  8 11  1  0
 12 16  1  0
 16 17  2  0
 17 19  1  0
 19 21  2  0
 21 23  1  0
 23 25  2  0
 25 16  1  0
 12 13  1  0
 12 14  1  0
 12 15  1  0
 17 18  1  0
 19 20  1  0
 21 22  1  0
 23 24  1  0
 25 26  1  0
M  CHG  1   8   1
M  END
>  <PDB_ID>  (2219) 
pdb4kuj

>  <RESIDUE_NAME>  (2219) 
LYS   PHE

>  <FRAG_NAME>  (2219) 
ETAM   MBZ

>  <FRAG_ATOM_NUM>  (2219) 
fragi: 11  fragj: 15

>  <atom.prop.CHAIN_ID>  (2219) 
A A A A A A A A A A A Z Z Z Z Z Z Z Z Z Z Z Z Z Z Z

>  <atom.prop.IS_HEAVY_ATOM>  (2219) 
1 0 0 0 1 0 0 1 0 0 0 1 0 0 0 1 1 0 1 0 1 0 1 0 1 0

>  <DIFUSE_FUNC_ATOM>  (2219) 
n/a

>  <FINAL_SINGLE_POINT_ENERGY>  (2219) 
0

>  <NONCOV_INTER_ENERGY_QM>  (2219) 
0

>  <FF_Energy>  (2219) 
-5.79

>  <QM_Energy>  (2219) 
-12.13

>  <source>  (2219) 
ETAM_MBZ

>  <Index>  (2219) 
23114

$$$$
ETAM-pdb4kvz-A-LYS-197:MBZ-pdb4kvz-A-PHE-212
     RDKit          3D

 26 25  0  0  0  0  0  0  0  0999 V2000
    4.4043   -4.2272   -0.9052 C   0  0  0  0  0  0  0  0  0  0  0  0
    5.0333   -3.6546   -1.4207 H   0  0  0  0  0  0  0  0  0  0  0  0
    4.8391   -5.0859   -0.6574 H   0  0  0  0  0  0  0  0  0  0  0  0
    4.1134   -3.7014    0.0042 H   0  0  0  0  0  0  0  0  0  0  0  0
    3.1966   -4.5338   -1.7850 C   0  0  0  0  0  0  0  0  0  0  0  0
    3.5088   -5.0591   -2.5894 H   0  0  0  0  0  0  0  0  0  0  0  0
    2.5567   -5.1172   -1.2639 H   0  0  0  0  0  0  0  0  0  0  0  0
    2.4751   -3.3164   -2.2499 N   0  0  0  0  0  4  0  0  0  0  0  0
    1.6734   -3.1662   -1.6729 H   0  0  0  0  0  0  0  0  0  0  0  0
    3.0846   -2.5269   -2.1883 H   0  0  0  0  0  0  0  0  0  0  0  0
    2.1874   -3.4442   -3.1985 H   0  0  0  0  0  0  0  0  0  0  0  0
    0.0066    2.9080    0.0067 C   0  0  0  0  0  0  0  0  0  0  0  0
    0.8838    3.2094    0.3512 H   0  0  0  0  0  0  0  0  0  0  0  0
   -0.7312    3.2135    0.5912 H   0  0  0  0  0  0  0  0  0  0  0  0
   -0.1377    3.3694   -0.9702 H   0  0  0  0  0  0  0  0  0  0  0  0
    0.0008    1.4013   -0.0066 C   0  0  0  0  0  0  0  0  0  0  0  0
   -1.1974    0.6933   -0.0003 C   0  0  0  0  0  0  0  0  0  0  0  0
   -2.0631    1.1843    0.0031 H   0  0  0  0  0  0  0  0  0  0  0  0
   -1.2010   -0.6951   -0.0000 C   0  0  0  0  0  0  0  0  0  0  0  0
   -2.0789   -1.1891    0.0009 H   0  0  0  0  0  0  0  0  0  0  0  0
   -0.0027   -1.3904    0.0003 C   0  0  0  0  0  0  0  0  0  0  0  0
   -0.0078   -2.3910    0.0006 H   0  0  0  0  0  0  0  0  0  0  0  0
    1.2010   -0.6988   -0.0000 C   0  0  0  0  0  0  0  0  0  0  0  0
    2.0803   -1.2004   -0.0037 H   0  0  0  0  0  0  0  0  0  0  0  0
    1.1993    0.6897    0.0066 C   0  0  0  0  0  0  0  0  0  0  0  0
    2.0661    1.1864    0.0206 H   0  0  0  0  0  0  0  0  0  0  0  0
  1  5  1  0
  5  8  1  0
  1  2  1  0
  1  3  1  0
  1  4  1  0
  5  6  1  0
  5  7  1  0
  8  9  1  0
  8 10  1  0
  8 11  1  0
 12 16  1  0
 16 17  2  0
 17 19  1  0
 19 21  2  0
 21 23  1  0
 23 25  2  0
 25 16  1  0
 12 13  1  0
 12 14  1  0
 12 15  1  0
 17 18  1  0
 19 20  1  0
 21 22  1  0
 23 24  1  0
 25 26  1  0
M  CHG  1   8   1
M  END
>  <PDB_ID>  (2220) 
pdb4kvz

>  <RESIDUE_NAME>  (2220) 
LYS   PHE

>  <FRAG_NAME>  (2220) 
ETAM   MBZ

>  <FRAG_ATOM_NUM>  (2220) 
fragi: 11  fragj: 15

>  <atom.prop.CHAIN_ID>  (2220) 
A A A A A A A A A A A Z Z Z Z Z Z Z Z Z Z Z Z Z Z Z

>  <atom.prop.IS_HEAVY_ATOM>  (2220) 
1 0 0 0 1 0 0 1 0 0 0 1 0 0 0 1 1 0 1 0 1 0 1 0 1 0

>  <DIFUSE_FUNC_ATOM>  (2220) 
n/a

>  <FINAL_SINGLE_POINT_ENERGY>  (2220) 
0

>  <NONCOV_INTER_ENERGY_QM>  (2220) 
0

>  <FF_Energy>  (2220) 
-0.58

>  <QM_Energy>  (2220) 
-5.78

>  <source>  (2220) 
ETAM_MBZ

>  <Index>  (2220) 
23130

$$$$
ETAM-pdb3nie-B-LYS-255:MBZ-pdb3nie-B-PHE-127
     RDKit          3D

 26 25  0  0  0  0  0  0  0  0999 V2000
    0.6151   -0.9816    4.3699 C   0  0  0  0  0  0  0  0  0  0  0  0
    0.5621   -0.3680    5.1616 H   0  0  0  0  0  0  0  0  0  0  0  0
    0.8403   -1.9051    4.6866 H   0  0  0  0  0  0  0  0  0  0  0  0
   -0.3688   -1.0146    3.9021 H   0  0  0  0  0  0  0  0  0  0  0  0
    1.7192   -0.4971    3.4461 C   0  0  0  0  0  0  0  0  0  0  0  0
    1.3194    0.0958    2.7427 H   0  0  0  0  0  0  0  0  0  0  0  0
    2.3829    0.0328    3.9800 H   0  0  0  0  0  0  0  0  0  0  0  0
    2.4206   -1.6328    2.7861 N   0  0  0  0  0  4  0  0  0  0  0  0
    3.3621   -1.3672    2.5814 H   0  0  0  0  0  0  0  0  0  0  0  0
    2.4214   -2.4227    3.3981 H   0  0  0  0  0  0  0  0  0  0  0  0
    1.9470   -1.8669    1.9376 H   0  0  0  0  0  0  0  0  0  0  0  0
   -0.0021    2.8856    0.0030 C   0  0  0  0  0  0  0  0  0  0  0  0
    0.9227    3.1973    0.1634 H   0  0  0  0  0  0  0  0  0  0  0  0
   -0.6136    3.1956    0.7153 H   0  0  0  0  0  0  0  0  0  0  0  0
   -0.3419    3.3151   -0.9395 H   0  0  0  0  0  0  0  0  0  0  0  0
    0.0011    1.3945    0.0069 C   0  0  0  0  0  0  0  0  0  0  0  0
   -1.1841    0.6930    0.0009 C   0  0  0  0  0  0  0  0  0  0  0  0
   -2.0558    1.1821   -0.0039 H   0  0  0  0  0  0  0  0  0  0  0  0
   -1.1904   -0.6938    0.0000 C   0  0  0  0  0  0  0  0  0  0  0  0
   -2.0755   -1.1822    0.0053 H   0  0  0  0  0  0  0  0  0  0  0  0
   -0.0069   -1.3861   -0.0061 C   0  0  0  0  0  0  0  0  0  0  0  0
   -0.0084   -2.3873   -0.0152 H   0  0  0  0  0  0  0  0  0  0  0  0
    1.1904   -0.6952   -0.0000 C   0  0  0  0  0  0  0  0  0  0  0  0
    2.0725   -1.1972    0.0070 H   0  0  0  0  0  0  0  0  0  0  0  0
    1.1899    0.6876   -0.0017 C   0  0  0  0  0  0  0  0  0  0  0  0
    2.0613    1.1827   -0.0097 H   0  0  0  0  0  0  0  0  0  0  0  0
  1  5  1  0
  5  8  1  0
  1  2  1  0
  1  3  1  0
  1  4  1  0
  5  6  1  0
  5  7  1  0
  8  9  1  0
  8 10  1  0
  8 11  1  0
 12 16  1  0
 16 17  2  0
 17 19  1  0
 19 21  2  0
 21 23  1  0
 23 25  2  0
 25 16  1  0
 12 13  1  0
 12 14  1  0
 12 15  1  0
 17 18  1  0
 19 20  1  0
 21 22  1  0
 23 24  1  0
 25 26  1  0
M  CHG  1   8   1
M  END
>  <PDB_ID>  (2221) 
pdb3nie

>  <RESIDUE_NAME>  (2221) 
LYS   PHE

>  <FRAG_NAME>  (2221) 
ETAM   MBZ

>  <FRAG_ATOM_NUM>  (2221) 
fragi: 11  fragj: 15

>  <atom.prop.CHAIN_ID>  (2221) 
A A A A A A A A A A A Z Z Z Z Z Z Z Z Z Z Z Z Z Z Z

>  <atom.prop.IS_HEAVY_ATOM>  (2221) 
1 0 0 0 1 0 0 1 0 0 0 1 0 0 0 1 1 0 1 0 1 0 1 0 1 0

>  <DIFUSE_FUNC_ATOM>  (2221) 
n/a

>  <FINAL_SINGLE_POINT_ENERGY>  (2221) 
0

>  <NONCOV_INTER_ENERGY_QM>  (2221) 
0

>  <FF_Energy>  (2221) 
-3.36

>  <QM_Energy>  (2221) 
-10.77

>  <source>  (2221) 
ETAM_MBZ

>  <Index>  (2221) 
23149

$$$$
ETAM-pdb4l0k-C-LYS-89:MBZ-pdb4l0k-C-PHE-18
     RDKit          3D

 26 25  0  0  0  0  0  0  0  0999 V2000
    1.0091   -4.1437   -2.2682 C   0  0  0  0  0  0  0  0  0  0  0  0
    1.1947   -4.3332   -1.3027 H   0  0  0  0  0  0  0  0  0  0  0  0
    1.0439   -3.1550   -2.4240 H   0  0  0  0  0  0  0  0  0  0  0  0
    1.7811   -4.6206   -2.8722 H   0  0  0  0  0  0  0  0  0  0  0  0
   -0.3791   -4.6378   -2.6002 C   0  0  0  0  0  0  0  0  0  0  0  0
   -0.5741   -4.4473   -3.5627 H   0  0  0  0  0  0  0  0  0  0  0  0
   -0.4241   -5.6250   -2.4418 H   0  0  0  0  0  0  0  0  0  0  0  0
   -1.3941   -3.9619   -1.7539 N   0  0  0  0  0  4  0  0  0  0  0  0
   -0.9500   -3.5742   -0.9457 H   0  0  0  0  0  0  0  0  0  0  0  0
   -1.8308   -3.2300   -2.2766 H   0  0  0  0  0  0  0  0  0  0  0  0
   -2.0855   -4.6256   -1.4681 H   0  0  0  0  0  0  0  0  0  0  0  0
    0.0033    2.8846   -0.0063 C   0  0  0  0  0  0  0  0  0  0  0  0
    0.8369    3.1925    0.4291 H   0  0  0  0  0  0  0  0  0  0  0  0
   -0.7952    3.1966    0.4873 H   0  0  0  0  0  0  0  0  0  0  0  0
   -0.0315    3.3185   -1.0057 H   0  0  0  0  0  0  0  0  0  0  0  0
    0.0003    1.3886   -0.0000 C   0  0  0  0  0  0  0  0  0  0  0  0
   -1.1907    0.6882   -0.0003 C   0  0  0  0  0  0  0  0  0  0  0  0
   -2.0572    1.1826   -0.0019 H   0  0  0  0  0  0  0  0  0  0  0  0
   -1.1945   -0.6880    0.0000 C   0  0  0  0  0  0  0  0  0  0  0  0
   -2.0731   -1.1865    0.0002 H   0  0  0  0  0  0  0  0  0  0  0  0
   -0.0012   -1.3796    0.0010 C   0  0  0  0  0  0  0  0  0  0  0  0
   -0.0073   -2.3831    0.0022 H   0  0  0  0  0  0  0  0  0  0  0  0
    1.1945   -0.6926    0.0000 C   0  0  0  0  0  0  0  0  0  0  0  0
    2.0760   -1.1965    0.0008 H   0  0  0  0  0  0  0  0  0  0  0  0
    1.1915    0.6834   -0.0007 C   0  0  0  0  0  0  0  0  0  0  0  0
    2.0608    1.1843   -0.0028 H   0  0  0  0  0  0  0  0  0  0  0  0
  1  5  1  0
  5  8  1  0
  1  2  1  0
  1  3  1  0
  1  4  1  0
  5  6  1  0
  5  7  1  0
  8  9  1  0
  8 10  1  0
  8 11  1  0
 12 16  1  0
 16 17  2  0
 17 19  1  0
 19 21  2  0
 21 23  1  0
 23 25  2  0
 25 16  1  0
 12 13  1  0
 12 14  1  0
 12 15  1  0
 17 18  1  0
 19 20  1  0
 21 22  1  0
 23 24  1  0
 25 26  1  0
M  CHG  1   8   1
M  END
>  <PDB_ID>  (2222) 
pdb4l0k

>  <RESIDUE_NAME>  (2222) 
LYS   PHE

>  <FRAG_NAME>  (2222) 
ETAM   MBZ

>  <FRAG_ATOM_NUM>  (2222) 
fragi: 11  fragj: 15

>  <atom.prop.CHAIN_ID>  (2222) 
A A A A A A A A A A A Z Z Z Z Z Z Z Z Z Z Z Z Z Z Z

>  <atom.prop.IS_HEAVY_ATOM>  (2222) 
1 0 0 0 1 0 0 1 0 0 0 1 0 0 0 1 1 0 1 0 1 0 1 0 1 0

>  <DIFUSE_FUNC_ATOM>  (2222) 
n/a

>  <FINAL_SINGLE_POINT_ENERGY>  (2222) 
0

>  <NONCOV_INTER_ENERGY_QM>  (2222) 
0

>  <FF_Energy>  (2222) 
0.17

>  <QM_Energy>  (2222) 
-5.73

>  <source>  (2222) 
ETAM_MBZ

>  <Index>  (2222) 
23170

$$$$
ETAM-pdb4l2j-A-LYS-119:MBZ-pdb4l2j-A-PHE-190
     RDKit          3D

 26 25  0  0  0  0  0  0  0  0999 V2000
    3.4841    0.5613    4.1496 C   0  0  0  0  0  0  0  0  0  0  0  0
    4.1178    0.2010    3.4723 H   0  0  0  0  0  0  0  0  0  0  0  0
    3.4842   -0.0105    4.9629 H   0  0  0  0  0  0  0  0  0  0  0  0
    3.7928    1.5701    4.4236 H   0  0  0  0  0  0  0  0  0  0  0  0
    2.0814    0.5493    3.5516 C   0  0  0  0  0  0  0  0  0  0  0  0
    1.4521    0.9954    4.1918 H   0  0  0  0  0  0  0  0  0  0  0  0
    2.0903    1.0636    2.6910 H   0  0  0  0  0  0  0  0  0  0  0  0
    1.6030   -0.8404    3.2846 N   0  0  0  0  0  4  0  0  0  0  0  0
    0.7821   -1.0148    3.8260 H   0  0  0  0  0  0  0  0  0  0  0  0
    1.3923   -0.9351    2.3130 H   0  0  0  0  0  0  0  0  0  0  0  0
    2.3186   -1.4889    3.5382 H   0  0  0  0  0  0  0  0  0  0  0  0
   -0.0115    2.9054    0.0222 C   0  0  0  0  0  0  0  0  0  0  0  0
   -0.7270    3.2115   -0.5790 H   0  0  0  0  0  0  0  0  0  0  0  0
    0.8758    3.2181   -0.2647 H   0  0  0  0  0  0  0  0  0  0  0  0
   -0.2074    3.3176    1.0121 H   0  0  0  0  0  0  0  0  0  0  0  0
   -0.0020    1.3942    0.0055 C   0  0  0  0  0  0  0  0  0  0  0  0
   -1.1883    0.6850   -0.0022 C   0  0  0  0  0  0  0  0  0  0  0  0
   -2.0615    1.1752   -0.0108 H   0  0  0  0  0  0  0  0  0  0  0  0
   -1.1984   -0.7033   -0.0000 C   0  0  0  0  0  0  0  0  0  0  0  0
   -2.0737   -1.1949    0.0032 H   0  0  0  0  0  0  0  0  0  0  0  0
    0.0010   -1.3890   -0.0013 C   0  0  0  0  0  0  0  0  0  0  0  0
    0.0058   -2.3895   -0.0040 H   0  0  0  0  0  0  0  0  0  0  0  0
    1.1984   -0.6868   -0.0000 C   0  0  0  0  0  0  0  0  0  0  0  0
    2.0822   -1.1825    0.0038 H   0  0  0  0  0  0  0  0  0  0  0  0
    1.1892    0.6999   -0.0019 C   0  0  0  0  0  0  0  0  0  0  0  0
    2.0576    1.1985   -0.0096 H   0  0  0  0  0  0  0  0  0  0  0  0
  1  5  1  0
  5  8  1  0
  1  2  1  0
  1  3  1  0
  1  4  1  0
  5  6  1  0
  5  7  1  0
  8  9  1  0
  8 10  1  0
  8 11  1  0
 12 16  1  0
 16 17  2  0
 17 19  1  0
 19 21  2  0
 21 23  1  0
 23 25  2  0
 25 16  1  0
 12 13  1  0
 12 14  1  0
 12 15  1  0
 17 18  1  0
 19 20  1  0
 21 22  1  0
 23 24  1  0
 25 26  1  0
M  CHG  1   8   1
M  END
>  <PDB_ID>  (2223) 
pdb4l2j

>  <RESIDUE_NAME>  (2223) 
LYS   PHE

>  <FRAG_NAME>  (2223) 
ETAM   MBZ

>  <FRAG_ATOM_NUM>  (2223) 
fragi: 11  fragj: 15

>  <atom.prop.CHAIN_ID>  (2223) 
A A A A A A A A A A A Z Z Z Z Z Z Z Z Z Z Z Z Z Z Z

>  <atom.prop.IS_HEAVY_ATOM>  (2223) 
1 0 0 0 1 0 0 1 0 0 0 1 0 0 0 1 1 0 1 0 1 0 1 0 1 0

>  <DIFUSE_FUNC_ATOM>  (2223) 
n/a

>  <FINAL_SINGLE_POINT_ENERGY>  (2223) 
0

>  <NONCOV_INTER_ENERGY_QM>  (2223) 
0

>  <FF_Energy>  (2223) 
-6.3

>  <QM_Energy>  (2223) 
-13.76

>  <source>  (2223) 
ETAM_MBZ

>  <Index>  (2223) 
23191

$$$$
ETAM-pdb4l4o-A-LYS-16:MBZ-pdb4l4o-A-PHE-337
     RDKit          3D

 26 25  0  0  0  0  0  0  0  0999 V2000
   -1.1028   -2.6621   -3.9540 C   0  0  0  0  0  0  0  0  0  0  0  0
   -0.7875   -3.3618   -4.5762 H   0  0  0  0  0  0  0  0  0  0  0  0
   -1.7723   -2.0738   -4.3800 H   0  0  0  0  0  0  0  0  0  0  0  0
   -1.5634   -3.1464   -3.0930 H   0  0  0  0  0  0  0  0  0  0  0  0
    0.0721   -1.8319   -3.5039 C   0  0  0  0  0  0  0  0  0  0  0  0
    0.3647   -2.1342   -2.6059 H   0  0  0  0  0  0  0  0  0  0  0  0
    0.8089   -1.9178   -4.1621 H   0  0  0  0  0  0  0  0  0  0  0  0
   -0.3558   -0.4126   -3.4291 N   0  0  0  0  0  4  0  0  0  0  0  0
   -0.5606   -0.1752   -2.4787 H   0  0  0  0  0  0  0  0  0  0  0  0
    0.3784    0.1752   -3.7681 H   0  0  0  0  0  0  0  0  0  0  0  0
   -1.1733   -0.2809   -3.9894 H   0  0  0  0  0  0  0  0  0  0  0  0
   -0.0026    2.9605   -0.0380 C   0  0  0  0  0  0  0  0  0  0  0  0
    0.8865    3.2598    0.2641 H   0  0  0  0  0  0  0  0  0  0  0  0
   -0.7175    3.2620    0.5691 H   0  0  0  0  0  0  0  0  0  0  0  0
   -0.1891    3.3902   -1.0222 H   0  0  0  0  0  0  0  0  0  0  0  0
   -0.0004    1.4208   -0.0106 C   0  0  0  0  0  0  0  0  0  0  0  0
   -1.2004    0.6907    0.0044 C   0  0  0  0  0  0  0  0  0  0  0  0
   -2.0689    1.1797    0.0175 H   0  0  0  0  0  0  0  0  0  0  0  0
   -1.2022   -0.7041   -0.0000 C   0  0  0  0  0  0  0  0  0  0  0  0
   -2.0819   -1.1959   -0.0118 H   0  0  0  0  0  0  0  0  0  0  0  0
   -0.0040   -1.4048    0.0127 C   0  0  0  0  0  0  0  0  0  0  0  0
   -0.0050   -2.3993    0.0306 H   0  0  0  0  0  0  0  0  0  0  0  0
    1.2022   -0.7021    0.0000 C   0  0  0  0  0  0  0  0  0  0  0  0
    2.0831   -1.2001   -0.0028 H   0  0  0  0  0  0  0  0  0  0  0  0
    1.2048    0.6994   -0.0065 C   0  0  0  0  0  0  0  0  0  0  0  0
    2.0710    1.1905   -0.0092 H   0  0  0  0  0  0  0  0  0  0  0  0
  1  5  1  0
  5  8  1  0
  1  2  1  0
  1  3  1  0
  1  4  1  0
  5  6  1  0
  5  7  1  0
  8  9  1  0
  8 10  1  0
  8 11  1  0
 12 16  1  0
 16 17  2  0
 17 19  1  0
 19 21  2  0
 21 23  1  0
 23 25  2  0
 25 16  1  0
 12 13  1  0
 12 14  1  0
 12 15  1  0
 17 18  1  0
 19 20  1  0
 21 22  1  0
 23 24  1  0
 25 26  1  0
M  CHG  1   8   1
M  END
>  <PDB_ID>  (2224) 
pdb4l4o

>  <RESIDUE_NAME>  (2224) 
LYS   PHE

>  <FRAG_NAME>  (2224) 
ETAM   MBZ

>  <FRAG_ATOM_NUM>  (2224) 
fragi: 11  fragj: 15

>  <atom.prop.CHAIN_ID>  (2224) 
A A A A A A A A A A A Z Z Z Z Z Z Z Z Z Z Z Z Z Z Z

>  <atom.prop.IS_HEAVY_ATOM>  (2224) 
1 0 0 0 1 0 0 1 0 0 0 1 0 0 0 1 1 0 1 0 1 0 1 0 1 0

>  <DIFUSE_FUNC_ATOM>  (2224) 
n/a

>  <FINAL_SINGLE_POINT_ENERGY>  (2224) 
0

>  <NONCOV_INTER_ENERGY_QM>  (2224) 
0

>  <FF_Energy>  (2224) 
-8.42

>  <QM_Energy>  (2224) 
-16.02

>  <source>  (2224) 
ETAM_MBZ

>  <Index>  (2224) 
23205

$$$$
ETAM-pdb4l4t-G-LYS-91:MBZ-pdb4l4t-G-PHE-33
     RDKit          3D

 26 25  0  0  0  0  0  0  0  0999 V2000
    3.6396   -3.3077    1.5852 C   0  0  0  0  0  0  0  0  0  0  0  0
    3.3515   -3.2793    0.6324 H   0  0  0  0  0  0  0  0  0  0  0  0
    4.1431   -4.1478    1.7665 H   0  0  0  0  0  0  0  0  0  0  0  0
    4.2882   -2.4547    1.7845 H   0  0  0  0  0  0  0  0  0  0  0  0
    2.4174   -3.2758    2.4638 C   0  0  0  0  0  0  0  0  0  0  0  0
    2.6630   -3.5743    3.3871 H   0  0  0  0  0  0  0  0  0  0  0  0
    2.0579   -2.3419    2.5023 H   0  0  0  0  0  0  0  0  0  0  0  0
    1.3519   -4.1802    1.9320 N   0  0  0  0  0  4  0  0  0  0  0  0
    1.7426   -4.7673    1.2253 H   0  0  0  0  0  0  0  0  0  0  0  0
    0.9952   -4.7408    2.6776 H   0  0  0  0  0  0  0  0  0  0  0  0
    0.6166   -3.6278    1.5439 H   0  0  0  0  0  0  0  0  0  0  0  0
   -0.0009    2.9154    0.0131 C   0  0  0  0  0  0  0  0  0  0  0  0
    0.6929    3.2161    0.6613 H   0  0  0  0  0  0  0  0  0  0  0  0
   -0.9016    3.2208    0.3095 H   0  0  0  0  0  0  0  0  0  0  0  0
    0.2093    3.4094   -0.9355 H   0  0  0  0  0  0  0  0  0  0  0  0
   -0.0004    1.4090   -0.0068 C   0  0  0  0  0  0  0  0  0  0  0  0
   -1.1989    0.6971   -0.0003 C   0  0  0  0  0  0  0  0  0  0  0  0
   -2.0658    1.1805    0.0026 H   0  0  0  0  0  0  0  0  0  0  0  0
   -1.1989   -0.7044    0.0000 C   0  0  0  0  0  0  0  0  0  0  0  0
   -2.0773   -1.1928    0.0036 H   0  0  0  0  0  0  0  0  0  0  0  0
   -0.0022   -1.3903   -0.0033 C   0  0  0  0  0  0  0  0  0  0  0  0
   -0.0050   -2.3961   -0.0086 H   0  0  0  0  0  0  0  0  0  0  0  0
    1.1989   -0.7051    0.0000 C   0  0  0  0  0  0  0  0  0  0  0  0
    2.0793   -1.2021   -0.0039 H   0  0  0  0  0  0  0  0  0  0  0  0
    1.2014    0.6938    0.0104 C   0  0  0  0  0  0  0  0  0  0  0  0
    2.0677    1.1853    0.0296 H   0  0  0  0  0  0  0  0  0  0  0  0
  1  5  1  0
  5  8  1  0
  1  2  1  0
  1  3  1  0
  1  4  1  0
  5  6  1  0
  5  7  1  0
  8  9  1  0
  8 10  1  0
  8 11  1  0
 12 16  1  0
 16 17  2  0
 17 19  1  0
 19 21  2  0
 21 23  1  0
 23 25  2  0
 25 16  1  0
 12 13  1  0
 12 14  1  0
 12 15  1  0
 17 18  1  0
 19 20  1  0
 21 22  1  0
 23 24  1  0
 25 26  1  0
M  CHG  1   8   1
M  END
>  <PDB_ID>  (2225) 
pdb4l4t

>  <RESIDUE_NAME>  (2225) 
LYS   PHE

>  <FRAG_NAME>  (2225) 
ETAM   MBZ

>  <FRAG_ATOM_NUM>  (2225) 
fragi: 11  fragj: 15

>  <atom.prop.CHAIN_ID>  (2225) 
A A A A A A A A A A A Z Z Z Z Z Z Z Z Z Z Z Z Z Z Z

>  <atom.prop.IS_HEAVY_ATOM>  (2225) 
1 0 0 0 1 0 0 1 0 0 0 1 0 0 0 1 1 0 1 0 1 0 1 0 1 0

>  <DIFUSE_FUNC_ATOM>  (2225) 
n/a

>  <FINAL_SINGLE_POINT_ENERGY>  (2225) 
0

>  <NONCOV_INTER_ENERGY_QM>  (2225) 
0

>  <FF_Energy>  (2225) 
-0.59

>  <QM_Energy>  (2225) 
-6.37

>  <source>  (2225) 
ETAM_MBZ

>  <Index>  (2225) 
23217

$$$$
ETAM-pdb3npf-A-LYS-271:MBZ-pdb3npf-A-PHE-238
     RDKit          3D

 26 25  0  0  0  0  0  0  0  0999 V2000
   -1.1424    0.9828   -4.2147 C   0  0  0  0  0  0  0  0  0  0  0  0
   -1.6650    1.7822   -3.9526 H   0  0  0  0  0  0  0  0  0  0  0  0
   -1.2569    0.7828   -5.1782 H   0  0  0  0  0  0  0  0  0  0  0  0
   -0.0884    1.1954   -4.0359 H   0  0  0  0  0  0  0  0  0  0  0  0
   -1.6033   -0.2065   -3.3990 C   0  0  0  0  0  0  0  0  0  0  0  0
   -1.3294   -1.0612   -3.8789 H   0  0  0  0  0  0  0  0  0  0  0  0
   -1.1128   -0.2044   -2.5072 H   0  0  0  0  0  0  0  0  0  0  0  0
   -3.0752   -0.2641   -3.1307 N   0  0  0  0  0  4  0  0  0  0  0  0
   -3.5526   -0.4978   -3.9760 H   0  0  0  0  0  0  0  0  0  0  0  0
   -3.2543   -0.9591   -2.4370 H   0  0  0  0  0  0  0  0  0  0  0  0
   -3.3830    0.6271   -2.8031 H   0  0  0  0  0  0  0  0  0  0  0  0
   -0.0153    2.8974    0.0153 C   0  0  0  0  0  0  0  0  0  0  0  0
   -0.6512    3.2145   -0.6660 H   0  0  0  0  0  0  0  0  0  0  0  0
    0.8999    3.2171   -0.1574 H   0  0  0  0  0  0  0  0  0  0  0  0
   -0.3313    3.3054    0.9754 H   0  0  0  0  0  0  0  0  0  0  0  0
   -0.0037    1.3983   -0.0097 C   0  0  0  0  0  0  0  0  0  0  0  0
   -1.1956    0.6883   -0.0062 C   0  0  0  0  0  0  0  0  0  0  0  0
   -2.0644    1.1732   -0.0093 H   0  0  0  0  0  0  0  0  0  0  0  0
   -1.1942   -0.7045   -0.0000 C   0  0  0  0  0  0  0  0  0  0  0  0
   -2.0702   -1.1986    0.0019 H   0  0  0  0  0  0  0  0  0  0  0  0
    0.0039   -1.3856    0.0054 C   0  0  0  0  0  0  0  0  0  0  0  0
    0.0061   -2.3897    0.0126 H   0  0  0  0  0  0  0  0  0  0  0  0
    1.1942   -0.6910    0.0000 C   0  0  0  0  0  0  0  0  0  0  0  0
    2.0813   -1.1897   -0.0101 H   0  0  0  0  0  0  0  0  0  0  0  0
    1.1954    0.6946    0.0104 C   0  0  0  0  0  0  0  0  0  0  0  0
    2.0599    1.1918    0.0318 H   0  0  0  0  0  0  0  0  0  0  0  0
  1  5  1  0
  5  8  1  0
  1  2  1  0
  1  3  1  0
  1  4  1  0
  5  6  1  0
  5  7  1  0
  8  9  1  0
  8 10  1  0
  8 11  1  0
 12 16  1  0
 16 17  2  0
 17 19  1  0
 19 21  2  0
 21 23  1  0
 23 25  2  0
 25 16  1  0
 12 13  1  0
 12 14  1  0
 12 15  1  0
 17 18  1  0
 19 20  1  0
 21 22  1  0
 23 24  1  0
 25 26  1  0
M  CHG  1   8   1
M  END
>  <PDB_ID>  (2226) 
pdb3npf

>  <RESIDUE_NAME>  (2226) 
LYS   PHE

>  <FRAG_NAME>  (2226) 
ETAM   MBZ

>  <FRAG_ATOM_NUM>  (2226) 
fragi: 11  fragj: 15

>  <atom.prop.CHAIN_ID>  (2226) 
A A A A A A A A A A A Z Z Z Z Z Z Z Z Z Z Z Z Z Z Z

>  <atom.prop.IS_HEAVY_ATOM>  (2226) 
1 0 0 0 1 0 0 1 0 0 0 1 0 0 0 1 1 0 1 0 1 0 1 0 1 0

>  <DIFUSE_FUNC_ATOM>  (2226) 
n/a

>  <FINAL_SINGLE_POINT_ENERGY>  (2226) 
0

>  <NONCOV_INTER_ENERGY_QM>  (2226) 
0

>  <FF_Energy>  (2226) 
-3.03

>  <QM_Energy>  (2226) 
-8.33

>  <source>  (2226) 
ETAM_MBZ

>  <Index>  (2226) 
23236

$$$$
ETAM-pdb4l5a-A-LYS-235:MBZ-pdb4l5a-A-PHE-231
     RDKit          3D

 26 25  0  0  0  0  0  0  0  0999 V2000
   -0.2525    1.2096    3.4938 C   0  0  0  0  0  0  0  0  0  0  0  0
   -1.0657    0.9160    3.0002 H   0  0  0  0  0  0  0  0  0  0  0  0
    0.4953    1.3744    2.8587 H   0  0  0  0  0  0  0  0  0  0  0  0
   -0.4776    2.1370    4.0204 H   0  0  0  0  0  0  0  0  0  0  0  0
    0.1581    0.1091    4.4534 C   0  0  0  0  0  0  0  0  0  0  0  0
    1.0720    0.3123    4.8115 H   0  0  0  0  0  0  0  0  0  0  0  0
   -0.4927    0.0800    5.2157 H   0  0  0  0  0  0  0  0  0  0  0  0
    0.1818   -1.2206    3.7825 N   0  0  0  0  0  4  0  0  0  0  0  0
    0.6719   -1.8739    4.3592 H   0  0  0  0  0  0  0  0  0  0  0  0
   -0.7556   -1.5369    3.6409 H   0  0  0  0  0  0  0  0  0  0  0  0
    0.6450   -1.1386    2.9004 H   0  0  0  0  0  0  0  0  0  0  0  0
    0.0006    2.9014    0.0148 C   0  0  0  0  0  0  0  0  0  0  0  0
    0.8973    3.2026    0.3076 H   0  0  0  0  0  0  0  0  0  0  0  0
   -0.7008    3.1982    0.6477 H   0  0  0  0  0  0  0  0  0  0  0  0
   -0.2066    3.3584   -0.9528 H   0  0  0  0  0  0  0  0  0  0  0  0
    0.0008    1.3967   -0.0030 C   0  0  0  0  0  0  0  0  0  0  0  0
   -1.1931    0.6899    0.0026 C   0  0  0  0  0  0  0  0  0  0  0  0
   -2.0605    1.1813    0.0075 H   0  0  0  0  0  0  0  0  0  0  0  0
   -1.1965   -0.6941   -0.0000 C   0  0  0  0  0  0  0  0  0  0  0  0
   -2.0754   -1.1899    0.0008 H   0  0  0  0  0  0  0  0  0  0  0  0
   -0.0012   -1.3874   -0.0017 C   0  0  0  0  0  0  0  0  0  0  0  0
   -0.0044   -2.3881   -0.0051 H   0  0  0  0  0  0  0  0  0  0  0  0
    1.1965   -0.6946   -0.0000 C   0  0  0  0  0  0  0  0  0  0  0  0
    2.0787   -1.1949    0.0017 H   0  0  0  0  0  0  0  0  0  0  0  0
    1.1935    0.6895    0.0021 C   0  0  0  0  0  0  0  0  0  0  0  0
    2.0631    1.1871    0.0058 H   0  0  0  0  0  0  0  0  0  0  0  0
  1  5  1  0
  5  8  1  0
  1  2  1  0
  1  3  1  0
  1  4  1  0
  5  6  1  0
  5  7  1  0
  8  9  1  0
  8 10  1  0
  8 11  1  0
 12 16  1  0
 16 17  2  0
 17 19  1  0
 19 21  2  0
 21 23  1  0
 23 25  2  0
 25 16  1  0
 12 13  1  0
 12 14  1  0
 12 15  1  0
 17 18  1  0
 19 20  1  0
 21 22  1  0
 23 24  1  0
 25 26  1  0
M  CHG  1   8   1
M  END
>  <PDB_ID>  (2227) 
pdb4l5a

>  <RESIDUE_NAME>  (2227) 
LYS   PHE

>  <FRAG_NAME>  (2227) 
ETAM   MBZ

>  <FRAG_ATOM_NUM>  (2227) 
fragi: 11  fragj: 15

>  <atom.prop.CHAIN_ID>  (2227) 
A A A A A A A A A A A Z Z Z Z Z Z Z Z Z Z Z Z Z Z Z

>  <atom.prop.IS_HEAVY_ATOM>  (2227) 
1 0 0 0 1 0 0 1 0 0 0 1 0 0 0 1 1 0 1 0 1 0 1 0 1 0

>  <DIFUSE_FUNC_ATOM>  (2227) 
n/a

>  <FINAL_SINGLE_POINT_ENERGY>  (2227) 
0

>  <NONCOV_INTER_ENERGY_QM>  (2227) 
0

>  <FF_Energy>  (2227) 
-6.63

>  <QM_Energy>  (2227) 
-12.1

>  <source>  (2227) 
ETAM_MBZ

>  <Index>  (2227) 
23259

$$$$
ETAM-pdb3nok-B-LYS-242:MBZ-pdb3nok-B-PHE-44
     RDKit          3D

 26 25  0  0  0  0  0  0  0  0999 V2000
   -0.2104   -0.4451   -3.7383 C   0  0  0  0  0  0  0  0  0  0  0  0
    0.4115   -1.0913   -3.3355 H   0  0  0  0  0  0  0  0  0  0  0  0
   -0.6128    0.1528   -3.0691 H   0  0  0  0  0  0  0  0  0  0  0  0
    0.3324    0.1567   -4.4672 H   0  0  0  0  0  0  0  0  0  0  0  0
   -1.3291   -1.2138   -4.4468 C   0  0  0  0  0  0  0  0  0  0  0  0
   -1.9221   -0.5744   -4.9049 H   0  0  0  0  0  0  0  0  0  0  0  0
   -0.9314   -1.8601   -5.0756 H   0  0  0  0  0  0  0  0  0  0  0  0
   -2.1208   -1.9630   -3.4047 N   0  0  0  0  0  4  0  0  0  0  0  0
   -2.8835   -1.3938   -3.1104 H   0  0  0  0  0  0  0  0  0  0  0  0
   -2.4597   -2.8098   -3.8056 H   0  0  0  0  0  0  0  0  0  0  0  0
   -1.5251   -2.1649   -2.6320 H   0  0  0  0  0  0  0  0  0  0  0  0
   -0.0369    2.8702    0.0057 C   0  0  0  0  0  0  0  0  0  0  0  0
    0.5274    3.2075    0.7551 H   0  0  0  0  0  0  0  0  0  0  0  0
   -0.9794    3.1724    0.1264 H   0  0  0  0  0  0  0  0  0  0  0  0
    0.3323    3.3415   -0.9051 H   0  0  0  0  0  0  0  0  0  0  0  0
   -0.0026    1.4044    0.0038 C   0  0  0  0  0  0  0  0  0  0  0  0
   -1.2302    0.6866    0.0165 C   0  0  0  0  0  0  0  0  0  0  0  0
   -2.0846    1.1740    0.0351 H   0  0  0  0  0  0  0  0  0  0  0  0
   -1.2342   -0.7323   -0.0000 C   0  0  0  0  0  0  0  0  0  0  0  0
   -2.0831   -1.2291   -0.0097 H   0  0  0  0  0  0  0  0  0  0  0  0
    0.0141   -1.4028    0.0006 C   0  0  0  0  0  0  0  0  0  0  0  0
    0.0388   -2.3966    0.0007 H   0  0  0  0  0  0  0  0  0  0  0  0
    1.2342   -0.6660   -0.0000 C   0  0  0  0  0  0  0  0  0  0  0  0
    2.1106   -1.1728    0.0165 H   0  0  0  0  0  0  0  0  0  0  0  0
    1.2187    0.7101   -0.0208 C   0  0  0  0  0  0  0  0  0  0  0  0
    2.0692    1.2276   -0.0541 H   0  0  0  0  0  0  0  0  0  0  0  0
  1  5  1  0
  5  8  1  0
  1  2  1  0
  1  3  1  0
  1  4  1  0
  5  6  1  0
  5  7  1  0
  8  9  1  0
  8 10  1  0
  8 11  1  0
 12 16  1  0
 16 17  2  0
 17 19  1  0
 19 21  2  0
 21 23  1  0
 23 25  2  0
 25 16  1  0
 12 13  1  0
 12 14  1  0
 12 15  1  0
 17 18  1  0
 19 20  1  0
 21 22  1  0
 23 24  1  0
 25 26  1  0
M  CHG  1   8   1
M  END
>  <PDB_ID>  (2228) 
pdb3nok

>  <RESIDUE_NAME>  (2228) 
LYS   PHE

>  <FRAG_NAME>  (2228) 
ETAM   MBZ

>  <FRAG_ATOM_NUM>  (2228) 
fragi: 11  fragj: 15

>  <atom.prop.CHAIN_ID>  (2228) 
A A A A A A A A A A A Z Z Z Z Z Z Z Z Z Z Z Z Z Z Z

>  <atom.prop.IS_HEAVY_ATOM>  (2228) 
1 0 0 0 1 0 0 1 0 0 0 1 0 0 0 1 1 0 1 0 1 0 1 0 1 0

>  <DIFUSE_FUNC_ATOM>  (2228) 
n/a

>  <FINAL_SINGLE_POINT_ENERGY>  (2228) 
0

>  <NONCOV_INTER_ENERGY_QM>  (2228) 
0

>  <FF_Energy>  (2228) 
-4.13

>  <QM_Energy>  (2228) 
-9.81

>  <source>  (2228) 
ETAM_MBZ

>  <Index>  (2228) 
23262

$$$$
ETAM-pdb3nrh-A-GLN-6:MBZ-pdb3nrh-A-PHE-9
     RDKit          3D

 26 25  0  0  0  0  0  0  0  0999 V2000
    5.9642    1.1363   -3.1868 C   0  0  0  0  0  0  0  0  0  0  0  0
    5.6984    1.1487   -4.1507 H   0  0  0  0  0  0  0  0  0  0  0  0
    6.5576    1.9211   -2.9960 H   0  0  0  0  0  0  0  0  0  0  0  0
    6.5363    0.2266   -3.0045 H   0  0  0  0  0  0  0  0  0  0  0  0
    4.7017    1.2561   -2.3273 C   0  0  0  0  0  0  0  0  0  0  0  0
    4.9388    1.3069   -1.3539 H   0  0  0  0  0  0  0  0  0  0  0  0
    4.1577    2.1625   -2.5928 H   0  0  0  0  0  0  0  0  0  0  0  0
    3.8466    0.0471   -2.5110 N   0  0  0  0  0  4  0  0  0  0  0  0
    3.3214   -0.1100   -1.6784 H   0  0  0  0  0  0  0  0  0  0  0  0
    3.2280    0.1989   -3.2773 H   0  0  0  0  0  0  0  0  0  0  0  0
    4.4293   -0.7392   -2.6969 H   0  0  0  0  0  0  0  0  0  0  0  0
    0.0026    2.9047   -0.0020 C   0  0  0  0  0  0  0  0  0  0  0  0
    0.9425    3.2105   -0.0112 H   0  0  0  0  0  0  0  0  0  0  0  0
   -0.4678    3.2144    0.8113 H   0  0  0  0  0  0  0  0  0  0  0  0
   -0.4989    3.3448   -0.8639 H   0  0  0  0  0  0  0  0  0  0  0  0
    0.0005    1.4042    0.0005 C   0  0  0  0  0  0  0  0  0  0  0  0
   -1.1981    0.6962   -0.0001 C   0  0  0  0  0  0  0  0  0  0  0  0
   -2.0645    1.1850   -0.0016 H   0  0  0  0  0  0  0  0  0  0  0  0
   -1.2042   -0.7000   -0.0000 C   0  0  0  0  0  0  0  0  0  0  0  0
   -2.0808   -1.1909    0.0020 H   0  0  0  0  0  0  0  0  0  0  0  0
   -0.0008   -1.3977   -0.0009 C   0  0  0  0  0  0  0  0  0  0  0  0
   -0.0031   -2.3944   -0.0029 H   0  0  0  0  0  0  0  0  0  0  0  0
    1.2042   -0.6984    0.0000 C   0  0  0  0  0  0  0  0  0  0  0  0
    2.0841   -1.1950    0.0019 H   0  0  0  0  0  0  0  0  0  0  0  0
    1.1984    0.6956    0.0005 C   0  0  0  0  0  0  0  0  0  0  0  0
    2.0664    1.1913   -0.0002 H   0  0  0  0  0  0  0  0  0  0  0  0
  1  5  1  0
  5  8  1  0
  1  2  1  0
  1  3  1  0
  1  4  1  0
  5  6  1  0
  5  7  1  0
  8  9  1  0
  8 10  1  0
  8 11  1  0
 12 16  1  0
 16 17  2  0
 17 19  1  0
 19 21  2  0
 21 23  1  0
 23 25  2  0
 25 16  1  0
 12 13  1  0
 12 14  1  0
 12 15  1  0
 17 18  1  0
 19 20  1  0
 21 22  1  0
 23 24  1  0
 25 26  1  0
M  CHG  1   8   1
M  END
>  <PDB_ID>  (2229) 
pdb3nrh

>  <RESIDUE_NAME>  (2229) 
GLN   PHE

>  <FRAG_NAME>  (2229) 
ETAM   MBZ

>  <FRAG_ATOM_NUM>  (2229) 
fragi: 11  fragj: 15

>  <atom.prop.CHAIN_ID>  (2229) 
A A A A A A A A A A A Z Z Z Z Z Z Z Z Z Z Z Z Z Z Z

>  <atom.prop.IS_HEAVY_ATOM>  (2229) 
1 0 0 0 1 0 0 1 0 0 0 1 0 0 0 1 1 0 1 0 1 0 1 0 1 0

>  <DIFUSE_FUNC_ATOM>  (2229) 
n/a

>  <FINAL_SINGLE_POINT_ENERGY>  (2229) 
0

>  <NONCOV_INTER_ENERGY_QM>  (2229) 
0

>  <FF_Energy>  (2229) 
-1.4

>  <QM_Energy>  (2229) 
-6.49

>  <source>  (2229) 
ETAM_MBZ

>  <Index>  (2229) 
23283

$$$$
ETAM-pdb4l8h-B-LYS-46:MBZ-pdb4l8h-A-PHE-107
     RDKit          3D

 26 25  0  0  0  0  0  0  0  0999 V2000
   -2.7619   -2.1759    3.0768 C   0  0  0  0  0  0  0  0  0  0  0  0
   -2.5239   -3.0936    2.8035 H   0  0  0  0  0  0  0  0  0  0  0  0
   -2.9189   -1.5917    2.2975 H   0  0  0  0  0  0  0  0  0  0  0  0
   -3.6474   -2.1950    3.7121 H   0  0  0  0  0  0  0  0  0  0  0  0
   -1.5813   -1.5977    3.8712 C   0  0  0  0  0  0  0  0  0  0  0  0
   -1.7602   -1.7131    4.8095 H   0  0  0  0  0  0  0  0  0  0  0  0
   -0.7689   -1.9956    3.5430 H   0  0  0  0  0  0  0  0  0  0  0  0
   -1.6692   -0.2001    3.4894 N   0  0  0  0  0  4  0  0  0  0  0  0
   -2.3531   -0.0781    2.7623 H   0  0  0  0  0  0  0  0  0  0  0  0
   -1.9380    0.3619    4.2793 H   0  0  0  0  0  0  0  0  0  0  0  0
   -0.7810    0.1268    3.1509 H   0  0  0  0  0  0  0  0  0  0  0  0
   -0.0129    2.8886   -0.0091 C   0  0  0  0  0  0  0  0  0  0  0  0
    0.8638    3.2042    0.3186 H   0  0  0  0  0  0  0  0  0  0  0  0
   -0.7490    3.1923    0.5751 H   0  0  0  0  0  0  0  0  0  0  0  0
   -0.1739    3.3150   -0.9992 H   0  0  0  0  0  0  0  0  0  0  0  0
   -0.0003    1.3908   -0.0018 C   0  0  0  0  0  0  0  0  0  0  0  0
   -1.2017    0.6708   -0.0128 C   0  0  0  0  0  0  0  0  0  0  0  0
   -2.0643    1.1763   -0.0315 H   0  0  0  0  0  0  0  0  0  0  0  0
   -1.2012   -0.6881    0.0000 C   0  0  0  0  0  0  0  0  0  0  0  0
   -2.0675   -1.2057    0.0054 H   0  0  0  0  0  0  0  0  0  0  0  0
    0.0153   -1.3879    0.0079 C   0  0  0  0  0  0  0  0  0  0  0  0
    0.0009   -2.3861    0.0189 H   0  0  0  0  0  0  0  0  0  0  0  0
    1.2012   -0.6950   -0.0000 C   0  0  0  0  0  0  0  0  0  0  0  0
    2.0905   -1.1759   -0.0090 H   0  0  0  0  0  0  0  0  0  0  0  0
    1.1867    0.7094    0.0067 C   0  0  0  0  0  0  0  0  0  0  0  0
    2.0573    1.2000    0.0167 H   0  0  0  0  0  0  0  0  0  0  0  0
  1  5  1  0
  5  8  1  0
  1  2  1  0
  1  3  1  0
  1  4  1  0
  5  6  1  0
  5  7  1  0
  8  9  1  0
  8 10  1  0
  8 11  1  0
 12 16  1  0
 16 17  2  0
 17 19  1  0
 19 21  2  0
 21 23  1  0
 23 25  2  0
 25 16  1  0
 12 13  1  0
 12 14  1  0
 12 15  1  0
 17 18  1  0
 19 20  1  0
 21 22  1  0
 23 24  1  0
 25 26  1  0
M  CHG  1   8   1
M  END
>  <PDB_ID>  (2230) 
pdb4l8h

>  <RESIDUE_NAME>  (2230) 
LYS   PHE

>  <FRAG_NAME>  (2230) 
ETAM   MBZ

>  <FRAG_ATOM_NUM>  (2230) 
fragi: 11  fragj: 15

>  <atom.prop.CHAIN_ID>  (2230) 
A A A A A A A A A A A Z Z Z Z Z Z Z Z Z Z Z Z Z Z Z

>  <atom.prop.IS_HEAVY_ATOM>  (2230) 
1 0 0 0 1 0 0 1 0 0 0 1 0 0 0 1 1 0 1 0 1 0 1 0 1 0

>  <DIFUSE_FUNC_ATOM>  (2230) 
n/a

>  <FINAL_SINGLE_POINT_ENERGY>  (2230) 
0

>  <NONCOV_INTER_ENERGY_QM>  (2230) 
0

>  <FF_Energy>  (2230) 
-6.11

>  <QM_Energy>  (2230) 
-11.35

>  <source>  (2230) 
ETAM_MBZ

>  <Index>  (2230) 
23336

$$$$
ETAM-pdb4ldg-A-LYS-144:MBZ-pdb4ldg-A-PHE-16
     RDKit          3D

 26 25  0  0  0  0  0  0  0  0999 V2000
    2.6878    2.1371    4.4346 C   0  0  0  0  0  0  0  0  0  0  0  0
    3.6133    1.7637    4.3820 H   0  0  0  0  0  0  0  0  0  0  0  0
    2.1150    1.5356    4.9901 H   0  0  0  0  0  0  0  0  0  0  0  0
    2.7339    3.1158    4.9123 H   0  0  0  0  0  0  0  0  0  0  0  0
    2.1109    2.2036    3.0378 C   0  0  0  0  0  0  0  0  0  0  0  0
    1.1833    2.5745    3.0835 H   0  0  0  0  0  0  0  0  0  0  0  0
    2.6811    2.8015    2.4746 H   0  0  0  0  0  0  0  0  0  0  0  0
    2.0679    0.8507    2.4261 N   0  0  0  0  0  4  0  0  0  0  0  0
    2.9965    0.5632    2.1884 H   0  0  0  0  0  0  0  0  0  0  0  0
    1.6749    0.2028    3.0789 H   0  0  0  0  0  0  0  0  0  0  0  0
    1.5046    0.8768    1.6003 H   0  0  0  0  0  0  0  0  0  0  0  0
   -0.0081    2.8939   -0.0246 C   0  0  0  0  0  0  0  0  0  0  0  0
    0.6416    3.2154    0.6658 H   0  0  0  0  0  0  0  0  0  0  0  0
   -0.9289    3.1997    0.2217 H   0  0  0  0  0  0  0  0  0  0  0  0
    0.2537    3.3734   -0.9679 H   0  0  0  0  0  0  0  0  0  0  0  0
    0.0021    1.3990   -0.0076 C   0  0  0  0  0  0  0  0  0  0  0  0
   -1.1983    0.6924   -0.0084 C   0  0  0  0  0  0  0  0  0  0  0  0
   -2.0638    1.1943   -0.0161 H   0  0  0  0  0  0  0  0  0  0  0  0
   -1.2192   -0.6920   -0.0000 C   0  0  0  0  0  0  0  0  0  0  0  0
   -2.0883   -1.1861   -0.0107 H   0  0  0  0  0  0  0  0  0  0  0  0
   -0.0069   -1.3906    0.0257 C   0  0  0  0  0  0  0  0  0  0  0  0
   -0.0119   -2.3902    0.0610 H   0  0  0  0  0  0  0  0  0  0  0  0
    1.2192   -0.7005   -0.0000 C   0  0  0  0  0  0  0  0  0  0  0  0
    2.0844   -1.2020   -0.0094 H   0  0  0  0  0  0  0  0  0  0  0  0
    1.2030    0.6918   -0.0097 C   0  0  0  0  0  0  0  0  0  0  0  0
    2.0692    1.1940   -0.0192 H   0  0  0  0  0  0  0  0  0  0  0  0
  1  5  1  0
  5  8  1  0
  1  2  1  0
  1  3  1  0
  1  4  1  0
  5  6  1  0
  5  7  1  0
  8  9  1  0
  8 10  1  0
  8 11  1  0
 12 16  1  0
 16 17  2  0
 17 19  1  0
 19 21  2  0
 21 23  1  0
 23 25  2  0
 25 16  1  0
 12 13  1  0
 12 14  1  0
 12 15  1  0
 17 18  1  0
 19 20  1  0
 21 22  1  0
 23 24  1  0
 25 26  1  0
M  CHG  1   8   1
M  END
>  <PDB_ID>  (2231) 
pdb4ldg

>  <RESIDUE_NAME>  (2231) 
LYS   PHE

>  <FRAG_NAME>  (2231) 
ETAM   MBZ

>  <FRAG_ATOM_NUM>  (2231) 
fragi: 11  fragj: 15

>  <atom.prop.CHAIN_ID>  (2231) 
A A A A A A A A A A A Z Z Z Z Z Z Z Z Z Z Z Z Z Z Z

>  <atom.prop.IS_HEAVY_ATOM>  (2231) 
1 0 0 0 1 0 0 1 0 0 0 1 0 0 0 1 1 0 1 0 1 0 1 0 1 0

>  <DIFUSE_FUNC_ATOM>  (2231) 
n/a

>  <FINAL_SINGLE_POINT_ENERGY>  (2231) 
0

>  <NONCOV_INTER_ENERGY_QM>  (2231) 
0

>  <FF_Energy>  (2231) 
6.92

>  <QM_Energy>  (2231) 
-4.1

>  <source>  (2231) 
ETAM_MBZ

>  <Index>  (2231) 
23337

$$$$
ETAM-pdb3npf-A-LYS-64:MBZ-pdb3npf-A-PHE-324
     RDKit          3D

 26 25  0  0  0  0  0  0  0  0999 V2000
    1.6367   -2.6284    3.3354 C   0  0  0  0  0  0  0  0  0  0  0  0
    1.1679   -2.6881    2.4486 H   0  0  0  0  0  0  0  0  0  0  0  0
    1.8943   -3.5545    3.6280 H   0  0  0  0  0  0  0  0  0  0  0  0
    2.5545   -2.0596    3.1865 H   0  0  0  0  0  0  0  0  0  0  0  0
    0.7010   -2.0299    4.3517 C   0  0  0  0  0  0  0  0  0  0  0  0
    0.0082   -2.7168    4.5944 H   0  0  0  0  0  0  0  0  0  0  0  0
    1.2271   -1.7989    5.1766 H   0  0  0  0  0  0  0  0  0  0  0  0
    0.0644   -0.8467    3.8208 N   0  0  0  0  0  4  0  0  0  0  0  0
   -0.7020   -0.5635    4.4095 H   0  0  0  0  0  0  0  0  0  0  0  0
    0.7215   -0.0853    3.7674 H   0  0  0  0  0  0  0  0  0  0  0  0
   -0.2938   -1.0225    2.8959 H   0  0  0  0  0  0  0  0  0  0  0  0
    0.0121    2.8812    0.0040 C   0  0  0  0  0  0  0  0  0  0  0  0
   -0.5583    3.1962   -0.7431 H   0  0  0  0  0  0  0  0  0  0  0  0
    0.9493    3.1817   -0.1134 H   0  0  0  0  0  0  0  0  0  0  0  0
   -0.3652    3.3394    0.9182 H   0  0  0  0  0  0  0  0  0  0  0  0
   -0.0066    1.3907    0.0154 C   0  0  0  0  0  0  0  0  0  0  0  0
   -1.1897    0.6997   -0.0065 C   0  0  0  0  0  0  0  0  0  0  0  0
   -2.0588    1.1841   -0.0291 H   0  0  0  0  0  0  0  0  0  0  0  0
   -1.1874   -0.6848    0.0000 C   0  0  0  0  0  0  0  0  0  0  0  0
   -2.0686   -1.1810    0.0073 H   0  0  0  0  0  0  0  0  0  0  0  0
    0.0052   -1.3781   -0.0015 C   0  0  0  0  0  0  0  0  0  0  0  0
   -0.0099   -2.3834   -0.0043 H   0  0  0  0  0  0  0  0  0  0  0  0
    1.1874   -0.7000    0.0000 C   0  0  0  0  0  0  0  0  0  0  0  0
    2.0743   -1.2030    0.0077 H   0  0  0  0  0  0  0  0  0  0  0  0
    1.1911    0.6725   -0.0074 C   0  0  0  0  0  0  0  0  0  0  0  0
    2.0578    1.1744   -0.0298 H   0  0  0  0  0  0  0  0  0  0  0  0
  1  5  1  0
  5  8  1  0
  1  2  1  0
  1  3  1  0
  1  4  1  0
  5  6  1  0
  5  7  1  0
  8  9  1  0
  8 10  1  0
  8 11  1  0
 12 16  1  0
 16 17  2  0
 17 19  1  0
 19 21  2  0
 21 23  1  0
 23 25  2  0
 25 16  1  0
 12 13  1  0
 12 14  1  0
 12 15  1  0
 17 18  1  0
 19 20  1  0
 21 22  1  0
 23 24  1  0
 25 26  1  0
M  CHG  1   8   1
M  END
>  <PDB_ID>  (2232) 
pdb3npf

>  <RESIDUE_NAME>  (2232) 
LYS   PHE

>  <FRAG_NAME>  (2232) 
ETAM   MBZ

>  <FRAG_ATOM_NUM>  (2232) 
fragi: 11  fragj: 15

>  <atom.prop.CHAIN_ID>  (2232) 
A A A A A A A A A A A Z Z Z Z Z Z Z Z Z Z Z Z Z Z Z

>  <atom.prop.IS_HEAVY_ATOM>  (2232) 
1 0 0 0 1 0 0 1 0 0 0 1 0 0 0 1 1 0 1 0 1 0 1 0 1 0

>  <DIFUSE_FUNC_ATOM>  (2232) 
n/a

>  <FINAL_SINGLE_POINT_ENERGY>  (2232) 
0

>  <NONCOV_INTER_ENERGY_QM>  (2232) 
0

>  <FF_Energy>  (2232) 
-6.57

>  <QM_Energy>  (2232) 
-11.73

>  <source>  (2232) 
ETAM_MBZ

>  <Index>  (2232) 
23347

$$$$
ETAM-pdb4l3f-A-LYS-310:MBZ-pdb4l3f-A-PHE-313
     RDKit          3D

 26 25  0  0  0  0  0  0  0  0999 V2000
    5.0259    2.4548   -1.2709 C   0  0  0  0  0  0  0  0  0  0  0  0
    4.1082    2.3024   -1.6177 H   0  0  0  0  0  0  0  0  0  0  0  0
    5.6866    2.4385   -2.0126 H   0  0  0  0  0  0  0  0  0  0  0  0
    5.0610    3.4321   -0.7894 H   0  0  0  0  0  0  0  0  0  0  0  0
    5.3684    1.3227   -0.2917 C   0  0  0  0  0  0  0  0  0  0  0  0
    6.3572    1.1410   -0.3478 H   0  0  0  0  0  0  0  0  0  0  0  0
    5.1563    1.6333    0.6433 H   0  0  0  0  0  0  0  0  0  0  0  0
    4.6214    0.0607   -0.5697 N   0  0  0  0  0  4  0  0  0  0  0  0
    3.8459   -0.0078    0.0565 H   0  0  0  0  0  0  0  0  0  0  0  0
    4.2928    0.0736   -1.5130 H   0  0  0  0  0  0  0  0  0  0  0  0
    5.2315   -0.7193   -0.4364 H   0  0  0  0  0  0  0  0  0  0  0  0
    0.0156    2.9425   -0.0117 C   0  0  0  0  0  0  0  0  0  0  0  0
   -0.4140    3.2370   -0.8505 H   0  0  0  0  0  0  0  0  0  0  0  0
    0.9584    3.2336    0.0329 H   0  0  0  0  0  0  0  0  0  0  0  0
   -0.5166    3.4101    0.8167 H   0  0  0  0  0  0  0  0  0  0  0  0
    0.0006    1.4176    0.0058 C   0  0  0  0  0  0  0  0  0  0  0  0
   -1.2021    0.7003   -0.0054 C   0  0  0  0  0  0  0  0  0  0  0  0
   -2.0675    1.1860   -0.0187 H   0  0  0  0  0  0  0  0  0  0  0  0
   -1.1999   -0.6990    0.0000 C   0  0  0  0  0  0  0  0  0  0  0  0
   -2.0774   -1.1928    0.0024 H   0  0  0  0  0  0  0  0  0  0  0  0
    0.0036   -1.4018    0.0036 C   0  0  0  0  0  0  0  0  0  0  0  0
   -0.0068   -2.3989    0.0086 H   0  0  0  0  0  0  0  0  0  0  0  0
    1.1999   -0.7075    0.0000 C   0  0  0  0  0  0  0  0  0  0  0  0
    2.0847   -1.2012    0.0019 H   0  0  0  0  0  0  0  0  0  0  0  0
    1.1979    0.6904   -0.0040 C   0  0  0  0  0  0  0  0  0  0  0  0
    2.0697    1.1832   -0.0151 H   0  0  0  0  0  0  0  0  0  0  0  0
  1  5  1  0
  5  8  1  0
  1  2  1  0
  1  3  1  0
  1  4  1  0
  5  6  1  0
  5  7  1  0
  8  9  1  0
  8 10  1  0
  8 11  1  0
 12 16  1  0
 16 17  2  0
 17 19  1  0
 19 21  2  0
 21 23  1  0
 23 25  2  0
 25 16  1  0
 12 13  1  0
 12 14  1  0
 12 15  1  0
 17 18  1  0
 19 20  1  0
 21 22  1  0
 23 24  1  0
 25 26  1  0
M  CHG  1   8   1
M  END
>  <PDB_ID>  (2233) 
pdb4l3f

>  <RESIDUE_NAME>  (2233) 
LYS   PHE

>  <FRAG_NAME>  (2233) 
ETAM   MBZ

>  <FRAG_ATOM_NUM>  (2233) 
fragi: 11  fragj: 15

>  <atom.prop.CHAIN_ID>  (2233) 
A A A A A A A A A A A Z Z Z Z Z Z Z Z Z Z Z Z Z Z Z

>  <atom.prop.IS_HEAVY_ATOM>  (2233) 
1 0 0 0 1 0 0 1 0 0 0 1 0 0 0 1 1 0 1 0 1 0 1 0 1 0

>  <DIFUSE_FUNC_ATOM>  (2233) 
n/a

>  <FINAL_SINGLE_POINT_ENERGY>  (2233) 
0

>  <NONCOV_INTER_ENERGY_QM>  (2233) 
0

>  <FF_Energy>  (2233) 
0.73

>  <QM_Energy>  (2233) 
-4.53

>  <source>  (2233) 
ETAM_MBZ

>  <Index>  (2233) 
23359

$$$$
ETAM-pdb3nv9-B-LYS-41:MBZ-pdb3nv9-A-PHE-85
     RDKit          3D

 26 25  0  0  0  0  0  0  0  0999 V2000
    3.7988   -0.0757    2.9671 C   0  0  0  0  0  0  0  0  0  0  0  0
    3.6315   -0.6239    2.1447 H   0  0  0  0  0  0  0  0  0  0  0  0
    4.6796   -0.3415    3.3646 H   0  0  0  0  0  0  0  0  0  0  0  0
    3.8458    0.9756    2.6828 H   0  0  0  0  0  0  0  0  0  0  0  0
    2.6890   -0.4160    3.9996 C   0  0  0  0  0  0  0  0  0  0  0  0
    2.6873   -1.4198    4.1487 H   0  0  0  0  0  0  0  0  0  0  0  0
    2.9315    0.0161    4.8861 H   0  0  0  0  0  0  0  0  0  0  0  0
    1.2641    0.0151    3.6338 N   0  0  0  0  0  4  0  0  0  0  0  0
    1.1170    0.9302    3.9880 H   0  0  0  0  0  0  0  0  0  0  0  0
    1.1815    0.0029    2.6453 H   0  0  0  0  0  0  0  0  0  0  0  0
    0.6306   -0.6271    4.0472 H   0  0  0  0  0  0  0  0  0  0  0  0
    0.0000    2.9048    0.0334 C   0  0  0  0  0  0  0  0  0  0  0  0
    0.7387    3.2143    0.6163 H   0  0  0  0  0  0  0  0  0  0  0  0
   -0.8769    3.2087    0.3787 H   0  0  0  0  0  0  0  0  0  0  0  0
    0.1425    3.3621   -0.9458 H   0  0  0  0  0  0  0  0  0  0  0  0
    0.0082    1.4217    0.0073 C   0  0  0  0  0  0  0  0  0  0  0  0
   -1.1790    0.7166   -0.0131 C   0  0  0  0  0  0  0  0  0  0  0  0
   -2.0547    1.1963   -0.0393 H   0  0  0  0  0  0  0  0  0  0  0  0
   -1.2081   -0.7101   -0.0000 C   0  0  0  0  0  0  0  0  0  0  0  0
   -2.1024   -1.1659    0.0147 H   0  0  0  0  0  0  0  0  0  0  0  0
   -0.0318   -1.4263   -0.0061 C   0  0  0  0  0  0  0  0  0  0  0  0
   -0.0322   -2.4185   -0.0158 H   0  0  0  0  0  0  0  0  0  0  0  0
    1.2081   -0.7310   -0.0000 C   0  0  0  0  0  0  0  0  0  0  0  0
    2.0745   -1.2083   -0.0019 H   0  0  0  0  0  0  0  0  0  0  0  0
    1.2026    0.7291    0.0119 C   0  0  0  0  0  0  0  0  0  0  0  0
    2.0752    1.1909    0.0229 H   0  0  0  0  0  0  0  0  0  0  0  0
  1  5  1  0
  5  8  1  0
  1  2  1  0
  1  3  1  0
  1  4  1  0
  5  6  1  0
  5  7  1  0
  8  9  1  0
  8 10  1  0
  8 11  1  0
 12 16  1  0
 16 17  2  0
 17 19  1  0
 19 21  2  0
 21 23  1  0
 23 25  2  0
 25 16  1  0
 12 13  1  0
 12 14  1  0
 12 15  1  0
 17 18  1  0
 19 20  1  0
 21 22  1  0
 23 24  1  0
 25 26  1  0
M  CHG  1   8   1
M  END
>  <PDB_ID>  (2234) 
pdb3nv9

>  <RESIDUE_NAME>  (2234) 
LYS   PHE

>  <FRAG_NAME>  (2234) 
ETAM   MBZ

>  <FRAG_ATOM_NUM>  (2234) 
fragi: 11  fragj: 15

>  <atom.prop.CHAIN_ID>  (2234) 
A A A A A A A A A A A Z Z Z Z Z Z Z Z Z Z Z Z Z Z Z

>  <atom.prop.IS_HEAVY_ATOM>  (2234) 
1 0 0 0 1 0 0 1 0 0 0 1 0 0 0 1 1 0 1 0 1 0 1 0 1 0

>  <DIFUSE_FUNC_ATOM>  (2234) 
n/a

>  <FINAL_SINGLE_POINT_ENERGY>  (2234) 
0

>  <NONCOV_INTER_ENERGY_QM>  (2234) 
0

>  <FF_Energy>  (2234) 
-6.74

>  <QM_Energy>  (2234) 
-12.79

>  <source>  (2234) 
ETAM_MBZ

>  <Index>  (2234) 
23360

$$$$
ETAM-pdb3nva-B-LYS-225:MBZ-pdb3nva-B-PHE-229
     RDKit          3D

 26 25  0  0  0  0  0  0  0  0999 V2000
   -4.8447   -3.0846    1.7945 C   0  0  0  0  0  0  0  0  0  0  0  0
   -4.6796   -2.4705    2.5537 H   0  0  0  0  0  0  0  0  0  0  0  0
   -4.9305   -4.0206    2.1041 H   0  0  0  0  0  0  0  0  0  0  0  0
   -5.7603   -2.7873    1.2832 H   0  0  0  0  0  0  0  0  0  0  0  0
   -3.6672   -2.9985    0.8393 C   0  0  0  0  0  0  0  0  0  0  0  0
   -3.7846   -3.6854    0.1145 H   0  0  0  0  0  0  0  0  0  0  0  0
   -3.6567   -2.0866    0.4158 H   0  0  0  0  0  0  0  0  0  0  0  0
   -2.3689   -3.2315    1.5255 N   0  0  0  0  0  4  0  0  0  0  0  0
   -2.5170   -3.8064    2.3301 H   0  0  0  0  0  0  0  0  0  0  0  0
   -1.7394   -3.6898    0.8982 H   0  0  0  0  0  0  0  0  0  0  0  0
   -1.9801   -2.3547    1.8086 H   0  0  0  0  0  0  0  0  0  0  0  0
    0.0003    2.8937   -0.0032 C   0  0  0  0  0  0  0  0  0  0  0  0
   -0.8214    3.1997   -0.4629 H   0  0  0  0  0  0  0  0  0  0  0  0
    0.8114    3.1998   -0.4816 H   0  0  0  0  0  0  0  0  0  0  0  0
    0.0115    3.3396    0.9914 H   0  0  0  0  0  0  0  0  0  0  0  0
    0.0009    1.3951    0.0013 C   0  0  0  0  0  0  0  0  0  0  0  0
   -1.1959    0.6873   -0.0048 C   0  0  0  0  0  0  0  0  0  0  0  0
   -2.0619    1.1805   -0.0147 H   0  0  0  0  0  0  0  0  0  0  0  0
   -1.2011   -0.6979    0.0000 C   0  0  0  0  0  0  0  0  0  0  0  0
   -2.0761   -1.1942    0.0013 H   0  0  0  0  0  0  0  0  0  0  0  0
    0.0010   -1.3886    0.0045 C   0  0  0  0  0  0  0  0  0  0  0  0
    0.0018   -2.3881    0.0102 H   0  0  0  0  0  0  0  0  0  0  0  0
    1.2011   -0.6883   -0.0000 C   0  0  0  0  0  0  0  0  0  0  0  0
    2.0824   -1.1897   -0.0012 H   0  0  0  0  0  0  0  0  0  0  0  0
    1.1940    0.6924   -0.0010 C   0  0  0  0  0  0  0  0  0  0  0  0
    2.0624    1.1938   -0.0038 H   0  0  0  0  0  0  0  0  0  0  0  0
  1  5  1  0
  5  8  1  0
  1  2  1  0
  1  3  1  0
  1  4  1  0
  5  6  1  0
  5  7  1  0
  8  9  1  0
  8 10  1  0
  8 11  1  0
 12 16  1  0
 16 17  2  0
 17 19  1  0
 19 21  2  0
 21 23  1  0
 23 25  2  0
 25 16  1  0
 12 13  1  0
 12 14  1  0
 12 15  1  0
 17 18  1  0
 19 20  1  0
 21 22  1  0
 23 24  1  0
 25 26  1  0
M  CHG  1   8   1
M  END
>  <PDB_ID>  (2235) 
pdb3nva

>  <RESIDUE_NAME>  (2235) 
LYS   PHE

>  <FRAG_NAME>  (2235) 
ETAM   MBZ

>  <FRAG_ATOM_NUM>  (2235) 
fragi: 11  fragj: 15

>  <atom.prop.CHAIN_ID>  (2235) 
A A A A A A A A A A A Z Z Z Z Z Z Z Z Z Z Z Z Z Z Z

>  <atom.prop.IS_HEAVY_ATOM>  (2235) 
1 0 0 0 1 0 0 1 0 0 0 1 0 0 0 1 1 0 1 0 1 0 1 0 1 0

>  <DIFUSE_FUNC_ATOM>  (2235) 
n/a

>  <FINAL_SINGLE_POINT_ENERGY>  (2235) 
0

>  <NONCOV_INTER_ENERGY_QM>  (2235) 
0

>  <FF_Energy>  (2235) 
4.16

>  <QM_Energy>  (2235) 
-5.46

>  <source>  (2235) 
ETAM_MBZ

>  <Index>  (2235) 
23362

$$$$
ETAM-pdb4lfe-A-LYS-18:MBZ-pdb4lfe-A-PHE-14
     RDKit          3D

 26 25  0  0  0  0  0  0  0  0999 V2000
    0.3361   -1.0358   -5.2243 C   0  0  0  0  0  0  0  0  0  0  0  0
   -0.4181   -1.6811   -5.3206 H   0  0  0  0  0  0  0  0  0  0  0  0
    1.1690   -1.4253   -5.6080 H   0  0  0  0  0  0  0  0  0  0  0  0
    0.0899   -0.1230   -5.7667 H   0  0  0  0  0  0  0  0  0  0  0  0
    0.5641   -0.7779   -3.7382 C   0  0  0  0  0  0  0  0  0  0  0  0
   -0.3300   -0.5574   -3.3082 H   0  0  0  0  0  0  0  0  0  0  0  0
    0.8932   -1.6378   -3.3080 H   0  0  0  0  0  0  0  0  0  0  0  0
    1.5308    0.3152   -3.4283 N   0  0  0  0  0  4  0  0  0  0  0  0
    1.0893    1.1985   -3.5783 H   0  0  0  0  0  0  0  0  0  0  0  0
    1.8185    0.2409   -2.4751 H   0  0  0  0  0  0  0  0  0  0  0  0
    2.3265    0.2320   -4.0267 H   0  0  0  0  0  0  0  0  0  0  0  0
   -0.0042    2.8890    0.0114 C   0  0  0  0  0  0  0  0  0  0  0  0
    0.8278    3.1921    0.4562 H   0  0  0  0  0  0  0  0  0  0  0  0
   -0.8038    3.1913    0.5134 H   0  0  0  0  0  0  0  0  0  0  0  0
   -0.0395    3.3435   -0.9788 H   0  0  0  0  0  0  0  0  0  0  0  0
   -0.0036    1.3941   -0.0038 C   0  0  0  0  0  0  0  0  0  0  0  0
   -1.1939    0.6854   -0.0019 C   0  0  0  0  0  0  0  0  0  0  0  0
   -2.0628    1.1784   -0.0033 H   0  0  0  0  0  0  0  0  0  0  0  0
   -1.1977   -0.6948   -0.0000 C   0  0  0  0  0  0  0  0  0  0  0  0
   -2.0720   -1.1938    0.0041 H   0  0  0  0  0  0  0  0  0  0  0  0
    0.0040   -1.3862   -0.0013 C   0  0  0  0  0  0  0  0  0  0  0  0
    0.0016   -2.3862   -0.0033 H   0  0  0  0  0  0  0  0  0  0  0  0
    1.1977   -0.6883   -0.0000 C   0  0  0  0  0  0  0  0  0  0  0  0
    2.0826   -1.1895   -0.0025 H   0  0  0  0  0  0  0  0  0  0  0  0
    1.1935    0.6898    0.0069 C   0  0  0  0  0  0  0  0  0  0  0  0
    2.0595    1.1928    0.0192 H   0  0  0  0  0  0  0  0  0  0  0  0
  1  5  1  0
  5  8  1  0
  1  2  1  0
  1  3  1  0
  1  4  1  0
  5  6  1  0
  5  7  1  0
  8  9  1  0
  8 10  1  0
  8 11  1  0
 12 16  1  0
 16 17  2  0
 17 19  1  0
 19 21  2  0
 21 23  1  0
 23 25  2  0
 25 16  1  0
 12 13  1  0
 12 14  1  0
 12 15  1  0
 17 18  1  0
 19 20  1  0
 21 22  1  0
 23 24  1  0
 25 26  1  0
M  CHG  1   8   1
M  END
>  <PDB_ID>  (2236) 
pdb4lfe

>  <RESIDUE_NAME>  (2236) 
LYS   PHE

>  <FRAG_NAME>  (2236) 
ETAM   MBZ

>  <FRAG_ATOM_NUM>  (2236) 
fragi: 11  fragj: 15

>  <atom.prop.CHAIN_ID>  (2236) 
A A A A A A A A A A A Z Z Z Z Z Z Z Z Z Z Z Z Z Z Z

>  <atom.prop.IS_HEAVY_ATOM>  (2236) 
1 0 0 0 1 0 0 1 0 0 0 1 0 0 0 1 1 0 1 0 1 0 1 0 1 0

>  <DIFUSE_FUNC_ATOM>  (2236) 
n/a

>  <FINAL_SINGLE_POINT_ENERGY>  (2236) 
0

>  <NONCOV_INTER_ENERGY_QM>  (2236) 
0

>  <FF_Energy>  (2236) 
-6.9

>  <QM_Energy>  (2236) 
-12.9

>  <source>  (2236) 
ETAM_MBZ

>  <Index>  (2236) 
23382

$$$$
ETAM-pdb3nrx-B-LYS-35:MBZ-pdb3nrx-B-PHE-32
     RDKit          3D

 26 25  0  0  0  0  0  0  0  0999 V2000
   -1.8396    1.0171   -4.2869 C   0  0  0  0  0  0  0  0  0  0  0  0
   -1.3033    0.5544   -4.9880 H   0  0  0  0  0  0  0  0  0  0  0  0
   -1.2364    1.5027   -3.6597 H   0  0  0  0  0  0  0  0  0  0  0  0
   -2.4995    1.7382   -4.7691 H   0  0  0  0  0  0  0  0  0  0  0  0
   -2.6196   -0.0195   -3.5080 C   0  0  0  0  0  0  0  0  0  0  0  0
   -3.0223    0.4133   -2.6989 H   0  0  0  0  0  0  0  0  0  0  0  0
   -3.3546   -0.3789   -4.0865 H   0  0  0  0  0  0  0  0  0  0  0  0
   -1.7443   -1.1376   -3.0795 N   0  0  0  0  0  4  0  0  0  0  0  0
   -2.1479   -2.0072   -3.3672 H   0  0  0  0  0  0  0  0  0  0  0  0
   -0.8414   -1.0349   -3.4983 H   0  0  0  0  0  0  0  0  0  0  0  0
   -1.6521   -1.1269   -2.0839 H   0  0  0  0  0  0  0  0  0  0  0  0
   -0.0181    2.8944   -0.0170 C   0  0  0  0  0  0  0  0  0  0  0  0
    0.8580    3.2188    0.3033 H   0  0  0  0  0  0  0  0  0  0  0  0
   -0.7547    3.2012    0.5656 H   0  0  0  0  0  0  0  0  0  0  0  0
   -0.1841    3.3126   -1.0098 H   0  0  0  0  0  0  0  0  0  0  0  0
    0.0008    1.3990    0.0008 C   0  0  0  0  0  0  0  0  0  0  0  0
   -1.1911    0.6844   -0.0027 C   0  0  0  0  0  0  0  0  0  0  0  0
   -2.0604    1.1787   -0.0088 H   0  0  0  0  0  0  0  0  0  0  0  0
   -1.1966   -0.6948   -0.0000 C   0  0  0  0  0  0  0  0  0  0  0  0
   -2.0784   -1.1887   -0.0003 H   0  0  0  0  0  0  0  0  0  0  0  0
   -0.0083   -1.3879    0.0050 C   0  0  0  0  0  0  0  0  0  0  0  0
   -0.0090   -2.3893    0.0115 H   0  0  0  0  0  0  0  0  0  0  0  0
    1.1966   -0.6954    0.0000 C   0  0  0  0  0  0  0  0  0  0  0  0
    2.0756   -1.1977    0.0000 H   0  0  0  0  0  0  0  0  0  0  0  0
    1.1986    0.6948   -0.0032 C   0  0  0  0  0  0  0  0  0  0  0  0
    2.0646    1.1885   -0.0092 H   0  0  0  0  0  0  0  0  0  0  0  0
  1  5  1  0
  5  8  1  0
  1  2  1  0
  1  3  1  0
  1  4  1  0
  5  6  1  0
  5  7  1  0
  8  9  1  0
  8 10  1  0
  8 11  1  0
 12 16  1  0
 16 17  2  0
 17 19  1  0
 19 21  2  0
 21 23  1  0
 23 25  2  0
 25 16  1  0
 12 13  1  0
 12 14  1  0
 12 15  1  0
 17 18  1  0
 19 20  1  0
 21 22  1  0
 23 24  1  0
 25 26  1  0
M  CHG  1   8   1
M  END
>  <PDB_ID>  (2237) 
pdb3nrx

>  <RESIDUE_NAME>  (2237) 
LYS   PHE

>  <FRAG_NAME>  (2237) 
ETAM   MBZ

>  <FRAG_ATOM_NUM>  (2237) 
fragi: 11  fragj: 15

>  <atom.prop.CHAIN_ID>  (2237) 
A A A A A A A A A A A Z Z Z Z Z Z Z Z Z Z Z Z Z Z Z

>  <atom.prop.IS_HEAVY_ATOM>  (2237) 
1 0 0 0 1 0 0 1 0 0 0 1 0 0 0 1 1 0 1 0 1 0 1 0 1 0

>  <DIFUSE_FUNC_ATOM>  (2237) 
n/a

>  <FINAL_SINGLE_POINT_ENERGY>  (2237) 
0

>  <NONCOV_INTER_ENERGY_QM>  (2237) 
0

>  <FF_Energy>  (2237) 
-5.57

>  <QM_Energy>  (2237) 
-13.32

>  <source>  (2237) 
ETAM_MBZ

>  <Index>  (2237) 
23399

$$$$
ETAM-pdb3nx3-B-LYS-123:MBZ-pdb3nx3-B-PHE-118
     RDKit          3D

 26 25  0  0  0  0  0  0  0  0999 V2000
   -4.3613   -0.0104   -0.3856 C   0  0  0  0  0  0  0  0  0  0  0  0
   -4.1679    0.9581   -0.5258 H   0  0  0  0  0  0  0  0  0  0  0  0
   -3.5795   -0.4538    0.0469 H   0  0  0  0  0  0  0  0  0  0  0  0
   -5.2275   -0.1053    0.2692 H   0  0  0  0  0  0  0  0  0  0  0  0
   -4.5894   -0.6581   -1.7496 C   0  0  0  0  0  0  0  0  0  0  0  0
   -5.4773   -0.3445   -2.1115 H   0  0  0  0  0  0  0  0  0  0  0  0
   -3.8672   -0.3452   -2.3802 H   0  0  0  0  0  0  0  0  0  0  0  0
   -4.5823   -2.1485   -1.7034 N   0  0  0  0  0  4  0  0  0  0  0  0
   -5.2862   -2.4626   -1.0666 H   0  0  0  0  0  0  0  0  0  0  0  0
   -4.7707   -2.5081   -2.6166 H   0  0  0  0  0  0  0  0  0  0  0  0
   -3.6861   -2.4653   -1.3969 H   0  0  0  0  0  0  0  0  0  0  0  0
   -0.0033    2.8905    0.0014 C   0  0  0  0  0  0  0  0  0  0  0  0
   -0.7480    3.1994   -0.5692 H   0  0  0  0  0  0  0  0  0  0  0  0
    0.8692    3.2021   -0.3427 H   0  0  0  0  0  0  0  0  0  0  0  0
   -0.1431    3.3238    0.9917 H   0  0  0  0  0  0  0  0  0  0  0  0
   -0.0003    1.3929   -0.0026 C   0  0  0  0  0  0  0  0  0  0  0  0
   -1.1912    0.6893    0.0022 C   0  0  0  0  0  0  0  0  0  0  0  0
   -2.0595    1.1821    0.0063 H   0  0  0  0  0  0  0  0  0  0  0  0
   -1.1960   -0.6919    0.0000 C   0  0  0  0  0  0  0  0  0  0  0  0
   -2.0744   -1.1876   -0.0011 H   0  0  0  0  0  0  0  0  0  0  0  0
   -0.0005   -1.3853    0.0009 C   0  0  0  0  0  0  0  0  0  0  0  0
   -0.0048   -2.3869    0.0018 H   0  0  0  0  0  0  0  0  0  0  0  0
    1.1960   -0.6939   -0.0000 C   0  0  0  0  0  0  0  0  0  0  0  0
    2.0787   -1.1941    0.0012 H   0  0  0  0  0  0  0  0  0  0  0  0
    1.1921    0.6889   -0.0004 C   0  0  0  0  0  0  0  0  0  0  0  0
    2.0614    1.1869    0.0002 H   0  0  0  0  0  0  0  0  0  0  0  0
  1  5  1  0
  5  8  1  0
  1  2  1  0
  1  3  1  0
  1  4  1  0
  5  6  1  0
  5  7  1  0
  8  9  1  0
  8 10  1  0
  8 11  1  0
 12 16  1  0
 16 17  2  0
 17 19  1  0
 19 21  2  0
 21 23  1  0
 23 25  2  0
 25 16  1  0
 12 13  1  0
 12 14  1  0
 12 15  1  0
 17 18  1  0
 19 20  1  0
 21 22  1  0
 23 24  1  0
 25 26  1  0
M  CHG  1   8   1
M  END
>  <PDB_ID>  (2238) 
pdb3nx3

>  <RESIDUE_NAME>  (2238) 
LYS   PHE

>  <FRAG_NAME>  (2238) 
ETAM   MBZ

>  <FRAG_ATOM_NUM>  (2238) 
fragi: 11  fragj: 15

>  <atom.prop.CHAIN_ID>  (2238) 
A A A A A A A A A A A Z Z Z Z Z Z Z Z Z Z Z Z Z Z Z

>  <atom.prop.IS_HEAVY_ATOM>  (2238) 
1 0 0 0 1 0 0 1 0 0 0 1 0 0 0 1 1 0 1 0 1 0 1 0 1 0

>  <DIFUSE_FUNC_ATOM>  (2238) 
n/a

>  <FINAL_SINGLE_POINT_ENERGY>  (2238) 
0

>  <NONCOV_INTER_ENERGY_QM>  (2238) 
0

>  <FF_Energy>  (2238) 
11.44

>  <QM_Energy>  (2238) 
-0.18

>  <source>  (2238) 
ETAM_MBZ

>  <Index>  (2238) 
23421

$$$$
ETAM-pdb3nv9-A-LYS-28:MBZ-pdb3nv9-A-PHE-353
     RDKit          3D

 26 25  0  0  0  0  0  0  0  0999 V2000
   -2.7055   -2.7729   -3.6445 C   0  0  0  0  0  0  0  0  0  0  0  0
   -3.6866   -2.6913   -3.7435 H   0  0  0  0  0  0  0  0  0  0  0  0
   -2.4654   -3.2038   -2.7873 H   0  0  0  0  0  0  0  0  0  0  0  0
   -2.3318   -3.3965   -4.4567 H   0  0  0  0  0  0  0  0  0  0  0  0
   -2.0837   -1.3759   -3.6895 C   0  0  0  0  0  0  0  0  0  0  0  0
   -1.1135   -1.4476   -3.4713 H   0  0  0  0  0  0  0  0  0  0  0  0
   -2.1990   -1.0007   -4.6067 H   0  0  0  0  0  0  0  0  0  0  0  0
   -2.7456   -0.4712   -2.7005 N   0  0  0  0  0  4  0  0  0  0  0  0
   -3.7064   -0.3608   -2.9487 H   0  0  0  0  0  0  0  0  0  0  0  0
   -2.6760   -0.8743   -1.7898 H   0  0  0  0  0  0  0  0  0  0  0  0
   -2.2900    0.4170   -2.7121 H   0  0  0  0  0  0  0  0  0  0  0  0
    0.0102    2.9198   -0.0822 C   0  0  0  0  0  0  0  0  0  0  0  0
    0.9452    3.2315   -0.0828 H   0  0  0  0  0  0  0  0  0  0  0  0
   -0.4935    3.2755    0.6869 H   0  0  0  0  0  0  0  0  0  0  0  0
   -0.4611    3.3083   -0.9850 H   0  0  0  0  0  0  0  0  0  0  0  0
    0.0018    1.4343   -0.0128 C   0  0  0  0  0  0  0  0  0  0  0  0
   -1.1967    0.7369    0.0069 C   0  0  0  0  0  0  0  0  0  0  0  0
   -2.0660    1.2092    0.0250 H   0  0  0  0  0  0  0  0  0  0  0  0
   -1.2161   -0.7056    0.0000 C   0  0  0  0  0  0  0  0  0  0  0  0
   -2.0999   -1.1691   -0.0210 H   0  0  0  0  0  0  0  0  0  0  0  0
   -0.0116   -1.4383    0.0241 C   0  0  0  0  0  0  0  0  0  0  0  0
   -0.0277   -2.4226    0.0567 H   0  0  0  0  0  0  0  0  0  0  0  0
    1.2161   -0.7382    0.0000 C   0  0  0  0  0  0  0  0  0  0  0  0
    2.0882   -1.2146   -0.0031 H   0  0  0  0  0  0  0  0  0  0  0  0
    1.2065    0.7110   -0.0182 C   0  0  0  0  0  0  0  0  0  0  0  0
    2.0780    1.1842   -0.0352 H   0  0  0  0  0  0  0  0  0  0  0  0
  1  5  1  0
  5  8  1  0
  1  2  1  0
  1  3  1  0
  1  4  1  0
  5  6  1  0
  5  7  1  0
  8  9  1  0
  8 10  1  0
  8 11  1  0
 12 16  1  0
 16 17  2  0
 17 19  1  0
 19 21  2  0
 21 23  1  0
 23 25  2  0
 25 16  1  0
 12 13  1  0
 12 14  1  0
 12 15  1  0
 17 18  1  0
 19 20  1  0
 21 22  1  0
 23 24  1  0
 25 26  1  0
M  CHG  1   8   1
M  END
>  <PDB_ID>  (2239) 
pdb3nv9

>  <RESIDUE_NAME>  (2239) 
LYS   PHE

>  <FRAG_NAME>  (2239) 
ETAM   MBZ

>  <FRAG_ATOM_NUM>  (2239) 
fragi: 11  fragj: 15

>  <atom.prop.CHAIN_ID>  (2239) 
A A A A A A A A A A A Z Z Z Z Z Z Z Z Z Z Z Z Z Z Z

>  <atom.prop.IS_HEAVY_ATOM>  (2239) 
1 0 0 0 1 0 0 1 0 0 0 1 0 0 0 1 1 0 1 0 1 0 1 0 1 0

>  <DIFUSE_FUNC_ATOM>  (2239) 
n/a

>  <FINAL_SINGLE_POINT_ENERGY>  (2239) 
0

>  <NONCOV_INTER_ENERGY_QM>  (2239) 
0

>  <FF_Energy>  (2239) 
-2.77

>  <QM_Energy>  (2239) 
-9.92

>  <source>  (2239) 
ETAM_MBZ

>  <Index>  (2239) 
23429

$$$$
ETAM-pdb3ny3-B-ARG-1:MBZ-pdb3ny3-A-PHE-148
     RDKit          3D

 26 25  0  0  0  0  0  0  0  0999 V2000
   -0.2726   -2.2379   -4.5095 C   0  0  0  0  0  0  0  0  0  0  0  0
   -1.1154   -2.2220   -3.9755 H   0  0  0  0  0  0  0  0  0  0  0  0
   -0.4742   -2.5118   -5.4477 H   0  0  0  0  0  0  0  0  0  0  0  0
    0.3793   -2.9966   -4.0765 H   0  0  0  0  0  0  0  0  0  0  0  0
    0.3046   -0.8094   -4.5390 C   0  0  0  0  0  0  0  0  0  0  0  0
    1.0697   -0.7768   -5.1790 H   0  0  0  0  0  0  0  0  0  0  0  0
   -0.4634   -0.1080   -4.8650 H   0  0  0  0  0  0  0  0  0  0  0  0
    0.8039   -0.4109   -3.1946 N   0  0  0  0  0  4  0  0  0  0  0  0
    0.3788   -0.9882   -2.5021 H   0  0  0  0  0  0  0  0  0  0  0  0
    1.7943   -0.5250   -3.1653 H   0  0  0  0  0  0  0  0  0  0  0  0
    0.5696    0.5433   -3.0274 H   0  0  0  0  0  0  0  0  0  0  0  0
    0.0154    2.9079   -0.0096 C   0  0  0  0  0  0  0  0  0  0  0  0
    0.8165    3.2140    0.4784 H   0  0  0  0  0  0  0  0  0  0  0  0
   -0.8154    3.2227    0.4189 H   0  0  0  0  0  0  0  0  0  0  0  0
    0.0542    3.3365   -1.0110 H   0  0  0  0  0  0  0  0  0  0  0  0
    0.0062    1.4035    0.0000 C   0  0  0  0  0  0  0  0  0  0  0  0
   -1.1958    0.7022    0.0023 C   0  0  0  0  0  0  0  0  0  0  0  0
   -2.0592    1.1947    0.0041 H   0  0  0  0  0  0  0  0  0  0  0  0
   -1.2035   -0.6897   -0.0000 C   0  0  0  0  0  0  0  0  0  0  0  0
   -2.0848   -1.1796    0.0021 H   0  0  0  0  0  0  0  0  0  0  0  0
   -0.0070   -1.3982   -0.0039 C   0  0  0  0  0  0  0  0  0  0  0  0
   -0.0204   -2.3968   -0.0102 H   0  0  0  0  0  0  0  0  0  0  0  0
    1.2035   -0.7128   -0.0000 C   0  0  0  0  0  0  0  0  0  0  0  0
    2.0792   -1.2050    0.0031 H   0  0  0  0  0  0  0  0  0  0  0  0
    1.1967    0.6951    0.0016 C   0  0  0  0  0  0  0  0  0  0  0  0
    2.0699    1.1818    0.0032 H   0  0  0  0  0  0  0  0  0  0  0  0
  1  5  1  0
  5  8  1  0
  1  2  1  0
  1  3  1  0
  1  4  1  0
  5  6  1  0
  5  7  1  0
  8  9  1  0
  8 10  1  0
  8 11  1  0
 12 16  1  0
 16 17  2  0
 17 19  1  0
 19 21  2  0
 21 23  1  0
 23 25  2  0
 25 16  1  0
 12 13  1  0
 12 14  1  0
 12 15  1  0
 17 18  1  0
 19 20  1  0
 21 22  1  0
 23 24  1  0
 25 26  1  0
M  CHG  1   8   1
M  END
>  <PDB_ID>  (2240) 
pdb3ny3

>  <RESIDUE_NAME>  (2240) 
ARG   PHE

>  <FRAG_NAME>  (2240) 
ETAM   MBZ

>  <FRAG_ATOM_NUM>  (2240) 
fragi: 11  fragj: 15

>  <atom.prop.CHAIN_ID>  (2240) 
A A A A A A A A A A A Z Z Z Z Z Z Z Z Z Z Z Z Z Z Z

>  <atom.prop.IS_HEAVY_ATOM>  (2240) 
1 0 0 0 1 0 0 1 0 0 0 1 0 0 0 1 1 0 1 0 1 0 1 0 1 0

>  <DIFUSE_FUNC_ATOM>  (2240) 
n/a

>  <FINAL_SINGLE_POINT_ENERGY>  (2240) 
0

>  <NONCOV_INTER_ENERGY_QM>  (2240) 
0

>  <FF_Energy>  (2240) 
-7.91

>  <QM_Energy>  (2240) 
-15.2

>  <source>  (2240) 
ETAM_MBZ

>  <Index>  (2240) 
23453

$$$$
ETAM-pdb4lih-A-LYS-111:MBZ-pdb4lih-A-PHE-169
     RDKit          3D

 26 25  0  0  0  0  0  0  0  0999 V2000
   -2.3003    1.4967   -5.4529 C   0  0  0  0  0  0  0  0  0  0  0  0
   -1.3521    1.7544   -5.2565 H   0  0  0  0  0  0  0  0  0  0  0  0
   -2.7534    2.2500   -5.9329 H   0  0  0  0  0  0  0  0  0  0  0  0
   -2.2872    0.6300   -6.1138 H   0  0  0  0  0  0  0  0  0  0  0  0
   -3.0219    1.2478   -4.1407 C   0  0  0  0  0  0  0  0  0  0  0  0
   -3.3644    2.1286   -3.7845 H   0  0  0  0  0  0  0  0  0  0  0  0
   -3.8192    0.6527   -4.3140 H   0  0  0  0  0  0  0  0  0  0  0  0
   -2.1586    0.6107   -3.1074 N   0  0  0  0  0  4  0  0  0  0  0  0
   -2.4504    0.9122   -2.2003 H   0  0  0  0  0  0  0  0  0  0  0  0
   -2.2420   -0.3834   -3.1740 H   0  0  0  0  0  0  0  0  0  0  0  0
   -1.2074    0.8785   -3.2596 H   0  0  0  0  0  0  0  0  0  0  0  0
   -0.0133    2.8759   -0.0450 C   0  0  0  0  0  0  0  0  0  0  0  0
    0.8063    3.2140    0.3872 H   0  0  0  0  0  0  0  0  0  0  0  0
   -0.8268    3.2142    0.3986 H   0  0  0  0  0  0  0  0  0  0  0  0
   -0.0209    3.2664   -1.0626 H   0  0  0  0  0  0  0  0  0  0  0  0
   -0.0124    1.3888    0.0198 C   0  0  0  0  0  0  0  0  0  0  0  0
   -1.1946    0.6893    0.0082 C   0  0  0  0  0  0  0  0  0  0  0  0
   -2.0654    1.1774    0.0044 H   0  0  0  0  0  0  0  0  0  0  0  0
   -1.1907   -0.6858   -0.0000 C   0  0  0  0  0  0  0  0  0  0  0  0
   -2.0657   -1.1907    0.0196 H   0  0  0  0  0  0  0  0  0  0  0  0
    0.0085   -1.3760   -0.0333 C   0  0  0  0  0  0  0  0  0  0  0  0
   -0.0099   -2.3834   -0.0838 H   0  0  0  0  0  0  0  0  0  0  0  0
    1.1907   -0.7048   -0.0000 C   0  0  0  0  0  0  0  0  0  0  0  0
    2.0777   -1.2001    0.0229 H   0  0  0  0  0  0  0  0  0  0  0  0
    1.1985    0.6884    0.0054 C   0  0  0  0  0  0  0  0  0  0  0  0
    2.0567    1.1832   -0.0023 H   0  0  0  0  0  0  0  0  0  0  0  0
  1  5  1  0
  5  8  1  0
  1  2  1  0
  1  3  1  0
  1  4  1  0
  5  6  1  0
  5  7  1  0
  8  9  1  0
  8 10  1  0
  8 11  1  0
 12 16  1  0
 16 17  2  0
 17 19  1  0
 19 21  2  0
 21 23  1  0
 23 25  2  0
 25 16  1  0
 12 13  1  0
 12 14  1  0
 12 15  1  0
 17 18  1  0
 19 20  1  0
 21 22  1  0
 23 24  1  0
 25 26  1  0
M  CHG  1   8   1
M  END
>  <PDB_ID>  (2241) 
pdb4lih

>  <RESIDUE_NAME>  (2241) 
LYS   PHE

>  <FRAG_NAME>  (2241) 
ETAM   MBZ

>  <FRAG_ATOM_NUM>  (2241) 
fragi: 11  fragj: 15

>  <atom.prop.CHAIN_ID>  (2241) 
A A A A A A A A A A A Z Z Z Z Z Z Z Z Z Z Z Z Z Z Z

>  <atom.prop.IS_HEAVY_ATOM>  (2241) 
1 0 0 0 1 0 0 1 0 0 0 1 0 0 0 1 1 0 1 0 1 0 1 0 1 0

>  <DIFUSE_FUNC_ATOM>  (2241) 
n/a

>  <FINAL_SINGLE_POINT_ENERGY>  (2241) 
0

>  <NONCOV_INTER_ENERGY_QM>  (2241) 
0

>  <FF_Energy>  (2241) 
-4.48

>  <QM_Energy>  (2241) 
-9.67

>  <source>  (2241) 
ETAM_MBZ

>  <Index>  (2241) 
23455

$$$$
ETAM-pdb4lih-E-LYS-111:MBZ-pdb4lih-E-PHE-169
     RDKit          3D

 26 25  0  0  0  0  0  0  0  0999 V2000
   -2.5745    1.7145   -5.3728 C   0  0  0  0  0  0  0  0  0  0  0  0
   -1.6301    2.0056   -5.2182 H   0  0  0  0  0  0  0  0  0  0  0  0
   -3.0764    2.4454   -5.8364 H   0  0  0  0  0  0  0  0  0  0  0  0
   -2.5662    0.8342   -6.0155 H   0  0  0  0  0  0  0  0  0  0  0  0
   -3.2279    1.4558   -4.0285 C   0  0  0  0  0  0  0  0  0  0  0  0
   -3.4680    2.3260   -3.6029 H   0  0  0  0  0  0  0  0  0  0  0  0
   -4.0495    0.9044   -4.1582 H   0  0  0  0  0  0  0  0  0  0  0  0
   -2.2893    0.7108   -3.1072 N   0  0  0  0  0  4  0  0  0  0  0  0
   -1.4943    0.4180   -3.6292 H   0  0  0  0  0  0  0  0  0  0  0  0
   -2.0114    1.3211   -2.3714 H   0  0  0  0  0  0  0  0  0  0  0  0
   -2.7667   -0.0804   -2.7352 H   0  0  0  0  0  0  0  0  0  0  0  0
    0.0119    2.9002   -0.0304 C   0  0  0  0  0  0  0  0  0  0  0  0
    0.8637    3.2078    0.3610 H   0  0  0  0  0  0  0  0  0  0  0  0
   -0.7650    3.2230    0.4866 H   0  0  0  0  0  0  0  0  0  0  0  0
   -0.0618    3.3036   -1.0403 H   0  0  0  0  0  0  0  0  0  0  0  0
    0.0012    1.3902    0.0158 C   0  0  0  0  0  0  0  0  0  0  0  0
   -1.1980    0.6835   -0.0328 C   0  0  0  0  0  0  0  0  0  0  0  0
   -2.0584    1.1803   -0.0926 H   0  0  0  0  0  0  0  0  0  0  0  0
   -1.1965   -0.6879    0.0000 C   0  0  0  0  0  0  0  0  0  0  0  0
   -2.0718   -1.1920    0.0349 H   0  0  0  0  0  0  0  0  0  0  0  0
    0.0017   -1.3780   -0.0127 C   0  0  0  0  0  0  0  0  0  0  0  0
   -0.0097   -2.3847   -0.0320 H   0  0  0  0  0  0  0  0  0  0  0  0
    1.1965   -0.6998   -0.0000 C   0  0  0  0  0  0  0  0  0  0  0  0
    2.0785   -1.1960   -0.0105 H   0  0  0  0  0  0  0  0  0  0  0  0
    1.1951    0.6921    0.0298 C   0  0  0  0  0  0  0  0  0  0  0  0
    2.0621    1.1846    0.0608 H   0  0  0  0  0  0  0  0  0  0  0  0
  1  5  1  0
  5  8  1  0
  1  2  1  0
  1  3  1  0
  1  4  1  0
  5  6  1  0
  5  7  1  0
  8  9  1  0
  8 10  1  0
  8 11  1  0
 12 16  1  0
 16 17  2  0
 17 19  1  0
 19 21  2  0
 21 23  1  0
 23 25  2  0
 25 16  1  0
 12 13  1  0
 12 14  1  0
 12 15  1  0
 17 18  1  0
 19 20  1  0
 21 22  1  0
 23 24  1  0
 25 26  1  0
M  CHG  1   8   1
M  END
>  <PDB_ID>  (2242) 
pdb4lih

>  <RESIDUE_NAME>  (2242) 
LYS   PHE

>  <FRAG_NAME>  (2242) 
ETAM   MBZ

>  <FRAG_ATOM_NUM>  (2242) 
fragi: 11  fragj: 15

>  <atom.prop.CHAIN_ID>  (2242) 
A A A A A A A A A A A Z Z Z Z Z Z Z Z Z Z Z Z Z Z Z

>  <atom.prop.IS_HEAVY_ATOM>  (2242) 
1 0 0 0 1 0 0 1 0 0 0 1 0 0 0 1 1 0 1 0 1 0 1 0 1 0

>  <DIFUSE_FUNC_ATOM>  (2242) 
n/a

>  <FINAL_SINGLE_POINT_ENERGY>  (2242) 
0

>  <NONCOV_INTER_ENERGY_QM>  (2242) 
0

>  <FF_Energy>  (2242) 
-4.03

>  <QM_Energy>  (2242) 
-9.07

>  <source>  (2242) 
ETAM_MBZ

>  <Index>  (2242) 
23456

$$$$
ETAM-pdb4ljk-A-LYS-6:MBZ-pdb4ljk-A-PHE-106
     RDKit          3D

 26 25  0  0  0  0  0  0  0  0999 V2000
   -3.5268   -0.9636   -2.8290 C   0  0  0  0  0  0  0  0  0  0  0  0
   -2.9794   -0.9407   -3.6564 H   0  0  0  0  0  0  0  0  0  0  0  0
   -3.1719   -0.3290   -2.1537 H   0  0  0  0  0  0  0  0  0  0  0  0
   -4.5556   -0.6960   -3.0704 H   0  0  0  0  0  0  0  0  0  0  0  0
   -3.4618   -2.3688   -2.2485 C   0  0  0  0  0  0  0  0  0  0  0  0
   -3.8088   -2.3495   -1.3062 H   0  0  0  0  0  0  0  0  0  0  0  0
   -4.0476   -2.9762   -2.7947 H   0  0  0  0  0  0  0  0  0  0  0  0
   -2.0685   -2.9173   -2.2408 N   0  0  0  0  0  4  0  0  0  0  0  0
   -2.1095   -3.9132   -2.1992 H   0  0  0  0  0  0  0  0  0  0  0  0
   -1.6004   -2.6327   -3.0750 H   0  0  0  0  0  0  0  0  0  0  0  0
   -1.5829   -2.5655   -1.4433 H   0  0  0  0  0  0  0  0  0  0  0  0
   -0.0089    2.8845   -0.0158 C   0  0  0  0  0  0  0  0  0  0  0  0
    0.9142    3.2026    0.1341 H   0  0  0  0  0  0  0  0  0  0  0  0
   -0.6200    3.2020    0.6928 H   0  0  0  0  0  0  0  0  0  0  0  0
   -0.3545    3.2989   -0.9629 H   0  0  0  0  0  0  0  0  0  0  0  0
   -0.0007    1.3960    0.0044 C   0  0  0  0  0  0  0  0  0  0  0  0
   -1.1955    0.6911   -0.0021 C   0  0  0  0  0  0  0  0  0  0  0  0
   -2.0617    1.1809   -0.0092 H   0  0  0  0  0  0  0  0  0  0  0  0
   -1.1985   -0.6970   -0.0000 C   0  0  0  0  0  0  0  0  0  0  0  0
   -2.0732   -1.1929    0.0043 H   0  0  0  0  0  0  0  0  0  0  0  0
    0.0046   -1.3897   -0.0023 C   0  0  0  0  0  0  0  0  0  0  0  0
    0.0001   -2.3902   -0.0062 H   0  0  0  0  0  0  0  0  0  0  0  0
    1.1985   -0.6942    0.0000 C   0  0  0  0  0  0  0  0  0  0  0  0
    2.0827   -1.1893    0.0029 H   0  0  0  0  0  0  0  0  0  0  0  0
    1.1916    0.6938   -0.0000 C   0  0  0  0  0  0  0  0  0  0  0  0
    2.0612    1.1914   -0.0044 H   0  0  0  0  0  0  0  0  0  0  0  0
  1  5  1  0
  5  8  1  0
  1  2  1  0
  1  3  1  0
  1  4  1  0
  5  6  1  0
  5  7  1  0
  8  9  1  0
  8 10  1  0
  8 11  1  0
 12 16  1  0
 16 17  2  0
 17 19  1  0
 19 21  2  0
 21 23  1  0
 23 25  2  0
 25 16  1  0
 12 13  1  0
 12 14  1  0
 12 15  1  0
 17 18  1  0
 19 20  1  0
 21 22  1  0
 23 24  1  0
 25 26  1  0
M  CHG  1   8   1
M  END
>  <PDB_ID>  (2243) 
pdb4ljk

>  <RESIDUE_NAME>  (2243) 
LYS   PHE

>  <FRAG_NAME>  (2243) 
ETAM   MBZ

>  <FRAG_ATOM_NUM>  (2243) 
fragi: 11  fragj: 15

>  <atom.prop.CHAIN_ID>  (2243) 
A A A A A A A A A A A Z Z Z Z Z Z Z Z Z Z Z Z Z Z Z

>  <atom.prop.IS_HEAVY_ATOM>  (2243) 
1 0 0 0 1 0 0 1 0 0 0 1 0 0 0 1 1 0 1 0 1 0 1 0 1 0

>  <DIFUSE_FUNC_ATOM>  (2243) 
n/a

>  <FINAL_SINGLE_POINT_ENERGY>  (2243) 
0

>  <NONCOV_INTER_ENERGY_QM>  (2243) 
0

>  <FF_Energy>  (2243) 
-1.31

>  <QM_Energy>  (2243) 
-8.67

>  <source>  (2243) 
ETAM_MBZ

>  <Index>  (2243) 
23459

$$$$
ETAM-pdb4ljk-G-LYS-6:MBZ-pdb4ljk-G-PHE-106
     RDKit          3D

 26 25  0  0  0  0  0  0  0  0999 V2000
   -4.1462   -0.5331   -3.3855 C   0  0  0  0  0  0  0  0  0  0  0  0
   -3.9595    0.0359   -2.6052 H   0  0  0  0  0  0  0  0  0  0  0  0
   -4.8782   -1.1677   -3.2153 H   0  0  0  0  0  0  0  0  0  0  0  0
   -4.4004    0.0947   -4.2394 H   0  0  0  0  0  0  0  0  0  0  0  0
   -2.8752   -1.3399   -3.7086 C   0  0  0  0  0  0  0  0  0  0  0  0
   -2.9882   -1.7572   -4.6227 H   0  0  0  0  0  0  0  0  0  0  0  0
   -2.0962   -0.6967   -3.7616 H   0  0  0  0  0  0  0  0  0  0  0  0
   -2.5588   -2.4111   -2.7181 N   0  0  0  0  0  4  0  0  0  0  0  0
   -2.3923   -3.2684   -3.2025 H   0  0  0  0  0  0  0  0  0  0  0  0
   -1.7432   -2.1522   -2.2019 H   0  0  0  0  0  0  0  0  0  0  0  0
   -3.3309   -2.5215   -2.0939 H   0  0  0  0  0  0  0  0  0  0  0  0
   -0.0019    2.9015    0.0251 C   0  0  0  0  0  0  0  0  0  0  0  0
    0.9355    3.2046    0.1128 H   0  0  0  0  0  0  0  0  0  0  0  0
   -0.5454    3.1897    0.8001 H   0  0  0  0  0  0  0  0  0  0  0  0
   -0.4217    3.3610   -0.8697 H   0  0  0  0  0  0  0  0  0  0  0  0
   -0.0001    1.3965   -0.0034 C   0  0  0  0  0  0  0  0  0  0  0  0
   -1.1960    0.6937    0.0064 C   0  0  0  0  0  0  0  0  0  0  0  0
   -2.0619    1.1832    0.0170 H   0  0  0  0  0  0  0  0  0  0  0  0
   -1.2016   -0.6988   -0.0000 C   0  0  0  0  0  0  0  0  0  0  0  0
   -2.0773   -1.1908    0.0022 H   0  0  0  0  0  0  0  0  0  0  0  0
   -0.0013   -1.3893   -0.0077 C   0  0  0  0  0  0  0  0  0  0  0  0
    0.0007   -2.3880   -0.0196 H   0  0  0  0  0  0  0  0  0  0  0  0
    1.2016   -0.6891    0.0000 C   0  0  0  0  0  0  0  0  0  0  0  0
    2.0809   -1.1946    0.0037 H   0  0  0  0  0  0  0  0  0  0  0  0
    1.1974    0.6871    0.0047 C   0  0  0  0  0  0  0  0  0  0  0  0
    2.0638    1.1903    0.0133 H   0  0  0  0  0  0  0  0  0  0  0  0
  1  5  1  0
  5  8  1  0
  1  2  1  0
  1  3  1  0
  1  4  1  0
  5  6  1  0
  5  7  1  0
  8  9  1  0
  8 10  1  0
  8 11  1  0
 12 16  1  0
 16 17  2  0
 17 19  1  0
 19 21  2  0
 21 23  1  0
 23 25  2  0
 25 16  1  0
 12 13  1  0
 12 14  1  0
 12 15  1  0
 17 18  1  0
 19 20  1  0
 21 22  1  0
 23 24  1  0
 25 26  1  0
M  CHG  1   8   1
M  END
>  <PDB_ID>  (2244) 
pdb4ljk

>  <RESIDUE_NAME>  (2244) 
LYS   PHE

>  <FRAG_NAME>  (2244) 
ETAM   MBZ

>  <FRAG_ATOM_NUM>  (2244) 
fragi: 11  fragj: 15

>  <atom.prop.CHAIN_ID>  (2244) 
A A A A A A A A A A A Z Z Z Z Z Z Z Z Z Z Z Z Z Z Z

>  <atom.prop.IS_HEAVY_ATOM>  (2244) 
1 0 0 0 1 0 0 1 0 0 0 1 0 0 0 1 1 0 1 0 1 0 1 0 1 0

>  <DIFUSE_FUNC_ATOM>  (2244) 
n/a

>  <FINAL_SINGLE_POINT_ENERGY>  (2244) 
0

>  <NONCOV_INTER_ENERGY_QM>  (2244) 
0

>  <FF_Energy>  (2244) 
-2.27

>  <QM_Energy>  (2244) 
-8.54

>  <source>  (2244) 
ETAM_MBZ

>  <Index>  (2244) 
23462

$$$$
ETAM-pdb4ljk-H-LYS-6:MBZ-pdb4ljk-H-PHE-106
     RDKit          3D

 26 25  0  0  0  0  0  0  0  0999 V2000
   -3.7467   -1.2293   -3.4095 C   0  0  0  0  0  0  0  0  0  0  0  0
   -3.5170   -0.6862   -2.6122 H   0  0  0  0  0  0  0  0  0  0  0  0
   -4.6469   -1.6333   -3.3148 H   0  0  0  0  0  0  0  0  0  0  0  0
   -3.7337   -0.5900   -4.2922 H   0  0  0  0  0  0  0  0  0  0  0  0
   -2.7252   -2.3491   -3.5435 C   0  0  0  0  0  0  0  0  0  0  0  0
   -2.9511   -2.9014   -4.3496 H   0  0  0  0  0  0  0  0  0  0  0  0
   -1.8153   -1.9466   -3.6669 H   0  0  0  0  0  0  0  0  0  0  0  0
   -2.7102   -3.2288   -2.3382 N   0  0  0  0  0  4  0  0  0  0  0  0
   -3.5580   -3.7554   -2.3041 H   0  0  0  0  0  0  0  0  0  0  0  0
   -1.9304   -3.8508   -2.3938 H   0  0  0  0  0  0  0  0  0  0  0  0
   -2.6319   -2.6631   -1.5188 H   0  0  0  0  0  0  0  0  0  0  0  0
   -0.0077    2.8963    0.0087 C   0  0  0  0  0  0  0  0  0  0  0  0
    0.9184    3.2069    0.1551 H   0  0  0  0  0  0  0  0  0  0  0  0
   -0.6082    3.1953    0.7345 H   0  0  0  0  0  0  0  0  0  0  0  0
   -0.3647    3.3355   -0.9229 H   0  0  0  0  0  0  0  0  0  0  0  0
    0.0004    1.3945    0.0002 C   0  0  0  0  0  0  0  0  0  0  0  0
   -1.1936    0.6844    0.0008 C   0  0  0  0  0  0  0  0  0  0  0  0
   -2.0612    1.1780    0.0000 H   0  0  0  0  0  0  0  0  0  0  0  0
   -1.1952   -0.6946    0.0000 C   0  0  0  0  0  0  0  0  0  0  0  0
   -2.0735   -1.1924    0.0018 H   0  0  0  0  0  0  0  0  0  0  0  0
   -0.0013   -1.3844   -0.0008 C   0  0  0  0  0  0  0  0  0  0  0  0
   -0.0025   -2.3861   -0.0027 H   0  0  0  0  0  0  0  0  0  0  0  0
    1.1952   -0.6914    0.0000 C   0  0  0  0  0  0  0  0  0  0  0  0
    2.0773   -1.1931    0.0018 H   0  0  0  0  0  0  0  0  0  0  0  0
    1.1946    0.6915   -0.0002 C   0  0  0  0  0  0  0  0  0  0  0  0
    2.0616    1.1893   -0.0010 H   0  0  0  0  0  0  0  0  0  0  0  0
  1  5  1  0
  5  8  1  0
  1  2  1  0
  1  3  1  0
  1  4  1  0
  5  6  1  0
  5  7  1  0
  8  9  1  0
  8 10  1  0
  8 11  1  0
 12 16  1  0
 16 17  2  0
 17 19  1  0
 19 21  2  0
 21 23  1  0
 23 25  2  0
 25 16  1  0
 12 13  1  0
 12 14  1  0
 12 15  1  0
 17 18  1  0
 19 20  1  0
 21 22  1  0
 23 24  1  0
 25 26  1  0
M  CHG  1   8   1
M  END
>  <PDB_ID>  (2245) 
pdb4ljk

>  <RESIDUE_NAME>  (2245) 
LYS   PHE

>  <FRAG_NAME>  (2245) 
ETAM   MBZ

>  <FRAG_ATOM_NUM>  (2245) 
fragi: 11  fragj: 15

>  <atom.prop.CHAIN_ID>  (2245) 
A A A A A A A A A A A Z Z Z Z Z Z Z Z Z Z Z Z Z Z Z

>  <atom.prop.IS_HEAVY_ATOM>  (2245) 
1 0 0 0 1 0 0 1 0 0 0 1 0 0 0 1 1 0 1 0 1 0 1 0 1 0

>  <DIFUSE_FUNC_ATOM>  (2245) 
n/a

>  <FINAL_SINGLE_POINT_ENERGY>  (2245) 
0

>  <NONCOV_INTER_ENERGY_QM>  (2245) 
0

>  <FF_Energy>  (2245) 
-0.88

>  <QM_Energy>  (2245) 
-5.92

>  <source>  (2245) 
ETAM_MBZ

>  <Index>  (2245) 
23463

$$$$
ETAM-pdb4llw-B-LYS-172:MBZ-pdb4llw-B-PHE-140
     RDKit          3D

 26 25  0  0  0  0  0  0  0  0999 V2000
   -1.0280   -1.3201   -3.7074 C   0  0  0  0  0  0  0  0  0  0  0  0
   -1.0441   -2.0657   -3.0536 H   0  0  0  0  0  0  0  0  0  0  0  0
   -0.9633   -1.6644   -4.6346 H   0  0  0  0  0  0  0  0  0  0  0  0
   -1.9486   -0.7451   -3.6075 H   0  0  0  0  0  0  0  0  0  0  0  0
    0.1993   -0.4519   -3.4253 C   0  0  0  0  0  0  0  0  0  0  0  0
    0.2279    0.2965   -4.1067 H   0  0  0  0  0  0  0  0  0  0  0  0
    0.0908   -0.0270   -2.5120 H   0  0  0  0  0  0  0  0  0  0  0  0
    1.4985   -1.1912   -3.4633 N   0  0  0  0  0  4  0  0  0  0  0  0
    1.4294   -1.9429   -4.1165 H   0  0  0  0  0  0  0  0  0  0  0  0
    2.2239   -0.5660   -3.7449 H   0  0  0  0  0  0  0  0  0  0  0  0
    1.6975   -1.5515   -2.5532 H   0  0  0  0  0  0  0  0  0  0  0  0
    0.0012    2.8992    0.0162 C   0  0  0  0  0  0  0  0  0  0  0  0
    0.9343    3.2027    0.1513 H   0  0  0  0  0  0  0  0  0  0  0  0
   -0.5816    3.1971    0.7600 H   0  0  0  0  0  0  0  0  0  0  0  0
   -0.3692    3.3560   -0.9015 H   0  0  0  0  0  0  0  0  0  0  0  0
   -0.0019    1.4016   -0.0057 C   0  0  0  0  0  0  0  0  0  0  0  0
   -1.1956    0.6973    0.0121 C   0  0  0  0  0  0  0  0  0  0  0  0
   -2.0632    1.1849    0.0328 H   0  0  0  0  0  0  0  0  0  0  0  0
   -1.2010   -0.6960    0.0000 C   0  0  0  0  0  0  0  0  0  0  0  0
   -2.0774   -1.1881   -0.0098 H   0  0  0  0  0  0  0  0  0  0  0  0
    0.0009   -1.3955    0.0036 C   0  0  0  0  0  0  0  0  0  0  0  0
   -0.0056   -2.3938    0.0083 H   0  0  0  0  0  0  0  0  0  0  0  0
    1.2010   -0.6999   -0.0000 C   0  0  0  0  0  0  0  0  0  0  0  0
    2.0829   -1.1964    0.0057 H   0  0  0  0  0  0  0  0  0  0  0  0
    1.1966    0.6925   -0.0100 C   0  0  0  0  0  0  0  0  0  0  0  0
    2.0635    1.1892   -0.0212 H   0  0  0  0  0  0  0  0  0  0  0  0
  1  5  1  0
  5  8  1  0
  1  2  1  0
  1  3  1  0
  1  4  1  0
  5  6  1  0
  5  7  1  0
  8  9  1  0
  8 10  1  0
  8 11  1  0
 12 16  1  0
 16 17  2  0
 17 19  1  0
 19 21  2  0
 21 23  1  0
 23 25  2  0
 25 16  1  0
 12 13  1  0
 12 14  1  0
 12 15  1  0
 17 18  1  0
 19 20  1  0
 21 22  1  0
 23 24  1  0
 25 26  1  0
M  CHG  1   8   1
M  END
>  <PDB_ID>  (2246) 
pdb4llw

>  <RESIDUE_NAME>  (2246) 
LYS   PHE

>  <FRAG_NAME>  (2246) 
ETAM   MBZ

>  <FRAG_ATOM_NUM>  (2246) 
fragi: 11  fragj: 15

>  <atom.prop.CHAIN_ID>  (2246) 
A A A A A A A A A A A Z Z Z Z Z Z Z Z Z Z Z Z Z Z Z

>  <atom.prop.IS_HEAVY_ATOM>  (2246) 
1 0 0 0 1 0 0 1 0 0 0 1 0 0 0 1 1 0 1 0 1 0 1 0 1 0

>  <DIFUSE_FUNC_ATOM>  (2246) 
n/a

>  <FINAL_SINGLE_POINT_ENERGY>  (2246) 
0

>  <NONCOV_INTER_ENERGY_QM>  (2246) 
0

>  <FF_Energy>  (2246) 
-5.88

>  <QM_Energy>  (2246) 
-13.38

>  <source>  (2246) 
ETAM_MBZ

>  <Index>  (2246) 
23500

$$$$
ETAM-pdb3o04-A-LYS-70:MBZ-pdb3o04-A-PHE-133
     RDKit          3D

 26 25  0  0  0  0  0  0  0  0999 V2000
    1.4610   -0.9978    4.3098 C   0  0  0  0  0  0  0  0  0  0  0  0
    2.0671   -1.7676    4.1218 H   0  0  0  0  0  0  0  0  0  0  0  0
    1.1762   -1.0160    5.2652 H   0  0  0  0  0  0  0  0  0  0  0  0
    2.0053   -0.0717    4.1247 H   0  0  0  0  0  0  0  0  0  0  0  0
    0.2195   -1.1328    3.4318 C   0  0  0  0  0  0  0  0  0  0  0  0
   -0.4658   -0.4682    3.7329 H   0  0  0  0  0  0  0  0  0  0  0  0
    0.4702   -0.9422    2.4820 H   0  0  0  0  0  0  0  0  0  0  0  0
   -0.3696   -2.5112    3.5137 N   0  0  0  0  0  4  0  0  0  0  0  0
   -0.9827   -2.6491    2.7387 H   0  0  0  0  0  0  0  0  0  0  0  0
    0.3680   -3.1823    3.4869 H   0  0  0  0  0  0  0  0  0  0  0  0
   -0.8764   -2.5976    4.3683 H   0  0  0  0  0  0  0  0  0  0  0  0
   -0.0007    2.8959   -0.0068 C   0  0  0  0  0  0  0  0  0  0  0  0
    0.9328    3.2051    0.0880 H   0  0  0  0  0  0  0  0  0  0  0  0
   -0.5630    3.2067    0.7437 H   0  0  0  0  0  0  0  0  0  0  0  0
   -0.4024    3.3275   -0.9236 H   0  0  0  0  0  0  0  0  0  0  0  0
    0.0008    1.3957   -0.0003 C   0  0  0  0  0  0  0  0  0  0  0  0
   -1.1935    0.6903    0.0010 C   0  0  0  0  0  0  0  0  0  0  0  0
   -2.0600    1.1827    0.0011 H   0  0  0  0  0  0  0  0  0  0  0  0
   -1.1988   -0.6942    0.0000 C   0  0  0  0  0  0  0  0  0  0  0  0
   -2.0764   -1.1891   -0.0001 H   0  0  0  0  0  0  0  0  0  0  0  0
   -0.0016   -1.3882    0.0015 C   0  0  0  0  0  0  0  0  0  0  0  0
   -0.0046   -2.3887    0.0033 H   0  0  0  0  0  0  0  0  0  0  0  0
    1.1988   -0.6940    0.0000 C   0  0  0  0  0  0  0  0  0  0  0  0
    2.0798   -1.1947    0.0016 H   0  0  0  0  0  0  0  0  0  0  0  0
    1.1943    0.6904   -0.0021 C   0  0  0  0  0  0  0  0  0  0  0  0
    2.0627    1.1890   -0.0064 H   0  0  0  0  0  0  0  0  0  0  0  0
  1  5  1  0
  5  8  1  0
  1  2  1  0
  1  3  1  0
  1  4  1  0
  5  6  1  0
  5  7  1  0
  8  9  1  0
  8 10  1  0
  8 11  1  0
 12 16  1  0
 16 17  2  0
 17 19  1  0
 19 21  2  0
 21 23  1  0
 23 25  2  0
 25 16  1  0
 12 13  1  0
 12 14  1  0
 12 15  1  0
 17 18  1  0
 19 20  1  0
 21 22  1  0
 23 24  1  0
 25 26  1  0
M  CHG  1   8   1
M  END
>  <PDB_ID>  (2247) 
pdb3o04

>  <RESIDUE_NAME>  (2247) 
LYS   PHE

>  <FRAG_NAME>  (2247) 
ETAM   MBZ

>  <FRAG_ATOM_NUM>  (2247) 
fragi: 11  fragj: 15

>  <atom.prop.CHAIN_ID>  (2247) 
A A A A A A A A A A A Z Z Z Z Z Z Z Z Z Z Z Z Z Z Z

>  <atom.prop.IS_HEAVY_ATOM>  (2247) 
1 0 0 0 1 0 0 1 0 0 0 1 0 0 0 1 1 0 1 0 1 0 1 0 1 0

>  <DIFUSE_FUNC_ATOM>  (2247) 
n/a

>  <FINAL_SINGLE_POINT_ENERGY>  (2247) 
0

>  <NONCOV_INTER_ENERGY_QM>  (2247) 
0

>  <FF_Energy>  (2247) 
-3.49

>  <QM_Energy>  (2247) 
-9.55

>  <source>  (2247) 
ETAM_MBZ

>  <Index>  (2247) 
23502

$$$$
ETAM-pdb4l7z-A-LYS-192:MBZ-pdb4l7z-C-PHE-264
     RDKit          3D

 26 25  0  0  0  0  0  0  0  0999 V2000
    1.0841   -1.0986    3.9848 C   0  0  0  0  0  0  0  0  0  0  0  0
    0.9210   -0.8628    4.9367 H   0  0  0  0  0  0  0  0  0  0  0  0
    1.1436   -0.2762    3.4294 H   0  0  0  0  0  0  0  0  0  0  0  0
    2.0264   -1.6418    3.9134 H   0  0  0  0  0  0  0  0  0  0  0  0
   -0.0774   -1.9384    3.4856 C   0  0  0  0  0  0  0  0  0  0  0  0
    0.0928   -2.1969    2.5321 H   0  0  0  0  0  0  0  0  0  0  0  0
   -0.1424   -2.7701    4.0430 H   0  0  0  0  0  0  0  0  0  0  0  0
   -1.3650   -1.1950    3.5664 N   0  0  0  0  0  4  0  0  0  0  0  0
   -2.1247   -1.8443    3.5426 H   0  0  0  0  0  0  0  0  0  0  0  0
   -1.3948   -0.6751    4.4195 H   0  0  0  0  0  0  0  0  0  0  0  0
   -1.4357   -0.5695    2.7904 H   0  0  0  0  0  0  0  0  0  0  0  0
    0.0009    2.8970   -0.0061 C   0  0  0  0  0  0  0  0  0  0  0  0
   -0.6361    3.1991   -0.7002 H   0  0  0  0  0  0  0  0  0  0  0  0
    0.9211    3.2014   -0.2072 H   0  0  0  0  0  0  0  0  0  0  0  0
   -0.2992    3.3461    0.9407 H   0  0  0  0  0  0  0  0  0  0  0  0
   -0.0002    1.3947    0.0030 C   0  0  0  0  0  0  0  0  0  0  0  0
   -1.1918    0.6893   -0.0024 C   0  0  0  0  0  0  0  0  0  0  0  0
   -2.0598    1.1810   -0.0088 H   0  0  0  0  0  0  0  0  0  0  0  0
   -1.1949   -0.6933   -0.0000 C   0  0  0  0  0  0  0  0  0  0  0  0
   -2.0738   -1.1899    0.0027 H   0  0  0  0  0  0  0  0  0  0  0  0
    0.0005   -1.3862    0.0002 C   0  0  0  0  0  0  0  0  0  0  0  0
   -0.0038   -2.3874    0.0002 H   0  0  0  0  0  0  0  0  0  0  0  0
    1.1949   -0.6932   -0.0000 C   0  0  0  0  0  0  0  0  0  0  0  0
    2.0784   -1.1931    0.0018 H   0  0  0  0  0  0  0  0  0  0  0  0
    1.1915    0.6887   -0.0008 C   0  0  0  0  0  0  0  0  0  0  0  0
    2.0606    1.1870   -0.0048 H   0  0  0  0  0  0  0  0  0  0  0  0
  1  5  1  0
  5  8  1  0
  1  2  1  0
  1  3  1  0
  1  4  1  0
  5  6  1  0
  5  7  1  0
  8  9  1  0
  8 10  1  0
  8 11  1  0
 12 16  1  0
 16 17  2  0
 17 19  1  0
 19 21  2  0
 21 23  1  0
 23 25  2  0
 25 16  1  0
 12 13  1  0
 12 14  1  0
 12 15  1  0
 17 18  1  0
 19 20  1  0
 21 22  1  0
 23 24  1  0
 25 26  1  0
M  CHG  1   8   1
M  END
>  <PDB_ID>  (2248) 
pdb4l7z

>  <RESIDUE_NAME>  (2248) 
LYS   PHE

>  <FRAG_NAME>  (2248) 
ETAM   MBZ

>  <FRAG_ATOM_NUM>  (2248) 
fragi: 11  fragj: 15

>  <atom.prop.CHAIN_ID>  (2248) 
A A A A A A A A A A A Z Z Z Z Z Z Z Z Z Z Z Z Z Z Z

>  <atom.prop.IS_HEAVY_ATOM>  (2248) 
1 0 0 0 1 0 0 1 0 0 0 1 0 0 0 1 1 0 1 0 1 0 1 0 1 0

>  <DIFUSE_FUNC_ATOM>  (2248) 
n/a

>  <FINAL_SINGLE_POINT_ENERGY>  (2248) 
0

>  <NONCOV_INTER_ENERGY_QM>  (2248) 
0

>  <FF_Energy>  (2248) 
-5.66

>  <QM_Energy>  (2248) 
-11.99

>  <source>  (2248) 
ETAM_MBZ

>  <Index>  (2248) 
23506

$$$$
ETAM-pdb4l7z-F-LYS-192:MBZ-pdb4l7z-E-PHE-264
     RDKit          3D

 26 25  0  0  0  0  0  0  0  0999 V2000
    1.8225   -2.1096    4.1394 C   0  0  0  0  0  0  0  0  0  0  0  0
    2.3302   -2.9009    3.8234 H   0  0  0  0  0  0  0  0  0  0  0  0
    1.6434   -2.1716    5.1133 H   0  0  0  0  0  0  0  0  0  0  0  0
    2.4058   -1.2105    3.9407 H   0  0  0  0  0  0  0  0  0  0  0  0
    0.4945   -2.0605    3.4047 C   0  0  0  0  0  0  0  0  0  0  0  0
    0.6635   -2.1519    2.4190 H   0  0  0  0  0  0  0  0  0  0  0  0
   -0.0750   -2.8303    3.7077 H   0  0  0  0  0  0  0  0  0  0  0  0
   -0.2346   -0.7861    3.6582 N   0  0  0  0  0  4  0  0  0  0  0  0
    0.4244   -0.0622    3.8607 H   0  0  0  0  0  0  0  0  0  0  0  0
   -0.7638   -0.5404    2.8464 H   0  0  0  0  0  0  0  0  0  0  0  0
   -0.8503   -0.9062    4.4358 H   0  0  0  0  0  0  0  0  0  0  0  0
   -0.0002    2.8973   -0.0050 C   0  0  0  0  0  0  0  0  0  0  0  0
   -0.6147    3.1996   -0.7179 H   0  0  0  0  0  0  0  0  0  0  0  0
    0.9250    3.2022   -0.1768 H   0  0  0  0  0  0  0  0  0  0  0  0
   -0.3305    3.3446    0.9326 H   0  0  0  0  0  0  0  0  0  0  0  0
   -0.0004    1.3945    0.0028 C   0  0  0  0  0  0  0  0  0  0  0  0
   -1.1908    0.6884   -0.0017 C   0  0  0  0  0  0  0  0  0  0  0  0
   -2.0596    1.1804   -0.0073 H   0  0  0  0  0  0  0  0  0  0  0  0
   -1.1947   -0.6931   -0.0000 C   0  0  0  0  0  0  0  0  0  0  0  0
   -2.0737   -1.1891    0.0030 H   0  0  0  0  0  0  0  0  0  0  0  0
    0.0002   -1.3847   -0.0007 C   0  0  0  0  0  0  0  0  0  0  0  0
   -0.0036   -2.3868   -0.0026 H   0  0  0  0  0  0  0  0  0  0  0  0
    1.1947   -0.6937    0.0000 C   0  0  0  0  0  0  0  0  0  0  0  0
    2.0772   -1.1933    0.0023 H   0  0  0  0  0  0  0  0  0  0  0  0
    1.1910    0.6885   -0.0003 C   0  0  0  0  0  0  0  0  0  0  0  0
    2.0602    1.1870   -0.0034 H   0  0  0  0  0  0  0  0  0  0  0  0
  1  5  1  0
  5  8  1  0
  1  2  1  0
  1  3  1  0
  1  4  1  0
  5  6  1  0
  5  7  1  0
  8  9  1  0
  8 10  1  0
  8 11  1  0
 12 16  1  0
 16 17  2  0
 17 19  1  0
 19 21  2  0
 21 23  1  0
 23 25  2  0
 25 16  1  0
 12 13  1  0
 12 14  1  0
 12 15  1  0
 17 18  1  0
 19 20  1  0
 21 22  1  0
 23 24  1  0
 25 26  1  0
M  CHG  1   8   1
M  END
>  <PDB_ID>  (2249) 
pdb4l7z

>  <RESIDUE_NAME>  (2249) 
LYS   PHE

>  <FRAG_NAME>  (2249) 
ETAM   MBZ

>  <FRAG_ATOM_NUM>  (2249) 
fragi: 11  fragj: 15

>  <atom.prop.CHAIN_ID>  (2249) 
A A A A A A A A A A A Z Z Z Z Z Z Z Z Z Z Z Z Z Z Z

>  <atom.prop.IS_HEAVY_ATOM>  (2249) 
1 0 0 0 1 0 0 1 0 0 0 1 0 0 0 1 1 0 1 0 1 0 1 0 1 0

>  <DIFUSE_FUNC_ATOM>  (2249) 
n/a

>  <FINAL_SINGLE_POINT_ENERGY>  (2249) 
0

>  <NONCOV_INTER_ENERGY_QM>  (2249) 
0

>  <FF_Energy>  (2249) 
-6.47

>  <QM_Energy>  (2249) 
-12.48

>  <source>  (2249) 
ETAM_MBZ

>  <Index>  (2249) 
23508

$$$$
ETAM-pdb4lmo-A-LYS-320:MBZ-pdb4lmo-A-PHE-325
     RDKit          3D

 26 25  0  0  0  0  0  0  0  0999 V2000
   -2.8109   -2.7263   -2.8929 C   0  0  0  0  0  0  0  0  0  0  0  0
   -2.6028   -2.6845   -1.9224 H   0  0  0  0  0  0  0  0  0  0  0  0
   -3.6157   -3.2852   -3.0538 H   0  0  0  0  0  0  0  0  0  0  0  0
   -2.9992   -1.7171   -3.2590 H   0  0  0  0  0  0  0  0  0  0  0  0
   -1.6304   -3.3588   -3.6149 C   0  0  0  0  0  0  0  0  0  0  0  0
   -1.4833   -4.2847   -3.2490 H   0  0  0  0  0  0  0  0  0  0  0  0
   -1.8496   -3.4342   -4.5942 H   0  0  0  0  0  0  0  0  0  0  0  0
   -0.3739   -2.5689   -3.4581 N   0  0  0  0  0  4  0  0  0  0  0  0
    0.3963   -3.1047   -3.8002 H   0  0  0  0  0  0  0  0  0  0  0  0
   -0.4514   -1.7194   -3.9791 H   0  0  0  0  0  0  0  0  0  0  0  0
   -0.2349   -2.3590   -2.4918 H   0  0  0  0  0  0  0  0  0  0  0  0
    0.0002    2.8940   -0.0137 C   0  0  0  0  0  0  0  0  0  0  0  0
    0.8916    3.2070    0.2731 H   0  0  0  0  0  0  0  0  0  0  0  0
   -0.7101    3.2108    0.5946 H   0  0  0  0  0  0  0  0  0  0  0  0
   -0.1966    3.3161   -0.9992 H   0  0  0  0  0  0  0  0  0  0  0  0
    0.0003    1.3955    0.0045 C   0  0  0  0  0  0  0  0  0  0  0  0
   -1.1983    0.6893    0.0021 C   0  0  0  0  0  0  0  0  0  0  0  0
   -2.0628    1.1833    0.0008 H   0  0  0  0  0  0  0  0  0  0  0  0
   -1.2017   -0.6933   -0.0000 C   0  0  0  0  0  0  0  0  0  0  0  0
   -2.0768   -1.1918    0.0046 H   0  0  0  0  0  0  0  0  0  0  0  0
    0.0001   -1.3853   -0.0063 C   0  0  0  0  0  0  0  0  0  0  0  0
   -0.0049   -2.3871   -0.0157 H   0  0  0  0  0  0  0  0  0  0  0  0
    1.2017   -0.6953    0.0000 C   0  0  0  0  0  0  0  0  0  0  0  0
    2.0808   -1.1965    0.0064 H   0  0  0  0  0  0  0  0  0  0  0  0
    1.1978    0.6890   -0.0003 C   0  0  0  0  0  0  0  0  0  0  0  0
    2.0642    1.1887   -0.0046 H   0  0  0  0  0  0  0  0  0  0  0  0
  1  5  1  0
  5  8  1  0
  1  2  1  0
  1  3  1  0
  1  4  1  0
  5  6  1  0
  5  7  1  0
  8  9  1  0
  8 10  1  0
  8 11  1  0
 12 16  1  0
 16 17  2  0
 17 19  1  0
 19 21  2  0
 21 23  1  0
 23 25  2  0
 25 16  1  0
 12 13  1  0
 12 14  1  0
 12 15  1  0
 17 18  1  0
 19 20  1  0
 21 22  1  0
 23 24  1  0
 25 26  1  0
M  CHG  1   8   1
M  END
>  <PDB_ID>  (2250) 
pdb4lmo

>  <RESIDUE_NAME>  (2250) 
LYS   PHE

>  <FRAG_NAME>  (2250) 
ETAM   MBZ

>  <FRAG_ATOM_NUM>  (2250) 
fragi: 11  fragj: 15

>  <atom.prop.CHAIN_ID>  (2250) 
A A A A A A A A A A A Z Z Z Z Z Z Z Z Z Z Z Z Z Z Z

>  <atom.prop.IS_HEAVY_ATOM>  (2250) 
1 0 0 0 1 0 0 1 0 0 0 1 0 0 0 1 1 0 1 0 1 0 1 0 1 0

>  <DIFUSE_FUNC_ATOM>  (2250) 
n/a

>  <FINAL_SINGLE_POINT_ENERGY>  (2250) 
0

>  <NONCOV_INTER_ENERGY_QM>  (2250) 
0

>  <FF_Energy>  (2250) 
-3.77

>  <QM_Energy>  (2250) 
-9.62

>  <source>  (2250) 
ETAM_MBZ

>  <Index>  (2250) 
23514

$$$$
ETAM-pdb3o08-A-LYS-427:MBZ-pdb3o08-A-PHE-420
     RDKit          3D

 26 25  0  0  0  0  0  0  0  0999 V2000
   -0.9334   -1.5817    4.1714 C   0  0  0  0  0  0  0  0  0  0  0  0
   -0.8618   -1.1555    5.0667 H   0  0  0  0  0  0  0  0  0  0  0  0
   -1.0233   -2.5671    4.2627 H   0  0  0  0  0  0  0  0  0  0  0  0
   -1.8118   -1.1889    3.6595 H   0  0  0  0  0  0  0  0  0  0  0  0
    0.3354   -1.2826    3.3903 C   0  0  0  0  0  0  0  0  0  0  0  0
    0.1286   -1.3184    2.4025 H   0  0  0  0  0  0  0  0  0  0  0  0
    0.6434   -0.3463    3.6100 H   0  0  0  0  0  0  0  0  0  0  0  0
    1.4555   -2.2372    3.6816 N   0  0  0  0  0  4  0  0  0  0  0  0
    2.2835   -1.9169    3.2259 H   0  0  0  0  0  0  0  0  0  0  0  0
    1.6035   -2.2739    4.6676 H   0  0  0  0  0  0  0  0  0  0  0  0
    1.2095   -3.1413    3.3408 H   0  0  0  0  0  0  0  0  0  0  0  0
    0.0298    2.9449   -0.0334 C   0  0  0  0  0  0  0  0  0  0  0  0
   -0.6338    3.2520   -0.6864 H   0  0  0  0  0  0  0  0  0  0  0  0
    0.9413    3.2317   -0.2525 H   0  0  0  0  0  0  0  0  0  0  0  0
   -0.2343    3.3468    0.9448 H   0  0  0  0  0  0  0  0  0  0  0  0
    0.0112    1.4324   -0.0355 C   0  0  0  0  0  0  0  0  0  0  0  0
   -1.2103    0.7508   -0.0472 C   0  0  0  0  0  0  0  0  0  0  0  0
   -2.0678    1.1988   -0.0858 H   0  0  0  0  0  0  0  0  0  0  0  0
   -1.2169   -0.7418    0.0000 C   0  0  0  0  0  0  0  0  0  0  0  0
   -2.0949   -1.1906    0.0145 H   0  0  0  0  0  0  0  0  0  0  0  0
   -0.0010   -1.4434    0.0240 C   0  0  0  0  0  0  0  0  0  0  0  0
    0.0016   -2.4343    0.0567 H   0  0  0  0  0  0  0  0  0  0  0  0
    1.2169   -0.7313   -0.0000 C   0  0  0  0  0  0  0  0  0  0  0  0
    2.0953   -1.1919   -0.0548 H   0  0  0  0  0  0  0  0  0  0  0  0
    1.2001    0.7334    0.0588 C   0  0  0  0  0  0  0  0  0  0  0  0
    2.0695    1.1939    0.1675 H   0  0  0  0  0  0  0  0  0  0  0  0
  1  5  1  0
  5  8  1  0
  1  2  1  0
  1  3  1  0
  1  4  1  0
  5  6  1  0
  5  7  1  0
  8  9  1  0
  8 10  1  0
  8 11  1  0
 12 16  1  0
 16 17  2  0
 17 19  1  0
 19 21  2  0
 21 23  1  0
 23 25  2  0
 25 16  1  0
 12 13  1  0
 12 14  1  0
 12 15  1  0
 17 18  1  0
 19 20  1  0
 21 22  1  0
 23 24  1  0
 25 26  1  0
M  CHG  1   8   1
M  END
>  <PDB_ID>  (2251) 
pdb3o08

>  <RESIDUE_NAME>  (2251) 
LYS   PHE

>  <FRAG_NAME>  (2251) 
ETAM   MBZ

>  <FRAG_ATOM_NUM>  (2251) 
fragi: 11  fragj: 15

>  <atom.prop.CHAIN_ID>  (2251) 
A A A A A A A A A A A Z Z Z Z Z Z Z Z Z Z Z Z Z Z Z

>  <atom.prop.IS_HEAVY_ATOM>  (2251) 
1 0 0 0 1 0 0 1 0 0 0 1 0 0 0 1 1 0 1 0 1 0 1 0 1 0

>  <DIFUSE_FUNC_ATOM>  (2251) 
n/a

>  <FINAL_SINGLE_POINT_ENERGY>  (2251) 
0

>  <NONCOV_INTER_ENERGY_QM>  (2251) 
0

>  <FF_Energy>  (2251) 
-1.9

>  <QM_Energy>  (2251) 
-8.31

>  <source>  (2251) 
ETAM_MBZ

>  <Index>  (2251) 
23521

$$$$
ETAM-pdb3o0h-A-LYS-52:MBZ-pdb3o0h-A-PHE-345
     RDKit          3D

 26 25  0  0  0  0  0  0  0  0999 V2000
    0.5627    0.1897   -3.7015 C   0  0  0  0  0  0  0  0  0  0  0  0
    0.8557    1.1193   -3.5022 H   0  0  0  0  0  0  0  0  0  0  0  0
   -0.2414   -0.0421   -3.1626 H   0  0  0  0  0  0  0  0  0  0  0  0
    0.3502    0.0812   -4.7651 H   0  0  0  0  0  0  0  0  0  0  0  0
    1.7229   -0.7661   -3.2186 C   0  0  0  0  0  0  0  0  0  0  0  0
    2.5603   -0.5224   -3.7531 H   0  0  0  0  0  0  0  0  0  0  0  0
    1.9320   -0.5243   -2.2462 H   0  0  0  0  0  0  0  0  0  0  0  0
    1.5040   -2.2633   -3.3114 N   0  0  0  0  0  4  0  0  0  0  0  0
    0.6842   -2.4319   -3.8497 H   0  0  0  0  0  0  0  0  0  0  0  0
    2.2972   -2.6739   -3.7514 H   0  0  0  0  0  0  0  0  0  0  0  0
    1.3927   -2.6259   -2.3912 H   0  0  0  0  0  0  0  0  0  0  0  0
   -0.0023    2.9064    0.0737 C   0  0  0  0  0  0  0  0  0  0  0  0
   -0.8680    3.2362   -0.2483 H   0  0  0  0  0  0  0  0  0  0  0  0
    0.7529    3.2486   -0.4502 H   0  0  0  0  0  0  0  0  0  0  0  0
    0.1236    3.2440    1.1024 H   0  0  0  0  0  0  0  0  0  0  0  0
   -0.0022    1.4151   -0.0176 C   0  0  0  0  0  0  0  0  0  0  0  0
   -1.1928    0.7039    0.0103 C   0  0  0  0  0  0  0  0  0  0  0  0
   -2.0635    1.1798    0.0371 H   0  0  0  0  0  0  0  0  0  0  0  0
   -1.1917   -0.7060    0.0000 C   0  0  0  0  0  0  0  0  0  0  0  0
   -2.0760   -1.1893   -0.0016 H   0  0  0  0  0  0  0  0  0  0  0  0
    0.0007   -1.4059   -0.0065 C   0  0  0  0  0  0  0  0  0  0  0  0
   -0.0079   -2.4052   -0.0167 H   0  0  0  0  0  0  0  0  0  0  0  0
    1.1917   -0.7148   -0.0000 C   0  0  0  0  0  0  0  0  0  0  0  0
    2.0807   -1.1968   -0.0030 H   0  0  0  0  0  0  0  0  0  0  0  0
    1.1943    0.7076    0.0138 C   0  0  0  0  0  0  0  0  0  0  0  0
    2.0632    1.1852    0.0455 H   0  0  0  0  0  0  0  0  0  0  0  0
  1  5  1  0
  5  8  1  0
  1  2  1  0
  1  3  1  0
  1  4  1  0
  5  6  1  0
  5  7  1  0
  8  9  1  0
  8 10  1  0
  8 11  1  0
 12 16  1  0
 16 17  2  0
 17 19  1  0
 19 21  2  0
 21 23  1  0
 23 25  2  0
 25 16  1  0
 12 13  1  0
 12 14  1  0
 12 15  1  0
 17 18  1  0
 19 20  1  0
 21 22  1  0
 23 24  1  0
 25 26  1  0
M  CHG  1   8   1
M  END
>  <PDB_ID>  (2252) 
pdb3o0h

>  <RESIDUE_NAME>  (2252) 
LYS   PHE

>  <FRAG_NAME>  (2252) 
ETAM   MBZ

>  <FRAG_ATOM_NUM>  (2252) 
fragi: 11  fragj: 15

>  <atom.prop.CHAIN_ID>  (2252) 
A A A A A A A A A A A Z Z Z Z Z Z Z Z Z Z Z Z Z Z Z

>  <atom.prop.IS_HEAVY_ATOM>  (2252) 
1 0 0 0 1 0 0 1 0 0 0 1 0 0 0 1 1 0 1 0 1 0 1 0 1 0

>  <DIFUSE_FUNC_ATOM>  (2252) 
n/a

>  <FINAL_SINGLE_POINT_ENERGY>  (2252) 
0

>  <NONCOV_INTER_ENERGY_QM>  (2252) 
0

>  <FF_Energy>  (2252) 
-2.09

>  <QM_Energy>  (2252) 
-9.66

>  <source>  (2252) 
ETAM_MBZ

>  <Index>  (2252) 
23527

$$$$
ETAM-pdb3o0h-B-LYS-52:MBZ-pdb3o0h-B-PHE-345
     RDKit          3D

 26 25  0  0  0  0  0  0  0  0999 V2000
    0.4723    0.1520   -3.8661 C   0  0  0  0  0  0  0  0  0  0  0  0
    0.7869    1.0864   -3.6709 H   0  0  0  0  0  0  0  0  0  0  0  0
   -0.3265   -0.0457   -3.2887 H   0  0  0  0  0  0  0  0  0  0  0  0
    0.2121    0.0531   -4.9199 H   0  0  0  0  0  0  0  0  0  0  0  0
    1.6045   -0.8082   -3.4149 C   0  0  0  0  0  0  0  0  0  0  0  0
    2.4296   -0.6175   -4.0038 H   0  0  0  0  0  0  0  0  0  0  0  0
    1.8938   -0.5268   -2.4649 H   0  0  0  0  0  0  0  0  0  0  0  0
    1.3565   -2.2945   -3.4135 N   0  0  0  0  0  4  0  0  0  0  0  0
    2.1994   -2.7617   -3.1608 H   0  0  0  0  0  0  0  0  0  0  0  0
    0.6393   -2.5014   -2.7523 H   0  0  0  0  0  0  0  0  0  0  0  0
    1.0709   -2.5740   -4.3266 H   0  0  0  0  0  0  0  0  0  0  0  0
    0.0114    2.9033    0.0587 C   0  0  0  0  0  0  0  0  0  0  0  0
   -0.8632    3.2330   -0.2290 H   0  0  0  0  0  0  0  0  0  0  0  0
    0.7474    3.2275   -0.4973 H   0  0  0  0  0  0  0  0  0  0  0  0
    0.1833    3.2381    1.0817 H   0  0  0  0  0  0  0  0  0  0  0  0
   -0.0068    1.4043   -0.0181 C   0  0  0  0  0  0  0  0  0  0  0  0
   -1.2010    0.7040    0.0225 C   0  0  0  0  0  0  0  0  0  0  0  0
   -2.0675    1.1836    0.0664 H   0  0  0  0  0  0  0  0  0  0  0  0
   -1.2044   -0.7042    0.0000 C   0  0  0  0  0  0  0  0  0  0  0  0
   -2.0758   -1.1933   -0.0041 H   0  0  0  0  0  0  0  0  0  0  0  0
    0.0075   -1.3916   -0.0143 C   0  0  0  0  0  0  0  0  0  0  0  0
   -0.0020   -2.3977   -0.0361 H   0  0  0  0  0  0  0  0  0  0  0  0
    1.2044   -0.7092   -0.0000 C   0  0  0  0  0  0  0  0  0  0  0  0
    2.0866   -1.1981    0.0048 H   0  0  0  0  0  0  0  0  0  0  0  0
    1.2003    0.6968    0.0099 C   0  0  0  0  0  0  0  0  0  0  0  0
    2.0632    1.1889    0.0365 H   0  0  0  0  0  0  0  0  0  0  0  0
  1  5  1  0
  5  8  1  0
  1  2  1  0
  1  3  1  0
  1  4  1  0
  5  6  1  0
  5  7  1  0
  8  9  1  0
  8 10  1  0
  8 11  1  0
 12 16  1  0
 16 17  2  0
 17 19  1  0
 19 21  2  0
 21 23  1  0
 23 25  2  0
 25 16  1  0
 12 13  1  0
 12 14  1  0
 12 15  1  0
 17 18  1  0
 19 20  1  0
 21 22  1  0
 23 24  1  0
 25 26  1  0
M  CHG  1   8   1
M  END
>  <PDB_ID>  (2253) 
pdb3o0h

>  <RESIDUE_NAME>  (2253) 
LYS   PHE

>  <FRAG_NAME>  (2253) 
ETAM   MBZ

>  <FRAG_ATOM_NUM>  (2253) 
fragi: 11  fragj: 15

>  <atom.prop.CHAIN_ID>  (2253) 
A A A A A A A A A A A Z Z Z Z Z Z Z Z Z Z Z Z Z Z Z

>  <atom.prop.IS_HEAVY_ATOM>  (2253) 
1 0 0 0 1 0 0 1 0 0 0 1 0 0 0 1 1 0 1 0 1 0 1 0 1 0

>  <DIFUSE_FUNC_ATOM>  (2253) 
n/a

>  <FINAL_SINGLE_POINT_ENERGY>  (2253) 
0

>  <NONCOV_INTER_ENERGY_QM>  (2253) 
0

>  <FF_Energy>  (2253) 
-4.05

>  <QM_Energy>  (2253) 
-10.21

>  <source>  (2253) 
ETAM_MBZ

>  <Index>  (2253) 
23529

$$$$
ETAM-pdb3o0k-A-LYS-133:MBZ-pdb3o0k-A-PHE-136
     RDKit          3D

 26 25  0  0  0  0  0  0  0  0999 V2000
    3.0152   -2.3196    2.1211 C   0  0  0  0  0  0  0  0  0  0  0  0
    2.3709   -2.0713    1.3975 H   0  0  0  0  0  0  0  0  0  0  0  0
    3.5064   -1.5036    2.4241 H   0  0  0  0  0  0  0  0  0  0  0  0
    2.4562   -2.7265    2.9638 H   0  0  0  0  0  0  0  0  0  0  0  0
    4.0166   -3.3055    1.5584 C   0  0  0  0  0  0  0  0  0  0  0  0
    4.6680   -3.5558    2.2757 H   0  0  0  0  0  0  0  0  0  0  0  0
    3.5331   -4.1242    1.2486 H   0  0  0  0  0  0  0  0  0  0  0  0
    4.7524   -2.7104    0.4149 N   0  0  0  0  0  4  0  0  0  0  0  0
    5.1456   -1.8325    0.6919 H   0  0  0  0  0  0  0  0  0  0  0  0
    5.4854   -3.3294    0.1317 H   0  0  0  0  0  0  0  0  0  0  0  0
    4.1230   -2.5668   -0.3483 H   0  0  0  0  0  0  0  0  0  0  0  0
    0.0485    2.9349   -0.1001 C   0  0  0  0  0  0  0  0  0  0  0  0
   -0.4594    3.1798   -0.9264 H   0  0  0  0  0  0  0  0  0  0  0  0
    1.0090    3.1928   -0.2105 H   0  0  0  0  0  0  0  0  0  0  0  0
   -0.3592    3.5188    0.7250 H   0  0  0  0  0  0  0  0  0  0  0  0
    0.0005    1.4132    0.0275 C   0  0  0  0  0  0  0  0  0  0  0  0
   -1.1992    0.7078   -0.0214 C   0  0  0  0  0  0  0  0  0  0  0  0
   -2.0633    1.1941   -0.0742 H   0  0  0  0  0  0  0  0  0  0  0  0
   -1.2099   -0.6975    0.0000 C   0  0  0  0  0  0  0  0  0  0  0  0
   -2.0852   -1.1844    0.0102 H   0  0  0  0  0  0  0  0  0  0  0  0
    0.0005   -1.4111    0.0088 C   0  0  0  0  0  0  0  0  0  0  0  0
   -0.0063   -2.3995    0.0202 H   0  0  0  0  0  0  0  0  0  0  0  0
    1.2099   -0.7024   -0.0000 C   0  0  0  0  0  0  0  0  0  0  0  0
    2.0885   -1.1989    0.0065 H   0  0  0  0  0  0  0  0  0  0  0  0
    1.1982    0.6901   -0.0149 C   0  0  0  0  0  0  0  0  0  0  0  0
    2.0679    1.1895   -0.0579 H   0  0  0  0  0  0  0  0  0  0  0  0
  1  5  1  0
  5  8  1  0
  1  2  1  0
  1  3  1  0
  1  4  1  0
  5  6  1  0
  5  7  1  0
  8  9  1  0
  8 10  1  0
  8 11  1  0
 12 16  1  0
 16 17  2  0
 17 19  1  0
 19 21  2  0
 21 23  1  0
 23 25  2  0
 25 16  1  0
 12 13  1  0
 12 14  1  0
 12 15  1  0
 17 18  1  0
 19 20  1  0
 21 22  1  0
 23 24  1  0
 25 26  1  0
M  CHG  1   8   1
M  END
>  <PDB_ID>  (2254) 
pdb3o0k

>  <RESIDUE_NAME>  (2254) 
LYS   PHE

>  <FRAG_NAME>  (2254) 
ETAM   MBZ

>  <FRAG_ATOM_NUM>  (2254) 
fragi: 11  fragj: 15

>  <atom.prop.CHAIN_ID>  (2254) 
A A A A A A A A A A A Z Z Z Z Z Z Z Z Z Z Z Z Z Z Z

>  <atom.prop.IS_HEAVY_ATOM>  (2254) 
1 0 0 0 1 0 0 1 0 0 0 1 0 0 0 1 1 0 1 0 1 0 1 0 1 0

>  <DIFUSE_FUNC_ATOM>  (2254) 
n/a

>  <FINAL_SINGLE_POINT_ENERGY>  (2254) 
0

>  <NONCOV_INTER_ENERGY_QM>  (2254) 
0

>  <FF_Energy>  (2254) 
12.74

>  <QM_Energy>  (2254) 
1.13

>  <source>  (2254) 
ETAM_MBZ

>  <Index>  (2254) 
23540

$$$$
ETAM-pdb4lgv-B-LYS-142:MBZ-pdb4lgv-B-PHE-173
     RDKit          3D

 26 25  0  0  0  0  0  0  0  0999 V2000
    6.2657    1.3484   -2.2553 C   0  0  0  0  0  0  0  0  0  0  0  0
    6.4993    0.9617   -1.3519 H   0  0  0  0  0  0  0  0  0  0  0  0
    5.9891    2.3101   -2.1209 H   0  0  0  0  0  0  0  0  0  0  0  0
    7.1486    1.3171   -2.8939 H   0  0  0  0  0  0  0  0  0  0  0  0
    5.0597    0.5849   -2.7958 C   0  0  0  0  0  0  0  0  0  0  0  0
    4.6207    1.1215   -3.4924 H   0  0  0  0  0  0  0  0  0  0  0  0
    5.3519   -0.2919   -3.1292 H   0  0  0  0  0  0  0  0  0  0  0  0
    4.1048    0.3849   -1.6498 N   0  0  0  0  0  4  0  0  0  0  0  0
    3.2883   -0.0777   -1.9864 H   0  0  0  0  0  0  0  0  0  0  0  0
    4.5493   -0.1719   -0.9524 H   0  0  0  0  0  0  0  0  0  0  0  0
    3.8618    1.2748   -1.2730 H   0  0  0  0  0  0  0  0  0  0  0  0
   -0.0219    2.9235   -0.0125 C   0  0  0  0  0  0  0  0  0  0  0  0
    0.9198    3.2265    0.0201 H   0  0  0  0  0  0  0  0  0  0  0  0
   -0.5165    3.2084    0.7965 H   0  0  0  0  0  0  0  0  0  0  0  0
   -0.4974    3.3787   -0.8812 H   0  0  0  0  0  0  0  0  0  0  0  0
   -0.0068    1.3949   -0.0202 C   0  0  0  0  0  0  0  0  0  0  0  0
   -1.1746    0.6876    0.0008 C   0  0  0  0  0  0  0  0  0  0  0  0
   -2.0571    1.1695    0.0160 H   0  0  0  0  0  0  0  0  0  0  0  0
   -1.1853   -0.7029    0.0000 C   0  0  0  0  0  0  0  0  0  0  0  0
   -2.0652   -1.1908   -0.0139 H   0  0  0  0  0  0  0  0  0  0  0  0
    0.0088   -1.4011    0.0197 C   0  0  0  0  0  0  0  0  0  0  0  0
    0.0144   -2.3892    0.0469 H   0  0  0  0  0  0  0  0  0  0  0  0
    1.1853   -0.6783    0.0000 C   0  0  0  0  0  0  0  0  0  0  0  0
    2.0824   -1.1694   -0.0136 H   0  0  0  0  0  0  0  0  0  0  0  0
    1.1725    0.6998   -0.0003 C   0  0  0  0  0  0  0  0  0  0  0  0
    2.0468    1.1995    0.0141 H   0  0  0  0  0  0  0  0  0  0  0  0
  1  5  1  0
  5  8  1  0
  1  2  1  0
  1  3  1  0
  1  4  1  0
  5  6  1  0
  5  7  1  0
  8  9  1  0
  8 10  1  0
  8 11  1  0
 12 16  1  0
 16 17  2  0
 17 19  1  0
 19 21  2  0
 21 23  1  0
 23 25  2  0
 25 16  1  0
 12 13  1  0
 12 14  1  0
 12 15  1  0
 17 18  1  0
 19 20  1  0
 21 22  1  0
 23 24  1  0
 25 26  1  0
M  CHG  1   8   1
M  END
>  <PDB_ID>  (2255) 
pdb4lgv

>  <RESIDUE_NAME>  (2255) 
LYS   PHE

>  <FRAG_NAME>  (2255) 
ETAM   MBZ

>  <FRAG_ATOM_NUM>  (2255) 
fragi: 11  fragj: 15

>  <atom.prop.CHAIN_ID>  (2255) 
A A A A A A A A A A A Z Z Z Z Z Z Z Z Z Z Z Z Z Z Z

>  <atom.prop.IS_HEAVY_ATOM>  (2255) 
1 0 0 0 1 0 0 1 0 0 0 1 0 0 0 1 1 0 1 0 1 0 1 0 1 0

>  <DIFUSE_FUNC_ATOM>  (2255) 
n/a

>  <FINAL_SINGLE_POINT_ENERGY>  (2255) 
0

>  <NONCOV_INTER_ENERGY_QM>  (2255) 
0

>  <FF_Energy>  (2255) 
0.16

>  <QM_Energy>  (2255) 
-5.37

>  <source>  (2255) 
ETAM_MBZ

>  <Index>  (2255) 
23544

$$$$
ETAM-pdb3o13-A-LYS-170:MBZ-pdb3o13-A-PHE-166
     RDKit          3D

 26 25  0  0  0  0  0  0  0  0999 V2000
    4.9520   -1.3207    3.4667 C   0  0  0  0  0  0  0  0  0  0  0  0
    5.5686   -0.5765    3.1847 H   0  0  0  0  0  0  0  0  0  0  0  0
    5.5006   -2.1542    3.5991 H   0  0  0  0  0  0  0  0  0  0  0  0
    4.4921   -1.0505    4.4173 H   0  0  0  0  0  0  0  0  0  0  0  0
    3.9652   -1.5865    2.2924 C   0  0  0  0  0  0  0  0  0  0  0  0
    3.4145   -0.7410    2.1538 H   0  0  0  0  0  0  0  0  0  0  0  0
    4.5185   -1.7132    1.4468 H   0  0  0  0  0  0  0  0  0  0  0  0
    3.0453   -2.7497    2.4559 N   0  0  0  0  0  4  0  0  0  0  0  0
    3.2721   -3.4477    1.7779 H   0  0  0  0  0  0  0  0  0  0  0  0
    3.1512   -3.1266    3.3754 H   0  0  0  0  0  0  0  0  0  0  0  0
    2.1030   -2.4463    2.3232 H   0  0  0  0  0  0  0  0  0  0  0  0
    0.0065    2.9189   -0.0015 C   0  0  0  0  0  0  0  0  0  0  0  0
   -0.7703    3.2186   -0.5287 H   0  0  0  0  0  0  0  0  0  0  0  0
    0.8574    3.2178   -0.3984 H   0  0  0  0  0  0  0  0  0  0  0  0
   -0.0727    3.3477    0.9974 H   0  0  0  0  0  0  0  0  0  0  0  0
    0.0063    1.3991   -0.0065 C   0  0  0  0  0  0  0  0  0  0  0  0
   -1.1818    0.6919    0.0150 C   0  0  0  0  0  0  0  0  0  0  0  0
   -2.0540    1.1794    0.0403 H   0  0  0  0  0  0  0  0  0  0  0  0
   -1.1953   -0.7067    0.0000 C   0  0  0  0  0  0  0  0  0  0  0  0
   -2.0851   -1.1811   -0.0063 H   0  0  0  0  0  0  0  0  0  0  0  0
   -0.0230   -1.3894   -0.0038 C   0  0  0  0  0  0  0  0  0  0  0  0
   -0.0085   -2.3922   -0.0102 H   0  0  0  0  0  0  0  0  0  0  0  0
    1.1953   -0.6927    0.0000 C   0  0  0  0  0  0  0  0  0  0  0  0
    2.0682   -1.2001    0.0075 H   0  0  0  0  0  0  0  0  0  0  0  0
    1.1985    0.6978   -0.0047 C   0  0  0  0  0  0  0  0  0  0  0  0
    2.0667    1.1888   -0.0072 H   0  0  0  0  0  0  0  0  0  0  0  0
  1  5  1  0
  5  8  1  0
  1  2  1  0
  1  3  1  0
  1  4  1  0
  5  6  1  0
  5  7  1  0
  8  9  1  0
  8 10  1  0
  8 11  1  0
 12 16  1  0
 16 17  2  0
 17 19  1  0
 19 21  2  0
 21 23  1  0
 23 25  2  0
 25 16  1  0
 12 13  1  0
 12 14  1  0
 12 15  1  0
 17 18  1  0
 19 20  1  0
 21 22  1  0
 23 24  1  0
 25 26  1  0
M  CHG  1   8   1
M  END
>  <PDB_ID>  (2256) 
pdb3o13

>  <RESIDUE_NAME>  (2256) 
LYS   PHE

>  <FRAG_NAME>  (2256) 
ETAM   MBZ

>  <FRAG_ATOM_NUM>  (2256) 
fragi: 11  fragj: 15

>  <atom.prop.CHAIN_ID>  (2256) 
A A A A A A A A A A A Z Z Z Z Z Z Z Z Z Z Z Z Z Z Z

>  <atom.prop.IS_HEAVY_ATOM>  (2256) 
1 0 0 0 1 0 0 1 0 0 0 1 0 0 0 1 1 0 1 0 1 0 1 0 1 0

>  <DIFUSE_FUNC_ATOM>  (2256) 
n/a

>  <FINAL_SINGLE_POINT_ENERGY>  (2256) 
0

>  <NONCOV_INTER_ENERGY_QM>  (2256) 
0

>  <FF_Energy>  (2256) 
-1.07

>  <QM_Energy>  (2256) 
-6.15

>  <source>  (2256) 
ETAM_MBZ

>  <Index>  (2256) 
23546

$$$$
ETAM-pdb4lnu-K-LYS-131:MBZ-pdb4lnu-K-PHE-172
     RDKit          3D

 26 25  0  0  0  0  0  0  0  0999 V2000
   -0.1234   -2.0471   -4.3172 C   0  0  0  0  0  0  0  0  0  0  0  0
   -0.7424   -2.4503   -5.0042 H   0  0  0  0  0  0  0  0  0  0  0  0
    0.8214   -2.1319   -4.6582 H   0  0  0  0  0  0  0  0  0  0  0  0
   -0.3607   -0.9876   -4.2219 H   0  0  0  0  0  0  0  0  0  0  0  0
   -0.2472   -2.8286   -3.0377 C   0  0  0  0  0  0  0  0  0  0  0  0
    0.0932   -3.7657   -3.1867 H   0  0  0  0  0  0  0  0  0  0  0  0
    0.3250   -2.3970   -2.3273 H   0  0  0  0  0  0  0  0  0  0  0  0
   -1.6500   -2.9004   -2.5454 N   0  0  0  0  0  4  0  0  0  0  0  0
   -1.6484   -2.9623   -1.5475 H   0  0  0  0  0  0  0  0  0  0  0  0
   -2.1434   -2.0794   -2.8298 H   0  0  0  0  0  0  0  0  0  0  0  0
   -2.0953   -3.7090   -2.9299 H   0  0  0  0  0  0  0  0  0  0  0  0
   -0.0005    2.9178   -0.0387 C   0  0  0  0  0  0  0  0  0  0  0  0
    0.7330    3.2362    0.5458 H   0  0  0  0  0  0  0  0  0  0  0  0
   -0.8805    3.2313    0.2895 H   0  0  0  0  0  0  0  0  0  0  0  0
    0.1548    3.3538   -1.0255 H   0  0  0  0  0  0  0  0  0  0  0  0
   -0.0008    1.4087   -0.0086 C   0  0  0  0  0  0  0  0  0  0  0  0
   -1.1939    0.6977   -0.0130 C   0  0  0  0  0  0  0  0  0  0  0  0
   -2.0631    1.1803   -0.0274 H   0  0  0  0  0  0  0  0  0  0  0  0
   -1.1943   -0.7019    0.0000 C   0  0  0  0  0  0  0  0  0  0  0  0
   -2.0748   -1.1905   -0.0054 H   0  0  0  0  0  0  0  0  0  0  0  0
   -0.0004   -1.3936    0.0211 C   0  0  0  0  0  0  0  0  0  0  0  0
   -0.0066   -2.3964    0.0509 H   0  0  0  0  0  0  0  0  0  0  0  0
    1.1943   -0.7062   -0.0000 C   0  0  0  0  0  0  0  0  0  0  0  0
    2.0784   -1.1988   -0.0140 H   0  0  0  0  0  0  0  0  0  0  0  0
    1.1952    0.6953    0.0005 C   0  0  0  0  0  0  0  0  0  0  0  0
    2.0649    1.1836    0.0067 H   0  0  0  0  0  0  0  0  0  0  0  0
  1  5  1  0
  5  8  1  0
  1  2  1  0
  1  3  1  0
  1  4  1  0
  5  6  1  0
  5  7  1  0
  8  9  1  0
  8 10  1  0
  8 11  1  0
 12 16  1  0
 16 17  2  0
 17 19  1  0
 19 21  2  0
 21 23  1  0
 23 25  2  0
 25 16  1  0
 12 13  1  0
 12 14  1  0
 12 15  1  0
 17 18  1  0
 19 20  1  0
 21 22  1  0
 23 24  1  0
 25 26  1  0
M  CHG  1   8   1
M  END
>  <PDB_ID>  (2257) 
pdb4lnu

>  <RESIDUE_NAME>  (2257) 
LYS   PHE

>  <FRAG_NAME>  (2257) 
ETAM   MBZ

>  <FRAG_ATOM_NUM>  (2257) 
fragi: 11  fragj: 15

>  <atom.prop.CHAIN_ID>  (2257) 
A A A A A A A A A A A Z Z Z Z Z Z Z Z Z Z Z Z Z Z Z

>  <atom.prop.IS_HEAVY_ATOM>  (2257) 
1 0 0 0 1 0 0 1 0 0 0 1 0 0 0 1 1 0 1 0 1 0 1 0 1 0

>  <DIFUSE_FUNC_ATOM>  (2257) 
n/a

>  <FINAL_SINGLE_POINT_ENERGY>  (2257) 
0

>  <NONCOV_INTER_ENERGY_QM>  (2257) 
0

>  <FF_Energy>  (2257) 
-1.55

>  <QM_Energy>  (2257) 
-8.59

>  <source>  (2257) 
ETAM_MBZ

>  <Index>  (2257) 
23547

$$$$
ETAM-pdb3o3r-A-LYS-12:MBZ-pdb3o3r-A-PHE-4
     RDKit          3D

 26 25  0  0  0  0  0  0  0  0999 V2000
   -0.3808   -0.7627   -3.5654 C   0  0  0  0  0  0  0  0  0  0  0  0
    0.0242   -0.8070   -4.4723 H   0  0  0  0  0  0  0  0  0  0  0  0
    0.2549   -0.3505   -2.9216 H   0  0  0  0  0  0  0  0  0  0  0  0
   -1.3063   -0.1878   -3.5970 H   0  0  0  0  0  0  0  0  0  0  0  0
   -0.6243   -2.2321   -3.0964 C   0  0  0  0  0  0  0  0  0  0  0  0
    0.2835   -2.6774   -2.9677 H   0  0  0  0  0  0  0  0  0  0  0  0
   -1.0635   -2.2021   -2.1761 H   0  0  0  0  0  0  0  0  0  0  0  0
   -1.4727   -3.1303   -4.0009 N   0  0  0  0  0  4  0  0  0  0  0  0
   -2.3415   -2.6774   -4.1609 H   0  0  0  0  0  0  0  0  0  0  0  0
   -0.9836   -3.2614   -4.8547 H   0  0  0  0  0  0  0  0  0  0  0  0
   -1.6083   -3.9974   -3.5374 H   0  0  0  0  0  0  0  0  0  0  0  0
   -0.0299    2.8868    0.0280 C   0  0  0  0  0  0  0  0  0  0  0  0
   -0.7797    3.2171   -0.5309 H   0  0  0  0  0  0  0  0  0  0  0  0
    0.8386    3.2267   -0.3093 H   0  0  0  0  0  0  0  0  0  0  0  0
   -0.1689    3.3064    1.0244 H   0  0  0  0  0  0  0  0  0  0  0  0
   -0.0181    1.4297    0.0081 C   0  0  0  0  0  0  0  0  0  0  0  0
   -1.2284    0.6950   -0.0206 C   0  0  0  0  0  0  0  0  0  0  0  0
   -2.0967    1.1595   -0.0563 H   0  0  0  0  0  0  0  0  0  0  0  0
   -1.2297   -0.7560    0.0000 C   0  0  0  0  0  0  0  0  0  0  0  0
   -2.0779   -1.2406    0.0138 H   0  0  0  0  0  0  0  0  0  0  0  0
    0.0274   -1.4303    0.0007 C   0  0  0  0  0  0  0  0  0  0  0  0
    0.0483   -2.4196    0.0008 H   0  0  0  0  0  0  0  0  0  0  0  0
    1.2297   -0.6854   -0.0000 C   0  0  0  0  0  0  0  0  0  0  0  0
    2.1222   -1.1612   -0.0073 H   0  0  0  0  0  0  0  0  0  0  0  0
    1.2191    0.7471    0.0118 C   0  0  0  0  0  0  0  0  0  0  0  0
    2.0649    1.2391    0.0210 H   0  0  0  0  0  0  0  0  0  0  0  0
  1  5  1  0
  5  8  1  0
  1  2  1  0
  1  3  1  0
  1  4  1  0
  5  6  1  0
  5  7  1  0
  8  9  1  0
  8 10  1  0
  8 11  1  0
 12 16  1  0
 16 17  2  0
 17 19  1  0
 19 21  2  0
 21 23  1  0
 23 25  2  0
 25 16  1  0
 12 13  1  0
 12 14  1  0
 12 15  1  0
 17 18  1  0
 19 20  1  0
 21 22  1  0
 23 24  1  0
 25 26  1  0
M  CHG  1   8   1
M  END
>  <PDB_ID>  (2258) 
pdb3o3r

>  <RESIDUE_NAME>  (2258) 
LYS   PHE

>  <FRAG_NAME>  (2258) 
ETAM   MBZ

>  <FRAG_ATOM_NUM>  (2258) 
fragi: 11  fragj: 15

>  <atom.prop.CHAIN_ID>  (2258) 
A A A A A A A A A A A Z Z Z Z Z Z Z Z Z Z Z Z Z Z Z

>  <atom.prop.IS_HEAVY_ATOM>  (2258) 
1 0 0 0 1 0 0 1 0 0 0 1 0 0 0 1 1 0 1 0 1 0 1 0 1 0

>  <DIFUSE_FUNC_ATOM>  (2258) 
n/a

>  <FINAL_SINGLE_POINT_ENERGY>  (2258) 
0

>  <NONCOV_INTER_ENERGY_QM>  (2258) 
0

>  <FF_Energy>  (2258) 
-2.08

>  <QM_Energy>  (2258) 
-7.66

>  <source>  (2258) 
ETAM_MBZ

>  <Index>  (2258) 
23564

$$$$
ETAM-pdb3o3r-B-LYS-12:MBZ-pdb3o3r-B-PHE-4
     RDKit          3D

 26 25  0  0  0  0  0  0  0  0999 V2000
   -0.4096   -0.2925   -3.7140 C   0  0  0  0  0  0  0  0  0  0  0  0
   -0.0279   -0.0293   -4.5866 H   0  0  0  0  0  0  0  0  0  0  0  0
    0.1704   -0.0148   -2.9651 H   0  0  0  0  0  0  0  0  0  0  0  0
   -1.3830    0.1846   -3.5997 H   0  0  0  0  0  0  0  0  0  0  0  0
   -0.5603   -1.8105   -3.6814 C   0  0  0  0  0  0  0  0  0  0  0  0
   -1.0760   -2.0673   -2.8976 H   0  0  0  0  0  0  0  0  0  0  0  0
   -0.9386   -2.1163   -4.5234 H   0  0  0  0  0  0  0  0  0  0  0  0
    0.8429   -2.3284   -3.5481 N   0  0  0  0  0  4  0  0  0  0  0  0
    1.4747   -1.6591   -3.9337 H   0  0  0  0  0  0  0  0  0  0  0  0
    1.0462   -2.4707   -2.5818 H   0  0  0  0  0  0  0  0  0  0  0  0
    0.9188   -3.1912   -4.0426 H   0  0  0  0  0  0  0  0  0  0  0  0
   -0.0101    2.9395    0.0377 C   0  0  0  0  0  0  0  0  0  0  0  0
   -0.8071    3.2516   -0.4432 H   0  0  0  0  0  0  0  0  0  0  0  0
    0.8245    3.2630   -0.3653 H   0  0  0  0  0  0  0  0  0  0  0  0
   -0.0608    3.3370    1.0514 H   0  0  0  0  0  0  0  0  0  0  0  0
    0.0018    1.4223   -0.0047 C   0  0  0  0  0  0  0  0  0  0  0  0
   -1.1962    0.7096   -0.0078 C   0  0  0  0  0  0  0  0  0  0  0  0
   -2.0666    1.1861   -0.0165 H   0  0  0  0  0  0  0  0  0  0  0  0
   -1.2107   -0.7184   -0.0000 C   0  0  0  0  0  0  0  0  0  0  0  0
   -2.0933   -1.1874    0.0092 H   0  0  0  0  0  0  0  0  0  0  0  0
   -0.0144   -1.4209   -0.0038 C   0  0  0  0  0  0  0  0  0  0  0  0
   -0.0102   -2.4145   -0.0098 H   0  0  0  0  0  0  0  0  0  0  0  0
    1.2107   -0.7166   -0.0000 C   0  0  0  0  0  0  0  0  0  0  0  0
    2.0849   -1.1998   -0.0074 H   0  0  0  0  0  0  0  0  0  0  0  0
    1.2088    0.7241    0.0163 C   0  0  0  0  0  0  0  0  0  0  0  0
    2.0735    1.1986    0.0418 H   0  0  0  0  0  0  0  0  0  0  0  0
  1  5  1  0
  5  8  1  0
  1  2  1  0
  1  3  1  0
  1  4  1  0
  5  6  1  0
  5  7  1  0
  8  9  1  0
  8 10  1  0
  8 11  1  0
 12 16  1  0
 16 17  2  0
 17 19  1  0
 19 21  2  0
 21 23  1  0
 23 25  2  0
 25 16  1  0
 12 13  1  0
 12 14  1  0
 12 15  1  0
 17 18  1  0
 19 20  1  0
 21 22  1  0
 23 24  1  0
 25 26  1  0
M  CHG  1   8   1
M  END
>  <PDB_ID>  (2259) 
pdb3o3r

>  <RESIDUE_NAME>  (2259) 
LYS   PHE

>  <FRAG_NAME>  (2259) 
ETAM   MBZ

>  <FRAG_ATOM_NUM>  (2259) 
fragi: 11  fragj: 15

>  <atom.prop.CHAIN_ID>  (2259) 
A A A A A A A A A A A Z Z Z Z Z Z Z Z Z Z Z Z Z Z Z

>  <atom.prop.IS_HEAVY_ATOM>  (2259) 
1 0 0 0 1 0 0 1 0 0 0 1 0 0 0 1 1 0 1 0 1 0 1 0 1 0

>  <DIFUSE_FUNC_ATOM>  (2259) 
n/a

>  <FINAL_SINGLE_POINT_ENERGY>  (2259) 
0

>  <NONCOV_INTER_ENERGY_QM>  (2259) 
0

>  <FF_Energy>  (2259) 
-4.96

>  <QM_Energy>  (2259) 
-11.37

>  <source>  (2259) 
ETAM_MBZ

>  <Index>  (2259) 
23565

$$$$
ETAM-pdb4ls5-B-LYS-69:MBZ-pdb4ls5-B-PHE-132
     RDKit          3D

 26 25  0  0  0  0  0  0  0  0999 V2000
    0.2898    0.1496   -3.5819 C   0  0  0  0  0  0  0  0  0  0  0  0
    0.5952    0.2834   -2.6468 H   0  0  0  0  0  0  0  0  0  0  0  0
   -0.0600    0.9976   -3.9615 H   0  0  0  0  0  0  0  0  0  0  0  0
    1.1339   -0.1865   -4.1841 H   0  0  0  0  0  0  0  0  0  0  0  0
   -0.8316   -0.8820   -3.5839 C   0  0  0  0  0  0  0  0  0  0  0  0
   -1.4411   -0.7014   -2.8060 H   0  0  0  0  0  0  0  0  0  0  0  0
   -1.3586   -0.7888   -4.4342 H   0  0  0  0  0  0  0  0  0  0  0  0
   -0.3159   -2.2831   -3.4825 N   0  0  0  0  0  4  0  0  0  0  0  0
   -0.0089   -2.4529   -2.5476 H   0  0  0  0  0  0  0  0  0  0  0  0
   -1.0477   -2.9194   -3.7189 H   0  0  0  0  0  0  0  0  0  0  0  0
    0.4478   -2.3975   -4.1143 H   0  0  0  0  0  0  0  0  0  0  0  0
    0.0049    2.8906   -0.0015 C   0  0  0  0  0  0  0  0  0  0  0  0
   -0.7915    3.2058   -0.4927 H   0  0  0  0  0  0  0  0  0  0  0  0
    0.8402    3.1986   -0.4308 H   0  0  0  0  0  0  0  0  0  0  0  0
   -0.0315    3.3206    0.9994 H   0  0  0  0  0  0  0  0  0  0  0  0
   -0.0015    1.3968   -0.0064 C   0  0  0  0  0  0  0  0  0  0  0  0
   -1.1953    0.6956    0.0009 C   0  0  0  0  0  0  0  0  0  0  0  0
   -2.0627    1.1820    0.0056 H   0  0  0  0  0  0  0  0  0  0  0  0
   -1.1996   -0.6994    0.0000 C   0  0  0  0  0  0  0  0  0  0  0  0
   -2.0758   -1.1908   -0.0046 H   0  0  0  0  0  0  0  0  0  0  0  0
    0.0018   -1.3897    0.0077 C   0  0  0  0  0  0  0  0  0  0  0  0
   -0.0005   -2.3914    0.0183 H   0  0  0  0  0  0  0  0  0  0  0  0
    1.1996   -0.6952   -0.0000 C   0  0  0  0  0  0  0  0  0  0  0  0
    2.0818   -1.1930   -0.0024 H   0  0  0  0  0  0  0  0  0  0  0  0
    1.1951    0.6920   -0.0022 C   0  0  0  0  0  0  0  0  0  0  0  0
    2.0625    1.1900   -0.0012 H   0  0  0  0  0  0  0  0  0  0  0  0
  1  5  1  0
  5  8  1  0
  1  2  1  0
  1  3  1  0
  1  4  1  0
  5  6  1  0
  5  7  1  0
  8  9  1  0
  8 10  1  0
  8 11  1  0
 12 16  1  0
 16 17  2  0
 17 19  1  0
 19 21  2  0
 21 23  1  0
 23 25  2  0
 25 16  1  0
 12 13  1  0
 12 14  1  0
 12 15  1  0
 17 18  1  0
 19 20  1  0
 21 22  1  0
 23 24  1  0
 25 26  1  0
M  CHG  1   8   1
M  END
>  <PDB_ID>  (2260) 
pdb4ls5

>  <RESIDUE_NAME>  (2260) 
LYS   PHE

>  <FRAG_NAME>  (2260) 
ETAM   MBZ

>  <FRAG_ATOM_NUM>  (2260) 
fragi: 11  fragj: 15

>  <atom.prop.CHAIN_ID>  (2260) 
A A A A A A A A A A A Z Z Z Z Z Z Z Z Z Z Z Z Z Z Z

>  <atom.prop.IS_HEAVY_ATOM>  (2260) 
1 0 0 0 1 0 0 1 0 0 0 1 0 0 0 1 1 0 1 0 1 0 1 0 1 0

>  <DIFUSE_FUNC_ATOM>  (2260) 
n/a

>  <FINAL_SINGLE_POINT_ENERGY>  (2260) 
0

>  <NONCOV_INTER_ENERGY_QM>  (2260) 
0

>  <FF_Energy>  (2260) 
-5.29

>  <QM_Energy>  (2260) 
-12.23

>  <source>  (2260) 
ETAM_MBZ

>  <Index>  (2260) 
23603

$$$$
ETAM-pdb3o5n-A-LYS-650:MBZ-pdb3o5n-A-PHE-656
     RDKit          3D

 26 25  0  0  0  0  0  0  0  0999 V2000
    0.6633   -0.5318    3.2808 C   0  0  0  0  0  0  0  0  0  0  0  0
    0.8465    0.3609    3.6542 H   0  0  0  0  0  0  0  0  0  0  0  0
    0.4357   -0.4922    2.3232 H   0  0  0  0  0  0  0  0  0  0  0  0
    1.5466   -1.1573    3.4101 H   0  0  0  0  0  0  0  0  0  0  0  0
   -0.4991   -1.1511    4.0368 C   0  0  0  0  0  0  0  0  0  0  0  0
   -1.3434   -0.7383    3.7274 H   0  0  0  0  0  0  0  0  0  0  0  0
   -0.5026   -2.1283    3.8824 H   0  0  0  0  0  0  0  0  0  0  0  0
   -0.3096   -0.8765    5.4801 N   0  0  0  0  0  4  0  0  0  0  0  0
    0.6680   -0.8095    5.6827 H   0  0  0  0  0  0  0  0  0  0  0  0
   -0.7578   -0.0146    5.7187 H   0  0  0  0  0  0  0  0  0  0  0  0
   -0.7103   -1.6194    6.0175 H   0  0  0  0  0  0  0  0  0  0  0  0
   -0.0075    2.9247   -0.0213 C   0  0  0  0  0  0  0  0  0  0  0  0
   -0.9486    3.2193    0.0374 H   0  0  0  0  0  0  0  0  0  0  0  0
    0.4092    3.2057   -0.8719 H   0  0  0  0  0  0  0  0  0  0  0  0
    0.5469    3.3800    0.7993 H   0  0  0  0  0  0  0  0  0  0  0  0
   -0.0038    1.4050    0.0067 C   0  0  0  0  0  0  0  0  0  0  0  0
   -1.1943    0.6940   -0.0172 C   0  0  0  0  0  0  0  0  0  0  0  0
   -2.0659    1.1847   -0.0491 H   0  0  0  0  0  0  0  0  0  0  0  0
   -1.2110   -0.7015    0.0000 C   0  0  0  0  0  0  0  0  0  0  0  0
   -2.0851   -1.1893    0.0109 H   0  0  0  0  0  0  0  0  0  0  0  0
   -0.0040   -1.4063    0.0033 C   0  0  0  0  0  0  0  0  0  0  0  0
    0.0026   -2.3945    0.0072 H   0  0  0  0  0  0  0  0  0  0  0  0
    1.2110   -0.6857    0.0000 C   0  0  0  0  0  0  0  0  0  0  0  0
    2.0881   -1.1922   -0.0059 H   0  0  0  0  0  0  0  0  0  0  0  0
    1.2022    0.6945    0.0073 C   0  0  0  0  0  0  0  0  0  0  0  0
    2.0648    1.2011    0.0121 H   0  0  0  0  0  0  0  0  0  0  0  0
  1  5  1  0
  5  8  1  0
  1  2  1  0
  1  3  1  0
  1  4  1  0
  5  6  1  0
  5  7  1  0
  8  9  1  0
  8 10  1  0
  8 11  1  0
 12 16  1  0
 16 17  2  0
 17 19  1  0
 19 21  2  0
 21 23  1  0
 23 25  2  0
 25 16  1  0
 12 13  1  0
 12 14  1  0
 12 15  1  0
 17 18  1  0
 19 20  1  0
 21 22  1  0
 23 24  1  0
 25 26  1  0
M  CHG  1   8   1
M  END
>  <PDB_ID>  (2261) 
pdb3o5n

>  <RESIDUE_NAME>  (2261) 
LYS   PHE

>  <FRAG_NAME>  (2261) 
ETAM   MBZ

>  <FRAG_ATOM_NUM>  (2261) 
fragi: 11  fragj: 15

>  <atom.prop.CHAIN_ID>  (2261) 
A A A A A A A A A A A Z Z Z Z Z Z Z Z Z Z Z Z Z Z Z

>  <atom.prop.IS_HEAVY_ATOM>  (2261) 
1 0 0 0 1 0 0 1 0 0 0 1 0 0 0 1 1 0 1 0 1 0 1 0 1 0

>  <DIFUSE_FUNC_ATOM>  (2261) 
n/a

>  <FINAL_SINGLE_POINT_ENERGY>  (2261) 
0

>  <NONCOV_INTER_ENERGY_QM>  (2261) 
0

>  <FF_Energy>  (2261) 
-1.77

>  <QM_Energy>  (2261) 
-6.81

>  <source>  (2261) 
ETAM_MBZ

>  <Index>  (2261) 
23606

$$$$
ETAM-pdb3o0y-A-LYS-571:MBZ-pdb3o0y-A-PHE-578
     RDKit          3D

 26 25  0  0  0  0  0  0  0  0999 V2000
    0.7413   -0.4419   -4.5308 C   0  0  0  0  0  0  0  0  0  0  0  0
    0.0757   -0.9699   -5.0809 H   0  0  0  0  0  0  0  0  0  0  0  0
    1.2317    0.1812   -5.1593 H   0  0  0  0  0  0  0  0  0  0  0  0
    0.1638    0.1837   -3.8502 H   0  0  0  0  0  0  0  0  0  0  0  0
    1.7329   -1.3951   -3.8988 C   0  0  0  0  0  0  0  0  0  0  0  0
    1.2704   -1.9104   -3.1721 H   0  0  0  0  0  0  0  0  0  0  0  0
    2.0553   -2.0406   -4.5976 H   0  0  0  0  0  0  0  0  0  0  0  0
    2.8880   -0.6728   -3.3295 N   0  0  0  0  0  4  0  0  0  0  0  0
    2.6921   -0.4166   -2.3814 H   0  0  0  0  0  0  0  0  0  0  0  0
    3.6988   -1.2611   -3.3516 H   0  0  0  0  0  0  0  0  0  0  0  0
    3.0655    0.1550   -3.8652 H   0  0  0  0  0  0  0  0  0  0  0  0
    0.0695    2.9068    0.0727 C   0  0  0  0  0  0  0  0  0  0  0  0
   -0.7000    3.2517   -0.4396 H   0  0  0  0  0  0  0  0  0  0  0  0
    0.9283    3.1957   -0.3176 H   0  0  0  0  0  0  0  0  0  0  0  0
    0.0080    3.3101    1.0835 H   0  0  0  0  0  0  0  0  0  0  0  0
    0.0213    1.3989    0.0240 C   0  0  0  0  0  0  0  0  0  0  0  0
   -1.1923    0.6913   -0.0023 C   0  0  0  0  0  0  0  0  0  0  0  0
   -2.0514    1.1781   -0.0241 H   0  0  0  0  0  0  0  0  0  0  0  0
   -1.1988   -0.7205   -0.0000 C   0  0  0  0  0  0  0  0  0  0  0  0
   -2.0891   -1.1893    0.0083 H   0  0  0  0  0  0  0  0  0  0  0  0
   -0.0323   -1.3785   -0.0064 C   0  0  0  0  0  0  0  0  0  0  0  0
    0.0020   -2.3889   -0.0162 H   0  0  0  0  0  0  0  0  0  0  0  0
    1.1988   -0.6791    0.0000 C   0  0  0  0  0  0  0  0  0  0  0  0
    2.0623   -1.2034    0.0176 H   0  0  0  0  0  0  0  0  0  0  0  0
    1.2033    0.6879   -0.0153 C   0  0  0  0  0  0  0  0  0  0  0  0
    2.0756    1.1865   -0.0562 H   0  0  0  0  0  0  0  0  0  0  0  0
  1  5  1  0
  5  8  1  0
  1  2  1  0
  1  3  1  0
  1  4  1  0
  5  6  1  0
  5  7  1  0
  8  9  1  0
  8 10  1  0
  8 11  1  0
 12 16  1  0
 16 17  2  0
 17 19  1  0
 19 21  2  0
 21 23  1  0
 23 25  2  0
 25 16  1  0
 12 13  1  0
 12 14  1  0
 12 15  1  0
 17 18  1  0
 19 20  1  0
 21 22  1  0
 23 24  1  0
 25 26  1  0
M  CHG  1   8   1
M  END
>  <PDB_ID>  (2262) 
pdb3o0y

>  <RESIDUE_NAME>  (2262) 
LYS   PHE

>  <FRAG_NAME>  (2262) 
ETAM   MBZ

>  <FRAG_ATOM_NUM>  (2262) 
fragi: 11  fragj: 15

>  <atom.prop.CHAIN_ID>  (2262) 
A A A A A A A A A A A Z Z Z Z Z Z Z Z Z Z Z Z Z Z Z

>  <atom.prop.IS_HEAVY_ATOM>  (2262) 
1 0 0 0 1 0 0 1 0 0 0 1 0 0 0 1 1 0 1 0 1 0 1 0 1 0

>  <DIFUSE_FUNC_ATOM>  (2262) 
n/a

>  <FINAL_SINGLE_POINT_ENERGY>  (2262) 
0

>  <NONCOV_INTER_ENERGY_QM>  (2262) 
0

>  <FF_Energy>  (2262) 
-3.62

>  <QM_Energy>  (2262) 
-9.17

>  <source>  (2262) 
ETAM_MBZ

>  <Index>  (2262) 
23618

$$$$
ETAM-pdb3o7b-A-LYS-58:MBZ-pdb3o7b-A-PHE-177
     RDKit          3D

 26 25  0  0  0  0  0  0  0  0999 V2000
   -0.0413   -2.4845   -3.8217 C   0  0  0  0  0  0  0  0  0  0  0  0
   -0.3867   -2.6887   -2.9134 H   0  0  0  0  0  0  0  0  0  0  0  0
    0.9375   -2.3248   -3.7976 H   0  0  0  0  0  0  0  0  0  0  0  0
   -0.2478   -3.3299   -4.4779 H   0  0  0  0  0  0  0  0  0  0  0  0
   -0.7253   -1.2361   -4.3333 C   0  0  0  0  0  0  0  0  0  0  0  0
   -0.3722   -1.0159   -5.2465 H   0  0  0  0  0  0  0  0  0  0  0  0
   -1.7128   -1.4033   -4.3989 H   0  0  0  0  0  0  0  0  0  0  0  0
   -0.4927   -0.0652   -3.4309 N   0  0  0  0  0  4  0  0  0  0  0  0
   -0.1142    0.6890   -3.9646 H   0  0  0  0  0  0  0  0  0  0  0  0
   -1.3611    0.2112   -3.0229 H   0  0  0  0  0  0  0  0  0  0  0  0
    0.1495   -0.3276   -2.7126 H   0  0  0  0  0  0  0  0  0  0  0  0
    0.0232    2.9231    0.0169 C   0  0  0  0  0  0  0  0  0  0  0  0
    0.9589    3.2132   -0.1332 H   0  0  0  0  0  0  0  0  0  0  0  0
   -0.2994    3.2137    0.9075 H   0  0  0  0  0  0  0  0  0  0  0  0
   -0.6026    3.3953   -0.7402 H   0  0  0  0  0  0  0  0  0  0  0  0
    0.0007    1.4124   -0.0086 C   0  0  0  0  0  0  0  0  0  0  0  0
   -1.2068    0.6991    0.0065 C   0  0  0  0  0  0  0  0  0  0  0  0
   -2.0694    1.1886    0.0211 H   0  0  0  0  0  0  0  0  0  0  0  0
   -1.2117   -0.7022   -0.0000 C   0  0  0  0  0  0  0  0  0  0  0  0
   -2.0851   -1.1950   -0.0023 H   0  0  0  0  0  0  0  0  0  0  0  0
    0.0001   -1.4055   -0.0012 C   0  0  0  0  0  0  0  0  0  0  0  0
   -0.0027   -2.3987   -0.0032 H   0  0  0  0  0  0  0  0  0  0  0  0
    1.2117   -0.7001    0.0000 C   0  0  0  0  0  0  0  0  0  0  0  0
    2.0889   -1.1982   -0.0003 H   0  0  0  0  0  0  0  0  0  0  0  0
    1.2059    0.6963    0.0033 C   0  0  0  0  0  0  0  0  0  0  0  0
    2.0718    1.1936    0.0134 H   0  0  0  0  0  0  0  0  0  0  0  0
  1  5  1  0
  5  8  1  0
  1  2  1  0
  1  3  1  0
  1  4  1  0
  5  6  1  0
  5  7  1  0
  8  9  1  0
  8 10  1  0
  8 11  1  0
 12 16  1  0
 16 17  2  0
 17 19  1  0
 19 21  2  0
 21 23  1  0
 23 25  2  0
 25 16  1  0
 12 13  1  0
 12 14  1  0
 12 15  1  0
 17 18  1  0
 19 20  1  0
 21 22  1  0
 23 24  1  0
 25 26  1  0
M  CHG  1   8   1
M  END
>  <PDB_ID>  (2263) 
pdb3o7b

>  <RESIDUE_NAME>  (2263) 
LYS   PHE

>  <FRAG_NAME>  (2263) 
ETAM   MBZ

>  <FRAG_ATOM_NUM>  (2263) 
fragi: 11  fragj: 15

>  <atom.prop.CHAIN_ID>  (2263) 
A A A A A A A A A A A Z Z Z Z Z Z Z Z Z Z Z Z Z Z Z

>  <atom.prop.IS_HEAVY_ATOM>  (2263) 
1 0 0 0 1 0 0 1 0 0 0 1 0 0 0 1 1 0 1 0 1 0 1 0 1 0

>  <DIFUSE_FUNC_ATOM>  (2263) 
n/a

>  <FINAL_SINGLE_POINT_ENERGY>  (2263) 
0

>  <NONCOV_INTER_ENERGY_QM>  (2263) 
0

>  <FF_Energy>  (2263) 
-8.43

>  <QM_Energy>  (2263) 
-15.2

>  <source>  (2263) 
ETAM_MBZ

>  <Index>  (2263) 
23627

$$$$
ETAM-pdb3o7m-B-LYS-111:MBZ-pdb3o7m-B-PHE-115
     RDKit          3D

 26 25  0  0  0  0  0  0  0  0999 V2000
    4.4953   -1.8284   -2.1304 C   0  0  0  0  0  0  0  0  0  0  0  0
    4.3038   -2.5327   -2.7999 H   0  0  0  0  0  0  0  0  0  0  0  0
    5.4677   -1.6446   -2.0777 H   0  0  0  0  0  0  0  0  0  0  0  0
    3.9846   -0.9142   -2.4330 H   0  0  0  0  0  0  0  0  0  0  0  0
    4.0131   -2.3138   -0.7573 C   0  0  0  0  0  0  0  0  0  0  0  0
    4.0885   -1.5612   -0.1007 H   0  0  0  0  0  0  0  0  0  0  0  0
    3.0540   -2.5927   -0.8285 H   0  0  0  0  0  0  0  0  0  0  0  0
    4.8217   -3.4884   -0.2430 N   0  0  0  0  0  4  0  0  0  0  0  0
    4.8247   -3.4610    0.7512 H   0  0  0  0  0  0  0  0  0  0  0  0
    4.3984   -4.3304   -0.5638 H   0  0  0  0  0  0  0  0  0  0  0  0
    5.7501   -3.4133   -0.5940 H   0  0  0  0  0  0  0  0  0  0  0  0
   -0.0186    2.9136    0.0287 C   0  0  0  0  0  0  0  0  0  0  0  0
    0.8898    3.2365   -0.1819 H   0  0  0  0  0  0  0  0  0  0  0  0
   -0.3057    3.1928    0.9303 H   0  0  0  0  0  0  0  0  0  0  0  0
   -0.7045    3.3615   -0.6904 H   0  0  0  0  0  0  0  0  0  0  0  0
   -0.0005    1.4066   -0.0116 C   0  0  0  0  0  0  0  0  0  0  0  0
   -1.1937    0.6861    0.0069 C   0  0  0  0  0  0  0  0  0  0  0  0
   -2.0640    1.1722    0.0238 H   0  0  0  0  0  0  0  0  0  0  0  0
   -1.1948   -0.7083    0.0000 C   0  0  0  0  0  0  0  0  0  0  0  0
   -2.0741   -1.1995   -0.0035 H   0  0  0  0  0  0  0  0  0  0  0  0
   -0.0003   -1.3956    0.0004 C   0  0  0  0  0  0  0  0  0  0  0  0
    0.0039   -2.3953    0.0006 H   0  0  0  0  0  0  0  0  0  0  0  0
    1.1948   -0.6932   -0.0000 C   0  0  0  0  0  0  0  0  0  0  0  0
    2.0811   -1.1873   -0.0014 H   0  0  0  0  0  0  0  0  0  0  0  0
    1.1944    0.7044    0.0043 C   0  0  0  0  0  0  0  0  0  0  0  0
    2.0622    1.1953    0.0178 H   0  0  0  0  0  0  0  0  0  0  0  0
  1  5  1  0
  5  8  1  0
  1  2  1  0
  1  3  1  0
  1  4  1  0
  5  6  1  0
  5  7  1  0
  8  9  1  0
  8 10  1  0
  8 11  1  0
 12 16  1  0
 16 17  2  0
 17 19  1  0
 19 21  2  0
 21 23  1  0
 23 25  2  0
 25 16  1  0
 12 13  1  0
 12 14  1  0
 12 15  1  0
 17 18  1  0
 19 20  1  0
 21 22  1  0
 23 24  1  0
 25 26  1  0
M  CHG  1   8   1
M  END
>  <PDB_ID>  (2264) 
pdb3o7m

>  <RESIDUE_NAME>  (2264) 
LYS   PHE

>  <FRAG_NAME>  (2264) 
ETAM   MBZ

>  <FRAG_ATOM_NUM>  (2264) 
fragi: 11  fragj: 15

>  <atom.prop.CHAIN_ID>  (2264) 
A A A A A A A A A A A Z Z Z Z Z Z Z Z Z Z Z Z Z Z Z

>  <atom.prop.IS_HEAVY_ATOM>  (2264) 
1 0 0 0 1 0 0 1 0 0 0 1 0 0 0 1 1 0 1 0 1 0 1 0 1 0

>  <DIFUSE_FUNC_ATOM>  (2264) 
n/a

>  <FINAL_SINGLE_POINT_ENERGY>  (2264) 
0

>  <NONCOV_INTER_ENERGY_QM>  (2264) 
0

>  <FF_Energy>  (2264) 
5.15

>  <QM_Energy>  (2264) 
-0.38

>  <source>  (2264) 
ETAM_MBZ

>  <Index>  (2264) 
23630

$$$$
ETAM-pdb3o7m-D-LYS-111:MBZ-pdb3o7m-D-PHE-115
     RDKit          3D

 26 25  0  0  0  0  0  0  0  0999 V2000
    5.0419   -1.3629   -0.7119 C   0  0  0  0  0  0  0  0  0  0  0  0
    5.0014   -2.1306   -1.3210 H   0  0  0  0  0  0  0  0  0  0  0  0
    5.9589   -1.1143   -0.4720 H   0  0  0  0  0  0  0  0  0  0  0  0
    4.5627   -0.5101   -1.1928 H   0  0  0  0  0  0  0  0  0  0  0  0
    4.2751   -1.7266    0.5894 C   0  0  0  0  0  0  0  0  0  0  0  0
    4.0857   -0.8551    1.0953 H   0  0  0  0  0  0  0  0  0  0  0  0
    3.3558   -2.0917    0.3194 H   0  0  0  0  0  0  0  0  0  0  0  0
    4.9170   -2.7032    1.5420 N   0  0  0  0  0  4  0  0  0  0  0  0
    5.8281   -2.9288    1.2062 H   0  0  0  0  0  0  0  0  0  0  0  0
    4.9783   -2.2816    2.4427 H   0  0  0  0  0  0  0  0  0  0  0  0
    4.3553   -3.5254    1.5866 H   0  0  0  0  0  0  0  0  0  0  0  0
   -0.0272    2.9267    0.0032 C   0  0  0  0  0  0  0  0  0  0  0  0
    0.9004    3.2398   -0.0712 H   0  0  0  0  0  0  0  0  0  0  0  0
   -0.4551    3.2168    0.8382 H   0  0  0  0  0  0  0  0  0  0  0  0
   -0.5908    3.3550   -0.8258 H   0  0  0  0  0  0  0  0  0  0  0  0
   -0.0062    1.4005   -0.0044 C   0  0  0  0  0  0  0  0  0  0  0  0
   -1.1934    0.6868    0.0147 C   0  0  0  0  0  0  0  0  0  0  0  0
   -2.0652    1.1741    0.0384 H   0  0  0  0  0  0  0  0  0  0  0  0
   -1.1933   -0.6977    0.0000 C   0  0  0  0  0  0  0  0  0  0  0  0
   -2.0656   -1.1990   -0.0086 H   0  0  0  0  0  0  0  0  0  0  0  0
    0.0156   -1.3924   -0.0011 C   0  0  0  0  0  0  0  0  0  0  0  0
    0.0069   -2.3904   -0.0028 H   0  0  0  0  0  0  0  0  0  0  0  0
    1.1933   -0.6937   -0.0000 C   0  0  0  0  0  0  0  0  0  0  0  0
    2.0878   -1.1806    0.0087 H   0  0  0  0  0  0  0  0  0  0  0  0
    1.1840    0.6965   -0.0091 C   0  0  0  0  0  0  0  0  0  0  0  0
    2.0550    1.1926   -0.0207 H   0  0  0  0  0  0  0  0  0  0  0  0
  1  5  1  0
  5  8  1  0
  1  2  1  0
  1  3  1  0
  1  4  1  0
  5  6  1  0
  5  7  1  0
  8  9  1  0
  8 10  1  0
  8 11  1  0
 12 16  1  0
 16 17  2  0
 17 19  1  0
 19 21  2  0
 21 23  1  0
 23 25  2  0
 25 16  1  0
 12 13  1  0
 12 14  1  0
 12 15  1  0
 17 18  1  0
 19 20  1  0
 21 22  1  0
 23 24  1  0
 25 26  1  0
M  CHG  1   8   1
M  END
>  <PDB_ID>  (2265) 
pdb3o7m

>  <RESIDUE_NAME>  (2265) 
LYS   PHE

>  <FRAG_NAME>  (2265) 
ETAM   MBZ

>  <FRAG_ATOM_NUM>  (2265) 
fragi: 11  fragj: 15

>  <atom.prop.CHAIN_ID>  (2265) 
A A A A A A A A A A A Z Z Z Z Z Z Z Z Z Z Z Z Z Z Z

>  <atom.prop.IS_HEAVY_ATOM>  (2265) 
1 0 0 0 1 0 0 1 0 0 0 1 0 0 0 1 1 0 1 0 1 0 1 0 1 0

>  <DIFUSE_FUNC_ATOM>  (2265) 
n/a

>  <FINAL_SINGLE_POINT_ENERGY>  (2265) 
0

>  <NONCOV_INTER_ENERGY_QM>  (2265) 
0

>  <FF_Energy>  (2265) 
20.21

>  <QM_Energy>  (2265) 
1.32

>  <source>  (2265) 
ETAM_MBZ

>  <Index>  (2265) 
23634

$$$$
ETAM-pdb4lvn-A-LYS-541:MBZ-pdb4lvn-A-PHE-575
     RDKit          3D

 26 25  0  0  0  0  0  0  0  0999 V2000
   -0.2533   -1.9527   -4.7555 C   0  0  0  0  0  0  0  0  0  0  0  0
   -0.8825   -1.4848   -5.3665 H   0  0  0  0  0  0  0  0  0  0  0  0
    0.3160   -2.5895   -5.2644 H   0  0  0  0  0  0  0  0  0  0  0  0
    0.3850   -1.2146   -4.2698 H   0  0  0  0  0  0  0  0  0  0  0  0
   -1.0686   -2.7427   -3.7365 C   0  0  0  0  0  0  0  0  0  0  0  0
   -1.5651   -3.4723   -4.2157 H   0  0  0  0  0  0  0  0  0  0  0  0
   -0.4400   -3.1629   -3.0752 H   0  0  0  0  0  0  0  0  0  0  0  0
   -2.0449   -1.8850   -3.0056 N   0  0  0  0  0  4  0  0  0  0  0  0
   -2.8591   -2.4225   -2.7897 H   0  0  0  0  0  0  0  0  0  0  0  0
   -1.6264   -1.5542   -2.1605 H   0  0  0  0  0  0  0  0  0  0  0  0
   -2.2977   -1.1082   -3.5812 H   0  0  0  0  0  0  0  0  0  0  0  0
   -0.0014    2.9071    0.0050 C   0  0  0  0  0  0  0  0  0  0  0  0
   -0.7595    3.2127   -0.5500 H   0  0  0  0  0  0  0  0  0  0  0  0
    0.8629    3.2142   -0.3642 H   0  0  0  0  0  0  0  0  0  0  0  0
   -0.1154    3.3466    0.9960 H   0  0  0  0  0  0  0  0  0  0  0  0
    0.0001    1.4002    0.0018 C   0  0  0  0  0  0  0  0  0  0  0  0
   -1.1936    0.6917   -0.0008 C   0  0  0  0  0  0  0  0  0  0  0  0
   -2.0612    1.1820   -0.0045 H   0  0  0  0  0  0  0  0  0  0  0  0
   -1.1975   -0.6966   -0.0000 C   0  0  0  0  0  0  0  0  0  0  0  0
   -2.0759   -1.1905    0.0038 H   0  0  0  0  0  0  0  0  0  0  0  0
   -0.0009   -1.3900   -0.0021 C   0  0  0  0  0  0  0  0  0  0  0  0
   -0.0045   -2.3904   -0.0056 H   0  0  0  0  0  0  0  0  0  0  0  0
    1.1975   -0.6968    0.0000 C   0  0  0  0  0  0  0  0  0  0  0  0
    2.0789   -1.1952    0.0021 H   0  0  0  0  0  0  0  0  0  0  0  0
    1.1944    0.6916    0.0011 C   0  0  0  0  0  0  0  0  0  0  0  0
    2.0639    1.1881    0.0008 H   0  0  0  0  0  0  0  0  0  0  0  0
  1  5  1  0
  5  8  1  0
  1  2  1  0
  1  3  1  0
  1  4  1  0
  5  6  1  0
  5  7  1  0
  8  9  1  0
  8 10  1  0
  8 11  1  0
 12 16  1  0
 16 17  2  0
 17 19  1  0
 19 21  2  0
 21 23  1  0
 23 25  2  0
 25 16  1  0
 12 13  1  0
 12 14  1  0
 12 15  1  0
 17 18  1  0
 19 20  1  0
 21 22  1  0
 23 24  1  0
 25 26  1  0
M  CHG  1   8   1
M  END
>  <PDB_ID>  (2266) 
pdb4lvn

>  <RESIDUE_NAME>  (2266) 
LYS   PHE

>  <FRAG_NAME>  (2266) 
ETAM   MBZ

>  <FRAG_ATOM_NUM>  (2266) 
fragi: 11  fragj: 15

>  <atom.prop.CHAIN_ID>  (2266) 
A A A A A A A A A A A Z Z Z Z Z Z Z Z Z Z Z Z Z Z Z

>  <atom.prop.IS_HEAVY_ATOM>  (2266) 
1 0 0 0 1 0 0 1 0 0 0 1 0 0 0 1 1 0 1 0 1 0 1 0 1 0

>  <DIFUSE_FUNC_ATOM>  (2266) 
n/a

>  <FINAL_SINGLE_POINT_ENERGY>  (2266) 
0

>  <NONCOV_INTER_ENERGY_QM>  (2266) 
0

>  <FF_Energy>  (2266) 
-3.85

>  <QM_Energy>  (2266) 
-11.26

>  <source>  (2266) 
ETAM_MBZ

>  <Index>  (2266) 
23654

$$$$
ETAM-pdb3o0k-D-LYS-133:MBZ-pdb3o0k-D-PHE-136
     RDKit          3D

 26 25  0  0  0  0  0  0  0  0999 V2000
    2.8333   -2.1319    2.1777 C   0  0  0  0  0  0  0  0  0  0  0  0
    2.1148   -1.9919    1.4968 H   0  0  0  0  0  0  0  0  0  0  0  0
    3.2590   -1.2552    2.4009 H   0  0  0  0  0  0  0  0  0  0  0  0
    2.3814   -2.5413    3.0813 H   0  0  0  0  0  0  0  0  0  0  0  0
    3.8852   -3.0470    1.5930 C   0  0  0  0  0  0  0  0  0  0  0  0
    4.6091   -3.1894    2.2677 H   0  0  0  0  0  0  0  0  0  0  0  0
    3.4660   -3.9253    1.3640 H   0  0  0  0  0  0  0  0  0  0  0  0
    4.4720   -2.4512    0.3658 N   0  0  0  0  0  4  0  0  0  0  0  0
    4.2004   -2.9916   -0.4307 H   0  0  0  0  0  0  0  0  0  0  0  0
    4.1412   -1.5127    0.2600 H   0  0  0  0  0  0  0  0  0  0  0  0
    5.4693   -2.4457    0.4411 H   0  0  0  0  0  0  0  0  0  0  0  0
    0.0376    2.9211   -0.0435 C   0  0  0  0  0  0  0  0  0  0  0  0
   -0.3152    3.2050   -0.9309 H   0  0  0  0  0  0  0  0  0  0  0  0
    0.9862    3.2101    0.0562 H   0  0  0  0  0  0  0  0  0  0  0  0
   -0.5362    3.4609    0.7098 H   0  0  0  0  0  0  0  0  0  0  0  0
   -0.0038    1.4073    0.0186 C   0  0  0  0  0  0  0  0  0  0  0  0
   -1.2004    0.7047   -0.0058 C   0  0  0  0  0  0  0  0  0  0  0  0
   -2.0662    1.1933   -0.0288 H   0  0  0  0  0  0  0  0  0  0  0  0
   -1.2044   -0.6889    0.0000 C   0  0  0  0  0  0  0  0  0  0  0  0
   -2.0761   -1.1866    0.0126 H   0  0  0  0  0  0  0  0  0  0  0  0
    0.0103   -1.3980   -0.0109 C   0  0  0  0  0  0  0  0  0  0  0  0
   -0.0077   -2.3939   -0.0275 H   0  0  0  0  0  0  0  0  0  0  0  0
    1.2044   -0.7061    0.0000 C   0  0  0  0  0  0  0  0  0  0  0  0
    2.0877   -1.2001    0.0113 H   0  0  0  0  0  0  0  0  0  0  0  0
    1.1939    0.6810   -0.0019 C   0  0  0  0  0  0  0  0  0  0  0  0
    2.0644    1.1832   -0.0190 H   0  0  0  0  0  0  0  0  0  0  0  0
  1  5  1  0
  5  8  1  0
  1  2  1  0
  1  3  1  0
  1  4  1  0
  5  6  1  0
  5  7  1  0
  8  9  1  0
  8 10  1  0
  8 11  1  0
 12 16  1  0
 16 17  2  0
 17 19  1  0
 19 21  2  0
 21 23  1  0
 23 25  2  0
 25 16  1  0
 12 13  1  0
 12 14  1  0
 12 15  1  0
 17 18  1  0
 19 20  1  0
 21 22  1  0
 23 24  1  0
 25 26  1  0
M  CHG  1   8   1
M  END
>  <PDB_ID>  (2267) 
pdb3o0k

>  <RESIDUE_NAME>  (2267) 
LYS   PHE

>  <FRAG_NAME>  (2267) 
ETAM   MBZ

>  <FRAG_ATOM_NUM>  (2267) 
fragi: 11  fragj: 15

>  <atom.prop.CHAIN_ID>  (2267) 
A A A A A A A A A A A Z Z Z Z Z Z Z Z Z Z Z Z Z Z Z

>  <atom.prop.IS_HEAVY_ATOM>  (2267) 
1 0 0 0 1 0 0 1 0 0 0 1 0 0 0 1 1 0 1 0 1 0 1 0 1 0

>  <DIFUSE_FUNC_ATOM>  (2267) 
n/a

>  <FINAL_SINGLE_POINT_ENERGY>  (2267) 
0

>  <NONCOV_INTER_ENERGY_QM>  (2267) 
0

>  <FF_Energy>  (2267) 
16.33

>  <QM_Energy>  (2267) 
2.28

>  <source>  (2267) 
ETAM_MBZ

>  <Index>  (2267) 
23667

$$$$
ETAM-pdb3o8j-G-LYS-366:MBZ-pdb3o8j-G-PHE-207
     RDKit          3D

 26 25  0  0  0  0  0  0  0  0999 V2000
   -4.3615   -3.6150    3.4013 C   0  0  0  0  0  0  0  0  0  0  0  0
   -4.7628   -3.3770    4.2803 H   0  0  0  0  0  0  0  0  0  0  0  0
   -3.7070   -4.3561    3.5105 H   0  0  0  0  0  0  0  0  0  0  0  0
   -5.1568   -3.9466    2.7338 H   0  0  0  0  0  0  0  0  0  0  0  0
   -3.6263   -2.3943    2.8552 C   0  0  0  0  0  0  0  0  0  0  0  0
   -4.2984   -1.7390    2.5196 H   0  0  0  0  0  0  0  0  0  0  0  0
   -3.0915   -1.9865    3.5905 H   0  0  0  0  0  0  0  0  0  0  0  0
   -2.7261   -2.7951    1.7498 N   0  0  0  0  0  4  0  0  0  0  0  0
   -2.5701   -2.0130    1.1439 H   0  0  0  0  0  0  0  0  0  0  0  0
   -1.8510   -3.1038    2.1248 H   0  0  0  0  0  0  0  0  0  0  0  0
   -3.1460   -3.5389    1.2290 H   0  0  0  0  0  0  0  0  0  0  0  0
    0.0105    2.8898   -0.0138 C   0  0  0  0  0  0  0  0  0  0  0  0
   -0.5177    3.1977   -0.7928 H   0  0  0  0  0  0  0  0  0  0  0  0
    0.9502    3.1964   -0.0791 H   0  0  0  0  0  0  0  0  0  0  0  0
   -0.4217    3.3465    0.8765 H   0  0  0  0  0  0  0  0  0  0  0  0
    0.0004    1.4029    0.0034 C   0  0  0  0  0  0  0  0  0  0  0  0
   -1.1979    0.6982   -0.0090 C   0  0  0  0  0  0  0  0  0  0  0  0
   -2.0630    1.1880   -0.0259 H   0  0  0  0  0  0  0  0  0  0  0  0
   -1.2004   -0.6933    0.0000 C   0  0  0  0  0  0  0  0  0  0  0  0
   -2.0770   -1.1879    0.0115 H   0  0  0  0  0  0  0  0  0  0  0  0
    0.0016   -1.3931   -0.0046 C   0  0  0  0  0  0  0  0  0  0  0  0
   -0.0092   -2.3937   -0.0119 H   0  0  0  0  0  0  0  0  0  0  0  0
    1.2004   -0.7055    0.0000 C   0  0  0  0  0  0  0  0  0  0  0  0
    2.0823   -1.1998   -0.0021 H   0  0  0  0  0  0  0  0  0  0  0  0
    1.1959    0.6908    0.0102 C   0  0  0  0  0  0  0  0  0  0  0  0
    2.0661    1.1843    0.0217 H   0  0  0  0  0  0  0  0  0  0  0  0
  1  5  1  0
  5  8  1  0
  1  2  1  0
  1  3  1  0
  1  4  1  0
  5  6  1  0
  5  7  1  0
  8  9  1  0
  8 10  1  0
  8 11  1  0
 12 16  1  0
 16 17  2  0
 17 19  1  0
 19 21  2  0
 21 23  1  0
 23 25  2  0
 25 16  1  0
 12 13  1  0
 12 14  1  0
 12 15  1  0
 17 18  1  0
 19 20  1  0
 21 22  1  0
 23 24  1  0
 25 26  1  0
M  CHG  1   8   1
M  END
>  <PDB_ID>  (2268) 
pdb3o8j

>  <RESIDUE_NAME>  (2268) 
LYS   PHE

>  <FRAG_NAME>  (2268) 
ETAM   MBZ

>  <FRAG_ATOM_NUM>  (2268) 
fragi: 11  fragj: 15

>  <atom.prop.CHAIN_ID>  (2268) 
A A A A A A A A A A A Z Z Z Z Z Z Z Z Z Z Z Z Z Z Z

>  <atom.prop.IS_HEAVY_ATOM>  (2268) 
1 0 0 0 1 0 0 1 0 0 0 1 0 0 0 1 1 0 1 0 1 0 1 0 1 0

>  <DIFUSE_FUNC_ATOM>  (2268) 
n/a

>  <FINAL_SINGLE_POINT_ENERGY>  (2268) 
0

>  <NONCOV_INTER_ENERGY_QM>  (2268) 
0

>  <FF_Energy>  (2268) 
2.35

>  <QM_Energy>  (2268) 
-4.09

>  <source>  (2268) 
ETAM_MBZ

>  <Index>  (2268) 
23670

$$$$
ETAM-pdb3o9n-A-LYS-145:MBZ-pdb3o9n-A-PHE-142
     RDKit          3D

 26 25  0  0  0  0  0  0  0  0999 V2000
    4.4674    2.2911   -0.2350 C   0  0  0  0  0  0  0  0  0  0  0  0
    3.5288    2.4782   -0.4334 H   0  0  0  0  0  0  0  0  0  0  0  0
    4.8312    1.5479   -0.7556 H   0  0  0  0  0  0  0  0  0  0  0  0
    5.0598    3.1870   -0.4207 H   0  0  0  0  0  0  0  0  0  0  0  0
    4.5927    1.9487    1.2554 C   0  0  0  0  0  0  0  0  0  0  0  0
    5.5743    2.0773    1.5274 H   0  0  0  0  0  0  0  0  0  0  0  0
    4.0698    2.6553    1.7872 H   0  0  0  0  0  0  0  0  0  0  0  0
    4.1484    0.5995    1.6865 N   0  0  0  0  0  4  0  0  0  0  0  0
    4.9391   -0.0108    1.7422 H   0  0  0  0  0  0  0  0  0  0  0  0
    3.7119    0.6633    2.5842 H   0  0  0  0  0  0  0  0  0  0  0  0
    3.4937    0.2367    1.0237 H   0  0  0  0  0  0  0  0  0  0  0  0
   -0.0060    2.9113   -0.0409 C   0  0  0  0  0  0  0  0  0  0  0  0
   -0.7798    3.2258    0.4891 H   0  0  0  0  0  0  0  0  0  0  0  0
   -0.0822    3.1893   -0.9872 H   0  0  0  0  0  0  0  0  0  0  0  0
    0.8917    3.3716    0.3717 H   0  0  0  0  0  0  0  0  0  0  0  0
    0.0024    1.4041    0.0001 C   0  0  0  0  0  0  0  0  0  0  0  0
   -1.1944    0.6907    0.0011 C   0  0  0  0  0  0  0  0  0  0  0  0
   -2.0616    1.1806    0.0014 H   0  0  0  0  0  0  0  0  0  0  0  0
   -1.2001   -0.7018   -0.0000 C   0  0  0  0  0  0  0  0  0  0  0  0
   -2.0795   -1.1921    0.0020 H   0  0  0  0  0  0  0  0  0  0  0  0
   -0.0041   -1.3954   -0.0022 C   0  0  0  0  0  0  0  0  0  0  0  0
   -0.0024   -2.3941   -0.0057 H   0  0  0  0  0  0  0  0  0  0  0  0
    1.2001   -0.6951    0.0000 C   0  0  0  0  0  0  0  0  0  0  0  0
    2.0804   -1.1931    0.0019 H   0  0  0  0  0  0  0  0  0  0  0  0
    1.1961    0.6975    0.0011 C   0  0  0  0  0  0  0  0  0  0  0  0
    2.0658    1.1918    0.0020 H   0  0  0  0  0  0  0  0  0  0  0  0
  1  5  1  0
  5  8  1  0
  1  2  1  0
  1  3  1  0
  1  4  1  0
  5  6  1  0
  5  7  1  0
  8  9  1  0
  8 10  1  0
  8 11  1  0
 12 16  1  0
 16 17  2  0
 17 19  1  0
 19 21  2  0
 21 23  1  0
 23 25  2  0
 25 16  1  0
 12 13  1  0
 12 14  1  0
 12 15  1  0
 17 18  1  0
 19 20  1  0
 21 22  1  0
 23 24  1  0
 25 26  1  0
M  CHG  1   8   1
M  END
>  <PDB_ID>  (2269) 
pdb3o9n

>  <RESIDUE_NAME>  (2269) 
LYS   PHE

>  <FRAG_NAME>  (2269) 
ETAM   MBZ

>  <FRAG_ATOM_NUM>  (2269) 
fragi: 11  fragj: 15

>  <atom.prop.CHAIN_ID>  (2269) 
A A A A A A A A A A A Z Z Z Z Z Z Z Z Z Z Z Z Z Z Z

>  <atom.prop.IS_HEAVY_ATOM>  (2269) 
1 0 0 0 1 0 0 1 0 0 0 1 0 0 0 1 1 0 1 0 1 0 1 0 1 0

>  <DIFUSE_FUNC_ATOM>  (2269) 
n/a

>  <FINAL_SINGLE_POINT_ENERGY>  (2269) 
0

>  <NONCOV_INTER_ENERGY_QM>  (2269) 
0

>  <FF_Energy>  (2269) 
0.8

>  <QM_Energy>  (2269) 
-5.28

>  <source>  (2269) 
ETAM_MBZ

>  <Index>  (2269) 
23672

$$$$
ETAM-pdb3o9z-A-LYS-22:MBZ-pdb3o9z-A-PHE-45
     RDKit          3D

 26 25  0  0  0  0  0  0  0  0999 V2000
    0.4073   -3.4109   -4.6517 C   0  0  0  0  0  0  0  0  0  0  0  0
    1.0697   -2.7156   -4.8998 H   0  0  0  0  0  0  0  0  0  0  0  0
   -0.1556   -3.6561   -5.4310 H   0  0  0  0  0  0  0  0  0  0  0  0
    0.9328   -4.2963   -4.2937 H   0  0  0  0  0  0  0  0  0  0  0  0
   -0.4950   -2.8506   -3.5630 C   0  0  0  0  0  0  0  0  0  0  0  0
   -1.4274   -3.1623   -3.7225 H   0  0  0  0  0  0  0  0  0  0  0  0
   -0.1734   -3.1730   -2.6771 H   0  0  0  0  0  0  0  0  0  0  0  0
   -0.4585   -1.3656   -3.5904 N   0  0  0  0  0  4  0  0  0  0  0  0
    0.4609   -1.0597   -3.8367 H   0  0  0  0  0  0  0  0  0  0  0  0
   -1.1141   -1.0289   -4.2658 H   0  0  0  0  0  0  0  0  0  0  0  0
   -0.6967   -1.0101   -2.6867 H   0  0  0  0  0  0  0  0  0  0  0  0
    0.0055    2.8982   -0.0345 C   0  0  0  0  0  0  0  0  0  0  0  0
    0.8911    3.2150    0.2550 H   0  0  0  0  0  0  0  0  0  0  0  0
   -0.7152    3.2284    0.5499 H   0  0  0  0  0  0  0  0  0  0  0  0
   -0.1742    3.2998   -1.0317 H   0  0  0  0  0  0  0  0  0  0  0  0
    0.0017    1.3943    0.0110 C   0  0  0  0  0  0  0  0  0  0  0  0
   -1.2048    0.7153   -0.0068 C   0  0  0  0  0  0  0  0  0  0  0  0
   -2.0624    1.1986   -0.0249 H   0  0  0  0  0  0  0  0  0  0  0  0
   -1.2085   -0.6943   -0.0000 C   0  0  0  0  0  0  0  0  0  0  0  0
   -2.0832   -1.1819    0.0066 H   0  0  0  0  0  0  0  0  0  0  0  0
    0.0015   -1.3958   -0.0003 C   0  0  0  0  0  0  0  0  0  0  0  0
   -0.0076   -2.3936   -0.0011 H   0  0  0  0  0  0  0  0  0  0  0  0
    1.2085   -0.7036   -0.0000 C   0  0  0  0  0  0  0  0  0  0  0  0
    2.0856   -1.2039    0.0046 H   0  0  0  0  0  0  0  0  0  0  0  0
    1.2016    0.6841   -0.0039 C   0  0  0  0  0  0  0  0  0  0  0  0
    2.0679    1.1848   -0.0184 H   0  0  0  0  0  0  0  0  0  0  0  0
  1  5  1  0
  5  8  1  0
  1  2  1  0
  1  3  1  0
  1  4  1  0
  5  6  1  0
  5  7  1  0
  8  9  1  0
  8 10  1  0
  8 11  1  0
 12 16  1  0
 16 17  2  0
 17 19  1  0
 19 21  2  0
 21 23  1  0
 23 25  2  0
 25 16  1  0
 12 13  1  0
 12 14  1  0
 12 15  1  0
 17 18  1  0
 19 20  1  0
 21 22  1  0
 23 24  1  0
 25 26  1  0
M  CHG  1   8   1
M  END
>  <PDB_ID>  (2270) 
pdb3o9z

>  <RESIDUE_NAME>  (2270) 
LYS   PHE

>  <FRAG_NAME>  (2270) 
ETAM   MBZ

>  <FRAG_ATOM_NUM>  (2270) 
fragi: 11  fragj: 15

>  <atom.prop.CHAIN_ID>  (2270) 
A A A A A A A A A A A Z Z Z Z Z Z Z Z Z Z Z Z Z Z Z

>  <atom.prop.IS_HEAVY_ATOM>  (2270) 
1 0 0 0 1 0 0 1 0 0 0 1 0 0 0 1 1 0 1 0 1 0 1 0 1 0

>  <DIFUSE_FUNC_ATOM>  (2270) 
n/a

>  <FINAL_SINGLE_POINT_ENERGY>  (2270) 
0

>  <NONCOV_INTER_ENERGY_QM>  (2270) 
0

>  <FF_Energy>  (2270) 
-6.02

>  <QM_Energy>  (2270) 
-12.62

>  <source>  (2270) 
ETAM_MBZ

>  <Index>  (2270) 
23676

$$$$
ETAM-pdb3o9z-B-LYS-22:MBZ-pdb3o9z-B-PHE-44
     RDKit          3D

 26 25  0  0  0  0  0  0  0  0999 V2000
   -5.1805    1.1889   -1.5908 C   0  0  0  0  0  0  0  0  0  0  0  0
   -5.7256    0.6273   -2.1945 H   0  0  0  0  0  0  0  0  0  0  0  0
   -4.5056    1.7079   -2.0920 H   0  0  0  0  0  0  0  0  0  0  0  0
   -5.8377    1.8794   -1.0622 H   0  0  0  0  0  0  0  0  0  0  0  0
   -4.4561    0.2772   -0.5982 C   0  0  0  0  0  0  0  0  0  0  0  0
   -3.5244    0.6608   -0.4300 H   0  0  0  0  0  0  0  0  0  0  0  0
   -4.9465    0.3207    0.2963 H   0  0  0  0  0  0  0  0  0  0  0  0
   -4.3165   -1.1602   -0.9955 N   0  0  0  0  0  4  0  0  0  0  0  0
   -4.0478   -1.2090   -1.9554 H   0  0  0  0  0  0  0  0  0  0  0  0
   -3.6186   -1.5902   -0.4261 H   0  0  0  0  0  0  0  0  0  0  0  0
   -5.1921   -1.6219   -0.8652 H   0  0  0  0  0  0  0  0  0  0  0  0
   -0.0034    2.9192    0.0410 C   0  0  0  0  0  0  0  0  0  0  0  0
    0.7879    3.2099    0.5620 H   0  0  0  0  0  0  0  0  0  0  0  0
   -0.8443    3.1900    0.4905 H   0  0  0  0  0  0  0  0  0  0  0  0
    0.0332    3.4191   -0.9268 H   0  0  0  0  0  0  0  0  0  0  0  0
    0.0178    1.4046   -0.0241 C   0  0  0  0  0  0  0  0  0  0  0  0
   -1.1953    0.7123    0.0115 C   0  0  0  0  0  0  0  0  0  0  0  0
   -2.0505    1.2115    0.0441 H   0  0  0  0  0  0  0  0  0  0  0  0
   -1.2133   -0.6843    0.0000 C   0  0  0  0  0  0  0  0  0  0  0  0
   -2.1001   -1.1644    0.0060 H   0  0  0  0  0  0  0  0  0  0  0  0
   -0.0239   -1.4035   -0.0177 C   0  0  0  0  0  0  0  0  0  0  0  0
   -0.0310   -2.3950   -0.0426 H   0  0  0  0  0  0  0  0  0  0  0  0
    1.2133   -0.7108   -0.0000 C   0  0  0  0  0  0  0  0  0  0  0  0
    2.0740   -1.2175   -0.0074 H   0  0  0  0  0  0  0  0  0  0  0  0
    1.2014    0.6818    0.0303 C   0  0  0  0  0  0  0  0  0  0  0  0
    2.0771    1.1757    0.0924 H   0  0  0  0  0  0  0  0  0  0  0  0
  1  5  1  0
  5  8  1  0
  1  2  1  0
  1  3  1  0
  1  4  1  0
  5  6  1  0
  5  7  1  0
  8  9  1  0
  8 10  1  0
  8 11  1  0
 12 16  1  0
 16 17  2  0
 17 19  1  0
 19 21  2  0
 21 23  1  0
 23 25  2  0
 25 16  1  0
 12 13  1  0
 12 14  1  0
 12 15  1  0
 17 18  1  0
 19 20  1  0
 21 22  1  0
 23 24  1  0
 25 26  1  0
M  CHG  1   8   1
M  END
>  <PDB_ID>  (2271) 
pdb3o9z

>  <RESIDUE_NAME>  (2271) 
LYS   PHE

>  <FRAG_NAME>  (2271) 
ETAM   MBZ

>  <FRAG_ATOM_NUM>  (2271) 
fragi: 11  fragj: 15

>  <atom.prop.CHAIN_ID>  (2271) 
A A A A A A A A A A A Z Z Z Z Z Z Z Z Z Z Z Z Z Z Z

>  <atom.prop.IS_HEAVY_ATOM>  (2271) 
1 0 0 0 1 0 0 1 0 0 0 1 0 0 0 1 1 0 1 0 1 0 1 0 1 0

>  <DIFUSE_FUNC_ATOM>  (2271) 
n/a

>  <FINAL_SINGLE_POINT_ENERGY>  (2271) 
0

>  <NONCOV_INTER_ENERGY_QM>  (2271) 
0

>  <FF_Energy>  (2271) 
17.06

>  <QM_Energy>  (2271) 
-0.01

>  <source>  (2271) 
ETAM_MBZ

>  <Index>  (2271) 
23678

$$$$
ETAM-pdb3o9z-D-LYS-22:MBZ-pdb3o9z-D-PHE-45
     RDKit          3D

 26 25  0  0  0  0  0  0  0  0999 V2000
    0.3166   -2.6854   -4.1380 C   0  0  0  0  0  0  0  0  0  0  0  0
    1.0001   -2.0661   -3.7689 H   0  0  0  0  0  0  0  0  0  0  0  0
    0.1398   -2.4811   -5.0939 H   0  0  0  0  0  0  0  0  0  0  0  0
    0.6857   -3.7078   -4.0572 H   0  0  0  0  0  0  0  0  0  0  0  0
   -0.9740   -2.5063   -3.3559 C   0  0  0  0  0  0  0  0  0  0  0  0
   -1.6322   -3.2010   -3.6513 H   0  0  0  0  0  0  0  0  0  0  0  0
   -0.7837   -2.6280   -2.3803 H   0  0  0  0  0  0  0  0  0  0  0  0
   -1.5582   -1.1542   -3.5746 N   0  0  0  0  0  4  0  0  0  0  0  0
   -2.4336   -1.0905   -3.0969 H   0  0  0  0  0  0  0  0  0  0  0  0
   -0.9314   -0.4615   -3.2192 H   0  0  0  0  0  0  0  0  0  0  0  0
   -1.6988   -1.0082   -4.5534 H   0  0  0  0  0  0  0  0  0  0  0  0
   -0.0306    2.8845   -0.0913 C   0  0  0  0  0  0  0  0  0  0  0  0
    0.8238    3.2314    0.2441 H   0  0  0  0  0  0  0  0  0  0  0  0
   -0.7977    3.2060    0.4299 H   0  0  0  0  0  0  0  0  0  0  0  0
   -0.1541    3.2349   -1.1160 H   0  0  0  0  0  0  0  0  0  0  0  0
    0.0016    1.3947   -0.0163 C   0  0  0  0  0  0  0  0  0  0  0  0
   -1.1999    0.6953   -0.0118 C   0  0  0  0  0  0  0  0  0  0  0  0
   -2.0630    1.1871   -0.0184 H   0  0  0  0  0  0  0  0  0  0  0  0
   -1.2098   -0.6993   -0.0000 C   0  0  0  0  0  0  0  0  0  0  0  0
   -2.0815   -1.1919   -0.0192 H   0  0  0  0  0  0  0  0  0  0  0  0
   -0.0015   -1.3913    0.0401 C   0  0  0  0  0  0  0  0  0  0  0  0
   -0.0051   -2.3907    0.0973 H   0  0  0  0  0  0  0  0  0  0  0  0
    1.2098   -0.7000    0.0000 C   0  0  0  0  0  0  0  0  0  0  0  0
    2.0843   -1.1939   -0.0185 H   0  0  0  0  0  0  0  0  0  0  0  0
    1.1998    0.7006   -0.0119 C   0  0  0  0  0  0  0  0  0  0  0  0
    2.0656    1.1950   -0.0175 H   0  0  0  0  0  0  0  0  0  0  0  0
  1  5  1  0
  5  8  1  0
  1  2  1  0
  1  3  1  0
  1  4  1  0
  5  6  1  0
  5  7  1  0
  8  9  1  0
  8 10  1  0
  8 11  1  0
 12 16  1  0
 16 17  2  0
 17 19  1  0
 19 21  2  0
 21 23  1  0
 23 25  2  0
 25 16  1  0
 12 13  1  0
 12 14  1  0
 12 15  1  0
 17 18  1  0
 19 20  1  0
 21 22  1  0
 23 24  1  0
 25 26  1  0
M  CHG  1   8   1
M  END
>  <PDB_ID>  (2272) 
pdb3o9z

>  <RESIDUE_NAME>  (2272) 
LYS   PHE

>  <FRAG_NAME>  (2272) 
ETAM   MBZ

>  <FRAG_ATOM_NUM>  (2272) 
fragi: 11  fragj: 15

>  <atom.prop.CHAIN_ID>  (2272) 
A A A A A A A A A A A Z Z Z Z Z Z Z Z Z Z Z Z Z Z Z

>  <atom.prop.IS_HEAVY_ATOM>  (2272) 
1 0 0 0 1 0 0 1 0 0 0 1 0 0 0 1 1 0 1 0 1 0 1 0 1 0

>  <DIFUSE_FUNC_ATOM>  (2272) 
n/a

>  <FINAL_SINGLE_POINT_ENERGY>  (2272) 
0

>  <NONCOV_INTER_ENERGY_QM>  (2272) 
0

>  <FF_Energy>  (2272) 
-4.97

>  <QM_Energy>  (2272) 
-10.26

>  <source>  (2272) 
ETAM_MBZ

>  <Index>  (2272) 
23682

$$$$
ETAM-pdb4lxj-A-LYS-151:MBZ-pdb4lxj-A-PHE-449
     RDKit          3D

 26 25  0  0  0  0  0  0  0  0999 V2000
    1.7714    0.2694   -4.0464 C   0  0  0  0  0  0  0  0  0  0  0  0
    2.2713   -0.2891   -4.6957 H   0  0  0  0  0  0  0  0  0  0  0  0
    2.2880    0.3870   -3.2091 H   0  0  0  0  0  0  0  0  0  0  0  0
    1.5933    1.2486   -4.4908 H   0  0  0  0  0  0  0  0  0  0  0  0
    0.4513   -0.4448   -3.7058 C   0  0  0  0  0  0  0  0  0  0  0  0
    0.0136    0.0336   -2.9570 H   0  0  0  0  0  0  0  0  0  0  0  0
   -0.1267   -0.4484   -4.5105 H   0  0  0  0  0  0  0  0  0  0  0  0
    0.7389   -1.8577   -3.2938 N   0  0  0  0  0  4  0  0  0  0  0  0
    1.2682   -1.8497   -2.4476 H   0  0  0  0  0  0  0  0  0  0  0  0
   -0.1238   -2.3367   -3.1491 H   0  0  0  0  0  0  0  0  0  0  0  0
    1.2604   -2.3082   -4.0153 H   0  0  0  0  0  0  0  0  0  0  0  0
    0.0177    2.9094    0.0195 C   0  0  0  0  0  0  0  0  0  0  0  0
   -0.8031    3.2258   -0.4241 H   0  0  0  0  0  0  0  0  0  0  0  0
    0.8297    3.2165   -0.4473 H   0  0  0  0  0  0  0  0  0  0  0  0
    0.0339    3.3393    1.0210 H   0  0  0  0  0  0  0  0  0  0  0  0
    0.0089    1.3984    0.0056 C   0  0  0  0  0  0  0  0  0  0  0  0
   -1.2011    0.6881    0.0017 C   0  0  0  0  0  0  0  0  0  0  0  0
   -2.0600    1.1917   -0.0011 H   0  0  0  0  0  0  0  0  0  0  0  0
   -1.2065   -0.6857    0.0000 C   0  0  0  0  0  0  0  0  0  0  0  0
   -2.0856   -1.1859    0.0052 H   0  0  0  0  0  0  0  0  0  0  0  0
   -0.0098   -1.3952   -0.0071 C   0  0  0  0  0  0  0  0  0  0  0  0
   -0.0123   -2.3871   -0.0178 H   0  0  0  0  0  0  0  0  0  0  0  0
    1.2065   -0.6925    0.0000 C   0  0  0  0  0  0  0  0  0  0  0  0
    2.0796   -1.2016    0.0061 H   0  0  0  0  0  0  0  0  0  0  0  0
    1.2021    0.6869   -0.0001 C   0  0  0  0  0  0  0  0  0  0  0  0
    2.0713    1.1880   -0.0053 H   0  0  0  0  0  0  0  0  0  0  0  0
  1  5  1  0
  5  8  1  0
  1  2  1  0
  1  3  1  0
  1  4  1  0
  5  6  1  0
  5  7  1  0
  8  9  1  0
  8 10  1  0
  8 11  1  0
 12 16  1  0
 16 17  2  0
 17 19  1  0
 19 21  2  0
 21 23  1  0
 23 25  2  0
 25 16  1  0
 12 13  1  0
 12 14  1  0
 12 15  1  0
 17 18  1  0
 19 20  1  0
 21 22  1  0
 23 24  1  0
 25 26  1  0
M  CHG  1   8   1
M  END
>  <PDB_ID>  (2273) 
pdb4lxj

>  <RESIDUE_NAME>  (2273) 
LYS   PHE

>  <FRAG_NAME>  (2273) 
ETAM   MBZ

>  <FRAG_ATOM_NUM>  (2273) 
fragi: 11  fragj: 15

>  <atom.prop.CHAIN_ID>  (2273) 
A A A A A A A A A A A Z Z Z Z Z Z Z Z Z Z Z Z Z Z Z

>  <atom.prop.IS_HEAVY_ATOM>  (2273) 
1 0 0 0 1 0 0 1 0 0 0 1 0 0 0 1 1 0 1 0 1 0 1 0 1 0

>  <DIFUSE_FUNC_ATOM>  (2273) 
n/a

>  <FINAL_SINGLE_POINT_ENERGY>  (2273) 
0

>  <NONCOV_INTER_ENERGY_QM>  (2273) 
0

>  <FF_Energy>  (2273) 
-6.1

>  <QM_Energy>  (2273) 
-13.29

>  <source>  (2273) 
ETAM_MBZ

>  <Index>  (2273) 
23684

$$$$
ETAM-pdb4lza-A-LYS-5:MBZ-pdb4lza-A-PHE-171
     RDKit          3D

 26 25  0  0  0  0  0  0  0  0999 V2000
   -2.6730   -2.1518   -4.3182 C   0  0  0  0  0  0  0  0  0  0  0  0
   -1.8461   -1.7855   -4.7336 H   0  0  0  0  0  0  0  0  0  0  0  0
   -3.2551   -2.5619   -5.0142 H   0  0  0  0  0  0  0  0  0  0  0  0
   -2.3925   -2.9194   -3.5971 H   0  0  0  0  0  0  0  0  0  0  0  0
   -3.4300   -1.0168   -3.6585 C   0  0  0  0  0  0  0  0  0  0  0  0
   -3.7770   -0.3961   -4.3763 H   0  0  0  0  0  0  0  0  0  0  0  0
   -4.2279   -1.3979   -3.1680 H   0  0  0  0  0  0  0  0  0  0  0  0
   -2.6023   -0.2371   -2.7026 N   0  0  0  0  0  4  0  0  0  0  0  0
   -3.1994    0.2730   -2.0837 H   0  0  0  0  0  0  0  0  0  0  0  0
   -2.0286   -0.8613   -2.1728 H   0  0  0  0  0  0  0  0  0  0  0  0
   -2.0228    0.4014   -3.2084 H   0  0  0  0  0  0  0  0  0  0  0  0
    0.0098    2.8914    0.0360 C   0  0  0  0  0  0  0  0  0  0  0  0
    0.8907    3.1852    0.3850 H   0  0  0  0  0  0  0  0  0  0  0  0
   -0.7227    3.1884    0.6350 H   0  0  0  0  0  0  0  0  0  0  0  0
   -0.1391    3.3675   -0.9332 H   0  0  0  0  0  0  0  0  0  0  0  0
    0.0003    1.3963   -0.0039 C   0  0  0  0  0  0  0  0  0  0  0  0
   -1.1985    0.6966    0.0131 C   0  0  0  0  0  0  0  0  0  0  0  0
   -2.0614    1.1882    0.0334 H   0  0  0  0  0  0  0  0  0  0  0  0
   -1.1995   -0.6883   -0.0000 C   0  0  0  0  0  0  0  0  0  0  0  0
   -2.0770   -1.1864   -0.0025 H   0  0  0  0  0  0  0  0  0  0  0  0
    0.0012   -1.3860   -0.0077 C   0  0  0  0  0  0  0  0  0  0  0  0
   -0.0106   -2.3880   -0.0196 H   0  0  0  0  0  0  0  0  0  0  0  0
    1.1995   -0.7010    0.0000 C   0  0  0  0  0  0  0  0  0  0  0  0
    2.0797   -1.2022    0.0079 H   0  0  0  0  0  0  0  0  0  0  0  0
    1.1970    0.6823   -0.0015 C   0  0  0  0  0  0  0  0  0  0  0  0
    2.0649    1.1814   -0.0017 H   0  0  0  0  0  0  0  0  0  0  0  0
  1  5  1  0
  5  8  1  0
  1  2  1  0
  1  3  1  0
  1  4  1  0
  5  6  1  0
  5  7  1  0
  8  9  1  0
  8 10  1  0
  8 11  1  0
 12 16  1  0
 16 17  2  0
 17 19  1  0
 19 21  2  0
 21 23  1  0
 23 25  2  0
 25 16  1  0
 12 13  1  0
 12 14  1  0
 12 15  1  0
 17 18  1  0
 19 20  1  0
 21 22  1  0
 23 24  1  0
 25 26  1  0
M  CHG  1   8   1
M  END
>  <PDB_ID>  (2274) 
pdb4lza

>  <RESIDUE_NAME>  (2274) 
LYS   PHE

>  <FRAG_NAME>  (2274) 
ETAM   MBZ

>  <FRAG_ATOM_NUM>  (2274) 
fragi: 11  fragj: 15

>  <atom.prop.CHAIN_ID>  (2274) 
A A A A A A A A A A A Z Z Z Z Z Z Z Z Z Z Z Z Z Z Z

>  <atom.prop.IS_HEAVY_ATOM>  (2274) 
1 0 0 0 1 0 0 1 0 0 0 1 0 0 0 1 1 0 1 0 1 0 1 0 1 0

>  <DIFUSE_FUNC_ATOM>  (2274) 
n/a

>  <FINAL_SINGLE_POINT_ENERGY>  (2274) 
0

>  <NONCOV_INTER_ENERGY_QM>  (2274) 
0

>  <FF_Energy>  (2274) 
-3.11

>  <QM_Energy>  (2274) 
-9.99

>  <source>  (2274) 
ETAM_MBZ

>  <Index>  (2274) 
23697

$$$$
ETAM-pdb4lws-A-LYS-37:MBZ-pdb4lws-A-PHE-56
     RDKit          3D

 26 25  0  0  0  0  0  0  0  0999 V2000
   -0.4357    1.4711   -3.4252 C   0  0  0  0  0  0  0  0  0  0  0  0
   -1.0922    1.6808   -2.7002 H   0  0  0  0  0  0  0  0  0  0  0  0
   -0.0139    0.5817   -3.2453 H   0  0  0  0  0  0  0  0  0  0  0  0
   -0.9707    1.4173   -4.3734 H   0  0  0  0  0  0  0  0  0  0  0  0
    0.6427    2.5294   -3.4263 C   0  0  0  0  0  0  0  0  0  0  0  0
    1.3040    2.3236   -4.1479 H   0  0  0  0  0  0  0  0  0  0  0  0
    0.2270    3.4222   -3.6023 H   0  0  0  0  0  0  0  0  0  0  0  0
    1.3421    2.5661   -2.1173 N   0  0  0  0  0  4  0  0  0  0  0  0
    1.2172    3.4648   -1.6978 H   0  0  0  0  0  0  0  0  0  0  0  0
    0.9617    1.8621   -1.5170 H   0  0  0  0  0  0  0  0  0  0  0  0
    2.3176    2.3947   -2.2554 H   0  0  0  0  0  0  0  0  0  0  0  0
    0.0048    2.9255    0.0008 C   0  0  0  0  0  0  0  0  0  0  0  0
   -0.5608    3.2280   -0.7503 H   0  0  0  0  0  0  0  0  0  0  0  0
    0.9402    3.2229   -0.1060 H   0  0  0  0  0  0  0  0  0  0  0  0
   -0.3854    3.3749    0.9139 H   0  0  0  0  0  0  0  0  0  0  0  0
   -0.0017    1.4066    0.0043 C   0  0  0  0  0  0  0  0  0  0  0  0
   -1.1970    0.6978   -0.0046 C   0  0  0  0  0  0  0  0  0  0  0  0
   -2.0650    1.1871   -0.0160 H   0  0  0  0  0  0  0  0  0  0  0  0
   -1.2025   -0.6953    0.0000 C   0  0  0  0  0  0  0  0  0  0  0  0
   -2.0770   -1.1902    0.0042 H   0  0  0  0  0  0  0  0  0  0  0  0
    0.0055   -1.3996    0.0001 C   0  0  0  0  0  0  0  0  0  0  0  0
   -0.0044   -2.3948   -0.0003 H   0  0  0  0  0  0  0  0  0  0  0  0
    1.2025   -0.7025    0.0000 C   0  0  0  0  0  0  0  0  0  0  0  0
    2.0863   -1.1946    0.0012 H   0  0  0  0  0  0  0  0  0  0  0  0
    1.1932    0.6930    0.0002 C   0  0  0  0  0  0  0  0  0  0  0  0
    2.0639    1.1892   -0.0033 H   0  0  0  0  0  0  0  0  0  0  0  0
  1  5  1  0
  5  8  1  0
  1  2  1  0
  1  3  1  0
  1  4  1  0
  5  6  1  0
  5  7  1  0
  8  9  1  0
  8 10  1  0
  8 11  1  0
 12 16  1  0
 16 17  2  0
 17 19  1  0
 19 21  2  0
 21 23  1  0
 23 25  2  0
 25 16  1  0
 12 13  1  0
 12 14  1  0
 12 15  1  0
 17 18  1  0
 19 20  1  0
 21 22  1  0
 23 24  1  0
 25 26  1  0
M  CHG  1   8   1
M  END
>  <PDB_ID>  (2275) 
pdb4lws

>  <RESIDUE_NAME>  (2275) 
LYS   PHE

>  <FRAG_NAME>  (2275) 
ETAM   MBZ

>  <FRAG_ATOM_NUM>  (2275) 
fragi: 11  fragj: 15

>  <atom.prop.CHAIN_ID>  (2275) 
A A A A A A A A A A A Z Z Z Z Z Z Z Z Z Z Z Z Z Z Z

>  <atom.prop.IS_HEAVY_ATOM>  (2275) 
1 0 0 0 1 0 0 1 0 0 0 1 0 0 0 1 1 0 1 0 1 0 1 0 1 0

>  <DIFUSE_FUNC_ATOM>  (2275) 
n/a

>  <FINAL_SINGLE_POINT_ENERGY>  (2275) 
0

>  <NONCOV_INTER_ENERGY_QM>  (2275) 
0

>  <FF_Energy>  (2275) 
26.66

>  <QM_Energy>  (2275) 
3.08

>  <source>  (2275) 
ETAM_MBZ

>  <Index>  (2275) 
23724

$$$$
ETAM-pdb3obi-A-LYS-281:MBZ-pdb3obi-C-PHE-211
     RDKit          3D

 26 25  0  0  0  0  0  0  0  0999 V2000
    0.6236   -0.1494    5.5375 C   0  0  0  0  0  0  0  0  0  0  0  0
   -0.3191    0.2097    5.4889 H   0  0  0  0  0  0  0  0  0  0  0  0
    1.2321    0.5105    5.0769 H   0  0  0  0  0  0  0  0  0  0  0  0
    0.9123   -0.2027    6.5872 H   0  0  0  0  0  0  0  0  0  0  0  0
    0.6886   -1.4507    4.8287 C   0  0  0  0  0  0  0  0  0  0  0  0
    1.5705   -1.8868    4.9851 H   0  0  0  0  0  0  0  0  0  0  0  0
   -0.0476   -2.0485    5.1339 H   0  0  0  0  0  0  0  0  0  0  0  0
    0.5300   -1.2232    3.3490 N   0  0  0  0  0  4  0  0  0  0  0  0
    0.7892   -2.0546    2.8645 H   0  0  0  0  0  0  0  0  0  0  0  0
   -0.4220   -0.9993    3.1573 H   0  0  0  0  0  0  0  0  0  0  0  0
    1.1204   -0.4694    3.0730 H   0  0  0  0  0  0  0  0  0  0  0  0
   -0.0085    2.8973    0.0204 C   0  0  0  0  0  0  0  0  0  0  0  0
   -0.7467    3.2144   -0.5546 H   0  0  0  0  0  0  0  0  0  0  0  0
    0.8671    3.2195   -0.3019 H   0  0  0  0  0  0  0  0  0  0  0  0
   -0.1655    3.3135    1.0155 H   0  0  0  0  0  0  0  0  0  0  0  0
    0.0006    1.4028   -0.0046 C   0  0  0  0  0  0  0  0  0  0  0  0
   -1.1996    0.6958    0.0048 C   0  0  0  0  0  0  0  0  0  0  0  0
   -2.0641    1.1875    0.0142 H   0  0  0  0  0  0  0  0  0  0  0  0
   -1.2037   -0.6947    0.0000 C   0  0  0  0  0  0  0  0  0  0  0  0
   -2.0798   -1.1903   -0.0005 H   0  0  0  0  0  0  0  0  0  0  0  0
    0.0005   -1.3977   -0.0018 C   0  0  0  0  0  0  0  0  0  0  0  0
   -0.0076   -2.3939   -0.0045 H   0  0  0  0  0  0  0  0  0  0  0  0
    1.2037   -0.7012    0.0000 C   0  0  0  0  0  0  0  0  0  0  0  0
    2.0839   -1.1969    0.0013 H   0  0  0  0  0  0  0  0  0  0  0  0
    1.1985    0.6949    0.0017 C   0  0  0  0  0  0  0  0  0  0  0  0
    2.0666    1.1896    0.0067 H   0  0  0  0  0  0  0  0  0  0  0  0
  1  5  1  0
  5  8  1  0
  1  2  1  0
  1  3  1  0
  1  4  1  0
  5  6  1  0
  5  7  1  0
  8  9  1  0
  8 10  1  0
  8 11  1  0
 12 16  1  0
 16 17  2  0
 17 19  1  0
 19 21  2  0
 21 23  1  0
 23 25  2  0
 25 16  1  0
 12 13  1  0
 12 14  1  0
 12 15  1  0
 17 18  1  0
 19 20  1  0
 21 22  1  0
 23 24  1  0
 25 26  1  0
M  CHG  1   8   1
M  END
>  <PDB_ID>  (2276) 
pdb3obi

>  <RESIDUE_NAME>  (2276) 
LYS   PHE

>  <FRAG_NAME>  (2276) 
ETAM   MBZ

>  <FRAG_ATOM_NUM>  (2276) 
fragi: 11  fragj: 15

>  <atom.prop.CHAIN_ID>  (2276) 
A A A A A A A A A A A Z Z Z Z Z Z Z Z Z Z Z Z Z Z Z

>  <atom.prop.IS_HEAVY_ATOM>  (2276) 
1 0 0 0 1 0 0 1 0 0 0 1 0 0 0 1 1 0 1 0 1 0 1 0 1 0

>  <DIFUSE_FUNC_ATOM>  (2276) 
n/a

>  <FINAL_SINGLE_POINT_ENERGY>  (2276) 
0

>  <NONCOV_INTER_ENERGY_QM>  (2276) 
0

>  <FF_Energy>  (2276) 
-6.1

>  <QM_Energy>  (2276) 
-12.22

>  <source>  (2276) 
ETAM_MBZ

>  <Index>  (2276) 
23728

$$$$
ETAM-pdb3obi-B-LYS-281:MBZ-pdb3obi-D-PHE-211
     RDKit          3D

 26 25  0  0  0  0  0  0  0  0999 V2000
    0.9122    0.0711    5.5992 C   0  0  0  0  0  0  0  0  0  0  0  0
   -0.0527    0.3853    5.5493 H   0  0  0  0  0  0  0  0  0  0  0  0
    1.4724    0.7508    5.0933 H   0  0  0  0  0  0  0  0  0  0  0  0
    1.2192    0.0923    6.6448 H   0  0  0  0  0  0  0  0  0  0  0  0
    1.0213   -1.2608    4.8938 C   0  0  0  0  0  0  0  0  0  0  0  0
    1.9267   -1.6371    5.0316 H   0  0  0  0  0  0  0  0  0  0  0  0
    0.3253   -1.8768    5.2358 H   0  0  0  0  0  0  0  0  0  0  0  0
    0.8016   -1.0480    3.4212 N   0  0  0  0  0  4  0  0  0  0  0  0
    0.4160   -0.1396    3.2797 H   0  0  0  0  0  0  0  0  0  0  0  0
    1.6765   -1.1244    2.9494 H   0  0  0  0  0  0  0  0  0  0  0  0
    0.1700   -1.7427    3.0849 H   0  0  0  0  0  0  0  0  0  0  0  0
   -0.0022    2.9190    0.0142 C   0  0  0  0  0  0  0  0  0  0  0  0
   -0.7369    3.2240   -0.5729 H   0  0  0  0  0  0  0  0  0  0  0  0
    0.8765    3.2284   -0.3173 H   0  0  0  0  0  0  0  0  0  0  0  0
   -0.1593    3.3589    0.9991 H   0  0  0  0  0  0  0  0  0  0  0  0
    0.0030    1.4117    0.0075 C   0  0  0  0  0  0  0  0  0  0  0  0
   -1.1981    0.6972    0.0044 C   0  0  0  0  0  0  0  0  0  0  0  0
   -2.0645    1.1837    0.0034 H   0  0  0  0  0  0  0  0  0  0  0  0
   -1.2056   -0.7069   -0.0000 C   0  0  0  0  0  0  0  0  0  0  0  0
   -2.0820   -1.1945    0.0077 H   0  0  0  0  0  0  0  0  0  0  0  0
   -0.0007   -1.4092   -0.0133 C   0  0  0  0  0  0  0  0  0  0  0  0
   -0.0015   -2.4017   -0.0319 H   0  0  0  0  0  0  0  0  0  0  0  0
    1.2056   -0.7013    0.0000 C   0  0  0  0  0  0  0  0  0  0  0  0
    2.0873   -1.1896    0.0105 H   0  0  0  0  0  0  0  0  0  0  0  0
    1.1959    0.7085    0.0014 C   0  0  0  0  0  0  0  0  0  0  0  0
    2.0672    1.1960   -0.0028 H   0  0  0  0  0  0  0  0  0  0  0  0
  1  5  1  0
  5  8  1  0
  1  2  1  0
  1  3  1  0
  1  4  1  0
  5  6  1  0
  5  7  1  0
  8  9  1  0
  8 10  1  0
  8 11  1  0
 12 16  1  0
 16 17  2  0
 17 19  1  0
 19 21  2  0
 21 23  1  0
 23 25  2  0
 25 16  1  0
 12 13  1  0
 12 14  1  0
 12 15  1  0
 17 18  1  0
 19 20  1  0
 21 22  1  0
 23 24  1  0
 25 26  1  0
M  CHG  1   8   1
M  END
>  <PDB_ID>  (2277) 
pdb3obi

>  <RESIDUE_NAME>  (2277) 
LYS   PHE

>  <FRAG_NAME>  (2277) 
ETAM   MBZ

>  <FRAG_ATOM_NUM>  (2277) 
fragi: 11  fragj: 15

>  <atom.prop.CHAIN_ID>  (2277) 
A A A A A A A A A A A Z Z Z Z Z Z Z Z Z Z Z Z Z Z Z

>  <atom.prop.IS_HEAVY_ATOM>  (2277) 
1 0 0 0 1 0 0 1 0 0 0 1 0 0 0 1 1 0 1 0 1 0 1 0 1 0

>  <DIFUSE_FUNC_ATOM>  (2277) 
n/a

>  <FINAL_SINGLE_POINT_ENERGY>  (2277) 
0

>  <NONCOV_INTER_ENERGY_QM>  (2277) 
0

>  <FF_Energy>  (2277) 
-6.0

>  <QM_Energy>  (2277) 
-11.82

>  <source>  (2277) 
ETAM_MBZ

>  <Index>  (2277) 
23729

$$$$
ETAM-pdb3nv9-B-LYS-28:MBZ-pdb3nv9-B-PHE-353
     RDKit          3D

 26 25  0  0  0  0  0  0  0  0999 V2000
   -2.5789   -2.6147   -3.9325 C   0  0  0  0  0  0  0  0  0  0  0  0
   -3.4689   -2.3264   -4.2709 H   0  0  0  0  0  0  0  0  0  0  0  0
   -2.6851   -3.1779   -3.1189 H   0  0  0  0  0  0  0  0  0  0  0  0
   -2.1037   -3.2204   -4.7041 H   0  0  0  0  0  0  0  0  0  0  0  0
   -1.7536   -1.4284   -3.6175 C   0  0  0  0  0  0  0  0  0  0  0  0
   -1.0164   -1.6827   -3.0003 H   0  0  0  0  0  0  0  0  0  0  0  0
   -1.3840   -1.0402   -4.4556 H   0  0  0  0  0  0  0  0  0  0  0  0
   -2.6171   -0.4395   -2.9635 N   0  0  0  0  0  4  0  0  0  0  0  0
   -2.5427   -0.5258   -1.9669 H   0  0  0  0  0  0  0  0  0  0  0  0
   -2.3416    0.4873   -3.2325 H   0  0  0  0  0  0  0  0  0  0  0  0
   -3.5723   -0.5875   -3.2334 H   0  0  0  0  0  0  0  0  0  0  0  0
   -0.0237    2.9247   -0.0350 C   0  0  0  0  0  0  0  0  0  0  0  0
    0.8980    3.2431    0.1196 H   0  0  0  0  0  0  0  0  0  0  0  0
   -0.6396    3.2351    0.6710 H   0  0  0  0  0  0  0  0  0  0  0  0
   -0.3658    3.3404   -0.9827 H   0  0  0  0  0  0  0  0  0  0  0  0
   -0.0068    1.4185   -0.0096 C   0  0  0  0  0  0  0  0  0  0  0  0
   -1.2082    0.7056    0.0096 C   0  0  0  0  0  0  0  0  0  0  0  0
   -2.0754    1.1824    0.0289 H   0  0  0  0  0  0  0  0  0  0  0  0
   -1.2148   -0.7181    0.0000 C   0  0  0  0  0  0  0  0  0  0  0  0
   -2.0879   -1.1991   -0.0108 H   0  0  0  0  0  0  0  0  0  0  0  0
   -0.0020   -1.4150    0.0079 C   0  0  0  0  0  0  0  0  0  0  0  0
    0.0073   -2.4060    0.0185 H   0  0  0  0  0  0  0  0  0  0  0  0
    1.2148   -0.6949    0.0000 C   0  0  0  0  0  0  0  0  0  0  0  0
    2.0932   -1.1976    0.0011 H   0  0  0  0  0  0  0  0  0  0  0  0
    1.2169    0.7040   -0.0080 C   0  0  0  0  0  0  0  0  0  0  0  0
    2.0717    1.2034   -0.0131 H   0  0  0  0  0  0  0  0  0  0  0  0
  1  5  1  0
  5  8  1  0
  1  2  1  0
  1  3  1  0
  1  4  1  0
  5  6  1  0
  5  7  1  0
  8  9  1  0
  8 10  1  0
  8 11  1  0
 12 16  1  0
 16 17  2  0
 17 19  1  0
 19 21  2  0
 21 23  1  0
 23 25  2  0
 25 16  1  0
 12 13  1  0
 12 14  1  0
 12 15  1  0
 17 18  1  0
 19 20  1  0
 21 22  1  0
 23 24  1  0
 25 26  1  0
M  CHG  1   8   1
M  END
>  <PDB_ID>  (2278) 
pdb3nv9

>  <RESIDUE_NAME>  (2278) 
LYS   PHE

>  <FRAG_NAME>  (2278) 
ETAM   MBZ

>  <FRAG_ATOM_NUM>  (2278) 
fragi: 11  fragj: 15

>  <atom.prop.CHAIN_ID>  (2278) 
A A A A A A A A A A A Z Z Z Z Z Z Z Z Z Z Z Z Z Z Z

>  <atom.prop.IS_HEAVY_ATOM>  (2278) 
1 0 0 0 1 0 0 1 0 0 0 1 0 0 0 1 1 0 1 0 1 0 1 0 1 0

>  <DIFUSE_FUNC_ATOM>  (2278) 
n/a

>  <FINAL_SINGLE_POINT_ENERGY>  (2278) 
0

>  <NONCOV_INTER_ENERGY_QM>  (2278) 
0

>  <FF_Energy>  (2278) 
-4.04

>  <QM_Energy>  (2278) 
-11.22

>  <source>  (2278) 
ETAM_MBZ

>  <Index>  (2278) 
23768

$$$$
ETAM-pdb4m44-B-LYS-47:MBZ-pdb4m44-F-PHE-2
     RDKit          3D

 26 25  0  0  0  0  0  0  0  0999 V2000
    0.7662    1.9576   -3.9631 C   0  0  0  0  0  0  0  0  0  0  0  0
    1.1938    1.9398   -3.0635 H   0  0  0  0  0  0  0  0  0  0  0  0
   -0.1594    2.3191   -3.8956 H   0  0  0  0  0  0  0  0  0  0  0  0
    1.3507    2.6035   -4.6184 H   0  0  0  0  0  0  0  0  0  0  0  0
    0.6930    0.5341   -4.4927 C   0  0  0  0  0  0  0  0  0  0  0  0
    0.2779    0.5466   -5.4043 H   0  0  0  0  0  0  0  0  0  0  0  0
    1.6212    0.1630   -4.5597 H   0  0  0  0  0  0  0  0  0  0  0  0
   -0.1186   -0.3398   -3.5985 N   0  0  0  0  0  4  0  0  0  0  0  0
   -0.9355   -0.6453   -4.0872 H   0  0  0  0  0  0  0  0  0  0  0  0
    0.4259   -1.1327   -3.3273 H   0  0  0  0  0  0  0  0  0  0  0  0
   -0.3868    0.1769   -2.7865 H   0  0  0  0  0  0  0  0  0  0  0  0
    0.0030    2.9074   -0.0033 C   0  0  0  0  0  0  0  0  0  0  0  0
   -0.8556    3.2129   -0.3885 H   0  0  0  0  0  0  0  0  0  0  0  0
    0.7698    3.2086   -0.5514 H   0  0  0  0  0  0  0  0  0  0  0  0
    0.1035    3.3591    0.9836 H   0  0  0  0  0  0  0  0  0  0  0  0
    0.0003    1.4001    0.0048 C   0  0  0  0  0  0  0  0  0  0  0  0
   -1.1947    0.6896   -0.0021 C   0  0  0  0  0  0  0  0  0  0  0  0
   -2.0625    1.1799   -0.0099 H   0  0  0  0  0  0  0  0  0  0  0  0
   -1.1970   -0.6980    0.0000 C   0  0  0  0  0  0  0  0  0  0  0  0
   -2.0744   -1.1932    0.0022 H   0  0  0  0  0  0  0  0  0  0  0  0
    0.0016   -1.3894    0.0007 C   0  0  0  0  0  0  0  0  0  0  0  0
   -0.0007   -2.3903    0.0008 H   0  0  0  0  0  0  0  0  0  0  0  0
    1.1970   -0.6942   -0.0000 C   0  0  0  0  0  0  0  0  0  0  0  0
    2.0809   -1.1922    0.0037 H   0  0  0  0  0  0  0  0  0  0  0  0
    1.1928    0.6919   -0.0034 C   0  0  0  0  0  0  0  0  0  0  0  0
    2.0625    1.1886   -0.0129 H   0  0  0  0  0  0  0  0  0  0  0  0
  1  5  1  0
  5  8  1  0
  1  2  1  0
  1  3  1  0
  1  4  1  0
  5  6  1  0
  5  7  1  0
  8  9  1  0
  8 10  1  0
  8 11  1  0
 12 16  1  0
 16 17  2  0
 17 19  1  0
 19 21  2  0
 21 23  1  0
 23 25  2  0
 25 16  1  0
 12 13  1  0
 12 14  1  0
 12 15  1  0
 17 18  1  0
 19 20  1  0
 21 22  1  0
 23 24  1  0
 25 26  1  0
M  CHG  1   8   1
M  END
>  <PDB_ID>  (2279) 
pdb4m44

>  <RESIDUE_NAME>  (2279) 
LYS   PHE

>  <FRAG_NAME>  (2279) 
ETAM   MBZ

>  <FRAG_ATOM_NUM>  (2279) 
fragi: 11  fragj: 15

>  <atom.prop.CHAIN_ID>  (2279) 
A A A A A A A A A A A Z Z Z Z Z Z Z Z Z Z Z Z Z Z Z

>  <atom.prop.IS_HEAVY_ATOM>  (2279) 
1 0 0 0 1 0 0 1 0 0 0 1 0 0 0 1 1 0 1 0 1 0 1 0 1 0

>  <DIFUSE_FUNC_ATOM>  (2279) 
n/a

>  <FINAL_SINGLE_POINT_ENERGY>  (2279) 
0

>  <NONCOV_INTER_ENERGY_QM>  (2279) 
0

>  <FF_Energy>  (2279) 
-8.18

>  <QM_Energy>  (2279) 
-13.99

>  <source>  (2279) 
ETAM_MBZ

>  <Index>  (2279) 
23769

$$$$
ETAM-pdb4m44-D-LYS-47:MBZ-pdb4m44-B-PHE-2
     RDKit          3D

 26 25  0  0  0  0  0  0  0  0999 V2000
    0.7306    2.0209   -3.9710 C   0  0  0  0  0  0  0  0  0  0  0  0
    1.1838    1.9919   -3.0822 H   0  0  0  0  0  0  0  0  0  0  0  0
   -0.1780    2.4205   -3.8743 H   0  0  0  0  0  0  0  0  0  0  0  0
    1.3189    2.6441   -4.6445 H   0  0  0  0  0  0  0  0  0  0  0  0
    0.5842    0.6028   -4.4873 C   0  0  0  0  0  0  0  0  0  0  0  0
    0.1416    0.6257   -5.3845 H   0  0  0  0  0  0  0  0  0  0  0  0
    1.4922    0.1914   -4.5772 H   0  0  0  0  0  0  0  0  0  0  0  0
   -0.2362   -0.2223   -3.5583 N   0  0  0  0  0  4  0  0  0  0  0  0
   -1.2051   -0.0848   -3.7609 H   0  0  0  0  0  0  0  0  0  0  0  0
   -0.0023   -1.1871   -3.6778 H   0  0  0  0  0  0  0  0  0  0  0  0
   -0.0489    0.0545   -2.6165 H   0  0  0  0  0  0  0  0  0  0  0  0
   -0.0011    2.9053    0.0016 C   0  0  0  0  0  0  0  0  0  0  0  0
   -0.8608    3.2101   -0.3790 H   0  0  0  0  0  0  0  0  0  0  0  0
    0.7643    3.2109   -0.5448 H   0  0  0  0  0  0  0  0  0  0  0  0
    0.0999    3.3506    0.9914 H   0  0  0  0  0  0  0  0  0  0  0  0
   -0.0003    1.3989    0.0044 C   0  0  0  0  0  0  0  0  0  0  0  0
   -1.1942    0.6877   -0.0005 C   0  0  0  0  0  0  0  0  0  0  0  0
   -2.0621    1.1784   -0.0052 H   0  0  0  0  0  0  0  0  0  0  0  0
   -1.1970   -0.6989   -0.0000 C   0  0  0  0  0  0  0  0  0  0  0  0
   -2.0740   -1.1941    0.0024 H   0  0  0  0  0  0  0  0  0  0  0  0
    0.0016   -1.3895   -0.0006 C   0  0  0  0  0  0  0  0  0  0  0  0
   -0.0001   -2.3901   -0.0021 H   0  0  0  0  0  0  0  0  0  0  0  0
    1.1970   -0.6925   -0.0000 C   0  0  0  0  0  0  0  0  0  0  0  0
    2.0810   -1.1901    0.0043 H   0  0  0  0  0  0  0  0  0  0  0  0
    1.1929    0.6943   -0.0033 C   0  0  0  0  0  0  0  0  0  0  0  0
    2.0618    1.1906   -0.0119 H   0  0  0  0  0  0  0  0  0  0  0  0
  1  5  1  0
  5  8  1  0
  1  2  1  0
  1  3  1  0
  1  4  1  0
  5  6  1  0
  5  7  1  0
  8  9  1  0
  8 10  1  0
  8 11  1  0
 12 16  1  0
 16 17  2  0
 17 19  1  0
 19 21  2  0
 21 23  1  0
 23 25  2  0
 25 16  1  0
 12 13  1  0
 12 14  1  0
 12 15  1  0
 17 18  1  0
 19 20  1  0
 21 22  1  0
 23 24  1  0
 25 26  1  0
M  CHG  1   8   1
M  END
>  <PDB_ID>  (2280) 
pdb4m44

>  <RESIDUE_NAME>  (2280) 
LYS   PHE

>  <FRAG_NAME>  (2280) 
ETAM   MBZ

>  <FRAG_ATOM_NUM>  (2280) 
fragi: 11  fragj: 15

>  <atom.prop.CHAIN_ID>  (2280) 
A A A A A A A A A A A Z Z Z Z Z Z Z Z Z Z Z Z Z Z Z

>  <atom.prop.IS_HEAVY_ATOM>  (2280) 
1 0 0 0 1 0 0 1 0 0 0 1 0 0 0 1 1 0 1 0 1 0 1 0 1 0

>  <DIFUSE_FUNC_ATOM>  (2280) 
n/a

>  <FINAL_SINGLE_POINT_ENERGY>  (2280) 
0

>  <NONCOV_INTER_ENERGY_QM>  (2280) 
0

>  <FF_Energy>  (2280) 
-8.63

>  <QM_Energy>  (2280) 
-14.66

>  <source>  (2280) 
ETAM_MBZ

>  <Index>  (2280) 
23770

$$$$
ETAM-pdb4m44-F-LYS-47:MBZ-pdb4m44-D-PHE-2
     RDKit          3D

 26 25  0  0  0  0  0  0  0  0999 V2000
    0.7117    1.8699   -4.0263 C   0  0  0  0  0  0  0  0  0  0  0  0
    1.1554    1.9183   -3.1357 H   0  0  0  0  0  0  0  0  0  0  0  0
   -0.2226    2.2091   -3.9617 H   0  0  0  0  0  0  0  0  0  0  0  0
    1.2648    2.4935   -4.7286 H   0  0  0  0  0  0  0  0  0  0  0  0
    0.6708    0.4168   -4.4698 C   0  0  0  0  0  0  0  0  0  0  0  0
    0.2453    0.3639   -5.3755 H   0  0  0  0  0  0  0  0  0  0  0  0
    1.6080    0.0671   -4.5273 H   0  0  0  0  0  0  0  0  0  0  0  0
   -0.1067   -0.4240   -3.5149 N   0  0  0  0  0  4  0  0  0  0  0  0
    0.1249   -0.1609   -2.5791 H   0  0  0  0  0  0  0  0  0  0  0  0
   -1.0832   -0.2842   -3.6714 H   0  0  0  0  0  0  0  0  0  0  0  0
    0.1222   -1.3861   -3.6592 H   0  0  0  0  0  0  0  0  0  0  0  0
   -0.0024    2.9039    0.0060 C   0  0  0  0  0  0  0  0  0  0  0  0
   -0.8525    3.2099   -0.3943 H   0  0  0  0  0  0  0  0  0  0  0  0
    0.7757    3.2125   -0.5198 H   0  0  0  0  0  0  0  0  0  0  0  0
    0.0737    3.3459    0.9995 H   0  0  0  0  0  0  0  0  0  0  0  0
   -0.0001    1.3984    0.0026 C   0  0  0  0  0  0  0  0  0  0  0  0
   -1.1929    0.6874   -0.0018 C   0  0  0  0  0  0  0  0  0  0  0  0
   -2.0608    1.1794   -0.0076 H   0  0  0  0  0  0  0  0  0  0  0  0
   -1.1972   -0.6966   -0.0000 C   0  0  0  0  0  0  0  0  0  0  0  0
   -2.0749   -1.1926    0.0034 H   0  0  0  0  0  0  0  0  0  0  0  0
    0.0003   -1.3885   -0.0010 C   0  0  0  0  0  0  0  0  0  0  0  0
   -0.0022   -2.3889   -0.0029 H   0  0  0  0  0  0  0  0  0  0  0  0
    1.1972   -0.6936    0.0000 C   0  0  0  0  0  0  0  0  0  0  0  0
    2.0800   -1.1915    0.0020 H   0  0  0  0  0  0  0  0  0  0  0  0
    1.1927    0.6929    0.0002 C   0  0  0  0  0  0  0  0  0  0  0  0
    2.0622    1.1901   -0.0019 H   0  0  0  0  0  0  0  0  0  0  0  0
  1  5  1  0
  5  8  1  0
  1  2  1  0
  1  3  1  0
  1  4  1  0
  5  6  1  0
  5  7  1  0
  8  9  1  0
  8 10  1  0
  8 11  1  0
 12 16  1  0
 16 17  2  0
 17 19  1  0
 19 21  2  0
 21 23  1  0
 23 25  2  0
 25 16  1  0
 12 13  1  0
 12 14  1  0
 12 15  1  0
 17 18  1  0
 19 20  1  0
 21 22  1  0
 23 24  1  0
 25 26  1  0
M  CHG  1   8   1
M  END
>  <PDB_ID>  (2281) 
pdb4m44

>  <RESIDUE_NAME>  (2281) 
LYS   PHE

>  <FRAG_NAME>  (2281) 
ETAM   MBZ

>  <FRAG_ATOM_NUM>  (2281) 
fragi: 11  fragj: 15

>  <atom.prop.CHAIN_ID>  (2281) 
A A A A A A A A A A A Z Z Z Z Z Z Z Z Z Z Z Z Z Z Z

>  <atom.prop.IS_HEAVY_ATOM>  (2281) 
1 0 0 0 1 0 0 1 0 0 0 1 0 0 0 1 1 0 1 0 1 0 1 0 1 0

>  <DIFUSE_FUNC_ATOM>  (2281) 
n/a

>  <FINAL_SINGLE_POINT_ENERGY>  (2281) 
0

>  <NONCOV_INTER_ENERGY_QM>  (2281) 
0

>  <FF_Energy>  (2281) 
-8.67

>  <QM_Energy>  (2281) 
-14.95

>  <source>  (2281) 
ETAM_MBZ

>  <Index>  (2281) 
23773

$$$$
ETAM-pdb4m59-A-LYS-608:MBZ-pdb4m59-A-PHE-572
     RDKit          3D

 26 25  0  0  0  0  0  0  0  0999 V2000
   -2.8992   -3.9808    2.8053 C   0  0  0  0  0  0  0  0  0  0  0  0
   -3.0288   -3.2084    2.1938 H   0  0  0  0  0  0  0  0  0  0  0  0
   -3.0345   -3.7039    3.7495 H   0  0  0  0  0  0  0  0  0  0  0  0
   -3.6218   -4.7575    2.5547 H   0  0  0  0  0  0  0  0  0  0  0  0
   -1.4912   -4.4959    2.6466 C   0  0  0  0  0  0  0  0  0  0  0  0
   -1.3588   -5.2819    3.2597 H   0  0  0  0  0  0  0  0  0  0  0  0
   -1.3604   -4.8056    1.6983 H   0  0  0  0  0  0  0  0  0  0  0  0
   -0.4931   -3.4575    2.9624 N   0  0  0  0  0  4  0  0  0  0  0  0
   -0.8330   -2.8752    3.7037 H   0  0  0  0  0  0  0  0  0  0  0  0
    0.3649   -3.8887    3.2487 H   0  0  0  0  0  0  0  0  0  0  0  0
   -0.3231   -2.8931    2.1517 H   0  0  0  0  0  0  0  0  0  0  0  0
   -0.0029    2.8649   -0.0038 C   0  0  0  0  0  0  0  0  0  0  0  0
   -0.4478    3.1685   -0.8355 H   0  0  0  0  0  0  0  0  0  0  0  0
    0.9374    3.1761    0.0283 H   0  0  0  0  0  0  0  0  0  0  0  0
   -0.5321    3.3056    0.8410 H   0  0  0  0  0  0  0  0  0  0  0  0
    0.0007    1.3759    0.0031 C   0  0  0  0  0  0  0  0  0  0  0  0
   -1.1747    0.6767   -0.0011 C   0  0  0  0  0  0  0  0  0  0  0  0
   -2.0480    1.1692   -0.0063 H   0  0  0  0  0  0  0  0  0  0  0  0
   -1.1721   -0.6854   -0.0000 C   0  0  0  0  0  0  0  0  0  0  0  0
   -2.0595   -1.1852    0.0024 H   0  0  0  0  0  0  0  0  0  0  0  0
   -0.0009   -1.3634   -0.0008 C   0  0  0  0  0  0  0  0  0  0  0  0
   -0.0034   -2.3737   -0.0026 H   0  0  0  0  0  0  0  0  0  0  0  0
    1.1721   -0.6825    0.0000 C   0  0  0  0  0  0  0  0  0  0  0  0
    2.0637   -1.1874    0.0034 H   0  0  0  0  0  0  0  0  0  0  0  0
    1.1749    0.6788   -0.0012 C   0  0  0  0  0  0  0  0  0  0  0  0
    2.0504    1.1779   -0.0062 H   0  0  0  0  0  0  0  0  0  0  0  0
  1  5  1  0
  5  8  1  0
  1  2  1  0
  1  3  1  0
  1  4  1  0
  5  6  1  0
  5  7  1  0
  8  9  1  0
  8 10  1  0
  8 11  1  0
 12 16  1  0
 16 17  2  0
 17 19  1  0
 19 21  2  0
 21 23  1  0
 23 25  2  0
 25 16  1  0
 12 13  1  0
 12 14  1  0
 12 15  1  0
 17 18  1  0
 19 20  1  0
 21 22  1  0
 23 24  1  0
 25 26  1  0
M  CHG  1   8   1
M  END
>  <PDB_ID>  (2282) 
pdb4m59

>  <RESIDUE_NAME>  (2282) 
LYS   PHE

>  <FRAG_NAME>  (2282) 
ETAM   MBZ

>  <FRAG_ATOM_NUM>  (2282) 
fragi: 11  fragj: 15

>  <atom.prop.CHAIN_ID>  (2282) 
A A A A A A A A A A A Z Z Z Z Z Z Z Z Z Z Z Z Z Z Z

>  <atom.prop.IS_HEAVY_ATOM>  (2282) 
1 0 0 0 1 0 0 1 0 0 0 1 0 0 0 1 1 0 1 0 1 0 1 0 1 0

>  <DIFUSE_FUNC_ATOM>  (2282) 
n/a

>  <FINAL_SINGLE_POINT_ENERGY>  (2282) 
0

>  <NONCOV_INTER_ENERGY_QM>  (2282) 
0

>  <FF_Energy>  (2282) 
-1.99

>  <QM_Energy>  (2282) 
-7.91

>  <source>  (2282) 
ETAM_MBZ

>  <Index>  (2282) 
23775

$$$$
ETAM-pdb4m59-B-LYS-588:MBZ-pdb4m59-B-PHE-584
     RDKit          3D

 26 25  0  0  0  0  0  0  0  0999 V2000
    0.5641   -1.6069    4.6467 C   0  0  0  0  0  0  0  0  0  0  0  0
    1.2860   -0.9238    4.5225 H   0  0  0  0  0  0  0  0  0  0  0  0
    0.8905   -2.3229    5.2668 H   0  0  0  0  0  0  0  0  0  0  0  0
   -0.3022   -1.1218    5.0966 H   0  0  0  0  0  0  0  0  0  0  0  0
    0.2533   -2.2323    3.3077 C   0  0  0  0  0  0  0  0  0  0  0  0
   -0.4638   -2.9198    3.4245 H   0  0  0  0  0  0  0  0  0  0  0  0
   -0.0682   -1.5221    2.6803 H   0  0  0  0  0  0  0  0  0  0  0  0
    1.4606   -2.8783    2.7357 N   0  0  0  0  0  4  0  0  0  0  0  0
    2.2798   -2.4834    3.1523 H   0  0  0  0  0  0  0  0  0  0  0  0
    1.4326   -3.8605    2.9212 H   0  0  0  0  0  0  0  0  0  0  0  0
    1.4842   -2.7262    1.7470 H   0  0  0  0  0  0  0  0  0  0  0  0
    0.0021    2.8667   -0.0158 C   0  0  0  0  0  0  0  0  0  0  0  0
   -0.3361    3.1643   -0.9006 H   0  0  0  0  0  0  0  0  0  0  0  0
    0.9346    3.1754    0.1254 H   0  0  0  0  0  0  0  0  0  0  0  0
   -0.6231    3.3188    0.7541 H   0  0  0  0  0  0  0  0  0  0  0  0
    0.0010    1.3792    0.0023 C   0  0  0  0  0  0  0  0  0  0  0  0
   -1.1790    0.6786   -0.0040 C   0  0  0  0  0  0  0  0  0  0  0  0
   -2.0496    1.1747   -0.0125 H   0  0  0  0  0  0  0  0  0  0  0  0
   -1.1775   -0.6815    0.0000 C   0  0  0  0  0  0  0  0  0  0  0  0
   -2.0636   -1.1838    0.0005 H   0  0  0  0  0  0  0  0  0  0  0  0
   -0.0014   -1.3648    0.0048 C   0  0  0  0  0  0  0  0  0  0  0  0
   -0.0086   -2.3747    0.0110 H   0  0  0  0  0  0  0  0  0  0  0  0
    1.1775   -0.6889    0.0000 C   0  0  0  0  0  0  0  0  0  0  0  0
    2.0649   -1.1933    0.0004 H   0  0  0  0  0  0  0  0  0  0  0  0
    1.1794    0.6774   -0.0031 C   0  0  0  0  0  0  0  0  0  0  0  0
    2.0534    1.1758   -0.0096 H   0  0  0  0  0  0  0  0  0  0  0  0
  1  5  1  0
  5  8  1  0
  1  2  1  0
  1  3  1  0
  1  4  1  0
  5  6  1  0
  5  7  1  0
  8  9  1  0
  8 10  1  0
  8 11  1  0
 12 16  1  0
 16 17  2  0
 17 19  1  0
 19 21  2  0
 21 23  1  0
 23 25  2  0
 25 16  1  0
 12 13  1  0
 12 14  1  0
 12 15  1  0
 17 18  1  0
 19 20  1  0
 21 22  1  0
 23 24  1  0
 25 26  1  0
M  CHG  1   8   1
M  END
>  <PDB_ID>  (2283) 
pdb4m59

>  <RESIDUE_NAME>  (2283) 
LYS   PHE

>  <FRAG_NAME>  (2283) 
ETAM   MBZ

>  <FRAG_ATOM_NUM>  (2283) 
fragi: 11  fragj: 15

>  <atom.prop.CHAIN_ID>  (2283) 
A A A A A A A A A A A Z Z Z Z Z Z Z Z Z Z Z Z Z Z Z

>  <atom.prop.IS_HEAVY_ATOM>  (2283) 
1 0 0 0 1 0 0 1 0 0 0 1 0 0 0 1 1 0 1 0 1 0 1 0 1 0

>  <DIFUSE_FUNC_ATOM>  (2283) 
n/a

>  <FINAL_SINGLE_POINT_ENERGY>  (2283) 
0

>  <NONCOV_INTER_ENERGY_QM>  (2283) 
0

>  <FF_Energy>  (2283) 
-2.54

>  <QM_Energy>  (2283) 
-9.48

>  <source>  (2283) 
ETAM_MBZ

>  <Index>  (2283) 
23776

$$$$
ETAM-pdb4m5d-A-LYS-156:MBZ-pdb4m5d-A-PHE-152
     RDKit          3D

 26 25  0  0  0  0  0  0  0  0999 V2000
    0.8115   -0.7664    5.5404 C   0  0  0  0  0  0  0  0  0  0  0  0
    0.0858   -1.1368    6.1112 H   0  0  0  0  0  0  0  0  0  0  0  0
    0.8822    0.2181    5.6675 H   0  0  0  0  0  0  0  0  0  0  0  0
    1.7556   -1.2273    5.8309 H   0  0  0  0  0  0  0  0  0  0  0  0
    0.4761   -1.0465    4.0853 C   0  0  0  0  0  0  0  0  0  0  0  0
    0.3769   -2.0364    3.9568 H   0  0  0  0  0  0  0  0  0  0  0  0
   -0.3922   -0.5993    3.8570 H   0  0  0  0  0  0  0  0  0  0  0  0
    1.5393   -0.5407    3.1644 N   0  0  0  0  0  4  0  0  0  0  0  0
    1.1598   -0.4464    2.2454 H   0  0  0  0  0  0  0  0  0  0  0  0
    1.8607    0.3476    3.4898 H   0  0  0  0  0  0  0  0  0  0  0  0
    2.2984   -1.1893    3.1509 H   0  0  0  0  0  0  0  0  0  0  0  0
   -0.0007    2.9200    0.0075 C   0  0  0  0  0  0  0  0  0  0  0  0
   -0.7862    3.2273   -0.5055 H   0  0  0  0  0  0  0  0  0  0  0  0
    0.8438    3.2277   -0.4010 H   0  0  0  0  0  0  0  0  0  0  0  0
   -0.0643    3.3557    1.0046 H   0  0  0  0  0  0  0  0  0  0  0  0
   -0.0005    1.4094    0.0001 C   0  0  0  0  0  0  0  0  0  0  0  0
   -1.1984    0.6990   -0.0002 C   0  0  0  0  0  0  0  0  0  0  0  0
   -2.0661    1.1852   -0.0021 H   0  0  0  0  0  0  0  0  0  0  0  0
   -1.2038   -0.7024   -0.0000 C   0  0  0  0  0  0  0  0  0  0  0  0
   -2.0810   -1.1911    0.0012 H   0  0  0  0  0  0  0  0  0  0  0  0
   -0.0004   -1.4011    0.0007 C   0  0  0  0  0  0  0  0  0  0  0  0
   -0.0039   -2.3985    0.0011 H   0  0  0  0  0  0  0  0  0  0  0  0
    1.2038   -0.7018   -0.0000 C   0  0  0  0  0  0  0  0  0  0  0  0
    2.0844   -1.1966    0.0011 H   0  0  0  0  0  0  0  0  0  0  0  0
    1.1994    0.6969   -0.0006 C   0  0  0  0  0  0  0  0  0  0  0  0
    2.0667    1.1906   -0.0025 H   0  0  0  0  0  0  0  0  0  0  0  0
  1  5  1  0
  5  8  1  0
  1  2  1  0
  1  3  1  0
  1  4  1  0
  5  6  1  0
  5  7  1  0
  8  9  1  0
  8 10  1  0
  8 11  1  0
 12 16  1  0
 16 17  2  0
 17 19  1  0
 19 21  2  0
 21 23  1  0
 23 25  2  0
 25 16  1  0
 12 13  1  0
 12 14  1  0
 12 15  1  0
 17 18  1  0
 19 20  1  0
 21 22  1  0
 23 24  1  0
 25 26  1  0
M  CHG  1   8   1
M  END
>  <PDB_ID>  (2284) 
pdb4m5d

>  <RESIDUE_NAME>  (2284) 
LYS   PHE

>  <FRAG_NAME>  (2284) 
ETAM   MBZ

>  <FRAG_ATOM_NUM>  (2284) 
fragi: 11  fragj: 15

>  <atom.prop.CHAIN_ID>  (2284) 
A A A A A A A A A A A Z Z Z Z Z Z Z Z Z Z Z Z Z Z Z

>  <atom.prop.IS_HEAVY_ATOM>  (2284) 
1 0 0 0 1 0 0 1 0 0 0 1 0 0 0 1 1 0 1 0 1 0 1 0 1 0

>  <DIFUSE_FUNC_ATOM>  (2284) 
n/a

>  <FINAL_SINGLE_POINT_ENERGY>  (2284) 
0

>  <NONCOV_INTER_ENERGY_QM>  (2284) 
0

>  <FF_Energy>  (2284) 
-6.97

>  <QM_Energy>  (2284) 
-14.52

>  <source>  (2284) 
ETAM_MBZ

>  <Index>  (2284) 
23792

$$$$
ETAM-pdb4m66-A-LYS-63:MBZ-pdb4m66-A-PHE-167
     RDKit          3D

 26 25  0  0  0  0  0  0  0  0999 V2000
    4.5798   -2.3275    2.1170 C   0  0  0  0  0  0  0  0  0  0  0  0
    3.8628   -3.0066    2.2058 H   0  0  0  0  0  0  0  0  0  0  0  0
    5.3792   -2.5863    2.6431 H   0  0  0  0  0  0  0  0  0  0  0  0
    4.8543   -2.2262    1.0670 H   0  0  0  0  0  0  0  0  0  0  0  0
    4.0492   -0.9969    2.6793 C   0  0  0  0  0  0  0  0  0  0  0  0
    3.1027   -1.1376    2.9982 H   0  0  0  0  0  0  0  0  0  0  0  0
    4.6116   -0.7374    3.4758 H   0  0  0  0  0  0  0  0  0  0  0  0
    4.0626    0.1372    1.6869 N   0  0  0  0  0  4  0  0  0  0  0  0
    3.5806    0.9157    2.0808 H   0  0  0  0  0  0  0  0  0  0  0  0
    5.0082    0.3830    1.4920 H   0  0  0  0  0  0  0  0  0  0  0  0
    3.6073   -0.1599    0.8515 H   0  0  0  0  0  0  0  0  0  0  0  0
    0.0002    2.8945   -0.0012 C   0  0  0  0  0  0  0  0  0  0  0  0
    0.8861    3.2012    0.3127 H   0  0  0  0  0  0  0  0  0  0  0  0
   -0.7211    3.2024    0.6003 H   0  0  0  0  0  0  0  0  0  0  0  0
   -0.1763    3.3318   -0.9839 H   0  0  0  0  0  0  0  0  0  0  0  0
    0.0000    1.3931    0.0012 C   0  0  0  0  0  0  0  0  0  0  0  0
   -1.1902    0.6878   -0.0004 C   0  0  0  0  0  0  0  0  0  0  0  0
   -2.0585    1.1807   -0.0031 H   0  0  0  0  0  0  0  0  0  0  0  0
   -1.1943   -0.6930   -0.0000 C   0  0  0  0  0  0  0  0  0  0  0  0
   -2.0735   -1.1890    0.0018 H   0  0  0  0  0  0  0  0  0  0  0  0
   -0.0004   -1.3839   -0.0000 C   0  0  0  0  0  0  0  0  0  0  0  0
   -0.0039   -2.3857   -0.0005 H   0  0  0  0  0  0  0  0  0  0  0  0
    1.1943   -0.6924    0.0000 C   0  0  0  0  0  0  0  0  0  0  0  0
    2.0772   -1.1926    0.0025 H   0  0  0  0  0  0  0  0  0  0  0  0
    1.1906    0.6885   -0.0008 C   0  0  0  0  0  0  0  0  0  0  0  0
    2.0609    1.1874   -0.0037 H   0  0  0  0  0  0  0  0  0  0  0  0
  1  5  1  0
  5  8  1  0
  1  2  1  0
  1  3  1  0
  1  4  1  0
  5  6  1  0
  5  7  1  0
  8  9  1  0
  8 10  1  0
  8 11  1  0
 12 16  1  0
 16 17  2  0
 17 19  1  0
 19 21  2  0
 21 23  1  0
 23 25  2  0
 25 16  1  0
 12 13  1  0
 12 14  1  0
 12 15  1  0
 17 18  1  0
 19 20  1  0
 21 22  1  0
 23 24  1  0
 25 26  1  0
M  CHG  1   8   1
M  END
>  <PDB_ID>  (2285) 
pdb4m66

>  <RESIDUE_NAME>  (2285) 
LYS   PHE

>  <FRAG_NAME>  (2285) 
ETAM   MBZ

>  <FRAG_ATOM_NUM>  (2285) 
fragi: 11  fragj: 15

>  <atom.prop.CHAIN_ID>  (2285) 
A A A A A A A A A A A Z Z Z Z Z Z Z Z Z Z Z Z Z Z Z

>  <atom.prop.IS_HEAVY_ATOM>  (2285) 
1 0 0 0 1 0 0 1 0 0 0 1 0 0 0 1 1 0 1 0 1 0 1 0 1 0

>  <DIFUSE_FUNC_ATOM>  (2285) 
n/a

>  <FINAL_SINGLE_POINT_ENERGY>  (2285) 
0

>  <NONCOV_INTER_ENERGY_QM>  (2285) 
0

>  <FF_Energy>  (2285) 
-0.21

>  <QM_Energy>  (2285) 
-6.02

>  <source>  (2285) 
ETAM_MBZ

>  <Index>  (2285) 
23799

$$$$
ETAM-pdb4m7r-A-LYS-187:MBZ-pdb4m7r-A-PHE-190
     RDKit          3D

 26 25  0  0  0  0  0  0  0  0999 V2000
   -3.8237   -3.5971   -2.4414 C   0  0  0  0  0  0  0  0  0  0  0  0
   -4.1238   -4.5272   -2.2399 H   0  0  0  0  0  0  0  0  0  0  0  0
   -3.3626   -3.5742   -3.3256 H   0  0  0  0  0  0  0  0  0  0  0  0
   -4.6867   -2.9314   -2.4610 H   0  0  0  0  0  0  0  0  0  0  0  0
   -2.8061   -3.1877   -1.3693 C   0  0  0  0  0  0  0  0  0  0  0  0
   -2.3430   -2.3618   -1.6629 H   0  0  0  0  0  0  0  0  0  0  0  0
   -3.2819   -3.0422   -0.5120 H   0  0  0  0  0  0  0  0  0  0  0  0
   -1.7944   -4.2852   -1.1929 N   0  0  0  0  0  4  0  0  0  0  0  0
   -2.2532   -5.1663   -1.2823 H   0  0  0  0  0  0  0  0  0  0  0  0
   -1.0918   -4.1942   -1.8949 H   0  0  0  0  0  0  0  0  0  0  0  0
   -1.3839   -4.2054   -0.2883 H   0  0  0  0  0  0  0  0  0  0  0  0
    0.0006    2.8973   -0.0004 C   0  0  0  0  0  0  0  0  0  0  0  0
    0.7064    3.2023   -0.6215 H   0  0  0  0  0  0  0  0  0  0  0  0
    0.1759    3.2041    0.9231 H   0  0  0  0  0  0  0  0  0  0  0  0
   -0.9422    3.3376   -0.3249 H   0  0  0  0  0  0  0  0  0  0  0  0
   -0.0005    1.3944    0.0006 C   0  0  0  0  0  0  0  0  0  0  0  0
   -1.1912    0.6889    0.0010 C   0  0  0  0  0  0  0  0  0  0  0  0
   -2.0595    1.1796    0.0011 H   0  0  0  0  0  0  0  0  0  0  0  0
   -1.1936   -0.6934    0.0000 C   0  0  0  0  0  0  0  0  0  0  0  0
   -2.0726   -1.1897    0.0005 H   0  0  0  0  0  0  0  0  0  0  0  0
    0.0002   -1.3856   -0.0001 C   0  0  0  0  0  0  0  0  0  0  0  0
   -0.0033   -2.3868   -0.0006 H   0  0  0  0  0  0  0  0  0  0  0  0
    1.1936   -0.6931   -0.0000 C   0  0  0  0  0  0  0  0  0  0  0  0
    2.0773   -1.1935    0.0032 H   0  0  0  0  0  0  0  0  0  0  0  0
    1.1915    0.6889   -0.0015 C   0  0  0  0  0  0  0  0  0  0  0  0
    2.0609    1.1867   -0.0046 H   0  0  0  0  0  0  0  0  0  0  0  0
  1  5  1  0
  5  8  1  0
  1  2  1  0
  1  3  1  0
  1  4  1  0
  5  6  1  0
  5  7  1  0
  8  9  1  0
  8 10  1  0
  8 11  1  0
 12 16  1  0
 16 17  2  0
 17 19  1  0
 19 21  2  0
 21 23  1  0
 23 25  2  0
 25 16  1  0
 12 13  1  0
 12 14  1  0
 12 15  1  0
 17 18  1  0
 19 20  1  0
 21 22  1  0
 23 24  1  0
 25 26  1  0
M  CHG  1   8   1
M  END
>  <PDB_ID>  (2286) 
pdb4m7r

>  <RESIDUE_NAME>  (2286) 
LYS   PHE

>  <FRAG_NAME>  (2286) 
ETAM   MBZ

>  <FRAG_ATOM_NUM>  (2286) 
fragi: 11  fragj: 15

>  <atom.prop.CHAIN_ID>  (2286) 
A A A A A A A A A A A Z Z Z Z Z Z Z Z Z Z Z Z Z Z Z

>  <atom.prop.IS_HEAVY_ATOM>  (2286) 
1 0 0 0 1 0 0 1 0 0 0 1 0 0 0 1 1 0 1 0 1 0 1 0 1 0

>  <DIFUSE_FUNC_ATOM>  (2286) 
n/a

>  <FINAL_SINGLE_POINT_ENERGY>  (2286) 
0

>  <NONCOV_INTER_ENERGY_QM>  (2286) 
0

>  <FF_Energy>  (2286) 
2.74

>  <QM_Energy>  (2286) 
-3.25

>  <source>  (2286) 
ETAM_MBZ

>  <Index>  (2286) 
23825

$$$$
ETAM-pdb3ogn-A-LYS-112:MBZ-pdb3ogn-A-PHE-108
     RDKit          3D

 26 25  0  0  0  0  0  0  0  0999 V2000
    1.3195   -1.4529    3.5358 C   0  0  0  0  0  0  0  0  0  0  0  0
    1.6110   -2.0874    4.2314 H   0  0  0  0  0  0  0  0  0  0  0  0
    1.2640   -1.8781    2.6487 H   0  0  0  0  0  0  0  0  0  0  0  0
    0.3298   -1.0825    3.8030 H   0  0  0  0  0  0  0  0  0  0  0  0
    2.3487   -0.2939    3.4627 C   0  0  0  0  0  0  0  0  0  0  0  0
    1.9095    0.5069    3.0124 H   0  0  0  0  0  0  0  0  0  0  0  0
    2.5834   -0.0028    4.4099 H   0  0  0  0  0  0  0  0  0  0  0  0
    3.6931   -0.5651    2.7160 N   0  0  0  0  0  4  0  0  0  0  0  0
    4.1842    0.2909    2.6736 H   0  0  0  0  0  0  0  0  0  0  0  0
    4.1893   -1.2420    3.2383 H   0  0  0  0  0  0  0  0  0  0  0  0
    3.4668   -0.8984    1.8134 H   0  0  0  0  0  0  0  0  0  0  0  0
   -0.0214    2.8867   -0.1543 C   0  0  0  0  0  0  0  0  0  0  0  0
   -0.5518    3.1295   -0.9614 H   0  0  0  0  0  0  0  0  0  0  0  0
    0.9162    3.2066   -0.2505 H   0  0  0  0  0  0  0  0  0  0  0  0
   -0.4605    3.4082    0.6962 H   0  0  0  0  0  0  0  0  0  0  0  0
   -0.0056    1.4193   -0.0279 C   0  0  0  0  0  0  0  0  0  0  0  0
   -1.1882    0.6896   -0.0249 C   0  0  0  0  0  0  0  0  0  0  0  0
   -2.0662    1.1463   -0.0411 H   0  0  0  0  0  0  0  0  0  0  0  0
   -1.1640   -0.7337    0.0000 C   0  0  0  0  0  0  0  0  0  0  0  0
   -2.0498   -1.2133   -0.0248 H   0  0  0  0  0  0  0  0  0  0  0  0
    0.0049   -1.3618    0.0560 C   0  0  0  0  0  0  0  0  0  0  0  0
   -0.0095   -2.4052    0.1499 H   0  0  0  0  0  0  0  0  0  0  0  0
    1.1640   -0.7491   -0.0000 C   0  0  0  0  0  0  0  0  0  0  0  0
    2.0616   -1.1980   -0.0411 H   0  0  0  0  0  0  0  0  0  0  0  0
    1.1890    0.7356   -0.0032 C   0  0  0  0  0  0  0  0  0  0  0  0
    2.0596    1.1718    0.0119 H   0  0  0  0  0  0  0  0  0  0  0  0
  1  5  1  0
  5  8  1  0
  1  2  1  0
  1  3  1  0
  1  4  1  0
  5  6  1  0
  5  7  1  0
  8  9  1  0
  8 10  1  0
  8 11  1  0
 12 16  1  0
 16 17  2  0
 17 19  1  0
 19 21  2  0
 21 23  1  0
 23 25  2  0
 25 16  1  0
 12 13  1  0
 12 14  1  0
 12 15  1  0
 17 18  1  0
 19 20  1  0
 21 22  1  0
 23 24  1  0
 25 26  1  0
M  CHG  1   8   1
M  END
>  <PDB_ID>  (2287) 
pdb3ogn

>  <RESIDUE_NAME>  (2287) 
LYS   PHE

>  <FRAG_NAME>  (2287) 
ETAM   MBZ

>  <FRAG_ATOM_NUM>  (2287) 
fragi: 11  fragj: 15

>  <atom.prop.CHAIN_ID>  (2287) 
A A A A A A A A A A A Z Z Z Z Z Z Z Z Z Z Z Z Z Z Z

>  <atom.prop.IS_HEAVY_ATOM>  (2287) 
1 0 0 0 1 0 0 1 0 0 0 1 0 0 0 1 1 0 1 0 1 0 1 0 1 0

>  <DIFUSE_FUNC_ATOM>  (2287) 
n/a

>  <FINAL_SINGLE_POINT_ENERGY>  (2287) 
0

>  <NONCOV_INTER_ENERGY_QM>  (2287) 
0

>  <FF_Energy>  (2287) 
-2.72

>  <QM_Energy>  (2287) 
-7.81

>  <source>  (2287) 
ETAM_MBZ

>  <Index>  (2287) 
23830

$$$$
ETAM-pdb3ogn-B-LYS-112:MBZ-pdb3ogn-B-PHE-108
     RDKit          3D

 26 25  0  0  0  0  0  0  0  0999 V2000
    1.3472   -1.4811    3.4631 C   0  0  0  0  0  0  0  0  0  0  0  0
    1.7504   -2.0641    4.1378 H   0  0  0  0  0  0  0  0  0  0  0  0
    1.2023   -1.9285    2.6056 H   0  0  0  0  0  0  0  0  0  0  0  0
    0.4002   -1.0920    3.8371 H   0  0  0  0  0  0  0  0  0  0  0  0
    2.3431   -0.2833    3.2123 C   0  0  0  0  0  0  0  0  0  0  0  0
    1.8395    0.3911    2.6114 H   0  0  0  0  0  0  0  0  0  0  0  0
    2.4414    0.2069    4.1175 H   0  0  0  0  0  0  0  0  0  0  0  0
    3.6655   -0.5574    2.6506 N   0  0  0  0  0  4  0  0  0  0  0  0
    4.0018   -1.4437    2.9799 H   0  0  0  0  0  0  0  0  0  0  0  0
    3.6160   -0.5805    1.6480 H   0  0  0  0  0  0  0  0  0  0  0  0
    4.3126    0.1588    2.9277 H   0  0  0  0  0  0  0  0  0  0  0  0
   -0.0246    2.9024   -0.1126 C   0  0  0  0  0  0  0  0  0  0  0  0
   -0.5337    3.1484   -0.9250 H   0  0  0  0  0  0  0  0  0  0  0  0
    0.9092    3.2265   -0.1645 H   0  0  0  0  0  0  0  0  0  0  0  0
   -0.4990    3.3922    0.7377 H   0  0  0  0  0  0  0  0  0  0  0  0
    0.0032    1.4118   -0.0123 C   0  0  0  0  0  0  0  0  0  0  0  0
   -1.2075    0.6538   -0.0312 C   0  0  0  0  0  0  0  0  0  0  0  0
   -2.0739    1.1457   -0.0693 H   0  0  0  0  0  0  0  0  0  0  0  0
   -1.2047   -0.7387   -0.0000 C   0  0  0  0  0  0  0  0  0  0  0  0
   -2.0651   -1.2366   -0.0068 H   0  0  0  0  0  0  0  0  0  0  0  0
    0.0008   -1.3585    0.0410 C   0  0  0  0  0  0  0  0  0  0  0  0
    0.0025   -2.4011    0.1082 H   0  0  0  0  0  0  0  0  0  0  0  0
    1.2047   -0.7276    0.0000 C   0  0  0  0  0  0  0  0  0  0  0  0
    2.0801   -1.1802   -0.0300 H   0  0  0  0  0  0  0  0  0  0  0  0
    1.2035    0.7591    0.0026 C   0  0  0  0  0  0  0  0  0  0  0  0
    2.0676    1.2067    0.0142 H   0  0  0  0  0  0  0  0  0  0  0  0
  1  5  1  0
  5  8  1  0
  1  2  1  0
  1  3  1  0
  1  4  1  0
  5  6  1  0
  5  7  1  0
  8  9  1  0
  8 10  1  0
  8 11  1  0
 12 16  1  0
 16 17  2  0
 17 19  1  0
 19 21  2  0
 21 23  1  0
 23 25  2  0
 25 16  1  0
 12 13  1  0
 12 14  1  0
 12 15  1  0
 17 18  1  0
 19 20  1  0
 21 22  1  0
 23 24  1  0
 25 26  1  0
M  CHG  1   8   1
M  END
>  <PDB_ID>  (2288) 
pdb3ogn

>  <RESIDUE_NAME>  (2288) 
LYS   PHE

>  <FRAG_NAME>  (2288) 
ETAM   MBZ

>  <FRAG_ATOM_NUM>  (2288) 
fragi: 11  fragj: 15

>  <atom.prop.CHAIN_ID>  (2288) 
A A A A A A A A A A A Z Z Z Z Z Z Z Z Z Z Z Z Z Z Z

>  <atom.prop.IS_HEAVY_ATOM>  (2288) 
1 0 0 0 1 0 0 1 0 0 0 1 0 0 0 1 1 0 1 0 1 0 1 0 1 0

>  <DIFUSE_FUNC_ATOM>  (2288) 
n/a

>  <FINAL_SINGLE_POINT_ENERGY>  (2288) 
0

>  <NONCOV_INTER_ENERGY_QM>  (2288) 
0

>  <FF_Energy>  (2288) 
-2.3

>  <QM_Energy>  (2288) 
-7.69

>  <source>  (2288) 
ETAM_MBZ

>  <Index>  (2288) 
23832

$$$$
ETAM-pdb4m66-B-LYS-51:MBZ-pdb4m66-B-PHE-33
     RDKit          3D

 26 25  0  0  0  0  0  0  0  0999 V2000
    5.3663    0.9373    1.1735 C   0  0  0  0  0  0  0  0  0  0  0  0
    5.0711    0.0248    1.4474 H   0  0  0  0  0  0  0  0  0  0  0  0
    5.9716    1.3222    1.8655 H   0  0  0  0  0  0  0  0  0  0  0  0
    5.9149    0.8588    0.2349 H   0  0  0  0  0  0  0  0  0  0  0  0
    4.1441    1.8269    1.0458 C   0  0  0  0  0  0  0  0  0  0  0  0
    4.4321    2.7386    0.7449 H   0  0  0  0  0  0  0  0  0  0  0  0
    3.5248    1.4365    0.3615 H   0  0  0  0  0  0  0  0  0  0  0  0
    3.4200    1.9486    2.3440 N   0  0  0  0  0  4  0  0  0  0  0  0
    3.9576    1.5123    3.0641 H   0  0  0  0  0  0  0  0  0  0  0  0
    3.2910    2.9149    2.5604 H   0  0  0  0  0  0  0  0  0  0  0  0
    2.5310    1.4992    2.2694 H   0  0  0  0  0  0  0  0  0  0  0  0
    0.0058    2.9072    0.0048 C   0  0  0  0  0  0  0  0  0  0  0  0
    0.8877    3.2054    0.3370 H   0  0  0  0  0  0  0  0  0  0  0  0
   -0.7247    3.2105    0.5983 H   0  0  0  0  0  0  0  0  0  0  0  0
   -0.1516    3.3587   -0.9748 H   0  0  0  0  0  0  0  0  0  0  0  0
   -0.0004    1.3971   -0.0052 C   0  0  0  0  0  0  0  0  0  0  0  0
   -1.1919    0.6939    0.0037 C   0  0  0  0  0  0  0  0  0  0  0  0
   -2.0600    1.1848    0.0113 H   0  0  0  0  0  0  0  0  0  0  0  0
   -1.1946   -0.6894    0.0000 C   0  0  0  0  0  0  0  0  0  0  0  0
   -2.0726   -1.1872    0.0017 H   0  0  0  0  0  0  0  0  0  0  0  0
    0.0051   -1.3894   -0.0043 C   0  0  0  0  0  0  0  0  0  0  0  0
   -0.0049   -2.3880   -0.0109 H   0  0  0  0  0  0  0  0  0  0  0  0
    1.1946   -0.6973    0.0000 C   0  0  0  0  0  0  0  0  0  0  0  0
    2.0807   -1.1931    0.0010 H   0  0  0  0  0  0  0  0  0  0  0  0
    1.1872    0.6850    0.0057 C   0  0  0  0  0  0  0  0  0  0  0  0
    2.0604    1.1838    0.0172 H   0  0  0  0  0  0  0  0  0  0  0  0
  1  5  1  0
  5  8  1  0
  1  2  1  0
  1  3  1  0
  1  4  1  0
  5  6  1  0
  5  7  1  0
  8  9  1  0
  8 10  1  0
  8 11  1  0
 12 16  1  0
 16 17  2  0
 17 19  1  0
 19 21  2  0
 21 23  1  0
 23 25  2  0
 25 16  1  0
 12 13  1  0
 12 14  1  0
 12 15  1  0
 17 18  1  0
 19 20  1  0
 21 22  1  0
 23 24  1  0
 25 26  1  0
M  CHG  1   8   1
M  END
>  <PDB_ID>  (2289) 
pdb4m66

>  <RESIDUE_NAME>  (2289) 
LYS   PHE

>  <FRAG_NAME>  (2289) 
ETAM   MBZ

>  <FRAG_ATOM_NUM>  (2289) 
fragi: 11  fragj: 15

>  <atom.prop.CHAIN_ID>  (2289) 
A A A A A A A A A A A Z Z Z Z Z Z Z Z Z Z Z Z Z Z Z

>  <atom.prop.IS_HEAVY_ATOM>  (2289) 
1 0 0 0 1 0 0 1 0 0 0 1 0 0 0 1 1 0 1 0 1 0 1 0 1 0

>  <DIFUSE_FUNC_ATOM>  (2289) 
n/a

>  <FINAL_SINGLE_POINT_ENERGY>  (2289) 
0

>  <NONCOV_INTER_ENERGY_QM>  (2289) 
0

>  <FF_Energy>  (2289) 
29.2

>  <QM_Energy>  (2289) 
-2.12

>  <source>  (2289) 
ETAM_MBZ

>  <Index>  (2289) 
23841

$$$$
ETAM-pdb4m8s-B-LYS-34:MBZ-pdb4m8s-B-PHE-81
     RDKit          3D

 26 25  0  0  0  0  0  0  0  0999 V2000
   -1.9373    0.2854    4.4557 C   0  0  0  0  0  0  0  0  0  0  0  0
   -2.0388   -0.0730    5.3743 H   0  0  0  0  0  0  0  0  0  0  0  0
   -2.8214    0.4350    4.0338 H   0  0  0  0  0  0  0  0  0  0  0  0
   -1.3952    1.2302    4.4979 H   0  0  0  0  0  0  0  0  0  0  0  0
   -1.1687   -0.7275    3.6231 C   0  0  0  0  0  0  0  0  0  0  0  0
   -0.8758   -0.2876    2.7638 H   0  0  0  0  0  0  0  0  0  0  0  0
   -0.3410   -1.0049    4.1295 H   0  0  0  0  0  0  0  0  0  0  0  0
   -1.9681   -1.9408    3.2987 N   0  0  0  0  0  4  0  0  0  0  0  0
   -1.5943   -2.3749    2.4795 H   0  0  0  0  0  0  0  0  0  0  0  0
   -1.9257   -2.5807    4.0654 H   0  0  0  0  0  0  0  0  0  0  0  0
   -2.9178   -1.6770    3.1347 H   0  0  0  0  0  0  0  0  0  0  0  0
   -0.0084    2.8965   -0.0229 C   0  0  0  0  0  0  0  0  0  0  0  0
    0.9151    3.2084    0.1297 H   0  0  0  0  0  0  0  0  0  0  0  0
   -0.6208    3.2106    0.6836 H   0  0  0  0  0  0  0  0  0  0  0  0
   -0.3504    3.3045   -0.9740 H   0  0  0  0  0  0  0  0  0  0  0  0
   -0.0011    1.3945    0.0048 C   0  0  0  0  0  0  0  0  0  0  0  0
   -1.1934    0.6825   -0.0044 C   0  0  0  0  0  0  0  0  0  0  0  0
   -2.0633    1.1718   -0.0159 H   0  0  0  0  0  0  0  0  0  0  0  0
   -1.1973   -0.7069   -0.0000 C   0  0  0  0  0  0  0  0  0  0  0  0
   -2.0710   -1.2018    0.0035 H   0  0  0  0  0  0  0  0  0  0  0  0
    0.0053   -1.3907    0.0021 C   0  0  0  0  0  0  0  0  0  0  0  0
    0.0135   -2.3889    0.0045 H   0  0  0  0  0  0  0  0  0  0  0  0
    1.1973   -0.6809    0.0000 C   0  0  0  0  0  0  0  0  0  0  0  0
    2.0848   -1.1774    0.0022 H   0  0  0  0  0  0  0  0  0  0  0  0
    1.1892    0.7015   -0.0025 C   0  0  0  0  0  0  0  0  0  0  0  0
    2.0575    1.2013   -0.0106 H   0  0  0  0  0  0  0  0  0  0  0  0
  1  5  1  0
  5  8  1  0
  1  2  1  0
  1  3  1  0
  1  4  1  0
  5  6  1  0
  5  7  1  0
  8  9  1  0
  8 10  1  0
  8 11  1  0
 12 16  1  0
 16 17  2  0
 17 19  1  0
 19 21  2  0
 21 23  1  0
 23 25  2  0
 25 16  1  0
 12 13  1  0
 12 14  1  0
 12 15  1  0
 17 18  1  0
 19 20  1  0
 21 22  1  0
 23 24  1  0
 25 26  1  0
M  CHG  1   8   1
M  END
>  <PDB_ID>  (2290) 
pdb4m8s

>  <RESIDUE_NAME>  (2290) 
LYS   PHE

>  <FRAG_NAME>  (2290) 
ETAM   MBZ

>  <FRAG_ATOM_NUM>  (2290) 
fragi: 11  fragj: 15

>  <atom.prop.CHAIN_ID>  (2290) 
A A A A A A A A A A A Z Z Z Z Z Z Z Z Z Z Z Z Z Z Z

>  <atom.prop.IS_HEAVY_ATOM>  (2290) 
1 0 0 0 1 0 0 1 0 0 0 1 0 0 0 1 1 0 1 0 1 0 1 0 1 0

>  <DIFUSE_FUNC_ATOM>  (2290) 
n/a

>  <FINAL_SINGLE_POINT_ENERGY>  (2290) 
0

>  <NONCOV_INTER_ENERGY_QM>  (2290) 
0

>  <FF_Energy>  (2290) 
-4.16

>  <QM_Energy>  (2290) 
-9.79

>  <source>  (2290) 
ETAM_MBZ

>  <Index>  (2290) 
23859

$$$$
ETAM-pdb3ois-A-LYS-51:MBZ-pdb3ois-D-PHE-45
     RDKit          3D

 26 25  0  0  0  0  0  0  0  0999 V2000
    1.8867   -0.9538    2.9720 C   0  0  0  0  0  0  0  0  0  0  0  0
    2.5684   -0.5282    2.3879 H   0  0  0  0  0  0  0  0  0  0  0  0
    1.4285   -1.6928    2.4924 H   0  0  0  0  0  0  0  0  0  0  0  0
    2.3597   -1.3349    3.8770 H   0  0  0  0  0  0  0  0  0  0  0  0
    0.8225    0.1171    3.3057 C   0  0  0  0  0  0  0  0  0  0  0  0
    0.1590    0.1581    2.5409 H   0  0  0  0  0  0  0  0  0  0  0  0
    0.3157   -0.1809    4.1313 H   0  0  0  0  0  0  0  0  0  0  0  0
    1.3631    1.5128    3.5503 N   0  0  0  0  0  4  0  0  0  0  0  0
    2.2747    1.4362    3.9406 H   0  0  0  0  0  0  0  0  0  0  0  0
    1.3986    1.9964    2.6815 H   0  0  0  0  0  0  0  0  0  0  0  0
    0.7544    1.9824    4.1817 H   0  0  0  0  0  0  0  0  0  0  0  0
   -0.0099    2.9274   -0.0009 C   0  0  0  0  0  0  0  0  0  0  0  0
    0.4762    3.2360   -0.8081 H   0  0  0  0  0  0  0  0  0  0  0  0
    0.4461    3.2335    0.8247 H   0  0  0  0  0  0  0  0  0  0  0  0
   -0.9898    3.4045   -0.0178 H   0  0  0  0  0  0  0  0  0  0  0  0
   -0.0302    1.4258   -0.0040 C   0  0  0  0  0  0  0  0  0  0  0  0
   -1.2017    0.6948    0.0361 C   0  0  0  0  0  0  0  0  0  0  0  0
   -2.0867    1.1570    0.0911 H   0  0  0  0  0  0  0  0  0  0  0  0
   -1.2052   -0.7320    0.0000 C   0  0  0  0  0  0  0  0  0  0  0  0
   -2.0621   -1.2225   -0.0007 H   0  0  0  0  0  0  0  0  0  0  0  0
    0.0357   -1.4219   -0.0325 C   0  0  0  0  0  0  0  0  0  0  0  0
    0.0311   -2.4136   -0.0784 H   0  0  0  0  0  0  0  0  0  0  0  0
    1.2052   -0.7035    0.0000 C   0  0  0  0  0  0  0  0  0  0  0  0
    2.1101   -1.1635    0.0262 H   0  0  0  0  0  0  0  0  0  0  0  0
    1.1962    0.7369    0.0004 C   0  0  0  0  0  0  0  0  0  0  0  0
    2.0499    1.2212    0.0035 H   0  0  0  0  0  0  0  0  0  0  0  0
  1  5  1  0
  5  8  1  0
  1  2  1  0
  1  3  1  0
  1  4  1  0
  5  6  1  0
  5  7  1  0
  8  9  1  0
  8 10  1  0
  8 11  1  0
 12 16  1  0
 16 17  2  0
 17 19  1  0
 19 21  2  0
 21 23  1  0
 23 25  2  0
 25 16  1  0
 12 13  1  0
 12 14  1  0
 12 15  1  0
 17 18  1  0
 19 20  1  0
 21 22  1  0
 23 24  1  0
 25 26  1  0
M  CHG  1   8   1
M  END
>  <PDB_ID>  (2291) 
pdb3ois

>  <RESIDUE_NAME>  (2291) 
LYS   PHE

>  <FRAG_NAME>  (2291) 
ETAM   MBZ

>  <FRAG_ATOM_NUM>  (2291) 
fragi: 11  fragj: 15

>  <atom.prop.CHAIN_ID>  (2291) 
A A A A A A A A A A A Z Z Z Z Z Z Z Z Z Z Z Z Z Z Z

>  <atom.prop.IS_HEAVY_ATOM>  (2291) 
1 0 0 0 1 0 0 1 0 0 0 1 0 0 0 1 1 0 1 0 1 0 1 0 1 0

>  <DIFUSE_FUNC_ATOM>  (2291) 
n/a

>  <FINAL_SINGLE_POINT_ENERGY>  (2291) 
0

>  <NONCOV_INTER_ENERGY_QM>  (2291) 
0

>  <FF_Energy>  (2291) 
-3.99

>  <QM_Energy>  (2291) 
-10.37

>  <source>  (2291) 
ETAM_MBZ

>  <Index>  (2291) 
23867

$$$$
ETAM-pdb3oa5-B-LYS-370:MBZ-pdb3oa5-B-PHE-68
     RDKit          3D

 26 25  0  0  0  0  0  0  0  0999 V2000
   -4.3694   -0.5020   -4.3784 C   0  0  0  0  0  0  0  0  0  0  0  0
   -4.8698   -1.1591   -3.8357 H   0  0  0  0  0  0  0  0  0  0  0  0
   -3.8899   -0.9384   -5.1242 H   0  0  0  0  0  0  0  0  0  0  0  0
   -5.0964    0.1842   -4.8125 H   0  0  0  0  0  0  0  0  0  0  0  0
   -3.4497    0.2627   -3.5484 C   0  0  0  0  0  0  0  0  0  0  0  0
   -2.8587    0.8611   -4.1457 H   0  0  0  0  0  0  0  0  0  0  0  0
   -3.9802    0.9238   -2.9606 H   0  0  0  0  0  0  0  0  0  0  0  0
   -2.5671   -0.5172   -2.6719 N   0  0  0  0  0  4  0  0  0  0  0  0
   -2.9805   -0.6059   -1.7629 H   0  0  0  0  0  0  0  0  0  0  0  0
   -2.4244   -1.4322   -3.0570 H   0  0  0  0  0  0  0  0  0  0  0  0
   -1.6802   -0.0572   -2.5840 H   0  0  0  0  0  0  0  0  0  0  0  0
   -0.0127    2.9090    0.0142 C   0  0  0  0  0  0  0  0  0  0  0  0
    0.9029    3.2201    0.2135 H   0  0  0  0  0  0  0  0  0  0  0  0
   -0.6551    3.2075    0.7024 H   0  0  0  0  0  0  0  0  0  0  0  0
   -0.3151    3.3455   -0.9377 H   0  0  0  0  0  0  0  0  0  0  0  0
   -0.0020    1.4066    0.0071 C   0  0  0  0  0  0  0  0  0  0  0  0
   -1.2023    0.6999    0.0116 C   0  0  0  0  0  0  0  0  0  0  0  0
   -2.0694    1.1885    0.0216 H   0  0  0  0  0  0  0  0  0  0  0  0
   -1.2169   -0.7050    0.0000 C   0  0  0  0  0  0  0  0  0  0  0  0
   -2.0844   -1.1938    0.0010 H   0  0  0  0  0  0  0  0  0  0  0  0
    0.0024   -1.4047   -0.0104 C   0  0  0  0  0  0  0  0  0  0  0  0
   -0.0009   -2.4003   -0.0253 H   0  0  0  0  0  0  0  0  0  0  0  0
    1.2169   -0.7023   -0.0000 C   0  0  0  0  0  0  0  0  0  0  0  0
    2.0924   -1.1918    0.0141 H   0  0  0  0  0  0  0  0  0  0  0  0
    1.2019    0.7055   -0.0083 C   0  0  0  0  0  0  0  0  0  0  0  0
    2.0662    1.2009   -0.0258 H   0  0  0  0  0  0  0  0  0  0  0  0
  1  5  1  0
  5  8  1  0
  1  2  1  0
  1  3  1  0
  1  4  1  0
  5  6  1  0
  5  7  1  0
  8  9  1  0
  8 10  1  0
  8 11  1  0
 12 16  1  0
 16 17  2  0
 17 19  1  0
 19 21  2  0
 21 23  1  0
 23 25  2  0
 25 16  1  0
 12 13  1  0
 12 14  1  0
 12 15  1  0
 17 18  1  0
 19 20  1  0
 21 22  1  0
 23 24  1  0
 25 26  1  0
M  CHG  1   8   1
M  END
>  <PDB_ID>  (2292) 
pdb3oa5

>  <RESIDUE_NAME>  (2292) 
LYS   PHE

>  <FRAG_NAME>  (2292) 
ETAM   MBZ

>  <FRAG_ATOM_NUM>  (2292) 
fragi: 11  fragj: 15

>  <atom.prop.CHAIN_ID>  (2292) 
A A A A A A A A A A A Z Z Z Z Z Z Z Z Z Z Z Z Z Z Z

>  <atom.prop.IS_HEAVY_ATOM>  (2292) 
1 0 0 0 1 0 0 1 0 0 0 1 0 0 0 1 1 0 1 0 1 0 1 0 1 0

>  <DIFUSE_FUNC_ATOM>  (2292) 
n/a

>  <FINAL_SINGLE_POINT_ENERGY>  (2292) 
0

>  <NONCOV_INTER_ENERGY_QM>  (2292) 
0

>  <FF_Energy>  (2292) 
-2.54

>  <QM_Energy>  (2292) 
-9.42

>  <source>  (2292) 
ETAM_MBZ

>  <Index>  (2292) 
23872

$$$$
ETAM-pdb3of5-A-LYS-21:MBZ-pdb3of5-A-PHE-211
     RDKit          3D

 26 25  0  0  0  0  0  0  0  0999 V2000
   -2.7210   -3.5572   -2.0196 C   0  0  0  0  0  0  0  0  0  0  0  0
   -2.2514   -2.6950   -2.2218 H   0  0  0  0  0  0  0  0  0  0  0  0
   -2.9093   -3.6041   -1.0361 H   0  0  0  0  0  0  0  0  0  0  0  0
   -3.6739   -3.5564   -2.5489 H   0  0  0  0  0  0  0  0  0  0  0  0
   -1.8284   -4.7049   -2.4037 C   0  0  0  0  0  0  0  0  0  0  0  0
   -2.2527   -5.5676   -2.1129 H   0  0  0  0  0  0  0  0  0  0  0  0
   -1.7193   -4.7214   -3.4030 H   0  0  0  0  0  0  0  0  0  0  0  0
   -0.4856   -4.5910   -1.7744 N   0  0  0  0  0  4  0  0  0  0  0  0
    0.2189   -4.6414   -2.4828 H   0  0  0  0  0  0  0  0  0  0  0  0
   -0.4165   -3.7160   -1.2959 H   0  0  0  0  0  0  0  0  0  0  0  0
   -0.3590   -5.3396   -1.1234 H   0  0  0  0  0  0  0  0  0  0  0  0
   -0.0026    2.9239    0.0085 C   0  0  0  0  0  0  0  0  0  0  0  0
    0.9345    3.2258    0.0048 H   0  0  0  0  0  0  0  0  0  0  0  0
   -0.4824    3.2182    0.8165 H   0  0  0  0  0  0  0  0  0  0  0  0
   -0.5009    3.3598   -0.8574 H   0  0  0  0  0  0  0  0  0  0  0  0
   -0.0003    1.4081   -0.0015 C   0  0  0  0  0  0  0  0  0  0  0  0
   -1.1936    0.6925   -0.0003 C   0  0  0  0  0  0  0  0  0  0  0  0
   -2.0636    1.1749   -0.0013 H   0  0  0  0  0  0  0  0  0  0  0  0
   -1.1930   -0.7068   -0.0000 C   0  0  0  0  0  0  0  0  0  0  0  0
   -2.0723   -1.1957   -0.0026 H   0  0  0  0  0  0  0  0  0  0  0  0
    0.0007   -1.3922    0.0057 C   0  0  0  0  0  0  0  0  0  0  0  0
   -0.0000   -2.3959    0.0135 H   0  0  0  0  0  0  0  0  0  0  0  0
    1.1930   -0.7005    0.0000 C   0  0  0  0  0  0  0  0  0  0  0  0
    2.0795   -1.1922   -0.0002 H   0  0  0  0  0  0  0  0  0  0  0  0
    1.1932    0.6988   -0.0038 C   0  0  0  0  0  0  0  0  0  0  0  0
    2.0636    1.1874   -0.0088 H   0  0  0  0  0  0  0  0  0  0  0  0
  1  5  1  0
  5  8  1  0
  1  2  1  0
  1  3  1  0
  1  4  1  0
  5  6  1  0
  5  7  1  0
  8  9  1  0
  8 10  1  0
  8 11  1  0
 12 16  1  0
 16 17  2  0
 17 19  1  0
 19 21  2  0
 21 23  1  0
 23 25  2  0
 25 16  1  0
 12 13  1  0
 12 14  1  0
 12 15  1  0
 17 18  1  0
 19 20  1  0
 21 22  1  0
 23 24  1  0
 25 26  1  0
M  CHG  1   8   1
M  END
>  <PDB_ID>  (2293) 
pdb3of5

>  <RESIDUE_NAME>  (2293) 
LYS   PHE

>  <FRAG_NAME>  (2293) 
ETAM   MBZ

>  <FRAG_ATOM_NUM>  (2293) 
fragi: 11  fragj: 15

>  <atom.prop.CHAIN_ID>  (2293) 
A A A A A A A A A A A Z Z Z Z Z Z Z Z Z Z Z Z Z Z Z

>  <atom.prop.IS_HEAVY_ATOM>  (2293) 
1 0 0 0 1 0 0 1 0 0 0 1 0 0 0 1 1 0 1 0 1 0 1 0 1 0

>  <DIFUSE_FUNC_ATOM>  (2293) 
n/a

>  <FINAL_SINGLE_POINT_ENERGY>  (2293) 
0

>  <NONCOV_INTER_ENERGY_QM>  (2293) 
0

>  <FF_Energy>  (2293) 
0.1

>  <QM_Energy>  (2293) 
-5.26

>  <source>  (2293) 
ETAM_MBZ

>  <Index>  (2293) 
23880

$$$$
ETAM-pdb4mb0-A-LYS-65:MBZ-pdb4mb0-A-PHE-176
     RDKit          3D

 26 25  0  0  0  0  0  0  0  0999 V2000
    0.4496   -1.3553   -3.6734 C   0  0  0  0  0  0  0  0  0  0  0  0
    0.2850   -1.8496   -4.5274 H   0  0  0  0  0  0  0  0  0  0  0  0
    0.2047   -1.9396   -2.8992 H   0  0  0  0  0  0  0  0  0  0  0  0
    1.5098   -1.1102   -3.6081 H   0  0  0  0  0  0  0  0  0  0  0  0
   -0.4568   -0.1221   -3.6502 C   0  0  0  0  0  0  0  0  0  0  0  0
   -0.3344    0.3521   -2.7863 H   0  0  0  0  0  0  0  0  0  0  0  0
   -0.2176    0.4693   -4.4109 H   0  0  0  0  0  0  0  0  0  0  0  0
   -1.8885   -0.5447   -3.7839 N   0  0  0  0  0  4  0  0  0  0  0  0
   -1.9584   -1.2411   -4.4959 H   0  0  0  0  0  0  0  0  0  0  0  0
   -2.2007   -0.9183   -2.9132 H   0  0  0  0  0  0  0  0  0  0  0  0
   -2.4411    0.2491   -4.0307 H   0  0  0  0  0  0  0  0  0  0  0  0
   -0.0150    2.8907   -0.1394 C   0  0  0  0  0  0  0  0  0  0  0  0
   -0.9185    3.1656   -0.4335 H   0  0  0  0  0  0  0  0  0  0  0  0
    0.6711    3.1436   -0.8045 H   0  0  0  0  0  0  0  0  0  0  0  0
    0.2097    3.4133    0.7904 H   0  0  0  0  0  0  0  0  0  0  0  0
   -0.0055    1.3926   -0.0106 C   0  0  0  0  0  0  0  0  0  0  0  0
   -1.1840    0.6889    0.0284 C   0  0  0  0  0  0  0  0  0  0  0  0
   -2.0569    1.1780    0.0766 H   0  0  0  0  0  0  0  0  0  0  0  0
   -1.1885   -0.6897   -0.0000 C   0  0  0  0  0  0  0  0  0  0  0  0
   -2.0707   -1.1840   -0.0227 H   0  0  0  0  0  0  0  0  0  0  0  0
   -0.0005   -1.3849    0.0038 C   0  0  0  0  0  0  0  0  0  0  0  0
   -0.0060   -2.3854    0.0091 H   0  0  0  0  0  0  0  0  0  0  0  0
    1.1885   -0.6925    0.0000 C   0  0  0  0  0  0  0  0  0  0  0  0
    2.0751   -1.1942    0.0143 H   0  0  0  0  0  0  0  0  0  0  0  0
    1.1900    0.6855   -0.0217 C   0  0  0  0  0  0  0  0  0  0  0  0
    2.0568    1.1849   -0.0467 H   0  0  0  0  0  0  0  0  0  0  0  0
  1  5  1  0
  5  8  1  0
  1  2  1  0
  1  3  1  0
  1  4  1  0
  5  6  1  0
  5  7  1  0
  8  9  1  0
  8 10  1  0
  8 11  1  0
 12 16  1  0
 16 17  2  0
 17 19  1  0
 19 21  2  0
 21 23  1  0
 23 25  2  0
 25 16  1  0
 12 13  1  0
 12 14  1  0
 12 15  1  0
 17 18  1  0
 19 20  1  0
 21 22  1  0
 23 24  1  0
 25 26  1  0
M  CHG  1   8   1
M  END
>  <PDB_ID>  (2294) 
pdb4mb0

>  <RESIDUE_NAME>  (2294) 
LYS   PHE

>  <FRAG_NAME>  (2294) 
ETAM   MBZ

>  <FRAG_ATOM_NUM>  (2294) 
fragi: 11  fragj: 15

>  <atom.prop.CHAIN_ID>  (2294) 
A A A A A A A A A A A Z Z Z Z Z Z Z Z Z Z Z Z Z Z Z

>  <atom.prop.IS_HEAVY_ATOM>  (2294) 
1 0 0 0 1 0 0 1 0 0 0 1 0 0 0 1 1 0 1 0 1 0 1 0 1 0

>  <DIFUSE_FUNC_ATOM>  (2294) 
n/a

>  <FINAL_SINGLE_POINT_ENERGY>  (2294) 
0

>  <NONCOV_INTER_ENERGY_QM>  (2294) 
0

>  <FF_Energy>  (2294) 
-5.83

>  <QM_Energy>  (2294) 
-10.9

>  <source>  (2294) 
ETAM_MBZ

>  <Index>  (2294) 
23901

$$$$
ETAM-pdb4mb0-B-LYS-65:MBZ-pdb4mb0-B-PHE-176
     RDKit          3D

 26 25  0  0  0  0  0  0  0  0999 V2000
    0.4526   -1.0280   -3.9318 C   0  0  0  0  0  0  0  0  0  0  0  0
    0.4863   -1.0573   -4.9234 H   0  0  0  0  0  0  0  0  0  0  0  0
    0.1387   -1.8964   -3.5660 H   0  0  0  0  0  0  0  0  0  0  0  0
    1.4527   -0.8225   -3.5499 H   0  0  0  0  0  0  0  0  0  0  0  0
   -0.5288    0.0578   -3.5113 C   0  0  0  0  0  0  0  0  0  0  0  0
   -0.4835    0.1669   -2.5190 H   0  0  0  0  0  0  0  0  0  0  0  0
   -0.2695    0.9168   -3.9527 H   0  0  0  0  0  0  0  0  0  0  0  0
   -1.9124   -0.3003   -3.9058 N   0  0  0  0  0  4  0  0  0  0  0  0
   -2.5611    0.2870   -3.4200 H   0  0  0  0  0  0  0  0  0  0  0  0
   -2.0222   -0.1730   -4.8924 H   0  0  0  0  0  0  0  0  0  0  0  0
   -2.0901   -1.2569   -3.6721 H   0  0  0  0  0  0  0  0  0  0  0  0
   -0.0074    2.9072   -0.0273 C   0  0  0  0  0  0  0  0  0  0  0  0
   -0.8657    3.1869   -0.4321 H   0  0  0  0  0  0  0  0  0  0  0  0
    0.7602    3.1831   -0.5860 H   0  0  0  0  0  0  0  0  0  0  0  0
    0.0853    3.4037    0.9387 H   0  0  0  0  0  0  0  0  0  0  0  0
   -0.0034    1.3986    0.0503 C   0  0  0  0  0  0  0  0  0  0  0  0
   -1.1942    0.6866   -0.0355 C   0  0  0  0  0  0  0  0  0  0  0  0
   -2.0574    1.1753   -0.1248 H   0  0  0  0  0  0  0  0  0  0  0  0
   -1.1960   -0.6981    0.0000 C   0  0  0  0  0  0  0  0  0  0  0  0
   -2.0655   -1.1974    0.0654 H   0  0  0  0  0  0  0  0  0  0  0  0
    0.0106   -1.3895   -0.0536 C   0  0  0  0  0  0  0  0  0  0  0  0
    0.0050   -2.3853   -0.1306 H   0  0  0  0  0  0  0  0  0  0  0  0
    1.1960   -0.6926    0.0000 C   0  0  0  0  0  0  0  0  0  0  0  0
    2.0849   -1.1844    0.0125 H   0  0  0  0  0  0  0  0  0  0  0  0
    1.1870    0.6950    0.0388 C   0  0  0  0  0  0  0  0  0  0  0  0
    2.0575    1.1916    0.0584 H   0  0  0  0  0  0  0  0  0  0  0  0
  1  5  1  0
  5  8  1  0
  1  2  1  0
  1  3  1  0
  1  4  1  0
  5  6  1  0
  5  7  1  0
  8  9  1  0
  8 10  1  0
  8 11  1  0
 12 16  1  0
 16 17  2  0
 17 19  1  0
 19 21  2  0
 21 23  1  0
 23 25  2  0
 25 16  1  0
 12 13  1  0
 12 14  1  0
 12 15  1  0
 17 18  1  0
 19 20  1  0
 21 22  1  0
 23 24  1  0
 25 26  1  0
M  CHG  1   8   1
M  END
>  <PDB_ID>  (2295) 
pdb4mb0

>  <RESIDUE_NAME>  (2295) 
LYS   PHE

>  <FRAG_NAME>  (2295) 
ETAM   MBZ

>  <FRAG_ATOM_NUM>  (2295) 
fragi: 11  fragj: 15

>  <atom.prop.CHAIN_ID>  (2295) 
A A A A A A A A A A A Z Z Z Z Z Z Z Z Z Z Z Z Z Z Z

>  <atom.prop.IS_HEAVY_ATOM>  (2295) 
1 0 0 0 1 0 0 1 0 0 0 1 0 0 0 1 1 0 1 0 1 0 1 0 1 0

>  <DIFUSE_FUNC_ATOM>  (2295) 
n/a

>  <FINAL_SINGLE_POINT_ENERGY>  (2295) 
0

>  <NONCOV_INTER_ENERGY_QM>  (2295) 
0

>  <FF_Energy>  (2295) 
-4.95

>  <QM_Energy>  (2295) 
-10.05

>  <source>  (2295) 
ETAM_MBZ

>  <Index>  (2295) 
23903

$$$$
ETAM-pdb3olj-A-LYS-206:MBZ-pdb3olj-A-PHE-133
     RDKit          3D

 26 25  0  0  0  0  0  0  0  0999 V2000
   -1.9494   -3.1347   -2.5374 C   0  0  0  0  0  0  0  0  0  0  0  0
   -1.8897   -2.6770   -1.6596 H   0  0  0  0  0  0  0  0  0  0  0  0
   -1.5496   -4.0404   -2.4919 H   0  0  0  0  0  0  0  0  0  0  0  0
   -2.9983   -3.2230   -2.8205 H   0  0  0  0  0  0  0  0  0  0  0  0
   -1.2266   -2.3298   -3.5620 C   0  0  0  0  0  0  0  0  0  0  0  0
   -1.2283   -2.8255   -4.4413 H   0  0  0  0  0  0  0  0  0  0  0  0
   -1.7054   -1.4516   -3.6987 H   0  0  0  0  0  0  0  0  0  0  0  0
    0.1684   -2.0576   -3.1684 N   0  0  0  0  0  4  0  0  0  0  0  0
    0.7298   -1.9187   -3.9866 H   0  0  0  0  0  0  0  0  0  0  0  0
    0.2045   -1.2336   -2.5997 H   0  0  0  0  0  0  0  0  0  0  0  0
    0.5302   -2.8330   -2.6481 H   0  0  0  0  0  0  0  0  0  0  0  0
    0.0027    2.9224    0.0293 C   0  0  0  0  0  0  0  0  0  0  0  0
   -0.5887    3.2409   -0.6903 H   0  0  0  0  0  0  0  0  0  0  0  0
    0.9307    3.2269   -0.0936 H   0  0  0  0  0  0  0  0  0  0  0  0
   -0.3622    3.3384    0.9683 H   0  0  0  0  0  0  0  0  0  0  0  0
   -0.0006    1.4094    0.0016 C   0  0  0  0  0  0  0  0  0  0  0  0
   -1.2037    0.6981   -0.0088 C   0  0  0  0  0  0  0  0  0  0  0  0
   -2.0688    1.1832   -0.0240 H   0  0  0  0  0  0  0  0  0  0  0  0
   -1.2098   -0.7088    0.0000 C   0  0  0  0  0  0  0  0  0  0  0  0
   -2.0791   -1.1989    0.0053 H   0  0  0  0  0  0  0  0  0  0  0  0
    0.0058   -1.4009    0.0031 C   0  0  0  0  0  0  0  0  0  0  0  0
    0.0056   -2.3985    0.0068 H   0  0  0  0  0  0  0  0  0  0  0  0
    1.2098   -0.6968    0.0000 C   0  0  0  0  0  0  0  0  0  0  0  0
    2.0905   -1.1901   -0.0042 H   0  0  0  0  0  0  0  0  0  0  0  0
    1.1985    0.6990    0.0040 C   0  0  0  0  0  0  0  0  0  0  0  0
    2.0669    1.1966    0.0078 H   0  0  0  0  0  0  0  0  0  0  0  0
  1  5  1  0
  5  8  1  0
  1  2  1  0
  1  3  1  0
  1  4  1  0
  5  6  1  0
  5  7  1  0
  8  9  1  0
  8 10  1  0
  8 11  1  0
 12 16  1  0
 16 17  2  0
 17 19  1  0
 19 21  2  0
 21 23  1  0
 23 25  2  0
 25 16  1  0
 12 13  1  0
 12 14  1  0
 12 15  1  0
 17 18  1  0
 19 20  1  0
 21 22  1  0
 23 24  1  0
 25 26  1  0
M  CHG  1   8   1
M  END
>  <PDB_ID>  (2296) 
pdb3olj

>  <RESIDUE_NAME>  (2296) 
LYS   PHE

>  <FRAG_NAME>  (2296) 
ETAM   MBZ

>  <FRAG_ATOM_NUM>  (2296) 
fragi: 11  fragj: 15

>  <atom.prop.CHAIN_ID>  (2296) 
A A A A A A A A A A A Z Z Z Z Z Z Z Z Z Z Z Z Z Z Z

>  <atom.prop.IS_HEAVY_ATOM>  (2296) 
1 0 0 0 1 0 0 1 0 0 0 1 0 0 0 1 1 0 1 0 1 0 1 0 1 0

>  <DIFUSE_FUNC_ATOM>  (2296) 
n/a

>  <FINAL_SINGLE_POINT_ENERGY>  (2296) 
0

>  <NONCOV_INTER_ENERGY_QM>  (2296) 
0

>  <FF_Energy>  (2296) 
-5.07

>  <QM_Energy>  (2296) 
-12.24

>  <source>  (2296) 
ETAM_MBZ

>  <Index>  (2296) 
23910

$$$$
ETAM-pdb3olj-A-LYS-206:MBZ-pdb3olj-A-PHE-303
     RDKit          3D

 26 25  0  0  0  0  0  0  0  0999 V2000
   -0.2370    1.8134   -4.7914 C   0  0  0  0  0  0  0  0  0  0  0  0
   -0.3853    0.9167   -5.1885 H   0  0  0  0  0  0  0  0  0  0  0  0
    0.5194    2.2757   -5.2345 H   0  0  0  0  0  0  0  0  0  0  0  0
   -1.1406    2.4101   -4.9162 H   0  0  0  0  0  0  0  0  0  0  0  0
    0.0612    1.6649   -3.3392 C   0  0  0  0  0  0  0  0  0  0  0  0
    0.2783    2.5691   -2.9465 H   0  0  0  0  0  0  0  0  0  0  0  0
   -0.7539    1.3065   -2.8635 H   0  0  0  0  0  0  0  0  0  0  0  0
    1.1951    0.7533   -3.0977 N   0  0  0  0  0  4  0  0  0  0  0  0
    1.6400    0.9888   -2.2313 H   0  0  0  0  0  0  0  0  0  0  0  0
    0.8654   -0.1918   -3.0532 H   0  0  0  0  0  0  0  0  0  0  0  0
    1.8595    0.8356   -3.8424 H   0  0  0  0  0  0  0  0  0  0  0  0
    0.0015    2.8969   -0.0239 C   0  0  0  0  0  0  0  0  0  0  0  0
   -0.6925    3.1966   -0.6648 H   0  0  0  0  0  0  0  0  0  0  0  0
    0.9007    3.2037   -0.3061 H   0  0  0  0  0  0  0  0  0  0  0  0
   -0.2176    3.3577    0.9393 H   0  0  0  0  0  0  0  0  0  0  0  0
    0.0022    1.4047    0.0011 C   0  0  0  0  0  0  0  0  0  0  0  0
   -1.1984    0.6951   -0.0090 C   0  0  0  0  0  0  0  0  0  0  0  0
   -2.0641    1.1819   -0.0241 H   0  0  0  0  0  0  0  0  0  0  0  0
   -1.2054   -0.7082    0.0000 C   0  0  0  0  0  0  0  0  0  0  0  0
   -2.0809   -1.1954    0.0064 H   0  0  0  0  0  0  0  0  0  0  0  0
   -0.0014   -1.3996    0.0022 C   0  0  0  0  0  0  0  0  0  0  0  0
    0.0032   -2.3969    0.0053 H   0  0  0  0  0  0  0  0  0  0  0  0
    1.2054   -0.6940   -0.0000 C   0  0  0  0  0  0  0  0  0  0  0  0
    2.0856   -1.1902   -0.0042 H   0  0  0  0  0  0  0  0  0  0  0  0
    1.1976    0.7020    0.0057 C   0  0  0  0  0  0  0  0  0  0  0  0
    2.0657    1.1970    0.0125 H   0  0  0  0  0  0  0  0  0  0  0  0
  1  5  1  0
  5  8  1  0
  1  2  1  0
  1  3  1  0
  1  4  1  0
  5  6  1  0
  5  7  1  0
  8  9  1  0
  8 10  1  0
  8 11  1  0
 12 16  1  0
 16 17  2  0
 17 19  1  0
 19 21  2  0
 21 23  1  0
 23 25  2  0
 25 16  1  0
 12 13  1  0
 12 14  1  0
 12 15  1  0
 17 18  1  0
 19 20  1  0
 21 22  1  0
 23 24  1  0
 25 26  1  0
M  CHG  1   8   1
M  END
>  <PDB_ID>  (2297) 
pdb3olj

>  <RESIDUE_NAME>  (2297) 
LYS   PHE

>  <FRAG_NAME>  (2297) 
ETAM   MBZ

>  <FRAG_ATOM_NUM>  (2297) 
fragi: 11  fragj: 15

>  <atom.prop.CHAIN_ID>  (2297) 
A A A A A A A A A A A Z Z Z Z Z Z Z Z Z Z Z Z Z Z Z

>  <atom.prop.IS_HEAVY_ATOM>  (2297) 
1 0 0 0 1 0 0 1 0 0 0 1 0 0 0 1 1 0 1 0 1 0 1 0 1 0

>  <DIFUSE_FUNC_ATOM>  (2297) 
n/a

>  <FINAL_SINGLE_POINT_ENERGY>  (2297) 
0

>  <NONCOV_INTER_ENERGY_QM>  (2297) 
0

>  <FF_Energy>  (2297) 
-7.3

>  <QM_Energy>  (2297) 
-13.97

>  <source>  (2297) 
ETAM_MBZ

>  <Index>  (2297) 
23912

$$$$
ETAM-pdb3olj-C-LYS-206:MBZ-pdb3olj-C-PHE-133
     RDKit          3D

 26 25  0  0  0  0  0  0  0  0999 V2000
   -1.8209   -3.3035   -2.8145 C   0  0  0  0  0  0  0  0  0  0  0  0
   -1.6406   -3.3696   -1.8337 H   0  0  0  0  0  0  0  0  0  0  0  0
   -1.3378   -4.0360   -3.2935 H   0  0  0  0  0  0  0  0  0  0  0  0
   -2.8913   -3.4244   -2.9812 H   0  0  0  0  0  0  0  0  0  0  0  0
   -1.3161   -1.9795   -3.3159 C   0  0  0  0  0  0  0  0  0  0  0  0
   -1.4926   -1.9049   -4.2943 H   0  0  0  0  0  0  0  0  0  0  0  0
   -1.7807   -1.2410   -2.8303 H   0  0  0  0  0  0  0  0  0  0  0  0
    0.1458   -1.8752   -3.0748 N   0  0  0  0  0  4  0  0  0  0  0  0
    0.4890   -1.0231   -3.4709 H   0  0  0  0  0  0  0  0  0  0  0  0
    0.3227   -1.8796   -2.0905 H   0  0  0  0  0  0  0  0  0  0  0  0
    0.6100   -2.6518   -3.5014 H   0  0  0  0  0  0  0  0  0  0  0  0
   -0.0031    2.8831    0.0355 C   0  0  0  0  0  0  0  0  0  0  0  0
   -0.6341    3.2143   -0.6491 H   0  0  0  0  0  0  0  0  0  0  0  0
    0.9164    3.2027   -0.1369 H   0  0  0  0  0  0  0  0  0  0  0  0
   -0.3181    3.2876    0.9974 H   0  0  0  0  0  0  0  0  0  0  0  0
   -0.0013    1.3988   -0.0040 C   0  0  0  0  0  0  0  0  0  0  0  0
   -1.2072    0.6872    0.0088 C   0  0  0  0  0  0  0  0  0  0  0  0
   -2.0687    1.1826    0.0231 H   0  0  0  0  0  0  0  0  0  0  0  0
   -1.2095   -0.6965   -0.0000 C   0  0  0  0  0  0  0  0  0  0  0  0
   -2.0775   -1.1995   -0.0038 H   0  0  0  0  0  0  0  0  0  0  0  0
    0.0068   -1.3928   -0.0018 C   0  0  0  0  0  0  0  0  0  0  0  0
    0.0007   -2.3907   -0.0046 H   0  0  0  0  0  0  0  0  0  0  0  0
    1.2095   -0.6944   -0.0000 C   0  0  0  0  0  0  0  0  0  0  0  0
    2.0900   -1.1901    0.0048 H   0  0  0  0  0  0  0  0  0  0  0  0
    1.2017    0.6976   -0.0030 C   0  0  0  0  0  0  0  0  0  0  0  0
    2.0652    1.1970   -0.0056 H   0  0  0  0  0  0  0  0  0  0  0  0
  1  5  1  0
  5  8  1  0
  1  2  1  0
  1  3  1  0
  1  4  1  0
  5  6  1  0
  5  7  1  0
  8  9  1  0
  8 10  1  0
  8 11  1  0
 12 16  1  0
 16 17  2  0
 17 19  1  0
 19 21  2  0
 21 23  1  0
 23 25  2  0
 25 16  1  0
 12 13  1  0
 12 14  1  0
 12 15  1  0
 17 18  1  0
 19 20  1  0
 21 22  1  0
 23 24  1  0
 25 26  1  0
M  CHG  1   8   1
M  END
>  <PDB_ID>  (2298) 
pdb3olj

>  <RESIDUE_NAME>  (2298) 
LYS   PHE

>  <FRAG_NAME>  (2298) 
ETAM   MBZ

>  <FRAG_ATOM_NUM>  (2298) 
fragi: 11  fragj: 15

>  <atom.prop.CHAIN_ID>  (2298) 
A A A A A A A A A A A Z Z Z Z Z Z Z Z Z Z Z Z Z Z Z

>  <atom.prop.IS_HEAVY_ATOM>  (2298) 
1 0 0 0 1 0 0 1 0 0 0 1 0 0 0 1 1 0 1 0 1 0 1 0 1 0

>  <DIFUSE_FUNC_ATOM>  (2298) 
n/a

>  <FINAL_SINGLE_POINT_ENERGY>  (2298) 
0

>  <NONCOV_INTER_ENERGY_QM>  (2298) 
0

>  <FF_Energy>  (2298) 
-5.89

>  <QM_Energy>  (2298) 
-14.44

>  <source>  (2298) 
ETAM_MBZ

>  <Index>  (2298) 
23915

$$$$
ETAM-pdb3olj-C-LYS-206:MBZ-pdb3olj-C-PHE-303
     RDKit          3D

 26 25  0  0  0  0  0  0  0  0999 V2000
   -0.1105    1.9533   -4.5375 C   0  0  0  0  0  0  0  0  0  0  0  0
    0.0638    1.3099   -5.2821 H   0  0  0  0  0  0  0  0  0  0  0  0
    0.6525    2.5952   -4.4648 H   0  0  0  0  0  0  0  0  0  0  0  0
   -1.0171    2.5136   -4.7658 H   0  0  0  0  0  0  0  0  0  0  0  0
   -0.2270    1.1889   -3.2486 C   0  0  0  0  0  0  0  0  0  0  0  0
   -0.4016    1.8237   -2.4998 H   0  0  0  0  0  0  0  0  0  0  0  0
   -0.9759    0.5322   -3.3180 H   0  0  0  0  0  0  0  0  0  0  0  0
    1.0378    0.4570   -2.9825 N   0  0  0  0  0  4  0  0  0  0  0  0
    0.9805    0.0055   -2.0916 H   0  0  0  0  0  0  0  0  0  0  0  0
    1.1820   -0.2299   -3.6949 H   0  0  0  0  0  0  0  0  0  0  0  0
    1.8021    1.1022   -2.9807 H   0  0  0  0  0  0  0  0  0  0  0  0
    0.0096    2.9096   -0.0387 C   0  0  0  0  0  0  0  0  0  0  0  0
   -0.7003    3.1995   -0.6672 H   0  0  0  0  0  0  0  0  0  0  0  0
    0.9021    3.2006   -0.3576 H   0  0  0  0  0  0  0  0  0  0  0  0
   -0.1755    3.3936    0.9202 H   0  0  0  0  0  0  0  0  0  0  0  0
    0.0015    1.4059    0.0067 C   0  0  0  0  0  0  0  0  0  0  0  0
   -1.1971    0.7024   -0.0082 C   0  0  0  0  0  0  0  0  0  0  0  0
   -2.0627    1.1939   -0.0266 H   0  0  0  0  0  0  0  0  0  0  0  0
   -1.2065   -0.6913    0.0000 C   0  0  0  0  0  0  0  0  0  0  0  0
   -2.0839   -1.1829    0.0074 H   0  0  0  0  0  0  0  0  0  0  0  0
   -0.0022   -1.4008    0.0001 C   0  0  0  0  0  0  0  0  0  0  0  0
   -0.0137   -2.3962    0.0002 H   0  0  0  0  0  0  0  0  0  0  0  0
    1.2065   -0.7074   -0.0000 C   0  0  0  0  0  0  0  0  0  0  0  0
    2.0835   -1.2018   -0.0001 H   0  0  0  0  0  0  0  0  0  0  0  0
    1.1978    0.6912    0.0015 C   0  0  0  0  0  0  0  0  0  0  0  0
    2.0677    1.1858   -0.0023 H   0  0  0  0  0  0  0  0  0  0  0  0
  1  5  1  0
  5  8  1  0
  1  2  1  0
  1  3  1  0
  1  4  1  0
  5  6  1  0
  5  7  1  0
  8  9  1  0
  8 10  1  0
  8 11  1  0
 12 16  1  0
 16 17  2  0
 17 19  1  0
 19 21  2  0
 21 23  1  0
 23 25  2  0
 25 16  1  0
 12 13  1  0
 12 14  1  0
 12 15  1  0
 17 18  1  0
 19 20  1  0
 21 22  1  0
 23 24  1  0
 25 26  1  0
M  CHG  1   8   1
M  END
>  <PDB_ID>  (2299) 
pdb3olj

>  <RESIDUE_NAME>  (2299) 
LYS   PHE

>  <FRAG_NAME>  (2299) 
ETAM   MBZ

>  <FRAG_ATOM_NUM>  (2299) 
fragi: 11  fragj: 15

>  <atom.prop.CHAIN_ID>  (2299) 
A A A A A A A A A A A Z Z Z Z Z Z Z Z Z Z Z Z Z Z Z

>  <atom.prop.IS_HEAVY_ATOM>  (2299) 
1 0 0 0 1 0 0 1 0 0 0 1 0 0 0 1 1 0 1 0 1 0 1 0 1 0

>  <DIFUSE_FUNC_ATOM>  (2299) 
n/a

>  <FINAL_SINGLE_POINT_ENERGY>  (2299) 
0

>  <NONCOV_INTER_ENERGY_QM>  (2299) 
0

>  <FF_Energy>  (2299) 
-7.02

>  <QM_Energy>  (2299) 
-15.3

>  <source>  (2299) 
ETAM_MBZ

>  <Index>  (2299) 
23917

$$$$
ETAM-pdb3olj-D-LYS-206:MBZ-pdb3olj-D-PHE-303
     RDKit          3D

 26 25  0  0  0  0  0  0  0  0999 V2000
   -0.1046    1.9661   -4.7408 C   0  0  0  0  0  0  0  0  0  0  0  0
   -0.0144    1.2675   -5.4507 H   0  0  0  0  0  0  0  0  0  0  0  0
    0.6777    2.5875   -4.7822 H   0  0  0  0  0  0  0  0  0  0  0  0
   -1.0151    2.5363   -4.9251 H   0  0  0  0  0  0  0  0  0  0  0  0
   -0.1168    1.2903   -3.3933 C   0  0  0  0  0  0  0  0  0  0  0  0
   -0.1778    1.9804   -2.6783 H   0  0  0  0  0  0  0  0  0  0  0  0
   -0.8966    0.6728   -3.3406 H   0  0  0  0  0  0  0  0  0  0  0  0
    1.1356    0.5131   -3.2186 N   0  0  0  0  0  4  0  0  0  0  0  0
    1.7677    1.0251   -2.6360 H   0  0  0  0  0  0  0  0  0  0  0  0
    0.9256   -0.3664   -2.7904 H   0  0  0  0  0  0  0  0  0  0  0  0
    1.5579    0.3560   -4.1117 H   0  0  0  0  0  0  0  0  0  0  0  0
    0.0024    2.9131   -0.0338 C   0  0  0  0  0  0  0  0  0  0  0  0
   -0.7282    3.2044   -0.6347 H   0  0  0  0  0  0  0  0  0  0  0  0
    0.8848    3.2048   -0.3761 H   0  0  0  0  0  0  0  0  0  0  0  0
   -0.1527    3.3882    0.9349 H   0  0  0  0  0  0  0  0  0  0  0  0
   -0.0037    1.4040    0.0044 C   0  0  0  0  0  0  0  0  0  0  0  0
   -1.1993    0.6994   -0.0086 C   0  0  0  0  0  0  0  0  0  0  0  0
   -2.0659    1.1864   -0.0251 H   0  0  0  0  0  0  0  0  0  0  0  0
   -1.2031   -0.6956    0.0000 C   0  0  0  0  0  0  0  0  0  0  0  0
   -2.0745   -1.1925    0.0066 H   0  0  0  0  0  0  0  0  0  0  0  0
    0.0102   -1.3964    0.0010 C   0  0  0  0  0  0  0  0  0  0  0  0
   -0.0015   -2.3942    0.0024 H   0  0  0  0  0  0  0  0  0  0  0  0
    1.2031   -0.7021    0.0000 C   0  0  0  0  0  0  0  0  0  0  0  0
    2.0876   -1.1931   -0.0014 H   0  0  0  0  0  0  0  0  0  0  0  0
    1.1929    0.6907    0.0032 C   0  0  0  0  0  0  0  0  0  0  0  0
    2.0628    1.1887    0.0045 H   0  0  0  0  0  0  0  0  0  0  0  0
  1  5  1  0
  5  8  1  0
  1  2  1  0
  1  3  1  0
  1  4  1  0
  5  6  1  0
  5  7  1  0
  8  9  1  0
  8 10  1  0
  8 11  1  0
 12 16  1  0
 16 17  2  0
 17 19  1  0
 19 21  2  0
 21 23  1  0
 23 25  2  0
 25 16  1  0
 12 13  1  0
 12 14  1  0
 12 15  1  0
 17 18  1  0
 19 20  1  0
 21 22  1  0
 23 24  1  0
 25 26  1  0
M  CHG  1   8   1
M  END
>  <PDB_ID>  (2300) 
pdb3olj

>  <RESIDUE_NAME>  (2300) 
LYS   PHE

>  <FRAG_NAME>  (2300) 
ETAM   MBZ

>  <FRAG_ATOM_NUM>  (2300) 
fragi: 11  fragj: 15

>  <atom.prop.CHAIN_ID>  (2300) 
A A A A A A A A A A A Z Z Z Z Z Z Z Z Z Z Z Z Z Z Z

>  <atom.prop.IS_HEAVY_ATOM>  (2300) 
1 0 0 0 1 0 0 1 0 0 0 1 0 0 0 1 1 0 1 0 1 0 1 0 1 0

>  <DIFUSE_FUNC_ATOM>  (2300) 
n/a

>  <FINAL_SINGLE_POINT_ENERGY>  (2300) 
0

>  <NONCOV_INTER_ENERGY_QM>  (2300) 
0

>  <FF_Energy>  (2300) 
-7.47

>  <QM_Energy>  (2300) 
-13.88

>  <source>  (2300) 
ETAM_MBZ

>  <Index>  (2300) 
23922

$$$$
ETAM-pdb4mco-C-LYS-129:MBZ-pdb4mco-C-PHE-344
     RDKit          3D

 26 25  0  0  0  0  0  0  0  0999 V2000
   -3.1957   -3.2334    4.6493 C   0  0  0  0  0  0  0  0  0  0  0  0
   -3.9715   -3.4897    4.1257 H   0  0  0  0  0  0  0  0  0  0  0  0
   -3.1339   -2.2678    4.7222 H   0  0  0  0  0  0  0  0  0  0  0  0
   -3.2617   -3.6743    5.6440 H   0  0  0  0  0  0  0  0  0  0  0  0
   -1.9414   -3.7535    3.9538 C   0  0  0  0  0  0  0  0  0  0  0  0
   -1.1827   -3.6513    4.5496 H   0  0  0  0  0  0  0  0  0  0  0  0
   -2.0672   -4.6891    3.7301 H   0  0  0  0  0  0  0  0  0  0  0  0
   -1.6470   -3.0092    2.6933 N   0  0  0  0  0  4  0  0  0  0  0  0
   -0.9110   -3.3357    2.3122 H   0  0  0  0  0  0  0  0  0  0  0  0
   -2.3263   -3.0915    2.1252 H   0  0  0  0  0  0  0  0  0  0  0  0
   -1.5211   -2.1471    2.8719 H   0  0  0  0  0  0  0  0  0  0  0  0
    0.0062    2.8966   -0.0089 C   0  0  0  0  0  0  0  0  0  0  0  0
   -0.6875    3.1945   -0.6181 H   0  0  0  0  0  0  0  0  0  0  0  0
    0.8732    3.1938   -0.3276 H   0  0  0  0  0  0  0  0  0  0  0  0
   -0.1766    3.3338    0.9728 H   0  0  0  0  0  0  0  0  0  0  0  0
    0.0043    1.3927   -0.0078 C   0  0  0  0  0  0  0  0  0  0  0  0
   -1.1881    0.6834   -0.0015 C   0  0  0  0  0  0  0  0  0  0  0  0
   -1.9972    1.1426   -0.0073 H   0  0  0  0  0  0  0  0  0  0  0  0
   -1.1857   -0.6868    0.0000 C   0  0  0  0  0  0  0  0  0  0  0  0
   -1.9926   -1.1485   -0.0006 H   0  0  0  0  0  0  0  0  0  0  0  0
   -0.0029   -1.3820    0.0030 C   0  0  0  0  0  0  0  0  0  0  0  0
   -0.0065   -2.3119    0.0062 H   0  0  0  0  0  0  0  0  0  0  0  0
    1.1857   -0.6946    0.0000 C   0  0  0  0  0  0  0  0  0  0  0  0
    1.9915   -1.1603    0.0074 H   0  0  0  0  0  0  0  0  0  0  0  0
    1.1866    0.6873    0.0062 C   0  0  0  0  0  0  0  0  0  0  0  0
    1.9954    1.1467    0.0004 H   0  0  0  0  0  0  0  0  0  0  0  0
  1  5  1  0
  5  8  1  0
  1  2  1  0
  1  3  1  0
  1  4  1  0
  5  6  1  0
  5  7  1  0
  8  9  1  0
  8 10  1  0
  8 11  1  0
 12 16  1  0
 16 17  2  0
 17 19  1  0
 19 21  2  0
 21 23  1  0
 23 25  2  0
 25 16  1  0
 12 13  1  0
 12 14  1  0
 12 15  1  0
 17 18  1  0
 19 20  1  0
 21 22  1  0
 23 24  1  0
 25 26  1  0
M  CHG  1   8   1
M  END
>  <PDB_ID>  (2301) 
pdb4mco

>  <RESIDUE_NAME>  (2301) 
LYS   PHE

>  <FRAG_NAME>  (2301) 
ETAM   MBZ

>  <FRAG_ATOM_NUM>  (2301) 
fragi: 11  fragj: 15

>  <atom.prop.CHAIN_ID>  (2301) 
A A A A A A A A A A A Z Z Z Z Z Z Z Z Z Z Z Z Z Z Z

>  <atom.prop.IS_HEAVY_ATOM>  (2301) 
1 0 0 0 1 0 0 1 0 0 0 1 0 0 0 1 1 0 1 0 1 0 1 0 1 0

>  <DIFUSE_FUNC_ATOM>  (2301) 
n/a

>  <FINAL_SINGLE_POINT_ENERGY>  (2301) 
0

>  <NONCOV_INTER_ENERGY_QM>  (2301) 
0

>  <FF_Energy>  (2301) 
-1.57

>  <QM_Energy>  (2301) 
-7.07

>  <source>  (2301) 
ETAM_MBZ

>  <Index>  (2301) 
23932

$$$$
ETAM-pdb3oma-A-LYS-308:MBZ-pdb3oma-B-PHE-94
     RDKit          3D

 26 25  0  0  0  0  0  0  0  0999 V2000
    1.3855   -1.4468    4.9819 C   0  0  0  0  0  0  0  0  0  0  0  0
    2.3778   -1.4170    4.9826 H   0  0  0  0  0  0  0  0  0  0  0  0
    1.0615   -2.3690    5.1516 H   0  0  0  0  0  0  0  0  0  0  0  0
    1.0114   -0.7895    5.7668 H   0  0  0  0  0  0  0  0  0  0  0  0
    0.8844   -0.9951    3.6311 C   0  0  0  0  0  0  0  0  0  0  0  0
    0.9409    0.0043    3.5763 H   0  0  0  0  0  0  0  0  0  0  0  0
    1.4627   -1.3933    2.9147 H   0  0  0  0  0  0  0  0  0  0  0  0
   -0.5239   -1.4158    3.4074 N   0  0  0  0  0  4  0  0  0  0  0  0
   -1.1086   -0.6064    3.3604 H   0  0  0  0  0  0  0  0  0  0  0  0
   -0.5863   -1.9243    2.5485 H   0  0  0  0  0  0  0  0  0  0  0  0
   -0.8200   -1.9996    4.1635 H   0  0  0  0  0  0  0  0  0  0  0  0
    0.0042    2.9062   -0.0173 C   0  0  0  0  0  0  0  0  0  0  0  0
   -0.7720    3.2053   -0.5557 H   0  0  0  0  0  0  0  0  0  0  0  0
    0.8558    3.2048   -0.4260 H   0  0  0  0  0  0  0  0  0  0  0  0
   -0.0737    3.3698    0.9662 H   0  0  0  0  0  0  0  0  0  0  0  0
    0.0023    1.4042    0.0053 C   0  0  0  0  0  0  0  0  0  0  0  0
   -1.2004    0.6907   -0.0066 C   0  0  0  0  0  0  0  0  0  0  0  0
   -2.0639    1.1837   -0.0211 H   0  0  0  0  0  0  0  0  0  0  0  0
   -1.2053   -0.6986    0.0000 C   0  0  0  0  0  0  0  0  0  0  0  0
   -2.0810   -1.1935    0.0043 H   0  0  0  0  0  0  0  0  0  0  0  0
   -0.0018   -1.3960    0.0033 C   0  0  0  0  0  0  0  0  0  0  0  0
   -0.0045   -2.3939    0.0073 H   0  0  0  0  0  0  0  0  0  0  0  0
    1.2053   -0.6980    0.0000 C   0  0  0  0  0  0  0  0  0  0  0  0
    2.0842   -1.1951    0.0002 H   0  0  0  0  0  0  0  0  0  0  0  0
    1.1999    0.6976   -0.0020 C   0  0  0  0  0  0  0  0  0  0  0  0
    2.0672    1.1924   -0.0095 H   0  0  0  0  0  0  0  0  0  0  0  0
  1  5  1  0
  5  8  1  0
  1  2  1  0
  1  3  1  0
  1  4  1  0
  5  6  1  0
  5  7  1  0
  8  9  1  0
  8 10  1  0
  8 11  1  0
 12 16  1  0
 16 17  2  0
 17 19  1  0
 19 21  2  0
 21 23  1  0
 23 25  2  0
 25 16  1  0
 12 13  1  0
 12 14  1  0
 12 15  1  0
 17 18  1  0
 19 20  1  0
 21 22  1  0
 23 24  1  0
 25 26  1  0
M  CHG  1   8   1
M  END
>  <PDB_ID>  (2302) 
pdb3oma

>  <RESIDUE_NAME>  (2302) 
LYS   PHE

>  <FRAG_NAME>  (2302) 
ETAM   MBZ

>  <FRAG_ATOM_NUM>  (2302) 
fragi: 11  fragj: 15

>  <atom.prop.CHAIN_ID>  (2302) 
A A A A A A A A A A A Z Z Z Z Z Z Z Z Z Z Z Z Z Z Z

>  <atom.prop.IS_HEAVY_ATOM>  (2302) 
1 0 0 0 1 0 0 1 0 0 0 1 0 0 0 1 1 0 1 0 1 0 1 0 1 0

>  <DIFUSE_FUNC_ATOM>  (2302) 
n/a

>  <FINAL_SINGLE_POINT_ENERGY>  (2302) 
0

>  <NONCOV_INTER_ENERGY_QM>  (2302) 
0

>  <FF_Energy>  (2302) 
-6.4

>  <QM_Energy>  (2302) 
-12.89

>  <source>  (2302) 
ETAM_MBZ

>  <Index>  (2302) 
23943

$$$$
ETAM-pdb3oma-C-LYS-308:MBZ-pdb3oma-D-PHE-94
     RDKit          3D

 26 25  0  0  0  0  0  0  0  0999 V2000
    1.1392   -1.5852    4.9360 C   0  0  0  0  0  0  0  0  0  0  0  0
    2.1308   -1.5847    4.9960 H   0  0  0  0  0  0  0  0  0  0  0  0
    0.7873   -2.5129    4.9820 H   0  0  0  0  0  0  0  0  0  0  0  0
    0.7371   -1.0138    5.7725 H   0  0  0  0  0  0  0  0  0  0  0  0
    0.7280   -0.9705    3.6224 C   0  0  0  0  0  0  0  0  0  0  0  0
    0.7791    0.0233    3.6903 H   0  0  0  0  0  0  0  0  0  0  0  0
    1.3376   -1.2913    2.8997 H   0  0  0  0  0  0  0  0  0  0  0  0
   -0.6726   -1.3629    3.2859 N   0  0  0  0  0  4  0  0  0  0  0  0
   -0.8303   -1.2149    2.3110 H   0  0  0  0  0  0  0  0  0  0  0  0
   -0.8056   -2.3279    3.5059 H   0  0  0  0  0  0  0  0  0  0  0  0
   -1.3076   -0.8054    3.8188 H   0  0  0  0  0  0  0  0  0  0  0  0
    0.0008    2.9101   -0.0120 C   0  0  0  0  0  0  0  0  0  0  0  0
   -0.8065    3.2105   -0.4986 H   0  0  0  0  0  0  0  0  0  0  0  0
    0.8263    3.2111   -0.4673 H   0  0  0  0  0  0  0  0  0  0  0  0
   -0.0184    3.3667    0.9775 H   0  0  0  0  0  0  0  0  0  0  0  0
    0.0015    1.4043    0.0030 C   0  0  0  0  0  0  0  0  0  0  0  0
   -1.1990    0.6946   -0.0026 C   0  0  0  0  0  0  0  0  0  0  0  0
   -2.0636    1.1868   -0.0098 H   0  0  0  0  0  0  0  0  0  0  0  0
   -1.2061   -0.6961   -0.0000 C   0  0  0  0  0  0  0  0  0  0  0  0
   -2.0823   -1.1890    0.0026 H   0  0  0  0  0  0  0  0  0  0  0  0
   -0.0027   -1.3958    0.0010 C   0  0  0  0  0  0  0  0  0  0  0  0
   -0.0075   -2.3931    0.0021 H   0  0  0  0  0  0  0  0  0  0  0  0
    1.2061   -0.6994    0.0000 C   0  0  0  0  0  0  0  0  0  0  0  0
    2.0832   -1.1988    0.0023 H   0  0  0  0  0  0  0  0  0  0  0  0
    1.2001    0.6925   -0.0014 C   0  0  0  0  0  0  0  0  0  0  0  0
    2.0676    1.1899   -0.0061 H   0  0  0  0  0  0  0  0  0  0  0  0
  1  5  1  0
  5  8  1  0
  1  2  1  0
  1  3  1  0
  1  4  1  0
  5  6  1  0
  5  7  1  0
  8  9  1  0
  8 10  1  0
  8 11  1  0
 12 16  1  0
 16 17  2  0
 17 19  1  0
 19 21  2  0
 21 23  1  0
 23 25  2  0
 25 16  1  0
 12 13  1  0
 12 14  1  0
 12 15  1  0
 17 18  1  0
 19 20  1  0
 21 22  1  0
 23 24  1  0
 25 26  1  0
M  CHG  1   8   1
M  END
>  <PDB_ID>  (2303) 
pdb3oma

>  <RESIDUE_NAME>  (2303) 
LYS   PHE

>  <FRAG_NAME>  (2303) 
ETAM   MBZ

>  <FRAG_ATOM_NUM>  (2303) 
fragi: 11  fragj: 15

>  <atom.prop.CHAIN_ID>  (2303) 
A A A A A A A A A A A Z Z Z Z Z Z Z Z Z Z Z Z Z Z Z

>  <atom.prop.IS_HEAVY_ATOM>  (2303) 
1 0 0 0 1 0 0 1 0 0 0 1 0 0 0 1 1 0 1 0 1 0 1 0 1 0

>  <DIFUSE_FUNC_ATOM>  (2303) 
n/a

>  <FINAL_SINGLE_POINT_ENERGY>  (2303) 
0

>  <NONCOV_INTER_ENERGY_QM>  (2303) 
0

>  <FF_Energy>  (2303) 
-7.14

>  <QM_Energy>  (2303) 
-14.89

>  <source>  (2303) 
ETAM_MBZ

>  <Index>  (2303) 
23944

$$$$
ETAM-pdb4mdh-A-LYS-311:MBZ-pdb4mdh-A-PHE-307
     RDKit          3D

 26 25  0  0  0  0  0  0  0  0999 V2000
   -1.6795   -2.3241   -3.8006 C   0  0  0  0  0  0  0  0  0  0  0  0
   -2.5944   -2.3683   -3.4088 H   0  0  0  0  0  0  0  0  0  0  0  0
   -1.5582   -3.0521   -4.4696 H   0  0  0  0  0  0  0  0  0  0  0  0
   -1.5509   -1.3613   -4.2949 H   0  0  0  0  0  0  0  0  0  0  0  0
   -0.6638   -2.5332   -2.6741 C   0  0  0  0  0  0  0  0  0  0  0  0
    0.1511   -1.9559   -2.8698 H   0  0  0  0  0  0  0  0  0  0  0  0
   -1.0701   -2.1807   -1.8102 H   0  0  0  0  0  0  0  0  0  0  0  0
   -0.2299   -3.9342   -2.4702 N   0  0  0  0  0  4  0  0  0  0  0  0
    0.7638   -3.9947   -2.5672 H   0  0  0  0  0  0  0  0  0  0  0  0
   -0.4930   -4.2368   -1.5530 H   0  0  0  0  0  0  0  0  0  0  0  0
   -0.6659   -4.5234   -3.1519 H   0  0  0  0  0  0  0  0  0  0  0  0
   -0.0400    2.9215    0.0741 C   0  0  0  0  0  0  0  0  0  0  0  0
    0.7719    3.2127    0.5523 H   0  0  0  0  0  0  0  0  0  0  0  0
   -0.8604    3.1868    0.5536 H   0  0  0  0  0  0  0  0  0  0  0  0
   -0.0490    3.4107   -0.8999 H   0  0  0  0  0  0  0  0  0  0  0  0
   -0.0161    1.4129   -0.0057 C   0  0  0  0  0  0  0  0  0  0  0  0
   -1.1954    0.6687    0.0050 C   0  0  0  0  0  0  0  0  0  0  0  0
   -2.0776    1.1544    0.0159 H   0  0  0  0  0  0  0  0  0  0  0  0
   -1.2040   -0.7233    0.0000 C   0  0  0  0  0  0  0  0  0  0  0  0
   -2.0662   -1.2217    0.0006 H   0  0  0  0  0  0  0  0  0  0  0  0
    0.0176   -1.4040   -0.0041 C   0  0  0  0  0  0  0  0  0  0  0  0
    0.0328   -2.3963   -0.0106 H   0  0  0  0  0  0  0  0  0  0  0  0
    1.2040   -0.6734    0.0000 C   0  0  0  0  0  0  0  0  0  0  0  0
    2.0993   -1.1627    0.0008 H   0  0  0  0  0  0  0  0  0  0  0  0
    1.1939    0.7191    0.0047 C   0  0  0  0  0  0  0  0  0  0  0  0
    2.0527    1.2218    0.0154 H   0  0  0  0  0  0  0  0  0  0  0  0
  1  5  1  0
  5  8  1  0
  1  2  1  0
  1  3  1  0
  1  4  1  0
  5  6  1  0
  5  7  1  0
  8  9  1  0
  8 10  1  0
  8 11  1  0
 12 16  1  0
 16 17  2  0
 17 19  1  0
 19 21  2  0
 21 23  1  0
 23 25  2  0
 25 16  1  0
 12 13  1  0
 12 14  1  0
 12 15  1  0
 17 18  1  0
 19 20  1  0
 21 22  1  0
 23 24  1  0
 25 26  1  0
M  CHG  1   8   1
M  END
>  <PDB_ID>  (2304) 
pdb4mdh

>  <RESIDUE_NAME>  (2304) 
LYS   PHE

>  <FRAG_NAME>  (2304) 
ETAM   MBZ

>  <FRAG_ATOM_NUM>  (2304) 
fragi: 11  fragj: 15

>  <atom.prop.CHAIN_ID>  (2304) 
A A A A A A A A A A A Z Z Z Z Z Z Z Z Z Z Z Z Z Z Z

>  <atom.prop.IS_HEAVY_ATOM>  (2304) 
1 0 0 0 1 0 0 1 0 0 0 1 0 0 0 1 1 0 1 0 1 0 1 0 1 0

>  <DIFUSE_FUNC_ATOM>  (2304) 
n/a

>  <FINAL_SINGLE_POINT_ENERGY>  (2304) 
0

>  <NONCOV_INTER_ENERGY_QM>  (2304) 
0

>  <FF_Energy>  (2304) 
7.53

>  <QM_Energy>  (2304) 
-2.5

>  <source>  (2304) 
ETAM_MBZ

>  <Index>  (2304) 
23946

$$$$
ETAM-pdb4mdh-B-LYS-141:MBZ-pdb4mdh-B-PHE-327
     RDKit          3D

 26 25  0  0  0  0  0  0  0  0999 V2000
   -0.7377   -2.7755    2.7656 C   0  0  0  0  0  0  0  0  0  0  0  0
   -1.0757   -2.9858    1.8522 H   0  0  0  0  0  0  0  0  0  0  0  0
   -1.2469   -2.0099    3.1499 H   0  0  0  0  0  0  0  0  0  0  0  0
   -0.8839   -3.6484    3.4019 H   0  0  0  0  0  0  0  0  0  0  0  0
    0.7364   -2.3684    2.6539 C   0  0  0  0  0  0  0  0  0  0  0  0
    1.2585   -2.8704    3.3606 H   0  0  0  0  0  0  0  0  0  0  0  0
    1.0799   -2.6680    1.7505 H   0  0  0  0  0  0  0  0  0  0  0  0
    0.9687   -0.9156    2.8113 N   0  0  0  0  0  4  0  0  0  0  0  0
    0.4158   -0.4130    2.1445 H   0  0  0  0  0  0  0  0  0  0  0  0
    0.7115   -0.6323    3.7369 H   0  0  0  0  0  0  0  0  0  0  0  0
    1.9372   -0.7118    2.6591 H   0  0  0  0  0  0  0  0  0  0  0  0
   -0.0871    2.9431    0.1011 C   0  0  0  0  0  0  0  0  0  0  0  0
    0.7004    3.2898   -0.3484 H   0  0  0  0  0  0  0  0  0  0  0  0
   -0.1595    3.1968    1.0360 H   0  0  0  0  0  0  0  0  0  0  0  0
   -0.9725    3.3004   -0.4248 H   0  0  0  0  0  0  0  0  0  0  0  0
   -0.0206    1.4188    0.0393 C   0  0  0  0  0  0  0  0  0  0  0  0
   -1.1882    0.6537    0.0163 C   0  0  0  0  0  0  0  0  0  0  0  0
   -2.0810    1.1374    0.0101 H   0  0  0  0  0  0  0  0  0  0  0  0
   -1.2018   -0.7400   -0.0000 C   0  0  0  0  0  0  0  0  0  0  0  0
   -2.0586   -1.2363    0.0317 H   0  0  0  0  0  0  0  0  0  0  0  0
    0.0208   -1.4011   -0.0588 C   0  0  0  0  0  0  0  0  0  0  0  0
    0.0503   -2.3916   -0.1427 H   0  0  0  0  0  0  0  0  0  0  0  0
    1.2018   -0.6618   -0.0000 C   0  0  0  0  0  0  0  0  0  0  0  0
    2.0991   -1.1481    0.0427 H   0  0  0  0  0  0  0  0  0  0  0  0
    1.1880    0.7303    0.0032 C   0  0  0  0  0  0  0  0  0  0  0  0
    2.0456    1.2344   -0.0213 H   0  0  0  0  0  0  0  0  0  0  0  0
  1  5  1  0
  5  8  1  0
  1  2  1  0
  1  3  1  0
  1  4  1  0
  5  6  1  0
  5  7  1  0
  8  9  1  0
  8 10  1  0
  8 11  1  0
 12 16  1  0
 16 17  2  0
 17 19  1  0
 19 21  2  0
 21 23  1  0
 23 25  2  0
 25 16  1  0
 12 13  1  0
 12 14  1  0
 12 15  1  0
 17 18  1  0
 19 20  1  0
 21 22  1  0
 23 24  1  0
 25 26  1  0
M  CHG  1   8   1
M  END
>  <PDB_ID>  (2305) 
pdb4mdh

>  <RESIDUE_NAME>  (2305) 
LYS   PHE

>  <FRAG_NAME>  (2305) 
ETAM   MBZ

>  <FRAG_ATOM_NUM>  (2305) 
fragi: 11  fragj: 15

>  <atom.prop.CHAIN_ID>  (2305) 
A A A A A A A A A A A Z Z Z Z Z Z Z Z Z Z Z Z Z Z Z

>  <atom.prop.IS_HEAVY_ATOM>  (2305) 
1 0 0 0 1 0 0 1 0 0 0 1 0 0 0 1 1 0 1 0 1 0 1 0 1 0

>  <DIFUSE_FUNC_ATOM>  (2305) 
n/a

>  <FINAL_SINGLE_POINT_ENERGY>  (2305) 
0

>  <NONCOV_INTER_ENERGY_QM>  (2305) 
0

>  <FF_Energy>  (2305) 
-0.34

>  <QM_Energy>  (2305) 
-12.87

>  <source>  (2305) 
ETAM_MBZ

>  <Index>  (2305) 
23948

$$$$
ETAM-pdb3okf-B-LYS-281:MBZ-pdb3okf-B-PHE-294
     RDKit          3D

 26 25  0  0  0  0  0  0  0  0999 V2000
   -0.4763   -0.5916   -3.4400 C   0  0  0  0  0  0  0  0  0  0  0  0
   -0.8683    0.2722   -3.0982 H   0  0  0  0  0  0  0  0  0  0  0  0
   -0.1598   -1.1294   -2.6485 H   0  0  0  0  0  0  0  0  0  0  0  0
   -1.2766   -1.1506   -3.9251 H   0  0  0  0  0  0  0  0  0  0  0  0
    0.6841   -0.2906   -4.3271 C   0  0  0  0  0  0  0  0  0  0  0  0
    1.0746   -1.1364   -4.6716 H   0  0  0  0  0  0  0  0  0  0  0  0
    0.3938    0.2896   -5.0790 H   0  0  0  0  0  0  0  0  0  0  0  0
    1.7153    0.4296   -3.5309 N   0  0  0  0  0  4  0  0  0  0  0  0
    1.6251    0.1786   -2.5673 H   0  0  0  0  0  0  0  0  0  0  0  0
    2.6244    0.1755   -3.8596 H   0  0  0  0  0  0  0  0  0  0  0  0
    1.5844    1.4151   -3.6339 H   0  0  0  0  0  0  0  0  0  0  0  0
   -0.0045    2.8807    0.0123 C   0  0  0  0  0  0  0  0  0  0  0  0
   -0.7261    3.1961   -0.5850 H   0  0  0  0  0  0  0  0  0  0  0  0
    0.8809    3.1946   -0.2955 H   0  0  0  0  0  0  0  0  0  0  0  0
   -0.1814    3.3086    0.9990 H   0  0  0  0  0  0  0  0  0  0  0  0
   -0.0042    1.3891    0.0014 C   0  0  0  0  0  0  0  0  0  0  0  0
   -1.1951    0.6855    0.0009 C   0  0  0  0  0  0  0  0  0  0  0  0
   -2.0619    1.1816    0.0001 H   0  0  0  0  0  0  0  0  0  0  0  0
   -1.1933   -0.6839   -0.0000 C   0  0  0  0  0  0  0  0  0  0  0  0
   -2.0664   -1.1919    0.0012 H   0  0  0  0  0  0  0  0  0  0  0  0
    0.0113   -1.3801   -0.0007 C   0  0  0  0  0  0  0  0  0  0  0  0
   -0.0047   -2.3833   -0.0022 H   0  0  0  0  0  0  0  0  0  0  0  0
    1.1933   -0.6965    0.0000 C   0  0  0  0  0  0  0  0  0  0  0  0
    2.0821   -1.1910    0.0030 H   0  0  0  0  0  0  0  0  0  0  0  0
    1.1880    0.6858   -0.0016 C   0  0  0  0  0  0  0  0  0  0  0  0
    2.0571    1.1851   -0.0054 H   0  0  0  0  0  0  0  0  0  0  0  0
  1  5  1  0
  5  8  1  0
  1  2  1  0
  1  3  1  0
  1  4  1  0
  5  6  1  0
  5  7  1  0
  8  9  1  0
  8 10  1  0
  8 11  1  0
 12 16  1  0
 16 17  2  0
 17 19  1  0
 19 21  2  0
 21 23  1  0
 23 25  2  0
 25 16  1  0
 12 13  1  0
 12 14  1  0
 12 15  1  0
 17 18  1  0
 19 20  1  0
 21 22  1  0
 23 24  1  0
 25 26  1  0
M  CHG  1   8   1
M  END
>  <PDB_ID>  (2306) 
pdb3okf

>  <RESIDUE_NAME>  (2306) 
LYS   PHE

>  <FRAG_NAME>  (2306) 
ETAM   MBZ

>  <FRAG_ATOM_NUM>  (2306) 
fragi: 11  fragj: 15

>  <atom.prop.CHAIN_ID>  (2306) 
A A A A A A A A A A A Z Z Z Z Z Z Z Z Z Z Z Z Z Z Z

>  <atom.prop.IS_HEAVY_ATOM>  (2306) 
1 0 0 0 1 0 0 1 0 0 0 1 0 0 0 1 1 0 1 0 1 0 1 0 1 0

>  <DIFUSE_FUNC_ATOM>  (2306) 
n/a

>  <FINAL_SINGLE_POINT_ENERGY>  (2306) 
0

>  <NONCOV_INTER_ENERGY_QM>  (2306) 
0

>  <FF_Energy>  (2306) 
-6.47

>  <QM_Energy>  (2306) 
-12.54

>  <source>  (2306) 
ETAM_MBZ

>  <Index>  (2306) 
23979

$$$$
ETAM-pdb3onr-C-LYS-5:MBZ-pdb3onr-C-PHE-63
     RDKit          3D

 26 25  0  0  0  0  0  0  0  0999 V2000
   -1.4624   -3.1938    2.1226 C   0  0  0  0  0  0  0  0  0  0  0  0
   -2.3322   -2.7226    2.1261 H   0  0  0  0  0  0  0  0  0  0  0  0
   -0.9949   -3.0803    1.2593 H   0  0  0  0  0  0  0  0  0  0  0  0
   -0.8401   -2.7512    2.9004 H   0  0  0  0  0  0  0  0  0  0  0  0
   -1.6930   -4.6771    2.3787 C   0  0  0  0  0  0  0  0  0  0  0  0
   -0.8306   -5.1604    2.3129 H   0  0  0  0  0  0  0  0  0  0  0  0
   -2.0985   -4.7976    3.2754 H   0  0  0  0  0  0  0  0  0  0  0  0
   -2.6404   -5.2267    1.3374 N   0  0  0  0  0  4  0  0  0  0  0  0
   -2.6293   -6.2206    1.3880 H   0  0  0  0  0  0  0  0  0  0  0  0
   -3.5563   -4.8827    1.5247 H   0  0  0  0  0  0  0  0  0  0  0  0
   -2.3374   -4.9254    0.4380 H   0  0  0  0  0  0  0  0  0  0  0  0
   -0.0344    2.8689    0.0027 C   0  0  0  0  0  0  0  0  0  0  0  0
   -0.8346    3.1650   -0.5046 H   0  0  0  0  0  0  0  0  0  0  0  0
    0.7952    3.2093   -0.4212 H   0  0  0  0  0  0  0  0  0  0  0  0
   -0.0966    3.3090    0.9979 H   0  0  0  0  0  0  0  0  0  0  0  0
    0.0060    1.3934    0.0016 C   0  0  0  0  0  0  0  0  0  0  0  0
   -1.2046    0.6751    0.0035 C   0  0  0  0  0  0  0  0  0  0  0  0
   -2.0644    1.1889    0.0059 H   0  0  0  0  0  0  0  0  0  0  0  0
   -1.2262   -0.6937    0.0000 C   0  0  0  0  0  0  0  0  0  0  0  0
   -2.1002   -1.1910   -0.0075 H   0  0  0  0  0  0  0  0  0  0  0  0
   -0.0243   -1.3954    0.0089 C   0  0  0  0  0  0  0  0  0  0  0  0
   -0.0134   -2.3878    0.0207 H   0  0  0  0  0  0  0  0  0  0  0  0
    1.2262   -0.6864   -0.0000 C   0  0  0  0  0  0  0  0  0  0  0  0
    2.0829   -1.2016    0.0050 H   0  0  0  0  0  0  0  0  0  0  0  0
    1.2229    0.7071   -0.0140 C   0  0  0  0  0  0  0  0  0  0  0  0
    2.0757    1.2084   -0.0359 H   0  0  0  0  0  0  0  0  0  0  0  0
  1  5  1  0
  5  8  1  0
  1  2  1  0
  1  3  1  0
  1  4  1  0
  5  6  1  0
  5  7  1  0
  8  9  1  0
  8 10  1  0
  8 11  1  0
 12 16  1  0
 16 17  2  0
 17 19  1  0
 19 21  2  0
 21 23  1  0
 23 25  2  0
 25 16  1  0
 12 13  1  0
 12 14  1  0
 12 15  1  0
 17 18  1  0
 19 20  1  0
 21 22  1  0
 23 24  1  0
 25 26  1  0
M  CHG  1   8   1
M  END
>  <PDB_ID>  (2307) 
pdb3onr

>  <RESIDUE_NAME>  (2307) 
LYS   PHE

>  <FRAG_NAME>  (2307) 
ETAM   MBZ

>  <FRAG_ATOM_NUM>  (2307) 
fragi: 11  fragj: 15

>  <atom.prop.CHAIN_ID>  (2307) 
A A A A A A A A A A A Z Z Z Z Z Z Z Z Z Z Z Z Z Z Z

>  <atom.prop.IS_HEAVY_ATOM>  (2307) 
1 0 0 0 1 0 0 1 0 0 0 1 0 0 0 1 1 0 1 0 1 0 1 0 1 0

>  <DIFUSE_FUNC_ATOM>  (2307) 
n/a

>  <FINAL_SINGLE_POINT_ENERGY>  (2307) 
0

>  <NONCOV_INTER_ENERGY_QM>  (2307) 
0

>  <FF_Energy>  (2307) 
9.25

>  <QM_Energy>  (2307) 
0.32

>  <source>  (2307) 
ETAM_MBZ

>  <Index>  (2307) 
23983

$$$$
ETAM-pdb3olj-B-LYS-206:MBZ-pdb3olj-B-PHE-303
     RDKit          3D

 26 25  0  0  0  0  0  0  0  0999 V2000
   -0.4673    2.0473   -4.7117 C   0  0  0  0  0  0  0  0  0  0  0  0
   -0.4056    1.3477   -5.4169 H   0  0  0  0  0  0  0  0  0  0  0  0
    0.2983    2.6787   -4.7847 H   0  0  0  0  0  0  0  0  0  0  0  0
   -1.3941    2.6034   -4.8528 H   0  0  0  0  0  0  0  0  0  0  0  0
   -0.4414    1.3959   -3.3690 C   0  0  0  0  0  0  0  0  0  0  0  0
   -0.6929    2.0619   -2.6671 H   0  0  0  0  0  0  0  0  0  0  0  0
   -1.0875    0.6332   -3.3517 H   0  0  0  0  0  0  0  0  0  0  0  0
    0.9206    0.8797   -3.0784 N   0  0  0  0  0  4  0  0  0  0  0  0
    1.1981    1.1703   -2.1623 H   0  0  0  0  0  0  0  0  0  0  0  0
    0.9150   -0.1196   -3.1244 H   0  0  0  0  0  0  0  0  0  0  0  0
    1.5646    1.2410   -3.7522 H   0  0  0  0  0  0  0  0  0  0  0  0
    0.0060    2.9084   -0.0282 C   0  0  0  0  0  0  0  0  0  0  0  0
   -0.7063    3.2066   -0.6471 H   0  0  0  0  0  0  0  0  0  0  0  0
    0.8966    3.2101   -0.3352 H   0  0  0  0  0  0  0  0  0  0  0  0
   -0.1836    3.3708    0.9404 H   0  0  0  0  0  0  0  0  0  0  0  0
    0.0038    1.4096    0.0011 C   0  0  0  0  0  0  0  0  0  0  0  0
   -1.1980    0.6973   -0.0048 C   0  0  0  0  0  0  0  0  0  0  0  0
   -2.0639    1.1813   -0.0139 H   0  0  0  0  0  0  0  0  0  0  0  0
   -1.2050   -0.7118   -0.0000 C   0  0  0  0  0  0  0  0  0  0  0  0
   -2.0819   -1.1955    0.0027 H   0  0  0  0  0  0  0  0  0  0  0  0
   -0.0023   -1.4053    0.0032 C   0  0  0  0  0  0  0  0  0  0  0  0
    0.0041   -2.4000    0.0067 H   0  0  0  0  0  0  0  0  0  0  0  0
    1.2050   -0.6944   -0.0000 C   0  0  0  0  0  0  0  0  0  0  0  0
    2.0865   -1.1885   -0.0012 H   0  0  0  0  0  0  0  0  0  0  0  0
    1.1965    0.7045    0.0005 C   0  0  0  0  0  0  0  0  0  0  0  0
    2.0675    1.1975   -0.0002 H   0  0  0  0  0  0  0  0  0  0  0  0
  1  5  1  0
  5  8  1  0
  1  2  1  0
  1  3  1  0
  1  4  1  0
  5  6  1  0
  5  7  1  0
  8  9  1  0
  8 10  1  0
  8 11  1  0
 12 16  1  0
 16 17  2  0
 17 19  1  0
 19 21  2  0
 21 23  1  0
 23 25  2  0
 25 16  1  0
 12 13  1  0
 12 14  1  0
 12 15  1  0
 17 18  1  0
 19 20  1  0
 21 22  1  0
 23 24  1  0
 25 26  1  0
M  CHG  1   8   1
M  END
>  <PDB_ID>  (2308) 
pdb3olj

>  <RESIDUE_NAME>  (2308) 
LYS   PHE

>  <FRAG_NAME>  (2308) 
ETAM   MBZ

>  <FRAG_ATOM_NUM>  (2308) 
fragi: 11  fragj: 15

>  <atom.prop.CHAIN_ID>  (2308) 
A A A A A A A A A A A Z Z Z Z Z Z Z Z Z Z Z Z Z Z Z

>  <atom.prop.IS_HEAVY_ATOM>  (2308) 
1 0 0 0 1 0 0 1 0 0 0 1 0 0 0 1 1 0 1 0 1 0 1 0 1 0

>  <DIFUSE_FUNC_ATOM>  (2308) 
n/a

>  <FINAL_SINGLE_POINT_ENERGY>  (2308) 
0

>  <NONCOV_INTER_ENERGY_QM>  (2308) 
0

>  <FF_Energy>  (2308) 
-7.73

>  <QM_Energy>  (2308) 
-14.67

>  <source>  (2308) 
ETAM_MBZ

>  <Index>  (2308) 
23989

$$$$
ETAM-pdb4m8s-A-LYS-34:MBZ-pdb4m8s-A-PHE-81
     RDKit          3D

 26 25  0  0  0  0  0  0  0  0999 V2000
   -1.9340   -1.1775    3.8942 C   0  0  0  0  0  0  0  0  0  0  0  0
   -2.0263   -1.5869    4.7920 H   0  0  0  0  0  0  0  0  0  0  0  0
   -2.8200   -1.0404    3.4729 H   0  0  0  0  0  0  0  0  0  0  0  0
   -1.4352   -0.2135    3.9938 H   0  0  0  0  0  0  0  0  0  0  0  0
   -1.1170   -2.1123    3.0147 C   0  0  0  0  0  0  0  0  0  0  0  0
   -0.8323   -1.6093    2.1838 H   0  0  0  0  0  0  0  0  0  0  0  0
   -0.2777   -2.3774    3.5136 H   0  0  0  0  0  0  0  0  0  0  0  0
   -1.8470   -3.3445    2.6086 N   0  0  0  0  0  4  0  0  0  0  0  0
   -1.4397   -4.1359    3.0637 H   0  0  0  0  0  0  0  0  0  0  0  0
   -2.8070   -3.2634    2.8737 H   0  0  0  0  0  0  0  0  0  0  0  0
   -1.7815   -3.4570    1.6178 H   0  0  0  0  0  0  0  0  0  0  0  0
   -0.0060    2.8984   -0.0362 C   0  0  0  0  0  0  0  0  0  0  0  0
    0.9140    3.2128    0.1249 H   0  0  0  0  0  0  0  0  0  0  0  0
   -0.6315    3.2208    0.6530 H   0  0  0  0  0  0  0  0  0  0  0  0
   -0.3325    3.2958   -0.9973 H   0  0  0  0  0  0  0  0  0  0  0  0
    0.0002    1.3971    0.0051 C   0  0  0  0  0  0  0  0  0  0  0  0
   -1.1945    0.6884   -0.0009 C   0  0  0  0  0  0  0  0  0  0  0  0
   -2.0617    1.1805   -0.0068 H   0  0  0  0  0  0  0  0  0  0  0  0
   -1.1979   -0.6960   -0.0000 C   0  0  0  0  0  0  0  0  0  0  0  0
   -2.0743   -1.1928    0.0021 H   0  0  0  0  0  0  0  0  0  0  0  0
    0.0027   -1.3895    0.0001 C   0  0  0  0  0  0  0  0  0  0  0  0
   -0.0004   -2.3895   -0.0002 H   0  0  0  0  0  0  0  0  0  0  0  0
    1.1979   -0.6934   -0.0000 C   0  0  0  0  0  0  0  0  0  0  0  0
    2.0817   -1.1897    0.0041 H   0  0  0  0  0  0  0  0  0  0  0  0
    1.1916    0.6934   -0.0044 C   0  0  0  0  0  0  0  0  0  0  0  0
    2.0611    1.1907   -0.0153 H   0  0  0  0  0  0  0  0  0  0  0  0
  1  5  1  0
  5  8  1  0
  1  2  1  0
  1  3  1  0
  1  4  1  0
  5  6  1  0
  5  7  1  0
  8  9  1  0
  8 10  1  0
  8 11  1  0
 12 16  1  0
 16 17  2  0
 17 19  1  0
 19 21  2  0
 21 23  1  0
 23 25  2  0
 25 16  1  0
 12 13  1  0
 12 14  1  0
 12 15  1  0
 17 18  1  0
 19 20  1  0
 21 22  1  0
 23 24  1  0
 25 26  1  0
M  CHG  1   8   1
M  END
>  <PDB_ID>  (2309) 
pdb4m8s

>  <RESIDUE_NAME>  (2309) 
LYS   PHE

>  <FRAG_NAME>  (2309) 
ETAM   MBZ

>  <FRAG_ATOM_NUM>  (2309) 
fragi: 11  fragj: 15

>  <atom.prop.CHAIN_ID>  (2309) 
A A A A A A A A A A A Z Z Z Z Z Z Z Z Z Z Z Z Z Z Z

>  <atom.prop.IS_HEAVY_ATOM>  (2309) 
1 0 0 0 1 0 0 1 0 0 0 1 0 0 0 1 1 0 1 0 1 0 1 0 1 0

>  <DIFUSE_FUNC_ATOM>  (2309) 
n/a

>  <FINAL_SINGLE_POINT_ENERGY>  (2309) 
0

>  <NONCOV_INTER_ENERGY_QM>  (2309) 
0

>  <FF_Energy>  (2309) 
2.1

>  <QM_Energy>  (2309) 
-5.94

>  <source>  (2309) 
ETAM_MBZ

>  <Index>  (2309) 
24003

$$$$
ETAM-pdb3op1-A-LYS-243:MBZ-pdb3op1-A-PHE-247
     RDKit          3D

 26 25  0  0  0  0  0  0  0  0999 V2000
   -1.4517   -3.8654    1.9406 C   0  0  0  0  0  0  0  0  0  0  0  0
   -1.7981   -4.5920    2.5236 H   0  0  0  0  0  0  0  0  0  0  0  0
   -2.0271   -3.0589    2.0080 H   0  0  0  0  0  0  0  0  0  0  0  0
   -0.4417   -3.6081    2.2597 H   0  0  0  0  0  0  0  0  0  0  0  0
   -1.4642   -4.3506    0.5002 C   0  0  0  0  0  0  0  0  0  0  0  0
   -0.6747   -3.9569    0.0176 H   0  0  0  0  0  0  0  0  0  0  0  0
   -1.3762   -5.3520    0.4935 H   0  0  0  0  0  0  0  0  0  0  0  0
   -2.7129   -3.9659   -0.2120 N   0  0  0  0  0  4  0  0  0  0  0  0
   -2.6503   -3.0105   -0.4991 H   0  0  0  0  0  0  0  0  0  0  0  0
   -2.8297   -4.5490   -1.0149 H   0  0  0  0  0  0  0  0  0  0  0  0
   -3.4939   -4.0805    0.4017 H   0  0  0  0  0  0  0  0  0  0  0  0
    0.0008    2.8829   -0.0017 C   0  0  0  0  0  0  0  0  0  0  0  0
   -0.8560    3.1917   -0.3901 H   0  0  0  0  0  0  0  0  0  0  0  0
    0.7700    3.1891   -0.5463 H   0  0  0  0  0  0  0  0  0  0  0  0
    0.0965    3.3268    0.9893 H   0  0  0  0  0  0  0  0  0  0  0  0
   -0.0009    1.3874    0.0010 C   0  0  0  0  0  0  0  0  0  0  0  0
   -1.1866    0.6867   -0.0034 C   0  0  0  0  0  0  0  0  0  0  0  0
   -2.0562    1.1803   -0.0103 H   0  0  0  0  0  0  0  0  0  0  0  0
   -1.1877   -0.6858   -0.0000 C   0  0  0  0  0  0  0  0  0  0  0  0
   -2.0679   -1.1854    0.0026 H   0  0  0  0  0  0  0  0  0  0  0  0
    0.0015   -1.3759    0.0020 C   0  0  0  0  0  0  0  0  0  0  0  0
   -0.0072   -2.3808    0.0046 H   0  0  0  0  0  0  0  0  0  0  0  0
    1.1877   -0.6935   -0.0000 C   0  0  0  0  0  0  0  0  0  0  0  0
    2.0735   -1.1946   -0.0006 H   0  0  0  0  0  0  0  0  0  0  0  0
    1.1861    0.6812    0.0004 C   0  0  0  0  0  0  0  0  0  0  0  0
    2.0576    1.1808   -0.0004 H   0  0  0  0  0  0  0  0  0  0  0  0
  1  5  1  0
  5  8  1  0
  1  2  1  0
  1  3  1  0
  1  4  1  0
  5  6  1  0
  5  7  1  0
  8  9  1  0
  8 10  1  0
  8 11  1  0
 12 16  1  0
 16 17  2  0
 17 19  1  0
 19 21  2  0
 21 23  1  0
 23 25  2  0
 25 16  1  0
 12 13  1  0
 12 14  1  0
 12 15  1  0
 17 18  1  0
 19 20  1  0
 21 22  1  0
 23 24  1  0
 25 26  1  0
M  CHG  1   8   1
M  END
>  <PDB_ID>  (2310) 
pdb3op1

>  <RESIDUE_NAME>  (2310) 
LYS   PHE

>  <FRAG_NAME>  (2310) 
ETAM   MBZ

>  <FRAG_ATOM_NUM>  (2310) 
fragi: 11  fragj: 15

>  <atom.prop.CHAIN_ID>  (2310) 
A A A A A A A A A A A Z Z Z Z Z Z Z Z Z Z Z Z Z Z Z

>  <atom.prop.IS_HEAVY_ATOM>  (2310) 
1 0 0 0 1 0 0 1 0 0 0 1 0 0 0 1 1 0 1 0 1 0 1 0 1 0

>  <DIFUSE_FUNC_ATOM>  (2310) 
n/a

>  <FINAL_SINGLE_POINT_ENERGY>  (2310) 
0

>  <NONCOV_INTER_ENERGY_QM>  (2310) 
0

>  <FF_Energy>  (2310) 
9.11

>  <QM_Energy>  (2310) 
-2.76

>  <source>  (2310) 
ETAM_MBZ

>  <Index>  (2310) 
24031

$$$$
ETAM-pdb4mi7-A-LYS-108:MBZ-pdb4mi7-A-PHE-104
     RDKit          3D

 26 25  0  0  0  0  0  0  0  0999 V2000
   -0.7604   -0.2736    3.4547 C   0  0  0  0  0  0  0  0  0  0  0  0
   -0.5648    0.0149    2.4970 H   0  0  0  0  0  0  0  0  0  0  0  0
   -0.5207    0.5169    4.0504 H   0  0  0  0  0  0  0  0  0  0  0  0
   -1.8369   -0.4247    3.5340 H   0  0  0  0  0  0  0  0  0  0  0  0
    0.0494   -1.4204    3.8022 C   0  0  0  0  0  0  0  0  0  0  0  0
   -0.0733   -1.6863    4.7294 H   0  0  0  0  0  0  0  0  0  0  0  0
   -0.0527   -2.1473    3.1637 H   0  0  0  0  0  0  0  0  0  0  0  0
    1.4704   -0.8823    3.6618 N   0  0  0  0  0  4  0  0  0  0  0  0
    1.6308   -0.2284    4.3923 H   0  0  0  0  0  0  0  0  0  0  0  0
    2.1020   -1.6457    3.7312 H   0  0  0  0  0  0  0  0  0  0  0  0
    1.5518   -0.4423    2.7745 H   0  0  0  0  0  0  0  0  0  0  0  0
    0.0108    2.9077   -0.1041 C   0  0  0  0  0  0  0  0  0  0  0  0
    0.0451    3.1428   -1.0775 H   0  0  0  0  0  0  0  0  0  0  0  0
    0.8526    3.2218    0.3393 H   0  0  0  0  0  0  0  0  0  0  0  0
   -0.8279    3.4403    0.3442 H   0  0  0  0  0  0  0  0  0  0  0  0
   -0.0143    1.4045   -0.0055 C   0  0  0  0  0  0  0  0  0  0  0  0
   -1.1949    0.6701    0.0266 C   0  0  0  0  0  0  0  0  0  0  0  0
   -2.0745    1.1499    0.0692 H   0  0  0  0  0  0  0  0  0  0  0  0
   -1.1989   -0.7293    0.0000 C   0  0  0  0  0  0  0  0  0  0  0  0
   -2.0680   -1.2214   -0.0307 H   0  0  0  0  0  0  0  0  0  0  0  0
    0.0099   -1.4041    0.0195 C   0  0  0  0  0  0  0  0  0  0  0  0
    0.0375   -2.3948    0.0465 H   0  0  0  0  0  0  0  0  0  0  0  0
    1.1989   -0.6643   -0.0000 C   0  0  0  0  0  0  0  0  0  0  0  0
    2.0947   -1.1616    0.0182 H   0  0  0  0  0  0  0  0  0  0  0  0
    1.1994    0.7231   -0.0407 C   0  0  0  0  0  0  0  0  0  0  0  0
    2.0510    1.2230   -0.0950 H   0  0  0  0  0  0  0  0  0  0  0  0
  1  5  1  0
  5  8  1  0
  1  2  1  0
  1  3  1  0
  1  4  1  0
  5  6  1  0
  5  7  1  0
  8  9  1  0
  8 10  1  0
  8 11  1  0
 12 16  1  0
 16 17  2  0
 17 19  1  0
 19 21  2  0
 21 23  1  0
 23 25  2  0
 25 16  1  0
 12 13  1  0
 12 14  1  0
 12 15  1  0
 17 18  1  0
 19 20  1  0
 21 22  1  0
 23 24  1  0
 25 26  1  0
M  CHG  1   8   1
M  END
>  <PDB_ID>  (2311) 
pdb4mi7

>  <RESIDUE_NAME>  (2311) 
LYS   PHE

>  <FRAG_NAME>  (2311) 
ETAM   MBZ

>  <FRAG_ATOM_NUM>  (2311) 
fragi: 11  fragj: 15

>  <atom.prop.CHAIN_ID>  (2311) 
A A A A A A A A A A A Z Z Z Z Z Z Z Z Z Z Z Z Z Z Z

>  <atom.prop.IS_HEAVY_ATOM>  (2311) 
1 0 0 0 1 0 0 1 0 0 0 1 0 0 0 1 1 0 1 0 1 0 1 0 1 0

>  <DIFUSE_FUNC_ATOM>  (2311) 
n/a

>  <FINAL_SINGLE_POINT_ENERGY>  (2311) 
0

>  <NONCOV_INTER_ENERGY_QM>  (2311) 
0

>  <FF_Energy>  (2311) 
-5.79

>  <QM_Energy>  (2311) 
-12.89

>  <source>  (2311) 
ETAM_MBZ

>  <Index>  (2311) 
24042

$$$$
ETAM-pdb4mie-A-LYS-118:MBZ-pdb4mie-A-PHE-92
     RDKit          3D

 26 25  0  0  0  0  0  0  0  0999 V2000
   -1.9554   -4.5251   -2.9574 C   0  0  0  0  0  0  0  0  0  0  0  0
   -2.3085   -4.7659   -2.0581 H   0  0  0  0  0  0  0  0  0  0  0  0
   -1.5547   -5.3231   -3.3966 H   0  0  0  0  0  0  0  0  0  0  0  0
   -2.7766   -4.1575   -3.5728 H   0  0  0  0  0  0  0  0  0  0  0  0
   -0.8570   -3.4717   -2.7780 C   0  0  0  0  0  0  0  0  0  0  0  0
   -0.5548   -3.1655   -3.6906 H   0  0  0  0  0  0  0  0  0  0  0  0
   -1.2506   -2.6763   -2.2972 H   0  0  0  0  0  0  0  0  0  0  0  0
    0.3255   -3.9672   -2.0133 N   0  0  0  0  0  4  0  0  0  0  0  0
    1.0069   -4.3190   -2.6529 H   0  0  0  0  0  0  0  0  0  0  0  0
    0.7157   -3.2145   -1.4861 H   0  0  0  0  0  0  0  0  0  0  0  0
    0.0364   -4.6959   -1.3950 H   0  0  0  0  0  0  0  0  0  0  0  0
   -0.0130    2.8847    0.0001 C   0  0  0  0  0  0  0  0  0  0  0  0
    0.8727    3.2031    0.3043 H   0  0  0  0  0  0  0  0  0  0  0  0
   -0.7313    3.1901    0.6080 H   0  0  0  0  0  0  0  0  0  0  0  0
   -0.2025    3.3229   -0.9798 H   0  0  0  0  0  0  0  0  0  0  0  0
    0.0009    1.3882    0.0039 C   0  0  0  0  0  0  0  0  0  0  0  0
   -1.1765    0.6758   -0.0045 C   0  0  0  0  0  0  0  0  0  0  0  0
   -2.0526    1.1660   -0.0157 H   0  0  0  0  0  0  0  0  0  0  0  0
   -1.1758   -0.6960   -0.0000 C   0  0  0  0  0  0  0  0  0  0  0  0
   -2.0629   -1.1910    0.0012 H   0  0  0  0  0  0  0  0  0  0  0  0
   -0.0021   -1.3732    0.0039 C   0  0  0  0  0  0  0  0  0  0  0  0
    0.0003   -2.3816    0.0095 H   0  0  0  0  0  0  0  0  0  0  0  0
    1.1758   -0.6867   -0.0000 C   0  0  0  0  0  0  0  0  0  0  0  0
    2.0669   -1.1841    0.0012 H   0  0  0  0  0  0  0  0  0  0  0  0
    1.1777    0.6919   -0.0033 C   0  0  0  0  0  0  0  0  0  0  0  0
    2.0528    1.1836   -0.0120 H   0  0  0  0  0  0  0  0  0  0  0  0
  1  5  1  0
  5  8  1  0
  1  2  1  0
  1  3  1  0
  1  4  1  0
  5  6  1  0
  5  7  1  0
  8  9  1  0
  8 10  1  0
  8 11  1  0
 12 16  1  0
 16 17  2  0
 17 19  1  0
 19 21  2  0
 21 23  1  0
 23 25  2  0
 25 16  1  0
 12 13  1  0
 12 14  1  0
 12 15  1  0
 17 18  1  0
 19 20  1  0
 21 22  1  0
 23 24  1  0
 25 26  1  0
M  CHG  1   8   1
M  END
>  <PDB_ID>  (2312) 
pdb4mie

>  <RESIDUE_NAME>  (2312) 
LYS   PHE

>  <FRAG_NAME>  (2312) 
ETAM   MBZ

>  <FRAG_ATOM_NUM>  (2312) 
fragi: 11  fragj: 15

>  <atom.prop.CHAIN_ID>  (2312) 
A A A A A A A A A A A Z Z Z Z Z Z Z Z Z Z Z Z Z Z Z

>  <atom.prop.IS_HEAVY_ATOM>  (2312) 
1 0 0 0 1 0 0 1 0 0 0 1 0 0 0 1 1 0 1 0 1 0 1 0 1 0

>  <DIFUSE_FUNC_ATOM>  (2312) 
n/a

>  <FINAL_SINGLE_POINT_ENERGY>  (2312) 
0

>  <NONCOV_INTER_ENERGY_QM>  (2312) 
0

>  <FF_Energy>  (2312) 
0.04

>  <QM_Energy>  (2312) 
-6.84

>  <source>  (2312) 
ETAM_MBZ

>  <Index>  (2312) 
24045

$$$$
ETAM-pdb3orf-A-LYS-25:MBZ-pdb3orf-A-PHE-21
     RDKit          3D

 26 25  0  0  0  0  0  0  0  0999 V2000
    2.5458   -2.6937    4.0398 C   0  0  0  0  0  0  0  0  0  0  0  0
    3.3555   -3.2456    3.8998 H   0  0  0  0  0  0  0  0  0  0  0  0
    2.2983   -2.6597    4.9976 H   0  0  0  0  0  0  0  0  0  0  0  0
    2.7627   -1.6790    3.7059 H   0  0  0  0  0  0  0  0  0  0  0  0
    1.3935   -3.2918    3.2494 C   0  0  0  0  0  0  0  0  0  0  0  0
    1.5382   -3.1018    2.2774 H   0  0  0  0  0  0  0  0  0  0  0  0
    1.3838   -4.2816    3.3956 H   0  0  0  0  0  0  0  0  0  0  0  0
    0.1121   -2.7145    3.6822 N   0  0  0  0  0  4  0  0  0  0  0  0
   -0.3060   -2.2078    2.9253 H   0  0  0  0  0  0  0  0  0  0  0  0
   -0.5108   -3.4454    3.9711 H   0  0  0  0  0  0  0  0  0  0  0  0
    0.2629   -2.0896    4.4509 H   0  0  0  0  0  0  0  0  0  0  0  0
    0.0272    2.9297    0.0160 C   0  0  0  0  0  0  0  0  0  0  0  0
   -0.8307    3.2649   -0.3356 H   0  0  0  0  0  0  0  0  0  0  0  0
    0.7917    3.2443   -0.5213 H   0  0  0  0  0  0  0  0  0  0  0  0
    0.1473    3.3426    1.0176 H   0  0  0  0  0  0  0  0  0  0  0  0
    0.0047    1.4367   -0.0118 C   0  0  0  0  0  0  0  0  0  0  0  0
   -1.2118    0.7398   -0.0016 C   0  0  0  0  0  0  0  0  0  0  0  0
   -2.0723    1.1990    0.0027 H   0  0  0  0  0  0  0  0  0  0  0  0
   -1.2147   -0.7269   -0.0000 C   0  0  0  0  0  0  0  0  0  0  0  0
   -2.0958   -1.1867   -0.0003 H   0  0  0  0  0  0  0  0  0  0  0  0
   -0.0071   -1.4316    0.0039 C   0  0  0  0  0  0  0  0  0  0  0  0
   -0.0050   -2.4229    0.0084 H   0  0  0  0  0  0  0  0  0  0  0  0
    1.2147   -0.7213    0.0000 C   0  0  0  0  0  0  0  0  0  0  0  0
    2.0907   -1.2121   -0.0075 H   0  0  0  0  0  0  0  0  0  0  0  0
    1.2142    0.7032    0.0095 C   0  0  0  0  0  0  0  0  0  0  0  0
    2.0823    1.1868    0.0303 H   0  0  0  0  0  0  0  0  0  0  0  0
  1  5  1  0
  5  8  1  0
  1  2  1  0
  1  3  1  0
  1  4  1  0
  5  6  1  0
  5  7  1  0
  8  9  1  0
  8 10  1  0
  8 11  1  0
 12 16  1  0
 16 17  2  0
 17 19  1  0
 19 21  2  0
 21 23  1  0
 23 25  2  0
 25 16  1  0
 12 13  1  0
 12 14  1  0
 12 15  1  0
 17 18  1  0
 19 20  1  0
 21 22  1  0
 23 24  1  0
 25 26  1  0
M  CHG  1   8   1
M  END
>  <PDB_ID>  (2313) 
pdb3orf

>  <RESIDUE_NAME>  (2313) 
LYS   PHE

>  <FRAG_NAME>  (2313) 
ETAM   MBZ

>  <FRAG_ATOM_NUM>  (2313) 
fragi: 11  fragj: 15

>  <atom.prop.CHAIN_ID>  (2313) 
A A A A A A A A A A A Z Z Z Z Z Z Z Z Z Z Z Z Z Z Z

>  <atom.prop.IS_HEAVY_ATOM>  (2313) 
1 0 0 0 1 0 0 1 0 0 0 1 0 0 0 1 1 0 1 0 1 0 1 0 1 0

>  <DIFUSE_FUNC_ATOM>  (2313) 
n/a

>  <FINAL_SINGLE_POINT_ENERGY>  (2313) 
0

>  <NONCOV_INTER_ENERGY_QM>  (2313) 
0

>  <FF_Energy>  (2313) 
-3.34

>  <QM_Energy>  (2313) 
-8.76

>  <source>  (2313) 
ETAM_MBZ

>  <Index>  (2313) 
24064

$$$$
ETAM-pdb3or1-C-LYS-31:MBZ-pdb3or1-C-PHE-6
     RDKit          3D

 26 25  0  0  0  0  0  0  0  0999 V2000
    4.4026   -4.4360    0.7594 C   0  0  0  0  0  0  0  0  0  0  0  0
    4.5852   -5.3420    1.1904 H   0  0  0  0  0  0  0  0  0  0  0  0
    5.3048   -3.9647    0.6891 H   0  0  0  0  0  0  0  0  0  0  0  0
    4.0255   -4.6064   -0.2490 H   0  0  0  0  0  0  0  0  0  0  0  0
    3.5266   -3.6221    1.7394 C   0  0  0  0  0  0  0  0  0  0  0  0
    3.9398   -3.7107    2.6779 H   0  0  0  0  0  0  0  0  0  0  0  0
    3.6259   -2.6260    1.4982 H   0  0  0  0  0  0  0  0  0  0  0  0
    2.0623   -3.9446    1.8315 N   0  0  0  0  0  4  0  0  0  0  0  0
    1.5767   -3.4590    1.1086 H   0  0  0  0  0  0  0  0  0  0  0  0
    1.9388   -4.9286    1.7230 H   0  0  0  0  0  0  0  0  0  0  0  0
    1.7216   -3.6556    2.7237 H   0  0  0  0  0  0  0  0  0  0  0  0
    0.0038    2.9052    0.0066 C   0  0  0  0  0  0  0  0  0  0  0  0
   -0.5772    3.2172   -0.7301 H   0  0  0  0  0  0  0  0  0  0  0  0
    0.9364    3.2109   -0.1169 H   0  0  0  0  0  0  0  0  0  0  0  0
   -0.3694    3.3429    0.9324 H   0  0  0  0  0  0  0  0  0  0  0  0
    0.0004    1.4035    0.0002 C   0  0  0  0  0  0  0  0  0  0  0  0
   -1.1972    0.6954    0.0004 C   0  0  0  0  0  0  0  0  0  0  0  0
   -2.0633    1.1849   -0.0010 H   0  0  0  0  0  0  0  0  0  0  0  0
   -1.2027   -0.6986    0.0000 C   0  0  0  0  0  0  0  0  0  0  0  0
   -2.0791   -1.1912    0.0008 H   0  0  0  0  0  0  0  0  0  0  0  0
    0.0004   -1.3969   -0.0001 C   0  0  0  0  0  0  0  0  0  0  0  0
   -0.0034   -2.3947   -0.0009 H   0  0  0  0  0  0  0  0  0  0  0  0
    1.2027   -0.6986   -0.0000 C   0  0  0  0  0  0  0  0  0  0  0  0
    2.0839   -1.1944    0.0017 H   0  0  0  0  0  0  0  0  0  0  0  0
    1.1964    0.6953   -0.0005 C   0  0  0  0  0  0  0  0  0  0  0  0
    2.0654    1.1902   -0.0023 H   0  0  0  0  0  0  0  0  0  0  0  0
  1  5  1  0
  5  8  1  0
  1  2  1  0
  1  3  1  0
  1  4  1  0
  5  6  1  0
  5  7  1  0
  8  9  1  0
  8 10  1  0
  8 11  1  0
 12 16  1  0
 16 17  2  0
 17 19  1  0
 19 21  2  0
 21 23  1  0
 23 25  2  0
 25 16  1  0
 12 13  1  0
 12 14  1  0
 12 15  1  0
 17 18  1  0
 19 20  1  0
 21 22  1  0
 23 24  1  0
 25 26  1  0
M  CHG  1   8   1
M  END
>  <PDB_ID>  (2314) 
pdb3or1

>  <RESIDUE_NAME>  (2314) 
LYS   PHE

>  <FRAG_NAME>  (2314) 
ETAM   MBZ

>  <FRAG_ATOM_NUM>  (2314) 
fragi: 11  fragj: 15

>  <atom.prop.CHAIN_ID>  (2314) 
A A A A A A A A A A A Z Z Z Z Z Z Z Z Z Z Z Z Z Z Z

>  <atom.prop.IS_HEAVY_ATOM>  (2314) 
1 0 0 0 1 0 0 1 0 0 0 1 0 0 0 1 1 0 1 0 1 0 1 0 1 0

>  <DIFUSE_FUNC_ATOM>  (2314) 
n/a

>  <FINAL_SINGLE_POINT_ENERGY>  (2314) 
0

>  <NONCOV_INTER_ENERGY_QM>  (2314) 
0

>  <FF_Energy>  (2314) 
-0.09

>  <QM_Energy>  (2314) 
-5.27

>  <source>  (2314) 
ETAM_MBZ

>  <Index>  (2314) 
24076

$$$$
ETAM-pdb3orh-B-LYS-114:MBZ-pdb3orh-B-PHE-96
     RDKit          3D

 26 25  0  0  0  0  0  0  0  0999 V2000
    1.8051   -1.1467   -2.9341 C   0  0  0  0  0  0  0  0  0  0  0  0
    2.2129   -0.6333   -3.6891 H   0  0  0  0  0  0  0  0  0  0  0  0
    1.8006   -0.5807   -2.1094 H   0  0  0  0  0  0  0  0  0  0  0  0
    0.7753   -1.3901   -3.1952 H   0  0  0  0  0  0  0  0  0  0  0  0
    2.6418   -2.3769   -2.6743 C   0  0  0  0  0  0  0  0  0  0  0  0
    2.2408   -2.8941   -1.9179 H   0  0  0  0  0  0  0  0  0  0  0  0
    2.6537   -2.9465   -3.4963 H   0  0  0  0  0  0  0  0  0  0  0  0
    4.0341   -1.9986   -2.3230 N   0  0  0  0  0  4  0  0  0  0  0  0
    4.3878   -2.6318   -1.6346 H   0  0  0  0  0  0  0  0  0  0  0  0
    4.6073   -2.0402   -3.1411 H   0  0  0  0  0  0  0  0  0  0  0  0
    4.0436   -1.0679   -1.9561 H   0  0  0  0  0  0  0  0  0  0  0  0
    0.0046    2.9088    0.0104 C   0  0  0  0  0  0  0  0  0  0  0  0
   -0.7086    3.2248   -0.5879 H   0  0  0  0  0  0  0  0  0  0  0  0
    0.8938    3.2154   -0.2752 H   0  0  0  0  0  0  0  0  0  0  0  0
   -0.1868    3.3138    1.0040 H   0  0  0  0  0  0  0  0  0  0  0  0
   -0.0003    1.4043   -0.0102 C   0  0  0  0  0  0  0  0  0  0  0  0
   -1.1946    0.6969    0.0057 C   0  0  0  0  0  0  0  0  0  0  0  0
   -2.0624    1.1804    0.0203 H   0  0  0  0  0  0  0  0  0  0  0  0
   -1.1936   -0.6992   -0.0000 C   0  0  0  0  0  0  0  0  0  0  0  0
   -2.0741   -1.1895   -0.0049 H   0  0  0  0  0  0  0  0  0  0  0  0
   -0.0010   -1.3879    0.0033 C   0  0  0  0  0  0  0  0  0  0  0  0
   -0.0076   -2.3934    0.0071 H   0  0  0  0  0  0  0  0  0  0  0  0
    1.1936   -0.7046    0.0000 C   0  0  0  0  0  0  0  0  0  0  0  0
    2.0766   -1.2013   -0.0019 H   0  0  0  0  0  0  0  0  0  0  0  0
    1.1959    0.6904    0.0012 C   0  0  0  0  0  0  0  0  0  0  0  0
    2.0654    1.1816    0.0095 H   0  0  0  0  0  0  0  0  0  0  0  0
  1  5  1  0
  5  8  1  0
  1  2  1  0
  1  3  1  0
  1  4  1  0
  5  6  1  0
  5  7  1  0
  8  9  1  0
  8 10  1  0
  8 11  1  0
 12 16  1  0
 16 17  2  0
 17 19  1  0
 19 21  2  0
 21 23  1  0
 23 25  2  0
 25 16  1  0
 12 13  1  0
 12 14  1  0
 12 15  1  0
 17 18  1  0
 19 20  1  0
 21 22  1  0
 23 24  1  0
 25 26  1  0
M  CHG  1   8   1
M  END
>  <PDB_ID>  (2315) 
pdb3orh

>  <RESIDUE_NAME>  (2315) 
LYS   PHE

>  <FRAG_NAME>  (2315) 
ETAM   MBZ

>  <FRAG_ATOM_NUM>  (2315) 
fragi: 11  fragj: 15

>  <atom.prop.CHAIN_ID>  (2315) 
A A A A A A A A A A A Z Z Z Z Z Z Z Z Z Z Z Z Z Z Z

>  <atom.prop.IS_HEAVY_ATOM>  (2315) 
1 0 0 0 1 0 0 1 0 0 0 1 0 0 0 1 1 0 1 0 1 0 1 0 1 0

>  <DIFUSE_FUNC_ATOM>  (2315) 
n/a

>  <FINAL_SINGLE_POINT_ENERGY>  (2315) 
0

>  <NONCOV_INTER_ENERGY_QM>  (2315) 
0

>  <FF_Energy>  (2315) 
5.97

>  <QM_Energy>  (2315) 
-2.55

>  <source>  (2315) 
ETAM_MBZ

>  <Index>  (2315) 
24090

$$$$
ETAM-pdb3osf-D-LYS-114:MBZ-pdb3osf-D-PHE-128
     RDKit          3D

 26 25  0  0  0  0  0  0  0  0999 V2000
   -1.7838    0.8321   -3.7715 C   0  0  0  0  0  0  0  0  0  0  0  0
   -2.2594    0.3525   -3.0459 H   0  0  0  0  0  0  0  0  0  0  0  0
   -1.9326    0.3884   -4.6451 H   0  0  0  0  0  0  0  0  0  0  0  0
   -2.1677    1.8508   -3.8260 H   0  0  0  0  0  0  0  0  0  0  0  0
   -0.2813    0.8135   -3.4648 C   0  0  0  0  0  0  0  0  0  0  0  0
    0.1511    1.5894   -3.9390 H   0  0  0  0  0  0  0  0  0  0  0  0
   -0.1556    0.9380   -2.4740 H   0  0  0  0  0  0  0  0  0  0  0  0
    0.3828   -0.4524   -3.8881 N   0  0  0  0  0  4  0  0  0  0  0  0
    0.1664   -1.1747   -3.2322 H   0  0  0  0  0  0  0  0  0  0  0  0
    0.0528   -0.7113   -4.7946 H   0  0  0  0  0  0  0  0  0  0  0  0
    1.3720   -0.3125   -3.9183 H   0  0  0  0  0  0  0  0  0  0  0  0
    0.0038    2.8925    0.0231 C   0  0  0  0  0  0  0  0  0  0  0  0
   -0.8902    3.2079   -0.2490 H   0  0  0  0  0  0  0  0  0  0  0  0
    0.7063    3.2096   -0.5915 H   0  0  0  0  0  0  0  0  0  0  0  0
    0.2158    3.2980    1.0124 H   0  0  0  0  0  0  0  0  0  0  0  0
   -0.0009    1.3937   -0.0071 C   0  0  0  0  0  0  0  0  0  0  0  0
   -1.1908    0.6907    0.0060 C   0  0  0  0  0  0  0  0  0  0  0  0
   -2.0589    1.1843    0.0191 H   0  0  0  0  0  0  0  0  0  0  0  0
   -1.1975   -0.6893   -0.0000 C   0  0  0  0  0  0  0  0  0  0  0  0
   -2.0769   -1.1855   -0.0034 H   0  0  0  0  0  0  0  0  0  0  0  0
   -0.0029   -1.3864    0.0003 C   0  0  0  0  0  0  0  0  0  0  0  0
   -0.0085   -2.3868    0.0005 H   0  0  0  0  0  0  0  0  0  0  0  0
    1.1975   -0.6946    0.0000 C   0  0  0  0  0  0  0  0  0  0  0  0
    2.0777   -1.1977    0.0002 H   0  0  0  0  0  0  0  0  0  0  0  0
    1.1946    0.6860    0.0008 C   0  0  0  0  0  0  0  0  0  0  0  0
    2.0622    1.1864    0.0063 H   0  0  0  0  0  0  0  0  0  0  0  0
  1  5  1  0
  5  8  1  0
  1  2  1  0
  1  3  1  0
  1  4  1  0
  5  6  1  0
  5  7  1  0
  8  9  1  0
  8 10  1  0
  8 11  1  0
 12 16  1  0
 16 17  2  0
 17 19  1  0
 19 21  2  0
 21 23  1  0
 23 25  2  0
 25 16  1  0
 12 13  1  0
 12 14  1  0
 12 15  1  0
 17 18  1  0
 19 20  1  0
 21 22  1  0
 23 24  1  0
 25 26  1  0
M  CHG  1   8   1
M  END
>  <PDB_ID>  (2316) 
pdb3osf

>  <RESIDUE_NAME>  (2316) 
LYS   PHE

>  <FRAG_NAME>  (2316) 
ETAM   MBZ

>  <FRAG_ATOM_NUM>  (2316) 
fragi: 11  fragj: 15

>  <atom.prop.CHAIN_ID>  (2316) 
A A A A A A A A A A A Z Z Z Z Z Z Z Z Z Z Z Z Z Z Z

>  <atom.prop.IS_HEAVY_ATOM>  (2316) 
1 0 0 0 1 0 0 1 0 0 0 1 0 0 0 1 1 0 1 0 1 0 1 0 1 0

>  <DIFUSE_FUNC_ATOM>  (2316) 
n/a

>  <FINAL_SINGLE_POINT_ENERGY>  (2316) 
0

>  <NONCOV_INTER_ENERGY_QM>  (2316) 
0

>  <FF_Energy>  (2316) 
-6.13

>  <QM_Energy>  (2316) 
-12.05

>  <source>  (2316) 
ETAM_MBZ

>  <Index>  (2316) 
24140

$$$$
ETAM-pdb4mmo-B-LYS-117:MBZ-pdb4mmo-B-PHE-114
     RDKit          3D

 26 25  0  0  0  0  0  0  0  0999 V2000
   -0.0918   -0.1497    3.6359 C   0  0  0  0  0  0  0  0  0  0  0  0
   -0.9450   -0.2296    4.1504 H   0  0  0  0  0  0  0  0  0  0  0  0
   -0.2428    0.4099    2.8218 H   0  0  0  0  0  0  0  0  0  0  0  0
    0.6478    0.3450    4.2654 H   0  0  0  0  0  0  0  0  0  0  0  0
    0.3476   -1.5292    3.2030 C   0  0  0  0  0  0  0  0  0  0  0  0
    1.2001   -1.4557    2.6854 H   0  0  0  0  0  0  0  0  0  0  0  0
    0.4982   -2.0953    4.0131 H   0  0  0  0  0  0  0  0  0  0  0  0
   -0.6886   -2.1631    2.3491 N   0  0  0  0  0  4  0  0  0  0  0  0
   -0.4796   -1.9910    1.3864 H   0  0  0  0  0  0  0  0  0  0  0  0
   -0.7002   -3.1491    2.5167 H   0  0  0  0  0  0  0  0  0  0  0  0
   -1.5843   -1.7777    2.5705 H   0  0  0  0  0  0  0  0  0  0  0  0
   -0.0038    2.9023   -0.0259 C   0  0  0  0  0  0  0  0  0  0  0  0
   -0.8064    3.1896   -0.4883 H   0  0  0  0  0  0  0  0  0  0  0  0
    0.7798    3.1957   -0.5153 H   0  0  0  0  0  0  0  0  0  0  0  0
    0.0105    3.3539    0.9661 H   0  0  0  0  0  0  0  0  0  0  0  0
    0.0025    1.3986   -0.0074 C   0  0  0  0  0  0  0  0  0  0  0  0
   -1.2002    0.6892   -0.0081 C   0  0  0  0  0  0  0  0  0  0  0  0
   -2.0638    1.1938   -0.0168 H   0  0  0  0  0  0  0  0  0  0  0  0
   -1.2190   -0.6909   -0.0000 C   0  0  0  0  0  0  0  0  0  0  0  0
   -2.0877   -1.1873   -0.0096 H   0  0  0  0  0  0  0  0  0  0  0  0
   -0.0066   -1.3901    0.0257 C   0  0  0  0  0  0  0  0  0  0  0  0
   -0.0127   -2.3891    0.0617 H   0  0  0  0  0  0  0  0  0  0  0  0
    1.2190   -0.6999    0.0000 C   0  0  0  0  0  0  0  0  0  0  0  0
    2.0854   -1.2008   -0.0104 H   0  0  0  0  0  0  0  0  0  0  0  0
    1.2043    0.6932   -0.0102 C   0  0  0  0  0  0  0  0  0  0  0  0
    2.0701    1.1954   -0.0191 H   0  0  0  0  0  0  0  0  0  0  0  0
  1  5  1  0
  5  8  1  0
  1  2  1  0
  1  3  1  0
  1  4  1  0
  5  6  1  0
  5  7  1  0
  8  9  1  0
  8 10  1  0
  8 11  1  0
 12 16  1  0
 16 17  2  0
 17 19  1  0
 19 21  2  0
 21 23  1  0
 23 25  2  0
 25 16  1  0
 12 13  1  0
 12 14  1  0
 12 15  1  0
 17 18  1  0
 19 20  1  0
 21 22  1  0
 23 24  1  0
 25 26  1  0
M  CHG  1   8   1
M  END
>  <PDB_ID>  (2317) 
pdb4mmo

>  <RESIDUE_NAME>  (2317) 
LYS   PHE

>  <FRAG_NAME>  (2317) 
ETAM   MBZ

>  <FRAG_ATOM_NUM>  (2317) 
fragi: 11  fragj: 15

>  <atom.prop.CHAIN_ID>  (2317) 
A A A A A A A A A A A Z Z Z Z Z Z Z Z Z Z Z Z Z Z Z

>  <atom.prop.IS_HEAVY_ATOM>  (2317) 
1 0 0 0 1 0 0 1 0 0 0 1 0 0 0 1 1 0 1 0 1 0 1 0 1 0

>  <DIFUSE_FUNC_ATOM>  (2317) 
n/a

>  <FINAL_SINGLE_POINT_ENERGY>  (2317) 
0

>  <NONCOV_INTER_ENERGY_QM>  (2317) 
0

>  <FF_Energy>  (2317) 
15.79

>  <QM_Energy>  (2317) 
0.03

>  <source>  (2317) 
ETAM_MBZ

>  <Index>  (2317) 
24159

$$$$
ETAM-pdb4mmo-B-LYS-326:MBZ-pdb4mmo-B-PHE-322
     RDKit          3D

 26 25  0  0  0  0  0  0  0  0999 V2000
    0.5896   -1.1990    3.8754 C   0  0  0  0  0  0  0  0  0  0  0  0
    0.8269   -0.5118    3.2344 H   0  0  0  0  0  0  0  0  0  0  0  0
    1.1222   -1.1052    4.6802 H   0  0  0  0  0  0  0  0  0  0  0  0
   -0.4659   -1.1041    4.1303 H   0  0  0  0  0  0  0  0  0  0  0  0
    0.8979   -2.5504    3.2575 C   0  0  0  0  0  0  0  0  0  0  0  0
    0.6057   -3.2521    3.8606 H   0  0  0  0  0  0  0  0  0  0  0  0
    0.4381   -2.6251    2.4070 H   0  0  0  0  0  0  0  0  0  0  0  0
    2.3562   -2.7234    3.0161 N   0  0  0  0  0  4  0  0  0  0  0  0
    2.5114   -3.5222    2.6537 H   0  0  0  0  0  0  0  0  0  0  0  0
    2.6493   -2.0924    2.4604 H   0  0  0  0  0  0  0  0  0  0  0  0
    2.8015   -2.6633    3.7840 H   0  0  0  0  0  0  0  0  0  0  0  0
    0.0021    2.9015   -0.0033 C   0  0  0  0  0  0  0  0  0  0  0  0
   -0.2349    3.1933   -0.8976 H   0  0  0  0  0  0  0  0  0  0  0  0
    0.9004    3.1974    0.2113 H   0  0  0  0  0  0  0  0  0  0  0  0
   -0.6933    3.3473    0.7079 H   0  0  0  0  0  0  0  0  0  0  0  0
   -0.0000    1.3984    0.0039 C   0  0  0  0  0  0  0  0  0  0  0  0
   -1.1908    0.6913   -0.0027 C   0  0  0  0  0  0  0  0  0  0  0  0
   -1.9981    1.1537   -0.0021 H   0  0  0  0  0  0  0  0  0  0  0  0
   -1.1965   -0.6953    0.0000 C   0  0  0  0  0  0  0  0  0  0  0  0
   -2.0030   -1.1580   -0.0025 H   0  0  0  0  0  0  0  0  0  0  0  0
   -0.0033   -1.3886   -0.0015 C   0  0  0  0  0  0  0  0  0  0  0  0
   -0.0041   -2.3185   -0.0003 H   0  0  0  0  0  0  0  0  0  0  0  0
    1.1965   -0.6955    0.0000 C   0  0  0  0  0  0  0  0  0  0  0  0
    2.0023   -1.1593    0.0007 H   0  0  0  0  0  0  0  0  0  0  0  0
    1.1941    0.6897    0.0002 C   0  0  0  0  0  0  0  0  0  0  0  0
    2.0017    1.1507    0.0013 H   0  0  0  0  0  0  0  0  0  0  0  0
  1  5  1  0
  5  8  1  0
  1  2  1  0
  1  3  1  0
  1  4  1  0
  5  6  1  0
  5  7  1  0
  8  9  1  0
  8 10  1  0
  8 11  1  0
 12 16  1  0
 16 17  2  0
 17 19  1  0
 19 21  2  0
 21 23  1  0
 23 25  2  0
 25 16  1  0
 12 13  1  0
 12 14  1  0
 12 15  1  0
 17 18  1  0
 19 20  1  0
 21 22  1  0
 23 24  1  0
 25 26  1  0
M  CHG  1   8   1
M  END
>  <PDB_ID>  (2318) 
pdb4mmo

>  <RESIDUE_NAME>  (2318) 
LYS   PHE

>  <FRAG_NAME>  (2318) 
ETAM   MBZ

>  <FRAG_ATOM_NUM>  (2318) 
fragi: 11  fragj: 15

>  <atom.prop.CHAIN_ID>  (2318) 
A A A A A A A A A A A Z Z Z Z Z Z Z Z Z Z Z Z Z Z Z

>  <atom.prop.IS_HEAVY_ATOM>  (2318) 
1 0 0 0 1 0 0 1 0 0 0 1 0 0 0 1 1 0 1 0 1 0 1 0 1 0

>  <DIFUSE_FUNC_ATOM>  (2318) 
n/a

>  <FINAL_SINGLE_POINT_ENERGY>  (2318) 
0

>  <NONCOV_INTER_ENERGY_QM>  (2318) 
0

>  <FF_Energy>  (2318) 
-2.64

>  <QM_Energy>  (2318) 
-7.9

>  <source>  (2318) 
ETAM_MBZ

>  <Index>  (2318) 
24160

$$$$
ETAM-pdb3oug-C-LYS-9:MBZ-pdb3oug-C-PHE-86
     RDKit          3D

 26 25  0  0  0  0  0  0  0  0999 V2000
    2.1813    2.1051    4.6908 C   0  0  0  0  0  0  0  0  0  0  0  0
    3.0791    2.4353    4.9548 H   0  0  0  0  0  0  0  0  0  0  0  0
    1.9155    1.3259    5.2431 H   0  0  0  0  0  0  0  0  0  0  0  0
    1.4492    2.9041    4.8085 H   0  0  0  0  0  0  0  0  0  0  0  0
    2.2565    1.6456    3.2273 C   0  0  0  0  0  0  0  0  0  0  0  0
    1.3276    1.4472    2.9090 H   0  0  0  0  0  0  0  0  0  0  0  0
    2.6380    2.3932    2.6788 H   0  0  0  0  0  0  0  0  0  0  0  0
    3.1035    0.4352    3.0721 N   0  0  0  0  0  4  0  0  0  0  0  0
    2.8891   -0.0123    2.2037 H   0  0  0  0  0  0  0  0  0  0  0  0
    4.0682    0.7004    3.0821 H   0  0  0  0  0  0  0  0  0  0  0  0
    2.9233   -0.1967    3.8265 H   0  0  0  0  0  0  0  0  0  0  0  0
    0.0781    2.9481    0.0251 C   0  0  0  0  0  0  0  0  0  0  0  0
    0.6967    3.2316   -0.7048 H   0  0  0  0  0  0  0  0  0  0  0  0
    0.4614    3.2021    0.9111 H   0  0  0  0  0  0  0  0  0  0  0  0
   -0.8539    3.4992   -0.1006 H   0  0  0  0  0  0  0  0  0  0  0  0
   -0.0045    1.4196   -0.0155 C   0  0  0  0  0  0  0  0  0  0  0  0
   -1.1799    0.7099    0.0192 C   0  0  0  0  0  0  0  0  0  0  0  0
   -2.0592    1.1876    0.0584 H   0  0  0  0  0  0  0  0  0  0  0  0
   -1.1902   -0.6958   -0.0000 C   0  0  0  0  0  0  0  0  0  0  0  0
   -2.0796   -1.1727   -0.0107 H   0  0  0  0  0  0  0  0  0  0  0  0
   -0.0072   -1.4030   -0.0015 C   0  0  0  0  0  0  0  0  0  0  0  0
   -0.0157   -2.3998   -0.0043 H   0  0  0  0  0  0  0  0  0  0  0  0
    1.1902   -0.7108   -0.0000 C   0  0  0  0  0  0  0  0  0  0  0  0
    2.0733   -1.2096    0.0045 H   0  0  0  0  0  0  0  0  0  0  0  0
    1.1915    0.6801   -0.0022 C   0  0  0  0  0  0  0  0  0  0  0  0
    2.0647    1.1745    0.0047 H   0  0  0  0  0  0  0  0  0  0  0  0
  1  5  1  0
  5  8  1  0
  1  2  1  0
  1  3  1  0
  1  4  1  0
  5  6  1  0
  5  7  1  0
  8  9  1  0
  8 10  1  0
  8 11  1  0
 12 16  1  0
 16 17  2  0
 17 19  1  0
 19 21  2  0
 21 23  1  0
 23 25  2  0
 25 16  1  0
 12 13  1  0
 12 14  1  0
 12 15  1  0
 17 18  1  0
 19 20  1  0
 21 22  1  0
 23 24  1  0
 25 26  1  0
M  CHG  1   8   1
M  END
>  <PDB_ID>  (2319) 
pdb3oug

>  <RESIDUE_NAME>  (2319) 
LYS   PHE

>  <FRAG_NAME>  (2319) 
ETAM   MBZ

>  <FRAG_ATOM_NUM>  (2319) 
fragi: 11  fragj: 15

>  <atom.prop.CHAIN_ID>  (2319) 
A A A A A A A A A A A Z Z Z Z Z Z Z Z Z Z Z Z Z Z Z

>  <atom.prop.IS_HEAVY_ATOM>  (2319) 
1 0 0 0 1 0 0 1 0 0 0 1 0 0 0 1 1 0 1 0 1 0 1 0 1 0

>  <DIFUSE_FUNC_ATOM>  (2319) 
n/a

>  <FINAL_SINGLE_POINT_ENERGY>  (2319) 
0

>  <NONCOV_INTER_ENERGY_QM>  (2319) 
0

>  <FF_Energy>  (2319) 
-3.54

>  <QM_Energy>  (2319) 
-8.6

>  <source>  (2319) 
ETAM_MBZ

>  <Index>  (2319) 
24175

$$$$
ETAM-pdb3oug-G-LYS-9:MBZ-pdb3oug-G-PHE-86
     RDKit          3D

 26 25  0  0  0  0  0  0  0  0999 V2000
    2.1217    2.1244    4.7063 C   0  0  0  0  0  0  0  0  0  0  0  0
    3.0271    2.4883    4.9036 H   0  0  0  0  0  0  0  0  0  0  0  0
    1.9171    1.3631    5.3130 H   0  0  0  0  0  0  0  0  0  0  0  0
    1.3772    2.9088    4.8428 H   0  0  0  0  0  0  0  0  0  0  0  0
    2.1240    1.5986    3.2689 C   0  0  0  0  0  0  0  0  0  0  0  0
    1.1804    1.3841    2.9984 H   0  0  0  0  0  0  0  0  0  0  0  0
    2.4769    2.3158    2.6595 H   0  0  0  0  0  0  0  0  0  0  0  0
    2.9695    0.3595    3.0962 N   0  0  0  0  0  4  0  0  0  0  0  0
    3.8534    0.6237    2.7214 H   0  0  0  0  0  0  0  0  0  0  0  0
    3.0901   -0.0732    3.9857 H   0  0  0  0  0  0  0  0  0  0  0  0
    2.5037   -0.2617    2.4721 H   0  0  0  0  0  0  0  0  0  0  0  0
    0.0926    2.9417    0.0467 C   0  0  0  0  0  0  0  0  0  0  0  0
    0.7372    3.2238   -0.6626 H   0  0  0  0  0  0  0  0  0  0  0  0
    0.4520    3.1899    0.9453 H   0  0  0  0  0  0  0  0  0  0  0  0
   -0.8332    3.4963   -0.1058 H   0  0  0  0  0  0  0  0  0  0  0  0
    0.0040    1.4172   -0.0013 C   0  0  0  0  0  0  0  0  0  0  0  0
   -1.1736    0.7245    0.0053 C   0  0  0  0  0  0  0  0  0  0  0  0
   -2.0511    1.1919    0.0125 H   0  0  0  0  0  0  0  0  0  0  0  0
   -1.1793   -0.6983    0.0000 C   0  0  0  0  0  0  0  0  0  0  0  0
   -2.0810   -1.1607    0.0010 H   0  0  0  0  0  0  0  0  0  0  0  0
   -0.0182   -1.3976   -0.0043 C   0  0  0  0  0  0  0  0  0  0  0  0
   -0.0240   -2.4007   -0.0108 H   0  0  0  0  0  0  0  0  0  0  0  0
    1.1793   -0.7168   -0.0000 C   0  0  0  0  0  0  0  0  0  0  0  0
    2.0596   -1.2208    0.0041 H   0  0  0  0  0  0  0  0  0  0  0  0
    1.1877    0.6710    0.0003 C   0  0  0  0  0  0  0  0  0  0  0  0
    2.0687    1.1592    0.0013 H   0  0  0  0  0  0  0  0  0  0  0  0
  1  5  1  0
  5  8  1  0
  1  2  1  0
  1  3  1  0
  1  4  1  0
  5  6  1  0
  5  7  1  0
  8  9  1  0
  8 10  1  0
  8 11  1  0
 12 16  1  0
 16 17  2  0
 17 19  1  0
 19 21  2  0
 21 23  1  0
 23 25  2  0
 25 16  1  0
 12 13  1  0
 12 14  1  0
 12 15  1  0
 17 18  1  0
 19 20  1  0
 21 22  1  0
 23 24  1  0
 25 26  1  0
M  CHG  1   8   1
M  END
>  <PDB_ID>  (2320) 
pdb3oug

>  <RESIDUE_NAME>  (2320) 
LYS   PHE

>  <FRAG_NAME>  (2320) 
ETAM   MBZ

>  <FRAG_ATOM_NUM>  (2320) 
fragi: 11  fragj: 15

>  <atom.prop.CHAIN_ID>  (2320) 
A A A A A A A A A A A Z Z Z Z Z Z Z Z Z Z Z Z Z Z Z

>  <atom.prop.IS_HEAVY_ATOM>  (2320) 
1 0 0 0 1 0 0 1 0 0 0 1 0 0 0 1 1 0 1 0 1 0 1 0 1 0

>  <DIFUSE_FUNC_ATOM>  (2320) 
n/a

>  <FINAL_SINGLE_POINT_ENERGY>  (2320) 
0

>  <NONCOV_INTER_ENERGY_QM>  (2320) 
0

>  <FF_Energy>  (2320) 
-4.01

>  <QM_Energy>  (2320) 
-9.15

>  <source>  (2320) 
ETAM_MBZ

>  <Index>  (2320) 
24181

$$$$
ETAM-pdb4mnp-A-LYS-115:MBZ-pdb4mnp-A-PHE-76
     RDKit          3D

 26 25  0  0  0  0  0  0  0  0999 V2000
   -0.5135    1.7653    4.0728 C   0  0  0  0  0  0  0  0  0  0  0  0
   -0.9260    1.8659    4.9740 H   0  0  0  0  0  0  0  0  0  0  0  0
   -0.9689    2.3622    3.4181 H   0  0  0  0  0  0  0  0  0  0  0  0
    0.5376    2.0471    4.1345 H   0  0  0  0  0  0  0  0  0  0  0  0
   -0.6889    0.3232    3.6172 C   0  0  0  0  0  0  0  0  0  0  0  0
   -0.3071    0.2253    2.6942 H   0  0  0  0  0  0  0  0  0  0  0  0
   -0.1832   -0.2790    4.2416 H   0  0  0  0  0  0  0  0  0  0  0  0
   -2.1222   -0.0848    3.5991 N   0  0  0  0  0  4  0  0  0  0  0  0
   -2.5283    0.1718    2.7226 H   0  0  0  0  0  0  0  0  0  0  0  0
   -2.1859   -1.0741    3.7212 H   0  0  0  0  0  0  0  0  0  0  0  0
   -2.6071    0.3767    4.3415 H   0  0  0  0  0  0  0  0  0  0  0  0
    0.0011    2.8946   -0.0026 C   0  0  0  0  0  0  0  0  0  0  0  0
    0.9380    3.2011    0.0616 H   0  0  0  0  0  0  0  0  0  0  0  0
   -0.5332    3.2025    0.7701 H   0  0  0  0  0  0  0  0  0  0  0  0
   -0.4321    3.3317   -0.9022 H   0  0  0  0  0  0  0  0  0  0  0  0
    0.0007    1.3939   -0.0016 C   0  0  0  0  0  0  0  0  0  0  0  0
   -1.1919    0.6888    0.0010 C   0  0  0  0  0  0  0  0  0  0  0  0
   -2.0597    1.1816    0.0026 H   0  0  0  0  0  0  0  0  0  0  0  0
   -1.1952   -0.6919    0.0000 C   0  0  0  0  0  0  0  0  0  0  0  0
   -2.0731   -1.1886   -0.0000 H   0  0  0  0  0  0  0  0  0  0  0  0
    0.0003   -1.3850    0.0006 C   0  0  0  0  0  0  0  0  0  0  0  0
   -0.0049   -2.3867    0.0013 H   0  0  0  0  0  0  0  0  0  0  0  0
    1.1952   -0.6936    0.0000 C   0  0  0  0  0  0  0  0  0  0  0  0
    2.0778   -1.1936    0.0009 H   0  0  0  0  0  0  0  0  0  0  0  0
    1.1909    0.6877   -0.0000 C   0  0  0  0  0  0  0  0  0  0  0  0
    2.0608    1.1863    0.0000 H   0  0  0  0  0  0  0  0  0  0  0  0
  1  5  1  0
  5  8  1  0
  1  2  1  0
  1  3  1  0
  1  4  1  0
  5  6  1  0
  5  7  1  0
  8  9  1  0
  8 10  1  0
  8 11  1  0
 12 16  1  0
 16 17  2  0
 17 19  1  0
 19 21  2  0
 21 23  1  0
 23 25  2  0
 25 16  1  0
 12 13  1  0
 12 14  1  0
 12 15  1  0
 17 18  1  0
 19 20  1  0
 21 22  1  0
 23 24  1  0
 25 26  1  0
M  CHG  1   8   1
M  END
>  <PDB_ID>  (2321) 
pdb4mnp

>  <RESIDUE_NAME>  (2321) 
LYS   PHE

>  <FRAG_NAME>  (2321) 
ETAM   MBZ

>  <FRAG_ATOM_NUM>  (2321) 
fragi: 11  fragj: 15

>  <atom.prop.CHAIN_ID>  (2321) 
A A A A A A A A A A A Z Z Z Z Z Z Z Z Z Z Z Z Z Z Z

>  <atom.prop.IS_HEAVY_ATOM>  (2321) 
1 0 0 0 1 0 0 1 0 0 0 1 0 0 0 1 1 0 1 0 1 0 1 0 1 0

>  <DIFUSE_FUNC_ATOM>  (2321) 
n/a

>  <FINAL_SINGLE_POINT_ENERGY>  (2321) 
0

>  <NONCOV_INTER_ENERGY_QM>  (2321) 
0

>  <FF_Energy>  (2321) 
-5.73

>  <QM_Energy>  (2321) 
-11.06

>  <source>  (2321) 
ETAM_MBZ

>  <Index>  (2321) 
24188

$$$$
ETAM-pdb4mif-B-LYS-181:MBZ-pdb4mif-B-PHE-172
     RDKit          3D

 26 25  0  0  0  0  0  0  0  0999 V2000
    0.5687   -2.1500    3.4782 C   0  0  0  0  0  0  0  0  0  0  0  0
    0.9828   -2.4751    4.2985 H   0  0  0  0  0  0  0  0  0  0  0  0
    1.0588   -2.3820    2.6691 H   0  0  0  0  0  0  0  0  0  0  0  0
   -0.4398   -2.5576    3.4083 H   0  0  0  0  0  0  0  0  0  0  0  0
    0.4344   -0.6292    3.5582 C   0  0  0  0  0  0  0  0  0  0  0  0
   -0.1028   -0.3106    2.7467 H   0  0  0  0  0  0  0  0  0  0  0  0
   -0.1370   -0.3991    4.3765 H   0  0  0  0  0  0  0  0  0  0  0  0
    1.7036    0.1603    3.6273 N   0  0  0  0  0  4  0  0  0  0  0  0
    1.4947    1.0922    3.9179 H   0  0  0  0  0  0  0  0  0  0  0  0
    2.3206   -0.2678    4.2855 H   0  0  0  0  0  0  0  0  0  0  0  0
    2.1297    0.1751    2.7250 H   0  0  0  0  0  0  0  0  0  0  0  0
   -0.0154    2.9009   -0.0992 C   0  0  0  0  0  0  0  0  0  0  0  0
   -0.5173    3.1307   -0.9271 H   0  0  0  0  0  0  0  0  0  0  0  0
    0.9325    3.1935   -0.1780 H   0  0  0  0  0  0  0  0  0  0  0  0
   -0.4676    3.4441    0.7306 H   0  0  0  0  0  0  0  0  0  0  0  0
   -0.0198    1.3987    0.0357 C   0  0  0  0  0  0  0  0  0  0  0  0
   -1.1739    0.7019   -0.0291 C   0  0  0  0  0  0  0  0  0  0  0  0
   -2.0586    1.1926   -0.1033 H   0  0  0  0  0  0  0  0  0  0  0  0
   -1.2032   -0.6779    0.0000 C   0  0  0  0  0  0  0  0  0  0  0  0
   -2.0784   -1.1665    0.0093 H   0  0  0  0  0  0  0  0  0  0  0  0
    0.0005   -1.3890    0.0186 C   0  0  0  0  0  0  0  0  0  0  0  0
   -0.0252   -2.3899    0.0453 H   0  0  0  0  0  0  0  0  0  0  0  0
    1.2032   -0.7176   -0.0000 C   0  0  0  0  0  0  0  0  0  0  0  0
    2.0793   -1.2081    0.0050 H   0  0  0  0  0  0  0  0  0  0  0  0
    1.1932    0.6839   -0.0252 C   0  0  0  0  0  0  0  0  0  0  0  0
    2.0520    1.1827   -0.0871 H   0  0  0  0  0  0  0  0  0  0  0  0
  1  5  1  0
  5  8  1  0
  1  2  1  0
  1  3  1  0
  1  4  1  0
  5  6  1  0
  5  7  1  0
  8  9  1  0
  8 10  1  0
  8 11  1  0
 12 16  1  0
 16 17  2  0
 17 19  1  0
 19 21  2  0
 21 23  1  0
 23 25  2  0
 25 16  1  0
 12 13  1  0
 12 14  1  0
 12 15  1  0
 17 18  1  0
 19 20  1  0
 21 22  1  0
 23 24  1  0
 25 26  1  0
M  CHG  1   8   1
M  END
>  <PDB_ID>  (2322) 
pdb4mif

>  <RESIDUE_NAME>  (2322) 
LYS   PHE

>  <FRAG_NAME>  (2322) 
ETAM   MBZ

>  <FRAG_ATOM_NUM>  (2322) 
fragi: 11  fragj: 15

>  <atom.prop.CHAIN_ID>  (2322) 
A A A A A A A A A A A Z Z Z Z Z Z Z Z Z Z Z Z Z Z Z

>  <atom.prop.IS_HEAVY_ATOM>  (2322) 
1 0 0 0 1 0 0 1 0 0 0 1 0 0 0 1 1 0 1 0 1 0 1 0 1 0

>  <DIFUSE_FUNC_ATOM>  (2322) 
n/a

>  <FINAL_SINGLE_POINT_ENERGY>  (2322) 
0

>  <NONCOV_INTER_ENERGY_QM>  (2322) 
0

>  <FF_Energy>  (2322) 
-6.67

>  <QM_Energy>  (2322) 
-12.77

>  <source>  (2322) 
ETAM_MBZ

>  <Index>  (2322) 
24195

$$$$
ETAM-pdb3owo-D-LYS-44:MBZ-pdb3owo-D-PHE-41
     RDKit          3D

 26 25  0  0  0  0  0  0  0  0999 V2000
   -3.5811    2.3900   -2.5569 C   0  0  0  0  0  0  0  0  0  0  0  0
   -2.8570    2.5337   -1.8880 H   0  0  0  0  0  0  0  0  0  0  0  0
   -4.4329    2.1557   -2.0968 H   0  0  0  0  0  0  0  0  0  0  0  0
   -3.7266    3.3111   -3.1213 H   0  0  0  0  0  0  0  0  0  0  0  0
   -3.1831    1.2276   -3.4587 C   0  0  0  0  0  0  0  0  0  0  0  0
   -3.8964    1.0958   -4.1526 H   0  0  0  0  0  0  0  0  0  0  0  0
   -2.3212    1.4553   -3.9202 H   0  0  0  0  0  0  0  0  0  0  0  0
   -3.0060   -0.0419   -2.6939 N   0  0  0  0  0  4  0  0  0  0  0  0
   -3.7163   -0.6905   -2.9632 H   0  0  0  0  0  0  0  0  0  0  0  0
   -2.1056   -0.4256   -2.8960 H   0  0  0  0  0  0  0  0  0  0  0  0
   -3.0781    0.1500   -1.7161 H   0  0  0  0  0  0  0  0  0  0  0  0
    0.0010    2.9117    0.0181 C   0  0  0  0  0  0  0  0  0  0  0  0
    0.9244    3.2148    0.2027 H   0  0  0  0  0  0  0  0  0  0  0  0
   -0.6219    3.2093    0.7259 H   0  0  0  0  0  0  0  0  0  0  0  0
   -0.3179    3.3682   -0.9189 H   0  0  0  0  0  0  0  0  0  0  0  0
   -0.0003    1.4055    0.0002 C   0  0  0  0  0  0  0  0  0  0  0  0
   -1.1982    0.6951   -0.0006 C   0  0  0  0  0  0  0  0  0  0  0  0
   -2.0648    1.1844   -0.0025 H   0  0  0  0  0  0  0  0  0  0  0  0
   -1.2036   -0.7000   -0.0000 C   0  0  0  0  0  0  0  0  0  0  0  0
   -2.0793   -1.1919    0.0015 H   0  0  0  0  0  0  0  0  0  0  0  0
    0.0002   -1.3977    0.0007 C   0  0  0  0  0  0  0  0  0  0  0  0
   -0.0034   -2.3948    0.0014 H   0  0  0  0  0  0  0  0  0  0  0  0
    1.2036   -0.6991    0.0000 C   0  0  0  0  0  0  0  0  0  0  0  0
    2.0846   -1.1948    0.0013 H   0  0  0  0  0  0  0  0  0  0  0  0
    1.1983    0.6962   -0.0003 C   0  0  0  0  0  0  0  0  0  0  0  0
    2.0661    1.1913   -0.0014 H   0  0  0  0  0  0  0  0  0  0  0  0
  1  5  1  0
  5  8  1  0
  1  2  1  0
  1  3  1  0
  1  4  1  0
  5  6  1  0
  5  7  1  0
  8  9  1  0
  8 10  1  0
  8 11  1  0
 12 16  1  0
 16 17  2  0
 17 19  1  0
 19 21  2  0
 21 23  1  0
 23 25  2  0
 25 16  1  0
 12 13  1  0
 12 14  1  0
 12 15  1  0
 17 18  1  0
 19 20  1  0
 21 22  1  0
 23 24  1  0
 25 26  1  0
M  CHG  1   8   1
M  END
>  <PDB_ID>  (2323) 
pdb3owo

>  <RESIDUE_NAME>  (2323) 
LYS   PHE

>  <FRAG_NAME>  (2323) 
ETAM   MBZ

>  <FRAG_ATOM_NUM>  (2323) 
fragi: 11  fragj: 15

>  <atom.prop.CHAIN_ID>  (2323) 
A A A A A A A A A A A Z Z Z Z Z Z Z Z Z Z Z Z Z Z Z

>  <atom.prop.IS_HEAVY_ATOM>  (2323) 
1 0 0 0 1 0 0 1 0 0 0 1 0 0 0 1 1 0 1 0 1 0 1 0 1 0

>  <DIFUSE_FUNC_ATOM>  (2323) 
n/a

>  <FINAL_SINGLE_POINT_ENERGY>  (2323) 
0

>  <NONCOV_INTER_ENERGY_QM>  (2323) 
0

>  <FF_Energy>  (2323) 
-3.26

>  <QM_Energy>  (2323) 
-9.13

>  <source>  (2323) 
ETAM_MBZ

>  <Index>  (2323) 
24220

$$$$
ETAM-pdb3oxi-A-LYS-134:MBZ-pdb3oxi-A-PHE-48
     RDKit          3D

 26 25  0  0  0  0  0  0  0  0999 V2000
   -4.7280   -1.9562   -2.3623 C   0  0  0  0  0  0  0  0  0  0  0  0
   -4.1282   -1.2088   -2.0569 H   0  0  0  0  0  0  0  0  0  0  0  0
   -5.5951   -1.8978   -1.8552 H   0  0  0  0  0  0  0  0  0  0  0  0
   -4.9590   -1.7686   -3.4109 H   0  0  0  0  0  0  0  0  0  0  0  0
   -4.0457   -3.3115   -2.0267 C   0  0  0  0  0  0  0  0  0  0  0  0
   -4.4150   -3.6385   -1.1300 H   0  0  0  0  0  0  0  0  0  0  0  0
   -4.3501   -4.0003   -2.7206 H   0  0  0  0  0  0  0  0  0  0  0  0
   -2.5259   -3.3477   -1.9564 N   0  0  0  0  0  4  0  0  0  0  0  0
   -2.2538   -3.3192   -1.0003 H   0  0  0  0  0  0  0  0  0  0  0  0
   -2.2112   -4.1885   -2.3827 H   0  0  0  0  0  0  0  0  0  0  0  0
   -2.1697   -2.5575   -2.4426 H   0  0  0  0  0  0  0  0  0  0  0  0
   -0.0076    2.9512    0.0171 C   0  0  0  0  0  0  0  0  0  0  0  0
   -0.8140    3.2548   -0.4627 H   0  0  0  0  0  0  0  0  0  0  0  0
    0.8190    3.2569   -0.4249 H   0  0  0  0  0  0  0  0  0  0  0  0
   -0.0306    3.3858    1.0165 H   0  0  0  0  0  0  0  0  0  0  0  0
   -0.0053    1.4266    0.0010 C   0  0  0  0  0  0  0  0  0  0  0  0
   -1.1866    0.7154    0.0049 C   0  0  0  0  0  0  0  0  0  0  0  0
   -2.0663    1.1813    0.0097 H   0  0  0  0  0  0  0  0  0  0  0  0
   -1.1958   -0.7184   -0.0000 C   0  0  0  0  0  0  0  0  0  0  0  0
   -2.0772   -1.1888   -0.0081 H   0  0  0  0  0  0  0  0  0  0  0  0
    0.0042   -1.4204    0.0080 C   0  0  0  0  0  0  0  0  0  0  0  0
   -0.0008   -2.4150    0.0191 H   0  0  0  0  0  0  0  0  0  0  0  0
    1.1958   -0.7170    0.0000 C   0  0  0  0  0  0  0  0  0  0  0  0
    2.0864   -1.1899    0.0046 H   0  0  0  0  0  0  0  0  0  0  0  0
    1.1877    0.7137   -0.0139 C   0  0  0  0  0  0  0  0  0  0  0  0
    2.0618    1.1910   -0.0354 H   0  0  0  0  0  0  0  0  0  0  0  0
  1  5  1  0
  5  8  1  0
  1  2  1  0
  1  3  1  0
  1  4  1  0
  5  6  1  0
  5  7  1  0
  8  9  1  0
  8 10  1  0
  8 11  1  0
 12 16  1  0
 16 17  2  0
 17 19  1  0
 19 21  2  0
 21 23  1  0
 23 25  2  0
 25 16  1  0
 12 13  1  0
 12 14  1  0
 12 15  1  0
 17 18  1  0
 19 20  1  0
 21 22  1  0
 23 24  1  0
 25 26  1  0
M  CHG  1   8   1
M  END
>  <PDB_ID>  (2324) 
pdb3oxi

>  <RESIDUE_NAME>  (2324) 
LYS   PHE

>  <FRAG_NAME>  (2324) 
ETAM   MBZ

>  <FRAG_ATOM_NUM>  (2324) 
fragi: 11  fragj: 15

>  <atom.prop.CHAIN_ID>  (2324) 
A A A A A A A A A A A Z Z Z Z Z Z Z Z Z Z Z Z Z Z Z

>  <atom.prop.IS_HEAVY_ATOM>  (2324) 
1 0 0 0 1 0 0 1 0 0 0 1 0 0 0 1 1 0 1 0 1 0 1 0 1 0

>  <DIFUSE_FUNC_ATOM>  (2324) 
n/a

>  <FINAL_SINGLE_POINT_ENERGY>  (2324) 
0

>  <NONCOV_INTER_ENERGY_QM>  (2324) 
0

>  <FF_Energy>  (2324) 
-0.47

>  <QM_Energy>  (2324) 
-5.67

>  <source>  (2324) 
ETAM_MBZ

>  <Index>  (2324) 
24221

$$$$
ETAM-pdb3oy2-A-LYS-373:MBZ-pdb3oy2-A-PHE-369
     RDKit          3D

 26 25  0  0  0  0  0  0  0  0999 V2000
    3.0899   -2.2954    4.2424 C   0  0  0  0  0  0  0  0  0  0  0  0
    3.6606   -3.0712    4.4309 H   0  0  0  0  0  0  0  0  0  0  0  0
    2.2131   -2.3554    4.6778 H   0  0  0  0  0  0  0  0  0  0  0  0
    3.5957   -1.3834    4.5592 H   0  0  0  0  0  0  0  0  0  0  0  0
    2.8884   -2.1880    2.7564 C   0  0  0  0  0  0  0  0  0  0  0  0
    2.2445   -1.4339    2.5664 H   0  0  0  0  0  0  0  0  0  0  0  0
    3.7708   -1.9598    2.3203 H   0  0  0  0  0  0  0  0  0  0  0  0
    2.3659   -3.4319    2.1697 N   0  0  0  0  0  4  0  0  0  0  0  0
    1.8068   -3.9184    2.8454 H   0  0  0  0  0  0  0  0  0  0  0  0
    1.8018   -3.2194    1.3691 H   0  0  0  0  0  0  0  0  0  0  0  0
    3.1263   -4.0211    1.8879 H   0  0  0  0  0  0  0  0  0  0  0  0
   -0.0015    2.8906   -0.0303 C   0  0  0  0  0  0  0  0  0  0  0  0
   -0.7595    3.1983   -0.5848 H   0  0  0  0  0  0  0  0  0  0  0  0
    0.8628    3.2008   -0.3977 H   0  0  0  0  0  0  0  0  0  0  0  0
   -0.1166    3.3333    0.9591 H   0  0  0  0  0  0  0  0  0  0  0  0
   -0.0001    1.4010   -0.0189 C   0  0  0  0  0  0  0  0  0  0  0  0
   -1.2041    0.6892   -0.0110 C   0  0  0  0  0  0  0  0  0  0  0  0
   -2.0671    1.1891   -0.0144 H   0  0  0  0  0  0  0  0  0  0  0  0
   -1.2135   -0.6913   -0.0000 C   0  0  0  0  0  0  0  0  0  0  0  0
   -2.0838   -1.1934   -0.0089 H   0  0  0  0  0  0  0  0  0  0  0  0
    0.0010   -1.3987    0.0262 C   0  0  0  0  0  0  0  0  0  0  0  0
   -0.0073   -2.3912    0.0628 H   0  0  0  0  0  0  0  0  0  0  0  0
    1.2135   -0.6978    0.0000 C   0  0  0  0  0  0  0  0  0  0  0  0
    2.0885   -1.1952   -0.0200 H   0  0  0  0  0  0  0  0  0  0  0  0
    1.2032    0.6976    0.0036 C   0  0  0  0  0  0  0  0  0  0  0  0
    2.0671    1.1968    0.0220 H   0  0  0  0  0  0  0  0  0  0  0  0
  1  5  1  0
  5  8  1  0
  1  2  1  0
  1  3  1  0
  1  4  1  0
  5  6  1  0
  5  7  1  0
  8  9  1  0
  8 10  1  0
  8 11  1  0
 12 16  1  0
 16 17  2  0
 17 19  1  0
 19 21  2  0
 21 23  1  0
 23 25  2  0
 25 16  1  0
 12 13  1  0
 12 14  1  0
 12 15  1  0
 17 18  1  0
 19 20  1  0
 21 22  1  0
 23 24  1  0
 25 26  1  0
M  CHG  1   8   1
M  END
>  <PDB_ID>  (2325) 
pdb3oy2

>  <RESIDUE_NAME>  (2325) 
LYS   PHE

>  <FRAG_NAME>  (2325) 
ETAM   MBZ

>  <FRAG_ATOM_NUM>  (2325) 
fragi: 11  fragj: 15

>  <atom.prop.CHAIN_ID>  (2325) 
A A A A A A A A A A A Z Z Z Z Z Z Z Z Z Z Z Z Z Z Z

>  <atom.prop.IS_HEAVY_ATOM>  (2325) 
1 0 0 0 1 0 0 1 0 0 0 1 0 0 0 1 1 0 1 0 1 0 1 0 1 0

>  <DIFUSE_FUNC_ATOM>  (2325) 
n/a

>  <FINAL_SINGLE_POINT_ENERGY>  (2325) 
0

>  <NONCOV_INTER_ENERGY_QM>  (2325) 
0

>  <FF_Energy>  (2325) 
-0.81

>  <QM_Energy>  (2325) 
-6.53

>  <source>  (2325) 
ETAM_MBZ

>  <Index>  (2325) 
24239

$$$$
ETAM-pdb3p02-A-LYS-142:MBZ-pdb3p02-A-PHE-95
     RDKit          3D

 26 25  0  0  0  0  0  0  0  0999 V2000
    0.2738   -4.9985    4.3458 C   0  0  0  0  0  0  0  0  0  0  0  0
    0.4469   -5.5945    3.5697 H   0  0  0  0  0  0  0  0  0  0  0  0
   -0.6732   -5.0692    4.6355 H   0  0  0  0  0  0  0  0  0  0  0  0
    0.9069   -5.3236    5.1715 H   0  0  0  0  0  0  0  0  0  0  0  0
    0.5716   -3.5756    3.9575 C   0  0  0  0  0  0  0  0  0  0  0  0
    0.7365   -3.0301    4.7909 H   0  0  0  0  0  0  0  0  0  0  0  0
    1.4132   -3.5515    3.4000 H   0  0  0  0  0  0  0  0  0  0  0  0
   -0.5343   -2.9382    3.1800 N   0  0  0  0  0  4  0  0  0  0  0  0
   -0.4552   -3.2020    2.2200 H   0  0  0  0  0  0  0  0  0  0  0  0
   -1.4112   -3.2470    3.5438 H   0  0  0  0  0  0  0  0  0  0  0  0
   -0.4646   -1.9458    3.2639 H   0  0  0  0  0  0  0  0  0  0  0  0
   -0.0057    2.9212   -0.0112 C   0  0  0  0  0  0  0  0  0  0  0  0
    0.9295    3.2310    0.0418 H   0  0  0  0  0  0  0  0  0  0  0  0
   -0.5341    3.2272    0.7641 H   0  0  0  0  0  0  0  0  0  0  0  0
   -0.4470    3.3668   -0.9027 H   0  0  0  0  0  0  0  0  0  0  0  0
   -0.0019    1.4093   -0.0118 C   0  0  0  0  0  0  0  0  0  0  0  0
   -1.1969    0.6957   -0.0097 C   0  0  0  0  0  0  0  0  0  0  0  0
   -2.0658    1.1821   -0.0163 H   0  0  0  0  0  0  0  0  0  0  0  0
   -1.2007   -0.7001   -0.0000 C   0  0  0  0  0  0  0  0  0  0  0  0
   -2.0800   -1.1908    0.0010 H   0  0  0  0  0  0  0  0  0  0  0  0
   -0.0020   -1.3970    0.0102 C   0  0  0  0  0  0  0  0  0  0  0  0
   -0.0066   -2.3958    0.0246 H   0  0  0  0  0  0  0  0  0  0  0  0
    1.2007   -0.7029    0.0000 C   0  0  0  0  0  0  0  0  0  0  0  0
    2.0813   -1.1992   -0.0144 H   0  0  0  0  0  0  0  0  0  0  0  0
    1.2008    0.6950    0.0113 C   0  0  0  0  0  0  0  0  0  0  0  0
    2.0665    1.1875    0.0349 H   0  0  0  0  0  0  0  0  0  0  0  0
  1  5  1  0
  5  8  1  0
  1  2  1  0
  1  3  1  0
  1  4  1  0
  5  6  1  0
  5  7  1  0
  8  9  1  0
  8 10  1  0
  8 11  1  0
 12 16  1  0
 16 17  2  0
 17 19  1  0
 19 21  2  0
 21 23  1  0
 23 25  2  0
 25 16  1  0
 12 13  1  0
 12 14  1  0
 12 15  1  0
 17 18  1  0
 19 20  1  0
 21 22  1  0
 23 24  1  0
 25 26  1  0
M  CHG  1   8   1
M  END
>  <PDB_ID>  (2326) 
pdb3p02

>  <RESIDUE_NAME>  (2326) 
LYS   PHE

>  <FRAG_NAME>  (2326) 
ETAM   MBZ

>  <FRAG_ATOM_NUM>  (2326) 
fragi: 11  fragj: 15

>  <atom.prop.CHAIN_ID>  (2326) 
A A A A A A A A A A A Z Z Z Z Z Z Z Z Z Z Z Z Z Z Z

>  <atom.prop.IS_HEAVY_ATOM>  (2326) 
1 0 0 0 1 0 0 1 0 0 0 1 0 0 0 1 1 0 1 0 1 0 1 0 1 0

>  <DIFUSE_FUNC_ATOM>  (2326) 
n/a

>  <FINAL_SINGLE_POINT_ENERGY>  (2326) 
0

>  <NONCOV_INTER_ENERGY_QM>  (2326) 
0

>  <FF_Energy>  (2326) 
-2.53

>  <QM_Energy>  (2326) 
-7.9

>  <source>  (2326) 
ETAM_MBZ

>  <Index>  (2326) 
24264

$$$$
ETAM-pdb3p0k-A-LYS-12:MBZ-pdb3p0k-A-PHE-8
     RDKit          3D

 26 25  0  0  0  0  0  0  0  0999 V2000
   -0.0243   -2.6563    4.1215 C   0  0  0  0  0  0  0  0  0  0  0  0
    0.3106   -3.5904    4.1322 H   0  0  0  0  0  0  0  0  0  0  0  0
   -1.0066   -2.6330    4.2561 H   0  0  0  0  0  0  0  0  0  0  0  0
    0.4569   -2.0986    4.9250 H   0  0  0  0  0  0  0  0  0  0  0  0
    0.2984   -2.0383    2.7765 C   0  0  0  0  0  0  0  0  0  0  0  0
   -0.2172   -2.5124    2.0650 H   0  0  0  0  0  0  0  0  0  0  0  0
    0.0415   -1.0725    2.7892 H   0  0  0  0  0  0  0  0  0  0  0  0
    1.7540   -2.1530    2.4844 N   0  0  0  0  0  4  0  0  0  0  0  0
    1.9637   -3.0903    2.2093 H   0  0  0  0  0  0  0  0  0  0  0  0
    1.9946   -1.5254    1.7445 H   0  0  0  0  0  0  0  0  0  0  0  0
    2.2764   -1.9193    3.3049 H   0  0  0  0  0  0  0  0  0  0  0  0
   -0.0061    2.9123   -0.0118 C   0  0  0  0  0  0  0  0  0  0  0  0
   -0.3553    3.2090   -0.8856 H   0  0  0  0  0  0  0  0  0  0  0  0
    0.9200    3.2209    0.1346 H   0  0  0  0  0  0  0  0  0  0  0  0
   -0.6319    3.3501    0.7658 H   0  0  0  0  0  0  0  0  0  0  0  0
   -0.0005    1.4049   -0.0004 C   0  0  0  0  0  0  0  0  0  0  0  0
   -1.1978    0.6934   -0.0007 C   0  0  0  0  0  0  0  0  0  0  0  0
   -2.0648    1.1828   -0.0022 H   0  0  0  0  0  0  0  0  0  0  0  0
   -1.2033   -0.7002   -0.0000 C   0  0  0  0  0  0  0  0  0  0  0  0
   -2.0783   -1.1938    0.0010 H   0  0  0  0  0  0  0  0  0  0  0  0
    0.0019   -1.3977    0.0006 C   0  0  0  0  0  0  0  0  0  0  0  0
   -0.0018   -2.3945    0.0010 H   0  0  0  0  0  0  0  0  0  0  0  0
    1.2033   -0.6981    0.0000 C   0  0  0  0  0  0  0  0  0  0  0  0
    2.0855   -1.1922    0.0011 H   0  0  0  0  0  0  0  0  0  0  0  0
    1.1964    0.6978    0.0005 C   0  0  0  0  0  0  0  0  0  0  0  0
    2.0652    1.1935    0.0007 H   0  0  0  0  0  0  0  0  0  0  0  0
  1  5  1  0
  5  8  1  0
  1  2  1  0
  1  3  1  0
  1  4  1  0
  5  6  1  0
  5  7  1  0
  8  9  1  0
  8 10  1  0
  8 11  1  0
 12 16  1  0
 16 17  2  0
 17 19  1  0
 19 21  2  0
 21 23  1  0
 23 25  2  0
 25 16  1  0
 12 13  1  0
 12 14  1  0
 12 15  1  0
 17 18  1  0
 19 20  1  0
 21 22  1  0
 23 24  1  0
 25 26  1  0
M  CHG  1   8   1
M  END
>  <PDB_ID>  (2327) 
pdb3p0k

>  <RESIDUE_NAME>  (2327) 
LYS   PHE

>  <FRAG_NAME>  (2327) 
ETAM   MBZ

>  <FRAG_ATOM_NUM>  (2327) 
fragi: 11  fragj: 15

>  <atom.prop.CHAIN_ID>  (2327) 
A A A A A A A A A A A Z Z Z Z Z Z Z Z Z Z Z Z Z Z Z

>  <atom.prop.IS_HEAVY_ATOM>  (2327) 
1 0 0 0 1 0 0 1 0 0 0 1 0 0 0 1 1 0 1 0 1 0 1 0 1 0

>  <DIFUSE_FUNC_ATOM>  (2327) 
n/a

>  <FINAL_SINGLE_POINT_ENERGY>  (2327) 
0

>  <NONCOV_INTER_ENERGY_QM>  (2327) 
0

>  <FF_Energy>  (2327) 
4.55

>  <QM_Energy>  (2327) 
-6.67

>  <source>  (2327) 
ETAM_MBZ

>  <Index>  (2327) 
24267

$$$$
ETAM-pdb4mt4-C-LYS-432:MBZ-pdb4mt4-C-PHE-428
     RDKit          3D

 26 25  0  0  0  0  0  0  0  0999 V2000
    1.0297   -1.9915    4.8709 C   0  0  0  0  0  0  0  0  0  0  0  0
    1.5721   -1.3440    5.3955 H   0  0  0  0  0  0  0  0  0  0  0  0
    1.3475   -2.9199    5.0279 H   0  0  0  0  0  0  0  0  0  0  0  0
   -0.0124   -1.9153    5.1812 H   0  0  0  0  0  0  0  0  0  0  0  0
    1.1892   -1.6695    3.3916 C   0  0  0  0  0  0  0  0  0  0  0  0
    0.6792   -2.3490    2.8542 H   0  0  0  0  0  0  0  0  0  0  0  0
    0.7991   -0.7605    3.2130 H   0  0  0  0  0  0  0  0  0  0  0  0
    2.6164   -1.6800    2.9626 N   0  0  0  0  0  4  0  0  0  0  0  0
    3.1334   -2.3031    3.5489 H   0  0  0  0  0  0  0  0  0  0  0  0
    2.6741   -1.9873    2.0138 H   0  0  0  0  0  0  0  0  0  0  0  0
    2.9913   -0.7572    3.0399 H   0  0  0  0  0  0  0  0  0  0  0  0
    0.0033    2.8974   -0.0030 C   0  0  0  0  0  0  0  0  0  0  0  0
   -0.3579    3.2013   -0.8717 H   0  0  0  0  0  0  0  0  0  0  0  0
    0.9351    3.2028    0.1262 H   0  0  0  0  0  0  0  0  0  0  0  0
   -0.6048    3.3424    0.7846 H   0  0  0  0  0  0  0  0  0  0  0  0
    0.0004    1.3950    0.0026 C   0  0  0  0  0  0  0  0  0  0  0  0
   -1.1915    0.6877   -0.0026 C   0  0  0  0  0  0  0  0  0  0  0  0
   -2.0599    1.1797   -0.0092 H   0  0  0  0  0  0  0  0  0  0  0  0
   -1.1946   -0.6952    0.0000 C   0  0  0  0  0  0  0  0  0  0  0  0
   -2.0733   -1.1914    0.0040 H   0  0  0  0  0  0  0  0  0  0  0  0
    0.0011   -1.3858   -0.0008 C   0  0  0  0  0  0  0  0  0  0  0  0
   -0.0013   -2.3866   -0.0023 H   0  0  0  0  0  0  0  0  0  0  0  0
    1.1946   -0.6912   -0.0000 C   0  0  0  0  0  0  0  0  0  0  0  0
    2.0787   -1.1904    0.0014 H   0  0  0  0  0  0  0  0  0  0  0  0
    1.1899    0.6894    0.0008 C   0  0  0  0  0  0  0  0  0  0  0  0
    2.0602    1.1885   -0.0010 H   0  0  0  0  0  0  0  0  0  0  0  0
  1  5  1  0
  5  8  1  0
  1  2  1  0
  1  3  1  0
  1  4  1  0
  5  6  1  0
  5  7  1  0
  8  9  1  0
  8 10  1  0
  8 11  1  0
 12 16  1  0
 16 17  2  0
 17 19  1  0
 19 21  2  0
 21 23  1  0
 23 25  2  0
 25 16  1  0
 12 13  1  0
 12 14  1  0
 12 15  1  0
 17 18  1  0
 19 20  1  0
 21 22  1  0
 23 24  1  0
 25 26  1  0
M  CHG  1   8   1
M  END
>  <PDB_ID>  (2328) 
pdb4mt4

>  <RESIDUE_NAME>  (2328) 
LYS   PHE

>  <FRAG_NAME>  (2328) 
ETAM   MBZ

>  <FRAG_ATOM_NUM>  (2328) 
fragi: 11  fragj: 15

>  <atom.prop.CHAIN_ID>  (2328) 
A A A A A A A A A A A Z Z Z Z Z Z Z Z Z Z Z Z Z Z Z

>  <atom.prop.IS_HEAVY_ATOM>  (2328) 
1 0 0 0 1 0 0 1 0 0 0 1 0 0 0 1 1 0 1 0 1 0 1 0 1 0

>  <DIFUSE_FUNC_ATOM>  (2328) 
n/a

>  <FINAL_SINGLE_POINT_ENERGY>  (2328) 
0

>  <NONCOV_INTER_ENERGY_QM>  (2328) 
0

>  <FF_Energy>  (2328) 
-3.11

>  <QM_Energy>  (2328) 
-8.56

>  <source>  (2328) 
ETAM_MBZ

>  <Index>  (2328) 
24277

$$$$
ETAM-pdb4mua-A-LYS-109:MBZ-pdb4mua-A-PHE-213
     RDKit          3D

 26 25  0  0  0  0  0  0  0  0999 V2000
    0.4402   -1.1768    3.7138 C   0  0  0  0  0  0  0  0  0  0  0  0
    0.6309   -0.6187    4.5092 H   0  0  0  0  0  0  0  0  0  0  0  0
    0.7160   -0.7183    2.8814 H   0  0  0  0  0  0  0  0  0  0  0  0
    0.9811   -2.1191    3.8004 H   0  0  0  0  0  0  0  0  0  0  0  0
   -1.0678   -1.4271    3.6504 C   0  0  0  0  0  0  0  0  0  0  0  0
   -1.2599   -2.0469    2.8856 H   0  0  0  0  0  0  0  0  0  0  0  0
   -1.3595   -1.8638    4.5054 H   0  0  0  0  0  0  0  0  0  0  0  0
   -1.8447   -0.1603    3.4602 N   0  0  0  0  0  4  0  0  0  0  0  0
   -2.6633   -0.1898    4.0305 H   0  0  0  0  0  0  0  0  0  0  0  0
   -1.2752    0.6153    3.7251 H   0  0  0  0  0  0  0  0  0  0  0  0
   -2.1041   -0.0769    2.5003 H   0  0  0  0  0  0  0  0  0  0  0  0
    0.0129    2.8970   -0.0490 C   0  0  0  0  0  0  0  0  0  0  0  0
   -0.4747    3.1756   -0.8702 H   0  0  0  0  0  0  0  0  0  0  0  0
    0.9613    3.1936   -0.0927 H   0  0  0  0  0  0  0  0  0  0  0  0
   -0.4513    3.4021    0.7980 H   0  0  0  0  0  0  0  0  0  0  0  0
   -0.0018    1.3976    0.0123 C   0  0  0  0  0  0  0  0  0  0  0  0
   -1.1907    0.6910   -0.0175 C   0  0  0  0  0  0  0  0  0  0  0  0
   -2.0602    1.1810   -0.0531 H   0  0  0  0  0  0  0  0  0  0  0  0
   -1.1958   -0.6938    0.0000 C   0  0  0  0  0  0  0  0  0  0  0  0
   -2.0745   -1.1882    0.0077 H   0  0  0  0  0  0  0  0  0  0  0  0
    0.0002   -1.3883    0.0093 C   0  0  0  0  0  0  0  0  0  0  0  0
   -0.0036   -2.3880    0.0222 H   0  0  0  0  0  0  0  0  0  0  0  0
    1.1958   -0.6933   -0.0000 C   0  0  0  0  0  0  0  0  0  0  0  0
    2.0784   -1.1946   -0.0028 H   0  0  0  0  0  0  0  0  0  0  0  0
    1.1923    0.6868   -0.0041 C   0  0  0  0  0  0  0  0  0  0  0  0
    2.0613    1.1872   -0.0193 H   0  0  0  0  0  0  0  0  0  0  0  0
  1  5  1  0
  5  8  1  0
  1  2  1  0
  1  3  1  0
  1  4  1  0
  5  6  1  0
  5  7  1  0
  8  9  1  0
  8 10  1  0
  8 11  1  0
 12 16  1  0
 16 17  2  0
 17 19  1  0
 19 21  2  0
 21 23  1  0
 23 25  2  0
 25 16  1  0
 12 13  1  0
 12 14  1  0
 12 15  1  0
 17 18  1  0
 19 20  1  0
 21 22  1  0
 23 24  1  0
 25 26  1  0
M  CHG  1   8   1
M  END
>  <PDB_ID>  (2329) 
pdb4mua

>  <RESIDUE_NAME>  (2329) 
LYS   PHE

>  <FRAG_NAME>  (2329) 
ETAM   MBZ

>  <FRAG_ATOM_NUM>  (2329) 
fragi: 11  fragj: 15

>  <atom.prop.CHAIN_ID>  (2329) 
A A A A A A A A A A A Z Z Z Z Z Z Z Z Z Z Z Z Z Z Z

>  <atom.prop.IS_HEAVY_ATOM>  (2329) 
1 0 0 0 1 0 0 1 0 0 0 1 0 0 0 1 1 0 1 0 1 0 1 0 1 0

>  <DIFUSE_FUNC_ATOM>  (2329) 
n/a

>  <FINAL_SINGLE_POINT_ENERGY>  (2329) 
0

>  <NONCOV_INTER_ENERGY_QM>  (2329) 
0

>  <FF_Energy>  (2329) 
-6.37

>  <QM_Energy>  (2329) 
-12.81

>  <source>  (2329) 
ETAM_MBZ

>  <Index>  (2329) 
24280

$$$$
ETAM-pdb4mu9-A-LYS-310:MBZ-pdb4mu9-A-PHE-294
     RDKit          3D

 26 25  0  0  0  0  0  0  0  0999 V2000
    2.9169   -0.6267    4.7536 C   0  0  0  0  0  0  0  0  0  0  0  0
    2.7242   -1.3509    5.3974 H   0  0  0  0  0  0  0  0  0  0  0  0
    2.2598    0.1077    4.8274 H   0  0  0  0  0  0  0  0  0  0  0  0
    3.9113   -0.2307    4.9599 H   0  0  0  0  0  0  0  0  0  0  0  0
    2.8584   -1.1976    3.3407 C   0  0  0  0  0  0  0  0  0  0  0  0
    2.9174   -0.4359    2.6851 H   0  0  0  0  0  0  0  0  0  0  0  0
    3.6580   -1.7955    3.2034 H   0  0  0  0  0  0  0  0  0  0  0  0
    1.6218   -1.9659    3.0915 N   0  0  0  0  0  4  0  0  0  0  0  0
    1.2919   -2.3630    3.9503 H   0  0  0  0  0  0  0  0  0  0  0  0
    0.9178   -1.3603    2.7168 H   0  0  0  0  0  0  0  0  0  0  0  0
    1.8074   -2.7014    2.4378 H   0  0  0  0  0  0  0  0  0  0  0  0
    0.0021    2.9194    0.0039 C   0  0  0  0  0  0  0  0  0  0  0  0
   -0.7617    3.2188   -0.5666 H   0  0  0  0  0  0  0  0  0  0  0  0
    0.8628    3.2188   -0.4063 H   0  0  0  0  0  0  0  0  0  0  0  0
   -0.0930    3.4255    0.9646 H   0  0  0  0  0  0  0  0  0  0  0  0
    0.0006    1.4090    0.0243 C   0  0  0  0  0  0  0  0  0  0  0  0
   -1.1930    0.6984   -0.0064 C   0  0  0  0  0  0  0  0  0  0  0  0
   -2.0620    1.1795   -0.0348 H   0  0  0  0  0  0  0  0  0  0  0  0
   -1.1928   -0.7039    0.0000 C   0  0  0  0  0  0  0  0  0  0  0  0
   -2.0752   -1.1902    0.0162 H   0  0  0  0  0  0  0  0  0  0  0  0
   -0.0016   -1.3932   -0.0140 C   0  0  0  0  0  0  0  0  0  0  0  0
   -0.0042   -2.3966   -0.0352 H   0  0  0  0  0  0  0  0  0  0  0  0
    1.1928   -0.7034   -0.0000 C   0  0  0  0  0  0  0  0  0  0  0  0
    2.0764   -1.1985    0.0150 H   0  0  0  0  0  0  0  0  0  0  0  0
    1.1941    0.6931   -0.0039 C   0  0  0  0  0  0  0  0  0  0  0  0
    2.0650    1.1831   -0.0285 H   0  0  0  0  0  0  0  0  0  0  0  0
  1  5  1  0
  5  8  1  0
  1  2  1  0
  1  3  1  0
  1  4  1  0
  5  6  1  0
  5  7  1  0
  8  9  1  0
  8 10  1  0
  8 11  1  0
 12 16  1  0
 16 17  2  0
 17 19  1  0
 19 21  2  0
 21 23  1  0
 23 25  2  0
 25 16  1  0
 12 13  1  0
 12 14  1  0
 12 15  1  0
 17 18  1  0
 19 20  1  0
 21 22  1  0
 23 24  1  0
 25 26  1  0
M  CHG  1   8   1
M  END
>  <PDB_ID>  (2330) 
pdb4mu9

>  <RESIDUE_NAME>  (2330) 
LYS   PHE

>  <FRAG_NAME>  (2330) 
ETAM   MBZ

>  <FRAG_ATOM_NUM>  (2330) 
fragi: 11  fragj: 15

>  <atom.prop.CHAIN_ID>  (2330) 
A A A A A A A A A A A Z Z Z Z Z Z Z Z Z Z Z Z Z Z Z

>  <atom.prop.IS_HEAVY_ATOM>  (2330) 
1 0 0 0 1 0 0 1 0 0 0 1 0 0 0 1 1 0 1 0 1 0 1 0 1 0

>  <DIFUSE_FUNC_ATOM>  (2330) 
n/a

>  <FINAL_SINGLE_POINT_ENERGY>  (2330) 
0

>  <NONCOV_INTER_ENERGY_QM>  (2330) 
0

>  <FF_Energy>  (2330) 
-4.38

>  <QM_Energy>  (2330) 
-10.85

>  <source>  (2330) 
ETAM_MBZ

>  <Index>  (2330) 
24285

$$$$
ETAM-pdb4mu9-B-LYS-310:MBZ-pdb4mu9-B-PHE-294
     RDKit          3D

 26 25  0  0  0  0  0  0  0  0999 V2000
    2.8665   -0.6425    4.7331 C   0  0  0  0  0  0  0  0  0  0  0  0
    2.6714   -1.3660    5.3826 H   0  0  0  0  0  0  0  0  0  0  0  0
    2.2071    0.0928    4.8116 H   0  0  0  0  0  0  0  0  0  0  0  0
    3.8609   -0.2464    4.9387 H   0  0  0  0  0  0  0  0  0  0  0  0
    2.8128   -1.2046    3.3391 C   0  0  0  0  0  0  0  0  0  0  0  0
    2.8662   -0.4498    2.6763 H   0  0  0  0  0  0  0  0  0  0  0  0
    3.6025   -1.8107    3.1964 H   0  0  0  0  0  0  0  0  0  0  0  0
    1.5675   -1.9696    3.1037 N   0  0  0  0  0  4  0  0  0  0  0  0
    1.4278   -2.0880    2.1194 H   0  0  0  0  0  0  0  0  0  0  0  0
    1.6381   -2.8679    3.5400 H   0  0  0  0  0  0  0  0  0  0  0  0
    0.7900   -1.4730    3.4912 H   0  0  0  0  0  0  0  0  0  0  0  0
    0.0002    2.9283   -0.0268 C   0  0  0  0  0  0  0  0  0  0  0  0
   -0.7585    3.2164   -0.6082 H   0  0  0  0  0  0  0  0  0  0  0  0
    0.8651    3.2203   -0.4315 H   0  0  0  0  0  0  0  0  0  0  0  0
   -0.1047    3.4425    0.9285 H   0  0  0  0  0  0  0  0  0  0  0  0
   -0.0003    1.4128    0.0122 C   0  0  0  0  0  0  0  0  0  0  0  0
   -1.1973    0.6976   -0.0157 C   0  0  0  0  0  0  0  0  0  0  0  0
   -2.0647    1.1798   -0.0487 H   0  0  0  0  0  0  0  0  0  0  0  0
   -1.1964   -0.7045    0.0000 C   0  0  0  0  0  0  0  0  0  0  0  0
   -2.0743   -1.1948    0.0109 H   0  0  0  0  0  0  0  0  0  0  0  0
    0.0033   -1.3971    0.0016 C   0  0  0  0  0  0  0  0  0  0  0  0
   -0.0038   -2.3994    0.0036 H   0  0  0  0  0  0  0  0  0  0  0  0
    1.1964   -0.7077   -0.0000 C   0  0  0  0  0  0  0  0  0  0  0  0
    2.0822   -1.1959   -0.0009 H   0  0  0  0  0  0  0  0  0  0  0  0
    1.1944    0.6989    0.0018 C   0  0  0  0  0  0  0  0  0  0  0  0
    2.0655    1.1858   -0.0055 H   0  0  0  0  0  0  0  0  0  0  0  0
  1  5  1  0
  5  8  1  0
  1  2  1  0
  1  3  1  0
  1  4  1  0
  5  6  1  0
  5  7  1  0
  8  9  1  0
  8 10  1  0
  8 11  1  0
 12 16  1  0
 16 17  2  0
 17 19  1  0
 19 21  2  0
 21 23  1  0
 23 25  2  0
 25 16  1  0
 12 13  1  0
 12 14  1  0
 12 15  1  0
 17 18  1  0
 19 20  1  0
 21 22  1  0
 23 24  1  0
 25 26  1  0
M  CHG  1   8   1
M  END
>  <PDB_ID>  (2331) 
pdb4mu9

>  <RESIDUE_NAME>  (2331) 
LYS   PHE

>  <FRAG_NAME>  (2331) 
ETAM   MBZ

>  <FRAG_ATOM_NUM>  (2331) 
fragi: 11  fragj: 15

>  <atom.prop.CHAIN_ID>  (2331) 
A A A A A A A A A A A Z Z Z Z Z Z Z Z Z Z Z Z Z Z Z

>  <atom.prop.IS_HEAVY_ATOM>  (2331) 
1 0 0 0 1 0 0 1 0 0 0 1 0 0 0 1 1 0 1 0 1 0 1 0 1 0

>  <DIFUSE_FUNC_ATOM>  (2331) 
n/a

>  <FINAL_SINGLE_POINT_ENERGY>  (2331) 
0

>  <NONCOV_INTER_ENERGY_QM>  (2331) 
0

>  <FF_Energy>  (2331) 
-4.18

>  <QM_Energy>  (2331) 
-11.05

>  <source>  (2331) 
ETAM_MBZ

>  <Index>  (2331) 
24290

$$$$
ETAM-pdb4msx-A-LYS-204:MBZ-pdb4msx-A-PHE-119
     RDKit          3D

 26 25  0  0  0  0  0  0  0  0999 V2000
   -0.5460   -0.6045    4.0661 C   0  0  0  0  0  0  0  0  0  0  0  0
    0.0757   -0.9147    4.7429 H   0  0  0  0  0  0  0  0  0  0  0  0
   -0.4347   -1.1320    3.2595 H   0  0  0  0  0  0  0  0  0  0  0  0
   -1.5602   -0.7532    4.4369 H   0  0  0  0  0  0  0  0  0  0  0  0
   -0.1723    0.8147    3.7300 C   0  0  0  0  0  0  0  0  0  0  0  0
   -0.5953    1.0652    2.8937 H   0  0  0  0  0  0  0  0  0  0  0  0
   -0.4733    1.3993    4.4429 H   0  0  0  0  0  0  0  0  0  0  0  0
    1.3331    0.9942    3.5731 N   0  0  0  0  0  4  0  0  0  0  0  0
    1.5185    1.8415    3.3757 H   0  0  0  0  0  0  0  0  0  0  0  0
    1.7460    0.7766    4.3313 H   0  0  0  0  0  0  0  0  0  0  0  0
    1.6346    0.4719    2.9189 H   0  0  0  0  0  0  0  0  0  0  0  0
   -0.0042    2.9288    0.0270 C   0  0  0  0  0  0  0  0  0  0  0  0
    0.8624    3.2181    0.3534 H   0  0  0  0  0  0  0  0  0  0  0  0
   -0.6992    3.2131    0.6411 H   0  0  0  0  0  0  0  0  0  0  0  0
   -0.1852    3.3871   -0.9453 H   0  0  0  0  0  0  0  0  0  0  0  0
   -0.0051    1.4112   -0.0041 C   0  0  0  0  0  0  0  0  0  0  0  0
   -1.2016    0.7025   -0.0065 C   0  0  0  0  0  0  0  0  0  0  0  0
   -2.0088    1.1645    0.0047 H   0  0  0  0  0  0  0  0  0  0  0  0
   -1.2043   -0.7056    0.0000 C   0  0  0  0  0  0  0  0  0  0  0  0
   -2.0095   -1.1709    0.0005 H   0  0  0  0  0  0  0  0  0  0  0  0
    0.0068   -1.4014    0.0178 C   0  0  0  0  0  0  0  0  0  0  0  0
    0.0046   -2.3310    0.0013 H   0  0  0  0  0  0  0  0  0  0  0  0
    1.2043   -0.7199   -0.0000 C   0  0  0  0  0  0  0  0  0  0  0  0
    2.0093   -1.1857    0.0006 H   0  0  0  0  0  0  0  0  0  0  0  0
    1.2000    0.7132   -0.0072 C   0  0  0  0  0  0  0  0  0  0  0  0
    2.0044    1.1780    0.0041 H   0  0  0  0  0  0  0  0  0  0  0  0
  1  5  1  0
  5  8  1  0
  1  2  1  0
  1  3  1  0
  1  4  1  0
  5  6  1  0
  5  7  1  0
  8  9  1  0
  8 10  1  0
  8 11  1  0
 12 16  1  0
 16 17  2  0
 17 19  1  0
 19 21  2  0
 21 23  1  0
 23 25  2  0
 25 16  1  0
 12 13  1  0
 12 14  1  0
 12 15  1  0
 17 18  1  0
 19 20  1  0
 21 22  1  0
 23 24  1  0
 25 26  1  0
M  CHG  1   8   1
M  END
>  <PDB_ID>  (2332) 
pdb4msx

>  <RESIDUE_NAME>  (2332) 
LYS   PHE

>  <FRAG_NAME>  (2332) 
ETAM   MBZ

>  <FRAG_ATOM_NUM>  (2332) 
fragi: 11  fragj: 15

>  <atom.prop.CHAIN_ID>  (2332) 
A A A A A A A A A A A Z Z Z Z Z Z Z Z Z Z Z Z Z Z Z

>  <atom.prop.IS_HEAVY_ATOM>  (2332) 
1 0 0 0 1 0 0 1 0 0 0 1 0 0 0 1 1 0 1 0 1 0 1 0 1 0

>  <DIFUSE_FUNC_ATOM>  (2332) 
n/a

>  <FINAL_SINGLE_POINT_ENERGY>  (2332) 
0

>  <NONCOV_INTER_ENERGY_QM>  (2332) 
0

>  <FF_Energy>  (2332) 
-6.76

>  <QM_Energy>  (2332) 
-12.13

>  <source>  (2332) 
ETAM_MBZ

>  <Index>  (2332) 
24298

$$$$
ETAM-pdb3p1v-B-LYS-401:MBZ-pdb3p1v-B-PHE-325
     RDKit          3D

 26 25  0  0  0  0  0  0  0  0999 V2000
    1.4007   -3.3008    3.5080 C   0  0  0  0  0  0  0  0  0  0  0  0
    2.3259   -3.1560    3.1297 H   0  0  0  0  0  0  0  0  0  0  0  0
    1.3611   -4.2386    3.8821 H   0  0  0  0  0  0  0  0  0  0  0  0
    1.2590   -2.6012    4.3318 H   0  0  0  0  0  0  0  0  0  0  0  0
    0.3954   -3.1819    2.3891 C   0  0  0  0  0  0  0  0  0  0  0  0
   -0.4802   -2.8692    2.7611 H   0  0  0  0  0  0  0  0  0  0  0  0
    0.7235   -2.5172    1.7161 H   0  0  0  0  0  0  0  0  0  0  0  0
    0.1870   -4.4974    1.7049 N   0  0  0  0  0  4  0  0  0  0  0  0
    0.5496   -4.4443    0.7763 H   0  0  0  0  0  0  0  0  0  0  0  0
    0.6645   -5.2101    2.2148 H   0  0  0  0  0  0  0  0  0  0  0  0
   -0.7896   -4.6996    1.6756 H   0  0  0  0  0  0  0  0  0  0  0  0
   -0.0096    2.8910   -0.0241 C   0  0  0  0  0  0  0  0  0  0  0  0
   -0.8198    3.1920   -0.5305 H   0  0  0  0  0  0  0  0  0  0  0  0
    0.8125    3.2049   -0.5029 H   0  0  0  0  0  0  0  0  0  0  0  0
   -0.0299    3.3964    0.9414 H   0  0  0  0  0  0  0  0  0  0  0  0
    0.0023    1.3994   -0.0072 C   0  0  0  0  0  0  0  0  0  0  0  0
   -1.1984    0.6933   -0.0082 C   0  0  0  0  0  0  0  0  0  0  0  0
   -2.0636    1.1941   -0.0163 H   0  0  0  0  0  0  0  0  0  0  0  0
   -1.2193   -0.6928    0.0000 C   0  0  0  0  0  0  0  0  0  0  0  0
   -2.0879   -1.1852   -0.0107 H   0  0  0  0  0  0  0  0  0  0  0  0
   -0.0070   -1.3906    0.0248 C   0  0  0  0  0  0  0  0  0  0  0  0
   -0.0115   -2.3897    0.0605 H   0  0  0  0  0  0  0  0  0  0  0  0
    1.2193   -0.7008   -0.0000 C   0  0  0  0  0  0  0  0  0  0  0  0
    2.0851   -1.2010   -0.0110 H   0  0  0  0  0  0  0  0  0  0  0  0
    1.2031    0.6916   -0.0095 C   0  0  0  0  0  0  0  0  0  0  0  0
    2.0692    1.1940   -0.0190 H   0  0  0  0  0  0  0  0  0  0  0  0
  1  5  1  0
  5  8  1  0
  1  2  1  0
  1  3  1  0
  1  4  1  0
  5  6  1  0
  5  7  1  0
  8  9  1  0
  8 10  1  0
  8 11  1  0
 12 16  1  0
 16 17  2  0
 17 19  1  0
 19 21  2  0
 21 23  1  0
 23 25  2  0
 25 16  1  0
 12 13  1  0
 12 14  1  0
 12 15  1  0
 17 18  1  0
 19 20  1  0
 21 22  1  0
 23 24  1  0
 25 26  1  0
M  CHG  1   8   1
M  END
>  <PDB_ID>  (2333) 
pdb3p1v

>  <RESIDUE_NAME>  (2333) 
LYS   PHE

>  <FRAG_NAME>  (2333) 
ETAM   MBZ

>  <FRAG_ATOM_NUM>  (2333) 
fragi: 11  fragj: 15

>  <atom.prop.CHAIN_ID>  (2333) 
A A A A A A A A A A A Z Z Z Z Z Z Z Z Z Z Z Z Z Z Z

>  <atom.prop.IS_HEAVY_ATOM>  (2333) 
1 0 0 0 1 0 0 1 0 0 0 1 0 0 0 1 1 0 1 0 1 0 1 0 1 0

>  <DIFUSE_FUNC_ATOM>  (2333) 
n/a

>  <FINAL_SINGLE_POINT_ENERGY>  (2333) 
0

>  <NONCOV_INTER_ENERGY_QM>  (2333) 
0

>  <FF_Energy>  (2333) 
13.44

>  <QM_Energy>  (2333) 
-0.6

>  <source>  (2333) 
ETAM_MBZ

>  <Index>  (2333) 
24304

$$$$
ETAM-pdb3p2l-A-LYS-13:MBZ-pdb3p2l-G-PHE-21
     RDKit          3D

 26 25  0  0  0  0  0  0  0  0999 V2000
    1.8730   -4.9940   -4.0401 C   0  0  0  0  0  0  0  0  0  0  0  0
    0.9347   -5.1218   -4.3394 H   0  0  0  0  0  0  0  0  0  0  0  0
    2.1821   -5.7789   -3.5157 H   0  0  0  0  0  0  0  0  0  0  0  0
    2.5125   -4.8752   -4.9148 H   0  0  0  0  0  0  0  0  0  0  0  0
    1.9371   -3.7656   -3.1568 C   0  0  0  0  0  0  0  0  0  0  0  0
    2.3747   -4.0108   -2.2874 H   0  0  0  0  0  0  0  0  0  0  0  0
    2.4899   -3.0630   -3.6123 H   0  0  0  0  0  0  0  0  0  0  0  0
    0.5836   -3.2188   -2.8844 N   0  0  0  0  0  4  0  0  0  0  0  0
    0.2524   -2.7311   -3.6919 H   0  0  0  0  0  0  0  0  0  0  0  0
   -0.0418   -3.9689   -2.6678 H   0  0  0  0  0  0  0  0  0  0  0  0
    0.6285   -2.5879   -2.1089 H   0  0  0  0  0  0  0  0  0  0  0  0
   -0.0069    2.8736    0.0010 C   0  0  0  0  0  0  0  0  0  0  0  0
    0.4061    3.1859    0.8467 H   0  0  0  0  0  0  0  0  0  0  0  0
   -0.9478    3.1812   -0.0652 H   0  0  0  0  0  0  0  0  0  0  0  0
    0.5476    3.3213   -0.8237 H   0  0  0  0  0  0  0  0  0  0  0  0
   -0.0003    1.3875   -0.0009 C   0  0  0  0  0  0  0  0  0  0  0  0
   -1.1832    0.6849    0.0033 C   0  0  0  0  0  0  0  0  0  0  0  0
   -2.0543    1.1766    0.0077 H   0  0  0  0  0  0  0  0  0  0  0  0
   -1.1870   -0.6913    0.0000 C   0  0  0  0  0  0  0  0  0  0  0  0
   -2.0688   -1.1865    0.0001 H   0  0  0  0  0  0  0  0  0  0  0  0
   -0.0015   -1.3787   -0.0013 C   0  0  0  0  0  0  0  0  0  0  0  0
   -0.0040   -2.3823   -0.0038 H   0  0  0  0  0  0  0  0  0  0  0  0
    1.1870   -0.6896    0.0000 C   0  0  0  0  0  0  0  0  0  0  0  0
    2.0724   -1.1906    0.0028 H   0  0  0  0  0  0  0  0  0  0  0  0
    1.1851    0.6872   -0.0011 C   0  0  0  0  0  0  0  0  0  0  0  0
    2.0565    1.1855   -0.0027 H   0  0  0  0  0  0  0  0  0  0  0  0
  1  5  1  0
  5  8  1  0
  1  2  1  0
  1  3  1  0
  1  4  1  0
  5  6  1  0
  5  7  1  0
  8  9  1  0
  8 10  1  0
  8 11  1  0
 12 16  1  0
 16 17  2  0
 17 19  1  0
 19 21  2  0
 21 23  1  0
 23 25  2  0
 25 16  1  0
 12 13  1  0
 12 14  1  0
 12 15  1  0
 17 18  1  0
 19 20  1  0
 21 22  1  0
 23 24  1  0
 25 26  1  0
M  CHG  1   8   1
M  END
>  <PDB_ID>  (2334) 
pdb3p2l

>  <RESIDUE_NAME>  (2334) 
LYS   PHE

>  <FRAG_NAME>  (2334) 
ETAM   MBZ

>  <FRAG_ATOM_NUM>  (2334) 
fragi: 11  fragj: 15

>  <atom.prop.CHAIN_ID>  (2334) 
A A A A A A A A A A A Z Z Z Z Z Z Z Z Z Z Z Z Z Z Z

>  <atom.prop.IS_HEAVY_ATOM>  (2334) 
1 0 0 0 1 0 0 1 0 0 0 1 0 0 0 1 1 0 1 0 1 0 1 0 1 0

>  <DIFUSE_FUNC_ATOM>  (2334) 
n/a

>  <FINAL_SINGLE_POINT_ENERGY>  (2334) 
0

>  <NONCOV_INTER_ENERGY_QM>  (2334) 
0

>  <FF_Energy>  (2334) 
-2.29

>  <QM_Energy>  (2334) 
-8.95

>  <source>  (2334) 
ETAM_MBZ

>  <Index>  (2334) 
24333

$$$$
ETAM-pdb3p2l-A-LYS-29:MBZ-pdb3p2l-A-PHE-21
     RDKit          3D

 26 25  0  0  0  0  0  0  0  0999 V2000
    0.4228   -5.7118   -1.8535 C   0  0  0  0  0  0  0  0  0  0  0  0
    1.2294   -5.3600   -1.4011 H   0  0  0  0  0  0  0  0  0  0  0  0
    0.6441   -6.0850   -2.7427 H   0  0  0  0  0  0  0  0  0  0  0  0
   -0.0046   -6.5034   -1.2381 H   0  0  0  0  0  0  0  0  0  0  0  0
   -0.5744   -4.5547   -2.0435 C   0  0  0  0  0  0  0  0  0  0  0  0
   -1.4661   -4.9439   -2.3283 H   0  0  0  0  0  0  0  0  0  0  0  0
   -0.7166   -4.1025   -1.1473 H   0  0  0  0  0  0  0  0  0  0  0  0
   -0.1603   -3.5108   -3.0497 N   0  0  0  0  0  4  0  0  0  0  0  0
    0.8344   -3.4745   -3.0850 H   0  0  0  0  0  0  0  0  0  0  0  0
   -0.5255   -3.7617   -3.9422 H   0  0  0  0  0  0  0  0  0  0  0  0
   -0.5252   -2.6283   -2.7664 H   0  0  0  0  0  0  0  0  0  0  0  0
   -0.0155    2.8522   -0.0011 C   0  0  0  0  0  0  0  0  0  0  0  0
   -0.5927    3.1637   -0.7443 H   0  0  0  0  0  0  0  0  0  0  0  0
    0.9135    3.1796   -0.1129 H   0  0  0  0  0  0  0  0  0  0  0  0
   -0.4067    3.2823    0.9209 H   0  0  0  0  0  0  0  0  0  0  0  0
   -0.0003    1.3809    0.0008 C   0  0  0  0  0  0  0  0  0  0  0  0
   -1.1825    0.6763   -0.0008 C   0  0  0  0  0  0  0  0  0  0  0  0
   -2.0543    1.1725   -0.0036 H   0  0  0  0  0  0  0  0  0  0  0  0
   -1.1894   -0.6937   -0.0000 C   0  0  0  0  0  0  0  0  0  0  0  0
   -2.0682   -1.1917    0.0019 H   0  0  0  0  0  0  0  0  0  0  0  0
   -0.0003   -1.3765   -0.0006 C   0  0  0  0  0  0  0  0  0  0  0  0
    0.0031   -2.3796   -0.0015 H   0  0  0  0  0  0  0  0  0  0  0  0
    1.1894   -0.6805    0.0000 C   0  0  0  0  0  0  0  0  0  0  0  0
    2.0752   -1.1813    0.0019 H   0  0  0  0  0  0  0  0  0  0  0  0
    1.1830    0.6936    0.0005 C   0  0  0  0  0  0  0  0  0  0  0  0
    2.0536    1.1936    0.0001 H   0  0  0  0  0  0  0  0  0  0  0  0
  1  5  1  0
  5  8  1  0
  1  2  1  0
  1  3  1  0
  1  4  1  0
  5  6  1  0
  5  7  1  0
  8  9  1  0
  8 10  1  0
  8 11  1  0
 12 16  1  0
 16 17  2  0
 17 19  1  0
 19 21  2  0
 21 23  1  0
 23 25  2  0
 25 16  1  0
 12 13  1  0
 12 14  1  0
 12 15  1  0
 17 18  1  0
 19 20  1  0
 21 22  1  0
 23 24  1  0
 25 26  1  0
M  CHG  1   8   1
M  END
>  <PDB_ID>  (2335) 
pdb3p2l

>  <RESIDUE_NAME>  (2335) 
LYS   PHE

>  <FRAG_NAME>  (2335) 
ETAM   MBZ

>  <FRAG_ATOM_NUM>  (2335) 
fragi: 11  fragj: 15

>  <atom.prop.CHAIN_ID>  (2335) 
A A A A A A A A A A A Z Z Z Z Z Z Z Z Z Z Z Z Z Z Z

>  <atom.prop.IS_HEAVY_ATOM>  (2335) 
1 0 0 0 1 0 0 1 0 0 0 1 0 0 0 1 1 0 1 0 1 0 1 0 1 0

>  <DIFUSE_FUNC_ATOM>  (2335) 
n/a

>  <FINAL_SINGLE_POINT_ENERGY>  (2335) 
0

>  <NONCOV_INTER_ENERGY_QM>  (2335) 
0

>  <FF_Energy>  (2335) 
-1.8

>  <QM_Energy>  (2335) 
-6.86

>  <source>  (2335) 
ETAM_MBZ

>  <Index>  (2335) 
24334

$$$$
ETAM-pdb3p2l-B-LYS-29:MBZ-pdb3p2l-B-PHE-21
     RDKit          3D

 26 25  0  0  0  0  0  0  0  0999 V2000
    0.0515   -2.5228    3.8292 C   0  0  0  0  0  0  0  0  0  0  0  0
    0.0167   -1.7767    3.1676 H   0  0  0  0  0  0  0  0  0  0  0  0
    0.7659   -2.3449    4.5027 H   0  0  0  0  0  0  0  0  0  0  0  0
   -0.9105   -2.5958    4.3367 H   0  0  0  0  0  0  0  0  0  0  0  0
    0.4176   -3.8105    3.0770 C   0  0  0  0  0  0  0  0  0  0  0  0
    0.4182   -4.5732    3.7217 H   0  0  0  0  0  0  0  0  0  0  0  0
   -0.2638   -3.9749    2.3641 H   0  0  0  0  0  0  0  0  0  0  0  0
    1.7830   -3.7151    2.4328 N   0  0  0  0  0  4  0  0  0  0  0  0
    2.1835   -4.6259    2.3980 H   0  0  0  0  0  0  0  0  0  0  0  0
    1.6770   -3.3502    1.5124 H   0  0  0  0  0  0  0  0  0  0  0  0
    2.3527   -3.1086    2.9802 H   0  0  0  0  0  0  0  0  0  0  0  0
   -0.0026    2.8987    0.0144 C   0  0  0  0  0  0  0  0  0  0  0  0
    0.8254    3.2007    0.4693 H   0  0  0  0  0  0  0  0  0  0  0  0
   -0.8068    3.1989    0.5104 H   0  0  0  0  0  0  0  0  0  0  0  0
   -0.0279    3.3665   -0.9698 H   0  0  0  0  0  0  0  0  0  0  0  0
   -0.0018    1.3981   -0.0069 C   0  0  0  0  0  0  0  0  0  0  0  0
   -1.1939    0.6940    0.0049 C   0  0  0  0  0  0  0  0  0  0  0  0
   -2.0622    1.1856    0.0158 H   0  0  0  0  0  0  0  0  0  0  0  0
   -1.2008   -0.6933   -0.0000 C   0  0  0  0  0  0  0  0  0  0  0  0
   -2.0751   -1.1899    0.0006 H   0  0  0  0  0  0  0  0  0  0  0  0
    0.0054   -1.3926   -0.0041 C   0  0  0  0  0  0  0  0  0  0  0  0
   -0.0031   -2.3910   -0.0105 H   0  0  0  0  0  0  0  0  0  0  0  0
    1.2008   -0.6970   -0.0000 C   0  0  0  0  0  0  0  0  0  0  0  0
    2.0842   -1.1915   -0.0002 H   0  0  0  0  0  0  0  0  0  0  0  0
    1.1903    0.6908    0.0061 C   0  0  0  0  0  0  0  0  0  0  0  0
    2.0608    1.1903    0.0193 H   0  0  0  0  0  0  0  0  0  0  0  0
  1  5  1  0
  5  8  1  0
  1  2  1  0
  1  3  1  0
  1  4  1  0
  5  6  1  0
  5  7  1  0
  8  9  1  0
  8 10  1  0
  8 11  1  0
 12 16  1  0
 16 17  2  0
 17 19  1  0
 19 21  2  0
 21 23  1  0
 23 25  2  0
 25 16  1  0
 12 13  1  0
 12 14  1  0
 12 15  1  0
 17 18  1  0
 19 20  1  0
 21 22  1  0
 23 24  1  0
 25 26  1  0
M  CHG  1   8   1
M  END
>  <PDB_ID>  (2336) 
pdb3p2l

>  <RESIDUE_NAME>  (2336) 
LYS   PHE

>  <FRAG_NAME>  (2336) 
ETAM   MBZ

>  <FRAG_ATOM_NUM>  (2336) 
fragi: 11  fragj: 15

>  <atom.prop.CHAIN_ID>  (2336) 
A A A A A A A A A A A Z Z Z Z Z Z Z Z Z Z Z Z Z Z Z

>  <atom.prop.IS_HEAVY_ATOM>  (2336) 
1 0 0 0 1 0 0 1 0 0 0 1 0 0 0 1 1 0 1 0 1 0 1 0 1 0

>  <DIFUSE_FUNC_ATOM>  (2336) 
n/a

>  <FINAL_SINGLE_POINT_ENERGY>  (2336) 
0

>  <NONCOV_INTER_ENERGY_QM>  (2336) 
0

>  <FF_Energy>  (2336) 
-1.49

>  <QM_Energy>  (2336) 
-6.78

>  <source>  (2336) 
ETAM_MBZ

>  <Index>  (2336) 
24335

$$$$
ETAM-pdb4mqe-B-LYS-353:MBZ-pdb4mqe-B-PHE-319
     RDKit          3D

 26 25  0  0  0  0  0  0  0  0999 V2000
   -0.8447   -3.6264    2.8752 C   0  0  0  0  0  0  0  0  0  0  0  0
   -1.2278   -2.7281    2.6170 H   0  0  0  0  0  0  0  0  0  0  0  0
   -1.1292   -3.8244    3.8237 H   0  0  0  0  0  0  0  0  0  0  0  0
   -1.2699   -4.3861    2.2194 H   0  0  0  0  0  0  0  0  0  0  0  0
    0.6553   -3.5380    2.8330 C   0  0  0  0  0  0  0  0  0  0  0  0
    1.0486   -4.3744    3.2129 H   0  0  0  0  0  0  0  0  0  0  0  0
    0.9558   -3.4267    1.8868 H   0  0  0  0  0  0  0  0  0  0  0  0
    1.1225   -2.3754    3.6306 N   0  0  0  0  0  4  0  0  0  0  0  0
    0.9874   -1.5350    3.1056 H   0  0  0  0  0  0  0  0  0  0  0  0
    0.6001   -2.3244    4.4820 H   0  0  0  0  0  0  0  0  0  0  0  0
    2.0939   -2.4843    3.8410 H   0  0  0  0  0  0  0  0  0  0  0  0
   -0.0032    2.9243   -0.0026 C   0  0  0  0  0  0  0  0  0  0  0  0
   -0.6522    3.2140   -0.7107 H   0  0  0  0  0  0  0  0  0  0  0  0
    0.9177    3.2250   -0.2619 H   0  0  0  0  0  0  0  0  0  0  0  0
   -0.2689    3.4476    0.9159 H   0  0  0  0  0  0  0  0  0  0  0  0
    0.0012    1.4057    0.0188 C   0  0  0  0  0  0  0  0  0  0  0  0
   -1.1947    0.6858   -0.0168 C   0  0  0  0  0  0  0  0  0  0  0  0
   -2.0625    1.1727   -0.0560 H   0  0  0  0  0  0  0  0  0  0  0  0
   -1.1949   -0.7073   -0.0000 C   0  0  0  0  0  0  0  0  0  0  0  0
   -2.0732   -1.1987    0.0135 H   0  0  0  0  0  0  0  0  0  0  0  0
   -0.0012   -1.3893   -0.0000 C   0  0  0  0  0  0  0  0  0  0  0  0
    0.0032   -2.3926   -0.0010 H   0  0  0  0  0  0  0  0  0  0  0  0
    1.1949   -0.6936    0.0000 C   0  0  0  0  0  0  0  0  0  0  0  0
    2.0791   -1.1908    0.0032 H   0  0  0  0  0  0  0  0  0  0  0  0
    1.1946    0.6987   -0.0019 C   0  0  0  0  0  0  0  0  0  0  0  0
    2.0639    1.1915   -0.0190 H   0  0  0  0  0  0  0  0  0  0  0  0
  1  5  1  0
  5  8  1  0
  1  2  1  0
  1  3  1  0
  1  4  1  0
  5  6  1  0
  5  7  1  0
  8  9  1  0
  8 10  1  0
  8 11  1  0
 12 16  1  0
 16 17  2  0
 17 19  1  0
 19 21  2  0
 21 23  1  0
 23 25  2  0
 25 16  1  0
 12 13  1  0
 12 14  1  0
 12 15  1  0
 17 18  1  0
 19 20  1  0
 21 22  1  0
 23 24  1  0
 25 26  1  0
M  CHG  1   8   1
M  END
>  <PDB_ID>  (2337) 
pdb4mqe

>  <RESIDUE_NAME>  (2337) 
LYS   PHE

>  <FRAG_NAME>  (2337) 
ETAM   MBZ

>  <FRAG_ATOM_NUM>  (2337) 
fragi: 11  fragj: 15

>  <atom.prop.CHAIN_ID>  (2337) 
A A A A A A A A A A A Z Z Z Z Z Z Z Z Z Z Z Z Z Z Z

>  <atom.prop.IS_HEAVY_ATOM>  (2337) 
1 0 0 0 1 0 0 1 0 0 0 1 0 0 0 1 1 0 1 0 1 0 1 0 1 0

>  <DIFUSE_FUNC_ATOM>  (2337) 
n/a

>  <FINAL_SINGLE_POINT_ENERGY>  (2337) 
0

>  <NONCOV_INTER_ENERGY_QM>  (2337) 
0

>  <FF_Energy>  (2337) 
-3.85

>  <QM_Energy>  (2337) 
-8.91

>  <source>  (2337) 
ETAM_MBZ

>  <Index>  (2337) 
24342

$$$$
ETAM-pdb3p3l-A-LYS-208:MBZ-pdb3p3l-A-PHE-223
     RDKit          3D

 26 25  0  0  0  0  0  0  0  0999 V2000
    4.2338   -1.5406   -2.8675 C   0  0  0  0  0  0  0  0  0  0  0  0
    4.5678   -2.0478   -3.6523 H   0  0  0  0  0  0  0  0  0  0  0  0
    4.3612   -2.0593   -2.0319 H   0  0  0  0  0  0  0  0  0  0  0  0
    4.7883   -0.6052   -2.7906 H   0  0  0  0  0  0  0  0  0  0  0  0
    2.7508   -1.2742   -3.0539 C   0  0  0  0  0  0  0  0  0  0  0  0
    2.4225   -0.7111   -2.2916 H   0  0  0  0  0  0  0  0  0  0  0  0
    2.6148   -0.7718   -3.9115 H   0  0  0  0  0  0  0  0  0  0  0  0
    1.9673   -2.5383   -3.0993 N   0  0  0  0  0  4  0  0  0  0  0  0
    2.1699   -3.0835   -2.2869 H   0  0  0  0  0  0  0  0  0  0  0  0
    0.9914   -2.3237   -3.1236 H   0  0  0  0  0  0  0  0  0  0  0  0
    2.2163   -3.0541   -3.9188 H   0  0  0  0  0  0  0  0  0  0  0  0
    0.0083    2.9162   -0.0009 C   0  0  0  0  0  0  0  0  0  0  0  0
   -0.6698    3.2215   -0.6549 H   0  0  0  0  0  0  0  0  0  0  0  0
    0.9155    3.2152   -0.2630 H   0  0  0  0  0  0  0  0  0  0  0  0
   -0.2272    3.3754    0.9592 H   0  0  0  0  0  0  0  0  0  0  0  0
    0.0003    1.4077    0.0082 C   0  0  0  0  0  0  0  0  0  0  0  0
   -1.1969    0.7004   -0.0002 C   0  0  0  0  0  0  0  0  0  0  0  0
   -2.0644    1.1876   -0.0077 H   0  0  0  0  0  0  0  0  0  0  0  0
   -1.2040   -0.6996    0.0000 C   0  0  0  0  0  0  0  0  0  0  0  0
   -2.0814   -1.1890    0.0039 H   0  0  0  0  0  0  0  0  0  0  0  0
   -0.0001   -1.4020   -0.0036 C   0  0  0  0  0  0  0  0  0  0  0  0
   -0.0058   -2.3979   -0.0091 H   0  0  0  0  0  0  0  0  0  0  0  0
    1.2040   -0.7028   -0.0000 C   0  0  0  0  0  0  0  0  0  0  0  0
    2.0848   -1.1964    0.0077 H   0  0  0  0  0  0  0  0  0  0  0  0
    1.1967    0.6963   -0.0044 C   0  0  0  0  0  0  0  0  0  0  0  0
    2.0665    1.1903   -0.0175 H   0  0  0  0  0  0  0  0  0  0  0  0
  1  5  1  0
  5  8  1  0
  1  2  1  0
  1  3  1  0
  1  4  1  0
  5  6  1  0
  5  7  1  0
  8  9  1  0
  8 10  1  0
  8 11  1  0
 12 16  1  0
 16 17  2  0
 17 19  1  0
 19 21  2  0
 21 23  1  0
 23 25  2  0
 25 16  1  0
 12 13  1  0
 12 14  1  0
 12 15  1  0
 17 18  1  0
 19 20  1  0
 21 22  1  0
 23 24  1  0
 25 26  1  0
M  CHG  1   8   1
M  END
>  <PDB_ID>  (2338) 
pdb3p3l

>  <RESIDUE_NAME>  (2338) 
LYS   PHE

>  <FRAG_NAME>  (2338) 
ETAM   MBZ

>  <FRAG_ATOM_NUM>  (2338) 
fragi: 11  fragj: 15

>  <atom.prop.CHAIN_ID>  (2338) 
A A A A A A A A A A A Z Z Z Z Z Z Z Z Z Z Z Z Z Z Z

>  <atom.prop.IS_HEAVY_ATOM>  (2338) 
1 0 0 0 1 0 0 1 0 0 0 1 0 0 0 1 1 0 1 0 1 0 1 0 1 0

>  <DIFUSE_FUNC_ATOM>  (2338) 
n/a

>  <FINAL_SINGLE_POINT_ENERGY>  (2338) 
0

>  <NONCOV_INTER_ENERGY_QM>  (2338) 
0

>  <FF_Energy>  (2338) 
-2.31

>  <QM_Energy>  (2338) 
-7.66

>  <source>  (2338) 
ETAM_MBZ

>  <Index>  (2338) 
24387

$$$$
ETAM-pdb4mzd-A-LYS-341:MBZ-pdb4mzd-A-PHE-286
     RDKit          3D

 26 25  0  0  0  0  0  0  0  0999 V2000
   -3.7009   -1.1989    2.7675 C   0  0  0  0  0  0  0  0  0  0  0  0
   -4.1974   -1.7328    3.4419 H   0  0  0  0  0  0  0  0  0  0  0  0
   -3.6837   -1.6674    1.8925 H   0  0  0  0  0  0  0  0  0  0  0  0
   -4.1969   -0.2361    2.6443 H   0  0  0  0  0  0  0  0  0  0  0  0
   -2.2726   -1.0145    3.2488 C   0  0  0  0  0  0  0  0  0  0  0  0
   -1.7623   -0.4944    2.5619 H   0  0  0  0  0  0  0  0  0  0  0  0
   -2.2824   -0.5007    4.1089 H   0  0  0  0  0  0  0  0  0  0  0  0
   -1.6024   -2.3236    3.4692 N   0  0  0  0  0  4  0  0  0  0  0  0
   -2.1572   -2.8807    4.0863 H   0  0  0  0  0  0  0  0  0  0  0  0
   -1.4993   -2.7952    2.5938 H   0  0  0  0  0  0  0  0  0  0  0  0
   -0.7013   -2.1717    3.8755 H   0  0  0  0  0  0  0  0  0  0  0  0
    0.0022    2.8961   -0.0169 C   0  0  0  0  0  0  0  0  0  0  0  0
   -0.7425    3.1989   -0.5957 H   0  0  0  0  0  0  0  0  0  0  0  0
    0.8761    3.1990   -0.3719 H   0  0  0  0  0  0  0  0  0  0  0  0
   -0.1336    3.3521    0.9637 H   0  0  0  0  0  0  0  0  0  0  0  0
   -0.0001    1.3983    0.0011 C   0  0  0  0  0  0  0  0  0  0  0  0
   -1.1941    0.6889   -0.0019 C   0  0  0  0  0  0  0  0  0  0  0  0
   -2.0621    1.1802   -0.0072 H   0  0  0  0  0  0  0  0  0  0  0  0
   -1.1978   -0.6970    0.0000 C   0  0  0  0  0  0  0  0  0  0  0  0
   -2.0751   -1.1926    0.0008 H   0  0  0  0  0  0  0  0  0  0  0  0
   -0.0000   -1.3891    0.0023 C   0  0  0  0  0  0  0  0  0  0  0  0
   -0.0017   -2.3893    0.0051 H   0  0  0  0  0  0  0  0  0  0  0  0
    1.1978   -0.6930   -0.0000 C   0  0  0  0  0  0  0  0  0  0  0  0
    2.0803   -1.1925    0.0012 H   0  0  0  0  0  0  0  0  0  0  0  0
    1.1942    0.6919   -0.0014 C   0  0  0  0  0  0  0  0  0  0  0  0
    2.0624    1.1903   -0.0053 H   0  0  0  0  0  0  0  0  0  0  0  0
  1  5  1  0
  5  8  1  0
  1  2  1  0
  1  3  1  0
  1  4  1  0
  5  6  1  0
  5  7  1  0
  8  9  1  0
  8 10  1  0
  8 11  1  0
 12 16  1  0
 16 17  2  0
 17 19  1  0
 19 21  2  0
 21 23  1  0
 23 25  2  0
 25 16  1  0
 12 13  1  0
 12 14  1  0
 12 15  1  0
 17 18  1  0
 19 20  1  0
 21 22  1  0
 23 24  1  0
 25 26  1  0
M  CHG  1   8   1
M  END
>  <PDB_ID>  (2339) 
pdb4mzd

>  <RESIDUE_NAME>  (2339) 
LYS   PHE

>  <FRAG_NAME>  (2339) 
ETAM   MBZ

>  <FRAG_ATOM_NUM>  (2339) 
fragi: 11  fragj: 15

>  <atom.prop.CHAIN_ID>  (2339) 
A A A A A A A A A A A Z Z Z Z Z Z Z Z Z Z Z Z Z Z Z

>  <atom.prop.IS_HEAVY_ATOM>  (2339) 
1 0 0 0 1 0 0 1 0 0 0 1 0 0 0 1 1 0 1 0 1 0 1 0 1 0

>  <DIFUSE_FUNC_ATOM>  (2339) 
n/a

>  <FINAL_SINGLE_POINT_ENERGY>  (2339) 
0

>  <NONCOV_INTER_ENERGY_QM>  (2339) 
0

>  <FF_Energy>  (2339) 
-3.19

>  <QM_Energy>  (2339) 
-8.39

>  <source>  (2339) 
ETAM_MBZ

>  <Index>  (2339) 
24388

$$$$
ETAM-pdb3p2l-D-LYS-29:MBZ-pdb3p2l-D-PHE-21
     RDKit          3D

 26 25  0  0  0  0  0  0  0  0999 V2000
    0.6670   -2.6408   -3.4199 C   0  0  0  0  0  0  0  0  0  0  0  0
    1.4990   -3.1634   -3.5925 H   0  0  0  0  0  0  0  0  0  0  0  0
    0.8387   -1.9486   -2.7226 H   0  0  0  0  0  0  0  0  0  0  0  0
    0.3751   -2.1396   -4.3428 H   0  0  0  0  0  0  0  0  0  0  0  0
   -0.4078   -3.5886   -2.9103 C   0  0  0  0  0  0  0  0  0  0  0  0
   -1.1600   -3.0571   -2.5234 H   0  0  0  0  0  0  0  0  0  0  0  0
   -0.7464   -4.1428   -3.6696 H   0  0  0  0  0  0  0  0  0  0  0  0
    0.1334   -4.5074   -1.8444 N   0  0  0  0  0  4  0  0  0  0  0  0
   -0.6228   -4.8247   -1.2781 H   0  0  0  0  0  0  0  0  0  0  0  0
    0.5802   -5.2819   -2.2840 H   0  0  0  0  0  0  0  0  0  0  0  0
    0.7898   -4.0045   -1.2886 H   0  0  0  0  0  0  0  0  0  0  0  0
    0.0241    2.8832   -0.0210 C   0  0  0  0  0  0  0  0  0  0  0  0
   -0.4370    3.1884   -0.8473 H   0  0  0  0  0  0  0  0  0  0  0  0
    0.9727    3.1802   -0.0224 H   0  0  0  0  0  0  0  0  0  0  0  0
   -0.4642    3.3771    0.8191 H   0  0  0  0  0  0  0  0  0  0  0  0
   -0.0039    1.3899    0.0124 C   0  0  0  0  0  0  0  0  0  0  0  0
   -1.1945    0.7042   -0.0092 C   0  0  0  0  0  0  0  0  0  0  0  0
   -2.0594    1.1972   -0.0326 H   0  0  0  0  0  0  0  0  0  0  0  0
   -1.1995   -0.6757   -0.0000 C   0  0  0  0  0  0  0  0  0  0  0  0
   -2.0739   -1.1773    0.0046 H   0  0  0  0  0  0  0  0  0  0  0  0
    0.0084   -1.3835    0.0047 C   0  0  0  0  0  0  0  0  0  0  0  0
   -0.0160   -2.3840    0.0113 H   0  0  0  0  0  0  0  0  0  0  0  0
    1.1995   -0.7058   -0.0000 C   0  0  0  0  0  0  0  0  0  0  0  0
    2.0814   -1.2044    0.0037 H   0  0  0  0  0  0  0  0  0  0  0  0
    1.1900    0.6710   -0.0079 C   0  0  0  0  0  0  0  0  0  0  0  0
    2.0607    1.1756   -0.0294 H   0  0  0  0  0  0  0  0  0  0  0  0
  1  5  1  0
  5  8  1  0
  1  2  1  0
  1  3  1  0
  1  4  1  0
  5  6  1  0
  5  7  1  0
  8  9  1  0
  8 10  1  0
  8 11  1  0
 12 16  1  0
 16 17  2  0
 17 19  1  0
 19 21  2  0
 21 23  1  0
 23 25  2  0
 25 16  1  0
 12 13  1  0
 12 14  1  0
 12 15  1  0
 17 18  1  0
 19 20  1  0
 21 22  1  0
 23 24  1  0
 25 26  1  0
M  CHG  1   8   1
M  END
>  <PDB_ID>  (2340) 
pdb3p2l

>  <RESIDUE_NAME>  (2340) 
LYS   PHE

>  <FRAG_NAME>  (2340) 
ETAM   MBZ

>  <FRAG_ATOM_NUM>  (2340) 
fragi: 11  fragj: 15

>  <atom.prop.CHAIN_ID>  (2340) 
A A A A A A A A A A A Z Z Z Z Z Z Z Z Z Z Z Z Z Z Z

>  <atom.prop.IS_HEAVY_ATOM>  (2340) 
1 0 0 0 1 0 0 1 0 0 0 1 0 0 0 1 1 0 1 0 1 0 1 0 1 0

>  <DIFUSE_FUNC_ATOM>  (2340) 
n/a

>  <FINAL_SINGLE_POINT_ENERGY>  (2340) 
0

>  <NONCOV_INTER_ENERGY_QM>  (2340) 
0

>  <FF_Energy>  (2340) 
-0.67

>  <QM_Energy>  (2340) 
-6.05

>  <source>  (2340) 
ETAM_MBZ

>  <Index>  (2340) 
24427

$$$$
ETAM-pdb3p42-B-LYS-119:MBZ-pdb3p42-B-PHE-124
     RDKit          3D

 26 25  0  0  0  0  0  0  0  0999 V2000
   -0.9829    0.8318   -4.0568 C   0  0  0  0  0  0  0  0  0  0  0  0
   -1.2570    1.3039   -4.8583 H   0  0  0  0  0  0  0  0  0  0  0  0
   -1.0272   -0.1274   -4.1944 H   0  0  0  0  0  0  0  0  0  0  0  0
    0.0365    1.1159   -3.7960 H   0  0  0  0  0  0  0  0  0  0  0  0
   -1.9363    1.2037   -2.9252 C   0  0  0  0  0  0  0  0  0  0  0  0
   -1.8491    0.5468   -2.2167 H   0  0  0  0  0  0  0  0  0  0  0  0
   -1.6933    2.0807   -2.5892 H   0  0  0  0  0  0  0  0  0  0  0  0
   -3.3672    1.2541   -3.3206 N   0  0  0  0  0  4  0  0  0  0  0  0
   -3.4836    1.8592   -3.9631 H   0  0  0  0  0  0  0  0  0  0  0  0
   -3.6268    0.4578   -3.6226 H   0  0  0  0  0  0  0  0  0  0  0  0
   -3.8685    1.4753   -2.6202 H   0  0  0  0  0  0  0  0  0  0  0  0
   -0.0053    2.8942   -0.0056 C   0  0  0  0  0  0  0  0  0  0  0  0
   -0.6332    3.1845   -0.6860 H   0  0  0  0  0  0  0  0  0  0  0  0
    0.8882    3.1915   -0.2372 H   0  0  0  0  0  0  0  0  0  0  0  0
   -0.2882    3.3432    0.9465 H   0  0  0  0  0  0  0  0  0  0  0  0
   -0.0007    1.3971    0.0012 C   0  0  0  0  0  0  0  0  0  0  0  0
   -1.1935    0.6926   -0.0019 C   0  0  0  0  0  0  0  0  0  0  0  0
   -1.9995    1.1566   -0.0023 H   0  0  0  0  0  0  0  0  0  0  0  0
   -1.1989   -0.6943    0.0000 C   0  0  0  0  0  0  0  0  0  0  0  0
   -2.0059   -1.1564    0.0007 H   0  0  0  0  0  0  0  0  0  0  0  0
   -0.0017   -1.3895    0.0011 C   0  0  0  0  0  0  0  0  0  0  0  0
   -0.0025   -2.3198    0.0025 H   0  0  0  0  0  0  0  0  0  0  0  0
    1.1989   -0.6964   -0.0000 C   0  0  0  0  0  0  0  0  0  0  0  0
    2.0050   -1.1604    0.0004 H   0  0  0  0  0  0  0  0  0  0  0  0
    1.1959    0.6905   -0.0004 C   0  0  0  0  0  0  0  0  0  0  0  0
    2.0029    1.1527   -0.0011 H   0  0  0  0  0  0  0  0  0  0  0  0
  1  5  1  0
  5  8  1  0
  1  2  1  0
  1  3  1  0
  1  4  1  0
  5  6  1  0
  5  7  1  0
  8  9  1  0
  8 10  1  0
  8 11  1  0
 12 16  1  0
 16 17  2  0
 17 19  1  0
 19 21  2  0
 21 23  1  0
 23 25  2  0
 25 16  1  0
 12 13  1  0
 12 14  1  0
 12 15  1  0
 17 18  1  0
 19 20  1  0
 21 22  1  0
 23 24  1  0
 25 26  1  0
M  CHG  1   8   1
M  END
>  <PDB_ID>  (2341) 
pdb3p42

>  <RESIDUE_NAME>  (2341) 
LYS   PHE

>  <FRAG_NAME>  (2341) 
ETAM   MBZ

>  <FRAG_ATOM_NUM>  (2341) 
fragi: 11  fragj: 15

>  <atom.prop.CHAIN_ID>  (2341) 
A A A A A A A A A A A Z Z Z Z Z Z Z Z Z Z Z Z Z Z Z

>  <atom.prop.IS_HEAVY_ATOM>  (2341) 
1 0 0 0 1 0 0 1 0 0 0 1 0 0 0 1 1 0 1 0 1 0 1 0 1 0

>  <DIFUSE_FUNC_ATOM>  (2341) 
n/a

>  <FINAL_SINGLE_POINT_ENERGY>  (2341) 
0

>  <NONCOV_INTER_ENERGY_QM>  (2341) 
0

>  <FF_Energy>  (2341) 
0.82

>  <QM_Energy>  (2341) 
-4.69

>  <source>  (2341) 
ETAM_MBZ

>  <Index>  (2341) 
24432

$$$$
ETAM-pdb3p7l-A-LYS-206:MBZ-pdb3p7l-A-PHE-215
     RDKit          3D

 26 25  0  0  0  0  0  0  0  0999 V2000
    0.1780   -1.2143   -4.6408 C   0  0  0  0  0  0  0  0  0  0  0  0
    0.0248   -1.9605   -5.2787 H   0  0  0  0  0  0  0  0  0  0  0  0
    0.2246   -0.3469   -5.1239 H   0  0  0  0  0  0  0  0  0  0  0  0
   -0.6414   -1.1823   -3.9227 H   0  0  0  0  0  0  0  0  0  0  0  0
    1.5333   -1.4484   -3.9471 C   0  0  0  0  0  0  0  0  0  0  0  0
    1.4076   -2.1393   -3.2237 H   0  0  0  0  0  0  0  0  0  0  0  0
    2.1812   -1.8178   -4.6255 H   0  0  0  0  0  0  0  0  0  0  0  0
    2.1245   -0.2060   -3.3365 N   0  0  0  0  0  4  0  0  0  0  0  0
    3.1070   -0.2002   -3.5025 H   0  0  0  0  0  0  0  0  0  0  0  0
    1.7024    0.5928   -3.7574 H   0  0  0  0  0  0  0  0  0  0  0  0
    1.9445   -0.2110   -2.3564 H   0  0  0  0  0  0  0  0  0  0  0  0
    0.0073    2.9067    0.0030 C   0  0  0  0  0  0  0  0  0  0  0  0
    0.5846    3.2084    0.7471 H   0  0  0  0  0  0  0  0  0  0  0  0
   -0.9240    3.2170    0.1221 H   0  0  0  0  0  0  0  0  0  0  0  0
    0.3909    3.3485   -0.9166 H   0  0  0  0  0  0  0  0  0  0  0  0
    0.0001    1.4036   -0.0011 C   0  0  0  0  0  0  0  0  0  0  0  0
   -1.1938    0.6999    0.0024 C   0  0  0  0  0  0  0  0  0  0  0  0
   -2.0610    1.1865    0.0060 H   0  0  0  0  0  0  0  0  0  0  0  0
   -1.1947   -0.6933    0.0000 C   0  0  0  0  0  0  0  0  0  0  0  0
   -2.0743   -1.1866    0.0005 H   0  0  0  0  0  0  0  0  0  0  0  0
    0.0029   -1.3926   -0.0018 C   0  0  0  0  0  0  0  0  0  0  0  0
   -0.0098   -2.3936   -0.0052 H   0  0  0  0  0  0  0  0  0  0  0  0
    1.1947   -0.7073   -0.0000 C   0  0  0  0  0  0  0  0  0  0  0  0
    2.0793   -1.1984    0.0031 H   0  0  0  0  0  0  0  0  0  0  0  0
    1.1907    0.6896    0.0006 C   0  0  0  0  0  0  0  0  0  0  0  0
    2.0642    1.1811    0.0014 H   0  0  0  0  0  0  0  0  0  0  0  0
  1  5  1  0
  5  8  1  0
  1  2  1  0
  1  3  1  0
  1  4  1  0
  5  6  1  0
  5  7  1  0
  8  9  1  0
  8 10  1  0
  8 11  1  0
 12 16  1  0
 16 17  2  0
 17 19  1  0
 19 21  2  0
 21 23  1  0
 23 25  2  0
 25 16  1  0
 12 13  1  0
 12 14  1  0
 12 15  1  0
 17 18  1  0
 19 20  1  0
 21 22  1  0
 23 24  1  0
 25 26  1  0
M  CHG  1   8   1
M  END
>  <PDB_ID>  (2342) 
pdb3p7l

>  <RESIDUE_NAME>  (2342) 
LYS   PHE

>  <FRAG_NAME>  (2342) 
ETAM   MBZ

>  <FRAG_ATOM_NUM>  (2342) 
fragi: 11  fragj: 15

>  <atom.prop.CHAIN_ID>  (2342) 
A A A A A A A A A A A Z Z Z Z Z Z Z Z Z Z Z Z Z Z Z

>  <atom.prop.IS_HEAVY_ATOM>  (2342) 
1 0 0 0 1 0 0 1 0 0 0 1 0 0 0 1 1 0 1 0 1 0 1 0 1 0

>  <DIFUSE_FUNC_ATOM>  (2342) 
n/a

>  <FINAL_SINGLE_POINT_ENERGY>  (2342) 
0

>  <NONCOV_INTER_ENERGY_QM>  (2342) 
0

>  <FF_Energy>  (2342) 
-5.49

>  <QM_Energy>  (2342) 
-12.3

>  <source>  (2342) 
ETAM_MBZ

>  <Index>  (2342) 
24436

$$$$
ETAM-pdb4n1v-A-LYS-36:MBZ-pdb4n1v-A-PHE-29
     RDKit          3D

 26 25  0  0  0  0  0  0  0  0999 V2000
    2.9296   -2.6490   -5.7510 C   0  0  0  0  0  0  0  0  0  0  0  0
    2.8387   -3.6393   -5.5420 H   0  0  0  0  0  0  0  0  0  0  0  0
    3.9145   -2.4154   -5.6575 H   0  0  0  0  0  0  0  0  0  0  0  0
    2.6428   -2.4961   -6.7914 H   0  0  0  0  0  0  0  0  0  0  0  0
    2.1535   -1.8594   -4.6247 C   0  0  0  0  0  0  0  0  0  0  0  0
    2.6352   -0.9221   -4.5247 H   0  0  0  0  0  0  0  0  0  0  0  0
    1.2267   -1.5642   -5.0440 H   0  0  0  0  0  0  0  0  0  0  0  0
    1.8586   -2.3665   -3.1974 N   0  0  0  0  0  4  0  0  0  0  0  0
    1.4367   -1.6254   -2.6929 H   0  0  0  0  0  0  0  0  0  0  0  0
    1.2448   -3.1414   -3.2703 H   0  0  0  0  0  0  0  0  0  0  0  0
    2.7192   -2.6325   -2.7850 H   0  0  0  0  0  0  0  0  0  0  0  0
   -0.0215    2.8936    0.0159 C   0  0  0  0  0  0  0  0  0  0  0  0
    0.7941    3.1985    0.4421 H   0  0  0  0  0  0  0  0  0  0  0  0
   -0.7900    3.1870    0.5290 H   0  0  0  0  0  0  0  0  0  0  0  0
   -0.0807    3.3271   -0.9824 H   0  0  0  0  0  0  0  0  0  0  0  0
   -0.0150    1.3997    0.0179 C   0  0  0  0  0  0  0  0  0  0  0  0
   -1.1846    0.6608    0.0007 C   0  0  0  0  0  0  0  0  0  0  0  0
   -2.0027    1.1017    0.0071 H   0  0  0  0  0  0  0  0  0  0  0  0
   -1.1575   -0.7141   -0.0000 C   0  0  0  0  0  0  0  0  0  0  0  0
   -1.9553   -1.1904   -0.0068 H   0  0  0  0  0  0  0  0  0  0  0  0
    0.0367   -1.3888   -0.0170 C   0  0  0  0  0  0  0  0  0  0  0  0
    0.0643   -2.3161   -0.0157 H   0  0  0  0  0  0  0  0  0  0  0  0
    1.1575   -0.6784    0.0000 C   0  0  0  0  0  0  0  0  0  0  0  0
    1.9715   -1.1287   -0.0087 H   0  0  0  0  0  0  0  0  0  0  0  0
    1.1629    0.7209   -0.0015 C   0  0  0  0  0  0  0  0  0  0  0  0
    1.9690    1.1837    0.0063 H   0  0  0  0  0  0  0  0  0  0  0  0
  1  5  1  0
  5  8  1  0
  1  2  1  0
  1  3  1  0
  1  4  1  0
  5  6  1  0
  5  7  1  0
  8  9  1  0
  8 10  1  0
  8 11  1  0
 12 16  1  0
 16 17  2  0
 17 19  1  0
 19 21  2  0
 21 23  1  0
 23 25  2  0
 25 16  1  0
 12 13  1  0
 12 14  1  0
 12 15  1  0
 17 18  1  0
 19 20  1  0
 21 22  1  0
 23 24  1  0
 25 26  1  0
M  CHG  1   8   1
M  END
>  <PDB_ID>  (2343) 
pdb4n1v

>  <RESIDUE_NAME>  (2343) 
LYS   PHE

>  <FRAG_NAME>  (2343) 
ETAM   MBZ

>  <FRAG_ATOM_NUM>  (2343) 
fragi: 11  fragj: 15

>  <atom.prop.CHAIN_ID>  (2343) 
A A A A A A A A A A A Z Z Z Z Z Z Z Z Z Z Z Z Z Z Z

>  <atom.prop.IS_HEAVY_ATOM>  (2343) 
1 0 0 0 1 0 0 1 0 0 0 1 0 0 0 1 1 0 1 0 1 0 1 0 1 0

>  <DIFUSE_FUNC_ATOM>  (2343) 
n/a

>  <FINAL_SINGLE_POINT_ENERGY>  (2343) 
0

>  <NONCOV_INTER_ENERGY_QM>  (2343) 
0

>  <FF_Energy>  (2343) 
-2.64

>  <QM_Energy>  (2343) 
-8.0

>  <source>  (2343) 
ETAM_MBZ

>  <Index>  (2343) 
24440

$$$$
ETAM-pdb4n21-E-ASN-230:MBZ-pdb4n21-E-PHE-233
     RDKit          3D

 26 25  0  0  0  0  0  0  0  0999 V2000
    5.6630    1.9229    0.5613 C   0  0  0  0  0  0  0  0  0  0  0  0
    5.8593    0.9461    0.5489 H   0  0  0  0  0  0  0  0  0  0  0  0
    6.3825    2.4221    0.0844 H   0  0  0  0  0  0  0  0  0  0  0  0
    5.6361    2.2580    1.5981 H   0  0  0  0  0  0  0  0  0  0  0  0
    4.3418    2.1601   -0.1747 C   0  0  0  0  0  0  0  0  0  0  0  0
    3.5691    2.0309    0.4512 H   0  0  0  0  0  0  0  0  0  0  0  0
    4.2836    3.1777   -0.5611 H   0  0  0  0  0  0  0  0  0  0  0  0
    4.1683    1.1636   -1.2708 N   0  0  0  0  0  4  0  0  0  0  0  0
    3.8602    0.2997   -0.8807 H   0  0  0  0  0  0  0  0  0  0  0  0
    3.4892    1.5036   -1.9167 H   0  0  0  0  0  0  0  0  0  0  0  0
    5.0413    1.0333   -1.7349 H   0  0  0  0  0  0  0  0  0  0  0  0
    0.0064    2.9123    0.0033 C   0  0  0  0  0  0  0  0  0  0  0  0
    0.9064    3.2123    0.2833 H   0  0  0  0  0  0  0  0  0  0  0  0
   -0.6869    3.2162    0.6403 H   0  0  0  0  0  0  0  0  0  0  0  0
   -0.2093    3.3660   -0.9641 H   0  0  0  0  0  0  0  0  0  0  0  0
    0.0013    1.4033   -0.0048 C   0  0  0  0  0  0  0  0  0  0  0  0
   -1.1969    0.6932    0.0039 C   0  0  0  0  0  0  0  0  0  0  0  0
   -2.0632    1.1849    0.0120 H   0  0  0  0  0  0  0  0  0  0  0  0
   -1.2009   -0.6953    0.0000 C   0  0  0  0  0  0  0  0  0  0  0  0
   -2.0783   -1.1897   -0.0031 H   0  0  0  0  0  0  0  0  0  0  0  0
   -0.0006   -1.3926    0.0015 C   0  0  0  0  0  0  0  0  0  0  0  0
   -0.0063   -2.3919    0.0031 H   0  0  0  0  0  0  0  0  0  0  0  0
    1.2009   -0.6994    0.0000 C   0  0  0  0  0  0  0  0  0  0  0  0
    2.0814   -1.1976    0.0004 H   0  0  0  0  0  0  0  0  0  0  0  0
    1.1962    0.6908   -0.0005 C   0  0  0  0  0  0  0  0  0  0  0  0
    2.0659    1.1863    0.0014 H   0  0  0  0  0  0  0  0  0  0  0  0
  1  5  1  0
  5  8  1  0
  1  2  1  0
  1  3  1  0
  1  4  1  0
  5  6  1  0
  5  7  1  0
  8  9  1  0
  8 10  1  0
  8 11  1  0
 12 16  1  0
 16 17  2  0
 17 19  1  0
 19 21  2  0
 21 23  1  0
 23 25  2  0
 25 16  1  0
 12 13  1  0
 12 14  1  0
 12 15  1  0
 17 18  1  0
 19 20  1  0
 21 22  1  0
 23 24  1  0
 25 26  1  0
M  CHG  1   8   1
M  END
>  <PDB_ID>  (2344) 
pdb4n21

>  <RESIDUE_NAME>  (2344) 
ASN   PHE

>  <FRAG_NAME>  (2344) 
ETAM   MBZ

>  <FRAG_ATOM_NUM>  (2344) 
fragi: 11  fragj: 15

>  <atom.prop.CHAIN_ID>  (2344) 
A A A A A A A A A A A Z Z Z Z Z Z Z Z Z Z Z Z Z Z Z

>  <atom.prop.IS_HEAVY_ATOM>  (2344) 
1 0 0 0 1 0 0 1 0 0 0 1 0 0 0 1 1 0 1 0 1 0 1 0 1 0

>  <DIFUSE_FUNC_ATOM>  (2344) 
n/a

>  <FINAL_SINGLE_POINT_ENERGY>  (2344) 
0

>  <NONCOV_INTER_ENERGY_QM>  (2344) 
0

>  <FF_Energy>  (2344) 
6.54

>  <QM_Energy>  (2344) 
-2.88

>  <source>  (2344) 
ETAM_MBZ

>  <Index>  (2344) 
24445

$$$$
ETAM-pdb3p3l-B-LYS-208:MBZ-pdb3p3l-B-PHE-223
     RDKit          3D

 26 25  0  0  0  0  0  0  0  0999 V2000
    3.7359   -1.4477   -3.3497 C   0  0  0  0  0  0  0  0  0  0  0  0
    3.9790   -1.9994   -4.1403 H   0  0  0  0  0  0  0  0  0  0  0  0
    3.8839   -1.9586   -2.5099 H   0  0  0  0  0  0  0  0  0  0  0  0
    4.3620   -0.5554   -3.3356 H   0  0  0  0  0  0  0  0  0  0  0  0
    2.2642   -1.0854   -3.4453 C   0  0  0  0  0  0  0  0  0  0  0  0
    2.0171   -0.5179   -2.6590 H   0  0  0  0  0  0  0  0  0  0  0  0
    2.1102   -0.5674   -4.2878 H   0  0  0  0  0  0  0  0  0  0  0  0
    1.4130   -2.3045   -3.4575 N   0  0  0  0  0  4  0  0  0  0  0  0
    1.4621   -2.7533   -2.5648 H   0  0  0  0  0  0  0  0  0  0  0  0
    0.4664   -2.0467   -3.6505 H   0  0  0  0  0  0  0  0  0  0  0  0
    1.7397   -2.9310   -4.1647 H   0  0  0  0  0  0  0  0  0  0  0  0
   -0.0002    2.9102    0.0086 C   0  0  0  0  0  0  0  0  0  0  0  0
   -0.7636    3.2161   -0.5421 H   0  0  0  0  0  0  0  0  0  0  0  0
    0.8606    3.2163   -0.3706 H   0  0  0  0  0  0  0  0  0  0  0  0
   -0.1047    3.3530    0.9992 H   0  0  0  0  0  0  0  0  0  0  0  0
   -0.0000    1.4047    0.0053 C   0  0  0  0  0  0  0  0  0  0  0  0
   -1.1982    0.6972    0.0013 C   0  0  0  0  0  0  0  0  0  0  0  0
   -2.0641    1.1883   -0.0021 H   0  0  0  0  0  0  0  0  0  0  0  0
   -1.2065   -0.6961    0.0000 C   0  0  0  0  0  0  0  0  0  0  0  0
   -2.0814   -1.1885    0.0047 H   0  0  0  0  0  0  0  0  0  0  0  0
    0.0000   -1.4000   -0.0056 C   0  0  0  0  0  0  0  0  0  0  0  0
   -0.0078   -2.3960   -0.0136 H   0  0  0  0  0  0  0  0  0  0  0  0
    1.2065   -0.7031   -0.0000 C   0  0  0  0  0  0  0  0  0  0  0  0
    2.0855   -1.1960    0.0056 H   0  0  0  0  0  0  0  0  0  0  0  0
    1.1982    0.6973   -0.0010 C   0  0  0  0  0  0  0  0  0  0  0  0
    2.0666    1.1910   -0.0069 H   0  0  0  0  0  0  0  0  0  0  0  0
  1  5  1  0
  5  8  1  0
  1  2  1  0
  1  3  1  0
  1  4  1  0
  5  6  1  0
  5  7  1  0
  8  9  1  0
  8 10  1  0
  8 11  1  0
 12 16  1  0
 16 17  2  0
 17 19  1  0
 19 21  2  0
 21 23  1  0
 23 25  2  0
 25 16  1  0
 12 13  1  0
 12 14  1  0
 12 15  1  0
 17 18  1  0
 19 20  1  0
 21 22  1  0
 23 24  1  0
 25 26  1  0
M  CHG  1   8   1
M  END
>  <PDB_ID>  (2345) 
pdb3p3l

>  <RESIDUE_NAME>  (2345) 
LYS   PHE

>  <FRAG_NAME>  (2345) 
ETAM   MBZ

>  <FRAG_ATOM_NUM>  (2345) 
fragi: 11  fragj: 15

>  <atom.prop.CHAIN_ID>  (2345) 
A A A A A A A A A A A Z Z Z Z Z Z Z Z Z Z Z Z Z Z Z

>  <atom.prop.IS_HEAVY_ATOM>  (2345) 
1 0 0 0 1 0 0 1 0 0 0 1 0 0 0 1 1 0 1 0 1 0 1 0 1 0

>  <DIFUSE_FUNC_ATOM>  (2345) 
n/a

>  <FINAL_SINGLE_POINT_ENERGY>  (2345) 
0

>  <NONCOV_INTER_ENERGY_QM>  (2345) 
0

>  <FF_Energy>  (2345) 
-3.61

>  <QM_Energy>  (2345) 
-8.74

>  <source>  (2345) 
ETAM_MBZ

>  <Index>  (2345) 
24463

$$$$
ETAM-pdb4n4g-A-LYS-297:MBZ-pdb4n4g-A-PHE-273
     RDKit          3D

 26 25  0  0  0  0  0  0  0  0999 V2000
   -0.4137   -2.2304    3.3755 C   0  0  0  0  0  0  0  0  0  0  0  0
   -0.9880   -2.2824    2.5703 H   0  0  0  0  0  0  0  0  0  0  0  0
   -0.9329   -2.4217    4.1969 H   0  0  0  0  0  0  0  0  0  0  0  0
    0.3849   -2.9667    3.2849 H   0  0  0  0  0  0  0  0  0  0  0  0
    0.1598   -0.8231    3.4768 C   0  0  0  0  0  0  0  0  0  0  0  0
    0.7975   -0.7858    4.2500 H   0  0  0  0  0  0  0  0  0  0  0  0
    0.6604   -0.6136    2.6330 H   0  0  0  0  0  0  0  0  0  0  0  0
   -0.9087    0.2039    3.6773 N   0  0  0  0  0  4  0  0  0  0  0  0
   -1.5775    0.1294    2.9394 H   0  0  0  0  0  0  0  0  0  0  0  0
   -1.3562    0.0448    4.5557 H   0  0  0  0  0  0  0  0  0  0  0  0
   -0.4959    1.1126    3.6681 H   0  0  0  0  0  0  0  0  0  0  0  0
    0.0059    2.8985   -0.0076 C   0  0  0  0  0  0  0  0  0  0  0  0
   -0.4875    3.1978   -0.8128 H   0  0  0  0  0  0  0  0  0  0  0  0
    0.9481    3.2036   -0.0348 H   0  0  0  0  0  0  0  0  0  0  0  0
   -0.4660    3.3590    0.8604 H   0  0  0  0  0  0  0  0  0  0  0  0
    0.0032    1.3941    0.0081 C   0  0  0  0  0  0  0  0  0  0  0  0
   -1.1920    0.6862   -0.0038 C   0  0  0  0  0  0  0  0  0  0  0  0
   -2.0578    1.1809   -0.0165 H   0  0  0  0  0  0  0  0  0  0  0  0
   -1.1961   -0.6933   -0.0000 C   0  0  0  0  0  0  0  0  0  0  0  0
   -2.0759   -1.1890    0.0070 H   0  0  0  0  0  0  0  0  0  0  0  0
   -0.0043   -1.3847   -0.0034 C   0  0  0  0  0  0  0  0  0  0  0  0
   -0.0063   -2.3874   -0.0084 H   0  0  0  0  0  0  0  0  0  0  0  0
    1.1961   -0.6939    0.0000 C   0  0  0  0  0  0  0  0  0  0  0  0
    2.0763   -1.1942    0.0043 H   0  0  0  0  0  0  0  0  0  0  0  0
    1.1931    0.6916   -0.0009 C   0  0  0  0  0  0  0  0  0  0  0  0
    2.0634    1.1868   -0.0088 H   0  0  0  0  0  0  0  0  0  0  0  0
  1  5  1  0
  5  8  1  0
  1  2  1  0
  1  3  1  0
  1  4  1  0
  5  6  1  0
  5  7  1  0
  8  9  1  0
  8 10  1  0
  8 11  1  0
 12 16  1  0
 16 17  2  0
 17 19  1  0
 19 21  2  0
 21 23  1  0
 23 25  2  0
 25 16  1  0
 12 13  1  0
 12 14  1  0
 12 15  1  0
 17 18  1  0
 19 20  1  0
 21 22  1  0
 23 24  1  0
 25 26  1  0
M  CHG  1   8   1
M  END
>  <PDB_ID>  (2346) 
pdb4n4g

>  <RESIDUE_NAME>  (2346) 
LYS   PHE

>  <FRAG_NAME>  (2346) 
ETAM   MBZ

>  <FRAG_ATOM_NUM>  (2346) 
fragi: 11  fragj: 15

>  <atom.prop.CHAIN_ID>  (2346) 
A A A A A A A A A A A Z Z Z Z Z Z Z Z Z Z Z Z Z Z Z

>  <atom.prop.IS_HEAVY_ATOM>  (2346) 
1 0 0 0 1 0 0 1 0 0 0 1 0 0 0 1 1 0 1 0 1 0 1 0 1 0

>  <DIFUSE_FUNC_ATOM>  (2346) 
n/a

>  <FINAL_SINGLE_POINT_ENERGY>  (2346) 
0

>  <NONCOV_INTER_ENERGY_QM>  (2346) 
0

>  <FF_Energy>  (2346) 
-6.92

>  <QM_Energy>  (2346) 
-12.86

>  <source>  (2346) 
ETAM_MBZ

>  <Index>  (2346) 
24465

$$$$
ETAM-pdb4n4p-D-LYS-63:MBZ-pdb4n4p-D-PHE-59
     RDKit          3D

 26 25  0  0  0  0  0  0  0  0999 V2000
    0.2266   -1.6011    4.0231 C   0  0  0  0  0  0  0  0  0  0  0  0
    0.4869   -2.2246    4.7522 H   0  0  0  0  0  0  0  0  0  0  0  0
    0.1222   -2.0922    3.1657 H   0  0  0  0  0  0  0  0  0  0  0  0
   -0.7268   -1.1402    4.2813 H   0  0  0  0  0  0  0  0  0  0  0  0
    1.3169   -0.5588    3.8594 C   0  0  0  0  0  0  0  0  0  0  0  0
    1.0206    0.1309    3.2024 H   0  0  0  0  0  0  0  0  0  0  0  0
    1.5013   -0.1303    4.7407 H   0  0  0  0  0  0  0  0  0  0  0  0
    2.5915   -1.1914    3.3533 N   0  0  0  0  0  4  0  0  0  0  0  0
    2.4874   -1.3894    2.3832 H   0  0  0  0  0  0  0  0  0  0  0  0
    3.3441   -0.5545    3.4953 H   0  0  0  0  0  0  0  0  0  0  0  0
    2.7543   -2.0334    3.8600 H   0  0  0  0  0  0  0  0  0  0  0  0
    0.0445    2.9099   -0.0360 C   0  0  0  0  0  0  0  0  0  0  0  0
   -0.2843    3.2025   -0.9254 H   0  0  0  0  0  0  0  0  0  0  0  0
    0.9835    3.2005    0.1040 H   0  0  0  0  0  0  0  0  0  0  0  0
   -0.5670    3.4052    0.7183 H   0  0  0  0  0  0  0  0  0  0  0  0
    0.0054    1.4145    0.0087 C   0  0  0  0  0  0  0  0  0  0  0  0
   -1.2004    0.7064    0.0036 C   0  0  0  0  0  0  0  0  0  0  0  0
   -2.0634    1.1843    0.0010 H   0  0  0  0  0  0  0  0  0  0  0  0
   -1.1967   -0.7081    0.0000 C   0  0  0  0  0  0  0  0  0  0  0  0
   -2.0795   -1.1909   -0.0042 H   0  0  0  0  0  0  0  0  0  0  0  0
   -0.0026   -1.4046    0.0044 C   0  0  0  0  0  0  0  0  0  0  0  0
   -0.0035   -2.4024    0.0098 H   0  0  0  0  0  0  0  0  0  0  0  0
    1.1967   -0.7058    0.0000 C   0  0  0  0  0  0  0  0  0  0  0  0
    2.0805   -1.1989    0.0108 H   0  0  0  0  0  0  0  0  0  0  0  0
    1.1976    0.6975   -0.0166 C   0  0  0  0  0  0  0  0  0  0  0  0
    2.0700    1.1835   -0.0476 H   0  0  0  0  0  0  0  0  0  0  0  0
  1  5  1  0
  5  8  1  0
  1  2  1  0
  1  3  1  0
  1  4  1  0
  5  6  1  0
  5  7  1  0
  8  9  1  0
  8 10  1  0
  8 11  1  0
 12 16  1  0
 16 17  2  0
 17 19  1  0
 19 21  2  0
 21 23  1  0
 23 25  2  0
 25 16  1  0
 12 13  1  0
 12 14  1  0
 12 15  1  0
 17 18  1  0
 19 20  1  0
 21 22  1  0
 23 24  1  0
 25 26  1  0
M  CHG  1   8   1
M  END
>  <PDB_ID>  (2347) 
pdb4n4p

>  <RESIDUE_NAME>  (2347) 
LYS   PHE

>  <FRAG_NAME>  (2347) 
ETAM   MBZ

>  <FRAG_ATOM_NUM>  (2347) 
fragi: 11  fragj: 15

>  <atom.prop.CHAIN_ID>  (2347) 
A A A A A A A A A A A Z Z Z Z Z Z Z Z Z Z Z Z Z Z Z

>  <atom.prop.IS_HEAVY_ATOM>  (2347) 
1 0 0 0 1 0 0 1 0 0 0 1 0 0 0 1 1 0 1 0 1 0 1 0 1 0

>  <DIFUSE_FUNC_ATOM>  (2347) 
n/a

>  <FINAL_SINGLE_POINT_ENERGY>  (2347) 
0

>  <NONCOV_INTER_ENERGY_QM>  (2347) 
0

>  <FF_Energy>  (2347) 
-4.2

>  <QM_Energy>  (2347) 
-10.01

>  <source>  (2347) 
ETAM_MBZ

>  <Index>  (2347) 
24473

$$$$
ETAM-pdb4n5q-B-LYS-169:MBZ-pdb4n5q-B-PHE-250
     RDKit          3D

 26 25  0  0  0  0  0  0  0  0999 V2000
    3.2387   -1.2215   -4.8189 C   0  0  0  0  0  0  0  0  0  0  0  0
    3.2793   -2.0507   -5.3559 H   0  0  0  0  0  0  0  0  0  0  0  0
    4.0765   -1.0791   -4.3128 H   0  0  0  0  0  0  0  0  0  0  0  0
    3.0955   -0.3788   -5.4953 H   0  0  0  0  0  0  0  0  0  0  0  0
    2.0777   -1.3289   -3.8313 C   0  0  0  0  0  0  0  0  0  0  0  0
    2.0964   -0.5346   -3.2128 H   0  0  0  0  0  0  0  0  0  0  0  0
    1.2093   -1.3144   -4.3406 H   0  0  0  0  0  0  0  0  0  0  0  0
    2.1136   -2.5925   -2.9862 N   0  0  0  0  0  4  0  0  0  0  0  0
    2.8332   -3.1836   -3.3336 H   0  0  0  0  0  0  0  0  0  0  0  0
    2.3000   -2.3361   -2.0438 H   0  0  0  0  0  0  0  0  0  0  0  0
    1.2301   -3.0431   -3.0548 H   0  0  0  0  0  0  0  0  0  0  0  0
    0.0092    2.9183    0.0133 C   0  0  0  0  0  0  0  0  0  0  0  0
   -0.7507    3.2295   -0.5324 H   0  0  0  0  0  0  0  0  0  0  0  0
    0.8730    3.2189   -0.3550 H   0  0  0  0  0  0  0  0  0  0  0  0
   -0.0965    3.3416    1.0122 H   0  0  0  0  0  0  0  0  0  0  0  0
    0.0010    1.4037   -0.0039 C   0  0  0  0  0  0  0  0  0  0  0  0
   -1.1898    0.6937   -0.0016 C   0  0  0  0  0  0  0  0  0  0  0  0
   -2.0599    1.1763   -0.0020 H   0  0  0  0  0  0  0  0  0  0  0  0
   -1.1895   -0.7025   -0.0000 C   0  0  0  0  0  0  0  0  0  0  0  0
   -2.0713   -1.1920    0.0059 H   0  0  0  0  0  0  0  0  0  0  0  0
    0.0019   -1.3926   -0.0042 C   0  0  0  0  0  0  0  0  0  0  0  0
   -0.0007   -2.3942   -0.0110 H   0  0  0  0  0  0  0  0  0  0  0  0
    1.1895   -0.6996   -0.0000 C   0  0  0  0  0  0  0  0  0  0  0  0
    2.0777   -1.1902   -0.0021 H   0  0  0  0  0  0  0  0  0  0  0  0
    1.1869    0.6973    0.0098 C   0  0  0  0  0  0  0  0  0  0  0  0
    2.0607    1.1858    0.0261 H   0  0  0  0  0  0  0  0  0  0  0  0
  1  5  1  0
  5  8  1  0
  1  2  1  0
  1  3  1  0
  1  4  1  0
  5  6  1  0
  5  7  1  0
  8  9  1  0
  8 10  1  0
  8 11  1  0
 12 16  1  0
 16 17  2  0
 17 19  1  0
 19 21  2  0
 21 23  1  0
 23 25  2  0
 25 16  1  0
 12 13  1  0
 12 14  1  0
 12 15  1  0
 17 18  1  0
 19 20  1  0
 21 22  1  0
 23 24  1  0
 25 26  1  0
M  CHG  1   8   1
M  END
>  <PDB_ID>  (2348) 
pdb4n5q

>  <RESIDUE_NAME>  (2348) 
LYS   PHE

>  <FRAG_NAME>  (2348) 
ETAM   MBZ

>  <FRAG_ATOM_NUM>  (2348) 
fragi: 11  fragj: 15

>  <atom.prop.CHAIN_ID>  (2348) 
A A A A A A A A A A A Z Z Z Z Z Z Z Z Z Z Z Z Z Z Z

>  <atom.prop.IS_HEAVY_ATOM>  (2348) 
1 0 0 0 1 0 0 1 0 0 0 1 0 0 0 1 1 0 1 0 1 0 1 0 1 0

>  <DIFUSE_FUNC_ATOM>  (2348) 
n/a

>  <FINAL_SINGLE_POINT_ENERGY>  (2348) 
0

>  <NONCOV_INTER_ENERGY_QM>  (2348) 
0

>  <FF_Energy>  (2348) 
-2.43

>  <QM_Energy>  (2348) 
-7.81

>  <source>  (2348) 
ETAM_MBZ

>  <Index>  (2348) 
24477

$$$$
ETAM-pdb3pcr-A-LYS-53:MBZ-pdb3pcr-A-PHE-75
     RDKit          3D

 26 25  0  0  0  0  0  0  0  0999 V2000
   -5.3201   -1.9836    1.1791 C   0  0  0  0  0  0  0  0  0  0  0  0
   -5.8313   -2.8353    1.0811 H   0  0  0  0  0  0  0  0  0  0  0  0
   -5.9454   -1.2071    1.1447 H   0  0  0  0  0  0  0  0  0  0  0  0
   -4.8216   -1.9873    2.1484 H   0  0  0  0  0  0  0  0  0  0  0  0
   -4.3408   -1.8689    0.0046 C   0  0  0  0  0  0  0  0  0  0  0  0
   -3.8851   -0.9769    0.0529 H   0  0  0  0  0  0  0  0  0  0  0  0
   -3.6511   -2.5922    0.0892 H   0  0  0  0  0  0  0  0  0  0  0  0
   -5.0284   -1.9984   -1.3179 N   0  0  0  0  0  4  0  0  0  0  0  0
   -4.3997   -1.7222   -2.0424 H   0  0  0  0  0  0  0  0  0  0  0  0
   -5.3033   -2.9487   -1.4523 H   0  0  0  0  0  0  0  0  0  0  0  0
   -5.8343   -1.4095   -1.3267 H   0  0  0  0  0  0  0  0  0  0  0  0
   -0.0061    2.9118   -0.0151 C   0  0  0  0  0  0  0  0  0  0  0  0
    0.6532    3.2153   -0.6826 H   0  0  0  0  0  0  0  0  0  0  0  0
    0.2175    3.2294    0.8910 H   0  0  0  0  0  0  0  0  0  0  0  0
   -0.9705    3.3416   -0.2855 H   0  0  0  0  0  0  0  0  0  0  0  0
    0.0005    1.4036    0.0001 C   0  0  0  0  0  0  0  0  0  0  0  0
   -1.1937    0.6908    0.0029 C   0  0  0  0  0  0  0  0  0  0  0  0
   -2.0630    1.1778    0.0053 H   0  0  0  0  0  0  0  0  0  0  0  0
   -1.1982   -0.7042   -0.0000 C   0  0  0  0  0  0  0  0  0  0  0  0
   -2.0778   -1.1936   -0.0008 H   0  0  0  0  0  0  0  0  0  0  0  0
   -0.0026   -1.3953    0.0004 C   0  0  0  0  0  0  0  0  0  0  0  0
    0.0015   -2.3928    0.0003 H   0  0  0  0  0  0  0  0  0  0  0  0
    1.1982   -0.6915   -0.0000 C   0  0  0  0  0  0  0  0  0  0  0  0
    2.0810   -1.1907    0.0035 H   0  0  0  0  0  0  0  0  0  0  0  0
    1.1958    0.6966   -0.0034 C   0  0  0  0  0  0  0  0  0  0  0  0
    2.0633    1.1928   -0.0094 H   0  0  0  0  0  0  0  0  0  0  0  0
  1  5  1  0
  5  8  1  0
  1  2  1  0
  1  3  1  0
  1  4  1  0
  5  6  1  0
  5  7  1  0
  8  9  1  0
  8 10  1  0
  8 11  1  0
 12 16  1  0
 16 17  2  0
 17 19  1  0
 19 21  2  0
 21 23  1  0
 23 25  2  0
 25 16  1  0
 12 13  1  0
 12 14  1  0
 12 15  1  0
 17 18  1  0
 19 20  1  0
 21 22  1  0
 23 24  1  0
 25 26  1  0
M  CHG  1   8   1
M  END
>  <PDB_ID>  (2349) 
pdb3pcr

>  <RESIDUE_NAME>  (2349) 
LYS   PHE

>  <FRAG_NAME>  (2349) 
ETAM   MBZ

>  <FRAG_ATOM_NUM>  (2349) 
fragi: 11  fragj: 15

>  <atom.prop.CHAIN_ID>  (2349) 
A A A A A A A A A A A Z Z Z Z Z Z Z Z Z Z Z Z Z Z Z

>  <atom.prop.IS_HEAVY_ATOM>  (2349) 
1 0 0 0 1 0 0 1 0 0 0 1 0 0 0 1 1 0 1 0 1 0 1 0 1 0

>  <DIFUSE_FUNC_ATOM>  (2349) 
n/a

>  <FINAL_SINGLE_POINT_ENERGY>  (2349) 
0

>  <NONCOV_INTER_ENERGY_QM>  (2349) 
0

>  <FF_Energy>  (2349) 
6.32

>  <QM_Energy>  (2349) 
-0.16

>  <source>  (2349) 
ETAM_MBZ

>  <Index>  (2349) 
24488

$$$$
ETAM-pdb3pct-A-LYS-58:MBZ-pdb3pct-A-PHE-47
     RDKit          3D

 26 25  0  0  0  0  0  0  0  0999 V2000
    3.2941   -0.8729   -3.0912 C   0  0  0  0  0  0  0  0  0  0  0  0
    3.2569    0.0806   -2.8027 H   0  0  0  0  0  0  0  0  0  0  0  0
    3.7189   -0.9411   -3.9906 H   0  0  0  0  0  0  0  0  0  0  0  0
    3.9008   -1.4284   -2.3761 H   0  0  0  0  0  0  0  0  0  0  0  0
    1.8783   -1.4124   -3.1783 C   0  0  0  0  0  0  0  0  0  0  0  0
    1.8916   -2.2860   -3.6813 H   0  0  0  0  0  0  0  0  0  0  0  0
    1.5380   -1.5915   -2.2464 H   0  0  0  0  0  0  0  0  0  0  0  0
    0.9412   -0.4738   -3.8629 N   0  0  0  0  0  4  0  0  0  0  0  0
    1.4592    0.1185   -4.4771 H   0  0  0  0  0  0  0  0  0  0  0  0
    0.2730   -0.9997   -4.3870 H   0  0  0  0  0  0  0  0  0  0  0  0
    0.4706    0.0808   -3.1775 H   0  0  0  0  0  0  0  0  0  0  0  0
   -0.0033    2.8871   -0.0067 C   0  0  0  0  0  0  0  0  0  0  0  0
    0.7114    3.1979    0.6015 H   0  0  0  0  0  0  0  0  0  0  0  0
   -0.8932    3.1945    0.2978 H   0  0  0  0  0  0  0  0  0  0  0  0
    0.1818    3.3199   -0.9899 H   0  0  0  0  0  0  0  0  0  0  0  0
   -0.0009    1.3910   -0.0009 C   0  0  0  0  0  0  0  0  0  0  0  0
   -1.1901    0.6858   -0.0047 C   0  0  0  0  0  0  0  0  0  0  0  0
   -2.0597    1.1774   -0.0126 H   0  0  0  0  0  0  0  0  0  0  0  0
   -1.1957   -0.6980    0.0000 C   0  0  0  0  0  0  0  0  0  0  0  0
   -2.0730   -1.1927    0.0022 H   0  0  0  0  0  0  0  0  0  0  0  0
   -0.0007   -1.3841    0.0033 C   0  0  0  0  0  0  0  0  0  0  0  0
    0.0049   -2.3841    0.0076 H   0  0  0  0  0  0  0  0  0  0  0  0
    1.1957   -0.6818    0.0000 C   0  0  0  0  0  0  0  0  0  0  0  0
    2.0785   -1.1883   -0.0026 H   0  0  0  0  0  0  0  0  0  0  0  0
    1.1917    0.6871    0.0023 C   0  0  0  0  0  0  0  0  0  0  0  0
    2.0593    1.1928    0.0061 H   0  0  0  0  0  0  0  0  0  0  0  0
  1  5  1  0
  5  8  1  0
  1  2  1  0
  1  3  1  0
  1  4  1  0
  5  6  1  0
  5  7  1  0
  8  9  1  0
  8 10  1  0
  8 11  1  0
 12 16  1  0
 16 17  2  0
 17 19  1  0
 19 21  2  0
 21 23  1  0
 23 25  2  0
 25 16  1  0
 12 13  1  0
 12 14  1  0
 12 15  1  0
 17 18  1  0
 19 20  1  0
 21 22  1  0
 23 24  1  0
 25 26  1  0
M  CHG  1   8   1
M  END
>  <PDB_ID>  (2350) 
pdb3pct

>  <RESIDUE_NAME>  (2350) 
LYS   PHE

>  <FRAG_NAME>  (2350) 
ETAM   MBZ

>  <FRAG_ATOM_NUM>  (2350) 
fragi: 11  fragj: 15

>  <atom.prop.CHAIN_ID>  (2350) 
A A A A A A A A A A A Z Z Z Z Z Z Z Z Z Z Z Z Z Z Z

>  <atom.prop.IS_HEAVY_ATOM>  (2350) 
1 0 0 0 1 0 0 1 0 0 0 1 0 0 0 1 1 0 1 0 1 0 1 0 1 0

>  <DIFUSE_FUNC_ATOM>  (2350) 
n/a

>  <FINAL_SINGLE_POINT_ENERGY>  (2350) 
0

>  <NONCOV_INTER_ENERGY_QM>  (2350) 
0

>  <FF_Energy>  (2350) 
-4.55

>  <QM_Energy>  (2350) 
-10.12

>  <source>  (2350) 
ETAM_MBZ

>  <Index>  (2350) 
24490

$$$$
ETAM-pdb4n7g-A-LYS-157:MBZ-pdb4n7g-A-PHE-153
     RDKit          3D

 26 25  0  0  0  0  0  0  0  0999 V2000
    0.4083    0.5713    4.4637 C   0  0  0  0  0  0  0  0  0  0  0  0
    0.3416    1.4318    4.0197 H   0  0  0  0  0  0  0  0  0  0  0  0
    0.8994    0.5862    5.3007 H   0  0  0  0  0  0  0  0  0  0  0  0
   -0.5901    0.1674    4.6312 H   0  0  0  0  0  0  0  0  0  0  0  0
    1.1297   -0.4140    3.4995 C   0  0  0  0  0  0  0  0  0  0  0  0
    1.1864   -1.2682    3.9235 H   0  0  0  0  0  0  0  0  0  0  0  0
    0.7022   -0.3738    2.6460 H   0  0  0  0  0  0  0  0  0  0  0  0
    2.4853    0.2166    3.4269 N   0  0  0  0  0  4  0  0  0  0  0  0
    2.8366    0.3446    4.3521 H   0  0  0  0  0  0  0  0  0  0  0  0
    3.0978   -0.3813    2.9129 H   0  0  0  0  0  0  0  0  0  0  0  0
    2.4112    1.0996    2.9676 H   0  0  0  0  0  0  0  0  0  0  0  0
   -0.0644    2.8957   -0.0620 C   0  0  0  0  0  0  0  0  0  0  0  0
   -0.0262    3.1794   -1.0063 H   0  0  0  0  0  0  0  0  0  0  0  0
    0.6913    3.2590    0.4585 H   0  0  0  0  0  0  0  0  0  0  0  0
   -0.9725    3.3269    0.3593 H   0  0  0  0  0  0  0  0  0  0  0  0
   -0.0242    1.4091   -0.0011 C   0  0  0  0  0  0  0  0  0  0  0  0
   -1.2093    0.6673   -0.0417 C   0  0  0  0  0  0  0  0  0  0  0  0
   -2.0848    1.1543   -0.1045 H   0  0  0  0  0  0  0  0  0  0  0  0
   -1.2114   -0.7174    0.0000 C   0  0  0  0  0  0  0  0  0  0  0  0
   -2.0650   -1.2287    0.0139 H   0  0  0  0  0  0  0  0  0  0  0  0
    0.0283   -1.4028    0.0252 C   0  0  0  0  0  0  0  0  0  0  0  0
    0.0312   -2.3957    0.0602 H   0  0  0  0  0  0  0  0  0  0  0  0
    1.2114   -0.6805   -0.0000 C   0  0  0  0  0  0  0  0  0  0  0  0
    2.1077   -1.1645   -0.0306 H   0  0  0  0  0  0  0  0  0  0  0  0
    1.2052    0.7243    0.0175 C   0  0  0  0  0  0  0  0  0  0  0  0
    2.0523    1.2257    0.0419 H   0  0  0  0  0  0  0  0  0  0  0  0
  1  5  1  0
  5  8  1  0
  1  2  1  0
  1  3  1  0
  1  4  1  0
  5  6  1  0
  5  7  1  0
  8  9  1  0
  8 10  1  0
  8 11  1  0
 12 16  1  0
 16 17  2  0
 17 19  1  0
 19 21  2  0
 21 23  1  0
 23 25  2  0
 25 16  1  0
 12 13  1  0
 12 14  1  0
 12 15  1  0
 17 18  1  0
 19 20  1  0
 21 22  1  0
 23 24  1  0
 25 26  1  0
M  CHG  1   8   1
M  END
>  <PDB_ID>  (2351) 
pdb4n7g

>  <RESIDUE_NAME>  (2351) 
LYS   PHE

>  <FRAG_NAME>  (2351) 
ETAM   MBZ

>  <FRAG_ATOM_NUM>  (2351) 
fragi: 11  fragj: 15

>  <atom.prop.CHAIN_ID>  (2351) 
A A A A A A A A A A A Z Z Z Z Z Z Z Z Z Z Z Z Z Z Z

>  <atom.prop.IS_HEAVY_ATOM>  (2351) 
1 0 0 0 1 0 0 1 0 0 0 1 0 0 0 1 1 0 1 0 1 0 1 0 1 0

>  <DIFUSE_FUNC_ATOM>  (2351) 
n/a

>  <FINAL_SINGLE_POINT_ENERGY>  (2351) 
0

>  <NONCOV_INTER_ENERGY_QM>  (2351) 
0

>  <FF_Energy>  (2351) 
-4.73

>  <QM_Energy>  (2351) 
-10.29

>  <source>  (2351) 
ETAM_MBZ

>  <Index>  (2351) 
24513

$$$$
ETAM-pdb3pdu-B-LYS-219:MBZ-pdb3pdu-B-PHE-278
     RDKit          3D

 26 25  0  0  0  0  0  0  0  0999 V2000
    2.7018   -2.4627    4.0499 C   0  0  0  0  0  0  0  0  0  0  0  0
    2.4566   -1.5469    4.3136 H   0  0  0  0  0  0  0  0  0  0  0  0
    3.4964   -2.7883    4.5299 H   0  0  0  0  0  0  0  0  0  0  0  0
    1.8641   -3.1256    4.2667 H   0  0  0  0  0  0  0  0  0  0  0  0
    3.0002   -2.4752    2.5403 C   0  0  0  0  0  0  0  0  0  0  0  0
    3.2784   -3.4077    2.2773 H   0  0  0  0  0  0  0  0  0  0  0  0
    2.1522   -2.2492    2.0447 H   0  0  0  0  0  0  0  0  0  0  0  0
    4.0751   -1.5117    2.1332 N   0  0  0  0  0  4  0  0  0  0  0  0
    4.3426   -0.9674    2.9259 H   0  0  0  0  0  0  0  0  0  0  0  0
    4.8611   -2.0245    1.7932 H   0  0  0  0  0  0  0  0  0  0  0  0
    3.7229   -0.9151    1.4148 H   0  0  0  0  0  0  0  0  0  0  0  0
   -0.0075    2.9173   -0.0255 C   0  0  0  0  0  0  0  0  0  0  0  0
   -0.9411    3.2172   -0.1614 H   0  0  0  0  0  0  0  0  0  0  0  0
    0.5753    3.2149   -0.7679 H   0  0  0  0  0  0  0  0  0  0  0  0
    0.3571    3.3960    0.8833 H   0  0  0  0  0  0  0  0  0  0  0  0
    0.0026    1.4067    0.0048 C   0  0  0  0  0  0  0  0  0  0  0  0
   -1.1966    0.6962   -0.0020 C   0  0  0  0  0  0  0  0  0  0  0  0
   -2.0633    1.1855   -0.0095 H   0  0  0  0  0  0  0  0  0  0  0  0
   -1.2031   -0.7000   -0.0000 C   0  0  0  0  0  0  0  0  0  0  0  0
   -2.0820   -1.1896   -0.0015 H   0  0  0  0  0  0  0  0  0  0  0  0
   -0.0041   -1.3991    0.0054 C   0  0  0  0  0  0  0  0  0  0  0  0
   -0.0070   -2.3971    0.0127 H   0  0  0  0  0  0  0  0  0  0  0  0
    1.2031   -0.7019    0.0000 C   0  0  0  0  0  0  0  0  0  0  0  0
    2.0820   -1.1975    0.0031 H   0  0  0  0  0  0  0  0  0  0  0  0
    1.1980    0.6982   -0.0082 C   0  0  0  0  0  0  0  0  0  0  0  0
    2.0679    1.1901   -0.0245 H   0  0  0  0  0  0  0  0  0  0  0  0
  1  5  1  0
  5  8  1  0
  1  2  1  0
  1  3  1  0
  1  4  1  0
  5  6  1  0
  5  7  1  0
  8  9  1  0
  8 10  1  0
  8 11  1  0
 12 16  1  0
 16 17  2  0
 17 19  1  0
 19 21  2  0
 21 23  1  0
 23 25  2  0
 25 16  1  0
 12 13  1  0
 12 14  1  0
 12 15  1  0
 17 18  1  0
 19 20  1  0
 21 22  1  0
 23 24  1  0
 25 26  1  0
M  CHG  1   8   1
M  END
>  <PDB_ID>  (2352) 
pdb3pdu

>  <RESIDUE_NAME>  (2352) 
LYS   PHE

>  <FRAG_NAME>  (2352) 
ETAM   MBZ

>  <FRAG_ATOM_NUM>  (2352) 
fragi: 11  fragj: 15

>  <atom.prop.CHAIN_ID>  (2352) 
A A A A A A A A A A A Z Z Z Z Z Z Z Z Z Z Z Z Z Z Z

>  <atom.prop.IS_HEAVY_ATOM>  (2352) 
1 0 0 0 1 0 0 1 0 0 0 1 0 0 0 1 1 0 1 0 1 0 1 0 1 0

>  <DIFUSE_FUNC_ATOM>  (2352) 
n/a

>  <FINAL_SINGLE_POINT_ENERGY>  (2352) 
0

>  <NONCOV_INTER_ENERGY_QM>  (2352) 
0

>  <FF_Energy>  (2352) 
-0.26

>  <QM_Energy>  (2352) 
-5.45

>  <source>  (2352) 
ETAM_MBZ

>  <Index>  (2352) 
24518

$$$$
ETAM-pdb3pef-B-LYS-283:MBZ-pdb3pef-B-PHE-273
     RDKit          3D

 26 25  0  0  0  0  0  0  0  0999 V2000
   -0.1789   -0.9056    4.7137 C   0  0  0  0  0  0  0  0  0  0  0  0
   -0.7331   -0.9468    5.5457 H   0  0  0  0  0  0  0  0  0  0  0  0
    0.2517   -0.0047    4.6454 H   0  0  0  0  0  0  0  0  0  0  0  0
    0.5962   -1.6703    4.7632 H   0  0  0  0  0  0  0  0  0  0  0  0
   -1.0744   -1.1019    3.5290 C   0  0  0  0  0  0  0  0  0  0  0  0
   -0.5353   -1.0565    2.6937 H   0  0  0  0  0  0  0  0  0  0  0  0
   -1.5269   -1.9860    3.5972 H   0  0  0  0  0  0  0  0  0  0  0  0
   -2.0894   -0.0325    3.5155 N   0  0  0  0  0  4  0  0  0  0  0  0
   -2.5971   -0.0579    2.6520 H   0  0  0  0  0  0  0  0  0  0  0  0
   -2.7279   -0.1626    4.2767 H   0  0  0  0  0  0  0  0  0  0  0  0
   -1.6423    0.8591    3.6088 H   0  0  0  0  0  0  0  0  0  0  0  0
   -0.0162    2.8930   -0.0010 C   0  0  0  0  0  0  0  0  0  0  0  0
    0.8834    3.2090   -0.2597 H   0  0  0  0  0  0  0  0  0  0  0  0
   -0.2584    3.1969    0.9070 H   0  0  0  0  0  0  0  0  0  0  0  0
   -0.7344    3.3235   -0.6989 H   0  0  0  0  0  0  0  0  0  0  0  0
   -0.0021    1.3928   -0.0032 C   0  0  0  0  0  0  0  0  0  0  0  0
   -1.1902    0.6794   -0.0002 C   0  0  0  0  0  0  0  0  0  0  0  0
   -2.0605    1.1728    0.0003 H   0  0  0  0  0  0  0  0  0  0  0  0
   -1.1925   -0.6958    0.0000 C   0  0  0  0  0  0  0  0  0  0  0  0
   -2.0701   -1.1956   -0.0023 H   0  0  0  0  0  0  0  0  0  0  0  0
    0.0020   -1.3824    0.0048 C   0  0  0  0  0  0  0  0  0  0  0  0
    0.0001   -2.3855    0.0113 H   0  0  0  0  0  0  0  0  0  0  0  0
    1.1925   -0.6898    0.0000 C   0  0  0  0  0  0  0  0  0  0  0  0
    2.0781   -1.1870   -0.0009 H   0  0  0  0  0  0  0  0  0  0  0  0
    1.1903    0.6959   -0.0014 C   0  0  0  0  0  0  0  0  0  0  0  0
    2.0580    1.1921   -0.0023 H   0  0  0  0  0  0  0  0  0  0  0  0
  1  5  1  0
  5  8  1  0
  1  2  1  0
  1  3  1  0
  1  4  1  0
  5  6  1  0
  5  7  1  0
  8  9  1  0
  8 10  1  0
  8 11  1  0
 12 16  1  0
 16 17  2  0
 17 19  1  0
 19 21  2  0
 21 23  1  0
 23 25  2  0
 25 16  1  0
 12 13  1  0
 12 14  1  0
 12 15  1  0
 17 18  1  0
 19 20  1  0
 21 22  1  0
 23 24  1  0
 25 26  1  0
M  CHG  1   8   1
M  END
>  <PDB_ID>  (2353) 
pdb3pef

>  <RESIDUE_NAME>  (2353) 
LYS   PHE

>  <FRAG_NAME>  (2353) 
ETAM   MBZ

>  <FRAG_ATOM_NUM>  (2353) 
fragi: 11  fragj: 15

>  <atom.prop.CHAIN_ID>  (2353) 
A A A A A A A A A A A Z Z Z Z Z Z Z Z Z Z Z Z Z Z Z

>  <atom.prop.IS_HEAVY_ATOM>  (2353) 
1 0 0 0 1 0 0 1 0 0 0 1 0 0 0 1 1 0 1 0 1 0 1 0 1 0

>  <DIFUSE_FUNC_ATOM>  (2353) 
n/a

>  <FINAL_SINGLE_POINT_ENERGY>  (2353) 
0

>  <NONCOV_INTER_ENERGY_QM>  (2353) 
0

>  <FF_Energy>  (2353) 
-5.0

>  <QM_Energy>  (2353) 
-10.05

>  <source>  (2353) 
ETAM_MBZ

>  <Index>  (2353) 
24544

$$$$
ETAM-pdb3pef-F-LYS-219:MBZ-pdb3pef-F-PHE-278
     RDKit          3D

 26 25  0  0  0  0  0  0  0  0999 V2000
   -2.5281   -3.4928   -3.1280 C   0  0  0  0  0  0  0  0  0  0  0  0
   -2.5509   -4.4758   -3.2844 H   0  0  0  0  0  0  0  0  0  0  0  0
   -1.7394   -3.2507   -2.5720 H   0  0  0  0  0  0  0  0  0  0  0  0
   -2.4771   -2.9709   -4.0836 H   0  0  0  0  0  0  0  0  0  0  0  0
   -3.7973   -3.1138   -2.3341 C   0  0  0  0  0  0  0  0  0  0  0  0
   -4.5963   -3.5452   -2.7939 H   0  0  0  0  0  0  0  0  0  0  0  0
   -3.7288   -3.5372   -1.4105 H   0  0  0  0  0  0  0  0  0  0  0  0
   -4.0536   -1.6522   -2.1816 N   0  0  0  0  0  4  0  0  0  0  0  0
   -3.3448   -1.2514   -1.6023 H   0  0  0  0  0  0  0  0  0  0  0  0
   -4.0377   -1.2186   -3.0816 H   0  0  0  0  0  0  0  0  0  0  0  0
   -4.9483   -1.5167   -1.7592 H   0  0  0  0  0  0  0  0  0  0  0  0
    0.0037    2.8902    0.0122 C   0  0  0  0  0  0  0  0  0  0  0  0
    0.9406    3.1965    0.1089 H   0  0  0  0  0  0  0  0  0  0  0  0
   -0.5482    3.1932    0.7778 H   0  0  0  0  0  0  0  0  0  0  0  0
   -0.4022    3.3509   -0.8884 H   0  0  0  0  0  0  0  0  0  0  0  0
    0.0004    1.3937   -0.0048 C   0  0  0  0  0  0  0  0  0  0  0  0
   -1.1924    0.6900   -0.0012 C   0  0  0  0  0  0  0  0  0  0  0  0
   -2.0594    1.1848   -0.0007 H   0  0  0  0  0  0  0  0  0  0  0  0
   -1.1993   -0.6914   -0.0000 C   0  0  0  0  0  0  0  0  0  0  0  0
   -2.0776   -1.1863    0.0025 H   0  0  0  0  0  0  0  0  0  0  0  0
   -0.0028   -1.3876    0.0002 C   0  0  0  0  0  0  0  0  0  0  0  0
   -0.0065   -2.3871   -0.0005 H   0  0  0  0  0  0  0  0  0  0  0  0
    1.1993   -0.6938   -0.0000 C   0  0  0  0  0  0  0  0  0  0  0  0
    2.0787   -1.1960   -0.0033 H   0  0  0  0  0  0  0  0  0  0  0  0
    1.1948    0.6892    0.0058 C   0  0  0  0  0  0  0  0  0  0  0  0
    2.0626    1.1891    0.0173 H   0  0  0  0  0  0  0  0  0  0  0  0
  1  5  1  0
  5  8  1  0
  1  2  1  0
  1  3  1  0
  1  4  1  0
  5  6  1  0
  5  7  1  0
  8  9  1  0
  8 10  1  0
  8 11  1  0
 12 16  1  0
 16 17  2  0
 17 19  1  0
 19 21  2  0
 21 23  1  0
 23 25  2  0
 25 16  1  0
 12 13  1  0
 12 14  1  0
 12 15  1  0
 17 18  1  0
 19 20  1  0
 21 22  1  0
 23 24  1  0
 25 26  1  0
M  CHG  1   8   1
M  END
>  <PDB_ID>  (2354) 
pdb3pef

>  <RESIDUE_NAME>  (2354) 
LYS   PHE

>  <FRAG_NAME>  (2354) 
ETAM   MBZ

>  <FRAG_ATOM_NUM>  (2354) 
fragi: 11  fragj: 15

>  <atom.prop.CHAIN_ID>  (2354) 
A A A A A A A A A A A Z Z Z Z Z Z Z Z Z Z Z Z Z Z Z

>  <atom.prop.IS_HEAVY_ATOM>  (2354) 
1 0 0 0 1 0 0 1 0 0 0 1 0 0 0 1 1 0 1 0 1 0 1 0 1 0

>  <DIFUSE_FUNC_ATOM>  (2354) 
n/a

>  <FINAL_SINGLE_POINT_ENERGY>  (2354) 
0

>  <NONCOV_INTER_ENERGY_QM>  (2354) 
0

>  <FF_Energy>  (2354) 
-0.5

>  <QM_Energy>  (2354) 
-5.54

>  <source>  (2354) 
ETAM_MBZ

>  <Index>  (2354) 
24553

$$$$
ETAM-pdb4n72-B-LYS-490:MBZ-pdb4n72-C-PHE-393
     RDKit          3D

 26 25  0  0  0  0  0  0  0  0999 V2000
   -2.7603    1.4600    4.2428 C   0  0  0  0  0  0  0  0  0  0  0  0
   -3.2900    1.0556    4.9774 H   0  0  0  0  0  0  0  0  0  0  0  0
   -3.3433    1.9854    3.6366 H   0  0  0  0  0  0  0  0  0  0  0  0
   -2.0067    2.1205    4.6718 H   0  0  0  0  0  0  0  0  0  0  0  0
   -2.1093    0.3412    3.4412 C   0  0  0  0  0  0  0  0  0  0  0  0
   -1.5421    0.7488    2.7176 H   0  0  0  0  0  0  0  0  0  0  0  0
   -1.5130   -0.1911    4.0519 H   0  0  0  0  0  0  0  0  0  0  0  0
   -3.1102   -0.5710    2.8202 N   0  0  0  0  0  4  0  0  0  0  0  0
   -3.7123   -0.0438    2.2224 H   0  0  0  0  0  0  0  0  0  0  0  0
   -2.6351   -1.2690    2.2860 H   0  0  0  0  0  0  0  0  0  0  0  0
   -3.6499   -1.0084    3.5392 H   0  0  0  0  0  0  0  0  0  0  0  0
   -0.0029    2.8944    0.0014 C   0  0  0  0  0  0  0  0  0  0  0  0
    0.9228    3.2026    0.1573 H   0  0  0  0  0  0  0  0  0  0  0  0
   -0.6102    3.2002    0.7187 H   0  0  0  0  0  0  0  0  0  0  0  0
   -0.3467    3.3332   -0.9352 H   0  0  0  0  0  0  0  0  0  0  0  0
   -0.0008    1.3940   -0.0003 C   0  0  0  0  0  0  0  0  0  0  0  0
   -1.1914    0.6876    0.0012 C   0  0  0  0  0  0  0  0  0  0  0  0
   -2.0599    1.1803    0.0020 H   0  0  0  0  0  0  0  0  0  0  0  0
   -1.1951   -0.6934   -0.0000 C   0  0  0  0  0  0  0  0  0  0  0  0
   -2.0726   -1.1900    0.0014 H   0  0  0  0  0  0  0  0  0  0  0  0
    0.0005   -1.3848   -0.0012 C   0  0  0  0  0  0  0  0  0  0  0  0
   -0.0031   -2.3864   -0.0037 H   0  0  0  0  0  0  0  0  0  0  0  0
    1.1951   -0.6928   -0.0000 C   0  0  0  0  0  0  0  0  0  0  0  0
    2.0780   -1.1928    0.0017 H   0  0  0  0  0  0  0  0  0  0  0  0
    1.1917    0.6895    0.0003 C   0  0  0  0  0  0  0  0  0  0  0  0
    2.0611    1.1878   -0.0002 H   0  0  0  0  0  0  0  0  0  0  0  0
  1  5  1  0
  5  8  1  0
  1  2  1  0
  1  3  1  0
  1  4  1  0
  5  6  1  0
  5  7  1  0
  8  9  1  0
  8 10  1  0
  8 11  1  0
 12 16  1  0
 16 17  2  0
 17 19  1  0
 19 21  2  0
 21 23  1  0
 23 25  2  0
 25 16  1  0
 12 13  1  0
 12 14  1  0
 12 15  1  0
 17 18  1  0
 19 20  1  0
 21 22  1  0
 23 24  1  0
 25 26  1  0
M  CHG  1   8   1
M  END
>  <PDB_ID>  (2355) 
pdb4n72

>  <RESIDUE_NAME>  (2355) 
LYS   PHE

>  <FRAG_NAME>  (2355) 
ETAM   MBZ

>  <FRAG_ATOM_NUM>  (2355) 
fragi: 11  fragj: 15

>  <atom.prop.CHAIN_ID>  (2355) 
A A A A A A A A A A A Z Z Z Z Z Z Z Z Z Z Z Z Z Z Z

>  <atom.prop.IS_HEAVY_ATOM>  (2355) 
1 0 0 0 1 0 0 1 0 0 0 1 0 0 0 1 1 0 1 0 1 0 1 0 1 0

>  <DIFUSE_FUNC_ATOM>  (2355) 
n/a

>  <FINAL_SINGLE_POINT_ENERGY>  (2355) 
0

>  <NONCOV_INTER_ENERGY_QM>  (2355) 
0

>  <FF_Energy>  (2355) 
-3.13

>  <QM_Energy>  (2355) 
-8.71

>  <source>  (2355) 
ETAM_MBZ

>  <Index>  (2355) 
24573

$$$$
ETAM-pdb3phe-C-LYS-155:MBZ-pdb3phe-C-PHE-145
     RDKit          3D

 26 25  0  0  0  0  0  0  0  0999 V2000
    0.5468    0.0622    4.1052 C   0  0  0  0  0  0  0  0  0  0  0  0
   -0.2481    0.4168    4.5890 H   0  0  0  0  0  0  0  0  0  0  0  0
    0.5473    0.3848    3.1635 H   0  0  0  0  0  0  0  0  0  0  0  0
    1.4485    0.4221    4.6008 H   0  0  0  0  0  0  0  0  0  0  0  0
    0.4717   -1.4583    4.0973 C   0  0  0  0  0  0  0  0  0  0  0  0
    1.2377   -1.8187    3.5597 H   0  0  0  0  0  0  0  0  0  0  0  0
    0.5483   -1.7934    5.0392 H   0  0  0  0  0  0  0  0  0  0  0  0
   -0.8106   -1.9479    3.5090 N   0  0  0  0  0  4  0  0  0  0  0  0
   -0.6320   -2.7672    2.9673 H   0  0  0  0  0  0  0  0  0  0  0  0
   -1.4492   -2.1637    4.2456 H   0  0  0  0  0  0  0  0  0  0  0  0
   -1.1975   -1.2361    2.9255 H   0  0  0  0  0  0  0  0  0  0  0  0
   -0.0026    2.8948   -0.0105 C   0  0  0  0  0  0  0  0  0  0  0  0
    0.9310    3.2059    0.0830 H   0  0  0  0  0  0  0  0  0  0  0  0
   -0.5642    3.2073    0.7401 H   0  0  0  0  0  0  0  0  0  0  0  0
   -0.4052    3.3277   -0.9262 H   0  0  0  0  0  0  0  0  0  0  0  0
    0.0000    1.3949   -0.0006 C   0  0  0  0  0  0  0  0  0  0  0  0
   -1.1917    0.6859    0.0003 C   0  0  0  0  0  0  0  0  0  0  0  0
   -2.0603    1.1782   -0.0005 H   0  0  0  0  0  0  0  0  0  0  0  0
   -1.1950   -0.6958    0.0000 C   0  0  0  0  0  0  0  0  0  0  0  0
   -2.0725   -1.1918    0.0016 H   0  0  0  0  0  0  0  0  0  0  0  0
    0.0005   -1.3853   -0.0006 C   0  0  0  0  0  0  0  0  0  0  0  0
   -0.0014   -2.3872   -0.0017 H   0  0  0  0  0  0  0  0  0  0  0  0
    1.1950   -0.6916   -0.0000 C   0  0  0  0  0  0  0  0  0  0  0  0
    2.0785   -1.1907    0.0009 H   0  0  0  0  0  0  0  0  0  0  0  0
    1.1912    0.6920    0.0009 C   0  0  0  0  0  0  0  0  0  0  0  0
    2.0603    1.1900    0.0018 H   0  0  0  0  0  0  0  0  0  0  0  0
  1  5  1  0
  5  8  1  0
  1  2  1  0
  1  3  1  0
  1  4  1  0
  5  6  1  0
  5  7  1  0
  8  9  1  0
  8 10  1  0
  8 11  1  0
 12 16  1  0
 16 17  2  0
 17 19  1  0
 19 21  2  0
 21 23  1  0
 23 25  2  0
 25 16  1  0
 12 13  1  0
 12 14  1  0
 12 15  1  0
 17 18  1  0
 19 20  1  0
 21 22  1  0
 23 24  1  0
 25 26  1  0
M  CHG  1   8   1
M  END
>  <PDB_ID>  (2356) 
pdb3phe

>  <RESIDUE_NAME>  (2356) 
LYS   PHE

>  <FRAG_NAME>  (2356) 
ETAM   MBZ

>  <FRAG_ATOM_NUM>  (2356) 
fragi: 11  fragj: 15

>  <atom.prop.CHAIN_ID>  (2356) 
A A A A A A A A A A A Z Z Z Z Z Z Z Z Z Z Z Z Z Z Z

>  <atom.prop.IS_HEAVY_ATOM>  (2356) 
1 0 0 0 1 0 0 1 0 0 0 1 0 0 0 1 1 0 1 0 1 0 1 0 1 0

>  <DIFUSE_FUNC_ATOM>  (2356) 
n/a

>  <FINAL_SINGLE_POINT_ENERGY>  (2356) 
0

>  <NONCOV_INTER_ENERGY_QM>  (2356) 
0

>  <FF_Energy>  (2356) 
-5.44

>  <QM_Energy>  (2356) 
-11.31

>  <source>  (2356) 
ETAM_MBZ

>  <Index>  (2356) 
24587

$$$$
ETAM-pdb3phe-D-LYS-155:MBZ-pdb3phe-D-PHE-145
     RDKit          3D

 26 25  0  0  0  0  0  0  0  0999 V2000
   -0.7956    0.6596    4.2430 C   0  0  0  0  0  0  0  0  0  0  0  0
   -1.6725    0.8597    4.6708 H   0  0  0  0  0  0  0  0  0  0  0  0
   -0.6086    1.3154    3.5179 H   0  0  0  0  0  0  0  0  0  0  0  0
   -0.0121    0.7357    4.9970 H   0  0  0  0  0  0  0  0  0  0  0  0
   -0.8599   -0.7328    3.6335 C   0  0  0  0  0  0  0  0  0  0  0  0
   -0.1912   -0.7930    2.8872 H   0  0  0  0  0  0  0  0  0  0  0  0
   -0.6223   -1.4078    4.3369 H   0  0  0  0  0  0  0  0  0  0  0  0
   -2.2173   -1.0465    3.0972 N   0  0  0  0  0  4  0  0  0  0  0  0
   -2.6641   -1.7074    3.6980 H   0  0  0  0  0  0  0  0  0  0  0  0
   -2.7580   -0.2072    3.0587 H   0  0  0  0  0  0  0  0  0  0  0  0
   -2.1278   -1.4319    2.1802 H   0  0  0  0  0  0  0  0  0  0  0  0
    0.0019    2.8935   -0.0096 C   0  0  0  0  0  0  0  0  0  0  0  0
    0.8780    3.2023    0.3288 H   0  0  0  0  0  0  0  0  0  0  0  0
   -0.7374    3.2067    0.5686 H   0  0  0  0  0  0  0  0  0  0  0  0
   -0.1439    3.3294   -0.9979 H   0  0  0  0  0  0  0  0  0  0  0  0
   -0.0007    1.3940   -0.0005 C   0  0  0  0  0  0  0  0  0  0  0  0
   -1.1918    0.6890    0.0002 C   0  0  0  0  0  0  0  0  0  0  0  0
   -2.0603    1.1816   -0.0006 H   0  0  0  0  0  0  0  0  0  0  0  0
   -1.1947   -0.6914   -0.0000 C   0  0  0  0  0  0  0  0  0  0  0  0
   -2.0725   -1.1890    0.0015 H   0  0  0  0  0  0  0  0  0  0  0  0
    0.0016   -1.3845    0.0000 C   0  0  0  0  0  0  0  0  0  0  0  0
   -0.0045   -2.3863   -0.0007 H   0  0  0  0  0  0  0  0  0  0  0  0
    1.1947   -0.6945    0.0000 C   0  0  0  0  0  0  0  0  0  0  0  0
    2.0783   -1.1938    0.0015 H   0  0  0  0  0  0  0  0  0  0  0  0
    1.1909    0.6874    0.0003 C   0  0  0  0  0  0  0  0  0  0  0  0
    2.0605    1.1866    0.0003 H   0  0  0  0  0  0  0  0  0  0  0  0
  1  5  1  0
  5  8  1  0
  1  2  1  0
  1  3  1  0
  1  4  1  0
  5  6  1  0
  5  7  1  0
  8  9  1  0
  8 10  1  0
  8 11  1  0
 12 16  1  0
 16 17  2  0
 17 19  1  0
 19 21  2  0
 21 23  1  0
 23 25  2  0
 25 16  1  0
 12 13  1  0
 12 14  1  0
 12 15  1  0
 17 18  1  0
 19 20  1  0
 21 22  1  0
 23 24  1  0
 25 26  1  0
M  CHG  1   8   1
M  END
>  <PDB_ID>  (2357) 
pdb3phe

>  <RESIDUE_NAME>  (2357) 
LYS   PHE

>  <FRAG_NAME>  (2357) 
ETAM   MBZ

>  <FRAG_ATOM_NUM>  (2357) 
fragi: 11  fragj: 15

>  <atom.prop.CHAIN_ID>  (2357) 
A A A A A A A A A A A Z Z Z Z Z Z Z Z Z Z Z Z Z Z Z

>  <atom.prop.IS_HEAVY_ATOM>  (2357) 
1 0 0 0 1 0 0 1 0 0 0 1 0 0 0 1 1 0 1 0 1 0 1 0 1 0

>  <DIFUSE_FUNC_ATOM>  (2357) 
n/a

>  <FINAL_SINGLE_POINT_ENERGY>  (2357) 
0

>  <NONCOV_INTER_ENERGY_QM>  (2357) 
0

>  <FF_Energy>  (2357) 
-5.03

>  <QM_Energy>  (2357) 
-12.09

>  <source>  (2357) 
ETAM_MBZ

>  <Index>  (2357) 
24590

$$$$
ETAM-pdb3phz-A-LYS-107:MBZ-pdb3phz-A-PHE-116
     RDKit          3D

 26 25  0  0  0  0  0  0  0  0999 V2000
   -2.6545   -0.3101    3.8234 C   0  0  0  0  0  0  0  0  0  0  0  0
   -2.5210   -0.6300    4.7427 H   0  0  0  0  0  0  0  0  0  0  0  0
   -2.6459   -1.0411    3.1671 H   0  0  0  0  0  0  0  0  0  0  0  0
   -3.6159    0.2006    3.7669 H   0  0  0  0  0  0  0  0  0  0  0  0
   -1.5509    0.6789    3.4780 C   0  0  0  0  0  0  0  0  0  0  0  0
   -1.6340    0.9423    2.5276 H   0  0  0  0  0  0  0  0  0  0  0  0
   -1.6189    1.4657    4.0743 H   0  0  0  0  0  0  0  0  0  0  0  0
   -0.2256    0.0137    3.6908 N   0  0  0  0  0  4  0  0  0  0  0  0
   -0.3755   -0.9333    3.9680 H   0  0  0  0  0  0  0  0  0  0  0  0
    0.2931    0.0385    2.8380 H   0  0  0  0  0  0  0  0  0  0  0  0
    0.2731    0.5002    4.4052 H   0  0  0  0  0  0  0  0  0  0  0  0
    0.0047    2.9416   -0.0631 C   0  0  0  0  0  0  0  0  0  0  0  0
    0.8483    3.2425    0.3379 H   0  0  0  0  0  0  0  0  0  0  0  0
   -0.7817    3.2665    0.4258 H   0  0  0  0  0  0  0  0  0  0  0  0
   -0.0453    3.3208   -1.0838 H   0  0  0  0  0  0  0  0  0  0  0  0
   -0.0150    1.4231   -0.0089 C   0  0  0  0  0  0  0  0  0  0  0  0
   -1.2148    0.7366   -0.0307 C   0  0  0  0  0  0  0  0  0  0  0  0
   -2.0790    1.2134   -0.0686 H   0  0  0  0  0  0  0  0  0  0  0  0
   -1.2296   -0.6912    0.0000 C   0  0  0  0  0  0  0  0  0  0  0  0
   -2.0905   -1.1796    0.0054 H   0  0  0  0  0  0  0  0  0  0  0  0
    0.0183   -1.4286    0.0258 C   0  0  0  0  0  0  0  0  0  0  0  0
   -0.0286   -2.4202    0.0613 H   0  0  0  0  0  0  0  0  0  0  0  0
    1.2296   -0.7561   -0.0000 C   0  0  0  0  0  0  0  0  0  0  0  0
    2.1069   -1.2115   -0.0260 H   0  0  0  0  0  0  0  0  0  0  0  0
    1.2115    0.7162    0.0138 C   0  0  0  0  0  0  0  0  0  0  0  0
    2.0708    1.1898    0.0385 H   0  0  0  0  0  0  0  0  0  0  0  0
  1  5  1  0
  5  8  1  0
  1  2  1  0
  1  3  1  0
  1  4  1  0
  5  6  1  0
  5  7  1  0
  8  9  1  0
  8 10  1  0
  8 11  1  0
 12 16  1  0
 16 17  2  0
 17 19  1  0
 19 21  2  0
 21 23  1  0
 23 25  2  0
 25 16  1  0
 12 13  1  0
 12 14  1  0
 12 15  1  0
 17 18  1  0
 19 20  1  0
 21 22  1  0
 23 24  1  0
 25 26  1  0
M  CHG  1   8   1
M  END
>  <PDB_ID>  (2358) 
pdb3phz

>  <RESIDUE_NAME>  (2358) 
LYS   PHE

>  <FRAG_NAME>  (2358) 
ETAM   MBZ

>  <FRAG_ATOM_NUM>  (2358) 
fragi: 11  fragj: 15

>  <atom.prop.CHAIN_ID>  (2358) 
A A A A A A A A A A A Z Z Z Z Z Z Z Z Z Z Z Z Z Z Z

>  <atom.prop.IS_HEAVY_ATOM>  (2358) 
1 0 0 0 1 0 0 1 0 0 0 1 0 0 0 1 1 0 1 0 1 0 1 0 1 0

>  <DIFUSE_FUNC_ATOM>  (2358) 
n/a

>  <FINAL_SINGLE_POINT_ENERGY>  (2358) 
0

>  <NONCOV_INTER_ENERGY_QM>  (2358) 
0

>  <FF_Energy>  (2358) 
-7.47

>  <QM_Energy>  (2358) 
-13.98

>  <source>  (2358) 
ETAM_MBZ

>  <Index>  (2358) 
24612

$$$$
ETAM-pdb3pdi-A-LYS-409:MBZ-pdb3pdi-B-PHE-218
     RDKit          3D

 26 25  0  0  0  0  0  0  0  0999 V2000
   -1.9903   -3.8932    1.2462 C   0  0  0  0  0  0  0  0  0  0  0  0
   -1.6144   -3.3122    0.5424 H   0  0  0  0  0  0  0  0  0  0  0  0
   -1.9110   -4.8484    1.0117 H   0  0  0  0  0  0  0  0  0  0  0  0
   -1.4436   -3.7148    2.1721 H   0  0  0  0  0  0  0  0  0  0  0  0
   -3.4543   -3.5511    1.4415 C   0  0  0  0  0  0  0  0  0  0  0  0
   -3.8965   -4.2920    1.9595 H   0  0  0  0  0  0  0  0  0  0  0  0
   -3.5226   -2.7033    1.9800 H   0  0  0  0  0  0  0  0  0  0  0  0
   -4.1680   -3.3663    0.1514 N   0  0  0  0  0  4  0  0  0  0  0  0
   -4.1297   -4.2153   -0.3748 H   0  0  0  0  0  0  0  0  0  0  0  0
   -5.1230   -3.1281    0.3306 H   0  0  0  0  0  0  0  0  0  0  0  0
   -3.7318   -2.6314   -0.3681 H   0  0  0  0  0  0  0  0  0  0  0  0
   -0.0160    2.9178   -0.0037 C   0  0  0  0  0  0  0  0  0  0  0  0
   -0.8562    3.2177    0.4289 H   0  0  0  0  0  0  0  0  0  0  0  0
    0.0221    3.2170   -0.9482 H   0  0  0  0  0  0  0  0  0  0  0  0
    0.8107    3.3949    0.5227 H   0  0  0  0  0  0  0  0  0  0  0  0
   -0.0000    1.4030    0.0076 C   0  0  0  0  0  0  0  0  0  0  0  0
   -1.1964    0.6986    0.0067 C   0  0  0  0  0  0  0  0  0  0  0  0
   -2.0623    1.1899    0.0097 H   0  0  0  0  0  0  0  0  0  0  0  0
   -1.1979   -0.6867   -0.0000 C   0  0  0  0  0  0  0  0  0  0  0  0
   -2.0763   -1.1840    0.0007 H   0  0  0  0  0  0  0  0  0  0  0  0
    0.0022   -1.3927   -0.0054 C   0  0  0  0  0  0  0  0  0  0  0  0
   -0.0135   -2.3914   -0.0130 H   0  0  0  0  0  0  0  0  0  0  0  0
    1.1979   -0.7067   -0.0000 C   0  0  0  0  0  0  0  0  0  0  0  0
    2.0805   -1.2022    0.0120 H   0  0  0  0  0  0  0  0  0  0  0  0
    1.1942    0.6846   -0.0090 C   0  0  0  0  0  0  0  0  0  0  0  0
    2.0650    1.1795   -0.0289 H   0  0  0  0  0  0  0  0  0  0  0  0
  1  5  1  0
  5  8  1  0
  1  2  1  0
  1  3  1  0
  1  4  1  0
  5  6  1  0
  5  7  1  0
  8  9  1  0
  8 10  1  0
  8 11  1  0
 12 16  1  0
 16 17  2  0
 17 19  1  0
 19 21  2  0
 21 23  1  0
 23 25  2  0
 25 16  1  0
 12 13  1  0
 12 14  1  0
 12 15  1  0
 17 18  1  0
 19 20  1  0
 21 22  1  0
 23 24  1  0
 25 26  1  0
M  CHG  1   8   1
M  END
>  <PDB_ID>  (2359) 
pdb3pdi

>  <RESIDUE_NAME>  (2359) 
LYS   PHE

>  <FRAG_NAME>  (2359) 
ETAM   MBZ

>  <FRAG_ATOM_NUM>  (2359) 
fragi: 11  fragj: 15

>  <atom.prop.CHAIN_ID>  (2359) 
A A A A A A A A A A A Z Z Z Z Z Z Z Z Z Z Z Z Z Z Z

>  <atom.prop.IS_HEAVY_ATOM>  (2359) 
1 0 0 0 1 0 0 1 0 0 0 1 0 0 0 1 1 0 1 0 1 0 1 0 1 0

>  <DIFUSE_FUNC_ATOM>  (2359) 
n/a

>  <FINAL_SINGLE_POINT_ENERGY>  (2359) 
0

>  <NONCOV_INTER_ENERGY_QM>  (2359) 
0

>  <FF_Energy>  (2359) 
2.97

>  <QM_Energy>  (2359) 
-2.42

>  <source>  (2359) 
ETAM_MBZ

>  <Index>  (2359) 
24613

$$$$
ETAM-pdb4nes-A-LYS-249:MBZ-pdb4nes-A-PHE-254
     RDKit          3D

 26 25  0  0  0  0  0  0  0  0999 V2000
    0.7358    1.6101   -4.7139 C   0  0  0  0  0  0  0  0  0  0  0  0
   -0.0938    1.4497   -5.2387 H   0  0  0  0  0  0  0  0  0  0  0  0
    1.4742    1.9008   -5.3130 H   0  0  0  0  0  0  0  0  0  0  0  0
    0.5435    2.3967   -3.9842 H   0  0  0  0  0  0  0  0  0  0  0  0
    1.1408    0.3142   -4.0375 C   0  0  0  0  0  0  0  0  0  0  0  0
    0.4635    0.0906   -3.3309 H   0  0  0  0  0  0  0  0  0  0  0  0
    1.1496   -0.4208   -4.7212 H   0  0  0  0  0  0  0  0  0  0  0  0
    2.4829    0.4188   -3.4139 N   0  0  0  0  0  4  0  0  0  0  0  0
    2.3928    0.3811   -2.4185 H   0  0  0  0  0  0  0  0  0  0  0  0
    3.0554   -0.3395   -3.7255 H   0  0  0  0  0  0  0  0  0  0  0  0
    2.9062    1.2856   -3.6768 H   0  0  0  0  0  0  0  0  0  0  0  0
   -0.0106    2.8979    0.0119 C   0  0  0  0  0  0  0  0  0  0  0  0
   -0.6761    3.2067   -0.6475 H   0  0  0  0  0  0  0  0  0  0  0  0
    0.8976    3.2125   -0.2095 H   0  0  0  0  0  0  0  0  0  0  0  0
   -0.2817    3.3154    0.9817 H   0  0  0  0  0  0  0  0  0  0  0  0
   -0.0005    1.3953   -0.0040 C   0  0  0  0  0  0  0  0  0  0  0  0
   -1.1934    0.6855    0.0019 C   0  0  0  0  0  0  0  0  0  0  0  0
   -2.0610    1.1800    0.0065 H   0  0  0  0  0  0  0  0  0  0  0  0
   -1.1969   -0.6927    0.0000 C   0  0  0  0  0  0  0  0  0  0  0  0
   -2.0747   -1.1914    0.0003 H   0  0  0  0  0  0  0  0  0  0  0  0
   -0.0008   -1.3854   -0.0005 C   0  0  0  0  0  0  0  0  0  0  0  0
   -0.0046   -2.3873   -0.0021 H   0  0  0  0  0  0  0  0  0  0  0  0
    1.1969   -0.6936    0.0000 C   0  0  0  0  0  0  0  0  0  0  0  0
    2.0789   -1.1942    0.0003 H   0  0  0  0  0  0  0  0  0  0  0  0
    1.1946    0.6908    0.0025 C   0  0  0  0  0  0  0  0  0  0  0  0
    2.0620    1.1885    0.0088 H   0  0  0  0  0  0  0  0  0  0  0  0
  1  5  1  0
  5  8  1  0
  1  2  1  0
  1  3  1  0
  1  4  1  0
  5  6  1  0
  5  7  1  0
  8  9  1  0
  8 10  1  0
  8 11  1  0
 12 16  1  0
 16 17  2  0
 17 19  1  0
 19 21  2  0
 21 23  1  0
 23 25  2  0
 25 16  1  0
 12 13  1  0
 12 14  1  0
 12 15  1  0
 17 18  1  0
 19 20  1  0
 21 22  1  0
 23 24  1  0
 25 26  1  0
M  CHG  1   8   1
M  END
>  <PDB_ID>  (2360) 
pdb4nes

>  <RESIDUE_NAME>  (2360) 
LYS   PHE

>  <FRAG_NAME>  (2360) 
ETAM   MBZ

>  <FRAG_ATOM_NUM>  (2360) 
fragi: 11  fragj: 15

>  <atom.prop.CHAIN_ID>  (2360) 
A A A A A A A A A A A Z Z Z Z Z Z Z Z Z Z Z Z Z Z Z

>  <atom.prop.IS_HEAVY_ATOM>  (2360) 
1 0 0 0 1 0 0 1 0 0 0 1 0 0 0 1 1 0 1 0 1 0 1 0 1 0

>  <DIFUSE_FUNC_ATOM>  (2360) 
n/a

>  <FINAL_SINGLE_POINT_ENERGY>  (2360) 
0

>  <NONCOV_INTER_ENERGY_QM>  (2360) 
0

>  <FF_Energy>  (2360) 
-4.95

>  <QM_Energy>  (2360) 
-10.55

>  <source>  (2360) 
ETAM_MBZ

>  <Index>  (2360) 
24629

$$$$
ETAM-pdb4ng2-A-LYS-16:MBZ-pdb4ng2-A-PHE-51
     RDKit          3D

 26 25  0  0  0  0  0  0  0  0999 V2000
   -4.4208   -1.8868    0.2607 C   0  0  0  0  0  0  0  0  0  0  0  0
   -5.0406   -1.9307    1.0354 H   0  0  0  0  0  0  0  0  0  0  0  0
   -3.5672   -1.4518    0.5195 H   0  0  0  0  0  0  0  0  0  0  0  0
   -4.2079   -2.9027   -0.0719 H   0  0  0  0  0  0  0  0  0  0  0  0
   -5.0779   -1.0531   -0.8438 C   0  0  0  0  0  0  0  0  0  0  0  0
   -4.5068   -1.1026   -1.6688 H   0  0  0  0  0  0  0  0  0  0  0  0
   -5.9788   -1.4449   -1.0513 H   0  0  0  0  0  0  0  0  0  0  0  0
   -5.2487    0.3851   -0.4539 N   0  0  0  0  0  4  0  0  0  0  0  0
   -4.4926    0.9167   -0.8297 H   0  0  0  0  0  0  0  0  0  0  0  0
   -6.1136    0.7210   -0.8193 H   0  0  0  0  0  0  0  0  0  0  0  0
   -5.2501    0.4546    0.5416 H   0  0  0  0  0  0  0  0  0  0  0  0
    0.0011    2.9048   -0.0388 C   0  0  0  0  0  0  0  0  0  0  0  0
   -0.7384    3.1932   -0.6349 H   0  0  0  0  0  0  0  0  0  0  0  0
    0.8780    3.1941   -0.4045 H   0  0  0  0  0  0  0  0  0  0  0  0
   -0.1370    3.3940    0.9254 H   0  0  0  0  0  0  0  0  0  0  0  0
   -0.0040    1.3983    0.0068 C   0  0  0  0  0  0  0  0  0  0  0  0
   -1.1891    0.6923   -0.0117 C   0  0  0  0  0  0  0  0  0  0  0  0
   -2.0599    1.1808   -0.0350 H   0  0  0  0  0  0  0  0  0  0  0  0
   -1.1891   -0.6898    0.0000 C   0  0  0  0  0  0  0  0  0  0  0  0
   -2.0692   -1.1871    0.0061 H   0  0  0  0  0  0  0  0  0  0  0  0
    0.0049   -1.3858    0.0059 C   0  0  0  0  0  0  0  0  0  0  0  0
   -0.0081   -2.3891    0.0139 H   0  0  0  0  0  0  0  0  0  0  0  0
    1.1891   -0.7017   -0.0000 C   0  0  0  0  0  0  0  0  0  0  0  0
    2.0773   -1.1957   -0.0018 H   0  0  0  0  0  0  0  0  0  0  0  0
    1.1883    0.6867   -0.0010 C   0  0  0  0  0  0  0  0  0  0  0  0
    2.0587    1.1807   -0.0080 H   0  0  0  0  0  0  0  0  0  0  0  0
  1  5  1  0
  5  8  1  0
  1  2  1  0
  1  3  1  0
  1  4  1  0
  5  6  1  0
  5  7  1  0
  8  9  1  0
  8 10  1  0
  8 11  1  0
 12 16  1  0
 16 17  2  0
 17 19  1  0
 19 21  2  0
 21 23  1  0
 23 25  2  0
 25 16  1  0
 12 13  1  0
 12 14  1  0
 12 15  1  0
 17 18  1  0
 19 20  1  0
 21 22  1  0
 23 24  1  0
 25 26  1  0
M  CHG  1   8   1
M  END
>  <PDB_ID>  (2361) 
pdb4ng2

>  <RESIDUE_NAME>  (2361) 
LYS   PHE

>  <FRAG_NAME>  (2361) 
ETAM   MBZ

>  <FRAG_ATOM_NUM>  (2361) 
fragi: 11  fragj: 15

>  <atom.prop.CHAIN_ID>  (2361) 
A A A A A A A A A A A Z Z Z Z Z Z Z Z Z Z Z Z Z Z Z

>  <atom.prop.IS_HEAVY_ATOM>  (2361) 
1 0 0 0 1 0 0 1 0 0 0 1 0 0 0 1 1 0 1 0 1 0 1 0 1 0

>  <DIFUSE_FUNC_ATOM>  (2361) 
n/a

>  <FINAL_SINGLE_POINT_ENERGY>  (2361) 
0

>  <NONCOV_INTER_ENERGY_QM>  (2361) 
0

>  <FF_Energy>  (2361) 
14.9

>  <QM_Energy>  (2361) 
0.33

>  <source>  (2361) 
ETAM_MBZ

>  <Index>  (2361) 
24646

$$$$
ETAM-pdb4ni3-A-LYS-584:MBZ-pdb4ni3-B-PHE-238
     RDKit          3D

 26 25  0  0  0  0  0  0  0  0999 V2000
    0.1091   -5.0267    3.6449 C   0  0  0  0  0  0  0  0  0  0  0  0
   -0.8663   -5.2011    3.6922 H   0  0  0  0  0  0  0  0  0  0  0  0
    0.3057   -4.0691    3.8104 H   0  0  0  0  0  0  0  0  0  0  0  0
    0.6119   -5.6272    4.4028 H   0  0  0  0  0  0  0  0  0  0  0  0
    0.6011   -5.3894    2.2478 C   0  0  0  0  0  0  0  0  0  0  0  0
    1.5950   -5.2344    2.2036 H   0  0  0  0  0  0  0  0  0  0  0  0
    0.4254   -6.3670    2.0856 H   0  0  0  0  0  0  0  0  0  0  0  0
   -0.0632   -4.5917    1.1726 N   0  0  0  0  0  4  0  0  0  0  0  0
    0.0433   -3.6186    1.3718 H   0  0  0  0  0  0  0  0  0  0  0  0
    0.3629   -4.8051    0.2947 H   0  0  0  0  0  0  0  0  0  0  0  0
   -1.0338   -4.8253    1.1422 H   0  0  0  0  0  0  0  0  0  0  0  0
   -0.0140    2.8926   -0.0393 C   0  0  0  0  0  0  0  0  0  0  0  0
   -0.6861    3.1772   -0.7075 H   0  0  0  0  0  0  0  0  0  0  0  0
    0.8924    3.2009   -0.2914 H   0  0  0  0  0  0  0  0  0  0  0  0
   -0.2708    3.3643    0.9092 H   0  0  0  0  0  0  0  0  0  0  0  0
   -0.0026    1.3900    0.0011 C   0  0  0  0  0  0  0  0  0  0  0  0
   -1.1913    0.6883    0.0001 C   0  0  0  0  0  0  0  0  0  0  0  0
   -2.0602    1.1778   -0.0025 H   0  0  0  0  0  0  0  0  0  0  0  0
   -1.1942   -0.6965    0.0000 C   0  0  0  0  0  0  0  0  0  0  0  0
   -2.0702   -1.1925   -0.0019 H   0  0  0  0  0  0  0  0  0  0  0  0
    0.0037   -1.3813    0.0042 C   0  0  0  0  0  0  0  0  0  0  0  0
    0.0005   -2.3867    0.0098 H   0  0  0  0  0  0  0  0  0  0  0  0
    1.1942   -0.6930    0.0000 C   0  0  0  0  0  0  0  0  0  0  0  0
    2.0786   -1.1893    0.0025 H   0  0  0  0  0  0  0  0  0  0  0  0
    1.1902    0.6925   -0.0054 C   0  0  0  0  0  0  0  0  0  0  0  0
    2.0579    1.1895   -0.0144 H   0  0  0  0  0  0  0  0  0  0  0  0
  1  5  1  0
  5  8  1  0
  1  2  1  0
  1  3  1  0
  1  4  1  0
  5  6  1  0
  5  7  1  0
  8  9  1  0
  8 10  1  0
  8 11  1  0
 12 16  1  0
 16 17  2  0
 17 19  1  0
 19 21  2  0
 21 23  1  0
 23 25  2  0
 25 16  1  0
 12 13  1  0
 12 14  1  0
 12 15  1  0
 17 18  1  0
 19 20  1  0
 21 22  1  0
 23 24  1  0
 25 26  1  0
M  CHG  1   8   1
M  END
>  <PDB_ID>  (2362) 
pdb4ni3

>  <RESIDUE_NAME>  (2362) 
LYS   PHE

>  <FRAG_NAME>  (2362) 
ETAM   MBZ

>  <FRAG_ATOM_NUM>  (2362) 
fragi: 11  fragj: 15

>  <atom.prop.CHAIN_ID>  (2362) 
A A A A A A A A A A A Z Z Z Z Z Z Z Z Z Z Z Z Z Z Z

>  <atom.prop.IS_HEAVY_ATOM>  (2362) 
1 0 0 0 1 0 0 1 0 0 0 1 0 0 0 1 1 0 1 0 1 0 1 0 1 0

>  <DIFUSE_FUNC_ATOM>  (2362) 
n/a

>  <FINAL_SINGLE_POINT_ENERGY>  (2362) 
0

>  <NONCOV_INTER_ENERGY_QM>  (2362) 
0

>  <FF_Energy>  (2362) 
2.15

>  <QM_Energy>  (2362) 
-3.87

>  <source>  (2362) 
ETAM_MBZ

>  <Index>  (2362) 
24685

$$$$
ETAM-pdb4nhx-A-LYS-145:MBZ-pdb4nhx-A-PHE-88
     RDKit          3D

 26 25  0  0  0  0  0  0  0  0999 V2000
    0.3515   -0.9211   -4.6736 C   0  0  0  0  0  0  0  0  0  0  0  0
   -0.1225   -1.3280   -5.4513 H   0  0  0  0  0  0  0  0  0  0  0  0
    0.4188   -1.5835   -3.9317 H   0  0  0  0  0  0  0  0  0  0  0  0
    1.3598   -0.6515   -4.9878 H   0  0  0  0  0  0  0  0  0  0  0  0
   -0.4310    0.2774   -4.1928 C   0  0  0  0  0  0  0  0  0  0  0  0
   -0.2396    1.0551   -4.7956 H   0  0  0  0  0  0  0  0  0  0  0  0
   -1.4099    0.0664   -4.2342 H   0  0  0  0  0  0  0  0  0  0  0  0
   -0.0634    0.6271   -2.8092 N   0  0  0  0  0  4  0  0  0  0  0  0
   -0.5095    1.4855   -2.5468 H   0  0  0  0  0  0  0  0  0  0  0  0
   -0.3570   -0.1003   -2.1860 H   0  0  0  0  0  0  0  0  0  0  0  0
    0.9299    0.7375   -2.7395 H   0  0  0  0  0  0  0  0  0  0  0  0
   -0.0004    2.8964    0.0006 C   0  0  0  0  0  0  0  0  0  0  0  0
   -0.7446    3.2023   -0.5725 H   0  0  0  0  0  0  0  0  0  0  0  0
    0.8723    3.2008   -0.3475 H   0  0  0  0  0  0  0  0  0  0  0  0
   -0.1375    3.3322    0.9902 H   0  0  0  0  0  0  0  0  0  0  0  0
   -0.0019    1.3956    0.0008 C   0  0  0  0  0  0  0  0  0  0  0  0
   -1.1959    0.6830    0.0008 C   0  0  0  0  0  0  0  0  0  0  0  0
   -2.0632    1.1728   -0.0002 H   0  0  0  0  0  0  0  0  0  0  0  0
   -1.1918   -0.6978   -0.0000 C   0  0  0  0  0  0  0  0  0  0  0  0
   -2.0651   -1.2007    0.0020 H   0  0  0  0  0  0  0  0  0  0  0  0
    0.0109   -1.3824   -0.0012 C   0  0  0  0  0  0  0  0  0  0  0  0
    0.0053   -2.3863   -0.0035 H   0  0  0  0  0  0  0  0  0  0  0  0
    1.1918   -0.6916    0.0000 C   0  0  0  0  0  0  0  0  0  0  0  0
    2.0826   -1.1844    0.0028 H   0  0  0  0  0  0  0  0  0  0  0  0
    1.1869    0.6932   -0.0004 C   0  0  0  0  0  0  0  0  0  0  0  0
    2.0582    1.1898   -0.0021 H   0  0  0  0  0  0  0  0  0  0  0  0
  1  5  1  0
  5  8  1  0
  1  2  1  0
  1  3  1  0
  1  4  1  0
  5  6  1  0
  5  7  1  0
  8  9  1  0
  8 10  1  0
  8 11  1  0
 12 16  1  0
 16 17  2  0
 17 19  1  0
 19 21  2  0
 21 23  1  0
 23 25  2  0
 25 16  1  0
 12 13  1  0
 12 14  1  0
 12 15  1  0
 17 18  1  0
 19 20  1  0
 21 22  1  0
 23 24  1  0
 25 26  1  0
M  CHG  1   8   1
M  END
>  <PDB_ID>  (2363) 
pdb4nhx

>  <RESIDUE_NAME>  (2363) 
LYS   PHE

>  <FRAG_NAME>  (2363) 
ETAM   MBZ

>  <FRAG_ATOM_NUM>  (2363) 
fragi: 11  fragj: 15

>  <atom.prop.CHAIN_ID>  (2363) 
A A A A A A A A A A A Z Z Z Z Z Z Z Z Z Z Z Z Z Z Z

>  <atom.prop.IS_HEAVY_ATOM>  (2363) 
1 0 0 0 1 0 0 1 0 0 0 1 0 0 0 1 1 0 1 0 1 0 1 0 1 0

>  <DIFUSE_FUNC_ATOM>  (2363) 
n/a

>  <FINAL_SINGLE_POINT_ENERGY>  (2363) 
0

>  <NONCOV_INTER_ENERGY_QM>  (2363) 
0

>  <FF_Energy>  (2363) 
-7.46

>  <QM_Energy>  (2363) 
-16.17

>  <source>  (2363) 
ETAM_MBZ

>  <Index>  (2363) 
24690

$$$$
ETAM-pdb3pef-C-LYS-283:MBZ-pdb3pef-C-PHE-273
     RDKit          3D

 26 25  0  0  0  0  0  0  0  0999 V2000
   -0.9366   -2.0165    4.1060 C   0  0  0  0  0  0  0  0  0  0  0  0
   -1.0374   -2.6831    3.3766 H   0  0  0  0  0  0  0  0  0  0  0  0
   -1.5434   -2.2307    4.8622 H   0  0  0  0  0  0  0  0  0  0  0  0
    0.0925   -2.0439    4.4643 H   0  0  0  0  0  0  0  0  0  0  0  0
   -1.2924   -0.6438    3.5663 C   0  0  0  0  0  0  0  0  0  0  0  0
   -1.1863    0.0330    4.2954 H   0  0  0  0  0  0  0  0  0  0  0  0
   -0.6752   -0.4173    2.8112 H   0  0  0  0  0  0  0  0  0  0  0  0
   -2.7028   -0.6058    3.0697 N   0  0  0  0  0  4  0  0  0  0  0  0
   -2.6975   -0.5426    2.0735 H   0  0  0  0  0  0  0  0  0  0  0  0
   -3.1722   -1.4396    3.3524 H   0  0  0  0  0  0  0  0  0  0  0  0
   -3.1653    0.1897    3.4563 H   0  0  0  0  0  0  0  0  0  0  0  0
   -0.0007    2.9069    0.0096 C   0  0  0  0  0  0  0  0  0  0  0  0
    0.9132    3.2137   -0.2086 H   0  0  0  0  0  0  0  0  0  0  0  0
   -0.2778    3.2080    0.9095 H   0  0  0  0  0  0  0  0  0  0  0  0
   -0.6811    3.3583   -0.7125 H   0  0  0  0  0  0  0  0  0  0  0  0
   -0.0028    1.3999   -0.0007 C   0  0  0  0  0  0  0  0  0  0  0  0
   -1.1892    0.6944    0.0020 C   0  0  0  0  0  0  0  0  0  0  0  0
   -2.0602    1.1800    0.0034 H   0  0  0  0  0  0  0  0  0  0  0  0
   -1.1899   -0.6940    0.0000 C   0  0  0  0  0  0  0  0  0  0  0  0
   -2.0705   -1.1878    0.0044 H   0  0  0  0  0  0  0  0  0  0  0  0
    0.0033   -1.3890   -0.0069 C   0  0  0  0  0  0  0  0  0  0  0  0
   -0.0075   -2.3921   -0.0175 H   0  0  0  0  0  0  0  0  0  0  0  0
    1.1899   -0.7045   -0.0000 C   0  0  0  0  0  0  0  0  0  0  0  0
    2.0779   -1.1953    0.0025 H   0  0  0  0  0  0  0  0  0  0  0  0
    1.1887    0.6932    0.0057 C   0  0  0  0  0  0  0  0  0  0  0  0
    2.0597    1.1828    0.0142 H   0  0  0  0  0  0  0  0  0  0  0  0
  1  5  1  0
  5  8  1  0
  1  2  1  0
  1  3  1  0
  1  4  1  0
  5  6  1  0
  5  7  1  0
  8  9  1  0
  8 10  1  0
  8 11  1  0
 12 16  1  0
 16 17  2  0
 17 19  1  0
 19 21  2  0
 21 23  1  0
 23 25  2  0
 25 16  1  0
 12 13  1  0
 12 14  1  0
 12 15  1  0
 17 18  1  0
 19 20  1  0
 21 22  1  0
 23 24  1  0
 25 26  1  0
M  CHG  1   8   1
M  END
>  <PDB_ID>  (2364) 
pdb3pef

>  <RESIDUE_NAME>  (2364) 
LYS   PHE

>  <FRAG_NAME>  (2364) 
ETAM   MBZ

>  <FRAG_ATOM_NUM>  (2364) 
fragi: 11  fragj: 15

>  <atom.prop.CHAIN_ID>  (2364) 
A A A A A A A A A A A Z Z Z Z Z Z Z Z Z Z Z Z Z Z Z

>  <atom.prop.IS_HEAVY_ATOM>  (2364) 
1 0 0 0 1 0 0 1 0 0 0 1 0 0 0 1 1 0 1 0 1 0 1 0 1 0

>  <DIFUSE_FUNC_ATOM>  (2364) 
n/a

>  <FINAL_SINGLE_POINT_ENERGY>  (2364) 
0

>  <NONCOV_INTER_ENERGY_QM>  (2364) 
0

>  <FF_Energy>  (2364) 
-4.35

>  <QM_Energy>  (2364) 
-11.03

>  <source>  (2364) 
ETAM_MBZ

>  <Index>  (2364) 
24715

$$$$
ETAM-pdb3pl1-A-LYS-48:MBZ-pdb3pl1-A-PHE-81
     RDKit          3D

 26 25  0  0  0  0  0  0  0  0999 V2000
   -0.5208   -1.6597   -4.2823 C   0  0  0  0  0  0  0  0  0  0  0  0
    0.1921   -2.3376   -4.2746 H   0  0  0  0  0  0  0  0  0  0  0  0
   -0.7346   -1.3568   -5.1939 H   0  0  0  0  0  0  0  0  0  0  0  0
   -1.4176   -2.0996   -3.8460 H   0  0  0  0  0  0  0  0  0  0  0  0
   -0.0583   -0.4450   -3.4523 C   0  0  0  0  0  0  0  0  0  0  0  0
   -0.6780    0.3108   -3.6307 H   0  0  0  0  0  0  0  0  0  0  0  0
   -0.0829   -0.6936   -2.4900 H   0  0  0  0  0  0  0  0  0  0  0  0
    1.3229   -0.0649   -3.8379 N   0  0  0  0  0  4  0  0  0  0  0  0
    1.4611   -0.2518   -4.8111 H   0  0  0  0  0  0  0  0  0  0  0  0
    1.4624    0.9099   -3.6628 H   0  0  0  0  0  0  0  0  0  0  0  0
    1.9777   -0.5962   -3.3002 H   0  0  0  0  0  0  0  0  0  0  0  0
   -0.0223    2.9121   -0.0202 C   0  0  0  0  0  0  0  0  0  0  0  0
    0.9098    3.2213   -0.1039 H   0  0  0  0  0  0  0  0  0  0  0  0
   -0.4381    3.2222    0.8183 H   0  0  0  0  0  0  0  0  0  0  0  0
   -0.5913    3.3265   -0.8525 H   0  0  0  0  0  0  0  0  0  0  0  0
   -0.0084    1.4007    0.0019 C   0  0  0  0  0  0  0  0  0  0  0  0
   -1.2035    0.6905   -0.0083 C   0  0  0  0  0  0  0  0  0  0  0  0
   -2.0695    1.2038   -0.0237 H   0  0  0  0  0  0  0  0  0  0  0  0
   -1.2278   -0.6710    0.0000 C   0  0  0  0  0  0  0  0  0  0  0  0
   -2.0877   -1.1844    0.0036 H   0  0  0  0  0  0  0  0  0  0  0  0
    0.0116   -1.4149    0.0058 C   0  0  0  0  0  0  0  0  0  0  0  0
   -0.0186   -2.3944    0.0134 H   0  0  0  0  0  0  0  0  0  0  0  0
    1.2278   -0.7104   -0.0000 C   0  0  0  0  0  0  0  0  0  0  0  0
    2.1026   -1.1914   -0.0030 H   0  0  0  0  0  0  0  0  0  0  0  0
    1.2003    0.7051    0.0006 C   0  0  0  0  0  0  0  0  0  0  0  0
    2.0637    1.2033   -0.0009 H   0  0  0  0  0  0  0  0  0  0  0  0
  1  5  1  0
  5  8  1  0
  1  2  1  0
  1  3  1  0
  1  4  1  0
  5  6  1  0
  5  7  1  0
  8  9  1  0
  8 10  1  0
  8 11  1  0
 12 16  1  0
 16 17  2  0
 17 19  1  0
 19 21  2  0
 21 23  1  0
 23 25  2  0
 25 16  1  0
 12 13  1  0
 12 14  1  0
 12 15  1  0
 17 18  1  0
 19 20  1  0
 21 22  1  0
 23 24  1  0
 25 26  1  0
M  CHG  1   8   1
M  END
>  <PDB_ID>  (2365) 
pdb3pl1

>  <RESIDUE_NAME>  (2365) 
LYS   PHE

>  <FRAG_NAME>  (2365) 
ETAM   MBZ

>  <FRAG_ATOM_NUM>  (2365) 
fragi: 11  fragj: 15

>  <atom.prop.CHAIN_ID>  (2365) 
A A A A A A A A A A A Z Z Z Z Z Z Z Z Z Z Z Z Z Z Z

>  <atom.prop.IS_HEAVY_ATOM>  (2365) 
1 0 0 0 1 0 0 1 0 0 0 1 0 0 0 1 1 0 1 0 1 0 1 0 1 0

>  <DIFUSE_FUNC_ATOM>  (2365) 
n/a

>  <FINAL_SINGLE_POINT_ENERGY>  (2365) 
0

>  <NONCOV_INTER_ENERGY_QM>  (2365) 
0

>  <FF_Energy>  (2365) 
-5.59

>  <QM_Energy>  (2365) 
-11.45

>  <source>  (2365) 
ETAM_MBZ

>  <Index>  (2365) 
24730

$$$$
ETAM-pdb4niq-A-LYS-59:MBZ-pdb4niq-C-PHE-198
     RDKit          3D

 26 25  0  0  0  0  0  0  0  0999 V2000
    0.0355    2.8015   -3.7846 C   0  0  0  0  0  0  0  0  0  0  0  0
    0.3101    2.9107   -4.7368 H   0  0  0  0  0  0  0  0  0  0  0  0
   -0.9533    2.8997   -3.7017 H   0  0  0  0  0  0  0  0  0  0  0  0
    0.3153    1.8007   -3.4556 H   0  0  0  0  0  0  0  0  0  0  0  0
    0.7033    3.8748   -2.9567 C   0  0  0  0  0  0  0  0  0  0  0  0
    0.4393    3.7643   -1.9966 H   0  0  0  0  0  0  0  0  0  0  0  0
    1.6982    3.7844   -3.0368 H   0  0  0  0  0  0  0  0  0  0  0  0
    0.3031    5.2390   -3.4156 N   0  0  0  0  0  4  0  0  0  0  0  0
    0.9028    5.5246   -4.1618 H   0  0  0  0  0  0  0  0  0  0  0  0
   -0.6428    5.2141   -3.7343 H   0  0  0  0  0  0  0  0  0  0  0  0
    0.3855    5.8796   -2.6534 H   0  0  0  0  0  0  0  0  0  0  0  0
    0.0041    2.8985    0.0112 C   0  0  0  0  0  0  0  0  0  0  0  0
   -0.8046    3.2102   -0.4616 H   0  0  0  0  0  0  0  0  0  0  0  0
    0.8283    3.2068   -0.4357 H   0  0  0  0  0  0  0  0  0  0  0  0
   -0.0109    3.3196    1.0165 H   0  0  0  0  0  0  0  0  0  0  0  0
    0.0012    1.3937   -0.0062 C   0  0  0  0  0  0  0  0  0  0  0  0
   -1.1922    0.6860   -0.0002 C   0  0  0  0  0  0  0  0  0  0  0  0
   -2.0596    1.1781    0.0023 H   0  0  0  0  0  0  0  0  0  0  0  0
   -1.1946   -0.6955   -0.0000 C   0  0  0  0  0  0  0  0  0  0  0  0
   -2.0707   -1.1936    0.0008 H   0  0  0  0  0  0  0  0  0  0  0  0
    0.0037   -1.3864    0.0010 C   0  0  0  0  0  0  0  0  0  0  0  0
    0.0023   -2.3865    0.0014 H   0  0  0  0  0  0  0  0  0  0  0  0
    1.1946   -0.6879    0.0000 C   0  0  0  0  0  0  0  0  0  0  0  0
    2.0804   -1.1866   -0.0030 H   0  0  0  0  0  0  0  0  0  0  0  0
    1.1873    0.6903    0.0054 C   0  0  0  0  0  0  0  0  0  0  0  0
    2.0595    1.1900    0.0166 H   0  0  0  0  0  0  0  0  0  0  0  0
  1  5  1  0
  5  8  1  0
  1  2  1  0
  1  3  1  0
  1  4  1  0
  5  6  1  0
  5  7  1  0
  8  9  1  0
  8 10  1  0
  8 11  1  0
 12 16  1  0
 16 17  2  0
 17 19  1  0
 19 21  2  0
 21 23  1  0
 23 25  2  0
 25 16  1  0
 12 13  1  0
 12 14  1  0
 12 15  1  0
 17 18  1  0
 19 20  1  0
 21 22  1  0
 23 24  1  0
 25 26  1  0
M  CHG  1   8   1
M  END
>  <PDB_ID>  (2366) 
pdb4niq

>  <RESIDUE_NAME>  (2366) 
LYS   PHE

>  <FRAG_NAME>  (2366) 
ETAM   MBZ

>  <FRAG_ATOM_NUM>  (2366) 
fragi: 11  fragj: 15

>  <atom.prop.CHAIN_ID>  (2366) 
A A A A A A A A A A A Z Z Z Z Z Z Z Z Z Z Z Z Z Z Z

>  <atom.prop.IS_HEAVY_ATOM>  (2366) 
1 0 0 0 1 0 0 1 0 0 0 1 0 0 0 1 1 0 1 0 1 0 1 0 1 0

>  <DIFUSE_FUNC_ATOM>  (2366) 
n/a

>  <FINAL_SINGLE_POINT_ENERGY>  (2366) 
0

>  <NONCOV_INTER_ENERGY_QM>  (2366) 
0

>  <FF_Energy>  (2366) 
11.19

>  <QM_Energy>  (2366) 
-0.5

>  <source>  (2366) 
ETAM_MBZ

>  <Index>  (2366) 
24731

$$$$
ETAM-pdb4n4p-A-LYS-63:MBZ-pdb4n4p-A-PHE-59
     RDKit          3D

 26 25  0  0  0  0  0  0  0  0999 V2000
    0.4522   -0.9623    4.1259 C   0  0  0  0  0  0  0  0  0  0  0  0
    0.6304   -0.0921    3.6718 H   0  0  0  0  0  0  0  0  0  0  0  0
    0.9325   -0.9939    4.9999 H   0  0  0  0  0  0  0  0  0  0  0  0
   -0.6167   -1.0153    4.3328 H   0  0  0  0  0  0  0  0  0  0  0  0
    0.8890   -2.0787    3.2679 C   0  0  0  0  0  0  0  0  0  0  0  0
    0.7014   -2.9516    3.7075 H   0  0  0  0  0  0  0  0  0  0  0  0
    0.4377   -2.0352    2.3819 H   0  0  0  0  0  0  0  0  0  0  0  0
    2.3709   -1.9707    3.0484 N   0  0  0  0  0  4  0  0  0  0  0  0
    2.8290   -2.6864    3.5702 H   0  0  0  0  0  0  0  0  0  0  0  0
    2.5637   -2.0813    2.0765 H   0  0  0  0  0  0  0  0  0  0  0  0
    2.6802   -1.0741    3.3568 H   0  0  0  0  0  0  0  0  0  0  0  0
    0.0351    2.9052   -0.0202 C   0  0  0  0  0  0  0  0  0  0  0  0
   -0.2750    3.2002   -0.9142 H   0  0  0  0  0  0  0  0  0  0  0  0
    0.9697    3.1909    0.1430 H   0  0  0  0  0  0  0  0  0  0  0  0
   -0.5992    3.3763    0.7307 H   0  0  0  0  0  0  0  0  0  0  0  0
    0.0060    1.3970    0.0014 C   0  0  0  0  0  0  0  0  0  0  0  0
   -1.1973    0.7003   -0.0009 C   0  0  0  0  0  0  0  0  0  0  0  0
   -2.0586    1.1905   -0.0045 H   0  0  0  0  0  0  0  0  0  0  0  0
   -1.1987   -0.6917   -0.0000 C   0  0  0  0  0  0  0  0  0  0  0  0
   -2.0778   -1.1843    0.0009 H   0  0  0  0  0  0  0  0  0  0  0  0
   -0.0024   -1.3886    0.0016 C   0  0  0  0  0  0  0  0  0  0  0  0
   -0.0110   -2.3904    0.0028 H   0  0  0  0  0  0  0  0  0  0  0  0
    1.1987   -0.7023   -0.0000 C   0  0  0  0  0  0  0  0  0  0  0  0
    2.0784   -1.2012    0.0019 H   0  0  0  0  0  0  0  0  0  0  0  0
    1.1937    0.6853   -0.0021 C   0  0  0  0  0  0  0  0  0  0  0  0
    2.0674    1.1803   -0.0068 H   0  0  0  0  0  0  0  0  0  0  0  0
  1  5  1  0
  5  8  1  0
  1  2  1  0
  1  3  1  0
  1  4  1  0
  5  6  1  0
  5  7  1  0
  8  9  1  0
  8 10  1  0
  8 11  1  0
 12 16  1  0
 16 17  2  0
 17 19  1  0
 19 21  2  0
 21 23  1  0
 23 25  2  0
 25 16  1  0
 12 13  1  0
 12 14  1  0
 12 15  1  0
 17 18  1  0
 19 20  1  0
 21 22  1  0
 23 24  1  0
 25 26  1  0
M  CHG  1   8   1
M  END
>  <PDB_ID>  (2367) 
pdb4n4p

>  <RESIDUE_NAME>  (2367) 
LYS   PHE

>  <FRAG_NAME>  (2367) 
ETAM   MBZ

>  <FRAG_ATOM_NUM>  (2367) 
fragi: 11  fragj: 15

>  <atom.prop.CHAIN_ID>  (2367) 
A A A A A A A A A A A Z Z Z Z Z Z Z Z Z Z Z Z Z Z Z

>  <atom.prop.IS_HEAVY_ATOM>  (2367) 
1 0 0 0 1 0 0 1 0 0 0 1 0 0 0 1 1 0 1 0 1 0 1 0 1 0

>  <DIFUSE_FUNC_ATOM>  (2367) 
n/a

>  <FINAL_SINGLE_POINT_ENERGY>  (2367) 
0

>  <NONCOV_INTER_ENERGY_QM>  (2367) 
0

>  <FF_Energy>  (2367) 
-2.32

>  <QM_Energy>  (2367) 
-8.94

>  <source>  (2367) 
ETAM_MBZ

>  <Index>  (2367) 
24732

$$$$
ETAM-pdb3pqd-A-LYS-103:MBZ-pdb3pqd-A-PHE-135
     RDKit          3D

 26 25  0  0  0  0  0  0  0  0999 V2000
   -0.4758   -2.9076    2.7029 C   0  0  0  0  0  0  0  0  0  0  0  0
   -0.3673   -2.4590    1.8197 H   0  0  0  0  0  0  0  0  0  0  0  0
    0.1894   -3.6440    2.7956 H   0  0  0  0  0  0  0  0  0  0  0  0
   -0.2827   -2.1723    3.4840 H   0  0  0  0  0  0  0  0  0  0  0  0
   -1.8670   -3.4822    2.7994 C   0  0  0  0  0  0  0  0  0  0  0  0
   -2.1332   -3.8545    1.9102 H   0  0  0  0  0  0  0  0  0  0  0  0
   -1.8769   -4.2130    3.4831 H   0  0  0  0  0  0  0  0  0  0  0  0
   -2.8426   -2.4313    3.1980 N   0  0  0  0  0  4  0  0  0  0  0  0
   -3.4967   -2.2870    2.4557 H   0  0  0  0  0  0  0  0  0  0  0  0
   -3.3288   -2.7255    4.0204 H   0  0  0  0  0  0  0  0  0  0  0  0
   -2.3546   -1.5789    3.3840 H   0  0  0  0  0  0  0  0  0  0  0  0
   -0.0018    2.8875   -0.0081 C   0  0  0  0  0  0  0  0  0  0  0  0
    0.8192    3.1977   -0.4636 H   0  0  0  0  0  0  0  0  0  0  0  0
   -0.0346    3.2030    0.9279 H   0  0  0  0  0  0  0  0  0  0  0  0
   -0.8546    3.3183   -0.5328 H   0  0  0  0  0  0  0  0  0  0  0  0
    0.0021    1.3945    0.0000 C   0  0  0  0  0  0  0  0  0  0  0  0
   -1.1921    0.6928   -0.0006 C   0  0  0  0  0  0  0  0  0  0  0  0
   -2.0586    1.1822   -0.0026 H   0  0  0  0  0  0  0  0  0  0  0  0
   -1.1966   -0.6978   -0.0000 C   0  0  0  0  0  0  0  0  0  0  0  0
   -2.0763   -1.1889    0.0016 H   0  0  0  0  0  0  0  0  0  0  0  0
   -0.0036   -1.3865    0.0003 C   0  0  0  0  0  0  0  0  0  0  0  0
   -0.0021   -2.3882    0.0005 H   0  0  0  0  0  0  0  0  0  0  0  0
    1.1966   -0.6920    0.0000 C   0  0  0  0  0  0  0  0  0  0  0  0
    2.0772   -1.1941    0.0011 H   0  0  0  0  0  0  0  0  0  0  0  0
    1.1935    0.6891    0.0002 C   0  0  0  0  0  0  0  0  0  0  0  0
    2.0628    1.1876   -0.0008 H   0  0  0  0  0  0  0  0  0  0  0  0
  1  5  1  0
  5  8  1  0
  1  2  1  0
  1  3  1  0
  1  4  1  0
  5  6  1  0
  5  7  1  0
  8  9  1  0
  8 10  1  0
  8 11  1  0
 12 16  1  0
 16 17  2  0
 17 19  1  0
 19 21  2  0
 21 23  1  0
 23 25  2  0
 25 16  1  0
 12 13  1  0
 12 14  1  0
 12 15  1  0
 17 18  1  0
 19 20  1  0
 21 22  1  0
 23 24  1  0
 25 26  1  0
M  CHG  1   8   1
M  END
>  <PDB_ID>  (2368) 
pdb3pqd

>  <RESIDUE_NAME>  (2368) 
LYS   PHE

>  <FRAG_NAME>  (2368) 
ETAM   MBZ

>  <FRAG_ATOM_NUM>  (2368) 
fragi: 11  fragj: 15

>  <atom.prop.CHAIN_ID>  (2368) 
A A A A A A A A A A A Z Z Z Z Z Z Z Z Z Z Z Z Z Z Z

>  <atom.prop.IS_HEAVY_ATOM>  (2368) 
1 0 0 0 1 0 0 1 0 0 0 1 0 0 0 1 1 0 1 0 1 0 1 0 1 0

>  <DIFUSE_FUNC_ATOM>  (2368) 
n/a

>  <FINAL_SINGLE_POINT_ENERGY>  (2368) 
0

>  <NONCOV_INTER_ENERGY_QM>  (2368) 
0

>  <FF_Energy>  (2368) 
7.98

>  <QM_Energy>  (2368) 
-2.33

>  <source>  (2368) 
ETAM_MBZ

>  <Index>  (2368) 
24783

$$$$
ETAM-pdb4n4p-B-LYS-63:MBZ-pdb4n4p-B-PHE-59
     RDKit          3D

 26 25  0  0  0  0  0  0  0  0999 V2000
    0.6882   -2.0770    3.6824 C   0  0  0  0  0  0  0  0  0  0  0  0
    0.9860   -2.7963    4.2996 H   0  0  0  0  0  0  0  0  0  0  0  0
    0.3035   -2.4654    2.8528 H   0  0  0  0  0  0  0  0  0  0  0  0
   -0.0829   -1.4902    4.1815 H   0  0  0  0  0  0  0  0  0  0  0  0
    1.8798   -1.2190    3.3158 C   0  0  0  0  0  0  0  0  0  0  0  0
    1.6146   -0.5470    2.6309 H   0  0  0  0  0  0  0  0  0  0  0  0
    2.2303   -0.7603    4.1278 H   0  0  0  0  0  0  0  0  0  0  0  0
    3.0077   -2.0736    2.7302 N   0  0  0  0  0  4  0  0  0  0  0  0
    3.3455   -1.6228    1.9124 H   0  0  0  0  0  0  0  0  0  0  0  0
    3.7254   -2.1487    3.4118 H   0  0  0  0  0  0  0  0  0  0  0  0
    2.6371   -2.9683    2.5105 H   0  0  0  0  0  0  0  0  0  0  0  0
    0.0175    2.9088   -0.0061 C   0  0  0  0  0  0  0  0  0  0  0  0
   -0.5732    3.2168   -0.7356 H   0  0  0  0  0  0  0  0  0  0  0  0
    0.9483    3.2096   -0.1427 H   0  0  0  0  0  0  0  0  0  0  0  0
   -0.3410    3.3601    0.9190 H   0  0  0  0  0  0  0  0  0  0  0  0
    0.0071    1.4044    0.0030 C   0  0  0  0  0  0  0  0  0  0  0  0
   -1.2075    0.7047   -0.0062 C   0  0  0  0  0  0  0  0  0  0  0  0
   -2.0636    1.1957   -0.0184 H   0  0  0  0  0  0  0  0  0  0  0  0
   -1.2122   -0.6968    0.0000 C   0  0  0  0  0  0  0  0  0  0  0  0
   -2.0888   -1.1868   -0.0021 H   0  0  0  0  0  0  0  0  0  0  0  0
   -0.0067   -1.3988    0.0113 C   0  0  0  0  0  0  0  0  0  0  0  0
   -0.0112   -2.3956    0.0271 H   0  0  0  0  0  0  0  0  0  0  0  0
    1.2122   -0.7032   -0.0000 C   0  0  0  0  0  0  0  0  0  0  0  0
    2.0842   -1.2057   -0.0009 H   0  0  0  0  0  0  0  0  0  0  0  0
    1.2071    0.6897   -0.0081 C   0  0  0  0  0  0  0  0  0  0  0  0
    2.0744    1.1865   -0.0227 H   0  0  0  0  0  0  0  0  0  0  0  0
  1  5  1  0
  5  8  1  0
  1  2  1  0
  1  3  1  0
  1  4  1  0
  5  6  1  0
  5  7  1  0
  8  9  1  0
  8 10  1  0
  8 11  1  0
 12 16  1  0
 16 17  2  0
 17 19  1  0
 19 21  2  0
 21 23  1  0
 23 25  2  0
 25 16  1  0
 12 13  1  0
 12 14  1  0
 12 15  1  0
 17 18  1  0
 19 20  1  0
 21 22  1  0
 23 24  1  0
 25 26  1  0
M  CHG  1   8   1
M  END
>  <PDB_ID>  (2369) 
pdb4n4p

>  <RESIDUE_NAME>  (2369) 
LYS   PHE

>  <FRAG_NAME>  (2369) 
ETAM   MBZ

>  <FRAG_ATOM_NUM>  (2369) 
fragi: 11  fragj: 15

>  <atom.prop.CHAIN_ID>  (2369) 
A A A A A A A A A A A Z Z Z Z Z Z Z Z Z Z Z Z Z Z Z

>  <atom.prop.IS_HEAVY_ATOM>  (2369) 
1 0 0 0 1 0 0 1 0 0 0 1 0 0 0 1 1 0 1 0 1 0 1 0 1 0

>  <DIFUSE_FUNC_ATOM>  (2369) 
n/a

>  <FINAL_SINGLE_POINT_ENERGY>  (2369) 
0

>  <NONCOV_INTER_ENERGY_QM>  (2369) 
0

>  <FF_Energy>  (2369) 
-2.22

>  <QM_Energy>  (2369) 
-8.04

>  <source>  (2369) 
ETAM_MBZ

>  <Index>  (2369) 
24808

$$$$
ETAM-pdb4nnj-A-LYS-712:MBZ-pdb4nnj-A-PHE-707
     RDKit          3D

 26 25  0  0  0  0  0  0  0  0999 V2000
    0.3302   -1.9031    4.0010 C   0  0  0  0  0  0  0  0  0  0  0  0
    0.2613   -0.9839    3.6986 H   0  0  0  0  0  0  0  0  0  0  0  0
    0.7252   -2.4610    3.3134 H   0  0  0  0  0  0  0  0  0  0  0  0
    0.9403   -1.9464    4.9033 H   0  0  0  0  0  0  0  0  0  0  0  0
   -1.0501   -2.4133    4.2993 C   0  0  0  0  0  0  0  0  0  0  0  0
   -1.0673   -3.3797    4.2154 H   0  0  0  0  0  0  0  0  0  0  0  0
   -1.3155   -2.1416    5.1914 H   0  0  0  0  0  0  0  0  0  0  0  0
   -1.9871   -1.8433    3.3385 N   0  0  0  0  0  4  0  0  0  0  0  0
   -2.8102   -2.1384    3.5041 H   0  0  0  0  0  0  0  0  0  0  0  0
   -1.9807   -0.9552    3.3982 H   0  0  0  0  0  0  0  0  0  0  0  0
   -1.7562   -2.0794    2.5116 H   0  0  0  0  0  0  0  0  0  0  0  0
    0.0072    2.8765   -0.0088 C   0  0  0  0  0  0  0  0  0  0  0  0
   -0.7430    3.1760   -0.5455 H   0  0  0  0  0  0  0  0  0  0  0  0
    0.8402    3.1708   -0.4103 H   0  0  0  0  0  0  0  0  0  0  0  0
   -0.0765    3.3107    0.9875 H   0  0  0  0  0  0  0  0  0  0  0  0
    0.0025    1.3862   -0.0064 C   0  0  0  0  0  0  0  0  0  0  0  0
   -1.1877    0.6870    0.0010 C   0  0  0  0  0  0  0  0  0  0  0  0
   -1.9937    1.1507   -0.0021 H   0  0  0  0  0  0  0  0  0  0  0  0
   -1.1927   -0.6898    0.0000 C   0  0  0  0  0  0  0  0  0  0  0  0
   -1.9988   -1.1533    0.0051 H   0  0  0  0  0  0  0  0  0  0  0  0
   -0.0033   -1.3768    0.0074 C   0  0  0  0  0  0  0  0  0  0  0  0
   -0.0048   -2.3069    0.0076 H   0  0  0  0  0  0  0  0  0  0  0  0
    1.1927   -0.6898    0.0000 C   0  0  0  0  0  0  0  0  0  0  0  0
    1.9984   -1.1542    0.0024 H   0  0  0  0  0  0  0  0  0  0  0  0
    1.1885    0.6832   -0.0020 C   0  0  0  0  0  0  0  0  0  0  0  0
    1.9962    1.1452   -0.0051 H   0  0  0  0  0  0  0  0  0  0  0  0
  1  5  1  0
  5  8  1  0
  1  2  1  0
  1  3  1  0
  1  4  1  0
  5  6  1  0
  5  7  1  0
  8  9  1  0
  8 10  1  0
  8 11  1  0
 12 16  1  0
 16 17  2  0
 17 19  1  0
 19 21  2  0
 21 23  1  0
 23 25  2  0
 25 16  1  0
 12 13  1  0
 12 14  1  0
 12 15  1  0
 17 18  1  0
 19 20  1  0
 21 22  1  0
 23 24  1  0
 25 26  1  0
M  CHG  1   8   1
M  END
>  <PDB_ID>  (2370) 
pdb4nnj

>  <RESIDUE_NAME>  (2370) 
LYS   PHE

>  <FRAG_NAME>  (2370) 
ETAM   MBZ

>  <FRAG_ATOM_NUM>  (2370) 
fragi: 11  fragj: 15

>  <atom.prop.CHAIN_ID>  (2370) 
A A A A A A A A A A A Z Z Z Z Z Z Z Z Z Z Z Z Z Z Z

>  <atom.prop.IS_HEAVY_ATOM>  (2370) 
1 0 0 0 1 0 0 1 0 0 0 1 0 0 0 1 1 0 1 0 1 0 1 0 1 0

>  <DIFUSE_FUNC_ATOM>  (2370) 
n/a

>  <FINAL_SINGLE_POINT_ENERGY>  (2370) 
0

>  <NONCOV_INTER_ENERGY_QM>  (2370) 
0

>  <FF_Energy>  (2370) 
-3.62

>  <QM_Energy>  (2370) 
-8.92

>  <source>  (2370) 
ETAM_MBZ

>  <Index>  (2370) 
24820

$$$$
ETAM-pdb4nnj-A-LYS-973:MBZ-pdb4nnj-A-PHE-969
     RDKit          3D

 26 25  0  0  0  0  0  0  0  0999 V2000
    0.2829    0.6681    3.7942 C   0  0  0  0  0  0  0  0  0  0  0  0
   -0.2203    0.9881    4.5585 H   0  0  0  0  0  0  0  0  0  0  0  0
   -0.1249    0.9871    2.9730 H   0  0  0  0  0  0  0  0  0  0  0  0
    1.3006    1.0537    3.8550 H   0  0  0  0  0  0  0  0  0  0  0  0
    0.2114   -0.8404    3.7910 C   0  0  0  0  0  0  0  0  0  0  0  0
    0.7831   -1.1900    3.0897 H   0  0  0  0  0  0  0  0  0  0  0  0
    0.4914   -1.1789    4.6565 H   0  0  0  0  0  0  0  0  0  0  0  0
   -1.1812   -1.2960    3.5348 N   0  0  0  0  0  4  0  0  0  0  0  0
   -1.7248   -0.9860    4.1683 H   0  0  0  0  0  0  0  0  0  0  0  0
   -1.4596   -0.9957    2.7439 H   0  0  0  0  0  0  0  0  0  0  0  0
   -1.2156   -2.1849    3.5346 H   0  0  0  0  0  0  0  0  0  0  0  0
    0.0189    2.8970   -0.0002 C   0  0  0  0  0  0  0  0  0  0  0  0
    0.4072    3.1887   -0.8393 H   0  0  0  0  0  0  0  0  0  0  0  0
    0.5788    3.1853    0.7373 H   0  0  0  0  0  0  0  0  0  0  0  0
   -0.9652    3.3531    0.1076 H   0  0  0  0  0  0  0  0  0  0  0  0
    0.0035    1.3977   -0.0020 C   0  0  0  0  0  0  0  0  0  0  0  0
   -1.1901    0.6908   -0.0022 C   0  0  0  0  0  0  0  0  0  0  0  0
   -1.9978    1.1532   -0.0032 H   0  0  0  0  0  0  0  0  0  0  0  0
   -1.1928   -0.7016    0.0000 C   0  0  0  0  0  0  0  0  0  0  0  0
   -1.9989   -1.1662   -0.0027 H   0  0  0  0  0  0  0  0  0  0  0  0
   -0.0025   -1.3878    0.0007 C   0  0  0  0  0  0  0  0  0  0  0  0
    0.0008   -2.3182    0.0007 H   0  0  0  0  0  0  0  0  0  0  0  0
    1.1928   -0.6894    0.0000 C   0  0  0  0  0  0  0  0  0  0  0  0
    2.0004   -1.1516    0.0032 H   0  0  0  0  0  0  0  0  0  0  0  0
    1.1892    0.6903    0.0035 C   0  0  0  0  0  0  0  0  0  0  0  0
    1.9973    1.1498    0.0026 H   0  0  0  0  0  0  0  0  0  0  0  0
  1  5  1  0
  5  8  1  0
  1  2  1  0
  1  3  1  0
  1  4  1  0
  5  6  1  0
  5  7  1  0
  8  9  1  0
  8 10  1  0
  8 11  1  0
 12 16  1  0
 16 17  2  0
 17 19  1  0
 19 21  2  0
 21 23  1  0
 23 25  2  0
 25 16  1  0
 12 13  1  0
 12 14  1  0
 12 15  1  0
 17 18  1  0
 19 20  1  0
 21 22  1  0
 23 24  1  0
 25 26  1  0
M  CHG  1   8   1
M  END
>  <PDB_ID>  (2371) 
pdb4nnj

>  <RESIDUE_NAME>  (2371) 
LYS   PHE

>  <FRAG_NAME>  (2371) 
ETAM   MBZ

>  <FRAG_ATOM_NUM>  (2371) 
fragi: 11  fragj: 15

>  <atom.prop.CHAIN_ID>  (2371) 
A A A A A A A A A A A Z Z Z Z Z Z Z Z Z Z Z Z Z Z Z

>  <atom.prop.IS_HEAVY_ATOM>  (2371) 
1 0 0 0 1 0 0 1 0 0 0 1 0 0 0 1 1 0 1 0 1 0 1 0 1 0

>  <DIFUSE_FUNC_ATOM>  (2371) 
n/a

>  <FINAL_SINGLE_POINT_ENERGY>  (2371) 
0

>  <NONCOV_INTER_ENERGY_QM>  (2371) 
0

>  <FF_Energy>  (2371) 
-6.43

>  <QM_Energy>  (2371) 
-12.9

>  <source>  (2371) 
ETAM_MBZ

>  <Index>  (2371) 
24821

$$$$
ETAM-pdb3pqd-A-LYS-207:MBZ-pdb3pqd-A-PHE-163
     RDKit          3D

 26 25  0  0  0  0  0  0  0  0999 V2000
   -4.9239   -3.7952   -2.0379 C   0  0  0  0  0  0  0  0  0  0  0  0
   -5.8180   -3.3626   -2.0431 H   0  0  0  0  0  0  0  0  0  0  0  0
   -4.8620   -4.4603   -1.3020 H   0  0  0  0  0  0  0  0  0  0  0  0
   -4.7792   -4.3095   -2.9880 H   0  0  0  0  0  0  0  0  0  0  0  0
   -3.8613   -2.7105   -1.8028 C   0  0  0  0  0  0  0  0  0  0  0  0
   -3.0245   -3.1526   -1.4493 H   0  0  0  0  0  0  0  0  0  0  0  0
   -3.6336   -2.2861   -2.6914 H   0  0  0  0  0  0  0  0  0  0  0  0
   -4.2830   -1.6346   -0.8458 N   0  0  0  0  0  4  0  0  0  0  0  0
   -5.0609   -1.9601   -0.3126 H   0  0  0  0  0  0  0  0  0  0  0  0
   -3.5204   -1.4221   -0.2391 H   0  0  0  0  0  0  0  0  0  0  0  0
   -4.5424   -0.8223   -1.3631 H   0  0  0  0  0  0  0  0  0  0  0  0
   -0.0012    2.8948    0.0056 C   0  0  0  0  0  0  0  0  0  0  0  0
    0.9367    3.2042    0.0272 H   0  0  0  0  0  0  0  0  0  0  0  0
   -0.5017    3.2004    0.8008 H   0  0  0  0  0  0  0  0  0  0  0  0
   -0.4753    3.3324   -0.8728 H   0  0  0  0  0  0  0  0  0  0  0  0
    0.0008    1.3954    0.0017 C   0  0  0  0  0  0  0  0  0  0  0  0
   -1.1928    0.6885    0.0011 C   0  0  0  0  0  0  0  0  0  0  0  0
   -2.0601    1.1794   -0.0000 H   0  0  0  0  0  0  0  0  0  0  0  0
   -1.1940   -0.6955    0.0000 C   0  0  0  0  0  0  0  0  0  0  0  0
   -2.0723   -1.1915    0.0031 H   0  0  0  0  0  0  0  0  0  0  0  0
    0.0008   -1.3852   -0.0030 C   0  0  0  0  0  0  0  0  0  0  0  0
   -0.0019   -2.3873   -0.0080 H   0  0  0  0  0  0  0  0  0  0  0  0
    1.1940   -0.6922   -0.0000 C   0  0  0  0  0  0  0  0  0  0  0  0
    2.0779   -1.1926    0.0041 H   0  0  0  0  0  0  0  0  0  0  0  0
    1.1912    0.6890    0.0002 C   0  0  0  0  0  0  0  0  0  0  0  0
    2.0614    1.1868   -0.0018 H   0  0  0  0  0  0  0  0  0  0  0  0
  1  5  1  0
  5  8  1  0
  1  2  1  0
  1  3  1  0
  1  4  1  0
  5  6  1  0
  5  7  1  0
  8  9  1  0
  8 10  1  0
  8 11  1  0
 12 16  1  0
 16 17  2  0
 17 19  1  0
 19 21  2  0
 21 23  1  0
 23 25  2  0
 25 16  1  0
 12 13  1  0
 12 14  1  0
 12 15  1  0
 17 18  1  0
 19 20  1  0
 21 22  1  0
 23 24  1  0
 25 26  1  0
M  CHG  1   8   1
M  END
>  <PDB_ID>  (2372) 
pdb3pqd

>  <RESIDUE_NAME>  (2372) 
LYS   PHE

>  <FRAG_NAME>  (2372) 
ETAM   MBZ

>  <FRAG_ATOM_NUM>  (2372) 
fragi: 11  fragj: 15

>  <atom.prop.CHAIN_ID>  (2372) 
A A A A A A A A A A A Z Z Z Z Z Z Z Z Z Z Z Z Z Z Z

>  <atom.prop.IS_HEAVY_ATOM>  (2372) 
1 0 0 0 1 0 0 1 0 0 0 1 0 0 0 1 1 0 1 0 1 0 1 0 1 0

>  <DIFUSE_FUNC_ATOM>  (2372) 
n/a

>  <FINAL_SINGLE_POINT_ENERGY>  (2372) 
0

>  <NONCOV_INTER_ENERGY_QM>  (2372) 
0

>  <FF_Energy>  (2372) 
3.56

>  <QM_Energy>  (2372) 
-1.72

>  <source>  (2372) 
ETAM_MBZ

>  <Index>  (2372) 
24827

$$$$
ETAM-pdb4nhb-A-LYS-37:MBZ-pdb4nhb-A-PHE-194
     RDKit          3D

 26 25  0  0  0  0  0  0  0  0999 V2000
    1.9821   -0.5961   -3.6800 C   0  0  0  0  0  0  0  0  0  0  0  0
    1.6656   -1.4789   -3.4330 H   0  0  0  0  0  0  0  0  0  0  0  0
    2.3569   -0.1436   -2.9086 H   0  0  0  0  0  0  0  0  0  0  0  0
    2.7475   -0.6900   -4.4504 H   0  0  0  0  0  0  0  0  0  0  0  0
    0.7866    0.2209   -4.1845 C   0  0  0  0  0  0  0  0  0  0  0  0
    1.0510    1.1503   -4.2699 H   0  0  0  0  0  0  0  0  0  0  0  0
    0.5057   -0.1258   -5.0458 H   0  0  0  0  0  0  0  0  0  0  0  0
   -0.3889    0.1551   -3.2497 N   0  0  0  0  0  4  0  0  0  0  0  0
   -0.6575   -0.6887   -3.1577 H   0  0  0  0  0  0  0  0  0  0  0  0
   -0.1597    0.4738   -2.4507 H   0  0  0  0  0  0  0  0  0  0  0  0
   -1.0617    0.6393   -3.5732 H   0  0  0  0  0  0  0  0  0  0  0  0
   -0.0328    2.8774    0.0412 C   0  0  0  0  0  0  0  0  0  0  0  0
   -0.6440    3.1855   -0.6455 H   0  0  0  0  0  0  0  0  0  0  0  0
    0.8641    3.1975   -0.1438 H   0  0  0  0  0  0  0  0  0  0  0  0
   -0.3575    3.2668    1.0060 H   0  0  0  0  0  0  0  0  0  0  0  0
   -0.0077    1.3925    0.0016 C   0  0  0  0  0  0  0  0  0  0  0  0
   -1.2056    0.6903    0.0097 C   0  0  0  0  0  0  0  0  0  0  0  0
   -2.0125    1.1521    0.0169 H   0  0  0  0  0  0  0  0  0  0  0  0
   -1.2043   -0.7018   -0.0000 C   0  0  0  0  0  0  0  0  0  0  0  0
   -2.0061   -1.1726   -0.0025 H   0  0  0  0  0  0  0  0  0  0  0  0
    0.0169   -1.3843   -0.0091 C   0  0  0  0  0  0  0  0  0  0  0  0
    0.0251   -2.3150   -0.0187 H   0  0  0  0  0  0  0  0  0  0  0  0
    1.2043   -0.6937    0.0000 C   0  0  0  0  0  0  0  0  0  0  0  0
    2.0115   -1.1554   -0.0123 H   0  0  0  0  0  0  0  0  0  0  0  0
    1.1964    0.6970   -0.0022 C   0  0  0  0  0  0  0  0  0  0  0  0
    2.0008    1.1646    0.0070 H   0  0  0  0  0  0  0  0  0  0  0  0
  1  5  1  0
  5  8  1  0
  1  2  1  0
  1  3  1  0
  1  4  1  0
  5  6  1  0
  5  7  1  0
  8  9  1  0
  8 10  1  0
  8 11  1  0
 12 16  1  0
 16 17  2  0
 17 19  1  0
 19 21  2  0
 21 23  1  0
 23 25  2  0
 25 16  1  0
 12 13  1  0
 12 14  1  0
 12 15  1  0
 17 18  1  0
 19 20  1  0
 21 22  1  0
 23 24  1  0
 25 26  1  0
M  CHG  1   8   1
M  END
>  <PDB_ID>  (2373) 
pdb4nhb

>  <RESIDUE_NAME>  (2373) 
LYS   PHE

>  <FRAG_NAME>  (2373) 
ETAM   MBZ

>  <FRAG_ATOM_NUM>  (2373) 
fragi: 11  fragj: 15

>  <atom.prop.CHAIN_ID>  (2373) 
A A A A A A A A A A A Z Z Z Z Z Z Z Z Z Z Z Z Z Z Z

>  <atom.prop.IS_HEAVY_ATOM>  (2373) 
1 0 0 0 1 0 0 1 0 0 0 1 0 0 0 1 1 0 1 0 1 0 1 0 1 0

>  <DIFUSE_FUNC_ATOM>  (2373) 
n/a

>  <FINAL_SINGLE_POINT_ENERGY>  (2373) 
0

>  <NONCOV_INTER_ENERGY_QM>  (2373) 
0

>  <FF_Energy>  (2373) 
-9.14

>  <QM_Energy>  (2373) 
-16.47

>  <source>  (2373) 
ETAM_MBZ

>  <Index>  (2373) 
24840

$$$$
ETAM-pdb3ptw-A-LYS-114:MBZ-pdb3ptw-A-PHE-61
     RDKit          3D

 26 25  0  0  0  0  0  0  0  0999 V2000
   -2.0224   -0.9780   -5.2763 C   0  0  0  0  0  0  0  0  0  0  0  0
   -2.5894   -0.4505   -4.6548 H   0  0  0  0  0  0  0  0  0  0  0  0
   -2.5467   -1.2741   -6.0655 H   0  0  0  0  0  0  0  0  0  0  0  0
   -1.2038   -0.3458   -5.6201 H   0  0  0  0  0  0  0  0  0  0  0  0
   -1.5064   -2.2123   -4.5404 C   0  0  0  0  0  0  0  0  0  0  0  0
   -2.2346   -2.8924   -4.5047 H   0  0  0  0  0  0  0  0  0  0  0  0
   -0.7235   -2.5797   -5.0382 H   0  0  0  0  0  0  0  0  0  0  0  0
   -1.0927   -1.8548   -3.1610 N   0  0  0  0  0  4  0  0  0  0  0  0
   -0.3546   -2.4612   -2.8659 H   0  0  0  0  0  0  0  0  0  0  0  0
   -0.7725   -0.9076   -3.1439 H   0  0  0  0  0  0  0  0  0  0  0  0
   -1.8726   -1.9534   -2.5424 H   0  0  0  0  0  0  0  0  0  0  0  0
   -0.0192    2.9033   -0.0289 C   0  0  0  0  0  0  0  0  0  0  0  0
    0.7735    3.2289    0.4592 H   0  0  0  0  0  0  0  0  0  0  0  0
   -0.8575    3.2145    0.3868 H   0  0  0  0  0  0  0  0  0  0  0  0
    0.0212    3.3086   -1.0400 H   0  0  0  0  0  0  0  0  0  0  0  0
   -0.0068    1.4072    0.0028 C   0  0  0  0  0  0  0  0  0  0  0  0
   -1.2048    0.6955   -0.0028 C   0  0  0  0  0  0  0  0  0  0  0  0
   -2.0706    1.1858   -0.0103 H   0  0  0  0  0  0  0  0  0  0  0  0
   -1.2071   -0.6931   -0.0000 C   0  0  0  0  0  0  0  0  0  0  0  0
   -2.0755   -1.1960   -0.0014 H   0  0  0  0  0  0  0  0  0  0  0  0
    0.0127   -1.3985    0.0060 C   0  0  0  0  0  0  0  0  0  0  0  0
   -0.0062   -2.3967    0.0146 H   0  0  0  0  0  0  0  0  0  0  0  0
    1.2071   -0.7104    0.0000 C   0  0  0  0  0  0  0  0  0  0  0  0
    2.0914   -1.1947    0.0015 H   0  0  0  0  0  0  0  0  0  0  0  0
    1.1989    0.6994   -0.0061 C   0  0  0  0  0  0  0  0  0  0  0  0
    2.0640    1.1911   -0.0176 H   0  0  0  0  0  0  0  0  0  0  0  0
  1  5  1  0
  5  8  1  0
  1  2  1  0
  1  3  1  0
  1  4  1  0
  5  6  1  0
  5  7  1  0
  8  9  1  0
  8 10  1  0
  8 11  1  0
 12 16  1  0
 16 17  2  0
 17 19  1  0
 19 21  2  0
 21 23  1  0
 23 25  2  0
 25 16  1  0
 12 13  1  0
 12 14  1  0
 12 15  1  0
 17 18  1  0
 19 20  1  0
 21 22  1  0
 23 24  1  0
 25 26  1  0
M  CHG  1   8   1
M  END
>  <PDB_ID>  (2374) 
pdb3ptw

>  <RESIDUE_NAME>  (2374) 
LYS   PHE

>  <FRAG_NAME>  (2374) 
ETAM   MBZ

>  <FRAG_ATOM_NUM>  (2374) 
fragi: 11  fragj: 15

>  <atom.prop.CHAIN_ID>  (2374) 
A A A A A A A A A A A Z Z Z Z Z Z Z Z Z Z Z Z Z Z Z

>  <atom.prop.IS_HEAVY_ATOM>  (2374) 
1 0 0 0 1 0 0 1 0 0 0 1 0 0 0 1 1 0 1 0 1 0 1 0 1 0

>  <DIFUSE_FUNC_ATOM>  (2374) 
n/a

>  <FINAL_SINGLE_POINT_ENERGY>  (2374) 
0

>  <NONCOV_INTER_ENERGY_QM>  (2374) 
0

>  <FF_Energy>  (2374) 
-4.38

>  <QM_Energy>  (2374) 
-10.63

>  <source>  (2374) 
ETAM_MBZ

>  <Index>  (2374) 
24852

$$$$
ETAM-pdb3psq-B-LYS-53:MBZ-pdb3psq-B-PHE-57
     RDKit          3D

 26 25  0  0  0  0  0  0  0  0999 V2000
    3.5065    2.6492   -3.7389 C   0  0  0  0  0  0  0  0  0  0  0  0
    3.0571    2.2305   -4.5216 H   0  0  0  0  0  0  0  0  0  0  0  0
    4.2852    3.1913   -4.0378 H   0  0  0  0  0  0  0  0  0  0  0  0
    2.7958    3.3003   -3.2299 H   0  0  0  0  0  0  0  0  0  0  0  0
    4.0117    1.5423   -2.8223 C   0  0  0  0  0  0  0  0  0  0  0  0
    4.6119    0.9331   -3.3429 H   0  0  0  0  0  0  0  0  0  0  0  0
    4.5292    1.9501   -2.0682 H   0  0  0  0  0  0  0  0  0  0  0  0
    2.8786    0.7293   -2.2461 N   0  0  0  0  0  4  0  0  0  0  0  0
    2.6950   -0.0403   -2.8519 H   0  0  0  0  0  0  0  0  0  0  0  0
    3.1453    0.4001   -1.3443 H   0  0  0  0  0  0  0  0  0  0  0  0
    2.0712    1.3090   -2.1740 H   0  0  0  0  0  0  0  0  0  0  0  0
    0.0189    2.9309    0.0105 C   0  0  0  0  0  0  0  0  0  0  0  0
    0.1000    3.2269   -0.9300 H   0  0  0  0  0  0  0  0  0  0  0  0
    0.7953    3.2289    0.5473 H   0  0  0  0  0  0  0  0  0  0  0  0
   -0.8708    3.4019    0.4285 H   0  0  0  0  0  0  0  0  0  0  0  0
    0.0006    1.4150    0.0213 C   0  0  0  0  0  0  0  0  0  0  0  0
   -1.1962    0.6918   -0.0107 C   0  0  0  0  0  0  0  0  0  0  0  0
   -2.0659    1.1712   -0.0434 H   0  0  0  0  0  0  0  0  0  0  0  0
   -1.1967   -0.7189    0.0000 C   0  0  0  0  0  0  0  0  0  0  0  0
   -2.0742   -1.2034    0.0168 H   0  0  0  0  0  0  0  0  0  0  0  0
    0.0008   -1.3987   -0.0103 C   0  0  0  0  0  0  0  0  0  0  0  0
    0.0117   -2.3988   -0.0259 H   0  0  0  0  0  0  0  0  0  0  0  0
    1.1967   -0.6914    0.0000 C   0  0  0  0  0  0  0  0  0  0  0  0
    2.0832   -1.1866    0.0091 H   0  0  0  0  0  0  0  0  0  0  0  0
    1.1947    0.7023   -0.0003 C   0  0  0  0  0  0  0  0  0  0  0  0
    2.0643    1.1952   -0.0169 H   0  0  0  0  0  0  0  0  0  0  0  0
  1  5  1  0
  5  8  1  0
  1  2  1  0
  1  3  1  0
  1  4  1  0
  5  6  1  0
  5  7  1  0
  8  9  1  0
  8 10  1  0
  8 11  1  0
 12 16  1  0
 16 17  2  0
 17 19  1  0
 19 21  2  0
 21 23  1  0
 23 25  2  0
 25 16  1  0
 12 13  1  0
 12 14  1  0
 12 15  1  0
 17 18  1  0
 19 20  1  0
 21 22  1  0
 23 24  1  0
 25 26  1  0
M  CHG  1   8   1
M  END
>  <PDB_ID>  (2375) 
pdb3psq

>  <RESIDUE_NAME>  (2375) 
LYS   PHE

>  <FRAG_NAME>  (2375) 
ETAM   MBZ

>  <FRAG_ATOM_NUM>  (2375) 
fragi: 11  fragj: 15

>  <atom.prop.CHAIN_ID>  (2375) 
A A A A A A A A A A A Z Z Z Z Z Z Z Z Z Z Z Z Z Z Z

>  <atom.prop.IS_HEAVY_ATOM>  (2375) 
1 0 0 0 1 0 0 1 0 0 0 1 0 0 0 1 1 0 1 0 1 0 1 0 1 0

>  <DIFUSE_FUNC_ATOM>  (2375) 
n/a

>  <FINAL_SINGLE_POINT_ENERGY>  (2375) 
0

>  <NONCOV_INTER_ENERGY_QM>  (2375) 
0

>  <FF_Energy>  (2375) 
2.36

>  <QM_Energy>  (2375) 
-5.1

>  <source>  (2375) 
ETAM_MBZ

>  <Index>  (2375) 
24853

$$$$
ETAM-pdb4nr0-D-LYS-17:MBZ-pdb4nr0-D-PHE-51
     RDKit          3D

 26 25  0  0  0  0  0  0  0  0999 V2000
    0.0642   -0.4494    4.1166 C   0  0  0  0  0  0  0  0  0  0  0  0
    0.4836   -0.4906    5.0222 H   0  0  0  0  0  0  0  0  0  0  0  0
    0.7164   -0.0711    3.4604 H   0  0  0  0  0  0  0  0  0  0  0  0
   -0.1903   -1.4631    3.8073 H   0  0  0  0  0  0  0  0  0  0  0  0
   -1.1506    0.4918    4.1885 C   0  0  0  0  0  0  0  0  0  0  0  0
   -1.6834    0.2583    5.0160 H   0  0  0  0  0  0  0  0  0  0  0  0
   -0.8119    1.4382    4.3011 H   0  0  0  0  0  0  0  0  0  0  0  0
   -2.0403    0.4282    2.9981 N   0  0  0  0  0  4  0  0  0  0  0  0
   -1.5015    0.1792    2.1935 H   0  0  0  0  0  0  0  0  0  0  0  0
   -2.7500   -0.2584    3.1508 H   0  0  0  0  0  0  0  0  0  0  0  0
   -2.4654    1.3219    2.8535 H   0  0  0  0  0  0  0  0  0  0  0  0
    0.0052    2.9148    0.0017 C   0  0  0  0  0  0  0  0  0  0  0  0
    0.6358    3.2151   -0.6975 H   0  0  0  0  0  0  0  0  0  0  0  0
    0.2902    3.2159    0.8985 H   0  0  0  0  0  0  0  0  0  0  0  0
   -0.9663    3.3620   -0.2088 H   0  0  0  0  0  0  0  0  0  0  0  0
   -0.0006    1.4020    0.0007 C   0  0  0  0  0  0  0  0  0  0  0  0
   -1.1939    0.6901    0.0052 C   0  0  0  0  0  0  0  0  0  0  0  0
   -2.0623    1.1811    0.0109 H   0  0  0  0  0  0  0  0  0  0  0  0
   -1.1961   -0.6954   -0.0000 C   0  0  0  0  0  0  0  0  0  0  0  0
   -2.0735   -1.1918   -0.0025 H   0  0  0  0  0  0  0  0  0  0  0  0
    0.0029   -1.3920    0.0007 C   0  0  0  0  0  0  0  0  0  0  0  0
   -0.0041   -2.3910    0.0015 H   0  0  0  0  0  0  0  0  0  0  0  0
    1.1961   -0.6978   -0.0000 C   0  0  0  0  0  0  0  0  0  0  0  0
    2.0813   -1.1922    0.0056 H   0  0  0  0  0  0  0  0  0  0  0  0
    1.1915    0.6932   -0.0066 C   0  0  0  0  0  0  0  0  0  0  0  0
    2.0620    1.1876   -0.0172 H   0  0  0  0  0  0  0  0  0  0  0  0
  1  5  1  0
  5  8  1  0
  1  2  1  0
  1  3  1  0
  1  4  1  0
  5  6  1  0
  5  7  1  0
  8  9  1  0
  8 10  1  0
  8 11  1  0
 12 16  1  0
 16 17  2  0
 17 19  1  0
 19 21  2  0
 21 23  1  0
 23 25  2  0
 25 16  1  0
 12 13  1  0
 12 14  1  0
 12 15  1  0
 17 18  1  0
 19 20  1  0
 21 22  1  0
 23 24  1  0
 25 26  1  0
M  CHG  1   8   1
M  END
>  <PDB_ID>  (2376) 
pdb4nr0

>  <RESIDUE_NAME>  (2376) 
LYS   PHE

>  <FRAG_NAME>  (2376) 
ETAM   MBZ

>  <FRAG_ATOM_NUM>  (2376) 
fragi: 11  fragj: 15

>  <atom.prop.CHAIN_ID>  (2376) 
A A A A A A A A A A A Z Z Z Z Z Z Z Z Z Z Z Z Z Z Z

>  <atom.prop.IS_HEAVY_ATOM>  (2376) 
1 0 0 0 1 0 0 1 0 0 0 1 0 0 0 1 1 0 1 0 1 0 1 0 1 0

>  <DIFUSE_FUNC_ATOM>  (2376) 
n/a

>  <FINAL_SINGLE_POINT_ENERGY>  (2376) 
0

>  <NONCOV_INTER_ENERGY_QM>  (2376) 
0

>  <FF_Energy>  (2376) 
-6.49

>  <QM_Energy>  (2376) 
-13.55

>  <source>  (2376) 
ETAM_MBZ

>  <Index>  (2376) 
24875

$$$$
ETAM-pdb4nqx-F-LYS-58:MBZ-pdb4nqx-E-PHE-8
     RDKit          3D

 26 25  0  0  0  0  0  0  0  0999 V2000
   -4.4727   -5.0083    0.4870 C   0  0  0  0  0  0  0  0  0  0  0  0
   -4.4951   -5.4783   -0.3846 H   0  0  0  0  0  0  0  0  0  0  0  0
   -4.7631   -4.0661    0.3895 H   0  0  0  0  0  0  0  0  0  0  0  0
   -5.1653   -5.5108    1.1623 H   0  0  0  0  0  0  0  0  0  0  0  0
   -3.0608   -5.0404    1.0339 C   0  0  0  0  0  0  0  0  0  0  0  0
   -3.0848   -4.8199    2.0156 H   0  0  0  0  0  0  0  0  0  0  0  0
   -2.6892   -5.9699    0.9273 H   0  0  0  0  0  0  0  0  0  0  0  0
   -2.1642   -4.0768    0.3419 N   0  0  0  0  0  4  0  0  0  0  0  0
   -2.1905   -4.2469   -0.6428 H   0  0  0  0  0  0  0  0  0  0  0  0
   -2.4725   -3.1442    0.5278 H   0  0  0  0  0  0  0  0  0  0  0  0
   -1.2292   -4.1930    0.6773 H   0  0  0  0  0  0  0  0  0  0  0  0
   -0.0000    2.9204   -0.0105 C   0  0  0  0  0  0  0  0  0  0  0  0
    0.8132    3.2274    0.4679 H   0  0  0  0  0  0  0  0  0  0  0  0
   -0.8192    3.2275    0.4576 H   0  0  0  0  0  0  0  0  0  0  0  0
    0.0057    3.3847   -0.9967 H   0  0  0  0  0  0  0  0  0  0  0  0
    0.0003    1.4084   -0.0073 C   0  0  0  0  0  0  0  0  0  0  0  0
   -1.1903    0.6981    0.0094 C   0  0  0  0  0  0  0  0  0  0  0  0
   -2.0609    1.1788    0.0270 H   0  0  0  0  0  0  0  0  0  0  0  0
   -1.1896   -0.7035    0.0000 C   0  0  0  0  0  0  0  0  0  0  0  0
   -2.0731   -1.1896   -0.0006 H   0  0  0  0  0  0  0  0  0  0  0  0
   -0.0007   -1.3950   -0.0068 C   0  0  0  0  0  0  0  0  0  0  0  0
   -0.0055   -2.3973   -0.0174 H   0  0  0  0  0  0  0  0  0  0  0  0
    1.1896   -0.7051    0.0000 C   0  0  0  0  0  0  0  0  0  0  0  0
    2.0765   -1.1959    0.0026 H   0  0  0  0  0  0  0  0  0  0  0  0
    1.1907    0.6971    0.0046 C   0  0  0  0  0  0  0  0  0  0  0  0
    2.0628    1.1830    0.0162 H   0  0  0  0  0  0  0  0  0  0  0  0
  1  5  1  0
  5  8  1  0
  1  2  1  0
  1  3  1  0
  1  4  1  0
  5  6  1  0
  5  7  1  0
  8  9  1  0
  8 10  1  0
  8 11  1  0
 12 16  1  0
 16 17  2  0
 17 19  1  0
 19 21  2  0
 21 23  1  0
 23 25  2  0
 25 16  1  0
 12 13  1  0
 12 14  1  0
 12 15  1  0
 17 18  1  0
 19 20  1  0
 21 22  1  0
 23 24  1  0
 25 26  1  0
M  CHG  1   8   1
M  END
>  <PDB_ID>  (2377) 
pdb4nqx

>  <RESIDUE_NAME>  (2377) 
LYS   PHE

>  <FRAG_NAME>  (2377) 
ETAM   MBZ

>  <FRAG_ATOM_NUM>  (2377) 
fragi: 11  fragj: 15

>  <atom.prop.CHAIN_ID>  (2377) 
A A A A A A A A A A A Z Z Z Z Z Z Z Z Z Z Z Z Z Z Z

>  <atom.prop.IS_HEAVY_ATOM>  (2377) 
1 0 0 0 1 0 0 1 0 0 0 1 0 0 0 1 1 0 1 0 1 0 1 0 1 0

>  <DIFUSE_FUNC_ATOM>  (2377) 
n/a

>  <FINAL_SINGLE_POINT_ENERGY>  (2377) 
0

>  <NONCOV_INTER_ENERGY_QM>  (2377) 
0

>  <FF_Energy>  (2377) 
1.8

>  <QM_Energy>  (2377) 
-4.04

>  <source>  (2377) 
ETAM_MBZ

>  <Index>  (2377) 
24881

$$$$
ETAM-pdb4nqr-A-ALA-501:MBZ-pdb4nqr-C-PHE-204
     RDKit          3D

 26 25  0  0  0  0  0  0  0  0999 V2000
    0.9025    0.3114   -4.4959 C   0  0  0  0  0  0  0  0  0  0  0  0
    1.5225   -0.3913   -4.1527 H   0  0  0  0  0  0  0  0  0  0  0  0
    0.4238   -0.0292   -5.3030 H   0  0  0  0  0  0  0  0  0  0  0  0
    1.4223    1.1299   -4.7344 H   0  0  0  0  0  0  0  0  0  0  0  0
   -0.1192    0.6588   -3.4109 C   0  0  0  0  0  0  0  0  0  0  0  0
    0.2244    0.2460   -2.5634 H   0  0  0  0  0  0  0  0  0  0  0  0
   -0.2081    1.7349   -3.2621 H   0  0  0  0  0  0  0  0  0  0  0  0
   -1.4284    0.0807   -3.7199 N   0  0  0  0  0  4  0  0  0  0  0  0
   -2.1016    0.8114   -3.8473 H   0  0  0  0  0  0  0  0  0  0  0  0
   -1.3713   -0.4616   -4.5597 H   0  0  0  0  0  0  0  0  0  0  0  0
   -1.7257   -0.5101   -2.9686 H   0  0  0  0  0  0  0  0  0  0  0  0
    0.0289    2.8938    0.0167 C   0  0  0  0  0  0  0  0  0  0  0  0
   -0.7203    3.2220   -0.5378 H   0  0  0  0  0  0  0  0  0  0  0  0
    0.9008    3.1896   -0.3429 H   0  0  0  0  0  0  0  0  0  0  0  0
   -0.0819    3.3203    1.0136 H   0  0  0  0  0  0  0  0  0  0  0  0
    0.0011    1.3929   -0.0040 C   0  0  0  0  0  0  0  0  0  0  0  0
   -1.1941    0.6930   -0.0084 C   0  0  0  0  0  0  0  0  0  0  0  0
   -2.0596    1.1807   -0.0191 H   0  0  0  0  0  0  0  0  0  0  0  0
   -1.1951   -0.6979   -0.0000 C   0  0  0  0  0  0  0  0  0  0  0  0
   -2.0724   -1.1917   -0.0026 H   0  0  0  0  0  0  0  0  0  0  0  0
    0.0027   -1.3854    0.0141 C   0  0  0  0  0  0  0  0  0  0  0  0
    0.0035   -2.3868    0.0340 H   0  0  0  0  0  0  0  0  0  0  0  0
    1.1951   -0.6875    0.0000 C   0  0  0  0  0  0  0  0  0  0  0  0
    2.0794   -1.1910   -0.0078 H   0  0  0  0  0  0  0  0  0  0  0  0
    1.1903    0.6850   -0.0016 C   0  0  0  0  0  0  0  0  0  0  0  0
    2.0607    1.1872   -0.0019 H   0  0  0  0  0  0  0  0  0  0  0  0
  1  5  1  0
  5  8  1  0
  1  2  1  0
  1  3  1  0
  1  4  1  0
  5  6  1  0
  5  7  1  0
  8  9  1  0
  8 10  1  0
  8 11  1  0
 12 16  1  0
 16 17  2  0
 17 19  1  0
 19 21  2  0
 21 23  1  0
 23 25  2  0
 25 16  1  0
 12 13  1  0
 12 14  1  0
 12 15  1  0
 17 18  1  0
 19 20  1  0
 21 22  1  0
 23 24  1  0
 25 26  1  0
M  CHG  1   8   1
M  END
>  <PDB_ID>  (2378) 
pdb4nqr

>  <RESIDUE_NAME>  (2378) 
ALA   PHE

>  <FRAG_NAME>  (2378) 
ETAM   MBZ

>  <FRAG_ATOM_NUM>  (2378) 
fragi: 11  fragj: 15

>  <atom.prop.CHAIN_ID>  (2378) 
A A A A A A A A A A A Z Z Z Z Z Z Z Z Z Z Z Z Z Z Z

>  <atom.prop.IS_HEAVY_ATOM>  (2378) 
1 0 0 0 1 0 0 1 0 0 0 1 0 0 0 1 1 0 1 0 1 0 1 0 1 0

>  <DIFUSE_FUNC_ATOM>  (2378) 
n/a

>  <FINAL_SINGLE_POINT_ENERGY>  (2378) 
0

>  <NONCOV_INTER_ENERGY_QM>  (2378) 
0

>  <FF_Energy>  (2378) 
-6.47

>  <QM_Energy>  (2378) 
-11.95

>  <source>  (2378) 
ETAM_MBZ

>  <Index>  (2378) 
24895

$$$$
ETAM-pdb4ntq-B-LYS-73:MBZ-pdb4ntq-A-PHE-185
     RDKit          3D

 26 25  0  0  0  0  0  0  0  0999 V2000
    2.9952   -0.9128   -3.1456 C   0  0  0  0  0  0  0  0  0  0  0  0
    3.6223   -0.9617   -2.3661 H   0  0  0  0  0  0  0  0  0  0  0  0
    2.2154   -0.3322   -2.9060 H   0  0  0  0  0  0  0  0  0  0  0  0
    3.5204   -0.4645   -3.9889 H   0  0  0  0  0  0  0  0  0  0  0  0
    2.4890   -2.3030   -3.4465 C   0  0  0  0  0  0  0  0  0  0  0  0
    1.8568   -2.2618   -4.2215 H   0  0  0  0  0  0  0  0  0  0  0  0
    3.2626   -2.8922   -3.6817 H   0  0  0  0  0  0  0  0  0  0  0  0
    1.7816   -2.8719   -2.2712 N   0  0  0  0  0  4  0  0  0  0  0  0
    0.7976   -2.7205   -2.3678 H   0  0  0  0  0  0  0  0  0  0  0  0
    1.9643   -3.8541   -2.2160 H   0  0  0  0  0  0  0  0  0  0  0  0
    2.1078   -2.4248   -1.4374 H   0  0  0  0  0  0  0  0  0  0  0  0
    0.0323    2.9052   -0.0061 C   0  0  0  0  0  0  0  0  0  0  0  0
    0.6358    3.1953   -0.7380 H   0  0  0  0  0  0  0  0  0  0  0  0
    0.3779    3.2038    0.8749 H   0  0  0  0  0  0  0  0  0  0  0  0
   -0.9334    3.3858   -0.1627 H   0  0  0  0  0  0  0  0  0  0  0  0
    0.0003    1.3956   -0.0034 C   0  0  0  0  0  0  0  0  0  0  0  0
   -1.1873    0.6877    0.0047 C   0  0  0  0  0  0  0  0  0  0  0  0
   -2.0577    1.1798    0.0124 H   0  0  0  0  0  0  0  0  0  0  0  0
   -1.1921   -0.6929   -0.0000 C   0  0  0  0  0  0  0  0  0  0  0  0
   -2.0730   -1.1874   -0.0016 H   0  0  0  0  0  0  0  0  0  0  0  0
   -0.0011   -1.3862   -0.0004 C   0  0  0  0  0  0  0  0  0  0  0  0
   -0.0047   -2.3869   -0.0020 H   0  0  0  0  0  0  0  0  0  0  0  0
    1.1921   -0.6931    0.0000 C   0  0  0  0  0  0  0  0  0  0  0  0
    2.0767   -1.1926    0.0026 H   0  0  0  0  0  0  0  0  0  0  0  0
    1.1881    0.6889   -0.0009 C   0  0  0  0  0  0  0  0  0  0  0  0
    2.0602    1.1866   -0.0001 H   0  0  0  0  0  0  0  0  0  0  0  0
  1  5  1  0
  5  8  1  0
  1  2  1  0
  1  3  1  0
  1  4  1  0
  5  6  1  0
  5  7  1  0
  8  9  1  0
  8 10  1  0
  8 11  1  0
 12 16  1  0
 16 17  2  0
 17 19  1  0
 19 21  2  0
 21 23  1  0
 23 25  2  0
 25 16  1  0
 12 13  1  0
 12 14  1  0
 12 15  1  0
 17 18  1  0
 19 20  1  0
 21 22  1  0
 23 24  1  0
 25 26  1  0
M  CHG  1   8   1
M  END
>  <PDB_ID>  (2379) 
pdb4ntq

>  <RESIDUE_NAME>  (2379) 
LYS   PHE

>  <FRAG_NAME>  (2379) 
ETAM   MBZ

>  <FRAG_ATOM_NUM>  (2379) 
fragi: 11  fragj: 15

>  <atom.prop.CHAIN_ID>  (2379) 
A A A A A A A A A A A Z Z Z Z Z Z Z Z Z Z Z Z Z Z Z

>  <atom.prop.IS_HEAVY_ATOM>  (2379) 
1 0 0 0 1 0 0 1 0 0 0 1 0 0 0 1 1 0 1 0 1 0 1 0 1 0

>  <DIFUSE_FUNC_ATOM>  (2379) 
n/a

>  <FINAL_SINGLE_POINT_ENERGY>  (2379) 
0

>  <NONCOV_INTER_ENERGY_QM>  (2379) 
0

>  <FF_Energy>  (2379) 
-1.38

>  <QM_Energy>  (2379) 
-8.45

>  <source>  (2379) 
ETAM_MBZ

>  <Index>  (2379) 
24896

$$$$
ETAM-pdb4n4p-C-LYS-63:MBZ-pdb4n4p-C-PHE-59
     RDKit          3D

 26 25  0  0  0  0  0  0  0  0999 V2000
    0.3527   -0.8667    3.9502 C   0  0  0  0  0  0  0  0  0  0  0  0
    0.3604   -0.2220    3.1765 H   0  0  0  0  0  0  0  0  0  0  0  0
    0.9123   -0.4787    4.6920 H   0  0  0  0  0  0  0  0  0  0  0  0
   -0.6733   -0.9482    4.3091 H   0  0  0  0  0  0  0  0  0  0  0  0
    0.9307   -2.1605    3.5214 C   0  0  0  0  0  0  0  0  0  0  0  0
    0.9360   -2.8036    4.2734 H   0  0  0  0  0  0  0  0  0  0  0  0
    0.4350   -2.5224    2.7454 H   0  0  0  0  0  0  0  0  0  0  0  0
    2.3525   -1.9083    3.1010 N   0  0  0  0  0  4  0  0  0  0  0  0
    2.4051   -1.9325    2.1057 H   0  0  0  0  0  0  0  0  0  0  0  0
    2.6345   -1.0123    3.4348 H   0  0  0  0  0  0  0  0  0  0  0  0
    2.9356   -2.6164    3.4906 H   0  0  0  0  0  0  0  0  0  0  0  0
    0.0088    2.9083   -0.0476 C   0  0  0  0  0  0  0  0  0  0  0  0
   -0.3575    3.1891   -0.9280 H   0  0  0  0  0  0  0  0  0  0  0  0
    0.9501    3.2122    0.0505 H   0  0  0  0  0  0  0  0  0  0  0  0
   -0.5820    3.3917    0.7306 H   0  0  0  0  0  0  0  0  0  0  0  0
    0.0007    1.4113   -0.0007 C   0  0  0  0  0  0  0  0  0  0  0  0
   -1.2023    0.6975    0.0003 C   0  0  0  0  0  0  0  0  0  0  0  0
   -2.0676    1.1876    0.0004 H   0  0  0  0  0  0  0  0  0  0  0  0
   -1.2079   -0.6995    0.0000 C   0  0  0  0  0  0  0  0  0  0  0  0
   -2.0865   -1.1898   -0.0043 H   0  0  0  0  0  0  0  0  0  0  0  0
   -0.0068   -1.4032    0.0077 C   0  0  0  0  0  0  0  0  0  0  0  0
   -0.0131   -2.4006    0.0178 H   0  0  0  0  0  0  0  0  0  0  0  0
    1.2079   -0.7107   -0.0000 C   0  0  0  0  0  0  0  0  0  0  0  0
    2.0838   -1.2040    0.0013 H   0  0  0  0  0  0  0  0  0  0  0  0
    1.2084    0.7046   -0.0073 C   0  0  0  0  0  0  0  0  0  0  0  0
    2.0719    1.1903   -0.0180 H   0  0  0  0  0  0  0  0  0  0  0  0
  1  5  1  0
  5  8  1  0
  1  2  1  0
  1  3  1  0
  1  4  1  0
  5  6  1  0
  5  7  1  0
  8  9  1  0
  8 10  1  0
  8 11  1  0
 12 16  1  0
 16 17  2  0
 17 19  1  0
 19 21  2  0
 21 23  1  0
 23 25  2  0
 25 16  1  0
 12 13  1  0
 12 14  1  0
 12 15  1  0
 17 18  1  0
 19 20  1  0
 21 22  1  0
 23 24  1  0
 25 26  1  0
M  CHG  1   8   1
M  END
>  <PDB_ID>  (2380) 
pdb4n4p

>  <RESIDUE_NAME>  (2380) 
LYS   PHE

>  <FRAG_NAME>  (2380) 
ETAM   MBZ

>  <FRAG_ATOM_NUM>  (2380) 
fragi: 11  fragj: 15

>  <atom.prop.CHAIN_ID>  (2380) 
A A A A A A A A A A A Z Z Z Z Z Z Z Z Z Z Z Z Z Z Z

>  <atom.prop.IS_HEAVY_ATOM>  (2380) 
1 0 0 0 1 0 0 1 0 0 0 1 0 0 0 1 1 0 1 0 1 0 1 0 1 0

>  <DIFUSE_FUNC_ATOM>  (2380) 
n/a

>  <FINAL_SINGLE_POINT_ENERGY>  (2380) 
0

>  <NONCOV_INTER_ENERGY_QM>  (2380) 
0

>  <FF_Energy>  (2380) 
-3.73

>  <QM_Energy>  (2380) 
-10.28

>  <source>  (2380) 
ETAM_MBZ

>  <Index>  (2380) 
24897

$$$$
ETAM-pdb3pyi-A-LYS-163:MBZ-pdb3pyi-A-PHE-143
     RDKit          3D

 26 25  0  0  0  0  0  0  0  0999 V2000
   -2.1528    1.4882    4.0787 C   0  0  0  0  0  0  0  0  0  0  0  0
   -1.9604    1.7006    5.0313 H   0  0  0  0  0  0  0  0  0  0  0  0
   -2.7262    0.6793    4.0124 H   0  0  0  0  0  0  0  0  0  0  0  0
   -2.6759    2.3315    3.6278 H   0  0  0  0  0  0  0  0  0  0  0  0
   -0.8344    1.2062    3.3699 C   0  0  0  0  0  0  0  0  0  0  0  0
   -1.0110    1.0901    2.3880 H   0  0  0  0  0  0  0  0  0  0  0  0
   -0.2220    1.9918    3.4966 H   0  0  0  0  0  0  0  0  0  0  0  0
   -0.1644   -0.0223    3.8927 N   0  0  0  0  0  4  0  0  0  0  0  0
   -0.0818    0.0450    4.8858 H   0  0  0  0  0  0  0  0  0  0  0  0
   -0.7119   -0.8224    3.6540 H   0  0  0  0  0  0  0  0  0  0  0  0
    0.7435   -0.1011    3.4838 H   0  0  0  0  0  0  0  0  0  0  0  0
   -0.0083    2.8939   -0.0012 C   0  0  0  0  0  0  0  0  0  0  0  0
    0.8902    3.2057    0.2686 H   0  0  0  0  0  0  0  0  0  0  0  0
   -0.7009    3.1986    0.6360 H   0  0  0  0  0  0  0  0  0  0  0  0
   -0.2350    3.3318   -0.9733 H   0  0  0  0  0  0  0  0  0  0  0  0
   -0.0006    1.3950   -0.0009 C   0  0  0  0  0  0  0  0  0  0  0  0
   -1.1913    0.6871   -0.0011 C   0  0  0  0  0  0  0  0  0  0  0  0
   -2.0602    1.1794   -0.0031 H   0  0  0  0  0  0  0  0  0  0  0  0
   -1.1936   -0.6938    0.0000 C   0  0  0  0  0  0  0  0  0  0  0  0
   -2.0733   -1.1906    0.0006 H   0  0  0  0  0  0  0  0  0  0  0  0
   -0.0014   -1.3845    0.0023 C   0  0  0  0  0  0  0  0  0  0  0  0
   -0.0049   -2.3872    0.0048 H   0  0  0  0  0  0  0  0  0  0  0  0
    1.1936   -0.6947    0.0000 C   0  0  0  0  0  0  0  0  0  0  0  0
    2.0765   -1.1944   -0.0004 H   0  0  0  0  0  0  0  0  0  0  0  0
    1.1933    0.6910   -0.0003 C   0  0  0  0  0  0  0  0  0  0  0  0
    2.0610    1.1870   -0.0009 H   0  0  0  0  0  0  0  0  0  0  0  0
  1  5  1  0
  5  8  1  0
  1  2  1  0
  1  3  1  0
  1  4  1  0
  5  6  1  0
  5  7  1  0
  8  9  1  0
  8 10  1  0
  8 11  1  0
 12 16  1  0
 16 17  2  0
 17 19  1  0
 19 21  2  0
 21 23  1  0
 23 25  2  0
 25 16  1  0
 12 13  1  0
 12 14  1  0
 12 15  1  0
 17 18  1  0
 19 20  1  0
 21 22  1  0
 23 24  1  0
 25 26  1  0
M  CHG  1   8   1
M  END
>  <PDB_ID>  (2381) 
pdb3pyi

>  <RESIDUE_NAME>  (2381) 
LYS   PHE

>  <FRAG_NAME>  (2381) 
ETAM   MBZ

>  <FRAG_ATOM_NUM>  (2381) 
fragi: 11  fragj: 15

>  <atom.prop.CHAIN_ID>  (2381) 
A A A A A A A A A A A Z Z Z Z Z Z Z Z Z Z Z Z Z Z Z

>  <atom.prop.IS_HEAVY_ATOM>  (2381) 
1 0 0 0 1 0 0 1 0 0 0 1 0 0 0 1 1 0 1 0 1 0 1 0 1 0

>  <DIFUSE_FUNC_ATOM>  (2381) 
n/a

>  <FINAL_SINGLE_POINT_ENERGY>  (2381) 
0

>  <NONCOV_INTER_ENERGY_QM>  (2381) 
0

>  <FF_Energy>  (2381) 
-5.14

>  <QM_Energy>  (2381) 
-10.37

>  <source>  (2381) 
ETAM_MBZ

>  <Index>  (2381) 
24907

$$$$
ETAM-pdb3pzd-A-LYS-1942:MBZ-pdb3pzd-A-PHE-1931
     RDKit          3D

 26 25  0  0  0  0  0  0  0  0999 V2000
   -1.9540   -2.6073    4.4646 C   0  0  0  0  0  0  0  0  0  0  0  0
   -2.2983   -1.6849    4.3602 H   0  0  0  0  0  0  0  0  0  0  0  0
   -1.0168   -2.6777    4.1556 H   0  0  0  0  0  0  0  0  0  0  0  0
   -2.0044   -2.8880    5.5165 H   0  0  0  0  0  0  0  0  0  0  0  0
   -2.8158   -3.5459    3.6150 C   0  0  0  0  0  0  0  0  0  0  0  0
   -2.4203   -4.4711    3.6543 H   0  0  0  0  0  0  0  0  0  0  0  0
   -3.7417   -3.5794    4.0084 H   0  0  0  0  0  0  0  0  0  0  0  0
   -2.9128   -3.1185    2.1807 N   0  0  0  0  0  4  0  0  0  0  0  0
   -2.5439   -3.8413    1.5996 H   0  0  0  0  0  0  0  0  0  0  0  0
   -3.8703   -2.9563    1.9528 H   0  0  0  0  0  0  0  0  0  0  0  0
   -2.3873   -2.2797    2.0537 H   0  0  0  0  0  0  0  0  0  0  0  0
    0.0147    2.8972   -0.0013 C   0  0  0  0  0  0  0  0  0  0  0  0
    0.8068    3.1996   -0.5136 H   0  0  0  0  0  0  0  0  0  0  0  0
    0.0665    3.1977    0.9418 H   0  0  0  0  0  0  0  0  0  0  0  0
   -0.8653    3.3599   -0.4483 H   0  0  0  0  0  0  0  0  0  0  0  0
    0.0007    1.3936   -0.0110 C   0  0  0  0  0  0  0  0  0  0  0  0
   -1.1978    0.6837    0.0003 C   0  0  0  0  0  0  0  0  0  0  0  0
   -2.0622    1.1825    0.0071 H   0  0  0  0  0  0  0  0  0  0  0  0
   -1.2025   -0.6913    0.0000 C   0  0  0  0  0  0  0  0  0  0  0  0
   -2.0743   -1.1941   -0.0038 H   0  0  0  0  0  0  0  0  0  0  0  0
    0.0044   -1.3861    0.0068 C   0  0  0  0  0  0  0  0  0  0  0  0
   -0.0005   -2.3844    0.0159 H   0  0  0  0  0  0  0  0  0  0  0  0
    1.2025   -0.6894   -0.0000 C   0  0  0  0  0  0  0  0  0  0  0  0
    2.0836   -1.1892   -0.0058 H   0  0  0  0  0  0  0  0  0  0  0  0
    1.1927    0.6895    0.0039 C   0  0  0  0  0  0  0  0  0  0  0  0
    2.0620    1.1922    0.0168 H   0  0  0  0  0  0  0  0  0  0  0  0
  1  5  1  0
  5  8  1  0
  1  2  1  0
  1  3  1  0
  1  4  1  0
  5  6  1  0
  5  7  1  0
  8  9  1  0
  8 10  1  0
  8 11  1  0
 12 16  1  0
 16 17  2  0
 17 19  1  0
 19 21  2  0
 21 23  1  0
 23 25  2  0
 25 16  1  0
 12 13  1  0
 12 14  1  0
 12 15  1  0
 17 18  1  0
 19 20  1  0
 21 22  1  0
 23 24  1  0
 25 26  1  0
M  CHG  1   8   1
M  END
>  <PDB_ID>  (2382) 
pdb3pzd

>  <RESIDUE_NAME>  (2382) 
LYS   PHE

>  <FRAG_NAME>  (2382) 
ETAM   MBZ

>  <FRAG_ATOM_NUM>  (2382) 
fragi: 11  fragj: 15

>  <atom.prop.CHAIN_ID>  (2382) 
A A A A A A A A A A A Z Z Z Z Z Z Z Z Z Z Z Z Z Z Z

>  <atom.prop.IS_HEAVY_ATOM>  (2382) 
1 0 0 0 1 0 0 1 0 0 0 1 0 0 0 1 1 0 1 0 1 0 1 0 1 0

>  <DIFUSE_FUNC_ATOM>  (2382) 
n/a

>  <FINAL_SINGLE_POINT_ENERGY>  (2382) 
0

>  <NONCOV_INTER_ENERGY_QM>  (2382) 
0

>  <FF_Energy>  (2382) 
-0.58

>  <QM_Energy>  (2382) 
-5.77

>  <source>  (2382) 
ETAM_MBZ

>  <Index>  (2382) 
24931

$$$$
ETAM-pdb3q0y-B-LYS-112:MBZ-pdb3q0y-B-PHE-124
     RDKit          3D

 26 25  0  0  0  0  0  0  0  0999 V2000
   -0.2146   -0.3141   -3.6819 C   0  0  0  0  0  0  0  0  0  0  0  0
    0.7830   -0.3252   -3.6287 H   0  0  0  0  0  0  0  0  0  0  0  0
   -0.5984   -0.2391   -2.7626 H   0  0  0  0  0  0  0  0  0  0  0  0
   -0.5286    0.5484   -4.2697 H   0  0  0  0  0  0  0  0  0  0  0  0
   -0.6792   -1.6183   -4.2929 C   0  0  0  0  0  0  0  0  0  0  0  0
   -1.6771   -1.6576   -4.2662 H   0  0  0  0  0  0  0  0  0  0  0  0
   -0.3675   -1.6683   -5.2401 H   0  0  0  0  0  0  0  0  0  0  0  0
   -0.1251   -2.7809   -3.5369 N   0  0  0  0  0  4  0  0  0  0  0  0
    0.3270   -2.4503   -2.7099 H   0  0  0  0  0  0  0  0  0  0  0  0
   -0.8704   -3.3983   -3.2889 H   0  0  0  0  0  0  0  0  0  0  0  0
    0.5342   -3.2632   -4.1121 H   0  0  0  0  0  0  0  0  0  0  0  0
   -0.0006    2.8792    0.0264 C   0  0  0  0  0  0  0  0  0  0  0  0
   -0.7559    3.2030   -0.5197 H   0  0  0  0  0  0  0  0  0  0  0  0
    0.8650    3.1991   -0.3218 H   0  0  0  0  0  0  0  0  0  0  0  0
   -0.1223    3.2773    1.0338 H   0  0  0  0  0  0  0  0  0  0  0  0
    0.0004    1.3897   -0.0096 C   0  0  0  0  0  0  0  0  0  0  0  0
   -1.1931    0.6861    0.0005 C   0  0  0  0  0  0  0  0  0  0  0  0
   -2.0602    1.1782    0.0071 H   0  0  0  0  0  0  0  0  0  0  0  0
   -1.1960   -0.6967    0.0000 C   0  0  0  0  0  0  0  0  0  0  0  0
   -2.0728   -1.1936    0.0019 H   0  0  0  0  0  0  0  0  0  0  0  0
   -0.0001   -1.3805   -0.0011 C   0  0  0  0  0  0  0  0  0  0  0  0
    0.0021   -2.3837   -0.0034 H   0  0  0  0  0  0  0  0  0  0  0  0
    1.1960   -0.6865    0.0000 C   0  0  0  0  0  0  0  0  0  0  0  0
    2.0779   -1.1906   -0.0047 H   0  0  0  0  0  0  0  0  0  0  0  0
    1.1928    0.6880    0.0102 C   0  0  0  0  0  0  0  0  0  0  0  0
    2.0598    1.1904    0.0313 H   0  0  0  0  0  0  0  0  0  0  0  0
  1  5  1  0
  5  8  1  0
  1  2  1  0
  1  3  1  0
  1  4  1  0
  5  6  1  0
  5  7  1  0
  8  9  1  0
  8 10  1  0
  8 11  1  0
 12 16  1  0
 16 17  2  0
 17 19  1  0
 19 21  2  0
 21 23  1  0
 23 25  2  0
 25 16  1  0
 12 13  1  0
 12 14  1  0
 12 15  1  0
 17 18  1  0
 19 20  1  0
 21 22  1  0
 23 24  1  0
 25 26  1  0
M  CHG  1   8   1
M  END
>  <PDB_ID>  (2383) 
pdb3q0y

>  <RESIDUE_NAME>  (2383) 
LYS   PHE

>  <FRAG_NAME>  (2383) 
ETAM   MBZ

>  <FRAG_ATOM_NUM>  (2383) 
fragi: 11  fragj: 15

>  <atom.prop.CHAIN_ID>  (2383) 
A A A A A A A A A A A Z Z Z Z Z Z Z Z Z Z Z Z Z Z Z

>  <atom.prop.IS_HEAVY_ATOM>  (2383) 
1 0 0 0 1 0 0 1 0 0 0 1 0 0 0 1 1 0 1 0 1 0 1 0 1 0

>  <DIFUSE_FUNC_ATOM>  (2383) 
n/a

>  <FINAL_SINGLE_POINT_ENERGY>  (2383) 
0

>  <NONCOV_INTER_ENERGY_QM>  (2383) 
0

>  <FF_Energy>  (2383) 
-4.22

>  <QM_Energy>  (2383) 
-9.99

>  <source>  (2383) 
ETAM_MBZ

>  <Index>  (2383) 
24950

$$$$
ETAM-pdb3q0y-C-LYS-112:MBZ-pdb3q0y-C-PHE-124
     RDKit          3D

 26 25  0  0  0  0  0  0  0  0999 V2000
   -0.2772   -0.4524   -3.5462 C   0  0  0  0  0  0  0  0  0  0  0  0
    0.6797   -0.4500   -3.2773 H   0  0  0  0  0  0  0  0  0  0  0  0
   -0.8643   -0.3920   -2.7464 H   0  0  0  0  0  0  0  0  0  0  0  0
   -0.4655    0.4075   -4.1890 H   0  0  0  0  0  0  0  0  0  0  0  0
   -0.5754   -1.7537   -4.2705 C   0  0  0  0  0  0  0  0  0  0  0  0
   -1.5610   -1.8083   -4.4518 H   0  0  0  0  0  0  0  0  0  0  0  0
   -0.0846   -1.7600   -5.1458 H   0  0  0  0  0  0  0  0  0  0  0  0
   -0.1607   -2.9425   -3.4710 N   0  0  0  0  0  4  0  0  0  0  0  0
    0.4516   -3.5111   -4.0181 H   0  0  0  0  0  0  0  0  0  0  0  0
    0.3126   -2.6364   -2.6453 H   0  0  0  0  0  0  0  0  0  0  0  0
   -0.9716   -3.4686   -3.2175 H   0  0  0  0  0  0  0  0  0  0  0  0
    0.0021    2.8952    0.0043 C   0  0  0  0  0  0  0  0  0  0  0  0
   -0.7548    3.2052   -0.5499 H   0  0  0  0  0  0  0  0  0  0  0  0
    0.8668    3.2029   -0.3621 H   0  0  0  0  0  0  0  0  0  0  0  0
   -0.1120    3.3344    0.9953 H   0  0  0  0  0  0  0  0  0  0  0  0
    0.0001    1.3949    0.0026 C   0  0  0  0  0  0  0  0  0  0  0  0
   -1.1915    0.6893   -0.0088 C   0  0  0  0  0  0  0  0  0  0  0  0
   -2.0596    1.1810   -0.0252 H   0  0  0  0  0  0  0  0  0  0  0  0
   -1.1951   -0.6939   -0.0000 C   0  0  0  0  0  0  0  0  0  0  0  0
   -2.0743   -1.1894    0.0047 H   0  0  0  0  0  0  0  0  0  0  0  0
   -0.0007   -1.3869    0.0039 C   0  0  0  0  0  0  0  0  0  0  0  0
   -0.0045   -2.3879    0.0087 H   0  0  0  0  0  0  0  0  0  0  0  0
    1.1951   -0.6939    0.0000 C   0  0  0  0  0  0  0  0  0  0  0  0
    2.0780   -1.1932   -0.0032 H   0  0  0  0  0  0  0  0  0  0  0  0
    1.1921    0.6905    0.0023 C   0  0  0  0  0  0  0  0  0  0  0  0
    2.0615    1.1871    0.0034 H   0  0  0  0  0  0  0  0  0  0  0  0
  1  5  1  0
  5  8  1  0
  1  2  1  0
  1  3  1  0
  1  4  1  0
  5  6  1  0
  5  7  1  0
  8  9  1  0
  8 10  1  0
  8 11  1  0
 12 16  1  0
 16 17  2  0
 17 19  1  0
 19 21  2  0
 21 23  1  0
 23 25  2  0
 25 16  1  0
 12 13  1  0
 12 14  1  0
 12 15  1  0
 17 18  1  0
 19 20  1  0
 21 22  1  0
 23 24  1  0
 25 26  1  0
M  CHG  1   8   1
M  END
>  <PDB_ID>  (2384) 
pdb3q0y

>  <RESIDUE_NAME>  (2384) 
LYS   PHE

>  <FRAG_NAME>  (2384) 
ETAM   MBZ

>  <FRAG_ATOM_NUM>  (2384) 
fragi: 11  fragj: 15

>  <atom.prop.CHAIN_ID>  (2384) 
A A A A A A A A A A A Z Z Z Z Z Z Z Z Z Z Z Z Z Z Z

>  <atom.prop.IS_HEAVY_ATOM>  (2384) 
1 0 0 0 1 0 0 1 0 0 0 1 0 0 0 1 1 0 1 0 1 0 1 0 1 0

>  <DIFUSE_FUNC_ATOM>  (2384) 
n/a

>  <FINAL_SINGLE_POINT_ENERGY>  (2384) 
0

>  <NONCOV_INTER_ENERGY_QM>  (2384) 
0

>  <FF_Energy>  (2384) 
-3.84

>  <QM_Energy>  (2384) 
-9.4

>  <source>  (2384) 
ETAM_MBZ

>  <Index>  (2384) 
24953

$$$$
ETAM-pdb3pzd-A-LYS-1787:MBZ-pdb3pzd-A-PHE-1745
     RDKit          3D

 26 25  0  0  0  0  0  0  0  0999 V2000
    1.1782    0.3410    4.4565 C   0  0  0  0  0  0  0  0  0  0  0  0
    1.1382   -0.5892    4.8151 H   0  0  0  0  0  0  0  0  0  0  0  0
    0.9886    0.9952    5.1850 H   0  0  0  0  0  0  0  0  0  0  0  0
    2.1824    0.5249    4.0745 H   0  0  0  0  0  0  0  0  0  0  0  0
    0.1258    0.4928    3.3789 C   0  0  0  0  0  0  0  0  0  0  0  0
    0.0912    1.4579    3.0900 H   0  0  0  0  0  0  0  0  0  0  0  0
    0.3923   -0.0640    2.5807 H   0  0  0  0  0  0  0  0  0  0  0  0
   -1.2241    0.0736    3.8329 N   0  0  0  0  0  4  0  0  0  0  0  0
   -1.8580    0.8428    3.7487 H   0  0  0  0  0  0  0  0  0  0  0  0
   -1.5449   -0.6865    3.2673 H   0  0  0  0  0  0  0  0  0  0  0  0
   -1.1787   -0.2186    4.7883 H   0  0  0  0  0  0  0  0  0  0  0  0
   -0.0051    2.9249    0.0328 C   0  0  0  0  0  0  0  0  0  0  0  0
    0.6588    3.2153    0.7083 H   0  0  0  0  0  0  0  0  0  0  0  0
   -0.9178    3.2186    0.2830 H   0  0  0  0  0  0  0  0  0  0  0  0
    0.2500    3.4063   -0.9113 H   0  0  0  0  0  0  0  0  0  0  0  0
    0.0021    1.4143   -0.0049 C   0  0  0  0  0  0  0  0  0  0  0  0
   -1.1967    0.7010    0.0053 C   0  0  0  0  0  0  0  0  0  0  0  0
   -2.0646    1.1863    0.0154 H   0  0  0  0  0  0  0  0  0  0  0  0
   -1.2065   -0.7062    0.0000 C   0  0  0  0  0  0  0  0  0  0  0  0
   -2.0868   -1.1888    0.0026 H   0  0  0  0  0  0  0  0  0  0  0  0
   -0.0075   -1.4083   -0.0060 C   0  0  0  0  0  0  0  0  0  0  0  0
   -0.0059   -2.4019   -0.0154 H   0  0  0  0  0  0  0  0  0  0  0  0
    1.2065   -0.7032    0.0000 C   0  0  0  0  0  0  0  0  0  0  0  0
    2.0839   -1.1989    0.0018 H   0  0  0  0  0  0  0  0  0  0  0  0
    1.2021    0.7024    0.0056 C   0  0  0  0  0  0  0  0  0  0  0  0
    2.0707    1.1922    0.0166 H   0  0  0  0  0  0  0  0  0  0  0  0
  1  5  1  0
  5  8  1  0
  1  2  1  0
  1  3  1  0
  1  4  1  0
  5  6  1  0
  5  7  1  0
  8  9  1  0
  8 10  1  0
  8 11  1  0
 12 16  1  0
 16 17  2  0
 17 19  1  0
 19 21  2  0
 21 23  1  0
 23 25  2  0
 25 16  1  0
 12 13  1  0
 12 14  1  0
 12 15  1  0
 17 18  1  0
 19 20  1  0
 21 22  1  0
 23 24  1  0
 25 26  1  0
M  CHG  1   8   1
M  END
>  <PDB_ID>  (2385) 
pdb3pzd

>  <RESIDUE_NAME>  (2385) 
LYS   PHE

>  <FRAG_NAME>  (2385) 
ETAM   MBZ

>  <FRAG_ATOM_NUM>  (2385) 
fragi: 11  fragj: 15

>  <atom.prop.CHAIN_ID>  (2385) 
A A A A A A A A A A A Z Z Z Z Z Z Z Z Z Z Z Z Z Z Z

>  <atom.prop.IS_HEAVY_ATOM>  (2385) 
1 0 0 0 1 0 0 1 0 0 0 1 0 0 0 1 1 0 1 0 1 0 1 0 1 0

>  <DIFUSE_FUNC_ATOM>  (2385) 
n/a

>  <FINAL_SINGLE_POINT_ENERGY>  (2385) 
0

>  <NONCOV_INTER_ENERGY_QM>  (2385) 
0

>  <FF_Energy>  (2385) 
-6.47

>  <QM_Energy>  (2385) 
-11.62

>  <source>  (2385) 
ETAM_MBZ

>  <Index>  (2385) 
24981

$$$$
ETAM-pdb4nqr-B-ALA-501:MBZ-pdb4nqr-D-PHE-204
     RDKit          3D

 26 25  0  0  0  0  0  0  0  0999 V2000
    0.8688    0.3387   -4.5143 C   0  0  0  0  0  0  0  0  0  0  0  0
    1.4274   -0.4366   -4.2301 H   0  0  0  0  0  0  0  0  0  0  0  0
    0.3804    0.1124   -5.3540 H   0  0  0  0  0  0  0  0  0  0  0  0
    1.4498    1.1350   -4.6658 H   0  0  0  0  0  0  0  0  0  0  0  0
   -0.1485    0.6589   -3.4100 C   0  0  0  0  0  0  0  0  0  0  0  0
    0.1904    0.2362   -2.5681 H   0  0  0  0  0  0  0  0  0  0  0  0
   -0.2445    1.7325   -3.2478 H   0  0  0  0  0  0  0  0  0  0  0  0
   -1.4625    0.0847   -3.7294 N   0  0  0  0  0  4  0  0  0  0  0  0
   -1.7941   -0.4517   -2.9528 H   0  0  0  0  0  0  0  0  0  0  0  0
   -2.1132    0.8190   -3.9250 H   0  0  0  0  0  0  0  0  0  0  0  0
   -1.3854   -0.5088   -4.5310 H   0  0  0  0  0  0  0  0  0  0  0  0
    0.0234    2.8906    0.0319 C   0  0  0  0  0  0  0  0  0  0  0  0
   -0.7274    3.2219   -0.5186 H   0  0  0  0  0  0  0  0  0  0  0  0
    0.8932    3.1944   -0.3263 H   0  0  0  0  0  0  0  0  0  0  0  0
   -0.0880    3.3110    1.0314 H   0  0  0  0  0  0  0  0  0  0  0  0
    0.0017    1.3919    0.0003 C   0  0  0  0  0  0  0  0  0  0  0  0
   -1.1944    0.6806   -0.0009 C   0  0  0  0  0  0  0  0  0  0  0  0
   -2.0604    1.1749   -0.0034 H   0  0  0  0  0  0  0  0  0  0  0  0
   -1.1963   -0.6980   -0.0000 C   0  0  0  0  0  0  0  0  0  0  0  0
   -2.0734   -1.1957    0.0001 H   0  0  0  0  0  0  0  0  0  0  0  0
   -0.0021   -1.3810    0.0031 C   0  0  0  0  0  0  0  0  0  0  0  0
    0.0034   -2.3834    0.0070 H   0  0  0  0  0  0  0  0  0  0  0  0
    1.1963   -0.6833    0.0000 C   0  0  0  0  0  0  0  0  0  0  0  0
    2.0783   -1.1905    0.0006 H   0  0  0  0  0  0  0  0  0  0  0  0
    1.1948    0.6897   -0.0024 C   0  0  0  0  0  0  0  0  0  0  0  0
    2.0620    1.1926   -0.0072 H   0  0  0  0  0  0  0  0  0  0  0  0
  1  5  1  0
  5  8  1  0
  1  2  1  0
  1  3  1  0
  1  4  1  0
  5  6  1  0
  5  7  1  0
  8  9  1  0
  8 10  1  0
  8 11  1  0
 12 16  1  0
 16 17  2  0
 17 19  1  0
 19 21  2  0
 21 23  1  0
 23 25  2  0
 25 16  1  0
 12 13  1  0
 12 14  1  0
 12 15  1  0
 17 18  1  0
 19 20  1  0
 21 22  1  0
 23 24  1  0
 25 26  1  0
M  CHG  1   8   1
M  END
>  <PDB_ID>  (2386) 
pdb4nqr

>  <RESIDUE_NAME>  (2386) 
ALA   PHE

>  <FRAG_NAME>  (2386) 
ETAM   MBZ

>  <FRAG_ATOM_NUM>  (2386) 
fragi: 11  fragj: 15

>  <atom.prop.CHAIN_ID>  (2386) 
A A A A A A A A A A A Z Z Z Z Z Z Z Z Z Z Z Z Z Z Z

>  <atom.prop.IS_HEAVY_ATOM>  (2386) 
1 0 0 0 1 0 0 1 0 0 0 1 0 0 0 1 1 0 1 0 1 0 1 0 1 0

>  <DIFUSE_FUNC_ATOM>  (2386) 
n/a

>  <FINAL_SINGLE_POINT_ENERGY>  (2386) 
0

>  <NONCOV_INTER_ENERGY_QM>  (2386) 
0

>  <FF_Energy>  (2386) 
-6.46

>  <QM_Energy>  (2386) 
-11.88

>  <source>  (2386) 
ETAM_MBZ

>  <Index>  (2386) 
24983

$$$$
ETAM-pdb3q9b-F-LYS-188:MBZ-pdb3q9b-F-PHE-272
     RDKit          3D

 26 25  0  0  0  0  0  0  0  0999 V2000
    0.4972   -1.3505    4.1433 C   0  0  0  0  0  0  0  0  0  0  0  0
    0.9225   -0.9721    4.9556 H   0  0  0  0  0  0  0  0  0  0  0  0
    0.4987   -0.6881    3.4042 H   0  0  0  0  0  0  0  0  0  0  0  0
    1.0500   -2.2365    3.8312 H   0  0  0  0  0  0  0  0  0  0  0  0
   -0.9518   -1.7000    4.4751 C   0  0  0  0  0  0  0  0  0  0  0  0
   -0.9629   -2.3469    5.2408 H   0  0  0  0  0  0  0  0  0  0  0  0
   -1.4339   -0.8638    4.7476 H   0  0  0  0  0  0  0  0  0  0  0  0
   -1.6664   -2.3151    3.3072 N   0  0  0  0  0  4  0  0  0  0  0  0
   -2.6479   -2.1795    3.4187 H   0  0  0  0  0  0  0  0  0  0  0  0
   -1.3560   -1.8758    2.4671 H   0  0  0  0  0  0  0  0  0  0  0  0
   -1.4599   -3.2905    3.2762 H   0  0  0  0  0  0  0  0  0  0  0  0
    0.0039    2.9027   -0.0055 C   0  0  0  0  0  0  0  0  0  0  0  0
   -0.5980    3.2097   -0.7276 H   0  0  0  0  0  0  0  0  0  0  0  0
    0.9317    3.2093   -0.1573 H   0  0  0  0  0  0  0  0  0  0  0  0
   -0.3433    3.3478    0.9269 H   0  0  0  0  0  0  0  0  0  0  0  0
    0.0016    1.4030   -0.0002 C   0  0  0  0  0  0  0  0  0  0  0  0
   -1.1983    0.6979    0.0009 C   0  0  0  0  0  0  0  0  0  0  0  0
   -2.0629    1.1908    0.0014 H   0  0  0  0  0  0  0  0  0  0  0  0
   -1.2058   -0.6933    0.0000 C   0  0  0  0  0  0  0  0  0  0  0  0
   -2.0832   -1.1864    0.0017 H   0  0  0  0  0  0  0  0  0  0  0  0
   -0.0033   -1.3990   -0.0008 C   0  0  0  0  0  0  0  0  0  0  0  0
   -0.0101   -2.3944   -0.0022 H   0  0  0  0  0  0  0  0  0  0  0  0
    1.2058   -0.7013   -0.0000 C   0  0  0  0  0  0  0  0  0  0  0  0
    2.0831   -1.1995    0.0017 H   0  0  0  0  0  0  0  0  0  0  0  0
    1.2000    0.6927    0.0001 C   0  0  0  0  0  0  0  0  0  0  0  0
    2.0679    1.1885   -0.0009 H   0  0  0  0  0  0  0  0  0  0  0  0
  1  5  1  0
  5  8  1  0
  1  2  1  0
  1  3  1  0
  1  4  1  0
  5  6  1  0
  5  7  1  0
  8  9  1  0
  8 10  1  0
  8 11  1  0
 12 16  1  0
 16 17  2  0
 17 19  1  0
 19 21  2  0
 21 23  1  0
 23 25  2  0
 25 16  1  0
 12 13  1  0
 12 14  1  0
 12 15  1  0
 17 18  1  0
 19 20  1  0
 21 22  1  0
 23 24  1  0
 25 26  1  0
M  CHG  1   8   1
M  END
>  <PDB_ID>  (2387) 
pdb3q9b

>  <RESIDUE_NAME>  (2387) 
LYS   PHE

>  <FRAG_NAME>  (2387) 
ETAM   MBZ

>  <FRAG_ATOM_NUM>  (2387) 
fragi: 11  fragj: 15

>  <atom.prop.CHAIN_ID>  (2387) 
A A A A A A A A A A A Z Z Z Z Z Z Z Z Z Z Z Z Z Z Z

>  <atom.prop.IS_HEAVY_ATOM>  (2387) 
1 0 0 0 1 0 0 1 0 0 0 1 0 0 0 1 1 0 1 0 1 0 1 0 1 0

>  <DIFUSE_FUNC_ATOM>  (2387) 
n/a

>  <FINAL_SINGLE_POINT_ENERGY>  (2387) 
0

>  <NONCOV_INTER_ENERGY_QM>  (2387) 
0

>  <FF_Energy>  (2387) 
-3.95

>  <QM_Energy>  (2387) 
-10.29

>  <source>  (2387) 
ETAM_MBZ

>  <Index>  (2387) 
25123

$$$$
ETAM-pdb3qav-A-LYS-20:MBZ-pdb3qav-A-PHE-167
     RDKit          3D

 26 25  0  0  0  0  0  0  0  0999 V2000
    0.3689    0.7608    4.4313 C   0  0  0  0  0  0  0  0  0  0  0  0
    0.9530    1.4900    4.0802 H   0  0  0  0  0  0  0  0  0  0  0  0
    0.7244    0.4313    5.3031 H   0  0  0  0  0  0  0  0  0  0  0  0
   -0.6304    1.1647    4.5937 H   0  0  0  0  0  0  0  0  0  0  0  0
    0.3810   -0.3944    3.4329 C   0  0  0  0  0  0  0  0  0  0  0  0
   -0.2461   -1.1121    3.7553 H   0  0  0  0  0  0  0  0  0  0  0  0
    0.0514   -0.0605    2.5427 H   0  0  0  0  0  0  0  0  0  0  0  0
    1.7497   -0.9987    3.2442 N   0  0  0  0  0  4  0  0  0  0  0  0
    1.9277   -1.6324    3.9929 H   0  0  0  0  0  0  0  0  0  0  0  0
    1.7702   -1.4826    2.3736 H   0  0  0  0  0  0  0  0  0  0  0  0
    2.4268   -0.2680    3.2460 H   0  0  0  0  0  0  0  0  0  0  0  0
    0.0124    2.9131   -0.0140 C   0  0  0  0  0  0  0  0  0  0  0  0
   -0.3468    3.2140   -0.8860 H   0  0  0  0  0  0  0  0  0  0  0  0
    0.9471    3.2126    0.1100 H   0  0  0  0  0  0  0  0  0  0  0  0
   -0.5892    3.3753    0.7686 H   0  0  0  0  0  0  0  0  0  0  0  0
   -0.0004    1.4057    0.0003 C   0  0  0  0  0  0  0  0  0  0  0  0
   -1.1957    0.7003   -0.0012 C   0  0  0  0  0  0  0  0  0  0  0  0
   -2.0637    1.1872   -0.0043 H   0  0  0  0  0  0  0  0  0  0  0  0
   -1.2019   -0.6975    0.0000 C   0  0  0  0  0  0  0  0  0  0  0  0
   -2.0800   -1.1867    0.0022 H   0  0  0  0  0  0  0  0  0  0  0  0
   -0.0012   -1.3962   -0.0001 C   0  0  0  0  0  0  0  0  0  0  0  0
   -0.0077   -2.3956   -0.0007 H   0  0  0  0  0  0  0  0  0  0  0  0
    1.2019   -0.7029   -0.0000 C   0  0  0  0  0  0  0  0  0  0  0  0
    2.0811   -1.2001    0.0013 H   0  0  0  0  0  0  0  0  0  0  0  0
    1.1973    0.6906    0.0009 C   0  0  0  0  0  0  0  0  0  0  0  0
    2.0666    1.1862    0.0010 H   0  0  0  0  0  0  0  0  0  0  0  0
  1  5  1  0
  5  8  1  0
  1  2  1  0
  1  3  1  0
  1  4  1  0
  5  6  1  0
  5  7  1  0
  8  9  1  0
  8 10  1  0
  8 11  1  0
 12 16  1  0
 16 17  2  0
 17 19  1  0
 19 21  2  0
 21 23  1  0
 23 25  2  0
 25 16  1  0
 12 13  1  0
 12 14  1  0
 12 15  1  0
 17 18  1  0
 19 20  1  0
 21 22  1  0
 23 24  1  0
 25 26  1  0
M  CHG  1   8   1
M  END
>  <PDB_ID>  (2388) 
pdb3qav

>  <RESIDUE_NAME>  (2388) 
LYS   PHE

>  <FRAG_NAME>  (2388) 
ETAM   MBZ

>  <FRAG_ATOM_NUM>  (2388) 
fragi: 11  fragj: 15

>  <atom.prop.CHAIN_ID>  (2388) 
A A A A A A A A A A A Z Z Z Z Z Z Z Z Z Z Z Z Z Z Z

>  <atom.prop.IS_HEAVY_ATOM>  (2388) 
1 0 0 0 1 0 0 1 0 0 0 1 0 0 0 1 1 0 1 0 1 0 1 0 1 0

>  <DIFUSE_FUNC_ATOM>  (2388) 
n/a

>  <FINAL_SINGLE_POINT_ENERGY>  (2388) 
0

>  <NONCOV_INTER_ENERGY_QM>  (2388) 
0

>  <FF_Energy>  (2388) 
-5.77

>  <QM_Energy>  (2388) 
-13.45

>  <source>  (2388) 
ETAM_MBZ

>  <Index>  (2388) 
25125

$$$$
ETAM-pdb3q9b-J-LYS-188:MBZ-pdb3q9b-J-PHE-272
     RDKit          3D

 26 25  0  0  0  0  0  0  0  0999 V2000
    0.4512   -1.1072    4.0812 C   0  0  0  0  0  0  0  0  0  0  0  0
    0.9372   -0.6524    4.8144 H   0  0  0  0  0  0  0  0  0  0  0  0
    0.3879   -0.5256    3.2814 H   0  0  0  0  0  0  0  0  0  0  0  0
    0.9874   -2.0180    3.8148 H   0  0  0  0  0  0  0  0  0  0  0  0
   -0.9467   -1.4411    4.5542 C   0  0  0  0  0  0  0  0  0  0  0  0
   -0.8943   -1.9855    5.3865 H   0  0  0  0  0  0  0  0  0  0  0  0
   -1.4488   -0.5992    4.7254 H   0  0  0  0  0  0  0  0  0  0  0  0
   -1.6697   -2.2319    3.5017 N   0  0  0  0  0  4  0  0  0  0  0  0
   -2.4409   -1.6959    3.1648 H   0  0  0  0  0  0  0  0  0  0  0  0
   -1.0398   -2.4291    2.7543 H   0  0  0  0  0  0  0  0  0  0  0  0
   -1.9983   -3.0835    3.9040 H   0  0  0  0  0  0  0  0  0  0  0  0
    0.0083    2.9145    0.0188 C   0  0  0  0  0  0  0  0  0  0  0  0
   -0.5526    3.2332   -0.7314 H   0  0  0  0  0  0  0  0  0  0  0  0
    0.9445    3.2169   -0.0790 H   0  0  0  0  0  0  0  0  0  0  0  0
   -0.3868    3.3496    0.9368 H   0  0  0  0  0  0  0  0  0  0  0  0
    0.0005    1.4086    0.0001 C   0  0  0  0  0  0  0  0  0  0  0  0
   -1.1999    0.7040   -0.0002 C   0  0  0  0  0  0  0  0  0  0  0  0
   -2.0648    1.1907   -0.0022 H   0  0  0  0  0  0  0  0  0  0  0  0
   -1.2060   -0.6966   -0.0000 C   0  0  0  0  0  0  0  0  0  0  0  0
   -2.0826   -1.1866    0.0003 H   0  0  0  0  0  0  0  0  0  0  0  0
    0.0002   -1.4048    0.0010 C   0  0  0  0  0  0  0  0  0  0  0  0
   -0.0091   -2.3986    0.0021 H   0  0  0  0  0  0  0  0  0  0  0  0
    1.2060   -0.7061   -0.0000 C   0  0  0  0  0  0  0  0  0  0  0  0
    2.0862   -1.1998    0.0013 H   0  0  0  0  0  0  0  0  0  0  0  0
    1.1993    0.6949   -0.0009 C   0  0  0  0  0  0  0  0  0  0  0  0
    2.0678    1.1878   -0.0033 H   0  0  0  0  0  0  0  0  0  0  0  0
  1  5  1  0
  5  8  1  0
  1  2  1  0
  1  3  1  0
  1  4  1  0
  5  6  1  0
  5  7  1  0
  8  9  1  0
  8 10  1  0
  8 11  1  0
 12 16  1  0
 16 17  2  0
 17 19  1  0
 19 21  2  0
 21 23  1  0
 23 25  2  0
 25 16  1  0
 12 13  1  0
 12 14  1  0
 12 15  1  0
 17 18  1  0
 19 20  1  0
 21 22  1  0
 23 24  1  0
 25 26  1  0
M  CHG  1   8   1
M  END
>  <PDB_ID>  (2389) 
pdb3q9b

>  <RESIDUE_NAME>  (2389) 
LYS   PHE

>  <FRAG_NAME>  (2389) 
ETAM   MBZ

>  <FRAG_ATOM_NUM>  (2389) 
fragi: 11  fragj: 15

>  <atom.prop.CHAIN_ID>  (2389) 
A A A A A A A A A A A Z Z Z Z Z Z Z Z Z Z Z Z Z Z Z

>  <atom.prop.IS_HEAVY_ATOM>  (2389) 
1 0 0 0 1 0 0 1 0 0 0 1 0 0 0 1 1 0 1 0 1 0 1 0 1 0

>  <DIFUSE_FUNC_ATOM>  (2389) 
n/a

>  <FINAL_SINGLE_POINT_ENERGY>  (2389) 
0

>  <NONCOV_INTER_ENERGY_QM>  (2389) 
0

>  <FF_Energy>  (2389) 
-3.75

>  <QM_Energy>  (2389) 
-8.95

>  <source>  (2389) 
ETAM_MBZ

>  <Index>  (2389) 
25131

$$$$
ETAM-pdb4o94-C-LYS-281:MBZ-pdb4o94-C-PHE-215
     RDKit          3D

 26 25  0  0  0  0  0  0  0  0999 V2000
    0.8662   -1.5916   -4.3164 C   0  0  0  0  0  0  0  0  0  0  0  0
    1.3148   -2.2836   -4.8277 H   0  0  0  0  0  0  0  0  0  0  0  0
    1.1098   -0.7135   -4.6489 H   0  0  0  0  0  0  0  0  0  0  0  0
   -0.2128   -1.7235   -4.3957 H   0  0  0  0  0  0  0  0  0  0  0  0
    1.3096   -1.6962   -2.8883 C   0  0  0  0  0  0  0  0  0  0  0  0
    1.5559   -0.8161   -2.5656 H   0  0  0  0  0  0  0  0  0  0  0  0
    0.5846   -2.0585   -2.3547 H   0  0  0  0  0  0  0  0  0  0  0  0
    2.4877   -2.5934   -2.7430 N   0  0  0  0  0  4  0  0  0  0  0  0
    2.7309   -2.6385   -1.8880 H   0  0  0  0  0  0  0  0  0  0  0  0
    2.2848   -3.4107   -3.0303 H   0  0  0  0  0  0  0  0  0  0  0  0
    3.1694   -2.2801   -3.2213 H   0  0  0  0  0  0  0  0  0  0  0  0
   -0.0072    2.8821    0.0042 C   0  0  0  0  0  0  0  0  0  0  0  0
   -0.5793    3.1867   -0.7179 H   0  0  0  0  0  0  0  0  0  0  0  0
    0.9018    3.1878   -0.1418 H   0  0  0  0  0  0  0  0  0  0  0  0
   -0.3727    3.2966    0.9437 H   0  0  0  0  0  0  0  0  0  0  0  0
   -0.0003    1.3870   -0.0132 C   0  0  0  0  0  0  0  0  0  0  0  0
   -1.1888    0.6870   -0.0031 C   0  0  0  0  0  0  0  0  0  0  0  0
   -1.9941    1.1501   -0.0027 H   0  0  0  0  0  0  0  0  0  0  0  0
   -1.1951   -0.6896    0.0000 C   0  0  0  0  0  0  0  0  0  0  0  0
   -2.0027   -1.1516    0.0054 H   0  0  0  0  0  0  0  0  0  0  0  0
   -0.0044   -1.3789    0.0193 C   0  0  0  0  0  0  0  0  0  0  0  0
   -0.0059   -2.3089    0.0110 H   0  0  0  0  0  0  0  0  0  0  0  0
    1.1951   -0.6878   -0.0000 C   0  0  0  0  0  0  0  0  0  0  0  0
    1.9995   -1.1525    0.0060 H   0  0  0  0  0  0  0  0  0  0  0  0
    1.1936    0.6824   -0.0030 C   0  0  0  0  0  0  0  0  0  0  0  0
    2.0011    1.1432   -0.0023 H   0  0  0  0  0  0  0  0  0  0  0  0
  1  5  1  0
  5  8  1  0
  1  2  1  0
  1  3  1  0
  1  4  1  0
  5  6  1  0
  5  7  1  0
  8  9  1  0
  8 10  1  0
  8 11  1  0
 12 16  1  0
 16 17  2  0
 17 19  1  0
 19 21  2  0
 21 23  1  0
 23 25  2  0
 25 16  1  0
 12 13  1  0
 12 14  1  0
 12 15  1  0
 17 18  1  0
 19 20  1  0
 21 22  1  0
 23 24  1  0
 25 26  1  0
M  CHG  1   8   1
M  END
>  <PDB_ID>  (2390) 
pdb4o94

>  <RESIDUE_NAME>  (2390) 
LYS   PHE

>  <FRAG_NAME>  (2390) 
ETAM   MBZ

>  <FRAG_ATOM_NUM>  (2390) 
fragi: 11  fragj: 15

>  <atom.prop.CHAIN_ID>  (2390) 
A A A A A A A A A A A Z Z Z Z Z Z Z Z Z Z Z Z Z Z Z

>  <atom.prop.IS_HEAVY_ATOM>  (2390) 
1 0 0 0 1 0 0 1 0 0 0 1 0 0 0 1 1 0 1 0 1 0 1 0 1 0

>  <DIFUSE_FUNC_ATOM>  (2390) 
n/a

>  <FINAL_SINGLE_POINT_ENERGY>  (2390) 
0

>  <NONCOV_INTER_ENERGY_QM>  (2390) 
0

>  <FF_Energy>  (2390) 
-0.1

>  <QM_Energy>  (2390) 
-5.48

>  <source>  (2390) 
ETAM_MBZ

>  <Index>  (2390) 
25181

$$$$
ETAM-pdb4o94-D-LYS-281:MBZ-pdb4o94-D-PHE-215
     RDKit          3D

 26 25  0  0  0  0  0  0  0  0999 V2000
    0.5928   -1.4723   -4.0858 C   0  0  0  0  0  0  0  0  0  0  0  0
    1.1515   -1.8387   -4.7892 H   0  0  0  0  0  0  0  0  0  0  0  0
    0.7861   -0.5286   -3.9699 H   0  0  0  0  0  0  0  0  0  0  0  0
   -0.4532   -1.5856   -4.3705 H   0  0  0  0  0  0  0  0  0  0  0  0
    0.9472   -2.1832   -2.7922 C   0  0  0  0  0  0  0  0  0  0  0  0
    0.5494   -1.6984   -2.0512 H   0  0  0  0  0  0  0  0  0  0  0  0
    0.5897   -3.0843   -2.8226 H   0  0  0  0  0  0  0  0  0  0  0  0
    2.4284   -2.2858   -2.5304 N   0  0  0  0  0  4  0  0  0  0  0  0
    2.5722   -2.7099   -1.7608 H   0  0  0  0  0  0  0  0  0  0  0  0
    2.8223   -2.7368   -3.1886 H   0  0  0  0  0  0  0  0  0  0  0  0
    2.7856   -1.4718   -2.4835 H   0  0  0  0  0  0  0  0  0  0  0  0
   -0.0151    2.8771    0.0384 C   0  0  0  0  0  0  0  0  0  0  0  0
   -0.6613    3.1991   -0.6084 H   0  0  0  0  0  0  0  0  0  0  0  0
    0.8723    3.1976   -0.1883 H   0  0  0  0  0  0  0  0  0  0  0  0
   -0.2858    3.2447    1.0281 H   0  0  0  0  0  0  0  0  0  0  0  0
   -0.0013    1.3921   -0.0203 C   0  0  0  0  0  0  0  0  0  0  0  0
   -1.1955    0.6874    0.0134 C   0  0  0  0  0  0  0  0  0  0  0  0
   -2.0021    1.1492    0.0135 H   0  0  0  0  0  0  0  0  0  0  0  0
   -1.1973   -0.6990   -0.0000 C   0  0  0  0  0  0  0  0  0  0  0  0
   -2.0016   -1.1652    0.0049 H   0  0  0  0  0  0  0  0  0  0  0  0
    0.0061   -1.3857    0.0060 C   0  0  0  0  0  0  0  0  0  0  0  0
    0.0115   -2.3155   -0.0067 H   0  0  0  0  0  0  0  0  0  0  0  0
    1.1973   -0.6880   -0.0000 C   0  0  0  0  0  0  0  0  0  0  0  0
    2.0060   -1.1477   -0.0059 H   0  0  0  0  0  0  0  0  0  0  0  0
    1.1907    0.6932    0.0009 C   0  0  0  0  0  0  0  0  0  0  0  0
    1.9965    1.1574    0.0019 H   0  0  0  0  0  0  0  0  0  0  0  0
  1  5  1  0
  5  8  1  0
  1  2  1  0
  1  3  1  0
  1  4  1  0
  5  6  1  0
  5  7  1  0
  8  9  1  0
  8 10  1  0
  8 11  1  0
 12 16  1  0
 16 17  2  0
 17 19  1  0
 19 21  2  0
 21 23  1  0
 23 25  2  0
 25 16  1  0
 12 13  1  0
 12 14  1  0
 12 15  1  0
 17 18  1  0
 19 20  1  0
 21 22  1  0
 23 24  1  0
 25 26  1  0
M  CHG  1   8   1
M  END
>  <PDB_ID>  (2391) 
pdb4o94

>  <RESIDUE_NAME>  (2391) 
LYS   PHE

>  <FRAG_NAME>  (2391) 
ETAM   MBZ

>  <FRAG_ATOM_NUM>  (2391) 
fragi: 11  fragj: 15

>  <atom.prop.CHAIN_ID>  (2391) 
A A A A A A A A A A A Z Z Z Z Z Z Z Z Z Z Z Z Z Z Z

>  <atom.prop.IS_HEAVY_ATOM>  (2391) 
1 0 0 0 1 0 0 1 0 0 0 1 0 0 0 1 1 0 1 0 1 0 1 0 1 0

>  <DIFUSE_FUNC_ATOM>  (2391) 
n/a

>  <FINAL_SINGLE_POINT_ENERGY>  (2391) 
0

>  <NONCOV_INTER_ENERGY_QM>  (2391) 
0

>  <FF_Energy>  (2391) 
9.25

>  <QM_Energy>  (2391) 
-4.91

>  <source>  (2391) 
ETAM_MBZ

>  <Index>  (2391) 
25182

$$$$
ETAM-pdb3qdf-A-LYS-165:MBZ-pdb3qdf-A-PHE-91
     RDKit          3D

 26 25  0  0  0  0  0  0  0  0999 V2000
    1.9034   -1.7267    2.9649 C   0  0  0  0  0  0  0  0  0  0  0  0
    1.8326   -0.7945    3.3156 H   0  0  0  0  0  0  0  0  0  0  0  0
    1.8467   -1.7194    1.9693 H   0  0  0  0  0  0  0  0  0  0  0  0
    2.8630   -2.1479    3.2647 H   0  0  0  0  0  0  0  0  0  0  0  0
    0.7432   -2.5339    3.5067 C   0  0  0  0  0  0  0  0  0  0  0  0
    0.7946   -2.5452    4.5166 H   0  0  0  0  0  0  0  0  0  0  0  0
   -0.1224   -2.0796    3.2479 H   0  0  0  0  0  0  0  0  0  0  0  0
    0.7157   -3.9380    3.0102 N   0  0  0  0  0  4  0  0  0  0  0  0
    0.1388   -4.4904    3.6113 H   0  0  0  0  0  0  0  0  0  0  0  0
    0.3449   -3.9539    2.0821 H   0  0  0  0  0  0  0  0  0  0  0  0
    1.6449   -4.3058    3.0058 H   0  0  0  0  0  0  0  0  0  0  0  0
   -0.0001    2.9351    0.0199 C   0  0  0  0  0  0  0  0  0  0  0  0
    0.8492    3.2263    0.4362 H   0  0  0  0  0  0  0  0  0  0  0  0
   -0.7799    3.2285    0.5546 H   0  0  0  0  0  0  0  0  0  0  0  0
   -0.0712    3.4019   -0.9625 H   0  0  0  0  0  0  0  0  0  0  0  0
   -0.0036    1.4183   -0.0034 C   0  0  0  0  0  0  0  0  0  0  0  0
   -1.2003    0.7154    0.0046 C   0  0  0  0  0  0  0  0  0  0  0  0
   -2.0690    1.1979    0.0126 H   0  0  0  0  0  0  0  0  0  0  0  0
   -1.2155   -0.7002   -0.0000 C   0  0  0  0  0  0  0  0  0  0  0  0
   -2.0885   -1.1832   -0.0038 H   0  0  0  0  0  0  0  0  0  0  0  0
    0.0031   -1.4186    0.0029 C   0  0  0  0  0  0  0  0  0  0  0  0
   -0.0114   -2.4080    0.0066 H   0  0  0  0  0  0  0  0  0  0  0  0
    1.2155   -0.7164    0.0000 C   0  0  0  0  0  0  0  0  0  0  0  0
    2.0938   -1.2005    0.0023 H   0  0  0  0  0  0  0  0  0  0  0  0
    1.2008    0.7015   -0.0042 C   0  0  0  0  0  0  0  0  0  0  0  0
    2.0695    1.1918   -0.0086 H   0  0  0  0  0  0  0  0  0  0  0  0
  1  5  1  0
  5  8  1  0
  1  2  1  0
  1  3  1  0
  1  4  1  0
  5  6  1  0
  5  7  1  0
  8  9  1  0
  8 10  1  0
  8 11  1  0
 12 16  1  0
 16 17  2  0
 17 19  1  0
 19 21  2  0
 21 23  1  0
 23 25  2  0
 25 16  1  0
 12 13  1  0
 12 14  1  0
 12 15  1  0
 17 18  1  0
 19 20  1  0
 21 22  1  0
 23 24  1  0
 25 26  1  0
M  CHG  1   8   1
M  END
>  <PDB_ID>  (2392) 
pdb3qdf

>  <RESIDUE_NAME>  (2392) 
LYS   PHE

>  <FRAG_NAME>  (2392) 
ETAM   MBZ

>  <FRAG_ATOM_NUM>  (2392) 
fragi: 11  fragj: 15

>  <atom.prop.CHAIN_ID>  (2392) 
A A A A A A A A A A A Z Z Z Z Z Z Z Z Z Z Z Z Z Z Z

>  <atom.prop.IS_HEAVY_ATOM>  (2392) 
1 0 0 0 1 0 0 1 0 0 0 1 0 0 0 1 1 0 1 0 1 0 1 0 1 0

>  <DIFUSE_FUNC_ATOM>  (2392) 
n/a

>  <FINAL_SINGLE_POINT_ENERGY>  (2392) 
0

>  <NONCOV_INTER_ENERGY_QM>  (2392) 
0

>  <FF_Energy>  (2392) 
1.86

>  <QM_Energy>  (2392) 
-4.54

>  <source>  (2392) 
ETAM_MBZ

>  <Index>  (2392) 
25206

$$$$
ETAM-pdb4o8m-B-LYS-51:MBZ-pdb4o8m-B-PHE-47
     RDKit          3D

 26 25  0  0  0  0  0  0  0  0999 V2000
   -2.4159   -2.9534   -4.6798 C   0  0  0  0  0  0  0  0  0  0  0  0
   -2.7773   -3.8531   -4.6387 H   0  0  0  0  0  0  0  0  0  0  0  0
   -2.2183   -2.7182   -5.6002 H   0  0  0  0  0  0  0  0  0  0  0  0
   -3.1566   -2.2562   -4.2884 H   0  0  0  0  0  0  0  0  0  0  0  0
   -1.1021   -2.9361   -3.8969 C   0  0  0  0  0  0  0  0  0  0  0  0
   -0.4461   -3.4688   -4.3725 H   0  0  0  0  0  0  0  0  0  0  0  0
   -0.7934   -2.0204   -3.8202 H   0  0  0  0  0  0  0  0  0  0  0  0
   -1.2358   -3.4921   -2.5239 N   0  0  0  0  0  4  0  0  0  0  0  0
   -0.4506   -3.4626   -2.1067 H   0  0  0  0  0  0  0  0  0  0  0  0
   -1.8278   -3.0167   -2.0602 H   0  0  0  0  0  0  0  0  0  0  0  0
   -1.5112   -4.3378   -2.5634 H   0  0  0  0  0  0  0  0  0  0  0  0
   -0.0024    2.8763   -0.0056 C   0  0  0  0  0  0  0  0  0  0  0  0
    0.8300    3.1728    0.3924 H   0  0  0  0  0  0  0  0  0  0  0  0
   -0.7501    3.1773    0.5334 H   0  0  0  0  0  0  0  0  0  0  0  0
   -0.0902    3.3127   -1.0006 H   0  0  0  0  0  0  0  0  0  0  0  0
   -0.0056    1.3880    0.0058 C   0  0  0  0  0  0  0  0  0  0  0  0
   -1.1906    0.6801   -0.0054 C   0  0  0  0  0  0  0  0  0  0  0  0
   -1.9981    1.1412   -0.0042 H   0  0  0  0  0  0  0  0  0  0  0  0
   -1.1979   -0.6991    0.0000 C   0  0  0  0  0  0  0  0  0  0  0  0
   -2.0035   -1.1637   -0.0041 H   0  0  0  0  0  0  0  0  0  0  0  0
    0.0078   -1.3869   -0.0033 C   0  0  0  0  0  0  0  0  0  0  0  0
    0.0173   -2.3165   -0.0000 H   0  0  0  0  0  0  0  0  0  0  0  0
    1.1979   -0.6778   -0.0000 C   0  0  0  0  0  0  0  0  0  0  0  0
    2.0078   -1.1340    0.0022 H   0  0  0  0  0  0  0  0  0  0  0  0
    1.1885    0.6957    0.0030 C   0  0  0  0  0  0  0  0  0  0  0  0
    1.9931    1.1624    0.0031 H   0  0  0  0  0  0  0  0  0  0  0  0
  1  5  1  0
  5  8  1  0
  1  2  1  0
  1  3  1  0
  1  4  1  0
  5  6  1  0
  5  7  1  0
  8  9  1  0
  8 10  1  0
  8 11  1  0
 12 16  1  0
 16 17  2  0
 17 19  1  0
 19 21  2  0
 21 23  1  0
 23 25  2  0
 25 16  1  0
 12 13  1  0
 12 14  1  0
 12 15  1  0
 17 18  1  0
 19 20  1  0
 21 22  1  0
 23 24  1  0
 25 26  1  0
M  CHG  1   8   1
M  END
>  <PDB_ID>  (2393) 
pdb4o8m

>  <RESIDUE_NAME>  (2393) 
LYS   PHE

>  <FRAG_NAME>  (2393) 
ETAM   MBZ

>  <FRAG_ATOM_NUM>  (2393) 
fragi: 11  fragj: 15

>  <atom.prop.CHAIN_ID>  (2393) 
A A A A A A A A A A A Z Z Z Z Z Z Z Z Z Z Z Z Z Z Z

>  <atom.prop.IS_HEAVY_ATOM>  (2393) 
1 0 0 0 1 0 0 1 0 0 0 1 0 0 0 1 1 0 1 0 1 0 1 0 1 0

>  <DIFUSE_FUNC_ATOM>  (2393) 
n/a

>  <FINAL_SINGLE_POINT_ENERGY>  (2393) 
0

>  <NONCOV_INTER_ENERGY_QM>  (2393) 
0

>  <FF_Energy>  (2393) 
-1.29

>  <QM_Energy>  (2393) 
-6.88

>  <source>  (2393) 
ETAM_MBZ

>  <Index>  (2393) 
25216

$$$$
ETAM-pdb3qfh-B-LYS-185:MBZ-pdb3qfh-B-PHE-216
     RDKit          3D

 26 25  0  0  0  0  0  0  0  0999 V2000
   -2.3879    2.4101    3.8401 C   0  0  0  0  0  0  0  0  0  0  0  0
   -1.5500    2.3422    3.3037 H   0  0  0  0  0  0  0  0  0  0  0  0
   -2.4808    1.6094    4.4284 H   0  0  0  0  0  0  0  0  0  0  0  0
   -2.3465    3.3073    4.4577 H   0  0  0  0  0  0  0  0  0  0  0  0
   -3.5497    2.4713    2.9183 C   0  0  0  0  0  0  0  0  0  0  0  0
   -4.4017    2.4957    3.4474 H   0  0  0  0  0  0  0  0  0  0  0  0
   -3.4933    3.3000    2.3548 H   0  0  0  0  0  0  0  0  0  0  0  0
   -3.5699    1.2894    2.0316 N   0  0  0  0  0  4  0  0  0  0  0  0
   -4.4073    1.2944    1.4825 H   0  0  0  0  0  0  0  0  0  0  0  0
   -2.7751    1.3112    1.4225 H   0  0  0  0  0  0  0  0  0  0  0  0
   -3.5404    0.4541    2.5832 H   0  0  0  0  0  0  0  0  0  0  0  0
    0.0091    2.9009    0.0347 C   0  0  0  0  0  0  0  0  0  0  0  0
    0.8145    3.1927    0.5399 H   0  0  0  0  0  0  0  0  0  0  0  0
   -0.8185    3.1956    0.5012 H   0  0  0  0  0  0  0  0  0  0  0  0
    0.0333    3.3911   -0.9386 H   0  0  0  0  0  0  0  0  0  0  0  0
    0.0071    1.3989   -0.0051 C   0  0  0  0  0  0  0  0  0  0  0  0
   -1.1888    0.6937    0.0054 C   0  0  0  0  0  0  0  0  0  0  0  0
   -2.0552    1.1840    0.0153 H   0  0  0  0  0  0  0  0  0  0  0  0
   -1.1962   -0.6981   -0.0000 C   0  0  0  0  0  0  0  0  0  0  0  0
   -2.0819   -1.1834    0.0037 H   0  0  0  0  0  0  0  0  0  0  0  0
   -0.0130   -1.3896   -0.0079 C   0  0  0  0  0  0  0  0  0  0  0  0
   -0.0093   -2.3898   -0.0196 H   0  0  0  0  0  0  0  0  0  0  0  0
    1.1962   -0.6946    0.0000 C   0  0  0  0  0  0  0  0  0  0  0  0
    2.0722   -1.2003    0.0017 H   0  0  0  0  0  0  0  0  0  0  0  0
    1.1947    0.6897    0.0077 C   0  0  0  0  0  0  0  0  0  0  0  0
    2.0674    1.1846    0.0218 H   0  0  0  0  0  0  0  0  0  0  0  0
  1  5  1  0
  5  8  1  0
  1  2  1  0
  1  3  1  0
  1  4  1  0
  5  6  1  0
  5  7  1  0
  8  9  1  0
  8 10  1  0
  8 11  1  0
 12 16  1  0
 16 17  2  0
 17 19  1  0
 19 21  2  0
 21 23  1  0
 23 25  2  0
 25 16  1  0
 12 13  1  0
 12 14  1  0
 12 15  1  0
 17 18  1  0
 19 20  1  0
 21 22  1  0
 23 24  1  0
 25 26  1  0
M  CHG  1   8   1
M  END
>  <PDB_ID>  (2394) 
pdb3qfh

>  <RESIDUE_NAME>  (2394) 
LYS   PHE

>  <FRAG_NAME>  (2394) 
ETAM   MBZ

>  <FRAG_ATOM_NUM>  (2394) 
fragi: 11  fragj: 15

>  <atom.prop.CHAIN_ID>  (2394) 
A A A A A A A A A A A Z Z Z Z Z Z Z Z Z Z Z Z Z Z Z

>  <atom.prop.IS_HEAVY_ATOM>  (2394) 
1 0 0 0 1 0 0 1 0 0 0 1 0 0 0 1 1 0 1 0 1 0 1 0 1 0

>  <DIFUSE_FUNC_ATOM>  (2394) 
n/a

>  <FINAL_SINGLE_POINT_ENERGY>  (2394) 
0

>  <NONCOV_INTER_ENERGY_QM>  (2394) 
0

>  <FF_Energy>  (2394) 
-0.12

>  <QM_Energy>  (2394) 
-5.81

>  <source>  (2394) 
ETAM_MBZ

>  <Index>  (2394) 
25263

$$$$
ETAM-pdb3qfh-F-LYS-70:MBZ-pdb3qfh-F-PHE-259
     RDKit          3D

 26 25  0  0  0  0  0  0  0  0999 V2000
   -1.3992   -5.3076    2.9668 C   0  0  0  0  0  0  0  0  0  0  0  0
   -1.0775   -5.9179    2.2509 H   0  0  0  0  0  0  0  0  0  0  0  0
   -1.7349   -5.8299    3.7429 H   0  0  0  0  0  0  0  0  0  0  0  0
   -0.5666   -4.6862    3.2965 H   0  0  0  0  0  0  0  0  0  0  0  0
   -2.5452   -4.4682    2.4119 C   0  0  0  0  0  0  0  0  0  0  0  0
   -3.2664   -5.0835    2.0796 H   0  0  0  0  0  0  0  0  0  0  0  0
   -2.9204   -3.9016    3.1514 H   0  0  0  0  0  0  0  0  0  0  0  0
   -2.1077   -3.5796    1.2923 N   0  0  0  0  0  4  0  0  0  0  0  0
   -1.1195   -3.4458    1.3461 H   0  0  0  0  0  0  0  0  0  0  0  0
   -2.3432   -4.0083    0.4220 H   0  0  0  0  0  0  0  0  0  0  0  0
   -2.5723   -2.6997    1.3711 H   0  0  0  0  0  0  0  0  0  0  0  0
    0.0079    2.8943   -0.0355 C   0  0  0  0  0  0  0  0  0  0  0  0
    0.7223    3.2182    0.5611 H   0  0  0  0  0  0  0  0  0  0  0  0
   -0.8800    3.2182    0.2438 H   0  0  0  0  0  0  0  0  0  0  0  0
    0.2050    3.2845   -1.0340 H   0  0  0  0  0  0  0  0  0  0  0  0
   -0.0015    1.3990    0.0123 C   0  0  0  0  0  0  0  0  0  0  0  0
   -1.1995    0.6941   -0.0076 C   0  0  0  0  0  0  0  0  0  0  0  0
   -2.0646    1.1843   -0.0290 H   0  0  0  0  0  0  0  0  0  0  0  0
   -1.2036   -0.6974   -0.0000 C   0  0  0  0  0  0  0  0  0  0  0  0
   -2.0750   -1.1941    0.0060 H   0  0  0  0  0  0  0  0  0  0  0  0
    0.0069   -1.3942    0.0006 C   0  0  0  0  0  0  0  0  0  0  0  0
    0.0020   -2.3906    0.0010 H   0  0  0  0  0  0  0  0  0  0  0  0
    1.2036   -0.6924   -0.0000 C   0  0  0  0  0  0  0  0  0  0  0  0
    2.0877   -1.1897    0.0050 H   0  0  0  0  0  0  0  0  0  0  0  0
    1.1940    0.6908   -0.0053 C   0  0  0  0  0  0  0  0  0  0  0  0
    2.0619    1.1924   -0.0232 H   0  0  0  0  0  0  0  0  0  0  0  0
  1  5  1  0
  5  8  1  0
  1  2  1  0
  1  3  1  0
  1  4  1  0
  5  6  1  0
  5  7  1  0
  8  9  1  0
  8 10  1  0
  8 11  1  0
 12 16  1  0
 16 17  2  0
 17 19  1  0
 19 21  2  0
 21 23  1  0
 23 25  2  0
 25 16  1  0
 12 13  1  0
 12 14  1  0
 12 15  1  0
 17 18  1  0
 19 20  1  0
 21 22  1  0
 23 24  1  0
 25 26  1  0
M  CHG  1   8   1
M  END
>  <PDB_ID>  (2395) 
pdb3qfh

>  <RESIDUE_NAME>  (2395) 
LYS   PHE

>  <FRAG_NAME>  (2395) 
ETAM   MBZ

>  <FRAG_ATOM_NUM>  (2395) 
fragi: 11  fragj: 15

>  <atom.prop.CHAIN_ID>  (2395) 
A A A A A A A A A A A Z Z Z Z Z Z Z Z Z Z Z Z Z Z Z

>  <atom.prop.IS_HEAVY_ATOM>  (2395) 
1 0 0 0 1 0 0 1 0 0 0 1 0 0 0 1 1 0 1 0 1 0 1 0 1 0

>  <DIFUSE_FUNC_ATOM>  (2395) 
n/a

>  <FINAL_SINGLE_POINT_ENERGY>  (2395) 
0

>  <NONCOV_INTER_ENERGY_QM>  (2395) 
0

>  <FF_Energy>  (2395) 
1.6

>  <QM_Energy>  (2395) 
-5.32

>  <source>  (2395) 
ETAM_MBZ

>  <Index>  (2395) 
25275

$$$$
ETAM-pdb3qfh-H-LYS-185:MBZ-pdb3qfh-H-PHE-216
     RDKit          3D

 26 25  0  0  0  0  0  0  0  0999 V2000
   -2.7338    2.2134    3.5128 C   0  0  0  0  0  0  0  0  0  0  0  0
   -1.9552    2.2377    2.8888 H   0  0  0  0  0  0  0  0  0  0  0  0
   -2.6353    1.4504    4.1478 H   0  0  0  0  0  0  0  0  0  0  0  0
   -2.7476    3.1412    4.0847 H   0  0  0  0  0  0  0  0  0  0  0  0
   -3.9938    2.0324    2.7202 C   0  0  0  0  0  0  0  0  0  0  0  0
   -4.7810    2.0384    3.3386 H   0  0  0  0  0  0  0  0  0  0  0  0
   -4.0841    2.7807    2.0621 H   0  0  0  0  0  0  0  0  0  0  0  0
   -3.9644    0.7430    1.9869 N   0  0  0  0  0  4  0  0  0  0  0  0
   -3.9566   -0.0130    2.6416 H   0  0  0  0  0  0  0  0  0  0  0  0
   -4.7752    0.6715    1.4047 H   0  0  0  0  0  0  0  0  0  0  0  0
   -3.1420    0.7002    1.4188 H   0  0  0  0  0  0  0  0  0  0  0  0
   -0.0017    2.9043    0.0556 C   0  0  0  0  0  0  0  0  0  0  0  0
    0.7612    3.1937    0.6242 H   0  0  0  0  0  0  0  0  0  0  0  0
   -0.8629    3.2019    0.4545 H   0  0  0  0  0  0  0  0  0  0  0  0
    0.1017    3.4012   -0.9090 H   0  0  0  0  0  0  0  0  0  0  0  0
   -0.0038    1.4096    0.0020 C   0  0  0  0  0  0  0  0  0  0  0  0
   -1.1924    0.7104    0.0054 C   0  0  0  0  0  0  0  0  0  0  0  0
   -2.0637    1.1870    0.0105 H   0  0  0  0  0  0  0  0  0  0  0  0
   -1.1968   -0.7009   -0.0000 C   0  0  0  0  0  0  0  0  0  0  0  0
   -2.0760   -1.1842    0.0022 H   0  0  0  0  0  0  0  0  0  0  0  0
    0.0037   -1.4010   -0.0062 C   0  0  0  0  0  0  0  0  0  0  0  0
   -0.0084   -2.4013   -0.0159 H   0  0  0  0  0  0  0  0  0  0  0  0
    1.1968   -0.7130   -0.0000 C   0  0  0  0  0  0  0  0  0  0  0  0
    2.0824   -1.1995    0.0074 H   0  0  0  0  0  0  0  0  0  0  0  0
    1.1924    0.6949   -0.0013 C   0  0  0  0  0  0  0  0  0  0  0  0
    2.0637    1.1825   -0.0050 H   0  0  0  0  0  0  0  0  0  0  0  0
  1  5  1  0
  5  8  1  0
  1  2  1  0
  1  3  1  0
  1  4  1  0
  5  6  1  0
  5  7  1  0
  8  9  1  0
  8 10  1  0
  8 11  1  0
 12 16  1  0
 16 17  2  0
 17 19  1  0
 19 21  2  0
 21 23  1  0
 23 25  2  0
 25 16  1  0
 12 13  1  0
 12 14  1  0
 12 15  1  0
 17 18  1  0
 19 20  1  0
 21 22  1  0
 23 24  1  0
 25 26  1  0
M  CHG  1   8   1
M  END
>  <PDB_ID>  (2396) 
pdb3qfh

>  <RESIDUE_NAME>  (2396) 
LYS   PHE

>  <FRAG_NAME>  (2396) 
ETAM   MBZ

>  <FRAG_ATOM_NUM>  (2396) 
fragi: 11  fragj: 15

>  <atom.prop.CHAIN_ID>  (2396) 
A A A A A A A A A A A Z Z Z Z Z Z Z Z Z Z Z Z Z Z Z

>  <atom.prop.IS_HEAVY_ATOM>  (2396) 
1 0 0 0 1 0 0 1 0 0 0 1 0 0 0 1 1 0 1 0 1 0 1 0 1 0

>  <DIFUSE_FUNC_ATOM>  (2396) 
n/a

>  <FINAL_SINGLE_POINT_ENERGY>  (2396) 
0

>  <NONCOV_INTER_ENERGY_QM>  (2396) 
0

>  <FF_Energy>  (2396) 
-1.13

>  <QM_Energy>  (2396) 
-6.89

>  <source>  (2396) 
ETAM_MBZ

>  <Index>  (2396) 
25286

$$$$
ETAM-pdb4oet-A-LYS-237:MBZ-pdb4oet-A-PHE-281
     RDKit          3D

 26 25  0  0  0  0  0  0  0  0999 V2000
    2.9984   -2.7260    3.8661 C   0  0  0  0  0  0  0  0  0  0  0  0
    3.5890   -2.8216    4.6602 H   0  0  0  0  0  0  0  0  0  0  0  0
    2.6322   -1.8030    3.8138 H   0  0  0  0  0  0  0  0  0  0  0  0
    3.5789   -2.9290    2.9661 H   0  0  0  0  0  0  0  0  0  0  0  0
    1.8431   -3.6992    4.0009 C   0  0  0  0  0  0  0  0  0  0  0  0
    2.2005   -4.6377    3.9818 H   0  0  0  0  0  0  0  0  0  0  0  0
    1.3855   -3.5460    4.8828 H   0  0  0  0  0  0  0  0  0  0  0  0
    0.8422   -3.5401    2.9026 N   0  0  0  0  0  4  0  0  0  0  0  0
    1.0779   -2.7374    2.3567 H   0  0  0  0  0  0  0  0  0  0  0  0
    0.8542   -4.3556    2.3261 H   0  0  0  0  0  0  0  0  0  0  0  0
   -0.0661   -3.4223    3.3009 H   0  0  0  0  0  0  0  0  0  0  0  0
   -0.0061    2.8845    0.0056 C   0  0  0  0  0  0  0  0  0  0  0  0
    0.7652    3.1984    0.5419 H   0  0  0  0  0  0  0  0  0  0  0  0
   -0.8611    3.1939    0.3970 H   0  0  0  0  0  0  0  0  0  0  0  0
    0.0810    3.3272   -0.9866 H   0  0  0  0  0  0  0  0  0  0  0  0
   -0.0021    1.3955    0.0030 C   0  0  0  0  0  0  0  0  0  0  0  0
   -1.1968    0.6947   -0.0010 C   0  0  0  0  0  0  0  0  0  0  0  0
   -2.0624    1.1897   -0.0059 H   0  0  0  0  0  0  0  0  0  0  0  0
   -1.2036   -0.6874    0.0000 C   0  0  0  0  0  0  0  0  0  0  0  0
   -2.0783   -1.1859    0.0049 H   0  0  0  0  0  0  0  0  0  0  0  0
    0.0021   -1.3904   -0.0044 C   0  0  0  0  0  0  0  0  0  0  0  0
   -0.0085   -2.3880   -0.0110 H   0  0  0  0  0  0  0  0  0  0  0  0
    1.2036   -0.6985   -0.0000 C   0  0  0  0  0  0  0  0  0  0  0  0
    2.0833   -1.1980    0.0028 H   0  0  0  0  0  0  0  0  0  0  0  0
    1.1969    0.6862    0.0025 C   0  0  0  0  0  0  0  0  0  0  0  0
    2.0635    1.1871    0.0030 H   0  0  0  0  0  0  0  0  0  0  0  0
  1  5  1  0
  5  8  1  0
  1  2  1  0
  1  3  1  0
  1  4  1  0
  5  6  1  0
  5  7  1  0
  8  9  1  0
  8 10  1  0
  8 11  1  0
 12 16  1  0
 16 17  2  0
 17 19  1  0
 19 21  2  0
 21 23  1  0
 23 25  2  0
 25 16  1  0
 12 13  1  0
 12 14  1  0
 12 15  1  0
 17 18  1  0
 19 20  1  0
 21 22  1  0
 23 24  1  0
 25 26  1  0
M  CHG  1   8   1
M  END
>  <PDB_ID>  (2397) 
pdb4oet

>  <RESIDUE_NAME>  (2397) 
LYS   PHE

>  <FRAG_NAME>  (2397) 
ETAM   MBZ

>  <FRAG_ATOM_NUM>  (2397) 
fragi: 11  fragj: 15

>  <atom.prop.CHAIN_ID>  (2397) 
A A A A A A A A A A A Z Z Z Z Z Z Z Z Z Z Z Z Z Z Z

>  <atom.prop.IS_HEAVY_ATOM>  (2397) 
1 0 0 0 1 0 0 1 0 0 0 1 0 0 0 1 1 0 1 0 1 0 1 0 1 0

>  <DIFUSE_FUNC_ATOM>  (2397) 
n/a

>  <FINAL_SINGLE_POINT_ENERGY>  (2397) 
0

>  <NONCOV_INTER_ENERGY_QM>  (2397) 
0

>  <FF_Energy>  (2397) 
-1.78

>  <QM_Energy>  (2397) 
-7.11

>  <source>  (2397) 
ETAM_MBZ

>  <Index>  (2397) 
25292

$$$$
ETAM-pdb4ofi-B-LYS-108:MBZ-pdb4ofi-B-PHE-144
     RDKit          3D

 26 25  0  0  0  0  0  0  0  0999 V2000
    1.5655   -1.9972    3.3190 C   0  0  0  0  0  0  0  0  0  0  0  0
    1.1230   -1.2722    3.8413 H   0  0  0  0  0  0  0  0  0  0  0  0
    1.9990   -1.6171    2.5059 H   0  0  0  0  0  0  0  0  0  0  0  0
    2.3289   -2.4638    3.9415 H   0  0  0  0  0  0  0  0  0  0  0  0
    0.4985   -2.9935    2.8756 C   0  0  0  0  0  0  0  0  0  0  0  0
    0.0756   -2.6564    2.0236 H   0  0  0  0  0  0  0  0  0  0  0  0
    0.9439   -3.8769    2.6762 H   0  0  0  0  0  0  0  0  0  0  0  0
   -0.5677   -3.2066    3.8965 N   0  0  0  0  0  4  0  0  0  0  0  0
   -1.3354   -2.5968    3.7040 H   0  0  0  0  0  0  0  0  0  0  0  0
   -0.8750   -4.1566    3.8591 H   0  0  0  0  0  0  0  0  0  0  0  0
   -0.2000   -3.0081    4.8038 H   0  0  0  0  0  0  0  0  0  0  0  0
   -0.0034    2.8916   -0.0108 C   0  0  0  0  0  0  0  0  0  0  0  0
    0.8735    3.2039    0.3176 H   0  0  0  0  0  0  0  0  0  0  0  0
   -0.7402    3.2014    0.5681 H   0  0  0  0  0  0  0  0  0  0  0  0
   -0.1582    3.3144   -1.0035 H   0  0  0  0  0  0  0  0  0  0  0  0
    0.0007    1.3915    0.0030 C   0  0  0  0  0  0  0  0  0  0  0  0
   -1.1900    0.6856   -0.0009 C   0  0  0  0  0  0  0  0  0  0  0  0
   -2.0580    1.1798   -0.0060 H   0  0  0  0  0  0  0  0  0  0  0  0
   -1.1933   -0.6907    0.0000 C   0  0  0  0  0  0  0  0  0  0  0  0
   -2.0727   -1.1890    0.0033 H   0  0  0  0  0  0  0  0  0  0  0  0
   -0.0011   -1.3823   -0.0021 C   0  0  0  0  0  0  0  0  0  0  0  0
   -0.0054   -2.3849   -0.0052 H   0  0  0  0  0  0  0  0  0  0  0  0
    1.1933   -0.6927    0.0000 C   0  0  0  0  0  0  0  0  0  0  0  0
    2.0761   -1.1930    0.0032 H   0  0  0  0  0  0  0  0  0  0  0  0
    1.1903    0.6885   -0.0000 C   0  0  0  0  0  0  0  0  0  0  0  0
    2.0603    1.1861   -0.0028 H   0  0  0  0  0  0  0  0  0  0  0  0
  1  5  1  0
  5  8  1  0
  1  2  1  0
  1  3  1  0
  1  4  1  0
  5  6  1  0
  5  7  1  0
  8  9  1  0
  8 10  1  0
  8 11  1  0
 12 16  1  0
 16 17  2  0
 17 19  1  0
 19 21  2  0
 21 23  1  0
 23 25  2  0
 25 16  1  0
 12 13  1  0
 12 14  1  0
 12 15  1  0
 17 18  1  0
 19 20  1  0
 21 22  1  0
 23 24  1  0
 25 26  1  0
M  CHG  1   8   1
M  END
>  <PDB_ID>  (2398) 
pdb4ofi

>  <RESIDUE_NAME>  (2398) 
LYS   PHE

>  <FRAG_NAME>  (2398) 
ETAM   MBZ

>  <FRAG_ATOM_NUM>  (2398) 
fragi: 11  fragj: 15

>  <atom.prop.CHAIN_ID>  (2398) 
A A A A A A A A A A A Z Z Z Z Z Z Z Z Z Z Z Z Z Z Z

>  <atom.prop.IS_HEAVY_ATOM>  (2398) 
1 0 0 0 1 0 0 1 0 0 0 1 0 0 0 1 1 0 1 0 1 0 1 0 1 0

>  <DIFUSE_FUNC_ATOM>  (2398) 
n/a

>  <FINAL_SINGLE_POINT_ENERGY>  (2398) 
0

>  <NONCOV_INTER_ENERGY_QM>  (2398) 
0

>  <FF_Energy>  (2398) 
-0.09

>  <QM_Energy>  (2398) 
-5.76

>  <source>  (2398) 
ETAM_MBZ

>  <Index>  (2398) 
25298

$$$$
ETAM-pdb4ofi-C-LYS-108:MBZ-pdb4ofi-C-PHE-144
     RDKit          3D

 26 25  0  0  0  0  0  0  0  0999 V2000
   -2.4364   -1.5247   -3.7271 C   0  0  0  0  0  0  0  0  0  0  0  0
   -1.8713   -0.9182   -4.2785 H   0  0  0  0  0  0  0  0  0  0  0  0
   -2.9846   -0.9961   -3.0862 H   0  0  0  0  0  0  0  0  0  0  0  0
   -3.1050   -2.0762   -4.3881 H   0  0  0  0  0  0  0  0  0  0  0  0
   -1.5335   -2.4561   -2.9452 C   0  0  0  0  0  0  0  0  0  0  0  0
   -1.0982   -1.9401   -2.2006 H   0  0  0  0  0  0  0  0  0  0  0  0
   -2.0898   -3.1913   -2.5436 H   0  0  0  0  0  0  0  0  0  0  0  0
   -0.4798   -3.0564   -3.8026 N   0  0  0  0  0  4  0  0  0  0  0  0
   -0.7181   -2.9243   -4.7647 H   0  0  0  0  0  0  0  0  0  0  0  0
    0.3966   -2.6147   -3.6118 H   0  0  0  0  0  0  0  0  0  0  0  0
   -0.4093   -4.0352   -3.6079 H   0  0  0  0  0  0  0  0  0  0  0  0
    0.0062    2.8944   -0.0026 C   0  0  0  0  0  0  0  0  0  0  0  0
   -0.7252    3.2026   -0.5938 H   0  0  0  0  0  0  0  0  0  0  0  0
    0.8873    3.1962   -0.3377 H   0  0  0  0  0  0  0  0  0  0  0  0
   -0.1477    3.3428    0.9789 H   0  0  0  0  0  0  0  0  0  0  0  0
   -0.0007    1.3959    0.0034 C   0  0  0  0  0  0  0  0  0  0  0  0
   -1.1923    0.6933   -0.0002 C   0  0  0  0  0  0  0  0  0  0  0  0
   -2.0602    1.1835   -0.0043 H   0  0  0  0  0  0  0  0  0  0  0  0
   -1.1966   -0.6922    0.0000 C   0  0  0  0  0  0  0  0  0  0  0  0
   -2.0747   -1.1877    0.0036 H   0  0  0  0  0  0  0  0  0  0  0  0
    0.0016   -1.3884   -0.0027 C   0  0  0  0  0  0  0  0  0  0  0  0
   -0.0050   -2.3884   -0.0073 H   0  0  0  0  0  0  0  0  0  0  0  0
    1.1966   -0.6951    0.0000 C   0  0  0  0  0  0  0  0  0  0  0  0
    2.0793   -1.1946    0.0034 H   0  0  0  0  0  0  0  0  0  0  0  0
    1.1914    0.6865   -0.0005 C   0  0  0  0  0  0  0  0  0  0  0  0
    2.0611    1.1859   -0.0048 H   0  0  0  0  0  0  0  0  0  0  0  0
  1  5  1  0
  5  8  1  0
  1  2  1  0
  1  3  1  0
  1  4  1  0
  5  6  1  0
  5  7  1  0
  8  9  1  0
  8 10  1  0
  8 11  1  0
 12 16  1  0
 16 17  2  0
 17 19  1  0
 19 21  2  0
 21 23  1  0
 23 25  2  0
 25 16  1  0
 12 13  1  0
 12 14  1  0
 12 15  1  0
 17 18  1  0
 19 20  1  0
 21 22  1  0
 23 24  1  0
 25 26  1  0
M  CHG  1   8   1
M  END
>  <PDB_ID>  (2399) 
pdb4ofi

>  <RESIDUE_NAME>  (2399) 
LYS   PHE

>  <FRAG_NAME>  (2399) 
ETAM   MBZ

>  <FRAG_ATOM_NUM>  (2399) 
fragi: 11  fragj: 15

>  <atom.prop.CHAIN_ID>  (2399) 
A A A A A A A A A A A Z Z Z Z Z Z Z Z Z Z Z Z Z Z Z

>  <atom.prop.IS_HEAVY_ATOM>  (2399) 
1 0 0 0 1 0 0 1 0 0 0 1 0 0 0 1 1 0 1 0 1 0 1 0 1 0

>  <DIFUSE_FUNC_ATOM>  (2399) 
n/a

>  <FINAL_SINGLE_POINT_ENERGY>  (2399) 
0

>  <NONCOV_INTER_ENERGY_QM>  (2399) 
0

>  <FF_Energy>  (2399) 
-1.3

>  <QM_Energy>  (2399) 
-6.45

>  <source>  (2399) 
ETAM_MBZ

>  <Index>  (2399) 
25299

$$$$
ETAM-pdb4ofi-F-LYS-108:MBZ-pdb4ofi-F-PHE-144
     RDKit          3D

 26 25  0  0  0  0  0  0  0  0999 V2000
   -0.4532   -2.3743   -3.3599 C   0  0  0  0  0  0  0  0  0  0  0  0
   -0.1254   -1.5914   -3.8823 H   0  0  0  0  0  0  0  0  0  0  0  0
   -1.0588   -2.0699   -2.6297 H   0  0  0  0  0  0  0  0  0  0  0  0
   -1.0093   -3.0333   -4.0267 H   0  0  0  0  0  0  0  0  0  0  0  0
    0.7429   -3.0769   -2.7363 C   0  0  0  0  0  0  0  0  0  0  0  0
    1.0099   -2.5866   -1.8999 H   0  0  0  0  0  0  0  0  0  0  0  0
    0.4773   -4.0146   -2.4858 H   0  0  0  0  0  0  0  0  0  0  0  0
    1.9172   -3.1361   -3.6595 N   0  0  0  0  0  4  0  0  0  0  0  0
    2.1168   -2.2176   -3.9965 H   0  0  0  0  0  0  0  0  0  0  0  0
    2.7074   -3.4927   -3.1635 H   0  0  0  0  0  0  0  0  0  0  0  0
    1.7019   -3.7375   -4.4273 H   0  0  0  0  0  0  0  0  0  0  0  0
   -0.0010    2.8909    0.0083 C   0  0  0  0  0  0  0  0  0  0  0  0
   -0.7742    3.2033   -0.5218 H   0  0  0  0  0  0  0  0  0  0  0  0
    0.8522    3.2036   -0.3785 H   0  0  0  0  0  0  0  0  0  0  0  0
   -0.0886    3.3175    1.0075 H   0  0  0  0  0  0  0  0  0  0  0  0
    0.0001    1.3926   -0.0044 C   0  0  0  0  0  0  0  0  0  0  0  0
   -1.1904    0.6885   -0.0008 C   0  0  0  0  0  0  0  0  0  0  0  0
   -2.0580    1.1827   -0.0005 H   0  0  0  0  0  0  0  0  0  0  0  0
   -1.1950   -0.6897    0.0000 C   0  0  0  0  0  0  0  0  0  0  0  0
   -2.0738   -1.1863    0.0015 H   0  0  0  0  0  0  0  0  0  0  0  0
   -0.0006   -1.3835    0.0006 C   0  0  0  0  0  0  0  0  0  0  0  0
   -0.0077   -2.3858    0.0011 H   0  0  0  0  0  0  0  0  0  0  0  0
    1.1950   -0.6961    0.0000 C   0  0  0  0  0  0  0  0  0  0  0  0
    2.0775   -1.1949   -0.0022 H   0  0  0  0  0  0  0  0  0  0  0  0
    1.1908    0.6882    0.0047 C   0  0  0  0  0  0  0  0  0  0  0  0
    2.0612    1.1855    0.0136 H   0  0  0  0  0  0  0  0  0  0  0  0
  1  5  1  0
  5  8  1  0
  1  2  1  0
  1  3  1  0
  1  4  1  0
  5  6  1  0
  5  7  1  0
  8  9  1  0
  8 10  1  0
  8 11  1  0
 12 16  1  0
 16 17  2  0
 17 19  1  0
 19 21  2  0
 21 23  1  0
 23 25  2  0
 25 16  1  0
 12 13  1  0
 12 14  1  0
 12 15  1  0
 17 18  1  0
 19 20  1  0
 21 22  1  0
 23 24  1  0
 25 26  1  0
M  CHG  1   8   1
M  END
>  <PDB_ID>  (2400) 
pdb4ofi

>  <RESIDUE_NAME>  (2400) 
LYS   PHE

>  <FRAG_NAME>  (2400) 
ETAM   MBZ

>  <FRAG_ATOM_NUM>  (2400) 
fragi: 11  fragj: 15

>  <atom.prop.CHAIN_ID>  (2400) 
A A A A A A A A A A A Z Z Z Z Z Z Z Z Z Z Z Z Z Z Z

>  <atom.prop.IS_HEAVY_ATOM>  (2400) 
1 0 0 0 1 0 0 1 0 0 0 1 0 0 0 1 1 0 1 0 1 0 1 0 1 0

>  <DIFUSE_FUNC_ATOM>  (2400) 
n/a

>  <FINAL_SINGLE_POINT_ENERGY>  (2400) 
0

>  <NONCOV_INTER_ENERGY_QM>  (2400) 
0

>  <FF_Energy>  (2400) 
-0.42

>  <QM_Energy>  (2400) 
-5.67

>  <source>  (2400) 
ETAM_MBZ

>  <Index>  (2400) 
25302

$$$$
ETAM-pdb4ofi-G-LYS-108:MBZ-pdb4ofi-G-PHE-144
     RDKit          3D

 26 25  0  0  0  0  0  0  0  0999 V2000
   -2.9220   -2.5151   -3.0005 C   0  0  0  0  0  0  0  0  0  0  0  0
   -2.9997   -1.6137   -2.5901 H   0  0  0  0  0  0  0  0  0  0  0  0
   -2.8910   -3.2172   -2.2980 H   0  0  0  0  0  0  0  0  0  0  0  0
   -3.7915   -2.6892   -3.6343 H   0  0  0  0  0  0  0  0  0  0  0  0
   -1.6363   -2.5742   -3.8053 C   0  0  0  0  0  0  0  0  0  0  0  0
   -1.7362   -3.2672   -4.5283 H   0  0  0  0  0  0  0  0  0  0  0  0
   -1.4841   -1.6797   -4.2424 H   0  0  0  0  0  0  0  0  0  0  0  0
   -0.4550   -2.9126   -2.9670 N   0  0  0  0  0  4  0  0  0  0  0  0
   -0.6881   -2.7955   -2.0023 H   0  0  0  0  0  0  0  0  0  0  0  0
   -0.1896   -3.8621   -3.1348 H   0  0  0  0  0  0  0  0  0  0  0  0
    0.3044   -2.3066   -3.2030 H   0  0  0  0  0  0  0  0  0  0  0  0
   -0.0031    2.8912    0.0007 C   0  0  0  0  0  0  0  0  0  0  0  0
   -0.7680    3.1988   -0.5447 H   0  0  0  0  0  0  0  0  0  0  0  0
    0.8562    3.2012   -0.3778 H   0  0  0  0  0  0  0  0  0  0  0  0
   -0.1054    3.3276    0.9943 H   0  0  0  0  0  0  0  0  0  0  0  0
   -0.0005    1.3932   -0.0023 C   0  0  0  0  0  0  0  0  0  0  0  0
   -1.1924    0.6871    0.0018 C   0  0  0  0  0  0  0  0  0  0  0  0
   -2.0598    1.1812    0.0047 H   0  0  0  0  0  0  0  0  0  0  0  0
   -1.1959   -0.6918    0.0000 C   0  0  0  0  0  0  0  0  0  0  0  0
   -2.0735   -1.1897   -0.0000 H   0  0  0  0  0  0  0  0  0  0  0  0
   -0.0002   -1.3836   -0.0002 C   0  0  0  0  0  0  0  0  0  0  0  0
   -0.0048   -2.3862   -0.0011 H   0  0  0  0  0  0  0  0  0  0  0  0
    1.1959   -0.6935    0.0000 C   0  0  0  0  0  0  0  0  0  0  0  0
    2.0786   -1.1946    0.0016 H   0  0  0  0  0  0  0  0  0  0  0  0
    1.1931    0.6885    0.0006 C   0  0  0  0  0  0  0  0  0  0  0  0
    2.0613    1.1869    0.0024 H   0  0  0  0  0  0  0  0  0  0  0  0
  1  5  1  0
  5  8  1  0
  1  2  1  0
  1  3  1  0
  1  4  1  0
  5  6  1  0
  5  7  1  0
  8  9  1  0
  8 10  1  0
  8 11  1  0
 12 16  1  0
 16 17  2  0
 17 19  1  0
 19 21  2  0
 21 23  1  0
 23 25  2  0
 25 16  1  0
 12 13  1  0
 12 14  1  0
 12 15  1  0
 17 18  1  0
 19 20  1  0
 21 22  1  0
 23 24  1  0
 25 26  1  0
M  CHG  1   8   1
M  END
>  <PDB_ID>  (2401) 
pdb4ofi

>  <RESIDUE_NAME>  (2401) 
LYS   PHE

>  <FRAG_NAME>  (2401) 
ETAM   MBZ

>  <FRAG_ATOM_NUM>  (2401) 
fragi: 11  fragj: 15

>  <atom.prop.CHAIN_ID>  (2401) 
A A A A A A A A A A A Z Z Z Z Z Z Z Z Z Z Z Z Z Z Z

>  <atom.prop.IS_HEAVY_ATOM>  (2401) 
1 0 0 0 1 0 0 1 0 0 0 1 0 0 0 1 1 0 1 0 1 0 1 0 1 0

>  <DIFUSE_FUNC_ATOM>  (2401) 
n/a

>  <FINAL_SINGLE_POINT_ENERGY>  (2401) 
0

>  <NONCOV_INTER_ENERGY_QM>  (2401) 
0

>  <FF_Energy>  (2401) 
-3.12

>  <QM_Energy>  (2401) 
-9.48

>  <source>  (2401) 
ETAM_MBZ

>  <Index>  (2401) 
25303

$$$$
ETAM-pdb4ofi-H-LYS-108:MBZ-pdb4ofi-H-PHE-144
     RDKit          3D

 26 25  0  0  0  0  0  0  0  0999 V2000
   -1.3536   -2.4210   -3.4038 C   0  0  0  0  0  0  0  0  0  0  0  0
   -0.8392   -1.7431   -3.9182 H   0  0  0  0  0  0  0  0  0  0  0  0
   -1.7171   -2.0204   -2.5701 H   0  0  0  0  0  0  0  0  0  0  0  0
   -2.1836   -2.7716   -4.0173 H   0  0  0  0  0  0  0  0  0  0  0  0
   -0.4205   -3.5593   -3.0300 C   0  0  0  0  0  0  0  0  0  0  0  0
   -0.7879   -4.0310   -2.2252 H   0  0  0  0  0  0  0  0  0  0  0  0
   -0.3733   -4.2073   -3.7945 H   0  0  0  0  0  0  0  0  0  0  0  0
    0.9504   -3.0654   -2.7234 N   0  0  0  0  0  4  0  0  0  0  0  0
    1.0068   -2.8257   -1.7547 H   0  0  0  0  0  0  0  0  0  0  0  0
    1.6147   -3.7826   -2.9298 H   0  0  0  0  0  0  0  0  0  0  0  0
    1.1445   -2.2592   -3.2806 H   0  0  0  0  0  0  0  0  0  0  0  0
    0.0003    2.8933    0.0026 C   0  0  0  0  0  0  0  0  0  0  0  0
   -0.7936    3.2035   -0.4980 H   0  0  0  0  0  0  0  0  0  0  0  0
    0.8375    3.2033   -0.4209 H   0  0  0  0  0  0  0  0  0  0  0  0
   -0.0467    3.3264    1.0017 H   0  0  0  0  0  0  0  0  0  0  0  0
   -0.0002    1.3961   -0.0022 C   0  0  0  0  0  0  0  0  0  0  0  0
   -1.1939    0.6904    0.0002 C   0  0  0  0  0  0  0  0  0  0  0  0
   -2.0612    1.1817    0.0011 H   0  0  0  0  0  0  0  0  0  0  0  0
   -1.1972   -0.6953   -0.0000 C   0  0  0  0  0  0  0  0  0  0  0  0
   -2.0747   -1.1910    0.0023 H   0  0  0  0  0  0  0  0  0  0  0  0
    0.0011   -1.3878   -0.0010 C   0  0  0  0  0  0  0  0  0  0  0  0
   -0.0028   -2.3889   -0.0029 H   0  0  0  0  0  0  0  0  0  0  0  0
    1.1972   -0.6945    0.0000 C   0  0  0  0  0  0  0  0  0  0  0  0
    2.0799   -1.1928    0.0000 H   0  0  0  0  0  0  0  0  0  0  0  0
    1.1930    0.6910    0.0030 C   0  0  0  0  0  0  0  0  0  0  0  0
    2.0618    1.1890    0.0078 H   0  0  0  0  0  0  0  0  0  0  0  0
  1  5  1  0
  5  8  1  0
  1  2  1  0
  1  3  1  0
  1  4  1  0
  5  6  1  0
  5  7  1  0
  8  9  1  0
  8 10  1  0
  8 11  1  0
 12 16  1  0
 16 17  2  0
 17 19  1  0
 19 21  2  0
 21 23  1  0
 23 25  2  0
 25 16  1  0
 12 13  1  0
 12 14  1  0
 12 15  1  0
 17 18  1  0
 19 20  1  0
 21 22  1  0
 23 24  1  0
 25 26  1  0
M  CHG  1   8   1
M  END
>  <PDB_ID>  (2402) 
pdb4ofi

>  <RESIDUE_NAME>  (2402) 
LYS   PHE

>  <FRAG_NAME>  (2402) 
ETAM   MBZ

>  <FRAG_ATOM_NUM>  (2402) 
fragi: 11  fragj: 15

>  <atom.prop.CHAIN_ID>  (2402) 
A A A A A A A A A A A Z Z Z Z Z Z Z Z Z Z Z Z Z Z Z

>  <atom.prop.IS_HEAVY_ATOM>  (2402) 
1 0 0 0 1 0 0 1 0 0 0 1 0 0 0 1 1 0 1 0 1 0 1 0 1 0

>  <DIFUSE_FUNC_ATOM>  (2402) 
n/a

>  <FINAL_SINGLE_POINT_ENERGY>  (2402) 
0

>  <NONCOV_INTER_ENERGY_QM>  (2402) 
0

>  <FF_Energy>  (2402) 
-2.67

>  <QM_Energy>  (2402) 
-9.5

>  <source>  (2402) 
ETAM_MBZ

>  <Index>  (2402) 
25304

$$$$
ETAM-pdb3qhp-B-LYS-240:MBZ-pdb3qhp-B-PHE-262
     RDKit          3D

 26 25  0  0  0  0  0  0  0  0999 V2000
   -1.9674    1.6619   -3.4827 C   0  0  0  0  0  0  0  0  0  0  0  0
   -1.9974    0.7345   -3.1235 H   0  0  0  0  0  0  0  0  0  0  0  0
   -2.2965    1.6794   -4.4213 H   0  0  0  0  0  0  0  0  0  0  0  0
   -2.6203    2.2884   -2.8751 H   0  0  0  0  0  0  0  0  0  0  0  0
   -0.5350    2.1530   -3.4550 C   0  0  0  0  0  0  0  0  0  0  0  0
   -0.4524    2.9649   -4.0450 H   0  0  0  0  0  0  0  0  0  0  0  0
   -0.2941    2.4190   -2.5137 H   0  0  0  0  0  0  0  0  0  0  0  0
    0.4447    1.1167   -3.9249 N   0  0  0  0  0  4  0  0  0  0  0  0
    0.9314    0.7482   -3.1359 H   0  0  0  0  0  0  0  0  0  0  0  0
   -0.0514    0.3873   -4.3897 H   0  0  0  0  0  0  0  0  0  0  0  0
    1.0909    1.5425   -4.5544 H   0  0  0  0  0  0  0  0  0  0  0  0
   -0.0019    2.9065    0.0039 C   0  0  0  0  0  0  0  0  0  0  0  0
   -0.6827    3.2122   -0.6439 H   0  0  0  0  0  0  0  0  0  0  0  0
    0.9022    3.2128   -0.2532 H   0  0  0  0  0  0  0  0  0  0  0  0
   -0.2401    3.3510    0.9703 H   0  0  0  0  0  0  0  0  0  0  0  0
   -0.0018    1.4025    0.0052 C   0  0  0  0  0  0  0  0  0  0  0  0
   -1.2002    0.6912   -0.0017 C   0  0  0  0  0  0  0  0  0  0  0  0
   -2.0661    1.1825   -0.0091 H   0  0  0  0  0  0  0  0  0  0  0  0
   -1.2060   -0.7005   -0.0000 C   0  0  0  0  0  0  0  0  0  0  0  0
   -2.0780   -1.1963    0.0035 H   0  0  0  0  0  0  0  0  0  0  0  0
    0.0036   -1.3957   -0.0015 C   0  0  0  0  0  0  0  0  0  0  0  0
    0.0023   -2.3925   -0.0044 H   0  0  0  0  0  0  0  0  0  0  0  0
    1.2060   -0.6924    0.0000 C   0  0  0  0  0  0  0  0  0  0  0  0
    2.0867   -1.1907    0.0039 H   0  0  0  0  0  0  0  0  0  0  0  0
    1.1984    0.6949   -0.0019 C   0  0  0  0  0  0  0  0  0  0  0  0
    2.0641    1.1957   -0.0090 H   0  0  0  0  0  0  0  0  0  0  0  0
  1  5  1  0
  5  8  1  0
  1  2  1  0
  1  3  1  0
  1  4  1  0
  5  6  1  0
  5  7  1  0
  8  9  1  0
  8 10  1  0
  8 11  1  0
 12 16  1  0
 16 17  2  0
 17 19  1  0
 19 21  2  0
 21 23  1  0
 23 25  2  0
 25 16  1  0
 12 13  1  0
 12 14  1  0
 12 15  1  0
 17 18  1  0
 19 20  1  0
 21 22  1  0
 23 24  1  0
 25 26  1  0
M  CHG  1   8   1
M  END
>  <PDB_ID>  (2403) 
pdb3qhp

>  <RESIDUE_NAME>  (2403) 
LYS   PHE

>  <FRAG_NAME>  (2403) 
ETAM   MBZ

>  <FRAG_ATOM_NUM>  (2403) 
fragi: 11  fragj: 15

>  <atom.prop.CHAIN_ID>  (2403) 
A A A A A A A A A A A Z Z Z Z Z Z Z Z Z Z Z Z Z Z Z

>  <atom.prop.IS_HEAVY_ATOM>  (2403) 
1 0 0 0 1 0 0 1 0 0 0 1 0 0 0 1 1 0 1 0 1 0 1 0 1 0

>  <DIFUSE_FUNC_ATOM>  (2403) 
n/a

>  <FINAL_SINGLE_POINT_ENERGY>  (2403) 
0

>  <NONCOV_INTER_ENERGY_QM>  (2403) 
0

>  <FF_Energy>  (2403) 
-5.34

>  <QM_Energy>  (2403) 
-10.4

>  <source>  (2403) 
ETAM_MBZ

>  <Index>  (2403) 
25308

$$$$
ETAM-pdb4oh4-B-LYS-899:MBZ-pdb4oh4-B-PHE-958
     RDKit          3D

 26 25  0  0  0  0  0  0  0  0999 V2000
   -0.7493   -1.8343   -3.8384 C   0  0  0  0  0  0  0  0  0  0  0  0
   -1.1224   -2.3005   -3.0438 H   0  0  0  0  0  0  0  0  0  0  0  0
   -0.8293   -2.4057   -4.6472 H   0  0  0  0  0  0  0  0  0  0  0  0
   -1.3049   -0.9106   -4.0000 H   0  0  0  0  0  0  0  0  0  0  0  0
    0.7213   -1.5512   -3.5884 C   0  0  0  0  0  0  0  0  0  0  0  0
    1.1304   -1.1759   -4.4306 H   0  0  0  0  0  0  0  0  0  0  0  0
    0.8021   -0.8544   -2.8639 H   0  0  0  0  0  0  0  0  0  0  0  0
    1.4895   -2.7653   -3.1774 N   0  0  0  0  0  4  0  0  0  0  0  0
    2.4523   -2.6376   -3.4074 H   0  0  0  0  0  0  0  0  0  0  0  0
    1.3927   -2.8970   -2.1925 H   0  0  0  0  0  0  0  0  0  0  0  0
    1.1295   -3.5616   -3.6611 H   0  0  0  0  0  0  0  0  0  0  0  0
   -0.0013    2.8881    0.0188 C   0  0  0  0  0  0  0  0  0  0  0  0
   -0.6381    3.2082   -0.6642 H   0  0  0  0  0  0  0  0  0  0  0  0
    0.9165    3.2018   -0.1646 H   0  0  0  0  0  0  0  0  0  0  0  0
   -0.3080    3.3008    0.9799 H   0  0  0  0  0  0  0  0  0  0  0  0
   -0.0005    1.3952   -0.0051 C   0  0  0  0  0  0  0  0  0  0  0  0
   -1.1918    0.6935   -0.0070 C   0  0  0  0  0  0  0  0  0  0  0  0
   -2.0597    1.1866   -0.0147 H   0  0  0  0  0  0  0  0  0  0  0  0
   -1.1957   -0.6875    0.0000 C   0  0  0  0  0  0  0  0  0  0  0  0
   -2.0747   -1.1842    0.0030 H   0  0  0  0  0  0  0  0  0  0  0  0
    0.0006   -1.3863    0.0042 C   0  0  0  0  0  0  0  0  0  0  0  0
   -0.0111   -2.3878    0.0101 H   0  0  0  0  0  0  0  0  0  0  0  0
    1.1957   -0.7010   -0.0000 C   0  0  0  0  0  0  0  0  0  0  0  0
    2.0776   -1.1987   -0.0077 H   0  0  0  0  0  0  0  0  0  0  0  0
    1.1918    0.6860    0.0079 C   0  0  0  0  0  0  0  0  0  0  0  0
    2.0616    1.1822    0.0226 H   0  0  0  0  0  0  0  0  0  0  0  0
  1  5  1  0
  5  8  1  0
  1  2  1  0
  1  3  1  0
  1  4  1  0
  5  6  1  0
  5  7  1  0
  8  9  1  0
  8 10  1  0
  8 11  1  0
 12 16  1  0
 16 17  2  0
 17 19  1  0
 19 21  2  0
 21 23  1  0
 23 25  2  0
 25 16  1  0
 12 13  1  0
 12 14  1  0
 12 15  1  0
 17 18  1  0
 19 20  1  0
 21 22  1  0
 23 24  1  0
 25 26  1  0
M  CHG  1   8   1
M  END
>  <PDB_ID>  (2404) 
pdb4oh4

>  <RESIDUE_NAME>  (2404) 
LYS   PHE

>  <FRAG_NAME>  (2404) 
ETAM   MBZ

>  <FRAG_ATOM_NUM>  (2404) 
fragi: 11  fragj: 15

>  <atom.prop.CHAIN_ID>  (2404) 
A A A A A A A A A A A Z Z Z Z Z Z Z Z Z Z Z Z Z Z Z

>  <atom.prop.IS_HEAVY_ATOM>  (2404) 
1 0 0 0 1 0 0 1 0 0 0 1 0 0 0 1 1 0 1 0 1 0 1 0 1 0

>  <DIFUSE_FUNC_ATOM>  (2404) 
n/a

>  <FINAL_SINGLE_POINT_ENERGY>  (2404) 
0

>  <NONCOV_INTER_ENERGY_QM>  (2404) 
0

>  <FF_Energy>  (2404) 
-3.72

>  <QM_Energy>  (2404) 
-9.48

>  <source>  (2404) 
ETAM_MBZ

>  <Index>  (2404) 
25329

$$$$
ETAM-pdb3qkc-A-LYS-22:MBZ-pdb3qkc-A-PHE-42
     RDKit          3D

 26 25  0  0  0  0  0  0  0  0999 V2000
    1.1440   -1.4828   -4.5793 C   0  0  0  0  0  0  0  0  0  0  0  0
    2.1233   -1.3057   -4.5775 H   0  0  0  0  0  0  0  0  0  0  0  0
    0.8880   -2.0014   -5.3887 H   0  0  0  0  0  0  0  0  0  0  0  0
    0.8879   -2.0615   -3.6919 H   0  0  0  0  0  0  0  0  0  0  0  0
    0.4116   -0.1385   -4.6171 C   0  0  0  0  0  0  0  0  0  0  0  0
    0.7852    0.4108   -5.3794 H   0  0  0  0  0  0  0  0  0  0  0  0
   -0.5665   -0.3091   -4.8127 H   0  0  0  0  0  0  0  0  0  0  0  0
    0.5197    0.6567   -3.3497 N   0  0  0  0  0  4  0  0  0  0  0  0
    0.4910    1.6287   -3.5723 H   0  0  0  0  0  0  0  0  0  0  0  0
   -0.2443    0.4224   -2.7515 H   0  0  0  0  0  0  0  0  0  0  0  0
    1.3825    0.4371   -2.8998 H   0  0  0  0  0  0  0  0  0  0  0  0
   -0.0019    2.9016    0.0438 C   0  0  0  0  0  0  0  0  0  0  0  0
   -0.8947    3.2188   -0.2233 H   0  0  0  0  0  0  0  0  0  0  0  0
    0.7037    3.2278   -0.5587 H   0  0  0  0  0  0  0  0  0  0  0  0
    0.2051    3.2953    1.0390 H   0  0  0  0  0  0  0  0  0  0  0  0
   -0.0022    1.4015   -0.0001 C   0  0  0  0  0  0  0  0  0  0  0  0
   -1.1973    0.6930    0.0069 C   0  0  0  0  0  0  0  0  0  0  0  0
   -2.0639    1.1813    0.0157 H   0  0  0  0  0  0  0  0  0  0  0  0
   -1.1979   -0.6961    0.0000 C   0  0  0  0  0  0  0  0  0  0  0  0
   -2.0736   -1.1922    0.0070 H   0  0  0  0  0  0  0  0  0  0  0  0
    0.0039   -1.3886   -0.0141 C   0  0  0  0  0  0  0  0  0  0  0  0
   -0.0050   -2.3920   -0.0351 H   0  0  0  0  0  0  0  0  0  0  0  0
    1.1979   -0.7020   -0.0000 C   0  0  0  0  0  0  0  0  0  0  0  0
    2.0816   -1.1959    0.0063 H   0  0  0  0  0  0  0  0  0  0  0  0
    1.1956    0.6923    0.0073 C   0  0  0  0  0  0  0  0  0  0  0  0
    2.0637    1.1862    0.0174 H   0  0  0  0  0  0  0  0  0  0  0  0
  1  5  1  0
  5  8  1  0
  1  2  1  0
  1  3  1  0
  1  4  1  0
  5  6  1  0
  5  7  1  0
  8  9  1  0
  8 10  1  0
  8 11  1  0
 12 16  1  0
 16 17  2  0
 17 19  1  0
 19 21  2  0
 21 23  1  0
 23 25  2  0
 25 16  1  0
 12 13  1  0
 12 14  1  0
 12 15  1  0
 17 18  1  0
 19 20  1  0
 21 22  1  0
 23 24  1  0
 25 26  1  0
M  CHG  1   8   1
M  END
>  <PDB_ID>  (2405) 
pdb3qkc

>  <RESIDUE_NAME>  (2405) 
LYS   PHE

>  <FRAG_NAME>  (2405) 
ETAM   MBZ

>  <FRAG_ATOM_NUM>  (2405) 
fragi: 11  fragj: 15

>  <atom.prop.CHAIN_ID>  (2405) 
A A A A A A A A A A A Z Z Z Z Z Z Z Z Z Z Z Z Z Z Z

>  <atom.prop.IS_HEAVY_ATOM>  (2405) 
1 0 0 0 1 0 0 1 0 0 0 1 0 0 0 1 1 0 1 0 1 0 1 0 1 0

>  <DIFUSE_FUNC_ATOM>  (2405) 
n/a

>  <FINAL_SINGLE_POINT_ENERGY>  (2405) 
0

>  <NONCOV_INTER_ENERGY_QM>  (2405) 
0

>  <FF_Energy>  (2405) 
-8.27

>  <QM_Energy>  (2405) 
-14.2

>  <source>  (2405) 
ETAM_MBZ

>  <Index>  (2405) 
25332

$$$$
ETAM-pdb3qkc-B-LYS-22:MBZ-pdb3qkc-B-PHE-42
     RDKit          3D

 26 25  0  0  0  0  0  0  0  0999 V2000
    1.9137   -1.3135   -3.9781 C   0  0  0  0  0  0  0  0  0  0  0  0
    2.6286   -1.0679   -3.3333 H   0  0  0  0  0  0  0  0  0  0  0  0
    2.2980   -1.7924   -4.7591 H   0  0  0  0  0  0  0  0  0  0  0  0
    1.1921   -1.9613   -3.4805 H   0  0  0  0  0  0  0  0  0  0  0  0
    1.2513   -0.0343   -4.4751 C   0  0  0  0  0  0  0  0  0  0  0  0
    1.9316    0.5082   -4.9819 H   0  0  0  0  0  0  0  0  0  0  0  0
    0.5058   -0.2774   -5.1071 H   0  0  0  0  0  0  0  0  0  0  0  0
    0.6933    0.8013   -3.3664 N   0  0  0  0  0  4  0  0  0  0  0  0
    1.4101    0.9737   -2.6932 H   0  0  0  0  0  0  0  0  0  0  0  0
    0.3668    1.6666   -3.7409 H   0  0  0  0  0  0  0  0  0  0  0  0
   -0.0631    0.3121   -2.9360 H   0  0  0  0  0  0  0  0  0  0  0  0
   -0.0012    2.9010    0.0436 C   0  0  0  0  0  0  0  0  0  0  0  0
   -0.8642    3.2183   -0.3076 H   0  0  0  0  0  0  0  0  0  0  0  0
    0.7582    3.2247   -0.4919 H   0  0  0  0  0  0  0  0  0  0  0  0
    0.1119    3.2952    1.0535 H   0  0  0  0  0  0  0  0  0  0  0  0
    0.0004    1.4002    0.0005 C   0  0  0  0  0  0  0  0  0  0  0  0
   -1.1939    0.6929   -0.0003 C   0  0  0  0  0  0  0  0  0  0  0  0
   -2.0616    1.1781   -0.0021 H   0  0  0  0  0  0  0  0  0  0  0  0
   -1.1955   -0.7031    0.0000 C   0  0  0  0  0  0  0  0  0  0  0  0
   -2.0712   -1.1958    0.0027 H   0  0  0  0  0  0  0  0  0  0  0  0
    0.0063   -1.3924   -0.0017 C   0  0  0  0  0  0  0  0  0  0  0  0
    0.0039   -2.3931   -0.0049 H   0  0  0  0  0  0  0  0  0  0  0  0
    1.1955   -0.6951   -0.0000 C   0  0  0  0  0  0  0  0  0  0  0  0
    2.0835   -1.1858    0.0020 H   0  0  0  0  0  0  0  0  0  0  0  0
    1.1872    0.6975    0.0014 C   0  0  0  0  0  0  0  0  0  0  0  0
    2.0604    1.1908    0.0019 H   0  0  0  0  0  0  0  0  0  0  0  0
  1  5  1  0
  5  8  1  0
  1  2  1  0
  1  3  1  0
  1  4  1  0
  5  6  1  0
  5  7  1  0
  8  9  1  0
  8 10  1  0
  8 11  1  0
 12 16  1  0
 16 17  2  0
 17 19  1  0
 19 21  2  0
 21 23  1  0
 23 25  2  0
 25 16  1  0
 12 13  1  0
 12 14  1  0
 12 15  1  0
 17 18  1  0
 19 20  1  0
 21 22  1  0
 23 24  1  0
 25 26  1  0
M  CHG  1   8   1
M  END
>  <PDB_ID>  (2406) 
pdb3qkc

>  <RESIDUE_NAME>  (2406) 
LYS   PHE

>  <FRAG_NAME>  (2406) 
ETAM   MBZ

>  <FRAG_ATOM_NUM>  (2406) 
fragi: 11  fragj: 15

>  <atom.prop.CHAIN_ID>  (2406) 
A A A A A A A A A A A Z Z Z Z Z Z Z Z Z Z Z Z Z Z Z

>  <atom.prop.IS_HEAVY_ATOM>  (2406) 
1 0 0 0 1 0 0 1 0 0 0 1 0 0 0 1 1 0 1 0 1 0 1 0 1 0

>  <DIFUSE_FUNC_ATOM>  (2406) 
n/a

>  <FINAL_SINGLE_POINT_ENERGY>  (2406) 
0

>  <NONCOV_INTER_ENERGY_QM>  (2406) 
0

>  <FF_Energy>  (2406) 
-7.99

>  <QM_Energy>  (2406) 
-13.5

>  <source>  (2406) 
ETAM_MBZ

>  <Index>  (2406) 
25333

$$$$
ETAM-pdb3qek-B-LYS-25:MBZ-pdb3qek-B-PHE-317
     RDKit          3D

 26 25  0  0  0  0  0  0  0  0999 V2000
    2.5472   -3.4658   -4.1832 C   0  0  0  0  0  0  0  0  0  0  0  0
    2.7945   -3.9893   -4.9932 H   0  0  0  0  0  0  0  0  0  0  0  0
    3.2379   -2.7748   -3.9944 H   0  0  0  0  0  0  0  0  0  0  0  0
    1.5935   -2.9698   -4.3638 H   0  0  0  0  0  0  0  0  0  0  0  0
    2.4757   -4.4176   -2.9937 C   0  0  0  0  0  0  0  0  0  0  0  0
    1.7903   -5.1182   -3.1833 H   0  0  0  0  0  0  0  0  0  0  0  0
    3.3692   -4.8442   -2.8687 H   0  0  0  0  0  0  0  0  0  0  0  0
    2.1029   -3.6806   -1.7623 N   0  0  0  0  0  4  0  0  0  0  0  0
    1.4940   -4.2462   -1.2060 H   0  0  0  0  0  0  0  0  0  0  0  0
    2.9281   -3.4652   -1.2390 H   0  0  0  0  0  0  0  0  0  0  0  0
    1.6354   -2.8315   -2.0099 H   0  0  0  0  0  0  0  0  0  0  0  0
    0.0105    2.8980    0.0089 C   0  0  0  0  0  0  0  0  0  0  0  0
   -0.8589    3.2096   -0.3379 H   0  0  0  0  0  0  0  0  0  0  0  0
    0.7601    3.2062   -0.5531 H   0  0  0  0  0  0  0  0  0  0  0  0
    0.1439    3.3210    1.0046 H   0  0  0  0  0  0  0  0  0  0  0  0
    0.0059    1.3939   -0.0039 C   0  0  0  0  0  0  0  0  0  0  0  0
   -1.1858    0.6905    0.0026 C   0  0  0  0  0  0  0  0  0  0  0  0
   -2.0534    1.1842    0.0074 H   0  0  0  0  0  0  0  0  0  0  0  0
   -1.1929   -0.6916    0.0000 C   0  0  0  0  0  0  0  0  0  0  0  0
   -2.0797   -1.1803   -0.0017 H   0  0  0  0  0  0  0  0  0  0  0  0
   -0.0126   -1.3862    0.0019 C   0  0  0  0  0  0  0  0  0  0  0  0
   -0.0124   -2.3875    0.0046 H   0  0  0  0  0  0  0  0  0  0  0  0
    1.1929   -0.6956   -0.0000 C   0  0  0  0  0  0  0  0  0  0  0  0
    2.0703   -1.2000    0.0006 H   0  0  0  0  0  0  0  0  0  0  0  0
    1.1926    0.6891   -0.0007 C   0  0  0  0  0  0  0  0  0  0  0  0
    2.0645    1.1822    0.0006 H   0  0  0  0  0  0  0  0  0  0  0  0
  1  5  1  0
  5  8  1  0
  1  2  1  0
  1  3  1  0
  1  4  1  0
  5  6  1  0
  5  7  1  0
  8  9  1  0
  8 10  1  0
  8 11  1  0
 12 16  1  0
 16 17  2  0
 17 19  1  0
 19 21  2  0
 21 23  1  0
 23 25  2  0
 25 16  1  0
 12 13  1  0
 12 14  1  0
 12 15  1  0
 17 18  1  0
 19 20  1  0
 21 22  1  0
 23 24  1  0
 25 26  1  0
M  CHG  1   8   1
M  END
>  <PDB_ID>  (2407) 
pdb3qek

>  <RESIDUE_NAME>  (2407) 
LYS   PHE

>  <FRAG_NAME>  (2407) 
ETAM   MBZ

>  <FRAG_ATOM_NUM>  (2407) 
fragi: 11  fragj: 15

>  <atom.prop.CHAIN_ID>  (2407) 
A A A A A A A A A A A Z Z Z Z Z Z Z Z Z Z Z Z Z Z Z

>  <atom.prop.IS_HEAVY_ATOM>  (2407) 
1 0 0 0 1 0 0 1 0 0 0 1 0 0 0 1 1 0 1 0 1 0 1 0 1 0

>  <DIFUSE_FUNC_ATOM>  (2407) 
n/a

>  <FINAL_SINGLE_POINT_ENERGY>  (2407) 
0

>  <NONCOV_INTER_ENERGY_QM>  (2407) 
0

>  <FF_Energy>  (2407) 
-0.11

>  <QM_Energy>  (2407) 
-5.91

>  <source>  (2407) 
ETAM_MBZ

>  <Index>  (2407) 
25339

$$$$
ETAM-pdb3qkx-B-LYS-115:MBZ-pdb3qkx-A-PHE-164
     RDKit          3D

 26 25  0  0  0  0  0  0  0  0999 V2000
    3.0933    0.5049    2.5897 C   0  0  0  0  0  0  0  0  0  0  0  0
    3.7963   -0.0874    2.9831 H   0  0  0  0  0  0  0  0  0  0  0  0
    3.0119    1.3362    3.1380 H   0  0  0  0  0  0  0  0  0  0  0  0
    3.3948    0.7799    1.5790 H   0  0  0  0  0  0  0  0  0  0  0  0
    1.7692   -0.2269    2.6198 C   0  0  0  0  0  0  0  0  0  0  0  0
    1.0611    0.3620    2.2304 H   0  0  0  0  0  0  0  0  0  0  0  0
    1.8438   -1.0627    2.0761 H   0  0  0  0  0  0  0  0  0  0  0  0
    1.4001   -0.5815    4.0133 N   0  0  0  0  0  4  0  0  0  0  0  0
    0.7031   -1.2987    4.0013 H   0  0  0  0  0  0  0  0  0  0  0  0
    2.2099   -0.9113    4.4984 H   0  0  0  0  0  0  0  0  0  0  0  0
    1.0390    0.2263    4.4784 H   0  0  0  0  0  0  0  0  0  0  0  0
   -0.0094    2.8913   -0.0251 C   0  0  0  0  0  0  0  0  0  0  0  0
   -0.8258    3.1967   -0.5076 H   0  0  0  0  0  0  0  0  0  0  0  0
    0.8073    3.2082   -0.4988 H   0  0  0  0  0  0  0  0  0  0  0  0
   -0.0176    3.3771    0.9506 H   0  0  0  0  0  0  0  0  0  0  0  0
    0.0019    1.4000   -0.0073 C   0  0  0  0  0  0  0  0  0  0  0  0
   -1.1985    0.6917   -0.0084 C   0  0  0  0  0  0  0  0  0  0  0  0
   -2.0643    1.1929   -0.0168 H   0  0  0  0  0  0  0  0  0  0  0  0
   -1.2189   -0.6932   -0.0000 C   0  0  0  0  0  0  0  0  0  0  0  0
   -2.0881   -1.1872   -0.0104 H   0  0  0  0  0  0  0  0  0  0  0  0
   -0.0061   -1.3903    0.0255 C   0  0  0  0  0  0  0  0  0  0  0  0
   -0.0110   -2.3904    0.0621 H   0  0  0  0  0  0  0  0  0  0  0  0
    1.2189   -0.7002   -0.0000 C   0  0  0  0  0  0  0  0  0  0  0  0
    2.0856   -1.2004   -0.0092 H   0  0  0  0  0  0  0  0  0  0  0  0
    1.2027    0.6920   -0.0098 C   0  0  0  0  0  0  0  0  0  0  0  0
    2.0695    1.1949   -0.0188 H   0  0  0  0  0  0  0  0  0  0  0  0
  1  5  1  0
  5  8  1  0
  1  2  1  0
  1  3  1  0
  1  4  1  0
  5  6  1  0
  5  7  1  0
  8  9  1  0
  8 10  1  0
  8 11  1  0
 12 16  1  0
 16 17  2  0
 17 19  1  0
 19 21  2  0
 21 23  1  0
 23 25  2  0
 25 16  1  0
 12 13  1  0
 12 14  1  0
 12 15  1  0
 17 18  1  0
 19 20  1  0
 21 22  1  0
 23 24  1  0
 25 26  1  0
M  CHG  1   8   1
M  END
>  <PDB_ID>  (2408) 
pdb3qkx

>  <RESIDUE_NAME>  (2408) 
LYS   PHE

>  <FRAG_NAME>  (2408) 
ETAM   MBZ

>  <FRAG_ATOM_NUM>  (2408) 
fragi: 11  fragj: 15

>  <atom.prop.CHAIN_ID>  (2408) 
A A A A A A A A A A A Z Z Z Z Z Z Z Z Z Z Z Z Z Z Z

>  <atom.prop.IS_HEAVY_ATOM>  (2408) 
1 0 0 0 1 0 0 1 0 0 0 1 0 0 0 1 1 0 1 0 1 0 1 0 1 0

>  <DIFUSE_FUNC_ATOM>  (2408) 
n/a

>  <FINAL_SINGLE_POINT_ENERGY>  (2408) 
0

>  <NONCOV_INTER_ENERGY_QM>  (2408) 
0

>  <FF_Energy>  (2408) 
15.57

>  <QM_Energy>  (2408) 
-1.03

>  <source>  (2408) 
ETAM_MBZ

>  <Index>  (2408) 
25341

$$$$
ETAM-pdb3qkw-D-LYS-246:MBZ-pdb3qkw-D-PHE-180
     RDKit          3D

 26 25  0  0  0  0  0  0  0  0999 V2000
    1.9163   -3.2721    5.3561 C   0  0  0  0  0  0  0  0  0  0  0  0
    1.0393   -2.8066    5.4085 H   0  0  0  0  0  0  0  0  0  0  0  0
    2.5597   -2.8767    6.0018 H   0  0  0  0  0  0  0  0  0  0  0  0
    1.7721   -4.3246    5.6002 H   0  0  0  0  0  0  0  0  0  0  0  0
    2.4745   -3.0968    3.9470 C   0  0  0  0  0  0  0  0  0  0  0  0
    2.7834   -2.1487    3.8368 H   0  0  0  0  0  0  0  0  0  0  0  0
    3.2599   -3.7096    3.8308 H   0  0  0  0  0  0  0  0  0  0  0  0
    1.4554   -3.4045    2.9017 N   0  0  0  0  0  4  0  0  0  0  0  0
    1.2633   -2.5779    2.3750 H   0  0  0  0  0  0  0  0  0  0  0  0
    1.8096   -4.1149    2.2950 H   0  0  0  0  0  0  0  0  0  0  0  0
    0.6184   -3.7251    3.3421 H   0  0  0  0  0  0  0  0  0  0  0  0
    0.0033    2.8994    0.0137 C   0  0  0  0  0  0  0  0  0  0  0  0
    0.9277    3.2042    0.1902 H   0  0  0  0  0  0  0  0  0  0  0  0
   -0.6165    3.2030    0.7219 H   0  0  0  0  0  0  0  0  0  0  0  0
   -0.3211    3.3456   -0.9264 H   0  0  0  0  0  0  0  0  0  0  0  0
    0.0005    1.4006    0.0023 C   0  0  0  0  0  0  0  0  0  0  0  0
   -1.1955    0.6981    0.0030 C   0  0  0  0  0  0  0  0  0  0  0  0
   -2.0617    1.1877    0.0047 H   0  0  0  0  0  0  0  0  0  0  0  0
   -1.2007   -0.6933    0.0000 C   0  0  0  0  0  0  0  0  0  0  0  0
   -2.0788   -1.1862   -0.0000 H   0  0  0  0  0  0  0  0  0  0  0  0
   -0.0005   -1.3948   -0.0008 C   0  0  0  0  0  0  0  0  0  0  0  0
   -0.0079   -2.3925   -0.0020 H   0  0  0  0  0  0  0  0  0  0  0  0
    1.2007   -0.7006    0.0000 C   0  0  0  0  0  0  0  0  0  0  0  0
    2.0816   -1.1981    0.0050 H   0  0  0  0  0  0  0  0  0  0  0  0
    1.1956    0.6900   -0.0045 C   0  0  0  0  0  0  0  0  0  0  0  0
    2.0646    1.1866   -0.0138 H   0  0  0  0  0  0  0  0  0  0  0  0
  1  5  1  0
  5  8  1  0
  1  2  1  0
  1  3  1  0
  1  4  1  0
  5  6  1  0
  5  7  1  0
  8  9  1  0
  8 10  1  0
  8 11  1  0
 12 16  1  0
 16 17  2  0
 17 19  1  0
 19 21  2  0
 21 23  1  0
 23 25  2  0
 25 16  1  0
 12 13  1  0
 12 14  1  0
 12 15  1  0
 17 18  1  0
 19 20  1  0
 21 22  1  0
 23 24  1  0
 25 26  1  0
M  CHG  1   8   1
M  END
>  <PDB_ID>  (2409) 
pdb3qkw

>  <RESIDUE_NAME>  (2409) 
LYS   PHE

>  <FRAG_NAME>  (2409) 
ETAM   MBZ

>  <FRAG_ATOM_NUM>  (2409) 
fragi: 11  fragj: 15

>  <atom.prop.CHAIN_ID>  (2409) 
A A A A A A A A A A A Z Z Z Z Z Z Z Z Z Z Z Z Z Z Z

>  <atom.prop.IS_HEAVY_ATOM>  (2409) 
1 0 0 0 1 0 0 1 0 0 0 1 0 0 0 1 1 0 1 0 1 0 1 0 1 0

>  <DIFUSE_FUNC_ATOM>  (2409) 
n/a

>  <FINAL_SINGLE_POINT_ENERGY>  (2409) 
0

>  <NONCOV_INTER_ENERGY_QM>  (2409) 
0

>  <FF_Energy>  (2409) 
-1.65

>  <QM_Energy>  (2409) 
-7.1

>  <source>  (2409) 
ETAM_MBZ

>  <Index>  (2409) 
25362

$$$$
ETAM-pdb4o0n-L-LYS-41:MBZ-pdb4o0n-L-PHE-136
     RDKit          3D

 26 25  0  0  0  0  0  0  0  0999 V2000
   -3.4263   -1.5422   -3.6305 C   0  0  0  0  0  0  0  0  0  0  0  0
   -3.9364   -2.0111   -4.3518 H   0  0  0  0  0  0  0  0  0  0  0  0
   -4.0617   -1.0224   -3.0583 H   0  0  0  0  0  0  0  0  0  0  0  0
   -2.9299   -2.2899   -3.0120 H   0  0  0  0  0  0  0  0  0  0  0  0
   -2.4551   -0.5705   -4.2788 C   0  0  0  0  0  0  0  0  0  0  0  0
   -1.7070   -1.0942   -4.7044 H   0  0  0  0  0  0  0  0  0  0  0  0
   -2.9374   -0.0635   -5.0042 H   0  0  0  0  0  0  0  0  0  0  0  0
   -1.8802    0.3972   -3.3084 N   0  0  0  0  0  4  0  0  0  0  0  0
   -2.6200    0.8372   -2.7992 H   0  0  0  0  0  0  0  0  0  0  0  0
   -1.2788   -0.0868   -2.6727 H   0  0  0  0  0  0  0  0  0  0  0  0
   -1.3560    1.0911   -3.8017 H   0  0  0  0  0  0  0  0  0  0  0  0
   -0.0095    2.9002    0.0093 C   0  0  0  0  0  0  0  0  0  0  0  0
    0.8679    3.2070    0.3514 H   0  0  0  0  0  0  0  0  0  0  0  0
   -0.7458    3.1944    0.6028 H   0  0  0  0  0  0  0  0  0  0  0  0
   -0.1656    3.3609   -0.9662 H   0  0  0  0  0  0  0  0  0  0  0  0
   -0.0007    1.3953   -0.0096 C   0  0  0  0  0  0  0  0  0  0  0  0
   -1.1925    0.6882    0.0046 C   0  0  0  0  0  0  0  0  0  0  0  0
   -2.0609    1.1810    0.0172 H   0  0  0  0  0  0  0  0  0  0  0  0
   -1.1963   -0.6924    0.0000 C   0  0  0  0  0  0  0  0  0  0  0  0
   -2.0744   -1.1892   -0.0022 H   0  0  0  0  0  0  0  0  0  0  0  0
   -0.0008   -1.3856    0.0004 C   0  0  0  0  0  0  0  0  0  0  0  0
   -0.0052   -2.3873    0.0002 H   0  0  0  0  0  0  0  0  0  0  0  0
    1.1963   -0.6940   -0.0000 C   0  0  0  0  0  0  0  0  0  0  0  0
    2.0785   -1.1947   -0.0025 H   0  0  0  0  0  0  0  0  0  0  0  0
    1.1940    0.6886    0.0046 C   0  0  0  0  0  0  0  0  0  0  0  0
    2.0615    1.1870    0.0170 H   0  0  0  0  0  0  0  0  0  0  0  0
  1  5  1  0
  5  8  1  0
  1  2  1  0
  1  3  1  0
  1  4  1  0
  5  6  1  0
  5  7  1  0
  8  9  1  0
  8 10  1  0
  8 11  1  0
 12 16  1  0
 16 17  2  0
 17 19  1  0
 19 21  2  0
 21 23  1  0
 23 25  2  0
 25 16  1  0
 12 13  1  0
 12 14  1  0
 12 15  1  0
 17 18  1  0
 19 20  1  0
 21 22  1  0
 23 24  1  0
 25 26  1  0
M  CHG  1   8   1
M  END
>  <PDB_ID>  (2410) 
pdb4o0n

>  <RESIDUE_NAME>  (2410) 
LYS   PHE

>  <FRAG_NAME>  (2410) 
ETAM   MBZ

>  <FRAG_ATOM_NUM>  (2410) 
fragi: 11  fragj: 15

>  <atom.prop.CHAIN_ID>  (2410) 
A A A A A A A A A A A Z Z Z Z Z Z Z Z Z Z Z Z Z Z Z

>  <atom.prop.IS_HEAVY_ATOM>  (2410) 
1 0 0 0 1 0 0 1 0 0 0 1 0 0 0 1 1 0 1 0 1 0 1 0 1 0

>  <DIFUSE_FUNC_ATOM>  (2410) 
n/a

>  <FINAL_SINGLE_POINT_ENERGY>  (2410) 
0

>  <NONCOV_INTER_ENERGY_QM>  (2410) 
0

>  <FF_Energy>  (2410) 
-5.9

>  <QM_Energy>  (2410) 
-11.45

>  <source>  (2410) 
ETAM_MBZ

>  <Index>  (2410) 
25373

$$$$
ETAM-pdb3qml-B-LYS-402:MBZ-pdb3qml-B-PHE-399
     RDKit          3D

 26 25  0  0  0  0  0  0  0  0999 V2000
   -1.5429    2.5301   -2.8068 C   0  0  0  0  0  0  0  0  0  0  0  0
   -1.6156    2.2251   -1.8616 H   0  0  0  0  0  0  0  0  0  0  0  0
   -2.4474    2.7067   -3.1823 H   0  0  0  0  0  0  0  0  0  0  0  0
   -0.9593    3.4502   -2.8379 H   0  0  0  0  0  0  0  0  0  0  0  0
   -0.8883    1.4307   -3.6206 C   0  0  0  0  0  0  0  0  0  0  0  0
   -1.5996    0.8136   -3.9701 H   0  0  0  0  0  0  0  0  0  0  0  0
   -0.4067    1.8422   -4.4002 H   0  0  0  0  0  0  0  0  0  0  0  0
    0.0854    0.6390   -2.8128 N   0  0  0  0  0  4  0  0  0  0  0  0
    0.2705   -0.2270   -3.2752 H   0  0  0  0  0  0  0  0  0  0  0  0
    0.9343    1.1582   -2.7180 H   0  0  0  0  0  0  0  0  0  0  0  0
   -0.3030    0.4620   -1.9099 H   0  0  0  0  0  0  0  0  0  0  0  0
   -0.0010    2.8958   -0.0103 C   0  0  0  0  0  0  0  0  0  0  0  0
   -0.7546    3.1943   -0.5804 H   0  0  0  0  0  0  0  0  0  0  0  0
    0.8661    3.1983   -0.3839 H   0  0  0  0  0  0  0  0  0  0  0  0
   -0.1209    3.3550    0.9710 H   0  0  0  0  0  0  0  0  0  0  0  0
    0.0005    1.3942    0.0056 C   0  0  0  0  0  0  0  0  0  0  0  0
   -1.1894    0.6878   -0.0049 C   0  0  0  0  0  0  0  0  0  0  0  0
   -2.0584    1.1791   -0.0169 H   0  0  0  0  0  0  0  0  0  0  0  0
   -1.1923   -0.6935    0.0000 C   0  0  0  0  0  0  0  0  0  0  0  0
   -2.0730   -1.1879    0.0041 H   0  0  0  0  0  0  0  0  0  0  0  0
   -0.0020   -1.3829    0.0010 C   0  0  0  0  0  0  0  0  0  0  0  0
   -0.0045   -2.3861    0.0016 H   0  0  0  0  0  0  0  0  0  0  0  0
    1.1923   -0.6924   -0.0000 C   0  0  0  0  0  0  0  0  0  0  0  0
    2.0753   -1.1949    0.0025 H   0  0  0  0  0  0  0  0  0  0  0  0
    1.1909    0.6868   -0.0016 C   0  0  0  0  0  0  0  0  0  0  0  0
    2.0605    1.1850   -0.0092 H   0  0  0  0  0  0  0  0  0  0  0  0
  1  5  1  0
  5  8  1  0
  1  2  1  0
  1  3  1  0
  1  4  1  0
  5  6  1  0
  5  7  1  0
  8  9  1  0
  8 10  1  0
  8 11  1  0
 12 16  1  0
 16 17  2  0
 17 19  1  0
 19 21  2  0
 21 23  1  0
 23 25  2  0
 25 16  1  0
 12 13  1  0
 12 14  1  0
 12 15  1  0
 17 18  1  0
 19 20  1  0
 21 22  1  0
 23 24  1  0
 25 26  1  0
M  CHG  1   8   1
M  END
>  <PDB_ID>  (2411) 
pdb3qml

>  <RESIDUE_NAME>  (2411) 
LYS   PHE

>  <FRAG_NAME>  (2411) 
ETAM   MBZ

>  <FRAG_ATOM_NUM>  (2411) 
fragi: 11  fragj: 15

>  <atom.prop.CHAIN_ID>  (2411) 
A A A A A A A A A A A Z Z Z Z Z Z Z Z Z Z Z Z Z Z Z

>  <atom.prop.IS_HEAVY_ATOM>  (2411) 
1 0 0 0 1 0 0 1 0 0 0 1 0 0 0 1 1 0 1 0 1 0 1 0 1 0

>  <DIFUSE_FUNC_ATOM>  (2411) 
n/a

>  <FINAL_SINGLE_POINT_ENERGY>  (2411) 
0

>  <NONCOV_INTER_ENERGY_QM>  (2411) 
0

>  <FF_Energy>  (2411) 
-1.14

>  <QM_Energy>  (2411) 
-12.71

>  <source>  (2411) 
ETAM_MBZ

>  <Index>  (2411) 
25391

$$$$
ETAM-pdb3qfh-B-LYS-70:MBZ-pdb3qfh-B-PHE-259
     RDKit          3D

 26 25  0  0  0  0  0  0  0  0999 V2000
   -0.8245   -4.7321    2.4261 C   0  0  0  0  0  0  0  0  0  0  0  0
   -0.1001   -4.0952    2.2409 H   0  0  0  0  0  0  0  0  0  0  0  0
   -1.0751   -5.2561    1.6339 H   0  0  0  0  0  0  0  0  0  0  0  0
   -0.5107   -5.4095    3.2203 H   0  0  0  0  0  0  0  0  0  0  0  0
   -2.0601   -3.9401    2.8954 C   0  0  0  0  0  0  0  0  0  0  0  0
   -2.7989   -4.6003    3.1081 H   0  0  0  0  0  0  0  0  0  0  0  0
   -1.8236   -3.4628    3.7571 H   0  0  0  0  0  0  0  0  0  0  0  0
   -2.5744   -2.9356    1.9087 N   0  0  0  0  0  4  0  0  0  0  0  0
   -2.6976   -2.0594    2.3700 H   0  0  0  0  0  0  0  0  0  0  0  0
   -1.9140   -2.8391    1.1672 H   0  0  0  0  0  0  0  0  0  0  0  0
   -3.4482   -3.2528    1.5454 H   0  0  0  0  0  0  0  0  0  0  0  0
    0.0085    2.8989    0.0077 C   0  0  0  0  0  0  0  0  0  0  0  0
    0.8151    3.1970    0.4976 H   0  0  0  0  0  0  0  0  0  0  0  0
   -0.8175    3.2086    0.4557 H   0  0  0  0  0  0  0  0  0  0  0  0
    0.0370    3.3460   -0.9859 H   0  0  0  0  0  0  0  0  0  0  0  0
   -0.0018    1.4004   -0.0021 C   0  0  0  0  0  0  0  0  0  0  0  0
   -1.1960    0.6961   -0.0054 C   0  0  0  0  0  0  0  0  0  0  0  0
   -2.0639    1.1838   -0.0128 H   0  0  0  0  0  0  0  0  0  0  0  0
   -1.2008   -0.6980   -0.0000 C   0  0  0  0  0  0  0  0  0  0  0  0
   -2.0752   -1.1921    0.0027 H   0  0  0  0  0  0  0  0  0  0  0  0
    0.0064   -1.3953    0.0036 C   0  0  0  0  0  0  0  0  0  0  0  0
    0.0011   -2.3926    0.0080 H   0  0  0  0  0  0  0  0  0  0  0  0
    1.2008   -0.6952   -0.0000 C   0  0  0  0  0  0  0  0  0  0  0  0
    2.0852   -1.1897   -0.0040 H   0  0  0  0  0  0  0  0  0  0  0  0
    1.1913    0.6920    0.0040 C   0  0  0  0  0  0  0  0  0  0  0  0
    2.0616    1.1908    0.0107 H   0  0  0  0  0  0  0  0  0  0  0  0
  1  5  1  0
  5  8  1  0
  1  2  1  0
  1  3  1  0
  1  4  1  0
  5  6  1  0
  5  7  1  0
  8  9  1  0
  8 10  1  0
  8 11  1  0
 12 16  1  0
 16 17  2  0
 17 19  1  0
 19 21  2  0
 21 23  1  0
 23 25  2  0
 25 16  1  0
 12 13  1  0
 12 14  1  0
 12 15  1  0
 17 18  1  0
 19 20  1  0
 21 22  1  0
 23 24  1  0
 25 26  1  0
M  CHG  1   8   1
M  END
>  <PDB_ID>  (2412) 
pdb3qfh

>  <RESIDUE_NAME>  (2412) 
LYS   PHE

>  <FRAG_NAME>  (2412) 
ETAM   MBZ

>  <FRAG_ATOM_NUM>  (2412) 
fragi: 11  fragj: 15

>  <atom.prop.CHAIN_ID>  (2412) 
A A A A A A A A A A A Z Z Z Z Z Z Z Z Z Z Z Z Z Z Z

>  <atom.prop.IS_HEAVY_ATOM>  (2412) 
1 0 0 0 1 0 0 1 0 0 0 1 0 0 0 1 1 0 1 0 1 0 1 0 1 0

>  <DIFUSE_FUNC_ATOM>  (2412) 
n/a

>  <FINAL_SINGLE_POINT_ENERGY>  (2412) 
0

>  <NONCOV_INTER_ENERGY_QM>  (2412) 
0

>  <FF_Energy>  (2412) 
0.08

>  <QM_Energy>  (2412) 
-6.36

>  <source>  (2412) 
ETAM_MBZ

>  <Index>  (2412) 
25392

$$$$
ETAM-pdb3qqy-A-LYS-294:MBZ-pdb3qqy-A-PHE-182
     RDKit          3D

 26 25  0  0  0  0  0  0  0  0999 V2000
   -2.0609   -2.4108    5.3064 C   0  0  0  0  0  0  0  0  0  0  0  0
   -1.1722   -1.9446    5.4175 H   0  0  0  0  0  0  0  0  0  0  0  0
   -2.1832   -3.0385    6.0872 H   0  0  0  0  0  0  0  0  0  0  0  0
   -2.8459   -1.6561    5.3534 H   0  0  0  0  0  0  0  0  0  0  0  0
   -2.0348   -3.2126    4.0361 C   0  0  0  0  0  0  0  0  0  0  0  0
   -1.2203   -3.7850    4.0278 H   0  0  0  0  0  0  0  0  0  0  0  0
   -2.8525   -3.7803    3.9912 H   0  0  0  0  0  0  0  0  0  0  0  0
   -2.0067   -2.2929    2.9013 N   0  0  0  0  0  4  0  0  0  0  0  0
   -1.2335   -1.6579    2.9907 H   0  0  0  0  0  0  0  0  0  0  0  0
   -1.9068   -2.8055    2.0435 H   0  0  0  0  0  0  0  0  0  0  0  0
   -2.8588   -1.7632    2.8654 H   0  0  0  0  0  0  0  0  0  0  0  0
    0.0264    2.9194   -0.0401 C   0  0  0  0  0  0  0  0  0  0  0  0
   -0.5596    3.2084   -0.7790 H   0  0  0  0  0  0  0  0  0  0  0  0
    0.9584    3.2141   -0.1750 H   0  0  0  0  0  0  0  0  0  0  0  0
   -0.3365    3.4013    0.8678 H   0  0  0  0  0  0  0  0  0  0  0  0
    0.0140    1.3984    0.0052 C   0  0  0  0  0  0  0  0  0  0  0  0
   -1.1790    0.6945    0.0076 C   0  0  0  0  0  0  0  0  0  0  0  0
   -2.0488    1.1881    0.0136 H   0  0  0  0  0  0  0  0  0  0  0  0
   -1.1989   -0.7008   -0.0000 C   0  0  0  0  0  0  0  0  0  0  0  0
   -2.0940   -1.1718   -0.0093 H   0  0  0  0  0  0  0  0  0  0  0  0
   -0.0343   -1.3936    0.0067 C   0  0  0  0  0  0  0  0  0  0  0  0
   -0.0134   -2.3890    0.0158 H   0  0  0  0  0  0  0  0  0  0  0  0
    1.1989   -0.6848    0.0000 C   0  0  0  0  0  0  0  0  0  0  0  0
    2.0640   -1.2060    0.0112 H   0  0  0  0  0  0  0  0  0  0  0  0
    1.1992    0.6864   -0.0194 C   0  0  0  0  0  0  0  0  0  0  0  0
    2.0710    1.1853   -0.0529 H   0  0  0  0  0  0  0  0  0  0  0  0
  1  5  1  0
  5  8  1  0
  1  2  1  0
  1  3  1  0
  1  4  1  0
  5  6  1  0
  5  7  1  0
  8  9  1  0
  8 10  1  0
  8 11  1  0
 12 16  1  0
 16 17  2  0
 17 19  1  0
 19 21  2  0
 21 23  1  0
 23 25  2  0
 25 16  1  0
 12 13  1  0
 12 14  1  0
 12 15  1  0
 17 18  1  0
 19 20  1  0
 21 22  1  0
 23 24  1  0
 25 26  1  0
M  CHG  1   8   1
M  END
>  <PDB_ID>  (2413) 
pdb3qqy

>  <RESIDUE_NAME>  (2413) 
LYS   PHE

>  <FRAG_NAME>  (2413) 
ETAM   MBZ

>  <FRAG_ATOM_NUM>  (2413) 
fragi: 11  fragj: 15

>  <atom.prop.CHAIN_ID>  (2413) 
A A A A A A A A A A A Z Z Z Z Z Z Z Z Z Z Z Z Z Z Z

>  <atom.prop.IS_HEAVY_ATOM>  (2413) 
1 0 0 0 1 0 0 1 0 0 0 1 0 0 0 1 1 0 1 0 1 0 1 0 1 0

>  <DIFUSE_FUNC_ATOM>  (2413) 
n/a

>  <FINAL_SINGLE_POINT_ENERGY>  (2413) 
0

>  <NONCOV_INTER_ENERGY_QM>  (2413) 
0

>  <FF_Energy>  (2413) 
-2.55

>  <QM_Energy>  (2413) 
-8.33

>  <source>  (2413) 
ETAM_MBZ

>  <Index>  (2413) 
25470

$$$$
ETAM-pdb3qfh-A-LYS-365:MBZ-pdb3qfh-A-PHE-361
     RDKit          3D

 26 25  0  0  0  0  0  0  0  0999 V2000
   -1.5563    2.1226    3.3501 C   0  0  0  0  0  0  0  0  0  0  0  0
   -2.3420    2.3938    3.8794 H   0  0  0  0  0  0  0  0  0  0  0  0
   -1.7029    2.2432    2.3833 H   0  0  0  0  0  0  0  0  0  0  0  0
   -0.7059    2.7334    3.6529 H   0  0  0  0  0  0  0  0  0  0  0  0
   -1.2736    0.6280    3.6202 C   0  0  0  0  0  0  0  0  0  0  0  0
   -0.4327    0.3761    3.1281 H   0  0  0  0  0  0  0  0  0  0  0  0
   -1.1091    0.5150    4.6071 H   0  0  0  0  0  0  0  0  0  0  0  0
   -2.3832   -0.2531    3.1956 N   0  0  0  0  0  4  0  0  0  0  0  0
   -3.1544    0.3039    2.8845 H   0  0  0  0  0  0  0  0  0  0  0  0
   -2.0763   -0.8424    2.4462 H   0  0  0  0  0  0  0  0  0  0  0  0
   -2.6745   -0.8222    3.9662 H   0  0  0  0  0  0  0  0  0  0  0  0
   -0.0083    2.8752    0.0142 C   0  0  0  0  0  0  0  0  0  0  0  0
    0.9290    3.1942   -0.0014 H   0  0  0  0  0  0  0  0  0  0  0  0
   -0.4733    3.1714    0.8367 H   0  0  0  0  0  0  0  0  0  0  0  0
   -0.5233    3.3244   -0.8350 H   0  0  0  0  0  0  0  0  0  0  0  0
    0.0023    1.3844   -0.0073 C   0  0  0  0  0  0  0  0  0  0  0  0
   -1.1929    0.6778    0.0055 C   0  0  0  0  0  0  0  0  0  0  0  0
   -2.0577    1.1784    0.0174 H   0  0  0  0  0  0  0  0  0  0  0  0
   -1.1989   -0.6912    0.0000 C   0  0  0  0  0  0  0  0  0  0  0  0
   -2.0760   -1.1916    0.0025 H   0  0  0  0  0  0  0  0  0  0  0  0
   -0.0063   -1.3772   -0.0066 C   0  0  0  0  0  0  0  0  0  0  0  0
   -0.0008   -2.3788   -0.0165 H   0  0  0  0  0  0  0  0  0  0  0  0
    1.1989   -0.6790    0.0000 C   0  0  0  0  0  0  0  0  0  0  0  0
    2.0761   -1.1929   -0.0002 H   0  0  0  0  0  0  0  0  0  0  0  0
    1.1969    0.6852    0.0084 C   0  0  0  0  0  0  0  0  0  0  0  0
    2.0618    1.1921    0.0248 H   0  0  0  0  0  0  0  0  0  0  0  0
  1  5  1  0
  5  8  1  0
  1  2  1  0
  1  3  1  0
  1  4  1  0
  5  6  1  0
  5  7  1  0
  8  9  1  0
  8 10  1  0
  8 11  1  0
 12 16  1  0
 16 17  2  0
 17 19  1  0
 19 21  2  0
 21 23  1  0
 23 25  2  0
 25 16  1  0
 12 13  1  0
 12 14  1  0
 12 15  1  0
 17 18  1  0
 19 20  1  0
 21 22  1  0
 23 24  1  0
 25 26  1  0
M  CHG  1   8   1
M  END
>  <PDB_ID>  (2414) 
pdb3qfh

>  <RESIDUE_NAME>  (2414) 
LYS   PHE

>  <FRAG_NAME>  (2414) 
ETAM   MBZ

>  <FRAG_ATOM_NUM>  (2414) 
fragi: 11  fragj: 15

>  <atom.prop.CHAIN_ID>  (2414) 
A A A A A A A A A A A Z Z Z Z Z Z Z Z Z Z Z Z Z Z Z

>  <atom.prop.IS_HEAVY_ATOM>  (2414) 
1 0 0 0 1 0 0 1 0 0 0 1 0 0 0 1 1 0 1 0 1 0 1 0 1 0

>  <DIFUSE_FUNC_ATOM>  (2414) 
n/a

>  <FINAL_SINGLE_POINT_ENERGY>  (2414) 
0

>  <NONCOV_INTER_ENERGY_QM>  (2414) 
0

>  <FF_Energy>  (2414) 
-5.3

>  <QM_Energy>  (2414) 
-11.56

>  <source>  (2414) 
ETAM_MBZ

>  <Index>  (2414) 
25498

$$$$
ETAM-pdb3qfh-H-LYS-365:MBZ-pdb3qfh-H-PHE-361
     RDKit          3D

 26 25  0  0  0  0  0  0  0  0999 V2000
   -1.7124    2.6296    3.3993 C   0  0  0  0  0  0  0  0  0  0  0  0
   -2.4950    2.9809    3.8988 H   0  0  0  0  0  0  0  0  0  0  0  0
   -1.7930    2.8361    2.4316 H   0  0  0  0  0  0  0  0  0  0  0  0
   -0.8254    3.1400    3.7746 H   0  0  0  0  0  0  0  0  0  0  0  0
   -1.6293    1.1243    3.5872 C   0  0  0  0  0  0  0  0  0  0  0  0
   -0.8079    0.7820    3.1219 H   0  0  0  0  0  0  0  0  0  0  0  0
   -1.5518    0.9207    4.5683 H   0  0  0  0  0  0  0  0  0  0  0  0
   -2.8275    0.4197    3.0391 N   0  0  0  0  0  4  0  0  0  0  0  0
   -2.6265   -0.5544    2.9566 H   0  0  0  0  0  0  0  0  0  0  0  0
   -3.5994    0.5530    3.6589 H   0  0  0  0  0  0  0  0  0  0  0  0
   -3.0476    0.7955    2.1403 H   0  0  0  0  0  0  0  0  0  0  0  0
   -0.0082    2.9053    0.0236 C   0  0  0  0  0  0  0  0  0  0  0  0
    0.9274    3.2220   -0.0166 H   0  0  0  0  0  0  0  0  0  0  0  0
   -0.4501    3.1925    0.8603 H   0  0  0  0  0  0  0  0  0  0  0  0
   -0.5446    3.3702   -0.8036 H   0  0  0  0  0  0  0  0  0  0  0  0
    0.0004    1.4024   -0.0136 C   0  0  0  0  0  0  0  0  0  0  0  0
   -1.1987    0.6847    0.0068 C   0  0  0  0  0  0  0  0  0  0  0  0
   -2.0649    1.1771    0.0257 H   0  0  0  0  0  0  0  0  0  0  0  0
   -1.1992   -0.7004   -0.0000 C   0  0  0  0  0  0  0  0  0  0  0  0
   -2.0745   -1.1991   -0.0037 H   0  0  0  0  0  0  0  0  0  0  0  0
    0.0029   -1.3913   -0.0002 C   0  0  0  0  0  0  0  0  0  0  0  0
    0.0014   -2.3915   -0.0015 H   0  0  0  0  0  0  0  0  0  0  0  0
    1.1992   -0.6940    0.0000 C   0  0  0  0  0  0  0  0  0  0  0  0
    2.0835   -1.1891   -0.0031 H   0  0  0  0  0  0  0  0  0  0  0  0
    1.1954    0.6986    0.0071 C   0  0  0  0  0  0  0  0  0  0  0  0
    2.0633    1.1934    0.0270 H   0  0  0  0  0  0  0  0  0  0  0  0
  1  5  1  0
  5  8  1  0
  1  2  1  0
  1  3  1  0
  1  4  1  0
  5  6  1  0
  5  7  1  0
  8  9  1  0
  8 10  1  0
  8 11  1  0
 12 16  1  0
 16 17  2  0
 17 19  1  0
 19 21  2  0
 21 23  1  0
 23 25  2  0
 25 16  1  0
 12 13  1  0
 12 14  1  0
 12 15  1  0
 17 18  1  0
 19 20  1  0
 21 22  1  0
 23 24  1  0
 25 26  1  0
M  CHG  1   8   1
M  END
>  <PDB_ID>  (2415) 
pdb3qfh

>  <RESIDUE_NAME>  (2415) 
LYS   PHE

>  <FRAG_NAME>  (2415) 
ETAM   MBZ

>  <FRAG_ATOM_NUM>  (2415) 
fragi: 11  fragj: 15

>  <atom.prop.CHAIN_ID>  (2415) 
A A A A A A A A A A A Z Z Z Z Z Z Z Z Z Z Z Z Z Z Z

>  <atom.prop.IS_HEAVY_ATOM>  (2415) 
1 0 0 0 1 0 0 1 0 0 0 1 0 0 0 1 1 0 1 0 1 0 1 0 1 0

>  <DIFUSE_FUNC_ATOM>  (2415) 
n/a

>  <FINAL_SINGLE_POINT_ENERGY>  (2415) 
0

>  <NONCOV_INTER_ENERGY_QM>  (2415) 
0

>  <FF_Energy>  (2415) 
-3.98

>  <QM_Energy>  (2415) 
-9.22

>  <source>  (2415) 
ETAM_MBZ

>  <Index>  (2415) 
25511

$$$$
ETAM-pdb3qsz-B-LYS-32:MBZ-pdb3qsz-B-PHE-190
     RDKit          3D

 26 25  0  0  0  0  0  0  0  0999 V2000
   -1.7737    1.2907   -3.9154 C   0  0  0  0  0  0  0  0  0  0  0  0
   -1.2582    1.9418   -4.4468 H   0  0  0  0  0  0  0  0  0  0  0  0
   -1.7720    1.5171   -2.9560 H   0  0  0  0  0  0  0  0  0  0  0  0
   -2.8022    1.2730   -4.2758 H   0  0  0  0  0  0  0  0  0  0  0  0
   -1.1515   -0.0863   -4.0927 C   0  0  0  0  0  0  0  0  0  0  0  0
   -1.6979   -0.7601   -3.5679 H   0  0  0  0  0  0  0  0  0  0  0  0
   -1.2128   -0.3468   -5.0710 H   0  0  0  0  0  0  0  0  0  0  0  0
    0.2715   -0.1776   -3.6587 N   0  0  0  0  0  4  0  0  0  0  0  0
    0.3137   -0.5906   -2.7500 H   0  0  0  0  0  0  0  0  0  0  0  0
    0.7796   -0.7421   -4.3075 H   0  0  0  0  0  0  0  0  0  0  0  0
    0.6679    0.7390   -3.6304 H   0  0  0  0  0  0  0  0  0  0  0  0
    0.0056    2.8850    0.0328 C   0  0  0  0  0  0  0  0  0  0  0  0
   -0.8199    3.2107   -0.3961 H   0  0  0  0  0  0  0  0  0  0  0  0
    0.8125    3.2070   -0.4340 H   0  0  0  0  0  0  0  0  0  0  0  0
    0.0303    3.2864    1.0459 H   0  0  0  0  0  0  0  0  0  0  0  0
    0.0009    1.3916   -0.0067 C   0  0  0  0  0  0  0  0  0  0  0  0
   -1.1900    0.6897   -0.0002 C   0  0  0  0  0  0  0  0  0  0  0  0
   -2.0578    1.1840    0.0031 H   0  0  0  0  0  0  0  0  0  0  0  0
   -1.1945   -0.6889   -0.0000 C   0  0  0  0  0  0  0  0  0  0  0  0
   -2.0727   -1.1861   -0.0002 H   0  0  0  0  0  0  0  0  0  0  0  0
    0.0008   -1.3841    0.0023 C   0  0  0  0  0  0  0  0  0  0  0  0
   -0.0067   -2.3851    0.0046 H   0  0  0  0  0  0  0  0  0  0  0  0
    1.1945   -0.6939    0.0000 C   0  0  0  0  0  0  0  0  0  0  0  0
    2.0770   -1.1940   -0.0039 H   0  0  0  0  0  0  0  0  0  0  0  0
    1.1883    0.6857    0.0046 C   0  0  0  0  0  0  0  0  0  0  0  0
    2.0605    1.1844    0.0153 H   0  0  0  0  0  0  0  0  0  0  0  0
  1  5  1  0
  5  8  1  0
  1  2  1  0
  1  3  1  0
  1  4  1  0
  5  6  1  0
  5  7  1  0
  8  9  1  0
  8 10  1  0
  8 11  1  0
 12 16  1  0
 16 17  2  0
 17 19  1  0
 19 21  2  0
 21 23  1  0
 23 25  2  0
 25 16  1  0
 12 13  1  0
 12 14  1  0
 12 15  1  0
 17 18  1  0
 19 20  1  0
 21 22  1  0
 23 24  1  0
 25 26  1  0
M  CHG  1   8   1
M  END
>  <PDB_ID>  (2416) 
pdb3qsz

>  <RESIDUE_NAME>  (2416) 
LYS   PHE

>  <FRAG_NAME>  (2416) 
ETAM   MBZ

>  <FRAG_ATOM_NUM>  (2416) 
fragi: 11  fragj: 15

>  <atom.prop.CHAIN_ID>  (2416) 
A A A A A A A A A A A Z Z Z Z Z Z Z Z Z Z Z Z Z Z Z

>  <atom.prop.IS_HEAVY_ATOM>  (2416) 
1 0 0 0 1 0 0 1 0 0 0 1 0 0 0 1 1 0 1 0 1 0 1 0 1 0

>  <DIFUSE_FUNC_ATOM>  (2416) 
n/a

>  <FINAL_SINGLE_POINT_ENERGY>  (2416) 
0

>  <NONCOV_INTER_ENERGY_QM>  (2416) 
0

>  <FF_Energy>  (2416) 
-8.15

>  <QM_Energy>  (2416) 
-13.97

>  <source>  (2416) 
ETAM_MBZ

>  <Index>  (2416) 
25516

$$$$
ETAM-pdb4oe4-A-LYS-153:MBZ-pdb4oe4-A-PHE-213
     RDKit          3D

 26 25  0  0  0  0  0  0  0  0999 V2000
    2.4290   -0.1536    5.6529 C   0  0  0  0  0  0  0  0  0  0  0  0
    2.8781    0.7154    5.7544 H   0  0  0  0  0  0  0  0  0  0  0  0
    3.0071   -0.8259    5.2288 H   0  0  0  0  0  0  0  0  0  0  0  0
    2.1202   -0.5132    6.6344 H   0  0  0  0  0  0  0  0  0  0  0  0
    1.1853    0.0423    4.7730 C   0  0  0  0  0  0  0  0  0  0  0  0
    0.5853   -0.7676    4.8822 H   0  0  0  0  0  0  0  0  0  0  0  0
    0.6725    0.8459    5.1179 H   0  0  0  0  0  0  0  0  0  0  0  0
    1.4724    0.2397    3.3167 N   0  0  0  0  0  4  0  0  0  0  0  0
    1.7996    1.1710    3.1716 H   0  0  0  0  0  0  0  0  0  0  0  0
    2.1708   -0.4132    3.0298 H   0  0  0  0  0  0  0  0  0  0  0  0
    0.6345    0.0907    2.7949 H   0  0  0  0  0  0  0  0  0  0  0  0
    0.0027    2.9050    0.0219 C   0  0  0  0  0  0  0  0  0  0  0  0
   -0.7623    3.2211   -0.5128 H   0  0  0  0  0  0  0  0  0  0  0  0
    0.8625    3.2138   -0.3464 H   0  0  0  0  0  0  0  0  0  0  0  0
   -0.0980    3.3182    1.0255 H   0  0  0  0  0  0  0  0  0  0  0  0
   -0.0018    1.3984   -0.0018 C   0  0  0  0  0  0  0  0  0  0  0  0
   -1.1985    0.6972   -0.0061 C   0  0  0  0  0  0  0  0  0  0  0  0
   -2.0642    1.1876   -0.0150 H   0  0  0  0  0  0  0  0  0  0  0  0
   -1.2042   -0.6933   -0.0000 C   0  0  0  0  0  0  0  0  0  0  0  0
   -2.0773   -1.1894    0.0022 H   0  0  0  0  0  0  0  0  0  0  0  0
    0.0045   -1.3904    0.0050 C   0  0  0  0  0  0  0  0  0  0  0  0
   -0.0045   -2.3904    0.0119 H   0  0  0  0  0  0  0  0  0  0  0  0
    1.2042   -0.6991    0.0000 C   0  0  0  0  0  0  0  0  0  0  0  0
    2.0849   -1.1962   -0.0044 H   0  0  0  0  0  0  0  0  0  0  0  0
    1.1958    0.6872    0.0030 C   0  0  0  0  0  0  0  0  0  0  0  0
    2.0639    1.1881    0.0075 H   0  0  0  0  0  0  0  0  0  0  0  0
  1  5  1  0
  5  8  1  0
  1  2  1  0
  1  3  1  0
  1  4  1  0
  5  6  1  0
  5  7  1  0
  8  9  1  0
  8 10  1  0
  8 11  1  0
 12 16  1  0
 16 17  2  0
 17 19  1  0
 19 21  2  0
 21 23  1  0
 23 25  2  0
 25 16  1  0
 12 13  1  0
 12 14  1  0
 12 15  1  0
 17 18  1  0
 19 20  1  0
 21 22  1  0
 23 24  1  0
 25 26  1  0
M  CHG  1   8   1
M  END
>  <PDB_ID>  (2417) 
pdb4oe4

>  <RESIDUE_NAME>  (2417) 
LYS   PHE

>  <FRAG_NAME>  (2417) 
ETAM   MBZ

>  <FRAG_ATOM_NUM>  (2417) 
fragi: 11  fragj: 15

>  <atom.prop.CHAIN_ID>  (2417) 
A A A A A A A A A A A Z Z Z Z Z Z Z Z Z Z Z Z Z Z Z

>  <atom.prop.IS_HEAVY_ATOM>  (2417) 
1 0 0 0 1 0 0 1 0 0 0 1 0 0 0 1 1 0 1 0 1 0 1 0 1 0

>  <DIFUSE_FUNC_ATOM>  (2417) 
n/a

>  <FINAL_SINGLE_POINT_ENERGY>  (2417) 
0

>  <NONCOV_INTER_ENERGY_QM>  (2417) 
0

>  <FF_Energy>  (2417) 
-6.43

>  <QM_Energy>  (2417) 
-12.08

>  <source>  (2417) 
ETAM_MBZ

>  <Index>  (2417) 
25520

$$$$
ETAM-pdb4oou-A-LYS-235:MBZ-pdb4oou-A-PHE-22
     RDKit          3D

 26 25  0  0  0  0  0  0  0  0999 V2000
   -0.3370    1.4422   -4.2967 C   0  0  0  0  0  0  0  0  0  0  0  0
    0.3710    1.5595   -4.9747 H   0  0  0  0  0  0  0  0  0  0  0  0
   -0.3139    2.1605   -3.6191 H   0  0  0  0  0  0  0  0  0  0  0  0
   -1.3092    1.4439   -4.7896 H   0  0  0  0  0  0  0  0  0  0  0  0
   -0.1067    0.1008   -3.5854 C   0  0  0  0  0  0  0  0  0  0  0  0
   -0.4720    0.1790   -2.6354 H   0  0  0  0  0  0  0  0  0  0  0  0
   -0.6780   -0.6070   -4.0508 H   0  0  0  0  0  0  0  0  0  0  0  0
    1.3008   -0.3801   -3.5234 N   0  0  0  0  0  4  0  0  0  0  0  0
    1.7767    0.0828   -2.7756 H   0  0  0  0  0  0  0  0  0  0  0  0
    1.3071   -1.3671   -3.3639 H   0  0  0  0  0  0  0  0  0  0  0  0
    1.7589   -0.1775   -4.3887 H   0  0  0  0  0  0  0  0  0  0  0  0
    0.0080    2.9075   -0.0361 C   0  0  0  0  0  0  0  0  0  0  0  0
   -0.7544    3.1959   -0.6041 H   0  0  0  0  0  0  0  0  0  0  0  0
    0.8706    3.1941   -0.4376 H   0  0  0  0  0  0  0  0  0  0  0  0
   -0.0906    3.3923    0.9352 H   0  0  0  0  0  0  0  0  0  0  0  0
    0.0011    1.4049    0.0091 C   0  0  0  0  0  0  0  0  0  0  0  0
   -1.1934    0.7009    0.0068 C   0  0  0  0  0  0  0  0  0  0  0  0
   -2.0601    1.1956    0.0091 H   0  0  0  0  0  0  0  0  0  0  0  0
   -1.2029   -0.6836   -0.0000 C   0  0  0  0  0  0  0  0  0  0  0  0
   -2.0867   -1.1750    0.0069 H   0  0  0  0  0  0  0  0  0  0  0  0
   -0.0100   -1.3969   -0.0144 C   0  0  0  0  0  0  0  0  0  0  0  0
   -0.0230   -2.3927   -0.0352 H   0  0  0  0  0  0  0  0  0  0  0  0
    1.2029   -0.7086    0.0000 C   0  0  0  0  0  0  0  0  0  0  0  0
    2.0764   -1.2115    0.0127 H   0  0  0  0  0  0  0  0  0  0  0  0
    1.2023    0.6833   -0.0015 C   0  0  0  0  0  0  0  0  0  0  0  0
    2.0701    1.1799   -0.0114 H   0  0  0  0  0  0  0  0  0  0  0  0
  1  5  1  0
  5  8  1  0
  1  2  1  0
  1  3  1  0
  1  4  1  0
  5  6  1  0
  5  7  1  0
  8  9  1  0
  8 10  1  0
  8 11  1  0
 12 16  1  0
 16 17  2  0
 17 19  1  0
 19 21  2  0
 21 23  1  0
 23 25  2  0
 25 16  1  0
 12 13  1  0
 12 14  1  0
 12 15  1  0
 17 18  1  0
 19 20  1  0
 21 22  1  0
 23 24  1  0
 25 26  1  0
M  CHG  1   8   1
M  END
>  <PDB_ID>  (2418) 
pdb4oou

>  <RESIDUE_NAME>  (2418) 
LYS   PHE

>  <FRAG_NAME>  (2418) 
ETAM   MBZ

>  <FRAG_ATOM_NUM>  (2418) 
fragi: 11  fragj: 15

>  <atom.prop.CHAIN_ID>  (2418) 
A A A A A A A A A A A Z Z Z Z Z Z Z Z Z Z Z Z Z Z Z

>  <atom.prop.IS_HEAVY_ATOM>  (2418) 
1 0 0 0 1 0 0 1 0 0 0 1 0 0 0 1 1 0 1 0 1 0 1 0 1 0

>  <DIFUSE_FUNC_ATOM>  (2418) 
n/a

>  <FINAL_SINGLE_POINT_ENERGY>  (2418) 
0

>  <NONCOV_INTER_ENERGY_QM>  (2418) 
0

>  <FF_Energy>  (2418) 
-7.05

>  <QM_Energy>  (2418) 
-13.6

>  <source>  (2418) 
ETAM_MBZ

>  <Index>  (2418) 
25528

$$$$
ETAM-pdb4ofi-A-LYS-158:MBZ-pdb4ofi-A-PHE-177
     RDKit          3D

 26 25  0  0  0  0  0  0  0  0999 V2000
   -1.8680    1.2372    3.0611 C   0  0  0  0  0  0  0  0  0  0  0  0
   -1.0479    1.1382    2.5097 H   0  0  0  0  0  0  0  0  0  0  0  0
   -1.6373    1.5167    3.9858 H   0  0  0  0  0  0  0  0  0  0  0  0
   -2.5038    1.9997    2.6109 H   0  0  0  0  0  0  0  0  0  0  0  0
   -2.5773   -0.1139    3.1245 C   0  0  0  0  0  0  0  0  0  0  0  0
   -3.3875   -0.0253    3.7117 H   0  0  0  0  0  0  0  0  0  0  0  0
   -2.8761   -0.3645    2.1991 H   0  0  0  0  0  0  0  0  0  0  0  0
   -1.6966   -1.1872    3.6629 N   0  0  0  0  0  4  0  0  0  0  0  0
   -2.0357   -1.4757    4.5573 H   0  0  0  0  0  0  0  0  0  0  0  0
   -1.7015   -1.9649    3.0354 H   0  0  0  0  0  0  0  0  0  0  0  0
   -0.7657   -0.8363    3.7545 H   0  0  0  0  0  0  0  0  0  0  0  0
    0.0012    2.9007    0.0094 C   0  0  0  0  0  0  0  0  0  0  0  0
    0.8942    3.2044    0.3065 H   0  0  0  0  0  0  0  0  0  0  0  0
   -0.7065    3.2033    0.6300 H   0  0  0  0  0  0  0  0  0  0  0  0
   -0.1961    3.3473   -0.9651 H   0  0  0  0  0  0  0  0  0  0  0  0
   -0.0003    1.3977    0.0010 C   0  0  0  0  0  0  0  0  0  0  0  0
   -1.1936    0.6904   -0.0018 C   0  0  0  0  0  0  0  0  0  0  0  0
   -2.0609    1.1818   -0.0068 H   0  0  0  0  0  0  0  0  0  0  0  0
   -1.1960   -0.6939    0.0000 C   0  0  0  0  0  0  0  0  0  0  0  0
   -2.0733   -1.1908    0.0028 H   0  0  0  0  0  0  0  0  0  0  0  0
    0.0021   -1.3874   -0.0008 C   0  0  0  0  0  0  0  0  0  0  0  0
   -0.0038   -2.3888   -0.0030 H   0  0  0  0  0  0  0  0  0  0  0  0
    1.1960   -0.6959    0.0000 C   0  0  0  0  0  0  0  0  0  0  0  0
    2.0794   -1.1939    0.0009 H   0  0  0  0  0  0  0  0  0  0  0  0
    1.1918    0.6892    0.0017 C   0  0  0  0  0  0  0  0  0  0  0  0
    2.0615    1.1868    0.0030 H   0  0  0  0  0  0  0  0  0  0  0  0
  1  5  1  0
  5  8  1  0
  1  2  1  0
  1  3  1  0
  1  4  1  0
  5  6  1  0
  5  7  1  0
  8  9  1  0
  8 10  1  0
  8 11  1  0
 12 16  1  0
 16 17  2  0
 17 19  1  0
 19 21  2  0
 21 23  1  0
 23 25  2  0
 25 16  1  0
 12 13  1  0
 12 14  1  0
 12 15  1  0
 17 18  1  0
 19 20  1  0
 21 22  1  0
 23 24  1  0
 25 26  1  0
M  CHG  1   8   1
M  END
>  <PDB_ID>  (2419) 
pdb4ofi

>  <RESIDUE_NAME>  (2419) 
LYS   PHE

>  <FRAG_NAME>  (2419) 
ETAM   MBZ

>  <FRAG_ATOM_NUM>  (2419) 
fragi: 11  fragj: 15

>  <atom.prop.CHAIN_ID>  (2419) 
A A A A A A A A A A A Z Z Z Z Z Z Z Z Z Z Z Z Z Z Z

>  <atom.prop.IS_HEAVY_ATOM>  (2419) 
1 0 0 0 1 0 0 1 0 0 0 1 0 0 0 1 1 0 1 0 1 0 1 0 1 0

>  <DIFUSE_FUNC_ATOM>  (2419) 
n/a

>  <FINAL_SINGLE_POINT_ENERGY>  (2419) 
0

>  <NONCOV_INTER_ENERGY_QM>  (2419) 
0

>  <FF_Energy>  (2419) 
-3.53

>  <QM_Energy>  (2419) 
-8.95

>  <source>  (2419) 
ETAM_MBZ

>  <Index>  (2419) 
25537

$$$$
ETAM-pdb3qrv-B-LYS-100:MBZ-pdb3qrv-B-PHE-84
     RDKit          3D

 26 25  0  0  0  0  0  0  0  0999 V2000
   -0.6256    0.8249    3.7574 C   0  0  0  0  0  0  0  0  0  0  0  0
   -0.9518   -0.0723    4.0800 H   0  0  0  0  0  0  0  0  0  0  0  0
   -0.7543    0.8692    2.7601 H   0  0  0  0  0  0  0  0  0  0  0  0
   -1.2282    1.6043    4.2239 H   0  0  0  0  0  0  0  0  0  0  0  0
    0.8378    0.9407    4.0585 C   0  0  0  0  0  0  0  0  0  0  0  0
    1.2411    1.6493    3.5023 H   0  0  0  0  0  0  0  0  0  0  0  0
    0.9713    1.1132    5.0210 H   0  0  0  0  0  0  0  0  0  0  0  0
    1.4724   -0.3708    3.7080 N   0  0  0  0  0  4  0  0  0  0  0  0
    2.1556   -0.5981    4.3993 H   0  0  0  0  0  0  0  0  0  0  0  0
    0.7681   -1.0775    3.6812 H   0  0  0  0  0  0  0  0  0  0  0  0
    1.9084   -0.2940    2.8139 H   0  0  0  0  0  0  0  0  0  0  0  0
    0.0270    2.9339    0.0251 C   0  0  0  0  0  0  0  0  0  0  0  0
    0.9254    3.2325   -0.2770 H   0  0  0  0  0  0  0  0  0  0  0  0
   -0.1424    3.2289    0.9591 H   0  0  0  0  0  0  0  0  0  0  0  0
   -0.7130    3.4168   -0.6129 H   0  0  0  0  0  0  0  0  0  0  0  0
    0.0104    1.4243    0.0069 C   0  0  0  0  0  0  0  0  0  0  0  0
   -1.2101    0.6939    0.0211 C   0  0  0  0  0  0  0  0  0  0  0  0
   -2.0697    1.1845    0.0450 H   0  0  0  0  0  0  0  0  0  0  0  0
   -1.2212   -0.7198    0.0000 C   0  0  0  0  0  0  0  0  0  0  0  0
   -2.0989   -1.1984    0.0109 H   0  0  0  0  0  0  0  0  0  0  0  0
   -0.0219   -1.4086   -0.0327 C   0  0  0  0  0  0  0  0  0  0  0  0
   -0.0047   -2.4039   -0.0799 H   0  0  0  0  0  0  0  0  0  0  0  0
    1.2212   -0.7006   -0.0000 C   0  0  0  0  0  0  0  0  0  0  0  0
    2.0830   -1.2057    0.0205 H   0  0  0  0  0  0  0  0  0  0  0  0
    1.2216    0.7108    0.0046 C   0  0  0  0  0  0  0  0  0  0  0  0
    2.0842    1.2001    0.0057 H   0  0  0  0  0  0  0  0  0  0  0  0
  1  5  1  0
  5  8  1  0
  1  2  1  0
  1  3  1  0
  1  4  1  0
  5  6  1  0
  5  7  1  0
  8  9  1  0
  8 10  1  0
  8 11  1  0
 12 16  1  0
 16 17  2  0
 17 19  1  0
 19 21  2  0
 21 23  1  0
 23 25  2  0
 25 16  1  0
 12 13  1  0
 12 14  1  0
 12 15  1  0
 17 18  1  0
 19 20  1  0
 21 22  1  0
 23 24  1  0
 25 26  1  0
M  CHG  1   8   1
M  END
>  <PDB_ID>  (2420) 
pdb3qrv

>  <RESIDUE_NAME>  (2420) 
LYS   PHE

>  <FRAG_NAME>  (2420) 
ETAM   MBZ

>  <FRAG_ATOM_NUM>  (2420) 
fragi: 11  fragj: 15

>  <atom.prop.CHAIN_ID>  (2420) 
A A A A A A A A A A A Z Z Z Z Z Z Z Z Z Z Z Z Z Z Z

>  <atom.prop.IS_HEAVY_ATOM>  (2420) 
1 0 0 0 1 0 0 1 0 0 0 1 0 0 0 1 1 0 1 0 1 0 1 0 1 0

>  <DIFUSE_FUNC_ATOM>  (2420) 
n/a

>  <FINAL_SINGLE_POINT_ENERGY>  (2420) 
0

>  <NONCOV_INTER_ENERGY_QM>  (2420) 
0

>  <FF_Energy>  (2420) 
-6.39

>  <QM_Energy>  (2420) 
-12.17

>  <source>  (2420) 
ETAM_MBZ

>  <Index>  (2420) 
25555

$$$$
ETAM-pdb3qup-A-LYS-536:MBZ-pdb3qup-A-PHE-595
     RDKit          3D

 26 25  0  0  0  0  0  0  0  0999 V2000
    1.2085    1.2782   -3.3098 C   0  0  0  0  0  0  0  0  0  0  0  0
    1.6825    1.6642   -2.5156 H   0  0  0  0  0  0  0  0  0  0  0  0
    0.3834    0.8017   -2.9992 H   0  0  0  0  0  0  0  0  0  0  0  0
    0.9195    2.0897   -3.9777 H   0  0  0  0  0  0  0  0  0  0  0  0
    2.1203    0.2747   -3.9730 C   0  0  0  0  0  0  0  0  0  0  0  0
    1.7962    0.0952   -4.8984 H   0  0  0  0  0  0  0  0  0  0  0  0
    3.0480    0.6403   -4.0035 H   0  0  0  0  0  0  0  0  0  0  0  0
    2.1240   -0.9995   -3.2018 N   0  0  0  0  0  4  0  0  0  0  0  0
    2.0965   -0.7943   -2.2240 H   0  0  0  0  0  0  0  0  0  0  0  0
    1.3220   -1.5410   -3.4536 H   0  0  0  0  0  0  0  0  0  0  0  0
    2.9548   -1.5120   -3.4138 H   0  0  0  0  0  0  0  0  0  0  0  0
   -0.0023    2.9242    0.0150 C   0  0  0  0  0  0  0  0  0  0  0  0
   -0.6491    3.2365   -0.6576 H   0  0  0  0  0  0  0  0  0  0  0  0
    0.9124    3.2305   -0.1776 H   0  0  0  0  0  0  0  0  0  0  0  0
   -0.2967    3.3427    0.9775 H   0  0  0  0  0  0  0  0  0  0  0  0
   -0.0021    1.4096   -0.0030 C   0  0  0  0  0  0  0  0  0  0  0  0
   -1.2000    0.6957   -0.0031 C   0  0  0  0  0  0  0  0  0  0  0  0
   -2.0677    1.1831   -0.0065 H   0  0  0  0  0  0  0  0  0  0  0  0
   -1.2041   -0.7007   -0.0000 C   0  0  0  0  0  0  0  0  0  0  0  0
   -2.0764   -1.1963    0.0025 H   0  0  0  0  0  0  0  0  0  0  0  0
    0.0082   -1.4030    0.0016 C   0  0  0  0  0  0  0  0  0  0  0  0
    0.0009   -2.3973    0.0036 H   0  0  0  0  0  0  0  0  0  0  0  0
    1.2041   -0.7002   -0.0000 C   0  0  0  0  0  0  0  0  0  0  0  0
    2.0891   -1.1891   -0.0030 H   0  0  0  0  0  0  0  0  0  0  0  0
    1.1939    0.6986    0.0045 C   0  0  0  0  0  0  0  0  0  0  0  0
    2.0637    1.1929    0.0126 H   0  0  0  0  0  0  0  0  0  0  0  0
  1  5  1  0
  5  8  1  0
  1  2  1  0
  1  3  1  0
  1  4  1  0
  5  6  1  0
  5  7  1  0
  8  9  1  0
  8 10  1  0
  8 11  1  0
 12 16  1  0
 16 17  2  0
 17 19  1  0
 19 21  2  0
 21 23  1  0
 23 25  2  0
 25 16  1  0
 12 13  1  0
 12 14  1  0
 12 15  1  0
 17 18  1  0
 19 20  1  0
 21 22  1  0
 23 24  1  0
 25 26  1  0
M  CHG  1   8   1
M  END
>  <PDB_ID>  (2421) 
pdb3qup

>  <RESIDUE_NAME>  (2421) 
LYS   PHE

>  <FRAG_NAME>  (2421) 
ETAM   MBZ

>  <FRAG_ATOM_NUM>  (2421) 
fragi: 11  fragj: 15

>  <atom.prop.CHAIN_ID>  (2421) 
A A A A A A A A A A A Z Z Z Z Z Z Z Z Z Z Z Z Z Z Z

>  <atom.prop.IS_HEAVY_ATOM>  (2421) 
1 0 0 0 1 0 0 1 0 0 0 1 0 0 0 1 1 0 1 0 1 0 1 0 1 0

>  <DIFUSE_FUNC_ATOM>  (2421) 
n/a

>  <FINAL_SINGLE_POINT_ENERGY>  (2421) 
0

>  <NONCOV_INTER_ENERGY_QM>  (2421) 
0

>  <FF_Energy>  (2421) 
-5.1

>  <QM_Energy>  (2421) 
-11.72

>  <source>  (2421) 
ETAM_MBZ

>  <Index>  (2421) 
25559

$$$$
ETAM-pdb3qv9-A-LYS-124:MBZ-pdb3qv9-A-PHE-116
     RDKit          3D

 26 25  0  0  0  0  0  0  0  0999 V2000
   -1.7216   -0.5503    4.0264 C   0  0  0  0  0  0  0  0  0  0  0  0
   -1.9289   -1.1258    4.8007 H   0  0  0  0  0  0  0  0  0  0  0  0
   -2.1782   -0.8579    3.2088 H   0  0  0  0  0  0  0  0  0  0  0  0
   -2.0984    0.4470    4.2539 H   0  0  0  0  0  0  0  0  0  0  0  0
   -0.2305   -0.5122    3.7984 C   0  0  0  0  0  0  0  0  0  0  0  0
   -0.0379    0.0302    2.9662 H   0  0  0  0  0  0  0  0  0  0  0  0
    0.2107   -0.0414    4.5778 H   0  0  0  0  0  0  0  0  0  0  0  0
    0.3801   -1.8595    3.6448 N   0  0  0  0  0  4  0  0  0  0  0  0
    1.2715   -1.7717    3.2000 H   0  0  0  0  0  0  0  0  0  0  0  0
    0.4961   -2.2763    4.5463 H   0  0  0  0  0  0  0  0  0  0  0  0
   -0.2176   -2.4328    3.0851 H   0  0  0  0  0  0  0  0  0  0  0  0
    0.0005    2.9082   -0.0503 C   0  0  0  0  0  0  0  0  0  0  0  0
    0.7364    3.2371    0.5136 H   0  0  0  0  0  0  0  0  0  0  0  0
   -0.8763    3.2323    0.2553 H   0  0  0  0  0  0  0  0  0  0  0  0
    0.1606    3.2867   -1.0599 H   0  0  0  0  0  0  0  0  0  0  0  0
   -0.0042    1.4100    0.0085 C   0  0  0  0  0  0  0  0  0  0  0  0
   -1.1972    0.7063   -0.0038 C   0  0  0  0  0  0  0  0  0  0  0  0
   -2.0654    1.1946   -0.0174 H   0  0  0  0  0  0  0  0  0  0  0  0
   -1.2052   -0.6885   -0.0000 C   0  0  0  0  0  0  0  0  0  0  0  0
   -2.0816   -1.1809    0.0074 H   0  0  0  0  0  0  0  0  0  0  0  0
    0.0020   -1.4021   -0.0051 C   0  0  0  0  0  0  0  0  0  0  0  0
   -0.0188   -2.3985   -0.0124 H   0  0  0  0  0  0  0  0  0  0  0  0
    1.2052   -0.7173   -0.0000 C   0  0  0  0  0  0  0  0  0  0  0  0
    2.0845   -1.2059    0.0051 H   0  0  0  0  0  0  0  0  0  0  0  0
    1.1994    0.6916    0.0004 C   0  0  0  0  0  0  0  0  0  0  0  0
    2.0673    1.1826   -0.0062 H   0  0  0  0  0  0  0  0  0  0  0  0
  1  5  1  0
  5  8  1  0
  1  2  1  0
  1  3  1  0
  1  4  1  0
  5  6  1  0
  5  7  1  0
  8  9  1  0
  8 10  1  0
  8 11  1  0
 12 16  1  0
 16 17  2  0
 17 19  1  0
 19 21  2  0
 21 23  1  0
 23 25  2  0
 25 16  1  0
 12 13  1  0
 12 14  1  0
 12 15  1  0
 17 18  1  0
 19 20  1  0
 21 22  1  0
 23 24  1  0
 25 26  1  0
M  CHG  1   8   1
M  END
>  <PDB_ID>  (2422) 
pdb3qv9

>  <RESIDUE_NAME>  (2422) 
LYS   PHE

>  <FRAG_NAME>  (2422) 
ETAM   MBZ

>  <FRAG_ATOM_NUM>  (2422) 
fragi: 11  fragj: 15

>  <atom.prop.CHAIN_ID>  (2422) 
A A A A A A A A A A A Z Z Z Z Z Z Z Z Z Z Z Z Z Z Z

>  <atom.prop.IS_HEAVY_ATOM>  (2422) 
1 0 0 0 1 0 0 1 0 0 0 1 0 0 0 1 1 0 1 0 1 0 1 0 1 0

>  <DIFUSE_FUNC_ATOM>  (2422) 
n/a

>  <FINAL_SINGLE_POINT_ENERGY>  (2422) 
0

>  <NONCOV_INTER_ENERGY_QM>  (2422) 
0

>  <FF_Energy>  (2422) 
-5.76

>  <QM_Energy>  (2422) 
-11.57

>  <source>  (2422) 
ETAM_MBZ

>  <Index>  (2422) 
25566

$$$$
ETAM-pdb3qj7-A-LYS-48:MBZ-pdb3qj7-A-PHE-171
     RDKit          3D

 26 25  0  0  0  0  0  0  0  0999 V2000
   -2.3396   -2.5987    3.6299 C   0  0  0  0  0  0  0  0  0  0  0  0
   -1.6732   -3.2461    3.2893 H   0  0  0  0  0  0  0  0  0  0  0  0
   -2.7970   -2.1307    2.8878 H   0  0  0  0  0  0  0  0  0  0  0  0
   -3.0794   -3.1293    4.2294 H   0  0  0  0  0  0  0  0  0  0  0  0
   -1.6111   -1.5572    4.4819 C   0  0  0  0  0  0  0  0  0  0  0  0
   -2.2984   -0.9468    4.8988 H   0  0  0  0  0  0  0  0  0  0  0  0
   -1.1261   -2.0349    5.2271 H   0  0  0  0  0  0  0  0  0  0  0  0
   -0.6380   -0.7417    3.7089 N   0  0  0  0  0  4  0  0  0  0  0  0
   -0.4567   -1.1843    2.8312 H   0  0  0  0  0  0  0  0  0  0  0  0
   -1.0182    0.1698    3.5515 H   0  0  0  0  0  0  0  0  0  0  0  0
    0.2142   -0.6633    4.2255 H   0  0  0  0  0  0  0  0  0  0  0  0
   -0.0013    2.8858    0.0215 C   0  0  0  0  0  0  0  0  0  0  0  0
   -0.6719    3.2055   -0.6302 H   0  0  0  0  0  0  0  0  0  0  0  0
    0.9065    3.2014   -0.2084 H   0  0  0  0  0  0  0  0  0  0  0  0
   -0.2606    3.2979    0.9967 H   0  0  0  0  0  0  0  0  0  0  0  0
    0.0012    1.3966   -0.0021 C   0  0  0  0  0  0  0  0  0  0  0  0
   -1.1984    0.6879    0.0054 C   0  0  0  0  0  0  0  0  0  0  0  0
   -2.0629    1.1804    0.0137 H   0  0  0  0  0  0  0  0  0  0  0  0
   -1.1983   -0.6953    0.0000 C   0  0  0  0  0  0  0  0  0  0  0  0
   -2.0746   -1.1940   -0.0002 H   0  0  0  0  0  0  0  0  0  0  0  0
    0.0020   -1.3884   -0.0034 C   0  0  0  0  0  0  0  0  0  0  0  0
   -0.0028   -2.3898   -0.0090 H   0  0  0  0  0  0  0  0  0  0  0  0
    1.1983   -0.6952    0.0000 C   0  0  0  0  0  0  0  0  0  0  0  0
    2.0818   -1.1922    0.0039 H   0  0  0  0  0  0  0  0  0  0  0  0
    1.1952    0.6943    0.0001 C   0  0  0  0  0  0  0  0  0  0  0  0
    2.0636    1.1894    0.0013 H   0  0  0  0  0  0  0  0  0  0  0  0
  1  5  1  0
  5  8  1  0
  1  2  1  0
  1  3  1  0
  1  4  1  0
  5  6  1  0
  5  7  1  0
  8  9  1  0
  8 10  1  0
  8 11  1  0
 12 16  1  0
 16 17  2  0
 17 19  1  0
 19 21  2  0
 21 23  1  0
 23 25  2  0
 25 16  1  0
 12 13  1  0
 12 14  1  0
 12 15  1  0
 17 18  1  0
 19 20  1  0
 21 22  1  0
 23 24  1  0
 25 26  1  0
M  CHG  1   8   1
M  END
>  <PDB_ID>  (2423) 
pdb3qj7

>  <RESIDUE_NAME>  (2423) 
LYS   PHE

>  <FRAG_NAME>  (2423) 
ETAM   MBZ

>  <FRAG_ATOM_NUM>  (2423) 
fragi: 11  fragj: 15

>  <atom.prop.CHAIN_ID>  (2423) 
A A A A A A A A A A A Z Z Z Z Z Z Z Z Z Z Z Z Z Z Z

>  <atom.prop.IS_HEAVY_ATOM>  (2423) 
1 0 0 0 1 0 0 1 0 0 0 1 0 0 0 1 1 0 1 0 1 0 1 0 1 0

>  <DIFUSE_FUNC_ATOM>  (2423) 
n/a

>  <FINAL_SINGLE_POINT_ENERGY>  (2423) 
0

>  <NONCOV_INTER_ENERGY_QM>  (2423) 
0

>  <FF_Energy>  (2423) 
-6.34

>  <QM_Energy>  (2423) 
-11.87

>  <source>  (2423) 
ETAM_MBZ

>  <Index>  (2423) 
25573

$$$$
ETAM-pdb3qkw-A-LYS-137:MBZ-pdb3qkw-A-PHE-141
     RDKit          3D

 26 25  0  0  0  0  0  0  0  0999 V2000
    3.1194   -3.2401   -2.1982 C   0  0  0  0  0  0  0  0  0  0  0  0
    2.7393   -2.7618   -2.9842 H   0  0  0  0  0  0  0  0  0  0  0  0
    3.6989   -3.9915   -2.4999 H   0  0  0  0  0  0  0  0  0  0  0  0
    3.7219   -2.5411   -1.6180 H   0  0  0  0  0  0  0  0  0  0  0  0
    1.9582   -3.8247   -1.3823 C   0  0  0  0  0  0  0  0  0  0  0  0
    1.3853   -3.0642   -1.0509 H   0  0  0  0  0  0  0  0  0  0  0  0
    1.3950   -4.3988   -1.9919 H   0  0  0  0  0  0  0  0  0  0  0  0
    2.4034   -4.6453   -0.2138 N   0  0  0  0  0  4  0  0  0  0  0  0
    3.3716   -4.8647   -0.3174 H   0  0  0  0  0  0  0  0  0  0  0  0
    2.2637   -4.1236    0.6257 H   0  0  0  0  0  0  0  0  0  0  0  0
    1.8674   -5.4875   -0.1814 H   0  0  0  0  0  0  0  0  0  0  0  0
   -0.0034    2.8943   -0.0188 C   0  0  0  0  0  0  0  0  0  0  0  0
    0.9329    3.2043    0.0248 H   0  0  0  0  0  0  0  0  0  0  0  0
   -0.5281    3.2102    0.7559 H   0  0  0  0  0  0  0  0  0  0  0  0
   -0.4519    3.3158   -0.9183 H   0  0  0  0  0  0  0  0  0  0  0  0
    0.0006    1.3930    0.0001 C   0  0  0  0  0  0  0  0  0  0  0  0
   -1.1918    0.6842    0.0019 C   0  0  0  0  0  0  0  0  0  0  0  0
   -2.0599    1.1764    0.0035 H   0  0  0  0  0  0  0  0  0  0  0  0
   -1.1936   -0.6968    0.0000 C   0  0  0  0  0  0  0  0  0  0  0  0
   -2.0722   -1.1933    0.0000 H   0  0  0  0  0  0  0  0  0  0  0  0
   -0.0003   -1.3835    0.0007 C   0  0  0  0  0  0  0  0  0  0  0  0
    0.0003   -2.3856    0.0011 H   0  0  0  0  0  0  0  0  0  0  0  0
    1.1936   -0.6881   -0.0000 C   0  0  0  0  0  0  0  0  0  0  0  0
    2.0778   -1.1905    0.0028 H   0  0  0  0  0  0  0  0  0  0  0  0
    1.1915    0.6911   -0.0028 C   0  0  0  0  0  0  0  0  0  0  0  0
    2.0604    1.1901   -0.0076 H   0  0  0  0  0  0  0  0  0  0  0  0
  1  5  1  0
  5  8  1  0
  1  2  1  0
  1  3  1  0
  1  4  1  0
  5  6  1  0
  5  7  1  0
  8  9  1  0
  8 10  1  0
  8 11  1  0
 12 16  1  0
 16 17  2  0
 17 19  1  0
 19 21  2  0
 21 23  1  0
 23 25  2  0
 25 16  1  0
 12 13  1  0
 12 14  1  0
 12 15  1  0
 17 18  1  0
 19 20  1  0
 21 22  1  0
 23 24  1  0
 25 26  1  0
M  CHG  1   8   1
M  END
>  <PDB_ID>  (2424) 
pdb3qkw

>  <RESIDUE_NAME>  (2424) 
LYS   PHE

>  <FRAG_NAME>  (2424) 
ETAM   MBZ

>  <FRAG_ATOM_NUM>  (2424) 
fragi: 11  fragj: 15

>  <atom.prop.CHAIN_ID>  (2424) 
A A A A A A A A A A A Z Z Z Z Z Z Z Z Z Z Z Z Z Z Z

>  <atom.prop.IS_HEAVY_ATOM>  (2424) 
1 0 0 0 1 0 0 1 0 0 0 1 0 0 0 1 1 0 1 0 1 0 1 0 1 0

>  <DIFUSE_FUNC_ATOM>  (2424) 
n/a

>  <FINAL_SINGLE_POINT_ENERGY>  (2424) 
0

>  <NONCOV_INTER_ENERGY_QM>  (2424) 
0

>  <FF_Energy>  (2424) 
4.77

>  <QM_Energy>  (2424) 
-3.02

>  <source>  (2424) 
ETAM_MBZ

>  <Index>  (2424) 
25579

$$$$
ETAM-pdb3qv2-A-LYS-264:MBZ-pdb3qv2-A-PHE-252
     RDKit          3D

 26 25  0  0  0  0  0  0  0  0999 V2000
   -5.0192   -1.8754    1.2703 C   0  0  0  0  0  0  0  0  0  0  0  0
   -4.8165   -2.6477    1.8658 H   0  0  0  0  0  0  0  0  0  0  0  0
   -4.5916   -2.0057    0.3810 H   0  0  0  0  0  0  0  0  0  0  0  0
   -6.0989   -1.8086    1.1363 H   0  0  0  0  0  0  0  0  0  0  0  0
   -4.4510   -0.6134    1.9017 C   0  0  0  0  0  0  0  0  0  0  0  0
   -4.4285    0.1145    1.2104 H   0  0  0  0  0  0  0  0  0  0  0  0
   -5.0517   -0.3267    2.6531 H   0  0  0  0  0  0  0  0  0  0  0  0
   -3.0745   -0.8255    2.4317 N   0  0  0  0  0  4  0  0  0  0  0  0
   -3.0226   -1.7243    2.8656 H   0  0  0  0  0  0  0  0  0  0  0  0
   -2.4188   -0.7776    1.6788 H   0  0  0  0  0  0  0  0  0  0  0  0
   -2.8658   -0.1162    3.1035 H   0  0  0  0  0  0  0  0  0  0  0  0
    0.0032    2.9001   -0.0022 C   0  0  0  0  0  0  0  0  0  0  0  0
   -0.7374    3.2050   -0.5808 H   0  0  0  0  0  0  0  0  0  0  0  0
    0.8783    3.2023   -0.3471 H   0  0  0  0  0  0  0  0  0  0  0  0
   -0.1383    3.3413    0.9844 H   0  0  0  0  0  0  0  0  0  0  0  0
    0.0002    1.3951    0.0004 C   0  0  0  0  0  0  0  0  0  0  0  0
   -1.1908    0.6888   -0.0006 C   0  0  0  0  0  0  0  0  0  0  0  0
   -2.0594    1.1812   -0.0028 H   0  0  0  0  0  0  0  0  0  0  0  0
   -1.1946   -0.6928    0.0000 C   0  0  0  0  0  0  0  0  0  0  0  0
   -2.0737   -1.1889    0.0013 H   0  0  0  0  0  0  0  0  0  0  0  0
   -0.0006   -1.3854    0.0008 C   0  0  0  0  0  0  0  0  0  0  0  0
   -0.0045   -2.3875    0.0012 H   0  0  0  0  0  0  0  0  0  0  0  0
    1.1946   -0.6941    0.0000 C   0  0  0  0  0  0  0  0  0  0  0  0
    2.0775   -1.1942    0.0009 H   0  0  0  0  0  0  0  0  0  0  0  0
    1.1912    0.6884   -0.0006 C   0  0  0  0  0  0  0  0  0  0  0  0
    2.0613    1.1866   -0.0022 H   0  0  0  0  0  0  0  0  0  0  0  0
  1  5  1  0
  5  8  1  0
  1  2  1  0
  1  3  1  0
  1  4  1  0
  5  6  1  0
  5  7  1  0
  8  9  1  0
  8 10  1  0
  8 11  1  0
 12 16  1  0
 16 17  2  0
 17 19  1  0
 19 21  2  0
 21 23  1  0
 23 25  2  0
 25 16  1  0
 12 13  1  0
 12 14  1  0
 12 15  1  0
 17 18  1  0
 19 20  1  0
 21 22  1  0
 23 24  1  0
 25 26  1  0
M  CHG  1   8   1
M  END
>  <PDB_ID>  (2425) 
pdb3qv2

>  <RESIDUE_NAME>  (2425) 
LYS   PHE

>  <FRAG_NAME>  (2425) 
ETAM   MBZ

>  <FRAG_ATOM_NUM>  (2425) 
fragi: 11  fragj: 15

>  <atom.prop.CHAIN_ID>  (2425) 
A A A A A A A A A A A Z Z Z Z Z Z Z Z Z Z Z Z Z Z Z

>  <atom.prop.IS_HEAVY_ATOM>  (2425) 
1 0 0 0 1 0 0 1 0 0 0 1 0 0 0 1 1 0 1 0 1 0 1 0 1 0

>  <DIFUSE_FUNC_ATOM>  (2425) 
n/a

>  <FINAL_SINGLE_POINT_ENERGY>  (2425) 
0

>  <NONCOV_INTER_ENERGY_QM>  (2425) 
0

>  <FF_Energy>  (2425) 
-1.77

>  <QM_Energy>  (2425) 
-9.35

>  <source>  (2425) 
ETAM_MBZ

>  <Index>  (2425) 
25600

$$$$
ETAM-pdb4oou-B-LYS-235:MBZ-pdb4oou-B-PHE-22
     RDKit          3D

 26 25  0  0  0  0  0  0  0  0999 V2000
   -0.2946    1.3930   -4.4175 C   0  0  0  0  0  0  0  0  0  0  0  0
    0.2223    1.3455   -5.2570 H   0  0  0  0  0  0  0  0  0  0  0  0
   -0.0495    2.1864   -3.8841 H   0  0  0  0  0  0  0  0  0  0  0  0
   -1.3594    1.4241   -4.6482 H   0  0  0  0  0  0  0  0  0  0  0  0
    0.0112    0.1452   -3.5932 C   0  0  0  0  0  0  0  0  0  0  0  0
   -0.2875    0.3137   -2.6374 H   0  0  0  0  0  0  0  0  0  0  0  0
   -0.5546   -0.6188   -3.9503 H   0  0  0  0  0  0  0  0  0  0  0  0
    1.4297   -0.2536   -3.5984 N   0  0  0  0  0  4  0  0  0  0  0  0
    1.7475   -0.3888   -2.6577 H   0  0  0  0  0  0  0  0  0  0  0  0
    1.5392   -1.1088   -4.1092 H   0  0  0  0  0  0  0  0  0  0  0  0
    1.9816    0.4616   -4.0320 H   0  0  0  0  0  0  0  0  0  0  0  0
   -0.0085    2.9048    0.0369 C   0  0  0  0  0  0  0  0  0  0  0  0
   -0.7803    3.2179   -0.4922 H   0  0  0  0  0  0  0  0  0  0  0  0
    0.8450    3.2244   -0.3412 H   0  0  0  0  0  0  0  0  0  0  0  0
   -0.1030    3.3137    1.0428 H   0  0  0  0  0  0  0  0  0  0  0  0
    0.0006    1.4035    0.0032 C   0  0  0  0  0  0  0  0  0  0  0  0
   -1.2090    0.6795    0.0069 C   0  0  0  0  0  0  0  0  0  0  0  0
   -2.0712    1.1722    0.0136 H   0  0  0  0  0  0  0  0  0  0  0  0
   -1.2115   -0.7151    0.0000 C   0  0  0  0  0  0  0  0  0  0  0  0
   -2.0773   -1.2124    0.0003 H   0  0  0  0  0  0  0  0  0  0  0  0
    0.0039   -1.3897   -0.0055 C   0  0  0  0  0  0  0  0  0  0  0  0
    0.0171   -2.3913   -0.0136 H   0  0  0  0  0  0  0  0  0  0  0  0
    1.2115   -0.6804    0.0000 C   0  0  0  0  0  0  0  0  0  0  0  0
    2.0904   -1.1836    0.0091 H   0  0  0  0  0  0  0  0  0  0  0  0
    1.2045    0.7022   -0.0046 C   0  0  0  0  0  0  0  0  0  0  0  0
    2.0669    1.2067   -0.0140 H   0  0  0  0  0  0  0  0  0  0  0  0
  1  5  1  0
  5  8  1  0
  1  2  1  0
  1  3  1  0
  1  4  1  0
  5  6  1  0
  5  7  1  0
  8  9  1  0
  8 10  1  0
  8 11  1  0
 12 16  1  0
 16 17  2  0
 17 19  1  0
 19 21  2  0
 21 23  1  0
 23 25  2  0
 25 16  1  0
 12 13  1  0
 12 14  1  0
 12 15  1  0
 17 18  1  0
 19 20  1  0
 21 22  1  0
 23 24  1  0
 25 26  1  0
M  CHG  1   8   1
M  END
>  <PDB_ID>  (2426) 
pdb4oou

>  <RESIDUE_NAME>  (2426) 
LYS   PHE

>  <FRAG_NAME>  (2426) 
ETAM   MBZ

>  <FRAG_ATOM_NUM>  (2426) 
fragi: 11  fragj: 15

>  <atom.prop.CHAIN_ID>  (2426) 
A A A A A A A A A A A Z Z Z Z Z Z Z Z Z Z Z Z Z Z Z

>  <atom.prop.IS_HEAVY_ATOM>  (2426) 
1 0 0 0 1 0 0 1 0 0 0 1 0 0 0 1 1 0 1 0 1 0 1 0 1 0

>  <DIFUSE_FUNC_ATOM>  (2426) 
n/a

>  <FINAL_SINGLE_POINT_ENERGY>  (2426) 
0

>  <NONCOV_INTER_ENERGY_QM>  (2426) 
0

>  <FF_Energy>  (2426) 
-6.91

>  <QM_Energy>  (2426) 
-13.66

>  <source>  (2426) 
ETAM_MBZ

>  <Index>  (2426) 
25601

$$$$
ETAM-pdb4oov-B-LYS-490:MBZ-pdb4oov-B-PHE-426
     RDKit          3D

 26 25  0  0  0  0  0  0  0  0999 V2000
    0.3170    1.5927    5.6219 C   0  0  0  0  0  0  0  0  0  0  0  0
   -0.2765    2.2039    5.1582 H   0  0  0  0  0  0  0  0  0  0  0  0
    1.2308    1.9178    5.5853 H   0  0  0  0  0  0  0  0  0  0  0  0
    0.0063    1.5063    6.6631 H   0  0  0  0  0  0  0  0  0  0  0  0
    0.2609    0.2594    4.9274 C   0  0  0  0  0  0  0  0  0  0  0  0
    1.0015   -0.2935    5.2213 H   0  0  0  0  0  0  0  0  0  0  0  0
   -0.5865   -0.1723    5.1193 H   0  0  0  0  0  0  0  0  0  0  0  0
    0.3720    0.4617    3.4520 N   0  0  0  0  0  4  0  0  0  0  0  0
    0.3391   -0.3235    3.0348 H   0  0  0  0  0  0  0  0  0  0  0  0
   -0.2986    0.9712    3.1637 H   0  0  0  0  0  0  0  0  0  0  0  0
    1.1425    0.8603    3.2572 H   0  0  0  0  0  0  0  0  0  0  0  0
   -0.0094    2.9093    0.0276 C   0  0  0  0  0  0  0  0  0  0  0  0
    0.8145    3.2012    0.4483 H   0  0  0  0  0  0  0  0  0  0  0  0
   -0.7668    3.1856    0.5663 H   0  0  0  0  0  0  0  0  0  0  0  0
   -0.0873    3.3821   -0.9515 H   0  0  0  0  0  0  0  0  0  0  0  0
    0.0031    1.3955   -0.0024 C   0  0  0  0  0  0  0  0  0  0  0  0
   -1.1789    0.6789    0.0021 C   0  0  0  0  0  0  0  0  0  0  0  0
   -1.9881    1.1374    0.0055 H   0  0  0  0  0  0  0  0  0  0  0  0
   -1.1846   -0.6810   -0.0000 C   0  0  0  0  0  0  0  0  0  0  0  0
   -1.9942   -1.1382   -0.0065 H   0  0  0  0  0  0  0  0  0  0  0  0
   -0.0110   -1.3815   -0.0068 C   0  0  0  0  0  0  0  0  0  0  0  0
   -0.0212   -2.3122   -0.0124 H   0  0  0  0  0  0  0  0  0  0  0  0
    1.1846   -0.7036   -0.0000 C   0  0  0  0  0  0  0  0  0  0  0  0
    1.9883   -1.1722   -0.0027 H   0  0  0  0  0  0  0  0  0  0  0  0
    1.1869    0.6918    0.0071 C   0  0  0  0  0  0  0  0  0  0  0  0
    1.9960    1.1512    0.0107 H   0  0  0  0  0  0  0  0  0  0  0  0
  1  5  1  0
  5  8  1  0
  1  2  1  0
  1  3  1  0
  1  4  1  0
  5  6  1  0
  5  7  1  0
  8  9  1  0
  8 10  1  0
  8 11  1  0
 12 16  1  0
 16 17  2  0
 17 19  1  0
 19 21  2  0
 21 23  1  0
 23 25  2  0
 25 16  1  0
 12 13  1  0
 12 14  1  0
 12 15  1  0
 17 18  1  0
 19 20  1  0
 21 22  1  0
 23 24  1  0
 25 26  1  0
M  CHG  1   8   1
M  END
>  <PDB_ID>  (2427) 
pdb4oov

>  <RESIDUE_NAME>  (2427) 
LYS   PHE

>  <FRAG_NAME>  (2427) 
ETAM   MBZ

>  <FRAG_ATOM_NUM>  (2427) 
fragi: 11  fragj: 15

>  <atom.prop.CHAIN_ID>  (2427) 
A A A A A A A A A A A Z Z Z Z Z Z Z Z Z Z Z Z Z Z Z

>  <atom.prop.IS_HEAVY_ATOM>  (2427) 
1 0 0 0 1 0 0 1 0 0 0 1 0 0 0 1 1 0 1 0 1 0 1 0 1 0

>  <DIFUSE_FUNC_ATOM>  (2427) 
n/a

>  <FINAL_SINGLE_POINT_ENERGY>  (2427) 
0

>  <NONCOV_INTER_ENERGY_QM>  (2427) 
0

>  <FF_Energy>  (2427) 
-7.28

>  <QM_Energy>  (2427) 
-12.75

>  <source>  (2427) 
ETAM_MBZ

>  <Index>  (2427) 
25605

$$$$
ETAM-pdb4ov4-A-LYS-367:MBZ-pdb4ov4-A-PHE-363
     RDKit          3D

 26 25  0  0  0  0  0  0  0  0999 V2000
   -0.5783   -0.6280    3.8134 C   0  0  0  0  0  0  0  0  0  0  0  0
   -0.7056   -0.4400    2.8409 H   0  0  0  0  0  0  0  0  0  0  0  0
   -0.1416    0.1537    4.2550 H   0  0  0  0  0  0  0  0  0  0  0  0
   -1.5543   -0.7919    4.2704 H   0  0  0  0  0  0  0  0  0  0  0  0
    0.3409   -1.8366    3.9548 C   0  0  0  0  0  0  0  0  0  0  0  0
    0.5840   -1.9475    4.9143 H   0  0  0  0  0  0  0  0  0  0  0  0
   -0.1370   -2.6469    3.6272 H   0  0  0  0  0  0  0  0  0  0  0  0
    1.5796   -1.6350    3.1514 N   0  0  0  0  0  4  0  0  0  0  0  0
    1.3921   -0.9922    2.4098 H   0  0  0  0  0  0  0  0  0  0  0  0
    2.2995   -1.2680    3.7395 H   0  0  0  0  0  0  0  0  0  0  0  0
    1.8722   -2.5107    2.7699 H   0  0  0  0  0  0  0  0  0  0  0  0
    0.0140    2.9085   -0.0093 C   0  0  0  0  0  0  0  0  0  0  0  0
   -0.2113    3.2074   -0.9256 H   0  0  0  0  0  0  0  0  0  0  0  0
    0.9206    3.2095    0.2506 H   0  0  0  0  0  0  0  0  0  0  0  0
   -0.6970    3.3723    0.6743 H   0  0  0  0  0  0  0  0  0  0  0  0
    0.0006    1.4014    0.0057 C   0  0  0  0  0  0  0  0  0  0  0  0
   -1.1989    0.6899   -0.0058 C   0  0  0  0  0  0  0  0  0  0  0  0
   -2.0639    1.1818   -0.0198 H   0  0  0  0  0  0  0  0  0  0  0  0
   -1.2015   -0.6978   -0.0000 C   0  0  0  0  0  0  0  0  0  0  0  0
   -2.0766   -1.1946    0.0043 H   0  0  0  0  0  0  0  0  0  0  0  0
    0.0013   -1.3901    0.0021 C   0  0  0  0  0  0  0  0  0  0  0  0
   -0.0016   -2.3907    0.0047 H   0  0  0  0  0  0  0  0  0  0  0  0
    1.2015   -0.6956    0.0000 C   0  0  0  0  0  0  0  0  0  0  0  0
    2.0824   -1.1946    0.0011 H   0  0  0  0  0  0  0  0  0  0  0  0
    1.1971    0.6922   -0.0020 C   0  0  0  0  0  0  0  0  0  0  0  0
    2.0654    1.1904   -0.0096 H   0  0  0  0  0  0  0  0  0  0  0  0
  1  5  1  0
  5  8  1  0
  1  2  1  0
  1  3  1  0
  1  4  1  0
  5  6  1  0
  5  7  1  0
  8  9  1  0
  8 10  1  0
  8 11  1  0
 12 16  1  0
 16 17  2  0
 17 19  1  0
 19 21  2  0
 21 23  1  0
 23 25  2  0
 25 16  1  0
 12 13  1  0
 12 14  1  0
 12 15  1  0
 17 18  1  0
 19 20  1  0
 21 22  1  0
 23 24  1  0
 25 26  1  0
M  CHG  1   8   1
M  END
>  <PDB_ID>  (2428) 
pdb4ov4

>  <RESIDUE_NAME>  (2428) 
LYS   PHE

>  <FRAG_NAME>  (2428) 
ETAM   MBZ

>  <FRAG_ATOM_NUM>  (2428) 
fragi: 11  fragj: 15

>  <atom.prop.CHAIN_ID>  (2428) 
A A A A A A A A A A A Z Z Z Z Z Z Z Z Z Z Z Z Z Z Z

>  <atom.prop.IS_HEAVY_ATOM>  (2428) 
1 0 0 0 1 0 0 1 0 0 0 1 0 0 0 1 1 0 1 0 1 0 1 0 1 0

>  <DIFUSE_FUNC_ATOM>  (2428) 
n/a

>  <FINAL_SINGLE_POINT_ENERGY>  (2428) 
0

>  <NONCOV_INTER_ENERGY_QM>  (2428) 
0

>  <FF_Energy>  (2428) 
-5.83

>  <QM_Energy>  (2428) 
-13.47

>  <source>  (2428) 
ETAM_MBZ

>  <Index>  (2428) 
25607

$$$$
ETAM-pdb4oun-A-LYS-68:MBZ-pdb4oun-A-PHE-59
     RDKit          3D

 26 25  0  0  0  0  0  0  0  0999 V2000
    0.5425    0.0382    3.8945 C   0  0  0  0  0  0  0  0  0  0  0  0
    0.3817    0.9037    3.4606 H   0  0  0  0  0  0  0  0  0  0  0  0
    1.4085   -0.3526    3.6502 H   0  0  0  0  0  0  0  0  0  0  0  0
    0.4884    0.1585    4.9765 H   0  0  0  0  0  0  0  0  0  0  0  0
   -0.5578   -0.9232    3.4844 C   0  0  0  0  0  0  0  0  0  0  0  0
   -0.6489   -0.9125    2.4969 H   0  0  0  0  0  0  0  0  0  0  0  0
   -0.3322   -1.8340    3.8065 H   0  0  0  0  0  0  0  0  0  0  0  0
   -1.8349   -0.4826    4.1034 N   0  0  0  0  0  4  0  0  0  0  0  0
   -1.8139   -0.6768    5.0841 H   0  0  0  0  0  0  0  0  0  0  0  0
   -1.9523    0.5000    3.9602 H   0  0  0  0  0  0  0  0  0  0  0  0
   -2.5963   -0.9749    3.6818 H   0  0  0  0  0  0  0  0  0  0  0  0
   -0.0034    2.8948   -0.0337 C   0  0  0  0  0  0  0  0  0  0  0  0
    0.8695    3.2172    0.2857 H   0  0  0  0  0  0  0  0  0  0  0  0
   -0.7464    3.2227    0.5229 H   0  0  0  0  0  0  0  0  0  0  0  0
   -0.1505    3.2766   -1.0439 H   0  0  0  0  0  0  0  0  0  0  0  0
   -0.0016    1.4040    0.0147 C   0  0  0  0  0  0  0  0  0  0  0  0
   -1.2100    0.7018   -0.0102 C   0  0  0  0  0  0  0  0  0  0  0  0
   -2.0686    1.1945   -0.0368 H   0  0  0  0  0  0  0  0  0  0  0  0
   -1.2133   -0.6909   -0.0000 C   0  0  0  0  0  0  0  0  0  0  0  0
   -2.0859   -1.1876    0.0129 H   0  0  0  0  0  0  0  0  0  0  0  0
   -0.0014   -1.3952   -0.0059 C   0  0  0  0  0  0  0  0  0  0  0  0
   -0.0127   -2.3929   -0.0151 H   0  0  0  0  0  0  0  0  0  0  0  0
    1.2133   -0.7057    0.0000 C   0  0  0  0  0  0  0  0  0  0  0  0
    2.0858   -1.2102    0.0050 H   0  0  0  0  0  0  0  0  0  0  0  0
    1.2130    0.6860    0.0014 C   0  0  0  0  0  0  0  0  0  0  0  0
    2.0733    1.1871   -0.0079 H   0  0  0  0  0  0  0  0  0  0  0  0
  1  5  1  0
  5  8  1  0
  1  2  1  0
  1  3  1  0
  1  4  1  0
  5  6  1  0
  5  7  1  0
  8  9  1  0
  8 10  1  0
  8 11  1  0
 12 16  1  0
 16 17  2  0
 17 19  1  0
 19 21  2  0
 21 23  1  0
 23 25  2  0
 25 16  1  0
 12 13  1  0
 12 14  1  0
 12 15  1  0
 17 18  1  0
 19 20  1  0
 21 22  1  0
 23 24  1  0
 25 26  1  0
M  CHG  1   8   1
M  END
>  <PDB_ID>  (2429) 
pdb4oun

>  <RESIDUE_NAME>  (2429) 
LYS   PHE

>  <FRAG_NAME>  (2429) 
ETAM   MBZ

>  <FRAG_ATOM_NUM>  (2429) 
fragi: 11  fragj: 15

>  <atom.prop.CHAIN_ID>  (2429) 
A A A A A A A A A A A Z Z Z Z Z Z Z Z Z Z Z Z Z Z Z

>  <atom.prop.IS_HEAVY_ATOM>  (2429) 
1 0 0 0 1 0 0 1 0 0 0 1 0 0 0 1 1 0 1 0 1 0 1 0 1 0

>  <DIFUSE_FUNC_ATOM>  (2429) 
n/a

>  <FINAL_SINGLE_POINT_ENERGY>  (2429) 
0

>  <NONCOV_INTER_ENERGY_QM>  (2429) 
0

>  <FF_Energy>  (2429) 
-4.42

>  <QM_Energy>  (2429) 
-9.52

>  <source>  (2429) 
ETAM_MBZ

>  <Index>  (2429) 
25608

$$$$
ETAM-pdb4ovr-B-LYS-199:MBZ-pdb4ovr-B-PHE-195
     RDKit          3D

 26 25  0  0  0  0  0  0  0  0999 V2000
   -0.4215   -1.6104    3.4939 C   0  0  0  0  0  0  0  0  0  0  0  0
   -0.2368   -2.2280    4.2188 H   0  0  0  0  0  0  0  0  0  0  0  0
   -0.4843   -2.0866    2.6518 H   0  0  0  0  0  0  0  0  0  0  0  0
   -1.3615   -1.0945    3.6894 H   0  0  0  0  0  0  0  0  0  0  0  0
    0.7370   -0.6159    3.4018 C   0  0  0  0  0  0  0  0  0  0  0  0
    0.6702   -0.1173    2.5717 H   0  0  0  0  0  0  0  0  0  0  0  0
    0.7105   -0.0156    4.1621 H   0  0  0  0  0  0  0  0  0  0  0  0
    2.0389   -1.3400    3.4146 N   0  0  0  0  0  4  0  0  0  0  0  0
    2.7109   -0.7592    3.3607 H   0  0  0  0  0  0  0  0  0  0  0  0
    2.1192   -1.8064    4.1685 H   0  0  0  0  0  0  0  0  0  0  0  0
    2.0833   -1.8990    2.7230 H   0  0  0  0  0  0  0  0  0  0  0  0
    0.0192    2.9027   -0.0214 C   0  0  0  0  0  0  0  0  0  0  0  0
   -0.0747    3.1715   -0.9486 H   0  0  0  0  0  0  0  0  0  0  0  0
    0.8784    3.1966    0.3193 H   0  0  0  0  0  0  0  0  0  0  0  0
   -0.7686    3.3805    0.5609 H   0  0  0  0  0  0  0  0  0  0  0  0
    0.0021    1.3869    0.0221 C   0  0  0  0  0  0  0  0  0  0  0  0
   -1.1824    0.6916   -0.0044 C   0  0  0  0  0  0  0  0  0  0  0  0
   -1.9888    1.1549   -0.0027 H   0  0  0  0  0  0  0  0  0  0  0  0
   -1.1876   -0.6800    0.0000 C   0  0  0  0  0  0  0  0  0  0  0  0
   -1.9965   -1.1401   -0.0034 H   0  0  0  0  0  0  0  0  0  0  0  0
   -0.0095   -1.3715   -0.0128 C   0  0  0  0  0  0  0  0  0  0  0  0
   -0.0195   -2.3007   -0.0025 H   0  0  0  0  0  0  0  0  0  0  0  0
    1.1876   -0.7049    0.0000 C   0  0  0  0  0  0  0  0  0  0  0  0
    1.9897   -1.1763   -0.0036 H   0  0  0  0  0  0  0  0  0  0  0  0
    1.1899    0.6778   -0.0049 C   0  0  0  0  0  0  0  0  0  0  0  0
    1.9992    1.1366   -0.0025 H   0  0  0  0  0  0  0  0  0  0  0  0
  1  5  1  0
  5  8  1  0
  1  2  1  0
  1  3  1  0
  1  4  1  0
  5  6  1  0
  5  7  1  0
  8  9  1  0
  8 10  1  0
  8 11  1  0
 12 16  1  0
 16 17  2  0
 17 19  1  0
 19 21  2  0
 21 23  1  0
 23 25  2  0
 25 16  1  0
 12 13  1  0
 12 14  1  0
 12 15  1  0
 17 18  1  0
 19 20  1  0
 21 22  1  0
 23 24  1  0
 25 26  1  0
M  CHG  1   8   1
M  END
>  <PDB_ID>  (2430) 
pdb4ovr

>  <RESIDUE_NAME>  (2430) 
LYS   PHE

>  <FRAG_NAME>  (2430) 
ETAM   MBZ

>  <FRAG_ATOM_NUM>  (2430) 
fragi: 11  fragj: 15

>  <atom.prop.CHAIN_ID>  (2430) 
A A A A A A A A A A A Z Z Z Z Z Z Z Z Z Z Z Z Z Z Z

>  <atom.prop.IS_HEAVY_ATOM>  (2430) 
1 0 0 0 1 0 0 1 0 0 0 1 0 0 0 1 1 0 1 0 1 0 1 0 1 0

>  <DIFUSE_FUNC_ATOM>  (2430) 
n/a

>  <FINAL_SINGLE_POINT_ENERGY>  (2430) 
0

>  <NONCOV_INTER_ENERGY_QM>  (2430) 
0

>  <FF_Energy>  (2430) 
-4.38

>  <QM_Energy>  (2430) 
-10.74

>  <source>  (2430) 
ETAM_MBZ

>  <Index>  (2430) 
25615

$$$$
ETAM-pdb4opb-A-LYS-173:MBZ-pdb4opb-A-PHE-166
     RDKit          3D

 26 25  0  0  0  0  0  0  0  0999 V2000
   -2.4537    0.6509    2.6920 C   0  0  0  0  0  0  0  0  0  0  0  0
   -3.0949    0.4224    1.9741 H   0  0  0  0  0  0  0  0  0  0  0  0
   -1.5244    0.6631    2.3536 H   0  0  0  0  0  0  0  0  0  0  0  0
   -2.7087    1.6152    3.1316 H   0  0  0  0  0  0  0  0  0  0  0  0
   -2.5572   -0.3646    3.7675 C   0  0  0  0  0  0  0  0  0  0  0  0
   -2.3887    0.0500    4.6479 H   0  0  0  0  0  0  0  0  0  0  0  0
   -3.4399   -0.8067    3.7381 H   0  0  0  0  0  0  0  0  0  0  0  0
   -1.4991   -1.3857    3.5054 N   0  0  0  0  0  4  0  0  0  0  0  0
   -0.7490   -0.9606    3.0014 H   0  0  0  0  0  0  0  0  0  0  0  0
   -1.1616   -1.7404    4.3760 H   0  0  0  0  0  0  0  0  0  0  0  0
   -1.8879   -2.1305    2.9653 H   0  0  0  0  0  0  0  0  0  0  0  0
   -0.0095    2.9115   -0.0008 C   0  0  0  0  0  0  0  0  0  0  0  0
   -0.7235    3.2151   -0.6073 H   0  0  0  0  0  0  0  0  0  0  0  0
    0.8786    3.2266   -0.2873 H   0  0  0  0  0  0  0  0  0  0  0  0
   -0.2076    3.3551    0.9750 H   0  0  0  0  0  0  0  0  0  0  0  0
   -0.0009    1.4052    0.0099 C   0  0  0  0  0  0  0  0  0  0  0  0
   -1.1928    0.6812   -0.0073 C   0  0  0  0  0  0  0  0  0  0  0  0
   -2.0662    1.1618   -0.0261 H   0  0  0  0  0  0  0  0  0  0  0  0
   -1.1976   -0.7274    0.0000 C   0  0  0  0  0  0  0  0  0  0  0  0
   -2.0702   -1.2112    0.0060 H   0  0  0  0  0  0  0  0  0  0  0  0
    0.0011   -1.3861    0.0010 C   0  0  0  0  0  0  0  0  0  0  0  0
    0.0254   -2.3925    0.0016 H   0  0  0  0  0  0  0  0  0  0  0  0
    1.1976   -0.6750    0.0000 C   0  0  0  0  0  0  0  0  0  0  0  0
    2.0830   -1.1775    0.0037 H   0  0  0  0  0  0  0  0  0  0  0  0
    1.1926    0.7022   -0.0036 C   0  0  0  0  0  0  0  0  0  0  0  0
    2.0602    1.2038   -0.0173 H   0  0  0  0  0  0  0  0  0  0  0  0
  1  5  1  0
  5  8  1  0
  1  2  1  0
  1  3  1  0
  1  4  1  0
  5  6  1  0
  5  7  1  0
  8  9  1  0
  8 10  1  0
  8 11  1  0
 12 16  1  0
 16 17  2  0
 17 19  1  0
 19 21  2  0
 21 23  1  0
 23 25  2  0
 25 16  1  0
 12 13  1  0
 12 14  1  0
 12 15  1  0
 17 18  1  0
 19 20  1  0
 21 22  1  0
 23 24  1  0
 25 26  1  0
M  CHG  1   8   1
M  END
>  <PDB_ID>  (2431) 
pdb4opb

>  <RESIDUE_NAME>  (2431) 
LYS   PHE

>  <FRAG_NAME>  (2431) 
ETAM   MBZ

>  <FRAG_ATOM_NUM>  (2431) 
fragi: 11  fragj: 15

>  <atom.prop.CHAIN_ID>  (2431) 
A A A A A A A A A A A Z Z Z Z Z Z Z Z Z Z Z Z Z Z Z

>  <atom.prop.IS_HEAVY_ATOM>  (2431) 
1 0 0 0 1 0 0 1 0 0 0 1 0 0 0 1 1 0 1 0 1 0 1 0 1 0

>  <DIFUSE_FUNC_ATOM>  (2431) 
n/a

>  <FINAL_SINGLE_POINT_ENERGY>  (2431) 
0

>  <NONCOV_INTER_ENERGY_QM>  (2431) 
0

>  <FF_Energy>  (2431) 
-1.16

>  <QM_Energy>  (2431) 
-7.68

>  <source>  (2431) 
ETAM_MBZ

>  <Index>  (2431) 
25616

$$$$
ETAM-pdb3qy9-A-LYS-90:MBZ-pdb3qy9-A-PHE-65
     RDKit          3D

 26 25  0  0  0  0  0  0  0  0999 V2000
   -3.7407    5.6580   -0.9789 C   0  0  0  0  0  0  0  0  0  0  0  0
   -2.7944    5.9529   -1.1203 H   0  0  0  0  0  0  0  0  0  0  0  0
   -3.9116    5.5526    0.0017 H   0  0  0  0  0  0  0  0  0  0  0  0
   -4.4082    6.4257   -1.3703 H   0  0  0  0  0  0  0  0  0  0  0  0
   -3.9361    4.3195   -1.6516 C   0  0  0  0  0  0  0  0  0  0  0  0
   -4.8787    4.0155   -1.5101 H   0  0  0  0  0  0  0  0  0  0  0  0
   -3.7616    4.4157   -2.6321 H   0  0  0  0  0  0  0  0  0  0  0  0
   -3.0071    3.3076   -1.0872 N   0  0  0  0  0  4  0  0  0  0  0  0
   -2.1224    3.3720   -1.5504 H   0  0  0  0  0  0  0  0  0  0  0  0
   -2.8837    3.4768   -0.1097 H   0  0  0  0  0  0  0  0  0  0  0  0
   -3.3882    2.3928   -1.2227 H   0  0  0  0  0  0  0  0  0  0  0  0
   -0.0085    2.8941   -0.0237 C   0  0  0  0  0  0  0  0  0  0  0  0
   -0.8219    3.1932   -0.5206 H   0  0  0  0  0  0  0  0  0  0  0  0
    0.8111    3.2045   -0.5038 H   0  0  0  0  0  0  0  0  0  0  0  0
   -0.0213    3.3872    0.9484 H   0  0  0  0  0  0  0  0  0  0  0  0
    0.0015    1.3994   -0.0068 C   0  0  0  0  0  0  0  0  0  0  0  0
   -1.1984    0.6918   -0.0085 C   0  0  0  0  0  0  0  0  0  0  0  0
   -2.0635    1.1932   -0.0163 H   0  0  0  0  0  0  0  0  0  0  0  0
   -1.2190   -0.6930   -0.0000 C   0  0  0  0  0  0  0  0  0  0  0  0
   -2.0877   -1.1865   -0.0116 H   0  0  0  0  0  0  0  0  0  0  0  0
   -0.0061   -1.3910    0.0247 C   0  0  0  0  0  0  0  0  0  0  0  0
   -0.0117   -2.3892    0.0610 H   0  0  0  0  0  0  0  0  0  0  0  0
    1.2190   -0.6999   -0.0000 C   0  0  0  0  0  0  0  0  0  0  0  0
    2.0853   -1.2004   -0.0095 H   0  0  0  0  0  0  0  0  0  0  0  0
    1.2030    0.6927   -0.0094 C   0  0  0  0  0  0  0  0  0  0  0  0
    2.0694    1.1947   -0.0180 H   0  0  0  0  0  0  0  0  0  0  0  0
  1  5  1  0
  5  8  1  0
  1  2  1  0
  1  3  1  0
  1  4  1  0
  5  6  1  0
  5  7  1  0
  8  9  1  0
  8 10  1  0
  8 11  1  0
 12 16  1  0
 16 17  2  0
 17 19  1  0
 19 21  2  0
 21 23  1  0
 23 25  2  0
 25 16  1  0
 12 13  1  0
 12 14  1  0
 12 15  1  0
 17 18  1  0
 19 20  1  0
 21 22  1  0
 23 24  1  0
 25 26  1  0
M  CHG  1   8   1
M  END
>  <PDB_ID>  (2432) 
pdb3qy9

>  <RESIDUE_NAME>  (2432) 
LYS   PHE

>  <FRAG_NAME>  (2432) 
ETAM   MBZ

>  <FRAG_ATOM_NUM>  (2432) 
fragi: 11  fragj: 15

>  <atom.prop.CHAIN_ID>  (2432) 
A A A A A A A A A A A Z Z Z Z Z Z Z Z Z Z Z Z Z Z Z

>  <atom.prop.IS_HEAVY_ATOM>  (2432) 
1 0 0 0 1 0 0 1 0 0 0 1 0 0 0 1 1 0 1 0 1 0 1 0 1 0

>  <DIFUSE_FUNC_ATOM>  (2432) 
n/a

>  <FINAL_SINGLE_POINT_ENERGY>  (2432) 
0

>  <NONCOV_INTER_ENERGY_QM>  (2432) 
0

>  <FF_Energy>  (2432) 
5.03

>  <QM_Energy>  (2432) 
-0.27

>  <source>  (2432) 
ETAM_MBZ

>  <Index>  (2432) 
25625

$$$$
ETAM-pdb4ovt-A-LYS-72:MBZ-pdb4ovt-A-PHE-93
     RDKit          3D

 26 25  0  0  0  0  0  0  0  0999 V2000
    0.2248   -0.2265    3.4230 C   0  0  0  0  0  0  0  0  0  0  0  0
   -0.2324   -0.2069    2.5677 H   0  0  0  0  0  0  0  0  0  0  0  0
    0.7341    0.5901    3.5430 H   0  0  0  0  0  0  0  0  0  0  0  0
   -0.5178   -0.2997    4.2176 H   0  0  0  0  0  0  0  0  0  0  0  0
    1.2231   -1.4084    3.3997 C   0  0  0  0  0  0  0  0  0  0  0  0
    0.7354   -2.2291    3.2304 H   0  0  0  0  0  0  0  0  0  0  0  0
    1.8725   -1.2581    2.6957 H   0  0  0  0  0  0  0  0  0  0  0  0
    1.9619   -1.5718    4.6790 N   0  0  0  0  0  4  0  0  0  0  0  0
    2.5228   -2.2601    4.6203 H   0  0  0  0  0  0  0  0  0  0  0  0
    2.4277   -0.8342    4.8578 H   0  0  0  0  0  0  0  0  0  0  0  0
    1.3904   -1.7197    5.3446 H   0  0  0  0  0  0  0  0  0  0  0  0
    0.0165    2.9010    0.0014 C   0  0  0  0  0  0  0  0  0  0  0  0
    0.8126    3.1853    0.4758 H   0  0  0  0  0  0  0  0  0  0  0  0
   -0.7734    3.2019    0.4760 H   0  0  0  0  0  0  0  0  0  0  0  0
    0.0211    3.3538   -0.9901 H   0  0  0  0  0  0  0  0  0  0  0  0
    0.0011    1.3925   -0.0070 C   0  0  0  0  0  0  0  0  0  0  0  0
   -1.2016    0.6946   -0.0249 C   0  0  0  0  0  0  0  0  0  0  0  0
   -2.0064    1.1606   -0.0259 H   0  0  0  0  0  0  0  0  0  0  0  0
   -1.2067   -0.7041    0.0000 C   0  0  0  0  0  0  0  0  0  0  0  0
   -2.0107   -1.1706   -0.0200 H   0  0  0  0  0  0  0  0  0  0  0  0
    0.0084   -1.3918    0.0058 C   0  0  0  0  0  0  0  0  0  0  0  0
    0.0199   -2.3220    0.0060 H   0  0  0  0  0  0  0  0  0  0  0  0
    1.2067   -0.6729   -0.0000 C   0  0  0  0  0  0  0  0  0  0  0  0
    2.0183   -1.1265    0.0255 H   0  0  0  0  0  0  0  0  0  0  0  0
    1.1921    0.6817    0.0262 C   0  0  0  0  0  0  0  0  0  0  0  0
    1.9980    1.1455    0.0229 H   0  0  0  0  0  0  0  0  0  0  0  0
  1  5  1  0
  5  8  1  0
  1  2  1  0
  1  3  1  0
  1  4  1  0
  5  6  1  0
  5  7  1  0
  8  9  1  0
  8 10  1  0
  8 11  1  0
 12 16  1  0
 16 17  2  0
 17 19  1  0
 19 21  2  0
 21 23  1  0
 23 25  2  0
 25 16  1  0
 12 13  1  0
 12 14  1  0
 12 15  1  0
 17 18  1  0
 19 20  1  0
 21 22  1  0
 23 24  1  0
 25 26  1  0
M  CHG  1   8   1
M  END
>  <PDB_ID>  (2433) 
pdb4ovt

>  <RESIDUE_NAME>  (2433) 
LYS   PHE

>  <FRAG_NAME>  (2433) 
ETAM   MBZ

>  <FRAG_ATOM_NUM>  (2433) 
fragi: 11  fragj: 15

>  <atom.prop.CHAIN_ID>  (2433) 
A A A A A A A A A A A Z Z Z Z Z Z Z Z Z Z Z Z Z Z Z

>  <atom.prop.IS_HEAVY_ATOM>  (2433) 
1 0 0 0 1 0 0 1 0 0 0 1 0 0 0 1 1 0 1 0 1 0 1 0 1 0

>  <DIFUSE_FUNC_ATOM>  (2433) 
n/a

>  <FINAL_SINGLE_POINT_ENERGY>  (2433) 
0

>  <NONCOV_INTER_ENERGY_QM>  (2433) 
0

>  <FF_Energy>  (2433) 
-3.6

>  <QM_Energy>  (2433) 
-8.61

>  <source>  (2433) 
ETAM_MBZ

>  <Index>  (2433) 
25626

$$$$
ETAM-pdb3qz3-A-LYS-162:MBZ-pdb3qz3-A-PHE-158
     RDKit          3D

 26 25  0  0  0  0  0  0  0  0999 V2000
    1.3839   -1.4336    4.3814 C   0  0  0  0  0  0  0  0  0  0  0  0
    2.2113   -0.9473    4.1113 H   0  0  0  0  0  0  0  0  0  0  0  0
    1.6165   -2.1852    4.9944 H   0  0  0  0  0  0  0  0  0  0  0  0
    0.7264   -0.7413    4.9074 H   0  0  0  0  0  0  0  0  0  0  0  0
    0.7351   -2.0185    3.1247 C   0  0  0  0  0  0  0  0  0  0  0  0
    0.7488   -1.3177    2.4015 H   0  0  0  0  0  0  0  0  0  0  0  0
    1.2848   -2.8029    2.8157 H   0  0  0  0  0  0  0  0  0  0  0  0
   -0.6658   -2.4606    3.3527 N   0  0  0  0  0  4  0  0  0  0  0  0
   -1.2844   -1.9029    2.7991 H   0  0  0  0  0  0  0  0  0  0  0  0
   -0.7579   -3.4211    3.0910 H   0  0  0  0  0  0  0  0  0  0  0  0
   -0.8948   -2.3546    4.3200 H   0  0  0  0  0  0  0  0  0  0  0  0
    0.0061    2.9164   -0.0579 C   0  0  0  0  0  0  0  0  0  0  0  0
   -0.7126    3.1970   -0.6831 H   0  0  0  0  0  0  0  0  0  0  0  0
    0.8945    3.2032   -0.3959 H   0  0  0  0  0  0  0  0  0  0  0  0
   -0.1657    3.4199    0.8935 H   0  0  0  0  0  0  0  0  0  0  0  0
    0.0007    1.4114    0.0073 C   0  0  0  0  0  0  0  0  0  0  0  0
   -1.1973    0.7012   -0.0095 C   0  0  0  0  0  0  0  0  0  0  0  0
   -2.0654    1.1855   -0.0302 H   0  0  0  0  0  0  0  0  0  0  0  0
   -1.2070   -0.7071   -0.0000 C   0  0  0  0  0  0  0  0  0  0  0  0
   -2.0825   -1.1911    0.0029 H   0  0  0  0  0  0  0  0  0  0  0  0
   -0.0015   -1.4064    0.0068 C   0  0  0  0  0  0  0  0  0  0  0  0
   -0.0005   -2.4002    0.0157 H   0  0  0  0  0  0  0  0  0  0  0  0
    1.2070   -0.6993    0.0000 C   0  0  0  0  0  0  0  0  0  0  0  0
    2.0867   -1.1936   -0.0005 H   0  0  0  0  0  0  0  0  0  0  0  0
    1.1981    0.7002   -0.0046 C   0  0  0  0  0  0  0  0  0  0  0  0
    2.0676    1.1946   -0.0173 H   0  0  0  0  0  0  0  0  0  0  0  0
  1  5  1  0
  5  8  1  0
  1  2  1  0
  1  3  1  0
  1  4  1  0
  5  6  1  0
  5  7  1  0
  8  9  1  0
  8 10  1  0
  8 11  1  0
 12 16  1  0
 16 17  2  0
 17 19  1  0
 19 21  2  0
 21 23  1  0
 23 25  2  0
 25 16  1  0
 12 13  1  0
 12 14  1  0
 12 15  1  0
 17 18  1  0
 19 20  1  0
 21 22  1  0
 23 24  1  0
 25 26  1  0
M  CHG  1   8   1
M  END
>  <PDB_ID>  (2434) 
pdb3qz3

>  <RESIDUE_NAME>  (2434) 
LYS   PHE

>  <FRAG_NAME>  (2434) 
ETAM   MBZ

>  <FRAG_ATOM_NUM>  (2434) 
fragi: 11  fragj: 15

>  <atom.prop.CHAIN_ID>  (2434) 
A A A A A A A A A A A Z Z Z Z Z Z Z Z Z Z Z Z Z Z Z

>  <atom.prop.IS_HEAVY_ATOM>  (2434) 
1 0 0 0 1 0 0 1 0 0 0 1 0 0 0 1 1 0 1 0 1 0 1 0 1 0

>  <DIFUSE_FUNC_ATOM>  (2434) 
n/a

>  <FINAL_SINGLE_POINT_ENERGY>  (2434) 
0

>  <NONCOV_INTER_ENERGY_QM>  (2434) 
0

>  <FF_Energy>  (2434) 
-2.43

>  <QM_Energy>  (2434) 
-9.23

>  <source>  (2434) 
ETAM_MBZ

>  <Index>  (2434) 
25640

$$$$
ETAM-pdb3qz3-B-LYS-162:MBZ-pdb3qz3-B-PHE-158
     RDKit          3D

 26 25  0  0  0  0  0  0  0  0999 V2000
    1.2090   -1.8633    4.3559 C   0  0  0  0  0  0  0  0  0  0  0  0
    2.0982   -1.4191    4.2966 H   0  0  0  0  0  0  0  0  0  0  0  0
    1.2663   -2.6743    4.9300 H   0  0  0  0  0  0  0  0  0  0  0  0
    0.5020   -1.1665    4.8061 H   0  0  0  0  0  0  0  0  0  0  0  0
    0.7732   -2.2744    2.9692 C   0  0  0  0  0  0  0  0  0  0  0  0
    0.9645   -1.5260    2.3280 H   0  0  0  0  0  0  0  0  0  0  0  0
    1.2935   -3.0853    2.6855 H   0  0  0  0  0  0  0  0  0  0  0  0
   -0.6823   -2.5928    2.9213 N   0  0  0  0  0  4  0  0  0  0  0  0
   -0.9161   -2.9335    2.0118 H   0  0  0  0  0  0  0  0  0  0  0  0
   -0.8911   -3.2905    3.6056 H   0  0  0  0  0  0  0  0  0  0  0  0
   -1.2080   -1.7658    3.1145 H   0  0  0  0  0  0  0  0  0  0  0  0
    0.0040    2.9087   -0.0081 C   0  0  0  0  0  0  0  0  0  0  0  0
   -0.6368    3.2085   -0.6989 H   0  0  0  0  0  0  0  0  0  0  0  0
    0.9238    3.2087   -0.2184 H   0  0  0  0  0  0  0  0  0  0  0  0
   -0.2880    3.3612    0.9396 H   0  0  0  0  0  0  0  0  0  0  0  0
    0.0003    1.4017    0.0036 C   0  0  0  0  0  0  0  0  0  0  0  0
   -1.1937    0.6966   -0.0040 C   0  0  0  0  0  0  0  0  0  0  0  0
   -2.0609    1.1854   -0.0139 H   0  0  0  0  0  0  0  0  0  0  0  0
   -1.1982   -0.6943   -0.0000 C   0  0  0  0  0  0  0  0  0  0  0  0
   -2.0776   -1.1870    0.0045 H   0  0  0  0  0  0  0  0  0  0  0  0
    0.0003   -1.3942   -0.0006 C   0  0  0  0  0  0  0  0  0  0  0  0
   -0.0068   -2.3926   -0.0019 H   0  0  0  0  0  0  0  0  0  0  0  0
    1.1982   -0.7006    0.0000 C   0  0  0  0  0  0  0  0  0  0  0  0
    2.0804   -1.1967    0.0010 H   0  0  0  0  0  0  0  0  0  0  0  0
    1.1931    0.6908    0.0010 C   0  0  0  0  0  0  0  0  0  0  0  0
    2.0640    1.1860   -0.0013 H   0  0  0  0  0  0  0  0  0  0  0  0
  1  5  1  0
  5  8  1  0
  1  2  1  0
  1  3  1  0
  1  4  1  0
  5  6  1  0
  5  7  1  0
  8  9  1  0
  8 10  1  0
  8 11  1  0
 12 16  1  0
 16 17  2  0
 17 19  1  0
 19 21  2  0
 21 23  1  0
 23 25  2  0
 25 16  1  0
 12 13  1  0
 12 14  1  0
 12 15  1  0
 17 18  1  0
 19 20  1  0
 21 22  1  0
 23 24  1  0
 25 26  1  0
M  CHG  1   8   1
M  END
>  <PDB_ID>  (2435) 
pdb3qz3

>  <RESIDUE_NAME>  (2435) 
LYS   PHE

>  <FRAG_NAME>  (2435) 
ETAM   MBZ

>  <FRAG_ATOM_NUM>  (2435) 
fragi: 11  fragj: 15

>  <atom.prop.CHAIN_ID>  (2435) 
A A A A A A A A A A A Z Z Z Z Z Z Z Z Z Z Z Z Z Z Z

>  <atom.prop.IS_HEAVY_ATOM>  (2435) 
1 0 0 0 1 0 0 1 0 0 0 1 0 0 0 1 1 0 1 0 1 0 1 0 1 0

>  <DIFUSE_FUNC_ATOM>  (2435) 
n/a

>  <FINAL_SINGLE_POINT_ENERGY>  (2435) 
0

>  <NONCOV_INTER_ENERGY_QM>  (2435) 
0

>  <FF_Energy>  (2435) 
-1.21

>  <QM_Energy>  (2435) 
-9.02

>  <source>  (2435) 
ETAM_MBZ

>  <Index>  (2435) 
25641

$$$$
ETAM-pdb3r0s-A-LYS-41:MBZ-pdb3r0s-A-PHE-59
     RDKit          3D

 26 25  0  0  0  0  0  0  0  0999 V2000
    1.3362    1.2930    4.0614 C   0  0  0  0  0  0  0  0  0  0  0  0
    1.4528    1.6760    3.1629 H   0  0  0  0  0  0  0  0  0  0  0  0
    2.1757    1.2856    4.5741 H   0  0  0  0  0  0  0  0  0  0  0  0
    0.5775    1.8558    4.6052 H   0  0  0  0  0  0  0  0  0  0  0  0
    0.8404   -0.1212    3.9238 C   0  0  0  0  0  0  0  0  0  0  0  0
    0.5948   -0.4785    4.8485 H   0  0  0  0  0  0  0  0  0  0  0  0
   -0.0242   -0.1189    3.3809 H   0  0  0  0  0  0  0  0  0  0  0  0
    1.7925   -1.0788    3.2872 N   0  0  0  0  0  4  0  0  0  0  0  0
    2.7139   -0.6934    3.3134 H   0  0  0  0  0  0  0  0  0  0  0  0
    1.7741   -1.9430    3.7881 H   0  0  0  0  0  0  0  0  0  0  0  0
    1.5193   -1.2335    2.3391 H   0  0  0  0  0  0  0  0  0  0  0  0
    0.0175    2.9524   -0.0346 C   0  0  0  0  0  0  0  0  0  0  0  0
   -0.5532    3.2356   -0.7872 H   0  0  0  0  0  0  0  0  0  0  0  0
    0.9562    3.2271   -0.1629 H   0  0  0  0  0  0  0  0  0  0  0  0
   -0.3582    3.4097    0.8807 H   0  0  0  0  0  0  0  0  0  0  0  0
    0.0004    1.4112   -0.0147 C   0  0  0  0  0  0  0  0  0  0  0  0
   -1.1742    0.7192    0.0195 C   0  0  0  0  0  0  0  0  0  0  0  0
   -2.0540    1.1986    0.0589 H   0  0  0  0  0  0  0  0  0  0  0  0
   -1.2078   -0.7037    0.0000 C   0  0  0  0  0  0  0  0  0  0  0  0
   -2.0890   -1.1678   -0.0195 H   0  0  0  0  0  0  0  0  0  0  0  0
   -0.0083   -1.4174    0.0101 C   0  0  0  0  0  0  0  0  0  0  0  0
   -0.0102   -2.4061    0.0235 H   0  0  0  0  0  0  0  0  0  0  0  0
    1.2078   -0.7072   -0.0000 C   0  0  0  0  0  0  0  0  0  0  0  0
    2.0830   -1.1941    0.0053 H   0  0  0  0  0  0  0  0  0  0  0  0
    1.1822    0.6979   -0.0149 C   0  0  0  0  0  0  0  0  0  0  0  0
    2.0626    1.1914   -0.0266 H   0  0  0  0  0  0  0  0  0  0  0  0
  1  5  1  0
  5  8  1  0
  1  2  1  0
  1  3  1  0
  1  4  1  0
  5  6  1  0
  5  7  1  0
  8  9  1  0
  8 10  1  0
  8 11  1  0
 12 16  1  0
 16 17  2  0
 17 19  1  0
 19 21  2  0
 21 23  1  0
 23 25  2  0
 25 16  1  0
 12 13  1  0
 12 14  1  0
 12 15  1  0
 17 18  1  0
 19 20  1  0
 21 22  1  0
 23 24  1  0
 25 26  1  0
M  CHG  1   8   1
M  END
>  <PDB_ID>  (2436) 
pdb3r0s

>  <RESIDUE_NAME>  (2436) 
LYS   PHE

>  <FRAG_NAME>  (2436) 
ETAM   MBZ

>  <FRAG_ATOM_NUM>  (2436) 
fragi: 11  fragj: 15

>  <atom.prop.CHAIN_ID>  (2436) 
A A A A A A A A A A A Z Z Z Z Z Z Z Z Z Z Z Z Z Z Z

>  <atom.prop.IS_HEAVY_ATOM>  (2436) 
1 0 0 0 1 0 0 1 0 0 0 1 0 0 0 1 1 0 1 0 1 0 1 0 1 0

>  <DIFUSE_FUNC_ATOM>  (2436) 
n/a

>  <FINAL_SINGLE_POINT_ENERGY>  (2436) 
0

>  <NONCOV_INTER_ENERGY_QM>  (2436) 
0

>  <FF_Energy>  (2436) 
-6.1

>  <QM_Energy>  (2436) 
-13.53

>  <source>  (2436) 
ETAM_MBZ

>  <Index>  (2436) 
25664

$$$$
ETAM-pdb4oyt-B-LYS-23:MBZ-pdb4oyt-A-PHE-69
     RDKit          3D

 26 25  0  0  0  0  0  0  0  0999 V2000
    2.2115   -3.6978    3.9168 C   0  0  0  0  0  0  0  0  0  0  0  0
    1.2791   -3.8209    4.2522 H   0  0  0  0  0  0  0  0  0  0  0  0
    2.3946   -2.7269    3.7743 H   0  0  0  0  0  0  0  0  0  0  0  0
    2.9026   -4.0738    4.6712 H   0  0  0  0  0  0  0  0  0  0  0  0
    2.3457   -4.4190    2.5763 C   0  0  0  0  0  0  0  0  0  0  0  0
    3.2932   -4.7659    2.4885 H   0  0  0  0  0  0  0  0  0  0  0  0
    1.7284   -5.2219    2.5767 H   0  0  0  0  0  0  0  0  0  0  0  0
    2.0308   -3.5701    1.3804 N   0  0  0  0  0  4  0  0  0  0  0  0
    1.0421   -3.4608    1.3100 H   0  0  0  0  0  0  0  0  0  0  0  0
    2.4633   -2.6779    1.4913 H   0  0  0  0  0  0  0  0  0  0  0  0
    2.3819   -4.0188    0.5613 H   0  0  0  0  0  0  0  0  0  0  0  0
   -0.0020    2.9143   -0.0071 C   0  0  0  0  0  0  0  0  0  0  0  0
    0.9304    3.2200    0.0986 H   0  0  0  0  0  0  0  0  0  0  0  0
   -0.5713    3.2205    0.7389 H   0  0  0  0  0  0  0  0  0  0  0  0
   -0.3944    3.3461   -0.9278 H   0  0  0  0  0  0  0  0  0  0  0  0
    0.0010    1.4065    0.0006 C   0  0  0  0  0  0  0  0  0  0  0  0
   -1.2026    0.6874    0.0051 C   0  0  0  0  0  0  0  0  0  0  0  0
   -2.0667    1.1780    0.0110 H   0  0  0  0  0  0  0  0  0  0  0  0
   -1.2022   -0.7027    0.0000 C   0  0  0  0  0  0  0  0  0  0  0  0
   -2.0771   -1.1996   -0.0008 H   0  0  0  0  0  0  0  0  0  0  0  0
    0.0014   -1.3941   -0.0021 C   0  0  0  0  0  0  0  0  0  0  0  0
    0.0015   -2.3937   -0.0059 H   0  0  0  0  0  0  0  0  0  0  0  0
    1.2022   -0.6944   -0.0000 C   0  0  0  0  0  0  0  0  0  0  0  0
    2.0844   -1.1929    0.0062 H   0  0  0  0  0  0  0  0  0  0  0  0
    1.2001    0.6973   -0.0036 C   0  0  0  0  0  0  0  0  0  0  0  0
    2.0668    1.1928   -0.0104 H   0  0  0  0  0  0  0  0  0  0  0  0
  1  5  1  0
  5  8  1  0
  1  2  1  0
  1  3  1  0
  1  4  1  0
  5  6  1  0
  5  7  1  0
  8  9  1  0
  8 10  1  0
  8 11  1  0
 12 16  1  0
 16 17  2  0
 17 19  1  0
 19 21  2  0
 21 23  1  0
 23 25  2  0
 25 16  1  0
 12 13  1  0
 12 14  1  0
 12 15  1  0
 17 18  1  0
 19 20  1  0
 21 22  1  0
 23 24  1  0
 25 26  1  0
M  CHG  1   8   1
M  END
>  <PDB_ID>  (2437) 
pdb4oyt

>  <RESIDUE_NAME>  (2437) 
LYS   PHE

>  <FRAG_NAME>  (2437) 
ETAM   MBZ

>  <FRAG_ATOM_NUM>  (2437) 
fragi: 11  fragj: 15

>  <atom.prop.CHAIN_ID>  (2437) 
A A A A A A A A A A A Z Z Z Z Z Z Z Z Z Z Z Z Z Z Z

>  <atom.prop.IS_HEAVY_ATOM>  (2437) 
1 0 0 0 1 0 0 1 0 0 0 1 0 0 0 1 1 0 1 0 1 0 1 0 1 0

>  <DIFUSE_FUNC_ATOM>  (2437) 
n/a

>  <FINAL_SINGLE_POINT_ENERGY>  (2437) 
0

>  <NONCOV_INTER_ENERGY_QM>  (2437) 
0

>  <FF_Energy>  (2437) 
1.44

>  <QM_Energy>  (2437) 
-5.6

>  <source>  (2437) 
ETAM_MBZ

>  <Index>  (2437) 
25665

$$$$
ETAM-pdb3qze-B-LYS-253:MBZ-pdb3qze-B-PHE-13
     RDKit          3D

 26 25  0  0  0  0  0  0  0  0999 V2000
    5.6302    1.1364   -3.3498 C   0  0  0  0  0  0  0  0  0  0  0  0
    5.9046    0.2905   -2.8666 H   0  0  0  0  0  0  0  0  0  0  0  0
    5.8715    1.9194   -2.7556 H   0  0  0  0  0  0  0  0  0  0  0  0
    6.2348    1.2095   -4.2538 H   0  0  0  0  0  0  0  0  0  0  0  0
    4.1617    1.1219   -3.5742 C   0  0  0  0  0  0  0  0  0  0  0  0
    3.8870    1.9626   -4.0534 H   0  0  0  0  0  0  0  0  0  0  0  0
    3.9175    0.3335   -4.1496 H   0  0  0  0  0  0  0  0  0  0  0  0
    3.4373    1.0334   -2.3021 N   0  0  0  0  0  4  0  0  0  0  0  0
    4.0270    0.6278   -1.5994 H   0  0  0  0  0  0  0  0  0  0  0  0
    3.1568    1.9491   -2.0031 H   0  0  0  0  0  0  0  0  0  0  0  0
    2.6202    0.4612   -2.4122 H   0  0  0  0  0  0  0  0  0  0  0  0
   -0.0703    2.9330    0.0146 C   0  0  0  0  0  0  0  0  0  0  0  0
    0.8684    3.2558    0.0764 H   0  0  0  0  0  0  0  0  0  0  0  0
   -0.5803    3.1916    0.8289 H   0  0  0  0  0  0  0  0  0  0  0  0
   -0.5356    3.4253   -0.8394 H   0  0  0  0  0  0  0  0  0  0  0  0
   -0.0273    1.4067   -0.0316 C   0  0  0  0  0  0  0  0  0  0  0  0
   -1.1705    0.7125    0.0048 C   0  0  0  0  0  0  0  0  0  0  0  0
   -2.0633    1.1720    0.0349 H   0  0  0  0  0  0  0  0  0  0  0  0
   -1.1683   -0.6938   -0.0000 C   0  0  0  0  0  0  0  0  0  0  0  0
   -2.0479   -1.1816   -0.0049 H   0  0  0  0  0  0  0  0  0  0  0  0
    0.0301   -1.3853    0.0039 C   0  0  0  0  0  0  0  0  0  0  0  0
   -0.0037   -2.3973    0.0094 H   0  0  0  0  0  0  0  0  0  0  0  0
    1.1683   -0.7236    0.0000 C   0  0  0  0  0  0  0  0  0  0  0  0
    2.0792   -1.1914   -0.0180 H   0  0  0  0  0  0  0  0  0  0  0  0
    1.1677    0.6834    0.0228 C   0  0  0  0  0  0  0  0  0  0  0  0
    2.0386    1.1697    0.0781 H   0  0  0  0  0  0  0  0  0  0  0  0
  1  5  1  0
  5  8  1  0
  1  2  1  0
  1  3  1  0
  1  4  1  0
  5  6  1  0
  5  7  1  0
  8  9  1  0
  8 10  1  0
  8 11  1  0
 12 16  1  0
 16 17  2  0
 17 19  1  0
 19 21  2  0
 21 23  1  0
 23 25  2  0
 25 16  1  0
 12 13  1  0
 12 14  1  0
 12 15  1  0
 17 18  1  0
 19 20  1  0
 21 22  1  0
 23 24  1  0
 25 26  1  0
M  CHG  1   8   1
M  END
>  <PDB_ID>  (2438) 
pdb3qze

>  <RESIDUE_NAME>  (2438) 
LYS   PHE

>  <FRAG_NAME>  (2438) 
ETAM   MBZ

>  <FRAG_ATOM_NUM>  (2438) 
fragi: 11  fragj: 15

>  <atom.prop.CHAIN_ID>  (2438) 
A A A A A A A A A A A Z Z Z Z Z Z Z Z Z Z Z Z Z Z Z

>  <atom.prop.IS_HEAVY_ATOM>  (2438) 
1 0 0 0 1 0 0 1 0 0 0 1 0 0 0 1 1 0 1 0 1 0 1 0 1 0

>  <DIFUSE_FUNC_ATOM>  (2438) 
n/a

>  <FINAL_SINGLE_POINT_ENERGY>  (2438) 
0

>  <NONCOV_INTER_ENERGY_QM>  (2438) 
0

>  <FF_Energy>  (2438) 
-1.68

>  <QM_Energy>  (2438) 
-7.42

>  <source>  (2438) 
ETAM_MBZ

>  <Index>  (2438) 
25679

$$$$
ETAM-pdb3qx3-B-LYS-759:MBZ-pdb3qx3-B-PHE-823
     RDKit          3D

 26 25  0  0  0  0  0  0  0  0999 V2000
    0.9963   -1.0876    3.6190 C   0  0  0  0  0  0  0  0  0  0  0  0
    0.1888   -1.3856    4.1064 H   0  0  0  0  0  0  0  0  0  0  0  0
    0.7861   -0.3564    2.9873 H   0  0  0  0  0  0  0  0  0  0  0  0
    1.7356   -0.7354    4.3383 H   0  0  0  0  0  0  0  0  0  0  0  0
    1.5517   -2.2671    2.8305 C   0  0  0  0  0  0  0  0  0  0  0  0
    0.9879   -2.4025    2.0079 H   0  0  0  0  0  0  0  0  0  0  0  0
    2.4909   -2.0512    2.5397 H   0  0  0  0  0  0  0  0  0  0  0  0
    1.5679   -3.5353    3.6232 N   0  0  0  0  0  4  0  0  0  0  0  0
    0.7562   -3.5701    4.2039 H   0  0  0  0  0  0  0  0  0  0  0  0
    1.5691   -4.3131    2.9973 H   0  0  0  0  0  0  0  0  0  0  0  0
    2.3893   -3.5575    4.1897 H   0  0  0  0  0  0  0  0  0  0  0  0
    0.0074    2.9080   -0.0047 C   0  0  0  0  0  0  0  0  0  0  0  0
   -0.7524    3.2122   -0.5603 H   0  0  0  0  0  0  0  0  0  0  0  0
    0.8710    3.2063   -0.3864 H   0  0  0  0  0  0  0  0  0  0  0  0
   -0.0970    3.3587    0.9822 H   0  0  0  0  0  0  0  0  0  0  0  0
    0.0012    1.4009    0.0026 C   0  0  0  0  0  0  0  0  0  0  0  0
   -1.1936    0.6988   -0.0017 C   0  0  0  0  0  0  0  0  0  0  0  0
   -2.0603    1.1903   -0.0070 H   0  0  0  0  0  0  0  0  0  0  0  0
   -1.2020   -0.6903   -0.0000 C   0  0  0  0  0  0  0  0  0  0  0  0
   -2.0808   -1.1825    0.0028 H   0  0  0  0  0  0  0  0  0  0  0  0
   -0.0030   -1.3943   -0.0009 C   0  0  0  0  0  0  0  0  0  0  0  0
   -0.0135   -2.3928   -0.0028 H   0  0  0  0  0  0  0  0  0  0  0  0
    1.2020   -0.7050    0.0000 C   0  0  0  0  0  0  0  0  0  0  0  0
    2.0798   -1.2013    0.0018 H   0  0  0  0  0  0  0  0  0  0  0  0
    1.1954    0.6898   -0.0000 C   0  0  0  0  0  0  0  0  0  0  0  0
    2.0658    1.1841   -0.0026 H   0  0  0  0  0  0  0  0  0  0  0  0
  1  5  1  0
  5  8  1  0
  1  2  1  0
  1  3  1  0
  1  4  1  0
  5  6  1  0
  5  7  1  0
  8  9  1  0
  8 10  1  0
  8 11  1  0
 12 16  1  0
 16 17  2  0
 17 19  1  0
 19 21  2  0
 21 23  1  0
 23 25  2  0
 25 16  1  0
 12 13  1  0
 12 14  1  0
 12 15  1  0
 17 18  1  0
 19 20  1  0
 21 22  1  0
 23 24  1  0
 25 26  1  0
M  CHG  1   8   1
M  END
>  <PDB_ID>  (2439) 
pdb3qx3

>  <RESIDUE_NAME>  (2439) 
LYS   PHE

>  <FRAG_NAME>  (2439) 
ETAM   MBZ

>  <FRAG_ATOM_NUM>  (2439) 
fragi: 11  fragj: 15

>  <atom.prop.CHAIN_ID>  (2439) 
A A A A A A A A A A A Z Z Z Z Z Z Z Z Z Z Z Z Z Z Z

>  <atom.prop.IS_HEAVY_ATOM>  (2439) 
1 0 0 0 1 0 0 1 0 0 0 1 0 0 0 1 1 0 1 0 1 0 1 0 1 0

>  <DIFUSE_FUNC_ATOM>  (2439) 
n/a

>  <FINAL_SINGLE_POINT_ENERGY>  (2439) 
0

>  <NONCOV_INTER_ENERGY_QM>  (2439) 
0

>  <FF_Energy>  (2439) 
-0.58

>  <QM_Energy>  (2439) 
-6.34

>  <source>  (2439) 
ETAM_MBZ

>  <Index>  (2439) 
25706

$$$$
ETAM-pdb3qze-C-LYS-253:MBZ-pdb3qze-C-PHE-13
     RDKit          3D

 26 25  0  0  0  0  0  0  0  0999 V2000
    5.2588    1.3228   -3.5893 C   0  0  0  0  0  0  0  0  0  0  0  0
    5.6355    0.5360   -3.1054 H   0  0  0  0  0  0  0  0  0  0  0  0
    5.4113    2.1524   -3.0574 H   0  0  0  0  0  0  0  0  0  0  0  0
    5.7994    1.4253   -4.5302 H   0  0  0  0  0  0  0  0  0  0  0  0
    3.8184    1.1304   -3.8222 C   0  0  0  0  0  0  0  0  0  0  0  0
    3.4429    1.9487   -4.2803 H   0  0  0  0  0  0  0  0  0  0  0  0
    3.6830    0.3413   -4.4377 H   0  0  0  0  0  0  0  0  0  0  0  0
    3.1394    0.9079   -2.5850 N   0  0  0  0  0  4  0  0  0  0  0  0
    3.4902    0.0809   -2.1237 H   0  0  0  0  0  0  0  0  0  0  0  0
    3.2648    1.6902   -1.9586 H   0  0  0  0  0  0  0  0  0  0  0  0
    2.1483    0.7845   -2.7342 H   0  0  0  0  0  0  0  0  0  0  0  0
   -0.0205    2.9360    0.0342 C   0  0  0  0  0  0  0  0  0  0  0  0
    0.9084    3.2436   -0.0765 H   0  0  0  0  0  0  0  0  0  0  0  0
   -0.4038    3.2241    0.8955 H   0  0  0  0  0  0  0  0  0  0  0  0
   -0.6108    3.4043   -0.7534 H   0  0  0  0  0  0  0  0  0  0  0  0
   -0.0249    1.4176   -0.0022 C   0  0  0  0  0  0  0  0  0  0  0  0
   -1.1787    0.7015   -0.0042 C   0  0  0  0  0  0  0  0  0  0  0  0
   -2.0708    1.1725   -0.0099 H   0  0  0  0  0  0  0  0  0  0  0  0
   -1.1831   -0.6962    0.0000 C   0  0  0  0  0  0  0  0  0  0  0  0
   -2.0569   -1.1923    0.0208 H   0  0  0  0  0  0  0  0  0  0  0  0
    0.0323   -1.4161   -0.0230 C   0  0  0  0  0  0  0  0  0  0  0  0
    0.0071   -2.4023   -0.0550 H   0  0  0  0  0  0  0  0  0  0  0  0
    1.1831   -0.7081    0.0000 C   0  0  0  0  0  0  0  0  0  0  0  0
    2.0945   -1.1747   -0.0017 H   0  0  0  0  0  0  0  0  0  0  0  0
    1.1713    0.7013    0.0294 C   0  0  0  0  0  0  0  0  0  0  0  0
    2.0422    1.1911    0.0733 H   0  0  0  0  0  0  0  0  0  0  0  0
  1  5  1  0
  5  8  1  0
  1  2  1  0
  1  3  1  0
  1  4  1  0
  5  6  1  0
  5  7  1  0
  8  9  1  0
  8 10  1  0
  8 11  1  0
 12 16  1  0
 16 17  2  0
 17 19  1  0
 19 21  2  0
 21 23  1  0
 23 25  2  0
 25 16  1  0
 12 13  1  0
 12 14  1  0
 12 15  1  0
 17 18  1  0
 19 20  1  0
 21 22  1  0
 23 24  1  0
 25 26  1  0
M  CHG  1   8   1
M  END
>  <PDB_ID>  (2440) 
pdb3qze

>  <RESIDUE_NAME>  (2440) 
LYS   PHE

>  <FRAG_NAME>  (2440) 
ETAM   MBZ

>  <FRAG_ATOM_NUM>  (2440) 
fragi: 11  fragj: 15

>  <atom.prop.CHAIN_ID>  (2440) 
A A A A A A A A A A A Z Z Z Z Z Z Z Z Z Z Z Z Z Z Z

>  <atom.prop.IS_HEAVY_ATOM>  (2440) 
1 0 0 0 1 0 0 1 0 0 0 1 0 0 0 1 1 0 1 0 1 0 1 0 1 0

>  <DIFUSE_FUNC_ATOM>  (2440) 
n/a

>  <FINAL_SINGLE_POINT_ENERGY>  (2440) 
0

>  <NONCOV_INTER_ENERGY_QM>  (2440) 
0

>  <FF_Energy>  (2440) 
-2.41

>  <QM_Energy>  (2440) 
-8.16

>  <source>  (2440) 
ETAM_MBZ

>  <Index>  (2440) 
25715

$$$$
ETAM-pdb3qan-C-LYS-125:MBZ-pdb3qan-C-PHE-183
     RDKit          3D

 26 25  0  0  0  0  0  0  0  0999 V2000
    2.0088    0.3016    5.9410 C   0  0  0  0  0  0  0  0  0  0  0  0
    2.3559    1.2133    5.7971 H   0  0  0  0  0  0  0  0  0  0  0  0
    2.7207   -0.3769    5.8789 H   0  0  0  0  0  0  0  0  0  0  0  0
    1.5619    0.2508    6.9340 H   0  0  0  0  0  0  0  0  0  0  0  0
    0.9515    0.0031    4.8734 C   0  0  0  0  0  0  0  0  0  0  0  0
    0.7112   -0.9811    4.9252 H   0  0  0  0  0  0  0  0  0  0  0  0
    0.1113    0.5276    5.0963 H   0  0  0  0  0  0  0  0  0  0  0  0
    1.3619    0.3256    3.4682 N   0  0  0  0  0  4  0  0  0  0  0  0
    2.1416   -0.2434    3.2172 H   0  0  0  0  0  0  0  0  0  0  0  0
    0.5964    0.1415    2.8548 H   0  0  0  0  0  0  0  0  0  0  0  0
    1.6153    1.2892    3.4149 H   0  0  0  0  0  0  0  0  0  0  0  0
    0.0102    2.9138    0.0196 C   0  0  0  0  0  0  0  0  0  0  0  0
   -0.7379    3.2278   -0.5402 H   0  0  0  0  0  0  0  0  0  0  0  0
    0.8809    3.2170   -0.3304 H   0  0  0  0  0  0  0  0  0  0  0  0
   -0.1161    3.3334    1.0177 H   0  0  0  0  0  0  0  0  0  0  0  0
    0.0032    1.4046   -0.0013 C   0  0  0  0  0  0  0  0  0  0  0  0
   -1.1955    0.6952    0.0016 C   0  0  0  0  0  0  0  0  0  0  0  0
   -2.0612    1.1859    0.0037 H   0  0  0  0  0  0  0  0  0  0  0  0
   -1.2032   -0.6991   -0.0000 C   0  0  0  0  0  0  0  0  0  0  0  0
   -2.0824   -1.1876    0.0018 H   0  0  0  0  0  0  0  0  0  0  0  0
   -0.0078   -1.3942   -0.0020 C   0  0  0  0  0  0  0  0  0  0  0  0
   -0.0075   -2.3931   -0.0058 H   0  0  0  0  0  0  0  0  0  0  0  0
    1.2032   -0.6982    0.0000 C   0  0  0  0  0  0  0  0  0  0  0  0
    2.0788   -1.2011    0.0015 H   0  0  0  0  0  0  0  0  0  0  0  0
    1.2002    0.6917    0.0016 C   0  0  0  0  0  0  0  0  0  0  0  0
    2.0682    1.1879    0.0040 H   0  0  0  0  0  0  0  0  0  0  0  0
  1  5  1  0
  5  8  1  0
  1  2  1  0
  1  3  1  0
  1  4  1  0
  5  6  1  0
  5  7  1  0
  8  9  1  0
  8 10  1  0
  8 11  1  0
 12 16  1  0
 16 17  2  0
 17 19  1  0
 19 21  2  0
 21 23  1  0
 23 25  2  0
 25 16  1  0
 12 13  1  0
 12 14  1  0
 12 15  1  0
 17 18  1  0
 19 20  1  0
 21 22  1  0
 23 24  1  0
 25 26  1  0
M  CHG  1   8   1
M  END
>  <PDB_ID>  (2441) 
pdb3qan

>  <RESIDUE_NAME>  (2441) 
LYS   PHE

>  <FRAG_NAME>  (2441) 
ETAM   MBZ

>  <FRAG_ATOM_NUM>  (2441) 
fragi: 11  fragj: 15

>  <atom.prop.CHAIN_ID>  (2441) 
A A A A A A A A A A A Z Z Z Z Z Z Z Z Z Z Z Z Z Z Z

>  <atom.prop.IS_HEAVY_ATOM>  (2441) 
1 0 0 0 1 0 0 1 0 0 0 1 0 0 0 1 1 0 1 0 1 0 1 0 1 0

>  <DIFUSE_FUNC_ATOM>  (2441) 
n/a

>  <FINAL_SINGLE_POINT_ENERGY>  (2441) 
0

>  <NONCOV_INTER_ENERGY_QM>  (2441) 
0

>  <FF_Energy>  (2441) 
-6.36

>  <QM_Energy>  (2441) 
-11.63

>  <source>  (2441) 
ETAM_MBZ

>  <Index>  (2441) 
25732

$$$$
ETAM-pdb3qze-D-LYS-253:MBZ-pdb3qze-D-PHE-13
     RDKit          3D

 26 25  0  0  0  0  0  0  0  0999 V2000
    5.5228    1.0284   -3.5469 C   0  0  0  0  0  0  0  0  0  0  0  0
    5.6367    0.1080   -3.1935 H   0  0  0  0  0  0  0  0  0  0  0  0
    5.9225    1.6938   -2.9290 H   0  0  0  0  0  0  0  0  0  0  0  0
    6.0389    1.0939   -4.5048 H   0  0  0  0  0  0  0  0  0  0  0  0
    4.0281    1.3217   -3.6856 C   0  0  0  0  0  0  0  0  0  0  0  0
    3.9138    2.3165   -3.8972 H   0  0  0  0  0  0  0  0  0  0  0  0
    3.6761    0.8201   -4.5057 H   0  0  0  0  0  0  0  0  0  0  0  0
    3.1615    0.9826   -2.5129 N   0  0  0  0  0  4  0  0  0  0  0  0
    2.3796    1.6019   -2.4943 H   0  0  0  0  0  0  0  0  0  0  0  0
    2.8452    0.0404   -2.6012 H   0  0  0  0  0  0  0  0  0  0  0  0
    3.6922    1.0839   -1.6736 H   0  0  0  0  0  0  0  0  0  0  0  0
   -0.0602    2.9183    0.0752 C   0  0  0  0  0  0  0  0  0  0  0  0
    0.8727    3.2516    0.0595 H   0  0  0  0  0  0  0  0  0  0  0  0
   -0.5149    3.1717    0.9173 H   0  0  0  0  0  0  0  0  0  0  0  0
   -0.5939    3.3999   -0.7441 H   0  0  0  0  0  0  0  0  0  0  0  0
   -0.0297    1.4297   -0.0132 C   0  0  0  0  0  0  0  0  0  0  0  0
   -1.1896    0.6810    0.0206 C   0  0  0  0  0  0  0  0  0  0  0  0
   -2.0810    1.1247    0.0589 H   0  0  0  0  0  0  0  0  0  0  0  0
   -1.1525   -0.7392   -0.0000 C   0  0  0  0  0  0  0  0  0  0  0  0
   -2.0196   -1.2405    0.0081 H   0  0  0  0  0  0  0  0  0  0  0  0
    0.0595   -1.3889   -0.0285 C   0  0  0  0  0  0  0  0  0  0  0  0
    0.0517   -2.4033   -0.0721 H   0  0  0  0  0  0  0  0  0  0  0  0
    1.1525   -0.6994   -0.0000 C   0  0  0  0  0  0  0  0  0  0  0  0
    2.0936   -1.1494    0.0105 H   0  0  0  0  0  0  0  0  0  0  0  0
    1.1598    0.7167    0.0211 C   0  0  0  0  0  0  0  0  0  0  0  0
    2.0326    1.1931    0.0600 H   0  0  0  0  0  0  0  0  0  0  0  0
  1  5  1  0
  5  8  1  0
  1  2  1  0
  1  3  1  0
  1  4  1  0
  5  6  1  0
  5  7  1  0
  8  9  1  0
  8 10  1  0
  8 11  1  0
 12 16  1  0
 16 17  2  0
 17 19  1  0
 19 21  2  0
 21 23  1  0
 23 25  2  0
 25 16  1  0
 12 13  1  0
 12 14  1  0
 12 15  1  0
 17 18  1  0
 19 20  1  0
 21 22  1  0
 23 24  1  0
 25 26  1  0
M  CHG  1   8   1
M  END
>  <PDB_ID>  (2442) 
pdb3qze

>  <RESIDUE_NAME>  (2442) 
LYS   PHE

>  <FRAG_NAME>  (2442) 
ETAM   MBZ

>  <FRAG_ATOM_NUM>  (2442) 
fragi: 11  fragj: 15

>  <atom.prop.CHAIN_ID>  (2442) 
A A A A A A A A A A A Z Z Z Z Z Z Z Z Z Z Z Z Z Z Z

>  <atom.prop.IS_HEAVY_ATOM>  (2442) 
1 0 0 0 1 0 0 1 0 0 0 1 0 0 0 1 1 0 1 0 1 0 1 0 1 0

>  <DIFUSE_FUNC_ATOM>  (2442) 
n/a

>  <FINAL_SINGLE_POINT_ENERGY>  (2442) 
0

>  <NONCOV_INTER_ENERGY_QM>  (2442) 
0

>  <FF_Energy>  (2442) 
-2.09

>  <QM_Energy>  (2442) 
-7.69

>  <source>  (2442) 
ETAM_MBZ

>  <Index>  (2442) 
25738

$$$$
ETAM-pdb3r3u-B-LYS-129:MBZ-pdb3r3u-B-PHE-297
     RDKit          3D

 26 25  0  0  0  0  0  0  0  0999 V2000
    0.5484   -1.2163    4.1640 C   0  0  0  0  0  0  0  0  0  0  0  0
    0.7238   -0.7481    5.0357 H   0  0  0  0  0  0  0  0  0  0  0  0
    0.9036   -0.6489    3.4156 H   0  0  0  0  0  0  0  0  0  0  0  0
    1.1173   -2.1461    4.1712 H   0  0  0  0  0  0  0  0  0  0  0  0
   -0.9197   -1.4137    3.9884 C   0  0  0  0  0  0  0  0  0  0  0  0
   -1.0938   -2.0909    3.2389 H   0  0  0  0  0  0  0  0  0  0  0  0
   -1.3199   -1.8312    4.8353 H   0  0  0  0  0  0  0  0  0  0  0  0
   -1.7649   -0.1660    3.6655 N   0  0  0  0  0  4  0  0  0  0  0  0
   -1.3142    0.3260    2.9326 H   0  0  0  0  0  0  0  0  0  0  0  0
   -2.6652   -0.4715    3.3859 H   0  0  0  0  0  0  0  0  0  0  0  0
   -1.8170    0.3883    4.4854 H   0  0  0  0  0  0  0  0  0  0  0  0
    0.0159    2.8733    0.0080 C   0  0  0  0  0  0  0  0  0  0  0  0
   -0.6093    3.2188   -0.6793 H   0  0  0  0  0  0  0  0  0  0  0  0
    0.9410    3.1813   -0.1685 H   0  0  0  0  0  0  0  0  0  0  0  0
   -0.2867    3.3127    0.9584 H   0  0  0  0  0  0  0  0  0  0  0  0
   -0.0155    1.4072   -0.0036 C   0  0  0  0  0  0  0  0  0  0  0  0
   -1.2316    0.6588    0.0126 C   0  0  0  0  0  0  0  0  0  0  0  0
   -2.0945    1.1256    0.0311 H   0  0  0  0  0  0  0  0  0  0  0  0
   -1.2006   -0.7645    0.0000 C   0  0  0  0  0  0  0  0  0  0  0  0
   -2.0217   -1.2870   -0.0233 H   0  0  0  0  0  0  0  0  0  0  0  0
    0.0856   -1.3873    0.0252 C   0  0  0  0  0  0  0  0  0  0  0  0
    0.1143   -2.3884    0.0615 H   0  0  0  0  0  0  0  0  0  0  0  0
    1.2006   -0.6346    0.0000 C   0  0  0  0  0  0  0  0  0  0  0  0
    2.1327   -1.1005    0.0079 H   0  0  0  0  0  0  0  0  0  0  0  0
    1.1615    0.7204   -0.0342 C   0  0  0  0  0  0  0  0  0  0  0  0
    2.0339    1.2422   -0.0851 H   0  0  0  0  0  0  0  0  0  0  0  0
  1  5  1  0
  5  8  1  0
  1  2  1  0
  1  3  1  0
  1  4  1  0
  5  6  1  0
  5  7  1  0
  8  9  1  0
  8 10  1  0
  8 11  1  0
 12 16  1  0
 16 17  2  0
 17 19  1  0
 19 21  2  0
 21 23  1  0
 23 25  2  0
 25 16  1  0
 12 13  1  0
 12 14  1  0
 12 15  1  0
 17 18  1  0
 19 20  1  0
 21 22  1  0
 23 24  1  0
 25 26  1  0
M  CHG  1   8   1
M  END
>  <PDB_ID>  (2443) 
pdb3r3u

>  <RESIDUE_NAME>  (2443) 
LYS   PHE

>  <FRAG_NAME>  (2443) 
ETAM   MBZ

>  <FRAG_ATOM_NUM>  (2443) 
fragi: 11  fragj: 15

>  <atom.prop.CHAIN_ID>  (2443) 
A A A A A A A A A A A Z Z Z Z Z Z Z Z Z Z Z Z Z Z Z

>  <atom.prop.IS_HEAVY_ATOM>  (2443) 
1 0 0 0 1 0 0 1 0 0 0 1 0 0 0 1 1 0 1 0 1 0 1 0 1 0

>  <DIFUSE_FUNC_ATOM>  (2443) 
n/a

>  <FINAL_SINGLE_POINT_ENERGY>  (2443) 
0

>  <NONCOV_INTER_ENERGY_QM>  (2443) 
0

>  <FF_Energy>  (2443) 
-5.98

>  <QM_Energy>  (2443) 
-11.37

>  <source>  (2443) 
ETAM_MBZ

>  <Index>  (2443) 
25741

$$$$
ETAM-pdb3r5a-A-LYS-119:MBZ-pdb3r5a-A-PHE-229
     RDKit          3D

 26 25  0  0  0  0  0  0  0  0999 V2000
    0.7673   -3.1422   -3.2963 C   0  0  0  0  0  0  0  0  0  0  0  0
    1.5733   -3.0481   -3.8792 H   0  0  0  0  0  0  0  0  0  0  0  0
    0.6604   -2.3218   -2.7360 H   0  0  0  0  0  0  0  0  0  0  0  0
   -0.1153   -3.2659   -3.9238 H   0  0  0  0  0  0  0  0  0  0  0  0
    0.9765   -4.3249   -2.3772 C   0  0  0  0  0  0  0  0  0  0  0  0
    0.0942   -4.6359   -2.0373 H   0  0  0  0  0  0  0  0  0  0  0  0
    1.4262   -5.0559   -2.8809 H   0  0  0  0  0  0  0  0  0  0  0  0
    1.8298   -3.9193   -1.2327 N   0  0  0  0  0  4  0  0  0  0  0  0
    1.4941   -3.0552   -0.8568 H   0  0  0  0  0  0  0  0  0  0  0  0
    1.7968   -4.6259   -0.5252 H   0  0  0  0  0  0  0  0  0  0  0  0
    2.7735   -3.8035   -1.5440 H   0  0  0  0  0  0  0  0  0  0  0  0
   -0.0027    2.8907    0.0060 C   0  0  0  0  0  0  0  0  0  0  0  0
   -0.4811    3.1988   -0.8049 H   0  0  0  0  0  0  0  0  0  0  0  0
    0.9386    3.2019    0.0015 H   0  0  0  0  0  0  0  0  0  0  0  0
   -0.4951    3.3347    0.8712 H   0  0  0  0  0  0  0  0  0  0  0  0
    0.0005    1.3964    0.0063 C   0  0  0  0  0  0  0  0  0  0  0  0
   -1.1960    0.6865    0.0005 C   0  0  0  0  0  0  0  0  0  0  0  0
   -2.0618    1.1787   -0.0047 H   0  0  0  0  0  0  0  0  0  0  0  0
   -1.1976   -0.6981    0.0000 C   0  0  0  0  0  0  0  0  0  0  0  0
   -2.0744   -1.1948    0.0068 H   0  0  0  0  0  0  0  0  0  0  0  0
   -0.0002   -1.3849   -0.0079 C   0  0  0  0  0  0  0  0  0  0  0  0
    0.0007   -2.3865   -0.0196 H   0  0  0  0  0  0  0  0  0  0  0  0
    1.1976   -0.6890    0.0000 C   0  0  0  0  0  0  0  0  0  0  0  0
    2.0793   -1.1933    0.0068 H   0  0  0  0  0  0  0  0  0  0  0  0
    1.1957    0.6891    0.0011 C   0  0  0  0  0  0  0  0  0  0  0  0
    2.0635    1.1900   -0.0028 H   0  0  0  0  0  0  0  0  0  0  0  0
  1  5  1  0
  5  8  1  0
  1  2  1  0
  1  3  1  0
  1  4  1  0
  5  6  1  0
  5  7  1  0
  8  9  1  0
  8 10  1  0
  8 11  1  0
 12 16  1  0
 16 17  2  0
 17 19  1  0
 19 21  2  0
 21 23  1  0
 23 25  2  0
 25 16  1  0
 12 13  1  0
 12 14  1  0
 12 15  1  0
 17 18  1  0
 19 20  1  0
 21 22  1  0
 23 24  1  0
 25 26  1  0
M  CHG  1   8   1
M  END
>  <PDB_ID>  (2444) 
pdb3r5a

>  <RESIDUE_NAME>  (2444) 
LYS   PHE

>  <FRAG_NAME>  (2444) 
ETAM   MBZ

>  <FRAG_ATOM_NUM>  (2444) 
fragi: 11  fragj: 15

>  <atom.prop.CHAIN_ID>  (2444) 
A A A A A A A A A A A Z Z Z Z Z Z Z Z Z Z Z Z Z Z Z

>  <atom.prop.IS_HEAVY_ATOM>  (2444) 
1 0 0 0 1 0 0 1 0 0 0 1 0 0 0 1 1 0 1 0 1 0 1 0 1 0

>  <DIFUSE_FUNC_ATOM>  (2444) 
n/a

>  <FINAL_SINGLE_POINT_ENERGY>  (2444) 
0

>  <NONCOV_INTER_ENERGY_QM>  (2444) 
0

>  <FF_Energy>  (2444) 
0.44

>  <QM_Energy>  (2444) 
-6.63

>  <source>  (2444) 
ETAM_MBZ

>  <Index>  (2444) 
25754

$$$$
ETAM-pdb4p7b-A-LYS-74:MBZ-pdb4p7b-A-PHE-47
     RDKit          3D

 26 25  0  0  0  0  0  0  0  0999 V2000
    0.4000    0.4749    4.4422 C   0  0  0  0  0  0  0  0  0  0  0  0
    0.3311    0.1002    5.3340 H   0  0  0  0  0  0  0  0  0  0  0  0
   -0.0069    1.3551    4.4135 H   0  0  0  0  0  0  0  0  0  0  0  0
    1.4503    0.5518    4.1607 H   0  0  0  0  0  0  0  0  0  0  0  0
   -0.3512   -0.4318    3.4821 C   0  0  0  0  0  0  0  0  0  0  0  0
   -1.2945   -0.4280    3.7082 H   0  0  0  0  0  0  0  0  0  0  0  0
   -0.2208   -0.1172    2.5739 H   0  0  0  0  0  0  0  0  0  0  0  0
    0.1429   -1.8274    3.5663 N   0  0  0  0  0  4  0  0  0  0  0  0
   -0.3080   -2.3440    2.9989 H   0  0  0  0  0  0  0  0  0  0  0  0
    1.0080   -1.8561    3.3601 H   0  0  0  0  0  0  0  0  0  0  0  0
    0.0312   -2.1394    4.3927 H   0  0  0  0  0  0  0  0  0  0  0  0
    0.0110    2.9239   -0.0273 C   0  0  0  0  0  0  0  0  0  0  0  0
    0.9002    3.2241    0.2185 H   0  0  0  0  0  0  0  0  0  0  0  0
   -0.6356    3.2396    0.6239 H   0  0  0  0  0  0  0  0  0  0  0  0
   -0.2423    3.3356   -1.0043 H   0  0  0  0  0  0  0  0  0  0  0  0
    0.0047    1.4075    0.0084 C   0  0  0  0  0  0  0  0  0  0  0  0
   -1.1956    0.7012    0.0075 C   0  0  0  0  0  0  0  0  0  0  0  0
   -2.0017    1.1639    0.0001 H   0  0  0  0  0  0  0  0  0  0  0  0
   -1.1978   -0.7003   -0.0000 C   0  0  0  0  0  0  0  0  0  0  0  0
   -2.0047   -1.1623    0.0042 H   0  0  0  0  0  0  0  0  0  0  0  0
    0.0009   -1.3997   -0.0132 C   0  0  0  0  0  0  0  0  0  0  0  0
    0.0013   -2.3296    0.0011 H   0  0  0  0  0  0  0  0  0  0  0  0
    1.1978   -0.7018   -0.0000 C   0  0  0  0  0  0  0  0  0  0  0  0
    2.0054   -1.1624   -0.0051 H   0  0  0  0  0  0  0  0  0  0  0  0
    1.1900    0.6932   -0.0028 C   0  0  0  0  0  0  0  0  0  0  0  0
    1.9984    1.1526   -0.0100 H   0  0  0  0  0  0  0  0  0  0  0  0
  1  5  1  0
  5  8  1  0
  1  2  1  0
  1  3  1  0
  1  4  1  0
  5  6  1  0
  5  7  1  0
  8  9  1  0
  8 10  1  0
  8 11  1  0
 12 16  1  0
 16 17  2  0
 17 19  1  0
 19 21  2  0
 21 23  1  0
 23 25  2  0
 25 16  1  0
 12 13  1  0
 12 14  1  0
 12 15  1  0
 17 18  1  0
 19 20  1  0
 21 22  1  0
 23 24  1  0
 25 26  1  0
M  CHG  1   8   1
M  END
>  <PDB_ID>  (2445) 
pdb4p7b

>  <RESIDUE_NAME>  (2445) 
LYS   PHE

>  <FRAG_NAME>  (2445) 
ETAM   MBZ

>  <FRAG_ATOM_NUM>  (2445) 
fragi: 11  fragj: 15

>  <atom.prop.CHAIN_ID>  (2445) 
A A A A A A A A A A A Z Z Z Z Z Z Z Z Z Z Z Z Z Z Z

>  <atom.prop.IS_HEAVY_ATOM>  (2445) 
1 0 0 0 1 0 0 1 0 0 0 1 0 0 0 1 1 0 1 0 1 0 1 0 1 0

>  <DIFUSE_FUNC_ATOM>  (2445) 
n/a

>  <FINAL_SINGLE_POINT_ENERGY>  (2445) 
0

>  <NONCOV_INTER_ENERGY_QM>  (2445) 
0

>  <FF_Energy>  (2445) 
-5.51

>  <QM_Energy>  (2445) 
-11.98

>  <source>  (2445) 
ETAM_MBZ

>  <Index>  (2445) 
25770

$$$$
ETAM-pdb3r5a-A-LYS-172:MBZ-pdb3r5a-A-PHE-165
     RDKit          3D

 26 25  0  0  0  0  0  0  0  0999 V2000
   -4.3872   -0.9305   -4.0656 C   0  0  0  0  0  0  0  0  0  0  0  0
   -4.7503   -0.8950   -5.0003 H   0  0  0  0  0  0  0  0  0  0  0  0
   -4.5567   -0.0506   -3.6162 H   0  0  0  0  0  0  0  0  0  0  0  0
   -4.9334   -1.7002   -3.5203 H   0  0  0  0  0  0  0  0  0  0  0  0
   -2.9025   -1.1755   -4.1230 C   0  0  0  0  0  0  0  0  0  0  0  0
   -2.7272   -2.0501   -4.5807 H   0  0  0  0  0  0  0  0  0  0  0  0
   -2.4631   -0.4398   -4.6434 H   0  0  0  0  0  0  0  0  0  0  0  0
   -2.3093   -1.2196   -2.7548 N   0  0  0  0  0  4  0  0  0  0  0  0
   -2.5147   -0.3657   -2.2780 H   0  0  0  0  0  0  0  0  0  0  0  0
   -2.7000   -1.9889   -2.2502 H   0  0  0  0  0  0  0  0  0  0  0  0
   -1.3194   -1.3335   -2.8285 H   0  0  0  0  0  0  0  0  0  0  0  0
    0.0042    2.8819   -0.0131 C   0  0  0  0  0  0  0  0  0  0  0  0
   -0.6588    3.1919   -0.6838 H   0  0  0  0  0  0  0  0  0  0  0  0
    0.9163    3.1911   -0.2534 H   0  0  0  0  0  0  0  0  0  0  0  0
   -0.2549    3.3523    0.9354 H   0  0  0  0  0  0  0  0  0  0  0  0
   -0.0024    1.3953    0.0074 C   0  0  0  0  0  0  0  0  0  0  0  0
   -1.1997    0.6914    0.0054 C   0  0  0  0  0  0  0  0  0  0  0  0
   -2.0638    1.1857    0.0070 H   0  0  0  0  0  0  0  0  0  0  0  0
   -1.1981   -0.6860   -0.0000 C   0  0  0  0  0  0  0  0  0  0  0  0
   -2.0731   -1.1902    0.0014 H   0  0  0  0  0  0  0  0  0  0  0  0
    0.0057   -1.3848   -0.0054 C   0  0  0  0  0  0  0  0  0  0  0  0
   -0.0091   -2.3866   -0.0135 H   0  0  0  0  0  0  0  0  0  0  0  0
    1.1981   -0.7014   -0.0000 C   0  0  0  0  0  0  0  0  0  0  0  0
    2.0814   -1.1993    0.0110 H   0  0  0  0  0  0  0  0  0  0  0  0
    1.1963    0.6854   -0.0073 C   0  0  0  0  0  0  0  0  0  0  0  0
    2.0630    1.1832   -0.0244 H   0  0  0  0  0  0  0  0  0  0  0  0
  1  5  1  0
  5  8  1  0
  1  2  1  0
  1  3  1  0
  1  4  1  0
  5  6  1  0
  5  7  1  0
  8  9  1  0
  8 10  1  0
  8 11  1  0
 12 16  1  0
 16 17  2  0
 17 19  1  0
 19 21  2  0
 21 23  1  0
 23 25  2  0
 25 16  1  0
 12 13  1  0
 12 14  1  0
 12 15  1  0
 17 18  1  0
 19 20  1  0
 21 22  1  0
 23 24  1  0
 25 26  1  0
M  CHG  1   8   1
M  END
>  <PDB_ID>  (2446) 
pdb3r5a

>  <RESIDUE_NAME>  (2446) 
LYS   PHE

>  <FRAG_NAME>  (2446) 
ETAM   MBZ

>  <FRAG_ATOM_NUM>  (2446) 
fragi: 11  fragj: 15

>  <atom.prop.CHAIN_ID>  (2446) 
A A A A A A A A A A A Z Z Z Z Z Z Z Z Z Z Z Z Z Z Z

>  <atom.prop.IS_HEAVY_ATOM>  (2446) 
1 0 0 0 1 0 0 1 0 0 0 1 0 0 0 1 1 0 1 0 1 0 1 0 1 0

>  <DIFUSE_FUNC_ATOM>  (2446) 
n/a

>  <FINAL_SINGLE_POINT_ENERGY>  (2446) 
0

>  <NONCOV_INTER_ENERGY_QM>  (2446) 
0

>  <FF_Energy>  (2446) 
-2.57

>  <QM_Energy>  (2446) 
-9.49

>  <source>  (2446) 
ETAM_MBZ

>  <Index>  (2446) 
25779

$$$$
ETAM-pdb4p8o-A-LYS-207:MBZ-pdb4p8o-A-PHE-204
     RDKit          3D

 26 25  0  0  0  0  0  0  0  0999 V2000
   -1.1826   -0.1251    5.0753 C   0  0  0  0  0  0  0  0  0  0  0  0
   -0.3191   -0.0742    5.5729 H   0  0  0  0  0  0  0  0  0  0  0  0
   -1.8276   -0.7012    5.5726 H   0  0  0  0  0  0  0  0  0  0  0  0
   -1.5989    0.8790    4.9961 H   0  0  0  0  0  0  0  0  0  0  0  0
   -0.9338   -0.7247    3.7235 C   0  0  0  0  0  0  0  0  0  0  0  0
   -0.4472   -0.0657    3.1489 H   0  0  0  0  0  0  0  0  0  0  0  0
   -0.3805   -1.5527    3.8207 H   0  0  0  0  0  0  0  0  0  0  0  0
   -2.2217   -1.0801    3.0655 N   0  0  0  0  0  4  0  0  0  0  0  0
   -2.1459   -0.9226    2.0818 H   0  0  0  0  0  0  0  0  0  0  0  0
   -2.4256   -2.0439    3.2356 H   0  0  0  0  0  0  0  0  0  0  0  0
   -2.9531   -0.5111    3.4407 H   0  0  0  0  0  0  0  0  0  0  0  0
    0.0029    2.9124    0.0000 C   0  0  0  0  0  0  0  0  0  0  0  0
   -0.6872    3.2141   -0.6317 H   0  0  0  0  0  0  0  0  0  0  0  0
    0.9028    3.2131   -0.2601 H   0  0  0  0  0  0  0  0  0  0  0  0
   -0.2256    3.3325    0.9795 H   0  0  0  0  0  0  0  0  0  0  0  0
    0.0003    1.4063    0.0047 C   0  0  0  0  0  0  0  0  0  0  0  0
   -1.1996    0.6945    0.0036 C   0  0  0  0  0  0  0  0  0  0  0  0
   -2.0647    1.1804    0.0037 H   0  0  0  0  0  0  0  0  0  0  0  0
   -1.1963   -0.7009   -0.0000 C   0  0  0  0  0  0  0  0  0  0  0  0
   -2.0740   -1.1952    0.0026 H   0  0  0  0  0  0  0  0  0  0  0  0
    0.0029   -1.3902   -0.0054 C   0  0  0  0  0  0  0  0  0  0  0  0
   -0.0035   -2.3941   -0.0142 H   0  0  0  0  0  0  0  0  0  0  0  0
    1.1963   -0.7034    0.0000 C   0  0  0  0  0  0  0  0  0  0  0  0
    2.0810   -1.1967    0.0080 H   0  0  0  0  0  0  0  0  0  0  0  0
    1.1963    0.6936   -0.0029 C   0  0  0  0  0  0  0  0  0  0  0  0
    2.0661    1.1844   -0.0111 H   0  0  0  0  0  0  0  0  0  0  0  0
  1  5  1  0
  5  8  1  0
  1  2  1  0
  1  3  1  0
  1  4  1  0
  5  6  1  0
  5  7  1  0
  8  9  1  0
  8 10  1  0
  8 11  1  0
 12 16  1  0
 16 17  2  0
 17 19  1  0
 19 21  2  0
 21 23  1  0
 23 25  2  0
 25 16  1  0
 12 13  1  0
 12 14  1  0
 12 15  1  0
 17 18  1  0
 19 20  1  0
 21 22  1  0
 23 24  1  0
 25 26  1  0
M  CHG  1   8   1
M  END
>  <PDB_ID>  (2447) 
pdb4p8o

>  <RESIDUE_NAME>  (2447) 
LYS   PHE

>  <FRAG_NAME>  (2447) 
ETAM   MBZ

>  <FRAG_ATOM_NUM>  (2447) 
fragi: 11  fragj: 15

>  <atom.prop.CHAIN_ID>  (2447) 
A A A A A A A A A A A Z Z Z Z Z Z Z Z Z Z Z Z Z Z Z

>  <atom.prop.IS_HEAVY_ATOM>  (2447) 
1 0 0 0 1 0 0 1 0 0 0 1 0 0 0 1 1 0 1 0 1 0 1 0 1 0

>  <DIFUSE_FUNC_ATOM>  (2447) 
n/a

>  <FINAL_SINGLE_POINT_ENERGY>  (2447) 
0

>  <NONCOV_INTER_ENERGY_QM>  (2447) 
0

>  <FF_Energy>  (2447) 
-4.82

>  <QM_Energy>  (2447) 
-12.29

>  <source>  (2447) 
ETAM_MBZ

>  <Index>  (2447) 
25785

$$$$
ETAM-pdb4pbv-E-LYS-203:MBZ-pdb4pbv-E-PHE-171
     RDKit          3D

 26 25  0  0  0  0  0  0  0  0999 V2000
   -3.7808   -2.9542   -3.8338 C   0  0  0  0  0  0  0  0  0  0  0  0
   -4.1530   -3.7665   -3.3976 H   0  0  0  0  0  0  0  0  0  0  0  0
   -3.2375   -3.2039   -4.6282 H   0  0  0  0  0  0  0  0  0  0  0  0
   -4.6090   -2.3258   -4.1614 H   0  0  0  0  0  0  0  0  0  0  0  0
   -2.8871   -2.2307   -2.8392 C   0  0  0  0  0  0  0  0  0  0  0  0
   -3.0587   -1.2399   -2.9049 H   0  0  0  0  0  0  0  0  0  0  0  0
   -3.1232   -2.5310   -1.9065 H   0  0  0  0  0  0  0  0  0  0  0  0
   -1.4262   -2.4836   -3.0707 N   0  0  0  0  0  4  0  0  0  0  0  0
   -1.3237   -3.1377   -3.8167 H   0  0  0  0  0  0  0  0  0  0  0  0
   -0.9807   -1.6235   -3.3100 H   0  0  0  0  0  0  0  0  0  0  0  0
   -1.0240   -2.8540   -2.2362 H   0  0  0  0  0  0  0  0  0  0  0  0
    0.0473    2.9075    0.0231 C   0  0  0  0  0  0  0  0  0  0  0  0
    0.6565    3.2118   -0.6971 H   0  0  0  0  0  0  0  0  0  0  0  0
    0.3846    3.1850    0.9127 H   0  0  0  0  0  0  0  0  0  0  0  0
   -0.9151    3.3955   -0.1313 H   0  0  0  0  0  0  0  0  0  0  0  0
    0.0018    1.4036   -0.0099 C   0  0  0  0  0  0  0  0  0  0  0  0
   -1.2003    0.6961    0.0067 C   0  0  0  0  0  0  0  0  0  0  0  0
   -2.0637    1.1852    0.0220 H   0  0  0  0  0  0  0  0  0  0  0  0
   -1.1996   -0.6963   -0.0000 C   0  0  0  0  0  0  0  0  0  0  0  0
   -2.0734   -1.1929   -0.0044 H   0  0  0  0  0  0  0  0  0  0  0  0
    0.0061   -1.3894    0.0008 C   0  0  0  0  0  0  0  0  0  0  0  0
   -0.0018   -2.3911    0.0017 H   0  0  0  0  0  0  0  0  0  0  0  0
    1.1996   -0.6995    0.0000 C   0  0  0  0  0  0  0  0  0  0  0  0
    2.0836   -1.1959   -0.0005 H   0  0  0  0  0  0  0  0  0  0  0  0
    1.1925    0.6855    0.0023 C   0  0  0  0  0  0  0  0  0  0  0  0
    2.0652    1.1844    0.0123 H   0  0  0  0  0  0  0  0  0  0  0  0
  1  5  1  0
  5  8  1  0
  1  2  1  0
  1  3  1  0
  1  4  1  0
  5  6  1  0
  5  7  1  0
  8  9  1  0
  8 10  1  0
  8 11  1  0
 12 16  1  0
 16 17  2  0
 17 19  1  0
 19 21  2  0
 21 23  1  0
 23 25  2  0
 25 16  1  0
 12 13  1  0
 12 14  1  0
 12 15  1  0
 17 18  1  0
 19 20  1  0
 21 22  1  0
 23 24  1  0
 25 26  1  0
M  CHG  1   8   1
M  END
>  <PDB_ID>  (2448) 
pdb4pbv

>  <RESIDUE_NAME>  (2448) 
LYS   PHE

>  <FRAG_NAME>  (2448) 
ETAM   MBZ

>  <FRAG_ATOM_NUM>  (2448) 
fragi: 11  fragj: 15

>  <atom.prop.CHAIN_ID>  (2448) 
A A A A A A A A A A A Z Z Z Z Z Z Z Z Z Z Z Z Z Z Z

>  <atom.prop.IS_HEAVY_ATOM>  (2448) 
1 0 0 0 1 0 0 1 0 0 0 1 0 0 0 1 1 0 1 0 1 0 1 0 1 0

>  <DIFUSE_FUNC_ATOM>  (2448) 
n/a

>  <FINAL_SINGLE_POINT_ENERGY>  (2448) 
0

>  <NONCOV_INTER_ENERGY_QM>  (2448) 
0

>  <FF_Energy>  (2448) 
-3.15

>  <QM_Energy>  (2448) 
-9.01

>  <source>  (2448) 
ETAM_MBZ

>  <Index>  (2448) 
25829

$$$$
ETAM-pdb4pet-A-LYS-326:MBZ-pdb4pet-A-PHE-323
     RDKit          3D

 26 25  0  0  0  0  0  0  0  0999 V2000
    0.9444    1.4669    4.9839 C   0  0  0  0  0  0  0  0  0  0  0  0
    1.4459    1.0182    5.6827 H   0  0  0  0  0  0  0  0  0  0  0  0
   -0.0002    1.4699    5.2035 H   0  0  0  0  0  0  0  0  0  0  0  0
    1.2941    2.4959    4.9007 H   0  0  0  0  0  0  0  0  0  0  0  0
    1.1247    0.6808    3.6985 C   0  0  0  0  0  0  0  0  0  0  0  0
    0.9055    1.2433    2.9394 H   0  0  0  0  0  0  0  0  0  0  0  0
    2.0393    0.3631    3.6366 H   0  0  0  0  0  0  0  0  0  0  0  0
    0.2029   -0.5057    3.6989 N   0  0  0  0  0  4  0  0  0  0  0  0
    0.3052   -0.9700    2.9473 H   0  0  0  0  0  0  0  0  0  0  0  0
    0.3876   -1.0330    4.3923 H   0  0  0  0  0  0  0  0  0  0  0  0
   -0.6418   -0.2337    3.7589 H   0  0  0  0  0  0  0  0  0  0  0  0
   -0.0044    2.9341    0.0191 C   0  0  0  0  0  0  0  0  0  0  0  0
   -0.6555    3.2393   -0.6325 H   0  0  0  0  0  0  0  0  0  0  0  0
    0.8822    3.2372   -0.2346 H   0  0  0  0  0  0  0  0  0  0  0  0
   -0.2556    3.3578    0.9915 H   0  0  0  0  0  0  0  0  0  0  0  0
   -0.0010    1.4113   -0.0016 C   0  0  0  0  0  0  0  0  0  0  0  0
   -1.1914    0.6932   -0.0048 C   0  0  0  0  0  0  0  0  0  0  0  0
   -2.0012    1.1491    0.0031 H   0  0  0  0  0  0  0  0  0  0  0  0
   -1.1883   -0.7013   -0.0000 C   0  0  0  0  0  0  0  0  0  0  0  0
   -1.9941   -1.1664   -0.0002 H   0  0  0  0  0  0  0  0  0  0  0  0
    0.0065   -1.3946    0.0103 C   0  0  0  0  0  0  0  0  0  0  0  0
    0.0062   -2.3246   -0.0006 H   0  0  0  0  0  0  0  0  0  0  0  0
    1.1883   -0.7110   -0.0000 C   0  0  0  0  0  0  0  0  0  0  0  0
    1.9944   -1.1748   -0.0003 H   0  0  0  0  0  0  0  0  0  0  0  0
    1.1859    0.7026   -0.0039 C   0  0  0  0  0  0  0  0  0  0  0  0
    1.9944    1.1621    0.0034 H   0  0  0  0  0  0  0  0  0  0  0  0
  1  5  1  0
  5  8  1  0
  1  2  1  0
  1  3  1  0
  1  4  1  0
  5  6  1  0
  5  7  1  0
  8  9  1  0
  8 10  1  0
  8 11  1  0
 12 16  1  0
 16 17  2  0
 17 19  1  0
 19 21  2  0
 21 23  1  0
 23 25  2  0
 25 16  1  0
 12 13  1  0
 12 14  1  0
 12 15  1  0
 17 18  1  0
 19 20  1  0
 21 22  1  0
 23 24  1  0
 25 26  1  0
M  CHG  1   8   1
M  END
>  <PDB_ID>  (2449) 
pdb4pet

>  <RESIDUE_NAME>  (2449) 
LYS   PHE

>  <FRAG_NAME>  (2449) 
ETAM   MBZ

>  <FRAG_ATOM_NUM>  (2449) 
fragi: 11  fragj: 15

>  <atom.prop.CHAIN_ID>  (2449) 
A A A A A A A A A A A Z Z Z Z Z Z Z Z Z Z Z Z Z Z Z

>  <atom.prop.IS_HEAVY_ATOM>  (2449) 
1 0 0 0 1 0 0 1 0 0 0 1 0 0 0 1 1 0 1 0 1 0 1 0 1 0

>  <DIFUSE_FUNC_ATOM>  (2449) 
n/a

>  <FINAL_SINGLE_POINT_ENERGY>  (2449) 
0

>  <NONCOV_INTER_ENERGY_QM>  (2449) 
0

>  <FF_Energy>  (2449) 
-7.03

>  <QM_Energy>  (2449) 
-12.55

>  <source>  (2449) 
ETAM_MBZ

>  <Index>  (2449) 
25872

$$$$
ETAM-pdb4pf1-D-LYS-254:MBZ-pdb4pf1-B-PHE-8
     RDKit          3D

 26 25  0  0  0  0  0  0  0  0999 V2000
    1.3146    2.0554   -3.7948 C   0  0  0  0  0  0  0  0  0  0  0  0
    1.5097    1.7201   -2.8695 H   0  0  0  0  0  0  0  0  0  0  0  0
    1.7254    2.9643   -3.9058 H   0  0  0  0  0  0  0  0  0  0  0  0
    1.7828    1.3781   -4.5090 H   0  0  0  0  0  0  0  0  0  0  0  0
   -0.1802    2.1713   -3.9667 C   0  0  0  0  0  0  0  0  0  0  0  0
   -0.5020    3.0070   -3.5080 H   0  0  0  0  0  0  0  0  0  0  0  0
   -0.3955    2.2427   -4.9468 H   0  0  0  0  0  0  0  0  0  0  0  0
   -0.9002    1.0003   -3.3982 N   0  0  0  0  0  4  0  0  0  0  0  0
   -0.5235    0.1587   -3.7856 H   0  0  0  0  0  0  0  0  0  0  0  0
   -0.7873    0.9916   -2.4049 H   0  0  0  0  0  0  0  0  0  0  0  0
   -1.8715    1.0664   -3.6243 H   0  0  0  0  0  0  0  0  0  0  0  0
    0.0004    2.9228   -0.0268 C   0  0  0  0  0  0  0  0  0  0  0  0
   -0.7194    3.2125   -0.6496 H   0  0  0  0  0  0  0  0  0  0  0  0
    0.8879    3.2192   -0.3639 H   0  0  0  0  0  0  0  0  0  0  0  0
   -0.1706    3.4224    0.9268 H   0  0  0  0  0  0  0  0  0  0  0  0
    0.0001    1.4083    0.0093 C   0  0  0  0  0  0  0  0  0  0  0  0
   -1.1938    0.6955   -0.0084 C   0  0  0  0  0  0  0  0  0  0  0  0
   -2.0631    1.1775   -0.0289 H   0  0  0  0  0  0  0  0  0  0  0  0
   -1.1926   -0.7042    0.0000 C   0  0  0  0  0  0  0  0  0  0  0  0
   -2.0737   -1.1932    0.0022 H   0  0  0  0  0  0  0  0  0  0  0  0
    0.0001   -1.3932    0.0069 C   0  0  0  0  0  0  0  0  0  0  0  0
   -0.0032   -2.3963    0.0164 H   0  0  0  0  0  0  0  0  0  0  0  0
    1.1926   -0.7026   -0.0000 C   0  0  0  0  0  0  0  0  0  0  0  0
    2.0789   -1.1959    0.0022 H   0  0  0  0  0  0  0  0  0  0  0  0
    1.1936    0.6962   -0.0078 C   0  0  0  0  0  0  0  0  0  0  0  0
    2.0638    1.1846   -0.0263 H   0  0  0  0  0  0  0  0  0  0  0  0
  1  5  1  0
  5  8  1  0
  1  2  1  0
  1  3  1  0
  1  4  1  0
  5  6  1  0
  5  7  1  0
  8  9  1  0
  8 10  1  0
  8 11  1  0
 12 16  1  0
 16 17  2  0
 17 19  1  0
 19 21  2  0
 21 23  1  0
 23 25  2  0
 25 16  1  0
 12 13  1  0
 12 14  1  0
 12 15  1  0
 17 18  1  0
 19 20  1  0
 21 22  1  0
 23 24  1  0
 25 26  1  0
M  CHG  1   8   1
M  END
>  <PDB_ID>  (2450) 
pdb4pf1

>  <RESIDUE_NAME>  (2450) 
LYS   PHE

>  <FRAG_NAME>  (2450) 
ETAM   MBZ

>  <FRAG_ATOM_NUM>  (2450) 
fragi: 11  fragj: 15

>  <atom.prop.CHAIN_ID>  (2450) 
A A A A A A A A A A A Z Z Z Z Z Z Z Z Z Z Z Z Z Z Z

>  <atom.prop.IS_HEAVY_ATOM>  (2450) 
1 0 0 0 1 0 0 1 0 0 0 1 0 0 0 1 1 0 1 0 1 0 1 0 1 0

>  <DIFUSE_FUNC_ATOM>  (2450) 
n/a

>  <FINAL_SINGLE_POINT_ENERGY>  (2450) 
0

>  <NONCOV_INTER_ENERGY_QM>  (2450) 
0

>  <FF_Energy>  (2450) 
-8.23

>  <QM_Energy>  (2450) 
-14.42

>  <source>  (2450) 
ETAM_MBZ

>  <Index>  (2450) 
25903

$$$$
ETAM-pdb4pg4-A-LYS-354:MBZ-pdb4pg4-A-PHE-381
     RDKit          3D

 26 25  0  0  0  0  0  0  0  0999 V2000
    2.4235   -3.9455   -3.8480 C   0  0  0  0  0  0  0  0  0  0  0  0
    2.0607   -3.0434   -3.9921 H   0  0  0  0  0  0  0  0  0  0  0  0
    1.8716   -4.6428   -4.2664 H   0  0  0  0  0  0  0  0  0  0  0  0
    3.4364   -3.9955   -4.2474 H   0  0  0  0  0  0  0  0  0  0  0  0
    2.4762   -4.2112   -2.3394 C   0  0  0  0  0  0  0  0  0  0  0  0
    1.5454   -4.2966   -1.9959 H   0  0  0  0  0  0  0  0  0  0  0  0
    2.9792   -5.0552   -2.1784 H   0  0  0  0  0  0  0  0  0  0  0  0
    3.1628   -3.0852   -1.6323 N   0  0  0  0  0  4  0  0  0  0  0  0
    3.1573   -2.2781   -2.2199 H   0  0  0  0  0  0  0  0  0  0  0  0
    2.6782   -2.8873   -0.7825 H   0  0  0  0  0  0  0  0  0  0  0  0
    4.1039   -3.3509   -1.4307 H   0  0  0  0  0  0  0  0  0  0  0  0
   -0.0071    2.8906    0.0354 C   0  0  0  0  0  0  0  0  0  0  0  0
    0.8642    3.1975    0.3951 H   0  0  0  0  0  0  0  0  0  0  0  0
   -0.7532    3.1861    0.6165 H   0  0  0  0  0  0  0  0  0  0  0  0
   -0.1432    3.3738   -0.9321 H   0  0  0  0  0  0  0  0  0  0  0  0
   -0.0028    1.3958   -0.0078 C   0  0  0  0  0  0  0  0  0  0  0  0
   -1.1971    0.6797    0.0120 C   0  0  0  0  0  0  0  0  0  0  0  0
   -2.0655    1.1732    0.0343 H   0  0  0  0  0  0  0  0  0  0  0  0
   -1.2015   -0.7038   -0.0000 C   0  0  0  0  0  0  0  0  0  0  0  0
   -2.0735   -1.2022   -0.0045 H   0  0  0  0  0  0  0  0  0  0  0  0
    0.0033   -1.3882   -0.0041 C   0  0  0  0  0  0  0  0  0  0  0  0
    0.0092   -2.3884   -0.0104 H   0  0  0  0  0  0  0  0  0  0  0  0
    1.2015   -0.6835   -0.0000 C   0  0  0  0  0  0  0  0  0  0  0  0
    2.0848   -1.1835    0.0042 H   0  0  0  0  0  0  0  0  0  0  0  0
    1.1966    0.7000   -0.0001 C   0  0  0  0  0  0  0  0  0  0  0  0
    2.0601    1.2004    0.0046 H   0  0  0  0  0  0  0  0  0  0  0  0
  1  5  1  0
  5  8  1  0
  1  2  1  0
  1  3  1  0
  1  4  1  0
  5  6  1  0
  5  7  1  0
  8  9  1  0
  8 10  1  0
  8 11  1  0
 12 16  1  0
 16 17  2  0
 17 19  1  0
 19 21  2  0
 21 23  1  0
 23 25  2  0
 25 16  1  0
 12 13  1  0
 12 14  1  0
 12 15  1  0
 17 18  1  0
 19 20  1  0
 21 22  1  0
 23 24  1  0
 25 26  1  0
M  CHG  1   8   1
M  END
>  <PDB_ID>  (2451) 
pdb4pg4

>  <RESIDUE_NAME>  (2451) 
LYS   PHE

>  <FRAG_NAME>  (2451) 
ETAM   MBZ

>  <FRAG_ATOM_NUM>  (2451) 
fragi: 11  fragj: 15

>  <atom.prop.CHAIN_ID>  (2451) 
A A A A A A A A A A A Z Z Z Z Z Z Z Z Z Z Z Z Z Z Z

>  <atom.prop.IS_HEAVY_ATOM>  (2451) 
1 0 0 0 1 0 0 1 0 0 0 1 0 0 0 1 1 0 1 0 1 0 1 0 1 0

>  <DIFUSE_FUNC_ATOM>  (2451) 
n/a

>  <FINAL_SINGLE_POINT_ENERGY>  (2451) 
0

>  <NONCOV_INTER_ENERGY_QM>  (2451) 
0

>  <FF_Energy>  (2451) 
0.62

>  <QM_Energy>  (2451) 
-4.66

>  <source>  (2451) 
ETAM_MBZ

>  <Index>  (2451) 
25914

$$$$
ETAM-pdb4pg6-A-LYS-354:MBZ-pdb4pg6-A-PHE-381
     RDKit          3D

 26 25  0  0  0  0  0  0  0  0999 V2000
   -1.9832   -4.1561    4.2311 C   0  0  0  0  0  0  0  0  0  0  0  0
   -1.6920   -3.2267    4.4233 H   0  0  0  0  0  0  0  0  0  0  0  0
   -1.3893   -4.8103    4.6848 H   0  0  0  0  0  0  0  0  0  0  0  0
   -3.0025   -4.2904    4.5932 H   0  0  0  0  0  0  0  0  0  0  0  0
   -1.9004   -4.3887    2.7278 C   0  0  0  0  0  0  0  0  0  0  0  0
   -0.9670   -4.1970    2.4188 H   0  0  0  0  0  0  0  0  0  0  0  0
   -2.1208   -5.3462    2.5329 H   0  0  0  0  0  0  0  0  0  0  0  0
   -2.8529   -3.5075    1.9765 N   0  0  0  0  0  4  0  0  0  0  0  0
   -3.5550   -3.1772    2.6032 H   0  0  0  0  0  0  0  0  0  0  0  0
   -2.3496   -2.7359    1.5935 H   0  0  0  0  0  0  0  0  0  0  0  0
   -3.2750   -4.0351    1.2416 H   0  0  0  0  0  0  0  0  0  0  0  0
    0.0082    2.8894   -0.0309 C   0  0  0  0  0  0  0  0  0  0  0  0
   -0.8780    3.1964   -0.3453 H   0  0  0  0  0  0  0  0  0  0  0  0
    0.7274    3.1836   -0.6434 H   0  0  0  0  0  0  0  0  0  0  0  0
    0.1926    3.3530    0.9382 H   0  0  0  0  0  0  0  0  0  0  0  0
    0.0015    1.3906    0.0000 C   0  0  0  0  0  0  0  0  0  0  0  0
   -1.1957    0.6983    0.0026 C   0  0  0  0  0  0  0  0  0  0  0  0
   -2.0581    1.1927    0.0056 H   0  0  0  0  0  0  0  0  0  0  0  0
   -1.1996   -0.6833   -0.0000 C   0  0  0  0  0  0  0  0  0  0  0  0
   -2.0781   -1.1811    0.0014 H   0  0  0  0  0  0  0  0  0  0  0  0
   -0.0009   -1.3840   -0.0031 C   0  0  0  0  0  0  0  0  0  0  0  0
   -0.0134   -2.3858   -0.0080 H   0  0  0  0  0  0  0  0  0  0  0  0
    1.1996   -0.7004    0.0000 C   0  0  0  0  0  0  0  0  0  0  0  0
    2.0779   -1.2035    0.0028 H   0  0  0  0  0  0  0  0  0  0  0  0
    1.1951    0.6788    0.0005 C   0  0  0  0  0  0  0  0  0  0  0  0
    2.0646    1.1793    0.0004 H   0  0  0  0  0  0  0  0  0  0  0  0
  1  5  1  0
  5  8  1  0
  1  2  1  0
  1  3  1  0
  1  4  1  0
  5  6  1  0
  5  7  1  0
  8  9  1  0
  8 10  1  0
  8 11  1  0
 12 16  1  0
 16 17  2  0
 17 19  1  0
 19 21  2  0
 21 23  1  0
 23 25  2  0
 25 16  1  0
 12 13  1  0
 12 14  1  0
 12 15  1  0
 17 18  1  0
 19 20  1  0
 21 22  1  0
 23 24  1  0
 25 26  1  0
M  CHG  1   8   1
M  END
>  <PDB_ID>  (2452) 
pdb4pg6

>  <RESIDUE_NAME>  (2452) 
LYS   PHE

>  <FRAG_NAME>  (2452) 
ETAM   MBZ

>  <FRAG_ATOM_NUM>  (2452) 
fragi: 11  fragj: 15

>  <atom.prop.CHAIN_ID>  (2452) 
A A A A A A A A A A A Z Z Z Z Z Z Z Z Z Z Z Z Z Z Z

>  <atom.prop.IS_HEAVY_ATOM>  (2452) 
1 0 0 0 1 0 0 1 0 0 0 1 0 0 0 1 1 0 1 0 1 0 1 0 1 0

>  <DIFUSE_FUNC_ATOM>  (2452) 
n/a

>  <FINAL_SINGLE_POINT_ENERGY>  (2452) 
0

>  <NONCOV_INTER_ENERGY_QM>  (2452) 
0

>  <FF_Energy>  (2452) 
-0.16

>  <QM_Energy>  (2452) 
-5.41

>  <source>  (2452) 
ETAM_MBZ

>  <Index>  (2452) 
25916

$$$$
ETAM-pdb4pg6-B-LYS-35:MBZ-pdb4pg6-B-PHE-321
     RDKit          3D

 26 25  0  0  0  0  0  0  0  0999 V2000
    2.8841   -3.6134    2.8207 C   0  0  0  0  0  0  0  0  0  0  0  0
    2.9812   -3.7989    3.7985 H   0  0  0  0  0  0  0  0  0  0  0  0
    3.5537   -2.9245    2.5435 H   0  0  0  0  0  0  0  0  0  0  0  0
    3.0832   -4.5331    2.2707 H   0  0  0  0  0  0  0  0  0  0  0  0
    1.4967   -3.0731    2.5634 C   0  0  0  0  0  0  0  0  0  0  0  0
    1.1121   -3.5265    1.7589 H   0  0  0  0  0  0  0  0  0  0  0  0
    0.9192   -3.2596    3.3574 H   0  0  0  0  0  0  0  0  0  0  0  0
    1.5413   -1.6085    2.3247 N   0  0  0  0  0  4  0  0  0  0  0  0
    0.7947   -1.1665    2.8237 H   0  0  0  0  0  0  0  0  0  0  0  0
    2.4165   -1.2458    2.6435 H   0  0  0  0  0  0  0  0  0  0  0  0
    1.4408   -1.4276    1.3464 H   0  0  0  0  0  0  0  0  0  0  0  0
   -0.0084    2.8949   -0.0268 C   0  0  0  0  0  0  0  0  0  0  0  0
   -0.8204    3.1908   -0.5313 H   0  0  0  0  0  0  0  0  0  0  0  0
    0.8127    3.2022   -0.5103 H   0  0  0  0  0  0  0  0  0  0  0  0
   -0.0244    3.3942    0.9420 H   0  0  0  0  0  0  0  0  0  0  0  0
    0.0020    1.3989   -0.0080 C   0  0  0  0  0  0  0  0  0  0  0  0
   -1.1987    0.6917   -0.0087 C   0  0  0  0  0  0  0  0  0  0  0  0
   -2.0642    1.1934   -0.0170 H   0  0  0  0  0  0  0  0  0  0  0  0
   -1.2194   -0.6922    0.0000 C   0  0  0  0  0  0  0  0  0  0  0  0
   -2.0883   -1.1858   -0.0099 H   0  0  0  0  0  0  0  0  0  0  0  0
   -0.0064   -1.3903    0.0266 C   0  0  0  0  0  0  0  0  0  0  0  0
   -0.0120   -2.3899    0.0625 H   0  0  0  0  0  0  0  0  0  0  0  0
    1.2194   -0.7009   -0.0000 C   0  0  0  0  0  0  0  0  0  0  0  0
    2.0853   -1.2011   -0.0088 H   0  0  0  0  0  0  0  0  0  0  0  0
    1.2032    0.6928   -0.0099 C   0  0  0  0  0  0  0  0  0  0  0  0
    2.0689    1.1942   -0.0195 H   0  0  0  0  0  0  0  0  0  0  0  0
  1  5  1  0
  5  8  1  0
  1  2  1  0
  1  3  1  0
  1  4  1  0
  5  6  1  0
  5  7  1  0
  8  9  1  0
  8 10  1  0
  8 11  1  0
 12 16  1  0
 16 17  2  0
 17 19  1  0
 19 21  2  0
 21 23  1  0
 23 25  2  0
 25 16  1  0
 12 13  1  0
 12 14  1  0
 12 15  1  0
 17 18  1  0
 19 20  1  0
 21 22  1  0
 23 24  1  0
 25 26  1  0
M  CHG  1   8   1
M  END
>  <PDB_ID>  (2453) 
pdb4pg6

>  <RESIDUE_NAME>  (2453) 
LYS   PHE

>  <FRAG_NAME>  (2453) 
ETAM   MBZ

>  <FRAG_ATOM_NUM>  (2453) 
fragi: 11  fragj: 15

>  <atom.prop.CHAIN_ID>  (2453) 
A A A A A A A A A A A Z Z Z Z Z Z Z Z Z Z Z Z Z Z Z

>  <atom.prop.IS_HEAVY_ATOM>  (2453) 
1 0 0 0 1 0 0 1 0 0 0 1 0 0 0 1 1 0 1 0 1 0 1 0 1 0

>  <DIFUSE_FUNC_ATOM>  (2453) 
n/a

>  <FINAL_SINGLE_POINT_ENERGY>  (2453) 
0

>  <NONCOV_INTER_ENERGY_QM>  (2453) 
0

>  <FF_Energy>  (2453) 
18.47

>  <QM_Energy>  (2453) 
3.57

>  <source>  (2453) 
ETAM_MBZ

>  <Index>  (2453) 
25918

$$$$
ETAM-pdb3qml-D-LYS-170:MBZ-pdb3qml-D-PHE-126
     RDKit          3D

 26 25  0  0  0  0  0  0  0  0999 V2000
    2.8491    3.1326    1.6519 C   0  0  0  0  0  0  0  0  0  0  0  0
    2.7782    2.9683    0.6692 H   0  0  0  0  0  0  0  0  0  0  0  0
    2.3096    2.4541    2.1471 H   0  0  0  0  0  0  0  0  0  0  0  0
    3.8935    3.0293    1.9463 H   0  0  0  0  0  0  0  0  0  0  0  0
    2.2699    4.5242    1.9522 C   0  0  0  0  0  0  0  0  0  0  0  0
    1.2706    4.4915    1.8014 H   0  0  0  0  0  0  0  0  0  0  0  0
    2.4253    4.7282    2.9307 H   0  0  0  0  0  0  0  0  0  0  0  0
    2.8548    5.6158    1.1260 N   0  0  0  0  0  4  0  0  0  0  0  0
    3.7979    5.7788    1.4126 H   0  0  0  0  0  0  0  0  0  0  0  0
    2.8390    5.3473    0.1631 H   0  0  0  0  0  0  0  0  0  0  0  0
    2.3178    6.4496    1.2495 H   0  0  0  0  0  0  0  0  0  0  0  0
   -0.0034    2.9091    0.0215 C   0  0  0  0  0  0  0  0  0  0  0  0
    0.7341    3.2042    0.6141 H   0  0  0  0  0  0  0  0  0  0  0  0
   -0.8812    3.2034    0.3757 H   0  0  0  0  0  0  0  0  0  0  0  0
    0.1403    3.3755   -0.9531 H   0  0  0  0  0  0  0  0  0  0  0  0
    0.0002    1.4026   -0.0034 C   0  0  0  0  0  0  0  0  0  0  0  0
   -1.1936    0.6914    0.0027 C   0  0  0  0  0  0  0  0  0  0  0  0
   -2.0622    1.1805    0.0075 H   0  0  0  0  0  0  0  0  0  0  0  0
   -1.1972   -0.6989    0.0000 C   0  0  0  0  0  0  0  0  0  0  0  0
   -2.0763   -1.1913   -0.0003 H   0  0  0  0  0  0  0  0  0  0  0  0
   -0.0009   -1.3919   -0.0005 C   0  0  0  0  0  0  0  0  0  0  0  0
   -0.0031   -2.3926   -0.0014 H   0  0  0  0  0  0  0  0  0  0  0  0
    1.1972   -0.6971   -0.0000 C   0  0  0  0  0  0  0  0  0  0  0  0
    2.0798   -1.1947    0.0015 H   0  0  0  0  0  0  0  0  0  0  0  0
    1.1944    0.6939    0.0012 C   0  0  0  0  0  0  0  0  0  0  0  0
    2.0636    1.1880    0.0044 H   0  0  0  0  0  0  0  0  0  0  0  0
  1  5  1  0
  5  8  1  0
  1  2  1  0
  1  3  1  0
  1  4  1  0
  5  6  1  0
  5  7  1  0
  8  9  1  0
  8 10  1  0
  8 11  1  0
 12 16  1  0
 16 17  2  0
 17 19  1  0
 19 21  2  0
 21 23  1  0
 23 25  2  0
 25 16  1  0
 12 13  1  0
 12 14  1  0
 12 15  1  0
 17 18  1  0
 19 20  1  0
 21 22  1  0
 23 24  1  0
 25 26  1  0
M  CHG  1   8   1
M  END
>  <PDB_ID>  (2454) 
pdb3qml

>  <RESIDUE_NAME>  (2454) 
LYS   PHE

>  <FRAG_NAME>  (2454) 
ETAM   MBZ

>  <FRAG_ATOM_NUM>  (2454) 
fragi: 11  fragj: 15

>  <atom.prop.CHAIN_ID>  (2454) 
A A A A A A A A A A A Z Z Z Z Z Z Z Z Z Z Z Z Z Z Z

>  <atom.prop.IS_HEAVY_ATOM>  (2454) 
1 0 0 0 1 0 0 1 0 0 0 1 0 0 0 1 1 0 1 0 1 0 1 0 1 0

>  <DIFUSE_FUNC_ATOM>  (2454) 
n/a

>  <FINAL_SINGLE_POINT_ENERGY>  (2454) 
0

>  <NONCOV_INTER_ENERGY_QM>  (2454) 
0

>  <FF_Energy>  (2454) 
7.81

>  <QM_Energy>  (2454) 
1.08

>  <source>  (2454) 
ETAM_MBZ

>  <Index>  (2454) 
25927

$$$$
ETAM-pdb3rcz-B-LYS-141:MBZ-pdb3rcz-B-PHE-137
     RDKit          3D

 26 25  0  0  0  0  0  0  0  0999 V2000
   -2.4635   -0.0663    4.0602 C   0  0  0  0  0  0  0  0  0  0  0  0
   -3.3819   -0.1504    4.4381 H   0  0  0  0  0  0  0  0  0  0  0  0
   -2.4563    0.6006    3.3200 H   0  0  0  0  0  0  0  0  0  0  0  0
   -1.7858    0.2673    4.8460 H   0  0  0  0  0  0  0  0  0  0  0  0
   -2.0459   -1.4125    3.5009 C   0  0  0  0  0  0  0  0  0  0  0  0
   -1.2875   -1.2811    2.8668 H   0  0  0  0  0  0  0  0  0  0  0  0
   -1.7606   -2.0035    4.2524 H   0  0  0  0  0  0  0  0  0  0  0  0
   -3.1834   -2.0433    2.7837 N   0  0  0  0  0  4  0  0  0  0  0  0
   -4.0306   -1.8715    3.2861 H   0  0  0  0  0  0  0  0  0  0  0  0
   -3.2559   -1.6539    1.8655 H   0  0  0  0  0  0  0  0  0  0  0  0
   -3.0294   -3.0287    2.7170 H   0  0  0  0  0  0  0  0  0  0  0  0
    0.0011    2.9084   -0.0056 C   0  0  0  0  0  0  0  0  0  0  0  0
   -0.7393    3.2098   -0.5864 H   0  0  0  0  0  0  0  0  0  0  0  0
    0.8765    3.2119   -0.3475 H   0  0  0  0  0  0  0  0  0  0  0  0
   -0.1447    3.3522    0.9792 H   0  0  0  0  0  0  0  0  0  0  0  0
    0.0021    1.3980   -0.0007 C   0  0  0  0  0  0  0  0  0  0  0  0
   -1.1923    0.6892    0.0015 C   0  0  0  0  0  0  0  0  0  0  0  0
   -2.0594    1.1814    0.0028 H   0  0  0  0  0  0  0  0  0  0  0  0
   -1.1954   -0.6940   -0.0000 C   0  0  0  0  0  0  0  0  0  0  0  0
   -2.0743   -1.1891   -0.0001 H   0  0  0  0  0  0  0  0  0  0  0  0
   -0.0007   -1.3872   -0.0001 C   0  0  0  0  0  0  0  0  0  0  0  0
   -0.0061   -2.3888   -0.0006 H   0  0  0  0  0  0  0  0  0  0  0  0
    1.1954   -0.6969    0.0000 C   0  0  0  0  0  0  0  0  0  0  0  0
    2.0781   -1.1945    0.0018 H   0  0  0  0  0  0  0  0  0  0  0  0
    1.1909    0.6909   -0.0008 C   0  0  0  0  0  0  0  0  0  0  0  0
    2.0623    1.1864   -0.0023 H   0  0  0  0  0  0  0  0  0  0  0  0
  1  5  1  0
  5  8  1  0
  1  2  1  0
  1  3  1  0
  1  4  1  0
  5  6  1  0
  5  7  1  0
  8  9  1  0
  8 10  1  0
  8 11  1  0
 12 16  1  0
 16 17  2  0
 17 19  1  0
 19 21  2  0
 21 23  1  0
 23 25  2  0
 25 16  1  0
 12 13  1  0
 12 14  1  0
 12 15  1  0
 17 18  1  0
 19 20  1  0
 21 22  1  0
 23 24  1  0
 25 26  1  0
M  CHG  1   8   1
M  END
>  <PDB_ID>  (2455) 
pdb3rcz

>  <RESIDUE_NAME>  (2455) 
LYS   PHE

>  <FRAG_NAME>  (2455) 
ETAM   MBZ

>  <FRAG_ATOM_NUM>  (2455) 
fragi: 11  fragj: 15

>  <atom.prop.CHAIN_ID>  (2455) 
A A A A A A A A A A A Z Z Z Z Z Z Z Z Z Z Z Z Z Z Z

>  <atom.prop.IS_HEAVY_ATOM>  (2455) 
1 0 0 0 1 0 0 1 0 0 0 1 0 0 0 1 1 0 1 0 1 0 1 0 1 0

>  <DIFUSE_FUNC_ATOM>  (2455) 
n/a

>  <FINAL_SINGLE_POINT_ENERGY>  (2455) 
0

>  <NONCOV_INTER_ENERGY_QM>  (2455) 
0

>  <FF_Energy>  (2455) 
-2.15

>  <QM_Energy>  (2455) 
-7.41

>  <source>  (2455) 
ETAM_MBZ

>  <Index>  (2455) 
25929

$$$$
ETAM-pdb3rbq-C-LYS-231:MBZ-pdb3rbq-E-PHE-181
     RDKit          3D

 26 25  0  0  0  0  0  0  0  0999 V2000
   -0.1166   -0.1938   -3.4941 C   0  0  0  0  0  0  0  0  0  0  0  0
    0.8510   -0.1523   -3.3395 H   0  0  0  0  0  0  0  0  0  0  0  0
   -0.6311    0.2821   -2.8086 H   0  0  0  0  0  0  0  0  0  0  0  0
   -0.3414    0.2326   -4.4718 H   0  0  0  0  0  0  0  0  0  0  0  0
   -0.5480   -1.6754   -3.4852 C   0  0  0  0  0  0  0  0  0  0  0  0
   -0.1199   -2.1396   -4.2640 H   0  0  0  0  0  0  0  0  0  0  0  0
   -0.2264   -2.0999   -2.6350 H   0  0  0  0  0  0  0  0  0  0  0  0
   -2.0513   -1.8529   -3.5786 N   0  0  0  0  0  4  0  0  0  0  0  0
   -2.2508   -2.4917   -4.3154 H   0  0  0  0  0  0  0  0  0  0  0  0
   -2.3836   -2.2107   -2.7119 H   0  0  0  0  0  0  0  0  0  0  0  0
   -2.4644   -0.9674   -3.7680 H   0  0  0  0  0  0  0  0  0  0  0  0
   -0.0248    2.8523    0.0787 C   0  0  0  0  0  0  0  0  0  0  0  0
   -0.6839    3.2233   -0.5518 H   0  0  0  0  0  0  0  0  0  0  0  0
    0.8796    3.2088   -0.0769 H   0  0  0  0  0  0  0  0  0  0  0  0
   -0.3233    3.1885    1.0717 H   0  0  0  0  0  0  0  0  0  0  0  0
   -0.0058    1.3964   -0.0279 C   0  0  0  0  0  0  0  0  0  0  0  0
   -1.1974    0.6747    0.0140 C   0  0  0  0  0  0  0  0  0  0  0  0
   -2.0663    1.1718    0.0534 H   0  0  0  0  0  0  0  0  0  0  0  0
   -1.1990   -0.6961    0.0000 C   0  0  0  0  0  0  0  0  0  0  0  0
   -2.0704   -1.2024   -0.0180 H   0  0  0  0  0  0  0  0  0  0  0  0
    0.0074   -1.3872    0.0121 C   0  0  0  0  0  0  0  0  0  0  0  0
    0.0022   -2.3883    0.0287 H   0  0  0  0  0  0  0  0  0  0  0  0
    1.1990   -0.6927   -0.0000 C   0  0  0  0  0  0  0  0  0  0  0  0
    2.0861   -1.1841   -0.0090 H   0  0  0  0  0  0  0  0  0  0  0  0
    1.1957    0.7049    0.0019 C   0  0  0  0  0  0  0  0  0  0  0  0
    2.0584    1.1990    0.0241 H   0  0  0  0  0  0  0  0  0  0  0  0
  1  5  1  0
  5  8  1  0
  1  2  1  0
  1  3  1  0
  1  4  1  0
  5  6  1  0
  5  7  1  0
  8  9  1  0
  8 10  1  0
  8 11  1  0
 12 16  1  0
 16 17  2  0
 17 19  1  0
 19 21  2  0
 21 23  1  0
 23 25  2  0
 25 16  1  0
 12 13  1  0
 12 14  1  0
 12 15  1  0
 17 18  1  0
 19 20  1  0
 21 22  1  0
 23 24  1  0
 25 26  1  0
M  CHG  1   8   1
M  END
>  <PDB_ID>  (2456) 
pdb3rbq

>  <RESIDUE_NAME>  (2456) 
LYS   PHE

>  <FRAG_NAME>  (2456) 
ETAM   MBZ

>  <FRAG_ATOM_NUM>  (2456) 
fragi: 11  fragj: 15

>  <atom.prop.CHAIN_ID>  (2456) 
A A A A A A A A A A A Z Z Z Z Z Z Z Z Z Z Z Z Z Z Z

>  <atom.prop.IS_HEAVY_ATOM>  (2456) 
1 0 0 0 1 0 0 1 0 0 0 1 0 0 0 1 1 0 1 0 1 0 1 0 1 0

>  <DIFUSE_FUNC_ATOM>  (2456) 
n/a

>  <FINAL_SINGLE_POINT_ENERGY>  (2456) 
0

>  <NONCOV_INTER_ENERGY_QM>  (2456) 
0

>  <FF_Energy>  (2456) 
-4.31

>  <QM_Energy>  (2456) 
-9.72

>  <source>  (2456) 
ETAM_MBZ

>  <Index>  (2456) 
25939

$$$$
ETAM-pdb3rbq-D-LYS-231:MBZ-pdb3rbq-A-PHE-181
     RDKit          3D

 26 25  0  0  0  0  0  0  0  0999 V2000
   -0.1742    0.0037   -3.5305 C   0  0  0  0  0  0  0  0  0  0  0  0
    0.7585    0.1112   -3.2518 H   0  0  0  0  0  0  0  0  0  0  0  0
   -0.8046    0.4716   -2.9458 H   0  0  0  0  0  0  0  0  0  0  0  0
   -0.2724    0.4230   -4.5318 H   0  0  0  0  0  0  0  0  0  0  0  0
   -0.5254   -1.4734   -3.5798 C   0  0  0  0  0  0  0  0  0  0  0  0
   -0.1685   -1.8700   -4.4183 H   0  0  0  0  0  0  0  0  0  0  0  0
   -0.1377   -1.9327   -2.7873 H   0  0  0  0  0  0  0  0  0  0  0  0
   -2.0236   -1.6495   -3.5579 N   0  0  0  0  0  4  0  0  0  0  0  0
   -2.2845   -2.2782   -4.2851 H   0  0  0  0  0  0  0  0  0  0  0  0
   -2.2906   -2.0198   -2.6729 H   0  0  0  0  0  0  0  0  0  0  0  0
   -2.4532   -0.7622   -3.7017 H   0  0  0  0  0  0  0  0  0  0  0  0
   -0.0514    2.8748   -0.0221 C   0  0  0  0  0  0  0  0  0  0  0  0
   -0.7700    3.1789   -0.6116 H   0  0  0  0  0  0  0  0  0  0  0  0
    0.8291    3.2097   -0.2829 H   0  0  0  0  0  0  0  0  0  0  0  0
   -0.2630    3.2745    0.9696 H   0  0  0  0  0  0  0  0  0  0  0  0
   -0.0229    1.3815   -0.0211 C   0  0  0  0  0  0  0  0  0  0  0  0
   -1.1908    0.6902   -0.0192 C   0  0  0  0  0  0  0  0  0  0  0  0
   -2.0727    1.1740   -0.0330 H   0  0  0  0  0  0  0  0  0  0  0  0
   -1.2208   -0.7136    0.0000 C   0  0  0  0  0  0  0  0  0  0  0  0
   -2.0722   -1.2039   -0.0131 H   0  0  0  0  0  0  0  0  0  0  0  0
    0.0201   -1.3942    0.0405 C   0  0  0  0  0  0  0  0  0  0  0  0
    0.0244   -2.3898    0.0977 H   0  0  0  0  0  0  0  0  0  0  0  0
    1.2208   -0.6806   -0.0000 C   0  0  0  0  0  0  0  0  0  0  0  0
    2.1032   -1.1646   -0.0272 H   0  0  0  0  0  0  0  0  0  0  0  0
    1.1936    0.7167   -0.0002 C   0  0  0  0  0  0  0  0  0  0  0  0
    2.0449    1.2271    0.0139 H   0  0  0  0  0  0  0  0  0  0  0  0
  1  5  1  0
  5  8  1  0
  1  2  1  0
  1  3  1  0
  1  4  1  0
  5  6  1  0
  5  7  1  0
  8  9  1  0
  8 10  1  0
  8 11  1  0
 12 16  1  0
 16 17  2  0
 17 19  1  0
 19 21  2  0
 21 23  1  0
 23 25  2  0
 25 16  1  0
 12 13  1  0
 12 14  1  0
 12 15  1  0
 17 18  1  0
 19 20  1  0
 21 22  1  0
 23 24  1  0
 25 26  1  0
M  CHG  1   8   1
M  END
>  <PDB_ID>  (2457) 
pdb3rbq

>  <RESIDUE_NAME>  (2457) 
LYS   PHE

>  <FRAG_NAME>  (2457) 
ETAM   MBZ

>  <FRAG_ATOM_NUM>  (2457) 
fragi: 11  fragj: 15

>  <atom.prop.CHAIN_ID>  (2457) 
A A A A A A A A A A A Z Z Z Z Z Z Z Z Z Z Z Z Z Z Z

>  <atom.prop.IS_HEAVY_ATOM>  (2457) 
1 0 0 0 1 0 0 1 0 0 0 1 0 0 0 1 1 0 1 0 1 0 1 0 1 0

>  <DIFUSE_FUNC_ATOM>  (2457) 
n/a

>  <FINAL_SINGLE_POINT_ENERGY>  (2457) 
0

>  <NONCOV_INTER_ENERGY_QM>  (2457) 
0

>  <FF_Energy>  (2457) 
-4.78

>  <QM_Energy>  (2457) 
-10.21

>  <source>  (2457) 
ETAM_MBZ

>  <Index>  (2457) 
25963

$$$$
ETAM-pdb4pkg-G-LYS-168:MBZ-pdb4pkg-G-PHE-90
     RDKit          3D

 26 25  0  0  0  0  0  0  0  0999 V2000
   -1.8283   -0.6486   -3.6125 C   0  0  0  0  0  0  0  0  0  0  0  0
   -2.1844   -1.3203   -3.0101 H   0  0  0  0  0  0  0  0  0  0  0  0
   -1.9598   -0.9166   -4.5359 H   0  0  0  0  0  0  0  0  0  0  0  0
   -2.3300    0.3025   -3.4343 H   0  0  0  0  0  0  0  0  0  0  0  0
   -0.3251   -0.5163   -3.3571 C   0  0  0  0  0  0  0  0  0  0  0  0
    0.0470    0.1452   -3.9616 H   0  0  0  0  0  0  0  0  0  0  0  0
   -0.1780   -0.2524   -2.4348 H   0  0  0  0  0  0  0  0  0  0  0  0
    0.3710   -1.8111   -3.5913 N   0  0  0  0  0  4  0  0  0  0  0  0
    0.2502   -2.0731   -4.4332 H   0  0  0  0  0  0  0  0  0  0  0  0
    1.2437   -1.7198   -3.4391 H   0  0  0  0  0  0  0  0  0  0  0  0
    0.0463   -2.4346   -3.0454 H   0  0  0  0  0  0  0  0  0  0  0  0
    0.0027    2.9221    0.0140 C   0  0  0  0  0  0  0  0  0  0  0  0
    0.9269    3.2169    0.0042 H   0  0  0  0  0  0  0  0  0  0  0  0
   -0.4220    3.2032    0.8404 H   0  0  0  0  0  0  0  0  0  0  0  0
   -0.5206    3.3863   -0.8220 H   0  0  0  0  0  0  0  0  0  0  0  0
    0.0027    1.4037   -0.0108 C   0  0  0  0  0  0  0  0  0  0  0  0
   -1.1952    0.6899    0.0015 C   0  0  0  0  0  0  0  0  0  0  0  0
   -2.0029    1.1511    0.0008 H   0  0  0  0  0  0  0  0  0  0  0  0
   -1.2012   -0.6988    0.0000 C   0  0  0  0  0  0  0  0  0  0  0  0
   -2.0081   -1.1613    0.0010 H   0  0  0  0  0  0  0  0  0  0  0  0
   -0.0011   -1.3975    0.0060 C   0  0  0  0  0  0  0  0  0  0  0  0
   -0.0011   -2.3272    0.0008 H   0  0  0  0  0  0  0  0  0  0  0  0
    1.2012   -0.6995   -0.0000 C   0  0  0  0  0  0  0  0  0  0  0  0
    2.0084   -1.1609    0.0029 H   0  0  0  0  0  0  0  0  0  0  0  0
    1.1936    0.7022    0.0032 C   0  0  0  0  0  0  0  0  0  0  0  0
    2.0001    1.1666    0.0033 H   0  0  0  0  0  0  0  0  0  0  0  0
  1  5  1  0
  5  8  1  0
  1  2  1  0
  1  3  1  0
  1  4  1  0
  5  6  1  0
  5  7  1  0
  8  9  1  0
  8 10  1  0
  8 11  1  0
 12 16  1  0
 16 17  2  0
 17 19  1  0
 19 21  2  0
 21 23  1  0
 23 25  2  0
 25 16  1  0
 12 13  1  0
 12 14  1  0
 12 15  1  0
 17 18  1  0
 19 20  1  0
 21 22  1  0
 23 24  1  0
 25 26  1  0
M  CHG  1   8   1
M  END
>  <PDB_ID>  (2458) 
pdb4pkg

>  <RESIDUE_NAME>  (2458) 
LYS   PHE

>  <FRAG_NAME>  (2458) 
ETAM   MBZ

>  <FRAG_ATOM_NUM>  (2458) 
fragi: 11  fragj: 15

>  <atom.prop.CHAIN_ID>  (2458) 
A A A A A A A A A A A Z Z Z Z Z Z Z Z Z Z Z Z Z Z Z

>  <atom.prop.IS_HEAVY_ATOM>  (2458) 
1 0 0 0 1 0 0 1 0 0 0 1 0 0 0 1 1 0 1 0 1 0 1 0 1 0

>  <DIFUSE_FUNC_ATOM>  (2458) 
n/a

>  <FINAL_SINGLE_POINT_ENERGY>  (2458) 
0

>  <NONCOV_INTER_ENERGY_QM>  (2458) 
0

>  <FF_Energy>  (2458) 
-4.98

>  <QM_Energy>  (2458) 
-12.29

>  <source>  (2458) 
ETAM_MBZ

>  <Index>  (2458) 
25968

$$$$
ETAM-pdb3rgc-B-LYS-176:MBZ-pdb3rgc-B-PHE-208
     RDKit          3D

 26 25  0  0  0  0  0  0  0  0999 V2000
    4.0317   -1.8964    0.4976 C   0  0  0  0  0  0  0  0  0  0  0  0
    3.1408   -1.7413    0.9071 H   0  0  0  0  0  0  0  0  0  0  0  0
    4.5104   -1.0370    0.3637 H   0  0  0  0  0  0  0  0  0  0  0  0
    4.6205   -2.5369    1.1541 H   0  0  0  0  0  0  0  0  0  0  0  0
    3.8239   -2.5488   -0.8724 C   0  0  0  0  0  0  0  0  0  0  0  0
    4.0602   -3.5271   -0.8020 H   0  0  0  0  0  0  0  0  0  0  0  0
    2.8468   -2.4820   -1.1158 H   0  0  0  0  0  0  0  0  0  0  0  0
    4.6402   -1.9285   -1.9619 N   0  0  0  0  0  4  0  0  0  0  0  0
    5.1404   -1.1472   -1.5926 H   0  0  0  0  0  0  0  0  0  0  0  0
    5.2835   -2.6051   -2.3149 H   0  0  0  0  0  0  0  0  0  0  0  0
    4.0337   -1.6259   -2.6942 H   0  0  0  0  0  0  0  0  0  0  0  0
   -0.0037    2.8890    0.0248 C   0  0  0  0  0  0  0  0  0  0  0  0
    0.8324    3.1906    0.4625 H   0  0  0  0  0  0  0  0  0  0  0  0
   -0.7987    3.1863    0.5351 H   0  0  0  0  0  0  0  0  0  0  0  0
   -0.0492    3.3485   -0.9626 H   0  0  0  0  0  0  0  0  0  0  0  0
   -0.0011    1.3908    0.0019 C   0  0  0  0  0  0  0  0  0  0  0  0
   -1.1918    0.6838   -0.0000 C   0  0  0  0  0  0  0  0  0  0  0  0
   -2.0598    1.1766   -0.0027 H   0  0  0  0  0  0  0  0  0  0  0  0
   -1.1932   -0.6930    0.0000 C   0  0  0  0  0  0  0  0  0  0  0  0
   -2.0694   -1.1933    0.0053 H   0  0  0  0  0  0  0  0  0  0  0  0
    0.0039   -1.3820   -0.0049 C   0  0  0  0  0  0  0  0  0  0  0  0
    0.0010   -2.3834   -0.0126 H   0  0  0  0  0  0  0  0  0  0  0  0
    1.1932   -0.6870   -0.0000 C   0  0  0  0  0  0  0  0  0  0  0  0
    2.0795   -1.1884    0.0027 H   0  0  0  0  0  0  0  0  0  0  0  0
    1.1891    0.6874    0.0030 C   0  0  0  0  0  0  0  0  0  0  0  0
    2.0581    1.1895    0.0051 H   0  0  0  0  0  0  0  0  0  0  0  0
  1  5  1  0
  5  8  1  0
  1  2  1  0
  1  3  1  0
  1  4  1  0
  5  6  1  0
  5  7  1  0
  8  9  1  0
  8 10  1  0
  8 11  1  0
 12 16  1  0
 16 17  2  0
 17 19  1  0
 19 21  2  0
 21 23  1  0
 23 25  2  0
 25 16  1  0
 12 13  1  0
 12 14  1  0
 12 15  1  0
 17 18  1  0
 19 20  1  0
 21 22  1  0
 23 24  1  0
 25 26  1  0
M  CHG  1   8   1
M  END
>  <PDB_ID>  (2459) 
pdb3rgc

>  <RESIDUE_NAME>  (2459) 
LYS   PHE

>  <FRAG_NAME>  (2459) 
ETAM   MBZ

>  <FRAG_ATOM_NUM>  (2459) 
fragi: 11  fragj: 15

>  <atom.prop.CHAIN_ID>  (2459) 
A A A A A A A A A A A Z Z Z Z Z Z Z Z Z Z Z Z Z Z Z

>  <atom.prop.IS_HEAVY_ATOM>  (2459) 
1 0 0 0 1 0 0 1 0 0 0 1 0 0 0 1 1 0 1 0 1 0 1 0 1 0

>  <DIFUSE_FUNC_ATOM>  (2459) 
n/a

>  <FINAL_SINGLE_POINT_ENERGY>  (2459) 
0

>  <NONCOV_INTER_ENERGY_QM>  (2459) 
0

>  <FF_Energy>  (2459) 
46.63

>  <QM_Energy>  (2459) 
4.26

>  <source>  (2459) 
ETAM_MBZ

>  <Index>  (2459) 
25976

$$$$
ETAM-pdb4pl7-A-LYS-61:MBZ-pdb4pl7-A-PHE-53
     RDKit          3D

 26 25  0  0  0  0  0  0  0  0999 V2000
   -1.4893   -0.3275    4.0334 C   0  0  0  0  0  0  0  0  0  0  0  0
   -1.4000    0.3177    3.3000 H   0  0  0  0  0  0  0  0  0  0  0  0
   -0.8825   -1.0917    3.9433 H   0  0  0  0  0  0  0  0  0  0  0  0
   -1.2912    0.1775    4.9788 H   0  0  0  0  0  0  0  0  0  0  0  0
   -2.9338   -0.8512    4.0494 C   0  0  0  0  0  0  0  0  0  0  0  0
   -3.0645   -1.4073    4.8830 H   0  0  0  0  0  0  0  0  0  0  0  0
   -3.5616   -0.0606    4.1062 H   0  0  0  0  0  0  0  0  0  0  0  0
   -3.3046   -1.6798    2.8513 N   0  0  0  0  0  4  0  0  0  0  0  0
   -4.2687   -1.5348    2.6425 H   0  0  0  0  0  0  0  0  0  0  0  0
   -2.7426   -1.3995    2.0773 H   0  0  0  0  0  0  0  0  0  0  0  0
   -3.1423   -2.6412    3.0599 H   0  0  0  0  0  0  0  0  0  0  0  0
    0.0088    2.9414    0.0408 C   0  0  0  0  0  0  0  0  0  0  0  0
    0.7352    3.2155    0.6564 H   0  0  0  0  0  0  0  0  0  0  0  0
   -0.8739    3.2346    0.3823 H   0  0  0  0  0  0  0  0  0  0  0  0
    0.1780    3.4235   -0.9221 H   0  0  0  0  0  0  0  0  0  0  0  0
   -0.0014    1.4250   -0.0050 C   0  0  0  0  0  0  0  0  0  0  0  0
   -1.1995    0.7217    0.0055 C   0  0  0  0  0  0  0  0  0  0  0  0
   -2.0689    1.1990    0.0153 H   0  0  0  0  0  0  0  0  0  0  0  0
   -1.2141   -0.7052    0.0000 C   0  0  0  0  0  0  0  0  0  0  0  0
   -2.0902   -1.1815    0.0021 H   0  0  0  0  0  0  0  0  0  0  0  0
   -0.0010   -1.4227   -0.0069 C   0  0  0  0  0  0  0  0  0  0  0  0
   -0.0114   -2.4115   -0.0175 H   0  0  0  0  0  0  0  0  0  0  0  0
    1.2141   -0.7186    0.0000 C   0  0  0  0  0  0  0  0  0  0  0  0
    2.0907   -1.2046    0.0016 H   0  0  0  0  0  0  0  0  0  0  0  0
    1.2020    0.6998    0.0064 C   0  0  0  0  0  0  0  0  0  0  0  0
    2.0721    1.1890    0.0182 H   0  0  0  0  0  0  0  0  0  0  0  0
  1  5  1  0
  5  8  1  0
  1  2  1  0
  1  3  1  0
  1  4  1  0
  5  6  1  0
  5  7  1  0
  8  9  1  0
  8 10  1  0
  8 11  1  0
 12 16  1  0
 16 17  2  0
 17 19  1  0
 19 21  2  0
 21 23  1  0
 23 25  2  0
 25 16  1  0
 12 13  1  0
 12 14  1  0
 12 15  1  0
 17 18  1  0
 19 20  1  0
 21 22  1  0
 23 24  1  0
 25 26  1  0
M  CHG  1   8   1
M  END
>  <PDB_ID>  (2460) 
pdb4pl7

>  <RESIDUE_NAME>  (2460) 
LYS   PHE

>  <FRAG_NAME>  (2460) 
ETAM   MBZ

>  <FRAG_ATOM_NUM>  (2460) 
fragi: 11  fragj: 15

>  <atom.prop.CHAIN_ID>  (2460) 
A A A A A A A A A A A Z Z Z Z Z Z Z Z Z Z Z Z Z Z Z

>  <atom.prop.IS_HEAVY_ATOM>  (2460) 
1 0 0 0 1 0 0 1 0 0 0 1 0 0 0 1 1 0 1 0 1 0 1 0 1 0

>  <DIFUSE_FUNC_ATOM>  (2460) 
n/a

>  <FINAL_SINGLE_POINT_ENERGY>  (2460) 
0

>  <NONCOV_INTER_ENERGY_QM>  (2460) 
0

>  <FF_Energy>  (2460) 
-2.24

>  <QM_Energy>  (2460) 
-7.96

>  <source>  (2460) 
ETAM_MBZ

>  <Index>  (2460) 
25980

$$$$
ETAM-pdb4pl7-B-LYS-61:MBZ-pdb4pl7-B-PHE-53
     RDKit          3D

 26 25  0  0  0  0  0  0  0  0999 V2000
   -1.9471   -0.1170    4.0060 C   0  0  0  0  0  0  0  0  0  0  0  0
   -1.7784    0.5256    3.2732 H   0  0  0  0  0  0  0  0  0  0  0  0
   -1.3646   -0.9122    3.9271 H   0  0  0  0  0  0  0  0  0  0  0  0
   -1.7619    0.3718    4.9625 H   0  0  0  0  0  0  0  0  0  0  0  0
   -3.4031   -0.5748    3.9205 C   0  0  0  0  0  0  0  0  0  0  0  0
   -3.6048   -1.1630    4.7128 H   0  0  0  0  0  0  0  0  0  0  0  0
   -4.0009    0.2348    3.9684 H   0  0  0  0  0  0  0  0  0  0  0  0
   -3.7111   -1.3317    2.6625 N   0  0  0  0  0  4  0  0  0  0  0  0
   -2.8682   -1.4590    2.1452 H   0  0  0  0  0  0  0  0  0  0  0  0
   -4.0991   -2.2191    2.9023 H   0  0  0  0  0  0  0  0  0  0  0  0
   -4.3668   -0.8098    2.1206 H   0  0  0  0  0  0  0  0  0  0  0  0
   -0.0120    2.9270    0.0357 C   0  0  0  0  0  0  0  0  0  0  0  0
    0.7081    3.2181    0.6507 H   0  0  0  0  0  0  0  0  0  0  0  0
   -0.9009    3.2139    0.3672 H   0  0  0  0  0  0  0  0  0  0  0  0
    0.1567    3.4012   -0.9311 H   0  0  0  0  0  0  0  0  0  0  0  0
   -0.0012    1.4195   -0.0031 C   0  0  0  0  0  0  0  0  0  0  0  0
   -1.1969    0.7055    0.0106 C   0  0  0  0  0  0  0  0  0  0  0  0
   -2.0670    1.1847    0.0269 H   0  0  0  0  0  0  0  0  0  0  0  0
   -1.2067   -0.7122   -0.0000 C   0  0  0  0  0  0  0  0  0  0  0  0
   -2.0840   -1.1920    0.0018 H   0  0  0  0  0  0  0  0  0  0  0  0
   -0.0009   -1.4162   -0.0114 C   0  0  0  0  0  0  0  0  0  0  0  0
   -0.0003   -2.4073   -0.0283 H   0  0  0  0  0  0  0  0  0  0  0  0
    1.2067   -0.7055    0.0000 C   0  0  0  0  0  0  0  0  0  0  0  0
    2.0883   -1.1928    0.0072 H   0  0  0  0  0  0  0  0  0  0  0  0
    1.1990    0.7088    0.0040 C   0  0  0  0  0  0  0  0  0  0  0  0
    2.0677    1.1961    0.0117 H   0  0  0  0  0  0  0  0  0  0  0  0
  1  5  1  0
  5  8  1  0
  1  2  1  0
  1  3  1  0
  1  4  1  0
  5  6  1  0
  5  7  1  0
  8  9  1  0
  8 10  1  0
  8 11  1  0
 12 16  1  0
 16 17  2  0
 17 19  1  0
 19 21  2  0
 21 23  1  0
 23 25  2  0
 25 16  1  0
 12 13  1  0
 12 14  1  0
 12 15  1  0
 17 18  1  0
 19 20  1  0
 21 22  1  0
 23 24  1  0
 25 26  1  0
M  CHG  1   8   1
M  END
>  <PDB_ID>  (2461) 
pdb4pl7

>  <RESIDUE_NAME>  (2461) 
LYS   PHE

>  <FRAG_NAME>  (2461) 
ETAM   MBZ

>  <FRAG_ATOM_NUM>  (2461) 
fragi: 11  fragj: 15

>  <atom.prop.CHAIN_ID>  (2461) 
A A A A A A A A A A A Z Z Z Z Z Z Z Z Z Z Z Z Z Z Z

>  <atom.prop.IS_HEAVY_ATOM>  (2461) 
1 0 0 0 1 0 0 1 0 0 0 1 0 0 0 1 1 0 1 0 1 0 1 0 1 0

>  <DIFUSE_FUNC_ATOM>  (2461) 
n/a

>  <FINAL_SINGLE_POINT_ENERGY>  (2461) 
0

>  <NONCOV_INTER_ENERGY_QM>  (2461) 
0

>  <FF_Energy>  (2461) 
-1.81

>  <QM_Energy>  (2461) 
-6.86

>  <source>  (2461) 
ETAM_MBZ

>  <Index>  (2461) 
25981

$$$$
ETAM-pdb3r67-B-LYS-187:MBZ-pdb3r67-D-PHE-375
     RDKit          3D

 26 25  0  0  0  0  0  0  0  0999 V2000
   -3.2064    1.7536    2.2471 C   0  0  0  0  0  0  0  0  0  0  0  0
   -3.0002    2.3180    3.0533 H   0  0  0  0  0  0  0  0  0  0  0  0
   -2.3943    1.7253    1.6565 H   0  0  0  0  0  0  0  0  0  0  0  0
   -3.4187    0.7395    2.5856 H   0  0  0  0  0  0  0  0  0  0  0  0
   -4.3425    2.4005    1.4790 C   0  0  0  0  0  0  0  0  0  0  0  0
   -4.0425    3.2988    1.1440 H   0  0  0  0  0  0  0  0  0  0  0  0
   -4.5748    1.8239    0.6894 H   0  0  0  0  0  0  0  0  0  0  0  0
   -5.5606    2.5802    2.3231 N   0  0  0  0  0  4  0  0  0  0  0  0
   -6.3693    2.3348    1.7904 H   0  0  0  0  0  0  0  0  0  0  0  0
   -5.4948    1.9905    3.1262 H   0  0  0  0  0  0  0  0  0  0  0  0
   -5.6235    3.5344    2.6112 H   0  0  0  0  0  0  0  0  0  0  0  0
    0.0037    2.9341   -0.0265 C   0  0  0  0  0  0  0  0  0  0  0  0
    0.9151    3.2383    0.1801 H   0  0  0  0  0  0  0  0  0  0  0  0
   -0.6547    3.2507    0.6307 H   0  0  0  0  0  0  0  0  0  0  0  0
   -0.2718    3.3502   -0.9955 H   0  0  0  0  0  0  0  0  0  0  0  0
   -0.0002    1.4117    0.0010 C   0  0  0  0  0  0  0  0  0  0  0  0
   -1.1930    0.6969   -0.0116 C   0  0  0  0  0  0  0  0  0  0  0  0
   -2.0635    1.1778   -0.0301 H   0  0  0  0  0  0  0  0  0  0  0  0
   -1.1925   -0.7048   -0.0000 C   0  0  0  0  0  0  0  0  0  0  0  0
   -2.0736   -1.1926   -0.0015 H   0  0  0  0  0  0  0  0  0  0  0  0
    0.0016   -1.3957    0.0155 C   0  0  0  0  0  0  0  0  0  0  0  0
   -0.0034   -2.3985    0.0376 H   0  0  0  0  0  0  0  0  0  0  0  0
    1.1925   -0.7058    0.0000 C   0  0  0  0  0  0  0  0  0  0  0  0
    2.0794   -1.1954   -0.0067 H   0  0  0  0  0  0  0  0  0  0  0  0
    1.1915    0.6978   -0.0049 C   0  0  0  0  0  0  0  0  0  0  0  0
    2.0647    1.1843   -0.0137 H   0  0  0  0  0  0  0  0  0  0  0  0
  1  5  1  0
  5  8  1  0
  1  2  1  0
  1  3  1  0
  1  4  1  0
  5  6  1  0
  5  7  1  0
  8  9  1  0
  8 10  1  0
  8 11  1  0
 12 16  1  0
 16 17  2  0
 17 19  1  0
 19 21  2  0
 21 23  1  0
 23 25  2  0
 25 16  1  0
 12 13  1  0
 12 14  1  0
 12 15  1  0
 17 18  1  0
 19 20  1  0
 21 22  1  0
 23 24  1  0
 25 26  1  0
M  CHG  1   8   1
M  END
>  <PDB_ID>  (2462) 
pdb3r67

>  <RESIDUE_NAME>  (2462) 
LYS   PHE

>  <FRAG_NAME>  (2462) 
ETAM   MBZ

>  <FRAG_ATOM_NUM>  (2462) 
fragi: 11  fragj: 15

>  <atom.prop.CHAIN_ID>  (2462) 
A A A A A A A A A A A Z Z Z Z Z Z Z Z Z Z Z Z Z Z Z

>  <atom.prop.IS_HEAVY_ATOM>  (2462) 
1 0 0 0 1 0 0 1 0 0 0 1 0 0 0 1 1 0 1 0 1 0 1 0 1 0

>  <DIFUSE_FUNC_ATOM>  (2462) 
n/a

>  <FINAL_SINGLE_POINT_ENERGY>  (2462) 
0

>  <NONCOV_INTER_ENERGY_QM>  (2462) 
0

>  <FF_Energy>  (2462) 
5.64

>  <QM_Energy>  (2462) 
0.1

>  <source>  (2462) 
ETAM_MBZ

>  <Index>  (2462) 
25987

$$$$
ETAM-pdb3r75-B-LYS-254:MBZ-pdb3r75-A-PHE-456
     RDKit          3D

 26 25  0  0  0  0  0  0  0  0999 V2000
    0.3388    1.3779    4.2857 C   0  0  0  0  0  0  0  0  0  0  0  0
    0.1197    1.1900    5.2256 H   0  0  0  0  0  0  0  0  0  0  0  0
    0.0220    2.2625    3.9980 H   0  0  0  0  0  0  0  0  0  0  0  0
    1.4247    1.3679    4.1920 H   0  0  0  0  0  0  0  0  0  0  0  0
   -0.3249    0.2888    3.3858 C   0  0  0  0  0  0  0  0  0  0  0  0
    0.0242    0.4001    2.4409 H   0  0  0  0  0  0  0  0  0  0  0  0
   -0.0225   -0.6225    3.7124 H   0  0  0  0  0  0  0  0  0  0  0  0
   -1.8625    0.2919    3.3317 N   0  0  0  0  0  4  0  0  0  0  0  0
   -2.2010    0.4361    4.2522 H   0  0  0  0  0  0  0  0  0  0  0  0
   -2.1467    1.0273    2.7306 H   0  0  0  0  0  0  0  0  0  0  0  0
   -2.1585   -0.5869    2.9801 H   0  0  0  0  0  0  0  0  0  0  0  0
   -0.0272    2.9317   -0.0446 C   0  0  0  0  0  0  0  0  0  0  0  0
   -0.9411    3.2320    0.1919 H   0  0  0  0  0  0  0  0  0  0  0  0
    0.2124    3.2167   -0.9631 H   0  0  0  0  0  0  0  0  0  0  0  0
    0.6695    3.4089    0.6445 H   0  0  0  0  0  0  0  0  0  0  0  0
   -0.0142    1.4213   -0.0116 C   0  0  0  0  0  0  0  0  0  0  0  0
   -1.2054    0.7034    0.0091 C   0  0  0  0  0  0  0  0  0  0  0  0
   -2.0785    1.1761    0.0296 H   0  0  0  0  0  0  0  0  0  0  0  0
   -1.2056   -0.7149    0.0000 C   0  0  0  0  0  0  0  0  0  0  0  0
   -2.0655   -1.2096   -0.0233 H   0  0  0  0  0  0  0  0  0  0  0  0
    0.0306   -1.4091    0.0256 C   0  0  0  0  0  0  0  0  0  0  0  0
    0.0144   -2.4074    0.0618 H   0  0  0  0  0  0  0  0  0  0  0  0
    1.2056   -0.7116    0.0000 C   0  0  0  0  0  0  0  0  0  0  0  0
    2.1031   -1.1790   -0.0019 H   0  0  0  0  0  0  0  0  0  0  0  0
    1.1889    0.7109   -0.0231 C   0  0  0  0  0  0  0  0  0  0  0  0
    2.0577    1.1990   -0.0487 H   0  0  0  0  0  0  0  0  0  0  0  0
  1  5  1  0
  5  8  1  0
  1  2  1  0
  1  3  1  0
  1  4  1  0
  5  6  1  0
  5  7  1  0
  8  9  1  0
  8 10  1  0
  8 11  1  0
 12 16  1  0
 16 17  2  0
 17 19  1  0
 19 21  2  0
 21 23  1  0
 23 25  2  0
 25 16  1  0
 12 13  1  0
 12 14  1  0
 12 15  1  0
 17 18  1  0
 19 20  1  0
 21 22  1  0
 23 24  1  0
 25 26  1  0
M  CHG  1   8   1
M  END
>  <PDB_ID>  (2463) 
pdb3r75

>  <RESIDUE_NAME>  (2463) 
LYS   PHE

>  <FRAG_NAME>  (2463) 
ETAM   MBZ

>  <FRAG_ATOM_NUM>  (2463) 
fragi: 11  fragj: 15

>  <atom.prop.CHAIN_ID>  (2463) 
A A A A A A A A A A A Z Z Z Z Z Z Z Z Z Z Z Z Z Z Z

>  <atom.prop.IS_HEAVY_ATOM>  (2463) 
1 0 0 0 1 0 0 1 0 0 0 1 0 0 0 1 1 0 1 0 1 0 1 0 1 0

>  <DIFUSE_FUNC_ATOM>  (2463) 
n/a

>  <FINAL_SINGLE_POINT_ENERGY>  (2463) 
0

>  <NONCOV_INTER_ENERGY_QM>  (2463) 
0

>  <FF_Energy>  (2463) 
-5.8

>  <QM_Energy>  (2463) 
-12.96

>  <source>  (2463) 
ETAM_MBZ

>  <Index>  (2463) 
25991

$$$$
ETAM-pdb3r75-A-LYS-254:MBZ-pdb3r75-B-PHE-456
     RDKit          3D

 26 25  0  0  0  0  0  0  0  0999 V2000
    0.4194    1.3222    4.2947 C   0  0  0  0  0  0  0  0  0  0  0  0
    0.1805    1.1098    5.2119 H   0  0  0  0  0  0  0  0  0  0  0  0
    0.0898    2.1810    3.9829 H   0  0  0  0  0  0  0  0  0  0  0  0
    1.5022    1.2789    4.1781 H   0  0  0  0  0  0  0  0  0  0  0  0
   -0.2081    0.2067    3.3679 C   0  0  0  0  0  0  0  0  0  0  0  0
    0.1628    0.3573    2.4326 H   0  0  0  0  0  0  0  0  0  0  0  0
    0.1616   -0.6854    3.6878 H   0  0  0  0  0  0  0  0  0  0  0  0
   -1.6863    0.1511    3.3211 N   0  0  0  0  0  4  0  0  0  0  0  0
   -1.9902    0.0862    2.3697 H   0  0  0  0  0  0  0  0  0  0  0  0
   -2.0084   -0.6504    3.8270 H   0  0  0  0  0  0  0  0  0  0  0  0
   -2.0667    0.9796    3.7351 H   0  0  0  0  0  0  0  0  0  0  0  0
   -0.0276    2.9832   -0.0161 C   0  0  0  0  0  0  0  0  0  0  0  0
   -0.9409    3.2468    0.2504 H   0  0  0  0  0  0  0  0  0  0  0  0
    0.1748    3.2576   -0.9424 H   0  0  0  0  0  0  0  0  0  0  0  0
    0.6889    3.4521    0.6582 H   0  0  0  0  0  0  0  0  0  0  0  0
    0.0001    1.4244   -0.0045 C   0  0  0  0  0  0  0  0  0  0  0  0
   -1.1966    0.6975    0.0113 C   0  0  0  0  0  0  0  0  0  0  0  0
   -2.0699    1.1731    0.0301 H   0  0  0  0  0  0  0  0  0  0  0  0
   -1.2060   -0.7286    0.0000 C   0  0  0  0  0  0  0  0  0  0  0  0
   -2.0774   -1.2070   -0.0105 H   0  0  0  0  0  0  0  0  0  0  0  0
    0.0090   -1.4222    0.0058 C   0  0  0  0  0  0  0  0  0  0  0  0
    0.0193   -2.4116    0.0133 H   0  0  0  0  0  0  0  0  0  0  0  0
    1.2060   -0.6945    0.0000 C   0  0  0  0  0  0  0  0  0  0  0  0
    2.0965   -1.1716    0.0061 H   0  0  0  0  0  0  0  0  0  0  0  0
    1.1876    0.7232   -0.0126 C   0  0  0  0  0  0  0  0  0  0  0  0
    2.0624    1.2096   -0.0287 H   0  0  0  0  0  0  0  0  0  0  0  0
  1  5  1  0
  5  8  1  0
  1  2  1  0
  1  3  1  0
  1  4  1  0
  5  6  1  0
  5  7  1  0
  8  9  1  0
  8 10  1  0
  8 11  1  0
 12 16  1  0
 16 17  2  0
 17 19  1  0
 19 21  2  0
 21 23  1  0
 23 25  2  0
 25 16  1  0
 12 13  1  0
 12 14  1  0
 12 15  1  0
 17 18  1  0
 19 20  1  0
 21 22  1  0
 23 24  1  0
 25 26  1  0
M  CHG  1   8   1
M  END
>  <PDB_ID>  (2464) 
pdb3r75

>  <RESIDUE_NAME>  (2464) 
LYS   PHE

>  <FRAG_NAME>  (2464) 
ETAM   MBZ

>  <FRAG_ATOM_NUM>  (2464) 
fragi: 11  fragj: 15

>  <atom.prop.CHAIN_ID>  (2464) 
A A A A A A A A A A A Z Z Z Z Z Z Z Z Z Z Z Z Z Z Z

>  <atom.prop.IS_HEAVY_ATOM>  (2464) 
1 0 0 0 1 0 0 1 0 0 0 1 0 0 0 1 1 0 1 0 1 0 1 0 1 0

>  <DIFUSE_FUNC_ATOM>  (2464) 
n/a

>  <FINAL_SINGLE_POINT_ENERGY>  (2464) 
0

>  <NONCOV_INTER_ENERGY_QM>  (2464) 
0

>  <FF_Energy>  (2464) 
-6.25

>  <QM_Energy>  (2464) 
-14.58

>  <source>  (2464) 
ETAM_MBZ

>  <Index>  (2464) 
25999

$$$$
ETAM-pdb4plp-A-LYS-171:MBZ-pdb4plp-A-PHE-305
     RDKit          3D

 26 25  0  0  0  0  0  0  0  0999 V2000
    3.2448   -3.7704   -3.4409 C   0  0  0  0  0  0  0  0  0  0  0  0
    2.9649   -3.6467   -4.3615 H   0  0  0  0  0  0  0  0  0  0  0  0
    3.4349   -4.7070   -3.2740 H   0  0  0  0  0  0  0  0  0  0  0  0
    4.1460   -3.1846   -3.2601 H   0  0  0  0  0  0  0  0  0  0  0  0
    2.1092   -3.3598   -2.5501 C   0  0  0  0  0  0  0  0  0  0  0  0
    1.5360   -4.1247   -2.3865 H   0  0  0  0  0  0  0  0  0  0  0  0
    2.4634   -3.0182   -1.7138 H   0  0  0  0  0  0  0  0  0  0  0  0
    1.3194   -2.3221   -3.1675 N   0  0  0  0  0  4  0  0  0  0  0  0
    0.9819   -2.6141   -3.9381 H   0  0  0  0  0  0  0  0  0  0  0  0
    0.6497   -2.0879   -2.6289 H   0  0  0  0  0  0  0  0  0  0  0  0
    1.8261   -1.6081   -3.3267 H   0  0  0  0  0  0  0  0  0  0  0  0
    0.0112    2.8774   -0.0108 C   0  0  0  0  0  0  0  0  0  0  0  0
   -0.6649    3.1640   -0.6440 H   0  0  0  0  0  0  0  0  0  0  0  0
    0.8862    3.1661   -0.3137 H   0  0  0  0  0  0  0  0  0  0  0  0
   -0.1947    3.3422    0.9533 H   0  0  0  0  0  0  0  0  0  0  0  0
    0.0082    1.3843    0.0094 C   0  0  0  0  0  0  0  0  0  0  0  0
   -1.1882    0.6825   -0.0121 C   0  0  0  0  0  0  0  0  0  0  0  0
   -1.9953    1.1452   -0.0053 H   0  0  0  0  0  0  0  0  0  0  0  0
   -1.1923   -0.6980    0.0000 C   0  0  0  0  0  0  0  0  0  0  0  0
   -1.9970   -1.1642   -0.0007 H   0  0  0  0  0  0  0  0  0  0  0  0
   -0.0060   -1.3765    0.0091 C   0  0  0  0  0  0  0  0  0  0  0  0
   -0.0043   -2.3065    0.0072 H   0  0  0  0  0  0  0  0  0  0  0  0
    1.1923   -0.6848   -0.0000 C   0  0  0  0  0  0  0  0  0  0  0  0
    1.9993   -1.1484    0.0046 H   0  0  0  0  0  0  0  0  0  0  0  0
    1.1859    0.6925   -0.0064 C   0  0  0  0  0  0  0  0  0  0  0  0
    1.9924    1.1559   -0.0005 H   0  0  0  0  0  0  0  0  0  0  0  0
  1  5  1  0
  5  8  1  0
  1  2  1  0
  1  3  1  0
  1  4  1  0
  5  6  1  0
  5  7  1  0
  8  9  1  0
  8 10  1  0
  8 11  1  0
 12 16  1  0
 16 17  2  0
 17 19  1  0
 19 21  2  0
 21 23  1  0
 23 25  2  0
 25 16  1  0
 12 13  1  0
 12 14  1  0
 12 15  1  0
 17 18  1  0
 19 20  1  0
 21 22  1  0
 23 24  1  0
 25 26  1  0
M  CHG  1   8   1
M  END
>  <PDB_ID>  (2465) 
pdb4plp

>  <RESIDUE_NAME>  (2465) 
LYS   PHE

>  <FRAG_NAME>  (2465) 
ETAM   MBZ

>  <FRAG_ATOM_NUM>  (2465) 
fragi: 11  fragj: 15

>  <atom.prop.CHAIN_ID>  (2465) 
A A A A A A A A A A A Z Z Z Z Z Z Z Z Z Z Z Z Z Z Z

>  <atom.prop.IS_HEAVY_ATOM>  (2465) 
1 0 0 0 1 0 0 1 0 0 0 1 0 0 0 1 1 0 1 0 1 0 1 0 1 0

>  <DIFUSE_FUNC_ATOM>  (2465) 
n/a

>  <FINAL_SINGLE_POINT_ENERGY>  (2465) 
0

>  <NONCOV_INTER_ENERGY_QM>  (2465) 
0

>  <FF_Energy>  (2465) 
-3.55

>  <QM_Energy>  (2465) 
-9.74

>  <source>  (2465) 
ETAM_MBZ

>  <Index>  (2465) 
26001

$$$$
ETAM-pdb4plp-B-LYS-171:MBZ-pdb4plp-B-PHE-305
     RDKit          3D

 26 25  0  0  0  0  0  0  0  0999 V2000
    3.0208   -3.7756   -3.6787 C   0  0  0  0  0  0  0  0  0  0  0  0
    2.6906   -3.8253   -4.5896 H   0  0  0  0  0  0  0  0  0  0  0  0
    3.3221   -4.6490   -3.3835 H   0  0  0  0  0  0  0  0  0  0  0  0
    3.8544   -3.0747   -3.6364 H   0  0  0  0  0  0  0  0  0  0  0  0
    1.8784   -3.3402   -2.7823 C   0  0  0  0  0  0  0  0  0  0  0  0
    1.2481   -4.0710   -2.6825 H   0  0  0  0  0  0  0  0  0  0  0  0
    2.2283   -3.0718   -1.9184 H   0  0  0  0  0  0  0  0  0  0  0  0
    1.1822   -2.2095   -3.3677 N   0  0  0  0  0  4  0  0  0  0  0  0
    0.8534   -2.4341   -4.1636 H   0  0  0  0  0  0  0  0  0  0  0  0
    0.5131   -1.9574   -2.8392 H   0  0  0  0  0  0  0  0  0  0  0  0
    1.7435   -1.5264   -3.4697 H   0  0  0  0  0  0  0  0  0  0  0  0
   -0.0128    2.8944   -0.0005 C   0  0  0  0  0  0  0  0  0  0  0  0
   -0.7416    3.1807   -0.5732 H   0  0  0  0  0  0  0  0  0  0  0  0
    0.8314    3.1950   -0.3704 H   0  0  0  0  0  0  0  0  0  0  0  0
   -0.1434    3.3469    0.9824 H   0  0  0  0  0  0  0  0  0  0  0  0
   -0.0003    1.3992    0.0056 C   0  0  0  0  0  0  0  0  0  0  0  0
   -1.1983    0.6930   -0.0008 C   0  0  0  0  0  0  0  0  0  0  0  0
   -2.0059    1.1551   -0.0010 H   0  0  0  0  0  0  0  0  0  0  0  0
   -1.1974   -0.7019    0.0000 C   0  0  0  0  0  0  0  0  0  0  0  0
   -2.0013   -1.1689   -0.0058 H   0  0  0  0  0  0  0  0  0  0  0  0
    0.0045   -1.3887   -0.0096 C   0  0  0  0  0  0  0  0  0  0  0  0
    0.0057   -2.3186   -0.0053 H   0  0  0  0  0  0  0  0  0  0  0  0
    1.1974   -0.7000   -0.0000 C   0  0  0  0  0  0  0  0  0  0  0  0
    2.0031   -1.1646   -0.0002 H   0  0  0  0  0  0  0  0  0  0  0  0
    1.1941    0.6983    0.0048 C   0  0  0  0  0  0  0  0  0  0  0  0
    1.9997    1.1612    0.0046 H   0  0  0  0  0  0  0  0  0  0  0  0
  1  5  1  0
  5  8  1  0
  1  2  1  0
  1  3  1  0
  1  4  1  0
  5  6  1  0
  5  7  1  0
  8  9  1  0
  8 10  1  0
  8 11  1  0
 12 16  1  0
 16 17  2  0
 17 19  1  0
 19 21  2  0
 21 23  1  0
 23 25  2  0
 25 16  1  0
 12 13  1  0
 12 14  1  0
 12 15  1  0
 17 18  1  0
 19 20  1  0
 21 22  1  0
 23 24  1  0
 25 26  1  0
M  CHG  1   8   1
M  END
>  <PDB_ID>  (2466) 
pdb4plp

>  <RESIDUE_NAME>  (2466) 
LYS   PHE

>  <FRAG_NAME>  (2466) 
ETAM   MBZ

>  <FRAG_ATOM_NUM>  (2466) 
fragi: 11  fragj: 15

>  <atom.prop.CHAIN_ID>  (2466) 
A A A A A A A A A A A Z Z Z Z Z Z Z Z Z Z Z Z Z Z Z

>  <atom.prop.IS_HEAVY_ATOM>  (2466) 
1 0 0 0 1 0 0 1 0 0 0 1 0 0 0 1 1 0 1 0 1 0 1 0 1 0

>  <DIFUSE_FUNC_ATOM>  (2466) 
n/a

>  <FINAL_SINGLE_POINT_ENERGY>  (2466) 
0

>  <NONCOV_INTER_ENERGY_QM>  (2466) 
0

>  <FF_Energy>  (2466) 
-3.73

>  <QM_Energy>  (2466) 
-9.52

>  <source>  (2466) 
ETAM_MBZ

>  <Index>  (2466) 
26003

$$$$
ETAM-pdb4pg9-A-LYS-66:MBZ-pdb4pg9-C-PHE-1
     RDKit          3D

 26 25  0  0  0  0  0  0  0  0999 V2000
    1.5509   -1.5903    5.0199 C   0  0  0  0  0  0  0  0  0  0  0  0
    1.3742   -0.7476    5.5370 H   0  0  0  0  0  0  0  0  0  0  0  0
    2.5186   -1.6096    4.7545 H   0  0  0  0  0  0  0  0  0  0  0  0
    1.3574   -2.4401    5.6745 H   0  0  0  0  0  0  0  0  0  0  0  0
    0.7035   -1.5831    3.7712 C   0  0  0  0  0  0  0  0  0  0  0  0
    1.0613   -2.2516    3.1264 H   0  0  0  0  0  0  0  0  0  0  0  0
   -0.2378   -1.8054    4.0093 H   0  0  0  0  0  0  0  0  0  0  0  0
    0.7452   -0.2334    3.1503 N   0  0  0  0  0  4  0  0  0  0  0  0
    0.1445    0.3841    3.6571 H   0  0  0  0  0  0  0  0  0  0  0  0
    1.6821    0.1153    3.1763 H   0  0  0  0  0  0  0  0  0  0  0  0
    0.4370   -0.2947    2.2008 H   0  0  0  0  0  0  0  0  0  0  0  0
   -0.0023    2.9130   -0.0407 C   0  0  0  0  0  0  0  0  0  0  0  0
   -0.8015    3.1987   -0.5548 H   0  0  0  0  0  0  0  0  0  0  0  0
    0.8305    3.2033   -0.4962 H   0  0  0  0  0  0  0  0  0  0  0  0
   -0.0389    3.4004    0.9335 H   0  0  0  0  0  0  0  0  0  0  0  0
   -0.0001    1.4057    0.0058 C   0  0  0  0  0  0  0  0  0  0  0  0
   -1.1946    0.6915   -0.0056 C   0  0  0  0  0  0  0  0  0  0  0  0
   -2.0636    1.1812   -0.0194 H   0  0  0  0  0  0  0  0  0  0  0  0
   -1.1983   -0.6992    0.0000 C   0  0  0  0  0  0  0  0  0  0  0  0
   -2.0772   -1.1913    0.0018 H   0  0  0  0  0  0  0  0  0  0  0  0
   -0.0016   -1.3933    0.0051 C   0  0  0  0  0  0  0  0  0  0  0  0
   -0.0048   -2.3933    0.0121 H   0  0  0  0  0  0  0  0  0  0  0  0
    1.1983   -0.6988    0.0000 C   0  0  0  0  0  0  0  0  0  0  0  0
    2.0802   -1.1958    0.0016 H   0  0  0  0  0  0  0  0  0  0  0  0
    1.1962    0.6941   -0.0053 C   0  0  0  0  0  0  0  0  0  0  0  0
    2.0653    1.1885   -0.0176 H   0  0  0  0  0  0  0  0  0  0  0  0
  1  5  1  0
  5  8  1  0
  1  2  1  0
  1  3  1  0
  1  4  1  0
  5  6  1  0
  5  7  1  0
  8  9  1  0
  8 10  1  0
  8 11  1  0
 12 16  1  0
 16 17  2  0
 17 19  1  0
 19 21  2  0
 21 23  1  0
 23 25  2  0
 25 16  1  0
 12 13  1  0
 12 14  1  0
 12 15  1  0
 17 18  1  0
 19 20  1  0
 21 22  1  0
 23 24  1  0
 25 26  1  0
M  CHG  1   8   1
M  END
>  <PDB_ID>  (2467) 
pdb4pg9

>  <RESIDUE_NAME>  (2467) 
LYS   PHE

>  <FRAG_NAME>  (2467) 
ETAM   MBZ

>  <FRAG_ATOM_NUM>  (2467) 
fragi: 11  fragj: 15

>  <atom.prop.CHAIN_ID>  (2467) 
A A A A A A A A A A A Z Z Z Z Z Z Z Z Z Z Z Z Z Z Z

>  <atom.prop.IS_HEAVY_ATOM>  (2467) 
1 0 0 0 1 0 0 1 0 0 0 1 0 0 0 1 1 0 1 0 1 0 1 0 1 0

>  <DIFUSE_FUNC_ATOM>  (2467) 
n/a

>  <FINAL_SINGLE_POINT_ENERGY>  (2467) 
0

>  <NONCOV_INTER_ENERGY_QM>  (2467) 
0

>  <FF_Energy>  (2467) 
-9.16

>  <QM_Energy>  (2467) 
-16.96

>  <source>  (2467) 
ETAM_MBZ

>  <Index>  (2467) 
26007

$$$$
ETAM-pdb3reo-B-LYS-39:MBZ-pdb3reo-D-PHE-144
     RDKit          3D

 26 25  0  0  0  0  0  0  0  0999 V2000
   -5.4024    0.0173   -2.3686 C   0  0  0  0  0  0  0  0  0  0  0  0
   -5.3376   -0.9575   -2.5237 H   0  0  0  0  0  0  0  0  0  0  0  0
   -4.5604    0.4766   -2.6101 H   0  0  0  0  0  0  0  0  0  0  0  0
   -6.2209    0.4242   -2.9623 H   0  0  0  0  0  0  0  0  0  0  0  0
   -5.6736    0.2536   -0.8919 C   0  0  0  0  0  0  0  0  0  0  0  0
   -5.8639    1.2285   -0.7597 H   0  0  0  0  0  0  0  0  0  0  0  0
   -6.4829   -0.2773   -0.6313 H   0  0  0  0  0  0  0  0  0  0  0  0
   -4.5323   -0.1490   -0.1077 N   0  0  0  0  0  4  0  0  0  0  0  0
   -3.7959    0.5350   -0.1762 H   0  0  0  0  0  0  0  0  0  0  0  0
   -4.7850   -0.2449    0.8632 H   0  0  0  0  0  0  0  0  0  0  0  0
   -4.1741   -1.0333   -0.4312 H   0  0  0  0  0  0  0  0  0  0  0  0
   -0.0070    2.9364   -0.0300 C   0  0  0  0  0  0  0  0  0  0  0  0
    0.8965    3.2460    0.1662 H   0  0  0  0  0  0  0  0  0  0  0  0
   -0.6759    3.2531    0.6042 H   0  0  0  0  0  0  0  0  0  0  0  0
   -0.2802    3.3174   -1.0141 H   0  0  0  0  0  0  0  0  0  0  0  0
   -0.0031    1.4097    0.0078 C   0  0  0  0  0  0  0  0  0  0  0  0
   -1.1894    0.7057    0.0105 C   0  0  0  0  0  0  0  0  0  0  0  0
   -2.0619    1.1912    0.0187 H   0  0  0  0  0  0  0  0  0  0  0  0
   -1.2010   -0.6922   -0.0000 C   0  0  0  0  0  0  0  0  0  0  0  0
   -2.0842   -1.1771    0.0023 H   0  0  0  0  0  0  0  0  0  0  0  0
   -0.0072   -1.4042   -0.0117 C   0  0  0  0  0  0  0  0  0  0  0  0
   -0.0239   -2.4017   -0.0291 H   0  0  0  0  0  0  0  0  0  0  0  0
    1.2010   -0.7212   -0.0000 C   0  0  0  0  0  0  0  0  0  0  0  0
    2.0792   -1.2070    0.0148 H   0  0  0  0  0  0  0  0  0  0  0  0
    1.1998    0.7022   -0.0066 C   0  0  0  0  0  0  0  0  0  0  0  0
    2.0672    1.1829   -0.0226 H   0  0  0  0  0  0  0  0  0  0  0  0
  1  5  1  0
  5  8  1  0
  1  2  1  0
  1  3  1  0
  1  4  1  0
  5  6  1  0
  5  7  1  0
  8  9  1  0
  8 10  1  0
  8 11  1  0
 12 16  1  0
 16 17  2  0
 17 19  1  0
 19 21  2  0
 21 23  1  0
 23 25  2  0
 25 16  1  0
 12 13  1  0
 12 14  1  0
 12 15  1  0
 17 18  1  0
 19 20  1  0
 21 22  1  0
 23 24  1  0
 25 26  1  0
M  CHG  1   8   1
M  END
>  <PDB_ID>  (2468) 
pdb3reo

>  <RESIDUE_NAME>  (2468) 
LYS   PHE

>  <FRAG_NAME>  (2468) 
ETAM   MBZ

>  <FRAG_ATOM_NUM>  (2468) 
fragi: 11  fragj: 15

>  <atom.prop.CHAIN_ID>  (2468) 
A A A A A A A A A A A Z Z Z Z Z Z Z Z Z Z Z Z Z Z Z

>  <atom.prop.IS_HEAVY_ATOM>  (2468) 
1 0 0 0 1 0 0 1 0 0 0 1 0 0 0 1 1 0 1 0 1 0 1 0 1 0

>  <DIFUSE_FUNC_ATOM>  (2468) 
n/a

>  <FINAL_SINGLE_POINT_ENERGY>  (2468) 
0

>  <NONCOV_INTER_ENERGY_QM>  (2468) 
0

>  <FF_Energy>  (2468) 
2.13

>  <QM_Energy>  (2468) 
-3.65

>  <source>  (2468) 
ETAM_MBZ

>  <Index>  (2468) 
26016

$$$$
ETAM-pdb4pnf-G-LYS-117:MBZ-pdb4pnf-G-PHE-121
     RDKit          3D

 26 25  0  0  0  0  0  0  0  0999 V2000
    4.5366    1.2415    2.9047 C   0  0  0  0  0  0  0  0  0  0  0  0
    4.5085    1.0163    1.9263 H   0  0  0  0  0  0  0  0  0  0  0  0
    5.4958    1.3192    3.1918 H   0  0  0  0  0  0  0  0  0  0  0  0
    4.0614    2.2128    3.0425 H   0  0  0  0  0  0  0  0  0  0  0  0
    3.8844    0.1103    3.6851 C   0  0  0  0  0  0  0  0  0  0  0  0
    4.6066   -0.4682    4.0826 H   0  0  0  0  0  0  0  0  0  0  0  0
    3.3451    0.5044    4.4387 H   0  0  0  0  0  0  0  0  0  0  0  0
    2.9945   -0.7337    2.8402 N   0  0  0  0  0  4  0  0  0  0  0  0
    3.0387   -1.6811    3.1559 H   0  0  0  0  0  0  0  0  0  0  0  0
    2.0550   -0.4001    2.9122 H   0  0  0  0  0  0  0  0  0  0  0  0
    3.2959   -0.6833    1.8882 H   0  0  0  0  0  0  0  0  0  0  0  0
   -0.0130    2.9190   -0.0328 C   0  0  0  0  0  0  0  0  0  0  0  0
    0.8313    3.2407    0.3450 H   0  0  0  0  0  0  0  0  0  0  0  0
   -0.7974    3.2316    0.4638 H   0  0  0  0  0  0  0  0  0  0  0  0
   -0.0894    3.2885   -1.0553 H   0  0  0  0  0  0  0  0  0  0  0  0
   -0.0015    1.4086    0.0192 C   0  0  0  0  0  0  0  0  0  0  0  0
   -1.1976    0.6845   -0.0178 C   0  0  0  0  0  0  0  0  0  0  0  0
   -2.0663    1.1720   -0.0587 H   0  0  0  0  0  0  0  0  0  0  0  0
   -1.1993   -0.7091    0.0000 C   0  0  0  0  0  0  0  0  0  0  0  0
   -2.0744   -1.2030    0.0143 H   0  0  0  0  0  0  0  0  0  0  0  0
    0.0032   -1.3985    0.0002 C   0  0  0  0  0  0  0  0  0  0  0  0
    0.0084   -2.3958   -0.0000 H   0  0  0  0  0  0  0  0  0  0  0  0
    1.1993   -0.6901    0.0000 C   0  0  0  0  0  0  0  0  0  0  0  0
    2.0861   -1.1846    0.0024 H   0  0  0  0  0  0  0  0  0  0  0  0
    1.1959    0.7045   -0.0016 C   0  0  0  0  0  0  0  0  0  0  0  0
    2.0633    1.1990   -0.0189 H   0  0  0  0  0  0  0  0  0  0  0  0
  1  5  1  0
  5  8  1  0
  1  2  1  0
  1  3  1  0
  1  4  1  0
  5  6  1  0
  5  7  1  0
  8  9  1  0
  8 10  1  0
  8 11  1  0
 12 16  1  0
 16 17  2  0
 17 19  1  0
 19 21  2  0
 21 23  1  0
 23 25  2  0
 25 16  1  0
 12 13  1  0
 12 14  1  0
 12 15  1  0
 17 18  1  0
 19 20  1  0
 21 22  1  0
 23 24  1  0
 25 26  1  0
M  CHG  1   8   1
M  END
>  <PDB_ID>  (2469) 
pdb4pnf

>  <RESIDUE_NAME>  (2469) 
LYS   PHE

>  <FRAG_NAME>  (2469) 
ETAM   MBZ

>  <FRAG_ATOM_NUM>  (2469) 
fragi: 11  fragj: 15

>  <atom.prop.CHAIN_ID>  (2469) 
A A A A A A A A A A A Z Z Z Z Z Z Z Z Z Z Z Z Z Z Z

>  <atom.prop.IS_HEAVY_ATOM>  (2469) 
1 0 0 0 1 0 0 1 0 0 0 1 0 0 0 1 1 0 1 0 1 0 1 0 1 0

>  <DIFUSE_FUNC_ATOM>  (2469) 
n/a

>  <FINAL_SINGLE_POINT_ENERGY>  (2469) 
0

>  <NONCOV_INTER_ENERGY_QM>  (2469) 
0

>  <FF_Energy>  (2469) 
-2.79

>  <QM_Energy>  (2469) 
-8.34

>  <source>  (2469) 
ETAM_MBZ

>  <Index>  (2469) 
26038

$$$$
ETAM-pdb3rmg-A-LYS-260:MBZ-pdb3rmg-A-PHE-159
     RDKit          3D

 26 25  0  0  0  0  0  0  0  0999 V2000
    1.1988   -2.0799    3.3703 C   0  0  0  0  0  0  0  0  0  0  0  0
    1.3729   -2.4897    2.4735 H   0  0  0  0  0  0  0  0  0  0  0  0
    0.2783   -2.3302    3.6751 H   0  0  0  0  0  0  0  0  0  0  0  0
    1.9250   -2.4712    4.0826 H   0  0  0  0  0  0  0  0  0  0  0  0
    1.2684   -0.5752    3.2350 C   0  0  0  0  0  0  0  0  0  0  0  0
    1.0895   -0.1568    4.1257 H   0  0  0  0  0  0  0  0  0  0  0  0
    2.1836   -0.3157    2.9245 H   0  0  0  0  0  0  0  0  0  0  0  0
    0.2641   -0.0879    2.2556 N   0  0  0  0  0  4  0  0  0  0  0  0
   -0.1686   -0.8687    1.8052 H   0  0  0  0  0  0  0  0  0  0  0  0
   -0.4321    0.4493    2.7325 H   0  0  0  0  0  0  0  0  0  0  0  0
    0.7161    0.4836    1.5712 H   0  0  0  0  0  0  0  0  0  0  0  0
   -0.0017    2.8939   -0.0026 C   0  0  0  0  0  0  0  0  0  0  0  0
   -0.6510    3.1993   -0.6827 H   0  0  0  0  0  0  0  0  0  0  0  0
    0.9135    3.2029   -0.2145 H   0  0  0  0  0  0  0  0  0  0  0  0
   -0.2889    3.3312    0.9537 H   0  0  0  0  0  0  0  0  0  0  0  0
    0.0007    1.3969   -0.0008 C   0  0  0  0  0  0  0  0  0  0  0  0
   -1.1956    0.6903    0.0002 C   0  0  0  0  0  0  0  0  0  0  0  0
   -2.0622    1.1837   -0.0003 H   0  0  0  0  0  0  0  0  0  0  0  0
   -1.2008   -0.6949    0.0000 C   0  0  0  0  0  0  0  0  0  0  0  0
   -2.0774   -1.1907    0.0013 H   0  0  0  0  0  0  0  0  0  0  0  0
   -0.0012   -1.3887    0.0000 C   0  0  0  0  0  0  0  0  0  0  0  0
   -0.0038   -2.3892   -0.0003 H   0  0  0  0  0  0  0  0  0  0  0  0
    1.2008   -0.6938   -0.0000 C   0  0  0  0  0  0  0  0  0  0  0  0
    2.0805   -1.1954    0.0012 H   0  0  0  0  0  0  0  0  0  0  0  0
    1.1961    0.6902    0.0005 C   0  0  0  0  0  0  0  0  0  0  0  0
    2.0640    1.1892    0.0009 H   0  0  0  0  0  0  0  0  0  0  0  0
  1  5  1  0
  5  8  1  0
  1  2  1  0
  1  3  1  0
  1  4  1  0
  5  6  1  0
  5  7  1  0
  8  9  1  0
  8 10  1  0
  8 11  1  0
 12 16  1  0
 16 17  2  0
 17 19  1  0
 19 21  2  0
 21 23  1  0
 23 25  2  0
 25 16  1  0
 12 13  1  0
 12 14  1  0
 12 15  1  0
 17 18  1  0
 19 20  1  0
 21 22  1  0
 23 24  1  0
 25 26  1  0
M  CHG  1   8   1
M  END
>  <PDB_ID>  (2470) 
pdb3rmg

>  <RESIDUE_NAME>  (2470) 
LYS   PHE

>  <FRAG_NAME>  (2470) 
ETAM   MBZ

>  <FRAG_ATOM_NUM>  (2470) 
fragi: 11  fragj: 15

>  <atom.prop.CHAIN_ID>  (2470) 
A A A A A A A A A A A Z Z Z Z Z Z Z Z Z Z Z Z Z Z Z

>  <atom.prop.IS_HEAVY_ATOM>  (2470) 
1 0 0 0 1 0 0 1 0 0 0 1 0 0 0 1 1 0 1 0 1 0 1 0 1 0

>  <DIFUSE_FUNC_ATOM>  (2470) 
n/a

>  <FINAL_SINGLE_POINT_ENERGY>  (2470) 
0

>  <NONCOV_INTER_ENERGY_QM>  (2470) 
0

>  <FF_Energy>  (2470) 
36.81

>  <QM_Energy>  (2470) 
8.37

>  <source>  (2470) 
ETAM_MBZ

>  <Index>  (2470) 
26071

$$$$
ETAM-pdb3rmg-B-LYS-260:MBZ-pdb3rmg-B-PHE-159
     RDKit          3D

 26 25  0  0  0  0  0  0  0  0999 V2000
   -5.0050   -2.2969   -0.8432 C   0  0  0  0  0  0  0  0  0  0  0  0
   -4.1495   -2.7378   -1.1168 H   0  0  0  0  0  0  0  0  0  0  0  0
   -5.5392   -2.0761   -1.6614 H   0  0  0  0  0  0  0  0  0  0  0  0
   -5.5763   -2.9919   -0.2280 H   0  0  0  0  0  0  0  0  0  0  0  0
   -4.6773   -1.0117   -0.1203 C   0  0  0  0  0  0  0  0  0  0  0  0
   -5.5284   -0.5615    0.1525 H   0  0  0  0  0  0  0  0  0  0  0  0
   -4.1387   -1.2222    0.6961 H   0  0  0  0  0  0  0  0  0  0  0  0
   -3.9007   -0.0983   -0.9952 N   0  0  0  0  0  4  0  0  0  0  0  0
   -4.5275    0.4194   -1.5782 H   0  0  0  0  0  0  0  0  0  0  0  0
   -3.3714    0.5354   -0.4306 H   0  0  0  0  0  0  0  0  0  0  0  0
   -3.2783   -0.6329   -1.5669 H   0  0  0  0  0  0  0  0  0  0  0  0
   -0.0261    2.8585    0.0004 C   0  0  0  0  0  0  0  0  0  0  0  0
    0.7553    3.1847   -0.5088 H   0  0  0  0  0  0  0  0  0  0  0  0
   -0.0002    3.1681    0.9384 H   0  0  0  0  0  0  0  0  0  0  0  0
   -0.9226    3.2701   -0.4632 H   0  0  0  0  0  0  0  0  0  0  0  0
   -0.0017    1.3746   -0.0035 C   0  0  0  0  0  0  0  0  0  0  0  0
   -1.1811    0.6690    0.0059 C   0  0  0  0  0  0  0  0  0  0  0  0
   -2.0535    1.1663    0.0161 H   0  0  0  0  0  0  0  0  0  0  0  0
   -1.1814   -0.6902    0.0000 C   0  0  0  0  0  0  0  0  0  0  0  0
   -2.0610   -1.1947   -0.0003 H   0  0  0  0  0  0  0  0  0  0  0  0
    0.0015   -1.3627   -0.0041 C   0  0  0  0  0  0  0  0  0  0  0  0
    0.0057   -2.3719   -0.0104 H   0  0  0  0  0  0  0  0  0  0  0  0
    1.1814   -0.6737   -0.0000 C   0  0  0  0  0  0  0  0  0  0  0  0
    2.0698   -1.1819    0.0035 H   0  0  0  0  0  0  0  0  0  0  0  0
    1.1813    0.6830    0.0017 C   0  0  0  0  0  0  0  0  0  0  0  0
    2.0500    1.1883    0.0062 H   0  0  0  0  0  0  0  0  0  0  0  0
  1  5  1  0
  5  8  1  0
  1  2  1  0
  1  3  1  0
  1  4  1  0
  5  6  1  0
  5  7  1  0
  8  9  1  0
  8 10  1  0
  8 11  1  0
 12 16  1  0
 16 17  2  0
 17 19  1  0
 19 21  2  0
 21 23  1  0
 23 25  2  0
 25 16  1  0
 12 13  1  0
 12 14  1  0
 12 15  1  0
 17 18  1  0
 19 20  1  0
 21 22  1  0
 23 24  1  0
 25 26  1  0
M  CHG  1   8   1
M  END
>  <PDB_ID>  (2471) 
pdb3rmg

>  <RESIDUE_NAME>  (2471) 
LYS   PHE

>  <FRAG_NAME>  (2471) 
ETAM   MBZ

>  <FRAG_ATOM_NUM>  (2471) 
fragi: 11  fragj: 15

>  <atom.prop.CHAIN_ID>  (2471) 
A A A A A A A A A A A Z Z Z Z Z Z Z Z Z Z Z Z Z Z Z

>  <atom.prop.IS_HEAVY_ATOM>  (2471) 
1 0 0 0 1 0 0 1 0 0 0 1 0 0 0 1 1 0 1 0 1 0 1 0 1 0

>  <DIFUSE_FUNC_ATOM>  (2471) 
n/a

>  <FINAL_SINGLE_POINT_ENERGY>  (2471) 
0

>  <NONCOV_INTER_ENERGY_QM>  (2471) 
0

>  <FF_Energy>  (2471) 
7.7

>  <QM_Energy>  (2471) 
-2.54

>  <source>  (2471) 
ETAM_MBZ

>  <Index>  (2471) 
26074

$$$$
ETAM-pdb4pql-A-LYS-37:MBZ-pdb4pql-A-PHE-24
     RDKit          3D

 26 25  0  0  0  0  0  0  0  0999 V2000
   -0.0538   -2.0432    3.8265 C   0  0  0  0  0  0  0  0  0  0  0  0
    0.0757   -2.5554    2.9864 H   0  0  0  0  0  0  0  0  0  0  0  0
   -0.6811   -1.2875    3.6858 H   0  0  0  0  0  0  0  0  0  0  0  0
   -0.4605   -2.7078    4.5887 H   0  0  0  0  0  0  0  0  0  0  0  0
    1.2902   -1.4812    4.2636 C   0  0  0  0  0  0  0  0  0  0  0  0
    1.2204   -1.1718    5.2106 H   0  0  0  0  0  0  0  0  0  0  0  0
    1.9810   -2.2006    4.1972 H   0  0  0  0  0  0  0  0  0  0  0  0
    1.6910   -0.3355    3.4014 N   0  0  0  0  0  4  0  0  0  0  0  0
    2.4570   -0.6102    2.8210 H   0  0  0  0  0  0  0  0  0  0  0  0
    0.9173   -0.0647    2.8296 H   0  0  0  0  0  0  0  0  0  0  0  0
    1.9668    0.4328    3.9785 H   0  0  0  0  0  0  0  0  0  0  0  0
    0.0100    2.8871    0.0273 C   0  0  0  0  0  0  0  0  0  0  0  0
   -0.7343    3.2083   -0.5337 H   0  0  0  0  0  0  0  0  0  0  0  0
    0.8832    3.1947   -0.3111 H   0  0  0  0  0  0  0  0  0  0  0  0
   -0.1240    3.3016    1.0264 H   0  0  0  0  0  0  0  0  0  0  0  0
    0.0008    1.3881    0.0057 C   0  0  0  0  0  0  0  0  0  0  0  0
   -1.1899    0.6824   -0.0075 C   0  0  0  0  0  0  0  0  0  0  0  0
   -2.0582    1.1772   -0.0236 H   0  0  0  0  0  0  0  0  0  0  0  0
   -1.1948   -0.6954    0.0000 C   0  0  0  0  0  0  0  0  0  0  0  0
   -2.0716   -1.1930    0.0110 H   0  0  0  0  0  0  0  0  0  0  0  0
    0.0005   -1.3820   -0.0050 C   0  0  0  0  0  0  0  0  0  0  0  0
    0.0042   -2.3823   -0.0124 H   0  0  0  0  0  0  0  0  0  0  0  0
    1.1948   -0.6818   -0.0000 C   0  0  0  0  0  0  0  0  0  0  0  0
    2.0789   -1.1864   -0.0000 H   0  0  0  0  0  0  0  0  0  0  0  0
    1.1886    0.6887    0.0069 C   0  0  0  0  0  0  0  0  0  0  0  0
    2.0581    1.1928    0.0123 H   0  0  0  0  0  0  0  0  0  0  0  0
  1  5  1  0
  5  8  1  0
  1  2  1  0
  1  3  1  0
  1  4  1  0
  5  6  1  0
  5  7  1  0
  8  9  1  0
  8 10  1  0
  8 11  1  0
 12 16  1  0
 16 17  2  0
 17 19  1  0
 19 21  2  0
 21 23  1  0
 23 25  2  0
 25 16  1  0
 12 13  1  0
 12 14  1  0
 12 15  1  0
 17 18  1  0
 19 20  1  0
 21 22  1  0
 23 24  1  0
 25 26  1  0
M  CHG  1   8   1
M  END
>  <PDB_ID>  (2472) 
pdb4pql

>  <RESIDUE_NAME>  (2472) 
LYS   PHE

>  <FRAG_NAME>  (2472) 
ETAM   MBZ

>  <FRAG_ATOM_NUM>  (2472) 
fragi: 11  fragj: 15

>  <atom.prop.CHAIN_ID>  (2472) 
A A A A A A A A A A A Z Z Z Z Z Z Z Z Z Z Z Z Z Z Z

>  <atom.prop.IS_HEAVY_ATOM>  (2472) 
1 0 0 0 1 0 0 1 0 0 0 1 0 0 0 1 1 0 1 0 1 0 1 0 1 0

>  <DIFUSE_FUNC_ATOM>  (2472) 
n/a

>  <FINAL_SINGLE_POINT_ENERGY>  (2472) 
0

>  <NONCOV_INTER_ENERGY_QM>  (2472) 
0

>  <FF_Energy>  (2472) 
-6.34

>  <QM_Energy>  (2472) 
-11.82

>  <source>  (2472) 
ETAM_MBZ

>  <Index>  (2472) 
26079

$$$$
ETAM-pdb3rnm-A-LYS-24:MBZ-pdb3rnm-B-PHE-468
     RDKit          3D

 26 25  0  0  0  0  0  0  0  0999 V2000
    1.8096   -2.4240   -4.9357 C   0  0  0  0  0  0  0  0  0  0  0  0
    2.2098   -2.8080   -4.1067 H   0  0  0  0  0  0  0  0  0  0  0  0
    2.4092   -1.7185   -5.3071 H   0  0  0  0  0  0  0  0  0  0  0  0
    1.7033   -3.2190   -5.6739 H   0  0  0  0  0  0  0  0  0  0  0  0
    0.4750   -1.7866   -4.5788 C   0  0  0  0  0  0  0  0  0  0  0  0
    0.0624   -1.4093   -5.4079 H   0  0  0  0  0  0  0  0  0  0  0  0
   -0.1284   -2.4854   -4.1952 H   0  0  0  0  0  0  0  0  0  0  0  0
    0.6524   -0.6918   -3.5788 N   0  0  0  0  0  4  0  0  0  0  0  0
    1.1692   -1.0400   -2.7973 H   0  0  0  0  0  0  0  0  0  0  0  0
    1.1506    0.0635   -4.0024 H   0  0  0  0  0  0  0  0  0  0  0  0
   -0.2449   -0.3750   -3.2745 H   0  0  0  0  0  0  0  0  0  0  0  0
    0.0099    2.9142   -0.0109 C   0  0  0  0  0  0  0  0  0  0  0  0
   -0.5807    3.2135   -0.7485 H   0  0  0  0  0  0  0  0  0  0  0  0
    0.9432    3.2128   -0.1626 H   0  0  0  0  0  0  0  0  0  0  0  0
   -0.3425    3.3851    0.9069 H   0  0  0  0  0  0  0  0  0  0  0  0
    0.0022    1.4048    0.0070 C   0  0  0  0  0  0  0  0  0  0  0  0
   -1.1950    0.6976   -0.0053 C   0  0  0  0  0  0  0  0  0  0  0  0
   -2.0620    1.1849   -0.0196 H   0  0  0  0  0  0  0  0  0  0  0  0
   -1.1994   -0.6989    0.0000 C   0  0  0  0  0  0  0  0  0  0  0  0
   -2.0794   -1.1877    0.0029 H   0  0  0  0  0  0  0  0  0  0  0  0
   -0.0033   -1.3947    0.0025 C   0  0  0  0  0  0  0  0  0  0  0  0
   -0.0066   -2.3939    0.0055 H   0  0  0  0  0  0  0  0  0  0  0  0
    1.1994   -0.7005    0.0000 C   0  0  0  0  0  0  0  0  0  0  0  0
    2.0794   -1.1986    0.0033 H   0  0  0  0  0  0  0  0  0  0  0  0
    1.1961    0.6916   -0.0041 C   0  0  0  0  0  0  0  0  0  0  0  0
    2.0662    1.1857   -0.0162 H   0  0  0  0  0  0  0  0  0  0  0  0
  1  5  1  0
  5  8  1  0
  1  2  1  0
  1  3  1  0
  1  4  1  0
  5  6  1  0
  5  7  1  0
  8  9  1  0
  8 10  1  0
  8 11  1  0
 12 16  1  0
 16 17  2  0
 17 19  1  0
 19 21  2  0
 21 23  1  0
 23 25  2  0
 25 16  1  0
 12 13  1  0
 12 14  1  0
 12 15  1  0
 17 18  1  0
 19 20  1  0
 21 22  1  0
 23 24  1  0
 25 26  1  0
M  CHG  1   8   1
M  END
>  <PDB_ID>  (2473) 
pdb3rnm

>  <RESIDUE_NAME>  (2473) 
LYS   PHE

>  <FRAG_NAME>  (2473) 
ETAM   MBZ

>  <FRAG_ATOM_NUM>  (2473) 
fragi: 11  fragj: 15

>  <atom.prop.CHAIN_ID>  (2473) 
A A A A A A A A A A A Z Z Z Z Z Z Z Z Z Z Z Z Z Z Z

>  <atom.prop.IS_HEAVY_ATOM>  (2473) 
1 0 0 0 1 0 0 1 0 0 0 1 0 0 0 1 1 0 1 0 1 0 1 0 1 0

>  <DIFUSE_FUNC_ATOM>  (2473) 
n/a

>  <FINAL_SINGLE_POINT_ENERGY>  (2473) 
0

>  <NONCOV_INTER_ENERGY_QM>  (2473) 
0

>  <FF_Energy>  (2473) 
-6.51

>  <QM_Energy>  (2473) 
-12.28

>  <source>  (2473) 
ETAM_MBZ

>  <Index>  (2473) 
26099

$$$$
ETAM-pdb3rot-B-LYS-68:MBZ-pdb3rot-B-PHE-72
     RDKit          3D

 26 25  0  0  0  0  0  0  0  0999 V2000
    0.0644   -2.3247   -4.7921 C   0  0  0  0  0  0  0  0  0  0  0  0
   -0.1903   -1.5242   -5.3272 H   0  0  0  0  0  0  0  0  0  0  0  0
    0.3183   -3.0740   -5.3965 H   0  0  0  0  0  0  0  0  0  0  0  0
    0.9179   -2.0723   -4.1630 H   0  0  0  0  0  0  0  0  0  0  0  0
   -1.1359   -2.7557   -3.9653 C   0  0  0  0  0  0  0  0  0  0  0  0
   -1.8569   -3.0795   -4.5806 H   0  0  0  0  0  0  0  0  0  0  0  0
   -0.8627   -3.5050   -3.3580 H   0  0  0  0  0  0  0  0  0  0  0  0
   -1.6669   -1.6301   -3.1420 N   0  0  0  0  0  4  0  0  0  0  0  0
   -1.7592   -1.9307   -2.1934 H   0  0  0  0  0  0  0  0  0  0  0  0
   -1.0337   -0.8583   -3.1906 H   0  0  0  0  0  0  0  0  0  0  0  0
   -2.5594   -1.3549   -3.4958 H   0  0  0  0  0  0  0  0  0  0  0  0
    0.0029    2.9006    0.0406 C   0  0  0  0  0  0  0  0  0  0  0  0
    0.8809    3.2162   -0.2905 H   0  0  0  0  0  0  0  0  0  0  0  0
   -0.1473    3.1849    0.9776 H   0  0  0  0  0  0  0  0  0  0  0  0
   -0.7682    3.3660   -0.5733 H   0  0  0  0  0  0  0  0  0  0  0  0
   -0.0010    1.4027    0.0002 C   0  0  0  0  0  0  0  0  0  0  0  0
   -1.1951    0.6962   -0.0005 C   0  0  0  0  0  0  0  0  0  0  0  0
   -2.0631    1.1834   -0.0027 H   0  0  0  0  0  0  0  0  0  0  0  0
   -1.2012   -0.7011    0.0000 C   0  0  0  0  0  0  0  0  0  0  0  0
   -2.0779   -1.1904    0.0013 H   0  0  0  0  0  0  0  0  0  0  0  0
   -0.0003   -1.3958    0.0011 C   0  0  0  0  0  0  0  0  0  0  0  0
   -0.0020   -2.3939    0.0019 H   0  0  0  0  0  0  0  0  0  0  0  0
    1.2012   -0.6970   -0.0000 C   0  0  0  0  0  0  0  0  0  0  0  0
    2.0829   -1.1942    0.0017 H   0  0  0  0  0  0  0  0  0  0  0  0
    1.1965    0.6950   -0.0008 C   0  0  0  0  0  0  0  0  0  0  0  0
    2.0644    1.1916   -0.0030 H   0  0  0  0  0  0  0  0  0  0  0  0
  1  5  1  0
  5  8  1  0
  1  2  1  0
  1  3  1  0
  1  4  1  0
  5  6  1  0
  5  7  1  0
  8  9  1  0
  8 10  1  0
  8 11  1  0
 12 16  1  0
 16 17  2  0
 17 19  1  0
 19 21  2  0
 21 23  1  0
 23 25  2  0
 25 16  1  0
 12 13  1  0
 12 14  1  0
 12 15  1  0
 17 18  1  0
 19 20  1  0
 21 22  1  0
 23 24  1  0
 25 26  1  0
M  CHG  1   8   1
M  END
>  <PDB_ID>  (2474) 
pdb3rot

>  <RESIDUE_NAME>  (2474) 
LYS   PHE

>  <FRAG_NAME>  (2474) 
ETAM   MBZ

>  <FRAG_ATOM_NUM>  (2474) 
fragi: 11  fragj: 15

>  <atom.prop.CHAIN_ID>  (2474) 
A A A A A A A A A A A Z Z Z Z Z Z Z Z Z Z Z Z Z Z Z

>  <atom.prop.IS_HEAVY_ATOM>  (2474) 
1 0 0 0 1 0 0 1 0 0 0 1 0 0 0 1 1 0 1 0 1 0 1 0 1 0

>  <DIFUSE_FUNC_ATOM>  (2474) 
n/a

>  <FINAL_SINGLE_POINT_ENERGY>  (2474) 
0

>  <NONCOV_INTER_ENERGY_QM>  (2474) 
0

>  <FF_Energy>  (2474) 
-4.3

>  <QM_Energy>  (2474) 
-10.67

>  <source>  (2474) 
ETAM_MBZ

>  <Index>  (2474) 
26123

$$$$
ETAM-pdb3rmr-B-LYS-252:MBZ-pdb3rmr-B-PHE-256
     RDKit          3D

 26 25  0  0  0  0  0  0  0  0999 V2000
    4.2199   -2.7253   -1.5861 C   0  0  0  0  0  0  0  0  0  0  0  0
    3.5257   -3.4224   -1.7249 H   0  0  0  0  0  0  0  0  0  0  0  0
    5.1133   -3.0642   -1.8584 H   0  0  0  0  0  0  0  0  0  0  0  0
    3.9724   -1.8577   -2.1976 H   0  0  0  0  0  0  0  0  0  0  0  0
    4.2647   -2.3712   -0.1042 C   0  0  0  0  0  0  0  0  0  0  0  0
    4.8347   -1.5497    0.0177 H   0  0  0  0  0  0  0  0  0  0  0  0
    3.3315   -2.1554    0.2082 H   0  0  0  0  0  0  0  0  0  0  0  0
    4.8168   -3.4740    0.7493 N   0  0  0  0  0  4  0  0  0  0  0  0
    4.0720   -3.8902    1.2664 H   0  0  0  0  0  0  0  0  0  0  0  0
    5.2447   -4.1574    0.1622 H   0  0  0  0  0  0  0  0  0  0  0  0
    5.4935   -3.0930    1.3765 H   0  0  0  0  0  0  0  0  0  0  0  0
    0.0065    2.9024    0.0114 C   0  0  0  0  0  0  0  0  0  0  0  0
    0.9484    3.2078   -0.0040 H   0  0  0  0  0  0  0  0  0  0  0  0
   -0.4515    3.2008    0.8371 H   0  0  0  0  0  0  0  0  0  0  0  0
   -0.5043    3.3622   -0.8347 H   0  0  0  0  0  0  0  0  0  0  0  0
    0.0019    1.4014   -0.0079 C   0  0  0  0  0  0  0  0  0  0  0  0
   -1.1922    0.6998    0.0057 C   0  0  0  0  0  0  0  0  0  0  0  0
   -2.0593    1.1895    0.0186 H   0  0  0  0  0  0  0  0  0  0  0  0
   -1.1987   -0.6928   -0.0000 C   0  0  0  0  0  0  0  0  0  0  0  0
   -2.0802   -1.1817   -0.0011 H   0  0  0  0  0  0  0  0  0  0  0  0
   -0.0059   -1.3928   -0.0019 C   0  0  0  0  0  0  0  0  0  0  0  0
   -0.0125   -2.3915   -0.0048 H   0  0  0  0  0  0  0  0  0  0  0  0
    1.1987   -0.7021   -0.0000 C   0  0  0  0  0  0  0  0  0  0  0  0
    2.0770   -1.2028   -0.0004 H   0  0  0  0  0  0  0  0  0  0  0  0
    1.1962    0.6864    0.0040 C   0  0  0  0  0  0  0  0  0  0  0  0
    2.0660    1.1828    0.0151 H   0  0  0  0  0  0  0  0  0  0  0  0
  1  5  1  0
  5  8  1  0
  1  2  1  0
  1  3  1  0
  1  4  1  0
  5  6  1  0
  5  7  1  0
  8  9  1  0
  8 10  1  0
  8 11  1  0
 12 16  1  0
 16 17  2  0
 17 19  1  0
 19 21  2  0
 21 23  1  0
 23 25  2  0
 25 16  1  0
 12 13  1  0
 12 14  1  0
 12 15  1  0
 17 18  1  0
 19 20  1  0
 21 22  1  0
 23 24  1  0
 25 26  1  0
M  CHG  1   8   1
M  END
>  <PDB_ID>  (2475) 
pdb3rmr

>  <RESIDUE_NAME>  (2475) 
LYS   PHE

>  <FRAG_NAME>  (2475) 
ETAM   MBZ

>  <FRAG_ATOM_NUM>  (2475) 
fragi: 11  fragj: 15

>  <atom.prop.CHAIN_ID>  (2475) 
A A A A A A A A A A A Z Z Z Z Z Z Z Z Z Z Z Z Z Z Z

>  <atom.prop.IS_HEAVY_ATOM>  (2475) 
1 0 0 0 1 0 0 1 0 0 0 1 0 0 0 1 1 0 1 0 1 0 1 0 1 0

>  <DIFUSE_FUNC_ATOM>  (2475) 
n/a

>  <FINAL_SINGLE_POINT_ENERGY>  (2475) 
0

>  <NONCOV_INTER_ENERGY_QM>  (2475) 
0

>  <FF_Energy>  (2475) 
18.91

>  <QM_Energy>  (2475) 
0.68

>  <source>  (2475) 
ETAM_MBZ

>  <Index>  (2475) 
26139

$$$$
ETAM-pdb4pvc-A-LYS-210:MBZ-pdb4pvc-A-PHE-338
     RDKit          3D

 26 25  0  0  0  0  0  0  0  0999 V2000
    3.7975   -4.4407   -1.4307 C   0  0  0  0  0  0  0  0  0  0  0  0
    4.3195   -5.2922   -1.4682 H   0  0  0  0  0  0  0  0  0  0  0  0
    4.2170   -3.7637   -2.0340 H   0  0  0  0  0  0  0  0  0  0  0  0
    2.7881   -4.6420   -1.7895 H   0  0  0  0  0  0  0  0  0  0  0  0
    3.8284   -3.9102   -0.0041 C   0  0  0  0  0  0  0  0  0  0  0  0
    2.9773   -4.1743    0.4582 H   0  0  0  0  0  0  0  0  0  0  0  0
    4.6029   -4.3270    0.4805 H   0  0  0  0  0  0  0  0  0  0  0  0
    3.9669   -2.4294    0.0338 N   0  0  0  0  0  4  0  0  0  0  0  0
    3.2663   -2.0456    0.6344 H   0  0  0  0  0  0  0  0  0  0  0  0
    4.8728   -2.1893    0.3814 H   0  0  0  0  0  0  0  0  0  0  0  0
    3.8550   -2.0616   -0.8891 H   0  0  0  0  0  0  0  0  0  0  0  0
   -0.0017    2.9117    0.0082 C   0  0  0  0  0  0  0  0  0  0  0  0
   -0.7375    3.2170   -0.5751 H   0  0  0  0  0  0  0  0  0  0  0  0
    0.8761    3.2187   -0.3242 H   0  0  0  0  0  0  0  0  0  0  0  0
   -0.1553    3.3461    0.9960 H   0  0  0  0  0  0  0  0  0  0  0  0
    0.0006    1.4035    0.0016 C   0  0  0  0  0  0  0  0  0  0  0  0
   -1.1972    0.6941    0.0017 C   0  0  0  0  0  0  0  0  0  0  0  0
   -2.0638    1.1841    0.0016 H   0  0  0  0  0  0  0  0  0  0  0  0
   -1.2029   -0.6985   -0.0000 C   0  0  0  0  0  0  0  0  0  0  0  0
   -2.0792   -1.1905    0.0013 H   0  0  0  0  0  0  0  0  0  0  0  0
   -0.0015   -1.3954   -0.0014 C   0  0  0  0  0  0  0  0  0  0  0  0
   -0.0050   -2.3939   -0.0038 H   0  0  0  0  0  0  0  0  0  0  0  0
    1.2029   -0.6989    0.0000 C   0  0  0  0  0  0  0  0  0  0  0  0
    2.0827   -1.1963    0.0041 H   0  0  0  0  0  0  0  0  0  0  0  0
    1.1981    0.6953   -0.0018 C   0  0  0  0  0  0  0  0  0  0  0  0
    2.0660    1.1902   -0.0059 H   0  0  0  0  0  0  0  0  0  0  0  0
  1  5  1  0
  5  8  1  0
  1  2  1  0
  1  3  1  0
  1  4  1  0
  5  6  1  0
  5  7  1  0
  8  9  1  0
  8 10  1  0
  8 11  1  0
 12 16  1  0
 16 17  2  0
 17 19  1  0
 19 21  2  0
 21 23  1  0
 23 25  2  0
 25 16  1  0
 12 13  1  0
 12 14  1  0
 12 15  1  0
 17 18  1  0
 19 20  1  0
 21 22  1  0
 23 24  1  0
 25 26  1  0
M  CHG  1   8   1
M  END
>  <PDB_ID>  (2476) 
pdb4pvc

>  <RESIDUE_NAME>  (2476) 
LYS   PHE

>  <FRAG_NAME>  (2476) 
ETAM   MBZ

>  <FRAG_ATOM_NUM>  (2476) 
fragi: 11  fragj: 15

>  <atom.prop.CHAIN_ID>  (2476) 
A A A A A A A A A A A Z Z Z Z Z Z Z Z Z Z Z Z Z Z Z

>  <atom.prop.IS_HEAVY_ATOM>  (2476) 
1 0 0 0 1 0 0 1 0 0 0 1 0 0 0 1 1 0 1 0 1 0 1 0 1 0

>  <DIFUSE_FUNC_ATOM>  (2476) 
n/a

>  <FINAL_SINGLE_POINT_ENERGY>  (2476) 
0

>  <NONCOV_INTER_ENERGY_QM>  (2476) 
0

>  <FF_Energy>  (2476) 
6.4

>  <QM_Energy>  (2476) 
-0.64

>  <source>  (2476) 
ETAM_MBZ

>  <Index>  (2476) 
26166

$$$$
ETAM-pdb3rrl-B-LYS-67:MBZ-pdb3rrl-A-PHE-26
     RDKit          3D

 26 25  0  0  0  0  0  0  0  0999 V2000
   -3.7842   -0.7388   -2.3475 C   0  0  0  0  0  0  0  0  0  0  0  0
   -4.0265    0.2263   -2.3655 H   0  0  0  0  0  0  0  0  0  0  0  0
   -3.7491   -1.0685   -1.4092 H   0  0  0  0  0  0  0  0  0  0  0  0
   -4.5386   -1.3039   -2.8949 H   0  0  0  0  0  0  0  0  0  0  0  0
   -2.3941   -0.8981   -2.9661 C   0  0  0  0  0  0  0  0  0  0  0  0
   -2.4630   -0.7387   -3.9601 H   0  0  0  0  0  0  0  0  0  0  0  0
   -1.7852   -0.1922   -2.5790 H   0  0  0  0  0  0  0  0  0  0  0  0
   -1.7853   -2.2455   -2.7323 N   0  0  0  0  0  4  0  0  0  0  0  0
   -1.0081   -2.3647   -3.3480 H   0  0  0  0  0  0  0  0  0  0  0  0
   -1.4780   -2.3058   -1.7851 H   0  0  0  0  0  0  0  0  0  0  0  0
   -2.4704   -2.9496   -2.9109 H   0  0  0  0  0  0  0  0  0  0  0  0
    0.0042    2.9129    0.0150 C   0  0  0  0  0  0  0  0  0  0  0  0
    0.8162    3.2080    0.5010 H   0  0  0  0  0  0  0  0  0  0  0  0
   -0.8167    3.2128    0.4811 H   0  0  0  0  0  0  0  0  0  0  0  0
    0.0173    3.3742   -0.9726 H   0  0  0  0  0  0  0  0  0  0  0  0
   -0.0005    1.4073   -0.0037 C   0  0  0  0  0  0  0  0  0  0  0  0
   -1.1968    0.7019    0.0043 C   0  0  0  0  0  0  0  0  0  0  0  0
   -2.0634    1.1892    0.0112 H   0  0  0  0  0  0  0  0  0  0  0  0
   -1.2022   -0.6944   -0.0000 C   0  0  0  0  0  0  0  0  0  0  0  0
   -2.0800   -1.1857    0.0019 H   0  0  0  0  0  0  0  0  0  0  0  0
    0.0014   -1.4019   -0.0043 C   0  0  0  0  0  0  0  0  0  0  0  0
   -0.0100   -2.3974   -0.0109 H   0  0  0  0  0  0  0  0  0  0  0  0
    1.2022   -0.7070    0.0000 C   0  0  0  0  0  0  0  0  0  0  0  0
    2.0844   -1.1984    0.0019 H   0  0  0  0  0  0  0  0  0  0  0  0
    1.1958    0.6940    0.0038 C   0  0  0  0  0  0  0  0  0  0  0  0
    2.0663    1.1860    0.0106 H   0  0  0  0  0  0  0  0  0  0  0  0
  1  5  1  0
  5  8  1  0
  1  2  1  0
  1  3  1  0
  1  4  1  0
  5  6  1  0
  5  7  1  0
  8  9  1  0
  8 10  1  0
  8 11  1  0
 12 16  1  0
 16 17  2  0
 17 19  1  0
 19 21  2  0
 21 23  1  0
 23 25  2  0
 25 16  1  0
 12 13  1  0
 12 14  1  0
 12 15  1  0
 17 18  1  0
 19 20  1  0
 21 22  1  0
 23 24  1  0
 25 26  1  0
M  CHG  1   8   1
M  END
>  <PDB_ID>  (2477) 
pdb3rrl

>  <RESIDUE_NAME>  (2477) 
LYS   PHE

>  <FRAG_NAME>  (2477) 
ETAM   MBZ

>  <FRAG_ATOM_NUM>  (2477) 
fragi: 11  fragj: 15

>  <atom.prop.CHAIN_ID>  (2477) 
A A A A A A A A A A A Z Z Z Z Z Z Z Z Z Z Z Z Z Z Z

>  <atom.prop.IS_HEAVY_ATOM>  (2477) 
1 0 0 0 1 0 0 1 0 0 0 1 0 0 0 1 1 0 1 0 1 0 1 0 1 0

>  <DIFUSE_FUNC_ATOM>  (2477) 
n/a

>  <FINAL_SINGLE_POINT_ENERGY>  (2477) 
0

>  <NONCOV_INTER_ENERGY_QM>  (2477) 
0

>  <FF_Energy>  (2477) 
-2.24

>  <QM_Energy>  (2477) 
-10.41

>  <source>  (2477) 
ETAM_MBZ

>  <Index>  (2477) 
26188

$$$$
ETAM-pdb4pwn-A-LYS-237:MBZ-pdb4pwn-A-PHE-223
     RDKit          3D

 26 25  0  0  0  0  0  0  0  0999 V2000
   -0.3424    2.0346   -3.7641 C   0  0  0  0  0  0  0  0  0  0  0  0
   -0.1580    2.2775   -4.6967 H   0  0  0  0  0  0  0  0  0  0  0  0
    0.3534    2.3487   -3.1474 H   0  0  0  0  0  0  0  0  0  0  0  0
   -1.2996    2.4642   -3.4686 H   0  0  0  0  0  0  0  0  0  0  0  0
   -0.4337    0.5093   -3.6637 C   0  0  0  0  0  0  0  0  0  0  0  0
   -0.7723    0.2734   -2.7185 H   0  0  0  0  0  0  0  0  0  0  0  0
   -1.1851    0.1930   -4.2961 H   0  0  0  0  0  0  0  0  0  0  0  0
    0.7889   -0.2926   -3.9434 N   0  0  0  0  0  4  0  0  0  0  0  0
    1.2903    0.1219   -4.7014 H   0  0  0  0  0  0  0  0  0  0  0  0
    1.3680   -0.3100   -3.1287 H   0  0  0  0  0  0  0  0  0  0  0  0
    0.5251   -1.2254   -4.1869 H   0  0  0  0  0  0  0  0  0  0  0  0
    0.0111    2.9067    0.0095 C   0  0  0  0  0  0  0  0  0  0  0  0
   -0.7250    3.2195   -0.5689 H   0  0  0  0  0  0  0  0  0  0  0  0
    0.8897    3.2104   -0.3248 H   0  0  0  0  0  0  0  0  0  0  0  0
   -0.1362    3.3388    0.9992 H   0  0  0  0  0  0  0  0  0  0  0  0
    0.0041    1.4011    0.0008 C   0  0  0  0  0  0  0  0  0  0  0  0
   -1.1969    0.6903    0.0056 C   0  0  0  0  0  0  0  0  0  0  0  0
   -2.0610    1.1819    0.0119 H   0  0  0  0  0  0  0  0  0  0  0  0
   -1.1969   -0.6979    0.0000 C   0  0  0  0  0  0  0  0  0  0  0  0
   -2.0749   -1.1937    0.0014 H   0  0  0  0  0  0  0  0  0  0  0  0
    0.0017   -1.3905   -0.0056 C   0  0  0  0  0  0  0  0  0  0  0  0
   -0.0013   -2.3903   -0.0138 H   0  0  0  0  0  0  0  0  0  0  0  0
    1.1969   -0.6953    0.0000 C   0  0  0  0  0  0  0  0  0  0  0  0
    2.0805   -1.1923    0.0062 H   0  0  0  0  0  0  0  0  0  0  0  0
    1.1910    0.6923   -0.0009 C   0  0  0  0  0  0  0  0  0  0  0  0
    2.0643    1.1869   -0.0035 H   0  0  0  0  0  0  0  0  0  0  0  0
  1  5  1  0
  5  8  1  0
  1  2  1  0
  1  3  1  0
  1  4  1  0
  5  6  1  0
  5  7  1  0
  8  9  1  0
  8 10  1  0
  8 11  1  0
 12 16  1  0
 16 17  2  0
 17 19  1  0
 19 21  2  0
 21 23  1  0
 23 25  2  0
 25 16  1  0
 12 13  1  0
 12 14  1  0
 12 15  1  0
 17 18  1  0
 19 20  1  0
 21 22  1  0
 23 24  1  0
 25 26  1  0
M  CHG  1   8   1
M  END
>  <PDB_ID>  (2478) 
pdb4pwn

>  <RESIDUE_NAME>  (2478) 
LYS   PHE

>  <FRAG_NAME>  (2478) 
ETAM   MBZ

>  <FRAG_ATOM_NUM>  (2478) 
fragi: 11  fragj: 15

>  <atom.prop.CHAIN_ID>  (2478) 
A A A A A A A A A A A Z Z Z Z Z Z Z Z Z Z Z Z Z Z Z

>  <atom.prop.IS_HEAVY_ATOM>  (2478) 
1 0 0 0 1 0 0 1 0 0 0 1 0 0 0 1 1 0 1 0 1 0 1 0 1 0

>  <DIFUSE_FUNC_ATOM>  (2478) 
n/a

>  <FINAL_SINGLE_POINT_ENERGY>  (2478) 
0

>  <NONCOV_INTER_ENERGY_QM>  (2478) 
0

>  <FF_Energy>  (2478) 
-6.98

>  <QM_Energy>  (2478) 
-12.11

>  <source>  (2478) 
ETAM_MBZ

>  <Index>  (2478) 
26193

$$$$
ETAM-pdb4pxl-A-LYS-119:MBZ-pdb4pxl-A-PHE-115
     RDKit          3D

 26 25  0  0  0  0  0  0  0  0999 V2000
    0.0808   -0.7522    3.3433 C   0  0  0  0  0  0  0  0  0  0  0  0
   -0.0811   -0.9368    2.3530 H   0  0  0  0  0  0  0  0  0  0  0  0
    0.1975    0.2577    3.4309 H   0  0  0  0  0  0  0  0  0  0  0  0
   -0.8154   -1.0399    3.8929 H   0  0  0  0  0  0  0  0  0  0  0  0
    1.3698   -1.4148    3.7450 C   0  0  0  0  0  0  0  0  0  0  0  0
    1.4821   -1.3442    4.7387 H   0  0  0  0  0  0  0  0  0  0  0  0
    1.3388   -2.3824    3.4868 H   0  0  0  0  0  0  0  0  0  0  0  0
    2.5238   -0.7705    3.0784 N   0  0  0  0  0  4  0  0  0  0  0  0
    2.5584   -1.0543    2.1190 H   0  0  0  0  0  0  0  0  0  0  0  0
    2.4262    0.2245    3.1270 H   0  0  0  0  0  0  0  0  0  0  0  0
    3.3714   -1.0435    3.5362 H   0  0  0  0  0  0  0  0  0  0  0  0
    0.0043    2.9207   -0.0466 C   0  0  0  0  0  0  0  0  0  0  0  0
   -0.3453    3.1847   -0.9435 H   0  0  0  0  0  0  0  0  0  0  0  0
    0.9502    3.2240    0.0501 H   0  0  0  0  0  0  0  0  0  0  0  0
   -0.5895    3.4379    0.7070 H   0  0  0  0  0  0  0  0  0  0  0  0
    0.0010    1.4092    0.0176 C   0  0  0  0  0  0  0  0  0  0  0  0
   -1.1931    0.6967   -0.0138 C   0  0  0  0  0  0  0  0  0  0  0  0
   -2.0611    1.1803   -0.0479 H   0  0  0  0  0  0  0  0  0  0  0  0
   -1.1947   -0.7031   -0.0000 C   0  0  0  0  0  0  0  0  0  0  0  0
   -2.0766   -1.1896    0.0152 H   0  0  0  0  0  0  0  0  0  0  0  0
   -0.0031   -1.3937   -0.0061 C   0  0  0  0  0  0  0  0  0  0  0  0
   -0.0066   -2.3964   -0.0153 H   0  0  0  0  0  0  0  0  0  0  0  0
    1.1947   -0.7048    0.0000 C   0  0  0  0  0  0  0  0  0  0  0  0
    2.0772   -1.1983    0.0043 H   0  0  0  0  0  0  0  0  0  0  0  0
    1.1952    0.6958    0.0023 C   0  0  0  0  0  0  0  0  0  0  0  0
    2.0656    1.1848   -0.0084 H   0  0  0  0  0  0  0  0  0  0  0  0
  1  5  1  0
  5  8  1  0
  1  2  1  0
  1  3  1  0
  1  4  1  0
  5  6  1  0
  5  7  1  0
  8  9  1  0
  8 10  1  0
  8 11  1  0
 12 16  1  0
 16 17  2  0
 17 19  1  0
 19 21  2  0
 21 23  1  0
 23 25  2  0
 25 16  1  0
 12 13  1  0
 12 14  1  0
 12 15  1  0
 17 18  1  0
 19 20  1  0
 21 22  1  0
 23 24  1  0
 25 26  1  0
M  CHG  1   8   1
M  END
>  <PDB_ID>  (2479) 
pdb4pxl

>  <RESIDUE_NAME>  (2479) 
LYS   PHE

>  <FRAG_NAME>  (2479) 
ETAM   MBZ

>  <FRAG_ATOM_NUM>  (2479) 
fragi: 11  fragj: 15

>  <atom.prop.CHAIN_ID>  (2479) 
A A A A A A A A A A A Z Z Z Z Z Z Z Z Z Z Z Z Z Z Z

>  <atom.prop.IS_HEAVY_ATOM>  (2479) 
1 0 0 0 1 0 0 1 0 0 0 1 0 0 0 1 1 0 1 0 1 0 1 0 1 0

>  <DIFUSE_FUNC_ATOM>  (2479) 
n/a

>  <FINAL_SINGLE_POINT_ENERGY>  (2479) 
0

>  <NONCOV_INTER_ENERGY_QM>  (2479) 
0

>  <FF_Energy>  (2479) 
-2.45

>  <QM_Energy>  (2479) 
-10.35

>  <source>  (2479) 
ETAM_MBZ

>  <Index>  (2479) 
26204

$$$$
ETAM-pdb4pxl-B-LYS-119:MBZ-pdb4pxl-B-PHE-115
     RDKit          3D

 26 25  0  0  0  0  0  0  0  0999 V2000
    0.0980   -0.7416    3.3381 C   0  0  0  0  0  0  0  0  0  0  0  0
   -0.0602   -0.9400    2.3498 H   0  0  0  0  0  0  0  0  0  0  0  0
    0.2103    0.2698    3.4134 H   0  0  0  0  0  0  0  0  0  0  0  0
   -0.7964   -1.0287    3.8910 H   0  0  0  0  0  0  0  0  0  0  0  0
    1.3940   -1.3930    3.7491 C   0  0  0  0  0  0  0  0  0  0  0  0
    1.5072   -1.3080    4.7407 H   0  0  0  0  0  0  0  0  0  0  0  0
    1.3691   -2.3636    3.5023 H   0  0  0  0  0  0  0  0  0  0  0  0
    2.5518   -0.7501    3.0718 N   0  0  0  0  0  4  0  0  0  0  0  0
    3.0705   -1.4434    2.5713 H   0  0  0  0  0  0  0  0  0  0  0  0
    2.2190   -0.0554    2.4344 H   0  0  0  0  0  0  0  0  0  0  0  0
    3.1411   -0.3211    3.7568 H   0  0  0  0  0  0  0  0  0  0  0  0
    0.0023    2.9131   -0.0738 C   0  0  0  0  0  0  0  0  0  0  0  0
   -0.3623    3.1678   -0.9689 H   0  0  0  0  0  0  0  0  0  0  0  0
    0.9501    3.2202    0.0017 H   0  0  0  0  0  0  0  0  0  0  0  0
   -0.5782    3.4410    0.6828 H   0  0  0  0  0  0  0  0  0  0  0  0
    0.0006    1.4094    0.0102 C   0  0  0  0  0  0  0  0  0  0  0  0
   -1.1940    0.6970   -0.0140 C   0  0  0  0  0  0  0  0  0  0  0  0
   -2.0622    1.1803   -0.0433 H   0  0  0  0  0  0  0  0  0  0  0  0
   -1.1946   -0.7019   -0.0000 C   0  0  0  0  0  0  0  0  0  0  0  0
   -2.0770   -1.1892    0.0098 H   0  0  0  0  0  0  0  0  0  0  0  0
   -0.0032   -1.3937    0.0019 C   0  0  0  0  0  0  0  0  0  0  0  0
   -0.0079   -2.3972    0.0044 H   0  0  0  0  0  0  0  0  0  0  0  0
    1.1946   -0.7063   -0.0000 C   0  0  0  0  0  0  0  0  0  0  0  0
    2.0773   -1.2002   -0.0016 H   0  0  0  0  0  0  0  0  0  0  0  0
    1.1966    0.6955    0.0019 C   0  0  0  0  0  0  0  0  0  0  0  0
    2.0669    1.1837   -0.0038 H   0  0  0  0  0  0  0  0  0  0  0  0
  1  5  1  0
  5  8  1  0
  1  2  1  0
  1  3  1  0
  1  4  1  0
  5  6  1  0
  5  7  1  0
  8  9  1  0
  8 10  1  0
  8 11  1  0
 12 16  1  0
 16 17  2  0
 17 19  1  0
 19 21  2  0
 21 23  1  0
 23 25  2  0
 25 16  1  0
 12 13  1  0
 12 14  1  0
 12 15  1  0
 17 18  1  0
 19 20  1  0
 21 22  1  0
 23 24  1  0
 25 26  1  0
M  CHG  1   8   1
M  END
>  <PDB_ID>  (2480) 
pdb4pxl

>  <RESIDUE_NAME>  (2480) 
LYS   PHE

>  <FRAG_NAME>  (2480) 
ETAM   MBZ

>  <FRAG_ATOM_NUM>  (2480) 
fragi: 11  fragj: 15

>  <atom.prop.CHAIN_ID>  (2480) 
A A A A A A A A A A A Z Z Z Z Z Z Z Z Z Z Z Z Z Z Z

>  <atom.prop.IS_HEAVY_ATOM>  (2480) 
1 0 0 0 1 0 0 1 0 0 0 1 0 0 0 1 1 0 1 0 1 0 1 0 1 0

>  <DIFUSE_FUNC_ATOM>  (2480) 
n/a

>  <FINAL_SINGLE_POINT_ENERGY>  (2480) 
0

>  <NONCOV_INTER_ENERGY_QM>  (2480) 
0

>  <FF_Energy>  (2480) 
-2.65

>  <QM_Energy>  (2480) 
-10.87

>  <source>  (2480) 
ETAM_MBZ

>  <Index>  (2480) 
26206

$$$$
ETAM-pdb4py9-A-LYS-200:MBZ-pdb4py9-A-PHE-159
     RDKit          3D

 26 25  0  0  0  0  0  0  0  0999 V2000
   -0.3479   -2.7900    4.4416 C   0  0  0  0  0  0  0  0  0  0  0  0
   -0.2386   -2.5080    5.3863 H   0  0  0  0  0  0  0  0  0  0  0  0
    0.4744   -3.2318    4.1075 H   0  0  0  0  0  0  0  0  0  0  0  0
   -1.1829   -3.4870    4.3706 H   0  0  0  0  0  0  0  0  0  0  0  0
   -0.6120   -1.5560    3.5954 C   0  0  0  0  0  0  0  0  0  0  0  0
   -0.7076   -1.8339    2.6364 H   0  0  0  0  0  0  0  0  0  0  0  0
   -1.4686   -1.1312    3.8985 H   0  0  0  0  0  0  0  0  0  0  0  0
    0.4919   -0.5665    3.7111 N   0  0  0  0  0  4  0  0  0  0  0  0
    0.8835   -0.3978    2.8062 H   0  0  0  0  0  0  0  0  0  0  0  0
    0.1334    0.2889    4.0853 H   0  0  0  0  0  0  0  0  0  0  0  0
    1.1992   -0.9273    4.3195 H   0  0  0  0  0  0  0  0  0  0  0  0
   -0.0008    2.9052    0.0039 C   0  0  0  0  0  0  0  0  0  0  0  0
   -0.6400    3.2133   -0.6837 H   0  0  0  0  0  0  0  0  0  0  0  0
    0.9176    3.2114   -0.1937 H   0  0  0  0  0  0  0  0  0  0  0  0
   -0.3000    3.3407    0.9572 H   0  0  0  0  0  0  0  0  0  0  0  0
   -0.0002    1.4005   -0.0017 C   0  0  0  0  0  0  0  0  0  0  0  0
   -1.1941    0.6925    0.0003 C   0  0  0  0  0  0  0  0  0  0  0  0
   -2.0622    1.1826    0.0003 H   0  0  0  0  0  0  0  0  0  0  0  0
   -1.1984   -0.6956   -0.0000 C   0  0  0  0  0  0  0  0  0  0  0  0
   -2.0772   -1.1890    0.0025 H   0  0  0  0  0  0  0  0  0  0  0  0
   -0.0017   -1.3908   -0.0013 C   0  0  0  0  0  0  0  0  0  0  0  0
   -0.0044   -2.3901   -0.0037 H   0  0  0  0  0  0  0  0  0  0  0  0
    1.1984   -0.6955   -0.0000 C   0  0  0  0  0  0  0  0  0  0  0  0
    2.0791   -1.1967    0.0002 H   0  0  0  0  0  0  0  0  0  0  0  0
    1.1959    0.6889    0.0027 C   0  0  0  0  0  0  0  0  0  0  0  0
    2.0637    1.1872    0.0067 H   0  0  0  0  0  0  0  0  0  0  0  0
  1  5  1  0
  5  8  1  0
  1  2  1  0
  1  3  1  0
  1  4  1  0
  5  6  1  0
  5  7  1  0
  8  9  1  0
  8 10  1  0
  8 11  1  0
 12 16  1  0
 16 17  2  0
 17 19  1  0
 19 21  2  0
 21 23  1  0
 23 25  2  0
 25 16  1  0
 12 13  1  0
 12 14  1  0
 12 15  1  0
 17 18  1  0
 19 20  1  0
 21 22  1  0
 23 24  1  0
 25 26  1  0
M  CHG  1   8   1
M  END
>  <PDB_ID>  (2481) 
pdb4py9

>  <RESIDUE_NAME>  (2481) 
LYS   PHE

>  <FRAG_NAME>  (2481) 
ETAM   MBZ

>  <FRAG_ATOM_NUM>  (2481) 
fragi: 11  fragj: 15

>  <atom.prop.CHAIN_ID>  (2481) 
A A A A A A A A A A A Z Z Z Z Z Z Z Z Z Z Z Z Z Z Z

>  <atom.prop.IS_HEAVY_ATOM>  (2481) 
1 0 0 0 1 0 0 1 0 0 0 1 0 0 0 1 1 0 1 0 1 0 1 0 1 0

>  <DIFUSE_FUNC_ATOM>  (2481) 
n/a

>  <FINAL_SINGLE_POINT_ENERGY>  (2481) 
0

>  <NONCOV_INTER_ENERGY_QM>  (2481) 
0

>  <FF_Energy>  (2481) 
-6.87

>  <QM_Energy>  (2481) 
-12.8

>  <source>  (2481) 
ETAM_MBZ

>  <Index>  (2481) 
26215

$$$$
ETAM-pdb3ru6-A-LYS-221:MBZ-pdb3ru6-A-PHE-179
     RDKit          3D

 26 25  0  0  0  0  0  0  0  0999 V2000
   -0.2554   -2.1603    3.9033 C   0  0  0  0  0  0  0  0  0  0  0  0
   -1.0824   -1.6552    4.1850 H   0  0  0  0  0  0  0  0  0  0  0  0
    0.2083   -2.4921    4.7360 H   0  0  0  0  0  0  0  0  0  0  0  0
   -0.5772   -3.0311    3.3323 H   0  0  0  0  0  0  0  0  0  0  0  0
    0.6559   -1.2423    3.1635 C   0  0  0  0  0  0  0  0  0  0  0  0
    1.5306   -1.6934    2.9806 H   0  0  0  0  0  0  0  0  0  0  0  0
    0.2404   -0.9640    2.2963 H   0  0  0  0  0  0  0  0  0  0  0  0
    0.9434    0.0216    3.9684 N   0  0  0  0  0  4  0  0  0  0  0  0
    0.0849    0.3581    4.3396 H   0  0  0  0  0  0  0  0  0  0  0  0
    1.5735   -0.2106    4.7014 H   0  0  0  0  0  0  0  0  0  0  0  0
    1.3489    0.6948    3.3599 H   0  0  0  0  0  0  0  0  0  0  0  0
    0.0137    2.8865   -0.0372 C   0  0  0  0  0  0  0  0  0  0  0  0
    0.9302    3.1918    0.1670 H   0  0  0  0  0  0  0  0  0  0  0  0
   -0.6350    3.2106    0.6329 H   0  0  0  0  0  0  0  0  0  0  0  0
   -0.2698    3.2974   -1.0061 H   0  0  0  0  0  0  0  0  0  0  0  0
    0.0037    1.3920   -0.0086 C   0  0  0  0  0  0  0  0  0  0  0  0
   -1.1843    0.6941    0.0028 C   0  0  0  0  0  0  0  0  0  0  0  0
   -2.0538    1.1859    0.0116 H   0  0  0  0  0  0  0  0  0  0  0  0
   -1.1922   -0.6901   -0.0000 C   0  0  0  0  0  0  0  0  0  0  0  0
   -2.0780   -1.1781   -0.0054 H   0  0  0  0  0  0  0  0  0  0  0  0
   -0.0103   -1.3850    0.0069 C   0  0  0  0  0  0  0  0  0  0  0  0
   -0.0133   -2.3873    0.0161 H   0  0  0  0  0  0  0  0  0  0  0  0
    1.1922   -0.6976   -0.0000 C   0  0  0  0  0  0  0  0  0  0  0  0
    2.0708   -1.2006   -0.0031 H   0  0  0  0  0  0  0  0  0  0  0  0
    1.1909    0.6867   -0.0010 C   0  0  0  0  0  0  0  0  0  0  0  0
    2.0626    1.1810    0.0029 H   0  0  0  0  0  0  0  0  0  0  0  0
  1  5  1  0
  5  8  1  0
  1  2  1  0
  1  3  1  0
  1  4  1  0
  5  6  1  0
  5  7  1  0
  8  9  1  0
  8 10  1  0
  8 11  1  0
 12 16  1  0
 16 17  2  0
 17 19  1  0
 19 21  2  0
 21 23  1  0
 23 25  2  0
 25 16  1  0
 12 13  1  0
 12 14  1  0
 12 15  1  0
 17 18  1  0
 19 20  1  0
 21 22  1  0
 23 24  1  0
 25 26  1  0
M  CHG  1   8   1
M  END
>  <PDB_ID>  (2482) 
pdb3ru6

>  <RESIDUE_NAME>  (2482) 
LYS   PHE

>  <FRAG_NAME>  (2482) 
ETAM   MBZ

>  <FRAG_ATOM_NUM>  (2482) 
fragi: 11  fragj: 15

>  <atom.prop.CHAIN_ID>  (2482) 
A A A A A A A A A A A Z Z Z Z Z Z Z Z Z Z Z Z Z Z Z

>  <atom.prop.IS_HEAVY_ATOM>  (2482) 
1 0 0 0 1 0 0 1 0 0 0 1 0 0 0 1 1 0 1 0 1 0 1 0 1 0

>  <DIFUSE_FUNC_ATOM>  (2482) 
n/a

>  <FINAL_SINGLE_POINT_ENERGY>  (2482) 
0

>  <NONCOV_INTER_ENERGY_QM>  (2482) 
0

>  <FF_Energy>  (2482) 
-2.22

>  <QM_Energy>  (2482) 
-9.05

>  <source>  (2482) 
ETAM_MBZ

>  <Index>  (2482) 
26217

$$$$
ETAM-pdb3ru6-B-LYS-221:MBZ-pdb3ru6-B-PHE-179
     RDKit          3D

 26 25  0  0  0  0  0  0  0  0999 V2000
    0.6934   -2.0992    3.1950 C   0  0  0  0  0  0  0  0  0  0  0  0
    1.1997   -2.2579    4.0367 H   0  0  0  0  0  0  0  0  0  0  0  0
    1.3162   -1.8520    2.4591 H   0  0  0  0  0  0  0  0  0  0  0  0
    0.1810   -3.0213    2.9207 H   0  0  0  0  0  0  0  0  0  0  0  0
   -0.2814   -0.9628    3.4158 C   0  0  0  0  0  0  0  0  0  0  0  0
   -0.8297   -0.8366    2.5850 H   0  0  0  0  0  0  0  0  0  0  0  0
   -0.8931   -1.2000    4.1752 H   0  0  0  0  0  0  0  0  0  0  0  0
    0.4224    0.3014    3.7326 N   0  0  0  0  0  4  0  0  0  0  0  0
    0.2705    0.5382    4.6933 H   0  0  0  0  0  0  0  0  0  0  0  0
    1.4035    0.1884    3.5692 H   0  0  0  0  0  0  0  0  0  0  0  0
    0.0712    1.0352    3.1499 H   0  0  0  0  0  0  0  0  0  0  0  0
    0.0040    2.9010   -0.0510 C   0  0  0  0  0  0  0  0  0  0  0  0
    0.9266    3.2077    0.0987 H   0  0  0  0  0  0  0  0  0  0  0  0
   -0.6130    3.2301    0.6415 H   0  0  0  0  0  0  0  0  0  0  0  0
   -0.3292    3.2895   -1.0133 H   0  0  0  0  0  0  0  0  0  0  0  0
   -0.0001    1.3969   -0.0006 C   0  0  0  0  0  0  0  0  0  0  0  0
   -1.1917    0.6929    0.0106 C   0  0  0  0  0  0  0  0  0  0  0  0
   -2.0598    1.1800    0.0247 H   0  0  0  0  0  0  0  0  0  0  0  0
   -1.1940   -0.6981    0.0000 C   0  0  0  0  0  0  0  0  0  0  0  0
   -2.0716   -1.1909   -0.0086 H   0  0  0  0  0  0  0  0  0  0  0  0
    0.0034   -1.3880    0.0030 C   0  0  0  0  0  0  0  0  0  0  0  0
    0.0007   -2.3894    0.0067 H   0  0  0  0  0  0  0  0  0  0  0  0
    1.1940   -0.6929   -0.0000 C   0  0  0  0  0  0  0  0  0  0  0  0
    2.0795   -1.1906    0.0087 H   0  0  0  0  0  0  0  0  0  0  0  0
    1.1884    0.6893   -0.0130 C   0  0  0  0  0  0  0  0  0  0  0  0
    2.0597    1.1873   -0.0326 H   0  0  0  0  0  0  0  0  0  0  0  0
  1  5  1  0
  5  8  1  0
  1  2  1  0
  1  3  1  0
  1  4  1  0
  5  6  1  0
  5  7  1  0
  8  9  1  0
  8 10  1  0
  8 11  1  0
 12 16  1  0
 16 17  2  0
 17 19  1  0
 19 21  2  0
 21 23  1  0
 23 25  2  0
 25 16  1  0
 12 13  1  0
 12 14  1  0
 12 15  1  0
 17 18  1  0
 19 20  1  0
 21 22  1  0
 23 24  1  0
 25 26  1  0
M  CHG  1   8   1
M  END
>  <PDB_ID>  (2483) 
pdb3ru6

>  <RESIDUE_NAME>  (2483) 
LYS   PHE

>  <FRAG_NAME>  (2483) 
ETAM   MBZ

>  <FRAG_ATOM_NUM>  (2483) 
fragi: 11  fragj: 15

>  <atom.prop.CHAIN_ID>  (2483) 
A A A A A A A A A A A Z Z Z Z Z Z Z Z Z Z Z Z Z Z Z

>  <atom.prop.IS_HEAVY_ATOM>  (2483) 
1 0 0 0 1 0 0 1 0 0 0 1 0 0 0 1 1 0 1 0 1 0 1 0 1 0

>  <DIFUSE_FUNC_ATOM>  (2483) 
n/a

>  <FINAL_SINGLE_POINT_ENERGY>  (2483) 
0

>  <NONCOV_INTER_ENERGY_QM>  (2483) 
0

>  <FF_Energy>  (2483) 
-6.45

>  <QM_Energy>  (2483) 
-12.02

>  <source>  (2483) 
ETAM_MBZ

>  <Index>  (2483) 
26219

$$$$
ETAM-pdb3ru6-C-LYS-221:MBZ-pdb3ru6-C-PHE-179
     RDKit          3D

 26 25  0  0  0  0  0  0  0  0999 V2000
    0.7190   -2.0171    3.2280 C   0  0  0  0  0  0  0  0  0  0  0  0
    1.2558   -2.2380    4.0414 H   0  0  0  0  0  0  0  0  0  0  0  0
    1.3331   -1.8079    2.4674 H   0  0  0  0  0  0  0  0  0  0  0  0
    0.1328   -2.8961    2.9599 H   0  0  0  0  0  0  0  0  0  0  0  0
   -0.1390   -0.8097    3.5160 C   0  0  0  0  0  0  0  0  0  0  0  0
   -0.7437   -0.6395    2.7371 H   0  0  0  0  0  0  0  0  0  0  0  0
   -0.6919   -0.9832    4.3326 H   0  0  0  0  0  0  0  0  0  0  0  0
    0.7020    0.4012    3.7493 N   0  0  0  0  0  4  0  0  0  0  0  0
    0.2962    1.1814    3.2752 H   0  0  0  0  0  0  0  0  0  0  0  0
    0.7450    0.5886    4.7295 H   0  0  0  0  0  0  0  0  0  0  0  0
    1.6218    0.2359    3.3982 H   0  0  0  0  0  0  0  0  0  0  0  0
    0.0015    2.8949   -0.0544 C   0  0  0  0  0  0  0  0  0  0  0  0
    0.9196    3.2074    0.1201 H   0  0  0  0  0  0  0  0  0  0  0  0
   -0.6352    3.2264    0.6212 H   0  0  0  0  0  0  0  0  0  0  0  0
   -0.3067    3.2862   -1.0240 H   0  0  0  0  0  0  0  0  0  0  0  0
   -0.0005    1.3984   -0.0058 C   0  0  0  0  0  0  0  0  0  0  0  0
   -1.1925    0.6928    0.0097 C   0  0  0  0  0  0  0  0  0  0  0  0
   -2.0612    1.1778    0.0263 H   0  0  0  0  0  0  0  0  0  0  0  0
   -1.1923   -0.6995    0.0000 C   0  0  0  0  0  0  0  0  0  0  0  0
   -2.0706   -1.1921   -0.0092 H   0  0  0  0  0  0  0  0  0  0  0  0
    0.0027   -1.3863    0.0044 C   0  0  0  0  0  0  0  0  0  0  0  0
    0.0011   -2.3894    0.0102 H   0  0  0  0  0  0  0  0  0  0  0  0
    1.1923   -0.6935    0.0000 C   0  0  0  0  0  0  0  0  0  0  0  0
    2.0782   -1.1928    0.0042 H   0  0  0  0  0  0  0  0  0  0  0  0
    1.1903    0.6880   -0.0083 C   0  0  0  0  0  0  0  0  0  0  0  0
    2.0605    1.1859   -0.0170 H   0  0  0  0  0  0  0  0  0  0  0  0
  1  5  1  0
  5  8  1  0
  1  2  1  0
  1  3  1  0
  1  4  1  0
  5  6  1  0
  5  7  1  0
  8  9  1  0
  8 10  1  0
  8 11  1  0
 12 16  1  0
 16 17  2  0
 17 19  1  0
 19 21  2  0
 21 23  1  0
 23 25  2  0
 25 16  1  0
 12 13  1  0
 12 14  1  0
 12 15  1  0
 17 18  1  0
 19 20  1  0
 21 22  1  0
 23 24  1  0
 25 26  1  0
M  CHG  1   8   1
M  END
>  <PDB_ID>  (2484) 
pdb3ru6

>  <RESIDUE_NAME>  (2484) 
LYS   PHE

>  <FRAG_NAME>  (2484) 
ETAM   MBZ

>  <FRAG_ATOM_NUM>  (2484) 
fragi: 11  fragj: 15

>  <atom.prop.CHAIN_ID>  (2484) 
A A A A A A A A A A A Z Z Z Z Z Z Z Z Z Z Z Z Z Z Z

>  <atom.prop.IS_HEAVY_ATOM>  (2484) 
1 0 0 0 1 0 0 1 0 0 0 1 0 0 0 1 1 0 1 0 1 0 1 0 1 0

>  <DIFUSE_FUNC_ATOM>  (2484) 
n/a

>  <FINAL_SINGLE_POINT_ENERGY>  (2484) 
0

>  <NONCOV_INTER_ENERGY_QM>  (2484) 
0

>  <FF_Energy>  (2484) 
-6.71

>  <QM_Energy>  (2484) 
-11.8

>  <source>  (2484) 
ETAM_MBZ

>  <Index>  (2484) 
26221

$$$$
ETAM-pdb3rui-B-LYS-101:MBZ-pdb3rui-B-PHE-11
     RDKit          3D

 26 25  0  0  0  0  0  0  0  0999 V2000
   -0.3197   -4.5912   -2.3095 C   0  0  0  0  0  0  0  0  0  0  0  0
   -0.4730   -5.2453   -3.0460 H   0  0  0  0  0  0  0  0  0  0  0  0
   -0.4316   -3.6613   -2.6500 H   0  0  0  0  0  0  0  0  0  0  0  0
   -1.0616   -4.7671   -1.5306 H   0  0  0  0  0  0  0  0  0  0  0  0
    1.1130   -4.7545   -1.8032 C   0  0  0  0  0  0  0  0  0  0  0  0
    1.0909   -5.2451   -0.9250 H   0  0  0  0  0  0  0  0  0  0  0  0
    1.6282   -5.3091   -2.4656 H   0  0  0  0  0  0  0  0  0  0  0  0
    1.8092   -3.4471   -1.6145 N   0  0  0  0  0  4  0  0  0  0  0  0
    1.4023   -2.7668   -2.2217 H   0  0  0  0  0  0  0  0  0  0  0  0
    1.7084   -3.1548   -0.6647 H   0  0  0  0  0  0  0  0  0  0  0  0
    2.7785   -3.5559   -1.8319 H   0  0  0  0  0  0  0  0  0  0  0  0
   -0.0082    2.9094    0.0038 C   0  0  0  0  0  0  0  0  0  0  0  0
   -0.3516    3.2137   -0.8692 H   0  0  0  0  0  0  0  0  0  0  0  0
    0.9153    3.2176    0.1612 H   0  0  0  0  0  0  0  0  0  0  0  0
   -0.6422    3.3350    0.7817 H   0  0  0  0  0  0  0  0  0  0  0  0
    0.0003    1.4013   -0.0008 C   0  0  0  0  0  0  0  0  0  0  0  0
   -1.1912    0.6892   -0.0016 C   0  0  0  0  0  0  0  0  0  0  0  0
   -2.0614    1.1782   -0.0049 H   0  0  0  0  0  0  0  0  0  0  0  0
   -1.1944   -0.6992   -0.0000 C   0  0  0  0  0  0  0  0  0  0  0  0
   -2.0739   -1.1920    0.0015 H   0  0  0  0  0  0  0  0  0  0  0  0
   -0.0005   -1.3909    0.0016 C   0  0  0  0  0  0  0  0  0  0  0  0
   -0.0022   -2.3914    0.0037 H   0  0  0  0  0  0  0  0  0  0  0  0
    1.1944   -0.6958   -0.0000 C   0  0  0  0  0  0  0  0  0  0  0  0
    2.0785   -1.1917   -0.0005 H   0  0  0  0  0  0  0  0  0  0  0  0
    1.1914    0.6953    0.0008 C   0  0  0  0  0  0  0  0  0  0  0  0
    2.0619    1.1891    0.0014 H   0  0  0  0  0  0  0  0  0  0  0  0
  1  5  1  0
  5  8  1  0
  1  2  1  0
  1  3  1  0
  1  4  1  0
  5  6  1  0
  5  7  1  0
  8  9  1  0
  8 10  1  0
  8 11  1  0
 12 16  1  0
 16 17  2  0
 17 19  1  0
 19 21  2  0
 21 23  1  0
 23 25  2  0
 25 16  1  0
 12 13  1  0
 12 14  1  0
 12 15  1  0
 17 18  1  0
 19 20  1  0
 21 22  1  0
 23 24  1  0
 25 26  1  0
M  CHG  1   8   1
M  END
>  <PDB_ID>  (2485) 
pdb3rui

>  <RESIDUE_NAME>  (2485) 
LYS   PHE

>  <FRAG_NAME>  (2485) 
ETAM   MBZ

>  <FRAG_ATOM_NUM>  (2485) 
fragi: 11  fragj: 15

>  <atom.prop.CHAIN_ID>  (2485) 
A A A A A A A A A A A Z Z Z Z Z Z Z Z Z Z Z Z Z Z Z

>  <atom.prop.IS_HEAVY_ATOM>  (2485) 
1 0 0 0 1 0 0 1 0 0 0 1 0 0 0 1 1 0 1 0 1 0 1 0 1 0

>  <DIFUSE_FUNC_ATOM>  (2485) 
n/a

>  <FINAL_SINGLE_POINT_ENERGY>  (2485) 
0

>  <NONCOV_INTER_ENERGY_QM>  (2485) 
0

>  <FF_Energy>  (2485) 
0.73

>  <QM_Energy>  (2485) 
-6.51

>  <source>  (2485) 
ETAM_MBZ

>  <Index>  (2485) 
26225

$$$$
ETAM-pdb4py3-D-LYS-99:MBZ-pdb4py3-D-PHE-106
     RDKit          3D

 26 25  0  0  0  0  0  0  0  0999 V2000
   -1.8036   -2.4358   -3.3279 C   0  0  0  0  0  0  0  0  0  0  0  0
   -2.5589   -2.8314   -3.8559 H   0  0  0  0  0  0  0  0  0  0  0  0
   -1.0051   -2.3319   -3.9243 H   0  0  0  0  0  0  0  0  0  0  0  0
   -2.1047   -1.4518   -2.9687 H   0  0  0  0  0  0  0  0  0  0  0  0
   -1.4488   -3.3851   -2.2080 C   0  0  0  0  0  0  0  0  0  0  0  0
   -0.6917   -3.0007   -1.6793 H   0  0  0  0  0  0  0  0  0  0  0  0
   -2.2436   -3.5008   -1.6098 H   0  0  0  0  0  0  0  0  0  0  0  0
   -1.0468   -4.7084   -2.7454 N   0  0  0  0  0  4  0  0  0  0  0  0
   -0.1507   -4.9597   -2.3773 H   0  0  0  0  0  0  0  0  0  0  0  0
   -1.7215   -5.3976   -2.4775 H   0  0  0  0  0  0  0  0  0  0  0  0
   -0.9956   -4.6627   -3.7435 H   0  0  0  0  0  0  0  0  0  0  0  0
   -0.0106    2.8946    0.0008 C   0  0  0  0  0  0  0  0  0  0  0  0
    0.8206    3.2070    0.4371 H   0  0  0  0  0  0  0  0  0  0  0  0
   -0.8116    3.1981    0.4951 H   0  0  0  0  0  0  0  0  0  0  0  0
   -0.0487    3.3317   -0.9970 H   0  0  0  0  0  0  0  0  0  0  0  0
   -0.0026    1.3982    0.0010 C   0  0  0  0  0  0  0  0  0  0  0  0
   -1.1930    0.6901   -0.0003 C   0  0  0  0  0  0  0  0  0  0  0  0
   -2.0631    1.1803   -0.0034 H   0  0  0  0  0  0  0  0  0  0  0  0
   -1.1991   -0.6978    0.0000 C   0  0  0  0  0  0  0  0  0  0  0  0
   -2.0757   -1.1915    0.0018 H   0  0  0  0  0  0  0  0  0  0  0  0
    0.0008   -1.3911   -0.0005 C   0  0  0  0  0  0  0  0  0  0  0  0
   -0.0013   -2.3905   -0.0012 H   0  0  0  0  0  0  0  0  0  0  0  0
    1.1991   -0.6936   -0.0000 C   0  0  0  0  0  0  0  0  0  0  0  0
    2.0819   -1.1919    0.0022 H   0  0  0  0  0  0  0  0  0  0  0  0
    1.1948    0.6941   -0.0002 C   0  0  0  0  0  0  0  0  0  0  0  0
    2.0613    1.1924   -0.0022 H   0  0  0  0  0  0  0  0  0  0  0  0
  1  5  1  0
  5  8  1  0
  1  2  1  0
  1  3  1  0
  1  4  1  0
  5  6  1  0
  5  7  1  0
  8  9  1  0
  8 10  1  0
  8 11  1  0
 12 16  1  0
 16 17  2  0
 17 19  1  0
 19 21  2  0
 21 23  1  0
 23 25  2  0
 25 16  1  0
 12 13  1  0
 12 14  1  0
 12 15  1  0
 17 18  1  0
 19 20  1  0
 21 22  1  0
 23 24  1  0
 25 26  1  0
M  CHG  1   8   1
M  END
>  <PDB_ID>  (2486) 
pdb4py3

>  <RESIDUE_NAME>  (2486) 
LYS   PHE

>  <FRAG_NAME>  (2486) 
ETAM   MBZ

>  <FRAG_ATOM_NUM>  (2486) 
fragi: 11  fragj: 15

>  <atom.prop.CHAIN_ID>  (2486) 
A A A A A A A A A A A Z Z Z Z Z Z Z Z Z Z Z Z Z Z Z

>  <atom.prop.IS_HEAVY_ATOM>  (2486) 
1 0 0 0 1 0 0 1 0 0 0 1 0 0 0 1 1 0 1 0 1 0 1 0 1 0

>  <DIFUSE_FUNC_ATOM>  (2486) 
n/a

>  <FINAL_SINGLE_POINT_ENERGY>  (2486) 
0

>  <NONCOV_INTER_ENERGY_QM>  (2486) 
0

>  <FF_Energy>  (2486) 
2.22

>  <QM_Energy>  (2486) 
-3.77

>  <source>  (2486) 
ETAM_MBZ

>  <Index>  (2486) 
26230

$$$$
ETAM-pdb4py3-F-LYS-99:MBZ-pdb4py3-F-PHE-106
     RDKit          3D

 26 25  0  0  0  0  0  0  0  0999 V2000
    2.8285   -1.8964    3.1172 C   0  0  0  0  0  0  0  0  0  0  0  0
    3.6588   -2.1544    3.6148 H   0  0  0  0  0  0  0  0  0  0  0  0
    2.0442   -1.9361    3.7388 H   0  0  0  0  0  0  0  0  0  0  0  0
    2.9401   -0.8734    2.7580 H   0  0  0  0  0  0  0  0  0  0  0  0
    2.6081   -2.8863    1.9981 C   0  0  0  0  0  0  0  0  0  0  0  0
    1.7775   -2.6391    1.4981 H   0  0  0  0  0  0  0  0  0  0  0  0
    3.3908   -2.8573    1.3738 H   0  0  0  0  0  0  0  0  0  0  0  0
    2.4626   -4.2637    2.5337 N   0  0  0  0  0  4  0  0  0  0  0  0
    3.3590   -4.6094    2.8114 H   0  0  0  0  0  0  0  0  0  0  0  0
    1.8507   -4.2504    3.3244 H   0  0  0  0  0  0  0  0  0  0  0  0
    2.0805   -4.8581    1.8257 H   0  0  0  0  0  0  0  0  0  0  0  0
   -0.0093    2.8933   -0.0257 C   0  0  0  0  0  0  0  0  0  0  0  0
   -0.8206    3.1917   -0.5305 H   0  0  0  0  0  0  0  0  0  0  0  0
    0.8119    3.2039   -0.5072 H   0  0  0  0  0  0  0  0  0  0  0  0
   -0.0264    3.3941    0.9423 H   0  0  0  0  0  0  0  0  0  0  0  0
    0.0016    1.3991   -0.0080 C   0  0  0  0  0  0  0  0  0  0  0  0
   -1.1988    0.6927   -0.0082 C   0  0  0  0  0  0  0  0  0  0  0  0
   -2.0638    1.1937   -0.0171 H   0  0  0  0  0  0  0  0  0  0  0  0
   -1.2191   -0.6934    0.0000 C   0  0  0  0  0  0  0  0  0  0  0  0
   -2.0874   -1.1862   -0.0102 H   0  0  0  0  0  0  0  0  0  0  0  0
   -0.0059   -1.3904    0.0258 C   0  0  0  0  0  0  0  0  0  0  0  0
   -0.0106   -2.3901    0.0618 H   0  0  0  0  0  0  0  0  0  0  0  0
    1.2191   -0.7006    0.0000 C   0  0  0  0  0  0  0  0  0  0  0  0
    2.0858   -1.2006   -0.0102 H   0  0  0  0  0  0  0  0  0  0  0  0
    1.2031    0.6926   -0.0096 C   0  0  0  0  0  0  0  0  0  0  0  0
    2.0689    1.1946   -0.0195 H   0  0  0  0  0  0  0  0  0  0  0  0
  1  5  1  0
  5  8  1  0
  1  2  1  0
  1  3  1  0
  1  4  1  0
  5  6  1  0
  5  7  1  0
  8  9  1  0
  8 10  1  0
  8 11  1  0
 12 16  1  0
 16 17  2  0
 17 19  1  0
 19 21  2  0
 21 23  1  0
 23 25  2  0
 25 16  1  0
 12 13  1  0
 12 14  1  0
 12 15  1  0
 17 18  1  0
 19 20  1  0
 21 22  1  0
 23 24  1  0
 25 26  1  0
M  CHG  1   8   1
M  END
>  <PDB_ID>  (2487) 
pdb4py3

>  <RESIDUE_NAME>  (2487) 
LYS   PHE

>  <FRAG_NAME>  (2487) 
ETAM   MBZ

>  <FRAG_ATOM_NUM>  (2487) 
fragi: 11  fragj: 15

>  <atom.prop.CHAIN_ID>  (2487) 
A A A A A A A A A A A Z Z Z Z Z Z Z Z Z Z Z Z Z Z Z

>  <atom.prop.IS_HEAVY_ATOM>  (2487) 
1 0 0 0 1 0 0 1 0 0 0 1 0 0 0 1 1 0 1 0 1 0 1 0 1 0

>  <DIFUSE_FUNC_ATOM>  (2487) 
n/a

>  <FINAL_SINGLE_POINT_ENERGY>  (2487) 
0

>  <NONCOV_INTER_ENERGY_QM>  (2487) 
0

>  <FF_Energy>  (2487) 
1.45

>  <QM_Energy>  (2487) 
-3.73

>  <source>  (2487) 
ETAM_MBZ

>  <Index>  (2487) 
26232

$$$$
ETAM-pdb4py3-G-LYS-99:MBZ-pdb4py3-G-PHE-106
     RDKit          3D

 26 25  0  0  0  0  0  0  0  0999 V2000
   -1.8361   -2.4555   -3.3283 C   0  0  0  0  0  0  0  0  0  0  0  0
   -2.5921   -2.8446   -3.8586 H   0  0  0  0  0  0  0  0  0  0  0  0
   -1.0342   -2.3586   -3.9216 H   0  0  0  0  0  0  0  0  0  0  0  0
   -2.1302   -1.4680   -2.9729 H   0  0  0  0  0  0  0  0  0  0  0  0
   -1.4951   -3.4040   -2.2049 C   0  0  0  0  0  0  0  0  0  0  0  0
   -0.7363   -3.0245   -1.6727 H   0  0  0  0  0  0  0  0  0  0  0  0
   -2.2934   -3.5113   -1.6105 H   0  0  0  0  0  0  0  0  0  0  0  0
   -1.1017   -4.7330   -2.7366 N   0  0  0  0  0  4  0  0  0  0  0  0
   -1.3135   -4.7775   -3.7134 H   0  0  0  0  0  0  0  0  0  0  0  0
   -0.1199   -4.8690   -2.6012 H   0  0  0  0  0  0  0  0  0  0  0  0
   -1.6065   -5.4484   -2.2535 H   0  0  0  0  0  0  0  0  0  0  0  0
   -0.0093    2.8913   -0.0067 C   0  0  0  0  0  0  0  0  0  0  0  0
    0.8209    3.2055    0.4302 H   0  0  0  0  0  0  0  0  0  0  0  0
   -0.8110    3.1987    0.4842 H   0  0  0  0  0  0  0  0  0  0  0  0
   -0.0443    3.3251   -1.0061 H   0  0  0  0  0  0  0  0  0  0  0  0
   -0.0026    1.3951    0.0008 C   0  0  0  0  0  0  0  0  0  0  0  0
   -1.1915    0.6907   -0.0018 C   0  0  0  0  0  0  0  0  0  0  0  0
   -2.0618    1.1823   -0.0064 H   0  0  0  0  0  0  0  0  0  0  0  0
   -1.1983   -0.6931   -0.0000 C   0  0  0  0  0  0  0  0  0  0  0  0
   -2.0763   -1.1872    0.0011 H   0  0  0  0  0  0  0  0  0  0  0  0
   -0.0016   -1.3886    0.0025 C   0  0  0  0  0  0  0  0  0  0  0  0
   -0.0059   -2.3881    0.0054 H   0  0  0  0  0  0  0  0  0  0  0  0
    1.1983   -0.6948    0.0000 C   0  0  0  0  0  0  0  0  0  0  0  0
    2.0789   -1.1957    0.0011 H   0  0  0  0  0  0  0  0  0  0  0  0
    1.1958    0.6908   -0.0016 C   0  0  0  0  0  0  0  0  0  0  0  0
    2.0616    1.1892   -0.0056 H   0  0  0  0  0  0  0  0  0  0  0  0
  1  5  1  0
  5  8  1  0
  1  2  1  0
  1  3  1  0
  1  4  1  0
  5  6  1  0
  5  7  1  0
  8  9  1  0
  8 10  1  0
  8 11  1  0
 12 16  1  0
 16 17  2  0
 17 19  1  0
 19 21  2  0
 21 23  1  0
 23 25  2  0
 25 16  1  0
 12 13  1  0
 12 14  1  0
 12 15  1  0
 17 18  1  0
 19 20  1  0
 21 22  1  0
 23 24  1  0
 25 26  1  0
M  CHG  1   8   1
M  END
>  <PDB_ID>  (2488) 
pdb4py3

>  <RESIDUE_NAME>  (2488) 
LYS   PHE

>  <FRAG_NAME>  (2488) 
ETAM   MBZ

>  <FRAG_ATOM_NUM>  (2488) 
fragi: 11  fragj: 15

>  <atom.prop.CHAIN_ID>  (2488) 
A A A A A A A A A A A Z Z Z Z Z Z Z Z Z Z Z Z Z Z Z

>  <atom.prop.IS_HEAVY_ATOM>  (2488) 
1 0 0 0 1 0 0 1 0 0 0 1 0 0 0 1 1 0 1 0 1 0 1 0 1 0

>  <DIFUSE_FUNC_ATOM>  (2488) 
n/a

>  <FINAL_SINGLE_POINT_ENERGY>  (2488) 
0

>  <NONCOV_INTER_ENERGY_QM>  (2488) 
0

>  <FF_Energy>  (2488) 
1.69

>  <QM_Energy>  (2488) 
-3.89

>  <source>  (2488) 
ETAM_MBZ

>  <Index>  (2488) 
26233

$$$$
ETAM-pdb3rus-B-LYS-42:MBZ-pdb3rus-B-PHE-476
     RDKit          3D

 26 25  0  0  0  0  0  0  0  0999 V2000
   -6.0885   -0.8362   -1.5537 C   0  0  0  0  0  0  0  0  0  0  0  0
   -7.0330   -0.7236   -1.8504 H   0  0  0  0  0  0  0  0  0  0  0  0
   -6.0149   -1.6062   -0.9271 H   0  0  0  0  0  0  0  0  0  0  0  0
   -5.4583   -1.0186   -2.4241 H   0  0  0  0  0  0  0  0  0  0  0  0
   -5.6590    0.4168   -0.8284 C   0  0  0  0  0  0  0  0  0  0  0  0
   -5.9823    1.2139   -1.3290 H   0  0  0  0  0  0  0  0  0  0  0  0
   -6.0378    0.4107    0.0920 H   0  0  0  0  0  0  0  0  0  0  0  0
   -4.1780    0.4545   -0.7488 N   0  0  0  0  0  4  0  0  0  0  0  0
   -3.8256    1.1188   -1.4085 H   0  0  0  0  0  0  0  0  0  0  0  0
   -3.9001    0.7219    0.1745 H   0  0  0  0  0  0  0  0  0  0  0  0
   -3.8086   -0.4514   -0.9593 H   0  0  0  0  0  0  0  0  0  0  0  0
    0.0081    2.9128    0.0057 C   0  0  0  0  0  0  0  0  0  0  0  0
    0.9518    3.2119   -0.0058 H   0  0  0  0  0  0  0  0  0  0  0  0
   -0.4525    3.2136    0.8278 H   0  0  0  0  0  0  0  0  0  0  0  0
   -0.4971    3.3693   -0.8456 H   0  0  0  0  0  0  0  0  0  0  0  0
   -0.0003    1.4052   -0.0054 C   0  0  0  0  0  0  0  0  0  0  0  0
   -1.1957    0.7015    0.0044 C   0  0  0  0  0  0  0  0  0  0  0  0
   -2.0632    1.1903    0.0133 H   0  0  0  0  0  0  0  0  0  0  0  0
   -1.2017   -0.6923   -0.0000 C   0  0  0  0  0  0  0  0  0  0  0  0
   -2.0800   -1.1841   -0.0018 H   0  0  0  0  0  0  0  0  0  0  0  0
   -0.0006   -1.3972   -0.0003 C   0  0  0  0  0  0  0  0  0  0  0  0
   -0.0124   -2.3952   -0.0010 H   0  0  0  0  0  0  0  0  0  0  0  0
    1.2017   -0.7074   -0.0000 C   0  0  0  0  0  0  0  0  0  0  0  0
    2.0812   -1.2022    0.0005 H   0  0  0  0  0  0  0  0  0  0  0  0
    1.1966    0.6902    0.0012 C   0  0  0  0  0  0  0  0  0  0  0  0
    2.0662    1.1836    0.0062 H   0  0  0  0  0  0  0  0  0  0  0  0
  1  5  1  0
  5  8  1  0
  1  2  1  0
  1  3  1  0
  1  4  1  0
  5  6  1  0
  5  7  1  0
  8  9  1  0
  8 10  1  0
  8 11  1  0
 12 16  1  0
 16 17  2  0
 17 19  1  0
 19 21  2  0
 21 23  1  0
 23 25  2  0
 25 16  1  0
 12 13  1  0
 12 14  1  0
 12 15  1  0
 17 18  1  0
 19 20  1  0
 21 22  1  0
 23 24  1  0
 25 26  1  0
M  CHG  1   8   1
M  END
>  <PDB_ID>  (2489) 
pdb3rus

>  <RESIDUE_NAME>  (2489) 
LYS   PHE

>  <FRAG_NAME>  (2489) 
ETAM   MBZ

>  <FRAG_ATOM_NUM>  (2489) 
fragi: 11  fragj: 15

>  <atom.prop.CHAIN_ID>  (2489) 
A A A A A A A A A A A Z Z Z Z Z Z Z Z Z Z Z Z Z Z Z

>  <atom.prop.IS_HEAVY_ATOM>  (2489) 
1 0 0 0 1 0 0 1 0 0 0 1 0 0 0 1 1 0 1 0 1 0 1 0 1 0

>  <DIFUSE_FUNC_ATOM>  (2489) 
n/a

>  <FINAL_SINGLE_POINT_ENERGY>  (2489) 
0

>  <NONCOV_INTER_ENERGY_QM>  (2489) 
0

>  <FF_Energy>  (2489) 
4.43

>  <QM_Energy>  (2489) 
-3.06

>  <source>  (2489) 
ETAM_MBZ

>  <Index>  (2489) 
26237

$$$$
ETAM-pdb3rwl-A-LYS-282:MBZ-pdb3rwl-A-PHE-278
     RDKit          3D

 26 25  0  0  0  0  0  0  0  0999 V2000
    1.8114   -1.8329    3.5777 C   0  0  0  0  0  0  0  0  0  0  0  0
    2.3013   -2.3229    4.2925 H   0  0  0  0  0  0  0  0  0  0  0  0
    1.6168   -2.4411    2.8141 H   0  0  0  0  0  0  0  0  0  0  0  0
    0.8731   -1.4534    3.9825 H   0  0  0  0  0  0  0  0  0  0  0  0
    2.7143   -0.7012    3.0691 C   0  0  0  0  0  0  0  0  0  0  0  0
    2.2259   -0.1688    2.4133 H   0  0  0  0  0  0  0  0  0  0  0  0
    3.0412   -0.1824    3.8283 H   0  0  0  0  0  0  0  0  0  0  0  0
    3.8842   -1.3776    2.3891 N   0  0  0  0  0  4  0  0  0  0  0  0
    4.4695   -0.6783    1.9902 H   0  0  0  0  0  0  0  0  0  0  0  0
    4.3892   -1.9016    3.0685 H   0  0  0  0  0  0  0  0  0  0  0  0
    3.5350   -1.9814    1.6788 H   0  0  0  0  0  0  0  0  0  0  0  0
   -0.0182    2.8784    0.0482 C   0  0  0  0  0  0  0  0  0  0  0  0
   -0.5339    3.2092   -0.7280 H   0  0  0  0  0  0  0  0  0  0  0  0
    0.9190    3.1928    0.0177 H   0  0  0  0  0  0  0  0  0  0  0  0
   -0.4787    3.2708    0.9550 H   0  0  0  0  0  0  0  0  0  0  0  0
   -0.0092    1.3903   -0.0028 C   0  0  0  0  0  0  0  0  0  0  0  0
   -1.1822    0.6751    0.0269 C   0  0  0  0  0  0  0  0  0  0  0  0
   -2.0615    1.1428    0.0668 H   0  0  0  0  0  0  0  0  0  0  0  0
   -1.1702   -0.7274   -0.0000 C   0  0  0  0  0  0  0  0  0  0  0  0
   -2.0465   -1.2184   -0.0038 H   0  0  0  0  0  0  0  0  0  0  0  0
    0.0196   -1.3768   -0.0178 C   0  0  0  0  0  0  0  0  0  0  0  0
    0.0461   -2.3830   -0.0447 H   0  0  0  0  0  0  0  0  0  0  0  0
    1.1702   -0.6586    0.0000 C   0  0  0  0  0  0  0  0  0  0  0  0
    2.0800   -1.1575    0.0207 H   0  0  0  0  0  0  0  0  0  0  0  0
    1.1718    0.6974   -0.0064 C   0  0  0  0  0  0  0  0  0  0  0  0
    2.0419    1.2022   -0.0150 H   0  0  0  0  0  0  0  0  0  0  0  0
  1  5  1  0
  5  8  1  0
  1  2  1  0
  1  3  1  0
  1  4  1  0
  5  6  1  0
  5  7  1  0
  8  9  1  0
  8 10  1  0
  8 11  1  0
 12 16  1  0
 16 17  2  0
 17 19  1  0
 19 21  2  0
 21 23  1  0
 23 25  2  0
 25 16  1  0
 12 13  1  0
 12 14  1  0
 12 15  1  0
 17 18  1  0
 19 20  1  0
 21 22  1  0
 23 24  1  0
 25 26  1  0
M  CHG  1   8   1
M  END
>  <PDB_ID>  (2490) 
pdb3rwl

>  <RESIDUE_NAME>  (2490) 
LYS   PHE

>  <FRAG_NAME>  (2490) 
ETAM   MBZ

>  <FRAG_ATOM_NUM>  (2490) 
fragi: 11  fragj: 15

>  <atom.prop.CHAIN_ID>  (2490) 
A A A A A A A A A A A Z Z Z Z Z Z Z Z Z Z Z Z Z Z Z

>  <atom.prop.IS_HEAVY_ATOM>  (2490) 
1 0 0 0 1 0 0 1 0 0 0 1 0 0 0 1 1 0 1 0 1 0 1 0 1 0

>  <DIFUSE_FUNC_ATOM>  (2490) 
n/a

>  <FINAL_SINGLE_POINT_ENERGY>  (2490) 
0

>  <NONCOV_INTER_ENERGY_QM>  (2490) 
0

>  <FF_Energy>  (2490) 
-1.2

>  <QM_Energy>  (2490) 
-6.54

>  <source>  (2490) 
ETAM_MBZ

>  <Index>  (2490) 
26257

$$$$
ETAM-pdb4py3-A-LYS-99:MBZ-pdb4py3-A-PHE-106
     RDKit          3D

 26 25  0  0  0  0  0  0  0  0999 V2000
   -0.8485   -1.8206   -3.8137 C   0  0  0  0  0  0  0  0  0  0  0  0
   -1.1510   -2.6950   -3.4902 H   0  0  0  0  0  0  0  0  0  0  0  0
   -0.8751   -1.7458   -4.7899 H   0  0  0  0  0  0  0  0  0  0  0  0
   -1.4671   -1.0386   -3.3733 H   0  0  0  0  0  0  0  0  0  0  0  0
    0.6271   -1.6220   -3.3564 C   0  0  0  0  0  0  0  0  0  0  0  0
    1.1095   -1.0948   -4.0817 H   0  0  0  0  0  0  0  0  0  0  0  0
    0.6192   -1.0316   -2.5258 H   0  0  0  0  0  0  0  0  0  0  0  0
    1.4120   -2.8699   -3.0590 N   0  0  0  0  0  4  0  0  0  0  0  0
    0.8243   -3.6627   -3.1989 H   0  0  0  0  0  0  0  0  0  0  0  0
    2.1959   -2.9139   -3.6733 H   0  0  0  0  0  0  0  0  0  0  0  0
    1.7221   -2.8392   -2.1118 H   0  0  0  0  0  0  0  0  0  0  0  0
   -0.0003    2.8957    0.0120 C   0  0  0  0  0  0  0  0  0  0  0  0
    0.8371    3.1969    0.4494 H   0  0  0  0  0  0  0  0  0  0  0  0
   -0.7941    3.1964    0.5240 H   0  0  0  0  0  0  0  0  0  0  0  0
   -0.0456    3.3512   -0.9772 H   0  0  0  0  0  0  0  0  0  0  0  0
   -0.0013    1.3985   -0.0039 C   0  0  0  0  0  0  0  0  0  0  0  0
   -1.1891    0.7041    0.0015 C   0  0  0  0  0  0  0  0  0  0  0  0
   -2.0581    1.1914    0.0048 H   0  0  0  0  0  0  0  0  0  0  0  0
   -1.1945   -0.6865   -0.0000 C   0  0  0  0  0  0  0  0  0  0  0  0
   -2.0786   -1.1765    0.0014 H   0  0  0  0  0  0  0  0  0  0  0  0
   -0.0025   -1.3940   -0.0008 C   0  0  0  0  0  0  0  0  0  0  0  0
   -0.0161   -2.3917   -0.0021 H   0  0  0  0  0  0  0  0  0  0  0  0
    1.1945   -0.7067    0.0000 C   0  0  0  0  0  0  0  0  0  0  0  0
    2.0762   -1.2041   -0.0006 H   0  0  0  0  0  0  0  0  0  0  0  0
    1.1928    0.6846    0.0032 C   0  0  0  0  0  0  0  0  0  0  0  0
    2.0630    1.1788    0.0102 H   0  0  0  0  0  0  0  0  0  0  0  0
  1  5  1  0
  5  8  1  0
  1  2  1  0
  1  3  1  0
  1  4  1  0
  5  6  1  0
  5  7  1  0
  8  9  1  0
  8 10  1  0
  8 11  1  0
 12 16  1  0
 16 17  2  0
 17 19  1  0
 19 21  2  0
 21 23  1  0
 23 25  2  0
 25 16  1  0
 12 13  1  0
 12 14  1  0
 12 15  1  0
 17 18  1  0
 19 20  1  0
 21 22  1  0
 23 24  1  0
 25 26  1  0
M  CHG  1   8   1
M  END
>  <PDB_ID>  (2491) 
pdb4py3

>  <RESIDUE_NAME>  (2491) 
LYS   PHE

>  <FRAG_NAME>  (2491) 
ETAM   MBZ

>  <FRAG_ATOM_NUM>  (2491) 
fragi: 11  fragj: 15

>  <atom.prop.CHAIN_ID>  (2491) 
A A A A A A A A A A A Z Z Z Z Z Z Z Z Z Z Z Z Z Z Z

>  <atom.prop.IS_HEAVY_ATOM>  (2491) 
1 0 0 0 1 0 0 1 0 0 0 1 0 0 0 1 1 0 1 0 1 0 1 0 1 0

>  <DIFUSE_FUNC_ATOM>  (2491) 
n/a

>  <FINAL_SINGLE_POINT_ENERGY>  (2491) 
0

>  <NONCOV_INTER_ENERGY_QM>  (2491) 
0

>  <FF_Energy>  (2491) 
-2.82

>  <QM_Energy>  (2491) 
-9.12

>  <source>  (2491) 
ETAM_MBZ

>  <Index>  (2491) 
26258

$$$$
ETAM-pdb3rrl-C-LYS-155:MBZ-pdb3rrl-C-PHE-219
     RDKit          3D

 26 25  0  0  0  0  0  0  0  0999 V2000
   -1.9112   -1.0509    3.3973 C   0  0  0  0  0  0  0  0  0  0  0  0
   -1.4035   -1.9038    3.4261 H   0  0  0  0  0  0  0  0  0  0  0  0
   -2.5413   -1.0432    2.6309 H   0  0  0  0  0  0  0  0  0  0  0  0
   -2.4767   -0.9444    4.3231 H   0  0  0  0  0  0  0  0  0  0  0  0
   -0.9218    0.0971    3.2219 C   0  0  0  0  0  0  0  0  0  0  0  0
   -0.4460   -0.0199    2.3490 H   0  0  0  0  0  0  0  0  0  0  0  0
   -1.4300    0.9598    3.2084 H   0  0  0  0  0  0  0  0  0  0  0  0
    0.0657    0.1214    4.3236 N   0  0  0  0  0  4  0  0  0  0  0  0
    0.8953    0.5931    4.0207 H   0  0  0  0  0  0  0  0  0  0  0  0
   -0.3210    0.6033    5.1105 H   0  0  0  0  0  0  0  0  0  0  0  0
    0.2959   -0.8156    4.5889 H   0  0  0  0  0  0  0  0  0  0  0  0
   -0.0013    2.9071   -0.0030 C   0  0  0  0  0  0  0  0  0  0  0  0
    0.7918    3.2156    0.4981 H   0  0  0  0  0  0  0  0  0  0  0  0
   -0.8397    3.2130    0.4191 H   0  0  0  0  0  0  0  0  0  0  0  0
    0.0461    3.3366   -1.0037 H   0  0  0  0  0  0  0  0  0  0  0  0
    0.0011    1.4001    0.0057 C   0  0  0  0  0  0  0  0  0  0  0  0
   -1.1911    0.6932    0.0018 C   0  0  0  0  0  0  0  0  0  0  0  0
   -2.0603    1.1813   -0.0012 H   0  0  0  0  0  0  0  0  0  0  0  0
   -1.1964   -0.6987    0.0000 C   0  0  0  0  0  0  0  0  0  0  0  0
   -2.0770   -1.1886    0.0030 H   0  0  0  0  0  0  0  0  0  0  0  0
   -0.0028   -1.3926   -0.0036 C   0  0  0  0  0  0  0  0  0  0  0  0
   -0.0037   -2.3914   -0.0095 H   0  0  0  0  0  0  0  0  0  0  0  0
    1.1964   -0.6952   -0.0000 C   0  0  0  0  0  0  0  0  0  0  0  0
    2.0789   -1.1940    0.0071 H   0  0  0  0  0  0  0  0  0  0  0  0
    1.1928    0.6932   -0.0040 C   0  0  0  0  0  0  0  0  0  0  0  0
    2.0629    1.1882   -0.0151 H   0  0  0  0  0  0  0  0  0  0  0  0
  1  5  1  0
  5  8  1  0
  1  2  1  0
  1  3  1  0
  1  4  1  0
  5  6  1  0
  5  7  1  0
  8  9  1  0
  8 10  1  0
  8 11  1  0
 12 16  1  0
 16 17  2  0
 17 19  1  0
 19 21  2  0
 21 23  1  0
 23 25  2  0
 25 16  1  0
 12 13  1  0
 12 14  1  0
 12 15  1  0
 17 18  1  0
 19 20  1  0
 21 22  1  0
 23 24  1  0
 25 26  1  0
M  CHG  1   8   1
M  END
>  <PDB_ID>  (2492) 
pdb3rrl

>  <RESIDUE_NAME>  (2492) 
LYS   PHE

>  <FRAG_NAME>  (2492) 
ETAM   MBZ

>  <FRAG_ATOM_NUM>  (2492) 
fragi: 11  fragj: 15

>  <atom.prop.CHAIN_ID>  (2492) 
A A A A A A A A A A A Z Z Z Z Z Z Z Z Z Z Z Z Z Z Z

>  <atom.prop.IS_HEAVY_ATOM>  (2492) 
1 0 0 0 1 0 0 1 0 0 0 1 0 0 0 1 1 0 1 0 1 0 1 0 1 0

>  <DIFUSE_FUNC_ATOM>  (2492) 
n/a

>  <FINAL_SINGLE_POINT_ENERGY>  (2492) 
0

>  <NONCOV_INTER_ENERGY_QM>  (2492) 
0

>  <FF_Energy>  (2492) 
-4.29

>  <QM_Energy>  (2492) 
-10.01

>  <source>  (2492) 
ETAM_MBZ

>  <Index>  (2492) 
26279

$$$$
ETAM-pdb4py3-C-LYS-99:MBZ-pdb4py3-C-PHE-106
     RDKit          3D

 26 25  0  0  0  0  0  0  0  0999 V2000
    0.0260   -1.7412    4.1669 C   0  0  0  0  0  0  0  0  0  0  0  0
    0.1482   -2.5548    3.5892 H   0  0  0  0  0  0  0  0  0  0  0  0
    0.3459   -1.9553    5.0950 H   0  0  0  0  0  0  0  0  0  0  0  0
    0.6387   -0.9344    3.7648 H   0  0  0  0  0  0  0  0  0  0  0  0
   -1.4294   -1.4007    4.2222 C   0  0  0  0  0  0  0  0  0  0  0  0
   -1.9385   -2.1721    4.6490 H   0  0  0  0  0  0  0  0  0  0  0  0
   -1.5629   -0.5935    4.8277 H   0  0  0  0  0  0  0  0  0  0  0  0
   -2.0472   -1.1029    2.8996 N   0  0  0  0  0  4  0  0  0  0  0  0
   -1.8146   -0.1698    2.6284 H   0  0  0  0  0  0  0  0  0  0  0  0
   -1.6981   -1.7464    2.2194 H   0  0  0  0  0  0  0  0  0  0  0  0
   -3.0400   -1.1948    2.9696 H   0  0  0  0  0  0  0  0  0  0  0  0
   -0.0248    2.9085   -0.0095 C   0  0  0  0  0  0  0  0  0  0  0  0
   -0.7376    3.1978   -0.6362 H   0  0  0  0  0  0  0  0  0  0  0  0
    0.8639    3.2233   -0.3188 H   0  0  0  0  0  0  0  0  0  0  0  0
   -0.2235    3.3756    0.9552 H   0  0  0  0  0  0  0  0  0  0  0  0
   -0.0044    1.4025    0.0067 C   0  0  0  0  0  0  0  0  0  0  0  0
   -1.1875    0.6996   -0.0069 C   0  0  0  0  0  0  0  0  0  0  0  0
   -2.0604    1.1910   -0.0235 H   0  0  0  0  0  0  0  0  0  0  0  0
   -1.1994   -0.6853    0.0000 C   0  0  0  0  0  0  0  0  0  0  0  0
   -2.0828   -1.1749    0.0047 H   0  0  0  0  0  0  0  0  0  0  0  0
   -0.0087   -1.3928    0.0026 C   0  0  0  0  0  0  0  0  0  0  0  0
   -0.0211   -2.3909    0.0058 H   0  0  0  0  0  0  0  0  0  0  0  0
    1.1994   -0.7082   -0.0000 C   0  0  0  0  0  0  0  0  0  0  0  0
    2.0749   -1.2100    0.0011 H   0  0  0  0  0  0  0  0  0  0  0  0
    1.2006    0.6842   -0.0025 C   0  0  0  0  0  0  0  0  0  0  0  0
    2.0660    1.1806   -0.0120 H   0  0  0  0  0  0  0  0  0  0  0  0
  1  5  1  0
  5  8  1  0
  1  2  1  0
  1  3  1  0
  1  4  1  0
  5  6  1  0
  5  7  1  0
  8  9  1  0
  8 10  1  0
  8 11  1  0
 12 16  1  0
 16 17  2  0
 17 19  1  0
 19 21  2  0
 21 23  1  0
 23 25  2  0
 25 16  1  0
 12 13  1  0
 12 14  1  0
 12 15  1  0
 17 18  1  0
 19 20  1  0
 21 22  1  0
 23 24  1  0
 25 26  1  0
M  CHG  1   8   1
M  END
>  <PDB_ID>  (2493) 
pdb4py3

>  <RESIDUE_NAME>  (2493) 
LYS   PHE

>  <FRAG_NAME>  (2493) 
ETAM   MBZ

>  <FRAG_ATOM_NUM>  (2493) 
fragi: 11  fragj: 15

>  <atom.prop.CHAIN_ID>  (2493) 
A A A A A A A A A A A Z Z Z Z Z Z Z Z Z Z Z Z Z Z Z

>  <atom.prop.IS_HEAVY_ATOM>  (2493) 
1 0 0 0 1 0 0 1 0 0 0 1 0 0 0 1 1 0 1 0 1 0 1 0 1 0

>  <DIFUSE_FUNC_ATOM>  (2493) 
n/a

>  <FINAL_SINGLE_POINT_ENERGY>  (2493) 
0

>  <NONCOV_INTER_ENERGY_QM>  (2493) 
0

>  <FF_Energy>  (2493) 
-4.32

>  <QM_Energy>  (2493) 
-11.27

>  <source>  (2493) 
ETAM_MBZ

>  <Index>  (2493) 
26309

$$$$
ETAM-pdb4q2t-A-LYS-575:MBZ-pdb4q2t-A-PHE-155
     RDKit          3D

 26 25  0  0  0  0  0  0  0  0999 V2000
   -1.8689   -2.6196   -3.8081 C   0  0  0  0  0  0  0  0  0  0  0  0
   -2.1713   -2.4771   -4.7343 H   0  0  0  0  0  0  0  0  0  0  0  0
   -2.5557   -3.0603   -3.2579 H   0  0  0  0  0  0  0  0  0  0  0  0
   -0.9657   -3.2299   -3.8150 H   0  0  0  0  0  0  0  0  0  0  0  0
   -1.5673   -1.2349   -3.1821 C   0  0  0  0  0  0  0  0  0  0  0  0
   -1.2328   -1.3778   -2.2518 H   0  0  0  0  0  0  0  0  0  0  0  0
   -0.8591   -0.7906   -3.7285 H   0  0  0  0  0  0  0  0  0  0  0  0
   -2.7860   -0.3713   -3.1477 N   0  0  0  0  0  4  0  0  0  0  0  0
   -2.9423   -0.0598   -2.2120 H   0  0  0  0  0  0  0  0  0  0  0  0
   -2.6479    0.4162   -3.7464 H   0  0  0  0  0  0  0  0  0  0  0  0
   -3.5721   -0.8999   -3.4626 H   0  0  0  0  0  0  0  0  0  0  0  0
   -0.0020    2.9193   -0.0103 C   0  0  0  0  0  0  0  0  0  0  0  0
   -0.3783    3.2090   -0.8746 H   0  0  0  0  0  0  0  0  0  0  0  0
    0.9298    3.2211    0.1021 H   0  0  0  0  0  0  0  0  0  0  0  0
   -0.5994    3.3667    0.7841 H   0  0  0  0  0  0  0  0  0  0  0  0
   -0.0000    1.3998    0.0059 C   0  0  0  0  0  0  0  0  0  0  0  0
   -1.1884    0.6941   -0.0099 C   0  0  0  0  0  0  0  0  0  0  0  0
   -2.0576    1.1831   -0.0300 H   0  0  0  0  0  0  0  0  0  0  0  0
   -1.1864   -0.6870    0.0000 C   0  0  0  0  0  0  0  0  0  0  0  0
   -2.0723   -1.1818    0.0043 H   0  0  0  0  0  0  0  0  0  0  0  0
   -0.0031   -1.3812    0.0051 C   0  0  0  0  0  0  0  0  0  0  0  0
   -0.0163   -2.3877    0.0125 H   0  0  0  0  0  0  0  0  0  0  0  0
    1.1864   -0.7067   -0.0000 C   0  0  0  0  0  0  0  0  0  0  0  0
    2.0698   -1.2059   -0.0016 H   0  0  0  0  0  0  0  0  0  0  0  0
    1.1915    0.6811   -0.0011 C   0  0  0  0  0  0  0  0  0  0  0  0
    2.0629    1.1730   -0.0074 H   0  0  0  0  0  0  0  0  0  0  0  0
  1  5  1  0
  5  8  1  0
  1  2  1  0
  1  3  1  0
  1  4  1  0
  5  6  1  0
  5  7  1  0
  8  9  1  0
  8 10  1  0
  8 11  1  0
 12 16  1  0
 16 17  2  0
 17 19  1  0
 19 21  2  0
 21 23  1  0
 23 25  2  0
 25 16  1  0
 12 13  1  0
 12 14  1  0
 12 15  1  0
 17 18  1  0
 19 20  1  0
 21 22  1  0
 23 24  1  0
 25 26  1  0
M  CHG  1   8   1
M  END
>  <PDB_ID>  (2494) 
pdb4q2t

>  <RESIDUE_NAME>  (2494) 
LYS   PHE

>  <FRAG_NAME>  (2494) 
ETAM   MBZ

>  <FRAG_ATOM_NUM>  (2494) 
fragi: 11  fragj: 15

>  <atom.prop.CHAIN_ID>  (2494) 
A A A A A A A A A A A Z Z Z Z Z Z Z Z Z Z Z Z Z Z Z

>  <atom.prop.IS_HEAVY_ATOM>  (2494) 
1 0 0 0 1 0 0 1 0 0 0 1 0 0 0 1 1 0 1 0 1 0 1 0 1 0

>  <DIFUSE_FUNC_ATOM>  (2494) 
n/a

>  <FINAL_SINGLE_POINT_ENERGY>  (2494) 
0

>  <NONCOV_INTER_ENERGY_QM>  (2494) 
0

>  <FF_Energy>  (2494) 
-0.85

>  <QM_Energy>  (2494) 
-8.08

>  <source>  (2494) 
ETAM_MBZ

>  <Index>  (2494) 
26326

$$$$
ETAM-pdb4q4w-2-LYS-235:MBZ-pdb4q4w-3-PHE-208
     RDKit          3D

 26 25  0  0  0  0  0  0  0  0999 V2000
    4.7035   -3.9651    1.3595 C   0  0  0  0  0  0  0  0  0  0  0  0
    5.5748   -4.4484    1.3915 H   0  0  0  0  0  0  0  0  0  0  0  0
    4.1123   -4.2764    2.0987 H   0  0  0  0  0  0  0  0  0  0  0  0
    4.8896   -2.8983    1.4834 H   0  0  0  0  0  0  0  0  0  0  0  0
    4.0248   -4.2776    0.0326 C   0  0  0  0  0  0  0  0  0  0  0  0
    4.4039   -3.6732   -0.6758 H   0  0  0  0  0  0  0  0  0  0  0  0
    4.2266   -5.2304   -0.2188 H   0  0  0  0  0  0  0  0  0  0  0  0
    2.5462   -4.0918    0.0910 N   0  0  0  0  0  4  0  0  0  0  0  0
    2.2690   -3.4262   -0.6007 H   0  0  0  0  0  0  0  0  0  0  0  0
    2.0964   -4.9660   -0.0853 H   0  0  0  0  0  0  0  0  0  0  0  0
    2.2911   -3.7597    0.9980 H   0  0  0  0  0  0  0  0  0  0  0  0
   -0.0031    2.8952    0.0058 C   0  0  0  0  0  0  0  0  0  0  0  0
    0.8906    3.2033    0.2985 H   0  0  0  0  0  0  0  0  0  0  0  0
   -0.7081    3.1995    0.6305 H   0  0  0  0  0  0  0  0  0  0  0  0
   -0.2061    3.3434   -0.9668 H   0  0  0  0  0  0  0  0  0  0  0  0
   -0.0011    1.3956   -0.0007 C   0  0  0  0  0  0  0  0  0  0  0  0
   -1.1929    0.6881   -0.0005 C   0  0  0  0  0  0  0  0  0  0  0  0
   -2.0610    1.1804   -0.0016 H   0  0  0  0  0  0  0  0  0  0  0  0
   -1.1974   -0.6941   -0.0000 C   0  0  0  0  0  0  0  0  0  0  0  0
   -2.0743   -1.1905    0.0020 H   0  0  0  0  0  0  0  0  0  0  0  0
    0.0002   -1.3870   -0.0004 C   0  0  0  0  0  0  0  0  0  0  0  0
   -0.0034   -2.3878   -0.0013 H   0  0  0  0  0  0  0  0  0  0  0  0
    1.1974   -0.6937    0.0000 C   0  0  0  0  0  0  0  0  0  0  0  0
    2.0798   -1.1933    0.0013 H   0  0  0  0  0  0  0  0  0  0  0  0
    1.1937    0.6911    0.0016 C   0  0  0  0  0  0  0  0  0  0  0  0
    2.0613    1.1896    0.0034 H   0  0  0  0  0  0  0  0  0  0  0  0
  1  5  1  0
  5  8  1  0
  1  2  1  0
  1  3  1  0
  1  4  1  0
  5  6  1  0
  5  7  1  0
  8  9  1  0
  8 10  1  0
  8 11  1  0
 12 16  1  0
 16 17  2  0
 17 19  1  0
 19 21  2  0
 21 23  1  0
 23 25  2  0
 25 16  1  0
 12 13  1  0
 12 14  1  0
 12 15  1  0
 17 18  1  0
 19 20  1  0
 21 22  1  0
 23 24  1  0
 25 26  1  0
M  CHG  1   8   1
M  END
>  <PDB_ID>  (2495) 
pdb4q4w

>  <RESIDUE_NAME>  (2495) 
LYS   PHE

>  <FRAG_NAME>  (2495) 
ETAM   MBZ

>  <FRAG_ATOM_NUM>  (2495) 
fragi: 11  fragj: 15

>  <atom.prop.CHAIN_ID>  (2495) 
A A A A A A A A A A A Z Z Z Z Z Z Z Z Z Z Z Z Z Z Z

>  <atom.prop.IS_HEAVY_ATOM>  (2495) 
1 0 0 0 1 0 0 1 0 0 0 1 0 0 0 1 1 0 1 0 1 0 1 0 1 0

>  <DIFUSE_FUNC_ATOM>  (2495) 
n/a

>  <FINAL_SINGLE_POINT_ENERGY>  (2495) 
0

>  <NONCOV_INTER_ENERGY_QM>  (2495) 
0

>  <FF_Energy>  (2495) 
0.98

>  <QM_Energy>  (2495) 
-4.3

>  <source>  (2495) 
ETAM_MBZ

>  <Index>  (2495) 
26330

$$$$
ETAM-pdb4q1v-B-LYS-723:MBZ-pdb4q1v-B-PHE-703
     RDKit          3D

 26 25  0  0  0  0  0  0  0  0999 V2000
    0.1341    0.7782   -3.6954 C   0  0  0  0  0  0  0  0  0  0  0  0
    0.8855    0.1140   -3.6468 H   0  0  0  0  0  0  0  0  0  0  0  0
    0.2362    1.4385   -2.9461 H   0  0  0  0  0  0  0  0  0  0  0  0
    0.2268    1.3205   -4.6363 H   0  0  0  0  0  0  0  0  0  0  0  0
   -1.1852    0.0395   -3.5218 C   0  0  0  0  0  0  0  0  0  0  0  0
   -1.4007   -0.4529   -4.3681 H   0  0  0  0  0  0  0  0  0  0  0  0
   -1.0969   -0.6216   -2.7733 H   0  0  0  0  0  0  0  0  0  0  0  0
   -2.3248    0.9763   -3.2047 N   0  0  0  0  0  4  0  0  0  0  0  0
   -2.5382    1.5109   -4.0185 H   0  0  0  0  0  0  0  0  0  0  0  0
   -3.1175    0.4381   -2.9315 H   0  0  0  0  0  0  0  0  0  0  0  0
   -2.0476    1.5796   -2.4620 H   0  0  0  0  0  0  0  0  0  0  0  0
   -0.0016    2.9339    0.0163 C   0  0  0  0  0  0  0  0  0  0  0  0
   -0.7278    3.2541   -0.5481 H   0  0  0  0  0  0  0  0  0  0  0  0
    0.8800    3.2473   -0.2563 H   0  0  0  0  0  0  0  0  0  0  0  0
   -0.1836    3.2966    1.0279 H   0  0  0  0  0  0  0  0  0  0  0  0
   -0.0004    1.4162   -0.0291 C   0  0  0  0  0  0  0  0  0  0  0  0
   -1.1965    0.6990   -0.0125 C   0  0  0  0  0  0  0  0  0  0  0  0
   -2.0662    1.1779   -0.0105 H   0  0  0  0  0  0  0  0  0  0  0  0
   -1.1927   -0.7073    0.0000 C   0  0  0  0  0  0  0  0  0  0  0  0
   -2.0738   -1.1954    0.0007 H   0  0  0  0  0  0  0  0  0  0  0  0
    0.0027   -1.4001    0.0127 C   0  0  0  0  0  0  0  0  0  0  0  0
   -0.0036   -2.4018    0.0310 H   0  0  0  0  0  0  0  0  0  0  0  0
    1.1927   -0.7093   -0.0000 C   0  0  0  0  0  0  0  0  0  0  0  0
    2.0804   -1.1953   -0.0288 H   0  0  0  0  0  0  0  0  0  0  0  0
    1.1942    0.7015    0.0289 C   0  0  0  0  0  0  0  0  0  0  0  0
    2.0633    1.1839    0.0910 H   0  0  0  0  0  0  0  0  0  0  0  0
  1  5  1  0
  5  8  1  0
  1  2  1  0
  1  3  1  0
  1  4  1  0
  5  6  1  0
  5  7  1  0
  8  9  1  0
  8 10  1  0
  8 11  1  0
 12 16  1  0
 16 17  2  0
 17 19  1  0
 19 21  2  0
 21 23  1  0
 23 25  2  0
 25 16  1  0
 12 13  1  0
 12 14  1  0
 12 15  1  0
 17 18  1  0
 19 20  1  0
 21 22  1  0
 23 24  1  0
 25 26  1  0
M  CHG  1   8   1
M  END
>  <PDB_ID>  (2496) 
pdb4q1v

>  <RESIDUE_NAME>  (2496) 
LYS   PHE

>  <FRAG_NAME>  (2496) 
ETAM   MBZ

>  <FRAG_ATOM_NUM>  (2496) 
fragi: 11  fragj: 15

>  <atom.prop.CHAIN_ID>  (2496) 
A A A A A A A A A A A Z Z Z Z Z Z Z Z Z Z Z Z Z Z Z

>  <atom.prop.IS_HEAVY_ATOM>  (2496) 
1 0 0 0 1 0 0 1 0 0 0 1 0 0 0 1 1 0 1 0 1 0 1 0 1 0

>  <DIFUSE_FUNC_ATOM>  (2496) 
n/a

>  <FINAL_SINGLE_POINT_ENERGY>  (2496) 
0

>  <NONCOV_INTER_ENERGY_QM>  (2496) 
0

>  <FF_Energy>  (2496) 
-5.68

>  <QM_Energy>  (2496) 
-11.4

>  <source>  (2496) 
ETAM_MBZ

>  <Index>  (2496) 
26380

$$$$
ETAM-pdb4q1v-A-LYS-723:MBZ-pdb4q1v-A-PHE-703
     RDKit          3D

 26 25  0  0  0  0  0  0  0  0999 V2000
    0.1266    1.1303   -3.7258 C   0  0  0  0  0  0  0  0  0  0  0  0
    1.0845    0.9319   -3.4877 H   0  0  0  0  0  0  0  0  0  0  0  0
   -0.2095    1.8584   -3.1172 H   0  0  0  0  0  0  0  0  0  0  0  0
    0.1029    1.5048   -4.7492 H   0  0  0  0  0  0  0  0  0  0  0  0
   -0.6996   -0.1137   -3.5005 C   0  0  0  0  0  0  0  0  0  0  0  0
   -0.4730   -0.7926   -4.2096 H   0  0  0  0  0  0  0  0  0  0  0  0
   -0.4649   -0.5073   -2.6021 H   0  0  0  0  0  0  0  0  0  0  0  0
   -2.1606    0.1581   -3.5412 N   0  0  0  0  0  4  0  0  0  0  0  0
   -2.4298    0.3875   -4.4762 H   0  0  0  0  0  0  0  0  0  0  0  0
   -2.6583   -0.6551   -3.2398 H   0  0  0  0  0  0  0  0  0  0  0  0
   -2.3730    0.9240   -2.9355 H   0  0  0  0  0  0  0  0  0  0  0  0
    0.0004    2.9372    0.0167 C   0  0  0  0  0  0  0  0  0  0  0  0
   -0.7351    3.2505   -0.5412 H   0  0  0  0  0  0  0  0  0  0  0  0
    0.8769    3.2438   -0.2794 H   0  0  0  0  0  0  0  0  0  0  0  0
   -0.1617    3.3039    1.0303 H   0  0  0  0  0  0  0  0  0  0  0  0
   -0.0001    1.4170   -0.0204 C   0  0  0  0  0  0  0  0  0  0  0  0
   -1.1960    0.7014   -0.0040 C   0  0  0  0  0  0  0  0  0  0  0  0
   -2.0647    1.1830    0.0035 H   0  0  0  0  0  0  0  0  0  0  0  0
   -1.1944   -0.7019    0.0000 C   0  0  0  0  0  0  0  0  0  0  0  0
   -2.0763   -1.1904    0.0034 H   0  0  0  0  0  0  0  0  0  0  0  0
    0.0004   -1.4009    0.0013 C   0  0  0  0  0  0  0  0  0  0  0  0
   -0.0110   -2.4028    0.0030 H   0  0  0  0  0  0  0  0  0  0  0  0
    1.1944   -0.7157   -0.0000 C   0  0  0  0  0  0  0  0  0  0  0  0
    2.0802   -1.2008   -0.0156 H   0  0  0  0  0  0  0  0  0  0  0  0
    1.1957    0.7001    0.0231 C   0  0  0  0  0  0  0  0  0  0  0  0
    2.0664    1.1809    0.0704 H   0  0  0  0  0  0  0  0  0  0  0  0
  1  5  1  0
  5  8  1  0
  1  2  1  0
  1  3  1  0
  1  4  1  0
  5  6  1  0
  5  7  1  0
  8  9  1  0
  8 10  1  0
  8 11  1  0
 12 16  1  0
 16 17  2  0
 17 19  1  0
 19 21  2  0
 21 23  1  0
 23 25  2  0
 25 16  1  0
 12 13  1  0
 12 14  1  0
 12 15  1  0
 17 18  1  0
 19 20  1  0
 21 22  1  0
 23 24  1  0
 25 26  1  0
M  CHG  1   8   1
M  END
>  <PDB_ID>  (2497) 
pdb4q1v

>  <RESIDUE_NAME>  (2497) 
LYS   PHE

>  <FRAG_NAME>  (2497) 
ETAM   MBZ

>  <FRAG_ATOM_NUM>  (2497) 
fragi: 11  fragj: 15

>  <atom.prop.CHAIN_ID>  (2497) 
A A A A A A A A A A A Z Z Z Z Z Z Z Z Z Z Z Z Z Z Z

>  <atom.prop.IS_HEAVY_ATOM>  (2497) 
1 0 0 0 1 0 0 1 0 0 0 1 0 0 0 1 1 0 1 0 1 0 1 0 1 0

>  <DIFUSE_FUNC_ATOM>  (2497) 
n/a

>  <FINAL_SINGLE_POINT_ENERGY>  (2497) 
0

>  <NONCOV_INTER_ENERGY_QM>  (2497) 
0

>  <FF_Energy>  (2497) 
-5.73

>  <QM_Energy>  (2497) 
-11.58

>  <source>  (2497) 
ETAM_MBZ

>  <Index>  (2497) 
26381

$$$$
ETAM-pdb3s5s-B-LYS-271:MBZ-pdb3s5s-B-PHE-58
     RDKit          3D

 26 25  0  0  0  0  0  0  0  0999 V2000
   -1.3995   -2.5672   -4.3086 C   0  0  0  0  0  0  0  0  0  0  0  0
   -0.9608   -2.8702   -3.4752 H   0  0  0  0  0  0  0  0  0  0  0  0
   -0.9385   -1.7794   -4.6906 H   0  0  0  0  0  0  0  0  0  0  0  0
   -1.3998   -3.3787   -5.0363 H   0  0  0  0  0  0  0  0  0  0  0  0
   -2.8182   -2.1954   -4.0013 C   0  0  0  0  0  0  0  0  0  0  0  0
   -3.1259   -1.5036   -4.6444 H   0  0  0  0  0  0  0  0  0  0  0  0
   -3.3928   -3.0041   -4.0596 H   0  0  0  0  0  0  0  0  0  0  0  0
   -2.8701   -1.6537   -2.6336 N   0  0  0  0  0  4  0  0  0  0  0  0
   -2.2563   -2.1764   -2.0379 H   0  0  0  0  0  0  0  0  0  0  0  0
   -2.5847   -0.6928   -2.6384 H   0  0  0  0  0  0  0  0  0  0  0  0
   -3.8051   -1.7167   -2.2783 H   0  0  0  0  0  0  0  0  0  0  0  0
    0.0080    2.9217    0.0192 C   0  0  0  0  0  0  0  0  0  0  0  0
   -0.8506    3.2266   -0.3622 H   0  0  0  0  0  0  0  0  0  0  0  0
    0.7741    3.2231   -0.5271 H   0  0  0  0  0  0  0  0  0  0  0  0
    0.1107    3.3501    1.0162 H   0  0  0  0  0  0  0  0  0  0  0  0
    0.0034    1.4119    0.0102 C   0  0  0  0  0  0  0  0  0  0  0  0
   -1.2040    0.7002    0.0086 C   0  0  0  0  0  0  0  0  0  0  0  0
   -2.0670    1.1894    0.0124 H   0  0  0  0  0  0  0  0  0  0  0  0
   -1.2120   -0.7043   -0.0000 C   0  0  0  0  0  0  0  0  0  0  0  0
   -2.0854   -1.1932    0.0082 H   0  0  0  0  0  0  0  0  0  0  0  0
   -0.0014   -1.4058   -0.0174 C   0  0  0  0  0  0  0  0  0  0  0  0
   -0.0033   -2.4003   -0.0424 H   0  0  0  0  0  0  0  0  0  0  0  0
    1.2120   -0.7020   -0.0000 C   0  0  0  0  0  0  0  0  0  0  0  0
    2.0878   -1.1961    0.0148 H   0  0  0  0  0  0  0  0  0  0  0  0
    1.2020    0.7000   -0.0014 C   0  0  0  0  0  0  0  0  0  0  0  0
    2.0706    1.1945   -0.0119 H   0  0  0  0  0  0  0  0  0  0  0  0
  1  5  1  0
  5  8  1  0
  1  2  1  0
  1  3  1  0
  1  4  1  0
  5  6  1  0
  5  7  1  0
  8  9  1  0
  8 10  1  0
  8 11  1  0
 12 16  1  0
 16 17  2  0
 17 19  1  0
 19 21  2  0
 21 23  1  0
 23 25  2  0
 25 16  1  0
 12 13  1  0
 12 14  1  0
 12 15  1  0
 17 18  1  0
 19 20  1  0
 21 22  1  0
 23 24  1  0
 25 26  1  0
M  CHG  1   8   1
M  END
>  <PDB_ID>  (2498) 
pdb3s5s

>  <RESIDUE_NAME>  (2498) 
LYS   PHE

>  <FRAG_NAME>  (2498) 
ETAM   MBZ

>  <FRAG_ATOM_NUM>  (2498) 
fragi: 11  fragj: 15

>  <atom.prop.CHAIN_ID>  (2498) 
A A A A A A A A A A A Z Z Z Z Z Z Z Z Z Z Z Z Z Z Z

>  <atom.prop.IS_HEAVY_ATOM>  (2498) 
1 0 0 0 1 0 0 1 0 0 0 1 0 0 0 1 1 0 1 0 1 0 1 0 1 0

>  <DIFUSE_FUNC_ATOM>  (2498) 
n/a

>  <FINAL_SINGLE_POINT_ENERGY>  (2498) 
0

>  <NONCOV_INTER_ENERGY_QM>  (2498) 
0

>  <FF_Energy>  (2498) 
-1.86

>  <QM_Energy>  (2498) 
-8.12

>  <source>  (2498) 
ETAM_MBZ

>  <Index>  (2498) 
26384

$$$$
ETAM-pdb4q5f-D-LYS-142:MBZ-pdb4q5f-D-PHE-139
     RDKit          3D

 26 25  0  0  0  0  0  0  0  0999 V2000
    0.7627    0.6089   -3.6704 C   0  0  0  0  0  0  0  0  0  0  0  0
    1.5802    0.8724   -3.1672 H   0  0  0  0  0  0  0  0  0  0  0  0
   -0.0099    0.5208   -3.0494 H   0  0  0  0  0  0  0  0  0  0  0  0
    0.5378    1.3864   -4.4005 H   0  0  0  0  0  0  0  0  0  0  0  0
    1.0153   -0.7572   -4.3252 C   0  0  0  0  0  0  0  0  0  0  0  0
    0.2794   -0.9336   -4.9889 H   0  0  0  0  0  0  0  0  0  0  0  0
    1.8894   -0.7162   -4.8234 H   0  0  0  0  0  0  0  0  0  0  0  0
    1.0654   -1.8769   -3.3395 N   0  0  0  0  0  4  0  0  0  0  0  0
    0.2460   -2.4398   -3.4382 H   0  0  0  0  0  0  0  0  0  0  0  0
    1.8778   -2.4323   -3.5121 H   0  0  0  0  0  0  0  0  0  0  0  0
    1.1053   -1.5002   -2.4148 H   0  0  0  0  0  0  0  0  0  0  0  0
    0.0056    2.8947    0.0080 C   0  0  0  0  0  0  0  0  0  0  0  0
    0.8559    3.1953    0.4159 H   0  0  0  0  0  0  0  0  0  0  0  0
   -0.7723    3.2001    0.5383 H   0  0  0  0  0  0  0  0  0  0  0  0
   -0.0679    3.3457   -0.9816 H   0  0  0  0  0  0  0  0  0  0  0  0
    0.0003    1.3933   -0.0019 C   0  0  0  0  0  0  0  0  0  0  0  0
   -1.1910    0.6891    0.0023 C   0  0  0  0  0  0  0  0  0  0  0  0
   -2.0589    1.1803    0.0053 H   0  0  0  0  0  0  0  0  0  0  0  0
   -1.1933   -0.6927    0.0000 C   0  0  0  0  0  0  0  0  0  0  0  0
   -2.0717   -1.1897   -0.0004 H   0  0  0  0  0  0  0  0  0  0  0  0
    0.0010   -1.3836    0.0000 C   0  0  0  0  0  0  0  0  0  0  0  0
   -0.0035   -2.3863   -0.0008 H   0  0  0  0  0  0  0  0  0  0  0  0
    1.1933   -0.6933   -0.0000 C   0  0  0  0  0  0  0  0  0  0  0  0
    2.0776   -1.1931    0.0020 H   0  0  0  0  0  0  0  0  0  0  0  0
    1.1897    0.6872   -0.0005 C   0  0  0  0  0  0  0  0  0  0  0  0
    2.0605    1.1857   -0.0003 H   0  0  0  0  0  0  0  0  0  0  0  0
  1  5  1  0
  5  8  1  0
  1  2  1  0
  1  3  1  0
  1  4  1  0
  5  6  1  0
  5  7  1  0
  8  9  1  0
  8 10  1  0
  8 11  1  0
 12 16  1  0
 16 17  2  0
 17 19  1  0
 19 21  2  0
 21 23  1  0
 23 25  2  0
 25 16  1  0
 12 13  1  0
 12 14  1  0
 12 15  1  0
 17 18  1  0
 19 20  1  0
 21 22  1  0
 23 24  1  0
 25 26  1  0
M  CHG  1   8   1
M  END
>  <PDB_ID>  (2499) 
pdb4q5f

>  <RESIDUE_NAME>  (2499) 
LYS   PHE

>  <FRAG_NAME>  (2499) 
ETAM   MBZ

>  <FRAG_ATOM_NUM>  (2499) 
fragi: 11  fragj: 15

>  <atom.prop.CHAIN_ID>  (2499) 
A A A A A A A A A A A Z Z Z Z Z Z Z Z Z Z Z Z Z Z Z

>  <atom.prop.IS_HEAVY_ATOM>  (2499) 
1 0 0 0 1 0 0 1 0 0 0 1 0 0 0 1 1 0 1 0 1 0 1 0 1 0

>  <DIFUSE_FUNC_ATOM>  (2499) 
n/a

>  <FINAL_SINGLE_POINT_ENERGY>  (2499) 
0

>  <NONCOV_INTER_ENERGY_QM>  (2499) 
0

>  <FF_Energy>  (2499) 
-6.04

>  <QM_Energy>  (2499) 
-13.04

>  <source>  (2499) 
ETAM_MBZ

>  <Index>  (2499) 
26402

$$$$
ETAM-pdb4q8g-A-LYS-811:MBZ-pdb4q8g-A-PHE-862
     RDKit          3D

 26 25  0  0  0  0  0  0  0  0999 V2000
   -2.6830   -1.6028   -3.8429 C   0  0  0  0  0  0  0  0  0  0  0  0
   -1.8208   -1.7201   -3.4143 H   0  0  0  0  0  0  0  0  0  0  0  0
   -2.6152   -1.7900   -4.7919 H   0  0  0  0  0  0  0  0  0  0  0  0
   -3.4061   -2.2818   -3.3910 H   0  0  0  0  0  0  0  0  0  0  0  0
   -3.1178   -0.1299   -3.6668 C   0  0  0  0  0  0  0  0  0  0  0  0
   -2.3350    0.4388   -3.7268 H   0  0  0  0  0  0  0  0  0  0  0  0
   -3.7476    0.0982   -4.3695 H   0  0  0  0  0  0  0  0  0  0  0  0
   -3.7758    0.1327   -2.3598 N   0  0  0  0  0  4  0  0  0  0  0  0
   -4.0081    0.9901   -2.3027 H   0  0  0  0  0  0  0  0  0  0  0  0
   -4.5054   -0.3706   -2.2794 H   0  0  0  0  0  0  0  0  0  0  0  0
   -3.2172   -0.0597   -1.6942 H   0  0  0  0  0  0  0  0  0  0  0  0
   -0.0231    2.9289   -0.0131 C   0  0  0  0  0  0  0  0  0  0  0  0
   -0.6413    3.2093   -0.7055 H   0  0  0  0  0  0  0  0  0  0  0  0
    0.8727    3.2311   -0.2307 H   0  0  0  0  0  0  0  0  0  0  0  0
   -0.3255    3.3813    0.9313 H   0  0  0  0  0  0  0  0  0  0  0  0
   -0.0069    1.4123    0.0080 C   0  0  0  0  0  0  0  0  0  0  0  0
   -1.1920    0.6970   -0.0097 C   0  0  0  0  0  0  0  0  0  0  0  0
   -2.0009    1.1553   -0.0093 H   0  0  0  0  0  0  0  0  0  0  0  0
   -1.1970   -0.6926   -0.0000 C   0  0  0  0  0  0  0  0  0  0  0  0
   -2.0055   -1.1516   -0.0064 H   0  0  0  0  0  0  0  0  0  0  0  0
    0.0111   -1.4082   -0.0031 C   0  0  0  0  0  0  0  0  0  0  0  0
    0.0073   -2.3382    0.0018 H   0  0  0  0  0  0  0  0  0  0  0  0
    1.1970   -0.7210    0.0000 C   0  0  0  0  0  0  0  0  0  0  0  0
    2.0044   -1.1819    0.0053 H   0  0  0  0  0  0  0  0  0  0  0  0
    1.1878    0.7124    0.0047 C   0  0  0  0  0  0  0  0  0  0  0  0
    1.9927    1.1766    0.0040 H   0  0  0  0  0  0  0  0  0  0  0  0
  1  5  1  0
  5  8  1  0
  1  2  1  0
  1  3  1  0
  1  4  1  0
  5  6  1  0
  5  7  1  0
  8  9  1  0
  8 10  1  0
  8 11  1  0
 12 16  1  0
 16 17  2  0
 17 19  1  0
 19 21  2  0
 21 23  1  0
 23 25  2  0
 25 16  1  0
 12 13  1  0
 12 14  1  0
 12 15  1  0
 17 18  1  0
 19 20  1  0
 21 22  1  0
 23 24  1  0
 25 26  1  0
M  CHG  1   8   1
M  END
>  <PDB_ID>  (2500) 
pdb4q8g

>  <RESIDUE_NAME>  (2500) 
LYS   PHE

>  <FRAG_NAME>  (2500) 
ETAM   MBZ

>  <FRAG_ATOM_NUM>  (2500) 
fragi: 11  fragj: 15

>  <atom.prop.CHAIN_ID>  (2500) 
A A A A A A A A A A A Z Z Z Z Z Z Z Z Z Z Z Z Z Z Z

>  <atom.prop.IS_HEAVY_ATOM>  (2500) 
1 0 0 0 1 0 0 1 0 0 0 1 0 0 0 1 1 0 1 0 1 0 1 0 1 0

>  <DIFUSE_FUNC_ATOM>  (2500) 
n/a

>  <FINAL_SINGLE_POINT_ENERGY>  (2500) 
0

>  <NONCOV_INTER_ENERGY_QM>  (2500) 
0

>  <FF_Energy>  (2500) 
-1.86

>  <QM_Energy>  (2500) 
-7.36

>  <source>  (2500) 
ETAM_MBZ

>  <Index>  (2500) 
26418

$$$$
ETAM-pdb4q8g-B-LYS-538:MBZ-pdb4q8g-B-PHE-863
     RDKit          3D

 26 25  0  0  0  0  0  0  0  0999 V2000
    1.4579   -4.8094   -3.3307 C   0  0  0  0  0  0  0  0  0  0  0  0
    0.8307   -4.0751   -3.5915 H   0  0  0  0  0  0  0  0  0  0  0  0
    0.9542   -5.6720   -3.2726 H   0  0  0  0  0  0  0  0  0  0  0  0
    2.2252   -4.9036   -4.0990 H   0  0  0  0  0  0  0  0  0  0  0  0
    2.0354   -4.4927   -1.9700 C   0  0  0  0  0  0  0  0  0  0  0  0
    2.6605   -5.2255   -1.7007 H   0  0  0  0  0  0  0  0  0  0  0  0
    2.5370   -3.6291   -2.0187 H   0  0  0  0  0  0  0  0  0  0  0  0
    0.9560   -4.3742   -0.9574 N   0  0  0  0  0  4  0  0  0  0  0  0
    0.3915   -5.2003   -0.9735 H   0  0  0  0  0  0  0  0  0  0  0  0
    1.3616   -4.2657   -0.0496 H   0  0  0  0  0  0  0  0  0  0  0  0
    0.3884   -3.5778   -1.1671 H   0  0  0  0  0  0  0  0  0  0  0  0
   -0.0046    2.9053   -0.0264 C   0  0  0  0  0  0  0  0  0  0  0  0
   -0.7823    3.1916   -0.5294 H   0  0  0  0  0  0  0  0  0  0  0  0
    0.8050    3.1577   -0.4978 H   0  0  0  0  0  0  0  0  0  0  0  0
   -0.0132    3.3929    0.9484 H   0  0  0  0  0  0  0  0  0  0  0  0
    0.0025    1.3954   -0.0082 C   0  0  0  0  0  0  0  0  0  0  0  0
   -1.1994    0.6916   -0.0088 C   0  0  0  0  0  0  0  0  0  0  0  0
   -2.0623    1.1950   -0.0170 H   0  0  0  0  0  0  0  0  0  0  0  0
   -1.2192   -0.6899    0.0000 C   0  0  0  0  0  0  0  0  0  0  0  0
   -2.0885   -1.1848   -0.0098 H   0  0  0  0  0  0  0  0  0  0  0  0
   -0.0072   -1.3895    0.0265 C   0  0  0  0  0  0  0  0  0  0  0  0
   -0.0137   -2.3885    0.0621 H   0  0  0  0  0  0  0  0  0  0  0  0
    1.2192   -0.7016   -0.0000 C   0  0  0  0  0  0  0  0  0  0  0  0
    2.0851   -1.2005   -0.0096 H   0  0  0  0  0  0  0  0  0  0  0  0
    1.2042    0.6940   -0.0096 C   0  0  0  0  0  0  0  0  0  0  0  0
    2.0692    1.1955   -0.0197 H   0  0  0  0  0  0  0  0  0  0  0  0
  1  5  1  0
  5  8  1  0
  1  2  1  0
  1  3  1  0
  1  4  1  0
  5  6  1  0
  5  7  1  0
  8  9  1  0
  8 10  1  0
  8 11  1  0
 12 16  1  0
 16 17  2  0
 17 19  1  0
 19 21  2  0
 21 23  1  0
 23 25  2  0
 25 16  1  0
 12 13  1  0
 12 14  1  0
 12 15  1  0
 17 18  1  0
 19 20  1  0
 21 22  1  0
 23 24  1  0
 25 26  1  0
M  CHG  1   8   1
M  END
>  <PDB_ID>  (2501) 
pdb4q8g

>  <RESIDUE_NAME>  (2501) 
LYS   PHE

>  <FRAG_NAME>  (2501) 
ETAM   MBZ

>  <FRAG_ATOM_NUM>  (2501) 
fragi: 11  fragj: 15

>  <atom.prop.CHAIN_ID>  (2501) 
A A A A A A A A A A A Z Z Z Z Z Z Z Z Z Z Z Z Z Z Z

>  <atom.prop.IS_HEAVY_ATOM>  (2501) 
1 0 0 0 1 0 0 1 0 0 0 1 0 0 0 1 1 0 1 0 1 0 1 0 1 0

>  <DIFUSE_FUNC_ATOM>  (2501) 
n/a

>  <FINAL_SINGLE_POINT_ENERGY>  (2501) 
0

>  <NONCOV_INTER_ENERGY_QM>  (2501) 
0

>  <FF_Energy>  (2501) 
2.63

>  <QM_Energy>  (2501) 
-4.23

>  <source>  (2501) 
ETAM_MBZ

>  <Index>  (2501) 
26419

$$$$
ETAM-pdb4q95-A-LYS-59:MBZ-pdb4q95-B-PHE-21
     RDKit          3D

 26 25  0  0  0  0  0  0  0  0999 V2000
   -1.8543   -0.8809   -5.2214 C   0  0  0  0  0  0  0  0  0  0  0  0
   -1.2387   -1.2940   -5.8703 H   0  0  0  0  0  0  0  0  0  0  0  0
   -1.8702    0.1005   -5.2999 H   0  0  0  0  0  0  0  0  0  0  0  0
   -2.8592   -1.2661   -5.3943 H   0  0  0  0  0  0  0  0  0  0  0  0
   -1.4020   -1.2522   -3.8101 C   0  0  0  0  0  0  0  0  0  0  0  0
   -1.6327   -0.4871   -3.1870 H   0  0  0  0  0  0  0  0  0  0  0  0
   -1.9321   -2.0600   -3.5046 H   0  0  0  0  0  0  0  0  0  0  0  0
    0.0500   -1.5526   -3.6928 N   0  0  0  0  0  4  0  0  0  0  0  0
    0.5790   -0.7694   -4.0195 H   0  0  0  0  0  0  0  0  0  0  0  0
    0.2754   -1.7315   -2.7355 H   0  0  0  0  0  0  0  0  0  0  0  0
    0.2683   -2.3572   -4.2450 H   0  0  0  0  0  0  0  0  0  0  0  0
   -0.0009    2.9193    0.0013 C   0  0  0  0  0  0  0  0  0  0  0  0
    0.8337    3.2134    0.4478 H   0  0  0  0  0  0  0  0  0  0  0  0
   -0.7982    3.2137    0.5116 H   0  0  0  0  0  0  0  0  0  0  0  0
   -0.0392    3.3974   -0.9775 H   0  0  0  0  0  0  0  0  0  0  0  0
   -0.0022    1.4000   -0.0217 C   0  0  0  0  0  0  0  0  0  0  0  0
   -1.1932    0.6900    0.0240 C   0  0  0  0  0  0  0  0  0  0  0  0
   -2.0615    1.1826    0.0732 H   0  0  0  0  0  0  0  0  0  0  0  0
   -1.2048   -0.6969   -0.0000 C   0  0  0  0  0  0  0  0  0  0  0  0
   -2.0777   -1.1909    0.0011 H   0  0  0  0  0  0  0  0  0  0  0  0
    0.0002   -1.3869   -0.0236 C   0  0  0  0  0  0  0  0  0  0  0  0
   -0.0019   -2.3882   -0.0582 H   0  0  0  0  0  0  0  0  0  0  0  0
    1.2048   -0.6935    0.0000 C   0  0  0  0  0  0  0  0  0  0  0  0
    2.0825   -1.1954    0.0027 H   0  0  0  0  0  0  0  0  0  0  0  0
    1.1953    0.6873    0.0213 C   0  0  0  0  0  0  0  0  0  0  0  0
    2.0614    1.1914    0.0677 H   0  0  0  0  0  0  0  0  0  0  0  0
  1  5  1  0
  5  8  1  0
  1  2  1  0
  1  3  1  0
  1  4  1  0
  5  6  1  0
  5  7  1  0
  8  9  1  0
  8 10  1  0
  8 11  1  0
 12 16  1  0
 16 17  2  0
 17 19  1  0
 19 21  2  0
 21 23  1  0
 23 25  2  0
 25 16  1  0
 12 13  1  0
 12 14  1  0
 12 15  1  0
 17 18  1  0
 19 20  1  0
 21 22  1  0
 23 24  1  0
 25 26  1  0
M  CHG  1   8   1
M  END
>  <PDB_ID>  (2502) 
pdb4q95

>  <RESIDUE_NAME>  (2502) 
LYS   PHE

>  <FRAG_NAME>  (2502) 
ETAM   MBZ

>  <FRAG_ATOM_NUM>  (2502) 
fragi: 11  fragj: 15

>  <atom.prop.CHAIN_ID>  (2502) 
A A A A A A A A A A A Z Z Z Z Z Z Z Z Z Z Z Z Z Z Z

>  <atom.prop.IS_HEAVY_ATOM>  (2502) 
1 0 0 0 1 0 0 1 0 0 0 1 0 0 0 1 1 0 1 0 1 0 1 0 1 0

>  <DIFUSE_FUNC_ATOM>  (2502) 
n/a

>  <FINAL_SINGLE_POINT_ENERGY>  (2502) 
0

>  <NONCOV_INTER_ENERGY_QM>  (2502) 
0

>  <FF_Energy>  (2502) 
-5.67

>  <QM_Energy>  (2502) 
-11.55

>  <source>  (2502) 
ETAM_MBZ

>  <Index>  (2502) 
26430

$$$$
ETAM-pdb3s9d-B-LYS-199:MBZ-pdb3s9d-B-PHE-112
     RDKit          3D

 26 25  0  0  0  0  0  0  0  0999 V2000
   -0.9741   -1.2836    3.9708 C   0  0  0  0  0  0  0  0  0  0  0  0
   -1.2310   -0.7428    3.1762 H   0  0  0  0  0  0  0  0  0  0  0  0
   -1.7223   -1.3163    4.6247 H   0  0  0  0  0  0  0  0  0  0  0  0
   -0.7480   -2.2989    3.6451 H   0  0  0  0  0  0  0  0  0  0  0  0
    0.2293   -0.6148    4.6443 C   0  0  0  0  0  0  0  0  0  0  0  0
   -0.0581    0.2787    4.9917 H   0  0  0  0  0  0  0  0  0  0  0  0
    0.5238   -1.1882    5.4098 H   0  0  0  0  0  0  0  0  0  0  0  0
    1.3472   -0.4430    3.6923 N   0  0  0  0  0  4  0  0  0  0  0  0
    0.9849   -0.2925    2.7712 H   0  0  0  0  0  0  0  0  0  0  0  0
    1.9012    0.3455    3.9633 H   0  0  0  0  0  0  0  0  0  0  0  0
    1.9189   -1.2655    3.6923 H   0  0  0  0  0  0  0  0  0  0  0  0
    0.0028    2.9429   -0.0092 C   0  0  0  0  0  0  0  0  0  0  0  0
   -0.9090    3.2403   -0.2352 H   0  0  0  0  0  0  0  0  0  0  0  0
    0.6624    3.2381   -0.6802 H   0  0  0  0  0  0  0  0  0  0  0  0
    0.2744    3.3912    0.9465 H   0  0  0  0  0  0  0  0  0  0  0  0
    0.0022    1.4154   -0.0023 C   0  0  0  0  0  0  0  0  0  0  0  0
   -1.1982    0.6999   -0.0010 C   0  0  0  0  0  0  0  0  0  0  0  0
   -2.0654    1.1838   -0.0017 H   0  0  0  0  0  0  0  0  0  0  0  0
   -1.2039   -0.7087    0.0000 C   0  0  0  0  0  0  0  0  0  0  0  0
   -2.0812   -1.1942   -0.0056 H   0  0  0  0  0  0  0  0  0  0  0  0
    0.0003   -1.4100    0.0099 C   0  0  0  0  0  0  0  0  0  0  0  0
    0.0019   -2.4022    0.0235 H   0  0  0  0  0  0  0  0  0  0  0  0
    1.2039   -0.6993   -0.0000 C   0  0  0  0  0  0  0  0  0  0  0  0
    2.0866   -1.1907   -0.0012 H   0  0  0  0  0  0  0  0  0  0  0  0
    1.1957    0.7027   -0.0066 C   0  0  0  0  0  0  0  0  0  0  0  0
    2.0675    1.1938   -0.0153 H   0  0  0  0  0  0  0  0  0  0  0  0
  1  5  1  0
  5  8  1  0
  1  2  1  0
  1  3  1  0
  1  4  1  0
  5  6  1  0
  5  7  1  0
  8  9  1  0
  8 10  1  0
  8 11  1  0
 12 16  1  0
 16 17  2  0
 17 19  1  0
 19 21  2  0
 21 23  1  0
 23 25  2  0
 25 16  1  0
 12 13  1  0
 12 14  1  0
 12 15  1  0
 17 18  1  0
 19 20  1  0
 21 22  1  0
 23 24  1  0
 25 26  1  0
M  CHG  1   8   1
M  END
>  <PDB_ID>  (2503) 
pdb3s9d

>  <RESIDUE_NAME>  (2503) 
LYS   PHE

>  <FRAG_NAME>  (2503) 
ETAM   MBZ

>  <FRAG_ATOM_NUM>  (2503) 
fragi: 11  fragj: 15

>  <atom.prop.CHAIN_ID>  (2503) 
A A A A A A A A A A A Z Z Z Z Z Z Z Z Z Z Z Z Z Z Z

>  <atom.prop.IS_HEAVY_ATOM>  (2503) 
1 0 0 0 1 0 0 1 0 0 0 1 0 0 0 1 1 0 1 0 1 0 1 0 1 0

>  <DIFUSE_FUNC_ATOM>  (2503) 
n/a

>  <FINAL_SINGLE_POINT_ENERGY>  (2503) 
0

>  <NONCOV_INTER_ENERGY_QM>  (2503) 
0

>  <FF_Energy>  (2503) 
-6.52

>  <QM_Energy>  (2503) 
-12.39

>  <source>  (2503) 
ETAM_MBZ

>  <Index>  (2503) 
26449

$$$$
ETAM-pdb4q8g-A-LYS-810:MBZ-pdb4q8g-A-PHE-819
     RDKit          3D

 26 25  0  0  0  0  0  0  0  0999 V2000
   -1.1932    1.6153    3.6804 C   0  0  0  0  0  0  0  0  0  0  0  0
   -0.5276    2.3105    3.5582 H   0  0  0  0  0  0  0  0  0  0  0  0
   -1.5254    1.6302    4.5913 H   0  0  0  0  0  0  0  0  0  0  0  0
   -2.0233    1.7944    2.9970 H   0  0  0  0  0  0  0  0  0  0  0  0
   -0.5128    0.2613    3.4462 C   0  0  0  0  0  0  0  0  0  0  0  0
   -0.9141   -0.4091    4.0199 H   0  0  0  0  0  0  0  0  0  0  0  0
   -0.5982    0.0099    2.5129 H   0  0  0  0  0  0  0  0  0  0  0  0
    0.9592    0.3732    3.7851 N   0  0  0  0  0  4  0  0  0  0  0  0
    1.3617   -0.4084    3.6521 H   0  0  0  0  0  0  0  0  0  0  0  0
    1.3436    0.9886    3.2704 H   0  0  0  0  0  0  0  0  0  0  0  0
    1.0566    0.6083    4.6382 H   0  0  0  0  0  0  0  0  0  0  0  0
   -0.0083    2.9014    0.0100 C   0  0  0  0  0  0  0  0  0  0  0  0
    0.8380    3.2016    0.3778 H   0  0  0  0  0  0  0  0  0  0  0  0
   -0.7368    3.1941    0.5802 H   0  0  0  0  0  0  0  0  0  0  0  0
   -0.1379    3.3404   -0.9793 H   0  0  0  0  0  0  0  0  0  0  0  0
   -0.0023    1.4060    0.0065 C   0  0  0  0  0  0  0  0  0  0  0  0
   -1.1915    0.6946    0.0050 C   0  0  0  0  0  0  0  0  0  0  0  0
   -1.9995    1.1550    0.0121 H   0  0  0  0  0  0  0  0  0  0  0  0
   -1.1974   -0.7157    0.0000 C   0  0  0  0  0  0  0  0  0  0  0  0
   -2.0021   -1.1808    0.0062 H   0  0  0  0  0  0  0  0  0  0  0  0
    0.0034   -1.4023    0.0024 C   0  0  0  0  0  0  0  0  0  0  0  0
    0.0119   -2.3320   -0.0036 H   0  0  0  0  0  0  0  0  0  0  0  0
    1.1974   -0.6891   -0.0000 C   0  0  0  0  0  0  0  0  0  0  0  0
    2.0071   -1.1458   -0.0110 H   0  0  0  0  0  0  0  0  0  0  0  0
    1.1904    0.7066   -0.0139 C   0  0  0  0  0  0  0  0  0  0  0  0
    1.9956    1.1706   -0.0066 H   0  0  0  0  0  0  0  0  0  0  0  0
  1  5  1  0
  5  8  1  0
  1  2  1  0
  1  3  1  0
  1  4  1  0
  5  6  1  0
  5  7  1  0
  8  9  1  0
  8 10  1  0
  8 11  1  0
 12 16  1  0
 16 17  2  0
 17 19  1  0
 19 21  2  0
 21 23  1  0
 23 25  2  0
 25 16  1  0
 12 13  1  0
 12 14  1  0
 12 15  1  0
 17 18  1  0
 19 20  1  0
 21 22  1  0
 23 24  1  0
 25 26  1  0
M  CHG  1   8   1
M  END
>  <PDB_ID>  (2504) 
pdb4q8g

>  <RESIDUE_NAME>  (2504) 
LYS   PHE

>  <FRAG_NAME>  (2504) 
ETAM   MBZ

>  <FRAG_ATOM_NUM>  (2504) 
fragi: 11  fragj: 15

>  <atom.prop.CHAIN_ID>  (2504) 
A A A A A A A A A A A Z Z Z Z Z Z Z Z Z Z Z Z Z Z Z

>  <atom.prop.IS_HEAVY_ATOM>  (2504) 
1 0 0 0 1 0 0 1 0 0 0 1 0 0 0 1 1 0 1 0 1 0 1 0 1 0

>  <DIFUSE_FUNC_ATOM>  (2504) 
n/a

>  <FINAL_SINGLE_POINT_ENERGY>  (2504) 
0

>  <NONCOV_INTER_ENERGY_QM>  (2504) 
0

>  <FF_Energy>  (2504) 
-6.42

>  <QM_Energy>  (2504) 
-12.29

>  <source>  (2504) 
ETAM_MBZ

>  <Index>  (2504) 
26460

$$$$
ETAM-pdb4qbu-A-LYS-156:MBZ-pdb4qbu-A-PHE-148
     RDKit          3D

 26 25  0  0  0  0  0  0  0  0999 V2000
   -1.4049   -1.2539   -3.9504 C   0  0  0  0  0  0  0  0  0  0  0  0
   -1.3562   -0.2742   -3.7821 H   0  0  0  0  0  0  0  0  0  0  0  0
   -2.2728   -1.6166   -3.6245 H   0  0  0  0  0  0  0  0  0  0  0  0
   -1.3183   -1.4378   -5.0212 H   0  0  0  0  0  0  0  0  0  0  0  0
   -0.2859   -1.9299   -3.1936 C   0  0  0  0  0  0  0  0  0  0  0  0
    0.4952   -2.0354   -3.7927 H   0  0  0  0  0  0  0  0  0  0  0  0
   -0.0525   -1.3850   -2.3994 H   0  0  0  0  0  0  0  0  0  0  0  0
   -0.7636   -3.2566   -2.7617 N   0  0  0  0  0  4  0  0  0  0  0  0
    0.0186   -3.8416   -2.5380 H   0  0  0  0  0  0  0  0  0  0  0  0
   -1.3456   -3.1602   -1.9520 H   0  0  0  0  0  0  0  0  0  0  0  0
   -1.2924   -3.6824   -3.4979 H   0  0  0  0  0  0  0  0  0  0  0  0
    0.0118    2.9385   -0.0047 C   0  0  0  0  0  0  0  0  0  0  0  0
   -0.9212    3.2493    0.0460 H   0  0  0  0  0  0  0  0  0  0  0  0
    0.4571    3.2370   -0.8297 H   0  0  0  0  0  0  0  0  0  0  0  0
    0.5501    3.3769    0.8356 H   0  0  0  0  0  0  0  0  0  0  0  0
    0.0011    1.4180    0.0004 C   0  0  0  0  0  0  0  0  0  0  0  0
   -1.2107    0.7141   -0.0004 C   0  0  0  0  0  0  0  0  0  0  0  0
   -2.0700    1.2020   -0.0026 H   0  0  0  0  0  0  0  0  0  0  0  0
   -1.2175   -0.6938    0.0000 C   0  0  0  0  0  0  0  0  0  0  0  0
   -2.0911   -1.1830   -0.0016 H   0  0  0  0  0  0  0  0  0  0  0  0
   -0.0032   -1.4074    0.0042 C   0  0  0  0  0  0  0  0  0  0  0  0
   -0.0182   -2.4021    0.0095 H   0  0  0  0  0  0  0  0  0  0  0  0
    1.2175   -0.7163    0.0000 C   0  0  0  0  0  0  0  0  0  0  0  0
    2.0883   -1.2157    0.0016 H   0  0  0  0  0  0  0  0  0  0  0  0
    1.2128    0.6856   -0.0042 C   0  0  0  0  0  0  0  0  0  0  0  0
    2.0780    1.1831   -0.0115 H   0  0  0  0  0  0  0  0  0  0  0  0
  1  5  1  0
  5  8  1  0
  1  2  1  0
  1  3  1  0
  1  4  1  0
  5  6  1  0
  5  7  1  0
  8  9  1  0
  8 10  1  0
  8 11  1  0
 12 16  1  0
 16 17  2  0
 17 19  1  0
 19 21  2  0
 21 23  1  0
 23 25  2  0
 25 16  1  0
 12 13  1  0
 12 14  1  0
 12 15  1  0
 17 18  1  0
 19 20  1  0
 21 22  1  0
 23 24  1  0
 25 26  1  0
M  CHG  1   8   1
M  END
>  <PDB_ID>  (2505) 
pdb4qbu

>  <RESIDUE_NAME>  (2505) 
LYS   PHE

>  <FRAG_NAME>  (2505) 
ETAM   MBZ

>  <FRAG_ATOM_NUM>  (2505) 
fragi: 11  fragj: 15

>  <atom.prop.CHAIN_ID>  (2505) 
A A A A A A A A A A A Z Z Z Z Z Z Z Z Z Z Z Z Z Z Z

>  <atom.prop.IS_HEAVY_ATOM>  (2505) 
1 0 0 0 1 0 0 1 0 0 0 1 0 0 0 1 1 0 1 0 1 0 1 0 1 0

>  <DIFUSE_FUNC_ATOM>  (2505) 
n/a

>  <FINAL_SINGLE_POINT_ENERGY>  (2505) 
0

>  <NONCOV_INTER_ENERGY_QM>  (2505) 
0

>  <FF_Energy>  (2505) 
-0.82

>  <QM_Energy>  (2505) 
-8.61

>  <source>  (2505) 
ETAM_MBZ

>  <Index>  (2505) 
26493

$$$$
ETAM-pdb4qcl-A-LYS-747:MBZ-pdb4qcl-A-PHE-751
     RDKit          3D

 26 25  0  0  0  0  0  0  0  0999 V2000
    0.3789   -1.7703   -4.8743 C   0  0  0  0  0  0  0  0  0  0  0  0
    0.3314   -1.0046   -5.5094 H   0  0  0  0  0  0  0  0  0  0  0  0
   -0.1219   -2.5503   -5.2382 H   0  0  0  0  0  0  0  0  0  0  0  0
    1.4238   -2.0546   -4.7496 H   0  0  0  0  0  0  0  0  0  0  0  0
   -0.2760   -1.3463   -3.5533 C   0  0  0  0  0  0  0  0  0  0  0  0
   -0.3170   -2.1465   -2.9442 H   0  0  0  0  0  0  0  0  0  0  0  0
    0.3025   -0.6463   -3.1178 H   0  0  0  0  0  0  0  0  0  0  0  0
   -1.6571   -0.7970   -3.7310 N   0  0  0  0  0  4  0  0  0  0  0  0
   -1.6053    0.0595   -4.2402 H   0  0  0  0  0  0  0  0  0  0  0  0
   -2.2093   -1.4576   -4.2356 H   0  0  0  0  0  0  0  0  0  0  0  0
   -2.0618   -0.6329   -2.8337 H   0  0  0  0  0  0  0  0  0  0  0  0
    0.0112    2.9192    0.0774 C   0  0  0  0  0  0  0  0  0  0  0  0
    0.9051    3.2307   -0.2144 H   0  0  0  0  0  0  0  0  0  0  0  0
   -0.1665    3.1762    1.0171 H   0  0  0  0  0  0  0  0  0  0  0  0
   -0.7332    3.4114   -0.5482 H   0  0  0  0  0  0  0  0  0  0  0  0
   -0.0006    1.4083    0.0006 C   0  0  0  0  0  0  0  0  0  0  0  0
   -1.2053    0.6977   -0.0007 C   0  0  0  0  0  0  0  0  0  0  0  0
   -2.0683    1.1915   -0.0035 H   0  0  0  0  0  0  0  0  0  0  0  0
   -1.2127   -0.6953    0.0000 C   0  0  0  0  0  0  0  0  0  0  0  0
   -2.0833   -1.1917    0.0009 H   0  0  0  0  0  0  0  0  0  0  0  0
    0.0025   -1.4014    0.0016 C   0  0  0  0  0  0  0  0  0  0  0  0
   -0.0073   -2.3962    0.0035 H   0  0  0  0  0  0  0  0  0  0  0  0
    1.2127   -0.7041   -0.0000 C   0  0  0  0  0  0  0  0  0  0  0  0
    2.0897   -1.1989    0.0014 H   0  0  0  0  0  0  0  0  0  0  0  0
    1.2034    0.6948   -0.0015 C   0  0  0  0  0  0  0  0  0  0  0  0
    2.0692    1.1925   -0.0046 H   0  0  0  0  0  0  0  0  0  0  0  0
  1  5  1  0
  5  8  1  0
  1  2  1  0
  1  3  1  0
  1  4  1  0
  5  6  1  0
  5  7  1  0
  8  9  1  0
  8 10  1  0
  8 11  1  0
 12 16  1  0
 16 17  2  0
 17 19  1  0
 19 21  2  0
 21 23  1  0
 23 25  2  0
 25 16  1  0
 12 13  1  0
 12 14  1  0
 12 15  1  0
 17 18  1  0
 19 20  1  0
 21 22  1  0
 23 24  1  0
 25 26  1  0
M  CHG  1   8   1
M  END
>  <PDB_ID>  (2506) 
pdb4qcl

>  <RESIDUE_NAME>  (2506) 
LYS   PHE

>  <FRAG_NAME>  (2506) 
ETAM   MBZ

>  <FRAG_ATOM_NUM>  (2506) 
fragi: 11  fragj: 15

>  <atom.prop.CHAIN_ID>  (2506) 
A A A A A A A A A A A Z Z Z Z Z Z Z Z Z Z Z Z Z Z Z

>  <atom.prop.IS_HEAVY_ATOM>  (2506) 
1 0 0 0 1 0 0 1 0 0 0 1 0 0 0 1 1 0 1 0 1 0 1 0 1 0

>  <DIFUSE_FUNC_ATOM>  (2506) 
n/a

>  <FINAL_SINGLE_POINT_ENERGY>  (2506) 
0

>  <NONCOV_INTER_ENERGY_QM>  (2506) 
0

>  <FF_Energy>  (2506) 
-5.49

>  <QM_Energy>  (2506) 
-10.71

>  <source>  (2506) 
ETAM_MBZ

>  <Index>  (2506) 
26508

$$$$
ETAM-pdb4qdi-A-LYS-419:MBZ-pdb4qdi-A-PHE-430
     RDKit          3D

 26 25  0  0  0  0  0  0  0  0999 V2000
   -0.9116   -1.0865   -2.6772 C   0  0  0  0  0  0  0  0  0  0  0  0
   -1.2831   -1.8868   -2.2010 H   0  0  0  0  0  0  0  0  0  0  0  0
   -0.3287   -0.5698   -2.0468 H   0  0  0  0  0  0  0  0  0  0  0  0
   -0.3045   -1.4294   -3.5151 H   0  0  0  0  0  0  0  0  0  0  0  0
   -2.0583   -0.2044   -3.1073 C   0  0  0  0  0  0  0  0  0  0  0  0
   -1.6947    0.6004   -3.5791 H   0  0  0  0  0  0  0  0  0  0  0  0
   -2.6500   -0.7145   -3.7331 H   0  0  0  0  0  0  0  0  0  0  0  0
   -2.8547    0.2370   -1.9343 N   0  0  0  0  0  4  0  0  0  0  0  0
   -2.2444    0.6247   -1.2431 H   0  0  0  0  0  0  0  0  0  0  0  0
   -3.5164    0.9295   -2.2215 H   0  0  0  0  0  0  0  0  0  0  0  0
   -3.3405   -0.5480   -1.5476 H   0  0  0  0  0  0  0  0  0  0  0  0
    0.0037    2.9048   -0.0094 C   0  0  0  0  0  0  0  0  0  0  0  0
   -0.5134    3.2067   -0.7961 H   0  0  0  0  0  0  0  0  0  0  0  0
    0.9438    3.2091   -0.0591 H   0  0  0  0  0  0  0  0  0  0  0  0
   -0.4453    3.3522    0.8774 H   0  0  0  0  0  0  0  0  0  0  0  0
    0.0005    1.4029   -0.0001 C   0  0  0  0  0  0  0  0  0  0  0  0
   -1.1959    0.6961    0.0005 C   0  0  0  0  0  0  0  0  0  0  0  0
   -2.0630    1.1850   -0.0001 H   0  0  0  0  0  0  0  0  0  0  0  0
   -1.2015   -0.6977   -0.0000 C   0  0  0  0  0  0  0  0  0  0  0  0
   -2.0785   -1.1888    0.0014 H   0  0  0  0  0  0  0  0  0  0  0  0
   -0.0007   -1.3959   -0.0005 C   0  0  0  0  0  0  0  0  0  0  0  0
   -0.0050   -2.3944   -0.0017 H   0  0  0  0  0  0  0  0  0  0  0  0
    1.2015   -0.6989   -0.0000 C   0  0  0  0  0  0  0  0  0  0  0  0
    2.0823   -1.1952    0.0018 H   0  0  0  0  0  0  0  0  0  0  0  0
    1.1961    0.6935    0.0001 C   0  0  0  0  0  0  0  0  0  0  0  0
    2.0648    1.1893   -0.0006 H   0  0  0  0  0  0  0  0  0  0  0  0
  1  5  1  0
  5  8  1  0
  1  2  1  0
  1  3  1  0
  1  4  1  0
  5  6  1  0
  5  7  1  0
  8  9  1  0
  8 10  1  0
  8 11  1  0
 12 16  1  0
 16 17  2  0
 17 19  1  0
 19 21  2  0
 21 23  1  0
 23 25  2  0
 25 16  1  0
 12 13  1  0
 12 14  1  0
 12 15  1  0
 17 18  1  0
 19 20  1  0
 21 22  1  0
 23 24  1  0
 25 26  1  0
M  CHG  1   8   1
M  END
>  <PDB_ID>  (2507) 
pdb4qdi

>  <RESIDUE_NAME>  (2507) 
LYS   PHE

>  <FRAG_NAME>  (2507) 
ETAM   MBZ

>  <FRAG_ATOM_NUM>  (2507) 
fragi: 11  fragj: 15

>  <atom.prop.CHAIN_ID>  (2507) 
A A A A A A A A A A A Z Z Z Z Z Z Z Z Z Z Z Z Z Z Z

>  <atom.prop.IS_HEAVY_ATOM>  (2507) 
1 0 0 0 1 0 0 1 0 0 0 1 0 0 0 1 1 0 1 0 1 0 1 0 1 0

>  <DIFUSE_FUNC_ATOM>  (2507) 
n/a

>  <FINAL_SINGLE_POINT_ENERGY>  (2507) 
0

>  <NONCOV_INTER_ENERGY_QM>  (2507) 
0

>  <FF_Energy>  (2507) 
40.39

>  <QM_Energy>  (2507) 
13.46

>  <source>  (2507) 
ETAM_MBZ

>  <Index>  (2507) 
26514

$$$$
ETAM-pdb4qdj-A-LYS-95:MBZ-pdb4qdj-A-PHE-21
     RDKit          3D

 26 25  0  0  0  0  0  0  0  0999 V2000
    1.2767    1.5772   -3.9405 C   0  0  0  0  0  0  0  0  0  0  0  0
    1.9349    1.9729   -4.5732 H   0  0  0  0  0  0  0  0  0  0  0  0
    1.1792    2.1548   -3.1363 H   0  0  0  0  0  0  0  0  0  0  0  0
    0.3109    1.5001   -4.4398 H   0  0  0  0  0  0  0  0  0  0  0  0
    1.7858    0.2141   -3.4991 C   0  0  0  0  0  0  0  0  0  0  0  0
    1.1856   -0.1390   -2.7771 H   0  0  0  0  0  0  0  0  0  0  0  0
    1.7569   -0.4133   -4.2813 H   0  0  0  0  0  0  0  0  0  0  0  0
    3.1821    0.2858   -2.9818 N   0  0  0  0  0  4  0  0  0  0  0  0
    3.1840    0.0722   -2.0062 H   0  0  0  0  0  0  0  0  0  0  0  0
    3.7498   -0.3747   -3.4716 H   0  0  0  0  0  0  0  0  0  0  0  0
    3.5400    1.2075   -3.1241 H   0  0  0  0  0  0  0  0  0  0  0  0
   -0.0041    2.8939    0.0062 C   0  0  0  0  0  0  0  0  0  0  0  0
   -0.6222    3.2020   -0.7000 H   0  0  0  0  0  0  0  0  0  0  0  0
    0.9188    3.2032   -0.1588 H   0  0  0  0  0  0  0  0  0  0  0  0
   -0.3364    3.3225    0.9517 H   0  0  0  0  0  0  0  0  0  0  0  0
   -0.0002    1.3936   -0.0004 C   0  0  0  0  0  0  0  0  0  0  0  0
   -1.1916    0.6873    0.0002 C   0  0  0  0  0  0  0  0  0  0  0  0
   -2.0599    1.1799   -0.0007 H   0  0  0  0  0  0  0  0  0  0  0  0
   -1.1951   -0.6930    0.0000 C   0  0  0  0  0  0  0  0  0  0  0  0
   -2.0733   -1.1905    0.0023 H   0  0  0  0  0  0  0  0  0  0  0  0
    0.0000   -1.3851   -0.0014 C   0  0  0  0  0  0  0  0  0  0  0  0
   -0.0034   -2.3866   -0.0039 H   0  0  0  0  0  0  0  0  0  0  0  0
    1.1951   -0.6922    0.0000 C   0  0  0  0  0  0  0  0  0  0  0  0
    2.0783   -1.1925    0.0014 H   0  0  0  0  0  0  0  0  0  0  0  0
    1.1918    0.6893    0.0016 C   0  0  0  0  0  0  0  0  0  0  0  0
    2.0610    1.1884    0.0034 H   0  0  0  0  0  0  0  0  0  0  0  0
  1  5  1  0
  5  8  1  0
  1  2  1  0
  1  3  1  0
  1  4  1  0
  5  6  1  0
  5  7  1  0
  8  9  1  0
  8 10  1  0
  8 11  1  0
 12 16  1  0
 16 17  2  0
 17 19  1  0
 19 21  2  0
 21 23  1  0
 23 25  2  0
 25 16  1  0
 12 13  1  0
 12 14  1  0
 12 15  1  0
 17 18  1  0
 19 20  1  0
 21 22  1  0
 23 24  1  0
 25 26  1  0
M  CHG  1   8   1
M  END
>  <PDB_ID>  (2508) 
pdb4qdj

>  <RESIDUE_NAME>  (2508) 
LYS   PHE

>  <FRAG_NAME>  (2508) 
ETAM   MBZ

>  <FRAG_ATOM_NUM>  (2508) 
fragi: 11  fragj: 15

>  <atom.prop.CHAIN_ID>  (2508) 
A A A A A A A A A A A Z Z Z Z Z Z Z Z Z Z Z Z Z Z Z

>  <atom.prop.IS_HEAVY_ATOM>  (2508) 
1 0 0 0 1 0 0 1 0 0 0 1 0 0 0 1 1 0 1 0 1 0 1 0 1 0

>  <DIFUSE_FUNC_ATOM>  (2508) 
n/a

>  <FINAL_SINGLE_POINT_ENERGY>  (2508) 
0

>  <NONCOV_INTER_ENERGY_QM>  (2508) 
0

>  <FF_Energy>  (2508) 
-3.96

>  <QM_Energy>  (2508) 
-9.54

>  <source>  (2508) 
ETAM_MBZ

>  <Index>  (2508) 
26515

$$$$
ETAM-pdb3sgt-A-LYS-37:MBZ-pdb3sgt-A-PHE-41
     RDKit          3D

 26 25  0  0  0  0  0  0  0  0999 V2000
    0.4402    0.3150   -4.6162 C   0  0  0  0  0  0  0  0  0  0  0  0
   -0.2294    1.0494   -4.5604 H   0  0  0  0  0  0  0  0  0  0  0  0
    0.8623    0.3019   -5.5175 H   0  0  0  0  0  0  0  0  0  0  0  0
    1.2144    0.4908   -3.8693 H   0  0  0  0  0  0  0  0  0  0  0  0
   -0.2816   -1.0179   -4.3987 C   0  0  0  0  0  0  0  0  0  0  0  0
   -0.6831   -1.3153   -5.2539 H   0  0  0  0  0  0  0  0  0  0  0  0
    0.3648   -1.6879   -4.0596 H   0  0  0  0  0  0  0  0  0  0  0  0
   -1.3863   -0.8434   -3.3747 N   0  0  0  0  0  4  0  0  0  0  0  0
   -2.0488   -0.1916   -3.7296 H   0  0  0  0  0  0  0  0  0  0  0  0
   -1.8183   -1.7264   -3.2198 H   0  0  0  0  0  0  0  0  0  0  0  0
   -0.9856   -0.5024   -2.5297 H   0  0  0  0  0  0  0  0  0  0  0  0
    0.0045    2.8854   -0.0343 C   0  0  0  0  0  0  0  0  0  0  0  0
   -0.7085    3.1882   -0.6557 H   0  0  0  0  0  0  0  0  0  0  0  0
    0.8947    3.1917   -0.3482 H   0  0  0  0  0  0  0  0  0  0  0  0
   -0.1812    3.3551    0.9316 H   0  0  0  0  0  0  0  0  0  0  0  0
    0.0011    1.4056    0.0004 C   0  0  0  0  0  0  0  0  0  0  0  0
   -1.2151    0.6994   -0.0205 C   0  0  0  0  0  0  0  0  0  0  0  0
   -2.0705    1.1880   -0.0507 H   0  0  0  0  0  0  0  0  0  0  0  0
   -1.2125   -0.7016   -0.0000 C   0  0  0  0  0  0  0  0  0  0  0  0
   -2.0811   -1.2007   -0.0043 H   0  0  0  0  0  0  0  0  0  0  0  0
    0.0084   -1.4025    0.0284 C   0  0  0  0  0  0  0  0  0  0  0  0
   -0.0004   -2.3978    0.0680 H   0  0  0  0  0  0  0  0  0  0  0  0
    1.2125   -0.7045   -0.0000 C   0  0  0  0  0  0  0  0  0  0  0  0
    2.0938   -1.1938   -0.0135 H   0  0  0  0  0  0  0  0  0  0  0  0
    1.2056    0.7035   -0.0083 C   0  0  0  0  0  0  0  0  0  0  0  0
    2.0696    1.1951   -0.0216 H   0  0  0  0  0  0  0  0  0  0  0  0
  1  5  1  0
  5  8  1  0
  1  2  1  0
  1  3  1  0
  1  4  1  0
  5  6  1  0
  5  7  1  0
  8  9  1  0
  8 10  1  0
  8 11  1  0
 12 16  1  0
 16 17  2  0
 17 19  1  0
 19 21  2  0
 21 23  1  0
 23 25  2  0
 25 16  1  0
 12 13  1  0
 12 14  1  0
 12 15  1  0
 17 18  1  0
 19 20  1  0
 21 22  1  0
 23 24  1  0
 25 26  1  0
M  CHG  1   8   1
M  END
>  <PDB_ID>  (2509) 
pdb3sgt

>  <RESIDUE_NAME>  (2509) 
LYS   PHE

>  <FRAG_NAME>  (2509) 
ETAM   MBZ

>  <FRAG_ATOM_NUM>  (2509) 
fragi: 11  fragj: 15

>  <atom.prop.CHAIN_ID>  (2509) 
A A A A A A A A A A A Z Z Z Z Z Z Z Z Z Z Z Z Z Z Z

>  <atom.prop.IS_HEAVY_ATOM>  (2509) 
1 0 0 0 1 0 0 1 0 0 0 1 0 0 0 1 1 0 1 0 1 0 1 0 1 0

>  <DIFUSE_FUNC_ATOM>  (2509) 
n/a

>  <FINAL_SINGLE_POINT_ENERGY>  (2509) 
0

>  <NONCOV_INTER_ENERGY_QM>  (2509) 
0

>  <FF_Energy>  (2509) 
-6.72

>  <QM_Energy>  (2509) 
-13.43

>  <source>  (2509) 
ETAM_MBZ

>  <Index>  (2509) 
26559

$$$$
ETAM-pdb4qhw-A-LYS-133:MBZ-pdb4qhw-A-PHE-99
     RDKit          3D

 26 25  0  0  0  0  0  0  0  0999 V2000
    0.2551   -0.2518    4.6075 C   0  0  0  0  0  0  0  0  0  0  0  0
   -0.0322    0.7076    4.5059 H   0  0  0  0  0  0  0  0  0  0  0  0
    0.8397   -0.3258    5.4229 H   0  0  0  0  0  0  0  0  0  0  0  0
   -0.6484   -0.8229    4.8211 H   0  0  0  0  0  0  0  0  0  0  0  0
    1.0472   -0.6786    3.3751 C   0  0  0  0  0  0  0  0  0  0  0  0
    0.4920   -0.5654    2.5701 H   0  0  0  0  0  0  0  0  0  0  0  0
    1.8826   -0.1596    3.3228 H   0  0  0  0  0  0  0  0  0  0  0  0
    1.3988   -2.1540    3.5209 N   0  0  0  0  0  4  0  0  0  0  0  0
    2.3182   -2.2224    3.8927 H   0  0  0  0  0  0  0  0  0  0  0  0
    0.7416   -2.5737    4.1374 H   0  0  0  0  0  0  0  0  0  0  0  0
    1.3528   -2.5776    2.6230 H   0  0  0  0  0  0  0  0  0  0  0  0
   -0.0747    2.9092   -0.1154 C   0  0  0  0  0  0  0  0  0  0  0  0
    0.8011    3.2594    0.1806 H   0  0  0  0  0  0  0  0  0  0  0  0
   -0.8034    3.2092    0.4808 H   0  0  0  0  0  0  0  0  0  0  0  0
   -0.2743    3.2905   -1.1169 H   0  0  0  0  0  0  0  0  0  0  0  0
   -0.0106    1.3908   -0.0289 C   0  0  0  0  0  0  0  0  0  0  0  0
   -1.1497    0.6788   -0.0407 C   0  0  0  0  0  0  0  0  0  0  0  0
   -2.0484    1.1544   -0.0821 H   0  0  0  0  0  0  0  0  0  0  0  0
   -1.1713   -0.7110   -0.0000 C   0  0  0  0  0  0  0  0  0  0  0  0
   -2.0707   -1.1768   -0.0265 H   0  0  0  0  0  0  0  0  0  0  0  0
   -0.0278   -1.3729    0.0733 C   0  0  0  0  0  0  0  0  0  0  0  0
   -0.0117   -2.3809    0.1835 H   0  0  0  0  0  0  0  0  0  0  0  0
    1.1713   -0.6972    0.0000 C   0  0  0  0  0  0  0  0  0  0  0  0
    2.0498   -1.1954   -0.0501 H   0  0  0  0  0  0  0  0  0  0  0  0
    1.1881    0.7114   -0.0038 C   0  0  0  0  0  0  0  0  0  0  0  0
    2.0498    1.1895    0.0112 H   0  0  0  0  0  0  0  0  0  0  0  0
  1  5  1  0
  5  8  1  0
  1  2  1  0
  1  3  1  0
  1  4  1  0
  5  6  1  0
  5  7  1  0
  8  9  1  0
  8 10  1  0
  8 11  1  0
 12 16  1  0
 16 17  2  0
 17 19  1  0
 19 21  2  0
 21 23  1  0
 23 25  2  0
 25 16  1  0
 12 13  1  0
 12 14  1  0
 12 15  1  0
 17 18  1  0
 19 20  1  0
 21 22  1  0
 23 24  1  0
 25 26  1  0
M  CHG  1   8   1
M  END
>  <PDB_ID>  (2510) 
pdb4qhw

>  <RESIDUE_NAME>  (2510) 
LYS   PHE

>  <FRAG_NAME>  (2510) 
ETAM   MBZ

>  <FRAG_ATOM_NUM>  (2510) 
fragi: 11  fragj: 15

>  <atom.prop.CHAIN_ID>  (2510) 
A A A A A A A A A A A Z Z Z Z Z Z Z Z Z Z Z Z Z Z Z

>  <atom.prop.IS_HEAVY_ATOM>  (2510) 
1 0 0 0 1 0 0 1 0 0 0 1 0 0 0 1 1 0 1 0 1 0 1 0 1 0

>  <DIFUSE_FUNC_ATOM>  (2510) 
n/a

>  <FINAL_SINGLE_POINT_ENERGY>  (2510) 
0

>  <NONCOV_INTER_ENERGY_QM>  (2510) 
0

>  <FF_Energy>  (2510) 
-3.75

>  <QM_Energy>  (2510) 
-9.23

>  <source>  (2510) 
ETAM_MBZ

>  <Index>  (2510) 
26574

$$$$
ETAM-pdb3si9-A-LYS-258:MBZ-pdb3si9-A-PHE-17
     RDKit          3D

 26 25  0  0  0  0  0  0  0  0999 V2000
    4.3136    1.1318   -4.8582 C   0  0  0  0  0  0  0  0  0  0  0  0
    4.3049    2.1328   -4.7300 H   0  0  0  0  0  0  0  0  0  0  0  0
    3.5397    0.8859   -5.4555 H   0  0  0  0  0  0  0  0  0  0  0  0
    5.2347    0.8696   -5.3788 H   0  0  0  0  0  0  0  0  0  0  0  0
    4.1431    0.4649   -3.5327 C   0  0  0  0  0  0  0  0  0  0  0  0
    4.3381   -0.5320   -3.6181 H   0  0  0  0  0  0  0  0  0  0  0  0
    4.8219    0.8348   -2.8678 H   0  0  0  0  0  0  0  0  0  0  0  0
    2.7602    0.6025   -2.8920 N   0  0  0  0  0  4  0  0  0  0  0  0
    2.7364    0.0333   -2.0793 H   0  0  0  0  0  0  0  0  0  0  0  0
    2.6206    1.5571   -2.6565 H   0  0  0  0  0  0  0  0  0  0  0  0
    2.0813    0.3013   -3.5507 H   0  0  0  0  0  0  0  0  0  0  0  0
   -0.0013    2.8971   -0.0096 C   0  0  0  0  0  0  0  0  0  0  0  0
    0.9339    3.2067   -0.1146 H   0  0  0  0  0  0  0  0  0  0  0  0
   -0.3852    3.2089    0.8478 H   0  0  0  0  0  0  0  0  0  0  0  0
   -0.5870    3.3450   -0.8124 H   0  0  0  0  0  0  0  0  0  0  0  0
   -0.0032    1.4003   -0.0091 C   0  0  0  0  0  0  0  0  0  0  0  0
   -1.1926    0.6911   -0.0076 C   0  0  0  0  0  0  0  0  0  0  0  0
   -2.0618    1.1819   -0.0136 H   0  0  0  0  0  0  0  0  0  0  0  0
   -1.1934   -0.6881   -0.0000 C   0  0  0  0  0  0  0  0  0  0  0  0
   -2.0715   -1.1891   -0.0040 H   0  0  0  0  0  0  0  0  0  0  0  0
    0.0063   -1.3906    0.0148 C   0  0  0  0  0  0  0  0  0  0  0  0
   -0.0098   -2.3905    0.0360 H   0  0  0  0  0  0  0  0  0  0  0  0
    1.1934   -0.7046    0.0000 C   0  0  0  0  0  0  0  0  0  0  0  0
    2.0808   -1.1940   -0.0109 H   0  0  0  0  0  0  0  0  0  0  0  0
    1.1895    0.6919    0.0019 C   0  0  0  0  0  0  0  0  0  0  0  0
    2.0599    1.1842    0.0107 H   0  0  0  0  0  0  0  0  0  0  0  0
  1  5  1  0
  5  8  1  0
  1  2  1  0
  1  3  1  0
  1  4  1  0
  5  6  1  0
  5  7  1  0
  8  9  1  0
  8 10  1  0
  8 11  1  0
 12 16  1  0
 16 17  2  0
 17 19  1  0
 19 21  2  0
 21 23  1  0
 23 25  2  0
 25 16  1  0
 12 13  1  0
 12 14  1  0
 12 15  1  0
 17 18  1  0
 19 20  1  0
 21 22  1  0
 23 24  1  0
 25 26  1  0
M  CHG  1   8   1
M  END
>  <PDB_ID>  (2511) 
pdb3si9

>  <RESIDUE_NAME>  (2511) 
LYS   PHE

>  <FRAG_NAME>  (2511) 
ETAM   MBZ

>  <FRAG_ATOM_NUM>  (2511) 
fragi: 11  fragj: 15

>  <atom.prop.CHAIN_ID>  (2511) 
A A A A A A A A A A A Z Z Z Z Z Z Z Z Z Z Z Z Z Z Z

>  <atom.prop.IS_HEAVY_ATOM>  (2511) 
1 0 0 0 1 0 0 1 0 0 0 1 0 0 0 1 1 0 1 0 1 0 1 0 1 0

>  <DIFUSE_FUNC_ATOM>  (2511) 
n/a

>  <FINAL_SINGLE_POINT_ENERGY>  (2511) 
0

>  <NONCOV_INTER_ENERGY_QM>  (2511) 
0

>  <FF_Energy>  (2511) 
-3.2

>  <QM_Energy>  (2511) 
-8.66

>  <source>  (2511) 
ETAM_MBZ

>  <Index>  (2511) 
26585

$$$$
ETAM-pdb3sft-A-LYS-269:MBZ-pdb3sft-A-PHE-265
     RDKit          3D

 26 25  0  0  0  0  0  0  0  0999 V2000
    1.8391   -1.9252    4.6907 C   0  0  0  0  0  0  0  0  0  0  0  0
    2.4331   -2.6813    4.9468 H   0  0  0  0  0  0  0  0  0  0  0  0
    1.5374   -1.4335    5.5009 H   0  0  0  0  0  0  0  0  0  0  0  0
    2.3984   -1.2406    4.0531 H   0  0  0  0  0  0  0  0  0  0  0  0
    0.6177   -2.4855    3.9782 C   0  0  0  0  0  0  0  0  0  0  0  0
    0.9224   -3.0164    3.1825 H   0  0  0  0  0  0  0  0  0  0  0  0
    0.1280   -3.0973    4.6061 H   0  0  0  0  0  0  0  0  0  0  0  0
   -0.3009   -1.4104    3.5273 N   0  0  0  0  0  4  0  0  0  0  0  0
   -0.6917   -1.6559    2.6403 H   0  0  0  0  0  0  0  0  0  0  0  0
   -1.0361   -1.2978    4.1956 H   0  0  0  0  0  0  0  0  0  0  0  0
    0.2056   -0.5526    3.4421 H   0  0  0  0  0  0  0  0  0  0  0  0
   -0.0035    2.9147   -0.0039 C   0  0  0  0  0  0  0  0  0  0  0  0
   -0.8774    3.2160   -0.3517 H   0  0  0  0  0  0  0  0  0  0  0  0
    0.7395    3.2192   -0.5788 H   0  0  0  0  0  0  0  0  0  0  0  0
    0.1343    3.3574    0.9826 H   0  0  0  0  0  0  0  0  0  0  0  0
   -0.0001    1.4053   -0.0004 C   0  0  0  0  0  0  0  0  0  0  0  0
   -1.1989    0.6960   -0.0003 C   0  0  0  0  0  0  0  0  0  0  0  0
   -2.0656    1.1843   -0.0015 H   0  0  0  0  0  0  0  0  0  0  0  0
   -1.2034   -0.6998   -0.0000 C   0  0  0  0  0  0  0  0  0  0  0  0
   -2.0782   -1.1921    0.0013 H   0  0  0  0  0  0  0  0  0  0  0  0
    0.0012   -1.3961    0.0004 C   0  0  0  0  0  0  0  0  0  0  0  0
   -0.0021   -2.3949    0.0002 H   0  0  0  0  0  0  0  0  0  0  0  0
    1.2034   -0.6985    0.0000 C   0  0  0  0  0  0  0  0  0  0  0  0
    2.0842   -1.1957    0.0011 H   0  0  0  0  0  0  0  0  0  0  0  0
    1.1978    0.6931    0.0004 C   0  0  0  0  0  0  0  0  0  0  0  0
    2.0666    1.1903    0.0003 H   0  0  0  0  0  0  0  0  0  0  0  0
  1  5  1  0
  5  8  1  0
  1  2  1  0
  1  3  1  0
  1  4  1  0
  5  6  1  0
  5  7  1  0
  8  9  1  0
  8 10  1  0
  8 11  1  0
 12 16  1  0
 16 17  2  0
 17 19  1  0
 19 21  2  0
 21 23  1  0
 23 25  2  0
 25 16  1  0
 12 13  1  0
 12 14  1  0
 12 15  1  0
 17 18  1  0
 19 20  1  0
 21 22  1  0
 23 24  1  0
 25 26  1  0
M  CHG  1   8   1
M  END
>  <PDB_ID>  (2512) 
pdb3sft

>  <RESIDUE_NAME>  (2512) 
LYS   PHE

>  <FRAG_NAME>  (2512) 
ETAM   MBZ

>  <FRAG_ATOM_NUM>  (2512) 
fragi: 11  fragj: 15

>  <atom.prop.CHAIN_ID>  (2512) 
A A A A A A A A A A A Z Z Z Z Z Z Z Z Z Z Z Z Z Z Z

>  <atom.prop.IS_HEAVY_ATOM>  (2512) 
1 0 0 0 1 0 0 1 0 0 0 1 0 0 0 1 1 0 1 0 1 0 1 0 1 0

>  <DIFUSE_FUNC_ATOM>  (2512) 
n/a

>  <FINAL_SINGLE_POINT_ENERGY>  (2512) 
0

>  <NONCOV_INTER_ENERGY_QM>  (2512) 
0

>  <FF_Energy>  (2512) 
-5.95

>  <QM_Energy>  (2512) 
-12.33

>  <source>  (2512) 
ETAM_MBZ

>  <Index>  (2512) 
26603

$$$$
ETAM-pdb3sik-B-LYS-126:MBZ-pdb3sik-B-PHE-95
     RDKit          3D

 26 25  0  0  0  0  0  0  0  0999 V2000
   -0.1745    0.8391    3.9985 C   0  0  0  0  0  0  0  0  0  0  0  0
   -0.4587    1.7636    3.7506 H   0  0  0  0  0  0  0  0  0  0  0  0
    0.0932    0.8144    4.9598 H   0  0  0  0  0  0  0  0  0  0  0  0
   -1.0133    0.1596    3.8477 H   0  0  0  0  0  0  0  0  0  0  0  0
    1.0334    0.4633    3.1528 C   0  0  0  0  0  0  0  0  0  0  0  0
    0.7093    0.1717    2.2390 H   0  0  0  0  0  0  0  0  0  0  0  0
    1.6067    1.2878    3.0237 H   0  0  0  0  0  0  0  0  0  0  0  0
    1.8603   -0.6160    3.7420 N   0  0  0  0  0  4  0  0  0  0  0  0
    2.7908   -0.2795    3.8935 H   0  0  0  0  0  0  0  0  0  0  0  0
    1.4647   -0.9022    4.6155 H   0  0  0  0  0  0  0  0  0  0  0  0
    1.8863   -1.3974    3.1169 H   0  0  0  0  0  0  0  0  0  0  0  0
   -0.0043    2.9025   -0.0114 C   0  0  0  0  0  0  0  0  0  0  0  0
    0.8454    3.2154    0.3793 H   0  0  0  0  0  0  0  0  0  0  0  0
   -0.7822    3.2113    0.5116 H   0  0  0  0  0  0  0  0  0  0  0  0
   -0.0870    3.3260   -1.0124 H   0  0  0  0  0  0  0  0  0  0  0  0
    0.0008    1.3990    0.0022 C   0  0  0  0  0  0  0  0  0  0  0  0
   -1.1845    0.6888   -0.0007 C   0  0  0  0  0  0  0  0  0  0  0  0
   -2.0577    1.1761   -0.0049 H   0  0  0  0  0  0  0  0  0  0  0  0
   -1.1881   -0.6983    0.0000 C   0  0  0  0  0  0  0  0  0  0  0  0
   -2.0724   -1.1874   -0.0003 H   0  0  0  0  0  0  0  0  0  0  0  0
   -0.0040   -1.3883    0.0032 C   0  0  0  0  0  0  0  0  0  0  0  0
   -0.0046   -2.3896    0.0072 H   0  0  0  0  0  0  0  0  0  0  0  0
    1.1881   -0.6953    0.0000 C   0  0  0  0  0  0  0  0  0  0  0  0
    2.0733   -1.1924    0.0022 H   0  0  0  0  0  0  0  0  0  0  0  0
    1.1878    0.6941   -0.0047 C   0  0  0  0  0  0  0  0  0  0  0  0
    2.0595    1.1856   -0.0137 H   0  0  0  0  0  0  0  0  0  0  0  0
  1  5  1  0
  5  8  1  0
  1  2  1  0
  1  3  1  0
  1  4  1  0
  5  6  1  0
  5  7  1  0
  8  9  1  0
  8 10  1  0
  8 11  1  0
 12 16  1  0
 16 17  2  0
 17 19  1  0
 19 21  2  0
 21 23  1  0
 23 25  2  0
 25 16  1  0
 12 13  1  0
 12 14  1  0
 12 15  1  0
 17 18  1  0
 19 20  1  0
 21 22  1  0
 23 24  1  0
 25 26  1  0
M  CHG  1   8   1
M  END
>  <PDB_ID>  (2513) 
pdb3sik

>  <RESIDUE_NAME>  (2513) 
LYS   PHE

>  <FRAG_NAME>  (2513) 
ETAM   MBZ

>  <FRAG_ATOM_NUM>  (2513) 
fragi: 11  fragj: 15

>  <atom.prop.CHAIN_ID>  (2513) 
A A A A A A A A A A A Z Z Z Z Z Z Z Z Z Z Z Z Z Z Z

>  <atom.prop.IS_HEAVY_ATOM>  (2513) 
1 0 0 0 1 0 0 1 0 0 0 1 0 0 0 1 1 0 1 0 1 0 1 0 1 0

>  <DIFUSE_FUNC_ATOM>  (2513) 
n/a

>  <FINAL_SINGLE_POINT_ENERGY>  (2513) 
0

>  <NONCOV_INTER_ENERGY_QM>  (2513) 
0

>  <FF_Energy>  (2513) 
-1.34

>  <QM_Energy>  (2513) 
-8.97

>  <source>  (2513) 
ETAM_MBZ

>  <Index>  (2513) 
26609

$$$$
ETAM-pdb3slj-A-LYS-1181:MBZ-pdb3slj-A-PHE-1011
     RDKit          3D

 26 25  0  0  0  0  0  0  0  0999 V2000
   -3.2363   -0.9793   -3.5086 C   0  0  0  0  0  0  0  0  0  0  0  0
   -3.6857   -0.6286   -4.3211 H   0  0  0  0  0  0  0  0  0  0  0  0
   -3.7952   -0.8211   -2.7030 H   0  0  0  0  0  0  0  0  0  0  0  0
   -3.0796   -2.0515   -3.6261 H   0  0  0  0  0  0  0  0  0  0  0  0
   -1.9098   -0.2366   -3.3304 C   0  0  0  0  0  0  0  0  0  0  0  0
   -1.3826   -0.6905   -2.6199 H   0  0  0  0  0  0  0  0  0  0  0  0
   -1.4151   -0.2545   -4.1927 H   0  0  0  0  0  0  0  0  0  0  0  0
   -2.1702    1.1723   -2.9349 N   0  0  0  0  0  4  0  0  0  0  0  0
   -1.4553    1.7609   -3.3119 H   0  0  0  0  0  0  0  0  0  0  0  0
   -3.0600    1.4577   -3.2898 H   0  0  0  0  0  0  0  0  0  0  0  0
   -2.1692    1.2425   -1.9378 H   0  0  0  0  0  0  0  0  0  0  0  0
    0.0010    2.9023   -0.0186 C   0  0  0  0  0  0  0  0  0  0  0  0
    0.5286    3.2196    0.7519 H   0  0  0  0  0  0  0  0  0  0  0  0
   -0.9347    3.2097    0.0270 H   0  0  0  0  0  0  0  0  0  0  0  0
    0.4455    3.3205   -0.9217 H   0  0  0  0  0  0  0  0  0  0  0  0
    0.0005    1.3981    0.0036 C   0  0  0  0  0  0  0  0  0  0  0  0
   -1.1890    0.6875   -0.0064 C   0  0  0  0  0  0  0  0  0  0  0  0
   -2.0595    1.1744   -0.0194 H   0  0  0  0  0  0  0  0  0  0  0  0
   -1.1892   -0.7001   -0.0000 C   0  0  0  0  0  0  0  0  0  0  0  0
   -2.0712   -1.1929    0.0036 H   0  0  0  0  0  0  0  0  0  0  0  0
   -0.0008   -1.3863    0.0034 C   0  0  0  0  0  0  0  0  0  0  0  0
    0.0007   -2.3892    0.0081 H   0  0  0  0  0  0  0  0  0  0  0  0
    1.1892   -0.6909   -0.0000 C   0  0  0  0  0  0  0  0  0  0  0  0
    2.0761   -1.1911   -0.0004 H   0  0  0  0  0  0  0  0  0  0  0  0
    1.1893    0.6917   -0.0006 C   0  0  0  0  0  0  0  0  0  0  0  0
    2.0605    1.1873   -0.0048 H   0  0  0  0  0  0  0  0  0  0  0  0
  1  5  1  0
  5  8  1  0
  1  2  1  0
  1  3  1  0
  1  4  1  0
  5  6  1  0
  5  7  1  0
  8  9  1  0
  8 10  1  0
  8 11  1  0
 12 16  1  0
 16 17  2  0
 17 19  1  0
 19 21  2  0
 21 23  1  0
 23 25  2  0
 25 16  1  0
 12 13  1  0
 12 14  1  0
 12 15  1  0
 17 18  1  0
 19 20  1  0
 21 22  1  0
 23 24  1  0
 25 26  1  0
M  CHG  1   8   1
M  END
>  <PDB_ID>  (2514) 
pdb3slj

>  <RESIDUE_NAME>  (2514) 
LYS   PHE

>  <FRAG_NAME>  (2514) 
ETAM   MBZ

>  <FRAG_ATOM_NUM>  (2514) 
fragi: 11  fragj: 15

>  <atom.prop.CHAIN_ID>  (2514) 
A A A A A A A A A A A Z Z Z Z Z Z Z Z Z Z Z Z Z Z Z

>  <atom.prop.IS_HEAVY_ATOM>  (2514) 
1 0 0 0 1 0 0 1 0 0 0 1 0 0 0 1 1 0 1 0 1 0 1 0 1 0

>  <DIFUSE_FUNC_ATOM>  (2514) 
n/a

>  <FINAL_SINGLE_POINT_ENERGY>  (2514) 
0

>  <NONCOV_INTER_ENERGY_QM>  (2514) 
0

>  <FF_Energy>  (2514) 
-4.35

>  <QM_Energy>  (2514) 
-11.39

>  <source>  (2514) 
ETAM_MBZ

>  <Index>  (2514) 
26637

$$$$
ETAM-pdb3slg-F-LYS-267:MBZ-pdb3slg-F-PHE-259
     RDKit          3D

 26 25  0  0  0  0  0  0  0  0999 V2000
   -3.5134    0.2630    3.7038 C   0  0  0  0  0  0  0  0  0  0  0  0
   -2.7449    0.9003    3.6844 H   0  0  0  0  0  0  0  0  0  0  0  0
   -3.2286   -0.5942    4.1315 H   0  0  0  0  0  0  0  0  0  0  0  0
   -4.3132    0.7008    4.3010 H   0  0  0  0  0  0  0  0  0  0  0  0
   -3.9471   -0.0224    2.2829 C   0  0  0  0  0  0  0  0  0  0  0  0
   -4.9067   -0.3006    2.2825 H   0  0  0  0  0  0  0  0  0  0  0  0
   -3.8387    0.8059    1.7346 H   0  0  0  0  0  0  0  0  0  0  0  0
   -3.1214   -1.1092    1.6958 N   0  0  0  0  0  4  0  0  0  0  0  0
   -2.2202   -1.1133    2.1291 H   0  0  0  0  0  0  0  0  0  0  0  0
   -3.5704   -1.9889    1.8503 H   0  0  0  0  0  0  0  0  0  0  0  0
   -3.0190   -0.9539    0.7129 H   0  0  0  0  0  0  0  0  0  0  0  0
   -0.0062    2.9373   -0.0020 C   0  0  0  0  0  0  0  0  0  0  0  0
    0.7269    3.2347    0.5922 H   0  0  0  0  0  0  0  0  0  0  0  0
   -0.8869    3.2303    0.3396 H   0  0  0  0  0  0  0  0  0  0  0  0
    0.1456    3.3893   -0.9822 H   0  0  0  0  0  0  0  0  0  0  0  0
   -0.0008    1.4156   -0.0067 C   0  0  0  0  0  0  0  0  0  0  0  0
   -1.2012    0.7012   -0.0021 C   0  0  0  0  0  0  0  0  0  0  0  0
   -2.0682    1.1876   -0.0012 H   0  0  0  0  0  0  0  0  0  0  0  0
   -1.2097   -0.7049   -0.0000 C   0  0  0  0  0  0  0  0  0  0  0  0
   -2.0851   -1.1922   -0.0004 H   0  0  0  0  0  0  0  0  0  0  0  0
    0.0001   -1.4130    0.0046 C   0  0  0  0  0  0  0  0  0  0  0  0
   -0.0021   -2.4021    0.0109 H   0  0  0  0  0  0  0  0  0  0  0  0
    1.2097   -0.7010    0.0000 C   0  0  0  0  0  0  0  0  0  0  0  0
    2.0903   -1.1948   -0.0062 H   0  0  0  0  0  0  0  0  0  0  0  0
    1.2020    0.7021    0.0043 C   0  0  0  0  0  0  0  0  0  0  0  0
    2.0685    1.1961    0.0146 H   0  0  0  0  0  0  0  0  0  0  0  0
  1  5  1  0
  5  8  1  0
  1  2  1  0
  1  3  1  0
  1  4  1  0
  5  6  1  0
  5  7  1  0
  8  9  1  0
  8 10  1  0
  8 11  1  0
 12 16  1  0
 16 17  2  0
 17 19  1  0
 19 21  2  0
 21 23  1  0
 23 25  2  0
 25 16  1  0
 12 13  1  0
 12 14  1  0
 12 15  1  0
 17 18  1  0
 19 20  1  0
 21 22  1  0
 23 24  1  0
 25 26  1  0
M  CHG  1   8   1
M  END
>  <PDB_ID>  (2515) 
pdb3slg

>  <RESIDUE_NAME>  (2515) 
LYS   PHE

>  <FRAG_NAME>  (2515) 
ETAM   MBZ

>  <FRAG_ATOM_NUM>  (2515) 
fragi: 11  fragj: 15

>  <atom.prop.CHAIN_ID>  (2515) 
A A A A A A A A A A A Z Z Z Z Z Z Z Z Z Z Z Z Z Z Z

>  <atom.prop.IS_HEAVY_ATOM>  (2515) 
1 0 0 0 1 0 0 1 0 0 0 1 0 0 0 1 1 0 1 0 1 0 1 0 1 0

>  <DIFUSE_FUNC_ATOM>  (2515) 
n/a

>  <FINAL_SINGLE_POINT_ENERGY>  (2515) 
0

>  <NONCOV_INTER_ENERGY_QM>  (2515) 
0

>  <FF_Energy>  (2515) 
33.67

>  <QM_Energy>  (2515) 
10.86

>  <source>  (2515) 
ETAM_MBZ

>  <Index>  (2515) 
26646

$$$$
ETAM-pdb3sm3-A-LYS-226:MBZ-pdb3sm3-A-PHE-128
     RDKit          3D

 26 25  0  0  0  0  0  0  0  0999 V2000
   -1.3938   -0.3161    3.6130 C   0  0  0  0  0  0  0  0  0  0  0  0
   -1.2539    0.5711    3.1971 H   0  0  0  0  0  0  0  0  0  0  0  0
   -1.6264   -0.2306    4.5706 H   0  0  0  0  0  0  0  0  0  0  0  0
   -2.1991   -0.8338    3.0918 H   0  0  0  0  0  0  0  0  0  0  0  0
   -0.1064   -1.1135    3.4974 C   0  0  0  0  0  0  0  0  0  0  0  0
   -0.2015   -1.9669    4.0247 H   0  0  0  0  0  0  0  0  0  0  0  0
    0.0439   -1.3549    2.5305 H   0  0  0  0  0  0  0  0  0  0  0  0
    1.0863   -0.3656    3.9991 N   0  0  0  0  0  4  0  0  0  0  0  0
    1.2520    0.4226    3.4087 H   0  0  0  0  0  0  0  0  0  0  0  0
    0.9112   -0.0561    4.9326 H   0  0  0  0  0  0  0  0  0  0  0  0
    1.8812   -0.9691    3.9869 H   0  0  0  0  0  0  0  0  0  0  0  0
    0.0004    2.9104    0.0108 C   0  0  0  0  0  0  0  0  0  0  0  0
   -0.7956    3.2148   -0.4869 H   0  0  0  0  0  0  0  0  0  0  0  0
    0.8358    3.2133   -0.4197 H   0  0  0  0  0  0  0  0  0  0  0  0
   -0.0404    3.3434    1.0103 H   0  0  0  0  0  0  0  0  0  0  0  0
   -0.0007    1.3981    0.0019 C   0  0  0  0  0  0  0  0  0  0  0  0
   -1.1905    0.6908    0.0028 C   0  0  0  0  0  0  0  0  0  0  0  0
   -2.0606    1.1783    0.0045 H   0  0  0  0  0  0  0  0  0  0  0  0
   -1.1951   -0.6999   -0.0000 C   0  0  0  0  0  0  0  0  0  0  0  0
   -2.0748   -1.1902    0.0009 H   0  0  0  0  0  0  0  0  0  0  0  0
   -0.0019   -1.3892   -0.0026 C   0  0  0  0  0  0  0  0  0  0  0  0
   -0.0009   -2.3894   -0.0067 H   0  0  0  0  0  0  0  0  0  0  0  0
    1.1951   -0.6922   -0.0000 C   0  0  0  0  0  0  0  0  0  0  0  0
    2.0780   -1.1926    0.0045 H   0  0  0  0  0  0  0  0  0  0  0  0
    1.1931    0.6923   -0.0021 C   0  0  0  0  0  0  0  0  0  0  0  0
    2.0620    1.1897   -0.0071 H   0  0  0  0  0  0  0  0  0  0  0  0
  1  5  1  0
  5  8  1  0
  1  2  1  0
  1  3  1  0
  1  4  1  0
  5  6  1  0
  5  7  1  0
  8  9  1  0
  8 10  1  0
  8 11  1  0
 12 16  1  0
 16 17  2  0
 17 19  1  0
 19 21  2  0
 21 23  1  0
 23 25  2  0
 25 16  1  0
 12 13  1  0
 12 14  1  0
 12 15  1  0
 17 18  1  0
 19 20  1  0
 21 22  1  0
 23 24  1  0
 25 26  1  0
M  CHG  1   8   1
M  END
>  <PDB_ID>  (2516) 
pdb3sm3

>  <RESIDUE_NAME>  (2516) 
LYS   PHE

>  <FRAG_NAME>  (2516) 
ETAM   MBZ

>  <FRAG_ATOM_NUM>  (2516) 
fragi: 11  fragj: 15

>  <atom.prop.CHAIN_ID>  (2516) 
A A A A A A A A A A A Z Z Z Z Z Z Z Z Z Z Z Z Z Z Z

>  <atom.prop.IS_HEAVY_ATOM>  (2516) 
1 0 0 0 1 0 0 1 0 0 0 1 0 0 0 1 1 0 1 0 1 0 1 0 1 0

>  <DIFUSE_FUNC_ATOM>  (2516) 
n/a

>  <FINAL_SINGLE_POINT_ENERGY>  (2516) 
0

>  <NONCOV_INTER_ENERGY_QM>  (2516) 
0

>  <FF_Energy>  (2516) 
-5.44

>  <QM_Energy>  (2516) 
-10.6

>  <source>  (2516) 
ETAM_MBZ

>  <Index>  (2516) 
26652

$$$$
ETAM-pdb3smd-A-LYS-142:MBZ-pdb3smd-A-PHE-83
     RDKit          3D

 26 25  0  0  0  0  0  0  0  0999 V2000
   -3.2120   -5.8177    0.9555 C   0  0  0  0  0  0  0  0  0  0  0  0
   -2.9713   -6.5212    0.2919 H   0  0  0  0  0  0  0  0  0  0  0  0
   -4.1106   -6.0060    1.3418 H   0  0  0  0  0  0  0  0  0  0  0  0
   -2.4765   -5.8336    1.7597 H   0  0  0  0  0  0  0  0  0  0  0  0
   -3.2564   -4.4747    0.2490 C   0  0  0  0  0  0  0  0  0  0  0  0
   -3.9906   -4.4923   -0.4383 H   0  0  0  0  0  0  0  0  0  0  0  0
   -3.4661   -3.7583    0.9230 H   0  0  0  0  0  0  0  0  0  0  0  0
   -1.9694   -4.1503   -0.4214 N   0  0  0  0  0  4  0  0  0  0  0  0
   -1.6971   -3.2174   -0.1839 H   0  0  0  0  0  0  0  0  0  0  0  0
   -1.2655   -4.7922   -0.1171 H   0  0  0  0  0  0  0  0  0  0  0  0
   -2.0829   -4.2243   -1.4119 H   0  0  0  0  0  0  0  0  0  0  0  0
    0.0049    2.9018   -0.1045 C   0  0  0  0  0  0  0  0  0  0  0  0
    0.8585    3.2310    0.2597 H   0  0  0  0  0  0  0  0  0  0  0  0
   -0.7686    3.2438    0.4011 H   0  0  0  0  0  0  0  0  0  0  0  0
   -0.0812    3.2568   -1.1315 H   0  0  0  0  0  0  0  0  0  0  0  0
    0.0022    1.4024   -0.0013 C   0  0  0  0  0  0  0  0  0  0  0  0
   -1.1983    0.6947    0.0017 C   0  0  0  0  0  0  0  0  0  0  0  0
   -2.0627    1.1847    0.0041 H   0  0  0  0  0  0  0  0  0  0  0  0
   -1.2021   -0.6984   -0.0000 C   0  0  0  0  0  0  0  0  0  0  0  0
   -2.0786   -1.1920    0.0017 H   0  0  0  0  0  0  0  0  0  0  0  0
   -0.0003   -1.3935   -0.0024 C   0  0  0  0  0  0  0  0  0  0  0  0
   -0.0029   -2.3919   -0.0065 H   0  0  0  0  0  0  0  0  0  0  0  0
    1.2021   -0.6967    0.0000 C   0  0  0  0  0  0  0  0  0  0  0  0
    2.0824   -1.1950    0.0021 H   0  0  0  0  0  0  0  0  0  0  0  0
    1.1963    0.6915    0.0021 C   0  0  0  0  0  0  0  0  0  0  0  0
    2.0658    1.1886    0.0051 H   0  0  0  0  0  0  0  0  0  0  0  0
  1  5  1  0
  5  8  1  0
  1  2  1  0
  1  3  1  0
  1  4  1  0
  5  6  1  0
  5  7  1  0
  8  9  1  0
  8 10  1  0
  8 11  1  0
 12 16  1  0
 16 17  2  0
 17 19  1  0
 19 21  2  0
 21 23  1  0
 23 25  2  0
 25 16  1  0
 12 13  1  0
 12 14  1  0
 12 15  1  0
 17 18  1  0
 19 20  1  0
 21 22  1  0
 23 24  1  0
 25 26  1  0
M  CHG  1   8   1
M  END
>  <PDB_ID>  (2517) 
pdb3smd

>  <RESIDUE_NAME>  (2517) 
LYS   PHE

>  <FRAG_NAME>  (2517) 
ETAM   MBZ

>  <FRAG_ATOM_NUM>  (2517) 
fragi: 11  fragj: 15

>  <atom.prop.CHAIN_ID>  (2517) 
A A A A A A A A A A A Z Z Z Z Z Z Z Z Z Z Z Z Z Z Z

>  <atom.prop.IS_HEAVY_ATOM>  (2517) 
1 0 0 0 1 0 0 1 0 0 0 1 0 0 0 1 1 0 1 0 1 0 1 0 1 0

>  <DIFUSE_FUNC_ATOM>  (2517) 
n/a

>  <FINAL_SINGLE_POINT_ENERGY>  (2517) 
0

>  <NONCOV_INTER_ENERGY_QM>  (2517) 
0

>  <FF_Energy>  (2517) 
1.73

>  <QM_Energy>  (2517) 
-4.44

>  <source>  (2517) 
ETAM_MBZ

>  <Index>  (2517) 
26657

$$$$
ETAM-pdb3sk1-C-LYS-33:MBZ-pdb3sk1-C-PHE-30
     RDKit          3D

 26 25  0  0  0  0  0  0  0  0999 V2000
   -2.8359    1.2674    4.7384 C   0  0  0  0  0  0  0  0  0  0  0  0
   -3.7941    1.4257    4.9408 H   0  0  0  0  0  0  0  0  0  0  0  0
   -2.4929    1.9472    4.1026 H   0  0  0  0  0  0  0  0  0  0  0  0
   -2.2590    1.3114    5.6622 H   0  0  0  0  0  0  0  0  0  0  0  0
   -2.7226   -0.1259    4.0458 C   0  0  0  0  0  0  0  0  0  0  0  0
   -2.9506   -0.8320    4.7142 H   0  0  0  0  0  0  0  0  0  0  0  0
   -3.3728   -0.1583    3.2887 H   0  0  0  0  0  0  0  0  0  0  0  0
   -1.3204   -0.4026    3.4990 N   0  0  0  0  0  4  0  0  0  0  0  0
   -1.1357    0.2497    2.7731 H   0  0  0  0  0  0  0  0  0  0  0  0
   -0.6705   -0.2940    4.2410 H   0  0  0  0  0  0  0  0  0  0  0  0
   -1.3007   -1.3311    3.1486 H   0  0  0  0  0  0  0  0  0  0  0  0
   -0.0169    2.8830    0.0173 C   0  0  0  0  0  0  0  0  0  0  0  0
   -0.8208    3.1980   -0.4600 H   0  0  0  0  0  0  0  0  0  0  0  0
    0.8113    3.2122   -0.4073 H   0  0  0  0  0  0  0  0  0  0  0  0
   -0.0533    3.3061    1.0212 H   0  0  0  0  0  0  0  0  0  0  0  0
   -0.0033    1.3896   -0.0034 C   0  0  0  0  0  0  0  0  0  0  0  0
   -1.1756    0.6839    0.0048 C   0  0  0  0  0  0  0  0  0  0  0  0
   -2.0545    1.1714    0.0132 H   0  0  0  0  0  0  0  0  0  0  0  0
   -1.1847   -0.6973   -0.0000 C   0  0  0  0  0  0  0  0  0  0  0  0
   -2.0700   -1.1855   -0.0087 H   0  0  0  0  0  0  0  0  0  0  0  0
   -0.0046   -1.3856    0.0096 C   0  0  0  0  0  0  0  0  0  0  0  0
   -0.0011   -2.3866    0.0228 H   0  0  0  0  0  0  0  0  0  0  0  0
    1.1847   -0.6889    0.0000 C   0  0  0  0  0  0  0  0  0  0  0  0
    2.0726   -1.1856    0.0021 H   0  0  0  0  0  0  0  0  0  0  0  0
    1.1835    0.6982   -0.0110 C   0  0  0  0  0  0  0  0  0  0  0  0
    2.0537    1.1906   -0.0253 H   0  0  0  0  0  0  0  0  0  0  0  0
  1  5  1  0
  5  8  1  0
  1  2  1  0
  1  3  1  0
  1  4  1  0
  5  6  1  0
  5  7  1  0
  8  9  1  0
  8 10  1  0
  8 11  1  0
 12 16  1  0
 16 17  2  0
 17 19  1  0
 19 21  2  0
 21 23  1  0
 23 25  2  0
 25 16  1  0
 12 13  1  0
 12 14  1  0
 12 15  1  0
 17 18  1  0
 19 20  1  0
 21 22  1  0
 23 24  1  0
 25 26  1  0
M  CHG  1   8   1
M  END
>  <PDB_ID>  (2518) 
pdb3sk1

>  <RESIDUE_NAME>  (2518) 
LYS   PHE

>  <FRAG_NAME>  (2518) 
ETAM   MBZ

>  <FRAG_ATOM_NUM>  (2518) 
fragi: 11  fragj: 15

>  <atom.prop.CHAIN_ID>  (2518) 
A A A A A A A A A A A Z Z Z Z Z Z Z Z Z Z Z Z Z Z Z

>  <atom.prop.IS_HEAVY_ATOM>  (2518) 
1 0 0 0 1 0 0 1 0 0 0 1 0 0 0 1 1 0 1 0 1 0 1 0 1 0

>  <DIFUSE_FUNC_ATOM>  (2518) 
n/a

>  <FINAL_SINGLE_POINT_ENERGY>  (2518) 
0

>  <NONCOV_INTER_ENERGY_QM>  (2518) 
0

>  <FF_Energy>  (2518) 
-6.27

>  <QM_Energy>  (2518) 
-11.79

>  <source>  (2518) 
ETAM_MBZ

>  <Index>  (2518) 
26659

$$$$
ETAM-pdb3sk1-D-LYS-33:MBZ-pdb3sk1-D-PHE-30
     RDKit          3D

 26 25  0  0  0  0  0  0  0  0999 V2000
   -1.9954    1.0600    5.1226 C   0  0  0  0  0  0  0  0  0  0  0  0
   -2.9295    1.2546    5.4069 H   0  0  0  0  0  0  0  0  0  0  0  0
   -1.6997    1.7186    4.4371 H   0  0  0  0  0  0  0  0  0  0  0  0
   -1.3409    1.1376    5.9908 H   0  0  0  0  0  0  0  0  0  0  0  0
   -1.9536   -0.3299    4.5093 C   0  0  0  0  0  0  0  0  0  0  0  0
   -1.9802   -1.0164    5.2528 H   0  0  0  0  0  0  0  0  0  0  0  0
   -2.7827   -0.4627    3.9424 H   0  0  0  0  0  0  0  0  0  0  0  0
   -0.7471   -0.5882    3.6612 N   0  0  0  0  0  4  0  0  0  0  0  0
   -0.8727   -1.4462    3.1661 H   0  0  0  0  0  0  0  0  0  0  0  0
   -0.6358    0.1623    3.0131 H   0  0  0  0  0  0  0  0  0  0  0  0
    0.0573   -0.6505    4.2480 H   0  0  0  0  0  0  0  0  0  0  0  0
    0.0132    2.8855    0.0114 C   0  0  0  0  0  0  0  0  0  0  0  0
   -0.7836    3.2002   -0.4822 H   0  0  0  0  0  0  0  0  0  0  0  0
    0.8473    3.1935   -0.4213 H   0  0  0  0  0  0  0  0  0  0  0  0
   -0.0223    3.3189    1.0109 H   0  0  0  0  0  0  0  0  0  0  0  0
    0.0073    1.3872    0.0004 C   0  0  0  0  0  0  0  0  0  0  0  0
   -1.1997    0.6873    0.0093 C   0  0  0  0  0  0  0  0  0  0  0  0
   -2.0583    1.1905    0.0215 H   0  0  0  0  0  0  0  0  0  0  0  0
   -1.2104   -0.6909    0.0000 C   0  0  0  0  0  0  0  0  0  0  0  0
   -2.0869   -1.1868   -0.0076 H   0  0  0  0  0  0  0  0  0  0  0  0
   -0.0123   -1.3853    0.0037 C   0  0  0  0  0  0  0  0  0  0  0  0
   -0.0058   -2.3827    0.0090 H   0  0  0  0  0  0  0  0  0  0  0  0
    1.2104   -0.6822   -0.0000 C   0  0  0  0  0  0  0  0  0  0  0  0
    2.0790   -1.1995    0.0086 H   0  0  0  0  0  0  0  0  0  0  0  0
    1.2047    0.6839   -0.0134 C   0  0  0  0  0  0  0  0  0  0  0  0
    2.0694    1.1934   -0.0344 H   0  0  0  0  0  0  0  0  0  0  0  0
  1  5  1  0
  5  8  1  0
  1  2  1  0
  1  3  1  0
  1  4  1  0
  5  6  1  0
  5  7  1  0
  8  9  1  0
  8 10  1  0
  8 11  1  0
 12 16  1  0
 16 17  2  0
 17 19  1  0
 19 21  2  0
 21 23  1  0
 23 25  2  0
 25 16  1  0
 12 13  1  0
 12 14  1  0
 12 15  1  0
 17 18  1  0
 19 20  1  0
 21 22  1  0
 23 24  1  0
 25 26  1  0
M  CHG  1   8   1
M  END
>  <PDB_ID>  (2519) 
pdb3sk1

>  <RESIDUE_NAME>  (2519) 
LYS   PHE

>  <FRAG_NAME>  (2519) 
ETAM   MBZ

>  <FRAG_ATOM_NUM>  (2519) 
fragi: 11  fragj: 15

>  <atom.prop.CHAIN_ID>  (2519) 
A A A A A A A A A A A Z Z Z Z Z Z Z Z Z Z Z Z Z Z Z

>  <atom.prop.IS_HEAVY_ATOM>  (2519) 
1 0 0 0 1 0 0 1 0 0 0 1 0 0 0 1 1 0 1 0 1 0 1 0 1 0

>  <DIFUSE_FUNC_ATOM>  (2519) 
n/a

>  <FINAL_SINGLE_POINT_ENERGY>  (2519) 
0

>  <NONCOV_INTER_ENERGY_QM>  (2519) 
0

>  <FF_Energy>  (2519) 
-6.42

>  <QM_Energy>  (2519) 
-11.71

>  <source>  (2519) 
ETAM_MBZ

>  <Index>  (2519) 
26679

$$$$
ETAM-pdb3si9-C-LYS-258:MBZ-pdb3si9-C-PHE-17
     RDKit          3D

 26 25  0  0  0  0  0  0  0  0999 V2000
    4.1102    0.7931   -4.4334 C   0  0  0  0  0  0  0  0  0  0  0  0
    4.5953   -0.0089   -4.0985 H   0  0  0  0  0  0  0  0  0  0  0  0
    4.3923    1.6032   -3.9285 H   0  0  0  0  0  0  0  0  0  0  0  0
    4.3370    0.9321   -5.4905 H   0  0  0  0  0  0  0  0  0  0  0  0
    2.6158    0.5806   -4.2034 C   0  0  0  0  0  0  0  0  0  0  0  0
    2.1192    1.3921   -4.5296 H   0  0  0  0  0  0  0  0  0  0  0  0
    2.3151   -0.2146   -4.7408 H   0  0  0  0  0  0  0  0  0  0  0  0
    2.2829    0.3507   -2.7649 N   0  0  0  0  0  4  0  0  0  0  0  0
    3.1157    0.4268   -2.2186 H   0  0  0  0  0  0  0  0  0  0  0  0
    1.6213    1.0367   -2.4670 H   0  0  0  0  0  0  0  0  0  0  0  0
    1.8929   -0.5623   -2.6604 H   0  0  0  0  0  0  0  0  0  0  0  0
    0.0055    2.9042    0.0613 C   0  0  0  0  0  0  0  0  0  0  0  0
    0.9149    3.2144   -0.1859 H   0  0  0  0  0  0  0  0  0  0  0  0
   -0.2171    3.1756    0.9898 H   0  0  0  0  0  0  0  0  0  0  0  0
   -0.7045    3.3925   -0.6063 H   0  0  0  0  0  0  0  0  0  0  0  0
   -0.0022    1.4000    0.0041 C   0  0  0  0  0  0  0  0  0  0  0  0
   -1.1928    0.6857    0.0086 C   0  0  0  0  0  0  0  0  0  0  0  0
   -2.0627    1.1750    0.0167 H   0  0  0  0  0  0  0  0  0  0  0  0
   -1.1914   -0.6962    0.0000 C   0  0  0  0  0  0  0  0  0  0  0  0
   -2.0667   -1.1974    0.0082 H   0  0  0  0  0  0  0  0  0  0  0  0
    0.0097   -1.3885   -0.0182 C   0  0  0  0  0  0  0  0  0  0  0  0
    0.0027   -2.3891   -0.0453 H   0  0  0  0  0  0  0  0  0  0  0  0
    1.1914   -0.6940   -0.0000 C   0  0  0  0  0  0  0  0  0  0  0  0
    2.0824   -1.1857    0.0109 H   0  0  0  0  0  0  0  0  0  0  0  0
    1.1853    0.6930    0.0054 C   0  0  0  0  0  0  0  0  0  0  0  0
    2.0581    1.1882    0.0097 H   0  0  0  0  0  0  0  0  0  0  0  0
  1  5  1  0
  5  8  1  0
  1  2  1  0
  1  3  1  0
  1  4  1  0
  5  6  1  0
  5  7  1  0
  8  9  1  0
  8 10  1  0
  8 11  1  0
 12 16  1  0
 16 17  2  0
 17 19  1  0
 19 21  2  0
 21 23  1  0
 23 25  2  0
 25 16  1  0
 12 13  1  0
 12 14  1  0
 12 15  1  0
 17 18  1  0
 19 20  1  0
 21 22  1  0
 23 24  1  0
 25 26  1  0
M  CHG  1   8   1
M  END
>  <PDB_ID>  (2520) 
pdb3si9

>  <RESIDUE_NAME>  (2520) 
LYS   PHE

>  <FRAG_NAME>  (2520) 
ETAM   MBZ

>  <FRAG_ATOM_NUM>  (2520) 
fragi: 11  fragj: 15

>  <atom.prop.CHAIN_ID>  (2520) 
A A A A A A A A A A A Z Z Z Z Z Z Z Z Z Z Z Z Z Z Z

>  <atom.prop.IS_HEAVY_ATOM>  (2520) 
1 0 0 0 1 0 0 1 0 0 0 1 0 0 0 1 1 0 1 0 1 0 1 0 1 0

>  <DIFUSE_FUNC_ATOM>  (2520) 
n/a

>  <FINAL_SINGLE_POINT_ENERGY>  (2520) 
0

>  <NONCOV_INTER_ENERGY_QM>  (2520) 
0

>  <FF_Energy>  (2520) 
-3.64

>  <QM_Energy>  (2520) 
-10.66

>  <source>  (2520) 
ETAM_MBZ

>  <Index>  (2520) 
26680

$$$$
ETAM-pdb4qnn-A-LYS-278:MBZ-pdb4qnn-A-PHE-282
     RDKit          3D

 26 25  0  0  0  0  0  0  0  0999 V2000
   -1.2731   -3.7949   -1.9113 C   0  0  0  0  0  0  0  0  0  0  0  0
   -0.7447   -3.1542   -1.3629 H   0  0  0  0  0  0  0  0  0  0  0  0
   -0.6889   -4.5295   -2.2412 H   0  0  0  0  0  0  0  0  0  0  0  0
   -2.0702   -4.2174   -1.2995 H   0  0  0  0  0  0  0  0  0  0  0  0
   -1.8238   -3.0391   -3.1298 C   0  0  0  0  0  0  0  0  0  0  0  0
   -2.2124   -3.7026   -3.7752 H   0  0  0  0  0  0  0  0  0  0  0  0
   -2.5520   -2.4185   -2.8254 H   0  0  0  0  0  0  0  0  0  0  0  0
   -0.7664   -2.2254   -3.8523 N   0  0  0  0  0  4  0  0  0  0  0  0
   -0.1023   -2.8498   -4.2496 H   0  0  0  0  0  0  0  0  0  0  0  0
   -1.2093   -1.6924   -4.5654 H   0  0  0  0  0  0  0  0  0  0  0  0
   -0.3245   -1.6236   -3.1940 H   0  0  0  0  0  0  0  0  0  0  0  0
    0.0112    2.9104   -0.1001 C   0  0  0  0  0  0  0  0  0  0  0  0
    0.7679    3.2411    0.4414 H   0  0  0  0  0  0  0  0  0  0  0  0
   -0.8523    3.2490    0.2381 H   0  0  0  0  0  0  0  0  0  0  0  0
    0.1406    3.2724   -1.1201 H   0  0  0  0  0  0  0  0  0  0  0  0
   -0.0082    1.4126   -0.0015 C   0  0  0  0  0  0  0  0  0  0  0  0
   -1.2179    0.7151    0.0023 C   0  0  0  0  0  0  0  0  0  0  0  0
   -2.0761    1.1984    0.0057 H   0  0  0  0  0  0  0  0  0  0  0  0
   -1.2127   -0.6904   -0.0000 C   0  0  0  0  0  0  0  0  0  0  0  0
   -2.0752   -1.1944   -0.0002 H   0  0  0  0  0  0  0  0  0  0  0  0
    0.0248   -1.4033   -0.0000 C   0  0  0  0  0  0  0  0  0  0  0  0
   -0.0061   -2.4004   -0.0000 H   0  0  0  0  0  0  0  0  0  0  0  0
    1.2127   -0.7190    0.0000 C   0  0  0  0  0  0  0  0  0  0  0  0
    2.0991   -1.2017    0.0021 H   0  0  0  0  0  0  0  0  0  0  0  0
    1.2013    0.6851   -0.0007 C   0  0  0  0  0  0  0  0  0  0  0  0
    2.0677    1.1830   -0.0013 H   0  0  0  0  0  0  0  0  0  0  0  0
  1  5  1  0
  5  8  1  0
  1  2  1  0
  1  3  1  0
  1  4  1  0
  5  6  1  0
  5  7  1  0
  8  9  1  0
  8 10  1  0
  8 11  1  0
 12 16  1  0
 16 17  2  0
 17 19  1  0
 19 21  2  0
 21 23  1  0
 23 25  2  0
 25 16  1  0
 12 13  1  0
 12 14  1  0
 12 15  1  0
 17 18  1  0
 19 20  1  0
 21 22  1  0
 23 24  1  0
 25 26  1  0
M  CHG  1   8   1
M  END
>  <PDB_ID>  (2521) 
pdb4qnn

>  <RESIDUE_NAME>  (2521) 
LYS   PHE

>  <FRAG_NAME>  (2521) 
ETAM   MBZ

>  <FRAG_ATOM_NUM>  (2521) 
fragi: 11  fragj: 15

>  <atom.prop.CHAIN_ID>  (2521) 
A A A A A A A A A A A Z Z Z Z Z Z Z Z Z Z Z Z Z Z Z

>  <atom.prop.IS_HEAVY_ATOM>  (2521) 
1 0 0 0 1 0 0 1 0 0 0 1 0 0 0 1 1 0 1 0 1 0 1 0 1 0

>  <DIFUSE_FUNC_ATOM>  (2521) 
n/a

>  <FINAL_SINGLE_POINT_ENERGY>  (2521) 
0

>  <NONCOV_INTER_ENERGY_QM>  (2521) 
0

>  <FF_Energy>  (2521) 
3.99

>  <QM_Energy>  (2521) 
-5.77

>  <source>  (2521) 
ETAM_MBZ

>  <Index>  (2521) 
26689

$$$$
ETAM-pdb4qd2-H-LYS-128:MBZ-pdb4qd2-G-PHE-73
     RDKit          3D

 26 25  0  0  0  0  0  0  0  0999 V2000
   -0.8680   -1.8087    4.3050 C   0  0  0  0  0  0  0  0  0  0  0  0
   -0.1548   -1.1703    4.0267 H   0  0  0  0  0  0  0  0  0  0  0  0
   -0.5266   -2.4105    5.0229 H   0  0  0  0  0  0  0  0  0  0  0  0
   -1.7123   -1.2407    4.6957 H   0  0  0  0  0  0  0  0  0  0  0  0
   -1.2573   -2.6555    3.1051 C   0  0  0  0  0  0  0  0  0  0  0  0
   -2.0407   -3.2321    3.3522 H   0  0  0  0  0  0  0  0  0  0  0  0
   -1.5244   -2.0501    2.3505 H   0  0  0  0  0  0  0  0  0  0  0  0
   -0.1343   -3.5274    2.6542 N   0  0  0  0  0  4  0  0  0  0  0  0
   -0.1281   -3.5674    1.6561 H   0  0  0  0  0  0  0  0  0  0  0  0
    0.7299   -3.1478    2.9805 H   0  0  0  0  0  0  0  0  0  0  0  0
   -0.2599   -4.4456    3.0267 H   0  0  0  0  0  0  0  0  0  0  0  0
    0.0028    2.8936   -0.0061 C   0  0  0  0  0  0  0  0  0  0  0  0
    0.8425    3.2013    0.4136 H   0  0  0  0  0  0  0  0  0  0  0  0
   -0.7880    3.2040    0.4988 H   0  0  0  0  0  0  0  0  0  0  0  0
   -0.0485    3.3244   -1.0060 H   0  0  0  0  0  0  0  0  0  0  0  0
    0.0004    1.3944    0.0003 C   0  0  0  0  0  0  0  0  0  0  0  0
   -1.1955    0.6901   -0.0022 C   0  0  0  0  0  0  0  0  0  0  0  0
   -2.0613    1.1837   -0.0069 H   0  0  0  0  0  0  0  0  0  0  0  0
   -1.1995   -0.6926    0.0000 C   0  0  0  0  0  0  0  0  0  0  0  0
   -2.0753   -1.1896    0.0023 H   0  0  0  0  0  0  0  0  0  0  0  0
    0.0003   -1.3857    0.0007 C   0  0  0  0  0  0  0  0  0  0  0  0
   -0.0034   -2.3862    0.0012 H   0  0  0  0  0  0  0  0  0  0  0  0
    1.1995   -0.6925   -0.0000 C   0  0  0  0  0  0  0  0  0  0  0  0
    2.0805   -1.1953    0.0002 H   0  0  0  0  0  0  0  0  0  0  0  0
    1.1948    0.6864    0.0012 C   0  0  0  0  0  0  0  0  0  0  0  0
    2.0627    1.1882    0.0018 H   0  0  0  0  0  0  0  0  0  0  0  0
  1  5  1  0
  5  8  1  0
  1  2  1  0
  1  3  1  0
  1  4  1  0
  5  6  1  0
  5  7  1  0
  8  9  1  0
  8 10  1  0
  8 11  1  0
 12 16  1  0
 16 17  2  0
 17 19  1  0
 19 21  2  0
 21 23  1  0
 23 25  2  0
 25 16  1  0
 12 13  1  0
 12 14  1  0
 12 15  1  0
 17 18  1  0
 19 20  1  0
 21 22  1  0
 23 24  1  0
 25 26  1  0
M  CHG  1   8   1
M  END
>  <PDB_ID>  (2522) 
pdb4qd2

>  <RESIDUE_NAME>  (2522) 
LYS   PHE

>  <FRAG_NAME>  (2522) 
ETAM   MBZ

>  <FRAG_ATOM_NUM>  (2522) 
fragi: 11  fragj: 15

>  <atom.prop.CHAIN_ID>  (2522) 
A A A A A A A A A A A Z Z Z Z Z Z Z Z Z Z Z Z Z Z Z

>  <atom.prop.IS_HEAVY_ATOM>  (2522) 
1 0 0 0 1 0 0 1 0 0 0 1 0 0 0 1 1 0 1 0 1 0 1 0 1 0

>  <DIFUSE_FUNC_ATOM>  (2522) 
n/a

>  <FINAL_SINGLE_POINT_ENERGY>  (2522) 
0

>  <NONCOV_INTER_ENERGY_QM>  (2522) 
0

>  <FF_Energy>  (2522) 
-1.54

>  <QM_Energy>  (2522) 
-7.9

>  <source>  (2522) 
ETAM_MBZ

>  <Index>  (2522) 
26702

$$$$
ETAM-pdb3spa-A-LYS-852:MBZ-pdb3spa-A-PHE-863
     RDKit          3D

 26 25  0  0  0  0  0  0  0  0999 V2000
    0.5419    0.4865   -3.8533 C   0  0  0  0  0  0  0  0  0  0  0  0
    0.6656   -0.0641   -4.6752 H   0  0  0  0  0  0  0  0  0  0  0  0
    0.9304    0.0144   -3.0655 H   0  0  0  0  0  0  0  0  0  0  0  0
    1.0887    1.4195   -3.9895 H   0  0  0  0  0  0  0  0  0  0  0  0
   -0.9319    0.7116   -3.6213 C   0  0  0  0  0  0  0  0  0  0  0  0
   -1.0564    1.2079   -2.7540 H   0  0  0  0  0  0  0  0  0  0  0  0
   -1.2995    1.2810   -4.3663 H   0  0  0  0  0  0  0  0  0  0  0  0
   -1.6936   -0.5612   -3.5644 N   0  0  0  0  0  4  0  0  0  0  0  0
   -2.4433   -0.4724   -2.9075 H   0  0  0  0  0  0  0  0  0  0  0  0
   -2.0664   -0.7675   -4.4688 H   0  0  0  0  0  0  0  0  0  0  0  0
   -1.0849   -1.3014   -3.2775 H   0  0  0  0  0  0  0  0  0  0  0  0
    0.0023    2.9257   -0.0408 C   0  0  0  0  0  0  0  0  0  0  0  0
   -0.5179    3.2093   -0.8399 H   0  0  0  0  0  0  0  0  0  0  0  0
    0.9472    3.2254   -0.1187 H   0  0  0  0  0  0  0  0  0  0  0  0
   -0.4313    3.4179    0.8298 H   0  0  0  0  0  0  0  0  0  0  0  0
    0.0007    1.4117   -0.0042 C   0  0  0  0  0  0  0  0  0  0  0  0
   -1.1965    0.6978    0.0017 C   0  0  0  0  0  0  0  0  0  0  0  0
   -2.0645    1.1812    0.0066 H   0  0  0  0  0  0  0  0  0  0  0  0
   -1.1973   -0.7042   -0.0000 C   0  0  0  0  0  0  0  0  0  0  0  0
   -2.0778   -1.1920   -0.0048 H   0  0  0  0  0  0  0  0  0  0  0  0
   -0.0012   -1.3972    0.0064 C   0  0  0  0  0  0  0  0  0  0  0  0
   -0.0048   -2.3979    0.0152 H   0  0  0  0  0  0  0  0  0  0  0  0
    1.1973   -0.7046   -0.0000 C   0  0  0  0  0  0  0  0  0  0  0  0
    2.0798   -1.1982   -0.0009 H   0  0  0  0  0  0  0  0  0  0  0  0
    1.1970    0.6966   -0.0039 C   0  0  0  0  0  0  0  0  0  0  0  0
    2.0675    1.1861   -0.0068 H   0  0  0  0  0  0  0  0  0  0  0  0
  1  5  1  0
  5  8  1  0
  1  2  1  0
  1  3  1  0
  1  4  1  0
  5  6  1  0
  5  7  1  0
  8  9  1  0
  8 10  1  0
  8 11  1  0
 12 16  1  0
 16 17  2  0
 17 19  1  0
 19 21  2  0
 21 23  1  0
 23 25  2  0
 25 16  1  0
 12 13  1  0
 12 14  1  0
 12 15  1  0
 17 18  1  0
 19 20  1  0
 21 22  1  0
 23 24  1  0
 25 26  1  0
M  CHG  1   8   1
M  END
>  <PDB_ID>  (2523) 
pdb3spa

>  <RESIDUE_NAME>  (2523) 
LYS   PHE

>  <FRAG_NAME>  (2523) 
ETAM   MBZ

>  <FRAG_ATOM_NUM>  (2523) 
fragi: 11  fragj: 15

>  <atom.prop.CHAIN_ID>  (2523) 
A A A A A A A A A A A Z Z Z Z Z Z Z Z Z Z Z Z Z Z Z

>  <atom.prop.IS_HEAVY_ATOM>  (2523) 
1 0 0 0 1 0 0 1 0 0 0 1 0 0 0 1 1 0 1 0 1 0 1 0 1 0

>  <DIFUSE_FUNC_ATOM>  (2523) 
n/a

>  <FINAL_SINGLE_POINT_ENERGY>  (2523) 
0

>  <NONCOV_INTER_ENERGY_QM>  (2523) 
0

>  <FF_Energy>  (2523) 
-6.29

>  <QM_Energy>  (2523) 
-11.76

>  <source>  (2523) 
ETAM_MBZ

>  <Index>  (2523) 
26708

$$$$
ETAM-pdb3si9-D-LYS-258:MBZ-pdb3si9-D-PHE-17
     RDKit          3D

 26 25  0  0  0  0  0  0  0  0999 V2000
    4.2752    0.9787   -4.4108 C   0  0  0  0  0  0  0  0  0  0  0  0
    4.7391    0.1708   -4.0565 H   0  0  0  0  0  0  0  0  0  0  0  0
    4.5032    1.7746   -3.8560 H   0  0  0  0  0  0  0  0  0  0  0  0
    4.6185    1.1558   -5.4301 H   0  0  0  0  0  0  0  0  0  0  0  0
    2.7571    0.7451   -4.3216 C   0  0  0  0  0  0  0  0  0  0  0  0
    2.2868    1.5413   -4.6887 H   0  0  0  0  0  0  0  0  0  0  0  0
    2.5244   -0.0654   -4.8503 H   0  0  0  0  0  0  0  0  0  0  0  0
    2.3283    0.5374   -2.8894 N   0  0  0  0  0  4  0  0  0  0  0  0
    3.0958    0.7493   -2.2901 H   0  0  0  0  0  0  0  0  0  0  0  0
    1.5622    1.1433   -2.6924 H   0  0  0  0  0  0  0  0  0  0  0  0
    2.0532   -0.4126   -2.7708 H   0  0  0  0  0  0  0  0  0  0  0  0
    0.0229    2.9264    0.0148 C   0  0  0  0  0  0  0  0  0  0  0  0
    0.9393    3.2190   -0.2119 H   0  0  0  0  0  0  0  0  0  0  0  0
   -0.2374    3.2216    0.9212 H   0  0  0  0  0  0  0  0  0  0  0  0
   -0.6568    3.4019   -0.6922 H   0  0  0  0  0  0  0  0  0  0  0  0
    0.0009    1.4044   -0.0046 C   0  0  0  0  0  0  0  0  0  0  0  0
   -1.1933    0.6982    0.0050 C   0  0  0  0  0  0  0  0  0  0  0  0
   -2.0611    1.1861    0.0142 H   0  0  0  0  0  0  0  0  0  0  0  0
   -1.1965   -0.6943    0.0000 C   0  0  0  0  0  0  0  0  0  0  0  0
   -2.0796   -1.1834    0.0058 H   0  0  0  0  0  0  0  0  0  0  0  0
   -0.0072   -1.3882   -0.0104 C   0  0  0  0  0  0  0  0  0  0  0  0
   -0.0119   -2.3906   -0.0256 H   0  0  0  0  0  0  0  0  0  0  0  0
    1.1965   -0.7016    0.0000 C   0  0  0  0  0  0  0  0  0  0  0  0
    2.0742   -1.2077    0.0014 H   0  0  0  0  0  0  0  0  0  0  0  0
    1.1996    0.6815    0.0100 C   0  0  0  0  0  0  0  0  0  0  0  0
    2.0679    1.1795    0.0268 H   0  0  0  0  0  0  0  0  0  0  0  0
  1  5  1  0
  5  8  1  0
  1  2  1  0
  1  3  1  0
  1  4  1  0
  5  6  1  0
  5  7  1  0
  8  9  1  0
  8 10  1  0
  8 11  1  0
 12 16  1  0
 16 17  2  0
 17 19  1  0
 19 21  2  0
 21 23  1  0
 23 25  2  0
 25 16  1  0
 12 13  1  0
 12 14  1  0
 12 15  1  0
 17 18  1  0
 19 20  1  0
 21 22  1  0
 23 24  1  0
 25 26  1  0
M  CHG  1   8   1
M  END
>  <PDB_ID>  (2524) 
pdb3si9

>  <RESIDUE_NAME>  (2524) 
LYS   PHE

>  <FRAG_NAME>  (2524) 
ETAM   MBZ

>  <FRAG_ATOM_NUM>  (2524) 
fragi: 11  fragj: 15

>  <atom.prop.CHAIN_ID>  (2524) 
A A A A A A A A A A A Z Z Z Z Z Z Z Z Z Z Z Z Z Z Z

>  <atom.prop.IS_HEAVY_ATOM>  (2524) 
1 0 0 0 1 0 0 1 0 0 0 1 0 0 0 1 1 0 1 0 1 0 1 0 1 0

>  <DIFUSE_FUNC_ATOM>  (2524) 
n/a

>  <FINAL_SINGLE_POINT_ENERGY>  (2524) 
0

>  <NONCOV_INTER_ENERGY_QM>  (2524) 
0

>  <FF_Energy>  (2524) 
-4.17

>  <QM_Energy>  (2524) 
-10.23

>  <source>  (2524) 
ETAM_MBZ

>  <Index>  (2524) 
26717

$$$$
ETAM-pdb3sr9-A-LYS-1707:MBZ-pdb3sr9-A-PHE-1699
     RDKit          3D

 26 25  0  0  0  0  0  0  0  0999 V2000
   -0.6340    0.7551    3.7627 C   0  0  0  0  0  0  0  0  0  0  0  0
   -0.9699    0.1387    4.4664 H   0  0  0  0  0  0  0  0  0  0  0  0
   -0.4335    0.2533    2.9278 H   0  0  0  0  0  0  0  0  0  0  0  0
   -1.3982    1.5035    3.5529 H   0  0  0  0  0  0  0  0  0  0  0  0
    0.6607    1.3976    4.2617 C   0  0  0  0  0  0  0  0  0  0  0  0
    0.4333    2.0473    5.0007 H   0  0  0  0  0  0  0  0  0  0  0  0
    1.2474    0.6756    4.6552 H   0  0  0  0  0  0  0  0  0  0  0  0
    1.4205    2.1162    3.1987 N   0  0  0  0  0  4  0  0  0  0  0  0
    0.7996    2.7193    2.6991 H   0  0  0  0  0  0  0  0  0  0  0  0
    2.1477    2.6564    3.6203 H   0  0  0  0  0  0  0  0  0  0  0  0
    1.8189    1.4497    2.5705 H   0  0  0  0  0  0  0  0  0  0  0  0
   -0.0026    2.9055    0.0040 C   0  0  0  0  0  0  0  0  0  0  0  0
    0.9302    3.2131    0.1116 H   0  0  0  0  0  0  0  0  0  0  0  0
   -0.5711    3.2079    0.7536 H   0  0  0  0  0  0  0  0  0  0  0  0
   -0.3954    3.3472   -0.9117 H   0  0  0  0  0  0  0  0  0  0  0  0
   -0.0001    1.4028   -0.0011 C   0  0  0  0  0  0  0  0  0  0  0  0
   -1.1981    0.6930    0.0024 C   0  0  0  0  0  0  0  0  0  0  0  0
   -2.0641    1.1850    0.0054 H   0  0  0  0  0  0  0  0  0  0  0  0
   -1.2042   -0.6970    0.0000 C   0  0  0  0  0  0  0  0  0  0  0  0
   -2.0794   -1.1910    0.0019 H   0  0  0  0  0  0  0  0  0  0  0  0
   -0.0003   -1.3936   -0.0031 C   0  0  0  0  0  0  0  0  0  0  0  0
   -0.0051   -2.3929   -0.0078 H   0  0  0  0  0  0  0  0  0  0  0  0
    1.2042   -0.6995   -0.0000 C   0  0  0  0  0  0  0  0  0  0  0  0
    2.0833   -1.1960    0.0025 H   0  0  0  0  0  0  0  0  0  0  0  0
    1.1985    0.6942    0.0017 C   0  0  0  0  0  0  0  0  0  0  0  0
    2.0658    1.1907    0.0039 H   0  0  0  0  0  0  0  0  0  0  0  0
  1  5  1  0
  5  8  1  0
  1  2  1  0
  1  3  1  0
  1  4  1  0
  5  6  1  0
  5  7  1  0
  8  9  1  0
  8 10  1  0
  8 11  1  0
 12 16  1  0
 16 17  2  0
 17 19  1  0
 19 21  2  0
 21 23  1  0
 23 25  2  0
 25 16  1  0
 12 13  1  0
 12 14  1  0
 12 15  1  0
 17 18  1  0
 19 20  1  0
 21 22  1  0
 23 24  1  0
 25 26  1  0
M  CHG  1   8   1
M  END
>  <PDB_ID>  (2525) 
pdb3sr9

>  <RESIDUE_NAME>  (2525) 
LYS   PHE

>  <FRAG_NAME>  (2525) 
ETAM   MBZ

>  <FRAG_ATOM_NUM>  (2525) 
fragi: 11  fragj: 15

>  <atom.prop.CHAIN_ID>  (2525) 
A A A A A A A A A A A Z Z Z Z Z Z Z Z Z Z Z Z Z Z Z

>  <atom.prop.IS_HEAVY_ATOM>  (2525) 
1 0 0 0 1 0 0 1 0 0 0 1 0 0 0 1 1 0 1 0 1 0 1 0 1 0

>  <DIFUSE_FUNC_ATOM>  (2525) 
n/a

>  <FINAL_SINGLE_POINT_ENERGY>  (2525) 
0

>  <NONCOV_INTER_ENERGY_QM>  (2525) 
0

>  <FF_Energy>  (2525) 
-6.07

>  <QM_Energy>  (2525) 
-11.17

>  <source>  (2525) 
ETAM_MBZ

>  <Index>  (2525) 
26723

$$$$
ETAM-pdb3sr7-A-LYS-296:MBZ-pdb3sr7-A-PHE-53
     RDKit          3D

 26 25  0  0  0  0  0  0  0  0999 V2000
   -1.6237   -1.5754    3.4084 C   0  0  0  0  0  0  0  0  0  0  0  0
   -1.7782   -2.3153    4.0558 H   0  0  0  0  0  0  0  0  0  0  0  0
   -1.7880   -1.8907    2.4789 H   0  0  0  0  0  0  0  0  0  0  0  0
   -2.2922   -0.7452    3.6367 H   0  0  0  0  0  0  0  0  0  0  0  0
   -0.1451   -1.1601    3.5114 C   0  0  0  0  0  0  0  0  0  0  0  0
    0.0512   -0.5117    2.7803 H   0  0  0  0  0  0  0  0  0  0  0  0
   -0.0001   -0.7269    4.3973 H   0  0  0  0  0  0  0  0  0  0  0  0
    0.7360   -2.3433    3.3826 N   0  0  0  0  0  4  0  0  0  0  0  0
    1.6841   -2.0443    3.2716 H   0  0  0  0  0  0  0  0  0  0  0  0
    0.6609   -2.9081    4.2053 H   0  0  0  0  0  0  0  0  0  0  0  0
    0.4610   -2.8802    2.5843 H   0  0  0  0  0  0  0  0  0  0  0  0
   -0.0091    2.9148   -0.0005 C   0  0  0  0  0  0  0  0  0  0  0  0
    0.8898    3.2201    0.2718 H   0  0  0  0  0  0  0  0  0  0  0  0
   -0.7023    3.2169    0.6357 H   0  0  0  0  0  0  0  0  0  0  0  0
   -0.2319    3.3540   -0.9728 H   0  0  0  0  0  0  0  0  0  0  0  0
   -0.0060    1.4057   -0.0007 C   0  0  0  0  0  0  0  0  0  0  0  0
   -1.2015    0.6940   -0.0041 C   0  0  0  0  0  0  0  0  0  0  0  0
   -2.0696    1.1795   -0.0105 H   0  0  0  0  0  0  0  0  0  0  0  0
   -1.2065   -0.7056   -0.0000 C   0  0  0  0  0  0  0  0  0  0  0  0
   -2.0751   -1.2011    0.0053 H   0  0  0  0  0  0  0  0  0  0  0  0
    0.0119   -1.4027   -0.0021 C   0  0  0  0  0  0  0  0  0  0  0  0
    0.0106   -2.3963   -0.0057 H   0  0  0  0  0  0  0  0  0  0  0  0
    1.2065   -0.6919   -0.0000 C   0  0  0  0  0  0  0  0  0  0  0  0
    2.0935   -1.1838   -0.0015 H   0  0  0  0  0  0  0  0  0  0  0  0
    1.1956    0.7004    0.0069 C   0  0  0  0  0  0  0  0  0  0  0  0
    2.0609    1.2009    0.0170 H   0  0  0  0  0  0  0  0  0  0  0  0
  1  5  1  0
  5  8  1  0
  1  2  1  0
  1  3  1  0
  1  4  1  0
  5  6  1  0
  5  7  1  0
  8  9  1  0
  8 10  1  0
  8 11  1  0
 12 16  1  0
 16 17  2  0
 17 19  1  0
 19 21  2  0
 21 23  1  0
 23 25  2  0
 25 16  1  0
 12 13  1  0
 12 14  1  0
 12 15  1  0
 17 18  1  0
 19 20  1  0
 21 22  1  0
 23 24  1  0
 25 26  1  0
M  CHG  1   8   1
M  END
>  <PDB_ID>  (2526) 
pdb3sr7

>  <RESIDUE_NAME>  (2526) 
LYS   PHE

>  <FRAG_NAME>  (2526) 
ETAM   MBZ

>  <FRAG_ATOM_NUM>  (2526) 
fragi: 11  fragj: 15

>  <atom.prop.CHAIN_ID>  (2526) 
A A A A A A A A A A A Z Z Z Z Z Z Z Z Z Z Z Z Z Z Z

>  <atom.prop.IS_HEAVY_ATOM>  (2526) 
1 0 0 0 1 0 0 1 0 0 0 1 0 0 0 1 1 0 1 0 1 0 1 0 1 0

>  <DIFUSE_FUNC_ATOM>  (2526) 
n/a

>  <FINAL_SINGLE_POINT_ENERGY>  (2526) 
0

>  <NONCOV_INTER_ENERGY_QM>  (2526) 
0

>  <FF_Energy>  (2526) 
-4.72

>  <QM_Energy>  (2526) 
-11.08

>  <source>  (2526) 
ETAM_MBZ

>  <Index>  (2526) 
26735

$$$$
ETAM-pdb3ssz-A-LYS-168:MBZ-pdb3ssz-A-PHE-387
     RDKit          3D

 26 25  0  0  0  0  0  0  0  0999 V2000
    1.2370    1.3748   -3.4766 C   0  0  0  0  0  0  0  0  0  0  0  0
    1.7397    0.5696   -3.7599 H   0  0  0  0  0  0  0  0  0  0  0  0
    1.2858    1.4978   -2.4953 H   0  0  0  0  0  0  0  0  0  0  0  0
    1.6572    2.2516   -3.9694 H   0  0  0  0  0  0  0  0  0  0  0  0
   -0.2313    1.1888   -3.8667 C   0  0  0  0  0  0  0  0  0  0  0  0
   -0.7651    1.9538   -3.4864 H   0  0  0  0  0  0  0  0  0  0  0  0
   -0.3044    1.2211   -4.8704 H   0  0  0  0  0  0  0  0  0  0  0  0
   -0.8110   -0.1009   -3.3772 N   0  0  0  0  0  4  0  0  0  0  0  0
   -1.7614   -0.1665   -3.6741 H   0  0  0  0  0  0  0  0  0  0  0  0
   -0.2861   -0.8609   -3.7554 H   0  0  0  0  0  0  0  0  0  0  0  0
   -0.7660   -0.1227   -2.3807 H   0  0  0  0  0  0  0  0  0  0  0  0
   -0.0013    2.8856    0.0026 C   0  0  0  0  0  0  0  0  0  0  0  0
   -0.8602    3.1989   -0.3757 H   0  0  0  0  0  0  0  0  0  0  0  0
    0.7648    3.1992   -0.5396 H   0  0  0  0  0  0  0  0  0  0  0  0
    0.0992    3.3197    0.9975 H   0  0  0  0  0  0  0  0  0  0  0  0
   -0.0015    1.3951   -0.0036 C   0  0  0  0  0  0  0  0  0  0  0  0
   -1.1934    0.6905   -0.0016 C   0  0  0  0  0  0  0  0  0  0  0  0
   -2.0613    1.1831   -0.0027 H   0  0  0  0  0  0  0  0  0  0  0  0
   -1.1991   -0.6934   -0.0000 C   0  0  0  0  0  0  0  0  0  0  0  0
   -2.0751   -1.1905    0.0007 H   0  0  0  0  0  0  0  0  0  0  0  0
    0.0023   -1.3908    0.0021 C   0  0  0  0  0  0  0  0  0  0  0  0
   -0.0029   -2.3886    0.0048 H   0  0  0  0  0  0  0  0  0  0  0  0
    1.1991   -0.6942    0.0000 C   0  0  0  0  0  0  0  0  0  0  0  0
    2.0820   -1.1914   -0.0019 H   0  0  0  0  0  0  0  0  0  0  0  0
    1.1926    0.6928    0.0031 C   0  0  0  0  0  0  0  0  0  0  0  0
    2.0606    1.1913    0.0093 H   0  0  0  0  0  0  0  0  0  0  0  0
  1  5  1  0
  5  8  1  0
  1  2  1  0
  1  3  1  0
  1  4  1  0
  5  6  1  0
  5  7  1  0
  8  9  1  0
  8 10  1  0
  8 11  1  0
 12 16  1  0
 16 17  2  0
 17 19  1  0
 19 21  2  0
 21 23  1  0
 23 25  2  0
 25 16  1  0
 12 13  1  0
 12 14  1  0
 12 15  1  0
 17 18  1  0
 19 20  1  0
 21 22  1  0
 23 24  1  0
 25 26  1  0
M  CHG  1   8   1
M  END
>  <PDB_ID>  (2527) 
pdb3ssz

>  <RESIDUE_NAME>  (2527) 
LYS   PHE

>  <FRAG_NAME>  (2527) 
ETAM   MBZ

>  <FRAG_ATOM_NUM>  (2527) 
fragi: 11  fragj: 15

>  <atom.prop.CHAIN_ID>  (2527) 
A A A A A A A A A A A Z Z Z Z Z Z Z Z Z Z Z Z Z Z Z

>  <atom.prop.IS_HEAVY_ATOM>  (2527) 
1 0 0 0 1 0 0 1 0 0 0 1 0 0 0 1 1 0 1 0 1 0 1 0 1 0

>  <DIFUSE_FUNC_ATOM>  (2527) 
n/a

>  <FINAL_SINGLE_POINT_ENERGY>  (2527) 
0

>  <NONCOV_INTER_ENERGY_QM>  (2527) 
0

>  <FF_Energy>  (2527) 
-8.86

>  <QM_Energy>  (2527) 
-16.01

>  <source>  (2527) 
ETAM_MBZ

>  <Index>  (2527) 
26736

$$$$
ETAM-pdb4qru-C-LYS-5:MBZ-pdb4qru-A-PHE-22
     RDKit          3D

 26 25  0  0  0  0  0  0  0  0999 V2000
    0.4235   -5.4239   -3.3873 C   0  0  0  0  0  0  0  0  0  0  0  0
    0.6943   -4.5502   -3.7599 H   0  0  0  0  0  0  0  0  0  0  0  0
   -0.4666   -5.6978   -3.7155 H   0  0  0  0  0  0  0  0  0  0  0  0
    1.1611   -6.1799   -3.6563 H   0  0  0  0  0  0  0  0  0  0  0  0
    0.3560   -5.2963   -1.8669 C   0  0  0  0  0  0  0  0  0  0  0  0
    0.1438   -6.1934   -1.4769 H   0  0  0  0  0  0  0  0  0  0  0  0
    1.2483   -4.9927   -1.5285 H   0  0  0  0  0  0  0  0  0  0  0  0
   -0.6880   -4.3190   -1.4462 N   0  0  0  0  0  4  0  0  0  0  0  0
   -0.3351   -3.3911   -1.5556 H   0  0  0  0  0  0  0  0  0  0  0  0
   -1.5011   -4.4381   -2.0158 H   0  0  0  0  0  0  0  0  0  0  0  0
   -0.9227   -4.4781   -0.4876 H   0  0  0  0  0  0  0  0  0  0  0  0
   -0.0149    2.8945    0.0124 C   0  0  0  0  0  0  0  0  0  0  0  0
   -0.4346    3.2072   -0.8218 H   0  0  0  0  0  0  0  0  0  0  0  0
    0.9150    3.2091    0.0971 H   0  0  0  0  0  0  0  0  0  0  0  0
   -0.5836    3.3042    0.8471 H   0  0  0  0  0  0  0  0  0  0  0  0
   -0.0005    1.3939   -0.0056 C   0  0  0  0  0  0  0  0  0  0  0  0
   -1.1930    0.6846   -0.0003 C   0  0  0  0  0  0  0  0  0  0  0  0
   -2.0616    1.1787    0.0024 H   0  0  0  0  0  0  0  0  0  0  0  0
   -1.1988   -0.6964   -0.0000 C   0  0  0  0  0  0  0  0  0  0  0  0
   -2.0743   -1.1939   -0.0072 H   0  0  0  0  0  0  0  0  0  0  0  0
    0.0014   -1.3861    0.0118 C   0  0  0  0  0  0  0  0  0  0  0  0
   -0.0002   -2.3869    0.0288 H   0  0  0  0  0  0  0  0  0  0  0  0
    1.1988   -0.6909   -0.0000 C   0  0  0  0  0  0  0  0  0  0  0  0
    2.0812   -1.1889   -0.0032 H   0  0  0  0  0  0  0  0  0  0  0  0
    1.1922    0.6949   -0.0059 C   0  0  0  0  0  0  0  0  0  0  0  0
    2.0608    1.1933   -0.0111 H   0  0  0  0  0  0  0  0  0  0  0  0
  1  5  1  0
  5  8  1  0
  1  2  1  0
  1  3  1  0
  1  4  1  0
  5  6  1  0
  5  7  1  0
  8  9  1  0
  8 10  1  0
  8 11  1  0
 12 16  1  0
 16 17  2  0
 17 19  1  0
 19 21  2  0
 21 23  1  0
 23 25  2  0
 25 16  1  0
 12 13  1  0
 12 14  1  0
 12 15  1  0
 17 18  1  0
 19 20  1  0
 21 22  1  0
 23 24  1  0
 25 26  1  0
M  CHG  1   8   1
M  END
>  <PDB_ID>  (2528) 
pdb4qru

>  <RESIDUE_NAME>  (2528) 
LYS   PHE

>  <FRAG_NAME>  (2528) 
ETAM   MBZ

>  <FRAG_ATOM_NUM>  (2528) 
fragi: 11  fragj: 15

>  <atom.prop.CHAIN_ID>  (2528) 
A A A A A A A A A A A Z Z Z Z Z Z Z Z Z Z Z Z Z Z Z

>  <atom.prop.IS_HEAVY_ATOM>  (2528) 
1 0 0 0 1 0 0 1 0 0 0 1 0 0 0 1 1 0 1 0 1 0 1 0 1 0

>  <DIFUSE_FUNC_ATOM>  (2528) 
n/a

>  <FINAL_SINGLE_POINT_ENERGY>  (2528) 
0

>  <NONCOV_INTER_ENERGY_QM>  (2528) 
0

>  <FF_Energy>  (2528) 
1.46

>  <QM_Energy>  (2528) 
-5.02

>  <source>  (2528) 
ETAM_MBZ

>  <Index>  (2528) 
26759

$$$$
ETAM-pdb3sv0-A-LYS-294:MBZ-pdb3sv0-A-PHE-95
     RDKit          3D

 26 25  0  0  0  0  0  0  0  0999 V2000
    1.8884   -2.6857   -3.8313 C   0  0  0  0  0  0  0  0  0  0  0  0
    2.5012   -1.9823   -3.5022 H   0  0  0  0  0  0  0  0  0  0  0  0
    2.3091   -3.2191   -4.5510 H   0  0  0  0  0  0  0  0  0  0  0  0
    1.6443   -3.3500   -3.0022 H   0  0  0  0  0  0  0  0  0  0  0  0
    0.6272   -2.0103   -4.3963 C   0  0  0  0  0  0  0  0  0  0  0  0
    0.7763   -1.8189   -5.3753 H   0  0  0  0  0  0  0  0  0  0  0  0
   -0.1455   -2.6547   -4.3180 H   0  0  0  0  0  0  0  0  0  0  0  0
    0.2571   -0.7230   -3.7021 N   0  0  0  0  0  4  0  0  0  0  0  0
    0.3313   -0.8558   -2.7174 H   0  0  0  0  0  0  0  0  0  0  0  0
    0.8828   -0.0065   -3.9988 H   0  0  0  0  0  0  0  0  0  0  0  0
   -0.6785   -0.4843   -3.9464 H   0  0  0  0  0  0  0  0  0  0  0  0
    0.0140    2.9066   -0.0515 C   0  0  0  0  0  0  0  0  0  0  0  0
   -0.6459    3.1966   -0.7285 H   0  0  0  0  0  0  0  0  0  0  0  0
    0.9275    3.2021   -0.2903 H   0  0  0  0  0  0  0  0  0  0  0  0
   -0.2506    3.3844    0.8918 H   0  0  0  0  0  0  0  0  0  0  0  0
    0.0060    1.4058   -0.0014 C   0  0  0  0  0  0  0  0  0  0  0  0
   -1.1923    0.6940   -0.0037 C   0  0  0  0  0  0  0  0  0  0  0  0
   -2.0589    1.1807   -0.0098 H   0  0  0  0  0  0  0  0  0  0  0  0
   -1.1948   -0.7026   -0.0000 C   0  0  0  0  0  0  0  0  0  0  0  0
   -2.0751   -1.1911   -0.0018 H   0  0  0  0  0  0  0  0  0  0  0  0
   -0.0014   -1.3937    0.0084 C   0  0  0  0  0  0  0  0  0  0  0  0
   -0.0037   -2.3950    0.0199 H   0  0  0  0  0  0  0  0  0  0  0  0
    1.1948   -0.7006    0.0000 C   0  0  0  0  0  0  0  0  0  0  0  0
    2.0786   -1.1920   -0.0023 H   0  0  0  0  0  0  0  0  0  0  0  0
    1.1878    0.6971   -0.0032 C   0  0  0  0  0  0  0  0  0  0  0  0
    2.0650    1.1862   -0.0077 H   0  0  0  0  0  0  0  0  0  0  0  0
  1  5  1  0
  5  8  1  0
  1  2  1  0
  1  3  1  0
  1  4  1  0
  5  6  1  0
  5  7  1  0
  8  9  1  0
  8 10  1  0
  8 11  1  0
 12 16  1  0
 16 17  2  0
 17 19  1  0
 19 21  2  0
 21 23  1  0
 23 25  2  0
 25 16  1  0
 12 13  1  0
 12 14  1  0
 12 15  1  0
 17 18  1  0
 19 20  1  0
 21 22  1  0
 23 24  1  0
 25 26  1  0
M  CHG  1   8   1
M  END
>  <PDB_ID>  (2529) 
pdb3sv0

>  <RESIDUE_NAME>  (2529) 
LYS   PHE

>  <FRAG_NAME>  (2529) 
ETAM   MBZ

>  <FRAG_ATOM_NUM>  (2529) 
fragi: 11  fragj: 15

>  <atom.prop.CHAIN_ID>  (2529) 
A A A A A A A A A A A Z Z Z Z Z Z Z Z Z Z Z Z Z Z Z

>  <atom.prop.IS_HEAVY_ATOM>  (2529) 
1 0 0 0 1 0 0 1 0 0 0 1 0 0 0 1 1 0 1 0 1 0 1 0 1 0

>  <DIFUSE_FUNC_ATOM>  (2529) 
n/a

>  <FINAL_SINGLE_POINT_ENERGY>  (2529) 
0

>  <NONCOV_INTER_ENERGY_QM>  (2529) 
0

>  <FF_Energy>  (2529) 
-6.88

>  <QM_Energy>  (2529) 
-12.7

>  <source>  (2529) 
ETAM_MBZ

>  <Index>  (2529) 
26765

$$$$
ETAM-pdb4qvk-A-LYS-102:MBZ-pdb4qvk-A-PHE-42
     RDKit          3D

 26 25  0  0  0  0  0  0  0  0999 V2000
   -5.0694   -1.9243    0.8281 C   0  0  0  0  0  0  0  0  0  0  0  0
   -6.0532   -2.0480    0.7073 H   0  0  0  0  0  0  0  0  0  0  0  0
   -4.8965   -1.3656    1.6370 H   0  0  0  0  0  0  0  0  0  0  0  0
   -4.6097   -2.9019    0.9733 H   0  0  0  0  0  0  0  0  0  0  0  0
   -4.5158   -1.2181   -0.3797 C   0  0  0  0  0  0  0  0  0  0  0  0
   -3.5469   -1.0190   -0.2318 H   0  0  0  0  0  0  0  0  0  0  0  0
   -4.6143   -1.8072   -1.1827 H   0  0  0  0  0  0  0  0  0  0  0  0
   -5.2427    0.0548   -0.6192 N   0  0  0  0  0  4  0  0  0  0  0  0
   -4.9319    0.4592   -1.4798 H   0  0  0  0  0  0  0  0  0  0  0  0
   -6.2249   -0.1267   -0.6716 H   0  0  0  0  0  0  0  0  0  0  0  0
   -5.0607    0.6889    0.1332 H   0  0  0  0  0  0  0  0  0  0  0  0
   -0.0066    2.8879   -0.0034 C   0  0  0  0  0  0  0  0  0  0  0  0
    0.9268    3.2007    0.0864 H   0  0  0  0  0  0  0  0  0  0  0  0
   -0.5641    3.1951    0.7525 H   0  0  0  0  0  0  0  0  0  0  0  0
   -0.4166    3.3165   -0.9178 H   0  0  0  0  0  0  0  0  0  0  0  0
    0.0002    1.3932    0.0008 C   0  0  0  0  0  0  0  0  0  0  0  0
   -1.1925    0.6880    0.0024 C   0  0  0  0  0  0  0  0  0  0  0  0
   -2.0594    1.1830    0.0040 H   0  0  0  0  0  0  0  0  0  0  0  0
   -1.1961   -0.6883    0.0000 C   0  0  0  0  0  0  0  0  0  0  0  0
   -2.0755   -1.1865    0.0025 H   0  0  0  0  0  0  0  0  0  0  0  0
   -0.0022   -1.3838   -0.0035 C   0  0  0  0  0  0  0  0  0  0  0  0
   -0.0099   -2.3857   -0.0087 H   0  0  0  0  0  0  0  0  0  0  0  0
    1.1961   -0.6973   -0.0000 C   0  0  0  0  0  0  0  0  0  0  0  0
    2.0766   -1.1981    0.0039 H   0  0  0  0  0  0  0  0  0  0  0  0
    1.1945    0.6882    0.0003 C   0  0  0  0  0  0  0  0  0  0  0  0
    2.0626    1.1855   -0.0005 H   0  0  0  0  0  0  0  0  0  0  0  0
  1  5  1  0
  5  8  1  0
  1  2  1  0
  1  3  1  0
  1  4  1  0
  5  6  1  0
  5  7  1  0
  8  9  1  0
  8 10  1  0
  8 11  1  0
 12 16  1  0
 16 17  2  0
 17 19  1  0
 19 21  2  0
 21 23  1  0
 23 25  2  0
 25 16  1  0
 12 13  1  0
 12 14  1  0
 12 15  1  0
 17 18  1  0
 19 20  1  0
 21 22  1  0
 23 24  1  0
 25 26  1  0
M  CHG  1   8   1
M  END
>  <PDB_ID>  (2530) 
pdb4qvk

>  <RESIDUE_NAME>  (2530) 
LYS   PHE

>  <FRAG_NAME>  (2530) 
ETAM   MBZ

>  <FRAG_ATOM_NUM>  (2530) 
fragi: 11  fragj: 15

>  <atom.prop.CHAIN_ID>  (2530) 
A A A A A A A A A A A Z Z Z Z Z Z Z Z Z Z Z Z Z Z Z

>  <atom.prop.IS_HEAVY_ATOM>  (2530) 
1 0 0 0 1 0 0 1 0 0 0 1 0 0 0 1 1 0 1 0 1 0 1 0 1 0

>  <DIFUSE_FUNC_ATOM>  (2530) 
n/a

>  <FINAL_SINGLE_POINT_ENERGY>  (2530) 
0

>  <NONCOV_INTER_ENERGY_QM>  (2530) 
0

>  <FF_Energy>  (2530) 
38.11

>  <QM_Energy>  (2530) 
1.54

>  <source>  (2530) 
ETAM_MBZ

>  <Index>  (2530) 
26789

$$$$
ETAM-pdb3stp-A-LYS-152:MBZ-pdb3stp-A-PHE-341
     RDKit          3D

 26 25  0  0  0  0  0  0  0  0999 V2000
   -0.2387    0.5376   -4.7655 C   0  0  0  0  0  0  0  0  0  0  0  0
   -0.5221    1.4782   -4.6116 H   0  0  0  0  0  0  0  0  0  0  0  0
   -1.0320   -0.0575   -4.8388 H   0  0  0  0  0  0  0  0  0  0  0  0
    0.3272    0.4879   -5.6957 H   0  0  0  0  0  0  0  0  0  0  0  0
    0.6003    0.0833   -3.5765 C   0  0  0  0  0  0  0  0  0  0  0  0
    1.3944    0.6953   -3.4884 H   0  0  0  0  0  0  0  0  0  0  0  0
    0.0457    0.1614   -2.7399 H   0  0  0  0  0  0  0  0  0  0  0  0
    1.0795   -1.3200   -3.7139 N   0  0  0  0  0  4  0  0  0  0  0  0
    0.8377   -1.8346   -2.8924 H   0  0  0  0  0  0  0  0  0  0  0  0
    0.6491   -1.7404   -4.5117 H   0  0  0  0  0  0  0  0  0  0  0  0
    2.0724   -1.3207   -3.8297 H   0  0  0  0  0  0  0  0  0  0  0  0
    0.0017    2.9004   -0.0290 C   0  0  0  0  0  0  0  0  0  0  0  0
   -0.6043    3.1958   -0.7548 H   0  0  0  0  0  0  0  0  0  0  0  0
    0.9300    3.2041   -0.1958 H   0  0  0  0  0  0  0  0  0  0  0  0
   -0.3379    3.3678    0.8953 H   0  0  0  0  0  0  0  0  0  0  0  0
   -0.0003    1.4023   -0.0002 C   0  0  0  0  0  0  0  0  0  0  0  0
   -1.1980    0.6966    0.0008 C   0  0  0  0  0  0  0  0  0  0  0  0
   -2.0642    1.1843    0.0008 H   0  0  0  0  0  0  0  0  0  0  0  0
   -1.2023   -0.6993   -0.0000 C   0  0  0  0  0  0  0  0  0  0  0  0
   -2.0777   -1.1912    0.0014 H   0  0  0  0  0  0  0  0  0  0  0  0
    0.0018   -1.3949   -0.0010 C   0  0  0  0  0  0  0  0  0  0  0  0
   -0.0022   -2.3935   -0.0026 H   0  0  0  0  0  0  0  0  0  0  0  0
    1.2023   -0.6980   -0.0000 C   0  0  0  0  0  0  0  0  0  0  0  0
    2.0838   -1.1948    0.0015 H   0  0  0  0  0  0  0  0  0  0  0  0
    1.1965    0.6933    0.0005 C   0  0  0  0  0  0  0  0  0  0  0  0
    2.0651    1.1902    0.0003 H   0  0  0  0  0  0  0  0  0  0  0  0
  1  5  1  0
  5  8  1  0
  1  2  1  0
  1  3  1  0
  1  4  1  0
  5  6  1  0
  5  7  1  0
  8  9  1  0
  8 10  1  0
  8 11  1  0
 12 16  1  0
 16 17  2  0
 17 19  1  0
 19 21  2  0
 21 23  1  0
 23 25  2  0
 25 16  1  0
 12 13  1  0
 12 14  1  0
 12 15  1  0
 17 18  1  0
 19 20  1  0
 21 22  1  0
 23 24  1  0
 25 26  1  0
M  CHG  1   8   1
M  END
>  <PDB_ID>  (2531) 
pdb3stp

>  <RESIDUE_NAME>  (2531) 
LYS   PHE

>  <FRAG_NAME>  (2531) 
ETAM   MBZ

>  <FRAG_ATOM_NUM>  (2531) 
fragi: 11  fragj: 15

>  <atom.prop.CHAIN_ID>  (2531) 
A A A A A A A A A A A Z Z Z Z Z Z Z Z Z Z Z Z Z Z Z

>  <atom.prop.IS_HEAVY_ATOM>  (2531) 
1 0 0 0 1 0 0 1 0 0 0 1 0 0 0 1 1 0 1 0 1 0 1 0 1 0

>  <DIFUSE_FUNC_ATOM>  (2531) 
n/a

>  <FINAL_SINGLE_POINT_ENERGY>  (2531) 
0

>  <NONCOV_INTER_ENERGY_QM>  (2531) 
0

>  <FF_Energy>  (2531) 
-6.11

>  <QM_Energy>  (2531) 
-11.83

>  <source>  (2531) 
ETAM_MBZ

>  <Index>  (2531) 
26793

$$$$
ETAM-pdb4qt4-B-LYS-62:MBZ-pdb4qt4-B-PHE-38
     RDKit          3D

 26 25  0  0  0  0  0  0  0  0999 V2000
    0.2992   -2.8827    3.7207 C   0  0  0  0  0  0  0  0  0  0  0  0
    0.7098   -3.0980    4.6037 H   0  0  0  0  0  0  0  0  0  0  0  0
    0.6717   -3.4808    3.0164 H   0  0  0  0  0  0  0  0  0  0  0  0
   -0.7758   -3.0504    3.7872 H   0  0  0  0  0  0  0  0  0  0  0  0
    0.6415   -1.4391    3.3638 C   0  0  0  0  0  0  0  0  0  0  0  0
    0.2780   -1.2343    2.4520 H   0  0  0  0  0  0  0  0  0  0  0  0
    0.2096   -0.8276    4.0316 H   0  0  0  0  0  0  0  0  0  0  0  0
    2.1212   -1.1924    3.3640 N   0  0  0  0  0  4  0  0  0  0  0  0
    2.3704   -0.7059    4.1982 H   0  0  0  0  0  0  0  0  0  0  0  0
    2.5973   -2.0683    3.3267 H   0  0  0  0  0  0  0  0  0  0  0  0
    2.3598   -0.6426    2.5665 H   0  0  0  0  0  0  0  0  0  0  0  0
    0.0304    2.8386    0.0227 C   0  0  0  0  0  0  0  0  0  0  0  0
    0.9816    3.1420   -0.0358 H   0  0  0  0  0  0  0  0  0  0  0  0
   -0.3630    3.1392    0.8910 H   0  0  0  0  0  0  0  0  0  0  0  0
   -0.5198    3.3385   -0.7744 H   0  0  0  0  0  0  0  0  0  0  0  0
    0.0048    1.3691   -0.0181 C   0  0  0  0  0  0  0  0  0  0  0  0
   -1.1716    0.6708    0.0053 C   0  0  0  0  0  0  0  0  0  0  0  0
   -2.0437    1.1708    0.0257 H   0  0  0  0  0  0  0  0  0  0  0  0
   -1.1728   -0.6813   -0.0000 C   0  0  0  0  0  0  0  0  0  0  0  0
   -2.0635   -1.1817   -0.0144 H   0  0  0  0  0  0  0  0  0  0  0  0
   -0.0079   -1.3633    0.0150 C   0  0  0  0  0  0  0  0  0  0  0  0
   -0.0041   -2.3687    0.0368 H   0  0  0  0  0  0  0  0  0  0  0  0
    1.1728   -0.6735   -0.0000 C   0  0  0  0  0  0  0  0  0  0  0  0
    2.0604   -1.1858   -0.0078 H   0  0  0  0  0  0  0  0  0  0  0  0
    1.1747    0.6782   -0.0023 C   0  0  0  0  0  0  0  0  0  0  0  0
    2.0508    1.1809    0.0071 H   0  0  0  0  0  0  0  0  0  0  0  0
  1  5  1  0
  5  8  1  0
  1  2  1  0
  1  3  1  0
  1  4  1  0
  5  6  1  0
  5  7  1  0
  8  9  1  0
  8 10  1  0
  8 11  1  0
 12 16  1  0
 16 17  2  0
 17 19  1  0
 19 21  2  0
 21 23  1  0
 23 25  2  0
 25 16  1  0
 12 13  1  0
 12 14  1  0
 12 15  1  0
 17 18  1  0
 19 20  1  0
 21 22  1  0
 23 24  1  0
 25 26  1  0
M  CHG  1   8   1
M  END
>  <PDB_ID>  (2532) 
pdb4qt4

>  <RESIDUE_NAME>  (2532) 
LYS   PHE

>  <FRAG_NAME>  (2532) 
ETAM   MBZ

>  <FRAG_ATOM_NUM>  (2532) 
fragi: 11  fragj: 15

>  <atom.prop.CHAIN_ID>  (2532) 
A A A A A A A A A A A Z Z Z Z Z Z Z Z Z Z Z Z Z Z Z

>  <atom.prop.IS_HEAVY_ATOM>  (2532) 
1 0 0 0 1 0 0 1 0 0 0 1 0 0 0 1 1 0 1 0 1 0 1 0 1 0

>  <DIFUSE_FUNC_ATOM>  (2532) 
n/a

>  <FINAL_SINGLE_POINT_ENERGY>  (2532) 
0

>  <NONCOV_INTER_ENERGY_QM>  (2532) 
0

>  <FF_Energy>  (2532) 
-3.23

>  <QM_Energy>  (2532) 
-9.97

>  <source>  (2532) 
ETAM_MBZ

>  <Index>  (2532) 
26798

$$$$
ETAM-pdb3sxq-A-LYS-358:MBZ-pdb3sxq-A-PHE-109
     RDKit          3D

 26 25  0  0  0  0  0  0  0  0999 V2000
   -0.4989    0.8224   -4.6424 C   0  0  0  0  0  0  0  0  0  0  0  0
    0.1026    0.9728   -5.3960 H   0  0  0  0  0  0  0  0  0  0  0  0
   -1.1380    1.5457   -4.5011 H   0  0  0  0  0  0  0  0  0  0  0  0
   -1.0490   -0.1029   -4.8138 H   0  0  0  0  0  0  0  0  0  0  0  0
    0.3548    0.6592   -3.3538 C   0  0  0  0  0  0  0  0  0  0  0  0
    0.5578    1.5733   -2.9935 H   0  0  0  0  0  0  0  0  0  0  0  0
   -0.1897    0.1573   -2.6770 H   0  0  0  0  0  0  0  0  0  0  0  0
    1.6468   -0.0762   -3.5919 N   0  0  0  0  0  4  0  0  0  0  0  0
    2.3982    0.5783   -3.5776 H   0  0  0  0  0  0  0  0  0  0  0  0
    1.7701   -0.7535   -2.8718 H   0  0  0  0  0  0  0  0  0  0  0  0
    1.6029   -0.5265   -4.4801 H   0  0  0  0  0  0  0  0  0  0  0  0
    0.0145    2.9545   -0.0468 C   0  0  0  0  0  0  0  0  0  0  0  0
   -0.3157    3.2299   -0.9330 H   0  0  0  0  0  0  0  0  0  0  0  0
    0.9442    3.2439    0.1056 H   0  0  0  0  0  0  0  0  0  0  0  0
   -0.6127    3.4303    0.7071 H   0  0  0  0  0  0  0  0  0  0  0  0
   -0.0038    1.4214   -0.0031 C   0  0  0  0  0  0  0  0  0  0  0  0
   -1.2118    0.7146    0.0002 C   0  0  0  0  0  0  0  0  0  0  0  0
   -2.0746    1.1946    0.0014 H   0  0  0  0  0  0  0  0  0  0  0  0
   -1.2176   -0.7065    0.0000 C   0  0  0  0  0  0  0  0  0  0  0  0
   -2.0876   -1.1934   -0.0065 H   0  0  0  0  0  0  0  0  0  0  0  0
    0.0068   -1.4212    0.0104 C   0  0  0  0  0  0  0  0  0  0  0  0
    0.0015   -2.4061    0.0239 H   0  0  0  0  0  0  0  0  0  0  0  0
    1.2176   -0.7036   -0.0000 C   0  0  0  0  0  0  0  0  0  0  0  0
    2.0973   -1.1989   -0.0002 H   0  0  0  0  0  0  0  0  0  0  0  0
    1.2087    0.6954   -0.0075 C   0  0  0  0  0  0  0  0  0  0  0  0
    2.0725    1.1956   -0.0171 H   0  0  0  0  0  0  0  0  0  0  0  0
  1  5  1  0
  5  8  1  0
  1  2  1  0
  1  3  1  0
  1  4  1  0
  5  6  1  0
  5  7  1  0
  8  9  1  0
  8 10  1  0
  8 11  1  0
 12 16  1  0
 16 17  2  0
 17 19  1  0
 19 21  2  0
 21 23  1  0
 23 25  2  0
 25 16  1  0
 12 13  1  0
 12 14  1  0
 12 15  1  0
 17 18  1  0
 19 20  1  0
 21 22  1  0
 23 24  1  0
 25 26  1  0
M  CHG  1   8   1
M  END
>  <PDB_ID>  (2533) 
pdb3sxq

>  <RESIDUE_NAME>  (2533) 
LYS   PHE

>  <FRAG_NAME>  (2533) 
ETAM   MBZ

>  <FRAG_ATOM_NUM>  (2533) 
fragi: 11  fragj: 15

>  <atom.prop.CHAIN_ID>  (2533) 
A A A A A A A A A A A Z Z Z Z Z Z Z Z Z Z Z Z Z Z Z

>  <atom.prop.IS_HEAVY_ATOM>  (2533) 
1 0 0 0 1 0 0 1 0 0 0 1 0 0 0 1 1 0 1 0 1 0 1 0 1 0

>  <DIFUSE_FUNC_ATOM>  (2533) 
n/a

>  <FINAL_SINGLE_POINT_ENERGY>  (2533) 
0

>  <NONCOV_INTER_ENERGY_QM>  (2533) 
0

>  <FF_Energy>  (2533) 
-6.55

>  <QM_Energy>  (2533) 
-12.26

>  <source>  (2533) 
ETAM_MBZ

>  <Index>  (2533) 
26800

$$$$
ETAM-pdb4qwn-E-LYS-37:MBZ-pdb4qwn-A-PHE-324
     RDKit          3D

 26 25  0  0  0  0  0  0  0  0999 V2000
   -3.5928   -2.7171    3.0942 C   0  0  0  0  0  0  0  0  0  0  0  0
   -3.8493   -3.4630    3.7078 H   0  0  0  0  0  0  0  0  0  0  0  0
   -4.2357   -2.6727    2.3318 H   0  0  0  0  0  0  0  0  0  0  0  0
   -3.6450   -1.7798    3.6481 H   0  0  0  0  0  0  0  0  0  0  0  0
   -2.2033   -2.9965    2.5425 C   0  0  0  0  0  0  0  0  0  0  0  0
   -2.1241   -3.9922    2.3495 H   0  0  0  0  0  0  0  0  0  0  0  0
   -2.1051   -2.5173    1.6508 H   0  0  0  0  0  0  0  0  0  0  0  0
   -1.0756   -2.5894    3.4311 N   0  0  0  0  0  4  0  0  0  0  0  0
   -0.2215   -2.9607    3.0700 H   0  0  0  0  0  0  0  0  0  0  0  0
   -1.0227   -1.5925    3.4610 H   0  0  0  0  0  0  0  0  0  0  0  0
   -1.2354   -2.9459    4.3505 H   0  0  0  0  0  0  0  0  0  0  0  0
   -0.0229    2.8695   -0.0531 C   0  0  0  0  0  0  0  0  0  0  0  0
    0.8992    3.2064    0.0242 H   0  0  0  0  0  0  0  0  0  0  0  0
   -0.6002    3.2073    0.6697 H   0  0  0  0  0  0  0  0  0  0  0  0
   -0.4278    3.2440   -0.9933 H   0  0  0  0  0  0  0  0  0  0  0  0
    0.0023    1.3907    0.0056 C   0  0  0  0  0  0  0  0  0  0  0  0
   -1.1914    0.6823    0.0017 C   0  0  0  0  0  0  0  0  0  0  0  0
   -2.0584    1.1751   -0.0016 H   0  0  0  0  0  0  0  0  0  0  0  0
   -1.1948   -0.6995    0.0000 C   0  0  0  0  0  0  0  0  0  0  0  0
   -2.0743   -1.1943   -0.0079 H   0  0  0  0  0  0  0  0  0  0  0  0
   -0.0048   -1.3828    0.0106 C   0  0  0  0  0  0  0  0  0  0  0  0
    0.0014   -2.3851    0.0250 H   0  0  0  0  0  0  0  0  0  0  0  0
    1.1948   -0.6852   -0.0000 C   0  0  0  0  0  0  0  0  0  0  0  0
    2.0762   -1.1898    0.0067 H   0  0  0  0  0  0  0  0  0  0  0  0
    1.1939    0.6944   -0.0179 C   0  0  0  0  0  0  0  0  0  0  0  0
    2.0607    1.1925   -0.0484 H   0  0  0  0  0  0  0  0  0  0  0  0
  1  5  1  0
  5  8  1  0
  1  2  1  0
  1  3  1  0
  1  4  1  0
  5  6  1  0
  5  7  1  0
  8  9  1  0
  8 10  1  0
  8 11  1  0
 12 16  1  0
 16 17  2  0
 17 19  1  0
 19 21  2  0
 21 23  1  0
 23 25  2  0
 25 16  1  0
 12 13  1  0
 12 14  1  0
 12 15  1  0
 17 18  1  0
 19 20  1  0
 21 22  1  0
 23 24  1  0
 25 26  1  0
M  CHG  1   8   1
M  END
>  <PDB_ID>  (2534) 
pdb4qwn

>  <RESIDUE_NAME>  (2534) 
LYS   PHE

>  <FRAG_NAME>  (2534) 
ETAM   MBZ

>  <FRAG_ATOM_NUM>  (2534) 
fragi: 11  fragj: 15

>  <atom.prop.CHAIN_ID>  (2534) 
A A A A A A A A A A A Z Z Z Z Z Z Z Z Z Z Z Z Z Z Z

>  <atom.prop.IS_HEAVY_ATOM>  (2534) 
1 0 0 0 1 0 0 1 0 0 0 1 0 0 0 1 1 0 1 0 1 0 1 0 1 0

>  <DIFUSE_FUNC_ATOM>  (2534) 
n/a

>  <FINAL_SINGLE_POINT_ENERGY>  (2534) 
0

>  <NONCOV_INTER_ENERGY_QM>  (2534) 
0

>  <FF_Energy>  (2534) 
-2.3

>  <QM_Energy>  (2534) 
-7.42

>  <source>  (2534) 
ETAM_MBZ

>  <Index>  (2534) 
26802

$$$$
ETAM-pdb3sxq-B-LYS-358:MBZ-pdb3sxq-B-PHE-109
     RDKit          3D

 26 25  0  0  0  0  0  0  0  0999 V2000
   -0.3671    0.7183   -4.7389 C   0  0  0  0  0  0  0  0  0  0  0  0
    0.2951    0.7652   -5.4758 H   0  0  0  0  0  0  0  0  0  0  0  0
   -0.9517    1.5192   -4.7364 H   0  0  0  0  0  0  0  0  0  0  0  0
   -0.9874   -0.1660   -4.8854 H   0  0  0  0  0  0  0  0  0  0  0  0
    0.4080    0.6804   -3.3921 C   0  0  0  0  0  0  0  0  0  0  0  0
    0.6366    1.6198   -3.1378 H   0  0  0  0  0  0  0  0  0  0  0  0
   -0.1930    0.2848   -2.6977 H   0  0  0  0  0  0  0  0  0  0  0  0
    1.6621   -0.1308   -3.4892 N   0  0  0  0  0  4  0  0  0  0  0  0
    1.5178   -0.8818   -4.1311 H   0  0  0  0  0  0  0  0  0  0  0  0
    2.4046    0.4520   -3.8133 H   0  0  0  0  0  0  0  0  0  0  0  0
    1.8869   -0.4949   -2.5877 H   0  0  0  0  0  0  0  0  0  0  0  0
   -0.0004    2.9201   -0.0569 C   0  0  0  0  0  0  0  0  0  0  0  0
   -0.3063    3.1918   -0.9572 H   0  0  0  0  0  0  0  0  0  0  0  0
    0.9199    3.2355    0.1201 H   0  0  0  0  0  0  0  0  0  0  0  0
   -0.6574    3.3951    0.6716 H   0  0  0  0  0  0  0  0  0  0  0  0
    0.0009    1.4172    0.0028 C   0  0  0  0  0  0  0  0  0  0  0  0
   -1.2029    0.7022   -0.0145 C   0  0  0  0  0  0  0  0  0  0  0  0
   -2.0704    1.1839   -0.0389 H   0  0  0  0  0  0  0  0  0  0  0  0
   -1.2172   -0.7195   -0.0000 C   0  0  0  0  0  0  0  0  0  0  0  0
   -2.0944   -1.1946    0.0022 H   0  0  0  0  0  0  0  0  0  0  0  0
   -0.0125   -1.4178    0.0129 C   0  0  0  0  0  0  0  0  0  0  0  0
    0.0061   -2.4047    0.0304 H   0  0  0  0  0  0  0  0  0  0  0  0
    1.2172   -0.6883   -0.0000 C   0  0  0  0  0  0  0  0  0  0  0  0
    2.0893   -1.1963   -0.0071 H   0  0  0  0  0  0  0  0  0  0  0  0
    1.2145    0.7062   -0.0011 C   0  0  0  0  0  0  0  0  0  0  0  0
    2.0740    1.2065   -0.0058 H   0  0  0  0  0  0  0  0  0  0  0  0
  1  5  1  0
  5  8  1  0
  1  2  1  0
  1  3  1  0
  1  4  1  0
  5  6  1  0
  5  7  1  0
  8  9  1  0
  8 10  1  0
  8 11  1  0
 12 16  1  0
 16 17  2  0
 17 19  1  0
 19 21  2  0
 21 23  1  0
 23 25  2  0
 25 16  1  0
 12 13  1  0
 12 14  1  0
 12 15  1  0
 17 18  1  0
 19 20  1  0
 21 22  1  0
 23 24  1  0
 25 26  1  0
M  CHG  1   8   1
M  END
>  <PDB_ID>  (2535) 
pdb3sxq

>  <RESIDUE_NAME>  (2535) 
LYS   PHE

>  <FRAG_NAME>  (2535) 
ETAM   MBZ

>  <FRAG_ATOM_NUM>  (2535) 
fragi: 11  fragj: 15

>  <atom.prop.CHAIN_ID>  (2535) 
A A A A A A A A A A A Z Z Z Z Z Z Z Z Z Z Z Z Z Z Z

>  <atom.prop.IS_HEAVY_ATOM>  (2535) 
1 0 0 0 1 0 0 1 0 0 0 1 0 0 0 1 1 0 1 0 1 0 1 0 1 0

>  <DIFUSE_FUNC_ATOM>  (2535) 
n/a

>  <FINAL_SINGLE_POINT_ENERGY>  (2535) 
0

>  <NONCOV_INTER_ENERGY_QM>  (2535) 
0

>  <FF_Energy>  (2535) 
-6.73

>  <QM_Energy>  (2535) 
-13.1

>  <source>  (2535) 
ETAM_MBZ

>  <Index>  (2535) 
26804

$$$$
ETAM-pdb3sz7-A-LYS-230:MBZ-pdb3sz7-A-PHE-193
     RDKit          3D

 26 25  0  0  0  0  0  0  0  0999 V2000
    1.3497   -4.6111   -2.4368 C   0  0  0  0  0  0  0  0  0  0  0  0
    0.7987   -4.0645   -3.0509 H   0  0  0  0  0  0  0  0  0  0  0  0
    1.5870   -5.4797   -2.8459 H   0  0  0  0  0  0  0  0  0  0  0  0
    2.2625   -4.0673   -2.1936 H   0  0  0  0  0  0  0  0  0  0  0  0
    0.5369   -4.8801   -1.1695 C   0  0  0  0  0  0  0  0  0  0  0  0
    0.7064   -5.8282   -0.8729 H   0  0  0  0  0  0  0  0  0  0  0  0
    0.8601   -4.2611   -0.4421 H   0  0  0  0  0  0  0  0  0  0  0  0
   -0.9307   -4.6844   -1.3594 N   0  0  0  0  0  4  0  0  0  0  0  0
   -1.2255   -3.8806   -0.8448 H   0  0  0  0  0  0  0  0  0  0  0  0
   -1.1222   -4.5507   -2.3305 H   0  0  0  0  0  0  0  0  0  0  0  0
   -1.4161   -5.4920   -1.0281 H   0  0  0  0  0  0  0  0  0  0  0  0
    0.0151    2.8942   -0.0055 C   0  0  0  0  0  0  0  0  0  0  0  0
    0.8977    3.1962    0.3225 H   0  0  0  0  0  0  0  0  0  0  0  0
   -0.7133    3.2082    0.5848 H   0  0  0  0  0  0  0  0  0  0  0  0
   -0.1425    3.3377   -0.9887 H   0  0  0  0  0  0  0  0  0  0  0  0
    0.0043    1.3940   -0.0049 C   0  0  0  0  0  0  0  0  0  0  0  0
   -1.1933    0.6932   -0.0030 C   0  0  0  0  0  0  0  0  0  0  0  0
   -2.0573    1.1878   -0.0053 H   0  0  0  0  0  0  0  0  0  0  0  0
   -1.1958   -0.6880    0.0000 C   0  0  0  0  0  0  0  0  0  0  0  0
   -2.0765   -1.1845   -0.0012 H   0  0  0  0  0  0  0  0  0  0  0  0
   -0.0025   -1.3853    0.0061 C   0  0  0  0  0  0  0  0  0  0  0  0
   -0.0113   -2.3871    0.0141 H   0  0  0  0  0  0  0  0  0  0  0  0
    1.1958   -0.6997    0.0000 C   0  0  0  0  0  0  0  0  0  0  0  0
    2.0764   -1.1995   -0.0043 H   0  0  0  0  0  0  0  0  0  0  0  0
    1.1915    0.6858    0.0018 C   0  0  0  0  0  0  0  0  0  0  0  0
    2.0642    1.1813    0.0075 H   0  0  0  0  0  0  0  0  0  0  0  0
  1  5  1  0
  5  8  1  0
  1  2  1  0
  1  3  1  0
  1  4  1  0
  5  6  1  0
  5  7  1  0
  8  9  1  0
  8 10  1  0
  8 11  1  0
 12 16  1  0
 16 17  2  0
 17 19  1  0
 19 21  2  0
 21 23  1  0
 23 25  2  0
 25 16  1  0
 12 13  1  0
 12 14  1  0
 12 15  1  0
 17 18  1  0
 19 20  1  0
 21 22  1  0
 23 24  1  0
 25 26  1  0
M  CHG  1   8   1
M  END
>  <PDB_ID>  (2536) 
pdb3sz7

>  <RESIDUE_NAME>  (2536) 
LYS   PHE

>  <FRAG_NAME>  (2536) 
ETAM   MBZ

>  <FRAG_ATOM_NUM>  (2536) 
fragi: 11  fragj: 15

>  <atom.prop.CHAIN_ID>  (2536) 
A A A A A A A A A A A Z Z Z Z Z Z Z Z Z Z Z Z Z Z Z

>  <atom.prop.IS_HEAVY_ATOM>  (2536) 
1 0 0 0 1 0 0 1 0 0 0 1 0 0 0 1 1 0 1 0 1 0 1 0 1 0

>  <DIFUSE_FUNC_ATOM>  (2536) 
n/a

>  <FINAL_SINGLE_POINT_ENERGY>  (2536) 
0

>  <NONCOV_INTER_ENERGY_QM>  (2536) 
0

>  <FF_Energy>  (2536) 
0.99

>  <QM_Energy>  (2536) 
-4.26

>  <source>  (2536) 
ETAM_MBZ

>  <Index>  (2536) 
26817

$$$$
ETAM-pdb3sr7-D-LYS-296:MBZ-pdb3sr7-D-PHE-53
     RDKit          3D

 26 25  0  0  0  0  0  0  0  0999 V2000
   -1.4124   -1.7426    3.2416 C   0  0  0  0  0  0  0  0  0  0  0  0
   -1.4954   -2.5511    3.8220 H   0  0  0  0  0  0  0  0  0  0  0  0
   -1.5926   -1.9895    2.2913 H   0  0  0  0  0  0  0  0  0  0  0  0
   -2.1496   -1.0054    3.5596 H   0  0  0  0  0  0  0  0  0  0  0  0
   -0.0004   -1.2144    3.3455 C   0  0  0  0  0  0  0  0  0  0  0  0
    0.1639   -0.5726    2.6062 H   0  0  0  0  0  0  0  0  0  0  0  0
    0.1195   -0.7708    4.2257 H   0  0  0  0  0  0  0  0  0  0  0  0
    0.9425   -2.3503    3.2324 N   0  0  0  0  0  4  0  0  0  0  0  0
    0.7954   -2.9854    3.9919 H   0  0  0  0  0  0  0  0  0  0  0  0
    0.7896   -2.8278    2.3666 H   0  0  0  0  0  0  0  0  0  0  0  0
    1.8837   -2.0097    3.2612 H   0  0  0  0  0  0  0  0  0  0  0  0
   -0.0074    2.9034   -0.0119 C   0  0  0  0  0  0  0  0  0  0  0  0
    0.9134    3.2128    0.1627 H   0  0  0  0  0  0  0  0  0  0  0  0
   -0.6336    3.2110    0.6865 H   0  0  0  0  0  0  0  0  0  0  0  0
   -0.3289    3.3315   -0.9613 H   0  0  0  0  0  0  0  0  0  0  0  0
   -0.0032    1.3980   -0.0023 C   0  0  0  0  0  0  0  0  0  0  0  0
   -1.1937    0.6922    0.0015 C   0  0  0  0  0  0  0  0  0  0  0  0
   -2.0633    1.1770    0.0044 H   0  0  0  0  0  0  0  0  0  0  0  0
   -1.1946   -0.7017   -0.0000 C   0  0  0  0  0  0  0  0  0  0  0  0
   -2.0706   -1.1944   -0.0034 H   0  0  0  0  0  0  0  0  0  0  0  0
    0.0041   -1.3850    0.0048 C   0  0  0  0  0  0  0  0  0  0  0  0
    0.0029   -2.3901    0.0112 H   0  0  0  0  0  0  0  0  0  0  0  0
    1.1946   -0.6936   -0.0000 C   0  0  0  0  0  0  0  0  0  0  0  0
    2.0797   -1.1915    0.0006 H   0  0  0  0  0  0  0  0  0  0  0  0
    1.1928    0.6902   -0.0039 C   0  0  0  0  0  0  0  0  0  0  0  0
    2.0599    1.1889   -0.0088 H   0  0  0  0  0  0  0  0  0  0  0  0
  1  5  1  0
  5  8  1  0
  1  2  1  0
  1  3  1  0
  1  4  1  0
  5  6  1  0
  5  7  1  0
  8  9  1  0
  8 10  1  0
  8 11  1  0
 12 16  1  0
 16 17  2  0
 17 19  1  0
 19 21  2  0
 21 23  1  0
 23 25  2  0
 25 16  1  0
 12 13  1  0
 12 14  1  0
 12 15  1  0
 17 18  1  0
 19 20  1  0
 21 22  1  0
 23 24  1  0
 25 26  1  0
M  CHG  1   8   1
M  END
>  <PDB_ID>  (2537) 
pdb3sr7

>  <RESIDUE_NAME>  (2537) 
LYS   PHE

>  <FRAG_NAME>  (2537) 
ETAM   MBZ

>  <FRAG_ATOM_NUM>  (2537) 
fragi: 11  fragj: 15

>  <atom.prop.CHAIN_ID>  (2537) 
A A A A A A A A A A A Z Z Z Z Z Z Z Z Z Z Z Z Z Z Z

>  <atom.prop.IS_HEAVY_ATOM>  (2537) 
1 0 0 0 1 0 0 1 0 0 0 1 0 0 0 1 1 0 1 0 1 0 1 0 1 0

>  <DIFUSE_FUNC_ATOM>  (2537) 
n/a

>  <FINAL_SINGLE_POINT_ENERGY>  (2537) 
0

>  <NONCOV_INTER_ENERGY_QM>  (2537) 
0

>  <FF_Energy>  (2537) 
-3.74

>  <QM_Energy>  (2537) 
-11.0

>  <source>  (2537) 
ETAM_MBZ

>  <Index>  (2537) 
26851

$$$$
ETAM-pdb4r3u-A-LYS-30:MBZ-pdb4r3u-A-PHE-27
     RDKit          3D

 26 25  0  0  0  0  0  0  0  0999 V2000
    0.3561    0.3433    4.3158 C   0  0  0  0  0  0  0  0  0  0  0  0
    0.5576    0.6806    3.3893 H   0  0  0  0  0  0  0  0  0  0  0  0
    1.1895   -0.0801    4.6897 H   0  0  0  0  0  0  0  0  0  0  0  0
    0.1064    1.2020    4.9389 H   0  0  0  0  0  0  0  0  0  0  0  0
   -0.7288   -0.7012    4.2314 C   0  0  0  0  0  0  0  0  0  0  0  0
   -1.0616   -0.9053    5.1522 H   0  0  0  0  0  0  0  0  0  0  0  0
   -1.4830   -0.3492    3.6763 H   0  0  0  0  0  0  0  0  0  0  0  0
   -0.2071   -1.9439    3.6136 N   0  0  0  0  0  4  0  0  0  0  0  0
   -0.9677   -2.5643    3.4176 H   0  0  0  0  0  0  0  0  0  0  0  0
    0.2679   -1.7200    2.7618 H   0  0  0  0  0  0  0  0  0  0  0  0
    0.4307   -2.3887    4.2433 H   0  0  0  0  0  0  0  0  0  0  0  0
    0.0064    2.9228    0.0372 C   0  0  0  0  0  0  0  0  0  0  0  0
   -0.6335    3.2518   -0.6273 H   0  0  0  0  0  0  0  0  0  0  0  0
    0.9211    3.2323   -0.1282 H   0  0  0  0  0  0  0  0  0  0  0  0
   -0.3008    3.3089    1.0091 H   0  0  0  0  0  0  0  0  0  0  0  0
    0.0025    1.4098   -0.0090 C   0  0  0  0  0  0  0  0  0  0  0  0
   -1.1967    0.6964    0.0056 C   0  0  0  0  0  0  0  0  0  0  0  0
   -2.0629    1.1801    0.0192 H   0  0  0  0  0  0  0  0  0  0  0  0
   -1.1962   -0.7057    0.0000 C   0  0  0  0  0  0  0  0  0  0  0  0
   -2.0765   -1.1937   -0.0187 H   0  0  0  0  0  0  0  0  0  0  0  0
   -0.0024   -1.3954    0.0219 C   0  0  0  0  0  0  0  0  0  0  0  0
   -0.0022   -2.3964    0.0529 H   0  0  0  0  0  0  0  0  0  0  0  0
    1.1962   -0.7009   -0.0000 C   0  0  0  0  0  0  0  0  0  0  0  0
    2.0792   -1.1968   -0.0011 H   0  0  0  0  0  0  0  0  0  0  0  0
    1.1966    0.6959   -0.0186 C   0  0  0  0  0  0  0  0  0  0  0  0
    2.0668    1.1862   -0.0393 H   0  0  0  0  0  0  0  0  0  0  0  0
  1  5  1  0
  5  8  1  0
  1  2  1  0
  1  3  1  0
  1  4  1  0
  5  6  1  0
  5  7  1  0
  8  9  1  0
  8 10  1  0
  8 11  1  0
 12 16  1  0
 16 17  2  0
 17 19  1  0
 19 21  2  0
 21 23  1  0
 23 25  2  0
 25 16  1  0
 12 13  1  0
 12 14  1  0
 12 15  1  0
 17 18  1  0
 19 20  1  0
 21 22  1  0
 23 24  1  0
 25 26  1  0
M  CHG  1   8   1
M  END
>  <PDB_ID>  (2538) 
pdb4r3u

>  <RESIDUE_NAME>  (2538) 
LYS   PHE

>  <FRAG_NAME>  (2538) 
ETAM   MBZ

>  <FRAG_ATOM_NUM>  (2538) 
fragi: 11  fragj: 15

>  <atom.prop.CHAIN_ID>  (2538) 
A A A A A A A A A A A Z Z Z Z Z Z Z Z Z Z Z Z Z Z Z

>  <atom.prop.IS_HEAVY_ATOM>  (2538) 
1 0 0 0 1 0 0 1 0 0 0 1 0 0 0 1 1 0 1 0 1 0 1 0 1 0

>  <DIFUSE_FUNC_ATOM>  (2538) 
n/a

>  <FINAL_SINGLE_POINT_ENERGY>  (2538) 
0

>  <NONCOV_INTER_ENERGY_QM>  (2538) 
0

>  <FF_Energy>  (2538) 
-5.48

>  <QM_Energy>  (2538) 
-11.66

>  <source>  (2538) 
ETAM_MBZ

>  <Index>  (2538) 
26896

$$$$
ETAM-pdb4r3u-B-LYS-30:MBZ-pdb4r3u-B-PHE-27
     RDKit          3D

 26 25  0  0  0  0  0  0  0  0999 V2000
    0.4114    0.2812    4.3196 C   0  0  0  0  0  0  0  0  0  0  0  0
    0.6066    0.6237    3.3879 H   0  0  0  0  0  0  0  0  0  0  0  0
    1.2505   -0.1644    4.6651 H   0  0  0  0  0  0  0  0  0  0  0  0
    0.1999    1.1406    4.9558 H   0  0  0  0  0  0  0  0  0  0  0  0
   -0.6864   -0.7426    4.2421 C   0  0  0  0  0  0  0  0  0  0  0  0
   -0.9958   -0.9687    5.1678 H   0  0  0  0  0  0  0  0  0  0  0  0
   -1.4559   -0.3669    3.7219 H   0  0  0  0  0  0  0  0  0  0  0  0
   -0.2095   -1.9805    3.5746 N   0  0  0  0  0  4  0  0  0  0  0  0
   -0.7268   -2.1246    2.7303 H   0  0  0  0  0  0  0  0  0  0  0  0
    0.7633   -1.8897    3.3585 H   0  0  0  0  0  0  0  0  0  0  0  0
   -0.3436   -2.7607    4.1855 H   0  0  0  0  0  0  0  0  0  0  0  0
    0.0037    2.9256    0.0522 C   0  0  0  0  0  0  0  0  0  0  0  0
   -0.6590    3.2513   -0.5939 H   0  0  0  0  0  0  0  0  0  0  0  0
    0.9133    3.2329   -0.1521 H   0  0  0  0  0  0  0  0  0  0  0  0
   -0.2676    3.3119    1.0347 H   0  0  0  0  0  0  0  0  0  0  0  0
   -0.0002    1.4102    0.0003 C   0  0  0  0  0  0  0  0  0  0  0  0
   -1.1988    0.6986    0.0056 C   0  0  0  0  0  0  0  0  0  0  0  0
   -2.0650    1.1831    0.0119 H   0  0  0  0  0  0  0  0  0  0  0  0
   -1.1986   -0.7012    0.0000 C   0  0  0  0  0  0  0  0  0  0  0  0
   -2.0757   -1.1928   -0.0079 H   0  0  0  0  0  0  0  0  0  0  0  0
    0.0028   -1.3942    0.0072 C   0  0  0  0  0  0  0  0  0  0  0  0
   -0.0057   -2.3965    0.0174 H   0  0  0  0  0  0  0  0  0  0  0  0
    1.1986   -0.7065   -0.0000 C   0  0  0  0  0  0  0  0  0  0  0  0
    2.0818   -1.1984    0.0053 H   0  0  0  0  0  0  0  0  0  0  0  0
    1.1962    0.6930   -0.0131 C   0  0  0  0  0  0  0  0  0  0  0  0
    2.0659    1.1844   -0.0331 H   0  0  0  0  0  0  0  0  0  0  0  0
  1  5  1  0
  5  8  1  0
  1  2  1  0
  1  3  1  0
  1  4  1  0
  5  6  1  0
  5  7  1  0
  8  9  1  0
  8 10  1  0
  8 11  1  0
 12 16  1  0
 16 17  2  0
 17 19  1  0
 19 21  2  0
 21 23  1  0
 23 25  2  0
 25 16  1  0
 12 13  1  0
 12 14  1  0
 12 15  1  0
 17 18  1  0
 19 20  1  0
 21 22  1  0
 23 24  1  0
 25 26  1  0
M  CHG  1   8   1
M  END
>  <PDB_ID>  (2539) 
pdb4r3u

>  <RESIDUE_NAME>  (2539) 
LYS   PHE

>  <FRAG_NAME>  (2539) 
ETAM   MBZ

>  <FRAG_ATOM_NUM>  (2539) 
fragi: 11  fragj: 15

>  <atom.prop.CHAIN_ID>  (2539) 
A A A A A A A A A A A Z Z Z Z Z Z Z Z Z Z Z Z Z Z Z

>  <atom.prop.IS_HEAVY_ATOM>  (2539) 
1 0 0 0 1 0 0 1 0 0 0 1 0 0 0 1 1 0 1 0 1 0 1 0 1 0

>  <DIFUSE_FUNC_ATOM>  (2539) 
n/a

>  <FINAL_SINGLE_POINT_ENERGY>  (2539) 
0

>  <NONCOV_INTER_ENERGY_QM>  (2539) 
0

>  <FF_Energy>  (2539) 
-5.24

>  <QM_Energy>  (2539) 
-11.15

>  <source>  (2539) 
ETAM_MBZ

>  <Index>  (2539) 
26899

$$$$
ETAM-pdb4qy0-D-LYS-447:MBZ-pdb4qy0-B-PHE-332
     RDKit          3D

 26 25  0  0  0  0  0  0  0  0999 V2000
    0.2682    0.6757   -5.1996 C   0  0  0  0  0  0  0  0  0  0  0  0
    0.8787    1.3208   -4.7600 H   0  0  0  0  0  0  0  0  0  0  0  0
   -0.6775    0.8764   -4.9800 H   0  0  0  0  0  0  0  0  0  0  0  0
    0.4037    0.7383   -6.2793 H   0  0  0  0  0  0  0  0  0  0  0  0
    0.5962   -0.7220   -4.7017 C   0  0  0  0  0  0  0  0  0  0  0  0
   -0.1670   -1.3369   -4.9306 H   0  0  0  0  0  0  0  0  0  0  0  0
    1.4218   -1.0505   -5.1735 H   0  0  0  0  0  0  0  0  0  0  0  0
    0.8286   -0.7639   -3.2296 N   0  0  0  0  0  4  0  0  0  0  0  0
   -0.0493   -0.8426   -2.7583 H   0  0  0  0  0  0  0  0  0  0  0  0
    1.4010   -1.5526   -3.0075 H   0  0  0  0  0  0  0  0  0  0  0  0
    1.2889    0.0754   -2.9438 H   0  0  0  0  0  0  0  0  0  0  0  0
    0.0142    2.9049   -0.0146 C   0  0  0  0  0  0  0  0  0  0  0  0
   -0.6458    3.2063   -0.6907 H   0  0  0  0  0  0  0  0  0  0  0  0
    0.9287    3.1983   -0.2582 H   0  0  0  0  0  0  0  0  0  0  0  0
   -0.2431    3.3816    0.9312 H   0  0  0  0  0  0  0  0  0  0  0  0
   -0.0002    1.3984    0.0119 C   0  0  0  0  0  0  0  0  0  0  0  0
   -1.1979    0.6886   -0.0067 C   0  0  0  0  0  0  0  0  0  0  0  0
   -2.0639    1.1790   -0.0260 H   0  0  0  0  0  0  0  0  0  0  0  0
   -1.2005   -0.7006   -0.0000 C   0  0  0  0  0  0  0  0  0  0  0  0
   -2.0731   -1.1982    0.0057 H   0  0  0  0  0  0  0  0  0  0  0  0
    0.0059   -1.3898    0.0004 C   0  0  0  0  0  0  0  0  0  0  0  0
    0.0057   -2.3894    0.0008 H   0  0  0  0  0  0  0  0  0  0  0  0
    1.2005   -0.6893    0.0000 C   0  0  0  0  0  0  0  0  0  0  0  0
    2.0854   -1.1869    0.0055 H   0  0  0  0  0  0  0  0  0  0  0  0
    1.1922    0.6928   -0.0057 C   0  0  0  0  0  0  0  0  0  0  0  0
    2.0617    1.1939   -0.0235 H   0  0  0  0  0  0  0  0  0  0  0  0
  1  5  1  0
  5  8  1  0
  1  2  1  0
  1  3  1  0
  1  4  1  0
  5  6  1  0
  5  7  1  0
  8  9  1  0
  8 10  1  0
  8 11  1  0
 12 16  1  0
 16 17  2  0
 17 19  1  0
 19 21  2  0
 21 23  1  0
 23 25  2  0
 25 16  1  0
 12 13  1  0
 12 14  1  0
 12 15  1  0
 17 18  1  0
 19 20  1  0
 21 22  1  0
 23 24  1  0
 25 26  1  0
M  CHG  1   8   1
M  END
>  <PDB_ID>  (2540) 
pdb4qy0

>  <RESIDUE_NAME>  (2540) 
LYS   PHE

>  <FRAG_NAME>  (2540) 
ETAM   MBZ

>  <FRAG_ATOM_NUM>  (2540) 
fragi: 11  fragj: 15

>  <atom.prop.CHAIN_ID>  (2540) 
A A A A A A A A A A A Z Z Z Z Z Z Z Z Z Z Z Z Z Z Z

>  <atom.prop.IS_HEAVY_ATOM>  (2540) 
1 0 0 0 1 0 0 1 0 0 0 1 0 0 0 1 1 0 1 0 1 0 1 0 1 0

>  <DIFUSE_FUNC_ATOM>  (2540) 
n/a

>  <FINAL_SINGLE_POINT_ENERGY>  (2540) 
0

>  <NONCOV_INTER_ENERGY_QM>  (2540) 
0

>  <FF_Energy>  (2540) 
-7.11

>  <QM_Energy>  (2540) 
-13.89

>  <source>  (2540) 
ETAM_MBZ

>  <Index>  (2540) 
26923

$$$$
ETAM-pdb3t5n-A-LYS-189:MBZ-pdb3t5n-A-PHE-44
     RDKit          3D

 26 25  0  0  0  0  0  0  0  0999 V2000
    2.1540    1.1689   -3.4990 C   0  0  0  0  0  0  0  0  0  0  0  0
    1.9551    1.7807   -2.7317 H   0  0  0  0  0  0  0  0  0  0  0  0
    1.4140    0.5020   -3.5899 H   0  0  0  0  0  0  0  0  0  0  0  0
    2.2064    1.7607   -4.4128 H   0  0  0  0  0  0  0  0  0  0  0  0
    3.4388    0.4297   -3.2089 C   0  0  0  0  0  0  0  0  0  0  0  0
    3.6419   -0.1870   -3.9697 H   0  0  0  0  0  0  0  0  0  0  0  0
    4.1844    1.0908   -3.1109 H   0  0  0  0  0  0  0  0  0  0  0  0
    3.3206   -0.3598   -1.9573 N   0  0  0  0  0  4  0  0  0  0  0  0
    3.9204    0.0299   -1.2584 H   0  0  0  0  0  0  0  0  0  0  0  0
    2.3735   -0.3350   -1.6352 H   0  0  0  0  0  0  0  0  0  0  0  0
    3.5873   -1.3077   -2.1345 H   0  0  0  0  0  0  0  0  0  0  0  0
    0.0082    2.8879    0.0342 C   0  0  0  0  0  0  0  0  0  0  0  0
   -0.8488    3.2118   -0.3293 H   0  0  0  0  0  0  0  0  0  0  0  0
    0.7760    3.2065   -0.4948 H   0  0  0  0  0  0  0  0  0  0  0  0
    0.1122    3.2865    1.0433 H   0  0  0  0  0  0  0  0  0  0  0  0
   -0.0004    1.3927   -0.0034 C   0  0  0  0  0  0  0  0  0  0  0  0
   -1.1904    0.6946    0.0050 C   0  0  0  0  0  0  0  0  0  0  0  0
   -2.0575    1.1840    0.0135 H   0  0  0  0  0  0  0  0  0  0  0  0
   -1.1938   -0.6903    0.0000 C   0  0  0  0  0  0  0  0  0  0  0  0
   -2.0721   -1.1850    0.0004 H   0  0  0  0  0  0  0  0  0  0  0  0
    0.0017   -1.3853   -0.0024 C   0  0  0  0  0  0  0  0  0  0  0  0
   -0.0069   -2.3869   -0.0065 H   0  0  0  0  0  0  0  0  0  0  0  0
    1.1938   -0.6972   -0.0000 C   0  0  0  0  0  0  0  0  0  0  0  0
    2.0773   -1.1956    0.0011 H   0  0  0  0  0  0  0  0  0  0  0  0
    1.1891    0.6855    0.0008 C   0  0  0  0  0  0  0  0  0  0  0  0
    2.0607    1.1828    0.0042 H   0  0  0  0  0  0  0  0  0  0  0  0
  1  5  1  0
  5  8  1  0
  1  2  1  0
  1  3  1  0
  1  4  1  0
  5  6  1  0
  5  7  1  0
  8  9  1  0
  8 10  1  0
  8 11  1  0
 12 16  1  0
 16 17  2  0
 17 19  1  0
 19 21  2  0
 21 23  1  0
 23 25  2  0
 25 16  1  0
 12 13  1  0
 12 14  1  0
 12 15  1  0
 17 18  1  0
 19 20  1  0
 21 22  1  0
 23 24  1  0
 25 26  1  0
M  CHG  1   8   1
M  END
>  <PDB_ID>  (2541) 
pdb3t5n

>  <RESIDUE_NAME>  (2541) 
LYS   PHE

>  <FRAG_NAME>  (2541) 
ETAM   MBZ

>  <FRAG_ATOM_NUM>  (2541) 
fragi: 11  fragj: 15

>  <atom.prop.CHAIN_ID>  (2541) 
A A A A A A A A A A A Z Z Z Z Z Z Z Z Z Z Z Z Z Z Z

>  <atom.prop.IS_HEAVY_ATOM>  (2541) 
1 0 0 0 1 0 0 1 0 0 0 1 0 0 0 1 1 0 1 0 1 0 1 0 1 0

>  <DIFUSE_FUNC_ATOM>  (2541) 
n/a

>  <FINAL_SINGLE_POINT_ENERGY>  (2541) 
0

>  <NONCOV_INTER_ENERGY_QM>  (2541) 
0

>  <FF_Energy>  (2541) 
0.86

>  <QM_Energy>  (2541) 
-7.78

>  <source>  (2541) 
ETAM_MBZ

>  <Index>  (2541) 
26925

$$$$
ETAM-pdb4r83-A-LYS-338:MBZ-pdb4r83-A-PHE-319
     RDKit          3D

 26 25  0  0  0  0  0  0  0  0999 V2000
    2.5650   -4.3314   -2.3142 C   0  0  0  0  0  0  0  0  0  0  0  0
    2.0648   -3.5671   -2.7002 H   0  0  0  0  0  0  0  0  0  0  0  0
    2.1091   -4.6791   -1.5057 H   0  0  0  0  0  0  0  0  0  0  0  0
    2.6252   -5.1264   -3.0574 H   0  0  0  0  0  0  0  0  0  0  0  0
    3.9522   -3.8597   -1.9264 C   0  0  0  0  0  0  0  0  0  0  0  0
    4.4923   -4.6495   -1.6241 H   0  0  0  0  0  0  0  0  0  0  0  0
    4.3955   -3.4521   -2.7294 H   0  0  0  0  0  0  0  0  0  0  0  0
    3.9026   -2.8548   -0.8343 N   0  0  0  0  0  4  0  0  0  0  0  0
    3.1366   -2.2304   -0.9906 H   0  0  0  0  0  0  0  0  0  0  0  0
    3.7797   -3.3210    0.0419 H   0  0  0  0  0  0  0  0  0  0  0  0
    4.7583   -2.3371   -0.8195 H   0  0  0  0  0  0  0  0  0  0  0  0
    0.0026    2.9118   -0.0162 C   0  0  0  0  0  0  0  0  0  0  0  0
   -0.7794    3.2113   -0.5440 H   0  0  0  0  0  0  0  0  0  0  0  0
    0.8506    3.2067   -0.4333 H   0  0  0  0  0  0  0  0  0  0  0  0
   -0.0631    3.3670    0.9720 H   0  0  0  0  0  0  0  0  0  0  0  0
   -0.0024    1.4011   -0.0016 C   0  0  0  0  0  0  0  0  0  0  0  0
   -1.1896    0.6961    0.0015 C   0  0  0  0  0  0  0  0  0  0  0  0
   -2.0604    1.1822    0.0032 H   0  0  0  0  0  0  0  0  0  0  0  0
   -1.1922   -0.6929    0.0000 C   0  0  0  0  0  0  0  0  0  0  0  0
   -2.0722   -1.1862   -0.0040 H   0  0  0  0  0  0  0  0  0  0  0  0
    0.0035   -1.3913    0.0057 C   0  0  0  0  0  0  0  0  0  0  0  0
   -0.0071   -2.3916    0.0131 H   0  0  0  0  0  0  0  0  0  0  0  0
    1.1922   -0.7028    0.0000 C   0  0  0  0  0  0  0  0  0  0  0  0
    2.0793   -1.1952    0.0013 H   0  0  0  0  0  0  0  0  0  0  0  0
    1.1886    0.6898   -0.0057 C   0  0  0  0  0  0  0  0  0  0  0  0
    2.0602    1.1829   -0.0135 H   0  0  0  0  0  0  0  0  0  0  0  0
  1  5  1  0
  5  8  1  0
  1  2  1  0
  1  3  1  0
  1  4  1  0
  5  6  1  0
  5  7  1  0
  8  9  1  0
  8 10  1  0
  8 11  1  0
 12 16  1  0
 16 17  2  0
 17 19  1  0
 19 21  2  0
 21 23  1  0
 23 25  2  0
 25 16  1  0
 12 13  1  0
 12 14  1  0
 12 15  1  0
 17 18  1  0
 19 20  1  0
 21 22  1  0
 23 24  1  0
 25 26  1  0
M  CHG  1   8   1
M  END
>  <PDB_ID>  (2542) 
pdb4r83

>  <RESIDUE_NAME>  (2542) 
LYS   PHE

>  <FRAG_NAME>  (2542) 
ETAM   MBZ

>  <FRAG_ATOM_NUM>  (2542) 
fragi: 11  fragj: 15

>  <atom.prop.CHAIN_ID>  (2542) 
A A A A A A A A A A A Z Z Z Z Z Z Z Z Z Z Z Z Z Z Z

>  <atom.prop.IS_HEAVY_ATOM>  (2542) 
1 0 0 0 1 0 0 1 0 0 0 1 0 0 0 1 1 0 1 0 1 0 1 0 1 0

>  <DIFUSE_FUNC_ATOM>  (2542) 
n/a

>  <FINAL_SINGLE_POINT_ENERGY>  (2542) 
0

>  <NONCOV_INTER_ENERGY_QM>  (2542) 
0

>  <FF_Energy>  (2542) 
1.64

>  <QM_Energy>  (2542) 
-3.43

>  <source>  (2542) 
ETAM_MBZ

>  <Index>  (2542) 
26951

$$$$
ETAM-pdb3t90-A-LYS-98:MBZ-pdb3t90-A-PHE-5
     RDKit          3D

 26 25  0  0  0  0  0  0  0  0999 V2000
    2.3280   -4.0163    2.2035 C   0  0  0  0  0  0  0  0  0  0  0  0
    2.6593   -4.9026    1.9062 H   0  0  0  0  0  0  0  0  0  0  0  0
    1.4265   -3.8335    1.8316 H   0  0  0  0  0  0  0  0  0  0  0  0
    2.2569   -4.0239    3.2911 H   0  0  0  0  0  0  0  0  0  0  0  0
    3.2984   -2.9322    1.6914 C   0  0  0  0  0  0  0  0  0  0  0  0
    2.8933   -2.5227    0.8308 H   0  0  0  0  0  0  0  0  0  0  0  0
    3.2894   -2.1500    2.3697 H   0  0  0  0  0  0  0  0  0  0  0  0
    4.7462   -3.2811    1.4041 N   0  0  0  0  0  4  0  0  0  0  0  0
    4.9761   -4.1128    1.8990 H   0  0  0  0  0  0  0  0  0  0  0  0
    4.8501   -3.4215    0.4241 H   0  0  0  0  0  0  0  0  0  0  0  0
    5.3205   -2.5271    1.7083 H   0  0  0  0  0  0  0  0  0  0  0  0
   -0.0642    2.9330   -0.0768 C   0  0  0  0  0  0  0  0  0  0  0  0
    0.7993    3.2807    0.2343 H   0  0  0  0  0  0  0  0  0  0  0  0
   -0.8164    3.2488    0.4679 H   0  0  0  0  0  0  0  0  0  0  0  0
   -0.2183    3.3019   -1.0908 H   0  0  0  0  0  0  0  0  0  0  0  0
   -0.0256    1.4345   -0.0136 C   0  0  0  0  0  0  0  0  0  0  0  0
   -1.2064    0.6660   -0.0134 C   0  0  0  0  0  0  0  0  0  0  0  0
   -2.0910    1.1622   -0.0250 H   0  0  0  0  0  0  0  0  0  0  0  0
   -1.2150   -0.7067    0.0000 C   0  0  0  0  0  0  0  0  0  0  0  0
   -2.0779   -1.2185   -0.0069 H   0  0  0  0  0  0  0  0  0  0  0  0
    0.0154   -1.4234    0.0257 C   0  0  0  0  0  0  0  0  0  0  0  0
    0.0191   -2.3994    0.0594 H   0  0  0  0  0  0  0  0  0  0  0  0
    1.2150   -0.6806   -0.0000 C   0  0  0  0  0  0  0  0  0  0  0  0
    2.1052   -1.1812   -0.0184 H   0  0  0  0  0  0  0  0  0  0  0  0
    1.2166    0.7102    0.0013 C   0  0  0  0  0  0  0  0  0  0  0  0
    2.0618    1.2206    0.0111 H   0  0  0  0  0  0  0  0  0  0  0  0
  1  5  1  0
  5  8  1  0
  1  2  1  0
  1  3  1  0
  1  4  1  0
  5  6  1  0
  5  7  1  0
  8  9  1  0
  8 10  1  0
  8 11  1  0
 12 16  1  0
 16 17  2  0
 17 19  1  0
 19 21  2  0
 21 23  1  0
 23 25  2  0
 25 16  1  0
 12 13  1  0
 12 14  1  0
 12 15  1  0
 17 18  1  0
 19 20  1  0
 21 22  1  0
 23 24  1  0
 25 26  1  0
M  CHG  1   8   1
M  END
>  <PDB_ID>  (2543) 
pdb3t90

>  <RESIDUE_NAME>  (2543) 
LYS   PHE

>  <FRAG_NAME>  (2543) 
ETAM   MBZ

>  <FRAG_ATOM_NUM>  (2543) 
fragi: 11  fragj: 15

>  <atom.prop.CHAIN_ID>  (2543) 
A A A A A A A A A A A Z Z Z Z Z Z Z Z Z Z Z Z Z Z Z

>  <atom.prop.IS_HEAVY_ATOM>  (2543) 
1 0 0 0 1 0 0 1 0 0 0 1 0 0 0 1 1 0 1 0 1 0 1 0 1 0

>  <DIFUSE_FUNC_ATOM>  (2543) 
n/a

>  <FINAL_SINGLE_POINT_ENERGY>  (2543) 
0

>  <NONCOV_INTER_ENERGY_QM>  (2543) 
0

>  <FF_Energy>  (2543) 
4.72

>  <QM_Energy>  (2543) 
-1.75

>  <source>  (2543) 
ETAM_MBZ

>  <Index>  (2543) 
26974

$$$$
ETAM-pdb4r43-A-LYS-602:MBZ-pdb4r43-A-PHE-598
     RDKit          3D

 26 25  0  0  0  0  0  0  0  0999 V2000
    1.4439   -2.1169    3.5882 C   0  0  0  0  0  0  0  0  0  0  0  0
    1.8421   -3.0440    3.5889 H   0  0  0  0  0  0  0  0  0  0  0  0
    0.8896   -2.0153    2.7521 H   0  0  0  0  0  0  0  0  0  0  0  0
    0.7844   -2.0262    4.4513 H   0  0  0  0  0  0  0  0  0  0  0  0
    2.5985   -1.1011    3.5215 C   0  0  0  0  0  0  0  0  0  0  0  0
    2.2154   -0.1974    3.2690 H   0  0  0  0  0  0  0  0  0  0  0  0
    2.9991   -1.0102    4.4482 H   0  0  0  0  0  0  0  0  0  0  0  0
    3.6970   -1.4476    2.5528 N   0  0  0  0  0  4  0  0  0  0  0  0
    4.0894   -2.3277    2.8103 H   0  0  0  0  0  0  0  0  0  0  0  0
    3.3130   -1.5001    1.6344 H   0  0  0  0  0  0  0  0  0  0  0  0
    4.3965   -0.7386    2.5896 H   0  0  0  0  0  0  0  0  0  0  0  0
   -0.0152    2.8479   -0.0235 C   0  0  0  0  0  0  0  0  0  0  0  0
   -0.5389    3.1512   -0.8129 H   0  0  0  0  0  0  0  0  0  0  0  0
    0.9254    3.1646   -0.0885 H   0  0  0  0  0  0  0  0  0  0  0  0
   -0.4599    3.2924    0.8669 H   0  0  0  0  0  0  0  0  0  0  0  0
   -0.0080    1.3756   -0.0102 C   0  0  0  0  0  0  0  0  0  0  0  0
   -1.1694    0.7029   -0.0006 C   0  0  0  0  0  0  0  0  0  0  0  0
   -2.0472    1.2004    0.0057 H   0  0  0  0  0  0  0  0  0  0  0  0
   -1.1895   -0.6601   -0.0000 C   0  0  0  0  0  0  0  0  0  0  0  0
   -2.0788   -1.1512    0.0173 H   0  0  0  0  0  0  0  0  0  0  0  0
   -0.0120   -1.3757   -0.0213 C   0  0  0  0  0  0  0  0  0  0  0  0
   -0.0371   -2.3766   -0.0523 H   0  0  0  0  0  0  0  0  0  0  0  0
    1.1895   -0.7091    0.0000 C   0  0  0  0  0  0  0  0  0  0  0  0
    2.0642   -1.2157   -0.0059 H   0  0  0  0  0  0  0  0  0  0  0  0
    1.1894    0.6663    0.0321 C   0  0  0  0  0  0  0  0  0  0  0  0
    2.0534    1.1681    0.0858 H   0  0  0  0  0  0  0  0  0  0  0  0
  1  5  1  0
  5  8  1  0
  1  2  1  0
  1  3  1  0
  1  4  1  0
  5  6  1  0
  5  7  1  0
  8  9  1  0
  8 10  1  0
  8 11  1  0
 12 16  1  0
 16 17  2  0
 17 19  1  0
 19 21  2  0
 21 23  1  0
 23 25  2  0
 25 16  1  0
 12 13  1  0
 12 14  1  0
 12 15  1  0
 17 18  1  0
 19 20  1  0
 21 22  1  0
 23 24  1  0
 25 26  1  0
M  CHG  1   8   1
M  END
>  <PDB_ID>  (2544) 
pdb4r43

>  <RESIDUE_NAME>  (2544) 
LYS   PHE

>  <FRAG_NAME>  (2544) 
ETAM   MBZ

>  <FRAG_ATOM_NUM>  (2544) 
fragi: 11  fragj: 15

>  <atom.prop.CHAIN_ID>  (2544) 
A A A A A A A A A A A Z Z Z Z Z Z Z Z Z Z Z Z Z Z Z

>  <atom.prop.IS_HEAVY_ATOM>  (2544) 
1 0 0 0 1 0 0 1 0 0 0 1 0 0 0 1 1 0 1 0 1 0 1 0 1 0

>  <DIFUSE_FUNC_ATOM>  (2544) 
n/a

>  <FINAL_SINGLE_POINT_ENERGY>  (2544) 
0

>  <NONCOV_INTER_ENERGY_QM>  (2544) 
0

>  <FF_Energy>  (2544) 
-1.85

>  <QM_Energy>  (2544) 
-7.02

>  <source>  (2544) 
ETAM_MBZ

>  <Index>  (2544) 
26984

$$$$
ETAM-pdb4r8f-A-LYS-356:MBZ-pdb4r8f-A-PHE-359
     RDKit          3D

 26 25  0  0  0  0  0  0  0  0999 V2000
    2.7689   -3.9964    0.9675 C   0  0  0  0  0  0  0  0  0  0  0  0
    2.6323   -3.1355    0.4789 H   0  0  0  0  0  0  0  0  0  0  0  0
    3.0143   -4.7156    0.3199 H   0  0  0  0  0  0  0  0  0  0  0  0
    3.5858   -3.8698    1.6780 H   0  0  0  0  0  0  0  0  0  0  0  0
    1.4534   -4.3831    1.6411 C   0  0  0  0  0  0  0  0  0  0  0  0
    0.7764   -4.6080    0.9207 H   0  0  0  0  0  0  0  0  0  0  0  0
    1.6047   -5.2267    2.1837 H   0  0  0  0  0  0  0  0  0  0  0  0
    0.8802   -3.3328    2.5322 N   0  0  0  0  0  4  0  0  0  0  0  0
    1.6232   -2.8019    2.9366 H   0  0  0  0  0  0  0  0  0  0  0  0
    0.2902   -2.7305    1.9954 H   0  0  0  0  0  0  0  0  0  0  0  0
    0.3465   -3.7694    3.2557 H   0  0  0  0  0  0  0  0  0  0  0  0
    0.0030    2.8987   -0.0114 C   0  0  0  0  0  0  0  0  0  0  0  0
   -0.6931    3.2013   -0.6474 H   0  0  0  0  0  0  0  0  0  0  0  0
    0.9014    3.2020   -0.2970 H   0  0  0  0  0  0  0  0  0  0  0  0
   -0.2091    3.3607    0.9528 H   0  0  0  0  0  0  0  0  0  0  0  0
    0.0002    1.3975    0.0069 C   0  0  0  0  0  0  0  0  0  0  0  0
   -1.1935    0.6871   -0.0066 C   0  0  0  0  0  0  0  0  0  0  0  0
   -2.0614    1.1790   -0.0225 H   0  0  0  0  0  0  0  0  0  0  0  0
   -1.1956   -0.6947   -0.0000 C   0  0  0  0  0  0  0  0  0  0  0  0
   -2.0744   -1.1921    0.0075 H   0  0  0  0  0  0  0  0  0  0  0  0
    0.0006   -1.3879   -0.0013 C   0  0  0  0  0  0  0  0  0  0  0  0
   -0.0027   -2.3876   -0.0039 H   0  0  0  0  0  0  0  0  0  0  0  0
    1.1956   -0.6924    0.0000 C   0  0  0  0  0  0  0  0  0  0  0  0
    2.0795   -1.1923    0.0014 H   0  0  0  0  0  0  0  0  0  0  0  0
    1.1927    0.6903    0.0010 C   0  0  0  0  0  0  0  0  0  0  0  0
    2.0618    1.1882   -0.0034 H   0  0  0  0  0  0  0  0  0  0  0  0
  1  5  1  0
  5  8  1  0
  1  2  1  0
  1  3  1  0
  1  4  1  0
  5  6  1  0
  5  7  1  0
  8  9  1  0
  8 10  1  0
  8 11  1  0
 12 16  1  0
 16 17  2  0
 17 19  1  0
 19 21  2  0
 21 23  1  0
 23 25  2  0
 25 16  1  0
 12 13  1  0
 12 14  1  0
 12 15  1  0
 17 18  1  0
 19 20  1  0
 21 22  1  0
 23 24  1  0
 25 26  1  0
M  CHG  1   8   1
M  END
>  <PDB_ID>  (2545) 
pdb4r8f

>  <RESIDUE_NAME>  (2545) 
LYS   PHE

>  <FRAG_NAME>  (2545) 
ETAM   MBZ

>  <FRAG_ATOM_NUM>  (2545) 
fragi: 11  fragj: 15

>  <atom.prop.CHAIN_ID>  (2545) 
A A A A A A A A A A A Z Z Z Z Z Z Z Z Z Z Z Z Z Z Z

>  <atom.prop.IS_HEAVY_ATOM>  (2545) 
1 0 0 0 1 0 0 1 0 0 0 1 0 0 0 1 1 0 1 0 1 0 1 0 1 0

>  <DIFUSE_FUNC_ATOM>  (2545) 
n/a

>  <FINAL_SINGLE_POINT_ENERGY>  (2545) 
0

>  <NONCOV_INTER_ENERGY_QM>  (2545) 
0

>  <FF_Energy>  (2545) 
-1.5

>  <QM_Energy>  (2545) 
-9.04

>  <source>  (2545) 
ETAM_MBZ

>  <Index>  (2545) 
26997

$$$$
ETAM-pdb3t9w-A-LYS-249:MBZ-pdb3t9w-A-PHE-257
     RDKit          3D

 26 25  0  0  0  0  0  0  0  0999 V2000
    0.6307    0.0111   -3.2478 C   0  0  0  0  0  0  0  0  0  0  0  0
   -0.2352   -0.0912   -3.7342 H   0  0  0  0  0  0  0  0  0  0  0  0
    0.4695   -0.0210   -2.2631 H   0  0  0  0  0  0  0  0  0  0  0  0
    1.2827   -0.8184   -3.5212 H   0  0  0  0  0  0  0  0  0  0  0  0
    1.2282    1.3639   -3.5987 C   0  0  0  0  0  0  0  0  0  0  0  0
    0.5947    2.0872   -3.2981 H   0  0  0  0  0  0  0  0  0  0  0  0
    2.0956    1.4768   -3.0989 H   0  0  0  0  0  0  0  0  0  0  0  0
    1.4848    1.5172   -5.0568 N   0  0  0  0  0  4  0  0  0  0  0  0
    0.6535    1.8416   -5.5075 H   0  0  0  0  0  0  0  0  0  0  0  0
    2.2212    2.1784   -5.1959 H   0  0  0  0  0  0  0  0  0  0  0  0
    1.7510    0.6335   -5.4406 H   0  0  0  0  0  0  0  0  0  0  0  0
    0.0009    2.9131   -0.0138 C   0  0  0  0  0  0  0  0  0  0  0  0
   -0.7644    3.2173   -0.5630 H   0  0  0  0  0  0  0  0  0  0  0  0
    0.8610    3.2150   -0.3995 H   0  0  0  0  0  0  0  0  0  0  0  0
   -0.0968    3.3761    0.9681 H   0  0  0  0  0  0  0  0  0  0  0  0
   -0.0030    1.4081    0.0041 C   0  0  0  0  0  0  0  0  0  0  0  0
   -1.1987    0.6917   -0.0000 C   0  0  0  0  0  0  0  0  0  0  0  0
   -2.0666    1.1825   -0.0041 H   0  0  0  0  0  0  0  0  0  0  0  0
   -1.2007   -0.6961    0.0000 C   0  0  0  0  0  0  0  0  0  0  0  0
   -2.0767   -1.1932    0.0004 H   0  0  0  0  0  0  0  0  0  0  0  0
    0.0028   -1.3942    0.0015 C   0  0  0  0  0  0  0  0  0  0  0  0
   -0.0069   -2.3942    0.0032 H   0  0  0  0  0  0  0  0  0  0  0  0
    1.2007   -0.7037   -0.0000 C   0  0  0  0  0  0  0  0  0  0  0  0
    2.0835   -1.1978    0.0038 H   0  0  0  0  0  0  0  0  0  0  0  0
    1.1989    0.6942   -0.0055 C   0  0  0  0  0  0  0  0  0  0  0  0
    2.0657    1.1884   -0.0172 H   0  0  0  0  0  0  0  0  0  0  0  0
  1  5  1  0
  5  8  1  0
  1  2  1  0
  1  3  1  0
  1  4  1  0
  5  6  1  0
  5  7  1  0
  8  9  1  0
  8 10  1  0
  8 11  1  0
 12 16  1  0
 16 17  2  0
 17 19  1  0
 19 21  2  0
 21 23  1  0
 23 25  2  0
 25 16  1  0
 12 13  1  0
 12 14  1  0
 12 15  1  0
 17 18  1  0
 19 20  1  0
 21 22  1  0
 23 24  1  0
 25 26  1  0
M  CHG  1   8   1
M  END
>  <PDB_ID>  (2546) 
pdb3t9w

>  <RESIDUE_NAME>  (2546) 
LYS   PHE

>  <FRAG_NAME>  (2546) 
ETAM   MBZ

>  <FRAG_ATOM_NUM>  (2546) 
fragi: 11  fragj: 15

>  <atom.prop.CHAIN_ID>  (2546) 
A A A A A A A A A A A Z Z Z Z Z Z Z Z Z Z Z Z Z Z Z

>  <atom.prop.IS_HEAVY_ATOM>  (2546) 
1 0 0 0 1 0 0 1 0 0 0 1 0 0 0 1 1 0 1 0 1 0 1 0 1 0

>  <DIFUSE_FUNC_ATOM>  (2546) 
n/a

>  <FINAL_SINGLE_POINT_ENERGY>  (2546) 
0

>  <NONCOV_INTER_ENERGY_QM>  (2546) 
0

>  <FF_Energy>  (2546) 
-1.81

>  <QM_Energy>  (2546) 
-7.06

>  <source>  (2546) 
ETAM_MBZ

>  <Index>  (2546) 
27008

$$$$
ETAM-pdb3tc2-C-LYS-168:MBZ-pdb3tc2-C-PHE-53
     RDKit          3D

 26 25  0  0  0  0  0  0  0  0999 V2000
    2.4337   -0.7067   -3.6825 C   0  0  0  0  0  0  0  0  0  0  0  0
    2.2626   -0.8854   -4.6534 H   0  0  0  0  0  0  0  0  0  0  0  0
    2.4510   -1.5756   -3.1853 H   0  0  0  0  0  0  0  0  0  0  0  0
    3.4203   -0.2516   -3.5959 H   0  0  0  0  0  0  0  0  0  0  0  0
    1.2700    0.1495   -3.1306 C   0  0  0  0  0  0  0  0  0  0  0  0
    1.1998   -0.0073   -2.1015 H   0  0  0  0  0  0  0  0  0  0  0  0
    1.5359    1.1564   -3.1964 H   0  0  0  0  0  0  0  0  0  0  0  0
   -0.2196    0.0608   -3.6830 N   0  0  0  0  0  4  0  0  0  0  0  0
   -0.1763   -0.4429   -4.5267 H   0  0  0  0  0  0  0  0  0  0  0  0
   -0.7451   -0.4079   -2.9960 H   0  0  0  0  0  0  0  0  0  0  0  0
   -0.5237    0.9866   -3.8183 H   0  0  0  0  0  0  0  0  0  0  0  0
    0.0790    2.9080    0.0306 C   0  0  0  0  0  0  0  0  0  0  0  0
   -0.7252    3.2503   -0.4364 H   0  0  0  0  0  0  0  0  0  0  0  0
    0.9073    3.1895   -0.4344 H   0  0  0  0  0  0  0  0  0  0  0  0
    0.0946    3.3580    1.0233 H   0  0  0  0  0  0  0  0  0  0  0  0
    0.0238    1.4230    0.0401 C   0  0  0  0  0  0  0  0  0  0  0  0
   -1.2189    0.7311    0.0464 C   0  0  0  0  0  0  0  0  0  0  0  0
   -2.0613    1.2058    0.0798 H   0  0  0  0  0  0  0  0  0  0  0  0
   -1.2135   -0.7121    0.0000 C   0  0  0  0  0  0  0  0  0  0  0  0
   -2.0921   -1.1878    0.0080 H   0  0  0  0  0  0  0  0  0  0  0  0
   -0.0064   -1.4092   -0.0524 C   0  0  0  0  0  0  0  0  0  0  0  0
   -0.0163   -2.4093   -0.1289 H   0  0  0  0  0  0  0  0  0  0  0  0
    1.2135   -0.7289    0.0000 C   0  0  0  0  0  0  0  0  0  0  0  0
    2.0808   -1.2126    0.0617 H   0  0  0  0  0  0  0  0  0  0  0  0
    1.2016    0.6961   -0.0341 C   0  0  0  0  0  0  0  0  0  0  0  0
    2.0811    1.1721   -0.1156 H   0  0  0  0  0  0  0  0  0  0  0  0
  1  5  1  0
  5  8  1  0
  1  2  1  0
  1  3  1  0
  1  4  1  0
  5  6  1  0
  5  7  1  0
  8  9  1  0
  8 10  1  0
  8 11  1  0
 12 16  1  0
 16 17  2  0
 17 19  1  0
 19 21  2  0
 21 23  1  0
 23 25  2  0
 25 16  1  0
 12 13  1  0
 12 14  1  0
 12 15  1  0
 17 18  1  0
 19 20  1  0
 21 22  1  0
 23 24  1  0
 25 26  1  0
M  CHG  1   8   1
M  END
>  <PDB_ID>  (2547) 
pdb3tc2

>  <RESIDUE_NAME>  (2547) 
LYS   PHE

>  <FRAG_NAME>  (2547) 
ETAM   MBZ

>  <FRAG_ATOM_NUM>  (2547) 
fragi: 11  fragj: 15

>  <atom.prop.CHAIN_ID>  (2547) 
A A A A A A A A A A A Z Z Z Z Z Z Z Z Z Z Z Z Z Z Z

>  <atom.prop.IS_HEAVY_ATOM>  (2547) 
1 0 0 0 1 0 0 1 0 0 0 1 0 0 0 1 1 0 1 0 1 0 1 0 1 0

>  <DIFUSE_FUNC_ATOM>  (2547) 
n/a

>  <FINAL_SINGLE_POINT_ENERGY>  (2547) 
0

>  <NONCOV_INTER_ENERGY_QM>  (2547) 
0

>  <FF_Energy>  (2547) 
4.6

>  <QM_Energy>  (2547) 
-9.89

>  <source>  (2547) 
ETAM_MBZ

>  <Index>  (2547) 
27018

$$$$
ETAM-pdb4rct-A-LYS-49:MBZ-pdb4rct-A-PHE-222
     RDKit          3D

 26 25  0  0  0  0  0  0  0  0999 V2000
   -0.7116   -2.8323    2.8177 C   0  0  0  0  0  0  0  0  0  0  0  0
   -0.1246   -2.5538    2.0591 H   0  0  0  0  0  0  0  0  0  0  0  0
   -1.6484   -2.5326    2.6467 H   0  0  0  0  0  0  0  0  0  0  0  0
   -0.6957   -3.9194    2.8963 H   0  0  0  0  0  0  0  0  0  0  0  0
   -0.2137   -2.1536    4.0851 C   0  0  0  0  0  0  0  0  0  0  0  0
   -0.9357   -1.5557    4.4401 H   0  0  0  0  0  0  0  0  0  0  0  0
   -0.0026   -2.8548    4.7694 H   0  0  0  0  0  0  0  0  0  0  0  0
    1.0114   -1.3397    3.8275 N   0  0  0  0  0  4  0  0  0  0  0  0
    1.1019   -1.1822    2.8458 H   0  0  0  0  0  0  0  0  0  0  0  0
    0.9313   -0.4644    4.3031 H   0  0  0  0  0  0  0  0  0  0  0  0
    1.8113   -1.8340    4.1644 H   0  0  0  0  0  0  0  0  0  0  0  0
    0.0044    2.9029   -0.0137 C   0  0  0  0  0  0  0  0  0  0  0  0
   -0.6927    3.2018   -0.6513 H   0  0  0  0  0  0  0  0  0  0  0  0
    0.9030    3.2015   -0.3044 H   0  0  0  0  0  0  0  0  0  0  0  0
   -0.2050    3.3693    0.9490 H   0  0  0  0  0  0  0  0  0  0  0  0
   -0.0005    1.3974    0.0088 C   0  0  0  0  0  0  0  0  0  0  0  0
   -1.1941    0.6885    0.0015 C   0  0  0  0  0  0  0  0  0  0  0  0
   -2.0620    1.1798   -0.0038 H   0  0  0  0  0  0  0  0  0  0  0  0
   -1.1985   -0.6968   -0.0000 C   0  0  0  0  0  0  0  0  0  0  0  0
   -2.0736   -1.1937    0.0072 H   0  0  0  0  0  0  0  0  0  0  0  0
    0.0028   -1.3873   -0.0091 C   0  0  0  0  0  0  0  0  0  0  0  0
   -0.0002   -2.3889   -0.0229 H   0  0  0  0  0  0  0  0  0  0  0  0
    1.1985   -0.6934    0.0000 C   0  0  0  0  0  0  0  0  0  0  0  0
    2.0813   -1.1906    0.0093 H   0  0  0  0  0  0  0  0  0  0  0  0
    1.1918    0.6917   -0.0013 C   0  0  0  0  0  0  0  0  0  0  0  0
    2.0614    1.1900   -0.0102 H   0  0  0  0  0  0  0  0  0  0  0  0
  1  5  1  0
  5  8  1  0
  1  2  1  0
  1  3  1  0
  1  4  1  0
  5  6  1  0
  5  7  1  0
  8  9  1  0
  8 10  1  0
  8 11  1  0
 12 16  1  0
 16 17  2  0
 17 19  1  0
 19 21  2  0
 21 23  1  0
 23 25  2  0
 25 16  1  0
 12 13  1  0
 12 14  1  0
 12 15  1  0
 17 18  1  0
 19 20  1  0
 21 22  1  0
 23 24  1  0
 25 26  1  0
M  CHG  1   8   1
M  END
>  <PDB_ID>  (2548) 
pdb4rct

>  <RESIDUE_NAME>  (2548) 
LYS   PHE

>  <FRAG_NAME>  (2548) 
ETAM   MBZ

>  <FRAG_ATOM_NUM>  (2548) 
fragi: 11  fragj: 15

>  <atom.prop.CHAIN_ID>  (2548) 
A A A A A A A A A A A Z Z Z Z Z Z Z Z Z Z Z Z Z Z Z

>  <atom.prop.IS_HEAVY_ATOM>  (2548) 
1 0 0 0 1 0 0 1 0 0 0 1 0 0 0 1 1 0 1 0 1 0 1 0 1 0

>  <DIFUSE_FUNC_ATOM>  (2548) 
n/a

>  <FINAL_SINGLE_POINT_ENERGY>  (2548) 
0

>  <NONCOV_INTER_ENERGY_QM>  (2548) 
0

>  <FF_Energy>  (2548) 
-2.81

>  <QM_Energy>  (2548) 
-8.75

>  <source>  (2548) 
ETAM_MBZ

>  <Index>  (2548) 
27021

$$$$
ETAM-pdb4rf1-A-LYS-1622:MBZ-pdb4rf1-A-PHE-1618
     RDKit          3D

 26 25  0  0  0  0  0  0  0  0999 V2000
   -0.0504   -1.8941    3.9757 C   0  0  0  0  0  0  0  0  0  0  0  0
    0.1416   -2.5051    4.7380 H   0  0  0  0  0  0  0  0  0  0  0  0
   -0.1129   -2.4100    3.1266 H   0  0  0  0  0  0  0  0  0  0  0  0
   -1.0041   -1.3981    4.1564 H   0  0  0  0  0  0  0  0  0  0  0  0
    1.0852   -0.8941    3.8548 C   0  0  0  0  0  0  0  0  0  0  0  0
    0.8255   -0.1836    3.1958 H   0  0  0  0  0  0  0  0  0  0  0  0
    1.2419   -0.4668    4.7489 H   0  0  0  0  0  0  0  0  0  0  0  0
    2.3451   -1.5449    3.3987 N   0  0  0  0  0  4  0  0  0  0  0  0
    2.6466   -2.2028    4.0880 H   0  0  0  0  0  0  0  0  0  0  0  0
    2.1791   -2.0179    2.5345 H   0  0  0  0  0  0  0  0  0  0  0  0
    3.0493   -0.8482    3.2692 H   0  0  0  0  0  0  0  0  0  0  0  0
    0.0026    2.9019   -0.0077 C   0  0  0  0  0  0  0  0  0  0  0  0
   -0.2192    3.1997   -0.9243 H   0  0  0  0  0  0  0  0  0  0  0  0
    0.9037    3.2084    0.2616 H   0  0  0  0  0  0  0  0  0  0  0  0
   -0.7206    3.3506    0.6732 H   0  0  0  0  0  0  0  0  0  0  0  0
    0.0010    1.3965    0.0046 C   0  0  0  0  0  0  0  0  0  0  0  0
   -1.1929    0.6904   -0.0044 C   0  0  0  0  0  0  0  0  0  0  0  0
   -2.0594    1.1828   -0.0152 H   0  0  0  0  0  0  0  0  0  0  0  0
   -1.1968   -0.6927   -0.0000 C   0  0  0  0  0  0  0  0  0  0  0  0
   -2.0748   -1.1880    0.0044 H   0  0  0  0  0  0  0  0  0  0  0  0
   -0.0002   -1.3880    0.0000 C   0  0  0  0  0  0  0  0  0  0  0  0
   -0.0056   -2.3885    0.0001 H   0  0  0  0  0  0  0  0  0  0  0  0
    1.1968   -0.6964    0.0000 C   0  0  0  0  0  0  0  0  0  0  0  0
    2.0788   -1.1947    0.0012 H   0  0  0  0  0  0  0  0  0  0  0  0
    1.1921    0.6902   -0.0003 C   0  0  0  0  0  0  0  0  0  0  0  0
    2.0626    1.1867   -0.0054 H   0  0  0  0  0  0  0  0  0  0  0  0
  1  5  1  0
  5  8  1  0
  1  2  1  0
  1  3  1  0
  1  4  1  0
  5  6  1  0
  5  7  1  0
  8  9  1  0
  8 10  1  0
  8 11  1  0
 12 16  1  0
 16 17  2  0
 17 19  1  0
 19 21  2  0
 21 23  1  0
 23 25  2  0
 25 16  1  0
 12 13  1  0
 12 14  1  0
 12 15  1  0
 17 18  1  0
 19 20  1  0
 21 22  1  0
 23 24  1  0
 25 26  1  0
M  CHG  1   8   1
M  END
>  <PDB_ID>  (2549) 
pdb4rf1

>  <RESIDUE_NAME>  (2549) 
LYS   PHE

>  <FRAG_NAME>  (2549) 
ETAM   MBZ

>  <FRAG_ATOM_NUM>  (2549) 
fragi: 11  fragj: 15

>  <atom.prop.CHAIN_ID>  (2549) 
A A A A A A A A A A A Z Z Z Z Z Z Z Z Z Z Z Z Z Z Z

>  <atom.prop.IS_HEAVY_ATOM>  (2549) 
1 0 0 0 1 0 0 1 0 0 0 1 0 0 0 1 1 0 1 0 1 0 1 0 1 0

>  <DIFUSE_FUNC_ATOM>  (2549) 
n/a

>  <FINAL_SINGLE_POINT_ENERGY>  (2549) 
0

>  <NONCOV_INTER_ENERGY_QM>  (2549) 
0

>  <FF_Energy>  (2549) 
-4.14

>  <QM_Energy>  (2549) 
-9.43

>  <source>  (2549) 
ETAM_MBZ

>  <Index>  (2549) 
27048

$$$$
ETAM-pdb4r3u-B-LYS-340:MBZ-pdb4r3u-B-PHE-374
     RDKit          3D

 26 25  0  0  0  0  0  0  0  0999 V2000
    1.1299   -0.7941    4.5266 C   0  0  0  0  0  0  0  0  0  0  0  0
    0.8037    0.1113    4.8122 H   0  0  0  0  0  0  0  0  0  0  0  0
    1.2223   -1.3769    5.3389 H   0  0  0  0  0  0  0  0  0  0  0  0
    0.3852   -1.2365    3.8649 H   0  0  0  0  0  0  0  0  0  0  0  0
    2.4978   -0.6363    3.8875 C   0  0  0  0  0  0  0  0  0  0  0  0
    3.1961   -0.6062    4.6137 H   0  0  0  0  0  0  0  0  0  0  0  0
    2.6821   -1.4394    3.3077 H   0  0  0  0  0  0  0  0  0  0  0  0
    2.6078    0.5963    3.0576 N   0  0  0  0  0  4  0  0  0  0  0  0
    1.9669    0.5385    2.2927 H   0  0  0  0  0  0  0  0  0  0  0  0
    2.3890    1.3939    3.6188 H   0  0  0  0  0  0  0  0  0  0  0  0
    3.5407    0.6778    2.7084 H   0  0  0  0  0  0  0  0  0  0  0  0
    0.0006    2.9069   -0.0090 C   0  0  0  0  0  0  0  0  0  0  0  0
   -0.6697    3.1945   -0.6923 H   0  0  0  0  0  0  0  0  0  0  0  0
    0.9126    3.2060   -0.2878 H   0  0  0  0  0  0  0  0  0  0  0  0
   -0.2416    3.4139    0.9251 H   0  0  0  0  0  0  0  0  0  0  0  0
    0.0012    1.4049    0.0286 C   0  0  0  0  0  0  0  0  0  0  0  0
   -1.1932    0.6923   -0.0178 C   0  0  0  0  0  0  0  0  0  0  0  0
   -2.0604    1.1787   -0.0656 H   0  0  0  0  0  0  0  0  0  0  0  0
   -1.1950   -0.7013    0.0000 C   0  0  0  0  0  0  0  0  0  0  0  0
   -2.0754   -1.1905    0.0238 H   0  0  0  0  0  0  0  0  0  0  0  0
   -0.0033   -1.3902   -0.0134 C   0  0  0  0  0  0  0  0  0  0  0  0
   -0.0056   -2.3931   -0.0334 H   0  0  0  0  0  0  0  0  0  0  0  0
    1.1950   -0.7005    0.0000 C   0  0  0  0  0  0  0  0  0  0  0  0
    2.0768   -1.1974    0.0097 H   0  0  0  0  0  0  0  0  0  0  0  0
    1.1953    0.6947    0.0025 C   0  0  0  0  0  0  0  0  0  0  0  0
    2.0650    1.1863   -0.0156 H   0  0  0  0  0  0  0  0  0  0  0  0
  1  5  1  0
  5  8  1  0
  1  2  1  0
  1  3  1  0
  1  4  1  0
  5  6  1  0
  5  7  1  0
  8  9  1  0
  8 10  1  0
  8 11  1  0
 12 16  1  0
 16 17  2  0
 17 19  1  0
 19 21  2  0
 21 23  1  0
 23 25  2  0
 25 16  1  0
 12 13  1  0
 12 14  1  0
 12 15  1  0
 17 18  1  0
 19 20  1  0
 21 22  1  0
 23 24  1  0
 25 26  1  0
M  CHG  1   8   1
M  END
>  <PDB_ID>  (2550) 
pdb4r3u

>  <RESIDUE_NAME>  (2550) 
LYS   PHE

>  <FRAG_NAME>  (2550) 
ETAM   MBZ

>  <FRAG_ATOM_NUM>  (2550) 
fragi: 11  fragj: 15

>  <atom.prop.CHAIN_ID>  (2550) 
A A A A A A A A A A A Z Z Z Z Z Z Z Z Z Z Z Z Z Z Z

>  <atom.prop.IS_HEAVY_ATOM>  (2550) 
1 0 0 0 1 0 0 1 0 0 0 1 0 0 0 1 1 0 1 0 1 0 1 0 1 0

>  <DIFUSE_FUNC_ATOM>  (2550) 
n/a

>  <FINAL_SINGLE_POINT_ENERGY>  (2550) 
0

>  <NONCOV_INTER_ENERGY_QM>  (2550) 
0

>  <FF_Energy>  (2550) 
-4.94

>  <QM_Energy>  (2550) 
-11.59

>  <source>  (2550) 
ETAM_MBZ

>  <Index>  (2550) 
27050

$$$$
ETAM-pdb3tc9-B-LYS-53:MBZ-pdb3tc9-B-PHE-50
     RDKit          3D

 26 25  0  0  0  0  0  0  0  0999 V2000
   -1.8073   -1.6404    3.8090 C   0  0  0  0  0  0  0  0  0  0  0  0
   -1.5475   -2.5704    4.0563 H   0  0  0  0  0  0  0  0  0  0  0  0
   -1.7615   -1.5239    2.8201 H   0  0  0  0  0  0  0  0  0  0  0  0
   -2.8366   -1.4758    4.1278 H   0  0  0  0  0  0  0  0  0  0  0  0
   -0.8603   -0.6722    4.4636 C   0  0  0  0  0  0  0  0  0  0  0  0
   -1.3293    0.2007    4.6134 H   0  0  0  0  0  0  0  0  0  0  0  0
   -0.5667   -1.0413    5.3488 H   0  0  0  0  0  0  0  0  0  0  0  0
    0.3370   -0.4397    3.6152 N   0  0  0  0  0  4  0  0  0  0  0  0
    0.7553    0.4348    3.8625 H   0  0  0  0  0  0  0  0  0  0  0  0
    0.9958   -1.1783    3.7597 H   0  0  0  0  0  0  0  0  0  0  0  0
    0.0643   -0.4199    2.6531 H   0  0  0  0  0  0  0  0  0  0  0  0
    0.0009    2.9120    0.0187 C   0  0  0  0  0  0  0  0  0  0  0  0
   -0.7793    3.2236   -0.5210 H   0  0  0  0  0  0  0  0  0  0  0  0
    0.8495    3.2220   -0.4054 H   0  0  0  0  0  0  0  0  0  0  0  0
   -0.0676    3.3911    0.9953 H   0  0  0  0  0  0  0  0  0  0  0  0
    0.0000    1.4041    0.0068 C   0  0  0  0  0  0  0  0  0  0  0  0
   -1.1912    0.6951   -0.0248 C   0  0  0  0  0  0  0  0  0  0  0  0
   -2.0598    1.1787   -0.0668 H   0  0  0  0  0  0  0  0  0  0  0  0
   -1.1920   -0.7001   -0.0000 C   0  0  0  0  0  0  0  0  0  0  0  0
   -2.0744   -1.1880    0.0119 H   0  0  0  0  0  0  0  0  0  0  0  0
   -0.0035   -1.3880    0.0096 C   0  0  0  0  0  0  0  0  0  0  0  0
   -0.0073   -2.3933    0.0233 H   0  0  0  0  0  0  0  0  0  0  0  0
    1.1920   -0.7027   -0.0000 C   0  0  0  0  0  0  0  0  0  0  0  0
    2.0753   -1.1996   -0.0119 H   0  0  0  0  0  0  0  0  0  0  0  0
    1.1948    0.6917    0.0083 C   0  0  0  0  0  0  0  0  0  0  0  0
    2.0644    1.1825    0.0147 H   0  0  0  0  0  0  0  0  0  0  0  0
  1  5  1  0
  5  8  1  0
  1  2  1  0
  1  3  1  0
  1  4  1  0
  5  6  1  0
  5  7  1  0
  8  9  1  0
  8 10  1  0
  8 11  1  0
 12 16  1  0
 16 17  2  0
 17 19  1  0
 19 21  2  0
 21 23  1  0
 23 25  2  0
 25 16  1  0
 12 13  1  0
 12 14  1  0
 12 15  1  0
 17 18  1  0
 19 20  1  0
 21 22  1  0
 23 24  1  0
 25 26  1  0
M  CHG  1   8   1
M  END
>  <PDB_ID>  (2551) 
pdb3tc9

>  <RESIDUE_NAME>  (2551) 
LYS   PHE

>  <FRAG_NAME>  (2551) 
ETAM   MBZ

>  <FRAG_ATOM_NUM>  (2551) 
fragi: 11  fragj: 15

>  <atom.prop.CHAIN_ID>  (2551) 
A A A A A A A A A A A Z Z Z Z Z Z Z Z Z Z Z Z Z Z Z

>  <atom.prop.IS_HEAVY_ATOM>  (2551) 
1 0 0 0 1 0 0 1 0 0 0 1 0 0 0 1 1 0 1 0 1 0 1 0 1 0

>  <DIFUSE_FUNC_ATOM>  (2551) 
n/a

>  <FINAL_SINGLE_POINT_ENERGY>  (2551) 
0

>  <NONCOV_INTER_ENERGY_QM>  (2551) 
0

>  <FF_Energy>  (2551) 
-8.0

>  <QM_Energy>  (2551) 
-13.99

>  <source>  (2551) 
ETAM_MBZ

>  <Index>  (2551) 
27100

$$$$
ETAM-pdb4rk1-B-LYS-67:MBZ-pdb4rk1-B-PHE-97
     RDKit          3D

 26 25  0  0  0  0  0  0  0  0999 V2000
    0.8561   -1.0186    4.8743 C   0  0  0  0  0  0  0  0  0  0  0  0
    1.1896   -1.3062    3.9800 H   0  0  0  0  0  0  0  0  0  0  0  0
    0.7323   -1.8123    5.4639 H   0  0  0  0  0  0  0  0  0  0  0  0
    1.5900   -0.3520    5.3271 H   0  0  0  0  0  0  0  0  0  0  0  0
   -0.4935   -0.3393    4.6910 C   0  0  0  0  0  0  0  0  0  0  0  0
   -1.0343   -0.4619    5.5270 H   0  0  0  0  0  0  0  0  0  0  0  0
   -0.3449    0.6418    4.5418 H   0  0  0  0  0  0  0  0  0  0  0  0
   -1.2427   -0.9019    3.5360 N   0  0  0  0  0  4  0  0  0  0  0  0
   -2.0555   -1.3791    3.8679 H   0  0  0  0  0  0  0  0  0  0  0  0
   -1.5169   -0.1600    2.9249 H   0  0  0  0  0  0  0  0  0  0  0  0
   -0.6566   -1.5430    3.0407 H   0  0  0  0  0  0  0  0  0  0  0  0
   -0.0018    2.8972    0.0030 C   0  0  0  0  0  0  0  0  0  0  0  0
   -0.7888    3.2034   -0.5126 H   0  0  0  0  0  0  0  0  0  0  0  0
    0.8416    3.2046   -0.4129 H   0  0  0  0  0  0  0  0  0  0  0  0
   -0.0632    3.3391    0.9975 H   0  0  0  0  0  0  0  0  0  0  0  0
   -0.0002    1.3966    0.0047 C   0  0  0  0  0  0  0  0  0  0  0  0
   -1.1914    0.6907    0.0012 C   0  0  0  0  0  0  0  0  0  0  0  0
   -2.0605    1.1825   -0.0022 H   0  0  0  0  0  0  0  0  0  0  0  0
   -1.1978   -0.6940   -0.0000 C   0  0  0  0  0  0  0  0  0  0  0  0
   -2.0772   -1.1869    0.0040 H   0  0  0  0  0  0  0  0  0  0  0  0
   -0.0044   -1.3871   -0.0048 C   0  0  0  0  0  0  0  0  0  0  0  0
   -0.0074   -2.3884   -0.0122 H   0  0  0  0  0  0  0  0  0  0  0  0
    1.1978   -0.6953    0.0000 C   0  0  0  0  0  0  0  0  0  0  0  0
    2.0766   -1.1977    0.0055 H   0  0  0  0  0  0  0  0  0  0  0  0
    1.1961    0.6891   -0.0011 C   0  0  0  0  0  0  0  0  0  0  0  0
    2.0638    1.1868   -0.0068 H   0  0  0  0  0  0  0  0  0  0  0  0
  1  5  1  0
  5  8  1  0
  1  2  1  0
  1  3  1  0
  1  4  1  0
  5  6  1  0
  5  7  1  0
  8  9  1  0
  8 10  1  0
  8 11  1  0
 12 16  1  0
 16 17  2  0
 17 19  1  0
 19 21  2  0
 21 23  1  0
 23 25  2  0
 25 16  1  0
 12 13  1  0
 12 14  1  0
 12 15  1  0
 17 18  1  0
 19 20  1  0
 21 22  1  0
 23 24  1  0
 25 26  1  0
M  CHG  1   8   1
M  END
>  <PDB_ID>  (2552) 
pdb4rk1

>  <RESIDUE_NAME>  (2552) 
LYS   PHE

>  <FRAG_NAME>  (2552) 
ETAM   MBZ

>  <FRAG_ATOM_NUM>  (2552) 
fragi: 11  fragj: 15

>  <atom.prop.CHAIN_ID>  (2552) 
A A A A A A A A A A A Z Z Z Z Z Z Z Z Z Z Z Z Z Z Z

>  <atom.prop.IS_HEAVY_ATOM>  (2552) 
1 0 0 0 1 0 0 1 0 0 0 1 0 0 0 1 1 0 1 0 1 0 1 0 1 0

>  <DIFUSE_FUNC_ATOM>  (2552) 
n/a

>  <FINAL_SINGLE_POINT_ENERGY>  (2552) 
0

>  <NONCOV_INTER_ENERGY_QM>  (2552) 
0

>  <FF_Energy>  (2552) 
-5.87

>  <QM_Energy>  (2552) 
-11.6

>  <source>  (2552) 
ETAM_MBZ

>  <Index>  (2552) 
27130

$$$$
ETAM-pdb3tha-A-LYS-63:MBZ-pdb3tha-B-PHE-203
     RDKit          3D

 26 25  0  0  0  0  0  0  0  0999 V2000
    1.0279   -1.8535   -3.5221 C   0  0  0  0  0  0  0  0  0  0  0  0
    0.3905   -1.8699   -2.7640 H   0  0  0  0  0  0  0  0  0  0  0  0
    1.9624   -1.7874   -3.1998 H   0  0  0  0  0  0  0  0  0  0  0  0
    0.9171   -2.7754   -4.0932 H   0  0  0  0  0  0  0  0  0  0  0  0
    0.7235   -0.5971   -4.3832 C   0  0  0  0  0  0  0  0  0  0  0  0
    1.6093   -0.1675   -4.6396 H   0  0  0  0  0  0  0  0  0  0  0  0
    0.2874   -0.9053   -5.2495 H   0  0  0  0  0  0  0  0  0  0  0  0
   -0.1576    0.4579   -3.7487 N   0  0  0  0  0  4  0  0  0  0  0  0
    0.4059    1.2431   -3.5104 H   0  0  0  0  0  0  0  0  0  0  0  0
   -0.8589    0.7229   -4.4034 H   0  0  0  0  0  0  0  0  0  0  0  0
   -0.5761    0.0743   -2.9311 H   0  0  0  0  0  0  0  0  0  0  0  0
    0.0048    2.9387    0.0565 C   0  0  0  0  0  0  0  0  0  0  0  0
   -0.8602    3.2579   -0.2713 H   0  0  0  0  0  0  0  0  0  0  0  0
    0.7593    3.2605   -0.4783 H   0  0  0  0  0  0  0  0  0  0  0  0
    0.1338    3.3235    1.0682 H   0  0  0  0  0  0  0  0  0  0  0  0
   -0.0012    1.4103   -0.0049 C   0  0  0  0  0  0  0  0  0  0  0  0
   -1.2003    0.7105   -0.0037 C   0  0  0  0  0  0  0  0  0  0  0  0
   -2.0643    1.2010   -0.0065 H   0  0  0  0  0  0  0  0  0  0  0  0
   -1.2074   -0.6825   -0.0000 C   0  0  0  0  0  0  0  0  0  0  0  0
   -2.0848   -1.1774    0.0027 H   0  0  0  0  0  0  0  0  0  0  0  0
    0.0011   -1.4063    0.0021 C   0  0  0  0  0  0  0  0  0  0  0  0
   -0.0212   -2.3972    0.0044 H   0  0  0  0  0  0  0  0  0  0  0  0
    1.2074   -0.7159    0.0000 C   0  0  0  0  0  0  0  0  0  0  0  0
    2.0854   -1.2096   -0.0051 H   0  0  0  0  0  0  0  0  0  0  0  0
    1.2004    0.6839    0.0065 C   0  0  0  0  0  0  0  0  0  0  0  0
    2.0697    1.1793    0.0190 H   0  0  0  0  0  0  0  0  0  0  0  0
  1  5  1  0
  5  8  1  0
  1  2  1  0
  1  3  1  0
  1  4  1  0
  5  6  1  0
  5  7  1  0
  8  9  1  0
  8 10  1  0
  8 11  1  0
 12 16  1  0
 16 17  2  0
 17 19  1  0
 19 21  2  0
 21 23  1  0
 23 25  2  0
 25 16  1  0
 12 13  1  0
 12 14  1  0
 12 15  1  0
 17 18  1  0
 19 20  1  0
 21 22  1  0
 23 24  1  0
 25 26  1  0
M  CHG  1   8   1
M  END
>  <PDB_ID>  (2553) 
pdb3tha

>  <RESIDUE_NAME>  (2553) 
LYS   PHE

>  <FRAG_NAME>  (2553) 
ETAM   MBZ

>  <FRAG_ATOM_NUM>  (2553) 
fragi: 11  fragj: 15

>  <atom.prop.CHAIN_ID>  (2553) 
A A A A A A A A A A A Z Z Z Z Z Z Z Z Z Z Z Z Z Z Z

>  <atom.prop.IS_HEAVY_ATOM>  (2553) 
1 0 0 0 1 0 0 1 0 0 0 1 0 0 0 1 1 0 1 0 1 0 1 0 1 0

>  <DIFUSE_FUNC_ATOM>  (2553) 
n/a

>  <FINAL_SINGLE_POINT_ENERGY>  (2553) 
0

>  <NONCOV_INTER_ENERGY_QM>  (2553) 
0

>  <FF_Energy>  (2553) 
-7.56

>  <QM_Energy>  (2553) 
-12.58

>  <source>  (2553) 
ETAM_MBZ

>  <Index>  (2553) 
27138

$$$$
ETAM-pdb3tha-B-LYS-63:MBZ-pdb3tha-A-PHE-203
     RDKit          3D

 26 25  0  0  0  0  0  0  0  0999 V2000
   -0.0677   -0.7945   -4.5342 C   0  0  0  0  0  0  0  0  0  0  0  0
    0.8762   -1.1019   -4.3734 H   0  0  0  0  0  0  0  0  0  0  0  0
   -0.0734   -0.1796   -5.3301 H   0  0  0  0  0  0  0  0  0  0  0  0
   -0.6906   -1.6624   -4.7506 H   0  0  0  0  0  0  0  0  0  0  0  0
   -0.5175    0.0097   -3.3127 C   0  0  0  0  0  0  0  0  0  0  0  0
   -0.1683   -0.4609   -2.4662 H   0  0  0  0  0  0  0  0  0  0  0  0
   -0.0368    0.9200   -3.3263 H   0  0  0  0  0  0  0  0  0  0  0  0
   -2.0016    0.2719   -3.1197 N   0  0  0  0  0  4  0  0  0  0  0  0
   -2.2599   -0.0302   -2.2079 H   0  0  0  0  0  0  0  0  0  0  0  0
   -2.1661    1.2472   -3.2216 H   0  0  0  0  0  0  0  0  0  0  0  0
   -2.5051   -0.2382   -3.8093 H   0  0  0  0  0  0  0  0  0  0  0  0
    0.0209    2.8728    0.0628 C   0  0  0  0  0  0  0  0  0  0  0  0
   -0.8845    3.2104   -0.1291 H   0  0  0  0  0  0  0  0  0  0  0  0
    0.6826    3.2017   -0.5889 H   0  0  0  0  0  0  0  0  0  0  0  0
    0.3100    3.2564    1.0412 H   0  0  0  0  0  0  0  0  0  0  0  0
   -0.0018    1.3894    0.0124 C   0  0  0  0  0  0  0  0  0  0  0  0
   -1.1879    0.7165    0.0019 C   0  0  0  0  0  0  0  0  0  0  0  0
   -2.0550    1.1985   -0.0058 H   0  0  0  0  0  0  0  0  0  0  0  0
   -1.1949   -0.6829   -0.0000 C   0  0  0  0  0  0  0  0  0  0  0  0
   -2.0761   -1.1678    0.0118 H   0  0  0  0  0  0  0  0  0  0  0  0
   -0.0021   -1.3782   -0.0167 C   0  0  0  0  0  0  0  0  0  0  0  0
   -0.0166   -2.3843   -0.0419 H   0  0  0  0  0  0  0  0  0  0  0  0
    1.1949   -0.7037    0.0000 C   0  0  0  0  0  0  0  0  0  0  0  0
    2.0714   -1.2144    0.0114 H   0  0  0  0  0  0  0  0  0  0  0  0
    1.1918    0.6588    0.0024 C   0  0  0  0  0  0  0  0  0  0  0  0
    2.0628    1.1676   -0.0038 H   0  0  0  0  0  0  0  0  0  0  0  0
  1  5  1  0
  5  8  1  0
  1  2  1  0
  1  3  1  0
  1  4  1  0
  5  6  1  0
  5  7  1  0
  8  9  1  0
  8 10  1  0
  8 11  1  0
 12 16  1  0
 16 17  2  0
 17 19  1  0
 19 21  2  0
 21 23  1  0
 23 25  2  0
 25 16  1  0
 12 13  1  0
 12 14  1  0
 12 15  1  0
 17 18  1  0
 19 20  1  0
 21 22  1  0
 23 24  1  0
 25 26  1  0
M  CHG  1   8   1
M  END
>  <PDB_ID>  (2554) 
pdb3tha

>  <RESIDUE_NAME>  (2554) 
LYS   PHE

>  <FRAG_NAME>  (2554) 
ETAM   MBZ

>  <FRAG_ATOM_NUM>  (2554) 
fragi: 11  fragj: 15

>  <atom.prop.CHAIN_ID>  (2554) 
A A A A A A A A A A A Z Z Z Z Z Z Z Z Z Z Z Z Z Z Z

>  <atom.prop.IS_HEAVY_ATOM>  (2554) 
1 0 0 0 1 0 0 1 0 0 0 1 0 0 0 1 1 0 1 0 1 0 1 0 1 0

>  <DIFUSE_FUNC_ATOM>  (2554) 
n/a

>  <FINAL_SINGLE_POINT_ENERGY>  (2554) 
0

>  <NONCOV_INTER_ENERGY_QM>  (2554) 
0

>  <FF_Energy>  (2554) 
-5.49

>  <QM_Energy>  (2554) 
-13.27

>  <source>  (2554) 
ETAM_MBZ

>  <Index>  (2554) 
27158

$$$$
ETAM-pdb3tig-A-LYS-341:MBZ-pdb3tig-A-PHE-263
     RDKit          3D

 26 25  0  0  0  0  0  0  0  0999 V2000
    2.5832   -3.2920    0.9803 C   0  0  0  0  0  0  0  0  0  0  0  0
    1.8952   -2.6862    0.5778 H   0  0  0  0  0  0  0  0  0  0  0  0
    3.0785   -2.7995    1.6967 H   0  0  0  0  0  0  0  0  0  0  0  0
    2.0780   -4.1485    1.4267 H   0  0  0  0  0  0  0  0  0  0  0  0
    3.5657   -3.6909   -0.0982 C   0  0  0  0  0  0  0  0  0  0  0  0
    4.2596   -4.2926    0.2967 H   0  0  0  0  0  0  0  0  0  0  0  0
    3.0772   -4.1796   -0.8225 H   0  0  0  0  0  0  0  0  0  0  0  0
    4.2271   -2.4947   -0.6761 N   0  0  0  0  0  4  0  0  0  0  0  0
    4.9101   -2.7827   -1.3486 H   0  0  0  0  0  0  0  0  0  0  0  0
    3.5427   -1.9179   -1.1237 H   0  0  0  0  0  0  0  0  0  0  0  0
    4.6745   -1.9761    0.0525 H   0  0  0  0  0  0  0  0  0  0  0  0
    0.0001    2.9100    0.0075 C   0  0  0  0  0  0  0  0  0  0  0  0
    0.9356    3.2171   -0.0864 H   0  0  0  0  0  0  0  0  0  0  0  0
   -0.3935    3.2123    0.8633 H   0  0  0  0  0  0  0  0  0  0  0  0
   -0.5796    3.3553   -0.8010 H   0  0  0  0  0  0  0  0  0  0  0  0
   -0.0000    1.4072   -0.0002 C   0  0  0  0  0  0  0  0  0  0  0  0
   -1.1981    0.6967    0.0007 C   0  0  0  0  0  0  0  0  0  0  0  0
   -2.0655    1.1851    0.0004 H   0  0  0  0  0  0  0  0  0  0  0  0
   -1.2055   -0.7019   -0.0000 C   0  0  0  0  0  0  0  0  0  0  0  0
   -2.0801   -1.1923    0.0012 H   0  0  0  0  0  0  0  0  0  0  0  0
    0.0007   -1.4010    0.0000 C   0  0  0  0  0  0  0  0  0  0  0  0
   -0.0025   -2.3970   -0.0008 H   0  0  0  0  0  0  0  0  0  0  0  0
    1.2055   -0.6994   -0.0000 C   0  0  0  0  0  0  0  0  0  0  0  0
    2.0864   -1.1937    0.0017 H   0  0  0  0  0  0  0  0  0  0  0  0
    1.1975    0.6984   -0.0005 C   0  0  0  0  0  0  0  0  0  0  0  0
    2.0664    1.1930   -0.0020 H   0  0  0  0  0  0  0  0  0  0  0  0
  1  5  1  0
  5  8  1  0
  1  2  1  0
  1  3  1  0
  1  4  1  0
  5  6  1  0
  5  7  1  0
  8  9  1  0
  8 10  1  0
  8 11  1  0
 12 16  1  0
 16 17  2  0
 17 19  1  0
 19 21  2  0
 21 23  1  0
 23 25  2  0
 25 16  1  0
 12 13  1  0
 12 14  1  0
 12 15  1  0
 17 18  1  0
 19 20  1  0
 21 22  1  0
 23 24  1  0
 25 26  1  0
M  CHG  1   8   1
M  END
>  <PDB_ID>  (2555) 
pdb3tig

>  <RESIDUE_NAME>  (2555) 
LYS   PHE

>  <FRAG_NAME>  (2555) 
ETAM   MBZ

>  <FRAG_ATOM_NUM>  (2555) 
fragi: 11  fragj: 15

>  <atom.prop.CHAIN_ID>  (2555) 
A A A A A A A A A A A Z Z Z Z Z Z Z Z Z Z Z Z Z Z Z

>  <atom.prop.IS_HEAVY_ATOM>  (2555) 
1 0 0 0 1 0 0 1 0 0 0 1 0 0 0 1 1 0 1 0 1 0 1 0 1 0

>  <DIFUSE_FUNC_ATOM>  (2555) 
n/a

>  <FINAL_SINGLE_POINT_ENERGY>  (2555) 
0

>  <NONCOV_INTER_ENERGY_QM>  (2555) 
0

>  <FF_Energy>  (2555) 
25.55

>  <QM_Energy>  (2555) 
2.73

>  <source>  (2555) 
ETAM_MBZ

>  <Index>  (2555) 
27161

$$$$
ETAM-pdb4rp8-A-LYS-213:MBZ-pdb4rp8-A-PHE-374
     RDKit          3D

 26 25  0  0  0  0  0  0  0  0999 V2000
   -3.4499    1.9138   -4.2449 C   0  0  0  0  0  0  0  0  0  0  0  0
   -3.9320    1.6242   -5.0660 H   0  0  0  0  0  0  0  0  0  0  0  0
   -2.5136    1.5774   -4.2566 H   0  0  0  0  0  0  0  0  0  0  0  0
   -3.4298    3.0033   -4.2181 H   0  0  0  0  0  0  0  0  0  0  0  0
   -4.1613    1.3344   -3.0319 C   0  0  0  0  0  0  0  0  0  0  0  0
   -5.1530    1.4506   -3.1502 H   0  0  0  0  0  0  0  0  0  0  0  0
   -3.9591    0.3510   -2.9741 H   0  0  0  0  0  0  0  0  0  0  0  0
   -3.7427    1.9920   -1.7611 N   0  0  0  0  0  4  0  0  0  0  0  0
   -3.6049    2.9679   -1.9237 H   0  0  0  0  0  0  0  0  0  0  0  0
   -4.4551    1.8638   -1.0726 H   0  0  0  0  0  0  0  0  0  0  0  0
   -2.8898    1.5809   -1.4423 H   0  0  0  0  0  0  0  0  0  0  0  0
   -0.0043    2.8942   -0.0226 C   0  0  0  0  0  0  0  0  0  0  0  0
    0.8511    3.2104    0.3526 H   0  0  0  0  0  0  0  0  0  0  0  0
   -0.7747    3.2095    0.5072 H   0  0  0  0  0  0  0  0  0  0  0  0
   -0.0998    3.3027   -1.0286 H   0  0  0  0  0  0  0  0  0  0  0  0
   -0.0011    1.3953    0.0050 C   0  0  0  0  0  0  0  0  0  0  0  0
   -1.1947    0.6905   -0.0063 C   0  0  0  0  0  0  0  0  0  0  0  0
   -2.0617    1.1812   -0.0197 H   0  0  0  0  0  0  0  0  0  0  0  0
   -1.1977   -0.6949    0.0000 C   0  0  0  0  0  0  0  0  0  0  0  0
   -2.0742   -1.1907    0.0029 H   0  0  0  0  0  0  0  0  0  0  0  0
    0.0017   -1.3871    0.0040 C   0  0  0  0  0  0  0  0  0  0  0  0
   -0.0022   -2.3876    0.0095 H   0  0  0  0  0  0  0  0  0  0  0  0
    1.1977   -0.6930   -0.0000 C   0  0  0  0  0  0  0  0  0  0  0  0
    2.0804   -1.1933    0.0008 H   0  0  0  0  0  0  0  0  0  0  0  0
    1.1941    0.6891   -0.0028 C   0  0  0  0  0  0  0  0  0  0  0  0
    2.0620    1.1885   -0.0110 H   0  0  0  0  0  0  0  0  0  0  0  0
  1  5  1  0
  5  8  1  0
  1  2  1  0
  1  3  1  0
  1  4  1  0
  5  6  1  0
  5  7  1  0
  8  9  1  0
  8 10  1  0
  8 11  1  0
 12 16  1  0
 16 17  2  0
 17 19  1  0
 19 21  2  0
 21 23  1  0
 23 25  2  0
 25 16  1  0
 12 13  1  0
 12 14  1  0
 12 15  1  0
 17 18  1  0
 19 20  1  0
 21 22  1  0
 23 24  1  0
 25 26  1  0
M  CHG  1   8   1
M  END
>  <PDB_ID>  (2556) 
pdb4rp8

>  <RESIDUE_NAME>  (2556) 
LYS   PHE

>  <FRAG_NAME>  (2556) 
ETAM   MBZ

>  <FRAG_ATOM_NUM>  (2556) 
fragi: 11  fragj: 15

>  <atom.prop.CHAIN_ID>  (2556) 
A A A A A A A A A A A Z Z Z Z Z Z Z Z Z Z Z Z Z Z Z

>  <atom.prop.IS_HEAVY_ATOM>  (2556) 
1 0 0 0 1 0 0 1 0 0 0 1 0 0 0 1 1 0 1 0 1 0 1 0 1 0

>  <DIFUSE_FUNC_ATOM>  (2556) 
n/a

>  <FINAL_SINGLE_POINT_ENERGY>  (2556) 
0

>  <NONCOV_INTER_ENERGY_QM>  (2556) 
0

>  <FF_Energy>  (2556) 
0.27

>  <QM_Energy>  (2556) 
-4.87

>  <source>  (2556) 
ETAM_MBZ

>  <Index>  (2556) 
27230

$$$$
ETAM-pdb3tmg-A-LYS-93:MBZ-pdb3tmg-A-PHE-89
     RDKit          3D

 26 25  0  0  0  0  0  0  0  0999 V2000
   -0.4136   -0.5589    4.7628 C   0  0  0  0  0  0  0  0  0  0  0  0
    0.4046   -0.1427    4.3901 H   0  0  0  0  0  0  0  0  0  0  0  0
   -0.2681   -1.5184    4.9594 H   0  0  0  0  0  0  0  0  0  0  0  0
   -0.6976   -0.0405    5.6786 H   0  0  0  0  0  0  0  0  0  0  0  0
   -1.5286   -0.4520    3.7049 C   0  0  0  0  0  0  0  0  0  0  0  0
   -1.1799   -0.8270    2.8342 H   0  0  0  0  0  0  0  0  0  0  0  0
   -2.3057   -1.0270    4.0001 H   0  0  0  0  0  0  0  0  0  0  0  0
   -2.0225    0.9484    3.4671 N   0  0  0  0  0  4  0  0  0  0  0  0
   -1.9541    1.1547    2.4936 H   0  0  0  0  0  0  0  0  0  0  0  0
   -2.9728    1.0107    3.7629 H   0  0  0  0  0  0  0  0  0  0  0  0
   -1.4601    1.5830    3.9911 H   0  0  0  0  0  0  0  0  0  0  0  0
    0.0114    2.9079   -0.0078 C   0  0  0  0  0  0  0  0  0  0  0  0
   -0.7358    3.2131   -0.5812 H   0  0  0  0  0  0  0  0  0  0  0  0
    0.8835    3.2084   -0.3687 H   0  0  0  0  0  0  0  0  0  0  0  0
   -0.1162    3.3689    0.9716 H   0  0  0  0  0  0  0  0  0  0  0  0
    0.0053    1.4028    0.0045 C   0  0  0  0  0  0  0  0  0  0  0  0
   -1.2057    0.7007   -0.0162 C   0  0  0  0  0  0  0  0  0  0  0  0
   -2.0651    1.1897   -0.0438 H   0  0  0  0  0  0  0  0  0  0  0  0
   -1.2149   -0.7076    0.0000 C   0  0  0  0  0  0  0  0  0  0  0  0
   -2.0875   -1.1934    0.0089 H   0  0  0  0  0  0  0  0  0  0  0  0
   -0.0049   -1.3985    0.0052 C   0  0  0  0  0  0  0  0  0  0  0  0
    0.0026   -2.3948    0.0120 H   0  0  0  0  0  0  0  0  0  0  0  0
    1.2149   -0.6914   -0.0000 C   0  0  0  0  0  0  0  0  0  0  0  0
    2.0874   -1.1959   -0.0072 H   0  0  0  0  0  0  0  0  0  0  0  0
    1.2053    0.6940    0.0066 C   0  0  0  0  0  0  0  0  0  0  0  0
    2.0720    1.1965    0.0124 H   0  0  0  0  0  0  0  0  0  0  0  0
  1  5  1  0
  5  8  1  0
  1  2  1  0
  1  3  1  0
  1  4  1  0
  5  6  1  0
  5  7  1  0
  8  9  1  0
  8 10  1  0
  8 11  1  0
 12 16  1  0
 16 17  2  0
 17 19  1  0
 19 21  2  0
 21 23  1  0
 23 25  2  0
 25 16  1  0
 12 13  1  0
 12 14  1  0
 12 15  1  0
 17 18  1  0
 19 20  1  0
 21 22  1  0
 23 24  1  0
 25 26  1  0
M  CHG  1   8   1
M  END
>  <PDB_ID>  (2557) 
pdb3tmg

>  <RESIDUE_NAME>  (2557) 
LYS   PHE

>  <FRAG_NAME>  (2557) 
ETAM   MBZ

>  <FRAG_ATOM_NUM>  (2557) 
fragi: 11  fragj: 15

>  <atom.prop.CHAIN_ID>  (2557) 
A A A A A A A A A A A Z Z Z Z Z Z Z Z Z Z Z Z Z Z Z

>  <atom.prop.IS_HEAVY_ATOM>  (2557) 
1 0 0 0 1 0 0 1 0 0 0 1 0 0 0 1 1 0 1 0 1 0 1 0 1 0

>  <DIFUSE_FUNC_ATOM>  (2557) 
n/a

>  <FINAL_SINGLE_POINT_ENERGY>  (2557) 
0

>  <NONCOV_INTER_ENERGY_QM>  (2557) 
0

>  <FF_Energy>  (2557) 
-5.47

>  <QM_Energy>  (2557) 
-11.35

>  <source>  (2557) 
ETAM_MBZ

>  <Index>  (2557) 
27239

$$$$
ETAM-pdb3tmg-B-LYS-51:MBZ-pdb3tmg-B-PHE-289
     RDKit          3D

 26 25  0  0  0  0  0  0  0  0999 V2000
   -1.9034    0.1380   -2.9894 C   0  0  0  0  0  0  0  0  0  0  0  0
   -2.8198   -0.0751   -2.6454 H   0  0  0  0  0  0  0  0  0  0  0  0
   -1.2539    0.1274   -2.2267 H   0  0  0  0  0  0  0  0  0  0  0  0
   -1.6118   -0.6261   -3.7101 H   0  0  0  0  0  0  0  0  0  0  0  0
   -1.9227    1.5278   -3.5863 C   0  0  0  0  0  0  0  0  0  0  0  0
   -1.0624    1.6885   -4.0702 H   0  0  0  0  0  0  0  0  0  0  0  0
   -2.6844    1.5963   -4.2322 H   0  0  0  0  0  0  0  0  0  0  0  0
   -2.0873    2.5535   -2.5263 N   0  0  0  0  0  4  0  0  0  0  0  0
   -3.0383    2.5655   -2.2180 H   0  0  0  0  0  0  0  0  0  0  0  0
   -1.4901    2.3348   -1.7541 H   0  0  0  0  0  0  0  0  0  0  0  0
   -1.8438    3.4521   -2.8918 H   0  0  0  0  0  0  0  0  0  0  0  0
    0.0055    2.9017   -0.0377 C   0  0  0  0  0  0  0  0  0  0  0  0
    0.8063    3.2196    0.4362 H   0  0  0  0  0  0  0  0  0  0  0  0
   -0.8252    3.2209    0.3807 H   0  0  0  0  0  0  0  0  0  0  0  0
    0.0405    3.2831   -1.0582 H   0  0  0  0  0  0  0  0  0  0  0  0
    0.0025    1.4022    0.0081 C   0  0  0  0  0  0  0  0  0  0  0  0
   -1.2073    0.7049   -0.0143 C   0  0  0  0  0  0  0  0  0  0  0  0
   -2.0645    1.1985   -0.0420 H   0  0  0  0  0  0  0  0  0  0  0  0
   -1.2123   -0.6882    0.0000 C   0  0  0  0  0  0  0  0  0  0  0  0
   -2.0873   -1.1835    0.0048 H   0  0  0  0  0  0  0  0  0  0  0  0
   -0.0041   -1.3965    0.0094 C   0  0  0  0  0  0  0  0  0  0  0  0
   -0.0157   -2.3926    0.0227 H   0  0  0  0  0  0  0  0  0  0  0  0
    1.2123   -0.7061   -0.0000 C   0  0  0  0  0  0  0  0  0  0  0  0
    2.0837   -1.2102   -0.0031 H   0  0  0  0  0  0  0  0  0  0  0  0
    1.2088    0.6836   -0.0032 C   0  0  0  0  0  0  0  0  0  0  0  0
    2.0732    1.1840   -0.0145 H   0  0  0  0  0  0  0  0  0  0  0  0
  1  5  1  0
  5  8  1  0
  1  2  1  0
  1  3  1  0
  1  4  1  0
  5  6  1  0
  5  7  1  0
  8  9  1  0
  8 10  1  0
  8 11  1  0
 12 16  1  0
 16 17  2  0
 17 19  1  0
 19 21  2  0
 21 23  1  0
 23 25  2  0
 25 16  1  0
 12 13  1  0
 12 14  1  0
 12 15  1  0
 17 18  1  0
 19 20  1  0
 21 22  1  0
 23 24  1  0
 25 26  1  0
M  CHG  1   8   1
M  END
>  <PDB_ID>  (2558) 
pdb3tmg

>  <RESIDUE_NAME>  (2558) 
LYS   PHE

>  <FRAG_NAME>  (2558) 
ETAM   MBZ

>  <FRAG_ATOM_NUM>  (2558) 
fragi: 11  fragj: 15

>  <atom.prop.CHAIN_ID>  (2558) 
A A A A A A A A A A A Z Z Z Z Z Z Z Z Z Z Z Z Z Z Z

>  <atom.prop.IS_HEAVY_ATOM>  (2558) 
1 0 0 0 1 0 0 1 0 0 0 1 0 0 0 1 1 0 1 0 1 0 1 0 1 0

>  <DIFUSE_FUNC_ATOM>  (2558) 
n/a

>  <FINAL_SINGLE_POINT_ENERGY>  (2558) 
0

>  <NONCOV_INTER_ENERGY_QM>  (2558) 
0

>  <FF_Energy>  (2558) 
2.61

>  <QM_Energy>  (2558) 
-5.67

>  <source>  (2558) 
ETAM_MBZ

>  <Index>  (2558) 
27241

$$$$
ETAM-pdb3tmg-B-LYS-93:MBZ-pdb3tmg-B-PHE-89
     RDKit          3D

 26 25  0  0  0  0  0  0  0  0999 V2000
   -1.1008   -0.5261    4.8384 C   0  0  0  0  0  0  0  0  0  0  0  0
   -0.1961   -0.2584    4.5029 H   0  0  0  0  0  0  0  0  0  0  0  0
   -1.0329   -1.4091    5.3061 H   0  0  0  0  0  0  0  0  0  0  0  0
   -1.4463    0.2233    5.5505 H   0  0  0  0  0  0  0  0  0  0  0  0
   -2.0296   -0.6775    3.6542 C   0  0  0  0  0  0  0  0  0  0  0  0
   -2.9346   -0.9500    3.9805 H   0  0  0  0  0  0  0  0  0  0  0  0
   -2.0987    0.1988    3.1776 H   0  0  0  0  0  0  0  0  0  0  0  0
   -1.5187   -1.7055    2.7136 N   0  0  0  0  0  4  0  0  0  0  0  0
   -1.6408   -2.6146    3.1143 H   0  0  0  0  0  0  0  0  0  0  0  0
   -2.0233   -1.6509    1.8524 H   0  0  0  0  0  0  0  0  0  0  0  0
   -0.5459   -1.5462    2.5408 H   0  0  0  0  0  0  0  0  0  0  0  0
    0.0060    2.9106    0.0195 C   0  0  0  0  0  0  0  0  0  0  0  0
   -0.5560    3.2299   -0.7271 H   0  0  0  0  0  0  0  0  0  0  0  0
    0.9404    3.2163   -0.0739 H   0  0  0  0  0  0  0  0  0  0  0  0
   -0.3911    3.3404    0.9391 H   0  0  0  0  0  0  0  0  0  0  0  0
    0.0022    1.4039   -0.0028 C   0  0  0  0  0  0  0  0  0  0  0  0
   -1.2062    0.6890   -0.0001 C   0  0  0  0  0  0  0  0  0  0  0  0
   -2.0669    1.1825    0.0000 H   0  0  0  0  0  0  0  0  0  0  0  0
   -1.2073   -0.7007   -0.0000 C   0  0  0  0  0  0  0  0  0  0  0  0
   -2.0792   -1.1992    0.0033 H   0  0  0  0  0  0  0  0  0  0  0  0
    0.0012   -1.3920   -0.0032 C   0  0  0  0  0  0  0  0  0  0  0  0
   -0.0006   -2.3921   -0.0087 H   0  0  0  0  0  0  0  0  0  0  0  0
    1.2073   -0.6953   -0.0000 C   0  0  0  0  0  0  0  0  0  0  0  0
    2.0861   -1.1953   -0.0012 H   0  0  0  0  0  0  0  0  0  0  0  0
    1.2028    0.6951    0.0062 C   0  0  0  0  0  0  0  0  0  0  0  0
    2.0691    1.1929    0.0160 H   0  0  0  0  0  0  0  0  0  0  0  0
  1  5  1  0
  5  8  1  0
  1  2  1  0
  1  3  1  0
  1  4  1  0
  5  6  1  0
  5  7  1  0
  8  9  1  0
  8 10  1  0
  8 11  1  0
 12 16  1  0
 16 17  2  0
 17 19  1  0
 19 21  2  0
 21 23  1  0
 23 25  2  0
 25 16  1  0
 12 13  1  0
 12 14  1  0
 12 15  1  0
 17 18  1  0
 19 20  1  0
 21 22  1  0
 23 24  1  0
 25 26  1  0
M  CHG  1   8   1
M  END
>  <PDB_ID>  (2559) 
pdb3tmg

>  <RESIDUE_NAME>  (2559) 
LYS   PHE

>  <FRAG_NAME>  (2559) 
ETAM   MBZ

>  <FRAG_ATOM_NUM>  (2559) 
fragi: 11  fragj: 15

>  <atom.prop.CHAIN_ID>  (2559) 
A A A A A A A A A A A Z Z Z Z Z Z Z Z Z Z Z Z Z Z Z

>  <atom.prop.IS_HEAVY_ATOM>  (2559) 
1 0 0 0 1 0 0 1 0 0 0 1 0 0 0 1 1 0 1 0 1 0 1 0 1 0

>  <DIFUSE_FUNC_ATOM>  (2559) 
n/a

>  <FINAL_SINGLE_POINT_ENERGY>  (2559) 
0

>  <NONCOV_INTER_ENERGY_QM>  (2559) 
0

>  <FF_Energy>  (2559) 
-2.69

>  <QM_Energy>  (2559) 
-10.76

>  <source>  (2559) 
ETAM_MBZ

>  <Index>  (2559) 
27243

$$$$
ETAM-pdb3tmg-C-LYS-93:MBZ-pdb3tmg-C-PHE-89
     RDKit          3D

 26 25  0  0  0  0  0  0  0  0999 V2000
   -1.3116   -0.7448    4.6294 C   0  0  0  0  0  0  0  0  0  0  0  0
   -0.3611   -0.5181    4.4151 H   0  0  0  0  0  0  0  0  0  0  0  0
   -1.3461   -1.6383    5.0787 H   0  0  0  0  0  0  0  0  0  0  0  0
   -1.7046    0.0071    5.3137 H   0  0  0  0  0  0  0  0  0  0  0  0
   -2.0933   -0.8226    3.3384 C   0  0  0  0  0  0  0  0  0  0  0  0
   -3.0454   -1.0536    3.5436 H   0  0  0  0  0  0  0  0  0  0  0  0
   -2.0601    0.0657    2.8794 H   0  0  0  0  0  0  0  0  0  0  0  0
   -1.5231   -1.8574    2.4399 N   0  0  0  0  0  4  0  0  0  0  0  0
   -2.0645   -2.6958    2.5100 H   0  0  0  0  0  0  0  0  0  0  0  0
   -1.5415   -1.5271    1.4958 H   0  0  0  0  0  0  0  0  0  0  0  0
   -0.5789   -2.0475    2.7086 H   0  0  0  0  0  0  0  0  0  0  0  0
    0.0005    2.9335    0.0187 C   0  0  0  0  0  0  0  0  0  0  0  0
   -0.6250    3.2462   -0.6780 H   0  0  0  0  0  0  0  0  0  0  0  0
    0.9228    3.2400   -0.1553 H   0  0  0  0  0  0  0  0  0  0  0  0
   -0.3178    3.3679    0.9664 H   0  0  0  0  0  0  0  0  0  0  0  0
   -0.0000    1.4191    0.0021 C   0  0  0  0  0  0  0  0  0  0  0  0
   -1.2090    0.6991   -0.0023 C   0  0  0  0  0  0  0  0  0  0  0  0
   -2.0723    1.1874   -0.0086 H   0  0  0  0  0  0  0  0  0  0  0  0
   -1.2099   -0.7028   -0.0000 C   0  0  0  0  0  0  0  0  0  0  0  0
   -2.0864   -1.1945    0.0055 H   0  0  0  0  0  0  0  0  0  0  0  0
   -0.0052   -1.4012   -0.0036 C   0  0  0  0  0  0  0  0  0  0  0  0
   -0.0104   -2.4006   -0.0093 H   0  0  0  0  0  0  0  0  0  0  0  0
    1.2099   -0.7097   -0.0000 C   0  0  0  0  0  0  0  0  0  0  0  0
    2.0845   -1.2099    0.0015 H   0  0  0  0  0  0  0  0  0  0  0  0
    1.2142    0.6954    0.0038 C   0  0  0  0  0  0  0  0  0  0  0  0
    2.0763    1.1879    0.0073 H   0  0  0  0  0  0  0  0  0  0  0  0
  1  5  1  0
  5  8  1  0
  1  2  1  0
  1  3  1  0
  1  4  1  0
  5  6  1  0
  5  7  1  0
  8  9  1  0
  8 10  1  0
  8 11  1  0
 12 16  1  0
 16 17  2  0
 17 19  1  0
 19 21  2  0
 21 23  1  0
 23 25  2  0
 25 16  1  0
 12 13  1  0
 12 14  1  0
 12 15  1  0
 17 18  1  0
 19 20  1  0
 21 22  1  0
 23 24  1  0
 25 26  1  0
M  CHG  1   8   1
M  END
>  <PDB_ID>  (2560) 
pdb3tmg

>  <RESIDUE_NAME>  (2560) 
LYS   PHE

>  <FRAG_NAME>  (2560) 
ETAM   MBZ

>  <FRAG_ATOM_NUM>  (2560) 
fragi: 11  fragj: 15

>  <atom.prop.CHAIN_ID>  (2560) 
A A A A A A A A A A A Z Z Z Z Z Z Z Z Z Z Z Z Z Z Z

>  <atom.prop.IS_HEAVY_ATOM>  (2560) 
1 0 0 0 1 0 0 1 0 0 0 1 0 0 0 1 1 0 1 0 1 0 1 0 1 0

>  <DIFUSE_FUNC_ATOM>  (2560) 
n/a

>  <FINAL_SINGLE_POINT_ENERGY>  (2560) 
0

>  <NONCOV_INTER_ENERGY_QM>  (2560) 
0

>  <FF_Energy>  (2560) 
3.09

>  <QM_Energy>  (2560) 
-6.6

>  <source>  (2560) 
ETAM_MBZ

>  <Index>  (2560) 
27247

$$$$
ETAM-pdb4rpt-A-LYS-739:MBZ-pdb4rpt-A-PHE-831
     RDKit          3D

 26 25  0  0  0  0  0  0  0  0999 V2000
   -1.3246   -4.5921   -2.9898 C   0  0  0  0  0  0  0  0  0  0  0  0
   -1.3114   -4.3953   -3.9672 H   0  0  0  0  0  0  0  0  0  0  0  0
   -1.7215   -5.4930   -2.8296 H   0  0  0  0  0  0  0  0  0  0  0  0
   -0.2988   -4.5918   -2.6211 H   0  0  0  0  0  0  0  0  0  0  0  0
   -2.1913   -3.5492   -2.2951 C   0  0  0  0  0  0  0  0  0  0  0  0
   -1.8041   -2.6373   -2.4710 H   0  0  0  0  0  0  0  0  0  0  0  0
   -3.1164   -3.5817   -2.6899 H   0  0  0  0  0  0  0  0  0  0  0  0
   -2.2813   -3.7652   -0.8243 N   0  0  0  0  0  4  0  0  0  0  0  0
   -2.3053   -4.7461   -0.6351 H   0  0  0  0  0  0  0  0  0  0  0  0
   -1.4843   -3.3572   -0.3808 H   0  0  0  0  0  0  0  0  0  0  0  0
   -3.1151   -3.3363   -0.4772 H   0  0  0  0  0  0  0  0  0  0  0  0
   -0.0052    2.9041    0.0119 C   0  0  0  0  0  0  0  0  0  0  0  0
   -0.6049    3.2183   -0.7083 H   0  0  0  0  0  0  0  0  0  0  0  0
    0.9214    3.2190   -0.1274 H   0  0  0  0  0  0  0  0  0  0  0  0
   -0.3627    3.3280    0.9503 H   0  0  0  0  0  0  0  0  0  0  0  0
    0.0034    1.4033   -0.0087 C   0  0  0  0  0  0  0  0  0  0  0  0
   -1.1897    0.6939    0.0044 C   0  0  0  0  0  0  0  0  0  0  0  0
   -2.0599    1.1809    0.0157 H   0  0  0  0  0  0  0  0  0  0  0  0
   -1.1986   -0.7046    0.0000 C   0  0  0  0  0  0  0  0  0  0  0  0
   -2.0800   -1.1891   -0.0026 H   0  0  0  0  0  0  0  0  0  0  0  0
   -0.0058   -1.3985    0.0018 C   0  0  0  0  0  0  0  0  0  0  0  0
   -0.0008   -2.3953    0.0034 H   0  0  0  0  0  0  0  0  0  0  0  0
    1.1986   -0.6940   -0.0000 C   0  0  0  0  0  0  0  0  0  0  0  0
    2.0790   -1.1905   -0.0020 H   0  0  0  0  0  0  0  0  0  0  0  0
    1.1921    0.6998    0.0026 C   0  0  0  0  0  0  0  0  0  0  0  0
    2.0643    1.1926    0.0124 H   0  0  0  0  0  0  0  0  0  0  0  0
  1  5  1  0
  5  8  1  0
  1  2  1  0
  1  3  1  0
  1  4  1  0
  5  6  1  0
  5  7  1  0
  8  9  1  0
  8 10  1  0
  8 11  1  0
 12 16  1  0
 16 17  2  0
 17 19  1  0
 19 21  2  0
 21 23  1  0
 23 25  2  0
 25 16  1  0
 12 13  1  0
 12 14  1  0
 12 15  1  0
 17 18  1  0
 19 20  1  0
 21 22  1  0
 23 24  1  0
 25 26  1  0
M  CHG  1   8   1
M  END
>  <PDB_ID>  (2561) 
pdb4rpt

>  <RESIDUE_NAME>  (2561) 
LYS   PHE

>  <FRAG_NAME>  (2561) 
ETAM   MBZ

>  <FRAG_ATOM_NUM>  (2561) 
fragi: 11  fragj: 15

>  <atom.prop.CHAIN_ID>  (2561) 
A A A A A A A A A A A Z Z Z Z Z Z Z Z Z Z Z Z Z Z Z

>  <atom.prop.IS_HEAVY_ATOM>  (2561) 
1 0 0 0 1 0 0 1 0 0 0 1 0 0 0 1 1 0 1 0 1 0 1 0 1 0

>  <DIFUSE_FUNC_ATOM>  (2561) 
n/a

>  <FINAL_SINGLE_POINT_ENERGY>  (2561) 
0

>  <NONCOV_INTER_ENERGY_QM>  (2561) 
0

>  <FF_Energy>  (2561) 
1.35

>  <QM_Energy>  (2561) 
-5.53

>  <source>  (2561) 
ETAM_MBZ

>  <Index>  (2561) 
27256

$$$$
ETAM-pdb3tnf-B-LYS-327:MBZ-pdb3tnf-B-PHE-354
     RDKit          3D

 26 25  0  0  0  0  0  0  0  0999 V2000
   -0.8190    0.0579    2.9985 C   0  0  0  0  0  0  0  0  0  0  0  0
   -1.0933    0.2401    3.9432 H   0  0  0  0  0  0  0  0  0  0  0  0
   -1.0136   -0.8959    2.7733 H   0  0  0  0  0  0  0  0  0  0  0  0
   -1.4009    0.6998    2.3371 H   0  0  0  0  0  0  0  0  0  0  0  0
    0.6697    0.2926    2.8714 C   0  0  0  0  0  0  0  0  0  0  0  0
    0.9511    0.1095    1.9304 H   0  0  0  0  0  0  0  0  0  0  0  0
    0.8722    1.2450    3.1001 H   0  0  0  0  0  0  0  0  0  0  0  0
    1.4197   -0.6011    3.7898 N   0  0  0  0  0  4  0  0  0  0  0  0
    1.8654   -1.3231    3.2604 H   0  0  0  0  0  0  0  0  0  0  0  0
    2.1121   -0.0705    4.2798 H   0  0  0  0  0  0  0  0  0  0  0  0
    0.7875   -1.0110    4.4463 H   0  0  0  0  0  0  0  0  0  0  0  0
    0.0034    2.8999   -0.0069 C   0  0  0  0  0  0  0  0  0  0  0  0
    0.6779    3.2106    0.6431 H   0  0  0  0  0  0  0  0  0  0  0  0
   -0.9024    3.2106    0.2298 H   0  0  0  0  0  0  0  0  0  0  0  0
    0.2570    3.3239   -0.9785 H   0  0  0  0  0  0  0  0  0  0  0  0
    0.0003    1.3983    0.0040 C   0  0  0  0  0  0  0  0  0  0  0  0
   -1.1978    0.6915   -0.0061 C   0  0  0  0  0  0  0  0  0  0  0  0
   -2.0629    1.1843   -0.0195 H   0  0  0  0  0  0  0  0  0  0  0  0
   -1.2045   -0.6965   -0.0000 C   0  0  0  0  0  0  0  0  0  0  0  0
   -2.0798   -1.1909    0.0034 H   0  0  0  0  0  0  0  0  0  0  0  0
   -0.0016   -1.3906    0.0031 C   0  0  0  0  0  0  0  0  0  0  0  0
   -0.0037   -2.3903    0.0066 H   0  0  0  0  0  0  0  0  0  0  0  0
    1.2045   -0.6944   -0.0000 C   0  0  0  0  0  0  0  0  0  0  0  0
    2.0827   -1.1962    0.0004 H   0  0  0  0  0  0  0  0  0  0  0  0
    1.1991    0.6917   -0.0011 C   0  0  0  0  0  0  0  0  0  0  0  0
    2.0655    1.1910   -0.0065 H   0  0  0  0  0  0  0  0  0  0  0  0
  1  5  1  0
  5  8  1  0
  1  2  1  0
  1  3  1  0
  1  4  1  0
  5  6  1  0
  5  7  1  0
  8  9  1  0
  8 10  1  0
  8 11  1  0
 12 16  1  0
 16 17  2  0
 17 19  1  0
 19 21  2  0
 21 23  1  0
 23 25  2  0
 25 16  1  0
 12 13  1  0
 12 14  1  0
 12 15  1  0
 17 18  1  0
 19 20  1  0
 21 22  1  0
 23 24  1  0
 25 26  1  0
M  CHG  1   8   1
M  END
>  <PDB_ID>  (2562) 
pdb3tnf

>  <RESIDUE_NAME>  (2562) 
LYS   PHE

>  <FRAG_NAME>  (2562) 
ETAM   MBZ

>  <FRAG_ATOM_NUM>  (2562) 
fragi: 11  fragj: 15

>  <atom.prop.CHAIN_ID>  (2562) 
A A A A A A A A A A A Z Z Z Z Z Z Z Z Z Z Z Z Z Z Z

>  <atom.prop.IS_HEAVY_ATOM>  (2562) 
1 0 0 0 1 0 0 1 0 0 0 1 0 0 0 1 1 0 1 0 1 0 1 0 1 0

>  <DIFUSE_FUNC_ATOM>  (2562) 
n/a

>  <FINAL_SINGLE_POINT_ENERGY>  (2562) 
0

>  <NONCOV_INTER_ENERGY_QM>  (2562) 
0

>  <FF_Energy>  (2562) 
29.43

>  <QM_Energy>  (2562) 
-1.35

>  <source>  (2562) 
ETAM_MBZ

>  <Index>  (2562) 
27260

$$$$
ETAM-pdb3tnl-A-LYS-4:MBZ-pdb3tnl-B-PHE-291
     RDKit          3D

 26 25  0  0  0  0  0  0  0  0999 V2000
   -2.6529   -2.4201    3.8233 C   0  0  0  0  0  0  0  0  0  0  0  0
   -2.8420   -1.5324    3.4162 H   0  0  0  0  0  0  0  0  0  0  0  0
   -3.1615   -2.5259    4.6723 H   0  0  0  0  0  0  0  0  0  0  0  0
   -1.5881   -2.4763    4.0493 H   0  0  0  0  0  0  0  0  0  0  0  0
   -3.1239   -3.5039    2.8468 C   0  0  0  0  0  0  0  0  0  0  0  0
   -2.8345   -4.3844    3.2500 H   0  0  0  0  0  0  0  0  0  0  0  0
   -4.2107   -3.4985    2.7625 H   0  0  0  0  0  0  0  0  0  0  0  0
   -2.4262   -3.3479    1.5290 N   0  0  0  0  0  4  0  0  0  0  0  0
   -2.1311   -4.2441    1.2125 H   0  0  0  0  0  0  0  0  0  0  0  0
   -3.0596   -2.9468    0.8739 H   0  0  0  0  0  0  0  0  0  0  0  0
   -1.6382   -2.7525    1.6497 H   0  0  0  0  0  0  0  0  0  0  0  0
    0.0068    2.9277   -0.0051 C   0  0  0  0  0  0  0  0  0  0  0  0
   -0.6121    3.2287   -0.7126 H   0  0  0  0  0  0  0  0  0  0  0  0
    0.9309    3.2261   -0.1787 H   0  0  0  0  0  0  0  0  0  0  0  0
   -0.3163    3.3841    0.9305 H   0  0  0  0  0  0  0  0  0  0  0  0
   -0.0006    1.4117    0.0099 C   0  0  0  0  0  0  0  0  0  0  0  0
   -1.2017    0.6990   -0.0064 C   0  0  0  0  0  0  0  0  0  0  0  0
   -2.0674    1.1862   -0.0241 H   0  0  0  0  0  0  0  0  0  0  0  0
   -1.2074   -0.7018    0.0000 C   0  0  0  0  0  0  0  0  0  0  0  0
   -2.0815   -1.1925    0.0056 H   0  0  0  0  0  0  0  0  0  0  0  0
    0.0013   -1.4024   -0.0004 C   0  0  0  0  0  0  0  0  0  0  0  0
   -0.0038   -2.3988   -0.0020 H   0  0  0  0  0  0  0  0  0  0  0  0
    1.2074   -0.7024    0.0000 C   0  0  0  0  0  0  0  0  0  0  0  0
    2.0869   -1.1979    0.0043 H   0  0  0  0  0  0  0  0  0  0  0  0
    1.2011    0.6958   -0.0032 C   0  0  0  0  0  0  0  0  0  0  0  0
    2.0681    1.1916   -0.0157 H   0  0  0  0  0  0  0  0  0  0  0  0
  1  5  1  0
  5  8  1  0
  1  2  1  0
  1  3  1  0
  1  4  1  0
  5  6  1  0
  5  7  1  0
  8  9  1  0
  8 10  1  0
  8 11  1  0
 12 16  1  0
 16 17  2  0
 17 19  1  0
 19 21  2  0
 21 23  1  0
 23 25  2  0
 25 16  1  0
 12 13  1  0
 12 14  1  0
 12 15  1  0
 17 18  1  0
 19 20  1  0
 21 22  1  0
 23 24  1  0
 25 26  1  0
M  CHG  1   8   1
M  END
>  <PDB_ID>  (2563) 
pdb3tnl

>  <RESIDUE_NAME>  (2563) 
LYS   PHE

>  <FRAG_NAME>  (2563) 
ETAM   MBZ

>  <FRAG_ATOM_NUM>  (2563) 
fragi: 11  fragj: 15

>  <atom.prop.CHAIN_ID>  (2563) 
A A A A A A A A A A A Z Z Z Z Z Z Z Z Z Z Z Z Z Z Z

>  <atom.prop.IS_HEAVY_ATOM>  (2563) 
1 0 0 0 1 0 0 1 0 0 0 1 0 0 0 1 1 0 1 0 1 0 1 0 1 0

>  <DIFUSE_FUNC_ATOM>  (2563) 
n/a

>  <FINAL_SINGLE_POINT_ENERGY>  (2563) 
0

>  <NONCOV_INTER_ENERGY_QM>  (2563) 
0

>  <FF_Energy>  (2563) 
0.46

>  <QM_Energy>  (2563) 
-6.32

>  <source>  (2563) 
ETAM_MBZ

>  <Index>  (2563) 
27262

$$$$
ETAM-pdb3tox-B-LYS-257:MBZ-pdb3tox-A-PHE-146
     RDKit          3D

 26 25  0  0  0  0  0  0  0  0999 V2000
   -3.8427   -2.4667   -2.1307 C   0  0  0  0  0  0  0  0  0  0  0  0
   -3.4774   -2.4951   -1.2018 H   0  0  0  0  0  0  0  0  0  0  0  0
   -3.5153   -3.2546   -2.6472 H   0  0  0  0  0  0  0  0  0  0  0  0
   -4.9244   -2.5708   -2.0463 H   0  0  0  0  0  0  0  0  0  0  0  0
   -3.4409   -1.2047   -2.8048 C   0  0  0  0  0  0  0  0  0  0  0  0
   -3.8222   -1.1797   -3.7307 H   0  0  0  0  0  0  0  0  0  0  0  0
   -3.7841   -0.4191   -2.2862 H   0  0  0  0  0  0  0  0  0  0  0  0
   -1.9648   -1.1151   -2.8910 N   0  0  0  0  0  4  0  0  0  0  0  0
   -1.6429   -0.3457   -2.3378 H   0  0  0  0  0  0  0  0  0  0  0  0
   -1.5567   -1.9624   -2.5500 H   0  0  0  0  0  0  0  0  0  0  0  0
   -1.6932   -0.9752   -3.8439 H   0  0  0  0  0  0  0  0  0  0  0  0
    0.0191    2.9125   -0.0396 C   0  0  0  0  0  0  0  0  0  0  0  0
   -0.8348    3.2175   -0.4343 H   0  0  0  0  0  0  0  0  0  0  0  0
    0.7913    3.2115   -0.5804 H   0  0  0  0  0  0  0  0  0  0  0  0
    0.1092    3.3789    0.9414 H   0  0  0  0  0  0  0  0  0  0  0  0
    0.0157    1.4129   -0.0107 C   0  0  0  0  0  0  0  0  0  0  0  0
   -1.1873    0.6903   -0.0075 C   0  0  0  0  0  0  0  0  0  0  0  0
   -2.0552    1.1783   -0.0114 H   0  0  0  0  0  0  0  0  0  0  0  0
   -1.1989   -0.7161   -0.0000 C   0  0  0  0  0  0  0  0  0  0  0  0
   -2.0946   -1.1862   -0.0050 H   0  0  0  0  0  0  0  0  0  0  0  0
   -0.0329   -1.4100    0.0156 C   0  0  0  0  0  0  0  0  0  0  0  0
   -0.0079   -2.4016    0.0373 H   0  0  0  0  0  0  0  0  0  0  0  0
    1.1989   -0.6908    0.0000 C   0  0  0  0  0  0  0  0  0  0  0  0
    2.0694   -1.1982   -0.0116 H   0  0  0  0  0  0  0  0  0  0  0  0
    1.2045    0.7137    0.0025 C   0  0  0  0  0  0  0  0  0  0  0  0
    2.0758    1.1960    0.0133 H   0  0  0  0  0  0  0  0  0  0  0  0
  1  5  1  0
  5  8  1  0
  1  2  1  0
  1  3  1  0
  1  4  1  0
  5  6  1  0
  5  7  1  0
  8  9  1  0
  8 10  1  0
  8 11  1  0
 12 16  1  0
 16 17  2  0
 17 19  1  0
 19 21  2  0
 21 23  1  0
 23 25  2  0
 25 16  1  0
 12 13  1  0
 12 14  1  0
 12 15  1  0
 17 18  1  0
 19 20  1  0
 21 22  1  0
 23 24  1  0
 25 26  1  0
M  CHG  1   8   1
M  END
>  <PDB_ID>  (2564) 
pdb3tox

>  <RESIDUE_NAME>  (2564) 
LYS   PHE

>  <FRAG_NAME>  (2564) 
ETAM   MBZ

>  <FRAG_ATOM_NUM>  (2564) 
fragi: 11  fragj: 15

>  <atom.prop.CHAIN_ID>  (2564) 
A A A A A A A A A A A Z Z Z Z Z Z Z Z Z Z Z Z Z Z Z

>  <atom.prop.IS_HEAVY_ATOM>  (2564) 
1 0 0 0 1 0 0 1 0 0 0 1 0 0 0 1 1 0 1 0 1 0 1 0 1 0

>  <DIFUSE_FUNC_ATOM>  (2564) 
n/a

>  <FINAL_SINGLE_POINT_ENERGY>  (2564) 
0

>  <NONCOV_INTER_ENERGY_QM>  (2564) 
0

>  <FF_Energy>  (2564) 
-4.38

>  <QM_Energy>  (2564) 
-12.28

>  <source>  (2564) 
ETAM_MBZ

>  <Index>  (2564) 
27281

$$$$
ETAM-pdb3tox-E-LYS-257:MBZ-pdb3tox-D-PHE-153
     RDKit          3D

 26 25  0  0  0  0  0  0  0  0999 V2000
    0.1095   -2.4430   -2.7858 C   0  0  0  0  0  0  0  0  0  0  0  0
   -0.4049   -2.0222   -2.0453 H   0  0  0  0  0  0  0  0  0  0  0  0
    0.9995   -2.7445   -2.4627 H   0  0  0  0  0  0  0  0  0  0  0  0
   -0.4462   -3.2951   -3.1771 H   0  0  0  0  0  0  0  0  0  0  0  0
    0.3383   -1.3699   -3.8688 C   0  0  0  0  0  0  0  0  0  0  0  0
    0.8562   -1.7789   -4.6125 H   0  0  0  0  0  0  0  0  0  0  0  0
   -0.5472   -1.0569   -4.1951 H   0  0  0  0  0  0  0  0  0  0  0  0
    1.0963   -0.2272   -3.2985 N   0  0  0  0  0  4  0  0  0  0  0  0
    0.7534    0.6276   -3.6886 H   0  0  0  0  0  0  0  0  0  0  0  0
    0.9776   -0.2119   -2.3051 H   0  0  0  0  0  0  0  0  0  0  0  0
    2.0670   -0.3283   -3.5178 H   0  0  0  0  0  0  0  0  0  0  0  0
   -0.0156    2.9144   -0.0442 C   0  0  0  0  0  0  0  0  0  0  0  0
    0.8667    3.2384    0.2432 H   0  0  0  0  0  0  0  0  0  0  0  0
   -0.7381    3.2271    0.5445 H   0  0  0  0  0  0  0  0  0  0  0  0
   -0.2058    3.3201   -1.0379 H   0  0  0  0  0  0  0  0  0  0  0  0
    0.0014    1.4029   -0.0111 C   0  0  0  0  0  0  0  0  0  0  0  0
   -1.2097    0.6632    0.0041 C   0  0  0  0  0  0  0  0  0  0  0  0
   -2.0715    1.1629    0.0160 H   0  0  0  0  0  0  0  0  0  0  0  0
   -1.2053   -0.7114    0.0000 C   0  0  0  0  0  0  0  0  0  0  0  0
   -2.0731   -1.2201   -0.0157 H   0  0  0  0  0  0  0  0  0  0  0  0
    0.0042   -1.3920    0.0188 C   0  0  0  0  0  0  0  0  0  0  0  0
    0.0118   -2.3923    0.0462 H   0  0  0  0  0  0  0  0  0  0  0  0
    1.2053   -0.6870    0.0000 C   0  0  0  0  0  0  0  0  0  0  0  0
    2.0906   -1.1763   -0.0042 H   0  0  0  0  0  0  0  0  0  0  0  0
    1.2042    0.7242   -0.0117 C   0  0  0  0  0  0  0  0  0  0  0  0
    2.0648    1.2106   -0.0213 H   0  0  0  0  0  0  0  0  0  0  0  0
  1  5  1  0
  5  8  1  0
  1  2  1  0
  1  3  1  0
  1  4  1  0
  5  6  1  0
  5  7  1  0
  8  9  1  0
  8 10  1  0
  8 11  1  0
 12 16  1  0
 16 17  2  0
 17 19  1  0
 19 21  2  0
 21 23  1  0
 23 25  2  0
 25 16  1  0
 12 13  1  0
 12 14  1  0
 12 15  1  0
 17 18  1  0
 19 20  1  0
 21 22  1  0
 23 24  1  0
 25 26  1  0
M  CHG  1   8   1
M  END
>  <PDB_ID>  (2565) 
pdb3tox

>  <RESIDUE_NAME>  (2565) 
LYS   PHE

>  <FRAG_NAME>  (2565) 
ETAM   MBZ

>  <FRAG_ATOM_NUM>  (2565) 
fragi: 11  fragj: 15

>  <atom.prop.CHAIN_ID>  (2565) 
A A A A A A A A A A A Z Z Z Z Z Z Z Z Z Z Z Z Z Z Z

>  <atom.prop.IS_HEAVY_ATOM>  (2565) 
1 0 0 0 1 0 0 1 0 0 0 1 0 0 0 1 1 0 1 0 1 0 1 0 1 0

>  <DIFUSE_FUNC_ATOM>  (2565) 
n/a

>  <FINAL_SINGLE_POINT_ENERGY>  (2565) 
0

>  <NONCOV_INTER_ENERGY_QM>  (2565) 
0

>  <FF_Energy>  (2565) 
-0.58

>  <QM_Energy>  (2565) 
-11.48

>  <source>  (2565) 
ETAM_MBZ

>  <Index>  (2565) 
27282

$$$$
ETAM-pdb4rsh-A-LYS-93:MBZ-pdb4rsh-A-PHE-65
     RDKit          3D

 26 25  0  0  0  0  0  0  0  0999 V2000
   -1.8033    0.1483    4.8652 C   0  0  0  0  0  0  0  0  0  0  0  0
   -1.1629   -0.2964    5.4848 H   0  0  0  0  0  0  0  0  0  0  0  0
   -2.6155    0.4410    5.3601 H   0  0  0  0  0  0  0  0  0  0  0  0
   -1.3221    1.0216    4.4248 H   0  0  0  0  0  0  0  0  0  0  0  0
   -2.2138   -0.8399    3.8009 C   0  0  0  0  0  0  0  0  0  0  0  0
   -2.7924   -1.5405    4.2074 H   0  0  0  0  0  0  0  0  0  0  0  0
   -2.7093   -0.3623    3.0811 H   0  0  0  0  0  0  0  0  0  0  0  0
   -1.0044   -1.4785    3.2225 N   0  0  0  0  0  4  0  0  0  0  0  0
   -0.1863   -1.0814    3.6396 H   0  0  0  0  0  0  0  0  0  0  0  0
   -1.0274   -2.4623    3.4036 H   0  0  0  0  0  0  0  0  0  0  0  0
   -0.9852   -1.3217    2.2350 H   0  0  0  0  0  0  0  0  0  0  0  0
    0.0221    2.8617   -0.0283 C   0  0  0  0  0  0  0  0  0  0  0  0
    0.8499    3.1771    0.4144 H   0  0  0  0  0  0  0  0  0  0  0  0
   -0.7832    3.1999    0.4378 H   0  0  0  0  0  0  0  0  0  0  0  0
    0.0134    3.2748   -1.0370 H   0  0  0  0  0  0  0  0  0  0  0  0
    0.0020    1.3897   -0.0036 C   0  0  0  0  0  0  0  0  0  0  0  0
   -1.1888    0.7159   -0.0024 C   0  0  0  0  0  0  0  0  0  0  0  0
   -2.0520    1.2150   -0.0050 H   0  0  0  0  0  0  0  0  0  0  0  0
   -1.2048   -0.6619    0.0000 C   0  0  0  0  0  0  0  0  0  0  0  0
   -2.0863   -1.1551   -0.0100 H   0  0  0  0  0  0  0  0  0  0  0  0
   -0.0078   -1.3857    0.0177 C   0  0  0  0  0  0  0  0  0  0  0  0
   -0.0405   -2.3846    0.0424 H   0  0  0  0  0  0  0  0  0  0  0  0
    1.2048   -0.7218   -0.0000 C   0  0  0  0  0  0  0  0  0  0  0  0
    2.0731   -1.2236   -0.0029 H   0  0  0  0  0  0  0  0  0  0  0  0
    1.1946    0.6637   -0.0118 C   0  0  0  0  0  0  0  0  0  0  0  0
    2.0680    1.1638   -0.0279 H   0  0  0  0  0  0  0  0  0  0  0  0
  1  5  1  0
  5  8  1  0
  1  2  1  0
  1  3  1  0
  1  4  1  0
  5  6  1  0
  5  7  1  0
  8  9  1  0
  8 10  1  0
  8 11  1  0
 12 16  1  0
 16 17  2  0
 17 19  1  0
 19 21  2  0
 21 23  1  0
 23 25  2  0
 25 16  1  0
 12 13  1  0
 12 14  1  0
 12 15  1  0
 17 18  1  0
 19 20  1  0
 21 22  1  0
 23 24  1  0
 25 26  1  0
M  CHG  1   8   1
M  END
>  <PDB_ID>  (2566) 
pdb4rsh

>  <RESIDUE_NAME>  (2566) 
LYS   PHE

>  <FRAG_NAME>  (2566) 
ETAM   MBZ

>  <FRAG_ATOM_NUM>  (2566) 
fragi: 11  fragj: 15

>  <atom.prop.CHAIN_ID>  (2566) 
A A A A A A A A A A A Z Z Z Z Z Z Z Z Z Z Z Z Z Z Z

>  <atom.prop.IS_HEAVY_ATOM>  (2566) 
1 0 0 0 1 0 0 1 0 0 0 1 0 0 0 1 1 0 1 0 1 0 1 0 1 0

>  <DIFUSE_FUNC_ATOM>  (2566) 
n/a

>  <FINAL_SINGLE_POINT_ENERGY>  (2566) 
0

>  <NONCOV_INTER_ENERGY_QM>  (2566) 
0

>  <FF_Energy>  (2566) 
-6.29

>  <QM_Energy>  (2566) 
-14.22

>  <source>  (2566) 
ETAM_MBZ

>  <Index>  (2566) 
27285

$$$$
ETAM-pdb4rsh-B-LYS-93:MBZ-pdb4rsh-B-PHE-65
     RDKit          3D

 26 25  0  0  0  0  0  0  0  0999 V2000
    2.0036    0.2715   -4.4966 C   0  0  0  0  0  0  0  0  0  0  0  0
    1.6330   -0.1727   -5.3093 H   0  0  0  0  0  0  0  0  0  0  0  0
    2.8934    0.6719   -4.7040 H   0  0  0  0  0  0  0  0  0  0  0  0
    1.3237    1.0682   -4.1949 H   0  0  0  0  0  0  0  0  0  0  0  0
    2.1792   -0.7697   -3.4096 C   0  0  0  0  0  0  0  0  0  0  0  0
    2.8283   -1.4598   -3.7170 H   0  0  0  0  0  0  0  0  0  0  0  0
    2.5164   -0.3285   -2.5829 H   0  0  0  0  0  0  0  0  0  0  0  0
    0.8708   -1.4257   -3.1140 N   0  0  0  0  0  4  0  0  0  0  0  0
    0.4395   -1.7007   -3.9717 H   0  0  0  0  0  0  0  0  0  0  0  0
    1.0273   -2.2299   -2.5427 H   0  0  0  0  0  0  0  0  0  0  0  0
    0.2805   -0.7801   -2.6324 H   0  0  0  0  0  0  0  0  0  0  0  0
   -0.0025    2.9183    0.0031 C   0  0  0  0  0  0  0  0  0  0  0  0
   -0.7832    3.2216   -0.5185 H   0  0  0  0  0  0  0  0  0  0  0  0
    0.8454    3.2286   -0.3953 H   0  0  0  0  0  0  0  0  0  0  0  0
   -0.0794    3.3509    1.0007 H   0  0  0  0  0  0  0  0  0  0  0  0
    0.0036    1.4129   -0.0003 C   0  0  0  0  0  0  0  0  0  0  0  0
   -1.2008    0.6886   -0.0011 C   0  0  0  0  0  0  0  0  0  0  0  0
   -2.0660    1.1741   -0.0040 H   0  0  0  0  0  0  0  0  0  0  0  0
   -1.1946   -0.7078    0.0000 C   0  0  0  0  0  0  0  0  0  0  0  0
   -2.0757   -1.2008   -0.0066 H   0  0  0  0  0  0  0  0  0  0  0  0
   -0.0016   -1.3978    0.0124 C   0  0  0  0  0  0  0  0  0  0  0  0
    0.0002   -2.3977    0.0300 H   0  0  0  0  0  0  0  0  0  0  0  0
    1.1946   -0.6997   -0.0000 C   0  0  0  0  0  0  0  0  0  0  0  0
    2.0802   -1.1934    0.0005 H   0  0  0  0  0  0  0  0  0  0  0  0
    1.1988    0.7039   -0.0110 C   0  0  0  0  0  0  0  0  0  0  0  0
    2.0678    1.1896   -0.0274 H   0  0  0  0  0  0  0  0  0  0  0  0
  1  5  1  0
  5  8  1  0
  1  2  1  0
  1  3  1  0
  1  4  1  0
  5  6  1  0
  5  7  1  0
  8  9  1  0
  8 10  1  0
  8 11  1  0
 12 16  1  0
 16 17  2  0
 17 19  1  0
 19 21  2  0
 21 23  1  0
 23 25  2  0
 25 16  1  0
 12 13  1  0
 12 14  1  0
 12 15  1  0
 17 18  1  0
 19 20  1  0
 21 22  1  0
 23 24  1  0
 25 26  1  0
M  CHG  1   8   1
M  END
>  <PDB_ID>  (2567) 
pdb4rsh

>  <RESIDUE_NAME>  (2567) 
LYS   PHE

>  <FRAG_NAME>  (2567) 
ETAM   MBZ

>  <FRAG_ATOM_NUM>  (2567) 
fragi: 11  fragj: 15

>  <atom.prop.CHAIN_ID>  (2567) 
A A A A A A A A A A A Z Z Z Z Z Z Z Z Z Z Z Z Z Z Z

>  <atom.prop.IS_HEAVY_ATOM>  (2567) 
1 0 0 0 1 0 0 1 0 0 0 1 0 0 0 1 1 0 1 0 1 0 1 0 1 0

>  <DIFUSE_FUNC_ATOM>  (2567) 
n/a

>  <FINAL_SINGLE_POINT_ENERGY>  (2567) 
0

>  <NONCOV_INTER_ENERGY_QM>  (2567) 
0

>  <FF_Energy>  (2567) 
-6.36

>  <QM_Energy>  (2567) 
-13.6

>  <source>  (2567) 
ETAM_MBZ

>  <Index>  (2567) 
27287

$$$$
ETAM-pdb3tqh-A-LYS-265:MBZ-pdb3tqh-A-PHE-98
     RDKit          3D

 26 25  0  0  0  0  0  0  0  0999 V2000
   -0.4174   -1.6630   -5.3679 C   0  0  0  0  0  0  0  0  0  0  0  0
   -0.4743   -0.9996   -6.1163 H   0  0  0  0  0  0  0  0  0  0  0  0
   -1.3091   -2.1018   -5.2464 H   0  0  0  0  0  0  0  0  0  0  0  0
    0.3151   -2.4257   -5.6322 H   0  0  0  0  0  0  0  0  0  0  0  0
   -0.0691   -0.9170   -4.0880 C   0  0  0  0  0  0  0  0  0  0  0  0
    0.4053   -1.5393   -3.4640 H   0  0  0  0  0  0  0  0  0  0  0  0
    0.5321   -0.1481   -4.3092 H   0  0  0  0  0  0  0  0  0  0  0  0
   -1.2994   -0.3877   -3.4021 N   0  0  0  0  0  4  0  0  0  0  0  0
   -1.1782   -0.4657   -2.4156 H   0  0  0  0  0  0  0  0  0  0  0  0
   -1.4253    0.5683   -3.6563 H   0  0  0  0  0  0  0  0  0  0  0  0
   -2.0880   -0.9239   -3.6925 H   0  0  0  0  0  0  0  0  0  0  0  0
    0.0008    2.9119    0.0058 C   0  0  0  0  0  0  0  0  0  0  0  0
   -0.7497    3.2199   -0.5563 H   0  0  0  0  0  0  0  0  0  0  0  0
    0.8698    3.2169   -0.3503 H   0  0  0  0  0  0  0  0  0  0  0  0
   -0.1247    3.3439    0.9986 H   0  0  0  0  0  0  0  0  0  0  0  0
   -0.0010    1.4047   -0.0024 C   0  0  0  0  0  0  0  0  0  0  0  0
   -1.1973    0.6979    0.0008 C   0  0  0  0  0  0  0  0  0  0  0  0
   -2.0649    1.1862    0.0027 H   0  0  0  0  0  0  0  0  0  0  0  0
   -1.2025   -0.6972   -0.0000 C   0  0  0  0  0  0  0  0  0  0  0  0
   -2.0787   -1.1893    0.0008 H   0  0  0  0  0  0  0  0  0  0  0  0
    0.0014   -1.3962   -0.0004 C   0  0  0  0  0  0  0  0  0  0  0  0
   -0.0051   -2.3941   -0.0011 H   0  0  0  0  0  0  0  0  0  0  0  0
    1.2025   -0.7008   -0.0000 C   0  0  0  0  0  0  0  0  0  0  0  0
    2.0835   -1.1967    0.0002 H   0  0  0  0  0  0  0  0  0  0  0  0
    1.1969    0.6916    0.0021 C   0  0  0  0  0  0  0  0  0  0  0  0
    2.0658    1.1881    0.0065 H   0  0  0  0  0  0  0  0  0  0  0  0
  1  5  1  0
  5  8  1  0
  1  2  1  0
  1  3  1  0
  1  4  1  0
  5  6  1  0
  5  7  1  0
  8  9  1  0
  8 10  1  0
  8 11  1  0
 12 16  1  0
 16 17  2  0
 17 19  1  0
 19 21  2  0
 21 23  1  0
 23 25  2  0
 25 16  1  0
 12 13  1  0
 12 14  1  0
 12 15  1  0
 17 18  1  0
 19 20  1  0
 21 22  1  0
 23 24  1  0
 25 26  1  0
M  CHG  1   8   1
M  END
>  <PDB_ID>  (2568) 
pdb3tqh

>  <RESIDUE_NAME>  (2568) 
LYS   PHE

>  <FRAG_NAME>  (2568) 
ETAM   MBZ

>  <FRAG_ATOM_NUM>  (2568) 
fragi: 11  fragj: 15

>  <atom.prop.CHAIN_ID>  (2568) 
A A A A A A A A A A A Z Z Z Z Z Z Z Z Z Z Z Z Z Z Z

>  <atom.prop.IS_HEAVY_ATOM>  (2568) 
1 0 0 0 1 0 0 1 0 0 0 1 0 0 0 1 1 0 1 0 1 0 1 0 1 0

>  <DIFUSE_FUNC_ATOM>  (2568) 
n/a

>  <FINAL_SINGLE_POINT_ENERGY>  (2568) 
0

>  <NONCOV_INTER_ENERGY_QM>  (2568) 
0

>  <FF_Energy>  (2568) 
-7.24

>  <QM_Energy>  (2568) 
-14.31

>  <source>  (2568) 
ETAM_MBZ

>  <Index>  (2568) 
27292

$$$$
ETAM-pdb3tng-A-LYS-288:MBZ-pdb3tng-A-PHE-16
     RDKit          3D

 26 25  0  0  0  0  0  0  0  0999 V2000
   -3.8549   -2.4201    1.1949 C   0  0  0  0  0  0  0  0  0  0  0  0
   -3.2000   -1.8028    0.7714 H   0  0  0  0  0  0  0  0  0  0  0  0
   -4.3031   -2.9767    0.5024 H   0  0  0  0  0  0  0  0  0  0  0  0
   -3.3259   -3.0751    1.8873 H   0  0  0  0  0  0  0  0  0  0  0  0
   -4.9109   -1.5911    1.9088 C   0  0  0  0  0  0  0  0  0  0  0  0
   -5.6992   -2.1774    2.1166 H   0  0  0  0  0  0  0  0  0  0  0  0
   -4.5275   -1.2485    2.7713 H   0  0  0  0  0  0  0  0  0  0  0  0
   -5.3662   -0.4353    1.0850 N   0  0  0  0  0  4  0  0  0  0  0  0
   -4.7665   -0.3385    0.2916 H   0  0  0  0  0  0  0  0  0  0  0  0
   -6.3038   -0.5962    0.7797 H   0  0  0  0  0  0  0  0  0  0  0  0
   -5.3312    0.3979    1.6357 H   0  0  0  0  0  0  0  0  0  0  0  0
    0.0123    2.8926   -0.0123 C   0  0  0  0  0  0  0  0  0  0  0  0
    0.9131    3.1984   -0.2803 H   0  0  0  0  0  0  0  0  0  0  0  0
   -0.2234    3.2158    0.8920 H   0  0  0  0  0  0  0  0  0  0  0  0
   -0.7011    3.3312   -0.7100 H   0  0  0  0  0  0  0  0  0  0  0  0
    0.0032    1.4001    0.0011 C   0  0  0  0  0  0  0  0  0  0  0  0
   -1.1975    0.7019   -0.0004 C   0  0  0  0  0  0  0  0  0  0  0  0
   -2.0612    1.1950   -0.0031 H   0  0  0  0  0  0  0  0  0  0  0  0
   -1.2090   -0.6926   -0.0000 C   0  0  0  0  0  0  0  0  0  0  0  0
   -2.0870   -1.1817   -0.0016 H   0  0  0  0  0  0  0  0  0  0  0  0
   -0.0074   -1.3969    0.0048 C   0  0  0  0  0  0  0  0  0  0  0  0
   -0.0100   -2.3912    0.0111 H   0  0  0  0  0  0  0  0  0  0  0  0
    1.2090   -0.6972   -0.0000 C   0  0  0  0  0  0  0  0  0  0  0  0
    2.0811   -1.2041    0.0020 H   0  0  0  0  0  0  0  0  0  0  0  0
    1.2017    0.6848   -0.0055 C   0  0  0  0  0  0  0  0  0  0  0  0
    2.0694    1.1873   -0.0155 H   0  0  0  0  0  0  0  0  0  0  0  0
  1  5  1  0
  5  8  1  0
  1  2  1  0
  1  3  1  0
  1  4  1  0
  5  6  1  0
  5  7  1  0
  8  9  1  0
  8 10  1  0
  8 11  1  0
 12 16  1  0
 16 17  2  0
 17 19  1  0
 19 21  2  0
 21 23  1  0
 23 25  2  0
 25 16  1  0
 12 13  1  0
 12 14  1  0
 12 15  1  0
 17 18  1  0
 19 20  1  0
 21 22  1  0
 23 24  1  0
 25 26  1  0
M  CHG  1   8   1
M  END
>  <PDB_ID>  (2569) 
pdb3tng

>  <RESIDUE_NAME>  (2569) 
LYS   PHE

>  <FRAG_NAME>  (2569) 
ETAM   MBZ

>  <FRAG_ATOM_NUM>  (2569) 
fragi: 11  fragj: 15

>  <atom.prop.CHAIN_ID>  (2569) 
A A A A A A A A A A A Z Z Z Z Z Z Z Z Z Z Z Z Z Z Z

>  <atom.prop.IS_HEAVY_ATOM>  (2569) 
1 0 0 0 1 0 0 1 0 0 0 1 0 0 0 1 1 0 1 0 1 0 1 0 1 0

>  <DIFUSE_FUNC_ATOM>  (2569) 
n/a

>  <FINAL_SINGLE_POINT_ENERGY>  (2569) 
0

>  <NONCOV_INTER_ENERGY_QM>  (2569) 
0

>  <FF_Energy>  (2569) 
34.68

>  <QM_Energy>  (2569) 
2.54

>  <source>  (2569) 
ETAM_MBZ

>  <Index>  (2569) 
27299

$$$$
ETAM-pdb4rs7-R-LYS-416:MBZ-pdb4rs7-D-PHE-455
     RDKit          3D

 26 25  0  0  0  0  0  0  0  0999 V2000
    2.9133    0.4909   -4.1799 C   0  0  0  0  0  0  0  0  0  0  0  0
    3.0964   -0.3422   -4.6896 H   0  0  0  0  0  0  0  0  0  0  0  0
    3.0258    1.2877   -4.7623 H   0  0  0  0  0  0  0  0  0  0  0  0
    1.8825    0.4614   -3.8268 H   0  0  0  0  0  0  0  0  0  0  0  0
    3.8849    0.5848   -3.0254 C   0  0  0  0  0  0  0  0  0  0  0  0
    4.8168    0.4899   -3.3730 H   0  0  0  0  0  0  0  0  0  0  0  0
    3.7824    1.4747   -2.5820 H   0  0  0  0  0  0  0  0  0  0  0  0
    3.6206   -0.4880   -2.0350 N   0  0  0  0  0  4  0  0  0  0  0  0
    2.7282   -0.3368   -1.6091 H   0  0  0  0  0  0  0  0  0  0  0  0
    3.6233   -1.3758   -2.4958 H   0  0  0  0  0  0  0  0  0  0  0  0
    4.3315   -0.4758   -1.3312 H   0  0  0  0  0  0  0  0  0  0  0  0
   -0.0017    2.9017    0.0030 C   0  0  0  0  0  0  0  0  0  0  0  0
   -0.5236    3.2081   -0.7788 H   0  0  0  0  0  0  0  0  0  0  0  0
    0.9367    3.2081   -0.0474 H   0  0  0  0  0  0  0  0  0  0  0  0
   -0.4490    3.3396    0.8954 H   0  0  0  0  0  0  0  0  0  0  0  0
   -0.0001    1.3981    0.0016 C   0  0  0  0  0  0  0  0  0  0  0  0
   -1.1920    0.6904   -0.0017 C   0  0  0  0  0  0  0  0  0  0  0  0
   -2.0605    1.1836   -0.0062 H   0  0  0  0  0  0  0  0  0  0  0  0
   -1.1994   -0.6932    0.0000 C   0  0  0  0  0  0  0  0  0  0  0  0
   -2.0773   -1.1872    0.0047 H   0  0  0  0  0  0  0  0  0  0  0  0
   -0.0020   -1.3906   -0.0029 C   0  0  0  0  0  0  0  0  0  0  0  0
   -0.0067   -2.3895   -0.0076 H   0  0  0  0  0  0  0  0  0  0  0  0
    1.1994   -0.6969   -0.0000 C   0  0  0  0  0  0  0  0  0  0  0  0
    2.0800   -1.1950    0.0019 H   0  0  0  0  0  0  0  0  0  0  0  0
    1.1942    0.6922    0.0030 C   0  0  0  0  0  0  0  0  0  0  0  0
    2.0626    1.1887    0.0054 H   0  0  0  0  0  0  0  0  0  0  0  0
  1  5  1  0
  5  8  1  0
  1  2  1  0
  1  3  1  0
  1  4  1  0
  5  6  1  0
  5  7  1  0
  8  9  1  0
  8 10  1  0
  8 11  1  0
 12 16  1  0
 16 17  2  0
 17 19  1  0
 19 21  2  0
 21 23  1  0
 23 25  2  0
 25 16  1  0
 12 13  1  0
 12 14  1  0
 12 15  1  0
 17 18  1  0
 19 20  1  0
 21 22  1  0
 23 24  1  0
 25 26  1  0
M  CHG  1   8   1
M  END
>  <PDB_ID>  (2570) 
pdb4rs7

>  <RESIDUE_NAME>  (2570) 
LYS   PHE

>  <FRAG_NAME>  (2570) 
ETAM   MBZ

>  <FRAG_ATOM_NUM>  (2570) 
fragi: 11  fragj: 15

>  <atom.prop.CHAIN_ID>  (2570) 
A A A A A A A A A A A Z Z Z Z Z Z Z Z Z Z Z Z Z Z Z

>  <atom.prop.IS_HEAVY_ATOM>  (2570) 
1 0 0 0 1 0 0 1 0 0 0 1 0 0 0 1 1 0 1 0 1 0 1 0 1 0

>  <DIFUSE_FUNC_ATOM>  (2570) 
n/a

>  <FINAL_SINGLE_POINT_ENERGY>  (2570) 
0

>  <NONCOV_INTER_ENERGY_QM>  (2570) 
0

>  <FF_Energy>  (2570) 
-1.07

>  <QM_Energy>  (2570) 
-8.49

>  <source>  (2570) 
ETAM_MBZ

>  <Index>  (2570) 
27314

$$$$
ETAM-pdb3tr7-A-LYS-32:MBZ-pdb3tr7-A-PHE-29
     RDKit          3D

 26 25  0  0  0  0  0  0  0  0999 V2000
   -3.8800    2.4873    2.9811 C   0  0  0  0  0  0  0  0  0  0  0  0
   -4.7795    2.3213    3.3685 H   0  0  0  0  0  0  0  0  0  0  0  0
   -3.7862    3.4379    2.7096 H   0  0  0  0  0  0  0  0  0  0  0  0
   -3.1249    2.2583    3.7330 H   0  0  0  0  0  0  0  0  0  0  0  0
   -3.7121    1.6115    1.7480 C   0  0  0  0  0  0  0  0  0  0  0  0
   -2.7485    1.6330    1.4629 H   0  0  0  0  0  0  0  0  0  0  0  0
   -3.9528    0.6639    1.9865 H   0  0  0  0  0  0  0  0  0  0  0  0
   -4.5664    2.0592    0.6106 N   0  0  0  0  0  4  0  0  0  0  0  0
   -5.2899    1.3880    0.4573 H   0  0  0  0  0  0  0  0  0  0  0  0
   -4.9715    2.9449    0.8310 H   0  0  0  0  0  0  0  0  0  0  0  0
   -4.0044    2.1421   -0.2118 H   0  0  0  0  0  0  0  0  0  0  0  0
   -0.0023    2.8991   -0.0015 C   0  0  0  0  0  0  0  0  0  0  0  0
   -0.7044    3.2028   -0.6275 H   0  0  0  0  0  0  0  0  0  0  0  0
    0.8929    3.2058   -0.2895 H   0  0  0  0  0  0  0  0  0  0  0  0
   -0.2093    3.3398    0.9737 H   0  0  0  0  0  0  0  0  0  0  0  0
   -0.0006    1.3968    0.0010 C   0  0  0  0  0  0  0  0  0  0  0  0
   -1.1906    0.6895   -0.0010 C   0  0  0  0  0  0  0  0  0  0  0  0
   -2.0599    1.1796   -0.0042 H   0  0  0  0  0  0  0  0  0  0  0  0
   -1.1945   -0.6954    0.0000 C   0  0  0  0  0  0  0  0  0  0  0  0
   -2.0738   -1.1895    0.0022 H   0  0  0  0  0  0  0  0  0  0  0  0
    0.0003   -1.3877   -0.0003 C   0  0  0  0  0  0  0  0  0  0  0  0
   -0.0025   -2.3884   -0.0013 H   0  0  0  0  0  0  0  0  0  0  0  0
    1.1945   -0.6937   -0.0000 C   0  0  0  0  0  0  0  0  0  0  0  0
    2.0783   -1.1920    0.0017 H   0  0  0  0  0  0  0  0  0  0  0  0
    1.1908    0.6905    0.0004 C   0  0  0  0  0  0  0  0  0  0  0  0
    2.0609    1.1880   -0.0009 H   0  0  0  0  0  0  0  0  0  0  0  0
  1  5  1  0
  5  8  1  0
  1  2  1  0
  1  3  1  0
  1  4  1  0
  5  6  1  0
  5  7  1  0
  8  9  1  0
  8 10  1  0
  8 11  1  0
 12 16  1  0
 16 17  2  0
 17 19  1  0
 19 21  2  0
 21 23  1  0
 23 25  2  0
 25 16  1  0
 12 13  1  0
 12 14  1  0
 12 15  1  0
 17 18  1  0
 19 20  1  0
 21 22  1  0
 23 24  1  0
 25 26  1  0
M  CHG  1   8   1
M  END
>  <PDB_ID>  (2571) 
pdb3tr7

>  <RESIDUE_NAME>  (2571) 
LYS   PHE

>  <FRAG_NAME>  (2571) 
ETAM   MBZ

>  <FRAG_ATOM_NUM>  (2571) 
fragi: 11  fragj: 15

>  <atom.prop.CHAIN_ID>  (2571) 
A A A A A A A A A A A Z Z Z Z Z Z Z Z Z Z Z Z Z Z Z

>  <atom.prop.IS_HEAVY_ATOM>  (2571) 
1 0 0 0 1 0 0 1 0 0 0 1 0 0 0 1 1 0 1 0 1 0 1 0 1 0

>  <DIFUSE_FUNC_ATOM>  (2571) 
n/a

>  <FINAL_SINGLE_POINT_ENERGY>  (2571) 
0

>  <NONCOV_INTER_ENERGY_QM>  (2571) 
0

>  <FF_Energy>  (2571) 
12.5

>  <QM_Energy>  (2571) 
0.08

>  <source>  (2571) 
ETAM_MBZ

>  <Index>  (2571) 
27335

$$$$
ETAM-pdb3ts2-B-LYS-88:MBZ-pdb3ts2-B-PHE-163
     RDKit          3D

 26 25  0  0  0  0  0  0  0  0999 V2000
    1.1458   -0.9851    5.0805 C   0  0  0  0  0  0  0  0  0  0  0  0
    0.3395   -1.2746    5.6460 H   0  0  0  0  0  0  0  0  0  0  0  0
    1.2321    0.0266    5.2272 H   0  0  0  0  0  0  0  0  0  0  0  0
    2.0319   -1.4567    5.5052 H   0  0  0  0  0  0  0  0  0  0  0  0
    0.8651   -1.2460    3.6704 C   0  0  0  0  0  0  0  0  0  0  0  0
    1.5611   -0.8528    3.0917 H   0  0  0  0  0  0  0  0  0  0  0  0
    0.7589   -2.2137    3.5035 H   0  0  0  0  0  0  0  0  0  0  0  0
   -0.4372   -0.5693    3.3679 N   0  0  0  0  0  4  0  0  0  0  0  0
   -1.1813   -1.2235    3.4901 H   0  0  0  0  0  0  0  0  0  0  0  0
   -0.5573    0.2013    3.9912 H   0  0  0  0  0  0  0  0  0  0  0  0
   -0.4248   -0.2433    2.4251 H   0  0  0  0  0  0  0  0  0  0  0  0
   -0.0013    2.9265    0.0661 C   0  0  0  0  0  0  0  0  0  0  0  0
   -0.7465    3.2510   -0.4837 H   0  0  0  0  0  0  0  0  0  0  0  0
    0.8704    3.2423   -0.2556 H   0  0  0  0  0  0  0  0  0  0  0  0
   -0.1412    3.3073    1.0778 H   0  0  0  0  0  0  0  0  0  0  0  0
   -0.0015    1.4106    0.0060 C   0  0  0  0  0  0  0  0  0  0  0  0
   -1.1970    0.6984    0.0202 C   0  0  0  0  0  0  0  0  0  0  0  0
   -2.0652    1.1797    0.0441 H   0  0  0  0  0  0  0  0  0  0  0  0
   -1.1969   -0.7052   -0.0000 C   0  0  0  0  0  0  0  0  0  0  0  0
   -2.0744   -1.1941    0.0025 H   0  0  0  0  0  0  0  0  0  0  0  0
    0.0019   -1.3924   -0.0216 C   0  0  0  0  0  0  0  0  0  0  0  0
   -0.0034   -2.3970   -0.0541 H   0  0  0  0  0  0  0  0  0  0  0  0
    1.1969   -0.7062    0.0000 C   0  0  0  0  0  0  0  0  0  0  0  0
    2.0802   -1.1986    0.0203 H   0  0  0  0  0  0  0  0  0  0  0  0
    1.1966    0.6948   -0.0047 C   0  0  0  0  0  0  0  0  0  0  0  0
    2.0661    1.1845   -0.0171 H   0  0  0  0  0  0  0  0  0  0  0  0
  1  5  1  0
  5  8  1  0
  1  2  1  0
  1  3  1  0
  1  4  1  0
  5  6  1  0
  5  7  1  0
  8  9  1  0
  8 10  1  0
  8 11  1  0
 12 16  1  0
 16 17  2  0
 17 19  1  0
 19 21  2  0
 21 23  1  0
 23 25  2  0
 25 16  1  0
 12 13  1  0
 12 14  1  0
 12 15  1  0
 17 18  1  0
 19 20  1  0
 21 22  1  0
 23 24  1  0
 25 26  1  0
M  CHG  1   8   1
M  END
>  <PDB_ID>  (2572) 
pdb3ts2

>  <RESIDUE_NAME>  (2572) 
LYS   PHE

>  <FRAG_NAME>  (2572) 
ETAM   MBZ

>  <FRAG_ATOM_NUM>  (2572) 
fragi: 11  fragj: 15

>  <atom.prop.CHAIN_ID>  (2572) 
A A A A A A A A A A A Z Z Z Z Z Z Z Z Z Z Z Z Z Z Z

>  <atom.prop.IS_HEAVY_ATOM>  (2572) 
1 0 0 0 1 0 0 1 0 0 0 1 0 0 0 1 1 0 1 0 1 0 1 0 1 0

>  <DIFUSE_FUNC_ATOM>  (2572) 
n/a

>  <FINAL_SINGLE_POINT_ENERGY>  (2572) 
0

>  <NONCOV_INTER_ENERGY_QM>  (2572) 
0

>  <FF_Energy>  (2572) 
-8.57

>  <QM_Energy>  (2572) 
-15.77

>  <source>  (2572) 
ETAM_MBZ

>  <Index>  (2572) 
27379

$$$$
ETAM-pdb3ts2-A-LYS-88:MBZ-pdb3ts2-A-PHE-163
     RDKit          3D

 26 25  0  0  0  0  0  0  0  0999 V2000
    0.7032   -0.7240    5.6389 C   0  0  0  0  0  0  0  0  0  0  0  0
   -0.0967   -1.0729    6.1018 H   0  0  0  0  0  0  0  0  0  0  0  0
    0.7972    0.2513    5.7629 H   0  0  0  0  0  0  0  0  0  0  0  0
    1.5867   -1.2185    6.0425 H   0  0  0  0  0  0  0  0  0  0  0  0
    0.5519   -1.0079    4.1269 C   0  0  0  0  0  0  0  0  0  0  0  0
    1.3928   -0.6632    3.6610 H   0  0  0  0  0  0  0  0  0  0  0  0
    0.5535   -2.0220    3.9993 H   0  0  0  0  0  0  0  0  0  0  0  0
   -0.6428   -0.4345    3.4683 N   0  0  0  0  0  4  0  0  0  0  0  0
   -0.4773   -0.3522    2.4846 H   0  0  0  0  0  0  0  0  0  0  0  0
   -1.4306   -1.0317    3.6229 H   0  0  0  0  0  0  0  0  0  0  0  0
   -0.8335    0.4715    3.8493 H   0  0  0  0  0  0  0  0  0  0  0  0
   -0.0019    2.9146    0.0434 C   0  0  0  0  0  0  0  0  0  0  0  0
   -0.7304    3.2359   -0.5317 H   0  0  0  0  0  0  0  0  0  0  0  0
    0.8786    3.2293   -0.2558 H   0  0  0  0  0  0  0  0  0  0  0  0
   -0.1721    3.3067    1.0461 H   0  0  0  0  0  0  0  0  0  0  0  0
   -0.0006    1.4068    0.0029 C   0  0  0  0  0  0  0  0  0  0  0  0
   -1.1921    0.6927    0.0173 C   0  0  0  0  0  0  0  0  0  0  0  0
   -2.0629    1.1743    0.0388 H   0  0  0  0  0  0  0  0  0  0  0  0
   -1.1901   -0.7061   -0.0000 C   0  0  0  0  0  0  0  0  0  0  0  0
   -2.0710   -1.1952    0.0030 H   0  0  0  0  0  0  0  0  0  0  0  0
    0.0020   -1.3920   -0.0193 C   0  0  0  0  0  0  0  0  0  0  0  0
    0.0002   -2.3951   -0.0481 H   0  0  0  0  0  0  0  0  0  0  0  0
    1.1901   -0.7000   -0.0000 C   0  0  0  0  0  0  0  0  0  0  0  0
    2.0787   -1.1909    0.0168 H   0  0  0  0  0  0  0  0  0  0  0  0
    1.1907    0.6987   -0.0009 C   0  0  0  0  0  0  0  0  0  0  0  0
    2.0620    1.1875   -0.0054 H   0  0  0  0  0  0  0  0  0  0  0  0
  1  5  1  0
  5  8  1  0
  1  2  1  0
  1  3  1  0
  1  4  1  0
  5  6  1  0
  5  7  1  0
  8  9  1  0
  8 10  1  0
  8 11  1  0
 12 16  1  0
 16 17  2  0
 17 19  1  0
 19 21  2  0
 21 23  1  0
 23 25  2  0
 25 16  1  0
 12 13  1  0
 12 14  1  0
 12 15  1  0
 17 18  1  0
 19 20  1  0
 21 22  1  0
 23 24  1  0
 25 26  1  0
M  CHG  1   8   1
M  END
>  <PDB_ID>  (2573) 
pdb3ts2

>  <RESIDUE_NAME>  (2573) 
LYS   PHE

>  <FRAG_NAME>  (2573) 
ETAM   MBZ

>  <FRAG_ATOM_NUM>  (2573) 
fragi: 11  fragj: 15

>  <atom.prop.CHAIN_ID>  (2573) 
A A A A A A A A A A A Z Z Z Z Z Z Z Z Z Z Z Z Z Z Z

>  <atom.prop.IS_HEAVY_ATOM>  (2573) 
1 0 0 0 1 0 0 1 0 0 0 1 0 0 0 1 1 0 1 0 1 0 1 0 1 0

>  <DIFUSE_FUNC_ATOM>  (2573) 
n/a

>  <FINAL_SINGLE_POINT_ENERGY>  (2573) 
0

>  <NONCOV_INTER_ENERGY_QM>  (2573) 
0

>  <FF_Energy>  (2573) 
-7.99

>  <QM_Energy>  (2573) 
-14.81

>  <source>  (2573) 
ETAM_MBZ

>  <Index>  (2573) 
27401

$$$$
ETAM-pdb3tsm-A-LYS-63:MBZ-pdb3tsm-A-PHE-75
     RDKit          3D

 26 25  0  0  0  0  0  0  0  0999 V2000
    2.1247   -1.3456   -2.4725 C   0  0  0  0  0  0  0  0  0  0  0  0
    2.4931   -0.9888   -1.6110 H   0  0  0  0  0  0  0  0  0  0  0  0
    2.4917   -2.2657   -2.6282 H   0  0  0  0  0  0  0  0  0  0  0  0
    1.0396   -1.4082   -2.3908 H   0  0  0  0  0  0  0  0  0  0  0  0
    2.5787   -0.4490   -3.5990 C   0  0  0  0  0  0  0  0  0  0  0  0
    2.2210   -0.8015   -4.4645 H   0  0  0  0  0  0  0  0  0  0  0  0
    2.2237    0.4751   -3.4478 H   0  0  0  0  0  0  0  0  0  0  0  0
    4.0601   -0.3951   -3.6687 N   0  0  0  0  0  4  0  0  0  0  0  0
    4.3759    0.5065   -3.3716 H   0  0  0  0  0  0  0  0  0  0  0  0
    4.4481   -1.0977   -3.0722 H   0  0  0  0  0  0  0  0  0  0  0  0
    4.3554   -0.5570   -4.6107 H   0  0  0  0  0  0  0  0  0  0  0  0
   -0.0124    2.9207    0.0163 C   0  0  0  0  0  0  0  0  0  0  0  0
   -0.6602    3.2197   -0.6646 H   0  0  0  0  0  0  0  0  0  0  0  0
    0.9016    3.2298   -0.1884 H   0  0  0  0  0  0  0  0  0  0  0  0
   -0.3061    3.3579    0.9705 H   0  0  0  0  0  0  0  0  0  0  0  0
   -0.0001    1.4005    0.0098 C   0  0  0  0  0  0  0  0  0  0  0  0
   -1.1895    0.6891   -0.0006 C   0  0  0  0  0  0  0  0  0  0  0  0
   -2.0603    1.1816   -0.0103 H   0  0  0  0  0  0  0  0  0  0  0  0
   -1.1961   -0.6939    0.0000 C   0  0  0  0  0  0  0  0  0  0  0  0
   -2.0767   -1.1867    0.0117 H   0  0  0  0  0  0  0  0  0  0  0  0
   -0.0035   -1.3907   -0.0132 C   0  0  0  0  0  0  0  0  0  0  0  0
   -0.0069   -2.3897   -0.0322 H   0  0  0  0  0  0  0  0  0  0  0  0
    1.1961   -0.6961   -0.0000 C   0  0  0  0  0  0  0  0  0  0  0  0
    2.0773   -1.1963    0.0078 H   0  0  0  0  0  0  0  0  0  0  0  0
    1.1931    0.6911    0.0040 C   0  0  0  0  0  0  0  0  0  0  0  0
    2.0629    1.1878    0.0024 H   0  0  0  0  0  0  0  0  0  0  0  0
  1  5  1  0
  5  8  1  0
  1  2  1  0
  1  3  1  0
  1  4  1  0
  5  6  1  0
  5  7  1  0
  8  9  1  0
  8 10  1  0
  8 11  1  0
 12 16  1  0
 16 17  2  0
 17 19  1  0
 19 21  2  0
 21 23  1  0
 23 25  2  0
 25 16  1  0
 12 13  1  0
 12 14  1  0
 12 15  1  0
 17 18  1  0
 19 20  1  0
 21 22  1  0
 23 24  1  0
 25 26  1  0
M  CHG  1   8   1
M  END
>  <PDB_ID>  (2574) 
pdb3tsm

>  <RESIDUE_NAME>  (2574) 
LYS   PHE

>  <FRAG_NAME>  (2574) 
ETAM   MBZ

>  <FRAG_ATOM_NUM>  (2574) 
fragi: 11  fragj: 15

>  <atom.prop.CHAIN_ID>  (2574) 
A A A A A A A A A A A Z Z Z Z Z Z Z Z Z Z Z Z Z Z Z

>  <atom.prop.IS_HEAVY_ATOM>  (2574) 
1 0 0 0 1 0 0 1 0 0 0 1 0 0 0 1 1 0 1 0 1 0 1 0 1 0

>  <DIFUSE_FUNC_ATOM>  (2574) 
n/a

>  <FINAL_SINGLE_POINT_ENERGY>  (2574) 
0

>  <NONCOV_INTER_ENERGY_QM>  (2574) 
0

>  <FF_Energy>  (2574) 
24.39

>  <QM_Energy>  (2574) 
5.2

>  <source>  (2574) 
ETAM_MBZ

>  <Index>  (2574) 
27404

$$$$
ETAM-pdb4rzl-A-LYS-35:MBZ-pdb4rzl-A-PHE-6
     RDKit          3D

 26 25  0  0  0  0  0  0  0  0999 V2000
   -0.8071   -1.5149    3.6386 C   0  0  0  0  0  0  0  0  0  0  0  0
   -0.7713   -2.0530    2.8030 H   0  0  0  0  0  0  0  0  0  0  0  0
   -1.1492   -0.6004    3.4466 H   0  0  0  0  0  0  0  0  0  0  0  0
   -1.4707   -2.0046    4.3512 H   0  0  0  0  0  0  0  0  0  0  0  0
    0.5900   -1.3993    4.1992 C   0  0  0  0  0  0  0  0  0  0  0  0
    0.5602   -0.8818    5.0498 H   0  0  0  0  0  0  0  0  0  0  0  0
    0.9525   -2.3120    4.3674 H   0  0  0  0  0  0  0  0  0  0  0  0
    1.4575   -0.6970    3.2272 N   0  0  0  0  0  4  0  0  0  0  0  0
    1.0074    0.1426    2.9207 H   0  0  0  0  0  0  0  0  0  0  0  0
    2.3296   -0.4659    3.6613 H   0  0  0  0  0  0  0  0  0  0  0  0
    1.6262   -1.2897    2.4381 H   0  0  0  0  0  0  0  0  0  0  0  0
   -0.0040    2.9108   -0.0235 C   0  0  0  0  0  0  0  0  0  0  0  0
   -0.6185    3.2048   -0.7401 H   0  0  0  0  0  0  0  0  0  0  0  0
    0.9212    3.2143   -0.1954 H   0  0  0  0  0  0  0  0  0  0  0  0
   -0.3369    3.3658    0.9094 H   0  0  0  0  0  0  0  0  0  0  0  0
   -0.0019    1.4053   -0.0013 C   0  0  0  0  0  0  0  0  0  0  0  0
   -1.1944    0.6953   -0.0083 C   0  0  0  0  0  0  0  0  0  0  0  0
   -2.0638    1.1819   -0.0209 H   0  0  0  0  0  0  0  0  0  0  0  0
   -1.2004   -0.7004    0.0000 C   0  0  0  0  0  0  0  0  0  0  0  0
   -2.0767   -1.1916    0.0017 H   0  0  0  0  0  0  0  0  0  0  0  0
    0.0022   -1.3988    0.0070 C   0  0  0  0  0  0  0  0  0  0  0  0
   -0.0018   -2.3957    0.0165 H   0  0  0  0  0  0  0  0  0  0  0  0
    1.2004   -0.6993    0.0000 C   0  0  0  0  0  0  0  0  0  0  0  0
    2.0843   -1.1922   -0.0050 H   0  0  0  0  0  0  0  0  0  0  0  0
    1.1942    0.6979    0.0026 C   0  0  0  0  0  0  0  0  0  0  0  0
    2.0629    1.1912    0.0062 H   0  0  0  0  0  0  0  0  0  0  0  0
  1  5  1  0
  5  8  1  0
  1  2  1  0
  1  3  1  0
  1  4  1  0
  5  6  1  0
  5  7  1  0
  8  9  1  0
  8 10  1  0
  8 11  1  0
 12 16  1  0
 16 17  2  0
 17 19  1  0
 19 21  2  0
 21 23  1  0
 23 25  2  0
 25 16  1  0
 12 13  1  0
 12 14  1  0
 12 15  1  0
 17 18  1  0
 19 20  1  0
 21 22  1  0
 23 24  1  0
 25 26  1  0
M  CHG  1   8   1
M  END
>  <PDB_ID>  (2575) 
pdb4rzl

>  <RESIDUE_NAME>  (2575) 
LYS   PHE

>  <FRAG_NAME>  (2575) 
ETAM   MBZ

>  <FRAG_ATOM_NUM>  (2575) 
fragi: 11  fragj: 15

>  <atom.prop.CHAIN_ID>  (2575) 
A A A A A A A A A A A Z Z Z Z Z Z Z Z Z Z Z Z Z Z Z

>  <atom.prop.IS_HEAVY_ATOM>  (2575) 
1 0 0 0 1 0 0 1 0 0 0 1 0 0 0 1 1 0 1 0 1 0 1 0 1 0

>  <DIFUSE_FUNC_ATOM>  (2575) 
n/a

>  <FINAL_SINGLE_POINT_ENERGY>  (2575) 
0

>  <NONCOV_INTER_ENERGY_QM>  (2575) 
0

>  <FF_Energy>  (2575) 
-6.75

>  <QM_Energy>  (2575) 
-13.32

>  <source>  (2575) 
ETAM_MBZ

>  <Index>  (2575) 
27412

$$$$
ETAM-pdb4s0v-A-LYS-249:MBZ-pdb4s0v-A-PHE-1124
     RDKit          3D

 26 25  0  0  0  0  0  0  0  0999 V2000
   -1.4733   -4.5744   -0.0412 C   0  0  0  0  0  0  0  0  0  0  0  0
   -0.7383   -4.0176    0.3276 H   0  0  0  0  0  0  0  0  0  0  0  0
   -1.1306   -5.4619   -0.3259 H   0  0  0  0  0  0  0  0  0  0  0  0
   -2.2317   -4.7155    0.7289 H   0  0  0  0  0  0  0  0  0  0  0  0
   -2.0539   -3.8674   -1.2572 C   0  0  0  0  0  0  0  0  0  0  0  0
   -2.7463   -4.4614   -1.6780 H   0  0  0  0  0  0  0  0  0  0  0  0
   -2.4997   -3.0175   -0.9569 H   0  0  0  0  0  0  0  0  0  0  0  0
   -1.0112   -3.5405   -2.2676 N   0  0  0  0  0  4  0  0  0  0  0  0
   -0.1981   -3.1908   -1.8032 H   0  0  0  0  0  0  0  0  0  0  0  0
   -0.7750   -4.3658   -2.7798 H   0  0  0  0  0  0  0  0  0  0  0  0
   -1.3631   -2.8462   -2.8946 H   0  0  0  0  0  0  0  0  0  0  0  0
   -0.0032    2.8900   -0.0070 C   0  0  0  0  0  0  0  0  0  0  0  0
    0.9190    3.2000    0.1704 H   0  0  0  0  0  0  0  0  0  0  0  0
   -0.6280    3.1999    0.6938 H   0  0  0  0  0  0  0  0  0  0  0  0
   -0.3242    3.3224   -0.9547 H   0  0  0  0  0  0  0  0  0  0  0  0
   -0.0004    1.3925   -0.0007 C   0  0  0  0  0  0  0  0  0  0  0  0
   -1.1920    0.6875   -0.0001 C   0  0  0  0  0  0  0  0  0  0  0  0
   -2.0598    1.1799   -0.0010 H   0  0  0  0  0  0  0  0  0  0  0  0
   -1.1942   -0.6918    0.0000 C   0  0  0  0  0  0  0  0  0  0  0  0
   -2.0727   -1.1900   -0.0002 H   0  0  0  0  0  0  0  0  0  0  0  0
    0.0009   -1.3820    0.0022 C   0  0  0  0  0  0  0  0  0  0  0  0
   -0.0041   -2.3848    0.0050 H   0  0  0  0  0  0  0  0  0  0  0  0
    1.1942   -0.6927   -0.0000 C   0  0  0  0  0  0  0  0  0  0  0  0
    2.0777   -1.1939    0.0010 H   0  0  0  0  0  0  0  0  0  0  0  0
    1.1915    0.6865   -0.0015 C   0  0  0  0  0  0  0  0  0  0  0  0
    2.0605    1.1856   -0.0042 H   0  0  0  0  0  0  0  0  0  0  0  0
  1  5  1  0
  5  8  1  0
  1  2  1  0
  1  3  1  0
  1  4  1  0
  5  6  1  0
  5  7  1  0
  8  9  1  0
  8 10  1  0
  8 11  1  0
 12 16  1  0
 16 17  2  0
 17 19  1  0
 19 21  2  0
 21 23  1  0
 23 25  2  0
 25 16  1  0
 12 13  1  0
 12 14  1  0
 12 15  1  0
 17 18  1  0
 19 20  1  0
 21 22  1  0
 23 24  1  0
 25 26  1  0
M  CHG  1   8   1
M  END
>  <PDB_ID>  (2576) 
pdb4s0v

>  <RESIDUE_NAME>  (2576) 
LYS   PHE

>  <FRAG_NAME>  (2576) 
ETAM   MBZ

>  <FRAG_ATOM_NUM>  (2576) 
fragi: 11  fragj: 15

>  <atom.prop.CHAIN_ID>  (2576) 
A A A A A A A A A A A Z Z Z Z Z Z Z Z Z Z Z Z Z Z Z

>  <atom.prop.IS_HEAVY_ATOM>  (2576) 
1 0 0 0 1 0 0 1 0 0 0 1 0 0 0 1 1 0 1 0 1 0 1 0 1 0

>  <DIFUSE_FUNC_ATOM>  (2576) 
n/a

>  <FINAL_SINGLE_POINT_ENERGY>  (2576) 
0

>  <NONCOV_INTER_ENERGY_QM>  (2576) 
0

>  <FF_Energy>  (2576) 
3.16

>  <QM_Energy>  (2576) 
-6.12

>  <source>  (2576) 
ETAM_MBZ

>  <Index>  (2576) 
27419

$$$$
ETAM-pdb3ttm-A-LYS-169:MBZ-pdb3ttm-A-PHE-149
     RDKit          3D

 26 25  0  0  0  0  0  0  0  0999 V2000
   -1.5027    0.3437    3.4924 C   0  0  0  0  0  0  0  0  0  0  0  0
   -1.7563   -0.1448    2.6568 H   0  0  0  0  0  0  0  0  0  0  0  0
   -0.9053    1.1114    3.2605 H   0  0  0  0  0  0  0  0  0  0  0  0
   -2.4116    0.7425    3.9431 H   0  0  0  0  0  0  0  0  0  0  0  0
   -0.7592   -0.5987    4.4060 C   0  0  0  0  0  0  0  0  0  0  0  0
   -0.3529   -0.0886    5.1535 H   0  0  0  0  0  0  0  0  0  0  0  0
   -1.3820   -1.2907    4.7511 H   0  0  0  0  0  0  0  0  0  0  0  0
    0.3360   -1.2765    3.6309 N   0  0  0  0  0  4  0  0  0  0  0  0
    0.4304   -2.2142    3.9566 H   0  0  0  0  0  0  0  0  0  0  0  0
    0.0966   -1.2744    2.6630 H   0  0  0  0  0  0  0  0  0  0  0  0
    1.1890   -0.7791    3.7719 H   0  0  0  0  0  0  0  0  0  0  0  0
   -0.0020    2.9001   -0.0070 C   0  0  0  0  0  0  0  0  0  0  0  0
   -0.8469    3.2044   -0.4188 H   0  0  0  0  0  0  0  0  0  0  0  0
    0.7822    3.2074   -0.5233 H   0  0  0  0  0  0  0  0  0  0  0  0
    0.0616    3.3422    0.9873 H   0  0  0  0  0  0  0  0  0  0  0  0
    0.0011    1.3976   -0.0020 C   0  0  0  0  0  0  0  0  0  0  0  0
   -1.1922    0.6854   -0.0020 C   0  0  0  0  0  0  0  0  0  0  0  0
   -2.0603    1.1791   -0.0047 H   0  0  0  0  0  0  0  0  0  0  0  0
   -1.1926   -0.6924    0.0000 C   0  0  0  0  0  0  0  0  0  0  0  0
   -2.0720   -1.1912   -0.0027 H   0  0  0  0  0  0  0  0  0  0  0  0
    0.0011   -1.3869    0.0073 C   0  0  0  0  0  0  0  0  0  0  0  0
   -0.0046   -2.3879    0.0171 H   0  0  0  0  0  0  0  0  0  0  0  0
    1.1926   -0.6948    0.0000 C   0  0  0  0  0  0  0  0  0  0  0  0
    2.0782   -1.1922   -0.0019 H   0  0  0  0  0  0  0  0  0  0  0  0
    1.1901    0.6911   -0.0033 C   0  0  0  0  0  0  0  0  0  0  0  0
    2.0617    1.1857   -0.0075 H   0  0  0  0  0  0  0  0  0  0  0  0
  1  5  1  0
  5  8  1  0
  1  2  1  0
  1  3  1  0
  1  4  1  0
  5  6  1  0
  5  7  1  0
  8  9  1  0
  8 10  1  0
  8 11  1  0
 12 16  1  0
 16 17  2  0
 17 19  1  0
 19 21  2  0
 21 23  1  0
 23 25  2  0
 25 16  1  0
 12 13  1  0
 12 14  1  0
 12 15  1  0
 17 18  1  0
 19 20  1  0
 21 22  1  0
 23 24  1  0
 25 26  1  0
M  CHG  1   8   1
M  END
>  <PDB_ID>  (2577) 
pdb3ttm

>  <RESIDUE_NAME>  (2577) 
LYS   PHE

>  <FRAG_NAME>  (2577) 
ETAM   MBZ

>  <FRAG_ATOM_NUM>  (2577) 
fragi: 11  fragj: 15

>  <atom.prop.CHAIN_ID>  (2577) 
A A A A A A A A A A A Z Z Z Z Z Z Z Z Z Z Z Z Z Z Z

>  <atom.prop.IS_HEAVY_ATOM>  (2577) 
1 0 0 0 1 0 0 1 0 0 0 1 0 0 0 1 1 0 1 0 1 0 1 0 1 0

>  <DIFUSE_FUNC_ATOM>  (2577) 
n/a

>  <FINAL_SINGLE_POINT_ENERGY>  (2577) 
0

>  <NONCOV_INTER_ENERGY_QM>  (2577) 
0

>  <FF_Energy>  (2577) 
-6.73

>  <QM_Energy>  (2577) 
-12.8

>  <source>  (2577) 
ETAM_MBZ

>  <Index>  (2577) 
27420

$$$$
ETAM-pdb4s13-H-LYS-384:MBZ-pdb4s13-H-PHE-434
     RDKit          3D

 26 25  0  0  0  0  0  0  0  0999 V2000
    0.5651   -2.7162    3.1651 C   0  0  0  0  0  0  0  0  0  0  0  0
    0.2190   -2.4484    2.2756 H   0  0  0  0  0  0  0  0  0  0  0  0
   -0.0852   -2.4983    3.8797 H   0  0  0  0  0  0  0  0  0  0  0  0
    0.7388   -3.7922    3.1641 H   0  0  0  0  0  0  0  0  0  0  0  0
    1.8590   -1.9565    3.4351 C   0  0  0  0  0  0  0  0  0  0  0  0
    2.2288   -2.2531    4.3237 H   0  0  0  0  0  0  0  0  0  0  0  0
    2.5290   -2.1929    2.7203 H   0  0  0  0  0  0  0  0  0  0  0  0
    1.6711   -0.4779    3.4553 N   0  0  0  0  0  4  0  0  0  0  0  0
    0.7076   -0.2649    3.2957 H   0  0  0  0  0  0  0  0  0  0  0  0
    1.9504   -0.1215    4.3458 H   0  0  0  0  0  0  0  0  0  0  0  0
    2.2299   -0.0639    2.7377 H   0  0  0  0  0  0  0  0  0  0  0  0
    0.0057    2.9063   -0.0050 C   0  0  0  0  0  0  0  0  0  0  0  0
   -0.7643    3.2105   -0.5473 H   0  0  0  0  0  0  0  0  0  0  0  0
    0.8619    3.2077   -0.4000 H   0  0  0  0  0  0  0  0  0  0  0  0
   -0.0828    3.3638    0.9804 H   0  0  0  0  0  0  0  0  0  0  0  0
    0.0021    1.3990    0.0043 C   0  0  0  0  0  0  0  0  0  0  0  0
   -1.1920    0.6885   -0.0054 C   0  0  0  0  0  0  0  0  0  0  0  0
   -2.0598    1.1768   -0.0174 H   0  0  0  0  0  0  0  0  0  0  0  0
   -1.1930   -0.7018    0.0000 C   0  0  0  0  0  0  0  0  0  0  0  0
   -2.0732   -1.1938   -0.0003 H   0  0  0  0  0  0  0  0  0  0  0  0
   -0.0012   -1.3874    0.0071 C   0  0  0  0  0  0  0  0  0  0  0  0
    0.0016   -2.3887    0.0167 H   0  0  0  0  0  0  0  0  0  0  0  0
    1.1930   -0.6900   -0.0000 C   0  0  0  0  0  0  0  0  0  0  0  0
    2.0780   -1.1908    0.0002 H   0  0  0  0  0  0  0  0  0  0  0  0
    1.1911    0.6916   -0.0060 C   0  0  0  0  0  0  0  0  0  0  0  0
    2.0622    1.1880   -0.0187 H   0  0  0  0  0  0  0  0  0  0  0  0
  1  5  1  0
  5  8  1  0
  1  2  1  0
  1  3  1  0
  1  4  1  0
  5  6  1  0
  5  7  1  0
  8  9  1  0
  8 10  1  0
  8 11  1  0
 12 16  1  0
 16 17  2  0
 17 19  1  0
 19 21  2  0
 21 23  1  0
 23 25  2  0
 25 16  1  0
 12 13  1  0
 12 14  1  0
 12 15  1  0
 17 18  1  0
 19 20  1  0
 21 22  1  0
 23 24  1  0
 25 26  1  0
M  CHG  1   8   1
M  END
>  <PDB_ID>  (2578) 
pdb4s13

>  <RESIDUE_NAME>  (2578) 
LYS   PHE

>  <FRAG_NAME>  (2578) 
ETAM   MBZ

>  <FRAG_ATOM_NUM>  (2578) 
fragi: 11  fragj: 15

>  <atom.prop.CHAIN_ID>  (2578) 
A A A A A A A A A A A Z Z Z Z Z Z Z Z Z Z Z Z Z Z Z

>  <atom.prop.IS_HEAVY_ATOM>  (2578) 
1 0 0 0 1 0 0 1 0 0 0 1 0 0 0 1 1 0 1 0 1 0 1 0 1 0

>  <DIFUSE_FUNC_ATOM>  (2578) 
n/a

>  <FINAL_SINGLE_POINT_ENERGY>  (2578) 
0

>  <NONCOV_INTER_ENERGY_QM>  (2578) 
0

>  <FF_Energy>  (2578) 
-5.07

>  <QM_Energy>  (2578) 
-10.94

>  <source>  (2578) 
ETAM_MBZ

>  <Index>  (2578) 
27449

$$$$
ETAM-pdb3tw9-B-LYS-65:MBZ-pdb3tw9-B-PHE-61
     RDKit          3D

 26 25  0  0  0  0  0  0  0  0999 V2000
    2.2353   -0.2732    4.8483 C   0  0  0  0  0  0  0  0  0  0  0  0
    2.4464    0.5006    4.2749 H   0  0  0  0  0  0  0  0  0  0  0  0
    2.7027   -1.0886    4.5497 H   0  0  0  0  0  0  0  0  0  0  0  0
    2.5238   -0.0479    5.8750 H   0  0  0  0  0  0  0  0  0  0  0  0
    0.7294   -0.5278    4.7839 C   0  0  0  0  0  0  0  0  0  0  0  0
    0.5274   -1.3882    5.2500 H   0  0  0  0  0  0  0  0  0  0  0  0
    0.2542    0.2215    5.2440 H   0  0  0  0  0  0  0  0  0  0  0  0
    0.2543   -0.6129    3.3671 N   0  0  0  0  0  4  0  0  0  0  0  0
   -0.6168   -0.1325    3.2841 H   0  0  0  0  0  0  0  0  0  0  0  0
    0.9321   -0.1902    2.7685 H   0  0  0  0  0  0  0  0  0  0  0  0
    0.1355   -1.5728    3.1188 H   0  0  0  0  0  0  0  0  0  0  0  0
   -0.0005    2.9108   -0.0161 C   0  0  0  0  0  0  0  0  0  0  0  0
   -0.7557    3.2155   -0.5778 H   0  0  0  0  0  0  0  0  0  0  0  0
    0.8656    3.2166   -0.3832 H   0  0  0  0  0  0  0  0  0  0  0  0
   -0.1186    3.3676    0.9664 H   0  0  0  0  0  0  0  0  0  0  0  0
   -0.0004    1.4041   -0.0078 C   0  0  0  0  0  0  0  0  0  0  0  0
   -1.1980    0.6942    0.0119 C   0  0  0  0  0  0  0  0  0  0  0  0
   -2.0639    1.1887    0.0337 H   0  0  0  0  0  0  0  0  0  0  0  0
   -1.2083   -0.6942    0.0000 C   0  0  0  0  0  0  0  0  0  0  0  0
   -2.0835   -1.1883   -0.0154 H   0  0  0  0  0  0  0  0  0  0  0  0
   -0.0011   -1.4028    0.0117 C   0  0  0  0  0  0  0  0  0  0  0  0
   -0.0098   -2.3967    0.0282 H   0  0  0  0  0  0  0  0  0  0  0  0
    1.2083   -0.7039   -0.0000 C   0  0  0  0  0  0  0  0  0  0  0  0
    2.0860   -1.1948    0.0043 H   0  0  0  0  0  0  0  0  0  0  0  0
    1.1996    0.7026   -0.0157 C   0  0  0  0  0  0  0  0  0  0  0  0
    2.0662    1.1942   -0.0339 H   0  0  0  0  0  0  0  0  0  0  0  0
  1  5  1  0
  5  8  1  0
  1  2  1  0
  1  3  1  0
  1  4  1  0
  5  6  1  0
  5  7  1  0
  8  9  1  0
  8 10  1  0
  8 11  1  0
 12 16  1  0
 16 17  2  0
 17 19  1  0
 19 21  2  0
 21 23  1  0
 23 25  2  0
 25 16  1  0
 12 13  1  0
 12 14  1  0
 12 15  1  0
 17 18  1  0
 19 20  1  0
 21 22  1  0
 23 24  1  0
 25 26  1  0
M  CHG  1   8   1
M  END
>  <PDB_ID>  (2579) 
pdb3tw9

>  <RESIDUE_NAME>  (2579) 
LYS   PHE

>  <FRAG_NAME>  (2579) 
ETAM   MBZ

>  <FRAG_ATOM_NUM>  (2579) 
fragi: 11  fragj: 15

>  <atom.prop.CHAIN_ID>  (2579) 
A A A A A A A A A A A Z Z Z Z Z Z Z Z Z Z Z Z Z Z Z

>  <atom.prop.IS_HEAVY_ATOM>  (2579) 
1 0 0 0 1 0 0 1 0 0 0 1 0 0 0 1 1 0 1 0 1 0 1 0 1 0

>  <DIFUSE_FUNC_ATOM>  (2579) 
n/a

>  <FINAL_SINGLE_POINT_ENERGY>  (2579) 
0

>  <NONCOV_INTER_ENERGY_QM>  (2579) 
0

>  <FF_Energy>  (2579) 
-7.57

>  <QM_Energy>  (2579) 
-14.12

>  <source>  (2579) 
ETAM_MBZ

>  <Index>  (2579) 
27479

$$$$
ETAM-pdb3tw9-C-LYS-65:MBZ-pdb3tw9-C-PHE-61
     RDKit          3D

 26 25  0  0  0  0  0  0  0  0999 V2000
    2.2289   -0.2466    4.7950 C   0  0  0  0  0  0  0  0  0  0  0  0
    2.4007    0.4895    4.1647 H   0  0  0  0  0  0  0  0  0  0  0  0
    2.6959   -1.0728    4.5344 H   0  0  0  0  0  0  0  0  0  0  0  0
    2.5213    0.0478    5.8029 H   0  0  0  0  0  0  0  0  0  0  0  0
    0.7190   -0.5341    4.7851 C   0  0  0  0  0  0  0  0  0  0  0  0
    0.5612   -1.4051    5.2478 H   0  0  0  0  0  0  0  0  0  0  0  0
    0.2549    0.1979    5.2822 H   0  0  0  0  0  0  0  0  0  0  0  0
    0.2041   -0.6023    3.4001 N   0  0  0  0  0  4  0  0  0  0  0  0
    0.5423   -1.4330    2.9562 H   0  0  0  0  0  0  0  0  0  0  0  0
   -0.7972   -0.6186    3.4143 H   0  0  0  0  0  0  0  0  0  0  0  0
    0.5152    0.1985    2.8856 H   0  0  0  0  0  0  0  0  0  0  0  0
    0.0159    2.9255   -0.0024 C   0  0  0  0  0  0  0  0  0  0  0  0
   -0.7457    3.2377   -0.5508 H   0  0  0  0  0  0  0  0  0  0  0  0
    0.8791    3.2226   -0.3834 H   0  0  0  0  0  0  0  0  0  0  0  0
   -0.0807    3.3874    0.9801 H   0  0  0  0  0  0  0  0  0  0  0  0
    0.0007    1.4125    0.0047 C   0  0  0  0  0  0  0  0  0  0  0  0
   -1.2053    0.7126    0.0051 C   0  0  0  0  0  0  0  0  0  0  0  0
   -2.0675    1.2032    0.0077 H   0  0  0  0  0  0  0  0  0  0  0  0
   -1.2178   -0.6906   -0.0000 C   0  0  0  0  0  0  0  0  0  0  0  0
   -2.0906   -1.1808   -0.0025 H   0  0  0  0  0  0  0  0  0  0  0  0
   -0.0006   -1.4119   -0.0000 C   0  0  0  0  0  0  0  0  0  0  0  0
   -0.0160   -2.4012   -0.0002 H   0  0  0  0  0  0  0  0  0  0  0  0
    1.2178   -0.7130    0.0000 C   0  0  0  0  0  0  0  0  0  0  0  0
    2.0907   -1.2076    0.0081 H   0  0  0  0  0  0  0  0  0  0  0  0
    1.2051    0.6905   -0.0098 C   0  0  0  0  0  0  0  0  0  0  0  0
    2.0727    1.1873   -0.0286 H   0  0  0  0  0  0  0  0  0  0  0  0
  1  5  1  0
  5  8  1  0
  1  2  1  0
  1  3  1  0
  1  4  1  0
  5  6  1  0
  5  7  1  0
  8  9  1  0
  8 10  1  0
  8 11  1  0
 12 16  1  0
 16 17  2  0
 17 19  1  0
 19 21  2  0
 21 23  1  0
 23 25  2  0
 25 16  1  0
 12 13  1  0
 12 14  1  0
 12 15  1  0
 17 18  1  0
 19 20  1  0
 21 22  1  0
 23 24  1  0
 25 26  1  0
M  CHG  1   8   1
M  END
>  <PDB_ID>  (2580) 
pdb3tw9

>  <RESIDUE_NAME>  (2580) 
LYS   PHE

>  <FRAG_NAME>  (2580) 
ETAM   MBZ

>  <FRAG_ATOM_NUM>  (2580) 
fragi: 11  fragj: 15

>  <atom.prop.CHAIN_ID>  (2580) 
A A A A A A A A A A A Z Z Z Z Z Z Z Z Z Z Z Z Z Z Z

>  <atom.prop.IS_HEAVY_ATOM>  (2580) 
1 0 0 0 1 0 0 1 0 0 0 1 0 0 0 1 1 0 1 0 1 0 1 0 1 0

>  <DIFUSE_FUNC_ATOM>  (2580) 
n/a

>  <FINAL_SINGLE_POINT_ENERGY>  (2580) 
0

>  <NONCOV_INTER_ENERGY_QM>  (2580) 
0

>  <FF_Energy>  (2580) 
-7.63

>  <QM_Energy>  (2580) 
-14.25

>  <source>  (2580) 
ETAM_MBZ

>  <Index>  (2580) 
27482

$$$$
ETAM-pdb4s2r-Q-LYS-6:MBZ-pdb4s2r-Q-PHE-53
     RDKit          3D

 26 25  0  0  0  0  0  0  0  0999 V2000
   -0.9425   -1.2871    4.3165 C   0  0  0  0  0  0  0  0  0  0  0  0
   -1.2656   -0.9415    5.1935 H   0  0  0  0  0  0  0  0  0  0  0  0
   -0.2599   -0.6695    3.9355 H   0  0  0  0  0  0  0  0  0  0  0  0
   -0.4935   -2.2693    4.4642 H   0  0  0  0  0  0  0  0  0  0  0  0
   -2.1181   -1.3528    3.3616 C   0  0  0  0  0  0  0  0  0  0  0  0
   -1.8011   -1.6585    2.4676 H   0  0  0  0  0  0  0  0  0  0  0  0
   -2.7992   -1.9878    3.7177 H   0  0  0  0  0  0  0  0  0  0  0  0
   -2.7499    0.0033    3.2142 N   0  0  0  0  0  4  0  0  0  0  0  0
   -3.3115    0.1880    4.0170 H   0  0  0  0  0  0  0  0  0  0  0  0
   -2.0307    0.6895    3.1371 H   0  0  0  0  0  0  0  0  0  0  0  0
   -3.3157    0.0093    2.3931 H   0  0  0  0  0  0  0  0  0  0  0  0
   -0.0082    2.9059    0.0334 C   0  0  0  0  0  0  0  0  0  0  0  0
   -0.5660    3.2252   -0.7126 H   0  0  0  0  0  0  0  0  0  0  0  0
    0.9226    3.2199   -0.0412 H   0  0  0  0  0  0  0  0  0  0  0  0
   -0.4222    3.3127    0.9560 H   0  0  0  0  0  0  0  0  0  0  0  0
    0.0003    1.4025    0.0024 C   0  0  0  0  0  0  0  0  0  0  0  0
   -1.1936    0.6883    0.0083 C   0  0  0  0  0  0  0  0  0  0  0  0
   -2.0626    1.1771    0.0177 H   0  0  0  0  0  0  0  0  0  0  0  0
   -1.1976   -0.7022   -0.0000 C   0  0  0  0  0  0  0  0  0  0  0  0
   -2.0756   -1.1950    0.0029 H   0  0  0  0  0  0  0  0  0  0  0  0
   -0.0007   -1.3934   -0.0100 C   0  0  0  0  0  0  0  0  0  0  0  0
   -0.0009   -2.3933   -0.0248 H   0  0  0  0  0  0  0  0  0  0  0  0
    1.1976   -0.6958    0.0000 C   0  0  0  0  0  0  0  0  0  0  0  0
    2.0805   -1.1901    0.0092 H   0  0  0  0  0  0  0  0  0  0  0  0
    1.1940    0.7006   -0.0007 C   0  0  0  0  0  0  0  0  0  0  0  0
    2.0629    1.1929   -0.0041 H   0  0  0  0  0  0  0  0  0  0  0  0
  1  5  1  0
  5  8  1  0
  1  2  1  0
  1  3  1  0
  1  4  1  0
  5  6  1  0
  5  7  1  0
  8  9  1  0
  8 10  1  0
  8 11  1  0
 12 16  1  0
 16 17  2  0
 17 19  1  0
 19 21  2  0
 21 23  1  0
 23 25  2  0
 25 16  1  0
 12 13  1  0
 12 14  1  0
 12 15  1  0
 17 18  1  0
 19 20  1  0
 21 22  1  0
 23 24  1  0
 25 26  1  0
M  CHG  1   8   1
M  END
>  <PDB_ID>  (2581) 
pdb4s2r

>  <RESIDUE_NAME>  (2581) 
LYS   PHE

>  <FRAG_NAME>  (2581) 
ETAM   MBZ

>  <FRAG_ATOM_NUM>  (2581) 
fragi: 11  fragj: 15

>  <atom.prop.CHAIN_ID>  (2581) 
A A A A A A A A A A A Z Z Z Z Z Z Z Z Z Z Z Z Z Z Z

>  <atom.prop.IS_HEAVY_ATOM>  (2581) 
1 0 0 0 1 0 0 1 0 0 0 1 0 0 0 1 1 0 1 0 1 0 1 0 1 0

>  <DIFUSE_FUNC_ATOM>  (2581) 
n/a

>  <FINAL_SINGLE_POINT_ENERGY>  (2581) 
0

>  <NONCOV_INTER_ENERGY_QM>  (2581) 
0

>  <FF_Energy>  (2581) 
-3.77

>  <QM_Energy>  (2581) 
-9.03

>  <source>  (2581) 
ETAM_MBZ

>  <Index>  (2581) 
27496

$$$$
ETAM-pdb3ty3-B-LYS-118:MBZ-pdb3ty3-B-PHE-239
     RDKit          3D

 26 25  0  0  0  0  0  0  0  0999 V2000
   -1.2822    0.0830    5.5488 C   0  0  0  0  0  0  0  0  0  0  0  0
   -2.1452    0.0847    5.0729 H   0  0  0  0  0  0  0  0  0  0  0  0
   -0.8664    0.9766    5.5600 H   0  0  0  0  0  0  0  0  0  0  0  0
   -1.4417   -0.2501    6.5744 H   0  0  0  0  0  0  0  0  0  0  0  0
   -0.3264   -0.8861    4.8127 C   0  0  0  0  0  0  0  0  0  0  0  0
    0.6075   -0.6869    5.0902 H   0  0  0  0  0  0  0  0  0  0  0  0
   -0.5671   -1.8207    5.0571 H   0  0  0  0  0  0  0  0  0  0  0  0
   -0.4361   -0.7277    3.3069 N   0  0  0  0  0  4  0  0  0  0  0  0
    0.1253   -1.4250    2.8735 H   0  0  0  0  0  0  0  0  0  0  0  0
   -1.3891   -0.8385    3.0451 H   0  0  0  0  0  0  0  0  0  0  0  0
   -0.1128    0.1798    3.0602 H   0  0  0  0  0  0  0  0  0  0  0  0
   -0.0004    2.9427    0.0406 C   0  0  0  0  0  0  0  0  0  0  0  0
   -0.7146    3.2598   -0.5587 H   0  0  0  0  0  0  0  0  0  0  0  0
    0.8885    3.2543   -0.2486 H   0  0  0  0  0  0  0  0  0  0  0  0
   -0.1902    3.3575    1.0306 H   0  0  0  0  0  0  0  0  0  0  0  0
    0.0013    1.4225    0.0020 C   0  0  0  0  0  0  0  0  0  0  0  0
   -1.2025    0.7051    0.0023 C   0  0  0  0  0  0  0  0  0  0  0  0
   -2.0698    1.1905    0.0029 H   0  0  0  0  0  0  0  0  0  0  0  0
   -1.2149   -0.7088    0.0000 C   0  0  0  0  0  0  0  0  0  0  0  0
   -2.0889   -1.1918    0.0039 H   0  0  0  0  0  0  0  0  0  0  0  0
   -0.0018   -1.4183   -0.0061 C   0  0  0  0  0  0  0  0  0  0  0  0
   -0.0022   -2.4069   -0.0149 H   0  0  0  0  0  0  0  0  0  0  0  0
    1.2149   -0.7048    0.0000 C   0  0  0  0  0  0  0  0  0  0  0  0
    2.0917   -1.1961    0.0043 H   0  0  0  0  0  0  0  0  0  0  0  0
    1.2030    0.7044    0.0018 C   0  0  0  0  0  0  0  0  0  0  0  0
    2.0723    1.1965    0.0019 H   0  0  0  0  0  0  0  0  0  0  0  0
  1  5  1  0
  5  8  1  0
  1  2  1  0
  1  3  1  0
  1  4  1  0
  5  6  1  0
  5  7  1  0
  8  9  1  0
  8 10  1  0
  8 11  1  0
 12 16  1  0
 16 17  2  0
 17 19  1  0
 19 21  2  0
 21 23  1  0
 23 25  2  0
 25 16  1  0
 12 13  1  0
 12 14  1  0
 12 15  1  0
 17 18  1  0
 19 20  1  0
 21 22  1  0
 23 24  1  0
 25 26  1  0
M  CHG  1   8   1
M  END
>  <PDB_ID>  (2582) 
pdb3ty3

>  <RESIDUE_NAME>  (2582) 
LYS   PHE

>  <FRAG_NAME>  (2582) 
ETAM   MBZ

>  <FRAG_ATOM_NUM>  (2582) 
fragi: 11  fragj: 15

>  <atom.prop.CHAIN_ID>  (2582) 
A A A A A A A A A A A Z Z Z Z Z Z Z Z Z Z Z Z Z Z Z

>  <atom.prop.IS_HEAVY_ATOM>  (2582) 
1 0 0 0 1 0 0 1 0 0 0 1 0 0 0 1 1 0 1 0 1 0 1 0 1 0

>  <DIFUSE_FUNC_ATOM>  (2582) 
n/a

>  <FINAL_SINGLE_POINT_ENERGY>  (2582) 
0

>  <NONCOV_INTER_ENERGY_QM>  (2582) 
0

>  <FF_Energy>  (2582) 
-7.17

>  <QM_Energy>  (2582) 
-13.8

>  <source>  (2582) 
ETAM_MBZ

>  <Index>  (2582) 
27505

$$$$
ETAM-pdb4tkz-A-LYS-115:MBZ-pdb4tkz-A-PHE-106
     RDKit          3D

 26 25  0  0  0  0  0  0  0  0999 V2000
    3.0126   -4.8292    0.8908 C   0  0  0  0  0  0  0  0  0  0  0  0
    3.3104   -3.9244    0.6229 H   0  0  0  0  0  0  0  0  0  0  0  0
    3.3069   -5.5112    0.2358 H   0  0  0  0  0  0  0  0  0  0  0  0
    3.4339   -5.0673    1.8674 H   0  0  0  0  0  0  0  0  0  0  0  0
    1.4879   -4.8409    0.9502 C   0  0  0  0  0  0  0  0  0  0  0  0
    1.1796   -5.7783    1.1453 H   0  0  0  0  0  0  0  0  0  0  0  0
    1.1900   -4.2438    1.7029 H   0  0  0  0  0  0  0  0  0  0  0  0
    0.8655   -4.3757   -0.3186 N   0  0  0  0  0  4  0  0  0  0  0  0
    0.3277   -3.5516   -0.1416 H   0  0  0  0  0  0  0  0  0  0  0  0
    1.5821   -4.1707   -0.9842 H   0  0  0  0  0  0  0  0  0  0  0  0
    0.2701   -5.0937   -0.6792 H   0  0  0  0  0  0  0  0  0  0  0  0
    0.0068    2.8929   -0.0037 C   0  0  0  0  0  0  0  0  0  0  0  0
    0.8934    3.1999    0.3056 H   0  0  0  0  0  0  0  0  0  0  0  0
   -0.7125    3.2050    0.5979 H   0  0  0  0  0  0  0  0  0  0  0  0
   -0.1706    3.3306   -0.9861 H   0  0  0  0  0  0  0  0  0  0  0  0
    0.0027    1.3944   -0.0006 C   0  0  0  0  0  0  0  0  0  0  0  0
   -1.1950    0.6908   -0.0003 C   0  0  0  0  0  0  0  0  0  0  0  0
   -2.0598    1.1844   -0.0017 H   0  0  0  0  0  0  0  0  0  0  0  0
   -1.1992   -0.6931   -0.0000 C   0  0  0  0  0  0  0  0  0  0  0  0
   -2.0767   -1.1884    0.0005 H   0  0  0  0  0  0  0  0  0  0  0  0
   -0.0026   -1.3864    0.0014 C   0  0  0  0  0  0  0  0  0  0  0  0
   -0.0059   -2.3870    0.0026 H   0  0  0  0  0  0  0  0  0  0  0  0
    1.1992   -0.6944    0.0000 C   0  0  0  0  0  0  0  0  0  0  0  0
    2.0784   -1.1963    0.0005 H   0  0  0  0  0  0  0  0  0  0  0  0
    1.1948    0.6887   -0.0004 C   0  0  0  0  0  0  0  0  0  0  0  0
    2.0642    1.1874   -0.0017 H   0  0  0  0  0  0  0  0  0  0  0  0
  1  5  1  0
  5  8  1  0
  1  2  1  0
  1  3  1  0
  1  4  1  0
  5  6  1  0
  5  7  1  0
  8  9  1  0
  8 10  1  0
  8 11  1  0
 12 16  1  0
 16 17  2  0
 17 19  1  0
 19 21  2  0
 21 23  1  0
 23 25  2  0
 25 16  1  0
 12 13  1  0
 12 14  1  0
 12 15  1  0
 17 18  1  0
 19 20  1  0
 21 22  1  0
 23 24  1  0
 25 26  1  0
M  CHG  1   8   1
M  END
>  <PDB_ID>  (2583) 
pdb4tkz

>  <RESIDUE_NAME>  (2583) 
LYS   PHE

>  <FRAG_NAME>  (2583) 
ETAM   MBZ

>  <FRAG_ATOM_NUM>  (2583) 
fragi: 11  fragj: 15

>  <atom.prop.CHAIN_ID>  (2583) 
A A A A A A A A A A A Z Z Z Z Z Z Z Z Z Z Z Z Z Z Z

>  <atom.prop.IS_HEAVY_ATOM>  (2583) 
1 0 0 0 1 0 0 1 0 0 0 1 0 0 0 1 1 0 1 0 1 0 1 0 1 0

>  <DIFUSE_FUNC_ATOM>  (2583) 
n/a

>  <FINAL_SINGLE_POINT_ENERGY>  (2583) 
0

>  <NONCOV_INTER_ENERGY_QM>  (2583) 
0

>  <FF_Energy>  (2583) 
9.92

>  <QM_Energy>  (2583) 
2.58

>  <source>  (2583) 
ETAM_MBZ

>  <Index>  (2583) 
27518

$$$$
ETAM-pdb4tkz-A-LYS-3:MBZ-pdb4tkz-A-PHE-55
     RDKit          3D

 26 25  0  0  0  0  0  0  0  0999 V2000
   -0.5728    0.1502   -3.5340 C   0  0  0  0  0  0  0  0  0  0  0  0
   -0.3249   -0.3782   -2.7314 H   0  0  0  0  0  0  0  0  0  0  0  0
   -0.9354    1.0361   -3.2742 H   0  0  0  0  0  0  0  0  0  0  0  0
    0.3114    0.2924   -4.1552 H   0  0  0  0  0  0  0  0  0  0  0  0
   -1.6445   -0.6050   -4.2983 C   0  0  0  0  0  0  0  0  0  0  0  0
   -2.0826    0.0181   -4.9511 H   0  0  0  0  0  0  0  0  0  0  0  0
   -1.2178   -1.3585   -4.8049 H   0  0  0  0  0  0  0  0  0  0  0  0
   -2.6896   -1.1650   -3.3864 N   0  0  0  0  0  4  0  0  0  0  0  0
   -2.9709   -2.0627   -3.7222 H   0  0  0  0  0  0  0  0  0  0  0  0
   -2.3108   -1.2519   -2.4672 H   0  0  0  0  0  0  0  0  0  0  0  0
   -3.4747   -0.5492   -3.3708 H   0  0  0  0  0  0  0  0  0  0  0  0
   -0.0110    2.9005    0.0194 C   0  0  0  0  0  0  0  0  0  0  0  0
   -0.7963    3.2084   -0.4909 H   0  0  0  0  0  0  0  0  0  0  0  0
    0.8327    3.2165   -0.3810 H   0  0  0  0  0  0  0  0  0  0  0  0
   -0.0812    3.3203    1.0229 H   0  0  0  0  0  0  0  0  0  0  0  0
   -0.0014    1.3955    0.0016 C   0  0  0  0  0  0  0  0  0  0  0  0
   -1.1952    0.6793   -0.0003 C   0  0  0  0  0  0  0  0  0  0  0  0
   -2.0628    1.1794   -0.0030 H   0  0  0  0  0  0  0  0  0  0  0  0
   -1.2016   -0.6901   -0.0000 C   0  0  0  0  0  0  0  0  0  0  0  0
   -2.0766   -1.1934    0.0065 H   0  0  0  0  0  0  0  0  0  0  0  0
   -0.0010   -1.3860   -0.0075 C   0  0  0  0  0  0  0  0  0  0  0  0
   -0.0048   -2.3850   -0.0187 H   0  0  0  0  0  0  0  0  0  0  0  0
    1.2016   -0.6912    0.0000 C   0  0  0  0  0  0  0  0  0  0  0  0
    2.0809   -1.1933    0.0031 H   0  0  0  0  0  0  0  0  0  0  0  0
    1.1976    0.6926    0.0061 C   0  0  0  0  0  0  0  0  0  0  0  0
    2.0624    1.1927    0.0135 H   0  0  0  0  0  0  0  0  0  0  0  0
  1  5  1  0
  5  8  1  0
  1  2  1  0
  1  3  1  0
  1  4  1  0
  5  6  1  0
  5  7  1  0
  8  9  1  0
  8 10  1  0
  8 11  1  0
 12 16  1  0
 16 17  2  0
 17 19  1  0
 19 21  2  0
 21 23  1  0
 23 25  2  0
 25 16  1  0
 12 13  1  0
 12 14  1  0
 12 15  1  0
 17 18  1  0
 19 20  1  0
 21 22  1  0
 23 24  1  0
 25 26  1  0
M  CHG  1   8   1
M  END
>  <PDB_ID>  (2584) 
pdb4tkz

>  <RESIDUE_NAME>  (2584) 
LYS   PHE

>  <FRAG_NAME>  (2584) 
ETAM   MBZ

>  <FRAG_ATOM_NUM>  (2584) 
fragi: 11  fragj: 15

>  <atom.prop.CHAIN_ID>  (2584) 
A A A A A A A A A A A Z Z Z Z Z Z Z Z Z Z Z Z Z Z Z

>  <atom.prop.IS_HEAVY_ATOM>  (2584) 
1 0 0 0 1 0 0 1 0 0 0 1 0 0 0 1 1 0 1 0 1 0 1 0 1 0

>  <DIFUSE_FUNC_ATOM>  (2584) 
n/a

>  <FINAL_SINGLE_POINT_ENERGY>  (2584) 
0

>  <NONCOV_INTER_ENERGY_QM>  (2584) 
0

>  <FF_Energy>  (2584) 
-4.13

>  <QM_Energy>  (2584) 
-9.92

>  <source>  (2584) 
ETAM_MBZ

>  <Index>  (2584) 
27521

$$$$
ETAM-pdb4tkz-C-LYS-3:MBZ-pdb4tkz-C-PHE-55
     RDKit          3D

 26 25  0  0  0  0  0  0  0  0999 V2000
   -0.7499   -0.0379   -3.5644 C   0  0  0  0  0  0  0  0  0  0  0  0
   -0.4512   -0.4478   -2.7110 H   0  0  0  0  0  0  0  0  0  0  0  0
   -1.1828    0.8398   -3.3984 H   0  0  0  0  0  0  0  0  0  0  0  0
    0.1207    0.1153   -4.2022 H   0  0  0  0  0  0  0  0  0  0  0  0
   -1.7682   -0.9664   -4.2215 C   0  0  0  0  0  0  0  0  0  0  0  0
   -2.1934   -0.4844   -4.9943 H   0  0  0  0  0  0  0  0  0  0  0  0
   -1.2868   -1.7751   -4.5739 H   0  0  0  0  0  0  0  0  0  0  0  0
   -2.8309   -1.4042   -3.2741 N   0  0  0  0  0  4  0  0  0  0  0  0
   -2.5201   -1.2548   -2.3361 H   0  0  0  0  0  0  0  0  0  0  0  0
   -3.6623   -0.8747   -3.4408 H   0  0  0  0  0  0  0  0  0  0  0  0
   -3.0194   -2.3757   -3.4134 H   0  0  0  0  0  0  0  0  0  0  0  0
   -0.0049    2.8960    0.0134 C   0  0  0  0  0  0  0  0  0  0  0  0
   -0.7655    3.2063   -0.5348 H   0  0  0  0  0  0  0  0  0  0  0  0
    0.8574    3.2071   -0.3523 H   0  0  0  0  0  0  0  0  0  0  0  0
   -0.1173    3.3229    1.0100 H   0  0  0  0  0  0  0  0  0  0  0  0
   -0.0024    1.3965    0.0044 C   0  0  0  0  0  0  0  0  0  0  0  0
   -1.1980    0.6873    0.0044 C   0  0  0  0  0  0  0  0  0  0  0  0
   -2.0644    1.1814    0.0059 H   0  0  0  0  0  0  0  0  0  0  0  0
   -1.2036   -0.6957   -0.0000 C   0  0  0  0  0  0  0  0  0  0  0  0
   -2.0762   -1.1947    0.0039 H   0  0  0  0  0  0  0  0  0  0  0  0
    0.0021   -1.3902   -0.0076 C   0  0  0  0  0  0  0  0  0  0  0  0
    0.0008   -2.3876   -0.0189 H   0  0  0  0  0  0  0  0  0  0  0  0
    1.2036   -0.6889   -0.0000 C   0  0  0  0  0  0  0  0  0  0  0  0
    2.0849   -1.1918    0.0076 H   0  0  0  0  0  0  0  0  0  0  0  0
    1.1983    0.6910   -0.0012 C   0  0  0  0  0  0  0  0  0  0  0  0
    2.0626    1.1940   -0.0071 H   0  0  0  0  0  0  0  0  0  0  0  0
  1  5  1  0
  5  8  1  0
  1  2  1  0
  1  3  1  0
  1  4  1  0
  5  6  1  0
  5  7  1  0
  8  9  1  0
  8 10  1  0
  8 11  1  0
 12 16  1  0
 16 17  2  0
 17 19  1  0
 19 21  2  0
 21 23  1  0
 23 25  2  0
 25 16  1  0
 12 13  1  0
 12 14  1  0
 12 15  1  0
 17 18  1  0
 19 20  1  0
 21 22  1  0
 23 24  1  0
 25 26  1  0
M  CHG  1   8   1
M  END
>  <PDB_ID>  (2585) 
pdb4tkz

>  <RESIDUE_NAME>  (2585) 
LYS   PHE

>  <FRAG_NAME>  (2585) 
ETAM   MBZ

>  <FRAG_ATOM_NUM>  (2585) 
fragi: 11  fragj: 15

>  <atom.prop.CHAIN_ID>  (2585) 
A A A A A A A A A A A Z Z Z Z Z Z Z Z Z Z Z Z Z Z Z

>  <atom.prop.IS_HEAVY_ATOM>  (2585) 
1 0 0 0 1 0 0 1 0 0 0 1 0 0 0 1 1 0 1 0 1 0 1 0 1 0

>  <DIFUSE_FUNC_ATOM>  (2585) 
n/a

>  <FINAL_SINGLE_POINT_ENERGY>  (2585) 
0

>  <NONCOV_INTER_ENERGY_QM>  (2585) 
0

>  <FF_Energy>  (2585) 
-3.64

>  <QM_Energy>  (2585) 
-9.41

>  <source>  (2585) 
ETAM_MBZ

>  <Index>  (2585) 
27524

$$$$
ETAM-pdb4s3k-A-LYS-397:MBZ-pdb4s3k-A-PHE-0
     RDKit          3D

 26 25  0  0  0  0  0  0  0  0999 V2000
   -3.3203   -1.7549   -4.3695 C   0  0  0  0  0  0  0  0  0  0  0  0
   -4.1765   -1.4582   -4.0252 H   0  0  0  0  0  0  0  0  0  0  0  0
   -2.9128   -2.3892   -3.7587 H   0  0  0  0  0  0  0  0  0  0  0  0
   -3.4676   -2.2326   -5.3381 H   0  0  0  0  0  0  0  0  0  0  0  0
   -2.4055   -0.5468   -4.4813 C   0  0  0  0  0  0  0  0  0  0  0  0
   -1.5772   -0.8102   -4.9112 H   0  0  0  0  0  0  0  0  0  0  0  0
   -2.8482    0.1439   -4.9989 H   0  0  0  0  0  0  0  0  0  0  0  0
   -2.0765    0.0147   -3.1347 N   0  0  0  0  0  4  0  0  0  0  0  0
   -2.8223    0.2673   -2.7200 H   0  0  0  0  0  0  0  0  0  0  0  0
   -1.6659   -0.6012   -2.6408 H   0  0  0  0  0  0  0  0  0  0  0  0
   -1.5412    0.7207   -3.2214 H   0  0  0  0  0  0  0  0  0  0  0  0
    0.0064    2.9010   -0.0007 C   0  0  0  0  0  0  0  0  0  0  0  0
   -0.6619    3.1977   -0.6391 H   0  0  0  0  0  0  0  0  0  0  0  0
    0.8853    3.1925   -0.2869 H   0  0  0  0  0  0  0  0  0  0  0  0
   -0.2126    3.3483    0.9688 H   0  0  0  0  0  0  0  0  0  0  0  0
    0.0009    1.3962    0.0034 C   0  0  0  0  0  0  0  0  0  0  0  0
   -1.1915    0.6901   -0.0015 C   0  0  0  0  0  0  0  0  0  0  0  0
   -1.9996    1.1517   -0.0004 H   0  0  0  0  0  0  0  0  0  0  0  0
   -1.1941   -0.6966   -0.0000 C   0  0  0  0  0  0  0  0  0  0  0  0
   -2.0001   -1.1612   -0.0003 H   0  0  0  0  0  0  0  0  0  0  0  0
   -0.0002   -1.3856   -0.0007 C   0  0  0  0  0  0  0  0  0  0  0  0
    0.0010   -2.3155   -0.0006 H   0  0  0  0  0  0  0  0  0  0  0  0
    1.1941   -0.6932   -0.0000 C   0  0  0  0  0  0  0  0  0  0  0  0
    1.9999   -1.1565   -0.0002 H   0  0  0  0  0  0  0  0  0  0  0  0
    1.1908    0.6891   -0.0012 C   0  0  0  0  0  0  0  0  0  0  0  0
    1.9991    1.1502    0.0010 H   0  0  0  0  0  0  0  0  0  0  0  0
  1  5  1  0
  5  8  1  0
  1  2  1  0
  1  3  1  0
  1  4  1  0
  5  6  1  0
  5  7  1  0
  8  9  1  0
  8 10  1  0
  8 11  1  0
 12 16  1  0
 16 17  2  0
 17 19  1  0
 19 21  2  0
 21 23  1  0
 23 25  2  0
 25 16  1  0
 12 13  1  0
 12 14  1  0
 12 15  1  0
 17 18  1  0
 19 20  1  0
 21 22  1  0
 23 24  1  0
 25 26  1  0
M  CHG  1   8   1
M  END
>  <PDB_ID>  (2586) 
pdb4s3k

>  <RESIDUE_NAME>  (2586) 
LYS   PHE

>  <FRAG_NAME>  (2586) 
ETAM   MBZ

>  <FRAG_ATOM_NUM>  (2586) 
fragi: 11  fragj: 15

>  <atom.prop.CHAIN_ID>  (2586) 
A A A A A A A A A A A Z Z Z Z Z Z Z Z Z Z Z Z Z Z Z

>  <atom.prop.IS_HEAVY_ATOM>  (2586) 
1 0 0 0 1 0 0 1 0 0 0 1 0 0 0 1 1 0 1 0 1 0 1 0 1 0

>  <DIFUSE_FUNC_ATOM>  (2586) 
n/a

>  <FINAL_SINGLE_POINT_ENERGY>  (2586) 
0

>  <NONCOV_INTER_ENERGY_QM>  (2586) 
0

>  <FF_Energy>  (2586) 
-4.79

>  <QM_Energy>  (2586) 
-10.93

>  <source>  (2586) 
ETAM_MBZ

>  <Index>  (2586) 
27533

$$$$
ETAM-pdb4tlg-B-LYS-388:MBZ-pdb4tlg-B-PHE-298
     RDKit          3D

 26 25  0  0  0  0  0  0  0  0999 V2000
   -0.9895   -4.4838   -4.4309 C   0  0  0  0  0  0  0  0  0  0  0  0
   -0.5481   -4.0021   -5.1884 H   0  0  0  0  0  0  0  0  0  0  0  0
   -1.7609   -3.9414   -4.0970 H   0  0  0  0  0  0  0  0  0  0  0  0
   -1.3674   -5.4374   -4.7997 H   0  0  0  0  0  0  0  0  0  0  0  0
    0.0108   -4.6479   -3.3096 C   0  0  0  0  0  0  0  0  0  0  0  0
   -0.4256   -5.1261   -2.5478 H   0  0  0  0  0  0  0  0  0  0  0  0
    0.7875   -5.1855   -3.6389 H   0  0  0  0  0  0  0  0  0  0  0  0
    0.4959   -3.3257   -2.8440 N   0  0  0  0  0  4  0  0  0  0  0  0
   -0.0586   -3.0212   -2.0680 H   0  0  0  0  0  0  0  0  0  0  0  0
    1.4518   -3.4012   -2.5604 H   0  0  0  0  0  0  0  0  0  0  0  0
    0.4205   -2.6604   -3.5873 H   0  0  0  0  0  0  0  0  0  0  0  0
   -0.0007    2.8881   -0.0056 C   0  0  0  0  0  0  0  0  0  0  0  0
   -0.8000    3.1945   -0.5046 H   0  0  0  0  0  0  0  0  0  0  0  0
    0.8319    3.1954   -0.4457 H   0  0  0  0  0  0  0  0  0  0  0  0
   -0.0367    3.3410    0.9853 H   0  0  0  0  0  0  0  0  0  0  0  0
   -0.0007    1.3941    0.0053 C   0  0  0  0  0  0  0  0  0  0  0  0
   -1.1895    0.6910   -0.0032 C   0  0  0  0  0  0  0  0  0  0  0  0
   -2.0592    1.1822   -0.0133 H   0  0  0  0  0  0  0  0  0  0  0  0
   -1.1960   -0.6930    0.0000 C   0  0  0  0  0  0  0  0  0  0  0  0
   -2.0757   -1.1865    0.0025 H   0  0  0  0  0  0  0  0  0  0  0  0
   -0.0027   -1.3881    0.0019 C   0  0  0  0  0  0  0  0  0  0  0  0
   -0.0058   -2.3882    0.0042 H   0  0  0  0  0  0  0  0  0  0  0  0
    1.1960   -0.6943   -0.0000 C   0  0  0  0  0  0  0  0  0  0  0  0
    2.0779   -1.1949    0.0025 H   0  0  0  0  0  0  0  0  0  0  0  0
    1.1929    0.6904   -0.0039 C   0  0  0  0  0  0  0  0  0  0  0  0
    2.0606    1.1882   -0.0145 H   0  0  0  0  0  0  0  0  0  0  0  0
  1  5  1  0
  5  8  1  0
  1  2  1  0
  1  3  1  0
  1  4  1  0
  5  6  1  0
  5  7  1  0
  8  9  1  0
  8 10  1  0
  8 11  1  0
 12 16  1  0
 16 17  2  0
 17 19  1  0
 19 21  2  0
 21 23  1  0
 23 25  2  0
 25 16  1  0
 12 13  1  0
 12 14  1  0
 12 15  1  0
 17 18  1  0
 19 20  1  0
 21 22  1  0
 23 24  1  0
 25 26  1  0
M  CHG  1   8   1
M  END
>  <PDB_ID>  (2587) 
pdb4tlg

>  <RESIDUE_NAME>  (2587) 
LYS   PHE

>  <FRAG_NAME>  (2587) 
ETAM   MBZ

>  <FRAG_ATOM_NUM>  (2587) 
fragi: 11  fragj: 15

>  <atom.prop.CHAIN_ID>  (2587) 
A A A A A A A A A A A Z Z Z Z Z Z Z Z Z Z Z Z Z Z Z

>  <atom.prop.IS_HEAVY_ATOM>  (2587) 
1 0 0 0 1 0 0 1 0 0 0 1 0 0 0 1 1 0 1 0 1 0 1 0 1 0

>  <DIFUSE_FUNC_ATOM>  (2587) 
n/a

>  <FINAL_SINGLE_POINT_ENERGY>  (2587) 
0

>  <NONCOV_INTER_ENERGY_QM>  (2587) 
0

>  <FF_Energy>  (2587) 
-1.74

>  <QM_Energy>  (2587) 
-7.71

>  <source>  (2587) 
ETAM_MBZ

>  <Index>  (2587) 
27537

$$$$
ETAM-pdb3tyz-A-LYS-221:MBZ-pdb3tyz-A-PHE-190
     RDKit          3D

 26 25  0  0  0  0  0  0  0  0999 V2000
    4.6631   -1.4498   -4.3365 C   0  0  0  0  0  0  0  0  0  0  0  0
    5.5945   -1.2804   -4.0695 H   0  0  0  0  0  0  0  0  0  0  0  0
    4.1548   -0.6170   -4.4611 H   0  0  0  0  0  0  0  0  0  0  0  0
    4.6542   -2.0194   -5.2658 H   0  0  0  0  0  0  0  0  0  0  0  0
    3.9847   -2.2740   -3.2392 C   0  0  0  0  0  0  0  0  0  0  0  0
    3.0407   -2.4706   -3.5292 H   0  0  0  0  0  0  0  0  0  0  0  0
    4.4756   -3.1491   -3.1510 H   0  0  0  0  0  0  0  0  0  0  0  0
    3.9697   -1.5818   -1.9394 N   0  0  0  0  0  4  0  0  0  0  0  0
    4.8149   -1.0551   -1.8253 H   0  0  0  0  0  0  0  0  0  0  0  0
    3.1858   -0.9580   -1.8956 H   0  0  0  0  0  0  0  0  0  0  0  0
    3.8976   -2.2529   -1.1986 H   0  0  0  0  0  0  0  0  0  0  0  0
    0.0053    2.9235    0.0192 C   0  0  0  0  0  0  0  0  0  0  0  0
    0.8481    3.2128    0.4524 H   0  0  0  0  0  0  0  0  0  0  0  0
   -0.7818    3.2158    0.5456 H   0  0  0  0  0  0  0  0  0  0  0  0
   -0.0505    3.3961   -0.9615 H   0  0  0  0  0  0  0  0  0  0  0  0
    0.0012    1.4112   -0.0109 C   0  0  0  0  0  0  0  0  0  0  0  0
   -1.2015    0.6999    0.0021 C   0  0  0  0  0  0  0  0  0  0  0  0
   -2.0671    1.1840    0.0118 H   0  0  0  0  0  0  0  0  0  0  0  0
   -1.2075   -0.7080   -0.0000 C   0  0  0  0  0  0  0  0  0  0  0  0
   -2.0811   -1.1957   -0.0033 H   0  0  0  0  0  0  0  0  0  0  0  0
    0.0023   -1.4056    0.0043 C   0  0  0  0  0  0  0  0  0  0  0  0
    0.0010   -2.4015    0.0096 H   0  0  0  0  0  0  0  0  0  0  0  0
    1.2075   -0.7009   -0.0000 C   0  0  0  0  0  0  0  0  0  0  0  0
    2.0883   -1.1914   -0.0053 H   0  0  0  0  0  0  0  0  0  0  0  0
    1.1980    0.7033    0.0045 C   0  0  0  0  0  0  0  0  0  0  0  0
    2.0673    1.1957    0.0186 H   0  0  0  0  0  0  0  0  0  0  0  0
  1  5  1  0
  5  8  1  0
  1  2  1  0
  1  3  1  0
  1  4  1  0
  5  6  1  0
  5  7  1  0
  8  9  1  0
  8 10  1  0
  8 11  1  0
 12 16  1  0
 16 17  2  0
 17 19  1  0
 19 21  2  0
 21 23  1  0
 23 25  2  0
 25 16  1  0
 12 13  1  0
 12 14  1  0
 12 15  1  0
 17 18  1  0
 19 20  1  0
 21 22  1  0
 23 24  1  0
 25 26  1  0
M  CHG  1   8   1
M  END
>  <PDB_ID>  (2588) 
pdb3tyz

>  <RESIDUE_NAME>  (2588) 
LYS   PHE

>  <FRAG_NAME>  (2588) 
ETAM   MBZ

>  <FRAG_ATOM_NUM>  (2588) 
fragi: 11  fragj: 15

>  <atom.prop.CHAIN_ID>  (2588) 
A A A A A A A A A A A Z Z Z Z Z Z Z Z Z Z Z Z Z Z Z

>  <atom.prop.IS_HEAVY_ATOM>  (2588) 
1 0 0 0 1 0 0 1 0 0 0 1 0 0 0 1 1 0 1 0 1 0 1 0 1 0

>  <DIFUSE_FUNC_ATOM>  (2588) 
n/a

>  <FINAL_SINGLE_POINT_ENERGY>  (2588) 
0

>  <NONCOV_INTER_ENERGY_QM>  (2588) 
0

>  <FF_Energy>  (2588) 
0.11

>  <QM_Energy>  (2588) 
-5.35

>  <source>  (2588) 
ETAM_MBZ

>  <Index>  (2588) 
27543

$$$$
ETAM-pdb3tyz-B-LYS-221:MBZ-pdb3tyz-B-PHE-190
     RDKit          3D

 26 25  0  0  0  0  0  0  0  0999 V2000
    4.4978   -1.3657   -4.3457 C   0  0  0  0  0  0  0  0  0  0  0  0
    5.3995   -1.0451   -4.0974 H   0  0  0  0  0  0  0  0  0  0  0  0
    3.8795   -0.6130   -4.5101 H   0  0  0  0  0  0  0  0  0  0  0  0
    4.5678   -1.9786   -5.2443 H   0  0  0  0  0  0  0  0  0  0  0  0
    3.9454   -2.1969   -3.1831 C   0  0  0  0  0  0  0  0  0  0  0  0
    2.9893   -2.4174   -3.3758 H   0  0  0  0  0  0  0  0  0  0  0  0
    4.4752   -3.0429   -3.1166 H   0  0  0  0  0  0  0  0  0  0  0  0
    4.0351   -1.4531   -1.9039 N   0  0  0  0  0  4  0  0  0  0  0  0
    3.1237   -1.1404   -1.6344 H   0  0  0  0  0  0  0  0  0  0  0  0
    4.4041   -2.0530   -1.1933 H   0  0  0  0  0  0  0  0  0  0  0  0
    4.6376   -0.6627   -2.0178 H   0  0  0  0  0  0  0  0  0  0  0  0
    0.0047    2.9250    0.0142 C   0  0  0  0  0  0  0  0  0  0  0  0
    0.8576    3.2195    0.4187 H   0  0  0  0  0  0  0  0  0  0  0  0
   -0.7693    3.2213    0.5527 H   0  0  0  0  0  0  0  0  0  0  0  0
   -0.0758    3.3874   -0.9696 H   0  0  0  0  0  0  0  0  0  0  0  0
    0.0007    1.4106   -0.0072 C   0  0  0  0  0  0  0  0  0  0  0  0
   -1.1997    0.6998    0.0057 C   0  0  0  0  0  0  0  0  0  0  0  0
   -2.0666    1.1853    0.0175 H   0  0  0  0  0  0  0  0  0  0  0  0
   -1.2078   -0.7065   -0.0000 C   0  0  0  0  0  0  0  0  0  0  0  0
   -2.0820   -1.1934   -0.0039 H   0  0  0  0  0  0  0  0  0  0  0  0
    0.0013   -1.4054    0.0017 C   0  0  0  0  0  0  0  0  0  0  0  0
    0.0012   -2.3988    0.0035 H   0  0  0  0  0  0  0  0  0  0  0  0
    1.2078   -0.6979   -0.0000 C   0  0  0  0  0  0  0  0  0  0  0  0
    2.0881   -1.1920    0.0009 H   0  0  0  0  0  0  0  0  0  0  0  0
    1.1977    0.6993   -0.0002 C   0  0  0  0  0  0  0  0  0  0  0  0
    2.0672    1.1948    0.0042 H   0  0  0  0  0  0  0  0  0  0  0  0
  1  5  1  0
  5  8  1  0
  1  2  1  0
  1  3  1  0
  1  4  1  0
  5  6  1  0
  5  7  1  0
  8  9  1  0
  8 10  1  0
  8 11  1  0
 12 16  1  0
 16 17  2  0
 17 19  1  0
 19 21  2  0
 21 23  1  0
 23 25  2  0
 25 16  1  0
 12 13  1  0
 12 14  1  0
 12 15  1  0
 17 18  1  0
 19 20  1  0
 21 22  1  0
 23 24  1  0
 25 26  1  0
M  CHG  1   8   1
M  END
>  <PDB_ID>  (2589) 
pdb3tyz

>  <RESIDUE_NAME>  (2589) 
LYS   PHE

>  <FRAG_NAME>  (2589) 
ETAM   MBZ

>  <FRAG_ATOM_NUM>  (2589) 
fragi: 11  fragj: 15

>  <atom.prop.CHAIN_ID>  (2589) 
A A A A A A A A A A A Z Z Z Z Z Z Z Z Z Z Z Z Z Z Z

>  <atom.prop.IS_HEAVY_ATOM>  (2589) 
1 0 0 0 1 0 0 1 0 0 0 1 0 0 0 1 1 0 1 0 1 0 1 0 1 0

>  <DIFUSE_FUNC_ATOM>  (2589) 
n/a

>  <FINAL_SINGLE_POINT_ENERGY>  (2589) 
0

>  <NONCOV_INTER_ENERGY_QM>  (2589) 
0

>  <FF_Energy>  (2589) 
0.14

>  <QM_Energy>  (2589) 
-5.73

>  <source>  (2589) 
ETAM_MBZ

>  <Index>  (2589) 
27544

$$$$
ETAM-pdb4tno-A-LYS-64:MBZ-pdb4tno-A-PHE-42
     RDKit          3D

 26 25  0  0  0  0  0  0  0  0999 V2000
    1.4574   -5.0247   -1.2944 C   0  0  0  0  0  0  0  0  0  0  0  0
    0.7412   -5.4278   -0.7270 H   0  0  0  0  0  0  0  0  0  0  0  0
    2.1019   -5.7321   -1.5783 H   0  0  0  0  0  0  0  0  0  0  0  0
    1.0031   -4.5776   -2.1786 H   0  0  0  0  0  0  0  0  0  0  0  0
    2.2137   -4.0003   -0.4528 C   0  0  0  0  0  0  0  0  0  0  0  0
    3.1580   -4.3130   -0.3384 H   0  0  0  0  0  0  0  0  0  0  0  0
    2.2129   -3.1230   -0.9356 H   0  0  0  0  0  0  0  0  0  0  0  0
    1.5860   -3.8283    0.8825 N   0  0  0  0  0  4  0  0  0  0  0  0
    1.8293   -4.6029    1.4668 H   0  0  0  0  0  0  0  0  0  0  0  0
    1.9155   -2.9803    1.2983 H   0  0  0  0  0  0  0  0  0  0  0  0
    0.5919   -3.7861    0.7801 H   0  0  0  0  0  0  0  0  0  0  0  0
    0.0240    2.9063    0.0004 C   0  0  0  0  0  0  0  0  0  0  0  0
    0.3507    3.2032   -0.8870 H   0  0  0  0  0  0  0  0  0  0  0  0
    0.6352    3.2031    0.7214 H   0  0  0  0  0  0  0  0  0  0  0  0
   -0.9464    3.3721    0.1722 H   0  0  0  0  0  0  0  0  0  0  0  0
    0.0022    1.3987    0.0043 C   0  0  0  0  0  0  0  0  0  0  0  0
   -1.1898    0.6928   -0.0024 C   0  0  0  0  0  0  0  0  0  0  0  0
   -2.0587    1.1832   -0.0101 H   0  0  0  0  0  0  0  0  0  0  0  0
   -1.1947   -0.6940    0.0000 C   0  0  0  0  0  0  0  0  0  0  0  0
   -2.0775   -1.1842    0.0038 H   0  0  0  0  0  0  0  0  0  0  0  0
   -0.0070   -1.3860   -0.0009 C   0  0  0  0  0  0  0  0  0  0  0  0
   -0.0090   -2.3888   -0.0031 H   0  0  0  0  0  0  0  0  0  0  0  0
    1.1947   -0.6968   -0.0000 C   0  0  0  0  0  0  0  0  0  0  0  0
    2.0734   -1.2011    0.0032 H   0  0  0  0  0  0  0  0  0  0  0  0
    1.1945    0.6854   -0.0009 C   0  0  0  0  0  0  0  0  0  0  0  0
    2.0646    1.1827   -0.0060 H   0  0  0  0  0  0  0  0  0  0  0  0
  1  5  1  0
  5  8  1  0
  1  2  1  0
  1  3  1  0
  1  4  1  0
  5  6  1  0
  5  7  1  0
  8  9  1  0
  8 10  1  0
  8 11  1  0
 12 16  1  0
 16 17  2  0
 17 19  1  0
 19 21  2  0
 21 23  1  0
 23 25  2  0
 25 16  1  0
 12 13  1  0
 12 14  1  0
 12 15  1  0
 17 18  1  0
 19 20  1  0
 21 22  1  0
 23 24  1  0
 25 26  1  0
M  CHG  1   8   1
M  END
>  <PDB_ID>  (2590) 
pdb4tno

>  <RESIDUE_NAME>  (2590) 
LYS   PHE

>  <FRAG_NAME>  (2590) 
ETAM   MBZ

>  <FRAG_ATOM_NUM>  (2590) 
fragi: 11  fragj: 15

>  <atom.prop.CHAIN_ID>  (2590) 
A A A A A A A A A A A Z Z Z Z Z Z Z Z Z Z Z Z Z Z Z

>  <atom.prop.IS_HEAVY_ATOM>  (2590) 
1 0 0 0 1 0 0 1 0 0 0 1 0 0 0 1 1 0 1 0 1 0 1 0 1 0

>  <DIFUSE_FUNC_ATOM>  (2590) 
n/a

>  <FINAL_SINGLE_POINT_ENERGY>  (2590) 
0

>  <NONCOV_INTER_ENERGY_QM>  (2590) 
0

>  <FF_Energy>  (2590) 
5.9

>  <QM_Energy>  (2590) 
-4.05

>  <source>  (2590) 
ETAM_MBZ

>  <Index>  (2590) 
27579

$$$$
ETAM-pdb4tot-C-LYS-76:MBZ-pdb4tot-C-PHE-46
     RDKit          3D

 26 25  0  0  0  0  0  0  0  0999 V2000
    0.6751   -1.0806    4.4176 C   0  0  0  0  0  0  0  0  0  0  0  0
    0.3935   -1.9915    4.1549 H   0  0  0  0  0  0  0  0  0  0  0  0
    0.5448   -0.9288    5.3861 H   0  0  0  0  0  0  0  0  0  0  0  0
    1.7340   -0.9647    4.1866 H   0  0  0  0  0  0  0  0  0  0  0  0
   -0.1294   -0.0700    3.6452 C   0  0  0  0  0  0  0  0  0  0  0  0
   -0.1783    0.7860    4.1694 H   0  0  0  0  0  0  0  0  0  0  0  0
    0.3255    0.1156    2.7681 H   0  0  0  0  0  0  0  0  0  0  0  0
   -1.5106   -0.5522    3.3797 N   0  0  0  0  0  4  0  0  0  0  0  0
   -1.6447   -1.4380    3.8231 H   0  0  0  0  0  0  0  0  0  0  0  0
   -2.1691    0.1067    3.7441 H   0  0  0  0  0  0  0  0  0  0  0  0
   -1.6452   -0.6482    2.3935 H   0  0  0  0  0  0  0  0  0  0  0  0
    0.0011    2.9229    0.0063 C   0  0  0  0  0  0  0  0  0  0  0  0
    0.8017    3.2200    0.5149 H   0  0  0  0  0  0  0  0  0  0  0  0
   -0.8299    3.2224    0.4628 H   0  0  0  0  0  0  0  0  0  0  0  0
    0.0328    3.4070   -0.9698 H   0  0  0  0  0  0  0  0  0  0  0  0
   -0.0005    1.4083   -0.0106 C   0  0  0  0  0  0  0  0  0  0  0  0
   -1.1934    0.6979   -0.0019 C   0  0  0  0  0  0  0  0  0  0  0  0
   -2.0630    1.1802    0.0016 H   0  0  0  0  0  0  0  0  0  0  0  0
   -1.1928   -0.7019   -0.0000 C   0  0  0  0  0  0  0  0  0  0  0  0
   -2.0735   -1.1912    0.0083 H   0  0  0  0  0  0  0  0  0  0  0  0
    0.0011   -1.3927   -0.0074 C   0  0  0  0  0  0  0  0  0  0  0  0
   -0.0044   -2.3962   -0.0183 H   0  0  0  0  0  0  0  0  0  0  0  0
    1.1928   -0.7043    0.0000 C   0  0  0  0  0  0  0  0  0  0  0  0
    2.0789   -1.1977   -0.0077 H   0  0  0  0  0  0  0  0  0  0  0  0
    1.1928    0.6927    0.0199 C   0  0  0  0  0  0  0  0  0  0  0  0
    2.0629    1.1828    0.0559 H   0  0  0  0  0  0  0  0  0  0  0  0
  1  5  1  0
  5  8  1  0
  1  2  1  0
  1  3  1  0
  1  4  1  0
  5  6  1  0
  5  7  1  0
  8  9  1  0
  8 10  1  0
  8 11  1  0
 12 16  1  0
 16 17  2  0
 17 19  1  0
 19 21  2  0
 21 23  1  0
 23 25  2  0
 25 16  1  0
 12 13  1  0
 12 14  1  0
 12 15  1  0
 17 18  1  0
 19 20  1  0
 21 22  1  0
 23 24  1  0
 25 26  1  0
M  CHG  1   8   1
M  END
>  <PDB_ID>  (2591) 
pdb4tot

>  <RESIDUE_NAME>  (2591) 
LYS   PHE

>  <FRAG_NAME>  (2591) 
ETAM   MBZ

>  <FRAG_ATOM_NUM>  (2591) 
fragi: 11  fragj: 15

>  <atom.prop.CHAIN_ID>  (2591) 
A A A A A A A A A A A Z Z Z Z Z Z Z Z Z Z Z Z Z Z Z

>  <atom.prop.IS_HEAVY_ATOM>  (2591) 
1 0 0 0 1 0 0 1 0 0 0 1 0 0 0 1 1 0 1 0 1 0 1 0 1 0

>  <DIFUSE_FUNC_ATOM>  (2591) 
n/a

>  <FINAL_SINGLE_POINT_ENERGY>  (2591) 
0

>  <NONCOV_INTER_ENERGY_QM>  (2591) 
0

>  <FF_Energy>  (2591) 
-7.06

>  <QM_Energy>  (2591) 
-14.55

>  <source>  (2591) 
ETAM_MBZ

>  <Index>  (2591) 
27589

$$$$
ETAM-pdb4tqg-A-LYS-144:MBZ-pdb4tqg-A-PHE-127
     RDKit          3D

 26 25  0  0  0  0  0  0  0  0999 V2000
    0.7161   -5.1531    1.3342 C   0  0  0  0  0  0  0  0  0  0  0  0
    0.7725   -4.4353    0.6499 H   0  0  0  0  0  0  0  0  0  0  0  0
   -0.1426   -5.6458    1.2549 H   0  0  0  0  0  0  0  0  0  0  0  0
    1.5400   -5.8504    1.1828 H   0  0  0  0  0  0  0  0  0  0  0  0
    0.7915   -4.5244    2.7068 C   0  0  0  0  0  0  0  0  0  0  0  0
    0.8312   -5.2541    3.4030 H   0  0  0  0  0  0  0  0  0  0  0  0
    1.6405   -3.9827    2.7757 H   0  0  0  0  0  0  0  0  0  0  0  0
   -0.3710   -3.6355    3.0099 N   0  0  0  0  0  4  0  0  0  0  0  0
   -0.1757   -3.1090    3.8361 H   0  0  0  0  0  0  0  0  0  0  0  0
   -0.5190   -3.0145    2.2422 H   0  0  0  0  0  0  0  0  0  0  0  0
   -1.1848   -4.1960    3.1521 H   0  0  0  0  0  0  0  0  0  0  0  0
   -0.0080    2.8945    0.0246 C   0  0  0  0  0  0  0  0  0  0  0  0
   -0.6273    3.2090   -0.6747 H   0  0  0  0  0  0  0  0  0  0  0  0
    0.9138    3.2066   -0.1344 H   0  0  0  0  0  0  0  0  0  0  0  0
   -0.3413    3.3054    0.9776 H   0  0  0  0  0  0  0  0  0  0  0  0
   -0.0019    1.3917    0.0006 C   0  0  0  0  0  0  0  0  0  0  0  0
   -1.1895    0.6907   -0.0015 C   0  0  0  0  0  0  0  0  0  0  0  0
   -2.0584    1.1823   -0.0057 H   0  0  0  0  0  0  0  0  0  0  0  0
   -1.1920   -0.6876    0.0000 C   0  0  0  0  0  0  0  0  0  0  0  0
   -2.0723   -1.1847    0.0054 H   0  0  0  0  0  0  0  0  0  0  0  0
   -0.0006   -1.3774   -0.0040 C   0  0  0  0  0  0  0  0  0  0  0  0
   -0.0102   -2.3839   -0.0099 H   0  0  0  0  0  0  0  0  0  0  0  0
    1.1920   -0.6987   -0.0000 C   0  0  0  0  0  0  0  0  0  0  0  0
    2.0736   -1.2001    0.0005 H   0  0  0  0  0  0  0  0  0  0  0  0
    1.1920    0.6812    0.0049 C   0  0  0  0  0  0  0  0  0  0  0  0
    2.0611    1.1795    0.0104 H   0  0  0  0  0  0  0  0  0  0  0  0
  1  5  1  0
  5  8  1  0
  1  2  1  0
  1  3  1  0
  1  4  1  0
  5  6  1  0
  5  7  1  0
  8  9  1  0
  8 10  1  0
  8 11  1  0
 12 16  1  0
 16 17  2  0
 17 19  1  0
 19 21  2  0
 21 23  1  0
 23 25  2  0
 25 16  1  0
 12 13  1  0
 12 14  1  0
 12 15  1  0
 17 18  1  0
 19 20  1  0
 21 22  1  0
 23 24  1  0
 25 26  1  0
M  CHG  1   8   1
M  END
>  <PDB_ID>  (2592) 
pdb4tqg

>  <RESIDUE_NAME>  (2592) 
LYS   PHE

>  <FRAG_NAME>  (2592) 
ETAM   MBZ

>  <FRAG_ATOM_NUM>  (2592) 
fragi: 11  fragj: 15

>  <atom.prop.CHAIN_ID>  (2592) 
A A A A A A A A A A A Z Z Z Z Z Z Z Z Z Z Z Z Z Z Z

>  <atom.prop.IS_HEAVY_ATOM>  (2592) 
1 0 0 0 1 0 0 1 0 0 0 1 0 0 0 1 1 0 1 0 1 0 1 0 1 0

>  <DIFUSE_FUNC_ATOM>  (2592) 
n/a

>  <FINAL_SINGLE_POINT_ENERGY>  (2592) 
0

>  <NONCOV_INTER_ENERGY_QM>  (2592) 
0

>  <FF_Energy>  (2592) 
-1.76

>  <QM_Energy>  (2592) 
-7.09

>  <source>  (2592) 
ETAM_MBZ

>  <Index>  (2592) 
27606

$$$$
ETAM-pdb4s1v-C-LYS-2:MBZ-pdb4s1v-C-PHE-47
     RDKit          3D

 26 25  0  0  0  0  0  0  0  0999 V2000
   -2.1391    0.1036   -4.3007 C   0  0  0  0  0  0  0  0  0  0  0  0
   -2.5837    0.5166   -5.0902 H   0  0  0  0  0  0  0  0  0  0  0  0
   -1.3141    0.6103   -4.0673 H   0  0  0  0  0  0  0  0  0  0  0  0
   -2.8245    0.1344   -3.4538 H   0  0  0  0  0  0  0  0  0  0  0  0
   -1.7459   -1.3222   -4.6572 C   0  0  0  0  0  0  0  0  0  0  0  0
   -2.5508   -1.7964   -5.0340 H   0  0  0  0  0  0  0  0  0  0  0  0
   -1.0347   -1.2935   -5.3703 H   0  0  0  0  0  0  0  0  0  0  0  0
   -1.2338   -2.0857   -3.4885 N   0  0  0  0  0  4  0  0  0  0  0  0
   -0.8627   -2.9599   -3.7996 H   0  0  0  0  0  0  0  0  0  0  0  0
   -0.5141   -1.5583   -3.0368 H   0  0  0  0  0  0  0  0  0  0  0  0
   -1.9817   -2.2499   -2.8456 H   0  0  0  0  0  0  0  0  0  0  0  0
    0.0005    2.8984   -0.0094 C   0  0  0  0  0  0  0  0  0  0  0  0
    0.8852    3.2084    0.2975 H   0  0  0  0  0  0  0  0  0  0  0  0
   -0.7232    3.2119    0.5835 H   0  0  0  0  0  0  0  0  0  0  0  0
   -0.1743    3.3204   -0.9991 H   0  0  0  0  0  0  0  0  0  0  0  0
   -0.0007    1.3977    0.0041 C   0  0  0  0  0  0  0  0  0  0  0  0
   -1.1949    0.6970    0.0033 C   0  0  0  0  0  0  0  0  0  0  0  0
   -2.0617    1.1871    0.0040 H   0  0  0  0  0  0  0  0  0  0  0  0
   -1.1992   -0.6909    0.0000 C   0  0  0  0  0  0  0  0  0  0  0  0
   -2.0776   -1.1853   -0.0022 H   0  0  0  0  0  0  0  0  0  0  0  0
   -0.0004   -1.3906    0.0012 C   0  0  0  0  0  0  0  0  0  0  0  0
   -0.0084   -2.3899    0.0020 H   0  0  0  0  0  0  0  0  0  0  0  0
    1.1992   -0.6994    0.0000 C   0  0  0  0  0  0  0  0  0  0  0  0
    2.0797   -1.1994    0.0072 H   0  0  0  0  0  0  0  0  0  0  0  0
    1.1960    0.6863   -0.0086 C   0  0  0  0  0  0  0  0  0  0  0  0
    2.0639    1.1845   -0.0254 H   0  0  0  0  0  0  0  0  0  0  0  0
  1  5  1  0
  5  8  1  0
  1  2  1  0
  1  3  1  0
  1  4  1  0
  5  6  1  0
  5  7  1  0
  8  9  1  0
  8 10  1  0
  8 11  1  0
 12 16  1  0
 16 17  2  0
 17 19  1  0
 19 21  2  0
 21 23  1  0
 23 25  2  0
 25 16  1  0
 12 13  1  0
 12 14  1  0
 12 15  1  0
 17 18  1  0
 19 20  1  0
 21 22  1  0
 23 24  1  0
 25 26  1  0
M  CHG  1   8   1
M  END
>  <PDB_ID>  (2593) 
pdb4s1v

>  <RESIDUE_NAME>  (2593) 
LYS   PHE

>  <FRAG_NAME>  (2593) 
ETAM   MBZ

>  <FRAG_ATOM_NUM>  (2593) 
fragi: 11  fragj: 15

>  <atom.prop.CHAIN_ID>  (2593) 
A A A A A A A A A A A Z Z Z Z Z Z Z Z Z Z Z Z Z Z Z

>  <atom.prop.IS_HEAVY_ATOM>  (2593) 
1 0 0 0 1 0 0 1 0 0 0 1 0 0 0 1 1 0 1 0 1 0 1 0 1 0

>  <DIFUSE_FUNC_ATOM>  (2593) 
n/a

>  <FINAL_SINGLE_POINT_ENERGY>  (2593) 
0

>  <NONCOV_INTER_ENERGY_QM>  (2593) 
0

>  <FF_Energy>  (2593) 
-4.14

>  <QM_Energy>  (2593) 
-9.29

>  <source>  (2593) 
ETAM_MBZ

>  <Index>  (2593) 
27610

$$$$
ETAM-pdb3tvy-A-LYS-507:MBZ-pdb3tvy-A-PHE-407
     RDKit          3D

 26 25  0  0  0  0  0  0  0  0999 V2000
    0.3160    0.7997   -4.2706 C   0  0  0  0  0  0  0  0  0  0  0  0
    0.2501    0.6801   -5.2441 H   0  0  0  0  0  0  0  0  0  0  0  0
    1.2400    0.9477   -3.9728 H   0  0  0  0  0  0  0  0  0  0  0  0
   -0.2871    1.6607   -3.9825 H   0  0  0  0  0  0  0  0  0  0  0  0
   -0.2294   -0.4541   -3.5809 C   0  0  0  0  0  0  0  0  0  0  0  0
   -0.4293   -0.2195   -2.6264 H   0  0  0  0  0  0  0  0  0  0  0  0
   -1.0832   -0.7125   -4.0388 H   0  0  0  0  0  0  0  0  0  0  0  0
    0.7305   -1.5282   -3.6504 N   0  0  0  0  0  4  0  0  0  0  0  0
    0.5052   -2.2483   -2.9826 H   0  0  0  0  0  0  0  0  0  0  0  0
    0.7365   -1.9392   -4.5697 H   0  0  0  0  0  0  0  0  0  0  0  0
    1.6576   -1.1891   -3.4496 H   0  0  0  0  0  0  0  0  0  0  0  0
    0.0147    2.9350   -0.0291 C   0  0  0  0  0  0  0  0  0  0  0  0
   -0.7249    3.2278   -0.6120 H   0  0  0  0  0  0  0  0  0  0  0  0
    0.8917    3.2208   -0.3786 H   0  0  0  0  0  0  0  0  0  0  0  0
   -0.1243    3.3978    0.9479 H   0  0  0  0  0  0  0  0  0  0  0  0
    0.0041    1.4063   -0.0043 C   0  0  0  0  0  0  0  0  0  0  0  0
   -1.1944    0.7099    0.0030 C   0  0  0  0  0  0  0  0  0  0  0  0
   -2.0601    1.1990    0.0094 H   0  0  0  0  0  0  0  0  0  0  0  0
   -1.2090   -0.6930   -0.0000 C   0  0  0  0  0  0  0  0  0  0  0  0
   -2.0906   -1.1746   -0.0127 H   0  0  0  0  0  0  0  0  0  0  0  0
   -0.0119   -1.4000    0.0161 C   0  0  0  0  0  0  0  0  0  0  0  0
   -0.0180   -2.3955    0.0385 H   0  0  0  0  0  0  0  0  0  0  0  0
    1.2090   -0.7062    0.0000 C   0  0  0  0  0  0  0  0  0  0  0  0
    2.0783   -1.2109    0.0012 H   0  0  0  0  0  0  0  0  0  0  0  0
    1.2022    0.6830   -0.0148 C   0  0  0  0  0  0  0  0  0  0  0  0
    2.0717    1.1817   -0.0343 H   0  0  0  0  0  0  0  0  0  0  0  0
  1  5  1  0
  5  8  1  0
  1  2  1  0
  1  3  1  0
  1  4  1  0
  5  6  1  0
  5  7  1  0
  8  9  1  0
  8 10  1  0
  8 11  1  0
 12 16  1  0
 16 17  2  0
 17 19  1  0
 19 21  2  0
 21 23  1  0
 23 25  2  0
 25 16  1  0
 12 13  1  0
 12 14  1  0
 12 15  1  0
 17 18  1  0
 19 20  1  0
 21 22  1  0
 23 24  1  0
 25 26  1  0
M  CHG  1   8   1
M  END
>  <PDB_ID>  (2594) 
pdb3tvy

>  <RESIDUE_NAME>  (2594) 
LYS   PHE

>  <FRAG_NAME>  (2594) 
ETAM   MBZ

>  <FRAG_ATOM_NUM>  (2594) 
fragi: 11  fragj: 15

>  <atom.prop.CHAIN_ID>  (2594) 
A A A A A A A A A A A Z Z Z Z Z Z Z Z Z Z Z Z Z Z Z

>  <atom.prop.IS_HEAVY_ATOM>  (2594) 
1 0 0 0 1 0 0 1 0 0 0 1 0 0 0 1 1 0 1 0 1 0 1 0 1 0

>  <DIFUSE_FUNC_ATOM>  (2594) 
n/a

>  <FINAL_SINGLE_POINT_ENERGY>  (2594) 
0

>  <NONCOV_INTER_ENERGY_QM>  (2594) 
0

>  <FF_Energy>  (2594) 
-5.93

>  <QM_Energy>  (2594) 
-12.09

>  <source>  (2594) 
ETAM_MBZ

>  <Index>  (2594) 
27623

$$$$
ETAM-pdb4tkz-D-LYS-3:MBZ-pdb4tkz-D-PHE-55
     RDKit          3D

 26 25  0  0  0  0  0  0  0  0999 V2000
   -1.1381   -0.5968   -3.4042 C   0  0  0  0  0  0  0  0  0  0  0  0
   -0.4839   -1.0977   -2.8302 H   0  0  0  0  0  0  0  0  0  0  0  0
   -1.6551    0.0407   -2.8257 H   0  0  0  0  0  0  0  0  0  0  0  0
   -0.5922   -0.0331   -4.1606 H   0  0  0  0  0  0  0  0  0  0  0  0
   -2.1086   -1.5924   -3.9987 C   0  0  0  0  0  0  0  0  0  0  0  0
   -2.5301   -1.2084   -4.7991 H   0  0  0  0  0  0  0  0  0  0  0  0
   -1.6428   -2.4369   -4.1906 H   0  0  0  0  0  0  0  0  0  0  0  0
   -3.1700   -1.8450   -2.9610 N   0  0  0  0  0  4  0  0  0  0  0  0
   -3.4495   -2.8006   -3.0110 H   0  0  0  0  0  0  0  0  0  0  0  0
   -2.7939   -1.6457   -2.0594 H   0  0  0  0  0  0  0  0  0  0  0  0
   -3.9492   -1.2510   -3.1449 H   0  0  0  0  0  0  0  0  0  0  0  0
   -0.0148    2.8894    0.0332 C   0  0  0  0  0  0  0  0  0  0  0  0
   -0.8007    3.2032   -0.4749 H   0  0  0  0  0  0  0  0  0  0  0  0
    0.8287    3.2130   -0.3649 H   0  0  0  0  0  0  0  0  0  0  0  0
   -0.0849    3.3034    1.0391 H   0  0  0  0  0  0  0  0  0  0  0  0
   -0.0047    1.3931    0.0060 C   0  0  0  0  0  0  0  0  0  0  0  0
   -1.1976    0.6813    0.0013 C   0  0  0  0  0  0  0  0  0  0  0  0
   -2.0664    1.1757   -0.0025 H   0  0  0  0  0  0  0  0  0  0  0  0
   -1.2028   -0.6986   -0.0000 C   0  0  0  0  0  0  0  0  0  0  0  0
   -2.0722   -1.1999    0.0083 H   0  0  0  0  0  0  0  0  0  0  0  0
    0.0068   -1.3868   -0.0111 C   0  0  0  0  0  0  0  0  0  0  0  0
    0.0077   -2.3859   -0.0276 H   0  0  0  0  0  0  0  0  0  0  0  0
    1.2028   -0.6845   -0.0000 C   0  0  0  0  0  0  0  0  0  0  0  0
    2.0868   -1.1845    0.0068 H   0  0  0  0  0  0  0  0  0  0  0  0
    1.1955    0.6954    0.0038 C   0  0  0  0  0  0  0  0  0  0  0  0
    2.0585    1.1997    0.0037 H   0  0  0  0  0  0  0  0  0  0  0  0
  1  5  1  0
  5  8  1  0
  1  2  1  0
  1  3  1  0
  1  4  1  0
  5  6  1  0
  5  7  1  0
  8  9  1  0
  8 10  1  0
  8 11  1  0
 12 16  1  0
 16 17  2  0
 17 19  1  0
 19 21  2  0
 21 23  1  0
 23 25  2  0
 25 16  1  0
 12 13  1  0
 12 14  1  0
 12 15  1  0
 17 18  1  0
 19 20  1  0
 21 22  1  0
 23 24  1  0
 25 26  1  0
M  CHG  1   8   1
M  END
>  <PDB_ID>  (2595) 
pdb4tkz

>  <RESIDUE_NAME>  (2595) 
LYS   PHE

>  <FRAG_NAME>  (2595) 
ETAM   MBZ

>  <FRAG_ATOM_NUM>  (2595) 
fragi: 11  fragj: 15

>  <atom.prop.CHAIN_ID>  (2595) 
A A A A A A A A A A A Z Z Z Z Z Z Z Z Z Z Z Z Z Z Z

>  <atom.prop.IS_HEAVY_ATOM>  (2595) 
1 0 0 0 1 0 0 1 0 0 0 1 0 0 0 1 1 0 1 0 1 0 1 0 1 0

>  <DIFUSE_FUNC_ATOM>  (2595) 
n/a

>  <FINAL_SINGLE_POINT_ENERGY>  (2595) 
0

>  <NONCOV_INTER_ENERGY_QM>  (2595) 
0

>  <FF_Energy>  (2595) 
-2.42

>  <QM_Energy>  (2595) 
-7.49

>  <source>  (2595) 
ETAM_MBZ

>  <Index>  (2595) 
27649

$$$$
ETAM-pdb4tsd-B-LYS-98:MBZ-pdb4tsd-B-PHE-149
     RDKit          3D

 26 25  0  0  0  0  0  0  0  0999 V2000
    0.3726   -1.6188    3.6653 C   0  0  0  0  0  0  0  0  0  0  0  0
    0.4420   -2.1633    2.8391 H   0  0  0  0  0  0  0  0  0  0  0  0
    0.2761   -2.1988    4.4636 H   0  0  0  0  0  0  0  0  0  0  0  0
    1.2696   -1.0082    3.7693 H   0  0  0  0  0  0  0  0  0  0  0  0
   -0.8651   -0.7376    3.5589 C   0  0  0  0  0  0  0  0  0  0  0  0
   -0.9023   -0.1346    4.3579 H   0  0  0  0  0  0  0  0  0  0  0  0
   -0.7952   -0.1813    2.7289 H   0  0  0  0  0  0  0  0  0  0  0  0
   -2.1058   -1.5529    3.5010 N   0  0  0  0  0  4  0  0  0  0  0  0
   -2.5816   -1.4980    4.3787 H   0  0  0  0  0  0  0  0  0  0  0  0
   -2.7000   -1.2038    2.7768 H   0  0  0  0  0  0  0  0  0  0  0  0
   -1.8694   -2.5052    3.3080 H   0  0  0  0  0  0  0  0  0  0  0  0
    0.0095    2.8807   -0.0121 C   0  0  0  0  0  0  0  0  0  0  0  0
    0.8782    3.1888    0.3483 H   0  0  0  0  0  0  0  0  0  0  0  0
   -0.7436    3.2000    0.5449 H   0  0  0  0  0  0  0  0  0  0  0  0
   -0.1084    3.3054   -1.0091 H   0  0  0  0  0  0  0  0  0  0  0  0
    0.0004    1.3911    0.0008 C   0  0  0  0  0  0  0  0  0  0  0  0
   -1.1895    0.6907    0.0026 C   0  0  0  0  0  0  0  0  0  0  0  0
   -2.0585    1.1799    0.0044 H   0  0  0  0  0  0  0  0  0  0  0  0
   -1.1945   -0.6977    0.0000 C   0  0  0  0  0  0  0  0  0  0  0  0
   -2.0763   -1.1880    0.0043 H   0  0  0  0  0  0  0  0  0  0  0  0
   -0.0061   -1.3837   -0.0064 C   0  0  0  0  0  0  0  0  0  0  0  0
   -0.0006   -2.3858   -0.0161 H   0  0  0  0  0  0  0  0  0  0  0  0
    1.1945   -0.6869    0.0000 C   0  0  0  0  0  0  0  0  0  0  0  0
    2.0752   -1.1951    0.0039 H   0  0  0  0  0  0  0  0  0  0  0  0
    1.1951    0.6864    0.0030 C   0  0  0  0  0  0  0  0  0  0  0  0
    2.0613    1.1885    0.0061 H   0  0  0  0  0  0  0  0  0  0  0  0
  1  5  1  0
  5  8  1  0
  1  2  1  0
  1  3  1  0
  1  4  1  0
  5  6  1  0
  5  7  1  0
  8  9  1  0
  8 10  1  0
  8 11  1  0
 12 16  1  0
 16 17  2  0
 17 19  1  0
 19 21  2  0
 21 23  1  0
 23 25  2  0
 25 16  1  0
 12 13  1  0
 12 14  1  0
 12 15  1  0
 17 18  1  0
 19 20  1  0
 21 22  1  0
 23 24  1  0
 25 26  1  0
M  CHG  1   8   1
M  END
>  <PDB_ID>  (2596) 
pdb4tsd

>  <RESIDUE_NAME>  (2596) 
LYS   PHE

>  <FRAG_NAME>  (2596) 
ETAM   MBZ

>  <FRAG_ATOM_NUM>  (2596) 
fragi: 11  fragj: 15

>  <atom.prop.CHAIN_ID>  (2596) 
A A A A A A A A A A A Z Z Z Z Z Z Z Z Z Z Z Z Z Z Z

>  <atom.prop.IS_HEAVY_ATOM>  (2596) 
1 0 0 0 1 0 0 1 0 0 0 1 0 0 0 1 1 0 1 0 1 0 1 0 1 0

>  <DIFUSE_FUNC_ATOM>  (2596) 
n/a

>  <FINAL_SINGLE_POINT_ENERGY>  (2596) 
0

>  <NONCOV_INTER_ENERGY_QM>  (2596) 
0

>  <FF_Energy>  (2596) 
-4.6

>  <QM_Energy>  (2596) 
-10.02

>  <source>  (2596) 
ETAM_MBZ

>  <Index>  (2596) 
27660

$$$$
ETAM-pdb4trr-G-LYS-108:MBZ-pdb4trr-G-PHE-104
     RDKit          3D

 26 25  0  0  0  0  0  0  0  0999 V2000
    0.0267   -0.7592    4.1452 C   0  0  0  0  0  0  0  0  0  0  0  0
    0.3824    0.0931    4.5304 H   0  0  0  0  0  0  0  0  0  0  0  0
    0.1395   -1.4972    4.8110 H   0  0  0  0  0  0  0  0  0  0  0  0
   -1.0361   -0.6328    3.9393 H   0  0  0  0  0  0  0  0  0  0  0  0
    0.8214   -1.1005    2.9058 C   0  0  0  0  0  0  0  0  0  0  0  0
    0.4741   -1.9548    2.5176 H   0  0  0  0  0  0  0  0  0  0  0  0
    0.7183   -0.3646    2.2360 H   0  0  0  0  0  0  0  0  0  0  0  0
    2.2604   -1.2624    3.2338 N   0  0  0  0  0  4  0  0  0  0  0  0
    2.3521   -1.7665    4.0932 H   0  0  0  0  0  0  0  0  0  0  0  0
    2.7142   -1.7697    2.5008 H   0  0  0  0  0  0  0  0  0  0  0  0
    2.6843   -0.3621    3.3283 H   0  0  0  0  0  0  0  0  0  0  0  0
    0.0127    2.9046   -0.0009 C   0  0  0  0  0  0  0  0  0  0  0  0
    0.1228    3.2097   -0.9362 H   0  0  0  0  0  0  0  0  0  0  0  0
    0.7669    3.2034    0.5650 H   0  0  0  0  0  0  0  0  0  0  0  0
   -0.8972    3.3586    0.3916 H   0  0  0  0  0  0  0  0  0  0  0  0
    0.0006    1.3984   -0.0017 C   0  0  0  0  0  0  0  0  0  0  0  0
   -1.1912    0.6918    0.0024 C   0  0  0  0  0  0  0  0  0  0  0  0
   -2.0601    1.1819    0.0065 H   0  0  0  0  0  0  0  0  0  0  0  0
   -1.1974   -0.6968    0.0000 C   0  0  0  0  0  0  0  0  0  0  0  0
   -2.0767   -1.1879    0.0006 H   0  0  0  0  0  0  0  0  0  0  0  0
   -0.0031   -1.3902   -0.0012 C   0  0  0  0  0  0  0  0  0  0  0  0
   -0.0036   -2.3893   -0.0034 H   0  0  0  0  0  0  0  0  0  0  0  0
    1.1974   -0.6935    0.0000 C   0  0  0  0  0  0  0  0  0  0  0  0
    2.0779   -1.1948    0.0023 H   0  0  0  0  0  0  0  0  0  0  0  0
    1.1937    0.6904    0.0004 C   0  0  0  0  0  0  0  0  0  0  0  0
    2.0632    1.1883    0.0011 H   0  0  0  0  0  0  0  0  0  0  0  0
  1  5  1  0
  5  8  1  0
  1  2  1  0
  1  3  1  0
  1  4  1  0
  5  6  1  0
  5  7  1  0
  8  9  1  0
  8 10  1  0
  8 11  1  0
 12 16  1  0
 16 17  2  0
 17 19  1  0
 19 21  2  0
 21 23  1  0
 23 25  2  0
 25 16  1  0
 12 13  1  0
 12 14  1  0
 12 15  1  0
 17 18  1  0
 19 20  1  0
 21 22  1  0
 23 24  1  0
 25 26  1  0
M  CHG  1   8   1
M  END
>  <PDB_ID>  (2597) 
pdb4trr

>  <RESIDUE_NAME>  (2597) 
LYS   PHE

>  <FRAG_NAME>  (2597) 
ETAM   MBZ

>  <FRAG_ATOM_NUM>  (2597) 
fragi: 11  fragj: 15

>  <atom.prop.CHAIN_ID>  (2597) 
A A A A A A A A A A A Z Z Z Z Z Z Z Z Z Z Z Z Z Z Z

>  <atom.prop.IS_HEAVY_ATOM>  (2597) 
1 0 0 0 1 0 0 1 0 0 0 1 0 0 0 1 1 0 1 0 1 0 1 0 1 0

>  <DIFUSE_FUNC_ATOM>  (2597) 
n/a

>  <FINAL_SINGLE_POINT_ENERGY>  (2597) 
0

>  <NONCOV_INTER_ENERGY_QM>  (2597) 
0

>  <FF_Energy>  (2597) 
2.69

>  <QM_Energy>  (2597) 
-6.2

>  <source>  (2597) 
ETAM_MBZ

>  <Index>  (2597) 
27662

$$$$
ETAM-pdb4tv4-C-LYS-71:MBZ-pdb4tv4-B-PHE-153
     RDKit          3D

 26 25  0  0  0  0  0  0  0  0999 V2000
   -3.3937    5.1413   -3.0425 C   0  0  0  0  0  0  0  0  0  0  0  0
   -2.6261    4.8807   -3.6289 H   0  0  0  0  0  0  0  0  0  0  0  0
   -3.2664    6.0840   -2.7301 H   0  0  0  0  0  0  0  0  0  0  0  0
   -4.3134    5.0869   -3.6250 H   0  0  0  0  0  0  0  0  0  0  0  0
   -3.4129    4.2305   -1.8367 C   0  0  0  0  0  0  0  0  0  0  0  0
   -4.1753    4.4892   -1.2427 H   0  0  0  0  0  0  0  0  0  0  0  0
   -3.5352    3.2854   -2.1402 H   0  0  0  0  0  0  0  0  0  0  0  0
   -2.1423    4.3393   -1.0760 N   0  0  0  0  0  4  0  0  0  0  0  0
   -1.3816    4.4598   -1.7127 H   0  0  0  0  0  0  0  0  0  0  0  0
   -2.1890    5.1260   -0.4596 H   0  0  0  0  0  0  0  0  0  0  0  0
   -2.0021    3.5046   -0.5420 H   0  0  0  0  0  0  0  0  0  0  0  0
    0.0028    2.9035   -0.0002 C   0  0  0  0  0  0  0  0  0  0  0  0
   -0.7616    3.2105   -0.5453 H   0  0  0  0  0  0  0  0  0  0  0  0
    0.8627    3.2065   -0.3804 H   0  0  0  0  0  0  0  0  0  0  0  0
   -0.0971    3.3459    0.9909 H   0  0  0  0  0  0  0  0  0  0  0  0
   -0.0007    1.3973    0.0012 C   0  0  0  0  0  0  0  0  0  0  0  0
   -1.1934    0.6917   -0.0022 C   0  0  0  0  0  0  0  0  0  0  0  0
   -2.0606    1.1830   -0.0074 H   0  0  0  0  0  0  0  0  0  0  0  0
   -1.1971   -0.6927   -0.0000 C   0  0  0  0  0  0  0  0  0  0  0  0
   -2.0746   -1.1892    0.0026 H   0  0  0  0  0  0  0  0  0  0  0  0
    0.0016   -1.3884    0.0001 C   0  0  0  0  0  0  0  0  0  0  0  0
   -0.0035   -2.3884   -0.0006 H   0  0  0  0  0  0  0  0  0  0  0  0
    1.1971   -0.6947   -0.0000 C   0  0  0  0  0  0  0  0  0  0  0  0
    2.0802   -1.1944    0.0010 H   0  0  0  0  0  0  0  0  0  0  0  0
    1.1924    0.6869    0.0010 C   0  0  0  0  0  0  0  0  0  0  0  0
    2.0621    1.1871    0.0007 H   0  0  0  0  0  0  0  0  0  0  0  0
  1  5  1  0
  5  8  1  0
  1  2  1  0
  1  3  1  0
  1  4  1  0
  5  6  1  0
  5  7  1  0
  8  9  1  0
  8 10  1  0
  8 11  1  0
 12 16  1  0
 16 17  2  0
 17 19  1  0
 19 21  2  0
 21 23  1  0
 23 25  2  0
 25 16  1  0
 12 13  1  0
 12 14  1  0
 12 15  1  0
 17 18  1  0
 19 20  1  0
 21 22  1  0
 23 24  1  0
 25 26  1  0
M  CHG  1   8   1
M  END
>  <PDB_ID>  (2598) 
pdb4tv4

>  <RESIDUE_NAME>  (2598) 
LYS   PHE

>  <FRAG_NAME>  (2598) 
ETAM   MBZ

>  <FRAG_ATOM_NUM>  (2598) 
fragi: 11  fragj: 15

>  <atom.prop.CHAIN_ID>  (2598) 
A A A A A A A A A A A Z Z Z Z Z Z Z Z Z Z Z Z Z Z Z

>  <atom.prop.IS_HEAVY_ATOM>  (2598) 
1 0 0 0 1 0 0 1 0 0 0 1 0 0 0 1 1 0 1 0 1 0 1 0 1 0

>  <DIFUSE_FUNC_ATOM>  (2598) 
n/a

>  <FINAL_SINGLE_POINT_ENERGY>  (2598) 
0

>  <NONCOV_INTER_ENERGY_QM>  (2598) 
0

>  <FF_Energy>  (2598) 
46.73

>  <QM_Energy>  (2598) 
13.46

>  <source>  (2598) 
ETAM_MBZ

>  <Index>  (2598) 
27701

$$$$
ETAM-pdb4tlv-A-LYS-581:MBZ-pdb4tlv-A-PHE-543
     RDKit          3D

 26 25  0  0  0  0  0  0  0  0999 V2000
    1.0387    1.0837    3.9792 C   0  0  0  0  0  0  0  0  0  0  0  0
    1.1506    1.0515    2.9934 H   0  0  0  0  0  0  0  0  0  0  0  0
    1.8239    1.5129    4.4075 H   0  0  0  0  0  0  0  0  0  0  0  0
    0.1472    1.6653    4.2135 H   0  0  0  0  0  0  0  0  0  0  0  0
    0.9117   -0.3334    4.5018 C   0  0  0  0  0  0  0  0  0  0  0  0
    1.6602   -0.5136    5.1398 H   0  0  0  0  0  0  0  0  0  0  0  0
    0.0380   -0.4277    4.9780 H   0  0  0  0  0  0  0  0  0  0  0  0
    0.9706   -1.3076    3.3866 N   0  0  0  0  0  4  0  0  0  0  0  0
    0.2373   -1.9805    3.4914 H   0  0  0  0  0  0  0  0  0  0  0  0
    0.8589   -0.8270    2.5166 H   0  0  0  0  0  0  0  0  0  0  0  0
    1.8549   -1.7753    3.3974 H   0  0  0  0  0  0  0  0  0  0  0  0
    0.0153    2.8941    0.0313 C   0  0  0  0  0  0  0  0  0  0  0  0
    0.9578    3.1962    0.0778 H   0  0  0  0  0  0  0  0  0  0  0  0
   -0.4900    3.1886    0.8315 H   0  0  0  0  0  0  0  0  0  0  0  0
   -0.4385    3.3744   -0.8356 H   0  0  0  0  0  0  0  0  0  0  0  0
    0.0010    1.3995   -0.0107 C   0  0  0  0  0  0  0  0  0  0  0  0
   -1.1972    0.6933    0.0063 C   0  0  0  0  0  0  0  0  0  0  0  0
   -2.0628    1.1801    0.0217 H   0  0  0  0  0  0  0  0  0  0  0  0
   -1.1972   -0.7014   -0.0000 C   0  0  0  0  0  0  0  0  0  0  0  0
   -2.0725   -1.1948   -0.0005 H   0  0  0  0  0  0  0  0  0  0  0  0
    0.0039   -1.3886   -0.0041 C   0  0  0  0  0  0  0  0  0  0  0  0
    0.0021   -2.3911   -0.0100 H   0  0  0  0  0  0  0  0  0  0  0  0
    1.1972   -0.6941   -0.0000 C   0  0  0  0  0  0  0  0  0  0  0  0
    2.0817   -1.1913   -0.0018 H   0  0  0  0  0  0  0  0  0  0  0  0
    1.1923    0.6914    0.0084 C   0  0  0  0  0  0  0  0  0  0  0  0
    2.0630    1.1886    0.0278 H   0  0  0  0  0  0  0  0  0  0  0  0
  1  5  1  0
  5  8  1  0
  1  2  1  0
  1  3  1  0
  1  4  1  0
  5  6  1  0
  5  7  1  0
  8  9  1  0
  8 10  1  0
  8 11  1  0
 12 16  1  0
 16 17  2  0
 17 19  1  0
 19 21  2  0
 21 23  1  0
 23 25  2  0
 25 16  1  0
 12 13  1  0
 12 14  1  0
 12 15  1  0
 17 18  1  0
 19 20  1  0
 21 22  1  0
 23 24  1  0
 25 26  1  0
M  CHG  1   8   1
M  END
>  <PDB_ID>  (2599) 
pdb4tlv

>  <RESIDUE_NAME>  (2599) 
LYS   PHE

>  <FRAG_NAME>  (2599) 
ETAM   MBZ

>  <FRAG_ATOM_NUM>  (2599) 
fragi: 11  fragj: 15

>  <atom.prop.CHAIN_ID>  (2599) 
A A A A A A A A A A A Z Z Z Z Z Z Z Z Z Z Z Z Z Z Z

>  <atom.prop.IS_HEAVY_ATOM>  (2599) 
1 0 0 0 1 0 0 1 0 0 0 1 0 0 0 1 1 0 1 0 1 0 1 0 1 0

>  <DIFUSE_FUNC_ATOM>  (2599) 
n/a

>  <FINAL_SINGLE_POINT_ENERGY>  (2599) 
0

>  <NONCOV_INTER_ENERGY_QM>  (2599) 
0

>  <FF_Energy>  (2599) 
-7.02

>  <QM_Energy>  (2599) 
-13.74

>  <source>  (2599) 
ETAM_MBZ

>  <Index>  (2599) 
27703

$$$$
ETAM-pdb4tvd-A-LYS-2824:MBZ-pdb4tvd-A-PHE-2008
     RDKit          3D

 26 25  0  0  0  0  0  0  0  0999 V2000
   -0.5055   -1.3049   -3.6849 C   0  0  0  0  0  0  0  0  0  0  0  0
   -0.2985   -0.4328   -3.2922 H   0  0  0  0  0  0  0  0  0  0  0  0
   -0.7912   -1.9662   -3.0218 H   0  0  0  0  0  0  0  0  0  0  0  0
   -1.2853   -1.1863   -4.4372 H   0  0  0  0  0  0  0  0  0  0  0  0
    0.7268   -1.8262   -4.3968 C   0  0  0  0  0  0  0  0  0  0  0  0
    0.4672   -2.6285   -4.9436 H   0  0  0  0  0  0  0  0  0  0  0  0
    1.0667   -1.1117   -5.0175 H   0  0  0  0  0  0  0  0  0  0  0  0
    1.7806   -2.1965   -3.4473 N   0  0  0  0  0  4  0  0  0  0  0  0
    1.4718   -2.9599   -2.8740 H   0  0  0  0  0  0  0  0  0  0  0  0
    2.6072   -2.4748   -3.9435 H   0  0  0  0  0  0  0  0  0  0  0  0
    2.0017   -1.4143   -2.8591 H   0  0  0  0  0  0  0  0  0  0  0  0
   -0.0397    2.8626   -0.0083 C   0  0  0  0  0  0  0  0  0  0  0  0
    0.8237    3.2005    0.3320 H   0  0  0  0  0  0  0  0  0  0  0  0
   -0.7939    3.1667    0.5519 H   0  0  0  0  0  0  0  0  0  0  0  0
   -0.1842    3.2726   -1.0078 H   0  0  0  0  0  0  0  0  0  0  0  0
   -0.0057    1.3803    0.0096 C   0  0  0  0  0  0  0  0  0  0  0  0
   -1.1822    0.6715   -0.0077 C   0  0  0  0  0  0  0  0  0  0  0  0
   -2.0579    1.1680   -0.0283 H   0  0  0  0  0  0  0  0  0  0  0  0
   -1.1922   -0.6967   -0.0000 C   0  0  0  0  0  0  0  0  0  0  0  0
   -2.0685   -1.1954    0.0106 H   0  0  0  0  0  0  0  0  0  0  0  0
   -0.0006   -1.3752   -0.0046 C   0  0  0  0  0  0  0  0  0  0  0  0
    0.0063   -2.3799   -0.0121 H   0  0  0  0  0  0  0  0  0  0  0  0
    1.1922   -0.6788    0.0000 C   0  0  0  0  0  0  0  0  0  0  0  0
    2.0764   -1.1802    0.0024 H   0  0  0  0  0  0  0  0  0  0  0  0
    1.1885    0.6988    0.0027 C   0  0  0  0  0  0  0  0  0  0  0  0
    2.0515    1.1996   -0.0011 H   0  0  0  0  0  0  0  0  0  0  0  0
  1  5  1  0
  5  8  1  0
  1  2  1  0
  1  3  1  0
  1  4  1  0
  5  6  1  0
  5  7  1  0
  8  9  1  0
  8 10  1  0
  8 11  1  0
 12 16  1  0
 16 17  2  0
 17 19  1  0
 19 21  2  0
 21 23  1  0
 23 25  2  0
 25 16  1  0
 12 13  1  0
 12 14  1  0
 12 15  1  0
 17 18  1  0
 19 20  1  0
 21 22  1  0
 23 24  1  0
 25 26  1  0
M  CHG  1   8   1
M  END
>  <PDB_ID>  (2600) 
pdb4tvd

>  <RESIDUE_NAME>  (2600) 
LYS   PHE

>  <FRAG_NAME>  (2600) 
ETAM   MBZ

>  <FRAG_ATOM_NUM>  (2600) 
fragi: 11  fragj: 15

>  <atom.prop.CHAIN_ID>  (2600) 
A A A A A A A A A A A Z Z Z Z Z Z Z Z Z Z Z Z Z Z Z

>  <atom.prop.IS_HEAVY_ATOM>  (2600) 
1 0 0 0 1 0 0 1 0 0 0 1 0 0 0 1 1 0 1 0 1 0 1 0 1 0

>  <DIFUSE_FUNC_ATOM>  (2600) 
n/a

>  <FINAL_SINGLE_POINT_ENERGY>  (2600) 
0

>  <NONCOV_INTER_ENERGY_QM>  (2600) 
0

>  <FF_Energy>  (2600) 
-3.84

>  <QM_Energy>  (2600) 
-8.89

>  <source>  (2600) 
ETAM_MBZ

>  <Index>  (2600) 
27709

$$$$
ETAM-pdb4tv7-D-LYS-38:MBZ-pdb4tv7-D-PHE-78
     RDKit          3D

 26 25  0  0  0  0  0  0  0  0999 V2000
    3.2458   -2.5097    1.6167 C   0  0  0  0  0  0  0  0  0  0  0  0
    4.1335   -2.7494    2.0103 H   0  0  0  0  0  0  0  0  0  0  0  0
    2.5176   -2.7833    2.2447 H   0  0  0  0  0  0  0  0  0  0  0  0
    3.2036   -1.4289    1.4820 H   0  0  0  0  0  0  0  0  0  0  0  0
    3.0726   -3.2618    0.3166 C   0  0  0  0  0  0  0  0  0  0  0  0
    2.1854   -3.0304   -0.0816 H   0  0  0  0  0  0  0  0  0  0  0  0
    3.8013   -2.9965   -0.3159 H   0  0  0  0  0  0  0  0  0  0  0  0
    3.1382   -4.7274    0.5481 N   0  0  0  0  0  4  0  0  0  0  0  0
    2.2212   -5.0743    0.7472 H   0  0  0  0  0  0  0  0  0  0  0  0
    3.4935   -5.1785   -0.2708 H   0  0  0  0  0  0  0  0  0  0  0  0
    3.7420   -4.9166    1.3226 H   0  0  0  0  0  0  0  0  0  0  0  0
    0.0068    2.9219   -0.0096 C   0  0  0  0  0  0  0  0  0  0  0  0
   -0.7954    3.2252   -0.5017 H   0  0  0  0  0  0  0  0  0  0  0  0
    0.8361    3.2186   -0.4583 H   0  0  0  0  0  0  0  0  0  0  0  0
   -0.0176    3.3813    0.9786 H   0  0  0  0  0  0  0  0  0  0  0  0
    0.0002    1.4091    0.0041 C   0  0  0  0  0  0  0  0  0  0  0  0
   -1.2025    0.6993   -0.0038 C   0  0  0  0  0  0  0  0  0  0  0  0
   -2.0663    1.1863   -0.0135 H   0  0  0  0  0  0  0  0  0  0  0  0
   -1.2040   -0.6986    0.0000 C   0  0  0  0  0  0  0  0  0  0  0  0
   -2.0791   -1.1916    0.0042 H   0  0  0  0  0  0  0  0  0  0  0  0
    0.0024   -1.3969    0.0000 C   0  0  0  0  0  0  0  0  0  0  0  0
   -0.0047   -2.3957   -0.0007 H   0  0  0  0  0  0  0  0  0  0  0  0
    1.2040   -0.7032   -0.0000 C   0  0  0  0  0  0  0  0  0  0  0  0
    2.0849   -1.1998    0.0015 H   0  0  0  0  0  0  0  0  0  0  0  0
    1.2000    0.6903   -0.0003 C   0  0  0  0  0  0  0  0  0  0  0  0
    2.0684    1.1867   -0.0046 H   0  0  0  0  0  0  0  0  0  0  0  0
  1  5  1  0
  5  8  1  0
  1  2  1  0
  1  3  1  0
  1  4  1  0
  5  6  1  0
  5  7  1  0
  8  9  1  0
  8 10  1  0
  8 11  1  0
 12 16  1  0
 16 17  2  0
 17 19  1  0
 19 21  2  0
 21 23  1  0
 23 25  2  0
 25 16  1  0
 12 13  1  0
 12 14  1  0
 12 15  1  0
 17 18  1  0
 19 20  1  0
 21 22  1  0
 23 24  1  0
 25 26  1  0
M  CHG  1   8   1
M  END
>  <PDB_ID>  (2601) 
pdb4tv7

>  <RESIDUE_NAME>  (2601) 
LYS   PHE

>  <FRAG_NAME>  (2601) 
ETAM   MBZ

>  <FRAG_ATOM_NUM>  (2601) 
fragi: 11  fragj: 15

>  <atom.prop.CHAIN_ID>  (2601) 
A A A A A A A A A A A Z Z Z Z Z Z Z Z Z Z Z Z Z Z Z

>  <atom.prop.IS_HEAVY_ATOM>  (2601) 
1 0 0 0 1 0 0 1 0 0 0 1 0 0 0 1 1 0 1 0 1 0 1 0 1 0

>  <DIFUSE_FUNC_ATOM>  (2601) 
n/a

>  <FINAL_SINGLE_POINT_ENERGY>  (2601) 
0

>  <NONCOV_INTER_ENERGY_QM>  (2601) 
0

>  <FF_Energy>  (2601) 
12.98

>  <QM_Energy>  (2601) 
1.14

>  <source>  (2601) 
ETAM_MBZ

>  <Index>  (2601) 
27711

$$$$
ETAM-pdb3u3w-A-LYS-97:MBZ-pdb3u3w-A-PHE-78
     RDKit          3D

 26 25  0  0  0  0  0  0  0  0999 V2000
   -1.7854   -1.8272    3.8919 C   0  0  0  0  0  0  0  0  0  0  0  0
   -2.6039   -1.9228    4.4465 H   0  0  0  0  0  0  0  0  0  0  0  0
   -0.9707   -1.9679    4.4422 H   0  0  0  0  0  0  0  0  0  0  0  0
   -1.8090   -2.5742    3.0985 H   0  0  0  0  0  0  0  0  0  0  0  0
   -1.7481   -0.4163    3.3198 C   0  0  0  0  0  0  0  0  0  0  0  0
   -1.6911    0.2401    4.0716 H   0  0  0  0  0  0  0  0  0  0  0  0
   -0.9434   -0.3227    2.7339 H   0  0  0  0  0  0  0  0  0  0  0  0
   -2.9764   -0.1249    2.5108 N   0  0  0  0  0  4  0  0  0  0  0  0
   -3.7602   -0.0490    3.1237 H   0  0  0  0  0  0  0  0  0  0  0  0
   -2.8463    0.7333    2.0184 H   0  0  0  0  0  0  0  0  0  0  0  0
   -3.1243   -0.8689    1.8630 H   0  0  0  0  0  0  0  0  0  0  0  0
    0.0031    2.8973   -0.0071 C   0  0  0  0  0  0  0  0  0  0  0  0
   -0.7306    3.1984   -0.5995 H   0  0  0  0  0  0  0  0  0  0  0  0
    0.8820    3.1992   -0.3470 H   0  0  0  0  0  0  0  0  0  0  0  0
   -0.1504    3.3459    0.9744 H   0  0  0  0  0  0  0  0  0  0  0  0
    0.0013    1.3973    0.0039 C   0  0  0  0  0  0  0  0  0  0  0  0
   -1.1942    0.6933    0.0013 C   0  0  0  0  0  0  0  0  0  0  0  0
   -2.0602    1.1846   -0.0004 H   0  0  0  0  0  0  0  0  0  0  0  0
   -1.1983   -0.6934   -0.0000 C   0  0  0  0  0  0  0  0  0  0  0  0
   -2.0772   -1.1875    0.0033 H   0  0  0  0  0  0  0  0  0  0  0  0
   -0.0020   -1.3887   -0.0033 C   0  0  0  0  0  0  0  0  0  0  0  0
   -0.0069   -2.3890   -0.0081 H   0  0  0  0  0  0  0  0  0  0  0  0
    1.1983   -0.6971    0.0000 C   0  0  0  0  0  0  0  0  0  0  0  0
    2.0786   -1.1973    0.0060 H   0  0  0  0  0  0  0  0  0  0  0  0
    1.1949    0.6886   -0.0019 C   0  0  0  0  0  0  0  0  0  0  0  0
    2.0638    1.1861   -0.0082 H   0  0  0  0  0  0  0  0  0  0  0  0
  1  5  1  0
  5  8  1  0
  1  2  1  0
  1  3  1  0
  1  4  1  0
  5  6  1  0
  5  7  1  0
  8  9  1  0
  8 10  1  0
  8 11  1  0
 12 16  1  0
 16 17  2  0
 17 19  1  0
 19 21  2  0
 21 23  1  0
 23 25  2  0
 25 16  1  0
 12 13  1  0
 12 14  1  0
 12 15  1  0
 17 18  1  0
 19 20  1  0
 21 22  1  0
 23 24  1  0
 25 26  1  0
M  CHG  1   8   1
M  END
>  <PDB_ID>  (2602) 
pdb3u3w

>  <RESIDUE_NAME>  (2602) 
LYS   PHE

>  <FRAG_NAME>  (2602) 
ETAM   MBZ

>  <FRAG_ATOM_NUM>  (2602) 
fragi: 11  fragj: 15

>  <atom.prop.CHAIN_ID>  (2602) 
A A A A A A A A A A A Z Z Z Z Z Z Z Z Z Z Z Z Z Z Z

>  <atom.prop.IS_HEAVY_ATOM>  (2602) 
1 0 0 0 1 0 0 1 0 0 0 1 0 0 0 1 1 0 1 0 1 0 1 0 1 0

>  <DIFUSE_FUNC_ATOM>  (2602) 
n/a

>  <FINAL_SINGLE_POINT_ENERGY>  (2602) 
0

>  <NONCOV_INTER_ENERGY_QM>  (2602) 
0

>  <FF_Energy>  (2602) 
-2.34

>  <QM_Energy>  (2602) 
-9.99

>  <source>  (2602) 
ETAM_MBZ

>  <Index>  (2602) 
27714

$$$$
ETAM-pdb3u49-A-LYS-221:MBZ-pdb3u49-A-PHE-186
     RDKit          3D

 26 25  0  0  0  0  0  0  0  0999 V2000
    0.9256    0.3461   -3.4608 C   0  0  0  0  0  0  0  0  0  0  0  0
    1.8362    0.6681   -3.7301 H   0  0  0  0  0  0  0  0  0  0  0  0
    0.8223    0.4501   -2.4685 H   0  0  0  0  0  0  0  0  0  0  0  0
    0.1892    0.9893   -3.9427 H   0  0  0  0  0  0  0  0  0  0  0  0
    0.7209   -0.9916   -3.8563 C   0  0  0  0  0  0  0  0  0  0  0  0
   -0.1423   -1.3630   -3.4564 H   0  0  0  0  0  0  0  0  0  0  0  0
    0.6181   -1.0616   -4.8696 H   0  0  0  0  0  0  0  0  0  0  0  0
    1.8142   -1.8481   -3.4505 N   0  0  0  0  0  4  0  0  0  0  0  0
    1.5658   -2.8163   -3.5697 H   0  0  0  0  0  0  0  0  0  0  0  0
    2.6333   -1.6595   -4.0042 H   0  0  0  0  0  0  0  0  0  0  0  0
    2.0414   -1.6945   -2.4822 H   0  0  0  0  0  0  0  0  0  0  0  0
    0.0048    2.8785   -0.0043 C   0  0  0  0  0  0  0  0  0  0  0  0
   -0.7932    3.1943   -0.4934 H   0  0  0  0  0  0  0  0  0  0  0  0
    0.8394    3.1902   -0.4302 H   0  0  0  0  0  0  0  0  0  0  0  0
   -0.0326    3.3025    0.9991 H   0  0  0  0  0  0  0  0  0  0  0  0
    0.0013    1.3892   -0.0103 C   0  0  0  0  0  0  0  0  0  0  0  0
   -1.1915    0.6921    0.0001 C   0  0  0  0  0  0  0  0  0  0  0  0
   -2.0570    1.1877    0.0067 H   0  0  0  0  0  0  0  0  0  0  0  0
   -1.1995   -0.6876   -0.0000 C   0  0  0  0  0  0  0  0  0  0  0  0
   -2.0794   -1.1822   -0.0110 H   0  0  0  0  0  0  0  0  0  0  0  0
   -0.0063   -1.3809    0.0169 C   0  0  0  0  0  0  0  0  0  0  0  0
   -0.0116   -2.3835    0.0415 H   0  0  0  0  0  0  0  0  0  0  0  0
    1.1995   -0.6954   -0.0000 C   0  0  0  0  0  0  0  0  0  0  0  0
    2.0747   -1.2022   -0.0059 H   0  0  0  0  0  0  0  0  0  0  0  0
    1.1966    0.6826   -0.0068 C   0  0  0  0  0  0  0  0  0  0  0  0
    2.0637    1.1838   -0.0096 H   0  0  0  0  0  0  0  0  0  0  0  0
  1  5  1  0
  5  8  1  0
  1  2  1  0
  1  3  1  0
  1  4  1  0
  5  6  1  0
  5  7  1  0
  8  9  1  0
  8 10  1  0
  8 11  1  0
 12 16  1  0
 16 17  2  0
 17 19  1  0
 19 21  2  0
 21 23  1  0
 23 25  2  0
 25 16  1  0
 12 13  1  0
 12 14  1  0
 12 15  1  0
 17 18  1  0
 19 20  1  0
 21 22  1  0
 23 24  1  0
 25 26  1  0
M  CHG  1   8   1
M  END
>  <PDB_ID>  (2603) 
pdb3u49

>  <RESIDUE_NAME>  (2603) 
LYS   PHE

>  <FRAG_NAME>  (2603) 
ETAM   MBZ

>  <FRAG_ATOM_NUM>  (2603) 
fragi: 11  fragj: 15

>  <atom.prop.CHAIN_ID>  (2603) 
A A A A A A A A A A A Z Z Z Z Z Z Z Z Z Z Z Z Z Z Z

>  <atom.prop.IS_HEAVY_ATOM>  (2603) 
1 0 0 0 1 0 0 1 0 0 0 1 0 0 0 1 1 0 1 0 1 0 1 0 1 0

>  <DIFUSE_FUNC_ATOM>  (2603) 
n/a

>  <FINAL_SINGLE_POINT_ENERGY>  (2603) 
0

>  <NONCOV_INTER_ENERGY_QM>  (2603) 
0

>  <FF_Energy>  (2603) 
-3.79

>  <QM_Energy>  (2603) 
-10.19

>  <source>  (2603) 
ETAM_MBZ

>  <Index>  (2603) 
27730

$$$$
ETAM-pdb3u3i-A-LYS-336:MBZ-pdb3u3i-A-PHE-332
     RDKit          3D

 26 25  0  0  0  0  0  0  0  0999 V2000
    1.8713   -0.6819    5.0657 C   0  0  0  0  0  0  0  0  0  0  0  0
    1.3659    0.1676    5.0104 H   0  0  0  0  0  0  0  0  0  0  0  0
    2.8056   -0.5636    4.7599 H   0  0  0  0  0  0  0  0  0  0  0  0
    1.8672   -1.0416    6.0947 H   0  0  0  0  0  0  0  0  0  0  0  0
    1.1975   -1.7013    4.1691 C   0  0  0  0  0  0  0  0  0  0  0  0
    0.8484   -2.4455    4.7200 H   0  0  0  0  0  0  0  0  0  0  0  0
    0.4698   -1.2632    3.6598 H   0  0  0  0  0  0  0  0  0  0  0  0
    2.2141   -2.2394    3.2065 N   0  0  0  0  0  4  0  0  0  0  0  0
    2.0273   -1.8732    2.2972 H   0  0  0  0  0  0  0  0  0  0  0  0
    3.1247   -1.9603    3.5040 H   0  0  0  0  0  0  0  0  0  0  0  0
    2.1528   -3.2356    3.1909 H   0  0  0  0  0  0  0  0  0  0  0  0
   -0.0510    2.8804    0.0624 C   0  0  0  0  0  0  0  0  0  0  0  0
   -0.7563    3.2053   -0.5449 H   0  0  0  0  0  0  0  0  0  0  0  0
    0.8366    3.2308   -0.1855 H   0  0  0  0  0  0  0  0  0  0  0  0
   -0.2811    3.2651    1.0560 H   0  0  0  0  0  0  0  0  0  0  0  0
   -0.0146    1.3968    0.0068 C   0  0  0  0  0  0  0  0  0  0  0  0
   -1.1977    0.6690   -0.0126 C   0  0  0  0  0  0  0  0  0  0  0  0
   -2.0715    1.1827   -0.0379 H   0  0  0  0  0  0  0  0  0  0  0  0
   -1.2118   -0.6735    0.0000 C   0  0  0  0  0  0  0  0  0  0  0  0
   -2.0743   -1.1956    0.0165 H   0  0  0  0  0  0  0  0  0  0  0  0
    0.0132   -1.3941   -0.0074 C   0  0  0  0  0  0  0  0  0  0  0  0
   -0.0153   -2.3878   -0.0185 H   0  0  0  0  0  0  0  0  0  0  0  0
    1.2118   -0.7069    0.0000 C   0  0  0  0  0  0  0  0  0  0  0  0
    2.0941   -1.1879   -0.0021 H   0  0  0  0  0  0  0  0  0  0  0  0
    1.1990    0.7087    0.0132 C   0  0  0  0  0  0  0  0  0  0  0  0
    2.0569    1.2027    0.0264 H   0  0  0  0  0  0  0  0  0  0  0  0
  1  5  1  0
  5  8  1  0
  1  2  1  0
  1  3  1  0
  1  4  1  0
  5  6  1  0
  5  7  1  0
  8  9  1  0
  8 10  1  0
  8 11  1  0
 12 16  1  0
 16 17  2  0
 17 19  1  0
 19 21  2  0
 21 23  1  0
 23 25  2  0
 25 16  1  0
 12 13  1  0
 12 14  1  0
 12 15  1  0
 17 18  1  0
 19 20  1  0
 21 22  1  0
 23 24  1  0
 25 26  1  0
M  CHG  1   8   1
M  END
>  <PDB_ID>  (2604) 
pdb3u3i

>  <RESIDUE_NAME>  (2604) 
LYS   PHE

>  <FRAG_NAME>  (2604) 
ETAM   MBZ

>  <FRAG_ATOM_NUM>  (2604) 
fragi: 11  fragj: 15

>  <atom.prop.CHAIN_ID>  (2604) 
A A A A A A A A A A A Z Z Z Z Z Z Z Z Z Z Z Z Z Z Z

>  <atom.prop.IS_HEAVY_ATOM>  (2604) 
1 0 0 0 1 0 0 1 0 0 0 1 0 0 0 1 1 0 1 0 1 0 1 0 1 0

>  <DIFUSE_FUNC_ATOM>  (2604) 
n/a

>  <FINAL_SINGLE_POINT_ENERGY>  (2604) 
0

>  <NONCOV_INTER_ENERGY_QM>  (2604) 
0

>  <FF_Energy>  (2604) 
-2.98

>  <QM_Energy>  (2604) 
-9.11

>  <source>  (2604) 
ETAM_MBZ

>  <Index>  (2604) 
27732

$$$$
ETAM-pdb4txh-D-LYS-216:MBZ-pdb4txh-D-PHE-211
     RDKit          3D

 26 25  0  0  0  0  0  0  0  0999 V2000
    4.3717   -0.1993   -1.0638 C   0  0  0  0  0  0  0  0  0  0  0  0
    4.6994   -1.1414   -1.1557 H   0  0  0  0  0  0  0  0  0  0  0  0
    3.3759   -0.2060   -0.9522 H   0  0  0  0  0  0  0  0  0  0  0  0
    4.8216    0.2430   -0.1750 H   0  0  0  0  0  0  0  0  0  0  0  0
    4.7110    0.5568   -2.3272 C   0  0  0  0  0  0  0  0  0  0  0  0
    5.1600    1.4172   -2.0844 H   0  0  0  0  0  0  0  0  0  0  0  0
    5.3320    0.0046   -2.8839 H   0  0  0  0  0  0  0  0  0  0  0  0
    3.4845    0.8506   -3.1104 N   0  0  0  0  0  4  0  0  0  0  0  0
    3.5881    1.7298   -3.5749 H   0  0  0  0  0  0  0  0  0  0  0  0
    3.3416    0.1295   -3.7890 H   0  0  0  0  0  0  0  0  0  0  0  0
    2.6963    0.8884   -2.4955 H   0  0  0  0  0  0  0  0  0  0  0  0
   -0.0035    2.8982   -0.0008 C   0  0  0  0  0  0  0  0  0  0  0  0
    0.8360    3.2059    0.4203 H   0  0  0  0  0  0  0  0  0  0  0  0
   -0.7943    3.2031    0.5086 H   0  0  0  0  0  0  0  0  0  0  0  0
   -0.0584    3.3407   -0.9955 H   0  0  0  0  0  0  0  0  0  0  0  0
   -0.0003    1.3955   -0.0025 C   0  0  0  0  0  0  0  0  0  0  0  0
   -1.1933    0.6862    0.0017 C   0  0  0  0  0  0  0  0  0  0  0  0
   -2.0612    1.1786    0.0052 H   0  0  0  0  0  0  0  0  0  0  0  0
   -1.1964   -0.6956    0.0000 C   0  0  0  0  0  0  0  0  0  0  0  0
   -2.0734   -1.1927   -0.0001 H   0  0  0  0  0  0  0  0  0  0  0  0
    0.0003   -1.3857    0.0008 C   0  0  0  0  0  0  0  0  0  0  0  0
   -0.0015   -2.3872    0.0007 H   0  0  0  0  0  0  0  0  0  0  0  0
    1.1964   -0.6918    0.0000 C   0  0  0  0  0  0  0  0  0  0  0  0
    2.0793   -1.1913    0.0007 H   0  0  0  0  0  0  0  0  0  0  0  0
    1.1933    0.6914    0.0001 C   0  0  0  0  0  0  0  0  0  0  0  0
    2.0617    1.1897    0.0014 H   0  0  0  0  0  0  0  0  0  0  0  0
  1  5  1  0
  5  8  1  0
  1  2  1  0
  1  3  1  0
  1  4  1  0
  5  6  1  0
  5  7  1  0
  8  9  1  0
  8 10  1  0
  8 11  1  0
 12 16  1  0
 16 17  2  0
 17 19  1  0
 19 21  2  0
 21 23  1  0
 23 25  2  0
 25 16  1  0
 12 13  1  0
 12 14  1  0
 12 15  1  0
 17 18  1  0
 19 20  1  0
 21 22  1  0
 23 24  1  0
 25 26  1  0
M  CHG  1   8   1
M  END
>  <PDB_ID>  (2605) 
pdb4txh

>  <RESIDUE_NAME>  (2605) 
LYS   PHE

>  <FRAG_NAME>  (2605) 
ETAM   MBZ

>  <FRAG_ATOM_NUM>  (2605) 
fragi: 11  fragj: 15

>  <atom.prop.CHAIN_ID>  (2605) 
A A A A A A A A A A A Z Z Z Z Z Z Z Z Z Z Z Z Z Z Z

>  <atom.prop.IS_HEAVY_ATOM>  (2605) 
1 0 0 0 1 0 0 1 0 0 0 1 0 0 0 1 1 0 1 0 1 0 1 0 1 0

>  <DIFUSE_FUNC_ATOM>  (2605) 
n/a

>  <FINAL_SINGLE_POINT_ENERGY>  (2605) 
0

>  <NONCOV_INTER_ENERGY_QM>  (2605) 
0

>  <FF_Energy>  (2605) 
1.76

>  <QM_Energy>  (2605) 
-4.98

>  <source>  (2605) 
ETAM_MBZ

>  <Index>  (2605) 
27758

$$$$
ETAM-pdb3u49-B-LYS-221:MBZ-pdb3u49-B-PHE-186
     RDKit          3D

 26 25  0  0  0  0  0  0  0  0999 V2000
    1.4088    0.2583   -3.6210 C   0  0  0  0  0  0  0  0  0  0  0  0
    2.1293    0.3688   -4.3085 H   0  0  0  0  0  0  0  0  0  0  0  0
    1.7703    0.5168   -2.7223 H   0  0  0  0  0  0  0  0  0  0  0  0
    0.5856    0.9278   -3.8705 H   0  0  0  0  0  0  0  0  0  0  0  0
    1.0009   -1.2017   -3.5770 C   0  0  0  0  0  0  0  0  0  0  0  0
    0.3190   -1.3306   -2.8656 H   0  0  0  0  0  0  0  0  0  0  0  0
    0.6327   -1.4672   -4.4611 H   0  0  0  0  0  0  0  0  0  0  0  0
    2.1950   -2.0491   -3.2702 N   0  0  0  0  0  4  0  0  0  0  0  0
    2.1567   -2.8805   -3.8214 H   0  0  0  0  0  0  0  0  0  0  0  0
    3.0245   -1.5380   -3.4872 H   0  0  0  0  0  0  0  0  0  0  0  0
    2.1885   -2.2857   -2.3005 H   0  0  0  0  0  0  0  0  0  0  0  0
    0.0006    2.8926    0.0168 C   0  0  0  0  0  0  0  0  0  0  0  0
   -0.7886    3.2098   -0.4833 H   0  0  0  0  0  0  0  0  0  0  0  0
    0.8416    3.2064   -0.3930 H   0  0  0  0  0  0  0  0  0  0  0  0
   -0.0537    3.3100    1.0222 H   0  0  0  0  0  0  0  0  0  0  0  0
   -0.0018    1.3964   -0.0029 C   0  0  0  0  0  0  0  0  0  0  0  0
   -1.1964    0.6922    0.0050 C   0  0  0  0  0  0  0  0  0  0  0  0
   -2.0624    1.1832    0.0128 H   0  0  0  0  0  0  0  0  0  0  0  0
   -1.1990   -0.6923   -0.0000 C   0  0  0  0  0  0  0  0  0  0  0  0
   -2.0746   -1.1902   -0.0008 H   0  0  0  0  0  0  0  0  0  0  0  0
    0.0037   -1.3889   -0.0015 C   0  0  0  0  0  0  0  0  0  0  0  0
   -0.0051   -2.3897   -0.0044 H   0  0  0  0  0  0  0  0  0  0  0  0
    1.1990   -0.6984    0.0000 C   0  0  0  0  0  0  0  0  0  0  0  0
    2.0819   -1.1948    0.0033 H   0  0  0  0  0  0  0  0  0  0  0  0
    1.1944    0.6910   -0.0005 C   0  0  0  0  0  0  0  0  0  0  0  0
    2.0616    1.1882   -0.0003 H   0  0  0  0  0  0  0  0  0  0  0  0
  1  5  1  0
  5  8  1  0
  1  2  1  0
  1  3  1  0
  1  4  1  0
  5  6  1  0
  5  7  1  0
  8  9  1  0
  8 10  1  0
  8 11  1  0
 12 16  1  0
 16 17  2  0
 17 19  1  0
 19 21  2  0
 21 23  1  0
 23 25  2  0
 25 16  1  0
 12 13  1  0
 12 14  1  0
 12 15  1  0
 17 18  1  0
 19 20  1  0
 21 22  1  0
 23 24  1  0
 25 26  1  0
M  CHG  1   8   1
M  END
>  <PDB_ID>  (2606) 
pdb3u49

>  <RESIDUE_NAME>  (2606) 
LYS   PHE

>  <FRAG_NAME>  (2606) 
ETAM   MBZ

>  <FRAG_ATOM_NUM>  (2606) 
fragi: 11  fragj: 15

>  <atom.prop.CHAIN_ID>  (2606) 
A A A A A A A A A A A Z Z Z Z Z Z Z Z Z Z Z Z Z Z Z

>  <atom.prop.IS_HEAVY_ATOM>  (2606) 
1 0 0 0 1 0 0 1 0 0 0 1 0 0 0 1 1 0 1 0 1 0 1 0 1 0

>  <DIFUSE_FUNC_ATOM>  (2606) 
n/a

>  <FINAL_SINGLE_POINT_ENERGY>  (2606) 
0

>  <NONCOV_INTER_ENERGY_QM>  (2606) 
0

>  <FF_Energy>  (2606) 
-4.0

>  <QM_Energy>  (2606) 
-9.71

>  <source>  (2606) 
ETAM_MBZ

>  <Index>  (2606) 
27772

$$$$
ETAM-pdb4tzo-D-LYS-287:MBZ-pdb4tzo-C-PHE-193
     RDKit          3D

 26 25  0  0  0  0  0  0  0  0999 V2000
    3.5394   -1.6329    1.8487 C   0  0  0  0  0  0  0  0  0  0  0  0
    2.9038   -2.3475    1.5746 H   0  0  0  0  0  0  0  0  0  0  0  0
    3.4110   -0.8221    1.2879 H   0  0  0  0  0  0  0  0  0  0  0  0
    3.3538   -1.3757    2.8916 H   0  0  0  0  0  0  0  0  0  0  0  0
    4.9569   -2.1414    1.6474 C   0  0  0  0  0  0  0  0  0  0  0  0
    5.6021   -1.4279    1.9355 H   0  0  0  0  0  0  0  0  0  0  0  0
    5.0963   -2.9536    2.2212 H   0  0  0  0  0  0  0  0  0  0  0  0
    5.2242   -2.4970    0.2271 N   0  0  0  0  0  4  0  0  0  0  0  0
    5.0249   -3.4663    0.0850 H   0  0  0  0  0  0  0  0  0  0  0  0
    4.6419   -1.9439   -0.3683 H   0  0  0  0  0  0  0  0  0  0  0  0
    6.1846   -2.3177    0.0157 H   0  0  0  0  0  0  0  0  0  0  0  0
    0.0044    2.9007    0.0041 C   0  0  0  0  0  0  0  0  0  0  0  0
   -0.8204    3.2091   -0.4447 H   0  0  0  0  0  0  0  0  0  0  0  0
    0.8118    3.2054   -0.4781 H   0  0  0  0  0  0  0  0  0  0  0  0
    0.0257    3.3414    1.0008 H   0  0  0  0  0  0  0  0  0  0  0  0
    0.0007    1.3951    0.0019 C   0  0  0  0  0  0  0  0  0  0  0  0
   -1.1924    0.6882   -0.0025 C   0  0  0  0  0  0  0  0  0  0  0  0
   -2.0599    1.1797   -0.0091 H   0  0  0  0  0  0  0  0  0  0  0  0
   -1.1950   -0.6943   -0.0000 C   0  0  0  0  0  0  0  0  0  0  0  0
   -2.0732   -1.1906    0.0036 H   0  0  0  0  0  0  0  0  0  0  0  0
    0.0006   -1.3859   -0.0002 C   0  0  0  0  0  0  0  0  0  0  0  0
   -0.0018   -2.3872   -0.0012 H   0  0  0  0  0  0  0  0  0  0  0  0
    1.1950   -0.6920   -0.0000 C   0  0  0  0  0  0  0  0  0  0  0  0
    2.0787   -1.1918    0.0009 H   0  0  0  0  0  0  0  0  0  0  0  0
    1.1911    0.6890    0.0008 C   0  0  0  0  0  0  0  0  0  0  0  0
    2.0613    1.1879   -0.0004 H   0  0  0  0  0  0  0  0  0  0  0  0
  1  5  1  0
  5  8  1  0
  1  2  1  0
  1  3  1  0
  1  4  1  0
  5  6  1  0
  5  7  1  0
  8  9  1  0
  8 10  1  0
  8 11  1  0
 12 16  1  0
 16 17  2  0
 17 19  1  0
 19 21  2  0
 21 23  1  0
 23 25  2  0
 25 16  1  0
 12 13  1  0
 12 14  1  0
 12 15  1  0
 17 18  1  0
 19 20  1  0
 21 22  1  0
 23 24  1  0
 25 26  1  0
M  CHG  1   8   1
M  END
>  <PDB_ID>  (2607) 
pdb4tzo

>  <RESIDUE_NAME>  (2607) 
LYS   PHE

>  <FRAG_NAME>  (2607) 
ETAM   MBZ

>  <FRAG_ATOM_NUM>  (2607) 
fragi: 11  fragj: 15

>  <atom.prop.CHAIN_ID>  (2607) 
A A A A A A A A A A A Z Z Z Z Z Z Z Z Z Z Z Z Z Z Z

>  <atom.prop.IS_HEAVY_ATOM>  (2607) 
1 0 0 0 1 0 0 1 0 0 0 1 0 0 0 1 1 0 1 0 1 0 1 0 1 0

>  <DIFUSE_FUNC_ATOM>  (2607) 
n/a

>  <FINAL_SINGLE_POINT_ENERGY>  (2607) 
0

>  <NONCOV_INTER_ENERGY_QM>  (2607) 
0

>  <FF_Energy>  (2607) 
5.82

>  <QM_Energy>  (2607) 
0.66

>  <source>  (2607) 
ETAM_MBZ

>  <Index>  (2607) 
27795

$$$$
ETAM-pdb4u32-A-LYS-60:MBZ-pdb4u32-A-PHE-41
     RDKit          3D

 26 25  0  0  0  0  0  0  0  0999 V2000
   -0.2167   -1.3277    3.6917 C   0  0  0  0  0  0  0  0  0  0  0  0
   -0.4621   -1.3181    2.7345 H   0  0  0  0  0  0  0  0  0  0  0  0
   -0.9842   -1.5841    4.2587 H   0  0  0  0  0  0  0  0  0  0  0  0
    0.5832   -2.0535    3.8389 H   0  0  0  0  0  0  0  0  0  0  0  0
    0.2712    0.0225    4.0947 C   0  0  0  0  0  0  0  0  0  0  0  0
   -0.1874    0.3141    4.9021 H   0  0  0  0  0  0  0  0  0  0  0  0
    1.2415    0.0163    4.1701 H   0  0  0  0  0  0  0  0  0  0  0  0
   -0.1345    0.8659    2.9601 N   0  0  0  0  0  4  0  0  0  0  0  0
   -0.2924    1.8052    3.2735 H   0  0  0  0  0  0  0  0  0  0  0  0
    0.5868    0.8689    2.2640 H   0  0  0  0  0  0  0  0  0  0  0  0
   -0.9789    0.5084    2.5553 H   0  0  0  0  0  0  0  0  0  0  0  0
    0.0454    2.8385   -0.0070 C   0  0  0  0  0  0  0  0  0  0  0  0
    0.8804    3.1536    0.4292 H   0  0  0  0  0  0  0  0  0  0  0  0
   -0.7516    3.2021    0.4620 H   0  0  0  0  0  0  0  0  0  0  0  0
    0.0376    3.2685   -1.0086 H   0  0  0  0  0  0  0  0  0  0  0  0
    0.0034    1.3838    0.0173 C   0  0  0  0  0  0  0  0  0  0  0  0
   -1.1935    0.6668   -0.0075 C   0  0  0  0  0  0  0  0  0  0  0  0
   -2.0581    1.1644   -0.0321 H   0  0  0  0  0  0  0  0  0  0  0  0
   -1.1910   -0.7024    0.0000 C   0  0  0  0  0  0  0  0  0  0  0  0
   -2.0564   -1.2132    0.0287 H   0  0  0  0  0  0  0  0  0  0  0  0
    0.0204   -1.3797   -0.0311 C   0  0  0  0  0  0  0  0  0  0  0  0
    0.0365   -2.3715   -0.0752 H   0  0  0  0  0  0  0  0  0  0  0  0
    1.1910   -0.6485   -0.0000 C   0  0  0  0  0  0  0  0  0  0  0  0
    2.0880   -1.1580    0.0080 H   0  0  0  0  0  0  0  0  0  0  0  0
    1.1697    0.6801    0.0213 C   0  0  0  0  0  0  0  0  0  0  0  0
    2.0489    1.2036    0.0407 H   0  0  0  0  0  0  0  0  0  0  0  0
  1  5  1  0
  5  8  1  0
  1  2  1  0
  1  3  1  0
  1  4  1  0
  5  6  1  0
  5  7  1  0
  8  9  1  0
  8 10  1  0
  8 11  1  0
 12 16  1  0
 16 17  2  0
 17 19  1  0
 19 21  2  0
 21 23  1  0
 23 25  2  0
 25 16  1  0
 12 13  1  0
 12 14  1  0
 12 15  1  0
 17 18  1  0
 19 20  1  0
 21 22  1  0
 23 24  1  0
 25 26  1  0
M  CHG  1   8   1
M  END
>  <PDB_ID>  (2608) 
pdb4u32

>  <RESIDUE_NAME>  (2608) 
LYS   PHE

>  <FRAG_NAME>  (2608) 
ETAM   MBZ

>  <FRAG_ATOM_NUM>  (2608) 
fragi: 11  fragj: 15

>  <atom.prop.CHAIN_ID>  (2608) 
A A A A A A A A A A A Z Z Z Z Z Z Z Z Z Z Z Z Z Z Z

>  <atom.prop.IS_HEAVY_ATOM>  (2608) 
1 0 0 0 1 0 0 1 0 0 0 1 0 0 0 1 1 0 1 0 1 0 1 0 1 0

>  <DIFUSE_FUNC_ATOM>  (2608) 
n/a

>  <FINAL_SINGLE_POINT_ENERGY>  (2608) 
0

>  <NONCOV_INTER_ENERGY_QM>  (2608) 
0

>  <FF_Energy>  (2608) 
-8.91

>  <QM_Energy>  (2608) 
-16.32

>  <source>  (2608) 
ETAM_MBZ

>  <Index>  (2608) 
27840

$$$$
ETAM-pdb3uca-A-LYS-52:MBZ-pdb3uca-A-PHE-301
     RDKit          3D

 26 25  0  0  0  0  0  0  0  0999 V2000
    3.2889   -1.1660   -3.2590 C   0  0  0  0  0  0  0  0  0  0  0  0
    3.2082   -0.6824   -2.3935 H   0  0  0  0  0  0  0  0  0  0  0  0
    4.2070   -1.0630   -3.6280 H   0  0  0  0  0  0  0  0  0  0  0  0
    3.1034   -2.2254   -3.0819 H   0  0  0  0  0  0  0  0  0  0  0  0
    2.2952   -0.5706   -4.2470 C   0  0  0  0  0  0  0  0  0  0  0  0
    2.5628    0.3656   -4.4540 H   0  0  0  0  0  0  0  0  0  0  0  0
    2.2953   -1.1178   -5.0789 H   0  0  0  0  0  0  0  0  0  0  0  0
    0.9224   -0.5708   -3.6587 N   0  0  0  0  0  4  0  0  0  0  0  0
    0.2584   -0.7879   -4.3731 H   0  0  0  0  0  0  0  0  0  0  0  0
    0.8749   -1.2570   -2.9356 H   0  0  0  0  0  0  0  0  0  0  0  0
    0.7270    0.3322   -3.2801 H   0  0  0  0  0  0  0  0  0  0  0  0
    0.0023    2.9007   -0.0027 C   0  0  0  0  0  0  0  0  0  0  0  0
    0.7804    3.2074    0.5235 H   0  0  0  0  0  0  0  0  0  0  0  0
   -0.8477    3.2084    0.3960 H   0  0  0  0  0  0  0  0  0  0  0  0
    0.0802    3.3349   -0.9994 H   0  0  0  0  0  0  0  0  0  0  0  0
    0.0008    1.3971    0.0015 C   0  0  0  0  0  0  0  0  0  0  0  0
   -1.1931    0.6918   -0.0012 C   0  0  0  0  0  0  0  0  0  0  0  0
   -2.0601    1.1850   -0.0058 H   0  0  0  0  0  0  0  0  0  0  0  0
   -1.1995   -0.6927    0.0000 C   0  0  0  0  0  0  0  0  0  0  0  0
   -2.0781   -1.1874    0.0026 H   0  0  0  0  0  0  0  0  0  0  0  0
   -0.0026   -1.3902   -0.0007 C   0  0  0  0  0  0  0  0  0  0  0  0
   -0.0079   -2.3899   -0.0018 H   0  0  0  0  0  0  0  0  0  0  0  0
    1.1995   -0.6972   -0.0000 C   0  0  0  0  0  0  0  0  0  0  0  0
    2.0799   -1.1966    0.0016 H   0  0  0  0  0  0  0  0  0  0  0  0
    1.1949    0.6912    0.0004 C   0  0  0  0  0  0  0  0  0  0  0  0
    2.0638    1.1881   -0.0015 H   0  0  0  0  0  0  0  0  0  0  0  0
  1  5  1  0
  5  8  1  0
  1  2  1  0
  1  3  1  0
  1  4  1  0
  5  6  1  0
  5  7  1  0
  8  9  1  0
  8 10  1  0
  8 11  1  0
 12 16  1  0
 16 17  2  0
 17 19  1  0
 19 21  2  0
 21 23  1  0
 23 25  2  0
 25 16  1  0
 12 13  1  0
 12 14  1  0
 12 15  1  0
 17 18  1  0
 19 20  1  0
 21 22  1  0
 23 24  1  0
 25 26  1  0
M  CHG  1   8   1
M  END
>  <PDB_ID>  (2609) 
pdb3uca

>  <RESIDUE_NAME>  (2609) 
LYS   PHE

>  <FRAG_NAME>  (2609) 
ETAM   MBZ

>  <FRAG_ATOM_NUM>  (2609) 
fragi: 11  fragj: 15

>  <atom.prop.CHAIN_ID>  (2609) 
A A A A A A A A A A A Z Z Z Z Z Z Z Z Z Z Z Z Z Z Z

>  <atom.prop.IS_HEAVY_ATOM>  (2609) 
1 0 0 0 1 0 0 1 0 0 0 1 0 0 0 1 1 0 1 0 1 0 1 0 1 0

>  <DIFUSE_FUNC_ATOM>  (2609) 
n/a

>  <FINAL_SINGLE_POINT_ENERGY>  (2609) 
0

>  <NONCOV_INTER_ENERGY_QM>  (2609) 
0

>  <FF_Energy>  (2609) 
-6.5

>  <QM_Energy>  (2609) 
-11.75

>  <source>  (2609) 
ETAM_MBZ

>  <Index>  (2609) 
27844

$$$$
ETAM-pdb4u4p-A-LYS-677:MBZ-pdb4u4p-A-PHE-503
     RDKit          3D

 26 25  0  0  0  0  0  0  0  0999 V2000
    1.6133   -2.0715    3.2915 C   0  0  0  0  0  0  0  0  0  0  0  0
    2.2276   -1.6681    2.6188 H   0  0  0  0  0  0  0  0  0  0  0  0
    2.1348   -2.4186    4.0664 H   0  0  0  0  0  0  0  0  0  0  0  0
    0.9338   -1.2974    3.6483 H   0  0  0  0  0  0  0  0  0  0  0  0
    0.8786   -3.2471    2.6347 C   0  0  0  0  0  0  0  0  0  0  0  0
    0.3434   -2.8883    1.8555 H   0  0  0  0  0  0  0  0  0  0  0  0
    1.5704   -3.8846    2.2648 H   0  0  0  0  0  0  0  0  0  0  0  0
   -0.0173   -3.9733    3.5564 N   0  0  0  0  0  4  0  0  0  0  0  0
   -0.5284   -4.6705    3.0507 H   0  0  0  0  0  0  0  0  0  0  0  0
    0.5234   -4.4153    4.2743 H   0  0  0  0  0  0  0  0  0  0  0  0
   -0.6620   -3.3315    3.9766 H   0  0  0  0  0  0  0  0  0  0  0  0
   -0.0049    2.8987   -0.0067 C   0  0  0  0  0  0  0  0  0  0  0  0
    0.9162    3.2068    0.1700 H   0  0  0  0  0  0  0  0  0  0  0  0
   -0.6304    3.2031    0.6941 H   0  0  0  0  0  0  0  0  0  0  0  0
   -0.3272    3.3274   -0.9555 H   0  0  0  0  0  0  0  0  0  0  0  0
    0.0008    1.3918    0.0003 C   0  0  0  0  0  0  0  0  0  0  0  0
   -1.1892    0.6880    0.0054 C   0  0  0  0  0  0  0  0  0  0  0  0
   -2.0580    1.1794    0.0123 H   0  0  0  0  0  0  0  0  0  0  0  0
   -1.1962   -0.6968    0.0000 C   0  0  0  0  0  0  0  0  0  0  0  0
   -2.0751   -1.1889    0.0011 H   0  0  0  0  0  0  0  0  0  0  0  0
   -0.0041   -1.3827   -0.0047 C   0  0  0  0  0  0  0  0  0  0  0  0
   -0.0021   -2.3860   -0.0125 H   0  0  0  0  0  0  0  0  0  0  0  0
    1.1962   -0.6888    0.0000 C   0  0  0  0  0  0  0  0  0  0  0  0
    2.0758   -1.1933    0.0058 H   0  0  0  0  0  0  0  0  0  0  0  0
    1.1925    0.6886   -0.0009 C   0  0  0  0  0  0  0  0  0  0  0  0
    2.0612    1.1892   -0.0029 H   0  0  0  0  0  0  0  0  0  0  0  0
  1  5  1  0
  5  8  1  0
  1  2  1  0
  1  3  1  0
  1  4  1  0
  5  6  1  0
  5  7  1  0
  8  9  1  0
  8 10  1  0
  8 11  1  0
 12 16  1  0
 16 17  2  0
 17 19  1  0
 19 21  2  0
 21 23  1  0
 23 25  2  0
 25 16  1  0
 12 13  1  0
 12 14  1  0
 12 15  1  0
 17 18  1  0
 19 20  1  0
 21 22  1  0
 23 24  1  0
 25 26  1  0
M  CHG  1   8   1
M  END
>  <PDB_ID>  (2610) 
pdb4u4p

>  <RESIDUE_NAME>  (2610) 
LYS   PHE

>  <FRAG_NAME>  (2610) 
ETAM   MBZ

>  <FRAG_ATOM_NUM>  (2610) 
fragi: 11  fragj: 15

>  <atom.prop.CHAIN_ID>  (2610) 
A A A A A A A A A A A Z Z Z Z Z Z Z Z Z Z Z Z Z Z Z

>  <atom.prop.IS_HEAVY_ATOM>  (2610) 
1 0 0 0 1 0 0 1 0 0 0 1 0 0 0 1 1 0 1 0 1 0 1 0 1 0

>  <DIFUSE_FUNC_ATOM>  (2610) 
n/a

>  <FINAL_SINGLE_POINT_ENERGY>  (2610) 
0

>  <NONCOV_INTER_ENERGY_QM>  (2610) 
0

>  <FF_Energy>  (2610) 
0.79

>  <QM_Energy>  (2610) 
-4.7

>  <source>  (2610) 
ETAM_MBZ

>  <Index>  (2610) 
27858

$$$$
ETAM-pdb4u5p-C-LYS-44:MBZ-pdb4u5p-A-PHE-6
     RDKit          3D

 26 25  0  0  0  0  0  0  0  0999 V2000
    4.0607   -3.1006   -3.4991 C   0  0  0  0  0  0  0  0  0  0  0  0
    3.2820   -2.7304   -4.0187 H   0  0  0  0  0  0  0  0  0  0  0  0
    4.3454   -3.9666   -3.9274 H   0  0  0  0  0  0  0  0  0  0  0  0
    4.8873   -2.3937   -3.5711 H   0  0  0  0  0  0  0  0  0  0  0  0
    3.6071   -3.3862   -2.0849 C   0  0  0  0  0  0  0  0  0  0  0  0
    3.6768   -4.3582   -1.9070 H   0  0  0  0  0  0  0  0  0  0  0  0
    4.1628   -2.8678   -1.4501 H   0  0  0  0  0  0  0  0  0  0  0  0
    2.1854   -2.9622   -1.9537 N   0  0  0  0  0  4  0  0  0  0  0  0
    2.1419   -2.1047   -1.4415 H   0  0  0  0  0  0  0  0  0  0  0  0
    1.7937   -2.8300   -2.8641 H   0  0  0  0  0  0  0  0  0  0  0  0
    1.6723   -3.6690   -1.4685 H   0  0  0  0  0  0  0  0  0  0  0  0
    0.0034    2.8844    0.0088 C   0  0  0  0  0  0  0  0  0  0  0  0
   -0.8151    3.2038   -0.4438 H   0  0  0  0  0  0  0  0  0  0  0  0
    0.8183    3.1997   -0.4526 H   0  0  0  0  0  0  0  0  0  0  0  0
    0.0102    3.3098    1.0124 H   0  0  0  0  0  0  0  0  0  0  0  0
   -0.0003    1.3911   -0.0085 C   0  0  0  0  0  0  0  0  0  0  0  0
   -1.1881    0.6875    0.0024 C   0  0  0  0  0  0  0  0  0  0  0  0
   -2.0580    1.1782    0.0107 H   0  0  0  0  0  0  0  0  0  0  0  0
   -1.1927   -0.6945    0.0000 C   0  0  0  0  0  0  0  0  0  0  0  0
   -2.0720   -1.1895   -0.0028 H   0  0  0  0  0  0  0  0  0  0  0  0
    0.0008   -1.3835    0.0036 C   0  0  0  0  0  0  0  0  0  0  0  0
   -0.0006   -2.3855    0.0083 H   0  0  0  0  0  0  0  0  0  0  0  0
    1.1927   -0.6899   -0.0000 C   0  0  0  0  0  0  0  0  0  0  0  0
    2.0771   -1.1895   -0.0036 H   0  0  0  0  0  0  0  0  0  0  0  0
    1.1876    0.6893    0.0025 C   0  0  0  0  0  0  0  0  0  0  0  0
    2.0581    1.1886    0.0113 H   0  0  0  0  0  0  0  0  0  0  0  0
  1  5  1  0
  5  8  1  0
  1  2  1  0
  1  3  1  0
  1  4  1  0
  5  6  1  0
  5  7  1  0
  8  9  1  0
  8 10  1  0
  8 11  1  0
 12 16  1  0
 16 17  2  0
 17 19  1  0
 19 21  2  0
 21 23  1  0
 23 25  2  0
 25 16  1  0
 12 13  1  0
 12 14  1  0
 12 15  1  0
 17 18  1  0
 19 20  1  0
 21 22  1  0
 23 24  1  0
 25 26  1  0
M  CHG  1   8   1
M  END
>  <PDB_ID>  (2611) 
pdb4u5p

>  <RESIDUE_NAME>  (2611) 
LYS   PHE

>  <FRAG_NAME>  (2611) 
ETAM   MBZ

>  <FRAG_ATOM_NUM>  (2611) 
fragi: 11  fragj: 15

>  <atom.prop.CHAIN_ID>  (2611) 
A A A A A A A A A A A Z Z Z Z Z Z Z Z Z Z Z Z Z Z Z

>  <atom.prop.IS_HEAVY_ATOM>  (2611) 
1 0 0 0 1 0 0 1 0 0 0 1 0 0 0 1 1 0 1 0 1 0 1 0 1 0

>  <DIFUSE_FUNC_ATOM>  (2611) 
n/a

>  <FINAL_SINGLE_POINT_ENERGY>  (2611) 
0

>  <NONCOV_INTER_ENERGY_QM>  (2611) 
0

>  <FF_Energy>  (2611) 
0.44

>  <QM_Energy>  (2611) 
-6.96

>  <source>  (2611) 
ETAM_MBZ

>  <Index>  (2611) 
27874

$$$$
ETAM-pdb4u77-A-LYS-19:MBZ-pdb4u77-A-PHE-15
     RDKit          3D

 26 25  0  0  0  0  0  0  0  0999 V2000
   -1.2365   -1.4541    4.2382 C   0  0  0  0  0  0  0  0  0  0  0  0
   -1.8295   -1.1567    4.9789 H   0  0  0  0  0  0  0  0  0  0  0  0
   -0.9516   -0.6774    3.6874 H   0  0  0  0  0  0  0  0  0  0  0  0
   -0.3512   -1.9250    4.6654 H   0  0  0  0  0  0  0  0  0  0  0  0
   -2.0031   -2.4215    3.3583 C   0  0  0  0  0  0  0  0  0  0  0  0
   -2.4219   -3.1234    3.9332 H   0  0  0  0  0  0  0  0  0  0  0  0
   -2.7165   -1.9220    2.8681 H   0  0  0  0  0  0  0  0  0  0  0  0
   -1.0946   -3.0675    2.3785 N   0  0  0  0  0  4  0  0  0  0  0  0
   -1.5904   -3.2400    1.5269 H   0  0  0  0  0  0  0  0  0  0  0  0
   -0.3180   -2.4645    2.1955 H   0  0  0  0  0  0  0  0  0  0  0  0
   -0.7626   -3.9339    2.7523 H   0  0  0  0  0  0  0  0  0  0  0  0
   -0.0026    2.9109   -0.0056 C   0  0  0  0  0  0  0  0  0  0  0  0
   -0.7202    3.2095   -0.6177 H   0  0  0  0  0  0  0  0  0  0  0  0
    0.8852    3.2131   -0.3191 H   0  0  0  0  0  0  0  0  0  0  0  0
   -0.1844    3.3638    0.9691 H   0  0  0  0  0  0  0  0  0  0  0  0
   -0.0012    1.4015    0.0068 C   0  0  0  0  0  0  0  0  0  0  0  0
   -1.1964    0.6903   -0.0014 C   0  0  0  0  0  0  0  0  0  0  0  0
   -2.0634    1.1795   -0.0097 H   0  0  0  0  0  0  0  0  0  0  0  0
   -1.1967   -0.6975   -0.0000 C   0  0  0  0  0  0  0  0  0  0  0  0
   -2.0732   -1.1943    0.0048 H   0  0  0  0  0  0  0  0  0  0  0  0
    0.0034   -1.3892   -0.0032 C   0  0  0  0  0  0  0  0  0  0  0  0
   -0.0013   -2.3900   -0.0085 H   0  0  0  0  0  0  0  0  0  0  0  0
    1.1967   -0.6958    0.0000 C   0  0  0  0  0  0  0  0  0  0  0  0
    2.0817   -1.1934    0.0056 H   0  0  0  0  0  0  0  0  0  0  0  0
    1.1943    0.6907   -0.0022 C   0  0  0  0  0  0  0  0  0  0  0  0
    2.0633    1.1879   -0.0110 H   0  0  0  0  0  0  0  0  0  0  0  0
  1  5  1  0
  5  8  1  0
  1  2  1  0
  1  3  1  0
  1  4  1  0
  5  6  1  0
  5  7  1  0
  8  9  1  0
  8 10  1  0
  8 11  1  0
 12 16  1  0
 16 17  2  0
 17 19  1  0
 19 21  2  0
 21 23  1  0
 23 25  2  0
 25 16  1  0
 12 13  1  0
 12 14  1  0
 12 15  1  0
 17 18  1  0
 19 20  1  0
 21 22  1  0
 23 24  1  0
 25 26  1  0
M  CHG  1   8   1
M  END
>  <PDB_ID>  (2612) 
pdb4u77

>  <RESIDUE_NAME>  (2612) 
LYS   PHE

>  <FRAG_NAME>  (2612) 
ETAM   MBZ

>  <FRAG_ATOM_NUM>  (2612) 
fragi: 11  fragj: 15

>  <atom.prop.CHAIN_ID>  (2612) 
A A A A A A A A A A A Z Z Z Z Z Z Z Z Z Z Z Z Z Z Z

>  <atom.prop.IS_HEAVY_ATOM>  (2612) 
1 0 0 0 1 0 0 1 0 0 0 1 0 0 0 1 1 0 1 0 1 0 1 0 1 0

>  <DIFUSE_FUNC_ATOM>  (2612) 
n/a

>  <FINAL_SINGLE_POINT_ENERGY>  (2612) 
0

>  <NONCOV_INTER_ENERGY_QM>  (2612) 
0

>  <FF_Energy>  (2612) 
-1.77

>  <QM_Energy>  (2612) 
-9.45

>  <source>  (2612) 
ETAM_MBZ

>  <Index>  (2612) 
27884

$$$$
ETAM-pdb3ugq-A-LYS-250:MBZ-pdb3ugq-A-PHE-228
     RDKit          3D

 26 25  0  0  0  0  0  0  0  0999 V2000
    0.5590   -0.4301   -3.5264 C   0  0  0  0  0  0  0  0  0  0  0  0
   -0.3505   -0.0306   -3.6344 H   0  0  0  0  0  0  0  0  0  0  0  0
    0.7194   -0.6400   -2.5620 H   0  0  0  0  0  0  0  0  0  0  0  0
    0.5990   -1.3593   -4.0947 H   0  0  0  0  0  0  0  0  0  0  0  0
    1.5902    0.5722   -3.9860 C   0  0  0  0  0  0  0  0  0  0  0  0
    2.1172    0.1795   -4.7400 H   0  0  0  0  0  0  0  0  0  0  0  0
    1.1277    1.4015   -4.2992 H   0  0  0  0  0  0  0  0  0  0  0  0
    2.5124    0.9191   -2.8746 N   0  0  0  0  0  4  0  0  0  0  0  0
    3.2056    0.2036   -2.7812 H   0  0  0  0  0  0  0  0  0  0  0  0
    2.9584    1.7919   -3.0722 H   0  0  0  0  0  0  0  0  0  0  0  0
    1.9945    0.9946   -2.0230 H   0  0  0  0  0  0  0  0  0  0  0  0
    0.0089    2.9010   -0.0089 C   0  0  0  0  0  0  0  0  0  0  0  0
   -0.4087    3.2019   -0.8545 H   0  0  0  0  0  0  0  0  0  0  0  0
    0.9504    3.2030    0.0509 H   0  0  0  0  0  0  0  0  0  0  0  0
   -0.5397    3.3594    0.8139 H   0  0  0  0  0  0  0  0  0  0  0  0
    0.0007    1.3981    0.0053 C   0  0  0  0  0  0  0  0  0  0  0  0
   -1.1935    0.6925   -0.0041 C   0  0  0  0  0  0  0  0  0  0  0  0
   -2.0609    1.1825   -0.0152 H   0  0  0  0  0  0  0  0  0  0  0  0
   -1.1972   -0.6960    0.0000 C   0  0  0  0  0  0  0  0  0  0  0  0
   -2.0751   -1.1895    0.0027 H   0  0  0  0  0  0  0  0  0  0  0  0
    0.0002   -1.3893    0.0016 C   0  0  0  0  0  0  0  0  0  0  0  0
   -0.0040   -2.3901    0.0031 H   0  0  0  0  0  0  0  0  0  0  0  0
    1.1972   -0.6958   -0.0000 C   0  0  0  0  0  0  0  0  0  0  0  0
    2.0798   -1.1942    0.0027 H   0  0  0  0  0  0  0  0  0  0  0  0
    1.1927    0.6906   -0.0029 C   0  0  0  0  0  0  0  0  0  0  0  0
    2.0630    1.1873   -0.0117 H   0  0  0  0  0  0  0  0  0  0  0  0
  1  5  1  0
  5  8  1  0
  1  2  1  0
  1  3  1  0
  1  4  1  0
  5  6  1  0
  5  7  1  0
  8  9  1  0
  8 10  1  0
  8 11  1  0
 12 16  1  0
 16 17  2  0
 17 19  1  0
 19 21  2  0
 21 23  1  0
 23 25  2  0
 25 16  1  0
 12 13  1  0
 12 14  1  0
 12 15  1  0
 17 18  1  0
 19 20  1  0
 21 22  1  0
 23 24  1  0
 25 26  1  0
M  CHG  1   8   1
M  END
>  <PDB_ID>  (2613) 
pdb3ugq

>  <RESIDUE_NAME>  (2613) 
LYS   PHE

>  <FRAG_NAME>  (2613) 
ETAM   MBZ

>  <FRAG_ATOM_NUM>  (2613) 
fragi: 11  fragj: 15

>  <atom.prop.CHAIN_ID>  (2613) 
A A A A A A A A A A A Z Z Z Z Z Z Z Z Z Z Z Z Z Z Z

>  <atom.prop.IS_HEAVY_ATOM>  (2613) 
1 0 0 0 1 0 0 1 0 0 0 1 0 0 0 1 1 0 1 0 1 0 1 0 1 0

>  <DIFUSE_FUNC_ATOM>  (2613) 
n/a

>  <FINAL_SINGLE_POINT_ENERGY>  (2613) 
0

>  <NONCOV_INTER_ENERGY_QM>  (2613) 
0

>  <FF_Energy>  (2613) 
-4.63

>  <QM_Energy>  (2613) 
-11.89

>  <source>  (2613) 
ETAM_MBZ

>  <Index>  (2613) 
27895

$$$$
ETAM-pdb3ugq-A-LYS-261:MBZ-pdb3ugq-A-PHE-225
     RDKit          3D

 26 25  0  0  0  0  0  0  0  0999 V2000
   -2.6419   -0.6827   -4.0068 C   0  0  0  0  0  0  0  0  0  0  0  0
   -3.0525   -1.5288   -3.6687 H   0  0  0  0  0  0  0  0  0  0  0  0
   -2.6286   -0.6905   -5.0049 H   0  0  0  0  0  0  0  0  0  0  0  0
   -3.2466    0.1593   -3.6699 H   0  0  0  0  0  0  0  0  0  0  0  0
   -1.2121   -0.6045   -3.5047 C   0  0  0  0  0  0  0  0  0  0  0  0
   -0.7196    0.0892   -4.0254 H   0  0  0  0  0  0  0  0  0  0  0  0
   -1.2179   -0.3605   -2.5375 H   0  0  0  0  0  0  0  0  0  0  0  0
   -0.5279   -1.9198   -3.6730 N   0  0  0  0  0  4  0  0  0  0  0  0
   -1.0219   -2.4640   -4.3501 H   0  0  0  0  0  0  0  0  0  0  0  0
    0.4089   -1.7663   -3.9829 H   0  0  0  0  0  0  0  0  0  0  0  0
   -0.5178   -2.4007   -2.7977 H   0  0  0  0  0  0  0  0  0  0  0  0
   -0.0076    2.9035   -0.0098 C   0  0  0  0  0  0  0  0  0  0  0  0
   -0.8046    3.2020   -0.5125 H   0  0  0  0  0  0  0  0  0  0  0  0
    0.8269    3.2100   -0.4436 H   0  0  0  0  0  0  0  0  0  0  0  0
   -0.0515    3.3555    0.9811 H   0  0  0  0  0  0  0  0  0  0  0  0
   -0.0010    1.3989    0.0026 C   0  0  0  0  0  0  0  0  0  0  0  0
   -1.1941    0.6906   -0.0020 C   0  0  0  0  0  0  0  0  0  0  0  0
   -2.0623    1.1832   -0.0077 H   0  0  0  0  0  0  0  0  0  0  0  0
   -1.1999   -0.6937   -0.0000 C   0  0  0  0  0  0  0  0  0  0  0  0
   -2.0769   -1.1891    0.0030 H   0  0  0  0  0  0  0  0  0  0  0  0
   -0.0004   -1.3895    0.0002 C   0  0  0  0  0  0  0  0  0  0  0  0
   -0.0066   -2.3901   -0.0003 H   0  0  0  0  0  0  0  0  0  0  0  0
    1.1999   -0.6976    0.0000 C   0  0  0  0  0  0  0  0  0  0  0  0
    2.0808   -1.1959    0.0025 H   0  0  0  0  0  0  0  0  0  0  0  0
    1.1956    0.6913   -0.0008 C   0  0  0  0  0  0  0  0  0  0  0  0
    2.0629    1.1887   -0.0044 H   0  0  0  0  0  0  0  0  0  0  0  0
  1  5  1  0
  5  8  1  0
  1  2  1  0
  1  3  1  0
  1  4  1  0
  5  6  1  0
  5  7  1  0
  8  9  1  0
  8 10  1  0
  8 11  1  0
 12 16  1  0
 16 17  2  0
 17 19  1  0
 19 21  2  0
 21 23  1  0
 23 25  2  0
 25 16  1  0
 12 13  1  0
 12 14  1  0
 12 15  1  0
 17 18  1  0
 19 20  1  0
 21 22  1  0
 23 24  1  0
 25 26  1  0
M  CHG  1   8   1
M  END
>  <PDB_ID>  (2614) 
pdb3ugq

>  <RESIDUE_NAME>  (2614) 
LYS   PHE

>  <FRAG_NAME>  (2614) 
ETAM   MBZ

>  <FRAG_ATOM_NUM>  (2614) 
fragi: 11  fragj: 15

>  <atom.prop.CHAIN_ID>  (2614) 
A A A A A A A A A A A Z Z Z Z Z Z Z Z Z Z Z Z Z Z Z

>  <atom.prop.IS_HEAVY_ATOM>  (2614) 
1 0 0 0 1 0 0 1 0 0 0 1 0 0 0 1 1 0 1 0 1 0 1 0 1 0

>  <DIFUSE_FUNC_ATOM>  (2614) 
n/a

>  <FINAL_SINGLE_POINT_ENERGY>  (2614) 
0

>  <NONCOV_INTER_ENERGY_QM>  (2614) 
0

>  <FF_Energy>  (2614) 
-4.39

>  <QM_Energy>  (2614) 
-10.39

>  <source>  (2614) 
ETAM_MBZ

>  <Index>  (2614) 
27896

$$$$
ETAM-pdb3uip-D-LYS-2687:MBZ-pdb3uip-A-PHE-22
     RDKit          3D

 26 25  0  0  0  0  0  0  0  0999 V2000
    1.4590   -5.2704   -1.3098 C   0  0  0  0  0  0  0  0  0  0  0  0
    1.9986   -5.4805   -2.1208 H   0  0  0  0  0  0  0  0  0  0  0  0
    1.1357   -6.1128   -0.8874 H   0  0  0  0  0  0  0  0  0  0  0  0
    2.0937   -4.7445   -0.5965 H   0  0  0  0  0  0  0  0  0  0  0  0
    0.2389   -4.4441   -1.7397 C   0  0  0  0  0  0  0  0  0  0  0  0
   -0.5939   -4.9972   -1.5854 H   0  0  0  0  0  0  0  0  0  0  0  0
    0.1788   -3.6284   -1.1454 H   0  0  0  0  0  0  0  0  0  0  0  0
    0.2698   -4.0022   -3.1698 N   0  0  0  0  0  4  0  0  0  0  0  0
    0.0206   -3.0369   -3.2196 H   0  0  0  0  0  0  0  0  0  0  0  0
    1.1900   -4.1323   -3.5326 H   0  0  0  0  0  0  0  0  0  0  0  0
   -0.3810   -4.5478   -3.6947 H   0  0  0  0  0  0  0  0  0  0  0  0
   -0.0005    2.9045    0.0065 C   0  0  0  0  0  0  0  0  0  0  0  0
   -0.8009    3.2096   -0.4847 H   0  0  0  0  0  0  0  0  0  0  0  0
    0.8314    3.2110   -0.4281 H   0  0  0  0  0  0  0  0  0  0  0  0
   -0.0358    3.3375    1.0062 H   0  0  0  0  0  0  0  0  0  0  0  0
    0.0012    1.3963   -0.0001 C   0  0  0  0  0  0  0  0  0  0  0  0
   -1.1966    0.6905    0.0007 C   0  0  0  0  0  0  0  0  0  0  0  0
   -2.0623    1.1818    0.0008 H   0  0  0  0  0  0  0  0  0  0  0  0
   -1.2017   -0.7006    0.0000 C   0  0  0  0  0  0  0  0  0  0  0  0
   -2.0761   -1.1945    0.0010 H   0  0  0  0  0  0  0  0  0  0  0  0
    0.0010   -1.3889   -0.0007 C   0  0  0  0  0  0  0  0  0  0  0  0
    0.0039   -2.3881   -0.0026 H   0  0  0  0  0  0  0  0  0  0  0  0
    1.2017   -0.6871   -0.0000 C   0  0  0  0  0  0  0  0  0  0  0  0
    2.0826   -1.1904    0.0021 H   0  0  0  0  0  0  0  0  0  0  0  0
    1.1944    0.6897    0.0001 C   0  0  0  0  0  0  0  0  0  0  0  0
    2.0630    1.1935   -0.0001 H   0  0  0  0  0  0  0  0  0  0  0  0
  1  5  1  0
  5  8  1  0
  1  2  1  0
  1  3  1  0
  1  4  1  0
  5  6  1  0
  5  7  1  0
  8  9  1  0
  8 10  1  0
  8 11  1  0
 12 16  1  0
 16 17  2  0
 17 19  1  0
 19 21  2  0
 21 23  1  0
 23 25  2  0
 25 16  1  0
 12 13  1  0
 12 14  1  0
 12 15  1  0
 17 18  1  0
 19 20  1  0
 21 22  1  0
 23 24  1  0
 25 26  1  0
M  CHG  1   8   1
M  END
>  <PDB_ID>  (2615) 
pdb3uip

>  <RESIDUE_NAME>  (2615) 
LYS   PHE

>  <FRAG_NAME>  (2615) 
ETAM   MBZ

>  <FRAG_ATOM_NUM>  (2615) 
fragi: 11  fragj: 15

>  <atom.prop.CHAIN_ID>  (2615) 
A A A A A A A A A A A Z Z Z Z Z Z Z Z Z Z Z Z Z Z Z

>  <atom.prop.IS_HEAVY_ATOM>  (2615) 
1 0 0 0 1 0 0 1 0 0 0 1 0 0 0 1 1 0 1 0 1 0 1 0 1 0

>  <DIFUSE_FUNC_ATOM>  (2615) 
n/a

>  <FINAL_SINGLE_POINT_ENERGY>  (2615) 
0

>  <NONCOV_INTER_ENERGY_QM>  (2615) 
0

>  <FF_Energy>  (2615) 
7.35

>  <QM_Energy>  (2615) 
-3.12

>  <source>  (2615) 
ETAM_MBZ

>  <Index>  (2615) 
27918

$$$$
ETAM-pdb3uk0-A-LYS-179:MBZ-pdb3uk0-A-PHE-175
     RDKit          3D

 26 25  0  0  0  0  0  0  0  0999 V2000
    1.7435   -2.1324    3.0503 C   0  0  0  0  0  0  0  0  0  0  0  0
    2.0328   -2.9335    3.5784 H   0  0  0  0  0  0  0  0  0  0  0  0
    1.5160   -2.4176    2.1174 H   0  0  0  0  0  0  0  0  0  0  0  0
    0.8483   -1.7184    3.5142 H   0  0  0  0  0  0  0  0  0  0  0  0
    2.9249   -1.1504    2.9790 C   0  0  0  0  0  0  0  0  0  0  0  0
    2.5675   -0.2340    2.7637 H   0  0  0  0  0  0  0  0  0  0  0  0
    3.3661   -1.1133    3.8833 H   0  0  0  0  0  0  0  0  0  0  0  0
    3.9505   -1.5283    1.9510 N   0  0  0  0  0  4  0  0  0  0  0  0
    4.5604   -2.2164    2.3378 H   0  0  0  0  0  0  0  0  0  0  0  0
    3.4864   -1.8969    1.1485 H   0  0  0  0  0  0  0  0  0  0  0  0
    4.4722   -0.7161    1.6976 H   0  0  0  0  0  0  0  0  0  0  0  0
   -0.0461    2.8762    0.0564 C   0  0  0  0  0  0  0  0  0  0  0  0
   -0.6218    3.2040   -0.6702 H   0  0  0  0  0  0  0  0  0  0  0  0
    0.8719    3.2221   -0.0104 H   0  0  0  0  0  0  0  0  0  0  0  0
   -0.4647    3.2401    0.9948 H   0  0  0  0  0  0  0  0  0  0  0  0
    0.0006    1.3861   -0.0074 C   0  0  0  0  0  0  0  0  0  0  0  0
   -1.1836    0.6659   -0.0037 C   0  0  0  0  0  0  0  0  0  0  0  0
   -2.0580    1.1561   -0.0054 H   0  0  0  0  0  0  0  0  0  0  0  0
   -1.1846   -0.7123   -0.0000 C   0  0  0  0  0  0  0  0  0  0  0  0
   -2.0586   -1.2111    0.0180 H   0  0  0  0  0  0  0  0  0  0  0  0
    0.0091   -1.3783   -0.0194 C   0  0  0  0  0  0  0  0  0  0  0  0
    0.0206   -2.3843   -0.0479 H   0  0  0  0  0  0  0  0  0  0  0  0
    1.1846   -0.6766   -0.0000 C   0  0  0  0  0  0  0  0  0  0  0  0
    2.0808   -1.1611   -0.0061 H   0  0  0  0  0  0  0  0  0  0  0  0
    1.1739    0.7152    0.0305 C   0  0  0  0  0  0  0  0  0  0  0  0
    2.0469    1.2044    0.0796 H   0  0  0  0  0  0  0  0  0  0  0  0
  1  5  1  0
  5  8  1  0
  1  2  1  0
  1  3  1  0
  1  4  1  0
  5  6  1  0
  5  7  1  0
  8  9  1  0
  8 10  1  0
  8 11  1  0
 12 16  1  0
 16 17  2  0
 17 19  1  0
 19 21  2  0
 21 23  1  0
 23 25  2  0
 25 16  1  0
 12 13  1  0
 12 14  1  0
 12 15  1  0
 17 18  1  0
 19 20  1  0
 21 22  1  0
 23 24  1  0
 25 26  1  0
M  CHG  1   8   1
M  END
>  <PDB_ID>  (2616) 
pdb3uk0

>  <RESIDUE_NAME>  (2616) 
LYS   PHE

>  <FRAG_NAME>  (2616) 
ETAM   MBZ

>  <FRAG_ATOM_NUM>  (2616) 
fragi: 11  fragj: 15

>  <atom.prop.CHAIN_ID>  (2616) 
A A A A A A A A A A A Z Z Z Z Z Z Z Z Z Z Z Z Z Z Z

>  <atom.prop.IS_HEAVY_ATOM>  (2616) 
1 0 0 0 1 0 0 1 0 0 0 1 0 0 0 1 1 0 1 0 1 0 1 0 1 0

>  <DIFUSE_FUNC_ATOM>  (2616) 
n/a

>  <FINAL_SINGLE_POINT_ENERGY>  (2616) 
0

>  <NONCOV_INTER_ENERGY_QM>  (2616) 
0

>  <FF_Energy>  (2616) 
-0.21

>  <QM_Energy>  (2616) 
-5.58

>  <source>  (2616) 
ETAM_MBZ

>  <Index>  (2616) 
27932

$$$$
ETAM-pdb4u4c-A-LYS-904:MBZ-pdb4u4c-A-PHE-894
     RDKit          3D

 26 25  0  0  0  0  0  0  0  0999 V2000
   -5.1521    0.0866    0.4916 C   0  0  0  0  0  0  0  0  0  0  0  0
   -6.1341    0.0880    0.3138 H   0  0  0  0  0  0  0  0  0  0  0  0
   -4.7186    0.8399    0.0017 H   0  0  0  0  0  0  0  0  0  0  0  0
   -4.9912    0.2257    1.5607 H   0  0  0  0  0  0  0  0  0  0  0  0
   -4.5692   -1.2170   -0.0066 C   0  0  0  0  0  0  0  0  0  0  0  0
   -3.6352   -1.3136    0.3406 H   0  0  0  0  0  0  0  0  0  0  0  0
   -5.1279   -1.9772    0.3294 H   0  0  0  0  0  0  0  0  0  0  0  0
   -4.5410   -1.2546   -1.4950 N   0  0  0  0  0  4  0  0  0  0  0  0
   -5.3653   -0.8171   -1.8529 H   0  0  0  0  0  0  0  0  0  0  0  0
   -3.7328   -0.7665   -1.8234 H   0  0  0  0  0  0  0  0  0  0  0  0
   -4.5065   -2.2051   -1.8019 H   0  0  0  0  0  0  0  0  0  0  0  0
   -0.0121    2.8921    0.0104 C   0  0  0  0  0  0  0  0  0  0  0  0
    0.4056    3.2064   -0.8284 H   0  0  0  0  0  0  0  0  0  0  0  0
    0.4945    3.1973    0.8021 H   0  0  0  0  0  0  0  0  0  0  0  0
   -1.0117    3.3231    0.0670 H   0  0  0  0  0  0  0  0  0  0  0  0
   -0.0033    1.3918    0.0015 C   0  0  0  0  0  0  0  0  0  0  0  0
   -1.1850    0.6877    0.0028 C   0  0  0  0  0  0  0  0  0  0  0  0
   -2.0576    1.1784    0.0044 H   0  0  0  0  0  0  0  0  0  0  0  0
   -1.1866   -0.6890   -0.0000 C   0  0  0  0  0  0  0  0  0  0  0  0
   -2.0680   -1.1865    0.0040 H   0  0  0  0  0  0  0  0  0  0  0  0
    0.0026   -1.3812   -0.0055 C   0  0  0  0  0  0  0  0  0  0  0  0
   -0.0063   -2.3851   -0.0140 H   0  0  0  0  0  0  0  0  0  0  0  0
    1.1866   -0.6955   -0.0000 C   0  0  0  0  0  0  0  0  0  0  0  0
    2.0742   -1.1932    0.0051 H   0  0  0  0  0  0  0  0  0  0  0  0
    1.1857    0.6862    0.0013 C   0  0  0  0  0  0  0  0  0  0  0  0
    2.0564    1.1822    0.0015 H   0  0  0  0  0  0  0  0  0  0  0  0
  1  5  1  0
  5  8  1  0
  1  2  1  0
  1  3  1  0
  1  4  1  0
  5  6  1  0
  5  7  1  0
  8  9  1  0
  8 10  1  0
  8 11  1  0
 12 16  1  0
 16 17  2  0
 17 19  1  0
 19 21  2  0
 21 23  1  0
 23 25  2  0
 25 16  1  0
 12 13  1  0
 12 14  1  0
 12 15  1  0
 17 18  1  0
 19 20  1  0
 21 22  1  0
 23 24  1  0
 25 26  1  0
M  CHG  1   8   1
M  END
>  <PDB_ID>  (2617) 
pdb4u4c

>  <RESIDUE_NAME>  (2617) 
LYS   PHE

>  <FRAG_NAME>  (2617) 
ETAM   MBZ

>  <FRAG_ATOM_NUM>  (2617) 
fragi: 11  fragj: 15

>  <atom.prop.CHAIN_ID>  (2617) 
A A A A A A A A A A A Z Z Z Z Z Z Z Z Z Z Z Z Z Z Z

>  <atom.prop.IS_HEAVY_ATOM>  (2617) 
1 0 0 0 1 0 0 1 0 0 0 1 0 0 0 1 1 0 1 0 1 0 1 0 1 0

>  <DIFUSE_FUNC_ATOM>  (2617) 
n/a

>  <FINAL_SINGLE_POINT_ENERGY>  (2617) 
0

>  <NONCOV_INTER_ENERGY_QM>  (2617) 
0

>  <FF_Energy>  (2617) 
16.21

>  <QM_Energy>  (2617) 
-1.86

>  <source>  (2617) 
ETAM_MBZ

>  <Index>  (2617) 
27943

$$$$
ETAM-pdb3ukn-C-LYS-701:MBZ-pdb3ukn-C-PHE-646
     RDKit          3D

 26 25  0  0  0  0  0  0  0  0999 V2000
   -0.3534   -1.5244   -3.3426 C   0  0  0  0  0  0  0  0  0  0  0  0
   -0.5231   -1.8107   -2.4095 H   0  0  0  0  0  0  0  0  0  0  0  0
   -0.7805   -2.1435   -3.9873 H   0  0  0  0  0  0  0  0  0  0  0  0
   -0.7565   -0.5220   -3.4873 H   0  0  0  0  0  0  0  0  0  0  0  0
    1.1432   -1.5273   -3.5870 C   0  0  0  0  0  0  0  0  0  0  0  0
    1.3129   -1.4922   -4.5747 H   0  0  0  0  0  0  0  0  0  0  0  0
    1.5465   -0.7152   -3.1584 H   0  0  0  0  0  0  0  0  0  0  0  0
    1.7868   -2.7452   -3.0242 N   0  0  0  0  0  4  0  0  0  0  0  0
    1.0840   -3.3483   -2.6483 H   0  0  0  0  0  0  0  0  0  0  0  0
    2.2849   -3.2214   -3.7485 H   0  0  0  0  0  0  0  0  0  0  0  0
    2.4224   -2.4800   -2.2992 H   0  0  0  0  0  0  0  0  0  0  0  0
   -0.0051    2.8971    0.0038 C   0  0  0  0  0  0  0  0  0  0  0  0
    0.6723    3.2040    0.6563 H   0  0  0  0  0  0  0  0  0  0  0  0
   -0.9117    3.1982    0.2617 H   0  0  0  0  0  0  0  0  0  0  0  0
    0.2336    3.3453   -0.9607 H   0  0  0  0  0  0  0  0  0  0  0  0
    0.0010    1.3934    0.0003 C   0  0  0  0  0  0  0  0  0  0  0  0
   -1.1904    0.6868   -0.0007 C   0  0  0  0  0  0  0  0  0  0  0  0
   -2.0588    1.1782   -0.0029 H   0  0  0  0  0  0  0  0  0  0  0  0
   -1.1926   -0.6945   -0.0000 C   0  0  0  0  0  0  0  0  0  0  0  0
   -2.0727   -1.1895    0.0029 H   0  0  0  0  0  0  0  0  0  0  0  0
   -0.0022   -1.3827   -0.0014 C   0  0  0  0  0  0  0  0  0  0  0  0
   -0.0025   -2.3858   -0.0045 H   0  0  0  0  0  0  0  0  0  0  0  0
    1.1926   -0.6904    0.0000 C   0  0  0  0  0  0  0  0  0  0  0  0
    2.0754   -1.1936    0.0014 H   0  0  0  0  0  0  0  0  0  0  0  0
    1.1916    0.6873    0.0018 C   0  0  0  0  0  0  0  0  0  0  0  0
    2.0612    1.1865    0.0032 H   0  0  0  0  0  0  0  0  0  0  0  0
  1  5  1  0
  5  8  1  0
  1  2  1  0
  1  3  1  0
  1  4  1  0
  5  6  1  0
  5  7  1  0
  8  9  1  0
  8 10  1  0
  8 11  1  0
 12 16  1  0
 16 17  2  0
 17 19  1  0
 19 21  2  0
 21 23  1  0
 23 25  2  0
 25 16  1  0
 12 13  1  0
 12 14  1  0
 12 15  1  0
 17 18  1  0
 19 20  1  0
 21 22  1  0
 23 24  1  0
 25 26  1  0
M  CHG  1   8   1
M  END
>  <PDB_ID>  (2618) 
pdb3ukn

>  <RESIDUE_NAME>  (2618) 
LYS   PHE

>  <FRAG_NAME>  (2618) 
ETAM   MBZ

>  <FRAG_ATOM_NUM>  (2618) 
fragi: 11  fragj: 15

>  <atom.prop.CHAIN_ID>  (2618) 
A A A A A A A A A A A Z Z Z Z Z Z Z Z Z Z Z Z Z Z Z

>  <atom.prop.IS_HEAVY_ATOM>  (2618) 
1 0 0 0 1 0 0 1 0 0 0 1 0 0 0 1 1 0 1 0 1 0 1 0 1 0

>  <DIFUSE_FUNC_ATOM>  (2618) 
n/a

>  <FINAL_SINGLE_POINT_ENERGY>  (2618) 
0

>  <NONCOV_INTER_ENERGY_QM>  (2618) 
0

>  <FF_Energy>  (2618) 
-2.26

>  <QM_Energy>  (2618) 
-8.03

>  <source>  (2618) 
ETAM_MBZ

>  <Index>  (2618) 
27948

$$$$
ETAM-pdb4ub9-A-LYS-432:MBZ-pdb4ub9-A-PHE-169
     RDKit          3D

 26 25  0  0  0  0  0  0  0  0999 V2000
    0.6792   -1.4249    4.2878 C   0  0  0  0  0  0  0  0  0  0  0  0
    0.8234   -2.0472    3.5362 H   0  0  0  0  0  0  0  0  0  0  0  0
    0.3617   -1.8929    5.0950 H   0  0  0  0  0  0  0  0  0  0  0  0
    1.6121   -0.9081    4.5127 H   0  0  0  0  0  0  0  0  0  0  0  0
   -0.3361   -0.4001    3.8859 C   0  0  0  0  0  0  0  0  0  0  0  0
   -0.4989    0.2211    4.6416 H   0  0  0  0  0  0  0  0  0  0  0  0
   -0.0140    0.0918    3.0875 H   0  0  0  0  0  0  0  0  0  0  0  0
   -1.5897   -1.1071    3.5535 N   0  0  0  0  0  4  0  0  0  0  0  0
   -1.9875   -0.7154    2.7217 H   0  0  0  0  0  0  0  0  0  0  0  0
   -1.3992   -2.0783    3.4026 H   0  0  0  0  0  0  0  0  0  0  0  0
   -2.2417   -1.0114    4.3080 H   0  0  0  0  0  0  0  0  0  0  0  0
   -0.0105    2.8863   -0.0485 C   0  0  0  0  0  0  0  0  0  0  0  0
    0.9091    3.2049    0.1124 H   0  0  0  0  0  0  0  0  0  0  0  0
   -0.6368    3.2211    0.6367 H   0  0  0  0  0  0  0  0  0  0  0  0
   -0.3337    3.2778   -1.0130 H   0  0  0  0  0  0  0  0  0  0  0  0
   -0.0112    1.4054   -0.0055 C   0  0  0  0  0  0  0  0  0  0  0  0
   -1.2026    0.6877   -0.0084 C   0  0  0  0  0  0  0  0  0  0  0  0
   -2.0751    1.1714   -0.0180 H   0  0  0  0  0  0  0  0  0  0  0  0
   -1.2122   -0.7176   -0.0000 C   0  0  0  0  0  0  0  0  0  0  0  0
   -2.0800   -1.2063    0.0017 H   0  0  0  0  0  0  0  0  0  0  0  0
    0.0018   -1.3988    0.0083 C   0  0  0  0  0  0  0  0  0  0  0  0
    0.0163   -2.3954    0.0197 H   0  0  0  0  0  0  0  0  0  0  0  0
    1.2122   -0.6814    0.0000 C   0  0  0  0  0  0  0  0  0  0  0  0
    2.0924   -1.1871   -0.0086 H   0  0  0  0  0  0  0  0  0  0  0  0
    1.2120    0.7047    0.0056 C   0  0  0  0  0  0  0  0  0  0  0  0
    2.0639    1.2105    0.0165 H   0  0  0  0  0  0  0  0  0  0  0  0
  1  5  1  0
  5  8  1  0
  1  2  1  0
  1  3  1  0
  1  4  1  0
  5  6  1  0
  5  7  1  0
  8  9  1  0
  8 10  1  0
  8 11  1  0
 12 16  1  0
 16 17  2  0
 17 19  1  0
 19 21  2  0
 21 23  1  0
 23 25  2  0
 25 16  1  0
 12 13  1  0
 12 14  1  0
 12 15  1  0
 17 18  1  0
 19 20  1  0
 21 22  1  0
 23 24  1  0
 25 26  1  0
M  CHG  1   8   1
M  END
>  <PDB_ID>  (2619) 
pdb4ub9

>  <RESIDUE_NAME>  (2619) 
LYS   PHE

>  <FRAG_NAME>  (2619) 
ETAM   MBZ

>  <FRAG_ATOM_NUM>  (2619) 
fragi: 11  fragj: 15

>  <atom.prop.CHAIN_ID>  (2619) 
A A A A A A A A A A A Z Z Z Z Z Z Z Z Z Z Z Z Z Z Z

>  <atom.prop.IS_HEAVY_ATOM>  (2619) 
1 0 0 0 1 0 0 1 0 0 0 1 0 0 0 1 1 0 1 0 1 0 1 0 1 0

>  <DIFUSE_FUNC_ATOM>  (2619) 
n/a

>  <FINAL_SINGLE_POINT_ENERGY>  (2619) 
0

>  <NONCOV_INTER_ENERGY_QM>  (2619) 
0

>  <FF_Energy>  (2619) 
-5.8

>  <QM_Energy>  (2619) 
-12.05

>  <source>  (2619) 
ETAM_MBZ

>  <Index>  (2619) 
27976

$$$$
ETAM-pdb4ub9-B-LYS-432:MBZ-pdb4ub9-B-PHE-169
     RDKit          3D

 26 25  0  0  0  0  0  0  0  0999 V2000
    0.6893   -1.4570    4.1809 C   0  0  0  0  0  0  0  0  0  0  0  0
    0.8238   -2.0882    3.4308 H   0  0  0  0  0  0  0  0  0  0  0  0
    0.3787   -1.9297    4.9939 H   0  0  0  0  0  0  0  0  0  0  0  0
    1.6299   -0.9501    4.3965 H   0  0  0  0  0  0  0  0  0  0  0  0
   -0.3257   -0.4399    3.7885 C   0  0  0  0  0  0  0  0  0  0  0  0
   -0.4776    0.1904    4.5447 H   0  0  0  0  0  0  0  0  0  0  0  0
   -0.0074    0.0602    2.9867 H   0  0  0  0  0  0  0  0  0  0  0  0
   -1.5860   -1.1270    3.4651 N   0  0  0  0  0  4  0  0  0  0  0  0
   -2.3339   -0.4613    3.4182 H   0  0  0  0  0  0  0  0  0  0  0  0
   -1.5036   -1.5899    2.5796 H   0  0  0  0  0  0  0  0  0  0  0  0
   -1.7948   -1.8061    4.1725 H   0  0  0  0  0  0  0  0  0  0  0  0
   -0.0120    2.8809   -0.0703 C   0  0  0  0  0  0  0  0  0  0  0  0
    0.9090    3.2081    0.0829 H   0  0  0  0  0  0  0  0  0  0  0  0
   -0.6310    3.2188    0.6246 H   0  0  0  0  0  0  0  0  0  0  0  0
   -0.3479    3.2667   -1.0328 H   0  0  0  0  0  0  0  0  0  0  0  0
    0.0022    1.3975   -0.0017 C   0  0  0  0  0  0  0  0  0  0  0  0
   -1.2059    0.6968    0.0021 C   0  0  0  0  0  0  0  0  0  0  0  0
   -2.0647    1.1959    0.0049 H   0  0  0  0  0  0  0  0  0  0  0  0
   -1.2103   -0.6842   -0.0000 C   0  0  0  0  0  0  0  0  0  0  0  0
   -2.0816   -1.1873    0.0031 H   0  0  0  0  0  0  0  0  0  0  0  0
    0.0040   -1.3933   -0.0042 C   0  0  0  0  0  0  0  0  0  0  0  0
   -0.0135   -2.3901   -0.0107 H   0  0  0  0  0  0  0  0  0  0  0  0
    1.2103   -0.7050   -0.0000 C   0  0  0  0  0  0  0  0  0  0  0  0
    2.0869   -1.2004    0.0022 H   0  0  0  0  0  0  0  0  0  0  0  0
    1.1996    0.6881    0.0038 C   0  0  0  0  0  0  0  0  0  0  0  0
    2.0686    1.1860    0.0098 H   0  0  0  0  0  0  0  0  0  0  0  0
  1  5  1  0
  5  8  1  0
  1  2  1  0
  1  3  1  0
  1  4  1  0
  5  6  1  0
  5  7  1  0
  8  9  1  0
  8 10  1  0
  8 11  1  0
 12 16  1  0
 16 17  2  0
 17 19  1  0
 19 21  2  0
 21 23  1  0
 23 25  2  0
 25 16  1  0
 12 13  1  0
 12 14  1  0
 12 15  1  0
 17 18  1  0
 19 20  1  0
 21 22  1  0
 23 24  1  0
 25 26  1  0
M  CHG  1   8   1
M  END
>  <PDB_ID>  (2620) 
pdb4ub9

>  <RESIDUE_NAME>  (2620) 
LYS   PHE

>  <FRAG_NAME>  (2620) 
ETAM   MBZ

>  <FRAG_ATOM_NUM>  (2620) 
fragi: 11  fragj: 15

>  <atom.prop.CHAIN_ID>  (2620) 
A A A A A A A A A A A Z Z Z Z Z Z Z Z Z Z Z Z Z Z Z

>  <atom.prop.IS_HEAVY_ATOM>  (2620) 
1 0 0 0 1 0 0 1 0 0 0 1 0 0 0 1 1 0 1 0 1 0 1 0 1 0

>  <DIFUSE_FUNC_ATOM>  (2620) 
n/a

>  <FINAL_SINGLE_POINT_ENERGY>  (2620) 
0

>  <NONCOV_INTER_ENERGY_QM>  (2620) 
0

>  <FF_Energy>  (2620) 
-6.0

>  <QM_Energy>  (2620) 
-12.64

>  <source>  (2620) 
ETAM_MBZ

>  <Index>  (2620) 
27978

$$$$
ETAM-pdb4ub9-D-LYS-432:MBZ-pdb4ub9-D-PHE-169
     RDKit          3D

 26 25  0  0  0  0  0  0  0  0999 V2000
    0.6463   -1.4082    4.2395 C   0  0  0  0  0  0  0  0  0  0  0  0
    0.7967   -2.0383    3.4901 H   0  0  0  0  0  0  0  0  0  0  0  0
    0.3200   -1.8849    5.0445 H   0  0  0  0  0  0  0  0  0  0  0  0
    1.5807   -0.8989    4.4753 H   0  0  0  0  0  0  0  0  0  0  0  0
   -0.3809   -0.3967    3.8248 C   0  0  0  0  0  0  0  0  0  0  0  0
   -0.5514    0.2340    4.5730 H   0  0  0  0  0  0  0  0  0  0  0  0
   -0.0632    0.0936    3.0210 H   0  0  0  0  0  0  0  0  0  0  0  0
   -1.6478   -1.1072    3.4906 N   0  0  0  0  0  4  0  0  0  0  0  0
   -1.8426   -1.7860    4.1984 H   0  0  0  0  0  0  0  0  0  0  0  0
   -2.3956   -0.4459    3.4450 H   0  0  0  0  0  0  0  0  0  0  0  0
   -1.5476   -1.5623    2.6067 H   0  0  0  0  0  0  0  0  0  0  0  0
   -0.0133    2.8998   -0.0681 C   0  0  0  0  0  0  0  0  0  0  0  0
    0.9017    3.2282    0.0827 H   0  0  0  0  0  0  0  0  0  0  0  0
   -0.6455    3.2387    0.6056 H   0  0  0  0  0  0  0  0  0  0  0  0
   -0.3392    3.2726   -1.0392 H   0  0  0  0  0  0  0  0  0  0  0  0
   -0.0003    1.4093    0.0001 C   0  0  0  0  0  0  0  0  0  0  0  0
   -1.2053    0.7014   -0.0086 C   0  0  0  0  0  0  0  0  0  0  0  0
   -2.0677    1.1880   -0.0225 H   0  0  0  0  0  0  0  0  0  0  0  0
   -1.2061   -0.6993   -0.0000 C   0  0  0  0  0  0  0  0  0  0  0  0
   -2.0832   -1.1913   -0.0039 H   0  0  0  0  0  0  0  0  0  0  0  0
   -0.0006   -1.4048    0.0148 C   0  0  0  0  0  0  0  0  0  0  0  0
   -0.0058   -2.3980    0.0349 H   0  0  0  0  0  0  0  0  0  0  0  0
    1.2061   -0.7027   -0.0000 C   0  0  0  0  0  0  0  0  0  0  0  0
    2.0859   -1.2005   -0.0049 H   0  0  0  0  0  0  0  0  0  0  0  0
    1.2063    0.6962   -0.0063 C   0  0  0  0  0  0  0  0  0  0  0  0
    2.0697    1.1904   -0.0165 H   0  0  0  0  0  0  0  0  0  0  0  0
  1  5  1  0
  5  8  1  0
  1  2  1  0
  1  3  1  0
  1  4  1  0
  5  6  1  0
  5  7  1  0
  8  9  1  0
  8 10  1  0
  8 11  1  0
 12 16  1  0
 16 17  2  0
 17 19  1  0
 19 21  2  0
 21 23  1  0
 23 25  2  0
 25 16  1  0
 12 13  1  0
 12 14  1  0
 12 15  1  0
 17 18  1  0
 19 20  1  0
 21 22  1  0
 23 24  1  0
 25 26  1  0
M  CHG  1   8   1
M  END
>  <PDB_ID>  (2621) 
pdb4ub9

>  <RESIDUE_NAME>  (2621) 
LYS   PHE

>  <FRAG_NAME>  (2621) 
ETAM   MBZ

>  <FRAG_ATOM_NUM>  (2621) 
fragi: 11  fragj: 15

>  <atom.prop.CHAIN_ID>  (2621) 
A A A A A A A A A A A Z Z Z Z Z Z Z Z Z Z Z Z Z Z Z

>  <atom.prop.IS_HEAVY_ATOM>  (2621) 
1 0 0 0 1 0 0 1 0 0 0 1 0 0 0 1 1 0 1 0 1 0 1 0 1 0

>  <DIFUSE_FUNC_ATOM>  (2621) 
n/a

>  <FINAL_SINGLE_POINT_ENERGY>  (2621) 
0

>  <NONCOV_INTER_ENERGY_QM>  (2621) 
0

>  <FF_Energy>  (2621) 
-5.9

>  <QM_Energy>  (2621) 
-12.46

>  <source>  (2621) 
ETAM_MBZ

>  <Index>  (2621) 
27982

$$$$
ETAM-pdb4ub9-F-LYS-432:MBZ-pdb4ub9-F-PHE-169
     RDKit          3D

 26 25  0  0  0  0  0  0  0  0999 V2000
    0.7260   -1.4977    4.2036 C   0  0  0  0  0  0  0  0  0  0  0  0
    0.8662   -2.1197    3.4467 H   0  0  0  0  0  0  0  0  0  0  0  0
    0.4137   -1.9790    5.0093 H   0  0  0  0  0  0  0  0  0  0  0  0
    1.6633   -0.9887    4.4283 H   0  0  0  0  0  0  0  0  0  0  0  0
   -0.3152   -0.4816    3.8110 C   0  0  0  0  0  0  0  0  0  0  0  0
   -0.4602    0.1499    4.5717 H   0  0  0  0  0  0  0  0  0  0  0  0
    0.0051    0.0242    3.0110 H   0  0  0  0  0  0  0  0  0  0  0  0
   -1.5846   -1.1595    3.4868 N   0  0  0  0  0  4  0  0  0  0  0  0
   -1.6282   -1.3442    2.5030 H   0  0  0  0  0  0  0  0  0  0  0  0
   -1.6435   -2.0252    3.9875 H   0  0  0  0  0  0  0  0  0  0  0  0
   -2.3553   -0.5755    3.7471 H   0  0  0  0  0  0  0  0  0  0  0  0
   -0.0129    2.8911   -0.0426 C   0  0  0  0  0  0  0  0  0  0  0  0
    0.9088    3.2113    0.1057 H   0  0  0  0  0  0  0  0  0  0  0  0
   -0.6274    3.2139    0.6595 H   0  0  0  0  0  0  0  0  0  0  0  0
   -0.3573    3.2834   -0.9995 H   0  0  0  0  0  0  0  0  0  0  0  0
    0.0014    1.3982    0.0026 C   0  0  0  0  0  0  0  0  0  0  0  0
   -1.2038    0.6841   -0.0039 C   0  0  0  0  0  0  0  0  0  0  0  0
   -2.0667    1.1791   -0.0119 H   0  0  0  0  0  0  0  0  0  0  0  0
   -1.2090   -0.7043   -0.0000 C   0  0  0  0  0  0  0  0  0  0  0  0
   -2.0788   -1.2019   -0.0000 H   0  0  0  0  0  0  0  0  0  0  0  0
    0.0005   -1.3920    0.0054 C   0  0  0  0  0  0  0  0  0  0  0  0
    0.0060   -2.3908    0.0132 H   0  0  0  0  0  0  0  0  0  0  0  0
    1.2090   -0.6867   -0.0000 C   0  0  0  0  0  0  0  0  0  0  0  0
    2.0872   -1.1883    0.0007 H   0  0  0  0  0  0  0  0  0  0  0  0
    1.2019    0.7007   -0.0042 C   0  0  0  0  0  0  0  0  0  0  0  0
    2.0655    1.2015   -0.0129 H   0  0  0  0  0  0  0  0  0  0  0  0
  1  5  1  0
  5  8  1  0
  1  2  1  0
  1  3  1  0
  1  4  1  0
  5  6  1  0
  5  7  1  0
  8  9  1  0
  8 10  1  0
  8 11  1  0
 12 16  1  0
 16 17  2  0
 17 19  1  0
 19 21  2  0
 21 23  1  0
 23 25  2  0
 25 16  1  0
 12 13  1  0
 12 14  1  0
 12 15  1  0
 17 18  1  0
 19 20  1  0
 21 22  1  0
 23 24  1  0
 25 26  1  0
M  CHG  1   8   1
M  END
>  <PDB_ID>  (2622) 
pdb4ub9

>  <RESIDUE_NAME>  (2622) 
LYS   PHE

>  <FRAG_NAME>  (2622) 
ETAM   MBZ

>  <FRAG_ATOM_NUM>  (2622) 
fragi: 11  fragj: 15

>  <atom.prop.CHAIN_ID>  (2622) 
A A A A A A A A A A A Z Z Z Z Z Z Z Z Z Z Z Z Z Z Z

>  <atom.prop.IS_HEAVY_ATOM>  (2622) 
1 0 0 0 1 0 0 1 0 0 0 1 0 0 0 1 1 0 1 0 1 0 1 0 1 0

>  <DIFUSE_FUNC_ATOM>  (2622) 
n/a

>  <FINAL_SINGLE_POINT_ENERGY>  (2622) 
0

>  <NONCOV_INTER_ENERGY_QM>  (2622) 
0

>  <FF_Energy>  (2622) 
-6.03

>  <QM_Energy>  (2622) 
-12.89

>  <source>  (2622) 
ETAM_MBZ

>  <Index>  (2622) 
27987

$$$$
ETAM-pdb4udg-A-LYS-158:MBZ-pdb4udg-A-PHE-163
     RDKit          3D

 26 25  0  0  0  0  0  0  0  0999 V2000
   -0.0220   -0.3676   -4.6706 C   0  0  0  0  0  0  0  0  0  0  0  0
   -0.1135   -0.8269   -5.5371 H   0  0  0  0  0  0  0  0  0  0  0  0
    0.7666    0.2217   -4.6458 H   0  0  0  0  0  0  0  0  0  0  0  0
   -0.9077    0.2507   -4.5246 H   0  0  0  0  0  0  0  0  0  0  0  0
    0.0248   -1.3363   -3.5778 C   0  0  0  0  0  0  0  0  0  0  0  0
    0.0234   -0.8620   -2.6883 H   0  0  0  0  0  0  0  0  0  0  0  0
   -0.7798   -1.9430   -3.6116 H   0  0  0  0  0  0  0  0  0  0  0  0
    1.2455   -2.1756   -3.6570 N   0  0  0  0  0  4  0  0  0  0  0  0
    1.5554   -2.4026   -2.7333 H   0  0  0  0  0  0  0  0  0  0  0  0
    1.0397   -3.0182   -4.1562 H   0  0  0  0  0  0  0  0  0  0  0  0
    1.9658   -1.6728   -4.1351 H   0  0  0  0  0  0  0  0  0  0  0  0
   -0.0167    2.9097    0.0075 C   0  0  0  0  0  0  0  0  0  0  0  0
    0.8447    3.2184    0.3869 H   0  0  0  0  0  0  0  0  0  0  0  0
   -0.7782    3.1983    0.5715 H   0  0  0  0  0  0  0  0  0  0  0  0
   -0.1343    3.3675   -0.9747 H   0  0  0  0  0  0  0  0  0  0  0  0
    0.0003    1.3985   -0.0045 C   0  0  0  0  0  0  0  0  0  0  0  0
   -1.1895    0.6923   -0.0054 C   0  0  0  0  0  0  0  0  0  0  0  0
   -2.0574    1.1912   -0.0116 H   0  0  0  0  0  0  0  0  0  0  0  0
   -1.1949   -0.6773    0.0000 C   0  0  0  0  0  0  0  0  0  0  0  0
   -2.0766   -1.1783    0.0054 H   0  0  0  0  0  0  0  0  0  0  0  0
   -0.0002   -1.3930   -0.0004 C   0  0  0  0  0  0  0  0  0  0  0  0
   -0.0287   -2.3940   -0.0013 H   0  0  0  0  0  0  0  0  0  0  0  0
    1.1949   -0.7224   -0.0000 C   0  0  0  0  0  0  0  0  0  0  0  0
    2.0771   -1.2004   -0.0051 H   0  0  0  0  0  0  0  0  0  0  0  0
    1.1894    0.7019    0.0102 C   0  0  0  0  0  0  0  0  0  0  0  0
    2.0622    1.1794    0.0277 H   0  0  0  0  0  0  0  0  0  0  0  0
  1  5  1  0
  5  8  1  0
  1  2  1  0
  1  3  1  0
  1  4  1  0
  5  6  1  0
  5  7  1  0
  8  9  1  0
  8 10  1  0
  8 11  1  0
 12 16  1  0
 16 17  2  0
 17 19  1  0
 19 21  2  0
 21 23  1  0
 23 25  2  0
 25 16  1  0
 12 13  1  0
 12 14  1  0
 12 15  1  0
 17 18  1  0
 19 20  1  0
 21 22  1  0
 23 24  1  0
 25 26  1  0
M  CHG  1   8   1
M  END
>  <PDB_ID>  (2623) 
pdb4udg

>  <RESIDUE_NAME>  (2623) 
LYS   PHE

>  <FRAG_NAME>  (2623) 
ETAM   MBZ

>  <FRAG_ATOM_NUM>  (2623) 
fragi: 11  fragj: 15

>  <atom.prop.CHAIN_ID>  (2623) 
A A A A A A A A A A A Z Z Z Z Z Z Z Z Z Z Z Z Z Z Z

>  <atom.prop.IS_HEAVY_ATOM>  (2623) 
1 0 0 0 1 0 0 1 0 0 0 1 0 0 0 1 1 0 1 0 1 0 1 0 1 0

>  <DIFUSE_FUNC_ATOM>  (2623) 
n/a

>  <FINAL_SINGLE_POINT_ENERGY>  (2623) 
0

>  <NONCOV_INTER_ENERGY_QM>  (2623) 
0

>  <FF_Energy>  (2623) 
-4.27

>  <QM_Energy>  (2623) 
-9.52

>  <source>  (2623) 
ETAM_MBZ

>  <Index>  (2623) 
28006

$$$$
ETAM-pdb4udg-C-LYS-158:MBZ-pdb4udg-C-PHE-163
     RDKit          3D

 26 25  0  0  0  0  0  0  0  0999 V2000
    0.0478   -0.1631   -4.6371 C   0  0  0  0  0  0  0  0  0  0  0  0
    0.0522   -0.6897   -5.4595 H   0  0  0  0  0  0  0  0  0  0  0  0
    0.7768    0.4835   -4.5842 H   0  0  0  0  0  0  0  0  0  0  0  0
   -0.9044    0.3604   -4.5514 H   0  0  0  0  0  0  0  0  0  0  0  0
    0.1434   -1.1092   -3.4474 C   0  0  0  0  0  0  0  0  0  0  0  0
    0.0851   -0.5801   -2.6046 H   0  0  0  0  0  0  0  0  0  0  0  0
   -0.6063   -1.7650   -3.4909 H   0  0  0  0  0  0  0  0  0  0  0  0
    1.4443   -1.8495   -3.4728 N   0  0  0  0  0  4  0  0  0  0  0  0
    2.0951   -1.3469   -4.0385 H   0  0  0  0  0  0  0  0  0  0  0  0
    1.7949   -1.9278   -2.5412 H   0  0  0  0  0  0  0  0  0  0  0  0
    1.2959   -2.7593   -3.8550 H   0  0  0  0  0  0  0  0  0  0  0  0
    0.0348    2.8972   -0.0349 C   0  0  0  0  0  0  0  0  0  0  0  0
    0.9240    3.1943    0.2895 H   0  0  0  0  0  0  0  0  0  0  0  0
   -0.6847    3.2174    0.5693 H   0  0  0  0  0  0  0  0  0  0  0  0
   -0.1291    3.3462   -1.0145 H   0  0  0  0  0  0  0  0  0  0  0  0
    0.0145    1.3993   -0.0273 C   0  0  0  0  0  0  0  0  0  0  0  0
   -1.2013    0.7153   -0.0135 C   0  0  0  0  0  0  0  0  0  0  0  0
   -2.0524    1.2105   -0.0150 H   0  0  0  0  0  0  0  0  0  0  0  0
   -1.1973   -0.6708    0.0000 C   0  0  0  0  0  0  0  0  0  0  0  0
   -2.0940   -1.1577   -0.0221 H   0  0  0  0  0  0  0  0  0  0  0  0
   -0.0325   -1.3712    0.0430 C   0  0  0  0  0  0  0  0  0  0  0  0
   -0.0589   -2.3858    0.1084 H   0  0  0  0  0  0  0  0  0  0  0  0
    1.1973   -0.7392    0.0000 C   0  0  0  0  0  0  0  0  0  0  0  0
    2.0527   -1.2514   -0.0275 H   0  0  0  0  0  0  0  0  0  0  0  0
    1.2193    0.6666   -0.0022 C   0  0  0  0  0  0  0  0  0  0  0  0
    2.0867    1.1473    0.0132 H   0  0  0  0  0  0  0  0  0  0  0  0
  1  5  1  0
  5  8  1  0
  1  2  1  0
  1  3  1  0
  1  4  1  0
  5  6  1  0
  5  7  1  0
  8  9  1  0
  8 10  1  0
  8 11  1  0
 12 16  1  0
 16 17  2  0
 17 19  1  0
 19 21  2  0
 21 23  1  0
 23 25  2  0
 25 16  1  0
 12 13  1  0
 12 14  1  0
 12 15  1  0
 17 18  1  0
 19 20  1  0
 21 22  1  0
 23 24  1  0
 25 26  1  0
M  CHG  1   8   1
M  END
>  <PDB_ID>  (2624) 
pdb4udg

>  <RESIDUE_NAME>  (2624) 
LYS   PHE

>  <FRAG_NAME>  (2624) 
ETAM   MBZ

>  <FRAG_ATOM_NUM>  (2624) 
fragi: 11  fragj: 15

>  <atom.prop.CHAIN_ID>  (2624) 
A A A A A A A A A A A Z Z Z Z Z Z Z Z Z Z Z Z Z Z Z

>  <atom.prop.IS_HEAVY_ATOM>  (2624) 
1 0 0 0 1 0 0 1 0 0 0 1 0 0 0 1 1 0 1 0 1 0 1 0 1 0

>  <DIFUSE_FUNC_ATOM>  (2624) 
n/a

>  <FINAL_SINGLE_POINT_ENERGY>  (2624) 
0

>  <NONCOV_INTER_ENERGY_QM>  (2624) 
0

>  <FF_Energy>  (2624) 
-4.86

>  <QM_Energy>  (2624) 
-10.99

>  <source>  (2624) 
ETAM_MBZ

>  <Index>  (2624) 
28008

$$$$
ETAM-pdb4udg-D-LYS-158:MBZ-pdb4udg-D-PHE-163
     RDKit          3D

 26 25  0  0  0  0  0  0  0  0999 V2000
    0.2986   -0.3242   -4.7457 C   0  0  0  0  0  0  0  0  0  0  0  0
    0.1830   -0.8450   -5.5731 H   0  0  0  0  0  0  0  0  0  0  0  0
    1.1102    0.2316   -4.7682 H   0  0  0  0  0  0  0  0  0  0  0  0
   -0.5699    0.3196   -4.6073 H   0  0  0  0  0  0  0  0  0  0  0  0
    0.4015   -1.2930   -3.5682 C   0  0  0  0  0  0  0  0  0  0  0  0
    0.3634   -0.7653   -2.7113 H   0  0  0  0  0  0  0  0  0  0  0  0
   -0.3888   -1.9166   -3.5917 H   0  0  0  0  0  0  0  0  0  0  0  0
    1.6601   -2.1027   -3.5853 N   0  0  0  0  0  4  0  0  0  0  0  0
    1.4452   -3.0358   -3.8656 H   0  0  0  0  0  0  0  0  0  0  0  0
    2.3030   -1.6953   -4.2312 H   0  0  0  0  0  0  0  0  0  0  0  0
    2.0581   -2.1082   -2.6701 H   0  0  0  0  0  0  0  0  0  0  0  0
   -0.0390    2.8808    0.0544 C   0  0  0  0  0  0  0  0  0  0  0  0
    0.7986    3.1887    0.4921 H   0  0  0  0  0  0  0  0  0  0  0  0
   -0.8312    3.1423    0.5947 H   0  0  0  0  0  0  0  0  0  0  0  0
   -0.1138    3.3756   -0.9139 H   0  0  0  0  0  0  0  0  0  0  0  0
   -0.0007    1.3837   -0.0099 C   0  0  0  0  0  0  0  0  0  0  0  0
   -1.1803    0.6706    0.0034 C   0  0  0  0  0  0  0  0  0  0  0  0
   -2.0549    1.1717    0.0146 H   0  0  0  0  0  0  0  0  0  0  0  0
   -1.1940   -0.6941   -0.0000 C   0  0  0  0  0  0  0  0  0  0  0  0
   -2.0814   -1.1842    0.0065 H   0  0  0  0  0  0  0  0  0  0  0  0
   -0.0250   -1.3711   -0.0103 C   0  0  0  0  0  0  0  0  0  0  0  0
   -0.0168   -2.3820   -0.0260 H   0  0  0  0  0  0  0  0  0  0  0  0
    1.1940   -0.6934    0.0000 C   0  0  0  0  0  0  0  0  0  0  0  0
    2.0640   -1.2014   -0.0031 H   0  0  0  0  0  0  0  0  0  0  0  0
    1.2060    0.7044    0.0168 C   0  0  0  0  0  0  0  0  0  0  0  0
    2.0623    1.1924    0.0467 H   0  0  0  0  0  0  0  0  0  0  0  0
  1  5  1  0
  5  8  1  0
  1  2  1  0
  1  3  1  0
  1  4  1  0
  5  6  1  0
  5  7  1  0
  8  9  1  0
  8 10  1  0
  8 11  1  0
 12 16  1  0
 16 17  2  0
 17 19  1  0
 19 21  2  0
 21 23  1  0
 23 25  2  0
 25 16  1  0
 12 13  1  0
 12 14  1  0
 12 15  1  0
 17 18  1  0
 19 20  1  0
 21 22  1  0
 23 24  1  0
 25 26  1  0
M  CHG  1   8   1
M  END
>  <PDB_ID>  (2625) 
pdb4udg

>  <RESIDUE_NAME>  (2625) 
LYS   PHE

>  <FRAG_NAME>  (2625) 
ETAM   MBZ

>  <FRAG_ATOM_NUM>  (2625) 
fragi: 11  fragj: 15

>  <atom.prop.CHAIN_ID>  (2625) 
A A A A A A A A A A A Z Z Z Z Z Z Z Z Z Z Z Z Z Z Z

>  <atom.prop.IS_HEAVY_ATOM>  (2625) 
1 0 0 0 1 0 0 1 0 0 0 1 0 0 0 1 1 0 1 0 1 0 1 0 1 0

>  <DIFUSE_FUNC_ATOM>  (2625) 
n/a

>  <FINAL_SINGLE_POINT_ENERGY>  (2625) 
0

>  <NONCOV_INTER_ENERGY_QM>  (2625) 
0

>  <FF_Energy>  (2625) 
-4.09

>  <QM_Energy>  (2625) 
-9.16

>  <source>  (2625) 
ETAM_MBZ

>  <Index>  (2625) 
28009

$$$$
ETAM-pdb3ujz-A-LYS-512:MBZ-pdb3ujz-A-PHE-515
     RDKit          3D

 26 25  0  0  0  0  0  0  0  0999 V2000
    5.6197   -2.6893   -2.4192 C   0  0  0  0  0  0  0  0  0  0  0  0
    5.7077   -3.6875   -2.3031 H   0  0  0  0  0  0  0  0  0  0  0  0
    6.5422   -2.2854   -2.3784 H   0  0  0  0  0  0  0  0  0  0  0  0
    5.1869   -2.4851   -3.3986 H   0  0  0  0  0  0  0  0  0  0  0  0
    4.8113   -2.1456   -1.2643 C   0  0  0  0  0  0  0  0  0  0  0  0
    5.3814   -2.1518   -0.4338 H   0  0  0  0  0  0  0  0  0  0  0  0
    4.5549   -1.1910   -1.4632 H   0  0  0  0  0  0  0  0  0  0  0  0
    3.5807   -2.9348   -1.0129 N   0  0  0  0  0  4  0  0  0  0  0  0
    3.1218   -2.5873   -0.1947 H   0  0  0  0  0  0  0  0  0  0  0  0
    2.9663   -2.8543   -1.7984 H   0  0  0  0  0  0  0  0  0  0  0  0
    3.8226   -3.8959   -0.8759 H   0  0  0  0  0  0  0  0  0  0  0  0
    0.0050    2.9151   -0.0481 C   0  0  0  0  0  0  0  0  0  0  0  0
    0.9040    3.2234    0.2984 H   0  0  0  0  0  0  0  0  0  0  0  0
   -0.7002    3.2377    0.6018 H   0  0  0  0  0  0  0  0  0  0  0  0
   -0.1696    3.4284   -0.9937 H   0  0  0  0  0  0  0  0  0  0  0  0
   -0.0007    1.4052   -0.0076 C   0  0  0  0  0  0  0  0  0  0  0  0
   -1.1933    0.6990   -0.0144 C   0  0  0  0  0  0  0  0  0  0  0  0
   -2.0617    1.1849   -0.0308 H   0  0  0  0  0  0  0  0  0  0  0  0
   -1.1953   -0.6943    0.0000 C   0  0  0  0  0  0  0  0  0  0  0  0
   -2.0767   -1.1842    0.0049 H   0  0  0  0  0  0  0  0  0  0  0  0
   -0.0028   -1.3894    0.0098 C   0  0  0  0  0  0  0  0  0  0  0  0
   -0.0137   -2.3933    0.0238 H   0  0  0  0  0  0  0  0  0  0  0  0
    1.1953   -0.7090   -0.0000 C   0  0  0  0  0  0  0  0  0  0  0  0
    2.0763   -1.2050   -0.0145 H   0  0  0  0  0  0  0  0  0  0  0  0
    1.1968    0.6886    0.0122 C   0  0  0  0  0  0  0  0  0  0  0  0
    2.0654    1.1798    0.0345 H   0  0  0  0  0  0  0  0  0  0  0  0
  1  5  1  0
  5  8  1  0
  1  2  1  0
  1  3  1  0
  1  4  1  0
  5  6  1  0
  5  7  1  0
  8  9  1  0
  8 10  1  0
  8 11  1  0
 12 16  1  0
 16 17  2  0
 17 19  1  0
 19 21  2  0
 21 23  1  0
 23 25  2  0
 25 16  1  0
 12 13  1  0
 12 14  1  0
 12 15  1  0
 17 18  1  0
 19 20  1  0
 21 22  1  0
 23 24  1  0
 25 26  1  0
M  CHG  1   8   1
M  END
>  <PDB_ID>  (2626) 
pdb3ujz

>  <RESIDUE_NAME>  (2626) 
LYS   PHE

>  <FRAG_NAME>  (2626) 
ETAM   MBZ

>  <FRAG_ATOM_NUM>  (2626) 
fragi: 11  fragj: 15

>  <atom.prop.CHAIN_ID>  (2626) 
A A A A A A A A A A A Z Z Z Z Z Z Z Z Z Z Z Z Z Z Z

>  <atom.prop.IS_HEAVY_ATOM>  (2626) 
1 0 0 0 1 0 0 1 0 0 0 1 0 0 0 1 1 0 1 0 1 0 1 0 1 0

>  <DIFUSE_FUNC_ATOM>  (2626) 
n/a

>  <FINAL_SINGLE_POINT_ENERGY>  (2626) 
0

>  <NONCOV_INTER_ENERGY_QM>  (2626) 
0

>  <FF_Energy>  (2626) 
2.25

>  <QM_Energy>  (2626) 
-2.88

>  <source>  (2626) 
ETAM_MBZ

>  <Index>  (2626) 
28013

$$$$
ETAM-pdb3uom-B-LYS-147:MBZ-pdb3uom-B-PHE-139
     RDKit          3D

 26 25  0  0  0  0  0  0  0  0999 V2000
   -1.7673   -1.7049    3.4412 C   0  0  0  0  0  0  0  0  0  0  0  0
   -1.9023   -1.4064    2.5041 H   0  0  0  0  0  0  0  0  0  0  0  0
   -2.0498   -0.9984    4.0784 H   0  0  0  0  0  0  0  0  0  0  0  0
   -2.3773   -2.5918    3.6129 H   0  0  0  0  0  0  0  0  0  0  0  0
   -0.2831   -1.9927    3.6553 C   0  0  0  0  0  0  0  0  0  0  0  0
   -0.1626   -2.3840    4.5687 H   0  0  0  0  0  0  0  0  0  0  0  0
    0.0160   -2.6576    2.9683 H   0  0  0  0  0  0  0  0  0  0  0  0
    0.5196   -0.7588    3.5342 N   0  0  0  0  0  4  0  0  0  0  0  0
    0.0393    0.0003    3.9757 H   0  0  0  0  0  0  0  0  0  0  0  0
    1.4079   -0.8903    3.9768 H   0  0  0  0  0  0  0  0  0  0  0  0
    0.6607   -0.5422    2.5666 H   0  0  0  0  0  0  0  0  0  0  0  0
    0.0137    2.9175   -0.0139 C   0  0  0  0  0  0  0  0  0  0  0  0
   -0.7335    3.2148   -0.5876 H   0  0  0  0  0  0  0  0  0  0  0  0
    0.8850    3.2075   -0.3769 H   0  0  0  0  0  0  0  0  0  0  0  0
   -0.1119    3.3750    0.9674 H   0  0  0  0  0  0  0  0  0  0  0  0
    0.0051    1.3987    0.0035 C   0  0  0  0  0  0  0  0  0  0  0  0
   -1.1923    0.6991   -0.0032 C   0  0  0  0  0  0  0  0  0  0  0  0
   -2.0568    1.1923   -0.0117 H   0  0  0  0  0  0  0  0  0  0  0  0
   -1.2017   -0.6912    0.0000 C   0  0  0  0  0  0  0  0  0  0  0  0
   -2.0849   -1.1785    0.0000 H   0  0  0  0  0  0  0  0  0  0  0  0
   -0.0118   -1.3889    0.0050 C   0  0  0  0  0  0  0  0  0  0  0  0
   -0.0151   -2.3890    0.0118 H   0  0  0  0  0  0  0  0  0  0  0  0
    1.2017   -0.6996    0.0000 C   0  0  0  0  0  0  0  0  0  0  0  0
    2.0744   -1.2074    0.0018 H   0  0  0  0  0  0  0  0  0  0  0  0
    1.1990    0.6819   -0.0053 C   0  0  0  0  0  0  0  0  0  0  0  0
    2.0694    1.1812   -0.0164 H   0  0  0  0  0  0  0  0  0  0  0  0
  1  5  1  0
  5  8  1  0
  1  2  1  0
  1  3  1  0
  1  4  1  0
  5  6  1  0
  5  7  1  0
  8  9  1  0
  8 10  1  0
  8 11  1  0
 12 16  1  0
 16 17  2  0
 17 19  1  0
 19 21  2  0
 21 23  1  0
 23 25  2  0
 25 16  1  0
 12 13  1  0
 12 14  1  0
 12 15  1  0
 17 18  1  0
 19 20  1  0
 21 22  1  0
 23 24  1  0
 25 26  1  0
M  CHG  1   8   1
M  END
>  <PDB_ID>  (2627) 
pdb3uom

>  <RESIDUE_NAME>  (2627) 
LYS   PHE

>  <FRAG_NAME>  (2627) 
ETAM   MBZ

>  <FRAG_ATOM_NUM>  (2627) 
fragi: 11  fragj: 15

>  <atom.prop.CHAIN_ID>  (2627) 
A A A A A A A A A A A Z Z Z Z Z Z Z Z Z Z Z Z Z Z Z

>  <atom.prop.IS_HEAVY_ATOM>  (2627) 
1 0 0 0 1 0 0 1 0 0 0 1 0 0 0 1 1 0 1 0 1 0 1 0 1 0

>  <DIFUSE_FUNC_ATOM>  (2627) 
n/a

>  <FINAL_SINGLE_POINT_ENERGY>  (2627) 
0

>  <NONCOV_INTER_ENERGY_QM>  (2627) 
0

>  <FF_Energy>  (2627) 
-7.66

>  <QM_Energy>  (2627) 
-14.73

>  <source>  (2627) 
ETAM_MBZ

>  <Index>  (2627) 
28028

$$$$
ETAM-pdb3uom-C-LYS-147:MBZ-pdb3uom-C-PHE-139
     RDKit          3D

 26 25  0  0  0  0  0  0  0  0999 V2000
   -1.8603   -1.6186    3.4591 C   0  0  0  0  0  0  0  0  0  0  0  0
   -1.9252   -1.3527    2.5014 H   0  0  0  0  0  0  0  0  0  0  0  0
   -2.1647   -0.8721    4.0436 H   0  0  0  0  0  0  0  0  0  0  0  0
   -2.5124   -2.4764    3.6240 H   0  0  0  0  0  0  0  0  0  0  0  0
   -0.3908   -1.9221    3.7826 C   0  0  0  0  0  0  0  0  0  0  0  0
   -0.3204   -2.1859    4.7371 H   0  0  0  0  0  0  0  0  0  0  0  0
   -0.0786   -2.6572    3.1935 H   0  0  0  0  0  0  0  0  0  0  0  0
    0.4429   -0.7040    3.5411 N   0  0  0  0  0  4  0  0  0  0  0  0
   -0.0837    0.1081    3.7867 H   0  0  0  0  0  0  0  0  0  0  0  0
    1.2670   -0.7541    4.1022 H   0  0  0  0  0  0  0  0  0  0  0  0
    0.6935   -0.6641    2.5755 H   0  0  0  0  0  0  0  0  0  0  0  0
    0.0148    2.9157   -0.0134 C   0  0  0  0  0  0  0  0  0  0  0  0
   -0.7473    3.2127   -0.5693 H   0  0  0  0  0  0  0  0  0  0  0  0
    0.8771    3.2072   -0.4000 H   0  0  0  0  0  0  0  0  0  0  0  0
   -0.0857    3.3790    0.9680 H   0  0  0  0  0  0  0  0  0  0  0  0
    0.0076    1.4000    0.0081 C   0  0  0  0  0  0  0  0  0  0  0  0
   -1.1970    0.6926   -0.0125 C   0  0  0  0  0  0  0  0  0  0  0  0
   -2.0582    1.1871   -0.0379 H   0  0  0  0  0  0  0  0  0  0  0  0
   -1.2013   -0.6954    0.0000 C   0  0  0  0  0  0  0  0  0  0  0  0
   -2.0826   -1.1864    0.0095 H   0  0  0  0  0  0  0  0  0  0  0  0
   -0.0099   -1.3885    0.0016 C   0  0  0  0  0  0  0  0  0  0  0  0
   -0.0107   -2.3903    0.0030 H   0  0  0  0  0  0  0  0  0  0  0  0
    1.2013   -0.6976    0.0000 C   0  0  0  0  0  0  0  0  0  0  0  0
    2.0760   -1.2026   -0.0016 H   0  0  0  0  0  0  0  0  0  0  0  0
    1.1993    0.6888    0.0029 C   0  0  0  0  0  0  0  0  0  0  0  0
    2.0700    1.1842    0.0007 H   0  0  0  0  0  0  0  0  0  0  0  0
  1  5  1  0
  5  8  1  0
  1  2  1  0
  1  3  1  0
  1  4  1  0
  5  6  1  0
  5  7  1  0
  8  9  1  0
  8 10  1  0
  8 11  1  0
 12 16  1  0
 16 17  2  0
 17 19  1  0
 19 21  2  0
 21 23  1  0
 23 25  2  0
 25 16  1  0
 12 13  1  0
 12 14  1  0
 12 15  1  0
 17 18  1  0
 19 20  1  0
 21 22  1  0
 23 24  1  0
 25 26  1  0
M  CHG  1   8   1
M  END
>  <PDB_ID>  (2628) 
pdb3uom

>  <RESIDUE_NAME>  (2628) 
LYS   PHE

>  <FRAG_NAME>  (2628) 
ETAM   MBZ

>  <FRAG_ATOM_NUM>  (2628) 
fragi: 11  fragj: 15

>  <atom.prop.CHAIN_ID>  (2628) 
A A A A A A A A A A A Z Z Z Z Z Z Z Z Z Z Z Z Z Z Z

>  <atom.prop.IS_HEAVY_ATOM>  (2628) 
1 0 0 0 1 0 0 1 0 0 0 1 0 0 0 1 1 0 1 0 1 0 1 0 1 0

>  <DIFUSE_FUNC_ATOM>  (2628) 
n/a

>  <FINAL_SINGLE_POINT_ENERGY>  (2628) 
0

>  <NONCOV_INTER_ENERGY_QM>  (2628) 
0

>  <FF_Energy>  (2628) 
-7.65

>  <QM_Energy>  (2628) 
-14.65

>  <source>  (2628) 
ETAM_MBZ

>  <Index>  (2628) 
28031

$$$$
ETAM-pdb3uom-D-LYS-147:MBZ-pdb3uom-D-PHE-139
     RDKit          3D

 26 25  0  0  0  0  0  0  0  0999 V2000
   -1.8450   -1.7357    3.4388 C   0  0  0  0  0  0  0  0  0  0  0  0
   -1.9774   -1.3992    2.5144 H   0  0  0  0  0  0  0  0  0  0  0  0
   -2.1161   -1.0500    4.1030 H   0  0  0  0  0  0  0  0  0  0  0  0
   -2.4582   -2.6257    3.5804 H   0  0  0  0  0  0  0  0  0  0  0  0
   -0.3441   -2.0309    3.6351 C   0  0  0  0  0  0  0  0  0  0  0  0
   -0.2211   -2.4503    4.5307 H   0  0  0  0  0  0  0  0  0  0  0  0
   -0.0516   -2.6618    2.9211 H   0  0  0  0  0  0  0  0  0  0  0  0
    0.4510   -0.7792    3.5545 N   0  0  0  0  0  4  0  0  0  0  0  0
    1.3275   -0.9107    4.0169 H   0  0  0  0  0  0  0  0  0  0  0  0
    0.6115   -0.5479    2.5949 H   0  0  0  0  0  0  0  0  0  0  0  0
   -0.0519   -0.0362    3.9964 H   0  0  0  0  0  0  0  0  0  0  0  0
    0.0101    2.9213   -0.0154 C   0  0  0  0  0  0  0  0  0  0  0  0
   -0.7513    3.2188   -0.5681 H   0  0  0  0  0  0  0  0  0  0  0  0
    0.8731    3.2158   -0.3941 H   0  0  0  0  0  0  0  0  0  0  0  0
   -0.0949    3.3749    0.9702 H   0  0  0  0  0  0  0  0  0  0  0  0
    0.0059    1.4018   -0.0013 C   0  0  0  0  0  0  0  0  0  0  0  0
   -1.1919    0.6926   -0.0056 C   0  0  0  0  0  0  0  0  0  0  0  0
   -2.0583    1.1863   -0.0143 H   0  0  0  0  0  0  0  0  0  0  0  0
   -1.1986   -0.6937   -0.0000 C   0  0  0  0  0  0  0  0  0  0  0  0
   -2.0825   -1.1836   -0.0005 H   0  0  0  0  0  0  0  0  0  0  0  0
   -0.0113   -1.3896    0.0075 C   0  0  0  0  0  0  0  0  0  0  0  0
   -0.0140   -2.3911    0.0179 H   0  0  0  0  0  0  0  0  0  0  0  0
    1.1986   -0.7017    0.0000 C   0  0  0  0  0  0  0  0  0  0  0  0
    2.0741   -1.2027   -0.0032 H   0  0  0  0  0  0  0  0  0  0  0  0
    1.1973    0.6907   -0.0006 C   0  0  0  0  0  0  0  0  0  0  0  0
    2.0684    1.1824   -0.0013 H   0  0  0  0  0  0  0  0  0  0  0  0
  1  5  1  0
  5  8  1  0
  1  2  1  0
  1  3  1  0
  1  4  1  0
  5  6  1  0
  5  7  1  0
  8  9  1  0
  8 10  1  0
  8 11  1  0
 12 16  1  0
 16 17  2  0
 17 19  1  0
 19 21  2  0
 21 23  1  0
 23 25  2  0
 25 16  1  0
 12 13  1  0
 12 14  1  0
 12 15  1  0
 17 18  1  0
 19 20  1  0
 21 22  1  0
 23 24  1  0
 25 26  1  0
M  CHG  1   8   1
M  END
>  <PDB_ID>  (2629) 
pdb3uom

>  <RESIDUE_NAME>  (2629) 
LYS   PHE

>  <FRAG_NAME>  (2629) 
ETAM   MBZ

>  <FRAG_ATOM_NUM>  (2629) 
fragi: 11  fragj: 15

>  <atom.prop.CHAIN_ID>  (2629) 
A A A A A A A A A A A Z Z Z Z Z Z Z Z Z Z Z Z Z Z Z

>  <atom.prop.IS_HEAVY_ATOM>  (2629) 
1 0 0 0 1 0 0 1 0 0 0 1 0 0 0 1 1 0 1 0 1 0 1 0 1 0

>  <DIFUSE_FUNC_ATOM>  (2629) 
n/a

>  <FINAL_SINGLE_POINT_ENERGY>  (2629) 
0

>  <NONCOV_INTER_ENERGY_QM>  (2629) 
0

>  <FF_Energy>  (2629) 
-7.61

>  <QM_Energy>  (2629) 
-14.6

>  <source>  (2629) 
ETAM_MBZ

>  <Index>  (2629) 
28032

$$$$
ETAM-pdb3uom-E-LYS-147:MBZ-pdb3uom-E-PHE-139
     RDKit          3D

 26 25  0  0  0  0  0  0  0  0999 V2000
   -1.9178   -1.6510    3.5372 C   0  0  0  0  0  0  0  0  0  0  0  0
   -2.0375   -1.3246    2.6082 H   0  0  0  0  0  0  0  0  0  0  0  0
   -2.1731   -0.9519    4.1926 H   0  0  0  0  0  0  0  0  0  0  0  0
   -2.5610   -2.5184    3.6853 H   0  0  0  0  0  0  0  0  0  0  0  0
   -0.4305   -1.9954    3.7455 C   0  0  0  0  0  0  0  0  0  0  0  0
   -0.3373   -2.4596    4.6333 H   0  0  0  0  0  0  0  0  0  0  0  0
   -0.1522   -2.6351    3.0204 H   0  0  0  0  0  0  0  0  0  0  0  0
    0.4402   -0.8006    3.7149 N   0  0  0  0  0  4  0  0  0  0  0  0
    1.2054   -0.9256    4.3489 H   0  0  0  0  0  0  0  0  0  0  0  0
    0.7957   -0.6671    2.7887 H   0  0  0  0  0  0  0  0  0  0  0  0
   -0.0860    0.0064    3.9868 H   0  0  0  0  0  0  0  0  0  0  0  0
    0.0207    2.9106   -0.0195 C   0  0  0  0  0  0  0  0  0  0  0  0
   -0.7443    3.2104   -0.5685 H   0  0  0  0  0  0  0  0  0  0  0  0
    0.8813    3.1993   -0.4105 H   0  0  0  0  0  0  0  0  0  0  0  0
   -0.0714    3.3718    0.9638 H   0  0  0  0  0  0  0  0  0  0  0  0
    0.0082    1.3954    0.0028 C   0  0  0  0  0  0  0  0  0  0  0  0
   -1.1939    0.6911   -0.0024 C   0  0  0  0  0  0  0  0  0  0  0  0
   -2.0564    1.1885   -0.0094 H   0  0  0  0  0  0  0  0  0  0  0  0
   -1.1991   -0.6900   -0.0000 C   0  0  0  0  0  0  0  0  0  0  0  0
   -2.0815   -1.1827    0.0014 H   0  0  0  0  0  0  0  0  0  0  0  0
   -0.0115   -1.3847    0.0027 C   0  0  0  0  0  0  0  0  0  0  0  0
   -0.0129   -2.3857    0.0061 H   0  0  0  0  0  0  0  0  0  0  0  0
    1.1991   -0.6954   -0.0000 C   0  0  0  0  0  0  0  0  0  0  0  0
    2.0726   -1.2037    0.0018 H   0  0  0  0  0  0  0  0  0  0  0  0
    1.1971    0.6835   -0.0031 C   0  0  0  0  0  0  0  0  0  0  0  0
    2.0690    1.1817   -0.0108 H   0  0  0  0  0  0  0  0  0  0  0  0
  1  5  1  0
  5  8  1  0
  1  2  1  0
  1  3  1  0
  1  4  1  0
  5  6  1  0
  5  7  1  0
  8  9  1  0
  8 10  1  0
  8 11  1  0
 12 16  1  0
 16 17  2  0
 17 19  1  0
 19 21  2  0
 21 23  1  0
 23 25  2  0
 25 16  1  0
 12 13  1  0
 12 14  1  0
 12 15  1  0
 17 18  1  0
 19 20  1  0
 21 22  1  0
 23 24  1  0
 25 26  1  0
M  CHG  1   8   1
M  END
>  <PDB_ID>  (2630) 
pdb3uom

>  <RESIDUE_NAME>  (2630) 
LYS   PHE

>  <FRAG_NAME>  (2630) 
ETAM   MBZ

>  <FRAG_ATOM_NUM>  (2630) 
fragi: 11  fragj: 15

>  <atom.prop.CHAIN_ID>  (2630) 
A A A A A A A A A A A Z Z Z Z Z Z Z Z Z Z Z Z Z Z Z

>  <atom.prop.IS_HEAVY_ATOM>  (2630) 
1 0 0 0 1 0 0 1 0 0 0 1 0 0 0 1 1 0 1 0 1 0 1 0 1 0

>  <DIFUSE_FUNC_ATOM>  (2630) 
n/a

>  <FINAL_SINGLE_POINT_ENERGY>  (2630) 
0

>  <NONCOV_INTER_ENERGY_QM>  (2630) 
0

>  <FF_Energy>  (2630) 
-6.97

>  <QM_Energy>  (2630) 
-13.07

>  <source>  (2630) 
ETAM_MBZ

>  <Index>  (2630) 
28033

$$$$
ETAM-pdb3uom-F-LYS-147:MBZ-pdb3uom-F-PHE-139
     RDKit          3D

 26 25  0  0  0  0  0  0  0  0999 V2000
   -1.9564   -1.5977    3.5656 C   0  0  0  0  0  0  0  0  0  0  0  0
   -2.1635   -1.1956    2.6798 H   0  0  0  0  0  0  0  0  0  0  0  0
   -2.1457   -0.9470    4.2937 H   0  0  0  0  0  0  0  0  0  0  0  0
   -2.5911   -2.4724    3.7068 H   0  0  0  0  0  0  0  0  0  0  0  0
   -0.4689   -1.9525    3.6039 C   0  0  0  0  0  0  0  0  0  0  0  0
   -0.2982   -2.5362    4.3943 H   0  0  0  0  0  0  0  0  0  0  0  0
   -0.2331   -2.4388    2.7659 H   0  0  0  0  0  0  0  0  0  0  0  0
    0.3582   -0.7204    3.7106 N   0  0  0  0  0  4  0  0  0  0  0  0
   -0.2010    0.0246    4.0733 H   0  0  0  0  0  0  0  0  0  0  0  0
    1.1292   -0.8901    4.3244 H   0  0  0  0  0  0  0  0  0  0  0  0
    0.6998   -0.4715    2.8049 H   0  0  0  0  0  0  0  0  0  0  0  0
    0.0124    2.9175   -0.0167 C   0  0  0  0  0  0  0  0  0  0  0  0
   -0.7839    3.2135   -0.5225 H   0  0  0  0  0  0  0  0  0  0  0  0
    0.8484    3.2076   -0.4581 H   0  0  0  0  0  0  0  0  0  0  0  0
   -0.0248    3.3813    0.9690 H   0  0  0  0  0  0  0  0  0  0  0  0
    0.0066    1.3988    0.0052 C   0  0  0  0  0  0  0  0  0  0  0  0
   -1.1976    0.6843   -0.0035 C   0  0  0  0  0  0  0  0  0  0  0  0
   -2.0601    1.1819   -0.0132 H   0  0  0  0  0  0  0  0  0  0  0  0
   -1.1998   -0.6948   -0.0000 C   0  0  0  0  0  0  0  0  0  0  0  0
   -2.0777   -1.1932    0.0045 H   0  0  0  0  0  0  0  0  0  0  0  0
   -0.0038   -1.3887   -0.0013 C   0  0  0  0  0  0  0  0  0  0  0  0
   -0.0060   -2.3890   -0.0043 H   0  0  0  0  0  0  0  0  0  0  0  0
    1.1998   -0.6954   -0.0000 C   0  0  0  0  0  0  0  0  0  0  0  0
    2.0790   -1.1936    0.0024 H   0  0  0  0  0  0  0  0  0  0  0  0
    1.1948    0.6958   -0.0004 C   0  0  0  0  0  0  0  0  0  0  0  0
    2.0667    1.1893   -0.0053 H   0  0  0  0  0  0  0  0  0  0  0  0
  1  5  1  0
  5  8  1  0
  1  2  1  0
  1  3  1  0
  1  4  1  0
  5  6  1  0
  5  7  1  0
  8  9  1  0
  8 10  1  0
  8 11  1  0
 12 16  1  0
 16 17  2  0
 17 19  1  0
 19 21  2  0
 21 23  1  0
 23 25  2  0
 25 16  1  0
 12 13  1  0
 12 14  1  0
 12 15  1  0
 17 18  1  0
 19 20  1  0
 21 22  1  0
 23 24  1  0
 25 26  1  0
M  CHG  1   8   1
M  END
>  <PDB_ID>  (2631) 
pdb3uom

>  <RESIDUE_NAME>  (2631) 
LYS   PHE

>  <FRAG_NAME>  (2631) 
ETAM   MBZ

>  <FRAG_ATOM_NUM>  (2631) 
fragi: 11  fragj: 15

>  <atom.prop.CHAIN_ID>  (2631) 
A A A A A A A A A A A Z Z Z Z Z Z Z Z Z Z Z Z Z Z Z

>  <atom.prop.IS_HEAVY_ATOM>  (2631) 
1 0 0 0 1 0 0 1 0 0 0 1 0 0 0 1 1 0 1 0 1 0 1 0 1 0

>  <DIFUSE_FUNC_ATOM>  (2631) 
n/a

>  <FINAL_SINGLE_POINT_ENERGY>  (2631) 
0

>  <NONCOV_INTER_ENERGY_QM>  (2631) 
0

>  <FF_Energy>  (2631) 
-7.21

>  <QM_Energy>  (2631) 
-13.39

>  <source>  (2631) 
ETAM_MBZ

>  <Index>  (2631) 
28034

$$$$
ETAM-pdb4um9-B-LYS-264:MBZ-pdb4um9-A-PHE-21
     RDKit          3D

 26 25  0  0  0  0  0  0  0  0999 V2000
    0.1951   -6.5844    1.8501 C   0  0  0  0  0  0  0  0  0  0  0  0
   -0.6262   -6.4513    2.4014 H   0  0  0  0  0  0  0  0  0  0  0  0
    0.6461   -7.4340    2.1147 H   0  0  0  0  0  0  0  0  0  0  0  0
   -0.0920   -6.6484    0.8005 H   0  0  0  0  0  0  0  0  0  0  0  0
    1.1442   -5.4322    2.1101 C   0  0  0  0  0  0  0  0  0  0  0  0
    1.4377   -5.4609    3.0684 H   0  0  0  0  0  0  0  0  0  0  0  0
    1.9490   -5.5320    1.5199 H   0  0  0  0  0  0  0  0  0  0  0  0
    0.4980   -4.1242    1.8360 N   0  0  0  0  0  4  0  0  0  0  0  0
    0.3619   -3.6327    2.6963 H   0  0  0  0  0  0  0  0  0  0  0  0
    1.0839   -3.5833    1.2319 H   0  0  0  0  0  0  0  0  0  0  0  0
   -0.3867   -4.2752    1.3952 H   0  0  0  0  0  0  0  0  0  0  0  0
    0.0035    2.9070   -0.0148 C   0  0  0  0  0  0  0  0  0  0  0  0
   -0.7797    3.2056   -0.5407 H   0  0  0  0  0  0  0  0  0  0  0  0
    0.8494    3.2013   -0.4344 H   0  0  0  0  0  0  0  0  0  0  0  0
   -0.0596    3.3671    0.9713 H   0  0  0  0  0  0  0  0  0  0  0  0
   -0.0011    1.3979    0.0068 C   0  0  0  0  0  0  0  0  0  0  0  0
   -1.1901    0.6915   -0.0062 C   0  0  0  0  0  0  0  0  0  0  0  0
   -2.0602    1.1790   -0.0216 H   0  0  0  0  0  0  0  0  0  0  0  0
   -1.1908   -0.6950    0.0000 C   0  0  0  0  0  0  0  0  0  0  0  0
   -2.0703   -1.1890    0.0050 H   0  0  0  0  0  0  0  0  0  0  0  0
    0.0027   -1.3863    0.0017 C   0  0  0  0  0  0  0  0  0  0  0  0
   -0.0029   -2.3883    0.0039 H   0  0  0  0  0  0  0  0  0  0  0  0
    1.1908   -0.6957   -0.0000 C   0  0  0  0  0  0  0  0  0  0  0  0
    2.0773   -1.1930    0.0014 H   0  0  0  0  0  0  0  0  0  0  0  0
    1.1885    0.6876   -0.0023 C   0  0  0  0  0  0  0  0  0  0  0  0
    2.0600    1.1845   -0.0114 H   0  0  0  0  0  0  0  0  0  0  0  0
  1  5  1  0
  5  8  1  0
  1  2  1  0
  1  3  1  0
  1  4  1  0
  5  6  1  0
  5  7  1  0
  8  9  1  0
  8 10  1  0
  8 11  1  0
 12 16  1  0
 16 17  2  0
 17 19  1  0
 19 21  2  0
 21 23  1  0
 23 25  2  0
 25 16  1  0
 12 13  1  0
 12 14  1  0
 12 15  1  0
 17 18  1  0
 19 20  1  0
 21 22  1  0
 23 24  1  0
 25 26  1  0
M  CHG  1   8   1
M  END
>  <PDB_ID>  (2632) 
pdb4um9

>  <RESIDUE_NAME>  (2632) 
LYS   PHE

>  <FRAG_NAME>  (2632) 
ETAM   MBZ

>  <FRAG_ATOM_NUM>  (2632) 
fragi: 11  fragj: 15

>  <atom.prop.CHAIN_ID>  (2632) 
A A A A A A A A A A A Z Z Z Z Z Z Z Z Z Z Z Z Z Z Z

>  <atom.prop.IS_HEAVY_ATOM>  (2632) 
1 0 0 0 1 0 0 1 0 0 0 1 0 0 0 1 1 0 1 0 1 0 1 0 1 0

>  <DIFUSE_FUNC_ATOM>  (2632) 
n/a

>  <FINAL_SINGLE_POINT_ENERGY>  (2632) 
0

>  <NONCOV_INTER_ENERGY_QM>  (2632) 
0

>  <FF_Energy>  (2632) 
1.11

>  <QM_Energy>  (2632) 
-4.58

>  <source>  (2632) 
ETAM_MBZ

>  <Index>  (2632) 
28066

$$$$
ETAM-pdb4um9-B-LYS-449:MBZ-pdb4um9-B-PHE-457
     RDKit          3D

 26 25  0  0  0  0  0  0  0  0999 V2000
    1.0430   -0.0953   -3.6577 C   0  0  0  0  0  0  0  0  0  0  0  0
    1.1227    0.4796   -2.8525 H   0  0  0  0  0  0  0  0  0  0  0  0
    0.3598   -0.8014   -3.5183 H   0  0  0  0  0  0  0  0  0  0  0  0
    0.7476    0.5226   -4.5057 H   0  0  0  0  0  0  0  0  0  0  0  0
    2.3866   -0.7645   -3.9104 C   0  0  0  0  0  0  0  0  0  0  0  0
    2.2987   -1.3834   -4.6977 H   0  0  0  0  0  0  0  0  0  0  0  0
    3.0648   -0.0575   -4.1325 H   0  0  0  0  0  0  0  0  0  0  0  0
    2.8609   -1.5412   -2.7307 N   0  0  0  0  0  4  0  0  0  0  0  0
    2.0730   -1.9099   -2.2384 H   0  0  0  0  0  0  0  0  0  0  0  0
    3.4433   -2.2916   -3.0406 H   0  0  0  0  0  0  0  0  0  0  0  0
    3.3829   -0.9395   -2.1266 H   0  0  0  0  0  0  0  0  0  0  0  0
   -0.0013    2.8976   -0.0022 C   0  0  0  0  0  0  0  0  0  0  0  0
   -0.7139    3.2010   -0.6174 H   0  0  0  0  0  0  0  0  0  0  0  0
    0.8890    3.2034   -0.3053 H   0  0  0  0  0  0  0  0  0  0  0  0
   -0.1920    3.3412    0.9750 H   0  0  0  0  0  0  0  0  0  0  0  0
    0.0001    1.3948    0.0025 C   0  0  0  0  0  0  0  0  0  0  0  0
   -1.1921    0.6884   -0.0013 C   0  0  0  0  0  0  0  0  0  0  0  0
   -2.0601    1.1808   -0.0066 H   0  0  0  0  0  0  0  0  0  0  0  0
   -1.1955   -0.6938    0.0000 C   0  0  0  0  0  0  0  0  0  0  0  0
   -2.0734   -1.1901    0.0021 H   0  0  0  0  0  0  0  0  0  0  0  0
    0.0002   -1.3851    0.0000 C   0  0  0  0  0  0  0  0  0  0  0  0
   -0.0032   -2.3863   -0.0005 H   0  0  0  0  0  0  0  0  0  0  0  0
    1.1955   -0.6929    0.0000 C   0  0  0  0  0  0  0  0  0  0  0  0
    2.0785   -1.1935    0.0021 H   0  0  0  0  0  0  0  0  0  0  0  0
    1.1918    0.6886   -0.0012 C   0  0  0  0  0  0  0  0  0  0  0  0
    2.0618    1.1873   -0.0059 H   0  0  0  0  0  0  0  0  0  0  0  0
  1  5  1  0
  5  8  1  0
  1  2  1  0
  1  3  1  0
  1  4  1  0
  5  6  1  0
  5  7  1  0
  8  9  1  0
  8 10  1  0
  8 11  1  0
 12 16  1  0
 16 17  2  0
 17 19  1  0
 19 21  2  0
 21 23  1  0
 23 25  2  0
 25 16  1  0
 12 13  1  0
 12 14  1  0
 12 15  1  0
 17 18  1  0
 19 20  1  0
 21 22  1  0
 23 24  1  0
 25 26  1  0
M  CHG  1   8   1
M  END
>  <PDB_ID>  (2633) 
pdb4um9

>  <RESIDUE_NAME>  (2633) 
LYS   PHE

>  <FRAG_NAME>  (2633) 
ETAM   MBZ

>  <FRAG_ATOM_NUM>  (2633) 
fragi: 11  fragj: 15

>  <atom.prop.CHAIN_ID>  (2633) 
A A A A A A A A A A A Z Z Z Z Z Z Z Z Z Z Z Z Z Z Z

>  <atom.prop.IS_HEAVY_ATOM>  (2633) 
1 0 0 0 1 0 0 1 0 0 0 1 0 0 0 1 1 0 1 0 1 0 1 0 1 0

>  <DIFUSE_FUNC_ATOM>  (2633) 
n/a

>  <FINAL_SINGLE_POINT_ENERGY>  (2633) 
0

>  <NONCOV_INTER_ENERGY_QM>  (2633) 
0

>  <FF_Energy>  (2633) 
-3.05

>  <QM_Energy>  (2633) 
-9.23

>  <source>  (2633) 
ETAM_MBZ

>  <Index>  (2633) 
28068

$$$$
ETAM-pdb4um9-D-LYS-214:MBZ-pdb4um9-D-PHE-186
     RDKit          3D

 26 25  0  0  0  0  0  0  0  0999 V2000
    5.8347   -1.7476    1.1036 C   0  0  0  0  0  0  0  0  0  0  0  0
    6.3197   -0.9290    1.3866 H   0  0  0  0  0  0  0  0  0  0  0  0
    6.1893   -2.0865    0.2409 H   0  0  0  0  0  0  0  0  0  0  0  0
    5.9358   -2.5160    1.8700 H   0  0  0  0  0  0  0  0  0  0  0  0
    4.3766   -1.3987    0.9160 C   0  0  0  0  0  0  0  0  0  0  0  0
    3.8432   -2.2438    0.8474 H   0  0  0  0  0  0  0  0  0  0  0  0
    4.0603   -0.8728    1.7068 H   0  0  0  0  0  0  0  0  0  0  0  0
    4.1795   -0.5956   -0.3150 N   0  0  0  0  0  4  0  0  0  0  0  0
    4.5918    0.3083   -0.1940 H   0  0  0  0  0  0  0  0  0  0  0  0
    4.6125   -1.0586   -1.0891 H   0  0  0  0  0  0  0  0  0  0  0  0
    3.2002   -0.4936   -0.4943 H   0  0  0  0  0  0  0  0  0  0  0  0
   -0.1669    2.8913   -0.0234 C   0  0  0  0  0  0  0  0  0  0  0  0
   -0.9095    3.1185   -0.6420 H   0  0  0  0  0  0  0  0  0  0  0  0
    0.6848    3.2946   -0.3347 H   0  0  0  0  0  0  0  0  0  0  0  0
   -0.4018    3.3386    0.9424 H   0  0  0  0  0  0  0  0  0  0  0  0
   -0.0044    1.3987   -0.0125 C   0  0  0  0  0  0  0  0  0  0  0  0
   -1.1834    0.6618    0.0180 C   0  0  0  0  0  0  0  0  0  0  0  0
   -2.0620    1.1594    0.0537 H   0  0  0  0  0  0  0  0  0  0  0  0
   -1.1924   -0.7051   -0.0000 C   0  0  0  0  0  0  0  0  0  0  0  0
   -2.0734   -1.2022   -0.0153 H   0  0  0  0  0  0  0  0  0  0  0  0
   -0.0074   -1.3900    0.0055 C   0  0  0  0  0  0  0  0  0  0  0  0
    0.0031   -2.3900    0.0134 H   0  0  0  0  0  0  0  0  0  0  0  0
    1.1924   -0.6857   -0.0000 C   0  0  0  0  0  0  0  0  0  0  0  0
    2.0779   -1.1786    0.0049 H   0  0  0  0  0  0  0  0  0  0  0  0
    1.1952    0.7204   -0.0110 C   0  0  0  0  0  0  0  0  0  0  0  0
    2.0572    1.2067   -0.0183 H   0  0  0  0  0  0  0  0  0  0  0  0
  1  5  1  0
  5  8  1  0
  1  2  1  0
  1  3  1  0
  1  4  1  0
  5  6  1  0
  5  7  1  0
  8  9  1  0
  8 10  1  0
  8 11  1  0
 12 16  1  0
 16 17  2  0
 17 19  1  0
 19 21  2  0
 21 23  1  0
 23 25  2  0
 25 16  1  0
 12 13  1  0
 12 14  1  0
 12 15  1  0
 17 18  1  0
 19 20  1  0
 21 22  1  0
 23 24  1  0
 25 26  1  0
M  CHG  1   8   1
M  END
>  <PDB_ID>  (2634) 
pdb4um9

>  <RESIDUE_NAME>  (2634) 
LYS   PHE

>  <FRAG_NAME>  (2634) 
ETAM   MBZ

>  <FRAG_ATOM_NUM>  (2634) 
fragi: 11  fragj: 15

>  <atom.prop.CHAIN_ID>  (2634) 
A A A A A A A A A A A Z Z Z Z Z Z Z Z Z Z Z Z Z Z Z

>  <atom.prop.IS_HEAVY_ATOM>  (2634) 
1 0 0 0 1 0 0 1 0 0 0 1 0 0 0 1 1 0 1 0 1 0 1 0 1 0

>  <DIFUSE_FUNC_ATOM>  (2634) 
n/a

>  <FINAL_SINGLE_POINT_ENERGY>  (2634) 
0

>  <NONCOV_INTER_ENERGY_QM>  (2634) 
0

>  <FF_Energy>  (2634) 
10.09

>  <QM_Energy>  (2634) 
-0.62

>  <source>  (2634) 
ETAM_MBZ

>  <Index>  (2634) 
28073

$$$$
ETAM-pdb4um9-D-LYS-264:MBZ-pdb4um9-C-PHE-159
     RDKit          3D

 26 25  0  0  0  0  0  0  0  0999 V2000
    0.0004   -5.2751    1.8254 C   0  0  0  0  0  0  0  0  0  0  0  0
    0.2744   -5.8442    2.5711 H   0  0  0  0  0  0  0  0  0  0  0  0
    0.6534   -5.2447    1.0996 H   0  0  0  0  0  0  0  0  0  0  0  0
   -0.9667   -5.6022    1.4435 H   0  0  0  0  0  0  0  0  0  0  0  0
   -0.1952   -3.8525    2.3541 C   0  0  0  0  0  0  0  0  0  0  0  0
   -0.1319   -3.2094    1.5715 H   0  0  0  0  0  0  0  0  0  0  0  0
   -1.1362   -3.7770    2.7264 H   0  0  0  0  0  0  0  0  0  0  0  0
    0.7756   -3.4428    3.4003 N   0  0  0  0  0  4  0  0  0  0  0  0
    1.3096   -4.2375    3.6898 H   0  0  0  0  0  0  0  0  0  0  0  0
    1.3890   -2.7448    3.0305 H   0  0  0  0  0  0  0  0  0  0  0  0
    0.2815   -3.0698    4.1856 H   0  0  0  0  0  0  0  0  0  0  0  0
    0.0115    2.9041    0.0075 C   0  0  0  0  0  0  0  0  0  0  0  0
   -0.6632    3.2190   -0.6449 H   0  0  0  0  0  0  0  0  0  0  0  0
    0.9206    3.2025   -0.2457 H   0  0  0  0  0  0  0  0  0  0  0  0
   -0.2279    3.3452    0.9751 H   0  0  0  0  0  0  0  0  0  0  0  0
   -0.0012    1.3972   -0.0030 C   0  0  0  0  0  0  0  0  0  0  0  0
   -1.1931    0.6933    0.0050 C   0  0  0  0  0  0  0  0  0  0  0  0
   -2.0609    1.1842    0.0138 H   0  0  0  0  0  0  0  0  0  0  0  0
   -1.1958   -0.6909   -0.0000 C   0  0  0  0  0  0  0  0  0  0  0  0
   -2.0736   -1.1875    0.0001 H   0  0  0  0  0  0  0  0  0  0  0  0
    0.0028   -1.3862   -0.0029 C   0  0  0  0  0  0  0  0  0  0  0  0
   -0.0064   -2.3877   -0.0078 H   0  0  0  0  0  0  0  0  0  0  0  0
    1.1958   -0.6981   -0.0000 C   0  0  0  0  0  0  0  0  0  0  0  0
    2.0790   -1.1964    0.0031 H   0  0  0  0  0  0  0  0  0  0  0  0
    1.1915    0.6847    0.0008 C   0  0  0  0  0  0  0  0  0  0  0  0
    2.0614    1.1839    0.0035 H   0  0  0  0  0  0  0  0  0  0  0  0
  1  5  1  0
  5  8  1  0
  1  2  1  0
  1  3  1  0
  1  4  1  0
  5  6  1  0
  5  7  1  0
  8  9  1  0
  8 10  1  0
  8 11  1  0
 12 16  1  0
 16 17  2  0
 17 19  1  0
 19 21  2  0
 21 23  1  0
 23 25  2  0
 25 16  1  0
 12 13  1  0
 12 14  1  0
 12 15  1  0
 17 18  1  0
 19 20  1  0
 21 22  1  0
 23 24  1  0
 25 26  1  0
M  CHG  1   8   1
M  END
>  <PDB_ID>  (2635) 
pdb4um9

>  <RESIDUE_NAME>  (2635) 
LYS   PHE

>  <FRAG_NAME>  (2635) 
ETAM   MBZ

>  <FRAG_ATOM_NUM>  (2635) 
fragi: 11  fragj: 15

>  <atom.prop.CHAIN_ID>  (2635) 
A A A A A A A A A A A Z Z Z Z Z Z Z Z Z Z Z Z Z Z Z

>  <atom.prop.IS_HEAVY_ATOM>  (2635) 
1 0 0 0 1 0 0 1 0 0 0 1 0 0 0 1 1 0 1 0 1 0 1 0 1 0

>  <DIFUSE_FUNC_ATOM>  (2635) 
n/a

>  <FINAL_SINGLE_POINT_ENERGY>  (2635) 
0

>  <NONCOV_INTER_ENERGY_QM>  (2635) 
0

>  <FF_Energy>  (2635) 
3.74

>  <QM_Energy>  (2635) 
-4.19

>  <source>  (2635) 
ETAM_MBZ

>  <Index>  (2635) 
28074

$$$$
ETAM-pdb3urr-A-LYS-22:MBZ-pdb3urr-A-PHE-89
     RDKit          3D

 26 25  0  0  0  0  0  0  0  0999 V2000
   -0.9476   -0.7204    4.1892 C   0  0  0  0  0  0  0  0  0  0  0  0
   -1.1032   -0.3956    5.1166 H   0  0  0  0  0  0  0  0  0  0  0  0
   -0.3483   -1.5154    4.1982 H   0  0  0  0  0  0  0  0  0  0  0  0
   -1.9057   -1.0117    3.7587 H   0  0  0  0  0  0  0  0  0  0  0  0
   -0.2807    0.3856    3.3887 C   0  0  0  0  0  0  0  0  0  0  0  0
   -0.2848    0.1334    2.4107 H   0  0  0  0  0  0  0  0  0  0  0  0
   -0.8162    1.2356    3.4908 H   0  0  0  0  0  0  0  0  0  0  0  0
    1.1397    0.6627    3.8049 N   0  0  0  0  0  4  0  0  0  0  0  0
    1.6079    1.1343    3.0622 H   0  0  0  0  0  0  0  0  0  0  0  0
    1.1310    1.2347    4.6210 H   0  0  0  0  0  0  0  0  0  0  0  0
    1.5935   -0.2030    3.9999 H   0  0  0  0  0  0  0  0  0  0  0  0
   -0.0037    2.9041   -0.0065 C   0  0  0  0  0  0  0  0  0  0  0  0
   -0.7342    3.2037   -0.6048 H   0  0  0  0  0  0  0  0  0  0  0  0
    0.8772    3.2089   -0.3416 H   0  0  0  0  0  0  0  0  0  0  0  0
   -0.1646    3.3641    0.9685 H   0  0  0  0  0  0  0  0  0  0  0  0
   -0.0003    1.3984    0.0062 C   0  0  0  0  0  0  0  0  0  0  0  0
   -1.1866    0.6958   -0.0011 C   0  0  0  0  0  0  0  0  0  0  0  0
   -2.0570    1.1901   -0.0093 H   0  0  0  0  0  0  0  0  0  0  0  0
   -1.1975   -0.6845    0.0000 C   0  0  0  0  0  0  0  0  0  0  0  0
   -2.0782   -1.1777   -0.0002 H   0  0  0  0  0  0  0  0  0  0  0  0
   -0.0033   -1.3929    0.0035 C   0  0  0  0  0  0  0  0  0  0  0  0
   -0.0129   -2.3884    0.0083 H   0  0  0  0  0  0  0  0  0  0  0  0
    1.1975   -0.6980   -0.0000 C   0  0  0  0  0  0  0  0  0  0  0  0
    2.0776   -1.2001    0.0046 H   0  0  0  0  0  0  0  0  0  0  0  0
    1.1903    0.6811   -0.0086 C   0  0  0  0  0  0  0  0  0  0  0  0
    2.0625    1.1826   -0.0265 H   0  0  0  0  0  0  0  0  0  0  0  0
  1  5  1  0
  5  8  1  0
  1  2  1  0
  1  3  1  0
  1  4  1  0
  5  6  1  0
  5  7  1  0
  8  9  1  0
  8 10  1  0
  8 11  1  0
 12 16  1  0
 16 17  2  0
 17 19  1  0
 19 21  2  0
 21 23  1  0
 23 25  2  0
 25 16  1  0
 12 13  1  0
 12 14  1  0
 12 15  1  0
 17 18  1  0
 19 20  1  0
 21 22  1  0
 23 24  1  0
 25 26  1  0
M  CHG  1   8   1
M  END
>  <PDB_ID>  (2636) 
pdb3urr

>  <RESIDUE_NAME>  (2636) 
LYS   PHE

>  <FRAG_NAME>  (2636) 
ETAM   MBZ

>  <FRAG_ATOM_NUM>  (2636) 
fragi: 11  fragj: 15

>  <atom.prop.CHAIN_ID>  (2636) 
A A A A A A A A A A A Z Z Z Z Z Z Z Z Z Z Z Z Z Z Z

>  <atom.prop.IS_HEAVY_ATOM>  (2636) 
1 0 0 0 1 0 0 1 0 0 0 1 0 0 0 1 1 0 1 0 1 0 1 0 1 0

>  <DIFUSE_FUNC_ATOM>  (2636) 
n/a

>  <FINAL_SINGLE_POINT_ENERGY>  (2636) 
0

>  <NONCOV_INTER_ENERGY_QM>  (2636) 
0

>  <FF_Energy>  (2636) 
-5.92

>  <QM_Energy>  (2636) 
-11.83

>  <source>  (2636) 
ETAM_MBZ

>  <Index>  (2636) 
28086

$$$$
ETAM-pdb3ut4-B-LYS-38:MBZ-pdb3ut4-B-PHE-34
     RDKit          3D

 26 25  0  0  0  0  0  0  0  0999 V2000
    1.4808   -0.2182    4.7057 C   0  0  0  0  0  0  0  0  0  0  0  0
    1.5446    0.7609    4.6100 H   0  0  0  0  0  0  0  0  0  0  0  0
    2.0121   -0.5470    5.4681 H   0  0  0  0  0  0  0  0  0  0  0  0
    0.4385   -0.5168    4.8171 H   0  0  0  0  0  0  0  0  0  0  0  0
    2.0333   -0.8546    3.4339 C   0  0  0  0  0  0  0  0  0  0  0  0
    2.1228   -1.8502    3.5863 H   0  0  0  0  0  0  0  0  0  0  0  0
    1.3637   -0.7174    2.6886 H   0  0  0  0  0  0  0  0  0  0  0  0
    3.3456   -0.3044    3.0173 N   0  0  0  0  0  4  0  0  0  0  0  0
    3.4808    0.5933    3.4384 H   0  0  0  0  0  0  0  0  0  0  0  0
    4.0754   -0.9223    3.3112 H   0  0  0  0  0  0  0  0  0  0  0  0
    3.3680   -0.2118    2.0217 H   0  0  0  0  0  0  0  0  0  0  0  0
    0.0041    2.9178   -0.0107 C   0  0  0  0  0  0  0  0  0  0  0  0
   -0.3102    3.2148   -0.9008 H   0  0  0  0  0  0  0  0  0  0  0  0
    0.9295    3.2217    0.1625 H   0  0  0  0  0  0  0  0  0  0  0  0
   -0.6417    3.3722    0.7406 H   0  0  0  0  0  0  0  0  0  0  0  0
    0.0002    1.4095    0.0030 C   0  0  0  0  0  0  0  0  0  0  0  0
   -1.1980    0.7002   -0.0035 C   0  0  0  0  0  0  0  0  0  0  0  0
   -2.0647    1.1855   -0.0117 H   0  0  0  0  0  0  0  0  0  0  0  0
   -1.2009   -0.7003    0.0000 C   0  0  0  0  0  0  0  0  0  0  0  0
   -2.0793   -1.1891   -0.0002 H   0  0  0  0  0  0  0  0  0  0  0  0
   -0.0004   -1.3988    0.0052 C   0  0  0  0  0  0  0  0  0  0  0  0
   -0.0073   -2.3978    0.0117 H   0  0  0  0  0  0  0  0  0  0  0  0
    1.2009   -0.7059    0.0000 C   0  0  0  0  0  0  0  0  0  0  0  0
    2.0819   -1.1992    0.0007 H   0  0  0  0  0  0  0  0  0  0  0  0
    1.1981    0.6954   -0.0047 C   0  0  0  0  0  0  0  0  0  0  0  0
    2.0671    1.1867   -0.0148 H   0  0  0  0  0  0  0  0  0  0  0  0
  1  5  1  0
  5  8  1  0
  1  2  1  0
  1  3  1  0
  1  4  1  0
  5  6  1  0
  5  7  1  0
  8  9  1  0
  8 10  1  0
  8 11  1  0
 12 16  1  0
 16 17  2  0
 17 19  1  0
 19 21  2  0
 21 23  1  0
 23 25  2  0
 25 16  1  0
 12 13  1  0
 12 14  1  0
 12 15  1  0
 17 18  1  0
 19 20  1  0
 21 22  1  0
 23 24  1  0
 25 26  1  0
M  CHG  1   8   1
M  END
>  <PDB_ID>  (2637) 
pdb3ut4

>  <RESIDUE_NAME>  (2637) 
LYS   PHE

>  <FRAG_NAME>  (2637) 
ETAM   MBZ

>  <FRAG_ATOM_NUM>  (2637) 
fragi: 11  fragj: 15

>  <atom.prop.CHAIN_ID>  (2637) 
A A A A A A A A A A A Z Z Z Z Z Z Z Z Z Z Z Z Z Z Z

>  <atom.prop.IS_HEAVY_ATOM>  (2637) 
1 0 0 0 1 0 0 1 0 0 0 1 0 0 0 1 1 0 1 0 1 0 1 0 1 0

>  <DIFUSE_FUNC_ATOM>  (2637) 
n/a

>  <FINAL_SINGLE_POINT_ENERGY>  (2637) 
0

>  <NONCOV_INTER_ENERGY_QM>  (2637) 
0

>  <FF_Energy>  (2637) 
-2.86

>  <QM_Energy>  (2637) 
-8.15

>  <source>  (2637) 
ETAM_MBZ

>  <Index>  (2637) 
28100

$$$$
ETAM-pdb3ut4-B-LYS-49:MBZ-pdb3ut4-A-PHE-127
     RDKit          3D

 26 25  0  0  0  0  0  0  0  0999 V2000
    1.3979   -2.9509    3.5675 C   0  0  0  0  0  0  0  0  0  0  0  0
    1.3098   -3.6819    2.9055 H   0  0  0  0  0  0  0  0  0  0  0  0
    1.7342   -3.2913    4.4338 H   0  0  0  0  0  0  0  0  0  0  0  0
    2.1225   -2.2337    3.1821 H   0  0  0  0  0  0  0  0  0  0  0  0
    0.0214   -2.3079    3.7864 C   0  0  0  0  0  0  0  0  0  0  0  0
   -0.4045   -2.7269    4.5888 H   0  0  0  0  0  0  0  0  0  0  0  0
    0.1471   -1.3290    3.9511 H   0  0  0  0  0  0  0  0  0  0  0  0
   -0.8712   -2.4973    2.6001 N   0  0  0  0  0  4  0  0  0  0  0  0
   -0.8658   -3.4602    2.3364 H   0  0  0  0  0  0  0  0  0  0  0  0
   -1.7989   -2.2177    2.8409 H   0  0  0  0  0  0  0  0  0  0  0  0
   -0.5352   -1.9377    1.8444 H   0  0  0  0  0  0  0  0  0  0  0  0
    0.0008    2.9074    0.0042 C   0  0  0  0  0  0  0  0  0  0  0  0
   -0.6679    3.2166   -0.6529 H   0  0  0  0  0  0  0  0  0  0  0  0
    0.9093    3.2162   -0.2279 H   0  0  0  0  0  0  0  0  0  0  0  0
   -0.2595    3.3359    0.9720 H   0  0  0  0  0  0  0  0  0  0  0  0
    0.0024    1.4042   -0.0039 C   0  0  0  0  0  0  0  0  0  0  0  0
   -1.1944    0.6956   -0.0034 C   0  0  0  0  0  0  0  0  0  0  0  0
   -2.0624    1.1830   -0.0064 H   0  0  0  0  0  0  0  0  0  0  0  0
   -1.2021   -0.7033   -0.0000 C   0  0  0  0  0  0  0  0  0  0  0  0
   -2.0822   -1.1899    0.0022 H   0  0  0  0  0  0  0  0  0  0  0  0
   -0.0056   -1.3989    0.0025 C   0  0  0  0  0  0  0  0  0  0  0  0
   -0.0034   -2.3959    0.0061 H   0  0  0  0  0  0  0  0  0  0  0  0
    1.2021   -0.6971    0.0000 C   0  0  0  0  0  0  0  0  0  0  0  0
    2.0811   -1.1944   -0.0036 H   0  0  0  0  0  0  0  0  0  0  0  0
    1.1977    0.6996    0.0047 C   0  0  0  0  0  0  0  0  0  0  0  0
    2.0663    1.1923    0.0136 H   0  0  0  0  0  0  0  0  0  0  0  0
  1  5  1  0
  5  8  1  0
  1  2  1  0
  1  3  1  0
  1  4  1  0
  5  6  1  0
  5  7  1  0
  8  9  1  0
  8 10  1  0
  8 11  1  0
 12 16  1  0
 16 17  2  0
 17 19  1  0
 19 21  2  0
 21 23  1  0
 23 25  2  0
 25 16  1  0
 12 13  1  0
 12 14  1  0
 12 15  1  0
 17 18  1  0
 19 20  1  0
 21 22  1  0
 23 24  1  0
 25 26  1  0
M  CHG  1   8   1
M  END
>  <PDB_ID>  (2638) 
pdb3ut4

>  <RESIDUE_NAME>  (2638) 
LYS   PHE

>  <FRAG_NAME>  (2638) 
ETAM   MBZ

>  <FRAG_ATOM_NUM>  (2638) 
fragi: 11  fragj: 15

>  <atom.prop.CHAIN_ID>  (2638) 
A A A A A A A A A A A Z Z Z Z Z Z Z Z Z Z Z Z Z Z Z

>  <atom.prop.IS_HEAVY_ATOM>  (2638) 
1 0 0 0 1 0 0 1 0 0 0 1 0 0 0 1 1 0 1 0 1 0 1 0 1 0

>  <DIFUSE_FUNC_ATOM>  (2638) 
n/a

>  <FINAL_SINGLE_POINT_ENERGY>  (2638) 
0

>  <NONCOV_INTER_ENERGY_QM>  (2638) 
0

>  <FF_Energy>  (2638) 
-2.8

>  <QM_Energy>  (2638) 
-11.45

>  <source>  (2638) 
ETAM_MBZ

>  <Index>  (2638) 
28101

$$$$
ETAM-pdb4upk-B-LYS-147:MBZ-pdb4upk-B-PHE-153
     RDKit          3D

 26 25  0  0  0  0  0  0  0  0999 V2000
    0.0497   -3.1206   -3.6526 C   0  0  0  0  0  0  0  0  0  0  0  0
    0.4100   -4.0201   -3.4145 H   0  0  0  0  0  0  0  0  0  0  0  0
   -0.1704   -3.0896   -4.6251 H   0  0  0  0  0  0  0  0  0  0  0  0
   -0.8669   -2.9570   -3.0860 H   0  0  0  0  0  0  0  0  0  0  0  0
    1.1073   -2.0746   -3.3562 C   0  0  0  0  0  0  0  0  0  0  0  0
    1.4456   -2.2047   -2.4165 H   0  0  0  0  0  0  0  0  0  0  0  0
    1.8806   -2.1981   -3.9904 H   0  0  0  0  0  0  0  0  0  0  0  0
    0.5940   -0.6708   -3.4915 N   0  0  0  0  0  4  0  0  0  0  0  0
    1.2843   -0.1146   -3.9483 H   0  0  0  0  0  0  0  0  0  0  0  0
   -0.2445   -0.6815   -4.0318 H   0  0  0  0  0  0  0  0  0  0  0  0
    0.4081   -0.3036   -2.5829 H   0  0  0  0  0  0  0  0  0  0  0  0
   -0.0012    2.9207    0.0225 C   0  0  0  0  0  0  0  0  0  0  0  0
    0.8772    3.2187    0.3919 H   0  0  0  0  0  0  0  0  0  0  0  0
   -0.7387    3.2128    0.6295 H   0  0  0  0  0  0  0  0  0  0  0  0
   -0.1431    3.4335   -0.9289 H   0  0  0  0  0  0  0  0  0  0  0  0
   -0.0004    1.4081   -0.0099 C   0  0  0  0  0  0  0  0  0  0  0  0
   -1.1974    0.6944    0.0032 C   0  0  0  0  0  0  0  0  0  0  0  0
   -2.0652    1.1787    0.0141 H   0  0  0  0  0  0  0  0  0  0  0  0
   -1.1955   -0.7037   -0.0000 C   0  0  0  0  0  0  0  0  0  0  0  0
   -2.0742   -1.1952   -0.0095 H   0  0  0  0  0  0  0  0  0  0  0  0
    0.0016   -1.3925    0.0111 C   0  0  0  0  0  0  0  0  0  0  0  0
   -0.0025   -2.3961    0.0266 H   0  0  0  0  0  0  0  0  0  0  0  0
    1.1955   -0.7028    0.0000 C   0  0  0  0  0  0  0  0  0  0  0  0
    2.0807   -1.1958   -0.0038 H   0  0  0  0  0  0  0  0  0  0  0  0
    1.1961    0.6965   -0.0044 C   0  0  0  0  0  0  0  0  0  0  0  0
    2.0654    1.1866   -0.0044 H   0  0  0  0  0  0  0  0  0  0  0  0
  1  5  1  0
  5  8  1  0
  1  2  1  0
  1  3  1  0
  1  4  1  0
  5  6  1  0
  5  7  1  0
  8  9  1  0
  8 10  1  0
  8 11  1  0
 12 16  1  0
 16 17  2  0
 17 19  1  0
 19 21  2  0
 21 23  1  0
 23 25  2  0
 25 16  1  0
 12 13  1  0
 12 14  1  0
 12 15  1  0
 17 18  1  0
 19 20  1  0
 21 22  1  0
 23 24  1  0
 25 26  1  0
M  CHG  1   8   1
M  END
>  <PDB_ID>  (2639) 
pdb4upk

>  <RESIDUE_NAME>  (2639) 
LYS   PHE

>  <FRAG_NAME>  (2639) 
ETAM   MBZ

>  <FRAG_ATOM_NUM>  (2639) 
fragi: 11  fragj: 15

>  <atom.prop.CHAIN_ID>  (2639) 
A A A A A A A A A A A Z Z Z Z Z Z Z Z Z Z Z Z Z Z Z

>  <atom.prop.IS_HEAVY_ATOM>  (2639) 
1 0 0 0 1 0 0 1 0 0 0 1 0 0 0 1 1 0 1 0 1 0 1 0 1 0

>  <DIFUSE_FUNC_ATOM>  (2639) 
n/a

>  <FINAL_SINGLE_POINT_ENERGY>  (2639) 
0

>  <NONCOV_INTER_ENERGY_QM>  (2639) 
0

>  <FF_Energy>  (2639) 
-7.87

>  <QM_Energy>  (2639) 
-14.69

>  <source>  (2639) 
ETAM_MBZ

>  <Index>  (2639) 
28110

$$$$
ETAM-pdb4upk-C-LYS-147:MBZ-pdb4upk-C-PHE-153
     RDKit          3D

 26 25  0  0  0  0  0  0  0  0999 V2000
    0.0155   -2.9682   -3.3091 C   0  0  0  0  0  0  0  0  0  0  0  0
    0.1278   -2.8382   -2.3241 H   0  0  0  0  0  0  0  0  0  0  0  0
    0.3317   -3.8804   -3.5650 H   0  0  0  0  0  0  0  0  0  0  0  0
   -1.0458   -2.8930   -3.5460 H   0  0  0  0  0  0  0  0  0  0  0  0
    0.8544   -1.9374   -4.0377 C   0  0  0  0  0  0  0  0  0  0  0  0
    1.8257   -2.0869   -3.8145 H   0  0  0  0  0  0  0  0  0  0  0  0
    0.7374   -2.0605   -5.0313 H   0  0  0  0  0  0  0  0  0  0  0  0
    0.4883   -0.5312   -3.6806 N   0  0  0  0  0  4  0  0  0  0  0  0
   -0.0090   -0.1185   -4.4422 H   0  0  0  0  0  0  0  0  0  0  0  0
   -0.0881   -0.5398   -2.8654 H   0  0  0  0  0  0  0  0  0  0  0  0
    1.3213   -0.0111   -3.5000 H   0  0  0  0  0  0  0  0  0  0  0  0
    0.0035    2.9210    0.0228 C   0  0  0  0  0  0  0  0  0  0  0  0
    0.8906    3.2159    0.3817 H   0  0  0  0  0  0  0  0  0  0  0  0
   -0.7198    3.2131    0.6506 H   0  0  0  0  0  0  0  0  0  0  0  0
   -0.1552    3.4396   -0.9226 H   0  0  0  0  0  0  0  0  0  0  0  0
    0.0005    1.4094   -0.0079 C   0  0  0  0  0  0  0  0  0  0  0  0
   -1.1963    0.6976    0.0169 C   0  0  0  0  0  0  0  0  0  0  0  0
   -2.0632    1.1832    0.0464 H   0  0  0  0  0  0  0  0  0  0  0  0
   -1.1972   -0.6988   -0.0000 C   0  0  0  0  0  0  0  0  0  0  0  0
   -2.0768   -1.1890   -0.0120 H   0  0  0  0  0  0  0  0  0  0  0  0
   -0.0015   -1.3938    0.0018 C   0  0  0  0  0  0  0  0  0  0  0  0
   -0.0095   -2.3964    0.0040 H   0  0  0  0  0  0  0  0  0  0  0  0
    1.1972   -0.7080    0.0000 C   0  0  0  0  0  0  0  0  0  0  0  0
    2.0792   -1.2016    0.0084 H   0  0  0  0  0  0  0  0  0  0  0  0
    1.1973    0.6937   -0.0108 C   0  0  0  0  0  0  0  0  0  0  0  0
    2.0670    1.1827   -0.0217 H   0  0  0  0  0  0  0  0  0  0  0  0
  1  5  1  0
  5  8  1  0
  1  2  1  0
  1  3  1  0
  1  4  1  0
  5  6  1  0
  5  7  1  0
  8  9  1  0
  8 10  1  0
  8 11  1  0
 12 16  1  0
 16 17  2  0
 17 19  1  0
 19 21  2  0
 21 23  1  0
 23 25  2  0
 25 16  1  0
 12 13  1  0
 12 14  1  0
 12 15  1  0
 17 18  1  0
 19 20  1  0
 21 22  1  0
 23 24  1  0
 25 26  1  0
M  CHG  1   8   1
M  END
>  <PDB_ID>  (2640) 
pdb4upk

>  <RESIDUE_NAME>  (2640) 
LYS   PHE

>  <FRAG_NAME>  (2640) 
ETAM   MBZ

>  <FRAG_ATOM_NUM>  (2640) 
fragi: 11  fragj: 15

>  <atom.prop.CHAIN_ID>  (2640) 
A A A A A A A A A A A Z Z Z Z Z Z Z Z Z Z Z Z Z Z Z

>  <atom.prop.IS_HEAVY_ATOM>  (2640) 
1 0 0 0 1 0 0 1 0 0 0 1 0 0 0 1 1 0 1 0 1 0 1 0 1 0

>  <DIFUSE_FUNC_ATOM>  (2640) 
n/a

>  <FINAL_SINGLE_POINT_ENERGY>  (2640) 
0

>  <NONCOV_INTER_ENERGY_QM>  (2640) 
0

>  <FF_Energy>  (2640) 
-7.11

>  <QM_Energy>  (2640) 
-12.66

>  <source>  (2640) 
ETAM_MBZ

>  <Index>  (2640) 
28112

$$$$
ETAM-pdb3uvk-A-LYS-70:MBZ-pdb3uvk-A-PHE-79
     RDKit          3D

 26 25  0  0  0  0  0  0  0  0999 V2000
   -5.0814   -1.2072   -1.4126 C   0  0  0  0  0  0  0  0  0  0  0  0
   -6.0015   -0.9704   -1.5733 H   0  0  0  0  0  0  0  0  0  0  0  0
   -4.4564   -0.4747   -1.3953 H   0  0  0  0  0  0  0  0  0  0  0  0
   -4.9977   -1.7976   -0.5002 H   0  0  0  0  0  0  0  0  0  0  0  0
   -4.6335   -2.1754   -2.5998 C   0  0  0  0  0  0  0  0  0  0  0  0
   -5.0228   -3.0618   -2.4333 H   0  0  0  0  0  0  0  0  0  0  0  0
   -4.9436   -1.7838   -3.4462 H   0  0  0  0  0  0  0  0  0  0  0  0
   -3.0928   -2.2978   -2.6339 N   0  0  0  0  0  4  0  0  0  0  0  0
   -2.7340   -1.8348   -1.8351 H   0  0  0  0  0  0  0  0  0  0  0  0
   -2.8653   -3.2617   -2.6189 H   0  0  0  0  0  0  0  0  0  0  0  0
   -2.7735   -1.8685   -3.4680 H   0  0  0  0  0  0  0  0  0  0  0  0
   -0.0948    2.8968    0.0075 C   0  0  0  0  0  0  0  0  0  0  0  0
   -0.8900    3.1763   -0.4995 H   0  0  0  0  0  0  0  0  0  0  0  0
    0.7366    3.2514   -0.3810 H   0  0  0  0  0  0  0  0  0  0  0  0
   -0.1867    3.3006    1.0157 H   0  0  0  0  0  0  0  0  0  0  0  0
   -0.0262    1.4127    0.0002 C   0  0  0  0  0  0  0  0  0  0  0  0
   -1.2076    0.6543    0.0272 C   0  0  0  0  0  0  0  0  0  0  0  0
   -2.0878    1.1387    0.0662 H   0  0  0  0  0  0  0  0  0  0  0  0
   -1.1971   -0.7244   -0.0000 C   0  0  0  0  0  0  0  0  0  0  0  0
   -2.0511   -1.2449    0.0002 H   0  0  0  0  0  0  0  0  0  0  0  0
    0.0435   -1.4144   -0.0270 C   0  0  0  0  0  0  0  0  0  0  0  0
    0.0537   -2.3949   -0.0640 H   0  0  0  0  0  0  0  0  0  0  0  0
    1.1971   -0.6617   -0.0000 C   0  0  0  0  0  0  0  0  0  0  0  0
    2.1138   -1.1391    0.0230 H   0  0  0  0  0  0  0  0  0  0  0  0
    1.1903    0.7336   -0.0005 C   0  0  0  0  0  0  0  0  0  0  0  0
    2.0434    1.2356   -0.0022 H   0  0  0  0  0  0  0  0  0  0  0  0
  1  5  1  0
  5  8  1  0
  1  2  1  0
  1  3  1  0
  1  4  1  0
  5  6  1  0
  5  7  1  0
  8  9  1  0
  8 10  1  0
  8 11  1  0
 12 16  1  0
 16 17  2  0
 17 19  1  0
 19 21  2  0
 21 23  1  0
 23 25  2  0
 25 16  1  0
 12 13  1  0
 12 14  1  0
 12 15  1  0
 17 18  1  0
 19 20  1  0
 21 22  1  0
 23 24  1  0
 25 26  1  0
M  CHG  1   8   1
M  END
>  <PDB_ID>  (2641) 
pdb3uvk

>  <RESIDUE_NAME>  (2641) 
LYS   PHE

>  <FRAG_NAME>  (2641) 
ETAM   MBZ

>  <FRAG_ATOM_NUM>  (2641) 
fragi: 11  fragj: 15

>  <atom.prop.CHAIN_ID>  (2641) 
A A A A A A A A A A A Z Z Z Z Z Z Z Z Z Z Z Z Z Z Z

>  <atom.prop.IS_HEAVY_ATOM>  (2641) 
1 0 0 0 1 0 0 1 0 0 0 1 0 0 0 1 1 0 1 0 1 0 1 0 1 0

>  <DIFUSE_FUNC_ATOM>  (2641) 
n/a

>  <FINAL_SINGLE_POINT_ENERGY>  (2641) 
0

>  <NONCOV_INTER_ENERGY_QM>  (2641) 
0

>  <FF_Energy>  (2641) 
-1.25

>  <QM_Energy>  (2641) 
-6.53

>  <source>  (2641) 
ETAM_MBZ

>  <Index>  (2641) 
28132

$$$$
ETAM-pdb3us8-B-LYS-393:MBZ-pdb3us8-B-PHE-369
     RDKit          3D

 26 25  0  0  0  0  0  0  0  0999 V2000
   -0.1210    0.6659    4.3221 C   0  0  0  0  0  0  0  0  0  0  0  0
    0.3598    0.4633    5.1696 H   0  0  0  0  0  0  0  0  0  0  0  0
   -1.0868    0.4416    4.4117 H   0  0  0  0  0  0  0  0  0  0  0  0
   -0.0250    1.7306    4.1093 H   0  0  0  0  0  0  0  0  0  0  0  0
    0.4753   -0.1976    3.2099 C   0  0  0  0  0  0  0  0  0  0  0  0
    0.0735    0.0979    2.3187 H   0  0  0  0  0  0  0  0  0  0  0  0
    1.4760   -0.0039    3.1492 H   0  0  0  0  0  0  0  0  0  0  0  0
    0.2892   -1.6881    3.3420 N   0  0  0  0  0  4  0  0  0  0  0  0
   -0.4944   -1.8634    3.9313 H   0  0  0  0  0  0  0  0  0  0  0  0
    0.1308   -2.0745    2.4375 H   0  0  0  0  0  0  0  0  0  0  0  0
    1.1129   -2.0812    3.7426 H   0  0  0  0  0  0  0  0  0  0  0  0
    0.0199    2.9144    0.0208 C   0  0  0  0  0  0  0  0  0  0  0  0
    0.9213    3.2072    0.3033 H   0  0  0  0  0  0  0  0  0  0  0  0
   -0.6735    3.2220    0.6557 H   0  0  0  0  0  0  0  0  0  0  0  0
   -0.1900    3.3684   -0.9477 H   0  0  0  0  0  0  0  0  0  0  0  0
    0.0022    1.4131    0.0034 C   0  0  0  0  0  0  0  0  0  0  0  0
   -1.2042    0.7180    0.0070 C   0  0  0  0  0  0  0  0  0  0  0  0
   -2.0651    1.2034    0.0130 H   0  0  0  0  0  0  0  0  0  0  0  0
   -1.2097   -0.6897    0.0000 C   0  0  0  0  0  0  0  0  0  0  0  0
   -2.0914   -1.1737   -0.0002 H   0  0  0  0  0  0  0  0  0  0  0  0
   -0.0108   -1.3989   -0.0040 C   0  0  0  0  0  0  0  0  0  0  0  0
   -0.0270   -2.3993   -0.0100 H   0  0  0  0  0  0  0  0  0  0  0  0
    1.2097   -0.7216   -0.0000 C   0  0  0  0  0  0  0  0  0  0  0  0
    2.0785   -1.2250    0.0084 H   0  0  0  0  0  0  0  0  0  0  0  0
    1.2129    0.6791   -0.0064 C   0  0  0  0  0  0  0  0  0  0  0  0
    2.0781    1.1733   -0.0186 H   0  0  0  0  0  0  0  0  0  0  0  0
  1  5  1  0
  5  8  1  0
  1  2  1  0
  1  3  1  0
  1  4  1  0
  5  6  1  0
  5  7  1  0
  8  9  1  0
  8 10  1  0
  8 11  1  0
 12 16  1  0
 16 17  2  0
 17 19  1  0
 19 21  2  0
 21 23  1  0
 23 25  2  0
 25 16  1  0
 12 13  1  0
 12 14  1  0
 12 15  1  0
 17 18  1  0
 19 20  1  0
 21 22  1  0
 23 24  1  0
 25 26  1  0
M  CHG  1   8   1
M  END
>  <PDB_ID>  (2642) 
pdb3us8

>  <RESIDUE_NAME>  (2642) 
LYS   PHE

>  <FRAG_NAME>  (2642) 
ETAM   MBZ

>  <FRAG_ATOM_NUM>  (2642) 
fragi: 11  fragj: 15

>  <atom.prop.CHAIN_ID>  (2642) 
A A A A A A A A A A A Z Z Z Z Z Z Z Z Z Z Z Z Z Z Z

>  <atom.prop.IS_HEAVY_ATOM>  (2642) 
1 0 0 0 1 0 0 1 0 0 0 1 0 0 0 1 1 0 1 0 1 0 1 0 1 0

>  <DIFUSE_FUNC_ATOM>  (2642) 
n/a

>  <FINAL_SINGLE_POINT_ENERGY>  (2642) 
0

>  <NONCOV_INTER_ENERGY_QM>  (2642) 
0

>  <FF_Energy>  (2642) 
-5.08

>  <QM_Energy>  (2642) 
-13.86

>  <source>  (2642) 
ETAM_MBZ

>  <Index>  (2642) 
28194

$$$$
ETAM-pdb3usu-A-LYS-13:MBZ-pdb3usu-D-PHE-240
     RDKit          3D

 26 25  0  0  0  0  0  0  0  0999 V2000
   -1.3498   -5.0808    2.1601 C   0  0  0  0  0  0  0  0  0  0  0  0
   -0.5051   -5.5855    2.1875 H   0  0  0  0  0  0  0  0  0  0  0  0
   -2.0408   -5.5423    1.6314 H   0  0  0  0  0  0  0  0  0  0  0  0
   -1.7127   -4.9317    3.1770 H   0  0  0  0  0  0  0  0  0  0  0  0
   -1.0918   -3.7274    1.5523 C   0  0  0  0  0  0  0  0  0  0  0  0
   -1.6606   -3.0440    2.0138 H   0  0  0  0  0  0  0  0  0  0  0  0
   -0.1266   -3.4885    1.6738 H   0  0  0  0  0  0  0  0  0  0  0  0
   -1.4128   -3.7275    0.1026 N   0  0  0  0  0  4  0  0  0  0  0  0
   -1.6865   -2.8072   -0.1784 H   0  0  0  0  0  0  0  0  0  0  0  0
   -0.6056   -4.0090   -0.4170 H   0  0  0  0  0  0  0  0  0  0  0  0
   -2.1622   -4.3665   -0.0730 H   0  0  0  0  0  0  0  0  0  0  0  0
    0.0128    2.8781   -0.0178 C   0  0  0  0  0  0  0  0  0  0  0  0
    0.7782    3.1899    0.5195 H   0  0  0  0  0  0  0  0  0  0  0  0
   -0.8456    3.2005    0.3433 H   0  0  0  0  0  0  0  0  0  0  0  0
    0.1248    3.2717   -1.0280 H   0  0  0  0  0  0  0  0  0  0  0  0
   -0.0003    1.3858    0.0124 C   0  0  0  0  0  0  0  0  0  0  0  0
   -1.1823    0.7015   -0.0123 C   0  0  0  0  0  0  0  0  0  0  0  0
   -2.0517    1.1884   -0.0402 H   0  0  0  0  0  0  0  0  0  0  0  0
   -1.1862   -0.6839    0.0000 C   0  0  0  0  0  0  0  0  0  0  0  0
   -2.0713   -1.1735   -0.0003 H   0  0  0  0  0  0  0  0  0  0  0  0
   -0.0025   -1.3773    0.0137 C   0  0  0  0  0  0  0  0  0  0  0  0
   -0.0113   -2.3813    0.0329 H   0  0  0  0  0  0  0  0  0  0  0  0
    1.1862   -0.6956    0.0000 C   0  0  0  0  0  0  0  0  0  0  0  0
    2.0695   -1.2029    0.0011 H   0  0  0  0  0  0  0  0  0  0  0  0
    1.1851    0.6694   -0.0138 C   0  0  0  0  0  0  0  0  0  0  0  0
    2.0573    1.1726   -0.0438 H   0  0  0  0  0  0  0  0  0  0  0  0
  1  5  1  0
  5  8  1  0
  1  2  1  0
  1  3  1  0
  1  4  1  0
  5  6  1  0
  5  7  1  0
  8  9  1  0
  8 10  1  0
  8 11  1  0
 12 16  1  0
 16 17  2  0
 17 19  1  0
 19 21  2  0
 21 23  1  0
 23 25  2  0
 25 16  1  0
 12 13  1  0
 12 14  1  0
 12 15  1  0
 17 18  1  0
 19 20  1  0
 21 22  1  0
 23 24  1  0
 25 26  1  0
M  CHG  1   8   1
M  END
>  <PDB_ID>  (2643) 
pdb3usu

>  <RESIDUE_NAME>  (2643) 
LYS   PHE

>  <FRAG_NAME>  (2643) 
ETAM   MBZ

>  <FRAG_ATOM_NUM>  (2643) 
fragi: 11  fragj: 15

>  <atom.prop.CHAIN_ID>  (2643) 
A A A A A A A A A A A Z Z Z Z Z Z Z Z Z Z Z Z Z Z Z

>  <atom.prop.IS_HEAVY_ATOM>  (2643) 
1 0 0 0 1 0 0 1 0 0 0 1 0 0 0 1 1 0 1 0 1 0 1 0 1 0

>  <DIFUSE_FUNC_ATOM>  (2643) 
n/a

>  <FINAL_SINGLE_POINT_ENERGY>  (2643) 
0

>  <NONCOV_INTER_ENERGY_QM>  (2643) 
0

>  <FF_Energy>  (2643) 
41.76

>  <QM_Energy>  (2643) 
3.73

>  <source>  (2643) 
ETAM_MBZ

>  <Index>  (2643) 
28205

$$$$
ETAM-pdb3v10-A-LYS-238:MBZ-pdb3v10-A-PHE-299
     RDKit          3D

 26 25  0  0  0  0  0  0  0  0999 V2000
    4.1263   -0.3769   -3.0616 C   0  0  0  0  0  0  0  0  0  0  0  0
    4.4732    0.4832   -3.4189 H   0  0  0  0  0  0  0  0  0  0  0  0
    4.6158   -1.1432   -3.4615 H   0  0  0  0  0  0  0  0  0  0  0  0
    4.2712   -0.3920   -1.9814 H   0  0  0  0  0  0  0  0  0  0  0  0
    2.6542   -0.4967   -3.4260 C   0  0  0  0  0  0  0  0  0  0  0  0
    2.2015    0.3769   -3.2395 H   0  0  0  0  0  0  0  0  0  0  0  0
    2.5770   -0.7040   -4.4035 H   0  0  0  0  0  0  0  0  0  0  0  0
    1.9883   -1.5708   -2.6429 N   0  0  0  0  0  4  0  0  0  0  0  0
    1.1058   -1.7883   -3.0604 H   0  0  0  0  0  0  0  0  0  0  0  0
    2.5666   -2.3871   -2.6393 H   0  0  0  0  0  0  0  0  0  0  0  0
    1.8464   -1.2578   -1.7036 H   0  0  0  0  0  0  0  0  0  0  0  0
    0.0081    2.8956   -0.0412 C   0  0  0  0  0  0  0  0  0  0  0  0
   -0.6525    3.1920   -0.7187 H   0  0  0  0  0  0  0  0  0  0  0  0
    0.9221    3.1929   -0.2854 H   0  0  0  0  0  0  0  0  0  0  0  0
   -0.2523    3.3742    0.9029 H   0  0  0  0  0  0  0  0  0  0  0  0
   -0.0019    1.3993   -0.0005 C   0  0  0  0  0  0  0  0  0  0  0  0
   -1.2004    0.6922    0.0016 C   0  0  0  0  0  0  0  0  0  0  0  0
   -2.0659    1.1820    0.0034 H   0  0  0  0  0  0  0  0  0  0  0  0
   -1.2028   -0.6991    0.0000 C   0  0  0  0  0  0  0  0  0  0  0  0
   -2.0753   -1.1969    0.0025 H   0  0  0  0  0  0  0  0  0  0  0  0
    0.0062   -1.3921   -0.0028 C   0  0  0  0  0  0  0  0  0  0  0  0
    0.0037   -2.3909   -0.0079 H   0  0  0  0  0  0  0  0  0  0  0  0
    1.2028   -0.6920   -0.0000 C   0  0  0  0  0  0  0  0  0  0  0  0
    2.0866   -1.1901    0.0023 H   0  0  0  0  0  0  0  0  0  0  0  0
    1.1961    0.6917    0.0018 C   0  0  0  0  0  0  0  0  0  0  0  0
    2.0626    1.1933    0.0036 H   0  0  0  0  0  0  0  0  0  0  0  0
  1  5  1  0
  5  8  1  0
  1  2  1  0
  1  3  1  0
  1  4  1  0
  5  6  1  0
  5  7  1  0
  8  9  1  0
  8 10  1  0
  8 11  1  0
 12 16  1  0
 16 17  2  0
 17 19  1  0
 19 21  2  0
 21 23  1  0
 23 25  2  0
 25 16  1  0
 12 13  1  0
 12 14  1  0
 12 15  1  0
 17 18  1  0
 19 20  1  0
 21 22  1  0
 23 24  1  0
 25 26  1  0
M  CHG  1   8   1
M  END
>  <PDB_ID>  (2644) 
pdb3v10

>  <RESIDUE_NAME>  (2644) 
LYS   PHE

>  <FRAG_NAME>  (2644) 
ETAM   MBZ

>  <FRAG_ATOM_NUM>  (2644) 
fragi: 11  fragj: 15

>  <atom.prop.CHAIN_ID>  (2644) 
A A A A A A A A A A A Z Z Z Z Z Z Z Z Z Z Z Z Z Z Z

>  <atom.prop.IS_HEAVY_ATOM>  (2644) 
1 0 0 0 1 0 0 1 0 0 0 1 0 0 0 1 1 0 1 0 1 0 1 0 1 0

>  <DIFUSE_FUNC_ATOM>  (2644) 
n/a

>  <FINAL_SINGLE_POINT_ENERGY>  (2644) 
0

>  <NONCOV_INTER_ENERGY_QM>  (2644) 
0

>  <FF_Energy>  (2644) 
-2.24

>  <QM_Energy>  (2644) 
-10.27

>  <source>  (2644) 
ETAM_MBZ

>  <Index>  (2644) 
28214

$$$$
ETAM-pdb3v10-A-LYS-301:MBZ-pdb3v10-A-PHE-338
     RDKit          3D

 26 25  0  0  0  0  0  0  0  0999 V2000
   -0.0434   -0.0756    3.0099 C   0  0  0  0  0  0  0  0  0  0  0  0
   -0.9102    0.3300    2.7164 H   0  0  0  0  0  0  0  0  0  0  0  0
    0.5422   -0.2220    2.2123 H   0  0  0  0  0  0  0  0  0  0  0  0
    0.4544    0.5986    3.7068 H   0  0  0  0  0  0  0  0  0  0  0  0
   -0.3727   -1.4912    3.6087 C   0  0  0  0  0  0  0  0  0  0  0  0
   -0.6905   -1.3465    4.5800 H   0  0  0  0  0  0  0  0  0  0  0  0
   -1.2070   -1.8465    3.1144 H   0  0  0  0  0  0  0  0  0  0  0  0
    0.6810   -2.5817    3.6089 N   0  0  0  0  0  4  0  0  0  0  0  0
    0.3578   -3.3350    4.1736 H   0  0  0  0  0  0  0  0  0  0  0  0
    0.8217   -2.8872    2.6720 H   0  0  0  0  0  0  0  0  0  0  0  0
    1.5251   -2.2081    3.9810 H   0  0  0  0  0  0  0  0  0  0  0  0
    0.0000    2.9142    0.0341 C   0  0  0  0  0  0  0  0  0  0  0  0
    0.9178    3.2149    0.2476 H   0  0  0  0  0  0  0  0  0  0  0  0
   -0.6435    3.2041    0.7274 H   0  0  0  0  0  0  0  0  0  0  0  0
   -0.2928    3.3802   -0.9068 H   0  0  0  0  0  0  0  0  0  0  0  0
    0.0007    1.4076    0.0002 C   0  0  0  0  0  0  0  0  0  0  0  0
   -1.1978    0.6968   -0.0015 C   0  0  0  0  0  0  0  0  0  0  0  0
   -2.0645    1.1835   -0.0048 H   0  0  0  0  0  0  0  0  0  0  0  0
   -1.2041   -0.7040   -0.0000 C   0  0  0  0  0  0  0  0  0  0  0  0
   -2.0802   -1.1931    0.0006 H   0  0  0  0  0  0  0  0  0  0  0  0
    0.0008   -1.4019    0.0020 C   0  0  0  0  0  0  0  0  0  0  0  0
   -0.0011   -2.3981    0.0043 H   0  0  0  0  0  0  0  0  0  0  0  0
    1.2041   -0.6989    0.0000 C   0  0  0  0  0  0  0  0  0  0  0  0
    2.0856   -1.1917    0.0009 H   0  0  0  0  0  0  0  0  0  0  0  0
    1.1963    0.7005   -0.0007 C   0  0  0  0  0  0  0  0  0  0  0  0
    2.0654    1.1936   -0.0023 H   0  0  0  0  0  0  0  0  0  0  0  0
  1  5  1  0
  5  8  1  0
  1  2  1  0
  1  3  1  0
  1  4  1  0
  5  6  1  0
  5  7  1  0
  8  9  1  0
  8 10  1  0
  8 11  1  0
 12 16  1  0
 16 17  2  0
 17 19  1  0
 19 21  2  0
 21 23  1  0
 23 25  2  0
 25 16  1  0
 12 13  1  0
 12 14  1  0
 12 15  1  0
 17 18  1  0
 19 20  1  0
 21 22  1  0
 23 24  1  0
 25 26  1  0
M  CHG  1   8   1
M  END
>  <PDB_ID>  (2645) 
pdb3v10

>  <RESIDUE_NAME>  (2645) 
LYS   PHE

>  <FRAG_NAME>  (2645) 
ETAM   MBZ

>  <FRAG_ATOM_NUM>  (2645) 
fragi: 11  fragj: 15

>  <atom.prop.CHAIN_ID>  (2645) 
A A A A A A A A A A A Z Z Z Z Z Z Z Z Z Z Z Z Z Z Z

>  <atom.prop.IS_HEAVY_ATOM>  (2645) 
1 0 0 0 1 0 0 1 0 0 0 1 0 0 0 1 1 0 1 0 1 0 1 0 1 0

>  <DIFUSE_FUNC_ATOM>  (2645) 
n/a

>  <FINAL_SINGLE_POINT_ENERGY>  (2645) 
0

>  <NONCOV_INTER_ENERGY_QM>  (2645) 
0

>  <FF_Energy>  (2645) 
0.95

>  <QM_Energy>  (2645) 
-7.82

>  <source>  (2645) 
ETAM_MBZ

>  <Index>  (2645) 
28215

$$$$
ETAM-pdb4v01-A-LYS-714:MBZ-pdb4v01-A-PHE-673
     RDKit          3D

 26 25  0  0  0  0  0  0  0  0999 V2000
    1.5614   -1.4157    4.0146 C   0  0  0  0  0  0  0  0  0  0  0  0
    1.8896   -1.1376    4.9081 H   0  0  0  0  0  0  0  0  0  0  0  0
    2.2560   -1.2720    3.3216 H   0  0  0  0  0  0  0  0  0  0  0  0
    1.3011   -2.4738    4.0447 H   0  0  0  0  0  0  0  0  0  0  0  0
    0.3445   -0.5812    3.6631 C   0  0  0  0  0  0  0  0  0  0  0  0
    0.0166   -0.8470    2.7491 H   0  0  0  0  0  0  0  0  0  0  0  0
   -0.3874   -0.7707    4.3288 H   0  0  0  0  0  0  0  0  0  0  0  0
    0.6319    0.8849    3.6651 N   0  0  0  0  0  4  0  0  0  0  0  0
    1.6175    1.0267    3.7464 H   0  0  0  0  0  0  0  0  0  0  0  0
    0.3026    1.2851    2.8118 H   0  0  0  0  0  0  0  0  0  0  0  0
    0.1658    1.3102    4.4385 H   0  0  0  0  0  0  0  0  0  0  0  0
    0.0028    2.9317    0.0188 C   0  0  0  0  0  0  0  0  0  0  0  0
    0.9382    3.2329   -0.0753 H   0  0  0  0  0  0  0  0  0  0  0  0
   -0.3860    3.2172    0.8802 H   0  0  0  0  0  0  0  0  0  0  0  0
   -0.5788    3.3923   -0.7798 H   0  0  0  0  0  0  0  0  0  0  0  0
    0.0016    1.4103   -0.0078 C   0  0  0  0  0  0  0  0  0  0  0  0
   -1.1966    0.6938    0.0222 C   0  0  0  0  0  0  0  0  0  0  0  0
   -2.0635    1.1759    0.0584 H   0  0  0  0  0  0  0  0  0  0  0  0
   -1.1932   -0.7056   -0.0000 C   0  0  0  0  0  0  0  0  0  0  0  0
   -2.0725   -1.1963   -0.0048 H   0  0  0  0  0  0  0  0  0  0  0  0
    0.0021   -1.3918   -0.0136 C   0  0  0  0  0  0  0  0  0  0  0  0
   -0.0009   -2.3962   -0.0337 H   0  0  0  0  0  0  0  0  0  0  0  0
    1.1932   -0.7030    0.0000 C   0  0  0  0  0  0  0  0  0  0  0  0
    2.0799   -1.1950    0.0124 H   0  0  0  0  0  0  0  0  0  0  0  0
    1.1929    0.6964   -0.0007 C   0  0  0  0  0  0  0  0  0  0  0  0
    2.0656    1.1843    0.0031 H   0  0  0  0  0  0  0  0  0  0  0  0
  1  5  1  0
  5  8  1  0
  1  2  1  0
  1  3  1  0
  1  4  1  0
  5  6  1  0
  5  7  1  0
  8  9  1  0
  8 10  1  0
  8 11  1  0
 12 16  1  0
 16 17  2  0
 17 19  1  0
 19 21  2  0
 21 23  1  0
 23 25  2  0
 25 16  1  0
 12 13  1  0
 12 14  1  0
 12 15  1  0
 17 18  1  0
 19 20  1  0
 21 22  1  0
 23 24  1  0
 25 26  1  0
M  CHG  1   8   1
M  END
>  <PDB_ID>  (2646) 
pdb4v01

>  <RESIDUE_NAME>  (2646) 
LYS   PHE

>  <FRAG_NAME>  (2646) 
ETAM   MBZ

>  <FRAG_ATOM_NUM>  (2646) 
fragi: 11  fragj: 15

>  <atom.prop.CHAIN_ID>  (2646) 
A A A A A A A A A A A Z Z Z Z Z Z Z Z Z Z Z Z Z Z Z

>  <atom.prop.IS_HEAVY_ATOM>  (2646) 
1 0 0 0 1 0 0 1 0 0 0 1 0 0 0 1 1 0 1 0 1 0 1 0 1 0

>  <DIFUSE_FUNC_ATOM>  (2646) 
n/a

>  <FINAL_SINGLE_POINT_ENERGY>  (2646) 
0

>  <NONCOV_INTER_ENERGY_QM>  (2646) 
0

>  <FF_Energy>  (2646) 
-7.53

>  <QM_Energy>  (2646) 
-12.83

>  <source>  (2646) 
ETAM_MBZ

>  <Index>  (2646) 
28222

$$$$
ETAM-pdb3v32-B-LYS-184:MBZ-pdb3v32-B-PHE-210
     RDKit          3D

 26 25  0  0  0  0  0  0  0  0999 V2000
    1.1922   -1.3327    3.1245 C   0  0  0  0  0  0  0  0  0  0  0  0
    1.8761   -1.8534    3.6234 H   0  0  0  0  0  0  0  0  0  0  0  0
    1.5210   -1.1061    2.2145 H   0  0  0  0  0  0  0  0  0  0  0  0
    0.2896   -1.9370    3.0327 H   0  0  0  0  0  0  0  0  0  0  0  0
    0.9210   -0.0374    3.8796 C   0  0  0  0  0  0  0  0  0  0  0  0
    0.1768    0.4581    3.4200 H   0  0  0  0  0  0  0  0  0  0  0  0
    0.6284   -0.2598    4.8152 H   0  0  0  0  0  0  0  0  0  0  0  0
    2.1260    0.8497    3.9466 N   0  0  0  0  0  4  0  0  0  0  0  0
    2.5129    0.9442    3.0320 H   0  0  0  0  0  0  0  0  0  0  0  0
    1.8544    1.7452    4.2935 H   0  0  0  0  0  0  0  0  0  0  0  0
    2.7997    0.4408    4.5589 H   0  0  0  0  0  0  0  0  0  0  0  0
   -0.0059    2.8962    0.0084 C   0  0  0  0  0  0  0  0  0  0  0  0
    0.9315    3.2050    0.0530 H   0  0  0  0  0  0  0  0  0  0  0  0
   -0.5216    3.1937    0.7975 H   0  0  0  0  0  0  0  0  0  0  0  0
   -0.4626    3.3408   -0.8759 H   0  0  0  0  0  0  0  0  0  0  0  0
   -0.0001    1.3928   -0.0033 C   0  0  0  0  0  0  0  0  0  0  0  0
   -1.1948    0.6808    0.0019 C   0  0  0  0  0  0  0  0  0  0  0  0
   -2.0611    1.1790    0.0058 H   0  0  0  0  0  0  0  0  0  0  0  0
   -1.1954   -0.6896   -0.0000 C   0  0  0  0  0  0  0  0  0  0  0  0
   -2.0706   -1.1951    0.0035 H   0  0  0  0  0  0  0  0  0  0  0  0
    0.0052   -1.3835   -0.0046 C   0  0  0  0  0  0  0  0  0  0  0  0
   -0.0011   -2.3840   -0.0116 H   0  0  0  0  0  0  0  0  0  0  0  0
    1.1954   -0.6900   -0.0000 C   0  0  0  0  0  0  0  0  0  0  0  0
    2.0807   -1.1880    0.0007 H   0  0  0  0  0  0  0  0  0  0  0  0
    1.1898    0.6896    0.0059 C   0  0  0  0  0  0  0  0  0  0  0  0
    2.0590    1.1891    0.0163 H   0  0  0  0  0  0  0  0  0  0  0  0
  1  5  1  0
  5  8  1  0
  1  2  1  0
  1  3  1  0
  1  4  1  0
  5  6  1  0
  5  7  1  0
  8  9  1  0
  8 10  1  0
  8 11  1  0
 12 16  1  0
 16 17  2  0
 17 19  1  0
 19 21  2  0
 21 23  1  0
 23 25  2  0
 25 16  1  0
 12 13  1  0
 12 14  1  0
 12 15  1  0
 17 18  1  0
 19 20  1  0
 21 22  1  0
 23 24  1  0
 25 26  1  0
M  CHG  1   8   1
M  END
>  <PDB_ID>  (2647) 
pdb3v32

>  <RESIDUE_NAME>  (2647) 
LYS   PHE

>  <FRAG_NAME>  (2647) 
ETAM   MBZ

>  <FRAG_ATOM_NUM>  (2647) 
fragi: 11  fragj: 15

>  <atom.prop.CHAIN_ID>  (2647) 
A A A A A A A A A A A Z Z Z Z Z Z Z Z Z Z Z Z Z Z Z

>  <atom.prop.IS_HEAVY_ATOM>  (2647) 
1 0 0 0 1 0 0 1 0 0 0 1 0 0 0 1 1 0 1 0 1 0 1 0 1 0

>  <DIFUSE_FUNC_ATOM>  (2647) 
n/a

>  <FINAL_SINGLE_POINT_ENERGY>  (2647) 
0

>  <NONCOV_INTER_ENERGY_QM>  (2647) 
0

>  <FF_Energy>  (2647) 
-0.78

>  <QM_Energy>  (2647) 
-6.16

>  <source>  (2647) 
ETAM_MBZ

>  <Index>  (2647) 
28234

$$$$
ETAM-pdb3v3e-A-LYS-246:MBZ-pdb3v3e-A-PHE-261
     RDKit          3D

 26 25  0  0  0  0  0  0  0  0999 V2000
    2.8015   -2.2480   -3.3609 C   0  0  0  0  0  0  0  0  0  0  0  0
    3.4754   -2.8364   -2.9013 H   0  0  0  0  0  0  0  0  0  0  0  0
    3.1893   -1.3237   -3.4465 H   0  0  0  0  0  0  0  0  0  0  0  0
    2.5896   -2.6455   -4.3534 H   0  0  0  0  0  0  0  0  0  0  0  0
    1.5588   -2.1348   -2.3969 C   0  0  0  0  0  0  0  0  0  0  0  0
    1.8245   -1.5575   -1.6223 H   0  0  0  0  0  0  0  0  0  0  0  0
    0.8187   -1.6862   -2.9018 H   0  0  0  0  0  0  0  0  0  0  0  0
    1.0749   -3.4717   -1.8810 N   0  0  0  0  0  4  0  0  0  0  0  0
    0.0943   -3.5397   -2.0405 H   0  0  0  0  0  0  0  0  0  0  0  0
    1.5534   -4.1954   -2.3708 H   0  0  0  0  0  0  0  0  0  0  0  0
    1.2706   -3.5287   -0.9073 H   0  0  0  0  0  0  0  0  0  0  0  0
   -0.0148    2.9052    0.0004 C   0  0  0  0  0  0  0  0  0  0  0  0
   -0.8287    3.2148   -0.4610 H   0  0  0  0  0  0  0  0  0  0  0  0
    0.8047    3.2273   -0.4425 H   0  0  0  0  0  0  0  0  0  0  0  0
   -0.0291    3.3506    0.9951 H   0  0  0  0  0  0  0  0  0  0  0  0
   -0.0031    1.3938   -0.0060 C   0  0  0  0  0  0  0  0  0  0  0  0
   -1.2067    0.6901    0.0039 C   0  0  0  0  0  0  0  0  0  0  0  0
   -2.0664    1.2028    0.0128 H   0  0  0  0  0  0  0  0  0  0  0  0
   -1.2238   -0.6708    0.0000 C   0  0  0  0  0  0  0  0  0  0  0  0
   -2.0963   -1.1752   -0.0011 H   0  0  0  0  0  0  0  0  0  0  0  0
   -0.0183   -1.3793   -0.0004 C   0  0  0  0  0  0  0  0  0  0  0  0
   -0.0388   -2.3853   -0.0008 H   0  0  0  0  0  0  0  0  0  0  0  0
    1.2238   -0.7170   -0.0000 C   0  0  0  0  0  0  0  0  0  0  0  0
    2.0777   -1.2288    0.0000 H   0  0  0  0  0  0  0  0  0  0  0  0
    1.2281    0.6832    0.0024 C   0  0  0  0  0  0  0  0  0  0  0  0
    2.0779    1.1835    0.0094 H   0  0  0  0  0  0  0  0  0  0  0  0
  1  5  1  0
  5  8  1  0
  1  2  1  0
  1  3  1  0
  1  4  1  0
  5  6  1  0
  5  7  1  0
  8  9  1  0
  8 10  1  0
  8 11  1  0
 12 16  1  0
 16 17  2  0
 17 19  1  0
 19 21  2  0
 21 23  1  0
 23 25  2  0
 25 16  1  0
 12 13  1  0
 12 14  1  0
 12 15  1  0
 17 18  1  0
 19 20  1  0
 21 22  1  0
 23 24  1  0
 25 26  1  0
M  CHG  1   8   1
M  END
>  <PDB_ID>  (2648) 
pdb3v3e

>  <RESIDUE_NAME>  (2648) 
LYS   PHE

>  <FRAG_NAME>  (2648) 
ETAM   MBZ

>  <FRAG_ATOM_NUM>  (2648) 
fragi: 11  fragj: 15

>  <atom.prop.CHAIN_ID>  (2648) 
A A A A A A A A A A A Z Z Z Z Z Z Z Z Z Z Z Z Z Z Z

>  <atom.prop.IS_HEAVY_ATOM>  (2648) 
1 0 0 0 1 0 0 1 0 0 0 1 0 0 0 1 1 0 1 0 1 0 1 0 1 0

>  <DIFUSE_FUNC_ATOM>  (2648) 
n/a

>  <FINAL_SINGLE_POINT_ENERGY>  (2648) 
0

>  <NONCOV_INTER_ENERGY_QM>  (2648) 
0

>  <FF_Energy>  (2648) 
49.57

>  <QM_Energy>  (2648) 
3.25

>  <source>  (2648) 
ETAM_MBZ

>  <Index>  (2648) 
28241

$$$$
ETAM-pdb4v3k-F-LYS-442:MBZ-pdb4v3k-D-PHE-62
     RDKit          3D

 26 25  0  0  0  0  0  0  0  0999 V2000
    0.3815   -0.4981    3.3499 C   0  0  0  0  0  0  0  0  0  0  0  0
    0.2620   -0.5522    2.3593 H   0  0  0  0  0  0  0  0  0  0  0  0
    0.8195    0.3669    3.5892 H   0  0  0  0  0  0  0  0  0  0  0  0
   -0.6006   -0.5337    3.8216 H   0  0  0  0  0  0  0  0  0  0  0  0
    1.2788   -1.6370    3.7931 C   0  0  0  0  0  0  0  0  0  0  0  0
    1.2132   -1.7411    4.7829 H   0  0  0  0  0  0  0  0  0  0  0  0
    0.9875   -2.4793    3.3446 H   0  0  0  0  0  0  0  0  0  0  0  0
    2.7027   -1.3559    3.4254 N   0  0  0  0  0  4  0  0  0  0  0  0
    2.9055   -1.7885    2.5489 H   0  0  0  0  0  0  0  0  0  0  0  0
    2.8336   -0.3688    3.3544 H   0  0  0  0  0  0  0  0  0  0  0  0
    3.3025   -1.7265    4.1319 H   0  0  0  0  0  0  0  0  0  0  0  0
   -0.0059    2.8985   -0.0533 C   0  0  0  0  0  0  0  0  0  0  0  0
    0.8651    3.2275    0.2518 H   0  0  0  0  0  0  0  0  0  0  0  0
   -0.7491    3.2281    0.4936 H   0  0  0  0  0  0  0  0  0  0  0  0
   -0.1577    3.2621   -1.0695 H   0  0  0  0  0  0  0  0  0  0  0  0
    0.0031    1.3975    0.0140 C   0  0  0  0  0  0  0  0  0  0  0  0
   -1.1999    0.6826   -0.0068 C   0  0  0  0  0  0  0  0  0  0  0  0
   -2.0634    1.1782   -0.0277 H   0  0  0  0  0  0  0  0  0  0  0  0
   -1.2026   -0.7001   -0.0000 C   0  0  0  0  0  0  0  0  0  0  0  0
   -2.0774   -1.1986    0.0030 H   0  0  0  0  0  0  0  0  0  0  0  0
   -0.0013   -1.3895    0.0039 C   0  0  0  0  0  0  0  0  0  0  0  0
    0.0030   -2.3879    0.0086 H   0  0  0  0  0  0  0  0  0  0  0  0
    1.2026   -0.6862    0.0000 C   0  0  0  0  0  0  0  0  0  0  0  0
    2.0831   -1.1889    0.0066 H   0  0  0  0  0  0  0  0  0  0  0  0
    1.1980    0.6957   -0.0112 C   0  0  0  0  0  0  0  0  0  0  0  0
    2.0645    1.1956   -0.0389 H   0  0  0  0  0  0  0  0  0  0  0  0
  1  5  1  0
  5  8  1  0
  1  2  1  0
  1  3  1  0
  1  4  1  0
  5  6  1  0
  5  7  1  0
  8  9  1  0
  8 10  1  0
  8 11  1  0
 12 16  1  0
 16 17  2  0
 17 19  1  0
 19 21  2  0
 21 23  1  0
 23 25  2  0
 25 16  1  0
 12 13  1  0
 12 14  1  0
 12 15  1  0
 17 18  1  0
 19 20  1  0
 21 22  1  0
 23 24  1  0
 25 26  1  0
M  CHG  1   8   1
M  END
>  <PDB_ID>  (2649) 
pdb4v3k

>  <RESIDUE_NAME>  (2649) 
LYS   PHE

>  <FRAG_NAME>  (2649) 
ETAM   MBZ

>  <FRAG_ATOM_NUM>  (2649) 
fragi: 11  fragj: 15

>  <atom.prop.CHAIN_ID>  (2649) 
A A A A A A A A A A A Z Z Z Z Z Z Z Z Z Z Z Z Z Z Z

>  <atom.prop.IS_HEAVY_ATOM>  (2649) 
1 0 0 0 1 0 0 1 0 0 0 1 0 0 0 1 1 0 1 0 1 0 1 0 1 0

>  <DIFUSE_FUNC_ATOM>  (2649) 
n/a

>  <FINAL_SINGLE_POINT_ENERGY>  (2649) 
0

>  <NONCOV_INTER_ENERGY_QM>  (2649) 
0

>  <FF_Energy>  (2649) 
-2.2

>  <QM_Energy>  (2649) 
-8.39

>  <source>  (2649) 
ETAM_MBZ

>  <Index>  (2649) 
28269

$$$$
ETAM-pdb4v36-C-LYS-816:MBZ-pdb4v36-C-PHE-813
     RDKit          3D

 26 25  0  0  0  0  0  0  0  0999 V2000
   -2.5562    1.8269    5.2852 C   0  0  0  0  0  0  0  0  0  0  0  0
   -3.1864    1.6619    6.0376 H   0  0  0  0  0  0  0  0  0  0  0  0
   -2.8979    2.5576    4.7029 H   0  0  0  0  0  0  0  0  0  0  0  0
   -1.5906    2.1246    5.6941 H   0  0  0  0  0  0  0  0  0  0  0  0
   -2.4450    0.5576    4.4572 C   0  0  0  0  0  0  0  0  0  0  0  0
   -2.0836   -0.1789    5.0370 H   0  0  0  0  0  0  0  0  0  0  0  0
   -3.3612    0.2951    4.1383 H   0  0  0  0  0  0  0  0  0  0  0  0
   -1.5515    0.7330    3.2796 N   0  0  0  0  0  4  0  0  0  0  0  0
   -2.0898    0.6573    2.4404 H   0  0  0  0  0  0  0  0  0  0  0  0
   -1.1207    1.6339    3.3214 H   0  0  0  0  0  0  0  0  0  0  0  0
   -0.8464    0.0244    3.2905 H   0  0  0  0  0  0  0  0  0  0  0  0
   -0.0013    2.8999    0.0007 C   0  0  0  0  0  0  0  0  0  0  0  0
   -0.7647    3.2046   -0.5475 H   0  0  0  0  0  0  0  0  0  0  0  0
    0.8589    3.2062   -0.3775 H   0  0  0  0  0  0  0  0  0  0  0  0
   -0.1053    3.3405    0.9923 H   0  0  0  0  0  0  0  0  0  0  0  0
   -0.0001    1.3953    0.0004 C   0  0  0  0  0  0  0  0  0  0  0  0
   -1.1908    0.6895   -0.0000 C   0  0  0  0  0  0  0  0  0  0  0  0
   -2.0591    1.1810   -0.0013 H   0  0  0  0  0  0  0  0  0  0  0  0
   -1.1937   -0.6929    0.0000 C   0  0  0  0  0  0  0  0  0  0  0  0
   -2.0731   -1.1883    0.0016 H   0  0  0  0  0  0  0  0  0  0  0  0
   -0.0004   -1.3845    0.0002 C   0  0  0  0  0  0  0  0  0  0  0  0
   -0.0049   -2.3864   -0.0004 H   0  0  0  0  0  0  0  0  0  0  0  0
    1.1937   -0.6943   -0.0000 C   0  0  0  0  0  0  0  0  0  0  0  0
    2.0767   -1.1947    0.0013 H   0  0  0  0  0  0  0  0  0  0  0  0
    1.1913    0.6868   -0.0006 C   0  0  0  0  0  0  0  0  0  0  0  0
    2.0613    1.1852   -0.0032 H   0  0  0  0  0  0  0  0  0  0  0  0
  1  5  1  0
  5  8  1  0
  1  2  1  0
  1  3  1  0
  1  4  1  0
  5  6  1  0
  5  7  1  0
  8  9  1  0
  8 10  1  0
  8 11  1  0
 12 16  1  0
 16 17  2  0
 17 19  1  0
 19 21  2  0
 21 23  1  0
 23 25  2  0
 25 16  1  0
 12 13  1  0
 12 14  1  0
 12 15  1  0
 17 18  1  0
 19 20  1  0
 21 22  1  0
 23 24  1  0
 25 26  1  0
M  CHG  1   8   1
M  END
>  <PDB_ID>  (2650) 
pdb4v36

>  <RESIDUE_NAME>  (2650) 
LYS   PHE

>  <FRAG_NAME>  (2650) 
ETAM   MBZ

>  <FRAG_ATOM_NUM>  (2650) 
fragi: 11  fragj: 15

>  <atom.prop.CHAIN_ID>  (2650) 
A A A A A A A A A A A Z Z Z Z Z Z Z Z Z Z Z Z Z Z Z

>  <atom.prop.IS_HEAVY_ATOM>  (2650) 
1 0 0 0 1 0 0 1 0 0 0 1 0 0 0 1 1 0 1 0 1 0 1 0 1 0

>  <DIFUSE_FUNC_ATOM>  (2650) 
n/a

>  <FINAL_SINGLE_POINT_ENERGY>  (2650) 
0

>  <NONCOV_INTER_ENERGY_QM>  (2650) 
0

>  <FF_Energy>  (2650) 
-5.82

>  <QM_Energy>  (2650) 
-11.09

>  <source>  (2650) 
ETAM_MBZ

>  <Index>  (2650) 
28297

$$$$
ETAM-pdb4w8o-B-LYS-170:MBZ-pdb4w8o-B-PHE-25
     RDKit          3D

 26 25  0  0  0  0  0  0  0  0999 V2000
    2.9919   -2.9500   -2.8059 C   0  0  0  0  0  0  0  0  0  0  0  0
    3.7891   -2.3651   -2.6751 H   0  0  0  0  0  0  0  0  0  0  0  0
    2.1635   -2.4558   -2.5535 H   0  0  0  0  0  0  0  0  0  0  0  0
    2.9296   -3.2238   -3.8591 H   0  0  0  0  0  0  0  0  0  0  0  0
    3.1272   -4.1655   -1.8945 C   0  0  0  0  0  0  0  0  0  0  0  0
    2.3673   -4.7931   -2.0762 H   0  0  0  0  0  0  0  0  0  0  0  0
    3.9914   -4.6311   -2.1004 H   0  0  0  0  0  0  0  0  0  0  0  0
    3.1110   -3.7848   -0.4491 N   0  0  0  0  0  4  0  0  0  0  0  0
    4.0264   -3.4918   -0.1764 H   0  0  0  0  0  0  0  0  0  0  0  0
    2.4632   -3.0373   -0.3138 H   0  0  0  0  0  0  0  0  0  0  0  0
    2.8326   -4.5740    0.0958 H   0  0  0  0  0  0  0  0  0  0  0  0
   -0.0049    2.9059   -0.0179 C   0  0  0  0  0  0  0  0  0  0  0  0
   -0.6913    3.1982   -0.6698 H   0  0  0  0  0  0  0  0  0  0  0  0
    0.8975    3.2078   -0.2936 H   0  0  0  0  0  0  0  0  0  0  0  0
   -0.2344    3.3729    0.9399 H   0  0  0  0  0  0  0  0  0  0  0  0
   -0.0011    1.3996    0.0078 C   0  0  0  0  0  0  0  0  0  0  0  0
   -1.1944    0.6883   -0.0075 C   0  0  0  0  0  0  0  0  0  0  0  0
   -2.0624    1.1804   -0.0257 H   0  0  0  0  0  0  0  0  0  0  0  0
   -1.1997   -0.6962    0.0000 C   0  0  0  0  0  0  0  0  0  0  0  0
   -2.0758   -1.1916    0.0077 H   0  0  0  0  0  0  0  0  0  0  0  0
    0.0001   -1.3909   -0.0015 C   0  0  0  0  0  0  0  0  0  0  0  0
   -0.0015   -2.3899   -0.0044 H   0  0  0  0  0  0  0  0  0  0  0  0
    1.1997   -0.6930   -0.0000 C   0  0  0  0  0  0  0  0  0  0  0  0
    2.0810   -1.1930    0.0020 H   0  0  0  0  0  0  0  0  0  0  0  0
    1.1953    0.6923    0.0013 C   0  0  0  0  0  0  0  0  0  0  0  0
    2.0629    1.1909   -0.0032 H   0  0  0  0  0  0  0  0  0  0  0  0
  1  5  1  0
  5  8  1  0
  1  2  1  0
  1  3  1  0
  1  4  1  0
  5  6  1  0
  5  7  1  0
  8  9  1  0
  8 10  1  0
  8 11  1  0
 12 16  1  0
 16 17  2  0
 17 19  1  0
 19 21  2  0
 21 23  1  0
 23 25  2  0
 25 16  1  0
 12 13  1  0
 12 14  1  0
 12 15  1  0
 17 18  1  0
 19 20  1  0
 21 22  1  0
 23 24  1  0
 25 26  1  0
M  CHG  1   8   1
M  END
>  <PDB_ID>  (2651) 
pdb4w8o

>  <RESIDUE_NAME>  (2651) 
LYS   PHE

>  <FRAG_NAME>  (2651) 
ETAM   MBZ

>  <FRAG_ATOM_NUM>  (2651) 
fragi: 11  fragj: 15

>  <atom.prop.CHAIN_ID>  (2651) 
A A A A A A A A A A A Z Z Z Z Z Z Z Z Z Z Z Z Z Z Z

>  <atom.prop.IS_HEAVY_ATOM>  (2651) 
1 0 0 0 1 0 0 1 0 0 0 1 0 0 0 1 1 0 1 0 1 0 1 0 1 0

>  <DIFUSE_FUNC_ATOM>  (2651) 
n/a

>  <FINAL_SINGLE_POINT_ENERGY>  (2651) 
0

>  <NONCOV_INTER_ENERGY_QM>  (2651) 
0

>  <FF_Energy>  (2651) 
0.77

>  <QM_Energy>  (2651) 
-4.39

>  <source>  (2651) 
ETAM_MBZ

>  <Index>  (2651) 
28305

$$$$
ETAM-pdb4wa3-A-LYS-257:MBZ-pdb4wa3-A-PHE-82
     RDKit          3D

 26 25  0  0  0  0  0  0  0  0999 V2000
    1.6146   -3.7947    4.5773 C   0  0  0  0  0  0  0  0  0  0  0  0
    1.8205   -3.1810    5.2998 H   0  0  0  0  0  0  0  0  0  0  0  0
    2.0053   -4.6654    4.7522 H   0  0  0  0  0  0  0  0  0  0  0  0
    0.5332   -3.8961    4.4869 H   0  0  0  0  0  0  0  0  0  0  0  0
    2.2214   -3.2469    3.2951 C   0  0  0  0  0  0  0  0  0  0  0  0
    3.1884   -3.3026    3.3469 H   0  0  0  0  0  0  0  0  0  0  0  0
    1.8933   -3.7584    2.5393 H   0  0  0  0  0  0  0  0  0  0  0  0
    1.8402   -1.8104    3.0947 N   0  0  0  0  0  4  0  0  0  0  0  0
    2.2011   -1.5018    2.3420 H   0  0  0  0  0  0  0  0  0  0  0  0
    0.9547   -1.7348    3.0430 H   0  0  0  0  0  0  0  0  0  0  0  0
    2.1326   -1.3200    3.7775 H   0  0  0  0  0  0  0  0  0  0  0  0
    0.0080    2.9072    0.0122 C   0  0  0  0  0  0  0  0  0  0  0  0
    0.9316    3.1975   -0.0342 H   0  0  0  0  0  0  0  0  0  0  0  0
   -0.3838    3.1935    0.8522 H   0  0  0  0  0  0  0  0  0  0  0  0
   -0.5455    3.3670   -0.8065 H   0  0  0  0  0  0  0  0  0  0  0  0
    0.0014    1.3979   -0.0046 C   0  0  0  0  0  0  0  0  0  0  0  0
   -1.1909    0.6918    0.0056 C   0  0  0  0  0  0  0  0  0  0  0  0
   -1.9975    1.1538    0.0054 H   0  0  0  0  0  0  0  0  0  0  0  0
   -1.1962   -0.6936   -0.0000 C   0  0  0  0  0  0  0  0  0  0  0  0
   -2.0036   -1.1549    0.0007 H   0  0  0  0  0  0  0  0  0  0  0  0
   -0.0035   -1.3881   -0.0022 C   0  0  0  0  0  0  0  0  0  0  0  0
   -0.0056   -2.3182   -0.0038 H   0  0  0  0  0  0  0  0  0  0  0  0
    1.1962   -0.6964    0.0000 C   0  0  0  0  0  0  0  0  0  0  0  0
    2.0020   -1.1609   -0.0030 H   0  0  0  0  0  0  0  0  0  0  0  0
    1.1930    0.6884    0.0012 C   0  0  0  0  0  0  0  0  0  0  0  0
    2.0018    1.1478    0.0011 H   0  0  0  0  0  0  0  0  0  0  0  0
  1  5  1  0
  5  8  1  0
  1  2  1  0
  1  3  1  0
  1  4  1  0
  5  6  1  0
  5  7  1  0
  8  9  1  0
  8 10  1  0
  8 11  1  0
 12 16  1  0
 16 17  2  0
 17 19  1  0
 19 21  2  0
 21 23  1  0
 23 25  2  0
 25 16  1  0
 12 13  1  0
 12 14  1  0
 12 15  1  0
 17 18  1  0
 19 20  1  0
 21 22  1  0
 23 24  1  0
 25 26  1  0
M  CHG  1   8   1
M  END
>  <PDB_ID>  (2652) 
pdb4wa3

>  <RESIDUE_NAME>  (2652) 
LYS   PHE

>  <FRAG_NAME>  (2652) 
ETAM   MBZ

>  <FRAG_ATOM_NUM>  (2652) 
fragi: 11  fragj: 15

>  <atom.prop.CHAIN_ID>  (2652) 
A A A A A A A A A A A Z Z Z Z Z Z Z Z Z Z Z Z Z Z Z

>  <atom.prop.IS_HEAVY_ATOM>  (2652) 
1 0 0 0 1 0 0 1 0 0 0 1 0 0 0 1 1 0 1 0 1 0 1 0 1 0

>  <DIFUSE_FUNC_ATOM>  (2652) 
n/a

>  <FINAL_SINGLE_POINT_ENERGY>  (2652) 
0

>  <NONCOV_INTER_ENERGY_QM>  (2652) 
0

>  <FF_Energy>  (2652) 
-3.41

>  <QM_Energy>  (2652) 
-9.52

>  <source>  (2652) 
ETAM_MBZ

>  <Index>  (2652) 
28333

$$$$
ETAM-pdb3vb0-A-LYS-228:MBZ-pdb3vb0-A-PHE-224
     RDKit          3D

 26 25  0  0  0  0  0  0  0  0999 V2000
    1.5333   -1.9169    4.1604 C   0  0  0  0  0  0  0  0  0  0  0  0
    2.0103   -1.1670    3.7208 H   0  0  0  0  0  0  0  0  0  0  0  0
    2.1496   -2.4391    4.7350 H   0  0  0  0  0  0  0  0  0  0  0  0
    0.7286   -1.5138    4.7753 H   0  0  0  0  0  0  0  0  0  0  0  0
    0.9766   -2.8347    3.0856 C   0  0  0  0  0  0  0  0  0  0  0  0
    0.4475   -3.5673    3.5258 H   0  0  0  0  0  0  0  0  0  0  0  0
    0.3593   -2.3060    2.4929 H   0  0  0  0  0  0  0  0  0  0  0  0
    2.0497   -3.4410    2.2525 N   0  0  0  0  0  4  0  0  0  0  0  0
    2.5317   -4.1356    2.7862 H   0  0  0  0  0  0  0  0  0  0  0  0
    1.6430   -3.8642    1.4436 H   0  0  0  0  0  0  0  0  0  0  0  0
    2.6926   -2.7299    1.9705 H   0  0  0  0  0  0  0  0  0  0  0  0
    0.0025    2.9121   -0.0015 C   0  0  0  0  0  0  0  0  0  0  0  0
   -0.5818    3.2218   -0.7346 H   0  0  0  0  0  0  0  0  0  0  0  0
    0.9339    3.2160   -0.1279 H   0  0  0  0  0  0  0  0  0  0  0  0
   -0.3661    3.3552    0.9236 H   0  0  0  0  0  0  0  0  0  0  0  0
   -0.0029    1.4064   -0.0016 C   0  0  0  0  0  0  0  0  0  0  0  0
   -1.1980    0.7012   -0.0025 C   0  0  0  0  0  0  0  0  0  0  0  0
   -2.0653    1.1884   -0.0063 H   0  0  0  0  0  0  0  0  0  0  0  0
   -1.2059   -0.6968   -0.0000 C   0  0  0  0  0  0  0  0  0  0  0  0
   -2.0798   -1.1890    0.0017 H   0  0  0  0  0  0  0  0  0  0  0  0
    0.0048   -1.4040    0.0014 C   0  0  0  0  0  0  0  0  0  0  0  0
   -0.0058   -2.3983    0.0024 H   0  0  0  0  0  0  0  0  0  0  0  0
    1.2059   -0.7051    0.0000 C   0  0  0  0  0  0  0  0  0  0  0  0
    2.0880   -1.1942   -0.0018 H   0  0  0  0  0  0  0  0  0  0  0  0
    1.1961    0.6984    0.0028 C   0  0  0  0  0  0  0  0  0  0  0  0
    2.0646    1.1918    0.0073 H   0  0  0  0  0  0  0  0  0  0  0  0
  1  5  1  0
  5  8  1  0
  1  2  1  0
  1  3  1  0
  1  4  1  0
  5  6  1  0
  5  7  1  0
  8  9  1  0
  8 10  1  0
  8 11  1  0
 12 16  1  0
 16 17  2  0
 17 19  1  0
 19 21  2  0
 21 23  1  0
 23 25  2  0
 25 16  1  0
 12 13  1  0
 12 14  1  0
 12 15  1  0
 17 18  1  0
 19 20  1  0
 21 22  1  0
 23 24  1  0
 25 26  1  0
M  CHG  1   8   1
M  END
>  <PDB_ID>  (2653) 
pdb3vb0

>  <RESIDUE_NAME>  (2653) 
LYS   PHE

>  <FRAG_NAME>  (2653) 
ETAM   MBZ

>  <FRAG_ATOM_NUM>  (2653) 
fragi: 11  fragj: 15

>  <atom.prop.CHAIN_ID>  (2653) 
A A A A A A A A A A A Z Z Z Z Z Z Z Z Z Z Z Z Z Z Z

>  <atom.prop.IS_HEAVY_ATOM>  (2653) 
1 0 0 0 1 0 0 1 0 0 0 1 0 0 0 1 1 0 1 0 1 0 1 0 1 0

>  <DIFUSE_FUNC_ATOM>  (2653) 
n/a

>  <FINAL_SINGLE_POINT_ENERGY>  (2653) 
0

>  <NONCOV_INTER_ENERGY_QM>  (2653) 
0

>  <FF_Energy>  (2653) 
-1.14

>  <QM_Energy>  (2653) 
-6.97

>  <source>  (2653) 
ETAM_MBZ

>  <Index>  (2653) 
28346

$$$$
ETAM-pdb3vb0-C-LYS-228:MBZ-pdb3vb0-C-PHE-224
     RDKit          3D

 26 25  0  0  0  0  0  0  0  0999 V2000
    2.1681   -1.8981    3.3207 C   0  0  0  0  0  0  0  0  0  0  0  0
    1.7953   -1.1259    2.8149 H   0  0  0  0  0  0  0  0  0  0  0  0
    3.1620   -1.8941    3.2702 H   0  0  0  0  0  0  0  0  0  0  0  0
    1.8656   -1.8167    4.3648 H   0  0  0  0  0  0  0  0  0  0  0  0
    1.6578   -3.1848    2.6822 C   0  0  0  0  0  0  0  0  0  0  0  0
    1.9510   -3.2064    1.7171 H   0  0  0  0  0  0  0  0  0  0  0  0
    2.0808   -3.9705    3.1530 H   0  0  0  0  0  0  0  0  0  0  0  0
    0.1737   -3.3259    2.7417 N   0  0  0  0  0  4  0  0  0  0  0  0
   -0.2354   -2.8387    1.9715 H   0  0  0  0  0  0  0  0  0  0  0  0
   -0.0678   -4.2946    2.6941 H   0  0  0  0  0  0  0  0  0  0  0  0
   -0.1603   -2.9384    3.5998 H   0  0  0  0  0  0  0  0  0  0  0  0
    0.0029    2.9133   -0.0004 C   0  0  0  0  0  0  0  0  0  0  0  0
   -0.7753    3.2179   -0.5260 H   0  0  0  0  0  0  0  0  0  0  0  0
    0.8531    3.2166   -0.4013 H   0  0  0  0  0  0  0  0  0  0  0  0
   -0.0729    3.3547    0.9934 H   0  0  0  0  0  0  0  0  0  0  0  0
    0.0019    1.4043    0.0003 C   0  0  0  0  0  0  0  0  0  0  0  0
   -1.1960    0.6956    0.0008 C   0  0  0  0  0  0  0  0  0  0  0  0
   -2.0624    1.1868    0.0004 H   0  0  0  0  0  0  0  0  0  0  0  0
   -1.2032   -0.6967   -0.0000 C   0  0  0  0  0  0  0  0  0  0  0  0
   -2.0813   -1.1876    0.0003 H   0  0  0  0  0  0  0  0  0  0  0  0
   -0.0042   -1.3959    0.0004 C   0  0  0  0  0  0  0  0  0  0  0  0
   -0.0081   -2.3940    0.0006 H   0  0  0  0  0  0  0  0  0  0  0  0
    1.2032   -0.7000   -0.0000 C   0  0  0  0  0  0  0  0  0  0  0  0
    2.0807   -1.1994    0.0026 H   0  0  0  0  0  0  0  0  0  0  0  0
    1.1984    0.6928   -0.0015 C   0  0  0  0  0  0  0  0  0  0  0  0
    2.0670    1.1879   -0.0046 H   0  0  0  0  0  0  0  0  0  0  0  0
  1  5  1  0
  5  8  1  0
  1  2  1  0
  1  3  1  0
  1  4  1  0
  5  6  1  0
  5  7  1  0
  8  9  1  0
  8 10  1  0
  8 11  1  0
 12 16  1  0
 16 17  2  0
 17 19  1  0
 19 21  2  0
 21 23  1  0
 23 25  2  0
 25 16  1  0
 12 13  1  0
 12 14  1  0
 12 15  1  0
 17 18  1  0
 19 20  1  0
 21 22  1  0
 23 24  1  0
 25 26  1  0
M  CHG  1   8   1
M  END
>  <PDB_ID>  (2654) 
pdb3vb0

>  <RESIDUE_NAME>  (2654) 
LYS   PHE

>  <FRAG_NAME>  (2654) 
ETAM   MBZ

>  <FRAG_ATOM_NUM>  (2654) 
fragi: 11  fragj: 15

>  <atom.prop.CHAIN_ID>  (2654) 
A A A A A A A A A A A Z Z Z Z Z Z Z Z Z Z Z Z Z Z Z

>  <atom.prop.IS_HEAVY_ATOM>  (2654) 
1 0 0 0 1 0 0 1 0 0 0 1 0 0 0 1 1 0 1 0 1 0 1 0 1 0

>  <DIFUSE_FUNC_ATOM>  (2654) 
n/a

>  <FINAL_SINGLE_POINT_ENERGY>  (2654) 
0

>  <NONCOV_INTER_ENERGY_QM>  (2654) 
0

>  <FF_Energy>  (2654) 
-2.54

>  <QM_Energy>  (2654) 
-9.96

>  <source>  (2654) 
ETAM_MBZ

>  <Index>  (2654) 
28349

$$$$
ETAM-pdb3vb0-D-LYS-217:MBZ-pdb3vb0-D-PHE-263
     RDKit          3D

 26 25  0  0  0  0  0  0  0  0999 V2000
    3.3333   -0.1815   -2.0088 C   0  0  0  0  0  0  0  0  0  0  0  0
    2.9064    0.4859   -1.4097 H   0  0  0  0  0  0  0  0  0  0  0  0
    2.9522   -1.0857   -1.8525 H   0  0  0  0  0  0  0  0  0  0  0  0
    3.1442    0.1043   -3.0435 H   0  0  0  0  0  0  0  0  0  0  0  0
    4.8232   -0.2217   -1.7104 C   0  0  0  0  0  0  0  0  0  0  0  0
    4.9556   -0.5102   -0.7573 H   0  0  0  0  0  0  0  0  0  0  0  0
    5.2572   -0.8973   -2.3142 H   0  0  0  0  0  0  0  0  0  0  0  0
    5.4685    1.1023   -1.9153 N   0  0  0  0  0  4  0  0  0  0  0  0
    6.1297    1.0373   -2.6617 H   0  0  0  0  0  0  0  0  0  0  0  0
    4.7706    1.7801   -2.1447 H   0  0  0  0  0  0  0  0  0  0  0  0
    5.9373    1.3754   -1.0760 H   0  0  0  0  0  0  0  0  0  0  0  0
    0.0043    2.9139    0.0010 C   0  0  0  0  0  0  0  0  0  0  0  0
   -0.7371    3.2209   -0.5763 H   0  0  0  0  0  0  0  0  0  0  0  0
    0.8799    3.2160   -0.3468 H   0  0  0  0  0  0  0  0  0  0  0  0
   -0.1339    3.3599    0.9859 H   0  0  0  0  0  0  0  0  0  0  0  0
   -0.0006    1.4059    0.0021 C   0  0  0  0  0  0  0  0  0  0  0  0
   -1.1964    0.6986   -0.0012 C   0  0  0  0  0  0  0  0  0  0  0  0
   -2.0640    1.1866   -0.0057 H   0  0  0  0  0  0  0  0  0  0  0  0
   -1.2021   -0.6968    0.0000 C   0  0  0  0  0  0  0  0  0  0  0  0
   -2.0795   -1.1882    0.0034 H   0  0  0  0  0  0  0  0  0  0  0  0
    0.0002   -1.3972   -0.0018 C   0  0  0  0  0  0  0  0  0  0  0  0
   -0.0075   -2.3957   -0.0050 H   0  0  0  0  0  0  0  0  0  0  0  0
    1.2021   -0.7032    0.0000 C   0  0  0  0  0  0  0  0  0  0  0  0
    2.0828   -1.1987    0.0020 H   0  0  0  0  0  0  0  0  0  0  0  0
    1.1968    0.6927    0.0009 C   0  0  0  0  0  0  0  0  0  0  0  0
    2.0662    1.1875   -0.0002 H   0  0  0  0  0  0  0  0  0  0  0  0
  1  5  1  0
  5  8  1  0
  1  2  1  0
  1  3  1  0
  1  4  1  0
  5  6  1  0
  5  7  1  0
  8  9  1  0
  8 10  1  0
  8 11  1  0
 12 16  1  0
 16 17  2  0
 17 19  1  0
 19 21  2  0
 21 23  1  0
 23 25  2  0
 25 16  1  0
 12 13  1  0
 12 14  1  0
 12 15  1  0
 17 18  1  0
 19 20  1  0
 21 22  1  0
 23 24  1  0
 25 26  1  0
M  CHG  1   8   1
M  END
>  <PDB_ID>  (2655) 
pdb3vb0

>  <RESIDUE_NAME>  (2655) 
LYS   PHE

>  <FRAG_NAME>  (2655) 
ETAM   MBZ

>  <FRAG_ATOM_NUM>  (2655) 
fragi: 11  fragj: 15

>  <atom.prop.CHAIN_ID>  (2655) 
A A A A A A A A A A A Z Z Z Z Z Z Z Z Z Z Z Z Z Z Z

>  <atom.prop.IS_HEAVY_ATOM>  (2655) 
1 0 0 0 1 0 0 1 0 0 0 1 0 0 0 1 1 0 1 0 1 0 1 0 1 0

>  <DIFUSE_FUNC_ATOM>  (2655) 
n/a

>  <FINAL_SINGLE_POINT_ENERGY>  (2655) 
0

>  <NONCOV_INTER_ENERGY_QM>  (2655) 
0

>  <FF_Energy>  (2655) 
12.74

>  <QM_Energy>  (2655) 
3.07

>  <source>  (2655) 
ETAM_MBZ

>  <Index>  (2655) 
28350

$$$$
ETAM-pdb3vc0-A-LYS-97:MBZ-pdb3vc0-A-PHE-93
     RDKit          3D

 26 25  0  0  0  0  0  0  0  0999 V2000
    0.5277   -1.7076    3.1539 C   0  0  0  0  0  0  0  0  0  0  0  0
    0.0726   -1.6520    2.2635 H   0  0  0  0  0  0  0  0  0  0  0  0
    1.4672   -1.3721    3.0676 H   0  0  0  0  0  0  0  0  0  0  0  0
    0.0011   -1.0367    3.8328 H   0  0  0  0  0  0  0  0  0  0  0  0
    0.5573   -3.1626    3.6081 C   0  0  0  0  0  0  0  0  0  0  0  0
    1.3180   -3.6296    3.1592 H   0  0  0  0  0  0  0  0  0  0  0  0
    0.6826   -3.1935    4.5995 H   0  0  0  0  0  0  0  0  0  0  0  0
   -0.7223   -3.8676    3.2571 N   0  0  0  0  0  4  0  0  0  0  0  0
   -0.5074   -4.7817    2.9222 H   0  0  0  0  0  0  0  0  0  0  0  0
   -1.2931   -3.9292    4.0731 H   0  0  0  0  0  0  0  0  0  0  0  0
   -1.1949   -3.3485    2.5484 H   0  0  0  0  0  0  0  0  0  0  0  0
    0.0054    2.9315   -0.0377 C   0  0  0  0  0  0  0  0  0  0  0  0
   -0.7724    3.2192   -0.5792 H   0  0  0  0  0  0  0  0  0  0  0  0
    0.8561    3.2161   -0.4575 H   0  0  0  0  0  0  0  0  0  0  0  0
   -0.0657    3.4222    0.9330 H   0  0  0  0  0  0  0  0  0  0  0  0
   -0.0016    1.4199    0.0174 C   0  0  0  0  0  0  0  0  0  0  0  0
   -1.2011    0.7078   -0.0226 C   0  0  0  0  0  0  0  0  0  0  0  0
   -2.0681    1.1866   -0.0684 H   0  0  0  0  0  0  0  0  0  0  0  0
   -1.2106   -0.7111    0.0000 C   0  0  0  0  0  0  0  0  0  0  0  0
   -2.0823   -1.1938    0.0247 H   0  0  0  0  0  0  0  0  0  0  0  0
    0.0063   -1.4166   -0.0107 C   0  0  0  0  0  0  0  0  0  0  0  0
    0.0029   -2.4067   -0.0262 H   0  0  0  0  0  0  0  0  0  0  0  0
    1.2106   -0.7039   -0.0000 C   0  0  0  0  0  0  0  0  0  0  0  0
    2.0940   -1.1904   -0.0025 H   0  0  0  0  0  0  0  0  0  0  0  0
    1.1964    0.7039    0.0158 C   0  0  0  0  0  0  0  0  0  0  0  0
    2.0673    1.1968    0.0257 H   0  0  0  0  0  0  0  0  0  0  0  0
  1  5  1  0
  5  8  1  0
  1  2  1  0
  1  3  1  0
  1  4  1  0
  5  6  1  0
  5  7  1  0
  8  9  1  0
  8 10  1  0
  8 11  1  0
 12 16  1  0
 16 17  2  0
 17 19  1  0
 19 21  2  0
 21 23  1  0
 23 25  2  0
 25 16  1  0
 12 13  1  0
 12 14  1  0
 12 15  1  0
 17 18  1  0
 19 20  1  0
 21 22  1  0
 23 24  1  0
 25 26  1  0
M  CHG  1   8   1
M  END
>  <PDB_ID>  (2656) 
pdb3vc0

>  <RESIDUE_NAME>  (2656) 
LYS   PHE

>  <FRAG_NAME>  (2656) 
ETAM   MBZ

>  <FRAG_ATOM_NUM>  (2656) 
fragi: 11  fragj: 15

>  <atom.prop.CHAIN_ID>  (2656) 
A A A A A A A A A A A Z Z Z Z Z Z Z Z Z Z Z Z Z Z Z

>  <atom.prop.IS_HEAVY_ATOM>  (2656) 
1 0 0 0 1 0 0 1 0 0 0 1 0 0 0 1 1 0 1 0 1 0 1 0 1 0

>  <DIFUSE_FUNC_ATOM>  (2656) 
n/a

>  <FINAL_SINGLE_POINT_ENERGY>  (2656) 
0

>  <NONCOV_INTER_ENERGY_QM>  (2656) 
0

>  <FF_Energy>  (2656) 
1.49

>  <QM_Energy>  (2656) 
-4.31

>  <source>  (2656) 
ETAM_MBZ

>  <Index>  (2656) 
28363

$$$$
ETAM-pdb4v36-B-LYS-816:MBZ-pdb4v36-B-PHE-813
     RDKit          3D

 26 25  0  0  0  0  0  0  0  0999 V2000
   -2.4576    2.0021    5.2189 C   0  0  0  0  0  0  0  0  0  0  0  0
   -3.0243    1.8137    6.0149 H   0  0  0  0  0  0  0  0  0  0  0  0
   -2.9972    2.4395    4.5064 H   0  0  0  0  0  0  0  0  0  0  0  0
   -1.6499    2.6727    5.5121 H   0  0  0  0  0  0  0  0  0  0  0  0
   -1.9240    0.6803    4.6803 C   0  0  0  0  0  0  0  0  0  0  0  0
   -1.3268    0.2651    5.3735 H   0  0  0  0  0  0  0  0  0  0  0  0
   -2.6986    0.0625    4.5110 H   0  0  0  0  0  0  0  0  0  0  0  0
   -1.1556    0.8563    3.4159 N   0  0  0  0  0  4  0  0  0  0  0  0
   -0.3526    0.2625    3.4316 H   0  0  0  0  0  0  0  0  0  0  0  0
   -1.7363    0.6148    2.6391 H   0  0  0  0  0  0  0  0  0  0  0  0
   -0.8659    1.8089    3.3347 H   0  0  0  0  0  0  0  0  0  0  0  0
    0.0015    2.9018   -0.0001 C   0  0  0  0  0  0  0  0  0  0  0  0
   -0.7940    3.2075   -0.5003 H   0  0  0  0  0  0  0  0  0  0  0  0
    0.8373    3.2062   -0.4308 H   0  0  0  0  0  0  0  0  0  0  0  0
   -0.0403    3.3437    0.9955 H   0  0  0  0  0  0  0  0  0  0  0  0
    0.0003    1.3957    0.0011 C   0  0  0  0  0  0  0  0  0  0  0  0
   -1.1918    0.6902    0.0000 C   0  0  0  0  0  0  0  0  0  0  0  0
   -2.0596    1.1822   -0.0027 H   0  0  0  0  0  0  0  0  0  0  0  0
   -1.1950   -0.6920    0.0000 C   0  0  0  0  0  0  0  0  0  0  0  0
   -2.0742   -1.1883    0.0011 H   0  0  0  0  0  0  0  0  0  0  0  0
   -0.0011   -1.3848    0.0005 C   0  0  0  0  0  0  0  0  0  0  0  0
   -0.0060   -2.3867    0.0004 H   0  0  0  0  0  0  0  0  0  0  0  0
    1.1950   -0.6954   -0.0000 C   0  0  0  0  0  0  0  0  0  0  0  0
    2.0772   -1.1965    0.0023 H   0  0  0  0  0  0  0  0  0  0  0  0
    1.1927    0.6864   -0.0017 C   0  0  0  0  0  0  0  0  0  0  0  0
    2.0627    1.1846   -0.0059 H   0  0  0  0  0  0  0  0  0  0  0  0
  1  5  1  0
  5  8  1  0
  1  2  1  0
  1  3  1  0
  1  4  1  0
  5  6  1  0
  5  7  1  0
  8  9  1  0
  8 10  1  0
  8 11  1  0
 12 16  1  0
 16 17  2  0
 17 19  1  0
 19 21  2  0
 21 23  1  0
 23 25  2  0
 25 16  1  0
 12 13  1  0
 12 14  1  0
 12 15  1  0
 17 18  1  0
 19 20  1  0
 21 22  1  0
 23 24  1  0
 25 26  1  0
M  CHG  1   8   1
M  END
>  <PDB_ID>  (2657) 
pdb4v36

>  <RESIDUE_NAME>  (2657) 
LYS   PHE

>  <FRAG_NAME>  (2657) 
ETAM   MBZ

>  <FRAG_ATOM_NUM>  (2657) 
fragi: 11  fragj: 15

>  <atom.prop.CHAIN_ID>  (2657) 
A A A A A A A A A A A Z Z Z Z Z Z Z Z Z Z Z Z Z Z Z

>  <atom.prop.IS_HEAVY_ATOM>  (2657) 
1 0 0 0 1 0 0 1 0 0 0 1 0 0 0 1 1 0 1 0 1 0 1 0 1 0

>  <DIFUSE_FUNC_ATOM>  (2657) 
n/a

>  <FINAL_SINGLE_POINT_ENERGY>  (2657) 
0

>  <NONCOV_INTER_ENERGY_QM>  (2657) 
0

>  <FF_Energy>  (2657) 
-6.33

>  <QM_Energy>  (2657) 
-11.43

>  <source>  (2657) 
ETAM_MBZ

>  <Index>  (2657) 
28368

$$$$
ETAM-pdb4wa1-A-LYS-259:MBZ-pdb4wa1-A-PHE-174
     RDKit          3D

 26 25  0  0  0  0  0  0  0  0999 V2000
   -0.9878   -1.8505   -4.9162 C   0  0  0  0  0  0  0  0  0  0  0  0
   -1.2606   -2.5092   -5.6020 H   0  0  0  0  0  0  0  0  0  0  0  0
   -0.4604   -1.1148   -5.3137 H   0  0  0  0  0  0  0  0  0  0  0  0
   -1.8760   -1.4410   -4.4349 H   0  0  0  0  0  0  0  0  0  0  0  0
   -0.1149   -2.5645   -3.8831 C   0  0  0  0  0  0  0  0  0  0  0  0
   -0.7007   -2.9342   -3.1625 H   0  0  0  0  0  0  0  0  0  0  0  0
    0.3757   -3.3107   -4.3314 H   0  0  0  0  0  0  0  0  0  0  0  0
    0.8843   -1.6245   -3.2664 N   0  0  0  0  0  4  0  0  0  0  0  0
    1.7618   -1.7373   -3.7257 H   0  0  0  0  0  0  0  0  0  0  0  0
    0.5595   -0.6879   -3.3773 H   0  0  0  0  0  0  0  0  0  0  0  0
    0.9771   -1.8406   -2.2973 H   0  0  0  0  0  0  0  0  0  0  0  0
    0.0045    2.9161   -0.0095 C   0  0  0  0  0  0  0  0  0  0  0  0
   -0.7102    3.2150   -0.6247 H   0  0  0  0  0  0  0  0  0  0  0  0
    0.8946    3.2130   -0.3246 H   0  0  0  0  0  0  0  0  0  0  0  0
   -0.1763    3.3794    0.9604 H   0  0  0  0  0  0  0  0  0  0  0  0
    0.0001    1.4011    0.0054 C   0  0  0  0  0  0  0  0  0  0  0  0
   -1.1956    0.6939    0.0010 C   0  0  0  0  0  0  0  0  0  0  0  0
   -2.0616    1.1832   -0.0024 H   0  0  0  0  0  0  0  0  0  0  0  0
   -1.1961   -0.6938   -0.0000 C   0  0  0  0  0  0  0  0  0  0  0  0
   -2.0742   -1.1896    0.0020 H   0  0  0  0  0  0  0  0  0  0  0  0
    0.0013   -1.3881   -0.0020 C   0  0  0  0  0  0  0  0  0  0  0  0
   -0.0067   -2.3905   -0.0050 H   0  0  0  0  0  0  0  0  0  0  0  0
    1.1961   -0.7004   -0.0000 C   0  0  0  0  0  0  0  0  0  0  0  0
    2.0788   -1.1989    0.0061 H   0  0  0  0  0  0  0  0  0  0  0  0
    1.1943    0.6873   -0.0044 C   0  0  0  0  0  0  0  0  0  0  0  0
    2.0638    1.1830   -0.0158 H   0  0  0  0  0  0  0  0  0  0  0  0
  1  5  1  0
  5  8  1  0
  1  2  1  0
  1  3  1  0
  1  4  1  0
  5  6  1  0
  5  7  1  0
  8  9  1  0
  8 10  1  0
  8 11  1  0
 12 16  1  0
 16 17  2  0
 17 19  1  0
 19 21  2  0
 21 23  1  0
 23 25  2  0
 25 16  1  0
 12 13  1  0
 12 14  1  0
 12 15  1  0
 17 18  1  0
 19 20  1  0
 21 22  1  0
 23 24  1  0
 25 26  1  0
M  CHG  1   8   1
M  END
>  <PDB_ID>  (2658) 
pdb4wa1

>  <RESIDUE_NAME>  (2658) 
LYS   PHE

>  <FRAG_NAME>  (2658) 
ETAM   MBZ

>  <FRAG_ATOM_NUM>  (2658) 
fragi: 11  fragj: 15

>  <atom.prop.CHAIN_ID>  (2658) 
A A A A A A A A A A A Z Z Z Z Z Z Z Z Z Z Z Z Z Z Z

>  <atom.prop.IS_HEAVY_ATOM>  (2658) 
1 0 0 0 1 0 0 1 0 0 0 1 0 0 0 1 1 0 1 0 1 0 1 0 1 0

>  <DIFUSE_FUNC_ATOM>  (2658) 
n/a

>  <FINAL_SINGLE_POINT_ENERGY>  (2658) 
0

>  <NONCOV_INTER_ENERGY_QM>  (2658) 
0

>  <FF_Energy>  (2658) 
-5.55

>  <QM_Energy>  (2658) 
-12.4

>  <source>  (2658) 
ETAM_MBZ

>  <Index>  (2658) 
28385

$$$$
ETAM-pdb3vcy-B-LYS-107:MBZ-pdb3vcy-B-PHE-81
     RDKit          3D

 26 25  0  0  0  0  0  0  0  0999 V2000
    1.7063    1.1937    3.8706 C   0  0  0  0  0  0  0  0  0  0  0  0
    2.0299    1.8650    3.2365 H   0  0  0  0  0  0  0  0  0  0  0  0
    2.2500    1.1373    4.6822 H   0  0  0  0  0  0  0  0  0  0  0  0
    0.6773    1.4274    4.1437 H   0  0  0  0  0  0  0  0  0  0  0  0
    1.7005   -0.1643    3.1886 C   0  0  0  0  0  0  0  0  0  0  0  0
    1.3688   -0.8549    3.8432 H   0  0  0  0  0  0  0  0  0  0  0  0
    1.0594   -0.1351    2.4106 H   0  0  0  0  0  0  0  0  0  0  0  0
    3.0432   -0.5661    2.6967 N   0  0  0  0  0  4  0  0  0  0  0  0
    3.5174   -1.0849    3.4084 H   0  0  0  0  0  0  0  0  0  0  0  0
    2.9422   -1.1351    1.8807 H   0  0  0  0  0  0  0  0  0  0  0  0
    3.5735    0.2509    2.4706 H   0  0  0  0  0  0  0  0  0  0  0  0
   -0.0103    2.9223   -0.0444 C   0  0  0  0  0  0  0  0  0  0  0  0
    0.8910    3.2399    0.1888 H   0  0  0  0  0  0  0  0  0  0  0  0
   -0.6929    3.2423    0.5883 H   0  0  0  0  0  0  0  0  0  0  0  0
   -0.2577    3.3202   -1.0285 H   0  0  0  0  0  0  0  0  0  0  0  0
   -0.0015    1.4105   -0.0001 C   0  0  0  0  0  0  0  0  0  0  0  0
   -1.2009    0.6882   -0.0066 C   0  0  0  0  0  0  0  0  0  0  0  0
   -2.0684    1.1767   -0.0172 H   0  0  0  0  0  0  0  0  0  0  0  0
   -1.2016   -0.7047    0.0000 C   0  0  0  0  0  0  0  0  0  0  0  0
   -2.0758   -1.2001   -0.0045 H   0  0  0  0  0  0  0  0  0  0  0  0
    0.0023   -1.3966    0.0142 C   0  0  0  0  0  0  0  0  0  0  0  0
    0.0023   -2.3948    0.0340 H   0  0  0  0  0  0  0  0  0  0  0  0
    1.2016   -0.6962   -0.0000 C   0  0  0  0  0  0  0  0  0  0  0  0
    2.0846   -1.1924   -0.0035 H   0  0  0  0  0  0  0  0  0  0  0  0
    1.2000    0.6988   -0.0075 C   0  0  0  0  0  0  0  0  0  0  0  0
    2.0666    1.1936   -0.0193 H   0  0  0  0  0  0  0  0  0  0  0  0
  1  5  1  0
  5  8  1  0
  1  2  1  0
  1  3  1  0
  1  4  1  0
  5  6  1  0
  5  7  1  0
  8  9  1  0
  8 10  1  0
  8 11  1  0
 12 16  1  0
 16 17  2  0
 17 19  1  0
 19 21  2  0
 21 23  1  0
 23 25  2  0
 25 16  1  0
 12 13  1  0
 12 14  1  0
 12 15  1  0
 17 18  1  0
 19 20  1  0
 21 22  1  0
 23 24  1  0
 25 26  1  0
M  CHG  1   8   1
M  END
>  <PDB_ID>  (2659) 
pdb3vcy

>  <RESIDUE_NAME>  (2659) 
LYS   PHE

>  <FRAG_NAME>  (2659) 
ETAM   MBZ

>  <FRAG_ATOM_NUM>  (2659) 
fragi: 11  fragj: 15

>  <atom.prop.CHAIN_ID>  (2659) 
A A A A A A A A A A A Z Z Z Z Z Z Z Z Z Z Z Z Z Z Z

>  <atom.prop.IS_HEAVY_ATOM>  (2659) 
1 0 0 0 1 0 0 1 0 0 0 1 0 0 0 1 1 0 1 0 1 0 1 0 1 0

>  <DIFUSE_FUNC_ATOM>  (2659) 
n/a

>  <FINAL_SINGLE_POINT_ENERGY>  (2659) 
0

>  <NONCOV_INTER_ENERGY_QM>  (2659) 
0

>  <FF_Energy>  (2659) 
-1.49

>  <QM_Energy>  (2659) 
-9.28

>  <source>  (2659) 
ETAM_MBZ

>  <Index>  (2659) 
28390

$$$$
ETAM-pdb4w8o-B-LYS-52:MBZ-pdb4w8o-B-PHE-25
     RDKit          3D

 26 25  0  0  0  0  0  0  0  0999 V2000
   -1.1371   -1.1056    4.6479 C   0  0  0  0  0  0  0  0  0  0  0  0
   -0.8672   -0.2592    5.0981 H   0  0  0  0  0  0  0  0  0  0  0  0
   -1.0950   -1.8646    5.2916 H   0  0  0  0  0  0  0  0  0  0  0  0
   -2.1617   -1.0031    4.2903 H   0  0  0  0  0  0  0  0  0  0  0  0
   -0.1678   -1.3800    3.5100 C   0  0  0  0  0  0  0  0  0  0  0  0
   -0.3244   -0.7033    2.7786 H   0  0  0  0  0  0  0  0  0  0  0  0
    0.7749   -1.2608    3.8493 H   0  0  0  0  0  0  0  0  0  0  0  0
   -0.3077   -2.7509    2.9398 N   0  0  0  0  0  4  0  0  0  0  0  0
   -0.9255   -3.2858    3.5152 H   0  0  0  0  0  0  0  0  0  0  0  0
   -0.6801   -2.6870    2.0153 H   0  0  0  0  0  0  0  0  0  0  0  0
    0.5893   -3.1893    2.9110 H   0  0  0  0  0  0  0  0  0  0  0  0
   -0.0049    2.9059   -0.0179 C   0  0  0  0  0  0  0  0  0  0  0  0
   -0.6913    3.1982   -0.6698 H   0  0  0  0  0  0  0  0  0  0  0  0
    0.8975    3.2078   -0.2936 H   0  0  0  0  0  0  0  0  0  0  0  0
   -0.2344    3.3729    0.9399 H   0  0  0  0  0  0  0  0  0  0  0  0
   -0.0011    1.3996    0.0078 C   0  0  0  0  0  0  0  0  0  0  0  0
   -1.1944    0.6883   -0.0075 C   0  0  0  0  0  0  0  0  0  0  0  0
   -2.0624    1.1804   -0.0257 H   0  0  0  0  0  0  0  0  0  0  0  0
   -1.1997   -0.6962    0.0000 C   0  0  0  0  0  0  0  0  0  0  0  0
   -2.0758   -1.1916    0.0077 H   0  0  0  0  0  0  0  0  0  0  0  0
    0.0001   -1.3909   -0.0015 C   0  0  0  0  0  0  0  0  0  0  0  0
   -0.0015   -2.3899   -0.0044 H   0  0  0  0  0  0  0  0  0  0  0  0
    1.1997   -0.6930   -0.0000 C   0  0  0  0  0  0  0  0  0  0  0  0
    2.0810   -1.1930    0.0020 H   0  0  0  0  0  0  0  0  0  0  0  0
    1.1953    0.6923    0.0013 C   0  0  0  0  0  0  0  0  0  0  0  0
    2.0629    1.1909   -0.0032 H   0  0  0  0  0  0  0  0  0  0  0  0
  1  5  1  0
  5  8  1  0
  1  2  1  0
  1  3  1  0
  1  4  1  0
  5  6  1  0
  5  7  1  0
  8  9  1  0
  8 10  1  0
  8 11  1  0
 12 16  1  0
 16 17  2  0
 17 19  1  0
 19 21  2  0
 21 23  1  0
 23 25  2  0
 25 16  1  0
 12 13  1  0
 12 14  1  0
 12 15  1  0
 17 18  1  0
 19 20  1  0
 21 22  1  0
 23 24  1  0
 25 26  1  0
M  CHG  1   8   1
M  END
>  <PDB_ID>  (2660) 
pdb4w8o

>  <RESIDUE_NAME>  (2660) 
LYS   PHE

>  <FRAG_NAME>  (2660) 
ETAM   MBZ

>  <FRAG_ATOM_NUM>  (2660) 
fragi: 11  fragj: 15

>  <atom.prop.CHAIN_ID>  (2660) 
A A A A A A A A A A A Z Z Z Z Z Z Z Z Z Z Z Z Z Z Z

>  <atom.prop.IS_HEAVY_ATOM>  (2660) 
1 0 0 0 1 0 0 1 0 0 0 1 0 0 0 1 1 0 1 0 1 0 1 0 1 0

>  <DIFUSE_FUNC_ATOM>  (2660) 
n/a

>  <FINAL_SINGLE_POINT_ENERGY>  (2660) 
0

>  <NONCOV_INTER_ENERGY_QM>  (2660) 
0

>  <FF_Energy>  (2660) 
-3.86

>  <QM_Energy>  (2660) 
-11.27

>  <source>  (2660) 
ETAM_MBZ

>  <Index>  (2660) 
28412

$$$$
ETAM-pdb4we8-A-LYS-259:MBZ-pdb4we8-A-PHE-174
     RDKit          3D

 26 25  0  0  0  0  0  0  0  0999 V2000
   -1.4161   -0.6997   -4.8961 C   0  0  0  0  0  0  0  0  0  0  0  0
   -1.5303   -1.3688   -5.6195 H   0  0  0  0  0  0  0  0  0  0  0  0
   -1.1432    0.1785   -5.2675 H   0  0  0  0  0  0  0  0  0  0  0  0
   -2.3606   -0.5849   -4.3642 H   0  0  0  0  0  0  0  0  0  0  0  0
   -0.3251   -1.1868   -3.9542 C   0  0  0  0  0  0  0  0  0  0  0  0
   -0.7445   -1.4657   -3.0875 H   0  0  0  0  0  0  0  0  0  0  0  0
    0.1307   -1.9794   -4.3662 H   0  0  0  0  0  0  0  0  0  0  0  0
    0.6881   -0.1257   -3.6869 N   0  0  0  0  0  4  0  0  0  0  0  0
    1.4215   -0.1920   -4.3620 H   0  0  0  0  0  0  0  0  0  0  0  0
    0.2523    0.7703   -3.7518 H   0  0  0  0  0  0  0  0  0  0  0  0
    1.0631   -0.2511   -2.7693 H   0  0  0  0  0  0  0  0  0  0  0  0
    0.0055    2.9039   -0.0028 C   0  0  0  0  0  0  0  0  0  0  0  0
   -0.7904    3.2105   -0.5027 H   0  0  0  0  0  0  0  0  0  0  0  0
    0.8413    3.2043   -0.4376 H   0  0  0  0  0  0  0  0  0  0  0  0
   -0.0328    3.3512    0.9905 H   0  0  0  0  0  0  0  0  0  0  0  0
    0.0003    1.3976    0.0032 C   0  0  0  0  0  0  0  0  0  0  0  0
   -1.1955    0.6912   -0.0015 C   0  0  0  0  0  0  0  0  0  0  0  0
   -2.0617    1.1827   -0.0076 H   0  0  0  0  0  0  0  0  0  0  0  0
   -1.1991   -0.6957    0.0000 C   0  0  0  0  0  0  0  0  0  0  0  0
   -2.0748   -1.1917    0.0019 H   0  0  0  0  0  0  0  0  0  0  0  0
    0.0016   -1.3884    0.0008 C   0  0  0  0  0  0  0  0  0  0  0  0
   -0.0018   -2.3893    0.0019 H   0  0  0  0  0  0  0  0  0  0  0  0
    1.1991   -0.6940    0.0000 C   0  0  0  0  0  0  0  0  0  0  0  0
    2.0813   -1.1938    0.0026 H   0  0  0  0  0  0  0  0  0  0  0  0
    1.1936    0.6894   -0.0025 C   0  0  0  0  0  0  0  0  0  0  0  0
    2.0632    1.1883   -0.0095 H   0  0  0  0  0  0  0  0  0  0  0  0
  1  5  1  0
  5  8  1  0
  1  2  1  0
  1  3  1  0
  1  4  1  0
  5  6  1  0
  5  7  1  0
  8  9  1  0
  8 10  1  0
  8 11  1  0
 12 16  1  0
 16 17  2  0
 17 19  1  0
 19 21  2  0
 21 23  1  0
 23 25  2  0
 25 16  1  0
 12 13  1  0
 12 14  1  0
 12 15  1  0
 17 18  1  0
 19 20  1  0
 21 22  1  0
 23 24  1  0
 25 26  1  0
M  CHG  1   8   1
M  END
>  <PDB_ID>  (2661) 
pdb4we8

>  <RESIDUE_NAME>  (2661) 
LYS   PHE

>  <FRAG_NAME>  (2661) 
ETAM   MBZ

>  <FRAG_ATOM_NUM>  (2661) 
fragi: 11  fragj: 15

>  <atom.prop.CHAIN_ID>  (2661) 
A A A A A A A A A A A Z Z Z Z Z Z Z Z Z Z Z Z Z Z Z

>  <atom.prop.IS_HEAVY_ATOM>  (2661) 
1 0 0 0 1 0 0 1 0 0 0 1 0 0 0 1 1 0 1 0 1 0 1 0 1 0

>  <DIFUSE_FUNC_ATOM>  (2661) 
n/a

>  <FINAL_SINGLE_POINT_ENERGY>  (2661) 
0

>  <NONCOV_INTER_ENERGY_QM>  (2661) 
0

>  <FF_Energy>  (2661) 
-7.29

>  <QM_Energy>  (2661) 
-12.99

>  <source>  (2661) 
ETAM_MBZ

>  <Index>  (2661) 
28415

$$$$
ETAM-pdb4w8o-B-LYS-359:MBZ-pdb4w8o-B-PHE-402
     RDKit          3D

 26 25  0  0  0  0  0  0  0  0999 V2000
    0.4748   -0.2047   -3.9564 C   0  0  0  0  0  0  0  0  0  0  0  0
    0.1913   -0.5312   -4.8467 H   0  0  0  0  0  0  0  0  0  0  0  0
    0.2057   -0.8351   -3.2425 H   0  0  0  0  0  0  0  0  0  0  0  0
    1.5600   -0.1021   -3.9477 H   0  0  0  0  0  0  0  0  0  0  0  0
   -0.1887    1.1401   -3.6951 C   0  0  0  0  0  0  0  0  0  0  0  0
    0.2575    1.5714   -2.8960 H   0  0  0  0  0  0  0  0  0  0  0  0
   -0.0299    1.7404   -4.4940 H   0  0  0  0  0  0  0  0  0  0  0  0
   -1.6516    1.0471   -3.4423 N   0  0  0  0  0  4  0  0  0  0  0  0
   -1.9756    1.9063   -3.0462 H   0  0  0  0  0  0  0  0  0  0  0  0
   -2.1274    0.8764   -4.3046 H   0  0  0  0  0  0  0  0  0  0  0  0
   -1.8310    0.2969   -2.8067 H   0  0  0  0  0  0  0  0  0  0  0  0
    0.0015    2.9046   -0.0172 C   0  0  0  0  0  0  0  0  0  0  0  0
   -0.6412    3.2020   -0.7089 H   0  0  0  0  0  0  0  0  0  0  0  0
    0.9196    3.2075   -0.2300 H   0  0  0  0  0  0  0  0  0  0  0  0
   -0.2894    3.3661    0.9265 H   0  0  0  0  0  0  0  0  0  0  0  0
    0.0003    1.3998    0.0020 C   0  0  0  0  0  0  0  0  0  0  0  0
   -1.1942    0.6910   -0.0018 C   0  0  0  0  0  0  0  0  0  0  0  0
   -2.0620    1.1816   -0.0071 H   0  0  0  0  0  0  0  0  0  0  0  0
   -1.1973   -0.6967   -0.0000 C   0  0  0  0  0  0  0  0  0  0  0  0
   -2.0760   -1.1909   -0.0008 H   0  0  0  0  0  0  0  0  0  0  0  0
   -0.0009   -1.3890    0.0042 C   0  0  0  0  0  0  0  0  0  0  0  0
   -0.0040   -2.3896    0.0100 H   0  0  0  0  0  0  0  0  0  0  0  0
    1.1973   -0.6954    0.0000 C   0  0  0  0  0  0  0  0  0  0  0  0
    2.0792   -1.1948    0.0014 H   0  0  0  0  0  0  0  0  0  0  0  0
    1.1948    0.6904   -0.0044 C   0  0  0  0  0  0  0  0  0  0  0  0
    2.0637    1.1874   -0.0134 H   0  0  0  0  0  0  0  0  0  0  0  0
  1  5  1  0
  5  8  1  0
  1  2  1  0
  1  3  1  0
  1  4  1  0
  5  6  1  0
  5  7  1  0
  8  9  1  0
  8 10  1  0
  8 11  1  0
 12 16  1  0
 16 17  2  0
 17 19  1  0
 19 21  2  0
 21 23  1  0
 23 25  2  0
 25 16  1  0
 12 13  1  0
 12 14  1  0
 12 15  1  0
 17 18  1  0
 19 20  1  0
 21 22  1  0
 23 24  1  0
 25 26  1  0
M  CHG  1   8   1
M  END
>  <PDB_ID>  (2662) 
pdb4w8o

>  <RESIDUE_NAME>  (2662) 
LYS   PHE

>  <FRAG_NAME>  (2662) 
ETAM   MBZ

>  <FRAG_ATOM_NUM>  (2662) 
fragi: 11  fragj: 15

>  <atom.prop.CHAIN_ID>  (2662) 
A A A A A A A A A A A Z Z Z Z Z Z Z Z Z Z Z Z Z Z Z

>  <atom.prop.IS_HEAVY_ATOM>  (2662) 
1 0 0 0 1 0 0 1 0 0 0 1 0 0 0 1 1 0 1 0 1 0 1 0 1 0

>  <DIFUSE_FUNC_ATOM>  (2662) 
n/a

>  <FINAL_SINGLE_POINT_ENERGY>  (2662) 
0

>  <NONCOV_INTER_ENERGY_QM>  (2662) 
0

>  <FF_Energy>  (2662) 
-6.66

>  <QM_Energy>  (2662) 
-11.82

>  <source>  (2662) 
ETAM_MBZ

>  <Index>  (2662) 
28427

$$$$
ETAM-pdb3viq-D-LYS-63:MBZ-pdb3viq-C-PHE-281
     RDKit          3D

 26 25  0  0  0  0  0  0  0  0999 V2000
   -2.3064   -1.2106    5.3528 C   0  0  0  0  0  0  0  0  0  0  0  0
   -1.6960   -0.4221    5.4207 H   0  0  0  0  0  0  0  0  0  0  0  0
   -1.7861   -2.0144    5.0679 H   0  0  0  0  0  0  0  0  0  0  0  0
   -2.7489   -1.4016    6.3304 H   0  0  0  0  0  0  0  0  0  0  0  0
   -3.3557   -0.9172    4.2964 C   0  0  0  0  0  0  0  0  0  0  0  0
   -3.9740   -1.7042    4.2252 H   0  0  0  0  0  0  0  0  0  0  0  0
   -3.8852   -0.1129    4.5786 H   0  0  0  0  0  0  0  0  0  0  0  0
   -2.7382   -0.6580    2.9763 N   0  0  0  0  0  4  0  0  0  0  0  0
   -3.0805   -1.3210    2.3094 H   0  0  0  0  0  0  0  0  0  0  0  0
   -2.9709    0.2669    2.6732 H   0  0  0  0  0  0  0  0  0  0  0  0
   -1.7430   -0.7438    3.0486 H   0  0  0  0  0  0  0  0  0  0  0  0
   -0.0302    2.8842   -0.0756 C   0  0  0  0  0  0  0  0  0  0  0  0
    0.8732    3.2250    0.1027 H   0  0  0  0  0  0  0  0  0  0  0  0
   -0.6927    3.2215    0.5660 H   0  0  0  0  0  0  0  0  0  0  0  0
   -0.3249    3.2203   -1.0697 H   0  0  0  0  0  0  0  0  0  0  0  0
   -0.0008    1.3996    0.0145 C   0  0  0  0  0  0  0  0  0  0  0  0
   -1.1993    0.6806   -0.0109 C   0  0  0  0  0  0  0  0  0  0  0  0
   -2.0655    1.1761   -0.0384 H   0  0  0  0  0  0  0  0  0  0  0  0
   -1.2066   -0.7035    0.0000 C   0  0  0  0  0  0  0  0  0  0  0  0
   -2.0773   -1.2021    0.0045 H   0  0  0  0  0  0  0  0  0  0  0  0
    0.0031   -1.3974    0.0066 C   0  0  0  0  0  0  0  0  0  0  0  0
    0.0079   -2.3917    0.0148 H   0  0  0  0  0  0  0  0  0  0  0  0
    1.2066   -0.6853    0.0000 C   0  0  0  0  0  0  0  0  0  0  0  0
    2.0885   -1.1813    0.0041 H   0  0  0  0  0  0  0  0  0  0  0  0
    1.1970    0.7059   -0.0102 C   0  0  0  0  0  0  0  0  0  0  0  0
    2.0617    1.2039   -0.0364 H   0  0  0  0  0  0  0  0  0  0  0  0
  1  5  1  0
  5  8  1  0
  1  2  1  0
  1  3  1  0
  1  4  1  0
  5  6  1  0
  5  7  1  0
  8  9  1  0
  8 10  1  0
  8 11  1  0
 12 16  1  0
 16 17  2  0
 17 19  1  0
 19 21  2  0
 21 23  1  0
 23 25  2  0
 25 16  1  0
 12 13  1  0
 12 14  1  0
 12 15  1  0
 17 18  1  0
 19 20  1  0
 21 22  1  0
 23 24  1  0
 25 26  1  0
M  CHG  1   8   1
M  END
>  <PDB_ID>  (2663) 
pdb3viq

>  <RESIDUE_NAME>  (2663) 
LYS   PHE

>  <FRAG_NAME>  (2663) 
ETAM   MBZ

>  <FRAG_ATOM_NUM>  (2663) 
fragi: 11  fragj: 15

>  <atom.prop.CHAIN_ID>  (2663) 
A A A A A A A A A A A Z Z Z Z Z Z Z Z Z Z Z Z Z Z Z

>  <atom.prop.IS_HEAVY_ATOM>  (2663) 
1 0 0 0 1 0 0 1 0 0 0 1 0 0 0 1 1 0 1 0 1 0 1 0 1 0

>  <DIFUSE_FUNC_ATOM>  (2663) 
n/a

>  <FINAL_SINGLE_POINT_ENERGY>  (2663) 
0

>  <NONCOV_INTER_ENERGY_QM>  (2663) 
0

>  <FF_Energy>  (2663) 
-3.1

>  <QM_Energy>  (2663) 
-8.63

>  <source>  (2663) 
ETAM_MBZ

>  <Index>  (2663) 
28462

$$$$
ETAM-pdb4wa1-B-LYS-259:MBZ-pdb4wa1-B-PHE-174
     RDKit          3D

 26 25  0  0  0  0  0  0  0  0999 V2000
   -0.9917   -1.6076   -4.9709 C   0  0  0  0  0  0  0  0  0  0  0  0
   -1.2329   -2.2858   -5.6516 H   0  0  0  0  0  0  0  0  0  0  0  0
   -0.5032   -0.8499   -5.3812 H   0  0  0  0  0  0  0  0  0  0  0  0
   -1.8971   -1.2392   -4.4886 H   0  0  0  0  0  0  0  0  0  0  0  0
   -0.0806   -2.2646   -3.9416 C   0  0  0  0  0  0  0  0  0  0  0  0
   -0.6359   -2.6483   -3.2098 H   0  0  0  0  0  0  0  0  0  0  0  0
    0.4491   -2.9827   -4.3828 H   0  0  0  0  0  0  0  0  0  0  0  0
    0.8648   -1.2512   -3.3567 N   0  0  0  0  0  4  0  0  0  0  0  0
    1.3113   -1.6477   -2.5583 H   0  0  0  0  0  0  0  0  0  0  0  0
    1.5465   -1.0104   -4.0435 H   0  0  0  0  0  0  0  0  0  0  0  0
    0.3477   -0.4418   -3.0908 H   0  0  0  0  0  0  0  0  0  0  0  0
   -0.0025    2.9147   -0.0079 C   0  0  0  0  0  0  0  0  0  0  0  0
   -0.7157    3.2125   -0.6256 H   0  0  0  0  0  0  0  0  0  0  0  0
    0.8873    3.2179   -0.3162 H   0  0  0  0  0  0  0  0  0  0  0  0
   -0.1910    3.3726    0.9631 H   0  0  0  0  0  0  0  0  0  0  0  0
   -0.0000    1.4026    0.0041 C   0  0  0  0  0  0  0  0  0  0  0  0
   -1.1957    0.6908   -0.0024 C   0  0  0  0  0  0  0  0  0  0  0  0
   -2.0629    1.1825   -0.0099 H   0  0  0  0  0  0  0  0  0  0  0  0
   -1.2007   -0.6966   -0.0000 C   0  0  0  0  0  0  0  0  0  0  0  0
   -2.0785   -1.1904    0.0030 H   0  0  0  0  0  0  0  0  0  0  0  0
   -0.0018   -1.3930   -0.0001 C   0  0  0  0  0  0  0  0  0  0  0  0
   -0.0053   -2.3920   -0.0003 H   0  0  0  0  0  0  0  0  0  0  0  0
    1.2007   -0.6976    0.0000 C   0  0  0  0  0  0  0  0  0  0  0  0
    2.0809   -1.1956    0.0027 H   0  0  0  0  0  0  0  0  0  0  0  0
    1.1976    0.6939   -0.0016 C   0  0  0  0  0  0  0  0  0  0  0  0
    2.0650    1.1899   -0.0081 H   0  0  0  0  0  0  0  0  0  0  0  0
  1  5  1  0
  5  8  1  0
  1  2  1  0
  1  3  1  0
  1  4  1  0
  5  6  1  0
  5  7  1  0
  8  9  1  0
  8 10  1  0
  8 11  1  0
 12 16  1  0
 16 17  2  0
 17 19  1  0
 19 21  2  0
 21 23  1  0
 23 25  2  0
 25 16  1  0
 12 13  1  0
 12 14  1  0
 12 15  1  0
 17 18  1  0
 19 20  1  0
 21 22  1  0
 23 24  1  0
 25 26  1  0
M  CHG  1   8   1
M  END
>  <PDB_ID>  (2664) 
pdb4wa1

>  <RESIDUE_NAME>  (2664) 
LYS   PHE

>  <FRAG_NAME>  (2664) 
ETAM   MBZ

>  <FRAG_ATOM_NUM>  (2664) 
fragi: 11  fragj: 15

>  <atom.prop.CHAIN_ID>  (2664) 
A A A A A A A A A A A Z Z Z Z Z Z Z Z Z Z Z Z Z Z Z

>  <atom.prop.IS_HEAVY_ATOM>  (2664) 
1 0 0 0 1 0 0 1 0 0 0 1 0 0 0 1 1 0 1 0 1 0 1 0 1 0

>  <DIFUSE_FUNC_ATOM>  (2664) 
n/a

>  <FINAL_SINGLE_POINT_ENERGY>  (2664) 
0

>  <NONCOV_INTER_ENERGY_QM>  (2664) 
0

>  <FF_Energy>  (2664) 
-6.19

>  <QM_Energy>  (2664) 
-12.53

>  <source>  (2664) 
ETAM_MBZ

>  <Index>  (2664) 
28463

$$$$
ETAM-pdb4wjk-A-LYS-41:MBZ-pdb4wjk-A-PHE-18
     RDKit          3D

 26 25  0  0  0  0  0  0  0  0999 V2000
    0.6357   -0.2246   -3.5856 C   0  0  0  0  0  0  0  0  0  0  0  0
    0.4390   -0.2739   -2.6367 H   0  0  0  0  0  0  0  0  0  0  0  0
   -0.1748   -0.3469   -4.1031 H   0  0  0  0  0  0  0  0  0  0  0  0
    1.0669    0.7499   -3.8149 H   0  0  0  0  0  0  0  0  0  0  0  0
    1.5873   -1.3366   -3.9277 C   0  0  0  0  0  0  0  0  0  0  0  0
    1.6985   -1.3778   -4.8907 H   0  0  0  0  0  0  0  0  0  0  0  0
    2.4403   -1.1719   -3.4976 H   0  0  0  0  0  0  0  0  0  0  0  0
    1.0756   -2.6497   -3.4624 N   0  0  0  0  0  4  0  0  0  0  0  0
    1.6532   -3.2929   -3.6754 H   0  0  0  0  0  0  0  0  0  0  0  0
    0.9681   -2.6373   -2.5791 H   0  0  0  0  0  0  0  0  0  0  0  0
    0.2925   -2.8249   -3.8475 H   0  0  0  0  0  0  0  0  0  0  0  0
    0.0162    2.9061   -0.0013 C   0  0  0  0  0  0  0  0  0  0  0  0
    0.3238    3.2003   -0.8727 H   0  0  0  0  0  0  0  0  0  0  0  0
    0.6395    3.1955    0.6824 H   0  0  0  0  0  0  0  0  0  0  0  0
   -0.9567    3.3551    0.1981 H   0  0  0  0  0  0  0  0  0  0  0  0
    0.0023    1.3984   -0.0037 C   0  0  0  0  0  0  0  0  0  0  0  0
   -1.1934    0.6899    0.0041 C   0  0  0  0  0  0  0  0  0  0  0  0
   -2.0008    1.1513    0.0016 H   0  0  0  0  0  0  0  0  0  0  0  0
   -1.1973   -0.6976   -0.0000 C   0  0  0  0  0  0  0  0  0  0  0  0
   -2.0042   -1.1612    0.0027 H   0  0  0  0  0  0  0  0  0  0  0  0
    0.0012   -1.3904   -0.0003 C   0  0  0  0  0  0  0  0  0  0  0  0
    0.0027   -2.3210    0.0006 H   0  0  0  0  0  0  0  0  0  0  0  0
    1.1973   -0.6945    0.0000 C   0  0  0  0  0  0  0  0  0  0  0  0
    2.0042   -1.1563   -0.0011 H   0  0  0  0  0  0  0  0  0  0  0  0
    1.1899    0.6942   -0.0001 C   0  0  0  0  0  0  0  0  0  0  0  0
    1.9970    1.1561   -0.0027 H   0  0  0  0  0  0  0  0  0  0  0  0
  1  5  1  0
  5  8  1  0
  1  2  1  0
  1  3  1  0
  1  4  1  0
  5  6  1  0
  5  7  1  0
  8  9  1  0
  8 10  1  0
  8 11  1  0
 12 16  1  0
 16 17  2  0
 17 19  1  0
 19 21  2  0
 21 23  1  0
 23 25  2  0
 25 16  1  0
 12 13  1  0
 12 14  1  0
 12 15  1  0
 17 18  1  0
 19 20  1  0
 21 22  1  0
 23 24  1  0
 25 26  1  0
M  CHG  1   8   1
M  END
>  <PDB_ID>  (2665) 
pdb4wjk

>  <RESIDUE_NAME>  (2665) 
LYS   PHE

>  <FRAG_NAME>  (2665) 
ETAM   MBZ

>  <FRAG_ATOM_NUM>  (2665) 
fragi: 11  fragj: 15

>  <atom.prop.CHAIN_ID>  (2665) 
A A A A A A A A A A A Z Z Z Z Z Z Z Z Z Z Z Z Z Z Z

>  <atom.prop.IS_HEAVY_ATOM>  (2665) 
1 0 0 0 1 0 0 1 0 0 0 1 0 0 0 1 1 0 1 0 1 0 1 0 1 0

>  <DIFUSE_FUNC_ATOM>  (2665) 
n/a

>  <FINAL_SINGLE_POINT_ENERGY>  (2665) 
0

>  <NONCOV_INTER_ENERGY_QM>  (2665) 
0

>  <FF_Energy>  (2665) 
-3.84

>  <QM_Energy>  (2665) 
-9.67

>  <source>  (2665) 
ETAM_MBZ

>  <Index>  (2665) 
28469

$$$$
ETAM-pdb3vj6-B-LYS-58:MBZ-pdb3vj6-A-PHE-8
     RDKit          3D

 26 25  0  0  0  0  0  0  0  0999 V2000
    4.2735   -5.4045   -0.0883 C   0  0  0  0  0  0  0  0  0  0  0  0
    4.3703   -5.1141   -1.0345 H   0  0  0  0  0  0  0  0  0  0  0  0
    3.7018   -6.2155   -0.0308 H   0  0  0  0  0  0  0  0  0  0  0  0
    5.2605   -5.6396    0.3100 H   0  0  0  0  0  0  0  0  0  0  0  0
    3.5975   -4.2798    0.6974 C   0  0  0  0  0  0  0  0  0  0  0  0
    3.5294   -4.5541    1.6584 H   0  0  0  0  0  0  0  0  0  0  0  0
    4.1634   -3.4554    0.6317 H   0  0  0  0  0  0  0  0  0  0  0  0
    2.2331   -3.9817    0.1735 N   0  0  0  0  0  4  0  0  0  0  0  0
    1.6961   -3.5335    0.8868 H   0  0  0  0  0  0  0  0  0  0  0  0
    2.3086   -3.3784   -0.6197 H   0  0  0  0  0  0  0  0  0  0  0  0
    1.7894   -4.8355   -0.0946 H   0  0  0  0  0  0  0  0  0  0  0  0
    0.0053    2.8998    0.0103 C   0  0  0  0  0  0  0  0  0  0  0  0
   -0.7121    3.2122   -0.5942 H   0  0  0  0  0  0  0  0  0  0  0  0
    0.8937    3.2047   -0.2982 H   0  0  0  0  0  0  0  0  0  0  0  0
   -0.1738    3.3380    0.9921 H   0  0  0  0  0  0  0  0  0  0  0  0
   -0.0006    1.3983    0.0047 C   0  0  0  0  0  0  0  0  0  0  0  0
   -1.1911    0.6925   -0.0101 C   0  0  0  0  0  0  0  0  0  0  0  0
   -2.0602    1.1785   -0.0292 H   0  0  0  0  0  0  0  0  0  0  0  0
   -1.1912   -0.6972   -0.0000 C   0  0  0  0  0  0  0  0  0  0  0  0
   -2.0720   -1.1901    0.0084 H   0  0  0  0  0  0  0  0  0  0  0  0
    0.0007   -1.3858    0.0006 C   0  0  0  0  0  0  0  0  0  0  0  0
   -0.0019   -2.3883    0.0007 H   0  0  0  0  0  0  0  0  0  0  0  0
    1.1912   -0.6941    0.0000 C   0  0  0  0  0  0  0  0  0  0  0  0
    2.0763   -1.1949   -0.0021 H   0  0  0  0  0  0  0  0  0  0  0  0
    1.1910    0.6863    0.0049 C   0  0  0  0  0  0  0  0  0  0  0  0
    2.0613    1.1834    0.0073 H   0  0  0  0  0  0  0  0  0  0  0  0
  1  5  1  0
  5  8  1  0
  1  2  1  0
  1  3  1  0
  1  4  1  0
  5  6  1  0
  5  7  1  0
  8  9  1  0
  8 10  1  0
  8 11  1  0
 12 16  1  0
 16 17  2  0
 17 19  1  0
 19 21  2  0
 21 23  1  0
 23 25  2  0
 25 16  1  0
 12 13  1  0
 12 14  1  0
 12 15  1  0
 17 18  1  0
 19 20  1  0
 21 22  1  0
 23 24  1  0
 25 26  1  0
M  CHG  1   8   1
M  END
>  <PDB_ID>  (2666) 
pdb3vj6

>  <RESIDUE_NAME>  (2666) 
LYS   PHE

>  <FRAG_NAME>  (2666) 
ETAM   MBZ

>  <FRAG_ATOM_NUM>  (2666) 
fragi: 11  fragj: 15

>  <atom.prop.CHAIN_ID>  (2666) 
A A A A A A A A A A A Z Z Z Z Z Z Z Z Z Z Z Z Z Z Z

>  <atom.prop.IS_HEAVY_ATOM>  (2666) 
1 0 0 0 1 0 0 1 0 0 0 1 0 0 0 1 1 0 1 0 1 0 1 0 1 0

>  <DIFUSE_FUNC_ATOM>  (2666) 
n/a

>  <FINAL_SINGLE_POINT_ENERGY>  (2666) 
0

>  <NONCOV_INTER_ENERGY_QM>  (2666) 
0

>  <FF_Energy>  (2666) 
1.64

>  <QM_Energy>  (2666) 
-4.85

>  <source>  (2666) 
ETAM_MBZ

>  <Index>  (2666) 
28473

$$$$
ETAM-pdb3vgz-A-LYS-251:MBZ-pdb3vgz-A-PHE-232
     RDKit          3D

 26 25  0  0  0  0  0  0  0  0999 V2000
   -0.0953    0.9898   -4.6091 C   0  0  0  0  0  0  0  0  0  0  0  0
   -0.5692    0.4643   -5.3071 H   0  0  0  0  0  0  0  0  0  0  0  0
    0.5430    1.6269   -5.0265 H   0  0  0  0  0  0  0  0  0  0  0  0
   -0.8292    1.5520   -4.0317 H   0  0  0  0  0  0  0  0  0  0  0  0
    0.6824    0.0329   -3.7242 C   0  0  0  0  0  0  0  0  0  0  0  0
    1.3617   -0.4487   -4.2821 H   0  0  0  0  0  0  0  0  0  0  0  0
    1.1552    0.5568   -3.0119 H   0  0  0  0  0  0  0  0  0  0  0  0
   -0.2158   -0.9657   -3.0798 N   0  0  0  0  0  4  0  0  0  0  0  0
   -0.5542   -0.5972   -2.2143 H   0  0  0  0  0  0  0  0  0  0  0  0
   -0.9864   -1.1583   -3.6862 H   0  0  0  0  0  0  0  0  0  0  0  0
    0.2937   -1.8073   -2.9086 H   0  0  0  0  0  0  0  0  0  0  0  0
    0.0077    2.9195   -0.0191 C   0  0  0  0  0  0  0  0  0  0  0  0
    0.1063    3.2104   -0.9583 H   0  0  0  0  0  0  0  0  0  0  0  0
    0.7671    3.2253    0.5341 H   0  0  0  0  0  0  0  0  0  0  0  0
   -0.9001    3.3736    0.3782 H   0  0  0  0  0  0  0  0  0  0  0  0
    0.0000    1.4077   -0.0003 C   0  0  0  0  0  0  0  0  0  0  0  0
   -1.1987    0.6941   -0.0003 C   0  0  0  0  0  0  0  0  0  0  0  0
   -2.0656    1.1833   -0.0012 H   0  0  0  0  0  0  0  0  0  0  0  0
   -1.2050   -0.7018    0.0000 C   0  0  0  0  0  0  0  0  0  0  0  0
   -2.0798   -1.1943    0.0016 H   0  0  0  0  0  0  0  0  0  0  0  0
    0.0008   -1.3989   -0.0001 C   0  0  0  0  0  0  0  0  0  0  0  0
   -0.0020   -2.3962   -0.0005 H   0  0  0  0  0  0  0  0  0  0  0  0
    1.2050   -0.6983   -0.0000 C   0  0  0  0  0  0  0  0  0  0  0  0
    2.0856   -1.1931    0.0008 H   0  0  0  0  0  0  0  0  0  0  0  0
    1.1979    0.6972    0.0006 C   0  0  0  0  0  0  0  0  0  0  0  0
    2.0664    1.1934    0.0008 H   0  0  0  0  0  0  0  0  0  0  0  0
  1  5  1  0
  5  8  1  0
  1  2  1  0
  1  3  1  0
  1  4  1  0
  5  6  1  0
  5  7  1  0
  8  9  1  0
  8 10  1  0
  8 11  1  0
 12 16  1  0
 16 17  2  0
 17 19  1  0
 19 21  2  0
 21 23  1  0
 23 25  2  0
 25 16  1  0
 12 13  1  0
 12 14  1  0
 12 15  1  0
 17 18  1  0
 19 20  1  0
 21 22  1  0
 23 24  1  0
 25 26  1  0
M  CHG  1   8   1
M  END
>  <PDB_ID>  (2667) 
pdb3vgz

>  <RESIDUE_NAME>  (2667) 
LYS   PHE

>  <FRAG_NAME>  (2667) 
ETAM   MBZ

>  <FRAG_ATOM_NUM>  (2667) 
fragi: 11  fragj: 15

>  <atom.prop.CHAIN_ID>  (2667) 
A A A A A A A A A A A Z Z Z Z Z Z Z Z Z Z Z Z Z Z Z

>  <atom.prop.IS_HEAVY_ATOM>  (2667) 
1 0 0 0 1 0 0 1 0 0 0 1 0 0 0 1 1 0 1 0 1 0 1 0 1 0

>  <DIFUSE_FUNC_ATOM>  (2667) 
n/a

>  <FINAL_SINGLE_POINT_ENERGY>  (2667) 
0

>  <NONCOV_INTER_ENERGY_QM>  (2667) 
0

>  <FF_Energy>  (2667) 
-8.7

>  <QM_Energy>  (2667) 
-16.7

>  <source>  (2667) 
ETAM_MBZ

>  <Index>  (2667) 
28476

$$$$
ETAM-pdb4wk5-A-LYS-158:MBZ-pdb4wk5-A-PHE-162
     RDKit          3D

 26 25  0  0  0  0  0  0  0  0999 V2000
   -2.3640   -1.1309   -3.7426 C   0  0  0  0  0  0  0  0  0  0  0  0
   -2.7853   -0.4951   -3.1073 H   0  0  0  0  0  0  0  0  0  0  0  0
   -3.0418   -1.5138   -4.3577 H   0  0  0  0  0  0  0  0  0  0  0  0
   -1.6116   -0.6017   -4.3273 H   0  0  0  0  0  0  0  0  0  0  0  0
   -1.7375   -2.2707   -2.9424 C   0  0  0  0  0  0  0  0  0  0  0  0
   -1.2744   -2.8959   -3.5784 H   0  0  0  0  0  0  0  0  0  0  0  0
   -1.0520   -1.8867   -2.3149 H   0  0  0  0  0  0  0  0  0  0  0  0
   -2.7467   -3.0369   -2.1531 N   0  0  0  0  0  4  0  0  0  0  0  0
   -2.5135   -4.0078   -2.1749 H   0  0  0  0  0  0  0  0  0  0  0  0
   -2.7431   -2.7103   -1.2093 H   0  0  0  0  0  0  0  0  0  0  0  0
   -3.6515   -2.8992   -2.5526 H   0  0  0  0  0  0  0  0  0  0  0  0
    0.0215    2.9102   -0.0003 C   0  0  0  0  0  0  0  0  0  0  0  0
    0.0994    3.2168   -0.9382 H   0  0  0  0  0  0  0  0  0  0  0  0
    0.8029    3.1983    0.5351 H   0  0  0  0  0  0  0  0  0  0  0  0
   -0.8674    3.3708    0.4308 H   0  0  0  0  0  0  0  0  0  0  0  0
   -0.0006    1.3986   -0.0092 C   0  0  0  0  0  0  0  0  0  0  0  0
   -1.1925    0.6968    0.0081 C   0  0  0  0  0  0  0  0  0  0  0  0
   -2.0604    1.1834    0.0251 H   0  0  0  0  0  0  0  0  0  0  0  0
   -1.1960   -0.6962    0.0000 C   0  0  0  0  0  0  0  0  0  0  0  0
   -2.0747   -1.1884   -0.0033 H   0  0  0  0  0  0  0  0  0  0  0  0
    0.0023   -1.3923   -0.0018 C   0  0  0  0  0  0  0  0  0  0  0  0
   -0.0060   -2.3931   -0.0050 H   0  0  0  0  0  0  0  0  0  0  0  0
    1.1960   -0.7030   -0.0000 C   0  0  0  0  0  0  0  0  0  0  0  0
    2.0807   -1.1932    0.0005 H   0  0  0  0  0  0  0  0  0  0  0  0
    1.1908    0.6962    0.0029 C   0  0  0  0  0  0  0  0  0  0  0  0
    2.0613    1.1869    0.0123 H   0  0  0  0  0  0  0  0  0  0  0  0
  1  5  1  0
  5  8  1  0
  1  2  1  0
  1  3  1  0
  1  4  1  0
  5  6  1  0
  5  7  1  0
  8  9  1  0
  8 10  1  0
  8 11  1  0
 12 16  1  0
 16 17  2  0
 17 19  1  0
 19 21  2  0
 21 23  1  0
 23 25  2  0
 25 16  1  0
 12 13  1  0
 12 14  1  0
 12 15  1  0
 17 18  1  0
 19 20  1  0
 21 22  1  0
 23 24  1  0
 25 26  1  0
M  CHG  1   8   1
M  END
>  <PDB_ID>  (2668) 
pdb4wk5

>  <RESIDUE_NAME>  (2668) 
LYS   PHE

>  <FRAG_NAME>  (2668) 
ETAM   MBZ

>  <FRAG_ATOM_NUM>  (2668) 
fragi: 11  fragj: 15

>  <atom.prop.CHAIN_ID>  (2668) 
A A A A A A A A A A A Z Z Z Z Z Z Z Z Z Z Z Z Z Z Z

>  <atom.prop.IS_HEAVY_ATOM>  (2668) 
1 0 0 0 1 0 0 1 0 0 0 1 0 0 0 1 1 0 1 0 1 0 1 0 1 0

>  <DIFUSE_FUNC_ATOM>  (2668) 
n/a

>  <FINAL_SINGLE_POINT_ENERGY>  (2668) 
0

>  <NONCOV_INTER_ENERGY_QM>  (2668) 
0

>  <FF_Energy>  (2668) 
-0.16

>  <QM_Energy>  (2668) 
-6.57

>  <source>  (2668) 
ETAM_MBZ

>  <Index>  (2668) 
28479

$$$$
ETAM-pdb4wky-B-LYS-176:MBZ-pdb4wky-B-PHE-92
     RDKit          3D

 26 25  0  0  0  0  0  0  0  0999 V2000
    1.3680   -2.5279   -3.8713 C   0  0  0  0  0  0  0  0  0  0  0  0
    2.0686   -1.8891   -3.5446 H   0  0  0  0  0  0  0  0  0  0  0  0
    1.4328   -2.6032   -4.8694 H   0  0  0  0  0  0  0  0  0  0  0  0
    1.5701   -3.5078   -3.4390 H   0  0  0  0  0  0  0  0  0  0  0  0
    0.0155   -1.9996   -3.5070 C   0  0  0  0  0  0  0  0  0  0  0  0
   -0.6726   -2.4054   -4.0918 H   0  0  0  0  0  0  0  0  0  0  0  0
   -0.1724   -2.1847   -2.5531 H   0  0  0  0  0  0  0  0  0  0  0  0
    0.0276   -0.5245   -3.7217 N   0  0  0  0  0  4  0  0  0  0  0  0
    0.6803   -0.1043   -3.0922 H   0  0  0  0  0  0  0  0  0  0  0  0
    0.2969   -0.3302   -4.6637 H   0  0  0  0  0  0  0  0  0  0  0  0
   -0.8863   -0.1580   -3.5508 H   0  0  0  0  0  0  0  0  0  0  0  0
    0.0183    2.8901    0.0499 C   0  0  0  0  0  0  0  0  0  0  0  0
    0.9432    3.1790    0.2782 H   0  0  0  0  0  0  0  0  0  0  0  0
   -0.6172    3.1768    0.7612 H   0  0  0  0  0  0  0  0  0  0  0  0
   -0.2686    3.3880   -0.8763 H   0  0  0  0  0  0  0  0  0  0  0  0
    0.0044    1.3932   -0.0026 C   0  0  0  0  0  0  0  0  0  0  0  0
   -1.1866    0.7052    0.0031 C   0  0  0  0  0  0  0  0  0  0  0  0
   -2.0519    1.1946    0.0082 H   0  0  0  0  0  0  0  0  0  0  0  0
   -1.1919   -0.6823    0.0000 C   0  0  0  0  0  0  0  0  0  0  0  0
   -2.0773   -1.1719   -0.0017 H   0  0  0  0  0  0  0  0  0  0  0  0
   -0.0053   -1.3867    0.0018 C   0  0  0  0  0  0  0  0  0  0  0  0
   -0.0202   -2.3884    0.0041 H   0  0  0  0  0  0  0  0  0  0  0  0
    1.1919   -0.7069    0.0000 C   0  0  0  0  0  0  0  0  0  0  0  0
    2.0717   -1.2063    0.0017 H   0  0  0  0  0  0  0  0  0  0  0  0
    1.1875    0.6775   -0.0023 C   0  0  0  0  0  0  0  0  0  0  0  0
    2.0640    1.1720   -0.0045 H   0  0  0  0  0  0  0  0  0  0  0  0
  1  5  1  0
  5  8  1  0
  1  2  1  0
  1  3  1  0
  1  4  1  0
  5  6  1  0
  5  7  1  0
  8  9  1  0
  8 10  1  0
  8 11  1  0
 12 16  1  0
 16 17  2  0
 17 19  1  0
 19 21  2  0
 21 23  1  0
 23 25  2  0
 25 16  1  0
 12 13  1  0
 12 14  1  0
 12 15  1  0
 17 18  1  0
 19 20  1  0
 21 22  1  0
 23 24  1  0
 25 26  1  0
M  CHG  1   8   1
M  END
>  <PDB_ID>  (2669) 
pdb4wky

>  <RESIDUE_NAME>  (2669) 
LYS   PHE

>  <FRAG_NAME>  (2669) 
ETAM   MBZ

>  <FRAG_ATOM_NUM>  (2669) 
fragi: 11  fragj: 15

>  <atom.prop.CHAIN_ID>  (2669) 
A A A A A A A A A A A Z Z Z Z Z Z Z Z Z Z Z Z Z Z Z

>  <atom.prop.IS_HEAVY_ATOM>  (2669) 
1 0 0 0 1 0 0 1 0 0 0 1 0 0 0 1 1 0 1 0 1 0 1 0 1 0

>  <DIFUSE_FUNC_ATOM>  (2669) 
n/a

>  <FINAL_SINGLE_POINT_ENERGY>  (2669) 
0

>  <NONCOV_INTER_ENERGY_QM>  (2669) 
0

>  <FF_Energy>  (2669) 
-6.81

>  <QM_Energy>  (2669) 
-12.21

>  <source>  (2669) 
ETAM_MBZ

>  <Index>  (2669) 
28489

$$$$
ETAM-pdb4wmz-A-LYS-151:MBZ-pdb4wmz-A-PHE-449
     RDKit          3D

 26 25  0  0  0  0  0  0  0  0999 V2000
    1.8680    0.1468   -3.9735 C   0  0  0  0  0  0  0  0  0  0  0  0
    2.3791   -0.4243   -4.6028 H   0  0  0  0  0  0  0  0  0  0  0  0
    2.3855    0.3139   -3.1454 H   0  0  0  0  0  0  0  0  0  0  0  0
    1.6307    1.0961   -4.4538 H   0  0  0  0  0  0  0  0  0  0  0  0
    0.5806   -0.6153   -3.5815 C   0  0  0  0  0  0  0  0  0  0  0  0
    0.1373   -0.1152   -2.8450 H   0  0  0  0  0  0  0  0  0  0  0  0
   -0.0113   -0.6537   -4.3793 H   0  0  0  0  0  0  0  0  0  0  0  0
    0.9224   -1.9779   -3.1369 N   0  0  0  0  0  4  0  0  0  0  0  0
    0.4040   -2.2047   -2.3093 H   0  0  0  0  0  0  0  0  0  0  0  0
    0.6971   -2.6361   -3.8575 H   0  0  0  0  0  0  0  0  0  0  0  0
    1.9025   -2.0328   -2.9366 H   0  0  0  0  0  0  0  0  0  0  0  0
    0.0033    2.9043    0.0084 C   0  0  0  0  0  0  0  0  0  0  0  0
   -0.8010    3.2119   -0.4787 H   0  0  0  0  0  0  0  0  0  0  0  0
    0.8315    3.2136   -0.4348 H   0  0  0  0  0  0  0  0  0  0  0  0
   -0.0236    3.3538    1.0010 H   0  0  0  0  0  0  0  0  0  0  0  0
    0.0051    1.3973    0.0077 C   0  0  0  0  0  0  0  0  0  0  0  0
   -1.1897    0.6856    0.0011 C   0  0  0  0  0  0  0  0  0  0  0  0
   -2.0579    1.1795   -0.0040 H   0  0  0  0  0  0  0  0  0  0  0  0
   -1.1993   -0.7018    0.0000 C   0  0  0  0  0  0  0  0  0  0  0  0
   -2.0807   -1.1904    0.0024 H   0  0  0  0  0  0  0  0  0  0  0  0
   -0.0107   -1.3909   -0.0023 C   0  0  0  0  0  0  0  0  0  0  0  0
    0.0014   -2.3878   -0.0069 H   0  0  0  0  0  0  0  0  0  0  0  0
    1.1993   -0.6820   -0.0000 C   0  0  0  0  0  0  0  0  0  0  0  0
    2.0762   -1.1917    0.0084 H   0  0  0  0  0  0  0  0  0  0  0  0
    1.1952    0.6918   -0.0064 C   0  0  0  0  0  0  0  0  0  0  0  0
    2.0646    1.1939   -0.0217 H   0  0  0  0  0  0  0  0  0  0  0  0
  1  5  1  0
  5  8  1  0
  1  2  1  0
  1  3  1  0
  1  4  1  0
  5  6  1  0
  5  7  1  0
  8  9  1  0
  8 10  1  0
  8 11  1  0
 12 16  1  0
 16 17  2  0
 17 19  1  0
 19 21  2  0
 21 23  1  0
 23 25  2  0
 25 16  1  0
 12 13  1  0
 12 14  1  0
 12 15  1  0
 17 18  1  0
 19 20  1  0
 21 22  1  0
 23 24  1  0
 25 26  1  0
M  CHG  1   8   1
M  END
>  <PDB_ID>  (2670) 
pdb4wmz

>  <RESIDUE_NAME>  (2670) 
LYS   PHE

>  <FRAG_NAME>  (2670) 
ETAM   MBZ

>  <FRAG_ATOM_NUM>  (2670) 
fragi: 11  fragj: 15

>  <atom.prop.CHAIN_ID>  (2670) 
A A A A A A A A A A A Z Z Z Z Z Z Z Z Z Z Z Z Z Z Z

>  <atom.prop.IS_HEAVY_ATOM>  (2670) 
1 0 0 0 1 0 0 1 0 0 0 1 0 0 0 1 1 0 1 0 1 0 1 0 1 0

>  <DIFUSE_FUNC_ATOM>  (2670) 
n/a

>  <FINAL_SINGLE_POINT_ENERGY>  (2670) 
0

>  <NONCOV_INTER_ENERGY_QM>  (2670) 
0

>  <FF_Energy>  (2670) 
-5.75

>  <QM_Energy>  (2670) 
-13.63

>  <source>  (2670) 
ETAM_MBZ

>  <Index>  (2670) 
28511

$$$$
ETAM-pdb4wnd-A-LYS-340:MBZ-pdb4wnd-A-PHE-337
     RDKit          3D

 26 25  0  0  0  0  0  0  0  0999 V2000
   -3.1635    0.5970   -3.6461 C   0  0  0  0  0  0  0  0  0  0  0  0
   -2.9195   -0.0153   -4.3933 H   0  0  0  0  0  0  0  0  0  0  0  0
   -2.3412    0.9733   -3.2283 H   0  0  0  0  0  0  0  0  0  0  0  0
   -3.7660    1.4144   -4.0424 H   0  0  0  0  0  0  0  0  0  0  0  0
   -3.9195   -0.1955   -2.5974 C   0  0  0  0  0  0  0  0  0  0  0  0
   -3.8274    0.2664   -1.7086 H   0  0  0  0  0  0  0  0  0  0  0  0
   -4.8945   -0.2198   -2.8446 H   0  0  0  0  0  0  0  0  0  0  0  0
   -3.4163   -1.5943   -2.4711 N   0  0  0  0  0  4  0  0  0  0  0  0
   -3.7221   -1.9771   -1.6007 H   0  0  0  0  0  0  0  0  0  0  0  0
   -3.7753   -2.1428   -3.2251 H   0  0  0  0  0  0  0  0  0  0  0  0
   -2.4184   -1.5900   -2.5042 H   0  0  0  0  0  0  0  0  0  0  0  0
   -0.0226    2.8751   -0.1191 C   0  0  0  0  0  0  0  0  0  0  0  0
    0.8826    3.2226    0.0554 H   0  0  0  0  0  0  0  0  0  0  0  0
   -0.6832    3.2317    0.5193 H   0  0  0  0  0  0  0  0  0  0  0  0
   -0.3158    3.2034   -1.1162 H   0  0  0  0  0  0  0  0  0  0  0  0
    0.0042    1.4011    0.0012 C   0  0  0  0  0  0  0  0  0  0  0  0
   -1.1952    0.6945   -0.0237 C   0  0  0  0  0  0  0  0  0  0  0  0
   -2.0591    1.1840   -0.0599 H   0  0  0  0  0  0  0  0  0  0  0  0
   -1.1961   -0.6957   -0.0000 C   0  0  0  0  0  0  0  0  0  0  0  0
   -2.0793   -1.1867   -0.0019 H   0  0  0  0  0  0  0  0  0  0  0  0
   -0.0084   -1.3849    0.0271 C   0  0  0  0  0  0  0  0  0  0  0  0
   -0.0128   -2.3893    0.0668 H   0  0  0  0  0  0  0  0  0  0  0  0
    1.1961   -0.7035    0.0000 C   0  0  0  0  0  0  0  0  0  0  0  0
    2.0730   -1.2055   -0.0145 H   0  0  0  0  0  0  0  0  0  0  0  0
    1.1994    0.6886   -0.0045 C   0  0  0  0  0  0  0  0  0  0  0  0
    2.0682    1.1807   -0.0133 H   0  0  0  0  0  0  0  0  0  0  0  0
  1  5  1  0
  5  8  1  0
  1  2  1  0
  1  3  1  0
  1  4  1  0
  5  6  1  0
  5  7  1  0
  8  9  1  0
  8 10  1  0
  8 11  1  0
 12 16  1  0
 16 17  2  0
 17 19  1  0
 19 21  2  0
 21 23  1  0
 23 25  2  0
 25 16  1  0
 12 13  1  0
 12 14  1  0
 12 15  1  0
 17 18  1  0
 19 20  1  0
 21 22  1  0
 23 24  1  0
 25 26  1  0
M  CHG  1   8   1
M  END
>  <PDB_ID>  (2671) 
pdb4wnd

>  <RESIDUE_NAME>  (2671) 
LYS   PHE

>  <FRAG_NAME>  (2671) 
ETAM   MBZ

>  <FRAG_ATOM_NUM>  (2671) 
fragi: 11  fragj: 15

>  <atom.prop.CHAIN_ID>  (2671) 
A A A A A A A A A A A Z Z Z Z Z Z Z Z Z Z Z Z Z Z Z

>  <atom.prop.IS_HEAVY_ATOM>  (2671) 
1 0 0 0 1 0 0 1 0 0 0 1 0 0 0 1 1 0 1 0 1 0 1 0 1 0

>  <DIFUSE_FUNC_ATOM>  (2671) 
n/a

>  <FINAL_SINGLE_POINT_ENERGY>  (2671) 
0

>  <NONCOV_INTER_ENERGY_QM>  (2671) 
0

>  <FF_Energy>  (2671) 
-1.69

>  <QM_Energy>  (2671) 
-7.27

>  <source>  (2671) 
ETAM_MBZ

>  <Index>  (2671) 
28515

$$$$
ETAM-pdb4wmj-A-LYS-426:MBZ-pdb4wmj-B-PHE-556
     RDKit          3D

 26 25  0  0  0  0  0  0  0  0999 V2000
    1.0802   -2.6879    4.3662 C   0  0  0  0  0  0  0  0  0  0  0  0
    1.4407   -3.3327    3.7201 H   0  0  0  0  0  0  0  0  0  0  0  0
    0.1412   -2.4642    4.1935 H   0  0  0  0  0  0  0  0  0  0  0  0
    1.1634   -3.1092    5.3680 H   0  0  0  0  0  0  0  0  0  0  0  0
    1.9082   -1.4233    4.3193 C   0  0  0  0  0  0  0  0  0  0  0  0
    1.7839   -0.9250    5.1678 H   0  0  0  0  0  0  0  0  0  0  0  0
    2.8612   -1.6658    4.1912 H   0  0  0  0  0  0  0  0  0  0  0  0
    1.4421   -0.6152    3.1914 N   0  0  0  0  0  4  0  0  0  0  0  0
    0.5048   -0.2982    3.3597 H   0  0  0  0  0  0  0  0  0  0  0  0
    2.0387    0.1837    3.0709 H   0  0  0  0  0  0  0  0  0  0  0  0
    1.4552   -1.1610    2.3489 H   0  0  0  0  0  0  0  0  0  0  0  0
    0.0417    2.8958    0.0371 C   0  0  0  0  0  0  0  0  0  0  0  0
    0.7913    3.1872   -0.5485 H   0  0  0  0  0  0  0  0  0  0  0  0
    0.2106    3.1734    0.9769 H   0  0  0  0  0  0  0  0  0  0  0  0
   -0.8703    3.3846   -0.3053 H   0  0  0  0  0  0  0  0  0  0  0  0
   -0.0010    1.3953    0.0075 C   0  0  0  0  0  0  0  0  0  0  0  0
   -1.2014    0.6812    0.0024 C   0  0  0  0  0  0  0  0  0  0  0  0
   -2.0656    1.1835   -0.0008 H   0  0  0  0  0  0  0  0  0  0  0  0
   -1.2104   -0.6914   -0.0000 C   0  0  0  0  0  0  0  0  0  0  0  0
   -2.0781   -1.1970    0.0167 H   0  0  0  0  0  0  0  0  0  0  0  0
    0.0028   -1.3868   -0.0246 C   0  0  0  0  0  0  0  0  0  0  0  0
    0.0006   -2.3832   -0.0601 H   0  0  0  0  0  0  0  0  0  0  0  0
    1.2104   -0.6863   -0.0000 C   0  0  0  0  0  0  0  0  0  0  0  0
    2.0864   -1.1913    0.0084 H   0  0  0  0  0  0  0  0  0  0  0  0
    1.1996    0.6880    0.0146 C   0  0  0  0  0  0  0  0  0  0  0  0
    2.0640    1.1962    0.0299 H   0  0  0  0  0  0  0  0  0  0  0  0
  1  5  1  0
  5  8  1  0
  1  2  1  0
  1  3  1  0
  1  4  1  0
  5  6  1  0
  5  7  1  0
  8  9  1  0
  8 10  1  0
  8 11  1  0
 12 16  1  0
 16 17  2  0
 17 19  1  0
 19 21  2  0
 21 23  1  0
 23 25  2  0
 25 16  1  0
 12 13  1  0
 12 14  1  0
 12 15  1  0
 17 18  1  0
 19 20  1  0
 21 22  1  0
 23 24  1  0
 25 26  1  0
M  CHG  1   8   1
M  END
>  <PDB_ID>  (2672) 
pdb4wmj

>  <RESIDUE_NAME>  (2672) 
LYS   PHE

>  <FRAG_NAME>  (2672) 
ETAM   MBZ

>  <FRAG_ATOM_NUM>  (2672) 
fragi: 11  fragj: 15

>  <atom.prop.CHAIN_ID>  (2672) 
A A A A A A A A A A A Z Z Z Z Z Z Z Z Z Z Z Z Z Z Z

>  <atom.prop.IS_HEAVY_ATOM>  (2672) 
1 0 0 0 1 0 0 1 0 0 0 1 0 0 0 1 1 0 1 0 1 0 1 0 1 0

>  <DIFUSE_FUNC_ATOM>  (2672) 
n/a

>  <FINAL_SINGLE_POINT_ENERGY>  (2672) 
0

>  <NONCOV_INTER_ENERGY_QM>  (2672) 
0

>  <FF_Energy>  (2672) 
-6.14

>  <QM_Energy>  (2672) 
-12.72

>  <source>  (2672) 
ETAM_MBZ

>  <Index>  (2672) 
28519

$$$$
ETAM-pdb4wmj-B-LYS-426:MBZ-pdb4wmj-A-PHE-556
     RDKit          3D

 26 25  0  0  0  0  0  0  0  0999 V2000
   -0.0824   -2.4409    4.4757 C   0  0  0  0  0  0  0  0  0  0  0  0
    0.4024   -3.0836    3.9373 H   0  0  0  0  0  0  0  0  0  0  0  0
   -0.9569   -2.2002    4.1337 H   0  0  0  0  0  0  0  0  0  0  0  0
   -0.1789   -2.8174    5.4941 H   0  0  0  0  0  0  0  0  0  0  0  0
    0.7613   -1.1703    4.5982 C   0  0  0  0  0  0  0  0  0  0  0  0
    0.2841   -0.5393    5.2164 H   0  0  0  0  0  0  0  0  0  0  0  0
    1.6426   -1.4210    5.0099 H   0  0  0  0  0  0  0  0  0  0  0  0
    0.9634   -0.5553    3.3050 N   0  0  0  0  0  4  0  0  0  0  0  0
    1.2481   -1.2435    2.6274 H   0  0  0  0  0  0  0  0  0  0  0  0
    0.1123   -0.1240    2.9822 H   0  0  0  0  0  0  0  0  0  0  0  0
    1.6773    0.1526    3.3594 H   0  0  0  0  0  0  0  0  0  0  0  0
    0.0330    2.8856    0.0561 C   0  0  0  0  0  0  0  0  0  0  0  0
    0.8765    3.1916   -0.3748 H   0  0  0  0  0  0  0  0  0  0  0  0
    0.0066    3.1781    1.0076 H   0  0  0  0  0  0  0  0  0  0  0  0
   -0.7947    3.3719   -0.4601 H   0  0  0  0  0  0  0  0  0  0  0  0
    0.0044    1.4004    0.0236 C   0  0  0  0  0  0  0  0  0  0  0  0
   -1.1879    0.6860   -0.0161 C   0  0  0  0  0  0  0  0  0  0  0  0
   -2.0559    1.1807   -0.0586 H   0  0  0  0  0  0  0  0  0  0  0  0
   -1.1958   -0.6947    0.0000 C   0  0  0  0  0  0  0  0  0  0  0  0
   -2.0739   -1.1911    0.0261 H   0  0  0  0  0  0  0  0  0  0  0  0
    0.0025   -1.3988   -0.0176 C   0  0  0  0  0  0  0  0  0  0  0  0
   -0.0022   -2.3915   -0.0432 H   0  0  0  0  0  0  0  0  0  0  0  0
    1.1958   -0.6943   -0.0000 C   0  0  0  0  0  0  0  0  0  0  0  0
    2.0828   -1.1820    0.0075 H   0  0  0  0  0  0  0  0  0  0  0  0
    1.1810    0.7014    0.0101 C   0  0  0  0  0  0  0  0  0  0  0  0
    2.0595    1.1930    0.0064 H   0  0  0  0  0  0  0  0  0  0  0  0
  1  5  1  0
  5  8  1  0
  1  2  1  0
  1  3  1  0
  1  4  1  0
  5  6  1  0
  5  7  1  0
  8  9  1  0
  8 10  1  0
  8 11  1  0
 12 16  1  0
 16 17  2  0
 17 19  1  0
 19 21  2  0
 21 23  1  0
 23 25  2  0
 25 16  1  0
 12 13  1  0
 12 14  1  0
 12 15  1  0
 17 18  1  0
 19 20  1  0
 21 22  1  0
 23 24  1  0
 25 26  1  0
M  CHG  1   8   1
M  END
>  <PDB_ID>  (2673) 
pdb4wmj

>  <RESIDUE_NAME>  (2673) 
LYS   PHE

>  <FRAG_NAME>  (2673) 
ETAM   MBZ

>  <FRAG_ATOM_NUM>  (2673) 
fragi: 11  fragj: 15

>  <atom.prop.CHAIN_ID>  (2673) 
A A A A A A A A A A A Z Z Z Z Z Z Z Z Z Z Z Z Z Z Z

>  <atom.prop.IS_HEAVY_ATOM>  (2673) 
1 0 0 0 1 0 0 1 0 0 0 1 0 0 0 1 1 0 1 0 1 0 1 0 1 0

>  <DIFUSE_FUNC_ATOM>  (2673) 
n/a

>  <FINAL_SINGLE_POINT_ENERGY>  (2673) 
0

>  <NONCOV_INTER_ENERGY_QM>  (2673) 
0

>  <FF_Energy>  (2673) 
-7.25

>  <QM_Energy>  (2673) 
-13.6

>  <source>  (2673) 
ETAM_MBZ

>  <Index>  (2673) 
28524

$$$$
ETAM-pdb4wmj-C-LYS-426:MBZ-pdb4wmj-D-PHE-556
     RDKit          3D

 26 25  0  0  0  0  0  0  0  0999 V2000
    0.3925   -2.4347    4.6159 C   0  0  0  0  0  0  0  0  0  0  0  0
    0.9280   -3.1283    4.1417 H   0  0  0  0  0  0  0  0  0  0  0  0
   -0.4678   -2.2808    4.1384 H   0  0  0  0  0  0  0  0  0  0  0  0
    0.1908   -2.7647    5.6350 H   0  0  0  0  0  0  0  0  0  0  0  0
    1.1765   -1.1422    4.6134 C   0  0  0  0  0  0  0  0  0  0  0  0
    0.7856   -0.5253    5.3123 H   0  0  0  0  0  0  0  0  0  0  0  0
    2.1310   -1.3426    4.8784 H   0  0  0  0  0  0  0  0  0  0  0  0
    1.1613   -0.4752    3.3078 N   0  0  0  0  0  4  0  0  0  0  0  0
    2.0944   -0.4095    2.9458 H   0  0  0  0  0  0  0  0  0  0  0  0
    0.5968   -0.9972    2.6631 H   0  0  0  0  0  0  0  0  0  0  0  0
    0.7811    0.4493    3.3994 H   0  0  0  0  0  0  0  0  0  0  0  0
    0.0442    2.8879    0.1065 C   0  0  0  0  0  0  0  0  0  0  0  0
    0.8096    3.2292   -0.4180 H   0  0  0  0  0  0  0  0  0  0  0  0
    0.1262    3.1286    1.0618 H   0  0  0  0  0  0  0  0  0  0  0  0
   -0.8556    3.3698   -0.2760 H   0  0  0  0  0  0  0  0  0  0  0  0
    0.0200    1.4005   -0.0058 C   0  0  0  0  0  0  0  0  0  0  0  0
   -1.2003    0.6843    0.0213 C   0  0  0  0  0  0  0  0  0  0  0  0
   -2.0528    1.1876    0.0544 H   0  0  0  0  0  0  0  0  0  0  0  0
   -1.1997   -0.6926    0.0000 C   0  0  0  0  0  0  0  0  0  0  0  0
   -2.0823   -1.1913    0.0038 H   0  0  0  0  0  0  0  0  0  0  0  0
   -0.0100   -1.3921   -0.0253 C   0  0  0  0  0  0  0  0  0  0  0  0
   -0.0077   -2.3871   -0.0614 H   0  0  0  0  0  0  0  0  0  0  0  0
    1.1997   -0.6892    0.0000 C   0  0  0  0  0  0  0  0  0  0  0  0
    2.0756   -1.1945    0.0120 H   0  0  0  0  0  0  0  0  0  0  0  0
    1.1902    0.6890    0.0098 C   0  0  0  0  0  0  0  0  0  0  0  0
    2.0718    1.1837    0.0281 H   0  0  0  0  0  0  0  0  0  0  0  0
  1  5  1  0
  5  8  1  0
  1  2  1  0
  1  3  1  0
  1  4  1  0
  5  6  1  0
  5  7  1  0
  8  9  1  0
  8 10  1  0
  8 11  1  0
 12 16  1  0
 16 17  2  0
 17 19  1  0
 19 21  2  0
 21 23  1  0
 23 25  2  0
 25 16  1  0
 12 13  1  0
 12 14  1  0
 12 15  1  0
 17 18  1  0
 19 20  1  0
 21 22  1  0
 23 24  1  0
 25 26  1  0
M  CHG  1   8   1
M  END
>  <PDB_ID>  (2674) 
pdb4wmj

>  <RESIDUE_NAME>  (2674) 
LYS   PHE

>  <FRAG_NAME>  (2674) 
ETAM   MBZ

>  <FRAG_ATOM_NUM>  (2674) 
fragi: 11  fragj: 15

>  <atom.prop.CHAIN_ID>  (2674) 
A A A A A A A A A A A Z Z Z Z Z Z Z Z Z Z Z Z Z Z Z

>  <atom.prop.IS_HEAVY_ATOM>  (2674) 
1 0 0 0 1 0 0 1 0 0 0 1 0 0 0 1 1 0 1 0 1 0 1 0 1 0

>  <DIFUSE_FUNC_ATOM>  (2674) 
n/a

>  <FINAL_SINGLE_POINT_ENERGY>  (2674) 
0

>  <NONCOV_INTER_ENERGY_QM>  (2674) 
0

>  <FF_Energy>  (2674) 
-6.83

>  <QM_Energy>  (2674) 
-13.0

>  <source>  (2674) 
ETAM_MBZ

>  <Index>  (2674) 
28530

$$$$
ETAM-pdb4woq-D-LYS-123:MBZ-pdb4woq-F-PHE-151
     RDKit          3D

 26 25  0  0  0  0  0  0  0  0999 V2000
    0.8839   -3.1224    4.7984 C   0  0  0  0  0  0  0  0  0  0  0  0
    0.0986   -3.7303    4.8257 H   0  0  0  0  0  0  0  0  0  0  0  0
    1.3921   -3.1700    5.6503 H   0  0  0  0  0  0  0  0  0  0  0  0
    1.5364   -3.4256    3.9796 H   0  0  0  0  0  0  0  0  0  0  0  0
    0.3874   -1.6967    4.6076 C   0  0  0  0  0  0  0  0  0  0  0  0
   -0.2304   -1.4628    5.3646 H   0  0  0  0  0  0  0  0  0  0  0  0
    1.1743   -1.0718    4.6304 H   0  0  0  0  0  0  0  0  0  0  0  0
   -0.3383   -1.5167    3.3142 N   0  0  0  0  0  4  0  0  0  0  0  0
   -1.1511   -2.0963    3.3105 H   0  0  0  0  0  0  0  0  0  0  0  0
   -0.6060   -0.5598    3.2179 H   0  0  0  0  0  0  0  0  0  0  0  0
    0.2640   -1.7749    2.5604 H   0  0  0  0  0  0  0  0  0  0  0  0
    0.0052    2.9120    0.0077 C   0  0  0  0  0  0  0  0  0  0  0  0
   -0.5103    3.2234   -0.7763 H   0  0  0  0  0  0  0  0  0  0  0  0
    0.9449    3.2143   -0.0360 H   0  0  0  0  0  0  0  0  0  0  0  0
   -0.4449    3.3507    0.8982 H   0  0  0  0  0  0  0  0  0  0  0  0
    0.0002    1.4057    0.0001 C   0  0  0  0  0  0  0  0  0  0  0  0
   -1.1986    0.6977    0.0002 C   0  0  0  0  0  0  0  0  0  0  0  0
   -2.0650    1.1848   -0.0005 H   0  0  0  0  0  0  0  0  0  0  0  0
   -1.2030   -0.6996   -0.0000 C   0  0  0  0  0  0  0  0  0  0  0  0
   -2.0785   -1.1914    0.0013 H   0  0  0  0  0  0  0  0  0  0  0  0
    0.0016   -1.3986    0.0003 C   0  0  0  0  0  0  0  0  0  0  0  0
   -0.0031   -2.3957   -0.0001 H   0  0  0  0  0  0  0  0  0  0  0  0
    1.2030   -0.6999    0.0000 C   0  0  0  0  0  0  0  0  0  0  0  0
    2.0848   -1.1952    0.0021 H   0  0  0  0  0  0  0  0  0  0  0  0
    1.1968    0.6947   -0.0006 C   0  0  0  0  0  0  0  0  0  0  0  0
    2.0658    1.1899   -0.0020 H   0  0  0  0  0  0  0  0  0  0  0  0
  1  5  1  0
  5  8  1  0
  1  2  1  0
  1  3  1  0
  1  4  1  0
  5  6  1  0
  5  7  1  0
  8  9  1  0
  8 10  1  0
  8 11  1  0
 12 16  1  0
 16 17  2  0
 17 19  1  0
 19 21  2  0
 21 23  1  0
 23 25  2  0
 25 16  1  0
 12 13  1  0
 12 14  1  0
 12 15  1  0
 17 18  1  0
 19 20  1  0
 21 22  1  0
 23 24  1  0
 25 26  1  0
M  CHG  1   8   1
M  END
>  <PDB_ID>  (2675) 
pdb4woq

>  <RESIDUE_NAME>  (2675) 
LYS   PHE

>  <FRAG_NAME>  (2675) 
ETAM   MBZ

>  <FRAG_ATOM_NUM>  (2675) 
fragi: 11  fragj: 15

>  <atom.prop.CHAIN_ID>  (2675) 
A A A A A A A A A A A Z Z Z Z Z Z Z Z Z Z Z Z Z Z Z

>  <atom.prop.IS_HEAVY_ATOM>  (2675) 
1 0 0 0 1 0 0 1 0 0 0 1 0 0 0 1 1 0 1 0 1 0 1 0 1 0

>  <DIFUSE_FUNC_ATOM>  (2675) 
n/a

>  <FINAL_SINGLE_POINT_ENERGY>  (2675) 
0

>  <NONCOV_INTER_ENERGY_QM>  (2675) 
0

>  <FF_Energy>  (2675) 
-5.92

>  <QM_Energy>  (2675) 
-12.61

>  <source>  (2675) 
ETAM_MBZ

>  <Index>  (2675) 
28556

$$$$
ETAM-pdb3v9g-A-LYS-153:MBZ-pdb3v9g-A-PHE-212
     RDKit          3D

 26 25  0  0  0  0  0  0  0  0999 V2000
    2.8628    0.6823    5.7381 C   0  0  0  0  0  0  0  0  0  0  0  0
    3.0843    1.6481    5.8433 H   0  0  0  0  0  0  0  0  0  0  0  0
    3.6591    0.1829    5.4081 H   0  0  0  0  0  0  0  0  0  0  0  0
    2.5527    0.2754    6.7006 H   0  0  0  0  0  0  0  0  0  0  0  0
    1.7541    0.5697    4.6537 C   0  0  0  0  0  0  0  0  0  0  0  0
    0.9251    0.2303    5.0873 H   0  0  0  0  0  0  0  0  0  0  0  0
    1.5963    1.4750    4.2710 H   0  0  0  0  0  0  0  0  0  0  0  0
    2.1635   -0.3722    3.5541 N   0  0  0  0  0  4  0  0  0  0  0  0
    1.9279    0.0352    2.6750 H   0  0  0  0  0  0  0  0  0  0  0  0
    3.1468   -0.5236    3.6073 H   0  0  0  0  0  0  0  0  0  0  0  0
    1.6793   -1.2361    3.6709 H   0  0  0  0  0  0  0  0  0  0  0  0
    0.0012    2.9036   -0.0009 C   0  0  0  0  0  0  0  0  0  0  0  0
   -0.7943    3.2124   -0.4997 H   0  0  0  0  0  0  0  0  0  0  0  0
    0.8371    3.2113   -0.4295 H   0  0  0  0  0  0  0  0  0  0  0  0
   -0.0418    3.3488    0.9932 H   0  0  0  0  0  0  0  0  0  0  0  0
    0.0005    1.4008    0.0014 C   0  0  0  0  0  0  0  0  0  0  0  0
   -1.1947    0.6914   -0.0043 C   0  0  0  0  0  0  0  0  0  0  0  0
   -2.0620    1.1824   -0.0127 H   0  0  0  0  0  0  0  0  0  0  0  0
   -1.2009   -0.6976   -0.0000 C   0  0  0  0  0  0  0  0  0  0  0  0
   -2.0763   -1.1918    0.0013 H   0  0  0  0  0  0  0  0  0  0  0  0
    0.0013   -1.3924    0.0044 C   0  0  0  0  0  0  0  0  0  0  0  0
   -0.0019   -2.3911    0.0103 H   0  0  0  0  0  0  0  0  0  0  0  0
    1.2009   -0.6953    0.0000 C   0  0  0  0  0  0  0  0  0  0  0  0
    2.0824   -1.1917   -0.0001 H   0  0  0  0  0  0  0  0  0  0  0  0
    1.1930    0.6931   -0.0015 C   0  0  0  0  0  0  0  0  0  0  0  0
    2.0637    1.1909   -0.0055 H   0  0  0  0  0  0  0  0  0  0  0  0
  1  5  1  0
  5  8  1  0
  1  2  1  0
  1  3  1  0
  1  4  1  0
  5  6  1  0
  5  7  1  0
  8  9  1  0
  8 10  1  0
  8 11  1  0
 12 16  1  0
 16 17  2  0
 17 19  1  0
 19 21  2  0
 21 23  1  0
 23 25  2  0
 25 16  1  0
 12 13  1  0
 12 14  1  0
 12 15  1  0
 17 18  1  0
 19 20  1  0
 21 22  1  0
 23 24  1  0
 25 26  1  0
M  CHG  1   8   1
M  END
>  <PDB_ID>  (2676) 
pdb3v9g

>  <RESIDUE_NAME>  (2676) 
LYS   PHE

>  <FRAG_NAME>  (2676) 
ETAM   MBZ

>  <FRAG_ATOM_NUM>  (2676) 
fragi: 11  fragj: 15

>  <atom.prop.CHAIN_ID>  (2676) 
A A A A A A A A A A A Z Z Z Z Z Z Z Z Z Z Z Z Z Z Z

>  <atom.prop.IS_HEAVY_ATOM>  (2676) 
1 0 0 0 1 0 0 1 0 0 0 1 0 0 0 1 1 0 1 0 1 0 1 0 1 0

>  <DIFUSE_FUNC_ATOM>  (2676) 
n/a

>  <FINAL_SINGLE_POINT_ENERGY>  (2676) 
0

>  <NONCOV_INTER_ENERGY_QM>  (2676) 
0

>  <FF_Energy>  (2676) 
-4.48

>  <QM_Energy>  (2676) 
-9.8

>  <source>  (2676) 
ETAM_MBZ

>  <Index>  (2676) 
28562

$$$$
ETAM-pdb4wy4-A-LYS-72:MBZ-pdb4wy4-A-PHE-69
     RDKit          3D

 26 25  0  0  0  0  0  0  0  0999 V2000
   -0.9063   -0.1634   -4.9754 C   0  0  0  0  0  0  0  0  0  0  0  0
   -1.7774   -0.4749   -5.3497 H   0  0  0  0  0  0  0  0  0  0  0  0
   -0.1609   -0.7141   -5.3457 H   0  0  0  0  0  0  0  0  0  0  0  0
   -0.7526    0.8774   -5.2603 H   0  0  0  0  0  0  0  0  0  0  0  0
   -0.9349   -0.3350   -3.4747 C   0  0  0  0  0  0  0  0  0  0  0  0
   -0.1045    0.0586   -3.0817 H   0  0  0  0  0  0  0  0  0  0  0  0
   -1.7344    0.1368   -3.1037 H   0  0  0  0  0  0  0  0  0  0  0  0
   -1.0086   -1.7776   -3.1111 N   0  0  0  0  0  4  0  0  0  0  0  0
   -0.6610   -2.3281   -3.8694 H   0  0  0  0  0  0  0  0  0  0  0  0
   -0.4553   -1.9421   -2.2957 H   0  0  0  0  0  0  0  0  0  0  0  0
   -1.9591   -2.0245   -2.9258 H   0  0  0  0  0  0  0  0  0  0  0  0
   -0.0081    2.8685   -0.0733 C   0  0  0  0  0  0  0  0  0  0  0  0
    0.7142    3.2282    0.4874 H   0  0  0  0  0  0  0  0  0  0  0  0
   -0.8921    3.2015    0.1963 H   0  0  0  0  0  0  0  0  0  0  0  0
    0.1712    3.2050   -1.0945 H   0  0  0  0  0  0  0  0  0  0  0  0
   -0.0022    1.3938    0.0263 C   0  0  0  0  0  0  0  0  0  0  0  0
   -1.1903    0.6902   -0.0086 C   0  0  0  0  0  0  0  0  0  0  0  0
   -2.0592    1.1812   -0.0413 H   0  0  0  0  0  0  0  0  0  0  0  0
   -1.1940   -0.6924    0.0000 C   0  0  0  0  0  0  0  0  0  0  0  0
   -2.0690   -1.1907    0.0067 H   0  0  0  0  0  0  0  0  0  0  0  0
    0.0095   -1.3897    0.0015 C   0  0  0  0  0  0  0  0  0  0  0  0
    0.0002   -2.3888    0.0034 H   0  0  0  0  0  0  0  0  0  0  0  0
    1.1940   -0.6953   -0.0000 C   0  0  0  0  0  0  0  0  0  0  0  0
    2.0832   -1.1845    0.0141 H   0  0  0  0  0  0  0  0  0  0  0  0
    1.1830    0.6934   -0.0192 C   0  0  0  0  0  0  0  0  0  0  0  0
    2.0541    1.1893   -0.0681 H   0  0  0  0  0  0  0  0  0  0  0  0
  1  5  1  0
  5  8  1  0
  1  2  1  0
  1  3  1  0
  1  4  1  0
  5  6  1  0
  5  7  1  0
  8  9  1  0
  8 10  1  0
  8 11  1  0
 12 16  1  0
 16 17  2  0
 17 19  1  0
 19 21  2  0
 21 23  1  0
 23 25  2  0
 25 16  1  0
 12 13  1  0
 12 14  1  0
 12 15  1  0
 17 18  1  0
 19 20  1  0
 21 22  1  0
 23 24  1  0
 25 26  1  0
M  CHG  1   8   1
M  END
>  <PDB_ID>  (2677) 
pdb4wy4

>  <RESIDUE_NAME>  (2677) 
LYS   PHE

>  <FRAG_NAME>  (2677) 
ETAM   MBZ

>  <FRAG_ATOM_NUM>  (2677) 
fragi: 11  fragj: 15

>  <atom.prop.CHAIN_ID>  (2677) 
A A A A A A A A A A A Z Z Z Z Z Z Z Z Z Z Z Z Z Z Z

>  <atom.prop.IS_HEAVY_ATOM>  (2677) 
1 0 0 0 1 0 0 1 0 0 0 1 0 0 0 1 1 0 1 0 1 0 1 0 1 0

>  <DIFUSE_FUNC_ATOM>  (2677) 
n/a

>  <FINAL_SINGLE_POINT_ENERGY>  (2677) 
0

>  <NONCOV_INTER_ENERGY_QM>  (2677) 
0

>  <FF_Energy>  (2677) 
-5.87

>  <QM_Energy>  (2677) 
-13.35

>  <source>  (2677) 
ETAM_MBZ

>  <Index>  (2677) 
28661

$$$$
ETAM-pdb3vwx-C-LYS-216:MBZ-pdb3vwx-C-PHE-120
     RDKit          3D

 26 25  0  0  0  0  0  0  0  0999 V2000
    4.7704   -0.2369    2.0140 C   0  0  0  0  0  0  0  0  0  0  0  0
    4.4179    0.4973    2.5956 H   0  0  0  0  0  0  0  0  0  0  0  0
    5.7408   -0.3792    2.2101 H   0  0  0  0  0  0  0  0  0  0  0  0
    4.2261   -1.1547    2.2365 H   0  0  0  0  0  0  0  0  0  0  0  0
    4.6325    0.1931    0.5606 C   0  0  0  0  0  0  0  0  0  0  0  0
    5.3486   -0.2631    0.0112 H   0  0  0  0  0  0  0  0  0  0  0  0
    3.7346   -0.1124    0.2085 H   0  0  0  0  0  0  0  0  0  0  0  0
    4.7441    1.6889    0.3374 N   0  0  0  0  0  4  0  0  0  0  0  0
    3.8971    2.0130   -0.0724 H   0  0  0  0  0  0  0  0  0  0  0  0
    4.8935    2.1312    1.2164 H   0  0  0  0  0  0  0  0  0  0  0  0
    5.5117    1.8622   -0.2715 H   0  0  0  0  0  0  0  0  0  0  0  0
   -0.0100    2.9091    0.0359 C   0  0  0  0  0  0  0  0  0  0  0  0
   -0.9506    3.2102    0.0607 H   0  0  0  0  0  0  0  0  0  0  0  0
    0.4529    3.2349   -0.7735 H   0  0  0  0  0  0  0  0  0  0  0  0
    0.4966    3.3389    0.9001 H   0  0  0  0  0  0  0  0  0  0  0  0
    0.0027    1.4084    0.0114 C   0  0  0  0  0  0  0  0  0  0  0  0
   -1.1755    0.7021   -0.0051 C   0  0  0  0  0  0  0  0  0  0  0  0
   -2.0522    1.1858   -0.0223 H   0  0  0  0  0  0  0  0  0  0  0  0
   -1.1860   -0.6926    0.0000 C   0  0  0  0  0  0  0  0  0  0  0  0
   -2.0741   -1.1772    0.0073 H   0  0  0  0  0  0  0  0  0  0  0  0
    0.0018   -1.4118   -0.0037 C   0  0  0  0  0  0  0  0  0  0  0  0
   -0.0097   -2.4001   -0.0096 H   0  0  0  0  0  0  0  0  0  0  0  0
    1.1860   -0.7060   -0.0000 C   0  0  0  0  0  0  0  0  0  0  0  0
    2.0789   -1.1849    0.0057 H   0  0  0  0  0  0  0  0  0  0  0  0
    1.1710    0.6999   -0.0025 C   0  0  0  0  0  0  0  0  0  0  0  0
    2.0567    1.1833   -0.0160 H   0  0  0  0  0  0  0  0  0  0  0  0
  1  5  1  0
  5  8  1  0
  1  2  1  0
  1  3  1  0
  1  4  1  0
  5  6  1  0
  5  7  1  0
  8  9  1  0
  8 10  1  0
  8 11  1  0
 12 16  1  0
 16 17  2  0
 17 19  1  0
 19 21  2  0
 21 23  1  0
 23 25  2  0
 25 16  1  0
 12 13  1  0
 12 14  1  0
 12 15  1  0
 17 18  1  0
 19 20  1  0
 21 22  1  0
 23 24  1  0
 25 26  1  0
M  CHG  1   8   1
M  END
>  <PDB_ID>  (2678) 
pdb3vwx

>  <RESIDUE_NAME>  (2678) 
LYS   PHE

>  <FRAG_NAME>  (2678) 
ETAM   MBZ

>  <FRAG_ATOM_NUM>  (2678) 
fragi: 11  fragj: 15

>  <atom.prop.CHAIN_ID>  (2678) 
A A A A A A A A A A A Z Z Z Z Z Z Z Z Z Z Z Z Z Z Z

>  <atom.prop.IS_HEAVY_ATOM>  (2678) 
1 0 0 0 1 0 0 1 0 0 0 1 0 0 0 1 1 0 1 0 1 0 1 0 1 0

>  <DIFUSE_FUNC_ATOM>  (2678) 
n/a

>  <FINAL_SINGLE_POINT_ENERGY>  (2678) 
0

>  <NONCOV_INTER_ENERGY_QM>  (2678) 
0

>  <FF_Energy>  (2678) 
2.77

>  <QM_Energy>  (2678) 
-2.83

>  <source>  (2678) 
ETAM_MBZ

>  <Index>  (2678) 
28710

$$$$
ETAM-pdb3vwx-D-LYS-216:MBZ-pdb3vwx-D-PHE-120
     RDKit          3D

 26 25  0  0  0  0  0  0  0  0999 V2000
    4.5891   -0.2198    2.2293 C   0  0  0  0  0  0  0  0  0  0  0  0
    4.1871    0.4693    2.8370 H   0  0  0  0  0  0  0  0  0  0  0  0
    5.5549   -0.3445    2.4685 H   0  0  0  0  0  0  0  0  0  0  0  0
    4.0631   -1.1648    2.3658 H   0  0  0  0  0  0  0  0  0  0  0  0
    4.5226    0.3197    0.7929 C   0  0  0  0  0  0  0  0  0  0  0  0
    5.1959   -0.1796    0.2183 H   0  0  0  0  0  0  0  0  0  0  0  0
    3.6030    0.1235    0.4056 H   0  0  0  0  0  0  0  0  0  0  0  0
    4.7893    1.8361    0.6067 N   0  0  0  0  0  4  0  0  0  0  0  0
    4.8098    2.0204   -0.3654 H   0  0  0  0  0  0  0  0  0  0  0  0
    4.0528    2.3271    1.0488 H   0  0  0  0  0  0  0  0  0  0  0  0
    5.6603    2.0420    1.0286 H   0  0  0  0  0  0  0  0  0  0  0  0
   -0.0149    2.9136    0.0332 C   0  0  0  0  0  0  0  0  0  0  0  0
   -0.9548    3.2121    0.0286 H   0  0  0  0  0  0  0  0  0  0  0  0
    0.4763    3.2413   -0.7566 H   0  0  0  0  0  0  0  0  0  0  0  0
    0.4579    3.3525    0.9118 H   0  0  0  0  0  0  0  0  0  0  0  0
    0.0064    1.4078    0.0145 C   0  0  0  0  0  0  0  0  0  0  0  0
   -1.1862    0.6820   -0.0037 C   0  0  0  0  0  0  0  0  0  0  0  0
   -2.0575    1.1798   -0.0215 H   0  0  0  0  0  0  0  0  0  0  0  0
   -1.1979   -0.6979    0.0000 C   0  0  0  0  0  0  0  0  0  0  0  0
   -2.0772   -1.1920    0.0124 H   0  0  0  0  0  0  0  0  0  0  0  0
   -0.0002   -1.4093   -0.0116 C   0  0  0  0  0  0  0  0  0  0  0  0
   -0.0010   -2.3967   -0.0280 H   0  0  0  0  0  0  0  0  0  0  0  0
    1.1979   -0.6929   -0.0000 C   0  0  0  0  0  0  0  0  0  0  0  0
    2.0837   -1.1778    0.0094 H   0  0  0  0  0  0  0  0  0  0  0  0
    1.1800    0.7103    0.0008 C   0  0  0  0  0  0  0  0  0  0  0  0
    2.0609    1.1985   -0.0097 H   0  0  0  0  0  0  0  0  0  0  0  0
  1  5  1  0
  5  8  1  0
  1  2  1  0
  1  3  1  0
  1  4  1  0
  5  6  1  0
  5  7  1  0
  8  9  1  0
  8 10  1  0
  8 11  1  0
 12 16  1  0
 16 17  2  0
 17 19  1  0
 19 21  2  0
 21 23  1  0
 23 25  2  0
 25 16  1  0
 12 13  1  0
 12 14  1  0
 12 15  1  0
 17 18  1  0
 19 20  1  0
 21 22  1  0
 23 24  1  0
 25 26  1  0
M  CHG  1   8   1
M  END
>  <PDB_ID>  (2679) 
pdb3vwx

>  <RESIDUE_NAME>  (2679) 
LYS   PHE

>  <FRAG_NAME>  (2679) 
ETAM   MBZ

>  <FRAG_ATOM_NUM>  (2679) 
fragi: 11  fragj: 15

>  <atom.prop.CHAIN_ID>  (2679) 
A A A A A A A A A A A Z Z Z Z Z Z Z Z Z Z Z Z Z Z Z

>  <atom.prop.IS_HEAVY_ATOM>  (2679) 
1 0 0 0 1 0 0 1 0 0 0 1 0 0 0 1 1 0 1 0 1 0 1 0 1 0

>  <DIFUSE_FUNC_ATOM>  (2679) 
n/a

>  <FINAL_SINGLE_POINT_ENERGY>  (2679) 
0

>  <NONCOV_INTER_ENERGY_QM>  (2679) 
0

>  <FF_Energy>  (2679) 
3.95

>  <QM_Energy>  (2679) 
-2.25

>  <source>  (2679) 
ETAM_MBZ

>  <Index>  (2679) 
28711

$$$$
ETAM-pdb3vxm-E-LYS-139:MBZ-pdb3vxm-D-PHE-173
     RDKit          3D

 26 25  0  0  0  0  0  0  0  0999 V2000
    1.4249   -2.0238   -4.1541 C   0  0  0  0  0  0  0  0  0  0  0  0
    1.6789   -2.9269   -3.8245 H   0  0  0  0  0  0  0  0  0  0  0  0
    2.0783   -1.3433   -3.8389 H   0  0  0  0  0  0  0  0  0  0  0  0
    1.4185   -2.0325   -5.2441 H   0  0  0  0  0  0  0  0  0  0  0  0
    0.0522   -1.6723   -3.5911 C   0  0  0  0  0  0  0  0  0  0  0  0
   -0.6498   -2.1788   -4.1093 H   0  0  0  0  0  0  0  0  0  0  0  0
    0.0093   -1.9747   -2.6292 H   0  0  0  0  0  0  0  0  0  0  0  0
   -0.2536   -0.2142   -3.6555 N   0  0  0  0  0  4  0  0  0  0  0  0
    0.4657    0.2515   -4.1683 H   0  0  0  0  0  0  0  0  0  0  0  0
   -1.1320   -0.0814   -4.1128 H   0  0  0  0  0  0  0  0  0  0  0  0
   -0.2975    0.1549   -2.7287 H   0  0  0  0  0  0  0  0  0  0  0  0
   -0.0007    2.9069   -0.0037 C   0  0  0  0  0  0  0  0  0  0  0  0
   -0.7802    3.2091   -0.5307 H   0  0  0  0  0  0  0  0  0  0  0  0
    0.8481    3.2101   -0.4087 H   0  0  0  0  0  0  0  0  0  0  0  0
   -0.0752    3.3550    0.9872 H   0  0  0  0  0  0  0  0  0  0  0  0
   -0.0002    1.4002    0.0043 C   0  0  0  0  0  0  0  0  0  0  0  0
   -1.1954    0.6913   -0.0016 C   0  0  0  0  0  0  0  0  0  0  0  0
   -2.0624    1.1824   -0.0079 H   0  0  0  0  0  0  0  0  0  0  0  0
   -1.1984   -0.6953   -0.0000 C   0  0  0  0  0  0  0  0  0  0  0  0
   -2.0757   -1.1908    0.0016 H   0  0  0  0  0  0  0  0  0  0  0  0
    0.0000   -1.3897    0.0014 C   0  0  0  0  0  0  0  0  0  0  0  0
   -0.0046   -2.3902    0.0026 H   0  0  0  0  0  0  0  0  0  0  0  0
    1.1984   -0.6961    0.0000 C   0  0  0  0  0  0  0  0  0  0  0  0
    2.0805   -1.1959    0.0031 H   0  0  0  0  0  0  0  0  0  0  0  0
    1.1955    0.6897   -0.0041 C   0  0  0  0  0  0  0  0  0  0  0  0
    2.0637    1.1872   -0.0137 H   0  0  0  0  0  0  0  0  0  0  0  0
  1  5  1  0
  5  8  1  0
  1  2  1  0
  1  3  1  0
  1  4  1  0
  5  6  1  0
  5  7  1  0
  8  9  1  0
  8 10  1  0
  8 11  1  0
 12 16  1  0
 16 17  2  0
 17 19  1  0
 19 21  2  0
 21 23  1  0
 23 25  2  0
 25 16  1  0
 12 13  1  0
 12 14  1  0
 12 15  1  0
 17 18  1  0
 19 20  1  0
 21 22  1  0
 23 24  1  0
 25 26  1  0
M  CHG  1   8   1
M  END
>  <PDB_ID>  (2680) 
pdb3vxm

>  <RESIDUE_NAME>  (2680) 
LYS   PHE

>  <FRAG_NAME>  (2680) 
ETAM   MBZ

>  <FRAG_ATOM_NUM>  (2680) 
fragi: 11  fragj: 15

>  <atom.prop.CHAIN_ID>  (2680) 
A A A A A A A A A A A Z Z Z Z Z Z Z Z Z Z Z Z Z Z Z

>  <atom.prop.IS_HEAVY_ATOM>  (2680) 
1 0 0 0 1 0 0 1 0 0 0 1 0 0 0 1 1 0 1 0 1 0 1 0 1 0

>  <DIFUSE_FUNC_ATOM>  (2680) 
n/a

>  <FINAL_SINGLE_POINT_ENERGY>  (2680) 
0

>  <NONCOV_INTER_ENERGY_QM>  (2680) 
0

>  <FF_Energy>  (2680) 
-7.7

>  <QM_Energy>  (2680) 
-13.76

>  <source>  (2680) 
ETAM_MBZ

>  <Index>  (2680) 
28720

$$$$
ETAM-pdb4x51-A-LYS-40:MBZ-pdb4x51-A-PHE-36
     RDKit          3D

 26 25  0  0  0  0  0  0  0  0999 V2000
    1.3582   -1.1394    4.0954 C   0  0  0  0  0  0  0  0  0  0  0  0
    1.7691   -0.6798    3.3236 H   0  0  0  0  0  0  0  0  0  0  0  0
    1.8396   -1.9729    4.3196 H   0  0  0  0  0  0  0  0  0  0  0  0
    1.3742   -0.4727    4.9576 H   0  0  0  0  0  0  0  0  0  0  0  0
   -0.0787   -1.4868    3.7459 C   0  0  0  0  0  0  0  0  0  0  0  0
   -0.0999   -1.9690    2.8652 H   0  0  0  0  0  0  0  0  0  0  0  0
   -0.4574   -2.0900    4.4533 H   0  0  0  0  0  0  0  0  0  0  0  0
   -0.9655   -0.2607    3.6405 N   0  0  0  0  0  4  0  0  0  0  0  0
   -1.8257   -0.4513    4.1020 H   0  0  0  0  0  0  0  0  0  0  0  0
   -0.5019    0.5047    4.0754 H   0  0  0  0  0  0  0  0  0  0  0  0
   -1.1244   -0.0665    2.6779 H   0  0  0  0  0  0  0  0  0  0  0  0
    0.0017    2.9057    0.0638 C   0  0  0  0  0  0  0  0  0  0  0  0
   -0.8168    3.2243   -0.3948 H   0  0  0  0  0  0  0  0  0  0  0  0
    0.8156    3.2232   -0.4044 H   0  0  0  0  0  0  0  0  0  0  0  0
    0.0078    3.3036    1.0785 H   0  0  0  0  0  0  0  0  0  0  0  0
    0.0002    1.4040    0.0031 C   0  0  0  0  0  0  0  0  0  0  0  0
   -1.2035    0.6919    0.0071 C   0  0  0  0  0  0  0  0  0  0  0  0
   -2.0677    1.1769    0.0143 H   0  0  0  0  0  0  0  0  0  0  0  0
   -1.2022   -0.7090    0.0000 C   0  0  0  0  0  0  0  0  0  0  0  0
   -2.0740   -1.2037    0.0041 H   0  0  0  0  0  0  0  0  0  0  0  0
    0.0073   -1.3970   -0.0109 C   0  0  0  0  0  0  0  0  0  0  0  0
    0.0168   -2.3913   -0.0269 H   0  0  0  0  0  0  0  0  0  0  0  0
    1.2022   -0.6784    0.0000 C   0  0  0  0  0  0  0  0  0  0  0  0
    2.0885   -1.1851    0.0088 H   0  0  0  0  0  0  0  0  0  0  0  0
    1.1960    0.6886    0.0007 C   0  0  0  0  0  0  0  0  0  0  0  0
    2.0644    1.1971   -0.0013 H   0  0  0  0  0  0  0  0  0  0  0  0
  1  5  1  0
  5  8  1  0
  1  2  1  0
  1  3  1  0
  1  4  1  0
  5  6  1  0
  5  7  1  0
  8  9  1  0
  8 10  1  0
  8 11  1  0
 12 16  1  0
 16 17  2  0
 17 19  1  0
 19 21  2  0
 21 23  1  0
 23 25  2  0
 25 16  1  0
 12 13  1  0
 12 14  1  0
 12 15  1  0
 17 18  1  0
 19 20  1  0
 21 22  1  0
 23 24  1  0
 25 26  1  0
M  CHG  1   8   1
M  END
>  <PDB_ID>  (2681) 
pdb4x51

>  <RESIDUE_NAME>  (2681) 
LYS   PHE

>  <FRAG_NAME>  (2681) 
ETAM   MBZ

>  <FRAG_ATOM_NUM>  (2681) 
fragi: 11  fragj: 15

>  <atom.prop.CHAIN_ID>  (2681) 
A A A A A A A A A A A Z Z Z Z Z Z Z Z Z Z Z Z Z Z Z

>  <atom.prop.IS_HEAVY_ATOM>  (2681) 
1 0 0 0 1 0 0 1 0 0 0 1 0 0 0 1 1 0 1 0 1 0 1 0 1 0

>  <DIFUSE_FUNC_ATOM>  (2681) 
n/a

>  <FINAL_SINGLE_POINT_ENERGY>  (2681) 
0

>  <NONCOV_INTER_ENERGY_QM>  (2681) 
0

>  <FF_Energy>  (2681) 
-7.37

>  <QM_Energy>  (2681) 
-13.81

>  <source>  (2681) 
ETAM_MBZ

>  <Index>  (2681) 
28748

$$$$
ETAM-pdb4x51-B-LYS-40:MBZ-pdb4x51-B-PHE-36
     RDKit          3D

 26 25  0  0  0  0  0  0  0  0999 V2000
   -1.6687   -0.8121   -4.2600 C   0  0  0  0  0  0  0  0  0  0  0  0
   -2.1119   -0.4229   -3.4694 H   0  0  0  0  0  0  0  0  0  0  0  0
   -2.0291   -1.7020   -4.4813 H   0  0  0  0  0  0  0  0  0  0  0  0
   -1.7887   -0.1445   -5.1132 H   0  0  0  0  0  0  0  0  0  0  0  0
   -0.1902   -0.9510   -3.9636 C   0  0  0  0  0  0  0  0  0  0  0  0
   -0.0695   -1.4927   -3.1382 H   0  0  0  0  0  0  0  0  0  0  0  0
    0.2603   -1.3910   -4.7344 H   0  0  0  0  0  0  0  0  0  0  0  0
    0.4068    0.3999   -3.7541 N   0  0  0  0  0  4  0  0  0  0  0  0
    0.1272    0.7493   -2.8606 H   0  0  0  0  0  0  0  0  0  0  0  0
    1.4026    0.3295   -3.7910 H   0  0  0  0  0  0  0  0  0  0  0  0
    0.0862    1.0175   -4.4717 H   0  0  0  0  0  0  0  0  0  0  0  0
    0.0032    2.9118   -0.0073 C   0  0  0  0  0  0  0  0  0  0  0  0
    0.8560    3.2119    0.3953 H   0  0  0  0  0  0  0  0  0  0  0  0
   -0.7722    3.2146    0.5283 H   0  0  0  0  0  0  0  0  0  0  0  0
   -0.0772    3.3562   -0.9993 H   0  0  0  0  0  0  0  0  0  0  0  0
    0.0007    1.4034   -0.0079 C   0  0  0  0  0  0  0  0  0  0  0  0
   -1.2019    0.6870    0.0059 C   0  0  0  0  0  0  0  0  0  0  0  0
   -2.0653    1.1835    0.0188 H   0  0  0  0  0  0  0  0  0  0  0  0
   -1.2039   -0.6940    0.0000 C   0  0  0  0  0  0  0  0  0  0  0  0
   -2.0806   -1.1923   -0.0026 H   0  0  0  0  0  0  0  0  0  0  0  0
   -0.0049   -1.3871   -0.0003 C   0  0  0  0  0  0  0  0  0  0  0  0
   -0.0087   -2.3894   -0.0011 H   0  0  0  0  0  0  0  0  0  0  0  0
    1.2039   -0.6989   -0.0000 C   0  0  0  0  0  0  0  0  0  0  0  0
    2.0799   -1.2034    0.0002 H   0  0  0  0  0  0  0  0  0  0  0  0
    1.2061    0.6896    0.0023 C   0  0  0  0  0  0  0  0  0  0  0  0
    2.0699    1.1874    0.0106 H   0  0  0  0  0  0  0  0  0  0  0  0
  1  5  1  0
  5  8  1  0
  1  2  1  0
  1  3  1  0
  1  4  1  0
  5  6  1  0
  5  7  1  0
  8  9  1  0
  8 10  1  0
  8 11  1  0
 12 16  1  0
 16 17  2  0
 17 19  1  0
 19 21  2  0
 21 23  1  0
 23 25  2  0
 25 16  1  0
 12 13  1  0
 12 14  1  0
 12 15  1  0
 17 18  1  0
 19 20  1  0
 21 22  1  0
 23 24  1  0
 25 26  1  0
M  CHG  1   8   1
M  END
>  <PDB_ID>  (2682) 
pdb4x51

>  <RESIDUE_NAME>  (2682) 
LYS   PHE

>  <FRAG_NAME>  (2682) 
ETAM   MBZ

>  <FRAG_ATOM_NUM>  (2682) 
fragi: 11  fragj: 15

>  <atom.prop.CHAIN_ID>  (2682) 
A A A A A A A A A A A Z Z Z Z Z Z Z Z Z Z Z Z Z Z Z

>  <atom.prop.IS_HEAVY_ATOM>  (2682) 
1 0 0 0 1 0 0 1 0 0 0 1 0 0 0 1 1 0 1 0 1 0 1 0 1 0

>  <DIFUSE_FUNC_ATOM>  (2682) 
n/a

>  <FINAL_SINGLE_POINT_ENERGY>  (2682) 
0

>  <NONCOV_INTER_ENERGY_QM>  (2682) 
0

>  <FF_Energy>  (2682) 
-7.6

>  <QM_Energy>  (2682) 
-12.98

>  <source>  (2682) 
ETAM_MBZ

>  <Index>  (2682) 
28749

$$$$
ETAM-pdb4wzh-A-LYS-75:MBZ-pdb4wzh-A-PHE-79
     RDKit          3D

 26 25  0  0  0  0  0  0  0  0999 V2000
   -0.3128   -0.5701    3.4596 C   0  0  0  0  0  0  0  0  0  0  0  0
   -0.7065   -0.6493    2.5420 H   0  0  0  0  0  0  0  0  0  0  0  0
    0.6384   -0.2635    3.3850 H   0  0  0  0  0  0  0  0  0  0  0  0
   -0.8787    0.1737    4.0204 H   0  0  0  0  0  0  0  0  0  0  0  0
   -0.3302   -1.9327    4.1124 C   0  0  0  0  0  0  0  0  0  0  0  0
    0.0666   -1.8635    5.0280 H   0  0  0  0  0  0  0  0  0  0  0  0
   -1.2773   -2.2497    4.1860 H   0  0  0  0  0  0  0  0  0  0  0  0
    0.4500   -2.9104    3.3138 N   0  0  0  0  0  4  0  0  0  0  0  0
    1.2295   -3.2333    3.8521 H   0  0  0  0  0  0  0  0  0  0  0  0
   -0.1328   -3.6867    3.0734 H   0  0  0  0  0  0  0  0  0  0  0  0
    0.7820   -2.4702    2.4793 H   0  0  0  0  0  0  0  0  0  0  0  0
   -0.0017    2.9010   -0.0079 C   0  0  0  0  0  0  0  0  0  0  0  0
    0.7323    3.2106    0.5763 H   0  0  0  0  0  0  0  0  0  0  0  0
   -0.8806    3.2078    0.3235 H   0  0  0  0  0  0  0  0  0  0  0  0
    0.1514    3.3390   -0.9942 H   0  0  0  0  0  0  0  0  0  0  0  0
    0.0006    1.3962   -0.0030 C   0  0  0  0  0  0  0  0  0  0  0  0
   -1.1954    0.6875   -0.0005 C   0  0  0  0  0  0  0  0  0  0  0  0
   -2.0619    1.1818   -0.0002 H   0  0  0  0  0  0  0  0  0  0  0  0
   -1.2002   -0.6949    0.0000 C   0  0  0  0  0  0  0  0  0  0  0  0
   -2.0765   -1.1920   -0.0011 H   0  0  0  0  0  0  0  0  0  0  0  0
   -0.0006   -1.3863    0.0046 C   0  0  0  0  0  0  0  0  0  0  0  0
   -0.0029   -2.3869    0.0109 H   0  0  0  0  0  0  0  0  0  0  0  0
    1.2002   -0.6926    0.0000 C   0  0  0  0  0  0  0  0  0  0  0  0
    2.0802   -1.1938   -0.0016 H   0  0  0  0  0  0  0  0  0  0  0  0
    1.1955    0.6900   -0.0010 C   0  0  0  0  0  0  0  0  0  0  0  0
    2.0632    1.1902   -0.0011 H   0  0  0  0  0  0  0  0  0  0  0  0
  1  5  1  0
  5  8  1  0
  1  2  1  0
  1  3  1  0
  1  4  1  0
  5  6  1  0
  5  7  1  0
  8  9  1  0
  8 10  1  0
  8 11  1  0
 12 16  1  0
 16 17  2  0
 17 19  1  0
 19 21  2  0
 21 23  1  0
 23 25  2  0
 25 16  1  0
 12 13  1  0
 12 14  1  0
 12 15  1  0
 17 18  1  0
 19 20  1  0
 21 22  1  0
 23 24  1  0
 25 26  1  0
M  CHG  1   8   1
M  END
>  <PDB_ID>  (2683) 
pdb4wzh

>  <RESIDUE_NAME>  (2683) 
LYS   PHE

>  <FRAG_NAME>  (2683) 
ETAM   MBZ

>  <FRAG_ATOM_NUM>  (2683) 
fragi: 11  fragj: 15

>  <atom.prop.CHAIN_ID>  (2683) 
A A A A A A A A A A A Z Z Z Z Z Z Z Z Z Z Z Z Z Z Z

>  <atom.prop.IS_HEAVY_ATOM>  (2683) 
1 0 0 0 1 0 0 1 0 0 0 1 0 0 0 1 1 0 1 0 1 0 1 0 1 0

>  <DIFUSE_FUNC_ATOM>  (2683) 
n/a

>  <FINAL_SINGLE_POINT_ENERGY>  (2683) 
0

>  <NONCOV_INTER_ENERGY_QM>  (2683) 
0

>  <FF_Energy>  (2683) 
-3.39

>  <QM_Energy>  (2683) 
-9.82

>  <source>  (2683) 
ETAM_MBZ

>  <Index>  (2683) 
28792

$$$$
ETAM-pdb4x9b-A-GLN-1:MBZ-pdb4x9b-A-PHE-88
     RDKit          3D

 26 25  0  0  0  0  0  0  0  0999 V2000
    3.1401   -4.0808    3.6783 C   0  0  0  0  0  0  0  0  0  0  0  0
    2.9472   -5.0554    3.5706 H   0  0  0  0  0  0  0  0  0  0  0  0
    3.8571   -3.8095    3.0364 H   0  0  0  0  0  0  0  0  0  0  0  0
    3.5156   -3.9218    4.6892 H   0  0  0  0  0  0  0  0  0  0  0  0
    1.8692   -3.2878    3.3620 C   0  0  0  0  0  0  0  0  0  0  0  0
    1.0827   -3.7491    3.7918 H   0  0  0  0  0  0  0  0  0  0  0  0
    1.9395   -2.2853    3.7839 H   0  0  0  0  0  0  0  0  0  0  0  0
    1.6264   -3.2648    1.9003 N   0  0  0  0  0  4  0  0  0  0  0  0
    2.5008   -3.2774    1.4188 H   0  0  0  0  0  0  0  0  0  0  0  0
    1.0912   -4.0662    1.6411 H   0  0  0  0  0  0  0  0  0  0  0  0
    1.1251   -2.4360    1.6609 H   0  0  0  0  0  0  0  0  0  0  0  0
   -0.0159    2.8805   -0.0160 C   0  0  0  0  0  0  0  0  0  0  0  0
    0.9121    3.2029    0.0609 H   0  0  0  0  0  0  0  0  0  0  0  0
   -0.5763    3.1964    0.7306 H   0  0  0  0  0  0  0  0  0  0  0  0
   -0.4328    3.2824   -0.9394 H   0  0  0  0  0  0  0  0  0  0  0  0
    0.0005    1.3908    0.0067 C   0  0  0  0  0  0  0  0  0  0  0  0
   -1.1924    0.6808   -0.0019 C   0  0  0  0  0  0  0  0  0  0  0  0
   -2.0604    1.1766   -0.0108 H   0  0  0  0  0  0  0  0  0  0  0  0
   -1.1956   -0.6945    0.0000 C   0  0  0  0  0  0  0  0  0  0  0  0
   -2.0729   -1.1938    0.0046 H   0  0  0  0  0  0  0  0  0  0  0  0
   -0.0017   -1.3817   -0.0027 C   0  0  0  0  0  0  0  0  0  0  0  0
   -0.0006   -2.3844   -0.0068 H   0  0  0  0  0  0  0  0  0  0  0  0
    1.1956   -0.6875   -0.0000 C   0  0  0  0  0  0  0  0  0  0  0  0
    2.0777   -1.1910    0.0053 H   0  0  0  0  0  0  0  0  0  0  0  0
    1.1936    0.6921   -0.0022 C   0  0  0  0  0  0  0  0  0  0  0  0
    2.0608    1.1919   -0.0111 H   0  0  0  0  0  0  0  0  0  0  0  0
  1  5  1  0
  5  8  1  0
  1  2  1  0
  1  3  1  0
  1  4  1  0
  5  6  1  0
  5  7  1  0
  8  9  1  0
  8 10  1  0
  8 11  1  0
 12 16  1  0
 16 17  2  0
 17 19  1  0
 19 21  2  0
 21 23  1  0
 23 25  2  0
 25 16  1  0
 12 13  1  0
 12 14  1  0
 12 15  1  0
 17 18  1  0
 19 20  1  0
 21 22  1  0
 23 24  1  0
 25 26  1  0
M  CHG  1   8   1
M  END
>  <PDB_ID>  (2684) 
pdb4x9b

>  <RESIDUE_NAME>  (2684) 
GLN   PHE

>  <FRAG_NAME>  (2684) 
ETAM   MBZ

>  <FRAG_ATOM_NUM>  (2684) 
fragi: 11  fragj: 15

>  <atom.prop.CHAIN_ID>  (2684) 
A A A A A A A A A A A Z Z Z Z Z Z Z Z Z Z Z Z Z Z Z

>  <atom.prop.IS_HEAVY_ATOM>  (2684) 
1 0 0 0 1 0 0 1 0 0 0 1 0 0 0 1 1 0 1 0 1 0 1 0 1 0

>  <DIFUSE_FUNC_ATOM>  (2684) 
n/a

>  <FINAL_SINGLE_POINT_ENERGY>  (2684) 
0

>  <NONCOV_INTER_ENERGY_QM>  (2684) 
0

>  <FF_Energy>  (2684) 
0.04

>  <QM_Energy>  (2684) 
-8.38

>  <source>  (2684) 
ETAM_MBZ

>  <Index>  (2684) 
28803

$$$$
ETAM-pdb3w2w-A-LYS-484:MBZ-pdb3w2w-A-PHE-232
     RDKit          3D

 26 25  0  0  0  0  0  0  0  0999 V2000
   -1.3269   -2.7683    4.3589 C   0  0  0  0  0  0  0  0  0  0  0  0
   -0.9355   -2.3105    5.1602 H   0  0  0  0  0  0  0  0  0  0  0  0
   -0.6544   -2.7649    3.6161 H   0  0  0  0  0  0  0  0  0  0  0  0
   -1.5578   -3.8007    4.6215 H   0  0  0  0  0  0  0  0  0  0  0  0
   -2.5450   -1.9861    3.9064 C   0  0  0  0  0  0  0  0  0  0  0  0
   -2.9565   -2.4435    3.1270 H   0  0  0  0  0  0  0  0  0  0  0  0
   -3.1936   -1.9256    4.6569 H   0  0  0  0  0  0  0  0  0  0  0  0
   -2.1274   -0.6114    3.5063 N   0  0  0  0  0  4  0  0  0  0  0  0
   -1.6163   -0.6585    2.6490 H   0  0  0  0  0  0  0  0  0  0  0  0
   -2.9395   -0.0432    3.3824 H   0  0  0  0  0  0  0  0  0  0  0  0
   -1.5494   -0.2213    4.2217 H   0  0  0  0  0  0  0  0  0  0  0  0
    0.0075    2.9061   -0.0274 C   0  0  0  0  0  0  0  0  0  0  0  0
   -0.4128    3.2006   -0.8742 H   0  0  0  0  0  0  0  0  0  0  0  0
    0.9479    3.2121    0.0284 H   0  0  0  0  0  0  0  0  0  0  0  0
   -0.5400    3.3701    0.7930 H   0  0  0  0  0  0  0  0  0  0  0  0
    0.0012    1.4064   -0.0001 C   0  0  0  0  0  0  0  0  0  0  0  0
   -1.1948    0.7031    0.0006 C   0  0  0  0  0  0  0  0  0  0  0  0
   -2.0627    1.1863    0.0003 H   0  0  0  0  0  0  0  0  0  0  0  0
   -1.2028   -0.7043   -0.0000 C   0  0  0  0  0  0  0  0  0  0  0  0
   -2.0818   -1.1881    0.0015 H   0  0  0  0  0  0  0  0  0  0  0  0
   -0.0031   -1.4037   -0.0009 C   0  0  0  0  0  0  0  0  0  0  0  0
   -0.0032   -2.3990   -0.0025 H   0  0  0  0  0  0  0  0  0  0  0  0
    1.2028   -0.6996   -0.0000 C   0  0  0  0  0  0  0  0  0  0  0  0
    2.0835   -1.1951    0.0021 H   0  0  0  0  0  0  0  0  0  0  0  0
    1.1966    0.6981    0.0004 C   0  0  0  0  0  0  0  0  0  0  0  0
    2.0664    1.1918   -0.0001 H   0  0  0  0  0  0  0  0  0  0  0  0
  1  5  1  0
  5  8  1  0
  1  2  1  0
  1  3  1  0
  1  4  1  0
  5  6  1  0
  5  7  1  0
  8  9  1  0
  8 10  1  0
  8 11  1  0
 12 16  1  0
 16 17  2  0
 17 19  1  0
 19 21  2  0
 21 23  1  0
 23 25  2  0
 25 16  1  0
 12 13  1  0
 12 14  1  0
 12 15  1  0
 17 18  1  0
 19 20  1  0
 21 22  1  0
 23 24  1  0
 25 26  1  0
M  CHG  1   8   1
M  END
>  <PDB_ID>  (2685) 
pdb3w2w

>  <RESIDUE_NAME>  (2685) 
LYS   PHE

>  <FRAG_NAME>  (2685) 
ETAM   MBZ

>  <FRAG_ATOM_NUM>  (2685) 
fragi: 11  fragj: 15

>  <atom.prop.CHAIN_ID>  (2685) 
A A A A A A A A A A A Z Z Z Z Z Z Z Z Z Z Z Z Z Z Z

>  <atom.prop.IS_HEAVY_ATOM>  (2685) 
1 0 0 0 1 0 0 1 0 0 0 1 0 0 0 1 1 0 1 0 1 0 1 0 1 0

>  <DIFUSE_FUNC_ATOM>  (2685) 
n/a

>  <FINAL_SINGLE_POINT_ENERGY>  (2685) 
0

>  <NONCOV_INTER_ENERGY_QM>  (2685) 
0

>  <FF_Energy>  (2685) 
-4.72

>  <QM_Energy>  (2685) 
-10.82

>  <source>  (2685) 
ETAM_MBZ

>  <Index>  (2685) 
28820

$$$$
ETAM-pdb3w3w-A-LYS-1058:MBZ-pdb3w3w-A-PHE-1088
     RDKit          3D

 26 25  0  0  0  0  0  0  0  0999 V2000
    4.1094    3.3439    1.1671 C   0  0  0  0  0  0  0  0  0  0  0  0
    4.7695    3.3031    1.9178 H   0  0  0  0  0  0  0  0  0  0  0  0
    4.1580    4.2417    0.7296 H   0  0  0  0  0  0  0  0  0  0  0  0
    4.3667    2.5808    0.4325 H   0  0  0  0  0  0  0  0  0  0  0  0
    2.7185    3.1571    1.7341 C   0  0  0  0  0  0  0  0  0  0  0  0
    2.0531    3.2014    0.9893 H   0  0  0  0  0  0  0  0  0  0  0  0
    2.6633    2.2635    2.1786 H   0  0  0  0  0  0  0  0  0  0  0  0
    2.4128    4.2174    2.7282 N   0  0  0  0  0  4  0  0  0  0  0  0
    1.4575    4.4978    2.6318 H   0  0  0  0  0  0  0  0  0  0  0  0
    2.5643    3.8625    3.6508 H   0  0  0  0  0  0  0  0  0  0  0  0
    3.0096    5.0039    2.5708 H   0  0  0  0  0  0  0  0  0  0  0  0
   -0.0093    2.9055   -0.0082 C   0  0  0  0  0  0  0  0  0  0  0  0
   -0.7913    3.2019   -0.5403 H   0  0  0  0  0  0  0  0  0  0  0  0
    0.8372    3.2124   -0.4232 H   0  0  0  0  0  0  0  0  0  0  0  0
   -0.0829    3.3657    0.9771 H   0  0  0  0  0  0  0  0  0  0  0  0
   -0.0013    1.4040    0.0072 C   0  0  0  0  0  0  0  0  0  0  0  0
   -1.1997    0.6992   -0.0070 C   0  0  0  0  0  0  0  0  0  0  0  0
   -2.0645    1.1902   -0.0241 H   0  0  0  0  0  0  0  0  0  0  0  0
   -1.2023   -0.6888   -0.0000 C   0  0  0  0  0  0  0  0  0  0  0  0
   -2.0791   -1.1860    0.0039 H   0  0  0  0  0  0  0  0  0  0  0  0
    0.0031   -1.3961    0.0032 C   0  0  0  0  0  0  0  0  0  0  0  0
   -0.0113   -2.3933    0.0072 H   0  0  0  0  0  0  0  0  0  0  0  0
    1.2023   -0.7051    0.0000 C   0  0  0  0  0  0  0  0  0  0  0  0
    2.0837   -1.2017    0.0012 H   0  0  0  0  0  0  0  0  0  0  0  0
    1.1980    0.6867   -0.0033 C   0  0  0  0  0  0  0  0  0  0  0  0
    2.0659    1.1835   -0.0141 H   0  0  0  0  0  0  0  0  0  0  0  0
  1  5  1  0
  5  8  1  0
  1  2  1  0
  1  3  1  0
  1  4  1  0
  5  6  1  0
  5  7  1  0
  8  9  1  0
  8 10  1  0
  8 11  1  0
 12 16  1  0
 16 17  2  0
 17 19  1  0
 19 21  2  0
 21 23  1  0
 23 25  2  0
 25 16  1  0
 12 13  1  0
 12 14  1  0
 12 15  1  0
 17 18  1  0
 19 20  1  0
 21 22  1  0
 23 24  1  0
 25 26  1  0
M  CHG  1   8   1
M  END
>  <PDB_ID>  (2686) 
pdb3w3w

>  <RESIDUE_NAME>  (2686) 
LYS   PHE

>  <FRAG_NAME>  (2686) 
ETAM   MBZ

>  <FRAG_ATOM_NUM>  (2686) 
fragi: 11  fragj: 15

>  <atom.prop.CHAIN_ID>  (2686) 
A A A A A A A A A A A Z Z Z Z Z Z Z Z Z Z Z Z Z Z Z

>  <atom.prop.IS_HEAVY_ATOM>  (2686) 
1 0 0 0 1 0 0 1 0 0 0 1 0 0 0 1 1 0 1 0 1 0 1 0 1 0

>  <DIFUSE_FUNC_ATOM>  (2686) 
n/a

>  <FINAL_SINGLE_POINT_ENERGY>  (2686) 
0

>  <NONCOV_INTER_ENERGY_QM>  (2686) 
0

>  <FF_Energy>  (2686) 
5.4

>  <QM_Energy>  (2686) 
-1.82

>  <source>  (2686) 
ETAM_MBZ

>  <Index>  (2686) 
28825

$$$$
ETAM-pdb4xav-B-LYS-419:MBZ-pdb4xav-B-PHE-338
     RDKit          3D

 26 25  0  0  0  0  0  0  0  0999 V2000
    0.6364    0.0064    3.3258 C   0  0  0  0  0  0  0  0  0  0  0  0
    0.4462    0.5202    2.4945 H   0  0  0  0  0  0  0  0  0  0  0  0
    0.8561    0.6279    4.0723 H   0  0  0  0  0  0  0  0  0  0  0  0
   -0.2481   -0.5714    3.5940 H   0  0  0  0  0  0  0  0  0  0  0  0
    1.8352   -0.8920    3.0755 C   0  0  0  0  0  0  0  0  0  0  0  0
    1.6673   -1.4315    2.2440 H   0  0  0  0  0  0  0  0  0  0  0  0
    2.6459   -0.3157    2.9243 H   0  0  0  0  0  0  0  0  0  0  0  0
    2.0894   -1.8069    4.2107 N   0  0  0  0  0  4  0  0  0  0  0  0
    2.1522   -1.2797    5.0593 H   0  0  0  0  0  0  0  0  0  0  0  0
    1.3403   -2.4662    4.2849 H   0  0  0  0  0  0  0  0  0  0  0  0
    2.9493   -2.2974    4.0600 H   0  0  0  0  0  0  0  0  0  0  0  0
   -0.0021    2.8891    0.0132 C   0  0  0  0  0  0  0  0  0  0  0  0
    0.9352    3.2000   -0.0350 H   0  0  0  0  0  0  0  0  0  0  0  0
   -0.4378    3.1903    0.8481 H   0  0  0  0  0  0  0  0  0  0  0  0
   -0.5426    3.3363   -0.8210 H   0  0  0  0  0  0  0  0  0  0  0  0
    0.0006    1.3910    0.0001 C   0  0  0  0  0  0  0  0  0  0  0  0
   -1.1923    0.6858   -0.0021 C   0  0  0  0  0  0  0  0  0  0  0  0
   -2.0589    1.1793   -0.0067 H   0  0  0  0  0  0  0  0  0  0  0  0
   -1.1950   -0.6942   -0.0000 C   0  0  0  0  0  0  0  0  0  0  0  0
   -2.0724   -1.1919    0.0051 H   0  0  0  0  0  0  0  0  0  0  0  0
    0.0011   -1.3826   -0.0035 C   0  0  0  0  0  0  0  0  0  0  0  0
    0.0003   -2.3840   -0.0090 H   0  0  0  0  0  0  0  0  0  0  0  0
    1.1950   -0.6878   -0.0000 C   0  0  0  0  0  0  0  0  0  0  0  0
    2.0785   -1.1898    0.0002 H   0  0  0  0  0  0  0  0  0  0  0  0
    1.1906    0.6878    0.0054 C   0  0  0  0  0  0  0  0  0  0  0  0
    2.0598    1.1889    0.0126 H   0  0  0  0  0  0  0  0  0  0  0  0
  1  5  1  0
  5  8  1  0
  1  2  1  0
  1  3  1  0
  1  4  1  0
  5  6  1  0
  5  7  1  0
  8  9  1  0
  8 10  1  0
  8 11  1  0
 12 16  1  0
 16 17  2  0
 17 19  1  0
 19 21  2  0
 21 23  1  0
 23 25  2  0
 25 16  1  0
 12 13  1  0
 12 14  1  0
 12 15  1  0
 17 18  1  0
 19 20  1  0
 21 22  1  0
 23 24  1  0
 25 26  1  0
M  CHG  1   8   1
M  END
>  <PDB_ID>  (2687) 
pdb4xav

>  <RESIDUE_NAME>  (2687) 
LYS   PHE

>  <FRAG_NAME>  (2687) 
ETAM   MBZ

>  <FRAG_ATOM_NUM>  (2687) 
fragi: 11  fragj: 15

>  <atom.prop.CHAIN_ID>  (2687) 
A A A A A A A A A A A Z Z Z Z Z Z Z Z Z Z Z Z Z Z Z

>  <atom.prop.IS_HEAVY_ATOM>  (2687) 
1 0 0 0 1 0 0 1 0 0 0 1 0 0 0 1 1 0 1 0 1 0 1 0 1 0

>  <DIFUSE_FUNC_ATOM>  (2687) 
n/a

>  <FINAL_SINGLE_POINT_ENERGY>  (2687) 
0

>  <NONCOV_INTER_ENERGY_QM>  (2687) 
0

>  <FF_Energy>  (2687) 
-0.78

>  <QM_Energy>  (2687) 
-7.41

>  <source>  (2687) 
ETAM_MBZ

>  <Index>  (2687) 
28842

$$$$
ETAM-pdb4xav-D-LYS-419:MBZ-pdb4xav-D-PHE-338
     RDKit          3D

 26 25  0  0  0  0  0  0  0  0999 V2000
    0.3691   -0.9253    3.2818 C   0  0  0  0  0  0  0  0  0  0  0  0
    0.3921   -0.5239    2.3710 H   0  0  0  0  0  0  0  0  0  0  0  0
    0.6442   -0.2536    3.9626 H   0  0  0  0  0  0  0  0  0  0  0  0
   -0.6470   -1.2550    3.4986 H   0  0  0  0  0  0  0  0  0  0  0  0
    1.3580   -2.0861    3.3223 C   0  0  0  0  0  0  0  0  0  0  0  0
    1.1162   -2.7410    2.6041 H   0  0  0  0  0  0  0  0  0  0  0  0
    2.2796   -1.7320    3.1470 H   0  0  0  0  0  0  0  0  0  0  0  0
    1.3399   -2.7744    4.6412 N   0  0  0  0  0  4  0  0  0  0  0  0
    0.7854   -3.6035    4.5751 H   0  0  0  0  0  0  0  0  0  0  0  0
    2.2744   -3.0161    4.9019 H   0  0  0  0  0  0  0  0  0  0  0  0
    0.9478   -2.1635    5.3287 H   0  0  0  0  0  0  0  0  0  0  0  0
    0.0011    2.8718    0.0086 C   0  0  0  0  0  0  0  0  0  0  0  0
    0.9419    3.1870    0.0455 H   0  0  0  0  0  0  0  0  0  0  0  0
   -0.5033    3.1812    0.8058 H   0  0  0  0  0  0  0  0  0  0  0  0
   -0.4607    3.3315   -0.8651 H   0  0  0  0  0  0  0  0  0  0  0  0
   -0.0018    1.3910   -0.0078 C   0  0  0  0  0  0  0  0  0  0  0  0
   -1.1936    0.6898    0.0054 C   0  0  0  0  0  0  0  0  0  0  0  0
   -2.0611    1.1806    0.0178 H   0  0  0  0  0  0  0  0  0  0  0  0
   -1.1971   -0.6954    0.0000 C   0  0  0  0  0  0  0  0  0  0  0  0
   -2.0731   -1.1917   -0.0043 H   0  0  0  0  0  0  0  0  0  0  0  0
    0.0029   -1.3844    0.0021 C   0  0  0  0  0  0  0  0  0  0  0  0
    0.0003   -2.3861    0.0040 H   0  0  0  0  0  0  0  0  0  0  0  0
    1.1971   -0.6903    0.0000 C   0  0  0  0  0  0  0  0  0  0  0  0
    2.0805   -1.1906   -0.0003 H   0  0  0  0  0  0  0  0  0  0  0  0
    1.1924    0.6892    0.0004 C   0  0  0  0  0  0  0  0  0  0  0  0
    2.0594    1.1902    0.0058 H   0  0  0  0  0  0  0  0  0  0  0  0
  1  5  1  0
  5  8  1  0
  1  2  1  0
  1  3  1  0
  1  4  1  0
  5  6  1  0
  5  7  1  0
  8  9  1  0
  8 10  1  0
  8 11  1  0
 12 16  1  0
 16 17  2  0
 17 19  1  0
 19 21  2  0
 21 23  1  0
 23 25  2  0
 25 16  1  0
 12 13  1  0
 12 14  1  0
 12 15  1  0
 17 18  1  0
 19 20  1  0
 21 22  1  0
 23 24  1  0
 25 26  1  0
M  CHG  1   8   1
M  END
>  <PDB_ID>  (2688) 
pdb4xav

>  <RESIDUE_NAME>  (2688) 
LYS   PHE

>  <FRAG_NAME>  (2688) 
ETAM   MBZ

>  <FRAG_ATOM_NUM>  (2688) 
fragi: 11  fragj: 15

>  <atom.prop.CHAIN_ID>  (2688) 
A A A A A A A A A A A Z Z Z Z Z Z Z Z Z Z Z Z Z Z Z

>  <atom.prop.IS_HEAVY_ATOM>  (2688) 
1 0 0 0 1 0 0 1 0 0 0 1 0 0 0 1 1 0 1 0 1 0 1 0 1 0

>  <DIFUSE_FUNC_ATOM>  (2688) 
n/a

>  <FINAL_SINGLE_POINT_ENERGY>  (2688) 
0

>  <NONCOV_INTER_ENERGY_QM>  (2688) 
0

>  <FF_Energy>  (2688) 
-1.5

>  <QM_Energy>  (2688) 
-6.79

>  <source>  (2688) 
ETAM_MBZ

>  <Index>  (2688) 
28845

$$$$
ETAM-pdb4xc2-C-LYS-66:MBZ-pdb4xc2-C-PHE-62
     RDKit          3D

 26 25  0  0  0  0  0  0  0  0999 V2000
    3.6291   -1.9145    4.0043 C   0  0  0  0  0  0  0  0  0  0  0  0
    4.4120   -1.3165    4.1432 H   0  0  0  0  0  0  0  0  0  0  0  0
    3.6414   -2.6587    4.6643 H   0  0  0  0  0  0  0  0  0  0  0  0
    2.7160   -1.3355    4.1423 H   0  0  0  0  0  0  0  0  0  0  0  0
    3.7121   -2.5061    2.6045 C   0  0  0  0  0  0  0  0  0  0  0  0
    4.4908   -3.1329    2.5628 H   0  0  0  0  0  0  0  0  0  0  0  0
    2.8705   -3.0131    2.4152 H   0  0  0  0  0  0  0  0  0  0  0  0
    3.8842   -1.4406    1.5768 N   0  0  0  0  0  4  0  0  0  0  0  0
    4.4477   -1.7900    0.8291 H   0  0  0  0  0  0  0  0  0  0  0  0
    2.9882   -1.1731    1.2246 H   0  0  0  0  0  0  0  0  0  0  0  0
    4.3315   -0.6491    1.9928 H   0  0  0  0  0  0  0  0  0  0  0  0
   -0.0059    2.8937    0.0477 C   0  0  0  0  0  0  0  0  0  0  0  0
   -0.6710    3.2195   -0.6068 H   0  0  0  0  0  0  0  0  0  0  0  0
    0.9035    3.2108   -0.1728 H   0  0  0  0  0  0  0  0  0  0  0  0
   -0.2723    3.2978    1.0244 H   0  0  0  0  0  0  0  0  0  0  0  0
   -0.0019    1.3965    0.0026 C   0  0  0  0  0  0  0  0  0  0  0  0
   -1.2012    0.6874    0.0005 C   0  0  0  0  0  0  0  0  0  0  0  0
   -2.0654    1.1797   -0.0019 H   0  0  0  0  0  0  0  0  0  0  0  0
   -1.2011   -0.6955   -0.0000 C   0  0  0  0  0  0  0  0  0  0  0  0
   -2.0734   -1.1966    0.0139 H   0  0  0  0  0  0  0  0  0  0  0  0
    0.0048   -1.3859   -0.0185 C   0  0  0  0  0  0  0  0  0  0  0  0
   -0.0002   -2.3875   -0.0459 H   0  0  0  0  0  0  0  0  0  0  0  0
    1.2011   -0.6933    0.0000 C   0  0  0  0  0  0  0  0  0  0  0  0
    2.0838   -1.1932    0.0045 H   0  0  0  0  0  0  0  0  0  0  0  0
    1.1983    0.6909    0.0154 C   0  0  0  0  0  0  0  0  0  0  0  0
    2.0629    1.1905    0.0348 H   0  0  0  0  0  0  0  0  0  0  0  0
  1  5  1  0
  5  8  1  0
  1  2  1  0
  1  3  1  0
  1  4  1  0
  5  6  1  0
  5  7  1  0
  8  9  1  0
  8 10  1  0
  8 11  1  0
 12 16  1  0
 16 17  2  0
 17 19  1  0
 19 21  2  0
 21 23  1  0
 23 25  2  0
 25 16  1  0
 12 13  1  0
 12 14  1  0
 12 15  1  0
 17 18  1  0
 19 20  1  0
 21 22  1  0
 23 24  1  0
 25 26  1  0
M  CHG  1   8   1
M  END
>  <PDB_ID>  (2689) 
pdb4xc2

>  <RESIDUE_NAME>  (2689) 
LYS   PHE

>  <FRAG_NAME>  (2689) 
ETAM   MBZ

>  <FRAG_ATOM_NUM>  (2689) 
fragi: 11  fragj: 15

>  <atom.prop.CHAIN_ID>  (2689) 
A A A A A A A A A A A Z Z Z Z Z Z Z Z Z Z Z Z Z Z Z

>  <atom.prop.IS_HEAVY_ATOM>  (2689) 
1 0 0 0 1 0 0 1 0 0 0 1 0 0 0 1 1 0 1 0 1 0 1 0 1 0

>  <DIFUSE_FUNC_ATOM>  (2689) 
n/a

>  <FINAL_SINGLE_POINT_ENERGY>  (2689) 
0

>  <NONCOV_INTER_ENERGY_QM>  (2689) 
0

>  <FF_Energy>  (2689) 
2.55

>  <QM_Energy>  (2689) 
-4.15

>  <source>  (2689) 
ETAM_MBZ

>  <Index>  (2689) 
28869

$$$$
ETAM-pdb4xck-C-LYS-273:MBZ-pdb4xck-C-PHE-240
     RDKit          3D

 26 25  0  0  0  0  0  0  0  0999 V2000
   -0.2259   -5.4189    1.2212 C   0  0  0  0  0  0  0  0  0  0  0  0
    0.0561   -5.3059    2.1612 H   0  0  0  0  0  0  0  0  0  0  0  0
   -0.3231   -6.3724    0.9843 H   0  0  0  0  0  0  0  0  0  0  0  0
   -1.1858   -4.9220    1.0806 H   0  0  0  0  0  0  0  0  0  0  0  0
    0.8430   -4.7960    0.3122 C   0  0  0  0  0  0  0  0  0  0  0  0
    0.6055   -5.0084   -0.6541 H   0  0  0  0  0  0  0  0  0  0  0  0
    0.7956   -3.7842    0.4085 H   0  0  0  0  0  0  0  0  0  0  0  0
    2.2532   -5.2382    0.5695 N   0  0  0  0  0  4  0  0  0  0  0  0
    2.8289   -4.4335    0.6964 H   0  0  0  0  0  0  0  0  0  0  0  0
    2.2726   -5.8028    1.3924 H   0  0  0  0  0  0  0  0  0  0  0  0
    2.5767   -5.7670   -0.2124 H   0  0  0  0  0  0  0  0  0  0  0  0
    0.0002    2.9079    0.0059 C   0  0  0  0  0  0  0  0  0  0  0  0
   -0.9174    3.2136   -0.1935 H   0  0  0  0  0  0  0  0  0  0  0  0
    0.6418    3.2145   -0.6784 H   0  0  0  0  0  0  0  0  0  0  0  0
    0.2972    3.3372    0.9627 H   0  0  0  0  0  0  0  0  0  0  0  0
   -0.0016    1.3991   -0.0041 C   0  0  0  0  0  0  0  0  0  0  0  0
   -1.1899    0.6909    0.0015 C   0  0  0  0  0  0  0  0  0  0  0  0
   -2.0603    1.1793    0.0056 H   0  0  0  0  0  0  0  0  0  0  0  0
   -1.1930   -0.6952    0.0000 C   0  0  0  0  0  0  0  0  0  0  0  0
   -2.0722   -1.1893   -0.0005 H   0  0  0  0  0  0  0  0  0  0  0  0
    0.0018   -1.3885    0.0008 C   0  0  0  0  0  0  0  0  0  0  0  0
   -0.0033   -2.3893    0.0016 H   0  0  0  0  0  0  0  0  0  0  0  0
    1.1930   -0.6950   -0.0000 C   0  0  0  0  0  0  0  0  0  0  0  0
    2.0782   -1.1931   -0.0005 H   0  0  0  0  0  0  0  0  0  0  0  0
    1.1897    0.6887    0.0017 C   0  0  0  0  0  0  0  0  0  0  0  0
    2.0599    1.1859    0.0061 H   0  0  0  0  0  0  0  0  0  0  0  0
  1  5  1  0
  5  8  1  0
  1  2  1  0
  1  3  1  0
  1  4  1  0
  5  6  1  0
  5  7  1  0
  8  9  1  0
  8 10  1  0
  8 11  1  0
 12 16  1  0
 16 17  2  0
 17 19  1  0
 19 21  2  0
 21 23  1  0
 23 25  2  0
 25 16  1  0
 12 13  1  0
 12 14  1  0
 12 15  1  0
 17 18  1  0
 19 20  1  0
 21 22  1  0
 23 24  1  0
 25 26  1  0
M  CHG  1   8   1
M  END
>  <PDB_ID>  (2690) 
pdb4xck

>  <RESIDUE_NAME>  (2690) 
LYS   PHE

>  <FRAG_NAME>  (2690) 
ETAM   MBZ

>  <FRAG_ATOM_NUM>  (2690) 
fragi: 11  fragj: 15

>  <atom.prop.CHAIN_ID>  (2690) 
A A A A A A A A A A A Z Z Z Z Z Z Z Z Z Z Z Z Z Z Z

>  <atom.prop.IS_HEAVY_ATOM>  (2690) 
1 0 0 0 1 0 0 1 0 0 0 1 0 0 0 1 1 0 1 0 1 0 1 0 1 0

>  <DIFUSE_FUNC_ATOM>  (2690) 
n/a

>  <FINAL_SINGLE_POINT_ENERGY>  (2690) 
0

>  <NONCOV_INTER_ENERGY_QM>  (2690) 
0

>  <FF_Energy>  (2690) 
11.71

>  <QM_Energy>  (2690) 
-0.35

>  <source>  (2690) 
ETAM_MBZ

>  <Index>  (2690) 
28886

$$$$
ETAM-pdb4xcw-D-LYS-175:MBZ-pdb4xcw-D-PHE-172
     RDKit          3D

 26 25  0  0  0  0  0  0  0  0999 V2000
   -1.7671   -5.5171    2.8754 C   0  0  0  0  0  0  0  0  0  0  0  0
   -1.6420   -6.4821    2.6819 H   0  0  0  0  0  0  0  0  0  0  0  0
   -2.7314   -5.2878    2.9173 H   0  0  0  0  0  0  0  0  0  0  0  0
   -1.3046   -5.2844    3.8345 H   0  0  0  0  0  0  0  0  0  0  0  0
   -1.1239   -4.7118    1.7654 C   0  0  0  0  0  0  0  0  0  0  0  0
   -0.1564   -4.9458    1.7107 H   0  0  0  0  0  0  0  0  0  0  0  0
   -1.5737   -4.9276    0.9016 H   0  0  0  0  0  0  0  0  0  0  0  0
   -1.2630   -3.2594    2.0420 N   0  0  0  0  0  4  0  0  0  0  0  0
   -2.0853   -3.1017    2.5884 H   0  0  0  0  0  0  0  0  0  0  0  0
   -0.4615   -2.9382    2.5462 H   0  0  0  0  0  0  0  0  0  0  0  0
   -1.3360   -2.7607    1.1783 H   0  0  0  0  0  0  0  0  0  0  0  0
   -0.0036    2.8851   -0.0015 C   0  0  0  0  0  0  0  0  0  0  0  0
   -0.7510    3.1929   -0.5748 H   0  0  0  0  0  0  0  0  0  0  0  0
    0.8675    3.1950   -0.3582 H   0  0  0  0  0  0  0  0  0  0  0  0
   -0.1355    3.3337    0.9831 H   0  0  0  0  0  0  0  0  0  0  0  0
   -0.0019    1.3915    0.0029 C   0  0  0  0  0  0  0  0  0  0  0  0
   -1.1931    0.6852    0.0028 C   0  0  0  0  0  0  0  0  0  0  0  0
   -2.0604    1.1778    0.0034 H   0  0  0  0  0  0  0  0  0  0  0  0
   -1.1937   -0.6932   -0.0000 C   0  0  0  0  0  0  0  0  0  0  0  0
   -2.0700   -1.1934    0.0019 H   0  0  0  0  0  0  0  0  0  0  0  0
    0.0044   -1.3812   -0.0040 C   0  0  0  0  0  0  0  0  0  0  0  0
   -0.0000   -2.3845   -0.0101 H   0  0  0  0  0  0  0  0  0  0  0  0
    1.1937   -0.6905    0.0000 C   0  0  0  0  0  0  0  0  0  0  0  0
    2.0796   -1.1899    0.0055 H   0  0  0  0  0  0  0  0  0  0  0  0
    1.1906    0.6882   -0.0017 C   0  0  0  0  0  0  0  0  0  0  0  0
    2.0587    1.1879   -0.0075 H   0  0  0  0  0  0  0  0  0  0  0  0
  1  5  1  0
  5  8  1  0
  1  2  1  0
  1  3  1  0
  1  4  1  0
  5  6  1  0
  5  7  1  0
  8  9  1  0
  8 10  1  0
  8 11  1  0
 12 16  1  0
 16 17  2  0
 17 19  1  0
 19 21  2  0
 21 23  1  0
 23 25  2  0
 25 16  1  0
 12 13  1  0
 12 14  1  0
 12 15  1  0
 17 18  1  0
 19 20  1  0
 21 22  1  0
 23 24  1  0
 25 26  1  0
M  CHG  1   8   1
M  END
>  <PDB_ID>  (2691) 
pdb4xcw

>  <RESIDUE_NAME>  (2691) 
LYS   PHE

>  <FRAG_NAME>  (2691) 
ETAM   MBZ

>  <FRAG_ATOM_NUM>  (2691) 
fragi: 11  fragj: 15

>  <atom.prop.CHAIN_ID>  (2691) 
A A A A A A A A A A A Z Z Z Z Z Z Z Z Z Z Z Z Z Z Z

>  <atom.prop.IS_HEAVY_ATOM>  (2691) 
1 0 0 0 1 0 0 1 0 0 0 1 0 0 0 1 1 0 1 0 1 0 1 0 1 0

>  <DIFUSE_FUNC_ATOM>  (2691) 
n/a

>  <FINAL_SINGLE_POINT_ENERGY>  (2691) 
0

>  <NONCOV_INTER_ENERGY_QM>  (2691) 
0

>  <FF_Energy>  (2691) 
0.61

>  <QM_Energy>  (2691) 
-6.68

>  <source>  (2691) 
ETAM_MBZ

>  <Index>  (2691) 
28887

$$$$
ETAM-pdb3w77-B-LYS-65:MBZ-pdb3w77-B-PHE-61
     RDKit          3D

 26 25  0  0  0  0  0  0  0  0999 V2000
   -0.4867   -0.8436   -4.8884 C   0  0  0  0  0  0  0  0  0  0  0  0
   -1.0107   -0.3248   -4.2339 H   0  0  0  0  0  0  0  0  0  0  0  0
   -0.5201   -1.8109   -4.7001 H   0  0  0  0  0  0  0  0  0  0  0  0
   -0.8703   -0.6542   -5.8910 H   0  0  0  0  0  0  0  0  0  0  0  0
    0.9664   -0.3878   -4.8132 C   0  0  0  0  0  0  0  0  0  0  0  0
    1.5523   -1.1042   -5.1936 H   0  0  0  0  0  0  0  0  0  0  0  0
    1.0732    0.4484   -5.3521 H   0  0  0  0  0  0  0  0  0  0  0  0
    1.3820   -0.1159   -3.4011 N   0  0  0  0  0  4  0  0  0  0  0  0
    0.6165   -0.3126   -2.7908 H   0  0  0  0  0  0  0  0  0  0  0  0
    2.1573   -0.7008   -3.1698 H   0  0  0  0  0  0  0  0  0  0  0  0
    1.6448    0.8431   -3.3162 H   0  0  0  0  0  0  0  0  0  0  0  0
    0.0047    2.9183   -0.0100 C   0  0  0  0  0  0  0  0  0  0  0  0
    0.6956    3.2250    0.6234 H   0  0  0  0  0  0  0  0  0  0  0  0
   -0.8948    3.2289    0.2496 H   0  0  0  0  0  0  0  0  0  0  0  0
    0.2356    3.3368   -0.9896 H   0  0  0  0  0  0  0  0  0  0  0  0
   -0.0027    1.4104    0.0070 C   0  0  0  0  0  0  0  0  0  0  0  0
   -1.2062    0.6961   -0.0059 C   0  0  0  0  0  0  0  0  0  0  0  0
   -2.0711    1.1837   -0.0207 H   0  0  0  0  0  0  0  0  0  0  0  0
   -1.2085   -0.7033    0.0000 C   0  0  0  0  0  0  0  0  0  0  0  0
   -2.0805   -1.1964    0.0088 H   0  0  0  0  0  0  0  0  0  0  0  0
    0.0018   -1.3966   -0.0042 C   0  0  0  0  0  0  0  0  0  0  0  0
   -0.0020   -2.3972   -0.0105 H   0  0  0  0  0  0  0  0  0  0  0  0
    1.2085   -0.7020   -0.0000 C   0  0  0  0  0  0  0  0  0  0  0  0
    2.0867   -1.1996    0.0025 H   0  0  0  0  0  0  0  0  0  0  0  0
    1.2070    0.6953    0.0031 C   0  0  0  0  0  0  0  0  0  0  0  0
    2.0694    1.1922    0.0018 H   0  0  0  0  0  0  0  0  0  0  0  0
  1  5  1  0
  5  8  1  0
  1  2  1  0
  1  3  1  0
  1  4  1  0
  5  6  1  0
  5  7  1  0
  8  9  1  0
  8 10  1  0
  8 11  1  0
 12 16  1  0
 16 17  2  0
 17 19  1  0
 19 21  2  0
 21 23  1  0
 23 25  2  0
 25 16  1  0
 12 13  1  0
 12 14  1  0
 12 15  1  0
 17 18  1  0
 19 20  1  0
 21 22  1  0
 23 24  1  0
 25 26  1  0
M  CHG  1   8   1
M  END
>  <PDB_ID>  (2692) 
pdb3w77

>  <RESIDUE_NAME>  (2692) 
LYS   PHE

>  <FRAG_NAME>  (2692) 
ETAM   MBZ

>  <FRAG_ATOM_NUM>  (2692) 
fragi: 11  fragj: 15

>  <atom.prop.CHAIN_ID>  (2692) 
A A A A A A A A A A A Z Z Z Z Z Z Z Z Z Z Z Z Z Z Z

>  <atom.prop.IS_HEAVY_ATOM>  (2692) 
1 0 0 0 1 0 0 1 0 0 0 1 0 0 0 1 1 0 1 0 1 0 1 0 1 0

>  <DIFUSE_FUNC_ATOM>  (2692) 
n/a

>  <FINAL_SINGLE_POINT_ENERGY>  (2692) 
0

>  <NONCOV_INTER_ENERGY_QM>  (2692) 
0

>  <FF_Energy>  (2692) 
-6.61

>  <QM_Energy>  (2692) 
-12.49

>  <source>  (2692) 
ETAM_MBZ

>  <Index>  (2692) 
28894

$$$$
ETAM-pdb4xc2-C-LYS-46:MBZ-pdb4xc2-G-PHE-667
     RDKit          3D

 26 25  0  0  0  0  0  0  0  0999 V2000
    0.6281   -2.1948    3.9087 C   0  0  0  0  0  0  0  0  0  0  0  0
    1.2019   -2.1234    4.7201 H   0  0  0  0  0  0  0  0  0  0  0  0
    1.1510   -2.5806    3.1536 H   0  0  0  0  0  0  0  0  0  0  0  0
   -0.2159   -2.8487    4.1281 H   0  0  0  0  0  0  0  0  0  0  0  0
    0.1786   -0.7889    3.5126 C   0  0  0  0  0  0  0  0  0  0  0  0
   -0.5063   -0.8700    2.7610 H   0  0  0  0  0  0  0  0  0  0  0  0
   -0.3132   -0.3732    4.3041 H   0  0  0  0  0  0  0  0  0  0  0  0
    1.2600    0.1447    3.0774 N   0  0  0  0  0  4  0  0  0  0  0  0
    0.8838    1.0660    2.9898 H   0  0  0  0  0  0  0  0  0  0  0  0
    1.9900    0.1430    3.7584 H   0  0  0  0  0  0  0  0  0  0  0  0
    1.6207   -0.1573    2.1961 H   0  0  0  0  0  0  0  0  0  0  0  0
    0.0178    2.8885    0.0803 C   0  0  0  0  0  0  0  0  0  0  0  0
   -0.7239    3.1963   -0.5035 H   0  0  0  0  0  0  0  0  0  0  0  0
    0.8940    3.1813   -0.2841 H   0  0  0  0  0  0  0  0  0  0  0  0
   -0.1099    3.3649    1.0523 H   0  0  0  0  0  0  0  0  0  0  0  0
    0.0000    1.3935    0.1085 C   0  0  0  0  0  0  0  0  0  0  0  0
   -1.1859    0.6982   -0.0593 C   0  0  0  0  0  0  0  0  0  0  0  0
   -2.0329    1.1907   -0.2235 H   0  0  0  0  0  0  0  0  0  0  0  0
   -1.1940   -0.6800   -0.0000 C   0  0  0  0  0  0  0  0  0  0  0  0
   -2.0737   -1.1723    0.0783 H   0  0  0  0  0  0  0  0  0  0  0  0
   -0.0016   -1.3914   -0.0458 C   0  0  0  0  0  0  0  0  0  0  0  0
   -0.0172   -2.3845   -0.1113 H   0  0  0  0  0  0  0  0  0  0  0  0
    1.1940   -0.7039    0.0000 C   0  0  0  0  0  0  0  0  0  0  0  0
    2.0752   -1.2007    0.0376 H   0  0  0  0  0  0  0  0  0  0  0  0
    1.1874    0.6837   -0.0034 C   0  0  0  0  0  0  0  0  0  0  0  0
    2.0538    1.1806   -0.0885 H   0  0  0  0  0  0  0  0  0  0  0  0
  1  5  1  0
  5  8  1  0
  1  2  1  0
  1  3  1  0
  1  4  1  0
  5  6  1  0
  5  7  1  0
  8  9  1  0
  8 10  1  0
  8 11  1  0
 12 16  1  0
 16 17  2  0
 17 19  1  0
 19 21  2  0
 21 23  1  0
 23 25  2  0
 25 16  1  0
 12 13  1  0
 12 14  1  0
 12 15  1  0
 17 18  1  0
 19 20  1  0
 21 22  1  0
 23 24  1  0
 25 26  1  0
M  CHG  1   8   1
M  END
>  <PDB_ID>  (2693) 
pdb4xc2

>  <RESIDUE_NAME>  (2693) 
LYS   PHE

>  <FRAG_NAME>  (2693) 
ETAM   MBZ

>  <FRAG_ATOM_NUM>  (2693) 
fragi: 11  fragj: 15

>  <atom.prop.CHAIN_ID>  (2693) 
A A A A A A A A A A A Z Z Z Z Z Z Z Z Z Z Z Z Z Z Z

>  <atom.prop.IS_HEAVY_ATOM>  (2693) 
1 0 0 0 1 0 0 1 0 0 0 1 0 0 0 1 1 0 1 0 1 0 1 0 1 0

>  <DIFUSE_FUNC_ATOM>  (2693) 
n/a

>  <FINAL_SINGLE_POINT_ENERGY>  (2693) 
0

>  <NONCOV_INTER_ENERGY_QM>  (2693) 
0

>  <FF_Energy>  (2693) 
-8.04

>  <QM_Energy>  (2693) 
-15.45

>  <source>  (2693) 
ETAM_MBZ

>  <Index>  (2693) 
28901

$$$$
ETAM-pdb4xdi-A-LYS-53:MBZ-pdb4xdi-A-PHE-57
     RDKit          3D

 26 25  0  0  0  0  0  0  0  0999 V2000
    2.7903   -2.2379   -4.1197 C   0  0  0  0  0  0  0  0  0  0  0  0
    2.4116   -2.5587   -4.9873 H   0  0  0  0  0  0  0  0  0  0  0  0
    3.7825   -2.3573   -4.1213 H   0  0  0  0  0  0  0  0  0  0  0  0
    2.5745   -1.1734   -4.0272 H   0  0  0  0  0  0  0  0  0  0  0  0
    2.1988   -3.0576   -2.9921 C   0  0  0  0  0  0  0  0  0  0  0  0
    2.3768   -4.0335   -3.1676 H   0  0  0  0  0  0  0  0  0  0  0  0
    2.6536   -2.8056   -2.1286 H   0  0  0  0  0  0  0  0  0  0  0  0
    0.7314   -2.8521   -2.8433 N   0  0  0  0  0  4  0  0  0  0  0  0
    0.4426   -3.1686   -1.9400 H   0  0  0  0  0  0  0  0  0  0  0  0
    0.5215   -1.8804   -2.9405 H   0  0  0  0  0  0  0  0  0  0  0  0
    0.2513   -3.3703   -3.5498 H   0  0  0  0  0  0  0  0  0  0  0  0
    0.0215    2.9312    0.0216 C   0  0  0  0  0  0  0  0  0  0  0  0
    0.9077    3.2245   -0.3095 H   0  0  0  0  0  0  0  0  0  0  0  0
   -0.1186    3.2133    0.9609 H   0  0  0  0  0  0  0  0  0  0  0  0
   -0.7410    3.4126   -0.5906 H   0  0  0  0  0  0  0  0  0  0  0  0
   -0.0028    1.4143   -0.0107 C   0  0  0  0  0  0  0  0  0  0  0  0
   -1.1947    0.7093    0.0090 C   0  0  0  0  0  0  0  0  0  0  0  0
   -2.0647    1.1890    0.0287 H   0  0  0  0  0  0  0  0  0  0  0  0
   -1.1996   -0.6990    0.0000 C   0  0  0  0  0  0  0  0  0  0  0  0
   -2.0803   -1.1842   -0.0070 H   0  0  0  0  0  0  0  0  0  0  0  0
    0.0009   -1.4081    0.0027 C   0  0  0  0  0  0  0  0  0  0  0  0
   -0.0120   -2.4032    0.0062 H   0  0  0  0  0  0  0  0  0  0  0  0
    1.1996   -0.7146    0.0000 C   0  0  0  0  0  0  0  0  0  0  0  0
    2.0839   -1.2011    0.0001 H   0  0  0  0  0  0  0  0  0  0  0  0
    1.1966    0.6979   -0.0010 C   0  0  0  0  0  0  0  0  0  0  0  0
    2.0664    1.1845    0.0049 H   0  0  0  0  0  0  0  0  0  0  0  0
  1  5  1  0
  5  8  1  0
  1  2  1  0
  1  3  1  0
  1  4  1  0
  5  6  1  0
  5  7  1  0
  8  9  1  0
  8 10  1  0
  8 11  1  0
 12 16  1  0
 16 17  2  0
 17 19  1  0
 19 21  2  0
 21 23  1  0
 23 25  2  0
 25 16  1  0
 12 13  1  0
 12 14  1  0
 12 15  1  0
 17 18  1  0
 19 20  1  0
 21 22  1  0
 23 24  1  0
 25 26  1  0
M  CHG  1   8   1
M  END
>  <PDB_ID>  (2694) 
pdb4xdi

>  <RESIDUE_NAME>  (2694) 
LYS   PHE

>  <FRAG_NAME>  (2694) 
ETAM   MBZ

>  <FRAG_ATOM_NUM>  (2694) 
fragi: 11  fragj: 15

>  <atom.prop.CHAIN_ID>  (2694) 
A A A A A A A A A A A Z Z Z Z Z Z Z Z Z Z Z Z Z Z Z

>  <atom.prop.IS_HEAVY_ATOM>  (2694) 
1 0 0 0 1 0 0 1 0 0 0 1 0 0 0 1 1 0 1 0 1 0 1 0 1 0

>  <DIFUSE_FUNC_ATOM>  (2694) 
n/a

>  <FINAL_SINGLE_POINT_ENERGY>  (2694) 
0

>  <NONCOV_INTER_ENERGY_QM>  (2694) 
0

>  <FF_Energy>  (2694) 
-2.86

>  <QM_Energy>  (2694) 
-9.4

>  <source>  (2694) 
ETAM_MBZ

>  <Index>  (2694) 
28906

$$$$
ETAM-pdb4xfe-A-LYS-294:MBZ-pdb4xfe-A-PHE-107
     RDKit          3D

 26 25  0  0  0  0  0  0  0  0999 V2000
   -5.0384   -2.5842    1.5812 C   0  0  0  0  0  0  0  0  0  0  0  0
   -5.6950   -3.0422    1.0335 H   0  0  0  0  0  0  0  0  0  0  0  0
   -5.4761   -2.0271    2.2433 H   0  0  0  0  0  0  0  0  0  0  0  0
   -4.4041   -3.3166    2.0805 H   0  0  0  0  0  0  0  0  0  0  0  0
   -4.2176   -1.7204    0.7068 C   0  0  0  0  0  0  0  0  0  0  0  0
   -4.4650   -0.7924    0.8459 H   0  0  0  0  0  0  0  0  0  0  0  0
   -3.2780   -1.8541    0.9098 H   0  0  0  0  0  0  0  0  0  0  0  0
   -4.4401   -2.0524   -0.7022 N   0  0  0  0  0  4  0  0  0  0  0  0
   -4.2183   -2.9013   -0.8524 H   0  0  0  0  0  0  0  0  0  0  0  0
   -5.2977   -1.9355   -0.9097 H   0  0  0  0  0  0  0  0  0  0  0  0
   -3.9420   -1.5273   -1.2205 H   0  0  0  0  0  0  0  0  0  0  0  0
    0.0042    2.9003   -0.0073 C   0  0  0  0  0  0  0  0  0  0  0  0
    0.8995    3.1947    0.2222 H   0  0  0  0  0  0  0  0  0  0  0  0
   -0.6231    3.1997    0.6702 H   0  0  0  0  0  0  0  0  0  0  0  0
   -0.2758    3.3412   -0.9640 H   0  0  0  0  0  0  0  0  0  0  0  0
    0.0008    1.3970   -0.0013 C   0  0  0  0  0  0  0  0  0  0  0  0
   -1.1908    0.6949    0.0073 C   0  0  0  0  0  0  0  0  0  0  0  0
   -1.9967    1.1574    0.0051 H   0  0  0  0  0  0  0  0  0  0  0  0
   -1.1940   -0.6913    0.0000 C   0  0  0  0  0  0  0  0  0  0  0  0
   -2.0009   -1.1537    0.0075 H   0  0  0  0  0  0  0  0  0  0  0  0
    0.0022   -1.3908    0.0003 C   0  0  0  0  0  0  0  0  0  0  0  0
    0.0005   -2.3202    0.0024 H   0  0  0  0  0  0  0  0  0  0  0  0
    1.1940   -0.7000    0.0000 C   0  0  0  0  0  0  0  0  0  0  0  0
    2.0010   -1.1639   -0.0049 H   0  0  0  0  0  0  0  0  0  0  0  0
    1.1878    0.6903   -0.0063 C   0  0  0  0  0  0  0  0  0  0  0  0
    1.9955    1.1516   -0.0086 H   0  0  0  0  0  0  0  0  0  0  0  0
  1  5  1  0
  5  8  1  0
  1  2  1  0
  1  3  1  0
  1  4  1  0
  5  6  1  0
  5  7  1  0
  8  9  1  0
  8 10  1  0
  8 11  1  0
 12 16  1  0
 16 17  2  0
 17 19  1  0
 19 21  2  0
 21 23  1  0
 23 25  2  0
 25 16  1  0
 12 13  1  0
 12 14  1  0
 12 15  1  0
 17 18  1  0
 19 20  1  0
 21 22  1  0
 23 24  1  0
 25 26  1  0
M  CHG  1   8   1
M  END
>  <PDB_ID>  (2695) 
pdb4xfe

>  <RESIDUE_NAME>  (2695) 
LYS   PHE

>  <FRAG_NAME>  (2695) 
ETAM   MBZ

>  <FRAG_ATOM_NUM>  (2695) 
fragi: 11  fragj: 15

>  <atom.prop.CHAIN_ID>  (2695) 
A A A A A A A A A A A Z Z Z Z Z Z Z Z Z Z Z Z Z Z Z

>  <atom.prop.IS_HEAVY_ATOM>  (2695) 
1 0 0 0 1 0 0 1 0 0 0 1 0 0 0 1 1 0 1 0 1 0 1 0 1 0

>  <DIFUSE_FUNC_ATOM>  (2695) 
n/a

>  <FINAL_SINGLE_POINT_ENERGY>  (2695) 
0

>  <NONCOV_INTER_ENERGY_QM>  (2695) 
0

>  <FF_Energy>  (2695) 
10.09

>  <QM_Energy>  (2695) 
-0.87

>  <source>  (2695) 
ETAM_MBZ

>  <Index>  (2695) 
28963

$$$$
ETAM-pdb3vz0-A-LYS-77:MBZ-pdb3vz0-A-PHE-134
     RDKit          3D

 26 25  0  0  0  0  0  0  0  0999 V2000
   -3.7839   -0.0545   -4.7666 C   0  0  0  0  0  0  0  0  0  0  0  0
   -4.4509    0.6857   -4.7731 H   0  0  0  0  0  0  0  0  0  0  0  0
   -4.0118   -0.7138   -4.0550 H   0  0  0  0  0  0  0  0  0  0  0  0
   -3.8361   -0.5637   -5.7289 H   0  0  0  0  0  0  0  0  0  0  0  0
   -2.4122    0.5153   -4.4944 C   0  0  0  0  0  0  0  0  0  0  0  0
   -1.7163   -0.1337   -4.8318 H   0  0  0  0  0  0  0  0  0  0  0  0
   -2.3079    1.3782   -5.0087 H   0  0  0  0  0  0  0  0  0  0  0  0
   -2.1798    0.7750   -3.0592 N   0  0  0  0  0  4  0  0  0  0  0  0
   -3.0571    0.8934   -2.5915 H   0  0  0  0  0  0  0  0  0  0  0  0
   -1.6900    0.0024   -2.6518 H   0  0  0  0  0  0  0  0  0  0  0  0
   -1.6326    1.6067   -2.9516 H   0  0  0  0  0  0  0  0  0  0  0  0
    0.0228    2.9290   -0.0054 C   0  0  0  0  0  0  0  0  0  0  0  0
    0.8614    3.2187    0.4369 H   0  0  0  0  0  0  0  0  0  0  0  0
   -0.7706    3.2363    0.5027 H   0  0  0  0  0  0  0  0  0  0  0  0
   -0.0126    3.3882   -0.9934 H   0  0  0  0  0  0  0  0  0  0  0  0
    0.0062    1.4159   -0.0135 C   0  0  0  0  0  0  0  0  0  0  0  0
   -1.1993    0.7176    0.0070 C   0  0  0  0  0  0  0  0  0  0  0  0
   -2.0621    1.1997    0.0249 H   0  0  0  0  0  0  0  0  0  0  0  0
   -1.2110   -0.7014    0.0000 C   0  0  0  0  0  0  0  0  0  0  0  0
   -2.0919   -1.1784   -0.0053 H   0  0  0  0  0  0  0  0  0  0  0  0
   -0.0091   -1.4127    0.0021 C   0  0  0  0  0  0  0  0  0  0  0  0
   -0.0141   -2.4043    0.0048 H   0  0  0  0  0  0  0  0  0  0  0  0
    1.2110   -0.7108   -0.0000 C   0  0  0  0  0  0  0  0  0  0  0  0
    2.0840   -1.2081   -0.0028 H   0  0  0  0  0  0  0  0  0  0  0  0
    1.2021    0.6915    0.0043 C   0  0  0  0  0  0  0  0  0  0  0  0
    2.0743    1.1847    0.0200 H   0  0  0  0  0  0  0  0  0  0  0  0
  1  5  1  0
  5  8  1  0
  1  2  1  0
  1  3  1  0
  1  4  1  0
  5  6  1  0
  5  7  1  0
  8  9  1  0
  8 10  1  0
  8 11  1  0
 12 16  1  0
 16 17  2  0
 17 19  1  0
 19 21  2  0
 21 23  1  0
 23 25  2  0
 25 16  1  0
 12 13  1  0
 12 14  1  0
 12 15  1  0
 17 18  1  0
 19 20  1  0
 21 22  1  0
 23 24  1  0
 25 26  1  0
M  CHG  1   8   1
M  END
>  <PDB_ID>  (2696) 
pdb3vz0

>  <RESIDUE_NAME>  (2696) 
LYS   PHE

>  <FRAG_NAME>  (2696) 
ETAM   MBZ

>  <FRAG_ATOM_NUM>  (2696) 
fragi: 11  fragj: 15

>  <atom.prop.CHAIN_ID>  (2696) 
A A A A A A A A A A A Z Z Z Z Z Z Z Z Z Z Z Z Z Z Z

>  <atom.prop.IS_HEAVY_ATOM>  (2696) 
1 0 0 0 1 0 0 1 0 0 0 1 0 0 0 1 1 0 1 0 1 0 1 0 1 0

>  <DIFUSE_FUNC_ATOM>  (2696) 
n/a

>  <FINAL_SINGLE_POINT_ENERGY>  (2696) 
0

>  <NONCOV_INTER_ENERGY_QM>  (2696) 
0

>  <FF_Energy>  (2696) 
-4.84

>  <QM_Energy>  (2696) 
-10.87

>  <source>  (2696) 
ETAM_MBZ

>  <Index>  (2696) 
28966

$$$$
ETAM-pdb4xfw-B-LYS-223:MBZ-pdb4xfw-B-PHE-82
     RDKit          3D

 26 25  0  0  0  0  0  0  0  0999 V2000
   -0.7123   -1.4549   -4.5491 C   0  0  0  0  0  0  0  0  0  0  0  0
   -0.2007   -1.9615   -5.2328 H   0  0  0  0  0  0  0  0  0  0  0  0
   -1.5598   -1.1074   -4.9329 H   0  0  0  0  0  0  0  0  0  0  0  0
   -0.9458   -2.1201   -3.7178 H   0  0  0  0  0  0  0  0  0  0  0  0
    0.1270   -0.2818   -4.0834 C   0  0  0  0  0  0  0  0  0  0  0  0
    0.3990    0.2603   -4.8757 H   0  0  0  0  0  0  0  0  0  0  0  0
   -0.4125    0.2797   -3.4595 H   0  0  0  0  0  0  0  0  0  0  0  0
    1.3447   -0.7654   -3.3785 N   0  0  0  0  0  4  0  0  0  0  0  0
    2.0261   -1.0518   -4.0518 H   0  0  0  0  0  0  0  0  0  0  0  0
    1.7187   -0.0276   -2.8177 H   0  0  0  0  0  0  0  0  0  0  0  0
    1.1044   -1.5400   -2.7949 H   0  0  0  0  0  0  0  0  0  0  0  0
    0.0091    2.8975    0.0001 C   0  0  0  0  0  0  0  0  0  0  0  0
   -0.7946    3.2088   -0.4859 H   0  0  0  0  0  0  0  0  0  0  0  0
    0.8376    3.2001   -0.4473 H   0  0  0  0  0  0  0  0  0  0  0  0
   -0.0119    3.3445    0.9941 H   0  0  0  0  0  0  0  0  0  0  0  0
    0.0018    1.3987    0.0061 C   0  0  0  0  0  0  0  0  0  0  0  0
   -1.1932    0.6946   -0.0005 C   0  0  0  0  0  0  0  0  0  0  0  0
   -2.0600    1.1813   -0.0064 H   0  0  0  0  0  0  0  0  0  0  0  0
   -1.1945   -0.6990    0.0000 C   0  0  0  0  0  0  0  0  0  0  0  0
   -2.0743   -1.1901    0.0038 H   0  0  0  0  0  0  0  0  0  0  0  0
   -0.0004   -1.3875   -0.0029 C   0  0  0  0  0  0  0  0  0  0  0  0
   -0.0025   -2.3904   -0.0077 H   0  0  0  0  0  0  0  0  0  0  0  0
    1.1945   -0.6955    0.0000 C   0  0  0  0  0  0  0  0  0  0  0  0
    2.0780   -1.1945    0.0058 H   0  0  0  0  0  0  0  0  0  0  0  0
    1.1919    0.6886   -0.0027 C   0  0  0  0  0  0  0  0  0  0  0  0
    2.0635    1.1848   -0.0116 H   0  0  0  0  0  0  0  0  0  0  0  0
  1  5  1  0
  5  8  1  0
  1  2  1  0
  1  3  1  0
  1  4  1  0
  5  6  1  0
  5  7  1  0
  8  9  1  0
  8 10  1  0
  8 11  1  0
 12 16  1  0
 16 17  2  0
 17 19  1  0
 19 21  2  0
 21 23  1  0
 23 25  2  0
 25 16  1  0
 12 13  1  0
 12 14  1  0
 12 15  1  0
 17 18  1  0
 19 20  1  0
 21 22  1  0
 23 24  1  0
 25 26  1  0
M  CHG  1   8   1
M  END
>  <PDB_ID>  (2697) 
pdb4xfw

>  <RESIDUE_NAME>  (2697) 
LYS   PHE

>  <FRAG_NAME>  (2697) 
ETAM   MBZ

>  <FRAG_ATOM_NUM>  (2697) 
fragi: 11  fragj: 15

>  <atom.prop.CHAIN_ID>  (2697) 
A A A A A A A A A A A Z Z Z Z Z Z Z Z Z Z Z Z Z Z Z

>  <atom.prop.IS_HEAVY_ATOM>  (2697) 
1 0 0 0 1 0 0 1 0 0 0 1 0 0 0 1 1 0 1 0 1 0 1 0 1 0

>  <DIFUSE_FUNC_ATOM>  (2697) 
n/a

>  <FINAL_SINGLE_POINT_ENERGY>  (2697) 
0

>  <NONCOV_INTER_ENERGY_QM>  (2697) 
0

>  <FF_Energy>  (2697) 
-6.56

>  <QM_Energy>  (2697) 
-12.82

>  <source>  (2697) 
ETAM_MBZ

>  <Index>  (2697) 
28968

$$$$
ETAM-pdb3w6k-C-LYS-50:MBZ-pdb3w6k-C-PHE-76
     RDKit          3D

 26 25  0  0  0  0  0  0  0  0999 V2000
    0.2785   -4.7153    2.1929 C   0  0  0  0  0  0  0  0  0  0  0  0
   -0.1210   -4.0662    2.8295 H   0  0  0  0  0  0  0  0  0  0  0  0
    1.1475   -4.3797    1.8508 H   0  0  0  0  0  0  0  0  0  0  0  0
    0.4564   -5.6505    2.7238 H   0  0  0  0  0  0  0  0  0  0  0  0
   -0.6892   -4.8784    0.9902 C   0  0  0  0  0  0  0  0  0  0  0  0
   -0.3244   -4.3355    0.2212 H   0  0  0  0  0  0  0  0  0  0  0  0
   -0.6833   -5.8500    0.7140 H   0  0  0  0  0  0  0  0  0  0  0  0
   -2.0935   -4.4539    1.2722 N   0  0  0  0  0  4  0  0  0  0  0  0
   -2.6873   -4.7708    0.5347 H   0  0  0  0  0  0  0  0  0  0  0  0
   -2.3901   -4.8535    2.1377 H   0  0  0  0  0  0  0  0  0  0  0  0
   -2.1302   -3.4579    1.3304 H   0  0  0  0  0  0  0  0  0  0  0  0
    0.0037    2.9278   -0.0089 C   0  0  0  0  0  0  0  0  0  0  0  0
    0.8916    3.2351    0.2938 H   0  0  0  0  0  0  0  0  0  0  0  0
   -0.7137    3.2391    0.5929 H   0  0  0  0  0  0  0  0  0  0  0  0
   -0.1784    3.3620   -0.9919 H   0  0  0  0  0  0  0  0  0  0  0  0
    0.0018    1.4158    0.0037 C   0  0  0  0  0  0  0  0  0  0  0  0
   -1.1940    0.7068   -0.0017 C   0  0  0  0  0  0  0  0  0  0  0  0
   -2.0638    1.1891   -0.0081 H   0  0  0  0  0  0  0  0  0  0  0  0
   -1.2035   -0.7036   -0.0000 C   0  0  0  0  0  0  0  0  0  0  0  0
   -2.0852   -1.1840   -0.0003 H   0  0  0  0  0  0  0  0  0  0  0  0
   -0.0061   -1.4084    0.0036 C   0  0  0  0  0  0  0  0  0  0  0  0
   -0.0107   -2.4037    0.0074 H   0  0  0  0  0  0  0  0  0  0  0  0
    1.2035   -0.7101   -0.0000 C   0  0  0  0  0  0  0  0  0  0  0  0
    2.0825   -1.2016    0.0032 H   0  0  0  0  0  0  0  0  0  0  0  0
    1.1983    0.6995   -0.0055 C   0  0  0  0  0  0  0  0  0  0  0  0
    2.0690    1.1871   -0.0174 H   0  0  0  0  0  0  0  0  0  0  0  0
  1  5  1  0
  5  8  1  0
  1  2  1  0
  1  3  1  0
  1  4  1  0
  5  6  1  0
  5  7  1  0
  8  9  1  0
  8 10  1  0
  8 11  1  0
 12 16  1  0
 16 17  2  0
 17 19  1  0
 19 21  2  0
 21 23  1  0
 23 25  2  0
 25 16  1  0
 12 13  1  0
 12 14  1  0
 12 15  1  0
 17 18  1  0
 19 20  1  0
 21 22  1  0
 23 24  1  0
 25 26  1  0
M  CHG  1   8   1
M  END
>  <PDB_ID>  (2698) 
pdb3w6k

>  <RESIDUE_NAME>  (2698) 
LYS   PHE

>  <FRAG_NAME>  (2698) 
ETAM   MBZ

>  <FRAG_ATOM_NUM>  (2698) 
fragi: 11  fragj: 15

>  <atom.prop.CHAIN_ID>  (2698) 
A A A A A A A A A A A Z Z Z Z Z Z Z Z Z Z Z Z Z Z Z

>  <atom.prop.IS_HEAVY_ATOM>  (2698) 
1 0 0 0 1 0 0 1 0 0 0 1 0 0 0 1 1 0 1 0 1 0 1 0 1 0

>  <DIFUSE_FUNC_ATOM>  (2698) 
n/a

>  <FINAL_SINGLE_POINT_ENERGY>  (2698) 
0

>  <NONCOV_INTER_ENERGY_QM>  (2698) 
0

>  <FF_Energy>  (2698) 
1.35

>  <QM_Energy>  (2698) 
-3.83

>  <source>  (2698) 
ETAM_MBZ

>  <Index>  (2698) 
28985

$$$$
ETAM-pdb4xh0-A-LYS-155:MBZ-pdb4xh0-A-PHE-159
     RDKit          3D

 26 25  0  0  0  0  0  0  0  0999 V2000
   -0.1181   -2.0738   -3.6218 C   0  0  0  0  0  0  0  0  0  0  0  0
    0.1058   -2.3236   -2.6812 H   0  0  0  0  0  0  0  0  0  0  0  0
    0.3470   -2.6906   -4.2545 H   0  0  0  0  0  0  0  0  0  0  0  0
   -1.1940   -2.1760   -3.7625 H   0  0  0  0  0  0  0  0  0  0  0  0
    0.3650   -0.6595   -3.8774 C   0  0  0  0  0  0  0  0  0  0  0  0
    1.3610   -0.6335   -3.7880 H   0  0  0  0  0  0  0  0  0  0  0  0
    0.1085   -0.3888   -4.8055 H   0  0  0  0  0  0  0  0  0  0  0  0
   -0.2389    0.2918   -2.9068 N   0  0  0  0  0  4  0  0  0  0  0  0
   -1.1695   -0.0020   -2.6895 H   0  0  0  0  0  0  0  0  0  0  0  0
    0.3108    0.3074   -2.0714 H   0  0  0  0  0  0  0  0  0  0  0  0
   -0.2620    1.2071   -3.3093 H   0  0  0  0  0  0  0  0  0  0  0  0
   -0.0007    2.9299    0.0067 C   0  0  0  0  0  0  0  0  0  0  0  0
    0.8775    3.2315   -0.3269 H   0  0  0  0  0  0  0  0  0  0  0  0
   -0.1604    3.2281    0.9336 H   0  0  0  0  0  0  0  0  0  0  0  0
   -0.7695    3.3744   -0.6252 H   0  0  0  0  0  0  0  0  0  0  0  0
   -0.0007    1.4096    0.0028 C   0  0  0  0  0  0  0  0  0  0  0  0
   -1.1981    0.6988   -0.0016 C   0  0  0  0  0  0  0  0  0  0  0  0
   -2.0653    1.1872   -0.0074 H   0  0  0  0  0  0  0  0  0  0  0  0
   -1.2027   -0.6955   -0.0000 C   0  0  0  0  0  0  0  0  0  0  0  0
   -2.0789   -1.1896    0.0046 H   0  0  0  0  0  0  0  0  0  0  0  0
    0.0032   -1.4035   -0.0031 C   0  0  0  0  0  0  0  0  0  0  0  0
   -0.0070   -2.3975   -0.0083 H   0  0  0  0  0  0  0  0  0  0  0  0
    1.2027   -0.7050   -0.0000 C   0  0  0  0  0  0  0  0  0  0  0  0
    2.0857   -1.1958    0.0022 H   0  0  0  0  0  0  0  0  0  0  0  0
    1.1957    0.6956    0.0020 C   0  0  0  0  0  0  0  0  0  0  0  0
    2.0660    1.1887    0.0020 H   0  0  0  0  0  0  0  0  0  0  0  0
  1  5  1  0
  5  8  1  0
  1  2  1  0
  1  3  1  0
  1  4  1  0
  5  6  1  0
  5  7  1  0
  8  9  1  0
  8 10  1  0
  8 11  1  0
 12 16  1  0
 16 17  2  0
 17 19  1  0
 19 21  2  0
 21 23  1  0
 23 25  2  0
 25 16  1  0
 12 13  1  0
 12 14  1  0
 12 15  1  0
 17 18  1  0
 19 20  1  0
 21 22  1  0
 23 24  1  0
 25 26  1  0
M  CHG  1   8   1
M  END
>  <PDB_ID>  (2699) 
pdb4xh0

>  <RESIDUE_NAME>  (2699) 
LYS   PHE

>  <FRAG_NAME>  (2699) 
ETAM   MBZ

>  <FRAG_ATOM_NUM>  (2699) 
fragi: 11  fragj: 15

>  <atom.prop.CHAIN_ID>  (2699) 
A A A A A A A A A A A Z Z Z Z Z Z Z Z Z Z Z Z Z Z Z

>  <atom.prop.IS_HEAVY_ATOM>  (2699) 
1 0 0 0 1 0 0 1 0 0 0 1 0 0 0 1 1 0 1 0 1 0 1 0 1 0

>  <DIFUSE_FUNC_ATOM>  (2699) 
n/a

>  <FINAL_SINGLE_POINT_ENERGY>  (2699) 
0

>  <NONCOV_INTER_ENERGY_QM>  (2699) 
0

>  <FF_Energy>  (2699) 
-9.63

>  <QM_Energy>  (2699) 
-18.72

>  <source>  (2699) 
ETAM_MBZ

>  <Index>  (2699) 
28986

$$$$
ETAM-pdb4xg1-A-LYS-139:MBZ-pdb4xg1-A-PHE-191
     RDKit          3D

 26 25  0  0  0  0  0  0  0  0999 V2000
    3.7137   -0.1802    3.6003 C   0  0  0  0  0  0  0  0  0  0  0  0
    3.8474    0.1935    4.5205 H   0  0  0  0  0  0  0  0  0  0  0  0
    4.1157   -1.0971    3.5571 H   0  0  0  0  0  0  0  0  0  0  0  0
    2.6454   -0.2477    3.3950 H   0  0  0  0  0  0  0  0  0  0  0  0
    4.4491    0.7090    2.6134 C   0  0  0  0  0  0  0  0  0  0  0  0
    3.9743    1.5919    2.5523 H   0  0  0  0  0  0  0  0  0  0  0  0
    5.3822    0.8670    2.9492 H   0  0  0  0  0  0  0  0  0  0  0  0
    4.5175    0.0985    1.2567 N   0  0  0  0  0  4  0  0  0  0  0  0
    3.6621    0.2751    0.7710 H   0  0  0  0  0  0  0  0  0  0  0  0
    5.2795    0.5010    0.7511 H   0  0  0  0  0  0  0  0  0  0  0  0
    4.6564   -0.8876    1.3435 H   0  0  0  0  0  0  0  0  0  0  0  0
   -0.0055    2.8970   -0.0628 C   0  0  0  0  0  0  0  0  0  0  0  0
    0.8642    3.2210    0.2598 H   0  0  0  0  0  0  0  0  0  0  0  0
   -0.7538    3.2285    0.4806 H   0  0  0  0  0  0  0  0  0  0  0  0
   -0.1433    3.2650   -1.0795 H   0  0  0  0  0  0  0  0  0  0  0  0
   -0.0024    1.3950    0.0083 C   0  0  0  0  0  0  0  0  0  0  0  0
   -1.1899    0.6786   -0.0137 C   0  0  0  0  0  0  0  0  0  0  0  0
   -2.0614    1.1730   -0.0414 H   0  0  0  0  0  0  0  0  0  0  0  0
   -1.1976   -0.6995    0.0000 C   0  0  0  0  0  0  0  0  0  0  0  0
   -2.0740   -1.1954    0.0017 H   0  0  0  0  0  0  0  0  0  0  0  0
   -0.0024   -1.3817    0.0132 C   0  0  0  0  0  0  0  0  0  0  0  0
    0.0007   -2.3861    0.0315 H   0  0  0  0  0  0  0  0  0  0  0  0
    1.1976   -0.6895    0.0000 C   0  0  0  0  0  0  0  0  0  0  0  0
    2.0782   -1.1896   -0.0022 H   0  0  0  0  0  0  0  0  0  0  0  0
    1.1947    0.6971   -0.0078 C   0  0  0  0  0  0  0  0  0  0  0  0
    2.0598    1.1947   -0.0260 H   0  0  0  0  0  0  0  0  0  0  0  0
  1  5  1  0
  5  8  1  0
  1  2  1  0
  1  3  1  0
  1  4  1  0
  5  6  1  0
  5  7  1  0
  8  9  1  0
  8 10  1  0
  8 11  1  0
 12 16  1  0
 16 17  2  0
 17 19  1  0
 19 21  2  0
 21 23  1  0
 23 25  2  0
 25 16  1  0
 12 13  1  0
 12 14  1  0
 12 15  1  0
 17 18  1  0
 19 20  1  0
 21 22  1  0
 23 24  1  0
 25 26  1  0
M  CHG  1   8   1
M  END
>  <PDB_ID>  (2700) 
pdb4xg1

>  <RESIDUE_NAME>  (2700) 
LYS   PHE

>  <FRAG_NAME>  (2700) 
ETAM   MBZ

>  <FRAG_ATOM_NUM>  (2700) 
fragi: 11  fragj: 15

>  <atom.prop.CHAIN_ID>  (2700) 
A A A A A A A A A A A Z Z Z Z Z Z Z Z Z Z Z Z Z Z Z

>  <atom.prop.IS_HEAVY_ATOM>  (2700) 
1 0 0 0 1 0 0 1 0 0 0 1 0 0 0 1 1 0 1 0 1 0 1 0 1 0

>  <DIFUSE_FUNC_ATOM>  (2700) 
n/a

>  <FINAL_SINGLE_POINT_ENERGY>  (2700) 
0

>  <NONCOV_INTER_ENERGY_QM>  (2700) 
0

>  <FF_Energy>  (2700) 
-0.09

>  <QM_Energy>  (2700) 
-5.39

>  <source>  (2700) 
ETAM_MBZ

>  <Index>  (2700) 
28988

$$$$
ETAM-pdb3wa1-A-LYS-40:MBZ-pdb3wa1-A-PHE-196
     RDKit          3D

 26 25  0  0  0  0  0  0  0  0999 V2000
    1.6089    0.0764    3.4792 C   0  0  0  0  0  0  0  0  0  0  0  0
    1.2571    0.3006    4.3558 H   0  0  0  0  0  0  0  0  0  0  0  0
    1.0321    0.3240    2.7384 H   0  0  0  0  0  0  0  0  0  0  0  0
    2.5678    0.5793    3.3541 H   0  0  0  0  0  0  0  0  0  0  0  0
    1.9012   -1.4102    3.4172 C   0  0  0  0  0  0  0  0  0  0  0  0
    2.3101   -1.6295    2.5689 H   0  0  0  0  0  0  0  0  0  0  0  0
    2.4041   -1.6797    4.1984 H   0  0  0  0  0  0  0  0  0  0  0  0
    0.5251   -2.0310    3.4770 N   0  0  0  0  0  4  0  0  0  0  0  0
    0.2820   -2.3594    2.5691 H   0  0  0  0  0  0  0  0  0  0  0  0
    0.5432   -2.7892    4.1233 H   0  0  0  0  0  0  0  0  0  0  0  0
   -0.1253   -1.3393    3.7770 H   0  0  0  0  0  0  0  0  0  0  0  0
   -0.0062    2.9022   -0.1008 C   0  0  0  0  0  0  0  0  0  0  0  0
    0.8424    3.2230    0.3002 H   0  0  0  0  0  0  0  0  0  0  0  0
   -0.7858    3.2272    0.4208 H   0  0  0  0  0  0  0  0  0  0  0  0
   -0.0790    3.3422   -1.0954 H   0  0  0  0  0  0  0  0  0  0  0  0
   -0.0077    1.4057   -0.0693 C   0  0  0  0  0  0  0  0  0  0  0  0
   -1.2300    0.6744   -0.0133 C   0  0  0  0  0  0  0  0  0  0  0  0
   -2.0851    1.1611    0.0146 H   0  0  0  0  0  0  0  0  0  0  0  0
   -1.2158   -0.7275   -0.0000 C   0  0  0  0  0  0  0  0  0  0  0  0
   -2.0609   -1.2410   -0.0350 H   0  0  0  0  0  0  0  0  0  0  0  0
    0.0310   -1.3864    0.0665 C   0  0  0  0  0  0  0  0  0  0  0  0
    0.0402   -2.3861    0.1631 H   0  0  0  0  0  0  0  0  0  0  0  0
    1.2158   -0.6776   -0.0000 C   0  0  0  0  0  0  0  0  0  0  0  0
    2.1045   -1.1684   -0.0598 H   0  0  0  0  0  0  0  0  0  0  0  0
    1.2068    0.7112    0.0162 C   0  0  0  0  0  0  0  0  0  0  0  0
    2.0585    1.2173    0.0870 H   0  0  0  0  0  0  0  0  0  0  0  0
  1  5  1  0
  5  8  1  0
  1  2  1  0
  1  3  1  0
  1  4  1  0
  5  6  1  0
  5  7  1  0
  8  9  1  0
  8 10  1  0
  8 11  1  0
 12 16  1  0
 16 17  2  0
 17 19  1  0
 19 21  2  0
 21 23  1  0
 23 25  2  0
 25 16  1  0
 12 13  1  0
 12 14  1  0
 12 15  1  0
 17 18  1  0
 19 20  1  0
 21 22  1  0
 23 24  1  0
 25 26  1  0
M  CHG  1   8   1
M  END
>  <PDB_ID>  (2701) 
pdb3wa1

>  <RESIDUE_NAME>  (2701) 
LYS   PHE

>  <FRAG_NAME>  (2701) 
ETAM   MBZ

>  <FRAG_ATOM_NUM>  (2701) 
fragi: 11  fragj: 15

>  <atom.prop.CHAIN_ID>  (2701) 
A A A A A A A A A A A Z Z Z Z Z Z Z Z Z Z Z Z Z Z Z

>  <atom.prop.IS_HEAVY_ATOM>  (2701) 
1 0 0 0 1 0 0 1 0 0 0 1 0 0 0 1 1 0 1 0 1 0 1 0 1 0

>  <DIFUSE_FUNC_ATOM>  (2701) 
n/a

>  <FINAL_SINGLE_POINT_ENERGY>  (2701) 
0

>  <NONCOV_INTER_ENERGY_QM>  (2701) 
0

>  <FF_Energy>  (2701) 
-4.84

>  <QM_Energy>  (2701) 
-11.8

>  <source>  (2701) 
ETAM_MBZ

>  <Index>  (2701) 
29006

$$$$
ETAM-pdb3wdk-A-LYS-65:MBZ-pdb3wdk-A-PHE-176
     RDKit          3D

 26 25  0  0  0  0  0  0  0  0999 V2000
   -0.8975   -0.8527    3.8052 C   0  0  0  0  0  0  0  0  0  0  0  0
   -0.8536   -0.9818    4.7922 H   0  0  0  0  0  0  0  0  0  0  0  0
   -0.6355   -1.6912    3.3367 H   0  0  0  0  0  0  0  0  0  0  0  0
   -1.9181   -0.5913    3.5255 H   0  0  0  0  0  0  0  0  0  0  0  0
    0.0868    0.2417    3.4181 C   0  0  0  0  0  0  0  0  0  0  0  0
   -0.0289    0.4529    2.4487 H   0  0  0  0  0  0  0  0  0  0  0  0
   -0.1054    1.0570    3.9631 H   0  0  0  0  0  0  0  0  0  0  0  0
    1.4828   -0.1978    3.6629 N   0  0  0  0  0  4  0  0  0  0  0  0
    1.8482    0.2816    4.4611 H   0  0  0  0  0  0  0  0  0  0  0  0
    1.4976   -1.1841    3.8307 H   0  0  0  0  0  0  0  0  0  0  0  0
    2.0440    0.0122    2.8623 H   0  0  0  0  0  0  0  0  0  0  0  0
    0.0031    2.9124   -0.0356 C   0  0  0  0  0  0  0  0  0  0  0  0
    0.8502    3.2260    0.3637 H   0  0  0  0  0  0  0  0  0  0  0  0
   -0.7788    3.2316    0.4762 H   0  0  0  0  0  0  0  0  0  0  0  0
   -0.0654    3.3244   -1.0424 H   0  0  0  0  0  0  0  0  0  0  0  0
    0.0004    1.4091    0.0000 C   0  0  0  0  0  0  0  0  0  0  0  0
   -1.2010    0.6978    0.0002 C   0  0  0  0  0  0  0  0  0  0  0  0
   -2.0663    1.1853   -0.0009 H   0  0  0  0  0  0  0  0  0  0  0  0
   -1.2085   -0.7041    0.0000 C   0  0  0  0  0  0  0  0  0  0  0  0
   -2.0815   -1.1946    0.0014 H   0  0  0  0  0  0  0  0  0  0  0  0
    0.0024   -1.4043   -0.0008 C   0  0  0  0  0  0  0  0  0  0  0  0
    0.0003   -2.3987   -0.0023 H   0  0  0  0  0  0  0  0  0  0  0  0
    1.2085   -0.6991   -0.0000 C   0  0  0  0  0  0  0  0  0  0  0  0
    2.0886   -1.1922    0.0016 H   0  0  0  0  0  0  0  0  0  0  0  0
    1.1981    0.7006    0.0006 C   0  0  0  0  0  0  0  0  0  0  0  0
    2.0670    1.1957    0.0008 H   0  0  0  0  0  0  0  0  0  0  0  0
  1  5  1  0
  5  8  1  0
  1  2  1  0
  1  3  1  0
  1  4  1  0
  5  6  1  0
  5  7  1  0
  8  9  1  0
  8 10  1  0
  8 11  1  0
 12 16  1  0
 16 17  2  0
 17 19  1  0
 19 21  2  0
 21 23  1  0
 23 25  2  0
 25 16  1  0
 12 13  1  0
 12 14  1  0
 12 15  1  0
 17 18  1  0
 19 20  1  0
 21 22  1  0
 23 24  1  0
 25 26  1  0
M  CHG  1   8   1
M  END
>  <PDB_ID>  (2702) 
pdb3wdk

>  <RESIDUE_NAME>  (2702) 
LYS   PHE

>  <FRAG_NAME>  (2702) 
ETAM   MBZ

>  <FRAG_ATOM_NUM>  (2702) 
fragi: 11  fragj: 15

>  <atom.prop.CHAIN_ID>  (2702) 
A A A A A A A A A A A Z Z Z Z Z Z Z Z Z Z Z Z Z Z Z

>  <atom.prop.IS_HEAVY_ATOM>  (2702) 
1 0 0 0 1 0 0 1 0 0 0 1 0 0 0 1 1 0 1 0 1 0 1 0 1 0

>  <DIFUSE_FUNC_ATOM>  (2702) 
n/a

>  <FINAL_SINGLE_POINT_ENERGY>  (2702) 
0

>  <NONCOV_INTER_ENERGY_QM>  (2702) 
0

>  <FF_Energy>  (2702) 
-6.05

>  <QM_Energy>  (2702) 
-13.02

>  <source>  (2702) 
ETAM_MBZ

>  <Index>  (2702) 
29011

$$$$
ETAM-pdb3wdf-A-LYS-25:MBZ-pdb3wdf-A-PHE-22
     RDKit          3D

 26 25  0  0  0  0  0  0  0  0999 V2000
   -4.2573    1.5338    3.8897 C   0  0  0  0  0  0  0  0  0  0  0  0
   -5.2445    1.4021    3.8914 H   0  0  0  0  0  0  0  0  0  0  0  0
   -3.9861    2.0877    3.1083 H   0  0  0  0  0  0  0  0  0  0  0  0
   -3.9820    2.0666    4.7999 H   0  0  0  0  0  0  0  0  0  0  0  0
   -3.5799    0.1598    3.7742 C   0  0  0  0  0  0  0  0  0  0  0  0
   -2.5927    0.2789    3.8847 H   0  0  0  0  0  0  0  0  0  0  0  0
   -3.9258   -0.4308    4.5046 H   0  0  0  0  0  0  0  0  0  0  0  0
   -3.8528   -0.4861    2.4494 N   0  0  0  0  0  4  0  0  0  0  0  0
   -3.2727   -0.0640    1.7552 H   0  0  0  0  0  0  0  0  0  0  0  0
   -3.6494   -1.4609    2.5132 H   0  0  0  0  0  0  0  0  0  0  0  0
   -4.8141   -0.3552    2.2143 H   0  0  0  0  0  0  0  0  0  0  0  0
    0.0243    2.9280   -0.0166 C   0  0  0  0  0  0  0  0  0  0  0  0
   -0.7117    3.2364   -0.6017 H   0  0  0  0  0  0  0  0  0  0  0  0
    0.9045    3.2171   -0.3650 H   0  0  0  0  0  0  0  0  0  0  0  0
   -0.1132    3.3926    0.9598 H   0  0  0  0  0  0  0  0  0  0  0  0
    0.0041    1.4148   -0.0018 C   0  0  0  0  0  0  0  0  0  0  0  0
   -1.2026    0.7137   -0.0058 C   0  0  0  0  0  0  0  0  0  0  0  0
   -2.0646    1.1958   -0.0136 H   0  0  0  0  0  0  0  0  0  0  0  0
   -1.2087   -0.7013    0.0000 C   0  0  0  0  0  0  0  0  0  0  0  0
   -2.0850   -1.1859    0.0037 H   0  0  0  0  0  0  0  0  0  0  0  0
    0.0007   -1.4079    0.0027 C   0  0  0  0  0  0  0  0  0  0  0  0
   -0.0088   -2.4027    0.0060 H   0  0  0  0  0  0  0  0  0  0  0  0
    1.2087   -0.7112   -0.0000 C   0  0  0  0  0  0  0  0  0  0  0  0
    2.0871   -1.2028   -0.0034 H   0  0  0  0  0  0  0  0  0  0  0  0
    1.1979    0.6918    0.0049 C   0  0  0  0  0  0  0  0  0  0  0  0
    2.0721    1.1842    0.0133 H   0  0  0  0  0  0  0  0  0  0  0  0
  1  5  1  0
  5  8  1  0
  1  2  1  0
  1  3  1  0
  1  4  1  0
  5  6  1  0
  5  7  1  0
  8  9  1  0
  8 10  1  0
  8 11  1  0
 12 16  1  0
 16 17  2  0
 17 19  1  0
 19 21  2  0
 21 23  1  0
 23 25  2  0
 25 16  1  0
 12 13  1  0
 12 14  1  0
 12 15  1  0
 17 18  1  0
 19 20  1  0
 21 22  1  0
 23 24  1  0
 25 26  1  0
M  CHG  1   8   1
M  END
>  <PDB_ID>  (2703) 
pdb3wdf

>  <RESIDUE_NAME>  (2703) 
LYS   PHE

>  <FRAG_NAME>  (2703) 
ETAM   MBZ

>  <FRAG_ATOM_NUM>  (2703) 
fragi: 11  fragj: 15

>  <atom.prop.CHAIN_ID>  (2703) 
A A A A A A A A A A A Z Z Z Z Z Z Z Z Z Z Z Z Z Z Z

>  <atom.prop.IS_HEAVY_ATOM>  (2703) 
1 0 0 0 1 0 0 1 0 0 0 1 0 0 0 1 1 0 1 0 1 0 1 0 1 0

>  <DIFUSE_FUNC_ATOM>  (2703) 
n/a

>  <FINAL_SINGLE_POINT_ENERGY>  (2703) 
0

>  <NONCOV_INTER_ENERGY_QM>  (2703) 
0

>  <FF_Energy>  (2703) 
-1.41

>  <QM_Energy>  (2703) 
-6.83

>  <source>  (2703) 
ETAM_MBZ

>  <Index>  (2703) 
29012

$$$$
ETAM-pdb3wdk-B-LYS-65:MBZ-pdb3wdk-B-PHE-176
     RDKit          3D

 26 25  0  0  0  0  0  0  0  0999 V2000
   -0.3297   -0.6662    4.0490 C   0  0  0  0  0  0  0  0  0  0  0  0
   -0.2930   -0.4073    5.0035 H   0  0  0  0  0  0  0  0  0  0  0  0
   -0.0181   -1.5961    3.9185 H   0  0  0  0  0  0  0  0  0  0  0  0
   -1.3590   -0.5838    3.6999 H   0  0  0  0  0  0  0  0  0  0  0  0
    0.5643    0.2641    3.2550 C   0  0  0  0  0  0  0  0  0  0  0  0
    0.4119    0.1024    2.2731 H   0  0  0  0  0  0  0  0  0  0  0  0
    0.3104    1.2161    3.4626 H   0  0  0  0  0  0  0  0  0  0  0  0
    1.9967    0.0635    3.5657 N   0  0  0  0  0  4  0  0  0  0  0  0
    2.1811    0.3559    4.5052 H   0  0  0  0  0  0  0  0  0  0  0  0
    2.2289   -0.9049    3.4693 H   0  0  0  0  0  0  0  0  0  0  0  0
    2.5564    0.6026    2.9351 H   0  0  0  0  0  0  0  0  0  0  0  0
    0.0086    2.9139   -0.0096 C   0  0  0  0  0  0  0  0  0  0  0  0
    0.8883    3.2167    0.3206 H   0  0  0  0  0  0  0  0  0  0  0  0
   -0.7244    3.2268    0.5735 H   0  0  0  0  0  0  0  0  0  0  0  0
   -0.1441    3.3456   -0.9988 H   0  0  0  0  0  0  0  0  0  0  0  0
    0.0011    1.4080    0.0003 C   0  0  0  0  0  0  0  0  0  0  0  0
   -1.1976    0.7031   -0.0013 C   0  0  0  0  0  0  0  0  0  0  0  0
   -2.0641    1.1932   -0.0052 H   0  0  0  0  0  0  0  0  0  0  0  0
   -1.2084   -0.6953   -0.0000 C   0  0  0  0  0  0  0  0  0  0  0  0
   -2.0857   -1.1835    0.0019 H   0  0  0  0  0  0  0  0  0  0  0  0
   -0.0048   -1.4020    0.0009 C   0  0  0  0  0  0  0  0  0  0  0  0
   -0.0121   -2.3977    0.0011 H   0  0  0  0  0  0  0  0  0  0  0  0
    1.2084   -0.7062    0.0000 C   0  0  0  0  0  0  0  0  0  0  0  0
    2.0835   -1.2038    0.0008 H   0  0  0  0  0  0  0  0  0  0  0  0
    1.2013    0.6925    0.0001 C   0  0  0  0  0  0  0  0  0  0  0  0
    2.0696    1.1873   -0.0006 H   0  0  0  0  0  0  0  0  0  0  0  0
  1  5  1  0
  5  8  1  0
  1  2  1  0
  1  3  1  0
  1  4  1  0
  5  6  1  0
  5  7  1  0
  8  9  1  0
  8 10  1  0
  8 11  1  0
 12 16  1  0
 16 17  2  0
 17 19  1  0
 19 21  2  0
 21 23  1  0
 23 25  2  0
 25 16  1  0
 12 13  1  0
 12 14  1  0
 12 15  1  0
 17 18  1  0
 19 20  1  0
 21 22  1  0
 23 24  1  0
 25 26  1  0
M  CHG  1   8   1
M  END
>  <PDB_ID>  (2704) 
pdb3wdk

>  <RESIDUE_NAME>  (2704) 
LYS   PHE

>  <FRAG_NAME>  (2704) 
ETAM   MBZ

>  <FRAG_ATOM_NUM>  (2704) 
fragi: 11  fragj: 15

>  <atom.prop.CHAIN_ID>  (2704) 
A A A A A A A A A A A Z Z Z Z Z Z Z Z Z Z Z Z Z Z Z

>  <atom.prop.IS_HEAVY_ATOM>  (2704) 
1 0 0 0 1 0 0 1 0 0 0 1 0 0 0 1 1 0 1 0 1 0 1 0 1 0

>  <DIFUSE_FUNC_ATOM>  (2704) 
n/a

>  <FINAL_SINGLE_POINT_ENERGY>  (2704) 
0

>  <NONCOV_INTER_ENERGY_QM>  (2704) 
0

>  <FF_Energy>  (2704) 
-3.54

>  <QM_Energy>  (2704) 
-10.85

>  <source>  (2704) 
ETAM_MBZ

>  <Index>  (2704) 
29014

$$$$
ETAM-pdb3wdk-C-LYS-65:MBZ-pdb3wdk-C-PHE-176
     RDKit          3D

 26 25  0  0  0  0  0  0  0  0999 V2000
   -0.6539   -1.1461    3.7884 C   0  0  0  0  0  0  0  0  0  0  0  0
   -0.6000   -1.1537    4.7778 H   0  0  0  0  0  0  0  0  0  0  0  0
   -0.4252   -2.0338    3.4130 H   0  0  0  0  0  0  0  0  0  0  0  0
   -1.6709   -0.8883    3.4930 H   0  0  0  0  0  0  0  0  0  0  0  0
    0.3425   -0.1209    3.2548 C   0  0  0  0  0  0  0  0  0  0  0  0
    0.2408   -0.0575    2.2550 H   0  0  0  0  0  0  0  0  0  0  0  0
    0.1289    0.7794    3.6526 H   0  0  0  0  0  0  0  0  0  0  0  0
    1.7694   -0.4635    3.5745 N   0  0  0  0  0  4  0  0  0  0  0  0
    2.2519    0.3683    3.8390 H   0  0  0  0  0  0  0  0  0  0  0  0
    1.7854   -1.1193    4.3254 H   0  0  0  0  0  0  0  0  0  0  0  0
    2.1972   -0.8611    2.7659 H   0  0  0  0  0  0  0  0  0  0  0  0
    0.0013    2.9142   -0.0087 C   0  0  0  0  0  0  0  0  0  0  0  0
    0.8589    3.2188    0.3760 H   0  0  0  0  0  0  0  0  0  0  0  0
   -0.7671    3.2212    0.5303 H   0  0  0  0  0  0  0  0  0  0  0  0
   -0.0931    3.3455   -1.0052 H   0  0  0  0  0  0  0  0  0  0  0  0
   -0.0003    1.4064   -0.0002 C   0  0  0  0  0  0  0  0  0  0  0  0
   -1.1992    0.6969   -0.0006 C   0  0  0  0  0  0  0  0  0  0  0  0
   -2.0653    1.1880   -0.0030 H   0  0  0  0  0  0  0  0  0  0  0  0
   -1.2084   -0.6972   -0.0000 C   0  0  0  0  0  0  0  0  0  0  0  0
   -2.0835   -1.1894    0.0012 H   0  0  0  0  0  0  0  0  0  0  0  0
   -0.0026   -1.4006    0.0004 C   0  0  0  0  0  0  0  0  0  0  0  0
   -0.0080   -2.3964    0.0002 H   0  0  0  0  0  0  0  0  0  0  0  0
    1.2084   -0.7019    0.0000 C   0  0  0  0  0  0  0  0  0  0  0  0
    2.0857   -1.1988    0.0012 H   0  0  0  0  0  0  0  0  0  0  0  0
    1.2021    0.6964    0.0004 C   0  0  0  0  0  0  0  0  0  0  0  0
    2.0681    1.1924    0.0002 H   0  0  0  0  0  0  0  0  0  0  0  0
  1  5  1  0
  5  8  1  0
  1  2  1  0
  1  3  1  0
  1  4  1  0
  5  6  1  0
  5  7  1  0
  8  9  1  0
  8 10  1  0
  8 11  1  0
 12 16  1  0
 16 17  2  0
 17 19  1  0
 19 21  2  0
 21 23  1  0
 23 25  2  0
 25 16  1  0
 12 13  1  0
 12 14  1  0
 12 15  1  0
 17 18  1  0
 19 20  1  0
 21 22  1  0
 23 24  1  0
 25 26  1  0
M  CHG  1   8   1
M  END
>  <PDB_ID>  (2705) 
pdb3wdk

>  <RESIDUE_NAME>  (2705) 
LYS   PHE

>  <FRAG_NAME>  (2705) 
ETAM   MBZ

>  <FRAG_ATOM_NUM>  (2705) 
fragi: 11  fragj: 15

>  <atom.prop.CHAIN_ID>  (2705) 
A A A A A A A A A A A Z Z Z Z Z Z Z Z Z Z Z Z Z Z Z

>  <atom.prop.IS_HEAVY_ATOM>  (2705) 
1 0 0 0 1 0 0 1 0 0 0 1 0 0 0 1 1 0 1 0 1 0 1 0 1 0

>  <DIFUSE_FUNC_ATOM>  (2705) 
n/a

>  <FINAL_SINGLE_POINT_ENERGY>  (2705) 
0

>  <NONCOV_INTER_ENERGY_QM>  (2705) 
0

>  <FF_Energy>  (2705) 
-3.92

>  <QM_Energy>  (2705) 
-12.23

>  <source>  (2705) 
ETAM_MBZ

>  <Index>  (2705) 
29015

$$$$
ETAM-pdb4xav-A-LYS-344:MBZ-pdb4xav-A-PHE-357
     RDKit          3D

 26 25  0  0  0  0  0  0  0  0999 V2000
    0.2869    0.3695   -3.7457 C   0  0  0  0  0  0  0  0  0  0  0  0
    0.8804    0.6489   -4.4946 H   0  0  0  0  0  0  0  0  0  0  0  0
    0.6602    0.6800   -2.8764 H   0  0  0  0  0  0  0  0  0  0  0  0
   -0.6907    0.8301   -3.8885 H   0  0  0  0  0  0  0  0  0  0  0  0
    0.1904   -1.1336   -3.7296 C   0  0  0  0  0  0  0  0  0  0  0  0
   -0.3568   -1.4225   -2.9411 H   0  0  0  0  0  0  0  0  0  0  0  0
   -0.2571   -1.4464   -4.5705 H   0  0  0  0  0  0  0  0  0  0  0  0
    1.5392   -1.7618   -3.6377 N   0  0  0  0  0  4  0  0  0  0  0  0
    2.1041   -1.2409   -2.9985 H   0  0  0  0  0  0  0  0  0  0  0  0
    1.4438   -2.7018   -3.3124 H   0  0  0  0  0  0  0  0  0  0  0  0
    1.9664   -1.7608   -4.5412 H   0  0  0  0  0  0  0  0  0  0  0  0
    0.0065    2.8968    0.0167 C   0  0  0  0  0  0  0  0  0  0  0  0
   -0.7436    3.2145   -0.5384 H   0  0  0  0  0  0  0  0  0  0  0  0
    0.8759    3.2085   -0.3306 H   0  0  0  0  0  0  0  0  0  0  0  0
   -0.1200    3.3134    1.0159 H   0  0  0  0  0  0  0  0  0  0  0  0
    0.0029    1.3964   -0.0051 C   0  0  0  0  0  0  0  0  0  0  0  0
   -1.1943    0.6856    0.0020 C   0  0  0  0  0  0  0  0  0  0  0  0
   -2.0598    1.1777    0.0073 H   0  0  0  0  0  0  0  0  0  0  0  0
   -1.1943   -0.6971   -0.0000 C   0  0  0  0  0  0  0  0  0  0  0  0
   -2.0708   -1.1954    0.0013 H   0  0  0  0  0  0  0  0  0  0  0  0
    0.0043   -1.3865   -0.0012 C   0  0  0  0  0  0  0  0  0  0  0  0
    0.0014   -2.3875   -0.0038 H   0  0  0  0  0  0  0  0  0  0  0  0
    1.1943   -0.6912    0.0000 C   0  0  0  0  0  0  0  0  0  0  0  0
    2.0805   -1.1868   -0.0009 H   0  0  0  0  0  0  0  0  0  0  0  0
    1.1871    0.6928    0.0043 C   0  0  0  0  0  0  0  0  0  0  0  0
    2.0607    1.1895    0.0133 H   0  0  0  0  0  0  0  0  0  0  0  0
  1  5  1  0
  5  8  1  0
  1  2  1  0
  1  3  1  0
  1  4  1  0
  5  6  1  0
  5  7  1  0
  8  9  1  0
  8 10  1  0
  8 11  1  0
 12 16  1  0
 16 17  2  0
 17 19  1  0
 19 21  2  0
 21 23  1  0
 23 25  2  0
 25 16  1  0
 12 13  1  0
 12 14  1  0
 12 15  1  0
 17 18  1  0
 19 20  1  0
 21 22  1  0
 23 24  1  0
 25 26  1  0
M  CHG  1   8   1
M  END
>  <PDB_ID>  (2706) 
pdb4xav

>  <RESIDUE_NAME>  (2706) 
LYS   PHE

>  <FRAG_NAME>  (2706) 
ETAM   MBZ

>  <FRAG_ATOM_NUM>  (2706) 
fragi: 11  fragj: 15

>  <atom.prop.CHAIN_ID>  (2706) 
A A A A A A A A A A A Z Z Z Z Z Z Z Z Z Z Z Z Z Z Z

>  <atom.prop.IS_HEAVY_ATOM>  (2706) 
1 0 0 0 1 0 0 1 0 0 0 1 0 0 0 1 1 0 1 0 1 0 1 0 1 0

>  <DIFUSE_FUNC_ATOM>  (2706) 
n/a

>  <FINAL_SINGLE_POINT_ENERGY>  (2706) 
0

>  <NONCOV_INTER_ENERGY_QM>  (2706) 
0

>  <FF_Energy>  (2706) 
-5.27

>  <QM_Energy>  (2706) 
-10.58

>  <source>  (2706) 
ETAM_MBZ

>  <Index>  (2706) 
29020

$$$$
ETAM-pdb3w6g-D-LYS-80:MBZ-pdb3w6g-E-PHE-42
     RDKit          3D

 26 25  0  0  0  0  0  0  0  0999 V2000
    2.2803    0.3526   -4.0360 C   0  0  0  0  0  0  0  0  0  0  0  0
    2.2366    0.6330   -4.9822 H   0  0  0  0  0  0  0  0  0  0  0  0
    2.1875    1.1230   -3.4254 H   0  0  0  0  0  0  0  0  0  0  0  0
    1.4725   -0.3525   -3.8404 H   0  0  0  0  0  0  0  0  0  0  0  0
    3.6078   -0.3200   -3.7823 C   0  0  0  0  0  0  0  0  0  0  0  0
    3.7884   -0.9706   -4.5053 H   0  0  0  0  0  0  0  0  0  0  0  0
    4.3190    0.3663   -3.7337 H   0  0  0  0  0  0  0  0  0  0  0  0
    3.5174   -1.0312   -2.4871 N   0  0  0  0  0  4  0  0  0  0  0  0
    4.0455   -0.5365   -1.7954 H   0  0  0  0  0  0  0  0  0  0  0  0
    2.5601   -1.0839   -2.1998 H   0  0  0  0  0  0  0  0  0  0  0  0
    3.8853   -1.9565   -2.5864 H   0  0  0  0  0  0  0  0  0  0  0  0
    0.0041    2.9025   -0.0095 C   0  0  0  0  0  0  0  0  0  0  0  0
   -0.8970    3.2113   -0.2729 H   0  0  0  0  0  0  0  0  0  0  0  0
    0.6909    3.2037   -0.6541 H   0  0  0  0  0  0  0  0  0  0  0  0
    0.2388    3.3446    0.9587 H   0  0  0  0  0  0  0  0  0  0  0  0
   -0.0009    1.4046   -0.0003 C   0  0  0  0  0  0  0  0  0  0  0  0
   -1.1995    0.6975    0.0017 C   0  0  0  0  0  0  0  0  0  0  0  0
   -2.0662    1.1830    0.0027 H   0  0  0  0  0  0  0  0  0  0  0  0
   -1.2039   -0.7040    0.0000 C   0  0  0  0  0  0  0  0  0  0  0  0
   -2.0773   -1.1955    0.0011 H   0  0  0  0  0  0  0  0  0  0  0  0
    0.0051   -1.3974   -0.0013 C   0  0  0  0  0  0  0  0  0  0  0  0
    0.0026   -2.3959   -0.0032 H   0  0  0  0  0  0  0  0  0  0  0  0
    1.2039   -0.6968    0.0000 C   0  0  0  0  0  0  0  0  0  0  0  0
    2.0864   -1.1907    0.0025 H   0  0  0  0  0  0  0  0  0  0  0  0
    1.1953    0.6960   -0.0001 C   0  0  0  0  0  0  0  0  0  0  0  0
    2.0643    1.1926   -0.0008 H   0  0  0  0  0  0  0  0  0  0  0  0
  1  5  1  0
  5  8  1  0
  1  2  1  0
  1  3  1  0
  1  4  1  0
  5  6  1  0
  5  7  1  0
  8  9  1  0
  8 10  1  0
  8 11  1  0
 12 16  1  0
 16 17  2  0
 17 19  1  0
 19 21  2  0
 21 23  1  0
 23 25  2  0
 25 16  1  0
 12 13  1  0
 12 14  1  0
 12 15  1  0
 17 18  1  0
 19 20  1  0
 21 22  1  0
 23 24  1  0
 25 26  1  0
M  CHG  1   8   1
M  END
>  <PDB_ID>  (2707) 
pdb3w6g

>  <RESIDUE_NAME>  (2707) 
LYS   PHE

>  <FRAG_NAME>  (2707) 
ETAM   MBZ

>  <FRAG_ATOM_NUM>  (2707) 
fragi: 11  fragj: 15

>  <atom.prop.CHAIN_ID>  (2707) 
A A A A A A A A A A A Z Z Z Z Z Z Z Z Z Z Z Z Z Z Z

>  <atom.prop.IS_HEAVY_ATOM>  (2707) 
1 0 0 0 1 0 0 1 0 0 0 1 0 0 0 1 1 0 1 0 1 0 1 0 1 0

>  <DIFUSE_FUNC_ATOM>  (2707) 
n/a

>  <FINAL_SINGLE_POINT_ENERGY>  (2707) 
0

>  <NONCOV_INTER_ENERGY_QM>  (2707) 
0

>  <FF_Energy>  (2707) 
-2.05

>  <QM_Energy>  (2707) 
-7.89

>  <source>  (2707) 
ETAM_MBZ

>  <Index>  (2707) 
29050

$$$$
ETAM-pdb4xnv-A-LYS-46:MBZ-pdb4xnv-A-PHE-49
     RDKit          3D

 26 25  0  0  0  0  0  0  0  0999 V2000
    5.1146    1.6746    1.4713 C   0  0  0  0  0  0  0  0  0  0  0  0
    5.0995    1.1072    2.2867 H   0  0  0  0  0  0  0  0  0  0  0  0
    6.0375    1.9950    1.2874 H   0  0  0  0  0  0  0  0  0  0  0  0
    4.7650    1.0869    0.6225 H   0  0  0  0  0  0  0  0  0  0  0  0
    4.2218    2.8722    1.6961 C   0  0  0  0  0  0  0  0  0  0  0  0
    4.6998    3.5326    2.2877 H   0  0  0  0  0  0  0  0  0  0  0  0
    4.0389    3.3175    0.8109 H   0  0  0  0  0  0  0  0  0  0  0  0
    2.9274    2.5052    2.3286 N   0  0  0  0  0  4  0  0  0  0  0  0
    2.4531    3.3352    2.6212 H   0  0  0  0  0  0  0  0  0  0  0  0
    2.3616    2.0132    1.6666 H   0  0  0  0  0  0  0  0  0  0  0  0
    3.0991    1.9210    3.1220 H   0  0  0  0  0  0  0  0  0  0  0  0
    0.0026    2.9198    0.0049 C   0  0  0  0  0  0  0  0  0  0  0  0
    0.8942    3.2224    0.3402 H   0  0  0  0  0  0  0  0  0  0  0  0
   -0.7117    3.2227    0.6354 H   0  0  0  0  0  0  0  0  0  0  0  0
   -0.1723    3.4219   -0.9467 H   0  0  0  0  0  0  0  0  0  0  0  0
    0.0001    1.4078   -0.0053 C   0  0  0  0  0  0  0  0  0  0  0  0
   -1.1940    0.6957    0.0070 C   0  0  0  0  0  0  0  0  0  0  0  0
   -2.0628    1.1787    0.0197 H   0  0  0  0  0  0  0  0  0  0  0  0
   -1.1939   -0.7040    0.0000 C   0  0  0  0  0  0  0  0  0  0  0  0
   -2.0737   -1.1936   -0.0028 H   0  0  0  0  0  0  0  0  0  0  0  0
    0.0021   -1.3937   -0.0014 C   0  0  0  0  0  0  0  0  0  0  0  0
   -0.0013   -2.3960   -0.0040 H   0  0  0  0  0  0  0  0  0  0  0  0
    1.1939   -0.7021   -0.0000 C   0  0  0  0  0  0  0  0  0  0  0  0
    2.0804   -1.1937    0.0030 H   0  0  0  0  0  0  0  0  0  0  0  0
    1.1919    0.6962   -0.0004 C   0  0  0  0  0  0  0  0  0  0  0  0
    2.0637    1.1861    0.0017 H   0  0  0  0  0  0  0  0  0  0  0  0
  1  5  1  0
  5  8  1  0
  1  2  1  0
  1  3  1  0
  1  4  1  0
  5  6  1  0
  5  7  1  0
  8  9  1  0
  8 10  1  0
  8 11  1  0
 12 16  1  0
 16 17  2  0
 17 19  1  0
 19 21  2  0
 21 23  1  0
 23 25  2  0
 25 16  1  0
 12 13  1  0
 12 14  1  0
 12 15  1  0
 17 18  1  0
 19 20  1  0
 21 22  1  0
 23 24  1  0
 25 26  1  0
M  CHG  1   8   1
M  END
>  <PDB_ID>  (2708) 
pdb4xnv

>  <RESIDUE_NAME>  (2708) 
LYS   PHE

>  <FRAG_NAME>  (2708) 
ETAM   MBZ

>  <FRAG_ATOM_NUM>  (2708) 
fragi: 11  fragj: 15

>  <atom.prop.CHAIN_ID>  (2708) 
A A A A A A A A A A A Z Z Z Z Z Z Z Z Z Z Z Z Z Z Z

>  <atom.prop.IS_HEAVY_ATOM>  (2708) 
1 0 0 0 1 0 0 1 0 0 0 1 0 0 0 1 1 0 1 0 1 0 1 0 1 0

>  <DIFUSE_FUNC_ATOM>  (2708) 
n/a

>  <FINAL_SINGLE_POINT_ENERGY>  (2708) 
0

>  <NONCOV_INTER_ENERGY_QM>  (2708) 
0

>  <FF_Energy>  (2708) 
-1.82

>  <QM_Energy>  (2708) 
-7.07

>  <source>  (2708) 
ETAM_MBZ

>  <Index>  (2708) 
29085

$$$$
ETAM-pdb3wkm-A-LYS-215:MBZ-pdb3wkm-A-PHE-284
     RDKit          3D

 26 25  0  0  0  0  0  0  0  0999 V2000
   -3.1486   -3.7394    0.5191 C   0  0  0  0  0  0  0  0  0  0  0  0
   -2.3404   -4.0130    1.0383 H   0  0  0  0  0  0  0  0  0  0  0  0
   -2.9450   -2.9198   -0.0142 H   0  0  0  0  0  0  0  0  0  0  0  0
   -3.4167   -4.5458   -0.1635 H   0  0  0  0  0  0  0  0  0  0  0  0
   -4.2659   -3.4081    1.5046 C   0  0  0  0  0  0  0  0  0  0  0  0
   -5.1296   -3.3335    1.0014 H   0  0  0  0  0  0  0  0  0  0  0  0
   -4.3400   -4.1528    2.1720 H   0  0  0  0  0  0  0  0  0  0  0  0
   -4.0072   -2.1278    2.2258 N   0  0  0  0  0  4  0  0  0  0  0  0
   -3.1849   -1.6996    1.8537 H   0  0  0  0  0  0  0  0  0  0  0  0
   -4.7884   -1.5168    2.1039 H   0  0  0  0  0  0  0  0  0  0  0  0
   -3.8776   -2.3175    3.1979 H   0  0  0  0  0  0  0  0  0  0  0  0
   -0.0077    2.9082    0.0220 C   0  0  0  0  0  0  0  0  0  0  0  0
    0.4863    3.2028    0.8314 H   0  0  0  0  0  0  0  0  0  0  0  0
   -0.9530    3.2080    0.0615 H   0  0  0  0  0  0  0  0  0  0  0  0
    0.4561    3.3826   -0.8429 H   0  0  0  0  0  0  0  0  0  0  0  0
    0.0001    1.4043   -0.0029 C   0  0  0  0  0  0  0  0  0  0  0  0
   -1.2002    0.6986   -0.0035 C   0  0  0  0  0  0  0  0  0  0  0  0
   -2.0639    1.1891   -0.0075 H   0  0  0  0  0  0  0  0  0  0  0  0
   -1.2018   -0.6920   -0.0000 C   0  0  0  0  0  0  0  0  0  0  0  0
   -2.0801   -1.1870    0.0044 H   0  0  0  0  0  0  0  0  0  0  0  0
   -0.0017   -1.3948   -0.0005 C   0  0  0  0  0  0  0  0  0  0  0  0
   -0.0114   -2.3928   -0.0016 H   0  0  0  0  0  0  0  0  0  0  0  0
    1.2018   -0.7046    0.0000 C   0  0  0  0  0  0  0  0  0  0  0  0
    2.0814   -1.2041   -0.0027 H   0  0  0  0  0  0  0  0  0  0  0  0
    1.2017    0.6886    0.0069 C   0  0  0  0  0  0  0  0  0  0  0  0
    2.0682    1.1838    0.0179 H   0  0  0  0  0  0  0  0  0  0  0  0
  1  5  1  0
  5  8  1  0
  1  2  1  0
  1  3  1  0
  1  4  1  0
  5  6  1  0
  5  7  1  0
  8  9  1  0
  8 10  1  0
  8 11  1  0
 12 16  1  0
 16 17  2  0
 17 19  1  0
 19 21  2  0
 21 23  1  0
 23 25  2  0
 25 16  1  0
 12 13  1  0
 12 14  1  0
 12 15  1  0
 17 18  1  0
 19 20  1  0
 21 22  1  0
 23 24  1  0
 25 26  1  0
M  CHG  1   8   1
M  END
>  <PDB_ID>  (2709) 
pdb3wkm

>  <RESIDUE_NAME>  (2709) 
LYS   PHE

>  <FRAG_NAME>  (2709) 
ETAM   MBZ

>  <FRAG_ATOM_NUM>  (2709) 
fragi: 11  fragj: 15

>  <atom.prop.CHAIN_ID>  (2709) 
A A A A A A A A A A A Z Z Z Z Z Z Z Z Z Z Z Z Z Z Z

>  <atom.prop.IS_HEAVY_ATOM>  (2709) 
1 0 0 0 1 0 0 1 0 0 0 1 0 0 0 1 1 0 1 0 1 0 1 0 1 0

>  <DIFUSE_FUNC_ATOM>  (2709) 
n/a

>  <FINAL_SINGLE_POINT_ENERGY>  (2709) 
0

>  <NONCOV_INTER_ENERGY_QM>  (2709) 
0

>  <FF_Energy>  (2709) 
0.84

>  <QM_Energy>  (2709) 
-4.24

>  <source>  (2709) 
ETAM_MBZ

>  <Index>  (2709) 
29133

$$$$
ETAM-pdb3wl4-B-LYS-241:MBZ-pdb3wl4-B-PHE-237
     RDKit          3D

 26 25  0  0  0  0  0  0  0  0999 V2000
    1.4848   -1.2368    4.9944 C   0  0  0  0  0  0  0  0  0  0  0  0
    2.3443   -0.8362    4.8450 H   0  0  0  0  0  0  0  0  0  0  0  0
    1.4785   -2.0844    5.4455 H   0  0  0  0  0  0  0  0  0  0  0  0
    0.9065   -0.5419    5.6033 H   0  0  0  0  0  0  0  0  0  0  0  0
    0.7281   -1.3645    3.6391 C   0  0  0  0  0  0  0  0  0  0  0  0
    0.7899   -0.4807    3.1488 H   0  0  0  0  0  0  0  0  0  0  0  0
    1.1960   -2.0597    3.0707 H   0  0  0  0  0  0  0  0  0  0  0  0
   -0.7723   -1.7545    3.7221 N   0  0  0  0  0  4  0  0  0  0  0  0
   -1.1225   -1.7958    2.7976 H   0  0  0  0  0  0  0  0  0  0  0  0
   -0.8284   -2.6365    4.1666 H   0  0  0  0  0  0  0  0  0  0  0  0
   -1.2344   -1.0565    4.2503 H   0  0  0  0  0  0  0  0  0  0  0  0
    0.0685    2.9304    0.0247 C   0  0  0  0  0  0  0  0  0  0  0  0
   -0.6516    3.2577   -0.5663 H   0  0  0  0  0  0  0  0  0  0  0  0
    0.9578    3.2118   -0.2967 H   0  0  0  0  0  0  0  0  0  0  0  0
   -0.0811    3.3940    0.9998 H   0  0  0  0  0  0  0  0  0  0  0  0
    0.0262    1.3987    0.0169 C   0  0  0  0  0  0  0  0  0  0  0  0
   -1.1871    0.7428    0.0474 C   0  0  0  0  0  0  0  0  0  0  0  0
   -2.0365    1.2356    0.1000 H   0  0  0  0  0  0  0  0  0  0  0  0
   -1.2100   -0.6657    0.0000 C   0  0  0  0  0  0  0  0  0  0  0  0
   -2.1172   -1.1283    0.0192 H   0  0  0  0  0  0  0  0  0  0  0  0
   -0.0501   -1.4156   -0.0688 C   0  0  0  0  0  0  0  0  0  0  0  0
   -0.0642   -2.3912   -0.1623 H   0  0  0  0  0  0  0  0  0  0  0  0
    1.2100   -0.7274   -0.0000 C   0  0  0  0  0  0  0  0  0  0  0  0
    2.0559   -1.2477    0.0445 H   0  0  0  0  0  0  0  0  0  0  0  0
    1.2109    0.6671    0.0045 C   0  0  0  0  0  0  0  0  0  0  0  0
    2.0893    1.1555   -0.0018 H   0  0  0  0  0  0  0  0  0  0  0  0
  1  5  1  0
  5  8  1  0
  1  2  1  0
  1  3  1  0
  1  4  1  0
  5  6  1  0
  5  7  1  0
  8  9  1  0
  8 10  1  0
  8 11  1  0
 12 16  1  0
 16 17  2  0
 17 19  1  0
 19 21  2  0
 21 23  1  0
 23 25  2  0
 25 16  1  0
 12 13  1  0
 12 14  1  0
 12 15  1  0
 17 18  1  0
 19 20  1  0
 21 22  1  0
 23 24  1  0
 25 26  1  0
M  CHG  1   8   1
M  END
>  <PDB_ID>  (2710) 
pdb3wl4

>  <RESIDUE_NAME>  (2710) 
LYS   PHE

>  <FRAG_NAME>  (2710) 
ETAM   MBZ

>  <FRAG_ATOM_NUM>  (2710) 
fragi: 11  fragj: 15

>  <atom.prop.CHAIN_ID>  (2710) 
A A A A A A A A A A A Z Z Z Z Z Z Z Z Z Z Z Z Z Z Z

>  <atom.prop.IS_HEAVY_ATOM>  (2710) 
1 0 0 0 1 0 0 1 0 0 0 1 0 0 0 1 1 0 1 0 1 0 1 0 1 0

>  <DIFUSE_FUNC_ATOM>  (2710) 
n/a

>  <FINAL_SINGLE_POINT_ENERGY>  (2710) 
0

>  <NONCOV_INTER_ENERGY_QM>  (2710) 
0

>  <FF_Energy>  (2710) 
-5.34

>  <QM_Energy>  (2710) 
-10.71

>  <source>  (2710) 
ETAM_MBZ

>  <Index>  (2710) 
29137

$$$$
ETAM-pdb3wmd-A-LYS-8:MBZ-pdb3wmd-A-PHE-4
     RDKit          3D

 26 25  0  0  0  0  0  0  0  0999 V2000
   -0.1526   -1.2129    5.0423 C   0  0  0  0  0  0  0  0  0  0  0  0
    0.3350   -1.2972    5.8952 H   0  0  0  0  0  0  0  0  0  0  0  0
   -0.6444   -2.0373    4.8180 H   0  0  0  0  0  0  0  0  0  0  0  0
   -0.8419   -0.3699    5.0909 H   0  0  0  0  0  0  0  0  0  0  0  0
    0.8278   -0.9243    3.9527 C   0  0  0  0  0  0  0  0  0  0  0  0
    0.7905    0.0446    3.7164 H   0  0  0  0  0  0  0  0  0  0  0  0
    1.7477   -1.1620    4.2571 H   0  0  0  0  0  0  0  0  0  0  0  0
    0.4909   -1.7292    2.7560 N   0  0  0  0  0  4  0  0  0  0  0  0
    0.1874   -1.1234    2.0193 H   0  0  0  0  0  0  0  0  0  0  0  0
    1.2987   -2.2381    2.4554 H   0  0  0  0  0  0  0  0  0  0  0  0
   -0.2423   -2.3729    2.9800 H   0  0  0  0  0  0  0  0  0  0  0  0
    0.0266    2.9148   -0.0397 C   0  0  0  0  0  0  0  0  0  0  0  0
   -0.2437    3.1900   -0.9540 H   0  0  0  0  0  0  0  0  0  0  0  0
    0.9497    3.2176    0.1602 H   0  0  0  0  0  0  0  0  0  0  0  0
   -0.6439    3.4043    0.6667 H   0  0  0  0  0  0  0  0  0  0  0  0
    0.0088    1.4134    0.0171 C   0  0  0  0  0  0  0  0  0  0  0  0
   -1.2020    0.6939   -0.0088 C   0  0  0  0  0  0  0  0  0  0  0  0
   -2.0612    1.1791   -0.0347 H   0  0  0  0  0  0  0  0  0  0  0  0
   -1.1904   -0.7027    0.0000 C   0  0  0  0  0  0  0  0  0  0  0  0
   -2.0822   -1.1935    0.0178 H   0  0  0  0  0  0  0  0  0  0  0  0
   -0.0100   -1.4126   -0.0132 C   0  0  0  0  0  0  0  0  0  0  0  0
   -0.0016   -2.3979   -0.0317 H   0  0  0  0  0  0  0  0  0  0  0  0
    1.1904   -0.6885   -0.0000 C   0  0  0  0  0  0  0  0  0  0  0  0
    2.0772   -1.1968    0.0075 H   0  0  0  0  0  0  0  0  0  0  0  0
    1.2032    0.6965    0.0049 C   0  0  0  0  0  0  0  0  0  0  0  0
    2.0725    1.1877   -0.0016 H   0  0  0  0  0  0  0  0  0  0  0  0
  1  5  1  0
  5  8  1  0
  1  2  1  0
  1  3  1  0
  1  4  1  0
  5  6  1  0
  5  7  1  0
  8  9  1  0
  8 10  1  0
  8 11  1  0
 12 16  1  0
 16 17  2  0
 17 19  1  0
 19 21  2  0
 21 23  1  0
 23 25  2  0
 25 16  1  0
 12 13  1  0
 12 14  1  0
 12 15  1  0
 17 18  1  0
 19 20  1  0
 21 22  1  0
 23 24  1  0
 25 26  1  0
M  CHG  1   8   1
M  END
>  <PDB_ID>  (2711) 
pdb3wmd

>  <RESIDUE_NAME>  (2711) 
LYS   PHE

>  <FRAG_NAME>  (2711) 
ETAM   MBZ

>  <FRAG_ATOM_NUM>  (2711) 
fragi: 11  fragj: 15

>  <atom.prop.CHAIN_ID>  (2711) 
A A A A A A A A A A A Z Z Z Z Z Z Z Z Z Z Z Z Z Z Z

>  <atom.prop.IS_HEAVY_ATOM>  (2711) 
1 0 0 0 1 0 0 1 0 0 0 1 0 0 0 1 1 0 1 0 1 0 1 0 1 0

>  <DIFUSE_FUNC_ATOM>  (2711) 
n/a

>  <FINAL_SINGLE_POINT_ENERGY>  (2711) 
0

>  <NONCOV_INTER_ENERGY_QM>  (2711) 
0

>  <FF_Energy>  (2711) 
-4.05

>  <QM_Energy>  (2711) 
-12.49

>  <source>  (2711) 
ETAM_MBZ

>  <Index>  (2711) 
29146

$$$$
ETAM-pdb3wnb-A-LYS-256:MBZ-pdb3wnb-A-PHE-208
     RDKit          3D

 26 25  0  0  0  0  0  0  0  0999 V2000
    1.1272   -4.6063   -3.6405 C   0  0  0  0  0  0  0  0  0  0  0  0
    0.7522   -5.2072   -2.9350 H   0  0  0  0  0  0  0  0  0  0  0  0
    1.8791   -5.0697   -4.1086 H   0  0  0  0  0  0  0  0  0  0  0  0
    0.3440   -4.3887   -4.3668 H   0  0  0  0  0  0  0  0  0  0  0  0
    1.6958   -3.3496   -2.9462 C   0  0  0  0  0  0  0  0  0  0  0  0
    2.2395   -2.8357   -3.6188 H   0  0  0  0  0  0  0  0  0  0  0  0
    0.9240   -2.7736   -2.6535 H   0  0  0  0  0  0  0  0  0  0  0  0
    2.5500   -3.6686   -1.7622 N   0  0  0  0  0  4  0  0  0  0  0  0
    2.2814   -4.5566   -1.3932 H   0  0  0  0  0  0  0  0  0  0  0  0
    3.5073   -3.6968   -2.0456 H   0  0  0  0  0  0  0  0  0  0  0  0
    2.4253   -2.9627   -1.0668 H   0  0  0  0  0  0  0  0  0  0  0  0
    0.0141    2.8962   -0.0082 C   0  0  0  0  0  0  0  0  0  0  0  0
   -0.7964    3.2122   -0.4754 H   0  0  0  0  0  0  0  0  0  0  0  0
    0.8362    3.2070   -0.4578 H   0  0  0  0  0  0  0  0  0  0  0  0
    0.0050    3.3298    0.9917 H   0  0  0  0  0  0  0  0  0  0  0  0
    0.0093    1.4026   -0.0088 C   0  0  0  0  0  0  0  0  0  0  0  0
   -1.1990    0.6936   -0.0089 C   0  0  0  0  0  0  0  0  0  0  0  0
   -2.0592    1.1878   -0.0163 H   0  0  0  0  0  0  0  0  0  0  0  0
   -1.2013   -0.6951   -0.0000 C   0  0  0  0  0  0  0  0  0  0  0  0
   -2.0848   -1.1857   -0.0109 H   0  0  0  0  0  0  0  0  0  0  0  0
   -0.0132   -1.3889    0.0251 C   0  0  0  0  0  0  0  0  0  0  0  0
   -0.0183   -2.3926    0.0614 H   0  0  0  0  0  0  0  0  0  0  0  0
    1.2013   -0.7080    0.0000 C   0  0  0  0  0  0  0  0  0  0  0  0
    2.0733   -1.2072   -0.0112 H   0  0  0  0  0  0  0  0  0  0  0  0
    1.2029    0.6958   -0.0074 C   0  0  0  0  0  0  0  0  0  0  0  0
    2.0731    1.1819   -0.0126 H   0  0  0  0  0  0  0  0  0  0  0  0
  1  5  1  0
  5  8  1  0
  1  2  1  0
  1  3  1  0
  1  4  1  0
  5  6  1  0
  5  7  1  0
  8  9  1  0
  8 10  1  0
  8 11  1  0
 12 16  1  0
 16 17  2  0
 17 19  1  0
 19 21  2  0
 21 23  1  0
 23 25  2  0
 25 16  1  0
 12 13  1  0
 12 14  1  0
 12 15  1  0
 17 18  1  0
 19 20  1  0
 21 22  1  0
 23 24  1  0
 25 26  1  0
M  CHG  1   8   1
M  END
>  <PDB_ID>  (2712) 
pdb3wnb

>  <RESIDUE_NAME>  (2712) 
LYS   PHE

>  <FRAG_NAME>  (2712) 
ETAM   MBZ

>  <FRAG_ATOM_NUM>  (2712) 
fragi: 11  fragj: 15

>  <atom.prop.CHAIN_ID>  (2712) 
A A A A A A A A A A A Z Z Z Z Z Z Z Z Z Z Z Z Z Z Z

>  <atom.prop.IS_HEAVY_ATOM>  (2712) 
1 0 0 0 1 0 0 1 0 0 0 1 0 0 0 1 1 0 1 0 1 0 1 0 1 0

>  <DIFUSE_FUNC_ATOM>  (2712) 
n/a

>  <FINAL_SINGLE_POINT_ENERGY>  (2712) 
0

>  <NONCOV_INTER_ENERGY_QM>  (2712) 
0

>  <FF_Energy>  (2712) 
-0.33

>  <QM_Energy>  (2712) 
-5.77

>  <source>  (2712) 
ETAM_MBZ

>  <Index>  (2712) 
29156

$$$$
ETAM-pdb3wo8-A-LYS-203:MBZ-pdb3wo8-A-PHE-315
     RDKit          3D

 26 25  0  0  0  0  0  0  0  0999 V2000
    0.6165    0.2056   -4.1670 C   0  0  0  0  0  0  0  0  0  0  0  0
    1.5473    0.5462   -4.2857 H   0  0  0  0  0  0  0  0  0  0  0  0
    0.1699    0.1245   -5.0560 H   0  0  0  0  0  0  0  0  0  0  0  0
    0.6571   -0.7780   -3.6991 H   0  0  0  0  0  0  0  0  0  0  0  0
   -0.1566    1.1938   -3.3267 C   0  0  0  0  0  0  0  0  0  0  0  0
   -1.0358    1.3727   -3.7519 H   0  0  0  0  0  0  0  0  0  0  0  0
   -0.2783    0.8266   -2.4123 H   0  0  0  0  0  0  0  0  0  0  0  0
    0.6151    2.4661   -3.2442 N   0  0  0  0  0  4  0  0  0  0  0  0
   -0.0025    3.2377   -3.3957 H   0  0  0  0  0  0  0  0  0  0  0  0
    1.0315    2.5421   -2.3391 H   0  0  0  0  0  0  0  0  0  0  0  0
    1.3286    2.4654   -3.9435 H   0  0  0  0  0  0  0  0  0  0  0  0
    0.0586    2.8698   -0.0667 C   0  0  0  0  0  0  0  0  0  0  0  0
   -0.2163    3.1422   -0.9899 H   0  0  0  0  0  0  0  0  0  0  0  0
    1.0053    3.1537    0.0937 H   0  0  0  0  0  0  0  0  0  0  0  0
   -0.5738    3.4072    0.6401 H   0  0  0  0  0  0  0  0  0  0  0  0
    0.0009    1.3955    0.0151 C   0  0  0  0  0  0  0  0  0  0  0  0
   -1.1789    0.7316   -0.0092 C   0  0  0  0  0  0  0  0  0  0  0  0
   -2.0470    1.2147   -0.0352 H   0  0  0  0  0  0  0  0  0  0  0  0
   -1.1887   -0.6638    0.0000 C   0  0  0  0  0  0  0  0  0  0  0  0
   -2.0819   -1.1473   -0.0055 H   0  0  0  0  0  0  0  0  0  0  0  0
   -0.0055   -1.3976    0.0177 C   0  0  0  0  0  0  0  0  0  0  0  0
   -0.0419   -2.3916    0.0425 H   0  0  0  0  0  0  0  0  0  0  0  0
    1.1887   -0.7271   -0.0000 C   0  0  0  0  0  0  0  0  0  0  0  0
    2.0683   -1.2232    0.0050 H   0  0  0  0  0  0  0  0  0  0  0  0
    1.1835    0.6614   -0.0237 C   0  0  0  0  0  0  0  0  0  0  0  0
    2.0622    1.1541   -0.0712 H   0  0  0  0  0  0  0  0  0  0  0  0
  1  5  1  0
  5  8  1  0
  1  2  1  0
  1  3  1  0
  1  4  1  0
  5  6  1  0
  5  7  1  0
  8  9  1  0
  8 10  1  0
  8 11  1  0
 12 16  1  0
 16 17  2  0
 17 19  1  0
 19 21  2  0
 21 23  1  0
 23 25  2  0
 25 16  1  0
 12 13  1  0
 12 14  1  0
 12 15  1  0
 17 18  1  0
 19 20  1  0
 21 22  1  0
 23 24  1  0
 25 26  1  0
M  CHG  1   8   1
M  END
>  <PDB_ID>  (2713) 
pdb3wo8

>  <RESIDUE_NAME>  (2713) 
LYS   PHE

>  <FRAG_NAME>  (2713) 
ETAM   MBZ

>  <FRAG_ATOM_NUM>  (2713) 
fragi: 11  fragj: 15

>  <atom.prop.CHAIN_ID>  (2713) 
A A A A A A A A A A A Z Z Z Z Z Z Z Z Z Z Z Z Z Z Z

>  <atom.prop.IS_HEAVY_ATOM>  (2713) 
1 0 0 0 1 0 0 1 0 0 0 1 0 0 0 1 1 0 1 0 1 0 1 0 1 0

>  <DIFUSE_FUNC_ATOM>  (2713) 
n/a

>  <FINAL_SINGLE_POINT_ENERGY>  (2713) 
0

>  <NONCOV_INTER_ENERGY_QM>  (2713) 
0

>  <FF_Energy>  (2713) 
-2.82

>  <QM_Energy>  (2713) 
-9.17

>  <source>  (2713) 
ETAM_MBZ

>  <Index>  (2713) 
29169

$$$$
ETAM-pdb3wkp-A-LYS-56:MBZ-pdb3wkp-A-PHE-213
     RDKit          3D

 26 25  0  0  0  0  0  0  0  0999 V2000
    0.3594    1.1692   -4.9720 C   0  0  0  0  0  0  0  0  0  0  0  0
    0.6915    1.8173   -5.6746 H   0  0  0  0  0  0  0  0  0  0  0  0
    0.0145    0.3473   -5.4508 H   0  0  0  0  0  0  0  0  0  0  0  0
    1.1962    0.8810   -4.3357 H   0  0  0  0  0  0  0  0  0  0  0  0
   -0.8165    1.8209   -4.2499 C   0  0  0  0  0  0  0  0  0  0  0  0
   -0.4746    2.5812   -3.6964 H   0  0  0  0  0  0  0  0  0  0  0  0
   -1.4599    2.1706   -4.9313 H   0  0  0  0  0  0  0  0  0  0  0  0
   -1.5158    0.8459   -3.3681 N   0  0  0  0  0  4  0  0  0  0  0  0
   -1.4909   -0.0602   -3.7905 H   0  0  0  0  0  0  0  0  0  0  0  0
   -1.0577    0.8142   -2.4807 H   0  0  0  0  0  0  0  0  0  0  0  0
   -2.4653    1.1326   -3.2450 H   0  0  0  0  0  0  0  0  0  0  0  0
   -0.0061    2.8571   -0.0288 C   0  0  0  0  0  0  0  0  0  0  0  0
   -0.8067    3.1636   -0.5288 H   0  0  0  0  0  0  0  0  0  0  0  0
    0.8262    3.1729   -0.4685 H   0  0  0  0  0  0  0  0  0  0  0  0
   -0.0451    3.3007    0.9660 H   0  0  0  0  0  0  0  0  0  0  0  0
    0.0016    1.3803   -0.0190 C   0  0  0  0  0  0  0  0  0  0  0  0
   -1.1718    0.6704    0.0037 C   0  0  0  0  0  0  0  0  0  0  0  0
   -2.0486    1.1540    0.0223 H   0  0  0  0  0  0  0  0  0  0  0  0
   -1.1650   -0.7052   -0.0000 C   0  0  0  0  0  0  0  0  0  0  0  0
   -2.0488   -1.2005   -0.0248 H   0  0  0  0  0  0  0  0  0  0  0  0
    0.0081   -1.3641    0.0307 C   0  0  0  0  0  0  0  0  0  0  0  0
    0.0178   -2.3760    0.0762 H   0  0  0  0  0  0  0  0  0  0  0  0
    1.1650   -0.6739   -0.0000 C   0  0  0  0  0  0  0  0  0  0  0  0
    2.0667   -1.1681   -0.0105 H   0  0  0  0  0  0  0  0  0  0  0  0
    1.1620    0.6925   -0.0155 C   0  0  0  0  0  0  0  0  0  0  0  0
    2.0444    1.1859   -0.0250 H   0  0  0  0  0  0  0  0  0  0  0  0
  1  5  1  0
  5  8  1  0
  1  2  1  0
  1  3  1  0
  1  4  1  0
  5  6  1  0
  5  7  1  0
  8  9  1  0
  8 10  1  0
  8 11  1  0
 12 16  1  0
 16 17  2  0
 17 19  1  0
 19 21  2  0
 21 23  1  0
 23 25  2  0
 25 16  1  0
 12 13  1  0
 12 14  1  0
 12 15  1  0
 17 18  1  0
 19 20  1  0
 21 22  1  0
 23 24  1  0
 25 26  1  0
M  CHG  1   8   1
M  END
>  <PDB_ID>  (2714) 
pdb3wkp

>  <RESIDUE_NAME>  (2714) 
LYS   PHE

>  <FRAG_NAME>  (2714) 
ETAM   MBZ

>  <FRAG_ATOM_NUM>  (2714) 
fragi: 11  fragj: 15

>  <atom.prop.CHAIN_ID>  (2714) 
A A A A A A A A A A A Z Z Z Z Z Z Z Z Z Z Z Z Z Z Z

>  <atom.prop.IS_HEAVY_ATOM>  (2714) 
1 0 0 0 1 0 0 1 0 0 0 1 0 0 0 1 1 0 1 0 1 0 1 0 1 0

>  <DIFUSE_FUNC_ATOM>  (2714) 
n/a

>  <FINAL_SINGLE_POINT_ENERGY>  (2714) 
0

>  <NONCOV_INTER_ENERGY_QM>  (2714) 
0

>  <FF_Energy>  (2714) 
-6.92

>  <QM_Energy>  (2714) 
-12.29

>  <source>  (2714) 
ETAM_MBZ

>  <Index>  (2714) 
29177

$$$$
ETAM-pdb3woc-B-LYS-66:MBZ-pdb3woc-B-PHE-45
     RDKit          3D

 26 25  0  0  0  0  0  0  0  0999 V2000
    1.9955   -0.3375    3.5512 C   0  0  0  0  0  0  0  0  0  0  0  0
    1.9881    0.5151    3.0313 H   0  0  0  0  0  0  0  0  0  0  0  0
    2.1838   -1.1035    2.9392 H   0  0  0  0  0  0  0  0  0  0  0  0
    2.7852   -0.2837    4.3005 H   0  0  0  0  0  0  0  0  0  0  0  0
    0.6450   -0.5369    4.1781 C   0  0  0  0  0  0  0  0  0  0  0  0
    0.6424   -1.4037    4.6893 H   0  0  0  0  0  0  0  0  0  0  0  0
    0.4656    0.2130    4.8251 H   0  0  0  0  0  0  0  0  0  0  0  0
   -0.4314   -0.5690    3.1650 N   0  0  0  0  0  4  0  0  0  0  0  0
   -0.5551    0.3458    2.7762 H   0  0  0  0  0  0  0  0  0  0  0  0
   -0.1872   -1.2097    2.4346 H   0  0  0  0  0  0  0  0  0  0  0  0
   -1.2872   -0.8654    3.5924 H   0  0  0  0  0  0  0  0  0  0  0  0
   -0.0048    2.9136    0.0036 C   0  0  0  0  0  0  0  0  0  0  0  0
    0.7386    3.2188    0.5783 H   0  0  0  0  0  0  0  0  0  0  0  0
   -0.8784    3.2155    0.3513 H   0  0  0  0  0  0  0  0  0  0  0  0
    0.1322    3.3556   -0.9832 H   0  0  0  0  0  0  0  0  0  0  0  0
   -0.0011    1.4063    0.0008 C   0  0  0  0  0  0  0  0  0  0  0  0
   -1.1978    0.6967    0.0020 C   0  0  0  0  0  0  0  0  0  0  0  0
   -2.0648    1.1835    0.0034 H   0  0  0  0  0  0  0  0  0  0  0  0
   -1.2012   -0.6993    0.0000 C   0  0  0  0  0  0  0  0  0  0  0  0
   -2.0776   -1.1919    0.0033 H   0  0  0  0  0  0  0  0  0  0  0  0
    0.0017   -1.3972   -0.0047 C   0  0  0  0  0  0  0  0  0  0  0  0
   -0.0041   -2.3952   -0.0117 H   0  0  0  0  0  0  0  0  0  0  0  0
    1.2012   -0.7016    0.0000 C   0  0  0  0  0  0  0  0  0  0  0  0
    2.0833   -1.1961    0.0037 H   0  0  0  0  0  0  0  0  0  0  0  0
    1.1972    0.6951    0.0019 C   0  0  0  0  0  0  0  0  0  0  0  0
    2.0658    1.1891    0.0031 H   0  0  0  0  0  0  0  0  0  0  0  0
  1  5  1  0
  5  8  1  0
  1  2  1  0
  1  3  1  0
  1  4  1  0
  5  6  1  0
  5  7  1  0
  8  9  1  0
  8 10  1  0
  8 11  1  0
 12 16  1  0
 16 17  2  0
 17 19  1  0
 19 21  2  0
 21 23  1  0
 23 25  2  0
 25 16  1  0
 12 13  1  0
 12 14  1  0
 12 15  1  0
 17 18  1  0
 19 20  1  0
 21 22  1  0
 23 24  1  0
 25 26  1  0
M  CHG  1   8   1
M  END
>  <PDB_ID>  (2715) 
pdb3woc

>  <RESIDUE_NAME>  (2715) 
LYS   PHE

>  <FRAG_NAME>  (2715) 
ETAM   MBZ

>  <FRAG_ATOM_NUM>  (2715) 
fragi: 11  fragj: 15

>  <atom.prop.CHAIN_ID>  (2715) 
A A A A A A A A A A A Z Z Z Z Z Z Z Z Z Z Z Z Z Z Z

>  <atom.prop.IS_HEAVY_ATOM>  (2715) 
1 0 0 0 1 0 0 1 0 0 0 1 0 0 0 1 1 0 1 0 1 0 1 0 1 0

>  <DIFUSE_FUNC_ATOM>  (2715) 
n/a

>  <FINAL_SINGLE_POINT_ENERGY>  (2715) 
0

>  <NONCOV_INTER_ENERGY_QM>  (2715) 
0

>  <FF_Energy>  (2715) 
-9.0

>  <QM_Energy>  (2715) 
-16.66

>  <source>  (2715) 
ETAM_MBZ

>  <Index>  (2715) 
29179

$$$$
ETAM-pdb3woc-C-LYS-66:MBZ-pdb3woc-C-PHE-45
     RDKit          3D

 26 25  0  0  0  0  0  0  0  0999 V2000
    1.5924   -0.0439    4.6488 C   0  0  0  0  0  0  0  0  0  0  0  0
    1.3622   -0.5259    5.4866 H   0  0  0  0  0  0  0  0  0  0  0  0
    1.3556    0.9173    4.7234 H   0  0  0  0  0  0  0  0  0  0  0  0
    2.6650   -0.1311    4.4754 H   0  0  0  0  0  0  0  0  0  0  0  0
    0.7970   -0.6523    3.5035 C   0  0  0  0  0  0  0  0  0  0  0  0
    1.2485   -0.4162    2.6345 H   0  0  0  0  0  0  0  0  0  0  0  0
    0.8046   -1.6553    3.6000 H   0  0  0  0  0  0  0  0  0  0  0  0
   -0.6110   -0.1767    3.4669 N   0  0  0  0  0  4  0  0  0  0  0  0
   -0.7318    0.5551    4.1372 H   0  0  0  0  0  0  0  0  0  0  0  0
   -0.8210    0.1691    2.5527 H   0  0  0  0  0  0  0  0  0  0  0  0
   -1.2243   -0.9356    3.6860 H   0  0  0  0  0  0  0  0  0  0  0  0
   -0.0033    2.9119    0.0032 C   0  0  0  0  0  0  0  0  0  0  0  0
    0.7756    3.2153    0.5286 H   0  0  0  0  0  0  0  0  0  0  0  0
   -0.8528    3.2135    0.4064 H   0  0  0  0  0  0  0  0  0  0  0  0
    0.0707    3.3533   -0.9906 H   0  0  0  0  0  0  0  0  0  0  0  0
   -0.0009    1.4023   -0.0007 C   0  0  0  0  0  0  0  0  0  0  0  0
   -1.1973    0.6938    0.0001 C   0  0  0  0  0  0  0  0  0  0  0  0
   -2.0645    1.1845    0.0001 H   0  0  0  0  0  0  0  0  0  0  0  0
   -1.2034   -0.6976   -0.0000 C   0  0  0  0  0  0  0  0  0  0  0  0
   -2.0793   -1.1909    0.0018 H   0  0  0  0  0  0  0  0  0  0  0  0
   -0.0012   -1.3938   -0.0012 C   0  0  0  0  0  0  0  0  0  0  0  0
   -0.0047   -2.3925   -0.0038 H   0  0  0  0  0  0  0  0  0  0  0  0
    1.2034   -0.6975   -0.0000 C   0  0  0  0  0  0  0  0  0  0  0  0
    2.0826   -1.1962    0.0012 H   0  0  0  0  0  0  0  0  0  0  0  0
    1.1994    0.6928    0.0017 C   0  0  0  0  0  0  0  0  0  0  0  0
    2.0656    1.1902    0.0042 H   0  0  0  0  0  0  0  0  0  0  0  0
  1  5  1  0
  5  8  1  0
  1  2  1  0
  1  3  1  0
  1  4  1  0
  5  6  1  0
  5  7  1  0
  8  9  1  0
  8 10  1  0
  8 11  1  0
 12 16  1  0
 16 17  2  0
 17 19  1  0
 19 21  2  0
 21 23  1  0
 23 25  2  0
 25 16  1  0
 12 13  1  0
 12 14  1  0
 12 15  1  0
 17 18  1  0
 19 20  1  0
 21 22  1  0
 23 24  1  0
 25 26  1  0
M  CHG  1   8   1
M  END
>  <PDB_ID>  (2716) 
pdb3woc

>  <RESIDUE_NAME>  (2716) 
LYS   PHE

>  <FRAG_NAME>  (2716) 
ETAM   MBZ

>  <FRAG_ATOM_NUM>  (2716) 
fragi: 11  fragj: 15

>  <atom.prop.CHAIN_ID>  (2716) 
A A A A A A A A A A A Z Z Z Z Z Z Z Z Z Z Z Z Z Z Z

>  <atom.prop.IS_HEAVY_ATOM>  (2716) 
1 0 0 0 1 0 0 1 0 0 0 1 0 0 0 1 1 0 1 0 1 0 1 0 1 0

>  <DIFUSE_FUNC_ATOM>  (2716) 
n/a

>  <FINAL_SINGLE_POINT_ENERGY>  (2716) 
0

>  <NONCOV_INTER_ENERGY_QM>  (2716) 
0

>  <FF_Energy>  (2716) 
-8.1

>  <QM_Energy>  (2716) 
-14.98

>  <source>  (2716) 
ETAM_MBZ

>  <Index>  (2716) 
29180

$$$$
ETAM-pdb3woc-E-LYS-66:MBZ-pdb3woc-E-PHE-45
     RDKit          3D

 26 25  0  0  0  0  0  0  0  0999 V2000
    2.4675   -0.3420    3.4550 C   0  0  0  0  0  0  0  0  0  0  0  0
    2.4060    0.5214    2.9696 H   0  0  0  0  0  0  0  0  0  0  0  0
    2.6763   -1.0828    2.8279 H   0  0  0  0  0  0  0  0  0  0  0  0
    3.2622   -0.2728    4.1978 H   0  0  0  0  0  0  0  0  0  0  0  0
    1.1405   -0.6242    4.1189 C   0  0  0  0  0  0  0  0  0  0  0  0
    1.0640   -1.6188    4.2900 H   0  0  0  0  0  0  0  0  0  0  0  0
    1.1172   -0.1582    5.0166 H   0  0  0  0  0  0  0  0  0  0  0  0
   -0.0254   -0.1824    3.3168 N   0  0  0  0  0  4  0  0  0  0  0  0
   -0.0689    0.8174    3.3129 H   0  0  0  0  0  0  0  0  0  0  0  0
    0.0688   -0.5148    2.3778 H   0  0  0  0  0  0  0  0  0  0  0  0
   -0.8653   -0.5511    3.7161 H   0  0  0  0  0  0  0  0  0  0  0  0
   -0.0038    2.9055    0.0019 C   0  0  0  0  0  0  0  0  0  0  0  0
    0.7772    3.2143    0.5236 H   0  0  0  0  0  0  0  0  0  0  0  0
   -0.8515    3.2119    0.4077 H   0  0  0  0  0  0  0  0  0  0  0  0
    0.0661    3.3462   -0.9926 H   0  0  0  0  0  0  0  0  0  0  0  0
   -0.0018    1.4033    0.0020 C   0  0  0  0  0  0  0  0  0  0  0  0
   -1.1988    0.6953   -0.0006 C   0  0  0  0  0  0  0  0  0  0  0  0
   -2.0658    1.1829   -0.0041 H   0  0  0  0  0  0  0  0  0  0  0  0
   -1.2026   -0.7002   -0.0000 C   0  0  0  0  0  0  0  0  0  0  0  0
   -2.0758   -1.1937    0.0033 H   0  0  0  0  0  0  0  0  0  0  0  0
    0.0039   -1.3946   -0.0023 C   0  0  0  0  0  0  0  0  0  0  0  0
   -0.0004   -2.3936   -0.0059 H   0  0  0  0  0  0  0  0  0  0  0  0
    1.2026   -0.6977   -0.0000 C   0  0  0  0  0  0  0  0  0  0  0  0
    2.0855   -1.1935    0.0025 H   0  0  0  0  0  0  0  0  0  0  0  0
    1.1967    0.6938    0.0009 C   0  0  0  0  0  0  0  0  0  0  0  0
    2.0641    1.1918    0.0001 H   0  0  0  0  0  0  0  0  0  0  0  0
  1  5  1  0
  5  8  1  0
  1  2  1  0
  1  3  1  0
  1  4  1  0
  5  6  1  0
  5  7  1  0
  8  9  1  0
  8 10  1  0
  8 11  1  0
 12 16  1  0
 16 17  2  0
 17 19  1  0
 19 21  2  0
 21 23  1  0
 23 25  2  0
 25 16  1  0
 12 13  1  0
 12 14  1  0
 12 15  1  0
 17 18  1  0
 19 20  1  0
 21 22  1  0
 23 24  1  0
 25 26  1  0
M  CHG  1   8   1
M  END
>  <PDB_ID>  (2717) 
pdb3woc

>  <RESIDUE_NAME>  (2717) 
LYS   PHE

>  <FRAG_NAME>  (2717) 
ETAM   MBZ

>  <FRAG_ATOM_NUM>  (2717) 
fragi: 11  fragj: 15

>  <atom.prop.CHAIN_ID>  (2717) 
A A A A A A A A A A A Z Z Z Z Z Z Z Z Z Z Z Z Z Z Z

>  <atom.prop.IS_HEAVY_ATOM>  (2717) 
1 0 0 0 1 0 0 1 0 0 0 1 0 0 0 1 1 0 1 0 1 0 1 0 1 0

>  <DIFUSE_FUNC_ATOM>  (2717) 
n/a

>  <FINAL_SINGLE_POINT_ENERGY>  (2717) 
0

>  <NONCOV_INTER_ENERGY_QM>  (2717) 
0

>  <FF_Energy>  (2717) 
-9.63

>  <QM_Energy>  (2717) 
-16.95

>  <source>  (2717) 
ETAM_MBZ

>  <Index>  (2717) 
29182

$$$$
ETAM-pdb4xuk-B-LYS-99:MBZ-pdb4xuk-B-PHE-72
     RDKit          3D

 26 25  0  0  0  0  0  0  0  0999 V2000
    0.6683    0.1013   -3.3933 C   0  0  0  0  0  0  0  0  0  0  0  0
    0.9260   -0.4256   -4.1959 H   0  0  0  0  0  0  0  0  0  0  0  0
    0.7894   -0.4418   -2.5696 H   0  0  0  0  0  0  0  0  0  0  0  0
    1.3088    0.9812   -3.3313 H   0  0  0  0  0  0  0  0  0  0  0  0
   -0.7956    0.4857   -3.5123 C   0  0  0  0  0  0  0  0  0  0  0  0
   -1.0765    0.9640   -2.6796 H   0  0  0  0  0  0  0  0  0  0  0  0
   -0.9110    1.0940   -4.2983 H   0  0  0  0  0  0  0  0  0  0  0  0
   -1.6562   -0.7188   -3.6970 N   0  0  0  0  0  4  0  0  0  0  0  0
   -2.6137   -0.4614   -3.5740 H   0  0  0  0  0  0  0  0  0  0  0  0
   -1.5216   -1.0824   -4.6173 H   0  0  0  0  0  0  0  0  0  0  0  0
   -1.4043   -1.4105   -3.0221 H   0  0  0  0  0  0  0  0  0  0  0  0
   -0.0077    2.9111    0.0050 C   0  0  0  0  0  0  0  0  0  0  0  0
   -0.7705    3.2140   -0.5418 H   0  0  0  0  0  0  0  0  0  0  0  0
    0.8529    3.2194   -0.3665 H   0  0  0  0  0  0  0  0  0  0  0  0
   -0.1166    3.3419    1.0002 H   0  0  0  0  0  0  0  0  0  0  0  0
   -0.0019    1.4020   -0.0013 C   0  0  0  0  0  0  0  0  0  0  0  0
   -1.1957    0.6910    0.0025 C   0  0  0  0  0  0  0  0  0  0  0  0
   -2.0643    1.1816    0.0054 H   0  0  0  0  0  0  0  0  0  0  0  0
   -1.2001   -0.6970   -0.0000 C   0  0  0  0  0  0  0  0  0  0  0  0
   -2.0760   -1.1925    0.0023 H   0  0  0  0  0  0  0  0  0  0  0  0
    0.0015   -1.3936   -0.0037 C   0  0  0  0  0  0  0  0  0  0  0  0
   -0.0039   -2.3923   -0.0092 H   0  0  0  0  0  0  0  0  0  0  0  0
    1.2001   -0.6978    0.0000 C   0  0  0  0  0  0  0  0  0  0  0  0
    2.0826   -1.1938    0.0022 H   0  0  0  0  0  0  0  0  0  0  0  0
    1.1960    0.6953    0.0025 C   0  0  0  0  0  0  0  0  0  0  0  0
    2.0632    1.1914    0.0066 H   0  0  0  0  0  0  0  0  0  0  0  0
  1  5  1  0
  5  8  1  0
  1  2  1  0
  1  3  1  0
  1  4  1  0
  5  6  1  0
  5  7  1  0
  8  9  1  0
  8 10  1  0
  8 11  1  0
 12 16  1  0
 16 17  2  0
 17 19  1  0
 19 21  2  0
 21 23  1  0
 23 25  2  0
 25 16  1  0
 12 13  1  0
 12 14  1  0
 12 15  1  0
 17 18  1  0
 19 20  1  0
 21 22  1  0
 23 24  1  0
 25 26  1  0
M  CHG  1   8   1
M  END
>  <PDB_ID>  (2718) 
pdb4xuk

>  <RESIDUE_NAME>  (2718) 
LYS   PHE

>  <FRAG_NAME>  (2718) 
ETAM   MBZ

>  <FRAG_ATOM_NUM>  (2718) 
fragi: 11  fragj: 15

>  <atom.prop.CHAIN_ID>  (2718) 
A A A A A A A A A A A Z Z Z Z Z Z Z Z Z Z Z Z Z Z Z

>  <atom.prop.IS_HEAVY_ATOM>  (2718) 
1 0 0 0 1 0 0 1 0 0 0 1 0 0 0 1 1 0 1 0 1 0 1 0 1 0

>  <DIFUSE_FUNC_ATOM>  (2718) 
n/a

>  <FINAL_SINGLE_POINT_ENERGY>  (2718) 
0

>  <NONCOV_INTER_ENERGY_QM>  (2718) 
0

>  <FF_Energy>  (2718) 
-5.44

>  <QM_Energy>  (2718) 
-11.26

>  <source>  (2718) 
ETAM_MBZ

>  <Index>  (2718) 
29185

$$$$
ETAM-pdb4xvs-L-GLH-3:MBZ-pdb4xvs-L-PHE-97
     RDKit          3D

 26 25  0  0  0  0  0  0  0  0999 V2000
    0.6770   -3.4751    2.7502 C   0  0  0  0  0  0  0  0  0  0  0  0
    0.8591   -2.8727    1.9731 H   0  0  0  0  0  0  0  0  0  0  0  0
    1.5264   -3.6403    3.2507 H   0  0  0  0  0  0  0  0  0  0  0  0
    0.3432   -4.4322    2.3497 H   0  0  0  0  0  0  0  0  0  0  0  0
   -0.2711   -2.7251    3.6956 C   0  0  0  0  0  0  0  0  0  0  0  0
   -0.4253   -3.4176    4.4228 H   0  0  0  0  0  0  0  0  0  0  0  0
    0.2127   -1.8519    4.1333 H   0  0  0  0  0  0  0  0  0  0  0  0
   -1.5401   -2.4136    3.0414 N   0  0  0  0  0  4  0  0  0  0  0  0
   -2.3019   -2.7675    3.5876 H   0  0  0  0  0  0  0  0  0  0  0  0
   -1.6411   -1.4215    2.9456 H   0  0  0  0  0  0  0  0  0  0  0  0
   -1.5676   -2.8333    2.1320 H   0  0  0  0  0  0  0  0  0  0  0  0
    0.0002    2.9158   -0.0152 C   0  0  0  0  0  0  0  0  0  0  0  0
    0.8672    3.2277    0.3338 H   0  0  0  0  0  0  0  0  0  0  0  0
   -0.7535    3.2309    0.5354 H   0  0  0  0  0  0  0  0  0  0  0  0
   -0.1231    3.3312   -1.0154 H   0  0  0  0  0  0  0  0  0  0  0  0
    0.0002    1.4053    0.0128 C   0  0  0  0  0  0  0  0  0  0  0  0
   -1.1943    0.6937    0.0057 C   0  0  0  0  0  0  0  0  0  0  0  0
   -2.0626    1.1779    0.0034 H   0  0  0  0  0  0  0  0  0  0  0  0
   -1.1938   -0.7024    0.0000 C   0  0  0  0  0  0  0  0  0  0  0  0
   -2.0736   -1.1922    0.0075 H   0  0  0  0  0  0  0  0  0  0  0  0
   -0.0005   -1.3883   -0.0143 C   0  0  0  0  0  0  0  0  0  0  0  0
   -0.0047   -2.3934   -0.0357 H   0  0  0  0  0  0  0  0  0  0  0  0
    1.1938   -0.7028    0.0000 C   0  0  0  0  0  0  0  0  0  0  0  0
    2.0774   -1.1976    0.0151 H   0  0  0  0  0  0  0  0  0  0  0  0
    1.1945    0.6944   -0.0042 C   0  0  0  0  0  0  0  0  0  0  0  0
    2.0647    1.1849   -0.0205 H   0  0  0  0  0  0  0  0  0  0  0  0
  1  5  1  0
  5  8  1  0
  1  2  1  0
  1  3  1  0
  1  4  1  0
  5  6  1  0
  5  7  1  0
  8  9  1  0
  8 10  1  0
  8 11  1  0
 12 16  1  0
 16 17  2  0
 17 19  1  0
 19 21  2  0
 21 23  1  0
 23 25  2  0
 25 16  1  0
 12 13  1  0
 12 14  1  0
 12 15  1  0
 17 18  1  0
 19 20  1  0
 21 22  1  0
 23 24  1  0
 25 26  1  0
M  CHG  1   8   1
M  END
>  <PDB_ID>  (2719) 
pdb4xvs

>  <RESIDUE_NAME>  (2719) 
GLH   PHE

>  <FRAG_NAME>  (2719) 
ETAM   MBZ

>  <FRAG_ATOM_NUM>  (2719) 
fragi: 11  fragj: 15

>  <atom.prop.CHAIN_ID>  (2719) 
A A A A A A A A A A A Z Z Z Z Z Z Z Z Z Z Z Z Z Z Z

>  <atom.prop.IS_HEAVY_ATOM>  (2719) 
1 0 0 0 1 0 0 1 0 0 0 1 0 0 0 1 1 0 1 0 1 0 1 0 1 0

>  <DIFUSE_FUNC_ATOM>  (2719) 
n/a

>  <FINAL_SINGLE_POINT_ENERGY>  (2719) 
0

>  <NONCOV_INTER_ENERGY_QM>  (2719) 
0

>  <FF_Energy>  (2719) 
-3.01

>  <QM_Energy>  (2719) 
-8.89

>  <source>  (2719) 
ETAM_MBZ

>  <Index>  (2719) 
29206

$$$$
ETAM-pdb3wqt-B-LYS-170:MBZ-pdb3wqt-B-PHE-49
     RDKit          3D

 26 25  0  0  0  0  0  0  0  0999 V2000
    3.2130   -2.9657    2.6179 C   0  0  0  0  0  0  0  0  0  0  0  0
    2.3965   -2.8896    3.1781 H   0  0  0  0  0  0  0  0  0  0  0  0
    3.9753   -3.3059    3.1561 H   0  0  0  0  0  0  0  0  0  0  0  0
    3.0181   -3.6599    1.8005 H   0  0  0  0  0  0  0  0  0  0  0  0
    3.5704   -1.5818    2.0918 C   0  0  0  0  0  0  0  0  0  0  0  0
    4.3689   -1.6625    1.4852 H   0  0  0  0  0  0  0  0  0  0  0  0
    2.7962   -1.2303    1.5528 H   0  0  0  0  0  0  0  0  0  0  0  0
    3.8823   -0.6182    3.1824 N   0  0  0  0  0  4  0  0  0  0  0  0
    3.1071    0.0005    3.3100 H   0  0  0  0  0  0  0  0  0  0  0  0
    4.0531   -1.1206    4.0301 H   0  0  0  0  0  0  0  0  0  0  0  0
    4.6946   -0.0902    2.9360 H   0  0  0  0  0  0  0  0  0  0  0  0
    0.0020    2.9197   -0.0514 C   0  0  0  0  0  0  0  0  0  0  0  0
    0.8840    3.2331    0.2607 H   0  0  0  0  0  0  0  0  0  0  0  0
   -0.7268    3.2458    0.5291 H   0  0  0  0  0  0  0  0  0  0  0  0
   -0.1615    3.3255   -1.0498 H   0  0  0  0  0  0  0  0  0  0  0  0
   -0.0007    1.4108   -0.0011 C   0  0  0  0  0  0  0  0  0  0  0  0
   -1.1983    0.6975    0.0010 C   0  0  0  0  0  0  0  0  0  0  0  0
   -2.0668    1.1830    0.0026 H   0  0  0  0  0  0  0  0  0  0  0  0
   -1.2032   -0.7039    0.0000 C   0  0  0  0  0  0  0  0  0  0  0  0
   -2.0800   -1.1928    0.0013 H   0  0  0  0  0  0  0  0  0  0  0  0
    0.0003   -1.4019   -0.0011 C   0  0  0  0  0  0  0  0  0  0  0  0
   -0.0022   -2.3989   -0.0029 H   0  0  0  0  0  0  0  0  0  0  0  0
    1.2032   -0.7015    0.0000 C   0  0  0  0  0  0  0  0  0  0  0  0
    2.0848   -1.1949    0.0011 H   0  0  0  0  0  0  0  0  0  0  0  0
    1.1987    0.6991    0.0011 C   0  0  0  0  0  0  0  0  0  0  0  0
    2.0668    1.1913    0.0031 H   0  0  0  0  0  0  0  0  0  0  0  0
  1  5  1  0
  5  8  1  0
  1  2  1  0
  1  3  1  0
  1  4  1  0
  5  6  1  0
  5  7  1  0
  8  9  1  0
  8 10  1  0
  8 11  1  0
 12 16  1  0
 16 17  2  0
 17 19  1  0
 19 21  2  0
 21 23  1  0
 23 25  2  0
 25 16  1  0
 12 13  1  0
 12 14  1  0
 12 15  1  0
 17 18  1  0
 19 20  1  0
 21 22  1  0
 23 24  1  0
 25 26  1  0
M  CHG  1   8   1
M  END
>  <PDB_ID>  (2720) 
pdb3wqt

>  <RESIDUE_NAME>  (2720) 
LYS   PHE

>  <FRAG_NAME>  (2720) 
ETAM   MBZ

>  <FRAG_ATOM_NUM>  (2720) 
fragi: 11  fragj: 15

>  <atom.prop.CHAIN_ID>  (2720) 
A A A A A A A A A A A Z Z Z Z Z Z Z Z Z Z Z Z Z Z Z

>  <atom.prop.IS_HEAVY_ATOM>  (2720) 
1 0 0 0 1 0 0 1 0 0 0 1 0 0 0 1 1 0 1 0 1 0 1 0 1 0

>  <DIFUSE_FUNC_ATOM>  (2720) 
n/a

>  <FINAL_SINGLE_POINT_ENERGY>  (2720) 
0

>  <NONCOV_INTER_ENERGY_QM>  (2720) 
0

>  <FF_Energy>  (2720) 
9.36

>  <QM_Energy>  (2720) 
-2.43

>  <source>  (2720) 
ETAM_MBZ

>  <Index>  (2720) 
29236

$$$$
ETAM-pdb3wsv-A-LYS-230:MBZ-pdb3wsv-B-PHE-15
     RDKit          3D

 26 25  0  0  0  0  0  0  0  0999 V2000
   -1.3495   -4.9741   -2.0242 C   0  0  0  0  0  0  0  0  0  0  0  0
   -1.7980   -5.6113   -2.6452 H   0  0  0  0  0  0  0  0  0  0  0  0
   -1.1948   -4.1023   -2.4807 H   0  0  0  0  0  0  0  0  0  0  0  0
   -1.9986   -4.8088   -1.1642 H   0  0  0  0  0  0  0  0  0  0  0  0
   -0.0016   -5.5569   -1.6213 C   0  0  0  0  0  0  0  0  0  0  0  0
   -0.1555   -6.4238   -1.1368 H   0  0  0  0  0  0  0  0  0  0  0  0
    0.5320   -5.7450   -2.4527 H   0  0  0  0  0  0  0  0  0  0  0  0
    0.7713   -4.6369   -0.7436 N   0  0  0  0  0  4  0  0  0  0  0  0
    1.6177   -4.3717   -1.2039 H   0  0  0  0  0  0  0  0  0  0  0  0
    0.2242   -3.8217   -0.5531 H   0  0  0  0  0  0  0  0  0  0  0  0
    0.9880   -5.1017    0.1144 H   0  0  0  0  0  0  0  0  0  0  0  0
   -0.0032    2.9057    0.0154 C   0  0  0  0  0  0  0  0  0  0  0  0
    0.9278    3.2150    0.1400 H   0  0  0  0  0  0  0  0  0  0  0  0
   -0.5843    3.2047    0.7572 H   0  0  0  0  0  0  0  0  0  0  0  0
   -0.3816    3.3540   -0.9032 H   0  0  0  0  0  0  0  0  0  0  0  0
    0.0005    1.4056    0.0008 C   0  0  0  0  0  0  0  0  0  0  0  0
   -1.2024    0.6951   -0.0013 C   0  0  0  0  0  0  0  0  0  0  0  0
   -2.0670    1.1869   -0.0055 H   0  0  0  0  0  0  0  0  0  0  0  0
   -1.2109   -0.7011   -0.0000 C   0  0  0  0  0  0  0  0  0  0  0  0
   -2.0830   -1.1943    0.0017 H   0  0  0  0  0  0  0  0  0  0  0  0
    0.0005   -1.4014    0.0008 C   0  0  0  0  0  0  0  0  0  0  0  0
   -0.0014   -2.3966    0.0014 H   0  0  0  0  0  0  0  0  0  0  0  0
    1.2109   -0.6974    0.0000 C   0  0  0  0  0  0  0  0  0  0  0  0
    2.0881   -1.1934    0.0011 H   0  0  0  0  0  0  0  0  0  0  0  0
    1.2015    0.6992   -0.0003 C   0  0  0  0  0  0  0  0  0  0  0  0
    2.0677    1.1968   -0.0021 H   0  0  0  0  0  0  0  0  0  0  0  0
  1  5  1  0
  5  8  1  0
  1  2  1  0
  1  3  1  0
  1  4  1  0
  5  6  1  0
  5  7  1  0
  8  9  1  0
  8 10  1  0
  8 11  1  0
 12 16  1  0
 16 17  2  0
 17 19  1  0
 19 21  2  0
 21 23  1  0
 23 25  2  0
 25 16  1  0
 12 13  1  0
 12 14  1  0
 12 15  1  0
 17 18  1  0
 19 20  1  0
 21 22  1  0
 23 24  1  0
 25 26  1  0
M  CHG  1   8   1
M  END
>  <PDB_ID>  (2721) 
pdb3wsv

>  <RESIDUE_NAME>  (2721) 
LYS   PHE

>  <FRAG_NAME>  (2721) 
ETAM   MBZ

>  <FRAG_ATOM_NUM>  (2721) 
fragi: 11  fragj: 15

>  <atom.prop.CHAIN_ID>  (2721) 
A A A A A A A A A A A Z Z Z Z Z Z Z Z Z Z Z Z Z Z Z

>  <atom.prop.IS_HEAVY_ATOM>  (2721) 
1 0 0 0 1 0 0 1 0 0 0 1 0 0 0 1 1 0 1 0 1 0 1 0 1 0

>  <DIFUSE_FUNC_ATOM>  (2721) 
n/a

>  <FINAL_SINGLE_POINT_ENERGY>  (2721) 
0

>  <NONCOV_INTER_ENERGY_QM>  (2721) 
0

>  <FF_Energy>  (2721) 
2.8

>  <QM_Energy>  (2721) 
-2.47

>  <source>  (2721) 
ETAM_MBZ

>  <Index>  (2721) 
29257

$$$$
ETAM-pdb3wv7-A-LYS-10:MBZ-pdb3wv7-B-PHE-139
     RDKit          3D

 26 25  0  0  0  0  0  0  0  0999 V2000
    5.3929   -0.7768   -3.7108 C   0  0  0  0  0  0  0  0  0  0  0  0
    6.3688   -0.7655   -3.5017 H   0  0  0  0  0  0  0  0  0  0  0  0
    5.2216   -0.2709   -4.5537 H   0  0  0  0  0  0  0  0  0  0  0  0
    5.0925   -1.8125   -3.8689 H   0  0  0  0  0  0  0  0  0  0  0  0
    4.6370   -0.1003   -2.5686 C   0  0  0  0  0  0  0  0  0  0  0  0
    4.6681   -0.7236   -1.7466 H   0  0  0  0  0  0  0  0  0  0  0  0
    5.1672    0.7366   -2.2801 H   0  0  0  0  0  0  0  0  0  0  0  0
    3.2054    0.3091   -2.7900 N   0  0  0  0  0  4  0  0  0  0  0  0
    2.6925   -0.4780   -3.1232 H   0  0  0  0  0  0  0  0  0  0  0  0
    2.8224    0.6253   -1.9256 H   0  0  0  0  0  0  0  0  0  0  0  0
    3.1796    1.0427   -3.4639 H   0  0  0  0  0  0  0  0  0  0  0  0
    0.0464    2.8962    0.0095 C   0  0  0  0  0  0  0  0  0  0  0  0
   -0.5737    3.2332   -0.6733 H   0  0  0  0  0  0  0  0  0  0  0  0
    0.9653    3.2151   -0.1264 H   0  0  0  0  0  0  0  0  0  0  0  0
   -0.2865    3.3089    0.9618 H   0  0  0  0  0  0  0  0  0  0  0  0
    0.0319    1.4190    0.0007 C   0  0  0  0  0  0  0  0  0  0  0  0
   -1.2075    0.7160   -0.0743 C   0  0  0  0  0  0  0  0  0  0  0  0
   -2.0435    1.2033   -0.1768 H   0  0  0  0  0  0  0  0  0  0  0  0
   -1.1993   -0.6914   -0.0000 C   0  0  0  0  0  0  0  0  0  0  0  0
   -2.0941   -1.1724    0.0404 H   0  0  0  0  0  0  0  0  0  0  0  0
   -0.0202   -1.4093    0.0201 C   0  0  0  0  0  0  0  0  0  0  0  0
   -0.0260   -2.4003    0.0475 H   0  0  0  0  0  0  0  0  0  0  0  0
    1.1993   -0.7126    0.0000 C   0  0  0  0  0  0  0  0  0  0  0  0
    2.0693   -1.2150   -0.0511 H   0  0  0  0  0  0  0  0  0  0  0  0
    1.1959    0.6783    0.0535 C   0  0  0  0  0  0  0  0  0  0  0  0
    2.0836    1.1605    0.1334 H   0  0  0  0  0  0  0  0  0  0  0  0
  1  5  1  0
  5  8  1  0
  1  2  1  0
  1  3  1  0
  1  4  1  0
  5  6  1  0
  5  7  1  0
  8  9  1  0
  8 10  1  0
  8 11  1  0
 12 16  1  0
 16 17  2  0
 17 19  1  0
 19 21  2  0
 21 23  1  0
 23 25  2  0
 25 16  1  0
 12 13  1  0
 12 14  1  0
 12 15  1  0
 17 18  1  0
 19 20  1  0
 21 22  1  0
 23 24  1  0
 25 26  1  0
M  CHG  1   8   1
M  END
>  <PDB_ID>  (2722) 
pdb3wv7

>  <RESIDUE_NAME>  (2722) 
LYS   PHE

>  <FRAG_NAME>  (2722) 
ETAM   MBZ

>  <FRAG_ATOM_NUM>  (2722) 
fragi: 11  fragj: 15

>  <atom.prop.CHAIN_ID>  (2722) 
A A A A A A A A A A A Z Z Z Z Z Z Z Z Z Z Z Z Z Z Z

>  <atom.prop.IS_HEAVY_ATOM>  (2722) 
1 0 0 0 1 0 0 1 0 0 0 1 0 0 0 1 1 0 1 0 1 0 1 0 1 0

>  <DIFUSE_FUNC_ATOM>  (2722) 
n/a

>  <FINAL_SINGLE_POINT_ENERGY>  (2722) 
0

>  <NONCOV_INTER_ENERGY_QM>  (2722) 
0

>  <FF_Energy>  (2722) 
-2.84

>  <QM_Energy>  (2722) 
-8.76

>  <source>  (2722) 
ETAM_MBZ

>  <Index>  (2722) 
29287

$$$$
ETAM-pdb3wv7-B-LYS-10:MBZ-pdb3wv7-C-PHE-139
     RDKit          3D

 26 25  0  0  0  0  0  0  0  0999 V2000
    4.7464   -1.0273   -4.2469 C   0  0  0  0  0  0  0  0  0  0  0  0
    5.6637   -0.9357   -4.5944 H   0  0  0  0  0  0  0  0  0  0  0  0
    4.0812   -1.0755   -4.9716 H   0  0  0  0  0  0  0  0  0  0  0  0
    4.6803   -1.9248   -3.6319 H   0  0  0  0  0  0  0  0  0  0  0  0
    4.4310    0.2228   -3.3908 C   0  0  0  0  0  0  0  0  0  0  0  0
    4.8286    0.0899   -2.4731 H   0  0  0  0  0  0  0  0  0  0  0  0
    4.8825    1.0208   -3.8129 H   0  0  0  0  0  0  0  0  0  0  0  0
    2.9542    0.5230   -3.2412 N   0  0  0  0  0  4  0  0  0  0  0  0
    2.7566    1.3848   -3.6989 H   0  0  0  0  0  0  0  0  0  0  0  0
    2.4351   -0.2161   -3.6585 H   0  0  0  0  0  0  0  0  0  0  0  0
    2.7392    0.5903   -2.2719 H   0  0  0  0  0  0  0  0  0  0  0  0
    0.0109    2.9697    0.0280 C   0  0  0  0  0  0  0  0  0  0  0  0
   -0.6525    3.2806   -0.6156 H   0  0  0  0  0  0  0  0  0  0  0  0
    0.9191    3.2632   -0.1747 H   0  0  0  0  0  0  0  0  0  0  0  0
   -0.2631    3.3340    1.0181 H   0  0  0  0  0  0  0  0  0  0  0  0
    0.0100    1.4293   -0.0266 C   0  0  0  0  0  0  0  0  0  0  0  0
   -1.2107    0.6858    0.0381 C   0  0  0  0  0  0  0  0  0  0  0  0
   -2.0661    1.1751    0.1091 H   0  0  0  0  0  0  0  0  0  0  0  0
   -1.1982   -0.7092   -0.0000 C   0  0  0  0  0  0  0  0  0  0  0  0
   -2.0796   -1.2067   -0.0178 H   0  0  0  0  0  0  0  0  0  0  0  0
   -0.0009   -1.4100   -0.0118 C   0  0  0  0  0  0  0  0  0  0  0  0
   -0.0020   -2.4041   -0.0289 H   0  0  0  0  0  0  0  0  0  0  0  0
    1.1982   -0.7052    0.0000 C   0  0  0  0  0  0  0  0  0  0  0  0
    2.0849   -1.1947    0.0097 H   0  0  0  0  0  0  0  0  0  0  0  0
    1.2017    0.7092    0.0003 C   0  0  0  0  0  0  0  0  0  0  0  0
    2.0754    1.1891    0.0194 H   0  0  0  0  0  0  0  0  0  0  0  0
  1  5  1  0
  5  8  1  0
  1  2  1  0
  1  3  1  0
  1  4  1  0
  5  6  1  0
  5  7  1  0
  8  9  1  0
  8 10  1  0
  8 11  1  0
 12 16  1  0
 16 17  2  0
 17 19  1  0
 19 21  2  0
 21 23  1  0
 23 25  2  0
 25 16  1  0
 12 13  1  0
 12 14  1  0
 12 15  1  0
 17 18  1  0
 19 20  1  0
 21 22  1  0
 23 24  1  0
 25 26  1  0
M  CHG  1   8   1
M  END
>  <PDB_ID>  (2723) 
pdb3wv7

>  <RESIDUE_NAME>  (2723) 
LYS   PHE

>  <FRAG_NAME>  (2723) 
ETAM   MBZ

>  <FRAG_ATOM_NUM>  (2723) 
fragi: 11  fragj: 15

>  <atom.prop.CHAIN_ID>  (2723) 
A A A A A A A A A A A Z Z Z Z Z Z Z Z Z Z Z Z Z Z Z

>  <atom.prop.IS_HEAVY_ATOM>  (2723) 
1 0 0 0 1 0 0 1 0 0 0 1 0 0 0 1 1 0 1 0 1 0 1 0 1 0

>  <DIFUSE_FUNC_ATOM>  (2723) 
n/a

>  <FINAL_SINGLE_POINT_ENERGY>  (2723) 
0

>  <NONCOV_INTER_ENERGY_QM>  (2723) 
0

>  <FF_Energy>  (2723) 
-3.02

>  <QM_Energy>  (2723) 
-8.12

>  <source>  (2723) 
ETAM_MBZ

>  <Index>  (2723) 
29289

$$$$
ETAM-pdb3wsv-B-LYS-229:MBZ-pdb3wsv-A-PHE-15
     RDKit          3D

 26 25  0  0  0  0  0  0  0  0999 V2000
   -4.0166    2.9131    0.7894 C   0  0  0  0  0  0  0  0  0  0  0  0
   -4.0898    3.8097    0.3612 H   0  0  0  0  0  0  0  0  0  0  0  0
   -3.0617    2.6919    0.9621 H   0  0  0  0  0  0  0  0  0  0  0  0
   -4.5507    2.9334    1.7394 H   0  0  0  0  0  0  0  0  0  0  0  0
   -4.5875    1.8688   -0.1745 C   0  0  0  0  0  0  0  0  0  0  0  0
   -5.5779    2.0224   -0.2607 H   0  0  0  0  0  0  0  0  0  0  0  0
   -4.1649    2.0043   -1.0777 H   0  0  0  0  0  0  0  0  0  0  0  0
   -4.3414    0.4810    0.2816 N   0  0  0  0  0  4  0  0  0  0  0  0
   -4.7977    0.3313    1.1596 H   0  0  0  0  0  0  0  0  0  0  0  0
   -4.7026   -0.1620   -0.3941 H   0  0  0  0  0  0  0  0  0  0  0  0
   -3.3573    0.3326    0.3880 H   0  0  0  0  0  0  0  0  0  0  0  0
    0.0024    2.8998    0.0108 C   0  0  0  0  0  0  0  0  0  0  0  0
    0.9312    3.2078   -0.1434 H   0  0  0  0  0  0  0  0  0  0  0  0
   -0.3317    3.2030    0.8926 H   0  0  0  0  0  0  0  0  0  0  0  0
   -0.6278    3.3522   -0.7549 H   0  0  0  0  0  0  0  0  0  0  0  0
   -0.0007    1.4032   -0.0006 C   0  0  0  0  0  0  0  0  0  0  0  0
   -1.1953    0.6967   -0.0002 C   0  0  0  0  0  0  0  0  0  0  0  0
   -2.0627    1.1855   -0.0016 H   0  0  0  0  0  0  0  0  0  0  0  0
   -1.2024   -0.6980   -0.0000 C   0  0  0  0  0  0  0  0  0  0  0  0
   -2.0782   -1.1901    0.0008 H   0  0  0  0  0  0  0  0  0  0  0  0
    0.0016   -1.3976    0.0005 C   0  0  0  0  0  0  0  0  0  0  0  0
   -0.0033   -2.3948    0.0008 H   0  0  0  0  0  0  0  0  0  0  0  0
    1.2024   -0.6991    0.0000 C   0  0  0  0  0  0  0  0  0  0  0  0
    2.0844   -1.1939    0.0004 H   0  0  0  0  0  0  0  0  0  0  0  0
    1.1944    0.6948    0.0003 C   0  0  0  0  0  0  0  0  0  0  0  0
    2.0640    1.1909    0.0003 H   0  0  0  0  0  0  0  0  0  0  0  0
  1  5  1  0
  5  8  1  0
  1  2  1  0
  1  3  1  0
  1  4  1  0
  5  6  1  0
  5  7  1  0
  8  9  1  0
  8 10  1  0
  8 11  1  0
 12 16  1  0
 16 17  2  0
 17 19  1  0
 19 21  2  0
 21 23  1  0
 23 25  2  0
 25 16  1  0
 12 13  1  0
 12 14  1  0
 12 15  1  0
 17 18  1  0
 19 20  1  0
 21 22  1  0
 23 24  1  0
 25 26  1  0
M  CHG  1   8   1
M  END
>  <PDB_ID>  (2724) 
pdb3wsv

>  <RESIDUE_NAME>  (2724) 
LYS   PHE

>  <FRAG_NAME>  (2724) 
ETAM   MBZ

>  <FRAG_ATOM_NUM>  (2724) 
fragi: 11  fragj: 15

>  <atom.prop.CHAIN_ID>  (2724) 
A A A A A A A A A A A Z Z Z Z Z Z Z Z Z Z Z Z Z Z Z

>  <atom.prop.IS_HEAVY_ATOM>  (2724) 
1 0 0 0 1 0 0 1 0 0 0 1 0 0 0 1 1 0 1 0 1 0 1 0 1 0

>  <DIFUSE_FUNC_ATOM>  (2724) 
n/a

>  <FINAL_SINGLE_POINT_ENERGY>  (2724) 
0

>  <NONCOV_INTER_ENERGY_QM>  (2724) 
0

>  <FF_Energy>  (2724) 
4.23

>  <QM_Energy>  (2724) 
-3.22

>  <source>  (2724) 
ETAM_MBZ

>  <Index>  (2724) 
29295

$$$$
ETAM-pdb3wvj-A-LYS-75:MBZ-pdb3wvj-A-PHE-175
     RDKit          3D

 26 25  0  0  0  0  0  0  0  0999 V2000
    0.0061   -3.3439    2.5674 C   0  0  0  0  0  0  0  0  0  0  0  0
    0.3866   -4.2293    2.4062 H   0  0  0  0  0  0  0  0  0  0  0  0
   -0.1362   -2.8271    1.7518 H   0  0  0  0  0  0  0  0  0  0  0  0
   -0.9145   -3.4169    3.1465 H   0  0  0  0  0  0  0  0  0  0  0  0
    0.9938   -2.5648    3.4475 C   0  0  0  0  0  0  0  0  0  0  0  0
    0.7655   -1.6041    3.3989 H   0  0  0  0  0  0  0  0  0  0  0  0
    0.9226   -2.9045    4.3738 H   0  0  0  0  0  0  0  0  0  0  0  0
    2.3476   -2.7928    2.9251 N   0  0  0  0  0  4  0  0  0  0  0  0
    2.8238   -3.4680    3.4935 H   0  0  0  0  0  0  0  0  0  0  0  0
    2.2969   -3.1349    1.9840 H   0  0  0  0  0  0  0  0  0  0  0  0
    2.8665   -1.9341    2.9343 H   0  0  0  0  0  0  0  0  0  0  0  0
   -0.0221    2.8739    0.0135 C   0  0  0  0  0  0  0  0  0  0  0  0
    0.7396    3.1897    0.5547 H   0  0  0  0  0  0  0  0  0  0  0  0
   -0.8847    3.1756    0.3843 H   0  0  0  0  0  0  0  0  0  0  0  0
    0.0785    3.3043   -0.9828 H   0  0  0  0  0  0  0  0  0  0  0  0
   -0.0088    1.3827    0.0057 C   0  0  0  0  0  0  0  0  0  0  0  0
   -1.1871    0.6804    0.0170 C   0  0  0  0  0  0  0  0  0  0  0  0
   -2.0604    1.1849    0.0376 H   0  0  0  0  0  0  0  0  0  0  0  0
   -1.2044   -0.6780    0.0000 C   0  0  0  0  0  0  0  0  0  0  0  0
   -2.0781   -1.1797    0.0030 H   0  0  0  0  0  0  0  0  0  0  0  0
   -0.0081   -1.3677   -0.0196 C   0  0  0  0  0  0  0  0  0  0  0  0
   -0.0190   -2.3769   -0.0494 H   0  0  0  0  0  0  0  0  0  0  0  0
    1.2044   -0.6978   -0.0000 C   0  0  0  0  0  0  0  0  0  0  0  0
    2.0732   -1.2074    0.0178 H   0  0  0  0  0  0  0  0  0  0  0  0
    1.2040    0.6804   -0.0032 C   0  0  0  0  0  0  0  0  0  0  0  0
    2.0609    1.1867   -0.0122 H   0  0  0  0  0  0  0  0  0  0  0  0
  1  5  1  0
  5  8  1  0
  1  2  1  0
  1  3  1  0
  1  4  1  0
  5  6  1  0
  5  7  1  0
  8  9  1  0
  8 10  1  0
  8 11  1  0
 12 16  1  0
 16 17  2  0
 17 19  1  0
 19 21  2  0
 21 23  1  0
 23 25  2  0
 25 16  1  0
 12 13  1  0
 12 14  1  0
 12 15  1  0
 17 18  1  0
 19 20  1  0
 21 22  1  0
 23 24  1  0
 25 26  1  0
M  CHG  1   8   1
M  END
>  <PDB_ID>  (2725) 
pdb3wvj

>  <RESIDUE_NAME>  (2725) 
LYS   PHE

>  <FRAG_NAME>  (2725) 
ETAM   MBZ

>  <FRAG_ATOM_NUM>  (2725) 
fragi: 11  fragj: 15

>  <atom.prop.CHAIN_ID>  (2725) 
A A A A A A A A A A A Z Z Z Z Z Z Z Z Z Z Z Z Z Z Z

>  <atom.prop.IS_HEAVY_ATOM>  (2725) 
1 0 0 0 1 0 0 1 0 0 0 1 0 0 0 1 1 0 1 0 1 0 1 0 1 0

>  <DIFUSE_FUNC_ATOM>  (2725) 
n/a

>  <FINAL_SINGLE_POINT_ENERGY>  (2725) 
0

>  <NONCOV_INTER_ENERGY_QM>  (2725) 
0

>  <FF_Energy>  (2725) 
2.82

>  <QM_Energy>  (2725) 
-4.8

>  <source>  (2725) 
ETAM_MBZ

>  <Index>  (2725) 
29308

$$$$
ETAM-pdb4y2e-A-LYS-169:MBZ-pdb4y2e-A-PHE-145
     RDKit          3D

 26 25  0  0  0  0  0  0  0  0999 V2000
    4.7365   -2.1692   -1.1198 C   0  0  0  0  0  0  0  0  0  0  0  0
    4.6359   -2.8898   -0.4397 H   0  0  0  0  0  0  0  0  0  0  0  0
    4.3900   -1.3079   -0.7620 H   0  0  0  0  0  0  0  0  0  0  0  0
    5.7959   -2.0511   -1.3473 H   0  0  0  0  0  0  0  0  0  0  0  0
    3.9424   -2.5431   -2.3505 C   0  0  0  0  0  0  0  0  0  0  0  0
    4.0241   -1.8160   -3.0293 H   0  0  0  0  0  0  0  0  0  0  0  0
    4.2992   -3.3968   -2.7267 H   0  0  0  0  0  0  0  0  0  0  0  0
    2.5031   -2.7267   -2.0047 N   0  0  0  0  0  4  0  0  0  0  0  0
    2.3189   -2.2986   -1.1204 H   0  0  0  0  0  0  0  0  0  0  0  0
    1.9375   -2.2998   -2.7095 H   0  0  0  0  0  0  0  0  0  0  0  0
    2.2973   -3.7028   -1.9542 H   0  0  0  0  0  0  0  0  0  0  0  0
   -0.0091    2.8924   -0.0244 C   0  0  0  0  0  0  0  0  0  0  0  0
   -0.8194    3.1909   -0.5325 H   0  0  0  0  0  0  0  0  0  0  0  0
    0.8133    3.2038   -0.5063 H   0  0  0  0  0  0  0  0  0  0  0  0
   -0.0285    3.3964    0.9419 H   0  0  0  0  0  0  0  0  0  0  0  0
    0.0016    1.3993   -0.0074 C   0  0  0  0  0  0  0  0  0  0  0  0
   -1.1983    0.6927   -0.0081 C   0  0  0  0  0  0  0  0  0  0  0  0
   -2.0630    1.1936   -0.0165 H   0  0  0  0  0  0  0  0  0  0  0  0
   -1.2193   -0.6930   -0.0000 C   0  0  0  0  0  0  0  0  0  0  0  0
   -2.0880   -1.1862   -0.0111 H   0  0  0  0  0  0  0  0  0  0  0  0
   -0.0065   -1.3905    0.0253 C   0  0  0  0  0  0  0  0  0  0  0  0
   -0.0118   -2.3901    0.0609 H   0  0  0  0  0  0  0  0  0  0  0  0
    1.2193   -0.7008    0.0000 C   0  0  0  0  0  0  0  0  0  0  0  0
    2.0849   -1.2007   -0.0100 H   0  0  0  0  0  0  0  0  0  0  0  0
    1.2033    0.6923   -0.0097 C   0  0  0  0  0  0  0  0  0  0  0  0
    2.0697    1.1940   -0.0188 H   0  0  0  0  0  0  0  0  0  0  0  0
  1  5  1  0
  5  8  1  0
  1  2  1  0
  1  3  1  0
  1  4  1  0
  5  6  1  0
  5  7  1  0
  8  9  1  0
  8 10  1  0
  8 11  1  0
 12 16  1  0
 16 17  2  0
 17 19  1  0
 19 21  2  0
 21 23  1  0
 23 25  2  0
 25 16  1  0
 12 13  1  0
 12 14  1  0
 12 15  1  0
 17 18  1  0
 19 20  1  0
 21 22  1  0
 23 24  1  0
 25 26  1  0
M  CHG  1   8   1
M  END
>  <PDB_ID>  (2726) 
pdb4y2e

>  <RESIDUE_NAME>  (2726) 
LYS   PHE

>  <FRAG_NAME>  (2726) 
ETAM   MBZ

>  <FRAG_ATOM_NUM>  (2726) 
fragi: 11  fragj: 15

>  <atom.prop.CHAIN_ID>  (2726) 
A A A A A A A A A A A Z Z Z Z Z Z Z Z Z Z Z Z Z Z Z

>  <atom.prop.IS_HEAVY_ATOM>  (2726) 
1 0 0 0 1 0 0 1 0 0 0 1 0 0 0 1 1 0 1 0 1 0 1 0 1 0

>  <DIFUSE_FUNC_ATOM>  (2726) 
n/a

>  <FINAL_SINGLE_POINT_ENERGY>  (2726) 
0

>  <NONCOV_INTER_ENERGY_QM>  (2726) 
0

>  <FF_Energy>  (2726) 
0.69

>  <QM_Energy>  (2726) 
-5.42

>  <source>  (2726) 
ETAM_MBZ

>  <Index>  (2726) 
29312

$$$$
ETAM-pdb4y2e-A-LYS-265:MBZ-pdb4y2e-A-PHE-261
     RDKit          3D

 26 25  0  0  0  0  0  0  0  0999 V2000
    1.5839   -1.2277    3.6991 C   0  0  0  0  0  0  0  0  0  0  0  0
    1.1171   -0.9328    2.8720 H   0  0  0  0  0  0  0  0  0  0  0  0
    2.5633   -1.2947    3.5387 H   0  0  0  0  0  0  0  0  0  0  0  0
    1.4029   -0.4969    4.4873 H   0  0  0  0  0  0  0  0  0  0  0  0
    1.0616   -2.5986    4.0877 C   0  0  0  0  0  0  0  0  0  0  0  0
    1.8195   -3.1195    4.5122 H   0  0  0  0  0  0  0  0  0  0  0  0
    0.3450   -2.4778    4.7941 H   0  0  0  0  0  0  0  0  0  0  0  0
    0.5216   -3.3448    2.9600 N   0  0  0  0  0  4  0  0  0  0  0  0
   -0.0124   -4.1314    3.2866 H   0  0  0  0  0  0  0  0  0  0  0  0
   -0.0777   -2.7566    2.4085 H   0  0  0  0  0  0  0  0  0  0  0  0
    1.2677   -3.6811    2.3771 H   0  0  0  0  0  0  0  0  0  0  0  0
   -0.0193    2.9203   -0.0201 C   0  0  0  0  0  0  0  0  0  0  0  0
   -0.8078    3.2035   -0.5522 H   0  0  0  0  0  0  0  0  0  0  0  0
    0.8224    3.2228   -0.4482 H   0  0  0  0  0  0  0  0  0  0  0  0
   -0.0867    3.3965    0.9581 H   0  0  0  0  0  0  0  0  0  0  0  0
   -0.0032    1.4054    0.0066 C   0  0  0  0  0  0  0  0  0  0  0  0
   -1.1935    0.6923    0.0093 C   0  0  0  0  0  0  0  0  0  0  0  0
   -2.0658    1.1803    0.0168 H   0  0  0  0  0  0  0  0  0  0  0  0
   -1.2039   -0.7039    0.0000 C   0  0  0  0  0  0  0  0  0  0  0  0
   -2.0787   -1.1926    0.0025 H   0  0  0  0  0  0  0  0  0  0  0  0
   -0.0004   -1.3965   -0.0105 C   0  0  0  0  0  0  0  0  0  0  0  0
   -0.0038   -2.3978   -0.0257 H   0  0  0  0  0  0  0  0  0  0  0  0
    1.2039   -0.7033   -0.0000 C   0  0  0  0  0  0  0  0  0  0  0  0
    2.0839   -1.1918    0.0133 H   0  0  0  0  0  0  0  0  0  0  0  0
    1.1971    0.7059   -0.0055 C   0  0  0  0  0  0  0  0  0  0  0  0
    2.0637    1.1952   -0.0185 H   0  0  0  0  0  0  0  0  0  0  0  0
  1  5  1  0
  5  8  1  0
  1  2  1  0
  1  3  1  0
  1  4  1  0
  5  6  1  0
  5  7  1  0
  8  9  1  0
  8 10  1  0
  8 11  1  0
 12 16  1  0
 16 17  2  0
 17 19  1  0
 19 21  2  0
 21 23  1  0
 23 25  2  0
 25 16  1  0
 12 13  1  0
 12 14  1  0
 12 15  1  0
 17 18  1  0
 19 20  1  0
 21 22  1  0
 23 24  1  0
 25 26  1  0
M  CHG  1   8   1
M  END
>  <PDB_ID>  (2727) 
pdb4y2e

>  <RESIDUE_NAME>  (2727) 
LYS   PHE

>  <FRAG_NAME>  (2727) 
ETAM   MBZ

>  <FRAG_ATOM_NUM>  (2727) 
fragi: 11  fragj: 15

>  <atom.prop.CHAIN_ID>  (2727) 
A A A A A A A A A A A Z Z Z Z Z Z Z Z Z Z Z Z Z Z Z

>  <atom.prop.IS_HEAVY_ATOM>  (2727) 
1 0 0 0 1 0 0 1 0 0 0 1 0 0 0 1 1 0 1 0 1 0 1 0 1 0

>  <DIFUSE_FUNC_ATOM>  (2727) 
n/a

>  <FINAL_SINGLE_POINT_ENERGY>  (2727) 
0

>  <NONCOV_INTER_ENERGY_QM>  (2727) 
0

>  <FF_Energy>  (2727) 
-2.9

>  <QM_Energy>  (2727) 
-8.94

>  <source>  (2727) 
ETAM_MBZ

>  <Index>  (2727) 
29313

$$$$
ETAM-pdb4y42-B-LYS-22:MBZ-pdb4y42-B-PHE-29
     RDKit          3D

 26 25  0  0  0  0  0  0  0  0999 V2000
   -0.9517   -1.2106   -3.7300 C   0  0  0  0  0  0  0  0  0  0  0  0
   -1.8047   -0.9821   -3.2742 H   0  0  0  0  0  0  0  0  0  0  0  0
   -0.6205   -2.0964   -3.4256 H   0  0  0  0  0  0  0  0  0  0  0  0
   -1.1309   -1.2548   -4.8043 H   0  0  0  0  0  0  0  0  0  0  0  0
    0.0835   -0.1577   -3.3880 C   0  0  0  0  0  0  0  0  0  0  0  0
   -0.1531    0.6921   -3.8509 H   0  0  0  0  0  0  0  0  0  0  0  0
    0.0898   -0.0177   -2.4013 H   0  0  0  0  0  0  0  0  0  0  0  0
    1.4170   -0.6083   -3.8320 N   0  0  0  0  0  4  0  0  0  0  0  0
    2.1204   -0.2229   -3.2327 H   0  0  0  0  0  0  0  0  0  0  0  0
    1.4643   -1.6083   -3.7966 H   0  0  0  0  0  0  0  0  0  0  0  0
    1.5806   -0.3030   -4.7722 H   0  0  0  0  0  0  0  0  0  0  0  0
   -0.0036    2.9111   -0.0220 C   0  0  0  0  0  0  0  0  0  0  0  0
    0.9299    3.2194    0.0541 H   0  0  0  0  0  0  0  0  0  0  0  0
   -0.5545    3.2233    0.7340 H   0  0  0  0  0  0  0  0  0  0  0  0
   -0.4209    3.3356   -0.9351 H   0  0  0  0  0  0  0  0  0  0  0  0
    0.0009    1.4004   -0.0026 C   0  0  0  0  0  0  0  0  0  0  0  0
   -1.1944    0.6894   -0.0060 C   0  0  0  0  0  0  0  0  0  0  0  0
   -2.0622    1.1825   -0.0139 H   0  0  0  0  0  0  0  0  0  0  0  0
   -1.2010   -0.6964    0.0000 C   0  0  0  0  0  0  0  0  0  0  0  0
   -2.0796   -1.1895   -0.0012 H   0  0  0  0  0  0  0  0  0  0  0  0
   -0.0046   -1.3920    0.0093 C   0  0  0  0  0  0  0  0  0  0  0  0
   -0.0060   -2.3903    0.0219 H   0  0  0  0  0  0  0  0  0  0  0  0
    1.2010   -0.6951    0.0000 C   0  0  0  0  0  0  0  0  0  0  0  0
    2.0801   -1.1966   -0.0046 H   0  0  0  0  0  0  0  0  0  0  0  0
    1.1980    0.6935   -0.0007 C   0  0  0  0  0  0  0  0  0  0  0  0
    2.0651    1.1903   -0.0002 H   0  0  0  0  0  0  0  0  0  0  0  0
  1  5  1  0
  5  8  1  0
  1  2  1  0
  1  3  1  0
  1  4  1  0
  5  6  1  0
  5  7  1  0
  8  9  1  0
  8 10  1  0
  8 11  1  0
 12 16  1  0
 16 17  2  0
 17 19  1  0
 19 21  2  0
 21 23  1  0
 23 25  2  0
 25 16  1  0
 12 13  1  0
 12 14  1  0
 12 15  1  0
 17 18  1  0
 19 20  1  0
 21 22  1  0
 23 24  1  0
 25 26  1  0
M  CHG  1   8   1
M  END
>  <PDB_ID>  (2728) 
pdb4y42

>  <RESIDUE_NAME>  (2728) 
LYS   PHE

>  <FRAG_NAME>  (2728) 
ETAM   MBZ

>  <FRAG_ATOM_NUM>  (2728) 
fragi: 11  fragj: 15

>  <atom.prop.CHAIN_ID>  (2728) 
A A A A A A A A A A A Z Z Z Z Z Z Z Z Z Z Z Z Z Z Z

>  <atom.prop.IS_HEAVY_ATOM>  (2728) 
1 0 0 0 1 0 0 1 0 0 0 1 0 0 0 1 1 0 1 0 1 0 1 0 1 0

>  <DIFUSE_FUNC_ATOM>  (2728) 
n/a

>  <FINAL_SINGLE_POINT_ENERGY>  (2728) 
0

>  <NONCOV_INTER_ENERGY_QM>  (2728) 
0

>  <FF_Energy>  (2728) 
-5.42

>  <QM_Energy>  (2728) 
-12.05

>  <source>  (2728) 
ETAM_MBZ

>  <Index>  (2728) 
29336

$$$$
ETAM-pdb4y42-E-LYS-22:MBZ-pdb4y42-E-PHE-29
     RDKit          3D

 26 25  0  0  0  0  0  0  0  0999 V2000
   -0.9739   -1.1517   -3.6759 C   0  0  0  0  0  0  0  0  0  0  0  0
   -1.7810   -0.7508   -3.2622 H   0  0  0  0  0  0  0  0  0  0  0  0
   -0.7665   -2.0308   -3.2649 H   0  0  0  0  0  0  0  0  0  0  0  0
   -1.1548   -1.2913   -4.7417 H   0  0  0  0  0  0  0  0  0  0  0  0
    0.2120   -0.2127   -3.4331 C   0  0  0  0  0  0  0  0  0  0  0  0
    0.0707    0.6272   -3.9646 H   0  0  0  0  0  0  0  0  0  0  0  0
    0.2403    0.0225   -2.4572 H   0  0  0  0  0  0  0  0  0  0  0  0
    1.5121   -0.8306   -3.8270 N   0  0  0  0  0  4  0  0  0  0  0  0
    1.6479   -0.7129   -4.8099 H   0  0  0  0  0  0  0  0  0  0  0  0
    2.2539   -0.3837   -3.3292 H   0  0  0  0  0  0  0  0  0  0  0  0
    1.4955   -1.8039   -3.6039 H   0  0  0  0  0  0  0  0  0  0  0  0
   -0.0040    2.9230   -0.0094 C   0  0  0  0  0  0  0  0  0  0  0  0
    0.9288    3.2291    0.0792 H   0  0  0  0  0  0  0  0  0  0  0  0
   -0.5638    3.2266    0.7431 H   0  0  0  0  0  0  0  0  0  0  0  0
   -0.4116    3.3520   -0.9248 H   0  0  0  0  0  0  0  0  0  0  0  0
    0.0011    1.4081   -0.0020 C   0  0  0  0  0  0  0  0  0  0  0  0
   -1.1948    0.6967    0.0003 C   0  0  0  0  0  0  0  0  0  0  0  0
   -2.0631    1.1849    0.0009 H   0  0  0  0  0  0  0  0  0  0  0  0
   -1.2039   -0.7023   -0.0000 C   0  0  0  0  0  0  0  0  0  0  0  0
   -2.0819   -1.1897    0.0004 H   0  0  0  0  0  0  0  0  0  0  0  0
   -0.0032   -1.4013    0.0009 C   0  0  0  0  0  0  0  0  0  0  0  0
   -0.0044   -2.3975    0.0018 H   0  0  0  0  0  0  0  0  0  0  0  0
    1.2039   -0.6998    0.0000 C   0  0  0  0  0  0  0  0  0  0  0  0
    2.0833   -1.1948   -0.0001 H   0  0  0  0  0  0  0  0  0  0  0  0
    1.1969    0.6986    0.0008 C   0  0  0  0  0  0  0  0  0  0  0  0
    2.0669    1.1922    0.0029 H   0  0  0  0  0  0  0  0  0  0  0  0
  1  5  1  0
  5  8  1  0
  1  2  1  0
  1  3  1  0
  1  4  1  0
  5  6  1  0
  5  7  1  0
  8  9  1  0
  8 10  1  0
  8 11  1  0
 12 16  1  0
 16 17  2  0
 17 19  1  0
 19 21  2  0
 21 23  1  0
 23 25  2  0
 25 16  1  0
 12 13  1  0
 12 14  1  0
 12 15  1  0
 17 18  1  0
 19 20  1  0
 21 22  1  0
 23 24  1  0
 25 26  1  0
M  CHG  1   8   1
M  END
>  <PDB_ID>  (2729) 
pdb4y42

>  <RESIDUE_NAME>  (2729) 
LYS   PHE

>  <FRAG_NAME>  (2729) 
ETAM   MBZ

>  <FRAG_ATOM_NUM>  (2729) 
fragi: 11  fragj: 15

>  <atom.prop.CHAIN_ID>  (2729) 
A A A A A A A A A A A Z Z Z Z Z Z Z Z Z Z Z Z Z Z Z

>  <atom.prop.IS_HEAVY_ATOM>  (2729) 
1 0 0 0 1 0 0 1 0 0 0 1 0 0 0 1 1 0 1 0 1 0 1 0 1 0

>  <DIFUSE_FUNC_ATOM>  (2729) 
n/a

>  <FINAL_SINGLE_POINT_ENERGY>  (2729) 
0

>  <NONCOV_INTER_ENERGY_QM>  (2729) 
0

>  <FF_Energy>  (2729) 
-5.43

>  <QM_Energy>  (2729) 
-11.73

>  <source>  (2729) 
ETAM_MBZ

>  <Index>  (2729) 
29339

$$$$
ETAM-pdb4y42-G-LYS-22:MBZ-pdb4y42-G-PHE-29
     RDKit          3D

 26 25  0  0  0  0  0  0  0  0999 V2000
   -1.1265   -1.1651   -3.7038 C   0  0  0  0  0  0  0  0  0  0  0  0
   -1.9081   -0.7831   -3.2188 H   0  0  0  0  0  0  0  0  0  0  0  0
   -0.9296   -2.0816   -3.3683 H   0  0  0  0  0  0  0  0  0  0  0  0
   -1.3582   -1.2161   -4.7677 H   0  0  0  0  0  0  0  0  0  0  0  0
    0.0839   -0.2851   -3.4366 C   0  0  0  0  0  0  0  0  0  0  0  0
   -0.0962    0.6302   -3.8043 H   0  0  0  0  0  0  0  0  0  0  0  0
    0.2211   -0.2174   -2.4455 H   0  0  0  0  0  0  0  0  0  0  0  0
    1.3011   -0.8383   -4.0650 N   0  0  0  0  0  4  0  0  0  0  0  0
    1.9566   -0.1008   -4.2370 H   0  0  0  0  0  0  0  0  0  0  0  0
    1.7175   -1.5144   -3.4552 H   0  0  0  0  0  0  0  0  0  0  0  0
    1.0626   -1.2780   -4.9326 H   0  0  0  0  0  0  0  0  0  0  0  0
   -0.0021    2.9151    0.0053 C   0  0  0  0  0  0  0  0  0  0  0  0
    0.9342    3.2184    0.0808 H   0  0  0  0  0  0  0  0  0  0  0  0
   -0.5440    3.2136    0.7749 H   0  0  0  0  0  0  0  0  0  0  0  0
   -0.4273    3.3524   -0.8980 H   0  0  0  0  0  0  0  0  0  0  0  0
    0.0012    1.4034    0.0026 C   0  0  0  0  0  0  0  0  0  0  0  0
   -1.2028    0.6890   -0.0019 C   0  0  0  0  0  0  0  0  0  0  0  0
   -2.0662    1.1815   -0.0076 H   0  0  0  0  0  0  0  0  0  0  0  0
   -1.2082   -0.7037    0.0000 C   0  0  0  0  0  0  0  0  0  0  0  0
   -2.0798   -1.1986    0.0053 H   0  0  0  0  0  0  0  0  0  0  0  0
    0.0004   -1.3952   -0.0041 C   0  0  0  0  0  0  0  0  0  0  0  0
    0.0032   -2.3935   -0.0103 H   0  0  0  0  0  0  0  0  0  0  0  0
    1.2082   -0.6914   -0.0000 C   0  0  0  0  0  0  0  0  0  0  0  0
    2.0864   -1.1916    0.0018 H   0  0  0  0  0  0  0  0  0  0  0  0
    1.2012    0.6980    0.0034 C   0  0  0  0  0  0  0  0  0  0  0  0
    2.0667    1.1969    0.0056 H   0  0  0  0  0  0  0  0  0  0  0  0
  1  5  1  0
  5  8  1  0
  1  2  1  0
  1  3  1  0
  1  4  1  0
  5  6  1  0
  5  7  1  0
  8  9  1  0
  8 10  1  0
  8 11  1  0
 12 16  1  0
 16 17  2  0
 17 19  1  0
 19 21  2  0
 21 23  1  0
 23 25  2  0
 25 16  1  0
 12 13  1  0
 12 14  1  0
 12 15  1  0
 17 18  1  0
 19 20  1  0
 21 22  1  0
 23 24  1  0
 25 26  1  0
M  CHG  1   8   1
M  END
>  <PDB_ID>  (2730) 
pdb4y42

>  <RESIDUE_NAME>  (2730) 
LYS   PHE

>  <FRAG_NAME>  (2730) 
ETAM   MBZ

>  <FRAG_ATOM_NUM>  (2730) 
fragi: 11  fragj: 15

>  <atom.prop.CHAIN_ID>  (2730) 
A A A A A A A A A A A Z Z Z Z Z Z Z Z Z Z Z Z Z Z Z

>  <atom.prop.IS_HEAVY_ATOM>  (2730) 
1 0 0 0 1 0 0 1 0 0 0 1 0 0 0 1 1 0 1 0 1 0 1 0 1 0

>  <DIFUSE_FUNC_ATOM>  (2730) 
n/a

>  <FINAL_SINGLE_POINT_ENERGY>  (2730) 
0

>  <NONCOV_INTER_ENERGY_QM>  (2730) 
0

>  <FF_Energy>  (2730) 
-5.17

>  <QM_Energy>  (2730) 
-11.15

>  <source>  (2730) 
ETAM_MBZ

>  <Index>  (2730) 
29341

$$$$
ETAM-pdb4y42-J-LYS-22:MBZ-pdb4y42-J-PHE-29
     RDKit          3D

 26 25  0  0  0  0  0  0  0  0999 V2000
   -0.9139   -1.2915   -3.6587 C   0  0  0  0  0  0  0  0  0  0  0  0
   -1.7438   -1.0990   -3.1451 H   0  0  0  0  0  0  0  0  0  0  0  0
   -0.5400   -2.1745   -3.3935 H   0  0  0  0  0  0  0  0  0  0  0  0
   -1.1666   -1.3280   -4.7184 H   0  0  0  0  0  0  0  0  0  0  0  0
    0.1045   -0.2181   -3.3714 C   0  0  0  0  0  0  0  0  0  0  0  0
   -0.1499    0.6180   -3.8583 H   0  0  0  0  0  0  0  0  0  0  0  0
    0.1246   -0.0359   -2.3874 H   0  0  0  0  0  0  0  0  0  0  0  0
    1.4577   -0.6459   -3.8142 N   0  0  0  0  0  4  0  0  0  0  0  0
    1.3789   -1.1755   -4.6591 H   0  0  0  0  0  0  0  0  0  0  0  0
    2.0249    0.1613   -3.9775 H   0  0  0  0  0  0  0  0  0  0  0  0
    1.8767   -1.2108   -3.1032 H   0  0  0  0  0  0  0  0  0  0  0  0
   -0.0153    2.9014   -0.0156 C   0  0  0  0  0  0  0  0  0  0  0  0
    0.9167    3.2169    0.0348 H   0  0  0  0  0  0  0  0  0  0  0  0
   -0.5506    3.2143    0.7501 H   0  0  0  0  0  0  0  0  0  0  0  0
   -0.4586    3.3121   -0.9227 H   0  0  0  0  0  0  0  0  0  0  0  0
   -0.0023    1.3999    0.0047 C   0  0  0  0  0  0  0  0  0  0  0  0
   -1.1933    0.6994   -0.0067 C   0  0  0  0  0  0  0  0  0  0  0  0
   -2.0621    1.1867   -0.0209 H   0  0  0  0  0  0  0  0  0  0  0  0
   -1.1989   -0.6938   -0.0000 C   0  0  0  0  0  0  0  0  0  0  0  0
   -2.0770   -1.1854    0.0048 H   0  0  0  0  0  0  0  0  0  0  0  0
    0.0007   -1.3915    0.0010 C   0  0  0  0  0  0  0  0  0  0  0  0
   -0.0095   -2.3928    0.0020 H   0  0  0  0  0  0  0  0  0  0  0  0
    1.1989   -0.7049   -0.0000 C   0  0  0  0  0  0  0  0  0  0  0  0
    2.0805   -1.1994    0.0007 H   0  0  0  0  0  0  0  0  0  0  0  0
    1.1949    0.6909    0.0009 C   0  0  0  0  0  0  0  0  0  0  0  0
    2.0631    1.1854   -0.0024 H   0  0  0  0  0  0  0  0  0  0  0  0
  1  5  1  0
  5  8  1  0
  1  2  1  0
  1  3  1  0
  1  4  1  0
  5  6  1  0
  5  7  1  0
  8  9  1  0
  8 10  1  0
  8 11  1  0
 12 16  1  0
 16 17  2  0
 17 19  1  0
 19 21  2  0
 21 23  1  0
 23 25  2  0
 25 16  1  0
 12 13  1  0
 12 14  1  0
 12 15  1  0
 17 18  1  0
 19 20  1  0
 21 22  1  0
 23 24  1  0
 25 26  1  0
M  CHG  1   8   1
M  END
>  <PDB_ID>  (2731) 
pdb4y42

>  <RESIDUE_NAME>  (2731) 
LYS   PHE

>  <FRAG_NAME>  (2731) 
ETAM   MBZ

>  <FRAG_ATOM_NUM>  (2731) 
fragi: 11  fragj: 15

>  <atom.prop.CHAIN_ID>  (2731) 
A A A A A A A A A A A Z Z Z Z Z Z Z Z Z Z Z Z Z Z Z

>  <atom.prop.IS_HEAVY_ATOM>  (2731) 
1 0 0 0 1 0 0 1 0 0 0 1 0 0 0 1 1 0 1 0 1 0 1 0 1 0

>  <DIFUSE_FUNC_ATOM>  (2731) 
n/a

>  <FINAL_SINGLE_POINT_ENERGY>  (2731) 
0

>  <NONCOV_INTER_ENERGY_QM>  (2731) 
0

>  <FF_Energy>  (2731) 
-5.25

>  <QM_Energy>  (2731) 
-12.14

>  <source>  (2731) 
ETAM_MBZ

>  <Index>  (2731) 
29344

$$$$
ETAM-pdb4y85-B-LYS-175:MBZ-pdb4y85-B-PHE-149
     RDKit          3D

 26 25  0  0  0  0  0  0  0  0999 V2000
    1.0605   -2.0849    3.0940 C   0  0  0  0  0  0  0  0  0  0  0  0
    1.4801   -1.7059    2.2688 H   0  0  0  0  0  0  0  0  0  0  0  0
    1.5486   -2.9149    3.3647 H   0  0  0  0  0  0  0  0  0  0  0  0
    1.1411   -1.3521    3.8969 H   0  0  0  0  0  0  0  0  0  0  0  0
   -0.3753   -2.4496    2.7819 C   0  0  0  0  0  0  0  0  0  0  0  0
   -0.8007   -2.8344    3.6011 H   0  0  0  0  0  0  0  0  0  0  0  0
   -0.8696   -1.6255    2.5061 H   0  0  0  0  0  0  0  0  0  0  0  0
   -0.4356   -3.4480    1.6853 N   0  0  0  0  0  4  0  0  0  0  0  0
    0.3179   -4.0994    1.7843 H   0  0  0  0  0  0  0  0  0  0  0  0
   -1.3072   -3.9373    1.7263 H   0  0  0  0  0  0  0  0  0  0  0  0
   -0.3571   -2.9801    0.8040 H   0  0  0  0  0  0  0  0  0  0  0  0
   -0.0002    2.9162   -0.0483 C   0  0  0  0  0  0  0  0  0  0  0  0
    0.9230    3.2245    0.0436 H   0  0  0  0  0  0  0  0  0  0  0  0
   -0.5884    3.2455    0.6607 H   0  0  0  0  0  0  0  0  0  0  0  0
   -0.3842    3.2823   -1.0005 H   0  0  0  0  0  0  0  0  0  0  0  0
   -0.0005    1.4094    0.0030 C   0  0  0  0  0  0  0  0  0  0  0  0
   -1.1964    0.6948   -0.0008 C   0  0  0  0  0  0  0  0  0  0  0  0
   -2.0643    1.1772   -0.0067 H   0  0  0  0  0  0  0  0  0  0  0  0
   -1.1949   -0.7053    0.0000 C   0  0  0  0  0  0  0  0  0  0  0  0
   -2.0727   -1.1960   -0.0119 H   0  0  0  0  0  0  0  0  0  0  0  0
    0.0027   -1.3935    0.0196 C   0  0  0  0  0  0  0  0  0  0  0  0
   -0.0020   -2.3969    0.0471 H   0  0  0  0  0  0  0  0  0  0  0  0
    1.1949   -0.7046   -0.0000 C   0  0  0  0  0  0  0  0  0  0  0  0
    2.0815   -1.1945    0.0039 H   0  0  0  0  0  0  0  0  0  0  0  0
    1.1942    0.6991   -0.0218 C   0  0  0  0  0  0  0  0  0  0  0  0
    2.0641    1.1864   -0.0562 H   0  0  0  0  0  0  0  0  0  0  0  0
  1  5  1  0
  5  8  1  0
  1  2  1  0
  1  3  1  0
  1  4  1  0
  5  6  1  0
  5  7  1  0
  8  9  1  0
  8 10  1  0
  8 11  1  0
 12 16  1  0
 16 17  2  0
 17 19  1  0
 19 21  2  0
 21 23  1  0
 23 25  2  0
 25 16  1  0
 12 13  1  0
 12 14  1  0
 12 15  1  0
 17 18  1  0
 19 20  1  0
 21 22  1  0
 23 24  1  0
 25 26  1  0
M  CHG  1   8   1
M  END
>  <PDB_ID>  (2732) 
pdb4y85

>  <RESIDUE_NAME>  (2732) 
LYS   PHE

>  <FRAG_NAME>  (2732) 
ETAM   MBZ

>  <FRAG_ATOM_NUM>  (2732) 
fragi: 11  fragj: 15

>  <atom.prop.CHAIN_ID>  (2732) 
A A A A A A A A A A A Z Z Z Z Z Z Z Z Z Z Z Z Z Z Z

>  <atom.prop.IS_HEAVY_ATOM>  (2732) 
1 0 0 0 1 0 0 1 0 0 0 1 0 0 0 1 1 0 1 0 1 0 1 0 1 0

>  <DIFUSE_FUNC_ATOM>  (2732) 
n/a

>  <FINAL_SINGLE_POINT_ENERGY>  (2732) 
0

>  <NONCOV_INTER_ENERGY_QM>  (2732) 
0

>  <FF_Energy>  (2732) 
39.21

>  <QM_Energy>  (2732) 
14.58

>  <source>  (2732) 
ETAM_MBZ

>  <Index>  (2732) 
29362

$$$$
ETAM-pdb4y85-C-LYS-175:MBZ-pdb4y85-C-PHE-149
     RDKit          3D

 26 25  0  0  0  0  0  0  0  0999 V2000
    1.0062   -2.1015    3.0669 C   0  0  0  0  0  0  0  0  0  0  0  0
    1.4356   -1.7241    2.2462 H   0  0  0  0  0  0  0  0  0  0  0  0
    1.4867   -2.9342    3.3417 H   0  0  0  0  0  0  0  0  0  0  0  0
    1.0845   -1.3694    3.8707 H   0  0  0  0  0  0  0  0  0  0  0  0
   -0.4293   -2.4554    2.7438 C   0  0  0  0  0  0  0  0  0  0  0  0
   -0.8637   -2.8377    3.5591 H   0  0  0  0  0  0  0  0  0  0  0  0
   -0.9161   -1.6288    2.4640 H   0  0  0  0  0  0  0  0  0  0  0  0
   -0.4873   -3.4529    1.6456 N   0  0  0  0  0  4  0  0  0  0  0  0
   -1.1600   -4.1578    1.8709 H   0  0  0  0  0  0  0  0  0  0  0  0
   -0.7526   -2.9976    0.7959 H   0  0  0  0  0  0  0  0  0  0  0  0
    0.4124   -3.8753    1.5307 H   0  0  0  0  0  0  0  0  0  0  0  0
   -0.0042    2.9208   -0.0412 C   0  0  0  0  0  0  0  0  0  0  0  0
    0.9183    3.2300    0.0486 H   0  0  0  0  0  0  0  0  0  0  0  0
   -0.5912    3.2458    0.6695 H   0  0  0  0  0  0  0  0  0  0  0  0
   -0.3907    3.2912   -0.9908 H   0  0  0  0  0  0  0  0  0  0  0  0
   -0.0011    1.4093    0.0061 C   0  0  0  0  0  0  0  0  0  0  0  0
   -1.1981    0.6950    0.0042 C   0  0  0  0  0  0  0  0  0  0  0  0
   -2.0661    1.1790    0.0051 H   0  0  0  0  0  0  0  0  0  0  0  0
   -1.1982   -0.7037    0.0000 C   0  0  0  0  0  0  0  0  0  0  0  0
   -2.0754   -1.1948   -0.0123 H   0  0  0  0  0  0  0  0  0  0  0  0
    0.0014   -1.3946    0.0151 C   0  0  0  0  0  0  0  0  0  0  0  0
   -0.0031   -2.3959    0.0357 H   0  0  0  0  0  0  0  0  0  0  0  0
    1.1982   -0.7032    0.0000 C   0  0  0  0  0  0  0  0  0  0  0  0
    2.0816   -1.1968    0.0078 H   0  0  0  0  0  0  0  0  0  0  0  0
    1.1977    0.6971   -0.0254 C   0  0  0  0  0  0  0  0  0  0  0  0
    2.0648    1.1871   -0.0660 H   0  0  0  0  0  0  0  0  0  0  0  0
  1  5  1  0
  5  8  1  0
  1  2  1  0
  1  3  1  0
  1  4  1  0
  5  6  1  0
  5  7  1  0
  8  9  1  0
  8 10  1  0
  8 11  1  0
 12 16  1  0
 16 17  2  0
 17 19  1  0
 19 21  2  0
 21 23  1  0
 23 25  2  0
 25 16  1  0
 12 13  1  0
 12 14  1  0
 12 15  1  0
 17 18  1  0
 19 20  1  0
 21 22  1  0
 23 24  1  0
 25 26  1  0
M  CHG  1   8   1
M  END
>  <PDB_ID>  (2733) 
pdb4y85

>  <RESIDUE_NAME>  (2733) 
LYS   PHE

>  <FRAG_NAME>  (2733) 
ETAM   MBZ

>  <FRAG_ATOM_NUM>  (2733) 
fragi: 11  fragj: 15

>  <atom.prop.CHAIN_ID>  (2733) 
A A A A A A A A A A A Z Z Z Z Z Z Z Z Z Z Z Z Z Z Z

>  <atom.prop.IS_HEAVY_ATOM>  (2733) 
1 0 0 0 1 0 0 1 0 0 0 1 0 0 0 1 1 0 1 0 1 0 1 0 1 0

>  <DIFUSE_FUNC_ATOM>  (2733) 
n/a

>  <FINAL_SINGLE_POINT_ENERGY>  (2733) 
0

>  <NONCOV_INTER_ENERGY_QM>  (2733) 
0

>  <FF_Energy>  (2733) 
34.13

>  <QM_Energy>  (2733) 
8.48

>  <source>  (2733) 
ETAM_MBZ

>  <Index>  (2733) 
29365

$$$$
ETAM-pdb3wpe-A-LYS-346:MBZ-pdb3wpe-A-PHE-318
     RDKit          3D

 26 25  0  0  0  0  0  0  0  0999 V2000
    4.2919   -4.6823   -0.9039 C   0  0  0  0  0  0  0  0  0  0  0  0
    4.6402   -4.7331   -1.8379 H   0  0  0  0  0  0  0  0  0  0  0  0
    4.6858   -5.4171   -0.3557 H   0  0  0  0  0  0  0  0  0  0  0  0
    4.5865   -3.7256   -0.4727 H   0  0  0  0  0  0  0  0  0  0  0  0
    2.7828   -4.8600   -0.9392 C   0  0  0  0  0  0  0  0  0  0  0  0
    2.5732   -5.8104   -1.1913 H   0  0  0  0  0  0  0  0  0  0  0  0
    2.4125   -4.6827   -0.0217 H   0  0  0  0  0  0  0  0  0  0  0  0
    2.1321   -3.9419   -1.9132 N   0  0  0  0  0  4  0  0  0  0  0  0
    2.8339   -3.4139   -2.3913 H   0  0  0  0  0  0  0  0  0  0  0  0
    1.6074   -4.4779   -2.5745 H   0  0  0  0  0  0  0  0  0  0  0  0
    1.5195   -3.3206   -1.4252 H   0  0  0  0  0  0  0  0  0  0  0  0
    0.0021    2.8977   -0.0057 C   0  0  0  0  0  0  0  0  0  0  0  0
   -0.8018    3.2032   -0.4946 H   0  0  0  0  0  0  0  0  0  0  0  0
    0.8304    3.2029   -0.4522 H   0  0  0  0  0  0  0  0  0  0  0  0
   -0.0236    3.3469    0.9871 H   0  0  0  0  0  0  0  0  0  0  0  0
    0.0022    1.3955    0.0018 C   0  0  0  0  0  0  0  0  0  0  0  0
   -1.1920    0.6862   -0.0006 C   0  0  0  0  0  0  0  0  0  0  0  0
   -2.0590    1.1794   -0.0042 H   0  0  0  0  0  0  0  0  0  0  0  0
   -1.1954   -0.6953    0.0000 C   0  0  0  0  0  0  0  0  0  0  0  0
   -2.0729   -1.1918    0.0013 H   0  0  0  0  0  0  0  0  0  0  0  0
    0.0003   -1.3865    0.0009 C   0  0  0  0  0  0  0  0  0  0  0  0
   -0.0024   -2.3884    0.0017 H   0  0  0  0  0  0  0  0  0  0  0  0
    1.1954   -0.6935    0.0000 C   0  0  0  0  0  0  0  0  0  0  0  0
    2.0784   -1.1900    0.0021 H   0  0  0  0  0  0  0  0  0  0  0  0
    1.1895    0.6936   -0.0021 C   0  0  0  0  0  0  0  0  0  0  0  0
    2.0611    1.1888   -0.0075 H   0  0  0  0  0  0  0  0  0  0  0  0
  1  5  1  0
  5  8  1  0
  1  2  1  0
  1  3  1  0
  1  4  1  0
  5  6  1  0
  5  7  1  0
  8  9  1  0
  8 10  1  0
  8 11  1  0
 12 16  1  0
 16 17  2  0
 17 19  1  0
 19 21  2  0
 21 23  1  0
 23 25  2  0
 25 16  1  0
 12 13  1  0
 12 14  1  0
 12 15  1  0
 17 18  1  0
 19 20  1  0
 21 22  1  0
 23 24  1  0
 25 26  1  0
M  CHG  1   8   1
M  END
>  <PDB_ID>  (2734) 
pdb3wpe

>  <RESIDUE_NAME>  (2734) 
LYS   PHE

>  <FRAG_NAME>  (2734) 
ETAM   MBZ

>  <FRAG_ATOM_NUM>  (2734) 
fragi: 11  fragj: 15

>  <atom.prop.CHAIN_ID>  (2734) 
A A A A A A A A A A A Z Z Z Z Z Z Z Z Z Z Z Z Z Z Z

>  <atom.prop.IS_HEAVY_ATOM>  (2734) 
1 0 0 0 1 0 0 1 0 0 0 1 0 0 0 1 1 0 1 0 1 0 1 0 1 0

>  <DIFUSE_FUNC_ATOM>  (2734) 
n/a

>  <FINAL_SINGLE_POINT_ENERGY>  (2734) 
0

>  <NONCOV_INTER_ENERGY_QM>  (2734) 
0

>  <FF_Energy>  (2734) 
-0.16

>  <QM_Energy>  (2734) 
-5.43

>  <source>  (2734) 
ETAM_MBZ

>  <Index>  (2734) 
29372

$$$$
ETAM-pdb3wxk-B-LYS-130:MBZ-pdb3wxk-B-PHE-290
     RDKit          3D

 26 25  0  0  0  0  0  0  0  0999 V2000
    0.1162    1.3853   -3.8502 C   0  0  0  0  0  0  0  0  0  0  0  0
   -0.2694    0.6671   -3.2642 H   0  0  0  0  0  0  0  0  0  0  0  0
    1.0240    1.6341   -3.5028 H   0  0  0  0  0  0  0  0  0  0  0  0
    0.2401    0.9717   -4.8511 H   0  0  0  0  0  0  0  0  0  0  0  0
   -0.7899    2.6162   -3.7759 C   0  0  0  0  0  0  0  0  0  0  0  0
   -0.3283    3.3302   -3.2520 H   0  0  0  0  0  0  0  0  0  0  0  0
   -0.9726    2.9443   -4.7015 H   0  0  0  0  0  0  0  0  0  0  0  0
   -2.1093    2.2982   -3.1049 N   0  0  0  0  0  4  0  0  0  0  0  0
   -2.6463    1.7231   -3.7140 H   0  0  0  0  0  0  0  0  0  0  0  0
   -1.9259    1.8191   -2.2521 H   0  0  0  0  0  0  0  0  0  0  0  0
   -2.5892    3.1520   -2.9246 H   0  0  0  0  0  0  0  0  0  0  0  0
    0.0167    2.8841    0.0414 C   0  0  0  0  0  0  0  0  0  0  0  0
   -0.8393    3.2084   -0.3299 H   0  0  0  0  0  0  0  0  0  0  0  0
    0.7863    3.2027   -0.4905 H   0  0  0  0  0  0  0  0  0  0  0  0
    0.1179    3.2747    1.0539 H   0  0  0  0  0  0  0  0  0  0  0  0
    0.0068    1.3977   -0.0011 C   0  0  0  0  0  0  0  0  0  0  0  0
   -1.2016    0.6999    0.0092 C   0  0  0  0  0  0  0  0  0  0  0  0
   -2.0604    1.1965    0.0213 H   0  0  0  0  0  0  0  0  0  0  0  0
   -1.2126   -0.6913   -0.0000 C   0  0  0  0  0  0  0  0  0  0  0  0
   -2.0937   -1.1808    0.0014 H   0  0  0  0  0  0  0  0  0  0  0  0
   -0.0157   -1.4017   -0.0091 C   0  0  0  0  0  0  0  0  0  0  0  0
   -0.0147   -2.3919   -0.0220 H   0  0  0  0  0  0  0  0  0  0  0  0
    1.2126   -0.6954    0.0000 C   0  0  0  0  0  0  0  0  0  0  0  0
    2.0805   -1.2067    0.0065 H   0  0  0  0  0  0  0  0  0  0  0  0
    1.2105    0.6908    0.0011 C   0  0  0  0  0  0  0  0  0  0  0  0
    2.0743    1.1909    0.0027 H   0  0  0  0  0  0  0  0  0  0  0  0
  1  5  1  0
  5  8  1  0
  1  2  1  0
  1  3  1  0
  1  4  1  0
  5  6  1  0
  5  7  1  0
  8  9  1  0
  8 10  1  0
  8 11  1  0
 12 16  1  0
 16 17  2  0
 17 19  1  0
 19 21  2  0
 21 23  1  0
 23 25  2  0
 25 16  1  0
 12 13  1  0
 12 14  1  0
 12 15  1  0
 17 18  1  0
 19 20  1  0
 21 22  1  0
 23 24  1  0
 25 26  1  0
M  CHG  1   8   1
M  END
>  <PDB_ID>  (2735) 
pdb3wxk

>  <RESIDUE_NAME>  (2735) 
LYS   PHE

>  <FRAG_NAME>  (2735) 
ETAM   MBZ

>  <FRAG_ATOM_NUM>  (2735) 
fragi: 11  fragj: 15

>  <atom.prop.CHAIN_ID>  (2735) 
A A A A A A A A A A A Z Z Z Z Z Z Z Z Z Z Z Z Z Z Z

>  <atom.prop.IS_HEAVY_ATOM>  (2735) 
1 0 0 0 1 0 0 1 0 0 0 1 0 0 0 1 1 0 1 0 1 0 1 0 1 0

>  <DIFUSE_FUNC_ATOM>  (2735) 
n/a

>  <FINAL_SINGLE_POINT_ENERGY>  (2735) 
0

>  <NONCOV_INTER_ENERGY_QM>  (2735) 
0

>  <FF_Energy>  (2735) 
-5.0

>  <QM_Energy>  (2735) 
-10.03

>  <source>  (2735) 
ETAM_MBZ

>  <Index>  (2735) 
29380

$$$$
ETAM-pdb3wxe-A-LYS-675:MBZ-pdb3wxe-A-PHE-670
     RDKit          3D

 26 25  0  0  0  0  0  0  0  0999 V2000
   -1.0090    0.0148   -4.0387 C   0  0  0  0  0  0  0  0  0  0  0  0
   -0.6375    0.9163   -3.8406 H   0  0  0  0  0  0  0  0  0  0  0  0
   -1.2908   -0.4353   -3.1978 H   0  0  0  0  0  0  0  0  0  0  0  0
   -1.8649    0.1108   -4.7067 H   0  0  0  0  0  0  0  0  0  0  0  0
    0.0846   -0.8195   -4.6820 C   0  0  0  0  0  0  0  0  0  0  0  0
   -0.3293   -1.6216   -5.1163 H   0  0  0  0  0  0  0  0  0  0  0  0
    0.5477   -0.2695   -5.3804 H   0  0  0  0  0  0  0  0  0  0  0  0
    1.0877   -1.2734   -3.6755 N   0  0  0  0  0  4  0  0  0  0  0  0
    0.7693   -1.0311   -2.7595 H   0  0  0  0  0  0  0  0  0  0  0  0
    1.1970   -2.2648   -3.7424 H   0  0  0  0  0  0  0  0  0  0  0  0
    1.9623   -0.8259   -3.8559 H   0  0  0  0  0  0  0  0  0  0  0  0
   -0.0276    2.8737   -0.0548 C   0  0  0  0  0  0  0  0  0  0  0  0
    0.8779    3.2142    0.1362 H   0  0  0  0  0  0  0  0  0  0  0  0
   -0.6901    3.2119    0.5927 H   0  0  0  0  0  0  0  0  0  0  0  0
   -0.3144    3.2484   -1.0374 H   0  0  0  0  0  0  0  0  0  0  0  0
   -0.0064    1.3962    0.0090 C   0  0  0  0  0  0  0  0  0  0  0  0
   -1.1827    0.6924   -0.0171 C   0  0  0  0  0  0  0  0  0  0  0  0
   -2.0581    1.1746   -0.0505 H   0  0  0  0  0  0  0  0  0  0  0  0
   -1.1857   -0.6973    0.0000 C   0  0  0  0  0  0  0  0  0  0  0  0
   -2.0701   -1.1868    0.0171 H   0  0  0  0  0  0  0  0  0  0  0  0
    0.0020   -1.3939   -0.0052 C   0  0  0  0  0  0  0  0  0  0  0  0
    0.0013   -2.3901   -0.0133 H   0  0  0  0  0  0  0  0  0  0  0  0
    1.1857   -0.6907   -0.0000 C   0  0  0  0  0  0  0  0  0  0  0  0
    2.0772   -1.1877   -0.0046 H   0  0  0  0  0  0  0  0  0  0  0  0
    1.1871    0.6932    0.0133 C   0  0  0  0  0  0  0  0  0  0  0  0
    2.0552    1.1889    0.0256 H   0  0  0  0  0  0  0  0  0  0  0  0
  1  5  1  0
  5  8  1  0
  1  2  1  0
  1  3  1  0
  1  4  1  0
  5  6  1  0
  5  7  1  0
  8  9  1  0
  8 10  1  0
  8 11  1  0
 12 16  1  0
 16 17  2  0
 17 19  1  0
 19 21  2  0
 21 23  1  0
 23 25  2  0
 25 16  1  0
 12 13  1  0
 12 14  1  0
 12 15  1  0
 17 18  1  0
 19 20  1  0
 21 22  1  0
 23 24  1  0
 25 26  1  0
M  CHG  1   8   1
M  END
>  <PDB_ID>  (2736) 
pdb3wxe

>  <RESIDUE_NAME>  (2736) 
LYS   PHE

>  <FRAG_NAME>  (2736) 
ETAM   MBZ

>  <FRAG_ATOM_NUM>  (2736) 
fragi: 11  fragj: 15

>  <atom.prop.CHAIN_ID>  (2736) 
A A A A A A A A A A A Z Z Z Z Z Z Z Z Z Z Z Z Z Z Z

>  <atom.prop.IS_HEAVY_ATOM>  (2736) 
1 0 0 0 1 0 0 1 0 0 0 1 0 0 0 1 1 0 1 0 1 0 1 0 1 0

>  <DIFUSE_FUNC_ATOM>  (2736) 
n/a

>  <FINAL_SINGLE_POINT_ENERGY>  (2736) 
0

>  <NONCOV_INTER_ENERGY_QM>  (2736) 
0

>  <FF_Energy>  (2736) 
-6.08

>  <QM_Energy>  (2736) 
-11.87

>  <source>  (2736) 
ETAM_MBZ

>  <Index>  (2736) 
29387

$$$$
ETAM-pdb4y99-C-LYS-50:MBZ-pdb4y99-A-PHE-156
     RDKit          3D

 26 25  0  0  0  0  0  0  0  0999 V2000
    0.1416   -0.8055    4.3769 C   0  0  0  0  0  0  0  0  0  0  0  0
   -0.1415   -0.9896    5.3164 H   0  0  0  0  0  0  0  0  0  0  0  0
    0.6490    0.0525    4.3393 H   0  0  0  0  0  0  0  0  0  0  0  0
    0.8027   -1.6099    4.0544 H   0  0  0  0  0  0  0  0  0  0  0  0
   -1.0880   -0.6877    3.5072 C   0  0  0  0  0  0  0  0  0  0  0  0
   -0.8157   -0.6951    2.5463 H   0  0  0  0  0  0  0  0  0  0  0  0
   -1.6975   -1.4575    3.6898 H   0  0  0  0  0  0  0  0  0  0  0  0
   -1.8133    0.5858    3.7968 N   0  0  0  0  0  4  0  0  0  0  0  0
   -2.4092    0.8077    3.0268 H   0  0  0  0  0  0  0  0  0  0  0  0
   -2.3603    0.4719    4.6238 H   0  0  0  0  0  0  0  0  0  0  0  0
   -1.1488    1.3196    3.9303 H   0  0  0  0  0  0  0  0  0  0  0  0
    0.0063    2.9248   -0.0323 C   0  0  0  0  0  0  0  0  0  0  0  0
   -0.6340    3.2081   -0.7363 H   0  0  0  0  0  0  0  0  0  0  0  0
    0.9271    3.2209   -0.2589 H   0  0  0  0  0  0  0  0  0  0  0  0
   -0.2808    3.4231    0.8936 H   0  0  0  0  0  0  0  0  0  0  0  0
    0.0041    1.4110    0.0137 C   0  0  0  0  0  0  0  0  0  0  0  0
   -1.1897    0.6962   -0.0084 C   0  0  0  0  0  0  0  0  0  0  0  0
   -2.0601    1.1833   -0.0326 H   0  0  0  0  0  0  0  0  0  0  0  0
   -1.1999   -0.7036    0.0000 C   0  0  0  0  0  0  0  0  0  0  0  0
   -2.0845   -1.1855    0.0061 H   0  0  0  0  0  0  0  0  0  0  0  0
   -0.0115   -1.4039    0.0012 C   0  0  0  0  0  0  0  0  0  0  0  0
   -0.0096   -2.3994    0.0020 H   0  0  0  0  0  0  0  0  0  0  0  0
    1.1999   -0.7024    0.0000 C   0  0  0  0  0  0  0  0  0  0  0  0
    2.0780   -1.1975    0.0049 H   0  0  0  0  0  0  0  0  0  0  0  0
    1.1972    0.7027   -0.0065 C   0  0  0  0  0  0  0  0  0  0  0  0
    2.0678    1.1895   -0.0264 H   0  0  0  0  0  0  0  0  0  0  0  0
  1  5  1  0
  5  8  1  0
  1  2  1  0
  1  3  1  0
  1  4  1  0
  5  6  1  0
  5  7  1  0
  8  9  1  0
  8 10  1  0
  8 11  1  0
 12 16  1  0
 16 17  2  0
 17 19  1  0
 19 21  2  0
 21 23  1  0
 23 25  2  0
 25 16  1  0
 12 13  1  0
 12 14  1  0
 12 15  1  0
 17 18  1  0
 19 20  1  0
 21 22  1  0
 23 24  1  0
 25 26  1  0
M  CHG  1   8   1
M  END
>  <PDB_ID>  (2737) 
pdb4y99

>  <RESIDUE_NAME>  (2737) 
LYS   PHE

>  <FRAG_NAME>  (2737) 
ETAM   MBZ

>  <FRAG_ATOM_NUM>  (2737) 
fragi: 11  fragj: 15

>  <atom.prop.CHAIN_ID>  (2737) 
A A A A A A A A A A A Z Z Z Z Z Z Z Z Z Z Z Z Z Z Z

>  <atom.prop.IS_HEAVY_ATOM>  (2737) 
1 0 0 0 1 0 0 1 0 0 0 1 0 0 0 1 1 0 1 0 1 0 1 0 1 0

>  <DIFUSE_FUNC_ATOM>  (2737) 
n/a

>  <FINAL_SINGLE_POINT_ENERGY>  (2737) 
0

>  <NONCOV_INTER_ENERGY_QM>  (2737) 
0

>  <FF_Energy>  (2737) 
-4.82

>  <QM_Energy>  (2737) 
-9.87

>  <source>  (2737) 
ETAM_MBZ

>  <Index>  (2737) 
29409

$$$$
ETAM-pdb4y72-B-LYS-256:MBZ-pdb4y72-B-PHE-252
     RDKit          3D

 26 25  0  0  0  0  0  0  0  0999 V2000
   -1.0983   -1.9876    3.7477 C   0  0  0  0  0  0  0  0  0  0  0  0
   -1.0192   -2.6078    4.5269 H   0  0  0  0  0  0  0  0  0  0  0  0
   -1.3644   -2.5020    2.9340 H   0  0  0  0  0  0  0  0  0  0  0  0
   -1.8618   -1.2401    3.9632 H   0  0  0  0  0  0  0  0  0  0  0  0
    0.2731   -1.3646    3.4918 C   0  0  0  0  0  0  0  0  0  0  0  0
    0.1941   -0.6848    2.7699 H   0  0  0  0  0  0  0  0  0  0  0  0
    0.6016   -0.9397    4.3294 H   0  0  0  0  0  0  0  0  0  0  0  0
    1.2627   -2.4214    3.0613 N   0  0  0  0  0  4  0  0  0  0  0  0
    2.0358   -2.4106    3.6890 H   0  0  0  0  0  0  0  0  0  0  0  0
    0.8134   -3.3097    3.0846 H   0  0  0  0  0  0  0  0  0  0  0  0
    1.5689   -2.2160    2.1357 H   0  0  0  0  0  0  0  0  0  0  0  0
    0.0199    2.8880   -0.0024 C   0  0  0  0  0  0  0  0  0  0  0  0
   -0.2512    3.1924   -0.9090 H   0  0  0  0  0  0  0  0  0  0  0  0
    0.9440    3.1912    0.2028 H   0  0  0  0  0  0  0  0  0  0  0  0
   -0.6474    3.3645    0.7158 H   0  0  0  0  0  0  0  0  0  0  0  0
   -0.0016    1.4024    0.0186 C   0  0  0  0  0  0  0  0  0  0  0  0
   -1.1975    0.7017   -0.0060 C   0  0  0  0  0  0  0  0  0  0  0  0
   -2.0628    1.1838   -0.0292 H   0  0  0  0  0  0  0  0  0  0  0  0
   -1.1922   -0.6957    0.0000 C   0  0  0  0  0  0  0  0  0  0  0  0
   -2.0704   -1.1899    0.0185 H   0  0  0  0  0  0  0  0  0  0  0  0
    0.0063   -1.3873   -0.0176 C   0  0  0  0  0  0  0  0  0  0  0  0
   -0.0027   -2.3900   -0.0444 H   0  0  0  0  0  0  0  0  0  0  0  0
    1.1922   -0.6993    0.0000 C   0  0  0  0  0  0  0  0  0  0  0  0
    2.0795   -1.2004    0.0114 H   0  0  0  0  0  0  0  0  0  0  0  0
    1.1929    0.6782    0.0050 C   0  0  0  0  0  0  0  0  0  0  0  0
    2.0629    1.1786   -0.0024 H   0  0  0  0  0  0  0  0  0  0  0  0
  1  5  1  0
  5  8  1  0
  1  2  1  0
  1  3  1  0
  1  4  1  0
  5  6  1  0
  5  7  1  0
  8  9  1  0
  8 10  1  0
  8 11  1  0
 12 16  1  0
 16 17  2  0
 17 19  1  0
 19 21  2  0
 21 23  1  0
 23 25  2  0
 25 16  1  0
 12 13  1  0
 12 14  1  0
 12 15  1  0
 17 18  1  0
 19 20  1  0
 21 22  1  0
 23 24  1  0
 25 26  1  0
M  CHG  1   8   1
M  END
>  <PDB_ID>  (2738) 
pdb4y72

>  <RESIDUE_NAME>  (2738) 
LYS   PHE

>  <FRAG_NAME>  (2738) 
ETAM   MBZ

>  <FRAG_ATOM_NUM>  (2738) 
fragi: 11  fragj: 15

>  <atom.prop.CHAIN_ID>  (2738) 
A A A A A A A A A A A Z Z Z Z Z Z Z Z Z Z Z Z Z Z Z

>  <atom.prop.IS_HEAVY_ATOM>  (2738) 
1 0 0 0 1 0 0 1 0 0 0 1 0 0 0 1 1 0 1 0 1 0 1 0 1 0

>  <DIFUSE_FUNC_ATOM>  (2738) 
n/a

>  <FINAL_SINGLE_POINT_ENERGY>  (2738) 
0

>  <NONCOV_INTER_ENERGY_QM>  (2738) 
0

>  <FF_Energy>  (2738) 
-4.57

>  <QM_Energy>  (2738) 
-11.94

>  <source>  (2738) 
ETAM_MBZ

>  <Index>  (2738) 
29412

$$$$
ETAM-pdb3wwy-B-LYS-12:MBZ-pdb3wwy-B-PHE-54
     RDKit          3D

 26 25  0  0  0  0  0  0  0  0999 V2000
   -0.8696   -1.6864   -4.6046 C   0  0  0  0  0  0  0  0  0  0  0  0
   -1.7174   -1.7747   -4.0831 H   0  0  0  0  0  0  0  0  0  0  0  0
   -0.6565   -2.5567   -5.0472 H   0  0  0  0  0  0  0  0  0  0  0  0
   -1.0017   -0.9216   -5.3699 H   0  0  0  0  0  0  0  0  0  0  0  0
    0.2429   -1.3363   -3.6648 C   0  0  0  0  0  0  0  0  0  0  0  0
    0.0830   -1.7998   -2.7791 H   0  0  0  0  0  0  0  0  0  0  0  0
    1.1144   -1.6895   -4.0403 H   0  0  0  0  0  0  0  0  0  0  0  0
    0.3602    0.1046   -3.4430 N   0  0  0  0  0  4  0  0  0  0  0  0
    0.3803    0.5879   -4.3222 H   0  0  0  0  0  0  0  0  0  0  0  0
   -0.4222    0.4351   -2.9083 H   0  0  0  0  0  0  0  0  0  0  0  0
    1.2057    0.3081   -2.9417 H   0  0  0  0  0  0  0  0  0  0  0  0
    0.0063    2.8396   -0.0052 C   0  0  0  0  0  0  0  0  0  0  0  0
   -0.6938    3.1569   -0.6360 H   0  0  0  0  0  0  0  0  0  0  0  0
    0.9042    3.1504   -0.2989 H   0  0  0  0  0  0  0  0  0  0  0  0
   -0.1964    3.2913    0.9659 H   0  0  0  0  0  0  0  0  0  0  0  0
   -0.0010    1.3669    0.0012 C   0  0  0  0  0  0  0  0  0  0  0  0
   -1.1688    0.6805    0.0105 C   0  0  0  0  0  0  0  0  0  0  0  0
   -2.0438    1.1723    0.0237 H   0  0  0  0  0  0  0  0  0  0  0  0
   -1.1692   -0.6808    0.0000 C   0  0  0  0  0  0  0  0  0  0  0  0
   -2.0554   -1.1803   -0.0025 H   0  0  0  0  0  0  0  0  0  0  0  0
    0.0032   -1.3565   -0.0048 C   0  0  0  0  0  0  0  0  0  0  0  0
   -0.0032   -2.3690   -0.0125 H   0  0  0  0  0  0  0  0  0  0  0  0
    1.1692   -0.6816   -0.0000 C   0  0  0  0  0  0  0  0  0  0  0  0
    2.0623   -1.1853    0.0107 H   0  0  0  0  0  0  0  0  0  0  0  0
    1.1666    0.6715   -0.0068 C   0  0  0  0  0  0  0  0  0  0  0  0
    2.0448    1.1750   -0.0191 H   0  0  0  0  0  0  0  0  0  0  0  0
  1  5  1  0
  5  8  1  0
  1  2  1  0
  1  3  1  0
  1  4  1  0
  5  6  1  0
  5  7  1  0
  8  9  1  0
  8 10  1  0
  8 11  1  0
 12 16  1  0
 16 17  2  0
 17 19  1  0
 19 21  2  0
 21 23  1  0
 23 25  2  0
 25 16  1  0
 12 13  1  0
 12 14  1  0
 12 15  1  0
 17 18  1  0
 19 20  1  0
 21 22  1  0
 23 24  1  0
 25 26  1  0
M  CHG  1   8   1
M  END
>  <PDB_ID>  (2739) 
pdb3wwy

>  <RESIDUE_NAME>  (2739) 
LYS   PHE

>  <FRAG_NAME>  (2739) 
ETAM   MBZ

>  <FRAG_ATOM_NUM>  (2739) 
fragi: 11  fragj: 15

>  <atom.prop.CHAIN_ID>  (2739) 
A A A A A A A A A A A Z Z Z Z Z Z Z Z Z Z Z Z Z Z Z

>  <atom.prop.IS_HEAVY_ATOM>  (2739) 
1 0 0 0 1 0 0 1 0 0 0 1 0 0 0 1 1 0 1 0 1 0 1 0 1 0

>  <DIFUSE_FUNC_ATOM>  (2739) 
n/a

>  <FINAL_SINGLE_POINT_ENERGY>  (2739) 
0

>  <NONCOV_INTER_ENERGY_QM>  (2739) 
0

>  <FF_Energy>  (2739) 
-8.36

>  <QM_Energy>  (2739) 
-13.85

>  <source>  (2739) 
ETAM_MBZ

>  <Index>  (2739) 
29417

$$$$
ETAM-pdb3wyf-F-LYS-112:MBZ-pdb3wyf-F-PHE-108
     RDKit          3D

 26 25  0  0  0  0  0  0  0  0999 V2000
   -0.7529   -0.1141    5.1884 C   0  0  0  0  0  0  0  0  0  0  0  0
   -0.9763    0.8009    4.8752 H   0  0  0  0  0  0  0  0  0  0  0  0
    0.1328   -0.1269    5.6345 H   0  0  0  0  0  0  0  0  0  0  0  0
   -1.5128   -0.4411    5.8980 H   0  0  0  0  0  0  0  0  0  0  0  0
   -0.6916   -1.0410    3.9670 C   0  0  0  0  0  0  0  0  0  0  0  0
   -0.5337   -1.9831    4.2869 H   0  0  0  0  0  0  0  0  0  0  0  0
   -1.5841   -1.0134    3.4986 H   0  0  0  0  0  0  0  0  0  0  0  0
    0.3821   -0.6695    2.9949 N   0  0  0  0  0  4  0  0  0  0  0  0
    1.0595   -1.4019    2.9589 H   0  0  0  0  0  0  0  0  0  0  0  0
   -0.0235   -0.5406    2.0918 H   0  0  0  0  0  0  0  0  0  0  0  0
    0.8162    0.1781    3.2945 H   0  0  0  0  0  0  0  0  0  0  0  0
    0.0138    2.9252   -0.0013 C   0  0  0  0  0  0  0  0  0  0  0  0
   -0.6074    3.2315   -0.7056 H   0  0  0  0  0  0  0  0  0  0  0  0
    0.9391    3.2206   -0.1801 H   0  0  0  0  0  0  0  0  0  0  0  0
   -0.3009    3.3869    0.9346 H   0  0  0  0  0  0  0  0  0  0  0  0
   -0.0004    1.4076    0.0090 C   0  0  0  0  0  0  0  0  0  0  0  0
   -1.1949    0.7028   -0.0163 C   0  0  0  0  0  0  0  0  0  0  0  0
   -2.0625    1.1893   -0.0473 H   0  0  0  0  0  0  0  0  0  0  0  0
   -1.2057   -0.6986   -0.0000 C   0  0  0  0  0  0  0  0  0  0  0  0
   -2.0855   -1.1829    0.0058 H   0  0  0  0  0  0  0  0  0  0  0  0
   -0.0077   -1.3989    0.0098 C   0  0  0  0  0  0  0  0  0  0  0  0
   -0.0086   -2.3949    0.0235 H   0  0  0  0  0  0  0  0  0  0  0  0
    1.2057   -0.6991   -0.0000 C   0  0  0  0  0  0  0  0  0  0  0  0
    2.0800   -1.2050   -0.0040 H   0  0  0  0  0  0  0  0  0  0  0  0
    1.2031    0.6861   -0.0024 C   0  0  0  0  0  0  0  0  0  0  0  0
    2.0691    1.1872   -0.0134 H   0  0  0  0  0  0  0  0  0  0  0  0
  1  5  1  0
  5  8  1  0
  1  2  1  0
  1  3  1  0
  1  4  1  0
  5  6  1  0
  5  7  1  0
  8  9  1  0
  8 10  1  0
  8 11  1  0
 12 16  1  0
 16 17  2  0
 17 19  1  0
 19 21  2  0
 21 23  1  0
 23 25  2  0
 25 16  1  0
 12 13  1  0
 12 14  1  0
 12 15  1  0
 17 18  1  0
 19 20  1  0
 21 22  1  0
 23 24  1  0
 25 26  1  0
M  CHG  1   8   1
M  END
>  <PDB_ID>  (2740) 
pdb3wyf

>  <RESIDUE_NAME>  (2740) 
LYS   PHE

>  <FRAG_NAME>  (2740) 
ETAM   MBZ

>  <FRAG_ATOM_NUM>  (2740) 
fragi: 11  fragj: 15

>  <atom.prop.CHAIN_ID>  (2740) 
A A A A A A A A A A A Z Z Z Z Z Z Z Z Z Z Z Z Z Z Z

>  <atom.prop.IS_HEAVY_ATOM>  (2740) 
1 0 0 0 1 0 0 1 0 0 0 1 0 0 0 1 1 0 1 0 1 0 1 0 1 0

>  <DIFUSE_FUNC_ATOM>  (2740) 
n/a

>  <FINAL_SINGLE_POINT_ENERGY>  (2740) 
0

>  <NONCOV_INTER_ENERGY_QM>  (2740) 
0

>  <FF_Energy>  (2740) 
-8.75

>  <QM_Energy>  (2740) 
-17.25

>  <source>  (2740) 
ETAM_MBZ

>  <Index>  (2740) 
29426

$$$$
ETAM-pdb4yb5-A-LYS-186:MBZ-pdb4yb5-A-PHE-122
     RDKit          3D

 26 25  0  0  0  0  0  0  0  0999 V2000
    3.6616   -0.5585    3.9858 C   0  0  0  0  0  0  0  0  0  0  0  0
    3.5700   -0.3300    4.9541 H   0  0  0  0  0  0  0  0  0  0  0  0
    4.5649   -0.2802    3.6597 H   0  0  0  0  0  0  0  0  0  0  0  0
    3.5656   -1.6382    3.8710 H   0  0  0  0  0  0  0  0  0  0  0  0
    2.6097    0.2007    3.2060 C   0  0  0  0  0  0  0  0  0  0  0  0
    2.2953   -0.3643    2.4443 H   0  0  0  0  0  0  0  0  0  0  0  0
    1.8395    0.4063    3.8091 H   0  0  0  0  0  0  0  0  0  0  0  0
    3.1681    1.4705    2.6766 N   0  0  0  0  0  4  0  0  0  0  0  0
    2.8619    1.6025    1.7335 H   0  0  0  0  0  0  0  0  0  0  0  0
    2.8510    2.2350    3.2390 H   0  0  0  0  0  0  0  0  0  0  0  0
    4.1668    1.4315    2.7009 H   0  0  0  0  0  0  0  0  0  0  0  0
   -0.0043    2.8888   -0.0427 C   0  0  0  0  0  0  0  0  0  0  0  0
    0.8282    3.2228    0.3681 H   0  0  0  0  0  0  0  0  0  0  0  0
   -0.8041    3.2175    0.4323 H   0  0  0  0  0  0  0  0  0  0  0  0
   -0.0461    3.2809   -1.0589 H   0  0  0  0  0  0  0  0  0  0  0  0
    0.0025    1.3992    0.0123 C   0  0  0  0  0  0  0  0  0  0  0  0
   -1.1902    0.6949   -0.0124 C   0  0  0  0  0  0  0  0  0  0  0  0
   -2.0580    1.1850   -0.0408 H   0  0  0  0  0  0  0  0  0  0  0  0
   -1.1969   -0.6953   -0.0000 C   0  0  0  0  0  0  0  0  0  0  0  0
   -2.0802   -1.1831    0.0087 H   0  0  0  0  0  0  0  0  0  0  0  0
   -0.0086   -1.3933    0.0026 C   0  0  0  0  0  0  0  0  0  0  0  0
   -0.0096   -2.3911    0.0056 H   0  0  0  0  0  0  0  0  0  0  0  0
    1.1969   -0.6970   -0.0000 C   0  0  0  0  0  0  0  0  0  0  0  0
    2.0755   -1.1990    0.0018 H   0  0  0  0  0  0  0  0  0  0  0  0
    1.1963    0.6916   -0.0024 C   0  0  0  0  0  0  0  0  0  0  0  0
    2.0652    1.1858   -0.0158 H   0  0  0  0  0  0  0  0  0  0  0  0
  1  5  1  0
  5  8  1  0
  1  2  1  0
  1  3  1  0
  1  4  1  0
  5  6  1  0
  5  7  1  0
  8  9  1  0
  8 10  1  0
  8 11  1  0
 12 16  1  0
 16 17  2  0
 17 19  1  0
 19 21  2  0
 21 23  1  0
 23 25  2  0
 25 16  1  0
 12 13  1  0
 12 14  1  0
 12 15  1  0
 17 18  1  0
 19 20  1  0
 21 22  1  0
 23 24  1  0
 25 26  1  0
M  CHG  1   8   1
M  END
>  <PDB_ID>  (2741) 
pdb4yb5

>  <RESIDUE_NAME>  (2741) 
LYS   PHE

>  <FRAG_NAME>  (2741) 
ETAM   MBZ

>  <FRAG_ATOM_NUM>  (2741) 
fragi: 11  fragj: 15

>  <atom.prop.CHAIN_ID>  (2741) 
A A A A A A A A A A A Z Z Z Z Z Z Z Z Z Z Z Z Z Z Z

>  <atom.prop.IS_HEAVY_ATOM>  (2741) 
1 0 0 0 1 0 0 1 0 0 0 1 0 0 0 1 1 0 1 0 1 0 1 0 1 0

>  <DIFUSE_FUNC_ATOM>  (2741) 
n/a

>  <FINAL_SINGLE_POINT_ENERGY>  (2741) 
0

>  <NONCOV_INTER_ENERGY_QM>  (2741) 
0

>  <FF_Energy>  (2741) 
-2.37

>  <QM_Energy>  (2741) 
-7.61

>  <source>  (2741) 
ETAM_MBZ

>  <Index>  (2741) 
29431

$$$$
ETAM-pdb4yc7-A-LYS-4:MBZ-pdb4yc7-A-PHE-55
     RDKit          3D

 26 25  0  0  0  0  0  0  0  0999 V2000
   -1.2387   -1.3606   -3.9082 C   0  0  0  0  0  0  0  0  0  0  0  0
   -1.1423   -2.2085   -3.3885 H   0  0  0  0  0  0  0  0  0  0  0  0
   -1.3270   -1.5707   -4.8807 H   0  0  0  0  0  0  0  0  0  0  0  0
   -2.1429   -0.8497   -3.5772 H   0  0  0  0  0  0  0  0  0  0  0  0
    0.0196   -0.5236   -3.7072 C   0  0  0  0  0  0  0  0  0  0  0  0
    0.1080    0.1210   -4.4710 H   0  0  0  0  0  0  0  0  0  0  0  0
   -0.0660   -0.0059   -2.8525 H   0  0  0  0  0  0  0  0  0  0  0  0
    1.2541   -1.3711   -3.6402 N   0  0  0  0  0  4  0  0  0  0  0  0
    1.1723   -2.1192   -4.2955 H   0  0  0  0  0  0  0  0  0  0  0  0
    2.0480   -0.8100   -3.8644 H   0  0  0  0  0  0  0  0  0  0  0  0
    1.3484   -1.7381   -2.7170 H   0  0  0  0  0  0  0  0  0  0  0  0
    0.0117    2.9249    0.0218 C   0  0  0  0  0  0  0  0  0  0  0  0
   -0.5702    3.2443   -0.7060 H   0  0  0  0  0  0  0  0  0  0  0  0
    0.9416    3.2288   -0.0897 H   0  0  0  0  0  0  0  0  0  0  0  0
   -0.3636    3.3474    0.9539 H   0  0  0  0  0  0  0  0  0  0  0  0
    0.0055    1.4142   -0.0012 C   0  0  0  0  0  0  0  0  0  0  0  0
   -1.2054    0.6995   -0.0046 C   0  0  0  0  0  0  0  0  0  0  0  0
   -2.0672    1.1901   -0.0118 H   0  0  0  0  0  0  0  0  0  0  0  0
   -1.2144   -0.7045   -0.0000 C   0  0  0  0  0  0  0  0  0  0  0  0
   -2.0924   -1.1906    0.0019 H   0  0  0  0  0  0  0  0  0  0  0  0
   -0.0107   -1.4083    0.0043 C   0  0  0  0  0  0  0  0  0  0  0  0
   -0.0080   -2.4009    0.0099 H   0  0  0  0  0  0  0  0  0  0  0  0
    1.2144   -0.7010   -0.0000 C   0  0  0  0  0  0  0  0  0  0  0  0
    2.0857   -1.2027   -0.0028 H   0  0  0  0  0  0  0  0  0  0  0  0
    1.2106    0.7001    0.0015 C   0  0  0  0  0  0  0  0  0  0  0  0
    2.0759    1.1945    0.0034 H   0  0  0  0  0  0  0  0  0  0  0  0
  1  5  1  0
  5  8  1  0
  1  2  1  0
  1  3  1  0
  1  4  1  0
  5  6  1  0
  5  7  1  0
  8  9  1  0
  8 10  1  0
  8 11  1  0
 12 16  1  0
 16 17  2  0
 17 19  1  0
 19 21  2  0
 21 23  1  0
 23 25  2  0
 25 16  1  0
 12 13  1  0
 12 14  1  0
 12 15  1  0
 17 18  1  0
 19 20  1  0
 21 22  1  0
 23 24  1  0
 25 26  1  0
M  CHG  1   8   1
M  END
>  <PDB_ID>  (2742) 
pdb4yc7

>  <RESIDUE_NAME>  (2742) 
LYS   PHE

>  <FRAG_NAME>  (2742) 
ETAM   MBZ

>  <FRAG_ATOM_NUM>  (2742) 
fragi: 11  fragj: 15

>  <atom.prop.CHAIN_ID>  (2742) 
A A A A A A A A A A A Z Z Z Z Z Z Z Z Z Z Z Z Z Z Z

>  <atom.prop.IS_HEAVY_ATOM>  (2742) 
1 0 0 0 1 0 0 1 0 0 0 1 0 0 0 1 1 0 1 0 1 0 1 0 1 0

>  <DIFUSE_FUNC_ATOM>  (2742) 
n/a

>  <FINAL_SINGLE_POINT_ENERGY>  (2742) 
0

>  <NONCOV_INTER_ENERGY_QM>  (2742) 
0

>  <FF_Energy>  (2742) 
-6.05

>  <QM_Energy>  (2742) 
-12.49

>  <source>  (2742) 
ETAM_MBZ

>  <Index>  (2742) 
29441

$$$$
ETAM-pdb3x1l-F-LYS-119:MBZ-pdb3x1l-G-PHE-15
     RDKit          3D

 26 25  0  0  0  0  0  0  0  0999 V2000
    0.3870   -3.0547   -4.6942 C   0  0  0  0  0  0  0  0  0  0  0  0
   -0.4063   -3.5287   -4.3304 H   0  0  0  0  0  0  0  0  0  0  0  0
    0.9599   -3.6794   -5.2118 H   0  0  0  0  0  0  0  0  0  0  0  0
    0.0509   -2.2527   -5.3514 H   0  0  0  0  0  0  0  0  0  0  0  0
    1.1977   -2.5047   -3.5306 C   0  0  0  0  0  0  0  0  0  0  0  0
    2.0433   -2.1003   -3.8870 H   0  0  0  0  0  0  0  0  0  0  0  0
    0.6633   -1.7899   -3.0721 H   0  0  0  0  0  0  0  0  0  0  0  0
    1.5403   -3.5663   -2.5466 N   0  0  0  0  0  4  0  0  0  0  0  0
    2.5327   -3.6802   -2.5126 H   0  0  0  0  0  0  0  0  0  0  0  0
    1.2022   -3.3034   -1.6434 H   0  0  0  0  0  0  0  0  0  0  0  0
    1.1151   -4.4267   -2.8248 H   0  0  0  0  0  0  0  0  0  0  0  0
   -0.0017    2.8992   -0.0045 C   0  0  0  0  0  0  0  0  0  0  0  0
   -0.6864    3.2023   -0.6500 H   0  0  0  0  0  0  0  0  0  0  0  0
    0.9008    3.2050   -0.2677 H   0  0  0  0  0  0  0  0  0  0  0  0
   -0.2353    3.3443    0.9626 H   0  0  0  0  0  0  0  0  0  0  0  0
   -0.0001    1.3959    0.0015 C   0  0  0  0  0  0  0  0  0  0  0  0
   -1.1904    0.6896   -0.0012 C   0  0  0  0  0  0  0  0  0  0  0  0
   -2.0597    1.1812   -0.0054 H   0  0  0  0  0  0  0  0  0  0  0  0
   -1.1954   -0.6929    0.0000 C   0  0  0  0  0  0  0  0  0  0  0  0
   -2.0744   -1.1879    0.0024 H   0  0  0  0  0  0  0  0  0  0  0  0
   -0.0017   -1.3868   -0.0000 C   0  0  0  0  0  0  0  0  0  0  0  0
   -0.0067   -2.3880   -0.0010 H   0  0  0  0  0  0  0  0  0  0  0  0
    1.1954   -0.6961    0.0000 C   0  0  0  0  0  0  0  0  0  0  0  0
    2.0776   -1.1945    0.0017 H   0  0  0  0  0  0  0  0  0  0  0  0
    1.1922    0.6903   -0.0003 C   0  0  0  0  0  0  0  0  0  0  0  0
    2.0617    1.1868   -0.0023 H   0  0  0  0  0  0  0  0  0  0  0  0
  1  5  1  0
  5  8  1  0
  1  2  1  0
  1  3  1  0
  1  4  1  0
  5  6  1  0
  5  7  1  0
  8  9  1  0
  8 10  1  0
  8 11  1  0
 12 16  1  0
 16 17  2  0
 17 19  1  0
 19 21  2  0
 21 23  1  0
 23 25  2  0
 25 16  1  0
 12 13  1  0
 12 14  1  0
 12 15  1  0
 17 18  1  0
 19 20  1  0
 21 22  1  0
 23 24  1  0
 25 26  1  0
M  CHG  1   8   1
M  END
>  <PDB_ID>  (2743) 
pdb3x1l

>  <RESIDUE_NAME>  (2743) 
LYS   PHE

>  <FRAG_NAME>  (2743) 
ETAM   MBZ

>  <FRAG_ATOM_NUM>  (2743) 
fragi: 11  fragj: 15

>  <atom.prop.CHAIN_ID>  (2743) 
A A A A A A A A A A A Z Z Z Z Z Z Z Z Z Z Z Z Z Z Z

>  <atom.prop.IS_HEAVY_ATOM>  (2743) 
1 0 0 0 1 0 0 1 0 0 0 1 0 0 0 1 1 0 1 0 1 0 1 0 1 0

>  <DIFUSE_FUNC_ATOM>  (2743) 
n/a

>  <FINAL_SINGLE_POINT_ENERGY>  (2743) 
0

>  <NONCOV_INTER_ENERGY_QM>  (2743) 
0

>  <FF_Energy>  (2743) 
-1.64

>  <QM_Energy>  (2743) 
-7.38

>  <source>  (2743) 
ETAM_MBZ

>  <Index>  (2743) 
29486

$$$$
ETAM-pdb4yeg-B-LYS-89:MBZ-pdb4yeg-B-PHE-132
     RDKit          3D

 26 25  0  0  0  0  0  0  0  0999 V2000
    3.0324   -0.7817    5.1628 C   0  0  0  0  0  0  0  0  0  0  0  0
    3.2248   -1.5257    5.7910 H   0  0  0  0  0  0  0  0  0  0  0  0
    2.3435   -0.1744    5.5389 H   0  0  0  0  0  0  0  0  0  0  0  0
    3.9491   -0.2156    4.9973 H   0  0  0  0  0  0  0  0  0  0  0  0
    2.5127   -1.3635    3.8625 C   0  0  0  0  0  0  0  0  0  0  0  0
    3.1599   -2.0454    3.5276 H   0  0  0  0  0  0  0  0  0  0  0  0
    1.6259   -1.7915    4.0264 H   0  0  0  0  0  0  0  0  0  0  0  0
    2.3583   -0.2914    2.8425 N   0  0  0  0  0  4  0  0  0  0  0  0
    3.2188   -0.1787    2.3464 H   0  0  0  0  0  0  0  0  0  0  0  0
    1.6334   -0.5447    2.2022 H   0  0  0  0  0  0  0  0  0  0  0  0
    2.1186    0.5665    3.2965 H   0  0  0  0  0  0  0  0  0  0  0  0
   -0.0031    2.8989    0.0005 C   0  0  0  0  0  0  0  0  0  0  0  0
    0.6898    3.2076   -0.6322 H   0  0  0  0  0  0  0  0  0  0  0  0
    0.1829    3.2083    0.9198 H   0  0  0  0  0  0  0  0  0  0  0  0
   -0.9527    3.3352   -0.3094 H   0  0  0  0  0  0  0  0  0  0  0  0
    0.0013    1.3971    0.0021 C   0  0  0  0  0  0  0  0  0  0  0  0
   -1.1929    0.6874   -0.0002 C   0  0  0  0  0  0  0  0  0  0  0  0
   -2.0607    1.1776   -0.0026 H   0  0  0  0  0  0  0  0  0  0  0  0
   -1.1964   -0.7001   -0.0000 C   0  0  0  0  0  0  0  0  0  0  0  0
   -2.0766   -1.1921    0.0026 H   0  0  0  0  0  0  0  0  0  0  0  0
   -0.0049   -1.3888   -0.0025 C   0  0  0  0  0  0  0  0  0  0  0  0
   -0.0011   -2.3887   -0.0064 H   0  0  0  0  0  0  0  0  0  0  0  0
    1.1964   -0.6895    0.0000 C   0  0  0  0  0  0  0  0  0  0  0  0
    2.0779   -1.1934    0.0031 H   0  0  0  0  0  0  0  0  0  0  0  0
    1.1965    0.6938    0.0006 C   0  0  0  0  0  0  0  0  0  0  0  0
    2.0634    1.1915   -0.0011 H   0  0  0  0  0  0  0  0  0  0  0  0
  1  5  1  0
  5  8  1  0
  1  2  1  0
  1  3  1  0
  1  4  1  0
  5  6  1  0
  5  7  1  0
  8  9  1  0
  8 10  1  0
  8 11  1  0
 12 16  1  0
 16 17  2  0
 17 19  1  0
 19 21  2  0
 21 23  1  0
 23 25  2  0
 25 16  1  0
 12 13  1  0
 12 14  1  0
 12 15  1  0
 17 18  1  0
 19 20  1  0
 21 22  1  0
 23 24  1  0
 25 26  1  0
M  CHG  1   8   1
M  END
>  <PDB_ID>  (2744) 
pdb4yeg

>  <RESIDUE_NAME>  (2744) 
LYS   PHE

>  <FRAG_NAME>  (2744) 
ETAM   MBZ

>  <FRAG_ATOM_NUM>  (2744) 
fragi: 11  fragj: 15

>  <atom.prop.CHAIN_ID>  (2744) 
A A A A A A A A A A A Z Z Z Z Z Z Z Z Z Z Z Z Z Z Z

>  <atom.prop.IS_HEAVY_ATOM>  (2744) 
1 0 0 0 1 0 0 1 0 0 0 1 0 0 0 1 1 0 1 0 1 0 1 0 1 0

>  <DIFUSE_FUNC_ATOM>  (2744) 
n/a

>  <FINAL_SINGLE_POINT_ENERGY>  (2744) 
0

>  <NONCOV_INTER_ENERGY_QM>  (2744) 
0

>  <FF_Energy>  (2744) 
-4.36

>  <QM_Energy>  (2744) 
-11.37

>  <source>  (2744) 
ETAM_MBZ

>  <Index>  (2744) 
29488

$$$$
ETAM-pdb3wyf-C-LYS-112:MBZ-pdb3wyf-C-PHE-108
     RDKit          3D

 26 25  0  0  0  0  0  0  0  0999 V2000
   -0.1648   -0.0435    5.0424 C   0  0  0  0  0  0  0  0  0  0  0  0
   -0.8762   -0.1121    4.3669 H   0  0  0  0  0  0  0  0  0  0  0  0
    0.0982    0.8880    5.2138 H   0  0  0  0  0  0  0  0  0  0  0  0
   -0.5065   -0.4992    5.9717 H   0  0  0  0  0  0  0  0  0  0  0  0
    1.0564   -0.8085    4.5428 C   0  0  0  0  0  0  0  0  0  0  0  0
    1.8835   -0.3611    4.9000 H   0  0  0  0  0  0  0  0  0  0  0  0
    1.0185   -1.7458    4.9057 H   0  0  0  0  0  0  0  0  0  0  0  0
    1.1205   -0.8551    3.0663 N   0  0  0  0  0  4  0  0  0  0  0  0
    1.8581   -1.4688    2.7809 H   0  0  0  0  0  0  0  0  0  0  0  0
    0.2502   -1.1908    2.7022 H   0  0  0  0  0  0  0  0  0  0  0  0
    1.2964    0.0634    2.7075 H   0  0  0  0  0  0  0  0  0  0  0  0
    0.0083    2.9031    0.0045 C   0  0  0  0  0  0  0  0  0  0  0  0
   -0.7455    3.2200   -0.5492 H   0  0  0  0  0  0  0  0  0  0  0  0
    0.8748    3.2123   -0.3532 H   0  0  0  0  0  0  0  0  0  0  0  0
   -0.1099    3.3303    1.0004 H   0  0  0  0  0  0  0  0  0  0  0  0
    0.0032    1.4042   -0.0091 C   0  0  0  0  0  0  0  0  0  0  0  0
   -1.1972    0.6979    0.0024 C   0  0  0  0  0  0  0  0  0  0  0  0
   -2.0618    1.1898    0.0112 H   0  0  0  0  0  0  0  0  0  0  0  0
   -1.2065   -0.6960    0.0000 C   0  0  0  0  0  0  0  0  0  0  0  0
   -2.0848   -1.1850    0.0016 H   0  0  0  0  0  0  0  0  0  0  0  0
   -0.0072   -1.3978   -0.0029 C   0  0  0  0  0  0  0  0  0  0  0  0
   -0.0106   -2.3946   -0.0078 H   0  0  0  0  0  0  0  0  0  0  0  0
    1.2065   -0.7012   -0.0000 C   0  0  0  0  0  0  0  0  0  0  0  0
    2.0814   -1.2018   -0.0033 H   0  0  0  0  0  0  0  0  0  0  0  0
    1.2011    0.6929    0.0095 C   0  0  0  0  0  0  0  0  0  0  0  0
    2.0691    1.1882    0.0292 H   0  0  0  0  0  0  0  0  0  0  0  0
  1  5  1  0
  5  8  1  0
  1  2  1  0
  1  3  1  0
  1  4  1  0
  5  6  1  0
  5  7  1  0
  8  9  1  0
  8 10  1  0
  8 11  1  0
 12 16  1  0
 16 17  2  0
 17 19  1  0
 19 21  2  0
 21 23  1  0
 23 25  2  0
 25 16  1  0
 12 13  1  0
 12 14  1  0
 12 15  1  0
 17 18  1  0
 19 20  1  0
 21 22  1  0
 23 24  1  0
 25 26  1  0
M  CHG  1   8   1
M  END
>  <PDB_ID>  (2745) 
pdb3wyf

>  <RESIDUE_NAME>  (2745) 
LYS   PHE

>  <FRAG_NAME>  (2745) 
ETAM   MBZ

>  <FRAG_ATOM_NUM>  (2745) 
fragi: 11  fragj: 15

>  <atom.prop.CHAIN_ID>  (2745) 
A A A A A A A A A A A Z Z Z Z Z Z Z Z Z Z Z Z Z Z Z

>  <atom.prop.IS_HEAVY_ATOM>  (2745) 
1 0 0 0 1 0 0 1 0 0 0 1 0 0 0 1 1 0 1 0 1 0 1 0 1 0

>  <DIFUSE_FUNC_ATOM>  (2745) 
n/a

>  <FINAL_SINGLE_POINT_ENERGY>  (2745) 
0

>  <NONCOV_INTER_ENERGY_QM>  (2745) 
0

>  <FF_Energy>  (2745) 
-6.34

>  <QM_Energy>  (2745) 
-14.02

>  <source>  (2745) 
ETAM_MBZ

>  <Index>  (2745) 
29500

$$$$
ETAM-pdb3zbg-A-LYS-36:MBZ-pdb3zbg-A-PHE-41
     RDKit          3D

 26 25  0  0  0  0  0  0  0  0999 V2000
   -0.4605   -2.6214   -4.2425 C   0  0  0  0  0  0  0  0  0  0  0  0
   -1.1460   -2.5857   -4.9793 H   0  0  0  0  0  0  0  0  0  0  0  0
    0.4553   -2.6242   -4.6629 H   0  0  0  0  0  0  0  0  0  0  0  0
   -0.5618   -1.7295   -3.6241 H   0  0  0  0  0  0  0  0  0  0  0  0
   -0.6408   -3.9502   -3.4931 C   0  0  0  0  0  0  0  0  0  0  0  0
   -1.6096   -4.0387   -3.2294 H   0  0  0  0  0  0  0  0  0  0  0  0
   -0.4171   -4.7046   -4.1233 H   0  0  0  0  0  0  0  0  0  0  0  0
    0.2112   -4.0605   -2.2737 N   0  0  0  0  0  4  0  0  0  0  0  0
   -0.3209   -4.4734   -1.5355 H   0  0  0  0  0  0  0  0  0  0  0  0
    1.0050   -4.6327   -2.4766 H   0  0  0  0  0  0  0  0  0  0  0  0
    0.5146   -3.1487   -1.9999 H   0  0  0  0  0  0  0  0  0  0  0  0
   -0.0022    2.9151    0.0374 C   0  0  0  0  0  0  0  0  0  0  0  0
   -0.7558    3.2324   -0.5106 H   0  0  0  0  0  0  0  0  0  0  0  0
    0.8642    3.2286   -0.3070 H   0  0  0  0  0  0  0  0  0  0  0  0
   -0.1280    3.3075    1.0465 H   0  0  0  0  0  0  0  0  0  0  0  0
   -0.0002    1.4077   -0.0046 C   0  0  0  0  0  0  0  0  0  0  0  0
   -1.1999    0.6947    0.0083 C   0  0  0  0  0  0  0  0  0  0  0  0
   -2.0658    1.1847    0.0224 H   0  0  0  0  0  0  0  0  0  0  0  0
   -1.2007   -0.6961    0.0000 C   0  0  0  0  0  0  0  0  0  0  0  0
   -2.0773   -1.1921    0.0013 H   0  0  0  0  0  0  0  0  0  0  0  0
    0.0015   -1.3946   -0.0087 C   0  0  0  0  0  0  0  0  0  0  0  0
   -0.0063   -2.3943   -0.0219 H   0  0  0  0  0  0  0  0  0  0  0  0
    1.2007   -0.7020   -0.0000 C   0  0  0  0  0  0  0  0  0  0  0  0
    2.0828   -1.1991    0.0043 H   0  0  0  0  0  0  0  0  0  0  0  0
    1.1986    0.6904    0.0051 C   0  0  0  0  0  0  0  0  0  0  0  0
    2.0667    1.1855    0.0153 H   0  0  0  0  0  0  0  0  0  0  0  0
  1  5  1  0
  5  8  1  0
  1  2  1  0
  1  3  1  0
  1  4  1  0
  5  6  1  0
  5  7  1  0
  8  9  1  0
  8 10  1  0
  8 11  1  0
 12 16  1  0
 16 17  2  0
 17 19  1  0
 19 21  2  0
 21 23  1  0
 23 25  2  0
 25 16  1  0
 12 13  1  0
 12 14  1  0
 12 15  1  0
 17 18  1  0
 19 20  1  0
 21 22  1  0
 23 24  1  0
 25 26  1  0
M  CHG  1   8   1
M  END
>  <PDB_ID>  (2746) 
pdb3zbg

>  <RESIDUE_NAME>  (2746) 
LYS   PHE

>  <FRAG_NAME>  (2746) 
ETAM   MBZ

>  <FRAG_ATOM_NUM>  (2746) 
fragi: 11  fragj: 15

>  <atom.prop.CHAIN_ID>  (2746) 
A A A A A A A A A A A Z Z Z Z Z Z Z Z Z Z Z Z Z Z Z

>  <atom.prop.IS_HEAVY_ATOM>  (2746) 
1 0 0 0 1 0 0 1 0 0 0 1 0 0 0 1 1 0 1 0 1 0 1 0 1 0

>  <DIFUSE_FUNC_ATOM>  (2746) 
n/a

>  <FINAL_SINGLE_POINT_ENERGY>  (2746) 
0

>  <NONCOV_INTER_ENERGY_QM>  (2746) 
0

>  <FF_Energy>  (2746) 
-0.81

>  <QM_Energy>  (2746) 
-6.77

>  <source>  (2746) 
ETAM_MBZ

>  <Index>  (2746) 
29504

$$$$
ETAM-pdb3x38-B-LYS-180:MBZ-pdb3x38-C-PHE-240
     RDKit          3D

 26 25  0  0  0  0  0  0  0  0999 V2000
   -2.3597   -0.6365    3.7002 C   0  0  0  0  0  0  0  0  0  0  0  0
   -1.5040   -0.1718    3.9399 H   0  0  0  0  0  0  0  0  0  0  0  0
   -2.8314   -0.9116    4.5409 H   0  0  0  0  0  0  0  0  0  0  0  0
   -2.9948    0.0579    3.1500 H   0  0  0  0  0  0  0  0  0  0  0  0
   -2.0259   -1.8799    2.9079 C   0  0  0  0  0  0  0  0  0  0  0  0
   -1.7515   -1.5992    1.9547 H   0  0  0  0  0  0  0  0  0  0  0  0
   -1.1778   -2.3088    3.3091 H   0  0  0  0  0  0  0  0  0  0  0  0
   -3.0732   -2.9465    2.7930 N   0  0  0  0  0  4  0  0  0  0  0  0
   -3.2434   -3.3349    3.6965 H   0  0  0  0  0  0  0  0  0  0  0  0
   -3.9118   -2.5427    2.4337 H   0  0  0  0  0  0  0  0  0  0  0  0
   -2.7469   -3.6586    2.1739 H   0  0  0  0  0  0  0  0  0  0  0  0
   -0.0085    2.8793   -0.0392 C   0  0  0  0  0  0  0  0  0  0  0  0
    0.8196    3.2027    0.3908 H   0  0  0  0  0  0  0  0  0  0  0  0
   -0.8121    3.1969    0.4390 H   0  0  0  0  0  0  0  0  0  0  0  0
   -0.0402    3.2862   -1.0500 H   0  0  0  0  0  0  0  0  0  0  0  0
   -0.0020    1.3893   -0.0065 C   0  0  0  0  0  0  0  0  0  0  0  0
   -1.1951    0.6777   -0.0006 C   0  0  0  0  0  0  0  0  0  0  0  0
   -2.0617    1.1708    0.0023 H   0  0  0  0  0  0  0  0  0  0  0  0
   -1.1889   -0.6952   -0.0000 C   0  0  0  0  0  0  0  0  0  0  0  0
   -2.0638   -1.2003   -0.0083 H   0  0  0  0  0  0  0  0  0  0  0  0
    0.0071   -1.3742    0.0136 C   0  0  0  0  0  0  0  0  0  0  0  0
    0.0034   -2.3821    0.0332 H   0  0  0  0  0  0  0  0  0  0  0  0
    1.1889   -0.6885    0.0000 C   0  0  0  0  0  0  0  0  0  0  0  0
    2.0776   -1.1870   -0.0040 H   0  0  0  0  0  0  0  0  0  0  0  0
    1.1900    0.6909   -0.0065 C   0  0  0  0  0  0  0  0  0  0  0  0
    2.0573    1.1883   -0.0123 H   0  0  0  0  0  0  0  0  0  0  0  0
  1  5  1  0
  5  8  1  0
  1  2  1  0
  1  3  1  0
  1  4  1  0
  5  6  1  0
  5  7  1  0
  8  9  1  0
  8 10  1  0
  8 11  1  0
 12 16  1  0
 16 17  2  0
 17 19  1  0
 19 21  2  0
 21 23  1  0
 23 25  2  0
 25 16  1  0
 12 13  1  0
 12 14  1  0
 12 15  1  0
 17 18  1  0
 19 20  1  0
 21 22  1  0
 23 24  1  0
 25 26  1  0
M  CHG  1   8   1
M  END
>  <PDB_ID>  (2747) 
pdb3x38

>  <RESIDUE_NAME>  (2747) 
LYS   PHE

>  <FRAG_NAME>  (2747) 
ETAM   MBZ

>  <FRAG_ATOM_NUM>  (2747) 
fragi: 11  fragj: 15

>  <atom.prop.CHAIN_ID>  (2747) 
A A A A A A A A A A A Z Z Z Z Z Z Z Z Z Z Z Z Z Z Z

>  <atom.prop.IS_HEAVY_ATOM>  (2747) 
1 0 0 0 1 0 0 1 0 0 0 1 0 0 0 1 1 0 1 0 1 0 1 0 1 0

>  <DIFUSE_FUNC_ATOM>  (2747) 
n/a

>  <FINAL_SINGLE_POINT_ENERGY>  (2747) 
0

>  <NONCOV_INTER_ENERGY_QM>  (2747) 
0

>  <FF_Energy>  (2747) 
4.33

>  <QM_Energy>  (2747) 
-4.17

>  <source>  (2747) 
ETAM_MBZ

>  <Index>  (2747) 
29508

$$$$
ETAM-pdb3x43-H-LYS-122:MBZ-pdb3x43-H-PHE-226
     RDKit          3D

 26 25  0  0  0  0  0  0  0  0999 V2000
   -1.9251   -1.8066    5.0644 C   0  0  0  0  0  0  0  0  0  0  0  0
   -1.2221   -2.2095    5.6442 H   0  0  0  0  0  0  0  0  0  0  0  0
   -1.9460   -2.2645    4.1809 H   0  0  0  0  0  0  0  0  0  0  0  0
   -2.8937   -1.9291    5.5491 H   0  0  0  0  0  0  0  0  0  0  0  0
   -1.5831   -0.3371    4.8391 C   0  0  0  0  0  0  0  0  0  0  0  0
   -2.4363    0.1814    4.7383 H   0  0  0  0  0  0  0  0  0  0  0  0
   -1.0897    0.0072    5.6434 H   0  0  0  0  0  0  0  0  0  0  0  0
   -0.7416   -0.1355    3.6257 N   0  0  0  0  0  4  0  0  0  0  0  0
    0.1483   -0.5689    3.7644 H   0  0  0  0  0  0  0  0  0  0  0  0
   -1.1958   -0.5471    2.8369 H   0  0  0  0  0  0  0  0  0  0  0  0
   -0.6169    0.8432    3.4681 H   0  0  0  0  0  0  0  0  0  0  0  0
   -0.0009    2.9119   -0.0122 C   0  0  0  0  0  0  0  0  0  0  0  0
    0.6803    3.2239    0.6331 H   0  0  0  0  0  0  0  0  0  0  0  0
   -0.9051    3.2197    0.2419 H   0  0  0  0  0  0  0  0  0  0  0  0
    0.2369    3.3484   -0.9822 H   0  0  0  0  0  0  0  0  0  0  0  0
    0.0002    1.4068   -0.0004 C   0  0  0  0  0  0  0  0  0  0  0  0
   -1.1957    0.6981   -0.0005 C   0  0  0  0  0  0  0  0  0  0  0  0
   -2.0633    1.1851   -0.0028 H   0  0  0  0  0  0  0  0  0  0  0  0
   -1.2012   -0.6994    0.0000 C   0  0  0  0  0  0  0  0  0  0  0  0
   -2.0790   -1.1892    0.0020 H   0  0  0  0  0  0  0  0  0  0  0  0
    0.0001   -1.3981   -0.0006 C   0  0  0  0  0  0  0  0  0  0  0  0
   -0.0059   -2.3965   -0.0024 H   0  0  0  0  0  0  0  0  0  0  0  0
    1.2012   -0.7035   -0.0000 C   0  0  0  0  0  0  0  0  0  0  0  0
    2.0828   -1.1959    0.0013 H   0  0  0  0  0  0  0  0  0  0  0  0
    1.1954    0.6962    0.0015 C   0  0  0  0  0  0  0  0  0  0  0  0
    2.0658    1.1888    0.0034 H   0  0  0  0  0  0  0  0  0  0  0  0
  1  5  1  0
  5  8  1  0
  1  2  1  0
  1  3  1  0
  1  4  1  0
  5  6  1  0
  5  7  1  0
  8  9  1  0
  8 10  1  0
  8 11  1  0
 12 16  1  0
 16 17  2  0
 17 19  1  0
 19 21  2  0
 21 23  1  0
 23 25  2  0
 25 16  1  0
 12 13  1  0
 12 14  1  0
 12 15  1  0
 17 18  1  0
 19 20  1  0
 21 22  1  0
 23 24  1  0
 25 26  1  0
M  CHG  1   8   1
M  END
>  <PDB_ID>  (2748) 
pdb3x43

>  <RESIDUE_NAME>  (2748) 
LYS   PHE

>  <FRAG_NAME>  (2748) 
ETAM   MBZ

>  <FRAG_ATOM_NUM>  (2748) 
fragi: 11  fragj: 15

>  <atom.prop.CHAIN_ID>  (2748) 
A A A A A A A A A A A Z Z Z Z Z Z Z Z Z Z Z Z Z Z Z

>  <atom.prop.IS_HEAVY_ATOM>  (2748) 
1 0 0 0 1 0 0 1 0 0 0 1 0 0 0 1 1 0 1 0 1 0 1 0 1 0

>  <DIFUSE_FUNC_ATOM>  (2748) 
n/a

>  <FINAL_SINGLE_POINT_ENERGY>  (2748) 
0

>  <NONCOV_INTER_ENERGY_QM>  (2748) 
0

>  <FF_Energy>  (2748) 
-6.71

>  <QM_Energy>  (2748) 
-12.06

>  <source>  (2748) 
ETAM_MBZ

>  <Index>  (2748) 
29514

$$$$
ETAM-pdb4y96-A-LYS-116:MBZ-pdb4y96-A-PHE-112
     RDKit          3D

 26 25  0  0  0  0  0  0  0  0999 V2000
   -0.5828   -0.0442    4.5270 C   0  0  0  0  0  0  0  0  0  0  0  0
   -0.2644    0.8573    4.8153 H   0  0  0  0  0  0  0  0  0  0  0  0
   -0.4568   -0.7000    5.2691 H   0  0  0  0  0  0  0  0  0  0  0  0
   -1.6464    0.0210    4.2976 H   0  0  0  0  0  0  0  0  0  0  0  0
    0.2219   -0.4899    3.3382 C   0  0  0  0  0  0  0  0  0  0  0  0
   -0.3428   -0.3971    2.5060 H   0  0  0  0  0  0  0  0  0  0  0  0
    1.0239    0.1163    3.2378 H   0  0  0  0  0  0  0  0  0  0  0  0
    0.6807   -1.8840    3.4594 N   0  0  0  0  0  4  0  0  0  0  0  0
    1.4278   -2.0530    2.8130 H   0  0  0  0  0  0  0  0  0  0  0  0
    1.0080   -2.0546    4.3916 H   0  0  0  0  0  0  0  0  0  0  0  0
   -0.0767   -2.5092    3.2575 H   0  0  0  0  0  0  0  0  0  0  0  0
    0.0605    2.9148   -0.0201 C   0  0  0  0  0  0  0  0  0  0  0  0
    0.2534    3.1965   -0.9542 H   0  0  0  0  0  0  0  0  0  0  0  0
    0.7957    3.2013    0.5855 H   0  0  0  0  0  0  0  0  0  0  0  0
   -0.8474    3.4273    0.2980 H   0  0  0  0  0  0  0  0  0  0  0  0
    0.0024    1.4074    0.0057 C   0  0  0  0  0  0  0  0  0  0  0  0
   -1.1916    0.7103   -0.0011 C   0  0  0  0  0  0  0  0  0  0  0  0
   -2.0589    1.1989   -0.0083 H   0  0  0  0  0  0  0  0  0  0  0  0
   -1.2028   -0.6861    0.0000 C   0  0  0  0  0  0  0  0  0  0  0  0
   -2.0861   -1.1717    0.0050 H   0  0  0  0  0  0  0  0  0  0  0  0
   -0.0083   -1.4010   -0.0038 C   0  0  0  0  0  0  0  0  0  0  0  0
   -0.0228   -2.3956   -0.0098 H   0  0  0  0  0  0  0  0  0  0  0  0
    1.2028   -0.7119    0.0000 C   0  0  0  0  0  0  0  0  0  0  0  0
    2.0772   -1.2117    0.0050 H   0  0  0  0  0  0  0  0  0  0  0  0
    1.1976    0.6814   -0.0008 C   0  0  0  0  0  0  0  0  0  0  0  0
    2.0699    1.1766   -0.0070 H   0  0  0  0  0  0  0  0  0  0  0  0
  1  5  1  0
  5  8  1  0
  1  2  1  0
  1  3  1  0
  1  4  1  0
  5  6  1  0
  5  7  1  0
  8  9  1  0
  8 10  1  0
  8 11  1  0
 12 16  1  0
 16 17  2  0
 17 19  1  0
 19 21  2  0
 21 23  1  0
 23 25  2  0
 25 16  1  0
 12 13  1  0
 12 14  1  0
 12 15  1  0
 17 18  1  0
 19 20  1  0
 21 22  1  0
 23 24  1  0
 25 26  1  0
M  CHG  1   8   1
M  END
>  <PDB_ID>  (2749) 
pdb4y96

>  <RESIDUE_NAME>  (2749) 
LYS   PHE

>  <FRAG_NAME>  (2749) 
ETAM   MBZ

>  <FRAG_ATOM_NUM>  (2749) 
fragi: 11  fragj: 15

>  <atom.prop.CHAIN_ID>  (2749) 
A A A A A A A A A A A Z Z Z Z Z Z Z Z Z Z Z Z Z Z Z

>  <atom.prop.IS_HEAVY_ATOM>  (2749) 
1 0 0 0 1 0 0 1 0 0 0 1 0 0 0 1 1 0 1 0 1 0 1 0 1 0

>  <DIFUSE_FUNC_ATOM>  (2749) 
n/a

>  <FINAL_SINGLE_POINT_ENERGY>  (2749) 
0

>  <NONCOV_INTER_ENERGY_QM>  (2749) 
0

>  <FF_Energy>  (2749) 
-5.2

>  <QM_Energy>  (2749) 
-11.94

>  <source>  (2749) 
ETAM_MBZ

>  <Index>  (2749) 
29518

$$$$
ETAM-pdb3x01-B-LYS-231:MBZ-pdb3x01-B-PHE-238
     RDKit          3D

 26 25  0  0  0  0  0  0  0  0999 V2000
    4.3206   -2.9945    0.8640 C   0  0  0  0  0  0  0  0  0  0  0  0
    5.1155   -3.0373    1.4621 H   0  0  0  0  0  0  0  0  0  0  0  0
    4.4548   -3.5826    0.0716 H   0  0  0  0  0  0  0  0  0  0  0  0
    3.4418   -3.3301    1.4146 H   0  0  0  0  0  0  0  0  0  0  0  0
    4.1567   -1.5664    0.3813 C   0  0  0  0  0  0  0  0  0  0  0  0
    3.9274   -1.5778   -0.5989 H   0  0  0  0  0  0  0  0  0  0  0  0
    3.3943   -1.1384    0.8803 H   0  0  0  0  0  0  0  0  0  0  0  0
    5.3853   -0.7552    0.5839 N   0  0  0  0  0  4  0  0  0  0  0  0
    6.0680   -1.0087   -0.1017 H   0  0  0  0  0  0  0  0  0  0  0  0
    5.1623    0.2151    0.4908 H   0  0  0  0  0  0  0  0  0  0  0  0
    5.7509   -0.9269    1.4986 H   0  0  0  0  0  0  0  0  0  0  0  0
   -0.0109    2.8628    0.0473 C   0  0  0  0  0  0  0  0  0  0  0  0
   -0.8183    3.1843   -0.4127 H   0  0  0  0  0  0  0  0  0  0  0  0
    0.8139    3.1917   -0.3772 H   0  0  0  0  0  0  0  0  0  0  0  0
   -0.0347    3.2248    1.0751 H   0  0  0  0  0  0  0  0  0  0  0  0
   -0.0030    1.3728   -0.0168 C   0  0  0  0  0  0  0  0  0  0  0  0
   -1.1727    0.6756    0.0042 C   0  0  0  0  0  0  0  0  0  0  0  0
   -2.0492    1.1693    0.0218 H   0  0  0  0  0  0  0  0  0  0  0  0
   -1.1806   -0.6901    0.0000 C   0  0  0  0  0  0  0  0  0  0  0  0
   -2.0622   -1.1867   -0.0024 H   0  0  0  0  0  0  0  0  0  0  0  0
    0.0004   -1.3659    0.0005 C   0  0  0  0  0  0  0  0  0  0  0  0
    0.0054   -2.3732    0.0005 H   0  0  0  0  0  0  0  0  0  0  0  0
    1.1806   -0.6748    0.0000 C   0  0  0  0  0  0  0  0  0  0  0  0
    2.0691   -1.1810   -0.0075 H   0  0  0  0  0  0  0  0  0  0  0  0
    1.1753    0.6825    0.0120 C   0  0  0  0  0  0  0  0  0  0  0  0
    2.0467    1.1887    0.0420 H   0  0  0  0  0  0  0  0  0  0  0  0
  1  5  1  0
  5  8  1  0
  1  2  1  0
  1  3  1  0
  1  4  1  0
  5  6  1  0
  5  7  1  0
  8  9  1  0
  8 10  1  0
  8 11  1  0
 12 16  1  0
 16 17  2  0
 17 19  1  0
 19 21  2  0
 21 23  1  0
 23 25  2  0
 25 16  1  0
 12 13  1  0
 12 14  1  0
 12 15  1  0
 17 18  1  0
 19 20  1  0
 21 22  1  0
 23 24  1  0
 25 26  1  0
M  CHG  1   8   1
M  END
>  <PDB_ID>  (2750) 
pdb3x01

>  <RESIDUE_NAME>  (2750) 
LYS   PHE

>  <FRAG_NAME>  (2750) 
ETAM   MBZ

>  <FRAG_ATOM_NUM>  (2750) 
fragi: 11  fragj: 15

>  <atom.prop.CHAIN_ID>  (2750) 
A A A A A A A A A A A Z Z Z Z Z Z Z Z Z Z Z Z Z Z Z

>  <atom.prop.IS_HEAVY_ATOM>  (2750) 
1 0 0 0 1 0 0 1 0 0 0 1 0 0 0 1 1 0 1 0 1 0 1 0 1 0

>  <DIFUSE_FUNC_ATOM>  (2750) 
n/a

>  <FINAL_SINGLE_POINT_ENERGY>  (2750) 
0

>  <NONCOV_INTER_ENERGY_QM>  (2750) 
0

>  <FF_Energy>  (2750) 
27.01

>  <QM_Energy>  (2750) 
3.24

>  <source>  (2750) 
ETAM_MBZ

>  <Index>  (2750) 
29520

$$$$
ETAM-pdb4ygf-C-LYS-223:MBZ-pdb4ygf-C-PHE-82
     RDKit          3D

 26 25  0  0  0  0  0  0  0  0999 V2000
    0.7430   -1.6023    4.3556 C   0  0  0  0  0  0  0  0  0  0  0  0
    0.3475   -2.1930    5.0469 H   0  0  0  0  0  0  0  0  0  0  0  0
    1.4896   -1.0687    4.7327 H   0  0  0  0  0  0  0  0  0  0  0  0
    1.1221   -2.2166    3.5389 H   0  0  0  0  0  0  0  0  0  0  0  0
   -0.3154   -0.6699    3.8454 C   0  0  0  0  0  0  0  0  0  0  0  0
   -0.8766   -0.3716    4.5922 H   0  0  0  0  0  0  0  0  0  0  0  0
    0.1070    0.0756    3.3691 H   0  0  0  0  0  0  0  0  0  0  0  0
   -1.1082   -1.4747    2.9133 N   0  0  0  0  0  4  0  0  0  0  0  0
   -0.6257   -1.5613    2.0380 H   0  0  0  0  0  0  0  0  0  0  0  0
   -1.2599   -2.3912    3.2937 H   0  0  0  0  0  0  0  0  0  0  0  0
   -1.9974   -1.0378    2.7533 H   0  0  0  0  0  0  0  0  0  0  0  0
    0.0072    2.8767    0.0047 C   0  0  0  0  0  0  0  0  0  0  0  0
    0.8257    3.1839    0.4732 H   0  0  0  0  0  0  0  0  0  0  0  0
   -0.8074    3.1848    0.4797 H   0  0  0  0  0  0  0  0  0  0  0  0
    0.0038    3.3270   -0.9880 H   0  0  0  0  0  0  0  0  0  0  0  0
    0.0058    1.3881   -0.0055 C   0  0  0  0  0  0  0  0  0  0  0  0
   -1.1882    0.6853    0.0098 C   0  0  0  0  0  0  0  0  0  0  0  0
   -2.0543    1.1827    0.0264 H   0  0  0  0  0  0  0  0  0  0  0  0
   -1.1978   -0.6929    0.0000 C   0  0  0  0  0  0  0  0  0  0  0  0
   -2.0771   -1.1861   -0.0080 H   0  0  0  0  0  0  0  0  0  0  0  0
   -0.0071   -1.3801    0.0035 C   0  0  0  0  0  0  0  0  0  0  0  0
   -0.0045   -2.3828    0.0082 H   0  0  0  0  0  0  0  0  0  0  0  0
    1.1978   -0.6863   -0.0000 C   0  0  0  0  0  0  0  0  0  0  0  0
    2.0746   -1.1931    0.0045 H   0  0  0  0  0  0  0  0  0  0  0  0
    1.1895    0.6859   -0.0079 C   0  0  0  0  0  0  0  0  0  0  0  0
    2.0622    1.1881   -0.0164 H   0  0  0  0  0  0  0  0  0  0  0  0
  1  5  1  0
  5  8  1  0
  1  2  1  0
  1  3  1  0
  1  4  1  0
  5  6  1  0
  5  7  1  0
  8  9  1  0
  8 10  1  0
  8 11  1  0
 12 16  1  0
 16 17  2  0
 17 19  1  0
 19 21  2  0
 21 23  1  0
 23 25  2  0
 25 16  1  0
 12 13  1  0
 12 14  1  0
 12 15  1  0
 17 18  1  0
 19 20  1  0
 21 22  1  0
 23 24  1  0
 25 26  1  0
M  CHG  1   8   1
M  END
>  <PDB_ID>  (2751) 
pdb4ygf

>  <RESIDUE_NAME>  (2751) 
LYS   PHE

>  <FRAG_NAME>  (2751) 
ETAM   MBZ

>  <FRAG_ATOM_NUM>  (2751) 
fragi: 11  fragj: 15

>  <atom.prop.CHAIN_ID>  (2751) 
A A A A A A A A A A A Z Z Z Z Z Z Z Z Z Z Z Z Z Z Z

>  <atom.prop.IS_HEAVY_ATOM>  (2751) 
1 0 0 0 1 0 0 1 0 0 0 1 0 0 0 1 1 0 1 0 1 0 1 0 1 0

>  <DIFUSE_FUNC_ATOM>  (2751) 
n/a

>  <FINAL_SINGLE_POINT_ENERGY>  (2751) 
0

>  <NONCOV_INTER_ENERGY_QM>  (2751) 
0

>  <FF_Energy>  (2751) 
-5.77

>  <QM_Energy>  (2751) 
-14.14

>  <source>  (2751) 
ETAM_MBZ

>  <Index>  (2751) 
29526

$$$$
ETAM-pdb4ygf-D-LYS-223:MBZ-pdb4ygf-D-PHE-82
     RDKit          3D

 26 25  0  0  0  0  0  0  0  0999 V2000
    0.7983   -2.0862    4.9269 C   0  0  0  0  0  0  0  0  0  0  0  0
    0.4395   -2.7077    5.6080 H   0  0  0  0  0  0  0  0  0  0  0  0
    1.6099   -1.6250    5.2542 H   0  0  0  0  0  0  0  0  0  0  0  0
    1.0477   -2.6508    4.0286 H   0  0  0  0  0  0  0  0  0  0  0  0
   -0.2580   -1.0480    4.6073 C   0  0  0  0  0  0  0  0  0  0  0  0
   -0.7229   -0.7814    5.4529 H   0  0  0  0  0  0  0  0  0  0  0  0
    0.1831   -0.2439    4.2065 H   0  0  0  0  0  0  0  0  0  0  0  0
   -1.2645   -1.5816    3.6460 N   0  0  0  0  0  4  0  0  0  0  0  0
   -0.9980   -2.5031    3.3667 H   0  0  0  0  0  0  0  0  0  0  0  0
   -2.1606   -1.6105    4.0871 H   0  0  0  0  0  0  0  0  0  0  0  0
   -1.3041   -0.9857    2.8443 H   0  0  0  0  0  0  0  0  0  0  0  0
    0.0009    2.9176    0.0159 C   0  0  0  0  0  0  0  0  0  0  0  0
    0.8801    3.2101    0.3655 H   0  0  0  0  0  0  0  0  0  0  0  0
   -0.7340    3.2069    0.6138 H   0  0  0  0  0  0  0  0  0  0  0  0
   -0.1498    3.3920   -0.9539 H   0  0  0  0  0  0  0  0  0  0  0  0
   -0.0003    1.3985   -0.0122 C   0  0  0  0  0  0  0  0  0  0  0  0
   -1.1887    0.6827    0.0038 C   0  0  0  0  0  0  0  0  0  0  0  0
   -2.0593    1.1738    0.0174 H   0  0  0  0  0  0  0  0  0  0  0  0
   -1.1889   -0.6971   -0.0000 C   0  0  0  0  0  0  0  0  0  0  0  0
   -2.0702   -1.1932   -0.0048 H   0  0  0  0  0  0  0  0  0  0  0  0
   -0.0003   -1.3828    0.0041 C   0  0  0  0  0  0  0  0  0  0  0  0
   -0.0015   -2.3875    0.0091 H   0  0  0  0  0  0  0  0  0  0  0  0
    1.1889   -0.6932    0.0000 C   0  0  0  0  0  0  0  0  0  0  0  0
    2.0753   -1.1911   -0.0052 H   0  0  0  0  0  0  0  0  0  0  0  0
    1.1893    0.6920    0.0042 C   0  0  0  0  0  0  0  0  0  0  0  0
    2.0596    1.1863    0.0181 H   0  0  0  0  0  0  0  0  0  0  0  0
  1  5  1  0
  5  8  1  0
  1  2  1  0
  1  3  1  0
  1  4  1  0
  5  6  1  0
  5  7  1  0
  8  9  1  0
  8 10  1  0
  8 11  1  0
 12 16  1  0
 16 17  2  0
 17 19  1  0
 19 21  2  0
 21 23  1  0
 23 25  2  0
 25 16  1  0
 12 13  1  0
 12 14  1  0
 12 15  1  0
 17 18  1  0
 19 20  1  0
 21 22  1  0
 23 24  1  0
 25 26  1  0
M  CHG  1   8   1
M  END
>  <PDB_ID>  (2752) 
pdb4ygf

>  <RESIDUE_NAME>  (2752) 
LYS   PHE

>  <FRAG_NAME>  (2752) 
ETAM   MBZ

>  <FRAG_ATOM_NUM>  (2752) 
fragi: 11  fragj: 15

>  <atom.prop.CHAIN_ID>  (2752) 
A A A A A A A A A A A Z Z Z Z Z Z Z Z Z Z Z Z Z Z Z

>  <atom.prop.IS_HEAVY_ATOM>  (2752) 
1 0 0 0 1 0 0 1 0 0 0 1 0 0 0 1 1 0 1 0 1 0 1 0 1 0

>  <DIFUSE_FUNC_ATOM>  (2752) 
n/a

>  <FINAL_SINGLE_POINT_ENERGY>  (2752) 
0

>  <NONCOV_INTER_ENERGY_QM>  (2752) 
0

>  <FF_Energy>  (2752) 
-4.7

>  <QM_Energy>  (2752) 
-10.02

>  <source>  (2752) 
ETAM_MBZ

>  <Index>  (2752) 
29527

$$$$
ETAM-pdb4ygf-E-LYS-223:MBZ-pdb4ygf-E-PHE-82
     RDKit          3D

 26 25  0  0  0  0  0  0  0  0999 V2000
   -1.2461   -0.9485   -4.6005 C   0  0  0  0  0  0  0  0  0  0  0  0
   -0.7249   -1.4324   -5.2957 H   0  0  0  0  0  0  0  0  0  0  0  0
   -2.1073   -0.6230   -4.9755 H   0  0  0  0  0  0  0  0  0  0  0  0
   -1.4563   -1.6343   -3.7798 H   0  0  0  0  0  0  0  0  0  0  0  0
   -0.4441    0.2332   -4.1213 C   0  0  0  0  0  0  0  0  0  0  0  0
    0.0159    0.6556   -4.9043 H   0  0  0  0  0  0  0  0  0  0  0  0
   -1.0630    0.9018   -3.7046 H   0  0  0  0  0  0  0  0  0  0  0  0
    0.5577   -0.1913   -3.1332 N   0  0  0  0  0  4  0  0  0  0  0  0
    0.5158   -1.1860   -3.0115 H   0  0  0  0  0  0  0  0  0  0  0  0
    1.4760    0.0623   -3.4475 H   0  0  0  0  0  0  0  0  0  0  0  0
    0.3789    0.2544   -2.2534 H   0  0  0  0  0  0  0  0  0  0  0  0
    0.0052    2.8851   -0.0059 C   0  0  0  0  0  0  0  0  0  0  0  0
   -0.7927    3.1939   -0.5026 H   0  0  0  0  0  0  0  0  0  0  0  0
    0.8391    3.1834   -0.4496 H   0  0  0  0  0  0  0  0  0  0  0  0
   -0.0243    3.3348    0.9867 H   0  0  0  0  0  0  0  0  0  0  0  0
   -0.0053    1.3862    0.0045 C   0  0  0  0  0  0  0  0  0  0  0  0
   -1.1920    0.6901    0.0045 C   0  0  0  0  0  0  0  0  0  0  0  0
   -2.0594    1.1855    0.0066 H   0  0  0  0  0  0  0  0  0  0  0  0
   -1.1933   -0.6794    0.0000 C   0  0  0  0  0  0  0  0  0  0  0  0
   -2.0654   -1.1864   -0.0018 H   0  0  0  0  0  0  0  0  0  0  0  0
    0.0124   -1.3765    0.0001 C   0  0  0  0  0  0  0  0  0  0  0  0
   -0.0052   -2.3797    0.0002 H   0  0  0  0  0  0  0  0  0  0  0  0
    1.1933   -0.6937   -0.0000 C   0  0  0  0  0  0  0  0  0  0  0  0
    2.0807   -1.1938    0.0080 H   0  0  0  0  0  0  0  0  0  0  0  0
    1.1850    0.6734   -0.0090 C   0  0  0  0  0  0  0  0  0  0  0  0
    2.0550    1.1805   -0.0267 H   0  0  0  0  0  0  0  0  0  0  0  0
  1  5  1  0
  5  8  1  0
  1  2  1  0
  1  3  1  0
  1  4  1  0
  5  6  1  0
  5  7  1  0
  8  9  1  0
  8 10  1  0
  8 11  1  0
 12 16  1  0
 16 17  2  0
 17 19  1  0
 19 21  2  0
 21 23  1  0
 23 25  2  0
 25 16  1  0
 12 13  1  0
 12 14  1  0
 12 15  1  0
 17 18  1  0
 19 20  1  0
 21 22  1  0
 23 24  1  0
 25 26  1  0
M  CHG  1   8   1
M  END
>  <PDB_ID>  (2753) 
pdb4ygf

>  <RESIDUE_NAME>  (2753) 
LYS   PHE

>  <FRAG_NAME>  (2753) 
ETAM   MBZ

>  <FRAG_ATOM_NUM>  (2753) 
fragi: 11  fragj: 15

>  <atom.prop.CHAIN_ID>  (2753) 
A A A A A A A A A A A Z Z Z Z Z Z Z Z Z Z Z Z Z Z Z

>  <atom.prop.IS_HEAVY_ATOM>  (2753) 
1 0 0 0 1 0 0 1 0 0 0 1 0 0 0 1 1 0 1 0 1 0 1 0 1 0

>  <DIFUSE_FUNC_ATOM>  (2753) 
n/a

>  <FINAL_SINGLE_POINT_ENERGY>  (2753) 
0

>  <NONCOV_INTER_ENERGY_QM>  (2753) 
0

>  <FF_Energy>  (2753) 
-9.51

>  <QM_Energy>  (2753) 
-17.09

>  <source>  (2753) 
ETAM_MBZ

>  <Index>  (2753) 
29528

$$$$
ETAM-pdb4ygf-F-LYS-223:MBZ-pdb4ygf-F-PHE-82
     RDKit          3D

 26 25  0  0  0  0  0  0  0  0999 V2000
    1.4929   -0.8043    4.5539 C   0  0  0  0  0  0  0  0  0  0  0  0
    1.0960   -1.3050    5.3101 H   0  0  0  0  0  0  0  0  0  0  0  0
    2.3153   -0.3291    4.8325 H   0  0  0  0  0  0  0  0  0  0  0  0
    1.7353   -1.5009    3.7514 H   0  0  0  0  0  0  0  0  0  0  0  0
    0.4875    0.2125    4.0635 C   0  0  0  0  0  0  0  0  0  0  0  0
    0.0142    0.6111    4.8484 H   0  0  0  0  0  0  0  0  0  0  0  0
    0.9660    0.9309    3.5610 H   0  0  0  0  0  0  0  0  0  0  0  0
   -0.5059   -0.4314    3.1687 N   0  0  0  0  0  4  0  0  0  0  0  0
   -0.1389   -0.4750    2.2394 H   0  0  0  0  0  0  0  0  0  0  0  0
   -0.6983   -1.3569    3.4948 H   0  0  0  0  0  0  0  0  0  0  0  0
   -1.3512    0.1037    3.1687 H   0  0  0  0  0  0  0  0  0  0  0  0
   -0.0008    2.9034   -0.0145 C   0  0  0  0  0  0  0  0  0  0  0  0
    0.8765    3.2101    0.3192 H   0  0  0  0  0  0  0  0  0  0  0  0
   -0.7380    3.2095    0.5660 H   0  0  0  0  0  0  0  0  0  0  0  0
   -0.1522    3.3401   -1.0016 H   0  0  0  0  0  0  0  0  0  0  0  0
    0.0014    1.3900   -0.0062 C   0  0  0  0  0  0  0  0  0  0  0  0
   -1.1864    0.6739    0.0051 C   0  0  0  0  0  0  0  0  0  0  0  0
   -2.0575    1.1677    0.0165 H   0  0  0  0  0  0  0  0  0  0  0  0
   -1.1862   -0.6993   -0.0000 C   0  0  0  0  0  0  0  0  0  0  0  0
   -2.0684   -1.1968   -0.0041 H   0  0  0  0  0  0  0  0  0  0  0  0
   -0.0044   -1.3736    0.0020 C   0  0  0  0  0  0  0  0  0  0  0  0
    0.0044   -2.3807    0.0046 H   0  0  0  0  0  0  0  0  0  0  0  0
    1.1862   -0.6806   -0.0000 C   0  0  0  0  0  0  0  0  0  0  0  0
    2.0712   -1.1882    0.0007 H   0  0  0  0  0  0  0  0  0  0  0  0
    1.1893    0.6897   -0.0008 C   0  0  0  0  0  0  0  0  0  0  0  0
    2.0587    1.1891    0.0015 H   0  0  0  0  0  0  0  0  0  0  0  0
  1  5  1  0
  5  8  1  0
  1  2  1  0
  1  3  1  0
  1  4  1  0
  5  6  1  0
  5  7  1  0
  8  9  1  0
  8 10  1  0
  8 11  1  0
 12 16  1  0
 16 17  2  0
 17 19  1  0
 19 21  2  0
 21 23  1  0
 23 25  2  0
 25 16  1  0
 12 13  1  0
 12 14  1  0
 12 15  1  0
 17 18  1  0
 19 20  1  0
 21 22  1  0
 23 24  1  0
 25 26  1  0
M  CHG  1   8   1
M  END
>  <PDB_ID>  (2754) 
pdb4ygf

>  <RESIDUE_NAME>  (2754) 
LYS   PHE

>  <FRAG_NAME>  (2754) 
ETAM   MBZ

>  <FRAG_ATOM_NUM>  (2754) 
fragi: 11  fragj: 15

>  <atom.prop.CHAIN_ID>  (2754) 
A A A A A A A A A A A Z Z Z Z Z Z Z Z Z Z Z Z Z Z Z

>  <atom.prop.IS_HEAVY_ATOM>  (2754) 
1 0 0 0 1 0 0 1 0 0 0 1 0 0 0 1 1 0 1 0 1 0 1 0 1 0

>  <DIFUSE_FUNC_ATOM>  (2754) 
n/a

>  <FINAL_SINGLE_POINT_ENERGY>  (2754) 
0

>  <NONCOV_INTER_ENERGY_QM>  (2754) 
0

>  <FF_Energy>  (2754) 
-9.43

>  <QM_Energy>  (2754) 
-16.77

>  <source>  (2754) 
ETAM_MBZ

>  <Index>  (2754) 
29529

$$$$
ETAM-pdb4ygf-H-LYS-223:MBZ-pdb4ygf-H-PHE-82
     RDKit          3D

 26 25  0  0  0  0  0  0  0  0999 V2000
    1.1875   -1.8382   -4.5194 C   0  0  0  0  0  0  0  0  0  0  0  0
    1.6133   -2.7233   -4.7152 H   0  0  0  0  0  0  0  0  0  0  0  0
    0.8432   -1.4397   -5.3702 H   0  0  0  0  0  0  0  0  0  0  0  0
    0.3451   -2.0012   -3.8473 H   0  0  0  0  0  0  0  0  0  0  0  0
    2.2503   -0.9063   -3.9441 C   0  0  0  0  0  0  0  0  0  0  0  0
    2.8723   -1.4499   -3.3676 H   0  0  0  0  0  0  0  0  0  0  0  0
    2.7843   -0.5213   -4.7076 H   0  0  0  0  0  0  0  0  0  0  0  0
    1.6692    0.1883   -3.1476 N   0  0  0  0  0  4  0  0  0  0  0  0
    1.9793    1.0713   -3.5069 H   0  0  0  0  0  0  0  0  0  0  0  0
    0.6686    0.1472   -3.1941 H   0  0  0  0  0  0  0  0  0  0  0  0
    1.9581    0.1022   -2.1914 H   0  0  0  0  0  0  0  0  0  0  0  0
    0.0073    2.9209   -0.0349 C   0  0  0  0  0  0  0  0  0  0  0  0
   -0.7153    3.2105   -0.6488 H   0  0  0  0  0  0  0  0  0  0  0  0
    0.8941    3.2074   -0.3730 H   0  0  0  0  0  0  0  0  0  0  0  0
   -0.1561    3.4072    0.9268 H   0  0  0  0  0  0  0  0  0  0  0  0
   -0.0029    1.4059    0.0069 C   0  0  0  0  0  0  0  0  0  0  0  0
   -1.1925    0.6973   -0.0052 C   0  0  0  0  0  0  0  0  0  0  0  0
   -2.0627    1.1813   -0.0193 H   0  0  0  0  0  0  0  0  0  0  0  0
   -1.1891   -0.6930    0.0000 C   0  0  0  0  0  0  0  0  0  0  0  0
   -2.0697   -1.1888    0.0019 H   0  0  0  0  0  0  0  0  0  0  0  0
    0.0068   -1.3926    0.0040 C   0  0  0  0  0  0  0  0  0  0  0  0
   -0.0080   -2.3937    0.0094 H   0  0  0  0  0  0  0  0  0  0  0  0
    1.1891   -0.7068    0.0000 C   0  0  0  0  0  0  0  0  0  0  0  0
    2.0797   -1.1971    0.0031 H   0  0  0  0  0  0  0  0  0  0  0  0
    1.1886    0.6892   -0.0057 C   0  0  0  0  0  0  0  0  0  0  0  0
    2.0614    1.1795   -0.0203 H   0  0  0  0  0  0  0  0  0  0  0  0
  1  5  1  0
  5  8  1  0
  1  2  1  0
  1  3  1  0
  1  4  1  0
  5  6  1  0
  5  7  1  0
  8  9  1  0
  8 10  1  0
  8 11  1  0
 12 16  1  0
 16 17  2  0
 17 19  1  0
 19 21  2  0
 21 23  1  0
 23 25  2  0
 25 16  1  0
 12 13  1  0
 12 14  1  0
 12 15  1  0
 17 18  1  0
 19 20  1  0
 21 22  1  0
 23 24  1  0
 25 26  1  0
M  CHG  1   8   1
M  END
>  <PDB_ID>  (2755) 
pdb4ygf

>  <RESIDUE_NAME>  (2755) 
LYS   PHE

>  <FRAG_NAME>  (2755) 
ETAM   MBZ

>  <FRAG_ATOM_NUM>  (2755) 
fragi: 11  fragj: 15

>  <atom.prop.CHAIN_ID>  (2755) 
A A A A A A A A A A A Z Z Z Z Z Z Z Z Z Z Z Z Z Z Z

>  <atom.prop.IS_HEAVY_ATOM>  (2755) 
1 0 0 0 1 0 0 1 0 0 0 1 0 0 0 1 1 0 1 0 1 0 1 0 1 0

>  <DIFUSE_FUNC_ATOM>  (2755) 
n/a

>  <FINAL_SINGLE_POINT_ENERGY>  (2755) 
0

>  <NONCOV_INTER_ENERGY_QM>  (2755) 
0

>  <FF_Energy>  (2755) 
-6.39

>  <QM_Energy>  (2755) 
-12.96

>  <source>  (2755) 
ETAM_MBZ

>  <Index>  (2755) 
29534

$$$$
ETAM-pdb3zdu-A-LYS-20:MBZ-pdb3zdu-A-PHE-81
     RDKit          3D

 26 25  0  0  0  0  0  0  0  0999 V2000
   -0.8882   -1.6783   -3.7788 C   0  0  0  0  0  0  0  0  0  0  0  0
   -1.1941   -2.3655   -3.1099 H   0  0  0  0  0  0  0  0  0  0  0  0
   -0.9798   -2.0677   -4.7016 H   0  0  0  0  0  0  0  0  0  0  0  0
   -1.5335   -0.8032   -3.7013 H   0  0  0  0  0  0  0  0  0  0  0  0
    0.5685   -1.3783   -3.5269 C   0  0  0  0  0  0  0  0  0  0  0  0
    0.9310   -0.8432   -4.2756 H   0  0  0  0  0  0  0  0  0  0  0  0
    0.6638   -0.9006   -2.6665 H   0  0  0  0  0  0  0  0  0  0  0  0
    1.2992   -2.6755   -3.4519 N   0  0  0  0  0  4  0  0  0  0  0  0
    1.4270   -3.0371   -4.3748 H   0  0  0  0  0  0  0  0  0  0  0  0
    2.1898   -2.5292   -3.0227 H   0  0  0  0  0  0  0  0  0  0  0  0
    0.7666   -3.3232   -2.9085 H   0  0  0  0  0  0  0  0  0  0  0  0
   -0.0019    2.9128    0.0239 C   0  0  0  0  0  0  0  0  0  0  0  0
   -0.7377    3.2341   -0.5475 H   0  0  0  0  0  0  0  0  0  0  0  0
    0.8759    3.2291   -0.2936 H   0  0  0  0  0  0  0  0  0  0  0  0
   -0.1584    3.3101    1.0267 H   0  0  0  0  0  0  0  0  0  0  0  0
    0.0007    1.4099   -0.0192 C   0  0  0  0  0  0  0  0  0  0  0  0
   -1.1919    0.7028    0.0020 C   0  0  0  0  0  0  0  0  0  0  0  0
   -2.0611    1.1935    0.0175 H   0  0  0  0  0  0  0  0  0  0  0  0
   -1.2029   -0.6909   -0.0000 C   0  0  0  0  0  0  0  0  0  0  0  0
   -2.0891   -1.1758   -0.0144 H   0  0  0  0  0  0  0  0  0  0  0  0
   -0.0151   -1.4045    0.0186 C   0  0  0  0  0  0  0  0  0  0  0  0
   -0.0225   -2.3978    0.0447 H   0  0  0  0  0  0  0  0  0  0  0  0
    1.2029   -0.7107    0.0000 C   0  0  0  0  0  0  0  0  0  0  0  0
    2.0762   -1.2115   -0.0107 H   0  0  0  0  0  0  0  0  0  0  0  0
    1.2063    0.6934   -0.0015 C   0  0  0  0  0  0  0  0  0  0  0  0
    2.0713    1.1835    0.0093 H   0  0  0  0  0  0  0  0  0  0  0  0
  1  5  1  0
  5  8  1  0
  1  2  1  0
  1  3  1  0
  1  4  1  0
  5  6  1  0
  5  7  1  0
  8  9  1  0
  8 10  1  0
  8 11  1  0
 12 16  1  0
 16 17  2  0
 17 19  1  0
 19 21  2  0
 21 23  1  0
 23 25  2  0
 25 16  1  0
 12 13  1  0
 12 14  1  0
 12 15  1  0
 17 18  1  0
 19 20  1  0
 21 22  1  0
 23 24  1  0
 25 26  1  0
M  CHG  1   8   1
M  END
>  <PDB_ID>  (2756) 
pdb3zdu

>  <RESIDUE_NAME>  (2756) 
LYS   PHE

>  <FRAG_NAME>  (2756) 
ETAM   MBZ

>  <FRAG_ATOM_NUM>  (2756) 
fragi: 11  fragj: 15

>  <atom.prop.CHAIN_ID>  (2756) 
A A A A A A A A A A A Z Z Z Z Z Z Z Z Z Z Z Z Z Z Z

>  <atom.prop.IS_HEAVY_ATOM>  (2756) 
1 0 0 0 1 0 0 1 0 0 0 1 0 0 0 1 1 0 1 0 1 0 1 0 1 0

>  <DIFUSE_FUNC_ATOM>  (2756) 
n/a

>  <FINAL_SINGLE_POINT_ENERGY>  (2756) 
0

>  <NONCOV_INTER_ENERGY_QM>  (2756) 
0

>  <FF_Energy>  (2756) 
-3.79

>  <QM_Energy>  (2756) 
-9.09

>  <source>  (2756) 
ETAM_MBZ

>  <Index>  (2756) 
29539

$$$$
ETAM-pdb3x38-B-LYS-180:MBZ-pdb3x38-B-PHE-184
     RDKit          3D

 26 25  0  0  0  0  0  0  0  0999 V2000
   -3.5587    1.9580    2.3729 C   0  0  0  0  0  0  0  0  0  0  0  0
   -3.2523    2.8855    2.5998 H   0  0  0  0  0  0  0  0  0  0  0  0
   -2.7604    1.3912    2.1578 H   0  0  0  0  0  0  0  0  0  0  0  0
   -4.0696    1.5348    3.2379 H   0  0  0  0  0  0  0  0  0  0  0  0
   -4.4411    2.0296    1.1475 C   0  0  0  0  0  0  0  0  0  0  0  0
   -5.3575    2.4122    1.4235 H   0  0  0  0  0  0  0  0  0  0  0  0
   -4.0491    2.7299    0.4994 H   0  0  0  0  0  0  0  0  0  0  0  0
   -4.6801    0.7673    0.3746 N   0  0  0  0  0  4  0  0  0  0  0  0
   -3.8186    0.4629   -0.0270 H   0  0  0  0  0  0  0  0  0  0  0  0
   -5.0321    0.0680    0.9932 H   0  0  0  0  0  0  0  0  0  0  0  0
   -5.3456    0.9481   -0.3474 H   0  0  0  0  0  0  0  0  0  0  0  0
   -0.0039    2.9147    0.0029 C   0  0  0  0  0  0  0  0  0  0  0  0
    0.8587    3.2177    0.3743 H   0  0  0  0  0  0  0  0  0  0  0  0
   -0.7637    3.2124    0.5582 H   0  0  0  0  0  0  0  0  0  0  0  0
   -0.1179    3.3641   -0.9836 H   0  0  0  0  0  0  0  0  0  0  0  0
    0.0007    1.3990   -0.0061 C   0  0  0  0  0  0  0  0  0  0  0  0
   -1.1952    0.6833    0.0104 C   0  0  0  0  0  0  0  0  0  0  0  0
   -2.0618    1.1799    0.0288 H   0  0  0  0  0  0  0  0  0  0  0  0
   -1.1988   -0.6922   -0.0000 C   0  0  0  0  0  0  0  0  0  0  0  0
   -2.0770   -1.1922   -0.0050 H   0  0  0  0  0  0  0  0  0  0  0  0
   -0.0022   -1.3884   -0.0021 C   0  0  0  0  0  0  0  0  0  0  0  0
   -0.0052   -2.3872   -0.0053 H   0  0  0  0  0  0  0  0  0  0  0  0
    1.1988   -0.6928   -0.0000 C   0  0  0  0  0  0  0  0  0  0  0  0
    2.0800   -1.1950    0.0042 H   0  0  0  0  0  0  0  0  0  0  0  0
    1.1966    0.6911   -0.0022 C   0  0  0  0  0  0  0  0  0  0  0  0
    2.0640    1.1895   -0.0024 H   0  0  0  0  0  0  0  0  0  0  0  0
  1  5  1  0
  5  8  1  0
  1  2  1  0
  1  3  1  0
  1  4  1  0
  5  6  1  0
  5  7  1  0
  8  9  1  0
  8 10  1  0
  8 11  1  0
 12 16  1  0
 16 17  2  0
 17 19  1  0
 19 21  2  0
 21 23  1  0
 23 25  2  0
 25 16  1  0
 12 13  1  0
 12 14  1  0
 12 15  1  0
 17 18  1  0
 19 20  1  0
 21 22  1  0
 23 24  1  0
 25 26  1  0
M  CHG  1   8   1
M  END
>  <PDB_ID>  (2757) 
pdb3x38

>  <RESIDUE_NAME>  (2757) 
LYS   PHE

>  <FRAG_NAME>  (2757) 
ETAM   MBZ

>  <FRAG_ATOM_NUM>  (2757) 
fragi: 11  fragj: 15

>  <atom.prop.CHAIN_ID>  (2757) 
A A A A A A A A A A A Z Z Z Z Z Z Z Z Z Z Z Z Z Z Z

>  <atom.prop.IS_HEAVY_ATOM>  (2757) 
1 0 0 0 1 0 0 1 0 0 0 1 0 0 0 1 1 0 1 0 1 0 1 0 1 0

>  <DIFUSE_FUNC_ATOM>  (2757) 
n/a

>  <FINAL_SINGLE_POINT_ENERGY>  (2757) 
0

>  <NONCOV_INTER_ENERGY_QM>  (2757) 
0

>  <FF_Energy>  (2757) 
0.94

>  <QM_Energy>  (2757) 
-4.15

>  <source>  (2757) 
ETAM_MBZ

>  <Index>  (2757) 
29568

$$$$
ETAM-pdb3zfx-A-LYS-635:MBZ-pdb3zfx-A-PHE-699
     RDKit          3D

 26 25  0  0  0  0  0  0  0  0999 V2000
   -0.5811   -2.1888   -3.7707 C   0  0  0  0  0  0  0  0  0  0  0  0
   -0.8539   -2.8847   -3.1094 H   0  0  0  0  0  0  0  0  0  0  0  0
   -0.6208   -2.5674   -4.6938 H   0  0  0  0  0  0  0  0  0  0  0  0
   -1.2822   -1.3567   -3.7068 H   0  0  0  0  0  0  0  0  0  0  0  0
    0.8590   -1.7763   -3.4756 C   0  0  0  0  0  0  0  0  0  0  0  0
    1.2569   -1.3701   -4.3130 H   0  0  0  0  0  0  0  0  0  0  0  0
    0.8499   -1.0581   -2.7631 H   0  0  0  0  0  0  0  0  0  0  0  0
    1.7334   -2.8987   -3.0199 N   0  0  0  0  0  4  0  0  0  0  0  0
    2.5396   -2.9470   -3.6072 H   0  0  0  0  0  0  0  0  0  0  0  0
    2.0137   -2.7341   -2.0758 H   0  0  0  0  0  0  0  0  0  0  0  0
    1.2241   -3.7557   -3.0760 H   0  0  0  0  0  0  0  0  0  0  0  0
   -0.0193    2.8918   -0.0094 C   0  0  0  0  0  0  0  0  0  0  0  0
   -0.5382    3.1890   -0.7971 H   0  0  0  0  0  0  0  0  0  0  0  0
    0.9139    3.2141   -0.0509 H   0  0  0  0  0  0  0  0  0  0  0  0
   -0.4814    3.3274    0.8764 H   0  0  0  0  0  0  0  0  0  0  0  0
   -0.0005    1.4014    0.0042 C   0  0  0  0  0  0  0  0  0  0  0  0
   -1.1942    0.6921   -0.0062 C   0  0  0  0  0  0  0  0  0  0  0  0
   -2.0622    1.1836   -0.0198 H   0  0  0  0  0  0  0  0  0  0  0  0
   -1.2009   -0.6963   -0.0000 C   0  0  0  0  0  0  0  0  0  0  0  0
   -2.0790   -1.1896    0.0058 H   0  0  0  0  0  0  0  0  0  0  0  0
   -0.0029   -1.3937    0.0001 C   0  0  0  0  0  0  0  0  0  0  0  0
   -0.0067   -2.3926   -0.0008 H   0  0  0  0  0  0  0  0  0  0  0  0
    1.2009   -0.6986    0.0000 C   0  0  0  0  0  0  0  0  0  0  0  0
    2.0807   -1.1957    0.0002 H   0  0  0  0  0  0  0  0  0  0  0  0
    1.1976    0.6950    0.0020 C   0  0  0  0  0  0  0  0  0  0  0  0
    2.0646    1.1901    0.0006 H   0  0  0  0  0  0  0  0  0  0  0  0
  1  5  1  0
  5  8  1  0
  1  2  1  0
  1  3  1  0
  1  4  1  0
  5  6  1  0
  5  7  1  0
  8  9  1  0
  8 10  1  0
  8 11  1  0
 12 16  1  0
 16 17  2  0
 17 19  1  0
 19 21  2  0
 21 23  1  0
 23 25  2  0
 25 16  1  0
 12 13  1  0
 12 14  1  0
 12 15  1  0
 17 18  1  0
 19 20  1  0
 21 22  1  0
 23 24  1  0
 25 26  1  0
M  CHG  1   8   1
M  END
>  <PDB_ID>  (2758) 
pdb3zfx

>  <RESIDUE_NAME>  (2758) 
LYS   PHE

>  <FRAG_NAME>  (2758) 
ETAM   MBZ

>  <FRAG_ATOM_NUM>  (2758) 
fragi: 11  fragj: 15

>  <atom.prop.CHAIN_ID>  (2758) 
A A A A A A A A A A A Z Z Z Z Z Z Z Z Z Z Z Z Z Z Z

>  <atom.prop.IS_HEAVY_ATOM>  (2758) 
1 0 0 0 1 0 0 1 0 0 0 1 0 0 0 1 1 0 1 0 1 0 1 0 1 0

>  <DIFUSE_FUNC_ATOM>  (2758) 
n/a

>  <FINAL_SINGLE_POINT_ENERGY>  (2758) 
0

>  <NONCOV_INTER_ENERGY_QM>  (2758) 
0

>  <FF_Energy>  (2758) 
-3.13

>  <QM_Energy>  (2758) 
-8.88

>  <source>  (2758) 
ETAM_MBZ

>  <Index>  (2758) 
29582

$$$$
ETAM-pdb3zfx-C-LYS-635:MBZ-pdb3zfx-C-PHE-699
     RDKit          3D

 26 25  0  0  0  0  0  0  0  0999 V2000
   -0.6159   -2.2077   -3.8093 C   0  0  0  0  0  0  0  0  0  0  0  0
   -0.8833   -2.9083   -3.1454 H   0  0  0  0  0  0  0  0  0  0  0  0
   -0.6649   -2.5902   -4.7329 H   0  0  0  0  0  0  0  0  0  0  0  0
   -1.3196   -1.3782   -3.7399 H   0  0  0  0  0  0  0  0  0  0  0  0
    0.8187   -1.7967   -3.5303 C   0  0  0  0  0  0  0  0  0  0  0  0
    1.2112   -1.4033   -4.3583 H   0  0  0  0  0  0  0  0  0  0  0  0
    0.8279   -1.1212   -2.7967 H   0  0  0  0  0  0  0  0  0  0  0  0
    1.6199   -2.9795   -3.1196 N   0  0  0  0  0  4  0  0  0  0  0  0
    2.0682   -2.7900   -2.2463 H   0  0  0  0  0  0  0  0  0  0  0  0
    1.0170   -3.7713   -3.0207 H   0  0  0  0  0  0  0  0  0  0  0  0
    2.3117   -3.1702   -3.8163 H   0  0  0  0  0  0  0  0  0  0  0  0
   -0.0242    2.8869   -0.0041 C   0  0  0  0  0  0  0  0  0  0  0  0
   -0.5625    3.1859   -0.7764 H   0  0  0  0  0  0  0  0  0  0  0  0
    0.9071    3.2109   -0.0653 H   0  0  0  0  0  0  0  0  0  0  0  0
   -0.4677    3.3066    0.8989 H   0  0  0  0  0  0  0  0  0  0  0  0
    0.0001    1.3959   -0.0035 C   0  0  0  0  0  0  0  0  0  0  0  0
   -1.1938    0.6794   -0.0036 C   0  0  0  0  0  0  0  0  0  0  0  0
   -2.0630    1.1721   -0.0074 H   0  0  0  0  0  0  0  0  0  0  0  0
   -1.1979   -0.7043   -0.0000 C   0  0  0  0  0  0  0  0  0  0  0  0
   -2.0754   -1.1995    0.0033 H   0  0  0  0  0  0  0  0  0  0  0  0
   -0.0022   -1.3891    0.0010 C   0  0  0  0  0  0  0  0  0  0  0  0
    0.0064   -2.3884    0.0022 H   0  0  0  0  0  0  0  0  0  0  0  0
    1.1979   -0.6834    0.0000 C   0  0  0  0  0  0  0  0  0  0  0  0
    2.0815   -1.1846   -0.0037 H   0  0  0  0  0  0  0  0  0  0  0  0
    1.1959    0.7016    0.0062 C   0  0  0  0  0  0  0  0  0  0  0  0
    2.0614    1.1993    0.0173 H   0  0  0  0  0  0  0  0  0  0  0  0
  1  5  1  0
  5  8  1  0
  1  2  1  0
  1  3  1  0
  1  4  1  0
  5  6  1  0
  5  7  1  0
  8  9  1  0
  8 10  1  0
  8 11  1  0
 12 16  1  0
 16 17  2  0
 17 19  1  0
 19 21  2  0
 21 23  1  0
 23 25  2  0
 25 16  1  0
 12 13  1  0
 12 14  1  0
 12 15  1  0
 17 18  1  0
 19 20  1  0
 21 22  1  0
 23 24  1  0
 25 26  1  0
M  CHG  1   8   1
M  END
>  <PDB_ID>  (2759) 
pdb3zfx

>  <RESIDUE_NAME>  (2759) 
LYS   PHE

>  <FRAG_NAME>  (2759) 
ETAM   MBZ

>  <FRAG_ATOM_NUM>  (2759) 
fragi: 11  fragj: 15

>  <atom.prop.CHAIN_ID>  (2759) 
A A A A A A A A A A A Z Z Z Z Z Z Z Z Z Z Z Z Z Z Z

>  <atom.prop.IS_HEAVY_ATOM>  (2759) 
1 0 0 0 1 0 0 1 0 0 0 1 0 0 0 1 1 0 1 0 1 0 1 0 1 0

>  <DIFUSE_FUNC_ATOM>  (2759) 
n/a

>  <FINAL_SINGLE_POINT_ENERGY>  (2759) 
0

>  <NONCOV_INTER_ENERGY_QM>  (2759) 
0

>  <FF_Energy>  (2759) 
-3.11

>  <QM_Energy>  (2759) 
-8.48

>  <source>  (2759) 
ETAM_MBZ

>  <Index>  (2759) 
29583

$$$$
ETAM-pdb3zfx-E-LYS-635:MBZ-pdb3zfx-E-PHE-699
     RDKit          3D

 26 25  0  0  0  0  0  0  0  0999 V2000
   -0.5235   -2.1432   -3.7649 C   0  0  0  0  0  0  0  0  0  0  0  0
   -0.8217   -2.8520   -3.1277 H   0  0  0  0  0  0  0  0  0  0  0  0
   -0.5068   -2.5112   -4.6932 H   0  0  0  0  0  0  0  0  0  0  0  0
   -1.2354   -1.3186   -3.7282 H   0  0  0  0  0  0  0  0  0  0  0  0
    0.8880   -1.7162   -3.3879 C   0  0  0  0  0  0  0  0  0  0  0  0
    1.3649   -1.4175   -4.2003 H   0  0  0  0  0  0  0  0  0  0  0  0
    0.8402   -0.9957   -2.7130 H   0  0  0  0  0  0  0  0  0  0  0  0
    1.5904   -2.8956   -2.8063 N   0  0  0  0  0  4  0  0  0  0  0  0
    2.3922   -3.1099   -3.3625 H   0  0  0  0  0  0  0  0  0  0  0  0
    1.8767   -2.6821   -1.8727 H   0  0  0  0  0  0  0  0  0  0  0  0
    0.9696   -3.6785   -2.7966 H   0  0  0  0  0  0  0  0  0  0  0  0
   -0.0102    2.9018    0.0211 C   0  0  0  0  0  0  0  0  0  0  0  0
   -0.4979    3.2102   -0.7793 H   0  0  0  0  0  0  0  0  0  0  0  0
    0.9258    3.2164    0.0213 H   0  0  0  0  0  0  0  0  0  0  0  0
   -0.5015    3.3357    0.8920 H   0  0  0  0  0  0  0  0  0  0  0  0
    0.0011    1.3925    0.0126 C   0  0  0  0  0  0  0  0  0  0  0  0
   -1.1925    0.6741   -0.0069 C   0  0  0  0  0  0  0  0  0  0  0  0
   -2.0612    1.1684   -0.0278 H   0  0  0  0  0  0  0  0  0  0  0  0
   -1.1942   -0.7033    0.0000 C   0  0  0  0  0  0  0  0  0  0  0  0
   -2.0696   -1.2027    0.0067 H   0  0  0  0  0  0  0  0  0  0  0  0
    0.0007   -1.3790   -0.0003 C   0  0  0  0  0  0  0  0  0  0  0  0
    0.0094   -2.3836   -0.0010 H   0  0  0  0  0  0  0  0  0  0  0  0
    1.1942   -0.6802   -0.0000 C   0  0  0  0  0  0  0  0  0  0  0  0
    2.0787   -1.1827    0.0051 H   0  0  0  0  0  0  0  0  0  0  0  0
    1.1908    0.6960   -0.0054 C   0  0  0  0  0  0  0  0  0  0  0  0
    2.0586    1.1961   -0.0238 H   0  0  0  0  0  0  0  0  0  0  0  0
  1  5  1  0
  5  8  1  0
  1  2  1  0
  1  3  1  0
  1  4  1  0
  5  6  1  0
  5  7  1  0
  8  9  1  0
  8 10  1  0
  8 11  1  0
 12 16  1  0
 16 17  2  0
 17 19  1  0
 19 21  2  0
 21 23  1  0
 23 25  2  0
 25 16  1  0
 12 13  1  0
 12 14  1  0
 12 15  1  0
 17 18  1  0
 19 20  1  0
 21 22  1  0
 23 24  1  0
 25 26  1  0
M  CHG  1   8   1
M  END
>  <PDB_ID>  (2760) 
pdb3zfx

>  <RESIDUE_NAME>  (2760) 
LYS   PHE

>  <FRAG_NAME>  (2760) 
ETAM   MBZ

>  <FRAG_ATOM_NUM>  (2760) 
fragi: 11  fragj: 15

>  <atom.prop.CHAIN_ID>  (2760) 
A A A A A A A A A A A Z Z Z Z Z Z Z Z Z Z Z Z Z Z Z

>  <atom.prop.IS_HEAVY_ATOM>  (2760) 
1 0 0 0 1 0 0 1 0 0 0 1 0 0 0 1 1 0 1 0 1 0 1 0 1 0

>  <DIFUSE_FUNC_ATOM>  (2760) 
n/a

>  <FINAL_SINGLE_POINT_ENERGY>  (2760) 
0

>  <NONCOV_INTER_ENERGY_QM>  (2760) 
0

>  <FF_Energy>  (2760) 
-2.99

>  <QM_Energy>  (2760) 
-9.68

>  <source>  (2760) 
ETAM_MBZ

>  <Index>  (2760) 
29584

$$$$
ETAM-pdb3zfx-F-LYS-635:MBZ-pdb3zfx-F-PHE-699
     RDKit          3D

 26 25  0  0  0  0  0  0  0  0999 V2000
   -0.6286   -2.2241   -3.8073 C   0  0  0  0  0  0  0  0  0  0  0  0
   -0.8886   -2.9401   -3.1608 H   0  0  0  0  0  0  0  0  0  0  0  0
   -0.6944   -2.5739   -4.7408 H   0  0  0  0  0  0  0  0  0  0  0  0
   -1.3183   -1.3872   -3.6973 H   0  0  0  0  0  0  0  0  0  0  0  0
    0.8148   -1.8295   -3.5394 C   0  0  0  0  0  0  0  0  0  0  0  0
    1.2028   -1.4323   -4.3687 H   0  0  0  0  0  0  0  0  0  0  0  0
    0.8367   -1.1560   -2.8026 H   0  0  0  0  0  0  0  0  0  0  0  0
    1.6194   -3.0185   -3.1418 N   0  0  0  0  0  4  0  0  0  0  0  0
    1.8284   -2.9649   -2.1661 H   0  0  0  0  0  0  0  0  0  0  0  0
    1.0961   -3.8491   -3.3278 H   0  0  0  0  0  0  0  0  0  0  0  0
    2.4694   -3.0332   -3.6667 H   0  0  0  0  0  0  0  0  0  0  0  0
   -0.0124    2.9088    0.0144 C   0  0  0  0  0  0  0  0  0  0  0  0
   -0.5474    3.2152   -0.7568 H   0  0  0  0  0  0  0  0  0  0  0  0
    0.9225    3.2206   -0.0451 H   0  0  0  0  0  0  0  0  0  0  0  0
   -0.4517    3.3316    0.9179 H   0  0  0  0  0  0  0  0  0  0  0  0
   -0.0011    1.4042    0.0028 C   0  0  0  0  0  0  0  0  0  0  0  0
   -1.1994    0.6898   -0.0024 C   0  0  0  0  0  0  0  0  0  0  0  0
   -2.0659    1.1803   -0.0092 H   0  0  0  0  0  0  0  0  0  0  0  0
   -1.1995   -0.6987   -0.0000 C   0  0  0  0  0  0  0  0  0  0  0  0
   -2.0762   -1.1956    0.0064 H   0  0  0  0  0  0  0  0  0  0  0  0
    0.0018   -1.3936   -0.0040 C   0  0  0  0  0  0  0  0  0  0  0  0
   -0.0018   -2.3929   -0.0099 H   0  0  0  0  0  0  0  0  0  0  0  0
    1.1995   -0.6977    0.0000 C   0  0  0  0  0  0  0  0  0  0  0  0
    2.0833   -1.1946    0.0021 H   0  0  0  0  0  0  0  0  0  0  0  0
    1.1987    0.6960    0.0036 C   0  0  0  0  0  0  0  0  0  0  0  0
    2.0648    1.1903    0.0054 H   0  0  0  0  0  0  0  0  0  0  0  0
  1  5  1  0
  5  8  1  0
  1  2  1  0
  1  3  1  0
  1  4  1  0
  5  6  1  0
  5  7  1  0
  8  9  1  0
  8 10  1  0
  8 11  1  0
 12 16  1  0
 16 17  2  0
 17 19  1  0
 19 21  2  0
 21 23  1  0
 23 25  2  0
 25 16  1  0
 12 13  1  0
 12 14  1  0
 12 15  1  0
 17 18  1  0
 19 20  1  0
 21 22  1  0
 23 24  1  0
 25 26  1  0
M  CHG  1   8   1
M  END
>  <PDB_ID>  (2761) 
pdb3zfx

>  <RESIDUE_NAME>  (2761) 
LYS   PHE

>  <FRAG_NAME>  (2761) 
ETAM   MBZ

>  <FRAG_ATOM_NUM>  (2761) 
fragi: 11  fragj: 15

>  <atom.prop.CHAIN_ID>  (2761) 
A A A A A A A A A A A Z Z Z Z Z Z Z Z Z Z Z Z Z Z Z

>  <atom.prop.IS_HEAVY_ATOM>  (2761) 
1 0 0 0 1 0 0 1 0 0 0 1 0 0 0 1 1 0 1 0 1 0 1 0 1 0

>  <DIFUSE_FUNC_ATOM>  (2761) 
n/a

>  <FINAL_SINGLE_POINT_ENERGY>  (2761) 
0

>  <NONCOV_INTER_ENERGY_QM>  (2761) 
0

>  <FF_Energy>  (2761) 
-3.07

>  <QM_Energy>  (2761) 
-8.46

>  <source>  (2761) 
ETAM_MBZ

>  <Index>  (2761) 
29585

$$$$
ETAM-pdb3zfx-G-LYS-635:MBZ-pdb3zfx-G-PHE-699
     RDKit          3D

 26 25  0  0  0  0  0  0  0  0999 V2000
   -0.5750   -2.1858   -3.7555 C   0  0  0  0  0  0  0  0  0  0  0  0
   -0.8541   -2.8999   -3.1186 H   0  0  0  0  0  0  0  0  0  0  0  0
   -0.6211   -2.5247   -4.6919 H   0  0  0  0  0  0  0  0  0  0  0  0
   -1.2630   -1.3461   -3.6563 H   0  0  0  0  0  0  0  0  0  0  0  0
    0.8714   -1.7976   -3.4490 C   0  0  0  0  0  0  0  0  0  0  0  0
    1.2916   -1.4290   -4.2851 H   0  0  0  0  0  0  0  0  0  0  0  0
    0.8720   -1.0777   -2.7463 H   0  0  0  0  0  0  0  0  0  0  0  0
    1.6897   -2.9541   -2.9620 N   0  0  0  0  0  4  0  0  0  0  0  0
    1.9212   -2.8088   -2.0019 H   0  0  0  0  0  0  0  0  0  0  0  0
    1.1592   -3.7938   -3.0595 H   0  0  0  0  0  0  0  0  0  0  0  0
    2.5248   -3.0157   -3.5056 H   0  0  0  0  0  0  0  0  0  0  0  0
   -0.0095    2.9194    0.0087 C   0  0  0  0  0  0  0  0  0  0  0  0
   -0.5326    3.2244   -0.7705 H   0  0  0  0  0  0  0  0  0  0  0  0
    0.9261    3.2285   -0.0363 H   0  0  0  0  0  0  0  0  0  0  0  0
   -0.4590    3.3561    0.9005 H   0  0  0  0  0  0  0  0  0  0  0  0
   -0.0020    1.4045    0.0018 C   0  0  0  0  0  0  0  0  0  0  0  0
   -1.1929    0.6942   -0.0129 C   0  0  0  0  0  0  0  0  0  0  0  0
   -2.0622    1.1836   -0.0351 H   0  0  0  0  0  0  0  0  0  0  0  0
   -1.1974   -0.6939    0.0000 C   0  0  0  0  0  0  0  0  0  0  0  0
   -2.0763   -1.1884    0.0017 H   0  0  0  0  0  0  0  0  0  0  0  0
    0.0007   -1.3947    0.0126 C   0  0  0  0  0  0  0  0  0  0  0  0
   -0.0083   -2.3931    0.0298 H   0  0  0  0  0  0  0  0  0  0  0  0
    1.1974   -0.7023   -0.0000 C   0  0  0  0  0  0  0  0  0  0  0  0
    2.0803   -1.1974   -0.0070 H   0  0  0  0  0  0  0  0  0  0  0  0
    1.1941    0.6921   -0.0015 C   0  0  0  0  0  0  0  0  0  0  0  0
    2.0632    1.1862   -0.0051 H   0  0  0  0  0  0  0  0  0  0  0  0
  1  5  1  0
  5  8  1  0
  1  2  1  0
  1  3  1  0
  1  4  1  0
  5  6  1  0
  5  7  1  0
  8  9  1  0
  8 10  1  0
  8 11  1  0
 12 16  1  0
 16 17  2  0
 17 19  1  0
 19 21  2  0
 21 23  1  0
 23 25  2  0
 25 16  1  0
 12 13  1  0
 12 14  1  0
 12 15  1  0
 17 18  1  0
 19 20  1  0
 21 22  1  0
 23 24  1  0
 25 26  1  0
M  CHG  1   8   1
M  END
>  <PDB_ID>  (2762) 
pdb3zfx

>  <RESIDUE_NAME>  (2762) 
LYS   PHE

>  <FRAG_NAME>  (2762) 
ETAM   MBZ

>  <FRAG_ATOM_NUM>  (2762) 
fragi: 11  fragj: 15

>  <atom.prop.CHAIN_ID>  (2762) 
A A A A A A A A A A A Z Z Z Z Z Z Z Z Z Z Z Z Z Z Z

>  <atom.prop.IS_HEAVY_ATOM>  (2762) 
1 0 0 0 1 0 0 1 0 0 0 1 0 0 0 1 1 0 1 0 1 0 1 0 1 0

>  <DIFUSE_FUNC_ATOM>  (2762) 
n/a

>  <FINAL_SINGLE_POINT_ENERGY>  (2762) 
0

>  <NONCOV_INTER_ENERGY_QM>  (2762) 
0

>  <FF_Energy>  (2762) 
-3.09

>  <QM_Energy>  (2762) 
-8.95

>  <source>  (2762) 
ETAM_MBZ

>  <Index>  (2762) 
29586

$$$$
ETAM-pdb3zfx-I-LYS-635:MBZ-pdb3zfx-I-PHE-699
     RDKit          3D

 26 25  0  0  0  0  0  0  0  0999 V2000
   -0.5885   -2.2123   -3.7060 C   0  0  0  0  0  0  0  0  0  0  0  0
   -0.8531   -2.9049   -3.0396 H   0  0  0  0  0  0  0  0  0  0  0  0
   -0.5933   -2.6017   -4.6231 H   0  0  0  0  0  0  0  0  0  0  0  0
   -1.3029   -1.3901   -3.6652 H   0  0  0  0  0  0  0  0  0  0  0  0
    0.8272   -1.7520   -3.3858 C   0  0  0  0  0  0  0  0  0  0  0  0
    1.2478   -1.3885   -4.2239 H   0  0  0  0  0  0  0  0  0  0  0  0
    0.7821   -1.0121   -2.7052 H   0  0  0  0  0  0  0  0  0  0  0  0
    1.6800   -2.8528   -2.8517 N   0  0  0  0  0  4  0  0  0  0  0  0
    2.5481   -2.4738   -2.5360 H   0  0  0  0  0  0  0  0  0  0  0  0
    1.2085   -3.2949   -2.0893 H   0  0  0  0  0  0  0  0  0  0  0  0
    1.8481   -3.5210   -3.5749 H   0  0  0  0  0  0  0  0  0  0  0  0
   -0.0064    2.9104   -0.0137 C   0  0  0  0  0  0  0  0  0  0  0  0
   -0.5515    3.2010   -0.7845 H   0  0  0  0  0  0  0  0  0  0  0  0
    0.9302    3.2136   -0.0973 H   0  0  0  0  0  0  0  0  0  0  0  0
   -0.4281    3.3564    0.8871 H   0  0  0  0  0  0  0  0  0  0  0  0
   -0.0007    1.3981    0.0013 C   0  0  0  0  0  0  0  0  0  0  0  0
   -1.1931    0.6878   -0.0105 C   0  0  0  0  0  0  0  0  0  0  0  0
   -2.0618    1.1796   -0.0281 H   0  0  0  0  0  0  0  0  0  0  0  0
   -1.1989   -0.6984   -0.0000 C   0  0  0  0  0  0  0  0  0  0  0  0
   -2.0741   -1.1937    0.0083 H   0  0  0  0  0  0  0  0  0  0  0  0
    0.0028   -1.3898    0.0011 C   0  0  0  0  0  0  0  0  0  0  0  0
    0.0023   -2.3887    0.0024 H   0  0  0  0  0  0  0  0  0  0  0  0
    1.1989   -0.6897    0.0000 C   0  0  0  0  0  0  0  0  0  0  0  0
    2.0829   -1.1885   -0.0054 H   0  0  0  0  0  0  0  0  0  0  0  0
    1.1910    0.6920    0.0081 C   0  0  0  0  0  0  0  0  0  0  0  0
    2.0609    1.1929    0.0179 H   0  0  0  0  0  0  0  0  0  0  0  0
  1  5  1  0
  5  8  1  0
  1  2  1  0
  1  3  1  0
  1  4  1  0
  5  6  1  0
  5  7  1  0
  8  9  1  0
  8 10  1  0
  8 11  1  0
 12 16  1  0
 16 17  2  0
 17 19  1  0
 19 21  2  0
 21 23  1  0
 23 25  2  0
 25 16  1  0
 12 13  1  0
 12 14  1  0
 12 15  1  0
 17 18  1  0
 19 20  1  0
 21 22  1  0
 23 24  1  0
 25 26  1  0
M  CHG  1   8   1
M  END
>  <PDB_ID>  (2763) 
pdb3zfx

>  <RESIDUE_NAME>  (2763) 
LYS   PHE

>  <FRAG_NAME>  (2763) 
ETAM   MBZ

>  <FRAG_ATOM_NUM>  (2763) 
fragi: 11  fragj: 15

>  <atom.prop.CHAIN_ID>  (2763) 
A A A A A A A A A A A Z Z Z Z Z Z Z Z Z Z Z Z Z Z Z

>  <atom.prop.IS_HEAVY_ATOM>  (2763) 
1 0 0 0 1 0 0 1 0 0 0 1 0 0 0 1 1 0 1 0 1 0 1 0 1 0

>  <DIFUSE_FUNC_ATOM>  (2763) 
n/a

>  <FINAL_SINGLE_POINT_ENERGY>  (2763) 
0

>  <NONCOV_INTER_ENERGY_QM>  (2763) 
0

>  <FF_Energy>  (2763) 
-2.98

>  <QM_Energy>  (2763) 
-9.02

>  <source>  (2763) 
ETAM_MBZ

>  <Index>  (2763) 
29589

$$$$
ETAM-pdb3zfx-I-LYS-654:MBZ-pdb3zfx-I-PHE-630
     RDKit          3D

 26 25  0  0  0  0  0  0  0  0999 V2000
    3.4738    4.1667    0.4613 C   0  0  0  0  0  0  0  0  0  0  0  0
    4.2472    4.0514    1.0691 H   0  0  0  0  0  0  0  0  0  0  0  0
    2.6337    3.8676    0.8929 H   0  0  0  0  0  0  0  0  0  0  0  0
    3.3831    5.2208    0.1996 H   0  0  0  0  0  0  0  0  0  0  0  0
    3.7063    3.3189   -0.7875 C   0  0  0  0  0  0  0  0  0  0  0  0
    4.5806    3.5866   -1.2019 H   0  0  0  0  0  0  0  0  0  0  0  0
    3.7599    2.3528   -0.5176 H   0  0  0  0  0  0  0  0  0  0  0  0
    2.6160    3.4839   -1.7971 N   0  0  0  0  0  4  0  0  0  0  0  0
    3.0102    3.4505   -2.7138 H   0  0  0  0  0  0  0  0  0  0  0  0
    1.9525    2.7457   -1.6873 H   0  0  0  0  0  0  0  0  0  0  0  0
    2.1673    4.3650   -1.6545 H   0  0  0  0  0  0  0  0  0  0  0  0
    0.0029    2.9077   -0.0002 C   0  0  0  0  0  0  0  0  0  0  0  0
    0.9152    3.2153   -0.2274 H   0  0  0  0  0  0  0  0  0  0  0  0
   -0.2646    3.2114    0.9021 H   0  0  0  0  0  0  0  0  0  0  0  0
   -0.6828    3.3629   -0.7148 H   0  0  0  0  0  0  0  0  0  0  0  0
    0.0004    1.4003   -0.0080 C   0  0  0  0  0  0  0  0  0  0  0  0
   -1.1999    0.6802    0.0099 C   0  0  0  0  0  0  0  0  0  0  0  0
   -2.0646    1.1751    0.0284 H   0  0  0  0  0  0  0  0  0  0  0  0
   -1.1994   -0.6990    0.0000 C   0  0  0  0  0  0  0  0  0  0  0  0
   -2.0754   -1.1991   -0.0002 H   0  0  0  0  0  0  0  0  0  0  0  0
   -0.0017   -1.3848   -0.0075 C   0  0  0  0  0  0  0  0  0  0  0  0
   -0.0004   -2.3875   -0.0189 H   0  0  0  0  0  0  0  0  0  0  0  0
    1.1994   -0.6902   -0.0000 C   0  0  0  0  0  0  0  0  0  0  0  0
    2.0802   -1.1938    0.0028 H   0  0  0  0  0  0  0  0  0  0  0  0
    1.2012    0.6935    0.0056 C   0  0  0  0  0  0  0  0  0  0  0  0
    2.0661    1.1916    0.0186 H   0  0  0  0  0  0  0  0  0  0  0  0
  1  5  1  0
  5  8  1  0
  1  2  1  0
  1  3  1  0
  1  4  1  0
  5  6  1  0
  5  7  1  0
  8  9  1  0
  8 10  1  0
  8 11  1  0
 12 16  1  0
 16 17  2  0
 17 19  1  0
 19 21  2  0
 21 23  1  0
 23 25  2  0
 25 16  1  0
 12 13  1  0
 12 14  1  0
 12 15  1  0
 17 18  1  0
 19 20  1  0
 21 22  1  0
 23 24  1  0
 25 26  1  0
M  CHG  1   8   1
M  END
>  <PDB_ID>  (2764) 
pdb3zfx

>  <RESIDUE_NAME>  (2764) 
LYS   PHE

>  <FRAG_NAME>  (2764) 
ETAM   MBZ

>  <FRAG_ATOM_NUM>  (2764) 
fragi: 11  fragj: 15

>  <atom.prop.CHAIN_ID>  (2764) 
A A A A A A A A A A A Z Z Z Z Z Z Z Z Z Z Z Z Z Z Z

>  <atom.prop.IS_HEAVY_ATOM>  (2764) 
1 0 0 0 1 0 0 1 0 0 0 1 0 0 0 1 1 0 1 0 1 0 1 0 1 0

>  <DIFUSE_FUNC_ATOM>  (2764) 
n/a

>  <FINAL_SINGLE_POINT_ENERGY>  (2764) 
0

>  <NONCOV_INTER_ENERGY_QM>  (2764) 
0

>  <FF_Energy>  (2764) 
1.76

>  <QM_Energy>  (2764) 
-3.81

>  <source>  (2764) 
ETAM_MBZ

>  <Index>  (2764) 
29590

$$$$
ETAM-pdb4yle-A-LYS-281:MBZ-pdb4yle-A-PHE-285
     RDKit          3D

 26 25  0  0  0  0  0  0  0  0999 V2000
    0.8794   -1.1099   -4.2166 C   0  0  0  0  0  0  0  0  0  0  0  0
    1.0896   -0.8035   -5.1120 H   0  0  0  0  0  0  0  0  0  0  0  0
    1.6221   -0.9320   -3.6182 H   0  0  0  0  0  0  0  0  0  0  0  0
   -0.0043   -0.5833   -3.8559 H   0  0  0  0  0  0  0  0  0  0  0  0
    0.6702   -2.5631   -4.2676 C   0  0  0  0  0  0  0  0  0  0  0  0
   -0.1422   -2.7531   -4.7615 H   0  0  0  0  0  0  0  0  0  0  0  0
    1.4318   -2.9810   -4.7009 H   0  0  0  0  0  0  0  0  0  0  0  0
    0.5353   -3.1423   -2.9104 N   0  0  0  0  0  4  0  0  0  0  0  0
    0.4096   -4.0221   -2.9659 H   0  0  0  0  0  0  0  0  0  0  0  0
    1.2718   -2.9845   -2.4373 H   0  0  0  0  0  0  0  0  0  0  0  0
   -0.1606   -2.7770   -2.4918 H   0  0  0  0  0  0  0  0  0  0  0  0
    0.0446    2.8933   -0.0312 C   0  0  0  0  0  0  0  0  0  0  0  0
    0.1416    3.1587   -0.9592 H   0  0  0  0  0  0  0  0  0  0  0  0
    0.8258    3.1742    0.4695 H   0  0  0  0  0  0  0  0  0  0  0  0
   -0.8295    3.3965    0.3820 H   0  0  0  0  0  0  0  0  0  0  0  0
    0.0020    1.3908    0.0057 C   0  0  0  0  0  0  0  0  0  0  0  0
   -1.1919    0.6833    0.0000 C   0  0  0  0  0  0  0  0  0  0  0  0
   -2.0009    1.1433   -0.0026 H   0  0  0  0  0  0  0  0  0  0  0  0
   -1.1901   -0.7002    0.0000 C   0  0  0  0  0  0  0  0  0  0  0  0
   -1.9929   -1.1689    0.0103 H   0  0  0  0  0  0  0  0  0  0  0  0
    0.0040   -1.3744    0.0069 C   0  0  0  0  0  0  0  0  0  0  0  0
    0.0101   -2.3045    0.0123 H   0  0  0  0  0  0  0  0  0  0  0  0
    1.1901   -0.6814    0.0000 C   0  0  0  0  0  0  0  0  0  0  0  0
    1.9970   -1.1431   -0.0011 H   0  0  0  0  0  0  0  0  0  0  0  0
    1.1859    0.6820   -0.0127 C   0  0  0  0  0  0  0  0  0  0  0  0
    1.9938    1.1422   -0.0147 H   0  0  0  0  0  0  0  0  0  0  0  0
  1  5  1  0
  5  8  1  0
  1  2  1  0
  1  3  1  0
  1  4  1  0
  5  6  1  0
  5  7  1  0
  8  9  1  0
  8 10  1  0
  8 11  1  0
 12 16  1  0
 16 17  2  0
 17 19  1  0
 19 21  2  0
 21 23  1  0
 23 25  2  0
 25 16  1  0
 12 13  1  0
 12 14  1  0
 12 15  1  0
 17 18  1  0
 19 20  1  0
 21 22  1  0
 23 24  1  0
 25 26  1  0
M  CHG  1   8   1
M  END
>  <PDB_ID>  (2765) 
pdb4yle

>  <RESIDUE_NAME>  (2765) 
LYS   PHE

>  <FRAG_NAME>  (2765) 
ETAM   MBZ

>  <FRAG_ATOM_NUM>  (2765) 
fragi: 11  fragj: 15

>  <atom.prop.CHAIN_ID>  (2765) 
A A A A A A A A A A A Z Z Z Z Z Z Z Z Z Z Z Z Z Z Z

>  <atom.prop.IS_HEAVY_ATOM>  (2765) 
1 0 0 0 1 0 0 1 0 0 0 1 0 0 0 1 1 0 1 0 1 0 1 0 1 0

>  <DIFUSE_FUNC_ATOM>  (2765) 
n/a

>  <FINAL_SINGLE_POINT_ENERGY>  (2765) 
0

>  <NONCOV_INTER_ENERGY_QM>  (2765) 
0

>  <FF_Energy>  (2765) 
-2.78

>  <QM_Energy>  (2765) 
-8.56

>  <source>  (2765) 
ETAM_MBZ

>  <Index>  (2765) 
29615

$$$$
ETAM-pdb4yle-A-LYS-40:MBZ-pdb4yle-A-PHE-47
     RDKit          3D

 26 25  0  0  0  0  0  0  0  0999 V2000
    0.8952   -4.1797    2.7368 C   0  0  0  0  0  0  0  0  0  0  0  0
    1.7208   -3.9562    2.2796 H   0  0  0  0  0  0  0  0  0  0  0  0
    0.9896   -5.0186    3.2142 H   0  0  0  0  0  0  0  0  0  0  0  0
    0.6454   -3.3875    3.4427 H   0  0  0  0  0  0  0  0  0  0  0  0
   -0.2178   -4.3449    1.6774 C   0  0  0  0  0  0  0  0  0  0  0  0
   -0.8818   -4.9662    2.0156 H   0  0  0  0  0  0  0  0  0  0  0  0
   -0.6265   -3.4804    1.5168 H   0  0  0  0  0  0  0  0  0  0  0  0
    0.2769   -4.8729    0.3590 N   0  0  0  0  0  4  0  0  0  0  0  0
    0.8819   -4.3173    0.0173 H   0  0  0  0  0  0  0  0  0  0  0  0
    0.6489   -5.6730    0.4721 H   0  0  0  0  0  0  0  0  0  0  0  0
   -0.4022   -4.9487   -0.2117 H   0  0  0  0  0  0  0  0  0  0  0  0
   -0.0040    2.8744   -0.0431 C   0  0  0  0  0  0  0  0  0  0  0  0
    0.8983    3.1910    0.1160 H   0  0  0  0  0  0  0  0  0  0  0  0
   -0.6025    3.2036    0.6462 H   0  0  0  0  0  0  0  0  0  0  0  0
   -0.3442    3.2293   -1.0159 H   0  0  0  0  0  0  0  0  0  0  0  0
    0.0052    1.3888    0.0192 C   0  0  0  0  0  0  0  0  0  0  0  0
   -1.1917    0.6935    0.0018 C   0  0  0  0  0  0  0  0  0  0  0  0
   -1.9974    1.1582   -0.0071 H   0  0  0  0  0  0  0  0  0  0  0  0
   -1.1919   -0.6927   -0.0000 C   0  0  0  0  0  0  0  0  0  0  0  0
   -1.9972   -1.1575   -0.0026 H   0  0  0  0  0  0  0  0  0  0  0  0
   -0.0001   -1.3796   -0.0224 C   0  0  0  0  0  0  0  0  0  0  0  0
   -0.0018   -2.3095   -0.0010 H   0  0  0  0  0  0  0  0  0  0  0  0
    1.1919   -0.6960   -0.0000 C   0  0  0  0  0  0  0  0  0  0  0  0
    1.9971   -1.1602   -0.0028 H   0  0  0  0  0  0  0  0  0  0  0  0
    1.1867    0.6861    0.0013 C   0  0  0  0  0  0  0  0  0  0  0  0
    1.9938    1.1477   -0.0066 H   0  0  0  0  0  0  0  0  0  0  0  0
  1  5  1  0
  5  8  1  0
  1  2  1  0
  1  3  1  0
  1  4  1  0
  5  6  1  0
  5  7  1  0
  8  9  1  0
  8 10  1  0
  8 11  1  0
 12 16  1  0
 16 17  2  0
 17 19  1  0
 19 21  2  0
 21 23  1  0
 23 25  2  0
 25 16  1  0
 12 13  1  0
 12 14  1  0
 12 15  1  0
 17 18  1  0
 19 20  1  0
 21 22  1  0
 23 24  1  0
 25 26  1  0
M  CHG  1   8   1
M  END
>  <PDB_ID>  (2766) 
pdb4yle

>  <RESIDUE_NAME>  (2766) 
LYS   PHE

>  <FRAG_NAME>  (2766) 
ETAM   MBZ

>  <FRAG_ATOM_NUM>  (2766) 
fragi: 11  fragj: 15

>  <atom.prop.CHAIN_ID>  (2766) 
A A A A A A A A A A A Z Z Z Z Z Z Z Z Z Z Z Z Z Z Z

>  <atom.prop.IS_HEAVY_ATOM>  (2766) 
1 0 0 0 1 0 0 1 0 0 0 1 0 0 0 1 1 0 1 0 1 0 1 0 1 0

>  <DIFUSE_FUNC_ATOM>  (2766) 
n/a

>  <FINAL_SINGLE_POINT_ENERGY>  (2766) 
0

>  <NONCOV_INTER_ENERGY_QM>  (2766) 
0

>  <FF_Energy>  (2766) 
2.55

>  <QM_Energy>  (2766) 
-3.53

>  <source>  (2766) 
ETAM_MBZ

>  <Index>  (2766) 
29616

$$$$
ETAM-pdb3zi1-A-LYS-12:MBZ-pdb3zi1-A-PHE-199
     RDKit          3D

 26 25  0  0  0  0  0  0  0  0999 V2000
   -0.1968    0.3873   -5.5814 C   0  0  0  0  0  0  0  0  0  0  0  0
   -0.3583    1.2580   -5.1410 H   0  0  0  0  0  0  0  0  0  0  0  0
   -1.0417   -0.1034   -5.7296 H   0  0  0  0  0  0  0  0  0  0  0  0
    0.2830    0.5629   -6.5442 H   0  0  0  0  0  0  0  0  0  0  0  0
    0.7062   -0.4543   -4.6845 C   0  0  0  0  0  0  0  0  0  0  0  0
    0.6641   -1.4030   -4.9791 H   0  0  0  0  0  0  0  0  0  0  0  0
    1.6374   -0.1127   -4.7483 H   0  0  0  0  0  0  0  0  0  0  0  0
    0.2435   -0.3596   -3.2634 N   0  0  0  0  0  4  0  0  0  0  0  0
   -0.1873   -1.2215   -3.0016 H   0  0  0  0  0  0  0  0  0  0  0  0
    1.0298   -0.1815   -2.6745 H   0  0  0  0  0  0  0  0  0  0  0  0
   -0.4153    0.3858   -3.1834 H   0  0  0  0  0  0  0  0  0  0  0  0
   -0.0210    2.9076    0.0179 C   0  0  0  0  0  0  0  0  0  0  0  0
    0.8312    3.2247    0.4068 H   0  0  0  0  0  0  0  0  0  0  0  0
   -0.7943    3.2014    0.5598 H   0  0  0  0  0  0  0  0  0  0  0  0
   -0.1209    3.3505   -0.9731 H   0  0  0  0  0  0  0  0  0  0  0  0
    0.0000    1.4114    0.0078 C   0  0  0  0  0  0  0  0  0  0  0  0
   -1.2074    0.6880   -0.0092 C   0  0  0  0  0  0  0  0  0  0  0  0
   -2.0698    1.1799   -0.0297 H   0  0  0  0  0  0  0  0  0  0  0  0
   -1.2053   -0.7012   -0.0000 C   0  0  0  0  0  0  0  0  0  0  0  0
   -2.0827   -1.1982    0.0195 H   0  0  0  0  0  0  0  0  0  0  0  0
   -0.0064   -1.3937   -0.0154 C   0  0  0  0  0  0  0  0  0  0  0  0
   -0.0099   -2.3960   -0.0385 H   0  0  0  0  0  0  0  0  0  0  0  0
    1.2053   -0.7050    0.0000 C   0  0  0  0  0  0  0  0  0  0  0  0
    2.0810   -1.2056    0.0009 H   0  0  0  0  0  0  0  0  0  0  0  0
    1.2137    0.7004    0.0168 C   0  0  0  0  0  0  0  0  0  0  0  0
    2.0737    1.1899    0.0345 H   0  0  0  0  0  0  0  0  0  0  0  0
  1  5  1  0
  5  8  1  0
  1  2  1  0
  1  3  1  0
  1  4  1  0
  5  6  1  0
  5  7  1  0
  8  9  1  0
  8 10  1  0
  8 11  1  0
 12 16  1  0
 16 17  2  0
 17 19  1  0
 19 21  2  0
 21 23  1  0
 23 25  2  0
 25 16  1  0
 12 13  1  0
 12 14  1  0
 12 15  1  0
 17 18  1  0
 19 20  1  0
 21 22  1  0
 23 24  1  0
 25 26  1  0
M  CHG  1   8   1
M  END
>  <PDB_ID>  (2767) 
pdb3zi1

>  <RESIDUE_NAME>  (2767) 
LYS   PHE

>  <FRAG_NAME>  (2767) 
ETAM   MBZ

>  <FRAG_ATOM_NUM>  (2767) 
fragi: 11  fragj: 15

>  <atom.prop.CHAIN_ID>  (2767) 
A A A A A A A A A A A Z Z Z Z Z Z Z Z Z Z Z Z Z Z Z

>  <atom.prop.IS_HEAVY_ATOM>  (2767) 
1 0 0 0 1 0 0 1 0 0 0 1 0 0 0 1 1 0 1 0 1 0 1 0 1 0

>  <DIFUSE_FUNC_ATOM>  (2767) 
n/a

>  <FINAL_SINGLE_POINT_ENERGY>  (2767) 
0

>  <NONCOV_INTER_ENERGY_QM>  (2767) 
0

>  <FF_Energy>  (2767) 
-8.11

>  <QM_Energy>  (2767) 
-15.04

>  <source>  (2767) 
ETAM_MBZ

>  <Index>  (2767) 
29624

$$$$
ETAM-pdb3zfx-B-LYS-635:MBZ-pdb3zfx-B-PHE-699
     RDKit          3D

 26 25  0  0  0  0  0  0  0  0999 V2000
   -0.6862   -2.1295   -3.7641 C   0  0  0  0  0  0  0  0  0  0  0  0
   -0.9684   -2.8266   -3.1072 H   0  0  0  0  0  0  0  0  0  0  0  0
   -0.7154   -2.5046   -4.6888 H   0  0  0  0  0  0  0  0  0  0  0  0
   -1.3856   -1.2954   -3.7056 H   0  0  0  0  0  0  0  0  0  0  0  0
    0.7474   -1.7183   -3.4516 C   0  0  0  0  0  0  0  0  0  0  0  0
    1.1761   -1.3717   -4.2907 H   0  0  0  0  0  0  0  0  0  0  0  0
    0.7339   -0.9817   -2.7688 H   0  0  0  0  0  0  0  0  0  0  0  0
    1.5594   -2.8567   -2.9230 N   0  0  0  0  0  4  0  0  0  0  0  0
    1.0203   -3.6953   -2.9714 H   0  0  0  0  0  0  0  0  0  0  0  0
    2.3856   -2.9546   -3.4756 H   0  0  0  0  0  0  0  0  0  0  0  0
    1.8076   -2.6701   -1.9748 H   0  0  0  0  0  0  0  0  0  0  0  0
   -0.0217    2.9157    0.0200 C   0  0  0  0  0  0  0  0  0  0  0  0
   -0.5534    3.2216   -0.7510 H   0  0  0  0  0  0  0  0  0  0  0  0
    0.9103    3.2332   -0.0277 H   0  0  0  0  0  0  0  0  0  0  0  0
   -0.4693    3.3373    0.9199 H   0  0  0  0  0  0  0  0  0  0  0  0
   -0.0010    1.3997    0.0003 C   0  0  0  0  0  0  0  0  0  0  0  0
   -1.1934    0.6839   -0.0056 C   0  0  0  0  0  0  0  0  0  0  0  0
   -2.0631    1.1742   -0.0147 H   0  0  0  0  0  0  0  0  0  0  0  0
   -1.1965   -0.7022    0.0000 C   0  0  0  0  0  0  0  0  0  0  0  0
   -2.0734   -1.1973    0.0030 H   0  0  0  0  0  0  0  0  0  0  0  0
    0.0002   -1.3875    0.0034 C   0  0  0  0  0  0  0  0  0  0  0  0
    0.0033   -2.3893    0.0079 H   0  0  0  0  0  0  0  0  0  0  0  0
    1.1965   -0.6892   -0.0000 C   0  0  0  0  0  0  0  0  0  0  0  0
    2.0796   -1.1891   -0.0026 H   0  0  0  0  0  0  0  0  0  0  0  0
    1.1942    0.6953    0.0020 C   0  0  0  0  0  0  0  0  0  0  0  0
    2.0622    1.1930    0.0039 H   0  0  0  0  0  0  0  0  0  0  0  0
  1  5  1  0
  5  8  1  0
  1  2  1  0
  1  3  1  0
  1  4  1  0
  5  6  1  0
  5  7  1  0
  8  9  1  0
  8 10  1  0
  8 11  1  0
 12 16  1  0
 16 17  2  0
 17 19  1  0
 19 21  2  0
 21 23  1  0
 23 25  2  0
 25 16  1  0
 12 13  1  0
 12 14  1  0
 12 15  1  0
 17 18  1  0
 19 20  1  0
 21 22  1  0
 23 24  1  0
 25 26  1  0
M  CHG  1   8   1
M  END
>  <PDB_ID>  (2768) 
pdb3zfx

>  <RESIDUE_NAME>  (2768) 
LYS   PHE

>  <FRAG_NAME>  (2768) 
ETAM   MBZ

>  <FRAG_ATOM_NUM>  (2768) 
fragi: 11  fragj: 15

>  <atom.prop.CHAIN_ID>  (2768) 
A A A A A A A A A A A Z Z Z Z Z Z Z Z Z Z Z Z Z Z Z

>  <atom.prop.IS_HEAVY_ATOM>  (2768) 
1 0 0 0 1 0 0 1 0 0 0 1 0 0 0 1 1 0 1 0 1 0 1 0 1 0

>  <DIFUSE_FUNC_ATOM>  (2768) 
n/a

>  <FINAL_SINGLE_POINT_ENERGY>  (2768) 
0

>  <NONCOV_INTER_ENERGY_QM>  (2768) 
0

>  <FF_Energy>  (2768) 
-3.3

>  <QM_Energy>  (2768) 
-9.69

>  <source>  (2768) 
ETAM_MBZ

>  <Index>  (2768) 
29626

$$$$
ETAM-pdb4ymu-D-LYS-24:MBZ-pdb4ymu-D-PHE-88
     RDKit          3D

 26 25  0  0  0  0  0  0  0  0999 V2000
   -2.4851   -3.1386   -2.9209 C   0  0  0  0  0  0  0  0  0  0  0  0
   -2.7163   -3.5383   -3.8023 H   0  0  0  0  0  0  0  0  0  0  0  0
   -3.0215   -2.3152   -2.7631 H   0  0  0  0  0  0  0  0  0  0  0  0
   -2.7124   -3.8618   -2.1377 H   0  0  0  0  0  0  0  0  0  0  0  0
   -1.0022   -2.7540   -2.9378 C   0  0  0  0  0  0  0  0  0  0  0  0
   -0.7306   -2.4696   -2.0088 H   0  0  0  0  0  0  0  0  0  0  0  0
   -0.4591   -3.5672   -3.1875 H   0  0  0  0  0  0  0  0  0  0  0  0
   -0.6756   -1.6418   -3.8985 N   0  0  0  0  0  4  0  0  0  0  0  0
   -1.0598   -1.8631   -4.7915 H   0  0  0  0  0  0  0  0  0  0  0  0
   -1.0727   -0.7935   -3.5573 H   0  0  0  0  0  0  0  0  0  0  0  0
    0.3153   -1.5535   -3.9657 H   0  0  0  0  0  0  0  0  0  0  0  0
    0.0021    2.8852   -0.0125 C   0  0  0  0  0  0  0  0  0  0  0  0
   -0.5804    3.1901   -0.7532 H   0  0  0  0  0  0  0  0  0  0  0  0
    0.9350    3.1923   -0.1434 H   0  0  0  0  0  0  0  0  0  0  0  0
   -0.3690    3.3339    0.9089 H   0  0  0  0  0  0  0  0  0  0  0  0
   -0.0000    1.3925   -0.0021 C   0  0  0  0  0  0  0  0  0  0  0  0
   -1.1927    0.6871   -0.0013 C   0  0  0  0  0  0  0  0  0  0  0  0
   -2.0597    1.1815   -0.0028 H   0  0  0  0  0  0  0  0  0  0  0  0
   -1.1978   -0.6934    0.0000 C   0  0  0  0  0  0  0  0  0  0  0  0
   -2.0751   -1.1908   -0.0028 H   0  0  0  0  0  0  0  0  0  0  0  0
    0.0003   -1.3856    0.0068 C   0  0  0  0  0  0  0  0  0  0  0  0
   -0.0027   -2.3869    0.0161 H   0  0  0  0  0  0  0  0  0  0  0  0
    1.1978   -0.6912    0.0000 C   0  0  0  0  0  0  0  0  0  0  0  0
    2.0798   -1.1915   -0.0016 H   0  0  0  0  0  0  0  0  0  0  0  0
    1.1924    0.6905   -0.0034 C   0  0  0  0  0  0  0  0  0  0  0  0
    2.0606    1.1905   -0.0075 H   0  0  0  0  0  0  0  0  0  0  0  0
  1  5  1  0
  5  8  1  0
  1  2  1  0
  1  3  1  0
  1  4  1  0
  5  6  1  0
  5  7  1  0
  8  9  1  0
  8 10  1  0
  8 11  1  0
 12 16  1  0
 16 17  2  0
 17 19  1  0
 19 21  2  0
 21 23  1  0
 23 25  2  0
 25 16  1  0
 12 13  1  0
 12 14  1  0
 12 15  1  0
 17 18  1  0
 19 20  1  0
 21 22  1  0
 23 24  1  0
 25 26  1  0
M  CHG  1   8   1
M  END
>  <PDB_ID>  (2769) 
pdb4ymu

>  <RESIDUE_NAME>  (2769) 
LYS   PHE

>  <FRAG_NAME>  (2769) 
ETAM   MBZ

>  <FRAG_ATOM_NUM>  (2769) 
fragi: 11  fragj: 15

>  <atom.prop.CHAIN_ID>  (2769) 
A A A A A A A A A A A Z Z Z Z Z Z Z Z Z Z Z Z Z Z Z

>  <atom.prop.IS_HEAVY_ATOM>  (2769) 
1 0 0 0 1 0 0 1 0 0 0 1 0 0 0 1 1 0 1 0 1 0 1 0 1 0

>  <DIFUSE_FUNC_ATOM>  (2769) 
n/a

>  <FINAL_SINGLE_POINT_ENERGY>  (2769) 
0

>  <NONCOV_INTER_ENERGY_QM>  (2769) 
0

>  <FF_Energy>  (2769) 
-2.32

>  <QM_Energy>  (2769) 
-7.84

>  <source>  (2769) 
ETAM_MBZ

>  <Index>  (2769) 
29640

$$$$
ETAM-pdb3zfx-D-LYS-635:MBZ-pdb3zfx-D-PHE-699
     RDKit          3D

 26 25  0  0  0  0  0  0  0  0999 V2000
   -0.6523   -2.0866   -3.8015 C   0  0  0  0  0  0  0  0  0  0  0  0
   -0.8721   -2.7974   -3.1370 H   0  0  0  0  0  0  0  0  0  0  0  0
   -0.7235   -2.4530   -4.7264 H   0  0  0  0  0  0  0  0  0  0  0  0
   -1.3672   -1.2713   -3.6905 H   0  0  0  0  0  0  0  0  0  0  0  0
    0.7820   -1.6331   -3.5704 C   0  0  0  0  0  0  0  0  0  0  0  0
    1.1600   -1.2913   -4.4406 H   0  0  0  0  0  0  0  0  0  0  0  0
    0.7806   -0.8719   -2.9095 H   0  0  0  0  0  0  0  0  0  0  0  0
    1.6655   -2.7213   -3.0530 N   0  0  0  0  0  4  0  0  0  0  0  0
    1.2642   -3.6069   -3.2825 H   0  0  0  0  0  0  0  0  0  0  0  0
    2.5675   -2.6410   -3.4741 H   0  0  0  0  0  0  0  0  0  0  0  0
    1.7475   -2.6349   -2.0611 H   0  0  0  0  0  0  0  0  0  0  0  0
   -0.0234    2.8869    0.0066 C   0  0  0  0  0  0  0  0  0  0  0  0
   -0.6024    3.1927   -0.7312 H   0  0  0  0  0  0  0  0  0  0  0  0
    0.9036    3.2078   -0.1007 H   0  0  0  0  0  0  0  0  0  0  0  0
   -0.4165    3.2999    0.9356 H   0  0  0  0  0  0  0  0  0  0  0  0
   -0.0034    1.3929   -0.0048 C   0  0  0  0  0  0  0  0  0  0  0  0
   -1.1898    0.6894   -0.0090 C   0  0  0  0  0  0  0  0  0  0  0  0
   -2.0592    1.1821   -0.0204 H   0  0  0  0  0  0  0  0  0  0  0  0
   -1.1906   -0.6846    0.0000 C   0  0  0  0  0  0  0  0  0  0  0  0
   -2.0723   -1.1841   -0.0028 H   0  0  0  0  0  0  0  0  0  0  0  0
   -0.0009   -1.3811    0.0150 C   0  0  0  0  0  0  0  0  0  0  0  0
   -0.0139   -2.3852    0.0370 H   0  0  0  0  0  0  0  0  0  0  0  0
    1.1906   -0.7019   -0.0000 C   0  0  0  0  0  0  0  0  0  0  0  0
    2.0733   -1.2015   -0.0090 H   0  0  0  0  0  0  0  0  0  0  0  0
    1.1941    0.6854   -0.0012 C   0  0  0  0  0  0  0  0  0  0  0  0
    2.0605    1.1804    0.0002 H   0  0  0  0  0  0  0  0  0  0  0  0
  1  5  1  0
  5  8  1  0
  1  2  1  0
  1  3  1  0
  1  4  1  0
  5  6  1  0
  5  7  1  0
  8  9  1  0
  8 10  1  0
  8 11  1  0
 12 16  1  0
 16 17  2  0
 17 19  1  0
 19 21  2  0
 21 23  1  0
 23 25  2  0
 25 16  1  0
 12 13  1  0
 12 14  1  0
 12 15  1  0
 17 18  1  0
 19 20  1  0
 21 22  1  0
 23 24  1  0
 25 26  1  0
M  CHG  1   8   1
M  END
>  <PDB_ID>  (2770) 
pdb3zfx

>  <RESIDUE_NAME>  (2770) 
LYS   PHE

>  <FRAG_NAME>  (2770) 
ETAM   MBZ

>  <FRAG_ATOM_NUM>  (2770) 
fragi: 11  fragj: 15

>  <atom.prop.CHAIN_ID>  (2770) 
A A A A A A A A A A A Z Z Z Z Z Z Z Z Z Z Z Z Z Z Z

>  <atom.prop.IS_HEAVY_ATOM>  (2770) 
1 0 0 0 1 0 0 1 0 0 0 1 0 0 0 1 1 0 1 0 1 0 1 0 1 0

>  <DIFUSE_FUNC_ATOM>  (2770) 
n/a

>  <FINAL_SINGLE_POINT_ENERGY>  (2770) 
0

>  <NONCOV_INTER_ENERGY_QM>  (2770) 
0

>  <FF_Energy>  (2770) 
-3.62

>  <QM_Energy>  (2770) 
-9.69

>  <source>  (2770) 
ETAM_MBZ

>  <Index>  (2770) 
29683

$$$$
ETAM-pdb3zlb-A-LYS-7:MBZ-pdb3zlb-A-PHE-176
     RDKit          3D

 26 25  0  0  0  0  0  0  0  0999 V2000
   -3.7672   -2.8842    1.2235 C   0  0  0  0  0  0  0  0  0  0  0  0
   -4.3952   -3.3902    1.7645 H   0  0  0  0  0  0  0  0  0  0  0  0
   -2.9751   -2.6717    1.7407 H   0  0  0  0  0  0  0  0  0  0  0  0
   -3.4815   -3.4782    0.3554 H   0  0  0  0  0  0  0  0  0  0  0  0
   -4.4434   -1.5642    0.8100 C   0  0  0  0  0  0  0  0  0  0  0  0
   -3.8967   -1.1259    0.1388 H   0  0  0  0  0  0  0  0  0  0  0  0
   -5.3215   -1.7580    0.4484 H   0  0  0  0  0  0  0  0  0  0  0  0
   -4.6112   -0.6249    1.9539 N   0  0  0  0  0  4  0  0  0  0  0  0
   -3.8169   -0.4233    2.3019 H   0  0  0  0  0  0  0  0  0  0  0  0
   -5.0031    0.1252    1.6767 H   0  0  0  0  0  0  0  0  0  0  0  0
   -5.1163   -0.9996    2.5837 H   0  0  0  0  0  0  0  0  0  0  0  0
   -0.0070    2.8861    0.0236 C   0  0  0  0  0  0  0  0  0  0  0  0
    0.8031    3.1948   -0.4121 H   0  0  0  0  0  0  0  0  0  0  0  0
   -0.0150    3.1750    0.9492 H   0  0  0  0  0  0  0  0  0  0  0  0
   -0.8691    3.3134   -0.4884 H   0  0  0  0  0  0  0  0  0  0  0  0
    0.0014    1.3926    0.0067 C   0  0  0  0  0  0  0  0  0  0  0  0
   -1.1905    0.6871    0.0055 C   0  0  0  0  0  0  0  0  0  0  0  0
   -1.9971    1.1497    0.0113 H   0  0  0  0  0  0  0  0  0  0  0  0
   -1.1987   -0.6939   -0.0000 C   0  0  0  0  0  0  0  0  0  0  0  0
   -2.0057   -1.1567   -0.0034 H   0  0  0  0  0  0  0  0  0  0  0  0
    0.0007   -1.3877   -0.0108 C   0  0  0  0  0  0  0  0  0  0  0  0
    0.0009   -2.3177   -0.0149 H   0  0  0  0  0  0  0  0  0  0  0  0
    1.1987   -0.6943    0.0000 C   0  0  0  0  0  0  0  0  0  0  0  0
    2.0062   -1.1561   -0.0104 H   0  0  0  0  0  0  0  0  0  0  0  0
    1.1883    0.6961   -0.0013 C   0  0  0  0  0  0  0  0  0  0  0  0
    1.9935    1.1616    0.0047 H   0  0  0  0  0  0  0  0  0  0  0  0
  1  5  1  0
  5  8  1  0
  1  2  1  0
  1  3  1  0
  1  4  1  0
  5  6  1  0
  5  7  1  0
  8  9  1  0
  8 10  1  0
  8 11  1  0
 12 16  1  0
 16 17  2  0
 17 19  1  0
 19 21  2  0
 21 23  1  0
 23 25  2  0
 25 16  1  0
 12 13  1  0
 12 14  1  0
 12 15  1  0
 17 18  1  0
 19 20  1  0
 21 22  1  0
 23 24  1  0
 25 26  1  0
M  CHG  1   8   1
M  END
>  <PDB_ID>  (2771) 
pdb3zlb

>  <RESIDUE_NAME>  (2771) 
LYS   PHE

>  <FRAG_NAME>  (2771) 
ETAM   MBZ

>  <FRAG_ATOM_NUM>  (2771) 
fragi: 11  fragj: 15

>  <atom.prop.CHAIN_ID>  (2771) 
A A A A A A A A A A A Z Z Z Z Z Z Z Z Z Z Z Z Z Z Z

>  <atom.prop.IS_HEAVY_ATOM>  (2771) 
1 0 0 0 1 0 0 1 0 0 0 1 0 0 0 1 1 0 1 0 1 0 1 0 1 0

>  <DIFUSE_FUNC_ATOM>  (2771) 
n/a

>  <FINAL_SINGLE_POINT_ENERGY>  (2771) 
0

>  <NONCOV_INTER_ENERGY_QM>  (2771) 
0

>  <FF_Energy>  (2771) 
2.07

>  <QM_Energy>  (2771) 
-3.49

>  <source>  (2771) 
ETAM_MBZ

>  <Index>  (2771) 
29686

$$$$
ETAM-pdb4ypj-A-LYS-113:MBZ-pdb4ypj-A-PHE-49
     RDKit          3D

 26 25  0  0  0  0  0  0  0  0999 V2000
    0.9633   -1.3913    3.8982 C   0  0  0  0  0  0  0  0  0  0  0  0
    1.2436   -0.8813    4.7049 H   0  0  0  0  0  0  0  0  0  0  0  0
    1.5200   -1.1351    3.1153 H   0  0  0  0  0  0  0  0  0  0  0  0
    1.0976   -2.4554    4.0922 H   0  0  0  0  0  0  0  0  0  0  0  0
   -0.4908   -1.0551    3.5919 C   0  0  0  0  0  0  0  0  0  0  0  0
   -0.7789   -1.5912    2.7623 H   0  0  0  0  0  0  0  0  0  0  0  0
   -1.0754   -1.4174    4.3578 H   0  0  0  0  0  0  0  0  0  0  0  0
   -0.8457    0.3809    3.3693 N   0  0  0  0  0  4  0  0  0  0  0  0
   -1.7583    0.5535    3.7365 H   0  0  0  0  0  0  0  0  0  0  0  0
   -0.1785    0.9588    3.8353 H   0  0  0  0  0  0  0  0  0  0  0  0
   -0.8337    0.5741    2.3900 H   0  0  0  0  0  0  0  0  0  0  0  0
    0.0046    2.8797   -0.0976 C   0  0  0  0  0  0  0  0  0  0  0  0
   -0.4573    3.1276   -0.9405 H   0  0  0  0  0  0  0  0  0  0  0  0
    0.9508    3.1787   -0.1151 H   0  0  0  0  0  0  0  0  0  0  0  0
   -0.4959    3.3897    0.7255 H   0  0  0  0  0  0  0  0  0  0  0  0
   -0.0005    1.3802    0.0043 C   0  0  0  0  0  0  0  0  0  0  0  0
   -1.1737    0.6981   -0.0101 C   0  0  0  0  0  0  0  0  0  0  0  0
   -2.0459    1.1894   -0.0297 H   0  0  0  0  0  0  0  0  0  0  0  0
   -1.1783   -0.6716   -0.0000 C   0  0  0  0  0  0  0  0  0  0  0  0
   -2.0704   -1.1654    0.0046 H   0  0  0  0  0  0  0  0  0  0  0  0
   -0.0055   -1.3779    0.0059 C   0  0  0  0  0  0  0  0  0  0  0  0
   -0.0213   -2.3781    0.0138 H   0  0  0  0  0  0  0  0  0  0  0  0
    1.1783   -0.6975   -0.0000 C   0  0  0  0  0  0  0  0  0  0  0  0
    2.0642   -1.2035   -0.0030 H   0  0  0  0  0  0  0  0  0  0  0  0
    1.1797    0.6687   -0.0001 C   0  0  0  0  0  0  0  0  0  0  0  0
    2.0546    1.1681   -0.0045 H   0  0  0  0  0  0  0  0  0  0  0  0
  1  5  1  0
  5  8  1  0
  1  2  1  0
  1  3  1  0
  1  4  1  0
  5  6  1  0
  5  7  1  0
  8  9  1  0
  8 10  1  0
  8 11  1  0
 12 16  1  0
 16 17  2  0
 17 19  1  0
 19 21  2  0
 21 23  1  0
 23 25  2  0
 25 16  1  0
 12 13  1  0
 12 14  1  0
 12 15  1  0
 17 18  1  0
 19 20  1  0
 21 22  1  0
 23 24  1  0
 25 26  1  0
M  CHG  1   8   1
M  END
>  <PDB_ID>  (2772) 
pdb4ypj

>  <RESIDUE_NAME>  (2772) 
LYS   PHE

>  <FRAG_NAME>  (2772) 
ETAM   MBZ

>  <FRAG_ATOM_NUM>  (2772) 
fragi: 11  fragj: 15

>  <atom.prop.CHAIN_ID>  (2772) 
A A A A A A A A A A A Z Z Z Z Z Z Z Z Z Z Z Z Z Z Z

>  <atom.prop.IS_HEAVY_ATOM>  (2772) 
1 0 0 0 1 0 0 1 0 0 0 1 0 0 0 1 1 0 1 0 1 0 1 0 1 0

>  <DIFUSE_FUNC_ATOM>  (2772) 
n/a

>  <FINAL_SINGLE_POINT_ENERGY>  (2772) 
0

>  <NONCOV_INTER_ENERGY_QM>  (2772) 
0

>  <FF_Energy>  (2772) 
-8.88

>  <QM_Energy>  (2772) 
-15.78

>  <source>  (2772) 
ETAM_MBZ

>  <Index>  (2772) 
29689

$$$$
ETAM-pdb4ypj-B-LYS-113:MBZ-pdb4ypj-B-PHE-49
     RDKit          3D

 26 25  0  0  0  0  0  0  0  0999 V2000
    0.8122   -1.4152    3.8685 C   0  0  0  0  0  0  0  0  0  0  0  0
    1.0705   -0.9115    4.6911 H   0  0  0  0  0  0  0  0  0  0  0  0
    1.4058   -1.1509    3.1111 H   0  0  0  0  0  0  0  0  0  0  0  0
    0.9467   -2.4801    4.0585 H   0  0  0  0  0  0  0  0  0  0  0  0
   -0.6134   -1.0764    3.5151 C   0  0  0  0  0  0  0  0  0  0  0  0
   -0.8759   -1.5984    2.6640 H   0  0  0  0  0  0  0  0  0  0  0  0
   -1.2348   -1.4522    4.2502 H   0  0  0  0  0  0  0  0  0  0  0  0
   -0.9695    0.3626    3.3023 N   0  0  0  0  0  4  0  0  0  0  0  0
   -1.1055    0.5250    2.3266 H   0  0  0  0  0  0  0  0  0  0  0  0
   -1.8097    0.5682    3.7999 H   0  0  0  0  0  0  0  0  0  0  0  0
   -0.2264    0.9367    3.6411 H   0  0  0  0  0  0  0  0  0  0  0  0
    0.0220    2.8779   -0.0790 C   0  0  0  0  0  0  0  0  0  0  0  0
   -0.3867    3.1350   -0.9507 H   0  0  0  0  0  0  0  0  0  0  0  0
    0.9739    3.1721   -0.0483 H   0  0  0  0  0  0  0  0  0  0  0  0
   -0.5200    3.3872    0.7177 H   0  0  0  0  0  0  0  0  0  0  0  0
    0.0052    1.3860    0.0074 C   0  0  0  0  0  0  0  0  0  0  0  0
   -1.1771    0.6939   -0.0142 C   0  0  0  0  0  0  0  0  0  0  0  0
   -2.0474    1.1890   -0.0426 H   0  0  0  0  0  0  0  0  0  0  0  0
   -1.1889   -0.6820   -0.0000 C   0  0  0  0  0  0  0  0  0  0  0  0
   -2.0779   -1.1700    0.0032 H   0  0  0  0  0  0  0  0  0  0  0  0
   -0.0143   -1.3770    0.0114 C   0  0  0  0  0  0  0  0  0  0  0  0
   -0.0200   -2.3815    0.0278 H   0  0  0  0  0  0  0  0  0  0  0  0
    1.1889   -0.6968    0.0000 C   0  0  0  0  0  0  0  0  0  0  0  0
    2.0646   -1.2052   -0.0030 H   0  0  0  0  0  0  0  0  0  0  0  0
    1.1862    0.6759   -0.0046 C   0  0  0  0  0  0  0  0  0  0  0  0
    2.0616    1.1750   -0.0173 H   0  0  0  0  0  0  0  0  0  0  0  0
  1  5  1  0
  5  8  1  0
  1  2  1  0
  1  3  1  0
  1  4  1  0
  5  6  1  0
  5  7  1  0
  8  9  1  0
  8 10  1  0
  8 11  1  0
 12 16  1  0
 16 17  2  0
 17 19  1  0
 19 21  2  0
 21 23  1  0
 23 25  2  0
 25 16  1  0
 12 13  1  0
 12 14  1  0
 12 15  1  0
 17 18  1  0
 19 20  1  0
 21 22  1  0
 23 24  1  0
 25 26  1  0
M  CHG  1   8   1
M  END
>  <PDB_ID>  (2773) 
pdb4ypj

>  <RESIDUE_NAME>  (2773) 
LYS   PHE

>  <FRAG_NAME>  (2773) 
ETAM   MBZ

>  <FRAG_ATOM_NUM>  (2773) 
fragi: 11  fragj: 15

>  <atom.prop.CHAIN_ID>  (2773) 
A A A A A A A A A A A Z Z Z Z Z Z Z Z Z Z Z Z Z Z Z

>  <atom.prop.IS_HEAVY_ATOM>  (2773) 
1 0 0 0 1 0 0 1 0 0 0 1 0 0 0 1 1 0 1 0 1 0 1 0 1 0

>  <DIFUSE_FUNC_ATOM>  (2773) 
n/a

>  <FINAL_SINGLE_POINT_ENERGY>  (2773) 
0

>  <NONCOV_INTER_ENERGY_QM>  (2773) 
0

>  <FF_Energy>  (2773) 
-8.63

>  <QM_Energy>  (2773) 
-16.0

>  <source>  (2773) 
ETAM_MBZ

>  <Index>  (2773) 
29693

$$$$
ETAM-pdb4ysh-A-LYS-97:MBZ-pdb4ysh-A-PHE-247
     RDKit          3D

 26 25  0  0  0  0  0  0  0  0999 V2000
   -0.7461    2.1714    5.3603 C   0  0  0  0  0  0  0  0  0  0  0  0
   -0.0431    2.2812    6.0512 H   0  0  0  0  0  0  0  0  0  0  0  0
   -1.4618    1.5628    5.6788 H   0  0  0  0  0  0  0  0  0  0  0  0
   -1.1841    3.1472    5.1503 H   0  0  0  0  0  0  0  0  0  0  0  0
   -0.1113    1.5653    4.1096 C   0  0  0  0  0  0  0  0  0  0  0  0
    0.7323    2.0674    3.8991 H   0  0  0  0  0  0  0  0  0  0  0  0
    0.1218    0.6070    4.2971 H   0  0  0  0  0  0  0  0  0  0  0  0
   -1.0216    1.6235    2.9244 N   0  0  0  0  0  4  0  0  0  0  0  0
   -1.8133    1.0374    3.0896 H   0  0  0  0  0  0  0  0  0  0  0  0
   -1.3223    2.5661    2.7873 H   0  0  0  0  0  0  0  0  0  0  0  0
   -0.5283    1.3054    2.1161 H   0  0  0  0  0  0  0  0  0  0  0  0
    0.0108    2.8992    0.0155 C   0  0  0  0  0  0  0  0  0  0  0  0
    0.8705    3.2079   -0.3721 H   0  0  0  0  0  0  0  0  0  0  0  0
   -0.0773    3.1946    0.9577 H   0  0  0  0  0  0  0  0  0  0  0  0
   -0.7942    3.3653   -0.5527 H   0  0  0  0  0  0  0  0  0  0  0  0
    0.0005    1.4006   -0.0063 C   0  0  0  0  0  0  0  0  0  0  0  0
   -1.1950    0.6843   -0.0021 C   0  0  0  0  0  0  0  0  0  0  0  0
   -2.0640    1.1728   -0.0017 H   0  0  0  0  0  0  0  0  0  0  0  0
   -1.2002   -0.7097   -0.0000 C   0  0  0  0  0  0  0  0  0  0  0  0
   -2.0740   -1.2024    0.0039 H   0  0  0  0  0  0  0  0  0  0  0  0
    0.0030   -1.3937   -0.0011 C   0  0  0  0  0  0  0  0  0  0  0  0
    0.0131   -2.3916   -0.0027 H   0  0  0  0  0  0  0  0  0  0  0  0
    1.2002   -0.6823   -0.0000 C   0  0  0  0  0  0  0  0  0  0  0  0
    2.0854   -1.1810   -0.0047 H   0  0  0  0  0  0  0  0  0  0  0  0
    1.1915    0.7008    0.0095 C   0  0  0  0  0  0  0  0  0  0  0  0
    2.0605    1.2001    0.0269 H   0  0  0  0  0  0  0  0  0  0  0  0
  1  5  1  0
  5  8  1  0
  1  2  1  0
  1  3  1  0
  1  4  1  0
  5  6  1  0
  5  7  1  0
  8  9  1  0
  8 10  1  0
  8 11  1  0
 12 16  1  0
 16 17  2  0
 17 19  1  0
 19 21  2  0
 21 23  1  0
 23 25  2  0
 25 16  1  0
 12 13  1  0
 12 14  1  0
 12 15  1  0
 17 18  1  0
 19 20  1  0
 21 22  1  0
 23 24  1  0
 25 26  1  0
M  CHG  1   8   1
M  END
>  <PDB_ID>  (2774) 
pdb4ysh

>  <RESIDUE_NAME>  (2774) 
LYS   PHE

>  <FRAG_NAME>  (2774) 
ETAM   MBZ

>  <FRAG_ATOM_NUM>  (2774) 
fragi: 11  fragj: 15

>  <atom.prop.CHAIN_ID>  (2774) 
A A A A A A A A A A A Z Z Z Z Z Z Z Z Z Z Z Z Z Z Z

>  <atom.prop.IS_HEAVY_ATOM>  (2774) 
1 0 0 0 1 0 0 1 0 0 0 1 0 0 0 1 1 0 1 0 1 0 1 0 1 0

>  <DIFUSE_FUNC_ATOM>  (2774) 
n/a

>  <FINAL_SINGLE_POINT_ENERGY>  (2774) 
0

>  <NONCOV_INTER_ENERGY_QM>  (2774) 
0

>  <FF_Energy>  (2774) 
-6.14

>  <QM_Energy>  (2774) 
-12.39

>  <source>  (2774) 
ETAM_MBZ

>  <Index>  (2774) 
29708

$$$$
ETAM-pdb4ysh-A-LYS-25:MBZ-pdb4ysh-A-PHE-21
     RDKit          3D

 26 25  0  0  0  0  0  0  0  0999 V2000
   -1.2742   -1.3339    3.2125 C   0  0  0  0  0  0  0  0  0  0  0  0
   -1.3285   -1.8053    2.3252 H   0  0  0  0  0  0  0  0  0  0  0  0
   -0.8655   -0.4262    3.0674 H   0  0  0  0  0  0  0  0  0  0  0  0
   -2.2841   -1.2049    3.6015 H   0  0  0  0  0  0  0  0  0  0  0  0
   -0.3578   -2.1319    4.1227 C   0  0  0  0  0  0  0  0  0  0  0  0
   -0.2947   -1.6758    5.0031 H   0  0  0  0  0  0  0  0  0  0  0  0
   -0.7238   -3.0497    4.2317 H   0  0  0  0  0  0  0  0  0  0  0  0
    0.9989   -2.2125    3.5111 N   0  0  0  0  0  4  0  0  0  0  0  0
    1.0060   -1.7003    2.6531 H   0  0  0  0  0  0  0  0  0  0  0  0
    1.6693   -1.8210    4.1408 H   0  0  0  0  0  0  0  0  0  0  0  0
    1.2242   -3.1694    3.3323 H   0  0  0  0  0  0  0  0  0  0  0  0
    0.0303    2.9137   -0.0120 C   0  0  0  0  0  0  0  0  0  0  0  0
   -0.2192    3.2107   -0.9240 H   0  0  0  0  0  0  0  0  0  0  0  0
    0.9488    3.2061    0.2176 H   0  0  0  0  0  0  0  0  0  0  0  0
   -0.6528    3.3935    0.6891 H   0  0  0  0  0  0  0  0  0  0  0  0
    0.0035    1.4027    0.0083 C   0  0  0  0  0  0  0  0  0  0  0  0
   -1.1995    0.6973   -0.0074 C   0  0  0  0  0  0  0  0  0  0  0  0
   -2.0619    1.1906   -0.0251 H   0  0  0  0  0  0  0  0  0  0  0  0
   -1.2042   -0.6920    0.0000 C   0  0  0  0  0  0  0  0  0  0  0  0
   -2.0811   -1.1861    0.0065 H   0  0  0  0  0  0  0  0  0  0  0  0
   -0.0020   -1.3930   -0.0002 C   0  0  0  0  0  0  0  0  0  0  0  0
   -0.0105   -2.3918   -0.0014 H   0  0  0  0  0  0  0  0  0  0  0  0
    1.2042   -0.7015   -0.0000 C   0  0  0  0  0  0  0  0  0  0  0  0
    2.0811   -1.2013    0.0023 H   0  0  0  0  0  0  0  0  0  0  0  0
    1.1981    0.6865   -0.0007 C   0  0  0  0  0  0  0  0  0  0  0  0
    2.0690    1.1846   -0.0088 H   0  0  0  0  0  0  0  0  0  0  0  0
  1  5  1  0
  5  8  1  0
  1  2  1  0
  1  3  1  0
  1  4  1  0
  5  6  1  0
  5  7  1  0
  8  9  1  0
  8 10  1  0
  8 11  1  0
 12 16  1  0
 16 17  2  0
 17 19  1  0
 19 21  2  0
 21 23  1  0
 23 25  2  0
 25 16  1  0
 12 13  1  0
 12 14  1  0
 12 15  1  0
 17 18  1  0
 19 20  1  0
 21 22  1  0
 23 24  1  0
 25 26  1  0
M  CHG  1   8   1
M  END
>  <PDB_ID>  (2775) 
pdb4ysh

>  <RESIDUE_NAME>  (2775) 
LYS   PHE

>  <FRAG_NAME>  (2775) 
ETAM   MBZ

>  <FRAG_ATOM_NUM>  (2775) 
fragi: 11  fragj: 15

>  <atom.prop.CHAIN_ID>  (2775) 
A A A A A A A A A A A Z Z Z Z Z Z Z Z Z Z Z Z Z Z Z

>  <atom.prop.IS_HEAVY_ATOM>  (2775) 
1 0 0 0 1 0 0 1 0 0 0 1 0 0 0 1 1 0 1 0 1 0 1 0 1 0

>  <DIFUSE_FUNC_ATOM>  (2775) 
n/a

>  <FINAL_SINGLE_POINT_ENERGY>  (2775) 
0

>  <NONCOV_INTER_ENERGY_QM>  (2775) 
0

>  <FF_Energy>  (2775) 
-3.76

>  <QM_Energy>  (2775) 
-9.8

>  <source>  (2775) 
ETAM_MBZ

>  <Index>  (2775) 
29710

$$$$
ETAM-pdb4ysn-A-LYS-227:MBZ-pdb4ysn-A-PHE-268
     RDKit          3D

 26 25  0  0  0  0  0  0  0  0999 V2000
   -0.4029   -3.7050    3.8132 C   0  0  0  0  0  0  0  0  0  0  0  0
   -1.3392   -3.8500    4.0766 H   0  0  0  0  0  0  0  0  0  0  0  0
    0.2294   -3.9977    4.5073 H   0  0  0  0  0  0  0  0  0  0  0  0
   -0.2085   -4.2767    2.9058 H   0  0  0  0  0  0  0  0  0  0  0  0
   -0.1880   -2.2123    3.5426 C   0  0  0  0  0  0  0  0  0  0  0  0
   -0.6950   -1.9615    2.7387 H   0  0  0  0  0  0  0  0  0  0  0  0
   -0.4694   -1.7040    4.3348 H   0  0  0  0  0  0  0  0  0  0  0  0
    1.2554   -2.0312    3.3094 N   0  0  0  0  0  4  0  0  0  0  0  0
    1.7338   -1.9542    4.1867 H   0  0  0  0  0  0  0  0  0  0  0  0
    1.6186   -2.8172    2.8040 H   0  0  0  0  0  0  0  0  0  0  0  0
    1.4105   -1.1976    2.7764 H   0  0  0  0  0  0  0  0  0  0  0  0
   -0.0055    2.9019    0.0484 C   0  0  0  0  0  0  0  0  0  0  0  0
   -0.7695    3.2228   -0.4770 H   0  0  0  0  0  0  0  0  0  0  0  0
    0.8538    3.2283   -0.2969 H   0  0  0  0  0  0  0  0  0  0  0  0
   -0.1189    3.2905    1.0605 H   0  0  0  0  0  0  0  0  0  0  0  0
    0.0049    1.3926   -0.0007 C   0  0  0  0  0  0  0  0  0  0  0  0
   -1.1628    0.6722    0.0269 C   0  0  0  0  0  0  0  0  0  0  0  0
   -2.0456    1.1614    0.0665 H   0  0  0  0  0  0  0  0  0  0  0  0
   -1.1756   -0.7055    0.0000 C   0  0  0  0  0  0  0  0  0  0  0  0
   -2.0735   -1.1821   -0.0214 H   0  0  0  0  0  0  0  0  0  0  0  0
   -0.0239   -1.3808    0.0040 C   0  0  0  0  0  0  0  0  0  0  0  0
   -0.0077   -2.3876    0.0098 H   0  0  0  0  0  0  0  0  0  0  0  0
    1.1756   -0.6888   -0.0000 C   0  0  0  0  0  0  0  0  0  0  0  0
    2.0584   -1.1864    0.0199 H   0  0  0  0  0  0  0  0  0  0  0  0
    1.1819    0.7103   -0.0302 C   0  0  0  0  0  0  0  0  0  0  0  0
    2.0552    1.1896   -0.0743 H   0  0  0  0  0  0  0  0  0  0  0  0
  1  5  1  0
  5  8  1  0
  1  2  1  0
  1  3  1  0
  1  4  1  0
  5  6  1  0
  5  7  1  0
  8  9  1  0
  8 10  1  0
  8 11  1  0
 12 16  1  0
 16 17  2  0
 17 19  1  0
 19 21  2  0
 21 23  1  0
 23 25  2  0
 25 16  1  0
 12 13  1  0
 12 14  1  0
 12 15  1  0
 17 18  1  0
 19 20  1  0
 21 22  1  0
 23 24  1  0
 25 26  1  0
M  CHG  1   8   1
M  END
>  <PDB_ID>  (2776) 
pdb4ysn

>  <RESIDUE_NAME>  (2776) 
LYS   PHE

>  <FRAG_NAME>  (2776) 
ETAM   MBZ

>  <FRAG_ATOM_NUM>  (2776) 
fragi: 11  fragj: 15

>  <atom.prop.CHAIN_ID>  (2776) 
A A A A A A A A A A A Z Z Z Z Z Z Z Z Z Z Z Z Z Z Z

>  <atom.prop.IS_HEAVY_ATOM>  (2776) 
1 0 0 0 1 0 0 1 0 0 0 1 0 0 0 1 1 0 1 0 1 0 1 0 1 0

>  <DIFUSE_FUNC_ATOM>  (2776) 
n/a

>  <FINAL_SINGLE_POINT_ENERGY>  (2776) 
0

>  <NONCOV_INTER_ENERGY_QM>  (2776) 
0

>  <FF_Energy>  (2776) 
-4.53

>  <QM_Energy>  (2776) 
-10.6

>  <source>  (2776) 
ETAM_MBZ

>  <Index>  (2776) 
29720

$$$$
ETAM-pdb4ysn-C-LYS-227:MBZ-pdb4ysn-C-PHE-268
     RDKit          3D

 26 25  0  0  0  0  0  0  0  0999 V2000
   -0.6127   -3.6015    3.8703 C   0  0  0  0  0  0  0  0  0  0  0  0
   -1.5567   -3.6367    4.1775 H   0  0  0  0  0  0  0  0  0  0  0  0
   -0.0085   -3.9976    4.5524 H   0  0  0  0  0  0  0  0  0  0  0  0
   -0.5268   -4.1830    2.9524 H   0  0  0  0  0  0  0  0  0  0  0  0
   -0.2198   -2.1265    3.6682 C   0  0  0  0  0  0  0  0  0  0  0  0
   -0.6865   -1.7841    2.8696 H   0  0  0  0  0  0  0  0  0  0  0  0
   -0.4661   -1.6219    4.4793 H   0  0  0  0  0  0  0  0  0  0  0  0
    1.2437   -2.0738    3.4624 N   0  0  0  0  0  4  0  0  0  0  0  0
    1.4673   -2.4140    2.5481 H   0  0  0  0  0  0  0  0  0  0  0  0
    1.5618   -1.1291    3.5504 H   0  0  0  0  0  0  0  0  0  0  0  0
    1.7006   -2.6426    4.1474 H   0  0  0  0  0  0  0  0  0  0  0  0
   -0.0109    2.9657    0.0202 C   0  0  0  0  0  0  0  0  0  0  0  0
   -0.7586    3.2545   -0.5482 H   0  0  0  0  0  0  0  0  0  0  0  0
    0.8584    3.2765   -0.3166 H   0  0  0  0  0  0  0  0  0  0  0  0
   -0.1595    3.3715    1.0208 H   0  0  0  0  0  0  0  0  0  0  0  0
    0.0148    1.4254   -0.0128 C   0  0  0  0  0  0  0  0  0  0  0  0
   -1.1883    0.6853   -0.0106 C   0  0  0  0  0  0  0  0  0  0  0  0
   -2.0570    1.1755   -0.0181 H   0  0  0  0  0  0  0  0  0  0  0  0
   -1.1920   -0.7115   -0.0000 C   0  0  0  0  0  0  0  0  0  0  0  0
   -2.0741   -1.2018   -0.0065 H   0  0  0  0  0  0  0  0  0  0  0  0
    0.0047   -1.4223    0.0209 C   0  0  0  0  0  0  0  0  0  0  0  0
    0.0076   -2.4057    0.0487 H   0  0  0  0  0  0  0  0  0  0  0  0
    1.1920   -0.6953    0.0000 C   0  0  0  0  0  0  0  0  0  0  0  0
    2.0868   -1.1690   -0.0155 H   0  0  0  0  0  0  0  0  0  0  0  0
    1.1688    0.7184    0.0024 C   0  0  0  0  0  0  0  0  0  0  0  0
    2.0629    1.1964    0.0159 H   0  0  0  0  0  0  0  0  0  0  0  0
  1  5  1  0
  5  8  1  0
  1  2  1  0
  1  3  1  0
  1  4  1  0
  5  6  1  0
  5  7  1  0
  8  9  1  0
  8 10  1  0
  8 11  1  0
 12 16  1  0
 16 17  2  0
 17 19  1  0
 19 21  2  0
 21 23  1  0
 23 25  2  0
 25 16  1  0
 12 13  1  0
 12 14  1  0
 12 15  1  0
 17 18  1  0
 19 20  1  0
 21 22  1  0
 23 24  1  0
 25 26  1  0
M  CHG  1   8   1
M  END
>  <PDB_ID>  (2777) 
pdb4ysn

>  <RESIDUE_NAME>  (2777) 
LYS   PHE

>  <FRAG_NAME>  (2777) 
ETAM   MBZ

>  <FRAG_ATOM_NUM>  (2777) 
fragi: 11  fragj: 15

>  <atom.prop.CHAIN_ID>  (2777) 
A A A A A A A A A A A Z Z Z Z Z Z Z Z Z Z Z Z Z Z Z

>  <atom.prop.IS_HEAVY_ATOM>  (2777) 
1 0 0 0 1 0 0 1 0 0 0 1 0 0 0 1 1 0 1 0 1 0 1 0 1 0

>  <DIFUSE_FUNC_ATOM>  (2777) 
n/a

>  <FINAL_SINGLE_POINT_ENERGY>  (2777) 
0

>  <NONCOV_INTER_ENERGY_QM>  (2777) 
0

>  <FF_Energy>  (2777) 
-4.11

>  <QM_Energy>  (2777) 
-9.74

>  <source>  (2777) 
ETAM_MBZ

>  <Index>  (2777) 
29725

$$$$
ETAM-pdb4ysn-D-LYS-227:MBZ-pdb4ysn-D-PHE-268
     RDKit          3D

 26 25  0  0  0  0  0  0  0  0999 V2000
   -0.7220   -3.6260    3.8596 C   0  0  0  0  0  0  0  0  0  0  0  0
   -1.6958   -3.6050    4.0201 H   0  0  0  0  0  0  0  0  0  0  0  0
   -0.2363   -4.0301    4.6175 H   0  0  0  0  0  0  0  0  0  0  0  0
   -0.5238   -4.2090    2.9602 H   0  0  0  0  0  0  0  0  0  0  0  0
   -0.2278   -2.1731    3.6862 C   0  0  0  0  0  0  0  0  0  0  0  0
   -0.7283   -1.7546    2.9335 H   0  0  0  0  0  0  0  0  0  0  0  0
   -0.4027   -1.6739    4.5309 H   0  0  0  0  0  0  0  0  0  0  0  0
    1.2463   -2.1319    3.3831 N   0  0  0  0  0  4  0  0  0  0  0  0
    1.3812   -2.3030    2.4105 H   0  0  0  0  0  0  0  0  0  0  0  0
    1.6004   -1.2321    3.6237 H   0  0  0  0  0  0  0  0  0  0  0  0
    1.7059   -2.8342    3.9199 H   0  0  0  0  0  0  0  0  0  0  0  0
    0.0490    2.8698   -0.0153 C   0  0  0  0  0  0  0  0  0  0  0  0
   -0.6982    3.2031   -0.5696 H   0  0  0  0  0  0  0  0  0  0  0  0
    0.9214    3.1744   -0.3671 H   0  0  0  0  0  0  0  0  0  0  0  0
   -0.0674    3.3001    0.9794 H   0  0  0  0  0  0  0  0  0  0  0  0
    0.0236    1.3875   -0.0236 C   0  0  0  0  0  0  0  0  0  0  0  0
   -1.2039    0.6788   -0.0182 C   0  0  0  0  0  0  0  0  0  0  0  0
   -2.0507    1.1785   -0.0287 H   0  0  0  0  0  0  0  0  0  0  0  0
   -1.1826   -0.6908   -0.0000 C   0  0  0  0  0  0  0  0  0  0  0  0
   -2.0725   -1.1935   -0.0326 H   0  0  0  0  0  0  0  0  0  0  0  0
   -0.0184   -1.3608    0.0610 C   0  0  0  0  0  0  0  0  0  0  0  0
   -0.0122   -2.3706    0.1523 H   0  0  0  0  0  0  0  0  0  0  0  0
    1.1826   -0.6887    0.0000 C   0  0  0  0  0  0  0  0  0  0  0  0
    2.0563   -1.2098   -0.0293 H   0  0  0  0  0  0  0  0  0  0  0  0
    1.1987    0.6740   -0.0191 C   0  0  0  0  0  0  0  0  0  0  0  0
    2.0754    1.1667   -0.0313 H   0  0  0  0  0  0  0  0  0  0  0  0
  1  5  1  0
  5  8  1  0
  1  2  1  0
  1  3  1  0
  1  4  1  0
  5  6  1  0
  5  7  1  0
  8  9  1  0
  8 10  1  0
  8 11  1  0
 12 16  1  0
 16 17  2  0
 17 19  1  0
 19 21  2  0
 21 23  1  0
 23 25  2  0
 25 16  1  0
 12 13  1  0
 12 14  1  0
 12 15  1  0
 17 18  1  0
 19 20  1  0
 21 22  1  0
 23 24  1  0
 25 26  1  0
M  CHG  1   8   1
M  END
>  <PDB_ID>  (2778) 
pdb4ysn

>  <RESIDUE_NAME>  (2778) 
LYS   PHE

>  <FRAG_NAME>  (2778) 
ETAM   MBZ

>  <FRAG_ATOM_NUM>  (2778) 
fragi: 11  fragj: 15

>  <atom.prop.CHAIN_ID>  (2778) 
A A A A A A A A A A A Z Z Z Z Z Z Z Z Z Z Z Z Z Z Z

>  <atom.prop.IS_HEAVY_ATOM>  (2778) 
1 0 0 0 1 0 0 1 0 0 0 1 0 0 0 1 1 0 1 0 1 0 1 0 1 0

>  <DIFUSE_FUNC_ATOM>  (2778) 
n/a

>  <FINAL_SINGLE_POINT_ENERGY>  (2778) 
0

>  <NONCOV_INTER_ENERGY_QM>  (2778) 
0

>  <FF_Energy>  (2778) 
-4.0

>  <QM_Energy>  (2778) 
-9.82

>  <source>  (2778) 
ETAM_MBZ

>  <Index>  (2778) 
29727

$$$$
ETAM-pdb4ysx-E-LYS-498:MBZ-pdb4ysx-E-PHE-244
     RDKit          3D

 26 25  0  0  0  0  0  0  0  0999 V2000
   -2.4280    0.6073   -4.7727 C   0  0  0  0  0  0  0  0  0  0  0  0
   -3.3504    0.7235   -5.1321 H   0  0  0  0  0  0  0  0  0  0  0  0
   -1.7681    0.6044   -5.5187 H   0  0  0  0  0  0  0  0  0  0  0  0
   -2.2025    1.4376   -4.1035 H   0  0  0  0  0  0  0  0  0  0  0  0
   -2.3538   -0.7317   -4.0564 C   0  0  0  0  0  0  0  0  0  0  0  0
   -2.9485   -0.7038   -3.2513 H   0  0  0  0  0  0  0  0  0  0  0  0
   -2.6728   -1.4515   -4.6754 H   0  0  0  0  0  0  0  0  0  0  0  0
   -0.9603   -1.0426   -3.6235 N   0  0  0  0  0  4  0  0  0  0  0  0
   -0.4914   -1.5393   -4.3529 H   0  0  0  0  0  0  0  0  0  0  0  0
   -0.4768   -0.1897   -3.4318 H   0  0  0  0  0  0  0  0  0  0  0  0
   -0.9891   -1.6052   -2.7984 H   0  0  0  0  0  0  0  0  0  0  0  0
   -0.0014    2.9032   -0.0168 C   0  0  0  0  0  0  0  0  0  0  0  0
   -0.6654    3.2006   -0.6864 H   0  0  0  0  0  0  0  0  0  0  0  0
    0.9096    3.2055   -0.2565 H   0  0  0  0  0  0  0  0  0  0  0  0
   -0.2634    3.3558    0.9395 H   0  0  0  0  0  0  0  0  0  0  0  0
   -0.0017    1.3980   -0.0016 C   0  0  0  0  0  0  0  0  0  0  0  0
   -1.1968    0.6930    0.0022 C   0  0  0  0  0  0  0  0  0  0  0  0
   -2.0632    1.1860    0.0049 H   0  0  0  0  0  0  0  0  0  0  0  0
   -1.2023   -0.6913   -0.0000 C   0  0  0  0  0  0  0  0  0  0  0  0
   -2.0783   -1.1875   -0.0054 H   0  0  0  0  0  0  0  0  0  0  0  0
   -0.0007   -1.3883    0.0071 C   0  0  0  0  0  0  0  0  0  0  0  0
   -0.0084   -2.3890    0.0171 H   0  0  0  0  0  0  0  0  0  0  0  0
    1.2023   -0.6997   -0.0000 C   0  0  0  0  0  0  0  0  0  0  0  0
    2.0807   -1.2002    0.0015 H   0  0  0  0  0  0  0  0  0  0  0  0
    1.1992    0.6882   -0.0077 C   0  0  0  0  0  0  0  0  0  0  0  0
    2.0652    1.1866   -0.0185 H   0  0  0  0  0  0  0  0  0  0  0  0
  1  5  1  0
  5  8  1  0
  1  2  1  0
  1  3  1  0
  1  4  1  0
  5  6  1  0
  5  7  1  0
  8  9  1  0
  8 10  1  0
  8 11  1  0
 12 16  1  0
 16 17  2  0
 17 19  1  0
 19 21  2  0
 21 23  1  0
 23 25  2  0
 25 16  1  0
 12 13  1  0
 12 14  1  0
 12 15  1  0
 17 18  1  0
 19 20  1  0
 21 22  1  0
 23 24  1  0
 25 26  1  0
M  CHG  1   8   1
M  END
>  <PDB_ID>  (2779) 
pdb4ysx

>  <RESIDUE_NAME>  (2779) 
LYS   PHE

>  <FRAG_NAME>  (2779) 
ETAM   MBZ

>  <FRAG_ATOM_NUM>  (2779) 
fragi: 11  fragj: 15

>  <atom.prop.CHAIN_ID>  (2779) 
A A A A A A A A A A A Z Z Z Z Z Z Z Z Z Z Z Z Z Z Z

>  <atom.prop.IS_HEAVY_ATOM>  (2779) 
1 0 0 0 1 0 0 1 0 0 0 1 0 0 0 1 1 0 1 0 1 0 1 0 1 0

>  <DIFUSE_FUNC_ATOM>  (2779) 
n/a

>  <FINAL_SINGLE_POINT_ENERGY>  (2779) 
0

>  <NONCOV_INTER_ENERGY_QM>  (2779) 
0

>  <FF_Energy>  (2779) 
-5.8

>  <QM_Energy>  (2779) 
-11.23

>  <source>  (2779) 
ETAM_MBZ

>  <Index>  (2779) 
29736

$$$$
ETAM-pdb4y42-C-LYS-22:MBZ-pdb4y42-C-PHE-29
     RDKit          3D

 26 25  0  0  0  0  0  0  0  0999 V2000
   -0.7592   -1.1809   -3.8281 C   0  0  0  0  0  0  0  0  0  0  0  0
   -1.6279   -0.8021   -3.5116 H   0  0  0  0  0  0  0  0  0  0  0  0
   -0.6050   -2.0702   -3.4005 H   0  0  0  0  0  0  0  0  0  0  0  0
   -0.8127   -1.3175   -4.9082 H   0  0  0  0  0  0  0  0  0  0  0  0
    0.3606   -0.2425   -3.4134 C   0  0  0  0  0  0  0  0  0  0  0  0
    0.2635    0.6235   -3.9172 H   0  0  0  0  0  0  0  0  0  0  0  0
    0.2762   -0.0487   -2.4299 H   0  0  0  0  0  0  0  0  0  0  0  0
    1.7094   -0.8132   -3.6824 N   0  0  0  0  0  4  0  0  0  0  0  0
    1.6505   -1.8112   -3.6965 H   0  0  0  0  0  0  0  0  0  0  0  0
    2.0376   -0.4846   -4.5674 H   0  0  0  0  0  0  0  0  0  0  0  0
    2.3404   -0.5246   -2.9630 H   0  0  0  0  0  0  0  0  0  0  0  0
   -0.0105    2.9167   -0.0077 C   0  0  0  0  0  0  0  0  0  0  0  0
    0.9020    3.2249    0.2038 H   0  0  0  0  0  0  0  0  0  0  0  0
   -0.6638    3.2161    0.6681 H   0  0  0  0  0  0  0  0  0  0  0  0
   -0.2979    3.3477   -0.9667 H   0  0  0  0  0  0  0  0  0  0  0  0
    0.0006    1.3995   -0.0003 C   0  0  0  0  0  0  0  0  0  0  0  0
   -1.1904    0.6882   -0.0022 C   0  0  0  0  0  0  0  0  0  0  0  0
   -2.0607    1.1784   -0.0068 H   0  0  0  0  0  0  0  0  0  0  0  0
   -1.1949   -0.6981    0.0000 C   0  0  0  0  0  0  0  0  0  0  0  0
   -2.0762   -1.1893    0.0017 H   0  0  0  0  0  0  0  0  0  0  0  0
   -0.0051   -1.3863    0.0010 C   0  0  0  0  0  0  0  0  0  0  0  0
   -0.0064   -2.3898    0.0021 H   0  0  0  0  0  0  0  0  0  0  0  0
    1.1949   -0.6981    0.0000 C   0  0  0  0  0  0  0  0  0  0  0  0
    2.0754   -1.1967   -0.0004 H   0  0  0  0  0  0  0  0  0  0  0  0
    1.1949    0.6949    0.0015 C   0  0  0  0  0  0  0  0  0  0  0  0
    2.0630    1.1871    0.0030 H   0  0  0  0  0  0  0  0  0  0  0  0
  1  5  1  0
  5  8  1  0
  1  2  1  0
  1  3  1  0
  1  4  1  0
  5  6  1  0
  5  7  1  0
  8  9  1  0
  8 10  1  0
  8 11  1  0
 12 16  1  0
 16 17  2  0
 17 19  1  0
 19 21  2  0
 21 23  1  0
 23 25  2  0
 25 16  1  0
 12 13  1  0
 12 14  1  0
 12 15  1  0
 17 18  1  0
 19 20  1  0
 21 22  1  0
 23 24  1  0
 25 26  1  0
M  CHG  1   8   1
M  END
>  <PDB_ID>  (2780) 
pdb4y42

>  <RESIDUE_NAME>  (2780) 
LYS   PHE

>  <FRAG_NAME>  (2780) 
ETAM   MBZ

>  <FRAG_ATOM_NUM>  (2780) 
fragi: 11  fragj: 15

>  <atom.prop.CHAIN_ID>  (2780) 
A A A A A A A A A A A Z Z Z Z Z Z Z Z Z Z Z Z Z Z Z

>  <atom.prop.IS_HEAVY_ATOM>  (2780) 
1 0 0 0 1 0 0 1 0 0 0 1 0 0 0 1 1 0 1 0 1 0 1 0 1 0

>  <DIFUSE_FUNC_ATOM>  (2780) 
n/a

>  <FINAL_SINGLE_POINT_ENERGY>  (2780) 
0

>  <NONCOV_INTER_ENERGY_QM>  (2780) 
0

>  <FF_Energy>  (2780) 
-5.18

>  <QM_Energy>  (2780) 
-11.85

>  <source>  (2780) 
ETAM_MBZ

>  <Index>  (2780) 
29745

$$$$
ETAM-pdb4ylf-B-LYS-174:MBZ-pdb4ylf-C-PHE-184
     RDKit          3D

 26 25  0  0  0  0  0  0  0  0999 V2000
   -6.4118   -0.8341   -1.9208 C   0  0  0  0  0  0  0  0  0  0  0  0
   -6.9096    0.0281   -1.9504 H   0  0  0  0  0  0  0  0  0  0  0  0
   -6.6488   -1.3406   -1.0974 H   0  0  0  0  0  0  0  0  0  0  0  0
   -6.6780   -1.4286   -2.7947 H   0  0  0  0  0  0  0  0  0  0  0  0
   -4.9084   -0.5178   -1.8712 C   0  0  0  0  0  0  0  0  0  0  0  0
   -4.3995   -1.3869   -1.8508 H   0  0  0  0  0  0  0  0  0  0  0  0
   -4.6573   -0.0247   -2.7127 H   0  0  0  0  0  0  0  0  0  0  0  0
   -4.5171    0.3071   -0.6851 N   0  0  0  0  0  4  0  0  0  0  0  0
   -4.5882   -0.2509    0.1391 H   0  0  0  0  0  0  0  0  0  0  0  0
   -3.5769    0.6210   -0.8007 H   0  0  0  0  0  0  0  0  0  0  0  0
   -5.1293    1.0920   -0.6157 H   0  0  0  0  0  0  0  0  0  0  0  0
   -0.0050    2.9136    0.0031 C   0  0  0  0  0  0  0  0  0  0  0  0
    0.8482    3.2193    0.3960 H   0  0  0  0  0  0  0  0  0  0  0  0
   -0.7783    3.2134    0.5404 H   0  0  0  0  0  0  0  0  0  0  0  0
   -0.0939    3.3708   -0.9823 H   0  0  0  0  0  0  0  0  0  0  0  0
   -0.0006    1.3983   -0.0059 C   0  0  0  0  0  0  0  0  0  0  0  0
   -1.1903    0.6854    0.0047 C   0  0  0  0  0  0  0  0  0  0  0  0
   -2.0601    1.1776    0.0150 H   0  0  0  0  0  0  0  0  0  0  0  0
   -1.1932   -0.6949   -0.0000 C   0  0  0  0  0  0  0  0  0  0  0  0
   -2.0727   -1.1911   -0.0007 H   0  0  0  0  0  0  0  0  0  0  0  0
   -0.0004   -1.3859   -0.0013 C   0  0  0  0  0  0  0  0  0  0  0  0
   -0.0041   -2.3878   -0.0040 H   0  0  0  0  0  0  0  0  0  0  0  0
    1.1932   -0.6943   -0.0000 C   0  0  0  0  0  0  0  0  0  0  0  0
    2.0773   -1.1925    0.0008 H   0  0  0  0  0  0  0  0  0  0  0  0
    1.1913    0.6915    0.0024 C   0  0  0  0  0  0  0  0  0  0  0  0
    2.0614    1.1875    0.0093 H   0  0  0  0  0  0  0  0  0  0  0  0
  1  5  1  0
  5  8  1  0
  1  2  1  0
  1  3  1  0
  1  4  1  0
  5  6  1  0
  5  7  1  0
  8  9  1  0
  8 10  1  0
  8 11  1  0
 12 16  1  0
 16 17  2  0
 17 19  1  0
 19 21  2  0
 21 23  1  0
 23 25  2  0
 25 16  1  0
 12 13  1  0
 12 14  1  0
 12 15  1  0
 17 18  1  0
 19 20  1  0
 21 22  1  0
 23 24  1  0
 25 26  1  0
M  CHG  1   8   1
M  END
>  <PDB_ID>  (2781) 
pdb4ylf

>  <RESIDUE_NAME>  (2781) 
LYS   PHE

>  <FRAG_NAME>  (2781) 
ETAM   MBZ

>  <FRAG_ATOM_NUM>  (2781) 
fragi: 11  fragj: 15

>  <atom.prop.CHAIN_ID>  (2781) 
A A A A A A A A A A A Z Z Z Z Z Z Z Z Z Z Z Z Z Z Z

>  <atom.prop.IS_HEAVY_ATOM>  (2781) 
1 0 0 0 1 0 0 1 0 0 0 1 0 0 0 1 1 0 1 0 1 0 1 0 1 0

>  <DIFUSE_FUNC_ATOM>  (2781) 
n/a

>  <FINAL_SINGLE_POINT_ENERGY>  (2781) 
0

>  <NONCOV_INTER_ENERGY_QM>  (2781) 
0

>  <FF_Energy>  (2781) 
1.15

>  <QM_Energy>  (2781) 
-4.48

>  <source>  (2781) 
ETAM_MBZ

>  <Index>  (2781) 
29763

$$$$
ETAM-pdb3zl5-E-LYS-143:MBZ-pdb3zl5-E-PHE-123
     RDKit          3D

 26 25  0  0  0  0  0  0  0  0999 V2000
   -2.8375    0.2740   -4.4580 C   0  0  0  0  0  0  0  0  0  0  0  0
   -2.9390   -0.7107   -4.5580 H   0  0  0  0  0  0  0  0  0  0  0  0
   -3.2724    0.7444   -5.2189 H   0  0  0  0  0  0  0  0  0  0  0  0
   -3.3124    0.5865   -3.5280 H   0  0  0  0  0  0  0  0  0  0  0  0
   -1.3543    0.6099   -4.4667 C   0  0  0  0  0  0  0  0  0  0  0  0
   -1.0015    0.4965   -5.4025 H   0  0  0  0  0  0  0  0  0  0  0  0
   -1.2373    1.5737   -4.1977 H   0  0  0  0  0  0  0  0  0  0  0  0
   -0.5674   -0.2518   -3.5419 N   0  0  0  0  0  4  0  0  0  0  0  0
   -0.8084   -1.2092   -3.6961 H   0  0  0  0  0  0  0  0  0  0  0  0
    0.4076   -0.1196   -3.7148 H   0  0  0  0  0  0  0  0  0  0  0  0
   -0.7769   -0.0019   -2.5973 H   0  0  0  0  0  0  0  0  0  0  0  0
   -0.0089    2.8857   -0.0026 C   0  0  0  0  0  0  0  0  0  0  0  0
    0.8774    3.1991    0.3084 H   0  0  0  0  0  0  0  0  0  0  0  0
   -0.7293    3.1910    0.6037 H   0  0  0  0  0  0  0  0  0  0  0  0
   -0.1920    3.3216   -0.9847 H   0  0  0  0  0  0  0  0  0  0  0  0
   -0.0006    1.3905   -0.0004 C   0  0  0  0  0  0  0  0  0  0  0  0
   -1.1900    0.6849    0.0011 C   0  0  0  0  0  0  0  0  0  0  0  0
   -2.0584    1.1781    0.0020 H   0  0  0  0  0  0  0  0  0  0  0  0
   -1.1930   -0.6920   -0.0000 C   0  0  0  0  0  0  0  0  0  0  0  0
   -2.0720   -1.1901    0.0000 H   0  0  0  0  0  0  0  0  0  0  0  0
    0.0002   -1.3826    0.0004 C   0  0  0  0  0  0  0  0  0  0  0  0
   -0.0032   -2.3846    0.0002 H   0  0  0  0  0  0  0  0  0  0  0  0
    1.1930   -0.6902    0.0000 C   0  0  0  0  0  0  0  0  0  0  0  0
    2.0772   -1.1916    0.0016 H   0  0  0  0  0  0  0  0  0  0  0  0
    1.1905    0.6894   -0.0011 C   0  0  0  0  0  0  0  0  0  0  0  0
    2.0592    1.1884   -0.0036 H   0  0  0  0  0  0  0  0  0  0  0  0
  1  5  1  0
  5  8  1  0
  1  2  1  0
  1  3  1  0
  1  4  1  0
  5  6  1  0
  5  7  1  0
  8  9  1  0
  8 10  1  0
  8 11  1  0
 12 16  1  0
 16 17  2  0
 17 19  1  0
 19 21  2  0
 21 23  1  0
 23 25  2  0
 25 16  1  0
 12 13  1  0
 12 14  1  0
 12 15  1  0
 17 18  1  0
 19 20  1  0
 21 22  1  0
 23 24  1  0
 25 26  1  0
M  CHG  1   8   1
M  END
>  <PDB_ID>  (2782) 
pdb3zl5

>  <RESIDUE_NAME>  (2782) 
LYS   PHE

>  <FRAG_NAME>  (2782) 
ETAM   MBZ

>  <FRAG_ATOM_NUM>  (2782) 
fragi: 11  fragj: 15

>  <atom.prop.CHAIN_ID>  (2782) 
A A A A A A A A A A A Z Z Z Z Z Z Z Z Z Z Z Z Z Z Z

>  <atom.prop.IS_HEAVY_ATOM>  (2782) 
1 0 0 0 1 0 0 1 0 0 0 1 0 0 0 1 1 0 1 0 1 0 1 0 1 0

>  <DIFUSE_FUNC_ATOM>  (2782) 
n/a

>  <FINAL_SINGLE_POINT_ENERGY>  (2782) 
0

>  <NONCOV_INTER_ENERGY_QM>  (2782) 
0

>  <FF_Energy>  (2782) 
-7.74

>  <QM_Energy>  (2782) 
-13.84

>  <source>  (2782) 
ETAM_MBZ

>  <Index>  (2782) 
29792

$$$$
ETAM-pdb4ys0-A-LYS-639:MBZ-pdb4ys0-A-PHE-635
     RDKit          3D

 26 25  0  0  0  0  0  0  0  0999 V2000
   -0.3058   -1.7323    3.4751 C   0  0  0  0  0  0  0  0  0  0  0  0
   -0.2042   -2.3029    4.2853 H   0  0  0  0  0  0  0  0  0  0  0  0
   -0.2448   -2.2898    2.6519 H   0  0  0  0  0  0  0  0  0  0  0  0
   -1.2842   -1.2526    3.5037 H   0  0  0  0  0  0  0  0  0  0  0  0
    0.8352   -0.7129    3.4547 C   0  0  0  0  0  0  0  0  0  0  0  0
    0.8075   -0.2156    2.5856 H   0  0  0  0  0  0  0  0  0  0  0  0
    0.7020   -0.0644    4.2073 H   0  0  0  0  0  0  0  0  0  0  0  0
    2.1693   -1.3684    3.6031 N   0  0  0  0  0  4  0  0  0  0  0  0
    2.1398   -2.0041    4.3726 H   0  0  0  0  0  0  0  0  0  0  0  0
    2.3867   -1.8649    2.7644 H   0  0  0  0  0  0  0  0  0  0  0  0
    2.8621   -0.6694    3.7703 H   0  0  0  0  0  0  0  0  0  0  0  0
   -0.0030    2.8937   -0.0084 C   0  0  0  0  0  0  0  0  0  0  0  0
   -0.1441    3.1899   -0.9424 H   0  0  0  0  0  0  0  0  0  0  0  0
    0.8737    3.2003    0.3343 H   0  0  0  0  0  0  0  0  0  0  0  0
   -0.7824    3.3396    0.6094 H   0  0  0  0  0  0  0  0  0  0  0  0
   -0.0020    1.3909    0.0041 C   0  0  0  0  0  0  0  0  0  0  0  0
   -1.1890    0.6845   -0.0064 C   0  0  0  0  0  0  0  0  0  0  0  0
   -2.0590    1.1749   -0.0201 H   0  0  0  0  0  0  0  0  0  0  0  0
   -1.1880   -0.6939    0.0000 C   0  0  0  0  0  0  0  0  0  0  0  0
   -2.0653   -1.1939    0.0047 H   0  0  0  0  0  0  0  0  0  0  0  0
    0.0074   -1.3814    0.0024 C   0  0  0  0  0  0  0  0  0  0  0  0
    0.0023   -2.3848    0.0056 H   0  0  0  0  0  0  0  0  0  0  0  0
    1.1880   -0.6902    0.0000 C   0  0  0  0  0  0  0  0  0  0  0  0
    2.0783   -1.1854    0.0003 H   0  0  0  0  0  0  0  0  0  0  0  0
    1.1836    0.6902   -0.0000 C   0  0  0  0  0  0  0  0  0  0  0  0
    2.0555    1.1873   -0.0038 H   0  0  0  0  0  0  0  0  0  0  0  0
  1  5  1  0
  5  8  1  0
  1  2  1  0
  1  3  1  0
  1  4  1  0
  5  6  1  0
  5  7  1  0
  8  9  1  0
  8 10  1  0
  8 11  1  0
 12 16  1  0
 16 17  2  0
 17 19  1  0
 19 21  2  0
 21 23  1  0
 23 25  2  0
 25 16  1  0
 12 13  1  0
 12 14  1  0
 12 15  1  0
 17 18  1  0
 19 20  1  0
 21 22  1  0
 23 24  1  0
 25 26  1  0
M  CHG  1   8   1
M  END
>  <PDB_ID>  (2783) 
pdb4ys0

>  <RESIDUE_NAME>  (2783) 
LYS   PHE

>  <FRAG_NAME>  (2783) 
ETAM   MBZ

>  <FRAG_ATOM_NUM>  (2783) 
fragi: 11  fragj: 15

>  <atom.prop.CHAIN_ID>  (2783) 
A A A A A A A A A A A Z Z Z Z Z Z Z Z Z Z Z Z Z Z Z

>  <atom.prop.IS_HEAVY_ATOM>  (2783) 
1 0 0 0 1 0 0 1 0 0 0 1 0 0 0 1 1 0 1 0 1 0 1 0 1 0

>  <DIFUSE_FUNC_ATOM>  (2783) 
n/a

>  <FINAL_SINGLE_POINT_ENERGY>  (2783) 
0

>  <NONCOV_INTER_ENERGY_QM>  (2783) 
0

>  <FF_Energy>  (2783) 
-4.13

>  <QM_Energy>  (2783) 
-9.76

>  <source>  (2783) 
ETAM_MBZ

>  <Index>  (2783) 
29807

$$$$
ETAM-pdb3zvs-B-LYS-2:MBZ-pdb3zvs-A-PHE-97
     RDKit          3D

 26 25  0  0  0  0  0  0  0  0999 V2000
    1.5755   -2.0137   -3.6923 C   0  0  0  0  0  0  0  0  0  0  0  0
    1.9368   -1.6945   -2.8511 H   0  0  0  0  0  0  0  0  0  0  0  0
    1.8706   -1.4450   -4.4217 H   0  0  0  0  0  0  0  0  0  0  0  0
    1.9203   -3.0326   -3.8688 H   0  0  0  0  0  0  0  0  0  0  0  0
    0.0330   -1.9394   -3.6156 C   0  0  0  0  0  0  0  0  0  0  0  0
   -0.3478   -2.2724   -4.4438 H   0  0  0  0  0  0  0  0  0  0  0  0
   -0.2784   -2.4684   -2.8641 H   0  0  0  0  0  0  0  0  0  0  0  0
   -0.4307   -0.5071   -3.4188 N   0  0  0  0  0  4  0  0  0  0  0  0
   -0.1567   -0.0023   -4.0988 H   0  0  0  0  0  0  0  0  0  0  0  0
   -1.3192   -0.4777   -3.3757 H   0  0  0  0  0  0  0  0  0  0  0  0
   -0.0938   -0.1801   -2.6625 H   0  0  0  0  0  0  0  0  0  0  0  0
    0.0319    2.9148    0.0494 C   0  0  0  0  0  0  0  0  0  0  0  0
    0.8467    3.1886    0.4987 H   0  0  0  0  0  0  0  0  0  0  0  0
   -0.7388    3.2084    0.5608 H   0  0  0  0  0  0  0  0  0  0  0  0
   -0.0004    3.3857   -0.9332 H   0  0  0  0  0  0  0  0  0  0  0  0
    0.0111    1.3982    0.0100 C   0  0  0  0  0  0  0  0  0  0  0  0
   -1.1757    0.6860    0.0101 C   0  0  0  0  0  0  0  0  0  0  0  0
   -1.9829    1.1470    0.0175 H   0  0  0  0  0  0  0  0  0  0  0  0
   -1.1850   -0.6848    0.0000 C   0  0  0  0  0  0  0  0  0  0  0  0
   -1.9962   -1.1394   -0.0120 H   0  0  0  0  0  0  0  0  0  0  0  0
   -0.0249   -1.3826   -0.0276 C   0  0  0  0  0  0  0  0  0  0  0  0
   -0.0383   -2.3123   -0.0309 H   0  0  0  0  0  0  0  0  0  0  0  0
    1.1850   -0.7027   -0.0000 C   0  0  0  0  0  0  0  0  0  0  0  0
    1.9867   -1.1732   -0.0156 H   0  0  0  0  0  0  0  0  0  0  0  0
    1.1895    0.6859    0.0074 C   0  0  0  0  0  0  0  0  0  0  0  0
    2.0001    1.1414    0.0154 H   0  0  0  0  0  0  0  0  0  0  0  0
  1  5  1  0
  5  8  1  0
  1  2  1  0
  1  3  1  0
  1  4  1  0
  5  6  1  0
  5  7  1  0
  8  9  1  0
  8 10  1  0
  8 11  1  0
 12 16  1  0
 16 17  2  0
 17 19  1  0
 19 21  2  0
 21 23  1  0
 23 25  2  0
 25 16  1  0
 12 13  1  0
 12 14  1  0
 12 15  1  0
 17 18  1  0
 19 20  1  0
 21 22  1  0
 23 24  1  0
 25 26  1  0
M  CHG  1   8   1
M  END
>  <PDB_ID>  (2784) 
pdb3zvs

>  <RESIDUE_NAME>  (2784) 
LYS   PHE

>  <FRAG_NAME>  (2784) 
ETAM   MBZ

>  <FRAG_ATOM_NUM>  (2784) 
fragi: 11  fragj: 15

>  <atom.prop.CHAIN_ID>  (2784) 
A A A A A A A A A A A Z Z Z Z Z Z Z Z Z Z Z Z Z Z Z

>  <atom.prop.IS_HEAVY_ATOM>  (2784) 
1 0 0 0 1 0 0 1 0 0 0 1 0 0 0 1 1 0 1 0 1 0 1 0 1 0

>  <DIFUSE_FUNC_ATOM>  (2784) 
n/a

>  <FINAL_SINGLE_POINT_ENERGY>  (2784) 
0

>  <NONCOV_INTER_ENERGY_QM>  (2784) 
0

>  <FF_Energy>  (2784) 
-7.92

>  <QM_Energy>  (2784) 
-14.78

>  <source>  (2784) 
ETAM_MBZ

>  <Index>  (2784) 
29826

$$$$
ETAM-pdb3zw5-A-LYS-67:MBZ-pdb3zw5-A-PHE-54
     RDKit          3D

 26 25  0  0  0  0  0  0  0  0999 V2000
   -2.4564   -1.8536    5.0324 C   0  0  0  0  0  0  0  0  0  0  0  0
   -2.8873   -2.0177    4.1461 H   0  0  0  0  0  0  0  0  0  0  0  0
   -2.6481   -0.9214    5.3324 H   0  0  0  0  0  0  0  0  0  0  0  0
   -2.8697   -2.5515    5.7605 H   0  0  0  0  0  0  0  0  0  0  0  0
   -0.9544   -2.0099    4.8749 C   0  0  0  0  0  0  0  0  0  0  0  0
   -0.4946   -1.5534    5.6393 H   0  0  0  0  0  0  0  0  0  0  0  0
   -0.7212   -2.9842    4.8876 H   0  0  0  0  0  0  0  0  0  0  0  0
   -0.4668   -1.4122    3.5884 N   0  0  0  0  0  4  0  0  0  0  0  0
    0.5235   -1.5223    3.5328 H   0  0  0  0  0  0  0  0  0  0  0  0
   -0.9044   -1.8819    2.8243 H   0  0  0  0  0  0  0  0  0  0  0  0
   -0.7020   -0.4428    3.5706 H   0  0  0  0  0  0  0  0  0  0  0  0
    0.0035    2.9161   -0.0068 C   0  0  0  0  0  0  0  0  0  0  0  0
    0.9091    3.2192    0.2888 H   0  0  0  0  0  0  0  0  0  0  0  0
   -0.6830    3.2219    0.6525 H   0  0  0  0  0  0  0  0  0  0  0  0
   -0.2118    3.4155   -0.9513 H   0  0  0  0  0  0  0  0  0  0  0  0
   -0.0003    1.4045   -0.0124 C   0  0  0  0  0  0  0  0  0  0  0  0
   -1.1952    0.6945    0.0161 C   0  0  0  0  0  0  0  0  0  0  0  0
   -2.0623    1.1801    0.0475 H   0  0  0  0  0  0  0  0  0  0  0  0
   -1.1946   -0.6983   -0.0000 C   0  0  0  0  0  0  0  0  0  0  0  0
   -2.0736   -1.1910   -0.0066 H   0  0  0  0  0  0  0  0  0  0  0  0
    0.0017   -1.3880   -0.0055 C   0  0  0  0  0  0  0  0  0  0  0  0
   -0.0056   -2.3932   -0.0140 H   0  0  0  0  0  0  0  0  0  0  0  0
    1.1946   -0.7031   -0.0000 C   0  0  0  0  0  0  0  0  0  0  0  0
    2.0786   -1.1976    0.0046 H   0  0  0  0  0  0  0  0  0  0  0  0
    1.1938    0.6904    0.0017 C   0  0  0  0  0  0  0  0  0  0  0  0
    2.0640    1.1831    0.0118 H   0  0  0  0  0  0  0  0  0  0  0  0
  1  5  1  0
  5  8  1  0
  1  2  1  0
  1  3  1  0
  1  4  1  0
  5  6  1  0
  5  7  1  0
  8  9  1  0
  8 10  1  0
  8 11  1  0
 12 16  1  0
 16 17  2  0
 17 19  1  0
 19 21  2  0
 21 23  1  0
 23 25  2  0
 25 16  1  0
 12 13  1  0
 12 14  1  0
 12 15  1  0
 17 18  1  0
 19 20  1  0
 21 22  1  0
 23 24  1  0
 25 26  1  0
M  CHG  1   8   1
M  END
>  <PDB_ID>  (2785) 
pdb3zw5

>  <RESIDUE_NAME>  (2785) 
LYS   PHE

>  <FRAG_NAME>  (2785) 
ETAM   MBZ

>  <FRAG_ATOM_NUM>  (2785) 
fragi: 11  fragj: 15

>  <atom.prop.CHAIN_ID>  (2785) 
A A A A A A A A A A A Z Z Z Z Z Z Z Z Z Z Z Z Z Z Z

>  <atom.prop.IS_HEAVY_ATOM>  (2785) 
1 0 0 0 1 0 0 1 0 0 0 1 0 0 0 1 1 0 1 0 1 0 1 0 1 0

>  <DIFUSE_FUNC_ATOM>  (2785) 
n/a

>  <FINAL_SINGLE_POINT_ENERGY>  (2785) 
0

>  <NONCOV_INTER_ENERGY_QM>  (2785) 
0

>  <FF_Energy>  (2785) 
-5.19

>  <QM_Energy>  (2785) 
-10.33

>  <source>  (2785) 
ETAM_MBZ

>  <Index>  (2785) 
29828

$$$$
ETAM-pdb3zvk-C-LYS-50:MBZ-pdb3zvk-G-PHE-62
     RDKit          3D

 26 25  0  0  0  0  0  0  0  0999 V2000
   -4.1016    0.1465   -4.7842 C   0  0  0  0  0  0  0  0  0  0  0  0
   -5.1086    0.2514   -4.7808 H   0  0  0  0  0  0  0  0  0  0  0  0
   -3.8916   -0.8021   -4.5002 H   0  0  0  0  0  0  0  0  0  0  0  0
   -3.7361    0.2996   -5.7996 H   0  0  0  0  0  0  0  0  0  0  0  0
   -3.5253    1.0886   -3.7461 C   0  0  0  0  0  0  0  0  0  0  0  0
   -3.6418    2.0375   -4.0656 H   0  0  0  0  0  0  0  0  0  0  0  0
   -4.0389    0.9811   -2.8858 H   0  0  0  0  0  0  0  0  0  0  0  0
   -2.0835    0.8391   -3.4837 N   0  0  0  0  0  4  0  0  0  0  0  0
   -1.9003    0.9436   -2.5065 H   0  0  0  0  0  0  0  0  0  0  0  0
   -1.8495   -0.0901   -3.7696 H   0  0  0  0  0  0  0  0  0  0  0  0
   -1.5337    1.4957   -3.9992 H   0  0  0  0  0  0  0  0  0  0  0  0
    0.0023    2.9113    0.0335 C   0  0  0  0  0  0  0  0  0  0  0  0
    0.9234    3.2117    0.2641 H   0  0  0  0  0  0  0  0  0  0  0  0
   -0.6382    3.1988    0.7408 H   0  0  0  0  0  0  0  0  0  0  0  0
   -0.2830    3.4208   -0.8869 H   0  0  0  0  0  0  0  0  0  0  0  0
    0.0003    1.4065   -0.0133 C   0  0  0  0  0  0  0  0  0  0  0  0
   -1.1944    0.6932    0.0145 C   0  0  0  0  0  0  0  0  0  0  0  0
   -2.0621    1.1791    0.0442 H   0  0  0  0  0  0  0  0  0  0  0  0
   -1.1949   -0.7004    0.0000 C   0  0  0  0  0  0  0  0  0  0  0  0
   -2.0737   -1.1920   -0.0151 H   0  0  0  0  0  0  0  0  0  0  0  0
    0.0011   -1.3924    0.0081 C   0  0  0  0  0  0  0  0  0  0  0  0
   -0.0051   -2.3950    0.0195 H   0  0  0  0  0  0  0  0  0  0  0  0
    1.1949   -0.7035   -0.0000 C   0  0  0  0  0  0  0  0  0  0  0  0
    2.0792   -1.1951    0.0023 H   0  0  0  0  0  0  0  0  0  0  0  0
    1.1930    0.6966   -0.0093 C   0  0  0  0  0  0  0  0  0  0  0  0
    2.0638    1.1858   -0.0138 H   0  0  0  0  0  0  0  0  0  0  0  0
  1  5  1  0
  5  8  1  0
  1  2  1  0
  1  3  1  0
  1  4  1  0
  5  6  1  0
  5  7  1  0
  8  9  1  0
  8 10  1  0
  8 11  1  0
 12 16  1  0
 16 17  2  0
 17 19  1  0
 19 21  2  0
 21 23  1  0
 23 25  2  0
 25 16  1  0
 12 13  1  0
 12 14  1  0
 12 15  1  0
 17 18  1  0
 19 20  1  0
 21 22  1  0
 23 24  1  0
 25 26  1  0
M  CHG  1   8   1
M  END
>  <PDB_ID>  (2786) 
pdb3zvk

>  <RESIDUE_NAME>  (2786) 
LYS   PHE

>  <FRAG_NAME>  (2786) 
ETAM   MBZ

>  <FRAG_ATOM_NUM>  (2786) 
fragi: 11  fragj: 15

>  <atom.prop.CHAIN_ID>  (2786) 
A A A A A A A A A A A Z Z Z Z Z Z Z Z Z Z Z Z Z Z Z

>  <atom.prop.IS_HEAVY_ATOM>  (2786) 
1 0 0 0 1 0 0 1 0 0 0 1 0 0 0 1 1 0 1 0 1 0 1 0 1 0

>  <DIFUSE_FUNC_ATOM>  (2786) 
n/a

>  <FINAL_SINGLE_POINT_ENERGY>  (2786) 
0

>  <NONCOV_INTER_ENERGY_QM>  (2786) 
0

>  <FF_Energy>  (2786) 
-4.79

>  <QM_Energy>  (2786) 
-10.11

>  <source>  (2786) 
ETAM_MBZ

>  <Index>  (2786) 
29829

$$$$
ETAM-pdb3zwl-D-LYS-5:MBZ-pdb3zwl-D-PHE-316
     RDKit          3D

 26 25  0  0  0  0  0  0  0  0999 V2000
   -1.1961    1.0097    4.5583 C   0  0  0  0  0  0  0  0  0  0  0  0
   -1.6417    1.0866    5.4496 H   0  0  0  0  0  0  0  0  0  0  0  0
   -1.8106    0.5549    3.9144 H   0  0  0  0  0  0  0  0  0  0  0  0
   -1.0219    2.0207    4.1899 H   0  0  0  0  0  0  0  0  0  0  0  0
    0.0731    0.1864    4.7040 C   0  0  0  0  0  0  0  0  0  0  0  0
    0.8643    0.7731    4.5522 H   0  0  0  0  0  0  0  0  0  0  0  0
    0.1078   -0.2038    5.6205 H   0  0  0  0  0  0  0  0  0  0  0  0
    0.0902   -0.9261    3.6996 N   0  0  0  0  0  4  0  0  0  0  0  0
    0.0333   -0.5381    2.7816 H   0  0  0  0  0  0  0  0  0  0  0  0
    0.9392   -1.4417    3.7976 H   0  0  0  0  0  0  0  0  0  0  0  0
   -0.6910   -1.5251    3.8633 H   0  0  0  0  0  0  0  0  0  0  0  0
   -0.0130    2.9407   -0.0224 C   0  0  0  0  0  0  0  0  0  0  0  0
    0.9212    3.2448   -0.0687 H   0  0  0  0  0  0  0  0  0  0  0  0
   -0.4682    3.2563    0.7902 H   0  0  0  0  0  0  0  0  0  0  0  0
   -0.5404    3.3570   -0.8807 H   0  0  0  0  0  0  0  0  0  0  0  0
   -0.0035    1.4094    0.0130 C   0  0  0  0  0  0  0  0  0  0  0  0
   -1.2110    0.7072    0.0135 C   0  0  0  0  0  0  0  0  0  0  0  0
   -2.0743    1.1977    0.0219 H   0  0  0  0  0  0  0  0  0  0  0  0
   -1.2323   -0.7053    0.0000 C   0  0  0  0  0  0  0  0  0  0  0  0
   -2.1009   -1.1888    0.0044 H   0  0  0  0  0  0  0  0  0  0  0  0
   -0.0102   -1.4157   -0.0179 C   0  0  0  0  0  0  0  0  0  0  0  0
   -0.0043   -2.4014   -0.0433 H   0  0  0  0  0  0  0  0  0  0  0  0
    1.2323   -0.6955   -0.0000 C   0  0  0  0  0  0  0  0  0  0  0  0
    2.0955   -1.2051    0.0204 H   0  0  0  0  0  0  0  0  0  0  0  0
    1.2247    0.6999   -0.0087 C   0  0  0  0  0  0  0  0  0  0  0  0
    2.0761    1.2073   -0.0308 H   0  0  0  0  0  0  0  0  0  0  0  0
  1  5  1  0
  5  8  1  0
  1  2  1  0
  1  3  1  0
  1  4  1  0
  5  6  1  0
  5  7  1  0
  8  9  1  0
  8 10  1  0
  8 11  1  0
 12 16  1  0
 16 17  2  0
 17 19  1  0
 19 21  2  0
 21 23  1  0
 23 25  2  0
 25 16  1  0
 12 13  1  0
 12 14  1  0
 12 15  1  0
 17 18  1  0
 19 20  1  0
 21 22  1  0
 23 24  1  0
 25 26  1  0
M  CHG  1   8   1
M  END
>  <PDB_ID>  (2787) 
pdb3zwl

>  <RESIDUE_NAME>  (2787) 
LYS   PHE

>  <FRAG_NAME>  (2787) 
ETAM   MBZ

>  <FRAG_ATOM_NUM>  (2787) 
fragi: 11  fragj: 15

>  <atom.prop.CHAIN_ID>  (2787) 
A A A A A A A A A A A Z Z Z Z Z Z Z Z Z Z Z Z Z Z Z

>  <atom.prop.IS_HEAVY_ATOM>  (2787) 
1 0 0 0 1 0 0 1 0 0 0 1 0 0 0 1 1 0 1 0 1 0 1 0 1 0

>  <DIFUSE_FUNC_ATOM>  (2787) 
n/a

>  <FINAL_SINGLE_POINT_ENERGY>  (2787) 
0

>  <NONCOV_INTER_ENERGY_QM>  (2787) 
0

>  <FF_Energy>  (2787) 
-6.91

>  <QM_Energy>  (2787) 
-12.89

>  <source>  (2787) 
ETAM_MBZ

>  <Index>  (2787) 
29832

$$$$
ETAM-pdb3zl5-G-LYS-143:MBZ-pdb3zl5-G-PHE-123
     RDKit          3D

 26 25  0  0  0  0  0  0  0  0999 V2000
    2.2660    0.7572    4.6565 C   0  0  0  0  0  0  0  0  0  0  0  0
    2.6737   -0.1395    4.7994 H   0  0  0  0  0  0  0  0  0  0  0  0
    2.3623    1.3138    5.4763 H   0  0  0  0  0  0  0  0  0  0  0  0
    2.7806    1.2507    3.8320 H   0  0  0  0  0  0  0  0  0  0  0  0
    0.7797    0.5732    4.3691 C   0  0  0  0  0  0  0  0  0  0  0  0
    0.2760    0.6076    5.2395 H   0  0  0  0  0  0  0  0  0  0  0  0
    0.4656    1.3356    3.7908 H   0  0  0  0  0  0  0  0  0  0  0  0
    0.4821   -0.7147    3.6833 N   0  0  0  0  0  4  0  0  0  0  0  0
    0.4531   -1.4507    4.3592 H   0  0  0  0  0  0  0  0  0  0  0  0
   -0.4019   -0.6475    3.2227 H   0  0  0  0  0  0  0  0  0  0  0  0
    1.1961   -0.9048    3.0108 H   0  0  0  0  0  0  0  0  0  0  0  0
    0.0085    2.8894    0.0017 C   0  0  0  0  0  0  0  0  0  0  0  0
   -0.7789    3.2020   -0.5103 H   0  0  0  0  0  0  0  0  0  0  0  0
    0.8513    3.1943   -0.4170 H   0  0  0  0  0  0  0  0  0  0  0  0
   -0.0461    3.3284    0.9979 H   0  0  0  0  0  0  0  0  0  0  0  0
    0.0013    1.3925   -0.0011 C   0  0  0  0  0  0  0  0  0  0  0  0
   -1.1901    0.6901    0.0010 C   0  0  0  0  0  0  0  0  0  0  0  0
   -2.0579    1.1822    0.0015 H   0  0  0  0  0  0  0  0  0  0  0  0
   -1.1933   -0.6916   -0.0000 C   0  0  0  0  0  0  0  0  0  0  0  0
   -2.0739   -1.1870    0.0004 H   0  0  0  0  0  0  0  0  0  0  0  0
   -0.0016   -1.3837    0.0003 C   0  0  0  0  0  0  0  0  0  0  0  0
   -0.0059   -2.3855    0.0000 H   0  0  0  0  0  0  0  0  0  0  0  0
    1.1933   -0.6934    0.0000 C   0  0  0  0  0  0  0  0  0  0  0  0
    2.0761   -1.1946    0.0012 H   0  0  0  0  0  0  0  0  0  0  0  0
    1.1904    0.6861   -0.0002 C   0  0  0  0  0  0  0  0  0  0  0  0
    2.0612    1.1846   -0.0010 H   0  0  0  0  0  0  0  0  0  0  0  0
  1  5  1  0
  5  8  1  0
  1  2  1  0
  1  3  1  0
  1  4  1  0
  5  6  1  0
  5  7  1  0
  8  9  1  0
  8 10  1  0
  8 11  1  0
 12 16  1  0
 16 17  2  0
 17 19  1  0
 19 21  2  0
 21 23  1  0
 23 25  2  0
 25 16  1  0
 12 13  1  0
 12 14  1  0
 12 15  1  0
 17 18  1  0
 19 20  1  0
 21 22  1  0
 23 24  1  0
 25 26  1  0
M  CHG  1   8   1
M  END
>  <PDB_ID>  (2788) 
pdb3zl5

>  <RESIDUE_NAME>  (2788) 
LYS   PHE

>  <FRAG_NAME>  (2788) 
ETAM   MBZ

>  <FRAG_ATOM_NUM>  (2788) 
fragi: 11  fragj: 15

>  <atom.prop.CHAIN_ID>  (2788) 
A A A A A A A A A A A Z Z Z Z Z Z Z Z Z Z Z Z Z Z Z

>  <atom.prop.IS_HEAVY_ATOM>  (2788) 
1 0 0 0 1 0 0 1 0 0 0 1 0 0 0 1 1 0 1 0 1 0 1 0 1 0

>  <DIFUSE_FUNC_ATOM>  (2788) 
n/a

>  <FINAL_SINGLE_POINT_ENERGY>  (2788) 
0

>  <NONCOV_INTER_ENERGY_QM>  (2788) 
0

>  <FF_Energy>  (2788) 
-6.66

>  <QM_Energy>  (2788) 
-11.89

>  <source>  (2788) 
ETAM_MBZ

>  <Index>  (2788) 
29843

$$$$
ETAM-pdb3zw5-B-LYS-67:MBZ-pdb3zw5-B-PHE-54
     RDKit          3D

 26 25  0  0  0  0  0  0  0  0999 V2000
   -2.5228   -1.9817    5.0115 C   0  0  0  0  0  0  0  0  0  0  0  0
   -2.9707   -2.1346    4.1257 H   0  0  0  0  0  0  0  0  0  0  0  0
   -2.7266   -1.0495    5.3223 H   0  0  0  0  0  0  0  0  0  0  0  0
   -2.9326   -2.6874    5.7342 H   0  0  0  0  0  0  0  0  0  0  0  0
   -1.0377   -2.1197    4.8344 C   0  0  0  0  0  0  0  0  0  0  0  0
   -0.5648   -1.6658    5.5906 H   0  0  0  0  0  0  0  0  0  0  0  0
   -0.7884   -3.0891    4.8216 H   0  0  0  0  0  0  0  0  0  0  0  0
   -0.5925   -1.4938    3.5456 N   0  0  0  0  0  4  0  0  0  0  0  0
   -0.4272   -0.5216    3.6962 H   0  0  0  0  0  0  0  0  0  0  0  0
    0.2469   -1.9385    3.2409 H   0  0  0  0  0  0  0  0  0  0  0  0
   -1.3085   -1.6141    2.8614 H   0  0  0  0  0  0  0  0  0  0  0  0
   -0.0003    2.9242    0.0010 C   0  0  0  0  0  0  0  0  0  0  0  0
    0.9049    3.2262    0.3066 H   0  0  0  0  0  0  0  0  0  0  0  0
   -0.6875    3.2230    0.6653 H   0  0  0  0  0  0  0  0  0  0  0  0
   -0.2126    3.4377   -0.9367 H   0  0  0  0  0  0  0  0  0  0  0  0
   -0.0007    1.4090   -0.0116 C   0  0  0  0  0  0  0  0  0  0  0  0
   -1.1960    0.6942    0.0062 C   0  0  0  0  0  0  0  0  0  0  0  0
   -2.0646    1.1766    0.0227 H   0  0  0  0  0  0  0  0  0  0  0  0
   -1.1946   -0.7056   -0.0000 C   0  0  0  0  0  0  0  0  0  0  0  0
   -2.0736   -1.1961   -0.0040 H   0  0  0  0  0  0  0  0  0  0  0  0
    0.0021   -1.3928    0.0015 C   0  0  0  0  0  0  0  0  0  0  0  0
   -0.0006   -2.3964    0.0032 H   0  0  0  0  0  0  0  0  0  0  0  0
    1.1946   -0.7013   -0.0000 C   0  0  0  0  0  0  0  0  0  0  0  0
    2.0803   -1.1945   -0.0031 H   0  0  0  0  0  0  0  0  0  0  0  0
    1.1946    0.6965    0.0039 C   0  0  0  0  0  0  0  0  0  0  0  0
    2.0644    1.1868    0.0176 H   0  0  0  0  0  0  0  0  0  0  0  0
  1  5  1  0
  5  8  1  0
  1  2  1  0
  1  3  1  0
  1  4  1  0
  5  6  1  0
  5  7  1  0
  8  9  1  0
  8 10  1  0
  8 11  1  0
 12 16  1  0
 16 17  2  0
 17 19  1  0
 19 21  2  0
 21 23  1  0
 23 25  2  0
 25 16  1  0
 12 13  1  0
 12 14  1  0
 12 15  1  0
 17 18  1  0
 19 20  1  0
 21 22  1  0
 23 24  1  0
 25 26  1  0
M  CHG  1   8   1
M  END
>  <PDB_ID>  (2789) 
pdb3zw5

>  <RESIDUE_NAME>  (2789) 
LYS   PHE

>  <FRAG_NAME>  (2789) 
ETAM   MBZ

>  <FRAG_ATOM_NUM>  (2789) 
fragi: 11  fragj: 15

>  <atom.prop.CHAIN_ID>  (2789) 
A A A A A A A A A A A Z Z Z Z Z Z Z Z Z Z Z Z Z Z Z

>  <atom.prop.IS_HEAVY_ATOM>  (2789) 
1 0 0 0 1 0 0 1 0 0 0 1 0 0 0 1 1 0 1 0 1 0 1 0 1 0

>  <DIFUSE_FUNC_ATOM>  (2789) 
n/a

>  <FINAL_SINGLE_POINT_ENERGY>  (2789) 
0

>  <NONCOV_INTER_ENERGY_QM>  (2789) 
0

>  <FF_Energy>  (2789) 
-5.02

>  <QM_Energy>  (2789) 
-10.23

>  <source>  (2789) 
ETAM_MBZ

>  <Index>  (2789) 
29853

$$$$
ETAM-pdb4z0y-D-LYS-339:MBZ-pdb4z0y-D-PHE-45
     RDKit          3D

 26 25  0  0  0  0  0  0  0  0999 V2000
   -1.9675   -1.2725    4.2200 C   0  0  0  0  0  0  0  0  0  0  0  0
   -1.8189   -1.5865    5.1255 H   0  0  0  0  0  0  0  0  0  0  0  0
   -2.2388   -2.0108    3.6525 H   0  0  0  0  0  0  0  0  0  0  0  0
   -2.7564   -0.5204    4.2274 H   0  0  0  0  0  0  0  0  0  0  0  0
   -0.6544   -0.7274    3.6879 C   0  0  0  0  0  0  0  0  0  0  0  0
   -0.7699   -0.4511    2.7658 H   0  0  0  0  0  0  0  0  0  0  0  0
   -0.3736    0.0241    4.2338 H   0  0  0  0  0  0  0  0  0  0  0  0
    0.4156   -1.7725    3.7376 N   0  0  0  0  0  4  0  0  0  0  0  0
    1.1797   -1.4408    3.4242 H   0  0  0  0  0  0  0  0  0  0  0  0
    0.5401   -2.0408    4.5770 H   0  0  0  0  0  0  0  0  0  0  0  0
    0.1794   -2.4734    3.2424 H   0  0  0  0  0  0  0  0  0  0  0  0
   -0.0126    2.8787   -0.0354 C   0  0  0  0  0  0  0  0  0  0  0  0
    0.8250    3.1972    0.3348 H   0  0  0  0  0  0  0  0  0  0  0  0
   -0.7557    3.1926    0.5035 H   0  0  0  0  0  0  0  0  0  0  0  0
   -0.1226    3.2611   -1.0502 H   0  0  0  0  0  0  0  0  0  0  0  0
   -0.0033    1.3871    0.0105 C   0  0  0  0  0  0  0  0  0  0  0  0
   -1.1912    0.6854   -0.0011 C   0  0  0  0  0  0  0  0  0  0  0  0
   -1.9990    1.1473   -0.0049 H   0  0  0  0  0  0  0  0  0  0  0  0
   -1.1924   -0.6890   -0.0000 C   0  0  0  0  0  0  0  0  0  0  0  0
   -1.9976   -1.1546    0.0054 H   0  0  0  0  0  0  0  0  0  0  0  0
    0.0051   -1.3760   -0.0016 C   0  0  0  0  0  0  0  0  0  0  0  0
    0.0040   -2.3057    0.0093 H   0  0  0  0  0  0  0  0  0  0  0  0
    1.1924   -0.6942   -0.0000 C   0  0  0  0  0  0  0  0  0  0  0  0
    1.9976   -1.1592   -0.0008 H   0  0  0  0  0  0  0  0  0  0  0  0
    1.1894    0.6866   -0.0078 C   0  0  0  0  0  0  0  0  0  0  0  0
    1.9960    1.1488   -0.0110 H   0  0  0  0  0  0  0  0  0  0  0  0
  1  5  1  0
  5  8  1  0
  1  2  1  0
  1  3  1  0
  1  4  1  0
  5  6  1  0
  5  7  1  0
  8  9  1  0
  8 10  1  0
  8 11  1  0
 12 16  1  0
 16 17  2  0
 17 19  1  0
 19 21  2  0
 21 23  1  0
 23 25  2  0
 25 16  1  0
 12 13  1  0
 12 14  1  0
 12 15  1  0
 17 18  1  0
 19 20  1  0
 21 22  1  0
 23 24  1  0
 25 26  1  0
M  CHG  1   8   1
M  END
>  <PDB_ID>  (2790) 
pdb4z0y

>  <RESIDUE_NAME>  (2790) 
LYS   PHE

>  <FRAG_NAME>  (2790) 
ETAM   MBZ

>  <FRAG_ATOM_NUM>  (2790) 
fragi: 11  fragj: 15

>  <atom.prop.CHAIN_ID>  (2790) 
A A A A A A A A A A A Z Z Z Z Z Z Z Z Z Z Z Z Z Z Z

>  <atom.prop.IS_HEAVY_ATOM>  (2790) 
1 0 0 0 1 0 0 1 0 0 0 1 0 0 0 1 1 0 1 0 1 0 1 0 1 0

>  <DIFUSE_FUNC_ATOM>  (2790) 
n/a

>  <FINAL_SINGLE_POINT_ENERGY>  (2790) 
0

>  <NONCOV_INTER_ENERGY_QM>  (2790) 
0

>  <FF_Energy>  (2790) 
-5.11

>  <QM_Energy>  (2790) 
-10.41

>  <source>  (2790) 
ETAM_MBZ

>  <Index>  (2790) 
29866

$$$$
ETAM-pdb4ys0-A-LYS-411:MBZ-pdb4ys0-A-PHE-50
     RDKit          3D

 26 25  0  0  0  0  0  0  0  0999 V2000
   -1.6976   -1.7490    4.2393 C   0  0  0  0  0  0  0  0  0  0  0  0
   -2.1757   -1.4734    5.0705 H   0  0  0  0  0  0  0  0  0  0  0  0
   -0.9505   -1.1159    4.0503 H   0  0  0  0  0  0  0  0  0  0  0  0
   -1.2713   -2.7383    4.4056 H   0  0  0  0  0  0  0  0  0  0  0  0
   -2.6690   -1.7275    3.0794 C   0  0  0  0  0  0  0  0  0  0  0  0
   -2.1931   -1.9959    2.2431 H   0  0  0  0  0  0  0  0  0  0  0  0
   -3.4149   -2.3674    3.2596 H   0  0  0  0  0  0  0  0  0  0  0  0
   -3.2464   -0.3541    2.8881 N   0  0  0  0  0  4  0  0  0  0  0  0
   -4.0368   -0.4151    2.2827 H   0  0  0  0  0  0  0  0  0  0  0  0
   -3.5249    0.0072    3.7748 H   0  0  0  0  0  0  0  0  0  0  0  0
   -2.5520    0.2359    2.4825 H   0  0  0  0  0  0  0  0  0  0  0  0
    0.0187    2.9184    0.0175 C   0  0  0  0  0  0  0  0  0  0  0  0
    0.9404    3.2125   -0.1910 H   0  0  0  0  0  0  0  0  0  0  0  0
   -0.2539    3.2119    0.9233 H   0  0  0  0  0  0  0  0  0  0  0  0
   -0.6526    3.3873   -0.7019 H   0  0  0  0  0  0  0  0  0  0  0  0
    0.0012    1.4057   -0.0024 C   0  0  0  0  0  0  0  0  0  0  0  0
   -1.1947    0.7032   -0.0008 C   0  0  0  0  0  0  0  0  0  0  0  0
   -2.0607    1.1896   -0.0016 H   0  0  0  0  0  0  0  0  0  0  0  0
   -1.1956   -0.6902   -0.0000 C   0  0  0  0  0  0  0  0  0  0  0  0
   -2.0769   -1.1819    0.0031 H   0  0  0  0  0  0  0  0  0  0  0  0
    0.0001   -1.3941   -0.0020 C   0  0  0  0  0  0  0  0  0  0  0  0
   -0.0121   -2.3928   -0.0055 H   0  0  0  0  0  0  0  0  0  0  0  0
    1.1956   -0.7057   -0.0000 C   0  0  0  0  0  0  0  0  0  0  0  0
    2.0778   -1.2043   -0.0014 H   0  0  0  0  0  0  0  0  0  0  0  0
    1.1934    0.6811    0.0052 C   0  0  0  0  0  0  0  0  0  0  0  0
    2.0665    1.1778    0.0140 H   0  0  0  0  0  0  0  0  0  0  0  0
  1  5  1  0
  5  8  1  0
  1  2  1  0
  1  3  1  0
  1  4  1  0
  5  6  1  0
  5  7  1  0
  8  9  1  0
  8 10  1  0
  8 11  1  0
 12 16  1  0
 16 17  2  0
 17 19  1  0
 19 21  2  0
 21 23  1  0
 23 25  2  0
 25 16  1  0
 12 13  1  0
 12 14  1  0
 12 15  1  0
 17 18  1  0
 19 20  1  0
 21 22  1  0
 23 24  1  0
 25 26  1  0
M  CHG  1   8   1
M  END
>  <PDB_ID>  (2791) 
pdb4ys0

>  <RESIDUE_NAME>  (2791) 
LYS   PHE

>  <FRAG_NAME>  (2791) 
ETAM   MBZ

>  <FRAG_ATOM_NUM>  (2791) 
fragi: 11  fragj: 15

>  <atom.prop.CHAIN_ID>  (2791) 
A A A A A A A A A A A Z Z Z Z Z Z Z Z Z Z Z Z Z Z Z

>  <atom.prop.IS_HEAVY_ATOM>  (2791) 
1 0 0 0 1 0 0 1 0 0 0 1 0 0 0 1 1 0 1 0 1 0 1 0 1 0

>  <DIFUSE_FUNC_ATOM>  (2791) 
n/a

>  <FINAL_SINGLE_POINT_ENERGY>  (2791) 
0

>  <NONCOV_INTER_ENERGY_QM>  (2791) 
0

>  <FF_Energy>  (2791) 
-2.93

>  <QM_Energy>  (2791) 
-8.72

>  <source>  (2791) 
ETAM_MBZ

>  <Index>  (2791) 
29877

$$$$
ETAM-pdb3zyz-A-LYS-119:MBZ-pdb3zyz-A-PHE-551
     RDKit          3D

 26 25  0  0  0  0  0  0  0  0999 V2000
    2.2417   -0.8728    4.0536 C   0  0  0  0  0  0  0  0  0  0  0  0
    2.3105   -0.0621    4.6363 H   0  0  0  0  0  0  0  0  0  0  0  0
    2.7619   -0.7201    3.2119 H   0  0  0  0  0  0  0  0  0  0  0  0
    2.6670   -1.7254    4.5830 H   0  0  0  0  0  0  0  0  0  0  0  0
    0.8006   -1.0912    3.6978 C   0  0  0  0  0  0  0  0  0  0  0  0
    0.7318   -1.8173    3.0094 H   0  0  0  0  0  0  0  0  0  0  0  0
    0.2914   -1.3684    4.5162 H   0  0  0  0  0  0  0  0  0  0  0  0
    0.1872    0.1525    3.1486 N   0  0  0  0  0  4  0  0  0  0  0  0
    0.0578    0.8115    3.8881 H   0  0  0  0  0  0  0  0  0  0  0  0
    0.7931    0.5406    2.4554 H   0  0  0  0  0  0  0  0  0  0  0  0
   -0.6956   -0.0693    2.7372 H   0  0  0  0  0  0  0  0  0  0  0  0
    0.0209    2.9115   -0.0294 C   0  0  0  0  0  0  0  0  0  0  0  0
   -0.4468    3.2052   -0.8527 H   0  0  0  0  0  0  0  0  0  0  0  0
    0.9672    3.2078   -0.0359 H   0  0  0  0  0  0  0  0  0  0  0  0
   -0.4683    3.3950    0.8162 H   0  0  0  0  0  0  0  0  0  0  0  0
    0.0025    1.4079    0.0066 C   0  0  0  0  0  0  0  0  0  0  0  0
   -1.1962    0.7024   -0.0154 C   0  0  0  0  0  0  0  0  0  0  0  0
   -2.0626    1.1891   -0.0437 H   0  0  0  0  0  0  0  0  0  0  0  0
   -1.2092   -0.7032   -0.0000 C   0  0  0  0  0  0  0  0  0  0  0  0
   -2.0872   -1.1856    0.0056 H   0  0  0  0  0  0  0  0  0  0  0  0
   -0.0076   -1.4032    0.0092 C   0  0  0  0  0  0  0  0  0  0  0  0
   -0.0045   -2.3971    0.0221 H   0  0  0  0  0  0  0  0  0  0  0  0
    1.2092   -0.6967   -0.0000 C   0  0  0  0  0  0  0  0  0  0  0  0
    2.0831   -1.1998   -0.0045 H   0  0  0  0  0  0  0  0  0  0  0  0
    1.2013    0.6928   -0.0004 C   0  0  0  0  0  0  0  0  0  0  0  0
    2.0702    1.1923   -0.0065 H   0  0  0  0  0  0  0  0  0  0  0  0
  1  5  1  0
  5  8  1  0
  1  2  1  0
  1  3  1  0
  1  4  1  0
  5  6  1  0
  5  7  1  0
  8  9  1  0
  8 10  1  0
  8 11  1  0
 12 16  1  0
 16 17  2  0
 17 19  1  0
 19 21  2  0
 21 23  1  0
 23 25  2  0
 25 16  1  0
 12 13  1  0
 12 14  1  0
 12 15  1  0
 17 18  1  0
 19 20  1  0
 21 22  1  0
 23 24  1  0
 25 26  1  0
M  CHG  1   8   1
M  END
>  <PDB_ID>  (2792) 
pdb3zyz

>  <RESIDUE_NAME>  (2792) 
LYS   PHE

>  <FRAG_NAME>  (2792) 
ETAM   MBZ

>  <FRAG_ATOM_NUM>  (2792) 
fragi: 11  fragj: 15

>  <atom.prop.CHAIN_ID>  (2792) 
A A A A A A A A A A A Z Z Z Z Z Z Z Z Z Z Z Z Z Z Z

>  <atom.prop.IS_HEAVY_ATOM>  (2792) 
1 0 0 0 1 0 0 1 0 0 0 1 0 0 0 1 1 0 1 0 1 0 1 0 1 0

>  <DIFUSE_FUNC_ATOM>  (2792) 
n/a

>  <FINAL_SINGLE_POINT_ENERGY>  (2792) 
0

>  <NONCOV_INTER_ENERGY_QM>  (2792) 
0

>  <FF_Energy>  (2792) 
-9.72

>  <QM_Energy>  (2792) 
-17.99

>  <source>  (2792) 
ETAM_MBZ

>  <Index>  (2792) 
29881

$$$$
ETAM-pdb4z86-A-LYS-47:MBZ-pdb4z86-A-PHE-84
     RDKit          3D

 26 25  0  0  0  0  0  0  0  0999 V2000
   -2.0785   -0.3763   -4.6511 C   0  0  0  0  0  0  0  0  0  0  0  0
   -2.0735    0.2539   -3.8900 H   0  0  0  0  0  0  0  0  0  0  0  0
   -2.9303   -0.8758   -4.6998 H   0  0  0  0  0  0  0  0  0  0  0  0
   -1.9747    0.2033   -5.5684 H   0  0  0  0  0  0  0  0  0  0  0  0
   -0.9233   -1.3756   -4.4796 C   0  0  0  0  0  0  0  0  0  0  0  0
   -0.8915   -1.9790   -5.3115 H   0  0  0  0  0  0  0  0  0  0  0  0
   -0.0381   -0.8528   -4.4934 H   0  0  0  0  0  0  0  0  0  0  0  0
   -0.9155   -2.2719   -3.2517 N   0  0  0  0  0  4  0  0  0  0  0  0
   -0.2241   -1.9367   -2.6203 H   0  0  0  0  0  0  0  0  0  0  0  0
   -1.8154   -2.2386   -2.8304 H   0  0  0  0  0  0  0  0  0  0  0  0
   -0.7015   -3.1992   -3.5391 H   0  0  0  0  0  0  0  0  0  0  0  0
   -0.0111    2.9340   -0.0576 C   0  0  0  0  0  0  0  0  0  0  0  0
   -0.7712    3.2170   -0.6093 H   0  0  0  0  0  0  0  0  0  0  0  0
    0.8505    3.2361   -0.4170 H   0  0  0  0  0  0  0  0  0  0  0  0
   -0.1337    3.3657    0.9357 H   0  0  0  0  0  0  0  0  0  0  0  0
    0.0065    1.3936   -0.0552 C   0  0  0  0  0  0  0  0  0  0  0  0
   -1.1693    0.6985   -0.0149 C   0  0  0  0  0  0  0  0  0  0  0  0
   -2.0447    1.1920    0.0036 H   0  0  0  0  0  0  0  0  0  0  0  0
   -1.1898   -0.6855   -0.0000 C   0  0  0  0  0  0  0  0  0  0  0  0
   -2.0720   -1.1711   -0.0415 H   0  0  0  0  0  0  0  0  0  0  0  0
   -0.0024   -1.3910    0.0732 C   0  0  0  0  0  0  0  0  0  0  0  0
   -0.0138   -2.3814    0.1764 H   0  0  0  0  0  0  0  0  0  0  0  0
    1.1898   -0.7017    0.0000 C   0  0  0  0  0  0  0  0  0  0  0  0
    2.0701   -1.1891   -0.0492 H   0  0  0  0  0  0  0  0  0  0  0  0
    1.1652    0.6861   -0.0031 C   0  0  0  0  0  0  0  0  0  0  0  0
    2.0535    1.1794    0.0340 H   0  0  0  0  0  0  0  0  0  0  0  0
  1  5  1  0
  5  8  1  0
  1  2  1  0
  1  3  1  0
  1  4  1  0
  5  6  1  0
  5  7  1  0
  8  9  1  0
  8 10  1  0
  8 11  1  0
 12 16  1  0
 16 17  2  0
 17 19  1  0
 19 21  2  0
 21 23  1  0
 23 25  2  0
 25 16  1  0
 12 13  1  0
 12 14  1  0
 12 15  1  0
 17 18  1  0
 19 20  1  0
 21 22  1  0
 23 24  1  0
 25 26  1  0
M  CHG  1   8   1
M  END
>  <PDB_ID>  (2793) 
pdb4z86

>  <RESIDUE_NAME>  (2793) 
LYS   PHE

>  <FRAG_NAME>  (2793) 
ETAM   MBZ

>  <FRAG_ATOM_NUM>  (2793) 
fragi: 11  fragj: 15

>  <atom.prop.CHAIN_ID>  (2793) 
A A A A A A A A A A A Z Z Z Z Z Z Z Z Z Z Z Z Z Z Z

>  <atom.prop.IS_HEAVY_ATOM>  (2793) 
1 0 0 0 1 0 0 1 0 0 0 1 0 0 0 1 1 0 1 0 1 0 1 0 1 0

>  <DIFUSE_FUNC_ATOM>  (2793) 
n/a

>  <FINAL_SINGLE_POINT_ENERGY>  (2793) 
0

>  <NONCOV_INTER_ENERGY_QM>  (2793) 
0

>  <FF_Energy>  (2793) 
-4.54

>  <QM_Energy>  (2793) 
-10.49

>  <source>  (2793) 
ETAM_MBZ

>  <Index>  (2793) 
29913

$$$$
ETAM-pdb4z4a-B-LYS-57:MBZ-pdb4z4a-B-PHE-33
     RDKit          3D

 26 25  0  0  0  0  0  0  0  0999 V2000
   -0.6274   -6.3937    0.1556 C   0  0  0  0  0  0  0  0  0  0  0  0
    0.2716   -6.3026    0.5792 H   0  0  0  0  0  0  0  0  0  0  0  0
   -0.6268   -7.1672   -0.4755 H   0  0  0  0  0  0  0  0  0  0  0  0
   -1.3648   -6.5788    0.9367 H   0  0  0  0  0  0  0  0  0  0  0  0
   -0.9159   -5.1200   -0.6435 C   0  0  0  0  0  0  0  0  0  0  0  0
   -1.7391   -5.2698   -1.1967 H   0  0  0  0  0  0  0  0  0  0  0  0
   -1.0870   -4.3706    0.0002 H   0  0  0  0  0  0  0  0  0  0  0  0
    0.2172   -4.7589   -1.5318 N   0  0  0  0  0  4  0  0  0  0  0  0
    0.3730   -3.7718   -1.4886 H   0  0  0  0  0  0  0  0  0  0  0  0
    1.0421   -5.2396   -1.2332 H   0  0  0  0  0  0  0  0  0  0  0  0
    0.0003   -5.0219   -2.4723 H   0  0  0  0  0  0  0  0  0  0  0  0
   -0.0033    2.9110    0.0132 C   0  0  0  0  0  0  0  0  0  0  0  0
    0.8564    3.2170    0.4009 H   0  0  0  0  0  0  0  0  0  0  0  0
   -0.7686    3.2121    0.5656 H   0  0  0  0  0  0  0  0  0  0  0  0
   -0.1043    3.3810   -0.9650 H   0  0  0  0  0  0  0  0  0  0  0  0
   -0.0009    1.4080   -0.0068 C   0  0  0  0  0  0  0  0  0  0  0  0
   -1.2009    0.6967    0.0028 C   0  0  0  0  0  0  0  0  0  0  0  0
   -2.0661    1.1847    0.0101 H   0  0  0  0  0  0  0  0  0  0  0  0
   -1.2020   -0.6974   -0.0000 C   0  0  0  0  0  0  0  0  0  0  0  0
   -2.0784   -1.1916   -0.0004 H   0  0  0  0  0  0  0  0  0  0  0  0
    0.0005   -1.3949   -0.0008 C   0  0  0  0  0  0  0  0  0  0  0  0
   -0.0066   -2.3943   -0.0020 H   0  0  0  0  0  0  0  0  0  0  0  0
    1.2020   -0.7027    0.0000 C   0  0  0  0  0  0  0  0  0  0  0  0
    2.0826   -1.2017   -0.0011 H   0  0  0  0  0  0  0  0  0  0  0  0
    1.2012    0.6902    0.0048 C   0  0  0  0  0  0  0  0  0  0  0  0
    2.0676    1.1858    0.0160 H   0  0  0  0  0  0  0  0  0  0  0  0
  1  5  1  0
  5  8  1  0
  1  2  1  0
  1  3  1  0
  1  4  1  0
  5  6  1  0
  5  7  1  0
  8  9  1  0
  8 10  1  0
  8 11  1  0
 12 16  1  0
 16 17  2  0
 17 19  1  0
 19 21  2  0
 21 23  1  0
 23 25  2  0
 25 16  1  0
 12 13  1  0
 12 14  1  0
 12 15  1  0
 17 18  1  0
 19 20  1  0
 21 22  1  0
 23 24  1  0
 25 26  1  0
M  CHG  1   8   1
M  END
>  <PDB_ID>  (2794) 
pdb4z4a

>  <RESIDUE_NAME>  (2794) 
LYS   PHE

>  <FRAG_NAME>  (2794) 
ETAM   MBZ

>  <FRAG_ATOM_NUM>  (2794) 
fragi: 11  fragj: 15

>  <atom.prop.CHAIN_ID>  (2794) 
A A A A A A A A A A A Z Z Z Z Z Z Z Z Z Z Z Z Z Z Z

>  <atom.prop.IS_HEAVY_ATOM>  (2794) 
1 0 0 0 1 0 0 1 0 0 0 1 0 0 0 1 1 0 1 0 1 0 1 0 1 0

>  <DIFUSE_FUNC_ATOM>  (2794) 
n/a

>  <FINAL_SINGLE_POINT_ENERGY>  (2794) 
0

>  <NONCOV_INTER_ENERGY_QM>  (2794) 
0

>  <FF_Energy>  (2794) 
0.7

>  <QM_Energy>  (2794) 
-4.68

>  <source>  (2794) 
ETAM_MBZ

>  <Index>  (2794) 
29917

$$$$
ETAM-pdb4zdh-B-LYS-139:MBZ-pdb4zdh-A-PHE-169
     RDKit          3D

 26 25  0  0  0  0  0  0  0  0999 V2000
    1.3914   -0.8855   -3.8092 C   0  0  0  0  0  0  0  0  0  0  0  0
    1.2334   -1.7887   -3.4200 H   0  0  0  0  0  0  0  0  0  0  0  0
    2.1745   -0.4550   -3.3698 H   0  0  0  0  0  0  0  0  0  0  0  0
    1.6051   -0.9969   -4.8722 H   0  0  0  0  0  0  0  0  0  0  0  0
    0.1574   -0.0239   -3.5545 C   0  0  0  0  0  0  0  0  0  0  0  0
    0.0612    0.1205   -2.5667 H   0  0  0  0  0  0  0  0  0  0  0  0
    0.2830    0.8637   -4.0038 H   0  0  0  0  0  0  0  0  0  0  0  0
   -1.0885   -0.6644   -4.0784 N   0  0  0  0  0  4  0  0  0  0  0  0
   -1.7477   -0.7564   -3.3344 H   0  0  0  0  0  0  0  0  0  0  0  0
   -1.4731   -0.0917   -4.8003 H   0  0  0  0  0  0  0  0  0  0  0  0
   -0.8642   -1.5658   -4.4453 H   0  0  0  0  0  0  0  0  0  0  0  0
   -0.0022    2.9165   -0.0035 C   0  0  0  0  0  0  0  0  0  0  0  0
   -0.8193    3.2169   -0.4709 H   0  0  0  0  0  0  0  0  0  0  0  0
    0.8138    3.2197   -0.4720 H   0  0  0  0  0  0  0  0  0  0  0  0
   -0.0019    3.3660    0.9895 H   0  0  0  0  0  0  0  0  0  0  0  0
    0.0002    1.4041    0.0020 C   0  0  0  0  0  0  0  0  0  0  0  0
   -1.1950    0.6927    0.0014 C   0  0  0  0  0  0  0  0  0  0  0  0
   -2.0630    1.1778    0.0007 H   0  0  0  0  0  0  0  0  0  0  0  0
   -1.1951   -0.7031    0.0000 C   0  0  0  0  0  0  0  0  0  0  0  0
   -2.0738   -1.1941   -0.0022 H   0  0  0  0  0  0  0  0  0  0  0  0
    0.0010   -1.3907    0.0031 C   0  0  0  0  0  0  0  0  0  0  0  0
   -0.0000   -2.3933    0.0070 H   0  0  0  0  0  0  0  0  0  0  0  0
    1.1951   -0.6971   -0.0000 C   0  0  0  0  0  0  0  0  0  0  0  0
    2.0803   -1.1937    0.0041 H   0  0  0  0  0  0  0  0  0  0  0  0
    1.1938    0.6941   -0.0065 C   0  0  0  0  0  0  0  0  0  0  0  0
    2.0633    1.1879   -0.0185 H   0  0  0  0  0  0  0  0  0  0  0  0
  1  5  1  0
  5  8  1  0
  1  2  1  0
  1  3  1  0
  1  4  1  0
  5  6  1  0
  5  7  1  0
  8  9  1  0
  8 10  1  0
  8 11  1  0
 12 16  1  0
 16 17  2  0
 17 19  1  0
 19 21  2  0
 21 23  1  0
 23 25  2  0
 25 16  1  0
 12 13  1  0
 12 14  1  0
 12 15  1  0
 17 18  1  0
 19 20  1  0
 21 22  1  0
 23 24  1  0
 25 26  1  0
M  CHG  1   8   1
M  END
>  <PDB_ID>  (2795) 
pdb4zdh

>  <RESIDUE_NAME>  (2795) 
LYS   PHE

>  <FRAG_NAME>  (2795) 
ETAM   MBZ

>  <FRAG_ATOM_NUM>  (2795) 
fragi: 11  fragj: 15

>  <atom.prop.CHAIN_ID>  (2795) 
A A A A A A A A A A A Z Z Z Z Z Z Z Z Z Z Z Z Z Z Z

>  <atom.prop.IS_HEAVY_ATOM>  (2795) 
1 0 0 0 1 0 0 1 0 0 0 1 0 0 0 1 1 0 1 0 1 0 1 0 1 0

>  <DIFUSE_FUNC_ATOM>  (2795) 
n/a

>  <FINAL_SINGLE_POINT_ENERGY>  (2795) 
0

>  <NONCOV_INTER_ENERGY_QM>  (2795) 
0

>  <FF_Energy>  (2795) 
-5.99

>  <QM_Energy>  (2795) 
-11.42

>  <source>  (2795) 
ETAM_MBZ

>  <Index>  (2795) 
29952

$$$$
ETAM-pdb4zhp-A-LYS-51:MBZ-pdb4zhp-A-PHE-74
     RDKit          3D

 26 25  0  0  0  0  0  0  0  0999 V2000
   -0.5609   -0.8334   -5.2658 C   0  0  0  0  0  0  0  0  0  0  0  0
   -1.0870   -0.9513   -6.1084 H   0  0  0  0  0  0  0  0  0  0  0  0
    0.4166   -0.8447   -5.4810 H   0  0  0  0  0  0  0  0  0  0  0  0
   -0.8161    0.1278   -4.8198 H   0  0  0  0  0  0  0  0  0  0  0  0
   -0.8610   -2.0168   -4.3461 C   0  0  0  0  0  0  0  0  0  0  0  0
   -1.8198   -1.9658   -4.0593 H   0  0  0  0  0  0  0  0  0  0  0  0
   -0.7183   -2.8668   -4.8586 H   0  0  0  0  0  0  0  0  0  0  0  0
    0.0134   -2.0171   -3.1400 N   0  0  0  0  0  4  0  0  0  0  0  0
    0.9585   -2.1903   -3.4167 H   0  0  0  0  0  0  0  0  0  0  0  0
   -0.0461   -1.1280   -2.6876 H   0  0  0  0  0  0  0  0  0  0  0  0
   -0.2887   -2.7335   -2.5127 H   0  0  0  0  0  0  0  0  0  0  0  0
   -0.0159    2.9267   -0.0102 C   0  0  0  0  0  0  0  0  0  0  0  0
    0.8473    3.2324    0.3556 H   0  0  0  0  0  0  0  0  0  0  0  0
   -0.7745    3.2206    0.5474 H   0  0  0  0  0  0  0  0  0  0  0  0
   -0.1368    3.3545   -1.0054 H   0  0  0  0  0  0  0  0  0  0  0  0
   -0.0039    1.4128   -0.0078 C   0  0  0  0  0  0  0  0  0  0  0  0
   -1.1916    0.6908    0.0150 C   0  0  0  0  0  0  0  0  0  0  0  0
   -2.0667    1.1758    0.0419 H   0  0  0  0  0  0  0  0  0  0  0  0
   -1.2016   -0.7103    0.0000 C   0  0  0  0  0  0  0  0  0  0  0  0
   -2.0774   -1.1967   -0.0026 H   0  0  0  0  0  0  0  0  0  0  0  0
    0.0011   -1.4045   -0.0100 C   0  0  0  0  0  0  0  0  0  0  0  0
    0.0030   -2.4001   -0.0248 H   0  0  0  0  0  0  0  0  0  0  0  0
    1.2016   -0.6983   -0.0000 C   0  0  0  0  0  0  0  0  0  0  0  0
    2.0863   -1.1858    0.0070 H   0  0  0  0  0  0  0  0  0  0  0  0
    1.1944    0.7094    0.0028 C   0  0  0  0  0  0  0  0  0  0  0  0
    2.0622    1.1988    0.0118 H   0  0  0  0  0  0  0  0  0  0  0  0
  1  5  1  0
  5  8  1  0
  1  2  1  0
  1  3  1  0
  1  4  1  0
  5  6  1  0
  5  7  1  0
  8  9  1  0
  8 10  1  0
  8 11  1  0
 12 16  1  0
 16 17  2  0
 17 19  1  0
 19 21  2  0
 21 23  1  0
 23 25  2  0
 25 16  1  0
 12 13  1  0
 12 14  1  0
 12 15  1  0
 17 18  1  0
 19 20  1  0
 21 22  1  0
 23 24  1  0
 25 26  1  0
M  CHG  1   8   1
M  END
>  <PDB_ID>  (2796) 
pdb4zhp

>  <RESIDUE_NAME>  (2796) 
LYS   PHE

>  <FRAG_NAME>  (2796) 
ETAM   MBZ

>  <FRAG_ATOM_NUM>  (2796) 
fragi: 11  fragj: 15

>  <atom.prop.CHAIN_ID>  (2796) 
A A A A A A A A A A A Z Z Z Z Z Z Z Z Z Z Z Z Z Z Z

>  <atom.prop.IS_HEAVY_ATOM>  (2796) 
1 0 0 0 1 0 0 1 0 0 0 1 0 0 0 1 1 0 1 0 1 0 1 0 1 0

>  <DIFUSE_FUNC_ATOM>  (2796) 
n/a

>  <FINAL_SINGLE_POINT_ENERGY>  (2796) 
0

>  <NONCOV_INTER_ENERGY_QM>  (2796) 
0

>  <FF_Energy>  (2796) 
-5.07

>  <QM_Energy>  (2796) 
-11.8

>  <source>  (2796) 
ETAM_MBZ

>  <Index>  (2796) 
29980

$$$$
ETAM-pdb4y42-I-LYS-22:MBZ-pdb4y42-I-PHE-29
     RDKit          3D

 26 25  0  0  0  0  0  0  0  0999 V2000
   -1.2829   -1.1429   -3.6729 C   0  0  0  0  0  0  0  0  0  0  0  0
   -2.0941   -0.7424   -3.2560 H   0  0  0  0  0  0  0  0  0  0  0  0
   -1.0816   -2.0239   -3.2538 H   0  0  0  0  0  0  0  0  0  0  0  0
   -1.4698   -1.2913   -4.7364 H   0  0  0  0  0  0  0  0  0  0  0  0
   -0.1115   -0.2180   -3.4439 C   0  0  0  0  0  0  0  0  0  0  0  0
   -0.2399    0.6156   -3.9793 H   0  0  0  0  0  0  0  0  0  0  0  0
   -0.0583    0.0130   -2.4727 H   0  0  0  0  0  0  0  0  0  0  0  0
    1.1571   -0.8738   -3.8593 N   0  0  0  0  0  4  0  0  0  0  0  0
    1.9232   -0.2571   -3.6806 H   0  0  0  0  0  0  0  0  0  0  0  0
    1.2795   -1.7187   -3.3400 H   0  0  0  0  0  0  0  0  0  0  0  0
    1.1179   -1.0838   -4.8357 H   0  0  0  0  0  0  0  0  0  0  0  0
    0.0031    2.9067   -0.0064 C   0  0  0  0  0  0  0  0  0  0  0  0
    0.9379    3.2104    0.0891 H   0  0  0  0  0  0  0  0  0  0  0  0
   -0.5574    3.2152    0.7453 H   0  0  0  0  0  0  0  0  0  0  0  0
   -0.3984    3.3378   -0.9234 H   0  0  0  0  0  0  0  0  0  0  0  0
    0.0006    1.4037   -0.0008 C   0  0  0  0  0  0  0  0  0  0  0  0
   -1.1953    0.7049   -0.0035 C   0  0  0  0  0  0  0  0  0  0  0  0
   -2.0619    1.1887   -0.0095 H   0  0  0  0  0  0  0  0  0  0  0  0
   -1.2004   -0.6981    0.0000 C   0  0  0  0  0  0  0  0  0  0  0  0
   -2.0810   -1.1839   -0.0000 H   0  0  0  0  0  0  0  0  0  0  0  0
   -0.0037   -1.3969    0.0054 C   0  0  0  0  0  0  0  0  0  0  0  0
   -0.0093   -2.3958    0.0129 H   0  0  0  0  0  0  0  0  0  0  0  0
    1.2004   -0.7052   -0.0000 C   0  0  0  0  0  0  0  0  0  0  0  0
    2.0799   -1.2019   -0.0022 H   0  0  0  0  0  0  0  0  0  0  0  0
    1.1983    0.6916   -0.0010 C   0  0  0  0  0  0  0  0  0  0  0  0
    2.0669    1.1849   -0.0028 H   0  0  0  0  0  0  0  0  0  0  0  0
  1  5  1  0
  5  8  1  0
  1  2  1  0
  1  3  1  0
  1  4  1  0
  5  6  1  0
  5  7  1  0
  8  9  1  0
  8 10  1  0
  8 11  1  0
 12 16  1  0
 16 17  2  0
 17 19  1  0
 19 21  2  0
 21 23  1  0
 23 25  2  0
 25 16  1  0
 12 13  1  0
 12 14  1  0
 12 15  1  0
 17 18  1  0
 19 20  1  0
 21 22  1  0
 23 24  1  0
 25 26  1  0
M  CHG  1   8   1
M  END
>  <PDB_ID>  (2797) 
pdb4y42

>  <RESIDUE_NAME>  (2797) 
LYS   PHE

>  <FRAG_NAME>  (2797) 
ETAM   MBZ

>  <FRAG_ATOM_NUM>  (2797) 
fragi: 11  fragj: 15

>  <atom.prop.CHAIN_ID>  (2797) 
A A A A A A A A A A A Z Z Z Z Z Z Z Z Z Z Z Z Z Z Z

>  <atom.prop.IS_HEAVY_ATOM>  (2797) 
1 0 0 0 1 0 0 1 0 0 0 1 0 0 0 1 1 0 1 0 1 0 1 0 1 0

>  <DIFUSE_FUNC_ATOM>  (2797) 
n/a

>  <FINAL_SINGLE_POINT_ENERGY>  (2797) 
0

>  <NONCOV_INTER_ENERGY_QM>  (2797) 
0

>  <FF_Energy>  (2797) 
-5.8

>  <QM_Energy>  (2797) 
-12.15

>  <source>  (2797) 
ETAM_MBZ

>  <Index>  (2797) 
29981

$$$$
ETAM-pdb4zj7-A-LYS-1058:MBZ-pdb4zj7-A-PHE-1088
     RDKit          3D

 26 25  0  0  0  0  0  0  0  0999 V2000
    3.9344    3.5992    1.1833 C   0  0  0  0  0  0  0  0  0  0  0  0
    4.5999    3.5786    1.9317 H   0  0  0  0  0  0  0  0  0  0  0  0
    3.9638    4.4960    0.7388 H   0  0  0  0  0  0  0  0  0  0  0  0
    4.2050    2.8364    0.4532 H   0  0  0  0  0  0  0  0  0  0  0  0
    2.5534    3.3897    1.7601 C   0  0  0  0  0  0  0  0  0  0  0  0
    1.8810    3.4135    1.0192 H   0  0  0  0  0  0  0  0  0  0  0  0
    2.5172    2.4973    2.2113 H   0  0  0  0  0  0  0  0  0  0  0  0
    2.2289    4.4498    2.7479 N   0  0  0  0  0  4  0  0  0  0  0  0
    1.7724    4.0407    3.5374 H   0  0  0  0  0  0  0  0  0  0  0  0
    3.0726    4.8970    3.0449 H   0  0  0  0  0  0  0  0  0  0  0  0
    1.6248    5.1256    2.3257 H   0  0  0  0  0  0  0  0  0  0  0  0
   -0.0003    2.8969    0.0025 C   0  0  0  0  0  0  0  0  0  0  0  0
   -0.7631    3.2037   -0.5460 H   0  0  0  0  0  0  0  0  0  0  0  0
    0.8611    3.2039   -0.3740 H   0  0  0  0  0  0  0  0  0  0  0  0
   -0.1056    3.3366    0.9942 H   0  0  0  0  0  0  0  0  0  0  0  0
   -0.0002    1.3942    0.0016 C   0  0  0  0  0  0  0  0  0  0  0  0
   -1.1901    0.6872   -0.0011 C   0  0  0  0  0  0  0  0  0  0  0  0
   -2.0595    1.1804   -0.0050 H   0  0  0  0  0  0  0  0  0  0  0  0
   -1.1944   -0.6920    0.0000 C   0  0  0  0  0  0  0  0  0  0  0  0
   -2.0735   -1.1883    0.0021 H   0  0  0  0  0  0  0  0  0  0  0  0
   -0.0008   -1.3842   -0.0006 C   0  0  0  0  0  0  0  0  0  0  0  0
   -0.0053   -2.3863   -0.0021 H   0  0  0  0  0  0  0  0  0  0  0  0
    1.1944   -0.6938   -0.0000 C   0  0  0  0  0  0  0  0  0  0  0  0
    2.0767   -1.1939    0.0022 H   0  0  0  0  0  0  0  0  0  0  0  0
    1.1911    0.6887    0.0001 C   0  0  0  0  0  0  0  0  0  0  0  0
    2.0608    1.1862   -0.0016 H   0  0  0  0  0  0  0  0  0  0  0  0
  1  5  1  0
  5  8  1  0
  1  2  1  0
  1  3  1  0
  1  4  1  0
  5  6  1  0
  5  7  1  0
  8  9  1  0
  8 10  1  0
  8 11  1  0
 12 16  1  0
 16 17  2  0
 17 19  1  0
 19 21  2  0
 21 23  1  0
 23 25  2  0
 25 16  1  0
 12 13  1  0
 12 14  1  0
 12 15  1  0
 17 18  1  0
 19 20  1  0
 21 22  1  0
 23 24  1  0
 25 26  1  0
M  CHG  1   8   1
M  END
>  <PDB_ID>  (2798) 
pdb4zj7

>  <RESIDUE_NAME>  (2798) 
LYS   PHE

>  <FRAG_NAME>  (2798) 
ETAM   MBZ

>  <FRAG_ATOM_NUM>  (2798) 
fragi: 11  fragj: 15

>  <atom.prop.CHAIN_ID>  (2798) 
A A A A A A A A A A A Z Z Z Z Z Z Z Z Z Z Z Z Z Z Z

>  <atom.prop.IS_HEAVY_ATOM>  (2798) 
1 0 0 0 1 0 0 1 0 0 0 1 0 0 0 1 1 0 1 0 1 0 1 0 1 0

>  <DIFUSE_FUNC_ATOM>  (2798) 
n/a

>  <FINAL_SINGLE_POINT_ENERGY>  (2798) 
0

>  <NONCOV_INTER_ENERGY_QM>  (2798) 
0

>  <FF_Energy>  (2798) 
12.26

>  <QM_Energy>  (2798) 
-0.11

>  <source>  (2798) 
ETAM_MBZ

>  <Index>  (2798) 
29997

$$$$
ETAM-pdb4zjn-B-LYS-61:MBZ-pdb4zjn-A-PHE-46
     RDKit          3D

 26 25  0  0  0  0  0  0  0  0999 V2000
    1.2872   -2.1653    3.2268 C   0  0  0  0  0  0  0  0  0  0  0  0
    0.6971   -2.2209    2.4296 H   0  0  0  0  0  0  0  0  0  0  0  0
    1.6026   -1.2344    3.3646 H   0  0  0  0  0  0  0  0  0  0  0  0
    0.7261   -2.4843    4.1052 H   0  0  0  0  0  0  0  0  0  0  0  0
    2.4891   -3.0579    3.0055 C   0  0  0  0  0  0  0  0  0  0  0  0
    2.8474   -3.3464    3.8910 H   0  0  0  0  0  0  0  0  0  0  0  0
    2.2083   -3.8581    2.4787 H   0  0  0  0  0  0  0  0  0  0  0  0
    3.5366   -2.3231    2.2652 N   0  0  0  0  0  4  0  0  0  0  0  0
    4.3181   -2.9265    2.1011 H   0  0  0  0  0  0  0  0  0  0  0  0
    3.1712   -2.0088    1.3879 H   0  0  0  0  0  0  0  0  0  0  0  0
    3.8359   -1.5322    2.8018 H   0  0  0  0  0  0  0  0  0  0  0  0
   -0.0075    2.9308   -0.0206 C   0  0  0  0  0  0  0  0  0  0  0  0
    0.8620    3.2428    0.3254 H   0  0  0  0  0  0  0  0  0  0  0  0
   -0.7565    3.2372    0.5431 H   0  0  0  0  0  0  0  0  0  0  0  0
   -0.1430    3.3609   -1.0129 H   0  0  0  0  0  0  0  0  0  0  0  0
    0.0003    1.4156   -0.0037 C   0  0  0  0  0  0  0  0  0  0  0  0
   -1.2080    0.6885    0.0019 C   0  0  0  0  0  0  0  0  0  0  0  0
   -2.0717    1.1796    0.0063 H   0  0  0  0  0  0  0  0  0  0  0  0
   -1.2100   -0.7075   -0.0000 C   0  0  0  0  0  0  0  0  0  0  0  0
   -2.0854   -1.2007   -0.0046 H   0  0  0  0  0  0  0  0  0  0  0  0
   -0.0058   -1.4003    0.0056 C   0  0  0  0  0  0  0  0  0  0  0  0
   -0.0014   -2.3981    0.0128 H   0  0  0  0  0  0  0  0  0  0  0  0
    1.2100   -0.6978   -0.0000 C   0  0  0  0  0  0  0  0  0  0  0  0
    2.0853   -1.2002   -0.0002 H   0  0  0  0  0  0  0  0  0  0  0  0
    1.2135    0.7014   -0.0039 C   0  0  0  0  0  0  0  0  0  0  0  0
    2.0736    1.1963   -0.0078 H   0  0  0  0  0  0  0  0  0  0  0  0
  1  5  1  0
  5  8  1  0
  1  2  1  0
  1  3  1  0
  1  4  1  0
  5  6  1  0
  5  7  1  0
  8  9  1  0
  8 10  1  0
  8 11  1  0
 12 16  1  0
 16 17  2  0
 17 19  1  0
 19 21  2  0
 21 23  1  0
 23 25  2  0
 25 16  1  0
 12 13  1  0
 12 14  1  0
 12 15  1  0
 17 18  1  0
 19 20  1  0
 21 22  1  0
 23 24  1  0
 25 26  1  0
M  CHG  1   8   1
M  END
>  <PDB_ID>  (2799) 
pdb4zjn

>  <RESIDUE_NAME>  (2799) 
LYS   PHE

>  <FRAG_NAME>  (2799) 
ETAM   MBZ

>  <FRAG_ATOM_NUM>  (2799) 
fragi: 11  fragj: 15

>  <atom.prop.CHAIN_ID>  (2799) 
A A A A A A A A A A A Z Z Z Z Z Z Z Z Z Z Z Z Z Z Z

>  <atom.prop.IS_HEAVY_ATOM>  (2799) 
1 0 0 0 1 0 0 1 0 0 0 1 0 0 0 1 1 0 1 0 1 0 1 0 1 0

>  <DIFUSE_FUNC_ATOM>  (2799) 
n/a

>  <FINAL_SINGLE_POINT_ENERGY>  (2799) 
0

>  <NONCOV_INTER_ENERGY_QM>  (2799) 
0

>  <FF_Energy>  (2799) 
-0.46

>  <QM_Energy>  (2799) 
-5.6

>  <source>  (2799) 
ETAM_MBZ

>  <Index>  (2799) 
30006

$$$$
ETAM-pdb4zm3-A-LYS-324:MBZ-pdb4zm3-A-PHE-69
     RDKit          3D

 26 25  0  0  0  0  0  0  0  0999 V2000
    1.4902   -0.7770    3.7113 C   0  0  0  0  0  0  0  0  0  0  0  0
    1.8238   -0.5234    4.6111 H   0  0  0  0  0  0  0  0  0  0  0  0
    2.1600   -0.5618    3.0126 H   0  0  0  0  0  0  0  0  0  0  0  0
    1.2618   -1.8425    3.6890 H   0  0  0  0  0  0  0  0  0  0  0  0
    0.2314    0.0343    3.4263 C   0  0  0  0  0  0  0  0  0  0  0  0
   -0.0467   -0.1218    2.4895 H   0  0  0  0  0  0  0  0  0  0  0  0
   -0.4788   -0.2395    4.0596 H   0  0  0  0  0  0  0  0  0  0  0  0
    0.5454    1.4712    3.6208 N   0  0  0  0  0  4  0  0  0  0  0  0
    0.6555    1.9126    2.7295 H   0  0  0  0  0  0  0  0  0  0  0  0
   -0.2006    1.9119    4.1208 H   0  0  0  0  0  0  0  0  0  0  0  0
    1.3941    1.5603    4.1437 H   0  0  0  0  0  0  0  0  0  0  0  0
   -0.0253    2.8962    0.0075 C   0  0  0  0  0  0  0  0  0  0  0  0
    0.8902    3.2095    0.2148 H   0  0  0  0  0  0  0  0  0  0  0  0
   -0.6674    3.1863    0.7021 H   0  0  0  0  0  0  0  0  0  0  0  0
   -0.3289    3.3368   -0.9422 H   0  0  0  0  0  0  0  0  0  0  0  0
   -0.0045    1.3888    0.0036 C   0  0  0  0  0  0  0  0  0  0  0  0
   -1.1885    0.6874    0.0273 C   0  0  0  0  0  0  0  0  0  0  0  0
   -2.0595    1.1762    0.0633 H   0  0  0  0  0  0  0  0  0  0  0  0
   -1.1942   -0.6965    0.0000 C   0  0  0  0  0  0  0  0  0  0  0  0
   -2.0670   -1.1944    0.0037 H   0  0  0  0  0  0  0  0  0  0  0  0
    0.0108   -1.3853   -0.0299 C   0  0  0  0  0  0  0  0  0  0  0  0
    0.0061   -2.3858   -0.0733 H   0  0  0  0  0  0  0  0  0  0  0  0
    1.1942   -0.6898   -0.0000 C   0  0  0  0  0  0  0  0  0  0  0  0
    2.0837   -1.1799    0.0243 H   0  0  0  0  0  0  0  0  0  0  0  0
    1.1821    0.6954   -0.0010 C   0  0  0  0  0  0  0  0  0  0  0  0
    2.0529    1.1941   -0.0056 H   0  0  0  0  0  0  0  0  0  0  0  0
  1  5  1  0
  5  8  1  0
  1  2  1  0
  1  3  1  0
  1  4  1  0
  5  6  1  0
  5  7  1  0
  8  9  1  0
  8 10  1  0
  8 11  1  0
 12 16  1  0
 16 17  2  0
 17 19  1  0
 19 21  2  0
 21 23  1  0
 23 25  2  0
 25 16  1  0
 12 13  1  0
 12 14  1  0
 12 15  1  0
 17 18  1  0
 19 20  1  0
 21 22  1  0
 23 24  1  0
 25 26  1  0
M  CHG  1   8   1
M  END
>  <PDB_ID>  (2800) 
pdb4zm3

>  <RESIDUE_NAME>  (2800) 
LYS   PHE

>  <FRAG_NAME>  (2800) 
ETAM   MBZ

>  <FRAG_ATOM_NUM>  (2800) 
fragi: 11  fragj: 15

>  <atom.prop.CHAIN_ID>  (2800) 
A A A A A A A A A A A Z Z Z Z Z Z Z Z Z Z Z Z Z Z Z

>  <atom.prop.IS_HEAVY_ATOM>  (2800) 
1 0 0 0 1 0 0 1 0 0 0 1 0 0 0 1 1 0 1 0 1 0 1 0 1 0

>  <DIFUSE_FUNC_ATOM>  (2800) 
n/a

>  <FINAL_SINGLE_POINT_ENERGY>  (2800) 
0

>  <NONCOV_INTER_ENERGY_QM>  (2800) 
0

>  <FF_Energy>  (2800) 
-7.02

>  <QM_Energy>  (2800) 
-12.87

>  <source>  (2800) 
ETAM_MBZ

>  <Index>  (2800) 
30040

$$$$
ETAM-pdb4zm3-B-LYS-324:MBZ-pdb4zm3-B-PHE-69
     RDKit          3D

 26 25  0  0  0  0  0  0  0  0999 V2000
    1.4828   -0.7334    3.6777 C   0  0  0  0  0  0  0  0  0  0  0  0
    1.8306   -0.4964    4.5747 H   0  0  0  0  0  0  0  0  0  0  0  0
    2.1504   -0.5348    2.9730 H   0  0  0  0  0  0  0  0  0  0  0  0
    1.2600   -1.8002    3.6595 H   0  0  0  0  0  0  0  0  0  0  0  0
    0.2305    0.0678    3.4087 C   0  0  0  0  0  0  0  0  0  0  0  0
   -0.0569   -0.0798    2.4758 H   0  0  0  0  0  0  0  0  0  0  0  0
   -0.4704   -0.1984    4.0501 H   0  0  0  0  0  0  0  0  0  0  0  0
    0.5723    1.4890    3.6059 N   0  0  0  0  0  4  0  0  0  0  0  0
   -0.2044    2.0637    3.3400 H   0  0  0  0  0  0  0  0  0  0  0  0
    0.7894    1.6542    4.5698 H   0  0  0  0  0  0  0  0  0  0  0  0
    1.3662    1.7273    3.0432 H   0  0  0  0  0  0  0  0  0  0  0  0
   -0.0174    2.8962   -0.0186 C   0  0  0  0  0  0  0  0  0  0  0  0
    0.8984    3.2213    0.1567 H   0  0  0  0  0  0  0  0  0  0  0  0
   -0.6505    3.2075    0.6739 H   0  0  0  0  0  0  0  0  0  0  0  0
   -0.3384    3.3212   -0.9695 H   0  0  0  0  0  0  0  0  0  0  0  0
    0.0016    1.3992   -0.0016 C   0  0  0  0  0  0  0  0  0  0  0  0
   -1.1965    0.6785    0.0181 C   0  0  0  0  0  0  0  0  0  0  0  0
   -2.0638    1.1682    0.0444 H   0  0  0  0  0  0  0  0  0  0  0  0
   -1.1990   -0.7121    0.0000 C   0  0  0  0  0  0  0  0  0  0  0  0
   -2.0729   -1.2064   -0.0083 H   0  0  0  0  0  0  0  0  0  0  0  0
    0.0021   -1.3919   -0.0049 C   0  0  0  0  0  0  0  0  0  0  0  0
    0.0137   -2.3914   -0.0122 H   0  0  0  0  0  0  0  0  0  0  0  0
    1.1990   -0.6812   -0.0000 C   0  0  0  0  0  0  0  0  0  0  0  0
    2.0850   -1.1777    0.0138 H   0  0  0  0  0  0  0  0  0  0  0  0
    1.1928    0.7074   -0.0117 C   0  0  0  0  0  0  0  0  0  0  0  0
    2.0607    1.2029   -0.0280 H   0  0  0  0  0  0  0  0  0  0  0  0
  1  5  1  0
  5  8  1  0
  1  2  1  0
  1  3  1  0
  1  4  1  0
  5  6  1  0
  5  7  1  0
  8  9  1  0
  8 10  1  0
  8 11  1  0
 12 16  1  0
 16 17  2  0
 17 19  1  0
 19 21  2  0
 21 23  1  0
 23 25  2  0
 25 16  1  0
 12 13  1  0
 12 14  1  0
 12 15  1  0
 17 18  1  0
 19 20  1  0
 21 22  1  0
 23 24  1  0
 25 26  1  0
M  CHG  1   8   1
M  END
>  <PDB_ID>  (2801) 
pdb4zm3

>  <RESIDUE_NAME>  (2801) 
LYS   PHE

>  <FRAG_NAME>  (2801) 
ETAM   MBZ

>  <FRAG_ATOM_NUM>  (2801) 
fragi: 11  fragj: 15

>  <atom.prop.CHAIN_ID>  (2801) 
A A A A A A A A A A A Z Z Z Z Z Z Z Z Z Z Z Z Z Z Z

>  <atom.prop.IS_HEAVY_ATOM>  (2801) 
1 0 0 0 1 0 0 1 0 0 0 1 0 0 0 1 1 0 1 0 1 0 1 0 1 0

>  <DIFUSE_FUNC_ATOM>  (2801) 
n/a

>  <FINAL_SINGLE_POINT_ENERGY>  (2801) 
0

>  <NONCOV_INTER_ENERGY_QM>  (2801) 
0

>  <FF_Energy>  (2801) 
-6.76

>  <QM_Energy>  (2801) 
-12.46

>  <source>  (2801) 
ETAM_MBZ

>  <Index>  (2801) 
30041

$$$$
ETAM-pdb4zm3-C-LYS-324:MBZ-pdb4zm3-C-PHE-69
     RDKit          3D

 26 25  0  0  0  0  0  0  0  0999 V2000
    1.4731   -0.7005    3.7475 C   0  0  0  0  0  0  0  0  0  0  0  0
    1.8014   -0.4469    4.6429 H   0  0  0  0  0  0  0  0  0  0  0  0
    2.1453   -0.5241    3.0481 H   0  0  0  0  0  0  0  0  0  0  0  0
    1.2348   -1.7641    3.7482 H   0  0  0  0  0  0  0  0  0  0  0  0
    0.2201    0.1051    3.4382 C   0  0  0  0  0  0  0  0  0  0  0  0
   -0.0452   -0.0553    2.5011 H   0  0  0  0  0  0  0  0  0  0  0  0
   -0.4947   -0.1534    4.0674 H   0  0  0  0  0  0  0  0  0  0  0  0
    0.5494    1.5437    3.6233 N   0  0  0  0  0  4  0  0  0  0  0  0
   -0.1150    2.1027    3.1276 H   0  0  0  0  0  0  0  0  0  0  0  0
    0.5160    1.7696    4.5968 H   0  0  0  0  0  0  0  0  0  0  0  0
    1.4671    1.7224    3.2693 H   0  0  0  0  0  0  0  0  0  0  0  0
   -0.0029    2.8424   -0.0455 C   0  0  0  0  0  0  0  0  0  0  0  0
    0.9132    3.1718    0.1545 H   0  0  0  0  0  0  0  0  0  0  0  0
   -0.6534    3.1948    0.6185 H   0  0  0  0  0  0  0  0  0  0  0  0
   -0.2850    3.2452   -1.0182 H   0  0  0  0  0  0  0  0  0  0  0  0
   -0.0086    1.3868    0.0086 C   0  0  0  0  0  0  0  0  0  0  0  0
   -1.1807    0.7008    0.0188 C   0  0  0  0  0  0  0  0  0  0  0  0
   -2.0557    1.1865    0.0386 H   0  0  0  0  0  0  0  0  0  0  0  0
   -1.1879   -0.6813   -0.0000 C   0  0  0  0  0  0  0  0  0  0  0  0
   -2.0715   -1.1728   -0.0209 H   0  0  0  0  0  0  0  0  0  0  0  0
   -0.0005   -1.3842    0.0111 C   0  0  0  0  0  0  0  0  0  0  0  0
   -0.0149   -2.3843    0.0269 H   0  0  0  0  0  0  0  0  0  0  0  0
    1.1879   -0.7001    0.0000 C   0  0  0  0  0  0  0  0  0  0  0  0
    2.0727   -1.2016    0.0214 H   0  0  0  0  0  0  0  0  0  0  0  0
    1.1898    0.6780   -0.0385 C   0  0  0  0  0  0  0  0  0  0  0  0
    2.0524    1.1771   -0.1016 H   0  0  0  0  0  0  0  0  0  0  0  0
  1  5  1  0
  5  8  1  0
  1  2  1  0
  1  3  1  0
  1  4  1  0
  5  6  1  0
  5  7  1  0
  8  9  1  0
  8 10  1  0
  8 11  1  0
 12 16  1  0
 16 17  2  0
 17 19  1  0
 19 21  2  0
 21 23  1  0
 23 25  2  0
 25 16  1  0
 12 13  1  0
 12 14  1  0
 12 15  1  0
 17 18  1  0
 19 20  1  0
 21 22  1  0
 23 24  1  0
 25 26  1  0
M  CHG  1   8   1
M  END
>  <PDB_ID>  (2802) 
pdb4zm3

>  <RESIDUE_NAME>  (2802) 
LYS   PHE

>  <FRAG_NAME>  (2802) 
ETAM   MBZ

>  <FRAG_ATOM_NUM>  (2802) 
fragi: 11  fragj: 15

>  <atom.prop.CHAIN_ID>  (2802) 
A A A A A A A A A A A Z Z Z Z Z Z Z Z Z Z Z Z Z Z Z

>  <atom.prop.IS_HEAVY_ATOM>  (2802) 
1 0 0 0 1 0 0 1 0 0 0 1 0 0 0 1 1 0 1 0 1 0 1 0 1 0

>  <DIFUSE_FUNC_ATOM>  (2802) 
n/a

>  <FINAL_SINGLE_POINT_ENERGY>  (2802) 
0

>  <NONCOV_INTER_ENERGY_QM>  (2802) 
0

>  <FF_Energy>  (2802) 
-6.94

>  <QM_Energy>  (2802) 
-12.18

>  <source>  (2802) 
ETAM_MBZ

>  <Index>  (2802) 
30042

$$$$
ETAM-pdb4zm3-D-LYS-324:MBZ-pdb4zm3-D-PHE-69
     RDKit          3D

 26 25  0  0  0  0  0  0  0  0999 V2000
    1.4820   -0.7933    3.6899 C   0  0  0  0  0  0  0  0  0  0  0  0
    1.8166   -0.5563    4.5917 H   0  0  0  0  0  0  0  0  0  0  0  0
    2.1670   -0.6116    2.9976 H   0  0  0  0  0  0  0  0  0  0  0  0
    1.2413   -1.8562    3.6750 H   0  0  0  0  0  0  0  0  0  0  0  0
    0.2509    0.0256    3.3904 C   0  0  0  0  0  0  0  0  0  0  0  0
   -0.0151   -0.1175    2.4456 H   0  0  0  0  0  0  0  0  0  0  0  0
   -0.4778   -0.2434    4.0068 H   0  0  0  0  0  0  0  0  0  0  0  0
    0.5817    1.4454    3.6028 N   0  0  0  0  0  4  0  0  0  0  0  0
    1.4484    1.5214    4.0998 H   0  0  0  0  0  0  0  0  0  0  0  0
    0.6680    1.9093    2.7187 H   0  0  0  0  0  0  0  0  0  0  0  0
   -0.1434    1.8864    4.1360 H   0  0  0  0  0  0  0  0  0  0  0  0
   -0.0015    2.8905    0.0367 C   0  0  0  0  0  0  0  0  0  0  0  0
    0.9171    3.1865    0.2444 H   0  0  0  0  0  0  0  0  0  0  0  0
   -0.6425    3.1856    0.7273 H   0  0  0  0  0  0  0  0  0  0  0  0
   -0.2951    3.3429   -0.9105 H   0  0  0  0  0  0  0  0  0  0  0  0
   -0.0107    1.3921    0.0051 C   0  0  0  0  0  0  0  0  0  0  0  0
   -1.1740    0.6951   -0.0027 C   0  0  0  0  0  0  0  0  0  0  0  0
   -2.0576    1.1739   -0.0117 H   0  0  0  0  0  0  0  0  0  0  0  0
   -1.1873   -0.7024   -0.0000 C   0  0  0  0  0  0  0  0  0  0  0  0
   -2.0683   -1.1838    0.0146 H   0  0  0  0  0  0  0  0  0  0  0  0
    0.0014   -1.3845   -0.0160 C   0  0  0  0  0  0  0  0  0  0  0  0
    0.0048   -2.3881   -0.0396 H   0  0  0  0  0  0  0  0  0  0  0  0
    1.1873   -0.6887   -0.0000 C   0  0  0  0  0  0  0  0  0  0  0  0
    2.0759   -1.1876    0.0030 H   0  0  0  0  0  0  0  0  0  0  0  0
    1.1833    0.6883    0.0137 C   0  0  0  0  0  0  0  0  0  0  0  0
    2.0503    1.1902    0.0289 H   0  0  0  0  0  0  0  0  0  0  0  0
  1  5  1  0
  5  8  1  0
  1  2  1  0
  1  3  1  0
  1  4  1  0
  5  6  1  0
  5  7  1  0
  8  9  1  0
  8 10  1  0
  8 11  1  0
 12 16  1  0
 16 17  2  0
 17 19  1  0
 19 21  2  0
 21 23  1  0
 23 25  2  0
 25 16  1  0
 12 13  1  0
 12 14  1  0
 12 15  1  0
 17 18  1  0
 19 20  1  0
 21 22  1  0
 23 24  1  0
 25 26  1  0
M  CHG  1   8   1
M  END
>  <PDB_ID>  (2803) 
pdb4zm3

>  <RESIDUE_NAME>  (2803) 
LYS   PHE

>  <FRAG_NAME>  (2803) 
ETAM   MBZ

>  <FRAG_ATOM_NUM>  (2803) 
fragi: 11  fragj: 15

>  <atom.prop.CHAIN_ID>  (2803) 
A A A A A A A A A A A Z Z Z Z Z Z Z Z Z Z Z Z Z Z Z

>  <atom.prop.IS_HEAVY_ATOM>  (2803) 
1 0 0 0 1 0 0 1 0 0 0 1 0 0 0 1 1 0 1 0 1 0 1 0 1 0

>  <DIFUSE_FUNC_ATOM>  (2803) 
n/a

>  <FINAL_SINGLE_POINT_ENERGY>  (2803) 
0

>  <NONCOV_INTER_ENERGY_QM>  (2803) 
0

>  <FF_Energy>  (2803) 
-6.89

>  <QM_Energy>  (2803) 
-12.88

>  <source>  (2803) 
ETAM_MBZ

>  <Index>  (2803) 
30043

$$$$
ETAM-pdb4zah-G-LYS-209:MBZ-pdb4zah-H-PHE-81
     RDKit          3D

 26 25  0  0  0  0  0  0  0  0999 V2000
    2.1638   -3.9675    0.7571 C   0  0  0  0  0  0  0  0  0  0  0  0
    1.6134   -4.7122    1.1385 H   0  0  0  0  0  0  0  0  0  0  0  0
    1.5992   -3.1448    0.6788 H   0  0  0  0  0  0  0  0  0  0  0  0
    2.9906   -3.7613    1.4369 H   0  0  0  0  0  0  0  0  0  0  0  0
    2.6128   -4.3764   -0.6528 C   0  0  0  0  0  0  0  0  0  0  0  0
    2.9336   -3.5630   -1.1356 H   0  0  0  0  0  0  0  0  0  0  0  0
    3.3602   -5.0349   -0.5727 H   0  0  0  0  0  0  0  0  0  0  0  0
    1.4896   -4.9961   -1.4215 N   0  0  0  0  0  4  0  0  0  0  0  0
    1.7247   -5.9415   -1.6406 H   0  0  0  0  0  0  0  0  0  0  0  0
    0.6599   -4.9746   -0.8655 H   0  0  0  0  0  0  0  0  0  0  0  0
    1.3449   -4.4799   -2.2634 H   0  0  0  0  0  0  0  0  0  0  0  0
   -0.0071    2.8819   -0.0051 C   0  0  0  0  0  0  0  0  0  0  0  0
   -0.5486    3.1882   -0.7751 H   0  0  0  0  0  0  0  0  0  0  0  0
    0.9283    3.1968   -0.0795 H   0  0  0  0  0  0  0  0  0  0  0  0
   -0.4346    3.3198    0.8968 H   0  0  0  0  0  0  0  0  0  0  0  0
    0.0009    1.3905   -0.0033 C   0  0  0  0  0  0  0  0  0  0  0  0
   -1.1885    0.6869   -0.0004 C   0  0  0  0  0  0  0  0  0  0  0  0
   -2.0568    1.1813    0.0005 H   0  0  0  0  0  0  0  0  0  0  0  0
   -1.1940   -0.6901    0.0000 C   0  0  0  0  0  0  0  0  0  0  0  0
   -2.0745   -1.1862    0.0024 H   0  0  0  0  0  0  0  0  0  0  0  0
   -0.0032   -1.3840   -0.0013 C   0  0  0  0  0  0  0  0  0  0  0  0
   -0.0078   -2.3861   -0.0031 H   0  0  0  0  0  0  0  0  0  0  0  0
    1.1940   -0.6942   -0.0000 C   0  0  0  0  0  0  0  0  0  0  0  0
    2.0753   -1.1936   -0.0013 H   0  0  0  0  0  0  0  0  0  0  0  0
    1.1908    0.6910    0.0050 C   0  0  0  0  0  0  0  0  0  0  0  0
    2.0603    1.1868    0.0143 H   0  0  0  0  0  0  0  0  0  0  0  0
  1  5  1  0
  5  8  1  0
  1  2  1  0
  1  3  1  0
  1  4  1  0
  5  6  1  0
  5  7  1  0
  8  9  1  0
  8 10  1  0
  8 11  1  0
 12 16  1  0
 16 17  2  0
 17 19  1  0
 19 21  2  0
 21 23  1  0
 23 25  2  0
 25 16  1  0
 12 13  1  0
 12 14  1  0
 12 15  1  0
 17 18  1  0
 19 20  1  0
 21 22  1  0
 23 24  1  0
 25 26  1  0
M  CHG  1   8   1
M  END
>  <PDB_ID>  (2804) 
pdb4zah

>  <RESIDUE_NAME>  (2804) 
LYS   PHE

>  <FRAG_NAME>  (2804) 
ETAM   MBZ

>  <FRAG_ATOM_NUM>  (2804) 
fragi: 11  fragj: 15

>  <atom.prop.CHAIN_ID>  (2804) 
A A A A A A A A A A A Z Z Z Z Z Z Z Z Z Z Z Z Z Z Z

>  <atom.prop.IS_HEAVY_ATOM>  (2804) 
1 0 0 0 1 0 0 1 0 0 0 1 0 0 0 1 1 0 1 0 1 0 1 0 1 0

>  <DIFUSE_FUNC_ATOM>  (2804) 
n/a

>  <FINAL_SINGLE_POINT_ENERGY>  (2804) 
0

>  <NONCOV_INTER_ENERGY_QM>  (2804) 
0

>  <FF_Energy>  (2804) 
3.56

>  <QM_Energy>  (2804) 
-2.41

>  <source>  (2804) 
ETAM_MBZ

>  <Index>  (2804) 
30048

$$$$
ETAM-pdb4zah-H-LYS-209:MBZ-pdb4zah-G-PHE-81
     RDKit          3D

 26 25  0  0  0  0  0  0  0  0999 V2000
    2.0243   -4.0544    0.9253 C   0  0  0  0  0  0  0  0  0  0  0  0
    1.4263   -4.7578    1.3025 H   0  0  0  0  0  0  0  0  0  0  0  0
    1.5053   -3.2179    0.7637 H   0  0  0  0  0  0  0  0  0  0  0  0
    2.8182   -3.8451    1.6422 H   0  0  0  0  0  0  0  0  0  0  0  0
    2.5669   -4.5508   -0.4142 C   0  0  0  0  0  0  0  0  0  0  0  0
    2.9488   -3.7770   -0.9161 H   0  0  0  0  0  0  0  0  0  0  0  0
    3.2812   -5.2271   -0.2451 H   0  0  0  0  0  0  0  0  0  0  0  0
    1.4813   -5.1800   -1.2358 N   0  0  0  0  0  4  0  0  0  0  0  0
    0.7531   -5.4927   -0.6294 H   0  0  0  0  0  0  0  0  0  0  0  0
    1.1226   -4.5025   -1.8751 H   0  0  0  0  0  0  0  0  0  0  0  0
    1.8599   -5.9541   -1.7380 H   0  0  0  0  0  0  0  0  0  0  0  0
   -0.0108    2.8687   -0.0186 C   0  0  0  0  0  0  0  0  0  0  0  0
   -0.5384    3.1630   -0.8058 H   0  0  0  0  0  0  0  0  0  0  0  0
    0.9262    3.1891   -0.0841 H   0  0  0  0  0  0  0  0  0  0  0  0
   -0.4554    3.3217    0.8675 H   0  0  0  0  0  0  0  0  0  0  0  0
    0.0032    1.3862    0.0058 C   0  0  0  0  0  0  0  0  0  0  0  0
   -1.1864    0.6805   -0.0009 C   0  0  0  0  0  0  0  0  0  0  0  0
   -2.0553    1.1770   -0.0073 H   0  0  0  0  0  0  0  0  0  0  0  0
   -1.1925   -0.6946   -0.0000 C   0  0  0  0  0  0  0  0  0  0  0  0
   -2.0728   -1.1895    0.0021 H   0  0  0  0  0  0  0  0  0  0  0  0
   -0.0054   -1.3792   -0.0004 C   0  0  0  0  0  0  0  0  0  0  0  0
   -0.0007   -2.3817   -0.0014 H   0  0  0  0  0  0  0  0  0  0  0  0
    1.1925   -0.6837    0.0000 C   0  0  0  0  0  0  0  0  0  0  0  0
    2.0738   -1.1890    0.0050 H   0  0  0  0  0  0  0  0  0  0  0  0
    1.1886    0.6909   -0.0045 C   0  0  0  0  0  0  0  0  0  0  0  0
    2.0588    1.1900   -0.0159 H   0  0  0  0  0  0  0  0  0  0  0  0
  1  5  1  0
  5  8  1  0
  1  2  1  0
  1  3  1  0
  1  4  1  0
  5  6  1  0
  5  7  1  0
  8  9  1  0
  8 10  1  0
  8 11  1  0
 12 16  1  0
 16 17  2  0
 17 19  1  0
 19 21  2  0
 21 23  1  0
 23 25  2  0
 25 16  1  0
 12 13  1  0
 12 14  1  0
 12 15  1  0
 17 18  1  0
 19 20  1  0
 21 22  1  0
 23 24  1  0
 25 26  1  0
M  CHG  1   8   1
M  END
>  <PDB_ID>  (2805) 
pdb4zah

>  <RESIDUE_NAME>  (2805) 
LYS   PHE

>  <FRAG_NAME>  (2805) 
ETAM   MBZ

>  <FRAG_ATOM_NUM>  (2805) 
fragi: 11  fragj: 15

>  <atom.prop.CHAIN_ID>  (2805) 
A A A A A A A A A A A Z Z Z Z Z Z Z Z Z Z Z Z Z Z Z

>  <atom.prop.IS_HEAVY_ATOM>  (2805) 
1 0 0 0 1 0 0 1 0 0 0 1 0 0 0 1 1 0 1 0 1 0 1 0 1 0

>  <DIFUSE_FUNC_ATOM>  (2805) 
n/a

>  <FINAL_SINGLE_POINT_ENERGY>  (2805) 
0

>  <NONCOV_INTER_ENERGY_QM>  (2805) 
0

>  <FF_Energy>  (2805) 
3.13

>  <QM_Energy>  (2805) 
-2.4

>  <source>  (2805) 
ETAM_MBZ

>  <Index>  (2805) 
30049

$$$$
ETAM-pdb4zoq-F-LYS-79:MBZ-pdb4zoq-F-PHE-76
     RDKit          3D

 26 25  0  0  0  0  0  0  0  0999 V2000
    0.2580   -0.2784    3.2553 C   0  0  0  0  0  0  0  0  0  0  0  0
   -0.2171    0.0811    2.4867 H   0  0  0  0  0  0  0  0  0  0  0  0
    1.1897   -0.4970    3.0831 H   0  0  0  0  0  0  0  0  0  0  0  0
    0.1983    0.4299    4.0817 H   0  0  0  0  0  0  0  0  0  0  0  0
   -0.4577   -1.5159    3.7419 C   0  0  0  0  0  0  0  0  0  0  0  0
   -0.1313   -1.7006    4.7217 H   0  0  0  0  0  0  0  0  0  0  0  0
   -1.4636   -1.2569    3.8886 H   0  0  0  0  0  0  0  0  0  0  0  0
   -0.3959   -2.7433    2.9891 N   0  0  0  0  0  4  0  0  0  0  0  0
   -0.3779   -2.5527    2.0002 H   0  0  0  0  0  0  0  0  0  0  0  0
    0.4339   -3.2638    3.2256 H   0  0  0  0  0  0  0  0  0  0  0  0
   -1.1977   -3.3210    3.1851 H   0  0  0  0  0  0  0  0  0  0  0  0
   -0.0019    2.8341   -0.0752 C   0  0  0  0  0  0  0  0  0  0  0  0
   -0.4627    3.1077   -0.9211 H   0  0  0  0  0  0  0  0  0  0  0  0
    0.9473    3.1543   -0.0995 H   0  0  0  0  0  0  0  0  0  0  0  0
   -0.5012    3.3382    0.7522 H   0  0  0  0  0  0  0  0  0  0  0  0
    0.0070    1.3701   -0.0067 C   0  0  0  0  0  0  0  0  0  0  0  0
   -1.1822    0.6907    0.0045 C   0  0  0  0  0  0  0  0  0  0  0  0
   -2.0454    1.1974    0.0149 H   0  0  0  0  0  0  0  0  0  0  0  0
   -1.1942   -0.6677   -0.0000 C   0  0  0  0  0  0  0  0  0  0  0  0
   -2.0819   -1.1626   -0.0108 H   0  0  0  0  0  0  0  0  0  0  0  0
   -0.0227   -1.3581    0.0119 C   0  0  0  0  0  0  0  0  0  0  0  0
   -0.0323   -2.3702    0.0294 H   0  0  0  0  0  0  0  0  0  0  0  0
    1.1942   -0.6979   -0.0000 C   0  0  0  0  0  0  0  0  0  0  0  0
    2.0581   -1.2193    0.0001 H   0  0  0  0  0  0  0  0  0  0  0  0
    1.1979    0.6629   -0.0097 C   0  0  0  0  0  0  0  0  0  0  0  0
    2.0660    1.1687   -0.0200 H   0  0  0  0  0  0  0  0  0  0  0  0
  1  5  1  0
  5  8  1  0
  1  2  1  0
  1  3  1  0
  1  4  1  0
  5  6  1  0
  5  7  1  0
  8  9  1  0
  8 10  1  0
  8 11  1  0
 12 16  1  0
 16 17  2  0
 17 19  1  0
 19 21  2  0
 21 23  1  0
 23 25  2  0
 25 16  1  0
 12 13  1  0
 12 14  1  0
 12 15  1  0
 17 18  1  0
 19 20  1  0
 21 22  1  0
 23 24  1  0
 25 26  1  0
M  CHG  1   8   1
M  END
>  <PDB_ID>  (2806) 
pdb4zoq

>  <RESIDUE_NAME>  (2806) 
LYS   PHE

>  <FRAG_NAME>  (2806) 
ETAM   MBZ

>  <FRAG_ATOM_NUM>  (2806) 
fragi: 11  fragj: 15

>  <atom.prop.CHAIN_ID>  (2806) 
A A A A A A A A A A A Z Z Z Z Z Z Z Z Z Z Z Z Z Z Z

>  <atom.prop.IS_HEAVY_ATOM>  (2806) 
1 0 0 0 1 0 0 1 0 0 0 1 0 0 0 1 1 0 1 0 1 0 1 0 1 0

>  <DIFUSE_FUNC_ATOM>  (2806) 
n/a

>  <FINAL_SINGLE_POINT_ENERGY>  (2806) 
0

>  <NONCOV_INTER_ENERGY_QM>  (2806) 
0

>  <FF_Energy>  (2806) 
-3.31

>  <QM_Energy>  (2806) 
-12.03

>  <source>  (2806) 
ETAM_MBZ

>  <Index>  (2806) 
30065

$$$$
ETAM-pdb4zoq-G-LYS-79:MBZ-pdb4zoq-G-PHE-51
     RDKit          3D

 26 25  0  0  0  0  0  0  0  0999 V2000
   -0.6053   -2.2302   -3.6211 C   0  0  0  0  0  0  0  0  0  0  0  0
   -0.2541   -2.7631   -2.9115 H   0  0  0  0  0  0  0  0  0  0  0  0
    0.0042   -1.6794   -4.1062 H   0  0  0  0  0  0  0  0  0  0  0  0
   -1.2235   -2.8253   -4.2932 H   0  0  0  0  0  0  0  0  0  0  0  0
   -1.6924   -1.3458   -3.0544 C   0  0  0  0  0  0  0  0  0  0  0  0
   -2.4454   -1.2698   -3.7432 H   0  0  0  0  0  0  0  0  0  0  0  0
   -2.1049   -1.8121   -2.2420 H   0  0  0  0  0  0  0  0  0  0  0  0
   -1.2789    0.0263   -2.6521 N   0  0  0  0  0  4  0  0  0  0  0  0
   -0.5177    0.3251   -3.2266 H   0  0  0  0  0  0  0  0  0  0  0  0
   -2.0501    0.6518   -2.7666 H   0  0  0  0  0  0  0  0  0  0  0  0
   -0.9929    0.0186   -1.6947 H   0  0  0  0  0  0  0  0  0  0  0  0
    0.0839    2.8918    0.0668 C   0  0  0  0  0  0  0  0  0  0  0  0
   -0.5746    3.2531   -0.5740 H   0  0  0  0  0  0  0  0  0  0  0  0
    1.0029    3.1719   -0.1582 H   0  0  0  0  0  0  0  0  0  0  0  0
   -0.1548    3.2935    1.0515 H   0  0  0  0  0  0  0  0  0  0  0  0
    0.0223    1.4001    0.0113 C   0  0  0  0  0  0  0  0  0  0  0  0
   -1.1745    0.7234    0.0001 C   0  0  0  0  0  0  0  0  0  0  0  0
   -2.0365    1.2108   -0.0090 H   0  0  0  0  0  0  0  0  0  0  0  0
   -1.1826   -0.6750   -0.0000 C   0  0  0  0  0  0  0  0  0  0  0  0
   -2.0913   -1.1425    0.0402 H   0  0  0  0  0  0  0  0  0  0  0  0
   -0.0371   -1.3882   -0.0490 C   0  0  0  0  0  0  0  0  0  0  0  0
   -0.0543   -2.3896   -0.1214 H   0  0  0  0  0  0  0  0  0  0  0  0
    1.1826   -0.7291    0.0000 C   0  0  0  0  0  0  0  0  0  0  0  0
    2.0476   -1.2352    0.0095 H   0  0  0  0  0  0  0  0  0  0  0  0
    1.1893    0.6687    0.0376 C   0  0  0  0  0  0  0  0  0  0  0  0
    2.0762    1.1449    0.0842 H   0  0  0  0  0  0  0  0  0  0  0  0
  1  5  1  0
  5  8  1  0
  1  2  1  0
  1  3  1  0
  1  4  1  0
  5  6  1  0
  5  7  1  0
  8  9  1  0
  8 10  1  0
  8 11  1  0
 12 16  1  0
 16 17  2  0
 17 19  1  0
 19 21  2  0
 21 23  1  0
 23 25  2  0
 25 16  1  0
 12 13  1  0
 12 14  1  0
 12 15  1  0
 17 18  1  0
 19 20  1  0
 21 22  1  0
 23 24  1  0
 25 26  1  0
M  CHG  1   8   1
M  END
>  <PDB_ID>  (2807) 
pdb4zoq

>  <RESIDUE_NAME>  (2807) 
LYS   PHE

>  <FRAG_NAME>  (2807) 
ETAM   MBZ

>  <FRAG_ATOM_NUM>  (2807) 
fragi: 11  fragj: 15

>  <atom.prop.CHAIN_ID>  (2807) 
A A A A A A A A A A A Z Z Z Z Z Z Z Z Z Z Z Z Z Z Z

>  <atom.prop.IS_HEAVY_ATOM>  (2807) 
1 0 0 0 1 0 0 1 0 0 0 1 0 0 0 1 1 0 1 0 1 0 1 0 1 0

>  <DIFUSE_FUNC_ATOM>  (2807) 
n/a

>  <FINAL_SINGLE_POINT_ENERGY>  (2807) 
0

>  <NONCOV_INTER_ENERGY_QM>  (2807) 
0

>  <FF_Energy>  (2807) 
0.26

>  <QM_Energy>  (2807) 
-9.88

>  <source>  (2807) 
ETAM_MBZ

>  <Index>  (2807) 
30067

$$$$
ETAM-pdb4zoq-G-LYS-79:MBZ-pdb4zoq-G-PHE-76
     RDKit          3D

 26 25  0  0  0  0  0  0  0  0999 V2000
   -4.0082    3.8103    0.0177 C   0  0  0  0  0  0  0  0  0  0  0  0
   -4.7546    4.2544   -0.3778 H   0  0  0  0  0  0  0  0  0  0  0  0
   -3.1740    4.2731    0.0345 H   0  0  0  0  0  0  0  0  0  0  0  0
   -4.2608    3.4120    1.0003 H   0  0  0  0  0  0  0  0  0  0  0  0
   -3.8046    2.4964   -0.7017 C   0  0  0  0  0  0  0  0  0  0  0  0
   -3.5250    1.7883   -0.0180 H   0  0  0  0  0  0  0  0  0  0  0  0
   -4.7050    2.1830   -1.0741 H   0  0  0  0  0  0  0  0  0  0  0  0
   -2.8112    2.5023   -1.8101 N   0  0  0  0  0  4  0  0  0  0  0  0
   -2.1055    3.1837   -1.6194 H   0  0  0  0  0  0  0  0  0  0  0  0
   -2.3919    1.5979   -1.8841 H   0  0  0  0  0  0  0  0  0  0  0  0
   -3.2726    2.7288   -2.6671 H   0  0  0  0  0  0  0  0  0  0  0  0
   -0.0190    2.9179   -0.0102 C   0  0  0  0  0  0  0  0  0  0  0  0
   -0.4655    3.2057   -0.8456 H   0  0  0  0  0  0  0  0  0  0  0  0
    0.9213    3.2275    0.0163 H   0  0  0  0  0  0  0  0  0  0  0  0
   -0.5448    3.3813    0.8246 H   0  0  0  0  0  0  0  0  0  0  0  0
   -0.0052    1.3967    0.0048 C   0  0  0  0  0  0  0  0  0  0  0  0
   -1.1827    0.6837   -0.0015 C   0  0  0  0  0  0  0  0  0  0  0  0
   -2.0594    1.1765   -0.0084 H   0  0  0  0  0  0  0  0  0  0  0  0
   -1.1879   -0.6881   -0.0000 C   0  0  0  0  0  0  0  0  0  0  0  0
   -2.0709   -1.1847   -0.0025 H   0  0  0  0  0  0  0  0  0  0  0  0
   -0.0034   -1.3807    0.0061 C   0  0  0  0  0  0  0  0  0  0  0  0
   -0.0108   -2.3843    0.0143 H   0  0  0  0  0  0  0  0  0  0  0  0
    1.1879   -0.6971    0.0000 C   0  0  0  0  0  0  0  0  0  0  0  0
    2.0715   -1.1987    0.0034 H   0  0  0  0  0  0  0  0  0  0  0  0
    1.1913    0.6855   -0.0094 C   0  0  0  0  0  0  0  0  0  0  0  0
    2.0587    1.1821   -0.0277 H   0  0  0  0  0  0  0  0  0  0  0  0
  1  5  1  0
  5  8  1  0
  1  2  1  0
  1  3  1  0
  1  4  1  0
  5  6  1  0
  5  7  1  0
  8  9  1  0
  8 10  1  0
  8 11  1  0
 12 16  1  0
 16 17  2  0
 17 19  1  0
 19 21  2  0
 21 23  1  0
 23 25  2  0
 25 16  1  0
 12 13  1  0
 12 14  1  0
 12 15  1  0
 17 18  1  0
 19 20  1  0
 21 22  1  0
 23 24  1  0
 25 26  1  0
M  CHG  1   8   1
M  END
>  <PDB_ID>  (2808) 
pdb4zoq

>  <RESIDUE_NAME>  (2808) 
LYS   PHE

>  <FRAG_NAME>  (2808) 
ETAM   MBZ

>  <FRAG_ATOM_NUM>  (2808) 
fragi: 11  fragj: 15

>  <atom.prop.CHAIN_ID>  (2808) 
A A A A A A A A A A A Z Z Z Z Z Z Z Z Z Z Z Z Z Z Z

>  <atom.prop.IS_HEAVY_ATOM>  (2808) 
1 0 0 0 1 0 0 1 0 0 0 1 0 0 0 1 1 0 1 0 1 0 1 0 1 0

>  <DIFUSE_FUNC_ATOM>  (2808) 
n/a

>  <FINAL_SINGLE_POINT_ENERGY>  (2808) 
0

>  <NONCOV_INTER_ENERGY_QM>  (2808) 
0

>  <FF_Energy>  (2808) 
22.88

>  <QM_Energy>  (2808) 
-1.84

>  <source>  (2808) 
ETAM_MBZ

>  <Index>  (2808) 
30068

$$$$
ETAM-pdb4zoq-H-LYS-79:MBZ-pdb4zoq-H-PHE-51
     RDKit          3D

 26 25  0  0  0  0  0  0  0  0999 V2000
    2.1698   -4.2211    3.1540 C   0  0  0  0  0  0  0  0  0  0  0  0
    3.1407   -4.3999    2.9772 H   0  0  0  0  0  0  0  0  0  0  0  0
    1.6257   -4.9858    2.8005 H   0  0  0  0  0  0  0  0  0  0  0  0
    2.0067   -4.1216    4.2271 H   0  0  0  0  0  0  0  0  0  0  0  0
    1.7755   -2.9835    2.4345 C   0  0  0  0  0  0  0  0  0  0  0  0
    0.8114   -2.8563    2.4850 H   0  0  0  0  0  0  0  0  0  0  0  0
    2.2920   -2.2243    2.7595 H   0  0  0  0  0  0  0  0  0  0  0  0
    2.1603   -3.2751    1.0328 N   0  0  0  0  0  4  0  0  0  0  0  0
    1.3409   -3.4821    0.4968 H   0  0  0  0  0  0  0  0  0  0  0  0
    2.6216   -2.4787    0.6404 H   0  0  0  0  0  0  0  0  0  0  0  0
    2.7789   -4.0619    1.0126 H   0  0  0  0  0  0  0  0  0  0  0  0
   -0.0254    2.9022   -0.0281 C   0  0  0  0  0  0  0  0  0  0  0  0
    0.8563    3.2213    0.2775 H   0  0  0  0  0  0  0  0  0  0  0  0
   -0.7498    3.2036    0.5694 H   0  0  0  0  0  0  0  0  0  0  0  0
   -0.2098    3.3307   -1.0132 H   0  0  0  0  0  0  0  0  0  0  0  0
   -0.0058    1.3890   -0.0119 C   0  0  0  0  0  0  0  0  0  0  0  0
   -1.1879    0.6859    0.0001 C   0  0  0  0  0  0  0  0  0  0  0  0
   -2.0607    1.1728    0.0078 H   0  0  0  0  0  0  0  0  0  0  0  0
   -1.1915   -0.6986    0.0000 C   0  0  0  0  0  0  0  0  0  0  0  0
   -2.0651   -1.1947   -0.0075 H   0  0  0  0  0  0  0  0  0  0  0  0
    0.0077   -1.3741    0.0120 C   0  0  0  0  0  0  0  0  0  0  0  0
    0.0109   -2.3804    0.0299 H   0  0  0  0  0  0  0  0  0  0  0  0
    1.1915   -0.6802   -0.0000 C   0  0  0  0  0  0  0  0  0  0  0  0
    2.0785   -1.1872   -0.0068 H   0  0  0  0  0  0  0  0  0  0  0  0
    1.1860    0.6781   -0.0003 C   0  0  0  0  0  0  0  0  0  0  0  0
    2.0539    1.1888    0.0073 H   0  0  0  0  0  0  0  0  0  0  0  0
  1  5  1  0
  5  8  1  0
  1  2  1  0
  1  3  1  0
  1  4  1  0
  5  6  1  0
  5  7  1  0
  8  9  1  0
  8 10  1  0
  8 11  1  0
 12 16  1  0
 16 17  2  0
 17 19  1  0
 19 21  2  0
 21 23  1  0
 23 25  2  0
 25 16  1  0
 12 13  1  0
 12 14  1  0
 12 15  1  0
 17 18  1  0
 19 20  1  0
 21 22  1  0
 23 24  1  0
 25 26  1  0
M  CHG  1   8   1
M  END
>  <PDB_ID>  (2809) 
pdb4zoq

>  <RESIDUE_NAME>  (2809) 
LYS   PHE

>  <FRAG_NAME>  (2809) 
ETAM   MBZ

>  <FRAG_ATOM_NUM>  (2809) 
fragi: 11  fragj: 15

>  <atom.prop.CHAIN_ID>  (2809) 
A A A A A A A A A A A Z Z Z Z Z Z Z Z Z Z Z Z Z Z Z

>  <atom.prop.IS_HEAVY_ATOM>  (2809) 
1 0 0 0 1 0 0 1 0 0 0 1 0 0 0 1 1 0 1 0 1 0 1 0 1 0

>  <DIFUSE_FUNC_ATOM>  (2809) 
n/a

>  <FINAL_SINGLE_POINT_ENERGY>  (2809) 
0

>  <NONCOV_INTER_ENERGY_QM>  (2809) 
0

>  <FF_Energy>  (2809) 
7.61

>  <QM_Energy>  (2809) 
-2.1

>  <source>  (2809) 
ETAM_MBZ

>  <Index>  (2809) 
30069

$$$$
ETAM-pdb4zj7-A-LYS-973:MBZ-pdb4zj7-A-PHE-1007
     RDKit          3D

 26 25  0  0  0  0  0  0  0  0999 V2000
   -0.3922   -1.0582   -3.5704 C   0  0  0  0  0  0  0  0  0  0  0  0
   -0.5086   -1.0150   -4.5615 H   0  0  0  0  0  0  0  0  0  0  0  0
   -1.2852   -1.0940   -3.1269 H   0  0  0  0  0  0  0  0  0  0  0  0
    0.1673   -1.9590   -3.3181 H   0  0  0  0  0  0  0  0  0  0  0  0
    0.3224    0.1932   -3.1140 C   0  0  0  0  0  0  0  0  0  0  0  0
    0.5974    0.0858   -2.1678 H   0  0  0  0  0  0  0  0  0  0  0  0
    1.1106    0.3495   -3.6945 H   0  0  0  0  0  0  0  0  0  0  0  0
   -0.6125    1.3337   -3.2316 N   0  0  0  0  0  4  0  0  0  0  0  0
   -1.5557    0.9986   -3.2128 H   0  0  0  0  0  0  0  0  0  0  0  0
   -0.4699    1.9651   -2.4681 H   0  0  0  0  0  0  0  0  0  0  0  0
   -0.4491    1.8144   -4.0939 H   0  0  0  0  0  0  0  0  0  0  0  0
   -0.0023    2.9075    0.0197 C   0  0  0  0  0  0  0  0  0  0  0  0
   -0.7253    3.2205   -0.5667 H   0  0  0  0  0  0  0  0  0  0  0  0
    0.8813    3.2194   -0.2732 H   0  0  0  0  0  0  0  0  0  0  0  0
   -0.1850    3.2944    1.0223 H   0  0  0  0  0  0  0  0  0  0  0  0
    0.0028    1.4013   -0.0129 C   0  0  0  0  0  0  0  0  0  0  0  0
   -1.1886    0.6831   -0.0094 C   0  0  0  0  0  0  0  0  0  0  0  0
   -2.0609    1.1655   -0.0143 H   0  0  0  0  0  0  0  0  0  0  0  0
   -1.1913   -0.7174    0.0000 C   0  0  0  0  0  0  0  0  0  0  0  0
   -2.0727   -1.1998    0.0006 H   0  0  0  0  0  0  0  0  0  0  0  0
   -0.0079   -1.3807    0.0093 C   0  0  0  0  0  0  0  0  0  0  0  0
    0.0090   -2.3910    0.0231 H   0  0  0  0  0  0  0  0  0  0  0  0
    1.1913   -0.6864    0.0000 C   0  0  0  0  0  0  0  0  0  0  0  0
    2.0732   -1.1888   -0.0153 H   0  0  0  0  0  0  0  0  0  0  0  0
    1.1938    0.7001    0.0129 C   0  0  0  0  0  0  0  0  0  0  0  0
    2.0623    1.1933    0.0400 H   0  0  0  0  0  0  0  0  0  0  0  0
  1  5  1  0
  5  8  1  0
  1  2  1  0
  1  3  1  0
  1  4  1  0
  5  6  1  0
  5  7  1  0
  8  9  1  0
  8 10  1  0
  8 11  1  0
 12 16  1  0
 16 17  2  0
 17 19  1  0
 19 21  2  0
 21 23  1  0
 23 25  2  0
 25 16  1  0
 12 13  1  0
 12 14  1  0
 12 15  1  0
 17 18  1  0
 19 20  1  0
 21 22  1  0
 23 24  1  0
 25 26  1  0
M  CHG  1   8   1
M  END
>  <PDB_ID>  (2810) 
pdb4zj7

>  <RESIDUE_NAME>  (2810) 
LYS   PHE

>  <FRAG_NAME>  (2810) 
ETAM   MBZ

>  <FRAG_ATOM_NUM>  (2810) 
fragi: 11  fragj: 15

>  <atom.prop.CHAIN_ID>  (2810) 
A A A A A A A A A A A Z Z Z Z Z Z Z Z Z Z Z Z Z Z Z

>  <atom.prop.IS_HEAVY_ATOM>  (2810) 
1 0 0 0 1 0 0 1 0 0 0 1 0 0 0 1 1 0 1 0 1 0 1 0 1 0

>  <DIFUSE_FUNC_ATOM>  (2810) 
n/a

>  <FINAL_SINGLE_POINT_ENERGY>  (2810) 
0

>  <NONCOV_INTER_ENERGY_QM>  (2810) 
0

>  <FF_Energy>  (2810) 
-2.25

>  <QM_Energy>  (2810) 
-12.95

>  <source>  (2810) 
ETAM_MBZ

>  <Index>  (2810) 
30074

$$$$
ETAM-pdb5a3d-B-LYS-279:MBZ-pdb5a3d-B-PHE-276
     RDKit          3D

 26 25  0  0  0  0  0  0  0  0999 V2000
   -2.4597    0.1482    4.0648 C   0  0  0  0  0  0  0  0  0  0  0  0
   -3.3474   -0.3187    4.0831 H   0  0  0  0  0  0  0  0  0  0  0  0
   -2.5342    0.9679    3.4910 H   0  0  0  0  0  0  0  0  0  0  0  0
   -2.2030    0.4521    5.0796 H   0  0  0  0  0  0  0  0  0  0  0  0
   -1.4351   -0.8090    3.3937 C   0  0  0  0  0  0  0  0  0  0  0  0
   -1.5347   -0.7231    2.3844 H   0  0  0  0  0  0  0  0  0  0  0  0
   -0.4985   -0.4826    3.6233 H   0  0  0  0  0  0  0  0  0  0  0  0
   -1.5331   -2.2824    3.7623 N   0  0  0  0  0  4  0  0  0  0  0  0
   -2.4712   -2.4790    4.0267 H   0  0  0  0  0  0  0  0  0  0  0  0
   -1.2749   -2.8233    2.9692 H   0  0  0  0  0  0  0  0  0  0  0  0
   -0.9136   -2.4587    4.5198 H   0  0  0  0  0  0  0  0  0  0  0  0
   -0.0068    2.9118    0.0523 C   0  0  0  0  0  0  0  0  0  0  0  0
   -0.8126    3.2433   -0.3991 H   0  0  0  0  0  0  0  0  0  0  0  0
    0.8200    3.2489   -0.3535 H   0  0  0  0  0  0  0  0  0  0  0  0
   -0.0363    3.2700    1.0814 H   0  0  0  0  0  0  0  0  0  0  0  0
    0.0005    1.4044   -0.0375 C   0  0  0  0  0  0  0  0  0  0  0  0
   -1.2158    0.6767    0.0331 C   0  0  0  0  0  0  0  0  0  0  0  0
   -2.0702    1.1712    0.1053 H   0  0  0  0  0  0  0  0  0  0  0  0
   -1.2080   -0.7082    0.0000 C   0  0  0  0  0  0  0  0  0  0  0  0
   -2.0749   -1.2133   -0.0267 H   0  0  0  0  0  0  0  0  0  0  0  0
    0.0044   -1.3832    0.0058 C   0  0  0  0  0  0  0  0  0  0  0  0
    0.0095   -2.3889    0.0137 H   0  0  0  0  0  0  0  0  0  0  0  0
    1.2080   -0.6880    0.0000 C   0  0  0  0  0  0  0  0  0  0  0  0
    2.0878   -1.1928   -0.0018 H   0  0  0  0  0  0  0  0  0  0  0  0
    1.2109    0.6982   -0.0014 C   0  0  0  0  0  0  0  0  0  0  0  0
    2.0693    1.1985    0.0222 H   0  0  0  0  0  0  0  0  0  0  0  0
  1  5  1  0
  5  8  1  0
  1  2  1  0
  1  3  1  0
  1  4  1  0
  5  6  1  0
  5  7  1  0
  8  9  1  0
  8 10  1  0
  8 11  1  0
 12 16  1  0
 16 17  2  0
 17 19  1  0
 19 21  2  0
 21 23  1  0
 23 25  2  0
 25 16  1  0
 12 13  1  0
 12 14  1  0
 12 15  1  0
 17 18  1  0
 19 20  1  0
 21 22  1  0
 23 24  1  0
 25 26  1  0
M  CHG  1   8   1
M  END
>  <PDB_ID>  (2811) 
pdb5a3d

>  <RESIDUE_NAME>  (2811) 
LYS   PHE

>  <FRAG_NAME>  (2811) 
ETAM   MBZ

>  <FRAG_ATOM_NUM>  (2811) 
fragi: 11  fragj: 15

>  <atom.prop.CHAIN_ID>  (2811) 
A A A A A A A A A A A Z Z Z Z Z Z Z Z Z Z Z Z Z Z Z

>  <atom.prop.IS_HEAVY_ATOM>  (2811) 
1 0 0 0 1 0 0 1 0 0 0 1 0 0 0 1 1 0 1 0 1 0 1 0 1 0

>  <DIFUSE_FUNC_ATOM>  (2811) 
n/a

>  <FINAL_SINGLE_POINT_ENERGY>  (2811) 
0

>  <NONCOV_INTER_ENERGY_QM>  (2811) 
0

>  <FF_Energy>  (2811) 
-2.04

>  <QM_Energy>  (2811) 
-7.62

>  <source>  (2811) 
ETAM_MBZ

>  <Index>  (2811) 
30156

$$$$
ETAM-pdb5a3v-B-LYS-4:MBZ-pdb5a3v-B-PHE-108
     RDKit          3D

 26 25  0  0  0  0  0  0  0  0999 V2000
   -1.0612   -2.2879   -5.2415 C   0  0  0  0  0  0  0  0  0  0  0  0
   -0.6329   -3.1109   -5.6083 H   0  0  0  0  0  0  0  0  0  0  0  0
   -0.3628   -1.6143   -5.0111 H   0  0  0  0  0  0  0  0  0  0  0  0
   -1.7177   -1.8663   -6.0028 H   0  0  0  0  0  0  0  0  0  0  0  0
   -1.8099   -2.6666   -3.9536 C   0  0  0  0  0  0  0  0  0  0  0  0
   -2.2364   -1.8438   -3.5776 H   0  0  0  0  0  0  0  0  0  0  0  0
   -2.5199   -3.3344   -4.1804 H   0  0  0  0  0  0  0  0  0  0  0  0
   -0.8891   -3.2567   -2.9292 N   0  0  0  0  0  4  0  0  0  0  0  0
   -1.4254   -3.7828   -2.2731 H   0  0  0  0  0  0  0  0  0  0  0  0
   -0.2326   -3.8533   -3.3856 H   0  0  0  0  0  0  0  0  0  0  0  0
   -0.4073   -2.5193   -2.4596 H   0  0  0  0  0  0  0  0  0  0  0  0
    0.0074    2.8927    0.0145 C   0  0  0  0  0  0  0  0  0  0  0  0
   -0.6968    3.2092   -0.6049 H   0  0  0  0  0  0  0  0  0  0  0  0
    0.9029    3.1988   -0.2754 H   0  0  0  0  0  0  0  0  0  0  0  0
   -0.1907    3.3345    0.9910 H   0  0  0  0  0  0  0  0  0  0  0  0
   -0.0008    1.3946    0.0073 C   0  0  0  0  0  0  0  0  0  0  0  0
   -1.1983    0.6944   -0.0088 C   0  0  0  0  0  0  0  0  0  0  0  0
   -2.0629    1.1903   -0.0282 H   0  0  0  0  0  0  0  0  0  0  0  0
   -1.2084   -0.6903   -0.0000 C   0  0  0  0  0  0  0  0  0  0  0  0
   -2.0819   -1.1869    0.0145 H   0  0  0  0  0  0  0  0  0  0  0  0
   -0.0009   -1.3930   -0.0094 C   0  0  0  0  0  0  0  0  0  0  0  0
   -0.0070   -2.3892   -0.0234 H   0  0  0  0  0  0  0  0  0  0  0  0
    1.2084   -0.6956   -0.0000 C   0  0  0  0  0  0  0  0  0  0  0  0
    2.0841   -1.1973    0.0002 H   0  0  0  0  0  0  0  0  0  0  0  0
    1.2000    0.6900    0.0109 C   0  0  0  0  0  0  0  0  0  0  0  0
    2.0647    1.1926    0.0206 H   0  0  0  0  0  0  0  0  0  0  0  0
  1  5  1  0
  5  8  1  0
  1  2  1  0
  1  3  1  0
  1  4  1  0
  5  6  1  0
  5  7  1  0
  8  9  1  0
  8 10  1  0
  8 11  1  0
 12 16  1  0
 16 17  2  0
 17 19  1  0
 19 21  2  0
 21 23  1  0
 23 25  2  0
 25 16  1  0
 12 13  1  0
 12 14  1  0
 12 15  1  0
 17 18  1  0
 19 20  1  0
 21 22  1  0
 23 24  1  0
 25 26  1  0
M  CHG  1   8   1
M  END
>  <PDB_ID>  (2812) 
pdb5a3v

>  <RESIDUE_NAME>  (2812) 
LYS   PHE

>  <FRAG_NAME>  (2812) 
ETAM   MBZ

>  <FRAG_ATOM_NUM>  (2812) 
fragi: 11  fragj: 15

>  <atom.prop.CHAIN_ID>  (2812) 
A A A A A A A A A A A Z Z Z Z Z Z Z Z Z Z Z Z Z Z Z

>  <atom.prop.IS_HEAVY_ATOM>  (2812) 
1 0 0 0 1 0 0 1 0 0 0 1 0 0 0 1 1 0 1 0 1 0 1 0 1 0

>  <DIFUSE_FUNC_ATOM>  (2812) 
n/a

>  <FINAL_SINGLE_POINT_ENERGY>  (2812) 
0

>  <NONCOV_INTER_ENERGY_QM>  (2812) 
0

>  <FF_Energy>  (2812) 
-2.31

>  <QM_Energy>  (2812) 
-8.5

>  <source>  (2812) 
ETAM_MBZ

>  <Index>  (2812) 
30158

$$$$
ETAM-pdb5a2a-A-LYS-72:MBZ-pdb5a2a-A-PHE-367
     RDKit          3D

 26 25  0  0  0  0  0  0  0  0999 V2000
   -1.4515   -1.0627    3.6603 C   0  0  0  0  0  0  0  0  0  0  0  0
   -2.0061   -0.7674    2.9273 H   0  0  0  0  0  0  0  0  0  0  0  0
   -1.8803   -1.0793    4.5254 H   0  0  0  0  0  0  0  0  0  0  0  0
   -1.0613   -2.0552    3.4351 H   0  0  0  0  0  0  0  0  0  0  0  0
   -0.2151   -0.1931    3.7333 C   0  0  0  0  0  0  0  0  0  0  0  0
    0.2112   -0.3051    4.6442 H   0  0  0  0  0  0  0  0  0  0  0  0
    0.4536   -0.5142    3.0436 H   0  0  0  0  0  0  0  0  0  0  0  0
   -0.4855    1.2523    3.5031 N   0  0  0  0  0  4  0  0  0  0  0  0
   -1.2013    1.5597    4.1299 H   0  0  0  0  0  0  0  0  0  0  0  0
    0.3506    1.7755    3.6659 H   0  0  0  0  0  0  0  0  0  0  0  0
   -0.7869    1.3872    2.5591 H   0  0  0  0  0  0  0  0  0  0  0  0
    0.0206    2.9010   -0.0003 C   0  0  0  0  0  0  0  0  0  0  0  0
    0.9288    3.2075    0.2056 H   0  0  0  0  0  0  0  0  0  0  0  0
   -0.6438    3.2215    0.6450 H   0  0  0  0  0  0  0  0  0  0  0  0
   -0.2493    3.2997   -0.9782 H   0  0  0  0  0  0  0  0  0  0  0  0
    0.0128    1.3963    0.0197 C   0  0  0  0  0  0  0  0  0  0  0  0
   -1.2268    0.6834    0.0052 C   0  0  0  0  0  0  0  0  0  0  0  0
   -2.0716    1.1868   -0.0026 H   0  0  0  0  0  0  0  0  0  0  0  0
   -1.2290   -0.7098   -0.0000 C   0  0  0  0  0  0  0  0  0  0  0  0
   -2.0835   -1.2159    0.0178 H   0  0  0  0  0  0  0  0  0  0  0  0
    0.0067   -1.3882   -0.0294 C   0  0  0  0  0  0  0  0  0  0  0  0
    0.0167   -2.3863   -0.0718 H   0  0  0  0  0  0  0  0  0  0  0  0
    1.2290   -0.6775    0.0000 C   0  0  0  0  0  0  0  0  0  0  0  0
    2.0986   -1.1839    0.0185 H   0  0  0  0  0  0  0  0  0  0  0  0
    1.2073    0.6958    0.0046 C   0  0  0  0  0  0  0  0  0  0  0  0
    2.0743    1.2077   -0.0044 H   0  0  0  0  0  0  0  0  0  0  0  0
  1  5  1  0
  5  8  1  0
  1  2  1  0
  1  3  1  0
  1  4  1  0
  5  6  1  0
  5  7  1  0
  8  9  1  0
  8 10  1  0
  8 11  1  0
 12 16  1  0
 16 17  2  0
 17 19  1  0
 19 21  2  0
 21 23  1  0
 23 25  2  0
 25 16  1  0
 12 13  1  0
 12 14  1  0
 12 15  1  0
 17 18  1  0
 19 20  1  0
 21 22  1  0
 23 24  1  0
 25 26  1  0
M  CHG  1   8   1
M  END
>  <PDB_ID>  (2813) 
pdb5a2a

>  <RESIDUE_NAME>  (2813) 
LYS   PHE

>  <FRAG_NAME>  (2813) 
ETAM   MBZ

>  <FRAG_ATOM_NUM>  (2813) 
fragi: 11  fragj: 15

>  <atom.prop.CHAIN_ID>  (2813) 
A A A A A A A A A A A Z Z Z Z Z Z Z Z Z Z Z Z Z Z Z

>  <atom.prop.IS_HEAVY_ATOM>  (2813) 
1 0 0 0 1 0 0 1 0 0 0 1 0 0 0 1 1 0 1 0 1 0 1 0 1 0

>  <DIFUSE_FUNC_ATOM>  (2813) 
n/a

>  <FINAL_SINGLE_POINT_ENERGY>  (2813) 
0

>  <NONCOV_INTER_ENERGY_QM>  (2813) 
0

>  <FF_Energy>  (2813) 
-8.28

>  <QM_Energy>  (2813) 
-14.14

>  <source>  (2813) 
ETAM_MBZ

>  <Index>  (2813) 
30170

$$$$
ETAM-pdb5a53-C-LYS-158:MBZ-pdb5a53-A-PHE-29
     RDKit          3D

 26 25  0  0  0  0  0  0  0  0999 V2000
   -2.8733   -0.7992    3.6183 C   0  0  0  0  0  0  0  0  0  0  0  0
   -2.9682    0.0317    3.0801 H   0  0  0  0  0  0  0  0  0  0  0  0
   -2.9330   -0.5922    4.5887 H   0  0  0  0  0  0  0  0  0  0  0  0
   -3.6777   -1.4852    3.3527 H   0  0  0  0  0  0  0  0  0  0  0  0
   -1.5117   -1.4083    3.3352 C   0  0  0  0  0  0  0  0  0  0  0  0
   -1.3986   -2.2301    3.8999 H   0  0  0  0  0  0  0  0  0  0  0  0
   -1.4668   -1.6722    2.3670 H   0  0  0  0  0  0  0  0  0  0  0  0
   -0.4060   -0.4567    3.6324 N   0  0  0  0  0  4  0  0  0  0  0  0
   -0.7801    0.4643    3.7363 H   0  0  0  0  0  0  0  0  0  0  0  0
    0.0483   -0.7311    4.4792 H   0  0  0  0  0  0  0  0  0  0  0  0
    0.2516   -0.4682    2.8802 H   0  0  0  0  0  0  0  0  0  0  0  0
   -0.0020    2.8961   -0.0073 C   0  0  0  0  0  0  0  0  0  0  0  0
    0.9313    3.2047    0.0885 H   0  0  0  0  0  0  0  0  0  0  0  0
   -0.5641    3.2051    0.7433 H   0  0  0  0  0  0  0  0  0  0  0  0
   -0.4032    3.3282   -0.9241 H   0  0  0  0  0  0  0  0  0  0  0  0
   -0.0002    1.3948   -0.0016 C   0  0  0  0  0  0  0  0  0  0  0  0
   -1.1916    0.6884    0.0014 C   0  0  0  0  0  0  0  0  0  0  0  0
   -2.0599    1.1808    0.0033 H   0  0  0  0  0  0  0  0  0  0  0  0
   -1.1956   -0.6925    0.0000 C   0  0  0  0  0  0  0  0  0  0  0  0
   -2.0741   -1.1892   -0.0009 H   0  0  0  0  0  0  0  0  0  0  0  0
    0.0002   -1.3858    0.0024 C   0  0  0  0  0  0  0  0  0  0  0  0
   -0.0039   -2.3869    0.0057 H   0  0  0  0  0  0  0  0  0  0  0  0
    1.1956   -0.6935   -0.0000 C   0  0  0  0  0  0  0  0  0  0  0  0
    2.0788   -1.1931    0.0013 H   0  0  0  0  0  0  0  0  0  0  0  0
    1.1916    0.6886   -0.0022 C   0  0  0  0  0  0  0  0  0  0  0  0
    2.0612    1.1875   -0.0050 H   0  0  0  0  0  0  0  0  0  0  0  0
  1  5  1  0
  5  8  1  0
  1  2  1  0
  1  3  1  0
  1  4  1  0
  5  6  1  0
  5  7  1  0
  8  9  1  0
  8 10  1  0
  8 11  1  0
 12 16  1  0
 16 17  2  0
 17 19  1  0
 19 21  2  0
 21 23  1  0
 23 25  2  0
 25 16  1  0
 12 13  1  0
 12 14  1  0
 12 15  1  0
 17 18  1  0
 19 20  1  0
 21 22  1  0
 23 24  1  0
 25 26  1  0
M  CHG  1   8   1
M  END
>  <PDB_ID>  (2814) 
pdb5a53

>  <RESIDUE_NAME>  (2814) 
LYS   PHE

>  <FRAG_NAME>  (2814) 
ETAM   MBZ

>  <FRAG_ATOM_NUM>  (2814) 
fragi: 11  fragj: 15

>  <atom.prop.CHAIN_ID>  (2814) 
A A A A A A A A A A A Z Z Z Z Z Z Z Z Z Z Z Z Z Z Z

>  <atom.prop.IS_HEAVY_ATOM>  (2814) 
1 0 0 0 1 0 0 1 0 0 0 1 0 0 0 1 1 0 1 0 1 0 1 0 1 0

>  <DIFUSE_FUNC_ATOM>  (2814) 
n/a

>  <FINAL_SINGLE_POINT_ENERGY>  (2814) 
0

>  <NONCOV_INTER_ENERGY_QM>  (2814) 
0

>  <FF_Energy>  (2814) 
-6.74

>  <QM_Energy>  (2814) 
-12.76

>  <source>  (2814) 
ETAM_MBZ

>  <Index>  (2814) 
30173

$$$$
ETAM-pdb5aa5-B-LYS-254:MBZ-pdb5aa5-B-PHE-242
     RDKit          3D

 26 25  0  0  0  0  0  0  0  0999 V2000
    0.7427    3.8054    3.8170 C   0  0  0  0  0  0  0  0  0  0  0  0
    0.6505    4.1234    2.8781 H   0  0  0  0  0  0  0  0  0  0  0  0
    1.0530    4.5470    4.4040 H   0  0  0  0  0  0  0  0  0  0  0  0
   -0.2295    3.4598    4.1684 H   0  0  0  0  0  0  0  0  0  0  0  0
    1.7698    2.6938    3.8555 C   0  0  0  0  0  0  0  0  0  0  0  0
    2.6029    3.0019    3.3985 H   0  0  0  0  0  0  0  0  0  0  0  0
    1.9726    2.4685    4.8070 H   0  0  0  0  0  0  0  0  0  0  0  0
    1.2503    1.4868    3.1659 N   0  0  0  0  0  4  0  0  0  0  0  0
    0.4496    1.1404    3.6565 H   0  0  0  0  0  0  0  0  0  0  0  0
    0.9911    1.7235    2.2289 H   0  0  0  0  0  0  0  0  0  0  0  0
    1.9600    0.7818    3.1469 H   0  0  0  0  0  0  0  0  0  0  0  0
   -0.0010    2.9043   -0.0085 C   0  0  0  0  0  0  0  0  0  0  0  0
    0.8425    3.2114    0.4024 H   0  0  0  0  0  0  0  0  0  0  0  0
   -0.7872    3.2113    0.5043 H   0  0  0  0  0  0  0  0  0  0  0  0
   -0.0631    3.3334   -1.0086 H   0  0  0  0  0  0  0  0  0  0  0  0
   -0.0008    1.3985    0.0005 C   0  0  0  0  0  0  0  0  0  0  0  0
   -1.1930    0.6871    0.0009 C   0  0  0  0  0  0  0  0  0  0  0  0
   -2.0621    1.1768    0.0000 H   0  0  0  0  0  0  0  0  0  0  0  0
   -1.1949   -0.6984    0.0000 C   0  0  0  0  0  0  0  0  0  0  0  0
   -2.0711   -1.1951   -0.0008 H   0  0  0  0  0  0  0  0  0  0  0  0
    0.0044   -1.3894    0.0014 C   0  0  0  0  0  0  0  0  0  0  0  0
    0.0020   -2.3891    0.0032 H   0  0  0  0  0  0  0  0  0  0  0  0
    1.1949   -0.6917    0.0000 C   0  0  0  0  0  0  0  0  0  0  0  0
    2.0821   -1.1874    0.0030 H   0  0  0  0  0  0  0  0  0  0  0  0
    1.1895    0.6940   -0.0028 C   0  0  0  0  0  0  0  0  0  0  0  0
    2.0604    1.1911   -0.0075 H   0  0  0  0  0  0  0  0  0  0  0  0
  1  5  1  0
  5  8  1  0
  1  2  1  0
  1  3  1  0
  1  4  1  0
  5  6  1  0
  5  7  1  0
  8  9  1  0
  8 10  1  0
  8 11  1  0
 12 16  1  0
 16 17  2  0
 17 19  1  0
 19 21  2  0
 21 23  1  0
 23 25  2  0
 25 16  1  0
 12 13  1  0
 12 14  1  0
 12 15  1  0
 17 18  1  0
 19 20  1  0
 21 22  1  0
 23 24  1  0
 25 26  1  0
M  CHG  1   8   1
M  END
>  <PDB_ID>  (2815) 
pdb5aa5

>  <RESIDUE_NAME>  (2815) 
LYS   PHE

>  <FRAG_NAME>  (2815) 
ETAM   MBZ

>  <FRAG_ATOM_NUM>  (2815) 
fragi: 11  fragj: 15

>  <atom.prop.CHAIN_ID>  (2815) 
A A A A A A A A A A A Z Z Z Z Z Z Z Z Z Z Z Z Z Z Z

>  <atom.prop.IS_HEAVY_ATOM>  (2815) 
1 0 0 0 1 0 0 1 0 0 0 1 0 0 0 1 1 0 1 0 1 0 1 0 1 0

>  <DIFUSE_FUNC_ATOM>  (2815) 
n/a

>  <FINAL_SINGLE_POINT_ENERGY>  (2815) 
0

>  <NONCOV_INTER_ENERGY_QM>  (2815) 
0

>  <FF_Energy>  (2815) 
-6.86

>  <QM_Energy>  (2815) 
-11.93

>  <source>  (2815) 
ETAM_MBZ

>  <Index>  (2815) 
30200

$$$$
ETAM-pdb5aa5-H-LYS-254:MBZ-pdb5aa5-H-PHE-242
     RDKit          3D

 26 25  0  0  0  0  0  0  0  0999 V2000
    4.0481    3.4984    2.5435 C   0  0  0  0  0  0  0  0  0  0  0  0
    3.6836    4.2125    1.9460 H   0  0  0  0  0  0  0  0  0  0  0  0
    4.7671    3.8819    3.1227 H   0  0  0  0  0  0  0  0  0  0  0  0
    3.2428    3.1348    3.1819 H   0  0  0  0  0  0  0  0  0  0  0  0
    4.6496    2.4050    1.6828 C   0  0  0  0  0  0  0  0  0  0  0  0
    5.5543    2.6970    1.3683 H   0  0  0  0  0  0  0  0  0  0  0  0
    4.7434    1.5720    2.2303 H   0  0  0  0  0  0  0  0  0  0  0  0
    3.7910    2.1195    0.5023 N   0  0  0  0  0  4  0  0  0  0  0  0
    4.3486    1.7205   -0.2251 H   0  0  0  0  0  0  0  0  0  0  0  0
    3.0707    1.4769    0.7627 H   0  0  0  0  0  0  0  0  0  0  0  0
    3.3784    2.9708    0.1779 H   0  0  0  0  0  0  0  0  0  0  0  0
    0.0011    2.8979   -0.0017 C   0  0  0  0  0  0  0  0  0  0  0  0
    0.8464    3.2033   -0.4132 H   0  0  0  0  0  0  0  0  0  0  0  0
   -0.0742    3.2061    0.9352 H   0  0  0  0  0  0  0  0  0  0  0  0
   -0.8215    3.3394   -0.5644 H   0  0  0  0  0  0  0  0  0  0  0  0
   -0.0001    1.3960    0.0006 C   0  0  0  0  0  0  0  0  0  0  0  0
   -1.1903    0.6870    0.0002 C   0  0  0  0  0  0  0  0  0  0  0  0
   -2.0598    1.1774   -0.0010 H   0  0  0  0  0  0  0  0  0  0  0  0
   -1.1929   -0.6971   -0.0000 C   0  0  0  0  0  0  0  0  0  0  0  0
   -2.0724   -1.1918    0.0013 H   0  0  0  0  0  0  0  0  0  0  0  0
    0.0002   -1.3850   -0.0004 C   0  0  0  0  0  0  0  0  0  0  0  0
   -0.0013   -2.3876   -0.0013 H   0  0  0  0  0  0  0  0  0  0  0  0
    1.1929   -0.6917    0.0000 C   0  0  0  0  0  0  0  0  0  0  0  0
    2.0771   -1.1914    0.0021 H   0  0  0  0  0  0  0  0  0  0  0  0
    1.1903    0.6908   -0.0004 C   0  0  0  0  0  0  0  0  0  0  0  0
    2.0599    1.1881   -0.0021 H   0  0  0  0  0  0  0  0  0  0  0  0
  1  5  1  0
  5  8  1  0
  1  2  1  0
  1  3  1  0
  1  4  1  0
  5  6  1  0
  5  7  1  0
  8  9  1  0
  8 10  1  0
  8 11  1  0
 12 16  1  0
 16 17  2  0
 17 19  1  0
 19 21  2  0
 21 23  1  0
 23 25  2  0
 25 16  1  0
 12 13  1  0
 12 14  1  0
 12 15  1  0
 17 18  1  0
 19 20  1  0
 21 22  1  0
 23 24  1  0
 25 26  1  0
M  CHG  1   8   1
M  END
>  <PDB_ID>  (2816) 
pdb5aa5

>  <RESIDUE_NAME>  (2816) 
LYS   PHE

>  <FRAG_NAME>  (2816) 
ETAM   MBZ

>  <FRAG_ATOM_NUM>  (2816) 
fragi: 11  fragj: 15

>  <atom.prop.CHAIN_ID>  (2816) 
A A A A A A A A A A A Z Z Z Z Z Z Z Z Z Z Z Z Z Z Z

>  <atom.prop.IS_HEAVY_ATOM>  (2816) 
1 0 0 0 1 0 0 1 0 0 0 1 0 0 0 1 1 0 1 0 1 0 1 0 1 0

>  <DIFUSE_FUNC_ATOM>  (2816) 
n/a

>  <FINAL_SINGLE_POINT_ENERGY>  (2816) 
0

>  <NONCOV_INTER_ENERGY_QM>  (2816) 
0

>  <FF_Energy>  (2816) 
19.51

>  <QM_Energy>  (2816) 
5.05

>  <source>  (2816) 
ETAM_MBZ

>  <Index>  (2816) 
30202

$$$$
ETAM-pdb6a1k-A-LYS-266:MBZ-pdb6a1k-A-PHE-243
     RDKit          3D

 26 25  0  0  0  0  0  0  0  0999 V2000
   -2.2072   -3.1808    4.0078 C   0  0  0  0  0  0  0  0  0  0  0  0
   -3.1135   -2.7507    4.1318 H   0  0  0  0  0  0  0  0  0  0  0  0
   -1.7182   -3.1325    4.8904 H   0  0  0  0  0  0  0  0  0  0  0  0
   -2.3458   -4.2269    3.7344 H   0  0  0  0  0  0  0  0  0  0  0  0
   -1.4443   -2.4018    2.9978 C   0  0  0  0  0  0  0  0  0  0  0  0
   -0.4928   -2.6737    3.0137 H   0  0  0  0  0  0  0  0  0  0  0  0
   -1.8398   -2.5372    2.1013 H   0  0  0  0  0  0  0  0  0  0  0  0
   -1.5595   -0.9916    3.3784 N   0  0  0  0  0  4  0  0  0  0  0  0
   -2.3508   -0.5768    2.9217 H   0  0  0  0  0  0  0  0  0  0  0  0
   -1.6781   -0.9130    4.3714 H   0  0  0  0  0  0  0  0  0  0  0  0
   -0.7304   -0.4949    3.1086 H   0  0  0  0  0  0  0  0  0  0  0  0
    0.0015    2.8978    0.0427 C   0  0  0  0  0  0  0  0  0  0  0  0
   -0.8030    3.2197   -0.4191 H   0  0  0  0  0  0  0  0  0  0  0  0
    0.8295    3.2172   -0.3776 H   0  0  0  0  0  0  0  0  0  0  0  0
   -0.0238    3.2768    1.0644 H   0  0  0  0  0  0  0  0  0  0  0  0
    0.0003    1.3925   -0.0097 C   0  0  0  0  0  0  0  0  0  0  0  0
   -1.1870    0.6886    0.0137 C   0  0  0  0  0  0  0  0  0  0  0  0
   -2.0552    1.1847    0.0402 H   0  0  0  0  0  0  0  0  0  0  0  0
   -1.1910   -0.6817    0.0000 C   0  0  0  0  0  0  0  0  0  0  0  0
   -2.0737   -1.1802   -0.0064 H   0  0  0  0  0  0  0  0  0  0  0  0
   -0.0029   -1.3829   -0.0033 C   0  0  0  0  0  0  0  0  0  0  0  0
   -0.0157   -2.3848   -0.0089 H   0  0  0  0  0  0  0  0  0  0  0  0
    1.1910   -0.7004   -0.0000 C   0  0  0  0  0  0  0  0  0  0  0  0
    2.0731   -1.2002    0.0046 H   0  0  0  0  0  0  0  0  0  0  0  0
    1.1897    0.6839   -0.0007 C   0  0  0  0  0  0  0  0  0  0  0  0
    2.0609    1.1788    0.0047 H   0  0  0  0  0  0  0  0  0  0  0  0
  1  5  1  0
  5  8  1  0
  1  2  1  0
  1  3  1  0
  1  4  1  0
  5  6  1  0
  5  7  1  0
  8  9  1  0
  8 10  1  0
  8 11  1  0
 12 16  1  0
 16 17  2  0
 17 19  1  0
 19 21  2  0
 21 23  1  0
 23 25  2  0
 25 16  1  0
 12 13  1  0
 12 14  1  0
 12 15  1  0
 17 18  1  0
 19 20  1  0
 21 22  1  0
 23 24  1  0
 25 26  1  0
M  CHG  1   8   1
M  END
>  <PDB_ID>  (2817) 
pdb6a1k

>  <RESIDUE_NAME>  (2817) 
LYS   PHE

>  <FRAG_NAME>  (2817) 
ETAM   MBZ

>  <FRAG_ATOM_NUM>  (2817) 
fragi: 11  fragj: 15

>  <atom.prop.CHAIN_ID>  (2817) 
A A A A A A A A A A A Z Z Z Z Z Z Z Z Z Z Z Z Z Z Z

>  <atom.prop.IS_HEAVY_ATOM>  (2817) 
1 0 0 0 1 0 0 1 0 0 0 1 0 0 0 1 1 0 1 0 1 0 1 0 1 0

>  <DIFUSE_FUNC_ATOM>  (2817) 
n/a

>  <FINAL_SINGLE_POINT_ENERGY>  (2817) 
0

>  <NONCOV_INTER_ENERGY_QM>  (2817) 
0

>  <FF_Energy>  (2817) 
-5.18

>  <QM_Energy>  (2817) 
-10.7

>  <source>  (2817) 
ETAM_MBZ

>  <Index>  (2817) 
30212

$$$$
ETAM-pdb6a1k-B-LYS-266:MBZ-pdb6a1k-B-PHE-243
     RDKit          3D

 26 25  0  0  0  0  0  0  0  0999 V2000
    3.6939   -4.4670   -1.0826 C   0  0  0  0  0  0  0  0  0  0  0  0
    4.6341   -4.6236   -1.3302 H   0  0  0  0  0  0  0  0  0  0  0  0
    3.0691   -4.8280   -1.7516 H   0  0  0  0  0  0  0  0  0  0  0  0
    3.5063   -4.9751   -0.1367 H   0  0  0  0  0  0  0  0  0  0  0  0
    3.4540   -2.9978   -0.9059 C   0  0  0  0  0  0  0  0  0  0  0  0
    4.1012   -2.4947   -1.4494 H   0  0  0  0  0  0  0  0  0  0  0  0
    2.5235   -2.7877   -1.1499 H   0  0  0  0  0  0  0  0  0  0  0  0
    3.6741   -2.7383    0.5068 N   0  0  0  0  0  4  0  0  0  0  0  0
    4.6598   -2.7066    0.7065 H   0  0  0  0  0  0  0  0  0  0  0  0
    3.2653   -1.8578    0.7679 H   0  0  0  0  0  0  0  0  0  0  0  0
    3.2563   -3.4637    1.0640 H   0  0  0  0  0  0  0  0  0  0  0  0
   -0.0087    2.8892    0.0042 C   0  0  0  0  0  0  0  0  0  0  0  0
    0.3736    3.2009    0.8643 H   0  0  0  0  0  0  0  0  0  0  0  0
   -0.9471    3.1925   -0.0961 H   0  0  0  0  0  0  0  0  0  0  0  0
    0.5728    3.3421   -0.7989 H   0  0  0  0  0  0  0  0  0  0  0  0
    0.0024    1.3969    0.0012 C   0  0  0  0  0  0  0  0  0  0  0  0
   -1.1909    0.6926    0.0031 C   0  0  0  0  0  0  0  0  0  0  0  0
   -2.0589    1.1827    0.0069 H   0  0  0  0  0  0  0  0  0  0  0  0
   -1.1988   -0.6980   -0.0000 C   0  0  0  0  0  0  0  0  0  0  0  0
   -2.0795   -1.1861    0.0006 H   0  0  0  0  0  0  0  0  0  0  0  0
   -0.0075   -1.3900   -0.0041 C   0  0  0  0  0  0  0  0  0  0  0  0
   -0.0061   -2.3905   -0.0090 H   0  0  0  0  0  0  0  0  0  0  0  0
    1.1988   -0.6935    0.0000 C   0  0  0  0  0  0  0  0  0  0  0  0
    2.0772   -1.1969    0.0046 H   0  0  0  0  0  0  0  0  0  0  0  0
    1.1960    0.6921   -0.0002 C   0  0  0  0  0  0  0  0  0  0  0  0
    2.0646    1.1886   -0.0031 H   0  0  0  0  0  0  0  0  0  0  0  0
  1  5  1  0
  5  8  1  0
  1  2  1  0
  1  3  1  0
  1  4  1  0
  5  6  1  0
  5  7  1  0
  8  9  1  0
  8 10  1  0
  8 11  1  0
 12 16  1  0
 16 17  2  0
 17 19  1  0
 19 21  2  0
 21 23  1  0
 23 25  2  0
 25 16  1  0
 12 13  1  0
 12 14  1  0
 12 15  1  0
 17 18  1  0
 19 20  1  0
 21 22  1  0
 23 24  1  0
 25 26  1  0
M  CHG  1   8   1
M  END
>  <PDB_ID>  (2818) 
pdb6a1k

>  <RESIDUE_NAME>  (2818) 
LYS   PHE

>  <FRAG_NAME>  (2818) 
ETAM   MBZ

>  <FRAG_ATOM_NUM>  (2818) 
fragi: 11  fragj: 15

>  <atom.prop.CHAIN_ID>  (2818) 
A A A A A A A A A A A Z Z Z Z Z Z Z Z Z Z Z Z Z Z Z

>  <atom.prop.IS_HEAVY_ATOM>  (2818) 
1 0 0 0 1 0 0 1 0 0 0 1 0 0 0 1 1 0 1 0 1 0 1 0 1 0

>  <DIFUSE_FUNC_ATOM>  (2818) 
n/a

>  <FINAL_SINGLE_POINT_ENERGY>  (2818) 
0

>  <NONCOV_INTER_ENERGY_QM>  (2818) 
0

>  <FF_Energy>  (2818) 
7.96

>  <QM_Energy>  (2818) 
-1.07

>  <source>  (2818) 
ETAM_MBZ

>  <Index>  (2818) 
30219

$$$$
ETAM-pdb6a58-A-LYS-1347:MBZ-pdb6a58-A-PHE-1343
     RDKit          3D

 26 25  0  0  0  0  0  0  0  0999 V2000
   -0.4170   -1.6398    3.6705 C   0  0  0  0  0  0  0  0  0  0  0  0
   -0.1642   -2.1736    4.4739 H   0  0  0  0  0  0  0  0  0  0  0  0
   -0.4589   -2.2295    2.8678 H   0  0  0  0  0  0  0  0  0  0  0  0
   -1.4001   -1.1992    3.8361 H   0  0  0  0  0  0  0  0  0  0  0  0
    0.6498   -0.5818    3.4376 C   0  0  0  0  0  0  0  0  0  0  0  0
    0.3647    0.0043    2.6725 H   0  0  0  0  0  0  0  0  0  0  0  0
    0.7314   -0.0139    4.2627 H   0  0  0  0  0  0  0  0  0  0  0  0
    1.9783   -1.1802    3.1251 N   0  0  0  0  0  4  0  0  0  0  0  0
    2.4558   -0.5999    2.4659 H   0  0  0  0  0  0  0  0  0  0  0  0
    2.5164   -1.2469    3.9640 H   0  0  0  0  0  0  0  0  0  0  0  0
    1.8473   -2.0913    2.7373 H   0  0  0  0  0  0  0  0  0  0  0  0
    0.0214    2.9187   -0.0140 C   0  0  0  0  0  0  0  0  0  0  0  0
   -0.1638    3.2132   -0.9410 H   0  0  0  0  0  0  0  0  0  0  0  0
    0.9198    3.2146    0.2799 H   0  0  0  0  0  0  0  0  0  0  0  0
   -0.7127    3.3937    0.6369 H   0  0  0  0  0  0  0  0  0  0  0  0
    0.0009    1.4058    0.0060 C   0  0  0  0  0  0  0  0  0  0  0  0
   -1.1992    0.6918   -0.0061 C   0  0  0  0  0  0  0  0  0  0  0  0
   -2.0642    1.1835   -0.0204 H   0  0  0  0  0  0  0  0  0  0  0  0
   -1.1999   -0.6953    0.0000 C   0  0  0  0  0  0  0  0  0  0  0  0
   -2.0776   -1.1919    0.0048 H   0  0  0  0  0  0  0  0  0  0  0  0
   -0.0004   -1.3925    0.0012 C   0  0  0  0  0  0  0  0  0  0  0  0
   -0.0058   -2.3918    0.0027 H   0  0  0  0  0  0  0  0  0  0  0  0
    1.1999   -0.6985   -0.0000 C   0  0  0  0  0  0  0  0  0  0  0  0
    2.0808   -1.1988    0.0013 H   0  0  0  0  0  0  0  0  0  0  0  0
    1.1987    0.6888   -0.0011 C   0  0  0  0  0  0  0  0  0  0  0  0
    2.0671    1.1860   -0.0077 H   0  0  0  0  0  0  0  0  0  0  0  0
  1  5  1  0
  5  8  1  0
  1  2  1  0
  1  3  1  0
  1  4  1  0
  5  6  1  0
  5  7  1  0
  8  9  1  0
  8 10  1  0
  8 11  1  0
 12 16  1  0
 16 17  2  0
 17 19  1  0
 19 21  2  0
 21 23  1  0
 23 25  2  0
 25 16  1  0
 12 13  1  0
 12 14  1  0
 12 15  1  0
 17 18  1  0
 19 20  1  0
 21 22  1  0
 23 24  1  0
 25 26  1  0
M  CHG  1   8   1
M  END
>  <PDB_ID>  (2819) 
pdb6a58

>  <RESIDUE_NAME>  (2819) 
LYS   PHE

>  <FRAG_NAME>  (2819) 
ETAM   MBZ

>  <FRAG_ATOM_NUM>  (2819) 
fragi: 11  fragj: 15

>  <atom.prop.CHAIN_ID>  (2819) 
A A A A A A A A A A A Z Z Z Z Z Z Z Z Z Z Z Z Z Z Z

>  <atom.prop.IS_HEAVY_ATOM>  (2819) 
1 0 0 0 1 0 0 1 0 0 0 1 0 0 0 1 1 0 1 0 1 0 1 0 1 0

>  <DIFUSE_FUNC_ATOM>  (2819) 
n/a

>  <FINAL_SINGLE_POINT_ENERGY>  (2819) 
0

>  <NONCOV_INTER_ENERGY_QM>  (2819) 
0

>  <FF_Energy>  (2819) 
-5.28

>  <QM_Energy>  (2819) 
-12.78

>  <source>  (2819) 
ETAM_MBZ

>  <Index>  (2819) 
30222

$$$$
ETAM-pdb6a3a-C-LYS-50:MBZ-pdb6a3a-C-PHE-7
     RDKit          3D

 26 25  0  0  0  0  0  0  0  0999 V2000
    4.3554    0.5255    2.0372 C   0  0  0  0  0  0  0  0  0  0  0  0
    3.5188    0.0291    1.8101 H   0  0  0  0  0  0  0  0  0  0  0  0
    4.4738    0.5466    3.0297 H   0  0  0  0  0  0  0  0  0  0  0  0
    5.2050    0.0097    1.5898 H   0  0  0  0  0  0  0  0  0  0  0  0
    4.2214    1.9495    1.5381 C   0  0  0  0  0  0  0  0  0  0  0  0
    5.0401    2.4686    1.8095 H   0  0  0  0  0  0  0  0  0  0  0  0
    4.1711    1.9395    0.5324 H   0  0  0  0  0  0  0  0  0  0  0  0
    3.0163    2.6218    2.0796 N   0  0  0  0  0  4  0  0  0  0  0  0
    2.1951    2.1578    1.7442 H   0  0  0  0  0  0  0  0  0  0  0  0
    3.0340    2.5851    3.0794 H   0  0  0  0  0  0  0  0  0  0  0  0
    3.0041    3.5770    1.7815 H   0  0  0  0  0  0  0  0  0  0  0  0
   -0.0002    2.9081    0.0066 C   0  0  0  0  0  0  0  0  0  0  0  0
   -0.7054    3.2150   -0.6147 H   0  0  0  0  0  0  0  0  0  0  0  0
    0.8941    3.2136   -0.2859 H   0  0  0  0  0  0  0  0  0  0  0  0
   -0.2008    3.3481    0.9835 H   0  0  0  0  0  0  0  0  0  0  0  0
   -0.0001    1.3996   -0.0014 C   0  0  0  0  0  0  0  0  0  0  0  0
   -1.1912    0.6898    0.0023 C   0  0  0  0  0  0  0  0  0  0  0  0
   -2.0608    1.1775    0.0060 H   0  0  0  0  0  0  0  0  0  0  0  0
   -1.1909   -0.6976   -0.0000 C   0  0  0  0  0  0  0  0  0  0  0  0
   -2.0721   -1.1911    0.0009 H   0  0  0  0  0  0  0  0  0  0  0  0
   -0.0002   -1.3867   -0.0008 C   0  0  0  0  0  0  0  0  0  0  0  0
   -0.0028   -2.3895   -0.0019 H   0  0  0  0  0  0  0  0  0  0  0  0
    1.1909   -0.6954    0.0000 C   0  0  0  0  0  0  0  0  0  0  0  0
    2.0766   -1.1942    0.0018 H   0  0  0  0  0  0  0  0  0  0  0  0
    1.1914    0.6902   -0.0001 C   0  0  0  0  0  0  0  0  0  0  0  0
    2.0616    1.1853    0.0005 H   0  0  0  0  0  0  0  0  0  0  0  0
  1  5  1  0
  5  8  1  0
  1  2  1  0
  1  3  1  0
  1  4  1  0
  5  6  1  0
  5  7  1  0
  8  9  1  0
  8 10  1  0
  8 11  1  0
 12 16  1  0
 16 17  2  0
 17 19  1  0
 19 21  2  0
 21 23  1  0
 23 25  2  0
 25 16  1  0
 12 13  1  0
 12 14  1  0
 12 15  1  0
 17 18  1  0
 19 20  1  0
 21 22  1  0
 23 24  1  0
 25 26  1  0
M  CHG  1   8   1
M  END
>  <PDB_ID>  (2820) 
pdb6a3a

>  <RESIDUE_NAME>  (2820) 
LYS   PHE

>  <FRAG_NAME>  (2820) 
ETAM   MBZ

>  <FRAG_ATOM_NUM>  (2820) 
fragi: 11  fragj: 15

>  <atom.prop.CHAIN_ID>  (2820) 
A A A A A A A A A A A Z Z Z Z Z Z Z Z Z Z Z Z Z Z Z

>  <atom.prop.IS_HEAVY_ATOM>  (2820) 
1 0 0 0 1 0 0 1 0 0 0 1 0 0 0 1 1 0 1 0 1 0 1 0 1 0

>  <DIFUSE_FUNC_ATOM>  (2820) 
n/a

>  <FINAL_SINGLE_POINT_ENERGY>  (2820) 
0

>  <NONCOV_INTER_ENERGY_QM>  (2820) 
0

>  <FF_Energy>  (2820) 
-1.78

>  <QM_Energy>  (2820) 
-7.56

>  <source>  (2820) 
ETAM_MBZ

>  <Index>  (2820) 
30248

$$$$
ETAM-pdb6a9x-D-LYS-66:MBZ-pdb6a9x-D-PHE-62
     RDKit          3D

 26 25  0  0  0  0  0  0  0  0999 V2000
    1.5129   -2.2925    3.4508 C   0  0  0  0  0  0  0  0  0  0  0  0
    2.1288   -1.6249    3.0341 H   0  0  0  0  0  0  0  0  0  0  0  0
    2.0333   -2.9056    4.0443 H   0  0  0  0  0  0  0  0  0  0  0  0
    0.7842   -1.7575    4.0597 H   0  0  0  0  0  0  0  0  0  0  0  0
    0.8636   -3.1076    2.3562 C   0  0  0  0  0  0  0  0  0  0  0  0
    0.0333   -3.5345    2.7134 H   0  0  0  0  0  0  0  0  0  0  0  0
    0.6268   -2.5040    1.5946 H   0  0  0  0  0  0  0  0  0  0  0  0
    1.7884   -4.1632    1.8745 N   0  0  0  0  0  4  0  0  0  0  0  0
    1.5594   -4.4034    0.9309 H   0  0  0  0  0  0  0  0  0  0  0  0
    2.7291   -3.8252    1.9132 H   0  0  0  0  0  0  0  0  0  0  0  0
    1.7017   -4.9730    2.4545 H   0  0  0  0  0  0  0  0  0  0  0  0
   -0.0019    2.8965    0.0123 C   0  0  0  0  0  0  0  0  0  0  0  0
   -0.7264    3.2085   -0.5813 H   0  0  0  0  0  0  0  0  0  0  0  0
    0.8821    3.2085   -0.2977 H   0  0  0  0  0  0  0  0  0  0  0  0
   -0.1763    3.3196    1.0016 H   0  0  0  0  0  0  0  0  0  0  0  0
   -0.0000    1.3968   -0.0011 C   0  0  0  0  0  0  0  0  0  0  0  0
   -1.1884    0.6911    0.0014 C   0  0  0  0  0  0  0  0  0  0  0  0
   -2.0590    1.1796    0.0026 H   0  0  0  0  0  0  0  0  0  0  0  0
   -1.1928   -0.6957    0.0000 C   0  0  0  0  0  0  0  0  0  0  0  0
   -2.0721   -1.1885    0.0002 H   0  0  0  0  0  0  0  0  0  0  0  0
    0.0009   -1.3891   -0.0000 C   0  0  0  0  0  0  0  0  0  0  0  0
   -0.0026   -2.3894   -0.0006 H   0  0  0  0  0  0  0  0  0  0  0  0
    1.1928   -0.6950   -0.0000 C   0  0  0  0  0  0  0  0  0  0  0  0
    2.0778   -1.1906    0.0019 H   0  0  0  0  0  0  0  0  0  0  0  0
    1.1875    0.6920   -0.0002 C   0  0  0  0  0  0  0  0  0  0  0  0
    2.0597    1.1871   -0.0003 H   0  0  0  0  0  0  0  0  0  0  0  0
  1  5  1  0
  5  8  1  0
  1  2  1  0
  1  3  1  0
  1  4  1  0
  5  6  1  0
  5  7  1  0
  8  9  1  0
  8 10  1  0
  8 11  1  0
 12 16  1  0
 16 17  2  0
 17 19  1  0
 19 21  2  0
 21 23  1  0
 23 25  2  0
 25 16  1  0
 12 13  1  0
 12 14  1  0
 12 15  1  0
 17 18  1  0
 19 20  1  0
 21 22  1  0
 23 24  1  0
 25 26  1  0
M  CHG  1   8   1
M  END
>  <PDB_ID>  (2821) 
pdb6a9x

>  <RESIDUE_NAME>  (2821) 
LYS   PHE

>  <FRAG_NAME>  (2821) 
ETAM   MBZ

>  <FRAG_ATOM_NUM>  (2821) 
fragi: 11  fragj: 15

>  <atom.prop.CHAIN_ID>  (2821) 
A A A A A A A A A A A Z Z Z Z Z Z Z Z Z Z Z Z Z Z Z

>  <atom.prop.IS_HEAVY_ATOM>  (2821) 
1 0 0 0 1 0 0 1 0 0 0 1 0 0 0 1 1 0 1 0 1 0 1 0 1 0

>  <DIFUSE_FUNC_ATOM>  (2821) 
n/a

>  <FINAL_SINGLE_POINT_ENERGY>  (2821) 
0

>  <NONCOV_INTER_ENERGY_QM>  (2821) 
0

>  <FF_Energy>  (2821) 
23.1

>  <QM_Energy>  (2821) 
-0.68

>  <source>  (2821) 
ETAM_MBZ

>  <Index>  (2821) 
30250

$$$$
ETAM-pdb6a6e-D-LYS-215:MBZ-pdb6a6e-D-PHE-85
     RDKit          3D

 26 25  0  0  0  0  0  0  0  0999 V2000
   -2.8046   -1.2637    4.8960 C   0  0  0  0  0  0  0  0  0  0  0  0
   -2.1516   -1.8213    4.3944 H   0  0  0  0  0  0  0  0  0  0  0  0
   -3.7304   -1.5921    4.7439 H   0  0  0  0  0  0  0  0  0  0  0  0
   -2.5801   -1.3446    5.9596 H   0  0  0  0  0  0  0  0  0  0  0  0
   -2.7052    0.1734    4.4025 C   0  0  0  0  0  0  0  0  0  0  0  0
   -3.3056    0.7494    4.9655 H   0  0  0  0  0  0  0  0  0  0  0  0
   -1.7576    0.4884    4.5148 H   0  0  0  0  0  0  0  0  0  0  0  0
   -3.0980    0.2954    2.9806 N   0  0  0  0  0  4  0  0  0  0  0  0
   -3.9123   -0.2612    2.8086 H   0  0  0  0  0  0  0  0  0  0  0  0
   -3.3004    1.2524    2.7689 H   0  0  0  0  0  0  0  0  0  0  0  0
   -2.3495   -0.0218    2.3972 H   0  0  0  0  0  0  0  0  0  0  0  0
   -0.0117    2.8829   -0.0302 C   0  0  0  0  0  0  0  0  0  0  0  0
   -0.5299    3.1664   -0.8288 H   0  0  0  0  0  0  0  0  0  0  0  0
    0.9295    3.1957   -0.0959 H   0  0  0  0  0  0  0  0  0  0  0  0
   -0.4589    3.3615    0.8410 H   0  0  0  0  0  0  0  0  0  0  0  0
   -0.0042    1.3903    0.0135 C   0  0  0  0  0  0  0  0  0  0  0  0
   -1.1904    0.6702    0.0158 C   0  0  0  0  0  0  0  0  0  0  0  0
   -2.0629    1.1602    0.0281 H   0  0  0  0  0  0  0  0  0  0  0  0
   -1.1906   -0.7096   -0.0000 C   0  0  0  0  0  0  0  0  0  0  0  0
   -2.0591   -1.2122   -0.0034 H   0  0  0  0  0  0  0  0  0  0  0  0
    0.0162   -1.3813   -0.0100 C   0  0  0  0  0  0  0  0  0  0  0  0
    0.0211   -2.3860   -0.0247 H   0  0  0  0  0  0  0  0  0  0  0  0
    1.1906   -0.6799   -0.0000 C   0  0  0  0  0  0  0  0  0  0  0  0
    2.0857   -1.1645    0.0229 H   0  0  0  0  0  0  0  0  0  0  0  0
    1.1784    0.7104   -0.0194 C   0  0  0  0  0  0  0  0  0  0  0  0
    2.0482    1.2045   -0.0589 H   0  0  0  0  0  0  0  0  0  0  0  0
  1  5  1  0
  5  8  1  0
  1  2  1  0
  1  3  1  0
  1  4  1  0
  5  6  1  0
  5  7  1  0
  8  9  1  0
  8 10  1  0
  8 11  1  0
 12 16  1  0
 16 17  2  0
 17 19  1  0
 19 21  2  0
 21 23  1  0
 23 25  2  0
 25 16  1  0
 12 13  1  0
 12 14  1  0
 12 15  1  0
 17 18  1  0
 19 20  1  0
 21 22  1  0
 23 24  1  0
 25 26  1  0
M  CHG  1   8   1
M  END
>  <PDB_ID>  (2822) 
pdb6a6e

>  <RESIDUE_NAME>  (2822) 
LYS   PHE

>  <FRAG_NAME>  (2822) 
ETAM   MBZ

>  <FRAG_ATOM_NUM>  (2822) 
fragi: 11  fragj: 15

>  <atom.prop.CHAIN_ID>  (2822) 
A A A A A A A A A A A Z Z Z Z Z Z Z Z Z Z Z Z Z Z Z

>  <atom.prop.IS_HEAVY_ATOM>  (2822) 
1 0 0 0 1 0 0 1 0 0 0 1 0 0 0 1 1 0 1 0 1 0 1 0 1 0

>  <DIFUSE_FUNC_ATOM>  (2822) 
n/a

>  <FINAL_SINGLE_POINT_ENERGY>  (2822) 
0

>  <NONCOV_INTER_ENERGY_QM>  (2822) 
0

>  <FF_Energy>  (2822) 
-3.21

>  <QM_Energy>  (2822) 
-8.97

>  <source>  (2822) 
ETAM_MBZ

>  <Index>  (2822) 
30274

$$$$
ETAM-pdb6a45-A-LYS-59:MBZ-pdb6a45-A-PHE-33
     RDKit          3D

 26 25  0  0  0  0  0  0  0  0999 V2000
   -1.4407   -1.3908    3.5819 C   0  0  0  0  0  0  0  0  0  0  0  0
   -1.8078   -1.9360    4.2946 H   0  0  0  0  0  0  0  0  0  0  0  0
   -1.8086   -1.6647    2.7276 H   0  0  0  0  0  0  0  0  0  0  0  0
   -1.6987   -0.3473    3.7626 H   0  0  0  0  0  0  0  0  0  0  0  0
    0.0612   -1.6155    3.5431 C   0  0  0  0  0  0  0  0  0  0  0  0
    0.4547   -1.0368    2.8715 H   0  0  0  0  0  0  0  0  0  0  0  0
    0.4374   -1.4236    4.4159 H   0  0  0  0  0  0  0  0  0  0  0  0
    0.3819   -3.0266    3.1928 N   0  0  0  0  0  4  0  0  0  0  0  0
    0.0467   -3.2251    2.3928 H   0  0  0  0  0  0  0  0  0  0  0  0
    1.2645   -3.1412    3.1744 H   0  0  0  0  0  0  0  0  0  0  0  0
    0.0313   -3.5768    3.7981 H   0  0  0  0  0  0  0  0  0  0  0  0
    0.0543    2.8991   -0.0235 C   0  0  0  0  0  0  0  0  0  0  0  0
    0.2817    3.1681   -0.9271 H   0  0  0  0  0  0  0  0  0  0  0  0
    0.7624    3.1708    0.5811 H   0  0  0  0  0  0  0  0  0  0  0  0
   -0.8613    3.4142    0.2669 H   0  0  0  0  0  0  0  0  0  0  0  0
   -0.0011    1.3986   -0.0037 C   0  0  0  0  0  0  0  0  0  0  0  0
   -1.1934    0.7031   -0.0017 C   0  0  0  0  0  0  0  0  0  0  0  0
   -1.9997    1.1669   -0.0085 H   0  0  0  0  0  0  0  0  0  0  0  0
   -1.1967   -0.6887   -0.0000 C   0  0  0  0  0  0  0  0  0  0  0  0
   -2.0030   -1.1507    0.0022 H   0  0  0  0  0  0  0  0  0  0  0  0
    0.0038   -1.3891    0.0029 C   0  0  0  0  0  0  0  0  0  0  0  0
    0.0013   -2.3188    0.0100 H   0  0  0  0  0  0  0  0  0  0  0  0
    1.1967   -0.7039   -0.0000 C   0  0  0  0  0  0  0  0  0  0  0  0
    2.0026   -1.1680    0.0060 H   0  0  0  0  0  0  0  0  0  0  0  0
    1.1907    0.6800    0.0024 C   0  0  0  0  0  0  0  0  0  0  0  0
    1.9992    1.1398   -0.0047 H   0  0  0  0  0  0  0  0  0  0  0  0
  1  5  1  0
  5  8  1  0
  1  2  1  0
  1  3  1  0
  1  4  1  0
  5  6  1  0
  5  7  1  0
  8  9  1  0
  8 10  1  0
  8 11  1  0
 12 16  1  0
 16 17  2  0
 17 19  1  0
 19 21  2  0
 21 23  1  0
 23 25  2  0
 25 16  1  0
 12 13  1  0
 12 14  1  0
 12 15  1  0
 17 18  1  0
 19 20  1  0
 21 22  1  0
 23 24  1  0
 25 26  1  0
M  CHG  1   8   1
M  END
>  <PDB_ID>  (2823) 
pdb6a45

>  <RESIDUE_NAME>  (2823) 
LYS   PHE

>  <FRAG_NAME>  (2823) 
ETAM   MBZ

>  <FRAG_ATOM_NUM>  (2823) 
fragi: 11  fragj: 15

>  <atom.prop.CHAIN_ID>  (2823) 
A A A A A A A A A A A Z Z Z Z Z Z Z Z Z Z Z Z Z Z Z

>  <atom.prop.IS_HEAVY_ATOM>  (2823) 
1 0 0 0 1 0 0 1 0 0 0 1 0 0 0 1 1 0 1 0 1 0 1 0 1 0

>  <DIFUSE_FUNC_ATOM>  (2823) 
n/a

>  <FINAL_SINGLE_POINT_ENERGY>  (2823) 
0

>  <NONCOV_INTER_ENERGY_QM>  (2823) 
0

>  <FF_Energy>  (2823) 
-3.67

>  <QM_Energy>  (2823) 
-9.49

>  <source>  (2823) 
ETAM_MBZ

>  <Index>  (2823) 
30303

$$$$
ETAM-pdb5af0-A-LYS-107:MBZ-pdb5af0-C-PHE-168
     RDKit          3D

 26 25  0  0  0  0  0  0  0  0999 V2000
    1.0429    1.0103   -4.5238 C   0  0  0  0  0  0  0  0  0  0  0  0
    0.4818    0.2455   -4.7300 H   0  0  0  0  0  0  0  0  0  0  0  0
    1.6788    1.2421   -5.2194 H   0  0  0  0  0  0  0  0  0  0  0  0
    0.4167    1.8732   -4.2972 H   0  0  0  0  0  0  0  0  0  0  0  0
    1.8048    0.7259   -3.2391 C   0  0  0  0  0  0  0  0  0  0  0  0
    2.4042    1.5360   -3.0424 H   0  0  0  0  0  0  0  0  0  0  0  0
    1.1257    0.6980   -2.4694 H   0  0  0  0  0  0  0  0  0  0  0  0
    2.6078   -0.4875   -3.2219 N   0  0  0  0  0  4  0  0  0  0  0  0
    2.1809   -1.1956   -3.7932 H   0  0  0  0  0  0  0  0  0  0  0  0
    3.5293   -0.2997   -3.5767 H   0  0  0  0  0  0  0  0  0  0  0  0
    2.6891   -0.8375   -2.2831 H   0  0  0  0  0  0  0  0  0  0  0  0
   -0.0095    2.8987    0.0258 C   0  0  0  0  0  0  0  0  0  0  0  0
   -0.6340    3.2200   -0.6651 H   0  0  0  0  0  0  0  0  0  0  0  0
    0.9106    3.2122   -0.1356 H   0  0  0  0  0  0  0  0  0  0  0  0
   -0.3376    3.2883    0.9895 H   0  0  0  0  0  0  0  0  0  0  0  0
   -0.0009    1.3968   -0.0213 C   0  0  0  0  0  0  0  0  0  0  0  0
   -1.1918    0.6834    0.0132 C   0  0  0  0  0  0  0  0  0  0  0  0
   -2.0599    1.1731    0.0470 H   0  0  0  0  0  0  0  0  0  0  0  0
   -1.1924   -0.7002    0.0000 C   0  0  0  0  0  0  0  0  0  0  0  0
   -2.0713   -1.1955   -0.0066 H   0  0  0  0  0  0  0  0  0  0  0  0
   -0.0014   -1.3822   -0.0023 C   0  0  0  0  0  0  0  0  0  0  0  0
    0.0009   -2.3867   -0.0059 H   0  0  0  0  0  0  0  0  0  0  0  0
    1.1924   -0.6894   -0.0000 C   0  0  0  0  0  0  0  0  0  0  0  0
    2.0763   -1.1923   -0.0043 H   0  0  0  0  0  0  0  0  0  0  0  0
    1.1941    0.6915    0.0104 C   0  0  0  0  0  0  0  0  0  0  0  0
    2.0609    1.1891    0.0404 H   0  0  0  0  0  0  0  0  0  0  0  0
  1  5  1  0
  5  8  1  0
  1  2  1  0
  1  3  1  0
  1  4  1  0
  5  6  1  0
  5  7  1  0
  8  9  1  0
  8 10  1  0
  8 11  1  0
 12 16  1  0
 16 17  2  0
 17 19  1  0
 19 21  2  0
 21 23  1  0
 23 25  2  0
 25 16  1  0
 12 13  1  0
 12 14  1  0
 12 15  1  0
 17 18  1  0
 19 20  1  0
 21 22  1  0
 23 24  1  0
 25 26  1  0
M  CHG  1   8   1
M  END
>  <PDB_ID>  (2824) 
pdb5af0

>  <RESIDUE_NAME>  (2824) 
LYS   PHE

>  <FRAG_NAME>  (2824) 
ETAM   MBZ

>  <FRAG_ATOM_NUM>  (2824) 
fragi: 11  fragj: 15

>  <atom.prop.CHAIN_ID>  (2824) 
A A A A A A A A A A A Z Z Z Z Z Z Z Z Z Z Z Z Z Z Z

>  <atom.prop.IS_HEAVY_ATOM>  (2824) 
1 0 0 0 1 0 0 1 0 0 0 1 0 0 0 1 1 0 1 0 1 0 1 0 1 0

>  <DIFUSE_FUNC_ATOM>  (2824) 
n/a

>  <FINAL_SINGLE_POINT_ENERGY>  (2824) 
0

>  <NONCOV_INTER_ENERGY_QM>  (2824) 
0

>  <FF_Energy>  (2824) 
-3.25

>  <QM_Energy>  (2824) 
-9.53

>  <source>  (2824) 
ETAM_MBZ

>  <Index>  (2824) 
30308

$$$$
ETAM-pdb5ah0-A-LYS-394:MBZ-pdb5ah0-A-PHE-275
     RDKit          3D

 26 25  0  0  0  0  0  0  0  0999 V2000
   -2.0315   -1.6318    4.7771 C   0  0  0  0  0  0  0  0  0  0  0  0
   -2.5542   -2.0366    4.0348 H   0  0  0  0  0  0  0  0  0  0  0  0
   -2.5519   -1.6575    5.6240 H   0  0  0  0  0  0  0  0  0  0  0  0
   -1.1223   -2.2169    4.9143 H   0  0  0  0  0  0  0  0  0  0  0  0
   -1.7244   -0.1831    4.4315 C   0  0  0  0  0  0  0  0  0  0  0  0
   -2.5772    0.3076    4.3014 H   0  0  0  0  0  0  0  0  0  0  0  0
   -1.1969    0.2217    5.1687 H   0  0  0  0  0  0  0  0  0  0  0  0
   -0.9314   -0.1400    3.1743 N   0  0  0  0  0  4  0  0  0  0  0  0
   -1.2740   -0.8337    2.5410 H   0  0  0  0  0  0  0  0  0  0  0  0
   -1.0177    0.7643    2.7577 H   0  0  0  0  0  0  0  0  0  0  0  0
    0.0292   -0.3222    3.3814 H   0  0  0  0  0  0  0  0  0  0  0  0
    0.0035    2.8888    0.0048 C   0  0  0  0  0  0  0  0  0  0  0  0
    0.8512    3.1969    0.4119 H   0  0  0  0  0  0  0  0  0  0  0  0
   -0.7772    3.1979    0.5289 H   0  0  0  0  0  0  0  0  0  0  0  0
   -0.0677    3.3314   -0.9887 H   0  0  0  0  0  0  0  0  0  0  0  0
    0.0023    1.3941    0.0031 C   0  0  0  0  0  0  0  0  0  0  0  0
   -1.1894    0.6883   -0.0026 C   0  0  0  0  0  0  0  0  0  0  0  0
   -2.0580    1.1807   -0.0103 H   0  0  0  0  0  0  0  0  0  0  0  0
   -1.1947   -0.6947    0.0000 C   0  0  0  0  0  0  0  0  0  0  0  0
   -2.0751   -1.1873    0.0048 H   0  0  0  0  0  0  0  0  0  0  0  0
   -0.0044   -1.3843   -0.0029 C   0  0  0  0  0  0  0  0  0  0  0  0
   -0.0049   -2.3868   -0.0074 H   0  0  0  0  0  0  0  0  0  0  0  0
    1.1947   -0.6916    0.0000 C   0  0  0  0  0  0  0  0  0  0  0  0
    2.0751   -1.1949    0.0017 H   0  0  0  0  0  0  0  0  0  0  0  0
    1.1916    0.6881    0.0024 C   0  0  0  0  0  0  0  0  0  0  0  0
    2.0622    1.1861    0.0023 H   0  0  0  0  0  0  0  0  0  0  0  0
  1  5  1  0
  5  8  1  0
  1  2  1  0
  1  3  1  0
  1  4  1  0
  5  6  1  0
  5  7  1  0
  8  9  1  0
  8 10  1  0
  8 11  1  0
 12 16  1  0
 16 17  2  0
 17 19  1  0
 19 21  2  0
 21 23  1  0
 23 25  2  0
 25 16  1  0
 12 13  1  0
 12 14  1  0
 12 15  1  0
 17 18  1  0
 19 20  1  0
 21 22  1  0
 23 24  1  0
 25 26  1  0
M  CHG  1   8   1
M  END
>  <PDB_ID>  (2825) 
pdb5ah0

>  <RESIDUE_NAME>  (2825) 
LYS   PHE

>  <FRAG_NAME>  (2825) 
ETAM   MBZ

>  <FRAG_ATOM_NUM>  (2825) 
fragi: 11  fragj: 15

>  <atom.prop.CHAIN_ID>  (2825) 
A A A A A A A A A A A Z Z Z Z Z Z Z Z Z Z Z Z Z Z Z

>  <atom.prop.IS_HEAVY_ATOM>  (2825) 
1 0 0 0 1 0 0 1 0 0 0 1 0 0 0 1 1 0 1 0 1 0 1 0 1 0

>  <DIFUSE_FUNC_ATOM>  (2825) 
n/a

>  <FINAL_SINGLE_POINT_ENERGY>  (2825) 
0

>  <NONCOV_INTER_ENERGY_QM>  (2825) 
0

>  <FF_Energy>  (2825) 
-7.67

>  <QM_Energy>  (2825) 
-14.02

>  <source>  (2825) 
ETAM_MBZ

>  <Index>  (2825) 
30313

$$$$
ETAM-pdb5ah0-B-LYS-394:MBZ-pdb5ah0-B-PHE-275
     RDKit          3D

 26 25  0  0  0  0  0  0  0  0999 V2000
   -2.3611   -1.5427    4.8213 C   0  0  0  0  0  0  0  0  0  0  0  0
   -2.9083   -1.8708    4.0546 H   0  0  0  0  0  0  0  0  0  0  0  0
   -2.8641   -1.6604    5.6740 H   0  0  0  0  0  0  0  0  0  0  0  0
   -1.4556   -2.1471    4.8744 H   0  0  0  0  0  0  0  0  0  0  0  0
   -2.0692   -0.0624    4.6219 C   0  0  0  0  0  0  0  0  0  0  0  0
   -2.9301    0.4330    4.5679 H   0  0  0  0  0  0  0  0  0  0  0  0
   -1.5282    0.2678    5.3890 H   0  0  0  0  0  0  0  0  0  0  0  0
   -1.3062    0.1340    3.3588 N   0  0  0  0  0  4  0  0  0  0  0  0
   -0.9092   -0.7370    3.0725 H   0  0  0  0  0  0  0  0  0  0  0  0
   -1.9229    0.4711    2.6480 H   0  0  0  0  0  0  0  0  0  0  0  0
   -0.5768    0.8006    3.5125 H   0  0  0  0  0  0  0  0  0  0  0  0
    0.0029    2.9056    0.0018 C   0  0  0  0  0  0  0  0  0  0  0  0
    0.8609    3.2085    0.3835 H   0  0  0  0  0  0  0  0  0  0  0  0
   -0.7650    3.2117    0.5405 H   0  0  0  0  0  0  0  0  0  0  0  0
   -0.0928    3.3381   -0.9941 H   0  0  0  0  0  0  0  0  0  0  0  0
   -0.0003    1.3994    0.0018 C   0  0  0  0  0  0  0  0  0  0  0  0
   -1.1911    0.6934    0.0002 C   0  0  0  0  0  0  0  0  0  0  0  0
   -2.0599    1.1810   -0.0019 H   0  0  0  0  0  0  0  0  0  0  0  0
   -1.1939   -0.6960    0.0000 C   0  0  0  0  0  0  0  0  0  0  0  0
   -2.0738   -1.1887   -0.0009 H   0  0  0  0  0  0  0  0  0  0  0  0
    0.0007   -1.3900    0.0019 C   0  0  0  0  0  0  0  0  0  0  0  0
   -0.0040   -2.3900    0.0040 H   0  0  0  0  0  0  0  0  0  0  0  0
    1.1939   -0.6964   -0.0000 C   0  0  0  0  0  0  0  0  0  0  0  0
    2.0787   -1.1943    0.0035 H   0  0  0  0  0  0  0  0  0  0  0  0
    1.1907    0.6896   -0.0039 C   0  0  0  0  0  0  0  0  0  0  0  0
    2.0612    1.1859   -0.0120 H   0  0  0  0  0  0  0  0  0  0  0  0
  1  5  1  0
  5  8  1  0
  1  2  1  0
  1  3  1  0
  1  4  1  0
  5  6  1  0
  5  7  1  0
  8  9  1  0
  8 10  1  0
  8 11  1  0
 12 16  1  0
 16 17  2  0
 17 19  1  0
 19 21  2  0
 21 23  1  0
 23 25  2  0
 25 16  1  0
 12 13  1  0
 12 14  1  0
 12 15  1  0
 17 18  1  0
 19 20  1  0
 21 22  1  0
 23 24  1  0
 25 26  1  0
M  CHG  1   8   1
M  END
>  <PDB_ID>  (2826) 
pdb5ah0

>  <RESIDUE_NAME>  (2826) 
LYS   PHE

>  <FRAG_NAME>  (2826) 
ETAM   MBZ

>  <FRAG_ATOM_NUM>  (2826) 
fragi: 11  fragj: 15

>  <atom.prop.CHAIN_ID>  (2826) 
A A A A A A A A A A A Z Z Z Z Z Z Z Z Z Z Z Z Z Z Z

>  <atom.prop.IS_HEAVY_ATOM>  (2826) 
1 0 0 0 1 0 0 1 0 0 0 1 0 0 0 1 1 0 1 0 1 0 1 0 1 0

>  <DIFUSE_FUNC_ATOM>  (2826) 
n/a

>  <FINAL_SINGLE_POINT_ENERGY>  (2826) 
0

>  <NONCOV_INTER_ENERGY_QM>  (2826) 
0

>  <FF_Energy>  (2826) 
-6.52

>  <QM_Energy>  (2826) 
-11.93

>  <source>  (2826) 
ETAM_MBZ

>  <Index>  (2826) 
30314

$$$$
ETAM-pdb6a45-B-LYS-59:MBZ-pdb6a45-B-PHE-33
     RDKit          3D

 26 25  0  0  0  0  0  0  0  0999 V2000
   -1.8744   -1.5216    3.2877 C   0  0  0  0  0  0  0  0  0  0  0  0
   -2.1765   -2.0159    4.0655 H   0  0  0  0  0  0  0  0  0  0  0  0
   -1.9929   -2.0560    2.4864 H   0  0  0  0  0  0  0  0  0  0  0  0
   -2.4631   -0.6089    3.1961 H   0  0  0  0  0  0  0  0  0  0  0  0
   -0.3833   -1.2445    3.4536 C   0  0  0  0  0  0  0  0  0  0  0  0
   -0.0999   -0.6049    2.7820 H   0  0  0  0  0  0  0  0  0  0  0  0
   -0.2210   -0.8927    4.3428 H   0  0  0  0  0  0  0  0  0  0  0  0
    0.4273   -2.4896    3.2872 N   0  0  0  0  0  4  0  0  0  0  0  0
    0.1868   -3.0923    3.8961 H   0  0  0  0  0  0  0  0  0  0  0  0
    0.2975   -2.8302    2.4760 H   0  0  0  0  0  0  0  0  0  0  0  0
    1.2920   -2.3040    3.3877 H   0  0  0  0  0  0  0  0  0  0  0  0
    0.0566    2.9050   -0.0232 C   0  0  0  0  0  0  0  0  0  0  0  0
    0.2190    3.1733   -0.9418 H   0  0  0  0  0  0  0  0  0  0  0  0
    0.8069    3.1765    0.5284 H   0  0  0  0  0  0  0  0  0  0  0  0
   -0.8354    3.4208    0.3323 H   0  0  0  0  0  0  0  0  0  0  0  0
    0.0027    1.3974    0.0011 C   0  0  0  0  0  0  0  0  0  0  0  0
   -1.1905    0.6954   -0.0025 C   0  0  0  0  0  0  0  0  0  0  0  0
   -1.9973    1.1588   -0.0074 H   0  0  0  0  0  0  0  0  0  0  0  0
   -1.1949   -0.6876    0.0000 C   0  0  0  0  0  0  0  0  0  0  0  0
   -2.0026   -1.1488    0.0015 H   0  0  0  0  0  0  0  0  0  0  0  0
   -0.0022   -1.3875    0.0010 C   0  0  0  0  0  0  0  0  0  0  0  0
   -0.0067   -2.3182    0.0077 H   0  0  0  0  0  0  0  0  0  0  0  0
    1.1949   -0.6995    0.0000 C   0  0  0  0  0  0  0  0  0  0  0  0
    2.0004   -1.1649    0.0040 H   0  0  0  0  0  0  0  0  0  0  0  0
    1.1900    0.6817    0.0003 C   0  0  0  0  0  0  0  0  0  0  0  0
    2.0000    1.1400   -0.0043 H   0  0  0  0  0  0  0  0  0  0  0  0
  1  5  1  0
  5  8  1  0
  1  2  1  0
  1  3  1  0
  1  4  1  0
  5  6  1  0
  5  7  1  0
  8  9  1  0
  8 10  1  0
  8 11  1  0
 12 16  1  0
 16 17  2  0
 17 19  1  0
 19 21  2  0
 21 23  1  0
 23 25  2  0
 25 16  1  0
 12 13  1  0
 12 14  1  0
 12 15  1  0
 17 18  1  0
 19 20  1  0
 21 22  1  0
 23 24  1  0
 25 26  1  0
M  CHG  1   8   1
M  END
>  <PDB_ID>  (2827) 
pdb6a45

>  <RESIDUE_NAME>  (2827) 
LYS   PHE

>  <FRAG_NAME>  (2827) 
ETAM   MBZ

>  <FRAG_ATOM_NUM>  (2827) 
fragi: 11  fragj: 15

>  <atom.prop.CHAIN_ID>  (2827) 
A A A A A A A A A A A Z Z Z Z Z Z Z Z Z Z Z Z Z Z Z

>  <atom.prop.IS_HEAVY_ATOM>  (2827) 
1 0 0 0 1 0 0 1 0 0 0 1 0 0 0 1 1 0 1 0 1 0 1 0 1 0

>  <DIFUSE_FUNC_ATOM>  (2827) 
n/a

>  <FINAL_SINGLE_POINT_ENERGY>  (2827) 
0

>  <NONCOV_INTER_ENERGY_QM>  (2827) 
0

>  <FF_Energy>  (2827) 
-4.44

>  <QM_Energy>  (2827) 
-11.08

>  <source>  (2827) 
ETAM_MBZ

>  <Index>  (2827) 
30326

$$$$
ETAM-pdb6a3w-C-LYS-152:MBZ-pdb6a3w-E-PHE-94
     RDKit          3D

 26 25  0  0  0  0  0  0  0  0999 V2000
    1.8119    0.9024    4.9139 C   0  0  0  0  0  0  0  0  0  0  0  0
    1.3289    1.3999    5.6268 H   0  0  0  0  0  0  0  0  0  0  0  0
    2.7379    0.6896    5.2056 H   0  0  0  0  0  0  0  0  0  0  0  0
    1.2818   -0.0285    4.7128 H   0  0  0  0  0  0  0  0  0  0  0  0
    1.8845    1.7810    3.6731 C   0  0  0  0  0  0  0  0  0  0  0  0
    2.4991    2.5524    3.8571 H   0  0  0  0  0  0  0  0  0  0  0  0
    2.2603    1.2418    2.9144 H   0  0  0  0  0  0  0  0  0  0  0  0
    0.5454    2.3054    3.2835 N   0  0  0  0  0  4  0  0  0  0  0  0
    0.3101    1.9679    2.3729 H   0  0  0  0  0  0  0  0  0  0  0  0
   -0.1367    1.9927    3.9440 H   0  0  0  0  0  0  0  0  0  0  0  0
    0.5713    3.3048    3.2750 H   0  0  0  0  0  0  0  0  0  0  0  0
   -0.0003    2.8957   -0.0033 C   0  0  0  0  0  0  0  0  0  0  0  0
    0.8721    3.2016    0.3495 H   0  0  0  0  0  0  0  0  0  0  0  0
   -0.7470    3.2027    0.5694 H   0  0  0  0  0  0  0  0  0  0  0  0
   -0.1347    3.3324   -0.9930 H   0  0  0  0  0  0  0  0  0  0  0  0
   -0.0007    1.3949    0.0006 C   0  0  0  0  0  0  0  0  0  0  0  0
   -1.1922    0.6885   -0.0006 C   0  0  0  0  0  0  0  0  0  0  0  0
   -2.0609    1.1803   -0.0031 H   0  0  0  0  0  0  0  0  0  0  0  0
   -1.1952   -0.6936    0.0000 C   0  0  0  0  0  0  0  0  0  0  0  0
   -2.0729   -1.1905    0.0007 H   0  0  0  0  0  0  0  0  0  0  0  0
    0.0018   -1.3859    0.0005 C   0  0  0  0  0  0  0  0  0  0  0  0
   -0.0025   -2.3867    0.0006 H   0  0  0  0  0  0  0  0  0  0  0  0
    1.1952   -0.6935   -0.0000 C   0  0  0  0  0  0  0  0  0  0  0  0
    2.0787   -1.1922    0.0017 H   0  0  0  0  0  0  0  0  0  0  0  0
    1.1912    0.6896   -0.0005 C   0  0  0  0  0  0  0  0  0  0  0  0
    2.0608    1.1876   -0.0019 H   0  0  0  0  0  0  0  0  0  0  0  0
  1  5  1  0
  5  8  1  0
  1  2  1  0
  1  3  1  0
  1  4  1  0
  5  6  1  0
  5  7  1  0
  8  9  1  0
  8 10  1  0
  8 11  1  0
 12 16  1  0
 16 17  2  0
 17 19  1  0
 19 21  2  0
 21 23  1  0
 23 25  2  0
 25 16  1  0
 12 13  1  0
 12 14  1  0
 12 15  1  0
 17 18  1  0
 19 20  1  0
 21 22  1  0
 23 24  1  0
 25 26  1  0
M  CHG  1   8   1
M  END
>  <PDB_ID>  (2828) 
pdb6a3w

>  <RESIDUE_NAME>  (2828) 
LYS   PHE

>  <FRAG_NAME>  (2828) 
ETAM   MBZ

>  <FRAG_ATOM_NUM>  (2828) 
fragi: 11  fragj: 15

>  <atom.prop.CHAIN_ID>  (2828) 
A A A A A A A A A A A Z Z Z Z Z Z Z Z Z Z Z Z Z Z Z

>  <atom.prop.IS_HEAVY_ATOM>  (2828) 
1 0 0 0 1 0 0 1 0 0 0 1 0 0 0 1 1 0 1 0 1 0 1 0 1 0

>  <DIFUSE_FUNC_ATOM>  (2828) 
n/a

>  <FINAL_SINGLE_POINT_ENERGY>  (2828) 
0

>  <NONCOV_INTER_ENERGY_QM>  (2828) 
0

>  <FF_Energy>  (2828) 
-6.23

>  <QM_Energy>  (2828) 
-11.28

>  <source>  (2828) 
ETAM_MBZ

>  <Index>  (2828) 
30333

$$$$
ETAM-pdb6aef-A-LYS-353:MBZ-pdb6aef-A-PHE-349
     RDKit          3D

 26 25  0  0  0  0  0  0  0  0999 V2000
    0.0426   -0.8690    4.6179 C   0  0  0  0  0  0  0  0  0  0  0  0
   -0.0962   -1.6910    5.1132 H   0  0  0  0  0  0  0  0  0  0  0  0
   -0.7950   -0.3895    4.5223 H   0  0  0  0  0  0  0  0  0  0  0  0
    0.7566   -0.2428    5.1530 H   0  0  0  0  0  0  0  0  0  0  0  0
    0.5417   -1.2301    3.2329 C   0  0  0  0  0  0  0  0  0  0  0  0
   -0.1708   -1.6707    2.7449 H   0  0  0  0  0  0  0  0  0  0  0  0
    0.8081   -0.4190    2.7719 H   0  0  0  0  0  0  0  0  0  0  0  0
    1.7140   -2.1479    3.2635 N   0  0  0  0  0  4  0  0  0  0  0  0
    1.9759   -2.3353    2.4331 H   0  0  0  0  0  0  0  0  0  0  0  0
    2.3884   -1.7653    3.7005 H   0  0  0  0  0  0  0  0  0  0  0  0
    1.4957   -2.9064    3.6757 H   0  0  0  0  0  0  0  0  0  0  0  0
    0.0074    2.9044   -0.0313 C   0  0  0  0  0  0  0  0  0  0  0  0
   -0.5220    3.1789   -0.7967 H   0  0  0  0  0  0  0  0  0  0  0  0
    0.9261    3.1895   -0.1515 H   0  0  0  0  0  0  0  0  0  0  0  0
   -0.3930    3.3899    0.8586 H   0  0  0  0  0  0  0  0  0  0  0  0
   -0.0006    1.4003    0.0097 C   0  0  0  0  0  0  0  0  0  0  0  0
   -1.1910    0.6937   -0.0064 C   0  0  0  0  0  0  0  0  0  0  0  0
   -1.9996    1.1548   -0.0086 H   0  0  0  0  0  0  0  0  0  0  0  0
   -1.1938   -0.6974    0.0000 C   0  0  0  0  0  0  0  0  0  0  0  0
   -2.0001   -1.1617    0.0012 H   0  0  0  0  0  0  0  0  0  0  0  0
    0.0010   -1.3903    0.0008 C   0  0  0  0  0  0  0  0  0  0  0  0
    0.0015   -2.3208    0.0087 H   0  0  0  0  0  0  0  0  0  0  0  0
    1.1938   -0.6985   -0.0000 C   0  0  0  0  0  0  0  0  0  0  0  0
    2.0006   -1.1614    0.0035 H   0  0  0  0  0  0  0  0  0  0  0  0
    1.1906    0.6923   -0.0042 C   0  0  0  0  0  0  0  0  0  0  0  0
    1.9980    1.1525   -0.0065 H   0  0  0  0  0  0  0  0  0  0  0  0
  1  5  1  0
  5  8  1  0
  1  2  1  0
  1  3  1  0
  1  4  1  0
  5  6  1  0
  5  7  1  0
  8  9  1  0
  8 10  1  0
  8 11  1  0
 12 16  1  0
 16 17  2  0
 17 19  1  0
 19 21  2  0
 21 23  1  0
 23 25  2  0
 25 16  1  0
 12 13  1  0
 12 14  1  0
 12 15  1  0
 17 18  1  0
 19 20  1  0
 21 22  1  0
 23 24  1  0
 25 26  1  0
M  CHG  1   8   1
M  END
>  <PDB_ID>  (2829) 
pdb6aef

>  <RESIDUE_NAME>  (2829) 
LYS   PHE

>  <FRAG_NAME>  (2829) 
ETAM   MBZ

>  <FRAG_ATOM_NUM>  (2829) 
fragi: 11  fragj: 15

>  <atom.prop.CHAIN_ID>  (2829) 
A A A A A A A A A A A Z Z Z Z Z Z Z Z Z Z Z Z Z Z Z

>  <atom.prop.IS_HEAVY_ATOM>  (2829) 
1 0 0 0 1 0 0 1 0 0 0 1 0 0 0 1 1 0 1 0 1 0 1 0 1 0

>  <DIFUSE_FUNC_ATOM>  (2829) 
n/a

>  <FINAL_SINGLE_POINT_ENERGY>  (2829) 
0

>  <NONCOV_INTER_ENERGY_QM>  (2829) 
0

>  <FF_Energy>  (2829) 
-3.74

>  <QM_Energy>  (2829) 
-9.25

>  <source>  (2829) 
ETAM_MBZ

>  <Index>  (2829) 
30335

$$$$
ETAM-pdb6aef-B-LYS-353:MBZ-pdb6aef-B-PHE-349
     RDKit          3D

 26 25  0  0  0  0  0  0  0  0999 V2000
   -0.0187   -0.9867    4.5876 C   0  0  0  0  0  0  0  0  0  0  0  0
   -0.1691   -1.8031    5.0911 H   0  0  0  0  0  0  0  0  0  0  0  0
   -0.8464   -0.4883    4.5073 H   0  0  0  0  0  0  0  0  0  0  0  0
    0.7186   -0.3761    5.1089 H   0  0  0  0  0  0  0  0  0  0  0  0
    0.4380   -1.3693    3.1952 C   0  0  0  0  0  0  0  0  0  0  0  0
   -0.2986   -1.7931    2.7269 H   0  0  0  0  0  0  0  0  0  0  0  0
    0.7139   -0.5684    2.7227 H   0  0  0  0  0  0  0  0  0  0  0  0
    1.5882   -2.3195    3.1985 N   0  0  0  0  0  4  0  0  0  0  0  0
    1.8224   -2.5158    2.3631 H   0  0  0  0  0  0  0  0  0  0  0  0
    2.2839   -1.9535    3.6162 H   0  0  0  0  0  0  0  0  0  0  0  0
    1.3606   -3.0702    3.6197 H   0  0  0  0  0  0  0  0  0  0  0  0
    0.0196    2.9001   -0.0278 C   0  0  0  0  0  0  0  0  0  0  0  0
   -0.5214    3.1781   -0.7841 H   0  0  0  0  0  0  0  0  0  0  0  0
    0.9386    3.1773   -0.1678 H   0  0  0  0  0  0  0  0  0  0  0  0
   -0.3586    3.3936    0.8674 H   0  0  0  0  0  0  0  0  0  0  0  0
    0.0017    1.3989    0.0107 C   0  0  0  0  0  0  0  0  0  0  0  0
   -1.1935    0.6936   -0.0056 C   0  0  0  0  0  0  0  0  0  0  0  0
   -2.0007    1.1556   -0.0074 H   0  0  0  0  0  0  0  0  0  0  0  0
   -1.1947   -0.6978   -0.0000 C   0  0  0  0  0  0  0  0  0  0  0  0
   -2.0009   -1.1624    0.0002 H   0  0  0  0  0  0  0  0  0  0  0  0
   -0.0005   -1.3870   -0.0032 C   0  0  0  0  0  0  0  0  0  0  0  0
    0.0008   -2.3173    0.0062 H   0  0  0  0  0  0  0  0  0  0  0  0
    1.1947   -0.6942    0.0000 C   0  0  0  0  0  0  0  0  0  0  0  0
    2.0003   -1.1577    0.0026 H   0  0  0  0  0  0  0  0  0  0  0  0
    1.1924    0.6866   -0.0019 C   0  0  0  0  0  0  0  0  0  0  0  0
    2.0011    1.1462   -0.0047 H   0  0  0  0  0  0  0  0  0  0  0  0
  1  5  1  0
  5  8  1  0
  1  2  1  0
  1  3  1  0
  1  4  1  0
  5  6  1  0
  5  7  1  0
  8  9  1  0
  8 10  1  0
  8 11  1  0
 12 16  1  0
 16 17  2  0
 17 19  1  0
 19 21  2  0
 21 23  1  0
 23 25  2  0
 25 16  1  0
 12 13  1  0
 12 14  1  0
 12 15  1  0
 17 18  1  0
 19 20  1  0
 21 22  1  0
 23 24  1  0
 25 26  1  0
M  CHG  1   8   1
M  END
>  <PDB_ID>  (2830) 
pdb6aef

>  <RESIDUE_NAME>  (2830) 
LYS   PHE

>  <FRAG_NAME>  (2830) 
ETAM   MBZ

>  <FRAG_ATOM_NUM>  (2830) 
fragi: 11  fragj: 15

>  <atom.prop.CHAIN_ID>  (2830) 
A A A A A A A A A A A Z Z Z Z Z Z Z Z Z Z Z Z Z Z Z

>  <atom.prop.IS_HEAVY_ATOM>  (2830) 
1 0 0 0 1 0 0 1 0 0 0 1 0 0 0 1 1 0 1 0 1 0 1 0 1 0

>  <DIFUSE_FUNC_ATOM>  (2830) 
n/a

>  <FINAL_SINGLE_POINT_ENERGY>  (2830) 
0

>  <NONCOV_INTER_ENERGY_QM>  (2830) 
0

>  <FF_Energy>  (2830) 
-3.47

>  <QM_Energy>  (2830) 
-9.08

>  <source>  (2830) 
ETAM_MBZ

>  <Index>  (2830) 
30336

$$$$
ETAM-pdb6a3a-C-LYS-112:MBZ-pdb6a3a-C-PHE-108
     RDKit          3D

 26 25  0  0  0  0  0  0  0  0999 V2000
   -0.3870   -0.5554    5.2484 C   0  0  0  0  0  0  0  0  0  0  0  0
   -0.8166   -1.4545    5.3199 H   0  0  0  0  0  0  0  0  0  0  0  0
   -0.9107    0.0173    4.6185 H   0  0  0  0  0  0  0  0  0  0  0  0
   -0.3826   -0.0872    6.2327 H   0  0  0  0  0  0  0  0  0  0  0  0
    1.0100   -0.7312    4.6915 C   0  0  0  0  0  0  0  0  0  0  0  0
    1.4915    0.1514    4.7320 H   0  0  0  0  0  0  0  0  0  0  0  0
    1.5087   -1.3928    5.2628 H   0  0  0  0  0  0  0  0  0  0  0  0
    0.9942   -1.2133    3.2901 N   0  0  0  0  0  4  0  0  0  0  0  0
    0.9167   -0.4331    2.6687 H   0  0  0  0  0  0  0  0  0  0  0  0
    1.8412   -1.7096    3.0972 H   0  0  0  0  0  0  0  0  0  0  0  0
    0.2130   -1.8237    3.1551 H   0  0  0  0  0  0  0  0  0  0  0  0
   -0.0067    2.9099    0.0103 C   0  0  0  0  0  0  0  0  0  0  0  0
   -0.6293    3.2183   -0.6923 H   0  0  0  0  0  0  0  0  0  0  0  0
    0.9163    3.2198   -0.1627 H   0  0  0  0  0  0  0  0  0  0  0  0
   -0.3317    3.3401    0.9576 H   0  0  0  0  0  0  0  0  0  0  0  0
   -0.0005    1.4019   -0.0049 C   0  0  0  0  0  0  0  0  0  0  0  0
   -1.1908    0.6885   -0.0001 C   0  0  0  0  0  0  0  0  0  0  0  0
   -2.0614    1.1756    0.0021 H   0  0  0  0  0  0  0  0  0  0  0  0
   -1.1895   -0.6984   -0.0000 C   0  0  0  0  0  0  0  0  0  0  0  0
   -2.0704   -1.1928    0.0002 H   0  0  0  0  0  0  0  0  0  0  0  0
    0.0008   -1.3884    0.0016 C   0  0  0  0  0  0  0  0  0  0  0  0
   -0.0018   -2.3897    0.0033 H   0  0  0  0  0  0  0  0  0  0  0  0
    1.1895   -0.6952    0.0000 C   0  0  0  0  0  0  0  0  0  0  0  0
    2.0772   -1.1932   -0.0022 H   0  0  0  0  0  0  0  0  0  0  0  0
    1.1905    0.6915    0.0034 C   0  0  0  0  0  0  0  0  0  0  0  0
    2.0610    1.1859    0.0113 H   0  0  0  0  0  0  0  0  0  0  0  0
  1  5  1  0
  5  8  1  0
  1  2  1  0
  1  3  1  0
  1  4  1  0
  5  6  1  0
  5  7  1  0
  8  9  1  0
  8 10  1  0
  8 11  1  0
 12 16  1  0
 16 17  2  0
 17 19  1  0
 19 21  2  0
 21 23  1  0
 23 25  2  0
 25 16  1  0
 12 13  1  0
 12 14  1  0
 12 15  1  0
 17 18  1  0
 19 20  1  0
 21 22  1  0
 23 24  1  0
 25 26  1  0
M  CHG  1   8   1
M  END
>  <PDB_ID>  (2831) 
pdb6a3a

>  <RESIDUE_NAME>  (2831) 
LYS   PHE

>  <FRAG_NAME>  (2831) 
ETAM   MBZ

>  <FRAG_ATOM_NUM>  (2831) 
fragi: 11  fragj: 15

>  <atom.prop.CHAIN_ID>  (2831) 
A A A A A A A A A A A Z Z Z Z Z Z Z Z Z Z Z Z Z Z Z

>  <atom.prop.IS_HEAVY_ATOM>  (2831) 
1 0 0 0 1 0 0 1 0 0 0 1 0 0 0 1 1 0 1 0 1 0 1 0 1 0

>  <DIFUSE_FUNC_ATOM>  (2831) 
n/a

>  <FINAL_SINGLE_POINT_ENERGY>  (2831) 
0

>  <NONCOV_INTER_ENERGY_QM>  (2831) 
0

>  <FF_Energy>  (2831) 
-6.25

>  <QM_Energy>  (2831) 
-12.82

>  <source>  (2831) 
ETAM_MBZ

>  <Index>  (2831) 
30344

$$$$
ETAM-pdb6aep-A-LYS-143:MBZ-pdb6aep-A-PHE-135
     RDKit          3D

 26 25  0  0  0  0  0  0  0  0999 V2000
    0.6883   -0.0435    3.8550 C   0  0  0  0  0  0  0  0  0  0  0  0
   -0.0911    0.0533    3.2478 H   0  0  0  0  0  0  0  0  0  0  0  0
    1.2614    0.7656    3.8225 H   0  0  0  0  0  0  0  0  0  0  0  0
    0.3252   -0.1772    4.8741 H   0  0  0  0  0  0  0  0  0  0  0  0
    1.5104   -1.2408    3.4050 C   0  0  0  0  0  0  0  0  0  0  0  0
    1.7541   -1.1248    2.4416 H   0  0  0  0  0  0  0  0  0  0  0  0
    2.3449   -1.2888    3.9544 H   0  0  0  0  0  0  0  0  0  0  0  0
    0.7442   -2.5095    3.5676 N   0  0  0  0  0  4  0  0  0  0  0  0
   -0.2286   -2.3273    3.4289 H   0  0  0  0  0  0  0  0  0  0  0  0
    1.0603   -3.1756    2.8931 H   0  0  0  0  0  0  0  0  0  0  0  0
    0.8915   -2.8685    4.4881 H   0  0  0  0  0  0  0  0  0  0  0  0
   -0.0044    2.8985    0.0141 C   0  0  0  0  0  0  0  0  0  0  0  0
    0.8555    3.2030    0.4005 H   0  0  0  0  0  0  0  0  0  0  0  0
   -0.7689    3.1972    0.5701 H   0  0  0  0  0  0  0  0  0  0  0  0
   -0.1087    3.3639   -0.9660 H   0  0  0  0  0  0  0  0  0  0  0  0
   -0.0006    1.3962   -0.0065 C   0  0  0  0  0  0  0  0  0  0  0  0
   -1.1889    0.6900    0.0028 C   0  0  0  0  0  0  0  0  0  0  0  0
   -2.0588    1.1808    0.0103 H   0  0  0  0  0  0  0  0  0  0  0  0
   -1.1906   -0.6907   -0.0000 C   0  0  0  0  0  0  0  0  0  0  0  0
   -2.0735   -1.1857    0.0000 H   0  0  0  0  0  0  0  0  0  0  0  0
   -0.0027   -1.3855   -0.0005 C   0  0  0  0  0  0  0  0  0  0  0  0
   -0.0094   -2.3880   -0.0016 H   0  0  0  0  0  0  0  0  0  0  0  0
    1.1906   -0.6975    0.0000 C   0  0  0  0  0  0  0  0  0  0  0  0
    2.0743   -1.1981   -0.0013 H   0  0  0  0  0  0  0  0  0  0  0  0
    1.1921    0.6874    0.0041 C   0  0  0  0  0  0  0  0  0  0  0  0
    2.0615    1.1823    0.0137 H   0  0  0  0  0  0  0  0  0  0  0  0
  1  5  1  0
  5  8  1  0
  1  2  1  0
  1  3  1  0
  1  4  1  0
  5  6  1  0
  5  7  1  0
  8  9  1  0
  8 10  1  0
  8 11  1  0
 12 16  1  0
 16 17  2  0
 17 19  1  0
 19 21  2  0
 21 23  1  0
 23 25  2  0
 25 16  1  0
 12 13  1  0
 12 14  1  0
 12 15  1  0
 17 18  1  0
 19 20  1  0
 21 22  1  0
 23 24  1  0
 25 26  1  0
M  CHG  1   8   1
M  END
>  <PDB_ID>  (2832) 
pdb6aep

>  <RESIDUE_NAME>  (2832) 
LYS   PHE

>  <FRAG_NAME>  (2832) 
ETAM   MBZ

>  <FRAG_ATOM_NUM>  (2832) 
fragi: 11  fragj: 15

>  <atom.prop.CHAIN_ID>  (2832) 
A A A A A A A A A A A Z Z Z Z Z Z Z Z Z Z Z Z Z Z Z

>  <atom.prop.IS_HEAVY_ATOM>  (2832) 
1 0 0 0 1 0 0 1 0 0 0 1 0 0 0 1 1 0 1 0 1 0 1 0 1 0

>  <DIFUSE_FUNC_ATOM>  (2832) 
n/a

>  <FINAL_SINGLE_POINT_ENERGY>  (2832) 
0

>  <NONCOV_INTER_ENERGY_QM>  (2832) 
0

>  <FF_Energy>  (2832) 
-3.75

>  <QM_Energy>  (2832) 
-9.29

>  <source>  (2832) 
ETAM_MBZ

>  <Index>  (2832) 
30351

$$$$
ETAM-pdb5amw-A-LYS-40:MBZ-pdb5amw-A-PHE-65
     RDKit          3D

 26 25  0  0  0  0  0  0  0  0999 V2000
   -5.0965    1.1251    1.1635 C   0  0  0  0  0  0  0  0  0  0  0  0
   -4.4661    1.7297    0.7088 H   0  0  0  0  0  0  0  0  0  0  0  0
   -5.2566    1.3904    2.0975 H   0  0  0  0  0  0  0  0  0  0  0  0
   -6.0447    1.1364    0.6258 H   0  0  0  0  0  0  0  0  0  0  0  0
   -4.5083   -0.2952    1.1515 C   0  0  0  0  0  0  0  0  0  0  0  0
   -5.2695   -0.9595    1.1756 H   0  0  0  0  0  0  0  0  0  0  0  0
   -4.0090   -0.4304    0.2834 H   0  0  0  0  0  0  0  0  0  0  0  0
   -3.5728   -0.5900    2.2970 N   0  0  0  0  0  4  0  0  0  0  0  0
   -3.3237    0.2684    2.7377 H   0  0  0  0  0  0  0  0  0  0  0  0
   -4.0369   -1.1866    2.9464 H   0  0  0  0  0  0  0  0  0  0  0  0
   -2.7594   -1.0412    1.9400 H   0  0  0  0  0  0  0  0  0  0  0  0
    0.0167    2.8958   -0.0320 C   0  0  0  0  0  0  0  0  0  0  0  0
    0.8798    3.2058    0.3217 H   0  0  0  0  0  0  0  0  0  0  0  0
   -0.7438    3.2329    0.4928 H   0  0  0  0  0  0  0  0  0  0  0  0
   -0.0829    3.2965   -1.0408 H   0  0  0  0  0  0  0  0  0  0  0  0
   -0.0042    1.3984    0.0045 C   0  0  0  0  0  0  0  0  0  0  0  0
   -1.1891    0.7032    0.0064 C   0  0  0  0  0  0  0  0  0  0  0  0
   -2.0612    1.1827    0.0113 H   0  0  0  0  0  0  0  0  0  0  0  0
   -1.1956   -0.7025    0.0000 C   0  0  0  0  0  0  0  0  0  0  0  0
   -2.0749   -1.1861   -0.0109 H   0  0  0  0  0  0  0  0  0  0  0  0
    0.0012   -1.3958    0.0098 C   0  0  0  0  0  0  0  0  0  0  0  0
    0.0030   -2.3930    0.0234 H   0  0  0  0  0  0  0  0  0  0  0  0
    1.1956   -0.6910    0.0000 C   0  0  0  0  0  0  0  0  0  0  0  0
    2.0809   -1.1925    0.0095 H   0  0  0  0  0  0  0  0  0  0  0  0
    1.1921    0.6877   -0.0206 C   0  0  0  0  0  0  0  0  0  0  0  0
    2.0590    1.1894   -0.0554 H   0  0  0  0  0  0  0  0  0  0  0  0
  1  5  1  0
  5  8  1  0
  1  2  1  0
  1  3  1  0
  1  4  1  0
  5  6  1  0
  5  7  1  0
  8  9  1  0
  8 10  1  0
  8 11  1  0
 12 16  1  0
 16 17  2  0
 17 19  1  0
 19 21  2  0
 21 23  1  0
 23 25  2  0
 25 16  1  0
 12 13  1  0
 12 14  1  0
 12 15  1  0
 17 18  1  0
 19 20  1  0
 21 22  1  0
 23 24  1  0
 25 26  1  0
M  CHG  1   8   1
M  END
>  <PDB_ID>  (2833) 
pdb5amw

>  <RESIDUE_NAME>  (2833) 
LYS   PHE

>  <FRAG_NAME>  (2833) 
ETAM   MBZ

>  <FRAG_ATOM_NUM>  (2833) 
fragi: 11  fragj: 15

>  <atom.prop.CHAIN_ID>  (2833) 
A A A A A A A A A A A Z Z Z Z Z Z Z Z Z Z Z Z Z Z Z

>  <atom.prop.IS_HEAVY_ATOM>  (2833) 
1 0 0 0 1 0 0 1 0 0 0 1 0 0 0 1 1 0 1 0 1 0 1 0 1 0

>  <DIFUSE_FUNC_ATOM>  (2833) 
n/a

>  <FINAL_SINGLE_POINT_ENERGY>  (2833) 
0

>  <NONCOV_INTER_ENERGY_QM>  (2833) 
0

>  <FF_Energy>  (2833) 
-0.85

>  <QM_Energy>  (2833) 
-7.99

>  <source>  (2833) 
ETAM_MBZ

>  <Index>  (2833) 
30354

$$$$
ETAM-pdb6agl-A-LYS-106:MBZ-pdb6agl-A-PHE-118
     RDKit          3D

 26 25  0  0  0  0  0  0  0  0999 V2000
   -1.4299   -3.4015    2.9157 C   0  0  0  0  0  0  0  0  0  0  0  0
   -2.1698   -4.0597    3.0105 H   0  0  0  0  0  0  0  0  0  0  0  0
   -1.5371   -2.8777    2.0773 H   0  0  0  0  0  0  0  0  0  0  0  0
   -1.4540   -2.7192    3.7653 H   0  0  0  0  0  0  0  0  0  0  0  0
   -0.1130   -4.1570    2.8507 C   0  0  0  0  0  0  0  0  0  0  0  0
   -0.0130   -4.7097    3.6823 H   0  0  0  0  0  0  0  0  0  0  0  0
   -0.1273   -4.7689    2.0547 H   0  0  0  0  0  0  0  0  0  0  0  0
    1.0486   -3.2339    2.7351 N   0  0  0  0  0  4  0  0  0  0  0  0
    1.5626   -3.4505    1.9052 H   0  0  0  0  0  0  0  0  0  0  0  0
    0.7197   -2.2908    2.6889 H   0  0  0  0  0  0  0  0  0  0  0  0
    1.6400   -3.3436    3.5332 H   0  0  0  0  0  0  0  0  0  0  0  0
   -0.0000    2.9045    0.0017 C   0  0  0  0  0  0  0  0  0  0  0  0
    0.5052    3.2119   -0.7894 H   0  0  0  0  0  0  0  0  0  0  0  0
    0.4231    3.2074    0.8413 H   0  0  0  0  0  0  0  0  0  0  0  0
   -0.9954    3.3460   -0.0470 H   0  0  0  0  0  0  0  0  0  0  0  0
   -0.0000    1.3976   -0.0025 C   0  0  0  0  0  0  0  0  0  0  0  0
   -1.1912    0.6883    0.0022 C   0  0  0  0  0  0  0  0  0  0  0  0
   -2.0604    1.1795    0.0065 H   0  0  0  0  0  0  0  0  0  0  0  0
   -1.1947   -0.6958    0.0000 C   0  0  0  0  0  0  0  0  0  0  0  0
   -2.0737   -1.1911   -0.0012 H   0  0  0  0  0  0  0  0  0  0  0  0
   -0.0003   -1.3870    0.0009 C   0  0  0  0  0  0  0  0  0  0  0  0
   -0.0030   -2.3883    0.0015 H   0  0  0  0  0  0  0  0  0  0  0  0
    1.1947   -0.6946   -0.0000 C   0  0  0  0  0  0  0  0  0  0  0  0
    2.0778   -1.1930    0.0010 H   0  0  0  0  0  0  0  0  0  0  0  0
    1.1915    0.6915   -0.0006 C   0  0  0  0  0  0  0  0  0  0  0  0
    2.0614    1.1873   -0.0001 H   0  0  0  0  0  0  0  0  0  0  0  0
  1  5  1  0
  5  8  1  0
  1  2  1  0
  1  3  1  0
  1  4  1  0
  5  6  1  0
  5  7  1  0
  8  9  1  0
  8 10  1  0
  8 11  1  0
 12 16  1  0
 16 17  2  0
 17 19  1  0
 19 21  2  0
 21 23  1  0
 23 25  2  0
 25 16  1  0
 12 13  1  0
 12 14  1  0
 12 15  1  0
 17 18  1  0
 19 20  1  0
 21 22  1  0
 23 24  1  0
 25 26  1  0
M  CHG  1   8   1
M  END
>  <PDB_ID>  (2834) 
pdb6agl

>  <RESIDUE_NAME>  (2834) 
LYS   PHE

>  <FRAG_NAME>  (2834) 
ETAM   MBZ

>  <FRAG_ATOM_NUM>  (2834) 
fragi: 11  fragj: 15

>  <atom.prop.CHAIN_ID>  (2834) 
A A A A A A A A A A A Z Z Z Z Z Z Z Z Z Z Z Z Z Z Z

>  <atom.prop.IS_HEAVY_ATOM>  (2834) 
1 0 0 0 1 0 0 1 0 0 0 1 0 0 0 1 1 0 1 0 1 0 1 0 1 0

>  <DIFUSE_FUNC_ATOM>  (2834) 
n/a

>  <FINAL_SINGLE_POINT_ENERGY>  (2834) 
0

>  <NONCOV_INTER_ENERGY_QM>  (2834) 
0

>  <FF_Energy>  (2834) 
-2.53

>  <QM_Energy>  (2834) 
-8.47

>  <source>  (2834) 
ETAM_MBZ

>  <Index>  (2834) 
30362

$$$$
ETAM-pdb6agl-B-LYS-106:MBZ-pdb6agl-B-PHE-118
     RDKit          3D

 26 25  0  0  0  0  0  0  0  0999 V2000
   -1.4044   -3.4779    3.0336 C   0  0  0  0  0  0  0  0  0  0  0  0
   -2.1150   -4.1495    3.2148 H   0  0  0  0  0  0  0  0  0  0  0  0
   -1.5692   -3.0259    2.1624 H   0  0  0  0  0  0  0  0  0  0  0  0
   -1.4134   -2.7310    3.8273 H   0  0  0  0  0  0  0  0  0  0  0  0
   -0.0688   -4.1900    2.9652 C   0  0  0  0  0  0  0  0  0  0  0  0
    0.0766   -4.6964    3.8197 H   0  0  0  0  0  0  0  0  0  0  0  0
   -0.0830   -4.8402    2.2009 H   0  0  0  0  0  0  0  0  0  0  0  0
    1.0525   -3.2335    2.7693 N   0  0  0  0  0  4  0  0  0  0  0  0
    1.1932   -3.0821    1.7911 H   0  0  0  0  0  0  0  0  0  0  0  0
    0.8306   -2.3653    3.2135 H   0  0  0  0  0  0  0  0  0  0  0  0
    1.8858   -3.6116    3.1717 H   0  0  0  0  0  0  0  0  0  0  0  0
    0.0044    2.9033   -0.0008 C   0  0  0  0  0  0  0  0  0  0  0  0
    0.5224    3.2078   -0.7854 H   0  0  0  0  0  0  0  0  0  0  0  0
    0.4173    3.2070    0.8448 H   0  0  0  0  0  0  0  0  0  0  0  0
   -0.9882    3.3492   -0.0642 H   0  0  0  0  0  0  0  0  0  0  0  0
   -0.0002    1.3960   -0.0023 C   0  0  0  0  0  0  0  0  0  0  0  0
   -1.1906    0.6864    0.0025 C   0  0  0  0  0  0  0  0  0  0  0  0
   -2.0592    1.1789    0.0066 H   0  0  0  0  0  0  0  0  0  0  0  0
   -1.1937   -0.6942   -0.0000 C   0  0  0  0  0  0  0  0  0  0  0  0
   -2.0730   -1.1901   -0.0004 H   0  0  0  0  0  0  0  0  0  0  0  0
   -0.0002   -1.3848    0.0001 C   0  0  0  0  0  0  0  0  0  0  0  0
   -0.0030   -2.3873   -0.0006 H   0  0  0  0  0  0  0  0  0  0  0  0
    1.1937   -0.6930    0.0000 C   0  0  0  0  0  0  0  0  0  0  0  0
    2.0770   -1.1926    0.0018 H   0  0  0  0  0  0  0  0  0  0  0  0
    1.1910    0.6896   -0.0003 C   0  0  0  0  0  0  0  0  0  0  0  0
    2.0612    1.1872    0.0006 H   0  0  0  0  0  0  0  0  0  0  0  0
  1  5  1  0
  5  8  1  0
  1  2  1  0
  1  3  1  0
  1  4  1  0
  5  6  1  0
  5  7  1  0
  8  9  1  0
  8 10  1  0
  8 11  1  0
 12 16  1  0
 16 17  2  0
 17 19  1  0
 19 21  2  0
 21 23  1  0
 23 25  2  0
 25 16  1  0
 12 13  1  0
 12 14  1  0
 12 15  1  0
 17 18  1  0
 19 20  1  0
 21 22  1  0
 23 24  1  0
 25 26  1  0
M  CHG  1   8   1
M  END
>  <PDB_ID>  (2835) 
pdb6agl

>  <RESIDUE_NAME>  (2835) 
LYS   PHE

>  <FRAG_NAME>  (2835) 
ETAM   MBZ

>  <FRAG_ATOM_NUM>  (2835) 
fragi: 11  fragj: 15

>  <atom.prop.CHAIN_ID>  (2835) 
A A A A A A A A A A A Z Z Z Z Z Z Z Z Z Z Z Z Z Z Z

>  <atom.prop.IS_HEAVY_ATOM>  (2835) 
1 0 0 0 1 0 0 1 0 0 0 1 0 0 0 1 1 0 1 0 1 0 1 0 1 0

>  <DIFUSE_FUNC_ATOM>  (2835) 
n/a

>  <FINAL_SINGLE_POINT_ENERGY>  (2835) 
0

>  <NONCOV_INTER_ENERGY_QM>  (2835) 
0

>  <FF_Energy>  (2835) 
-2.29

>  <QM_Energy>  (2835) 
-8.08

>  <source>  (2835) 
ETAM_MBZ

>  <Index>  (2835) 
30363

$$$$
ETAM-pdb5amt-A-LYS-124:MBZ-pdb5amt-A-PHE-114
     RDKit          3D

 26 25  0  0  0  0  0  0  0  0999 V2000
    1.6898   -2.6736    3.0482 C   0  0  0  0  0  0  0  0  0  0  0  0
    1.5113   -2.6789    2.0851 H   0  0  0  0  0  0  0  0  0  0  0  0
    2.5445   -3.0907    3.2816 H   0  0  0  0  0  0  0  0  0  0  0  0
    1.6800   -1.6453    3.4094 H   0  0  0  0  0  0  0  0  0  0  0  0
    0.5814   -3.3869    3.7605 C   0  0  0  0  0  0  0  0  0  0  0  0
    0.8871   -4.3171    3.9973 H   0  0  0  0  0  0  0  0  0  0  0  0
    0.3705   -2.8971    4.6158 H   0  0  0  0  0  0  0  0  0  0  0  0
   -0.6224   -3.4651    2.9340 N   0  0  0  0  0  4  0  0  0  0  0  0
   -0.4954   -4.1420    2.2035 H   0  0  0  0  0  0  0  0  0  0  0  0
   -1.4088   -3.7374    3.4954 H   0  0  0  0  0  0  0  0  0  0  0  0
   -0.8138   -2.5717    2.5192 H   0  0  0  0  0  0  0  0  0  0  0  0
   -0.0213    2.8874    0.0827 C   0  0  0  0  0  0  0  0  0  0  0  0
   -0.7998    3.2223   -0.4480 H   0  0  0  0  0  0  0  0  0  0  0  0
    0.8287    3.2256   -0.3223 H   0  0  0  0  0  0  0  0  0  0  0  0
   -0.0991    3.3159    1.0819 H   0  0  0  0  0  0  0  0  0  0  0  0
   -0.0143    1.4237    0.0297 C   0  0  0  0  0  0  0  0  0  0  0  0
   -1.1682    0.6698    0.0129 C   0  0  0  0  0  0  0  0  0  0  0  0
   -2.0642    1.1462    0.0088 H   0  0  0  0  0  0  0  0  0  0  0  0
   -1.1656   -0.7112    0.0000 C   0  0  0  0  0  0  0  0  0  0  0  0
   -2.0626   -1.1976    0.0355 H   0  0  0  0  0  0  0  0  0  0  0  0
   -0.0067   -1.4052   -0.0568 C   0  0  0  0  0  0  0  0  0  0  0  0
    0.0105   -2.3893   -0.1361 H   0  0  0  0  0  0  0  0  0  0  0  0
    1.1656   -0.6789   -0.0000 C   0  0  0  0  0  0  0  0  0  0  0  0
    2.0678   -1.1849    0.0344 H   0  0  0  0  0  0  0  0  0  0  0  0
    1.1892    0.7018    0.0142 C   0  0  0  0  0  0  0  0  0  0  0  0
    2.0529    1.1929    0.0120 H   0  0  0  0  0  0  0  0  0  0  0  0
  1  5  1  0
  5  8  1  0
  1  2  1  0
  1  3  1  0
  1  4  1  0
  5  6  1  0
  5  7  1  0
  8  9  1  0
  8 10  1  0
  8 11  1  0
 12 16  1  0
 16 17  2  0
 17 19  1  0
 19 21  2  0
 21 23  1  0
 23 25  2  0
 25 16  1  0
 12 13  1  0
 12 14  1  0
 12 15  1  0
 17 18  1  0
 19 20  1  0
 21 22  1  0
 23 24  1  0
 25 26  1  0
M  CHG  1   8   1
M  END
>  <PDB_ID>  (2836) 
pdb5amt

>  <RESIDUE_NAME>  (2836) 
LYS   PHE

>  <FRAG_NAME>  (2836) 
ETAM   MBZ

>  <FRAG_ATOM_NUM>  (2836) 
fragi: 11  fragj: 15

>  <atom.prop.CHAIN_ID>  (2836) 
A A A A A A A A A A A Z Z Z Z Z Z Z Z Z Z Z Z Z Z Z

>  <atom.prop.IS_HEAVY_ATOM>  (2836) 
1 0 0 0 1 0 0 1 0 0 0 1 0 0 0 1 1 0 1 0 1 0 1 0 1 0

>  <DIFUSE_FUNC_ATOM>  (2836) 
n/a

>  <FINAL_SINGLE_POINT_ENERGY>  (2836) 
0

>  <NONCOV_INTER_ENERGY_QM>  (2836) 
0

>  <FF_Energy>  (2836) 
-2.7

>  <QM_Energy>  (2836) 
-7.95

>  <source>  (2836) 
ETAM_MBZ

>  <Index>  (2836) 
30380

$$$$
ETAM-pdb5aon-D-LYS-56:MBZ-pdb5aon-D-PHE-52
     RDKit          3D

 26 25  0  0  0  0  0  0  0  0999 V2000
   -1.0300   -2.6965    3.6341 C   0  0  0  0  0  0  0  0  0  0  0  0
   -0.8589   -3.4972    4.1976 H   0  0  0  0  0  0  0  0  0  0  0  0
   -1.6607   -2.0782    4.0889 H   0  0  0  0  0  0  0  0  0  0  0  0
   -0.0864   -2.1760    3.4704 H   0  0  0  0  0  0  0  0  0  0  0  0
   -1.6566   -3.1517    2.3194 C   0  0  0  0  0  0  0  0  0  0  0  0
   -1.2297   -2.6366    1.5624 H   0  0  0  0  0  0  0  0  0  0  0  0
   -1.4459   -4.1304    2.1828 H   0  0  0  0  0  0  0  0  0  0  0  0
   -3.1339   -2.9614    2.2631 N   0  0  0  0  0  4  0  0  0  0  0  0
   -3.4479   -2.5586    3.1216 H   0  0  0  0  0  0  0  0  0  0  0  0
   -3.3602   -2.3520    1.5037 H   0  0  0  0  0  0  0  0  0  0  0  0
   -3.5763   -3.8473    2.1257 H   0  0  0  0  0  0  0  0  0  0  0  0
   -0.0086    2.8766    0.0544 C   0  0  0  0  0  0  0  0  0  0  0  0
   -0.7212    3.2053   -0.5375 H   0  0  0  0  0  0  0  0  0  0  0  0
    0.8792    3.2004   -0.2168 H   0  0  0  0  0  0  0  0  0  0  0  0
   -0.2091    3.2404    1.0621 H   0  0  0  0  0  0  0  0  0  0  0  0
   -0.0007    1.3851   -0.0079 C   0  0  0  0  0  0  0  0  0  0  0  0
   -1.1887    0.6877    0.0028 C   0  0  0  0  0  0  0  0  0  0  0  0
   -2.0557    1.1844    0.0110 H   0  0  0  0  0  0  0  0  0  0  0  0
   -1.1891   -0.6790    0.0000 C   0  0  0  0  0  0  0  0  0  0  0  0
   -2.0684   -1.1839    0.0109 H   0  0  0  0  0  0  0  0  0  0  0  0
    0.0043   -1.3748   -0.0162 C   0  0  0  0  0  0  0  0  0  0  0  0
   -0.0113   -2.3790   -0.0400 H   0  0  0  0  0  0  0  0  0  0  0  0
    1.1891   -0.6962   -0.0000 C   0  0  0  0  0  0  0  0  0  0  0  0
    2.0740   -1.1965   -0.0017 H   0  0  0  0  0  0  0  0  0  0  0  0
    1.1851    0.6773    0.0213 C   0  0  0  0  0  0  0  0  0  0  0  0
    2.0561    1.1773    0.0576 H   0  0  0  0  0  0  0  0  0  0  0  0
  1  5  1  0
  5  8  1  0
  1  2  1  0
  1  3  1  0
  1  4  1  0
  5  6  1  0
  5  7  1  0
  8  9  1  0
  8 10  1  0
  8 11  1  0
 12 16  1  0
 16 17  2  0
 17 19  1  0
 19 21  2  0
 21 23  1  0
 23 25  2  0
 25 16  1  0
 12 13  1  0
 12 14  1  0
 12 15  1  0
 17 18  1  0
 19 20  1  0
 21 22  1  0
 23 24  1  0
 25 26  1  0
M  CHG  1   8   1
M  END
>  <PDB_ID>  (2837) 
pdb5aon

>  <RESIDUE_NAME>  (2837) 
LYS   PHE

>  <FRAG_NAME>  (2837) 
ETAM   MBZ

>  <FRAG_ATOM_NUM>  (2837) 
fragi: 11  fragj: 15

>  <atom.prop.CHAIN_ID>  (2837) 
A A A A A A A A A A A Z Z Z Z Z Z Z Z Z Z Z Z Z Z Z

>  <atom.prop.IS_HEAVY_ATOM>  (2837) 
1 0 0 0 1 0 0 1 0 0 0 1 0 0 0 1 1 0 1 0 1 0 1 0 1 0

>  <DIFUSE_FUNC_ATOM>  (2837) 
n/a

>  <FINAL_SINGLE_POINT_ENERGY>  (2837) 
0

>  <NONCOV_INTER_ENERGY_QM>  (2837) 
0

>  <FF_Energy>  (2837) 
3.2

>  <QM_Energy>  (2837) 
-4.67

>  <source>  (2837) 
ETAM_MBZ

>  <Index>  (2837) 
30396

$$$$
ETAM-pdb6alj-B-LYS-130:MBZ-pdb6alj-B-PHE-188
     RDKit          3D

 26 25  0  0  0  0  0  0  0  0999 V2000
    3.6136    1.3718    5.0095 C   0  0  0  0  0  0  0  0  0  0  0  0
    4.0048    2.1405    5.4986 H   0  0  0  0  0  0  0  0  0  0  0  0
    4.2769    0.9684    4.3941 H   0  0  0  0  0  0  0  0  0  0  0  0
    3.3156    0.6174    5.7376 H   0  0  0  0  0  0  0  0  0  0  0  0
    2.4203    1.8523    4.2052 C   0  0  0  0  0  0  0  0  0  0  0  0
    1.6518    2.0139    4.8187 H   0  0  0  0  0  0  0  0  0  0  0  0
    2.6590    2.6963    3.7307 H   0  0  0  0  0  0  0  0  0  0  0  0
    2.0175    0.8207    3.1850 N   0  0  0  0  0  4  0  0  0  0  0  0
    1.0416    0.9118    3.0014 H   0  0  0  0  0  0  0  0  0  0  0  0
    2.5381    0.9733    2.3481 H   0  0  0  0  0  0  0  0  0  0  0  0
    2.2135   -0.0866    3.5488 H   0  0  0  0  0  0  0  0  0  0  0  0
    0.0069    2.8928   -0.0116 C   0  0  0  0  0  0  0  0  0  0  0  0
   -0.7879    3.1993   -0.5185 H   0  0  0  0  0  0  0  0  0  0  0  0
    0.8441    3.1951   -0.4471 H   0  0  0  0  0  0  0  0  0  0  0  0
   -0.0352    3.3480    0.9778 H   0  0  0  0  0  0  0  0  0  0  0  0
    0.0023    1.3964    0.0031 C   0  0  0  0  0  0  0  0  0  0  0  0
   -1.1967    0.6946    0.0052 C   0  0  0  0  0  0  0  0  0  0  0  0
   -2.0600    1.1893    0.0090 H   0  0  0  0  0  0  0  0  0  0  0  0
   -1.1991   -0.6868   -0.0000 C   0  0  0  0  0  0  0  0  0  0  0  0
   -2.0773   -1.1857   -0.0023 H   0  0  0  0  0  0  0  0  0  0  0  0
    0.0008   -1.3924   -0.0012 C   0  0  0  0  0  0  0  0  0  0  0  0
   -0.0122   -2.3900   -0.0034 H   0  0  0  0  0  0  0  0  0  0  0  0
    1.1991   -0.7028    0.0000 C   0  0  0  0  0  0  0  0  0  0  0  0
    2.0811   -1.1975    0.0071 H   0  0  0  0  0  0  0  0  0  0  0  0
    1.1936    0.6909   -0.0070 C   0  0  0  0  0  0  0  0  0  0  0  0
    2.0649    1.1840   -0.0203 H   0  0  0  0  0  0  0  0  0  0  0  0
  1  5  1  0
  5  8  1  0
  1  2  1  0
  1  3  1  0
  1  4  1  0
  5  6  1  0
  5  7  1  0
  8  9  1  0
  8 10  1  0
  8 11  1  0
 12 16  1  0
 16 17  2  0
 17 19  1  0
 19 21  2  0
 21 23  1  0
 23 25  2  0
 25 16  1  0
 12 13  1  0
 12 14  1  0
 12 15  1  0
 17 18  1  0
 19 20  1  0
 21 22  1  0
 23 24  1  0
 25 26  1  0
M  CHG  1   8   1
M  END
>  <PDB_ID>  (2838) 
pdb6alj

>  <RESIDUE_NAME>  (2838) 
LYS   PHE

>  <FRAG_NAME>  (2838) 
ETAM   MBZ

>  <FRAG_ATOM_NUM>  (2838) 
fragi: 11  fragj: 15

>  <atom.prop.CHAIN_ID>  (2838) 
A A A A A A A A A A A Z Z Z Z Z Z Z Z Z Z Z Z Z Z Z

>  <atom.prop.IS_HEAVY_ATOM>  (2838) 
1 0 0 0 1 0 0 1 0 0 0 1 0 0 0 1 1 0 1 0 1 0 1 0 1 0

>  <DIFUSE_FUNC_ATOM>  (2838) 
n/a

>  <FINAL_SINGLE_POINT_ENERGY>  (2838) 
0

>  <NONCOV_INTER_ENERGY_QM>  (2838) 
0

>  <FF_Energy>  (2838) 
-4.97

>  <QM_Energy>  (2838) 
-9.97

>  <source>  (2838) 
ETAM_MBZ

>  <Index>  (2838) 
30431

$$$$
ETAM-pdb6aii-A-LYS-359:MBZ-pdb6aii-A-PHE-354
     RDKit          3D

 26 25  0  0  0  0  0  0  0  0999 V2000
   -1.1424   -0.0192   -3.6365 C   0  0  0  0  0  0  0  0  0  0  0  0
   -1.4951   -0.6105   -2.9159 H   0  0  0  0  0  0  0  0  0  0  0  0
   -1.4553   -0.3405   -4.5260 H   0  0  0  0  0  0  0  0  0  0  0  0
   -1.5128    0.9932   -3.4750 H   0  0  0  0  0  0  0  0  0  0  0  0
    0.3747   -0.0733   -3.6086 C   0  0  0  0  0  0  0  0  0  0  0  0
    0.7346    0.4716   -4.3723 H   0  0  0  0  0  0  0  0  0  0  0  0
    0.7003    0.3294   -2.7469 H   0  0  0  0  0  0  0  0  0  0  0  0
    0.8916   -1.4666   -3.7197 N   0  0  0  0  0  4  0  0  0  0  0  0
    1.8300   -1.4448   -4.0630 H   0  0  0  0  0  0  0  0  0  0  0  0
    0.8742   -1.8989   -2.8186 H   0  0  0  0  0  0  0  0  0  0  0  0
    0.3153   -1.9839   -4.3517 H   0  0  0  0  0  0  0  0  0  0  0  0
   -0.0109    2.9169    0.0037 C   0  0  0  0  0  0  0  0  0  0  0  0
   -0.8023    3.2199   -0.4974 H   0  0  0  0  0  0  0  0  0  0  0  0
    0.8284    3.2330   -0.4021 H   0  0  0  0  0  0  0  0  0  0  0  0
   -0.0732    3.3318    1.0097 H   0  0  0  0  0  0  0  0  0  0  0  0
    0.0025    1.4052   -0.0159 C   0  0  0  0  0  0  0  0  0  0  0  0
   -1.2003    0.6922    0.0044 C   0  0  0  0  0  0  0  0  0  0  0  0
   -2.0636    1.1805    0.0207 H   0  0  0  0  0  0  0  0  0  0  0  0
   -1.1943   -0.6989    0.0000 C   0  0  0  0  0  0  0  0  0  0  0  0
   -2.0738   -1.1942   -0.0150 H   0  0  0  0  0  0  0  0  0  0  0  0
    0.0003   -1.3893    0.0175 C   0  0  0  0  0  0  0  0  0  0  0  0
   -0.0051   -2.3922    0.0421 H   0  0  0  0  0  0  0  0  0  0  0  0
    1.1943   -0.7022    0.0000 C   0  0  0  0  0  0  0  0  0  0  0  0
    2.0787   -1.1985   -0.0074 H   0  0  0  0  0  0  0  0  0  0  0  0
    1.1975    0.6930   -0.0060 C   0  0  0  0  0  0  0  0  0  0  0  0
    2.0668    1.1833   -0.0040 H   0  0  0  0  0  0  0  0  0  0  0  0
  1  5  1  0
  5  8  1  0
  1  2  1  0
  1  3  1  0
  1  4  1  0
  5  6  1  0
  5  7  1  0
  8  9  1  0
  8 10  1  0
  8 11  1  0
 12 16  1  0
 16 17  2  0
 17 19  1  0
 19 21  2  0
 21 23  1  0
 23 25  2  0
 25 16  1  0
 12 13  1  0
 12 14  1  0
 12 15  1  0
 17 18  1  0
 19 20  1  0
 21 22  1  0
 23 24  1  0
 25 26  1  0
M  CHG  1   8   1
M  END
>  <PDB_ID>  (2839) 
pdb6aii

>  <RESIDUE_NAME>  (2839) 
LYS   PHE

>  <FRAG_NAME>  (2839) 
ETAM   MBZ

>  <FRAG_ATOM_NUM>  (2839) 
fragi: 11  fragj: 15

>  <atom.prop.CHAIN_ID>  (2839) 
A A A A A A A A A A A Z Z Z Z Z Z Z Z Z Z Z Z Z Z Z

>  <atom.prop.IS_HEAVY_ATOM>  (2839) 
1 0 0 0 1 0 0 1 0 0 0 1 0 0 0 1 1 0 1 0 1 0 1 0 1 0

>  <DIFUSE_FUNC_ATOM>  (2839) 
n/a

>  <FINAL_SINGLE_POINT_ENERGY>  (2839) 
0

>  <NONCOV_INTER_ENERGY_QM>  (2839) 
0

>  <FF_Energy>  (2839) 
-6.32

>  <QM_Energy>  (2839) 
-12.35

>  <source>  (2839) 
ETAM_MBZ

>  <Index>  (2839) 
30436

$$$$
ETAM-pdb5awh-A-LYS-293:MBZ-pdb5awh-A-PHE-290
     RDKit          3D

 26 25  0  0  0  0  0  0  0  0999 V2000
   -2.6702    1.0121    4.3768 C   0  0  0  0  0  0  0  0  0  0  0  0
   -3.5450    1.0575    4.8549 H   0  0  0  0  0  0  0  0  0  0  0  0
   -2.6967    1.5961    3.5672 H   0  0  0  0  0  0  0  0  0  0  0  0
   -1.8869    1.3714    5.0443 H   0  0  0  0  0  0  0  0  0  0  0  0
   -2.4379   -0.4233    3.9300 C   0  0  0  0  0  0  0  0  0  0  0  0
   -2.3092   -1.0007    4.7411 H   0  0  0  0  0  0  0  0  0  0  0  0
   -3.2469   -0.7443    3.4292 H   0  0  0  0  0  0  0  0  0  0  0  0
   -1.2384   -0.5485    3.0480 N   0  0  0  0  0  4  0  0  0  0  0  0
   -1.2079    0.2288    2.4222 H   0  0  0  0  0  0  0  0  0  0  0  0
   -0.4153   -0.5586    3.6125 H   0  0  0  0  0  0  0  0  0  0  0  0
   -1.3010   -1.3982    2.5274 H   0  0  0  0  0  0  0  0  0  0  0  0
   -0.0219    2.9129   -0.0292 C   0  0  0  0  0  0  0  0  0  0  0  0
   -0.8044    3.1937   -0.5710 H   0  0  0  0  0  0  0  0  0  0  0  0
    0.8244    3.2207   -0.4475 H   0  0  0  0  0  0  0  0  0  0  0  0
   -0.1043    3.3794    0.9525 H   0  0  0  0  0  0  0  0  0  0  0  0
    0.0007    1.4100   -0.0020 C   0  0  0  0  0  0  0  0  0  0  0  0
   -1.2080    0.6709    0.0099 C   0  0  0  0  0  0  0  0  0  0  0  0
   -2.0720    1.1623    0.0243 H   0  0  0  0  0  0  0  0  0  0  0  0
   -1.2021   -0.7187   -0.0000 C   0  0  0  0  0  0  0  0  0  0  0  0
   -2.0754   -1.2186   -0.0059 H   0  0  0  0  0  0  0  0  0  0  0  0
    0.0008   -1.3995    0.0004 C   0  0  0  0  0  0  0  0  0  0  0  0
    0.0178   -2.3957    0.0010 H   0  0  0  0  0  0  0  0  0  0  0  0
    1.2021   -0.6801    0.0000 C   0  0  0  0  0  0  0  0  0  0  0  0
    2.0887   -1.1793    0.0074 H   0  0  0  0  0  0  0  0  0  0  0  0
    1.2065    0.7175   -0.0083 C   0  0  0  0  0  0  0  0  0  0  0  0
    2.0668    1.2092   -0.0196 H   0  0  0  0  0  0  0  0  0  0  0  0
  1  5  1  0
  5  8  1  0
  1  2  1  0
  1  3  1  0
  1  4  1  0
  5  6  1  0
  5  7  1  0
  8  9  1  0
  8 10  1  0
  8 11  1  0
 12 16  1  0
 16 17  2  0
 17 19  1  0
 19 21  2  0
 21 23  1  0
 23 25  2  0
 25 16  1  0
 12 13  1  0
 12 14  1  0
 12 15  1  0
 17 18  1  0
 19 20  1  0
 21 22  1  0
 23 24  1  0
 25 26  1  0
M  CHG  1   8   1
M  END
>  <PDB_ID>  (2840) 
pdb5awh

>  <RESIDUE_NAME>  (2840) 
LYS   PHE

>  <FRAG_NAME>  (2840) 
ETAM   MBZ

>  <FRAG_ATOM_NUM>  (2840) 
fragi: 11  fragj: 15

>  <atom.prop.CHAIN_ID>  (2840) 
A A A A A A A A A A A Z Z Z Z Z Z Z Z Z Z Z Z Z Z Z

>  <atom.prop.IS_HEAVY_ATOM>  (2840) 
1 0 0 0 1 0 0 1 0 0 0 1 0 0 0 1 1 0 1 0 1 0 1 0 1 0

>  <DIFUSE_FUNC_ATOM>  (2840) 
n/a

>  <FINAL_SINGLE_POINT_ENERGY>  (2840) 
0

>  <NONCOV_INTER_ENERGY_QM>  (2840) 
0

>  <FF_Energy>  (2840) 
-6.74

>  <QM_Energy>  (2840) 
-14.16

>  <source>  (2840) 
ETAM_MBZ

>  <Index>  (2840) 
30441

$$$$
ETAM-pdb5awo-A-LYS-358:MBZ-pdb5awo-A-PHE-69
     RDKit          3D

 26 25  0  0  0  0  0  0  0  0999 V2000
   -5.2183   -2.4816   -1.0935 C   0  0  0  0  0  0  0  0  0  0  0  0
   -5.6978   -3.1618   -0.5400 H   0  0  0  0  0  0  0  0  0  0  0  0
   -5.6720   -2.3892   -1.9786 H   0  0  0  0  0  0  0  0  0  0  0  0
   -5.2610   -1.5221   -0.5781 H   0  0  0  0  0  0  0  0  0  0  0  0
   -3.7862   -2.9777   -1.3343 C   0  0  0  0  0  0  0  0  0  0  0  0
   -3.7802   -3.5295   -2.1987 H   0  0  0  0  0  0  0  0  0  0  0  0
   -3.1927   -2.1632   -1.5267 H   0  0  0  0  0  0  0  0  0  0  0  0
   -3.1404   -3.7893   -0.2482 N   0  0  0  0  0  4  0  0  0  0  0  0
   -3.6299   -3.6357    0.6071 H   0  0  0  0  0  0  0  0  0  0  0  0
   -3.1828   -4.7548   -0.4952 H   0  0  0  0  0  0  0  0  0  0  0  0
   -2.1896   -3.5039   -0.1514 H   0  0  0  0  0  0  0  0  0  0  0  0
   -0.0057    2.8800   -0.0495 C   0  0  0  0  0  0  0  0  0  0  0  0
    0.8457    3.2042    0.3273 H   0  0  0  0  0  0  0  0  0  0  0  0
   -0.7809    3.1999    0.4683 H   0  0  0  0  0  0  0  0  0  0  0  0
   -0.0946    3.2687   -1.0639 H   0  0  0  0  0  0  0  0  0  0  0  0
    0.0021    1.3866   -0.0026 C   0  0  0  0  0  0  0  0  0  0  0  0
   -1.1860    0.6968    0.0079 C   0  0  0  0  0  0  0  0  0  0  0  0
   -2.0534    1.1862    0.0204 H   0  0  0  0  0  0  0  0  0  0  0  0
   -1.1882   -0.6863   -0.0000 C   0  0  0  0  0  0  0  0  0  0  0  0
   -2.0744   -1.1769   -0.0106 H   0  0  0  0  0  0  0  0  0  0  0  0
   -0.0070   -1.3768    0.0085 C   0  0  0  0  0  0  0  0  0  0  0  0
   -0.0164   -2.3850    0.0206 H   0  0  0  0  0  0  0  0  0  0  0  0
    1.1882   -0.7020    0.0000 C   0  0  0  0  0  0  0  0  0  0  0  0
    2.0688   -1.2037    0.0054 H   0  0  0  0  0  0  0  0  0  0  0  0
    1.1909    0.6817   -0.0139 C   0  0  0  0  0  0  0  0  0  0  0  0
    2.0612    1.1756   -0.0329 H   0  0  0  0  0  0  0  0  0  0  0  0
  1  5  1  0
  5  8  1  0
  1  2  1  0
  1  3  1  0
  1  4  1  0
  5  6  1  0
  5  7  1  0
  8  9  1  0
  8 10  1  0
  8 11  1  0
 12 16  1  0
 16 17  2  0
 17 19  1  0
 19 21  2  0
 21 23  1  0
 23 25  2  0
 25 16  1  0
 12 13  1  0
 12 14  1  0
 12 15  1  0
 17 18  1  0
 19 20  1  0
 21 22  1  0
 23 24  1  0
 25 26  1  0
M  CHG  1   8   1
M  END
>  <PDB_ID>  (2841) 
pdb5awo

>  <RESIDUE_NAME>  (2841) 
LYS   PHE

>  <FRAG_NAME>  (2841) 
ETAM   MBZ

>  <FRAG_ATOM_NUM>  (2841) 
fragi: 11  fragj: 15

>  <atom.prop.CHAIN_ID>  (2841) 
A A A A A A A A A A A Z Z Z Z Z Z Z Z Z Z Z Z Z Z Z

>  <atom.prop.IS_HEAVY_ATOM>  (2841) 
1 0 0 0 1 0 0 1 0 0 0 1 0 0 0 1 1 0 1 0 1 0 1 0 1 0

>  <DIFUSE_FUNC_ATOM>  (2841) 
n/a

>  <FINAL_SINGLE_POINT_ENERGY>  (2841) 
0

>  <NONCOV_INTER_ENERGY_QM>  (2841) 
0

>  <FF_Energy>  (2841) 
1.33

>  <QM_Energy>  (2841) 
-3.9

>  <source>  (2841) 
ETAM_MBZ

>  <Index>  (2841) 
30442

$$$$
ETAM-pdb5azf-A-LYS-66:MBZ-pdb5azf-A-PHE-62
     RDKit          3D

 26 25  0  0  0  0  0  0  0  0999 V2000
    0.3876   -0.8143    4.2279 C   0  0  0  0  0  0  0  0  0  0  0  0
    0.2974   -1.8001    4.1668 H   0  0  0  0  0  0  0  0  0  0  0  0
    0.0637   -0.4838    5.1047 H   0  0  0  0  0  0  0  0  0  0  0  0
    1.4390   -0.5489    4.1168 H   0  0  0  0  0  0  0  0  0  0  0  0
   -0.4405   -0.1798    3.1299 C   0  0  0  0  0  0  0  0  0  0  0  0
   -0.1250    0.7664    2.9876 H   0  0  0  0  0  0  0  0  0  0  0  0
   -0.2959   -0.6919    2.2742 H   0  0  0  0  0  0  0  0  0  0  0  0
   -1.8906   -0.1658    3.4481 N   0  0  0  0  0  4  0  0  0  0  0  0
   -2.2957   -1.0447    3.1968 H   0  0  0  0  0  0  0  0  0  0  0  0
   -2.0158   -0.0093    4.4276 H   0  0  0  0  0  0  0  0  0  0  0  0
   -2.3379    0.5660    2.9337 H   0  0  0  0  0  0  0  0  0  0  0  0
    0.0049    2.9055    0.0165 C   0  0  0  0  0  0  0  0  0  0  0  0
   -0.7783    3.2204   -0.4989 H   0  0  0  0  0  0  0  0  0  0  0  0
    0.8511    3.2144   -0.3906 H   0  0  0  0  0  0  0  0  0  0  0  0
   -0.0596    3.3357    1.0159 H   0  0  0  0  0  0  0  0  0  0  0  0
    0.0003    1.4038   -0.0001 C   0  0  0  0  0  0  0  0  0  0  0  0
   -1.1984    0.6961    0.0003 C   0  0  0  0  0  0  0  0  0  0  0  0
   -2.0647    1.1838   -0.0009 H   0  0  0  0  0  0  0  0  0  0  0  0
   -1.2032   -0.7008   -0.0000 C   0  0  0  0  0  0  0  0  0  0  0  0
   -2.0792   -1.1923    0.0010 H   0  0  0  0  0  0  0  0  0  0  0  0
   -0.0000   -1.3962    0.0004 C   0  0  0  0  0  0  0  0  0  0  0  0
   -0.0021   -2.3947    0.0002 H   0  0  0  0  0  0  0  0  0  0  0  0
    1.2032   -0.6976   -0.0000 C   0  0  0  0  0  0  0  0  0  0  0  0
    2.0832   -1.1951    0.0018 H   0  0  0  0  0  0  0  0  0  0  0  0
    1.1981    0.6948   -0.0006 C   0  0  0  0  0  0  0  0  0  0  0  0
    2.0658    1.1911   -0.0023 H   0  0  0  0  0  0  0  0  0  0  0  0
  1  5  1  0
  5  8  1  0
  1  2  1  0
  1  3  1  0
  1  4  1  0
  5  6  1  0
  5  7  1  0
  8  9  1  0
  8 10  1  0
  8 11  1  0
 12 16  1  0
 16 17  2  0
 17 19  1  0
 19 21  2  0
 21 23  1  0
 23 25  2  0
 25 16  1  0
 12 13  1  0
 12 14  1  0
 12 15  1  0
 17 18  1  0
 19 20  1  0
 21 22  1  0
 23 24  1  0
 25 26  1  0
M  CHG  1   8   1
M  END
>  <PDB_ID>  (2842) 
pdb5azf

>  <RESIDUE_NAME>  (2842) 
LYS   PHE

>  <FRAG_NAME>  (2842) 
ETAM   MBZ

>  <FRAG_ATOM_NUM>  (2842) 
fragi: 11  fragj: 15

>  <atom.prop.CHAIN_ID>  (2842) 
A A A A A A A A A A A Z Z Z Z Z Z Z Z Z Z Z Z Z Z Z

>  <atom.prop.IS_HEAVY_ATOM>  (2842) 
1 0 0 0 1 0 0 1 0 0 0 1 0 0 0 1 1 0 1 0 1 0 1 0 1 0

>  <DIFUSE_FUNC_ATOM>  (2842) 
n/a

>  <FINAL_SINGLE_POINT_ENERGY>  (2842) 
0

>  <NONCOV_INTER_ENERGY_QM>  (2842) 
0

>  <FF_Energy>  (2842) 
-2.47

>  <QM_Energy>  (2842) 
-10.79

>  <source>  (2842) 
ETAM_MBZ

>  <Index>  (2842) 
30482

$$$$
ETAM-pdb6aqp-B-LYS-342:MBZ-pdb6aqp-B-PHE-319
     RDKit          3D

 26 25  0  0  0  0  0  0  0  0999 V2000
   -5.2307   -0.8931    0.4977 C   0  0  0  0  0  0  0  0  0  0  0  0
   -4.7107   -0.7679    1.3366 H   0  0  0  0  0  0  0  0  0  0  0  0
   -6.1396   -1.2429    0.7041 H   0  0  0  0  0  0  0  0  0  0  0  0
   -5.3331    0.0739    0.0051 H   0  0  0  0  0  0  0  0  0  0  0  0
   -4.5035   -1.9150   -0.3783 C   0  0  0  0  0  0  0  0  0  0  0  0
   -5.1258   -2.2146   -1.1107 H   0  0  0  0  0  0  0  0  0  0  0  0
   -3.7057   -1.4700   -0.8002 H   0  0  0  0  0  0  0  0  0  0  0  0
   -4.0398   -3.1182    0.3881 N   0  0  0  0  0  4  0  0  0  0  0  0
   -4.2282   -3.9385   -0.1478 H   0  0  0  0  0  0  0  0  0  0  0  0
   -3.0593   -3.0403    0.5552 H   0  0  0  0  0  0  0  0  0  0  0  0
   -4.5295   -3.1602    1.2560 H   0  0  0  0  0  0  0  0  0  0  0  0
   -0.0068    2.9019   -0.0180 C   0  0  0  0  0  0  0  0  0  0  0  0
   -0.8046    3.1975   -0.5265 H   0  0  0  0  0  0  0  0  0  0  0  0
    0.8265    3.2028   -0.4636 H   0  0  0  0  0  0  0  0  0  0  0  0
   -0.0461    3.3754    0.9630 H   0  0  0  0  0  0  0  0  0  0  0  0
   -0.0038    1.3988    0.0099 C   0  0  0  0  0  0  0  0  0  0  0  0
   -1.1916    0.6946   -0.0055 C   0  0  0  0  0  0  0  0  0  0  0  0
   -2.0624    1.1817   -0.0220 H   0  0  0  0  0  0  0  0  0  0  0  0
   -1.1968   -0.6964   -0.0000 C   0  0  0  0  0  0  0  0  0  0  0  0
   -2.0733   -1.1900    0.0044 H   0  0  0  0  0  0  0  0  0  0  0  0
    0.0043   -1.3933    0.0018 C   0  0  0  0  0  0  0  0  0  0  0  0
   -0.0031   -2.3923    0.0033 H   0  0  0  0  0  0  0  0  0  0  0  0
    1.1968   -0.6988   -0.0000 C   0  0  0  0  0  0  0  0  0  0  0  0
    2.0824   -1.1905    0.0046 H   0  0  0  0  0  0  0  0  0  0  0  0
    1.1910    0.6951   -0.0062 C   0  0  0  0  0  0  0  0  0  0  0  0
    2.0592    1.1903   -0.0236 H   0  0  0  0  0  0  0  0  0  0  0  0
  1  5  1  0
  5  8  1  0
  1  2  1  0
  1  3  1  0
  1  4  1  0
  5  6  1  0
  5  7  1  0
  8  9  1  0
  8 10  1  0
  8 11  1  0
 12 16  1  0
 16 17  2  0
 17 19  1  0
 19 21  2  0
 21 23  1  0
 23 25  2  0
 25 16  1  0
 12 13  1  0
 12 14  1  0
 12 15  1  0
 17 18  1  0
 19 20  1  0
 21 22  1  0
 23 24  1  0
 25 26  1  0
M  CHG  1   8   1
M  END
>  <PDB_ID>  (2843) 
pdb6aqp

>  <RESIDUE_NAME>  (2843) 
LYS   PHE

>  <FRAG_NAME>  (2843) 
ETAM   MBZ

>  <FRAG_ATOM_NUM>  (2843) 
fragi: 11  fragj: 15

>  <atom.prop.CHAIN_ID>  (2843) 
A A A A A A A A A A A Z Z Z Z Z Z Z Z Z Z Z Z Z Z Z

>  <atom.prop.IS_HEAVY_ATOM>  (2843) 
1 0 0 0 1 0 0 1 0 0 0 1 0 0 0 1 1 0 1 0 1 0 1 0 1 0

>  <DIFUSE_FUNC_ATOM>  (2843) 
n/a

>  <FINAL_SINGLE_POINT_ENERGY>  (2843) 
0

>  <NONCOV_INTER_ENERGY_QM>  (2843) 
0

>  <FF_Energy>  (2843) 
4.25

>  <QM_Energy>  (2843) 
-2.33

>  <source>  (2843) 
ETAM_MBZ

>  <Index>  (2843) 
30492

$$$$
ETAM-pdb6aqz-E-LYS-262:MBZ-pdb6aqz-E-PHE-229
     RDKit          3D

 26 25  0  0  0  0  0  0  0  0999 V2000
    3.8679    2.0711    2.3004 C   0  0  0  0  0  0  0  0  0  0  0  0
    3.8424    1.3321    2.9761 H   0  0  0  0  0  0  0  0  0  0  0  0
    4.3783    2.8456    2.6767 H   0  0  0  0  0  0  0  0  0  0  0  0
    4.3823    1.7114    1.4093 H   0  0  0  0  0  0  0  0  0  0  0  0
    2.4527    2.5167    2.0164 C   0  0  0  0  0  0  0  0  0  0  0  0
    2.3975    2.8551    1.0763 H   0  0  0  0  0  0  0  0  0  0  0  0
    1.8351    1.7367    2.1235 H   0  0  0  0  0  0  0  0  0  0  0  0
    2.0442    3.5959    2.9492 N   0  0  0  0  0  4  0  0  0  0  0  0
    2.4693    4.4577    2.6700 H   0  0  0  0  0  0  0  0  0  0  0  0
    1.0486    3.6940    2.9300 H   0  0  0  0  0  0  0  0  0  0  0  0
    2.3377    3.3645    3.8771 H   0  0  0  0  0  0  0  0  0  0  0  0
   -0.0107    2.8847   -0.0144 C   0  0  0  0  0  0  0  0  0  0  0  0
    0.8771    3.2029    0.2737 H   0  0  0  0  0  0  0  0  0  0  0  0
   -0.7249    3.1972    0.5898 H   0  0  0  0  0  0  0  0  0  0  0  0
   -0.2079    3.2967   -1.0040 H   0  0  0  0  0  0  0  0  0  0  0  0
   -0.0011    1.3897    0.0044 C   0  0  0  0  0  0  0  0  0  0  0  0
   -1.1912    0.6852   -0.0017 C   0  0  0  0  0  0  0  0  0  0  0  0
   -2.0592    1.1808   -0.0092 H   0  0  0  0  0  0  0  0  0  0  0  0
   -1.1960   -0.6893    0.0000 C   0  0  0  0  0  0  0  0  0  0  0  0
   -2.0724   -1.1892    0.0028 H   0  0  0  0  0  0  0  0  0  0  0  0
   -0.0000   -1.3796    0.0000 C   0  0  0  0  0  0  0  0  0  0  0  0
   -0.0058   -2.3835   -0.0003 H   0  0  0  0  0  0  0  0  0  0  0  0
    1.1960   -0.6922   -0.0000 C   0  0  0  0  0  0  0  0  0  0  0  0
    2.0771   -1.1944    0.0033 H   0  0  0  0  0  0  0  0  0  0  0  0
    1.1923    0.6862   -0.0027 C   0  0  0  0  0  0  0  0  0  0  0  0
    2.0603    1.1867   -0.0101 H   0  0  0  0  0  0  0  0  0  0  0  0
  1  5  1  0
  5  8  1  0
  1  2  1  0
  1  3  1  0
  1  4  1  0
  5  6  1  0
  5  7  1  0
  8  9  1  0
  8 10  1  0
  8 11  1  0
 12 16  1  0
 16 17  2  0
 17 19  1  0
 19 21  2  0
 21 23  1  0
 23 25  2  0
 25 16  1  0
 12 13  1  0
 12 14  1  0
 12 15  1  0
 17 18  1  0
 19 20  1  0
 21 22  1  0
 23 24  1  0
 25 26  1  0
M  CHG  1   8   1
M  END
>  <PDB_ID>  (2844) 
pdb6aqz

>  <RESIDUE_NAME>  (2844) 
LYS   PHE

>  <FRAG_NAME>  (2844) 
ETAM   MBZ

>  <FRAG_ATOM_NUM>  (2844) 
fragi: 11  fragj: 15

>  <atom.prop.CHAIN_ID>  (2844) 
A A A A A A A A A A A Z Z Z Z Z Z Z Z Z Z Z Z Z Z Z

>  <atom.prop.IS_HEAVY_ATOM>  (2844) 
1 0 0 0 1 0 0 1 0 0 0 1 0 0 0 1 1 0 1 0 1 0 1 0 1 0

>  <DIFUSE_FUNC_ATOM>  (2844) 
n/a

>  <FINAL_SINGLE_POINT_ENERGY>  (2844) 
0

>  <NONCOV_INTER_ENERGY_QM>  (2844) 
0

>  <FF_Energy>  (2844) 
8.59

>  <QM_Energy>  (2844) 
-0.33

>  <source>  (2844) 
ETAM_MBZ

>  <Index>  (2844) 
30515

$$$$
ETAM-pdb6aqz-E-LYS-262:MBZ-pdb6aqz-E-PHE-313
     RDKit          3D

 26 25  0  0  0  0  0  0  0  0999 V2000
    3.1265    1.1781   -2.9308 C   0  0  0  0  0  0  0  0  0  0  0  0
    3.4114    1.8554   -3.6115 H   0  0  0  0  0  0  0  0  0  0  0  0
    2.2109    1.4087   -2.5983 H   0  0  0  0  0  0  0  0  0  0  0  0
    3.0904    0.1985   -3.4074 H   0  0  0  0  0  0  0  0  0  0  0  0
    4.0894    1.2255   -1.7679 C   0  0  0  0  0  0  0  0  0  0  0  0
    4.1438    0.3180   -1.3495 H   0  0  0  0  0  0  0  0  0  0  0  0
    4.9948    1.4900   -2.1018 H   0  0  0  0  0  0  0  0  0  0  0  0
    3.6373    2.2065   -0.7506 N   0  0  0  0  0  4  0  0  0  0  0  0
    2.8789    1.8183   -0.2257 H   0  0  0  0  0  0  0  0  0  0  0  0
    4.3952    2.4196   -0.1329 H   0  0  0  0  0  0  0  0  0  0  0  0
    3.3337    3.0439   -1.2057 H   0  0  0  0  0  0  0  0  0  0  0  0
   -0.0089    2.8931   -0.0249 C   0  0  0  0  0  0  0  0  0  0  0  0
   -0.8196    3.1905   -0.5344 H   0  0  0  0  0  0  0  0  0  0  0  0
    0.8134    3.2032   -0.5075 H   0  0  0  0  0  0  0  0  0  0  0  0
   -0.0285    3.3973    0.9414 H   0  0  0  0  0  0  0  0  0  0  0  0
    0.0017    1.3989   -0.0072 C   0  0  0  0  0  0  0  0  0  0  0  0
   -1.1986    0.6924   -0.0090 C   0  0  0  0  0  0  0  0  0  0  0  0
   -2.0632    1.1938   -0.0172 H   0  0  0  0  0  0  0  0  0  0  0  0
   -1.2191   -0.6929    0.0000 C   0  0  0  0  0  0  0  0  0  0  0  0
   -2.0882   -1.1864   -0.0113 H   0  0  0  0  0  0  0  0  0  0  0  0
   -0.0066   -1.3904    0.0254 C   0  0  0  0  0  0  0  0  0  0  0  0
   -0.0123   -2.3903    0.0608 H   0  0  0  0  0  0  0  0  0  0  0  0
    1.2191   -0.7005    0.0000 C   0  0  0  0  0  0  0  0  0  0  0  0
    2.0851   -1.2014   -0.0088 H   0  0  0  0  0  0  0  0  0  0  0  0
    1.2034    0.6925   -0.0092 C   0  0  0  0  0  0  0  0  0  0  0  0
    2.0693    1.1938   -0.0185 H   0  0  0  0  0  0  0  0  0  0  0  0
  1  5  1  0
  5  8  1  0
  1  2  1  0
  1  3  1  0
  1  4  1  0
  5  6  1  0
  5  7  1  0
  8  9  1  0
  8 10  1  0
  8 11  1  0
 12 16  1  0
 16 17  2  0
 17 19  1  0
 19 21  2  0
 21 23  1  0
 23 25  2  0
 25 16  1  0
 12 13  1  0
 12 14  1  0
 12 15  1  0
 17 18  1  0
 19 20  1  0
 21 22  1  0
 23 24  1  0
 25 26  1  0
M  CHG  1   8   1
M  END
>  <PDB_ID>  (2845) 
pdb6aqz

>  <RESIDUE_NAME>  (2845) 
LYS   PHE

>  <FRAG_NAME>  (2845) 
ETAM   MBZ

>  <FRAG_ATOM_NUM>  (2845) 
fragi: 11  fragj: 15

>  <atom.prop.CHAIN_ID>  (2845) 
A A A A A A A A A A A Z Z Z Z Z Z Z Z Z Z Z Z Z Z Z

>  <atom.prop.IS_HEAVY_ATOM>  (2845) 
1 0 0 0 1 0 0 1 0 0 0 1 0 0 0 1 1 0 1 0 1 0 1 0 1 0

>  <DIFUSE_FUNC_ATOM>  (2845) 
n/a

>  <FINAL_SINGLE_POINT_ENERGY>  (2845) 
0

>  <NONCOV_INTER_ENERGY_QM>  (2845) 
0

>  <FF_Energy>  (2845) 
28.28

>  <QM_Energy>  (2845) 
11.65

>  <source>  (2845) 
ETAM_MBZ

>  <Index>  (2845) 
30516

$$$$
ETAM-pdb6at6-B-LYS-143:MBZ-pdb6at6-A-PHE-179
     RDKit          3D

 26 25  0  0  0  0  0  0  0  0999 V2000
   -1.3036   -1.2223    3.9261 C   0  0  0  0  0  0  0  0  0  0  0  0
   -0.8395   -2.0535    3.6306 H   0  0  0  0  0  0  0  0  0  0  0  0
   -2.1802   -1.1369    3.4601 H   0  0  0  0  0  0  0  0  0  0  0  0
   -1.4838   -1.2874    4.9992 H   0  0  0  0  0  0  0  0  0  0  0  0
   -0.4361   -0.0220    3.5519 C   0  0  0  0  0  0  0  0  0  0  0  0
   -0.4077    0.0550    2.5557 H   0  0  0  0  0  0  0  0  0  0  0  0
   -0.8464    0.8039    3.9384 H   0  0  0  0  0  0  0  0  0  0  0  0
    0.9419   -0.1809    4.0761 N   0  0  0  0  0  4  0  0  0  0  0  0
    0.9052   -0.4108    5.0495 H   0  0  0  0  0  0  0  0  0  0  0  0
    1.4069   -0.9139    3.5782 H   0  0  0  0  0  0  0  0  0  0  0  0
    1.4464    0.6747    3.9553 H   0  0  0  0  0  0  0  0  0  0  0  0
   -0.0000    2.9056   -0.0088 C   0  0  0  0  0  0  0  0  0  0  0  0
    0.8384    3.2150    0.4161 H   0  0  0  0  0  0  0  0  0  0  0  0
   -0.7928    3.2075    0.5010 H   0  0  0  0  0  0  0  0  0  0  0  0
   -0.0535    3.3522   -1.0017 H   0  0  0  0  0  0  0  0  0  0  0  0
    0.0064    1.4009   -0.0115 C   0  0  0  0  0  0  0  0  0  0  0  0
   -1.1917    0.6850    0.0027 C   0  0  0  0  0  0  0  0  0  0  0  0
   -2.0573    1.1801    0.0133 H   0  0  0  0  0  0  0  0  0  0  0  0
   -1.1948   -0.6963    0.0000 C   0  0  0  0  0  0  0  0  0  0  0  0
   -2.0827   -1.1866   -0.0055 H   0  0  0  0  0  0  0  0  0  0  0  0
   -0.0166   -1.3897    0.0055 C   0  0  0  0  0  0  0  0  0  0  0  0
   -0.0128   -2.3906    0.0134 H   0  0  0  0  0  0  0  0  0  0  0  0
    1.1948   -0.6965   -0.0000 C   0  0  0  0  0  0  0  0  0  0  0  0
    2.0708   -1.2024   -0.0052 H   0  0  0  0  0  0  0  0  0  0  0  0
    1.2019    0.6965    0.0033 C   0  0  0  0  0  0  0  0  0  0  0  0
    2.0688    1.1863    0.0151 H   0  0  0  0  0  0  0  0  0  0  0  0
  1  5  1  0
  5  8  1  0
  1  2  1  0
  1  3  1  0
  1  4  1  0
  5  6  1  0
  5  7  1  0
  8  9  1  0
  8 10  1  0
  8 11  1  0
 12 16  1  0
 16 17  2  0
 17 19  1  0
 19 21  2  0
 21 23  1  0
 23 25  2  0
 25 16  1  0
 12 13  1  0
 12 14  1  0
 12 15  1  0
 17 18  1  0
 19 20  1  0
 21 22  1  0
 23 24  1  0
 25 26  1  0
M  CHG  1   8   1
M  END
>  <PDB_ID>  (2846) 
pdb6at6

>  <RESIDUE_NAME>  (2846) 
LYS   PHE

>  <FRAG_NAME>  (2846) 
ETAM   MBZ

>  <FRAG_ATOM_NUM>  (2846) 
fragi: 11  fragj: 15

>  <atom.prop.CHAIN_ID>  (2846) 
A A A A A A A A A A A Z Z Z Z Z Z Z Z Z Z Z Z Z Z Z

>  <atom.prop.IS_HEAVY_ATOM>  (2846) 
1 0 0 0 1 0 0 1 0 0 0 1 0 0 0 1 1 0 1 0 1 0 1 0 1 0

>  <DIFUSE_FUNC_ATOM>  (2846) 
n/a

>  <FINAL_SINGLE_POINT_ENERGY>  (2846) 
0

>  <NONCOV_INTER_ENERGY_QM>  (2846) 
0

>  <FF_Energy>  (2846) 
-6.0

>  <QM_Energy>  (2846) 
-11.12

>  <source>  (2846) 
ETAM_MBZ

>  <Index>  (2846) 
30550

$$$$
ETAM-pdb6aym-B-LYS-94:MBZ-pdb6aym-B-PHE-118
     RDKit          3D

 26 25  0  0  0  0  0  0  0  0999 V2000
   -0.8274    1.7808    3.6237 C   0  0  0  0  0  0  0  0  0  0  0  0
   -0.3281    2.2494    2.9145 H   0  0  0  0  0  0  0  0  0  0  0  0
   -0.6246    2.1437    4.5166 H   0  0  0  0  0  0  0  0  0  0  0  0
   -1.8960    1.8775    3.4318 H   0  0  0  0  0  0  0  0  0  0  0  0
   -0.4505    0.3108    3.5972 C   0  0  0  0  0  0  0  0  0  0  0  0
   -1.0308   -0.1849    4.2797 H   0  0  0  0  0  0  0  0  0  0  0  0
   -0.7056   -0.0735    2.6837 H   0  0  0  0  0  0  0  0  0  0  0  0
    0.9761   -0.0068    3.8649 N   0  0  0  0  0  4  0  0  0  0  0  0
    1.5507    0.4409    3.1798 H   0  0  0  0  0  0  0  0  0  0  0  0
    1.2253    0.3222    4.7754 H   0  0  0  0  0  0  0  0  0  0  0  0
    1.1111   -0.9972    3.8195 H   0  0  0  0  0  0  0  0  0  0  0  0
    0.0003    2.8908   -0.0144 C   0  0  0  0  0  0  0  0  0  0  0  0
    0.8871    3.2021    0.2922 H   0  0  0  0  0  0  0  0  0  0  0  0
   -0.7196    3.2111    0.5826 H   0  0  0  0  0  0  0  0  0  0  0  0
   -0.1763    3.3178   -1.0017 H   0  0  0  0  0  0  0  0  0  0  0  0
   -0.0046    1.3958    0.0036 C   0  0  0  0  0  0  0  0  0  0  0  0
   -1.2029    0.6815   -0.0083 C   0  0  0  0  0  0  0  0  0  0  0  0
   -2.0684    1.1749   -0.0241 H   0  0  0  0  0  0  0  0  0  0  0  0
   -1.2036   -0.7009   -0.0000 C   0  0  0  0  0  0  0  0  0  0  0  0
   -2.0701   -1.2048    0.0035 H   0  0  0  0  0  0  0  0  0  0  0  0
    0.0113   -1.3838    0.0058 C   0  0  0  0  0  0  0  0  0  0  0  0
    0.0087   -2.3881    0.0134 H   0  0  0  0  0  0  0  0  0  0  0  0
    1.2036   -0.6895   -0.0000 C   0  0  0  0  0  0  0  0  0  0  0  0
    2.0891   -1.1849   -0.0019 H   0  0  0  0  0  0  0  0  0  0  0  0
    1.1962    0.6968   -0.0012 C   0  0  0  0  0  0  0  0  0  0  0  0
    2.0597    1.1983   -0.0064 H   0  0  0  0  0  0  0  0  0  0  0  0
  1  5  1  0
  5  8  1  0
  1  2  1  0
  1  3  1  0
  1  4  1  0
  5  6  1  0
  5  7  1  0
  8  9  1  0
  8 10  1  0
  8 11  1  0
 12 16  1  0
 16 17  2  0
 17 19  1  0
 19 21  2  0
 21 23  1  0
 23 25  2  0
 25 16  1  0
 12 13  1  0
 12 14  1  0
 12 15  1  0
 17 18  1  0
 19 20  1  0
 21 22  1  0
 23 24  1  0
 25 26  1  0
M  CHG  1   8   1
M  END
>  <PDB_ID>  (2847) 
pdb6aym

>  <RESIDUE_NAME>  (2847) 
LYS   PHE

>  <FRAG_NAME>  (2847) 
ETAM   MBZ

>  <FRAG_ATOM_NUM>  (2847) 
fragi: 11  fragj: 15

>  <atom.prop.CHAIN_ID>  (2847) 
A A A A A A A A A A A Z Z Z Z Z Z Z Z Z Z Z Z Z Z Z

>  <atom.prop.IS_HEAVY_ATOM>  (2847) 
1 0 0 0 1 0 0 1 0 0 0 1 0 0 0 1 1 0 1 0 1 0 1 0 1 0

>  <DIFUSE_FUNC_ATOM>  (2847) 
n/a

>  <FINAL_SINGLE_POINT_ENERGY>  (2847) 
0

>  <NONCOV_INTER_ENERGY_QM>  (2847) 
0

>  <FF_Energy>  (2847) 
-7.01

>  <QM_Energy>  (2847) 
-12.27

>  <source>  (2847) 
ETAM_MBZ

>  <Index>  (2847) 
30594

$$$$
ETAM-pdb5b1h-A-LYS-121:MBZ-pdb5b1h-A-PHE-224
     RDKit          3D

 26 25  0  0  0  0  0  0  0  0999 V2000
    5.4374    0.1509   -3.2937 C   0  0  0  0  0  0  0  0  0  0  0  0
    6.1643    0.3840   -2.6572 H   0  0  0  0  0  0  0  0  0  0  0  0
    4.9951    0.9724   -3.6339 H   0  0  0  0  0  0  0  0  0  0  0  0
    5.8646   -0.3964   -4.1340 H   0  0  0  0  0  0  0  0  0  0  0  0
    4.3975   -0.6877   -2.5550 C   0  0  0  0  0  0  0  0  0  0  0  0
    4.1464   -1.4732   -3.1305 H   0  0  0  0  0  0  0  0  0  0  0  0
    4.8054   -1.0338   -1.7026 H   0  0  0  0  0  0  0  0  0  0  0  0
    3.1612    0.0875   -2.2223 N   0  0  0  0  0  4  0  0  0  0  0  0
    2.5756    0.1325   -3.0300 H   0  0  0  0  0  0  0  0  0  0  0  0
    2.6776   -0.3705   -1.4795 H   0  0  0  0  0  0  0  0  0  0  0  0
    3.4190    1.0097   -1.9399 H   0  0  0  0  0  0  0  0  0  0  0  0
   -0.0017    2.9113    0.0008 C   0  0  0  0  0  0  0  0  0  0  0  0
   -0.9109    3.2165   -0.2365 H   0  0  0  0  0  0  0  0  0  0  0  0
    0.6671    3.2181   -0.6591 H   0  0  0  0  0  0  0  0  0  0  0  0
    0.2561    3.3501    0.9647 H   0  0  0  0  0  0  0  0  0  0  0  0
   -0.0006    1.4069   -0.0003 C   0  0  0  0  0  0  0  0  0  0  0  0
   -1.1990    0.6975   -0.0001 C   0  0  0  0  0  0  0  0  0  0  0  0
   -2.0655    1.1860   -0.0011 H   0  0  0  0  0  0  0  0  0  0  0  0
   -1.2051   -0.7006    0.0000 C   0  0  0  0  0  0  0  0  0  0  0  0
   -2.0804   -1.1912    0.0011 H   0  0  0  0  0  0  0  0  0  0  0  0
    0.0006   -1.3994    0.0005 C   0  0  0  0  0  0  0  0  0  0  0  0
   -0.0040   -2.3963    0.0006 H   0  0  0  0  0  0  0  0  0  0  0  0
    1.2051   -0.7012   -0.0000 C   0  0  0  0  0  0  0  0  0  0  0  0
    2.0850   -1.1961    0.0008 H   0  0  0  0  0  0  0  0  0  0  0  0
    1.1990    0.6968   -0.0001 C   0  0  0  0  0  0  0  0  0  0  0  0
    2.0667    1.1912   -0.0012 H   0  0  0  0  0  0  0  0  0  0  0  0
  1  5  1  0
  5  8  1  0
  1  2  1  0
  1  3  1  0
  1  4  1  0
  5  6  1  0
  5  7  1  0
  8  9  1  0
  8 10  1  0
  8 11  1  0
 12 16  1  0
 16 17  2  0
 17 19  1  0
 19 21  2  0
 21 23  1  0
 23 25  2  0
 25 16  1  0
 12 13  1  0
 12 14  1  0
 12 15  1  0
 17 18  1  0
 19 20  1  0
 21 22  1  0
 23 24  1  0
 25 26  1  0
M  CHG  1   8   1
M  END
>  <PDB_ID>  (2848) 
pdb5b1h

>  <RESIDUE_NAME>  (2848) 
LYS   PHE

>  <FRAG_NAME>  (2848) 
ETAM   MBZ

>  <FRAG_ATOM_NUM>  (2848) 
fragi: 11  fragj: 15

>  <atom.prop.CHAIN_ID>  (2848) 
A A A A A A A A A A A Z Z Z Z Z Z Z Z Z Z Z Z Z Z Z

>  <atom.prop.IS_HEAVY_ATOM>  (2848) 
1 0 0 0 1 0 0 1 0 0 0 1 0 0 0 1 1 0 1 0 1 0 1 0 1 0

>  <DIFUSE_FUNC_ATOM>  (2848) 
n/a

>  <FINAL_SINGLE_POINT_ENERGY>  (2848) 
0

>  <NONCOV_INTER_ENERGY_QM>  (2848) 
0

>  <FF_Energy>  (2848) 
-0.12

>  <QM_Energy>  (2848) 
-7.33

>  <source>  (2848) 
ETAM_MBZ

>  <Index>  (2848) 
30601

$$$$
ETAM-pdb6azb-B-LYS-193:MBZ-pdb6azb-B-PHE-145
     RDKit          3D

 26 25  0  0  0  0  0  0  0  0999 V2000
    1.0392   -1.0757    4.8577 C   0  0  0  0  0  0  0  0  0  0  0  0
    0.7209   -1.0708    5.8012 H   0  0  0  0  0  0  0  0  0  0  0  0
    1.7881   -1.7229    4.7497 H   0  0  0  0  0  0  0  0  0  0  0  0
    0.2159   -1.3777    4.2104 H   0  0  0  0  0  0  0  0  0  0  0  0
    1.5432    0.3123    4.5074 C   0  0  0  0  0  0  0  0  0  0  0  0
    0.7691    0.9499    4.5054 H   0  0  0  0  0  0  0  0  0  0  0  0
    2.2045    0.6053    5.2029 H   0  0  0  0  0  0  0  0  0  0  0  0
    2.1990    0.3369    3.1703 N   0  0  0  0  0  4  0  0  0  0  0  0
    1.7183    0.9817    2.5777 H   0  0  0  0  0  0  0  0  0  0  0  0
    3.1510    0.6223    3.2740 H   0  0  0  0  0  0  0  0  0  0  0  0
    2.1650   -0.5772    2.7678 H   0  0  0  0  0  0  0  0  0  0  0  0
   -0.0080    2.8953   -0.0004 C   0  0  0  0  0  0  0  0  0  0  0  0
    0.8724    3.2071   -0.3234 H   0  0  0  0  0  0  0  0  0  0  0  0
   -0.1835    3.2013    0.9226 H   0  0  0  0  0  0  0  0  0  0  0  0
   -0.7723    3.3270   -0.6465 H   0  0  0  0  0  0  0  0  0  0  0  0
    0.0002    1.3942    0.0004 C   0  0  0  0  0  0  0  0  0  0  0  0
   -1.1908    0.6870   -0.0000 C   0  0  0  0  0  0  0  0  0  0  0  0
   -2.0592    1.1799   -0.0018 H   0  0  0  0  0  0  0  0  0  0  0  0
   -1.1949   -0.6941   -0.0000 C   0  0  0  0  0  0  0  0  0  0  0  0
   -2.0733   -1.1904    0.0008 H   0  0  0  0  0  0  0  0  0  0  0  0
   -0.0002   -1.3852    0.0002 C   0  0  0  0  0  0  0  0  0  0  0  0
   -0.0032   -2.3864   -0.0004 H   0  0  0  0  0  0  0  0  0  0  0  0
    1.1949   -0.6927    0.0000 C   0  0  0  0  0  0  0  0  0  0  0  0
    2.0781   -1.1916    0.0020 H   0  0  0  0  0  0  0  0  0  0  0  0
    1.1908    0.6909   -0.0005 C   0  0  0  0  0  0  0  0  0  0  0  0
    2.0602    1.1883   -0.0027 H   0  0  0  0  0  0  0  0  0  0  0  0
  1  5  1  0
  5  8  1  0
  1  2  1  0
  1  3  1  0
  1  4  1  0
  5  6  1  0
  5  7  1  0
  8  9  1  0
  8 10  1  0
  8 11  1  0
 12 16  1  0
 16 17  2  0
 17 19  1  0
 19 21  2  0
 21 23  1  0
 23 25  2  0
 25 16  1  0
 12 13  1  0
 12 14  1  0
 12 15  1  0
 17 18  1  0
 19 20  1  0
 21 22  1  0
 23 24  1  0
 25 26  1  0
M  CHG  1   8   1
M  END
>  <PDB_ID>  (2849) 
pdb6azb

>  <RESIDUE_NAME>  (2849) 
LYS   PHE

>  <FRAG_NAME>  (2849) 
ETAM   MBZ

>  <FRAG_ATOM_NUM>  (2849) 
fragi: 11  fragj: 15

>  <atom.prop.CHAIN_ID>  (2849) 
A A A A A A A A A A A Z Z Z Z Z Z Z Z Z Z Z Z Z Z Z

>  <atom.prop.IS_HEAVY_ATOM>  (2849) 
1 0 0 0 1 0 0 1 0 0 0 1 0 0 0 1 1 0 1 0 1 0 1 0 1 0

>  <DIFUSE_FUNC_ATOM>  (2849) 
n/a

>  <FINAL_SINGLE_POINT_ENERGY>  (2849) 
0

>  <NONCOV_INTER_ENERGY_QM>  (2849) 
0

>  <FF_Energy>  (2849) 
-5.21

>  <QM_Energy>  (2849) 
-10.74

>  <source>  (2849) 
ETAM_MBZ

>  <Index>  (2849) 
30608

$$$$
ETAM-pdb5b3t-A-LYS-237:MBZ-pdb5b3t-A-PHE-175
     RDKit          3D

 26 25  0  0  0  0  0  0  0  0999 V2000
    0.8589   -2.7922   -4.9843 C   0  0  0  0  0  0  0  0  0  0  0  0
    0.2933   -2.5678   -5.7721 H   0  0  0  0  0  0  0  0  0  0  0  0
    0.4544   -3.5447   -4.4736 H   0  0  0  0  0  0  0  0  0  0  0  0
    1.8445   -3.0964   -5.3367 H   0  0  0  0  0  0  0  0  0  0  0  0
    0.9390   -1.5774   -4.0796 C   0  0  0  0  0  0  0  0  0  0  0  0
    1.6397   -1.7353   -3.3814 H   0  0  0  0  0  0  0  0  0  0  0  0
    1.1940   -0.7778   -4.6269 H   0  0  0  0  0  0  0  0  0  0  0  0
   -0.3652   -1.3132   -3.4101 N   0  0  0  0  0  4  0  0  0  0  0  0
   -0.2920   -0.4830   -2.8584 H   0  0  0  0  0  0  0  0  0  0  0  0
   -1.0747   -1.1931   -4.1033 H   0  0  0  0  0  0  0  0  0  0  0  0
   -0.5980   -2.0869   -2.8216 H   0  0  0  0  0  0  0  0  0  0  0  0
   -0.0009    2.8956   -0.0013 C   0  0  0  0  0  0  0  0  0  0  0  0
   -0.5115    3.1999   -0.7914 H   0  0  0  0  0  0  0  0  0  0  0  0
    0.9377    3.2041   -0.0385 H   0  0  0  0  0  0  0  0  0  0  0  0
   -0.4613    3.3354    0.8834 H   0  0  0  0  0  0  0  0  0  0  0  0
    0.0018    1.3952    0.0021 C   0  0  0  0  0  0  0  0  0  0  0  0
   -1.1916    0.6862   -0.0036 C   0  0  0  0  0  0  0  0  0  0  0  0
   -2.0590    1.1779   -0.0112 H   0  0  0  0  0  0  0  0  0  0  0  0
   -1.1943   -0.6975    0.0000 C   0  0  0  0  0  0  0  0  0  0  0  0
   -2.0733   -1.1922    0.0024 H   0  0  0  0  0  0  0  0  0  0  0  0
   -0.0017   -1.3852    0.0020 C   0  0  0  0  0  0  0  0  0  0  0  0
   -0.0009   -2.3872    0.0045 H   0  0  0  0  0  0  0  0  0  0  0  0
    1.1943   -0.6907   -0.0000 C   0  0  0  0  0  0  0  0  0  0  0  0
    2.0773   -1.1911    0.0008 H   0  0  0  0  0  0  0  0  0  0  0  0
    1.1915    0.6919   -0.0004 C   0  0  0  0  0  0  0  0  0  0  0  0
    2.0617    1.1890   -0.0037 H   0  0  0  0  0  0  0  0  0  0  0  0
  1  5  1  0
  5  8  1  0
  1  2  1  0
  1  3  1  0
  1  4  1  0
  5  6  1  0
  5  7  1  0
  8  9  1  0
  8 10  1  0
  8 11  1  0
 12 16  1  0
 16 17  2  0
 17 19  1  0
 19 21  2  0
 21 23  1  0
 23 25  2  0
 25 16  1  0
 12 13  1  0
 12 14  1  0
 12 15  1  0
 17 18  1  0
 19 20  1  0
 21 22  1  0
 23 24  1  0
 25 26  1  0
M  CHG  1   8   1
M  END
>  <PDB_ID>  (2850) 
pdb5b3t

>  <RESIDUE_NAME>  (2850) 
LYS   PHE

>  <FRAG_NAME>  (2850) 
ETAM   MBZ

>  <FRAG_ATOM_NUM>  (2850) 
fragi: 11  fragj: 15

>  <atom.prop.CHAIN_ID>  (2850) 
A A A A A A A A A A A Z Z Z Z Z Z Z Z Z Z Z Z Z Z Z

>  <atom.prop.IS_HEAVY_ATOM>  (2850) 
1 0 0 0 1 0 0 1 0 0 0 1 0 0 0 1 1 0 1 0 1 0 1 0 1 0

>  <DIFUSE_FUNC_ATOM>  (2850) 
n/a

>  <FINAL_SINGLE_POINT_ENERGY>  (2850) 
0

>  <NONCOV_INTER_ENERGY_QM>  (2850) 
0

>  <FF_Energy>  (2850) 
-6.54

>  <QM_Energy>  (2850) 
-12.67

>  <source>  (2850) 
ETAM_MBZ

>  <Index>  (2850) 
30619

$$$$
ETAM-pdb5b3t-B-LYS-237:MBZ-pdb5b3t-B-PHE-175
     RDKit          3D

 26 25  0  0  0  0  0  0  0  0999 V2000
    0.5407   -2.8587   -5.0825 C   0  0  0  0  0  0  0  0  0  0  0  0
   -0.2271   -2.8368   -5.7152 H   0  0  0  0  0  0  0  0  0  0  0  0
    0.3967   -3.5601   -4.3908 H   0  0  0  0  0  0  0  0  0  0  0  0
    1.4469   -3.0957   -5.6400 H   0  0  0  0  0  0  0  0  0  0  0  0
    0.6423   -1.5101   -4.3940 C   0  0  0  0  0  0  0  0  0  0  0  0
    1.5194   -1.4527   -3.9155 H   0  0  0  0  0  0  0  0  0  0  0  0
    0.5952   -0.7862   -5.0846 H   0  0  0  0  0  0  0  0  0  0  0  0
   -0.4627   -1.3209   -3.4126 N   0  0  0  0  0  4  0  0  0  0  0  0
   -0.0754   -1.1619   -2.5052 H   0  0  0  0  0  0  0  0  0  0  0  0
   -1.0151   -0.5334   -3.6839 H   0  0  0  0  0  0  0  0  0  0  0  0
   -1.0328   -2.1408   -3.3949 H   0  0  0  0  0  0  0  0  0  0  0  0
   -0.0007    2.8925   -0.0002 C   0  0  0  0  0  0  0  0  0  0  0  0
   -0.5591    3.1991   -0.7568 H   0  0  0  0  0  0  0  0  0  0  0  0
    0.9341    3.2005   -0.0952 H   0  0  0  0  0  0  0  0  0  0  0  0
   -0.4054    3.3323    0.9114 H   0  0  0  0  0  0  0  0  0  0  0  0
    0.0007    1.3939    0.0014 C   0  0  0  0  0  0  0  0  0  0  0  0
   -1.1916    0.6886   -0.0017 C   0  0  0  0  0  0  0  0  0  0  0  0
   -2.0596    1.1803   -0.0064 H   0  0  0  0  0  0  0  0  0  0  0  0
   -1.1946   -0.6947   -0.0000 C   0  0  0  0  0  0  0  0  0  0  0  0
   -2.0733   -1.1897    0.0031 H   0  0  0  0  0  0  0  0  0  0  0  0
   -0.0005   -1.3845   -0.0006 C   0  0  0  0  0  0  0  0  0  0  0  0
   -0.0024   -2.3870   -0.0019 H   0  0  0  0  0  0  0  0  0  0  0  0
    1.1946   -0.6922   -0.0000 C   0  0  0  0  0  0  0  0  0  0  0  0
    2.0772   -1.1927    0.0015 H   0  0  0  0  0  0  0  0  0  0  0  0
    1.1915    0.6890    0.0009 C   0  0  0  0  0  0  0  0  0  0  0  0
    2.0613    1.1871    0.0002 H   0  0  0  0  0  0  0  0  0  0  0  0
  1  5  1  0
  5  8  1  0
  1  2  1  0
  1  3  1  0
  1  4  1  0
  5  6  1  0
  5  7  1  0
  8  9  1  0
  8 10  1  0
  8 11  1  0
 12 16  1  0
 16 17  2  0
 17 19  1  0
 19 21  2  0
 21 23  1  0
 23 25  2  0
 25 16  1  0
 12 13  1  0
 12 14  1  0
 12 15  1  0
 17 18  1  0
 19 20  1  0
 21 22  1  0
 23 24  1  0
 25 26  1  0
M  CHG  1   8   1
M  END
>  <PDB_ID>  (2851) 
pdb5b3t

>  <RESIDUE_NAME>  (2851) 
LYS   PHE

>  <FRAG_NAME>  (2851) 
ETAM   MBZ

>  <FRAG_ATOM_NUM>  (2851) 
fragi: 11  fragj: 15

>  <atom.prop.CHAIN_ID>  (2851) 
A A A A A A A A A A A Z Z Z Z Z Z Z Z Z Z Z Z Z Z Z

>  <atom.prop.IS_HEAVY_ATOM>  (2851) 
1 0 0 0 1 0 0 1 0 0 0 1 0 0 0 1 1 0 1 0 1 0 1 0 1 0

>  <DIFUSE_FUNC_ATOM>  (2851) 
n/a

>  <FINAL_SINGLE_POINT_ENERGY>  (2851) 
0

>  <NONCOV_INTER_ENERGY_QM>  (2851) 
0

>  <FF_Energy>  (2851) 
-6.64

>  <QM_Energy>  (2851) 
-13.52

>  <source>  (2851) 
ETAM_MBZ

>  <Index>  (2851) 
30620

$$$$
ETAM-pdb5b5v-A-LYS-184:MBZ-pdb5b5v-A-PHE-188
     RDKit          3D

 26 25  0  0  0  0  0  0  0  0999 V2000
    4.9452   -2.1031   -0.6874 C   0  0  0  0  0  0  0  0  0  0  0  0
    5.3181   -2.8479   -1.2374 H   0  0  0  0  0  0  0  0  0  0  0  0
    5.6864   -1.6123   -0.2341 H   0  0  0  0  0  0  0  0  0  0  0  0
    4.4193   -1.4121   -1.3463 H   0  0  0  0  0  0  0  0  0  0  0  0
    4.0351   -2.7026    0.3843 C   0  0  0  0  0  0  0  0  0  0  0  0
    3.3810   -2.0037    0.6846 H   0  0  0  0  0  0  0  0  0  0  0  0
    3.5300   -3.4739   -0.0105 H   0  0  0  0  0  0  0  0  0  0  0  0
    4.8074   -3.1910    1.5821 N   0  0  0  0  0  4  0  0  0  0  0  0
    4.2204   -3.1431    2.3857 H   0  0  0  0  0  0  0  0  0  0  0  0
    5.0901   -4.1327    1.4217 H   0  0  0  0  0  0  0  0  0  0  0  0
    5.6079   -2.6105    1.7080 H   0  0  0  0  0  0  0  0  0  0  0  0
   -0.0037    2.9112    0.0159 C   0  0  0  0  0  0  0  0  0  0  0  0
    0.9357    3.2147   -0.0166 H   0  0  0  0  0  0  0  0  0  0  0  0
   -0.4492    3.2022    0.8482 H   0  0  0  0  0  0  0  0  0  0  0  0
   -0.5328    3.3581   -0.8258 H   0  0  0  0  0  0  0  0  0  0  0  0
   -0.0017    1.4008   -0.0019 C   0  0  0  0  0  0  0  0  0  0  0  0
   -1.1900    0.6995    0.0148 C   0  0  0  0  0  0  0  0  0  0  0  0
   -2.0604    1.1847    0.0366 H   0  0  0  0  0  0  0  0  0  0  0  0
   -1.1980   -0.6972   -0.0000 C   0  0  0  0  0  0  0  0  0  0  0  0
   -2.0773   -1.1845    0.0004 H   0  0  0  0  0  0  0  0  0  0  0  0
   -0.0021   -1.3924   -0.0126 C   0  0  0  0  0  0  0  0  0  0  0  0
   -0.0061   -2.3916   -0.0312 H   0  0  0  0  0  0  0  0  0  0  0  0
    1.1980   -0.6986   -0.0000 C   0  0  0  0  0  0  0  0  0  0  0  0
    2.0788   -1.1987    0.0108 H   0  0  0  0  0  0  0  0  0  0  0  0
    1.1938    0.6879   -0.0003 C   0  0  0  0  0  0  0  0  0  0  0  0
    2.0633    1.1858   -0.0004 H   0  0  0  0  0  0  0  0  0  0  0  0
  1  5  1  0
  5  8  1  0
  1  2  1  0
  1  3  1  0
  1  4  1  0
  5  6  1  0
  5  7  1  0
  8  9  1  0
  8 10  1  0
  8 11  1  0
 12 16  1  0
 16 17  2  0
 17 19  1  0
 19 21  2  0
 21 23  1  0
 23 25  2  0
 25 16  1  0
 12 13  1  0
 12 14  1  0
 12 15  1  0
 17 18  1  0
 19 20  1  0
 21 22  1  0
 23 24  1  0
 25 26  1  0
M  CHG  1   8   1
M  END
>  <PDB_ID>  (2852) 
pdb5b5v

>  <RESIDUE_NAME>  (2852) 
LYS   PHE

>  <FRAG_NAME>  (2852) 
ETAM   MBZ

>  <FRAG_ATOM_NUM>  (2852) 
fragi: 11  fragj: 15

>  <atom.prop.CHAIN_ID>  (2852) 
A A A A A A A A A A A Z Z Z Z Z Z Z Z Z Z Z Z Z Z Z

>  <atom.prop.IS_HEAVY_ATOM>  (2852) 
1 0 0 0 1 0 0 1 0 0 0 1 0 0 0 1 1 0 1 0 1 0 1 0 1 0

>  <DIFUSE_FUNC_ATOM>  (2852) 
n/a

>  <FINAL_SINGLE_POINT_ENERGY>  (2852) 
0

>  <NONCOV_INTER_ENERGY_QM>  (2852) 
0

>  <FF_Energy>  (2852) 
10.47

>  <QM_Energy>  (2852) 
-0.23

>  <source>  (2852) 
ETAM_MBZ

>  <Index>  (2852) 
30674

$$$$
ETAM-pdb5b5v-C-LYS-184:MBZ-pdb5b5v-C-PHE-188
     RDKit          3D

 26 25  0  0  0  0  0  0  0  0999 V2000
    4.9479   -2.0968   -0.6862 C   0  0  0  0  0  0  0  0  0  0  0  0
    5.3228   -2.8389   -1.2371 H   0  0  0  0  0  0  0  0  0  0  0  0
    5.6855   -1.6024   -0.2329 H   0  0  0  0  0  0  0  0  0  0  0  0
    4.4202   -1.4075   -1.3454 H   0  0  0  0  0  0  0  0  0  0  0  0
    4.0364   -2.6973    0.3828 C   0  0  0  0  0  0  0  0  0  0  0  0
    3.3814   -2.0003    0.6825 H   0  0  0  0  0  0  0  0  0  0  0  0
    3.5347   -3.4701   -0.0119 H   0  0  0  0  0  0  0  0  0  0  0  0
    4.8089   -3.1845    1.5838 N   0  0  0  0  0  4  0  0  0  0  0  0
    5.7798   -3.1931    1.3599 H   0  0  0  0  0  0  0  0  0  0  0  0
    4.6384   -2.5679    2.3472 H   0  0  0  0  0  0  0  0  0  0  0  0
    4.5027   -4.1049    1.8116 H   0  0  0  0  0  0  0  0  0  0  0  0
   -0.0058    2.9098    0.0088 C   0  0  0  0  0  0  0  0  0  0  0  0
    0.9350    3.2136   -0.0250 H   0  0  0  0  0  0  0  0  0  0  0  0
   -0.4492    3.2049    0.8412 H   0  0  0  0  0  0  0  0  0  0  0  0
   -0.5357    3.3560   -0.8327 H   0  0  0  0  0  0  0  0  0  0  0  0
   -0.0041    1.4021   -0.0041 C   0  0  0  0  0  0  0  0  0  0  0  0
   -1.1906    0.6970    0.0125 C   0  0  0  0  0  0  0  0  0  0  0  0
   -2.0626    1.1805    0.0320 H   0  0  0  0  0  0  0  0  0  0  0  0
   -1.1972   -0.7012    0.0000 C   0  0  0  0  0  0  0  0  0  0  0  0
   -2.0756   -1.1889   -0.0014 H   0  0  0  0  0  0  0  0  0  0  0  0
    0.0002   -1.3939   -0.0080 C   0  0  0  0  0  0  0  0  0  0  0  0
   -0.0008   -2.3928   -0.0204 H   0  0  0  0  0  0  0  0  0  0  0  0
    1.1972   -0.6955   -0.0000 C   0  0  0  0  0  0  0  0  0  0  0  0
    2.0810   -1.1942    0.0076 H   0  0  0  0  0  0  0  0  0  0  0  0
    1.1944    0.6915   -0.0003 C   0  0  0  0  0  0  0  0  0  0  0  0
    2.0616    1.1895    0.0010 H   0  0  0  0  0  0  0  0  0  0  0  0
  1  5  1  0
  5  8  1  0
  1  2  1  0
  1  3  1  0
  1  4  1  0
  5  6  1  0
  5  7  1  0
  8  9  1  0
  8 10  1  0
  8 11  1  0
 12 16  1  0
 16 17  2  0
 17 19  1  0
 19 21  2  0
 21 23  1  0
 23 25  2  0
 25 16  1  0
 12 13  1  0
 12 14  1  0
 12 15  1  0
 17 18  1  0
 19 20  1  0
 21 22  1  0
 23 24  1  0
 25 26  1  0
M  CHG  1   8   1
M  END
>  <PDB_ID>  (2853) 
pdb5b5v

>  <RESIDUE_NAME>  (2853) 
LYS   PHE

>  <FRAG_NAME>  (2853) 
ETAM   MBZ

>  <FRAG_ATOM_NUM>  (2853) 
fragi: 11  fragj: 15

>  <atom.prop.CHAIN_ID>  (2853) 
A A A A A A A A A A A Z Z Z Z Z Z Z Z Z Z Z Z Z Z Z

>  <atom.prop.IS_HEAVY_ATOM>  (2853) 
1 0 0 0 1 0 0 1 0 0 0 1 0 0 0 1 1 0 1 0 1 0 1 0 1 0

>  <DIFUSE_FUNC_ATOM>  (2853) 
n/a

>  <FINAL_SINGLE_POINT_ENERGY>  (2853) 
0

>  <NONCOV_INTER_ENERGY_QM>  (2853) 
0

>  <FF_Energy>  (2853) 
10.55

>  <QM_Energy>  (2853) 
-0.23

>  <source>  (2853) 
ETAM_MBZ

>  <Index>  (2853) 
30677

$$$$
ETAM-pdb6alj-A-LYS-130:MBZ-pdb6alj-A-PHE-188
     RDKit          3D

 26 25  0  0  0  0  0  0  0  0999 V2000
    3.6517    1.2388    4.9152 C   0  0  0  0  0  0  0  0  0  0  0  0
    4.0509    2.0381    5.3240 H   0  0  0  0  0  0  0  0  0  0  0  0
    4.2708    0.7812    4.3054 H   0  0  0  0  0  0  0  0  0  0  0  0
    3.3549    0.5484    5.7047 H   0  0  0  0  0  0  0  0  0  0  0  0
    2.4048    1.6808    4.1004 C   0  0  0  0  0  0  0  0  0  0  0  0
    1.6396    1.7800    4.7259 H   0  0  0  0  0  0  0  0  0  0  0  0
    2.6092    2.5462    3.6584 H   0  0  0  0  0  0  0  0  0  0  0  0
    2.0653    0.6531    3.0540 N   0  0  0  0  0  4  0  0  0  0  0  0
    1.0735    0.5947    2.9681 H   0  0  0  0  0  0  0  0  0  0  0  0
    2.4679    0.9319    2.1854 H   0  0  0  0  0  0  0  0  0  0  0  0
    2.4362   -0.2284    3.3349 H   0  0  0  0  0  0  0  0  0  0  0  0
   -0.0265    2.9106    0.0010 C   0  0  0  0  0  0  0  0  0  0  0  0
   -0.8486    3.2024   -0.4635 H   0  0  0  0  0  0  0  0  0  0  0  0
    0.7843    3.2235   -0.4688 H   0  0  0  0  0  0  0  0  0  0  0  0
   -0.0287    3.3565    0.9956 H   0  0  0  0  0  0  0  0  0  0  0  0
   -0.0069    1.4035    0.0088 C   0  0  0  0  0  0  0  0  0  0  0  0
   -1.2026    0.6897   -0.0008 C   0  0  0  0  0  0  0  0  0  0  0  0
   -2.0716    1.1709   -0.0095 H   0  0  0  0  0  0  0  0  0  0  0  0
   -1.2049   -0.7168    0.0000 C   0  0  0  0  0  0  0  0  0  0  0  0
   -2.0715   -1.2094    0.0028 H   0  0  0  0  0  0  0  0  0  0  0  0
    0.0124   -1.3971   -0.0019 C   0  0  0  0  0  0  0  0  0  0  0  0
    0.0217   -2.3955   -0.0054 H   0  0  0  0  0  0  0  0  0  0  0  0
    1.2049   -0.6826   -0.0000 C   0  0  0  0  0  0  0  0  0  0  0  0
    2.0936   -1.1786    0.0071 H   0  0  0  0  0  0  0  0  0  0  0  0
    1.1972    0.7032   -0.0061 C   0  0  0  0  0  0  0  0  0  0  0  0
    2.0598    1.2061   -0.0218 H   0  0  0  0  0  0  0  0  0  0  0  0
  1  5  1  0
  5  8  1  0
  1  2  1  0
  1  3  1  0
  1  4  1  0
  5  6  1  0
  5  7  1  0
  8  9  1  0
  8 10  1  0
  8 11  1  0
 12 16  1  0
 16 17  2  0
 17 19  1  0
 19 21  2  0
 21 23  1  0
 23 25  2  0
 25 16  1  0
 12 13  1  0
 12 14  1  0
 12 15  1  0
 17 18  1  0
 19 20  1  0
 21 22  1  0
 23 24  1  0
 25 26  1  0
M  CHG  1   8   1
M  END
>  <PDB_ID>  (2854) 
pdb6alj

>  <RESIDUE_NAME>  (2854) 
LYS   PHE

>  <FRAG_NAME>  (2854) 
ETAM   MBZ

>  <FRAG_ATOM_NUM>  (2854) 
fragi: 11  fragj: 15

>  <atom.prop.CHAIN_ID>  (2854) 
A A A A A A A A A A A Z Z Z Z Z Z Z Z Z Z Z Z Z Z Z

>  <atom.prop.IS_HEAVY_ATOM>  (2854) 
1 0 0 0 1 0 0 1 0 0 0 1 0 0 0 1 1 0 1 0 1 0 1 0 1 0

>  <DIFUSE_FUNC_ATOM>  (2854) 
n/a

>  <FINAL_SINGLE_POINT_ENERGY>  (2854) 
0

>  <NONCOV_INTER_ENERGY_QM>  (2854) 
0

>  <FF_Energy>  (2854) 
-4.91

>  <QM_Energy>  (2854) 
-10.46

>  <source>  (2854) 
ETAM_MBZ

>  <Index>  (2854) 
30693

$$$$
ETAM-pdb5bju-A-LYS-272:MBZ-pdb5bju-A-PHE-268
     RDKit          3D

 26 25  0  0  0  0  0  0  0  0999 V2000
   -2.9612   -0.0084    4.7841 C   0  0  0  0  0  0  0  0  0  0  0  0
   -2.1464    0.3579    4.3833 H   0  0  0  0  0  0  0  0  0  0  0  0
   -2.8852   -0.9572    5.0095 H   0  0  0  0  0  0  0  0  0  0  0  0
   -3.1977    0.5551    5.6867 H   0  0  0  0  0  0  0  0  0  0  0  0
   -4.1125    0.1808    3.8242 C   0  0  0  0  0  0  0  0  0  0  0  0
   -4.7087   -0.6025    3.8776 H   0  0  0  0  0  0  0  0  0  0  0  0
   -4.5843    1.0172    4.0470 H   0  0  0  0  0  0  0  0  0  0  0  0
   -3.5239    0.2756    2.4901 N   0  0  0  0  0  4  0  0  0  0  0  0
   -4.1719   -0.0632    1.8019 H   0  0  0  0  0  0  0  0  0  0  0  0
   -3.2983    1.2315    2.2792 H   0  0  0  0  0  0  0  0  0  0  0  0
   -2.6847   -0.2734    2.4440 H   0  0  0  0  0  0  0  0  0  0  0  0
    0.0123    2.8881   -0.0451 C   0  0  0  0  0  0  0  0  0  0  0  0
   -0.1709    3.1533   -0.9859 H   0  0  0  0  0  0  0  0  0  0  0  0
    0.9163    3.1991    0.2319 H   0  0  0  0  0  0  0  0  0  0  0  0
   -0.7186    3.3910    0.5880 H   0  0  0  0  0  0  0  0  0  0  0  0
   -0.0002    1.3856    0.0228 C   0  0  0  0  0  0  0  0  0  0  0  0
   -1.1800    0.6794   -0.0141 C   0  0  0  0  0  0  0  0  0  0  0  0
   -2.0528    1.1731   -0.0531 H   0  0  0  0  0  0  0  0  0  0  0  0
   -1.1864   -0.6939   -0.0000 C   0  0  0  0  0  0  0  0  0  0  0  0
   -2.0659   -1.1901    0.0027 H   0  0  0  0  0  0  0  0  0  0  0  0
    0.0016   -1.3779    0.0124 C   0  0  0  0  0  0  0  0  0  0  0  0
    0.0025   -2.3813    0.0294 H   0  0  0  0  0  0  0  0  0  0  0  0
    1.1864   -0.6833    0.0000 C   0  0  0  0  0  0  0  0  0  0  0  0
    2.0749   -1.1818    0.0077 H   0  0  0  0  0  0  0  0  0  0  0  0
    1.1785    0.6901   -0.0210 C   0  0  0  0  0  0  0  0  0  0  0  0
    2.0506    1.1894   -0.0696 H   0  0  0  0  0  0  0  0  0  0  0  0
  1  5  1  0
  5  8  1  0
  1  2  1  0
  1  3  1  0
  1  4  1  0
  5  6  1  0
  5  7  1  0
  8  9  1  0
  8 10  1  0
  8 11  1  0
 12 16  1  0
 16 17  2  0
 17 19  1  0
 19 21  2  0
 21 23  1  0
 23 25  2  0
 25 16  1  0
 12 13  1  0
 12 14  1  0
 12 15  1  0
 17 18  1  0
 19 20  1  0
 21 22  1  0
 23 24  1  0
 25 26  1  0
M  CHG  1   8   1
M  END
>  <PDB_ID>  (2855) 
pdb5bju

>  <RESIDUE_NAME>  (2855) 
LYS   PHE

>  <FRAG_NAME>  (2855) 
ETAM   MBZ

>  <FRAG_ATOM_NUM>  (2855) 
fragi: 11  fragj: 15

>  <atom.prop.CHAIN_ID>  (2855) 
A A A A A A A A A A A Z Z Z Z Z Z Z Z Z Z Z Z Z Z Z

>  <atom.prop.IS_HEAVY_ATOM>  (2855) 
1 0 0 0 1 0 0 1 0 0 0 1 0 0 0 1 1 0 1 0 1 0 1 0 1 0

>  <DIFUSE_FUNC_ATOM>  (2855) 
n/a

>  <FINAL_SINGLE_POINT_ENERGY>  (2855) 
0

>  <NONCOV_INTER_ENERGY_QM>  (2855) 
0

>  <FF_Energy>  (2855) 
-2.09

>  <QM_Energy>  (2855) 
-7.65

>  <source>  (2855) 
ETAM_MBZ

>  <Index>  (2855) 
30704

$$$$
ETAM-pdb5b8i-A-LYS-378:MBZ-pdb5b8i-A-PHE-374
     RDKit          3D

 26 25  0  0  0  0  0  0  0  0999 V2000
    0.6348   -1.5336    3.7085 C   0  0  0  0  0  0  0  0  0  0  0  0
    1.0409   -2.0758    2.9849 H   0  0  0  0  0  0  0  0  0  0  0  0
    0.6937   -2.0045    4.5782 H   0  0  0  0  0  0  0  0  0  0  0  0
    1.1780   -0.5917    3.7840 H   0  0  0  0  0  0  0  0  0  0  0  0
   -0.8311   -1.2943    3.3787 C   0  0  0  0  0  0  0  0  0  0  0  0
   -1.2340   -0.7295    4.1111 H   0  0  0  0  0  0  0  0  0  0  0  0
   -0.8830   -0.7697    2.5175 H   0  0  0  0  0  0  0  0  0  0  0  0
   -1.5857   -2.5412    3.2434 N   0  0  0  0  0  4  0  0  0  0  0  0
   -1.0310   -3.2287    2.7671 H   0  0  0  0  0  0  0  0  0  0  0  0
   -1.8319   -2.8945    4.1502 H   0  0  0  0  0  0  0  0  0  0  0  0
   -2.4258   -2.3797    2.7183 H   0  0  0  0  0  0  0  0  0  0  0  0
   -0.0442    2.9288   -0.1049 C   0  0  0  0  0  0  0  0  0  0  0  0
   -0.5387    3.1652   -0.9250 H   0  0  0  0  0  0  0  0  0  0  0  0
    0.8886    3.2488   -0.1375 H   0  0  0  0  0  0  0  0  0  0  0  0
   -0.5361    3.4207    0.7343 H   0  0  0  0  0  0  0  0  0  0  0  0
   -0.0120    1.4150   -0.0018 C   0  0  0  0  0  0  0  0  0  0  0  0
   -1.2023    0.6743    0.0003 C   0  0  0  0  0  0  0  0  0  0  0  0
   -2.0786    1.1707    0.0005 H   0  0  0  0  0  0  0  0  0  0  0  0
   -1.2204   -0.7127   -0.0000 C   0  0  0  0  0  0  0  0  0  0  0  0
   -2.0910   -1.2051   -0.0089 H   0  0  0  0  0  0  0  0  0  0  0  0
   -0.0102   -1.4115    0.0138 C   0  0  0  0  0  0  0  0  0  0  0  0
   -0.0008   -2.4029    0.0322 H   0  0  0  0  0  0  0  0  0  0  0  0
    1.2204   -0.6969   -0.0000 C   0  0  0  0  0  0  0  0  0  0  0  0
    2.0929   -1.1917   -0.0000 H   0  0  0  0  0  0  0  0  0  0  0  0
    1.2245    0.7318   -0.0123 C   0  0  0  0  0  0  0  0  0  0  0  0
    2.0690    1.2192   -0.0290 H   0  0  0  0  0  0  0  0  0  0  0  0
  1  5  1  0
  5  8  1  0
  1  2  1  0
  1  3  1  0
  1  4  1  0
  5  6  1  0
  5  7  1  0
  8  9  1  0
  8 10  1  0
  8 11  1  0
 12 16  1  0
 16 17  2  0
 17 19  1  0
 19 21  2  0
 21 23  1  0
 23 25  2  0
 25 16  1  0
 12 13  1  0
 12 14  1  0
 12 15  1  0
 17 18  1  0
 19 20  1  0
 21 22  1  0
 23 24  1  0
 25 26  1  0
M  CHG  1   8   1
M  END
>  <PDB_ID>  (2856) 
pdb5b8i

>  <RESIDUE_NAME>  (2856) 
LYS   PHE

>  <FRAG_NAME>  (2856) 
ETAM   MBZ

>  <FRAG_ATOM_NUM>  (2856) 
fragi: 11  fragj: 15

>  <atom.prop.CHAIN_ID>  (2856) 
A A A A A A A A A A A Z Z Z Z Z Z Z Z Z Z Z Z Z Z Z

>  <atom.prop.IS_HEAVY_ATOM>  (2856) 
1 0 0 0 1 0 0 1 0 0 0 1 0 0 0 1 1 0 1 0 1 0 1 0 1 0

>  <DIFUSE_FUNC_ATOM>  (2856) 
n/a

>  <FINAL_SINGLE_POINT_ENERGY>  (2856) 
0

>  <NONCOV_INTER_ENERGY_QM>  (2856) 
0

>  <FF_Energy>  (2856) 
-3.01

>  <QM_Energy>  (2856) 
-9.24

>  <source>  (2856) 
ETAM_MBZ

>  <Index>  (2856) 
30705

$$$$
ETAM-pdb5bjs-A-LYS-62:MBZ-pdb5bjs-A-PHE-41
     RDKit          3D

 26 25  0  0  0  0  0  0  0  0999 V2000
    4.7687   -2.5588   -0.0901 C   0  0  0  0  0  0  0  0  0  0  0  0
    4.3018   -2.7551   -0.9435 H   0  0  0  0  0  0  0  0  0  0  0  0
    5.6845   -2.9406   -0.0940 H   0  0  0  0  0  0  0  0  0  0  0  0
    4.8309   -1.4789    0.0437 H   0  0  0  0  0  0  0  0  0  0  0  0
    3.9805   -3.2135    1.0506 C   0  0  0  0  0  0  0  0  0  0  0  0
    4.5639   -3.9045    1.4868 H   0  0  0  0  0  0  0  0  0  0  0  0
    3.7531   -2.5083    1.7287 H   0  0  0  0  0  0  0  0  0  0  0  0
    2.7249   -3.8594    0.5737 N   0  0  0  0  0  4  0  0  0  0  0  0
    2.1794   -3.1907    0.0704 H   0  0  0  0  0  0  0  0  0  0  0  0
    2.9539   -4.6250   -0.0268 H   0  0  0  0  0  0  0  0  0  0  0  0
    2.2054   -4.1928    1.3601 H   0  0  0  0  0  0  0  0  0  0  0  0
   -0.0163    2.9061    0.0050 C   0  0  0  0  0  0  0  0  0  0  0  0
    0.9112    3.2191    0.1413 H   0  0  0  0  0  0  0  0  0  0  0  0
   -0.6093    3.2038    0.7375 H   0  0  0  0  0  0  0  0  0  0  0  0
   -0.3849    3.3428   -0.9231 H   0  0  0  0  0  0  0  0  0  0  0  0
   -0.0043    1.4051   -0.0031 C   0  0  0  0  0  0  0  0  0  0  0  0
   -1.1936    0.6947   -0.0061 C   0  0  0  0  0  0  0  0  0  0  0  0
   -2.0661    1.1761   -0.0139 H   0  0  0  0  0  0  0  0  0  0  0  0
   -1.1963   -0.7067   -0.0000 C   0  0  0  0  0  0  0  0  0  0  0  0
   -2.0735   -1.1957   -0.0011 H   0  0  0  0  0  0  0  0  0  0  0  0
    0.0042   -1.3952    0.0093 C   0  0  0  0  0  0  0  0  0  0  0  0
    0.0045   -2.3953    0.0222 H   0  0  0  0  0  0  0  0  0  0  0  0
    1.1963   -0.6955    0.0000 C   0  0  0  0  0  0  0  0  0  0  0  0
    2.0834   -1.1898   -0.0051 H   0  0  0  0  0  0  0  0  0  0  0  0
    1.1937    0.6976   -0.0002 C   0  0  0  0  0  0  0  0  0  0  0  0
    2.0613    1.1924    0.0014 H   0  0  0  0  0  0  0  0  0  0  0  0
  1  5  1  0
  5  8  1  0
  1  2  1  0
  1  3  1  0
  1  4  1  0
  5  6  1  0
  5  7  1  0
  8  9  1  0
  8 10  1  0
  8 11  1  0
 12 16  1  0
 16 17  2  0
 17 19  1  0
 19 21  2  0
 21 23  1  0
 23 25  2  0
 25 16  1  0
 12 13  1  0
 12 14  1  0
 12 15  1  0
 17 18  1  0
 19 20  1  0
 21 22  1  0
 23 24  1  0
 25 26  1  0
M  CHG  1   8   1
M  END
>  <PDB_ID>  (2857) 
pdb5bjs

>  <RESIDUE_NAME>  (2857) 
LYS   PHE

>  <FRAG_NAME>  (2857) 
ETAM   MBZ

>  <FRAG_ATOM_NUM>  (2857) 
fragi: 11  fragj: 15

>  <atom.prop.CHAIN_ID>  (2857) 
A A A A A A A A A A A Z Z Z Z Z Z Z Z Z Z Z Z Z Z Z

>  <atom.prop.IS_HEAVY_ATOM>  (2857) 
1 0 0 0 1 0 0 1 0 0 0 1 0 0 0 1 1 0 1 0 1 0 1 0 1 0

>  <DIFUSE_FUNC_ATOM>  (2857) 
n/a

>  <FINAL_SINGLE_POINT_ENERGY>  (2857) 
0

>  <NONCOV_INTER_ENERGY_QM>  (2857) 
0

>  <FF_Energy>  (2857) 
0.89

>  <QM_Energy>  (2857) 
-4.88

>  <source>  (2857) 
ETAM_MBZ

>  <Index>  (2857) 
30706

$$$$
ETAM-pdb5b2o-A-LYS-786:MBZ-pdb5b2o-A-PHE-772
     RDKit          3D

 26 25  0  0  0  0  0  0  0  0999 V2000
    0.8164   -0.2246    4.1439 C   0  0  0  0  0  0  0  0  0  0  0  0
    0.8402    0.2743    5.0021 H   0  0  0  0  0  0  0  0  0  0  0  0
    1.3588    0.2382    3.4537 H   0  0  0  0  0  0  0  0  0  0  0  0
    1.2242   -1.2227    4.3039 H   0  0  0  0  0  0  0  0  0  0  0  0
   -0.6255   -0.2947    3.6623 C   0  0  0  0  0  0  0  0  0  0  0  0
   -0.6519   -0.7827    2.7889 H   0  0  0  0  0  0  0  0  0  0  0  0
   -1.1694   -0.7957    4.3372 H   0  0  0  0  0  0  0  0  0  0  0  0
   -1.1991    1.0659    3.4817 N   0  0  0  0  0  4  0  0  0  0  0  0
   -0.9488    1.4143    2.5781 H   0  0  0  0  0  0  0  0  0  0  0  0
   -2.1944    1.0191    3.5581 H   0  0  0  0  0  0  0  0  0  0  0  0
   -0.8373    1.6755    4.1870 H   0  0  0  0  0  0  0  0  0  0  0  0
   -0.0052    2.8979    0.0023 C   0  0  0  0  0  0  0  0  0  0  0  0
    0.9176    3.2127   -0.1549 H   0  0  0  0  0  0  0  0  0  0  0  0
   -0.3521    3.2083    0.8732 H   0  0  0  0  0  0  0  0  0  0  0  0
   -0.6370    3.3260   -0.7759 H   0  0  0  0  0  0  0  0  0  0  0  0
    0.0030    1.4006    0.0064 C   0  0  0  0  0  0  0  0  0  0  0  0
   -1.1936    0.6930   -0.0004 C   0  0  0  0  0  0  0  0  0  0  0  0
   -2.0609    1.1798   -0.0068 H   0  0  0  0  0  0  0  0  0  0  0  0
   -1.2005   -0.7056   -0.0000 C   0  0  0  0  0  0  0  0  0  0  0  0
   -2.0812   -1.1908    0.0009 H   0  0  0  0  0  0  0  0  0  0  0  0
   -0.0076   -1.3950    0.0009 C   0  0  0  0  0  0  0  0  0  0  0  0
    0.0005   -2.3936    0.0017 H   0  0  0  0  0  0  0  0  0  0  0  0
    1.2005   -0.6914   -0.0000 C   0  0  0  0  0  0  0  0  0  0  0  0
    2.0794   -1.1930    0.0058 H   0  0  0  0  0  0  0  0  0  0  0  0
    1.1982    0.6984   -0.0069 C   0  0  0  0  0  0  0  0  0  0  0  0
    2.0657    1.1940   -0.0222 H   0  0  0  0  0  0  0  0  0  0  0  0
  1  5  1  0
  5  8  1  0
  1  2  1  0
  1  3  1  0
  1  4  1  0
  5  6  1  0
  5  7  1  0
  8  9  1  0
  8 10  1  0
  8 11  1  0
 12 16  1  0
 16 17  2  0
 17 19  1  0
 19 21  2  0
 21 23  1  0
 23 25  2  0
 25 16  1  0
 12 13  1  0
 12 14  1  0
 12 15  1  0
 17 18  1  0
 19 20  1  0
 21 22  1  0
 23 24  1  0
 25 26  1  0
M  CHG  1   8   1
M  END
>  <PDB_ID>  (2858) 
pdb5b2o

>  <RESIDUE_NAME>  (2858) 
LYS   PHE

>  <FRAG_NAME>  (2858) 
ETAM   MBZ

>  <FRAG_ATOM_NUM>  (2858) 
fragi: 11  fragj: 15

>  <atom.prop.CHAIN_ID>  (2858) 
A A A A A A A A A A A Z Z Z Z Z Z Z Z Z Z Z Z Z Z Z

>  <atom.prop.IS_HEAVY_ATOM>  (2858) 
1 0 0 0 1 0 0 1 0 0 0 1 0 0 0 1 1 0 1 0 1 0 1 0 1 0

>  <DIFUSE_FUNC_ATOM>  (2858) 
n/a

>  <FINAL_SINGLE_POINT_ENERGY>  (2858) 
0

>  <NONCOV_INTER_ENERGY_QM>  (2858) 
0

>  <FF_Energy>  (2858) 
-7.38

>  <QM_Energy>  (2858) 
-13.03

>  <source>  (2858) 
ETAM_MBZ

>  <Index>  (2858) 
30710

$$$$
ETAM-pdb6b6l-A-LYS-98:MBZ-pdb6b6l-A-PHE-31
     RDKit          3D

 26 25  0  0  0  0  0  0  0  0999 V2000
    0.3539   -1.1884    3.8524 C   0  0  0  0  0  0  0  0  0  0  0  0
    0.6932   -0.6709    4.6147 H   0  0  0  0  0  0  0  0  0  0  0  0
    0.7787   -0.9344    3.0053 H   0  0  0  0  0  0  0  0  0  0  0  0
    0.5177   -2.2502    4.0356 H   0  0  0  0  0  0  0  0  0  0  0  0
   -1.1549   -0.9415    3.7312 C   0  0  0  0  0  0  0  0  0  0  0  0
   -1.4926   -1.4186    2.9215 H   0  0  0  0  0  0  0  0  0  0  0  0
   -1.6044   -1.3047    4.5460 H   0  0  0  0  0  0  0  0  0  0  0  0
   -1.4513    0.5134    3.6089 N   0  0  0  0  0  4  0  0  0  0  0  0
   -1.6610    0.7297    2.6560 H   0  0  0  0  0  0  0  0  0  0  0  0
   -2.2363    0.7411    4.1847 H   0  0  0  0  0  0  0  0  0  0  0  0
   -0.6549    1.0391    3.9046 H   0  0  0  0  0  0  0  0  0  0  0  0
    0.0215    2.9489   -0.0549 C   0  0  0  0  0  0  0  0  0  0  0  0
   -0.3412    3.2210   -0.9325 H   0  0  0  0  0  0  0  0  0  0  0  0
    0.9579    3.2424    0.0571 H   0  0  0  0  0  0  0  0  0  0  0  0
   -0.5724    3.4426    0.7143 H   0  0  0  0  0  0  0  0  0  0  0  0
    0.0042    1.4195    0.0017 C   0  0  0  0  0  0  0  0  0  0  0  0
   -1.2032    0.7120   -0.0099 C   0  0  0  0  0  0  0  0  0  0  0  0
   -2.0685    1.1869   -0.0262 H   0  0  0  0  0  0  0  0  0  0  0  0
   -1.2132   -0.7219   -0.0000 C   0  0  0  0  0  0  0  0  0  0  0  0
   -2.0891   -1.1948   -0.0034 H   0  0  0  0  0  0  0  0  0  0  0  0
   -0.0045   -1.4174    0.0163 C   0  0  0  0  0  0  0  0  0  0  0  0
    0.0136   -2.4040    0.0378 H   0  0  0  0  0  0  0  0  0  0  0  0
    1.2132   -0.6857    0.0000 C   0  0  0  0  0  0  0  0  0  0  0  0
    2.0907   -1.1933   -0.0040 H   0  0  0  0  0  0  0  0  0  0  0  0
    1.2035    0.6935   -0.0081 C   0  0  0  0  0  0  0  0  0  0  0  0
    2.0723    1.1988   -0.0223 H   0  0  0  0  0  0  0  0  0  0  0  0
  1  5  1  0
  5  8  1  0
  1  2  1  0
  1  3  1  0
  1  4  1  0
  5  6  1  0
  5  7  1  0
  8  9  1  0
  8 10  1  0
  8 11  1  0
 12 16  1  0
 16 17  2  0
 17 19  1  0
 19 21  2  0
 21 23  1  0
 23 25  2  0
 25 16  1  0
 12 13  1  0
 12 14  1  0
 12 15  1  0
 17 18  1  0
 19 20  1  0
 21 22  1  0
 23 24  1  0
 25 26  1  0
M  CHG  1   8   1
M  END
>  <PDB_ID>  (2859) 
pdb6b6l

>  <RESIDUE_NAME>  (2859) 
LYS   PHE

>  <FRAG_NAME>  (2859) 
ETAM   MBZ

>  <FRAG_ATOM_NUM>  (2859) 
fragi: 11  fragj: 15

>  <atom.prop.CHAIN_ID>  (2859) 
A A A A A A A A A A A Z Z Z Z Z Z Z Z Z Z Z Z Z Z Z

>  <atom.prop.IS_HEAVY_ATOM>  (2859) 
1 0 0 0 1 0 0 1 0 0 0 1 0 0 0 1 1 0 1 0 1 0 1 0 1 0

>  <DIFUSE_FUNC_ATOM>  (2859) 
n/a

>  <FINAL_SINGLE_POINT_ENERGY>  (2859) 
0

>  <NONCOV_INTER_ENERGY_QM>  (2859) 
0

>  <FF_Energy>  (2859) 
-6.85

>  <QM_Energy>  (2859) 
-13.36

>  <source>  (2859) 
ETAM_MBZ

>  <Index>  (2859) 
30711

$$$$
ETAM-pdb6b6l-B-LYS-98:MBZ-pdb6b6l-B-PHE-31
     RDKit          3D

 26 25  0  0  0  0  0  0  0  0999 V2000
   -0.0648   -1.0407    3.8633 C   0  0  0  0  0  0  0  0  0  0  0  0
    0.2170   -0.3824    4.5292 H   0  0  0  0  0  0  0  0  0  0  0  0
    0.4439   -0.9887    3.0300 H   0  0  0  0  0  0  0  0  0  0  0  0
    0.0051   -2.0452    4.2808 H   0  0  0  0  0  0  0  0  0  0  0  0
   -1.5668   -0.7480    3.5177 C   0  0  0  0  0  0  0  0  0  0  0  0
   -1.7913   -1.2364    2.6849 H   0  0  0  0  0  0  0  0  0  0  0  0
   -2.1238   -1.0674    4.2734 H   0  0  0  0  0  0  0  0  0  0  0  0
   -1.7866    0.7264    3.3150 N   0  0  0  0  0  4  0  0  0  0  0  0
   -1.9743    0.8957    2.3509 H   0  0  0  0  0  0  0  0  0  0  0  0
   -2.5622    1.0169    3.8691 H   0  0  0  0  0  0  0  0  0  0  0  0
   -0.9653    1.2172    3.5941 H   0  0  0  0  0  0  0  0  0  0  0  0
    0.0233    2.9021   -0.0669 C   0  0  0  0  0  0  0  0  0  0  0  0
   -0.2185    3.1711   -0.9920 H   0  0  0  0  0  0  0  0  0  0  0  0
    0.9452    3.2006    0.1526 H   0  0  0  0  0  0  0  0  0  0  0  0
   -0.6606    3.4063    0.6158 H   0  0  0  0  0  0  0  0  0  0  0  0
   -0.0017    1.3972   -0.0029 C   0  0  0  0  0  0  0  0  0  0  0  0
   -1.2054    0.6830   -0.0113 C   0  0  0  0  0  0  0  0  0  0  0  0
   -2.0661    1.1819   -0.0270 H   0  0  0  0  0  0  0  0  0  0  0  0
   -1.1961   -0.6818   -0.0000 C   0  0  0  0  0  0  0  0  0  0  0  0
   -2.0646   -1.2001    0.0004 H   0  0  0  0  0  0  0  0  0  0  0  0
    0.0212   -1.3875    0.0131 C   0  0  0  0  0  0  0  0  0  0  0  0
   -0.0057   -2.3874    0.0312 H   0  0  0  0  0  0  0  0  0  0  0  0
    1.1961   -0.7054    0.0000 C   0  0  0  0  0  0  0  0  0  0  0  0
    2.0888   -1.1858   -0.0095 H   0  0  0  0  0  0  0  0  0  0  0  0
    1.1859    0.6945    0.0011 C   0  0  0  0  0  0  0  0  0  0  0  0
    2.0591    1.1859    0.0045 H   0  0  0  0  0  0  0  0  0  0  0  0
  1  5  1  0
  5  8  1  0
  1  2  1  0
  1  3  1  0
  1  4  1  0
  5  6  1  0
  5  7  1  0
  8  9  1  0
  8 10  1  0
  8 11  1  0
 12 16  1  0
 16 17  2  0
 17 19  1  0
 19 21  2  0
 21 23  1  0
 23 25  2  0
 25 16  1  0
 12 13  1  0
 12 14  1  0
 12 15  1  0
 17 18  1  0
 19 20  1  0
 21 22  1  0
 23 24  1  0
 25 26  1  0
M  CHG  1   8   1
M  END
>  <PDB_ID>  (2860) 
pdb6b6l

>  <RESIDUE_NAME>  (2860) 
LYS   PHE

>  <FRAG_NAME>  (2860) 
ETAM   MBZ

>  <FRAG_ATOM_NUM>  (2860) 
fragi: 11  fragj: 15

>  <atom.prop.CHAIN_ID>  (2860) 
A A A A A A A A A A A Z Z Z Z Z Z Z Z Z Z Z Z Z Z Z

>  <atom.prop.IS_HEAVY_ATOM>  (2860) 
1 0 0 0 1 0 0 1 0 0 0 1 0 0 0 1 1 0 1 0 1 0 1 0 1 0

>  <DIFUSE_FUNC_ATOM>  (2860) 
n/a

>  <FINAL_SINGLE_POINT_ENERGY>  (2860) 
0

>  <NONCOV_INTER_ENERGY_QM>  (2860) 
0

>  <FF_Energy>  (2860) 
-6.52

>  <QM_Energy>  (2860) 
-13.19

>  <source>  (2860) 
ETAM_MBZ

>  <Index>  (2860) 
30715

$$$$
ETAM-pdb6b7p-A-LYS-60:MBZ-pdb6b7p-A-PHE-289
     RDKit          3D

 26 25  0  0  0  0  0  0  0  0999 V2000
   -0.2971   -1.2858    3.5763 C   0  0  0  0  0  0  0  0  0  0  0  0
    0.0437   -1.2071    4.5082 H   0  0  0  0  0  0  0  0  0  0  0  0
    0.3713   -0.9254    2.9334 H   0  0  0  0  0  0  0  0  0  0  0  0
   -0.4564   -2.3411    3.3550 H   0  0  0  0  0  0  0  0  0  0  0  0
   -1.5827   -0.4662    3.4558 C   0  0  0  0  0  0  0  0  0  0  0  0
   -1.9578   -0.5831    2.5682 H   0  0  0  0  0  0  0  0  0  0  0  0
   -2.1844   -0.7009    4.1804 H   0  0  0  0  0  0  0  0  0  0  0  0
   -1.1310    0.9599    3.6242 N   0  0  0  0  0  4  0  0  0  0  0  0
   -0.4102    0.9914    4.3120 H   0  0  0  0  0  0  0  0  0  0  0  0
   -0.7844    1.2940    2.7517 H   0  0  0  0  0  0  0  0  0  0  0  0
   -1.9071    1.5115    3.9174 H   0  0  0  0  0  0  0  0  0  0  0  0
   -0.0372    2.8938    0.0889 C   0  0  0  0  0  0  0  0  0  0  0  0
    0.8976    3.2390    0.0584 H   0  0  0  0  0  0  0  0  0  0  0  0
   -0.4817    3.1904    0.9319 H   0  0  0  0  0  0  0  0  0  0  0  0
   -0.5675    3.3958   -0.7204 H   0  0  0  0  0  0  0  0  0  0  0  0
   -0.0171    1.4227    0.0375 C   0  0  0  0  0  0  0  0  0  0  0  0
   -1.2029    0.6850   -0.0776 C   0  0  0  0  0  0  0  0  0  0  0  0
   -2.0686    1.1327   -0.2141 H   0  0  0  0  0  0  0  0  0  0  0  0
   -1.1785   -0.7519    0.0000 C   0  0  0  0  0  0  0  0  0  0  0  0
   -2.0504   -1.2274    0.0825 H   0  0  0  0  0  0  0  0  0  0  0  0
    0.0134   -1.3806   -0.0400 C   0  0  0  0  0  0  0  0  0  0  0  0
    0.0435   -2.3979   -0.1018 H   0  0  0  0  0  0  0  0  0  0  0  0
    1.1785   -0.6810   -0.0000 C   0  0  0  0  0  0  0  0  0  0  0  0
    2.0823   -1.1803   -0.0277 H   0  0  0  0  0  0  0  0  0  0  0  0
    1.2066    0.7057    0.0801 C   0  0  0  0  0  0  0  0  0  0  0  0
    2.0547    1.1954    0.1643 H   0  0  0  0  0  0  0  0  0  0  0  0
  1  5  1  0
  5  8  1  0
  1  2  1  0
  1  3  1  0
  1  4  1  0
  5  6  1  0
  5  7  1  0
  8  9  1  0
  8 10  1  0
  8 11  1  0
 12 16  1  0
 16 17  2  0
 17 19  1  0
 19 21  2  0
 21 23  1  0
 23 25  2  0
 25 16  1  0
 12 13  1  0
 12 14  1  0
 12 15  1  0
 17 18  1  0
 19 20  1  0
 21 22  1  0
 23 24  1  0
 25 26  1  0
M  CHG  1   8   1
M  END
>  <PDB_ID>  (2861) 
pdb6b7p

>  <RESIDUE_NAME>  (2861) 
LYS   PHE

>  <FRAG_NAME>  (2861) 
ETAM   MBZ

>  <FRAG_ATOM_NUM>  (2861) 
fragi: 11  fragj: 15

>  <atom.prop.CHAIN_ID>  (2861) 
A A A A A A A A A A A Z Z Z Z Z Z Z Z Z Z Z Z Z Z Z

>  <atom.prop.IS_HEAVY_ATOM>  (2861) 
1 0 0 0 1 0 0 1 0 0 0 1 0 0 0 1 1 0 1 0 1 0 1 0 1 0

>  <DIFUSE_FUNC_ATOM>  (2861) 
n/a

>  <FINAL_SINGLE_POINT_ENERGY>  (2861) 
0

>  <NONCOV_INTER_ENERGY_QM>  (2861) 
0

>  <FF_Energy>  (2861) 
-7.13

>  <QM_Energy>  (2861) 
-12.63

>  <source>  (2861) 
ETAM_MBZ

>  <Index>  (2861) 
30716

$$$$
ETAM-pdb6b7p-B-LYS-60:MBZ-pdb6b7p-B-PHE-289
     RDKit          3D

 26 25  0  0  0  0  0  0  0  0999 V2000
    0.0088   -1.0833    3.7274 C   0  0  0  0  0  0  0  0  0  0  0  0
    0.4363   -0.7889    4.5803 H   0  0  0  0  0  0  0  0  0  0  0  0
    0.5989   -0.8549    2.9562 H   0  0  0  0  0  0  0  0  0  0  0  0
   -0.1277   -2.1643    3.7585 H   0  0  0  0  0  0  0  0  0  0  0  0
   -1.3098   -0.3369    3.5640 C   0  0  0  0  0  0  0  0  0  0  0  0
   -1.7129   -0.5724    2.6955 H   0  0  0  0  0  0  0  0  0  0  0  0
   -1.9063   -0.5584    4.3164 H   0  0  0  0  0  0  0  0  0  0  0  0
   -1.0143    1.1381    3.5870 N   0  0  0  0  0  4  0  0  0  0  0  0
   -1.8605    1.6398    3.4254 H   0  0  0  0  0  0  0  0  0  0  0  0
   -0.6397    1.3792    4.4792 H   0  0  0  0  0  0  0  0  0  0  0  0
   -0.3520    1.3461    2.8718 H   0  0  0  0  0  0  0  0  0  0  0  0
   -0.1267    2.9384   -0.0516 C   0  0  0  0  0  0  0  0  0  0  0  0
    0.7899    3.3054   -0.0941 H   0  0  0  0  0  0  0  0  0  0  0  0
   -0.5920    3.2253    0.7723 H   0  0  0  0  0  0  0  0  0  0  0  0
   -0.6762    3.3695   -0.8884 H   0  0  0  0  0  0  0  0  0  0  0  0
   -0.0388    1.4281   -0.0516 C   0  0  0  0  0  0  0  0  0  0  0  0
   -1.2098    0.6210   -0.0386 C   0  0  0  0  0  0  0  0  0  0  0  0
   -2.1068    1.0835   -0.0592 H   0  0  0  0  0  0  0  0  0  0  0  0
   -1.1981   -0.7967   -0.0000 C   0  0  0  0  0  0  0  0  0  0  0  0
   -2.0329   -1.3020   -0.0115 H   0  0  0  0  0  0  0  0  0  0  0  0
    0.0533   -1.4020    0.0557 C   0  0  0  0  0  0  0  0  0  0  0  0
    0.1211   -2.3951    0.1346 H   0  0  0  0  0  0  0  0  0  0  0  0
    1.1981   -0.6211    0.0000 C   0  0  0  0  0  0  0  0  0  0  0  0
    2.1210   -1.0991   -0.0707 H   0  0  0  0  0  0  0  0  0  0  0  0
    1.1953    0.7708    0.0345 C   0  0  0  0  0  0  0  0  0  0  0  0
    2.0283    1.2776    0.1150 H   0  0  0  0  0  0  0  0  0  0  0  0
  1  5  1  0
  5  8  1  0
  1  2  1  0
  1  3  1  0
  1  4  1  0
  5  6  1  0
  5  7  1  0
  8  9  1  0
  8 10  1  0
  8 11  1  0
 12 16  1  0
 16 17  2  0
 17 19  1  0
 19 21  2  0
 21 23  1  0
 23 25  2  0
 25 16  1  0
 12 13  1  0
 12 14  1  0
 12 15  1  0
 17 18  1  0
 19 20  1  0
 21 22  1  0
 23 24  1  0
 25 26  1  0
M  CHG  1   8   1
M  END
>  <PDB_ID>  (2862) 
pdb6b7p

>  <RESIDUE_NAME>  (2862) 
LYS   PHE

>  <FRAG_NAME>  (2862) 
ETAM   MBZ

>  <FRAG_ATOM_NUM>  (2862) 
fragi: 11  fragj: 15

>  <atom.prop.CHAIN_ID>  (2862) 
A A A A A A A A A A A Z Z Z Z Z Z Z Z Z Z Z Z Z Z Z

>  <atom.prop.IS_HEAVY_ATOM>  (2862) 
1 0 0 0 1 0 0 1 0 0 0 1 0 0 0 1 1 0 1 0 1 0 1 0 1 0

>  <DIFUSE_FUNC_ATOM>  (2862) 
n/a

>  <FINAL_SINGLE_POINT_ENERGY>  (2862) 
0

>  <NONCOV_INTER_ENERGY_QM>  (2862) 
0

>  <FF_Energy>  (2862) 
-7.11

>  <QM_Energy>  (2862) 
-12.29

>  <source>  (2862) 
ETAM_MBZ

>  <Index>  (2862) 
30718

$$$$
ETAM-pdb6b9o-A-LYS-403:MBZ-pdb6b9o-B-PHE-234
     RDKit          3D

 26 25  0  0  0  0  0  0  0  0999 V2000
    2.7882   -2.1338    3.1849 C   0  0  0  0  0  0  0  0  0  0  0  0
    3.4869   -1.8924    3.8598 H   0  0  0  0  0  0  0  0  0  0  0  0
    3.0547   -1.7783    2.2886 H   0  0  0  0  0  0  0  0  0  0  0  0
    2.7170   -3.2198    3.1262 H   0  0  0  0  0  0  0  0  0  0  0  0
    1.4804   -1.4843    3.5921 C   0  0  0  0  0  0  0  0  0  0  0  0
    0.7730   -1.7426    2.9471 H   0  0  0  0  0  0  0  0  0  0  0  0
    1.2437   -1.7756    4.5106 H   0  0  0  0  0  0  0  0  0  0  0  0
    1.6555   -0.0112    3.5704 N   0  0  0  0  0  4  0  0  0  0  0  0
    2.2679    0.2627    4.3121 H   0  0  0  0  0  0  0  0  0  0  0  0
    2.0501    0.2652    2.6935 H   0  0  0  0  0  0  0  0  0  0  0  0
    0.7676    0.4322    3.6907 H   0  0  0  0  0  0  0  0  0  0  0  0
    0.0219    2.9225   -0.0016 C   0  0  0  0  0  0  0  0  0  0  0  0
    0.5444    3.2157   -0.7878 H   0  0  0  0  0  0  0  0  0  0  0  0
    0.4412    3.2234    0.8414 H   0  0  0  0  0  0  0  0  0  0  0  0
   -0.9644    3.3821   -0.0666 H   0  0  0  0  0  0  0  0  0  0  0  0
    0.0041    1.4087    0.0054 C   0  0  0  0  0  0  0  0  0  0  0  0
   -1.1983    0.7015    0.0027 C   0  0  0  0  0  0  0  0  0  0  0  0
   -2.0631    1.1847    0.0010 H   0  0  0  0  0  0  0  0  0  0  0  0
   -1.2003   -0.7054    0.0000 C   0  0  0  0  0  0  0  0  0  0  0  0
   -2.0777   -1.1924    0.0003 H   0  0  0  0  0  0  0  0  0  0  0  0
    0.0026   -1.4012   -0.0008 C   0  0  0  0  0  0  0  0  0  0  0  0
   -0.0018   -2.3998   -0.0022 H   0  0  0  0  0  0  0  0  0  0  0  0
    1.2003   -0.7034    0.0000 C   0  0  0  0  0  0  0  0  0  0  0  0
    2.0849   -1.1920    0.0073 H   0  0  0  0  0  0  0  0  0  0  0  0
    1.1916    0.6998   -0.0073 C   0  0  0  0  0  0  0  0  0  0  0  0
    2.0660    1.1885   -0.0233 H   0  0  0  0  0  0  0  0  0  0  0  0
  1  5  1  0
  5  8  1  0
  1  2  1  0
  1  3  1  0
  1  4  1  0
  5  6  1  0
  5  7  1  0
  8  9  1  0
  8 10  1  0
  8 11  1  0
 12 16  1  0
 16 17  2  0
 17 19  1  0
 19 21  2  0
 21 23  1  0
 23 25  2  0
 25 16  1  0
 12 13  1  0
 12 14  1  0
 12 15  1  0
 17 18  1  0
 19 20  1  0
 21 22  1  0
 23 24  1  0
 25 26  1  0
M  CHG  1   8   1
M  END
>  <PDB_ID>  (2863) 
pdb6b9o

>  <RESIDUE_NAME>  (2863) 
LYS   PHE

>  <FRAG_NAME>  (2863) 
ETAM   MBZ

>  <FRAG_ATOM_NUM>  (2863) 
fragi: 11  fragj: 15

>  <atom.prop.CHAIN_ID>  (2863) 
A A A A A A A A A A A Z Z Z Z Z Z Z Z Z Z Z Z Z Z Z

>  <atom.prop.IS_HEAVY_ATOM>  (2863) 
1 0 0 0 1 0 0 1 0 0 0 1 0 0 0 1 1 0 1 0 1 0 1 0 1 0

>  <DIFUSE_FUNC_ATOM>  (2863) 
n/a

>  <FINAL_SINGLE_POINT_ENERGY>  (2863) 
0

>  <NONCOV_INTER_ENERGY_QM>  (2863) 
0

>  <FF_Energy>  (2863) 
-6.01

>  <QM_Energy>  (2863) 
-11.45

>  <source>  (2863) 
ETAM_MBZ

>  <Index>  (2863) 
30734

$$$$
ETAM-pdb6b9o-B-LYS-403:MBZ-pdb6b9o-A-PHE-234
     RDKit          3D

 26 25  0  0  0  0  0  0  0  0999 V2000
    2.5895   -2.0636    3.3657 C   0  0  0  0  0  0  0  0  0  0  0  0
    3.2501   -1.9031    4.0977 H   0  0  0  0  0  0  0  0  0  0  0  0
    2.9286   -1.6691    2.5127 H   0  0  0  0  0  0  0  0  0  0  0  0
    2.4682   -3.1387    3.2327 H   0  0  0  0  0  0  0  0  0  0  0  0
    1.2852   -1.3734    3.7320 C   0  0  0  0  0  0  0  0  0  0  0  0
    0.6023   -1.5927    3.0553 H   0  0  0  0  0  0  0  0  0  0  0  0
    1.0097   -1.6612    4.6346 H   0  0  0  0  0  0  0  0  0  0  0  0
    1.5399    0.0865    3.7291 N   0  0  0  0  0  4  0  0  0  0  0  0
    2.3771    0.2816    4.2412 H   0  0  0  0  0  0  0  0  0  0  0  0
    1.6454    0.4060    2.7866 H   0  0  0  0  0  0  0  0  0  0  0  0
    0.7698    0.5611    4.1576 H   0  0  0  0  0  0  0  0  0  0  0  0
    0.0342    2.9192    0.0034 C   0  0  0  0  0  0  0  0  0  0  0  0
    0.6852    3.2100   -0.6877 H   0  0  0  0  0  0  0  0  0  0  0  0
    0.3264    3.2128    0.9061 H   0  0  0  0  0  0  0  0  0  0  0  0
   -0.9181    3.4041   -0.2113 H   0  0  0  0  0  0  0  0  0  0  0  0
   -0.0018    1.4093   -0.0021 C   0  0  0  0  0  0  0  0  0  0  0  0
   -1.1923    0.7045    0.0007 C   0  0  0  0  0  0  0  0  0  0  0  0
   -2.0619    1.1825    0.0021 H   0  0  0  0  0  0  0  0  0  0  0  0
   -1.1880   -0.6973   -0.0000 C   0  0  0  0  0  0  0  0  0  0  0  0
   -2.0704   -1.1867    0.0029 H   0  0  0  0  0  0  0  0  0  0  0  0
    0.0051   -1.3940   -0.0021 C   0  0  0  0  0  0  0  0  0  0  0  0
   -0.0093   -2.3973   -0.0055 H   0  0  0  0  0  0  0  0  0  0  0  0
    1.1880   -0.7117    0.0000 C   0  0  0  0  0  0  0  0  0  0  0  0
    2.0779   -1.1996    0.0005 H   0  0  0  0  0  0  0  0  0  0  0  0
    1.1889    0.6891    0.0035 C   0  0  0  0  0  0  0  0  0  0  0  0
    2.0622    1.1762    0.0094 H   0  0  0  0  0  0  0  0  0  0  0  0
  1  5  1  0
  5  8  1  0
  1  2  1  0
  1  3  1  0
  1  4  1  0
  5  6  1  0
  5  7  1  0
  8  9  1  0
  8 10  1  0
  8 11  1  0
 12 16  1  0
 16 17  2  0
 17 19  1  0
 19 21  2  0
 21 23  1  0
 23 25  2  0
 25 16  1  0
 12 13  1  0
 12 14  1  0
 12 15  1  0
 17 18  1  0
 19 20  1  0
 21 22  1  0
 23 24  1  0
 25 26  1  0
M  CHG  1   8   1
M  END
>  <PDB_ID>  (2864) 
pdb6b9o

>  <RESIDUE_NAME>  (2864) 
LYS   PHE

>  <FRAG_NAME>  (2864) 
ETAM   MBZ

>  <FRAG_ATOM_NUM>  (2864) 
fragi: 11  fragj: 15

>  <atom.prop.CHAIN_ID>  (2864) 
A A A A A A A A A A A Z Z Z Z Z Z Z Z Z Z Z Z Z Z Z

>  <atom.prop.IS_HEAVY_ATOM>  (2864) 
1 0 0 0 1 0 0 1 0 0 0 1 0 0 0 1 1 0 1 0 1 0 1 0 1 0

>  <DIFUSE_FUNC_ATOM>  (2864) 
n/a

>  <FINAL_SINGLE_POINT_ENERGY>  (2864) 
0

>  <NONCOV_INTER_ENERGY_QM>  (2864) 
0

>  <FF_Energy>  (2864) 
-6.07

>  <QM_Energy>  (2864) 
-11.42

>  <source>  (2864) 
ETAM_MBZ

>  <Index>  (2864) 
30739

$$$$
ETAM-pdb6b9s-C-LYS-258:MBZ-pdb6b9s-C-PHE-276
     RDKit          3D

 26 25  0  0  0  0  0  0  0  0999 V2000
    2.0820   -0.8955    3.5756 C   0  0  0  0  0  0  0  0  0  0  0  0
    2.7030   -0.2371    3.1635 H   0  0  0  0  0  0  0  0  0  0  0  0
    2.1414   -1.7698    3.1071 H   0  0  0  0  0  0  0  0  0  0  0  0
    2.3587   -1.0348    4.6206 H   0  0  0  0  0  0  0  0  0  0  0  0
    0.6584   -0.3698    3.4420 C   0  0  0  0  0  0  0  0  0  0  0  0
    0.3887   -0.4084    2.4723 H   0  0  0  0  0  0  0  0  0  0  0  0
    0.0404   -0.9699    3.9653 H   0  0  0  0  0  0  0  0  0  0  0  0
    0.5086    1.0293    3.9339 N   0  0  0  0  0  4  0  0  0  0  0  0
    1.3937    1.4902    3.8937 H   0  0  0  0  0  0  0  0  0  0  0  0
   -0.1485    1.5133    3.3577 H   0  0  0  0  0  0  0  0  0  0  0  0
    0.1804    1.0149    4.8776 H   0  0  0  0  0  0  0  0  0  0  0  0
    0.0008    2.9021   -0.0052 C   0  0  0  0  0  0  0  0  0  0  0  0
    0.8938    3.2082    0.2872 H   0  0  0  0  0  0  0  0  0  0  0  0
   -0.7074    3.2089    0.6111 H   0  0  0  0  0  0  0  0  0  0  0  0
   -0.1975    3.3371   -0.9848 H   0  0  0  0  0  0  0  0  0  0  0  0
    0.0001    1.3983   -0.0020 C   0  0  0  0  0  0  0  0  0  0  0  0
   -1.1897    0.6910   -0.0007 C   0  0  0  0  0  0  0  0  0  0  0  0
   -2.0597    1.1803   -0.0016 H   0  0  0  0  0  0  0  0  0  0  0  0
   -1.1928   -0.6955    0.0000 C   0  0  0  0  0  0  0  0  0  0  0  0
   -2.0733   -1.1888   -0.0004 H   0  0  0  0  0  0  0  0  0  0  0  0
   -0.0009   -1.3883    0.0029 C   0  0  0  0  0  0  0  0  0  0  0  0
   -0.0044   -2.3889    0.0066 H   0  0  0  0  0  0  0  0  0  0  0  0
    1.1928   -0.6961   -0.0000 C   0  0  0  0  0  0  0  0  0  0  0  0
    2.0770   -1.1935   -0.0005 H   0  0  0  0  0  0  0  0  0  0  0  0
    1.1905    0.6905   -0.0002 C   0  0  0  0  0  0  0  0  0  0  0  0
    2.0615    1.1856    0.0004 H   0  0  0  0  0  0  0  0  0  0  0  0
  1  5  1  0
  5  8  1  0
  1  2  1  0
  1  3  1  0
  1  4  1  0
  5  6  1  0
  5  7  1  0
  8  9  1  0
  8 10  1  0
  8 11  1  0
 12 16  1  0
 16 17  2  0
 17 19  1  0
 19 21  2  0
 21 23  1  0
 23 25  2  0
 25 16  1  0
 12 13  1  0
 12 14  1  0
 12 15  1  0
 17 18  1  0
 19 20  1  0
 21 22  1  0
 23 24  1  0
 25 26  1  0
M  CHG  1   8   1
M  END
>  <PDB_ID>  (2865) 
pdb6b9s

>  <RESIDUE_NAME>  (2865) 
LYS   PHE

>  <FRAG_NAME>  (2865) 
ETAM   MBZ

>  <FRAG_ATOM_NUM>  (2865) 
fragi: 11  fragj: 15

>  <atom.prop.CHAIN_ID>  (2865) 
A A A A A A A A A A A Z Z Z Z Z Z Z Z Z Z Z Z Z Z Z

>  <atom.prop.IS_HEAVY_ATOM>  (2865) 
1 0 0 0 1 0 0 1 0 0 0 1 0 0 0 1 1 0 1 0 1 0 1 0 1 0

>  <DIFUSE_FUNC_ATOM>  (2865) 
n/a

>  <FINAL_SINGLE_POINT_ENERGY>  (2865) 
0

>  <NONCOV_INTER_ENERGY_QM>  (2865) 
0

>  <FF_Energy>  (2865) 
-6.03

>  <QM_Energy>  (2865) 
-11.11

>  <source>  (2865) 
ETAM_MBZ

>  <Index>  (2865) 
30749

$$$$
ETAM-pdb6b9s-G-LYS-288:MBZ-pdb6b9s-G-PHE-284
     RDKit          3D

 26 25  0  0  0  0  0  0  0  0999 V2000
    1.6240   -1.5072    3.9401 C   0  0  0  0  0  0  0  0  0  0  0  0
    2.2360   -0.7384    4.1334 H   0  0  0  0  0  0  0  0  0  0  0  0
    1.9301   -2.3099    4.4557 H   0  0  0  0  0  0  0  0  0  0  0  0
    0.6175   -1.2439    4.2653 H   0  0  0  0  0  0  0  0  0  0  0  0
    1.6979   -1.8248    2.4656 C   0  0  0  0  0  0  0  0  0  0  0  0
    1.0930   -2.5961    2.2645 H   0  0  0  0  0  0  0  0  0  0  0  0
    1.3996   -1.0262    1.9413 H   0  0  0  0  0  0  0  0  0  0  0  0
    3.0848   -2.1771    2.0704 N   0  0  0  0  0  4  0  0  0  0  0  0
    3.3797   -1.5810    1.3224 H   0  0  0  0  0  0  0  0  0  0  0  0
    3.6955   -2.0560    2.8529 H   0  0  0  0  0  0  0  0  0  0  0  0
    3.1142   -3.1303    1.7684 H   0  0  0  0  0  0  0  0  0  0  0  0
   -0.0068    2.8962    0.0084 C   0  0  0  0  0  0  0  0  0  0  0  0
   -0.5460    3.2033   -0.7588 H   0  0  0  0  0  0  0  0  0  0  0  0
    0.9278    3.2064   -0.0561 H   0  0  0  0  0  0  0  0  0  0  0  0
   -0.4395    3.3215    0.9140 H   0  0  0  0  0  0  0  0  0  0  0  0
    0.0001    1.3937    0.0011 C   0  0  0  0  0  0  0  0  0  0  0  0
   -1.1919    0.6877   -0.0014 C   0  0  0  0  0  0  0  0  0  0  0  0
   -2.0596    1.1804   -0.0057 H   0  0  0  0  0  0  0  0  0  0  0  0
   -1.1951   -0.6925    0.0000 C   0  0  0  0  0  0  0  0  0  0  0  0
   -2.0734   -1.1895    0.0029 H   0  0  0  0  0  0  0  0  0  0  0  0
    0.0000   -1.3845   -0.0008 C   0  0  0  0  0  0  0  0  0  0  0  0
   -0.0042   -2.3859   -0.0029 H   0  0  0  0  0  0  0  0  0  0  0  0
    1.1951   -0.6932    0.0000 C   0  0  0  0  0  0  0  0  0  0  0  0
    2.0775   -1.1936    0.0014 H   0  0  0  0  0  0  0  0  0  0  0  0
    1.1917    0.6888    0.0011 C   0  0  0  0  0  0  0  0  0  0  0  0
    2.0609    1.1875    0.0010 H   0  0  0  0  0  0  0  0  0  0  0  0
  1  5  1  0
  5  8  1  0
  1  2  1  0
  1  3  1  0
  1  4  1  0
  5  6  1  0
  5  7  1  0
  8  9  1  0
  8 10  1  0
  8 11  1  0
 12 16  1  0
 16 17  2  0
 17 19  1  0
 19 21  2  0
 21 23  1  0
 23 25  2  0
 25 16  1  0
 12 13  1  0
 12 14  1  0
 12 15  1  0
 17 18  1  0
 19 20  1  0
 21 22  1  0
 23 24  1  0
 25 26  1  0
M  CHG  1   8   1
M  END
>  <PDB_ID>  (2866) 
pdb6b9s

>  <RESIDUE_NAME>  (2866) 
LYS   PHE

>  <FRAG_NAME>  (2866) 
ETAM   MBZ

>  <FRAG_ATOM_NUM>  (2866) 
fragi: 11  fragj: 15

>  <atom.prop.CHAIN_ID>  (2866) 
A A A A A A A A A A A Z Z Z Z Z Z Z Z Z Z Z Z Z Z Z

>  <atom.prop.IS_HEAVY_ATOM>  (2866) 
1 0 0 0 1 0 0 1 0 0 0 1 0 0 0 1 1 0 1 0 1 0 1 0 1 0

>  <DIFUSE_FUNC_ATOM>  (2866) 
n/a

>  <FINAL_SINGLE_POINT_ENERGY>  (2866) 
0

>  <NONCOV_INTER_ENERGY_QM>  (2866) 
0

>  <FF_Energy>  (2866) 
31.25

>  <QM_Energy>  (2866) 
2.05

>  <source>  (2866) 
ETAM_MBZ

>  <Index>  (2866) 
30761

$$$$
ETAM-pdb6bbt-A-LYS-15:MBZ-pdb6bbt-A-PHE-31
     RDKit          3D

 26 25  0  0  0  0  0  0  0  0999 V2000
    0.4534    1.5985    4.4335 C   0  0  0  0  0  0  0  0  0  0  0  0
    0.2520    1.4407    5.3951 H   0  0  0  0  0  0  0  0  0  0  0  0
   -0.0636    2.3793    4.0970 H   0  0  0  0  0  0  0  0  0  0  0  0
    1.5181    1.8045    4.3242 H   0  0  0  0  0  0  0  0  0  0  0  0
    0.0400    0.3679    3.6444 C   0  0  0  0  0  0  0  0  0  0  0  0
    0.3385    0.4831    2.6840 H   0  0  0  0  0  0  0  0  0  0  0  0
    0.5272   -0.4367    4.0194 H   0  0  0  0  0  0  0  0  0  0  0  0
   -1.4214    0.1036    3.6684 N   0  0  0  0  0  4  0  0  0  0  0  0
   -1.9058    0.9369    3.9338 H   0  0  0  0  0  0  0  0  0  0  0  0
   -1.7228   -0.1821    2.7589 H   0  0  0  0  0  0  0  0  0  0  0  0
   -1.6181   -0.6216    4.3279 H   0  0  0  0  0  0  0  0  0  0  0  0
   -0.0085    2.8752   -0.0362 C   0  0  0  0  0  0  0  0  0  0  0  0
    0.7997    3.2112    0.4187 H   0  0  0  0  0  0  0  0  0  0  0  0
   -0.8334    3.2003    0.3958 H   0  0  0  0  0  0  0  0  0  0  0  0
    0.0030    3.2605   -1.0558 H   0  0  0  0  0  0  0  0  0  0  0  0
    0.0006    1.3929    0.0164 C   0  0  0  0  0  0  0  0  0  0  0  0
   -1.1890    0.6868   -0.0134 C   0  0  0  0  0  0  0  0  0  0  0  0
   -2.0577    1.1823   -0.0468 H   0  0  0  0  0  0  0  0  0  0  0  0
   -1.1971   -0.6906    0.0000 C   0  0  0  0  0  0  0  0  0  0  0  0
   -2.0759   -1.1875    0.0113 H   0  0  0  0  0  0  0  0  0  0  0  0
   -0.0019   -1.3894   -0.0002 C   0  0  0  0  0  0  0  0  0  0  0  0
   -0.0082   -2.3883   -0.0012 H   0  0  0  0  0  0  0  0  0  0  0  0
    1.1971   -0.6973    0.0000 C   0  0  0  0  0  0  0  0  0  0  0  0
    2.0789   -1.1908    0.0037 H   0  0  0  0  0  0  0  0  0  0  0  0
    1.1903    0.6977   -0.0028 C   0  0  0  0  0  0  0  0  0  0  0  0
    2.0601    1.1907   -0.0195 H   0  0  0  0  0  0  0  0  0  0  0  0
  1  5  1  0
  5  8  1  0
  1  2  1  0
  1  3  1  0
  1  4  1  0
  5  6  1  0
  5  7  1  0
  8  9  1  0
  8 10  1  0
  8 11  1  0
 12 16  1  0
 16 17  2  0
 17 19  1  0
 19 21  2  0
 21 23  1  0
 23 25  2  0
 25 16  1  0
 12 13  1  0
 12 14  1  0
 12 15  1  0
 17 18  1  0
 19 20  1  0
 21 22  1  0
 23 24  1  0
 25 26  1  0
M  CHG  1   8   1
M  END
>  <PDB_ID>  (2867) 
pdb6bbt

>  <RESIDUE_NAME>  (2867) 
LYS   PHE

>  <FRAG_NAME>  (2867) 
ETAM   MBZ

>  <FRAG_ATOM_NUM>  (2867) 
fragi: 11  fragj: 15

>  <atom.prop.CHAIN_ID>  (2867) 
A A A A A A A A A A A Z Z Z Z Z Z Z Z Z Z Z Z Z Z Z

>  <atom.prop.IS_HEAVY_ATOM>  (2867) 
1 0 0 0 1 0 0 1 0 0 0 1 0 0 0 1 1 0 1 0 1 0 1 0 1 0

>  <DIFUSE_FUNC_ATOM>  (2867) 
n/a

>  <FINAL_SINGLE_POINT_ENERGY>  (2867) 
0

>  <NONCOV_INTER_ENERGY_QM>  (2867) 
0

>  <FF_Energy>  (2867) 
-6.92

>  <QM_Energy>  (2867) 
-12.78

>  <source>  (2867) 
ETAM_MBZ

>  <Index>  (2867) 
30774

$$$$
ETAM-pdb6b4e-B-LYS-494:MBZ-pdb6b4e-F-PHE-414
     RDKit          3D

 26 25  0  0  0  0  0  0  0  0999 V2000
    0.6699   -1.1726   -4.4806 C   0  0  0  0  0  0  0  0  0  0  0  0
    0.3202   -1.3809   -5.3603 H   0  0  0  0  0  0  0  0  0  0  0  0
    0.9403   -1.9870   -4.0284 H   0  0  0  0  0  0  0  0  0  0  0  0
    1.5362   -0.5197   -4.5871 H   0  0  0  0  0  0  0  0  0  0  0  0
   -0.4356   -0.5371   -3.6770 C   0  0  0  0  0  0  0  0  0  0  0  0
   -0.1228   -0.3667   -2.7748 H   0  0  0  0  0  0  0  0  0  0  0  0
   -0.7060    0.2917   -4.1018 H   0  0  0  0  0  0  0  0  0  0  0  0
   -1.6371   -1.4395   -3.5935 N   0  0  0  0  0  4  0  0  0  0  0  0
   -2.2785   -1.0481   -3.1166 H   0  0  0  0  0  0  0  0  0  0  0  0
   -1.4141   -2.2081   -3.2034 H   0  0  0  0  0  0  0  0  0  0  0  0
   -1.9477   -1.6091   -4.4101 H   0  0  0  0  0  0  0  0  0  0  0  0
    0.0257    2.9065    0.0297 C   0  0  0  0  0  0  0  0  0  0  0  0
    0.9439    3.1874   -0.1088 H   0  0  0  0  0  0  0  0  0  0  0  0
   -0.2700    3.1823    0.9119 H   0  0  0  0  0  0  0  0  0  0  0  0
   -0.6033    3.3928   -0.7160 H   0  0  0  0  0  0  0  0  0  0  0  0
   -0.0003    1.3947   -0.0094 C   0  0  0  0  0  0  0  0  0  0  0  0
   -1.1937    0.6950    0.0064 C   0  0  0  0  0  0  0  0  0  0  0  0
   -1.9989    1.1597    0.0061 H   0  0  0  0  0  0  0  0  0  0  0  0
   -1.2020   -0.6915   -0.0000 C   0  0  0  0  0  0  0  0  0  0  0  0
   -2.0088   -1.1528   -0.0047 H   0  0  0  0  0  0  0  0  0  0  0  0
   -0.0106   -1.3831   -0.0057 C   0  0  0  0  0  0  0  0  0  0  0  0
   -0.0156   -2.3131   -0.0115 H   0  0  0  0  0  0  0  0  0  0  0  0
    1.2020   -0.6973   -0.0000 C   0  0  0  0  0  0  0  0  0  0  0  0
    2.0045   -1.1663   -0.0024 H   0  0  0  0  0  0  0  0  0  0  0  0
    1.2045    0.6820    0.0086 C   0  0  0  0  0  0  0  0  0  0  0  0
    2.0126    1.1425    0.0084 H   0  0  0  0  0  0  0  0  0  0  0  0
  1  5  1  0
  5  8  1  0
  1  2  1  0
  1  3  1  0
  1  4  1  0
  5  6  1  0
  5  7  1  0
  8  9  1  0
  8 10  1  0
  8 11  1  0
 12 16  1  0
 16 17  2  0
 17 19  1  0
 19 21  2  0
 21 23  1  0
 23 25  2  0
 25 16  1  0
 12 13  1  0
 12 14  1  0
 12 15  1  0
 17 18  1  0
 19 20  1  0
 21 22  1  0
 23 24  1  0
 25 26  1  0
M  CHG  1   8   1
M  END
>  <PDB_ID>  (2868) 
pdb6b4e

>  <RESIDUE_NAME>  (2868) 
LYS   PHE

>  <FRAG_NAME>  (2868) 
ETAM   MBZ

>  <FRAG_ATOM_NUM>  (2868) 
fragi: 11  fragj: 15

>  <atom.prop.CHAIN_ID>  (2868) 
A A A A A A A A A A A Z Z Z Z Z Z Z Z Z Z Z Z Z Z Z

>  <atom.prop.IS_HEAVY_ATOM>  (2868) 
1 0 0 0 1 0 0 1 0 0 0 1 0 0 0 1 1 0 1 0 1 0 1 0 1 0

>  <DIFUSE_FUNC_ATOM>  (2868) 
n/a

>  <FINAL_SINGLE_POINT_ENERGY>  (2868) 
0

>  <NONCOV_INTER_ENERGY_QM>  (2868) 
0

>  <FF_Energy>  (2868) 
-5.01

>  <QM_Energy>  (2868) 
-10.66

>  <source>  (2868) 
ETAM_MBZ

>  <Index>  (2868) 
30776

$$$$
ETAM-pdb5bju-B-LYS-272:MBZ-pdb5bju-B-PHE-268
     RDKit          3D

 26 25  0  0  0  0  0  0  0  0999 V2000
   -3.1322    0.0070    4.8860 C   0  0  0  0  0  0  0  0  0  0  0  0
   -2.2341    0.0117    4.5004 H   0  0  0  0  0  0  0  0  0  0  0  0
   -3.4359   -0.8831    5.1517 H   0  0  0  0  0  0  0  0  0  0  0  0
   -3.1526    0.6672    5.7531 H   0  0  0  0  0  0  0  0  0  0  0  0
   -4.1037    0.5808    3.8841 C   0  0  0  0  0  0  0  0  0  0  0  0
   -4.9976    0.1745    4.0284 H   0  0  0  0  0  0  0  0  0  0  0  0
   -4.1434    1.5658    3.9967 H   0  0  0  0  0  0  0  0  0  0  0  0
   -3.6184    0.2530    2.5390 N   0  0  0  0  0  4  0  0  0  0  0  0
   -2.9509   -0.4942    2.5889 H   0  0  0  0  0  0  0  0  0  0  0  0
   -4.3852   -0.0326    1.9587 H   0  0  0  0  0  0  0  0  0  0  0  0
   -3.1802    1.0562    2.1278 H   0  0  0  0  0  0  0  0  0  0  0  0
    0.0356    2.8613   -0.0268 C   0  0  0  0  0  0  0  0  0  0  0  0
   -0.1596    3.1528   -0.9607 H   0  0  0  0  0  0  0  0  0  0  0  0
    0.9491    3.1604    0.2381 H   0  0  0  0  0  0  0  0  0  0  0  0
   -0.6765    3.3621    0.6292 H   0  0  0  0  0  0  0  0  0  0  0  0
   -0.0008    1.3819    0.0162 C   0  0  0  0  0  0  0  0  0  0  0  0
   -1.1841    0.6914   -0.0089 C   0  0  0  0  0  0  0  0  0  0  0  0
   -2.0528    1.1841   -0.0355 H   0  0  0  0  0  0  0  0  0  0  0  0
   -1.1894   -0.6833    0.0000 C   0  0  0  0  0  0  0  0  0  0  0  0
   -2.0726   -1.1793    0.0060 H   0  0  0  0  0  0  0  0  0  0  0  0
   -0.0023   -1.3813    0.0028 C   0  0  0  0  0  0  0  0  0  0  0  0
   -0.0096   -2.3816    0.0068 H   0  0  0  0  0  0  0  0  0  0  0  0
    1.1894   -0.6914    0.0000 C   0  0  0  0  0  0  0  0  0  0  0  0
    2.0730   -1.1949    0.0062 H   0  0  0  0  0  0  0  0  0  0  0  0
    1.1872    0.6826   -0.0101 C   0  0  0  0  0  0  0  0  0  0  0  0
    2.0564    1.1830   -0.0375 H   0  0  0  0  0  0  0  0  0  0  0  0
  1  5  1  0
  5  8  1  0
  1  2  1  0
  1  3  1  0
  1  4  1  0
  5  6  1  0
  5  7  1  0
  8  9  1  0
  8 10  1  0
  8 11  1  0
 12 16  1  0
 16 17  2  0
 17 19  1  0
 19 21  2  0
 21 23  1  0
 23 25  2  0
 25 16  1  0
 12 13  1  0
 12 14  1  0
 12 15  1  0
 17 18  1  0
 19 20  1  0
 21 22  1  0
 23 24  1  0
 25 26  1  0
M  CHG  1   8   1
M  END
>  <PDB_ID>  (2869) 
pdb5bju

>  <RESIDUE_NAME>  (2869) 
LYS   PHE

>  <FRAG_NAME>  (2869) 
ETAM   MBZ

>  <FRAG_ATOM_NUM>  (2869) 
fragi: 11  fragj: 15

>  <atom.prop.CHAIN_ID>  (2869) 
A A A A A A A A A A A Z Z Z Z Z Z Z Z Z Z Z Z Z Z Z

>  <atom.prop.IS_HEAVY_ATOM>  (2869) 
1 0 0 0 1 0 0 1 0 0 0 1 0 0 0 1 1 0 1 0 1 0 1 0 1 0

>  <DIFUSE_FUNC_ATOM>  (2869) 
n/a

>  <FINAL_SINGLE_POINT_ENERGY>  (2869) 
0

>  <NONCOV_INTER_ENERGY_QM>  (2869) 
0

>  <FF_Energy>  (2869) 
-1.82

>  <QM_Energy>  (2869) 
-6.95

>  <source>  (2869) 
ETAM_MBZ

>  <Index>  (2869) 
30777

$$$$
ETAM-pdb6bcr-B-LYS-157:MBZ-pdb6bcr-B-PHE-153
     RDKit          3D

 26 25  0  0  0  0  0  0  0  0999 V2000
    2.6227   -1.8370    2.8313 C   0  0  0  0  0  0  0  0  0  0  0  0
    2.9662   -2.5614    3.3770 H   0  0  0  0  0  0  0  0  0  0  0  0
    1.9861   -2.1793    2.1841 H   0  0  0  0  0  0  0  0  0  0  0  0
    2.1234   -1.1112    3.4731 H   0  0  0  0  0  0  0  0  0  0  0  0
    3.7924   -1.2255    2.0660 C   0  0  0  0  0  0  0  0  0  0  0  0
    3.4869   -0.4342    1.5961 H   0  0  0  0  0  0  0  0  0  0  0  0
    4.4957   -0.9915    2.6921 H   0  0  0  0  0  0  0  0  0  0  0  0
    4.3631   -2.1767    1.0581 N   0  0  0  0  0  4  0  0  0  0  0  0
    5.0417   -1.7937    0.6280 H   0  0  0  0  0  0  0  0  0  0  0  0
    4.6561   -2.9112    1.4652 H   0  0  0  0  0  0  0  0  0  0  0  0
    3.7379   -2.4038    0.4662 H   0  0  0  0  0  0  0  0  0  0  0  0
   -0.0024    2.8943   -0.0052 C   0  0  0  0  0  0  0  0  0  0  0  0
   -0.7833    3.1866   -0.5001 H   0  0  0  0  0  0  0  0  0  0  0  0
    0.8022    3.1894   -0.4589 H   0  0  0  0  0  0  0  0  0  0  0  0
   -0.0284    3.3429    0.9879 H   0  0  0  0  0  0  0  0  0  0  0  0
   -0.0006    1.3946    0.0014 C   0  0  0  0  0  0  0  0  0  0  0  0
   -1.1930    0.6890   -0.0016 C   0  0  0  0  0  0  0  0  0  0  0  0
   -1.9998    1.1507   -0.0023 H   0  0  0  0  0  0  0  0  0  0  0  0
   -1.1978   -0.6918    0.0000 C   0  0  0  0  0  0  0  0  0  0  0  0
   -2.0038   -1.1541   -0.0002 H   0  0  0  0  0  0  0  0  0  0  0  0
   -0.0005   -1.3858    0.0007 C   0  0  0  0  0  0  0  0  0  0  0  0
   -0.0014   -2.3147    0.0020 H   0  0  0  0  0  0  0  0  0  0  0  0
    1.1978   -0.6939   -0.0000 C   0  0  0  0  0  0  0  0  0  0  0  0
    2.0033   -1.1573    0.0012 H   0  0  0  0  0  0  0  0  0  0  0  0
    1.1941    0.6879   -0.0005 C   0  0  0  0  0  0  0  0  0  0  0  0
    2.0013    1.1497   -0.0010 H   0  0  0  0  0  0  0  0  0  0  0  0
  1  5  1  0
  5  8  1  0
  1  2  1  0
  1  3  1  0
  1  4  1  0
  5  6  1  0
  5  7  1  0
  8  9  1  0
  8 10  1  0
  8 11  1  0
 12 16  1  0
 16 17  2  0
 17 19  1  0
 19 21  2  0
 21 23  1  0
 23 25  2  0
 25 16  1  0
 12 13  1  0
 12 14  1  0
 12 15  1  0
 17 18  1  0
 19 20  1  0
 21 22  1  0
 23 24  1  0
 25 26  1  0
M  CHG  1   8   1
M  END
>  <PDB_ID>  (2870) 
pdb6bcr

>  <RESIDUE_NAME>  (2870) 
LYS   PHE

>  <FRAG_NAME>  (2870) 
ETAM   MBZ

>  <FRAG_ATOM_NUM>  (2870) 
fragi: 11  fragj: 15

>  <atom.prop.CHAIN_ID>  (2870) 
A A A A A A A A A A A Z Z Z Z Z Z Z Z Z Z Z Z Z Z Z

>  <atom.prop.IS_HEAVY_ATOM>  (2870) 
1 0 0 0 1 0 0 1 0 0 0 1 0 0 0 1 1 0 1 0 1 0 1 0 1 0

>  <DIFUSE_FUNC_ATOM>  (2870) 
n/a

>  <FINAL_SINGLE_POINT_ENERGY>  (2870) 
0

>  <NONCOV_INTER_ENERGY_QM>  (2870) 
0

>  <FF_Energy>  (2870) 
0.95

>  <QM_Energy>  (2870) 
-4.2

>  <source>  (2870) 
ETAM_MBZ

>  <Index>  (2870) 
30792

$$$$
ETAM-pdb6bcr-F-LYS-157:MBZ-pdb6bcr-F-PHE-153
     RDKit          3D

 26 25  0  0  0  0  0  0  0  0999 V2000
    0.5707   -0.1727    4.7849 C   0  0  0  0  0  0  0  0  0  0  0  0
    1.0772    0.6514    4.7255 H   0  0  0  0  0  0  0  0  0  0  0  0
    0.9375   -0.7414    5.4794 H   0  0  0  0  0  0  0  0  0  0  0  0
   -0.4660    0.0621    5.0262 H   0  0  0  0  0  0  0  0  0  0  0  0
    0.6988   -0.9000    3.4645 C   0  0  0  0  0  0  0  0  0  0  0  0
    0.6847   -1.8576    3.6148 H   0  0  0  0  0  0  0  0  0  0  0  0
   -0.0199   -0.6333    2.8718 H   0  0  0  0  0  0  0  0  0  0  0  0
    1.9969   -0.5334    2.8392 N   0  0  0  0  0  4  0  0  0  0  0  0
    2.6693   -0.7663    3.3734 H   0  0  0  0  0  0  0  0  0  0  0  0
    2.0886   -0.9535    2.0594 H   0  0  0  0  0  0  0  0  0  0  0  0
    2.0295    0.3455    2.6995 H   0  0  0  0  0  0  0  0  0  0  0  0
    0.0286    2.8945   -0.0271 C   0  0  0  0  0  0  0  0  0  0  0  0
   -0.0606    3.1690   -0.9544 H   0  0  0  0  0  0  0  0  0  0  0  0
    0.8903    3.1792    0.3139 H   0  0  0  0  0  0  0  0  0  0  0  0
   -0.7537    3.3814    0.5552 H   0  0  0  0  0  0  0  0  0  0  0  0
    0.0011    1.3917    0.0054 C   0  0  0  0  0  0  0  0  0  0  0  0
   -1.1897    0.6915   -0.0086 C   0  0  0  0  0  0  0  0  0  0  0  0
   -1.9975    1.1537   -0.0107 H   0  0  0  0  0  0  0  0  0  0  0  0
   -1.1910   -0.6863   -0.0000 C   0  0  0  0  0  0  0  0  0  0  0  0
   -1.9971   -1.1496    0.0013 H   0  0  0  0  0  0  0  0  0  0  0  0
   -0.0012   -1.3803    0.0051 C   0  0  0  0  0  0  0  0  0  0  0  0
   -0.0050   -2.3101    0.0112 H   0  0  0  0  0  0  0  0  0  0  0  0
    1.1910   -0.6974    0.0000 C   0  0  0  0  0  0  0  0  0  0  0  0
    1.9958   -1.1635    0.0067 H   0  0  0  0  0  0  0  0  0  0  0  0
    1.1898    0.6808   -0.0020 C   0  0  0  0  0  0  0  0  0  0  0  0
    1.9988    1.1384   -0.0046 H   0  0  0  0  0  0  0  0  0  0  0  0
  1  5  1  0
  5  8  1  0
  1  2  1  0
  1  3  1  0
  1  4  1  0
  5  6  1  0
  5  7  1  0
  8  9  1  0
  8 10  1  0
  8 11  1  0
 12 16  1  0
 16 17  2  0
 17 19  1  0
 19 21  2  0
 21 23  1  0
 23 25  2  0
 25 16  1  0
 12 13  1  0
 12 14  1  0
 12 15  1  0
 17 18  1  0
 19 20  1  0
 21 22  1  0
 23 24  1  0
 25 26  1  0
M  CHG  1   8   1
M  END
>  <PDB_ID>  (2871) 
pdb6bcr

>  <RESIDUE_NAME>  (2871) 
LYS   PHE

>  <FRAG_NAME>  (2871) 
ETAM   MBZ

>  <FRAG_ATOM_NUM>  (2871) 
fragi: 11  fragj: 15

>  <atom.prop.CHAIN_ID>  (2871) 
A A A A A A A A A A A Z Z Z Z Z Z Z Z Z Z Z Z Z Z Z

>  <atom.prop.IS_HEAVY_ATOM>  (2871) 
1 0 0 0 1 0 0 1 0 0 0 1 0 0 0 1 1 0 1 0 1 0 1 0 1 0

>  <DIFUSE_FUNC_ATOM>  (2871) 
n/a

>  <FINAL_SINGLE_POINT_ENERGY>  (2871) 
0

>  <NONCOV_INTER_ENERGY_QM>  (2871) 
0

>  <FF_Energy>  (2871) 
-4.0

>  <QM_Energy>  (2871) 
-12.19

>  <source>  (2871) 
ETAM_MBZ

>  <Index>  (2871) 
30799

$$$$
ETAM-pdb6bcy-F-LYS-157:MBZ-pdb6bcy-F-PHE-153
     RDKit          3D

 26 25  0  0  0  0  0  0  0  0999 V2000
    2.5507   -1.8513    2.8652 C   0  0  0  0  0  0  0  0  0  0  0  0
    2.8980   -2.5756    3.4099 H   0  0  0  0  0  0  0  0  0  0  0  0
    1.9408   -2.1998    2.1972 H   0  0  0  0  0  0  0  0  0  0  0  0
    2.0168   -1.1485    3.5050 H   0  0  0  0  0  0  0  0  0  0  0  0
    3.7216   -1.1994    2.1430 C   0  0  0  0  0  0  0  0  0  0  0  0
    3.4027   -0.4260    1.6515 H   0  0  0  0  0  0  0  0  0  0  0  0
    4.3886   -0.9307    2.7944 H   0  0  0  0  0  0  0  0  0  0  0  0
    4.3687   -2.1299    1.1749 N   0  0  0  0  0  4  0  0  0  0  0  0
    5.0480   -1.7226    0.7688 H   0  0  0  0  0  0  0  0  0  0  0  0
    4.6762   -2.8483    1.6019 H   0  0  0  0  0  0  0  0  0  0  0  0
    3.7782   -2.3895    0.5614 H   0  0  0  0  0  0  0  0  0  0  0  0
   -0.0021    2.8950   -0.0018 C   0  0  0  0  0  0  0  0  0  0  0  0
   -0.7543    3.1895   -0.5390 H   0  0  0  0  0  0  0  0  0  0  0  0
    0.8275    3.1915   -0.4086 H   0  0  0  0  0  0  0  0  0  0  0  0
   -0.0844    3.3374    0.9911 H   0  0  0  0  0  0  0  0  0  0  0  0
   -0.0001    1.3935    0.0006 C   0  0  0  0  0  0  0  0  0  0  0  0
   -1.1907    0.6878   -0.0003 C   0  0  0  0  0  0  0  0  0  0  0  0
   -1.9988    1.1485    0.0001 H   0  0  0  0  0  0  0  0  0  0  0  0
   -1.1938   -0.6929   -0.0000 C   0  0  0  0  0  0  0  0  0  0  0  0
   -1.9999   -1.1565    0.0008 H   0  0  0  0  0  0  0  0  0  0  0  0
   -0.0014   -1.3835    0.0013 C   0  0  0  0  0  0  0  0  0  0  0  0
   -0.0017   -2.3139    0.0011 H   0  0  0  0  0  0  0  0  0  0  0  0
    1.1938   -0.6929    0.0000 C   0  0  0  0  0  0  0  0  0  0  0  0
    1.9996   -1.1563   -0.0000 H   0  0  0  0  0  0  0  0  0  0  0  0
    1.1922    0.6881   -0.0016 C   0  0  0  0  0  0  0  0  0  0  0  0
    1.9989    1.1497   -0.0015 H   0  0  0  0  0  0  0  0  0  0  0  0
  1  5  1  0
  5  8  1  0
  1  2  1  0
  1  3  1  0
  1  4  1  0
  5  6  1  0
  5  7  1  0
  8  9  1  0
  8 10  1  0
  8 11  1  0
 12 16  1  0
 16 17  2  0
 17 19  1  0
 19 21  2  0
 21 23  1  0
 23 25  2  0
 25 16  1  0
 12 13  1  0
 12 14  1  0
 12 15  1  0
 17 18  1  0
 19 20  1  0
 21 22  1  0
 23 24  1  0
 25 26  1  0
M  CHG  1   8   1
M  END
>  <PDB_ID>  (2872) 
pdb6bcy

>  <RESIDUE_NAME>  (2872) 
LYS   PHE

>  <FRAG_NAME>  (2872) 
ETAM   MBZ

>  <FRAG_ATOM_NUM>  (2872) 
fragi: 11  fragj: 15

>  <atom.prop.CHAIN_ID>  (2872) 
A A A A A A A A A A A Z Z Z Z Z Z Z Z Z Z Z Z Z Z Z

>  <atom.prop.IS_HEAVY_ATOM>  (2872) 
1 0 0 0 1 0 0 1 0 0 0 1 0 0 0 1 1 0 1 0 1 0 1 0 1 0

>  <DIFUSE_FUNC_ATOM>  (2872) 
n/a

>  <FINAL_SINGLE_POINT_ENERGY>  (2872) 
0

>  <NONCOV_INTER_ENERGY_QM>  (2872) 
0

>  <FF_Energy>  (2872) 
0.79

>  <QM_Energy>  (2872) 
-4.32

>  <source>  (2872) 
ETAM_MBZ

>  <Index>  (2872) 
30801

$$$$
ETAM-pdb6bdx-A-LYS-184:MBZ-pdb6bdx-A-PHE-205
     RDKit          3D

 26 25  0  0  0  0  0  0  0  0999 V2000
   -3.9695   -1.2347   -3.1395 C   0  0  0  0  0  0  0  0  0  0  0  0
   -3.6124   -1.8953   -3.8031 H   0  0  0  0  0  0  0  0  0  0  0  0
   -4.5766   -0.5911   -3.6085 H   0  0  0  0  0  0  0  0  0  0  0  0
   -4.5427   -1.7724   -2.3842 H   0  0  0  0  0  0  0  0  0  0  0  0
   -2.8093   -0.4630   -2.5533 C   0  0  0  0  0  0  0  0  0  0  0  0
   -3.1589    0.2025   -1.8934 H   0  0  0  0  0  0  0  0  0  0  0  0
   -2.1937   -1.0997   -2.0876 H   0  0  0  0  0  0  0  0  0  0  0  0
   -2.0600    0.2505   -3.6177 N   0  0  0  0  0  4  0  0  0  0  0  0
   -2.6432    0.3546   -4.4238 H   0  0  0  0  0  0  0  0  0  0  0  0
   -1.7868    1.1532   -3.2849 H   0  0  0  0  0  0  0  0  0  0  0  0
   -1.2451   -0.2757   -3.8619 H   0  0  0  0  0  0  0  0  0  0  0  0
   -0.0198    2.8341    0.0359 C   0  0  0  0  0  0  0  0  0  0  0  0
   -0.7682    3.1626   -0.5285 H   0  0  0  0  0  0  0  0  0  0  0  0
    0.8489    3.1813   -0.2997 H   0  0  0  0  0  0  0  0  0  0  0  0
   -0.1653    3.2555    1.0306 H   0  0  0  0  0  0  0  0  0  0  0  0
    0.0005    1.3775    0.0083 C   0  0  0  0  0  0  0  0  0  0  0  0
   -1.2070    0.6565    0.0095 C   0  0  0  0  0  0  0  0  0  0  0  0
   -2.0673    1.1598    0.0157 H   0  0  0  0  0  0  0  0  0  0  0  0
   -1.2046   -0.7102   -0.0000 C   0  0  0  0  0  0  0  0  0  0  0  0
   -2.0724   -1.2177    0.0099 H   0  0  0  0  0  0  0  0  0  0  0  0
   -0.0054   -1.3650   -0.0213 C   0  0  0  0  0  0  0  0  0  0  0  0
    0.0224   -2.3725   -0.0533 H   0  0  0  0  0  0  0  0  0  0  0  0
    1.2046   -0.6558    0.0000 C   0  0  0  0  0  0  0  0  0  0  0  0
    2.0805   -1.1807    0.0139 H   0  0  0  0  0  0  0  0  0  0  0  0
    1.2118    0.6970    0.0035 C   0  0  0  0  0  0  0  0  0  0  0  0
    2.0622    1.2114    0.0023 H   0  0  0  0  0  0  0  0  0  0  0  0
  1  5  1  0
  5  8  1  0
  1  2  1  0
  1  3  1  0
  1  4  1  0
  5  6  1  0
  5  7  1  0
  8  9  1  0
  8 10  1  0
  8 11  1  0
 12 16  1  0
 16 17  2  0
 17 19  1  0
 19 21  2  0
 21 23  1  0
 23 25  2  0
 25 16  1  0
 12 13  1  0
 12 14  1  0
 12 15  1  0
 17 18  1  0
 19 20  1  0
 21 22  1  0
 23 24  1  0
 25 26  1  0
M  CHG  1   8   1
M  END
>  <PDB_ID>  (2873) 
pdb6bdx

>  <RESIDUE_NAME>  (2873) 
LYS   PHE

>  <FRAG_NAME>  (2873) 
ETAM   MBZ

>  <FRAG_ATOM_NUM>  (2873) 
fragi: 11  fragj: 15

>  <atom.prop.CHAIN_ID>  (2873) 
A A A A A A A A A A A Z Z Z Z Z Z Z Z Z Z Z Z Z Z Z

>  <atom.prop.IS_HEAVY_ATOM>  (2873) 
1 0 0 0 1 0 0 1 0 0 0 1 0 0 0 1 1 0 1 0 1 0 1 0 1 0

>  <DIFUSE_FUNC_ATOM>  (2873) 
n/a

>  <FINAL_SINGLE_POINT_ENERGY>  (2873) 
0

>  <NONCOV_INTER_ENERGY_QM>  (2873) 
0

>  <FF_Energy>  (2873) 
-0.04

>  <QM_Energy>  (2873) 
-5.45

>  <source>  (2873) 
ETAM_MBZ

>  <Index>  (2873) 
30814

$$$$
ETAM-pdb5box-C-LYS-99:MBZ-pdb5box-A-PHE-84
     RDKit          3D

 26 25  0  0  0  0  0  0  0  0999 V2000
   -5.4309   -1.6362   -0.3385 C   0  0  0  0  0  0  0  0  0  0  0  0
   -6.1082   -1.9672   -0.9811 H   0  0  0  0  0  0  0  0  0  0  0  0
   -5.0962   -0.7419   -0.6038 H   0  0  0  0  0  0  0  0  0  0  0  0
   -5.8912   -1.5602    0.6466 H   0  0  0  0  0  0  0  0  0  0  0  0
   -4.2677   -2.6068   -0.3088 C   0  0  0  0  0  0  0  0  0  0  0  0
   -4.0353   -2.8666   -1.2446 H   0  0  0  0  0  0  0  0  0  0  0  0
   -3.4834   -2.1640    0.1218 H   0  0  0  0  0  0  0  0  0  0  0  0
   -4.6281   -3.8241    0.4634 N   0  0  0  0  0  4  0  0  0  0  0  0
   -4.8854   -4.5551   -0.1684 H   0  0  0  0  0  0  0  0  0  0  0  0
   -3.8431   -4.1158    1.0096 H   0  0  0  0  0  0  0  0  0  0  0  0
   -5.3978   -3.6189    1.0674 H   0  0  0  0  0  0  0  0  0  0  0  0
    0.0075    2.8940    0.0014 C   0  0  0  0  0  0  0  0  0  0  0  0
    0.8365    3.1964    0.4472 H   0  0  0  0  0  0  0  0  0  0  0  0
   -0.7962    3.2039    0.4873 H   0  0  0  0  0  0  0  0  0  0  0  0
   -0.0151    3.3368   -0.9944 H   0  0  0  0  0  0  0  0  0  0  0  0
    0.0006    1.3928   -0.0025 C   0  0  0  0  0  0  0  0  0  0  0  0
   -1.1914    0.6885    0.0029 C   0  0  0  0  0  0  0  0  0  0  0  0
   -2.0592    1.1787    0.0078 H   0  0  0  0  0  0  0  0  0  0  0  0
   -1.1934   -0.6959    0.0000 C   0  0  0  0  0  0  0  0  0  0  0  0
   -2.0707   -1.1917   -0.0019 H   0  0  0  0  0  0  0  0  0  0  0  0
    0.0023   -1.3822    0.0014 C   0  0  0  0  0  0  0  0  0  0  0  0
    0.0006   -2.3854    0.0027 H   0  0  0  0  0  0  0  0  0  0  0  0
    1.1934   -0.6893    0.0000 C   0  0  0  0  0  0  0  0  0  0  0  0
    2.0784   -1.1906    0.0012 H   0  0  0  0  0  0  0  0  0  0  0  0
    1.1885    0.6861   -0.0018 C   0  0  0  0  0  0  0  0  0  0  0  0
    2.0601    1.1868   -0.0029 H   0  0  0  0  0  0  0  0  0  0  0  0
  1  5  1  0
  5  8  1  0
  1  2  1  0
  1  3  1  0
  1  4  1  0
  5  6  1  0
  5  7  1  0
  8  9  1  0
  8 10  1  0
  8 11  1  0
 12 16  1  0
 16 17  2  0
 17 19  1  0
 19 21  2  0
 21 23  1  0
 23 25  2  0
 25 16  1  0
 12 13  1  0
 12 14  1  0
 12 15  1  0
 17 18  1  0
 19 20  1  0
 21 22  1  0
 23 24  1  0
 25 26  1  0
M  CHG  1   8   1
M  END
>  <PDB_ID>  (2874) 
pdb5box

>  <RESIDUE_NAME>  (2874) 
LYS   PHE

>  <FRAG_NAME>  (2874) 
ETAM   MBZ

>  <FRAG_ATOM_NUM>  (2874) 
fragi: 11  fragj: 15

>  <atom.prop.CHAIN_ID>  (2874) 
A A A A A A A A A A A Z Z Z Z Z Z Z Z Z Z Z Z Z Z Z

>  <atom.prop.IS_HEAVY_ATOM>  (2874) 
1 0 0 0 1 0 0 1 0 0 0 1 0 0 0 1 1 0 1 0 1 0 1 0 1 0

>  <DIFUSE_FUNC_ATOM>  (2874) 
n/a

>  <FINAL_SINGLE_POINT_ENERGY>  (2874) 
0

>  <NONCOV_INTER_ENERGY_QM>  (2874) 
0

>  <FF_Energy>  (2874) 
7.32

>  <QM_Energy>  (2874) 
-0.31

>  <source>  (2874) 
ETAM_MBZ

>  <Index>  (2874) 
30820

$$$$
ETAM-pdb6bfi-A-LYS-107:MBZ-pdb6bfi-A-PHE-87
     RDKit          3D

 26 25  0  0  0  0  0  0  0  0999 V2000
   -1.5940    1.0358    4.6823 C   0  0  0  0  0  0  0  0  0  0  0  0
   -1.8913    0.4702    5.4428 H   0  0  0  0  0  0  0  0  0  0  0  0
   -2.0047    1.9378    4.7361 H   0  0  0  0  0  0  0  0  0  0  0  0
   -0.5093    1.1365    4.7192 H   0  0  0  0  0  0  0  0  0  0  0  0
   -2.0327    0.3792    3.3874 C   0  0  0  0  0  0  0  0  0  0  0  0
   -3.0256    0.2553    3.4038 H   0  0  0  0  0  0  0  0  0  0  0  0
   -1.7850    0.9705    2.6197 H   0  0  0  0  0  0  0  0  0  0  0  0
   -1.3775   -0.9474    3.2121 N   0  0  0  0  0  4  0  0  0  0  0  0
   -0.6903   -1.0737    3.9263 H   0  0  0  0  0  0  0  0  0  0  0  0
   -2.0667   -1.6684    3.2788 H   0  0  0  0  0  0  0  0  0  0  0  0
   -0.9390   -0.9834    2.3142 H   0  0  0  0  0  0  0  0  0  0  0  0
    0.0028    2.8943    0.0054 C   0  0  0  0  0  0  0  0  0  0  0  0
    0.3311    3.2055   -0.8747 H   0  0  0  0  0  0  0  0  0  0  0  0
    0.5981    3.1961    0.7360 H   0  0  0  0  0  0  0  0  0  0  0  0
   -0.9790    3.3380    0.1704 H   0  0  0  0  0  0  0  0  0  0  0  0
   -0.0005    1.3943   -0.0026 C   0  0  0  0  0  0  0  0  0  0  0  0
   -1.1906    0.6878    0.0023 C   0  0  0  0  0  0  0  0  0  0  0  0
   -2.0594    1.1798    0.0060 H   0  0  0  0  0  0  0  0  0  0  0  0
   -1.1932   -0.6930   -0.0000 C   0  0  0  0  0  0  0  0  0  0  0  0
   -2.0725   -1.1898   -0.0000 H   0  0  0  0  0  0  0  0  0  0  0  0
    0.0007   -1.3843   -0.0007 C   0  0  0  0  0  0  0  0  0  0  0  0
   -0.0039   -2.3867   -0.0018 H   0  0  0  0  0  0  0  0  0  0  0  0
    1.1932   -0.6936    0.0000 C   0  0  0  0  0  0  0  0  0  0  0  0
    2.0768   -1.1928    0.0012 H   0  0  0  0  0  0  0  0  0  0  0  0
    1.1905    0.6888    0.0010 C   0  0  0  0  0  0  0  0  0  0  0  0
    2.0603    1.1860    0.0035 H   0  0  0  0  0  0  0  0  0  0  0  0
  1  5  1  0
  5  8  1  0
  1  2  1  0
  1  3  1  0
  1  4  1  0
  5  6  1  0
  5  7  1  0
  8  9  1  0
  8 10  1  0
  8 11  1  0
 12 16  1  0
 16 17  2  0
 17 19  1  0
 19 21  2  0
 21 23  1  0
 23 25  2  0
 25 16  1  0
 12 13  1  0
 12 14  1  0
 12 15  1  0
 17 18  1  0
 19 20  1  0
 21 22  1  0
 23 24  1  0
 25 26  1  0
M  CHG  1   8   1
M  END
>  <PDB_ID>  (2875) 
pdb6bfi

>  <RESIDUE_NAME>  (2875) 
LYS   PHE

>  <FRAG_NAME>  (2875) 
ETAM   MBZ

>  <FRAG_ATOM_NUM>  (2875) 
fragi: 11  fragj: 15

>  <atom.prop.CHAIN_ID>  (2875) 
A A A A A A A A A A A Z Z Z Z Z Z Z Z Z Z Z Z Z Z Z

>  <atom.prop.IS_HEAVY_ATOM>  (2875) 
1 0 0 0 1 0 0 1 0 0 0 1 0 0 0 1 1 0 1 0 1 0 1 0 1 0

>  <DIFUSE_FUNC_ATOM>  (2875) 
n/a

>  <FINAL_SINGLE_POINT_ENERGY>  (2875) 
0

>  <NONCOV_INTER_ENERGY_QM>  (2875) 
0

>  <FF_Energy>  (2875) 
-6.69

>  <QM_Energy>  (2875) 
-14.46

>  <source>  (2875) 
ETAM_MBZ

>  <Index>  (2875) 
30861

$$$$
ETAM-pdb6biz-A-GLU-3:MBZ-pdb6biz-B-PHE-18
     RDKit          3D

 26 25  0  0  0  0  0  0  0  0999 V2000
    4.0797    0.2544    1.7402 C   0  0  0  0  0  0  0  0  0  0  0  0
    3.6246    1.0974    1.4568 H   0  0  0  0  0  0  0  0  0  0  0  0
    5.0485    0.4330    1.9025 H   0  0  0  0  0  0  0  0  0  0  0  0
    4.0109   -0.4494    0.9107 H   0  0  0  0  0  0  0  0  0  0  0  0
    3.4620   -0.1659    3.0838 C   0  0  0  0  0  0  0  0  0  0  0  0
    3.9397   -1.0014    3.3543 H   0  0  0  0  0  0  0  0  0  0  0  0
    3.6191    0.6057    3.8376 H   0  0  0  0  0  0  0  0  0  0  0  0
    2.0300   -0.4332    2.9599 N   0  0  0  0  0  4  0  0  0  0  0  0
    1.6775   -0.8088    3.8188 H   0  0  0  0  0  0  0  0  0  0  0  0
    1.5411    0.4151    2.7503 H   0  0  0  0  0  0  0  0  0  0  0  0
    1.8682   -1.0932    2.2240 H   0  0  0  0  0  0  0  0  0  0  0  0
    0.0079    2.9206    0.0079 C   0  0  0  0  0  0  0  0  0  0  0  0
   -0.6784    3.2265   -0.6344 H   0  0  0  0  0  0  0  0  0  0  0  0
    0.9114    3.2180   -0.2625 H   0  0  0  0  0  0  0  0  0  0  0  0
   -0.2160    3.3673    0.9766 H   0  0  0  0  0  0  0  0  0  0  0  0
   -0.0001    1.4063    0.0067 C   0  0  0  0  0  0  0  0  0  0  0  0
   -1.1975    0.6902   -0.0066 C   0  0  0  0  0  0  0  0  0  0  0  0
   -2.0647    1.1798   -0.0223 H   0  0  0  0  0  0  0  0  0  0  0  0
   -1.2002   -0.7001   -0.0000 C   0  0  0  0  0  0  0  0  0  0  0  0
   -2.0761   -1.1958    0.0081 H   0  0  0  0  0  0  0  0  0  0  0  0
    0.0028   -1.3961   -0.0028 C   0  0  0  0  0  0  0  0  0  0  0  0
   -0.0005   -2.3941   -0.0076 H   0  0  0  0  0  0  0  0  0  0  0  0
    1.2002   -0.6970   -0.0000 C   0  0  0  0  0  0  0  0  0  0  0  0
    2.0840   -1.1916    0.0013 H   0  0  0  0  0  0  0  0  0  0  0  0
    1.1948    0.6968    0.0027 C   0  0  0  0  0  0  0  0  0  0  0  0
    2.0641    1.1913    0.0009 H   0  0  0  0  0  0  0  0  0  0  0  0
  1  5  1  0
  5  8  1  0
  1  2  1  0
  1  3  1  0
  1  4  1  0
  5  6  1  0
  5  7  1  0
  8  9  1  0
  8 10  1  0
  8 11  1  0
 12 16  1  0
 16 17  2  0
 17 19  1  0
 19 21  2  0
 21 23  1  0
 23 25  2  0
 25 16  1  0
 12 13  1  0
 12 14  1  0
 12 15  1  0
 17 18  1  0
 19 20  1  0
 21 22  1  0
 23 24  1  0
 25 26  1  0
M  CHG  1   8   1
M  END
>  <PDB_ID>  (2876) 
pdb6biz

>  <RESIDUE_NAME>  (2876) 
GLU   PHE

>  <FRAG_NAME>  (2876) 
ETAM   MBZ

>  <FRAG_ATOM_NUM>  (2876) 
fragi: 11  fragj: 15

>  <atom.prop.CHAIN_ID>  (2876) 
A A A A A A A A A A A Z Z Z Z Z Z Z Z Z Z Z Z Z Z Z

>  <atom.prop.IS_HEAVY_ATOM>  (2876) 
1 0 0 0 1 0 0 1 0 0 0 1 0 0 0 1 1 0 1 0 1 0 1 0 1 0

>  <DIFUSE_FUNC_ATOM>  (2876) 
n/a

>  <FINAL_SINGLE_POINT_ENERGY>  (2876) 
0

>  <NONCOV_INTER_ENERGY_QM>  (2876) 
0

>  <FF_Energy>  (2876) 
-4.26

>  <QM_Energy>  (2876) 
-11.26

>  <source>  (2876) 
ETAM_MBZ

>  <Index>  (2876) 
30865

$$$$
ETAM-pdb6bj5-A-LYS-175:MBZ-pdb6bj5-A-PHE-151
     RDKit          3D

 26 25  0  0  0  0  0  0  0  0999 V2000
   -0.4921   -0.1403   -3.7421 C   0  0  0  0  0  0  0  0  0  0  0  0
   -0.2952    0.2043   -4.6588 H   0  0  0  0  0  0  0  0  0  0  0  0
   -0.2522    0.5519   -3.0635 H   0  0  0  0  0  0  0  0  0  0  0  0
   -1.5642   -0.3247   -3.6738 H   0  0  0  0  0  0  0  0  0  0  0  0
    0.3312   -1.3824   -3.4934 C   0  0  0  0  0  0  0  0  0  0  0  0
    0.4788   -1.4883   -2.5183 H   0  0  0  0  0  0  0  0  0  0  0  0
   -0.1430   -2.1701   -3.8657 H   0  0  0  0  0  0  0  0  0  0  0  0
    1.6377   -1.2249   -4.1756 N   0  0  0  0  0  4  0  0  0  0  0  0
    1.6602   -0.3481   -4.6576 H   0  0  0  0  0  0  0  0  0  0  0  0
    2.3742   -1.2511   -3.4985 H   0  0  0  0  0  0  0  0  0  0  0  0
    1.7639   -1.9688   -4.8327 H   0  0  0  0  0  0  0  0  0  0  0  0
   -0.0058    2.9272    0.0507 C   0  0  0  0  0  0  0  0  0  0  0  0
    0.6574    3.1992    0.7392 H   0  0  0  0  0  0  0  0  0  0  0  0
   -0.9197    3.2134    0.3162 H   0  0  0  0  0  0  0  0  0  0  0  0
    0.2476    3.4353   -0.8797 H   0  0  0  0  0  0  0  0  0  0  0  0
   -0.0014    1.4131   -0.0147 C   0  0  0  0  0  0  0  0  0  0  0  0
   -1.1917    0.7037    0.0035 C   0  0  0  0  0  0  0  0  0  0  0  0
   -2.0624    1.1820    0.0173 H   0  0  0  0  0  0  0  0  0  0  0  0
   -1.1891   -0.6995    0.0000 C   0  0  0  0  0  0  0  0  0  0  0  0
   -2.0713   -1.1890   -0.0062 H   0  0  0  0  0  0  0  0  0  0  0  0
    0.0069   -1.4024    0.0065 C   0  0  0  0  0  0  0  0  0  0  0  0
   -0.0072   -2.4006    0.0152 H   0  0  0  0  0  0  0  0  0  0  0  0
    1.1891   -0.7123   -0.0000 C   0  0  0  0  0  0  0  0  0  0  0  0
    2.0813   -1.1949   -0.0066 H   0  0  0  0  0  0  0  0  0  0  0  0
    1.1861    0.6973    0.0047 C   0  0  0  0  0  0  0  0  0  0  0  0
    2.0616    1.1811    0.0217 H   0  0  0  0  0  0  0  0  0  0  0  0
  1  5  1  0
  5  8  1  0
  1  2  1  0
  1  3  1  0
  1  4  1  0
  5  6  1  0
  5  7  1  0
  8  9  1  0
  8 10  1  0
  8 11  1  0
 12 16  1  0
 16 17  2  0
 17 19  1  0
 19 21  2  0
 21 23  1  0
 23 25  2  0
 25 16  1  0
 12 13  1  0
 12 14  1  0
 12 15  1  0
 17 18  1  0
 19 20  1  0
 21 22  1  0
 23 24  1  0
 25 26  1  0
M  CHG  1   8   1
M  END
>  <PDB_ID>  (2877) 
pdb6bj5

>  <RESIDUE_NAME>  (2877) 
LYS   PHE

>  <FRAG_NAME>  (2877) 
ETAM   MBZ

>  <FRAG_ATOM_NUM>  (2877) 
fragi: 11  fragj: 15

>  <atom.prop.CHAIN_ID>  (2877) 
A A A A A A A A A A A Z Z Z Z Z Z Z Z Z Z Z Z Z Z Z

>  <atom.prop.IS_HEAVY_ATOM>  (2877) 
1 0 0 0 1 0 0 1 0 0 0 1 0 0 0 1 1 0 1 0 1 0 1 0 1 0

>  <DIFUSE_FUNC_ATOM>  (2877) 
n/a

>  <FINAL_SINGLE_POINT_ENERGY>  (2877) 
0

>  <NONCOV_INTER_ENERGY_QM>  (2877) 
0

>  <FF_Energy>  (2877) 
-4.28

>  <QM_Energy>  (2877) 
-9.3

>  <source>  (2877) 
ETAM_MBZ

>  <Index>  (2877) 
30889

$$$$
ETAM-pdb5box-A-LYS-99:MBZ-pdb5box-C-PHE-84
     RDKit          3D

 26 25  0  0  0  0  0  0  0  0999 V2000
    5.3067   -1.6598    1.2803 C   0  0  0  0  0  0  0  0  0  0  0  0
    5.9199   -2.1719    1.8739 H   0  0  0  0  0  0  0  0  0  0  0  0
    5.1700   -0.7402    1.6340 H   0  0  0  0  0  0  0  0  0  0  0  0
    5.7553   -1.5916    0.2892 H   0  0  0  0  0  0  0  0  0  0  0  0
    3.9675   -2.3687    1.2349 C   0  0  0  0  0  0  0  0  0  0  0  0
    3.6591   -2.5437    2.1739 H   0  0  0  0  0  0  0  0  0  0  0  0
    3.2994   -1.7746    0.7794 H   0  0  0  0  0  0  0  0  0  0  0  0
    4.0577   -3.6541    0.5020 N   0  0  0  0  0  4  0  0  0  0  0  0
    3.6578   -3.5488   -0.4091 H   0  0  0  0  0  0  0  0  0  0  0  0
    5.0174   -3.9232    0.4148 H   0  0  0  0  0  0  0  0  0  0  0  0
    3.5588   -4.3611    1.0044 H   0  0  0  0  0  0  0  0  0  0  0  0
   -0.0063    2.9039    0.0123 C   0  0  0  0  0  0  0  0  0  0  0  0
   -0.8164    3.2118   -0.4625 H   0  0  0  0  0  0  0  0  0  0  0  0
    0.8167    3.2159   -0.4354 H   0  0  0  0  0  0  0  0  0  0  0  0
   -0.0239    3.3335    1.0139 H   0  0  0  0  0  0  0  0  0  0  0  0
   -0.0017    1.3963   -0.0041 C   0  0  0  0  0  0  0  0  0  0  0  0
   -1.1910    0.6895   -0.0000 C   0  0  0  0  0  0  0  0  0  0  0  0
   -2.0604    1.1815    0.0024 H   0  0  0  0  0  0  0  0  0  0  0  0
   -1.1953   -0.6915    0.0000 C   0  0  0  0  0  0  0  0  0  0  0  0
   -2.0737   -1.1885    0.0021 H   0  0  0  0  0  0  0  0  0  0  0  0
    0.0014   -1.3872   -0.0006 C   0  0  0  0  0  0  0  0  0  0  0  0
   -0.0060   -2.3879   -0.0023 H   0  0  0  0  0  0  0  0  0  0  0  0
    1.1953   -0.6960   -0.0000 C   0  0  0  0  0  0  0  0  0  0  0  0
    2.0788   -1.1941   -0.0019 H   0  0  0  0  0  0  0  0  0  0  0  0
    1.1914    0.6889    0.0047 C   0  0  0  0  0  0  0  0  0  0  0  0
    2.0605    1.1864    0.0144 H   0  0  0  0  0  0  0  0  0  0  0  0
  1  5  1  0
  5  8  1  0
  1  2  1  0
  1  3  1  0
  1  4  1  0
  5  6  1  0
  5  7  1  0
  8  9  1  0
  8 10  1  0
  8 11  1  0
 12 16  1  0
 16 17  2  0
 17 19  1  0
 19 21  2  0
 21 23  1  0
 23 25  2  0
 25 16  1  0
 12 13  1  0
 12 14  1  0
 12 15  1  0
 17 18  1  0
 19 20  1  0
 21 22  1  0
 23 24  1  0
 25 26  1  0
M  CHG  1   8   1
M  END
>  <PDB_ID>  (2878) 
pdb5box

>  <RESIDUE_NAME>  (2878) 
LYS   PHE

>  <FRAG_NAME>  (2878) 
ETAM   MBZ

>  <FRAG_ATOM_NUM>  (2878) 
fragi: 11  fragj: 15

>  <atom.prop.CHAIN_ID>  (2878) 
A A A A A A A A A A A Z Z Z Z Z Z Z Z Z Z Z Z Z Z Z

>  <atom.prop.IS_HEAVY_ATOM>  (2878) 
1 0 0 0 1 0 0 1 0 0 0 1 0 0 0 1 1 0 1 0 1 0 1 0 1 0

>  <DIFUSE_FUNC_ATOM>  (2878) 
n/a

>  <FINAL_SINGLE_POINT_ENERGY>  (2878) 
0

>  <NONCOV_INTER_ENERGY_QM>  (2878) 
0

>  <FF_Energy>  (2878) 
23.45

>  <QM_Energy>  (2878) 
0.76

>  <source>  (2878) 
ETAM_MBZ

>  <Index>  (2878) 
30892

$$$$
ETAM-pdb6bj5-B-LYS-178:MBZ-pdb6bj5-B-PHE-154
     RDKit          3D

 26 25  0  0  0  0  0  0  0  0999 V2000
   -0.3803   -0.2065   -3.6891 C   0  0  0  0  0  0  0  0  0  0  0  0
   -0.1995    0.1265   -4.6149 H   0  0  0  0  0  0  0  0  0  0  0  0
   -0.1499    0.5071   -3.0276 H   0  0  0  0  0  0  0  0  0  0  0  0
   -1.4425   -0.4349   -3.6015 H   0  0  0  0  0  0  0  0  0  0  0  0
    0.4828   -1.4093   -3.4279 C   0  0  0  0  0  0  0  0  0  0  0  0
    0.6587   -1.4908   -2.4541 H   0  0  0  0  0  0  0  0  0  0  0  0
    0.0328   -2.2258   -3.7710 H   0  0  0  0  0  0  0  0  0  0  0  0
    1.7874   -1.2389   -4.1431 N   0  0  0  0  0  4  0  0  0  0  0  0
    2.0260   -2.0955   -4.5976 H   0  0  0  0  0  0  0  0  0  0  0  0
    1.6966   -0.5108   -4.8193 H   0  0  0  0  0  0  0  0  0  0  0  0
    2.4946   -0.9995   -3.4811 H   0  0  0  0  0  0  0  0  0  0  0  0
   -0.0159    2.9286    0.0486 C   0  0  0  0  0  0  0  0  0  0  0  0
    0.6292    3.2008    0.7544 H   0  0  0  0  0  0  0  0  0  0  0  0
   -0.9371    3.2108    0.2922 H   0  0  0  0  0  0  0  0  0  0  0  0
    0.2587    3.4410   -0.8735 H   0  0  0  0  0  0  0  0  0  0  0  0
   -0.0054    1.4119   -0.0191 C   0  0  0  0  0  0  0  0  0  0  0  0
   -1.2078    0.6997    0.0041 C   0  0  0  0  0  0  0  0  0  0  0  0
   -2.0729    1.1926    0.0228 H   0  0  0  0  0  0  0  0  0  0  0  0
   -1.2169   -0.6951    0.0000 C   0  0  0  0  0  0  0  0  0  0  0  0
   -2.0840   -1.1932   -0.0027 H   0  0  0  0  0  0  0  0  0  0  0  0
    0.0062   -1.4036    0.0019 C   0  0  0  0  0  0  0  0  0  0  0  0
   -0.0063   -2.3972    0.0042 H   0  0  0  0  0  0  0  0  0  0  0  0
    1.2169   -0.7061    0.0000 C   0  0  0  0  0  0  0  0  0  0  0  0
    2.0938   -1.2002   -0.0093 H   0  0  0  0  0  0  0  0  0  0  0  0
    1.2069    0.6932    0.0131 C   0  0  0  0  0  0  0  0  0  0  0  0
    2.0685    1.1934    0.0448 H   0  0  0  0  0  0  0  0  0  0  0  0
  1  5  1  0
  5  8  1  0
  1  2  1  0
  1  3  1  0
  1  4  1  0
  5  6  1  0
  5  7  1  0
  8  9  1  0
  8 10  1  0
  8 11  1  0
 12 16  1  0
 16 17  2  0
 17 19  1  0
 19 21  2  0
 21 23  1  0
 23 25  2  0
 25 16  1  0
 12 13  1  0
 12 14  1  0
 12 15  1  0
 17 18  1  0
 19 20  1  0
 21 22  1  0
 23 24  1  0
 25 26  1  0
M  CHG  1   8   1
M  END
>  <PDB_ID>  (2879) 
pdb6bj5

>  <RESIDUE_NAME>  (2879) 
LYS   PHE

>  <FRAG_NAME>  (2879) 
ETAM   MBZ

>  <FRAG_ATOM_NUM>  (2879) 
fragi: 11  fragj: 15

>  <atom.prop.CHAIN_ID>  (2879) 
A A A A A A A A A A A Z Z Z Z Z Z Z Z Z Z Z Z Z Z Z

>  <atom.prop.IS_HEAVY_ATOM>  (2879) 
1 0 0 0 1 0 0 1 0 0 0 1 0 0 0 1 1 0 1 0 1 0 1 0 1 0

>  <DIFUSE_FUNC_ATOM>  (2879) 
n/a

>  <FINAL_SINGLE_POINT_ENERGY>  (2879) 
0

>  <NONCOV_INTER_ENERGY_QM>  (2879) 
0

>  <FF_Energy>  (2879) 
-3.9

>  <QM_Energy>  (2879) 
-9.33

>  <source>  (2879) 
ETAM_MBZ

>  <Index>  (2879) 
30945

$$$$
ETAM-pdb6bma-B-LYS-11:MBZ-pdb6bma-B-PHE-7
     RDKit          3D

 26 25  0  0  0  0  0  0  0  0999 V2000
    5.4458    4.3408    0.0264 C   0  0  0  0  0  0  0  0  0  0  0  0
    5.7429    5.2349   -0.2841 H   0  0  0  0  0  0  0  0  0  0  0  0
    6.2189    3.7294    0.1362 H   0  0  0  0  0  0  0  0  0  0  0  0
    4.9408    4.4499    0.9861 H   0  0  0  0  0  0  0  0  0  0  0  0
    4.5082    3.7451   -1.0463 C   0  0  0  0  0  0  0  0  0  0  0  0
    3.8851    4.4766   -1.3646 H   0  0  0  0  0  0  0  0  0  0  0  0
    5.0716    3.4586   -1.8370 H   0  0  0  0  0  0  0  0  0  0  0  0
    3.6880    2.5744   -0.5835 N   0  0  0  0  0  4  0  0  0  0  0  0
    3.4750    2.6895    0.3839 H   0  0  0  0  0  0  0  0  0  0  0  0
    2.8451    2.5387   -1.1156 H   0  0  0  0  0  0  0  0  0  0  0  0
    4.2122    1.7368   -0.7191 H   0  0  0  0  0  0  0  0  0  0  0  0
    0.0054    2.9104    0.0222 C   0  0  0  0  0  0  0  0  0  0  0  0
   -0.7629    3.2245   -0.5111 H   0  0  0  0  0  0  0  0  0  0  0  0
    0.8631    3.2180   -0.3558 H   0  0  0  0  0  0  0  0  0  0  0  0
   -0.0889    3.3273    1.0249 H   0  0  0  0  0  0  0  0  0  0  0  0
    0.0023    1.4018   -0.0018 C   0  0  0  0  0  0  0  0  0  0  0  0
   -1.1876    0.6923    0.0018 C   0  0  0  0  0  0  0  0  0  0  0  0
   -2.0578    1.1801    0.0048 H   0  0  0  0  0  0  0  0  0  0  0  0
   -1.1907   -0.6967   -0.0000 C   0  0  0  0  0  0  0  0  0  0  0  0
   -2.0761   -1.1855    0.0042 H   0  0  0  0  0  0  0  0  0  0  0  0
   -0.0067   -1.3891   -0.0058 C   0  0  0  0  0  0  0  0  0  0  0  0
   -0.0086   -2.3915   -0.0153 H   0  0  0  0  0  0  0  0  0  0  0  0
    1.1907   -0.6990   -0.0000 C   0  0  0  0  0  0  0  0  0  0  0  0
    2.0732   -1.1983    0.0018 H   0  0  0  0  0  0  0  0  0  0  0  0
    1.1920    0.6907    0.0058 C   0  0  0  0  0  0  0  0  0  0  0  0
    2.0633    1.1823    0.0145 H   0  0  0  0  0  0  0  0  0  0  0  0
  1  5  1  0
  5  8  1  0
  1  2  1  0
  1  3  1  0
  1  4  1  0
  5  6  1  0
  5  7  1  0
  8  9  1  0
  8 10  1  0
  8 11  1  0
 12 16  1  0
 16 17  2  0
 17 19  1  0
 19 21  2  0
 21 23  1  0
 23 25  2  0
 25 16  1  0
 12 13  1  0
 12 14  1  0
 12 15  1  0
 17 18  1  0
 19 20  1  0
 21 22  1  0
 23 24  1  0
 25 26  1  0
M  CHG  1   8   1
M  END
>  <PDB_ID>  (2880) 
pdb6bma

>  <RESIDUE_NAME>  (2880) 
LYS   PHE

>  <FRAG_NAME>  (2880) 
ETAM   MBZ

>  <FRAG_ATOM_NUM>  (2880) 
fragi: 11  fragj: 15

>  <atom.prop.CHAIN_ID>  (2880) 
A A A A A A A A A A A Z Z Z Z Z Z Z Z Z Z Z Z Z Z Z

>  <atom.prop.IS_HEAVY_ATOM>  (2880) 
1 0 0 0 1 0 0 1 0 0 0 1 0 0 0 1 1 0 1 0 1 0 1 0 1 0

>  <DIFUSE_FUNC_ATOM>  (2880) 
n/a

>  <FINAL_SINGLE_POINT_ENERGY>  (2880) 
0

>  <NONCOV_INTER_ENERGY_QM>  (2880) 
0

>  <FF_Energy>  (2880) 
6.24

>  <QM_Energy>  (2880) 
-1.33

>  <source>  (2880) 
ETAM_MBZ

>  <Index>  (2880) 
30950

$$$$
ETAM-pdb6bfi-B-LYS-107:MBZ-pdb6bfi-B-PHE-87
     RDKit          3D

 26 25  0  0  0  0  0  0  0  0999 V2000
   -3.1884    1.9988    4.0160 C   0  0  0  0  0  0  0  0  0  0  0  0
   -3.5440    2.3879    4.8615 H   0  0  0  0  0  0  0  0  0  0  0  0
   -3.4681    2.5541    3.2383 H   0  0  0  0  0  0  0  0  0  0  0  0
   -2.0997    1.9863    4.0663 H   0  0  0  0  0  0  0  0  0  0  0  0
   -3.7636    0.6007    3.8455 C   0  0  0  0  0  0  0  0  0  0  0  0
   -3.4074    0.0120    4.5790 H   0  0  0  0  0  0  0  0  0  0  0  0
   -4.7650    0.6485    3.9315 H   0  0  0  0  0  0  0  0  0  0  0  0
   -3.4155    0.0038    2.5274 N   0  0  0  0  0  4  0  0  0  0  0  0
   -2.5415    0.3749    2.2162 H   0  0  0  0  0  0  0  0  0  0  0  0
   -3.3430   -0.9885    2.6218 H   0  0  0  0  0  0  0  0  0  0  0  0
   -4.1288    0.2266    1.8635 H   0  0  0  0  0  0  0  0  0  0  0  0
    0.0045    2.8959    0.0015 C   0  0  0  0  0  0  0  0  0  0  0  0
    0.6107    3.2015   -0.7176 H   0  0  0  0  0  0  0  0  0  0  0  0
    0.3172    3.1995    0.8892 H   0  0  0  0  0  0  0  0  0  0  0  0
   -0.9748    3.3402   -0.1765 H   0  0  0  0  0  0  0  0  0  0  0  0
   -0.0004    1.3945   -0.0015 C   0  0  0  0  0  0  0  0  0  0  0  0
   -1.1917    0.6886    0.0007 C   0  0  0  0  0  0  0  0  0  0  0  0
   -2.0603    1.1810    0.0014 H   0  0  0  0  0  0  0  0  0  0  0  0
   -1.1947   -0.6922   -0.0000 C   0  0  0  0  0  0  0  0  0  0  0  0
   -2.0732   -1.1892    0.0000 H   0  0  0  0  0  0  0  0  0  0  0  0
    0.0009   -1.3854    0.0004 C   0  0  0  0  0  0  0  0  0  0  0  0
   -0.0041   -2.3865    0.0011 H   0  0  0  0  0  0  0  0  0  0  0  0
    1.1947   -0.6934    0.0000 C   0  0  0  0  0  0  0  0  0  0  0  0
    2.0784   -1.1939    0.0007 H   0  0  0  0  0  0  0  0  0  0  0  0
    1.1912    0.6879    0.0004 C   0  0  0  0  0  0  0  0  0  0  0  0
    2.0610    1.1860    0.0010 H   0  0  0  0  0  0  0  0  0  0  0  0
  1  5  1  0
  5  8  1  0
  1  2  1  0
  1  3  1  0
  1  4  1  0
  5  6  1  0
  5  7  1  0
  8  9  1  0
  8 10  1  0
  8 11  1  0
 12 16  1  0
 16 17  2  0
 17 19  1  0
 19 21  2  0
 21 23  1  0
 23 25  2  0
 25 16  1  0
 12 13  1  0
 12 14  1  0
 12 15  1  0
 17 18  1  0
 19 20  1  0
 21 22  1  0
 23 24  1  0
 25 26  1  0
M  CHG  1   8   1
M  END
>  <PDB_ID>  (2881) 
pdb6bfi

>  <RESIDUE_NAME>  (2881) 
LYS   PHE

>  <FRAG_NAME>  (2881) 
ETAM   MBZ

>  <FRAG_ATOM_NUM>  (2881) 
fragi: 11  fragj: 15

>  <atom.prop.CHAIN_ID>  (2881) 
A A A A A A A A A A A Z Z Z Z Z Z Z Z Z Z Z Z Z Z Z

>  <atom.prop.IS_HEAVY_ATOM>  (2881) 
1 0 0 0 1 0 0 1 0 0 0 1 0 0 0 1 1 0 1 0 1 0 1 0 1 0

>  <DIFUSE_FUNC_ATOM>  (2881) 
n/a

>  <FINAL_SINGLE_POINT_ENERGY>  (2881) 
0

>  <NONCOV_INTER_ENERGY_QM>  (2881) 
0

>  <FF_Energy>  (2881) 
-2.41

>  <QM_Energy>  (2881) 
-8.43

>  <source>  (2881) 
ETAM_MBZ

>  <Index>  (2881) 
31010

$$$$
ETAM-pdb5bv3-B-LYS-236:MBZ-pdb5bv3-B-PHE-189
     RDKit          3D

 26 25  0  0  0  0  0  0  0  0999 V2000
   -3.9839   -3.1886    0.6327 C   0  0  0  0  0  0  0  0  0  0  0  0
   -4.9513   -3.1786    0.8499 H   0  0  0  0  0  0  0  0  0  0  0  0
   -3.4821   -2.5717    1.2250 H   0  0  0  0  0  0  0  0  0  0  0  0
   -3.6072   -4.1996    0.7883 H   0  0  0  0  0  0  0  0  0  0  0  0
   -3.7983   -2.7406   -0.8142 C   0  0  0  0  0  0  0  0  0  0  0  0
   -2.8027   -2.6629   -1.0061 H   0  0  0  0  0  0  0  0  0  0  0  0
   -4.1607   -3.4641   -1.4292 H   0  0  0  0  0  0  0  0  0  0  0  0
   -4.4567   -1.4353   -1.1755 N   0  0  0  0  0  4  0  0  0  0  0  0
   -3.7710   -0.8238   -1.5616 H   0  0  0  0  0  0  0  0  0  0  0  0
   -5.1739   -1.6099   -1.8446 H   0  0  0  0  0  0  0  0  0  0  0  0
   -4.8483   -1.0328   -0.3522 H   0  0  0  0  0  0  0  0  0  0  0  0
    0.0157    2.8868   -0.0095 C   0  0  0  0  0  0  0  0  0  0  0  0
    0.9428    3.1853    0.1654 H   0  0  0  0  0  0  0  0  0  0  0  0
   -0.6017    3.2077    0.6943 H   0  0  0  0  0  0  0  0  0  0  0  0
   -0.3037    3.3162   -0.9591 H   0  0  0  0  0  0  0  0  0  0  0  0
   -0.0008    1.3923    0.0059 C   0  0  0  0  0  0  0  0  0  0  0  0
   -1.1829    0.6766    0.0052 C   0  0  0  0  0  0  0  0  0  0  0  0
   -2.0582    1.1576    0.0068 H   0  0  0  0  0  0  0  0  0  0  0  0
   -1.1795   -0.7145    0.0000 C   0  0  0  0  0  0  0  0  0  0  0  0
   -2.0557   -1.2100    0.0027 H   0  0  0  0  0  0  0  0  0  0  0  0
    0.0178   -1.3920   -0.0068 C   0  0  0  0  0  0  0  0  0  0  0  0
    0.0302   -2.3876   -0.0168 H   0  0  0  0  0  0  0  0  0  0  0  0
    1.1795   -0.6702   -0.0000 C   0  0  0  0  0  0  0  0  0  0  0  0
    2.0850   -1.1553    0.0094 H   0  0  0  0  0  0  0  0  0  0  0  0
    1.1659    0.7077   -0.0043 C   0  0  0  0  0  0  0  0  0  0  0  0
    2.0455    1.2027   -0.0158 H   0  0  0  0  0  0  0  0  0  0  0  0
  1  5  1  0
  5  8  1  0
  1  2  1  0
  1  3  1  0
  1  4  1  0
  5  6  1  0
  5  7  1  0
  8  9  1  0
  8 10  1  0
  8 11  1  0
 12 16  1  0
 16 17  2  0
 17 19  1  0
 19 21  2  0
 21 23  1  0
 23 25  2  0
 25 16  1  0
 12 13  1  0
 12 14  1  0
 12 15  1  0
 17 18  1  0
 19 20  1  0
 21 22  1  0
 23 24  1  0
 25 26  1  0
M  CHG  1   8   1
M  END
>  <PDB_ID>  (2882) 
pdb5bv3

>  <RESIDUE_NAME>  (2882) 
LYS   PHE

>  <FRAG_NAME>  (2882) 
ETAM   MBZ

>  <FRAG_ATOM_NUM>  (2882) 
fragi: 11  fragj: 15

>  <atom.prop.CHAIN_ID>  (2882) 
A A A A A A A A A A A Z Z Z Z Z Z Z Z Z Z Z Z Z Z Z

>  <atom.prop.IS_HEAVY_ATOM>  (2882) 
1 0 0 0 1 0 0 1 0 0 0 1 0 0 0 1 1 0 1 0 1 0 1 0 1 0

>  <DIFUSE_FUNC_ATOM>  (2882) 
n/a

>  <FINAL_SINGLE_POINT_ENERGY>  (2882) 
0

>  <NONCOV_INTER_ENERGY_QM>  (2882) 
0

>  <FF_Energy>  (2882) 
3.59

>  <QM_Energy>  (2882) 
-3.43

>  <source>  (2882) 
ETAM_MBZ

>  <Index>  (2882) 
31024

$$$$
ETAM-pdb6bro-A-LYS-54:MBZ-pdb6bro-A-PHE-90
     RDKit          3D

 26 25  0  0  0  0  0  0  0  0999 V2000
   -2.2647   -2.6153    3.9522 C   0  0  0  0  0  0  0  0  0  0  0  0
   -2.5649   -2.6817    4.8826 H   0  0  0  0  0  0  0  0  0  0  0  0
   -1.2885   -2.6131    3.8665 H   0  0  0  0  0  0  0  0  0  0  0  0
   -2.6718   -3.4526    3.3855 H   0  0  0  0  0  0  0  0  0  0  0  0
   -2.8142   -1.3367    3.3479 C   0  0  0  0  0  0  0  0  0  0  0  0
   -2.9854   -1.4866    2.3729 H   0  0  0  0  0  0  0  0  0  0  0  0
   -3.6757   -1.1073    3.8031 H   0  0  0  0  0  0  0  0  0  0  0  0
   -1.8570   -0.2247    3.5151 N   0  0  0  0  0  4  0  0  0  0  0  0
   -1.4596   -0.2568    4.4333 H   0  0  0  0  0  0  0  0  0  0  0  0
   -1.1250   -0.3046    2.8358 H   0  0  0  0  0  0  0  0  0  0  0  0
   -2.3303    0.6493    3.3897 H   0  0  0  0  0  0  0  0  0  0  0  0
    0.0132    2.9053    0.0046 C   0  0  0  0  0  0  0  0  0  0  0  0
   -0.7005    3.2178   -0.6083 H   0  0  0  0  0  0  0  0  0  0  0  0
    0.9041    3.2060   -0.3075 H   0  0  0  0  0  0  0  0  0  0  0  0
   -0.1661    3.3584    0.9796 H   0  0  0  0  0  0  0  0  0  0  0  0
    0.0022    1.4048    0.0071 C   0  0  0  0  0  0  0  0  0  0  0  0
   -1.2028    0.6918   -0.0040 C   0  0  0  0  0  0  0  0  0  0  0  0
   -2.0650    1.1833   -0.0161 H   0  0  0  0  0  0  0  0  0  0  0  0
   -1.2028   -0.6997   -0.0000 C   0  0  0  0  0  0  0  0  0  0  0  0
   -2.0773   -1.1967    0.0059 H   0  0  0  0  0  0  0  0  0  0  0  0
    0.0018   -1.3944   -0.0026 C   0  0  0  0  0  0  0  0  0  0  0  0
   -0.0016   -2.3928   -0.0065 H   0  0  0  0  0  0  0  0  0  0  0  0
    1.2028   -0.6964    0.0000 C   0  0  0  0  0  0  0  0  0  0  0  0
    2.0844   -1.1947    0.0039 H   0  0  0  0  0  0  0  0  0  0  0  0
    1.1988    0.6940   -0.0006 C   0  0  0  0  0  0  0  0  0  0  0  0
    2.0674    1.1902   -0.0074 H   0  0  0  0  0  0  0  0  0  0  0  0
  1  5  1  0
  5  8  1  0
  1  2  1  0
  1  3  1  0
  1  4  1  0
  5  6  1  0
  5  7  1  0
  8  9  1  0
  8 10  1  0
  8 11  1  0
 12 16  1  0
 16 17  2  0
 17 19  1  0
 19 21  2  0
 21 23  1  0
 23 25  2  0
 25 16  1  0
 12 13  1  0
 12 14  1  0
 12 15  1  0
 17 18  1  0
 19 20  1  0
 21 22  1  0
 23 24  1  0
 25 26  1  0
M  CHG  1   8   1
M  END
>  <PDB_ID>  (2883) 
pdb6bro

>  <RESIDUE_NAME>  (2883) 
LYS   PHE

>  <FRAG_NAME>  (2883) 
ETAM   MBZ

>  <FRAG_ATOM_NUM>  (2883) 
fragi: 11  fragj: 15

>  <atom.prop.CHAIN_ID>  (2883) 
A A A A A A A A A A A Z Z Z Z Z Z Z Z Z Z Z Z Z Z Z

>  <atom.prop.IS_HEAVY_ATOM>  (2883) 
1 0 0 0 1 0 0 1 0 0 0 1 0 0 0 1 1 0 1 0 1 0 1 0 1 0

>  <DIFUSE_FUNC_ATOM>  (2883) 
n/a

>  <FINAL_SINGLE_POINT_ENERGY>  (2883) 
0

>  <NONCOV_INTER_ENERGY_QM>  (2883) 
0

>  <FF_Energy>  (2883) 
-5.65

>  <QM_Energy>  (2883) 
-11.33

>  <source>  (2883) 
ETAM_MBZ

>  <Index>  (2883) 
31027

$$$$
ETAM-pdb6bsq-A-LYS-452:MBZ-pdb6bsq-A-PHE-463
     RDKit          3D

 26 25  0  0  0  0  0  0  0  0999 V2000
   -0.0036    1.0638   -3.8850 C   0  0  0  0  0  0  0  0  0  0  0  0
   -0.4979    1.5597   -3.1741 H   0  0  0  0  0  0  0  0  0  0  0  0
   -0.3429    1.3317   -4.7836 H   0  0  0  0  0  0  0  0  0  0  0  0
    1.0481    1.3433   -3.8221 H   0  0  0  0  0  0  0  0  0  0  0  0
   -0.2450   -0.4390   -3.6961 C   0  0  0  0  0  0  0  0  0  0  0  0
    0.0882   -0.9251   -4.4992 H   0  0  0  0  0  0  0  0  0  0  0  0
    0.2421   -0.7474   -2.8829 H   0  0  0  0  0  0  0  0  0  0  0  0
   -1.7188   -0.7348   -3.5234 N   0  0  0  0  0  4  0  0  0  0  0  0
   -2.2196    0.1256   -3.5284 H   0  0  0  0  0  0  0  0  0  0  0  0
   -2.0187   -1.3126   -4.2768 H   0  0  0  0  0  0  0  0  0  0  0  0
   -1.8504   -1.2048   -2.6560 H   0  0  0  0  0  0  0  0  0  0  0  0
    0.0260    2.8988   -0.0165 C   0  0  0  0  0  0  0  0  0  0  0  0
   -0.7710    3.2097   -0.5201 H   0  0  0  0  0  0  0  0  0  0  0  0
    0.8604    3.1897   -0.4686 H   0  0  0  0  0  0  0  0  0  0  0  0
    0.0006    3.3674    0.9673 H   0  0  0  0  0  0  0  0  0  0  0  0
    0.0070    1.4013    0.0049 C   0  0  0  0  0  0  0  0  0  0  0  0
   -1.1935    0.7021   -0.0096 C   0  0  0  0  0  0  0  0  0  0  0  0
   -2.0574    1.1886   -0.0277 H   0  0  0  0  0  0  0  0  0  0  0  0
   -1.1964   -0.6971   -0.0000 C   0  0  0  0  0  0  0  0  0  0  0  0
   -2.0792   -1.1836    0.0093 H   0  0  0  0  0  0  0  0  0  0  0  0
   -0.0048   -1.3934   -0.0010 C   0  0  0  0  0  0  0  0  0  0  0  0
   -0.0093   -2.3939   -0.0025 H   0  0  0  0  0  0  0  0  0  0  0  0
    1.1964   -0.7023    0.0000 C   0  0  0  0  0  0  0  0  0  0  0  0
    2.0764   -1.1990   -0.0023 H   0  0  0  0  0  0  0  0  0  0  0  0
    1.1913    0.6895    0.0056 C   0  0  0  0  0  0  0  0  0  0  0  0
    2.0667    1.1815    0.0094 H   0  0  0  0  0  0  0  0  0  0  0  0
  1  5  1  0
  5  8  1  0
  1  2  1  0
  1  3  1  0
  1  4  1  0
  5  6  1  0
  5  7  1  0
  8  9  1  0
  8 10  1  0
  8 11  1  0
 12 16  1  0
 16 17  2  0
 17 19  1  0
 19 21  2  0
 21 23  1  0
 23 25  2  0
 25 16  1  0
 12 13  1  0
 12 14  1  0
 12 15  1  0
 17 18  1  0
 19 20  1  0
 21 22  1  0
 23 24  1  0
 25 26  1  0
M  CHG  1   8   1
M  END
>  <PDB_ID>  (2884) 
pdb6bsq

>  <RESIDUE_NAME>  (2884) 
LYS   PHE

>  <FRAG_NAME>  (2884) 
ETAM   MBZ

>  <FRAG_ATOM_NUM>  (2884) 
fragi: 11  fragj: 15

>  <atom.prop.CHAIN_ID>  (2884) 
A A A A A A A A A A A Z Z Z Z Z Z Z Z Z Z Z Z Z Z Z

>  <atom.prop.IS_HEAVY_ATOM>  (2884) 
1 0 0 0 1 0 0 1 0 0 0 1 0 0 0 1 1 0 1 0 1 0 1 0 1 0

>  <DIFUSE_FUNC_ATOM>  (2884) 
n/a

>  <FINAL_SINGLE_POINT_ENERGY>  (2884) 
0

>  <NONCOV_INTER_ENERGY_QM>  (2884) 
0

>  <FF_Energy>  (2884) 
-6.42

>  <QM_Energy>  (2884) 
-12.6

>  <source>  (2884) 
ETAM_MBZ

>  <Index>  (2884) 
31042

$$$$
ETAM-pdb5c16-A-LYS-159:MBZ-pdb5c16-A-PHE-197
     RDKit          3D

 26 25  0  0  0  0  0  0  0  0999 V2000
    1.6007    0.8865    4.5266 C   0  0  0  0  0  0  0  0  0  0  0  0
    1.3378    0.1085    5.0961 H   0  0  0  0  0  0  0  0  0  0  0  0
    2.0622    1.5727    5.0876 H   0  0  0  0  0  0  0  0  0  0  0  0
    2.2947    0.5384    3.7616 H   0  0  0  0  0  0  0  0  0  0  0  0
    0.3380    1.5073    3.9413 C   0  0  0  0  0  0  0  0  0  0  0  0
   -0.0535    2.1427    4.6161 H   0  0  0  0  0  0  0  0  0  0  0  0
    0.5846    2.0284    3.1175 H   0  0  0  0  0  0  0  0  0  0  0  0
   -0.6869    0.4848    3.5827 N   0  0  0  0  0  4  0  0  0  0  0  0
   -1.2279    0.8166    2.8103 H   0  0  0  0  0  0  0  0  0  0  0  0
   -0.2296   -0.3670    3.3316 H   0  0  0  0  0  0  0  0  0  0  0  0
   -1.2839    0.3260    4.3677 H   0  0  0  0  0  0  0  0  0  0  0  0
    0.0074    2.9018    0.0110 C   0  0  0  0  0  0  0  0  0  0  0  0
    0.8201    3.2001    0.4915 H   0  0  0  0  0  0  0  0  0  0  0  0
   -0.8125    3.2057    0.4760 H   0  0  0  0  0  0  0  0  0  0  0  0
    0.0182    3.3561   -0.9798 H   0  0  0  0  0  0  0  0  0  0  0  0
    0.0022    1.4008   -0.0035 C   0  0  0  0  0  0  0  0  0  0  0  0
   -1.1924    0.6935    0.0057 C   0  0  0  0  0  0  0  0  0  0  0  0
   -2.0596    1.1842    0.0151 H   0  0  0  0  0  0  0  0  0  0  0  0
   -1.1958   -0.6938    0.0000 C   0  0  0  0  0  0  0  0  0  0  0  0
   -2.0770   -1.1865   -0.0012 H   0  0  0  0  0  0  0  0  0  0  0  0
   -0.0032   -1.3908   -0.0019 C   0  0  0  0  0  0  0  0  0  0  0  0
   -0.0089   -2.3914   -0.0048 H   0  0  0  0  0  0  0  0  0  0  0  0
    1.1958   -0.7002   -0.0000 C   0  0  0  0  0  0  0  0  0  0  0  0
    2.0771   -1.1983    0.0028 H   0  0  0  0  0  0  0  0  0  0  0  0
    1.1934    0.6906   -0.0003 C   0  0  0  0  0  0  0  0  0  0  0  0
    2.0643    1.1839    0.0011 H   0  0  0  0  0  0  0  0  0  0  0  0
  1  5  1  0
  5  8  1  0
  1  2  1  0
  1  3  1  0
  1  4  1  0
  5  6  1  0
  5  7  1  0
  8  9  1  0
  8 10  1  0
  8 11  1  0
 12 16  1  0
 16 17  2  0
 17 19  1  0
 19 21  2  0
 21 23  1  0
 23 25  2  0
 25 16  1  0
 12 13  1  0
 12 14  1  0
 12 15  1  0
 17 18  1  0
 19 20  1  0
 21 22  1  0
 23 24  1  0
 25 26  1  0
M  CHG  1   8   1
M  END
>  <PDB_ID>  (2885) 
pdb5c16

>  <RESIDUE_NAME>  (2885) 
LYS   PHE

>  <FRAG_NAME>  (2885) 
ETAM   MBZ

>  <FRAG_ATOM_NUM>  (2885) 
fragi: 11  fragj: 15

>  <atom.prop.CHAIN_ID>  (2885) 
A A A A A A A A A A A Z Z Z Z Z Z Z Z Z Z Z Z Z Z Z

>  <atom.prop.IS_HEAVY_ATOM>  (2885) 
1 0 0 0 1 0 0 1 0 0 0 1 0 0 0 1 1 0 1 0 1 0 1 0 1 0

>  <DIFUSE_FUNC_ATOM>  (2885) 
n/a

>  <FINAL_SINGLE_POINT_ENERGY>  (2885) 
0

>  <NONCOV_INTER_ENERGY_QM>  (2885) 
0

>  <FF_Energy>  (2885) 
-7.7

>  <QM_Energy>  (2885) 
-12.92

>  <source>  (2885) 
ETAM_MBZ

>  <Index>  (2885) 
31046

$$$$
ETAM-pdb6bu5-A-LYS-169:MBZ-pdb6bu5-A-PHE-162
     RDKit          3D

 26 25  0  0  0  0  0  0  0  0999 V2000
   -3.0645   -3.4912    4.3556 C   0  0  0  0  0  0  0  0  0  0  0  0
   -2.0974   -3.5817    4.5692 H   0  0  0  0  0  0  0  0  0  0  0  0
   -3.4481   -4.3732    4.1027 H   0  0  0  0  0  0  0  0  0  0  0  0
   -3.5868   -3.1177    5.2364 H   0  0  0  0  0  0  0  0  0  0  0  0
   -3.2155   -2.5411    3.1784 C   0  0  0  0  0  0  0  0  0  0  0  0
   -4.1912   -2.4287    2.9735 H   0  0  0  0  0  0  0  0  0  0  0  0
   -2.8323   -1.6483    3.4293 H   0  0  0  0  0  0  0  0  0  0  0  0
   -2.5177   -3.0487    1.9649 N   0  0  0  0  0  4  0  0  0  0  0  0
   -1.6069   -3.3734    2.2183 H   0  0  0  0  0  0  0  0  0  0  0  0
   -3.0438   -3.8017    1.5707 H   0  0  0  0  0  0  0  0  0  0  0  0
   -2.4367   -2.3100    1.2962 H   0  0  0  0  0  0  0  0  0  0  0  0
    0.0008    2.8990    0.0024 C   0  0  0  0  0  0  0  0  0  0  0  0
   -0.6878    3.2060   -0.6374 H   0  0  0  0  0  0  0  0  0  0  0  0
    0.9027    3.2044   -0.2642 H   0  0  0  0  0  0  0  0  0  0  0  0
   -0.2266    3.3366    0.9745 H   0  0  0  0  0  0  0  0  0  0  0  0
   -0.0003    1.3957    0.0001 C   0  0  0  0  0  0  0  0  0  0  0  0
   -1.1917    0.6902    0.0001 C   0  0  0  0  0  0  0  0  0  0  0  0
   -2.0597    1.1817   -0.0011 H   0  0  0  0  0  0  0  0  0  0  0  0
   -1.1951   -0.6934   -0.0000 C   0  0  0  0  0  0  0  0  0  0  0  0
   -2.0739   -1.1886    0.0007 H   0  0  0  0  0  0  0  0  0  0  0  0
   -0.0006   -1.3858    0.0002 C   0  0  0  0  0  0  0  0  0  0  0  0
   -0.0052   -2.3877    0.0005 H   0  0  0  0  0  0  0  0  0  0  0  0
    1.1951   -0.6949    0.0000 C   0  0  0  0  0  0  0  0  0  0  0  0
    2.0773   -1.1951    0.0015 H   0  0  0  0  0  0  0  0  0  0  0  0
    1.1926    0.6882   -0.0004 C   0  0  0  0  0  0  0  0  0  0  0  0
    2.0618    1.1864   -0.0019 H   0  0  0  0  0  0  0  0  0  0  0  0
  1  5  1  0
  5  8  1  0
  1  2  1  0
  1  3  1  0
  1  4  1  0
  5  6  1  0
  5  7  1  0
  8  9  1  0
  8 10  1  0
  8 11  1  0
 12 16  1  0
 16 17  2  0
 17 19  1  0
 19 21  2  0
 21 23  1  0
 23 25  2  0
 25 16  1  0
 12 13  1  0
 12 14  1  0
 12 15  1  0
 17 18  1  0
 19 20  1  0
 21 22  1  0
 23 24  1  0
 25 26  1  0
M  CHG  1   8   1
M  END
>  <PDB_ID>  (2886) 
pdb6bu5

>  <RESIDUE_NAME>  (2886) 
LYS   PHE

>  <FRAG_NAME>  (2886) 
ETAM   MBZ

>  <FRAG_ATOM_NUM>  (2886) 
fragi: 11  fragj: 15

>  <atom.prop.CHAIN_ID>  (2886) 
A A A A A A A A A A A Z Z Z Z Z Z Z Z Z Z Z Z Z Z Z

>  <atom.prop.IS_HEAVY_ATOM>  (2886) 
1 0 0 0 1 0 0 1 0 0 0 1 0 0 0 1 1 0 1 0 1 0 1 0 1 0

>  <DIFUSE_FUNC_ATOM>  (2886) 
n/a

>  <FINAL_SINGLE_POINT_ENERGY>  (2886) 
0

>  <NONCOV_INTER_ENERGY_QM>  (2886) 
0

>  <FF_Energy>  (2886) 
0.18

>  <QM_Energy>  (2886) 
-6.33

>  <source>  (2886) 
ETAM_MBZ

>  <Index>  (2886) 
31073

$$$$
ETAM-pdb5bon-B-LYS-33:MBZ-pdb5bon-B-PHE-43
     RDKit          3D

 26 25  0  0  0  0  0  0  0  0999 V2000
    1.5214   -1.5136    4.7278 C   0  0  0  0  0  0  0  0  0  0  0  0
    2.3166   -2.0300    5.0415 H   0  0  0  0  0  0  0  0  0  0  0  0
    0.7768   -1.6098    5.3872 H   0  0  0  0  0  0  0  0  0  0  0  0
    1.7967   -0.4606    4.6691 H   0  0  0  0  0  0  0  0  0  0  0  0
    1.0741   -2.0600    3.3991 C   0  0  0  0  0  0  0  0  0  0  0  0
    1.7951   -1.9224    2.7281 H   0  0  0  0  0  0  0  0  0  0  0  0
    0.8723   -3.0298    3.4937 H   0  0  0  0  0  0  0  0  0  0  0  0
   -0.1391   -1.3439    2.9737 N   0  0  0  0  0  4  0  0  0  0  0  0
   -0.9524   -1.8147    3.3240 H   0  0  0  0  0  0  0  0  0  0  0  0
   -0.1230   -0.4069    3.3289 H   0  0  0  0  0  0  0  0  0  0  0  0
   -0.1825   -1.3144    1.9724 H   0  0  0  0  0  0  0  0  0  0  0  0
    0.0086    2.8957   -0.0227 C   0  0  0  0  0  0  0  0  0  0  0  0
   -0.8948    3.1995   -0.2965 H   0  0  0  0  0  0  0  0  0  0  0  0
    0.6914    3.1825   -0.6827 H   0  0  0  0  0  0  0  0  0  0  0  0
    0.2458    3.3705    0.9294 H   0  0  0  0  0  0  0  0  0  0  0  0
    0.0010    1.3929    0.0129 C   0  0  0  0  0  0  0  0  0  0  0  0
   -1.1877    0.6932    0.0018 C   0  0  0  0  0  0  0  0  0  0  0  0
   -2.0564    1.1841   -0.0066 H   0  0  0  0  0  0  0  0  0  0  0  0
   -1.1929   -0.6895    0.0000 C   0  0  0  0  0  0  0  0  0  0  0  0
   -2.0739   -1.1833    0.0060 H   0  0  0  0  0  0  0  0  0  0  0  0
   -0.0015   -1.3839   -0.0075 C   0  0  0  0  0  0  0  0  0  0  0  0
   -0.0071   -2.3850   -0.0193 H   0  0  0  0  0  0  0  0  0  0  0  0
    1.1929   -0.6945    0.0000 C   0  0  0  0  0  0  0  0  0  0  0  0
    2.0755   -1.1962    0.0123 H   0  0  0  0  0  0  0  0  0  0  0  0
    1.1881    0.6817   -0.0072 C   0  0  0  0  0  0  0  0  0  0  0  0
    2.0605    1.1821   -0.0278 H   0  0  0  0  0  0  0  0  0  0  0  0
  1  5  1  0
  5  8  1  0
  1  2  1  0
  1  3  1  0
  1  4  1  0
  5  6  1  0
  5  7  1  0
  8  9  1  0
  8 10  1  0
  8 11  1  0
 12 16  1  0
 16 17  2  0
 17 19  1  0
 19 21  2  0
 21 23  1  0
 23 25  2  0
 25 16  1  0
 12 13  1  0
 12 14  1  0
 12 15  1  0
 17 18  1  0
 19 20  1  0
 21 22  1  0
 23 24  1  0
 25 26  1  0
M  CHG  1   8   1
M  END
>  <PDB_ID>  (2887) 
pdb5bon

>  <RESIDUE_NAME>  (2887) 
LYS   PHE

>  <FRAG_NAME>  (2887) 
ETAM   MBZ

>  <FRAG_ATOM_NUM>  (2887) 
fragi: 11  fragj: 15

>  <atom.prop.CHAIN_ID>  (2887) 
A A A A A A A A A A A Z Z Z Z Z Z Z Z Z Z Z Z Z Z Z

>  <atom.prop.IS_HEAVY_ATOM>  (2887) 
1 0 0 0 1 0 0 1 0 0 0 1 0 0 0 1 1 0 1 0 1 0 1 0 1 0

>  <DIFUSE_FUNC_ATOM>  (2887) 
n/a

>  <FINAL_SINGLE_POINT_ENERGY>  (2887) 
0

>  <NONCOV_INTER_ENERGY_QM>  (2887) 
0

>  <FF_Energy>  (2887) 
-7.03

>  <QM_Energy>  (2887) 
-15.7

>  <source>  (2887) 
ETAM_MBZ

>  <Index>  (2887) 
31076

$$$$
ETAM-pdb6c07-B-LYS-114:MBZ-pdb6c07-A-PHE-69
     RDKit          3D

 26 25  0  0  0  0  0  0  0  0999 V2000
    2.5800   -1.7248   -2.6634 C   0  0  0  0  0  0  0  0  0  0  0  0
    1.7051   -2.1269   -2.7772 H   0  0  0  0  0  0  0  0  0  0  0  0
    2.7000   -1.4435   -1.7429 H   0  0  0  0  0  0  0  0  0  0  0  0
    3.3496   -2.4517   -2.9232 H   0  0  0  0  0  0  0  0  0  0  0  0
    2.6628   -0.4947   -3.5559 C   0  0  0  0  0  0  0  0  0  0  0  0
    2.8622   -0.7741   -4.4637 H   0  0  0  0  0  0  0  0  0  0  0  0
    1.8122   -0.0292   -3.5321 H   0  0  0  0  0  0  0  0  0  0  0  0
    3.7452    0.4800   -3.1155 N   0  0  0  0  0  4  0  0  0  0  0  0
    3.5554    0.8016   -2.3072 H   0  0  0  0  0  0  0  0  0  0  0  0
    4.5329    0.0667   -3.0850 H   0  0  0  0  0  0  0  0  0  0  0  0
    3.7974    1.1577   -3.6903 H   0  0  0  0  0  0  0  0  0  0  0  0
    0.0014    2.8665   -0.0073 C   0  0  0  0  0  0  0  0  0  0  0  0
   -0.7349    3.1634   -0.5638 H   0  0  0  0  0  0  0  0  0  0  0  0
    0.8436    3.1630   -0.3867 H   0  0  0  0  0  0  0  0  0  0  0  0
   -0.1097    3.3037    0.9850 H   0  0  0  0  0  0  0  0  0  0  0  0
    0.0008    1.3847   -0.0062 C   0  0  0  0  0  0  0  0  0  0  0  0
   -1.1875    0.6718   -0.0314 C   0  0  0  0  0  0  0  0  0  0  0  0
   -1.9966    1.1296   -0.0693 H   0  0  0  0  0  0  0  0  0  0  0  0
   -1.1858   -0.6902   -0.0000 C   0  0  0  0  0  0  0  0  0  0  0  0
   -1.9909   -1.1563    0.0197 H   0  0  0  0  0  0  0  0  0  0  0  0
    0.0062   -1.3778    0.0013 C   0  0  0  0  0  0  0  0  0  0  0  0
    0.0106   -2.3079    0.0036 H   0  0  0  0  0  0  0  0  0  0  0  0
    1.1858   -0.6860    0.0000 C   0  0  0  0  0  0  0  0  0  0  0  0
    1.9934   -1.1460   -0.0257 H   0  0  0  0  0  0  0  0  0  0  0  0
    1.1805    0.6975    0.0364 C   0  0  0  0  0  0  0  0  0  0  0  0
    1.9854    1.1625    0.0895 H   0  0  0  0  0  0  0  0  0  0  0  0
  1  5  1  0
  5  8  1  0
  1  2  1  0
  1  3  1  0
  1  4  1  0
  5  6  1  0
  5  7  1  0
  8  9  1  0
  8 10  1  0
  8 11  1  0
 12 16  1  0
 16 17  2  0
 17 19  1  0
 19 21  2  0
 21 23  1  0
 23 25  2  0
 25 16  1  0
 12 13  1  0
 12 14  1  0
 12 15  1  0
 17 18  1  0
 19 20  1  0
 21 22  1  0
 23 24  1  0
 25 26  1  0
M  CHG  1   8   1
M  END
>  <PDB_ID>  (2888) 
pdb6c07

>  <RESIDUE_NAME>  (2888) 
LYS   PHE

>  <FRAG_NAME>  (2888) 
ETAM   MBZ

>  <FRAG_ATOM_NUM>  (2888) 
fragi: 11  fragj: 15

>  <atom.prop.CHAIN_ID>  (2888) 
A A A A A A A A A A A Z Z Z Z Z Z Z Z Z Z Z Z Z Z Z

>  <atom.prop.IS_HEAVY_ATOM>  (2888) 
1 0 0 0 1 0 0 1 0 0 0 1 0 0 0 1 1 0 1 0 1 0 1 0 1 0

>  <DIFUSE_FUNC_ATOM>  (2888) 
n/a

>  <FINAL_SINGLE_POINT_ENERGY>  (2888) 
0

>  <NONCOV_INTER_ENERGY_QM>  (2888) 
0

>  <FF_Energy>  (2888) 
1.11

>  <QM_Energy>  (2888) 
-4.08

>  <source>  (2888) 
ETAM_MBZ

>  <Index>  (2888) 
31139

$$$$
ETAM-pdb6c0g-A-LYS-66:MBZ-pdb6c0g-A-PHE-63
     RDKit          3D

 26 25  0  0  0  0  0  0  0  0999 V2000
    3.5075    3.2833    1.6354 C   0  0  0  0  0  0  0  0  0  0  0  0
    4.2793    2.8754    2.1225 H   0  0  0  0  0  0  0  0  0  0  0  0
    2.6895    2.7266    1.7802 H   0  0  0  0  0  0  0  0  0  0  0  0
    3.3286    4.2799    2.0391 H   0  0  0  0  0  0  0  0  0  0  0  0
    3.8229    3.3062    0.1567 C   0  0  0  0  0  0  0  0  0  0  0  0
    3.0524    3.7102   -0.3366 H   0  0  0  0  0  0  0  0  0  0  0  0
    4.6426    3.8587    0.0044 H   0  0  0  0  0  0  0  0  0  0  0  0
    4.0594    1.9307   -0.3488 N   0  0  0  0  0  4  0  0  0  0  0  0
    5.0003    1.6584   -0.1457 H   0  0  0  0  0  0  0  0  0  0  0  0
    3.4263    1.2975    0.0978 H   0  0  0  0  0  0  0  0  0  0  0  0
    3.9115    1.9081   -1.3377 H   0  0  0  0  0  0  0  0  0  0  0  0
   -0.0072    2.8935   -0.0248 C   0  0  0  0  0  0  0  0  0  0  0  0
   -0.8205    3.1936   -0.5228 H   0  0  0  0  0  0  0  0  0  0  0  0
    0.8126    3.2037   -0.5051 H   0  0  0  0  0  0  0  0  0  0  0  0
   -0.0205    3.3886    0.9462 H   0  0  0  0  0  0  0  0  0  0  0  0
    0.0025    1.3996   -0.0075 C   0  0  0  0  0  0  0  0  0  0  0  0
   -1.1988    0.6927   -0.0081 C   0  0  0  0  0  0  0  0  0  0  0  0
   -2.0624    1.1944   -0.0159 H   0  0  0  0  0  0  0  0  0  0  0  0
   -1.2191   -0.6921    0.0000 C   0  0  0  0  0  0  0  0  0  0  0  0
   -2.0887   -1.1859   -0.0106 H   0  0  0  0  0  0  0  0  0  0  0  0
   -0.0068   -1.3905    0.0258 C   0  0  0  0  0  0  0  0  0  0  0  0
   -0.0127   -2.3902    0.0610 H   0  0  0  0  0  0  0  0  0  0  0  0
    1.2191   -0.7012   -0.0000 C   0  0  0  0  0  0  0  0  0  0  0  0
    2.0848   -1.2018   -0.0100 H   0  0  0  0  0  0  0  0  0  0  0  0
    1.2032    0.6915   -0.0102 C   0  0  0  0  0  0  0  0  0  0  0  0
    2.0701    1.1935   -0.0188 H   0  0  0  0  0  0  0  0  0  0  0  0
  1  5  1  0
  5  8  1  0
  1  2  1  0
  1  3  1  0
  1  4  1  0
  5  6  1  0
  5  7  1  0
  8  9  1  0
  8 10  1  0
  8 11  1  0
 12 16  1  0
 16 17  2  0
 17 19  1  0
 19 21  2  0
 21 23  1  0
 23 25  2  0
 25 16  1  0
 12 13  1  0
 12 14  1  0
 12 15  1  0
 17 18  1  0
 19 20  1  0
 21 22  1  0
 23 24  1  0
 25 26  1  0
M  CHG  1   8   1
M  END
>  <PDB_ID>  (2889) 
pdb6c0g

>  <RESIDUE_NAME>  (2889) 
LYS   PHE

>  <FRAG_NAME>  (2889) 
ETAM   MBZ

>  <FRAG_ATOM_NUM>  (2889) 
fragi: 11  fragj: 15

>  <atom.prop.CHAIN_ID>  (2889) 
A A A A A A A A A A A Z Z Z Z Z Z Z Z Z Z Z Z Z Z Z

>  <atom.prop.IS_HEAVY_ATOM>  (2889) 
1 0 0 0 1 0 0 1 0 0 0 1 0 0 0 1 1 0 1 0 1 0 1 0 1 0

>  <DIFUSE_FUNC_ATOM>  (2889) 
n/a

>  <FINAL_SINGLE_POINT_ENERGY>  (2889) 
0

>  <NONCOV_INTER_ENERGY_QM>  (2889) 
0

>  <FF_Energy>  (2889) 
9.86

>  <QM_Energy>  (2889) 
1.47

>  <source>  (2889) 
ETAM_MBZ

>  <Index>  (2889) 
31147

$$$$
ETAM-pdb5c9b-A-LYS-134:MBZ-pdb5c9b-A-PHE-129
     RDKit          3D

 26 25  0  0  0  0  0  0  0  0999 V2000
   -1.4556   -0.7452    4.9487 C   0  0  0  0  0  0  0  0  0  0  0  0
   -2.2585   -1.1813    5.3739 H   0  0  0  0  0  0  0  0  0  0  0  0
   -1.3814    0.1942    5.3054 H   0  0  0  0  0  0  0  0  0  0  0  0
   -0.5634   -1.3008    5.2376 H   0  0  0  0  0  0  0  0  0  0  0  0
   -1.6999   -0.6638    3.4423 C   0  0  0  0  0  0  0  0  0  0  0  0
   -2.0257    0.2698    3.2185 H   0  0  0  0  0  0  0  0  0  0  0  0
   -0.8153   -0.7959    2.9646 H   0  0  0  0  0  0  0  0  0  0  0  0
   -2.6849   -1.6575    2.9197 N   0  0  0  0  0  4  0  0  0  0  0  0
   -3.4521   -1.7255    3.5559 H   0  0  0  0  0  0  0  0  0  0  0  0
   -3.0135   -1.3557    2.0261 H   0  0  0  0  0  0  0  0  0  0  0  0
   -2.2393   -2.5468    2.8325 H   0  0  0  0  0  0  0  0  0  0  0  0
    0.0062    2.8536    0.0573 C   0  0  0  0  0  0  0  0  0  0  0  0
   -0.7521    3.2060   -0.4651 H   0  0  0  0  0  0  0  0  0  0  0  0
    0.8698    3.1895   -0.2793 H   0  0  0  0  0  0  0  0  0  0  0  0
   -0.1066    3.2195    1.0779 H   0  0  0  0  0  0  0  0  0  0  0  0
   -0.0005    1.3886   -0.0120 C   0  0  0  0  0  0  0  0  0  0  0  0
   -1.1934    0.7042    0.0041 C   0  0  0  0  0  0  0  0  0  0  0  0
   -2.0572    1.1967    0.0179 H   0  0  0  0  0  0  0  0  0  0  0  0
   -1.1996   -0.6792   -0.0000 C   0  0  0  0  0  0  0  0  0  0  0  0
   -2.0792   -1.1752   -0.0015 H   0  0  0  0  0  0  0  0  0  0  0  0
   -0.0008   -1.3882   -0.0007 C   0  0  0  0  0  0  0  0  0  0  0  0
   -0.0190   -2.3875   -0.0021 H   0  0  0  0  0  0  0  0  0  0  0  0
    1.1996   -0.7055    0.0000 C   0  0  0  0  0  0  0  0  0  0  0  0
    2.0778   -1.2050   -0.0042 H   0  0  0  0  0  0  0  0  0  0  0  0
    1.1947    0.6800    0.0087 C   0  0  0  0  0  0  0  0  0  0  0  0
    2.0631    1.1785    0.0298 H   0  0  0  0  0  0  0  0  0  0  0  0
  1  5  1  0
  5  8  1  0
  1  2  1  0
  1  3  1  0
  1  4  1  0
  5  6  1  0
  5  7  1  0
  8  9  1  0
  8 10  1  0
  8 11  1  0
 12 16  1  0
 16 17  2  0
 17 19  1  0
 19 21  2  0
 21 23  1  0
 23 25  2  0
 25 16  1  0
 12 13  1  0
 12 14  1  0
 12 15  1  0
 17 18  1  0
 19 20  1  0
 21 22  1  0
 23 24  1  0
 25 26  1  0
M  CHG  1   8   1
M  END
>  <PDB_ID>  (2890) 
pdb5c9b

>  <RESIDUE_NAME>  (2890) 
LYS   PHE

>  <FRAG_NAME>  (2890) 
ETAM   MBZ

>  <FRAG_ATOM_NUM>  (2890) 
fragi: 11  fragj: 15

>  <atom.prop.CHAIN_ID>  (2890) 
A A A A A A A A A A A Z Z Z Z Z Z Z Z Z Z Z Z Z Z Z

>  <atom.prop.IS_HEAVY_ATOM>  (2890) 
1 0 0 0 1 0 0 1 0 0 0 1 0 0 0 1 1 0 1 0 1 0 1 0 1 0

>  <DIFUSE_FUNC_ATOM>  (2890) 
n/a

>  <FINAL_SINGLE_POINT_ENERGY>  (2890) 
0

>  <NONCOV_INTER_ENERGY_QM>  (2890) 
0

>  <FF_Energy>  (2890) 
-3.09

>  <QM_Energy>  (2890) 
-8.6

>  <source>  (2890) 
ETAM_MBZ

>  <Index>  (2890) 
31169

$$$$
ETAM-pdb6c1w-A-LYS-267:MBZ-pdb6c1w-A-PHE-179
     RDKit          3D

 26 25  0  0  0  0  0  0  0  0999 V2000
    1.8169   -5.5943    0.7769 C   0  0  0  0  0  0  0  0  0  0  0  0
    2.0018   -5.7186    1.7481 H   0  0  0  0  0  0  0  0  0  0  0  0
    2.2759   -6.3012    0.2467 H   0  0  0  0  0  0  0  0  0  0  0  0
    0.7423   -5.6673    0.6094 H   0  0  0  0  0  0  0  0  0  0  0  0
    2.3597   -4.2409    0.3503 C   0  0  0  0  0  0  0  0  0  0  0  0
    2.9348   -4.3584   -0.4686 H   0  0  0  0  0  0  0  0  0  0  0  0
    1.5906   -3.6355    0.1111 H   0  0  0  0  0  0  0  0  0  0  0  0
    3.1848   -3.5633    1.4194 N   0  0  0  0  0  4  0  0  0  0  0  0
    2.5764   -3.0396    2.0092 H   0  0  0  0  0  0  0  0  0  0  0  0
    3.6591   -4.2615    1.9479 H   0  0  0  0  0  0  0  0  0  0  0  0
    3.8426   -2.9582    0.9800 H   0  0  0  0  0  0  0  0  0  0  0  0
    0.0083    2.8944    0.0146 C   0  0  0  0  0  0  0  0  0  0  0  0
    0.8775    3.1977    0.3779 H   0  0  0  0  0  0  0  0  0  0  0  0
   -0.7428    3.2005    0.5831 H   0  0  0  0  0  0  0  0  0  0  0  0
   -0.1150    3.3467   -0.9694 H   0  0  0  0  0  0  0  0  0  0  0  0
    0.0038    1.3980    0.0015 C   0  0  0  0  0  0  0  0  0  0  0  0
   -1.1907    0.6967    0.0036 C   0  0  0  0  0  0  0  0  0  0  0  0
   -2.0557    1.1887    0.0062 H   0  0  0  0  0  0  0  0  0  0  0  0
   -1.1900   -0.6838    0.0000 C   0  0  0  0  0  0  0  0  0  0  0  0
   -2.0775   -1.1775    0.0040 H   0  0  0  0  0  0  0  0  0  0  0  0
   -0.0091   -1.3825   -0.0067 C   0  0  0  0  0  0  0  0  0  0  0  0
   -0.0249   -2.3892   -0.0176 H   0  0  0  0  0  0  0  0  0  0  0  0
    1.1900   -0.7130   -0.0000 C   0  0  0  0  0  0  0  0  0  0  0  0
    2.0686   -1.2113    0.0051 H   0  0  0  0  0  0  0  0  0  0  0  0
    1.1960    0.6847    0.0016 C   0  0  0  0  0  0  0  0  0  0  0  0
    2.0668    1.1710    0.0020 H   0  0  0  0  0  0  0  0  0  0  0  0
  1  5  1  0
  5  8  1  0
  1  2  1  0
  1  3  1  0
  1  4  1  0
  5  6  1  0
  5  7  1  0
  8  9  1  0
  8 10  1  0
  8 11  1  0
 12 16  1  0
 16 17  2  0
 17 19  1  0
 19 21  2  0
 21 23  1  0
 23 25  2  0
 25 16  1  0
 12 13  1  0
 12 14  1  0
 12 15  1  0
 17 18  1  0
 19 20  1  0
 21 22  1  0
 23 24  1  0
 25 26  1  0
M  CHG  1   8   1
M  END
>  <PDB_ID>  (2891) 
pdb6c1w

>  <RESIDUE_NAME>  (2891) 
LYS   PHE

>  <FRAG_NAME>  (2891) 
ETAM   MBZ

>  <FRAG_ATOM_NUM>  (2891) 
fragi: 11  fragj: 15

>  <atom.prop.CHAIN_ID>  (2891) 
A A A A A A A A A A A Z Z Z Z Z Z Z Z Z Z Z Z Z Z Z

>  <atom.prop.IS_HEAVY_ATOM>  (2891) 
1 0 0 0 1 0 0 1 0 0 0 1 0 0 0 1 1 0 1 0 1 0 1 0 1 0

>  <DIFUSE_FUNC_ATOM>  (2891) 
n/a

>  <FINAL_SINGLE_POINT_ENERGY>  (2891) 
0

>  <NONCOV_INTER_ENERGY_QM>  (2891) 
0

>  <FF_Energy>  (2891) 
1.03

>  <QM_Energy>  (2891) 
-4.12

>  <source>  (2891) 
ETAM_MBZ

>  <Index>  (2891) 
31172

$$$$
ETAM-pdb5ca8-A-LYS-545:MBZ-pdb5ca8-A-PHE-548
     RDKit          3D

 26 25  0  0  0  0  0  0  0  0999 V2000
    2.3014    2.6594    2.8813 C   0  0  0  0  0  0  0  0  0  0  0  0
    3.0780    2.3520    2.3163 H   0  0  0  0  0  0  0  0  0  0  0  0
    2.5980    2.6727    3.8447 H   0  0  0  0  0  0  0  0  0  0  0  0
    1.9909    3.6578    2.5733 H   0  0  0  0  0  0  0  0  0  0  0  0
    1.2063    1.6919    2.7405 C   0  0  0  0  0  0  0  0  0  0  0  0
    0.5304    1.8216    3.4847 H   0  0  0  0  0  0  0  0  0  0  0  0
    0.7199    1.8427    1.8638 H   0  0  0  0  0  0  0  0  0  0  0  0
    1.6743    0.2843    2.7771 N   0  0  0  0  0  4  0  0  0  0  0  0
    2.3625    0.1800    3.4956 H   0  0  0  0  0  0  0  0  0  0  0  0
    0.9005   -0.3196    2.9671 H   0  0  0  0  0  0  0  0  0  0  0  0
    2.0757    0.0433    1.8934 H   0  0  0  0  0  0  0  0  0  0  0  0
    0.0008    2.9525    0.1318 C   0  0  0  0  0  0  0  0  0  0  0  0
    0.5805    3.1887    0.9094 H   0  0  0  0  0  0  0  0  0  0  0  0
   -0.9412    3.2255    0.3167 H   0  0  0  0  0  0  0  0  0  0  0  0
    0.3522    3.5102   -0.7363 H   0  0  0  0  0  0  0  0  0  0  0  0
    0.0043    1.4105    0.0260 C   0  0  0  0  0  0  0  0  0  0  0  0
   -1.1908    0.6985    0.0281 C   0  0  0  0  0  0  0  0  0  0  0  0
   -2.0561    1.1862    0.0484 H   0  0  0  0  0  0  0  0  0  0  0  0
   -1.1749   -0.6769   -0.0000 C   0  0  0  0  0  0  0  0  0  0  0  0
   -2.0796   -1.1692   -0.0003 H   0  0  0  0  0  0  0  0  0  0  0  0
   -0.0236   -1.3798   -0.0254 C   0  0  0  0  0  0  0  0  0  0  0  0
   -0.0464   -2.3908   -0.0641 H   0  0  0  0  0  0  0  0  0  0  0  0
    1.1749   -0.7303   -0.0000 C   0  0  0  0  0  0  0  0  0  0  0  0
    2.0519   -1.2349    0.0413 H   0  0  0  0  0  0  0  0  0  0  0  0
    1.2101    0.6780   -0.0287 C   0  0  0  0  0  0  0  0  0  0  0  0
    2.0732    1.1519   -0.0879 H   0  0  0  0  0  0  0  0  0  0  0  0
  1  5  1  0
  5  8  1  0
  1  2  1  0
  1  3  1  0
  1  4  1  0
  5  6  1  0
  5  7  1  0
  8  9  1  0
  8 10  1  0
  8 11  1  0
 12 16  1  0
 16 17  2  0
 17 19  1  0
 19 21  2  0
 21 23  1  0
 23 25  2  0
 25 16  1  0
 12 13  1  0
 12 14  1  0
 12 15  1  0
 17 18  1  0
 19 20  1  0
 21 22  1  0
 23 24  1  0
 25 26  1  0
M  CHG  1   8   1
M  END
>  <PDB_ID>  (2892) 
pdb5ca8

>  <RESIDUE_NAME>  (2892) 
LYS   PHE

>  <FRAG_NAME>  (2892) 
ETAM   MBZ

>  <FRAG_ATOM_NUM>  (2892) 
fragi: 11  fragj: 15

>  <atom.prop.CHAIN_ID>  (2892) 
A A A A A A A A A A A Z Z Z Z Z Z Z Z Z Z Z Z Z Z Z

>  <atom.prop.IS_HEAVY_ATOM>  (2892) 
1 0 0 0 1 0 0 1 0 0 0 1 0 0 0 1 1 0 1 0 1 0 1 0 1 0

>  <DIFUSE_FUNC_ATOM>  (2892) 
n/a

>  <FINAL_SINGLE_POINT_ENERGY>  (2892) 
0

>  <NONCOV_INTER_ENERGY_QM>  (2892) 
0

>  <FF_Energy>  (2892) 
39.31

>  <QM_Energy>  (2892) 
-3.16

>  <source>  (2892) 
ETAM_MBZ

>  <Index>  (2892) 
31182

$$$$
ETAM-pdb5ca8-A-LYS-545:MBZ-pdb5ca8-A-PHE-640
     RDKit          3D

 26 25  0  0  0  0  0  0  0  0999 V2000
   -0.3800   -0.0679    3.5908 C   0  0  0  0  0  0  0  0  0  0  0  0
    0.1666   -0.5784    4.2673 H   0  0  0  0  0  0  0  0  0  0  0  0
   -0.6903   -0.7150    2.8829 H   0  0  0  0  0  0  0  0  0  0  0  0
   -1.2400    0.3906    4.0790 H   0  0  0  0  0  0  0  0  0  0  0  0
    0.4780    0.9424    2.9598 C   0  0  0  0  0  0  0  0  0  0  0  0
    0.0466    1.2811    2.1073 H   0  0  0  0  0  0  0  0  0  0  0  0
    0.5885    1.7390    3.5771 H   0  0  0  0  0  0  0  0  0  0  0  0
    1.8268    0.4229    2.6242 N   0  0  0  0  0  4  0  0  0  0  0  0
    1.7436   -0.4952    2.2359 H   0  0  0  0  0  0  0  0  0  0  0  0
    2.2610    1.0284    1.9575 H   0  0  0  0  0  0  0  0  0  0  0  0
    2.3852    0.3850    3.4530 H   0  0  0  0  0  0  0  0  0  0  0  0
    0.0500    2.9015    0.1682 C   0  0  0  0  0  0  0  0  0  0  0  0
    0.8988    3.1225    0.6486 H   0  0  0  0  0  0  0  0  0  0  0  0
   -0.7311    3.1668    0.7337 H   0  0  0  0  0  0  0  0  0  0  0  0
    0.0173    3.4787   -0.7559 H   0  0  0  0  0  0  0  0  0  0  0  0
    0.0007    1.4025    0.0134 C   0  0  0  0  0  0  0  0  0  0  0  0
   -1.1978    0.7054    0.0216 C   0  0  0  0  0  0  0  0  0  0  0  0
   -2.0612    1.1843    0.0412 H   0  0  0  0  0  0  0  0  0  0  0  0
   -1.1909   -0.6975    0.0000 C   0  0  0  0  0  0  0  0  0  0  0  0
   -2.0664   -1.1910    0.0039 H   0  0  0  0  0  0  0  0  0  0  0  0
    0.0123   -1.3833   -0.0240 C   0  0  0  0  0  0  0  0  0  0  0  0
   -0.0028   -2.3918   -0.0598 H   0  0  0  0  0  0  0  0  0  0  0  0
    1.1909   -0.7072   -0.0000 C   0  0  0  0  0  0  0  0  0  0  0  0
    2.0795   -1.1973    0.0270 H   0  0  0  0  0  0  0  0  0  0  0  0
    1.1847    0.6802   -0.0110 C   0  0  0  0  0  0  0  0  0  0  0  0
    2.0614    1.1750   -0.0380 H   0  0  0  0  0  0  0  0  0  0  0  0
  1  5  1  0
  5  8  1  0
  1  2  1  0
  1  3  1  0
  1  4  1  0
  5  6  1  0
  5  7  1  0
  8  9  1  0
  8 10  1  0
  8 11  1  0
 12 16  1  0
 16 17  2  0
 17 19  1  0
 19 21  2  0
 21 23  1  0
 23 25  2  0
 25 16  1  0
 12 13  1  0
 12 14  1  0
 12 15  1  0
 17 18  1  0
 19 20  1  0
 21 22  1  0
 23 24  1  0
 25 26  1  0
M  CHG  1   8   1
M  END
>  <PDB_ID>  (2893) 
pdb5ca8

>  <RESIDUE_NAME>  (2893) 
LYS   PHE

>  <FRAG_NAME>  (2893) 
ETAM   MBZ

>  <FRAG_ATOM_NUM>  (2893) 
fragi: 11  fragj: 15

>  <atom.prop.CHAIN_ID>  (2893) 
A A A A A A A A A A A Z Z Z Z Z Z Z Z Z Z Z Z Z Z Z

>  <atom.prop.IS_HEAVY_ATOM>  (2893) 
1 0 0 0 1 0 0 1 0 0 0 1 0 0 0 1 1 0 1 0 1 0 1 0 1 0

>  <DIFUSE_FUNC_ATOM>  (2893) 
n/a

>  <FINAL_SINGLE_POINT_ENERGY>  (2893) 
0

>  <NONCOV_INTER_ENERGY_QM>  (2893) 
0

>  <FF_Energy>  (2893) 
15.86

>  <QM_Energy>  (2893) 
-6.88

>  <source>  (2893) 
ETAM_MBZ

>  <Index>  (2893) 
31183

$$$$
ETAM-pdb5ca8-A-LYS-604:MBZ-pdb5ca8-A-PHE-600
     RDKit          3D

 26 25  0  0  0  0  0  0  0  0999 V2000
   -0.4044   -0.9289    3.5883 C   0  0  0  0  0  0  0  0  0  0  0  0
   -0.4021   -1.6389    2.8837 H   0  0  0  0  0  0  0  0  0  0  0  0
   -0.4142   -0.0278    3.1547 H   0  0  0  0  0  0  0  0  0  0  0  0
   -1.3108   -1.0366    4.1841 H   0  0  0  0  0  0  0  0  0  0  0  0
    0.8489   -1.0586    4.4170 C   0  0  0  0  0  0  0  0  0  0  0  0
    0.8692   -0.3184    5.0976 H   0  0  0  0  0  0  0  0  0  0  0  0
    0.8306   -1.9386    4.9023 H   0  0  0  0  0  0  0  0  0  0  0  0
    2.0603   -0.9866    3.5812 N   0  0  0  0  0  4  0  0  0  0  0  0
    2.6501   -0.2432    3.9028 H   0  0  0  0  0  0  0  0  0  0  0  0
    2.5622   -1.8522    3.6369 H   0  0  0  0  0  0  0  0  0  0  0  0
    1.8043   -0.8143    2.6280 H   0  0  0  0  0  0  0  0  0  0  0  0
    0.0031    2.8964   -0.0204 C   0  0  0  0  0  0  0  0  0  0  0  0
   -0.2056    3.1863   -0.9451 H   0  0  0  0  0  0  0  0  0  0  0  0
    0.9040    3.2064    0.2522 H   0  0  0  0  0  0  0  0  0  0  0  0
   -0.7255    3.3561    0.6474 H   0  0  0  0  0  0  0  0  0  0  0  0
    0.0016    1.3977    0.0068 C   0  0  0  0  0  0  0  0  0  0  0  0
   -1.1961    0.6923   -0.0000 C   0  0  0  0  0  0  0  0  0  0  0  0
   -2.0610    1.1892   -0.0066 H   0  0  0  0  0  0  0  0  0  0  0  0
   -1.2029   -0.6867    0.0000 C   0  0  0  0  0  0  0  0  0  0  0  0
   -2.0803   -1.1843    0.0049 H   0  0  0  0  0  0  0  0  0  0  0  0
   -0.0041   -1.3898   -0.0051 C   0  0  0  0  0  0  0  0  0  0  0  0
   -0.0141   -2.3888   -0.0127 H   0  0  0  0  0  0  0  0  0  0  0  0
    1.2029   -0.7011   -0.0000 C   0  0  0  0  0  0  0  0  0  0  0  0
    2.0796   -1.2017    0.0064 H   0  0  0  0  0  0  0  0  0  0  0  0
    1.1985    0.6877   -0.0017 C   0  0  0  0  0  0  0  0  0  0  0  0
    2.0671    1.1851   -0.0103 H   0  0  0  0  0  0  0  0  0  0  0  0
  1  5  1  0
  5  8  1  0
  1  2  1  0
  1  3  1  0
  1  4  1  0
  5  6  1  0
  5  7  1  0
  8  9  1  0
  8 10  1  0
  8 11  1  0
 12 16  1  0
 16 17  2  0
 17 19  1  0
 19 21  2  0
 21 23  1  0
 23 25  2  0
 25 16  1  0
 12 13  1  0
 12 14  1  0
 12 15  1  0
 17 18  1  0
 19 20  1  0
 21 22  1  0
 23 24  1  0
 25 26  1  0
M  CHG  1   8   1
M  END
>  <PDB_ID>  (2894) 
pdb5ca8

>  <RESIDUE_NAME>  (2894) 
LYS   PHE

>  <FRAG_NAME>  (2894) 
ETAM   MBZ

>  <FRAG_ATOM_NUM>  (2894) 
fragi: 11  fragj: 15

>  <atom.prop.CHAIN_ID>  (2894) 
A A A A A A A A A A A Z Z Z Z Z Z Z Z Z Z Z Z Z Z Z

>  <atom.prop.IS_HEAVY_ATOM>  (2894) 
1 0 0 0 1 0 0 1 0 0 0 1 0 0 0 1 1 0 1 0 1 0 1 0 1 0

>  <DIFUSE_FUNC_ATOM>  (2894) 
n/a

>  <FINAL_SINGLE_POINT_ENERGY>  (2894) 
0

>  <NONCOV_INTER_ENERGY_QM>  (2894) 
0

>  <FF_Energy>  (2894) 
-5.28

>  <QM_Energy>  (2894) 
-11.33

>  <source>  (2894) 
ETAM_MBZ

>  <Index>  (2894) 
31184

$$$$
ETAM-pdb5cad-A-LYS-346:MBZ-pdb5cad-A-PHE-228
     RDKit          3D

 26 25  0  0  0  0  0  0  0  0999 V2000
    0.2796   -1.3682    4.7161 C   0  0  0  0  0  0  0  0  0  0  0  0
    0.2490   -0.3863    4.8690 H   0  0  0  0  0  0  0  0  0  0  0  0
    0.7830   -1.8185    5.4445 H   0  0  0  0  0  0  0  0  0  0  0  0
   -0.7388   -1.7561    4.6946 H   0  0  0  0  0  0  0  0  0  0  0  0
    0.9971   -1.6304    3.3996 C   0  0  0  0  0  0  0  0  0  0  0  0
    0.6387   -0.9880    2.7016 H   0  0  0  0  0  0  0  0  0  0  0  0
    1.9821   -1.4242    3.5202 H   0  0  0  0  0  0  0  0  0  0  0  0
    0.8552   -3.0238    2.8903 N   0  0  0  0  0  4  0  0  0  0  0  0
    1.3733   -3.6441    3.4768 H   0  0  0  0  0  0  0  0  0  0  0  0
   -0.1100   -3.2826    2.8988 H   0  0  0  0  0  0  0  0  0  0  0  0
    1.2078   -3.0722    1.9561 H   0  0  0  0  0  0  0  0  0  0  0  0
   -0.0000    2.9078   -0.0107 C   0  0  0  0  0  0  0  0  0  0  0  0
    0.8119    3.2150    0.4577 H   0  0  0  0  0  0  0  0  0  0  0  0
   -0.8216    3.2179    0.4398 H   0  0  0  0  0  0  0  0  0  0  0  0
    0.0117    3.3352   -1.0133 H   0  0  0  0  0  0  0  0  0  0  0  0
   -0.0023    1.4010    0.0003 C   0  0  0  0  0  0  0  0  0  0  0  0
   -1.1977    0.6904   -0.0026 C   0  0  0  0  0  0  0  0  0  0  0  0
   -2.0651    1.1811   -0.0076 H   0  0  0  0  0  0  0  0  0  0  0  0
   -1.2016   -0.6979    0.0000 C   0  0  0  0  0  0  0  0  0  0  0  0
   -2.0748   -1.1944    0.0035 H   0  0  0  0  0  0  0  0  0  0  0  0
    0.0041   -1.3915    0.0005 C   0  0  0  0  0  0  0  0  0  0  0  0
   -0.0007   -2.3909    0.0010 H   0  0  0  0  0  0  0  0  0  0  0  0
    1.2016   -0.6957   -0.0000 C   0  0  0  0  0  0  0  0  0  0  0  0
    2.0840   -1.1923    0.0000 H   0  0  0  0  0  0  0  0  0  0  0  0
    1.1959    0.6938    0.0018 C   0  0  0  0  0  0  0  0  0  0  0  0
    2.0625    1.1916    0.0037 H   0  0  0  0  0  0  0  0  0  0  0  0
  1  5  1  0
  5  8  1  0
  1  2  1  0
  1  3  1  0
  1  4  1  0
  5  6  1  0
  5  7  1  0
  8  9  1  0
  8 10  1  0
  8 11  1  0
 12 16  1  0
 16 17  2  0
 17 19  1  0
 19 21  2  0
 21 23  1  0
 23 25  2  0
 25 16  1  0
 12 13  1  0
 12 14  1  0
 12 15  1  0
 17 18  1  0
 19 20  1  0
 21 22  1  0
 23 24  1  0
 25 26  1  0
M  CHG  1   8   1
M  END
>  <PDB_ID>  (2895) 
pdb5cad

>  <RESIDUE_NAME>  (2895) 
LYS   PHE

>  <FRAG_NAME>  (2895) 
ETAM   MBZ

>  <FRAG_ATOM_NUM>  (2895) 
fragi: 11  fragj: 15

>  <atom.prop.CHAIN_ID>  (2895) 
A A A A A A A A A A A Z Z Z Z Z Z Z Z Z Z Z Z Z Z Z

>  <atom.prop.IS_HEAVY_ATOM>  (2895) 
1 0 0 0 1 0 0 1 0 0 0 1 0 0 0 1 1 0 1 0 1 0 1 0 1 0

>  <DIFUSE_FUNC_ATOM>  (2895) 
n/a

>  <FINAL_SINGLE_POINT_ENERGY>  (2895) 
0

>  <NONCOV_INTER_ENERGY_QM>  (2895) 
0

>  <FF_Energy>  (2895) 
-2.92

>  <QM_Energy>  (2895) 
-9.19

>  <source>  (2895) 
ETAM_MBZ

>  <Index>  (2895) 
31188

$$$$
ETAM-pdb5ca0-C-LYS-163:MBZ-pdb5ca0-E-PHE-93
     RDKit          3D

 26 25  0  0  0  0  0  0  0  0999 V2000
    2.1326    0.0521   -4.2829 C   0  0  0  0  0  0  0  0  0  0  0  0
    2.0779   -0.4605   -5.1048 H   0  0  0  0  0  0  0  0  0  0  0  0
    2.3857   -0.5248   -3.5445 H   0  0  0  0  0  0  0  0  0  0  0  0
    2.8816    0.8354   -4.3983 H   0  0  0  0  0  0  0  0  0  0  0  0
    0.7584    0.6230   -3.9888 C   0  0  0  0  0  0  0  0  0  0  0  0
    0.7960    1.1411   -3.1687 H   0  0  0  0  0  0  0  0  0  0  0  0
    0.4802    1.1848   -4.7283 H   0  0  0  0  0  0  0  0  0  0  0  0
   -0.2534   -0.4543   -3.8134 N   0  0  0  0  0  4  0  0  0  0  0  0
   -1.0506   -0.0978   -3.6422 H   0  0  0  0  0  0  0  0  0  0  0  0
   -0.3089   -0.9425   -4.5556 H   0  0  0  0  0  0  0  0  0  0  0  0
   -0.0211   -0.9828   -3.1358 H   0  0  0  0  0  0  0  0  0  0  0  0
   -0.0003    2.8937    0.0011 C   0  0  0  0  0  0  0  0  0  0  0  0
   -0.6886    3.1907   -0.6161 H   0  0  0  0  0  0  0  0  0  0  0  0
    0.8692    3.1916   -0.3076 H   0  0  0  0  0  0  0  0  0  0  0  0
   -0.1952    3.3301    0.9807 H   0  0  0  0  0  0  0  0  0  0  0  0
   -0.0001    1.3938   -0.0003 C   0  0  0  0  0  0  0  0  0  0  0  0
   -1.1907    0.6878   -0.0003 C   0  0  0  0  0  0  0  0  0  0  0  0
   -1.9979    1.1494   -0.0002 H   0  0  0  0  0  0  0  0  0  0  0  0
   -1.1945   -0.6923    0.0000 C   0  0  0  0  0  0  0  0  0  0  0  0
   -2.0001   -1.1561   -0.0004 H   0  0  0  0  0  0  0  0  0  0  0  0
   -0.0002   -1.3839    0.0000 C   0  0  0  0  0  0  0  0  0  0  0  0
   -0.0008   -2.3142    0.0009 H   0  0  0  0  0  0  0  0  0  0  0  0
    1.1945   -0.6931    0.0000 C   0  0  0  0  0  0  0  0  0  0  0  0
    2.0006   -1.1575    0.0003 H   0  0  0  0  0  0  0  0  0  0  0  0
    1.1911    0.6877    0.0006 C   0  0  0  0  0  0  0  0  0  0  0  0
    1.9992    1.1488    0.0012 H   0  0  0  0  0  0  0  0  0  0  0  0
  1  5  1  0
  5  8  1  0
  1  2  1  0
  1  3  1  0
  1  4  1  0
  5  6  1  0
  5  7  1  0
  8  9  1  0
  8 10  1  0
  8 11  1  0
 12 16  1  0
 16 17  2  0
 17 19  1  0
 19 21  2  0
 21 23  1  0
 23 25  2  0
 25 16  1  0
 12 13  1  0
 12 14  1  0
 12 15  1  0
 17 18  1  0
 19 20  1  0
 21 22  1  0
 23 24  1  0
 25 26  1  0
M  CHG  1   8   1
M  END
>  <PDB_ID>  (2896) 
pdb5ca0

>  <RESIDUE_NAME>  (2896) 
LYS   PHE

>  <FRAG_NAME>  (2896) 
ETAM   MBZ

>  <FRAG_ATOM_NUM>  (2896) 
fragi: 11  fragj: 15

>  <atom.prop.CHAIN_ID>  (2896) 
A A A A A A A A A A A Z Z Z Z Z Z Z Z Z Z Z Z Z Z Z

>  <atom.prop.IS_HEAVY_ATOM>  (2896) 
1 0 0 0 1 0 0 1 0 0 0 1 0 0 0 1 1 0 1 0 1 0 1 0 1 0

>  <DIFUSE_FUNC_ATOM>  (2896) 
n/a

>  <FINAL_SINGLE_POINT_ENERGY>  (2896) 
0

>  <NONCOV_INTER_ENERGY_QM>  (2896) 
0

>  <FF_Energy>  (2896) 
-6.72

>  <QM_Energy>  (2896) 
-11.73

>  <source>  (2896) 
ETAM_MBZ

>  <Index>  (2896) 
31190

$$$$
ETAM-pdb5ca1-F-LYS-341:MBZ-pdb5ca1-F-PHE-263
     RDKit          3D

 26 25  0  0  0  0  0  0  0  0999 V2000
    0.9526   -1.6191    4.8477 C   0  0  0  0  0  0  0  0  0  0  0  0
    0.0808   -1.2298    5.1403 H   0  0  0  0  0  0  0  0  0  0  0  0
    1.6818   -1.3020    5.4521 H   0  0  0  0  0  0  0  0  0  0  0  0
    0.8895   -2.7051    4.9171 H   0  0  0  0  0  0  0  0  0  0  0  0
    1.2486   -1.1417    3.4370 C   0  0  0  0  0  0  0  0  0  0  0  0
    2.1033   -1.5596    3.1228 H   0  0  0  0  0  0  0  0  0  0  0  0
    0.5026   -1.4264    2.8317 H   0  0  0  0  0  0  0  0  0  0  0  0
    1.3828    0.3431    3.3801 N   0  0  0  0  0  4  0  0  0  0  0  0
    1.3418    0.7135    4.3067 H   0  0  0  0  0  0  0  0  0  0  0  0
    2.2587    0.5794    2.9625 H   0  0  0  0  0  0  0  0  0  0  0  0
    0.6371    0.7209    2.8330 H   0  0  0  0  0  0  0  0  0  0  0  0
   -0.0051    2.8965   -0.0114 C   0  0  0  0  0  0  0  0  0  0  0  0
    0.8914    3.2081    0.2586 H   0  0  0  0  0  0  0  0  0  0  0  0
   -0.7026    3.2067    0.6141 H   0  0  0  0  0  0  0  0  0  0  0  0
   -0.2246    3.3161   -0.9932 H   0  0  0  0  0  0  0  0  0  0  0  0
   -0.0005    1.3953    0.0030 C   0  0  0  0  0  0  0  0  0  0  0  0
   -1.1920    0.6876   -0.0023 C   0  0  0  0  0  0  0  0  0  0  0  0
   -2.0603    1.1786   -0.0092 H   0  0  0  0  0  0  0  0  0  0  0  0
   -1.1948   -0.6953    0.0000 C   0  0  0  0  0  0  0  0  0  0  0  0
   -2.0727   -1.1916    0.0018 H   0  0  0  0  0  0  0  0  0  0  0  0
    0.0009   -1.3854    0.0021 C   0  0  0  0  0  0  0  0  0  0  0  0
   -0.0013   -2.3872    0.0046 H   0  0  0  0  0  0  0  0  0  0  0  0
    1.1948   -0.6923    0.0000 C   0  0  0  0  0  0  0  0  0  0  0  0
    2.0788   -1.1920    0.0026 H   0  0  0  0  0  0  0  0  0  0  0  0
    1.1916    0.6901   -0.0028 C   0  0  0  0  0  0  0  0  0  0  0  0
    2.0609    1.1882   -0.0099 H   0  0  0  0  0  0  0  0  0  0  0  0
  1  5  1  0
  5  8  1  0
  1  2  1  0
  1  3  1  0
  1  4  1  0
  5  6  1  0
  5  7  1  0
  8  9  1  0
  8 10  1  0
  8 11  1  0
 12 16  1  0
 16 17  2  0
 17 19  1  0
 19 21  2  0
 21 23  1  0
 23 25  2  0
 25 16  1  0
 12 13  1  0
 12 14  1  0
 12 15  1  0
 17 18  1  0
 19 20  1  0
 21 22  1  0
 23 24  1  0
 25 26  1  0
M  CHG  1   8   1
M  END
>  <PDB_ID>  (2897) 
pdb5ca1

>  <RESIDUE_NAME>  (2897) 
LYS   PHE

>  <FRAG_NAME>  (2897) 
ETAM   MBZ

>  <FRAG_ATOM_NUM>  (2897) 
fragi: 11  fragj: 15

>  <atom.prop.CHAIN_ID>  (2897) 
A A A A A A A A A A A Z Z Z Z Z Z Z Z Z Z Z Z Z Z Z

>  <atom.prop.IS_HEAVY_ATOM>  (2897) 
1 0 0 0 1 0 0 1 0 0 0 1 0 0 0 1 1 0 1 0 1 0 1 0 1 0

>  <DIFUSE_FUNC_ATOM>  (2897) 
n/a

>  <FINAL_SINGLE_POINT_ENERGY>  (2897) 
0

>  <NONCOV_INTER_ENERGY_QM>  (2897) 
0

>  <FF_Energy>  (2897) 
-7.05

>  <QM_Energy>  (2897) 
-12.54

>  <source>  (2897) 
ETAM_MBZ

>  <Index>  (2897) 
31194

$$$$
ETAM-pdb5c9b-C-LYS-134:MBZ-pdb5c9b-C-PHE-129
     RDKit          3D

 26 25  0  0  0  0  0  0  0  0999 V2000
   -2.3888   -2.0946   -4.0038 C   0  0  0  0  0  0  0  0  0  0  0  0
   -2.4930   -2.8539   -3.3659 H   0  0  0  0  0  0  0  0  0  0  0  0
   -2.1967   -2.4409   -4.9188 H   0  0  0  0  0  0  0  0  0  0  0  0
   -3.3164   -1.5227   -4.0277 H   0  0  0  0  0  0  0  0  0  0  0  0
   -1.2057   -1.2454   -3.5532 C   0  0  0  0  0  0  0  0  0  0  0  0
   -1.0300   -0.5430   -4.2436 H   0  0  0  0  0  0  0  0  0  0  0  0
   -1.4342   -0.8072   -2.6835 H   0  0  0  0  0  0  0  0  0  0  0  0
    0.0161   -2.0787   -3.3782 N   0  0  0  0  0  4  0  0  0  0  0  0
   -0.0253   -2.8607   -3.9992 H   0  0  0  0  0  0  0  0  0  0  0  0
    0.8246   -1.5283   -3.5850 H   0  0  0  0  0  0  0  0  0  0  0  0
    0.0632   -2.4027   -2.4340 H   0  0  0  0  0  0  0  0  0  0  0  0
   -0.0105    2.9023   -0.0239 C   0  0  0  0  0  0  0  0  0  0  0  0
    0.8997    3.2150    0.1953 H   0  0  0  0  0  0  0  0  0  0  0  0
   -0.6705    3.2118    0.6428 H   0  0  0  0  0  0  0  0  0  0  0  0
   -0.2860    3.3300   -0.9879 H   0  0  0  0  0  0  0  0  0  0  0  0
   -0.0005    1.3869    0.0011 C   0  0  0  0  0  0  0  0  0  0  0  0
   -1.1822    0.6787   -0.0089 C   0  0  0  0  0  0  0  0  0  0  0  0
   -2.0549    1.1749   -0.0238 H   0  0  0  0  0  0  0  0  0  0  0  0
   -1.1886   -0.6910   -0.0000 C   0  0  0  0  0  0  0  0  0  0  0  0
   -2.0703   -1.1876   -0.0009 H   0  0  0  0  0  0  0  0  0  0  0  0
   -0.0046   -1.3761    0.0122 C   0  0  0  0  0  0  0  0  0  0  0  0
   -0.0037   -2.3812    0.0297 H   0  0  0  0  0  0  0  0  0  0  0  0
    1.1886   -0.6868    0.0000 C   0  0  0  0  0  0  0  0  0  0  0  0
    2.0714   -1.1901   -0.0043 H   0  0  0  0  0  0  0  0  0  0  0  0
    1.1872    0.6882   -0.0044 C   0  0  0  0  0  0  0  0  0  0  0  0
    2.0569    1.1872   -0.0130 H   0  0  0  0  0  0  0  0  0  0  0  0
  1  5  1  0
  5  8  1  0
  1  2  1  0
  1  3  1  0
  1  4  1  0
  5  6  1  0
  5  7  1  0
  8  9  1  0
  8 10  1  0
  8 11  1  0
 12 16  1  0
 16 17  2  0
 17 19  1  0
 19 21  2  0
 21 23  1  0
 23 25  2  0
 25 16  1  0
 12 13  1  0
 12 14  1  0
 12 15  1  0
 17 18  1  0
 19 20  1  0
 21 22  1  0
 23 24  1  0
 25 26  1  0
M  CHG  1   8   1
M  END
>  <PDB_ID>  (2898) 
pdb5c9b

>  <RESIDUE_NAME>  (2898) 
LYS   PHE

>  <FRAG_NAME>  (2898) 
ETAM   MBZ

>  <FRAG_ATOM_NUM>  (2898) 
fragi: 11  fragj: 15

>  <atom.prop.CHAIN_ID>  (2898) 
A A A A A A A A A A A Z Z Z Z Z Z Z Z Z Z Z Z Z Z Z

>  <atom.prop.IS_HEAVY_ATOM>  (2898) 
1 0 0 0 1 0 0 1 0 0 0 1 0 0 0 1 1 0 1 0 1 0 1 0 1 0

>  <DIFUSE_FUNC_ATOM>  (2898) 
n/a

>  <FINAL_SINGLE_POINT_ENERGY>  (2898) 
0

>  <NONCOV_INTER_ENERGY_QM>  (2898) 
0

>  <FF_Energy>  (2898) 
-4.92

>  <QM_Energy>  (2898) 
-11.42

>  <source>  (2898) 
ETAM_MBZ

>  <Index>  (2898) 
31202

$$$$
ETAM-pdb6c45-C-LYS-211:MBZ-pdb6c45-C-PHE-206
     RDKit          3D

 26 25  0  0  0  0  0  0  0  0999 V2000
    1.4044    0.5279    4.0357 C   0  0  0  0  0  0  0  0  0  0  0  0
    1.3746    0.1104    4.9356 H   0  0  0  0  0  0  0  0  0  0  0  0
    1.3684    1.5169    4.1058 H   0  0  0  0  0  0  0  0  0  0  0  0
    2.3282    0.2366    3.5360 H   0  0  0  0  0  0  0  0  0  0  0  0
    0.1779    0.0575    3.2474 C   0  0  0  0  0  0  0  0  0  0  0  0
    0.3875    0.1157    2.2612 H   0  0  0  0  0  0  0  0  0  0  0  0
    0.0043   -0.9127    3.4698 H   0  0  0  0  0  0  0  0  0  0  0  0
   -1.0646    0.8482    3.5267 N   0  0  0  0  0  4  0  0  0  0  0  0
   -1.1430    0.9954    4.5106 H   0  0  0  0  0  0  0  0  0  0  0  0
   -1.0052    1.7264    3.0557 H   0  0  0  0  0  0  0  0  0  0  0  0
   -1.8565    0.3389    3.1955 H   0  0  0  0  0  0  0  0  0  0  0  0
    0.0106    2.8859   -0.0005 C   0  0  0  0  0  0  0  0  0  0  0  0
    0.9251    3.1902   -0.2315 H   0  0  0  0  0  0  0  0  0  0  0  0
   -0.2491    3.1959    0.9039 H   0  0  0  0  0  0  0  0  0  0  0  0
   -0.6798    3.3323   -0.7162 H   0  0  0  0  0  0  0  0  0  0  0  0
    0.0006    1.3954   -0.0028 C   0  0  0  0  0  0  0  0  0  0  0  0
   -1.1936    0.6963    0.0019 C   0  0  0  0  0  0  0  0  0  0  0  0
   -2.0595    1.1878    0.0061 H   0  0  0  0  0  0  0  0  0  0  0  0
   -1.1993   -0.6904   -0.0000 C   0  0  0  0  0  0  0  0  0  0  0  0
   -2.0770   -1.1845   -0.0031 H   0  0  0  0  0  0  0  0  0  0  0  0
   -0.0001   -1.3906    0.0041 C   0  0  0  0  0  0  0  0  0  0  0  0
   -0.0086   -2.3898    0.0097 H   0  0  0  0  0  0  0  0  0  0  0  0
    1.1993   -0.6986   -0.0000 C   0  0  0  0  0  0  0  0  0  0  0  0
    2.0805   -1.1973    0.0007 H   0  0  0  0  0  0  0  0  0  0  0  0
    1.1930    0.6880   -0.0031 C   0  0  0  0  0  0  0  0  0  0  0  0
    2.0629    1.1857   -0.0071 H   0  0  0  0  0  0  0  0  0  0  0  0
  1  5  1  0
  5  8  1  0
  1  2  1  0
  1  3  1  0
  1  4  1  0
  5  6  1  0
  5  7  1  0
  8  9  1  0
  8 10  1  0
  8 11  1  0
 12 16  1  0
 16 17  2  0
 17 19  1  0
 19 21  2  0
 21 23  1  0
 23 25  2  0
 25 16  1  0
 12 13  1  0
 12 14  1  0
 12 15  1  0
 17 18  1  0
 19 20  1  0
 21 22  1  0
 23 24  1  0
 25 26  1  0
M  CHG  1   8   1
M  END
>  <PDB_ID>  (2899) 
pdb6c45

>  <RESIDUE_NAME>  (2899) 
LYS   PHE

>  <FRAG_NAME>  (2899) 
ETAM   MBZ

>  <FRAG_ATOM_NUM>  (2899) 
fragi: 11  fragj: 15

>  <atom.prop.CHAIN_ID>  (2899) 
A A A A A A A A A A A Z Z Z Z Z Z Z Z Z Z Z Z Z Z Z

>  <atom.prop.IS_HEAVY_ATOM>  (2899) 
1 0 0 0 1 0 0 1 0 0 0 1 0 0 0 1 1 0 1 0 1 0 1 0 1 0

>  <DIFUSE_FUNC_ATOM>  (2899) 
n/a

>  <FINAL_SINGLE_POINT_ENERGY>  (2899) 
0

>  <NONCOV_INTER_ENERGY_QM>  (2899) 
0

>  <FF_Energy>  (2899) 
-4.61

>  <QM_Energy>  (2899) 
-11.98

>  <source>  (2899) 
ETAM_MBZ

>  <Index>  (2899) 
31210

$$$$
ETAM-pdb6c46-D-LYS-33:MBZ-pdb6c46-C-PHE-137
     RDKit          3D

 26 25  0  0  0  0  0  0  0  0999 V2000
    0.5924   -0.8573    4.5461 C   0  0  0  0  0  0  0  0  0  0  0  0
   -0.1553   -0.2360    4.3246 H   0  0  0  0  0  0  0  0  0  0  0  0
    0.9647   -0.6374    5.4436 H   0  0  0  0  0  0  0  0  0  0  0  0
    0.1982   -1.8731    4.5753 H   0  0  0  0  0  0  0  0  0  0  0  0
    1.6888   -0.6962    3.5084 C   0  0  0  0  0  0  0  0  0  0  0  0
    2.4587   -1.3028    3.7445 H   0  0  0  0  0  0  0  0  0  0  0  0
    1.3344   -0.9758    2.6073 H   0  0  0  0  0  0  0  0  0  0  0  0
    2.2028    0.7128    3.4042 N   0  0  0  0  0  4  0  0  0  0  0  0
    3.1897    0.6879    3.2674 H   0  0  0  0  0  0  0  0  0  0  0  0
    1.7632    1.1613    2.6296 H   0  0  0  0  0  0  0  0  0  0  0  0
    1.9874    1.1993    4.2472 H   0  0  0  0  0  0  0  0  0  0  0  0
   -0.0199    2.9060   -0.0266 C   0  0  0  0  0  0  0  0  0  0  0  0
    0.8906    3.2295    0.1523 H   0  0  0  0  0  0  0  0  0  0  0  0
   -0.6665    3.2198    0.6440 H   0  0  0  0  0  0  0  0  0  0  0  0
   -0.3284    3.2979   -0.9958 H   0  0  0  0  0  0  0  0  0  0  0  0
   -0.0008    1.4065    0.0045 C   0  0  0  0  0  0  0  0  0  0  0  0
   -1.1979    0.6973    0.0027 C   0  0  0  0  0  0  0  0  0  0  0  0
   -2.0653    1.1830    0.0023 H   0  0  0  0  0  0  0  0  0  0  0  0
   -1.2041   -0.7048    0.0000 C   0  0  0  0  0  0  0  0  0  0  0  0
   -2.0780   -1.1944    0.0016 H   0  0  0  0  0  0  0  0  0  0  0  0
    0.0035   -1.3996   -0.0030 C   0  0  0  0  0  0  0  0  0  0  0  0
    0.0003   -2.3984   -0.0080 H   0  0  0  0  0  0  0  0  0  0  0  0
    1.2041   -0.7010    0.0000 C   0  0  0  0  0  0  0  0  0  0  0  0
    2.0871   -1.1903    0.0070 H   0  0  0  0  0  0  0  0  0  0  0  0
    1.1952    0.7016   -0.0041 C   0  0  0  0  0  0  0  0  0  0  0  0
    2.0650    1.1938   -0.0138 H   0  0  0  0  0  0  0  0  0  0  0  0
  1  5  1  0
  5  8  1  0
  1  2  1  0
  1  3  1  0
  1  4  1  0
  5  6  1  0
  5  7  1  0
  8  9  1  0
  8 10  1  0
  8 11  1  0
 12 16  1  0
 16 17  2  0
 17 19  1  0
 19 21  2  0
 21 23  1  0
 23 25  2  0
 25 16  1  0
 12 13  1  0
 12 14  1  0
 12 15  1  0
 17 18  1  0
 19 20  1  0
 21 22  1  0
 23 24  1  0
 25 26  1  0
M  CHG  1   8   1
M  END
>  <PDB_ID>  (2900) 
pdb6c46

>  <RESIDUE_NAME>  (2900) 
LYS   PHE

>  <FRAG_NAME>  (2900) 
ETAM   MBZ

>  <FRAG_ATOM_NUM>  (2900) 
fragi: 11  fragj: 15

>  <atom.prop.CHAIN_ID>  (2900) 
A A A A A A A A A A A Z Z Z Z Z Z Z Z Z Z Z Z Z Z Z

>  <atom.prop.IS_HEAVY_ATOM>  (2900) 
1 0 0 0 1 0 0 1 0 0 0 1 0 0 0 1 1 0 1 0 1 0 1 0 1 0

>  <DIFUSE_FUNC_ATOM>  (2900) 
n/a

>  <FINAL_SINGLE_POINT_ENERGY>  (2900) 
0

>  <NONCOV_INTER_ENERGY_QM>  (2900) 
0

>  <FF_Energy>  (2900) 
-5.06

>  <QM_Energy>  (2900) 
-10.91

>  <source>  (2900) 
ETAM_MBZ

>  <Index>  (2900) 
31212

$$$$
ETAM-pdb5cb4-C-LYS-163:MBZ-pdb5cb4-E-PHE-93
     RDKit          3D

 26 25  0  0  0  0  0  0  0  0999 V2000
    2.5727    0.0989   -4.1159 C   0  0  0  0  0  0  0  0  0  0  0  0
    2.4690   -0.3233   -4.9834 H   0  0  0  0  0  0  0  0  0  0  0  0
    2.8335   -0.5600   -3.4533 H   0  0  0  0  0  0  0  0  0  0  0  0
    3.3448    0.8655   -4.1817 H   0  0  0  0  0  0  0  0  0  0  0  0
    1.2311    0.6744   -3.7071 C   0  0  0  0  0  0  0  0  0  0  0  0
    1.3443    1.2308   -2.9205 H   0  0  0  0  0  0  0  0  0  0  0  0
    0.8655    1.1932   -4.4405 H   0  0  0  0  0  0  0  0  0  0  0  0
    0.2739   -0.4170   -3.3795 N   0  0  0  0  0  4  0  0  0  0  0  0
   -0.5110   -0.0712   -3.1404 H   0  0  0  0  0  0  0  0  0  0  0  0
    0.1555   -0.9400   -4.0890 H   0  0  0  0  0  0  0  0  0  0  0  0
    0.5912   -0.9070   -2.7081 H   0  0  0  0  0  0  0  0  0  0  0  0
    0.0004    2.8931    0.0013 C   0  0  0  0  0  0  0  0  0  0  0  0
   -0.6676    3.1904   -0.6374 H   0  0  0  0  0  0  0  0  0  0  0  0
    0.8791    3.1896   -0.2804 H   0  0  0  0  0  0  0  0  0  0  0  0
   -0.2244    3.3301    0.9742 H   0  0  0  0  0  0  0  0  0  0  0  0
    0.0001    1.3932   -0.0002 C   0  0  0  0  0  0  0  0  0  0  0  0
   -1.1915    0.6885   -0.0010 C   0  0  0  0  0  0  0  0  0  0  0  0
   -1.9993    1.1499   -0.0010 H   0  0  0  0  0  0  0  0  0  0  0  0
   -1.1948   -0.6925    0.0000 C   0  0  0  0  0  0  0  0  0  0  0  0
   -2.0016   -1.1569   -0.0007 H   0  0  0  0  0  0  0  0  0  0  0  0
    0.0002   -1.3844    0.0009 C   0  0  0  0  0  0  0  0  0  0  0  0
    0.0007   -2.3150   -0.0003 H   0  0  0  0  0  0  0  0  0  0  0  0
    1.1948   -0.6923    0.0000 C   0  0  0  0  0  0  0  0  0  0  0  0
    2.0006   -1.1567    0.0005 H   0  0  0  0  0  0  0  0  0  0  0  0
    1.1912    0.6874    0.0004 C   0  0  0  0  0  0  0  0  0  0  0  0
    1.9985    1.1497    0.0006 H   0  0  0  0  0  0  0  0  0  0  0  0
  1  5  1  0
  5  8  1  0
  1  2  1  0
  1  3  1  0
  1  4  1  0
  5  6  1  0
  5  7  1  0
  8  9  1  0
  8 10  1  0
  8 11  1  0
 12 16  1  0
 16 17  2  0
 17 19  1  0
 19 21  2  0
 21 23  1  0
 23 25  2  0
 25 16  1  0
 12 13  1  0
 12 14  1  0
 12 15  1  0
 17 18  1  0
 19 20  1  0
 21 22  1  0
 23 24  1  0
 25 26  1  0
M  CHG  1   8   1
M  END
>  <PDB_ID>  (2901) 
pdb5cb4

>  <RESIDUE_NAME>  (2901) 
LYS   PHE

>  <FRAG_NAME>  (2901) 
ETAM   MBZ

>  <FRAG_ATOM_NUM>  (2901) 
fragi: 11  fragj: 15

>  <atom.prop.CHAIN_ID>  (2901) 
A A A A A A A A A A A Z Z Z Z Z Z Z Z Z Z Z Z Z Z Z

>  <atom.prop.IS_HEAVY_ATOM>  (2901) 
1 0 0 0 1 0 0 1 0 0 0 1 0 0 0 1 1 0 1 0 1 0 1 0 1 0

>  <DIFUSE_FUNC_ATOM>  (2901) 
n/a

>  <FINAL_SINGLE_POINT_ENERGY>  (2901) 
0

>  <NONCOV_INTER_ENERGY_QM>  (2901) 
0

>  <FF_Energy>  (2901) 
-8.18

>  <QM_Energy>  (2901) 
-15.01

>  <source>  (2901) 
ETAM_MBZ

>  <Index>  (2901) 
31221

$$$$
ETAM-pdb6c6n-A-LYS-399:MBZ-pdb6c6n-A-PHE-448
     RDKit          3D

 26 25  0  0  0  0  0  0  0  0999 V2000
   -4.5494   -3.4663   -2.0242 C   0  0  0  0  0  0  0  0  0  0  0  0
   -4.8631   -4.0441   -1.2785 H   0  0  0  0  0  0  0  0  0  0  0  0
   -5.0089   -3.7106   -2.8712 H   0  0  0  0  0  0  0  0  0  0  0  0
   -4.7751   -2.4270   -1.7853 H   0  0  0  0  0  0  0  0  0  0  0  0
   -3.0504   -3.6843   -2.2073 C   0  0  0  0  0  0  0  0  0  0  0  0
   -2.9086   -4.4927   -2.7873 H   0  0  0  0  0  0  0  0  0  0  0  0
   -2.6611   -2.8828   -2.6727 H   0  0  0  0  0  0  0  0  0  0  0  0
   -2.3403   -3.8862   -0.9083 N   0  0  0  0  0  4  0  0  0  0  0  0
   -2.9442   -4.3671   -0.2752 H   0  0  0  0  0  0  0  0  0  0  0  0
   -1.5157   -4.4280   -1.0648 H   0  0  0  0  0  0  0  0  0  0  0  0
   -2.0923   -2.9973   -0.5278 H   0  0  0  0  0  0  0  0  0  0  0  0
   -0.0020    2.8980   -0.0035 C   0  0  0  0  0  0  0  0  0  0  0  0
   -0.6991    3.2020   -0.6347 H   0  0  0  0  0  0  0  0  0  0  0  0
    0.8955    3.2037   -0.2831 H   0  0  0  0  0  0  0  0  0  0  0  0
   -0.2168    3.3394    0.9697 H   0  0  0  0  0  0  0  0  0  0  0  0
   -0.0013    1.3944   -0.0008 C   0  0  0  0  0  0  0  0  0  0  0  0
   -1.1916    0.6879   -0.0004 C   0  0  0  0  0  0  0  0  0  0  0  0
   -2.0605    1.1799   -0.0017 H   0  0  0  0  0  0  0  0  0  0  0  0
   -1.1937   -0.6927    0.0000 C   0  0  0  0  0  0  0  0  0  0  0  0
   -2.0718   -1.1905    0.0004 H   0  0  0  0  0  0  0  0  0  0  0  0
    0.0015   -1.3839    0.0014 C   0  0  0  0  0  0  0  0  0  0  0  0
   -0.0042   -2.3864    0.0031 H   0  0  0  0  0  0  0  0  0  0  0  0
    1.1937   -0.6947   -0.0000 C   0  0  0  0  0  0  0  0  0  0  0  0
    2.0785   -1.1939    0.0004 H   0  0  0  0  0  0  0  0  0  0  0  0
    1.1913    0.6889   -0.0002 C   0  0  0  0  0  0  0  0  0  0  0  0
    2.0607    1.1864   -0.0009 H   0  0  0  0  0  0  0  0  0  0  0  0
  1  5  1  0
  5  8  1  0
  1  2  1  0
  1  3  1  0
  1  4  1  0
  5  6  1  0
  5  7  1  0
  8  9  1  0
  8 10  1  0
  8 11  1  0
 12 16  1  0
 16 17  2  0
 17 19  1  0
 19 21  2  0
 21 23  1  0
 23 25  2  0
 25 16  1  0
 12 13  1  0
 12 14  1  0
 12 15  1  0
 17 18  1  0
 19 20  1  0
 21 22  1  0
 23 24  1  0
 25 26  1  0
M  CHG  1   8   1
M  END
>  <PDB_ID>  (2902) 
pdb6c6n

>  <RESIDUE_NAME>  (2902) 
LYS   PHE

>  <FRAG_NAME>  (2902) 
ETAM   MBZ

>  <FRAG_ATOM_NUM>  (2902) 
fragi: 11  fragj: 15

>  <atom.prop.CHAIN_ID>  (2902) 
A A A A A A A A A A A Z Z Z Z Z Z Z Z Z Z Z Z Z Z Z

>  <atom.prop.IS_HEAVY_ATOM>  (2902) 
1 0 0 0 1 0 0 1 0 0 0 1 0 0 0 1 1 0 1 0 1 0 1 0 1 0

>  <DIFUSE_FUNC_ATOM>  (2902) 
n/a

>  <FINAL_SINGLE_POINT_ENERGY>  (2902) 
0

>  <NONCOV_INTER_ENERGY_QM>  (2902) 
0

>  <FF_Energy>  (2902) 
1.01

>  <QM_Energy>  (2902) 
-5.14

>  <source>  (2902) 
ETAM_MBZ

>  <Index>  (2902) 
31243

$$$$
ETAM-pdb5cej-A-LYS-6:MBZ-pdb5cej-A-PHE-130
     RDKit          3D

 26 25  0  0  0  0  0  0  0  0999 V2000
    3.3896   -1.8348   -2.9277 C   0  0  0  0  0  0  0  0  0  0  0  0
    3.2236   -2.2492   -2.0662 H   0  0  0  0  0  0  0  0  0  0  0  0
    4.0824   -1.1597   -2.8478 H   0  0  0  0  0  0  0  0  0  0  0  0
    3.7103   -2.5969   -3.6379 H   0  0  0  0  0  0  0  0  0  0  0  0
    2.1083   -1.1497   -3.3812 C   0  0  0  0  0  0  0  0  0  0  0  0
    1.8057   -0.5479   -2.6831 H   0  0  0  0  0  0  0  0  0  0  0  0
    2.2842   -0.6547   -4.1961 H   0  0  0  0  0  0  0  0  0  0  0  0
    1.0194   -2.1226   -3.6568 N   0  0  0  0  0  4  0  0  0  0  0  0
    0.2861   -1.6911   -3.9193 H   0  0  0  0  0  0  0  0  0  0  0  0
    1.2699   -2.6845   -4.2993 H   0  0  0  0  0  0  0  0  0  0  0  0
    0.8331   -2.5878   -2.9213 H   0  0  0  0  0  0  0  0  0  0  0  0
   -0.0035    2.8990    0.0116 C   0  0  0  0  0  0  0  0  0  0  0  0
   -0.7834    3.1998   -0.4794 H   0  0  0  0  0  0  0  0  0  0  0  0
    0.8032    3.2028   -0.4318 H   0  0  0  0  0  0  0  0  0  0  0  0
   -0.0340    3.3218    1.0158 H   0  0  0  0  0  0  0  0  0  0  0  0
   -0.0005    1.3945   -0.0027 C   0  0  0  0  0  0  0  0  0  0  0  0
   -1.1904    0.6890    0.0025 C   0  0  0  0  0  0  0  0  0  0  0  0
   -1.9980    1.1499    0.0036 H   0  0  0  0  0  0  0  0  0  0  0  0
   -1.1931   -0.6917    0.0000 C   0  0  0  0  0  0  0  0  0  0  0  0
   -1.9995   -1.1550   -0.0004 H   0  0  0  0  0  0  0  0  0  0  0  0
   -0.0007   -1.3843   -0.0007 C   0  0  0  0  0  0  0  0  0  0  0  0
   -0.0029   -2.3146   -0.0036 H   0  0  0  0  0  0  0  0  0  0  0  0
    1.1931   -0.6947   -0.0000 C   0  0  0  0  0  0  0  0  0  0  0  0
    1.9987   -1.1599   -0.0017 H   0  0  0  0  0  0  0  0  0  0  0  0
    1.1915    0.6872    0.0009 C   0  0  0  0  0  0  0  0  0  0  0  0
    1.9996    1.1482    0.0026 H   0  0  0  0  0  0  0  0  0  0  0  0
  1  5  1  0
  5  8  1  0
  1  2  1  0
  1  3  1  0
  1  4  1  0
  5  6  1  0
  5  7  1  0
  8  9  1  0
  8 10  1  0
  8 11  1  0
 12 16  1  0
 16 17  2  0
 17 19  1  0
 19 21  2  0
 21 23  1  0
 23 25  2  0
 25 16  1  0
 12 13  1  0
 12 14  1  0
 12 15  1  0
 17 18  1  0
 19 20  1  0
 21 22  1  0
 23 24  1  0
 25 26  1  0
M  CHG  1   8   1
M  END
>  <PDB_ID>  (2903) 
pdb5cej

>  <RESIDUE_NAME>  (2903) 
LYS   PHE

>  <FRAG_NAME>  (2903) 
ETAM   MBZ

>  <FRAG_ATOM_NUM>  (2903) 
fragi: 11  fragj: 15

>  <atom.prop.CHAIN_ID>  (2903) 
A A A A A A A A A A A Z Z Z Z Z Z Z Z Z Z Z Z Z Z Z

>  <atom.prop.IS_HEAVY_ATOM>  (2903) 
1 0 0 0 1 0 0 1 0 0 0 1 0 0 0 1 1 0 1 0 1 0 1 0 1 0

>  <DIFUSE_FUNC_ATOM>  (2903) 
n/a

>  <FINAL_SINGLE_POINT_ENERGY>  (2903) 
0

>  <NONCOV_INTER_ENERGY_QM>  (2903) 
0

>  <FF_Energy>  (2903) 
-3.95

>  <QM_Energy>  (2903) 
-8.97

>  <source>  (2903) 
ETAM_MBZ

>  <Index>  (2903) 
31272

$$$$
ETAM-pdb5bon-F-LYS-33:MBZ-pdb5bon-F-PHE-43
     RDKit          3D

 26 25  0  0  0  0  0  0  0  0999 V2000
   -1.1279   -1.8644   -5.0264 C   0  0  0  0  0  0  0  0  0  0  0  0
   -1.9713   -2.3266   -5.3131 H   0  0  0  0  0  0  0  0  0  0  0  0
   -0.4297   -1.9910   -5.7353 H   0  0  0  0  0  0  0  0  0  0  0  0
   -1.3378   -0.7981   -4.9415 H   0  0  0  0  0  0  0  0  0  0  0  0
   -0.6387   -2.4914   -3.7401 C   0  0  0  0  0  0  0  0  0  0  0  0
   -1.3207   -2.3288   -3.0167 H   0  0  0  0  0  0  0  0  0  0  0  0
   -0.5512   -3.4857   -3.8735 H   0  0  0  0  0  0  0  0  0  0  0  0
    0.6671   -1.9420   -3.3099 N   0  0  0  0  0  4  0  0  0  0  0  0
    1.2920   -1.9115   -4.0907 H   0  0  0  0  0  0  0  0  0  0  0  0
    0.5392   -1.0167   -2.9508 H   0  0  0  0  0  0  0  0  0  0  0  0
    1.0570   -2.5237   -2.5954 H   0  0  0  0  0  0  0  0  0  0  0  0
   -0.0121    2.8963   -0.0018 C   0  0  0  0  0  0  0  0  0  0  0  0
    0.8716    3.2090    0.3117 H   0  0  0  0  0  0  0  0  0  0  0  0
   -0.7355    3.1972    0.6006 H   0  0  0  0  0  0  0  0  0  0  0  0
   -0.1920    3.3341   -0.9837 H   0  0  0  0  0  0  0  0  0  0  0  0
   -0.0010    1.3945   -0.0024 C   0  0  0  0  0  0  0  0  0  0  0  0
   -1.1906    0.6877    0.0014 C   0  0  0  0  0  0  0  0  0  0  0  0
   -2.0597    1.1793    0.0038 H   0  0  0  0  0  0  0  0  0  0  0  0
   -1.1950   -0.6955    0.0000 C   0  0  0  0  0  0  0  0  0  0  0  0
   -2.0736   -1.1911   -0.0011 H   0  0  0  0  0  0  0  0  0  0  0  0
   -0.0001   -1.3860    0.0019 C   0  0  0  0  0  0  0  0  0  0  0  0
   -0.0026   -2.3880    0.0039 H   0  0  0  0  0  0  0  0  0  0  0  0
    1.1950   -0.6924    0.0000 C   0  0  0  0  0  0  0  0  0  0  0  0
    2.0782   -1.1917    0.0001 H   0  0  0  0  0  0  0  0  0  0  0  0
    1.1917    0.6917   -0.0009 C   0  0  0  0  0  0  0  0  0  0  0  0
    2.0602    1.1890   -0.0018 H   0  0  0  0  0  0  0  0  0  0  0  0
  1  5  1  0
  5  8  1  0
  1  2  1  0
  1  3  1  0
  1  4  1  0
  5  6  1  0
  5  7  1  0
  8  9  1  0
  8 10  1  0
  8 11  1  0
 12 16  1  0
 16 17  2  0
 17 19  1  0
 19 21  2  0
 21 23  1  0
 23 25  2  0
 25 16  1  0
 12 13  1  0
 12 14  1  0
 12 15  1  0
 17 18  1  0
 19 20  1  0
 21 22  1  0
 23 24  1  0
 25 26  1  0
M  CHG  1   8   1
M  END
>  <PDB_ID>  (2904) 
pdb5bon

>  <RESIDUE_NAME>  (2904) 
LYS   PHE

>  <FRAG_NAME>  (2904) 
ETAM   MBZ

>  <FRAG_ATOM_NUM>  (2904) 
fragi: 11  fragj: 15

>  <atom.prop.CHAIN_ID>  (2904) 
A A A A A A A A A A A Z Z Z Z Z Z Z Z Z Z Z Z Z Z Z

>  <atom.prop.IS_HEAVY_ATOM>  (2904) 
1 0 0 0 1 0 0 1 0 0 0 1 0 0 0 1 1 0 1 0 1 0 1 0 1 0

>  <DIFUSE_FUNC_ATOM>  (2904) 
n/a

>  <FINAL_SINGLE_POINT_ENERGY>  (2904) 
0

>  <NONCOV_INTER_ENERGY_QM>  (2904) 
0

>  <FF_Energy>  (2904) 
-5.11

>  <QM_Energy>  (2904) 
-11.22

>  <source>  (2904) 
ETAM_MBZ

>  <Index>  (2904) 
31289

$$$$
ETAM-pdb6ca8-A-LYS-953:MBZ-pdb6ca8-A-PHE-887
     RDKit          3D

 26 25  0  0  0  0  0  0  0  0999 V2000
   -4.3149   -4.7337   -1.6719 C   0  0  0  0  0  0  0  0  0  0  0  0
   -5.0589   -4.0685   -1.8468 H   0  0  0  0  0  0  0  0  0  0  0  0
   -4.2820   -4.8961   -0.6725 H   0  0  0  0  0  0  0  0  0  0  0  0
   -4.5757   -5.6720   -2.1615 H   0  0  0  0  0  0  0  0  0  0  0  0
   -3.0075   -4.1167   -2.1012 C   0  0  0  0  0  0  0  0  0  0  0  0
   -2.2573   -4.7106   -1.8367 H   0  0  0  0  0  0  0  0  0  0  0  0
   -3.0123   -3.9770   -3.0846 H   0  0  0  0  0  0  0  0  0  0  0  0
   -2.8465   -2.7955   -1.4227 N   0  0  0  0  0  4  0  0  0  0  0  0
   -2.2034   -2.8910   -0.6644 H   0  0  0  0  0  0  0  0  0  0  0  0
   -2.4966   -2.1295   -2.0792 H   0  0  0  0  0  0  0  0  0  0  0  0
   -3.7331   -2.4938   -1.0767 H   0  0  0  0  0  0  0  0  0  0  0  0
   -0.0069    2.8954    0.0167 C   0  0  0  0  0  0  0  0  0  0  0  0
   -0.7037    3.2076   -0.6076 H   0  0  0  0  0  0  0  0  0  0  0  0
    0.8893    3.2096   -0.2483 H   0  0  0  0  0  0  0  0  0  0  0  0
   -0.2289    3.3061    1.0017 H   0  0  0  0  0  0  0  0  0  0  0  0
   -0.0007    1.3960   -0.0047 C   0  0  0  0  0  0  0  0  0  0  0  0
   -1.1923    0.6882    0.0035 C   0  0  0  0  0  0  0  0  0  0  0  0
   -2.0611    1.1789    0.0109 H   0  0  0  0  0  0  0  0  0  0  0  0
   -1.1959   -0.6967   -0.0000 C   0  0  0  0  0  0  0  0  0  0  0  0
   -2.0739   -1.1912   -0.0009 H   0  0  0  0  0  0  0  0  0  0  0  0
   -0.0009   -1.3863   -0.0006 C   0  0  0  0  0  0  0  0  0  0  0  0
   -0.0014   -2.3881   -0.0016 H   0  0  0  0  0  0  0  0  0  0  0  0
    1.1959   -0.6918    0.0000 C   0  0  0  0  0  0  0  0  0  0  0  0
    2.0787   -1.1933    0.0003 H   0  0  0  0  0  0  0  0  0  0  0  0
    1.1939    0.6906    0.0018 C   0  0  0  0  0  0  0  0  0  0  0  0
    2.0620    1.1890    0.0071 H   0  0  0  0  0  0  0  0  0  0  0  0
  1  5  1  0
  5  8  1  0
  1  2  1  0
  1  3  1  0
  1  4  1  0
  5  6  1  0
  5  7  1  0
  8  9  1  0
  8 10  1  0
  8 11  1  0
 12 16  1  0
 16 17  2  0
 17 19  1  0
 19 21  2  0
 21 23  1  0
 23 25  2  0
 25 16  1  0
 12 13  1  0
 12 14  1  0
 12 15  1  0
 17 18  1  0
 19 20  1  0
 21 22  1  0
 23 24  1  0
 25 26  1  0
M  CHG  1   8   1
M  END
>  <PDB_ID>  (2905) 
pdb6ca8

>  <RESIDUE_NAME>  (2905) 
LYS   PHE

>  <FRAG_NAME>  (2905) 
ETAM   MBZ

>  <FRAG_ATOM_NUM>  (2905) 
fragi: 11  fragj: 15

>  <atom.prop.CHAIN_ID>  (2905) 
A A A A A A A A A A A Z Z Z Z Z Z Z Z Z Z Z Z Z Z Z

>  <atom.prop.IS_HEAVY_ATOM>  (2905) 
1 0 0 0 1 0 0 1 0 0 0 1 0 0 0 1 1 0 1 0 1 0 1 0 1 0

>  <DIFUSE_FUNC_ATOM>  (2905) 
n/a

>  <FINAL_SINGLE_POINT_ENERGY>  (2905) 
0

>  <NONCOV_INTER_ENERGY_QM>  (2905) 
0

>  <FF_Energy>  (2905) 
5.26

>  <QM_Energy>  (2905) 
-3.4

>  <source>  (2905) 
ETAM_MBZ

>  <Index>  (2905) 
31350

$$$$
ETAM-pdb5cjz-A-LYS-122:MBZ-pdb5cjz-A-PHE-50
     RDKit          3D

 26 25  0  0  0  0  0  0  0  0999 V2000
    4.1496   -2.5438    0.2475 C   0  0  0  0  0  0  0  0  0  0  0  0
    3.2507   -2.2137    0.5141 H   0  0  0  0  0  0  0  0  0  0  0  0
    4.6972   -1.8025   -0.1227 H   0  0  0  0  0  0  0  0  0  0  0  0
    4.6513   -2.9482    1.1266 H   0  0  0  0  0  0  0  0  0  0  0  0
    3.9753   -3.6044   -0.8342 C   0  0  0  0  0  0  0  0  0  0  0  0
    4.8846   -3.8534   -1.1932 H   0  0  0  0  0  0  0  0  0  0  0  0
    3.5680   -4.4280   -0.4181 H   0  0  0  0  0  0  0  0  0  0  0  0
    3.1121   -3.1564   -1.9680 N   0  0  0  0  0  4  0  0  0  0  0  0
    3.6888   -2.9413   -2.7548 H   0  0  0  0  0  0  0  0  0  0  0  0
    2.4765   -3.8886   -2.2066 H   0  0  0  0  0  0  0  0  0  0  0  0
    2.6020   -2.3436   -1.6918 H   0  0  0  0  0  0  0  0  0  0  0  0
    0.0271    2.9164    0.0123 C   0  0  0  0  0  0  0  0  0  0  0  0
    0.7395    3.2141   -0.6107 H   0  0  0  0  0  0  0  0  0  0  0  0
    0.2246    3.2062    0.9401 H   0  0  0  0  0  0  0  0  0  0  0  0
   -0.9022    3.3969   -0.2937 H   0  0  0  0  0  0  0  0  0  0  0  0
   -0.0015    1.4045   -0.0044 C   0  0  0  0  0  0  0  0  0  0  0  0
   -1.1923    0.6970    0.0045 C   0  0  0  0  0  0  0  0  0  0  0  0
   -2.0623    1.1810    0.0126 H   0  0  0  0  0  0  0  0  0  0  0  0
   -1.1941   -0.6996    0.0000 C   0  0  0  0  0  0  0  0  0  0  0  0
   -2.0716   -1.1910   -0.0022 H   0  0  0  0  0  0  0  0  0  0  0  0
    0.0053   -1.3923   -0.0001 C   0  0  0  0  0  0  0  0  0  0  0  0
   -0.0011   -2.3927   -0.0005 H   0  0  0  0  0  0  0  0  0  0  0  0
    1.1941   -0.6993    0.0000 C   0  0  0  0  0  0  0  0  0  0  0  0
    2.0812   -1.1927    0.0020 H   0  0  0  0  0  0  0  0  0  0  0  0
    1.1885    0.6897   -0.0001 C   0  0  0  0  0  0  0  0  0  0  0  0
    2.0616    1.1853    0.0020 H   0  0  0  0  0  0  0  0  0  0  0  0
  1  5  1  0
  5  8  1  0
  1  2  1  0
  1  3  1  0
  1  4  1  0
  5  6  1  0
  5  7  1  0
  8  9  1  0
  8 10  1  0
  8 11  1  0
 12 16  1  0
 16 17  2  0
 17 19  1  0
 19 21  2  0
 21 23  1  0
 23 25  2  0
 25 16  1  0
 12 13  1  0
 12 14  1  0
 12 15  1  0
 17 18  1  0
 19 20  1  0
 21 22  1  0
 23 24  1  0
 25 26  1  0
M  CHG  1   8   1
M  END
>  <PDB_ID>  (2906) 
pdb5cjz

>  <RESIDUE_NAME>  (2906) 
LYS   PHE

>  <FRAG_NAME>  (2906) 
ETAM   MBZ

>  <FRAG_ATOM_NUM>  (2906) 
fragi: 11  fragj: 15

>  <atom.prop.CHAIN_ID>  (2906) 
A A A A A A A A A A A Z Z Z Z Z Z Z Z Z Z Z Z Z Z Z

>  <atom.prop.IS_HEAVY_ATOM>  (2906) 
1 0 0 0 1 0 0 1 0 0 0 1 0 0 0 1 1 0 1 0 1 0 1 0 1 0

>  <DIFUSE_FUNC_ATOM>  (2906) 
n/a

>  <FINAL_SINGLE_POINT_ENERGY>  (2906) 
0

>  <NONCOV_INTER_ENERGY_QM>  (2906) 
0

>  <FF_Energy>  (2906) 
11.46

>  <QM_Energy>  (2906) 
-2.42

>  <source>  (2906) 
ETAM_MBZ

>  <Index>  (2906) 
31369

$$$$
ETAM-pdb5ckw-A-LYS-120:MBZ-pdb5ckw-A-PHE-116
     RDKit          3D

 26 25  0  0  0  0  0  0  0  0999 V2000
    2.1899   -3.3688    3.2152 C   0  0  0  0  0  0  0  0  0  0  0  0
    2.7736   -4.1501    3.4330 H   0  0  0  0  0  0  0  0  0  0  0  0
    1.3088   -3.6921    2.8746 H   0  0  0  0  0  0  0  0  0  0  0  0
    2.0213   -2.7977    4.1282 H   0  0  0  0  0  0  0  0  0  0  0  0
    2.8571   -2.5464    2.1361 C   0  0  0  0  0  0  0  0  0  0  0  0
    2.3332   -1.7046    1.9905 H   0  0  0  0  0  0  0  0  0  0  0  0
    3.7860   -2.3079    2.4277 H   0  0  0  0  0  0  0  0  0  0  0  0
    2.9352   -3.2973    0.8431 N   0  0  0  0  0  4  0  0  0  0  0  0
    3.5899   -2.8442    0.2407 H   0  0  0  0  0  0  0  0  0  0  0  0
    3.2345   -4.2318    1.0250 H   0  0  0  0  0  0  0  0  0  0  0  0
    2.0330   -3.3084    0.4165 H   0  0  0  0  0  0  0  0  0  0  0  0
   -0.0200    2.8685    0.0304 C   0  0  0  0  0  0  0  0  0  0  0  0
   -0.7326    3.1900   -0.5679 H   0  0  0  0  0  0  0  0  0  0  0  0
    0.8669    3.2003   -0.2377 H   0  0  0  0  0  0  0  0  0  0  0  0
   -0.2292    3.2427    1.0326 H   0  0  0  0  0  0  0  0  0  0  0  0
   -0.0008    1.3856   -0.0151 C   0  0  0  0  0  0  0  0  0  0  0  0
   -1.1881    0.6840    0.0076 C   0  0  0  0  0  0  0  0  0  0  0  0
   -2.0563    1.1789    0.0284 H   0  0  0  0  0  0  0  0  0  0  0  0
   -1.1915   -0.6883   -0.0000 C   0  0  0  0  0  0  0  0  0  0  0  0
   -2.0733   -1.1860   -0.0103 H   0  0  0  0  0  0  0  0  0  0  0  0
   -0.0046   -1.3783    0.0078 C   0  0  0  0  0  0  0  0  0  0  0  0
   -0.0056   -2.3812    0.0184 H   0  0  0  0  0  0  0  0  0  0  0  0
    1.1915   -0.6868    0.0000 C   0  0  0  0  0  0  0  0  0  0  0  0
    2.0734   -1.1949   -0.0039 H   0  0  0  0  0  0  0  0  0  0  0  0
    1.1935    0.6838   -0.0002 C   0  0  0  0  0  0  0  0  0  0  0  0
    2.0590    1.1858    0.0097 H   0  0  0  0  0  0  0  0  0  0  0  0
  1  5  1  0
  5  8  1  0
  1  2  1  0
  1  3  1  0
  1  4  1  0
  5  6  1  0
  5  7  1  0
  8  9  1  0
  8 10  1  0
  8 11  1  0
 12 16  1  0
 16 17  2  0
 17 19  1  0
 19 21  2  0
 21 23  1  0
 23 25  2  0
 25 16  1  0
 12 13  1  0
 12 14  1  0
 12 15  1  0
 17 18  1  0
 19 20  1  0
 21 22  1  0
 23 24  1  0
 25 26  1  0
M  CHG  1   8   1
M  END
>  <PDB_ID>  (2907) 
pdb5ckw

>  <RESIDUE_NAME>  (2907) 
LYS   PHE

>  <FRAG_NAME>  (2907) 
ETAM   MBZ

>  <FRAG_ATOM_NUM>  (2907) 
fragi: 11  fragj: 15

>  <atom.prop.CHAIN_ID>  (2907) 
A A A A A A A A A A A Z Z Z Z Z Z Z Z Z Z Z Z Z Z Z

>  <atom.prop.IS_HEAVY_ATOM>  (2907) 
1 0 0 0 1 0 0 1 0 0 0 1 0 0 0 1 1 0 1 0 1 0 1 0 1 0

>  <DIFUSE_FUNC_ATOM>  (2907) 
n/a

>  <FINAL_SINGLE_POINT_ENERGY>  (2907) 
0

>  <NONCOV_INTER_ENERGY_QM>  (2907) 
0

>  <FF_Energy>  (2907) 
4.32

>  <QM_Energy>  (2907) 
-4.11

>  <source>  (2907) 
ETAM_MBZ

>  <Index>  (2907) 
31378

$$$$
ETAM-pdb5cm6-B-LYS-320:MBZ-pdb5cm6-B-PHE-317
     RDKit          3D

 26 25  0  0  0  0  0  0  0  0999 V2000
   -0.0138    0.9929    5.2109 C   0  0  0  0  0  0  0  0  0  0  0  0
    0.5355    0.4990    5.8392 H   0  0  0  0  0  0  0  0  0  0  0  0
   -0.9238    0.6563    5.2208 H   0  0  0  0  0  0  0  0  0  0  0  0
   -0.0150    2.0482    5.4837 H   0  0  0  0  0  0  0  0  0  0  0  0
    0.5555    0.7875    3.8159 C   0  0  0  0  0  0  0  0  0  0  0  0
    0.1537    1.4298    3.2097 H   0  0  0  0  0  0  0  0  0  0  0  0
    1.5172    0.9078    3.8434 H   0  0  0  0  0  0  0  0  0  0  0  0
    0.2754   -0.5607    3.3079 N   0  0  0  0  0  4  0  0  0  0  0  0
   -0.6032   -0.6945    3.2696 H   0  0  0  0  0  0  0  0  0  0  0  0
    0.6379   -1.1702    3.8457 H   0  0  0  0  0  0  0  0  0  0  0  0
    0.6182   -0.6545    2.4916 H   0  0  0  0  0  0  0  0  0  0  0  0
    0.0018    2.8985   -0.0178 C   0  0  0  0  0  0  0  0  0  0  0  0
   -0.6172    3.1909   -0.7061 H   0  0  0  0  0  0  0  0  0  0  0  0
    0.9000    3.1894   -0.2384 H   0  0  0  0  0  0  0  0  0  0  0  0
   -0.2908    3.3480    0.9311 H   0  0  0  0  0  0  0  0  0  0  0  0
   -0.0040    1.3968   -0.0018 C   0  0  0  0  0  0  0  0  0  0  0  0
   -1.1933    0.6935   -0.0100 C   0  0  0  0  0  0  0  0  0  0  0  0
   -2.0008    1.1535   -0.0120 H   0  0  0  0  0  0  0  0  0  0  0  0
   -1.1935   -0.6999    0.0000 C   0  0  0  0  0  0  0  0  0  0  0  0
   -1.9972   -1.1677   -0.0005 H   0  0  0  0  0  0  0  0  0  0  0  0
    0.0089   -1.3846    0.0103 C   0  0  0  0  0  0  0  0  0  0  0  0
    0.0131   -2.3145    0.0118 H   0  0  0  0  0  0  0  0  0  0  0  0
    1.1935   -0.6972   -0.0000 C   0  0  0  0  0  0  0  0  0  0  0  0
    2.0006   -1.1594    0.0103 H   0  0  0  0  0  0  0  0  0  0  0  0
    1.1883    0.6914    0.0015 C   0  0  0  0  0  0  0  0  0  0  0  0
    1.9953    1.1542   -0.0003 H   0  0  0  0  0  0  0  0  0  0  0  0
  1  5  1  0
  5  8  1  0
  1  2  1  0
  1  3  1  0
  1  4  1  0
  5  6  1  0
  5  7  1  0
  8  9  1  0
  8 10  1  0
  8 11  1  0
 12 16  1  0
 16 17  2  0
 17 19  1  0
 19 21  2  0
 21 23  1  0
 23 25  2  0
 25 16  1  0
 12 13  1  0
 12 14  1  0
 12 15  1  0
 17 18  1  0
 19 20  1  0
 21 22  1  0
 23 24  1  0
 25 26  1  0
M  CHG  1   8   1
M  END
>  <PDB_ID>  (2908) 
pdb5cm6

>  <RESIDUE_NAME>  (2908) 
LYS   PHE

>  <FRAG_NAME>  (2908) 
ETAM   MBZ

>  <FRAG_ATOM_NUM>  (2908) 
fragi: 11  fragj: 15

>  <atom.prop.CHAIN_ID>  (2908) 
A A A A A A A A A A A Z Z Z Z Z Z Z Z Z Z Z Z Z Z Z

>  <atom.prop.IS_HEAVY_ATOM>  (2908) 
1 0 0 0 1 0 0 1 0 0 0 1 0 0 0 1 1 0 1 0 1 0 1 0 1 0

>  <DIFUSE_FUNC_ATOM>  (2908) 
n/a

>  <FINAL_SINGLE_POINT_ENERGY>  (2908) 
0

>  <NONCOV_INTER_ENERGY_QM>  (2908) 
0

>  <FF_Energy>  (2908) 
-8.35

>  <QM_Energy>  (2908) 
-15.84

>  <source>  (2908) 
ETAM_MBZ

>  <Index>  (2908) 
31386

$$$$
ETAM-pdb5ckw-A-LYS-224:MBZ-pdb5ckw-A-PHE-247
     RDKit          3D

 26 25  0  0  0  0  0  0  0  0999 V2000
    3.7505    2.8935    0.2605 C   0  0  0  0  0  0  0  0  0  0  0  0
    3.9617    2.6374   -0.6828 H   0  0  0  0  0  0  0  0  0  0  0  0
    2.8646    2.5121    0.5215 H   0  0  0  0  0  0  0  0  0  0  0  0
    4.5135    2.4643    0.9099 H   0  0  0  0  0  0  0  0  0  0  0  0
    3.6720    4.4151    0.3478 C   0  0  0  0  0  0  0  0  0  0  0  0
    3.3286    4.6676    1.2648 H   0  0  0  0  0  0  0  0  0  0  0  0
    4.6056    4.7924    0.2553 H   0  0  0  0  0  0  0  0  0  0  0  0
    2.7957    5.0296   -0.6859 N   0  0  0  0  0  4  0  0  0  0  0  0
    1.8379    4.8780   -0.4419 H   0  0  0  0  0  0  0  0  0  0  0  0
    2.9774    6.0114   -0.7334 H   0  0  0  0  0  0  0  0  0  0  0  0
    2.9859    4.6102   -1.5730 H   0  0  0  0  0  0  0  0  0  0  0  0
    0.0130    2.8873    0.0174 C   0  0  0  0  0  0  0  0  0  0  0  0
    0.8967    3.1830    0.3641 H   0  0  0  0  0  0  0  0  0  0  0  0
   -0.7147    3.1878    0.6247 H   0  0  0  0  0  0  0  0  0  0  0  0
   -0.1419    3.3660   -0.9495 H   0  0  0  0  0  0  0  0  0  0  0  0
    0.0038    1.3933   -0.0121 C   0  0  0  0  0  0  0  0  0  0  0  0
   -1.1889    0.6906    0.0095 C   0  0  0  0  0  0  0  0  0  0  0  0
   -2.0555    1.1822    0.0309 H   0  0  0  0  0  0  0  0  0  0  0  0
   -1.1926   -0.6925   -0.0000 C   0  0  0  0  0  0  0  0  0  0  0  0
   -2.0738   -1.1859   -0.0059 H   0  0  0  0  0  0  0  0  0  0  0  0
   -0.0024   -1.3847   -0.0002 C   0  0  0  0  0  0  0  0  0  0  0  0
   -0.0054   -2.3859   -0.0006 H   0  0  0  0  0  0  0  0  0  0  0  0
    1.1926   -0.6923    0.0000 C   0  0  0  0  0  0  0  0  0  0  0  0
    2.0755   -1.1940   -0.0008 H   0  0  0  0  0  0  0  0  0  0  0  0
    1.1874    0.6855    0.0028 C   0  0  0  0  0  0  0  0  0  0  0  0
    2.0614    1.1839    0.0145 H   0  0  0  0  0  0  0  0  0  0  0  0
  1  5  1  0
  5  8  1  0
  1  2  1  0
  1  3  1  0
  1  4  1  0
  5  6  1  0
  5  7  1  0
  8  9  1  0
  8 10  1  0
  8 11  1  0
 12 16  1  0
 16 17  2  0
 17 19  1  0
 19 21  2  0
 21 23  1  0
 23 25  2  0
 25 16  1  0
 12 13  1  0
 12 14  1  0
 12 15  1  0
 17 18  1  0
 19 20  1  0
 21 22  1  0
 23 24  1  0
 25 26  1  0
M  CHG  1   8   1
M  END
>  <PDB_ID>  (2909) 
pdb5ckw

>  <RESIDUE_NAME>  (2909) 
LYS   PHE

>  <FRAG_NAME>  (2909) 
ETAM   MBZ

>  <FRAG_ATOM_NUM>  (2909) 
fragi: 11  fragj: 15

>  <atom.prop.CHAIN_ID>  (2909) 
A A A A A A A A A A A Z Z Z Z Z Z Z Z Z Z Z Z Z Z Z

>  <atom.prop.IS_HEAVY_ATOM>  (2909) 
1 0 0 0 1 0 0 1 0 0 0 1 0 0 0 1 1 0 1 0 1 0 1 0 1 0

>  <DIFUSE_FUNC_ATOM>  (2909) 
n/a

>  <FINAL_SINGLE_POINT_ENERGY>  (2909) 
0

>  <NONCOV_INTER_ENERGY_QM>  (2909) 
0

>  <FF_Energy>  (2909) 
12.96

>  <QM_Energy>  (2909) 
0.47

>  <source>  (2909) 
ETAM_MBZ

>  <Index>  (2909) 
31409

$$$$
ETAM-pdb5cog-A-LYS-160:MBZ-pdb5cog-A-PHE-157
     RDKit          3D

 26 25  0  0  0  0  0  0  0  0999 V2000
    1.7707    0.4817    3.4403 C   0  0  0  0  0  0  0  0  0  0  0  0
    1.5440    0.7512    2.5144 H   0  0  0  0  0  0  0  0  0  0  0  0
    2.6323   -0.0068    3.4662 H   0  0  0  0  0  0  0  0  0  0  0  0
    1.8541    1.3770    4.0565 H   0  0  0  0  0  0  0  0  0  0  0  0
    0.6742   -0.4339    3.9648 C   0  0  0  0  0  0  0  0  0  0  0  0
    0.8759   -0.6630    4.9236 H   0  0  0  0  0  0  0  0  0  0  0  0
   -0.2026    0.0603    3.9340 H   0  0  0  0  0  0  0  0  0  0  0  0
    0.5565   -1.6867    3.1768 N   0  0  0  0  0  4  0  0  0  0  0  0
    1.4359   -2.1637    3.1750 H   0  0  0  0  0  0  0  0  0  0  0  0
   -0.1406   -2.2749    3.5873 H   0  0  0  0  0  0  0  0  0  0  0  0
    0.2948   -1.4665    2.2371 H   0  0  0  0  0  0  0  0  0  0  0  0
    0.0069    2.9031    0.0080 C   0  0  0  0  0  0  0  0  0  0  0  0
   -0.7335    3.2178   -0.5602 H   0  0  0  0  0  0  0  0  0  0  0  0
    0.8822    3.2082   -0.3271 H   0  0  0  0  0  0  0  0  0  0  0  0
   -0.1343    3.3235    1.0036 H   0  0  0  0  0  0  0  0  0  0  0  0
   -0.0006    1.4001   -0.0040 C   0  0  0  0  0  0  0  0  0  0  0  0
   -1.1906    0.6907    0.0033 C   0  0  0  0  0  0  0  0  0  0  0  0
   -2.0607    1.1824    0.0100 H   0  0  0  0  0  0  0  0  0  0  0  0
   -1.1948   -0.6909    0.0000 C   0  0  0  0  0  0  0  0  0  0  0  0
   -2.0783   -1.1846    0.0030 H   0  0  0  0  0  0  0  0  0  0  0  0
   -0.0058   -1.3922   -0.0050 C   0  0  0  0  0  0  0  0  0  0  0  0
   -0.0115   -2.3897   -0.0127 H   0  0  0  0  0  0  0  0  0  0  0  0
    1.1948   -0.6982    0.0000 C   0  0  0  0  0  0  0  0  0  0  0  0
    2.0766   -1.1998    0.0011 H   0  0  0  0  0  0  0  0  0  0  0  0
    1.1970    0.6905    0.0057 C   0  0  0  0  0  0  0  0  0  0  0  0
    2.0640    1.1851    0.0155 H   0  0  0  0  0  0  0  0  0  0  0  0
  1  5  1  0
  5  8  1  0
  1  2  1  0
  1  3  1  0
  1  4  1  0
  5  6  1  0
  5  7  1  0
  8  9  1  0
  8 10  1  0
  8 11  1  0
 12 16  1  0
 16 17  2  0
 17 19  1  0
 19 21  2  0
 21 23  1  0
 23 25  2  0
 25 16  1  0
 12 13  1  0
 12 14  1  0
 12 15  1  0
 17 18  1  0
 19 20  1  0
 21 22  1  0
 23 24  1  0
 25 26  1  0
M  CHG  1   8   1
M  END
>  <PDB_ID>  (2910) 
pdb5cog

>  <RESIDUE_NAME>  (2910) 
LYS   PHE

>  <FRAG_NAME>  (2910) 
ETAM   MBZ

>  <FRAG_ATOM_NUM>  (2910) 
fragi: 11  fragj: 15

>  <atom.prop.CHAIN_ID>  (2910) 
A A A A A A A A A A A Z Z Z Z Z Z Z Z Z Z Z Z Z Z Z

>  <atom.prop.IS_HEAVY_ATOM>  (2910) 
1 0 0 0 1 0 0 1 0 0 0 1 0 0 0 1 1 0 1 0 1 0 1 0 1 0

>  <DIFUSE_FUNC_ATOM>  (2910) 
n/a

>  <FINAL_SINGLE_POINT_ENERGY>  (2910) 
0

>  <NONCOV_INTER_ENERGY_QM>  (2910) 
0

>  <FF_Energy>  (2910) 
-6.39

>  <QM_Energy>  (2910) 
-14.43

>  <source>  (2910) 
ETAM_MBZ

>  <Index>  (2910) 
31410

$$$$
ETAM-pdb6cmz-B-LYS-52:MBZ-pdb6cmz-B-PHE-349
     RDKit          3D

 26 25  0  0  0  0  0  0  0  0999 V2000
   -1.2417    1.3352   -3.1603 C   0  0  0  0  0  0  0  0  0  0  0  0
   -1.0441    1.2956   -2.1691 H   0  0  0  0  0  0  0  0  0  0  0  0
   -0.9465    2.2434   -3.4954 H   0  0  0  0  0  0  0  0  0  0  0  0
   -0.6240    0.5834   -3.6517 H   0  0  0  0  0  0  0  0  0  0  0  0
   -2.7176    1.1903   -3.3724 C   0  0  0  0  0  0  0  0  0  0  0  0
   -2.9263    1.2258   -4.3525 H   0  0  0  0  0  0  0  0  0  0  0  0
   -3.0305    0.3124   -3.0023 H   0  0  0  0  0  0  0  0  0  0  0  0
   -3.4867    2.2943   -2.6855 N   0  0  0  0  0  4  0  0  0  0  0  0
   -2.8825    2.7522   -2.0394 H   0  0  0  0  0  0  0  0  0  0  0  0
   -3.8045    2.9396   -3.3743 H   0  0  0  0  0  0  0  0  0  0  0  0
   -4.2619    1.8932   -2.2055 H   0  0  0  0  0  0  0  0  0  0  0  0
    0.0039    2.9098   -0.0213 C   0  0  0  0  0  0  0  0  0  0  0  0
   -0.8090    3.2111   -0.4936 H   0  0  0  0  0  0  0  0  0  0  0  0
    0.8243    3.2074   -0.4844 H   0  0  0  0  0  0  0  0  0  0  0  0
   -0.0009    3.3698    0.9668 H   0  0  0  0  0  0  0  0  0  0  0  0
    0.0003    1.4006    0.0024 C   0  0  0  0  0  0  0  0  0  0  0  0
   -1.1912    0.6904    0.0055 C   0  0  0  0  0  0  0  0  0  0  0  0
   -2.0607    1.1829    0.0104 H   0  0  0  0  0  0  0  0  0  0  0  0
   -1.1988   -0.6939    0.0000 C   0  0  0  0  0  0  0  0  0  0  0  0
   -2.0768   -1.1878    0.0006 H   0  0  0  0  0  0  0  0  0  0  0  0
   -0.0014   -1.3915   -0.0036 C   0  0  0  0  0  0  0  0  0  0  0  0
   -0.0068   -2.3908   -0.0094 H   0  0  0  0  0  0  0  0  0  0  0  0
    1.1988   -0.6991    0.0000 C   0  0  0  0  0  0  0  0  0  0  0  0
    2.0797   -1.1943    0.0072 H   0  0  0  0  0  0  0  0  0  0  0  0
    1.1923    0.6935   -0.0043 C   0  0  0  0  0  0  0  0  0  0  0  0
    2.0626    1.1883   -0.0134 H   0  0  0  0  0  0  0  0  0  0  0  0
  1  5  1  0
  5  8  1  0
  1  2  1  0
  1  3  1  0
  1  4  1  0
  5  6  1  0
  5  7  1  0
  8  9  1  0
  8 10  1  0
  8 11  1  0
 12 16  1  0
 16 17  2  0
 17 19  1  0
 19 21  2  0
 21 23  1  0
 23 25  2  0
 25 16  1  0
 12 13  1  0
 12 14  1  0
 12 15  1  0
 17 18  1  0
 19 20  1  0
 21 22  1  0
 23 24  1  0
 25 26  1  0
M  CHG  1   8   1
M  END
>  <PDB_ID>  (2911) 
pdb6cmz

>  <RESIDUE_NAME>  (2911) 
LYS   PHE

>  <FRAG_NAME>  (2911) 
ETAM   MBZ

>  <FRAG_ATOM_NUM>  (2911) 
fragi: 11  fragj: 15

>  <atom.prop.CHAIN_ID>  (2911) 
A A A A A A A A A A A Z Z Z Z Z Z Z Z Z Z Z Z Z Z Z

>  <atom.prop.IS_HEAVY_ATOM>  (2911) 
1 0 0 0 1 0 0 1 0 0 0 1 0 0 0 1 1 0 1 0 1 0 1 0 1 0

>  <DIFUSE_FUNC_ATOM>  (2911) 
n/a

>  <FINAL_SINGLE_POINT_ENERGY>  (2911) 
0

>  <NONCOV_INTER_ENERGY_QM>  (2911) 
0

>  <FF_Energy>  (2911) 
2.68

>  <QM_Energy>  (2911) 
-4.02

>  <source>  (2911) 
ETAM_MBZ

>  <Index>  (2911) 
31448

$$$$
ETAM-pdb6cmz-A-LYS-52:MBZ-pdb6cmz-A-PHE-349
     RDKit          3D

 26 25  0  0  0  0  0  0  0  0999 V2000
   -0.9638    1.2562   -3.2810 C   0  0  0  0  0  0  0  0  0  0  0  0
   -0.9545    1.0911   -2.2821 H   0  0  0  0  0  0  0  0  0  0  0  0
   -0.5742    2.1781   -3.4399 H   0  0  0  0  0  0  0  0  0  0  0  0
   -0.2983    0.5281   -3.7447 H   0  0  0  0  0  0  0  0  0  0  0  0
   -2.3844    1.2377   -3.7652 C   0  0  0  0  0  0  0  0  0  0  0  0
   -2.4100    1.4616   -4.7476 H   0  0  0  0  0  0  0  0  0  0  0  0
   -2.7715    0.3152   -3.6427 H   0  0  0  0  0  0  0  0  0  0  0  0
   -3.2638    2.2196   -3.0342 N   0  0  0  0  0  4  0  0  0  0  0  0
   -2.9369    2.3094   -2.0970 H   0  0  0  0  0  0  0  0  0  0  0  0
   -3.2180    3.1002   -3.4983 H   0  0  0  0  0  0  0  0  0  0  0  0
   -4.1999    1.8790   -3.0391 H   0  0  0  0  0  0  0  0  0  0  0  0
    0.0003    2.8957   -0.0345 C   0  0  0  0  0  0  0  0  0  0  0  0
   -0.7844    3.1963   -0.5536 H   0  0  0  0  0  0  0  0  0  0  0  0
    0.8452    3.1971   -0.4491 H   0  0  0  0  0  0  0  0  0  0  0  0
   -0.0637    3.3432    0.9574 H   0  0  0  0  0  0  0  0  0  0  0  0
   -0.0002    1.4028   -0.0095 C   0  0  0  0  0  0  0  0  0  0  0  0
   -1.1987    0.6878    0.0005 C   0  0  0  0  0  0  0  0  0  0  0  0
   -2.0645    1.1780    0.0066 H   0  0  0  0  0  0  0  0  0  0  0  0
   -1.1989   -0.7010   -0.0000 C   0  0  0  0  0  0  0  0  0  0  0  0
   -2.0781   -1.1953   -0.0060 H   0  0  0  0  0  0  0  0  0  0  0  0
   -0.0036   -1.3908    0.0096 C   0  0  0  0  0  0  0  0  0  0  0  0
   -0.0026   -2.3913    0.0232 H   0  0  0  0  0  0  0  0  0  0  0  0
    1.1989   -0.6942    0.0000 C   0  0  0  0  0  0  0  0  0  0  0  0
    2.0804   -1.1969   -0.0054 H   0  0  0  0  0  0  0  0  0  0  0  0
    1.2026    0.6953   -0.0006 C   0  0  0  0  0  0  0  0  0  0  0  0
    2.0669    1.1907    0.0047 H   0  0  0  0  0  0  0  0  0  0  0  0
  1  5  1  0
  5  8  1  0
  1  2  1  0
  1  3  1  0
  1  4  1  0
  5  6  1  0
  5  7  1  0
  8  9  1  0
  8 10  1  0
  8 11  1  0
 12 16  1  0
 16 17  2  0
 17 19  1  0
 19 21  2  0
 21 23  1  0
 23 25  2  0
 25 16  1  0
 12 13  1  0
 12 14  1  0
 12 15  1  0
 17 18  1  0
 19 20  1  0
 21 22  1  0
 23 24  1  0
 25 26  1  0
M  CHG  1   8   1
M  END
>  <PDB_ID>  (2912) 
pdb6cmz

>  <RESIDUE_NAME>  (2912) 
LYS   PHE

>  <FRAG_NAME>  (2912) 
ETAM   MBZ

>  <FRAG_ATOM_NUM>  (2912) 
fragi: 11  fragj: 15

>  <atom.prop.CHAIN_ID>  (2912) 
A A A A A A A A A A A Z Z Z Z Z Z Z Z Z Z Z Z Z Z Z

>  <atom.prop.IS_HEAVY_ATOM>  (2912) 
1 0 0 0 1 0 0 1 0 0 0 1 0 0 0 1 1 0 1 0 1 0 1 0 1 0

>  <DIFUSE_FUNC_ATOM>  (2912) 
n/a

>  <FINAL_SINGLE_POINT_ENERGY>  (2912) 
0

>  <NONCOV_INTER_ENERGY_QM>  (2912) 
0

>  <FF_Energy>  (2912) 
0.39

>  <QM_Energy>  (2912) 
-4.9

>  <source>  (2912) 
ETAM_MBZ

>  <Index>  (2912) 
31449

$$$$
ETAM-pdb5cpq-A-LYS-244:MBZ-pdb5cpq-A-PHE-237
     RDKit          3D

 26 25  0  0  0  0  0  0  0  0999 V2000
   -3.3706    2.2094    4.2438 C   0  0  0  0  0  0  0  0  0  0  0  0
   -2.4369    2.5069    4.1192 H   0  0  0  0  0  0  0  0  0  0  0  0
   -3.4782    1.6927    5.0783 H   0  0  0  0  0  0  0  0  0  0  0  0
   -4.0207    3.0836    4.2792 H   0  0  0  0  0  0  0  0  0  0  0  0
   -3.7653    1.3346    3.0732 C   0  0  0  0  0  0  0  0  0  0  0  0
   -4.7152    1.0110    3.2104 H   0  0  0  0  0  0  0  0  0  0  0  0
   -3.7552    1.8930    2.2275 H   0  0  0  0  0  0  0  0  0  0  0  0
   -2.8793    0.1519    2.8766 N   0  0  0  0  0  4  0  0  0  0  0  0
   -2.3805   -0.0310    3.7229 H   0  0  0  0  0  0  0  0  0  0  0  0
   -3.4367   -0.6420    2.6366 H   0  0  0  0  0  0  0  0  0  0  0  0
   -2.2320    0.3429    2.1402 H   0  0  0  0  0  0  0  0  0  0  0  0
   -0.0047    2.9139   -0.0091 C   0  0  0  0  0  0  0  0  0  0  0  0
   -0.5742    3.2113   -0.7630 H   0  0  0  0  0  0  0  0  0  0  0  0
    0.9303    3.2182   -0.1294 H   0  0  0  0  0  0  0  0  0  0  0  0
   -0.3910    3.3666    0.9042 H   0  0  0  0  0  0  0  0  0  0  0  0
   -0.0030    1.4105    0.0027 C   0  0  0  0  0  0  0  0  0  0  0  0
   -1.2048    0.6994    0.0057 C   0  0  0  0  0  0  0  0  0  0  0  0
   -2.0692    1.1882    0.0106 H   0  0  0  0  0  0  0  0  0  0  0  0
   -1.2051   -0.6938   -0.0000 C   0  0  0  0  0  0  0  0  0  0  0  0
   -2.0812   -1.1902   -0.0002 H   0  0  0  0  0  0  0  0  0  0  0  0
    0.0009   -1.3985   -0.0041 C   0  0  0  0  0  0  0  0  0  0  0  0
   -0.0118   -2.3972   -0.0105 H   0  0  0  0  0  0  0  0  0  0  0  0
    1.2051   -0.7090   -0.0000 C   0  0  0  0  0  0  0  0  0  0  0  0
    2.0852   -1.2057    0.0074 H   0  0  0  0  0  0  0  0  0  0  0  0
    1.2069    0.6914   -0.0044 C   0  0  0  0  0  0  0  0  0  0  0  0
    2.0699    1.1855   -0.0128 H   0  0  0  0  0  0  0  0  0  0  0  0
  1  5  1  0
  5  8  1  0
  1  2  1  0
  1  3  1  0
  1  4  1  0
  5  6  1  0
  5  7  1  0
  8  9  1  0
  8 10  1  0
  8 11  1  0
 12 16  1  0
 16 17  2  0
 17 19  1  0
 19 21  2  0
 21 23  1  0
 23 25  2  0
 25 16  1  0
 12 13  1  0
 12 14  1  0
 12 15  1  0
 17 18  1  0
 19 20  1  0
 21 22  1  0
 23 24  1  0
 25 26  1  0
M  CHG  1   8   1
M  END
>  <PDB_ID>  (2913) 
pdb5cpq

>  <RESIDUE_NAME>  (2913) 
LYS   PHE

>  <FRAG_NAME>  (2913) 
ETAM   MBZ

>  <FRAG_ATOM_NUM>  (2913) 
fragi: 11  fragj: 15

>  <atom.prop.CHAIN_ID>  (2913) 
A A A A A A A A A A A Z Z Z Z Z Z Z Z Z Z Z Z Z Z Z

>  <atom.prop.IS_HEAVY_ATOM>  (2913) 
1 0 0 0 1 0 0 1 0 0 0 1 0 0 0 1 1 0 1 0 1 0 1 0 1 0

>  <DIFUSE_FUNC_ATOM>  (2913) 
n/a

>  <FINAL_SINGLE_POINT_ENERGY>  (2913) 
0

>  <NONCOV_INTER_ENERGY_QM>  (2913) 
0

>  <FF_Energy>  (2913) 
-3.78

>  <QM_Energy>  (2913) 
-10.72

>  <source>  (2913) 
ETAM_MBZ

>  <Index>  (2913) 
31456

$$$$
ETAM-pdb5cpq-B-LYS-244:MBZ-pdb5cpq-B-PHE-237
     RDKit          3D

 26 25  0  0  0  0  0  0  0  0999 V2000
   -3.3796    2.1990    4.2340 C   0  0  0  0  0  0  0  0  0  0  0  0
   -2.4400    2.4907    4.1103 H   0  0  0  0  0  0  0  0  0  0  0  0
   -3.4797    1.6735    5.0694 H   0  0  0  0  0  0  0  0  0  0  0  0
   -4.0223    3.0779    4.2842 H   0  0  0  0  0  0  0  0  0  0  0  0
   -3.7785    1.3358    3.0662 C   0  0  0  0  0  0  0  0  0  0  0  0
   -4.7265    1.0125    3.1960 H   0  0  0  0  0  0  0  0  0  0  0  0
   -3.7529    1.8853    2.2189 H   0  0  0  0  0  0  0  0  0  0  0  0
   -2.8899    0.1346    2.8780 N   0  0  0  0  0  4  0  0  0  0  0  0
   -1.9458    0.4422    2.7908 H   0  0  0  0  0  0  0  0  0  0  0  0
   -2.9830   -0.4629    3.6700 H   0  0  0  0  0  0  0  0  0  0  0  0
   -3.1704   -0.3476    2.0520 H   0  0  0  0  0  0  0  0  0  0  0  0
    0.0092    2.9169   -0.0021 C   0  0  0  0  0  0  0  0  0  0  0  0
   -0.5609    3.2180   -0.7525 H   0  0  0  0  0  0  0  0  0  0  0  0
    0.9463    3.2125   -0.1234 H   0  0  0  0  0  0  0  0  0  0  0  0
   -0.3714    3.3690    0.9138 H   0  0  0  0  0  0  0  0  0  0  0  0
    0.0005    1.4071    0.0054 C   0  0  0  0  0  0  0  0  0  0  0  0
   -1.1969    0.6984   -0.0007 C   0  0  0  0  0  0  0  0  0  0  0  0
   -2.0639    1.1841   -0.0072 H   0  0  0  0  0  0  0  0  0  0  0  0
   -1.2024   -0.7022   -0.0000 C   0  0  0  0  0  0  0  0  0  0  0  0
   -2.0815   -1.1900    0.0045 H   0  0  0  0  0  0  0  0  0  0  0  0
   -0.0040   -1.3984   -0.0030 C   0  0  0  0  0  0  0  0  0  0  0  0
   -0.0038   -2.3958   -0.0073 H   0  0  0  0  0  0  0  0  0  0  0  0
    1.2024   -0.6974    0.0000 C   0  0  0  0  0  0  0  0  0  0  0  0
    2.0816   -1.1987    0.0045 H   0  0  0  0  0  0  0  0  0  0  0  0
    1.2004    0.6926   -0.0016 C   0  0  0  0  0  0  0  0  0  0  0  0
    2.0674    1.1894   -0.0086 H   0  0  0  0  0  0  0  0  0  0  0  0
  1  5  1  0
  5  8  1  0
  1  2  1  0
  1  3  1  0
  1  4  1  0
  5  6  1  0
  5  7  1  0
  8  9  1  0
  8 10  1  0
  8 11  1  0
 12 16  1  0
 16 17  2  0
 17 19  1  0
 19 21  2  0
 21 23  1  0
 23 25  2  0
 25 16  1  0
 12 13  1  0
 12 14  1  0
 12 15  1  0
 17 18  1  0
 19 20  1  0
 21 22  1  0
 23 24  1  0
 25 26  1  0
M  CHG  1   8   1
M  END
>  <PDB_ID>  (2914) 
pdb5cpq

>  <RESIDUE_NAME>  (2914) 
LYS   PHE

>  <FRAG_NAME>  (2914) 
ETAM   MBZ

>  <FRAG_ATOM_NUM>  (2914) 
fragi: 11  fragj: 15

>  <atom.prop.CHAIN_ID>  (2914) 
A A A A A A A A A A A Z Z Z Z Z Z Z Z Z Z Z Z Z Z Z

>  <atom.prop.IS_HEAVY_ATOM>  (2914) 
1 0 0 0 1 0 0 1 0 0 0 1 0 0 0 1 1 0 1 0 1 0 1 0 1 0

>  <DIFUSE_FUNC_ATOM>  (2914) 
n/a

>  <FINAL_SINGLE_POINT_ENERGY>  (2914) 
0

>  <NONCOV_INTER_ENERGY_QM>  (2914) 
0

>  <FF_Energy>  (2914) 
-3.45

>  <QM_Energy>  (2914) 
-9.1

>  <source>  (2914) 
ETAM_MBZ

>  <Index>  (2914) 
31457

$$$$
ETAM-pdb5cqg-B-LYS-418:MBZ-pdb5cqg-B-PHE-83
     RDKit          3D

 26 25  0  0  0  0  0  0  0  0999 V2000
    1.4499    1.7125    4.1972 C   0  0  0  0  0  0  0  0  0  0  0  0
    1.8822    1.1266    3.5293 H   0  0  0  0  0  0  0  0  0  0  0  0
    1.6800    1.4426    5.1193 H   0  0  0  0  0  0  0  0  0  0  0  0
    1.7788    2.7389    4.0345 H   0  0  0  0  0  0  0  0  0  0  0  0
   -0.0642    1.6132    4.0244 C   0  0  0  0  0  0  0  0  0  0  0  0
   -0.5058    1.9286    4.8724 H   0  0  0  0  0  0  0  0  0  0  0  0
   -0.3436    2.2252    3.2759 H   0  0  0  0  0  0  0  0  0  0  0  0
   -0.5173    0.2307    3.7204 N   0  0  0  0  0  4  0  0  0  0  0  0
   -1.4452    0.1012    4.0681 H   0  0  0  0  0  0  0  0  0  0  0  0
   -0.5081    0.0877    2.7300 H   0  0  0  0  0  0  0  0  0  0  0  0
    0.0985   -0.4246    4.1582 H   0  0  0  0  0  0  0  0  0  0  0  0
    0.0114    2.9136    0.0189 C   0  0  0  0  0  0  0  0  0  0  0  0
    0.9401    3.2139    0.1713 H   0  0  0  0  0  0  0  0  0  0  0  0
   -0.5890    3.2159    0.7435 H   0  0  0  0  0  0  0  0  0  0  0  0
   -0.3337    3.3788   -0.9044 H   0  0  0  0  0  0  0  0  0  0  0  0
    0.0007    1.4086   -0.0058 C   0  0  0  0  0  0  0  0  0  0  0  0
   -1.2017    0.7007    0.0010 C   0  0  0  0  0  0  0  0  0  0  0  0
   -2.0654    1.1885    0.0056 H   0  0  0  0  0  0  0  0  0  0  0  0
   -1.2051   -0.6969   -0.0000 C   0  0  0  0  0  0  0  0  0  0  0  0
   -2.0821   -1.1890    0.0031 H   0  0  0  0  0  0  0  0  0  0  0  0
   -0.0010   -1.3994   -0.0040 C   0  0  0  0  0  0  0  0  0  0  0  0
   -0.0083   -2.3966   -0.0106 H   0  0  0  0  0  0  0  0  0  0  0  0
    1.2051   -0.7039    0.0000 C   0  0  0  0  0  0  0  0  0  0  0  0
    2.0839   -1.2019   -0.0015 H   0  0  0  0  0  0  0  0  0  0  0  0
    1.2020    0.6909    0.0087 C   0  0  0  0  0  0  0  0  0  0  0  0
    2.0695    1.1861    0.0249 H   0  0  0  0  0  0  0  0  0  0  0  0
  1  5  1  0
  5  8  1  0
  1  2  1  0
  1  3  1  0
  1  4  1  0
  5  6  1  0
  5  7  1  0
  8  9  1  0
  8 10  1  0
  8 11  1  0
 12 16  1  0
 16 17  2  0
 17 19  1  0
 19 21  2  0
 21 23  1  0
 23 25  2  0
 25 16  1  0
 12 13  1  0
 12 14  1  0
 12 15  1  0
 17 18  1  0
 19 20  1  0
 21 22  1  0
 23 24  1  0
 25 26  1  0
M  CHG  1   8   1
M  END
>  <PDB_ID>  (2915) 
pdb5cqg

>  <RESIDUE_NAME>  (2915) 
LYS   PHE

>  <FRAG_NAME>  (2915) 
ETAM   MBZ

>  <FRAG_ATOM_NUM>  (2915) 
fragi: 11  fragj: 15

>  <atom.prop.CHAIN_ID>  (2915) 
A A A A A A A A A A A Z Z Z Z Z Z Z Z Z Z Z Z Z Z Z

>  <atom.prop.IS_HEAVY_ATOM>  (2915) 
1 0 0 0 1 0 0 1 0 0 0 1 0 0 0 1 1 0 1 0 1 0 1 0 1 0

>  <DIFUSE_FUNC_ATOM>  (2915) 
n/a

>  <FINAL_SINGLE_POINT_ENERGY>  (2915) 
0

>  <NONCOV_INTER_ENERGY_QM>  (2915) 
0

>  <FF_Energy>  (2915) 
-7.94

>  <QM_Energy>  (2915) 
-13.51

>  <source>  (2915) 
ETAM_MBZ

>  <Index>  (2915) 
31475

$$$$
ETAM-pdb5cqg-B-LYS-477:MBZ-pdb5cqg-B-PHE-443
     RDKit          3D

 26 25  0  0  0  0  0  0  0  0999 V2000
   -0.3908   -0.6138   -3.4518 C   0  0  0  0  0  0  0  0  0  0  0  0
   -1.1917   -0.2491   -3.0049 H   0  0  0  0  0  0  0  0  0  0  0  0
    0.2354   -1.0164   -2.8035 H   0  0  0  0  0  0  0  0  0  0  0  0
   -0.7010   -1.3768   -4.1657 H   0  0  0  0  0  0  0  0  0  0  0  0
    0.3194    0.5155   -4.1811 C   0  0  0  0  0  0  0  0  0  0  0  0
    1.1474    0.1428   -4.6303 H   0  0  0  0  0  0  0  0  0  0  0  0
   -0.2894    0.8648   -4.9124 H   0  0  0  0  0  0  0  0  0  0  0  0
    0.7181    1.6530   -3.3035 N   0  0  0  0  0  4  0  0  0  0  0  0
    1.6467    1.9400   -3.5356 H   0  0  0  0  0  0  0  0  0  0  0  0
    0.0866    2.4148   -3.4425 H   0  0  0  0  0  0  0  0  0  0  0  0
    0.6863    1.3608   -2.3489 H   0  0  0  0  0  0  0  0  0  0  0  0
    0.0041    2.9100    0.0349 C   0  0  0  0  0  0  0  0  0  0  0  0
   -0.8540    3.2334   -0.3239 H   0  0  0  0  0  0  0  0  0  0  0  0
    0.7706    3.2351   -0.4921 H   0  0  0  0  0  0  0  0  0  0  0  0
    0.1082    3.3152    1.0415 H   0  0  0  0  0  0  0  0  0  0  0  0
    0.0004    1.4042   -0.0106 C   0  0  0  0  0  0  0  0  0  0  0  0
   -1.2030    0.6962   -0.0001 C   0  0  0  0  0  0  0  0  0  0  0  0
   -2.0657    1.1874    0.0060 H   0  0  0  0  0  0  0  0  0  0  0  0
   -1.2055   -0.6953   -0.0000 C   0  0  0  0  0  0  0  0  0  0  0  0
   -2.0816   -1.1907    0.0010 H   0  0  0  0  0  0  0  0  0  0  0  0
   -0.0023   -1.3918    0.0007 C   0  0  0  0  0  0  0  0  0  0  0  0
   -0.0075   -2.3917    0.0009 H   0  0  0  0  0  0  0  0  0  0  0  0
    1.2055   -0.6999    0.0000 C   0  0  0  0  0  0  0  0  0  0  0  0
    2.0817   -1.2039   -0.0062 H   0  0  0  0  0  0  0  0  0  0  0  0
    1.2049    0.6867    0.0100 C   0  0  0  0  0  0  0  0  0  0  0  0
    2.0688    1.1867    0.0311 H   0  0  0  0  0  0  0  0  0  0  0  0
  1  5  1  0
  5  8  1  0
  1  2  1  0
  1  3  1  0
  1  4  1  0
  5  6  1  0
  5  7  1  0
  8  9  1  0
  8 10  1  0
  8 11  1  0
 12 16  1  0
 16 17  2  0
 17 19  1  0
 19 21  2  0
 21 23  1  0
 23 25  2  0
 25 16  1  0
 12 13  1  0
 12 14  1  0
 12 15  1  0
 17 18  1  0
 19 20  1  0
 21 22  1  0
 23 24  1  0
 25 26  1  0
M  CHG  1   8   1
M  END
>  <PDB_ID>  (2916) 
pdb5cqg

>  <RESIDUE_NAME>  (2916) 
LYS   PHE

>  <FRAG_NAME>  (2916) 
ETAM   MBZ

>  <FRAG_ATOM_NUM>  (2916) 
fragi: 11  fragj: 15

>  <atom.prop.CHAIN_ID>  (2916) 
A A A A A A A A A A A Z Z Z Z Z Z Z Z Z Z Z Z Z Z Z

>  <atom.prop.IS_HEAVY_ATOM>  (2916) 
1 0 0 0 1 0 0 1 0 0 0 1 0 0 0 1 1 0 1 0 1 0 1 0 1 0

>  <DIFUSE_FUNC_ATOM>  (2916) 
n/a

>  <FINAL_SINGLE_POINT_ENERGY>  (2916) 
0

>  <NONCOV_INTER_ENERGY_QM>  (2916) 
0

>  <FF_Energy>  (2916) 
-7.98

>  <QM_Energy>  (2916) 
-14.25

>  <source>  (2916) 
ETAM_MBZ

>  <Index>  (2916) 
31477

$$$$
ETAM-pdb6c72-A-LYS-766:MBZ-pdb6c72-C-PHE-672
     RDKit          3D

 26 25  0  0  0  0  0  0  0  0999 V2000
   -1.6661    0.7007   -3.4540 C   0  0  0  0  0  0  0  0  0  0  0  0
   -1.7335    1.3966   -2.7395 H   0  0  0  0  0  0  0  0  0  0  0  0
   -2.2779   -0.0604   -3.2385 H   0  0  0  0  0  0  0  0  0  0  0  0
   -1.9778    1.1424   -4.4005 H   0  0  0  0  0  0  0  0  0  0  0  0
   -0.2365    0.1778   -3.4865 C   0  0  0  0  0  0  0  0  0  0  0  0
    0.3632    0.8864   -3.8763 H   0  0  0  0  0  0  0  0  0  0  0  0
    0.0660   -0.0086   -2.5441 H   0  0  0  0  0  0  0  0  0  0  0  0
   -0.0870   -1.0793   -4.2976 N   0  0  0  0  0  4  0  0  0  0  0  0
    0.0891   -0.8325   -5.2474 H   0  0  0  0  0  0  0  0  0  0  0  0
    0.6763   -1.6091   -3.9365 H   0  0  0  0  0  0  0  0  0  0  0  0
   -0.9296   -1.6079   -4.2335 H   0  0  0  0  0  0  0  0  0  0  0  0
   -0.0101    2.8944   -0.0199 C   0  0  0  0  0  0  0  0  0  0  0  0
   -0.8315    3.1947   -0.4863 H   0  0  0  0  0  0  0  0  0  0  0  0
    0.8014    3.2034   -0.4967 H   0  0  0  0  0  0  0  0  0  0  0  0
   -0.0060    3.3484    0.9710 H   0  0  0  0  0  0  0  0  0  0  0  0
   -0.0023    1.4023   -0.0036 C   0  0  0  0  0  0  0  0  0  0  0  0
   -1.1946    0.6965   -0.0005 C   0  0  0  0  0  0  0  0  0  0  0  0
   -2.0635    1.1861   -0.0002 H   0  0  0  0  0  0  0  0  0  0  0  0
   -1.2048   -0.6964    0.0000 C   0  0  0  0  0  0  0  0  0  0  0  0
   -2.0795   -1.1893   -0.0034 H   0  0  0  0  0  0  0  0  0  0  0  0
    0.0027   -1.4013    0.0077 C   0  0  0  0  0  0  0  0  0  0  0  0
   -0.0041   -2.3952    0.0176 H   0  0  0  0  0  0  0  0  0  0  0  0
    1.2048   -0.6995   -0.0000 C   0  0  0  0  0  0  0  0  0  0  0  0
    2.0865   -1.1912   -0.0020 H   0  0  0  0  0  0  0  0  0  0  0  0
    1.1942    0.6984   -0.0036 C   0  0  0  0  0  0  0  0  0  0  0  0
    2.0624    1.1943   -0.0067 H   0  0  0  0  0  0  0  0  0  0  0  0
  1  5  1  0
  5  8  1  0
  1  2  1  0
  1  3  1  0
  1  4  1  0
  5  6  1  0
  5  7  1  0
  8  9  1  0
  8 10  1  0
  8 11  1  0
 12 16  1  0
 16 17  2  0
 17 19  1  0
 19 21  2  0
 21 23  1  0
 23 25  2  0
 25 16  1  0
 12 13  1  0
 12 14  1  0
 12 15  1  0
 17 18  1  0
 19 20  1  0
 21 22  1  0
 23 24  1  0
 25 26  1  0
M  CHG  1   8   1
M  END
>  <PDB_ID>  (2917) 
pdb6c72

>  <RESIDUE_NAME>  (2917) 
LYS   PHE

>  <FRAG_NAME>  (2917) 
ETAM   MBZ

>  <FRAG_ATOM_NUM>  (2917) 
fragi: 11  fragj: 15

>  <atom.prop.CHAIN_ID>  (2917) 
A A A A A A A A A A A Z Z Z Z Z Z Z Z Z Z Z Z Z Z Z

>  <atom.prop.IS_HEAVY_ATOM>  (2917) 
1 0 0 0 1 0 0 1 0 0 0 1 0 0 0 1 1 0 1 0 1 0 1 0 1 0

>  <DIFUSE_FUNC_ATOM>  (2917) 
n/a

>  <FINAL_SINGLE_POINT_ENERGY>  (2917) 
0

>  <NONCOV_INTER_ENERGY_QM>  (2917) 
0

>  <FF_Energy>  (2917) 
-5.74

>  <QM_Energy>  (2917) 
-10.76

>  <source>  (2917) 
ETAM_MBZ

>  <Index>  (2917) 
31489

$$$$
ETAM-pdb6cqn-E-LYS-156:MBZ-pdb6cqn-D-PHE-179
     RDKit          3D

 26 25  0  0  0  0  0  0  0  0999 V2000
    2.1547   -1.5406   -3.6404 C   0  0  0  0  0  0  0  0  0  0  0  0
    1.6816   -2.4129   -3.5211 H   0  0  0  0  0  0  0  0  0  0  0  0
    2.7954   -1.4006   -2.8858 H   0  0  0  0  0  0  0  0  0  0  0  0
    2.7144   -1.5710   -4.5752 H   0  0  0  0  0  0  0  0  0  0  0  0
    1.1344   -0.4284   -3.6226 C   0  0  0  0  0  0  0  0  0  0  0  0
    0.5811   -0.4736   -4.4627 H   0  0  0  0  0  0  0  0  0  0  0  0
    0.5222   -0.5531   -2.8327 H   0  0  0  0  0  0  0  0  0  0  0  0
    1.7664    0.9192   -3.5340 N   0  0  0  0  0  4  0  0  0  0  0  0
    1.4731    1.3667   -2.6905 H   0  0  0  0  0  0  0  0  0  0  0  0
    2.7610    0.8180   -3.5319 H   0  0  0  0  0  0  0  0  0  0  0  0
    1.4857    1.4676   -4.3205 H   0  0  0  0  0  0  0  0  0  0  0  0
   -0.0006    2.9229    0.0050 C   0  0  0  0  0  0  0  0  0  0  0  0
   -0.6674    3.2221   -0.6689 H   0  0  0  0  0  0  0  0  0  0  0  0
    0.9114    3.2251   -0.2522 H   0  0  0  0  0  0  0  0  0  0  0  0
   -0.2515    3.4019    0.9515 H   0  0  0  0  0  0  0  0  0  0  0  0
   -0.0002    1.4090    0.0140 C   0  0  0  0  0  0  0  0  0  0  0  0
   -1.1941    0.6965    0.0016 C   0  0  0  0  0  0  0  0  0  0  0  0
   -2.0638    1.1792   -0.0075 H   0  0  0  0  0  0  0  0  0  0  0  0
   -1.1940   -0.7037    0.0000 C   0  0  0  0  0  0  0  0  0  0  0  0
   -2.0748   -1.1920    0.0149 H   0  0  0  0  0  0  0  0  0  0  0  0
   -0.0009   -1.3934   -0.0201 C   0  0  0  0  0  0  0  0  0  0  0  0
   -0.0044   -2.3957   -0.0496 H   0  0  0  0  0  0  0  0  0  0  0  0
    1.1940   -0.7041   -0.0000 C   0  0  0  0  0  0  0  0  0  0  0  0
    2.0780   -1.1977    0.0132 H   0  0  0  0  0  0  0  0  0  0  0  0
    1.1952    0.6957    0.0045 C   0  0  0  0  0  0  0  0  0  0  0  0
    2.0649    1.1853   -0.0002 H   0  0  0  0  0  0  0  0  0  0  0  0
  1  5  1  0
  5  8  1  0
  1  2  1  0
  1  3  1  0
  1  4  1  0
  5  6  1  0
  5  7  1  0
  8  9  1  0
  8 10  1  0
  8 11  1  0
 12 16  1  0
 16 17  2  0
 17 19  1  0
 19 21  2  0
 21 23  1  0
 23 25  2  0
 25 16  1  0
 12 13  1  0
 12 14  1  0
 12 15  1  0
 17 18  1  0
 19 20  1  0
 21 22  1  0
 23 24  1  0
 25 26  1  0
M  CHG  1   8   1
M  END
>  <PDB_ID>  (2918) 
pdb6cqn

>  <RESIDUE_NAME>  (2918) 
LYS   PHE

>  <FRAG_NAME>  (2918) 
ETAM   MBZ

>  <FRAG_ATOM_NUM>  (2918) 
fragi: 11  fragj: 15

>  <atom.prop.CHAIN_ID>  (2918) 
A A A A A A A A A A A Z Z Z Z Z Z Z Z Z Z Z Z Z Z Z

>  <atom.prop.IS_HEAVY_ATOM>  (2918) 
1 0 0 0 1 0 0 1 0 0 0 1 0 0 0 1 1 0 1 0 1 0 1 0 1 0

>  <DIFUSE_FUNC_ATOM>  (2918) 
n/a

>  <FINAL_SINGLE_POINT_ENERGY>  (2918) 
0

>  <NONCOV_INTER_ENERGY_QM>  (2918) 
0

>  <FF_Energy>  (2918) 
-6.26

>  <QM_Energy>  (2918) 
-11.82

>  <source>  (2918) 
ETAM_MBZ

>  <Index>  (2918) 
31495

$$$$
ETAM-pdb6cu3-F-LYS-63:MBZ-pdb6cu3-F-PHE-60
     RDKit          3D

 26 25  0  0  0  0  0  0  0  0999 V2000
   -0.6218    1.5158    5.3485 C   0  0  0  0  0  0  0  0  0  0  0  0
   -0.1707    0.7227    5.7611 H   0  0  0  0  0  0  0  0  0  0  0  0
   -1.5560    1.5855    5.6989 H   0  0  0  0  0  0  0  0  0  0  0  0
   -0.0735    2.4144    5.6312 H   0  0  0  0  0  0  0  0  0  0  0  0
   -0.6789    1.3153    3.8526 C   0  0  0  0  0  0  0  0  0  0  0  0
   -1.1328    2.1028    3.4329 H   0  0  0  0  0  0  0  0  0  0  0  0
    0.2517    1.2399    3.4940 H   0  0  0  0  0  0  0  0  0  0  0  0
   -1.4334    0.0812    3.5157 N   0  0  0  0  0  4  0  0  0  0  0  0
   -1.8813    0.1963    2.6286 H   0  0  0  0  0  0  0  0  0  0  0  0
   -0.8024   -0.6933    3.4732 H   0  0  0  0  0  0  0  0  0  0  0  0
   -2.1245   -0.0889    4.2182 H   0  0  0  0  0  0  0  0  0  0  0  0
   -0.0083    2.8929   -0.0244 C   0  0  0  0  0  0  0  0  0  0  0  0
   -0.8194    3.1914   -0.5307 H   0  0  0  0  0  0  0  0  0  0  0  0
    0.8137    3.2031   -0.5055 H   0  0  0  0  0  0  0  0  0  0  0  0
   -0.0266    3.3950    0.9428 H   0  0  0  0  0  0  0  0  0  0  0  0
    0.0018    1.3986   -0.0072 C   0  0  0  0  0  0  0  0  0  0  0  0
   -1.1985    0.6930   -0.0082 C   0  0  0  0  0  0  0  0  0  0  0  0
   -2.0629    1.1940   -0.0167 H   0  0  0  0  0  0  0  0  0  0  0  0
   -1.2192   -0.6927    0.0000 C   0  0  0  0  0  0  0  0  0  0  0  0
   -2.0877   -1.1863   -0.0115 H   0  0  0  0  0  0  0  0  0  0  0  0
   -0.0067   -1.3905    0.0245 C   0  0  0  0  0  0  0  0  0  0  0  0
   -0.0122   -2.3902    0.0611 H   0  0  0  0  0  0  0  0  0  0  0  0
    1.2192   -0.7009   -0.0000 C   0  0  0  0  0  0  0  0  0  0  0  0
    2.0852   -1.2012   -0.0096 H   0  0  0  0  0  0  0  0  0  0  0  0
    1.2034    0.6925   -0.0091 C   0  0  0  0  0  0  0  0  0  0  0  0
    2.0694    1.1935   -0.0187 H   0  0  0  0  0  0  0  0  0  0  0  0
  1  5  1  0
  5  8  1  0
  1  2  1  0
  1  3  1  0
  1  4  1  0
  5  6  1  0
  5  7  1  0
  8  9  1  0
  8 10  1  0
  8 11  1  0
 12 16  1  0
 16 17  2  0
 17 19  1  0
 19 21  2  0
 21 23  1  0
 23 25  2  0
 25 16  1  0
 12 13  1  0
 12 14  1  0
 12 15  1  0
 17 18  1  0
 19 20  1  0
 21 22  1  0
 23 24  1  0
 25 26  1  0
M  CHG  1   8   1
M  END
>  <PDB_ID>  (2919) 
pdb6cu3

>  <RESIDUE_NAME>  (2919) 
LYS   PHE

>  <FRAG_NAME>  (2919) 
ETAM   MBZ

>  <FRAG_ATOM_NUM>  (2919) 
fragi: 11  fragj: 15

>  <atom.prop.CHAIN_ID>  (2919) 
A A A A A A A A A A A Z Z Z Z Z Z Z Z Z Z Z Z Z Z Z

>  <atom.prop.IS_HEAVY_ATOM>  (2919) 
1 0 0 0 1 0 0 1 0 0 0 1 0 0 0 1 1 0 1 0 1 0 1 0 1 0

>  <DIFUSE_FUNC_ATOM>  (2919) 
n/a

>  <FINAL_SINGLE_POINT_ENERGY>  (2919) 
0

>  <NONCOV_INTER_ENERGY_QM>  (2919) 
0

>  <FF_Energy>  (2919) 
-6.76

>  <QM_Energy>  (2919) 
-12.34

>  <source>  (2919) 
ETAM_MBZ

>  <Index>  (2919) 
31537

$$$$
ETAM-pdb5cvm-A-LYS-334:MBZ-pdb5cvm-A-PHE-323
     RDKit          3D

 26 25  0  0  0  0  0  0  0  0999 V2000
   -1.9116    1.8316   -4.3644 C   0  0  0  0  0  0  0  0  0  0  0  0
   -1.8210    0.9985   -4.9100 H   0  0  0  0  0  0  0  0  0  0  0  0
   -2.1141    2.6046   -4.9656 H   0  0  0  0  0  0  0  0  0  0  0  0
   -2.7393    1.7044   -3.6665 H   0  0  0  0  0  0  0  0  0  0  0  0
   -0.6003    2.0953   -3.6615 C   0  0  0  0  0  0  0  0  0  0  0  0
    0.0149    2.5857   -4.2865 H   0  0  0  0  0  0  0  0  0  0  0  0
   -0.7682    2.6739   -2.8569 H   0  0  0  0  0  0  0  0  0  0  0  0
    0.0577    0.8344   -3.2230 N   0  0  0  0  0  4  0  0  0  0  0  0
   -0.5832    0.3000   -2.6731 H   0  0  0  0  0  0  0  0  0  0  0  0
    0.3313    0.3067   -4.0267 H   0  0  0  0  0  0  0  0  0  0  0  0
    0.8651    1.0546   -2.6762 H   0  0  0  0  0  0  0  0  0  0  0  0
    0.0001    2.9199    0.0067 C   0  0  0  0  0  0  0  0  0  0  0  0
   -0.7872    3.2224   -0.5168 H   0  0  0  0  0  0  0  0  0  0  0  0
    0.8425    3.2224   -0.4227 H   0  0  0  0  0  0  0  0  0  0  0  0
   -0.0566    3.3890    0.9890 H   0  0  0  0  0  0  0  0  0  0  0  0
   -0.0001    1.4091    0.0136 C   0  0  0  0  0  0  0  0  0  0  0  0
   -1.1967    0.6965   -0.0053 C   0  0  0  0  0  0  0  0  0  0  0  0
   -2.0640    1.1797   -0.0241 H   0  0  0  0  0  0  0  0  0  0  0  0
   -1.1952   -0.7038   -0.0000 C   0  0  0  0  0  0  0  0  0  0  0  0
   -2.0747   -1.1935    0.0088 H   0  0  0  0  0  0  0  0  0  0  0  0
    0.0015   -1.3948   -0.0055 C   0  0  0  0  0  0  0  0  0  0  0  0
   -0.0039   -2.3969   -0.0139 H   0  0  0  0  0  0  0  0  0  0  0  0
    1.1952   -0.7042   -0.0000 C   0  0  0  0  0  0  0  0  0  0  0  0
    2.0805   -1.1960    0.0081 H   0  0  0  0  0  0  0  0  0  0  0  0
    1.1953    0.6972   -0.0029 C   0  0  0  0  0  0  0  0  0  0  0  0
    2.0652    1.1858   -0.0174 H   0  0  0  0  0  0  0  0  0  0  0  0
  1  5  1  0
  5  8  1  0
  1  2  1  0
  1  3  1  0
  1  4  1  0
  5  6  1  0
  5  7  1  0
  8  9  1  0
  8 10  1  0
  8 11  1  0
 12 16  1  0
 16 17  2  0
 17 19  1  0
 19 21  2  0
 21 23  1  0
 23 25  2  0
 25 16  1  0
 12 13  1  0
 12 14  1  0
 12 15  1  0
 17 18  1  0
 19 20  1  0
 21 22  1  0
 23 24  1  0
 25 26  1  0
M  CHG  1   8   1
M  END
>  <PDB_ID>  (2920) 
pdb5cvm

>  <RESIDUE_NAME>  (2920) 
LYS   PHE

>  <FRAG_NAME>  (2920) 
ETAM   MBZ

>  <FRAG_ATOM_NUM>  (2920) 
fragi: 11  fragj: 15

>  <atom.prop.CHAIN_ID>  (2920) 
A A A A A A A A A A A Z Z Z Z Z Z Z Z Z Z Z Z Z Z Z

>  <atom.prop.IS_HEAVY_ATOM>  (2920) 
1 0 0 0 1 0 0 1 0 0 0 1 0 0 0 1 1 0 1 0 1 0 1 0 1 0

>  <DIFUSE_FUNC_ATOM>  (2920) 
n/a

>  <FINAL_SINGLE_POINT_ENERGY>  (2920) 
0

>  <NONCOV_INTER_ENERGY_QM>  (2920) 
0

>  <FF_Energy>  (2920) 
-8.87

>  <QM_Energy>  (2920) 
-15.6

>  <source>  (2920) 
ETAM_MBZ

>  <Index>  (2920) 
31543

$$$$
ETAM-pdb6cxo-B-LYS-356:MBZ-pdb6cxo-B-PHE-361
     RDKit          3D

 26 25  0  0  0  0  0  0  0  0999 V2000
    0.1443    1.2805    4.2550 C   0  0  0  0  0  0  0  0  0  0  0  0
    0.1225    0.6359    5.0367 H   0  0  0  0  0  0  0  0  0  0  0  0
   -0.0285    0.7417    3.4140 H   0  0  0  0  0  0  0  0  0  0  0  0
   -0.6584    2.0075    4.3778 H   0  0  0  0  0  0  0  0  0  0  0  0
    1.5113    1.8739    4.1669 C   0  0  0  0  0  0  0  0  0  0  0  0
    1.4737    2.7347    3.6554 H   0  0  0  0  0  0  0  0  0  0  0  0
    1.8619    2.0536    5.0877 H   0  0  0  0  0  0  0  0  0  0  0  0
    2.4434    0.9432    3.4726 N   0  0  0  0  0  4  0  0  0  0  0  0
    3.3856    1.2296    3.6436 H   0  0  0  0  0  0  0  0  0  0  0  0
    2.3059    0.0165    3.8202 H   0  0  0  0  0  0  0  0  0  0  0  0
    2.2603    0.9635    2.4904 H   0  0  0  0  0  0  0  0  0  0  0  0
    0.0004    2.9219   -0.0351 C   0  0  0  0  0  0  0  0  0  0  0  0
    0.9093    3.2329    0.2038 H   0  0  0  0  0  0  0  0  0  0  0  0
   -0.6703    3.2447    0.6184 H   0  0  0  0  0  0  0  0  0  0  0  0
   -0.2502    3.3575   -1.0023 H   0  0  0  0  0  0  0  0  0  0  0  0
   -0.0001    1.4069    0.0032 C   0  0  0  0  0  0  0  0  0  0  0  0
   -1.1952    0.6927   -0.0006 C   0  0  0  0  0  0  0  0  0  0  0  0
   -2.0642    1.1774   -0.0050 H   0  0  0  0  0  0  0  0  0  0  0  0
   -1.1951   -0.7051   -0.0000 C   0  0  0  0  0  0  0  0  0  0  0  0
   -2.0734   -1.1949    0.0098 H   0  0  0  0  0  0  0  0  0  0  0  0
    0.0013   -1.3909   -0.0104 C   0  0  0  0  0  0  0  0  0  0  0  0
   -0.0005   -2.3945   -0.0267 H   0  0  0  0  0  0  0  0  0  0  0  0
    1.1951   -0.7000    0.0000 C   0  0  0  0  0  0  0  0  0  0  0  0
    2.0800   -1.1938    0.0040 H   0  0  0  0  0  0  0  0  0  0  0  0
    1.1939    0.6963    0.0078 C   0  0  0  0  0  0  0  0  0  0  0  0
    2.0639    1.1873    0.0158 H   0  0  0  0  0  0  0  0  0  0  0  0
  1  5  1  0
  5  8  1  0
  1  2  1  0
  1  3  1  0
  1  4  1  0
  5  6  1  0
  5  7  1  0
  8  9  1  0
  8 10  1  0
  8 11  1  0
 12 16  1  0
 16 17  2  0
 17 19  1  0
 19 21  2  0
 21 23  1  0
 23 25  2  0
 25 16  1  0
 12 13  1  0
 12 14  1  0
 12 15  1  0
 17 18  1  0
 19 20  1  0
 21 22  1  0
 23 24  1  0
 25 26  1  0
M  CHG  1   8   1
M  END
>  <PDB_ID>  (2921) 
pdb6cxo

>  <RESIDUE_NAME>  (2921) 
LYS   PHE

>  <FRAG_NAME>  (2921) 
ETAM   MBZ

>  <FRAG_ATOM_NUM>  (2921) 
fragi: 11  fragj: 15

>  <atom.prop.CHAIN_ID>  (2921) 
A A A A A A A A A A A Z Z Z Z Z Z Z Z Z Z Z Z Z Z Z

>  <atom.prop.IS_HEAVY_ATOM>  (2921) 
1 0 0 0 1 0 0 1 0 0 0 1 0 0 0 1 1 0 1 0 1 0 1 0 1 0

>  <DIFUSE_FUNC_ATOM>  (2921) 
n/a

>  <FINAL_SINGLE_POINT_ENERGY>  (2921) 
0

>  <NONCOV_INTER_ENERGY_QM>  (2921) 
0

>  <FF_Energy>  (2921) 
-4.72

>  <QM_Energy>  (2921) 
-9.76

>  <source>  (2921) 
ETAM_MBZ

>  <Index>  (2921) 
31570

$$$$
ETAM-pdb5cxk-D-LYS-19:MBZ-pdb5cxk-D-PHE-26
     RDKit          3D

 26 25  0  0  0  0  0  0  0  0999 V2000
    4.0134    1.2468    2.7160 C   0  0  0  0  0  0  0  0  0  0  0  0
    4.4144    2.0907    3.0608 H   0  0  0  0  0  0  0  0  0  0  0  0
    3.9236    1.2883    1.7250 H   0  0  0  0  0  0  0  0  0  0  0  0
    4.6704    0.4162    2.9739 H   0  0  0  0  0  0  0  0  0  0  0  0
    2.6356    1.0787    3.3235 C   0  0  0  0  0  0  0  0  0  0  0  0
    2.2362    0.2216    2.9987 H   0  0  0  0  0  0  0  0  0  0  0  0
    2.7176    1.0513    4.3200 H   0  0  0  0  0  0  0  0  0  0  0  0
    1.7460    2.2089    2.9384 N   0  0  0  0  0  4  0  0  0  0  0  0
    2.1810    2.7411    2.2130 H   0  0  0  0  0  0  0  0  0  0  0  0
    0.8738    1.8476    2.6113 H   0  0  0  0  0  0  0  0  0  0  0  0
    1.5891    2.7934    3.7338 H   0  0  0  0  0  0  0  0  0  0  0  0
    0.0021    2.8935    0.0149 C   0  0  0  0  0  0  0  0  0  0  0  0
    0.9340    3.1980    0.1484 H   0  0  0  0  0  0  0  0  0  0  0  0
   -0.5820    3.1940    0.7554 H   0  0  0  0  0  0  0  0  0  0  0  0
   -0.3683    3.3434   -0.9061 H   0  0  0  0  0  0  0  0  0  0  0  0
   -0.0002    1.3960   -0.0002 C   0  0  0  0  0  0  0  0  0  0  0  0
   -1.1980    0.6889   -0.0040 C   0  0  0  0  0  0  0  0  0  0  0  0
   -2.0625    1.1823   -0.0112 H   0  0  0  0  0  0  0  0  0  0  0  0
   -1.2006   -0.6934    0.0000 C   0  0  0  0  0  0  0  0  0  0  0  0
   -2.0760   -1.1919    0.0034 H   0  0  0  0  0  0  0  0  0  0  0  0
    0.0011   -1.3861    0.0012 C   0  0  0  0  0  0  0  0  0  0  0  0
   -0.0043   -2.3878    0.0023 H   0  0  0  0  0  0  0  0  0  0  0  0
    1.2006   -0.6960   -0.0000 C   0  0  0  0  0  0  0  0  0  0  0  0
    2.0809   -1.1951   -0.0016 H   0  0  0  0  0  0  0  0  0  0  0  0
    1.1971    0.6905    0.0030 C   0  0  0  0  0  0  0  0  0  0  0  0
    2.0643    1.1890    0.0069 H   0  0  0  0  0  0  0  0  0  0  0  0
  1  5  1  0
  5  8  1  0
  1  2  1  0
  1  3  1  0
  1  4  1  0
  5  6  1  0
  5  7  1  0
  8  9  1  0
  8 10  1  0
  8 11  1  0
 12 16  1  0
 16 17  2  0
 17 19  1  0
 19 21  2  0
 21 23  1  0
 23 25  2  0
 25 16  1  0
 12 13  1  0
 12 14  1  0
 12 15  1  0
 17 18  1  0
 19 20  1  0
 21 22  1  0
 23 24  1  0
 25 26  1  0
M  CHG  1   8   1
M  END
>  <PDB_ID>  (2922) 
pdb5cxk

>  <RESIDUE_NAME>  (2922) 
LYS   PHE

>  <FRAG_NAME>  (2922) 
ETAM   MBZ

>  <FRAG_ATOM_NUM>  (2922) 
fragi: 11  fragj: 15

>  <atom.prop.CHAIN_ID>  (2922) 
A A A A A A A A A A A Z Z Z Z Z Z Z Z Z Z Z Z Z Z Z

>  <atom.prop.IS_HEAVY_ATOM>  (2922) 
1 0 0 0 1 0 0 1 0 0 0 1 0 0 0 1 1 0 1 0 1 0 1 0 1 0

>  <DIFUSE_FUNC_ATOM>  (2922) 
n/a

>  <FINAL_SINGLE_POINT_ENERGY>  (2922) 
0

>  <NONCOV_INTER_ENERGY_QM>  (2922) 
0

>  <FF_Energy>  (2922) 
-5.13

>  <QM_Energy>  (2922) 
-10.18

>  <source>  (2922) 
ETAM_MBZ

>  <Index>  (2922) 
31575

$$$$
ETAM-pdb5d08-A-LYS-123:MBZ-pdb5d08-A-PHE-119
     RDKit          3D

 26 25  0  0  0  0  0  0  0  0999 V2000
   -0.2570   -1.6419    5.0718 C   0  0  0  0  0  0  0  0  0  0  0  0
   -0.1327   -2.5295    5.4934 H   0  0  0  0  0  0  0  0  0  0  0  0
   -1.0572   -1.1848    5.4340 H   0  0  0  0  0  0  0  0  0  0  0  0
    0.6222   -1.0297    5.2719 H   0  0  0  0  0  0  0  0  0  0  0  0
   -0.4438   -1.8358    3.5730 C   0  0  0  0  0  0  0  0  0  0  0  0
   -0.4779   -0.9290    3.1301 H   0  0  0  0  0  0  0  0  0  0  0  0
    0.3575   -2.3294    3.2073 H   0  0  0  0  0  0  0  0  0  0  0  0
   -1.6793   -2.5928    3.2241 N   0  0  0  0  0  4  0  0  0  0  0  0
   -1.6626   -3.4818    3.6802 H   0  0  0  0  0  0  0  0  0  0  0  0
   -2.4801   -2.0763    3.5254 H   0  0  0  0  0  0  0  0  0  0  0  0
   -1.7175   -2.7241    2.2348 H   0  0  0  0  0  0  0  0  0  0  0  0
   -0.0029    2.9017    0.0073 C   0  0  0  0  0  0  0  0  0  0  0  0
   -0.7477    3.2108   -0.5642 H   0  0  0  0  0  0  0  0  0  0  0  0
    0.8695    3.2115   -0.3374 H   0  0  0  0  0  0  0  0  0  0  0  0
   -0.1413    3.3382    0.9965 H   0  0  0  0  0  0  0  0  0  0  0  0
   -0.0020    1.3992    0.0018 C   0  0  0  0  0  0  0  0  0  0  0  0
   -1.1944    0.6892   -0.0001 C   0  0  0  0  0  0  0  0  0  0  0  0
   -2.0632    1.1778   -0.0024 H   0  0  0  0  0  0  0  0  0  0  0  0
   -1.1970   -0.7004   -0.0000 C   0  0  0  0  0  0  0  0  0  0  0  0
   -2.0720   -1.1961    0.0022 H   0  0  0  0  0  0  0  0  0  0  0  0
    0.0045   -1.3899   -0.0011 C   0  0  0  0  0  0  0  0  0  0  0  0
    0.0035   -2.3901   -0.0031 H   0  0  0  0  0  0  0  0  0  0  0  0
    1.1970   -0.6920    0.0000 C   0  0  0  0  0  0  0  0  0  0  0  0
    2.0828   -1.1890    0.0028 H   0  0  0  0  0  0  0  0  0  0  0  0
    1.1919    0.6940   -0.0005 C   0  0  0  0  0  0  0  0  0  0  0  0
    2.0604    1.1918   -0.0032 H   0  0  0  0  0  0  0  0  0  0  0  0
  1  5  1  0
  5  8  1  0
  1  2  1  0
  1  3  1  0
  1  4  1  0
  5  6  1  0
  5  7  1  0
  8  9  1  0
  8 10  1  0
  8 11  1  0
 12 16  1  0
 16 17  2  0
 17 19  1  0
 19 21  2  0
 21 23  1  0
 23 25  2  0
 25 16  1  0
 12 13  1  0
 12 14  1  0
 12 15  1  0
 17 18  1  0
 19 20  1  0
 21 22  1  0
 23 24  1  0
 25 26  1  0
M  CHG  1   8   1
M  END
>  <PDB_ID>  (2923) 
pdb5d08

>  <RESIDUE_NAME>  (2923) 
LYS   PHE

>  <FRAG_NAME>  (2923) 
ETAM   MBZ

>  <FRAG_ATOM_NUM>  (2923) 
fragi: 11  fragj: 15

>  <atom.prop.CHAIN_ID>  (2923) 
A A A A A A A A A A A Z Z Z Z Z Z Z Z Z Z Z Z Z Z Z

>  <atom.prop.IS_HEAVY_ATOM>  (2923) 
1 0 0 0 1 0 0 1 0 0 0 1 0 0 0 1 1 0 1 0 1 0 1 0 1 0

>  <DIFUSE_FUNC_ATOM>  (2923) 
n/a

>  <FINAL_SINGLE_POINT_ENERGY>  (2923) 
0

>  <NONCOV_INTER_ENERGY_QM>  (2923) 
0

>  <FF_Energy>  (2923) 
-3.41

>  <QM_Energy>  (2923) 
-8.49

>  <source>  (2923) 
ETAM_MBZ

>  <Index>  (2923) 
31630

$$$$
ETAM-pdb6d8w-D-LYS-171:MBZ-pdb6d8w-D-PHE-116
     RDKit          3D

 26 25  0  0  0  0  0  0  0  0999 V2000
   -1.1213   -0.1552    5.0550 C   0  0  0  0  0  0  0  0  0  0  0  0
   -1.9581    0.3576    5.1918 H   0  0  0  0  0  0  0  0  0  0  0  0
   -0.5669   -0.1587    5.8753 H   0  0  0  0  0  0  0  0  0  0  0  0
   -1.3744   -1.1827    4.7936 H   0  0  0  0  0  0  0  0  0  0  0  0
   -0.3370    0.4774    3.9361 C   0  0  0  0  0  0  0  0  0  0  0  0
   -0.9637    0.8035    3.2339 H   0  0  0  0  0  0  0  0  0  0  0  0
    0.2008    1.2360    4.2935 H   0  0  0  0  0  0  0  0  0  0  0  0
    0.5855   -0.5303    3.3343 N   0  0  0  0  0  4  0  0  0  0  0  0
    1.5281   -0.2136    3.4324 H   0  0  0  0  0  0  0  0  0  0  0  0
    0.4722   -1.4035    3.8066 H   0  0  0  0  0  0  0  0  0  0  0  0
    0.3664   -0.6397    2.3661 H   0  0  0  0  0  0  0  0  0  0  0  0
   -0.0015    2.9196    0.0124 C   0  0  0  0  0  0  0  0  0  0  0  0
    0.8707    3.2219    0.3613 H   0  0  0  0  0  0  0  0  0  0  0  0
   -0.7477    3.2194    0.5839 H   0  0  0  0  0  0  0  0  0  0  0  0
   -0.1382    3.3638   -0.9736 H   0  0  0  0  0  0  0  0  0  0  0  0
    0.0008    1.3994    0.0099 C   0  0  0  0  0  0  0  0  0  0  0  0
   -1.1917    0.6859   -0.0162 C   0  0  0  0  0  0  0  0  0  0  0  0
   -2.0600    1.1804   -0.0486 H   0  0  0  0  0  0  0  0  0  0  0  0
   -1.1990   -0.6954    0.0000 C   0  0  0  0  0  0  0  0  0  0  0  0
   -2.0771   -1.1902    0.0105 H   0  0  0  0  0  0  0  0  0  0  0  0
   -0.0042   -1.3858    0.0030 C   0  0  0  0  0  0  0  0  0  0  0  0
   -0.0059   -2.3883    0.0063 H   0  0  0  0  0  0  0  0  0  0  0  0
    1.1990   -0.6952    0.0000 C   0  0  0  0  0  0  0  0  0  0  0  0
    2.0775   -1.1962   -0.0032 H   0  0  0  0  0  0  0  0  0  0  0  0
    1.1951    0.6911    0.0034 C   0  0  0  0  0  0  0  0  0  0  0  0
    2.0639    1.1882    0.0004 H   0  0  0  0  0  0  0  0  0  0  0  0
  1  5  1  0
  5  8  1  0
  1  2  1  0
  1  3  1  0
  1  4  1  0
  5  6  1  0
  5  7  1  0
  8  9  1  0
  8 10  1  0
  8 11  1  0
 12 16  1  0
 16 17  2  0
 17 19  1  0
 19 21  2  0
 21 23  1  0
 23 25  2  0
 25 16  1  0
 12 13  1  0
 12 14  1  0
 12 15  1  0
 17 18  1  0
 19 20  1  0
 21 22  1  0
 23 24  1  0
 25 26  1  0
M  CHG  1   8   1
M  END
>  <PDB_ID>  (2924) 
pdb6d8w

>  <RESIDUE_NAME>  (2924) 
LYS   PHE

>  <FRAG_NAME>  (2924) 
ETAM   MBZ

>  <FRAG_ATOM_NUM>  (2924) 
fragi: 11  fragj: 15

>  <atom.prop.CHAIN_ID>  (2924) 
A A A A A A A A A A A Z Z Z Z Z Z Z Z Z Z Z Z Z Z Z

>  <atom.prop.IS_HEAVY_ATOM>  (2924) 
1 0 0 0 1 0 0 1 0 0 0 1 0 0 0 1 1 0 1 0 1 0 1 0 1 0

>  <DIFUSE_FUNC_ATOM>  (2924) 
n/a

>  <FINAL_SINGLE_POINT_ENERGY>  (2924) 
0

>  <NONCOV_INTER_ENERGY_QM>  (2924) 
0

>  <FF_Energy>  (2924) 
-8.9

>  <QM_Energy>  (2924) 
-16.07

>  <source>  (2924) 
ETAM_MBZ

>  <Index>  (2924) 
31720

$$$$
ETAM-pdb5cx3-B-LYS-51:MBZ-pdb5cx3-F-PHE-1280
     RDKit          3D

 26 25  0  0  0  0  0  0  0  0999 V2000
   -0.2305   -1.3434   -4.0095 C   0  0  0  0  0  0  0  0  0  0  0  0
   -0.3134   -1.9478   -3.2194 H   0  0  0  0  0  0  0  0  0  0  0  0
    0.1188   -1.8558   -4.7920 H   0  0  0  0  0  0  0  0  0  0  0  0
   -1.2211   -0.9627   -4.2586 H   0  0  0  0  0  0  0  0  0  0  0  0
    0.7265   -0.2365   -3.6822 C   0  0  0  0  0  0  0  0  0  0  0  0
    0.7214    0.4407   -4.4234 H   0  0  0  0  0  0  0  0  0  0  0  0
    0.4397    0.2136   -2.8314 H   0  0  0  0  0  0  0  0  0  0  0  0
    2.1102   -0.7523   -3.5109 N   0  0  0  0  0  4  0  0  0  0  0  0
    2.1730   -1.6704   -3.9018 H   0  0  0  0  0  0  0  0  0  0  0  0
    2.7511   -0.1450   -3.9793 H   0  0  0  0  0  0  0  0  0  0  0  0
    2.3336   -0.7876   -2.5371 H   0  0  0  0  0  0  0  0  0  0  0  0
   -0.0045    2.8619    0.0164 C   0  0  0  0  0  0  0  0  0  0  0  0
    0.7417    3.1714    0.5918 H   0  0  0  0  0  0  0  0  0  0  0  0
   -0.8767    3.1691    0.3745 H   0  0  0  0  0  0  0  0  0  0  0  0
    0.1266    3.3091   -0.9690 H   0  0  0  0  0  0  0  0  0  0  0  0
   -0.0007    1.3812    0.0037 C   0  0  0  0  0  0  0  0  0  0  0  0
   -1.1845    0.6825   -0.0045 C   0  0  0  0  0  0  0  0  0  0  0  0
   -2.0546    1.1794   -0.0150 H   0  0  0  0  0  0  0  0  0  0  0  0
   -1.1928   -0.6876    0.0000 C   0  0  0  0  0  0  0  0  0  0  0  0
   -2.0720   -1.1853    0.0059 H   0  0  0  0  0  0  0  0  0  0  0  0
   -0.0036   -1.3759   -0.0019 C   0  0  0  0  0  0  0  0  0  0  0  0
   -0.0047   -2.3790   -0.0054 H   0  0  0  0  0  0  0  0  0  0  0  0
    1.1928   -0.6857   -0.0000 C   0  0  0  0  0  0  0  0  0  0  0  0
    2.0737   -1.1913    0.0010 H   0  0  0  0  0  0  0  0  0  0  0  0
    1.1889    0.6854    0.0027 C   0  0  0  0  0  0  0  0  0  0  0  0
    2.0566    1.1889    0.0027 H   0  0  0  0  0  0  0  0  0  0  0  0
  1  5  1  0
  5  8  1  0
  1  2  1  0
  1  3  1  0
  1  4  1  0
  5  6  1  0
  5  7  1  0
  8  9  1  0
  8 10  1  0
  8 11  1  0
 12 16  1  0
 16 17  2  0
 17 19  1  0
 19 21  2  0
 21 23  1  0
 23 25  2  0
 25 16  1  0
 12 13  1  0
 12 14  1  0
 12 15  1  0
 17 18  1  0
 19 20  1  0
 21 22  1  0
 23 24  1  0
 25 26  1  0
M  CHG  1   8   1
M  END
>  <PDB_ID>  (2925) 
pdb5cx3

>  <RESIDUE_NAME>  (2925) 
LYS   PHE

>  <FRAG_NAME>  (2925) 
ETAM   MBZ

>  <FRAG_ATOM_NUM>  (2925) 
fragi: 11  fragj: 15

>  <atom.prop.CHAIN_ID>  (2925) 
A A A A A A A A A A A Z Z Z Z Z Z Z Z Z Z Z Z Z Z Z

>  <atom.prop.IS_HEAVY_ATOM>  (2925) 
1 0 0 0 1 0 0 1 0 0 0 1 0 0 0 1 1 0 1 0 1 0 1 0 1 0

>  <DIFUSE_FUNC_ATOM>  (2925) 
n/a

>  <FINAL_SINGLE_POINT_ENERGY>  (2925) 
0

>  <NONCOV_INTER_ENERGY_QM>  (2925) 
0

>  <FF_Energy>  (2925) 
-5.57

>  <QM_Energy>  (2925) 
-11.66

>  <source>  (2925) 
ETAM_MBZ

>  <Index>  (2925) 
31736

$$$$
ETAM-pdb5dag-A-LYS-203:MBZ-pdb5dag-A-PHE-198
     RDKit          3D

 26 25  0  0  0  0  0  0  0  0999 V2000
   -0.4170   -2.3637    3.9338 C   0  0  0  0  0  0  0  0  0  0  0  0
   -0.3998   -2.9228    3.1108 H   0  0  0  0  0  0  0  0  0  0  0  0
   -1.3169   -2.3940    4.3552 H   0  0  0  0  0  0  0  0  0  0  0  0
    0.3147   -2.7563    4.6400 H   0  0  0  0  0  0  0  0  0  0  0  0
   -0.1122   -0.9167    3.5437 C   0  0  0  0  0  0  0  0  0  0  0  0
   -0.2664   -0.8100    2.5553 H   0  0  0  0  0  0  0  0  0  0  0  0
   -0.7473   -0.3101    4.0337 H   0  0  0  0  0  0  0  0  0  0  0  0
    1.2902   -0.5171    3.8657 N   0  0  0  0  0  4  0  0  0  0  0  0
    1.2864    0.0843    4.6634 H   0  0  0  0  0  0  0  0  0  0  0  0
    1.8284   -1.3350    4.0620 H   0  0  0  0  0  0  0  0  0  0  0  0
    1.6832   -0.0357    3.0837 H   0  0  0  0  0  0  0  0  0  0  0  0
    0.0015    2.9020   -0.0195 C   0  0  0  0  0  0  0  0  0  0  0  0
   -0.7036    3.1959   -0.6489 H   0  0  0  0  0  0  0  0  0  0  0  0
    0.8955    3.2017   -0.3194 H   0  0  0  0  0  0  0  0  0  0  0  0
   -0.1985    3.3677    0.9456 H   0  0  0  0  0  0  0  0  0  0  0  0
    0.0013    1.3952    0.0069 C   0  0  0  0  0  0  0  0  0  0  0  0
   -1.1884    0.6913    0.0004 C   0  0  0  0  0  0  0  0  0  0  0  0
   -2.0581    1.1797   -0.0055 H   0  0  0  0  0  0  0  0  0  0  0  0
   -1.1934   -0.6988   -0.0000 C   0  0  0  0  0  0  0  0  0  0  0  0
   -2.0740   -1.1879    0.0039 H   0  0  0  0  0  0  0  0  0  0  0  0
   -0.0047   -1.3833   -0.0043 C   0  0  0  0  0  0  0  0  0  0  0  0
   -0.0051   -2.3889   -0.0112 H   0  0  0  0  0  0  0  0  0  0  0  0
    1.1934   -0.6964    0.0000 C   0  0  0  0  0  0  0  0  0  0  0  0
    2.0741   -1.1958    0.0072 H   0  0  0  0  0  0  0  0  0  0  0  0
    1.1919    0.6921   -0.0030 C   0  0  0  0  0  0  0  0  0  0  0  0
    2.0618    1.1856   -0.0131 H   0  0  0  0  0  0  0  0  0  0  0  0
  1  5  1  0
  5  8  1  0
  1  2  1  0
  1  3  1  0
  1  4  1  0
  5  6  1  0
  5  7  1  0
  8  9  1  0
  8 10  1  0
  8 11  1  0
 12 16  1  0
 16 17  2  0
 17 19  1  0
 19 21  2  0
 21 23  1  0
 23 25  2  0
 25 16  1  0
 12 13  1  0
 12 14  1  0
 12 15  1  0
 17 18  1  0
 19 20  1  0
 21 22  1  0
 23 24  1  0
 25 26  1  0
M  CHG  1   8   1
M  END
>  <PDB_ID>  (2926) 
pdb5dag

>  <RESIDUE_NAME>  (2926) 
LYS   PHE

>  <FRAG_NAME>  (2926) 
ETAM   MBZ

>  <FRAG_ATOM_NUM>  (2926) 
fragi: 11  fragj: 15

>  <atom.prop.CHAIN_ID>  (2926) 
A A A A A A A A A A A Z Z Z Z Z Z Z Z Z Z Z Z Z Z Z

>  <atom.prop.IS_HEAVY_ATOM>  (2926) 
1 0 0 0 1 0 0 1 0 0 0 1 0 0 0 1 1 0 1 0 1 0 1 0 1 0

>  <DIFUSE_FUNC_ATOM>  (2926) 
n/a

>  <FINAL_SINGLE_POINT_ENERGY>  (2926) 
0

>  <NONCOV_INTER_ENERGY_QM>  (2926) 
0

>  <FF_Energy>  (2926) 
-5.61

>  <QM_Energy>  (2926) 
-11.47

>  <source>  (2926) 
ETAM_MBZ

>  <Index>  (2926) 
31774

$$$$
ETAM-pdb6deh-A-LYS-304:MBZ-pdb6deh-A-PHE-271
     RDKit          3D

 26 25  0  0  0  0  0  0  0  0999 V2000
    0.4608   -1.3313   -4.1332 C   0  0  0  0  0  0  0  0  0  0  0  0
    0.9111   -2.0522   -3.6452 H   0  0  0  0  0  0  0  0  0  0  0  0
    0.6877   -1.3166   -5.0866 H   0  0  0  0  0  0  0  0  0  0  0  0
   -0.6147   -1.4840   -4.0439 H   0  0  0  0  0  0  0  0  0  0  0  0
    0.8431    0.0174   -3.5037 C   0  0  0  0  0  0  0  0  0  0  0  0
    0.4011    0.7565   -4.0034 H   0  0  0  0  0  0  0  0  0  0  0  0
    0.5602    0.0326   -2.5490 H   0  0  0  0  0  0  0  0  0  0  0  0
    2.3780    0.2703   -3.5454 N   0  0  0  0  0  4  0  0  0  0  0  0
    2.5184    1.2487   -3.5504 H   0  0  0  0  0  0  0  0  0  0  0  0
    2.7703   -0.1457   -2.7388 H   0  0  0  0  0  0  0  0  0  0  0  0
    2.7261   -0.1477   -4.3712 H   0  0  0  0  0  0  0  0  0  0  0  0
   -0.0206    2.8862    0.0612 C   0  0  0  0  0  0  0  0  0  0  0  0
   -0.7928    3.2298   -0.4434 H   0  0  0  0  0  0  0  0  0  0  0  0
    0.8330    3.2305   -0.2895 H   0  0  0  0  0  0  0  0  0  0  0  0
   -0.1178    3.2413    1.0871 H   0  0  0  0  0  0  0  0  0  0  0  0
   -0.0114    1.4081   -0.0261 C   0  0  0  0  0  0  0  0  0  0  0  0
   -1.2091    0.6965    0.0097 C   0  0  0  0  0  0  0  0  0  0  0  0
   -2.0756    1.1764    0.0408 H   0  0  0  0  0  0  0  0  0  0  0  0
   -1.2059   -0.7084    0.0000 C   0  0  0  0  0  0  0  0  0  0  0  0
   -2.0680   -1.2085   -0.0114 H   0  0  0  0  0  0  0  0  0  0  0  0
    0.0231   -1.4004    0.0087 C   0  0  0  0  0  0  0  0  0  0  0  0
    0.0156   -2.3973    0.0207 H   0  0  0  0  0  0  0  0  0  0  0  0
    1.2059   -0.6961   -0.0000 C   0  0  0  0  0  0  0  0  0  0  0  0
    2.0985   -1.1819   -0.0106 H   0  0  0  0  0  0  0  0  0  0  0  0
    1.1974    0.7003    0.0078 C   0  0  0  0  0  0  0  0  0  0  0  0
    2.0586    1.2004    0.0372 H   0  0  0  0  0  0  0  0  0  0  0  0
  1  5  1  0
  5  8  1  0
  1  2  1  0
  1  3  1  0
  1  4  1  0
  5  6  1  0
  5  7  1  0
  8  9  1  0
  8 10  1  0
  8 11  1  0
 12 16  1  0
 16 17  2  0
 17 19  1  0
 19 21  2  0
 21 23  1  0
 23 25  2  0
 25 16  1  0
 12 13  1  0
 12 14  1  0
 12 15  1  0
 17 18  1  0
 19 20  1  0
 21 22  1  0
 23 24  1  0
 25 26  1  0
M  CHG  1   8   1
M  END
>  <PDB_ID>  (2927) 
pdb6deh

>  <RESIDUE_NAME>  (2927) 
LYS   PHE

>  <FRAG_NAME>  (2927) 
ETAM   MBZ

>  <FRAG_ATOM_NUM>  (2927) 
fragi: 11  fragj: 15

>  <atom.prop.CHAIN_ID>  (2927) 
A A A A A A A A A A A Z Z Z Z Z Z Z Z Z Z Z Z Z Z Z

>  <atom.prop.IS_HEAVY_ATOM>  (2927) 
1 0 0 0 1 0 0 1 0 0 0 1 0 0 0 1 1 0 1 0 1 0 1 0 1 0

>  <DIFUSE_FUNC_ATOM>  (2927) 
n/a

>  <FINAL_SINGLE_POINT_ENERGY>  (2927) 
0

>  <NONCOV_INTER_ENERGY_QM>  (2927) 
0

>  <FF_Energy>  (2927) 
-5.08

>  <QM_Energy>  (2927) 
-10.75

>  <source>  (2927) 
ETAM_MBZ

>  <Index>  (2927) 
31781

$$$$
ETAM-pdb5dcq-F-LYS-165:MBZ-pdb5dcq-F-PHE-161
     RDKit          3D

 26 25  0  0  0  0  0  0  0  0999 V2000
   -2.6322   -1.9121    3.9019 C   0  0  0  0  0  0  0  0  0  0  0  0
   -2.4805   -2.8021    4.3229 H   0  0  0  0  0  0  0  0  0  0  0  0
   -3.3643   -1.4300    4.3740 H   0  0  0  0  0  0  0  0  0  0  0  0
   -1.7164   -1.3259    3.9771 H   0  0  0  0  0  0  0  0  0  0  0  0
   -3.0367   -2.1181    2.4613 C   0  0  0  0  0  0  0  0  0  0  0  0
   -2.4491   -1.5611    1.8710 H   0  0  0  0  0  0  0  0  0  0  0  0
   -2.9218   -3.0843    2.2214 H   0  0  0  0  0  0  0  0  0  0  0  0
   -4.4570   -1.7286    2.2390 N   0  0  0  0  0  4  0  0  0  0  0  0
   -4.6532   -0.8890    2.7448 H   0  0  0  0  0  0  0  0  0  0  0  0
   -4.6091   -1.5750    1.2635 H   0  0  0  0  0  0  0  0  0  0  0  0
   -5.0553   -2.4620    2.5602 H   0  0  0  0  0  0  0  0  0  0  0  0
    0.0002    2.9061    0.0034 C   0  0  0  0  0  0  0  0  0  0  0  0
   -0.5787    3.2060   -0.7414 H   0  0  0  0  0  0  0  0  0  0  0  0
    0.9336    3.2072   -0.1271 H   0  0  0  0  0  0  0  0  0  0  0  0
   -0.3725    3.3614    0.9209 H   0  0  0  0  0  0  0  0  0  0  0  0
   -0.0012    1.3956    0.0117 C   0  0  0  0  0  0  0  0  0  0  0  0
   -1.1928    0.6919   -0.0058 C   0  0  0  0  0  0  0  0  0  0  0  0
   -2.0597    1.1860   -0.0236 H   0  0  0  0  0  0  0  0  0  0  0  0
   -1.1970   -0.6862   -0.0000 C   0  0  0  0  0  0  0  0  0  0  0  0
   -2.0751   -1.1847    0.0066 H   0  0  0  0  0  0  0  0  0  0  0  0
    0.0015   -1.3883   -0.0015 C   0  0  0  0  0  0  0  0  0  0  0  0
   -0.0119   -2.3888   -0.0044 H   0  0  0  0  0  0  0  0  0  0  0  0
    1.1970   -0.7030   -0.0000 C   0  0  0  0  0  0  0  0  0  0  0  0
    2.0790   -1.1977    0.0059 H   0  0  0  0  0  0  0  0  0  0  0  0
    1.1925    0.6900   -0.0044 C   0  0  0  0  0  0  0  0  0  0  0  0
    2.0615    1.1844   -0.0196 H   0  0  0  0  0  0  0  0  0  0  0  0
  1  5  1  0
  5  8  1  0
  1  2  1  0
  1  3  1  0
  1  4  1  0
  5  6  1  0
  5  7  1  0
  8  9  1  0
  8 10  1  0
  8 11  1  0
 12 16  1  0
 16 17  2  0
 17 19  1  0
 19 21  2  0
 21 23  1  0
 23 25  2  0
 25 16  1  0
 12 13  1  0
 12 14  1  0
 12 15  1  0
 17 18  1  0
 19 20  1  0
 21 22  1  0
 23 24  1  0
 25 26  1  0
M  CHG  1   8   1
M  END
>  <PDB_ID>  (2928) 
pdb5dcq

>  <RESIDUE_NAME>  (2928) 
LYS   PHE

>  <FRAG_NAME>  (2928) 
ETAM   MBZ

>  <FRAG_ATOM_NUM>  (2928) 
fragi: 11  fragj: 15

>  <atom.prop.CHAIN_ID>  (2928) 
A A A A A A A A A A A Z Z Z Z Z Z Z Z Z Z Z Z Z Z Z

>  <atom.prop.IS_HEAVY_ATOM>  (2928) 
1 0 0 0 1 0 0 1 0 0 0 1 0 0 0 1 1 0 1 0 1 0 1 0 1 0

>  <DIFUSE_FUNC_ATOM>  (2928) 
n/a

>  <FINAL_SINGLE_POINT_ENERGY>  (2928) 
0

>  <NONCOV_INTER_ENERGY_QM>  (2928) 
0

>  <FF_Energy>  (2928) 
2.31

>  <QM_Energy>  (2928) 
-3.18

>  <source>  (2928) 
ETAM_MBZ

>  <Index>  (2928) 
31790

$$$$
ETAM-pdb5d4u-C-LYS-172:MBZ-pdb5d4u-D-PHE-145
     RDKit          3D

 26 25  0  0  0  0  0  0  0  0999 V2000
   -0.7886    0.3167    3.9478 C   0  0  0  0  0  0  0  0  0  0  0  0
   -1.0045    1.1847    4.3809 H   0  0  0  0  0  0  0  0  0  0  0  0
   -0.7437    0.4221    2.9601 H   0  0  0  0  0  0  0  0  0  0  0  0
    0.1783   -0.0298    4.3128 H   0  0  0  0  0  0  0  0  0  0  0  0
   -1.8923   -0.6774    4.2787 C   0  0  0  0  0  0  0  0  0  0  0  0
   -1.8209   -0.9301    5.2493 H   0  0  0  0  0  0  0  0  0  0  0  0
   -2.7831   -0.2359    4.1273 H   0  0  0  0  0  0  0  0  0  0  0  0
   -1.8120   -1.9098    3.4471 N   0  0  0  0  0  4  0  0  0  0  0  0
   -2.5764   -2.5131    3.6735 H   0  0  0  0  0  0  0  0  0  0  0  0
   -1.8570   -1.6607    2.4803 H   0  0  0  0  0  0  0  0  0  0  0  0
   -0.9492   -2.3788    3.6323 H   0  0  0  0  0  0  0  0  0  0  0  0
    0.0032    2.8993    0.0044 C   0  0  0  0  0  0  0  0  0  0  0  0
    0.8327    3.2053   -0.4401 H   0  0  0  0  0  0  0  0  0  0  0  0
   -0.0311    3.2026    0.9457 H   0  0  0  0  0  0  0  0  0  0  0  0
   -0.8401    3.3487   -0.5199 H   0  0  0  0  0  0  0  0  0  0  0  0
   -0.0005    1.3952   -0.0013 C   0  0  0  0  0  0  0  0  0  0  0  0
   -1.1906    0.6898    0.0012 C   0  0  0  0  0  0  0  0  0  0  0  0
   -2.0590    1.1809    0.0026 H   0  0  0  0  0  0  0  0  0  0  0  0
   -1.1945   -0.6936   -0.0000 C   0  0  0  0  0  0  0  0  0  0  0  0
   -2.0732   -1.1884    0.0004 H   0  0  0  0  0  0  0  0  0  0  0  0
   -0.0003   -1.3856   -0.0002 C   0  0  0  0  0  0  0  0  0  0  0  0
   -0.0043   -2.3872   -0.0006 H   0  0  0  0  0  0  0  0  0  0  0  0
    1.1945   -0.6942    0.0000 C   0  0  0  0  0  0  0  0  0  0  0  0
    2.0773   -1.1939    0.0016 H   0  0  0  0  0  0  0  0  0  0  0  0
    1.1915    0.6885    0.0003 C   0  0  0  0  0  0  0  0  0  0  0  0
    2.0611    1.1863    0.0016 H   0  0  0  0  0  0  0  0  0  0  0  0
  1  5  1  0
  5  8  1  0
  1  2  1  0
  1  3  1  0
  1  4  1  0
  5  6  1  0
  5  7  1  0
  8  9  1  0
  8 10  1  0
  8 11  1  0
 12 16  1  0
 16 17  2  0
 17 19  1  0
 19 21  2  0
 21 23  1  0
 23 25  2  0
 25 16  1  0
 12 13  1  0
 12 14  1  0
 12 15  1  0
 17 18  1  0
 19 20  1  0
 21 22  1  0
 23 24  1  0
 25 26  1  0
M  CHG  1   8   1
M  END
>  <PDB_ID>  (2929) 
pdb5d4u

>  <RESIDUE_NAME>  (2929) 
LYS   PHE

>  <FRAG_NAME>  (2929) 
ETAM   MBZ

>  <FRAG_ATOM_NUM>  (2929) 
fragi: 11  fragj: 15

>  <atom.prop.CHAIN_ID>  (2929) 
A A A A A A A A A A A Z Z Z Z Z Z Z Z Z Z Z Z Z Z Z

>  <atom.prop.IS_HEAVY_ATOM>  (2929) 
1 0 0 0 1 0 0 1 0 0 0 1 0 0 0 1 1 0 1 0 1 0 1 0 1 0

>  <DIFUSE_FUNC_ATOM>  (2929) 
n/a

>  <FINAL_SINGLE_POINT_ENERGY>  (2929) 
0

>  <NONCOV_INTER_ENERGY_QM>  (2929) 
0

>  <FF_Energy>  (2929) 
-4.42

>  <QM_Energy>  (2929) 
-10.28

>  <source>  (2929) 
ETAM_MBZ

>  <Index>  (2929) 
31794

$$$$
ETAM-pdb5dez-A-LYS-515:MBZ-pdb5dez-A-PHE-545
     RDKit          3D

 26 25  0  0  0  0  0  0  0  0999 V2000
    1.8186   -1.6455    4.8552 C   0  0  0  0  0  0  0  0  0  0  0  0
    2.3426   -2.3568    5.3092 H   0  0  0  0  0  0  0  0  0  0  0  0
    1.4189   -1.0257    5.5201 H   0  0  0  0  0  0  0  0  0  0  0  0
    2.4838   -1.0810    4.2018 H   0  0  0  0  0  0  0  0  0  0  0  0
    0.7066   -2.2915    4.0598 C   0  0  0  0  0  0  0  0  0  0  0  0
    1.0906   -3.0129    3.4828 H   0  0  0  0  0  0  0  0  0  0  0  0
    0.0404   -2.6919    4.6898 H   0  0  0  0  0  0  0  0  0  0  0  0
    0.0174   -1.2921    3.1943 N   0  0  0  0  0  4  0  0  0  0  0  0
    0.6987   -0.7899    2.6634 H   0  0  0  0  0  0  0  0  0  0  0  0
   -0.6082   -1.7668    2.5759 H   0  0  0  0  0  0  0  0  0  0  0  0
   -0.4963   -0.6566    3.7686 H   0  0  0  0  0  0  0  0  0  0  0  0
    0.0016    2.9097    0.0109 C   0  0  0  0  0  0  0  0  0  0  0  0
    0.9200    3.2129    0.2204 H   0  0  0  0  0  0  0  0  0  0  0  0
   -0.6415    3.2082    0.7011 H   0  0  0  0  0  0  0  0  0  0  0  0
   -0.2913    3.3634   -0.9359 H   0  0  0  0  0  0  0  0  0  0  0  0
    0.0018    1.4027   -0.0029 C   0  0  0  0  0  0  0  0  0  0  0  0
   -1.1956    0.6944    0.0038 C   0  0  0  0  0  0  0  0  0  0  0  0
   -2.0626    1.1855    0.0102 H   0  0  0  0  0  0  0  0  0  0  0  0
   -1.2029   -0.6977    0.0000 C   0  0  0  0  0  0  0  0  0  0  0  0
   -2.0805   -1.1887   -0.0004 H   0  0  0  0  0  0  0  0  0  0  0  0
   -0.0043   -1.3947   -0.0015 C   0  0  0  0  0  0  0  0  0  0  0  0
   -0.0056   -2.3930   -0.0044 H   0  0  0  0  0  0  0  0  0  0  0  0
    1.2029   -0.6977   -0.0000 C   0  0  0  0  0  0  0  0  0  0  0  0
    2.0816   -1.1977    0.0021 H   0  0  0  0  0  0  0  0  0  0  0  0
    1.1982    0.6931    0.0006 C   0  0  0  0  0  0  0  0  0  0  0  0
    2.0666    1.1893    0.0026 H   0  0  0  0  0  0  0  0  0  0  0  0
  1  5  1  0
  5  8  1  0
  1  2  1  0
  1  3  1  0
  1  4  1  0
  5  6  1  0
  5  7  1  0
  8  9  1  0
  8 10  1  0
  8 11  1  0
 12 16  1  0
 16 17  2  0
 17 19  1  0
 19 21  2  0
 21 23  1  0
 23 25  2  0
 25 16  1  0
 12 13  1  0
 12 14  1  0
 12 15  1  0
 17 18  1  0
 19 20  1  0
 21 22  1  0
 23 24  1  0
 25 26  1  0
M  CHG  1   8   1
M  END
>  <PDB_ID>  (2930) 
pdb5dez

>  <RESIDUE_NAME>  (2930) 
LYS   PHE

>  <FRAG_NAME>  (2930) 
ETAM   MBZ

>  <FRAG_ATOM_NUM>  (2930) 
fragi: 11  fragj: 15

>  <atom.prop.CHAIN_ID>  (2930) 
A A A A A A A A A A A Z Z Z Z Z Z Z Z Z Z Z Z Z Z Z

>  <atom.prop.IS_HEAVY_ATOM>  (2930) 
1 0 0 0 1 0 0 1 0 0 0 1 0 0 0 1 1 0 1 0 1 0 1 0 1 0

>  <DIFUSE_FUNC_ATOM>  (2930) 
n/a

>  <FINAL_SINGLE_POINT_ENERGY>  (2930) 
0

>  <NONCOV_INTER_ENERGY_QM>  (2930) 
0

>  <FF_Energy>  (2930) 
-6.81

>  <QM_Energy>  (2930) 
-13.98

>  <source>  (2930) 
ETAM_MBZ

>  <Index>  (2930) 
31810

$$$$
ETAM-pdb6dgi-A-LYS-173:MBZ-pdb6dgi-A-PHE-159
     RDKit          3D

 26 25  0  0  0  0  0  0  0  0999 V2000
   -4.7137   -2.0017   -0.1091 C   0  0  0  0  0  0  0  0  0  0  0  0
   -3.7415   -1.7932   -0.1166 H   0  0  0  0  0  0  0  0  0  0  0  0
   -4.9483   -2.5373    0.6948 H   0  0  0  0  0  0  0  0  0  0  0  0
   -5.2754   -1.0678   -0.0889 H   0  0  0  0  0  0  0  0  0  0  0  0
   -5.0431   -2.8199   -1.3502 C   0  0  0  0  0  0  0  0  0  0  0  0
   -5.4768   -3.6842   -1.0643 H   0  0  0  0  0  0  0  0  0  0  0  0
   -5.7056   -2.3076   -1.9114 H   0  0  0  0  0  0  0  0  0  0  0  0
   -3.8416   -3.1318   -2.1822 N   0  0  0  0  0  4  0  0  0  0  0  0
   -3.1475   -2.4296   -2.0336 H   0  0  0  0  0  0  0  0  0  0  0  0
   -3.4801   -4.0237   -1.9163 H   0  0  0  0  0  0  0  0  0  0  0  0
   -4.1044   -3.1476   -3.1455 H   0  0  0  0  0  0  0  0  0  0  0  0
    0.0165    2.9042    0.0175 C   0  0  0  0  0  0  0  0  0  0  0  0
    0.8060    3.2077   -0.4970 H   0  0  0  0  0  0  0  0  0  0  0  0
    0.0737    3.1951    0.9618 H   0  0  0  0  0  0  0  0  0  0  0  0
   -0.8671    3.3671   -0.4218 H   0  0  0  0  0  0  0  0  0  0  0  0
    0.0013    1.3990   -0.0031 C   0  0  0  0  0  0  0  0  0  0  0  0
   -1.1943    0.6954    0.0002 C   0  0  0  0  0  0  0  0  0  0  0  0
   -2.0603    1.1859    0.0020 H   0  0  0  0  0  0  0  0  0  0  0  0
   -1.1981   -0.6933   -0.0000 C   0  0  0  0  0  0  0  0  0  0  0  0
   -2.0766   -1.1872    0.0004 H   0  0  0  0  0  0  0  0  0  0  0  0
   -0.0004   -1.3912    0.0010 C   0  0  0  0  0  0  0  0  0  0  0  0
   -0.0063   -2.3906    0.0020 H   0  0  0  0  0  0  0  0  0  0  0  0
    1.1981   -0.6979    0.0000 C   0  0  0  0  0  0  0  0  0  0  0  0
    2.0801   -1.1972   -0.0004 H   0  0  0  0  0  0  0  0  0  0  0  0
    1.1934    0.6880    0.0018 C   0  0  0  0  0  0  0  0  0  0  0  0
    2.0641    1.1856    0.0057 H   0  0  0  0  0  0  0  0  0  0  0  0
  1  5  1  0
  5  8  1  0
  1  2  1  0
  1  3  1  0
  1  4  1  0
  5  6  1  0
  5  7  1  0
  8  9  1  0
  8 10  1  0
  8 11  1  0
 12 16  1  0
 16 17  2  0
 17 19  1  0
 19 21  2  0
 21 23  1  0
 23 25  2  0
 25 16  1  0
 12 13  1  0
 12 14  1  0
 12 15  1  0
 17 18  1  0
 19 20  1  0
 21 22  1  0
 23 24  1  0
 25 26  1  0
M  CHG  1   8   1
M  END
>  <PDB_ID>  (2931) 
pdb6dgi

>  <RESIDUE_NAME>  (2931) 
LYS   PHE

>  <FRAG_NAME>  (2931) 
ETAM   MBZ

>  <FRAG_ATOM_NUM>  (2931) 
fragi: 11  fragj: 15

>  <atom.prop.CHAIN_ID>  (2931) 
A A A A A A A A A A A Z Z Z Z Z Z Z Z Z Z Z Z Z Z Z

>  <atom.prop.IS_HEAVY_ATOM>  (2931) 
1 0 0 0 1 0 0 1 0 0 0 1 0 0 0 1 1 0 1 0 1 0 1 0 1 0

>  <DIFUSE_FUNC_ATOM>  (2931) 
n/a

>  <FINAL_SINGLE_POINT_ENERGY>  (2931) 
0

>  <NONCOV_INTER_ENERGY_QM>  (2931) 
0

>  <FF_Energy>  (2931) 
3.66

>  <QM_Energy>  (2931) 
-2.25

>  <source>  (2931) 
ETAM_MBZ

>  <Index>  (2931) 
31814

$$$$
ETAM-pdb5dgo-A-LYS-528:MBZ-pdb5dgo-A-PHE-186
     RDKit          3D

 26 25  0  0  0  0  0  0  0  0999 V2000
   -5.1941   -2.7948   -0.7909 C   0  0  0  0  0  0  0  0  0  0  0  0
   -5.3068   -3.2794   -1.6242 H   0  0  0  0  0  0  0  0  0  0  0  0
   -4.8588   -1.9016   -0.9654 H   0  0  0  0  0  0  0  0  0  0  0  0
   -6.1574   -2.7237   -0.2857 H   0  0  0  0  0  0  0  0  0  0  0  0
   -4.1664   -3.5306    0.0522 C   0  0  0  0  0  0  0  0  0  0  0  0
   -4.0026   -3.0295    0.8651 H   0  0  0  0  0  0  0  0  0  0  0  0
   -4.5043   -4.4150    0.2663 H   0  0  0  0  0  0  0  0  0  0  0  0
   -2.8694   -3.6910   -0.6637 N   0  0  0  0  0  4  0  0  0  0  0  0
   -2.2889   -4.1244   -0.1476 H   0  0  0  0  0  0  0  0  0  0  0  0
   -2.9911   -4.1545   -1.4140 H   0  0  0  0  0  0  0  0  0  0  0  0
   -2.5348   -2.8923   -0.8689 H   0  0  0  0  0  0  0  0  0  0  0  0
    0.0003    2.8968   -0.0010 C   0  0  0  0  0  0  0  0  0  0  0  0
   -0.7909    3.1935   -0.4767 H   0  0  0  0  0  0  0  0  0  0  0  0
    0.7967    3.1925   -0.4705 H   0  0  0  0  0  0  0  0  0  0  0  0
   -0.0029    3.3382    0.9956 H   0  0  0  0  0  0  0  0  0  0  0  0
   -0.0003    1.3946    0.0006 C   0  0  0  0  0  0  0  0  0  0  0  0
   -1.1914    0.6897   -0.0001 C   0  0  0  0  0  0  0  0  0  0  0  0
   -1.9996    1.1508   -0.0001 H   0  0  0  0  0  0  0  0  0  0  0  0
   -1.1947   -0.6929   -0.0000 C   0  0  0  0  0  0  0  0  0  0  0  0
   -2.0018   -1.1564    0.0002 H   0  0  0  0  0  0  0  0  0  0  0  0
   -0.0003   -1.3844   -0.0004 C   0  0  0  0  0  0  0  0  0  0  0  0
   -0.0002   -2.3143    0.0000 H   0  0  0  0  0  0  0  0  0  0  0  0
    1.1947   -0.6938    0.0000 C   0  0  0  0  0  0  0  0  0  0  0  0
    2.0013   -1.1575   -0.0009 H   0  0  0  0  0  0  0  0  0  0  0  0
    1.1920    0.6867   -0.0001 C   0  0  0  0  0  0  0  0  0  0  0  0
    1.9997    1.1475   -0.0002 H   0  0  0  0  0  0  0  0  0  0  0  0
  1  5  1  0
  5  8  1  0
  1  2  1  0
  1  3  1  0
  1  4  1  0
  5  6  1  0
  5  7  1  0
  8  9  1  0
  8 10  1  0
  8 11  1  0
 12 16  1  0
 16 17  2  0
 17 19  1  0
 19 21  2  0
 21 23  1  0
 23 25  2  0
 25 16  1  0
 12 13  1  0
 12 14  1  0
 12 15  1  0
 17 18  1  0
 19 20  1  0
 21 22  1  0
 23 24  1  0
 25 26  1  0
M  CHG  1   8   1
M  END
>  <PDB_ID>  (2932) 
pdb5dgo

>  <RESIDUE_NAME>  (2932) 
LYS   PHE

>  <FRAG_NAME>  (2932) 
ETAM   MBZ

>  <FRAG_ATOM_NUM>  (2932) 
fragi: 11  fragj: 15

>  <atom.prop.CHAIN_ID>  (2932) 
A A A A A A A A A A A Z Z Z Z Z Z Z Z Z Z Z Z Z Z Z

>  <atom.prop.IS_HEAVY_ATOM>  (2932) 
1 0 0 0 1 0 0 1 0 0 0 1 0 0 0 1 1 0 1 0 1 0 1 0 1 0

>  <DIFUSE_FUNC_ATOM>  (2932) 
n/a

>  <FINAL_SINGLE_POINT_ENERGY>  (2932) 
0

>  <NONCOV_INTER_ENERGY_QM>  (2932) 
0

>  <FF_Energy>  (2932) 
0.92

>  <QM_Energy>  (2932) 
-4.34

>  <source>  (2932) 
ETAM_MBZ

>  <Index>  (2932) 
31821

$$$$
ETAM-pdb6dht-A-LYS-505:MBZ-pdb6dht-A-PHE-496
     RDKit          3D

 26 25  0  0  0  0  0  0  0  0999 V2000
   -0.4122   -0.0632    4.4572 C   0  0  0  0  0  0  0  0  0  0  0  0
   -0.5234   -0.5380    5.2949 H   0  0  0  0  0  0  0  0  0  0  0  0
   -0.7989    0.8249    4.5221 H   0  0  0  0  0  0  0  0  0  0  0  0
    0.6508    0.0252    4.2334 H   0  0  0  0  0  0  0  0  0  0  0  0
   -1.1362   -0.8060    3.4045 C   0  0  0  0  0  0  0  0  0  0  0  0
   -0.8778   -0.4715    2.5315 H   0  0  0  0  0  0  0  0  0  0  0  0
   -0.9420   -1.7526    3.4802 H   0  0  0  0  0  0  0  0  0  0  0  0
   -2.6007   -0.6047    3.5768 N   0  0  0  0  0  4  0  0  0  0  0  0
   -3.0441   -1.0495    2.9464 H   0  0  0  0  0  0  0  0  0  0  0  0
   -2.8569   -0.9025    4.3753 H   0  0  0  0  0  0  0  0  0  0  0  0
   -2.7975    0.2603    3.5133 H   0  0  0  0  0  0  0  0  0  0  0  0
    0.0284    2.9003   -0.0171 C   0  0  0  0  0  0  0  0  0  0  0  0
   -0.7074    3.2008   -0.5741 H   0  0  0  0  0  0  0  0  0  0  0  0
    0.8708    3.1818   -0.4055 H   0  0  0  0  0  0  0  0  0  0  0  0
   -0.0725    3.3527    0.9695 H   0  0  0  0  0  0  0  0  0  0  0  0
    0.0087    1.3985   -0.0048 C   0  0  0  0  0  0  0  0  0  0  0  0
   -1.1904    0.7030    0.0013 C   0  0  0  0  0  0  0  0  0  0  0  0
   -1.9960    1.1698   -0.0031 H   0  0  0  0  0  0  0  0  0  0  0  0
   -1.1979   -0.6976    0.0000 C   0  0  0  0  0  0  0  0  0  0  0  0
   -2.0068   -1.1560    0.0068 H   0  0  0  0  0  0  0  0  0  0  0  0
   -0.0076   -1.4010    0.0073 C   0  0  0  0  0  0  0  0  0  0  0  0
   -0.0069   -2.3310    0.0098 H   0  0  0  0  0  0  0  0  0  0  0  0
    1.1979   -0.6907    0.0000 C   0  0  0  0  0  0  0  0  0  0  0  0
    2.0065   -1.1491    0.0014 H   0  0  0  0  0  0  0  0  0  0  0  0
    1.1893    0.6877   -0.0038 C   0  0  0  0  0  0  0  0  0  0  0  0
    1.9969    1.1487   -0.0083 H   0  0  0  0  0  0  0  0  0  0  0  0
  1  5  1  0
  5  8  1  0
  1  2  1  0
  1  3  1  0
  1  4  1  0
  5  6  1  0
  5  7  1  0
  8  9  1  0
  8 10  1  0
  8 11  1  0
 12 16  1  0
 16 17  2  0
 17 19  1  0
 19 21  2  0
 21 23  1  0
 23 25  2  0
 25 16  1  0
 12 13  1  0
 12 14  1  0
 12 15  1  0
 17 18  1  0
 19 20  1  0
 21 22  1  0
 23 24  1  0
 25 26  1  0
M  CHG  1   8   1
M  END
>  <PDB_ID>  (2933) 
pdb6dht

>  <RESIDUE_NAME>  (2933) 
LYS   PHE

>  <FRAG_NAME>  (2933) 
ETAM   MBZ

>  <FRAG_ATOM_NUM>  (2933) 
fragi: 11  fragj: 15

>  <atom.prop.CHAIN_ID>  (2933) 
A A A A A A A A A A A Z Z Z Z Z Z Z Z Z Z Z Z Z Z Z

>  <atom.prop.IS_HEAVY_ATOM>  (2933) 
1 0 0 0 1 0 0 1 0 0 0 1 0 0 0 1 1 0 1 0 1 0 1 0 1 0

>  <DIFUSE_FUNC_ATOM>  (2933) 
n/a

>  <FINAL_SINGLE_POINT_ENERGY>  (2933) 
0

>  <NONCOV_INTER_ENERGY_QM>  (2933) 
0

>  <FF_Energy>  (2933) 
-3.5

>  <QM_Energy>  (2933) 
-8.56

>  <source>  (2933) 
ETAM_MBZ

>  <Index>  (2933) 
31838

$$$$
ETAM-pdb5dif-A-LYS-152:MBZ-pdb5dif-A-PHE-35
     RDKit          3D

 26 25  0  0  0  0  0  0  0  0999 V2000
    0.8586   -2.7744   -3.5028 C   0  0  0  0  0  0  0  0  0  0  0  0
    0.8244   -3.0163   -2.5360 H   0  0  0  0  0  0  0  0  0  0  0  0
    0.4578   -3.5041   -4.0509 H   0  0  0  0  0  0  0  0  0  0  0  0
    0.2839   -1.8611   -3.6568 H   0  0  0  0  0  0  0  0  0  0  0  0
    2.3183   -2.6113   -3.9096 C   0  0  0  0  0  0  0  0  0  0  0  0
    2.7800   -3.5024   -3.8232 H   0  0  0  0  0  0  0  0  0  0  0  0
    2.3563   -2.3302   -4.8766 H   0  0  0  0  0  0  0  0  0  0  0  0
    3.0430   -1.6051   -3.0817 N   0  0  0  0  0  4  0  0  0  0  0  0
    2.4068   -1.1940   -2.4302 H   0  0  0  0  0  0  0  0  0  0  0  0
    3.7850   -2.0564   -2.5876 H   0  0  0  0  0  0  0  0  0  0  0  0
    3.4185   -0.8961   -3.6775 H   0  0  0  0  0  0  0  0  0  0  0  0
   -0.0071    2.8962    0.0087 C   0  0  0  0  0  0  0  0  0  0  0  0
   -0.6751    3.2035   -0.6508 H   0  0  0  0  0  0  0  0  0  0  0  0
    0.9005    3.2081   -0.2209 H   0  0  0  0  0  0  0  0  0  0  0  0
   -0.2718    3.3212    0.9769 H   0  0  0  0  0  0  0  0  0  0  0  0
    0.0001    1.3952   -0.0011 C   0  0  0  0  0  0  0  0  0  0  0  0
   -1.1922    0.6863    0.0007 C   0  0  0  0  0  0  0  0  0  0  0  0
   -2.0602    1.1796    0.0007 H   0  0  0  0  0  0  0  0  0  0  0  0
   -1.1959   -0.6941   -0.0000 C   0  0  0  0  0  0  0  0  0  0  0  0
   -2.0735   -1.1918    0.0007 H   0  0  0  0  0  0  0  0  0  0  0  0
    0.0007   -1.3855   -0.0003 C   0  0  0  0  0  0  0  0  0  0  0  0
   -0.0032   -2.3874   -0.0015 H   0  0  0  0  0  0  0  0  0  0  0  0
    1.1959   -0.6934   -0.0000 C   0  0  0  0  0  0  0  0  0  0  0  0
    2.0792   -1.1911    0.0013 H   0  0  0  0  0  0  0  0  0  0  0  0
    1.1914    0.6915    0.0007 C   0  0  0  0  0  0  0  0  0  0  0  0
    2.0609    1.1891    0.0021 H   0  0  0  0  0  0  0  0  0  0  0  0
  1  5  1  0
  5  8  1  0
  1  2  1  0
  1  3  1  0
  1  4  1  0
  5  6  1  0
  5  7  1  0
  8  9  1  0
  8 10  1  0
  8 11  1  0
 12 16  1  0
 16 17  2  0
 17 19  1  0
 19 21  2  0
 21 23  1  0
 23 25  2  0
 25 16  1  0
 12 13  1  0
 12 14  1  0
 12 15  1  0
 17 18  1  0
 19 20  1  0
 21 22  1  0
 23 24  1  0
 25 26  1  0
M  CHG  1   8   1
M  END
>  <PDB_ID>  (2934) 
pdb5dif

>  <RESIDUE_NAME>  (2934) 
LYS   PHE

>  <FRAG_NAME>  (2934) 
ETAM   MBZ

>  <FRAG_ATOM_NUM>  (2934) 
fragi: 11  fragj: 15

>  <atom.prop.CHAIN_ID>  (2934) 
A A A A A A A A A A A Z Z Z Z Z Z Z Z Z Z Z Z Z Z Z

>  <atom.prop.IS_HEAVY_ATOM>  (2934) 
1 0 0 0 1 0 0 1 0 0 0 1 0 0 0 1 1 0 1 0 1 0 1 0 1 0

>  <DIFUSE_FUNC_ATOM>  (2934) 
n/a

>  <FINAL_SINGLE_POINT_ENERGY>  (2934) 
0

>  <NONCOV_INTER_ENERGY_QM>  (2934) 
0

>  <FF_Energy>  (2934) 
-2.72

>  <QM_Energy>  (2934) 
-7.99

>  <source>  (2934) 
ETAM_MBZ

>  <Index>  (2934) 
31876

$$$$
ETAM-pdb5dac-B-LYS-1260:MBZ-pdb5dac-B-PHE-1288
     RDKit          3D

 26 25  0  0  0  0  0  0  0  0999 V2000
   -3.9412   -3.4273   -0.7377 C   0  0  0  0  0  0  0  0  0  0  0  0
   -4.6766   -3.9838   -1.1202 H   0  0  0  0  0  0  0  0  0  0  0  0
   -4.3267   -2.7164   -0.1523 H   0  0  0  0  0  0  0  0  0  0  0  0
   -3.2901   -4.0646   -0.1394 H   0  0  0  0  0  0  0  0  0  0  0  0
   -3.2052   -2.7426   -1.9001 C   0  0  0  0  0  0  0  0  0  0  0  0
   -3.8468   -2.0824   -2.3405 H   0  0  0  0  0  0  0  0  0  0  0  0
   -2.4427   -2.1852   -1.5130 H   0  0  0  0  0  0  0  0  0  0  0  0
   -2.6448   -3.6455   -2.9629 N   0  0  0  0  0  4  0  0  0  0  0  0
   -3.3962   -4.1223   -3.4127 H   0  0  0  0  0  0  0  0  0  0  0  0
   -2.1449   -3.0942   -3.6268 H   0  0  0  0  0  0  0  0  0  0  0  0
   -2.0300   -4.3055   -2.5374 H   0  0  0  0  0  0  0  0  0  0  0  0
    0.0068    2.8917    0.0183 C   0  0  0  0  0  0  0  0  0  0  0  0
    0.9449    3.1942    0.1356 H   0  0  0  0  0  0  0  0  0  0  0  0
   -0.5564    3.1912    0.7788 H   0  0  0  0  0  0  0  0  0  0  0  0
   -0.3819    3.3612   -0.8853 H   0  0  0  0  0  0  0  0  0  0  0  0
   -0.0008    1.3958   -0.0062 C   0  0  0  0  0  0  0  0  0  0  0  0
   -1.1943    0.6897    0.0051 C   0  0  0  0  0  0  0  0  0  0  0  0
   -2.0616    1.1834    0.0158 H   0  0  0  0  0  0  0  0  0  0  0  0
   -1.2002   -0.6935   -0.0000 C   0  0  0  0  0  0  0  0  0  0  0  0
   -2.0772   -1.1897   -0.0004 H   0  0  0  0  0  0  0  0  0  0  0  0
   -0.0015   -1.3884   -0.0026 C   0  0  0  0  0  0  0  0  0  0  0  0
   -0.0045   -2.3877   -0.0072 H   0  0  0  0  0  0  0  0  0  0  0  0
    1.2002   -0.6924   -0.0000 C   0  0  0  0  0  0  0  0  0  0  0  0
    2.0801   -1.1952    0.0002 H   0  0  0  0  0  0  0  0  0  0  0  0
    1.1966    0.6889    0.0037 C   0  0  0  0  0  0  0  0  0  0  0  0
    2.0629    1.1903    0.0126 H   0  0  0  0  0  0  0  0  0  0  0  0
  1  5  1  0
  5  8  1  0
  1  2  1  0
  1  3  1  0
  1  4  1  0
  5  6  1  0
  5  7  1  0
  8  9  1  0
  8 10  1  0
  8 11  1  0
 12 16  1  0
 16 17  2  0
 17 19  1  0
 19 21  2  0
 21 23  1  0
 23 25  2  0
 25 16  1  0
 12 13  1  0
 12 14  1  0
 12 15  1  0
 17 18  1  0
 19 20  1  0
 21 22  1  0
 23 24  1  0
 25 26  1  0
M  CHG  1   8   1
M  END
>  <PDB_ID>  (2935) 
pdb5dac

>  <RESIDUE_NAME>  (2935) 
LYS   PHE

>  <FRAG_NAME>  (2935) 
ETAM   MBZ

>  <FRAG_ATOM_NUM>  (2935) 
fragi: 11  fragj: 15

>  <atom.prop.CHAIN_ID>  (2935) 
A A A A A A A A A A A Z Z Z Z Z Z Z Z Z Z Z Z Z Z Z

>  <atom.prop.IS_HEAVY_ATOM>  (2935) 
1 0 0 0 1 0 0 1 0 0 0 1 0 0 0 1 1 0 1 0 1 0 1 0 1 0

>  <DIFUSE_FUNC_ATOM>  (2935) 
n/a

>  <FINAL_SINGLE_POINT_ENERGY>  (2935) 
0

>  <NONCOV_INTER_ENERGY_QM>  (2935) 
0

>  <FF_Energy>  (2935) 
3.01

>  <QM_Energy>  (2935) 
-2.97

>  <source>  (2935) 
ETAM_MBZ

>  <Index>  (2935) 
31887

$$$$
ETAM-pdb6dbb-A-LYS-94:MBZ-pdb6dbb-A-PHE-152
     RDKit          3D

 26 25  0  0  0  0  0  0  0  0999 V2000
   -0.9774   -1.0812   -5.7693 C   0  0  0  0  0  0  0  0  0  0  0  0
   -1.7979   -0.5267   -5.7236 H   0  0  0  0  0  0  0  0  0  0  0  0
   -1.1178   -1.9590   -5.3312 H   0  0  0  0  0  0  0  0  0  0  0  0
   -0.7450   -1.2577   -6.8195 H   0  0  0  0  0  0  0  0  0  0  0  0
    0.1602   -0.3429   -5.0446 C   0  0  0  0  0  0  0  0  0  0  0  0
    0.9849   -0.9039   -5.0848 H   0  0  0  0  0  0  0  0  0  0  0  0
    0.3231    0.5290   -5.5047 H   0  0  0  0  0  0  0  0  0  0  0  0
   -0.1837   -0.0796   -3.6018 N   0  0  0  0  0  4  0  0  0  0  0  0
   -1.1757   -0.0436   -3.5083 H   0  0  0  0  0  0  0  0  0  0  0  0
    0.1860   -0.8174   -3.0424 H   0  0  0  0  0  0  0  0  0  0  0  0
    0.2173    0.7905   -3.3284 H   0  0  0  0  0  0  0  0  0  0  0  0
    0.0056    2.8981   -0.0470 C   0  0  0  0  0  0  0  0  0  0  0  0
    0.7374    3.2228    0.5232 H   0  0  0  0  0  0  0  0  0  0  0  0
   -0.8733    3.2180    0.2553 H   0  0  0  0  0  0  0  0  0  0  0  0
    0.1725    3.2754   -1.0559 H   0  0  0  0  0  0  0  0  0  0  0  0
    0.0004    1.3957    0.0096 C   0  0  0  0  0  0  0  0  0  0  0  0
   -1.1896    0.6926   -0.0069 C   0  0  0  0  0  0  0  0  0  0  0  0
   -2.0577    1.1826   -0.0252 H   0  0  0  0  0  0  0  0  0  0  0  0
   -1.1936   -0.6929    0.0000 C   0  0  0  0  0  0  0  0  0  0  0  0
   -2.0745   -1.1863    0.0066 H   0  0  0  0  0  0  0  0  0  0  0  0
   -0.0004   -1.3886   -0.0007 C   0  0  0  0  0  0  0  0  0  0  0  0
   -0.0061   -2.3883   -0.0021 H   0  0  0  0  0  0  0  0  0  0  0  0
    1.1936   -0.6962   -0.0000 C   0  0  0  0  0  0  0  0  0  0  0  0
    2.0775   -1.1944    0.0037 H   0  0  0  0  0  0  0  0  0  0  0  0
    1.1896    0.6893   -0.0020 C   0  0  0  0  0  0  0  0  0  0  0  0
    2.0608    1.1848   -0.0128 H   0  0  0  0  0  0  0  0  0  0  0  0
  1  5  1  0
  5  8  1  0
  1  2  1  0
  1  3  1  0
  1  4  1  0
  5  6  1  0
  5  7  1  0
  8  9  1  0
  8 10  1  0
  8 11  1  0
 12 16  1  0
 16 17  2  0
 17 19  1  0
 19 21  2  0
 21 23  1  0
 23 25  2  0
 25 16  1  0
 12 13  1  0
 12 14  1  0
 12 15  1  0
 17 18  1  0
 19 20  1  0
 21 22  1  0
 23 24  1  0
 25 26  1  0
M  CHG  1   8   1
M  END
>  <PDB_ID>  (2936) 
pdb6dbb

>  <RESIDUE_NAME>  (2936) 
LYS   PHE

>  <FRAG_NAME>  (2936) 
ETAM   MBZ

>  <FRAG_ATOM_NUM>  (2936) 
fragi: 11  fragj: 15

>  <atom.prop.CHAIN_ID>  (2936) 
A A A A A A A A A A A Z Z Z Z Z Z Z Z Z Z Z Z Z Z Z

>  <atom.prop.IS_HEAVY_ATOM>  (2936) 
1 0 0 0 1 0 0 1 0 0 0 1 0 0 0 1 1 0 1 0 1 0 1 0 1 0

>  <DIFUSE_FUNC_ATOM>  (2936) 
n/a

>  <FINAL_SINGLE_POINT_ENERGY>  (2936) 
0

>  <NONCOV_INTER_ENERGY_QM>  (2936) 
0

>  <FF_Energy>  (2936) 
-6.92

>  <QM_Energy>  (2936) 
-12.0

>  <source>  (2936) 
ETAM_MBZ

>  <Index>  (2936) 
31907

$$$$
ETAM-pdb5dhf-C-LYS-112:MBZ-pdb5dhf-C-PHE-108
     RDKit          3D

 26 25  0  0  0  0  0  0  0  0999 V2000
   -0.0720   -0.3772    5.2690 C   0  0  0  0  0  0  0  0  0  0  0  0
   -0.4876   -1.2816    5.2573 H   0  0  0  0  0  0  0  0  0  0  0  0
   -0.6516    0.2761    4.7920 H   0  0  0  0  0  0  0  0  0  0  0  0
    0.0442   -0.0560    6.3041 H   0  0  0  0  0  0  0  0  0  0  0  0
    1.2661   -0.4494    4.5564 C   0  0  0  0  0  0  0  0  0  0  0  0
    1.7282    0.4376    4.6393 H   0  0  0  0  0  0  0  0  0  0  0  0
    1.8320   -1.1527    4.9952 H   0  0  0  0  0  0  0  0  0  0  0  0
    1.1042   -0.7824    3.1155 N   0  0  0  0  0  4  0  0  0  0  0  0
    0.9499    0.0579    2.5960 H   0  0  0  0  0  0  0  0  0  0  0  0
    1.9326   -1.2343    2.7842 H   0  0  0  0  0  0  0  0  0  0  0  0
    0.3210   -1.3939    3.0022 H   0  0  0  0  0  0  0  0  0  0  0  0
   -0.0041    2.8959    0.0013 C   0  0  0  0  0  0  0  0  0  0  0  0
   -0.6690    3.2010   -0.6631 H   0  0  0  0  0  0  0  0  0  0  0  0
    0.9056    3.2051   -0.2304 H   0  0  0  0  0  0  0  0  0  0  0  0
   -0.2694    3.3335    0.9637 H   0  0  0  0  0  0  0  0  0  0  0  0
   -0.0003    1.3942    0.0008 C   0  0  0  0  0  0  0  0  0  0  0  0
   -1.1910    0.6866   -0.0006 C   0  0  0  0  0  0  0  0  0  0  0  0
   -2.0600    1.1792   -0.0034 H   0  0  0  0  0  0  0  0  0  0  0  0
   -1.1941   -0.6941   -0.0000 C   0  0  0  0  0  0  0  0  0  0  0  0
   -2.0717   -1.1909    0.0016 H   0  0  0  0  0  0  0  0  0  0  0  0
    0.0014   -1.3848    0.0003 C   0  0  0  0  0  0  0  0  0  0  0  0
   -0.0021   -2.3865    0.0003 H   0  0  0  0  0  0  0  0  0  0  0  0
    1.1941   -0.6924   -0.0000 C   0  0  0  0  0  0  0  0  0  0  0  0
    2.0785   -1.1907    0.0020 H   0  0  0  0  0  0  0  0  0  0  0  0
    1.1899    0.6906   -0.0005 C   0  0  0  0  0  0  0  0  0  0  0  0
    2.0595    1.1886   -0.0025 H   0  0  0  0  0  0  0  0  0  0  0  0
  1  5  1  0
  5  8  1  0
  1  2  1  0
  1  3  1  0
  1  4  1  0
  5  6  1  0
  5  7  1  0
  8  9  1  0
  8 10  1  0
  8 11  1  0
 12 16  1  0
 16 17  2  0
 17 19  1  0
 19 21  2  0
 21 23  1  0
 23 25  2  0
 25 16  1  0
 12 13  1  0
 12 14  1  0
 12 15  1  0
 17 18  1  0
 19 20  1  0
 21 22  1  0
 23 24  1  0
 25 26  1  0
M  CHG  1   8   1
M  END
>  <PDB_ID>  (2937) 
pdb5dhf

>  <RESIDUE_NAME>  (2937) 
LYS   PHE

>  <FRAG_NAME>  (2937) 
ETAM   MBZ

>  <FRAG_ATOM_NUM>  (2937) 
fragi: 11  fragj: 15

>  <atom.prop.CHAIN_ID>  (2937) 
A A A A A A A A A A A Z Z Z Z Z Z Z Z Z Z Z Z Z Z Z

>  <atom.prop.IS_HEAVY_ATOM>  (2937) 
1 0 0 0 1 0 0 1 0 0 0 1 0 0 0 1 1 0 1 0 1 0 1 0 1 0

>  <DIFUSE_FUNC_ATOM>  (2937) 
n/a

>  <FINAL_SINGLE_POINT_ENERGY>  (2937) 
0

>  <NONCOV_INTER_ENERGY_QM>  (2937) 
0

>  <FF_Energy>  (2937) 
-6.63

>  <QM_Energy>  (2937) 
-13.78

>  <source>  (2937) 
ETAM_MBZ

>  <Index>  (2937) 
31909

$$$$
ETAM-pdb5dmy-A-LYS-94:MBZ-pdb5dmy-A-PHE-35
     RDKit          3D

 26 25  0  0  0  0  0  0  0  0999 V2000
    0.9869   -1.6026    3.5883 C   0  0  0  0  0  0  0  0  0  0  0  0
    1.3750   -1.0610    4.3211 H   0  0  0  0  0  0  0  0  0  0  0  0
    1.4191   -1.3914    2.7219 H   0  0  0  0  0  0  0  0  0  0  0  0
    1.1495   -2.6572    3.8111 H   0  0  0  0  0  0  0  0  0  0  0  0
   -0.4911   -1.3081    3.4871 C   0  0  0  0  0  0  0  0  0  0  0  0
   -0.8834   -1.8323    2.7311 H   0  0  0  0  0  0  0  0  0  0  0  0
   -0.9418   -1.5701    4.3412 H   0  0  0  0  0  0  0  0  0  0  0  0
   -0.7325    0.1501    3.2410 N   0  0  0  0  0  4  0  0  0  0  0  0
   -1.4424    0.2509    2.5465 H   0  0  0  0  0  0  0  0  0  0  0  0
   -1.0277    0.5807    4.0916 H   0  0  0  0  0  0  0  0  0  0  0  0
    0.1138    0.5723    2.9240 H   0  0  0  0  0  0  0  0  0  0  0  0
    0.0017    2.9176   -0.0046 C   0  0  0  0  0  0  0  0  0  0  0  0
   -0.4524    3.2219   -0.8285 H   0  0  0  0  0  0  0  0  0  0  0  0
    0.9419    3.2222    0.0199 H   0  0  0  0  0  0  0  0  0  0  0  0
   -0.5137    3.3707    0.8423 H   0  0  0  0  0  0  0  0  0  0  0  0
    0.0003    1.4064   -0.0007 C   0  0  0  0  0  0  0  0  0  0  0  0
   -1.1982    0.6974   -0.0043 C   0  0  0  0  0  0  0  0  0  0  0  0
   -2.0636    1.1862   -0.0112 H   0  0  0  0  0  0  0  0  0  0  0  0
   -1.2009   -0.6953    0.0000 C   0  0  0  0  0  0  0  0  0  0  0  0
   -2.0786   -1.1894    0.0037 H   0  0  0  0  0  0  0  0  0  0  0  0
    0.0007   -1.3972    0.0004 C   0  0  0  0  0  0  0  0  0  0  0  0
   -0.0076   -2.3941    0.0002 H   0  0  0  0  0  0  0  0  0  0  0  0
    1.2009   -0.7027   -0.0000 C   0  0  0  0  0  0  0  0  0  0  0  0
    2.0831   -1.1985   -0.0020 H   0  0  0  0  0  0  0  0  0  0  0  0
    1.1972    0.6914    0.0046 C   0  0  0  0  0  0  0  0  0  0  0  0
    2.0672    1.1860    0.0110 H   0  0  0  0  0  0  0  0  0  0  0  0
  1  5  1  0
  5  8  1  0
  1  2  1  0
  1  3  1  0
  1  4  1  0
  5  6  1  0
  5  7  1  0
  8  9  1  0
  8 10  1  0
  8 11  1  0
 12 16  1  0
 16 17  2  0
 17 19  1  0
 19 21  2  0
 21 23  1  0
 23 25  2  0
 25 16  1  0
 12 13  1  0
 12 14  1  0
 12 15  1  0
 17 18  1  0
 19 20  1  0
 21 22  1  0
 23 24  1  0
 25 26  1  0
M  CHG  1   8   1
M  END
>  <PDB_ID>  (2938) 
pdb5dmy

>  <RESIDUE_NAME>  (2938) 
LYS   PHE

>  <FRAG_NAME>  (2938) 
ETAM   MBZ

>  <FRAG_ATOM_NUM>  (2938) 
fragi: 11  fragj: 15

>  <atom.prop.CHAIN_ID>  (2938) 
A A A A A A A A A A A Z Z Z Z Z Z Z Z Z Z Z Z Z Z Z

>  <atom.prop.IS_HEAVY_ATOM>  (2938) 
1 0 0 0 1 0 0 1 0 0 0 1 0 0 0 1 1 0 1 0 1 0 1 0 1 0

>  <DIFUSE_FUNC_ATOM>  (2938) 
n/a

>  <FINAL_SINGLE_POINT_ENERGY>  (2938) 
0

>  <NONCOV_INTER_ENERGY_QM>  (2938) 
0

>  <FF_Energy>  (2938) 
-8.58

>  <QM_Energy>  (2938) 
-16.01

>  <source>  (2938) 
ETAM_MBZ

>  <Index>  (2938) 
31914

$$$$
ETAM-pdb5dmy-B-LYS-94:MBZ-pdb5dmy-B-PHE-35
     RDKit          3D

 26 25  0  0  0  0  0  0  0  0999 V2000
    1.3052   -1.6765    3.9362 C   0  0  0  0  0  0  0  0  0  0  0  0
    1.6226   -1.2782    4.7924 H   0  0  0  0  0  0  0  0  0  0  0  0
    1.7470   -1.2294    3.1647 H   0  0  0  0  0  0  0  0  0  0  0  0
    1.5532   -2.7379    3.9237 H   0  0  0  0  0  0  0  0  0  0  0  0
   -0.1897   -1.4598    3.8281 C   0  0  0  0  0  0  0  0  0  0  0  0
   -0.5421   -1.9916    3.0543 H   0  0  0  0  0  0  0  0  0  0  0  0
   -0.6292   -1.7800    4.6709 H   0  0  0  0  0  0  0  0  0  0  0  0
   -0.5155   -0.0248    3.6237 N   0  0  0  0  0  4  0  0  0  0  0  0
    0.3178    0.5212    3.7083 H   0  0  0  0  0  0  0  0  0  0  0  0
   -0.9062    0.1012    2.7120 H   0  0  0  0  0  0  0  0  0  0  0  0
   -1.1774    0.2680    4.3132 H   0  0  0  0  0  0  0  0  0  0  0  0
    0.0084    2.8893   -0.0188 C   0  0  0  0  0  0  0  0  0  0  0  0
   -0.4638    3.1845   -0.8383 H   0  0  0  0  0  0  0  0  0  0  0  0
    0.9515    3.1937   -0.0230 H   0  0  0  0  0  0  0  0  0  0  0  0
   -0.4859    3.3556    0.8336 H   0  0  0  0  0  0  0  0  0  0  0  0
    0.0027    1.3904    0.0093 C   0  0  0  0  0  0  0  0  0  0  0  0
   -1.1877    0.6882   -0.0063 C   0  0  0  0  0  0  0  0  0  0  0  0
   -2.0556    1.1813   -0.0236 H   0  0  0  0  0  0  0  0  0  0  0  0
   -1.1910   -0.6905   -0.0000 C   0  0  0  0  0  0  0  0  0  0  0  0
   -2.0740   -1.1846    0.0090 H   0  0  0  0  0  0  0  0  0  0  0  0
   -0.0052   -1.3807   -0.0047 C   0  0  0  0  0  0  0  0  0  0  0  0
   -0.0079   -2.3839   -0.0126 H   0  0  0  0  0  0  0  0  0  0  0  0
    1.1910   -0.6926    0.0000 C   0  0  0  0  0  0  0  0  0  0  0  0
    2.0729   -1.1965    0.0038 H   0  0  0  0  0  0  0  0  0  0  0  0
    1.1903    0.6852    0.0016 C   0  0  0  0  0  0  0  0  0  0  0  0
    2.0617    1.1829   -0.0032 H   0  0  0  0  0  0  0  0  0  0  0  0
  1  5  1  0
  5  8  1  0
  1  2  1  0
  1  3  1  0
  1  4  1  0
  5  6  1  0
  5  7  1  0
  8  9  1  0
  8 10  1  0
  8 11  1  0
 12 16  1  0
 16 17  2  0
 17 19  1  0
 19 21  2  0
 21 23  1  0
 23 25  2  0
 25 16  1  0
 12 13  1  0
 12 14  1  0
 12 15  1  0
 17 18  1  0
 19 20  1  0
 21 22  1  0
 23 24  1  0
 25 26  1  0
M  CHG  1   8   1
M  END
>  <PDB_ID>  (2939) 
pdb5dmy

>  <RESIDUE_NAME>  (2939) 
LYS   PHE

>  <FRAG_NAME>  (2939) 
ETAM   MBZ

>  <FRAG_ATOM_NUM>  (2939) 
fragi: 11  fragj: 15

>  <atom.prop.CHAIN_ID>  (2939) 
A A A A A A A A A A A Z Z Z Z Z Z Z Z Z Z Z Z Z Z Z

>  <atom.prop.IS_HEAVY_ATOM>  (2939) 
1 0 0 0 1 0 0 1 0 0 0 1 0 0 0 1 1 0 1 0 1 0 1 0 1 0

>  <DIFUSE_FUNC_ATOM>  (2939) 
n/a

>  <FINAL_SINGLE_POINT_ENERGY>  (2939) 
0

>  <NONCOV_INTER_ENERGY_QM>  (2939) 
0

>  <FF_Energy>  (2939) 
-8.05

>  <QM_Energy>  (2939) 
-14.22

>  <source>  (2939) 
ETAM_MBZ

>  <Index>  (2939) 
31918

$$$$
ETAM-pdb5dl8-A-LYS-213:MBZ-pdb5dl8-A-PHE-236
     RDKit          3D

 26 25  0  0  0  0  0  0  0  0999 V2000
    5.8184    1.4347   -0.2698 C   0  0  0  0  0  0  0  0  0  0  0  0
    6.5774    1.4654   -0.9469 H   0  0  0  0  0  0  0  0  0  0  0  0
    6.1668    0.9227    0.5377 H   0  0  0  0  0  0  0  0  0  0  0  0
    5.5815    2.4537    0.0362 H   0  0  0  0  0  0  0  0  0  0  0  0
    4.6706    0.5345   -0.9162 C   0  0  0  0  0  0  0  0  0  0  0  0
    5.0768   -0.4197   -1.0196 H   0  0  0  0  0  0  0  0  0  0  0  0
    3.9520    0.4052   -0.1721 H   0  0  0  0  0  0  0  0  0  0  0  0
    3.9880    0.9117   -2.1897 N   0  0  0  0  0  4  0  0  0  0  0  0
    4.4437    1.7078   -2.5837 H   0  0  0  0  0  0  0  0  0  0  0  0
    4.0368    0.1453   -2.8282 H   0  0  0  0  0  0  0  0  0  0  0  0
    3.0320    1.1310   -1.9985 H   0  0  0  0  0  0  0  0  0  0  0  0
    0.0204    2.9193   -0.0393 C   0  0  0  0  0  0  0  0  0  0  0  0
   -0.6627    3.2252   -0.6956 H   0  0  0  0  0  0  0  0  0  0  0  0
    0.9255    3.2265   -0.3176 H   0  0  0  0  0  0  0  0  0  0  0  0
   -0.2017    3.4358    0.8945 H   0  0  0  0  0  0  0  0  0  0  0  0
    0.0116    1.4182    0.0023 C   0  0  0  0  0  0  0  0  0  0  0  0
   -1.1899    0.6848    0.0029 C   0  0  0  0  0  0  0  0  0  0  0  0
   -2.0569    1.1730    0.0044 H   0  0  0  0  0  0  0  0  0  0  0  0
   -1.1827   -0.7033    0.0000 C   0  0  0  0  0  0  0  0  0  0  0  0
   -2.0751   -1.1920   -0.0043 H   0  0  0  0  0  0  0  0  0  0  0  0
   -0.0125   -1.3902    0.0041 C   0  0  0  0  0  0  0  0  0  0  0  0
   -0.0175   -2.3991    0.0101 H   0  0  0  0  0  0  0  0  0  0  0  0
    1.1827   -0.7154    0.0000 C   0  0  0  0  0  0  0  0  0  0  0  0
    2.0663   -1.2019    0.0049 H   0  0  0  0  0  0  0  0  0  0  0  0
    1.1908    0.7060   -0.0093 C   0  0  0  0  0  0  0  0  0  0  0  0
    2.0704    1.1753   -0.0259 H   0  0  0  0  0  0  0  0  0  0  0  0
  1  5  1  0
  5  8  1  0
  1  2  1  0
  1  3  1  0
  1  4  1  0
  5  6  1  0
  5  7  1  0
  8  9  1  0
  8 10  1  0
  8 11  1  0
 12 16  1  0
 16 17  2  0
 17 19  1  0
 19 21  2  0
 21 23  1  0
 23 25  2  0
 25 16  1  0
 12 13  1  0
 12 14  1  0
 12 15  1  0
 17 18  1  0
 19 20  1  0
 21 22  1  0
 23 24  1  0
 25 26  1  0
M  CHG  1   8   1
M  END
>  <PDB_ID>  (2940) 
pdb5dl8

>  <RESIDUE_NAME>  (2940) 
LYS   PHE

>  <FRAG_NAME>  (2940) 
ETAM   MBZ

>  <FRAG_ATOM_NUM>  (2940) 
fragi: 11  fragj: 15

>  <atom.prop.CHAIN_ID>  (2940) 
A A A A A A A A A A A Z Z Z Z Z Z Z Z Z Z Z Z Z Z Z

>  <atom.prop.IS_HEAVY_ATOM>  (2940) 
1 0 0 0 1 0 0 1 0 0 0 1 0 0 0 1 1 0 1 0 1 0 1 0 1 0

>  <DIFUSE_FUNC_ATOM>  (2940) 
n/a

>  <FINAL_SINGLE_POINT_ENERGY>  (2940) 
0

>  <NONCOV_INTER_ENERGY_QM>  (2940) 
0

>  <FF_Energy>  (2940) 
-0.19

>  <QM_Energy>  (2940) 
-5.94

>  <source>  (2940) 
ETAM_MBZ

>  <Index>  (2940) 
31934

$$$$
ETAM-pdb6dqq-A-LYS-278:MBZ-pdb6dqq-A-PHE-274
     RDKit          3D

 26 25  0  0  0  0  0  0  0  0999 V2000
    0.8635   -1.1635    3.5940 C   0  0  0  0  0  0  0  0  0  0  0  0
    0.5103   -1.6201    2.7592 H   0  0  0  0  0  0  0  0  0  0  0  0
    0.9980   -0.1843    3.3651 H   0  0  0  0  0  0  0  0  0  0  0  0
    0.1166   -1.2435    4.3839 H   0  0  0  0  0  0  0  0  0  0  0  0
    2.2083   -1.7581    3.9207 C   0  0  0  0  0  0  0  0  0  0  0  0
    2.5181   -1.4093    4.8011 H   0  0  0  0  0  0  0  0  0  0  0  0
    2.1308   -2.7508    3.9563 H   0  0  0  0  0  0  0  0  0  0  0  0
    3.1859   -1.3807    2.8725 N   0  0  0  0  0  4  0  0  0  0  0  0
    3.8446   -0.7274    3.2485 H   0  0  0  0  0  0  0  0  0  0  0  0
    3.6712   -2.1974    2.5574 H   0  0  0  0  0  0  0  0  0  0  0  0
    2.7048   -0.9620    2.1021 H   0  0  0  0  0  0  0  0  0  0  0  0
   -0.0003    2.8975   -0.0096 C   0  0  0  0  0  0  0  0  0  0  0  0
   -0.4875    3.1955   -0.8231 H   0  0  0  0  0  0  0  0  0  0  0  0
    0.9451    3.2034   -0.0398 H   0  0  0  0  0  0  0  0  0  0  0  0
   -0.4742    3.3672    0.8523 H   0  0  0  0  0  0  0  0  0  0  0  0
    0.0006    1.3943    0.0043 C   0  0  0  0  0  0  0  0  0  0  0  0
   -1.1904    0.6907   -0.0063 C   0  0  0  0  0  0  0  0  0  0  0  0
   -2.0580    1.1807   -0.0199 H   0  0  0  0  0  0  0  0  0  0  0  0
   -1.1933   -0.6946   -0.0000 C   0  0  0  0  0  0  0  0  0  0  0  0
   -2.0756   -1.1874    0.0084 H   0  0  0  0  0  0  0  0  0  0  0  0
   -0.0038   -1.3884   -0.0036 C   0  0  0  0  0  0  0  0  0  0  0  0
   -0.0061   -2.3884   -0.0090 H   0  0  0  0  0  0  0  0  0  0  0  0
    1.1933   -0.6948    0.0000 C   0  0  0  0  0  0  0  0  0  0  0  0
    2.0762   -1.1955   -0.0002 H   0  0  0  0  0  0  0  0  0  0  0  0
    1.1936    0.6927    0.0057 C   0  0  0  0  0  0  0  0  0  0  0  0
    2.0614    1.1873    0.0105 H   0  0  0  0  0  0  0  0  0  0  0  0
  1  5  1  0
  5  8  1  0
  1  2  1  0
  1  3  1  0
  1  4  1  0
  5  6  1  0
  5  7  1  0
  8  9  1  0
  8 10  1  0
  8 11  1  0
 12 16  1  0
 16 17  2  0
 17 19  1  0
 19 21  2  0
 21 23  1  0
 23 25  2  0
 25 16  1  0
 12 13  1  0
 12 14  1  0
 12 15  1  0
 17 18  1  0
 19 20  1  0
 21 22  1  0
 23 24  1  0
 25 26  1  0
M  CHG  1   8   1
M  END
>  <PDB_ID>  (2941) 
pdb6dqq

>  <RESIDUE_NAME>  (2941) 
LYS   PHE

>  <FRAG_NAME>  (2941) 
ETAM   MBZ

>  <FRAG_ATOM_NUM>  (2941) 
fragi: 11  fragj: 15

>  <atom.prop.CHAIN_ID>  (2941) 
A A A A A A A A A A A Z Z Z Z Z Z Z Z Z Z Z Z Z Z Z

>  <atom.prop.IS_HEAVY_ATOM>  (2941) 
1 0 0 0 1 0 0 1 0 0 0 1 0 0 0 1 1 0 1 0 1 0 1 0 1 0

>  <DIFUSE_FUNC_ATOM>  (2941) 
n/a

>  <FINAL_SINGLE_POINT_ENERGY>  (2941) 
0

>  <NONCOV_INTER_ENERGY_QM>  (2941) 
0

>  <FF_Energy>  (2941) 
-2.94

>  <QM_Energy>  (2941) 
-8.86

>  <source>  (2941) 
ETAM_MBZ

>  <Index>  (2941) 
31942

$$$$
ETAM-pdb6dre-A-LYS-19:MBZ-pdb6dre-B-PHE-116
     RDKit          3D

 26 25  0  0  0  0  0  0  0  0999 V2000
   -3.4776    1.9835    3.3902 C   0  0  0  0  0  0  0  0  0  0  0  0
   -2.6835    2.5758    3.3157 H   0  0  0  0  0  0  0  0  0  0  0  0
   -4.0963    2.3157    4.0921 H   0  0  0  0  0  0  0  0  0  0  0  0
   -4.0014    1.9795    2.4343 H   0  0  0  0  0  0  0  0  0  0  0  0
   -3.0169    0.5911    3.7624 C   0  0  0  0  0  0  0  0  0  0  0  0
   -2.8906    0.5393    4.7611 H   0  0  0  0  0  0  0  0  0  0  0  0
   -3.7266   -0.0751    3.4993 H   0  0  0  0  0  0  0  0  0  0  0  0
   -1.7272    0.2043    3.0960 N   0  0  0  0  0  4  0  0  0  0  0  0
   -1.0979   -0.1466    3.7861 H   0  0  0  0  0  0  0  0  0  0  0  0
   -1.9129   -0.5003    2.4152 H   0  0  0  0  0  0  0  0  0  0  0  0
   -1.3358    1.0084    2.6557 H   0  0  0  0  0  0  0  0  0  0  0  0
    0.0043    2.8897   -0.0028 C   0  0  0  0  0  0  0  0  0  0  0  0
   -0.7666    3.1993   -0.5394 H   0  0  0  0  0  0  0  0  0  0  0  0
    0.8602    3.1956   -0.3915 H   0  0  0  0  0  0  0  0  0  0  0  0
   -0.0845    3.3314    0.9897 H   0  0  0  0  0  0  0  0  0  0  0  0
    0.0005    1.3927    0.0010 C   0  0  0  0  0  0  0  0  0  0  0  0
   -1.1916    0.6858    0.0032 C   0  0  0  0  0  0  0  0  0  0  0  0
   -2.0598    1.1789    0.0054 H   0  0  0  0  0  0  0  0  0  0  0  0
   -1.1955   -0.6948   -0.0000 C   0  0  0  0  0  0  0  0  0  0  0  0
   -2.0730   -1.1913   -0.0012 H   0  0  0  0  0  0  0  0  0  0  0  0
   -0.0005   -1.3820    0.0003 C   0  0  0  0  0  0  0  0  0  0  0  0
   -0.0023   -2.3858   -0.0003 H   0  0  0  0  0  0  0  0  0  0  0  0
    1.1955   -0.6923   -0.0000 C   0  0  0  0  0  0  0  0  0  0  0  0
    2.0772   -1.1920    0.0046 H   0  0  0  0  0  0  0  0  0  0  0  0
    1.1916    0.6906   -0.0045 C   0  0  0  0  0  0  0  0  0  0  0  0
    2.0606    1.1882   -0.0128 H   0  0  0  0  0  0  0  0  0  0  0  0
  1  5  1  0
  5  8  1  0
  1  2  1  0
  1  3  1  0
  1  4  1  0
  5  6  1  0
  5  7  1  0
  8  9  1  0
  8 10  1  0
  8 11  1  0
 12 16  1  0
 16 17  2  0
 17 19  1  0
 19 21  2  0
 21 23  1  0
 23 25  2  0
 25 16  1  0
 12 13  1  0
 12 14  1  0
 12 15  1  0
 17 18  1  0
 19 20  1  0
 21 22  1  0
 23 24  1  0
 25 26  1  0
M  CHG  1   8   1
M  END
>  <PDB_ID>  (2942) 
pdb6dre

>  <RESIDUE_NAME>  (2942) 
LYS   PHE

>  <FRAG_NAME>  (2942) 
ETAM   MBZ

>  <FRAG_ATOM_NUM>  (2942) 
fragi: 11  fragj: 15

>  <atom.prop.CHAIN_ID>  (2942) 
A A A A A A A A A A A Z Z Z Z Z Z Z Z Z Z Z Z Z Z Z

>  <atom.prop.IS_HEAVY_ATOM>  (2942) 
1 0 0 0 1 0 0 1 0 0 0 1 0 0 0 1 1 0 1 0 1 0 1 0 1 0

>  <DIFUSE_FUNC_ATOM>  (2942) 
n/a

>  <FINAL_SINGLE_POINT_ENERGY>  (2942) 
0

>  <NONCOV_INTER_ENERGY_QM>  (2942) 
0

>  <FF_Energy>  (2942) 
-6.17

>  <QM_Energy>  (2942) 
-12.18

>  <source>  (2942) 
ETAM_MBZ

>  <Index>  (2942) 
31943

$$$$
ETAM-pdb5dgq-B-LYS-146:MBZ-pdb5dgq-B-PHE-200
     RDKit          3D

 26 25  0  0  0  0  0  0  0  0999 V2000
   -1.2926   -2.5657   -3.9539 C   0  0  0  0  0  0  0  0  0  0  0  0
   -0.7160   -1.8015   -3.6904 H   0  0  0  0  0  0  0  0  0  0  0  0
   -1.7434   -2.3833   -4.8193 H   0  0  0  0  0  0  0  0  0  0  0  0
   -0.6377   -3.4235   -4.1070 H   0  0  0  0  0  0  0  0  0  0  0  0
   -2.3173   -2.8273   -2.8872 C   0  0  0  0  0  0  0  0  0  0  0  0
   -2.7625   -3.7138   -3.0492 H   0  0  0  0  0  0  0  0  0  0  0  0
   -1.8748   -2.8527   -1.9840 H   0  0  0  0  0  0  0  0  0  0  0  0
   -3.4119   -1.7584   -2.8391 N   0  0  0  0  0  4  0  0  0  0  0  0
   -3.5483   -1.4127   -3.7597 H   0  0  0  0  0  0  0  0  0  0  0  0
   -4.2425   -2.1802   -2.4966 H   0  0  0  0  0  0  0  0  0  0  0  0
   -3.1108   -1.0327   -2.2319 H   0  0  0  0  0  0  0  0  0  0  0  0
    0.0158    2.9155   -0.0045 C   0  0  0  0  0  0  0  0  0  0  0  0
   -0.4489    3.2267   -0.8195 H   0  0  0  0  0  0  0  0  0  0  0  0
    0.9584    3.2135    0.0090 H   0  0  0  0  0  0  0  0  0  0  0  0
   -0.4876    3.3532    0.8575 H   0  0  0  0  0  0  0  0  0  0  0  0
    0.0072    1.4094   -0.0128 C   0  0  0  0  0  0  0  0  0  0  0  0
   -1.1975    0.6908   -0.0381 C   0  0  0  0  0  0  0  0  0  0  0  0
   -2.0602    1.1791   -0.0851 H   0  0  0  0  0  0  0  0  0  0  0  0
   -1.1997   -0.7053    0.0000 C   0  0  0  0  0  0  0  0  0  0  0  0
   -2.0838   -1.1933    0.0121 H   0  0  0  0  0  0  0  0  0  0  0  0
   -0.0074   -1.4116    0.0224 C   0  0  0  0  0  0  0  0  0  0  0  0
   -0.0019   -2.3996    0.0530 H   0  0  0  0  0  0  0  0  0  0  0  0
    1.1997   -0.6951    0.0000 C   0  0  0  0  0  0  0  0  0  0  0  0
    2.0817   -1.1884   -0.0357 H   0  0  0  0  0  0  0  0  0  0  0  0
    1.1978    0.7117    0.0285 C   0  0  0  0  0  0  0  0  0  0  0  0
    2.0664    1.1959    0.0782 H   0  0  0  0  0  0  0  0  0  0  0  0
  1  5  1  0
  5  8  1  0
  1  2  1  0
  1  3  1  0
  1  4  1  0
  5  6  1  0
  5  7  1  0
  8  9  1  0
  8 10  1  0
  8 11  1  0
 12 16  1  0
 16 17  2  0
 17 19  1  0
 19 21  2  0
 21 23  1  0
 23 25  2  0
 25 16  1  0
 12 13  1  0
 12 14  1  0
 12 15  1  0
 17 18  1  0
 19 20  1  0
 21 22  1  0
 23 24  1  0
 25 26  1  0
M  CHG  1   8   1
M  END
>  <PDB_ID>  (2943) 
pdb5dgq

>  <RESIDUE_NAME>  (2943) 
LYS   PHE

>  <FRAG_NAME>  (2943) 
ETAM   MBZ

>  <FRAG_ATOM_NUM>  (2943) 
fragi: 11  fragj: 15

>  <atom.prop.CHAIN_ID>  (2943) 
A A A A A A A A A A A Z Z Z Z Z Z Z Z Z Z Z Z Z Z Z

>  <atom.prop.IS_HEAVY_ATOM>  (2943) 
1 0 0 0 1 0 0 1 0 0 0 1 0 0 0 1 1 0 1 0 1 0 1 0 1 0

>  <DIFUSE_FUNC_ATOM>  (2943) 
n/a

>  <FINAL_SINGLE_POINT_ENERGY>  (2943) 
0

>  <NONCOV_INTER_ENERGY_QM>  (2943) 
0

>  <FF_Energy>  (2943) 
-1.93

>  <QM_Energy>  (2943) 
-7.15

>  <source>  (2943) 
ETAM_MBZ

>  <Index>  (2943) 
31972

$$$$
ETAM-pdb6dwo-A-LYS-524:MBZ-pdb6dwo-A-PHE-469
     RDKit          3D

 26 25  0  0  0  0  0  0  0  0999 V2000
   -0.5988   -2.3527   -4.8549 C   0  0  0  0  0  0  0  0  0  0  0  0
   -0.4496   -3.3013   -4.5723 H   0  0  0  0  0  0  0  0  0  0  0  0
    0.1026   -2.0891   -5.5181 H   0  0  0  0  0  0  0  0  0  0  0  0
   -1.5762   -2.2812   -5.3321 H   0  0  0  0  0  0  0  0  0  0  0  0
   -0.4733   -1.4587   -3.6369 C   0  0  0  0  0  0  0  0  0  0  0  0
   -0.8810   -0.5680   -3.8424 H   0  0  0  0  0  0  0  0  0  0  0  0
   -0.9638   -1.8776   -2.8717 H   0  0  0  0  0  0  0  0  0  0  0  0
    0.9514   -1.2698   -3.2596 N   0  0  0  0  0  4  0  0  0  0  0  0
    1.1721   -1.8642   -2.4864 H   0  0  0  0  0  0  0  0  0  0  0  0
    1.5350   -1.5030   -4.0372 H   0  0  0  0  0  0  0  0  0  0  0  0
    1.1035   -0.3157   -3.0019 H   0  0  0  0  0  0  0  0  0  0  0  0
    0.0141    2.9109    0.0003 C   0  0  0  0  0  0  0  0  0  0  0  0
    0.9007    3.2110    0.3209 H   0  0  0  0  0  0  0  0  0  0  0  0
   -0.7079    3.2206    0.6015 H   0  0  0  0  0  0  0  0  0  0  0  0
   -0.1544    3.3584   -0.9793 H   0  0  0  0  0  0  0  0  0  0  0  0
    0.0054    1.4009    0.0042 C   0  0  0  0  0  0  0  0  0  0  0  0
   -1.1929    0.6989   -0.0105 C   0  0  0  0  0  0  0  0  0  0  0  0
   -2.0571    1.1892   -0.0301 H   0  0  0  0  0  0  0  0  0  0  0  0
   -1.1965   -0.6905   -0.0000 C   0  0  0  0  0  0  0  0  0  0  0  0
   -2.0779   -1.1815    0.0101 H   0  0  0  0  0  0  0  0  0  0  0  0
   -0.0056   -1.3836   -0.0026 C   0  0  0  0  0  0  0  0  0  0  0  0
   -0.0161   -2.3901   -0.0065 H   0  0  0  0  0  0  0  0  0  0  0  0
    1.1965   -0.7071    0.0000 C   0  0  0  0  0  0  0  0  0  0  0  0
    2.0733   -1.2065   -0.0034 H   0  0  0  0  0  0  0  0  0  0  0  0
    1.1932    0.6815    0.0089 C   0  0  0  0  0  0  0  0  0  0  0  0
    2.0680    1.1752    0.0185 H   0  0  0  0  0  0  0  0  0  0  0  0
  1  5  1  0
  5  8  1  0
  1  2  1  0
  1  3  1  0
  1  4  1  0
  5  6  1  0
  5  7  1  0
  8  9  1  0
  8 10  1  0
  8 11  1  0
 12 16  1  0
 16 17  2  0
 17 19  1  0
 19 21  2  0
 21 23  1  0
 23 25  2  0
 25 16  1  0
 12 13  1  0
 12 14  1  0
 12 15  1  0
 17 18  1  0
 19 20  1  0
 21 22  1  0
 23 24  1  0
 25 26  1  0
M  CHG  1   8   1
M  END
>  <PDB_ID>  (2944) 
pdb6dwo

>  <RESIDUE_NAME>  (2944) 
LYS   PHE

>  <FRAG_NAME>  (2944) 
ETAM   MBZ

>  <FRAG_ATOM_NUM>  (2944) 
fragi: 11  fragj: 15

>  <atom.prop.CHAIN_ID>  (2944) 
A A A A A A A A A A A Z Z Z Z Z Z Z Z Z Z Z Z Z Z Z

>  <atom.prop.IS_HEAVY_ATOM>  (2944) 
1 0 0 0 1 0 0 1 0 0 0 1 0 0 0 1 1 0 1 0 1 0 1 0 1 0

>  <DIFUSE_FUNC_ATOM>  (2944) 
n/a

>  <FINAL_SINGLE_POINT_ENERGY>  (2944) 
0

>  <NONCOV_INTER_ENERGY_QM>  (2944) 
0

>  <FF_Energy>  (2944) 
-6.32

>  <QM_Energy>  (2944) 
-12.88

>  <source>  (2944) 
ETAM_MBZ

>  <Index>  (2944) 
31996

$$$$
ETAM-pdb6dwo-B-LYS-524:MBZ-pdb6dwo-B-PHE-469
     RDKit          3D

 26 25  0  0  0  0  0  0  0  0999 V2000
   -0.6199   -2.2473   -4.8882 C   0  0  0  0  0  0  0  0  0  0  0  0
   -0.4452   -3.1997   -4.6450 H   0  0  0  0  0  0  0  0  0  0  0  0
    0.0471   -1.9461   -5.5686 H   0  0  0  0  0  0  0  0  0  0  0  0
   -1.6170   -2.1774   -5.3228 H   0  0  0  0  0  0  0  0  0  0  0  0
   -0.4755   -1.3937   -3.6531 C   0  0  0  0  0  0  0  0  0  0  0  0
   -0.8825   -0.4927   -3.8259 H   0  0  0  0  0  0  0  0  0  0  0  0
   -0.9641   -1.8290   -2.8925 H   0  0  0  0  0  0  0  0  0  0  0  0
    0.9501   -1.2197   -3.2781 N   0  0  0  0  0  4  0  0  0  0  0  0
    1.5046   -1.1339   -4.1063 H   0  0  0  0  0  0  0  0  0  0  0  0
    1.0509   -0.3939   -2.7224 H   0  0  0  0  0  0  0  0  0  0  0  0
    1.2566   -2.0136   -2.7525 H   0  0  0  0  0  0  0  0  0  0  0  0
    0.0163    2.9144    0.0313 C   0  0  0  0  0  0  0  0  0  0  0  0
    0.9012    3.2093    0.3605 H   0  0  0  0  0  0  0  0  0  0  0  0
   -0.7092    3.2173    0.6319 H   0  0  0  0  0  0  0  0  0  0  0  0
   -0.1455    3.3767   -0.9424 H   0  0  0  0  0  0  0  0  0  0  0  0
    0.0050    1.4046    0.0122 C   0  0  0  0  0  0  0  0  0  0  0  0
   -1.1961    0.7064   -0.0085 C   0  0  0  0  0  0  0  0  0  0  0  0
   -2.0572    1.1925   -0.0302 H   0  0  0  0  0  0  0  0  0  0  0  0
   -1.1910   -0.6860   -0.0000 C   0  0  0  0  0  0  0  0  0  0  0  0
   -2.0789   -1.1783    0.0133 H   0  0  0  0  0  0  0  0  0  0  0  0
   -0.0040   -1.3960   -0.0082 C   0  0  0  0  0  0  0  0  0  0  0  0
   -0.0196   -2.3941   -0.0204 H   0  0  0  0  0  0  0  0  0  0  0  0
    1.1910   -0.7107    0.0000 C   0  0  0  0  0  0  0  0  0  0  0  0
    2.0739   -1.2090    0.0045 H   0  0  0  0  0  0  0  0  0  0  0  0
    1.1951    0.6817    0.0044 C   0  0  0  0  0  0  0  0  0  0  0  0
    2.0685    1.1717    0.0010 H   0  0  0  0  0  0  0  0  0  0  0  0
  1  5  1  0
  5  8  1  0
  1  2  1  0
  1  3  1  0
  1  4  1  0
  5  6  1  0
  5  7  1  0
  8  9  1  0
  8 10  1  0
  8 11  1  0
 12 16  1  0
 16 17  2  0
 17 19  1  0
 19 21  2  0
 21 23  1  0
 23 25  2  0
 25 16  1  0
 12 13  1  0
 12 14  1  0
 12 15  1  0
 17 18  1  0
 19 20  1  0
 21 22  1  0
 23 24  1  0
 25 26  1  0
M  CHG  1   8   1
M  END
>  <PDB_ID>  (2945) 
pdb6dwo

>  <RESIDUE_NAME>  (2945) 
LYS   PHE

>  <FRAG_NAME>  (2945) 
ETAM   MBZ

>  <FRAG_ATOM_NUM>  (2945) 
fragi: 11  fragj: 15

>  <atom.prop.CHAIN_ID>  (2945) 
A A A A A A A A A A A Z Z Z Z Z Z Z Z Z Z Z Z Z Z Z

>  <atom.prop.IS_HEAVY_ATOM>  (2945) 
1 0 0 0 1 0 0 1 0 0 0 1 0 0 0 1 1 0 1 0 1 0 1 0 1 0

>  <DIFUSE_FUNC_ATOM>  (2945) 
n/a

>  <FINAL_SINGLE_POINT_ENERGY>  (2945) 
0

>  <NONCOV_INTER_ENERGY_QM>  (2945) 
0

>  <FF_Energy>  (2945) 
-6.59

>  <QM_Energy>  (2945) 
-13.24

>  <source>  (2945) 
ETAM_MBZ

>  <Index>  (2945) 
31998

$$$$
ETAM-pdb6dwo-D-LYS-524:MBZ-pdb6dwo-D-PHE-469
     RDKit          3D

 26 25  0  0  0  0  0  0  0  0999 V2000
   -0.5882   -2.2540   -4.9113 C   0  0  0  0  0  0  0  0  0  0  0  0
   -0.4026   -3.1984   -4.6684 H   0  0  0  0  0  0  0  0  0  0  0  0
    0.0725   -1.9238   -5.5729 H   0  0  0  0  0  0  0  0  0  0  0  0
   -1.5876   -2.1867   -5.3412 H   0  0  0  0  0  0  0  0  0  0  0  0
   -0.4820   -1.4011   -3.6538 C   0  0  0  0  0  0  0  0  0  0  0  0
   -0.9208   -0.5178   -3.8259 H   0  0  0  0  0  0  0  0  0  0  0  0
   -0.9610   -1.8670   -2.9077 H   0  0  0  0  0  0  0  0  0  0  0  0
    0.9317   -1.1840   -3.2731 N   0  0  0  0  0  4  0  0  0  0  0  0
    1.2948   -2.0130   -2.8448 H   0  0  0  0  0  0  0  0  0  0  0  0
    1.4698   -0.9690   -4.0888 H   0  0  0  0  0  0  0  0  0  0  0  0
    0.9927   -0.4224   -2.6262 H   0  0  0  0  0  0  0  0  0  0  0  0
    0.0247    2.9163    0.0270 C   0  0  0  0  0  0  0  0  0  0  0  0
    0.9149    3.2021    0.3568 H   0  0  0  0  0  0  0  0  0  0  0  0
   -0.6936    3.2191    0.6389 H   0  0  0  0  0  0  0  0  0  0  0  0
   -0.1409    3.3826   -0.9442 H   0  0  0  0  0  0  0  0  0  0  0  0
    0.0056    1.4037    0.0102 C   0  0  0  0  0  0  0  0  0  0  0  0
   -1.2010    0.7076   -0.0037 C   0  0  0  0  0  0  0  0  0  0  0  0
   -2.0588    1.1993   -0.0175 H   0  0  0  0  0  0  0  0  0  0  0  0
   -1.1992   -0.6810   -0.0000 C   0  0  0  0  0  0  0  0  0  0  0  0
   -2.0828   -1.1757    0.0058 H   0  0  0  0  0  0  0  0  0  0  0  0
   -0.0062   -1.3892   -0.0031 C   0  0  0  0  0  0  0  0  0  0  0  0
   -0.0267   -2.3912   -0.0087 H   0  0  0  0  0  0  0  0  0  0  0  0
    1.1992   -0.7167    0.0000 C   0  0  0  0  0  0  0  0  0  0  0  0
    2.0742   -1.2180    0.0061 H   0  0  0  0  0  0  0  0  0  0  0  0
    1.2016    0.6755   -0.0034 C   0  0  0  0  0  0  0  0  0  0  0  0
    2.0729    1.1681   -0.0169 H   0  0  0  0  0  0  0  0  0  0  0  0
  1  5  1  0
  5  8  1  0
  1  2  1  0
  1  3  1  0
  1  4  1  0
  5  6  1  0
  5  7  1  0
  8  9  1  0
  8 10  1  0
  8 11  1  0
 12 16  1  0
 16 17  2  0
 17 19  1  0
 19 21  2  0
 21 23  1  0
 23 25  2  0
 25 16  1  0
 12 13  1  0
 12 14  1  0
 12 15  1  0
 17 18  1  0
 19 20  1  0
 21 22  1  0
 23 24  1  0
 25 26  1  0
M  CHG  1   8   1
M  END
>  <PDB_ID>  (2946) 
pdb6dwo

>  <RESIDUE_NAME>  (2946) 
LYS   PHE

>  <FRAG_NAME>  (2946) 
ETAM   MBZ

>  <FRAG_ATOM_NUM>  (2946) 
fragi: 11  fragj: 15

>  <atom.prop.CHAIN_ID>  (2946) 
A A A A A A A A A A A Z Z Z Z Z Z Z Z Z Z Z Z Z Z Z

>  <atom.prop.IS_HEAVY_ATOM>  (2946) 
1 0 0 0 1 0 0 1 0 0 0 1 0 0 0 1 1 0 1 0 1 0 1 0 1 0

>  <DIFUSE_FUNC_ATOM>  (2946) 
n/a

>  <FINAL_SINGLE_POINT_ENERGY>  (2946) 
0

>  <NONCOV_INTER_ENERGY_QM>  (2946) 
0

>  <FF_Energy>  (2946) 
-6.81

>  <QM_Energy>  (2946) 
-13.65

>  <source>  (2946) 
ETAM_MBZ

>  <Index>  (2946) 
32005

$$$$
ETAM-pdb6dxn-A-LYS-220:MBZ-pdb6dxn-A-PHE-42
     RDKit          3D

 26 25  0  0  0  0  0  0  0  0999 V2000
    2.5906   -3.6330    4.2936 C   0  0  0  0  0  0  0  0  0  0  0  0
    2.8405   -2.7043    4.5823 H   0  0  0  0  0  0  0  0  0  0  0  0
    3.2820   -3.9711    3.6504 H   0  0  0  0  0  0  0  0  0  0  0  0
    2.5658   -4.2841    5.1674 H   0  0  0  0  0  0  0  0  0  0  0  0
    1.2635   -3.5669    3.5751 C   0  0  0  0  0  0  0  0  0  0  0  0
    1.0082   -4.4896    3.2739 H   0  0  0  0  0  0  0  0  0  0  0  0
    0.5642   -3.2272    4.2098 H   0  0  0  0  0  0  0  0  0  0  0  0
    1.3329   -2.6714    2.4002 N   0  0  0  0  0  4  0  0  0  0  0  0
    1.5468   -3.2066    1.5819 H   0  0  0  0  0  0  0  0  0  0  0  0
    0.4516   -2.2128    2.2746 H   0  0  0  0  0  0  0  0  0  0  0  0
    2.0472   -1.9846    2.5432 H   0  0  0  0  0  0  0  0  0  0  0  0
   -0.0020    2.9089   -0.0364 C   0  0  0  0  0  0  0  0  0  0  0  0
    0.8075    3.2243    0.4316 H   0  0  0  0  0  0  0  0  0  0  0  0
   -0.8253    3.2226    0.4070 H   0  0  0  0  0  0  0  0  0  0  0  0
    0.0124    3.3206   -1.0455 H   0  0  0  0  0  0  0  0  0  0  0  0
   -0.0008    1.3996    0.0004 C   0  0  0  0  0  0  0  0  0  0  0  0
   -1.1900    0.6884   -0.0051 C   0  0  0  0  0  0  0  0  0  0  0  0
   -2.0602    1.1754   -0.0144 H   0  0  0  0  0  0  0  0  0  0  0  0
   -1.1900   -0.6985   -0.0000 C   0  0  0  0  0  0  0  0  0  0  0  0
   -2.0714   -1.1915    0.0008 H   0  0  0  0  0  0  0  0  0  0  0  0
   -0.0003   -1.3841    0.0058 C   0  0  0  0  0  0  0  0  0  0  0  0
   -0.0027   -2.3895    0.0140 H   0  0  0  0  0  0  0  0  0  0  0  0
    1.1900   -0.6963    0.0000 C   0  0  0  0  0  0  0  0  0  0  0  0
    2.0757   -1.1939   -0.0018 H   0  0  0  0  0  0  0  0  0  0  0  0
    1.1911    0.6910   -0.0012 C   0  0  0  0  0  0  0  0  0  0  0  0
    2.0616    1.1844   -0.0039 H   0  0  0  0  0  0  0  0  0  0  0  0
  1  5  1  0
  5  8  1  0
  1  2  1  0
  1  3  1  0
  1  4  1  0
  5  6  1  0
  5  7  1  0
  8  9  1  0
  8 10  1  0
  8 11  1  0
 12 16  1  0
 16 17  2  0
 17 19  1  0
 19 21  2  0
 21 23  1  0
 23 25  2  0
 25 16  1  0
 12 13  1  0
 12 14  1  0
 12 15  1  0
 17 18  1  0
 19 20  1  0
 21 22  1  0
 23 24  1  0
 25 26  1  0
M  CHG  1   8   1
M  END
>  <PDB_ID>  (2947) 
pdb6dxn

>  <RESIDUE_NAME>  (2947) 
LYS   PHE

>  <FRAG_NAME>  (2947) 
ETAM   MBZ

>  <FRAG_ATOM_NUM>  (2947) 
fragi: 11  fragj: 15

>  <atom.prop.CHAIN_ID>  (2947) 
A A A A A A A A A A A Z Z Z Z Z Z Z Z Z Z Z Z Z Z Z

>  <atom.prop.IS_HEAVY_ATOM>  (2947) 
1 0 0 0 1 0 0 1 0 0 0 1 0 0 0 1 1 0 1 0 1 0 1 0 1 0

>  <DIFUSE_FUNC_ATOM>  (2947) 
n/a

>  <FINAL_SINGLE_POINT_ENERGY>  (2947) 
0

>  <NONCOV_INTER_ENERGY_QM>  (2947) 
0

>  <FF_Energy>  (2947) 
-0.85

>  <QM_Energy>  (2947) 
-8.93

>  <source>  (2947) 
ETAM_MBZ

>  <Index>  (2947) 
32012

$$$$
ETAM-pdb6dxn-D-LYS-220:MBZ-pdb6dxn-D-PHE-216
     RDKit          3D

 26 25  0  0  0  0  0  0  0  0999 V2000
    2.6628   -1.3594    4.5180 C   0  0  0  0  0  0  0  0  0  0  0  0
    3.1962   -2.0295    5.0350 H   0  0  0  0  0  0  0  0  0  0  0  0
    1.6950   -1.4529    4.7515 H   0  0  0  0  0  0  0  0  0  0  0  0
    2.9958   -0.3584    4.7923 H   0  0  0  0  0  0  0  0  0  0  0  0
    2.8329   -1.6434    3.0393 C   0  0  0  0  0  0  0  0  0  0  0  0
    2.2451   -1.0164    2.5178 H   0  0  0  0  0  0  0  0  0  0  0  0
    3.7907   -1.4725    2.7821 H   0  0  0  0  0  0  0  0  0  0  0  0
    2.4792   -3.0420    2.6961 N   0  0  0  0  0  4  0  0  0  0  0  0
    1.8987   -3.0492    1.8819 H   0  0  0  0  0  0  0  0  0  0  0  0
    3.3145   -3.5631    2.5148 H   0  0  0  0  0  0  0  0  0  0  0  0
    1.9857   -3.4590    3.4602 H   0  0  0  0  0  0  0  0  0  0  0  0
    0.0009    2.9113   -0.0098 C   0  0  0  0  0  0  0  0  0  0  0  0
   -0.7916    3.2120   -0.5320 H   0  0  0  0  0  0  0  0  0  0  0  0
    0.8391    3.2118   -0.4550 H   0  0  0  0  0  0  0  0  0  0  0  0
   -0.0448    3.3916    0.9676 H   0  0  0  0  0  0  0  0  0  0  0  0
    0.0003    1.4019    0.0006 C   0  0  0  0  0  0  0  0  0  0  0  0
   -1.1923    0.6902    0.0041 C   0  0  0  0  0  0  0  0  0  0  0  0
   -2.0608    1.1778    0.0083 H   0  0  0  0  0  0  0  0  0  0  0  0
   -1.1904   -0.6976   -0.0000 C   0  0  0  0  0  0  0  0  0  0  0  0
   -2.0716   -1.1923    0.0004 H   0  0  0  0  0  0  0  0  0  0  0  0
    0.0009   -1.3885   -0.0026 C   0  0  0  0  0  0  0  0  0  0  0  0
   -0.0030   -2.3905   -0.0062 H   0  0  0  0  0  0  0  0  0  0  0  0
    1.1904   -0.6968   -0.0000 C   0  0  0  0  0  0  0  0  0  0  0  0
    2.0764   -1.1943    0.0050 H   0  0  0  0  0  0  0  0  0  0  0  0
    1.1911    0.6908   -0.0021 C   0  0  0  0  0  0  0  0  0  0  0  0
    2.0620    1.1841   -0.0064 H   0  0  0  0  0  0  0  0  0  0  0  0
  1  5  1  0
  5  8  1  0
  1  2  1  0
  1  3  1  0
  1  4  1  0
  5  6  1  0
  5  7  1  0
  8  9  1  0
  8 10  1  0
  8 11  1  0
 12 16  1  0
 16 17  2  0
 17 19  1  0
 19 21  2  0
 21 23  1  0
 23 25  2  0
 25 16  1  0
 12 13  1  0
 12 14  1  0
 12 15  1  0
 17 18  1  0
 19 20  1  0
 21 22  1  0
 23 24  1  0
 25 26  1  0
M  CHG  1   8   1
M  END
>  <PDB_ID>  (2948) 
pdb6dxn

>  <RESIDUE_NAME>  (2948) 
LYS   PHE

>  <FRAG_NAME>  (2948) 
ETAM   MBZ

>  <FRAG_ATOM_NUM>  (2948) 
fragi: 11  fragj: 15

>  <atom.prop.CHAIN_ID>  (2948) 
A A A A A A A A A A A Z Z Z Z Z Z Z Z Z Z Z Z Z Z Z

>  <atom.prop.IS_HEAVY_ATOM>  (2948) 
1 0 0 0 1 0 0 1 0 0 0 1 0 0 0 1 1 0 1 0 1 0 1 0 1 0

>  <DIFUSE_FUNC_ATOM>  (2948) 
n/a

>  <FINAL_SINGLE_POINT_ENERGY>  (2948) 
0

>  <NONCOV_INTER_ENERGY_QM>  (2948) 
0

>  <FF_Energy>  (2948) 
-1.5

>  <QM_Energy>  (2948) 
-6.65

>  <source>  (2948) 
ETAM_MBZ

>  <Index>  (2948) 
32016

$$$$
ETAM-pdb6dxw-A-LYS-82:MBZ-pdb6dxw-D-PHE-90
     RDKit          3D

 26 25  0  0  0  0  0  0  0  0999 V2000
   -1.0055   -3.5729    2.8522 C   0  0  0  0  0  0  0  0  0  0  0  0
   -0.6539   -3.1137    2.0739 H   0  0  0  0  0  0  0  0  0  0  0  0
   -0.9159   -4.5335    2.7453 H   0  0  0  0  0  0  0  0  0  0  0  0
   -0.4558   -3.2560    3.7385 H   0  0  0  0  0  0  0  0  0  0  0  0
   -2.4794   -3.2416    2.9776 C   0  0  0  0  0  0  0  0  0  0  0  0
   -2.9722   -3.6550    2.2513 H   0  0  0  0  0  0  0  0  0  0  0  0
   -2.8126   -3.5450    3.8373 H   0  0  0  0  0  0  0  0  0  0  0  0
   -2.6486   -1.7664    2.8927 N   0  0  0  0  0  4  0  0  0  0  0  0
   -3.5091   -1.5541    2.9649 H   0  0  0  0  0  0  0  0  0  0  0  0
   -2.1968   -1.3708    3.5496 H   0  0  0  0  0  0  0  0  0  0  0  0
   -2.3421   -1.4700    2.1119 H   0  0  0  0  0  0  0  0  0  0  0  0
    0.0052    2.8947   -0.0120 C   0  0  0  0  0  0  0  0  0  0  0  0
    0.7545    3.1970    0.5241 H   0  0  0  0  0  0  0  0  0  0  0  0
   -0.8275    3.2005    0.3812 H   0  0  0  0  0  0  0  0  0  0  0  0
    0.0970    3.3123   -1.0146 H   0  0  0  0  0  0  0  0  0  0  0  0
    0.0008    1.3941    0.0037 C   0  0  0  0  0  0  0  0  0  0  0  0
   -1.1893    0.6902   -0.0018 C   0  0  0  0  0  0  0  0  0  0  0  0
   -1.9968    1.1522   -0.0025 H   0  0  0  0  0  0  0  0  0  0  0  0
   -1.1928   -0.6915    0.0000 C   0  0  0  0  0  0  0  0  0  0  0  0
   -1.9989   -1.1541    0.0006 H   0  0  0  0  0  0  0  0  0  0  0  0
   -0.0022   -1.3834    0.0001 C   0  0  0  0  0  0  0  0  0  0  0  0
   -0.0031   -2.3135    0.0037 H   0  0  0  0  0  0  0  0  0  0  0  0
    1.1928   -0.6947    0.0000 C   0  0  0  0  0  0  0  0  0  0  0  0
    1.9975   -1.1597    0.0011 H   0  0  0  0  0  0  0  0  0  0  0  0
    1.1907    0.6853   -0.0020 C   0  0  0  0  0  0  0  0  0  0  0  0
    1.9994    1.1457   -0.0026 H   0  0  0  0  0  0  0  0  0  0  0  0
  1  5  1  0
  5  8  1  0
  1  2  1  0
  1  3  1  0
  1  4  1  0
  5  6  1  0
  5  7  1  0
  8  9  1  0
  8 10  1  0
  8 11  1  0
 12 16  1  0
 16 17  2  0
 17 19  1  0
 19 21  2  0
 21 23  1  0
 23 25  2  0
 25 16  1  0
 12 13  1  0
 12 14  1  0
 12 15  1  0
 17 18  1  0
 19 20  1  0
 21 22  1  0
 23 24  1  0
 25 26  1  0
M  CHG  1   8   1
M  END
>  <PDB_ID>  (2949) 
pdb6dxw

>  <RESIDUE_NAME>  (2949) 
LYS   PHE

>  <FRAG_NAME>  (2949) 
ETAM   MBZ

>  <FRAG_ATOM_NUM>  (2949) 
fragi: 11  fragj: 15

>  <atom.prop.CHAIN_ID>  (2949) 
A A A A A A A A A A A Z Z Z Z Z Z Z Z Z Z Z Z Z Z Z

>  <atom.prop.IS_HEAVY_ATOM>  (2949) 
1 0 0 0 1 0 0 1 0 0 0 1 0 0 0 1 1 0 1 0 1 0 1 0 1 0

>  <DIFUSE_FUNC_ATOM>  (2949) 
n/a

>  <FINAL_SINGLE_POINT_ENERGY>  (2949) 
0

>  <NONCOV_INTER_ENERGY_QM>  (2949) 
0

>  <FF_Energy>  (2949) 
-2.51

>  <QM_Energy>  (2949) 
-8.49

>  <source>  (2949) 
ETAM_MBZ

>  <Index>  (2949) 
32038

$$$$
ETAM-pdb6dxw-B-LYS-82:MBZ-pdb6dxw-C-PHE-90
     RDKit          3D

 26 25  0  0  0  0  0  0  0  0999 V2000
   -0.0378   -3.4344    3.5706 C   0  0  0  0  0  0  0  0  0  0  0  0
    0.2189   -2.7796    2.9037 H   0  0  0  0  0  0  0  0  0  0  0  0
    0.0376   -4.3313    3.2075 H   0  0  0  0  0  0  0  0  0  0  0  0
    0.6186   -3.3425    4.4359 H   0  0  0  0  0  0  0  0  0  0  0  0
   -1.4895   -3.1927    3.9400 C   0  0  0  0  0  0  0  0  0  0  0  0
   -1.8339   -3.9710    4.4040 H   0  0  0  0  0  0  0  0  0  0  0  0
   -1.5466   -2.4104    4.5113 H   0  0  0  0  0  0  0  0  0  0  0  0
   -2.3352   -2.9547    2.7390 N   0  0  0  0  0  4  0  0  0  0  0  0
   -3.1792   -2.8163    2.9850 H   0  0  0  0  0  0  0  0  0  0  0  0
   -2.0412   -2.2405    2.2975 H   0  0  0  0  0  0  0  0  0  0  0  0
   -2.3036   -3.6616    2.2000 H   0  0  0  0  0  0  0  0  0  0  0  0
    0.0004    2.9016   -0.0134 C   0  0  0  0  0  0  0  0  0  0  0  0
    0.8111    3.2037    0.4244 H   0  0  0  0  0  0  0  0  0  0  0  0
   -0.7761    3.2053    0.4822 H   0  0  0  0  0  0  0  0  0  0  0  0
   -0.0354    3.3228   -1.0181 H   0  0  0  0  0  0  0  0  0  0  0  0
   -0.0011    1.3976    0.0016 C   0  0  0  0  0  0  0  0  0  0  0  0
   -1.1904    0.6908   -0.0010 C   0  0  0  0  0  0  0  0  0  0  0  0
   -1.9985    1.1515   -0.0029 H   0  0  0  0  0  0  0  0  0  0  0  0
   -1.1934   -0.6961   -0.0000 C   0  0  0  0  0  0  0  0  0  0  0  0
   -1.9995   -1.1604    0.0025 H   0  0  0  0  0  0  0  0  0  0  0  0
    0.0020   -1.3889    0.0018 C   0  0  0  0  0  0  0  0  0  0  0  0
    0.0031   -2.3193    0.0047 H   0  0  0  0  0  0  0  0  0  0  0  0
    1.1934   -0.6946    0.0000 C   0  0  0  0  0  0  0  0  0  0  0  0
    2.0013   -1.1563    0.0010 H   0  0  0  0  0  0  0  0  0  0  0  0
    1.1895    0.6912   -0.0025 C   0  0  0  0  0  0  0  0  0  0  0  0
    1.9960    1.1532   -0.0040 H   0  0  0  0  0  0  0  0  0  0  0  0
  1  5  1  0
  5  8  1  0
  1  2  1  0
  1  3  1  0
  1  4  1  0
  5  6  1  0
  5  7  1  0
  8  9  1  0
  8 10  1  0
  8 11  1  0
 12 16  1  0
 16 17  2  0
 17 19  1  0
 19 21  2  0
 21 23  1  0
 23 25  2  0
 25 16  1  0
 12 13  1  0
 12 14  1  0
 12 15  1  0
 17 18  1  0
 19 20  1  0
 21 22  1  0
 23 24  1  0
 25 26  1  0
M  CHG  1   8   1
M  END
>  <PDB_ID>  (2950) 
pdb6dxw

>  <RESIDUE_NAME>  (2950) 
LYS   PHE

>  <FRAG_NAME>  (2950) 
ETAM   MBZ

>  <FRAG_ATOM_NUM>  (2950) 
fragi: 11  fragj: 15

>  <atom.prop.CHAIN_ID>  (2950) 
A A A A A A A A A A A Z Z Z Z Z Z Z Z Z Z Z Z Z Z Z

>  <atom.prop.IS_HEAVY_ATOM>  (2950) 
1 0 0 0 1 0 0 1 0 0 0 1 0 0 0 1 1 0 1 0 1 0 1 0 1 0

>  <DIFUSE_FUNC_ATOM>  (2950) 
n/a

>  <FINAL_SINGLE_POINT_ENERGY>  (2950) 
0

>  <NONCOV_INTER_ENERGY_QM>  (2950) 
0

>  <FF_Energy>  (2950) 
-1.83

>  <QM_Energy>  (2950) 
-7.05

>  <source>  (2950) 
ETAM_MBZ

>  <Index>  (2950) 
32039

$$$$
ETAM-pdb6dxw-C-LYS-82:MBZ-pdb6dxw-B-PHE-90
     RDKit          3D

 26 25  0  0  0  0  0  0  0  0999 V2000
    0.1284   -3.3250    3.5999 C   0  0  0  0  0  0  0  0  0  0  0  0
    0.4221   -2.6766    2.9410 H   0  0  0  0  0  0  0  0  0  0  0  0
    0.1835   -4.2233    3.2393 H   0  0  0  0  0  0  0  0  0  0  0  0
    0.7587   -3.2505    4.4861 H   0  0  0  0  0  0  0  0  0  0  0  0
   -1.3253   -3.0346    3.9441 C   0  0  0  0  0  0  0  0  0  0  0  0
   -1.7026   -3.8029    4.3993 H   0  0  0  0  0  0  0  0  0  0  0  0
   -1.3642   -2.2554    4.5210 H   0  0  0  0  0  0  0  0  0  0  0  0
   -2.1555   -2.7585    2.7391 N   0  0  0  0  0  4  0  0  0  0  0  0
   -2.9959   -2.5935    2.9804 H   0  0  0  0  0  0  0  0  0  0  0  0
   -1.8354   -2.0501    2.3054 H   0  0  0  0  0  0  0  0  0  0  0  0
   -2.1436   -3.4617    2.1946 H   0  0  0  0  0  0  0  0  0  0  0  0
   -0.0290    2.8858    0.0017 C   0  0  0  0  0  0  0  0  0  0  0  0
    0.7834    3.1965    0.4325 H   0  0  0  0  0  0  0  0  0  0  0  0
   -0.8019    3.1680    0.5162 H   0  0  0  0  0  0  0  0  0  0  0  0
   -0.0892    3.3251   -0.9940 H   0  0  0  0  0  0  0  0  0  0  0  0
   -0.0013    1.3962   -0.0014 C   0  0  0  0  0  0  0  0  0  0  0  0
   -1.1970    0.6918    0.0009 C   0  0  0  0  0  0  0  0  0  0  0  0
   -2.0027    1.1568    0.0012 H   0  0  0  0  0  0  0  0  0  0  0  0
   -1.2092   -0.6906   -0.0000 C   0  0  0  0  0  0  0  0  0  0  0  0
   -2.0183   -1.1503    0.0004 H   0  0  0  0  0  0  0  0  0  0  0  0
   -0.0078   -1.3924    0.0009 C   0  0  0  0  0  0  0  0  0  0  0  0
   -0.0119   -2.3220   -0.0000 H   0  0  0  0  0  0  0  0  0  0  0  0
    1.2092   -0.6989    0.0000 C   0  0  0  0  0  0  0  0  0  0  0  0
    2.0134   -1.1652   -0.0004 H   0  0  0  0  0  0  0  0  0  0  0  0
    1.2061    0.6939   -0.0004 C   0  0  0  0  0  0  0  0  0  0  0  0
    2.0122    1.1581    0.0001 H   0  0  0  0  0  0  0  0  0  0  0  0
  1  5  1  0
  5  8  1  0
  1  2  1  0
  1  3  1  0
  1  4  1  0
  5  6  1  0
  5  7  1  0
  8  9  1  0
  8 10  1  0
  8 11  1  0
 12 16  1  0
 16 17  2  0
 17 19  1  0
 19 21  2  0
 21 23  1  0
 23 25  2  0
 25 16  1  0
 12 13  1  0
 12 14  1  0
 12 15  1  0
 17 18  1  0
 19 20  1  0
 21 22  1  0
 23 24  1  0
 25 26  1  0
M  CHG  1   8   1
M  END
>  <PDB_ID>  (2951) 
pdb6dxw

>  <RESIDUE_NAME>  (2951) 
LYS   PHE

>  <FRAG_NAME>  (2951) 
ETAM   MBZ

>  <FRAG_ATOM_NUM>  (2951) 
fragi: 11  fragj: 15

>  <atom.prop.CHAIN_ID>  (2951) 
A A A A A A A A A A A Z Z Z Z Z Z Z Z Z Z Z Z Z Z Z

>  <atom.prop.IS_HEAVY_ATOM>  (2951) 
1 0 0 0 1 0 0 1 0 0 0 1 0 0 0 1 1 0 1 0 1 0 1 0 1 0

>  <DIFUSE_FUNC_ATOM>  (2951) 
n/a

>  <FINAL_SINGLE_POINT_ENERGY>  (2951) 
0

>  <NONCOV_INTER_ENERGY_QM>  (2951) 
0

>  <FF_Energy>  (2951) 
-2.3

>  <QM_Energy>  (2951) 
-8.28

>  <source>  (2951) 
ETAM_MBZ

>  <Index>  (2951) 
32040

$$$$
ETAM-pdb5dxd-A-LYS-44:MBZ-pdb5dxd-A-PHE-28
     RDKit          3D

 26 25  0  0  0  0  0  0  0  0999 V2000
   -2.9351   -2.5137    2.0108 C   0  0  0  0  0  0  0  0  0  0  0  0
   -1.9975   -2.6718    2.3278 H   0  0  0  0  0  0  0  0  0  0  0  0
   -2.9182   -1.8654    1.2470 H   0  0  0  0  0  0  0  0  0  0  0  0
   -3.3620   -3.4572    1.6709 H   0  0  0  0  0  0  0  0  0  0  0  0
   -3.7228   -1.8895    3.1472 C   0  0  0  0  0  0  0  0  0  0  0  0
   -3.7071   -0.8933    3.0505 H   0  0  0  0  0  0  0  0  0  0  0  0
   -4.6708   -2.2104    3.1067 H   0  0  0  0  0  0  0  0  0  0  0  0
   -3.1437   -2.2569    4.4796 N   0  0  0  0  0  4  0  0  0  0  0  0
   -3.5846   -3.0900    4.8087 H   0  0  0  0  0  0  0  0  0  0  0  0
   -2.1630   -2.4098    4.3787 H   0  0  0  0  0  0  0  0  0  0  0  0
   -3.3058   -1.5114    5.1228 H   0  0  0  0  0  0  0  0  0  0  0  0
    0.0047    2.9013   -0.0090 C   0  0  0  0  0  0  0  0  0  0  0  0
   -0.7437    3.2104   -0.5737 H   0  0  0  0  0  0  0  0  0  0  0  0
    0.8749    3.2075   -0.3601 H   0  0  0  0  0  0  0  0  0  0  0  0
   -0.1249    3.3362    0.9821 H   0  0  0  0  0  0  0  0  0  0  0  0
    0.0019    1.3995   -0.0113 C   0  0  0  0  0  0  0  0  0  0  0  0
   -1.1913    0.7002   -0.0038 C   0  0  0  0  0  0  0  0  0  0  0  0
   -2.0569    1.1940   -0.0023 H   0  0  0  0  0  0  0  0  0  0  0  0
   -1.1949   -0.6779    0.0000 C   0  0  0  0  0  0  0  0  0  0  0  0
   -2.0801   -1.1736   -0.0029 H   0  0  0  0  0  0  0  0  0  0  0  0
   -0.0067   -1.3903    0.0098 C   0  0  0  0  0  0  0  0  0  0  0  0
   -0.0245   -2.3880    0.0229 H   0  0  0  0  0  0  0  0  0  0  0  0
    1.1949   -0.7092    0.0000 C   0  0  0  0  0  0  0  0  0  0  0  0
    2.0733   -1.2112   -0.0094 H   0  0  0  0  0  0  0  0  0  0  0  0
    1.1961    0.6777    0.0054 C   0  0  0  0  0  0  0  0  0  0  0  0
    2.0667    1.1729    0.0206 H   0  0  0  0  0  0  0  0  0  0  0  0
  1  5  1  0
  5  8  1  0
  1  2  1  0
  1  3  1  0
  1  4  1  0
  5  6  1  0
  5  7  1  0
  8  9  1  0
  8 10  1  0
  8 11  1  0
 12 16  1  0
 16 17  2  0
 17 19  1  0
 19 21  2  0
 21 23  1  0
 23 25  2  0
 25 16  1  0
 12 13  1  0
 12 14  1  0
 12 15  1  0
 17 18  1  0
 19 20  1  0
 21 22  1  0
 23 24  1  0
 25 26  1  0
M  CHG  1   8   1
M  END
>  <PDB_ID>  (2952) 
pdb5dxd

>  <RESIDUE_NAME>  (2952) 
LYS   PHE

>  <FRAG_NAME>  (2952) 
ETAM   MBZ

>  <FRAG_ATOM_NUM>  (2952) 
fragi: 11  fragj: 15

>  <atom.prop.CHAIN_ID>  (2952) 
A A A A A A A A A A A Z Z Z Z Z Z Z Z Z Z Z Z Z Z Z

>  <atom.prop.IS_HEAVY_ATOM>  (2952) 
1 0 0 0 1 0 0 1 0 0 0 1 0 0 0 1 1 0 1 0 1 0 1 0 1 0

>  <DIFUSE_FUNC_ATOM>  (2952) 
n/a

>  <FINAL_SINGLE_POINT_ENERGY>  (2952) 
0

>  <NONCOV_INTER_ENERGY_QM>  (2952) 
0

>  <FF_Energy>  (2952) 
9.39

>  <QM_Energy>  (2952) 
-0.24

>  <source>  (2952) 
ETAM_MBZ

>  <Index>  (2952) 
32045

$$$$
ETAM-pdb6dwv-A-LYS-304:MBZ-pdb6dwv-A-PHE-321
     RDKit          3D

 26 25  0  0  0  0  0  0  0  0999 V2000
   -0.8191   -4.4486    2.7861 C   0  0  0  0  0  0  0  0  0  0  0  0
   -1.5642   -4.0741    3.3090 H   0  0  0  0  0  0  0  0  0  0  0  0
   -0.6714   -5.4019    2.9793 H   0  0  0  0  0  0  0  0  0  0  0  0
   -1.0270   -4.3242    1.7234 H   0  0  0  0  0  0  0  0  0  0  0  0
    0.4564   -3.6792    3.1404 C   0  0  0  0  0  0  0  0  0  0  0  0
    0.2630   -2.7000    3.1088 H   0  0  0  0  0  0  0  0  0  0  0  0
    0.7438   -3.9362    4.0605 H   0  0  0  0  0  0  0  0  0  0  0  0
    1.5631   -3.9922    2.1755 N   0  0  0  0  0  4  0  0  0  0  0  0
    2.4393   -3.8128    2.6166 H   0  0  0  0  0  0  0  0  0  0  0  0
    1.5045   -4.9531    1.9138 H   0  0  0  0  0  0  0  0  0  0  0  0
    1.4646   -3.4137    1.3694 H   0  0  0  0  0  0  0  0  0  0  0  0
   -0.0051    2.8924   -0.0032 C   0  0  0  0  0  0  0  0  0  0  0  0
    0.9203    3.2026   -0.1637 H   0  0  0  0  0  0  0  0  0  0  0  0
   -0.3416    3.2019    0.8737 H   0  0  0  0  0  0  0  0  0  0  0  0
   -0.6399    3.3275   -0.7750 H   0  0  0  0  0  0  0  0  0  0  0  0
   -0.0002    1.3924    0.0016 C   0  0  0  0  0  0  0  0  0  0  0  0
   -1.1968    0.6820   -0.0017 C   0  0  0  0  0  0  0  0  0  0  0  0
   -2.0618    1.1772   -0.0062 H   0  0  0  0  0  0  0  0  0  0  0  0
   -1.1945   -0.6927   -0.0000 C   0  0  0  0  0  0  0  0  0  0  0  0
   -2.0707   -1.1961    0.0034 H   0  0  0  0  0  0  0  0  0  0  0  0
    0.0029   -1.3792   -0.0018 C   0  0  0  0  0  0  0  0  0  0  0  0
   -0.0021   -2.3845   -0.0050 H   0  0  0  0  0  0  0  0  0  0  0  0
    1.1945   -0.6920    0.0000 C   0  0  0  0  0  0  0  0  0  0  0  0
    2.0790   -1.1927    0.0014 H   0  0  0  0  0  0  0  0  0  0  0  0
    1.1941    0.6896    0.0019 C   0  0  0  0  0  0  0  0  0  0  0  0
    2.0619    1.1876    0.0026 H   0  0  0  0  0  0  0  0  0  0  0  0
  1  5  1  0
  5  8  1  0
  1  2  1  0
  1  3  1  0
  1  4  1  0
  5  6  1  0
  5  7  1  0
  8  9  1  0
  8 10  1  0
  8 11  1  0
 12 16  1  0
 16 17  2  0
 17 19  1  0
 19 21  2  0
 21 23  1  0
 23 25  2  0
 25 16  1  0
 12 13  1  0
 12 14  1  0
 12 15  1  0
 17 18  1  0
 19 20  1  0
 21 22  1  0
 23 24  1  0
 25 26  1  0
M  CHG  1   8   1
M  END
>  <PDB_ID>  (2953) 
pdb6dwv

>  <RESIDUE_NAME>  (2953) 
LYS   PHE

>  <FRAG_NAME>  (2953) 
ETAM   MBZ

>  <FRAG_ATOM_NUM>  (2953) 
fragi: 11  fragj: 15

>  <atom.prop.CHAIN_ID>  (2953) 
A A A A A A A A A A A Z Z Z Z Z Z Z Z Z Z Z Z Z Z Z

>  <atom.prop.IS_HEAVY_ATOM>  (2953) 
1 0 0 0 1 0 0 1 0 0 0 1 0 0 0 1 1 0 1 0 1 0 1 0 1 0

>  <DIFUSE_FUNC_ATOM>  (2953) 
n/a

>  <FINAL_SINGLE_POINT_ENERGY>  (2953) 
0

>  <NONCOV_INTER_ENERGY_QM>  (2953) 
0

>  <FF_Energy>  (2953) 
-0.9

>  <QM_Energy>  (2953) 
-6.39

>  <source>  (2953) 
ETAM_MBZ

>  <Index>  (2953) 
32060

$$$$
ETAM-pdb6dzx-A-LYS-276:MBZ-pdb6dzx-A-PHE-234
     RDKit          3D

 26 25  0  0  0  0  0  0  0  0999 V2000
    0.6283   -0.2822    4.1606 C   0  0  0  0  0  0  0  0  0  0  0  0
    1.0840    0.1921    4.8733 H   0  0  0  0  0  0  0  0  0  0  0  0
    0.4771    0.3137    3.4100 H   0  0  0  0  0  0  0  0  0  0  0  0
    1.2532   -1.1127    3.8320 H   0  0  0  0  0  0  0  0  0  0  0  0
   -0.7427   -0.7308    4.6917 C   0  0  0  0  0  0  0  0  0  0  0  0
   -0.6624   -1.6322    5.0410 H   0  0  0  0  0  0  0  0  0  0  0  0
   -1.0160   -0.1266    5.3994 H   0  0  0  0  0  0  0  0  0  0  0  0
   -1.7825   -0.7360    3.6879 N   0  0  0  0  0  4  0  0  0  0  0  0
   -2.5509   -1.0028    4.0479 H   0  0  0  0  0  0  0  0  0  0  0  0
   -1.8868    0.0816    3.3538 H   0  0  0  0  0  0  0  0  0  0  0  0
   -1.5643   -1.2919    3.0277 H   0  0  0  0  0  0  0  0  0  0  0  0
    0.0249    2.9021    0.0071 C   0  0  0  0  0  0  0  0  0  0  0  0
   -0.6023    3.2158   -0.6632 H   0  0  0  0  0  0  0  0  0  0  0  0
    0.9230    3.1916   -0.2164 H   0  0  0  0  0  0  0  0  0  0  0  0
   -0.2532    3.3153    0.9766 H   0  0  0  0  0  0  0  0  0  0  0  0
    0.0038    1.3930   -0.0029 C   0  0  0  0  0  0  0  0  0  0  0  0
   -1.1922    0.7005   -0.0072 C   0  0  0  0  0  0  0  0  0  0  0  0
   -1.9990    1.1637   -0.0056 H   0  0  0  0  0  0  0  0  0  0  0  0
   -1.1881   -0.6902    0.0000 C   0  0  0  0  0  0  0  0  0  0  0  0
   -1.9931   -1.1538   -0.0057 H   0  0  0  0  0  0  0  0  0  0  0  0
    0.0007   -1.3836    0.0045 C   0  0  0  0  0  0  0  0  0  0  0  0
   -0.0023   -2.3135    0.0007 H   0  0  0  0  0  0  0  0  0  0  0  0
    1.1881   -0.7011    0.0000 C   0  0  0  0  0  0  0  0  0  0  0  0
    1.9937   -1.1670    0.0072 H   0  0  0  0  0  0  0  0  0  0  0  0
    1.1876    0.6813    0.0055 C   0  0  0  0  0  0  0  0  0  0  0  0
    1.9965    1.1397    0.0077 H   0  0  0  0  0  0  0  0  0  0  0  0
  1  5  1  0
  5  8  1  0
  1  2  1  0
  1  3  1  0
  1  4  1  0
  5  6  1  0
  5  7  1  0
  8  9  1  0
  8 10  1  0
  8 11  1  0
 12 16  1  0
 16 17  2  0
 17 19  1  0
 19 21  2  0
 21 23  1  0
 23 25  2  0
 25 16  1  0
 12 13  1  0
 12 14  1  0
 12 15  1  0
 17 18  1  0
 19 20  1  0
 21 22  1  0
 23 24  1  0
 25 26  1  0
M  CHG  1   8   1
M  END
>  <PDB_ID>  (2954) 
pdb6dzx

>  <RESIDUE_NAME>  (2954) 
LYS   PHE

>  <FRAG_NAME>  (2954) 
ETAM   MBZ

>  <FRAG_ATOM_NUM>  (2954) 
fragi: 11  fragj: 15

>  <atom.prop.CHAIN_ID>  (2954) 
A A A A A A A A A A A Z Z Z Z Z Z Z Z Z Z Z Z Z Z Z

>  <atom.prop.IS_HEAVY_ATOM>  (2954) 
1 0 0 0 1 0 0 1 0 0 0 1 0 0 0 1 1 0 1 0 1 0 1 0 1 0

>  <DIFUSE_FUNC_ATOM>  (2954) 
n/a

>  <FINAL_SINGLE_POINT_ENERGY>  (2954) 
0

>  <NONCOV_INTER_ENERGY_QM>  (2954) 
0

>  <FF_Energy>  (2954) 
-4.96

>  <QM_Energy>  (2954) 
-10.0

>  <source>  (2954) 
ETAM_MBZ

>  <Index>  (2954) 
32063

$$$$
ETAM-pdb5dz7-A-LYS-280:MBZ-pdb5dz7-A-PHE-263
     RDKit          3D

 26 25  0  0  0  0  0  0  0  0999 V2000
    4.7303    0.1504    2.9797 C   0  0  0  0  0  0  0  0  0  0  0  0
    4.8992    1.0009    3.4750 H   0  0  0  0  0  0  0  0  0  0  0  0
    5.5233   -0.0751    2.4167 H   0  0  0  0  0  0  0  0  0  0  0  0
    4.5758   -0.6499    3.7035 H   0  0  0  0  0  0  0  0  0  0  0  0
    3.5314    0.3451    2.0747 C   0  0  0  0  0  0  0  0  0  0  0  0
    3.3584   -0.5012    1.5744 H   0  0  0  0  0  0  0  0  0  0  0  0
    2.7341    0.5753    2.6319 H   0  0  0  0  0  0  0  0  0  0  0  0
    3.7845    1.4438    1.1077 N   0  0  0  0  0  4  0  0  0  0  0  0
    3.8631    2.3103    1.5997 H   0  0  0  0  0  0  0  0  0  0  0  0
    4.6343    1.2624    0.6132 H   0  0  0  0  0  0  0  0  0  0  0  0
    3.0252    1.4968    0.4578 H   0  0  0  0  0  0  0  0  0  0  0  0
   -0.0028    2.8785   -0.0406 C   0  0  0  0  0  0  0  0  0  0  0  0
    0.7689    3.2184    0.4707 H   0  0  0  0  0  0  0  0  0  0  0  0
   -0.8579    3.2096    0.3214 H   0  0  0  0  0  0  0  0  0  0  0  0
    0.0877    3.2655   -1.0555 H   0  0  0  0  0  0  0  0  0  0  0  0
    0.0006    1.3999    0.0115 C   0  0  0  0  0  0  0  0  0  0  0  0
   -1.1912    0.6899   -0.0073 C   0  0  0  0  0  0  0  0  0  0  0  0
   -2.0607    1.1756   -0.0280 H   0  0  0  0  0  0  0  0  0  0  0  0
   -1.1937   -0.7044   -0.0000 C   0  0  0  0  0  0  0  0  0  0  0  0
   -2.0739   -1.1939    0.0020 H   0  0  0  0  0  0  0  0  0  0  0  0
   -0.0003   -1.3934    0.0060 C   0  0  0  0  0  0  0  0  0  0  0  0
    0.0019   -2.3932    0.0142 H   0  0  0  0  0  0  0  0  0  0  0  0
    1.1937   -0.6937   -0.0000 C   0  0  0  0  0  0  0  0  0  0  0  0
    2.0797   -1.1873    0.0048 H   0  0  0  0  0  0  0  0  0  0  0  0
    1.1908    0.7019   -0.0103 C   0  0  0  0  0  0  0  0  0  0  0  0
    2.0607    1.1929   -0.0341 H   0  0  0  0  0  0  0  0  0  0  0  0
  1  5  1  0
  5  8  1  0
  1  2  1  0
  1  3  1  0
  1  4  1  0
  5  6  1  0
  5  7  1  0
  8  9  1  0
  8 10  1  0
  8 11  1  0
 12 16  1  0
 16 17  2  0
 17 19  1  0
 19 21  2  0
 21 23  1  0
 23 25  2  0
 25 16  1  0
 12 13  1  0
 12 14  1  0
 12 15  1  0
 17 18  1  0
 19 20  1  0
 21 22  1  0
 23 24  1  0
 25 26  1  0
M  CHG  1   8   1
M  END
>  <PDB_ID>  (2955) 
pdb5dz7

>  <RESIDUE_NAME>  (2955) 
LYS   PHE

>  <FRAG_NAME>  (2955) 
ETAM   MBZ

>  <FRAG_ATOM_NUM>  (2955) 
fragi: 11  fragj: 15

>  <atom.prop.CHAIN_ID>  (2955) 
A A A A A A A A A A A Z Z Z Z Z Z Z Z Z Z Z Z Z Z Z

>  <atom.prop.IS_HEAVY_ATOM>  (2955) 
1 0 0 0 1 0 0 1 0 0 0 1 0 0 0 1 1 0 1 0 1 0 1 0 1 0

>  <DIFUSE_FUNC_ATOM>  (2955) 
n/a

>  <FINAL_SINGLE_POINT_ENERGY>  (2955) 
0

>  <NONCOV_INTER_ENERGY_QM>  (2955) 
0

>  <FF_Energy>  (2955) 
19.01

>  <QM_Energy>  (2955) 
8.14

>  <source>  (2955) 
ETAM_MBZ

>  <Index>  (2955) 
32069

$$$$
ETAM-pdb6e0m-A-LYS-144:MBZ-pdb6e0m-A-PHE-72
     RDKit          3D

 26 25  0  0  0  0  0  0  0  0999 V2000
    4.9913   -1.7109   -3.0786 C   0  0  0  0  0  0  0  0  0  0  0  0
    4.9358   -2.2134   -2.2519 H   0  0  0  0  0  0  0  0  0  0  0  0
    5.8762   -1.8032   -3.4658 H   0  0  0  0  0  0  0  0  0  0  0  0
    4.2465   -2.0833   -3.7819 H   0  0  0  0  0  0  0  0  0  0  0  0
    4.7556   -0.2511   -2.7699 C   0  0  0  0  0  0  0  0  0  0  0  0
    5.6043    0.1881   -2.6064 H   0  0  0  0  0  0  0  0  0  0  0  0
    4.3017    0.1705   -3.5164 H   0  0  0  0  0  0  0  0  0  0  0  0
    3.9123   -0.1116   -1.5646 N   0  0  0  0  0  4  0  0  0  0  0  0
    3.7871    0.7502   -1.3788 H   0  0  0  0  0  0  0  0  0  0  0  0
    3.1215   -0.4963   -1.6996 H   0  0  0  0  0  0  0  0  0  0  0  0
    4.3082   -0.5024   -0.8694 H   0  0  0  0  0  0  0  0  0  0  0  0
   -0.0022    2.8924   -0.0020 C   0  0  0  0  0  0  0  0  0  0  0  0
   -0.7753    3.1876   -0.5089 H   0  0  0  0  0  0  0  0  0  0  0  0
    0.8121    3.1899   -0.4368 H   0  0  0  0  0  0  0  0  0  0  0  0
   -0.0480    3.3307    0.9950 H   0  0  0  0  0  0  0  0  0  0  0  0
    0.0002    1.3979   -0.0059 C   0  0  0  0  0  0  0  0  0  0  0  0
   -1.1912    0.6877   -0.0061 C   0  0  0  0  0  0  0  0  0  0  0  0
   -2.0004    1.1465   -0.0111 H   0  0  0  0  0  0  0  0  0  0  0  0
   -1.1903   -0.6955   -0.0000 C   0  0  0  0  0  0  0  0  0  0  0  0
   -1.9951   -1.1610   -0.0008 H   0  0  0  0  0  0  0  0  0  0  0  0
   -0.0028   -1.3814    0.0082 C   0  0  0  0  0  0  0  0  0  0  0  0
   -0.0062   -2.3112    0.0192 H   0  0  0  0  0  0  0  0  0  0  0  0
    1.1903   -0.7049    0.0000 C   0  0  0  0  0  0  0  0  0  0  0  0
    1.9934   -1.1740   -0.0100 H   0  0  0  0  0  0  0  0  0  0  0  0
    1.1938    0.6963    0.0038 C   0  0  0  0  0  0  0  0  0  0  0  0
    2.0014    1.1573    0.0131 H   0  0  0  0  0  0  0  0  0  0  0  0
  1  5  1  0
  5  8  1  0
  1  2  1  0
  1  3  1  0
  1  4  1  0
  5  6  1  0
  5  7  1  0
  8  9  1  0
  8 10  1  0
  8 11  1  0
 12 16  1  0
 16 17  2  0
 17 19  1  0
 19 21  2  0
 21 23  1  0
 23 25  2  0
 25 16  1  0
 12 13  1  0
 12 14  1  0
 12 15  1  0
 17 18  1  0
 19 20  1  0
 21 22  1  0
 23 24  1  0
 25 26  1  0
M  CHG  1   8   1
M  END
>  <PDB_ID>  (2956) 
pdb6e0m

>  <RESIDUE_NAME>  (2956) 
LYS   PHE

>  <FRAG_NAME>  (2956) 
ETAM   MBZ

>  <FRAG_ATOM_NUM>  (2956) 
fragi: 11  fragj: 15

>  <atom.prop.CHAIN_ID>  (2956) 
A A A A A A A A A A A Z Z Z Z Z Z Z Z Z Z Z Z Z Z Z

>  <atom.prop.IS_HEAVY_ATOM>  (2956) 
1 0 0 0 1 0 0 1 0 0 0 1 0 0 0 1 1 0 1 0 1 0 1 0 1 0

>  <DIFUSE_FUNC_ATOM>  (2956) 
n/a

>  <FINAL_SINGLE_POINT_ENERGY>  (2956) 
0

>  <NONCOV_INTER_ENERGY_QM>  (2956) 
0

>  <FF_Energy>  (2956) 
0.77

>  <QM_Energy>  (2956) 
-6.02

>  <source>  (2956) 
ETAM_MBZ

>  <Index>  (2956) 
32077

$$$$
ETAM-pdb5e24-F-LYS-138:MBZ-pdb5e24-F-PHE-203
     RDKit          3D

 26 25  0  0  0  0  0  0  0  0999 V2000
    0.6745   -0.0797   -3.5709 C   0  0  0  0  0  0  0  0  0  0  0  0
    1.4041    0.1992   -4.1938 H   0  0  0  0  0  0  0  0  0  0  0  0
    0.8926    0.2177   -2.6433 H   0  0  0  0  0  0  0  0  0  0  0  0
   -0.2509    0.4047   -3.8824 H   0  0  0  0  0  0  0  0  0  0  0  0
    0.5624   -1.5808   -3.5894 C   0  0  0  0  0  0  0  0  0  0  0  0
   -0.2898   -1.8538   -3.1317 H   0  0  0  0  0  0  0  0  0  0  0  0
    0.5300   -1.8981   -4.5425 H   0  0  0  0  0  0  0  0  0  0  0  0
    1.7082   -2.2224   -2.9041 N   0  0  0  0  0  4  0  0  0  0  0  0
    1.5295   -2.2652   -1.9206 H   0  0  0  0  0  0  0  0  0  0  0  0
    1.8344   -3.1500   -3.2587 H   0  0  0  0  0  0  0  0  0  0  0  0
    2.5388   -1.6878   -3.0678 H   0  0  0  0  0  0  0  0  0  0  0  0
   -0.0018    2.9321    0.0471 C   0  0  0  0  0  0  0  0  0  0  0  0
   -0.8801    3.2439   -0.2750 H   0  0  0  0  0  0  0  0  0  0  0  0
    0.7340    3.2539   -0.5251 H   0  0  0  0  0  0  0  0  0  0  0  0
    0.1498    3.3544    1.0405 H   0  0  0  0  0  0  0  0  0  0  0  0
    0.0012    1.4111    0.0060 C   0  0  0  0  0  0  0  0  0  0  0  0
   -1.1938    0.6953   -0.0002 C   0  0  0  0  0  0  0  0  0  0  0  0
   -2.0636    1.1777   -0.0058 H   0  0  0  0  0  0  0  0  0  0  0  0
   -1.1936   -0.7062    0.0000 C   0  0  0  0  0  0  0  0  0  0  0  0
   -2.0752   -1.1930    0.0024 H   0  0  0  0  0  0  0  0  0  0  0  0
   -0.0020   -1.3942   -0.0006 C   0  0  0  0  0  0  0  0  0  0  0  0
   -0.0044   -2.3978   -0.0016 H   0  0  0  0  0  0  0  0  0  0  0  0
    1.1936   -0.7046   -0.0000 C   0  0  0  0  0  0  0  0  0  0  0  0
    2.0782   -1.1970    0.0054 H   0  0  0  0  0  0  0  0  0  0  0  0
    1.1946    0.6987   -0.0052 C   0  0  0  0  0  0  0  0  0  0  0  0
    2.0655    1.1856   -0.0177 H   0  0  0  0  0  0  0  0  0  0  0  0
  1  5  1  0
  5  8  1  0
  1  2  1  0
  1  3  1  0
  1  4  1  0
  5  6  1  0
  5  7  1  0
  8  9  1  0
  8 10  1  0
  8 11  1  0
 12 16  1  0
 16 17  2  0
 17 19  1  0
 19 21  2  0
 21 23  1  0
 23 25  2  0
 25 16  1  0
 12 13  1  0
 12 14  1  0
 12 15  1  0
 17 18  1  0
 19 20  1  0
 21 22  1  0
 23 24  1  0
 25 26  1  0
M  CHG  1   8   1
M  END
>  <PDB_ID>  (2957) 
pdb5e24

>  <RESIDUE_NAME>  (2957) 
LYS   PHE

>  <FRAG_NAME>  (2957) 
ETAM   MBZ

>  <FRAG_ATOM_NUM>  (2957) 
fragi: 11  fragj: 15

>  <atom.prop.CHAIN_ID>  (2957) 
A A A A A A A A A A A Z Z Z Z Z Z Z Z Z Z Z Z Z Z Z

>  <atom.prop.IS_HEAVY_ATOM>  (2957) 
1 0 0 0 1 0 0 1 0 0 0 1 0 0 0 1 1 0 1 0 1 0 1 0 1 0

>  <DIFUSE_FUNC_ATOM>  (2957) 
n/a

>  <FINAL_SINGLE_POINT_ENERGY>  (2957) 
0

>  <NONCOV_INTER_ENERGY_QM>  (2957) 
0

>  <FF_Energy>  (2957) 
-4.15

>  <QM_Energy>  (2957) 
-11.85

>  <source>  (2957) 
ETAM_MBZ

>  <Index>  (2957) 
32119

$$$$
ETAM-pdb6ea3-B-LYS-644:MBZ-pdb6ea3-B-PHE-694
     RDKit          3D

 26 25  0  0  0  0  0  0  0  0999 V2000
   -1.2453   -1.1145   -4.9178 C   0  0  0  0  0  0  0  0  0  0  0  0
   -1.0169   -2.0749   -4.9673 H   0  0  0  0  0  0  0  0  0  0  0  0
   -0.4354   -0.5533   -4.8487 H   0  0  0  0  0  0  0  0  0  0  0  0
   -1.7474   -0.8500   -5.8484 H   0  0  0  0  0  0  0  0  0  0  0  0
   -2.1446   -0.8631   -3.7325 C   0  0  0  0  0  0  0  0  0  0  0  0
   -3.0544   -1.3042   -3.9095 H   0  0  0  0  0  0  0  0  0  0  0  0
   -1.7596   -1.3529   -2.9167 H   0  0  0  0  0  0  0  0  0  0  0  0
   -2.3797    0.5615   -3.3555 N   0  0  0  0  0  4  0  0  0  0  0  0
   -1.8366    0.7826   -2.5466 H   0  0  0  0  0  0  0  0  0  0  0  0
   -2.1089    1.1517   -4.1143 H   0  0  0  0  0  0  0  0  0  0  0  0
   -3.3499    0.6936   -3.1557 H   0  0  0  0  0  0  0  0  0  0  0  0
    0.0108    2.8971    0.0183 C   0  0  0  0  0  0  0  0  0  0  0  0
    0.8693    3.2063    0.3785 H   0  0  0  0  0  0  0  0  0  0  0  0
   -0.7554    3.2142    0.5427 H   0  0  0  0  0  0  0  0  0  0  0  0
   -0.0875    3.3350   -0.9750 H   0  0  0  0  0  0  0  0  0  0  0  0
    0.0022    1.3965    0.0011 C   0  0  0  0  0  0  0  0  0  0  0  0
   -1.2090    0.6971   -0.0038 C   0  0  0  0  0  0  0  0  0  0  0  0
   -2.0663    1.1953   -0.0117 H   0  0  0  0  0  0  0  0  0  0  0  0
   -1.2156   -0.6897   -0.0000 C   0  0  0  0  0  0  0  0  0  0  0  0
   -2.0925   -1.1846   -0.0048 H   0  0  0  0  0  0  0  0  0  0  0  0
   -0.0145   -1.3880    0.0122 C   0  0  0  0  0  0  0  0  0  0  0  0
   -0.0308   -2.3964    0.0303 H   0  0  0  0  0  0  0  0  0  0  0  0
    1.2156   -0.7247    0.0000 C   0  0  0  0  0  0  0  0  0  0  0  0
    2.0793   -1.2158   -0.0009 H   0  0  0  0  0  0  0  0  0  0  0  0
    1.2212    0.7088   -0.0095 C   0  0  0  0  0  0  0  0  0  0  0  0
    2.0770    1.1875   -0.0239 H   0  0  0  0  0  0  0  0  0  0  0  0
  1  5  1  0
  5  8  1  0
  1  2  1  0
  1  3  1  0
  1  4  1  0
  5  6  1  0
  5  7  1  0
  8  9  1  0
  8 10  1  0
  8 11  1  0
 12 16  1  0
 16 17  2  0
 17 19  1  0
 19 21  2  0
 21 23  1  0
 23 25  2  0
 25 16  1  0
 12 13  1  0
 12 14  1  0
 12 15  1  0
 17 18  1  0
 19 20  1  0
 21 22  1  0
 23 24  1  0
 25 26  1  0
M  CHG  1   8   1
M  END
>  <PDB_ID>  (2958) 
pdb6ea3

>  <RESIDUE_NAME>  (2958) 
LYS   PHE

>  <FRAG_NAME>  (2958) 
ETAM   MBZ

>  <FRAG_ATOM_NUM>  (2958) 
fragi: 11  fragj: 15

>  <atom.prop.CHAIN_ID>  (2958) 
A A A A A A A A A A A Z Z Z Z Z Z Z Z Z Z Z Z Z Z Z

>  <atom.prop.IS_HEAVY_ATOM>  (2958) 
1 0 0 0 1 0 0 1 0 0 0 1 0 0 0 1 1 0 1 0 1 0 1 0 1 0

>  <DIFUSE_FUNC_ATOM>  (2958) 
n/a

>  <FINAL_SINGLE_POINT_ENERGY>  (2958) 
0

>  <NONCOV_INTER_ENERGY_QM>  (2958) 
0

>  <FF_Energy>  (2958) 
-4.81

>  <QM_Energy>  (2958) 
-10.83

>  <source>  (2958) 
ETAM_MBZ

>  <Index>  (2958) 
32134

$$$$
ETAM-pdb5e3x-A-LYS-422:MBZ-pdb5e3x-A-PHE-418
     RDKit          3D

 26 25  0  0  0  0  0  0  0  0999 V2000
   -0.4737   -2.1793    3.4944 C   0  0  0  0  0  0  0  0  0  0  0  0
   -0.4919   -2.8152    4.2596 H   0  0  0  0  0  0  0  0  0  0  0  0
   -0.6041   -2.6685    2.6370 H   0  0  0  0  0  0  0  0  0  0  0  0
   -1.2729   -1.4482    3.6165 H   0  0  0  0  0  0  0  0  0  0  0  0
    0.8925   -1.5084    3.4604 C   0  0  0  0  0  0  0  0  0  0  0  0
    0.8659   -0.7449    2.8183 H   0  0  0  0  0  0  0  0  0  0  0  0
    1.1155   -1.1740    4.3739 H   0  0  0  0  0  0  0  0  0  0  0  0
    1.9499   -2.4778    3.0239 N   0  0  0  0  0  4  0  0  0  0  0  0
    2.2042   -2.2801    2.0799 H   0  0  0  0  0  0  0  0  0  0  0  0
    2.7468   -2.3803    3.6169 H   0  0  0  0  0  0  0  0  0  0  0  0
    1.5886   -3.4058    3.0906 H   0  0  0  0  0  0  0  0  0  0  0  0
    0.0128    2.8847   -0.0290 C   0  0  0  0  0  0  0  0  0  0  0  0
   -0.3415    3.1816   -0.9082 H   0  0  0  0  0  0  0  0  0  0  0  0
    0.9505    3.1893    0.0902 H   0  0  0  0  0  0  0  0  0  0  0  0
   -0.5883    3.3603    0.7460 H   0  0  0  0  0  0  0  0  0  0  0  0
   -0.0021    1.3955    0.0026 C   0  0  0  0  0  0  0  0  0  0  0  0
   -1.1951    0.6942   -0.0045 C   0  0  0  0  0  0  0  0  0  0  0  0
   -2.0610    1.1874   -0.0140 H   0  0  0  0  0  0  0  0  0  0  0  0
   -1.1984   -0.6859   -0.0000 C   0  0  0  0  0  0  0  0  0  0  0  0
   -2.0757   -1.1850    0.0023 H   0  0  0  0  0  0  0  0  0  0  0  0
    0.0010   -1.3860    0.0039 C   0  0  0  0  0  0  0  0  0  0  0  0
   -0.0130   -2.3878    0.0087 H   0  0  0  0  0  0  0  0  0  0  0  0
    1.1984   -0.7043    0.0000 C   0  0  0  0  0  0  0  0  0  0  0  0
    2.0795   -1.2014   -0.0001 H   0  0  0  0  0  0  0  0  0  0  0  0
    1.1962    0.6863   -0.0020 C   0  0  0  0  0  0  0  0  0  0  0  0
    2.0628    1.1827   -0.0072 H   0  0  0  0  0  0  0  0  0  0  0  0
  1  5  1  0
  5  8  1  0
  1  2  1  0
  1  3  1  0
  1  4  1  0
  5  6  1  0
  5  7  1  0
  8  9  1  0
  8 10  1  0
  8 11  1  0
 12 16  1  0
 16 17  2  0
 17 19  1  0
 19 21  2  0
 21 23  1  0
 23 25  2  0
 25 16  1  0
 12 13  1  0
 12 14  1  0
 12 15  1  0
 17 18  1  0
 19 20  1  0
 21 22  1  0
 23 24  1  0
 25 26  1  0
M  CHG  1   8   1
M  END
>  <PDB_ID>  (2959) 
pdb5e3x

>  <RESIDUE_NAME>  (2959) 
LYS   PHE

>  <FRAG_NAME>  (2959) 
ETAM   MBZ

>  <FRAG_ATOM_NUM>  (2959) 
fragi: 11  fragj: 15

>  <atom.prop.CHAIN_ID>  (2959) 
A A A A A A A A A A A Z Z Z Z Z Z Z Z Z Z Z Z Z Z Z

>  <atom.prop.IS_HEAVY_ATOM>  (2959) 
1 0 0 0 1 0 0 1 0 0 0 1 0 0 0 1 1 0 1 0 1 0 1 0 1 0

>  <DIFUSE_FUNC_ATOM>  (2959) 
n/a

>  <FINAL_SINGLE_POINT_ENERGY>  (2959) 
0

>  <NONCOV_INTER_ENERGY_QM>  (2959) 
0

>  <FF_Energy>  (2959) 
-3.57

>  <QM_Energy>  (2959) 
-9.95

>  <source>  (2959) 
ETAM_MBZ

>  <Index>  (2959) 
32135

$$$$
ETAM-pdb5e37-A-LYS-263:MBZ-pdb5e37-A-PHE-232
     RDKit          3D

 26 25  0  0  0  0  0  0  0  0999 V2000
    2.2105    0.2900    3.5766 C   0  0  0  0  0  0  0  0  0  0  0  0
    2.7027    0.3567    2.6966 H   0  0  0  0  0  0  0  0  0  0  0  0
    2.8820    0.0352    4.2881 H   0  0  0  0  0  0  0  0  0  0  0  0
    1.7700    1.2567    3.8204 H   0  0  0  0  0  0  0  0  0  0  0  0
    1.2049   -0.8363    3.4624 C   0  0  0  0  0  0  0  0  0  0  0  0
    0.7127   -0.9224    4.3250 H   0  0  0  0  0  0  0  0  0  0  0  0
    0.5655   -0.6300    2.7251 H   0  0  0  0  0  0  0  0  0  0  0  0
    1.9061   -2.1060    3.1657 N   0  0  0  0  0  4  0  0  0  0  0  0
    1.9601   -2.2364    2.1744 H   0  0  0  0  0  0  0  0  0  0  0  0
    2.8307   -2.0758    3.5468 H   0  0  0  0  0  0  0  0  0  0  0  0
    1.4042   -2.8691    3.5738 H   0  0  0  0  0  0  0  0  0  0  0  0
    0.0380    2.8440    0.0304 C   0  0  0  0  0  0  0  0  0  0  0  0
    0.4340    3.1503   -0.8490 H   0  0  0  0  0  0  0  0  0  0  0  0
    0.6619    3.1447    0.7675 H   0  0  0  0  0  0  0  0  0  0  0  0
   -0.8919    3.3968    0.1640 H   0  0  0  0  0  0  0  0  0  0  0  0
   -0.0358    1.4036    0.0358 C   0  0  0  0  0  0  0  0  0  0  0  0
   -1.1782    0.6681    0.0323 C   0  0  0  0  0  0  0  0  0  0  0  0
   -2.0798    1.1261    0.0526 H   0  0  0  0  0  0  0  0  0  0  0  0
   -1.1752   -0.7406   -0.0000 C   0  0  0  0  0  0  0  0  0  0  0  0
   -2.0416   -1.2309    0.0133 H   0  0  0  0  0  0  0  0  0  0  0  0
    0.0330   -1.3918   -0.0472 C   0  0  0  0  0  0  0  0  0  0  0  0
    0.0678   -2.3837   -0.1148 H   0  0  0  0  0  0  0  0  0  0  0  0
    1.1752   -0.6447    0.0000 C   0  0  0  0  0  0  0  0  0  0  0  0
    2.0924   -1.1445    0.0568 H   0  0  0  0  0  0  0  0  0  0  0  0
    1.1810    0.7053   -0.0210 C   0  0  0  0  0  0  0  0  0  0  0  0
    2.0291    1.2245   -0.0773 H   0  0  0  0  0  0  0  0  0  0  0  0
  1  5  1  0
  5  8  1  0
  1  2  1  0
  1  3  1  0
  1  4  1  0
  5  6  1  0
  5  7  1  0
  8  9  1  0
  8 10  1  0
  8 11  1  0
 12 16  1  0
 16 17  2  0
 17 19  1  0
 19 21  2  0
 21 23  1  0
 23 25  2  0
 25 16  1  0
 12 13  1  0
 12 14  1  0
 12 15  1  0
 17 18  1  0
 19 20  1  0
 21 22  1  0
 23 24  1  0
 25 26  1  0
M  CHG  1   8   1
M  END
>  <PDB_ID>  (2960) 
pdb5e37

>  <RESIDUE_NAME>  (2960) 
LYS   PHE

>  <FRAG_NAME>  (2960) 
ETAM   MBZ

>  <FRAG_ATOM_NUM>  (2960) 
fragi: 11  fragj: 15

>  <atom.prop.CHAIN_ID>  (2960) 
A A A A A A A A A A A Z Z Z Z Z Z Z Z Z Z Z Z Z Z Z

>  <atom.prop.IS_HEAVY_ATOM>  (2960) 
1 0 0 0 1 0 0 1 0 0 0 1 0 0 0 1 1 0 1 0 1 0 1 0 1 0

>  <DIFUSE_FUNC_ATOM>  (2960) 
n/a

>  <FINAL_SINGLE_POINT_ENERGY>  (2960) 
0

>  <NONCOV_INTER_ENERGY_QM>  (2960) 
0

>  <FF_Energy>  (2960) 
-4.27

>  <QM_Energy>  (2960) 
-10.69

>  <source>  (2960) 
ETAM_MBZ

>  <Index>  (2960) 
32148

$$$$
ETAM-pdb5dzt-A-LYS-52:MBZ-pdb5dzt-A-PHE-556
     RDKit          3D

 26 25  0  0  0  0  0  0  0  0999 V2000
    0.0548   -0.5171   -4.7621 C   0  0  0  0  0  0  0  0  0  0  0  0
    0.1977    0.4213   -4.4726 H   0  0  0  0  0  0  0  0  0  0  0  0
   -0.8819   -0.6532   -5.0610 H   0  0  0  0  0  0  0  0  0  0  0  0
    0.7290   -0.7414   -5.5886 H   0  0  0  0  0  0  0  0  0  0  0  0
    0.3228   -1.4352   -3.5783 C   0  0  0  0  0  0  0  0  0  0  0  0
   -0.3903   -1.2931   -2.8893 H   0  0  0  0  0  0  0  0  0  0  0  0
    0.2935   -2.3867   -3.8912 H   0  0  0  0  0  0  0  0  0  0  0  0
    1.6543   -1.1610   -2.9694 N   0  0  0  0  0  4  0  0  0  0  0  0
    2.1167   -2.0271   -2.7805 H   0  0  0  0  0  0  0  0  0  0  0  0
    2.2036   -0.6194   -3.6048 H   0  0  0  0  0  0  0  0  0  0  0  0
    1.5306   -0.6545   -2.1170 H   0  0  0  0  0  0  0  0  0  0  0  0
    0.0021    2.9230    0.0024 C   0  0  0  0  0  0  0  0  0  0  0  0
   -0.8456    3.2230   -0.4056 H   0  0  0  0  0  0  0  0  0  0  0  0
    0.7823    3.2215   -0.5251 H   0  0  0  0  0  0  0  0  0  0  0  0
    0.0752    3.3726    0.9927 H   0  0  0  0  0  0  0  0  0  0  0  0
    0.0006    1.4047    0.0074 C   0  0  0  0  0  0  0  0  0  0  0  0
   -1.1987    0.7005    0.0057 C   0  0  0  0  0  0  0  0  0  0  0  0
   -2.0630    1.1953    0.0071 H   0  0  0  0  0  0  0  0  0  0  0  0
   -1.2046   -0.6843    0.0000 C   0  0  0  0  0  0  0  0  0  0  0  0
   -2.0853   -1.1788   -0.0001 H   0  0  0  0  0  0  0  0  0  0  0  0
   -0.0074   -1.3952   -0.0043 C   0  0  0  0  0  0  0  0  0  0  0  0
   -0.0216   -2.3919   -0.0109 H   0  0  0  0  0  0  0  0  0  0  0  0
    1.2046   -0.7091   -0.0000 C   0  0  0  0  0  0  0  0  0  0  0  0
    2.0786   -1.2123    0.0114 H   0  0  0  0  0  0  0  0  0  0  0  0
    1.2055    0.6835   -0.0088 C   0  0  0  0  0  0  0  0  0  0  0  0
    2.0712    1.1801   -0.0279 H   0  0  0  0  0  0  0  0  0  0  0  0
  1  5  1  0
  5  8  1  0
  1  2  1  0
  1  3  1  0
  1  4  1  0
  5  6  1  0
  5  7  1  0
  8  9  1  0
  8 10  1  0
  8 11  1  0
 12 16  1  0
 16 17  2  0
 17 19  1  0
 19 21  2  0
 21 23  1  0
 23 25  2  0
 25 16  1  0
 12 13  1  0
 12 14  1  0
 12 15  1  0
 17 18  1  0
 19 20  1  0
 21 22  1  0
 23 24  1  0
 25 26  1  0
M  CHG  1   8   1
M  END
>  <PDB_ID>  (2961) 
pdb5dzt

>  <RESIDUE_NAME>  (2961) 
LYS   PHE

>  <FRAG_NAME>  (2961) 
ETAM   MBZ

>  <FRAG_ATOM_NUM>  (2961) 
fragi: 11  fragj: 15

>  <atom.prop.CHAIN_ID>  (2961) 
A A A A A A A A A A A Z Z Z Z Z Z Z Z Z Z Z Z Z Z Z

>  <atom.prop.IS_HEAVY_ATOM>  (2961) 
1 0 0 0 1 0 0 1 0 0 0 1 0 0 0 1 1 0 1 0 1 0 1 0 1 0

>  <DIFUSE_FUNC_ATOM>  (2961) 
n/a

>  <FINAL_SINGLE_POINT_ENERGY>  (2961) 
0

>  <NONCOV_INTER_ENERGY_QM>  (2961) 
0

>  <FF_Energy>  (2961) 
-5.67

>  <QM_Energy>  (2961) 
-14.17

>  <source>  (2961) 
ETAM_MBZ

>  <Index>  (2961) 
32152

$$$$
ETAM-pdb5e37-C-LYS-263:MBZ-pdb5e37-C-PHE-232
     RDKit          3D

 26 25  0  0  0  0  0  0  0  0999 V2000
    2.0930    0.3776    3.6106 C   0  0  0  0  0  0  0  0  0  0  0  0
    2.5753    0.3892    2.7315 H   0  0  0  0  0  0  0  0  0  0  0  0
    2.7576    0.2268    4.3463 H   0  0  0  0  0  0  0  0  0  0  0  0
    1.5834    1.3290    3.7634 H   0  0  0  0  0  0  0  0  0  0  0  0
    1.1290   -0.7735    3.6042 C   0  0  0  0  0  0  0  0  0  0  0  0
    0.7093   -0.8607    4.5065 H   0  0  0  0  0  0  0  0  0  0  0  0
    0.4185   -0.6092    2.9200 H   0  0  0  0  0  0  0  0  0  0  0  0
    1.8384   -2.0341    3.2743 N   0  0  0  0  0  4  0  0  0  0  0  0
    2.7658   -1.8240    2.9627 H   0  0  0  0  0  0  0  0  0  0  0  0
    1.8843   -2.6144    4.0879 H   0  0  0  0  0  0  0  0  0  0  0  0
    1.3449   -2.5155    2.5493 H   0  0  0  0  0  0  0  0  0  0  0  0
    0.0232    2.8476   -0.0992 C   0  0  0  0  0  0  0  0  0  0  0  0
    0.4226    3.1344   -0.9796 H   0  0  0  0  0  0  0  0  0  0  0  0
    0.6112    3.1977    0.6412 H   0  0  0  0  0  0  0  0  0  0  0  0
   -0.9134    3.3983   -0.0117 H   0  0  0  0  0  0  0  0  0  0  0  0
   -0.0403    1.4114   -0.0350 C   0  0  0  0  0  0  0  0  0  0  0  0
   -1.1965    0.6595    0.0147 C   0  0  0  0  0  0  0  0  0  0  0  0
   -2.0928    1.1360    0.0634 H   0  0  0  0  0  0  0  0  0  0  0  0
   -1.2126   -0.7415    0.0000 C   0  0  0  0  0  0  0  0  0  0  0  0
   -2.0516   -1.2448   -0.0234 H   0  0  0  0  0  0  0  0  0  0  0  0
    0.0443   -1.3990    0.0233 C   0  0  0  0  0  0  0  0  0  0  0  0
    0.0751   -2.3871    0.0554 H   0  0  0  0  0  0  0  0  0  0  0  0
    1.2126   -0.6397   -0.0000 C   0  0  0  0  0  0  0  0  0  0  0  0
    2.1175   -1.1395   -0.0137 H   0  0  0  0  0  0  0  0  0  0  0  0
    1.1925    0.7092   -0.0030 C   0  0  0  0  0  0  0  0  0  0  0  0
    2.0364    1.2468    0.0166 H   0  0  0  0  0  0  0  0  0  0  0  0
  1  5  1  0
  5  8  1  0
  1  2  1  0
  1  3  1  0
  1  4  1  0
  5  6  1  0
  5  7  1  0
  8  9  1  0
  8 10  1  0
  8 11  1  0
 12 16  1  0
 16 17  2  0
 17 19  1  0
 19 21  2  0
 21 23  1  0
 23 25  2  0
 25 16  1  0
 12 13  1  0
 12 14  1  0
 12 15  1  0
 17 18  1  0
 19 20  1  0
 21 22  1  0
 23 24  1  0
 25 26  1  0
M  CHG  1   8   1
M  END
>  <PDB_ID>  (2962) 
pdb5e37

>  <RESIDUE_NAME>  (2962) 
LYS   PHE

>  <FRAG_NAME>  (2962) 
ETAM   MBZ

>  <FRAG_ATOM_NUM>  (2962) 
fragi: 11  fragj: 15

>  <atom.prop.CHAIN_ID>  (2962) 
A A A A A A A A A A A Z Z Z Z Z Z Z Z Z Z Z Z Z Z Z

>  <atom.prop.IS_HEAVY_ATOM>  (2962) 
1 0 0 0 1 0 0 1 0 0 0 1 0 0 0 1 1 0 1 0 1 0 1 0 1 0

>  <DIFUSE_FUNC_ATOM>  (2962) 
n/a

>  <FINAL_SINGLE_POINT_ENERGY>  (2962) 
0

>  <NONCOV_INTER_ENERGY_QM>  (2962) 
0

>  <FF_Energy>  (2962) 
-4.54

>  <QM_Energy>  (2962) 
-10.71

>  <source>  (2962) 
ETAM_MBZ

>  <Index>  (2962) 
32180

$$$$
ETAM-pdb6ecu-A-LYS-991:MBZ-pdb6ecu-A-PHE-1189
     RDKit          3D

 26 25  0  0  0  0  0  0  0  0999 V2000
    0.8064    0.4806   -3.8828 C   0  0  0  0  0  0  0  0  0  0  0  0
    1.1136   -0.1959   -4.5433 H   0  0  0  0  0  0  0  0  0  0  0  0
    1.1022    0.2309   -2.9669 H   0  0  0  0  0  0  0  0  0  0  0  0
    1.2332    1.4493   -4.1426 H   0  0  0  0  0  0  0  0  0  0  0  0
   -0.7117    0.5248   -3.9063 C   0  0  0  0  0  0  0  0  0  0  0  0
   -1.0179    0.6889   -4.8486 H   0  0  0  0  0  0  0  0  0  0  0  0
   -1.0682   -0.3628   -3.6010 H   0  0  0  0  0  0  0  0  0  0  0  0
   -1.2465    1.5950   -3.0257 N   0  0  0  0  0  4  0  0  0  0  0  0
   -1.8391    2.1996   -3.5580 H   0  0  0  0  0  0  0  0  0  0  0  0
   -1.7726    1.1828   -2.2818 H   0  0  0  0  0  0  0  0  0  0  0  0
   -0.4874    2.1234   -2.6444 H   0  0  0  0  0  0  0  0  0  0  0  0
   -0.0012    2.9016    0.0088 C   0  0  0  0  0  0  0  0  0  0  0  0
   -0.7475    3.2110   -0.5571 H   0  0  0  0  0  0  0  0  0  0  0  0
    0.8707    3.2096   -0.3354 H   0  0  0  0  0  0  0  0  0  0  0  0
   -0.1371    3.3238    1.0045 H   0  0  0  0  0  0  0  0  0  0  0  0
   -0.0005    1.3973   -0.0042 C   0  0  0  0  0  0  0  0  0  0  0  0
   -1.1925    0.6920    0.0035 C   0  0  0  0  0  0  0  0  0  0  0  0
   -2.0608    1.1818    0.0105 H   0  0  0  0  0  0  0  0  0  0  0  0
   -1.1952   -0.6948    0.0000 C   0  0  0  0  0  0  0  0  0  0  0  0
   -2.0740   -1.1893   -0.0002 H   0  0  0  0  0  0  0  0  0  0  0  0
    0.0002   -1.3874   -0.0006 C   0  0  0  0  0  0  0  0  0  0  0  0
   -0.0038   -2.3885   -0.0017 H   0  0  0  0  0  0  0  0  0  0  0  0
    1.1952   -0.6954    0.0000 C   0  0  0  0  0  0  0  0  0  0  0  0
    2.0786   -1.1948    0.0012 H   0  0  0  0  0  0  0  0  0  0  0  0
    1.1928    0.6882    0.0013 C   0  0  0  0  0  0  0  0  0  0  0  0
    2.0619    1.1860    0.0051 H   0  0  0  0  0  0  0  0  0  0  0  0
  1  5  1  0
  5  8  1  0
  1  2  1  0
  1  3  1  0
  1  4  1  0
  5  6  1  0
  5  7  1  0
  8  9  1  0
  8 10  1  0
  8 11  1  0
 12 16  1  0
 16 17  2  0
 17 19  1  0
 19 21  2  0
 21 23  1  0
 23 25  2  0
 25 16  1  0
 12 13  1  0
 12 14  1  0
 12 15  1  0
 17 18  1  0
 19 20  1  0
 21 22  1  0
 23 24  1  0
 25 26  1  0
M  CHG  1   8   1
M  END
>  <PDB_ID>  (2963) 
pdb6ecu

>  <RESIDUE_NAME>  (2963) 
LYS   PHE

>  <FRAG_NAME>  (2963) 
ETAM   MBZ

>  <FRAG_ATOM_NUM>  (2963) 
fragi: 11  fragj: 15

>  <atom.prop.CHAIN_ID>  (2963) 
A A A A A A A A A A A Z Z Z Z Z Z Z Z Z Z Z Z Z Z Z

>  <atom.prop.IS_HEAVY_ATOM>  (2963) 
1 0 0 0 1 0 0 1 0 0 0 1 0 0 0 1 1 0 1 0 1 0 1 0 1 0

>  <DIFUSE_FUNC_ATOM>  (2963) 
n/a

>  <FINAL_SINGLE_POINT_ENERGY>  (2963) 
0

>  <NONCOV_INTER_ENERGY_QM>  (2963) 
0

>  <FF_Energy>  (2963) 
-6.92

>  <QM_Energy>  (2963) 
-12.99

>  <source>  (2963) 
ETAM_MBZ

>  <Index>  (2963) 
32193

$$$$
ETAM-pdb6efu-A-LYS-379:MBZ-pdb6efu-A-PHE-446
     RDKit          3D

 26 25  0  0  0  0  0  0  0  0999 V2000
    2.3277    0.6074    4.6430 C   0  0  0  0  0  0  0  0  0  0  0  0
    2.5692    1.4025    4.0884 H   0  0  0  0  0  0  0  0  0  0  0  0
    3.1496    0.2311    5.0687 H   0  0  0  0  0  0  0  0  0  0  0  0
    1.6341    0.9188    5.4241 H   0  0  0  0  0  0  0  0  0  0  0  0
    1.7337   -0.4550    3.7253 C   0  0  0  0  0  0  0  0  0  0  0  0
    2.2155   -0.4221    2.8373 H   0  0  0  0  0  0  0  0  0  0  0  0
    1.9027   -1.3655    4.1315 H   0  0  0  0  0  0  0  0  0  0  0  0
    0.2696   -0.2957    3.4881 N   0  0  0  0  0  4  0  0  0  0  0  0
   -0.0516    0.5310    3.9484 H   0  0  0  0  0  0  0  0  0  0  0  0
    0.1013   -0.2203    2.5062 H   0  0  0  0  0  0  0  0  0  0  0  0
   -0.2120   -1.0918    3.8526 H   0  0  0  0  0  0  0  0  0  0  0  0
   -0.0031    2.8980    0.0015 C   0  0  0  0  0  0  0  0  0  0  0  0
    0.8704    3.2064    0.3482 H   0  0  0  0  0  0  0  0  0  0  0  0
   -0.7462    3.2024    0.5796 H   0  0  0  0  0  0  0  0  0  0  0  0
   -0.1455    3.3395   -0.9849 H   0  0  0  0  0  0  0  0  0  0  0  0
    0.0003    1.3965    0.0001 C   0  0  0  0  0  0  0  0  0  0  0  0
   -1.1906    0.6902    0.0014 C   0  0  0  0  0  0  0  0  0  0  0  0
   -2.0593    1.1796    0.0019 H   0  0  0  0  0  0  0  0  0  0  0  0
   -1.1943   -0.6962   -0.0000 C   0  0  0  0  0  0  0  0  0  0  0  0
   -2.0743   -1.1893    0.0010 H   0  0  0  0  0  0  0  0  0  0  0  0
   -0.0013   -1.3876   -0.0007 C   0  0  0  0  0  0  0  0  0  0  0  0
   -0.0044   -2.3893   -0.0023 H   0  0  0  0  0  0  0  0  0  0  0  0
    1.1943   -0.6947    0.0000 C   0  0  0  0  0  0  0  0  0  0  0  0
    2.0771   -1.1933    0.0027 H   0  0  0  0  0  0  0  0  0  0  0  0
    1.1916    0.6917   -0.0008 C   0  0  0  0  0  0  0  0  0  0  0  0
    2.0619    1.1877   -0.0025 H   0  0  0  0  0  0  0  0  0  0  0  0
  1  5  1  0
  5  8  1  0
  1  2  1  0
  1  3  1  0
  1  4  1  0
  5  6  1  0
  5  7  1  0
  8  9  1  0
  8 10  1  0
  8 11  1  0
 12 16  1  0
 16 17  2  0
 17 19  1  0
 19 21  2  0
 21 23  1  0
 23 25  2  0
 25 16  1  0
 12 13  1  0
 12 14  1  0
 12 15  1  0
 17 18  1  0
 19 20  1  0
 21 22  1  0
 23 24  1  0
 25 26  1  0
M  CHG  1   8   1
M  END
>  <PDB_ID>  (2964) 
pdb6efu

>  <RESIDUE_NAME>  (2964) 
LYS   PHE

>  <FRAG_NAME>  (2964) 
ETAM   MBZ

>  <FRAG_ATOM_NUM>  (2964) 
fragi: 11  fragj: 15

>  <atom.prop.CHAIN_ID>  (2964) 
A A A A A A A A A A A Z Z Z Z Z Z Z Z Z Z Z Z Z Z Z

>  <atom.prop.IS_HEAVY_ATOM>  (2964) 
1 0 0 0 1 0 0 1 0 0 0 1 0 0 0 1 1 0 1 0 1 0 1 0 1 0

>  <DIFUSE_FUNC_ATOM>  (2964) 
n/a

>  <FINAL_SINGLE_POINT_ENERGY>  (2964) 
0

>  <NONCOV_INTER_ENERGY_QM>  (2964) 
0

>  <FF_Energy>  (2964) 
-8.64

>  <QM_Energy>  (2964) 
-15.28

>  <source>  (2964) 
ETAM_MBZ

>  <Index>  (2964) 
32196

$$$$
ETAM-pdb6efu-B-LYS-379:MBZ-pdb6efu-B-PHE-446
     RDKit          3D

 26 25  0  0  0  0  0  0  0  0999 V2000
    0.6370   -0.0630    4.9887 C   0  0  0  0  0  0  0  0  0  0  0  0
    1.4279   -0.6584    4.8743 H   0  0  0  0  0  0  0  0  0  0  0  0
   -0.0182   -0.4800    5.6131 H   0  0  0  0  0  0  0  0  0  0  0  0
    0.9699    0.8862    5.4086 H   0  0  0  0  0  0  0  0  0  0  0  0
   -0.0329    0.1189    3.6360 C   0  0  0  0  0  0  0  0  0  0  0  0
   -0.7788    0.7780    3.7278 H   0  0  0  0  0  0  0  0  0  0  0  0
    0.6401    0.4669    2.9836 H   0  0  0  0  0  0  0  0  0  0  0  0
   -0.5807   -1.1729    3.1326 N   0  0  0  0  0  4  0  0  0  0  0  0
   -0.6830   -1.8081    3.8967 H   0  0  0  0  0  0  0  0  0  0  0  0
   -1.4711   -1.0115    2.7090 H   0  0  0  0  0  0  0  0  0  0  0  0
    0.0475   -1.5576    2.4580 H   0  0  0  0  0  0  0  0  0  0  0  0
    0.0008    2.9037    0.0050 C   0  0  0  0  0  0  0  0  0  0  0  0
    0.8360    3.2058    0.4403 H   0  0  0  0  0  0  0  0  0  0  0  0
   -0.7956    3.2074    0.5063 H   0  0  0  0  0  0  0  0  0  0  0  0
   -0.0392    3.3528   -0.9874 H   0  0  0  0  0  0  0  0  0  0  0  0
   -0.0007    1.3971   -0.0009 C   0  0  0  0  0  0  0  0  0  0  0  0
   -1.1924    0.6911   -0.0002 C   0  0  0  0  0  0  0  0  0  0  0  0
   -2.0606    1.1826   -0.0011 H   0  0  0  0  0  0  0  0  0  0  0  0
   -1.1979   -0.6937   -0.0000 C   0  0  0  0  0  0  0  0  0  0  0  0
   -2.0750   -1.1892    0.0008 H   0  0  0  0  0  0  0  0  0  0  0  0
    0.0006   -1.3884    0.0002 C   0  0  0  0  0  0  0  0  0  0  0  0
   -0.0036   -2.3882    0.0003 H   0  0  0  0  0  0  0  0  0  0  0  0
    1.1979   -0.6934    0.0000 C   0  0  0  0  0  0  0  0  0  0  0  0
    2.0806   -1.1941    0.0008 H   0  0  0  0  0  0  0  0  0  0  0  0
    1.1925    0.6872    0.0009 C   0  0  0  0  0  0  0  0  0  0  0  0
    2.0622    1.1880    0.0026 H   0  0  0  0  0  0  0  0  0  0  0  0
  1  5  1  0
  5  8  1  0
  1  2  1  0
  1  3  1  0
  1  4  1  0
  5  6  1  0
  5  7  1  0
  8  9  1  0
  8 10  1  0
  8 11  1  0
 12 16  1  0
 16 17  2  0
 17 19  1  0
 19 21  2  0
 21 23  1  0
 23 25  2  0
 25 16  1  0
 12 13  1  0
 12 14  1  0
 12 15  1  0
 17 18  1  0
 19 20  1  0
 21 22  1  0
 23 24  1  0
 25 26  1  0
M  CHG  1   8   1
M  END
>  <PDB_ID>  (2965) 
pdb6efu

>  <RESIDUE_NAME>  (2965) 
LYS   PHE

>  <FRAG_NAME>  (2965) 
ETAM   MBZ

>  <FRAG_ATOM_NUM>  (2965) 
fragi: 11  fragj: 15

>  <atom.prop.CHAIN_ID>  (2965) 
A A A A A A A A A A A Z Z Z Z Z Z Z Z Z Z Z Z Z Z Z

>  <atom.prop.IS_HEAVY_ATOM>  (2965) 
1 0 0 0 1 0 0 1 0 0 0 1 0 0 0 1 1 0 1 0 1 0 1 0 1 0

>  <DIFUSE_FUNC_ATOM>  (2965) 
n/a

>  <FINAL_SINGLE_POINT_ENERGY>  (2965) 
0

>  <NONCOV_INTER_ENERGY_QM>  (2965) 
0

>  <FF_Energy>  (2965) 
-7.43

>  <QM_Energy>  (2965) 
-15.01

>  <source>  (2965) 
ETAM_MBZ

>  <Index>  (2965) 
32198

$$$$
ETAM-pdb5e5u-B-LYS-277:MBZ-pdb5e5u-B-PHE-173
     RDKit          3D

 26 25  0  0  0  0  0  0  0  0999 V2000
   -5.4243   -1.8802    0.6267 C   0  0  0  0  0  0  0  0  0  0  0  0
   -6.3658   -2.1823    0.5318 H   0  0  0  0  0  0  0  0  0  0  0  0
   -4.8268   -2.4116    0.0360 H   0  0  0  0  0  0  0  0  0  0  0  0
   -5.3570   -0.8275    0.3523 H   0  0  0  0  0  0  0  0  0  0  0  0
   -4.9918   -2.1029    2.0729 C   0  0  0  0  0  0  0  0  0  0  0  0
   -5.6273   -1.6211    2.6810 H   0  0  0  0  0  0  0  0  0  0  0  0
   -5.0275   -3.0846    2.2774 H   0  0  0  0  0  0  0  0  0  0  0  0
   -3.5980   -1.6036    2.3326 N   0  0  0  0  0  4  0  0  0  0  0  0
   -3.0431   -1.7521    1.5174 H   0  0  0  0  0  0  0  0  0  0  0  0
   -3.6367   -0.6302    2.5461 H   0  0  0  0  0  0  0  0  0  0  0  0
   -3.2122   -2.1061    3.1036 H   0  0  0  0  0  0  0  0  0  0  0  0
    0.0147    2.9215   -0.0375 C   0  0  0  0  0  0  0  0  0  0  0  0
   -0.5451    3.2024   -0.8056 H   0  0  0  0  0  0  0  0  0  0  0  0
    0.9550    3.2112   -0.1600 H   0  0  0  0  0  0  0  0  0  0  0  0
   -0.3724    3.4117    0.8558 H   0  0  0  0  0  0  0  0  0  0  0  0
    0.0021    1.4060    0.0111 C   0  0  0  0  0  0  0  0  0  0  0  0
   -1.1937    0.6981   -0.0080 C   0  0  0  0  0  0  0  0  0  0  0  0
   -2.0610    1.1842   -0.0288 H   0  0  0  0  0  0  0  0  0  0  0  0
   -1.1992   -0.7007    0.0000 C   0  0  0  0  0  0  0  0  0  0  0  0
   -2.0786   -1.1886    0.0061 H   0  0  0  0  0  0  0  0  0  0  0  0
   -0.0015   -1.3994    0.0021 C   0  0  0  0  0  0  0  0  0  0  0  0
   -0.0024   -2.3955    0.0046 H   0  0  0  0  0  0  0  0  0  0  0  0
    1.1992   -0.6970   -0.0000 C   0  0  0  0  0  0  0  0  0  0  0  0
    2.0814   -1.1944    0.0036 H   0  0  0  0  0  0  0  0  0  0  0  0
    1.1932    0.6931   -0.0052 C   0  0  0  0  0  0  0  0  0  0  0  0
    2.0653    1.1886   -0.0219 H   0  0  0  0  0  0  0  0  0  0  0  0
  1  5  1  0
  5  8  1  0
  1  2  1  0
  1  3  1  0
  1  4  1  0
  5  6  1  0
  5  7  1  0
  8  9  1  0
  8 10  1  0
  8 11  1  0
 12 16  1  0
 16 17  2  0
 17 19  1  0
 19 21  2  0
 21 23  1  0
 23 25  2  0
 25 16  1  0
 12 13  1  0
 12 14  1  0
 12 15  1  0
 17 18  1  0
 19 20  1  0
 21 22  1  0
 23 24  1  0
 25 26  1  0
M  CHG  1   8   1
M  END
>  <PDB_ID>  (2966) 
pdb5e5u

>  <RESIDUE_NAME>  (2966) 
LYS   PHE

>  <FRAG_NAME>  (2966) 
ETAM   MBZ

>  <FRAG_ATOM_NUM>  (2966) 
fragi: 11  fragj: 15

>  <atom.prop.CHAIN_ID>  (2966) 
A A A A A A A A A A A Z Z Z Z Z Z Z Z Z Z Z Z Z Z Z

>  <atom.prop.IS_HEAVY_ATOM>  (2966) 
1 0 0 0 1 0 0 1 0 0 0 1 0 0 0 1 1 0 1 0 1 0 1 0 1 0

>  <DIFUSE_FUNC_ATOM>  (2966) 
n/a

>  <FINAL_SINGLE_POINT_ENERGY>  (2966) 
0

>  <NONCOV_INTER_ENERGY_QM>  (2966) 
0

>  <FF_Energy>  (2966) 
-0.47

>  <QM_Energy>  (2966) 
-5.58

>  <source>  (2966) 
ETAM_MBZ

>  <Index>  (2966) 
32208

$$$$
ETAM-pdb5ech-A-LYS-143:MBZ-pdb5ech-A-PHE-212
     RDKit          3D

 26 25  0  0  0  0  0  0  0  0999 V2000
    2.3346    4.1938   -2.2078 C   0  0  0  0  0  0  0  0  0  0  0  0
    1.4055    4.5222   -2.1191 H   0  0  0  0  0  0  0  0  0  0  0  0
    2.8039    4.6444   -2.9539 H   0  0  0  0  0  0  0  0  0  0  0  0
    2.8726    4.3798   -1.2782 H   0  0  0  0  0  0  0  0  0  0  0  0
    2.2932    2.7005   -2.4947 C   0  0  0  0  0  0  0  0  0  0  0  0
    3.0821    2.4556   -3.0648 H   0  0  0  0  0  0  0  0  0  0  0  0
    2.3527    2.1998   -1.6272 H   0  0  0  0  0  0  0  0  0  0  0  0
    1.0395    2.3033   -3.2008 N   0  0  0  0  0  4  0  0  0  0  0  0
    0.2513    2.5777   -2.6523 H   0  0  0  0  0  0  0  0  0  0  0  0
    1.0050    2.7562   -4.0905 H   0  0  0  0  0  0  0  0  0  0  0  0
    1.0327    1.3122   -3.3272 H   0  0  0  0  0  0  0  0  0  0  0  0
    0.0351    2.9041   -0.0095 C   0  0  0  0  0  0  0  0  0  0  0  0
    0.4617    3.1966   -0.8578 H   0  0  0  0  0  0  0  0  0  0  0  0
    0.5742    3.1984    0.7709 H   0  0  0  0  0  0  0  0  0  0  0  0
   -0.9388    3.3889    0.0573 H   0  0  0  0  0  0  0  0  0  0  0  0
    0.0024    1.3960   -0.0054 C   0  0  0  0  0  0  0  0  0  0  0  0
   -1.1880    0.6944    0.0028 C   0  0  0  0  0  0  0  0  0  0  0  0
   -2.0564    1.1866    0.0090 H   0  0  0  0  0  0  0  0  0  0  0  0
   -1.1918   -0.6866    0.0000 C   0  0  0  0  0  0  0  0  0  0  0  0
   -2.0756   -1.1804   -0.0036 H   0  0  0  0  0  0  0  0  0  0  0  0
   -0.0045   -1.3846    0.0044 C   0  0  0  0  0  0  0  0  0  0  0  0
   -0.0118   -2.3858    0.0102 H   0  0  0  0  0  0  0  0  0  0  0  0
    1.1918   -0.6975   -0.0000 C   0  0  0  0  0  0  0  0  0  0  0  0
    2.0726   -1.2023   -0.0006 H   0  0  0  0  0  0  0  0  0  0  0  0
    1.1901    0.6784   -0.0018 C   0  0  0  0  0  0  0  0  0  0  0  0
    2.0632    1.1771   -0.0013 H   0  0  0  0  0  0  0  0  0  0  0  0
  1  5  1  0
  5  8  1  0
  1  2  1  0
  1  3  1  0
  1  4  1  0
  5  6  1  0
  5  7  1  0
  8  9  1  0
  8 10  1  0
  8 11  1  0
 12 16  1  0
 16 17  2  0
 17 19  1  0
 19 21  2  0
 21 23  1  0
 23 25  2  0
 25 16  1  0
 12 13  1  0
 12 14  1  0
 12 15  1  0
 17 18  1  0
 19 20  1  0
 21 22  1  0
 23 24  1  0
 25 26  1  0
M  CHG  1   8   1
M  END
>  <PDB_ID>  (2967) 
pdb5ech

>  <RESIDUE_NAME>  (2967) 
LYS   PHE

>  <FRAG_NAME>  (2967) 
ETAM   MBZ

>  <FRAG_ATOM_NUM>  (2967) 
fragi: 11  fragj: 15

>  <atom.prop.CHAIN_ID>  (2967) 
A A A A A A A A A A A Z Z Z Z Z Z Z Z Z Z Z Z Z Z Z

>  <atom.prop.IS_HEAVY_ATOM>  (2967) 
1 0 0 0 1 0 0 1 0 0 0 1 0 0 0 1 1 0 1 0 1 0 1 0 1 0

>  <DIFUSE_FUNC_ATOM>  (2967) 
n/a

>  <FINAL_SINGLE_POINT_ENERGY>  (2967) 
0

>  <NONCOV_INTER_ENERGY_QM>  (2967) 
0

>  <FF_Energy>  (2967) 
0.64

>  <QM_Energy>  (2967) 
-6.37

>  <source>  (2967) 
ETAM_MBZ

>  <Index>  (2967) 
32242

$$$$
ETAM-pdb5ech-A-LYS-557:MBZ-pdb5ech-A-PHE-535
     RDKit          3D

 26 25  0  0  0  0  0  0  0  0999 V2000
    0.8768   -2.3394   -2.9807 C   0  0  0  0  0  0  0  0  0  0  0  0
    0.7069   -2.5667   -2.0182 H   0  0  0  0  0  0  0  0  0  0  0  0
    1.5247   -1.5756   -3.0262 H   0  0  0  0  0  0  0  0  0  0  0  0
    1.3073   -3.2056   -3.4831 H   0  0  0  0  0  0  0  0  0  0  0  0
   -0.4381   -1.8830   -3.5982 C   0  0  0  0  0  0  0  0  0  0  0  0
   -0.4835   -0.8729   -3.5508 H   0  0  0  0  0  0  0  0  0  0  0  0
   -0.4427   -2.1426   -4.5769 H   0  0  0  0  0  0  0  0  0  0  0  0
   -1.6413   -2.4542   -2.9390 N   0  0  0  0  0  4  0  0  0  0  0  0
   -1.8514   -1.9271   -2.1157 H   0  0  0  0  0  0  0  0  0  0  0  0
   -2.4168   -2.4126   -3.5687 H   0  0  0  0  0  0  0  0  0  0  0  0
   -1.4635   -3.4061   -2.6901 H   0  0  0  0  0  0  0  0  0  0  0  0
   -0.0477    2.8644    0.0017 C   0  0  0  0  0  0  0  0  0  0  0  0
    0.7239    3.2050   -0.5097 H   0  0  0  0  0  0  0  0  0  0  0  0
   -0.0311    3.1739    0.9378 H   0  0  0  0  0  0  0  0  0  0  0  0
   -0.9526    3.2575   -0.4618 H   0  0  0  0  0  0  0  0  0  0  0  0
    0.0005    1.3792   -0.0043 C   0  0  0  0  0  0  0  0  0  0  0  0
   -1.1850    0.6672   -0.0000 C   0  0  0  0  0  0  0  0  0  0  0  0
   -2.0558    1.1702    0.0022 H   0  0  0  0  0  0  0  0  0  0  0  0
   -1.1922   -0.6926   -0.0000 C   0  0  0  0  0  0  0  0  0  0  0  0
   -2.0712   -1.1931   -0.0003 H   0  0  0  0  0  0  0  0  0  0  0  0
   -0.0089   -1.3657    0.0015 C   0  0  0  0  0  0  0  0  0  0  0  0
   -0.0016   -2.3755    0.0033 H   0  0  0  0  0  0  0  0  0  0  0  0
    1.1922   -0.6800    0.0000 C   0  0  0  0  0  0  0  0  0  0  0  0
    2.0706   -1.1897   -0.0016 H   0  0  0  0  0  0  0  0  0  0  0  0
    1.1934    0.6919    0.0028 C   0  0  0  0  0  0  0  0  0  0  0  0
    2.0574    1.1932    0.0086 H   0  0  0  0  0  0  0  0  0  0  0  0
  1  5  1  0
  5  8  1  0
  1  2  1  0
  1  3  1  0
  1  4  1  0
  5  6  1  0
  5  7  1  0
  8  9  1  0
  8 10  1  0
  8 11  1  0
 12 16  1  0
 16 17  2  0
 17 19  1  0
 19 21  2  0
 21 23  1  0
 23 25  2  0
 25 16  1  0
 12 13  1  0
 12 14  1  0
 12 15  1  0
 17 18  1  0
 19 20  1  0
 21 22  1  0
 23 24  1  0
 25 26  1  0
M  CHG  1   8   1
M  END
>  <PDB_ID>  (2968) 
pdb5ech

>  <RESIDUE_NAME>  (2968) 
LYS   PHE

>  <FRAG_NAME>  (2968) 
ETAM   MBZ

>  <FRAG_ATOM_NUM>  (2968) 
fragi: 11  fragj: 15

>  <atom.prop.CHAIN_ID>  (2968) 
A A A A A A A A A A A Z Z Z Z Z Z Z Z Z Z Z Z Z Z Z

>  <atom.prop.IS_HEAVY_ATOM>  (2968) 
1 0 0 0 1 0 0 1 0 0 0 1 0 0 0 1 1 0 1 0 1 0 1 0 1 0

>  <DIFUSE_FUNC_ATOM>  (2968) 
n/a

>  <FINAL_SINGLE_POINT_ENERGY>  (2968) 
0

>  <NONCOV_INTER_ENERGY_QM>  (2968) 
0

>  <FF_Energy>  (2968) 
-1.92

>  <QM_Energy>  (2968) 
-9.17

>  <source>  (2968) 
ETAM_MBZ

>  <Index>  (2968) 
32243

$$$$
ETAM-pdb5ech-D-LYS-143:MBZ-pdb5ech-D-PHE-212
     RDKit          3D

 26 25  0  0  0  0  0  0  0  0999 V2000
   -0.1068    3.1686   -3.2031 C   0  0  0  0  0  0  0  0  0  0  0  0
    0.1104    3.2245   -2.2275 H   0  0  0  0  0  0  0  0  0  0  0  0
   -1.0763    3.3739   -3.3395 H   0  0  0  0  0  0  0  0  0  0  0  0
    0.5047    3.8793   -3.7591 H   0  0  0  0  0  0  0  0  0  0  0  0
    0.1332    1.7300   -3.6520 C   0  0  0  0  0  0  0  0  0  0  0  0
   -0.1005    1.6504   -4.6194 H   0  0  0  0  0  0  0  0  0  0  0  0
    1.0978    1.5066   -3.5197 H   0  0  0  0  0  0  0  0  0  0  0  0
   -0.7039    0.7864   -2.8626 N   0  0  0  0  0  4  0  0  0  0  0  0
   -1.6296    0.7703   -3.2385 H   0  0  0  0  0  0  0  0  0  0  0  0
   -0.3063   -0.1300   -2.9111 H   0  0  0  0  0  0  0  0  0  0  0  0
   -0.7341    1.0880   -1.9100 H   0  0  0  0  0  0  0  0  0  0  0  0
    0.0019    2.9051   -0.0293 C   0  0  0  0  0  0  0  0  0  0  0  0
   -0.5781    3.1879   -0.7847 H   0  0  0  0  0  0  0  0  0  0  0  0
    0.9380    3.2021   -0.1787 H   0  0  0  0  0  0  0  0  0  0  0  0
   -0.3640    3.3893    0.8761 H   0  0  0  0  0  0  0  0  0  0  0  0
    0.0001    1.3962    0.0093 C   0  0  0  0  0  0  0  0  0  0  0  0
   -1.1851    0.6871   -0.0102 C   0  0  0  0  0  0  0  0  0  0  0  0
   -2.0565    1.1812   -0.0337 H   0  0  0  0  0  0  0  0  0  0  0  0
   -1.1915   -0.6889    0.0000 C   0  0  0  0  0  0  0  0  0  0  0  0
   -2.0752   -1.1837    0.0038 H   0  0  0  0  0  0  0  0  0  0  0  0
   -0.0049   -1.3856    0.0071 C   0  0  0  0  0  0  0  0  0  0  0  0
   -0.0112   -2.3867    0.0173 H   0  0  0  0  0  0  0  0  0  0  0  0
    1.1915   -0.6974   -0.0000 C   0  0  0  0  0  0  0  0  0  0  0  0
    2.0737   -1.1966    0.0003 H   0  0  0  0  0  0  0  0  0  0  0  0
    1.1899    0.6886   -0.0063 C   0  0  0  0  0  0  0  0  0  0  0  0
    2.0608    1.1833   -0.0232 H   0  0  0  0  0  0  0  0  0  0  0  0
  1  5  1  0
  5  8  1  0
  1  2  1  0
  1  3  1  0
  1  4  1  0
  5  6  1  0
  5  7  1  0
  8  9  1  0
  8 10  1  0
  8 11  1  0
 12 16  1  0
 16 17  2  0
 17 19  1  0
 19 21  2  0
 21 23  1  0
 23 25  2  0
 25 16  1  0
 12 13  1  0
 12 14  1  0
 12 15  1  0
 17 18  1  0
 19 20  1  0
 21 22  1  0
 23 24  1  0
 25 26  1  0
M  CHG  1   8   1
M  END
>  <PDB_ID>  (2969) 
pdb5ech

>  <RESIDUE_NAME>  (2969) 
LYS   PHE

>  <FRAG_NAME>  (2969) 
ETAM   MBZ

>  <FRAG_ATOM_NUM>  (2969) 
fragi: 11  fragj: 15

>  <atom.prop.CHAIN_ID>  (2969) 
A A A A A A A A A A A Z Z Z Z Z Z Z Z Z Z Z Z Z Z Z

>  <atom.prop.IS_HEAVY_ATOM>  (2969) 
1 0 0 0 1 0 0 1 0 0 0 1 0 0 0 1 1 0 1 0 1 0 1 0 1 0

>  <DIFUSE_FUNC_ATOM>  (2969) 
n/a

>  <FINAL_SINGLE_POINT_ENERGY>  (2969) 
0

>  <NONCOV_INTER_ENERGY_QM>  (2969) 
0

>  <FF_Energy>  (2969) 
11.23

>  <QM_Energy>  (2969) 
-9.21

>  <source>  (2969) 
ETAM_MBZ

>  <Index>  (2969) 
32246

$$$$
ETAM-pdb5ech-E-LYS-105:MBZ-pdb5ech-E-PHE-101
     RDKit          3D

 26 25  0  0  0  0  0  0  0  0999 V2000
   -5.0527   -1.6661    2.4481 C   0  0  0  0  0  0  0  0  0  0  0  0
   -5.7844   -2.3376    2.5224 H   0  0  0  0  0  0  0  0  0  0  0  0
   -5.4304   -0.7665    2.2528 H   0  0  0  0  0  0  0  0  0  0  0  0
   -4.5167   -1.6249    3.3963 H   0  0  0  0  0  0  0  0  0  0  0  0
   -4.1401   -2.0698    1.2942 C   0  0  0  0  0  0  0  0  0  0  0  0
   -4.6666   -2.0532    0.4420 H   0  0  0  0  0  0  0  0  0  0  0  0
   -3.3886   -1.4098    1.2272 H   0  0  0  0  0  0  0  0  0  0  0  0
   -3.5689   -3.4413    1.4882 N   0  0  0  0  0  4  0  0  0  0  0  0
   -3.0924   -3.7176    0.6558 H   0  0  0  0  0  0  0  0  0  0  0  0
   -2.9295   -3.4235    2.2537 H   0  0  0  0  0  0  0  0  0  0  0  0
   -4.3110   -4.0795    1.6811 H   0  0  0  0  0  0  0  0  0  0  0  0
   -0.0113    2.9024    0.0293 C   0  0  0  0  0  0  0  0  0  0  0  0
   -0.7469    3.2144   -0.5454 H   0  0  0  0  0  0  0  0  0  0  0  0
    0.8658    3.2198   -0.2838 H   0  0  0  0  0  0  0  0  0  0  0  0
   -0.1748    3.2998    1.0310 H   0  0  0  0  0  0  0  0  0  0  0  0
   -0.0006    1.3958   -0.0037 C   0  0  0  0  0  0  0  0  0  0  0  0
   -1.1911    0.6890    0.0036 C   0  0  0  0  0  0  0  0  0  0  0  0
   -2.0597    1.1813    0.0105 H   0  0  0  0  0  0  0  0  0  0  0  0
   -1.1946   -0.6913    0.0000 C   0  0  0  0  0  0  0  0  0  0  0  0
   -2.0753   -1.1873   -0.0001 H   0  0  0  0  0  0  0  0  0  0  0  0
   -0.0023   -1.3868   -0.0022 C   0  0  0  0  0  0  0  0  0  0  0  0
   -0.0072   -2.3875   -0.0060 H   0  0  0  0  0  0  0  0  0  0  0  0
    1.1946   -0.6955   -0.0000 C   0  0  0  0  0  0  0  0  0  0  0  0
    2.0765   -1.1967    0.0015 H   0  0  0  0  0  0  0  0  0  0  0  0
    1.1940    0.6887    0.0023 C   0  0  0  0  0  0  0  0  0  0  0  0
    2.0621    1.1855    0.0078 H   0  0  0  0  0  0  0  0  0  0  0  0
  1  5  1  0
  5  8  1  0
  1  2  1  0
  1  3  1  0
  1  4  1  0
  5  6  1  0
  5  7  1  0
  8  9  1  0
  8 10  1  0
  8 11  1  0
 12 16  1  0
 16 17  2  0
 17 19  1  0
 19 21  2  0
 21 23  1  0
 23 25  2  0
 25 16  1  0
 12 13  1  0
 12 14  1  0
 12 15  1  0
 17 18  1  0
 19 20  1  0
 21 22  1  0
 23 24  1  0
 25 26  1  0
M  CHG  1   8   1
M  END
>  <PDB_ID>  (2970) 
pdb5ech

>  <RESIDUE_NAME>  (2970) 
LYS   PHE

>  <FRAG_NAME>  (2970) 
ETAM   MBZ

>  <FRAG_ATOM_NUM>  (2970) 
fragi: 11  fragj: 15

>  <atom.prop.CHAIN_ID>  (2970) 
A A A A A A A A A A A Z Z Z Z Z Z Z Z Z Z Z Z Z Z Z

>  <atom.prop.IS_HEAVY_ATOM>  (2970) 
1 0 0 0 1 0 0 1 0 0 0 1 0 0 0 1 1 0 1 0 1 0 1 0 1 0

>  <DIFUSE_FUNC_ATOM>  (2970) 
n/a

>  <FINAL_SINGLE_POINT_ENERGY>  (2970) 
0

>  <NONCOV_INTER_ENERGY_QM>  (2970) 
0

>  <FF_Energy>  (2970) 
4.49

>  <QM_Energy>  (2970) 
-1.81

>  <source>  (2970) 
ETAM_MBZ

>  <Index>  (2970) 
32248

$$$$
ETAM-pdb5edx-B-LYS-72:MBZ-pdb5edx-B-PHE-77
     RDKit          3D

 26 25  0  0  0  0  0  0  0  0999 V2000
    2.9462   -2.4998    2.6753 C   0  0  0  0  0  0  0  0  0  0  0  0
    2.7969   -2.4162    1.6942 H   0  0  0  0  0  0  0  0  0  0  0  0
    3.9167   -2.6211    2.8645 H   0  0  0  0  0  0  0  0  0  0  0  0
    2.6063   -1.5841    3.1592 H   0  0  0  0  0  0  0  0  0  0  0  0
    2.1970   -3.7294    3.1778 C   0  0  0  0  0  0  0  0  0  0  0  0
    2.6953   -4.5534    2.8820 H   0  0  0  0  0  0  0  0  0  0  0  0
    2.1876   -3.7124    4.1852 H   0  0  0  0  0  0  0  0  0  0  0  0
    0.7983   -3.7992    2.6781 N   0  0  0  0  0  4  0  0  0  0  0  0
    0.6878   -4.6164    2.1134 H   0  0  0  0  0  0  0  0  0  0  0  0
    0.1699   -3.8416    3.4546 H   0  0  0  0  0  0  0  0  0  0  0  0
    0.5993   -2.9860    2.1317 H   0  0  0  0  0  0  0  0  0  0  0  0
   -0.0090    2.8969    0.0088 C   0  0  0  0  0  0  0  0  0  0  0  0
   -0.7711    3.2054   -0.5380 H   0  0  0  0  0  0  0  0  0  0  0  0
    0.8516    3.2094   -0.3587 H   0  0  0  0  0  0  0  0  0  0  0  0
   -0.1203    3.3224    1.0062 H   0  0  0  0  0  0  0  0  0  0  0  0
   -0.0033    1.3945   -0.0037 C   0  0  0  0  0  0  0  0  0  0  0  0
   -1.1924    0.6879   -0.0032 C   0  0  0  0  0  0  0  0  0  0  0  0
   -2.0623    1.1774   -0.0058 H   0  0  0  0  0  0  0  0  0  0  0  0
   -1.1955   -0.6977   -0.0000 C   0  0  0  0  0  0  0  0  0  0  0  0
   -2.0706   -1.1944    0.0028 H   0  0  0  0  0  0  0  0  0  0  0  0
    0.0049   -1.3859    0.0007 C   0  0  0  0  0  0  0  0  0  0  0  0
    0.0032   -2.3868    0.0014 H   0  0  0  0  0  0  0  0  0  0  0  0
    1.1955   -0.6897   -0.0000 C   0  0  0  0  0  0  0  0  0  0  0  0
    2.0817   -1.1884   -0.0034 H   0  0  0  0  0  0  0  0  0  0  0  0
    1.1908    0.6909    0.0061 C   0  0  0  0  0  0  0  0  0  0  0  0
    2.0583    1.1911    0.0166 H   0  0  0  0  0  0  0  0  0  0  0  0
  1  5  1  0
  5  8  1  0
  1  2  1  0
  1  3  1  0
  1  4  1  0
  5  6  1  0
  5  7  1  0
  8  9  1  0
  8 10  1  0
  8 11  1  0
 12 16  1  0
 16 17  2  0
 17 19  1  0
 19 21  2  0
 21 23  1  0
 23 25  2  0
 25 16  1  0
 12 13  1  0
 12 14  1  0
 12 15  1  0
 17 18  1  0
 19 20  1  0
 21 22  1  0
 23 24  1  0
 25 26  1  0
M  CHG  1   8   1
M  END
>  <PDB_ID>  (2971) 
pdb5edx

>  <RESIDUE_NAME>  (2971) 
LYS   PHE

>  <FRAG_NAME>  (2971) 
ETAM   MBZ

>  <FRAG_ATOM_NUM>  (2971) 
fragi: 11  fragj: 15

>  <atom.prop.CHAIN_ID>  (2971) 
A A A A A A A A A A A Z Z Z Z Z Z Z Z Z Z Z Z Z Z Z

>  <atom.prop.IS_HEAVY_ATOM>  (2971) 
1 0 0 0 1 0 0 1 0 0 0 1 0 0 0 1 1 0 1 0 1 0 1 0 1 0

>  <DIFUSE_FUNC_ATOM>  (2971) 
n/a

>  <FINAL_SINGLE_POINT_ENERGY>  (2971) 
0

>  <NONCOV_INTER_ENERGY_QM>  (2971) 
0

>  <FF_Energy>  (2971) 
-1.45

>  <QM_Energy>  (2971) 
-6.99

>  <source>  (2971) 
ETAM_MBZ

>  <Index>  (2971) 
32255

$$$$
ETAM-pdb6ejs-A-LYS-87:MBZ-pdb6ejs-A-PHE-90
     RDKit          3D

 26 25  0  0  0  0  0  0  0  0999 V2000
   -1.6573    1.5216   -3.7362 C   0  0  0  0  0  0  0  0  0  0  0  0
   -1.6942    1.6816   -4.7256 H   0  0  0  0  0  0  0  0  0  0  0  0
   -0.8517    1.9828   -3.3585 H   0  0  0  0  0  0  0  0  0  0  0  0
   -2.5512    1.9465   -3.2796 H   0  0  0  0  0  0  0  0  0  0  0  0
   -1.5089    0.0243   -3.4971 C   0  0  0  0  0  0  0  0  0  0  0  0
   -1.9324   -0.2105   -2.6286 H   0  0  0  0  0  0  0  0  0  0  0  0
   -1.9462   -0.4698   -4.2411 H   0  0  0  0  0  0  0  0  0  0  0  0
   -0.0580   -0.3412   -3.4510 N   0  0  0  0  0  4  0  0  0  0  0  0
    0.3524   -0.1661   -4.3437 H   0  0  0  0  0  0  0  0  0  0  0  0
    0.3964    0.2124   -2.7559 H   0  0  0  0  0  0  0  0  0  0  0  0
    0.0289   -1.3097   -3.2229 H   0  0  0  0  0  0  0  0  0  0  0  0
   -0.0525    2.8751    0.0909 C   0  0  0  0  0  0  0  0  0  0  0  0
   -0.7643    3.2135   -0.4991 H   0  0  0  0  0  0  0  0  0  0  0  0
    0.8289    3.2458   -0.1434 H   0  0  0  0  0  0  0  0  0  0  0  0
   -0.2836    3.2294    1.0954 H   0  0  0  0  0  0  0  0  0  0  0  0
   -0.0026    1.4013   -0.0015 C   0  0  0  0  0  0  0  0  0  0  0  0
   -1.1857    0.6891    0.0195 C   0  0  0  0  0  0  0  0  0  0  0  0
   -2.0596    1.1720    0.0479 H   0  0  0  0  0  0  0  0  0  0  0  0
   -1.1877   -0.7042   -0.0000 C   0  0  0  0  0  0  0  0  0  0  0  0
   -2.0703   -1.1937    0.0157 H   0  0  0  0  0  0  0  0  0  0  0  0
    0.0014   -1.3952   -0.0385 C   0  0  0  0  0  0  0  0  0  0  0  0
    0.0031   -2.3914   -0.0939 H   0  0  0  0  0  0  0  0  0  0  0  0
    1.1877   -0.6924   -0.0000 C   0  0  0  0  0  0  0  0  0  0  0  0
    2.0783   -1.1853    0.0148 H   0  0  0  0  0  0  0  0  0  0  0  0
    1.1868    0.7014    0.0205 C   0  0  0  0  0  0  0  0  0  0  0  0
    2.0571    1.1914    0.0502 H   0  0  0  0  0  0  0  0  0  0  0  0
  1  5  1  0
  5  8  1  0
  1  2  1  0
  1  3  1  0
  1  4  1  0
  5  6  1  0
  5  7  1  0
  8  9  1  0
  8 10  1  0
  8 11  1  0
 12 16  1  0
 16 17  2  0
 17 19  1  0
 19 21  2  0
 21 23  1  0
 23 25  2  0
 25 16  1  0
 12 13  1  0
 12 14  1  0
 12 15  1  0
 17 18  1  0
 19 20  1  0
 21 22  1  0
 23 24  1  0
 25 26  1  0
M  CHG  1   8   1
M  END
>  <PDB_ID>  (2972) 
pdb6ejs

>  <RESIDUE_NAME>  (2972) 
LYS   PHE

>  <FRAG_NAME>  (2972) 
ETAM   MBZ

>  <FRAG_ATOM_NUM>  (2972) 
fragi: 11  fragj: 15

>  <atom.prop.CHAIN_ID>  (2972) 
A A A A A A A A A A A Z Z Z Z Z Z Z Z Z Z Z Z Z Z Z

>  <atom.prop.IS_HEAVY_ATOM>  (2972) 
1 0 0 0 1 0 0 1 0 0 0 1 0 0 0 1 1 0 1 0 1 0 1 0 1 0

>  <DIFUSE_FUNC_ATOM>  (2972) 
n/a

>  <FINAL_SINGLE_POINT_ENERGY>  (2972) 
0

>  <NONCOV_INTER_ENERGY_QM>  (2972) 
0

>  <FF_Energy>  (2972) 
-8.7

>  <QM_Energy>  (2972) 
-15.19

>  <source>  (2972) 
ETAM_MBZ

>  <Index>  (2972) 
32262

$$$$
ETAM-pdb6ei3-A-LYS-324:MBZ-pdb6ei3-A-PHE-321
     RDKit          3D

 26 25  0  0  0  0  0  0  0  0999 V2000
   -1.7633   -0.7049    4.0942 C   0  0  0  0  0  0  0  0  0  0  0  0
   -2.6467   -1.1095    4.2939 H   0  0  0  0  0  0  0  0  0  0  0  0
   -1.8533    0.0289    3.4328 H   0  0  0  0  0  0  0  0  0  0  0  0
   -1.3559   -0.2924    5.0171 H   0  0  0  0  0  0  0  0  0  0  0  0
   -0.8484   -1.7645    3.5348 C   0  0  0  0  0  0  0  0  0  0  0  0
   -0.7842   -2.5245    4.1909 H   0  0  0  0  0  0  0  0  0  0  0  0
   -1.2379   -2.1183    2.6770 H   0  0  0  0  0  0  0  0  0  0  0  0
    0.5150   -1.2412    3.2662 N   0  0  0  0  0  4  0  0  0  0  0  0
    0.4632   -0.5104    2.5850 H   0  0  0  0  0  0  0  0  0  0  0  0
    0.9069   -0.8815    4.1136 H   0  0  0  0  0  0  0  0  0  0  0  0
    1.0929   -1.9799    2.9189 H   0  0  0  0  0  0  0  0  0  0  0  0
    0.0047    2.9140    0.0346 C   0  0  0  0  0  0  0  0  0  0  0  0
   -0.6116    3.2353   -0.6643 H   0  0  0  0  0  0  0  0  0  0  0  0
    0.9287    3.2213   -0.1218 H   0  0  0  0  0  0  0  0  0  0  0  0
   -0.3253    3.3408    0.9818 H   0  0  0  0  0  0  0  0  0  0  0  0
    0.0000    1.4056    0.0114 C   0  0  0  0  0  0  0  0  0  0  0  0
   -1.1945    0.6993   -0.0032 C   0  0  0  0  0  0  0  0  0  0  0  0
   -2.0620    1.1815   -0.0170 H   0  0  0  0  0  0  0  0  0  0  0  0
   -1.1934   -0.7001    0.0000 C   0  0  0  0  0  0  0  0  0  0  0  0
   -2.0757   -1.1888    0.0059 H   0  0  0  0  0  0  0  0  0  0  0  0
   -0.0017   -1.3906   -0.0036 C   0  0  0  0  0  0  0  0  0  0  0  0
   -0.0069   -2.3946   -0.0096 H   0  0  0  0  0  0  0  0  0  0  0  0
    1.1934   -0.7047   -0.0000 C   0  0  0  0  0  0  0  0  0  0  0  0
    2.0769   -1.2008    0.0071 H   0  0  0  0  0  0  0  0  0  0  0  0
    1.1961    0.6906   -0.0046 C   0  0  0  0  0  0  0  0  0  0  0  0
    2.0658    1.1817   -0.0203 H   0  0  0  0  0  0  0  0  0  0  0  0
  1  5  1  0
  5  8  1  0
  1  2  1  0
  1  3  1  0
  1  4  1  0
  5  6  1  0
  5  7  1  0
  8  9  1  0
  8 10  1  0
  8 11  1  0
 12 16  1  0
 16 17  2  0
 17 19  1  0
 19 21  2  0
 21 23  1  0
 23 25  2  0
 25 16  1  0
 12 13  1  0
 12 14  1  0
 12 15  1  0
 17 18  1  0
 19 20  1  0
 21 22  1  0
 23 24  1  0
 25 26  1  0
M  CHG  1   8   1
M  END
>  <PDB_ID>  (2973) 
pdb6ei3

>  <RESIDUE_NAME>  (2973) 
LYS   PHE

>  <FRAG_NAME>  (2973) 
ETAM   MBZ

>  <FRAG_ATOM_NUM>  (2973) 
fragi: 11  fragj: 15

>  <atom.prop.CHAIN_ID>  (2973) 
A A A A A A A A A A A Z Z Z Z Z Z Z Z Z Z Z Z Z Z Z

>  <atom.prop.IS_HEAVY_ATOM>  (2973) 
1 0 0 0 1 0 0 1 0 0 0 1 0 0 0 1 1 0 1 0 1 0 1 0 1 0

>  <DIFUSE_FUNC_ATOM>  (2973) 
n/a

>  <FINAL_SINGLE_POINT_ENERGY>  (2973) 
0

>  <NONCOV_INTER_ENERGY_QM>  (2973) 
0

>  <FF_Energy>  (2973) 
-7.48

>  <QM_Energy>  (2973) 
-14.7

>  <source>  (2973) 
ETAM_MBZ

>  <Index>  (2973) 
32272

$$$$
ETAM-pdb6emy-B-LYS-271:MBZ-pdb6emy-A-PHE-385
     RDKit          3D

 26 25  0  0  0  0  0  0  0  0999 V2000
    1.0287    0.4158   -3.6101 C   0  0  0  0  0  0  0  0  0  0  0  0
    1.0051   -0.0282   -2.7159 H   0  0  0  0  0  0  0  0  0  0  0  0
    1.5541   -0.1414   -4.2498 H   0  0  0  0  0  0  0  0  0  0  0  0
    0.0077    0.5039   -3.9815 H   0  0  0  0  0  0  0  0  0  0  0  0
    1.7136    1.7652   -3.4655 C   0  0  0  0  0  0  0  0  0  0  0  0
    1.8933    2.1391   -4.3766 H   0  0  0  0  0  0  0  0  0  0  0  0
    1.1070    2.3878   -2.9685 H   0  0  0  0  0  0  0  0  0  0  0  0
    3.0023    1.6447   -2.7236 N   0  0  0  0  0  4  0  0  0  0  0  0
    2.8734    1.9623   -1.7852 H   0  0  0  0  0  0  0  0  0  0  0  0
    3.2916    0.6882   -2.7188 H   0  0  0  0  0  0  0  0  0  0  0  0
    3.6961    2.2038   -3.1754 H   0  0  0  0  0  0  0  0  0  0  0  0
   -0.0051    2.8894    0.0050 C   0  0  0  0  0  0  0  0  0  0  0  0
   -0.4262    3.1984   -0.8342 H   0  0  0  0  0  0  0  0  0  0  0  0
    0.9307    3.2005    0.0738 H   0  0  0  0  0  0  0  0  0  0  0  0
   -0.5622    3.3205    0.8369 H   0  0  0  0  0  0  0  0  0  0  0  0
   -0.0001    1.3933    0.0007 C   0  0  0  0  0  0  0  0  0  0  0  0
   -1.1911    0.6885   -0.0006 C   0  0  0  0  0  0  0  0  0  0  0  0
   -2.0597    1.1815   -0.0034 H   0  0  0  0  0  0  0  0  0  0  0  0
   -1.1948   -0.6927   -0.0000 C   0  0  0  0  0  0  0  0  0  0  0  0
   -2.0736   -1.1892    0.0020 H   0  0  0  0  0  0  0  0  0  0  0  0
   -0.0000   -1.3843   -0.0007 C   0  0  0  0  0  0  0  0  0  0  0  0
   -0.0045   -2.3866   -0.0018 H   0  0  0  0  0  0  0  0  0  0  0  0
    1.1948   -0.6937   -0.0000 C   0  0  0  0  0  0  0  0  0  0  0  0
    2.0776   -1.1935    0.0014 H   0  0  0  0  0  0  0  0  0  0  0  0
    1.1913    0.6888    0.0005 C   0  0  0  0  0  0  0  0  0  0  0  0
    2.0605    1.1868    0.0003 H   0  0  0  0  0  0  0  0  0  0  0  0
  1  5  1  0
  5  8  1  0
  1  2  1  0
  1  3  1  0
  1  4  1  0
  5  6  1  0
  5  7  1  0
  8  9  1  0
  8 10  1  0
  8 11  1  0
 12 16  1  0
 16 17  2  0
 17 19  1  0
 19 21  2  0
 21 23  1  0
 23 25  2  0
 25 16  1  0
 12 13  1  0
 12 14  1  0
 12 15  1  0
 17 18  1  0
 19 20  1  0
 21 22  1  0
 23 24  1  0
 25 26  1  0
M  CHG  1   8   1
M  END
>  <PDB_ID>  (2974) 
pdb6emy

>  <RESIDUE_NAME>  (2974) 
LYS   PHE

>  <FRAG_NAME>  (2974) 
ETAM   MBZ

>  <FRAG_ATOM_NUM>  (2974) 
fragi: 11  fragj: 15

>  <atom.prop.CHAIN_ID>  (2974) 
A A A A A A A A A A A Z Z Z Z Z Z Z Z Z Z Z Z Z Z Z

>  <atom.prop.IS_HEAVY_ATOM>  (2974) 
1 0 0 0 1 0 0 1 0 0 0 1 0 0 0 1 1 0 1 0 1 0 1 0 1 0

>  <DIFUSE_FUNC_ATOM>  (2974) 
n/a

>  <FINAL_SINGLE_POINT_ENERGY>  (2974) 
0

>  <NONCOV_INTER_ENERGY_QM>  (2974) 
0

>  <FF_Energy>  (2974) 
-3.58

>  <QM_Energy>  (2974) 
-8.62

>  <source>  (2974) 
ETAM_MBZ

>  <Index>  (2974) 
32318

$$$$
ETAM-pdb6ep3-B-LYS-10:MBZ-pdb6ep3-B-PHE-5
     RDKit          3D

 26 25  0  0  0  0  0  0  0  0999 V2000
    4.7552    2.1305   -0.8119 C   0  0  0  0  0  0  0  0  0  0  0  0
    4.8836    1.1643   -0.6108 H   0  0  0  0  0  0  0  0  0  0  0  0
    5.6360    2.5843   -0.9036 H   0  0  0  0  0  0  0  0  0  0  0  0
    4.2128    2.2232   -1.7528 H   0  0  0  0  0  0  0  0  0  0  0  0
    3.9964    2.7697    0.3405 C   0  0  0  0  0  0  0  0  0  0  0  0
    3.0093    2.6264    0.1975 H   0  0  0  0  0  0  0  0  0  0  0  0
    4.2598    2.3098    1.1972 H   0  0  0  0  0  0  0  0  0  0  0  0
    4.2647    4.2253    0.4660 N   0  0  0  0  0  4  0  0  0  0  0  0
    3.5447    4.7385   -0.0010 H   0  0  0  0  0  0  0  0  0  0  0  0
    4.2814    4.4789    1.4334 H   0  0  0  0  0  0  0  0  0  0  0  0
    5.1489    4.4375    0.0499 H   0  0  0  0  0  0  0  0  0  0  0  0
   -0.0161    2.8952    0.0035 C   0  0  0  0  0  0  0  0  0  0  0  0
   -0.9526    3.1933   -0.0934 H   0  0  0  0  0  0  0  0  0  0  0  0
    0.5428    3.2107   -0.7473 H   0  0  0  0  0  0  0  0  0  0  0  0
    0.3800    3.3325    0.9200 H   0  0  0  0  0  0  0  0  0  0  0  0
   -0.0011    1.3948   -0.0009 C   0  0  0  0  0  0  0  0  0  0  0  0
   -1.1918    0.6882    0.0017 C   0  0  0  0  0  0  0  0  0  0  0  0
   -2.0606    1.1811    0.0040 H   0  0  0  0  0  0  0  0  0  0  0  0
   -1.1966   -0.6933    0.0000 C   0  0  0  0  0  0  0  0  0  0  0  0
   -2.0748   -1.1896    0.0012 H   0  0  0  0  0  0  0  0  0  0  0  0
   -0.0009   -1.3865   -0.0012 C   0  0  0  0  0  0  0  0  0  0  0  0
   -0.0045   -2.3875   -0.0031 H   0  0  0  0  0  0  0  0  0  0  0  0
    1.1966   -0.6941   -0.0000 C   0  0  0  0  0  0  0  0  0  0  0  0
    2.0782   -1.1940    0.0021 H   0  0  0  0  0  0  0  0  0  0  0  0
    1.1938    0.6909    0.0004 C   0  0  0  0  0  0  0  0  0  0  0  0
    2.0614    1.1885    0.0004 H   0  0  0  0  0  0  0  0  0  0  0  0
  1  5  1  0
  5  8  1  0
  1  2  1  0
  1  3  1  0
  1  4  1  0
  5  6  1  0
  5  7  1  0
  8  9  1  0
  8 10  1  0
  8 11  1  0
 12 16  1  0
 16 17  2  0
 17 19  1  0
 19 21  2  0
 21 23  1  0
 23 25  2  0
 25 16  1  0
 12 13  1  0
 12 14  1  0
 12 15  1  0
 17 18  1  0
 19 20  1  0
 21 22  1  0
 23 24  1  0
 25 26  1  0
M  CHG  1   8   1
M  END
>  <PDB_ID>  (2975) 
pdb6ep3

>  <RESIDUE_NAME>  (2975) 
LYS   PHE

>  <FRAG_NAME>  (2975) 
ETAM   MBZ

>  <FRAG_ATOM_NUM>  (2975) 
fragi: 11  fragj: 15

>  <atom.prop.CHAIN_ID>  (2975) 
A A A A A A A A A A A Z Z Z Z Z Z Z Z Z Z Z Z Z Z Z

>  <atom.prop.IS_HEAVY_ATOM>  (2975) 
1 0 0 0 1 0 0 1 0 0 0 1 0 0 0 1 1 0 1 0 1 0 1 0 1 0

>  <DIFUSE_FUNC_ATOM>  (2975) 
n/a

>  <FINAL_SINGLE_POINT_ENERGY>  (2975) 
0

>  <NONCOV_INTER_ENERGY_QM>  (2975) 
0

>  <FF_Energy>  (2975) 
6.33

>  <QM_Energy>  (2975) 
-0.51

>  <source>  (2975) 
ETAM_MBZ

>  <Index>  (2975) 
32348

$$$$
ETAM-pdb5ejq-B-LYS-1459:MBZ-pdb5ejq-B-PHE-1437
     RDKit          3D

 26 25  0  0  0  0  0  0  0  0999 V2000
    0.6204   -1.2833    3.6019 C   0  0  0  0  0  0  0  0  0  0  0  0
    0.5925   -1.3883    2.6075 H   0  0  0  0  0  0  0  0  0  0  0  0
   -0.2571   -1.5651    3.9912 H   0  0  0  0  0  0  0  0  0  0  0  0
    1.4169   -1.9052    4.0103 H   0  0  0  0  0  0  0  0  0  0  0  0
    0.8330    0.1765    3.9197 C   0  0  0  0  0  0  0  0  0  0  0  0
    1.0946    0.2709    4.8867 H   0  0  0  0  0  0  0  0  0  0  0  0
    1.5817    0.5349    3.3502 H   0  0  0  0  0  0  0  0  0  0  0  0
   -0.3928    0.9940    3.6718 N   0  0  0  0  0  4  0  0  0  0  0  0
   -1.0459    0.8399    4.4115 H   0  0  0  0  0  0  0  0  0  0  0  0
   -0.1428    1.9598    3.6388 H   0  0  0  0  0  0  0  0  0  0  0  0
   -0.7994    0.7210    2.8014 H   0  0  0  0  0  0  0  0  0  0  0  0
    0.0015    2.9155   -0.0067 C   0  0  0  0  0  0  0  0  0  0  0  0
    0.9241    3.2216    0.1958 H   0  0  0  0  0  0  0  0  0  0  0  0
   -0.6318    3.2234    0.6937 H   0  0  0  0  0  0  0  0  0  0  0  0
   -0.2980    3.3823   -0.9451 H   0  0  0  0  0  0  0  0  0  0  0  0
    0.0010    1.4024   -0.0015 C   0  0  0  0  0  0  0  0  0  0  0  0
   -1.1976    0.6892    0.0048 C   0  0  0  0  0  0  0  0  0  0  0  0
   -2.0630    1.1818    0.0113 H   0  0  0  0  0  0  0  0  0  0  0  0
   -1.1984   -0.6941   -0.0000 C   0  0  0  0  0  0  0  0  0  0  0  0
   -2.0758   -1.1922   -0.0057 H   0  0  0  0  0  0  0  0  0  0  0  0
   -0.0002   -1.3871    0.0043 C   0  0  0  0  0  0  0  0  0  0  0  0
   -0.0073   -2.3902    0.0105 H   0  0  0  0  0  0  0  0  0  0  0  0
    1.1984   -0.7010   -0.0000 C   0  0  0  0  0  0  0  0  0  0  0  0
    2.0792   -1.1989    0.0040 H   0  0  0  0  0  0  0  0  0  0  0  0
    1.1968    0.6907   -0.0076 C   0  0  0  0  0  0  0  0  0  0  0  0
    2.0657    1.1848   -0.0187 H   0  0  0  0  0  0  0  0  0  0  0  0
  1  5  1  0
  5  8  1  0
  1  2  1  0
  1  3  1  0
  1  4  1  0
  5  6  1  0
  5  7  1  0
  8  9  1  0
  8 10  1  0
  8 11  1  0
 12 16  1  0
 16 17  2  0
 17 19  1  0
 19 21  2  0
 21 23  1  0
 23 25  2  0
 25 16  1  0
 12 13  1  0
 12 14  1  0
 12 15  1  0
 17 18  1  0
 19 20  1  0
 21 22  1  0
 23 24  1  0
 25 26  1  0
M  CHG  1   8   1
M  END
>  <PDB_ID>  (2976) 
pdb5ejq

>  <RESIDUE_NAME>  (2976) 
LYS   PHE

>  <FRAG_NAME>  (2976) 
ETAM   MBZ

>  <FRAG_ATOM_NUM>  (2976) 
fragi: 11  fragj: 15

>  <atom.prop.CHAIN_ID>  (2976) 
A A A A A A A A A A A Z Z Z Z Z Z Z Z Z Z Z Z Z Z Z

>  <atom.prop.IS_HEAVY_ATOM>  (2976) 
1 0 0 0 1 0 0 1 0 0 0 1 0 0 0 1 1 0 1 0 1 0 1 0 1 0

>  <DIFUSE_FUNC_ATOM>  (2976) 
n/a

>  <FINAL_SINGLE_POINT_ENERGY>  (2976) 
0

>  <NONCOV_INTER_ENERGY_QM>  (2976) 
0

>  <FF_Energy>  (2976) 
-7.46

>  <QM_Energy>  (2976) 
-12.77

>  <source>  (2976) 
ETAM_MBZ

>  <Index>  (2976) 
32370

$$$$
ETAM-pdb5ekz-A-LYS-182:MBZ-pdb5ekz-A-PHE-257
     RDKit          3D

 26 25  0  0  0  0  0  0  0  0999 V2000
   -1.4854   -2.2748   -4.5154 C   0  0  0  0  0  0  0  0  0  0  0  0
   -2.3546   -2.6347   -4.7507 H   0  0  0  0  0  0  0  0  0  0  0  0
   -0.8576   -2.4312   -5.2379 H   0  0  0  0  0  0  0  0  0  0  0  0
   -1.5805   -1.2002   -4.3595 H   0  0  0  0  0  0  0  0  0  0  0  0
   -0.9841   -3.0319   -3.2902 C   0  0  0  0  0  0  0  0  0  0  0  0
   -1.4189   -2.6644   -2.5046 H   0  0  0  0  0  0  0  0  0  0  0  0
   -1.2269   -3.9655   -3.3866 H   0  0  0  0  0  0  0  0  0  0  0  0
    0.5052   -2.9747   -3.0494 N   0  0  0  0  0  4  0  0  0  0  0  0
    0.7123   -3.4400   -2.3194 H   0  0  0  0  0  0  0  0  0  0  0  0
    0.9385   -3.3210   -3.7449 H   0  0  0  0  0  0  0  0  0  0  0  0
    0.7628   -2.1302   -2.9384 H   0  0  0  0  0  0  0  0  0  0  0  0
    0.0071    2.8969    0.0457 C   0  0  0  0  0  0  0  0  0  0  0  0
    0.8833    3.1846    0.3450 H   0  0  0  0  0  0  0  0  0  0  0  0
   -0.6655    3.1718    0.6891 H   0  0  0  0  0  0  0  0  0  0  0  0
   -0.2099    3.3728   -0.9105 H   0  0  0  0  0  0  0  0  0  0  0  0
    0.0094    1.3869    0.0014 C   0  0  0  0  0  0  0  0  0  0  0  0
   -1.1789    0.6832   -0.0080 C   0  0  0  0  0  0  0  0  0  0  0  0
   -1.9854    1.1447   -0.0021 H   0  0  0  0  0  0  0  0  0  0  0  0
   -1.1846   -0.7034    0.0000 C   0  0  0  0  0  0  0  0  0  0  0  0
   -1.9901   -1.1670   -0.0261 H   0  0  0  0  0  0  0  0  0  0  0  0
   -0.0206   -1.3738   -0.0222 C   0  0  0  0  0  0  0  0  0  0  0  0
   -0.0202   -2.3045   -0.0254 H   0  0  0  0  0  0  0  0  0  0  0  0
    1.1846   -0.6794   -0.0000 C   0  0  0  0  0  0  0  0  0  0  0  0
    1.9883   -1.1464    0.0054 H   0  0  0  0  0  0  0  0  0  0  0  0
    1.1901    0.6865    0.0288 C   0  0  0  0  0  0  0  0  0  0  0  0
    1.9991    1.1450    0.0315 H   0  0  0  0  0  0  0  0  0  0  0  0
  1  5  1  0
  5  8  1  0
  1  2  1  0
  1  3  1  0
  1  4  1  0
  5  6  1  0
  5  7  1  0
  8  9  1  0
  8 10  1  0
  8 11  1  0
 12 16  1  0
 16 17  2  0
 17 19  1  0
 19 21  2  0
 21 23  1  0
 23 25  2  0
 25 16  1  0
 12 13  1  0
 12 14  1  0
 12 15  1  0
 17 18  1  0
 19 20  1  0
 21 22  1  0
 23 24  1  0
 25 26  1  0
M  CHG  1   8   1
M  END
>  <PDB_ID>  (2977) 
pdb5ekz

>  <RESIDUE_NAME>  (2977) 
LYS   PHE

>  <FRAG_NAME>  (2977) 
ETAM   MBZ

>  <FRAG_ATOM_NUM>  (2977) 
fragi: 11  fragj: 15

>  <atom.prop.CHAIN_ID>  (2977) 
A A A A A A A A A A A Z Z Z Z Z Z Z Z Z Z Z Z Z Z Z

>  <atom.prop.IS_HEAVY_ATOM>  (2977) 
1 0 0 0 1 0 0 1 0 0 0 1 0 0 0 1 1 0 1 0 1 0 1 0 1 0

>  <DIFUSE_FUNC_ATOM>  (2977) 
n/a

>  <FINAL_SINGLE_POINT_ENERGY>  (2977) 
0

>  <NONCOV_INTER_ENERGY_QM>  (2977) 
0

>  <FF_Energy>  (2977) 
-2.85

>  <QM_Energy>  (2977) 
-8.52

>  <source>  (2977) 
ETAM_MBZ

>  <Index>  (2977) 
32373

$$$$
ETAM-pdb6ery-B-LYS-442:MBZ-pdb6ery-B-PHE-438
     RDKit          3D

 26 25  0  0  0  0  0  0  0  0999 V2000
   -1.1240   -2.2199    3.6644 C   0  0  0  0  0  0  0  0  0  0  0  0
   -1.0904   -2.3955    4.6423 H   0  0  0  0  0  0  0  0  0  0  0  0
   -2.0454   -1.9699    3.3882 H   0  0  0  0  0  0  0  0  0  0  0  0
   -0.4504   -1.3951    3.4321 H   0  0  0  0  0  0  0  0  0  0  0  0
   -0.7246   -3.4917    2.9290 C   0  0  0  0  0  0  0  0  0  0  0  0
    0.1803   -3.3565    2.5105 H   0  0  0  0  0  0  0  0  0  0  0  0
   -0.6581   -4.2461    3.5917 H   0  0  0  0  0  0  0  0  0  0  0  0
   -1.7003   -3.8759    1.8567 N   0  0  0  0  0  4  0  0  0  0  0  0
   -1.3676   -3.5411    0.9778 H   0  0  0  0  0  0  0  0  0  0  0  0
   -1.7820   -4.8705    1.8317 H   0  0  0  0  0  0  0  0  0  0  0  0
   -2.5875   -3.4677    2.0619 H   0  0  0  0  0  0  0  0  0  0  0  0
   -0.0157    2.8993   -0.0084 C   0  0  0  0  0  0  0  0  0  0  0  0
   -0.7620    3.1976   -0.5841 H   0  0  0  0  0  0  0  0  0  0  0  0
    0.8549    3.2125   -0.3561 H   0  0  0  0  0  0  0  0  0  0  0  0
   -0.1584    3.3429    0.9769 H   0  0  0  0  0  0  0  0  0  0  0  0
   -0.0022    1.3965   -0.0035 C   0  0  0  0  0  0  0  0  0  0  0  0
   -1.1925    0.6857    0.0059 C   0  0  0  0  0  0  0  0  0  0  0  0
   -2.0619    1.1751    0.0162 H   0  0  0  0  0  0  0  0  0  0  0  0
   -1.1934   -0.6992   -0.0000 C   0  0  0  0  0  0  0  0  0  0  0  0
   -2.0696   -1.1962   -0.0007 H   0  0  0  0  0  0  0  0  0  0  0  0
    0.0041   -1.3858   -0.0028 C   0  0  0  0  0  0  0  0  0  0  0  0
    0.0023   -2.3888   -0.0081 H   0  0  0  0  0  0  0  0  0  0  0  0
    1.1934   -0.6921   -0.0000 C   0  0  0  0  0  0  0  0  0  0  0  0
    2.0802   -1.1877    0.0033 H   0  0  0  0  0  0  0  0  0  0  0  0
    1.1905    0.6948    0.0004 C   0  0  0  0  0  0  0  0  0  0  0  0
    2.0592    1.1914    0.0024 H   0  0  0  0  0  0  0  0  0  0  0  0
  1  5  1  0
  5  8  1  0
  1  2  1  0
  1  3  1  0
  1  4  1  0
  5  6  1  0
  5  7  1  0
  8  9  1  0
  8 10  1  0
  8 11  1  0
 12 16  1  0
 16 17  2  0
 17 19  1  0
 19 21  2  0
 21 23  1  0
 23 25  2  0
 25 16  1  0
 12 13  1  0
 12 14  1  0
 12 15  1  0
 17 18  1  0
 19 20  1  0
 21 22  1  0
 23 24  1  0
 25 26  1  0
M  CHG  1   8   1
M  END
>  <PDB_ID>  (2978) 
pdb6ery

>  <RESIDUE_NAME>  (2978) 
LYS   PHE

>  <FRAG_NAME>  (2978) 
ETAM   MBZ

>  <FRAG_ATOM_NUM>  (2978) 
fragi: 11  fragj: 15

>  <atom.prop.CHAIN_ID>  (2978) 
A A A A A A A A A A A Z Z Z Z Z Z Z Z Z Z Z Z Z Z Z

>  <atom.prop.IS_HEAVY_ATOM>  (2978) 
1 0 0 0 1 0 0 1 0 0 0 1 0 0 0 1 1 0 1 0 1 0 1 0 1 0

>  <DIFUSE_FUNC_ATOM>  (2978) 
n/a

>  <FINAL_SINGLE_POINT_ENERGY>  (2978) 
0

>  <NONCOV_INTER_ENERGY_QM>  (2978) 
0

>  <FF_Energy>  (2978) 
-0.84

>  <QM_Energy>  (2978) 
-6.88

>  <source>  (2978) 
ETAM_MBZ

>  <Index>  (2978) 
32397

$$$$
ETAM-pdb5eln-A-LYS-173:MBZ-pdb5eln-A-PHE-159
     RDKit          3D

 26 25  0  0  0  0  0  0  0  0999 V2000
    0.6490   -2.6015   -3.2803 C   0  0  0  0  0  0  0  0  0  0  0  0
    0.5836   -3.4634   -3.7725 H   0  0  0  0  0  0  0  0  0  0  0  0
    0.8276   -2.7656   -2.3161 H   0  0  0  0  0  0  0  0  0  0  0  0
    1.4801   -2.0304   -3.6940 H   0  0  0  0  0  0  0  0  0  0  0  0
   -0.6915   -1.8624   -3.4091 C   0  0  0  0  0  0  0  0  0  0  0  0
   -0.6607   -1.0338   -2.8479 H   0  0  0  0  0  0  0  0  0  0  0  0
   -0.8308   -1.6061   -4.3677 H   0  0  0  0  0  0  0  0  0  0  0  0
   -1.8652   -2.7097   -2.9591 N   0  0  0  0  0  4  0  0  0  0  0  0
   -2.0064   -3.4366   -3.6243 H   0  0  0  0  0  0  0  0  0  0  0  0
   -1.6547   -3.0947   -2.0662 H   0  0  0  0  0  0  0  0  0  0  0  0
   -2.6720   -2.1302   -2.9039 H   0  0  0  0  0  0  0  0  0  0  0  0
    0.0039    2.9011    0.0216 C   0  0  0  0  0  0  0  0  0  0  0  0
    0.9451    3.2064    0.0615 H   0  0  0  0  0  0  0  0  0  0  0  0
   -0.4999    3.1977    0.8219 H   0  0  0  0  0  0  0  0  0  0  0  0
   -0.4581    3.3606   -0.8521 H   0  0  0  0  0  0  0  0  0  0  0  0
    0.0008    1.4022   -0.0001 C   0  0  0  0  0  0  0  0  0  0  0  0
   -1.1962    0.6934    0.0066 C   0  0  0  0  0  0  0  0  0  0  0  0
   -2.0639    1.1812    0.0148 H   0  0  0  0  0  0  0  0  0  0  0  0
   -1.2049   -0.7060    0.0000 C   0  0  0  0  0  0  0  0  0  0  0  0
   -2.0794   -1.1940    0.0004 H   0  0  0  0  0  0  0  0  0  0  0  0
   -0.0013   -1.3964   -0.0055 C   0  0  0  0  0  0  0  0  0  0  0  0
    0.0015   -2.3954   -0.0137 H   0  0  0  0  0  0  0  0  0  0  0  0
    1.2049   -0.6947   -0.0000 C   0  0  0  0  0  0  0  0  0  0  0  0
    2.0840   -1.1902    0.0065 H   0  0  0  0  0  0  0  0  0  0  0  0
    1.1968    0.7015   -0.0009 C   0  0  0  0  0  0  0  0  0  0  0  0
    2.0653    1.1965   -0.0034 H   0  0  0  0  0  0  0  0  0  0  0  0
  1  5  1  0
  5  8  1  0
  1  2  1  0
  1  3  1  0
  1  4  1  0
  5  6  1  0
  5  7  1  0
  8  9  1  0
  8 10  1  0
  8 11  1  0
 12 16  1  0
 16 17  2  0
 17 19  1  0
 19 21  2  0
 21 23  1  0
 23 25  2  0
 25 16  1  0
 12 13  1  0
 12 14  1  0
 12 15  1  0
 17 18  1  0
 19 20  1  0
 21 22  1  0
 23 24  1  0
 25 26  1  0
M  CHG  1   8   1
M  END
>  <PDB_ID>  (2979) 
pdb5eln

>  <RESIDUE_NAME>  (2979) 
LYS   PHE

>  <FRAG_NAME>  (2979) 
ETAM   MBZ

>  <FRAG_ATOM_NUM>  (2979) 
fragi: 11  fragj: 15

>  <atom.prop.CHAIN_ID>  (2979) 
A A A A A A A A A A A Z Z Z Z Z Z Z Z Z Z Z Z Z Z Z

>  <atom.prop.IS_HEAVY_ATOM>  (2979) 
1 0 0 0 1 0 0 1 0 0 0 1 0 0 0 1 1 0 1 0 1 0 1 0 1 0

>  <DIFUSE_FUNC_ATOM>  (2979) 
n/a

>  <FINAL_SINGLE_POINT_ENERGY>  (2979) 
0

>  <NONCOV_INTER_ENERGY_QM>  (2979) 
0

>  <FF_Energy>  (2979) 
-3.08

>  <QM_Energy>  (2979) 
-8.88

>  <source>  (2979) 
ETAM_MBZ

>  <Index>  (2979) 
32407

$$$$
ETAM-pdb5eln-B-LYS-173:MBZ-pdb5eln-B-PHE-159
     RDKit          3D

 26 25  0  0  0  0  0  0  0  0999 V2000
    0.0481   -3.0569   -3.0295 C   0  0  0  0  0  0  0  0  0  0  0  0
   -0.0683   -3.9759   -3.3882 H   0  0  0  0  0  0  0  0  0  0  0  0
    0.1889   -3.0792   -2.0472 H   0  0  0  0  0  0  0  0  0  0  0  0
    0.9230   -2.6070   -3.4988 H   0  0  0  0  0  0  0  0  0  0  0  0
   -1.2077   -2.2545   -3.3249 C   0  0  0  0  0  0  0  0  0  0  0  0
   -1.0866   -1.3205   -2.9812 H   0  0  0  0  0  0  0  0  0  0  0  0
   -1.3496   -2.2223   -4.3175 H   0  0  0  0  0  0  0  0  0  0  0  0
   -2.4118   -2.8585   -2.6805 N   0  0  0  0  0  4  0  0  0  0  0  0
   -2.2659   -2.9099   -1.6941 H   0  0  0  0  0  0  0  0  0  0  0  0
   -3.2096   -2.2890   -2.8733 H   0  0  0  0  0  0  0  0  0  0  0  0
   -2.5561   -3.7761   -3.0478 H   0  0  0  0  0  0  0  0  0  0  0  0
    0.0055    2.8858    0.0144 C   0  0  0  0  0  0  0  0  0  0  0  0
    0.9466    3.1921    0.0280 H   0  0  0  0  0  0  0  0  0  0  0  0
   -0.4791    3.1866    0.8240 H   0  0  0  0  0  0  0  0  0  0  0  0
   -0.4790    3.3393   -0.8502 H   0  0  0  0  0  0  0  0  0  0  0  0
    0.0012    1.3918   -0.0034 C   0  0  0  0  0  0  0  0  0  0  0  0
   -1.1928    0.6888    0.0006 C   0  0  0  0  0  0  0  0  0  0  0  0
   -2.0590    1.1849    0.0028 H   0  0  0  0  0  0  0  0  0  0  0  0
   -1.1996   -0.6896    0.0000 C   0  0  0  0  0  0  0  0  0  0  0  0
   -2.0772   -1.1864   -0.0015 H   0  0  0  0  0  0  0  0  0  0  0  0
   -0.0035   -1.3836    0.0031 C   0  0  0  0  0  0  0  0  0  0  0  0
   -0.0073   -2.3855    0.0069 H   0  0  0  0  0  0  0  0  0  0  0  0
    1.1996   -0.6933    0.0000 C   0  0  0  0  0  0  0  0  0  0  0  0
    2.0777   -1.1972   -0.0005 H   0  0  0  0  0  0  0  0  0  0  0  0
    1.1951    0.6859   -0.0003 C   0  0  0  0  0  0  0  0  0  0  0  0
    2.0628    1.1865    0.0010 H   0  0  0  0  0  0  0  0  0  0  0  0
  1  5  1  0
  5  8  1  0
  1  2  1  0
  1  3  1  0
  1  4  1  0
  5  6  1  0
  5  7  1  0
  8  9  1  0
  8 10  1  0
  8 11  1  0
 12 16  1  0
 16 17  2  0
 17 19  1  0
 19 21  2  0
 21 23  1  0
 23 25  2  0
 25 16  1  0
 12 13  1  0
 12 14  1  0
 12 15  1  0
 17 18  1  0
 19 20  1  0
 21 22  1  0
 23 24  1  0
 25 26  1  0
M  CHG  1   8   1
M  END
>  <PDB_ID>  (2980) 
pdb5eln

>  <RESIDUE_NAME>  (2980) 
LYS   PHE

>  <FRAG_NAME>  (2980) 
ETAM   MBZ

>  <FRAG_ATOM_NUM>  (2980) 
fragi: 11  fragj: 15

>  <atom.prop.CHAIN_ID>  (2980) 
A A A A A A A A A A A Z Z Z Z Z Z Z Z Z Z Z Z Z Z Z

>  <atom.prop.IS_HEAVY_ATOM>  (2980) 
1 0 0 0 1 0 0 1 0 0 0 1 0 0 0 1 1 0 1 0 1 0 1 0 1 0

>  <DIFUSE_FUNC_ATOM>  (2980) 
n/a

>  <FINAL_SINGLE_POINT_ENERGY>  (2980) 
0

>  <NONCOV_INTER_ENERGY_QM>  (2980) 
0

>  <FF_Energy>  (2980) 
-1.74

>  <QM_Energy>  (2980) 
-7.27

>  <source>  (2980) 
ETAM_MBZ

>  <Index>  (2980) 
32408

$$$$
ETAM-pdb5eln-D-LYS-173:MBZ-pdb5eln-D-PHE-159
     RDKit          3D

 26 25  0  0  0  0  0  0  0  0999 V2000
    0.2734   -3.0590   -3.0006 C   0  0  0  0  0  0  0  0  0  0  0  0
    0.2032   -3.9870   -3.3535 H   0  0  0  0  0  0  0  0  0  0  0  0
    0.3056   -3.0709   -2.0053 H   0  0  0  0  0  0  0  0  0  0  0  0
    1.1947   -2.6128   -3.3750 H   0  0  0  0  0  0  0  0  0  0  0  0
   -0.9631   -2.2782   -3.4378 C   0  0  0  0  0  0  0  0  0  0  0  0
   -0.8383   -1.3174   -3.2008 H   0  0  0  0  0  0  0  0  0  0  0  0
   -1.0720   -2.3715   -4.4252 H   0  0  0  0  0  0  0  0  0  0  0  0
   -2.1786   -2.8018   -2.7560 N   0  0  0  0  0  4  0  0  0  0  0  0
   -2.6513   -2.0501   -2.2971 H   0  0  0  0  0  0  0  0  0  0  0  0
   -2.7861   -3.2156   -3.4331 H   0  0  0  0  0  0  0  0  0  0  0  0
   -1.9105   -3.4898   -2.0821 H   0  0  0  0  0  0  0  0  0  0  0  0
    0.0076    2.9026    0.0157 C   0  0  0  0  0  0  0  0  0  0  0  0
    0.9296    3.1996    0.2292 H   0  0  0  0  0  0  0  0  0  0  0  0
   -0.6293    3.1985    0.7167 H   0  0  0  0  0  0  0  0  0  0  0  0
   -0.2868    3.3728   -0.9225 H   0  0  0  0  0  0  0  0  0  0  0  0
    0.0015    1.3984   -0.0093 C   0  0  0  0  0  0  0  0  0  0  0  0
   -1.1902    0.6912    0.0036 C   0  0  0  0  0  0  0  0  0  0  0  0
   -2.0588    1.1831    0.0147 H   0  0  0  0  0  0  0  0  0  0  0  0
   -1.1949   -0.6932   -0.0000 C   0  0  0  0  0  0  0  0  0  0  0  0
   -2.0757   -1.1865   -0.0029 H   0  0  0  0  0  0  0  0  0  0  0  0
   -0.0031   -1.3887    0.0019 C   0  0  0  0  0  0  0  0  0  0  0  0
   -0.0089   -2.3902    0.0042 H   0  0  0  0  0  0  0  0  0  0  0  0
    1.1949   -0.6988    0.0000 C   0  0  0  0  0  0  0  0  0  0  0  0
    2.0762   -1.1960   -0.0023 H   0  0  0  0  0  0  0  0  0  0  0  0
    1.1918    0.6911    0.0039 C   0  0  0  0  0  0  0  0  0  0  0  0
    2.0630    1.1852    0.0152 H   0  0  0  0  0  0  0  0  0  0  0  0
  1  5  1  0
  5  8  1  0
  1  2  1  0
  1  3  1  0
  1  4  1  0
  5  6  1  0
  5  7  1  0
  8  9  1  0
  8 10  1  0
  8 11  1  0
 12 16  1  0
 16 17  2  0
 17 19  1  0
 19 21  2  0
 21 23  1  0
 23 25  2  0
 25 16  1  0
 12 13  1  0
 12 14  1  0
 12 15  1  0
 17 18  1  0
 19 20  1  0
 21 22  1  0
 23 24  1  0
 25 26  1  0
M  CHG  1   8   1
M  END
>  <PDB_ID>  (2981) 
pdb5eln

>  <RESIDUE_NAME>  (2981) 
LYS   PHE

>  <FRAG_NAME>  (2981) 
ETAM   MBZ

>  <FRAG_ATOM_NUM>  (2981) 
fragi: 11  fragj: 15

>  <atom.prop.CHAIN_ID>  (2981) 
A A A A A A A A A A A Z Z Z Z Z Z Z Z Z Z Z Z Z Z Z

>  <atom.prop.IS_HEAVY_ATOM>  (2981) 
1 0 0 0 1 0 0 1 0 0 0 1 0 0 0 1 1 0 1 0 1 0 1 0 1 0

>  <DIFUSE_FUNC_ATOM>  (2981) 
n/a

>  <FINAL_SINGLE_POINT_ENERGY>  (2981) 
0

>  <NONCOV_INTER_ENERGY_QM>  (2981) 
0

>  <FF_Energy>  (2981) 
-1.88

>  <QM_Energy>  (2981) 
-7.55

>  <source>  (2981) 
ETAM_MBZ

>  <Index>  (2981) 
32414

$$$$
ETAM-pdb6eom-A-LYS-429:MBZ-pdb6eom-A-PHE-425
     RDKit          3D

 26 25  0  0  0  0  0  0  0  0999 V2000
    0.2628   -1.4671    3.5216 C   0  0  0  0  0  0  0  0  0  0  0  0
    0.4657   -1.0464    2.6453 H   0  0  0  0  0  0  0  0  0  0  0  0
    1.0355   -1.3863    4.1382 H   0  0  0  0  0  0  0  0  0  0  0  0
   -0.6002   -0.9693    3.9637 H   0  0  0  0  0  0  0  0  0  0  0  0
   -0.0286   -2.9367    3.2991 C   0  0  0  0  0  0  0  0  0  0  0  0
    0.7468   -3.3560    2.8188 H   0  0  0  0  0  0  0  0  0  0  0  0
   -0.1384   -3.3883    4.1894 H   0  0  0  0  0  0  0  0  0  0  0  0
   -1.2672   -3.1432    2.4947 N   0  0  0  0  0  4  0  0  0  0  0  0
   -1.9362   -3.6456    3.0409 H   0  0  0  0  0  0  0  0  0  0  0  0
   -1.6444   -2.2554    2.2348 H   0  0  0  0  0  0  0  0  0  0  0  0
   -1.0444   -3.6666    1.6736 H   0  0  0  0  0  0  0  0  0  0  0  0
    0.0048    2.9008   -0.0096 C   0  0  0  0  0  0  0  0  0  0  0  0
   -0.3001    3.1978   -0.9032 H   0  0  0  0  0  0  0  0  0  0  0  0
    0.9291    3.2056    0.1710 H   0  0  0  0  0  0  0  0  0  0  0  0
   -0.6481    3.3580    0.7339 H   0  0  0  0  0  0  0  0  0  0  0  0
    0.0002    1.3960    0.0071 C   0  0  0  0  0  0  0  0  0  0  0  0
   -1.1912    0.6902   -0.0047 C   0  0  0  0  0  0  0  0  0  0  0  0
   -2.0590    1.1815   -0.0175 H   0  0  0  0  0  0  0  0  0  0  0  0
   -1.1950   -0.6925   -0.0000 C   0  0  0  0  0  0  0  0  0  0  0  0
   -2.0740   -1.1885    0.0043 H   0  0  0  0  0  0  0  0  0  0  0  0
    0.0004   -1.3868    0.0003 C   0  0  0  0  0  0  0  0  0  0  0  0
   -0.0057   -2.3880    0.0007 H   0  0  0  0  0  0  0  0  0  0  0  0
    1.1950   -0.6956    0.0000 C   0  0  0  0  0  0  0  0  0  0  0  0
    2.0781   -1.1939    0.0028 H   0  0  0  0  0  0  0  0  0  0  0  0
    1.1906    0.6888   -0.0027 C   0  0  0  0  0  0  0  0  0  0  0  0
    2.0615    1.1862   -0.0126 H   0  0  0  0  0  0  0  0  0  0  0  0
  1  5  1  0
  5  8  1  0
  1  2  1  0
  1  3  1  0
  1  4  1  0
  5  6  1  0
  5  7  1  0
  8  9  1  0
  8 10  1  0
  8 11  1  0
 12 16  1  0
 16 17  2  0
 17 19  1  0
 19 21  2  0
 21 23  1  0
 23 25  2  0
 25 16  1  0
 12 13  1  0
 12 14  1  0
 12 15  1  0
 17 18  1  0
 19 20  1  0
 21 22  1  0
 23 24  1  0
 25 26  1  0
M  CHG  1   8   1
M  END
>  <PDB_ID>  (2982) 
pdb6eom

>  <RESIDUE_NAME>  (2982) 
LYS   PHE

>  <FRAG_NAME>  (2982) 
ETAM   MBZ

>  <FRAG_ATOM_NUM>  (2982) 
fragi: 11  fragj: 15

>  <atom.prop.CHAIN_ID>  (2982) 
A A A A A A A A A A A Z Z Z Z Z Z Z Z Z Z Z Z Z Z Z

>  <atom.prop.IS_HEAVY_ATOM>  (2982) 
1 0 0 0 1 0 0 1 0 0 0 1 0 0 0 1 1 0 1 0 1 0 1 0 1 0

>  <DIFUSE_FUNC_ATOM>  (2982) 
n/a

>  <FINAL_SINGLE_POINT_ENERGY>  (2982) 
0

>  <NONCOV_INTER_ENERGY_QM>  (2982) 
0

>  <FF_Energy>  (2982) 
-2.25

>  <QM_Energy>  (2982) 
-9.6

>  <source>  (2982) 
ETAM_MBZ

>  <Index>  (2982) 
32441

$$$$
ETAM-pdb6ery-B-LYS-429:MBZ-pdb6ery-B-PHE-438
     RDKit          3D

 26 25  0  0  0  0  0  0  0  0999 V2000
   -0.0240   -0.0523   -4.5821 C   0  0  0  0  0  0  0  0  0  0  0  0
   -0.4791    0.8264   -4.4716 H   0  0  0  0  0  0  0  0  0  0  0  0
   -0.3491   -0.5064   -5.4057 H   0  0  0  0  0  0  0  0  0  0  0  0
    1.0497    0.1144   -4.6690 H   0  0  0  0  0  0  0  0  0  0  0  0
   -0.3376   -0.9163   -3.3939 C   0  0  0  0  0  0  0  0  0  0  0  0
    0.2530   -1.7229   -3.4054 H   0  0  0  0  0  0  0  0  0  0  0  0
   -0.1762   -0.3973   -2.5543 H   0  0  0  0  0  0  0  0  0  0  0  0
   -1.7539   -1.3492   -3.4340 N   0  0  0  0  0  4  0  0  0  0  0  0
   -2.3060   -0.6483   -3.8882 H   0  0  0  0  0  0  0  0  0  0  0  0
   -1.8267   -2.2097   -3.9405 H   0  0  0  0  0  0  0  0  0  0  0  0
   -2.0894   -1.4829   -2.5006 H   0  0  0  0  0  0  0  0  0  0  0  0
   -0.0157    2.8993   -0.0084 C   0  0  0  0  0  0  0  0  0  0  0  0
   -0.7620    3.1976   -0.5841 H   0  0  0  0  0  0  0  0  0  0  0  0
    0.8549    3.2125   -0.3561 H   0  0  0  0  0  0  0  0  0  0  0  0
   -0.1584    3.3429    0.9769 H   0  0  0  0  0  0  0  0  0  0  0  0
   -0.0022    1.3965   -0.0035 C   0  0  0  0  0  0  0  0  0  0  0  0
   -1.1925    0.6857    0.0059 C   0  0  0  0  0  0  0  0  0  0  0  0
   -2.0619    1.1751    0.0162 H   0  0  0  0  0  0  0  0  0  0  0  0
   -1.1934   -0.6992   -0.0000 C   0  0  0  0  0  0  0  0  0  0  0  0
   -2.0696   -1.1962   -0.0007 H   0  0  0  0  0  0  0  0  0  0  0  0
    0.0041   -1.3858   -0.0028 C   0  0  0  0  0  0  0  0  0  0  0  0
    0.0023   -2.3888   -0.0081 H   0  0  0  0  0  0  0  0  0  0  0  0
    1.1934   -0.6921   -0.0000 C   0  0  0  0  0  0  0  0  0  0  0  0
    2.0802   -1.1877    0.0033 H   0  0  0  0  0  0  0  0  0  0  0  0
    1.1905    0.6948    0.0004 C   0  0  0  0  0  0  0  0  0  0  0  0
    2.0592    1.1914    0.0024 H   0  0  0  0  0  0  0  0  0  0  0  0
  1  5  1  0
  5  8  1  0
  1  2  1  0
  1  3  1  0
  1  4  1  0
  5  6  1  0
  5  7  1  0
  8  9  1  0
  8 10  1  0
  8 11  1  0
 12 16  1  0
 16 17  2  0
 17 19  1  0
 19 21  2  0
 21 23  1  0
 23 25  2  0
 25 16  1  0
 12 13  1  0
 12 14  1  0
 12 15  1  0
 17 18  1  0
 19 20  1  0
 21 22  1  0
 23 24  1  0
 25 26  1  0
M  CHG  1   8   1
M  END
>  <PDB_ID>  (2983) 
pdb6ery

>  <RESIDUE_NAME>  (2983) 
LYS   PHE

>  <FRAG_NAME>  (2983) 
ETAM   MBZ

>  <FRAG_ATOM_NUM>  (2983) 
fragi: 11  fragj: 15

>  <atom.prop.CHAIN_ID>  (2983) 
A A A A A A A A A A A Z Z Z Z Z Z Z Z Z Z Z Z Z Z Z

>  <atom.prop.IS_HEAVY_ATOM>  (2983) 
1 0 0 0 1 0 0 1 0 0 0 1 0 0 0 1 1 0 1 0 1 0 1 0 1 0

>  <DIFUSE_FUNC_ATOM>  (2983) 
n/a

>  <FINAL_SINGLE_POINT_ENERGY>  (2983) 
0

>  <NONCOV_INTER_ENERGY_QM>  (2983) 
0

>  <FF_Energy>  (2983) 
-4.92

>  <QM_Energy>  (2983) 
-11.4

>  <source>  (2983) 
ETAM_MBZ

>  <Index>  (2983) 
32453

$$$$
ETAM-pdb6euf-A-LYS-261:MBZ-pdb6euf-A-PHE-460
     RDKit          3D

 26 25  0  0  0  0  0  0  0  0999 V2000
    4.2995   -1.5467    2.7827 C   0  0  0  0  0  0  0  0  0  0  0  0
    4.7096   -2.2561    2.1932 H   0  0  0  0  0  0  0  0  0  0  0  0
    3.2956   -1.6158    2.7005 H   0  0  0  0  0  0  0  0  0  0  0  0
    4.5584   -1.7926    3.8126 H   0  0  0  0  0  0  0  0  0  0  0  0
    4.7475   -0.2189    2.3562 C   0  0  0  0  0  0  0  0  0  0  0  0
    4.3379    0.4934    2.9425 H   0  0  0  0  0  0  0  0  0  0  0  0
    5.7513   -0.1458    2.4346 H   0  0  0  0  0  0  0  0  0  0  0  0
    4.3687    0.0627    0.9468 N   0  0  0  0  0  4  0  0  0  0  0  0
    4.9696   -0.4494    0.3334 H   0  0  0  0  0  0  0  0  0  0  0  0
    3.4200   -0.2155    0.7961 H   0  0  0  0  0  0  0  0  0  0  0  0
    4.4626    1.0420    0.7661 H   0  0  0  0  0  0  0  0  0  0  0  0
    0.0086    2.9271   -0.0985 C   0  0  0  0  0  0  0  0  0  0  0  0
    0.9335    3.2365    0.0107 H   0  0  0  0  0  0  0  0  0  0  0  0
   -0.5924    3.2789    0.5929 H   0  0  0  0  0  0  0  0  0  0  0  0
   -0.3484    3.2938   -1.0609 H   0  0  0  0  0  0  0  0  0  0  0  0
    0.0034    1.4106   -0.0008 C   0  0  0  0  0  0  0  0  0  0  0  0
   -1.2149    0.6956    0.0038 C   0  0  0  0  0  0  0  0  0  0  0  0
   -2.0713    1.1886    0.0083 H   0  0  0  0  0  0  0  0  0  0  0  0
   -1.2132   -0.7007   -0.0000 C   0  0  0  0  0  0  0  0  0  0  0  0
   -2.0833   -1.1983   -0.0082 H   0  0  0  0  0  0  0  0  0  0  0  0
   -0.0009   -1.3918    0.0097 C   0  0  0  0  0  0  0  0  0  0  0  0
   -0.0019   -2.3924    0.0231 H   0  0  0  0  0  0  0  0  0  0  0  0
    1.2132   -0.6956    0.0000 C   0  0  0  0  0  0  0  0  0  0  0  0
    2.0862   -1.2069    0.0037 H   0  0  0  0  0  0  0  0  0  0  0  0
    1.2123    0.6818   -0.0127 C   0  0  0  0  0  0  0  0  0  0  0  0
    2.0756    1.1876   -0.0310 H   0  0  0  0  0  0  0  0  0  0  0  0
  1  5  1  0
  5  8  1  0
  1  2  1  0
  1  3  1  0
  1  4  1  0
  5  6  1  0
  5  7  1  0
  8  9  1  0
  8 10  1  0
  8 11  1  0
 12 16  1  0
 16 17  2  0
 17 19  1  0
 19 21  2  0
 21 23  1  0
 23 25  2  0
 25 16  1  0
 12 13  1  0
 12 14  1  0
 12 15  1  0
 17 18  1  0
 19 20  1  0
 21 22  1  0
 23 24  1  0
 25 26  1  0
M  CHG  1   8   1
M  END
>  <PDB_ID>  (2984) 
pdb6euf

>  <RESIDUE_NAME>  (2984) 
LYS   PHE

>  <FRAG_NAME>  (2984) 
ETAM   MBZ

>  <FRAG_ATOM_NUM>  (2984) 
fragi: 11  fragj: 15

>  <atom.prop.CHAIN_ID>  (2984) 
A A A A A A A A A A A Z Z Z Z Z Z Z Z Z Z Z Z Z Z Z

>  <atom.prop.IS_HEAVY_ATOM>  (2984) 
1 0 0 0 1 0 0 1 0 0 0 1 0 0 0 1 1 0 1 0 1 0 1 0 1 0

>  <DIFUSE_FUNC_ATOM>  (2984) 
n/a

>  <FINAL_SINGLE_POINT_ENERGY>  (2984) 
0

>  <NONCOV_INTER_ENERGY_QM>  (2984) 
0

>  <FF_Energy>  (2984) 
0.9

>  <QM_Energy>  (2984) 
-5.35

>  <source>  (2984) 
ETAM_MBZ

>  <Index>  (2984) 
32457

$$$$
ETAM-pdb6euf-B-LYS-261:MBZ-pdb6euf-B-PHE-460
     RDKit          3D

 26 25  0  0  0  0  0  0  0  0999 V2000
    3.6169   -1.8098    3.4875 C   0  0  0  0  0  0  0  0  0  0  0  0
    4.4160   -2.3315    3.1885 H   0  0  0  0  0  0  0  0  0  0  0  0
    2.7878   -2.2260    3.1157 H   0  0  0  0  0  0  0  0  0  0  0  0
    3.5655   -1.8604    4.5752 H   0  0  0  0  0  0  0  0  0  0  0  0
    3.7303   -0.3971    2.9774 C   0  0  0  0  0  0  0  0  0  0  0  0
    2.9323    0.1269    3.2763 H   0  0  0  0  0  0  0  0  0  0  0  0
    4.5605    0.0222    3.3486 H   0  0  0  0  0  0  0  0  0  0  0  0
    3.7976   -0.3812    1.4965 N   0  0  0  0  0  4  0  0  0  0  0  0
    3.3041   -1.1713    1.1308 H   0  0  0  0  0  0  0  0  0  0  0  0
    3.3806    0.4599    1.1526 H   0  0  0  0  0  0  0  0  0  0  0  0
    4.7538   -0.4220    1.2050 H   0  0  0  0  0  0  0  0  0  0  0  0
   -0.0103    2.9218   -0.0132 C   0  0  0  0  0  0  0  0  0  0  0  0
    0.8950    3.2356    0.2172 H   0  0  0  0  0  0  0  0  0  0  0  0
   -0.6830    3.2268    0.6397 H   0  0  0  0  0  0  0  0  0  0  0  0
   -0.2729    3.3376   -0.9858 H   0  0  0  0  0  0  0  0  0  0  0  0
    0.0020    1.4142    0.0020 C   0  0  0  0  0  0  0  0  0  0  0  0
   -1.2044    0.6885    0.0056 C   0  0  0  0  0  0  0  0  0  0  0  0
   -2.0686    1.1758    0.0108 H   0  0  0  0  0  0  0  0  0  0  0  0
   -1.1982   -0.7066   -0.0000 C   0  0  0  0  0  0  0  0  0  0  0  0
   -2.0758   -1.2026    0.0078 H   0  0  0  0  0  0  0  0  0  0  0  0
    0.0020   -1.3971   -0.0144 C   0  0  0  0  0  0  0  0  0  0  0  0
   -0.0003   -2.3983   -0.0355 H   0  0  0  0  0  0  0  0  0  0  0  0
    1.1982   -0.7030   -0.0000 C   0  0  0  0  0  0  0  0  0  0  0  0
    2.0835   -1.1936    0.0072 H   0  0  0  0  0  0  0  0  0  0  0  0
    1.2004    0.7040    0.0068 C   0  0  0  0  0  0  0  0  0  0  0  0
    2.0686    1.1901    0.0142 H   0  0  0  0  0  0  0  0  0  0  0  0
  1  5  1  0
  5  8  1  0
  1  2  1  0
  1  3  1  0
  1  4  1  0
  5  6  1  0
  5  7  1  0
  8  9  1  0
  8 10  1  0
  8 11  1  0
 12 16  1  0
 16 17  2  0
 17 19  1  0
 19 21  2  0
 21 23  1  0
 23 25  2  0
 25 16  1  0
 12 13  1  0
 12 14  1  0
 12 15  1  0
 17 18  1  0
 19 20  1  0
 21 22  1  0
 23 24  1  0
 25 26  1  0
M  CHG  1   8   1
M  END
>  <PDB_ID>  (2985) 
pdb6euf

>  <RESIDUE_NAME>  (2985) 
LYS   PHE

>  <FRAG_NAME>  (2985) 
ETAM   MBZ

>  <FRAG_ATOM_NUM>  (2985) 
fragi: 11  fragj: 15

>  <atom.prop.CHAIN_ID>  (2985) 
A A A A A A A A A A A Z Z Z Z Z Z Z Z Z Z Z Z Z Z Z

>  <atom.prop.IS_HEAVY_ATOM>  (2985) 
1 0 0 0 1 0 0 1 0 0 0 1 0 0 0 1 1 0 1 0 1 0 1 0 1 0

>  <DIFUSE_FUNC_ATOM>  (2985) 
n/a

>  <FINAL_SINGLE_POINT_ENERGY>  (2985) 
0

>  <NONCOV_INTER_ENERGY_QM>  (2985) 
0

>  <FF_Energy>  (2985) 
3.58

>  <QM_Energy>  (2985) 
-4.05

>  <source>  (2985) 
ETAM_MBZ

>  <Index>  (2985) 
32459

$$$$
ETAM-pdb6euf-C-LYS-261:MBZ-pdb6euf-C-PHE-460
     RDKit          3D

 26 25  0  0  0  0  0  0  0  0999 V2000
    4.5851   -1.6642    1.9974 C   0  0  0  0  0  0  0  0  0  0  0  0
    5.4093   -2.0806    1.5914 H   0  0  0  0  0  0  0  0  0  0  0  0
    3.7770   -2.1398    1.6256 H   0  0  0  0  0  0  0  0  0  0  0  0
    4.6149   -1.8423    3.0724 H   0  0  0  0  0  0  0  0  0  0  0  0
    4.5247   -0.2340    1.6358 C   0  0  0  0  0  0  0  0  0  0  0  0
    3.7016    0.1878    2.0332 H   0  0  0  0  0  0  0  0  0  0  0  0
    5.3319    0.2481    1.9979 H   0  0  0  0  0  0  0  0  0  0  0  0
    4.4868   -0.0437    0.1607 N   0  0  0  0  0  4  0  0  0  0  0  0
    4.6496    0.9183   -0.0541 H   0  0  0  0  0  0  0  0  0  0  0  0
    5.1953   -0.6070   -0.2650 H   0  0  0  0  0  0  0  0  0  0  0  0
    3.5894   -0.3172   -0.1856 H   0  0  0  0  0  0  0  0  0  0  0  0
   -0.0102    2.9232   -0.0595 C   0  0  0  0  0  0  0  0  0  0  0  0
    0.9194    3.2378    0.0072 H   0  0  0  0  0  0  0  0  0  0  0  0
   -0.5677    3.2507    0.6817 H   0  0  0  0  0  0  0  0  0  0  0  0
   -0.4272    3.3158   -0.9869 H   0  0  0  0  0  0  0  0  0  0  0  0
    0.0041    1.4055    0.0017 C   0  0  0  0  0  0  0  0  0  0  0  0
   -1.1871    0.6765    0.0278 C   0  0  0  0  0  0  0  0  0  0  0  0
   -2.0579    1.1705    0.0666 H   0  0  0  0  0  0  0  0  0  0  0  0
   -1.1916   -0.7019    0.0000 C   0  0  0  0  0  0  0  0  0  0  0  0
   -2.0738   -1.1970   -0.0079 H   0  0  0  0  0  0  0  0  0  0  0  0
   -0.0027   -1.3943   -0.0153 C   0  0  0  0  0  0  0  0  0  0  0  0
   -0.0008   -2.3925   -0.0376 H   0  0  0  0  0  0  0  0  0  0  0  0
    1.1916   -0.6930    0.0000 C   0  0  0  0  0  0  0  0  0  0  0  0
    2.0779   -1.1832    0.0226 H   0  0  0  0  0  0  0  0  0  0  0  0
    1.1857    0.7073   -0.0142 C   0  0  0  0  0  0  0  0  0  0  0  0
    2.0608    1.1939   -0.0369 H   0  0  0  0  0  0  0  0  0  0  0  0
  1  5  1  0
  5  8  1  0
  1  2  1  0
  1  3  1  0
  1  4  1  0
  5  6  1  0
  5  7  1  0
  8  9  1  0
  8 10  1  0
  8 11  1  0
 12 16  1  0
 16 17  2  0
 17 19  1  0
 19 21  2  0
 21 23  1  0
 23 25  2  0
 25 16  1  0
 12 13  1  0
 12 14  1  0
 12 15  1  0
 17 18  1  0
 19 20  1  0
 21 22  1  0
 23 24  1  0
 25 26  1  0
M  CHG  1   8   1
M  END
>  <PDB_ID>  (2986) 
pdb6euf

>  <RESIDUE_NAME>  (2986) 
LYS   PHE

>  <FRAG_NAME>  (2986) 
ETAM   MBZ

>  <FRAG_ATOM_NUM>  (2986) 
fragi: 11  fragj: 15

>  <atom.prop.CHAIN_ID>  (2986) 
A A A A A A A A A A A Z Z Z Z Z Z Z Z Z Z Z Z Z Z Z

>  <atom.prop.IS_HEAVY_ATOM>  (2986) 
1 0 0 0 1 0 0 1 0 0 0 1 0 0 0 1 1 0 1 0 1 0 1 0 1 0

>  <DIFUSE_FUNC_ATOM>  (2986) 
n/a

>  <FINAL_SINGLE_POINT_ENERGY>  (2986) 
0

>  <NONCOV_INTER_ENERGY_QM>  (2986) 
0

>  <FF_Energy>  (2986) 
1.47

>  <QM_Energy>  (2986) 
-4.98

>  <source>  (2986) 
ETAM_MBZ

>  <Index>  (2986) 
32461

$$$$
ETAM-pdb5epc-A-LYS-457:MBZ-pdb5epc-A-PHE-454
     RDKit          3D

 26 25  0  0  0  0  0  0  0  0999 V2000
   -2.2268    1.5692    2.7963 C   0  0  0  0  0  0  0  0  0  0  0  0
   -1.5390    1.0593    2.2774 H   0  0  0  0  0  0  0  0  0  0  0  0
   -3.0004    0.9690    3.0013 H   0  0  0  0  0  0  0  0  0  0  0  0
   -1.7812    1.8994    3.7347 H   0  0  0  0  0  0  0  0  0  0  0  0
   -2.7174    2.7200    1.9505 C   0  0  0  0  0  0  0  0  0  0  0  0
   -3.0675    3.4415    2.5482 H   0  0  0  0  0  0  0  0  0  0  0  0
   -1.9564    3.0788    1.4089 H   0  0  0  0  0  0  0  0  0  0  0  0
   -3.7998    2.2760    1.0364 N   0  0  0  0  0  4  0  0  0  0  0  0
   -3.6381    1.3261    0.7658 H   0  0  0  0  0  0  0  0  0  0  0  0
   -4.6806    2.3432    1.5046 H   0  0  0  0  0  0  0  0  0  0  0  0
   -3.8093    2.8573    0.2229 H   0  0  0  0  0  0  0  0  0  0  0  0
   -0.0047    2.8804    0.0184 C   0  0  0  0  0  0  0  0  0  0  0  0
   -0.7516    3.1986   -0.5428 H   0  0  0  0  0  0  0  0  0  0  0  0
    0.8658    3.2011   -0.3179 H   0  0  0  0  0  0  0  0  0  0  0  0
   -0.1445    3.2856    1.0206 H   0  0  0  0  0  0  0  0  0  0  0  0
    0.0010    1.3924   -0.0078 C   0  0  0  0  0  0  0  0  0  0  0  0
   -1.1917    0.6895    0.0087 C   0  0  0  0  0  0  0  0  0  0  0  0
   -2.0582    1.1822    0.0262 H   0  0  0  0  0  0  0  0  0  0  0  0
   -1.1956   -0.6925   -0.0000 C   0  0  0  0  0  0  0  0  0  0  0  0
   -2.0759   -1.1876   -0.0039 H   0  0  0  0  0  0  0  0  0  0  0  0
   -0.0038   -1.3850   -0.0019 C   0  0  0  0  0  0  0  0  0  0  0  0
   -0.0065   -2.3868   -0.0049 H   0  0  0  0  0  0  0  0  0  0  0  0
    1.1956   -0.6936    0.0000 C   0  0  0  0  0  0  0  0  0  0  0  0
    2.0766   -1.1965    0.0021 H   0  0  0  0  0  0  0  0  0  0  0  0
    1.1945    0.6893    0.0010 C   0  0  0  0  0  0  0  0  0  0  0  0
    2.0621    1.1867    0.0069 H   0  0  0  0  0  0  0  0  0  0  0  0
  1  5  1  0
  5  8  1  0
  1  2  1  0
  1  3  1  0
  1  4  1  0
  5  6  1  0
  5  7  1  0
  8  9  1  0
  8 10  1  0
  8 11  1  0
 12 16  1  0
 16 17  2  0
 17 19  1  0
 19 21  2  0
 21 23  1  0
 23 25  2  0
 25 16  1  0
 12 13  1  0
 12 14  1  0
 12 15  1  0
 17 18  1  0
 19 20  1  0
 21 22  1  0
 23 24  1  0
 25 26  1  0
M  CHG  1   8   1
M  END
>  <PDB_ID>  (2987) 
pdb5epc

>  <RESIDUE_NAME>  (2987) 
LYS   PHE

>  <FRAG_NAME>  (2987) 
ETAM   MBZ

>  <FRAG_ATOM_NUM>  (2987) 
fragi: 11  fragj: 15

>  <atom.prop.CHAIN_ID>  (2987) 
A A A A A A A A A A A Z Z Z Z Z Z Z Z Z Z Z Z Z Z Z

>  <atom.prop.IS_HEAVY_ATOM>  (2987) 
1 0 0 0 1 0 0 1 0 0 0 1 0 0 0 1 1 0 1 0 1 0 1 0 1 0

>  <DIFUSE_FUNC_ATOM>  (2987) 
n/a

>  <FINAL_SINGLE_POINT_ENERGY>  (2987) 
0

>  <NONCOV_INTER_ENERGY_QM>  (2987) 
0

>  <FF_Energy>  (2987) 
12.48

>  <QM_Energy>  (2987) 
-0.22

>  <source>  (2987) 
ETAM_MBZ

>  <Index>  (2987) 
32464

$$$$
ETAM-pdb6euf-D-LYS-261:MBZ-pdb6euf-D-PHE-460
     RDKit          3D

 26 25  0  0  0  0  0  0  0  0999 V2000
    4.1463   -1.9029    2.4030 C   0  0  0  0  0  0  0  0  0  0  0  0
    4.0021   -2.5730    1.6676 H   0  0  0  0  0  0  0  0  0  0  0  0
    3.2699   -1.7382    2.8658 H   0  0  0  0  0  0  0  0  0  0  0  0
    4.8368   -2.3363    3.1264 H   0  0  0  0  0  0  0  0  0  0  0  0
    4.6383   -0.6266    1.8151 C   0  0  0  0  0  0  0  0  0  0  0  0
    4.7807    0.0504    2.5439 H   0  0  0  0  0  0  0  0  0  0  0  0
    5.5129   -0.7831    1.3461 H   0  0  0  0  0  0  0  0  0  0  0  0
    3.6644   -0.0752    0.8353 N   0  0  0  0  0  4  0  0  0  0  0  0
    3.8651    0.8904    0.6751 H   0  0  0  0  0  0  0  0  0  0  0  0
    3.7370   -0.5789   -0.0247 H   0  0  0  0  0  0  0  0  0  0  0  0
    2.7379   -0.1685    1.2006 H   0  0  0  0  0  0  0  0  0  0  0  0
   -0.0221    2.8859   -0.0496 C   0  0  0  0  0  0  0  0  0  0  0  0
    0.8961    3.2231    0.0618 H   0  0  0  0  0  0  0  0  0  0  0  0
   -0.6253    3.2167    0.6561 H   0  0  0  0  0  0  0  0  0  0  0  0
   -0.3945    3.2713   -0.9988 H   0  0  0  0  0  0  0  0  0  0  0  0
    0.0050    1.3987    0.0024 C   0  0  0  0  0  0  0  0  0  0  0  0
   -1.1967    0.6667    0.0039 C   0  0  0  0  0  0  0  0  0  0  0  0
   -2.0633    1.1584    0.0064 H   0  0  0  0  0  0  0  0  0  0  0  0
   -1.1925   -0.7163    0.0000 C   0  0  0  0  0  0  0  0  0  0  0  0
   -2.0688   -1.2141    0.0020 H   0  0  0  0  0  0  0  0  0  0  0  0
   -0.0016   -1.3816   -0.0042 C   0  0  0  0  0  0  0  0  0  0  0  0
    0.0176   -2.3877   -0.0108 H   0  0  0  0  0  0  0  0  0  0  0  0
    1.1925   -0.6765    0.0000 C   0  0  0  0  0  0  0  0  0  0  0  0
    2.0789   -1.1772    0.0062 H   0  0  0  0  0  0  0  0  0  0  0  0
    1.1933    0.7090   -0.0020 C   0  0  0  0  0  0  0  0  0  0  0  0
    2.0621    1.2019   -0.0079 H   0  0  0  0  0  0  0  0  0  0  0  0
  1  5  1  0
  5  8  1  0
  1  2  1  0
  1  3  1  0
  1  4  1  0
  5  6  1  0
  5  7  1  0
  8  9  1  0
  8 10  1  0
  8 11  1  0
 12 16  1  0
 16 17  2  0
 17 19  1  0
 19 21  2  0
 21 23  1  0
 23 25  2  0
 25 16  1  0
 12 13  1  0
 12 14  1  0
 12 15  1  0
 17 18  1  0
 19 20  1  0
 21 22  1  0
 23 24  1  0
 25 26  1  0
M  CHG  1   8   1
M  END
>  <PDB_ID>  (2988) 
pdb6euf

>  <RESIDUE_NAME>  (2988) 
LYS   PHE

>  <FRAG_NAME>  (2988) 
ETAM   MBZ

>  <FRAG_ATOM_NUM>  (2988) 
fragi: 11  fragj: 15

>  <atom.prop.CHAIN_ID>  (2988) 
A A A A A A A A A A A Z Z Z Z Z Z Z Z Z Z Z Z Z Z Z

>  <atom.prop.IS_HEAVY_ATOM>  (2988) 
1 0 0 0 1 0 0 1 0 0 0 1 0 0 0 1 1 0 1 0 1 0 1 0 1 0

>  <DIFUSE_FUNC_ATOM>  (2988) 
n/a

>  <FINAL_SINGLE_POINT_ENERGY>  (2988) 
0

>  <NONCOV_INTER_ENERGY_QM>  (2988) 
0

>  <FF_Energy>  (2988) 
28.24

>  <QM_Energy>  (2988) 
4.89

>  <source>  (2988) 
ETAM_MBZ

>  <Index>  (2988) 
32465

$$$$
ETAM-pdb5epc-B-LYS-180:MBZ-pdb5epc-B-PHE-184
     RDKit          3D

 26 25  0  0  0  0  0  0  0  0999 V2000
   -1.6381    6.8975   -2.7679 C   0  0  0  0  0  0  0  0  0  0  0  0
   -2.5024    6.3972   -2.8324 H   0  0  0  0  0  0  0  0  0  0  0  0
   -1.0426    6.6279   -3.5257 H   0  0  0  0  0  0  0  0  0  0  0  0
   -1.8450    7.9648   -2.8473 H   0  0  0  0  0  0  0  0  0  0  0  0
   -0.9622    6.5309   -1.4669 C   0  0  0  0  0  0  0  0  0  0  0  0
   -0.0947    7.0242   -1.3975 H   0  0  0  0  0  0  0  0  0  0  0  0
   -1.5540    6.7927   -0.7038 H   0  0  0  0  0  0  0  0  0  0  0  0
   -0.7013    5.0712   -1.4036 N   0  0  0  0  0  4  0  0  0  0  0  0
   -0.2748    4.8463   -0.5271 H   0  0  0  0  0  0  0  0  0  0  0  0
   -1.5647    4.5735   -1.4913 H   0  0  0  0  0  0  0  0  0  0  0  0
   -0.0884    4.8089   -2.1496 H   0  0  0  0  0  0  0  0  0  0  0  0
    0.0094    2.8917   -0.0154 C   0  0  0  0  0  0  0  0  0  0  0  0
   -0.5363    3.1924   -0.7865 H   0  0  0  0  0  0  0  0  0  0  0  0
    0.9491    3.1947   -0.1095 H   0  0  0  0  0  0  0  0  0  0  0  0
   -0.3994    3.3587    0.8805 H   0  0  0  0  0  0  0  0  0  0  0  0
    0.0015    1.3961    0.0072 C   0  0  0  0  0  0  0  0  0  0  0  0
   -1.1933    0.6887   -0.0005 C   0  0  0  0  0  0  0  0  0  0  0  0
   -2.0598    1.1820   -0.0077 H   0  0  0  0  0  0  0  0  0  0  0  0
   -1.1985   -0.6952    0.0000 C   0  0  0  0  0  0  0  0  0  0  0  0
   -2.0776   -1.1897    0.0034 H   0  0  0  0  0  0  0  0  0  0  0  0
   -0.0033   -1.3888   -0.0029 C   0  0  0  0  0  0  0  0  0  0  0  0
   -0.0049   -2.3882   -0.0074 H   0  0  0  0  0  0  0  0  0  0  0  0
    1.1985   -0.6936   -0.0000 C   0  0  0  0  0  0  0  0  0  0  0  0
    2.0788   -1.1940    0.0059 H   0  0  0  0  0  0  0  0  0  0  0  0
    1.1951    0.6928   -0.0038 C   0  0  0  0  0  0  0  0  0  0  0  0
    2.0628    1.1898   -0.0155 H   0  0  0  0  0  0  0  0  0  0  0  0
  1  5  1  0
  5  8  1  0
  1  2  1  0
  1  3  1  0
  1  4  1  0
  5  6  1  0
  5  7  1  0
  8  9  1  0
  8 10  1  0
  8 11  1  0
 12 16  1  0
 16 17  2  0
 17 19  1  0
 19 21  2  0
 21 23  1  0
 23 25  2  0
 25 16  1  0
 12 13  1  0
 12 14  1  0
 12 15  1  0
 17 18  1  0
 19 20  1  0
 21 22  1  0
 23 24  1  0
 25 26  1  0
M  CHG  1   8   1
M  END
>  <PDB_ID>  (2989) 
pdb5epc

>  <RESIDUE_NAME>  (2989) 
LYS   PHE

>  <FRAG_NAME>  (2989) 
ETAM   MBZ

>  <FRAG_ATOM_NUM>  (2989) 
fragi: 11  fragj: 15

>  <atom.prop.CHAIN_ID>  (2989) 
A A A A A A A A A A A Z Z Z Z Z Z Z Z Z Z Z Z Z Z Z

>  <atom.prop.IS_HEAVY_ATOM>  (2989) 
1 0 0 0 1 0 0 1 0 0 0 1 0 0 0 1 1 0 1 0 1 0 1 0 1 0

>  <DIFUSE_FUNC_ATOM>  (2989) 
n/a

>  <FINAL_SINGLE_POINT_ENERGY>  (2989) 
0

>  <NONCOV_INTER_ENERGY_QM>  (2989) 
0

>  <FF_Energy>  (2989) 
26.61

>  <QM_Energy>  (2989) 
6.33

>  <source>  (2989) 
ETAM_MBZ

>  <Index>  (2989) 
32468

$$$$
ETAM-pdb5epc-B-LYS-457:MBZ-pdb5epc-B-PHE-454
     RDKit          3D

 26 25  0  0  0  0  0  0  0  0999 V2000
   -2.4463    2.2070    2.8045 C   0  0  0  0  0  0  0  0  0  0  0  0
   -1.8451    1.6239    2.2587 H   0  0  0  0  0  0  0  0  0  0  0  0
   -3.3113    1.7336    2.9681 H   0  0  0  0  0  0  0  0  0  0  0  0
   -1.9660    2.4002    3.7637 H   0  0  0  0  0  0  0  0  0  0  0  0
   -2.7260    3.4755    2.0310 C   0  0  0  0  0  0  0  0  0  0  0  0
   -3.1162    4.1577    2.6494 H   0  0  0  0  0  0  0  0  0  0  0  0
   -1.8698    3.8233    1.6496 H   0  0  0  0  0  0  0  0  0  0  0  0
   -3.6827    3.2138    0.9263 N   0  0  0  0  0  4  0  0  0  0  0  0
   -3.1762    3.0124    0.0874 H   0  0  0  0  0  0  0  0  0  0  0  0
   -4.2595    2.4316    1.1625 H   0  0  0  0  0  0  0  0  0  0  0  0
   -4.2565    4.0210    0.7837 H   0  0  0  0  0  0  0  0  0  0  0  0
   -0.0012    2.8838    0.0187 C   0  0  0  0  0  0  0  0  0  0  0  0
   -0.7671    3.1996   -0.5182 H   0  0  0  0  0  0  0  0  0  0  0  0
    0.8575    3.1994   -0.3532 H   0  0  0  0  0  0  0  0  0  0  0  0
   -0.1029    3.2973    1.0221 H   0  0  0  0  0  0  0  0  0  0  0  0
    0.0013    1.3902   -0.0040 C   0  0  0  0  0  0  0  0  0  0  0  0
   -1.1915    0.6893    0.0066 C   0  0  0  0  0  0  0  0  0  0  0  0
   -2.0580    1.1810    0.0181 H   0  0  0  0  0  0  0  0  0  0  0  0
   -1.1948   -0.6928    0.0000 C   0  0  0  0  0  0  0  0  0  0  0  0
   -2.0741   -1.1877   -0.0020 H   0  0  0  0  0  0  0  0  0  0  0  0
   -0.0030   -1.3814   -0.0023 C   0  0  0  0  0  0  0  0  0  0  0  0
   -0.0038   -2.3843   -0.0063 H   0  0  0  0  0  0  0  0  0  0  0  0
    1.1948   -0.6894    0.0000 C   0  0  0  0  0  0  0  0  0  0  0  0
    2.0758   -1.1953    0.0035 H   0  0  0  0  0  0  0  0  0  0  0  0
    1.1932    0.6842   -0.0003 C   0  0  0  0  0  0  0  0  0  0  0  0
    2.0614    1.1857    0.0010 H   0  0  0  0  0  0  0  0  0  0  0  0
  1  5  1  0
  5  8  1  0
  1  2  1  0
  1  3  1  0
  1  4  1  0
  5  6  1  0
  5  7  1  0
  8  9  1  0
  8 10  1  0
  8 11  1  0
 12 16  1  0
 16 17  2  0
 17 19  1  0
 19 21  2  0
 21 23  1  0
 23 25  2  0
 25 16  1  0
 12 13  1  0
 12 14  1  0
 12 15  1  0
 17 18  1  0
 19 20  1  0
 21 22  1  0
 23 24  1  0
 25 26  1  0
M  CHG  1   8   1
M  END
>  <PDB_ID>  (2990) 
pdb5epc

>  <RESIDUE_NAME>  (2990) 
LYS   PHE

>  <FRAG_NAME>  (2990) 
ETAM   MBZ

>  <FRAG_ATOM_NUM>  (2990) 
fragi: 11  fragj: 15

>  <atom.prop.CHAIN_ID>  (2990) 
A A A A A A A A A A A Z Z Z Z Z Z Z Z Z Z Z Z Z Z Z

>  <atom.prop.IS_HEAVY_ATOM>  (2990) 
1 0 0 0 1 0 0 1 0 0 0 1 0 0 0 1 1 0 1 0 1 0 1 0 1 0

>  <DIFUSE_FUNC_ATOM>  (2990) 
n/a

>  <FINAL_SINGLE_POINT_ENERGY>  (2990) 
0

>  <NONCOV_INTER_ENERGY_QM>  (2990) 
0

>  <FF_Energy>  (2990) 
1.81

>  <QM_Energy>  (2990) 
-3.34

>  <source>  (2990) 
ETAM_MBZ

>  <Index>  (2990) 
32470

$$$$
ETAM-pdb6eus-C-LYS-402:MBZ-pdb6eus-C-PHE-76
     RDKit          3D

 26 25  0  0  0  0  0  0  0  0999 V2000
    0.7845    1.8018   -3.8005 C   0  0  0  0  0  0  0  0  0  0  0  0
    1.2511    2.0654   -4.6324 H   0  0  0  0  0  0  0  0  0  0  0  0
    1.3507    1.9622   -3.0054 H   0  0  0  0  0  0  0  0  0  0  0  0
   -0.1269    2.3923   -3.7078 H   0  0  0  0  0  0  0  0  0  0  0  0
    0.4294    0.3516   -3.8699 C   0  0  0  0  0  0  0  0  0  0  0  0
   -0.2136    0.1305   -3.1471 H   0  0  0  0  0  0  0  0  0  0  0  0
    0.0414    0.1451   -4.7599 H   0  0  0  0  0  0  0  0  0  0  0  0
    1.6661   -0.4309   -3.6815 N   0  0  0  0  0  4  0  0  0  0  0  0
    1.4619   -1.4091   -3.7539 H   0  0  0  0  0  0  0  0  0  0  0  0
    2.3349   -0.1810   -4.3843 H   0  0  0  0  0  0  0  0  0  0  0  0
    2.0523   -0.2407   -2.7768 H   0  0  0  0  0  0  0  0  0  0  0  0
    0.0137    2.9258   -0.0460 C   0  0  0  0  0  0  0  0  0  0  0  0
   -0.6091    3.2145   -0.7609 H   0  0  0  0  0  0  0  0  0  0  0  0
    0.9403    3.2182   -0.2422 H   0  0  0  0  0  0  0  0  0  0  0  0
   -0.2952    3.4221    0.8740 H   0  0  0  0  0  0  0  0  0  0  0  0
   -0.0002    1.4158    0.0074 C   0  0  0  0  0  0  0  0  0  0  0  0
   -1.2058    0.6928   -0.0238 C   0  0  0  0  0  0  0  0  0  0  0  0
   -2.0702    1.1840   -0.0648 H   0  0  0  0  0  0  0  0  0  0  0  0
   -1.2129   -0.7059    0.0000 C   0  0  0  0  0  0  0  0  0  0  0  0
   -2.0874   -1.1941    0.0184 H   0  0  0  0  0  0  0  0  0  0  0  0
   -0.0103   -1.3927    0.0000 C   0  0  0  0  0  0  0  0  0  0  0  0
   -0.0084   -2.3968   -0.0003 H   0  0  0  0  0  0  0  0  0  0  0  0
    1.2129   -0.7040   -0.0000 C   0  0  0  0  0  0  0  0  0  0  0  0
    2.0820   -1.2096   -0.0107 H   0  0  0  0  0  0  0  0  0  0  0  0
    1.2162    0.6939    0.0164 C   0  0  0  0  0  0  0  0  0  0  0  0
    2.0759    1.1908    0.0342 H   0  0  0  0  0  0  0  0  0  0  0  0
  1  5  1  0
  5  8  1  0
  1  2  1  0
  1  3  1  0
  1  4  1  0
  5  6  1  0
  5  7  1  0
  8  9  1  0
  8 10  1  0
  8 11  1  0
 12 16  1  0
 16 17  2  0
 17 19  1  0
 19 21  2  0
 21 23  1  0
 23 25  2  0
 25 16  1  0
 12 13  1  0
 12 14  1  0
 12 15  1  0
 17 18  1  0
 19 20  1  0
 21 22  1  0
 23 24  1  0
 25 26  1  0
M  CHG  1   8   1
M  END
>  <PDB_ID>  (2991) 
pdb6eus

>  <RESIDUE_NAME>  (2991) 
LYS   PHE

>  <FRAG_NAME>  (2991) 
ETAM   MBZ

>  <FRAG_ATOM_NUM>  (2991) 
fragi: 11  fragj: 15

>  <atom.prop.CHAIN_ID>  (2991) 
A A A A A A A A A A A Z Z Z Z Z Z Z Z Z Z Z Z Z Z Z

>  <atom.prop.IS_HEAVY_ATOM>  (2991) 
1 0 0 0 1 0 0 1 0 0 0 1 0 0 0 1 1 0 1 0 1 0 1 0 1 0

>  <DIFUSE_FUNC_ATOM>  (2991) 
n/a

>  <FINAL_SINGLE_POINT_ENERGY>  (2991) 
0

>  <NONCOV_INTER_ENERGY_QM>  (2991) 
0

>  <FF_Energy>  (2991) 
-6.45

>  <QM_Energy>  (2991) 
-12.15

>  <source>  (2991) 
ETAM_MBZ

>  <Index>  (2991) 
32474

$$$$
ETAM-pdb6eus-D-LYS-402:MBZ-pdb6eus-D-PHE-76
     RDKit          3D

 26 25  0  0  0  0  0  0  0  0999 V2000
    0.7599    1.8070   -3.8250 C   0  0  0  0  0  0  0  0  0  0  0  0
    1.2238    2.0549   -4.6634 H   0  0  0  0  0  0  0  0  0  0  0  0
    1.3387    1.9610   -3.0371 H   0  0  0  0  0  0  0  0  0  0  0  0
   -0.1419    2.4115   -3.7276 H   0  0  0  0  0  0  0  0  0  0  0  0
    0.3769    0.3686   -3.8809 C   0  0  0  0  0  0  0  0  0  0  0  0
   -0.2987    0.1755   -3.1559 H   0  0  0  0  0  0  0  0  0  0  0  0
   -0.0570    0.1733   -4.7711 H   0  0  0  0  0  0  0  0  0  0  0  0
    1.5363   -0.5057   -3.7069 N   0  0  0  0  0  4  0  0  0  0  0  0
    2.2076   -0.3366   -4.4338 H   0  0  0  0  0  0  0  0  0  0  0  0
    1.9688   -0.3316   -2.8180 H   0  0  0  0  0  0  0  0  0  0  0  0
    1.2514   -1.4672   -3.7462 H   0  0  0  0  0  0  0  0  0  0  0  0
    0.0284    2.9263   -0.0630 C   0  0  0  0  0  0  0  0  0  0  0  0
   -0.5978    3.2161   -0.7717 H   0  0  0  0  0  0  0  0  0  0  0  0
    0.9539    3.2132   -0.2625 H   0  0  0  0  0  0  0  0  0  0  0  0
   -0.2735    3.4237    0.8587 H   0  0  0  0  0  0  0  0  0  0  0  0
    0.0076    1.4110   -0.0080 C   0  0  0  0  0  0  0  0  0  0  0  0
   -1.2048    0.6887   -0.0157 C   0  0  0  0  0  0  0  0  0  0  0  0
   -2.0660    1.1871   -0.0342 H   0  0  0  0  0  0  0  0  0  0  0  0
   -1.2154   -0.7029    0.0000 C   0  0  0  0  0  0  0  0  0  0  0  0
   -2.0939   -1.1900   -0.0120 H   0  0  0  0  0  0  0  0  0  0  0  0
   -0.0226   -1.3853    0.0335 C   0  0  0  0  0  0  0  0  0  0  0  0
   -0.0127   -2.3893    0.0823 H   0  0  0  0  0  0  0  0  0  0  0  0
    1.2154   -0.6971   -0.0000 C   0  0  0  0  0  0  0  0  0  0  0  0
    2.0742   -1.2167   -0.0153 H   0  0  0  0  0  0  0  0  0  0  0  0
    1.2198    0.6856   -0.0098 C   0  0  0  0  0  0  0  0  0  0  0  0
    2.0815    1.1879   -0.0192 H   0  0  0  0  0  0  0  0  0  0  0  0
  1  5  1  0
  5  8  1  0
  1  2  1  0
  1  3  1  0
  1  4  1  0
  5  6  1  0
  5  7  1  0
  8  9  1  0
  8 10  1  0
  8 11  1  0
 12 16  1  0
 16 17  2  0
 17 19  1  0
 19 21  2  0
 21 23  1  0
 23 25  2  0
 25 16  1  0
 12 13  1  0
 12 14  1  0
 12 15  1  0
 17 18  1  0
 19 20  1  0
 21 22  1  0
 23 24  1  0
 25 26  1  0
M  CHG  1   8   1
M  END
>  <PDB_ID>  (2992) 
pdb6eus

>  <RESIDUE_NAME>  (2992) 
LYS   PHE

>  <FRAG_NAME>  (2992) 
ETAM   MBZ

>  <FRAG_ATOM_NUM>  (2992) 
fragi: 11  fragj: 15

>  <atom.prop.CHAIN_ID>  (2992) 
A A A A A A A A A A A Z Z Z Z Z Z Z Z Z Z Z Z Z Z Z

>  <atom.prop.IS_HEAVY_ATOM>  (2992) 
1 0 0 0 1 0 0 1 0 0 0 1 0 0 0 1 1 0 1 0 1 0 1 0 1 0

>  <DIFUSE_FUNC_ATOM>  (2992) 
n/a

>  <FINAL_SINGLE_POINT_ENERGY>  (2992) 
0

>  <NONCOV_INTER_ENERGY_QM>  (2992) 
0

>  <FF_Energy>  (2992) 
-6.53

>  <QM_Energy>  (2992) 
-12.09

>  <source>  (2992) 
ETAM_MBZ

>  <Index>  (2992) 
32476

$$$$
ETAM-pdb6eus-E-LYS-402:MBZ-pdb6eus-E-PHE-76
     RDKit          3D

 26 25  0  0  0  0  0  0  0  0999 V2000
    0.7995    1.7887   -3.8056 C   0  0  0  0  0  0  0  0  0  0  0  0
    1.2617    2.0344   -4.6448 H   0  0  0  0  0  0  0  0  0  0  0  0
    1.3779    1.9412   -3.0186 H   0  0  0  0  0  0  0  0  0  0  0  0
   -0.1008    2.3952   -3.7073 H   0  0  0  0  0  0  0  0  0  0  0  0
    0.4128    0.3445   -3.8604 C   0  0  0  0  0  0  0  0  0  0  0  0
   -0.2296    0.1434   -3.1280 H   0  0  0  0  0  0  0  0  0  0  0  0
    0.0015    0.1426   -4.7436 H   0  0  0  0  0  0  0  0  0  0  0  0
    1.6264   -0.4789   -3.6863 N   0  0  0  0  0  4  0  0  0  0  0  0
    2.4355    0.0576   -3.9321 H   0  0  0  0  0  0  0  0  0  0  0  0
    1.7012   -0.7718   -2.7313 H   0  0  0  0  0  0  0  0  0  0  0  0
    1.5736   -1.2862   -4.2762 H   0  0  0  0  0  0  0  0  0  0  0  0
    0.0462    2.9255   -0.0436 C   0  0  0  0  0  0  0  0  0  0  0  0
   -0.5626    3.2174   -0.7720 H   0  0  0  0  0  0  0  0  0  0  0  0
    0.9806    3.1984   -0.2390 H   0  0  0  0  0  0  0  0  0  0  0  0
   -0.2628    3.4345    0.8694 H   0  0  0  0  0  0  0  0  0  0  0  0
    0.0097    1.4094    0.0098 C   0  0  0  0  0  0  0  0  0  0  0  0
   -1.1880    0.7062   -0.0229 C   0  0  0  0  0  0  0  0  0  0  0  0
   -2.0540    1.1998   -0.0652 H   0  0  0  0  0  0  0  0  0  0  0  0
   -1.2083   -0.6923   -0.0000 C   0  0  0  0  0  0  0  0  0  0  0  0
   -2.1005   -1.1647    0.0145 H   0  0  0  0  0  0  0  0  0  0  0  0
   -0.0355   -1.3930    0.0047 C   0  0  0  0  0  0  0  0  0  0  0  0
   -0.0400   -2.3985    0.0112 H   0  0  0  0  0  0  0  0  0  0  0  0
    1.2083   -0.7233    0.0000 C   0  0  0  0  0  0  0  0  0  0  0  0
    2.0645   -1.2276   -0.0078 H   0  0  0  0  0  0  0  0  0  0  0  0
    1.2138    0.6930    0.0084 C   0  0  0  0  0  0  0  0  0  0  0  0
    2.0806    1.1754    0.0123 H   0  0  0  0  0  0  0  0  0  0  0  0
  1  5  1  0
  5  8  1  0
  1  2  1  0
  1  3  1  0
  1  4  1  0
  5  6  1  0
  5  7  1  0
  8  9  1  0
  8 10  1  0
  8 11  1  0
 12 16  1  0
 16 17  2  0
 17 19  1  0
 19 21  2  0
 21 23  1  0
 23 25  2  0
 25 16  1  0
 12 13  1  0
 12 14  1  0
 12 15  1  0
 17 18  1  0
 19 20  1  0
 21 22  1  0
 23 24  1  0
 25 26  1  0
M  CHG  1   8   1
M  END
>  <PDB_ID>  (2993) 
pdb6eus

>  <RESIDUE_NAME>  (2993) 
LYS   PHE

>  <FRAG_NAME>  (2993) 
ETAM   MBZ

>  <FRAG_ATOM_NUM>  (2993) 
fragi: 11  fragj: 15

>  <atom.prop.CHAIN_ID>  (2993) 
A A A A A A A A A A A Z Z Z Z Z Z Z Z Z Z Z Z Z Z Z

>  <atom.prop.IS_HEAVY_ATOM>  (2993) 
1 0 0 0 1 0 0 1 0 0 0 1 0 0 0 1 1 0 1 0 1 0 1 0 1 0

>  <DIFUSE_FUNC_ATOM>  (2993) 
n/a

>  <FINAL_SINGLE_POINT_ENERGY>  (2993) 
0

>  <NONCOV_INTER_ENERGY_QM>  (2993) 
0

>  <FF_Energy>  (2993) 
-6.59

>  <QM_Energy>  (2993) 
-12.63

>  <source>  (2993) 
ETAM_MBZ

>  <Index>  (2993) 
32477

$$$$
ETAM-pdb6ewj-B-LYS-212:MBZ-pdb6ewj-B-PHE-142
     RDKit          3D

 26 25  0  0  0  0  0  0  0  0999 V2000
    0.8135   -5.1967    3.3293 C   0  0  0  0  0  0  0  0  0  0  0  0
    1.4611   -5.0859    4.0825 H   0  0  0  0  0  0  0  0  0  0  0  0
    1.3106   -5.2534    2.4647 H   0  0  0  0  0  0  0  0  0  0  0  0
    0.2630   -6.1258    3.4775 H   0  0  0  0  0  0  0  0  0  0  0  0
   -0.0983   -4.0049    3.2900 C   0  0  0  0  0  0  0  0  0  0  0  0
   -0.8183   -4.1579    2.6281 H   0  0  0  0  0  0  0  0  0  0  0  0
   -0.4714   -3.8412    4.1925 H   0  0  0  0  0  0  0  0  0  0  0  0
    0.7082   -2.8298    2.8736 N   0  0  0  0  0  4  0  0  0  0  0  0
    0.4005   -2.5165    1.9753 H   0  0  0  0  0  0  0  0  0  0  0  0
    0.5940   -2.0938    3.5405 H   0  0  0  0  0  0  0  0  0  0  0  0
    1.6728   -3.0880    2.8241 H   0  0  0  0  0  0  0  0  0  0  0  0
    0.0004    2.9167   -0.0497 C   0  0  0  0  0  0  0  0  0  0  0  0
    0.9182    3.2276    0.1225 H   0  0  0  0  0  0  0  0  0  0  0  0
   -0.6331    3.2343    0.6327 H   0  0  0  0  0  0  0  0  0  0  0  0
   -0.3147    3.3222   -1.0112 H   0  0  0  0  0  0  0  0  0  0  0  0
    0.0029    1.4106   -0.0207 C   0  0  0  0  0  0  0  0  0  0  0  0
   -1.1865    0.7070    0.0209 C   0  0  0  0  0  0  0  0  0  0  0  0
   -2.0571    1.1842    0.0650 H   0  0  0  0  0  0  0  0  0  0  0  0
   -1.1954   -0.7084    0.0000 C   0  0  0  0  0  0  0  0  0  0  0  0
   -2.0830   -1.1812   -0.0335 H   0  0  0  0  0  0  0  0  0  0  0  0
   -0.0132   -1.4052    0.0270 C   0  0  0  0  0  0  0  0  0  0  0  0
   -0.0048   -2.3986    0.0641 H   0  0  0  0  0  0  0  0  0  0  0  0
    1.1954   -0.6976   -0.0000 C   0  0  0  0  0  0  0  0  0  0  0  0
    2.0749   -1.2009    0.0017 H   0  0  0  0  0  0  0  0  0  0  0  0
    1.1968    0.6936   -0.0272 C   0  0  0  0  0  0  0  0  0  0  0  0
    2.0674    1.1863   -0.0529 H   0  0  0  0  0  0  0  0  0  0  0  0
  1  5  1  0
  5  8  1  0
  1  2  1  0
  1  3  1  0
  1  4  1  0
  5  6  1  0
  5  7  1  0
  8  9  1  0
  8 10  1  0
  8 11  1  0
 12 16  1  0
 16 17  2  0
 17 19  1  0
 19 21  2  0
 21 23  1  0
 23 25  2  0
 25 16  1  0
 12 13  1  0
 12 14  1  0
 12 15  1  0
 17 18  1  0
 19 20  1  0
 21 22  1  0
 23 24  1  0
 25 26  1  0
M  CHG  1   8   1
M  END
>  <PDB_ID>  (2994) 
pdb6ewj

>  <RESIDUE_NAME>  (2994) 
LYS   PHE

>  <FRAG_NAME>  (2994) 
ETAM   MBZ

>  <FRAG_ATOM_NUM>  (2994) 
fragi: 11  fragj: 15

>  <atom.prop.CHAIN_ID>  (2994) 
A A A A A A A A A A A Z Z Z Z Z Z Z Z Z Z Z Z Z Z Z

>  <atom.prop.IS_HEAVY_ATOM>  (2994) 
1 0 0 0 1 0 0 1 0 0 0 1 0 0 0 1 1 0 1 0 1 0 1 0 1 0

>  <DIFUSE_FUNC_ATOM>  (2994) 
n/a

>  <FINAL_SINGLE_POINT_ENERGY>  (2994) 
0

>  <NONCOV_INTER_ENERGY_QM>  (2994) 
0

>  <FF_Energy>  (2994) 
-2.68

>  <QM_Energy>  (2994) 
-9.99

>  <source>  (2994) 
ETAM_MBZ

>  <Index>  (2994) 
32485

$$$$
ETAM-pdb6euo-A-LYS-229:MBZ-pdb6euo-A-PHE-369
     RDKit          3D

 26 25  0  0  0  0  0  0  0  0999 V2000
   -2.2702   -3.8179   -4.8711 C   0  0  0  0  0  0  0  0  0  0  0  0
   -1.6246   -3.1493   -5.2641 H   0  0  0  0  0  0  0  0  0  0  0  0
   -3.2019   -3.4395   -4.9503 H   0  0  0  0  0  0  0  0  0  0  0  0
   -2.2216   -4.7266   -5.4710 H   0  0  0  0  0  0  0  0  0  0  0  0
   -1.9441   -3.9920   -3.3900 C   0  0  0  0  0  0  0  0  0  0  0  0
   -2.0906   -4.9537   -3.1353 H   0  0  0  0  0  0  0  0  0  0  0  0
   -0.9757   -3.7658   -3.2411 H   0  0  0  0  0  0  0  0  0  0  0  0
   -2.7864   -3.1217   -2.5056 N   0  0  0  0  0  4  0  0  0  0  0  0
   -3.2293   -3.6905   -1.8161 H   0  0  0  0  0  0  0  0  0  0  0  0
   -2.2025   -2.4450   -2.0633 H   0  0  0  0  0  0  0  0  0  0  0  0
   -3.4759   -2.6623   -3.0619 H   0  0  0  0  0  0  0  0  0  0  0  0
    0.0001    2.9149    0.0543 C   0  0  0  0  0  0  0  0  0  0  0  0
    0.8642    3.2074    0.4456 H   0  0  0  0  0  0  0  0  0  0  0  0
   -0.7593    3.2037    0.6237 H   0  0  0  0  0  0  0  0  0  0  0  0
   -0.1068    3.4116   -0.9101 H   0  0  0  0  0  0  0  0  0  0  0  0
   -0.0031    1.4082    0.0025 C   0  0  0  0  0  0  0  0  0  0  0  0
   -1.1983    0.6990    0.0154 C   0  0  0  0  0  0  0  0  0  0  0  0
   -2.0659    1.1810    0.0343 H   0  0  0  0  0  0  0  0  0  0  0  0
   -1.1950   -0.7002    0.0000 C   0  0  0  0  0  0  0  0  0  0  0  0
   -2.0719   -1.1931    0.0038 H   0  0  0  0  0  0  0  0  0  0  0  0
    0.0062   -1.3922   -0.0178 C   0  0  0  0  0  0  0  0  0  0  0  0
   -0.0033   -2.3954   -0.0443 H   0  0  0  0  0  0  0  0  0  0  0  0
    1.1950   -0.7052    0.0000 C   0  0  0  0  0  0  0  0  0  0  0  0
    2.0821   -1.1984    0.0146 H   0  0  0  0  0  0  0  0  0  0  0  0
    1.1952    0.6905   -0.0000 C   0  0  0  0  0  0  0  0  0  0  0  0
    2.0639    1.1830   -0.0025 H   0  0  0  0  0  0  0  0  0  0  0  0
  1  5  1  0
  5  8  1  0
  1  2  1  0
  1  3  1  0
  1  4  1  0
  5  6  1  0
  5  7  1  0
  8  9  1  0
  8 10  1  0
  8 11  1  0
 12 16  1  0
 16 17  2  0
 17 19  1  0
 19 21  2  0
 21 23  1  0
 23 25  2  0
 25 16  1  0
 12 13  1  0
 12 14  1  0
 12 15  1  0
 17 18  1  0
 19 20  1  0
 21 22  1  0
 23 24  1  0
 25 26  1  0
M  CHG  1   8   1
M  END
>  <PDB_ID>  (2995) 
pdb6euo

>  <RESIDUE_NAME>  (2995) 
LYS   PHE

>  <FRAG_NAME>  (2995) 
ETAM   MBZ

>  <FRAG_ATOM_NUM>  (2995) 
fragi: 11  fragj: 15

>  <atom.prop.CHAIN_ID>  (2995) 
A A A A A A A A A A A Z Z Z Z Z Z Z Z Z Z Z Z Z Z Z

>  <atom.prop.IS_HEAVY_ATOM>  (2995) 
1 0 0 0 1 0 0 1 0 0 0 1 0 0 0 1 1 0 1 0 1 0 1 0 1 0

>  <DIFUSE_FUNC_ATOM>  (2995) 
n/a

>  <FINAL_SINGLE_POINT_ENERGY>  (2995) 
0

>  <NONCOV_INTER_ENERGY_QM>  (2995) 
0

>  <FF_Energy>  (2995) 
-0.79

>  <QM_Energy>  (2995) 
-5.94

>  <source>  (2995) 
ETAM_MBZ

>  <Index>  (2995) 
32494

$$$$
ETAM-pdb6ewj-A-LYS-212:MBZ-pdb6ewj-A-PHE-142
     RDKit          3D

 26 25  0  0  0  0  0  0  0  0999 V2000
    0.8009   -5.2270    3.2142 C   0  0  0  0  0  0  0  0  0  0  0  0
    1.4523   -5.1339    3.9620 H   0  0  0  0  0  0  0  0  0  0  0  0
    1.2811   -5.2599    2.3430 H   0  0  0  0  0  0  0  0  0  0  0  0
    0.2558   -6.1617    3.3455 H   0  0  0  0  0  0  0  0  0  0  0  0
   -0.1256   -4.0312    3.2184 C   0  0  0  0  0  0  0  0  0  0  0  0
   -0.8437   -4.1709    2.5539 H   0  0  0  0  0  0  0  0  0  0  0  0
   -0.4955   -3.9066    4.1267 H   0  0  0  0  0  0  0  0  0  0  0  0
    0.6718   -2.8375    2.8416 N   0  0  0  0  0  4  0  0  0  0  0  0
    0.4379   -2.0760    3.4470 H   0  0  0  0  0  0  0  0  0  0  0  0
    1.6459   -3.0462    2.9288 H   0  0  0  0  0  0  0  0  0  0  0  0
    0.4684   -2.5862    1.8954 H   0  0  0  0  0  0  0  0  0  0  0  0
   -0.0127    2.9234    0.0044 C   0  0  0  0  0  0  0  0  0  0  0  0
    0.9031    3.2378    0.1738 H   0  0  0  0  0  0  0  0  0  0  0  0
   -0.6442    3.2256    0.6947 H   0  0  0  0  0  0  0  0  0  0  0  0
   -0.3362    3.3442   -0.9476 H   0  0  0  0  0  0  0  0  0  0  0  0
    0.0023    1.4088    0.0127 C   0  0  0  0  0  0  0  0  0  0  0  0
   -1.1935    0.6950    0.0306 C   0  0  0  0  0  0  0  0  0  0  0  0
   -2.0615    1.1813    0.0643 H   0  0  0  0  0  0  0  0  0  0  0  0
   -1.1979   -0.7012   -0.0000 C   0  0  0  0  0  0  0  0  0  0  0  0
   -2.0808   -1.1888   -0.0047 H   0  0  0  0  0  0  0  0  0  0  0  0
   -0.0066   -1.3993   -0.0217 C   0  0  0  0  0  0  0  0  0  0  0  0
   -0.0056   -2.3953   -0.0527 H   0  0  0  0  0  0  0  0  0  0  0  0
    1.1979   -0.6978    0.0000 C   0  0  0  0  0  0  0  0  0  0  0  0
    2.0777   -1.1977    0.0333 H   0  0  0  0  0  0  0  0  0  0  0  0
    1.1979    0.6945   -0.0216 C   0  0  0  0  0  0  0  0  0  0  0  0
    2.0666    1.1874   -0.0632 H   0  0  0  0  0  0  0  0  0  0  0  0
  1  5  1  0
  5  8  1  0
  1  2  1  0
  1  3  1  0
  1  4  1  0
  5  6  1  0
  5  7  1  0
  8  9  1  0
  8 10  1  0
  8 11  1  0
 12 16  1  0
 16 17  2  0
 17 19  1  0
 19 21  2  0
 21 23  1  0
 23 25  2  0
 25 16  1  0
 12 13  1  0
 12 14  1  0
 12 15  1  0
 17 18  1  0
 19 20  1  0
 21 22  1  0
 23 24  1  0
 25 26  1  0
M  CHG  1   8   1
M  END
>  <PDB_ID>  (2996) 
pdb6ewj

>  <RESIDUE_NAME>  (2996) 
LYS   PHE

>  <FRAG_NAME>  (2996) 
ETAM   MBZ

>  <FRAG_ATOM_NUM>  (2996) 
fragi: 11  fragj: 15

>  <atom.prop.CHAIN_ID>  (2996) 
A A A A A A A A A A A Z Z Z Z Z Z Z Z Z Z Z Z Z Z Z

>  <atom.prop.IS_HEAVY_ATOM>  (2996) 
1 0 0 0 1 0 0 1 0 0 0 1 0 0 0 1 1 0 1 0 1 0 1 0 1 0

>  <DIFUSE_FUNC_ATOM>  (2996) 
n/a

>  <FINAL_SINGLE_POINT_ENERGY>  (2996) 
0

>  <NONCOV_INTER_ENERGY_QM>  (2996) 
0

>  <FF_Energy>  (2996) 
-2.93

>  <QM_Energy>  (2996) 
-10.31

>  <source>  (2996) 
ETAM_MBZ

>  <Index>  (2996) 
32511

$$$$
ETAM-pdb6exj-A-LYS-650:MBZ-pdb6exj-A-PHE-656
     RDKit          3D

 26 25  0  0  0  0  0  0  0  0999 V2000
    0.0198   -0.3681    3.3789 C   0  0  0  0  0  0  0  0  0  0  0  0
   -0.0095    0.3114    4.0712 H   0  0  0  0  0  0  0  0  0  0  0  0
    0.0627    0.0534    2.5055 H   0  0  0  0  0  0  0  0  0  0  0  0
    0.9137   -0.9757    3.5202 H   0  0  0  0  0  0  0  0  0  0  0  0
   -1.2628   -1.1567    3.4489 C   0  0  0  0  0  0  0  0  0  0  0  0
   -1.9918   -0.6202    3.1017 H   0  0  0  0  0  0  0  0  0  0  0  0
   -1.1684   -1.9759    2.9380 H   0  0  0  0  0  0  0  0  0  0  0  0
   -1.5660   -1.5096    4.8498 N   0  0  0  0  0  4  0  0  0  0  0  0
   -2.3230   -1.9754    4.8878 H   0  0  0  0  0  0  0  0  0  0  0  0
   -0.9065   -2.0012    5.1881 H   0  0  0  0  0  0  0  0  0  0  0  0
   -1.6551   -0.7708    5.3367 H   0  0  0  0  0  0  0  0  0  0  0  0
    0.0077    2.8895    0.0589 C   0  0  0  0  0  0  0  0  0  0  0  0
   -0.8854    3.1992   -0.1595 H   0  0  0  0  0  0  0  0  0  0  0  0
    0.6365    3.2005   -0.6103 H   0  0  0  0  0  0  0  0  0  0  0  0
    0.2943    3.3001    1.0271 H   0  0  0  0  0  0  0  0  0  0  0  0
   -0.0037    1.3955    0.0152 C   0  0  0  0  0  0  0  0  0  0  0  0
   -1.2057    0.6958    0.0051 C   0  0  0  0  0  0  0  0  0  0  0  0
   -2.0122    1.1584    0.0164 H   0  0  0  0  0  0  0  0  0  0  0  0
   -1.2046   -0.7044   -0.0000 C   0  0  0  0  0  0  0  0  0  0  0  0
   -2.0060   -1.1755   -0.0222 H   0  0  0  0  0  0  0  0  0  0  0  0
    0.0042   -1.3738   -0.0346 C   0  0  0  0  0  0  0  0  0  0  0  0
    0.0110   -2.3031   -0.0388 H   0  0  0  0  0  0  0  0  0  0  0  0
    1.2046   -0.6866    0.0000 C   0  0  0  0  0  0  0  0  0  0  0  0
    2.0093   -1.1525   -0.0130 H   0  0  0  0  0  0  0  0  0  0  0  0
    1.2052    0.6735    0.0143 C   0  0  0  0  0  0  0  0  0  0  0  0
    2.0148    1.1326    0.0251 H   0  0  0  0  0  0  0  0  0  0  0  0
  1  5  1  0
  5  8  1  0
  1  2  1  0
  1  3  1  0
  1  4  1  0
  5  6  1  0
  5  7  1  0
  8  9  1  0
  8 10  1  0
  8 11  1  0
 12 16  1  0
 16 17  2  0
 17 19  1  0
 19 21  2  0
 21 23  1  0
 23 25  2  0
 25 16  1  0
 12 13  1  0
 12 14  1  0
 12 15  1  0
 17 18  1  0
 19 20  1  0
 21 22  1  0
 23 24  1  0
 25 26  1  0
M  CHG  1   8   1
M  END
>  <PDB_ID>  (2997) 
pdb6exj

>  <RESIDUE_NAME>  (2997) 
LYS   PHE

>  <FRAG_NAME>  (2997) 
ETAM   MBZ

>  <FRAG_ATOM_NUM>  (2997) 
fragi: 11  fragj: 15

>  <atom.prop.CHAIN_ID>  (2997) 
A A A A A A A A A A A Z Z Z Z Z Z Z Z Z Z Z Z Z Z Z

>  <atom.prop.IS_HEAVY_ATOM>  (2997) 
1 0 0 0 1 0 0 1 0 0 0 1 0 0 0 1 1 0 1 0 1 0 1 0 1 0

>  <DIFUSE_FUNC_ATOM>  (2997) 
n/a

>  <FINAL_SINGLE_POINT_ENERGY>  (2997) 
0

>  <NONCOV_INTER_ENERGY_QM>  (2997) 
0

>  <FF_Energy>  (2997) 
-3.79

>  <QM_Energy>  (2997) 
-9.01

>  <source>  (2997) 
ETAM_MBZ

>  <Index>  (2997) 
32512

$$$$
ETAM-pdb5eu6-D-LYS-102:MBZ-pdb5eu6-E-PHE-46
     RDKit          3D

 26 25  0  0  0  0  0  0  0  0999 V2000
    1.5086    1.8061   -3.8016 C   0  0  0  0  0  0  0  0  0  0  0  0
    2.3192    2.3421   -4.0731 H   0  0  0  0  0  0  0  0  0  0  0  0
    1.2733    2.0540   -2.8520 H   0  0  0  0  0  0  0  0  0  0  0  0
    0.6807    2.1179   -4.4382 H   0  0  0  0  0  0  0  0  0  0  0  0
    1.8628    0.3235   -3.8474 C   0  0  0  0  0  0  0  0  0  0  0  0
    1.0881   -0.2095   -3.4597 H   0  0  0  0  0  0  0  0  0  0  0  0
    1.9562    0.0387   -4.8193 H   0  0  0  0  0  0  0  0  0  0  0  0
    3.1223   -0.0678   -3.1154 N   0  0  0  0  0  4  0  0  0  0  0  0
    3.0125    0.1478   -2.1492 H   0  0  0  0  0  0  0  0  0  0  0  0
    3.2720   -1.0456   -3.2332 H   0  0  0  0  0  0  0  0  0  0  0  0
    3.8876    0.4443   -3.4964 H   0  0  0  0  0  0  0  0  0  0  0  0
   -0.0273    2.9315    0.0506 C   0  0  0  0  0  0  0  0  0  0  0  0
   -0.7912    3.2334   -0.4942 H   0  0  0  0  0  0  0  0  0  0  0  0
    0.8322    3.2399   -0.3189 H   0  0  0  0  0  0  0  0  0  0  0  0
   -0.1366    3.3537    1.0495 H   0  0  0  0  0  0  0  0  0  0  0  0
   -0.0182    1.4050    0.0240 C   0  0  0  0  0  0  0  0  0  0  0  0
   -1.2055    0.6897   -0.0262 C   0  0  0  0  0  0  0  0  0  0  0  0
   -2.0785    1.1565   -0.0826 H   0  0  0  0  0  0  0  0  0  0  0  0
   -1.2029   -0.7353    0.0000 C   0  0  0  0  0  0  0  0  0  0  0  0
   -2.0596   -1.2262    0.0219 H   0  0  0  0  0  0  0  0  0  0  0  0
    0.0310   -1.4024   -0.0042 C   0  0  0  0  0  0  0  0  0  0  0  0
    0.0488   -2.3983   -0.0104 H   0  0  0  0  0  0  0  0  0  0  0  0
    1.2029   -0.6696   -0.0000 C   0  0  0  0  0  0  0  0  0  0  0  0
    2.1053   -1.1584   -0.0005 H   0  0  0  0  0  0  0  0  0  0  0  0
    1.1928    0.7128    0.0064 C   0  0  0  0  0  0  0  0  0  0  0  0
    2.0500    1.2211   -0.0029 H   0  0  0  0  0  0  0  0  0  0  0  0
  1  5  1  0
  5  8  1  0
  1  2  1  0
  1  3  1  0
  1  4  1  0
  5  6  1  0
  5  7  1  0
  8  9  1  0
  8 10  1  0
  8 11  1  0
 12 16  1  0
 16 17  2  0
 17 19  1  0
 19 21  2  0
 21 23  1  0
 23 25  2  0
 25 16  1  0
 12 13  1  0
 12 14  1  0
 12 15  1  0
 17 18  1  0
 19 20  1  0
 21 22  1  0
 23 24  1  0
 25 26  1  0
M  CHG  1   8   1
M  END
>  <PDB_ID>  (2998) 
pdb5eu6

>  <RESIDUE_NAME>  (2998) 
LYS   PHE

>  <FRAG_NAME>  (2998) 
ETAM   MBZ

>  <FRAG_ATOM_NUM>  (2998) 
fragi: 11  fragj: 15

>  <atom.prop.CHAIN_ID>  (2998) 
A A A A A A A A A A A Z Z Z Z Z Z Z Z Z Z Z Z Z Z Z

>  <atom.prop.IS_HEAVY_ATOM>  (2998) 
1 0 0 0 1 0 0 1 0 0 0 1 0 0 0 1 1 0 1 0 1 0 1 0 1 0

>  <DIFUSE_FUNC_ATOM>  (2998) 
n/a

>  <FINAL_SINGLE_POINT_ENERGY>  (2998) 
0

>  <NONCOV_INTER_ENERGY_QM>  (2998) 
0

>  <FF_Energy>  (2998) 
-3.88

>  <QM_Energy>  (2998) 
-9.2

>  <source>  (2998) 
ETAM_MBZ

>  <Index>  (2998) 
32542

$$$$
ETAM-pdb5eu6-D-LYS-173:MBZ-pdb5eu6-D-PHE-143
     RDKit          3D

 26 25  0  0  0  0  0  0  0  0999 V2000
   -0.6000   -1.3964   -3.5704 C   0  0  0  0  0  0  0  0  0  0  0  0
    0.0652   -0.6681   -3.3862 H   0  0  0  0  0  0  0  0  0  0  0  0
   -1.4899   -1.1269   -3.1951 H   0  0  0  0  0  0  0  0  0  0  0  0
   -0.6976   -1.5136   -4.6497 H   0  0  0  0  0  0  0  0  0  0  0  0
   -0.1353   -2.6652   -2.8367 C   0  0  0  0  0  0  0  0  0  0  0  0
   -0.5492   -2.6711   -1.9101 H   0  0  0  0  0  0  0  0  0  0  0  0
   -0.4999   -3.4747   -3.3298 H   0  0  0  0  0  0  0  0  0  0  0  0
    1.3605   -2.8231   -2.6955 N   0  0  0  0  0  4  0  0  0  0  0  0
    1.5624   -3.1565   -1.7793 H   0  0  0  0  0  0  0  0  0  0  0  0
    1.6798   -3.4757   -3.3766 H   0  0  0  0  0  0  0  0  0  0  0  0
    1.7909   -1.9368   -2.8411 H   0  0  0  0  0  0  0  0  0  0  0  0
   -0.0102    2.9041   -0.1069 C   0  0  0  0  0  0  0  0  0  0  0  0
    0.8165    3.2500    0.2834 H   0  0  0  0  0  0  0  0  0  0  0  0
   -0.8153    3.2429    0.3319 H   0  0  0  0  0  0  0  0  0  0  0  0
   -0.0423    3.2132   -1.1516 H   0  0  0  0  0  0  0  0  0  0  0  0
   -0.0006    1.4121    0.0104 C   0  0  0  0  0  0  0  0  0  0  0  0
   -1.2113    0.6930   -0.0134 C   0  0  0  0  0  0  0  0  0  0  0  0
   -2.0721    1.1820   -0.0415 H   0  0  0  0  0  0  0  0  0  0  0  0
   -1.2130   -0.7074    0.0000 C   0  0  0  0  0  0  0  0  0  0  0  0
   -2.0816   -1.2039   -0.0150 H   0  0  0  0  0  0  0  0  0  0  0  0
    0.0038   -1.4006    0.0358 C   0  0  0  0  0  0  0  0  0  0  0  0
    0.0036   -2.3956    0.0861 H   0  0  0  0  0  0  0  0  0  0  0  0
    1.2130   -0.6966   -0.0000 C   0  0  0  0  0  0  0  0  0  0  0  0
    2.0912   -1.1947   -0.0007 H   0  0  0  0  0  0  0  0  0  0  0  0
    1.2081    0.6995   -0.0328 C   0  0  0  0  0  0  0  0  0  0  0  0
    2.0689    1.1967   -0.0881 H   0  0  0  0  0  0  0  0  0  0  0  0
  1  5  1  0
  5  8  1  0
  1  2  1  0
  1  3  1  0
  1  4  1  0
  5  6  1  0
  5  7  1  0
  8  9  1  0
  8 10  1  0
  8 11  1  0
 12 16  1  0
 16 17  2  0
 17 19  1  0
 19 21  2  0
 21 23  1  0
 23 25  2  0
 25 16  1  0
 12 13  1  0
 12 14  1  0
 12 15  1  0
 17 18  1  0
 19 20  1  0
 21 22  1  0
 23 24  1  0
 25 26  1  0
M  CHG  1   8   1
M  END
>  <PDB_ID>  (2999) 
pdb5eu6

>  <RESIDUE_NAME>  (2999) 
LYS   PHE

>  <FRAG_NAME>  (2999) 
ETAM   MBZ

>  <FRAG_ATOM_NUM>  (2999) 
fragi: 11  fragj: 15

>  <atom.prop.CHAIN_ID>  (2999) 
A A A A A A A A A A A Z Z Z Z Z Z Z Z Z Z Z Z Z Z Z

>  <atom.prop.IS_HEAVY_ATOM>  (2999) 
1 0 0 0 1 0 0 1 0 0 0 1 0 0 0 1 1 0 1 0 1 0 1 0 1 0

>  <DIFUSE_FUNC_ATOM>  (2999) 
n/a

>  <FINAL_SINGLE_POINT_ENERGY>  (2999) 
0

>  <NONCOV_INTER_ENERGY_QM>  (2999) 
0

>  <FF_Energy>  (2999) 
-0.16

>  <QM_Energy>  (2999) 
-8.66

>  <source>  (2999) 
ETAM_MBZ

>  <Index>  (2999) 
32544

$$$$
ETAM-pdb6ewj-C-LYS-212:MBZ-pdb6ewj-C-PHE-142
     RDKit          3D

 26 25  0  0  0  0  0  0  0  0999 V2000
    0.7800   -5.2308    3.2306 C   0  0  0  0  0  0  0  0  0  0  0  0
    1.4048   -5.1325    4.0007 H   0  0  0  0  0  0  0  0  0  0  0  0
    1.2926   -5.2613    2.3765 H   0  0  0  0  0  0  0  0  0  0  0  0
    0.2285   -6.1642    3.3434 H   0  0  0  0  0  0  0  0  0  0  0  0
   -0.1470   -4.0422    3.2002 C   0  0  0  0  0  0  0  0  0  0  0  0
   -0.8503   -4.1898    2.5209 H   0  0  0  0  0  0  0  0  0  0  0  0
   -0.5385   -3.9066    4.0980 H   0  0  0  0  0  0  0  0  0  0  0  0
    0.6563   -2.8519    2.8277 N   0  0  0  0  0  4  0  0  0  0  0  0
    0.0694   -2.0416    2.8235 H   0  0  0  0  0  0  0  0  0  0  0  0
    1.3945   -2.7257    3.4915 H   0  0  0  0  0  0  0  0  0  0  0  0
    1.0476   -2.9850    1.9161 H   0  0  0  0  0  0  0  0  0  0  0  0
   -0.0279    2.9125   -0.0099 C   0  0  0  0  0  0  0  0  0  0  0  0
    0.8804    3.2371    0.1864 H   0  0  0  0  0  0  0  0  0  0  0  0
   -0.6821    3.2129    0.6610 H   0  0  0  0  0  0  0  0  0  0  0  0
   -0.3266    3.3287   -0.9721 H   0  0  0  0  0  0  0  0  0  0  0  0
   -0.0003    1.4012    0.0054 C   0  0  0  0  0  0  0  0  0  0  0  0
   -1.1982    0.6703    0.0023 C   0  0  0  0  0  0  0  0  0  0  0  0
   -2.0674    1.1641    0.0004 H   0  0  0  0  0  0  0  0  0  0  0  0
   -1.1997   -0.7122   -0.0000 C   0  0  0  0  0  0  0  0  0  0  0  0
   -2.0717   -1.2116    0.0168 H   0  0  0  0  0  0  0  0  0  0  0  0
    0.0034   -1.3923   -0.0240 C   0  0  0  0  0  0  0  0  0  0  0  0
    0.0185   -2.3885   -0.0583 H   0  0  0  0  0  0  0  0  0  0  0  0
    1.1997   -0.6753    0.0000 C   0  0  0  0  0  0  0  0  0  0  0  0
    2.0863   -1.1749    0.0071 H   0  0  0  0  0  0  0  0  0  0  0  0
    1.1951    0.7083    0.0163 C   0  0  0  0  0  0  0  0  0  0  0  0
    2.0598    1.2077    0.0350 H   0  0  0  0  0  0  0  0  0  0  0  0
  1  5  1  0
  5  8  1  0
  1  2  1  0
  1  3  1  0
  1  4  1  0
  5  6  1  0
  5  7  1  0
  8  9  1  0
  8 10  1  0
  8 11  1  0
 12 16  1  0
 16 17  2  0
 17 19  1  0
 19 21  2  0
 21 23  1  0
 23 25  2  0
 25 16  1  0
 12 13  1  0
 12 14  1  0
 12 15  1  0
 17 18  1  0
 19 20  1  0
 21 22  1  0
 23 24  1  0
 25 26  1  0
M  CHG  1   8   1
M  END
>  <PDB_ID>  (3000) 
pdb6ewj

>  <RESIDUE_NAME>  (3000) 
LYS   PHE

>  <FRAG_NAME>  (3000) 
ETAM   MBZ

>  <FRAG_ATOM_NUM>  (3000) 
fragi: 11  fragj: 15

>  <atom.prop.CHAIN_ID>  (3000) 
A A A A A A A A A A A Z Z Z Z Z Z Z Z Z Z Z Z Z Z Z

>  <atom.prop.IS_HEAVY_ATOM>  (3000) 
1 0 0 0 1 0 0 1 0 0 0 1 0 0 0 1 1 0 1 0 1 0 1 0 1 0

>  <DIFUSE_FUNC_ATOM>  (3000) 
n/a

>  <FINAL_SINGLE_POINT_ENERGY>  (3000) 
0

>  <NONCOV_INTER_ENERGY_QM>  (3000) 
0

>  <FF_Energy>  (3000) 
-2.85

>  <QM_Energy>  (3000) 
-9.35

>  <source>  (3000) 
ETAM_MBZ

>  <Index>  (3000) 
32576

$$$$
ETAM-pdb6ewj-D-LYS-212:MBZ-pdb6ewj-D-PHE-142
     RDKit          3D

 26 25  0  0  0  0  0  0  0  0999 V2000
    0.7742   -5.2509    3.1757 C   0  0  0  0  0  0  0  0  0  0  0  0
    1.4291   -5.1557    3.9240 H   0  0  0  0  0  0  0  0  0  0  0  0
    1.2601   -5.2821    2.3047 H   0  0  0  0  0  0  0  0  0  0  0  0
    0.2274   -6.1848    3.3059 H   0  0  0  0  0  0  0  0  0  0  0  0
   -0.1446   -4.0556    3.1778 C   0  0  0  0  0  0  0  0  0  0  0  0
   -0.8561   -4.1878    2.5030 H   0  0  0  0  0  0  0  0  0  0  0  0
   -0.5291   -3.9390    4.0829 H   0  0  0  0  0  0  0  0  0  0  0  0
    0.6587   -2.8676    2.8245 N   0  0  0  0  0  4  0  0  0  0  0  0
    1.5388   -2.9024    3.2998 H   0  0  0  0  0  0  0  0  0  0  0  0
    0.8172   -2.8498    1.8356 H   0  0  0  0  0  0  0  0  0  0  0  0
    0.1696   -2.0372    3.0960 H   0  0  0  0  0  0  0  0  0  0  0  0
   -0.0044    2.9223    0.0254 C   0  0  0  0  0  0  0  0  0  0  0  0
    0.9141    3.2207    0.2184 H   0  0  0  0  0  0  0  0  0  0  0  0
   -0.6401    3.2126    0.7196 H   0  0  0  0  0  0  0  0  0  0  0  0
   -0.3117    3.3687   -0.9203 H   0  0  0  0  0  0  0  0  0  0  0  0
   -0.0028    1.4011    0.0075 C   0  0  0  0  0  0  0  0  0  0  0  0
   -1.1925    0.7014    0.0154 C   0  0  0  0  0  0  0  0  0  0  0  0
   -2.0621    1.1870    0.0312 H   0  0  0  0  0  0  0  0  0  0  0  0
   -1.1986   -0.6938   -0.0000 C   0  0  0  0  0  0  0  0  0  0  0  0
   -2.0778   -1.1843    0.0037 H   0  0  0  0  0  0  0  0  0  0  0  0
    0.0011   -1.3990   -0.0187 C   0  0  0  0  0  0  0  0  0  0  0  0
   -0.0047   -2.3927   -0.0456 H   0  0  0  0  0  0  0  0  0  0  0  0
    1.1986   -0.6967   -0.0000 C   0  0  0  0  0  0  0  0  0  0  0  0
    2.0822   -1.1963    0.0182 H   0  0  0  0  0  0  0  0  0  0  0  0
    1.1943    0.6872   -0.0042 C   0  0  0  0  0  0  0  0  0  0  0  0
    2.0620    1.1868   -0.0162 H   0  0  0  0  0  0  0  0  0  0  0  0
  1  5  1  0
  5  8  1  0
  1  2  1  0
  1  3  1  0
  1  4  1  0
  5  6  1  0
  5  7  1  0
  8  9  1  0
  8 10  1  0
  8 11  1  0
 12 16  1  0
 16 17  2  0
 17 19  1  0
 19 21  2  0
 21 23  1  0
 23 25  2  0
 25 16  1  0
 12 13  1  0
 12 14  1  0
 12 15  1  0
 17 18  1  0
 19 20  1  0
 21 22  1  0
 23 24  1  0
 25 26  1  0
M  CHG  1   8   1
M  END
>  <PDB_ID>  (3001) 
pdb6ewj

>  <RESIDUE_NAME>  (3001) 
LYS   PHE

>  <FRAG_NAME>  (3001) 
ETAM   MBZ

>  <FRAG_ATOM_NUM>  (3001) 
fragi: 11  fragj: 15

>  <atom.prop.CHAIN_ID>  (3001) 
A A A A A A A A A A A Z Z Z Z Z Z Z Z Z Z Z Z Z Z Z

>  <atom.prop.IS_HEAVY_ATOM>  (3001) 
1 0 0 0 1 0 0 1 0 0 0 1 0 0 0 1 1 0 1 0 1 0 1 0 1 0

>  <DIFUSE_FUNC_ATOM>  (3001) 
n/a

>  <FINAL_SINGLE_POINT_ENERGY>  (3001) 
0

>  <NONCOV_INTER_ENERGY_QM>  (3001) 
0

>  <FF_Energy>  (3001) 
-2.71

>  <QM_Energy>  (3001) 
-9.29

>  <source>  (3001) 
ETAM_MBZ

>  <Index>  (3001) 
32610

$$$$
ETAM-pdb6f72-A-LYS-45:MBZ-pdb6f72-A-PHE-142
     RDKit          3D

 26 25  0  0  0  0  0  0  0  0999 V2000
    6.6275   -0.4491    0.0176 C   0  0  0  0  0  0  0  0  0  0  0  0
    7.2362    0.1033   -0.5429 H   0  0  0  0  0  0  0  0  0  0  0  0
    6.6342   -1.3946   -0.2912 H   0  0  0  0  0  0  0  0  0  0  0  0
    6.9702   -0.4124    1.0516 H   0  0  0  0  0  0  0  0  0  0  0  0
    5.2030    0.0976   -0.1343 C   0  0  0  0  0  0  0  0  0  0  0  0
    4.7250   -0.0036    0.7525 H   0  0  0  0  0  0  0  0  0  0  0  0
    5.2597    1.0884   -0.3375 H   0  0  0  0  0  0  0  0  0  0  0  0
    4.3926   -0.5698   -1.2008 N   0  0  0  0  0  4  0  0  0  0  0  0
    4.5845   -0.1348   -2.0779 H   0  0  0  0  0  0  0  0  0  0  0  0
    4.6384   -1.5364   -1.2419 H   0  0  0  0  0  0  0  0  0  0  0  0
    3.4235   -0.4766   -0.9818 H   0  0  0  0  0  0  0  0  0  0  0  0
    0.0085    2.9101   -0.0021 C   0  0  0  0  0  0  0  0  0  0  0  0
    0.8351    3.2122    0.4472 H   0  0  0  0  0  0  0  0  0  0  0  0
   -0.7975    3.2196    0.4786 H   0  0  0  0  0  0  0  0  0  0  0  0
   -0.0089    3.3492   -0.9996 H   0  0  0  0  0  0  0  0  0  0  0  0
    0.0019    1.4020    0.0020 C   0  0  0  0  0  0  0  0  0  0  0  0
   -1.2012    0.6907   -0.0013 C   0  0  0  0  0  0  0  0  0  0  0  0
   -2.0645    1.1810   -0.0058 H   0  0  0  0  0  0  0  0  0  0  0  0
   -1.2008   -0.6993   -0.0000 C   0  0  0  0  0  0  0  0  0  0  0  0
   -2.0780   -1.1941    0.0030 H   0  0  0  0  0  0  0  0  0  0  0  0
   -0.0024   -1.3884   -0.0004 C   0  0  0  0  0  0  0  0  0  0  0  0
   -0.0023   -2.3899   -0.0019 H   0  0  0  0  0  0  0  0  0  0  0  0
    1.2008   -0.6939    0.0000 C   0  0  0  0  0  0  0  0  0  0  0  0
    2.0801   -1.1986    0.0023 H   0  0  0  0  0  0  0  0  0  0  0  0
    1.2018    0.6889   -0.0004 C   0  0  0  0  0  0  0  0  0  0  0  0
    2.0674    1.1882   -0.0029 H   0  0  0  0  0  0  0  0  0  0  0  0
  1  5  1  0
  5  8  1  0
  1  2  1  0
  1  3  1  0
  1  4  1  0
  5  6  1  0
  5  7  1  0
  8  9  1  0
  8 10  1  0
  8 11  1  0
 12 16  1  0
 16 17  2  0
 17 19  1  0
 19 21  2  0
 21 23  1  0
 23 25  2  0
 25 16  1  0
 12 13  1  0
 12 14  1  0
 12 15  1  0
 17 18  1  0
 19 20  1  0
 21 22  1  0
 23 24  1  0
 25 26  1  0
M  CHG  1   8   1
M  END
>  <PDB_ID>  (3002) 
pdb6f72

>  <RESIDUE_NAME>  (3002) 
LYS   PHE

>  <FRAG_NAME>  (3002) 
ETAM   MBZ

>  <FRAG_ATOM_NUM>  (3002) 
fragi: 11  fragj: 15

>  <atom.prop.CHAIN_ID>  (3002) 
A A A A A A A A A A A Z Z Z Z Z Z Z Z Z Z Z Z Z Z Z

>  <atom.prop.IS_HEAVY_ATOM>  (3002) 
1 0 0 0 1 0 0 1 0 0 0 1 0 0 0 1 1 0 1 0 1 0 1 0 1 0

>  <DIFUSE_FUNC_ATOM>  (3002) 
n/a

>  <FINAL_SINGLE_POINT_ENERGY>  (3002) 
0

>  <NONCOV_INTER_ENERGY_QM>  (3002) 
0

>  <FF_Energy>  (3002) 
0.71

>  <QM_Energy>  (3002) 
-5.32

>  <source>  (3002) 
ETAM_MBZ

>  <Index>  (3002) 
32612

$$$$
ETAM-pdb6f3n-A-LYS-405:MBZ-pdb6f3n-A-PHE-402
     RDKit          3D

 26 25  0  0  0  0  0  0  0  0999 V2000
   -1.5132   -0.5202    4.7331 C   0  0  0  0  0  0  0  0  0  0  0  0
   -2.3196   -1.0247    5.0330 H   0  0  0  0  0  0  0  0  0  0  0  0
   -1.7707    0.1592    4.0512 H   0  0  0  0  0  0  0  0  0  0  0  0
   -1.0792   -0.0091    5.5925 H   0  0  0  0  0  0  0  0  0  0  0  0
   -0.5380   -1.4990    4.0973 C   0  0  0  0  0  0  0  0  0  0  0  0
   -0.1004   -2.0254    4.8243 H   0  0  0  0  0  0  0  0  0  0  0  0
   -1.0515   -2.1131    3.4998 H   0  0  0  0  0  0  0  0  0  0  0  0
    0.4551   -0.7678    3.3358 N   0  0  0  0  0  4  0  0  0  0  0  0
    0.6871   -1.2655    2.4923 H   0  0  0  0  0  0  0  0  0  0  0  0
    0.1055    0.1414    3.0849 H   0  0  0  0  0  0  0  0  0  0  0  0
    1.2951   -0.6489    3.8776 H   0  0  0  0  0  0  0  0  0  0  0  0
   -0.0231    2.9077   -0.0050 C   0  0  0  0  0  0  0  0  0  0  0  0
   -0.6120    3.2038   -0.7359 H   0  0  0  0  0  0  0  0  0  0  0  0
    0.9023    3.2228   -0.1246 H   0  0  0  0  0  0  0  0  0  0  0  0
   -0.4031    3.3342    0.9233 H   0  0  0  0  0  0  0  0  0  0  0  0
   -0.0056    1.3992   -0.0016 C   0  0  0  0  0  0  0  0  0  0  0  0
   -1.2104    0.6861    0.0226 C   0  0  0  0  0  0  0  0  0  0  0  0
   -2.0706    1.1952    0.0553 H   0  0  0  0  0  0  0  0  0  0  0  0
   -1.2191   -0.6763    0.0000 C   0  0  0  0  0  0  0  0  0  0  0  0
   -2.0895   -1.1877   -0.0162 H   0  0  0  0  0  0  0  0  0  0  0  0
   -0.0023   -1.3979    0.0003 C   0  0  0  0  0  0  0  0  0  0  0  0
   -0.0178   -2.3873   -0.0001 H   0  0  0  0  0  0  0  0  0  0  0  0
    1.2191   -0.6991   -0.0000 C   0  0  0  0  0  0  0  0  0  0  0  0
    2.0893   -1.2076    0.0163 H   0  0  0  0  0  0  0  0  0  0  0  0
    1.2184    0.6880   -0.0213 C   0  0  0  0  0  0  0  0  0  0  0  0
    2.0711    1.1942   -0.0510 H   0  0  0  0  0  0  0  0  0  0  0  0
  1  5  1  0
  5  8  1  0
  1  2  1  0
  1  3  1  0
  1  4  1  0
  5  6  1  0
  5  7  1  0
  8  9  1  0
  8 10  1  0
  8 11  1  0
 12 16  1  0
 16 17  2  0
 17 19  1  0
 19 21  2  0
 21 23  1  0
 23 25  2  0
 25 16  1  0
 12 13  1  0
 12 14  1  0
 12 15  1  0
 17 18  1  0
 19 20  1  0
 21 22  1  0
 23 24  1  0
 25 26  1  0
M  CHG  1   8   1
M  END
>  <PDB_ID>  (3003) 
pdb6f3n

>  <RESIDUE_NAME>  (3003) 
LYS   PHE

>  <FRAG_NAME>  (3003) 
ETAM   MBZ

>  <FRAG_ATOM_NUM>  (3003) 
fragi: 11  fragj: 15

>  <atom.prop.CHAIN_ID>  (3003) 
A A A A A A A A A A A Z Z Z Z Z Z Z Z Z Z Z Z Z Z Z

>  <atom.prop.IS_HEAVY_ATOM>  (3003) 
1 0 0 0 1 0 0 1 0 0 0 1 0 0 0 1 1 0 1 0 1 0 1 0 1 0

>  <DIFUSE_FUNC_ATOM>  (3003) 
n/a

>  <FINAL_SINGLE_POINT_ENERGY>  (3003) 
0

>  <NONCOV_INTER_ENERGY_QM>  (3003) 
0

>  <FF_Energy>  (3003) 
-7.86

>  <QM_Energy>  (3003) 
-15.56

>  <source>  (3003) 
ETAM_MBZ

>  <Index>  (3003) 
32615

$$$$
ETAM-pdb6f8f-D-LYS-115:MBZ-pdb6f8f-D-PHE-141
     RDKit          3D

 26 25  0  0  0  0  0  0  0  0999 V2000
    2.8392   -2.5956   -3.4533 C   0  0  0  0  0  0  0  0  0  0  0  0
    2.8790   -3.4914   -3.8970 H   0  0  0  0  0  0  0  0  0  0  0  0
    2.5888   -2.7116   -2.4916 H   0  0  0  0  0  0  0  0  0  0  0  0
    3.8180   -2.1200   -3.5158 H   0  0  0  0  0  0  0  0  0  0  0  0
    1.7556   -1.7771   -4.1308 C   0  0  0  0  0  0  0  0  0  0  0  0
    1.9030   -0.8172   -3.9388 H   0  0  0  0  0  0  0  0  0  0  0  0
    1.7749   -1.9519   -5.1057 H   0  0  0  0  0  0  0  0  0  0  0  0
    0.4346   -2.1937   -3.5807 N   0  0  0  0  0  4  0  0  0  0  0  0
    0.3409   -3.1849   -3.6606 H   0  0  0  0  0  0  0  0  0  0  0  0
    0.3782   -1.9283   -2.6188 H   0  0  0  0  0  0  0  0  0  0  0  0
   -0.2944   -1.7452   -4.0958 H   0  0  0  0  0  0  0  0  0  0  0  0
    0.0094    2.9025    0.0852 C   0  0  0  0  0  0  0  0  0  0  0  0
   -0.8013    3.2386   -0.3566 H   0  0  0  0  0  0  0  0  0  0  0  0
    0.8320    3.2347   -0.3367 H   0  0  0  0  0  0  0  0  0  0  0  0
   -0.0023    3.2634    1.1136 H   0  0  0  0  0  0  0  0  0  0  0  0
    0.0068    1.4006   -0.0015 C   0  0  0  0  0  0  0  0  0  0  0  0
   -1.1976    0.6959    0.0054 C   0  0  0  0  0  0  0  0  0  0  0  0
   -2.0595    1.1890    0.0134 H   0  0  0  0  0  0  0  0  0  0  0  0
   -1.2012   -0.6942    0.0000 C   0  0  0  0  0  0  0  0  0  0  0  0
   -2.0808   -1.1866    0.0109 H   0  0  0  0  0  0  0  0  0  0  0  0
   -0.0058   -1.3924   -0.0182 C   0  0  0  0  0  0  0  0  0  0  0  0
   -0.0092   -2.3911   -0.0447 H   0  0  0  0  0  0  0  0  0  0  0  0
    1.2012   -0.6986   -0.0000 C   0  0  0  0  0  0  0  0  0  0  0  0
    2.0779   -1.1999    0.0044 H   0  0  0  0  0  0  0  0  0  0  0  0
    1.1966    0.6886    0.0143 C   0  0  0  0  0  0  0  0  0  0  0  0
    2.0685    1.1845    0.0355 H   0  0  0  0  0  0  0  0  0  0  0  0
  1  5  1  0
  5  8  1  0
  1  2  1  0
  1  3  1  0
  1  4  1  0
  5  6  1  0
  5  7  1  0
  8  9  1  0
  8 10  1  0
  8 11  1  0
 12 16  1  0
 16 17  2  0
 17 19  1  0
 19 21  2  0
 21 23  1  0
 23 25  2  0
 25 16  1  0
 12 13  1  0
 12 14  1  0
 12 15  1  0
 17 18  1  0
 19 20  1  0
 21 22  1  0
 23 24  1  0
 25 26  1  0
M  CHG  1   8   1
M  END
>  <PDB_ID>  (3004) 
pdb6f8f

>  <RESIDUE_NAME>  (3004) 
LYS   PHE

>  <FRAG_NAME>  (3004) 
ETAM   MBZ

>  <FRAG_ATOM_NUM>  (3004) 
fragi: 11  fragj: 15

>  <atom.prop.CHAIN_ID>  (3004) 
A A A A A A A A A A A Z Z Z Z Z Z Z Z Z Z Z Z Z Z Z

>  <atom.prop.IS_HEAVY_ATOM>  (3004) 
1 0 0 0 1 0 0 1 0 0 0 1 0 0 0 1 1 0 1 0 1 0 1 0 1 0

>  <DIFUSE_FUNC_ATOM>  (3004) 
n/a

>  <FINAL_SINGLE_POINT_ENERGY>  (3004) 
0

>  <NONCOV_INTER_ENERGY_QM>  (3004) 
0

>  <FF_Energy>  (3004) 
-4.53

>  <QM_Energy>  (3004) 
-10.8

>  <source>  (3004) 
ETAM_MBZ

>  <Index>  (3004) 
32637

$$$$
ETAM-pdb6f8z-A-LYS-565:MBZ-pdb6f8z-A-PHE-506
     RDKit          3D

 26 25  0  0  0  0  0  0  0  0999 V2000
   -1.2280   -1.8408   -5.1505 C   0  0  0  0  0  0  0  0  0  0  0  0
   -0.3622   -1.6006   -5.5877 H   0  0  0  0  0  0  0  0  0  0  0  0
   -1.9857   -1.4379   -5.6625 H   0  0  0  0  0  0  0  0  0  0  0  0
   -1.3359   -2.9254   -5.1515 H   0  0  0  0  0  0  0  0  0  0  0  0
   -1.2340   -1.2447   -3.7394 C   0  0  0  0  0  0  0  0  0  0  0  0
   -1.7827   -0.3943   -3.7529 H   0  0  0  0  0  0  0  0  0  0  0  0
   -1.6958   -1.8963   -3.1181 H   0  0  0  0  0  0  0  0  0  0  0  0
    0.1227   -0.9389   -3.2011 N   0  0  0  0  0  4  0  0  0  0  0  0
    0.1770   -1.2433   -2.2505 H   0  0  0  0  0  0  0  0  0  0  0  0
    0.8094   -1.4177   -3.7468 H   0  0  0  0  0  0  0  0  0  0  0  0
    0.2823    0.0461   -3.2489 H   0  0  0  0  0  0  0  0  0  0  0  0
   -0.0015    2.8969    0.0093 C   0  0  0  0  0  0  0  0  0  0  0  0
    0.8658    3.1967    0.3826 H   0  0  0  0  0  0  0  0  0  0  0  0
   -0.7557    3.1939    0.5797 H   0  0  0  0  0  0  0  0  0  0  0  0
   -0.1222    3.3491   -0.9751 H   0  0  0  0  0  0  0  0  0  0  0  0
   -0.0001    1.3969   -0.0070 C   0  0  0  0  0  0  0  0  0  0  0  0
   -1.1919    0.6927    0.0084 C   0  0  0  0  0  0  0  0  0  0  0  0
   -2.0600    1.1829    0.0248 H   0  0  0  0  0  0  0  0  0  0  0  0
   -1.1956   -0.6936   -0.0000 C   0  0  0  0  0  0  0  0  0  0  0  0
   -2.0753   -1.1871   -0.0076 H   0  0  0  0  0  0  0  0  0  0  0  0
   -0.0009   -1.3898    0.0032 C   0  0  0  0  0  0  0  0  0  0  0  0
   -0.0050   -2.3896    0.0073 H   0  0  0  0  0  0  0  0  0  0  0  0
    1.1956   -0.6953   -0.0000 C   0  0  0  0  0  0  0  0  0  0  0  0
    2.0787   -1.1951    0.0030 H   0  0  0  0  0  0  0  0  0  0  0  0
    1.1929    0.6890   -0.0045 C   0  0  0  0  0  0  0  0  0  0  0  0
    2.0619    1.1865   -0.0068 H   0  0  0  0  0  0  0  0  0  0  0  0
  1  5  1  0
  5  8  1  0
  1  2  1  0
  1  3  1  0
  1  4  1  0
  5  6  1  0
  5  7  1  0
  8  9  1  0
  8 10  1  0
  8 11  1  0
 12 16  1  0
 16 17  2  0
 17 19  1  0
 19 21  2  0
 21 23  1  0
 23 25  2  0
 25 16  1  0
 12 13  1  0
 12 14  1  0
 12 15  1  0
 17 18  1  0
 19 20  1  0
 21 22  1  0
 23 24  1  0
 25 26  1  0
M  CHG  1   8   1
M  END
>  <PDB_ID>  (3005) 
pdb6f8z

>  <RESIDUE_NAME>  (3005) 
LYS   PHE

>  <FRAG_NAME>  (3005) 
ETAM   MBZ

>  <FRAG_ATOM_NUM>  (3005) 
fragi: 11  fragj: 15

>  <atom.prop.CHAIN_ID>  (3005) 
A A A A A A A A A A A Z Z Z Z Z Z Z Z Z Z Z Z Z Z Z

>  <atom.prop.IS_HEAVY_ATOM>  (3005) 
1 0 0 0 1 0 0 1 0 0 0 1 0 0 0 1 1 0 1 0 1 0 1 0 1 0

>  <DIFUSE_FUNC_ATOM>  (3005) 
n/a

>  <FINAL_SINGLE_POINT_ENERGY>  (3005) 
0

>  <NONCOV_INTER_ENERGY_QM>  (3005) 
0

>  <FF_Energy>  (3005) 
-8.19

>  <QM_Energy>  (3005) 
-16.32

>  <source>  (3005) 
ETAM_MBZ

>  <Index>  (3005) 
32640

$$$$
ETAM-pdb6f8z-B-LYS-565:MBZ-pdb6f8z-B-PHE-506
     RDKit          3D

 26 25  0  0  0  0  0  0  0  0999 V2000
   -0.8654   -1.6681   -5.4180 C   0  0  0  0  0  0  0  0  0  0  0  0
    0.0321   -1.3692   -5.7302 H   0  0  0  0  0  0  0  0  0  0  0  0
   -1.5748   -1.3105   -6.0172 H   0  0  0  0  0  0  0  0  0  0  0  0
   -0.9031   -2.7574   -5.4285 H   0  0  0  0  0  0  0  0  0  0  0  0
   -1.0957   -1.0999   -4.0120 C   0  0  0  0  0  0  0  0  0  0  0  0
   -1.6576   -0.2627   -4.0938 H   0  0  0  0  0  0  0  0  0  0  0  0
   -1.6266   -1.7748   -3.4776 H   0  0  0  0  0  0  0  0  0  0  0  0
    0.1595   -0.7743   -3.2751 N   0  0  0  0  0  4  0  0  0  0  0  0
    0.6310   -0.0268   -3.7413 H   0  0  0  0  0  0  0  0  0  0  0  0
   -0.0678   -0.4981   -2.3422 H   0  0  0  0  0  0  0  0  0  0  0  0
    0.7480   -1.5809   -3.2534 H   0  0  0  0  0  0  0  0  0  0  0  0
   -0.0006    2.8977    0.0428 C   0  0  0  0  0  0  0  0  0  0  0  0
    0.8767    3.1912    0.4074 H   0  0  0  0  0  0  0  0  0  0  0  0
   -0.7395    3.1836    0.6423 H   0  0  0  0  0  0  0  0  0  0  0  0
   -0.1439    3.3809   -0.9237 H   0  0  0  0  0  0  0  0  0  0  0  0
   -0.0007    1.4031   -0.0061 C   0  0  0  0  0  0  0  0  0  0  0  0
   -1.1951    0.6935    0.0167 C   0  0  0  0  0  0  0  0  0  0  0  0
   -2.0633    1.1819    0.0441 H   0  0  0  0  0  0  0  0  0  0  0  0
   -1.2003   -0.7000   -0.0000 C   0  0  0  0  0  0  0  0  0  0  0  0
   -2.0773   -1.1921   -0.0037 H   0  0  0  0  0  0  0  0  0  0  0  0
    0.0014   -1.3968   -0.0091 C   0  0  0  0  0  0  0  0  0  0  0  0
   -0.0007   -2.3939   -0.0222 H   0  0  0  0  0  0  0  0  0  0  0  0
    1.2003   -0.6954   -0.0000 C   0  0  0  0  0  0  0  0  0  0  0  0
    2.0832   -1.1920    0.0093 H   0  0  0  0  0  0  0  0  0  0  0  0
    1.1944    0.6955   -0.0015 C   0  0  0  0  0  0  0  0  0  0  0  0
    2.0639    1.1920    0.0003 H   0  0  0  0  0  0  0  0  0  0  0  0
  1  5  1  0
  5  8  1  0
  1  2  1  0
  1  3  1  0
  1  4  1  0
  5  6  1  0
  5  7  1  0
  8  9  1  0
  8 10  1  0
  8 11  1  0
 12 16  1  0
 16 17  2  0
 17 19  1  0
 19 21  2  0
 21 23  1  0
 23 25  2  0
 25 16  1  0
 12 13  1  0
 12 14  1  0
 12 15  1  0
 17 18  1  0
 19 20  1  0
 21 22  1  0
 23 24  1  0
 25 26  1  0
M  CHG  1   8   1
M  END
>  <PDB_ID>  (3006) 
pdb6f8z

>  <RESIDUE_NAME>  (3006) 
LYS   PHE

>  <FRAG_NAME>  (3006) 
ETAM   MBZ

>  <FRAG_ATOM_NUM>  (3006) 
fragi: 11  fragj: 15

>  <atom.prop.CHAIN_ID>  (3006) 
A A A A A A A A A A A Z Z Z Z Z Z Z Z Z Z Z Z Z Z Z

>  <atom.prop.IS_HEAVY_ATOM>  (3006) 
1 0 0 0 1 0 0 1 0 0 0 1 0 0 0 1 1 0 1 0 1 0 1 0 1 0

>  <DIFUSE_FUNC_ATOM>  (3006) 
n/a

>  <FINAL_SINGLE_POINT_ENERGY>  (3006) 
0

>  <NONCOV_INTER_ENERGY_QM>  (3006) 
0

>  <FF_Energy>  (3006) 
-8.61

>  <QM_Energy>  (3006) 
-16.14

>  <source>  (3006) 
ETAM_MBZ

>  <Index>  (3006) 
32642

$$$$
ETAM-pdb6f8z-B-LYS-565:MBZ-pdb6f8z-B-PHE-542
     RDKit          3D

 26 25  0  0  0  0  0  0  0  0999 V2000
    1.9008   -1.3608   -3.4565 C   0  0  0  0  0  0  0  0  0  0  0  0
    1.4849   -2.1988   -3.7985 H   0  0  0  0  0  0  0  0  0  0  0  0
    2.2387   -1.4974   -2.5305 H   0  0  0  0  0  0  0  0  0  0  0  0
    2.7327   -1.0843   -4.1043 H   0  0  0  0  0  0  0  0  0  0  0  0
    0.8200   -0.2733   -3.4155 C   0  0  0  0  0  0  0  0  0  0  0  0
    0.4655   -0.2105   -2.4702 H   0  0  0  0  0  0  0  0  0  0  0  0
    1.2503    0.6137   -3.6414 H   0  0  0  0  0  0  0  0  0  0  0  0
   -0.3191   -0.5133   -4.3481 N   0  0  0  0  0  4  0  0  0  0  0  0
   -0.8160   -1.3302   -4.0581 H   0  0  0  0  0  0  0  0  0  0  0  0
   -0.9313    0.2761   -4.3311 H   0  0  0  0  0  0  0  0  0  0  0  0
    0.0340   -0.6456   -5.2729 H   0  0  0  0  0  0  0  0  0  0  0  0
   -0.0235    2.8929    0.0227 C   0  0  0  0  0  0  0  0  0  0  0  0
   -0.6580    3.2097   -0.6609 H   0  0  0  0  0  0  0  0  0  0  0  0
    0.8911    3.2199   -0.1438 H   0  0  0  0  0  0  0  0  0  0  0  0
   -0.3474    3.2912    0.9843 H   0  0  0  0  0  0  0  0  0  0  0  0
   -0.0024    1.3987   -0.0105 C   0  0  0  0  0  0  0  0  0  0  0  0
   -1.1944    0.6924    0.0016 C   0  0  0  0  0  0  0  0  0  0  0  0
   -2.0618    1.1851    0.0102 H   0  0  0  0  0  0  0  0  0  0  0  0
   -1.1978   -0.6880   -0.0000 C   0  0  0  0  0  0  0  0  0  0  0  0
   -2.0753   -1.1868   -0.0010 H   0  0  0  0  0  0  0  0  0  0  0  0
    0.0026   -1.3917    0.0010 C   0  0  0  0  0  0  0  0  0  0  0  0
   -0.0106   -2.3901    0.0015 H   0  0  0  0  0  0  0  0  0  0  0  0
    1.1978   -0.7019    0.0000 C   0  0  0  0  0  0  0  0  0  0  0  0
    2.0811   -1.1969   -0.0052 H   0  0  0  0  0  0  0  0  0  0  0  0
    1.1942    0.6905    0.0079 C   0  0  0  0  0  0  0  0  0  0  0  0
    2.0621    1.1862    0.0264 H   0  0  0  0  0  0  0  0  0  0  0  0
  1  5  1  0
  5  8  1  0
  1  2  1  0
  1  3  1  0
  1  4  1  0
  5  6  1  0
  5  7  1  0
  8  9  1  0
  8 10  1  0
  8 11  1  0
 12 16  1  0
 16 17  2  0
 17 19  1  0
 19 21  2  0
 21 23  1  0
 23 25  2  0
 25 16  1  0
 12 13  1  0
 12 14  1  0
 12 15  1  0
 17 18  1  0
 19 20  1  0
 21 22  1  0
 23 24  1  0
 25 26  1  0
M  CHG  1   8   1
M  END
>  <PDB_ID>  (3007) 
pdb6f8z

>  <RESIDUE_NAME>  (3007) 
LYS   PHE

>  <FRAG_NAME>  (3007) 
ETAM   MBZ

>  <FRAG_ATOM_NUM>  (3007) 
fragi: 11  fragj: 15

>  <atom.prop.CHAIN_ID>  (3007) 
A A A A A A A A A A A Z Z Z Z Z Z Z Z Z Z Z Z Z Z Z

>  <atom.prop.IS_HEAVY_ATOM>  (3007) 
1 0 0 0 1 0 0 1 0 0 0 1 0 0 0 1 1 0 1 0 1 0 1 0 1 0

>  <DIFUSE_FUNC_ATOM>  (3007) 
n/a

>  <FINAL_SINGLE_POINT_ENERGY>  (3007) 
0

>  <NONCOV_INTER_ENERGY_QM>  (3007) 
0

>  <FF_Energy>  (3007) 
-5.08

>  <QM_Energy>  (3007) 
-10.16

>  <source>  (3007) 
ETAM_MBZ

>  <Index>  (3007) 
32643

$$$$
ETAM-pdb6fa5-A-LYS-760:MBZ-pdb6fa5-A-PHE-803
     RDKit          3D

 26 25  0  0  0  0  0  0  0  0999 V2000
    2.1911   -4.2587    0.5251 C   0  0  0  0  0  0  0  0  0  0  0  0
    2.5883   -4.1354    1.4288 H   0  0  0  0  0  0  0  0  0  0  0  0
    1.7566   -3.4184    0.2195 H   0  0  0  0  0  0  0  0  0  0  0  0
    2.9859   -4.5181   -0.1743 H   0  0  0  0  0  0  0  0  0  0  0  0
    1.1533   -5.3492    0.5913 C   0  0  0  0  0  0  0  0  0  0  0  0
    1.1694   -5.8732   -0.2639 H   0  0  0  0  0  0  0  0  0  0  0  0
    1.3693   -5.9645    1.3533 H   0  0  0  0  0  0  0  0  0  0  0  0
   -0.2053   -4.7873    0.7911 N   0  0  0  0  0  4  0  0  0  0  0  0
   -0.1322   -3.8474    1.1258 H   0  0  0  0  0  0  0  0  0  0  0  0
   -0.7009   -4.7938   -0.0777 H   0  0  0  0  0  0  0  0  0  0  0  0
   -0.7005   -5.3416    1.4615 H   0  0  0  0  0  0  0  0  0  0  0  0
    0.0166    2.9002    0.0152 C   0  0  0  0  0  0  0  0  0  0  0  0
   -0.6615    3.2207   -0.6286 H   0  0  0  0  0  0  0  0  0  0  0  0
    0.9243    3.1989   -0.2366 H   0  0  0  0  0  0  0  0  0  0  0  0
   -0.2184    3.3298    0.9890 H   0  0  0  0  0  0  0  0  0  0  0  0
    0.0008    1.3949   -0.0034 C   0  0  0  0  0  0  0  0  0  0  0  0
   -1.1890    0.6884    0.0013 C   0  0  0  0  0  0  0  0  0  0  0  0
   -2.0582    1.1771    0.0046 H   0  0  0  0  0  0  0  0  0  0  0  0
   -1.1905   -0.6977   -0.0000 C   0  0  0  0  0  0  0  0  0  0  0  0
   -2.0710   -1.1904    0.0005 H   0  0  0  0  0  0  0  0  0  0  0  0
   -0.0007   -1.3825   -0.0004 C   0  0  0  0  0  0  0  0  0  0  0  0
   -0.0005   -2.3867   -0.0011 H   0  0  0  0  0  0  0  0  0  0  0  0
    1.1905   -0.6907   -0.0000 C   0  0  0  0  0  0  0  0  0  0  0  0
    2.0759   -1.1925   -0.0001 H   0  0  0  0  0  0  0  0  0  0  0  0
    1.1889    0.6876    0.0025 C   0  0  0  0  0  0  0  0  0  0  0  0
    2.0597    1.1858    0.0077 H   0  0  0  0  0  0  0  0  0  0  0  0
  1  5  1  0
  5  8  1  0
  1  2  1  0
  1  3  1  0
  1  4  1  0
  5  6  1  0
  5  7  1  0
  8  9  1  0
  8 10  1  0
  8 11  1  0
 12 16  1  0
 16 17  2  0
 17 19  1  0
 19 21  2  0
 21 23  1  0
 23 25  2  0
 25 16  1  0
 12 13  1  0
 12 14  1  0
 12 15  1  0
 17 18  1  0
 19 20  1  0
 21 22  1  0
 23 24  1  0
 25 26  1  0
M  CHG  1   8   1
M  END
>  <PDB_ID>  (3008) 
pdb6fa5

>  <RESIDUE_NAME>  (3008) 
LYS   PHE

>  <FRAG_NAME>  (3008) 
ETAM   MBZ

>  <FRAG_ATOM_NUM>  (3008) 
fragi: 11  fragj: 15

>  <atom.prop.CHAIN_ID>  (3008) 
A A A A A A A A A A A Z Z Z Z Z Z Z Z Z Z Z Z Z Z Z

>  <atom.prop.IS_HEAVY_ATOM>  (3008) 
1 0 0 0 1 0 0 1 0 0 0 1 0 0 0 1 1 0 1 0 1 0 1 0 1 0

>  <DIFUSE_FUNC_ATOM>  (3008) 
n/a

>  <FINAL_SINGLE_POINT_ENERGY>  (3008) 
0

>  <NONCOV_INTER_ENERGY_QM>  (3008) 
0

>  <FF_Energy>  (3008) 
2.77

>  <QM_Energy>  (3008) 
-3.37

>  <source>  (3008) 
ETAM_MBZ

>  <Index>  (3008) 
32656

$$$$
ETAM-pdb5f5o-C-LYS-230:MBZ-pdb5f5o-C-PHE-223
     RDKit          3D

 26 25  0  0  0  0  0  0  0  0999 V2000
    0.0335    0.2953    3.8640 C   0  0  0  0  0  0  0  0  0  0  0  0
   -0.6062    0.0249    3.1596 H   0  0  0  0  0  0  0  0  0  0  0  0
    0.5979    1.0507    3.5645 H   0  0  0  0  0  0  0  0  0  0  0  0
   -0.5256    0.6017    4.7481 H   0  0  0  0  0  0  0  0  0  0  0  0
    0.9476   -0.9006    4.1764 C   0  0  0  0  0  0  0  0  0  0  0  0
    1.3589   -0.7615    5.0898 H   0  0  0  0  0  0  0  0  0  0  0  0
    0.3807   -1.7373    4.2202 H   0  0  0  0  0  0  0  0  0  0  0  0
    2.0547   -1.1195    3.1760 N   0  0  0  0  0  4  0  0  0  0  0  0
    1.6634   -1.1261    2.2598 H   0  0  0  0  0  0  0  0  0  0  0  0
    2.7163   -0.3790    3.2603 H   0  0  0  0  0  0  0  0  0  0  0  0
    2.4929   -1.9933    3.3680 H   0  0  0  0  0  0  0  0  0  0  0  0
   -0.0158    2.8825   -0.0957 C   0  0  0  0  0  0  0  0  0  0  0  0
    0.8764    3.2225    0.1260 H   0  0  0  0  0  0  0  0  0  0  0  0
   -0.7144    3.2343    0.4956 H   0  0  0  0  0  0  0  0  0  0  0  0
   -0.2482    3.2264   -1.1036 H   0  0  0  0  0  0  0  0  0  0  0  0
   -0.0041    1.3953   -0.0006 C   0  0  0  0  0  0  0  0  0  0  0  0
   -1.1832    0.6979   -0.0003 C   0  0  0  0  0  0  0  0  0  0  0  0
   -2.0569    1.1866   -0.0011 H   0  0  0  0  0  0  0  0  0  0  0  0
   -1.1933   -0.6867    0.0000 C   0  0  0  0  0  0  0  0  0  0  0  0
   -2.0804   -1.1736   -0.0091 H   0  0  0  0  0  0  0  0  0  0  0  0
   -0.0119   -1.3868    0.0142 C   0  0  0  0  0  0  0  0  0  0  0  0
   -0.0186   -2.3883    0.0344 H   0  0  0  0  0  0  0  0  0  0  0  0
    1.1933   -0.7023    0.0000 C   0  0  0  0  0  0  0  0  0  0  0  0
    2.0699   -1.2087    0.0008 H   0  0  0  0  0  0  0  0  0  0  0  0
    1.1992    0.6826   -0.0133 C   0  0  0  0  0  0  0  0  0  0  0  0
    2.0630    1.1793   -0.0334 H   0  0  0  0  0  0  0  0  0  0  0  0
  1  5  1  0
  5  8  1  0
  1  2  1  0
  1  3  1  0
  1  4  1  0
  5  6  1  0
  5  7  1  0
  8  9  1  0
  8 10  1  0
  8 11  1  0
 12 16  1  0
 16 17  2  0
 17 19  1  0
 19 21  2  0
 21 23  1  0
 23 25  2  0
 25 16  1  0
 12 13  1  0
 12 14  1  0
 12 15  1  0
 17 18  1  0
 19 20  1  0
 21 22  1  0
 23 24  1  0
 25 26  1  0
M  CHG  1   8   1
M  END
>  <PDB_ID>  (3009) 
pdb5f5o

>  <RESIDUE_NAME>  (3009) 
LYS   PHE

>  <FRAG_NAME>  (3009) 
ETAM   MBZ

>  <FRAG_ATOM_NUM>  (3009) 
fragi: 11  fragj: 15

>  <atom.prop.CHAIN_ID>  (3009) 
A A A A A A A A A A A Z Z Z Z Z Z Z Z Z Z Z Z Z Z Z

>  <atom.prop.IS_HEAVY_ATOM>  (3009) 
1 0 0 0 1 0 0 1 0 0 0 1 0 0 0 1 1 0 1 0 1 0 1 0 1 0

>  <DIFUSE_FUNC_ATOM>  (3009) 
n/a

>  <FINAL_SINGLE_POINT_ENERGY>  (3009) 
0

>  <NONCOV_INTER_ENERGY_QM>  (3009) 
0

>  <FF_Energy>  (3009) 
-5.8

>  <QM_Energy>  (3009) 
-13.16

>  <source>  (3009) 
ETAM_MBZ

>  <Index>  (3009) 
32672

$$$$
ETAM-pdb6f3n-B-LYS-405:MBZ-pdb6f3n-B-PHE-402
     RDKit          3D

 26 25  0  0  0  0  0  0  0  0999 V2000
   -1.4806   -0.4680    4.8062 C   0  0  0  0  0  0  0  0  0  0  0  0
   -2.2951   -0.9664    5.0798 H   0  0  0  0  0  0  0  0  0  0  0  0
   -1.6959    0.1964    4.1004 H   0  0  0  0  0  0  0  0  0  0  0  0
   -1.0757    0.0532    5.6737 H   0  0  0  0  0  0  0  0  0  0  0  0
   -0.4707   -1.4540    4.2526 C   0  0  0  0  0  0  0  0  0  0  0  0
    0.0402   -1.8460    5.0087 H   0  0  0  0  0  0  0  0  0  0  0  0
   -0.9565   -2.1649    3.7565 H   0  0  0  0  0  0  0  0  0  0  0  0
    0.4273   -0.7382    3.3550 N   0  0  0  0  0  4  0  0  0  0  0  0
    0.9198   -0.0205    3.8568 H   0  0  0  0  0  0  0  0  0  0  0  0
    1.0987   -1.3716    2.9574 H   0  0  0  0  0  0  0  0  0  0  0  0
   -0.0943   -0.3116    2.6103 H   0  0  0  0  0  0  0  0  0  0  0  0
   -0.0066    2.8908   -0.0112 C   0  0  0  0  0  0  0  0  0  0  0  0
   -0.5869    3.2043   -0.7453 H   0  0  0  0  0  0  0  0  0  0  0  0
    0.9236    3.2029   -0.1225 H   0  0  0  0  0  0  0  0  0  0  0  0
   -0.3871    3.3251    0.9132 H   0  0  0  0  0  0  0  0  0  0  0  0
   -0.0106    1.4015   -0.0058 C   0  0  0  0  0  0  0  0  0  0  0  0
   -1.1982    0.6921    0.0115 C   0  0  0  0  0  0  0  0  0  0  0  0
   -2.0689    1.1847    0.0310 H   0  0  0  0  0  0  0  0  0  0  0  0
   -1.2039   -0.6885   -0.0000 C   0  0  0  0  0  0  0  0  0  0  0  0
   -2.0753   -1.1899   -0.0191 H   0  0  0  0  0  0  0  0  0  0  0  0
    0.0060   -1.3889    0.0163 C   0  0  0  0  0  0  0  0  0  0  0  0
   -0.0075   -2.3884    0.0389 H   0  0  0  0  0  0  0  0  0  0  0  0
    1.2039   -0.7010   -0.0000 C   0  0  0  0  0  0  0  0  0  0  0  0
    2.0852   -1.2007    0.0055 H   0  0  0  0  0  0  0  0  0  0  0  0
    1.2028    0.6848   -0.0220 C   0  0  0  0  0  0  0  0  0  0  0  0
    2.0626    1.1881   -0.0502 H   0  0  0  0  0  0  0  0  0  0  0  0
  1  5  1  0
  5  8  1  0
  1  2  1  0
  1  3  1  0
  1  4  1  0
  5  6  1  0
  5  7  1  0
  8  9  1  0
  8 10  1  0
  8 11  1  0
 12 16  1  0
 16 17  2  0
 17 19  1  0
 19 21  2  0
 21 23  1  0
 23 25  2  0
 25 16  1  0
 12 13  1  0
 12 14  1  0
 12 15  1  0
 17 18  1  0
 19 20  1  0
 21 22  1  0
 23 24  1  0
 25 26  1  0
M  CHG  1   8   1
M  END
>  <PDB_ID>  (3010) 
pdb6f3n

>  <RESIDUE_NAME>  (3010) 
LYS   PHE

>  <FRAG_NAME>  (3010) 
ETAM   MBZ

>  <FRAG_ATOM_NUM>  (3010) 
fragi: 11  fragj: 15

>  <atom.prop.CHAIN_ID>  (3010) 
A A A A A A A A A A A Z Z Z Z Z Z Z Z Z Z Z Z Z Z Z

>  <atom.prop.IS_HEAVY_ATOM>  (3010) 
1 0 0 0 1 0 0 1 0 0 0 1 0 0 0 1 1 0 1 0 1 0 1 0 1 0

>  <DIFUSE_FUNC_ATOM>  (3010) 
n/a

>  <FINAL_SINGLE_POINT_ENERGY>  (3010) 
0

>  <NONCOV_INTER_ENERGY_QM>  (3010) 
0

>  <FF_Energy>  (3010) 
-7.98

>  <QM_Energy>  (3010) 
-15.05

>  <source>  (3010) 
ETAM_MBZ

>  <Index>  (3010) 
32679

$$$$
ETAM-pdb6fcx-B-LYS-146:MBZ-pdb6fcx-B-PHE-190
     RDKit          3D

 26 25  0  0  0  0  0  0  0  0999 V2000
    3.0074   -1.3984   -3.9555 C   0  0  0  0  0  0  0  0  0  0  0  0
    3.8354   -1.9466   -4.0860 H   0  0  0  0  0  0  0  0  0  0  0  0
    3.1493   -0.4882   -4.3487 H   0  0  0  0  0  0  0  0  0  0  0  0
    2.1821   -1.8813   -4.4787 H   0  0  0  0  0  0  0  0  0  0  0  0
    2.7537   -1.2505   -2.4739 C   0  0  0  0  0  0  0  0  0  0  0  0
    1.9308   -0.6994   -2.3348 H   0  0  0  0  0  0  0  0  0  0  0  0
    2.6158   -2.1572   -2.0714 H   0  0  0  0  0  0  0  0  0  0  0  0
    3.9029   -0.5901   -1.8054 N   0  0  0  0  0  4  0  0  0  0  0  0
    4.4004   -1.2624   -1.2565 H   0  0  0  0  0  0  0  0  0  0  0  0
    4.5142   -0.2060   -2.4968 H   0  0  0  0  0  0  0  0  0  0  0  0
    3.5669    0.1422   -1.2122 H   0  0  0  0  0  0  0  0  0  0  0  0
    0.0876    2.9469   -0.0640 C   0  0  0  0  0  0  0  0  0  0  0  0
    0.3030    3.1593   -1.0151 H   0  0  0  0  0  0  0  0  0  0  0  0
    0.8373    3.2414    0.5257 H   0  0  0  0  0  0  0  0  0  0  0  0
   -0.7899    3.5329    0.2091 H   0  0  0  0  0  0  0  0  0  0  0  0
   -0.0050    1.4053    0.0501 C   0  0  0  0  0  0  0  0  0  0  0  0
   -1.1746    0.6794   -0.0459 C   0  0  0  0  0  0  0  0  0  0  0  0
   -2.0491    1.1700   -0.1545 H   0  0  0  0  0  0  0  0  0  0  0  0
   -1.1826   -0.6913   -0.0000 C   0  0  0  0  0  0  0  0  0  0  0  0
   -2.0665   -1.1841    0.0373 H   0  0  0  0  0  0  0  0  0  0  0  0
   -0.0024   -1.3799   -0.0022 C   0  0  0  0  0  0  0  0  0  0  0  0
   -0.0077   -2.3856   -0.0060 H   0  0  0  0  0  0  0  0  0  0  0  0
    1.1826   -0.6967    0.0000 C   0  0  0  0  0  0  0  0  0  0  0  0
    2.0693   -1.1953    0.0044 H   0  0  0  0  0  0  0  0  0  0  0  0
    1.1819    0.6832   -0.0019 C   0  0  0  0  0  0  0  0  0  0  0  0
    2.0550    1.1803   -0.0429 H   0  0  0  0  0  0  0  0  0  0  0  0
  1  5  1  0
  5  8  1  0
  1  2  1  0
  1  3  1  0
  1  4  1  0
  5  6  1  0
  5  7  1  0
  8  9  1  0
  8 10  1  0
  8 11  1  0
 12 16  1  0
 16 17  2  0
 17 19  1  0
 19 21  2  0
 21 23  1  0
 23 25  2  0
 25 16  1  0
 12 13  1  0
 12 14  1  0
 12 15  1  0
 17 18  1  0
 19 20  1  0
 21 22  1  0
 23 24  1  0
 25 26  1  0
M  CHG  1   8   1
M  END
>  <PDB_ID>  (3011) 
pdb6fcx

>  <RESIDUE_NAME>  (3011) 
LYS   PHE

>  <FRAG_NAME>  (3011) 
ETAM   MBZ

>  <FRAG_ATOM_NUM>  (3011) 
fragi: 11  fragj: 15

>  <atom.prop.CHAIN_ID>  (3011) 
A A A A A A A A A A A Z Z Z Z Z Z Z Z Z Z Z Z Z Z Z

>  <atom.prop.IS_HEAVY_ATOM>  (3011) 
1 0 0 0 1 0 0 1 0 0 0 1 0 0 0 1 1 0 1 0 1 0 1 0 1 0

>  <DIFUSE_FUNC_ATOM>  (3011) 
n/a

>  <FINAL_SINGLE_POINT_ENERGY>  (3011) 
0

>  <NONCOV_INTER_ENERGY_QM>  (3011) 
0

>  <FF_Energy>  (3011) 
3.21

>  <QM_Energy>  (3011) 
-4.43

>  <source>  (3011) 
ETAM_MBZ

>  <Index>  (3011) 
32685

$$$$
ETAM-pdb5f8v-E-LYS-113:MBZ-pdb5f8v-E-PHE-109
     RDKit          3D

 26 25  0  0  0  0  0  0  0  0999 V2000
   -0.1110   -3.3612   -4.7329 C   0  0  0  0  0  0  0  0  0  0  0  0
   -0.4969   -4.2368   -5.0265 H   0  0  0  0  0  0  0  0  0  0  0  0
    0.7731   -3.2211   -5.1800 H   0  0  0  0  0  0  0  0  0  0  0  0
   -0.7875   -2.5617   -5.0350 H   0  0  0  0  0  0  0  0  0  0  0  0
    0.1151   -3.4160   -3.2264 C   0  0  0  0  0  0  0  0  0  0  0  0
    0.6258   -4.2566   -3.0062 H   0  0  0  0  0  0  0  0  0  0  0  0
    0.6797   -2.6256   -2.9546 H   0  0  0  0  0  0  0  0  0  0  0  0
   -1.1535   -3.3987   -2.4443 N   0  0  0  0  0  4  0  0  0  0  0  0
   -1.1950   -4.2113   -1.8642 H   0  0  0  0  0  0  0  0  0  0  0  0
   -1.1795   -2.5778   -1.8746 H   0  0  0  0  0  0  0  0  0  0  0  0
   -1.9299   -3.3956   -3.0735 H   0  0  0  0  0  0  0  0  0  0  0  0
    0.0005    2.9096    0.0096 C   0  0  0  0  0  0  0  0  0  0  0  0
    0.6653    3.2118    0.6777 H   0  0  0  0  0  0  0  0  0  0  0  0
   -0.9103    3.2163    0.2461 H   0  0  0  0  0  0  0  0  0  0  0  0
    0.2631    3.3636   -0.9459 H   0  0  0  0  0  0  0  0  0  0  0  0
   -0.0015    1.4030    0.0004 C   0  0  0  0  0  0  0  0  0  0  0  0
   -1.1997    0.6947   -0.0025 C   0  0  0  0  0  0  0  0  0  0  0  0
   -2.0649    1.1862   -0.0073 H   0  0  0  0  0  0  0  0  0  0  0  0
   -1.2033   -0.6937   -0.0000 C   0  0  0  0  0  0  0  0  0  0  0  0
   -2.0787   -1.1908    0.0039 H   0  0  0  0  0  0  0  0  0  0  0  0
    0.0022   -1.3956   -0.0018 C   0  0  0  0  0  0  0  0  0  0  0  0
   -0.0058   -2.3927   -0.0047 H   0  0  0  0  0  0  0  0  0  0  0  0
    1.2033   -0.6996    0.0000 C   0  0  0  0  0  0  0  0  0  0  0  0
    2.0844   -1.1973    0.0006 H   0  0  0  0  0  0  0  0  0  0  0  0
    1.1990    0.6912    0.0039 C   0  0  0  0  0  0  0  0  0  0  0  0
    2.0660    1.1893    0.0084 H   0  0  0  0  0  0  0  0  0  0  0  0
  1  5  1  0
  5  8  1  0
  1  2  1  0
  1  3  1  0
  1  4  1  0
  5  6  1  0
  5  7  1  0
  8  9  1  0
  8 10  1  0
  8 11  1  0
 12 16  1  0
 16 17  2  0
 17 19  1  0
 19 21  2  0
 21 23  1  0
 23 25  2  0
 25 16  1  0
 12 13  1  0
 12 14  1  0
 12 15  1  0
 17 18  1  0
 19 20  1  0
 21 22  1  0
 23 24  1  0
 25 26  1  0
M  CHG  1   8   1
M  END
>  <PDB_ID>  (3012) 
pdb5f8v

>  <RESIDUE_NAME>  (3012) 
LYS   PHE

>  <FRAG_NAME>  (3012) 
ETAM   MBZ

>  <FRAG_ATOM_NUM>  (3012) 
fragi: 11  fragj: 15

>  <atom.prop.CHAIN_ID>  (3012) 
A A A A A A A A A A A Z Z Z Z Z Z Z Z Z Z Z Z Z Z Z

>  <atom.prop.IS_HEAVY_ATOM>  (3012) 
1 0 0 0 1 0 0 1 0 0 0 1 0 0 0 1 1 0 1 0 1 0 1 0 1 0

>  <DIFUSE_FUNC_ATOM>  (3012) 
n/a

>  <FINAL_SINGLE_POINT_ENERGY>  (3012) 
0

>  <NONCOV_INTER_ENERGY_QM>  (3012) 
0

>  <FF_Energy>  (3012) 
-1.81

>  <QM_Energy>  (3012) 
-9.32

>  <source>  (3012) 
ETAM_MBZ

>  <Index>  (3012) 
32718

$$$$
ETAM-pdb5fax-A-LYS-345:MBZ-pdb5fax-A-PHE-402
     RDKit          3D

 26 25  0  0  0  0  0  0  0  0999 V2000
    0.6460    1.0370   -4.0608 C   0  0  0  0  0  0  0  0  0  0  0  0
    0.1796    1.7044   -4.6225 H   0  0  0  0  0  0  0  0  0  0  0  0
    1.1271    0.3733   -4.6141 H   0  0  0  0  0  0  0  0  0  0  0  0
    1.3835    1.5664   -3.4574 H   0  0  0  0  0  0  0  0  0  0  0  0
   -0.3695    0.3191   -3.1830 C   0  0  0  0  0  0  0  0  0  0  0  0
    0.1241   -0.3613   -2.5913 H   0  0  0  0  0  0  0  0  0  0  0  0
   -0.7806    0.9961   -2.5267 H   0  0  0  0  0  0  0  0  0  0  0  0
   -1.5274   -0.4206   -3.8613 N   0  0  0  0  0  4  0  0  0  0  0  0
   -1.2409   -1.3562   -4.0295 H   0  0  0  0  0  0  0  0  0  0  0  0
   -2.3095   -0.3967   -3.2513 H   0  0  0  0  0  0  0  0  0  0  0  0
   -1.7338    0.0425   -4.7145 H   0  0  0  0  0  0  0  0  0  0  0  0
   -0.0415    2.9062   -0.0047 C   0  0  0  0  0  0  0  0  0  0  0  0
   -0.8672    3.1903    0.4673 H   0  0  0  0  0  0  0  0  0  0  0  0
   -0.0549    3.2149   -0.9484 H   0  0  0  0  0  0  0  0  0  0  0  0
    0.8024    3.3896    0.4875 H   0  0  0  0  0  0  0  0  0  0  0  0
   -0.0052    1.3972   -0.0096 C   0  0  0  0  0  0  0  0  0  0  0  0
   -1.1912    0.6815   -0.0071 C   0  0  0  0  0  0  0  0  0  0  0  0
   -2.0632    1.1700   -0.0110 H   0  0  0  0  0  0  0  0  0  0  0  0
   -1.1870   -0.6964   -0.0000 C   0  0  0  0  0  0  0  0  0  0  0  0
   -2.0652   -1.1970    0.0124 H   0  0  0  0  0  0  0  0  0  0  0  0
    0.0056   -1.3790   -0.0087 C   0  0  0  0  0  0  0  0  0  0  0  0
    0.0023   -2.3843   -0.0221 H   0  0  0  0  0  0  0  0  0  0  0  0
    1.1870   -0.6908    0.0000 C   0  0  0  0  0  0  0  0  0  0  0  0
    2.0768   -1.1910   -0.0109 H   0  0  0  0  0  0  0  0  0  0  0  0
    1.1909    0.6875    0.0254 C   0  0  0  0  0  0  0  0  0  0  0  0
    2.0565    1.1850    0.0685 H   0  0  0  0  0  0  0  0  0  0  0  0
  1  5  1  0
  5  8  1  0
  1  2  1  0
  1  3  1  0
  1  4  1  0
  5  6  1  0
  5  7  1  0
  8  9  1  0
  8 10  1  0
  8 11  1  0
 12 16  1  0
 16 17  2  0
 17 19  1  0
 19 21  2  0
 21 23  1  0
 23 25  2  0
 25 16  1  0
 12 13  1  0
 12 14  1  0
 12 15  1  0
 17 18  1  0
 19 20  1  0
 21 22  1  0
 23 24  1  0
 25 26  1  0
M  CHG  1   8   1
M  END
>  <PDB_ID>  (3013) 
pdb5fax

>  <RESIDUE_NAME>  (3013) 
LYS   PHE

>  <FRAG_NAME>  (3013) 
ETAM   MBZ

>  <FRAG_ATOM_NUM>  (3013) 
fragi: 11  fragj: 15

>  <atom.prop.CHAIN_ID>  (3013) 
A A A A A A A A A A A Z Z Z Z Z Z Z Z Z Z Z Z Z Z Z

>  <atom.prop.IS_HEAVY_ATOM>  (3013) 
1 0 0 0 1 0 0 1 0 0 0 1 0 0 0 1 1 0 1 0 1 0 1 0 1 0

>  <DIFUSE_FUNC_ATOM>  (3013) 
n/a

>  <FINAL_SINGLE_POINT_ENERGY>  (3013) 
0

>  <NONCOV_INTER_ENERGY_QM>  (3013) 
0

>  <FF_Energy>  (3013) 
-5.0

>  <QM_Energy>  (3013) 
-10.2

>  <source>  (3013) 
ETAM_MBZ

>  <Index>  (3013) 
32737

$$$$
ETAM-pdb5fc9-B-LYS-2080:MBZ-pdb5fc9-C-PHE-3019
     RDKit          3D

 26 25  0  0  0  0  0  0  0  0999 V2000
    0.0450   -2.8274   -3.3467 C   0  0  0  0  0  0  0  0  0  0  0  0
   -0.0712   -3.4846   -2.6141 H   0  0  0  0  0  0  0  0  0  0  0  0
    0.6671   -2.1036   -3.0786 H   0  0  0  0  0  0  0  0  0  0  0  0
    0.4356   -3.3342   -4.2292 H   0  0  0  0  0  0  0  0  0  0  0  0
   -1.3063   -2.2090   -3.6564 C   0  0  0  0  0  0  0  0  0  0  0  0
   -1.2584   -1.2199   -3.4759 H   0  0  0  0  0  0  0  0  0  0  0  0
   -1.5072   -2.3425   -4.6348 H   0  0  0  0  0  0  0  0  0  0  0  0
   -2.3940   -2.8016   -2.8486 N   0  0  0  0  0  4  0  0  0  0  0  0
   -2.3153   -2.4917   -1.9000 H   0  0  0  0  0  0  0  0  0  0  0  0
   -3.2803   -2.5175   -3.2175 H   0  0  0  0  0  0  0  0  0  0  0  0
   -2.3278   -3.8001   -2.8766 H   0  0  0  0  0  0  0  0  0  0  0  0
    0.0189    2.9027   -0.0165 C   0  0  0  0  0  0  0  0  0  0  0  0
   -0.4164    3.1966   -0.8570 H   0  0  0  0  0  0  0  0  0  0  0  0
    0.9647    3.1986    0.0159 H   0  0  0  0  0  0  0  0  0  0  0  0
   -0.5040    3.3841    0.8099 H   0  0  0  0  0  0  0  0  0  0  0  0
   -0.0011    1.3989    0.0181 C   0  0  0  0  0  0  0  0  0  0  0  0
   -1.1963    0.6929   -0.0128 C   0  0  0  0  0  0  0  0  0  0  0  0
   -2.0621    1.1769   -0.0458 H   0  0  0  0  0  0  0  0  0  0  0  0
   -1.1928   -0.7022    0.0000 C   0  0  0  0  0  0  0  0  0  0  0  0
   -2.0657   -1.1992    0.0081 H   0  0  0  0  0  0  0  0  0  0  0  0
    0.0133   -1.3894    0.0037 C   0  0  0  0  0  0  0  0  0  0  0  0
    0.0098   -2.3901    0.0091 H   0  0  0  0  0  0  0  0  0  0  0  0
    1.1928   -0.6904   -0.0000 C   0  0  0  0  0  0  0  0  0  0  0  0
    2.0848   -1.1836    0.0054 H   0  0  0  0  0  0  0  0  0  0  0  0
    1.1840    0.6901   -0.0090 C   0  0  0  0  0  0  0  0  0  0  0  0
    2.0578    1.1893   -0.0366 H   0  0  0  0  0  0  0  0  0  0  0  0
  1  5  1  0
  5  8  1  0
  1  2  1  0
  1  3  1  0
  1  4  1  0
  5  6  1  0
  5  7  1  0
  8  9  1  0
  8 10  1  0
  8 11  1  0
 12 16  1  0
 16 17  2  0
 17 19  1  0
 19 21  2  0
 21 23  1  0
 23 25  2  0
 25 16  1  0
 12 13  1  0
 12 14  1  0
 12 15  1  0
 17 18  1  0
 19 20  1  0
 21 22  1  0
 23 24  1  0
 25 26  1  0
M  CHG  1   8   1
M  END
>  <PDB_ID>  (3014) 
pdb5fc9

>  <RESIDUE_NAME>  (3014) 
LYS   PHE

>  <FRAG_NAME>  (3014) 
ETAM   MBZ

>  <FRAG_ATOM_NUM>  (3014) 
fragi: 11  fragj: 15

>  <atom.prop.CHAIN_ID>  (3014) 
A A A A A A A A A A A Z Z Z Z Z Z Z Z Z Z Z Z Z Z Z

>  <atom.prop.IS_HEAVY_ATOM>  (3014) 
1 0 0 0 1 0 0 1 0 0 0 1 0 0 0 1 1 0 1 0 1 0 1 0 1 0

>  <DIFUSE_FUNC_ATOM>  (3014) 
n/a

>  <FINAL_SINGLE_POINT_ENERGY>  (3014) 
0

>  <NONCOV_INTER_ENERGY_QM>  (3014) 
0

>  <FF_Energy>  (3014) 
-2.44

>  <QM_Energy>  (3014) 
-7.96

>  <source>  (3014) 
ETAM_MBZ

>  <Index>  (3014) 
32761

$$$$
ETAM-pdb5fcg-C-GLU-110:MBZ-pdb5fcg-A-PHE-85
     RDKit          3D

 26 25  0  0  0  0  0  0  0  0999 V2000
    0.0894   -5.2157   -3.3792 C   0  0  0  0  0  0  0  0  0  0  0  0
    0.0785   -6.1031   -2.9248 H   0  0  0  0  0  0  0  0  0  0  0  0
   -0.8317   -4.8362   -3.4059 H   0  0  0  0  0  0  0  0  0  0  0  0
    0.3999   -5.3843   -4.4104 H   0  0  0  0  0  0  0  0  0  0  0  0
    0.9516   -4.2734   -2.5290 C   0  0  0  0  0  0  0  0  0  0  0  0
    1.8010   -4.7924   -2.3524 H   0  0  0  0  0  0  0  0  0  0  0  0
    1.2047   -3.3574   -3.0629 H   0  0  0  0  0  0  0  0  0  0  0  0
    0.2670   -4.0009   -1.2804 N   0  0  0  0  0  4  0  0  0  0  0  0
   -0.2444   -3.1404   -1.3452 H   0  0  0  0  0  0  0  0  0  0  0  0
   -0.3761   -4.7421   -1.0683 H   0  0  0  0  0  0  0  0  0  0  0  0
    0.9298   -3.9255   -0.5304 H   0  0  0  0  0  0  0  0  0  0  0  0
    0.0051    2.8956    0.0161 C   0  0  0  0  0  0  0  0  0  0  0  0
   -0.6979    3.2204   -0.5901 H   0  0  0  0  0  0  0  0  0  0  0  0
    0.8994    3.2005   -0.2559 H   0  0  0  0  0  0  0  0  0  0  0  0
   -0.1973    3.2949    1.0100 H   0  0  0  0  0  0  0  0  0  0  0  0
   -0.0043    1.3809   -0.0292 C   0  0  0  0  0  0  0  0  0  0  0  0
   -1.1741    0.6930   -0.0064 C   0  0  0  0  0  0  0  0  0  0  0  0
   -2.0494    1.1907    0.0049 H   0  0  0  0  0  0  0  0  0  0  0  0
   -1.1877   -0.6701    0.0000 C   0  0  0  0  0  0  0  0  0  0  0  0
   -2.0682   -1.1695   -0.0130 H   0  0  0  0  0  0  0  0  0  0  0  0
    0.0025   -1.3708    0.0259 C   0  0  0  0  0  0  0  0  0  0  0  0
   -0.0167   -2.3738    0.0635 H   0  0  0  0  0  0  0  0  0  0  0  0
    1.1877   -0.6964   -0.0000 C   0  0  0  0  0  0  0  0  0  0  0  0
    2.0701   -1.2005   -0.0246 H   0  0  0  0  0  0  0  0  0  0  0  0
    1.1760    0.6634    0.0097 C   0  0  0  0  0  0  0  0  0  0  0  0
    2.0511    1.1719    0.0453 H   0  0  0  0  0  0  0  0  0  0  0  0
  1  5  1  0
  5  8  1  0
  1  2  1  0
  1  3  1  0
  1  4  1  0
  5  6  1  0
  5  7  1  0
  8  9  1  0
  8 10  1  0
  8 11  1  0
 12 16  1  0
 16 17  2  0
 17 19  1  0
 19 21  2  0
 21 23  1  0
 23 25  2  0
 25 16  1  0
 12 13  1  0
 12 14  1  0
 12 15  1  0
 17 18  1  0
 19 20  1  0
 21 22  1  0
 23 24  1  0
 25 26  1  0
M  CHG  1   8   1
M  END
>  <PDB_ID>  (3015) 
pdb5fcg

>  <RESIDUE_NAME>  (3015) 
GLU   PHE

>  <FRAG_NAME>  (3015) 
ETAM   MBZ

>  <FRAG_ATOM_NUM>  (3015) 
fragi: 11  fragj: 15

>  <atom.prop.CHAIN_ID>  (3015) 
A A A A A A A A A A A Z Z Z Z Z Z Z Z Z Z Z Z Z Z Z

>  <atom.prop.IS_HEAVY_ATOM>  (3015) 
1 0 0 0 1 0 0 1 0 0 0 1 0 0 0 1 1 0 1 0 1 0 1 0 1 0

>  <DIFUSE_FUNC_ATOM>  (3015) 
n/a

>  <FINAL_SINGLE_POINT_ENERGY>  (3015) 
0

>  <NONCOV_INTER_ENERGY_QM>  (3015) 
0

>  <FF_Energy>  (3015) 
11.3

>  <QM_Energy>  (3015) 
-1.17

>  <source>  (3015) 
ETAM_MBZ

>  <Index>  (3015) 
32768

$$$$
ETAM-pdb6fjy-D-ALA-1:MBZ-pdb6fjy-D-PHE-147
     RDKit          3D

 26 25  0  0  0  0  0  0  0  0999 V2000
   -1.6079   -0.0335    3.8567 C   0  0  0  0  0  0  0  0  0  0  0  0
   -1.6515    0.9078    4.1844 H   0  0  0  0  0  0  0  0  0  0  0  0
   -2.2383   -0.1520    3.0923 H   0  0  0  0  0  0  0  0  0  0  0  0
   -1.8548   -0.6581    4.5955 H   0  0  0  0  0  0  0  0  0  0  0  0
   -0.1829   -0.3405    3.3896 C   0  0  0  0  0  0  0  0  0  0  0  0
   -0.1710   -0.3124    2.3879 H   0  0  0  0  0  0  0  0  0  0  0  0
    0.5254    0.3976    3.7656 H   0  0  0  0  0  0  0  0  0  0  0  0
    0.2142   -1.6748    3.8316 N   0  0  0  0  0  4  0  0  0  0  0  0
    1.0553   -1.9538    3.3634 H   0  0  0  0  0  0  0  0  0  0  0  0
    0.3761   -1.6736    4.8207 H   0  0  0  0  0  0  0  0  0  0  0  0
   -0.5102   -2.3342    3.6215 H   0  0  0  0  0  0  0  0  0  0  0  0
    0.0130    2.9102    0.0011 C   0  0  0  0  0  0  0  0  0  0  0  0
    0.9138    3.2074   -0.2832 H   0  0  0  0  0  0  0  0  0  0  0  0
   -0.1885    3.2151    0.9216 H   0  0  0  0  0  0  0  0  0  0  0  0
   -0.7167    3.3643   -0.6693 H   0  0  0  0  0  0  0  0  0  0  0  0
    0.0008    1.4046   -0.0000 C   0  0  0  0  0  0  0  0  0  0  0  0
   -1.1954    0.6987    0.0010 C   0  0  0  0  0  0  0  0  0  0  0  0
   -2.0627    1.1884    0.0010 H   0  0  0  0  0  0  0  0  0  0  0  0
   -1.2022   -0.6944   -0.0000 C   0  0  0  0  0  0  0  0  0  0  0  0
   -2.0803   -1.1857   -0.0014 H   0  0  0  0  0  0  0  0  0  0  0  0
   -0.0016   -1.3993    0.0032 C   0  0  0  0  0  0  0  0  0  0  0  0
   -0.0087   -2.3942    0.0068 H   0  0  0  0  0  0  0  0  0  0  0  0
    1.2022   -0.7015    0.0000 C   0  0  0  0  0  0  0  0  0  0  0  0
    2.0824   -1.1987    0.0026 H   0  0  0  0  0  0  0  0  0  0  0  0
    1.1961    0.6919   -0.0042 C   0  0  0  0  0  0  0  0  0  0  0  0
    2.0657    1.1870   -0.0113 H   0  0  0  0  0  0  0  0  0  0  0  0
  1  5  1  0
  5  8  1  0
  1  2  1  0
  1  3  1  0
  1  4  1  0
  5  6  1  0
  5  7  1  0
  8  9  1  0
  8 10  1  0
  8 11  1  0
 12 16  1  0
 16 17  2  0
 17 19  1  0
 19 21  2  0
 21 23  1  0
 23 25  2  0
 25 16  1  0
 12 13  1  0
 12 14  1  0
 12 15  1  0
 17 18  1  0
 19 20  1  0
 21 22  1  0
 23 24  1  0
 25 26  1  0
M  CHG  1   8   1
M  END
>  <PDB_ID>  (3016) 
pdb6fjy

>  <RESIDUE_NAME>  (3016) 
ALA   PHE

>  <FRAG_NAME>  (3016) 
ETAM   MBZ

>  <FRAG_ATOM_NUM>  (3016) 
fragi: 11  fragj: 15

>  <atom.prop.CHAIN_ID>  (3016) 
A A A A A A A A A A A Z Z Z Z Z Z Z Z Z Z Z Z Z Z Z

>  <atom.prop.IS_HEAVY_ATOM>  (3016) 
1 0 0 0 1 0 0 1 0 0 0 1 0 0 0 1 1 0 1 0 1 0 1 0 1 0

>  <DIFUSE_FUNC_ATOM>  (3016) 
n/a

>  <FINAL_SINGLE_POINT_ENERGY>  (3016) 
0

>  <NONCOV_INTER_ENERGY_QM>  (3016) 
0

>  <FF_Energy>  (3016) 
-4.82

>  <QM_Energy>  (3016) 
-11.4

>  <source>  (3016) 
ETAM_MBZ

>  <Index>  (3016) 
32778

$$$$
ETAM-pdb5fid-A-LYS-67:MBZ-pdb5fid-A-PHE-36
     RDKit          3D

 26 25  0  0  0  0  0  0  0  0999 V2000
   -2.0620   -1.5982   -3.1494 C   0  0  0  0  0  0  0  0  0  0  0  0
   -1.7510   -1.9691   -2.2824 H   0  0  0  0  0  0  0  0  0  0  0  0
   -2.2894   -2.3300   -3.7812 H   0  0  0  0  0  0  0  0  0  0  0  0
   -2.9495   -0.9894   -2.9766 H   0  0  0  0  0  0  0  0  0  0  0  0
   -0.9195   -0.7725   -3.7582 C   0  0  0  0  0  0  0  0  0  0  0  0
   -1.2094   -0.4249   -4.6415 H   0  0  0  0  0  0  0  0  0  0  0  0
   -0.6990   -0.0250   -3.1427 H   0  0  0  0  0  0  0  0  0  0  0  0
    0.2969   -1.6364   -3.9411 N   0  0  0  0  0  4  0  0  0  0  0  0
    0.0084   -2.5428   -4.2399 H   0  0  0  0  0  0  0  0  0  0  0  0
    0.8880   -1.2231   -4.6293 H   0  0  0  0  0  0  0  0  0  0  0  0
    0.7808   -1.7022   -3.0726 H   0  0  0  0  0  0  0  0  0  0  0  0
   -0.0082    2.8853    0.0342 C   0  0  0  0  0  0  0  0  0  0  0  0
   -0.7136    3.2065   -0.5776 H   0  0  0  0  0  0  0  0  0  0  0  0
    0.8845    3.2050   -0.2400 H   0  0  0  0  0  0  0  0  0  0  0  0
   -0.2165    3.2945    1.0228 H   0  0  0  0  0  0  0  0  0  0  0  0
   -0.0025    1.3915    0.0023 C   0  0  0  0  0  0  0  0  0  0  0  0
   -1.1915    0.6802   -0.0051 C   0  0  0  0  0  0  0  0  0  0  0  0
   -2.0618    1.1724   -0.0158 H   0  0  0  0  0  0  0  0  0  0  0  0
   -1.1936   -0.6981   -0.0000 C   0  0  0  0  0  0  0  0  0  0  0  0
   -2.0696   -1.1969    0.0103 H   0  0  0  0  0  0  0  0  0  0  0  0
    0.0031   -1.3826   -0.0071 C   0  0  0  0  0  0  0  0  0  0  0  0
    0.0052   -2.3848   -0.0176 H   0  0  0  0  0  0  0  0  0  0  0  0
    1.1936   -0.6849    0.0000 C   0  0  0  0  0  0  0  0  0  0  0  0
    2.0796   -1.1850   -0.0006 H   0  0  0  0  0  0  0  0  0  0  0  0
    1.1909    0.6939    0.0099 C   0  0  0  0  0  0  0  0  0  0  0  0
    2.0578    1.1936    0.0221 H   0  0  0  0  0  0  0  0  0  0  0  0
  1  5  1  0
  5  8  1  0
  1  2  1  0
  1  3  1  0
  1  4  1  0
  5  6  1  0
  5  7  1  0
  8  9  1  0
  8 10  1  0
  8 11  1  0
 12 16  1  0
 16 17  2  0
 17 19  1  0
 19 21  2  0
 21 23  1  0
 23 25  2  0
 25 16  1  0
 12 13  1  0
 12 14  1  0
 12 15  1  0
 17 18  1  0
 19 20  1  0
 21 22  1  0
 23 24  1  0
 25 26  1  0
M  CHG  1   8   1
M  END
>  <PDB_ID>  (3017) 
pdb5fid

>  <RESIDUE_NAME>  (3017) 
LYS   PHE

>  <FRAG_NAME>  (3017) 
ETAM   MBZ

>  <FRAG_ATOM_NUM>  (3017) 
fragi: 11  fragj: 15

>  <atom.prop.CHAIN_ID>  (3017) 
A A A A A A A A A A A Z Z Z Z Z Z Z Z Z Z Z Z Z Z Z

>  <atom.prop.IS_HEAVY_ATOM>  (3017) 
1 0 0 0 1 0 0 1 0 0 0 1 0 0 0 1 1 0 1 0 1 0 1 0 1 0

>  <DIFUSE_FUNC_ATOM>  (3017) 
n/a

>  <FINAL_SINGLE_POINT_ENERGY>  (3017) 
0

>  <NONCOV_INTER_ENERGY_QM>  (3017) 
0

>  <FF_Energy>  (3017) 
-5.11

>  <QM_Energy>  (3017) 
-10.2

>  <source>  (3017) 
ETAM_MBZ

>  <Index>  (3017) 
32826

$$$$
ETAM-pdb5fji-B-LYS-640:MBZ-pdb5fji-B-PHE-632
     RDKit          3D

 26 25  0  0  0  0  0  0  0  0999 V2000
    1.1976   -0.0037   -3.6438 C   0  0  0  0  0  0  0  0  0  0  0  0
    0.9132    0.0500   -2.6834 H   0  0  0  0  0  0  0  0  0  0  0  0
    1.1445    0.9114   -4.0514 H   0  0  0  0  0  0  0  0  0  0  0  0
    2.2242   -0.3662   -3.6976 H   0  0  0  0  0  0  0  0  0  0  0  0
    0.1964   -0.9027   -4.3787 C   0  0  0  0  0  0  0  0  0  0  0  0
    0.2832   -0.7655   -5.3427 H   0  0  0  0  0  0  0  0  0  0  0  0
    0.3335   -1.8318   -4.1077 H   0  0  0  0  0  0  0  0  0  0  0  0
   -1.1855   -0.4578   -3.9389 N   0  0  0  0  0  4  0  0  0  0  0  0
   -1.2745    0.5188   -4.1102 H   0  0  0  0  0  0  0  0  0  0  0  0
   -1.8634   -0.9632   -4.4628 H   0  0  0  0  0  0  0  0  0  0  0  0
   -1.2859   -0.6492   -2.9676 H   0  0  0  0  0  0  0  0  0  0  0  0
    0.0383    2.9646   -0.0802 C   0  0  0  0  0  0  0  0  0  0  0  0
   -0.7408    3.2487   -0.6128 H   0  0  0  0  0  0  0  0  0  0  0  0
    0.8891    3.2068   -0.5142 H   0  0  0  0  0  0  0  0  0  0  0  0
   -0.0079    3.4502    0.8945 H   0  0  0  0  0  0  0  0  0  0  0  0
   -0.0052    1.4157   -0.0179 C   0  0  0  0  0  0  0  0  0  0  0  0
   -1.1932    0.7154   -0.0205 C   0  0  0  0  0  0  0  0  0  0  0  0
   -2.0647    1.1869   -0.0385 H   0  0  0  0  0  0  0  0  0  0  0  0
   -1.1910   -0.6998   -0.0000 C   0  0  0  0  0  0  0  0  0  0  0  0
   -2.0727   -1.1839   -0.0184 H   0  0  0  0  0  0  0  0  0  0  0  0
    0.0070   -1.4024    0.0461 C   0  0  0  0  0  0  0  0  0  0  0  0
   -0.0061   -2.3973    0.1111 H   0  0  0  0  0  0  0  0  0  0  0  0
    1.1910   -0.7097    0.0000 C   0  0  0  0  0  0  0  0  0  0  0  0
    2.0798   -1.2039   -0.0274 H   0  0  0  0  0  0  0  0  0  0  0  0
    1.1914    0.6807   -0.0077 C   0  0  0  0  0  0  0  0  0  0  0  0
    2.0635    1.1762   -0.0069 H   0  0  0  0  0  0  0  0  0  0  0  0
  1  5  1  0
  5  8  1  0
  1  2  1  0
  1  3  1  0
  1  4  1  0
  5  6  1  0
  5  7  1  0
  8  9  1  0
  8 10  1  0
  8 11  1  0
 12 16  1  0
 16 17  2  0
 17 19  1  0
 19 21  2  0
 21 23  1  0
 23 25  2  0
 25 16  1  0
 12 13  1  0
 12 14  1  0
 12 15  1  0
 17 18  1  0
 19 20  1  0
 21 22  1  0
 23 24  1  0
 25 26  1  0
M  CHG  1   8   1
M  END
>  <PDB_ID>  (3018) 
pdb5fji

>  <RESIDUE_NAME>  (3018) 
LYS   PHE

>  <FRAG_NAME>  (3018) 
ETAM   MBZ

>  <FRAG_ATOM_NUM>  (3018) 
fragi: 11  fragj: 15

>  <atom.prop.CHAIN_ID>  (3018) 
A A A A A A A A A A A Z Z Z Z Z Z Z Z Z Z Z Z Z Z Z

>  <atom.prop.IS_HEAVY_ATOM>  (3018) 
1 0 0 0 1 0 0 1 0 0 0 1 0 0 0 1 1 0 1 0 1 0 1 0 1 0

>  <DIFUSE_FUNC_ATOM>  (3018) 
n/a

>  <FINAL_SINGLE_POINT_ENERGY>  (3018) 
0

>  <NONCOV_INTER_ENERGY_QM>  (3018) 
0

>  <FF_Energy>  (3018) 
-5.99

>  <QM_Energy>  (3018) 
-11.33

>  <source>  (3018) 
ETAM_MBZ

>  <Index>  (3018) 
32854

$$$$
ETAM-pdb5fjx-C-LYS-387:MBZ-pdb5fjx-C-PHE-345
     RDKit          3D

 26 25  0  0  0  0  0  0  0  0999 V2000
   -0.5912   -0.3437    4.1756 C   0  0  0  0  0  0  0  0  0  0  0  0
   -0.6680    0.2286    3.3661 H   0  0  0  0  0  0  0  0  0  0  0  0
    0.1837   -0.9614    4.0914 H   0  0  0  0  0  0  0  0  0  0  0  0
   -0.4340    0.2980    5.0425 H   0  0  0  0  0  0  0  0  0  0  0  0
   -1.8613   -1.1704    4.3108 C   0  0  0  0  0  0  0  0  0  0  0  0
   -1.8903   -1.5726    5.2225 H   0  0  0  0  0  0  0  0  0  0  0  0
   -2.6503   -0.5764    4.1756 H   0  0  0  0  0  0  0  0  0  0  0  0
   -1.8761   -2.2502    3.2940 N   0  0  0  0  0  4  0  0  0  0  0  0
   -2.8175   -2.5503    3.1381 H   0  0  0  0  0  0  0  0  0  0  0  0
   -1.4900   -1.9078    2.4371 H   0  0  0  0  0  0  0  0  0  0  0  0
   -1.3305   -3.0231    3.6187 H   0  0  0  0  0  0  0  0  0  0  0  0
   -0.0046    2.9153   -0.0292 C   0  0  0  0  0  0  0  0  0  0  0  0
   -0.7130    3.2060   -0.6555 H   0  0  0  0  0  0  0  0  0  0  0  0
    0.8875    3.2166   -0.3299 H   0  0  0  0  0  0  0  0  0  0  0  0
   -0.2033    3.3858    0.9337 H   0  0  0  0  0  0  0  0  0  0  0  0
   -0.0017    1.4039    0.0037 C   0  0  0  0  0  0  0  0  0  0  0  0
   -1.1965    0.6875   -0.0050 C   0  0  0  0  0  0  0  0  0  0  0  0
   -2.0644    1.1776   -0.0161 H   0  0  0  0  0  0  0  0  0  0  0  0
   -1.1981   -0.6998   -0.0000 C   0  0  0  0  0  0  0  0  0  0  0  0
   -2.0745   -1.1960   -0.0003 H   0  0  0  0  0  0  0  0  0  0  0  0
    0.0017   -1.3905    0.0069 C   0  0  0  0  0  0  0  0  0  0  0  0
    0.0002   -2.3914    0.0162 H   0  0  0  0  0  0  0  0  0  0  0  0
    1.1981   -0.6945    0.0000 C   0  0  0  0  0  0  0  0  0  0  0  0
    2.0817   -1.1932    0.0002 H   0  0  0  0  0  0  0  0  0  0  0  0
    1.1966    0.6933   -0.0055 C   0  0  0  0  0  0  0  0  0  0  0  0
    2.0634    1.1907   -0.0167 H   0  0  0  0  0  0  0  0  0  0  0  0
  1  5  1  0
  5  8  1  0
  1  2  1  0
  1  3  1  0
  1  4  1  0
  5  6  1  0
  5  7  1  0
  8  9  1  0
  8 10  1  0
  8 11  1  0
 12 16  1  0
 16 17  2  0
 17 19  1  0
 19 21  2  0
 21 23  1  0
 23 25  2  0
 25 16  1  0
 12 13  1  0
 12 14  1  0
 12 15  1  0
 17 18  1  0
 19 20  1  0
 21 22  1  0
 23 24  1  0
 25 26  1  0
M  CHG  1   8   1
M  END
>  <PDB_ID>  (3019) 
pdb5fjx

>  <RESIDUE_NAME>  (3019) 
LYS   PHE

>  <FRAG_NAME>  (3019) 
ETAM   MBZ

>  <FRAG_ATOM_NUM>  (3019) 
fragi: 11  fragj: 15

>  <atom.prop.CHAIN_ID>  (3019) 
A A A A A A A A A A A Z Z Z Z Z Z Z Z Z Z Z Z Z Z Z

>  <atom.prop.IS_HEAVY_ATOM>  (3019) 
1 0 0 0 1 0 0 1 0 0 0 1 0 0 0 1 1 0 1 0 1 0 1 0 1 0

>  <DIFUSE_FUNC_ATOM>  (3019) 
n/a

>  <FINAL_SINGLE_POINT_ENERGY>  (3019) 
0

>  <NONCOV_INTER_ENERGY_QM>  (3019) 
0

>  <FF_Energy>  (3019) 
-3.91

>  <QM_Energy>  (3019) 
-10.13

>  <source>  (3019) 
ETAM_MBZ

>  <Index>  (3019) 
32871

$$$$
ETAM-pdb5fo8-A-LYS-610:MBZ-pdb5fo8-A-PHE-603
     RDKit          3D

 26 25  0  0  0  0  0  0  0  0999 V2000
   -1.9985   -0.7202    3.9480 C   0  0  0  0  0  0  0  0  0  0  0  0
   -2.1778   -0.1054    3.1847 H   0  0  0  0  0  0  0  0  0  0  0  0
   -1.8888   -0.1972    4.7894 H   0  0  0  0  0  0  0  0  0  0  0  0
   -2.8467   -1.3953    4.0616 H   0  0  0  0  0  0  0  0  0  0  0  0
   -0.7135   -1.4741    3.6730 C   0  0  0  0  0  0  0  0  0  0  0  0
   -0.5390   -2.1103    4.4256 H   0  0  0  0  0  0  0  0  0  0  0  0
   -0.8108   -1.9891    2.8206 H   0  0  0  0  0  0  0  0  0  0  0  0
    0.4400   -0.5385    3.5481 N   0  0  0  0  0  4  0  0  0  0  0  0
    1.1746   -0.9865    3.0404 H   0  0  0  0  0  0  0  0  0  0  0  0
    0.1480    0.2832    3.0602 H   0  0  0  0  0  0  0  0  0  0  0  0
    0.7645   -0.2897    4.4597 H   0  0  0  0  0  0  0  0  0  0  0  0
   -0.0053    2.8984   -0.0025 C   0  0  0  0  0  0  0  0  0  0  0  0
    0.8383    3.2063   -0.4150 H   0  0  0  0  0  0  0  0  0  0  0  0
   -0.0838    3.2074    0.9324 H   0  0  0  0  0  0  0  0  0  0  0  0
   -0.8313    3.3305   -0.5674 H   0  0  0  0  0  0  0  0  0  0  0  0
    0.0005    1.3965    0.0026 C   0  0  0  0  0  0  0  0  0  0  0  0
   -1.1906    0.6893   -0.0024 C   0  0  0  0  0  0  0  0  0  0  0  0
   -2.0596    1.1807   -0.0090 H   0  0  0  0  0  0  0  0  0  0  0  0
   -1.1960   -0.6950    0.0000 C   0  0  0  0  0  0  0  0  0  0  0  0
   -2.0752   -1.1883    0.0024 H   0  0  0  0  0  0  0  0  0  0  0  0
   -0.0025   -1.3876    0.0004 C   0  0  0  0  0  0  0  0  0  0  0  0
   -0.0045   -2.3882    0.0003 H   0  0  0  0  0  0  0  0  0  0  0  0
    1.1960   -0.6941   -0.0000 C   0  0  0  0  0  0  0  0  0  0  0  0
    2.0773   -1.1942    0.0011 H   0  0  0  0  0  0  0  0  0  0  0  0
    1.1925    0.6909   -0.0006 C   0  0  0  0  0  0  0  0  0  0  0  0
    2.0622    1.1875   -0.0039 H   0  0  0  0  0  0  0  0  0  0  0  0
  1  5  1  0
  5  8  1  0
  1  2  1  0
  1  3  1  0
  1  4  1  0
  5  6  1  0
  5  7  1  0
  8  9  1  0
  8 10  1  0
  8 11  1  0
 12 16  1  0
 16 17  2  0
 17 19  1  0
 19 21  2  0
 21 23  1  0
 23 25  2  0
 25 16  1  0
 12 13  1  0
 12 14  1  0
 12 15  1  0
 17 18  1  0
 19 20  1  0
 21 22  1  0
 23 24  1  0
 25 26  1  0
M  CHG  1   8   1
M  END
>  <PDB_ID>  (3020) 
pdb5fo8

>  <RESIDUE_NAME>  (3020) 
LYS   PHE

>  <FRAG_NAME>  (3020) 
ETAM   MBZ

>  <FRAG_ATOM_NUM>  (3020) 
fragi: 11  fragj: 15

>  <atom.prop.CHAIN_ID>  (3020) 
A A A A A A A A A A A Z Z Z Z Z Z Z Z Z Z Z Z Z Z Z

>  <atom.prop.IS_HEAVY_ATOM>  (3020) 
1 0 0 0 1 0 0 1 0 0 0 1 0 0 0 1 1 0 1 0 1 0 1 0 1 0

>  <DIFUSE_FUNC_ATOM>  (3020) 
n/a

>  <FINAL_SINGLE_POINT_ENERGY>  (3020) 
0

>  <NONCOV_INTER_ENERGY_QM>  (3020) 
0

>  <FF_Energy>  (3020) 
-7.71

>  <QM_Energy>  (3020) 
-13.47

>  <source>  (3020) 
ETAM_MBZ

>  <Index>  (3020) 
32918

$$$$
ETAM-pdb5fia-B-LYS-59:MBZ-pdb5fia-B-PHE-135
     RDKit          3D

 26 25  0  0  0  0  0  0  0  0999 V2000
    0.2605   -2.7242    3.7171 C   0  0  0  0  0  0  0  0  0  0  0  0
    0.1635   -3.3904    2.9835 H   0  0  0  0  0  0  0  0  0  0  0  0
    0.0031   -3.1322    4.5885 H   0  0  0  0  0  0  0  0  0  0  0  0
    1.3040   -2.4137    3.7704 H   0  0  0  0  0  0  0  0  0  0  0  0
   -0.6847   -1.5498    3.4343 C   0  0  0  0  0  0  0  0  0  0  0  0
   -0.6691   -0.9301    4.2071 H   0  0  0  0  0  0  0  0  0  0  0  0
   -0.3914   -1.0912    2.6063 H   0  0  0  0  0  0  0  0  0  0  0  0
   -2.0835   -2.0673    3.2442 N   0  0  0  0  0  4  0  0  0  0  0  0
   -2.4196   -1.7716    2.3535 H   0  0  0  0  0  0  0  0  0  0  0  0
   -2.0700   -3.0630    3.2898 H   0  0  0  0  0  0  0  0  0  0  0  0
   -2.6651   -1.7012    3.9671 H   0  0  0  0  0  0  0  0  0  0  0  0
   -0.0010    2.9153    0.0190 C   0  0  0  0  0  0  0  0  0  0  0  0
    0.9233    3.2200   -0.1468 H   0  0  0  0  0  0  0  0  0  0  0  0
   -0.3318    3.2174    0.8980 H   0  0  0  0  0  0  0  0  0  0  0  0
   -0.6361    3.3672   -0.7429 H   0  0  0  0  0  0  0  0  0  0  0  0
   -0.0092    1.4077    0.0055 C   0  0  0  0  0  0  0  0  0  0  0  0
   -1.1991    0.6964    0.0026 C   0  0  0  0  0  0  0  0  0  0  0  0
   -2.0707    1.1768    0.0013 H   0  0  0  0  0  0  0  0  0  0  0  0
   -1.1992   -0.7062    0.0000 C   0  0  0  0  0  0  0  0  0  0  0  0
   -2.0671   -1.2027    0.0122 H   0  0  0  0  0  0  0  0  0  0  0  0
    0.0200   -1.4006   -0.0177 C   0  0  0  0  0  0  0  0  0  0  0  0
    0.0135   -2.3967   -0.0434 H   0  0  0  0  0  0  0  0  0  0  0  0
    1.1992   -0.6944    0.0000 C   0  0  0  0  0  0  0  0  0  0  0  0
    2.0936   -1.1805    0.0081 H   0  0  0  0  0  0  0  0  0  0  0  0
    1.1883    0.6971    0.0096 C   0  0  0  0  0  0  0  0  0  0  0  0
    2.0571    1.1965    0.0192 H   0  0  0  0  0  0  0  0  0  0  0  0
  1  5  1  0
  5  8  1  0
  1  2  1  0
  1  3  1  0
  1  4  1  0
  5  6  1  0
  5  7  1  0
  8  9  1  0
  8 10  1  0
  8 11  1  0
 12 16  1  0
 16 17  2  0
 17 19  1  0
 19 21  2  0
 21 23  1  0
 23 25  2  0
 25 16  1  0
 12 13  1  0
 12 14  1  0
 12 15  1  0
 17 18  1  0
 19 20  1  0
 21 22  1  0
 23 24  1  0
 25 26  1  0
M  CHG  1   8   1
M  END
>  <PDB_ID>  (3021) 
pdb5fia

>  <RESIDUE_NAME>  (3021) 
LYS   PHE

>  <FRAG_NAME>  (3021) 
ETAM   MBZ

>  <FRAG_ATOM_NUM>  (3021) 
fragi: 11  fragj: 15

>  <atom.prop.CHAIN_ID>  (3021) 
A A A A A A A A A A A Z Z Z Z Z Z Z Z Z Z Z Z Z Z Z

>  <atom.prop.IS_HEAVY_ATOM>  (3021) 
1 0 0 0 1 0 0 1 0 0 0 1 0 0 0 1 1 0 1 0 1 0 1 0 1 0

>  <DIFUSE_FUNC_ATOM>  (3021) 
n/a

>  <FINAL_SINGLE_POINT_ENERGY>  (3021) 
0

>  <NONCOV_INTER_ENERGY_QM>  (3021) 
0

>  <FF_Energy>  (3021) 
-3.47

>  <QM_Energy>  (3021) 
-9.69

>  <source>  (3021) 
ETAM_MBZ

>  <Index>  (3021) 
32933

$$$$
ETAM-pdb5fog-A-LYS-502:MBZ-pdb5fog-A-PHE-469
     RDKit          3D

 26 25  0  0  0  0  0  0  0  0999 V2000
    4.4750   -1.1451    2.8055 C   0  0  0  0  0  0  0  0  0  0  0  0
    5.4140   -1.3720    3.0231 H   0  0  0  0  0  0  0  0  0  0  0  0
    3.9103   -1.9569    2.7671 H   0  0  0  0  0  0  0  0  0  0  0  0
    4.0849   -0.4744    3.5711 H   0  0  0  0  0  0  0  0  0  0  0  0
    4.4415   -0.4654    1.4454 C   0  0  0  0  0  0  0  0  0  0  0  0
    3.5437   -0.0171    1.3291 H   0  0  0  0  0  0  0  0  0  0  0  0
    5.1504    0.2541    1.4251 H   0  0  0  0  0  0  0  0  0  0  0  0
    4.6670   -1.4018    0.3133 N   0  0  0  0  0  4  0  0  0  0  0  0
    3.7953   -1.5978   -0.1353 H   0  0  0  0  0  0  0  0  0  0  0  0
    5.2939   -0.9838   -0.3442 H   0  0  0  0  0  0  0  0  0  0  0  0
    5.0641   -2.2524    0.6593 H   0  0  0  0  0  0  0  0  0  0  0  0
   -0.0054    2.9295   -0.0011 C   0  0  0  0  0  0  0  0  0  0  0  0
    0.8118    3.2356    0.4574 H   0  0  0  0  0  0  0  0  0  0  0  0
   -0.8209    3.2307    0.4666 H   0  0  0  0  0  0  0  0  0  0  0  0
   -0.0123    3.3772   -0.9949 H   0  0  0  0  0  0  0  0  0  0  0  0
   -0.0003    1.4104   -0.0020 C   0  0  0  0  0  0  0  0  0  0  0  0
   -1.1997    0.6896    0.0019 C   0  0  0  0  0  0  0  0  0  0  0  0
   -2.0667    1.1792    0.0046 H   0  0  0  0  0  0  0  0  0  0  0  0
   -1.2003   -0.7021    0.0000 C   0  0  0  0  0  0  0  0  0  0  0  0
   -2.0770   -1.1970    0.0004 H   0  0  0  0  0  0  0  0  0  0  0  0
    0.0003   -1.3957   -0.0005 C   0  0  0  0  0  0  0  0  0  0  0  0
   -0.0018   -2.3951   -0.0019 H   0  0  0  0  0  0  0  0  0  0  0  0
    1.2003   -0.6982   -0.0000 C   0  0  0  0  0  0  0  0  0  0  0  0
    2.0829   -1.1960    0.0013 H   0  0  0  0  0  0  0  0  0  0  0  0
    1.1997    0.6959    0.0006 C   0  0  0  0  0  0  0  0  0  0  0  0
    2.0675    1.1903    0.0016 H   0  0  0  0  0  0  0  0  0  0  0  0
  1  5  1  0
  5  8  1  0
  1  2  1  0
  1  3  1  0
  1  4  1  0
  5  6  1  0
  5  7  1  0
  8  9  1  0
  8 10  1  0
  8 11  1  0
 12 16  1  0
 16 17  2  0
 17 19  1  0
 19 21  2  0
 21 23  1  0
 23 25  2  0
 25 16  1  0
 12 13  1  0
 12 14  1  0
 12 15  1  0
 17 18  1  0
 19 20  1  0
 21 22  1  0
 23 24  1  0
 25 26  1  0
M  CHG  1   8   1
M  END
>  <PDB_ID>  (3022) 
pdb5fog

>  <RESIDUE_NAME>  (3022) 
LYS   PHE

>  <FRAG_NAME>  (3022) 
ETAM   MBZ

>  <FRAG_ATOM_NUM>  (3022) 
fragi: 11  fragj: 15

>  <atom.prop.CHAIN_ID>  (3022) 
A A A A A A A A A A A Z Z Z Z Z Z Z Z Z Z Z Z Z Z Z

>  <atom.prop.IS_HEAVY_ATOM>  (3022) 
1 0 0 0 1 0 0 1 0 0 0 1 0 0 0 1 1 0 1 0 1 0 1 0 1 0

>  <DIFUSE_FUNC_ATOM>  (3022) 
n/a

>  <FINAL_SINGLE_POINT_ENERGY>  (3022) 
0

>  <NONCOV_INTER_ENERGY_QM>  (3022) 
0

>  <FF_Energy>  (3022) 
2.05

>  <QM_Energy>  (3022) 
-3.46

>  <source>  (3022) 
ETAM_MBZ

>  <Index>  (3022) 
32955

$$$$
ETAM-pdb6fxo-A-LYS-85:MBZ-pdb6fxo-A-PHE-81
     RDKit          3D

 26 25  0  0  0  0  0  0  0  0999 V2000
    0.7982   -1.3447    4.8832 C   0  0  0  0  0  0  0  0  0  0  0  0
    1.5608   -1.4220    4.2437 H   0  0  0  0  0  0  0  0  0  0  0  0
    0.8369   -2.0890    5.5476 H   0  0  0  0  0  0  0  0  0  0  0  0
    0.8485   -0.3865    5.4004 H   0  0  0  0  0  0  0  0  0  0  0  0
   -0.4768   -1.4523    4.1206 C   0  0  0  0  0  0  0  0  0  0  0  0
   -1.2490   -1.2339    4.7260 H   0  0  0  0  0  0  0  0  0  0  0  0
   -0.4708   -0.7945    3.3598 H   0  0  0  0  0  0  0  0  0  0  0  0
   -0.6587   -2.8121    3.5793 N   0  0  0  0  0  4  0  0  0  0  0  0
    0.1236   -3.4190    3.8965 H   0  0  0  0  0  0  0  0  0  0  0  0
   -1.5606   -3.2027    3.9191 H   0  0  0  0  0  0  0  0  0  0  0  0
   -0.6682   -2.7729    2.5402 H   0  0  0  0  0  0  0  0  0  0  0  0
   -0.0035    2.9071   -0.0054 C   0  0  0  0  0  0  0  0  0  0  0  0
   -0.5700    3.2069   -0.7555 H   0  0  0  0  0  0  0  0  0  0  0  0
    0.9288    3.2118   -0.1059 H   0  0  0  0  0  0  0  0  0  0  0  0
   -0.4021    3.3401    0.9121 H   0  0  0  0  0  0  0  0  0  0  0  0
   -0.0008    1.3995    0.0000 C   0  0  0  0  0  0  0  0  0  0  0  0
   -1.1878    0.6859   -0.0022 C   0  0  0  0  0  0  0  0  0  0  0  0
   -2.0603    1.1747   -0.0072 H   0  0  0  0  0  0  0  0  0  0  0  0
   -1.1899   -0.6986   -0.0000 C   0  0  0  0  0  0  0  0  0  0  0  0
   -2.0727   -1.1906    0.0034 H   0  0  0  0  0  0  0  0  0  0  0  0
   -0.0036   -1.3828   -0.0008 C   0  0  0  0  0  0  0  0  0  0  0  0
   -0.0063   -2.3892   -0.0020 H   0  0  0  0  0  0  0  0  0  0  0  0
    1.1899   -0.6990    0.0000 C   0  0  0  0  0  0  0  0  0  0  0  0
    2.0740   -1.1956   -0.0005 H   0  0  0  0  0  0  0  0  0  0  0  0
    1.1921    0.6950    0.0030 C   0  0  0  0  0  0  0  0  0  0  0  0
    2.0613    1.1854    0.0071 H   0  0  0  0  0  0  0  0  0  0  0  0
  1  5  1  0
  5  8  1  0
  1  2  1  0
  1  3  1  0
  1  4  1  0
  5  6  1  0
  5  7  1  0
  8  9  1  0
  8 10  1  0
  8 11  1  0
 12 16  1  0
 16 17  2  0
 17 19  1  0
 19 21  2  0
 21 23  1  0
 23 25  2  0
 25 16  1  0
 12 13  1  0
 12 14  1  0
 12 15  1  0
 17 18  1  0
 19 20  1  0
 21 22  1  0
 23 24  1  0
 25 26  1  0
M  CHG  1   8   1
M  END
>  <PDB_ID>  (3023) 
pdb6fxo

>  <RESIDUE_NAME>  (3023) 
LYS   PHE

>  <FRAG_NAME>  (3023) 
ETAM   MBZ

>  <FRAG_ATOM_NUM>  (3023) 
fragi: 11  fragj: 15

>  <atom.prop.CHAIN_ID>  (3023) 
A A A A A A A A A A A Z Z Z Z Z Z Z Z Z Z Z Z Z Z Z

>  <atom.prop.IS_HEAVY_ATOM>  (3023) 
1 0 0 0 1 0 0 1 0 0 0 1 0 0 0 1 1 0 1 0 1 0 1 0 1 0

>  <DIFUSE_FUNC_ATOM>  (3023) 
n/a

>  <FINAL_SINGLE_POINT_ENERGY>  (3023) 
0

>  <NONCOV_INTER_ENERGY_QM>  (3023) 
0

>  <FF_Energy>  (3023) 
-3.35

>  <QM_Energy>  (3023) 
-8.62

>  <source>  (3023) 
ETAM_MBZ

>  <Index>  (3023) 
32958

$$$$
ETAM-pdb6g00-A-LYS-87:MBZ-pdb6g00-A-PHE-34
     RDKit          3D

 26 25  0  0  0  0  0  0  0  0999 V2000
    0.1751   -2.5989   -3.8474 C   0  0  0  0  0  0  0  0  0  0  0  0
    0.5405   -3.1883   -3.1519 H   0  0  0  0  0  0  0  0  0  0  0  0
    0.4313   -2.8794   -4.7526 H   0  0  0  0  0  0  0  0  0  0  0  0
   -0.9092   -2.5302   -3.7596 H   0  0  0  0  0  0  0  0  0  0  0  0
    0.7385   -1.1939   -3.6151 C   0  0  0  0  0  0  0  0  0  0  0  0
    0.4412   -0.6113   -4.3569 H   0  0  0  0  0  0  0  0  0  0  0  0
    0.4053   -0.8630   -2.7441 H   0  0  0  0  0  0  0  0  0  0  0  0
    2.1958   -1.2947   -3.5976 N   0  0  0  0  0  4  0  0  0  0  0  0
    2.5532   -1.2991   -4.5358 H   0  0  0  0  0  0  0  0  0  0  0  0
    2.5903   -0.5135   -3.1045 H   0  0  0  0  0  0  0  0  0  0  0  0
    2.4780   -2.1433   -3.1397 H   0  0  0  0  0  0  0  0  0  0  0  0
    0.0488    2.9185    0.0041 C   0  0  0  0  0  0  0  0  0  0  0  0
   -0.7440    3.2442   -0.4815 H   0  0  0  0  0  0  0  0  0  0  0  0
    0.8867    3.2006   -0.4305 H   0  0  0  0  0  0  0  0  0  0  0  0
    0.0284    3.3298    1.0133 H   0  0  0  0  0  0  0  0  0  0  0  0
    0.0089    1.4046   -0.0202 C   0  0  0  0  0  0  0  0  0  0  0  0
   -1.2063    0.7041    0.0060 C   0  0  0  0  0  0  0  0  0  0  0  0
   -2.0595    1.1968    0.0270 H   0  0  0  0  0  0  0  0  0  0  0  0
   -1.1965   -0.6812    0.0000 C   0  0  0  0  0  0  0  0  0  0  0  0
   -2.0753   -1.1847   -0.0081 H   0  0  0  0  0  0  0  0  0  0  0  0
    0.0075   -1.3966    0.0073 C   0  0  0  0  0  0  0  0  0  0  0  0
   -0.0158   -2.3927    0.0175 H   0  0  0  0  0  0  0  0  0  0  0  0
    1.1965   -0.7110   -0.0000 C   0  0  0  0  0  0  0  0  0  0  0  0
    2.0820   -1.2028   -0.0095 H   0  0  0  0  0  0  0  0  0  0  0  0
    1.1899    0.6801    0.0069 C   0  0  0  0  0  0  0  0  0  0  0  0
    2.0689    1.1716    0.0309 H   0  0  0  0  0  0  0  0  0  0  0  0
  1  5  1  0
  5  8  1  0
  1  2  1  0
  1  3  1  0
  1  4  1  0
  5  6  1  0
  5  7  1  0
  8  9  1  0
  8 10  1  0
  8 11  1  0
 12 16  1  0
 16 17  2  0
 17 19  1  0
 19 21  2  0
 21 23  1  0
 23 25  2  0
 25 16  1  0
 12 13  1  0
 12 14  1  0
 12 15  1  0
 17 18  1  0
 19 20  1  0
 21 22  1  0
 23 24  1  0
 25 26  1  0
M  CHG  1   8   1
M  END
>  <PDB_ID>  (3024) 
pdb6g00

>  <RESIDUE_NAME>  (3024) 
LYS   PHE

>  <FRAG_NAME>  (3024) 
ETAM   MBZ

>  <FRAG_ATOM_NUM>  (3024) 
fragi: 11  fragj: 15

>  <atom.prop.CHAIN_ID>  (3024) 
A A A A A A A A A A A Z Z Z Z Z Z Z Z Z Z Z Z Z Z Z

>  <atom.prop.IS_HEAVY_ATOM>  (3024) 
1 0 0 0 1 0 0 1 0 0 0 1 0 0 0 1 1 0 1 0 1 0 1 0 1 0

>  <DIFUSE_FUNC_ATOM>  (3024) 
n/a

>  <FINAL_SINGLE_POINT_ENERGY>  (3024) 
0

>  <NONCOV_INTER_ENERGY_QM>  (3024) 
0

>  <FF_Energy>  (3024) 
-4.38

>  <QM_Energy>  (3024) 
-9.46

>  <source>  (3024) 
ETAM_MBZ

>  <Index>  (3024) 
32983

$$$$
ETAM-pdb6g0y-C-LYS-8:MBZ-pdb6g0y-A-PHE-28
     RDKit          3D

 26 25  0  0  0  0  0  0  0  0999 V2000
    2.5050   -3.5644   -3.9004 C   0  0  0  0  0  0  0  0  0  0  0  0
    3.2127   -3.6023   -3.2024 H   0  0  0  0  0  0  0  0  0  0  0  0
    2.8888   -3.2687   -4.7689 H   0  0  0  0  0  0  0  0  0  0  0  0
    2.0772   -4.5594   -4.0232 H   0  0  0  0  0  0  0  0  0  0  0  0
    1.4508   -2.5588   -3.4691 C   0  0  0  0  0  0  0  0  0  0  0  0
    1.8541   -1.9319   -2.7969 H   0  0  0  0  0  0  0  0  0  0  0  0
    1.1582   -2.0296   -4.2699 H   0  0  0  0  0  0  0  0  0  0  0  0
    0.2634   -3.2243   -2.8644 N   0  0  0  0  0  4  0  0  0  0  0  0
   -0.1436   -2.6186   -2.1820 H   0  0  0  0  0  0  0  0  0  0  0  0
   -0.4060   -3.4211   -3.5803 H   0  0  0  0  0  0  0  0  0  0  0  0
    0.5484   -4.0771   -2.4284 H   0  0  0  0  0  0  0  0  0  0  0  0
    0.0353    2.9167    0.0180 C   0  0  0  0  0  0  0  0  0  0  0  0
   -0.8302    3.2475   -0.3165 H   0  0  0  0  0  0  0  0  0  0  0  0
    0.7866    3.2176   -0.5428 H   0  0  0  0  0  0  0  0  0  0  0  0
    0.1829    3.3311    1.0152 H   0  0  0  0  0  0  0  0  0  0  0  0
    0.0037    1.4093   -0.0067 C   0  0  0  0  0  0  0  0  0  0  0  0
   -1.2031    0.7163    0.0121 C   0  0  0  0  0  0  0  0  0  0  0  0
   -2.0624    1.2019    0.0323 H   0  0  0  0  0  0  0  0  0  0  0  0
   -1.2047   -0.6870    0.0000 C   0  0  0  0  0  0  0  0  0  0  0  0
   -2.0828   -1.1791   -0.0018 H   0  0  0  0  0  0  0  0  0  0  0  0
    0.0031   -1.4032   -0.0079 C   0  0  0  0  0  0  0  0  0  0  0  0
   -0.0161   -2.3971   -0.0198 H   0  0  0  0  0  0  0  0  0  0  0  0
    1.2047   -0.7119   -0.0000 C   0  0  0  0  0  0  0  0  0  0  0  0
    2.0836   -1.2093    0.0059 H   0  0  0  0  0  0  0  0  0  0  0  0
    1.1963    0.6766    0.0025 C   0  0  0  0  0  0  0  0  0  0  0  0
    2.0708    1.1747    0.0102 H   0  0  0  0  0  0  0  0  0  0  0  0
  1  5  1  0
  5  8  1  0
  1  2  1  0
  1  3  1  0
  1  4  1  0
  5  6  1  0
  5  7  1  0
  8  9  1  0
  8 10  1  0
  8 11  1  0
 12 16  1  0
 16 17  2  0
 17 19  1  0
 19 21  2  0
 21 23  1  0
 23 25  2  0
 25 16  1  0
 12 13  1  0
 12 14  1  0
 12 15  1  0
 17 18  1  0
 19 20  1  0
 21 22  1  0
 23 24  1  0
 25 26  1  0
M  CHG  1   8   1
M  END
>  <PDB_ID>  (3025) 
pdb6g0y

>  <RESIDUE_NAME>  (3025) 
LYS   PHE

>  <FRAG_NAME>  (3025) 
ETAM   MBZ

>  <FRAG_ATOM_NUM>  (3025) 
fragi: 11  fragj: 15

>  <atom.prop.CHAIN_ID>  (3025) 
A A A A A A A A A A A Z Z Z Z Z Z Z Z Z Z Z Z Z Z Z

>  <atom.prop.IS_HEAVY_ATOM>  (3025) 
1 0 0 0 1 0 0 1 0 0 0 1 0 0 0 1 1 0 1 0 1 0 1 0 1 0

>  <DIFUSE_FUNC_ATOM>  (3025) 
n/a

>  <FINAL_SINGLE_POINT_ENERGY>  (3025) 
0

>  <NONCOV_INTER_ENERGY_QM>  (3025) 
0

>  <FF_Energy>  (3025) 
-2.7

>  <QM_Energy>  (3025) 
-9.74

>  <source>  (3025) 
ETAM_MBZ

>  <Index>  (3025) 
32998

$$$$
ETAM-pdb6fjx-A-LYS-102:MBZ-pdb6fjx-A-PHE-160
     RDKit          3D

 26 25  0  0  0  0  0  0  0  0999 V2000
   -2.2865    0.5534   -5.5204 C   0  0  0  0  0  0  0  0  0  0  0  0
   -2.1344    1.5409   -5.4941 H   0  0  0  0  0  0  0  0  0  0  0  0
   -3.2640    0.3617   -5.4566 H   0  0  0  0  0  0  0  0  0  0  0  0
   -1.9071    0.1613   -6.4640 H   0  0  0  0  0  0  0  0  0  0  0  0
   -1.5954   -0.0722   -4.3312 C   0  0  0  0  0  0  0  0  0  0  0  0
   -1.9706   -0.9931   -4.1814 H   0  0  0  0  0  0  0  0  0  0  0  0
   -0.6133   -0.1573   -4.5302 H   0  0  0  0  0  0  0  0  0  0  0  0
   -1.7755    0.7327   -3.1024 N   0  0  0  0  0  4  0  0  0  0  0  0
   -2.0183    0.1319   -2.3397 H   0  0  0  0  0  0  0  0  0  0  0  0
   -0.9241    1.2130   -2.8877 H   0  0  0  0  0  0  0  0  0  0  0  0
   -2.5071    1.4016   -3.2437 H   0  0  0  0  0  0  0  0  0  0  0  0
   -0.0036    2.9044   -0.0017 C   0  0  0  0  0  0  0  0  0  0  0  0
    0.8240    3.2109    0.4514 H   0  0  0  0  0  0  0  0  0  0  0  0
   -0.8090    3.2062    0.4924 H   0  0  0  0  0  0  0  0  0  0  0  0
   -0.0295    3.3603   -0.9915 H   0  0  0  0  0  0  0  0  0  0  0  0
    0.0001    1.3980   -0.0033 C   0  0  0  0  0  0  0  0  0  0  0  0
   -1.1912    0.6888    0.0033 C   0  0  0  0  0  0  0  0  0  0  0  0
   -2.0598    1.1773    0.0088 H   0  0  0  0  0  0  0  0  0  0  0  0
   -1.1904   -0.6969    0.0000 C   0  0  0  0  0  0  0  0  0  0  0  0
   -2.0715   -1.1917   -0.0018 H   0  0  0  0  0  0  0  0  0  0  0  0
   -0.0005   -1.3846    0.0014 C   0  0  0  0  0  0  0  0  0  0  0  0
   -0.0036   -2.3884    0.0025 H   0  0  0  0  0  0  0  0  0  0  0  0
    1.1904   -0.6954   -0.0000 C   0  0  0  0  0  0  0  0  0  0  0  0
    2.0757   -1.1941    0.0012 H   0  0  0  0  0  0  0  0  0  0  0  0
    1.1915    0.6902   -0.0014 C   0  0  0  0  0  0  0  0  0  0  0  0
    2.0614    1.1841   -0.0018 H   0  0  0  0  0  0  0  0  0  0  0  0
  1  5  1  0
  5  8  1  0
  1  2  1  0
  1  3  1  0
  1  4  1  0
  5  6  1  0
  5  7  1  0
  8  9  1  0
  8 10  1  0
  8 11  1  0
 12 16  1  0
 16 17  2  0
 17 19  1  0
 19 21  2  0
 21 23  1  0
 23 25  2  0
 25 16  1  0
 12 13  1  0
 12 14  1  0
 12 15  1  0
 17 18  1  0
 19 20  1  0
 21 22  1  0
 23 24  1  0
 25 26  1  0
M  CHG  1   8   1
M  END
>  <PDB_ID>  (3026) 
pdb6fjx

>  <RESIDUE_NAME>  (3026) 
LYS   PHE

>  <FRAG_NAME>  (3026) 
ETAM   MBZ

>  <FRAG_ATOM_NUM>  (3026) 
fragi: 11  fragj: 15

>  <atom.prop.CHAIN_ID>  (3026) 
A A A A A A A A A A A Z Z Z Z Z Z Z Z Z Z Z Z Z Z Z

>  <atom.prop.IS_HEAVY_ATOM>  (3026) 
1 0 0 0 1 0 0 1 0 0 0 1 0 0 0 1 1 0 1 0 1 0 1 0 1 0

>  <DIFUSE_FUNC_ATOM>  (3026) 
n/a

>  <FINAL_SINGLE_POINT_ENERGY>  (3026) 
0

>  <NONCOV_INTER_ENERGY_QM>  (3026) 
0

>  <FF_Energy>  (3026) 
-5.87

>  <QM_Energy>  (3026) 
-11.88

>  <source>  (3026) 
ETAM_MBZ

>  <Index>  (3026) 
33001

$$$$
ETAM-pdb6g21-B-LYS-8:MBZ-pdb6g21-B-PHE-155
     RDKit          3D

 26 25  0  0  0  0  0  0  0  0999 V2000
   -0.5746   -1.0677    4.4841 C   0  0  0  0  0  0  0  0  0  0  0  0
   -0.6527   -0.0770    4.6066 H   0  0  0  0  0  0  0  0  0  0  0  0
   -0.4349   -1.5014    5.3762 H   0  0  0  0  0  0  0  0  0  0  0  0
   -1.4986   -1.4445    4.0458 H   0  0  0  0  0  0  0  0  0  0  0  0
    0.6289   -1.3519    3.6189 C   0  0  0  0  0  0  0  0  0  0  0  0
    1.0485   -2.2074    3.9050 H   0  0  0  0  0  0  0  0  0  0  0  0
    0.3476   -1.4085    2.6666 H   0  0  0  0  0  0  0  0  0  0  0  0
    1.6267   -0.2473    3.7655 N   0  0  0  0  0  4  0  0  0  0  0  0
    2.5154   -0.5618    3.4353 H   0  0  0  0  0  0  0  0  0  0  0  0
    1.3259    0.5394    3.2290 H   0  0  0  0  0  0  0  0  0  0  0  0
    1.6957    0.0071    4.7288 H   0  0  0  0  0  0  0  0  0  0  0  0
    0.0111    2.8938   -0.0255 C   0  0  0  0  0  0  0  0  0  0  0  0
   -0.7439    3.1804   -0.6031 H   0  0  0  0  0  0  0  0  0  0  0  0
    0.8780    3.1844   -0.4127 H   0  0  0  0  0  0  0  0  0  0  0  0
   -0.1045    3.3726    0.9469 H   0  0  0  0  0  0  0  0  0  0  0  0
    0.0098    1.3986    0.0223 C   0  0  0  0  0  0  0  0  0  0  0  0
   -1.2017    0.6779   -0.0099 C   0  0  0  0  0  0  0  0  0  0  0  0
   -2.0604    1.1770   -0.0409 H   0  0  0  0  0  0  0  0  0  0  0  0
   -1.2014   -0.7015   -0.0000 C   0  0  0  0  0  0  0  0  0  0  0  0
   -2.0779   -1.2017    0.0255 H   0  0  0  0  0  0  0  0  0  0  0  0
   -0.0021   -1.3961   -0.0229 C   0  0  0  0  0  0  0  0  0  0  0  0
    0.0027   -2.3903   -0.0562 H   0  0  0  0  0  0  0  0  0  0  0  0
    1.2014   -0.6869   -0.0000 C   0  0  0  0  0  0  0  0  0  0  0  0
    2.0838   -1.1830    0.0105 H   0  0  0  0  0  0  0  0  0  0  0  0
    1.1940    0.7080    0.0105 C   0  0  0  0  0  0  0  0  0  0  0  0
    2.0663    1.1992    0.0087 H   0  0  0  0  0  0  0  0  0  0  0  0
  1  5  1  0
  5  8  1  0
  1  2  1  0
  1  3  1  0
  1  4  1  0
  5  6  1  0
  5  7  1  0
  8  9  1  0
  8 10  1  0
  8 11  1  0
 12 16  1  0
 16 17  2  0
 17 19  1  0
 19 21  2  0
 21 23  1  0
 23 25  2  0
 25 16  1  0
 12 13  1  0
 12 14  1  0
 12 15  1  0
 17 18  1  0
 19 20  1  0
 21 22  1  0
 23 24  1  0
 25 26  1  0
M  CHG  1   8   1
M  END
>  <PDB_ID>  (3027) 
pdb6g21

>  <RESIDUE_NAME>  (3027) 
LYS   PHE

>  <FRAG_NAME>  (3027) 
ETAM   MBZ

>  <FRAG_ATOM_NUM>  (3027) 
fragi: 11  fragj: 15

>  <atom.prop.CHAIN_ID>  (3027) 
A A A A A A A A A A A Z Z Z Z Z Z Z Z Z Z Z Z Z Z Z

>  <atom.prop.IS_HEAVY_ATOM>  (3027) 
1 0 0 0 1 0 0 1 0 0 0 1 0 0 0 1 1 0 1 0 1 0 1 0 1 0

>  <DIFUSE_FUNC_ATOM>  (3027) 
n/a

>  <FINAL_SINGLE_POINT_ENERGY>  (3027) 
0

>  <NONCOV_INTER_ENERGY_QM>  (3027) 
0

>  <FF_Energy>  (3027) 
-5.53

>  <QM_Energy>  (3027) 
-10.54

>  <source>  (3027) 
ETAM_MBZ

>  <Index>  (3027) 
33011

$$$$
ETAM-pdb6g26-F-LYS-5:MBZ-pdb6g26-F-PHE-0
     RDKit          3D

 26 25  0  0  0  0  0  0  0  0999 V2000
    3.1106    1.7650    2.9714 C   0  0  0  0  0  0  0  0  0  0  0  0
    2.6248    2.0311    3.7813 H   0  0  0  0  0  0  0  0  0  0  0  0
    2.6822    2.0894    2.1505 H   0  0  0  0  0  0  0  0  0  0  0  0
    4.1261    2.1579    3.0219 H   0  0  0  0  0  0  0  0  0  0  0  0
    3.1857    0.2448    2.9191 C   0  0  0  0  0  0  0  0  0  0  0  0
    3.7186   -0.0239    2.1233 H   0  0  0  0  0  0  0  0  0  0  0  0
    3.6207   -0.0855    3.7514 H   0  0  0  0  0  0  0  0  0  0  0  0
    1.8195   -0.3208    2.8162 N   0  0  0  0  0  4  0  0  0  0  0  0
    1.1679    0.2945    3.2607 H   0  0  0  0  0  0  0  0  0  0  0  0
    1.5729   -0.4261    1.8522 H   0  0  0  0  0  0  0  0  0  0  0  0
    1.7927   -1.2144    3.2666 H   0  0  0  0  0  0  0  0  0  0  0  0
   -0.0105    2.8867   -0.0254 C   0  0  0  0  0  0  0  0  0  0  0  0
   -0.8239    3.1970   -0.5139 H   0  0  0  0  0  0  0  0  0  0  0  0
    0.8089    3.2110   -0.4930 H   0  0  0  0  0  0  0  0  0  0  0  0
   -0.0269    3.3842    0.9443 H   0  0  0  0  0  0  0  0  0  0  0  0
    0.0012    1.4006   -0.0075 C   0  0  0  0  0  0  0  0  0  0  0  0
   -1.1969    0.6936   -0.0089 C   0  0  0  0  0  0  0  0  0  0  0  0
   -2.0634    1.1944   -0.0167 H   0  0  0  0  0  0  0  0  0  0  0  0
   -1.2191   -0.6940    0.0000 C   0  0  0  0  0  0  0  0  0  0  0  0
   -2.0886   -1.1854   -0.0103 H   0  0  0  0  0  0  0  0  0  0  0  0
   -0.0067   -1.3902    0.0256 C   0  0  0  0  0  0  0  0  0  0  0  0
   -0.0116   -2.3905    0.0617 H   0  0  0  0  0  0  0  0  0  0  0  0
    1.2191   -0.7013   -0.0000 C   0  0  0  0  0  0  0  0  0  0  0  0
    2.0845   -1.2015   -0.0089 H   0  0  0  0  0  0  0  0  0  0  0  0
    1.2023    0.6912   -0.0092 C   0  0  0  0  0  0  0  0  0  0  0  0
    2.0696    1.1935   -0.0185 H   0  0  0  0  0  0  0  0  0  0  0  0
  1  5  1  0
  5  8  1  0
  1  2  1  0
  1  3  1  0
  1  4  1  0
  5  6  1  0
  5  7  1  0
  8  9  1  0
  8 10  1  0
  8 11  1  0
 12 16  1  0
 16 17  2  0
 17 19  1  0
 19 21  2  0
 21 23  1  0
 23 25  2  0
 25 16  1  0
 12 13  1  0
 12 14  1  0
 12 15  1  0
 17 18  1  0
 19 20  1  0
 21 22  1  0
 23 24  1  0
 25 26  1  0
M  CHG  1   8   1
M  END
>  <PDB_ID>  (3028) 
pdb6g26

>  <RESIDUE_NAME>  (3028) 
LYS   PHE

>  <FRAG_NAME>  (3028) 
ETAM   MBZ

>  <FRAG_ATOM_NUM>  (3028) 
fragi: 11  fragj: 15

>  <atom.prop.CHAIN_ID>  (3028) 
A A A A A A A A A A A Z Z Z Z Z Z Z Z Z Z Z Z Z Z Z

>  <atom.prop.IS_HEAVY_ATOM>  (3028) 
1 0 0 0 1 0 0 1 0 0 0 1 0 0 0 1 1 0 1 0 1 0 1 0 1 0

>  <DIFUSE_FUNC_ATOM>  (3028) 
n/a

>  <FINAL_SINGLE_POINT_ENERGY>  (3028) 
0

>  <NONCOV_INTER_ENERGY_QM>  (3028) 
0

>  <FF_Energy>  (3028) 
-5.14

>  <QM_Energy>  (3028) 
-13.41

>  <source>  (3028) 
ETAM_MBZ

>  <Index>  (3028) 
33015

$$$$
ETAM-pdb6g3b-B-LYS-192:MBZ-pdb6g3b-B-PHE-189
     RDKit          3D

 26 25  0  0  0  0  0  0  0  0999 V2000
    0.6606    1.4087    4.4556 C   0  0  0  0  0  0  0  0  0  0  0  0
    1.4804    1.3461    5.0308 H   0  0  0  0  0  0  0  0  0  0  0  0
   -0.1397    1.5476    5.0451 H   0  0  0  0  0  0  0  0  0  0  0  0
    0.7641    2.2796    3.8083 H   0  0  0  0  0  0  0  0  0  0  0  0
    0.4927    0.1171    3.7002 C   0  0  0  0  0  0  0  0  0  0  0  0
    0.7397    0.2583    2.7431 H   0  0  0  0  0  0  0  0  0  0  0  0
    1.0862   -0.5806    4.0998 H   0  0  0  0  0  0  0  0  0  0  0  0
   -0.9195   -0.3471    3.7740 N   0  0  0  0  0  4  0  0  0  0  0  0
   -1.4576    0.3110    4.3000 H   0  0  0  0  0  0  0  0  0  0  0  0
   -1.2923   -0.4228    2.8497 H   0  0  0  0  0  0  0  0  0  0  0  0
   -0.9523   -1.2401    4.2217 H   0  0  0  0  0  0  0  0  0  0  0  0
   -0.0024    2.8730    0.0220 C   0  0  0  0  0  0  0  0  0  0  0  0
    0.8921    3.1721    0.3204 H   0  0  0  0  0  0  0  0  0  0  0  0
   -0.7067    3.1710    0.6498 H   0  0  0  0  0  0  0  0  0  0  0  0
   -0.2032    3.3231   -0.9502 H   0  0  0  0  0  0  0  0  0  0  0  0
   -0.0040    1.3683    0.0083 C   0  0  0  0  0  0  0  0  0  0  0  0
   -1.1833    0.6789   -0.0014 C   0  0  0  0  0  0  0  0  0  0  0  0
   -2.0533    1.1807   -0.0113 H   0  0  0  0  0  0  0  0  0  0  0  0
   -1.1900   -0.6767    0.0000 C   0  0  0  0  0  0  0  0  0  0  0  0
   -2.0613   -1.1867    0.0111 H   0  0  0  0  0  0  0  0  0  0  0  0
    0.0117   -1.3645   -0.0120 C   0  0  0  0  0  0  0  0  0  0  0  0
   -0.0019   -2.3706   -0.0304 H   0  0  0  0  0  0  0  0  0  0  0  0
    1.1900   -0.6838    0.0000 C   0  0  0  0  0  0  0  0  0  0  0  0
    2.0772   -1.1826    0.0062 H   0  0  0  0  0  0  0  0  0  0  0  0
    1.1756    0.6779    0.0051 C   0  0  0  0  0  0  0  0  0  0  0  0
    2.0482    1.1866    0.0057 H   0  0  0  0  0  0  0  0  0  0  0  0
  1  5  1  0
  5  8  1  0
  1  2  1  0
  1  3  1  0
  1  4  1  0
  5  6  1  0
  5  7  1  0
  8  9  1  0
  8 10  1  0
  8 11  1  0
 12 16  1  0
 16 17  2  0
 17 19  1  0
 19 21  2  0
 21 23  1  0
 23 25  2  0
 25 16  1  0
 12 13  1  0
 12 14  1  0
 12 15  1  0
 17 18  1  0
 19 20  1  0
 21 22  1  0
 23 24  1  0
 25 26  1  0
M  CHG  1   8   1
M  END
>  <PDB_ID>  (3029) 
pdb6g3b

>  <RESIDUE_NAME>  (3029) 
LYS   PHE

>  <FRAG_NAME>  (3029) 
ETAM   MBZ

>  <FRAG_ATOM_NUM>  (3029) 
fragi: 11  fragj: 15

>  <atom.prop.CHAIN_ID>  (3029) 
A A A A A A A A A A A Z Z Z Z Z Z Z Z Z Z Z Z Z Z Z

>  <atom.prop.IS_HEAVY_ATOM>  (3029) 
1 0 0 0 1 0 0 1 0 0 0 1 0 0 0 1 1 0 1 0 1 0 1 0 1 0

>  <DIFUSE_FUNC_ATOM>  (3029) 
n/a

>  <FINAL_SINGLE_POINT_ENERGY>  (3029) 
0

>  <NONCOV_INTER_ENERGY_QM>  (3029) 
0

>  <FF_Energy>  (3029) 
-7.08

>  <QM_Energy>  (3029) 
-12.5

>  <source>  (3029) 
ETAM_MBZ

>  <Index>  (3029) 
33018

$$$$
ETAM-pdb5fog-C-LYS-502:MBZ-pdb5fog-C-PHE-469
     RDKit          3D

 26 25  0  0  0  0  0  0  0  0999 V2000
   -3.2742   -1.0117   -3.4116 C   0  0  0  0  0  0  0  0  0  0  0  0
   -3.5100   -0.4570   -2.6204 H   0  0  0  0  0  0  0  0  0  0  0  0
   -3.9839   -1.6869   -3.5855 H   0  0  0  0  0  0  0  0  0  0  0  0
   -3.1712   -0.3662   -4.2838 H   0  0  0  0  0  0  0  0  0  0  0  0
   -1.9739   -1.7490   -3.1097 C   0  0  0  0  0  0  0  0  0  0  0  0
   -1.5675   -2.0540   -3.9714 H   0  0  0  0  0  0  0  0  0  0  0  0
   -1.3445   -1.1213   -2.6495 H   0  0  0  0  0  0  0  0  0  0  0  0
   -2.2156   -2.9311   -2.2344 N   0  0  0  0  0  4  0  0  0  0  0  0
   -2.4303   -3.7246   -2.8029 H   0  0  0  0  0  0  0  0  0  0  0  0
   -1.3956   -3.1157   -1.6953 H   0  0  0  0  0  0  0  0  0  0  0  0
   -2.9821   -2.7383   -1.6236 H   0  0  0  0  0  0  0  0  0  0  0  0
   -0.0038    2.9166    0.0207 C   0  0  0  0  0  0  0  0  0  0  0  0
   -0.7736    3.2274   -0.5115 H   0  0  0  0  0  0  0  0  0  0  0  0
    0.8527    3.2289   -0.3557 H   0  0  0  0  0  0  0  0  0  0  0  0
   -0.0995    3.3372    1.0217 H   0  0  0  0  0  0  0  0  0  0  0  0
   -0.0008    1.4066   -0.0016 C   0  0  0  0  0  0  0  0  0  0  0  0
   -1.1969    0.6906    0.0007 C   0  0  0  0  0  0  0  0  0  0  0  0
   -2.0651    1.1807    0.0013 H   0  0  0  0  0  0  0  0  0  0  0  0
   -1.2000   -0.6999    0.0000 C   0  0  0  0  0  0  0  0  0  0  0  0
   -2.0779   -1.1942    0.0002 H   0  0  0  0  0  0  0  0  0  0  0  0
    0.0000   -1.3977    0.0005 C   0  0  0  0  0  0  0  0  0  0  0  0
   -0.0024   -2.3943    0.0003 H   0  0  0  0  0  0  0  0  0  0  0  0
    1.2000   -0.6975    0.0000 C   0  0  0  0  0  0  0  0  0  0  0  0
    2.0828   -1.1938    0.0014 H   0  0  0  0  0  0  0  0  0  0  0  0
    1.1977    0.6980    0.0004 C   0  0  0  0  0  0  0  0  0  0  0  0
    2.0655    1.1918    0.0017 H   0  0  0  0  0  0  0  0  0  0  0  0
  1  5  1  0
  5  8  1  0
  1  2  1  0
  1  3  1  0
  1  4  1  0
  5  6  1  0
  5  7  1  0
  8  9  1  0
  8 10  1  0
  8 11  1  0
 12 16  1  0
 16 17  2  0
 17 19  1  0
 19 21  2  0
 21 23  1  0
 23 25  2  0
 25 16  1  0
 12 13  1  0
 12 14  1  0
 12 15  1  0
 17 18  1  0
 19 20  1  0
 21 22  1  0
 23 24  1  0
 25 26  1  0
M  CHG  1   8   1
M  END
>  <PDB_ID>  (3030) 
pdb5fog

>  <RESIDUE_NAME>  (3030) 
LYS   PHE

>  <FRAG_NAME>  (3030) 
ETAM   MBZ

>  <FRAG_ATOM_NUM>  (3030) 
fragi: 11  fragj: 15

>  <atom.prop.CHAIN_ID>  (3030) 
A A A A A A A A A A A Z Z Z Z Z Z Z Z Z Z Z Z Z Z Z

>  <atom.prop.IS_HEAVY_ATOM>  (3030) 
1 0 0 0 1 0 0 1 0 0 0 1 0 0 0 1 1 0 1 0 1 0 1 0 1 0

>  <DIFUSE_FUNC_ATOM>  (3030) 
n/a

>  <FINAL_SINGLE_POINT_ENERGY>  (3030) 
0

>  <NONCOV_INTER_ENERGY_QM>  (3030) 
0

>  <FF_Energy>  (3030) 
-1.23

>  <QM_Energy>  (3030) 
-8.35

>  <source>  (3030) 
ETAM_MBZ

>  <Index>  (3030) 
33022

$$$$
ETAM-pdb6g1o-A-LYS-87:MBZ-pdb6g1o-A-PHE-174
     RDKit          3D

 26 25  0  0  0  0  0  0  0  0999 V2000
   -0.6122   -3.7146    5.2145 C   0  0  0  0  0  0  0  0  0  0  0  0
    0.3560   -3.5330    5.1996 H   0  0  0  0  0  0  0  0  0  0  0  0
   -0.8637   -4.4217    4.5767 H   0  0  0  0  0  0  0  0  0  0  0  0
   -0.8790   -4.0491    6.2170 H   0  0  0  0  0  0  0  0  0  0  0  0
   -1.3672   -2.4187    4.8425 C   0  0  0  0  0  0  0  0  0  0  0  0
   -2.3538   -2.5590    5.0518 H   0  0  0  0  0  0  0  0  0  0  0  0
   -1.0424   -1.6767    5.4606 H   0  0  0  0  0  0  0  0  0  0  0  0
   -1.2306   -1.9658    3.4265 N   0  0  0  0  0  4  0  0  0  0  0  0
   -1.2380   -2.7622    2.8242 H   0  0  0  0  0  0  0  0  0  0  0  0
   -1.9947   -1.3643    3.1980 H   0  0  0  0  0  0  0  0  0  0  0  0
   -0.3695   -1.4716    3.3208 H   0  0  0  0  0  0  0  0  0  0  0  0
   -0.0362    2.9039    0.0079 C   0  0  0  0  0  0  0  0  0  0  0  0
   -0.7455    3.2044   -0.6072 H   0  0  0  0  0  0  0  0  0  0  0  0
    0.8531    3.2239   -0.2721 H   0  0  0  0  0  0  0  0  0  0  0  0
   -0.2473    3.3234    0.9915 H   0  0  0  0  0  0  0  0  0  0  0  0
   -0.0152    1.3968   -0.0053 C   0  0  0  0  0  0  0  0  0  0  0  0
   -1.1962    0.6905   -0.0101 C   0  0  0  0  0  0  0  0  0  0  0  0
   -2.0706    1.1714   -0.0223 H   0  0  0  0  0  0  0  0  0  0  0  0
   -1.1920   -0.6995   -0.0000 C   0  0  0  0  0  0  0  0  0  0  0  0
   -2.0608   -1.2017    0.0019 H   0  0  0  0  0  0  0  0  0  0  0  0
    0.0203   -1.3834    0.0085 C   0  0  0  0  0  0  0  0  0  0  0  0
    0.0058   -2.3915    0.0204 H   0  0  0  0  0  0  0  0  0  0  0  0
    1.1920   -0.7029    0.0000 C   0  0  0  0  0  0  0  0  0  0  0  0
    2.0878   -1.1863   -0.0100 H   0  0  0  0  0  0  0  0  0  0  0  0
    1.1912    0.6984    0.0070 C   0  0  0  0  0  0  0  0  0  0  0  0
    2.0527    1.1909    0.0200 H   0  0  0  0  0  0  0  0  0  0  0  0
  1  5  1  0
  5  8  1  0
  1  2  1  0
  1  3  1  0
  1  4  1  0
  5  6  1  0
  5  7  1  0
  8  9  1  0
  8 10  1  0
  8 11  1  0
 12 16  1  0
 16 17  2  0
 17 19  1  0
 19 21  2  0
 21 23  1  0
 23 25  2  0
 25 16  1  0
 12 13  1  0
 12 14  1  0
 12 15  1  0
 17 18  1  0
 19 20  1  0
 21 22  1  0
 23 24  1  0
 25 26  1  0
M  CHG  1   8   1
M  END
>  <PDB_ID>  (3031) 
pdb6g1o

>  <RESIDUE_NAME>  (3031) 
LYS   PHE

>  <FRAG_NAME>  (3031) 
ETAM   MBZ

>  <FRAG_ATOM_NUM>  (3031) 
fragi: 11  fragj: 15

>  <atom.prop.CHAIN_ID>  (3031) 
A A A A A A A A A A A Z Z Z Z Z Z Z Z Z Z Z Z Z Z Z

>  <atom.prop.IS_HEAVY_ATOM>  (3031) 
1 0 0 0 1 0 0 1 0 0 0 1 0 0 0 1 1 0 1 0 1 0 1 0 1 0

>  <DIFUSE_FUNC_ATOM>  (3031) 
n/a

>  <FINAL_SINGLE_POINT_ENERGY>  (3031) 
0

>  <NONCOV_INTER_ENERGY_QM>  (3031) 
0

>  <FF_Energy>  (3031) 
-3.69

>  <QM_Energy>  (3031) 
-8.72

>  <source>  (3031) 
ETAM_MBZ

>  <Index>  (3031) 
33023

$$$$
ETAM-pdb5fqd-A-LYS-60:MBZ-pdb5fqd-A-PHE-972
     RDKit          3D

 26 25  0  0  0  0  0  0  0  0999 V2000
    1.6310    0.4379    3.7176 C   0  0  0  0  0  0  0  0  0  0  0  0
    1.2962    1.2157    3.1758 H   0  0  0  0  0  0  0  0  0  0  0  0
    2.5015    0.1233    3.3244 H   0  0  0  0  0  0  0  0  0  0  0  0
    1.8255    0.7923    4.7298 H   0  0  0  0  0  0  0  0  0  0  0  0
    0.6131   -0.6994    3.6182 C   0  0  0  0  0  0  0  0  0  0  0  0
    0.6019   -1.0397    2.6664 H   0  0  0  0  0  0  0  0  0  0  0  0
    0.9183   -1.4588    4.2121 H   0  0  0  0  0  0  0  0  0  0  0  0
   -0.7745   -0.3061    4.0088 N   0  0  0  0  0  4  0  0  0  0  0  0
   -1.2668    0.0088    3.1990 H   0  0  0  0  0  0  0  0  0  0  0  0
   -1.2419   -1.0968    4.4015 H   0  0  0  0  0  0  0  0  0  0  0  0
   -0.7302    0.4287    4.6840 H   0  0  0  0  0  0  0  0  0  0  0  0
    0.0029    2.9086   -0.0836 C   0  0  0  0  0  0  0  0  0  0  0  0
    0.8544    3.2303    0.2732 H   0  0  0  0  0  0  0  0  0  0  0  0
   -0.7719    3.2373    0.4154 H   0  0  0  0  0  0  0  0  0  0  0  0
   -0.0858    3.2570   -1.1126 H   0  0  0  0  0  0  0  0  0  0  0  0
    0.0030    1.4061   -0.0138 C   0  0  0  0  0  0  0  0  0  0  0  0
   -1.1929    0.6958   -0.0110 C   0  0  0  0  0  0  0  0  0  0  0  0
   -2.0606    1.1835   -0.0184 H   0  0  0  0  0  0  0  0  0  0  0  0
   -1.1948   -0.6967    0.0000 C   0  0  0  0  0  0  0  0  0  0  0  0
   -2.0817   -1.1838   -0.0091 H   0  0  0  0  0  0  0  0  0  0  0  0
   -0.0125   -1.3916    0.0242 C   0  0  0  0  0  0  0  0  0  0  0  0
   -0.0161   -2.3935    0.0585 H   0  0  0  0  0  0  0  0  0  0  0  0
    1.1948   -0.7071   -0.0000 C   0  0  0  0  0  0  0  0  0  0  0  0
    2.0718   -1.2073   -0.0169 H   0  0  0  0  0  0  0  0  0  0  0  0
    1.2025    0.6936    0.0007 C   0  0  0  0  0  0  0  0  0  0  0  0
    2.0698    1.1806    0.0108 H   0  0  0  0  0  0  0  0  0  0  0  0
  1  5  1  0
  5  8  1  0
  1  2  1  0
  1  3  1  0
  1  4  1  0
  5  6  1  0
  5  7  1  0
  8  9  1  0
  8 10  1  0
  8 11  1  0
 12 16  1  0
 16 17  2  0
 17 19  1  0
 19 21  2  0
 21 23  1  0
 23 25  2  0
 25 16  1  0
 12 13  1  0
 12 14  1  0
 12 15  1  0
 17 18  1  0
 19 20  1  0
 21 22  1  0
 23 24  1  0
 25 26  1  0
M  CHG  1   8   1
M  END
>  <PDB_ID>  (3032) 
pdb5fqd

>  <RESIDUE_NAME>  (3032) 
LYS   PHE

>  <FRAG_NAME>  (3032) 
ETAM   MBZ

>  <FRAG_ATOM_NUM>  (3032) 
fragi: 11  fragj: 15

>  <atom.prop.CHAIN_ID>  (3032) 
A A A A A A A A A A A Z Z Z Z Z Z Z Z Z Z Z Z Z Z Z

>  <atom.prop.IS_HEAVY_ATOM>  (3032) 
1 0 0 0 1 0 0 1 0 0 0 1 0 0 0 1 1 0 1 0 1 0 1 0 1 0

>  <DIFUSE_FUNC_ATOM>  (3032) 
n/a

>  <FINAL_SINGLE_POINT_ENERGY>  (3032) 
0

>  <NONCOV_INTER_ENERGY_QM>  (3032) 
0

>  <FF_Energy>  (3032) 
-6.43

>  <QM_Energy>  (3032) 
-11.65

>  <source>  (3032) 
ETAM_MBZ

>  <Index>  (3032) 
33052

$$$$
ETAM-pdb6g9x-B-LYS-100:MBZ-pdb6g9x-B-PHE-42
     RDKit          3D

 26 25  0  0  0  0  0  0  0  0999 V2000
    5.6299   -0.3104   -1.1603 C   0  0  0  0  0  0  0  0  0  0  0  0
    5.8179   -0.6246   -2.0843 H   0  0  0  0  0  0  0  0  0  0  0  0
    5.1294   -1.0017   -0.6517 H   0  0  0  0  0  0  0  0  0  0  0  0
    6.5731   -0.1055   -0.6539 H   0  0  0  0  0  0  0  0  0  0  0  0
    4.7866    0.9400   -1.2361 C   0  0  0  0  0  0  0  0  0  0  0  0
    4.6761    1.3132   -0.3168 H   0  0  0  0  0  0  0  0  0  0  0  0
    5.2470    1.6086   -1.8175 H   0  0  0  0  0  0  0  0  0  0  0  0
    3.4709    0.6166   -1.8014 N   0  0  0  0  0  4  0  0  0  0  0  0
    3.3584   -0.3782   -1.8584 H   0  0  0  0  0  0  0  0  0  0  0  0
    2.7473    0.9943   -1.2194 H   0  0  0  0  0  0  0  0  0  0  0  0
    3.3888    1.0082   -2.7212 H   0  0  0  0  0  0  0  0  0  0  0  0
    0.0135    2.9019    0.0065 C   0  0  0  0  0  0  0  0  0  0  0  0
    0.8711    3.1979    0.4022 H   0  0  0  0  0  0  0  0  0  0  0  0
   -0.7550    3.2080    0.5490 H   0  0  0  0  0  0  0  0  0  0  0  0
   -0.0731    3.3603   -0.9787 H   0  0  0  0  0  0  0  0  0  0  0  0
    0.0024    1.3964   -0.0086 C   0  0  0  0  0  0  0  0  0  0  0  0
   -1.1904    0.6872    0.0031 C   0  0  0  0  0  0  0  0  0  0  0  0
   -2.0591    1.1796    0.0126 H   0  0  0  0  0  0  0  0  0  0  0  0
   -1.1962   -0.6968   -0.0000 C   0  0  0  0  0  0  0  0  0  0  0  0
   -2.0746   -1.1913   -0.0005 H   0  0  0  0  0  0  0  0  0  0  0  0
   -0.0011   -1.3875   -0.0005 C   0  0  0  0  0  0  0  0  0  0  0  0
   -0.0010   -2.3881   -0.0018 H   0  0  0  0  0  0  0  0  0  0  0  0
    1.1962   -0.6910   -0.0000 C   0  0  0  0  0  0  0  0  0  0  0  0
    2.0785   -1.1902   -0.0022 H   0  0  0  0  0  0  0  0  0  0  0  0
    1.1891    0.6916    0.0060 C   0  0  0  0  0  0  0  0  0  0  0  0
    2.0608    1.1895    0.0204 H   0  0  0  0  0  0  0  0  0  0  0  0
  1  5  1  0
  5  8  1  0
  1  2  1  0
  1  3  1  0
  1  4  1  0
  5  6  1  0
  5  7  1  0
  8  9  1  0
  8 10  1  0
  8 11  1  0
 12 16  1  0
 16 17  2  0
 17 19  1  0
 19 21  2  0
 21 23  1  0
 23 25  2  0
 25 16  1  0
 12 13  1  0
 12 14  1  0
 12 15  1  0
 17 18  1  0
 19 20  1  0
 21 22  1  0
 23 24  1  0
 25 26  1  0
M  CHG  1   8   1
M  END
>  <PDB_ID>  (3033) 
pdb6g9x

>  <RESIDUE_NAME>  (3033) 
LYS   PHE

>  <FRAG_NAME>  (3033) 
ETAM   MBZ

>  <FRAG_ATOM_NUM>  (3033) 
fragi: 11  fragj: 15

>  <atom.prop.CHAIN_ID>  (3033) 
A A A A A A A A A A A Z Z Z Z Z Z Z Z Z Z Z Z Z Z Z

>  <atom.prop.IS_HEAVY_ATOM>  (3033) 
1 0 0 0 1 0 0 1 0 0 0 1 0 0 0 1 1 0 1 0 1 0 1 0 1 0

>  <DIFUSE_FUNC_ATOM>  (3033) 
n/a

>  <FINAL_SINGLE_POINT_ENERGY>  (3033) 
0

>  <NONCOV_INTER_ENERGY_QM>  (3033) 
0

>  <FF_Energy>  (3033) 
3.48

>  <QM_Energy>  (3033) 
-3.97

>  <source>  (3033) 
ETAM_MBZ

>  <Index>  (3033) 
33085

$$$$
ETAM-pdb6gar-B-LYS-33:MBZ-pdb6gar-B-PHE-7
     RDKit          3D

 26 25  0  0  0  0  0  0  0  0999 V2000
   -1.0147   -0.5586   -4.5973 C   0  0  0  0  0  0  0  0  0  0  0  0
   -1.2556    0.4050   -4.6407 H   0  0  0  0  0  0  0  0  0  0  0  0
   -1.4883   -1.0672   -5.3086 H   0  0  0  0  0  0  0  0  0  0  0  0
    0.0615   -0.6681   -4.7312 H   0  0  0  0  0  0  0  0  0  0  0  0
   -1.4606   -1.1037   -3.2420 C   0  0  0  0  0  0  0  0  0  0  0  0
   -1.4824   -2.0994   -3.2888 H   0  0  0  0  0  0  0  0  0  0  0  0
   -0.8074   -0.8109   -2.5487 H   0  0  0  0  0  0  0  0  0  0  0  0
   -2.8098   -0.5934   -2.9020 N   0  0  0  0  0  4  0  0  0  0  0  0
   -3.2938   -0.3426   -3.7406 H   0  0  0  0  0  0  0  0  0  0  0  0
   -3.3254   -1.3028   -2.4207 H   0  0  0  0  0  0  0  0  0  0  0  0
   -2.7243    0.2121   -2.3138 H   0  0  0  0  0  0  0  0  0  0  0  0
    0.0090    2.8986    0.0074 C   0  0  0  0  0  0  0  0  0  0  0  0
   -0.7022    3.2093   -0.6032 H   0  0  0  0  0  0  0  0  0  0  0  0
    0.9000    3.2036   -0.2891 H   0  0  0  0  0  0  0  0  0  0  0  0
   -0.1816    3.3320    0.9892 H   0  0  0  0  0  0  0  0  0  0  0  0
    0.0053    1.3950    0.0021 C   0  0  0  0  0  0  0  0  0  0  0  0
   -1.1922    0.6941    0.0006 C   0  0  0  0  0  0  0  0  0  0  0  0
   -2.0581    1.1864   -0.0011 H   0  0  0  0  0  0  0  0  0  0  0  0
   -1.2017   -0.6974    0.0000 C   0  0  0  0  0  0  0  0  0  0  0  0
   -2.0836   -1.1839    0.0012 H   0  0  0  0  0  0  0  0  0  0  0  0
   -0.0126   -1.3876   -0.0008 C   0  0  0  0  0  0  0  0  0  0  0  0
   -0.0065   -2.3875   -0.0027 H   0  0  0  0  0  0  0  0  0  0  0  0
    1.2017   -0.6894   -0.0000 C   0  0  0  0  0  0  0  0  0  0  0  0
    2.0751   -1.2004    0.0038 H   0  0  0  0  0  0  0  0  0  0  0  0
    1.1995    0.6854   -0.0020 C   0  0  0  0  0  0  0  0  0  0  0  0
    2.0677    1.1873   -0.0074 H   0  0  0  0  0  0  0  0  0  0  0  0
  1  5  1  0
  5  8  1  0
  1  2  1  0
  1  3  1  0
  1  4  1  0
  5  6  1  0
  5  7  1  0
  8  9  1  0
  8 10  1  0
  8 11  1  0
 12 16  1  0
 16 17  2  0
 17 19  1  0
 19 21  2  0
 21 23  1  0
 23 25  2  0
 25 16  1  0
 12 13  1  0
 12 14  1  0
 12 15  1  0
 17 18  1  0
 19 20  1  0
 21 22  1  0
 23 24  1  0
 25 26  1  0
M  CHG  1   8   1
M  END
>  <PDB_ID>  (3034) 
pdb6gar

>  <RESIDUE_NAME>  (3034) 
LYS   PHE

>  <FRAG_NAME>  (3034) 
ETAM   MBZ

>  <FRAG_ATOM_NUM>  (3034) 
fragi: 11  fragj: 15

>  <atom.prop.CHAIN_ID>  (3034) 
A A A A A A A A A A A Z Z Z Z Z Z Z Z Z Z Z Z Z Z Z

>  <atom.prop.IS_HEAVY_ATOM>  (3034) 
1 0 0 0 1 0 0 1 0 0 0 1 0 0 0 1 1 0 1 0 1 0 1 0 1 0

>  <DIFUSE_FUNC_ATOM>  (3034) 
n/a

>  <FINAL_SINGLE_POINT_ENERGY>  (3034) 
0

>  <NONCOV_INTER_ENERGY_QM>  (3034) 
0

>  <FF_Energy>  (3034) 
-2.94

>  <QM_Energy>  (3034) 
-9.68

>  <source>  (3034) 
ETAM_MBZ

>  <Index>  (3034) 
33093

$$$$
ETAM-pdb6gas-A-LYS-81:MBZ-pdb6gas-A-PHE-26
     RDKit          3D

 26 25  0  0  0  0  0  0  0  0999 V2000
   -5.1080   -2.4475    1.2831 C   0  0  0  0  0  0  0  0  0  0  0  0
   -4.2559   -2.0804    1.5880 H   0  0  0  0  0  0  0  0  0  0  0  0
   -5.2112   -3.3999    1.4685 H   0  0  0  0  0  0  0  0  0  0  0  0
   -5.9439   -1.8789    1.6905 H   0  0  0  0  0  0  0  0  0  0  0  0
   -5.1424   -2.2809   -0.2850 C   0  0  0  0  0  0  0  0  0  0  0  0
   -5.6316   -3.1154   -0.6615 H   0  0  0  0  0  0  0  0  0  0  0  0
   -5.7966   -1.5004   -0.4872 H   0  0  0  0  0  0  0  0  0  0  0  0
   -3.8840   -2.0676   -1.0617 N   0  0  0  0  0  4  0  0  0  0  0  0
   -3.8299   -1.1114   -1.3441 H   0  0  0  0  0  0  0  0  0  0  0  0
   -3.0999   -2.2936   -0.4861 H   0  0  0  0  0  0  0  0  0  0  0  0
   -3.8913   -2.6567   -1.8679 H   0  0  0  0  0  0  0  0  0  0  0  0
   -0.0020    2.8751   -0.0028 C   0  0  0  0  0  0  0  0  0  0  0  0
   -0.7261    3.1881   -0.6008 H   0  0  0  0  0  0  0  0  0  0  0  0
    0.8831    3.1865   -0.3205 H   0  0  0  0  0  0  0  0  0  0  0  0
   -0.1736    3.3051    0.9839 H   0  0  0  0  0  0  0  0  0  0  0  0
   -0.0016    1.3845   -0.0123 C   0  0  0  0  0  0  0  0  0  0  0  0
   -1.1882    0.6884    0.0178 C   0  0  0  0  0  0  0  0  0  0  0  0
   -2.0562    1.1809    0.0515 H   0  0  0  0  0  0  0  0  0  0  0  0
   -1.1898   -0.6865   -0.0000 C   0  0  0  0  0  0  0  0  0  0  0  0
   -2.0659   -1.1880   -0.0087 H   0  0  0  0  0  0  0  0  0  0  0  0
    0.0089   -1.3786   -0.0048 C   0  0  0  0  0  0  0  0  0  0  0  0
   -0.0025   -2.3827   -0.0127 H   0  0  0  0  0  0  0  0  0  0  0  0
    1.1898   -0.6928    0.0000 C   0  0  0  0  0  0  0  0  0  0  0  0
    2.0781   -1.1873    0.0056 H   0  0  0  0  0  0  0  0  0  0  0  0
    1.1809    0.6850   -0.0007 C   0  0  0  0  0  0  0  0  0  0  0  0
    2.0542    1.1843    0.0069 H   0  0  0  0  0  0  0  0  0  0  0  0
  1  5  1  0
  5  8  1  0
  1  2  1  0
  1  3  1  0
  1  4  1  0
  5  6  1  0
  5  7  1  0
  8  9  1  0
  8 10  1  0
  8 11  1  0
 12 16  1  0
 16 17  2  0
 17 19  1  0
 19 21  2  0
 21 23  1  0
 23 25  2  0
 25 16  1  0
 12 13  1  0
 12 14  1  0
 12 15  1  0
 17 18  1  0
 19 20  1  0
 21 22  1  0
 23 24  1  0
 25 26  1  0
M  CHG  1   8   1
M  END
>  <PDB_ID>  (3035) 
pdb6gas

>  <RESIDUE_NAME>  (3035) 
LYS   PHE

>  <FRAG_NAME>  (3035) 
ETAM   MBZ

>  <FRAG_ATOM_NUM>  (3035) 
fragi: 11  fragj: 15

>  <atom.prop.CHAIN_ID>  (3035) 
A A A A A A A A A A A Z Z Z Z Z Z Z Z Z Z Z Z Z Z Z

>  <atom.prop.IS_HEAVY_ATOM>  (3035) 
1 0 0 0 1 0 0 1 0 0 0 1 0 0 0 1 1 0 1 0 1 0 1 0 1 0

>  <DIFUSE_FUNC_ATOM>  (3035) 
n/a

>  <FINAL_SINGLE_POINT_ENERGY>  (3035) 
0

>  <NONCOV_INTER_ENERGY_QM>  (3035) 
0

>  <FF_Energy>  (3035) 
5.44

>  <QM_Energy>  (3035) 
-0.89

>  <source>  (3035) 
ETAM_MBZ

>  <Index>  (3035) 
33094

$$$$
ETAM-pdb6gas-A-LYS-81:MBZ-pdb6gas-A-PHE-331
     RDKit          3D

 26 25  0  0  0  0  0  0  0  0999 V2000
    1.1007   -2.7961    2.5527 C   0  0  0  0  0  0  0  0  0  0  0  0
    0.3053   -3.3542    2.4549 H   0  0  0  0  0  0  0  0  0  0  0  0
    0.9582   -1.8654    2.2964 H   0  0  0  0  0  0  0  0  0  0  0  0
    1.5010   -2.8643    3.5642 H   0  0  0  0  0  0  0  0  0  0  0  0
    2.1909   -3.3782    1.5726 C   0  0  0  0  0  0  0  0  0  0  0  0
    2.7202   -2.5661    1.2014 H   0  0  0  0  0  0  0  0  0  0  0  0
    2.8857   -3.8759    2.1619 H   0  0  0  0  0  0  0  0  0  0  0  0
    1.8037   -4.2638    0.4332 N   0  0  0  0  0  4  0  0  0  0  0  0
    2.0476   -5.2070    0.6522 H   0  0  0  0  0  0  0  0  0  0  0  0
    0.8184   -4.1966    0.2844 H   0  0  0  0  0  0  0  0  0  0  0  0
    2.2894   -3.9728   -0.3893 H   0  0  0  0  0  0  0  0  0  0  0  0
    0.0116    2.9031   -0.0056 C   0  0  0  0  0  0  0  0  0  0  0  0
   -0.3570    3.1951   -0.8789 H   0  0  0  0  0  0  0  0  0  0  0  0
    0.9511    3.2030    0.0971 H   0  0  0  0  0  0  0  0  0  0  0  0
   -0.5775    3.3751    0.7808 H   0  0  0  0  0  0  0  0  0  0  0  0
    0.0025    1.3957    0.0184 C   0  0  0  0  0  0  0  0  0  0  0  0
   -1.1901    0.6743   -0.0165 C   0  0  0  0  0  0  0  0  0  0  0  0
   -2.0593    1.1705   -0.0563 H   0  0  0  0  0  0  0  0  0  0  0  0
   -1.1977   -0.7052    0.0000 C   0  0  0  0  0  0  0  0  0  0  0  0
   -2.0765   -1.1981    0.0231 H   0  0  0  0  0  0  0  0  0  0  0  0
   -0.0096   -1.3834   -0.0128 C   0  0  0  0  0  0  0  0  0  0  0  0
    0.0044   -2.3852   -0.0315 H   0  0  0  0  0  0  0  0  0  0  0  0
    1.1977   -0.6805   -0.0000 C   0  0  0  0  0  0  0  0  0  0  0  0
    2.0755   -1.1882    0.0025 H   0  0  0  0  0  0  0  0  0  0  0  0
    1.1973    0.6991    0.0109 C   0  0  0  0  0  0  0  0  0  0  0  0
    2.0628    1.1982    0.0131 H   0  0  0  0  0  0  0  0  0  0  0  0
  1  5  1  0
  5  8  1  0
  1  2  1  0
  1  3  1  0
  1  4  1  0
  5  6  1  0
  5  7  1  0
  8  9  1  0
  8 10  1  0
  8 11  1  0
 12 16  1  0
 16 17  2  0
 17 19  1  0
 19 21  2  0
 21 23  1  0
 23 25  2  0
 25 16  1  0
 12 13  1  0
 12 14  1  0
 12 15  1  0
 17 18  1  0
 19 20  1  0
 21 22  1  0
 23 24  1  0
 25 26  1  0
M  CHG  1   8   1
M  END
>  <PDB_ID>  (3036) 
pdb6gas

>  <RESIDUE_NAME>  (3036) 
LYS   PHE

>  <FRAG_NAME>  (3036) 
ETAM   MBZ

>  <FRAG_ATOM_NUM>  (3036) 
fragi: 11  fragj: 15

>  <atom.prop.CHAIN_ID>  (3036) 
A A A A A A A A A A A Z Z Z Z Z Z Z Z Z Z Z Z Z Z Z

>  <atom.prop.IS_HEAVY_ATOM>  (3036) 
1 0 0 0 1 0 0 1 0 0 0 1 0 0 0 1 1 0 1 0 1 0 1 0 1 0

>  <DIFUSE_FUNC_ATOM>  (3036) 
n/a

>  <FINAL_SINGLE_POINT_ENERGY>  (3036) 
0

>  <NONCOV_INTER_ENERGY_QM>  (3036) 
0

>  <FF_Energy>  (3036) 
5.51

>  <QM_Energy>  (3036) 
-3.05

>  <source>  (3036) 
ETAM_MBZ

>  <Index>  (3036) 
33095

$$$$
ETAM-pdb6gas-C-LYS-81:MBZ-pdb6gas-C-PHE-26
     RDKit          3D

 26 25  0  0  0  0  0  0  0  0999 V2000
   -5.7830   -2.4474    0.6700 C   0  0  0  0  0  0  0  0  0  0  0  0
   -5.2093   -2.2265    1.4556 H   0  0  0  0  0  0  0  0  0  0  0  0
   -6.1746   -3.3582    0.7809 H   0  0  0  0  0  0  0  0  0  0  0  0
   -6.5893   -1.7173    0.6001 H   0  0  0  0  0  0  0  0  0  0  0  0
   -4.9156   -2.4454   -0.5743 C   0  0  0  0  0  0  0  0  0  0  0  0
   -5.3519   -3.0046   -1.2777 H   0  0  0  0  0  0  0  0  0  0  0  0
   -4.8202   -1.5073   -0.9051 H   0  0  0  0  0  0  0  0  0  0  0  0
   -3.5655   -2.9990   -0.2769 N   0  0  0  0  0  4  0  0  0  0  0  0
   -3.6174   -3.9964   -0.2384 H   0  0  0  0  0  0  0  0  0  0  0  0
   -2.9293   -2.7239   -0.9966 H   0  0  0  0  0  0  0  0  0  0  0  0
   -3.2497   -2.6460    0.6028 H   0  0  0  0  0  0  0  0  0  0  0  0
    0.0114    2.8618    0.0123 C   0  0  0  0  0  0  0  0  0  0  0  0
   -0.6552    3.1903   -0.6428 H   0  0  0  0  0  0  0  0  0  0  0  0
    0.9216    3.1770   -0.2211 H   0  0  0  0  0  0  0  0  0  0  0  0
   -0.2439    3.2894    0.9818 H   0  0  0  0  0  0  0  0  0  0  0  0
    0.0015    1.3917    0.0012 C   0  0  0  0  0  0  0  0  0  0  0  0
   -1.1953    0.6945    0.0017 C   0  0  0  0  0  0  0  0  0  0  0  0
   -2.0602    1.1863    0.0020 H   0  0  0  0  0  0  0  0  0  0  0  0
   -1.2041   -0.6957    0.0000 C   0  0  0  0  0  0  0  0  0  0  0  0
   -2.0814   -1.1871    0.0020 H   0  0  0  0  0  0  0  0  0  0  0  0
   -0.0055   -1.3904   -0.0023 C   0  0  0  0  0  0  0  0  0  0  0  0
   -0.0030   -2.3880   -0.0065 H   0  0  0  0  0  0  0  0  0  0  0  0
    1.2041   -0.6887   -0.0000 C   0  0  0  0  0  0  0  0  0  0  0  0
    2.0802   -1.1956    0.0038 H   0  0  0  0  0  0  0  0  0  0  0  0
    1.1993    0.6887   -0.0006 C   0  0  0  0  0  0  0  0  0  0  0  0
    2.0647    1.1924   -0.0028 H   0  0  0  0  0  0  0  0  0  0  0  0
  1  5  1  0
  5  8  1  0
  1  2  1  0
  1  3  1  0
  1  4  1  0
  5  6  1  0
  5  7  1  0
  8  9  1  0
  8 10  1  0
  8 11  1  0
 12 16  1  0
 16 17  2  0
 17 19  1  0
 19 21  2  0
 21 23  1  0
 23 25  2  0
 25 16  1  0
 12 13  1  0
 12 14  1  0
 12 15  1  0
 17 18  1  0
 19 20  1  0
 21 22  1  0
 23 24  1  0
 25 26  1  0
M  CHG  1   8   1
M  END
>  <PDB_ID>  (3037) 
pdb6gas

>  <RESIDUE_NAME>  (3037) 
LYS   PHE

>  <FRAG_NAME>  (3037) 
ETAM   MBZ

>  <FRAG_ATOM_NUM>  (3037) 
fragi: 11  fragj: 15

>  <atom.prop.CHAIN_ID>  (3037) 
A A A A A A A A A A A Z Z Z Z Z Z Z Z Z Z Z Z Z Z Z

>  <atom.prop.IS_HEAVY_ATOM>  (3037) 
1 0 0 0 1 0 0 1 0 0 0 1 0 0 0 1 1 0 1 0 1 0 1 0 1 0

>  <DIFUSE_FUNC_ATOM>  (3037) 
n/a

>  <FINAL_SINGLE_POINT_ENERGY>  (3037) 
0

>  <NONCOV_INTER_ENERGY_QM>  (3037) 
0

>  <FF_Energy>  (3037) 
3.77

>  <QM_Energy>  (3037) 
-2.72

>  <source>  (3037) 
ETAM_MBZ

>  <Index>  (3037) 
33099

$$$$
ETAM-pdb6gas-C-LYS-81:MBZ-pdb6gas-C-PHE-331
     RDKit          3D

 26 25  0  0  0  0  0  0  0  0999 V2000
   -1.2655   -3.6170    2.5564 C   0  0  0  0  0  0  0  0  0  0  0  0
   -1.9214   -3.8782    1.8517 H   0  0  0  0  0  0  0  0  0  0  0  0
   -1.1576   -2.6254    2.5692 H   0  0  0  0  0  0  0  0  0  0  0  0
   -1.6333   -3.9495    3.5271 H   0  0  0  0  0  0  0  0  0  0  0  0
    0.0750   -4.2423    2.2208 C   0  0  0  0  0  0  0  0  0  0  0  0
    0.8001   -3.7197    2.6670 H   0  0  0  0  0  0  0  0  0  0  0  0
    0.0892   -5.1843    2.5537 H   0  0  0  0  0  0  0  0  0  0  0  0
    0.3046   -4.2397    0.7495 N   0  0  0  0  0  4  0  0  0  0  0  0
    0.5874   -3.3259    0.4597 H   0  0  0  0  0  0  0  0  0  0  0  0
    1.0209   -4.8992    0.5253 H   0  0  0  0  0  0  0  0  0  0  0  0
   -0.5417   -4.4921    0.2823 H   0  0  0  0  0  0  0  0  0  0  0  0
   -0.0130    2.8974    0.0260 C   0  0  0  0  0  0  0  0  0  0  0  0
    0.7309    3.2301   -0.5290 H   0  0  0  0  0  0  0  0  0  0  0  0
    0.0752    3.1826    0.9659 H   0  0  0  0  0  0  0  0  0  0  0  0
   -0.9325    3.3348   -0.3630 H   0  0  0  0  0  0  0  0  0  0  0  0
    0.0035    1.3930   -0.0143 C   0  0  0  0  0  0  0  0  0  0  0  0
   -1.1744    0.6575    0.0341 C   0  0  0  0  0  0  0  0  0  0  0  0
   -2.0515    1.1404    0.0935 H   0  0  0  0  0  0  0  0  0  0  0  0
   -1.1686   -0.7240    0.0000 C   0  0  0  0  0  0  0  0  0  0  0  0
   -2.0567   -1.2120   -0.0118 H   0  0  0  0  0  0  0  0  0  0  0  0
   -0.0051   -1.3721   -0.0141 C   0  0  0  0  0  0  0  0  0  0  0  0
    0.0256   -2.3830   -0.0352 H   0  0  0  0  0  0  0  0  0  0  0  0
    1.1686   -0.6670   -0.0000 C   0  0  0  0  0  0  0  0  0  0  0  0
    2.0656   -1.1659    0.0165 H   0  0  0  0  0  0  0  0  0  0  0  0
    1.1760    0.7126   -0.0057 C   0  0  0  0  0  0  0  0  0  0  0  0
    2.0503    1.1995   -0.0039 H   0  0  0  0  0  0  0  0  0  0  0  0
  1  5  1  0
  5  8  1  0
  1  2  1  0
  1  3  1  0
  1  4  1  0
  5  6  1  0
  5  7  1  0
  8  9  1  0
  8 10  1  0
  8 11  1  0
 12 16  1  0
 16 17  2  0
 17 19  1  0
 19 21  2  0
 21 23  1  0
 23 25  2  0
 25 16  1  0
 12 13  1  0
 12 14  1  0
 12 15  1  0
 17 18  1  0
 19 20  1  0
 21 22  1  0
 23 24  1  0
 25 26  1  0
M  CHG  1   8   1
M  END
>  <PDB_ID>  (3038) 
pdb6gas

>  <RESIDUE_NAME>  (3038) 
LYS   PHE

>  <FRAG_NAME>  (3038) 
ETAM   MBZ

>  <FRAG_ATOM_NUM>  (3038) 
fragi: 11  fragj: 15

>  <atom.prop.CHAIN_ID>  (3038) 
A A A A A A A A A A A Z Z Z Z Z Z Z Z Z Z Z Z Z Z Z

>  <atom.prop.IS_HEAVY_ATOM>  (3038) 
1 0 0 0 1 0 0 1 0 0 0 1 0 0 0 1 1 0 1 0 1 0 1 0 1 0

>  <DIFUSE_FUNC_ATOM>  (3038) 
n/a

>  <FINAL_SINGLE_POINT_ENERGY>  (3038) 
0

>  <NONCOV_INTER_ENERGY_QM>  (3038) 
0

>  <FF_Energy>  (3038) 
20.26

>  <QM_Energy>  (3038) 
5.48

>  <source>  (3038) 
ETAM_MBZ

>  <Index>  (3038) 
33100

$$$$
ETAM-pdb5fqd-C-LYS-46:MBZ-pdb5fqd-C-PHE-28
     RDKit          3D

 26 25  0  0  0  0  0  0  0  0999 V2000
    1.1471   -3.3684    4.1488 C   0  0  0  0  0  0  0  0  0  0  0  0
    1.3022   -3.9869    4.9235 H   0  0  0  0  0  0  0  0  0  0  0  0
    1.4102   -2.4385    4.4170 H   0  0  0  0  0  0  0  0  0  0  0  0
    1.7673   -3.6866    3.3108 H   0  0  0  0  0  0  0  0  0  0  0  0
   -0.3232   -3.3733    3.8193 C   0  0  0  0  0  0  0  0  0  0  0  0
   -0.5555   -4.2381    3.3580 H   0  0  0  0  0  0  0  0  0  0  0  0
   -0.8537   -3.3207    4.6744 H   0  0  0  0  0  0  0  0  0  0  0  0
   -0.7082   -2.2393    2.9422 N   0  0  0  0  0  4  0  0  0  0  0  0
    0.0742   -1.9735    2.3783 H   0  0  0  0  0  0  0  0  0  0  0  0
   -1.4663   -2.5171    2.3517 H   0  0  0  0  0  0  0  0  0  0  0  0
   -0.9922   -1.4630    3.5057 H   0  0  0  0  0  0  0  0  0  0  0  0
   -0.0002    2.9337   -0.0511 C   0  0  0  0  0  0  0  0  0  0  0  0
    0.8756    3.2492    0.2835 H   0  0  0  0  0  0  0  0  0  0  0  0
   -0.7409    3.2566    0.5180 H   0  0  0  0  0  0  0  0  0  0  0  0
   -0.1422    3.3631   -1.0428 H   0  0  0  0  0  0  0  0  0  0  0  0
   -0.0009    1.4120   -0.0024 C   0  0  0  0  0  0  0  0  0  0  0  0
   -1.1940    0.6973   -0.0020 C   0  0  0  0  0  0  0  0  0  0  0  0
   -2.0640    1.1771   -0.0046 H   0  0  0  0  0  0  0  0  0  0  0  0
   -1.1926   -0.7064    0.0000 C   0  0  0  0  0  0  0  0  0  0  0  0
   -2.0731   -1.1946    0.0057 H   0  0  0  0  0  0  0  0  0  0  0  0
    0.0026   -1.3973   -0.0048 C   0  0  0  0  0  0  0  0  0  0  0  0
   -0.0007   -2.3992   -0.0127 H   0  0  0  0  0  0  0  0  0  0  0  0
    1.1926   -0.7036   -0.0000 C   0  0  0  0  0  0  0  0  0  0  0  0
    2.0809   -1.1938   -0.0019 H   0  0  0  0  0  0  0  0  0  0  0  0
    1.1923    0.6981    0.0092 C   0  0  0  0  0  0  0  0  0  0  0  0
    2.0633    1.1859    0.0235 H   0  0  0  0  0  0  0  0  0  0  0  0
  1  5  1  0
  5  8  1  0
  1  2  1  0
  1  3  1  0
  1  4  1  0
  5  6  1  0
  5  7  1  0
  8  9  1  0
  8 10  1  0
  8 11  1  0
 12 16  1  0
 16 17  2  0
 17 19  1  0
 19 21  2  0
 21 23  1  0
 23 25  2  0
 25 16  1  0
 12 13  1  0
 12 14  1  0
 12 15  1  0
 17 18  1  0
 19 20  1  0
 21 22  1  0
 23 24  1  0
 25 26  1  0
M  CHG  1   8   1
M  END
>  <PDB_ID>  (3039) 
pdb5fqd

>  <RESIDUE_NAME>  (3039) 
LYS   PHE

>  <FRAG_NAME>  (3039) 
ETAM   MBZ

>  <FRAG_ATOM_NUM>  (3039) 
fragi: 11  fragj: 15

>  <atom.prop.CHAIN_ID>  (3039) 
A A A A A A A A A A A Z Z Z Z Z Z Z Z Z Z Z Z Z Z Z

>  <atom.prop.IS_HEAVY_ATOM>  (3039) 
1 0 0 0 1 0 0 1 0 0 0 1 0 0 0 1 1 0 1 0 1 0 1 0 1 0

>  <DIFUSE_FUNC_ATOM>  (3039) 
n/a

>  <FINAL_SINGLE_POINT_ENERGY>  (3039) 
0

>  <NONCOV_INTER_ENERGY_QM>  (3039) 
0

>  <FF_Energy>  (3039) 
-4.06

>  <QM_Energy>  (3039) 
-11.1

>  <source>  (3039) 
ETAM_MBZ

>  <Index>  (3039) 
33109

$$$$
ETAM-pdb6g9f-A-LYS-333:MBZ-pdb6g9f-A-PHE-392
     RDKit          3D

 26 25  0  0  0  0  0  0  0  0999 V2000
    2.6485    0.1906    2.9738 C   0  0  0  0  0  0  0  0  0  0  0  0
    2.9699    0.2186    3.9104 H   0  0  0  0  0  0  0  0  0  0  0  0
    3.0866   -0.5403    2.4684 H   0  0  0  0  0  0  0  0  0  0  0  0
    1.5698    0.0348    2.9691 H   0  0  0  0  0  0  0  0  0  0  0  0
    2.9802    1.5065    2.3079 C   0  0  0  0  0  0  0  0  0  0  0  0
    2.6522    1.4851    1.3630 H   0  0  0  0  0  0  0  0  0  0  0  0
    2.5198    2.2460    2.8007 H   0  0  0  0  0  0  0  0  0  0  0  0
    4.4334    1.7364    2.3208 N   0  0  0  0  0  4  0  0  0  0  0  0
    4.6524    2.4963    2.9371 H   0  0  0  0  0  0  0  0  0  0  0  0
    4.9061    0.9109    2.6363 H   0  0  0  0  0  0  0  0  0  0  0  0
    4.7508    1.9623    1.3967 H   0  0  0  0  0  0  0  0  0  0  0  0
    0.0073    2.9153   -0.0655 C   0  0  0  0  0  0  0  0  0  0  0  0
    0.8963    3.2309    0.2012 H   0  0  0  0  0  0  0  0  0  0  0  0
   -0.7046    3.2488    0.5202 H   0  0  0  0  0  0  0  0  0  0  0  0
   -0.1901    3.2810   -1.0732 H   0  0  0  0  0  0  0  0  0  0  0  0
    0.0048    1.4055    0.0072 C   0  0  0  0  0  0  0  0  0  0  0  0
   -1.1983    0.7013   -0.0087 C   0  0  0  0  0  0  0  0  0  0  0  0
   -2.0614    1.1924   -0.0276 H   0  0  0  0  0  0  0  0  0  0  0  0
   -1.2086   -0.6972   -0.0000 C   0  0  0  0  0  0  0  0  0  0  0  0
   -2.0866   -1.1848    0.0074 H   0  0  0  0  0  0  0  0  0  0  0  0
   -0.0065   -1.4024    0.0007 C   0  0  0  0  0  0  0  0  0  0  0  0
   -0.0098   -2.3959    0.0011 H   0  0  0  0  0  0  0  0  0  0  0  0
    1.2086   -0.7008    0.0000 C   0  0  0  0  0  0  0  0  0  0  0  0
    2.0834   -1.1998    0.0007 H   0  0  0  0  0  0  0  0  0  0  0  0
    1.1999    0.6936    0.0008 C   0  0  0  0  0  0  0  0  0  0  0  0
    2.0701    1.1898   -0.0044 H   0  0  0  0  0  0  0  0  0  0  0  0
  1  5  1  0
  5  8  1  0
  1  2  1  0
  1  3  1  0
  1  4  1  0
  5  6  1  0
  5  7  1  0
  8  9  1  0
  8 10  1  0
  8 11  1  0
 12 16  1  0
 16 17  2  0
 17 19  1  0
 19 21  2  0
 21 23  1  0
 23 25  2  0
 25 16  1  0
 12 13  1  0
 12 14  1  0
 12 15  1  0
 17 18  1  0
 19 20  1  0
 21 22  1  0
 23 24  1  0
 25 26  1  0
M  CHG  1   8   1
M  END
>  <PDB_ID>  (3040) 
pdb6g9f

>  <RESIDUE_NAME>  (3040) 
LYS   PHE

>  <FRAG_NAME>  (3040) 
ETAM   MBZ

>  <FRAG_ATOM_NUM>  (3040) 
fragi: 11  fragj: 15

>  <atom.prop.CHAIN_ID>  (3040) 
A A A A A A A A A A A Z Z Z Z Z Z Z Z Z Z Z Z Z Z Z

>  <atom.prop.IS_HEAVY_ATOM>  (3040) 
1 0 0 0 1 0 0 1 0 0 0 1 0 0 0 1 1 0 1 0 1 0 1 0 1 0

>  <DIFUSE_FUNC_ATOM>  (3040) 
n/a

>  <FINAL_SINGLE_POINT_ENERGY>  (3040) 
0

>  <NONCOV_INTER_ENERGY_QM>  (3040) 
0

>  <FF_Energy>  (3040) 
39.45

>  <QM_Energy>  (3040) 
1.09

>  <source>  (3040) 
ETAM_MBZ

>  <Index>  (3040) 
33119

$$$$
ETAM-pdb6geh-A-LYS-259:MBZ-pdb6geh-A-PHE-255
     RDKit          3D

 26 25  0  0  0  0  0  0  0  0999 V2000
   -0.6021   -1.6299    3.5584 C   0  0  0  0  0  0  0  0  0  0  0  0
   -0.4467   -2.1530    4.3603 H   0  0  0  0  0  0  0  0  0  0  0  0
   -0.5277   -2.1974    2.7751 H   0  0  0  0  0  0  0  0  0  0  0  0
   -1.6088   -1.2139    3.5982 H   0  0  0  0  0  0  0  0  0  0  0  0
    0.4844   -0.5724    3.4738 C   0  0  0  0  0  0  0  0  0  0  0  0
    0.3490   -0.0292    2.6806 H   0  0  0  0  0  0  0  0  0  0  0  0
    0.4649   -0.0207    4.2716 H   0  0  0  0  0  0  0  0  0  0  0  0
    1.8349   -1.2309    3.3785 N   0  0  0  0  0  4  0  0  0  0  0  0
    2.4731   -0.6122    3.3284 H   0  0  0  0  0  0  0  0  0  0  0  0
    1.9784   -1.7361    4.0971 H   0  0  0  0  0  0  0  0  0  0  0  0
    1.8731   -1.7447    2.6526 H   0  0  0  0  0  0  0  0  0  0  0  0
    0.0389    2.9059   -0.0237 C   0  0  0  0  0  0  0  0  0  0  0  0
   -0.0283    3.1828   -0.9514 H   0  0  0  0  0  0  0  0  0  0  0  0
    0.8958    3.1823    0.3371 H   0  0  0  0  0  0  0  0  0  0  0  0
   -0.7517    3.3969    0.5437 H   0  0  0  0  0  0  0  0  0  0  0  0
   -0.0020    1.3988    0.0049 C   0  0  0  0  0  0  0  0  0  0  0  0
   -1.1965    0.6873   -0.0093 C   0  0  0  0  0  0  0  0  0  0  0  0
   -2.0049    1.1471   -0.0119 H   0  0  0  0  0  0  0  0  0  0  0  0
   -1.1951   -0.7072    0.0000 C   0  0  0  0  0  0  0  0  0  0  0  0
   -1.9986   -1.1759   -0.0022 H   0  0  0  0  0  0  0  0  0  0  0  0
    0.0111   -1.3882    0.0018 C   0  0  0  0  0  0  0  0  0  0  0  0
    0.0214   -2.3187    0.0083 H   0  0  0  0  0  0  0  0  0  0  0  0
    1.1951   -0.6838   -0.0000 C   0  0  0  0  0  0  0  0  0  0  0  0
    2.0049   -1.1414    0.0082 H   0  0  0  0  0  0  0  0  0  0  0  0
    1.1874    0.6931    0.0026 C   0  0  0  0  0  0  0  0  0  0  0  0
    1.9943    1.1558   -0.0004 H   0  0  0  0  0  0  0  0  0  0  0  0
  1  5  1  0
  5  8  1  0
  1  2  1  0
  1  3  1  0
  1  4  1  0
  5  6  1  0
  5  7  1  0
  8  9  1  0
  8 10  1  0
  8 11  1  0
 12 16  1  0
 16 17  2  0
 17 19  1  0
 19 21  2  0
 21 23  1  0
 23 25  2  0
 25 16  1  0
 12 13  1  0
 12 14  1  0
 12 15  1  0
 17 18  1  0
 19 20  1  0
 21 22  1  0
 23 24  1  0
 25 26  1  0
M  CHG  1   8   1
M  END
>  <PDB_ID>  (3041) 
pdb6geh

>  <RESIDUE_NAME>  (3041) 
LYS   PHE

>  <FRAG_NAME>  (3041) 
ETAM   MBZ

>  <FRAG_ATOM_NUM>  (3041) 
fragi: 11  fragj: 15

>  <atom.prop.CHAIN_ID>  (3041) 
A A A A A A A A A A A Z Z Z Z Z Z Z Z Z Z Z Z Z Z Z

>  <atom.prop.IS_HEAVY_ATOM>  (3041) 
1 0 0 0 1 0 0 1 0 0 0 1 0 0 0 1 1 0 1 0 1 0 1 0 1 0

>  <DIFUSE_FUNC_ATOM>  (3041) 
n/a

>  <FINAL_SINGLE_POINT_ENERGY>  (3041) 
0

>  <NONCOV_INTER_ENERGY_QM>  (3041) 
0

>  <FF_Energy>  (3041) 
-5.3

>  <QM_Energy>  (3041) 
-12.0

>  <source>  (3041) 
ETAM_MBZ

>  <Index>  (3041) 
33124

$$$$
ETAM-pdb6gf1-B-LYS-37:MBZ-pdb6gf1-B-PHE-19
     RDKit          3D

 26 25  0  0  0  0  0  0  0  0999 V2000
   -2.9348   -2.2843   -2.1849 C   0  0  0  0  0  0  0  0  0  0  0  0
   -2.0474   -2.0971   -1.7731 H   0  0  0  0  0  0  0  0  0  0  0  0
   -2.8341   -2.9251   -2.9404 H   0  0  0  0  0  0  0  0  0  0  0  0
   -3.5940   -2.7177   -1.4327 H   0  0  0  0  0  0  0  0  0  0  0  0
   -3.4846   -0.9597   -2.7534 C   0  0  0  0  0  0  0  0  0  0  0  0
   -2.7097   -0.4228   -3.1103 H   0  0  0  0  0  0  0  0  0  0  0  0
   -4.0983   -1.1760   -3.5229 H   0  0  0  0  0  0  0  0  0  0  0  0
   -4.2271   -0.1441   -1.7471 N   0  0  0  0  0  4  0  0  0  0  0  0
   -3.6605   -0.0297   -0.9327 H   0  0  0  0  0  0  0  0  0  0  0  0
   -4.4373    0.7503   -2.1384 H   0  0  0  0  0  0  0  0  0  0  0  0
   -5.0749   -0.6133   -1.5044 H   0  0  0  0  0  0  0  0  0  0  0  0
    0.0153    2.8631    0.0338 C   0  0  0  0  0  0  0  0  0  0  0  0
    0.8949    3.1673    0.3816 H   0  0  0  0  0  0  0  0  0  0  0  0
   -0.7191    3.1740    0.6275 H   0  0  0  0  0  0  0  0  0  0  0  0
   -0.1294    3.3467   -0.9323 H   0  0  0  0  0  0  0  0  0  0  0  0
    0.0034    1.3835   -0.0025 C   0  0  0  0  0  0  0  0  0  0  0  0
   -1.1957    0.6902    0.0026 C   0  0  0  0  0  0  0  0  0  0  0  0
   -2.0570    1.1845    0.0065 H   0  0  0  0  0  0  0  0  0  0  0  0
   -1.1972   -0.6905    0.0000 C   0  0  0  0  0  0  0  0  0  0  0  0
   -2.0728   -1.1897    0.0050 H   0  0  0  0  0  0  0  0  0  0  0  0
    0.0025   -1.3780   -0.0074 C   0  0  0  0  0  0  0  0  0  0  0  0
    0.0023   -2.3794   -0.0181 H   0  0  0  0  0  0  0  0  0  0  0  0
    1.1972   -0.6812   -0.0000 C   0  0  0  0  0  0  0  0  0  0  0  0
    2.0792   -1.1918    0.0010 H   0  0  0  0  0  0  0  0  0  0  0  0
    1.1898    0.6760    0.0072 C   0  0  0  0  0  0  0  0  0  0  0  0
    2.0607    1.1862    0.0196 H   0  0  0  0  0  0  0  0  0  0  0  0
  1  5  1  0
  5  8  1  0
  1  2  1  0
  1  3  1  0
  1  4  1  0
  5  6  1  0
  5  7  1  0
  8  9  1  0
  8 10  1  0
  8 11  1  0
 12 16  1  0
 16 17  2  0
 17 19  1  0
 19 21  2  0
 21 23  1  0
 23 25  2  0
 25 16  1  0
 12 13  1  0
 12 14  1  0
 12 15  1  0
 17 18  1  0
 19 20  1  0
 21 22  1  0
 23 24  1  0
 25 26  1  0
M  CHG  1   8   1
M  END
>  <PDB_ID>  (3042) 
pdb6gf1

>  <RESIDUE_NAME>  (3042) 
LYS   PHE

>  <FRAG_NAME>  (3042) 
ETAM   MBZ

>  <FRAG_ATOM_NUM>  (3042) 
fragi: 11  fragj: 15

>  <atom.prop.CHAIN_ID>  (3042) 
A A A A A A A A A A A Z Z Z Z Z Z Z Z Z Z Z Z Z Z Z

>  <atom.prop.IS_HEAVY_ATOM>  (3042) 
1 0 0 0 1 0 0 1 0 0 0 1 0 0 0 1 1 0 1 0 1 0 1 0 1 0

>  <DIFUSE_FUNC_ATOM>  (3042) 
n/a

>  <FINAL_SINGLE_POINT_ENERGY>  (3042) 
0

>  <NONCOV_INTER_ENERGY_QM>  (3042) 
0

>  <FF_Energy>  (3042) 
2.41

>  <QM_Energy>  (3042) 
-4.37

>  <source>  (3042) 
ETAM_MBZ

>  <Index>  (3042) 
33126

$$$$
ETAM-pdb5gj6-A-LYS-91:MBZ-pdb5gj6-A-PHE-80
     RDKit          3D

 26 25  0  0  0  0  0  0  0  0999 V2000
    0.2191    2.3127   -3.6006 C   0  0  0  0  0  0  0  0  0  0  0  0
    0.5031    2.3585   -2.6476 H   0  0  0  0  0  0  0  0  0  0  0  0
   -0.7742    2.2816   -3.6624 H   0  0  0  0  0  0  0  0  0  0  0  0
    0.5768    3.2035   -4.1170 H   0  0  0  0  0  0  0  0  0  0  0  0
    0.7830    1.0435   -4.2151 C   0  0  0  0  0  0  0  0  0  0  0  0
    0.3367    0.8817   -5.0970 H   0  0  0  0  0  0  0  0  0  0  0  0
    1.7671    1.1598   -4.3616 H   0  0  0  0  0  0  0  0  0  0  0  0
    0.5579   -0.1366   -3.3300 N   0  0  0  0  0  4  0  0  0  0  0  0
   -0.4175   -0.3527   -3.3103 H   0  0  0  0  0  0  0  0  0  0  0  0
    1.0688   -0.9183   -3.6860 H   0  0  0  0  0  0  0  0  0  0  0  0
    0.8733    0.0794   -2.4070 H   0  0  0  0  0  0  0  0  0  0  0  0
   -0.0032    2.9058   -0.0050 C   0  0  0  0  0  0  0  0  0  0  0  0
   -0.7857    3.2062   -0.5298 H   0  0  0  0  0  0  0  0  0  0  0  0
    0.8430    3.2107   -0.4165 H   0  0  0  0  0  0  0  0  0  0  0  0
   -0.0734    3.3570    0.9847 H   0  0  0  0  0  0  0  0  0  0  0  0
    0.0002    1.3992    0.0038 C   0  0  0  0  0  0  0  0  0  0  0  0
   -1.1934    0.6899   -0.0018 C   0  0  0  0  0  0  0  0  0  0  0  0
   -2.0607    1.1826   -0.0085 H   0  0  0  0  0  0  0  0  0  0  0  0
   -1.1986   -0.6938   -0.0000 C   0  0  0  0  0  0  0  0  0  0  0  0
   -2.0771   -1.1894    0.0040 H   0  0  0  0  0  0  0  0  0  0  0  0
   -0.0012   -1.3909   -0.0018 C   0  0  0  0  0  0  0  0  0  0  0  0
   -0.0066   -2.3899   -0.0047 H   0  0  0  0  0  0  0  0  0  0  0  0
    1.1986   -0.6968    0.0000 C   0  0  0  0  0  0  0  0  0  0  0  0
    2.0798   -1.1955    0.0027 H   0  0  0  0  0  0  0  0  0  0  0  0
    1.1944    0.6924   -0.0002 C   0  0  0  0  0  0  0  0  0  0  0  0
    2.0641    1.1884   -0.0043 H   0  0  0  0  0  0  0  0  0  0  0  0
  1  5  1  0
  5  8  1  0
  1  2  1  0
  1  3  1  0
  1  4  1  0
  5  6  1  0
  5  7  1  0
  8  9  1  0
  8 10  1  0
  8 11  1  0
 12 16  1  0
 16 17  2  0
 17 19  1  0
 19 21  2  0
 21 23  1  0
 23 25  2  0
 25 16  1  0
 12 13  1  0
 12 14  1  0
 12 15  1  0
 17 18  1  0
 19 20  1  0
 21 22  1  0
 23 24  1  0
 25 26  1  0
M  CHG  1   8   1
M  END
>  <PDB_ID>  (3043) 
pdb5gj6

>  <RESIDUE_NAME>  (3043) 
LYS   PHE

>  <FRAG_NAME>  (3043) 
ETAM   MBZ

>  <FRAG_ATOM_NUM>  (3043) 
fragi: 11  fragj: 15

>  <atom.prop.CHAIN_ID>  (3043) 
A A A A A A A A A A A Z Z Z Z Z Z Z Z Z Z Z Z Z Z Z

>  <atom.prop.IS_HEAVY_ATOM>  (3043) 
1 0 0 0 1 0 0 1 0 0 0 1 0 0 0 1 1 0 1 0 1 0 1 0 1 0

>  <DIFUSE_FUNC_ATOM>  (3043) 
n/a

>  <FINAL_SINGLE_POINT_ENERGY>  (3043) 
0

>  <NONCOV_INTER_ENERGY_QM>  (3043) 
0

>  <FF_Energy>  (3043) 
-8.97

>  <QM_Energy>  (3043) 
-16.41

>  <source>  (3043) 
ETAM_MBZ

>  <Index>  (3043) 
33144

$$$$
ETAM-pdb6gh8-A-LYS-103:MBZ-pdb6gh8-A-PHE-87
     RDKit          3D

 26 25  0  0  0  0  0  0  0  0999 V2000
   -1.5561    1.0625   -4.0482 C   0  0  0  0  0  0  0  0  0  0  0  0
   -2.1017    0.2840   -3.7762 H   0  0  0  0  0  0  0  0  0  0  0  0
   -1.4722    1.1165   -5.0322 H   0  0  0  0  0  0  0  0  0  0  0  0
   -2.0287    1.9732   -3.6803 H   0  0  0  0  0  0  0  0  0  0  0  0
   -0.1965    0.9454   -3.4440 C   0  0  0  0  0  0  0  0  0  0  0  0
    0.3083    1.8207   -3.5871 H   0  0  0  0  0  0  0  0  0  0  0  0
   -0.2893    0.8319   -2.4333 H   0  0  0  0  0  0  0  0  0  0  0  0
    0.6185   -0.1631   -3.9715 N   0  0  0  0  0  4  0  0  0  0  0  0
    1.0043   -0.6907   -3.2124 H   0  0  0  0  0  0  0  0  0  0  0  0
    0.0488   -0.7642   -4.5347 H   0  0  0  0  0  0  0  0  0  0  0  0
    1.3649    0.2016   -4.5318 H   0  0  0  0  0  0  0  0  0  0  0  0
    0.0079    2.9001    0.0019 C   0  0  0  0  0  0  0  0  0  0  0  0
   -0.7927    3.2123   -0.4882 H   0  0  0  0  0  0  0  0  0  0  0  0
    0.8394    3.2043   -0.4384 H   0  0  0  0  0  0  0  0  0  0  0  0
   -0.0199    3.3451    0.9965 H   0  0  0  0  0  0  0  0  0  0  0  0
    0.0006    1.3978    0.0017 C   0  0  0  0  0  0  0  0  0  0  0  0
   -1.1919    0.6922    0.0001 C   0  0  0  0  0  0  0  0  0  0  0  0
   -2.0605    1.1823   -0.0018 H   0  0  0  0  0  0  0  0  0  0  0  0
   -1.1953   -0.6944    0.0000 C   0  0  0  0  0  0  0  0  0  0  0  0
   -2.0750   -1.1884    0.0017 H   0  0  0  0  0  0  0  0  0  0  0  0
   -0.0011   -1.3878   -0.0005 C   0  0  0  0  0  0  0  0  0  0  0  0
   -0.0059   -2.3894   -0.0016 H   0  0  0  0  0  0  0  0  0  0  0  0
    1.1953   -0.6970    0.0000 C   0  0  0  0  0  0  0  0  0  0  0  0
    2.0782   -1.1960    0.0027 H   0  0  0  0  0  0  0  0  0  0  0  0
    1.1925    0.6892   -0.0013 C   0  0  0  0  0  0  0  0  0  0  0  0
    2.0625    1.1859   -0.0053 H   0  0  0  0  0  0  0  0  0  0  0  0
  1  5  1  0
  5  8  1  0
  1  2  1  0
  1  3  1  0
  1  4  1  0
  5  6  1  0
  5  7  1  0
  8  9  1  0
  8 10  1  0
  8 11  1  0
 12 16  1  0
 16 17  2  0
 17 19  1  0
 19 21  2  0
 21 23  1  0
 23 25  2  0
 25 16  1  0
 12 13  1  0
 12 14  1  0
 12 15  1  0
 17 18  1  0
 19 20  1  0
 21 22  1  0
 23 24  1  0
 25 26  1  0
M  CHG  1   8   1
M  END
>  <PDB_ID>  (3044) 
pdb6gh8

>  <RESIDUE_NAME>  (3044) 
LYS   PHE

>  <FRAG_NAME>  (3044) 
ETAM   MBZ

>  <FRAG_ATOM_NUM>  (3044) 
fragi: 11  fragj: 15

>  <atom.prop.CHAIN_ID>  (3044) 
A A A A A A A A A A A Z Z Z Z Z Z Z Z Z Z Z Z Z Z Z

>  <atom.prop.IS_HEAVY_ATOM>  (3044) 
1 0 0 0 1 0 0 1 0 0 0 1 0 0 0 1 1 0 1 0 1 0 1 0 1 0

>  <DIFUSE_FUNC_ATOM>  (3044) 
n/a

>  <FINAL_SINGLE_POINT_ENERGY>  (3044) 
0

>  <NONCOV_INTER_ENERGY_QM>  (3044) 
0

>  <FF_Energy>  (3044) 
-5.66

>  <QM_Energy>  (3044) 
-11.37

>  <source>  (3044) 
ETAM_MBZ

>  <Index>  (3044) 
33147

$$$$
ETAM-pdb6ggy-B-LYS-564:MBZ-pdb6ggy-B-PHE-455
     RDKit          3D

 26 25  0  0  0  0  0  0  0  0999 V2000
   -0.9545   -3.5501    1.7238 C   0  0  0  0  0  0  0  0  0  0  0  0
   -1.1761   -2.5913    1.9020 H   0  0  0  0  0  0  0  0  0  0  0  0
   -0.0071   -3.6204    1.4108 H   0  0  0  0  0  0  0  0  0  0  0  0
   -1.0596   -4.1108    2.6527 H   0  0  0  0  0  0  0  0  0  0  0  0
   -1.8645   -4.0631    0.6305 C   0  0  0  0  0  0  0  0  0  0  0  0
   -2.1486   -4.9963    0.8514 H   0  0  0  0  0  0  0  0  0  0  0  0
   -2.6716   -3.4751    0.5735 H   0  0  0  0  0  0  0  0  0  0  0  0
   -1.1645   -4.0616   -0.6785 N   0  0  0  0  0  4  0  0  0  0  0  0
   -1.4814   -3.2865   -1.2246 H   0  0  0  0  0  0  0  0  0  0  0  0
   -0.1788   -3.9823   -0.5282 H   0  0  0  0  0  0  0  0  0  0  0  0
   -1.3600   -4.9144   -1.1629 H   0  0  0  0  0  0  0  0  0  0  0  0
    0.0004    2.8916   -0.0861 C   0  0  0  0  0  0  0  0  0  0  0  0
    0.8714    3.2269    0.2119 H   0  0  0  0  0  0  0  0  0  0  0  0
   -0.7451    3.2446    0.4432 H   0  0  0  0  0  0  0  0  0  0  0  0
   -0.1434    3.2218   -1.1149 H   0  0  0  0  0  0  0  0  0  0  0  0
    0.0001    1.3996    0.0242 C   0  0  0  0  0  0  0  0  0  0  0  0
   -1.2038    0.6870    0.0020 C   0  0  0  0  0  0  0  0  0  0  0  0
   -2.0658    1.1808   -0.0136 H   0  0  0  0  0  0  0  0  0  0  0  0
   -1.2009   -0.6957    0.0000 C   0  0  0  0  0  0  0  0  0  0  0  0
   -2.0731   -1.1983   -0.0010 H   0  0  0  0  0  0  0  0  0  0  0  0
    0.0050   -1.3849    0.0007 C   0  0  0  0  0  0  0  0  0  0  0  0
   -0.0003   -2.3880    0.0018 H   0  0  0  0  0  0  0  0  0  0  0  0
    1.2009   -0.6943    0.0000 C   0  0  0  0  0  0  0  0  0  0  0  0
    2.0830   -1.1943    0.0203 H   0  0  0  0  0  0  0  0  0  0  0  0
    1.1987    0.6883   -0.0269 C   0  0  0  0  0  0  0  0  0  0  0  0
    2.0632    1.1880   -0.0845 H   0  0  0  0  0  0  0  0  0  0  0  0
  1  5  1  0
  5  8  1  0
  1  2  1  0
  1  3  1  0
  1  4  1  0
  5  6  1  0
  5  7  1  0
  8  9  1  0
  8 10  1  0
  8 11  1  0
 12 16  1  0
 16 17  2  0
 17 19  1  0
 19 21  2  0
 21 23  1  0
 23 25  2  0
 25 16  1  0
 12 13  1  0
 12 14  1  0
 12 15  1  0
 17 18  1  0
 19 20  1  0
 21 22  1  0
 23 24  1  0
 25 26  1  0
M  CHG  1   8   1
M  END
>  <PDB_ID>  (3045) 
pdb6ggy

>  <RESIDUE_NAME>  (3045) 
LYS   PHE

>  <FRAG_NAME>  (3045) 
ETAM   MBZ

>  <FRAG_ATOM_NUM>  (3045) 
fragi: 11  fragj: 15

>  <atom.prop.CHAIN_ID>  (3045) 
A A A A A A A A A A A Z Z Z Z Z Z Z Z Z Z Z Z Z Z Z

>  <atom.prop.IS_HEAVY_ATOM>  (3045) 
1 0 0 0 1 0 0 1 0 0 0 1 0 0 0 1 1 0 1 0 1 0 1 0 1 0

>  <DIFUSE_FUNC_ATOM>  (3045) 
n/a

>  <FINAL_SINGLE_POINT_ENERGY>  (3045) 
0

>  <NONCOV_INTER_ENERGY_QM>  (3045) 
0

>  <FF_Energy>  (3045) 
21.28

>  <QM_Energy>  (3045) 
1.73

>  <source>  (3045) 
ETAM_MBZ

>  <Index>  (3045) 
33160

$$$$
ETAM-pdb5glf-C-LYS-164:MBZ-pdb5glf-A-PHE-52
     RDKit          3D

 26 25  0  0  0  0  0  0  0  0999 V2000
    1.1658   -2.1384   -4.7642 C   0  0  0  0  0  0  0  0  0  0  0  0
    0.7792   -2.0438   -5.6652 H   0  0  0  0  0  0  0  0  0  0  0  0
    0.6941   -2.8167   -4.2293 H   0  0  0  0  0  0  0  0  0  0  0  0
    2.2156   -2.4177   -4.8533 H   0  0  0  0  0  0  0  0  0  0  0  0
    1.0808   -0.8069   -4.0521 C   0  0  0  0  0  0  0  0  0  0  0  0
    1.7451   -0.8004   -3.2901 H   0  0  0  0  0  0  0  0  0  0  0  0
    1.3440   -0.0733   -4.6960 H   0  0  0  0  0  0  0  0  0  0  0  0
   -0.2711   -0.5172   -3.5171 N   0  0  0  0  0  4  0  0  0  0  0  0
   -0.9466   -1.0872   -3.9872 H   0  0  0  0  0  0  0  0  0  0  0  0
   -0.2927   -0.7166   -2.5372 H   0  0  0  0  0  0  0  0  0  0  0  0
   -0.4900    0.4477   -3.6652 H   0  0  0  0  0  0  0  0  0  0  0  0
    0.0014    2.8771    0.0717 C   0  0  0  0  0  0  0  0  0  0  0  0
   -0.7908    3.2223   -0.4054 H   0  0  0  0  0  0  0  0  0  0  0  0
    0.8400    3.2131   -0.3269 H   0  0  0  0  0  0  0  0  0  0  0  0
   -0.0452    3.2522    1.0941 H   0  0  0  0  0  0  0  0  0  0  0  0
   -0.0038    1.3976   -0.0067 C   0  0  0  0  0  0  0  0  0  0  0  0
   -1.2105    0.6946    0.0202 C   0  0  0  0  0  0  0  0  0  0  0  0
   -2.0700    1.1810    0.0520 H   0  0  0  0  0  0  0  0  0  0  0  0
   -1.2034   -0.6991    0.0000 C   0  0  0  0  0  0  0  0  0  0  0  0
   -2.0698   -1.2032    0.0050 H   0  0  0  0  0  0  0  0  0  0  0  0
    0.0152   -1.3854   -0.0260 C   0  0  0  0  0  0  0  0  0  0  0  0
    0.0121   -2.3855   -0.0637 H   0  0  0  0  0  0  0  0  0  0  0  0
    1.2034   -0.6848    0.0000 C   0  0  0  0  0  0  0  0  0  0  0  0
    2.0899   -1.1925    0.0114 H   0  0  0  0  0  0  0  0  0  0  0  0
    1.1991    0.6771    0.0125 C   0  0  0  0  0  0  0  0  0  0  0  0
    2.0633    1.1904    0.0350 H   0  0  0  0  0  0  0  0  0  0  0  0
  1  5  1  0
  5  8  1  0
  1  2  1  0
  1  3  1  0
  1  4  1  0
  5  6  1  0
  5  7  1  0
  8  9  1  0
  8 10  1  0
  8 11  1  0
 12 16  1  0
 16 17  2  0
 17 19  1  0
 19 21  2  0
 21 23  1  0
 23 25  2  0
 25 16  1  0
 12 13  1  0
 12 14  1  0
 12 15  1  0
 17 18  1  0
 19 20  1  0
 21 22  1  0
 23 24  1  0
 25 26  1  0
M  CHG  1   8   1
M  END
>  <PDB_ID>  (3046) 
pdb5glf

>  <RESIDUE_NAME>  (3046) 
LYS   PHE

>  <FRAG_NAME>  (3046) 
ETAM   MBZ

>  <FRAG_ATOM_NUM>  (3046) 
fragi: 11  fragj: 15

>  <atom.prop.CHAIN_ID>  (3046) 
A A A A A A A A A A A Z Z Z Z Z Z Z Z Z Z Z Z Z Z Z

>  <atom.prop.IS_HEAVY_ATOM>  (3046) 
1 0 0 0 1 0 0 1 0 0 0 1 0 0 0 1 1 0 1 0 1 0 1 0 1 0

>  <DIFUSE_FUNC_ATOM>  (3046) 
n/a

>  <FINAL_SINGLE_POINT_ENERGY>  (3046) 
0

>  <NONCOV_INTER_ENERGY_QM>  (3046) 
0

>  <FF_Energy>  (3046) 
-8.18

>  <QM_Energy>  (3046) 
-15.21

>  <source>  (3046) 
ETAM_MBZ

>  <Index>  (3046) 
33188

$$$$
ETAM-pdb5glf-G-LYS-164:MBZ-pdb5glf-E-PHE-52
     RDKit          3D

 26 25  0  0  0  0  0  0  0  0999 V2000
    0.3986   -2.7694   -4.5410 C   0  0  0  0  0  0  0  0  0  0  0  0
   -0.0587   -2.7524   -5.4114 H   0  0  0  0  0  0  0  0  0  0  0  0
    0.0007   -3.4211   -3.9218 H   0  0  0  0  0  0  0  0  0  0  0  0
    1.4460   -3.0264   -4.6990 H   0  0  0  0  0  0  0  0  0  0  0  0
    0.3238   -1.3863   -3.9167 C   0  0  0  0  0  0  0  0  0  0  0  0
    1.0670   -1.3020   -3.2311 H   0  0  0  0  0  0  0  0  0  0  0  0
    0.5046   -0.6962   -4.6383 H   0  0  0  0  0  0  0  0  0  0  0  0
   -0.9700   -1.0844   -3.2699 N   0  0  0  0  0  4  0  0  0  0  0  0
   -0.8550   -0.3285   -2.6242 H   0  0  0  0  0  0  0  0  0  0  0  0
   -1.6423   -0.8260   -3.9652 H   0  0  0  0  0  0  0  0  0  0  0  0
   -1.2974   -1.8929   -2.7782 H   0  0  0  0  0  0  0  0  0  0  0  0
    0.0017    2.9003    0.0147 C   0  0  0  0  0  0  0  0  0  0  0  0
   -0.8033    3.2136   -0.4642 H   0  0  0  0  0  0  0  0  0  0  0  0
    0.8288    3.2106   -0.4275 H   0  0  0  0  0  0  0  0  0  0  0  0
   -0.0201    3.3108    1.0241 H   0  0  0  0  0  0  0  0  0  0  0  0
   -0.0004    1.3997   -0.0140 C   0  0  0  0  0  0  0  0  0  0  0  0
   -1.1998    0.6859    0.0143 C   0  0  0  0  0  0  0  0  0  0  0  0
   -2.0643    1.1759    0.0438 H   0  0  0  0  0  0  0  0  0  0  0  0
   -1.1994   -0.7015    0.0000 C   0  0  0  0  0  0  0  0  0  0  0  0
   -2.0728   -1.2011   -0.0015 H   0  0  0  0  0  0  0  0  0  0  0  0
    0.0083   -1.3974   -0.0096 C   0  0  0  0  0  0  0  0  0  0  0  0
    0.0080   -2.3912   -0.0234 H   0  0  0  0  0  0  0  0  0  0  0  0
    1.1994   -0.6875    0.0000 C   0  0  0  0  0  0  0  0  0  0  0  0
    2.0880   -1.1816    0.0016 H   0  0  0  0  0  0  0  0  0  0  0  0
    1.1919    0.7009    0.0092 C   0  0  0  0  0  0  0  0  0  0  0  0
    2.0604    1.1981    0.0319 H   0  0  0  0  0  0  0  0  0  0  0  0
  1  5  1  0
  5  8  1  0
  1  2  1  0
  1  3  1  0
  1  4  1  0
  5  6  1  0
  5  7  1  0
  8  9  1  0
  8 10  1  0
  8 11  1  0
 12 16  1  0
 16 17  2  0
 17 19  1  0
 19 21  2  0
 21 23  1  0
 23 25  2  0
 25 16  1  0
 12 13  1  0
 12 14  1  0
 12 15  1  0
 17 18  1  0
 19 20  1  0
 21 22  1  0
 23 24  1  0
 25 26  1  0
M  CHG  1   8   1
M  END
>  <PDB_ID>  (3047) 
pdb5glf

>  <RESIDUE_NAME>  (3047) 
LYS   PHE

>  <FRAG_NAME>  (3047) 
ETAM   MBZ

>  <FRAG_ATOM_NUM>  (3047) 
fragi: 11  fragj: 15

>  <atom.prop.CHAIN_ID>  (3047) 
A A A A A A A A A A A Z Z Z Z Z Z Z Z Z Z Z Z Z Z Z

>  <atom.prop.IS_HEAVY_ATOM>  (3047) 
1 0 0 0 1 0 0 1 0 0 0 1 0 0 0 1 1 0 1 0 1 0 1 0 1 0

>  <DIFUSE_FUNC_ATOM>  (3047) 
n/a

>  <FINAL_SINGLE_POINT_ENERGY>  (3047) 
0

>  <NONCOV_INTER_ENERGY_QM>  (3047) 
0

>  <FF_Energy>  (3047) 
-6.99

>  <QM_Energy>  (3047) 
-13.9

>  <source>  (3047) 
ETAM_MBZ

>  <Index>  (3047) 
33192

$$$$
ETAM-pdb5gkd-A-LYS-82:MBZ-pdb5gkd-A-PHE-60
     RDKit          3D

 26 25  0  0  0  0  0  0  0  0999 V2000
   -3.4503    0.7771    2.9795 C   0  0  0  0  0  0  0  0  0  0  0  0
   -3.9934    0.4038    3.7184 H   0  0  0  0  0  0  0  0  0  0  0  0
   -3.6263    0.2990    2.1312 H   0  0  0  0  0  0  0  0  0  0  0  0
   -3.7041    1.8295    2.8520 H   0  0  0  0  0  0  0  0  0  0  0  0
   -1.9812    0.6292    3.3284 C   0  0  0  0  0  0  0  0  0  0  0  0
   -1.4274    1.0667    2.6081 H   0  0  0  0  0  0  0  0  0  0  0  0
   -1.8004    1.1077    4.1979 H   0  0  0  0  0  0  0  0  0  0  0  0
   -1.5534   -0.7966    3.4657 N   0  0  0  0  0  4  0  0  0  0  0  0
   -0.9149   -1.0198    2.7320 H   0  0  0  0  0  0  0  0  0  0  0  0
   -1.1081   -0.9215    4.3507 H   0  0  0  0  0  0  0  0  0  0  0  0
   -2.3557   -1.3874    3.4054 H   0  0  0  0  0  0  0  0  0  0  0  0
   -0.0060    2.8751   -0.0016 C   0  0  0  0  0  0  0  0  0  0  0  0
    0.8804    3.1942    0.2985 H   0  0  0  0  0  0  0  0  0  0  0  0
   -0.7247    3.1880    0.6008 H   0  0  0  0  0  0  0  0  0  0  0  0
   -0.1931    3.3034   -0.9863 H   0  0  0  0  0  0  0  0  0  0  0  0
    0.0006    1.3897    0.0035 C   0  0  0  0  0  0  0  0  0  0  0  0
   -1.1894    0.6832   -0.0052 C   0  0  0  0  0  0  0  0  0  0  0  0
   -2.0578    1.1800   -0.0160 H   0  0  0  0  0  0  0  0  0  0  0  0
   -1.1929   -0.6881   -0.0000 C   0  0  0  0  0  0  0  0  0  0  0  0
   -2.0749   -1.1865    0.0062 H   0  0  0  0  0  0  0  0  0  0  0  0
   -0.0060   -1.3804   -0.0009 C   0  0  0  0  0  0  0  0  0  0  0  0
   -0.0108   -2.3837   -0.0023 H   0  0  0  0  0  0  0  0  0  0  0  0
    1.1929   -0.6940    0.0000 C   0  0  0  0  0  0  0  0  0  0  0  0
    2.0732   -1.1975    0.0000 H   0  0  0  0  0  0  0  0  0  0  0  0
    1.1949    0.6895    0.0026 C   0  0  0  0  0  0  0  0  0  0  0  0
    2.0615    1.1855    0.0032 H   0  0  0  0  0  0  0  0  0  0  0  0
  1  5  1  0
  5  8  1  0
  1  2  1  0
  1  3  1  0
  1  4  1  0
  5  6  1  0
  5  7  1  0
  8  9  1  0
  8 10  1  0
  8 11  1  0
 12 16  1  0
 16 17  2  0
 17 19  1  0
 19 21  2  0
 21 23  1  0
 23 25  2  0
 25 16  1  0
 12 13  1  0
 12 14  1  0
 12 15  1  0
 17 18  1  0
 19 20  1  0
 21 22  1  0
 23 24  1  0
 25 26  1  0
M  CHG  1   8   1
M  END
>  <PDB_ID>  (3048) 
pdb5gkd

>  <RESIDUE_NAME>  (3048) 
LYS   PHE

>  <FRAG_NAME>  (3048) 
ETAM   MBZ

>  <FRAG_ATOM_NUM>  (3048) 
fragi: 11  fragj: 15

>  <atom.prop.CHAIN_ID>  (3048) 
A A A A A A A A A A A Z Z Z Z Z Z Z Z Z Z Z Z Z Z Z

>  <atom.prop.IS_HEAVY_ATOM>  (3048) 
1 0 0 0 1 0 0 1 0 0 0 1 0 0 0 1 1 0 1 0 1 0 1 0 1 0

>  <DIFUSE_FUNC_ATOM>  (3048) 
n/a

>  <FINAL_SINGLE_POINT_ENERGY>  (3048) 
0

>  <NONCOV_INTER_ENERGY_QM>  (3048) 
0

>  <FF_Energy>  (3048) 
-6.14

>  <QM_Energy>  (3048) 
-12.37

>  <source>  (3048) 
ETAM_MBZ

>  <Index>  (3048) 
33200

$$$$
ETAM-pdb5gj6-C-LYS-91:MBZ-pdb5gj6-C-PHE-80
     RDKit          3D

 26 25  0  0  0  0  0  0  0  0999 V2000
    0.9605    2.2871   -3.4820 C   0  0  0  0  0  0  0  0  0  0  0  0
    0.9966    2.2582   -2.4887 H   0  0  0  0  0  0  0  0  0  0  0  0
    0.0210    2.3743   -3.7929 H   0  0  0  0  0  0  0  0  0  0  0  0
    1.5310    3.1477   -3.8313 H   0  0  0  0  0  0  0  0  0  0  0  0
    1.5320    0.9851   -4.0253 C   0  0  0  0  0  0  0  0  0  0  0  0
    1.4112    0.9675   -5.0216 H   0  0  0  0  0  0  0  0  0  0  0  0
    2.5130    0.9490   -3.8173 H   0  0  0  0  0  0  0  0  0  0  0  0
    0.8632   -0.2073   -3.4314 N   0  0  0  0  0  4  0  0  0  0  0  0
    1.1115   -0.2791   -2.4660 H   0  0  0  0  0  0  0  0  0  0  0  0
   -0.1270   -0.1070   -3.5162 H   0  0  0  0  0  0  0  0  0  0  0  0
    1.1603   -1.0293   -3.9166 H   0  0  0  0  0  0  0  0  0  0  0  0
   -0.0002    2.9011   -0.0065 C   0  0  0  0  0  0  0  0  0  0  0  0
   -0.7648    3.2031   -0.5577 H   0  0  0  0  0  0  0  0  0  0  0  0
    0.8596    3.2042   -0.3900 H   0  0  0  0  0  0  0  0  0  0  0  0
   -0.1016    3.3533    0.9801 H   0  0  0  0  0  0  0  0  0  0  0  0
   -0.0002    1.3961    0.0040 C   0  0  0  0  0  0  0  0  0  0  0  0
   -1.1916    0.6914   -0.0018 C   0  0  0  0  0  0  0  0  0  0  0  0
   -2.0596    1.1826   -0.0088 H   0  0  0  0  0  0  0  0  0  0  0  0
   -1.1951   -0.6921    0.0000 C   0  0  0  0  0  0  0  0  0  0  0  0
   -2.0741   -1.1870    0.0015 H   0  0  0  0  0  0  0  0  0  0  0  0
    0.0000   -1.3860    0.0012 C   0  0  0  0  0  0  0  0  0  0  0  0
   -0.0071   -2.3879    0.0026 H   0  0  0  0  0  0  0  0  0  0  0  0
    1.1951   -0.6973   -0.0000 C   0  0  0  0  0  0  0  0  0  0  0  0
    2.0774   -1.1960    0.0030 H   0  0  0  0  0  0  0  0  0  0  0  0
    1.1918    0.6879   -0.0033 C   0  0  0  0  0  0  0  0  0  0  0  0
    2.0618    1.1843   -0.0117 H   0  0  0  0  0  0  0  0  0  0  0  0
  1  5  1  0
  5  8  1  0
  1  2  1  0
  1  3  1  0
  1  4  1  0
  5  6  1  0
  5  7  1  0
  8  9  1  0
  8 10  1  0
  8 11  1  0
 12 16  1  0
 16 17  2  0
 17 19  1  0
 19 21  2  0
 21 23  1  0
 23 25  2  0
 25 16  1  0
 12 13  1  0
 12 14  1  0
 12 15  1  0
 17 18  1  0
 19 20  1  0
 21 22  1  0
 23 24  1  0
 25 26  1  0
M  CHG  1   8   1
M  END
>  <PDB_ID>  (3049) 
pdb5gj6

>  <RESIDUE_NAME>  (3049) 
LYS   PHE

>  <FRAG_NAME>  (3049) 
ETAM   MBZ

>  <FRAG_ATOM_NUM>  (3049) 
fragi: 11  fragj: 15

>  <atom.prop.CHAIN_ID>  (3049) 
A A A A A A A A A A A Z Z Z Z Z Z Z Z Z Z Z Z Z Z Z

>  <atom.prop.IS_HEAVY_ATOM>  (3049) 
1 0 0 0 1 0 0 1 0 0 0 1 0 0 0 1 1 0 1 0 1 0 1 0 1 0

>  <DIFUSE_FUNC_ATOM>  (3049) 
n/a

>  <FINAL_SINGLE_POINT_ENERGY>  (3049) 
0

>  <NONCOV_INTER_ENERGY_QM>  (3049) 
0

>  <FF_Energy>  (3049) 
-8.04

>  <QM_Energy>  (3049) 
-15.06

>  <source>  (3049) 
ETAM_MBZ

>  <Index>  (3049) 
33208

$$$$
ETAM-pdb5fqd-D-LYS-60:MBZ-pdb5fqd-D-PHE-972
     RDKit          3D

 26 25  0  0  0  0  0  0  0  0999 V2000
    1.3846    0.5336    3.7771 C   0  0  0  0  0  0  0  0  0  0  0  0
    0.9302    1.2908    3.2771 H   0  0  0  0  0  0  0  0  0  0  0  0
    2.3251    0.4524    3.4064 H   0  0  0  0  0  0  0  0  0  0  0  0
    1.4694    0.8372    4.8205 H   0  0  0  0  0  0  0  0  0  0  0  0
    0.6342   -0.7619    3.4876 C   0  0  0  0  0  0  0  0  0  0  0  0
    0.7518   -0.9943    2.5132 H   0  0  0  0  0  0  0  0  0  0  0  0
    1.0418   -1.5030    4.0369 H   0  0  0  0  0  0  0  0  0  0  0  0
   -0.8266   -0.6783    3.7938 N   0  0  0  0  0  4  0  0  0  0  0  0
   -1.3176   -1.3444    3.2357 H   0  0  0  0  0  0  0  0  0  0  0  0
   -0.9711   -0.8776    4.7616 H   0  0  0  0  0  0  0  0  0  0  0  0
   -1.1534    0.2424    3.5861 H   0  0  0  0  0  0  0  0  0  0  0  0
   -0.0012    2.9297   -0.0398 C   0  0  0  0  0  0  0  0  0  0  0  0
    0.8603    3.2471    0.3128 H   0  0  0  0  0  0  0  0  0  0  0  0
   -0.7634    3.2471    0.4954 H   0  0  0  0  0  0  0  0  0  0  0  0
   -0.1140    3.3352   -1.0452 H   0  0  0  0  0  0  0  0  0  0  0  0
    0.0033    1.4131    0.0006 C   0  0  0  0  0  0  0  0  0  0  0  0
   -1.1938    0.6934   -0.0286 C   0  0  0  0  0  0  0  0  0  0  0  0
   -2.0619    1.1762   -0.0715 H   0  0  0  0  0  0  0  0  0  0  0  0
   -1.1956   -0.7091    0.0000 C   0  0  0  0  0  0  0  0  0  0  0  0
   -2.0807   -1.1925    0.0212 H   0  0  0  0  0  0  0  0  0  0  0  0
   -0.0087   -1.4008    0.0008 C   0  0  0  0  0  0  0  0  0  0  0  0
   -0.0046   -2.4000    0.0020 H   0  0  0  0  0  0  0  0  0  0  0  0
    1.1956   -0.7016   -0.0000 C   0  0  0  0  0  0  0  0  0  0  0  0
    2.0773   -1.1967   -0.0184 H   0  0  0  0  0  0  0  0  0  0  0  0
    1.1992    0.7050    0.0272 C   0  0  0  0  0  0  0  0  0  0  0  0
    2.0675    1.1889    0.0654 H   0  0  0  0  0  0  0  0  0  0  0  0
  1  5  1  0
  5  8  1  0
  1  2  1  0
  1  3  1  0
  1  4  1  0
  5  6  1  0
  5  7  1  0
  8  9  1  0
  8 10  1  0
  8 11  1  0
 12 16  1  0
 16 17  2  0
 17 19  1  0
 19 21  2  0
 21 23  1  0
 23 25  2  0
 25 16  1  0
 12 13  1  0
 12 14  1  0
 12 15  1  0
 17 18  1  0
 19 20  1  0
 21 22  1  0
 23 24  1  0
 25 26  1  0
M  CHG  1   8   1
M  END
>  <PDB_ID>  (3050) 
pdb5fqd

>  <RESIDUE_NAME>  (3050) 
LYS   PHE

>  <FRAG_NAME>  (3050) 
ETAM   MBZ

>  <FRAG_ATOM_NUM>  (3050) 
fragi: 11  fragj: 15

>  <atom.prop.CHAIN_ID>  (3050) 
A A A A A A A A A A A Z Z Z Z Z Z Z Z Z Z Z Z Z Z Z

>  <atom.prop.IS_HEAVY_ATOM>  (3050) 
1 0 0 0 1 0 0 1 0 0 0 1 0 0 0 1 1 0 1 0 1 0 1 0 1 0

>  <DIFUSE_FUNC_ATOM>  (3050) 
n/a

>  <FINAL_SINGLE_POINT_ENERGY>  (3050) 
0

>  <NONCOV_INTER_ENERGY_QM>  (3050) 
0

>  <FF_Energy>  (3050) 
-5.89

>  <QM_Energy>  (3050) 
-11.8

>  <source>  (3050) 
ETAM_MBZ

>  <Index>  (3050) 
33227

$$$$
ETAM-pdb5gj6-E-LYS-91:MBZ-pdb5gj6-E-PHE-80
     RDKit          3D

 26 25  0  0  0  0  0  0  0  0999 V2000
    0.9708    2.3829   -3.6934 C   0  0  0  0  0  0  0  0  0  0  0  0
    1.1870    2.3151   -2.7253 H   0  0  0  0  0  0  0  0  0  0  0  0
   -0.0141    2.4030   -3.8285 H   0  0  0  0  0  0  0  0  0  0  0  0
    1.4003    3.3044   -4.0865 H   0  0  0  0  0  0  0  0  0  0  0  0
    1.5335    1.1676   -4.4038 C   0  0  0  0  0  0  0  0  0  0  0  0
    1.1781    1.1418   -5.3399 H   0  0  0  0  0  0  0  0  0  0  0  0
    2.5323    1.2387   -4.4324 H   0  0  0  0  0  0  0  0  0  0  0  0
    1.1536   -0.0905   -3.7036 N   0  0  0  0  0  4  0  0  0  0  0  0
    1.8595   -0.7812   -3.8577 H   0  0  0  0  0  0  0  0  0  0  0  0
    1.0679    0.0888   -2.7237 H   0  0  0  0  0  0  0  0  0  0  0  0
    0.2797   -0.4181   -4.0616 H   0  0  0  0  0  0  0  0  0  0  0  0
   -0.0027    2.9013   -0.0062 C   0  0  0  0  0  0  0  0  0  0  0  0
   -0.7579    3.2025   -0.5697 H   0  0  0  0  0  0  0  0  0  0  0  0
    0.8634    3.2062   -0.3737 H   0  0  0  0  0  0  0  0  0  0  0  0
   -0.1230    3.3518    0.9791 H   0  0  0  0  0  0  0  0  0  0  0  0
    0.0006    1.3960    0.0032 C   0  0  0  0  0  0  0  0  0  0  0  0
   -1.1900    0.6895   -0.0005 C   0  0  0  0  0  0  0  0  0  0  0  0
   -2.0587    1.1818   -0.0047 H   0  0  0  0  0  0  0  0  0  0  0  0
   -1.1943   -0.6932    0.0000 C   0  0  0  0  0  0  0  0  0  0  0  0
   -2.0751   -1.1870    0.0013 H   0  0  0  0  0  0  0  0  0  0  0  0
   -0.0029   -1.3862    0.0011 C   0  0  0  0  0  0  0  0  0  0  0  0
   -0.0062   -2.3878    0.0021 H   0  0  0  0  0  0  0  0  0  0  0  0
    1.1943   -0.6955   -0.0000 C   0  0  0  0  0  0  0  0  0  0  0  0
    2.0767   -1.1956    0.0032 H   0  0  0  0  0  0  0  0  0  0  0  0
    1.1923    0.6895   -0.0038 C   0  0  0  0  0  0  0  0  0  0  0  0
    2.0623    1.1855   -0.0123 H   0  0  0  0  0  0  0  0  0  0  0  0
  1  5  1  0
  5  8  1  0
  1  2  1  0
  1  3  1  0
  1  4  1  0
  5  6  1  0
  5  7  1  0
  8  9  1  0
  8 10  1  0
  8 11  1  0
 12 16  1  0
 16 17  2  0
 17 19  1  0
 19 21  2  0
 21 23  1  0
 23 25  2  0
 25 16  1  0
 12 13  1  0
 12 14  1  0
 12 15  1  0
 17 18  1  0
 19 20  1  0
 21 22  1  0
 23 24  1  0
 25 26  1  0
M  CHG  1   8   1
M  END
>  <PDB_ID>  (3051) 
pdb5gj6

>  <RESIDUE_NAME>  (3051) 
LYS   PHE

>  <FRAG_NAME>  (3051) 
ETAM   MBZ

>  <FRAG_ATOM_NUM>  (3051) 
fragi: 11  fragj: 15

>  <atom.prop.CHAIN_ID>  (3051) 
A A A A A A A A A A A Z Z Z Z Z Z Z Z Z Z Z Z Z Z Z

>  <atom.prop.IS_HEAVY_ATOM>  (3051) 
1 0 0 0 1 0 0 1 0 0 0 1 0 0 0 1 1 0 1 0 1 0 1 0 1 0

>  <DIFUSE_FUNC_ATOM>  (3051) 
n/a

>  <FINAL_SINGLE_POINT_ENERGY>  (3051) 
0

>  <NONCOV_INTER_ENERGY_QM>  (3051) 
0

>  <FF_Energy>  (3051) 
-7.09

>  <QM_Energy>  (3051) 
-12.57

>  <source>  (3051) 
ETAM_MBZ

>  <Index>  (3051) 
33253

$$$$
ETAM-pdb6gb7-G-LYS-66:MBZ-pdb6gb7-J-PHE-1
     RDKit          3D

 26 25  0  0  0  0  0  0  0  0999 V2000
    1.0126   -1.9392    4.9088 C   0  0  0  0  0  0  0  0  0  0  0  0
    1.7247   -1.3165    5.2160 H   0  0  0  0  0  0  0  0  0  0  0  0
    1.3500   -2.5184    4.1744 H   0  0  0  0  0  0  0  0  0  0  0  0
    0.7068   -2.5680    5.7449 H   0  0  0  0  0  0  0  0  0  0  0  0
   -0.1526   -1.1172    4.3799 C   0  0  0  0  0  0  0  0  0  0  0  0
   -0.9711   -1.6934    4.3576 H   0  0  0  0  0  0  0  0  0  0  0  0
   -0.3105   -0.3442    4.9974 H   0  0  0  0  0  0  0  0  0  0  0  0
    0.1255   -0.6056    3.0148 N   0  0  0  0  0  4  0  0  0  0  0  0
    0.1052    0.3944    3.0233 H   0  0  0  0  0  0  0  0  0  0  0  0
    1.0285   -0.9185    2.7186 H   0  0  0  0  0  0  0  0  0  0  0  0
   -0.5695   -0.9483    2.3821 H   0  0  0  0  0  0  0  0  0  0  0  0
   -0.0029    2.8839   -0.0032 C   0  0  0  0  0  0  0  0  0  0  0  0
   -0.7273    3.1883   -0.6076 H   0  0  0  0  0  0  0  0  0  0  0  0
    0.8816    3.1919   -0.3266 H   0  0  0  0  0  0  0  0  0  0  0  0
   -0.1748    3.3304    0.9761 H   0  0  0  0  0  0  0  0  0  0  0  0
   -0.0005    1.3901    0.0026 C   0  0  0  0  0  0  0  0  0  0  0  0
   -1.1898    0.6846    0.0018 C   0  0  0  0  0  0  0  0  0  0  0  0
   -2.0588    1.1769    0.0009 H   0  0  0  0  0  0  0  0  0  0  0  0
   -1.1930   -0.6948    0.0000 C   0  0  0  0  0  0  0  0  0  0  0  0
   -2.0707   -1.1924    0.0032 H   0  0  0  0  0  0  0  0  0  0  0  0
    0.0014   -1.3820   -0.0037 C   0  0  0  0  0  0  0  0  0  0  0  0
    0.0006   -2.3844   -0.0093 H   0  0  0  0  0  0  0  0  0  0  0  0
    1.1930   -0.6873   -0.0000 C   0  0  0  0  0  0  0  0  0  0  0  0
    2.0775   -1.1887    0.0046 H   0  0  0  0  0  0  0  0  0  0  0  0
    1.1889    0.6894   -0.0006 C   0  0  0  0  0  0  0  0  0  0  0  0
    2.0584    1.1893   -0.0042 H   0  0  0  0  0  0  0  0  0  0  0  0
  1  5  1  0
  5  8  1  0
  1  2  1  0
  1  3  1  0
  1  4  1  0
  5  6  1  0
  5  7  1  0
  8  9  1  0
  8 10  1  0
  8 11  1  0
 12 16  1  0
 16 17  2  0
 17 19  1  0
 19 21  2  0
 21 23  1  0
 23 25  2  0
 25 16  1  0
 12 13  1  0
 12 14  1  0
 12 15  1  0
 17 18  1  0
 19 20  1  0
 21 22  1  0
 23 24  1  0
 25 26  1  0
M  CHG  1   8   1
M  END
>  <PDB_ID>  (3052) 
pdb6gb7

>  <RESIDUE_NAME>  (3052) 
LYS   PHE

>  <FRAG_NAME>  (3052) 
ETAM   MBZ

>  <FRAG_ATOM_NUM>  (3052) 
fragi: 11  fragj: 15

>  <atom.prop.CHAIN_ID>  (3052) 
A A A A A A A A A A A Z Z Z Z Z Z Z Z Z Z Z Z Z Z Z

>  <atom.prop.IS_HEAVY_ATOM>  (3052) 
1 0 0 0 1 0 0 1 0 0 0 1 0 0 0 1 1 0 1 0 1 0 1 0 1 0

>  <DIFUSE_FUNC_ATOM>  (3052) 
n/a

>  <FINAL_SINGLE_POINT_ENERGY>  (3052) 
0

>  <NONCOV_INTER_ENERGY_QM>  (3052) 
0

>  <FF_Energy>  (3052) 
-8.11

>  <QM_Energy>  (3052) 
-15.75

>  <source>  (3052) 
ETAM_MBZ

>  <Index>  (3052) 
33283

$$$$
ETAM-pdb5fqd-F-LYS-46:MBZ-pdb5fqd-F-PHE-28
     RDKit          3D

 26 25  0  0  0  0  0  0  0  0999 V2000
    1.1196   -3.4039    4.1278 C   0  0  0  0  0  0  0  0  0  0  0  0
    1.2727   -4.0256    4.9025 H   0  0  0  0  0  0  0  0  0  0  0  0
    1.3890   -2.4754    4.4008 H   0  0  0  0  0  0  0  0  0  0  0  0
    1.7444   -3.7214    3.2930 H   0  0  0  0  0  0  0  0  0  0  0  0
   -0.3374   -3.4036    3.7904 C   0  0  0  0  0  0  0  0  0  0  0  0
   -0.5699   -4.2632    3.3158 H   0  0  0  0  0  0  0  0  0  0  0  0
   -0.8775   -3.3610    4.6417 H   0  0  0  0  0  0  0  0  0  0  0  0
   -0.7076   -2.2633    2.9292 N   0  0  0  0  0  4  0  0  0  0  0  0
    0.0818   -1.6577    2.8129 H   0  0  0  0  0  0  0  0  0  0  0  0
   -1.0012   -2.5991    2.0322 H   0  0  0  0  0  0  0  0  0  0  0  0
   -1.4577   -1.7511    3.3512 H   0  0  0  0  0  0  0  0  0  0  0  0
    0.0036    2.9152   -0.0586 C   0  0  0  0  0  0  0  0  0  0  0  0
    0.8804    3.2338    0.2812 H   0  0  0  0  0  0  0  0  0  0  0  0
   -0.7362    3.2469    0.5141 H   0  0  0  0  0  0  0  0  0  0  0  0
   -0.1359    3.3510   -1.0478 H   0  0  0  0  0  0  0  0  0  0  0  0
   -0.0014    1.4064   -0.0056 C   0  0  0  0  0  0  0  0  0  0  0  0
   -1.1976    0.6986   -0.0012 C   0  0  0  0  0  0  0  0  0  0  0  0
   -2.0649    1.1826    0.0001 H   0  0  0  0  0  0  0  0  0  0  0  0
   -1.1954   -0.6983   -0.0000 C   0  0  0  0  0  0  0  0  0  0  0  0
   -2.0739   -1.1914    0.0022 H   0  0  0  0  0  0  0  0  0  0  0  0
    0.0030   -1.3903   -0.0001 C   0  0  0  0  0  0  0  0  0  0  0  0
   -0.0069   -2.3945   -0.0012 H   0  0  0  0  0  0  0  0  0  0  0  0
    1.1954   -0.7060    0.0000 C   0  0  0  0  0  0  0  0  0  0  0  0
    2.0799   -1.2004   -0.0040 H   0  0  0  0  0  0  0  0  0  0  0  0
    1.1960    0.6895    0.0068 C   0  0  0  0  0  0  0  0  0  0  0  0
    2.0658    1.1815    0.0201 H   0  0  0  0  0  0  0  0  0  0  0  0
  1  5  1  0
  5  8  1  0
  1  2  1  0
  1  3  1  0
  1  4  1  0
  5  6  1  0
  5  7  1  0
  8  9  1  0
  8 10  1  0
  8 11  1  0
 12 16  1  0
 16 17  2  0
 17 19  1  0
 19 21  2  0
 21 23  1  0
 23 25  2  0
 25 16  1  0
 12 13  1  0
 12 14  1  0
 12 15  1  0
 17 18  1  0
 19 20  1  0
 21 22  1  0
 23 24  1  0
 25 26  1  0
M  CHG  1   8   1
M  END
>  <PDB_ID>  (3053) 
pdb5fqd

>  <RESIDUE_NAME>  (3053) 
LYS   PHE

>  <FRAG_NAME>  (3053) 
ETAM   MBZ

>  <FRAG_ATOM_NUM>  (3053) 
fragi: 11  fragj: 15

>  <atom.prop.CHAIN_ID>  (3053) 
A A A A A A A A A A A Z Z Z Z Z Z Z Z Z Z Z Z Z Z Z

>  <atom.prop.IS_HEAVY_ATOM>  (3053) 
1 0 0 0 1 0 0 1 0 0 0 1 0 0 0 1 1 0 1 0 1 0 1 0 1 0

>  <DIFUSE_FUNC_ATOM>  (3053) 
n/a

>  <FINAL_SINGLE_POINT_ENERGY>  (3053) 
0

>  <NONCOV_INTER_ENERGY_QM>  (3053) 
0

>  <FF_Energy>  (3053) 
-3.8

>  <QM_Energy>  (3053) 
-10.5

>  <source>  (3053) 
ETAM_MBZ

>  <Index>  (3053) 
33288

$$$$
ETAM-pdb6gup-A-LYS-343:MBZ-pdb6gup-A-PHE-339
     RDKit          3D

 26 25  0  0  0  0  0  0  0  0999 V2000
    0.8146   -1.8175    3.6840 C   0  0  0  0  0  0  0  0  0  0  0  0
    0.9545   -2.4057    2.8921 H   0  0  0  0  0  0  0  0  0  0  0  0
    0.8604   -2.3533    4.5224 H   0  0  0  0  0  0  0  0  0  0  0  0
    1.6028   -1.0651    3.7051 H   0  0  0  0  0  0  0  0  0  0  0  0
   -0.5707   -1.1913    3.5836 C   0  0  0  0  0  0  0  0  0  0  0  0
   -0.7156   -0.5973    4.3817 H   0  0  0  0  0  0  0  0  0  0  0  0
   -0.6107   -0.6245    2.7536 H   0  0  0  0  0  0  0  0  0  0  0  0
   -1.6519   -2.2115    3.5309 N   0  0  0  0  0  4  0  0  0  0  0  0
   -2.5003   -1.8150    3.8809 H   0  0  0  0  0  0  0  0  0  0  0  0
   -1.7851   -2.5054    2.5844 H   0  0  0  0  0  0  0  0  0  0  0  0
   -1.3945   -2.9979    4.0922 H   0  0  0  0  0  0  0  0  0  0  0  0
   -0.0023    2.8964    0.0070 C   0  0  0  0  0  0  0  0  0  0  0  0
   -0.6991    3.2072   -0.6204 H   0  0  0  0  0  0  0  0  0  0  0  0
    0.8943    3.2075   -0.2669 H   0  0  0  0  0  0  0  0  0  0  0  0
   -0.2193    3.3247    0.9855 H   0  0  0  0  0  0  0  0  0  0  0  0
    0.0003    1.3981   -0.0026 C   0  0  0  0  0  0  0  0  0  0  0  0
   -1.1964    0.6902    0.0010 C   0  0  0  0  0  0  0  0  0  0  0  0
   -2.0623    1.1826    0.0033 H   0  0  0  0  0  0  0  0  0  0  0  0
   -1.2006   -0.6961    0.0000 C   0  0  0  0  0  0  0  0  0  0  0  0
   -2.0761   -1.1923    0.0006 H   0  0  0  0  0  0  0  0  0  0  0  0
    0.0006   -1.3892   -0.0002 C   0  0  0  0  0  0  0  0  0  0  0  0
   -0.0024   -2.3891   -0.0005 H   0  0  0  0  0  0  0  0  0  0  0  0
    1.2006   -0.6939   -0.0000 C   0  0  0  0  0  0  0  0  0  0  0  0
    2.0813   -1.1939    0.0001 H   0  0  0  0  0  0  0  0  0  0  0  0
    1.1955    0.6911    0.0018 C   0  0  0  0  0  0  0  0  0  0  0  0
    2.0640    1.1898    0.0057 H   0  0  0  0  0  0  0  0  0  0  0  0
  1  5  1  0
  5  8  1  0
  1  2  1  0
  1  3  1  0
  1  4  1  0
  5  6  1  0
  5  7  1  0
  8  9  1  0
  8 10  1  0
  8 11  1  0
 12 16  1  0
 16 17  2  0
 17 19  1  0
 19 21  2  0
 21 23  1  0
 23 25  2  0
 25 16  1  0
 12 13  1  0
 12 14  1  0
 12 15  1  0
 17 18  1  0
 19 20  1  0
 21 22  1  0
 23 24  1  0
 25 26  1  0
M  CHG  1   8   1
M  END
>  <PDB_ID>  (3054) 
pdb6gup

>  <RESIDUE_NAME>  (3054) 
LYS   PHE

>  <FRAG_NAME>  (3054) 
ETAM   MBZ

>  <FRAG_ATOM_NUM>  (3054) 
fragi: 11  fragj: 15

>  <atom.prop.CHAIN_ID>  (3054) 
A A A A A A A A A A A Z Z Z Z Z Z Z Z Z Z Z Z Z Z Z

>  <atom.prop.IS_HEAVY_ATOM>  (3054) 
1 0 0 0 1 0 0 1 0 0 0 1 0 0 0 1 1 0 1 0 1 0 1 0 1 0

>  <DIFUSE_FUNC_ATOM>  (3054) 
n/a

>  <FINAL_SINGLE_POINT_ENERGY>  (3054) 
0

>  <NONCOV_INTER_ENERGY_QM>  (3054) 
0

>  <FF_Energy>  (3054) 
-4.25

>  <QM_Energy>  (3054) 
-9.71

>  <source>  (3054) 
ETAM_MBZ

>  <Index>  (3054) 
33300

$$$$
ETAM-pdb6gwk-D-LYS-33:MBZ-pdb6gwk-D-PHE-27
     RDKit          3D

 26 25  0  0  0  0  0  0  0  0999 V2000
    3.8603   -0.9306    2.8288 C   0  0  0  0  0  0  0  0  0  0  0  0
    4.6154   -0.9309    3.4747 H   0  0  0  0  0  0  0  0  0  0  0  0
    3.3358   -1.7715    2.9055 H   0  0  0  0  0  0  0  0  0  0  0  0
    3.2082   -0.0845    3.0456 H   0  0  0  0  0  0  0  0  0  0  0  0
    4.4271   -0.8399    1.4218 C   0  0  0  0  0  0  0  0  0  0  0  0
    4.8592   -1.7190    1.1876 H   0  0  0  0  0  0  0  0  0  0  0  0
    3.6708   -0.6788    0.7753 H   0  0  0  0  0  0  0  0  0  0  0  0
    5.4318    0.2498    1.2733 N   0  0  0  0  0  4  0  0  0  0  0  0
    4.9646    1.1334    1.2771 H   0  0  0  0  0  0  0  0  0  0  0  0
    6.0788    0.2095    2.0346 H   0  0  0  0  0  0  0  0  0  0  0  0
    5.9220    0.1323    0.4105 H   0  0  0  0  0  0  0  0  0  0  0  0
    0.0004    2.8904   -0.0020 C   0  0  0  0  0  0  0  0  0  0  0  0
   -0.7861    3.1984   -0.5180 H   0  0  0  0  0  0  0  0  0  0  0  0
    0.8445    3.1974   -0.4182 H   0  0  0  0  0  0  0  0  0  0  0  0
   -0.0599    3.3282    0.9944 H   0  0  0  0  0  0  0  0  0  0  0  0
   -0.0001    1.3934   -0.0026 C   0  0  0  0  0  0  0  0  0  0  0  0
   -1.1919    0.6876    0.0014 C   0  0  0  0  0  0  0  0  0  0  0  0
   -2.0600    1.1809    0.0040 H   0  0  0  0  0  0  0  0  0  0  0  0
   -1.1950   -0.6914    0.0000 C   0  0  0  0  0  0  0  0  0  0  0  0
   -2.0728   -1.1889   -0.0008 H   0  0  0  0  0  0  0  0  0  0  0  0
   -0.0000   -1.3839    0.0015 C   0  0  0  0  0  0  0  0  0  0  0  0
   -0.0052   -2.3857    0.0036 H   0  0  0  0  0  0  0  0  0  0  0  0
    1.1950   -0.6934    0.0000 C   0  0  0  0  0  0  0  0  0  0  0  0
    2.0778   -1.1939    0.0007 H   0  0  0  0  0  0  0  0  0  0  0  0
    1.1920    0.6877   -0.0003 C   0  0  0  0  0  0  0  0  0  0  0  0
    2.0604    1.1865    0.0003 H   0  0  0  0  0  0  0  0  0  0  0  0
  1  5  1  0
  5  8  1  0
  1  2  1  0
  1  3  1  0
  1  4  1  0
  5  6  1  0
  5  7  1  0
  8  9  1  0
  8 10  1  0
  8 11  1  0
 12 16  1  0
 16 17  2  0
 17 19  1  0
 19 21  2  0
 21 23  1  0
 23 25  2  0
 25 16  1  0
 12 13  1  0
 12 14  1  0
 12 15  1  0
 17 18  1  0
 19 20  1  0
 21 22  1  0
 23 24  1  0
 25 26  1  0
M  CHG  1   8   1
M  END
>  <PDB_ID>  (3055) 
pdb6gwk

>  <RESIDUE_NAME>  (3055) 
LYS   PHE

>  <FRAG_NAME>  (3055) 
ETAM   MBZ

>  <FRAG_ATOM_NUM>  (3055) 
fragi: 11  fragj: 15

>  <atom.prop.CHAIN_ID>  (3055) 
A A A A A A A A A A A Z Z Z Z Z Z Z Z Z Z Z Z Z Z Z

>  <atom.prop.IS_HEAVY_ATOM>  (3055) 
1 0 0 0 1 0 0 1 0 0 0 1 0 0 0 1 1 0 1 0 1 0 1 0 1 0

>  <DIFUSE_FUNC_ATOM>  (3055) 
n/a

>  <FINAL_SINGLE_POINT_ENERGY>  (3055) 
0

>  <NONCOV_INTER_ENERGY_QM>  (3055) 
0

>  <FF_Energy>  (3055) 
2.93

>  <QM_Energy>  (3055) 
-2.27

>  <source>  (3055) 
ETAM_MBZ

>  <Index>  (3055) 
33325

$$$$
ETAM-pdb6gwk-H-LYS-33:MBZ-pdb6gwk-H-PHE-27
     RDKit          3D

 26 25  0  0  0  0  0  0  0  0999 V2000
   -3.2817    2.6016   -2.1242 C   0  0  0  0  0  0  0  0  0  0  0  0
   -2.9561    3.0020   -1.2744 H   0  0  0  0  0  0  0  0  0  0  0  0
   -3.5168    1.6447   -1.9906 H   0  0  0  0  0  0  0  0  0  0  0  0
   -4.1703    3.1420   -2.4502 H   0  0  0  0  0  0  0  0  0  0  0  0
   -2.1718    2.6883   -3.1592 C   0  0  0  0  0  0  0  0  0  0  0  0
   -2.5842    2.7319   -4.0749 H   0  0  0  0  0  0  0  0  0  0  0  0
   -1.6468    3.5319   -3.0045 H   0  0  0  0  0  0  0  0  0  0  0  0
   -1.2484    1.5219   -3.0949 N   0  0  0  0  0  4  0  0  0  0  0  0
   -1.5277    0.8406   -3.7708 H   0  0  0  0  0  0  0  0  0  0  0  0
   -0.3169    1.8261   -3.2911 H   0  0  0  0  0  0  0  0  0  0  0  0
   -1.2847    1.1214   -2.1803 H   0  0  0  0  0  0  0  0  0  0  0  0
    0.0103    2.8944   -0.0062 C   0  0  0  0  0  0  0  0  0  0  0  0
   -0.3241    3.1982   -0.8875 H   0  0  0  0  0  0  0  0  0  0  0  0
    0.9409    3.1965    0.1450 H   0  0  0  0  0  0  0  0  0  0  0  0
   -0.6154    3.3492    0.7617 H   0  0  0  0  0  0  0  0  0  0  0  0
    0.0006    1.3935    0.0024 C   0  0  0  0  0  0  0  0  0  0  0  0
   -1.1926    0.6886   -0.0018 C   0  0  0  0  0  0  0  0  0  0  0  0
   -2.0596    1.1818   -0.0072 H   0  0  0  0  0  0  0  0  0  0  0  0
   -1.1956   -0.6917   -0.0000 C   0  0  0  0  0  0  0  0  0  0  0  0
   -2.0730   -1.1891    0.0014 H   0  0  0  0  0  0  0  0  0  0  0  0
    0.0005   -1.3839    0.0014 C   0  0  0  0  0  0  0  0  0  0  0  0
   -0.0041   -2.3860    0.0029 H   0  0  0  0  0  0  0  0  0  0  0  0
    1.1956   -0.6929   -0.0000 C   0  0  0  0  0  0  0  0  0  0  0  0
    2.0782   -1.1947    0.0019 H   0  0  0  0  0  0  0  0  0  0  0  0
    1.1916    0.6864   -0.0021 C   0  0  0  0  0  0  0  0  0  0  0  0
    2.0614    1.1861   -0.0081 H   0  0  0  0  0  0  0  0  0  0  0  0
  1  5  1  0
  5  8  1  0
  1  2  1  0
  1  3  1  0
  1  4  1  0
  5  6  1  0
  5  7  1  0
  8  9  1  0
  8 10  1  0
  8 11  1  0
 12 16  1  0
 16 17  2  0
 17 19  1  0
 19 21  2  0
 21 23  1  0
 23 25  2  0
 25 16  1  0
 12 13  1  0
 12 14  1  0
 12 15  1  0
 17 18  1  0
 19 20  1  0
 21 22  1  0
 23 24  1  0
 25 26  1  0
M  CHG  1   8   1
M  END
>  <PDB_ID>  (3056) 
pdb6gwk

>  <RESIDUE_NAME>  (3056) 
LYS   PHE

>  <FRAG_NAME>  (3056) 
ETAM   MBZ

>  <FRAG_ATOM_NUM>  (3056) 
fragi: 11  fragj: 15

>  <atom.prop.CHAIN_ID>  (3056) 
A A A A A A A A A A A Z Z Z Z Z Z Z Z Z Z Z Z Z Z Z

>  <atom.prop.IS_HEAVY_ATOM>  (3056) 
1 0 0 0 1 0 0 1 0 0 0 1 0 0 0 1 1 0 1 0 1 0 1 0 1 0

>  <DIFUSE_FUNC_ATOM>  (3056) 
n/a

>  <FINAL_SINGLE_POINT_ENERGY>  (3056) 
0

>  <NONCOV_INTER_ENERGY_QM>  (3056) 
0

>  <FF_Energy>  (3056) 
-6.65

>  <QM_Energy>  (3056) 
-12.82

>  <source>  (3056) 
ETAM_MBZ

>  <Index>  (3056) 
33326

$$$$
ETAM-pdb5gsn-C-LYS-367:MBZ-pdb5gsn-C-PHE-399
     RDKit          3D

 26 25  0  0  0  0  0  0  0  0999 V2000
   -1.3858    0.9184    4.4323 C   0  0  0  0  0  0  0  0  0  0  0  0
   -1.2671    1.8545    4.1201 H   0  0  0  0  0  0  0  0  0  0  0  0
   -1.6704    0.9021    5.3839 H   0  0  0  0  0  0  0  0  0  0  0  0
   -2.1557    0.4414    3.8258 H   0  0  0  0  0  0  0  0  0  0  0  0
   -0.0508    0.1925    4.3123 C   0  0  0  0  0  0  0  0  0  0  0  0
    0.6696    0.7692    4.7081 H   0  0  0  0  0  0  0  0  0  0  0  0
   -0.0993   -0.6650    4.8324 H   0  0  0  0  0  0  0  0  0  0  0  0
    0.2977   -0.1173    2.8929 N   0  0  0  0  0  4  0  0  0  0  0  0
    0.0592   -1.0671    2.6957 H   0  0  0  0  0  0  0  0  0  0  0  0
   -0.2140    0.4912    2.2885 H   0  0  0  0  0  0  0  0  0  0  0  0
    1.2773    0.0183    2.7579 H   0  0  0  0  0  0  0  0  0  0  0  0
    0.0196    2.9201    0.0060 C   0  0  0  0  0  0  0  0  0  0  0  0
    0.7907    3.2142   -0.5390 H   0  0  0  0  0  0  0  0  0  0  0  0
    0.1092    3.2179    0.9451 H   0  0  0  0  0  0  0  0  0  0  0  0
   -0.8770    3.3824   -0.4067 H   0  0  0  0  0  0  0  0  0  0  0  0
    0.0029    1.4018    0.0023 C   0  0  0  0  0  0  0  0  0  0  0  0
   -1.1913    0.6951   -0.0017 C   0  0  0  0  0  0  0  0  0  0  0  0
   -2.0581    1.1848   -0.0067 H   0  0  0  0  0  0  0  0  0  0  0  0
   -1.1913   -0.6905    0.0000 C   0  0  0  0  0  0  0  0  0  0  0  0
   -2.0760   -1.1836    0.0072 H   0  0  0  0  0  0  0  0  0  0  0  0
   -0.0046   -1.3890   -0.0059 C   0  0  0  0  0  0  0  0  0  0  0  0
   -0.0127   -2.3905   -0.0152 H   0  0  0  0  0  0  0  0  0  0  0  0
    1.1913   -0.7026   -0.0000 C   0  0  0  0  0  0  0  0  0  0  0  0
    2.0738   -1.2028    0.0018 H   0  0  0  0  0  0  0  0  0  0  0  0
    1.1930    0.6852    0.0053 C   0  0  0  0  0  0  0  0  0  0  0  0
    2.0655    1.1778    0.0106 H   0  0  0  0  0  0  0  0  0  0  0  0
  1  5  1  0
  5  8  1  0
  1  2  1  0
  1  3  1  0
  1  4  1  0
  5  6  1  0
  5  7  1  0
  8  9  1  0
  8 10  1  0
  8 11  1  0
 12 16  1  0
 16 17  2  0
 17 19  1  0
 19 21  2  0
 21 23  1  0
 23 25  2  0
 25 16  1  0
 12 13  1  0
 12 14  1  0
 12 15  1  0
 17 18  1  0
 19 20  1  0
 21 22  1  0
 23 24  1  0
 25 26  1  0
M  CHG  1   8   1
M  END
>  <PDB_ID>  (3057) 
pdb5gsn

>  <RESIDUE_NAME>  (3057) 
LYS   PHE

>  <FRAG_NAME>  (3057) 
ETAM   MBZ

>  <FRAG_ATOM_NUM>  (3057) 
fragi: 11  fragj: 15

>  <atom.prop.CHAIN_ID>  (3057) 
A A A A A A A A A A A Z Z Z Z Z Z Z Z Z Z Z Z Z Z Z

>  <atom.prop.IS_HEAVY_ATOM>  (3057) 
1 0 0 0 1 0 0 1 0 0 0 1 0 0 0 1 1 0 1 0 1 0 1 0 1 0

>  <DIFUSE_FUNC_ATOM>  (3057) 
n/a

>  <FINAL_SINGLE_POINT_ENERGY>  (3057) 
0

>  <NONCOV_INTER_ENERGY_QM>  (3057) 
0

>  <FF_Energy>  (3057) 
-8.59

>  <QM_Energy>  (3057) 
-16.87

>  <source>  (3057) 
ETAM_MBZ

>  <Index>  (3057) 
33349

$$$$
ETAM-pdb5gsn-D-LYS-367:MBZ-pdb5gsn-D-PHE-399
     RDKit          3D

 26 25  0  0  0  0  0  0  0  0999 V2000
   -1.6807    0.7044    4.5173 C   0  0  0  0  0  0  0  0  0  0  0  0
   -1.7468    1.6900    4.4261 H   0  0  0  0  0  0  0  0  0  0  0  0
   -1.9767    0.4141    5.4180 H   0  0  0  0  0  0  0  0  0  0  0  0
   -2.3224    0.2391    3.7691 H   0  0  0  0  0  0  0  0  0  0  0  0
   -0.2194    0.2945    4.3296 C   0  0  0  0  0  0  0  0  0  0  0  0
    0.3171    0.6438    5.1088 H   0  0  0  0  0  0  0  0  0  0  0  0
   -0.1622   -0.7131    4.3375 H   0  0  0  0  0  0  0  0  0  0  0  0
    0.3856    0.8047    3.0571 N   0  0  0  0  0  4  0  0  0  0  0  0
    0.8522    0.0541    2.5939 H   0  0  0  0  0  0  0  0  0  0  0  0
   -0.3389    1.1653    2.4729 H   0  0  0  0  0  0  0  0  0  0  0  0
    1.0383    1.5273    3.2732 H   0  0  0  0  0  0  0  0  0  0  0  0
    0.0184    2.9206    0.0053 C   0  0  0  0  0  0  0  0  0  0  0  0
    0.8014    3.2122   -0.5232 H   0  0  0  0  0  0  0  0  0  0  0  0
    0.0877    3.2151    0.9462 H   0  0  0  0  0  0  0  0  0  0  0  0
   -0.8699    3.3815   -0.4265 H   0  0  0  0  0  0  0  0  0  0  0  0
    0.0002    1.3997   -0.0008 C   0  0  0  0  0  0  0  0  0  0  0  0
   -1.1884    0.6972    0.0005 C   0  0  0  0  0  0  0  0  0  0  0  0
   -2.0578    1.1845    0.0008 H   0  0  0  0  0  0  0  0  0  0  0  0
   -1.1881   -0.6887    0.0000 C   0  0  0  0  0  0  0  0  0  0  0  0
   -2.0718   -1.1824    0.0036 H   0  0  0  0  0  0  0  0  0  0  0  0
   -0.0001   -1.3853   -0.0033 C   0  0  0  0  0  0  0  0  0  0  0  0
   -0.0126   -2.3886   -0.0089 H   0  0  0  0  0  0  0  0  0  0  0  0
    1.1881   -0.7040   -0.0000 C   0  0  0  0  0  0  0  0  0  0  0  0
    2.0738   -1.2019    0.0017 H   0  0  0  0  0  0  0  0  0  0  0  0
    1.1883    0.6810    0.0035 C   0  0  0  0  0  0  0  0  0  0  0  0
    2.0623    1.1757    0.0082 H   0  0  0  0  0  0  0  0  0  0  0  0
  1  5  1  0
  5  8  1  0
  1  2  1  0
  1  3  1  0
  1  4  1  0
  5  6  1  0
  5  7  1  0
  8  9  1  0
  8 10  1  0
  8 11  1  0
 12 16  1  0
 16 17  2  0
 17 19  1  0
 19 21  2  0
 21 23  1  0
 23 25  2  0
 25 16  1  0
 12 13  1  0
 12 14  1  0
 12 15  1  0
 17 18  1  0
 19 20  1  0
 21 22  1  0
 23 24  1  0
 25 26  1  0
M  CHG  1   8   1
M  END
>  <PDB_ID>  (3058) 
pdb5gsn

>  <RESIDUE_NAME>  (3058) 
LYS   PHE

>  <FRAG_NAME>  (3058) 
ETAM   MBZ

>  <FRAG_ATOM_NUM>  (3058) 
fragi: 11  fragj: 15

>  <atom.prop.CHAIN_ID>  (3058) 
A A A A A A A A A A A Z Z Z Z Z Z Z Z Z Z Z Z Z Z Z

>  <atom.prop.IS_HEAVY_ATOM>  (3058) 
1 0 0 0 1 0 0 1 0 0 0 1 0 0 0 1 1 0 1 0 1 0 1 0 1 0

>  <DIFUSE_FUNC_ATOM>  (3058) 
n/a

>  <FINAL_SINGLE_POINT_ENERGY>  (3058) 
0

>  <NONCOV_INTER_ENERGY_QM>  (3058) 
0

>  <FF_Energy>  (3058) 
-8.53

>  <QM_Energy>  (3058) 
-15.23

>  <source>  (3058) 
ETAM_MBZ

>  <Index>  (3058) 
33352

$$$$
ETAM-pdb6gu2-B-LYS-256:MBZ-pdb6gu2-B-PHE-252
     RDKit          3D

 26 25  0  0  0  0  0  0  0  0999 V2000
   -0.8160   -1.8674    3.7302 C   0  0  0  0  0  0  0  0  0  0  0  0
   -0.6233   -2.4648    4.5004 H   0  0  0  0  0  0  0  0  0  0  0  0
   -1.0677   -2.4013    2.9302 H   0  0  0  0  0  0  0  0  0  0  0  0
   -1.6417   -1.2056    3.9914 H   0  0  0  0  0  0  0  0  0  0  0  0
    0.4373   -1.0746    3.4078 C   0  0  0  0  0  0  0  0  0  0  0  0
    0.2441   -0.4555    2.6264 H   0  0  0  0  0  0  0  0  0  0  0  0
    0.6697   -0.4855    4.2019 H   0  0  0  0  0  0  0  0  0  0  0  0
    1.6479   -1.9062    3.0650 N   0  0  0  0  0  4  0  0  0  0  0  0
    1.7030   -2.6719    3.7002 H   0  0  0  0  0  0  0  0  0  0  0  0
    1.5533   -2.2424    2.1321 H   0  0  0  0  0  0  0  0  0  0  0  0
    2.4618   -1.3367    3.1435 H   0  0  0  0  0  0  0  0  0  0  0  0
    0.0154    2.9149   -0.0034 C   0  0  0  0  0  0  0  0  0  0  0  0
   -0.2083    3.2099   -0.9261 H   0  0  0  0  0  0  0  0  0  0  0  0
    0.9303    3.2142    0.2438 H   0  0  0  0  0  0  0  0  0  0  0  0
   -0.6926    3.3767    0.6847 H   0  0  0  0  0  0  0  0  0  0  0  0
    0.0064    1.4182    0.0112 C   0  0  0  0  0  0  0  0  0  0  0  0
   -1.1945    0.6918    0.0085 C   0  0  0  0  0  0  0  0  0  0  0  0
   -2.0651    1.1698    0.0111 H   0  0  0  0  0  0  0  0  0  0  0  0
   -1.2021   -0.7309    0.0000 C   0  0  0  0  0  0  0  0  0  0  0  0
   -2.0838   -1.2017    0.0127 H   0  0  0  0  0  0  0  0  0  0  0  0
   -0.0163   -1.3971   -0.0231 C   0  0  0  0  0  0  0  0  0  0  0  0
    0.0078   -2.4026   -0.0575 H   0  0  0  0  0  0  0  0  0  0  0  0
    1.2021   -0.6928   -0.0000 C   0  0  0  0  0  0  0  0  0  0  0  0
    2.0771   -1.1938    0.0157 H   0  0  0  0  0  0  0  0  0  0  0  0
    1.2044    0.7109    0.0033 C   0  0  0  0  0  0  0  0  0  0  0  0
    2.0724    1.1981   -0.0011 H   0  0  0  0  0  0  0  0  0  0  0  0
  1  5  1  0
  5  8  1  0
  1  2  1  0
  1  3  1  0
  1  4  1  0
  5  6  1  0
  5  7  1  0
  8  9  1  0
  8 10  1  0
  8 11  1  0
 12 16  1  0
 16 17  2  0
 17 19  1  0
 19 21  2  0
 21 23  1  0
 23 25  2  0
 25 16  1  0
 12 13  1  0
 12 14  1  0
 12 15  1  0
 17 18  1  0
 19 20  1  0
 21 22  1  0
 23 24  1  0
 25 26  1  0
M  CHG  1   8   1
M  END
>  <PDB_ID>  (3059) 
pdb6gu2

>  <RESIDUE_NAME>  (3059) 
LYS   PHE

>  <FRAG_NAME>  (3059) 
ETAM   MBZ

>  <FRAG_ATOM_NUM>  (3059) 
fragi: 11  fragj: 15

>  <atom.prop.CHAIN_ID>  (3059) 
A A A A A A A A A A A Z Z Z Z Z Z Z Z Z Z Z Z Z Z Z

>  <atom.prop.IS_HEAVY_ATOM>  (3059) 
1 0 0 0 1 0 0 1 0 0 0 1 0 0 0 1 1 0 1 0 1 0 1 0 1 0

>  <DIFUSE_FUNC_ATOM>  (3059) 
n/a

>  <FINAL_SINGLE_POINT_ENERGY>  (3059) 
0

>  <NONCOV_INTER_ENERGY_QM>  (3059) 
0

>  <FF_Energy>  (3059) 
-4.7

>  <QM_Energy>  (3059) 
-12.43

>  <source>  (3059) 
ETAM_MBZ

>  <Index>  (3059) 
33355

$$$$
ETAM-pdb5guh-A-LYS-761:MBZ-pdb5guh-A-PHE-715
     RDKit          3D

 26 25  0  0  0  0  0  0  0  0999 V2000
   -2.8278    0.3772   -4.7617 C   0  0  0  0  0  0  0  0  0  0  0  0
   -3.3429    1.1040   -4.3211 H   0  0  0  0  0  0  0  0  0  0  0  0
   -3.4390   -0.2388   -5.2463 H   0  0  0  0  0  0  0  0  0  0  0  0
   -2.1323    0.8196   -5.4749 H   0  0  0  0  0  0  0  0  0  0  0  0
   -2.0914   -0.4129   -3.6914 C   0  0  0  0  0  0  0  0  0  0  0  0
   -1.5934   -1.1676   -4.1280 H   0  0  0  0  0  0  0  0  0  0  0  0
   -1.4309    0.1905   -3.2367 H   0  0  0  0  0  0  0  0  0  0  0  0
   -3.0245   -0.9699   -2.6705 N   0  0  0  0  0  4  0  0  0  0  0  0
   -2.9670   -0.4217   -1.8365 H   0  0  0  0  0  0  0  0  0  0  0  0
   -3.9574   -0.9430   -3.0261 H   0  0  0  0  0  0  0  0  0  0  0  0
   -2.7682   -1.9143   -2.4696 H   0  0  0  0  0  0  0  0  0  0  0  0
    0.0004    2.8965    0.0050 C   0  0  0  0  0  0  0  0  0  0  0  0
    0.9323    3.2025    0.1367 H   0  0  0  0  0  0  0  0  0  0  0  0
   -0.5831    3.1997    0.7440 H   0  0  0  0  0  0  0  0  0  0  0  0
   -0.3705    3.3443   -0.9170 H   0  0  0  0  0  0  0  0  0  0  0  0
   -0.0000    1.3957   -0.0033 C   0  0  0  0  0  0  0  0  0  0  0  0
   -1.1913    0.6891    0.0023 C   0  0  0  0  0  0  0  0  0  0  0  0
   -2.0600    1.1813    0.0066 H   0  0  0  0  0  0  0  0  0  0  0  0
   -1.1953   -0.6934   -0.0000 C   0  0  0  0  0  0  0  0  0  0  0  0
   -2.0743   -1.1892    0.0006 H   0  0  0  0  0  0  0  0  0  0  0  0
   -0.0001   -1.3859   -0.0011 C   0  0  0  0  0  0  0  0  0  0  0  0
   -0.0040   -2.3874   -0.0032 H   0  0  0  0  0  0  0  0  0  0  0  0
    1.1953   -0.6936    0.0000 C   0  0  0  0  0  0  0  0  0  0  0  0
    2.0785   -1.1938    0.0011 H   0  0  0  0  0  0  0  0  0  0  0  0
    1.1915    0.6881    0.0021 C   0  0  0  0  0  0  0  0  0  0  0  0
    2.0617    1.1866    0.0066 H   0  0  0  0  0  0  0  0  0  0  0  0
  1  5  1  0
  5  8  1  0
  1  2  1  0
  1  3  1  0
  1  4  1  0
  5  6  1  0
  5  7  1  0
  8  9  1  0
  8 10  1  0
  8 11  1  0
 12 16  1  0
 16 17  2  0
 17 19  1  0
 19 21  2  0
 21 23  1  0
 23 25  2  0
 25 16  1  0
 12 13  1  0
 12 14  1  0
 12 15  1  0
 17 18  1  0
 19 20  1  0
 21 22  1  0
 23 24  1  0
 25 26  1  0
M  CHG  1   8   1
M  END
>  <PDB_ID>  (3060) 
pdb5guh

>  <RESIDUE_NAME>  (3060) 
LYS   PHE

>  <FRAG_NAME>  (3060) 
ETAM   MBZ

>  <FRAG_ATOM_NUM>  (3060) 
fragi: 11  fragj: 15

>  <atom.prop.CHAIN_ID>  (3060) 
A A A A A A A A A A A Z Z Z Z Z Z Z Z Z Z Z Z Z Z Z

>  <atom.prop.IS_HEAVY_ATOM>  (3060) 
1 0 0 0 1 0 0 1 0 0 0 1 0 0 0 1 1 0 1 0 1 0 1 0 1 0

>  <DIFUSE_FUNC_ATOM>  (3060) 
n/a

>  <FINAL_SINGLE_POINT_ENERGY>  (3060) 
0

>  <NONCOV_INTER_ENERGY_QM>  (3060) 
0

>  <FF_Energy>  (3060) 
-2.63

>  <QM_Energy>  (3060) 
-8.98

>  <source>  (3060) 
ETAM_MBZ

>  <Index>  (3060) 
33363

$$$$
ETAM-pdb6gwk-C-LYS-33:MBZ-pdb6gwk-C-PHE-27
     RDKit          3D

 26 25  0  0  0  0  0  0  0  0999 V2000
   -3.1479   -1.8936   -2.8148 C   0  0  0  0  0  0  0  0  0  0  0  0
   -3.8854   -1.8409   -2.1425 H   0  0  0  0  0  0  0  0  0  0  0  0
   -3.4599   -2.4060   -3.6141 H   0  0  0  0  0  0  0  0  0  0  0  0
   -2.8862   -0.8824   -3.1264 H   0  0  0  0  0  0  0  0  0  0  0  0
   -1.9775   -2.6306   -2.1934 C   0  0  0  0  0  0  0  0  0  0  0  0
   -1.2382   -2.6896   -2.8623 H   0  0  0  0  0  0  0  0  0  0  0  0
   -1.6639   -2.1255   -1.3906 H   0  0  0  0  0  0  0  0  0  0  0  0
   -2.3818   -3.9985   -1.7852 N   0  0  0  0  0  4  0  0  0  0  0  0
   -3.2779   -4.2127   -2.1751 H   0  0  0  0  0  0  0  0  0  0  0  0
   -1.7081   -4.6590   -2.1182 H   0  0  0  0  0  0  0  0  0  0  0  0
   -2.4313   -4.0483   -0.7877 H   0  0  0  0  0  0  0  0  0  0  0  0
   -0.0019    2.8983    0.0003 C   0  0  0  0  0  0  0  0  0  0  0  0
    0.8409    3.2049    0.4173 H   0  0  0  0  0  0  0  0  0  0  0  0
   -0.7885    3.2040    0.5158 H   0  0  0  0  0  0  0  0  0  0  0  0
   -0.0627    3.3395   -0.9945 H   0  0  0  0  0  0  0  0  0  0  0  0
   -0.0016    1.3962   -0.0006 C   0  0  0  0  0  0  0  0  0  0  0  0
   -1.1929    0.6876   -0.0023 C   0  0  0  0  0  0  0  0  0  0  0  0
   -2.0611    1.1775   -0.0056 H   0  0  0  0  0  0  0  0  0  0  0  0
   -1.1942   -0.6985   -0.0000 C   0  0  0  0  0  0  0  0  0  0  0  0
   -2.0714   -1.1940    0.0011 H   0  0  0  0  0  0  0  0  0  0  0  0
    0.0023   -1.3861    0.0022 C   0  0  0  0  0  0  0  0  0  0  0  0
    0.0024   -2.3876    0.0040 H   0  0  0  0  0  0  0  0  0  0  0  0
    1.1942   -0.6896    0.0000 C   0  0  0  0  0  0  0  0  0  0  0  0
    2.0800   -1.1905    0.0002 H   0  0  0  0  0  0  0  0  0  0  0  0
    1.1922    0.6904    0.0007 C   0  0  0  0  0  0  0  0  0  0  0  0
    2.0602    1.1896    0.0024 H   0  0  0  0  0  0  0  0  0  0  0  0
  1  5  1  0
  5  8  1  0
  1  2  1  0
  1  3  1  0
  1  4  1  0
  5  6  1  0
  5  7  1  0
  8  9  1  0
  8 10  1  0
  8 11  1  0
 12 16  1  0
 16 17  2  0
 17 19  1  0
 19 21  2  0
 21 23  1  0
 23 25  2  0
 25 16  1  0
 12 13  1  0
 12 14  1  0
 12 15  1  0
 17 18  1  0
 19 20  1  0
 21 22  1  0
 23 24  1  0
 25 26  1  0
M  CHG  1   8   1
M  END
>  <PDB_ID>  (3061) 
pdb6gwk

>  <RESIDUE_NAME>  (3061) 
LYS   PHE

>  <FRAG_NAME>  (3061) 
ETAM   MBZ

>  <FRAG_ATOM_NUM>  (3061) 
fragi: 11  fragj: 15

>  <atom.prop.CHAIN_ID>  (3061) 
A A A A A A A A A A A Z Z Z Z Z Z Z Z Z Z Z Z Z Z Z

>  <atom.prop.IS_HEAVY_ATOM>  (3061) 
1 0 0 0 1 0 0 1 0 0 0 1 0 0 0 1 1 0 1 0 1 0 1 0 1 0

>  <DIFUSE_FUNC_ATOM>  (3061) 
n/a

>  <FINAL_SINGLE_POINT_ENERGY>  (3061) 
0

>  <NONCOV_INTER_ENERGY_QM>  (3061) 
0

>  <FF_Energy>  (3061) 
25.48

>  <QM_Energy>  (3061) 
0.3

>  <source>  (3061) 
ETAM_MBZ

>  <Index>  (3061) 
33367

$$$$
ETAM-pdb6h1l-A-LYS-187:MBZ-pdb6h1l-A-PHE-205
     RDKit          3D

 26 25  0  0  0  0  0  0  0  0999 V2000
    0.7171   -0.1486   -5.9156 C   0  0  0  0  0  0  0  0  0  0  0  0
    1.6570    0.1083   -6.1211 H   0  0  0  0  0  0  0  0  0  0  0  0
    0.2385    0.6133   -5.4883 H   0  0  0  0  0  0  0  0  0  0  0  0
    0.2111   -0.4068   -6.8458 H   0  0  0  0  0  0  0  0  0  0  0  0
    0.7356   -1.3155   -4.9419 C   0  0  0  0  0  0  0  0  0  0  0  0
   -0.1607   -1.7641   -4.9527 H   0  0  0  0  0  0  0  0  0  0  0  0
    1.4337   -1.9728   -5.2329 H   0  0  0  0  0  0  0  0  0  0  0  0
    1.0392   -0.8661   -3.5521 N   0  0  0  0  0  4  0  0  0  0  0  0
    0.7715    0.0908   -3.4485 H   0  0  0  0  0  0  0  0  0  0  0  0
    0.5287   -1.4297   -2.9043 H   0  0  0  0  0  0  0  0  0  0  0  0
    2.0189   -0.9612   -3.3819 H   0  0  0  0  0  0  0  0  0  0  0  0
   -0.0131    2.8857    0.0153 C   0  0  0  0  0  0  0  0  0  0  0  0
   -0.6070    3.2002   -0.7080 H   0  0  0  0  0  0  0  0  0  0  0  0
    0.9125    3.2038   -0.1098 H   0  0  0  0  0  0  0  0  0  0  0  0
   -0.3832    3.2974    0.9542 H   0  0  0  0  0  0  0  0  0  0  0  0
   -0.0013    1.3914   -0.0058 C   0  0  0  0  0  0  0  0  0  0  0  0
   -1.1900    0.6850    0.0061 C   0  0  0  0  0  0  0  0  0  0  0  0
   -2.0590    1.1798    0.0178 H   0  0  0  0  0  0  0  0  0  0  0  0
   -1.1947   -0.6904   -0.0000 C   0  0  0  0  0  0  0  0  0  0  0  0
   -2.0734   -1.1889   -0.0004 H   0  0  0  0  0  0  0  0  0  0  0  0
   -0.0007   -1.3820   -0.0032 C   0  0  0  0  0  0  0  0  0  0  0  0
   -0.0050   -2.3841   -0.0084 H   0  0  0  0  0  0  0  0  0  0  0  0
    1.1947   -0.6924   -0.0000 C   0  0  0  0  0  0  0  0  0  0  0  0
    2.0770   -1.1937    0.0015 H   0  0  0  0  0  0  0  0  0  0  0  0
    1.1921    0.6884    0.0029 C   0  0  0  0  0  0  0  0  0  0  0  0
    2.0603    1.1870    0.0105 H   0  0  0  0  0  0  0  0  0  0  0  0
  1  5  1  0
  5  8  1  0
  1  2  1  0
  1  3  1  0
  1  4  1  0
  5  6  1  0
  5  7  1  0
  8  9  1  0
  8 10  1  0
  8 11  1  0
 12 16  1  0
 16 17  2  0
 17 19  1  0
 19 21  2  0
 21 23  1  0
 23 25  2  0
 25 16  1  0
 12 13  1  0
 12 14  1  0
 12 15  1  0
 17 18  1  0
 19 20  1  0
 21 22  1  0
 23 24  1  0
 25 26  1  0
M  CHG  1   8   1
M  END
>  <PDB_ID>  (3062) 
pdb6h1l

>  <RESIDUE_NAME>  (3062) 
LYS   PHE

>  <FRAG_NAME>  (3062) 
ETAM   MBZ

>  <FRAG_ATOM_NUM>  (3062) 
fragi: 11  fragj: 15

>  <atom.prop.CHAIN_ID>  (3062) 
A A A A A A A A A A A Z Z Z Z Z Z Z Z Z Z Z Z Z Z Z

>  <atom.prop.IS_HEAVY_ATOM>  (3062) 
1 0 0 0 1 0 0 1 0 0 0 1 0 0 0 1 1 0 1 0 1 0 1 0 1 0

>  <DIFUSE_FUNC_ATOM>  (3062) 
n/a

>  <FINAL_SINGLE_POINT_ENERGY>  (3062) 
0

>  <NONCOV_INTER_ENERGY_QM>  (3062) 
0

>  <FF_Energy>  (3062) 
-5.83

>  <QM_Energy>  (3062) 
-11.18

>  <source>  (3062) 
ETAM_MBZ

>  <Index>  (3062) 
33372

$$$$
ETAM-pdb6gw3-A-LYS-317:MBZ-pdb6gw3-A-PHE-359
     RDKit          3D

 26 25  0  0  0  0  0  0  0  0999 V2000
    2.6652   -2.2772    4.7687 C   0  0  0  0  0  0  0  0  0  0  0  0
    2.9424   -1.3090    4.9098 H   0  0  0  0  0  0  0  0  0  0  0  0
    3.2204   -2.6318    3.9938 H   0  0  0  0  0  0  0  0  0  0  0  0
    2.9653   -2.8294    5.6592 H   0  0  0  0  0  0  0  0  0  0  0  0
    1.2572   -2.3535    4.4505 C   0  0  0  0  0  0  0  0  0  0  0  0
    0.9360   -3.3134    4.5636 H   0  0  0  0  0  0  0  0  0  0  0  0
    0.7291   -1.7903    5.1138 H   0  0  0  0  0  0  0  0  0  0  0  0
    1.0115   -1.9132    3.1406 N   0  0  0  0  0  4  0  0  0  0  0  0
    1.7897   -1.3751    2.7751 H   0  0  0  0  0  0  0  0  0  0  0  0
    0.8591   -2.6911    2.5068 H   0  0  0  0  0  0  0  0  0  0  0  0
    0.1891   -1.3218    3.0932 H   0  0  0  0  0  0  0  0  0  0  0  0
    0.0148    2.9197   -0.0866 C   0  0  0  0  0  0  0  0  0  0  0  0
    0.9058    3.2364    0.1882 H   0  0  0  0  0  0  0  0  0  0  0  0
   -0.6950    3.2525    0.5083 H   0  0  0  0  0  0  0  0  0  0  0  0
   -0.1810    3.3082   -1.0860 H   0  0  0  0  0  0  0  0  0  0  0  0
    0.0122    1.4101   -0.0208 C   0  0  0  0  0  0  0  0  0  0  0  0
   -1.1988    0.7046    0.0218 C   0  0  0  0  0  0  0  0  0  0  0  0
   -2.0555    1.1976    0.0658 H   0  0  0  0  0  0  0  0  0  0  0  0
   -1.2007   -0.6875    0.0000 C   0  0  0  0  0  0  0  0  0  0  0  0
   -2.0860   -1.1767   -0.0205 H   0  0  0  0  0  0  0  0  0  0  0  0
   -0.0128   -1.3902    0.0079 C   0  0  0  0  0  0  0  0  0  0  0  0
   -0.0304   -2.3967    0.0193 H   0  0  0  0  0  0  0  0  0  0  0  0
    1.2007   -0.7234    0.0000 C   0  0  0  0  0  0  0  0  0  0  0  0
    2.0716   -1.2170    0.0019 H   0  0  0  0  0  0  0  0  0  0  0  0
    1.1993    0.6863   -0.0089 C   0  0  0  0  0  0  0  0  0  0  0  0
    2.0770    1.1692   -0.0069 H   0  0  0  0  0  0  0  0  0  0  0  0
  1  5  1  0
  5  8  1  0
  1  2  1  0
  1  3  1  0
  1  4  1  0
  5  6  1  0
  5  7  1  0
  8  9  1  0
  8 10  1  0
  8 11  1  0
 12 16  1  0
 16 17  2  0
 17 19  1  0
 19 21  2  0
 21 23  1  0
 23 25  2  0
 25 16  1  0
 12 13  1  0
 12 14  1  0
 12 15  1  0
 17 18  1  0
 19 20  1  0
 21 22  1  0
 23 24  1  0
 25 26  1  0
M  CHG  1   8   1
M  END
>  <PDB_ID>  (3063) 
pdb6gw3

>  <RESIDUE_NAME>  (3063) 
LYS   PHE

>  <FRAG_NAME>  (3063) 
ETAM   MBZ

>  <FRAG_ATOM_NUM>  (3063) 
fragi: 11  fragj: 15

>  <atom.prop.CHAIN_ID>  (3063) 
A A A A A A A A A A A Z Z Z Z Z Z Z Z Z Z Z Z Z Z Z

>  <atom.prop.IS_HEAVY_ATOM>  (3063) 
1 0 0 0 1 0 0 1 0 0 0 1 0 0 0 1 1 0 1 0 1 0 1 0 1 0

>  <DIFUSE_FUNC_ATOM>  (3063) 
n/a

>  <FINAL_SINGLE_POINT_ENERGY>  (3063) 
0

>  <NONCOV_INTER_ENERGY_QM>  (3063) 
0

>  <FF_Energy>  (3063) 
-4.46

>  <QM_Energy>  (3063) 
-11.28

>  <source>  (3063) 
ETAM_MBZ

>  <Index>  (3063) 
33379

$$$$
ETAM-pdb5gvz-A-LYS-76:MBZ-pdb5gvz-A-PHE-49
     RDKit          3D

 26 25  0  0  0  0  0  0  0  0999 V2000
   -0.2614    0.0298    4.1775 C   0  0  0  0  0  0  0  0  0  0  0  0
   -0.5438    0.3868    5.0365 H   0  0  0  0  0  0  0  0  0  0  0  0
   -0.6837    0.4500    3.4105 H   0  0  0  0  0  0  0  0  0  0  0  0
    0.8194    0.1407    4.0898 H   0  0  0  0  0  0  0  0  0  0  0  0
   -0.5258   -1.4582    4.1418 C   0  0  0  0  0  0  0  0  0  0  0  0
    0.2211   -1.9048    3.6245 H   0  0  0  0  0  0  0  0  0  0  0  0
   -0.4947   -1.8133    5.0889 H   0  0  0  0  0  0  0  0  0  0  0  0
   -1.8100   -1.7901    3.5361 N   0  0  0  0  0  4  0  0  0  0  0  0
   -2.5508   -1.6653    4.2038 H   0  0  0  0  0  0  0  0  0  0  0  0
   -1.9848   -1.1951    2.7456 H   0  0  0  0  0  0  0  0  0  0  0  0
   -1.8109   -2.7462    3.2274 H   0  0  0  0  0  0  0  0  0  0  0  0
   -0.0241    2.8665   -0.0582 C   0  0  0  0  0  0  0  0  0  0  0  0
    0.8360    3.1955    0.3088 H   0  0  0  0  0  0  0  0  0  0  0  0
   -0.7872    3.1873    0.4856 H   0  0  0  0  0  0  0  0  0  0  0  0
   -0.1362    3.2555   -1.0702 H   0  0  0  0  0  0  0  0  0  0  0  0
   -0.0110    1.3837   -0.0022 C   0  0  0  0  0  0  0  0  0  0  0  0
   -1.2043    0.6718    0.0068 C   0  0  0  0  0  0  0  0  0  0  0  0
   -2.0717    1.1631    0.0167 H   0  0  0  0  0  0  0  0  0  0  0  0
   -1.2017   -0.7085   -0.0000 C   0  0  0  0  0  0  0  0  0  0  0  0
   -2.0653   -1.2147   -0.0034 H   0  0  0  0  0  0  0  0  0  0  0  0
    0.0118   -1.3724    0.0002 C   0  0  0  0  0  0  0  0  0  0  0  0
    0.0193   -2.3828    0.0004 H   0  0  0  0  0  0  0  0  0  0  0  0
    1.2017   -0.6777   -0.0000 C   0  0  0  0  0  0  0  0  0  0  0  0
    2.0880   -1.1792    0.0042 H   0  0  0  0  0  0  0  0  0  0  0  0
    1.2035    0.7031   -0.0048 C   0  0  0  0  0  0  0  0  0  0  0  0
    2.0559    1.2075   -0.0102 H   0  0  0  0  0  0  0  0  0  0  0  0
  1  5  1  0
  5  8  1  0
  1  2  1  0
  1  3  1  0
  1  4  1  0
  5  6  1  0
  5  7  1  0
  8  9  1  0
  8 10  1  0
  8 11  1  0
 12 16  1  0
 16 17  2  0
 17 19  1  0
 19 21  2  0
 21 23  1  0
 23 25  2  0
 25 16  1  0
 12 13  1  0
 12 14  1  0
 12 15  1  0
 17 18  1  0
 19 20  1  0
 21 22  1  0
 23 24  1  0
 25 26  1  0
M  CHG  1   8   1
M  END
>  <PDB_ID>  (3064) 
pdb5gvz

>  <RESIDUE_NAME>  (3064) 
LYS   PHE

>  <FRAG_NAME>  (3064) 
ETAM   MBZ

>  <FRAG_ATOM_NUM>  (3064) 
fragi: 11  fragj: 15

>  <atom.prop.CHAIN_ID>  (3064) 
A A A A A A A A A A A Z Z Z Z Z Z Z Z Z Z Z Z Z Z Z

>  <atom.prop.IS_HEAVY_ATOM>  (3064) 
1 0 0 0 1 0 0 1 0 0 0 1 0 0 0 1 1 0 1 0 1 0 1 0 1 0

>  <DIFUSE_FUNC_ATOM>  (3064) 
n/a

>  <FINAL_SINGLE_POINT_ENERGY>  (3064) 
0

>  <NONCOV_INTER_ENERGY_QM>  (3064) 
0

>  <FF_Energy>  (3064) 
-4.49

>  <QM_Energy>  (3064) 
-9.97

>  <source>  (3064) 
ETAM_MBZ

>  <Index>  (3064) 
33385

$$$$
ETAM-pdb5gkd-B-LYS-476:MBZ-pdb5gkd-B-PHE-453
     RDKit          3D

 26 25  0  0  0  0  0  0  0  0999 V2000
    0.4302   -0.6907    4.1197 C   0  0  0  0  0  0  0  0  0  0  0  0
    0.6714   -1.0582    3.2284 H   0  0  0  0  0  0  0  0  0  0  0  0
    0.4586   -1.4046    4.8104 H   0  0  0  0  0  0  0  0  0  0  0  0
    1.1466    0.0868    4.3852 H   0  0  0  0  0  0  0  0  0  0  0  0
   -0.9901   -0.1405    4.0498 C   0  0  0  0  0  0  0  0  0  0  0  0
   -1.2625    0.1712    4.9674 H   0  0  0  0  0  0  0  0  0  0  0  0
   -1.0000    0.6534    3.4300 H   0  0  0  0  0  0  0  0  0  0  0  0
   -1.9799   -1.1486    3.5649 N   0  0  0  0  0  4  0  0  0  0  0  0
   -2.7751   -0.6749    3.1888 H   0  0  0  0  0  0  0  0  0  0  0  0
   -1.5567   -1.7105    2.8562 H   0  0  0  0  0  0  0  0  0  0  0  0
   -2.2621   -1.7258    4.3289 H   0  0  0  0  0  0  0  0  0  0  0  0
   -0.0057    2.8970    0.0052 C   0  0  0  0  0  0  0  0  0  0  0  0
    0.8311    3.2001    0.4425 H   0  0  0  0  0  0  0  0  0  0  0  0
   -0.8007    3.1962    0.5168 H   0  0  0  0  0  0  0  0  0  0  0  0
   -0.0518    3.3605   -0.9803 H   0  0  0  0  0  0  0  0  0  0  0  0
   -0.0025    1.3928   -0.0095 C   0  0  0  0  0  0  0  0  0  0  0  0
   -1.1905    0.6832    0.0015 C   0  0  0  0  0  0  0  0  0  0  0  0
   -2.0604    1.1763    0.0093 H   0  0  0  0  0  0  0  0  0  0  0  0
   -1.1941   -0.6933   -0.0000 C   0  0  0  0  0  0  0  0  0  0  0  0
   -2.0693   -1.1930   -0.0004 H   0  0  0  0  0  0  0  0  0  0  0  0
    0.0046   -1.3815    0.0006 C   0  0  0  0  0  0  0  0  0  0  0  0
    0.0004   -2.3842    0.0005 H   0  0  0  0  0  0  0  0  0  0  0  0
    1.1941   -0.6899    0.0000 C   0  0  0  0  0  0  0  0  0  0  0  0
    2.0798   -1.1890   -0.0041 H   0  0  0  0  0  0  0  0  0  0  0  0
    1.1884    0.6887    0.0075 C   0  0  0  0  0  0  0  0  0  0  0  0
    2.0571    1.1894    0.0246 H   0  0  0  0  0  0  0  0  0  0  0  0
  1  5  1  0
  5  8  1  0
  1  2  1  0
  1  3  1  0
  1  4  1  0
  5  6  1  0
  5  7  1  0
  8  9  1  0
  8 10  1  0
  8 11  1  0
 12 16  1  0
 16 17  2  0
 17 19  1  0
 19 21  2  0
 21 23  1  0
 23 25  2  0
 25 16  1  0
 12 13  1  0
 12 14  1  0
 12 15  1  0
 17 18  1  0
 19 20  1  0
 21 22  1  0
 23 24  1  0
 25 26  1  0
M  CHG  1   8   1
M  END
>  <PDB_ID>  (3065) 
pdb5gkd

>  <RESIDUE_NAME>  (3065) 
LYS   PHE

>  <FRAG_NAME>  (3065) 
ETAM   MBZ

>  <FRAG_ATOM_NUM>  (3065) 
fragi: 11  fragj: 15

>  <atom.prop.CHAIN_ID>  (3065) 
A A A A A A A A A A A Z Z Z Z Z Z Z Z Z Z Z Z Z Z Z

>  <atom.prop.IS_HEAVY_ATOM>  (3065) 
1 0 0 0 1 0 0 1 0 0 0 1 0 0 0 1 1 0 1 0 1 0 1 0 1 0

>  <DIFUSE_FUNC_ATOM>  (3065) 
n/a

>  <FINAL_SINGLE_POINT_ENERGY>  (3065) 
0

>  <NONCOV_INTER_ENERGY_QM>  (3065) 
0

>  <FF_Energy>  (3065) 
-5.05

>  <QM_Energy>  (3065) 
-10.16

>  <source>  (3065) 
ETAM_MBZ

>  <Index>  (3065) 
33387

$$$$
ETAM-pdb6h3s-A-LYS-665:MBZ-pdb6h3s-A-PHE-490
     RDKit          3D

 26 25  0  0  0  0  0  0  0  0999 V2000
   -4.6560    1.3457   -0.3938 C   0  0  0  0  0  0  0  0  0  0  0  0
   -3.6964    1.2735   -0.6395 H   0  0  0  0  0  0  0  0  0  0  0  0
   -5.0035    2.2519   -0.6027 H   0  0  0  0  0  0  0  0  0  0  0  0
   -5.2237    0.6075   -0.9603 H   0  0  0  0  0  0  0  0  0  0  0  0
   -4.7949    1.1049    1.0972 C   0  0  0  0  0  0  0  0  0  0  0  0
   -4.3385    0.2438    1.3336 H   0  0  0  0  0  0  0  0  0  0  0  0
   -4.3510    1.8554    1.5941 H   0  0  0  0  0  0  0  0  0  0  0  0
   -6.2259    1.0271    1.5132 N   0  0  0  0  0  4  0  0  0  0  0  0
   -6.7154    0.4108    0.8972 H   0  0  0  0  0  0  0  0  0  0  0  0
   -6.2791    0.6803    2.4482 H   0  0  0  0  0  0  0  0  0  0  0  0
   -6.6315    1.9386    1.4691 H   0  0  0  0  0  0  0  0  0  0  0  0
   -0.0050    2.9010   -0.0019 C   0  0  0  0  0  0  0  0  0  0  0  0
   -0.8274    3.2027   -0.4616 H   0  0  0  0  0  0  0  0  0  0  0  0
    0.8060    3.2076   -0.4785 H   0  0  0  0  0  0  0  0  0  0  0  0
    0.0039    3.3488    0.9918 H   0  0  0  0  0  0  0  0  0  0  0  0
    0.0000    1.3954    0.0027 C   0  0  0  0  0  0  0  0  0  0  0  0
   -1.1912    0.6843   -0.0044 C   0  0  0  0  0  0  0  0  0  0  0  0
   -2.0602    1.1780   -0.0139 H   0  0  0  0  0  0  0  0  0  0  0  0
   -1.1939   -0.6938    0.0000 C   0  0  0  0  0  0  0  0  0  0  0  0
   -2.0735   -1.1919    0.0031 H   0  0  0  0  0  0  0  0  0  0  0  0
   -0.0011   -1.3844    0.0020 C   0  0  0  0  0  0  0  0  0  0  0  0
   -0.0039   -2.3860    0.0049 H   0  0  0  0  0  0  0  0  0  0  0  0
    1.1939   -0.6919    0.0000 C   0  0  0  0  0  0  0  0  0  0  0  0
    2.0770   -1.1925   -0.0001 H   0  0  0  0  0  0  0  0  0  0  0  0
    1.1922    0.6904   -0.0003 C   0  0  0  0  0  0  0  0  0  0  0  0
    2.0616    1.1882   -0.0035 H   0  0  0  0  0  0  0  0  0  0  0  0
  1  5  1  0
  5  8  1  0
  1  2  1  0
  1  3  1  0
  1  4  1  0
  5  6  1  0
  5  7  1  0
  8  9  1  0
  8 10  1  0
  8 11  1  0
 12 16  1  0
 16 17  2  0
 17 19  1  0
 19 21  2  0
 21 23  1  0
 23 25  2  0
 25 16  1  0
 12 13  1  0
 12 14  1  0
 12 15  1  0
 17 18  1  0
 19 20  1  0
 21 22  1  0
 23 24  1  0
 25 26  1  0
M  CHG  1   8   1
M  END
>  <PDB_ID>  (3066) 
pdb6h3s

>  <RESIDUE_NAME>  (3066) 
LYS   PHE

>  <FRAG_NAME>  (3066) 
ETAM   MBZ

>  <FRAG_ATOM_NUM>  (3066) 
fragi: 11  fragj: 15

>  <atom.prop.CHAIN_ID>  (3066) 
A A A A A A A A A A A Z Z Z Z Z Z Z Z Z Z Z Z Z Z Z

>  <atom.prop.IS_HEAVY_ATOM>  (3066) 
1 0 0 0 1 0 0 1 0 0 0 1 0 0 0 1 1 0 1 0 1 0 1 0 1 0

>  <DIFUSE_FUNC_ATOM>  (3066) 
n/a

>  <FINAL_SINGLE_POINT_ENERGY>  (3066) 
0

>  <NONCOV_INTER_ENERGY_QM>  (3066) 
0

>  <FF_Energy>  (3066) 
4.47

>  <QM_Energy>  (3066) 
-0.62

>  <source>  (3066) 
ETAM_MBZ

>  <Index>  (3066) 
33408

$$$$
ETAM-pdb6h4e-A-LYS-258:MBZ-pdb6h4e-A-PHE-15
     RDKit          3D

 26 25  0  0  0  0  0  0  0  0999 V2000
    5.8641    1.0485   -3.1585 C   0  0  0  0  0  0  0  0  0  0  0  0
    6.1850    0.3500   -2.5341 H   0  0  0  0  0  0  0  0  0  0  0  0
    5.9371    1.9495   -2.7543 H   0  0  0  0  0  0  0  0  0  0  0  0
    6.4663    1.0162   -4.0664 H   0  0  0  0  0  0  0  0  0  0  0  0
    4.3975    0.7770   -3.4796 C   0  0  0  0  0  0  0  0  0  0  0  0
    4.0310    1.5501   -3.9984 H   0  0  0  0  0  0  0  0  0  0  0  0
    4.3354   -0.0533   -4.0338 H   0  0  0  0  0  0  0  0  0  0  0  0
    3.5942    0.5967   -2.2352 N   0  0  0  0  0  4  0  0  0  0  0  0
    2.6482    0.8624   -2.4122 H   0  0  0  0  0  0  0  0  0  0  0  0
    3.6276   -0.3625   -1.9567 H   0  0  0  0  0  0  0  0  0  0  0  0
    3.9749    1.1700   -1.5108 H   0  0  0  0  0  0  0  0  0  0  0  0
    0.0076    2.9110   -0.0050 C   0  0  0  0  0  0  0  0  0  0  0  0
    0.9462    3.2126   -0.0403 H   0  0  0  0  0  0  0  0  0  0  0  0
   -0.4439    3.2173    0.8167 H   0  0  0  0  0  0  0  0  0  0  0  0
   -0.5151    3.3494   -0.8550 H   0  0  0  0  0  0  0  0  0  0  0  0
    0.0036    1.4006   -0.0030 C   0  0  0  0  0  0  0  0  0  0  0  0
   -1.1912    0.6971    0.0065 C   0  0  0  0  0  0  0  0  0  0  0  0
   -2.0580    1.1833    0.0170 H   0  0  0  0  0  0  0  0  0  0  0  0
   -1.1937   -0.6985    0.0000 C   0  0  0  0  0  0  0  0  0  0  0  0
   -2.0756   -1.1877    0.0005 H   0  0  0  0  0  0  0  0  0  0  0  0
   -0.0014   -1.3941   -0.0055 C   0  0  0  0  0  0  0  0  0  0  0  0
   -0.0046   -2.3931   -0.0140 H   0  0  0  0  0  0  0  0  0  0  0  0
    1.1937   -0.6992    0.0000 C   0  0  0  0  0  0  0  0  0  0  0  0
    2.0779   -1.1935    0.0043 H   0  0  0  0  0  0  0  0  0  0  0  0
    1.1891    0.6941    0.0020 C   0  0  0  0  0  0  0  0  0  0  0  0
    2.0632    1.1853    0.0064 H   0  0  0  0  0  0  0  0  0  0  0  0
  1  5  1  0
  5  8  1  0
  1  2  1  0
  1  3  1  0
  1  4  1  0
  5  6  1  0
  5  7  1  0
  8  9  1  0
  8 10  1  0
  8 11  1  0
 12 16  1  0
 16 17  2  0
 17 19  1  0
 19 21  2  0
 21 23  1  0
 23 25  2  0
 25 16  1  0
 12 13  1  0
 12 14  1  0
 12 15  1  0
 17 18  1  0
 19 20  1  0
 21 22  1  0
 23 24  1  0
 25 26  1  0
M  CHG  1   8   1
M  END
>  <PDB_ID>  (3067) 
pdb6h4e

>  <RESIDUE_NAME>  (3067) 
LYS   PHE

>  <FRAG_NAME>  (3067) 
ETAM   MBZ

>  <FRAG_ATOM_NUM>  (3067) 
fragi: 11  fragj: 15

>  <atom.prop.CHAIN_ID>  (3067) 
A A A A A A A A A A A Z Z Z Z Z Z Z Z Z Z Z Z Z Z Z

>  <atom.prop.IS_HEAVY_ATOM>  (3067) 
1 0 0 0 1 0 0 1 0 0 0 1 0 0 0 1 1 0 1 0 1 0 1 0 1 0

>  <DIFUSE_FUNC_ATOM>  (3067) 
n/a

>  <FINAL_SINGLE_POINT_ENERGY>  (3067) 
0

>  <NONCOV_INTER_ENERGY_QM>  (3067) 
0

>  <FF_Energy>  (3067) 
-1.09

>  <QM_Energy>  (3067) 
-6.7

>  <source>  (3067) 
ETAM_MBZ

>  <Index>  (3067) 
33425

$$$$
ETAM-pdb5gxd-A-LYS-104:MBZ-pdb5gxd-A-PHE-211
     RDKit          3D

 26 25  0  0  0  0  0  0  0  0999 V2000
    1.4966    0.9740    4.0555 C   0  0  0  0  0  0  0  0  0  0  0  0
    1.4971    1.9633    3.9681 H   0  0  0  0  0  0  0  0  0  0  0  0
    2.3041    0.5850    3.6269 H   0  0  0  0  0  0  0  0  0  0  0  0
    1.4882    0.7084    5.1126 H   0  0  0  0  0  0  0  0  0  0  0  0
    0.2597    0.4298    3.3332 C   0  0  0  0  0  0  0  0  0  0  0  0
    0.1861    0.8816    2.4391 H   0  0  0  0  0  0  0  0  0  0  0  0
    0.3816   -0.5562    3.1874 H   0  0  0  0  0  0  0  0  0  0  0  0
   -0.9945    0.6604    4.1051 N   0  0  0  0  0  4  0  0  0  0  0  0
   -0.9371    1.5404    4.5741 H   0  0  0  0  0  0  0  0  0  0  0  0
   -1.7727    0.6639    3.4780 H   0  0  0  0  0  0  0  0  0  0  0  0
   -1.1082   -0.0711    4.7769 H   0  0  0  0  0  0  0  0  0  0  0  0
    0.0025    2.9022   -0.0357 C   0  0  0  0  0  0  0  0  0  0  0  0
    0.8184    3.2196    0.4139 H   0  0  0  0  0  0  0  0  0  0  0  0
   -0.8145    3.2223    0.4087 H   0  0  0  0  0  0  0  0  0  0  0  0
    0.0058    3.2938   -1.0529 H   0  0  0  0  0  0  0  0  0  0  0  0
    0.0005    1.3990    0.0070 C   0  0  0  0  0  0  0  0  0  0  0  0
   -1.2000    0.6909   -0.0053 C   0  0  0  0  0  0  0  0  0  0  0  0
   -2.0634    1.1821   -0.0191 H   0  0  0  0  0  0  0  0  0  0  0  0
   -1.2009   -0.6971    0.0000 C   0  0  0  0  0  0  0  0  0  0  0  0
   -2.0740   -1.1963    0.0017 H   0  0  0  0  0  0  0  0  0  0  0  0
    0.0061   -1.3918    0.0044 C   0  0  0  0  0  0  0  0  0  0  0  0
   -0.0009   -2.3917    0.0106 H   0  0  0  0  0  0  0  0  0  0  0  0
    1.2009   -0.6978   -0.0000 C   0  0  0  0  0  0  0  0  0  0  0  0
    2.0848   -1.1902    0.0026 H   0  0  0  0  0  0  0  0  0  0  0  0
    1.1934    0.6968   -0.0061 C   0  0  0  0  0  0  0  0  0  0  0  0
    2.0626    1.1912   -0.0205 H   0  0  0  0  0  0  0  0  0  0  0  0
  1  5  1  0
  5  8  1  0
  1  2  1  0
  1  3  1  0
  1  4  1  0
  5  6  1  0
  5  7  1  0
  8  9  1  0
  8 10  1  0
  8 11  1  0
 12 16  1  0
 16 17  2  0
 17 19  1  0
 19 21  2  0
 21 23  1  0
 23 25  2  0
 25 16  1  0
 12 13  1  0
 12 14  1  0
 12 15  1  0
 17 18  1  0
 19 20  1  0
 21 22  1  0
 23 24  1  0
 25 26  1  0
M  CHG  1   8   1
M  END
>  <PDB_ID>  (3068) 
pdb5gxd

>  <RESIDUE_NAME>  (3068) 
LYS   PHE

>  <FRAG_NAME>  (3068) 
ETAM   MBZ

>  <FRAG_ATOM_NUM>  (3068) 
fragi: 11  fragj: 15

>  <atom.prop.CHAIN_ID>  (3068) 
A A A A A A A A A A A Z Z Z Z Z Z Z Z Z Z Z Z Z Z Z

>  <atom.prop.IS_HEAVY_ATOM>  (3068) 
1 0 0 0 1 0 0 1 0 0 0 1 0 0 0 1 1 0 1 0 1 0 1 0 1 0

>  <DIFUSE_FUNC_ATOM>  (3068) 
n/a

>  <FINAL_SINGLE_POINT_ENERGY>  (3068) 
0

>  <NONCOV_INTER_ENERGY_QM>  (3068) 
0

>  <FF_Energy>  (3068) 
-5.15

>  <QM_Energy>  (3068) 
-10.26

>  <source>  (3068) 
ETAM_MBZ

>  <Index>  (3068) 
33427

$$$$
ETAM-pdb5gkd-C-LYS-82:MBZ-pdb5gkd-C-PHE-60
     RDKit          3D

 26 25  0  0  0  0  0  0  0  0999 V2000
   -3.3973    1.0964    3.3213 C   0  0  0  0  0  0  0  0  0  0  0  0
   -3.7464    0.8723    4.2186 H   0  0  0  0  0  0  0  0  0  0  0  0
   -3.8619    0.5842    2.6151 H   0  0  0  0  0  0  0  0  0  0  0  0
   -3.5331    2.1625    3.1396 H   0  0  0  0  0  0  0  0  0  0  0  0
   -1.9267    0.7676    3.2742 C   0  0  0  0  0  0  0  0  0  0  0  0
   -1.5845    0.9244    2.3354 H   0  0  0  0  0  0  0  0  0  0  0  0
   -1.4287    1.3962    3.8902 H   0  0  0  0  0  0  0  0  0  0  0  0
   -1.6300   -0.6297    3.6688 N   0  0  0  0  0  4  0  0  0  0  0  0
   -1.1344   -0.6341    4.5382 H   0  0  0  0  0  0  0  0  0  0  0  0
   -2.4860   -1.1371    3.7719 H   0  0  0  0  0  0  0  0  0  0  0  0
   -1.0682   -1.0646    2.9645 H   0  0  0  0  0  0  0  0  0  0  0  0
    0.0056    2.8799    0.0215 C   0  0  0  0  0  0  0  0  0  0  0  0
    0.8951    3.1832    0.3394 H   0  0  0  0  0  0  0  0  0  0  0  0
   -0.7121    3.1867    0.6333 H   0  0  0  0  0  0  0  0  0  0  0  0
   -0.1715    3.3369   -0.9521 H   0  0  0  0  0  0  0  0  0  0  0  0
   -0.0010    1.3904    0.0043 C   0  0  0  0  0  0  0  0  0  0  0  0
   -1.1918    0.6911   -0.0032 C   0  0  0  0  0  0  0  0  0  0  0  0
   -2.0583    1.1839   -0.0122 H   0  0  0  0  0  0  0  0  0  0  0  0
   -1.1921   -0.6860    0.0000 C   0  0  0  0  0  0  0  0  0  0  0  0
   -2.0699   -1.1868    0.0058 H   0  0  0  0  0  0  0  0  0  0  0  0
    0.0053   -1.3837   -0.0029 C   0  0  0  0  0  0  0  0  0  0  0  0
   -0.0068   -2.3849   -0.0076 H   0  0  0  0  0  0  0  0  0  0  0  0
    1.1921   -0.6966    0.0000 C   0  0  0  0  0  0  0  0  0  0  0  0
    2.0788   -1.1932    0.0021 H   0  0  0  0  0  0  0  0  0  0  0  0
    1.1875    0.6849    0.0018 C   0  0  0  0  0  0  0  0  0  0  0  0
    2.0588    1.1831    0.0005 H   0  0  0  0  0  0  0  0  0  0  0  0
  1  5  1  0
  5  8  1  0
  1  2  1  0
  1  3  1  0
  1  4  1  0
  5  6  1  0
  5  7  1  0
  8  9  1  0
  8 10  1  0
  8 11  1  0
 12 16  1  0
 16 17  2  0
 17 19  1  0
 19 21  2  0
 21 23  1  0
 23 25  2  0
 25 16  1  0
 12 13  1  0
 12 14  1  0
 12 15  1  0
 17 18  1  0
 19 20  1  0
 21 22  1  0
 23 24  1  0
 25 26  1  0
M  CHG  1   8   1
M  END
>  <PDB_ID>  (3069) 
pdb5gkd

>  <RESIDUE_NAME>  (3069) 
LYS   PHE

>  <FRAG_NAME>  (3069) 
ETAM   MBZ

>  <FRAG_ATOM_NUM>  (3069) 
fragi: 11  fragj: 15

>  <atom.prop.CHAIN_ID>  (3069) 
A A A A A A A A A A A Z Z Z Z Z Z Z Z Z Z Z Z Z Z Z

>  <atom.prop.IS_HEAVY_ATOM>  (3069) 
1 0 0 0 1 0 0 1 0 0 0 1 0 0 0 1 1 0 1 0 1 0 1 0 1 0

>  <DIFUSE_FUNC_ATOM>  (3069) 
n/a

>  <FINAL_SINGLE_POINT_ENERGY>  (3069) 
0

>  <NONCOV_INTER_ENERGY_QM>  (3069) 
0

>  <FF_Energy>  (3069) 
-3.77

>  <QM_Energy>  (3069) 
-10.18

>  <source>  (3069) 
ETAM_MBZ

>  <Index>  (3069) 
33433

$$$$
ETAM-pdb6h6l-F-LYS-29:MBZ-pdb6h6l-F-PHE-71
     RDKit          3D

 26 25  0  0  0  0  0  0  0  0999 V2000
   -2.9240   -2.5949    1.7083 C   0  0  0  0  0  0  0  0  0  0  0  0
   -3.5490   -3.3498    1.9141 H   0  0  0  0  0  0  0  0  0  0  0  0
   -2.8742   -2.4677    0.7165 H   0  0  0  0  0  0  0  0  0  0  0  0
   -3.3154   -1.6834    2.1600 H   0  0  0  0  0  0  0  0  0  0  0  0
   -1.5478   -2.9549    2.2178 C   0  0  0  0  0  0  0  0  0  0  0  0
   -0.9153   -2.2077    2.0127 H   0  0  0  0  0  0  0  0  0  0  0  0
   -1.5892   -3.0900    3.2097 H   0  0  0  0  0  0  0  0  0  0  0  0
   -1.0571   -4.2004    1.5765 N   0  0  0  0  0  4  0  0  0  0  0  0
   -0.1288   -4.3960    1.8936 H   0  0  0  0  0  0  0  0  0  0  0  0
   -1.6592   -4.9614    1.8205 H   0  0  0  0  0  0  0  0  0  0  0  0
   -1.0526   -4.0844    0.5836 H   0  0  0  0  0  0  0  0  0  0  0  0
   -0.0089    2.8927   -0.0119 C   0  0  0  0  0  0  0  0  0  0  0  0
    0.9256    3.2057   -0.0414 H   0  0  0  0  0  0  0  0  0  0  0  0
   -0.4753    3.2078    0.7972 H   0  0  0  0  0  0  0  0  0  0  0  0
   -0.5267    3.3078   -0.8766 H   0  0  0  0  0  0  0  0  0  0  0  0
   -0.0003    1.3942    0.0049 C   0  0  0  0  0  0  0  0  0  0  0  0
   -1.1913    0.6868   -0.0024 C   0  0  0  0  0  0  0  0  0  0  0  0
   -2.0595    1.1788   -0.0109 H   0  0  0  0  0  0  0  0  0  0  0  0
   -1.1950   -0.6941    0.0000 C   0  0  0  0  0  0  0  0  0  0  0  0
   -2.0732   -1.1910    0.0028 H   0  0  0  0  0  0  0  0  0  0  0  0
    0.0000   -1.3855    0.0000 C   0  0  0  0  0  0  0  0  0  0  0  0
   -0.0026   -2.3867   -0.0006 H   0  0  0  0  0  0  0  0  0  0  0  0
    1.1950   -0.6922    0.0000 C   0  0  0  0  0  0  0  0  0  0  0  0
    2.0781   -1.1921    0.0036 H   0  0  0  0  0  0  0  0  0  0  0  0
    1.1916    0.6907   -0.0025 C   0  0  0  0  0  0  0  0  0  0  0  0
    2.0606    1.1885   -0.0110 H   0  0  0  0  0  0  0  0  0  0  0  0
  1  5  1  0
  5  8  1  0
  1  2  1  0
  1  3  1  0
  1  4  1  0
  5  6  1  0
  5  7  1  0
  8  9  1  0
  8 10  1  0
  8 11  1  0
 12 16  1  0
 16 17  2  0
 17 19  1  0
 19 21  2  0
 21 23  1  0
 23 25  2  0
 25 16  1  0
 12 13  1  0
 12 14  1  0
 12 15  1  0
 17 18  1  0
 19 20  1  0
 21 22  1  0
 23 24  1  0
 25 26  1  0
M  CHG  1   8   1
M  END
>  <PDB_ID>  (3070) 
pdb6h6l

>  <RESIDUE_NAME>  (3070) 
LYS   PHE

>  <FRAG_NAME>  (3070) 
ETAM   MBZ

>  <FRAG_ATOM_NUM>  (3070) 
fragi: 11  fragj: 15

>  <atom.prop.CHAIN_ID>  (3070) 
A A A A A A A A A A A Z Z Z Z Z Z Z Z Z Z Z Z Z Z Z

>  <atom.prop.IS_HEAVY_ATOM>  (3070) 
1 0 0 0 1 0 0 1 0 0 0 1 0 0 0 1 1 0 1 0 1 0 1 0 1 0

>  <DIFUSE_FUNC_ATOM>  (3070) 
n/a

>  <FINAL_SINGLE_POINT_ENERGY>  (3070) 
0

>  <NONCOV_INTER_ENERGY_QM>  (3070) 
0

>  <FF_Energy>  (3070) 
16.95

>  <QM_Energy>  (3070) 
-0.26

>  <source>  (3070) 
ETAM_MBZ

>  <Index>  (3070) 
33440

$$$$
ETAM-pdb6h6l-H-LYS-29:MBZ-pdb6h6l-H-PHE-71
     RDKit          3D

 26 25  0  0  0  0  0  0  0  0999 V2000
   -3.3093   -2.5035    1.1004 C   0  0  0  0  0  0  0  0  0  0  0  0
   -3.9631   -3.2551    1.2113 H   0  0  0  0  0  0  0  0  0  0  0  0
   -3.1373   -2.3594    0.1240 H   0  0  0  0  0  0  0  0  0  0  0  0
   -3.7453   -1.5959    1.5178 H   0  0  0  0  0  0  0  0  0  0  0  0
   -2.0110   -2.8899    1.7687 C   0  0  0  0  0  0  0  0  0  0  0  0
   -1.3504   -2.1463    1.6574 H   0  0  0  0  0  0  0  0  0  0  0  0
   -2.1756   -3.0427    2.7438 H   0  0  0  0  0  0  0  0  0  0  0  0
   -1.4571   -4.1294    1.1677 N   0  0  0  0  0  4  0  0  0  0  0  0
   -2.0744   -4.8945    1.3532 H   0  0  0  0  0  0  0  0  0  0  0  0
   -1.3638   -4.0079    0.1791 H   0  0  0  0  0  0  0  0  0  0  0  0
   -0.5596   -4.3205    1.5659 H   0  0  0  0  0  0  0  0  0  0  0  0
   -0.0090    2.8947   -0.0126 C   0  0  0  0  0  0  0  0  0  0  0  0
    0.9210    3.2082    0.0695 H   0  0  0  0  0  0  0  0  0  0  0  0
   -0.5693    3.2081    0.7350 H   0  0  0  0  0  0  0  0  0  0  0  0
   -0.4201    3.3073   -0.9340 H   0  0  0  0  0  0  0  0  0  0  0  0
   -0.0001    1.3936    0.0065 C   0  0  0  0  0  0  0  0  0  0  0  0
   -1.1905    0.6861   -0.0036 C   0  0  0  0  0  0  0  0  0  0  0  0
   -2.0594    1.1792   -0.0144 H   0  0  0  0  0  0  0  0  0  0  0  0
   -1.1940   -0.6936   -0.0000 C   0  0  0  0  0  0  0  0  0  0  0  0
   -2.0731   -1.1900    0.0038 H   0  0  0  0  0  0  0  0  0  0  0  0
   -0.0006   -1.3845   -0.0004 C   0  0  0  0  0  0  0  0  0  0  0  0
   -0.0034   -2.3860   -0.0019 H   0  0  0  0  0  0  0  0  0  0  0  0
    1.1940   -0.6918    0.0000 C   0  0  0  0  0  0  0  0  0  0  0  0
    2.0774   -1.1925    0.0039 H   0  0  0  0  0  0  0  0  0  0  0  0
    1.1912    0.6903   -0.0025 C   0  0  0  0  0  0  0  0  0  0  0  0
    2.0604    1.1884   -0.0120 H   0  0  0  0  0  0  0  0  0  0  0  0
  1  5  1  0
  5  8  1  0
  1  2  1  0
  1  3  1  0
  1  4  1  0
  5  6  1  0
  5  7  1  0
  8  9  1  0
  8 10  1  0
  8 11  1  0
 12 16  1  0
 16 17  2  0
 17 19  1  0
 19 21  2  0
 21 23  1  0
 23 25  2  0
 25 16  1  0
 12 13  1  0
 12 14  1  0
 12 15  1  0
 17 18  1  0
 19 20  1  0
 21 22  1  0
 23 24  1  0
 25 26  1  0
M  CHG  1   8   1
M  END
>  <PDB_ID>  (3071) 
pdb6h6l

>  <RESIDUE_NAME>  (3071) 
LYS   PHE

>  <FRAG_NAME>  (3071) 
ETAM   MBZ

>  <FRAG_ATOM_NUM>  (3071) 
fragi: 11  fragj: 15

>  <atom.prop.CHAIN_ID>  (3071) 
A A A A A A A A A A A Z Z Z Z Z Z Z Z Z Z Z Z Z Z Z

>  <atom.prop.IS_HEAVY_ATOM>  (3071) 
1 0 0 0 1 0 0 1 0 0 0 1 0 0 0 1 1 0 1 0 1 0 1 0 1 0

>  <DIFUSE_FUNC_ATOM>  (3071) 
n/a

>  <FINAL_SINGLE_POINT_ENERGY>  (3071) 
0

>  <NONCOV_INTER_ENERGY_QM>  (3071) 
0

>  <FF_Energy>  (3071) 
45.29

>  <QM_Energy>  (3071) 
4.77

>  <source>  (3071) 
ETAM_MBZ

>  <Index>  (3071) 
33441

$$$$
ETAM-pdb6h4e-B-LYS-258:MBZ-pdb6h4e-B-PHE-15
     RDKit          3D

 26 25  0  0  0  0  0  0  0  0999 V2000
    5.9603    1.0100   -2.9469 C   0  0  0  0  0  0  0  0  0  0  0  0
    6.2238    0.2588   -2.3610 H   0  0  0  0  0  0  0  0  0  0  0  0
    6.0603    1.8791   -2.4882 H   0  0  0  0  0  0  0  0  0  0  0  0
    6.5785    1.0018   -3.8445 H   0  0  0  0  0  0  0  0  0  0  0  0
    4.4694    0.8310   -3.3134 C   0  0  0  0  0  0  0  0  0  0  0  0
    4.1600    1.6629   -3.7928 H   0  0  0  0  0  0  0  0  0  0  0  0
    4.3925    0.0551   -3.9546 H   0  0  0  0  0  0  0  0  0  0  0  0
    3.5769    0.5833   -2.1350 N   0  0  0  0  0  4  0  0  0  0  0  0
    2.6375    0.4763   -2.4543 H   0  0  0  0  0  0  0  0  0  0  0  0
    3.8740   -0.2483   -1.6697 H   0  0  0  0  0  0  0  0  0  0  0  0
    3.6364    1.3597   -1.5113 H   0  0  0  0  0  0  0  0  0  0  0  0
    0.0060    2.9188   -0.0083 C   0  0  0  0  0  0  0  0  0  0  0  0
    0.9449    3.2222   -0.0401 H   0  0  0  0  0  0  0  0  0  0  0  0
   -0.4480    3.2234    0.8133 H   0  0  0  0  0  0  0  0  0  0  0  0
   -0.5141    3.3613   -0.8579 H   0  0  0  0  0  0  0  0  0  0  0  0
    0.0036    1.4063   -0.0095 C   0  0  0  0  0  0  0  0  0  0  0  0
   -1.1972    0.6975    0.0059 C   0  0  0  0  0  0  0  0  0  0  0  0
   -2.0627    1.1870    0.0204 H   0  0  0  0  0  0  0  0  0  0  0  0
   -1.2043   -0.7000    0.0000 C   0  0  0  0  0  0  0  0  0  0  0  0
   -2.0824   -1.1890   -0.0035 H   0  0  0  0  0  0  0  0  0  0  0  0
   -0.0043   -1.3968    0.0001 C   0  0  0  0  0  0  0  0  0  0  0  0
   -0.0089   -2.3964   -0.0002 H   0  0  0  0  0  0  0  0  0  0  0  0
    1.2043   -0.7042   -0.0000 C   0  0  0  0  0  0  0  0  0  0  0  0
    2.0813   -1.1990   -0.0012 H   0  0  0  0  0  0  0  0  0  0  0  0
    1.1979    0.6972    0.0035 C   0  0  0  0  0  0  0  0  0  0  0  0
    2.0682    1.1886    0.0149 H   0  0  0  0  0  0  0  0  0  0  0  0
  1  5  1  0
  5  8  1  0
  1  2  1  0
  1  3  1  0
  1  4  1  0
  5  6  1  0
  5  7  1  0
  8  9  1  0
  8 10  1  0
  8 11  1  0
 12 16  1  0
 16 17  2  0
 17 19  1  0
 19 21  2  0
 21 23  1  0
 23 25  2  0
 25 16  1  0
 12 13  1  0
 12 14  1  0
 12 15  1  0
 17 18  1  0
 19 20  1  0
 21 22  1  0
 23 24  1  0
 25 26  1  0
M  CHG  1   8   1
M  END
>  <PDB_ID>  (3072) 
pdb6h4e

>  <RESIDUE_NAME>  (3072) 
LYS   PHE

>  <FRAG_NAME>  (3072) 
ETAM   MBZ

>  <FRAG_ATOM_NUM>  (3072) 
fragi: 11  fragj: 15

>  <atom.prop.CHAIN_ID>  (3072) 
A A A A A A A A A A A Z Z Z Z Z Z Z Z Z Z Z Z Z Z Z

>  <atom.prop.IS_HEAVY_ATOM>  (3072) 
1 0 0 0 1 0 0 1 0 0 0 1 0 0 0 1 1 0 1 0 1 0 1 0 1 0

>  <DIFUSE_FUNC_ATOM>  (3072) 
n/a

>  <FINAL_SINGLE_POINT_ENERGY>  (3072) 
0

>  <NONCOV_INTER_ENERGY_QM>  (3072) 
0

>  <FF_Energy>  (3072) 
-0.68

>  <QM_Energy>  (3072) 
-6.57

>  <source>  (3072) 
ETAM_MBZ

>  <Index>  (3072) 
33460

$$$$
ETAM-pdb5gz8-A-LYS-92:MBZ-pdb5gz8-A-PHE-118
     RDKit          3D

 26 25  0  0  0  0  0  0  0  0999 V2000
   -5.9888    0.9472    1.5998 C   0  0  0  0  0  0  0  0  0  0  0  0
   -6.1438    1.8854    1.8901 H   0  0  0  0  0  0  0  0  0  0  0  0
   -6.7887    0.3885    1.7871 H   0  0  0  0  0  0  0  0  0  0  0  0
   -5.7948    0.9379    0.5272 H   0  0  0  0  0  0  0  0  0  0  0  0
   -4.8105    0.3850    2.3811 C   0  0  0  0  0  0  0  0  0  0  0  0
   -5.0448    0.3727    3.3570 H   0  0  0  0  0  0  0  0  0  0  0  0
   -4.6402   -0.5572    2.0790 H   0  0  0  0  0  0  0  0  0  0  0  0
   -3.5760    1.1914    2.1841 N   0  0  0  0  0  4  0  0  0  0  0  0
   -2.7756    0.5979    2.2653 H   0  0  0  0  0  0  0  0  0  0  0  0
   -3.5935    1.6081    1.2754 H   0  0  0  0  0  0  0  0  0  0  0  0
   -3.5330    1.9080    2.8797 H   0  0  0  0  0  0  0  0  0  0  0  0
    0.0008    2.8958   -0.0101 C   0  0  0  0  0  0  0  0  0  0  0  0
   -0.7921    3.1974   -0.5232 H   0  0  0  0  0  0  0  0  0  0  0  0
    0.8395    3.1970   -0.4437 H   0  0  0  0  0  0  0  0  0  0  0  0
   -0.0468    3.3561    0.9767 H   0  0  0  0  0  0  0  0  0  0  0  0
   -0.0003    1.3938    0.0055 C   0  0  0  0  0  0  0  0  0  0  0  0
   -1.1925    0.6890   -0.0020 C   0  0  0  0  0  0  0  0  0  0  0  0
   -2.0594    1.1815   -0.0109 H   0  0  0  0  0  0  0  0  0  0  0  0
   -1.1947   -0.6912   -0.0000 C   0  0  0  0  0  0  0  0  0  0  0  0
   -2.0731   -1.1893    0.0015 H   0  0  0  0  0  0  0  0  0  0  0  0
    0.0008   -1.3829    0.0018 C   0  0  0  0  0  0  0  0  0  0  0  0
   -0.0052   -2.3856    0.0035 H   0  0  0  0  0  0  0  0  0  0  0  0
    1.1947   -0.6940    0.0000 C   0  0  0  0  0  0  0  0  0  0  0  0
    2.0773   -1.1954    0.0045 H   0  0  0  0  0  0  0  0  0  0  0  0
    1.1920    0.6853   -0.0053 C   0  0  0  0  0  0  0  0  0  0  0  0
    2.0615    1.1851   -0.0180 H   0  0  0  0  0  0  0  0  0  0  0  0
  1  5  1  0
  5  8  1  0
  1  2  1  0
  1  3  1  0
  1  4  1  0
  5  6  1  0
  5  7  1  0
  8  9  1  0
  8 10  1  0
  8 11  1  0
 12 16  1  0
 16 17  2  0
 17 19  1  0
 19 21  2  0
 21 23  1  0
 23 25  2  0
 25 16  1  0
 12 13  1  0
 12 14  1  0
 12 15  1  0
 17 18  1  0
 19 20  1  0
 21 22  1  0
 23 24  1  0
 25 26  1  0
M  CHG  1   8   1
M  END
>  <PDB_ID>  (3073) 
pdb5gz8

>  <RESIDUE_NAME>  (3073) 
LYS   PHE

>  <FRAG_NAME>  (3073) 
ETAM   MBZ

>  <FRAG_ATOM_NUM>  (3073) 
fragi: 11  fragj: 15

>  <atom.prop.CHAIN_ID>  (3073) 
A A A A A A A A A A A Z Z Z Z Z Z Z Z Z Z Z Z Z Z Z

>  <atom.prop.IS_HEAVY_ATOM>  (3073) 
1 0 0 0 1 0 0 1 0 0 0 1 0 0 0 1 1 0 1 0 1 0 1 0 1 0

>  <DIFUSE_FUNC_ATOM>  (3073) 
n/a

>  <FINAL_SINGLE_POINT_ENERGY>  (3073) 
0

>  <NONCOV_INTER_ENERGY_QM>  (3073) 
0

>  <FF_Energy>  (3073) 
-1.0

>  <QM_Energy>  (3073) 
-6.13

>  <source>  (3073) 
ETAM_MBZ

>  <Index>  (3073) 
33463

$$$$
ETAM-pdb5h18-A-LYS-1275:MBZ-pdb5h18-A-PHE-1292
     RDKit          3D

 26 25  0  0  0  0  0  0  0  0999 V2000
   -0.8031   -2.0955   -3.6191 C   0  0  0  0  0  0  0  0  0  0  0  0
   -0.7278   -2.8058   -2.9080 H   0  0  0  0  0  0  0  0  0  0  0  0
   -0.6544   -2.5308   -4.5160 H   0  0  0  0  0  0  0  0  0  0  0  0
   -1.8098   -1.6782   -3.5929 H   0  0  0  0  0  0  0  0  0  0  0  0
    0.3067   -1.0796   -3.3952 C   0  0  0  0  0  0  0  0  0  0  0  0
    0.2961   -0.4162   -4.1565 H   0  0  0  0  0  0  0  0  0  0  0  0
    0.1162   -0.5758   -2.5420 H   0  0  0  0  0  0  0  0  0  0  0  0
    1.6482   -1.6992   -3.3068 N   0  0  0  0  0  4  0  0  0  0  0  0
    1.8256   -1.9815   -2.3628 H   0  0  0  0  0  0  0  0  0  0  0  0
    1.6876   -2.5006   -3.9056 H   0  0  0  0  0  0  0  0  0  0  0  0
    2.3426   -1.0375   -3.5919 H   0  0  0  0  0  0  0  0  0  0  0  0
    0.0116    2.8895    0.0956 C   0  0  0  0  0  0  0  0  0  0  0  0
   -0.8059    3.2333   -0.3248 H   0  0  0  0  0  0  0  0  0  0  0  0
    0.8268    3.2346   -0.3294 H   0  0  0  0  0  0  0  0  0  0  0  0
    0.0145    3.2263    1.1323 H   0  0  0  0  0  0  0  0  0  0  0  0
    0.0126    1.3977   -0.0155 C   0  0  0  0  0  0  0  0  0  0  0  0
   -1.1998    0.7016   -0.0122 C   0  0  0  0  0  0  0  0  0  0  0  0
   -2.0547    1.1976   -0.0201 H   0  0  0  0  0  0  0  0  0  0  0  0
   -1.1984   -0.6833    0.0000 C   0  0  0  0  0  0  0  0  0  0  0  0
   -2.0860   -1.1751    0.0034 H   0  0  0  0  0  0  0  0  0  0  0  0
   -0.0171   -1.3820    0.0094 C   0  0  0  0  0  0  0  0  0  0  0  0
   -0.0296   -2.3883    0.0227 H   0  0  0  0  0  0  0  0  0  0  0  0
    1.1984   -0.7127   -0.0000 C   0  0  0  0  0  0  0  0  0  0  0  0
    2.0675   -1.2201   -0.0181 H   0  0  0  0  0  0  0  0  0  0  0  0
    1.2044    0.6787    0.0184 C   0  0  0  0  0  0  0  0  0  0  0  0
    2.0758    1.1682    0.0561 H   0  0  0  0  0  0  0  0  0  0  0  0
  1  5  1  0
  5  8  1  0
  1  2  1  0
  1  3  1  0
  1  4  1  0
  5  6  1  0
  5  7  1  0
  8  9  1  0
  8 10  1  0
  8 11  1  0
 12 16  1  0
 16 17  2  0
 17 19  1  0
 19 21  2  0
 21 23  1  0
 23 25  2  0
 25 16  1  0
 12 13  1  0
 12 14  1  0
 12 15  1  0
 17 18  1  0
 19 20  1  0
 21 22  1  0
 23 24  1  0
 25 26  1  0
M  CHG  1   8   1
M  END
>  <PDB_ID>  (3074) 
pdb5h18

>  <RESIDUE_NAME>  (3074) 
LYS   PHE

>  <FRAG_NAME>  (3074) 
ETAM   MBZ

>  <FRAG_ATOM_NUM>  (3074) 
fragi: 11  fragj: 15

>  <atom.prop.CHAIN_ID>  (3074) 
A A A A A A A A A A A Z Z Z Z Z Z Z Z Z Z Z Z Z Z Z

>  <atom.prop.IS_HEAVY_ATOM>  (3074) 
1 0 0 0 1 0 0 1 0 0 0 1 0 0 0 1 1 0 1 0 1 0 1 0 1 0

>  <DIFUSE_FUNC_ATOM>  (3074) 
n/a

>  <FINAL_SINGLE_POINT_ENERGY>  (3074) 
0

>  <NONCOV_INTER_ENERGY_QM>  (3074) 
0

>  <FF_Energy>  (3074) 
-4.66

>  <QM_Energy>  (3074) 
-11.89

>  <source>  (3074) 
ETAM_MBZ

>  <Index>  (3074) 
33471

$$$$
ETAM-pdb5h2a-B-LYS-140:MBZ-pdb5h2a-B-PHE-107
     RDKit          3D

 26 25  0  0  0  0  0  0  0  0999 V2000
   -1.8649   -0.8482    4.5280 C   0  0  0  0  0  0  0  0  0  0  0  0
   -1.0430   -0.3005    4.6718 H   0  0  0  0  0  0  0  0  0  0  0  0
   -2.0445   -1.4079    5.3343 H   0  0  0  0  0  0  0  0  0  0  0  0
   -2.7109   -0.1810    4.3637 H   0  0  0  0  0  0  0  0  0  0  0  0
   -1.6330   -1.7653    3.3461 C   0  0  0  0  0  0  0  0  0  0  0  0
   -2.3458   -2.4596    3.3208 H   0  0  0  0  0  0  0  0  0  0  0  0
   -1.6448   -1.2320    2.5055 H   0  0  0  0  0  0  0  0  0  0  0  0
   -0.3006   -2.4405    3.4754 N   0  0  0  0  0  4  0  0  0  0  0  0
    0.3905   -1.7574    3.7020 H   0  0  0  0  0  0  0  0  0  0  0  0
   -0.3510   -3.1254    4.1993 H   0  0  0  0  0  0  0  0  0  0  0  0
   -0.0717   -2.8792    2.6092 H   0  0  0  0  0  0  0  0  0  0  0  0
   -0.0037    2.9142   -0.0082 C   0  0  0  0  0  0  0  0  0  0  0  0
   -0.5780    3.2115   -0.7549 H   0  0  0  0  0  0  0  0  0  0  0  0
    0.9291    3.2169   -0.1264 H   0  0  0  0  0  0  0  0  0  0  0  0
   -0.3879    3.3614    0.9085 H   0  0  0  0  0  0  0  0  0  0  0  0
   -0.0013    1.4013    0.0003 C   0  0  0  0  0  0  0  0  0  0  0  0
   -1.1944    0.6973   -0.0042 C   0  0  0  0  0  0  0  0  0  0  0  0
   -2.0631    1.1825   -0.0123 H   0  0  0  0  0  0  0  0  0  0  0  0
   -1.2008   -0.7017    0.0000 C   0  0  0  0  0  0  0  0  0  0  0  0
   -2.0764   -1.1913    0.0012 H   0  0  0  0  0  0  0  0  0  0  0  0
    0.0028   -1.3961    0.0047 C   0  0  0  0  0  0  0  0  0  0  0  0
    0.0019   -2.3939    0.0102 H   0  0  0  0  0  0  0  0  0  0  0  0
    1.2008   -0.6944   -0.0000 C   0  0  0  0  0  0  0  0  0  0  0  0
    2.0839   -1.1909   -0.0011 H   0  0  0  0  0  0  0  0  0  0  0  0
    1.1929    0.6935   -0.0008 C   0  0  0  0  0  0  0  0  0  0  0  0
    2.0619    1.1918   -0.0029 H   0  0  0  0  0  0  0  0  0  0  0  0
  1  5  1  0
  5  8  1  0
  1  2  1  0
  1  3  1  0
  1  4  1  0
  5  6  1  0
  5  7  1  0
  8  9  1  0
  8 10  1  0
  8 11  1  0
 12 16  1  0
 16 17  2  0
 17 19  1  0
 19 21  2  0
 21 23  1  0
 23 25  2  0
 25 16  1  0
 12 13  1  0
 12 14  1  0
 12 15  1  0
 17 18  1  0
 19 20  1  0
 21 22  1  0
 23 24  1  0
 25 26  1  0
M  CHG  1   8   1
M  END
>  <PDB_ID>  (3075) 
pdb5h2a

>  <RESIDUE_NAME>  (3075) 
LYS   PHE

>  <FRAG_NAME>  (3075) 
ETAM   MBZ

>  <FRAG_ATOM_NUM>  (3075) 
fragi: 11  fragj: 15

>  <atom.prop.CHAIN_ID>  (3075) 
A A A A A A A A A A A Z Z Z Z Z Z Z Z Z Z Z Z Z Z Z

>  <atom.prop.IS_HEAVY_ATOM>  (3075) 
1 0 0 0 1 0 0 1 0 0 0 1 0 0 0 1 1 0 1 0 1 0 1 0 1 0

>  <DIFUSE_FUNC_ATOM>  (3075) 
n/a

>  <FINAL_SINGLE_POINT_ENERGY>  (3075) 
0

>  <NONCOV_INTER_ENERGY_QM>  (3075) 
0

>  <FF_Energy>  (3075) 
-3.5

>  <QM_Energy>  (3075) 
-9.19

>  <source>  (3075) 
ETAM_MBZ

>  <Index>  (3075) 
33488

$$$$
ETAM-pdb6har-A-LYS-60:MBZ-pdb6har-E-PHE-18
     RDKit          3D

 26 25  0  0  0  0  0  0  0  0999 V2000
   -4.6682   -1.9155   -2.5926 C   0  0  0  0  0  0  0  0  0  0  0  0
   -4.6270   -2.3082   -3.5072 H   0  0  0  0  0  0  0  0  0  0  0  0
   -5.6071   -1.6715   -2.3670 H   0  0  0  0  0  0  0  0  0  0  0  0
   -4.3128   -2.6548   -1.8748 H   0  0  0  0  0  0  0  0  0  0  0  0
   -3.8210   -0.6514   -2.5707 C   0  0  0  0  0  0  0  0  0  0  0  0
   -2.8863   -0.8920   -2.3096 H   0  0  0  0  0  0  0  0  0  0  0  0
   -3.8178   -0.2472   -3.4858 H   0  0  0  0  0  0  0  0  0  0  0  0
   -4.3645    0.3349   -1.5998 N   0  0  0  0  0  4  0  0  0  0  0  0
   -4.5343    1.2026   -2.0673 H   0  0  0  0  0  0  0  0  0  0  0  0
   -5.2204   -0.0117   -1.2175 H   0  0  0  0  0  0  0  0  0  0  0  0
   -3.7029    0.4760   -0.8640 H   0  0  0  0  0  0  0  0  0  0  0  0
    0.0038    2.9026   -0.0140 C   0  0  0  0  0  0  0  0  0  0  0  0
    0.8272    3.2115    0.4341 H   0  0  0  0  0  0  0  0  0  0  0  0
   -0.8052    3.2161    0.4568 H   0  0  0  0  0  0  0  0  0  0  0  0
   -0.0095    3.3271   -1.0178 H   0  0  0  0  0  0  0  0  0  0  0  0
   -0.0006    1.3990    0.0027 C   0  0  0  0  0  0  0  0  0  0  0  0
   -1.1937    0.6964   -0.0011 C   0  0  0  0  0  0  0  0  0  0  0  0
   -2.0610    1.1864   -0.0062 H   0  0  0  0  0  0  0  0  0  0  0  0
   -1.1991   -0.6915   -0.0000 C   0  0  0  0  0  0  0  0  0  0  0  0
   -2.0769   -1.1854    0.0036 H   0  0  0  0  0  0  0  0  0  0  0  0
    0.0002   -1.3923   -0.0022 C   0  0  0  0  0  0  0  0  0  0  0  0
   -0.0076   -2.3903   -0.0057 H   0  0  0  0  0  0  0  0  0  0  0  0
    1.1991   -0.6993    0.0000 C   0  0  0  0  0  0  0  0  0  0  0  0
    2.0808   -1.1980    0.0028 H   0  0  0  0  0  0  0  0  0  0  0  0
    1.1941    0.6876    0.0006 C   0  0  0  0  0  0  0  0  0  0  0  0
    2.0630    1.1857   -0.0013 H   0  0  0  0  0  0  0  0  0  0  0  0
  1  5  1  0
  5  8  1  0
  1  2  1  0
  1  3  1  0
  1  4  1  0
  5  6  1  0
  5  7  1  0
  8  9  1  0
  8 10  1  0
  8 11  1  0
 12 16  1  0
 16 17  2  0
 17 19  1  0
 19 21  2  0
 21 23  1  0
 23 25  2  0
 25 16  1  0
 12 13  1  0
 12 14  1  0
 12 15  1  0
 17 18  1  0
 19 20  1  0
 21 22  1  0
 23 24  1  0
 25 26  1  0
M  CHG  1   8   1
M  END
>  <PDB_ID>  (3076) 
pdb6har

>  <RESIDUE_NAME>  (3076) 
LYS   PHE

>  <FRAG_NAME>  (3076) 
ETAM   MBZ

>  <FRAG_ATOM_NUM>  (3076) 
fragi: 11  fragj: 15

>  <atom.prop.CHAIN_ID>  (3076) 
A A A A A A A A A A A Z Z Z Z Z Z Z Z Z Z Z Z Z Z Z

>  <atom.prop.IS_HEAVY_ATOM>  (3076) 
1 0 0 0 1 0 0 1 0 0 0 1 0 0 0 1 1 0 1 0 1 0 1 0 1 0

>  <DIFUSE_FUNC_ATOM>  (3076) 
n/a

>  <FINAL_SINGLE_POINT_ENERGY>  (3076) 
0

>  <NONCOV_INTER_ENERGY_QM>  (3076) 
0

>  <FF_Energy>  (3076) 
-0.31

>  <QM_Energy>  (3076) 
-5.58

>  <source>  (3076) 
ETAM_MBZ

>  <Index>  (3076) 
33490

$$$$
ETAM-pdb6hat-B-LYS-307:MBZ-pdb6hat-B-PHE-292
     RDKit          3D

 26 25  0  0  0  0  0  0  0  0999 V2000
    0.8187   -3.8518   -3.4509 C   0  0  0  0  0  0  0  0  0  0  0  0
    1.5702   -4.4197   -3.2174 H   0  0  0  0  0  0  0  0  0  0  0  0
    0.6349   -3.9202   -4.4007 H   0  0  0  0  0  0  0  0  0  0  0  0
   -0.0610   -4.1577   -2.8847 H   0  0  0  0  0  0  0  0  0  0  0  0
    1.1866   -2.3990   -3.1289 C   0  0  0  0  0  0  0  0  0  0  0  0
    1.5084   -2.3514   -2.2152 H   0  0  0  0  0  0  0  0  0  0  0  0
    1.8807   -2.1067   -3.7408 H   0  0  0  0  0  0  0  0  0  0  0  0
    0.0193   -1.4451   -3.2606 N   0  0  0  0  0  4  0  0  0  0  0  0
   -0.3769   -1.5575   -4.0494 H   0  0  0  0  0  0  0  0  0  0  0  0
   -0.5728   -1.5988   -2.6147 H   0  0  0  0  0  0  0  0  0  0  0  0
    0.3052   -0.6047   -3.1969 H   0  0  0  0  0  0  0  0  0  0  0  0
   -0.0097    2.9537    0.0166 C   0  0  0  0  0  0  0  0  0  0  0  0
   -0.3926    3.2611   -0.8194 H   0  0  0  0  0  0  0  0  0  0  0  0
    0.9080    3.2582    0.0931 H   0  0  0  0  0  0  0  0  0  0  0  0
   -0.5887    3.3649    0.8435 H   0  0  0  0  0  0  0  0  0  0  0  0
    0.0012    1.4159   -0.0032 C   0  0  0  0  0  0  0  0  0  0  0  0
   -1.1996    0.6904   -0.0002 C   0  0  0  0  0  0  0  0  0  0  0  0
   -2.0087    1.1487    0.0009 H   0  0  0  0  0  0  0  0  0  0  0  0
   -1.2038   -0.7082    0.0000 C   0  0  0  0  0  0  0  0  0  0  0  0
   -2.0102   -1.1718    0.0017 H   0  0  0  0  0  0  0  0  0  0  0  0
    0.0011   -1.4034   -0.0012 C   0  0  0  0  0  0  0  0  0  0  0  0
    0.0032   -2.3337   -0.0038 H   0  0  0  0  0  0  0  0  0  0  0  0
    1.2038   -0.6992   -0.0000 C   0  0  0  0  0  0  0  0  0  0  0  0
    2.0119   -1.1603   -0.0014 H   0  0  0  0  0  0  0  0  0  0  0  0
    1.1972    0.7045    0.0046 C   0  0  0  0  0  0  0  0  0  0  0  0
    2.0052    1.1663    0.0117 H   0  0  0  0  0  0  0  0  0  0  0  0
  1  5  1  0
  5  8  1  0
  1  2  1  0
  1  3  1  0
  1  4  1  0
  5  6  1  0
  5  7  1  0
  8  9  1  0
  8 10  1  0
  8 11  1  0
 12 16  1  0
 16 17  2  0
 17 19  1  0
 19 21  2  0
 21 23  1  0
 23 25  2  0
 25 16  1  0
 12 13  1  0
 12 14  1  0
 12 15  1  0
 17 18  1  0
 19 20  1  0
 21 22  1  0
 23 24  1  0
 25 26  1  0
M  CHG  1   8   1
M  END
>  <PDB_ID>  (3077) 
pdb6hat

>  <RESIDUE_NAME>  (3077) 
LYS   PHE

>  <FRAG_NAME>  (3077) 
ETAM   MBZ

>  <FRAG_ATOM_NUM>  (3077) 
fragi: 11  fragj: 15

>  <atom.prop.CHAIN_ID>  (3077) 
A A A A A A A A A A A Z Z Z Z Z Z Z Z Z Z Z Z Z Z Z

>  <atom.prop.IS_HEAVY_ATOM>  (3077) 
1 0 0 0 1 0 0 1 0 0 0 1 0 0 0 1 1 0 1 0 1 0 1 0 1 0

>  <DIFUSE_FUNC_ATOM>  (3077) 
n/a

>  <FINAL_SINGLE_POINT_ENERGY>  (3077) 
0

>  <NONCOV_INTER_ENERGY_QM>  (3077) 
0

>  <FF_Energy>  (3077) 
-5.81

>  <QM_Energy>  (3077) 
-13.12

>  <source>  (3077) 
ETAM_MBZ

>  <Index>  (3077) 
33493

$$$$
ETAM-pdb5h3e-B-LYS-69:MBZ-pdb5h3e-B-PHE-65
     RDKit          3D

 26 25  0  0  0  0  0  0  0  0999 V2000
    0.6193   -0.4319   -3.4734 C   0  0  0  0  0  0  0  0  0  0  0  0
    0.3975   -0.1454   -2.5484 H   0  0  0  0  0  0  0  0  0  0  0  0
    0.6695   -1.4215   -3.5316 H   0  0  0  0  0  0  0  0  0  0  0  0
   -0.1546   -0.0736   -4.1521 H   0  0  0  0  0  0  0  0  0  0  0  0
    1.9784    0.1439   -3.8453 C   0  0  0  0  0  0  0  0  0  0  0  0
    2.2031   -0.1364   -4.7860 H   0  0  0  0  0  0  0  0  0  0  0  0
    1.9233    1.1486   -3.8196 H   0  0  0  0  0  0  0  0  0  0  0  0
    3.0629   -0.3079   -2.9304 N   0  0  0  0  0  4  0  0  0  0  0  0
    3.5927   -1.0295   -3.3753 H   0  0  0  0  0  0  0  0  0  0  0  0
    3.6608    0.4650   -2.7188 H   0  0  0  0  0  0  0  0  0  0  0  0
    2.6594   -0.6600   -2.0865 H   0  0  0  0  0  0  0  0  0  0  0  0
    0.0066    2.9218    0.0049 C   0  0  0  0  0  0  0  0  0  0  0  0
    0.9161    3.2200    0.2474 H   0  0  0  0  0  0  0  0  0  0  0  0
   -0.6622    3.2236    0.6666 H   0  0  0  0  0  0  0  0  0  0  0  0
   -0.2468    3.3742   -0.9538 H   0  0  0  0  0  0  0  0  0  0  0  0
    0.0003    1.4078   -0.0043 C   0  0  0  0  0  0  0  0  0  0  0  0
   -1.1983    0.6880    0.0074 C   0  0  0  0  0  0  0  0  0  0  0  0
   -2.0652    1.1784    0.0203 H   0  0  0  0  0  0  0  0  0  0  0  0
   -1.2006   -0.7017   -0.0000 C   0  0  0  0  0  0  0  0  0  0  0  0
   -2.0768   -1.1966   -0.0027 H   0  0  0  0  0  0  0  0  0  0  0  0
    0.0000   -1.3944   -0.0024 C   0  0  0  0  0  0  0  0  0  0  0  0
   -0.0005   -2.3937   -0.0065 H   0  0  0  0  0  0  0  0  0  0  0  0
    1.2006   -0.6953   -0.0000 C   0  0  0  0  0  0  0  0  0  0  0  0
    2.0828   -1.1937    0.0039 H   0  0  0  0  0  0  0  0  0  0  0  0
    1.1979    0.6956   -0.0006 C   0  0  0  0  0  0  0  0  0  0  0  0
    2.0661    1.1921    0.0007 H   0  0  0  0  0  0  0  0  0  0  0  0
  1  5  1  0
  5  8  1  0
  1  2  1  0
  1  3  1  0
  1  4  1  0
  5  6  1  0
  5  7  1  0
  8  9  1  0
  8 10  1  0
  8 11  1  0
 12 16  1  0
 16 17  2  0
 17 19  1  0
 19 21  2  0
 21 23  1  0
 23 25  2  0
 25 16  1  0
 12 13  1  0
 12 14  1  0
 12 15  1  0
 17 18  1  0
 19 20  1  0
 21 22  1  0
 23 24  1  0
 25 26  1  0
M  CHG  1   8   1
M  END
>  <PDB_ID>  (3078) 
pdb5h3e

>  <RESIDUE_NAME>  (3078) 
LYS   PHE

>  <FRAG_NAME>  (3078) 
ETAM   MBZ

>  <FRAG_ATOM_NUM>  (3078) 
fragi: 11  fragj: 15

>  <atom.prop.CHAIN_ID>  (3078) 
A A A A A A A A A A A Z Z Z Z Z Z Z Z Z Z Z Z Z Z Z

>  <atom.prop.IS_HEAVY_ATOM>  (3078) 
1 0 0 0 1 0 0 1 0 0 0 1 0 0 0 1 1 0 1 0 1 0 1 0 1 0

>  <DIFUSE_FUNC_ATOM>  (3078) 
n/a

>  <FINAL_SINGLE_POINT_ENERGY>  (3078) 
0

>  <NONCOV_INTER_ENERGY_QM>  (3078) 
0

>  <FF_Energy>  (3078) 
-3.77

>  <QM_Energy>  (3078) 
-10.7

>  <source>  (3078) 
ETAM_MBZ

>  <Index>  (3078) 
33505

$$$$
ETAM-pdb5gkd-C-LYS-476:MBZ-pdb5gkd-C-PHE-453
     RDKit          3D

 26 25  0  0  0  0  0  0  0  0999 V2000
    0.3517   -0.7035    3.7774 C   0  0  0  0  0  0  0  0  0  0  0  0
    0.2714   -0.4027    2.8215 H   0  0  0  0  0  0  0  0  0  0  0  0
    0.7157   -1.6403    3.7884 H   0  0  0  0  0  0  0  0  0  0  0  0
    1.0534   -0.0478    4.2929 H   0  0  0  0  0  0  0  0  0  0  0  0
   -1.0186   -0.7132    4.3950 C   0  0  0  0  0  0  0  0  0  0  0  0
   -0.9924   -1.2175    5.2592 H   0  0  0  0  0  0  0  0  0  0  0  0
   -1.3125    0.2279    4.5719 H   0  0  0  0  0  0  0  0  0  0  0  0
   -2.0124   -1.3652    3.4878 N   0  0  0  0  0  4  0  0  0  0  0  0
   -1.5317   -1.9654    2.8513 H   0  0  0  0  0  0  0  0  0  0  0  0
   -2.6552   -1.8989    4.0347 H   0  0  0  0  0  0  0  0  0  0  0  0
   -2.5055   -0.6606    2.9799 H   0  0  0  0  0  0  0  0  0  0  0  0
   -0.0078    2.8917    0.0071 C   0  0  0  0  0  0  0  0  0  0  0  0
    0.8390    3.1982    0.4212 H   0  0  0  0  0  0  0  0  0  0  0  0
   -0.7891    3.1872    0.5418 H   0  0  0  0  0  0  0  0  0  0  0  0
   -0.0839    3.3582   -0.9751 H   0  0  0  0  0  0  0  0  0  0  0  0
    0.0010    1.3904   -0.0136 C   0  0  0  0  0  0  0  0  0  0  0  0
   -1.1941    0.6757    0.0124 C   0  0  0  0  0  0  0  0  0  0  0  0
   -2.0604    1.1743    0.0397 H   0  0  0  0  0  0  0  0  0  0  0  0
   -1.1976   -0.6962   -0.0000 C   0  0  0  0  0  0  0  0  0  0  0  0
   -2.0730   -1.1978   -0.0056 H   0  0  0  0  0  0  0  0  0  0  0  0
   -0.0013   -1.3787   -0.0021 C   0  0  0  0  0  0  0  0  0  0  0  0
    0.0011   -2.3823   -0.0056 H   0  0  0  0  0  0  0  0  0  0  0  0
    1.1976   -0.6853   -0.0000 C   0  0  0  0  0  0  0  0  0  0  0  0
    2.0785   -1.1888    0.0007 H   0  0  0  0  0  0  0  0  0  0  0  0
    1.1944    0.6941    0.0033 C   0  0  0  0  0  0  0  0  0  0  0  0
    2.0608    1.1945    0.0167 H   0  0  0  0  0  0  0  0  0  0  0  0
  1  5  1  0
  5  8  1  0
  1  2  1  0
  1  3  1  0
  1  4  1  0
  5  6  1  0
  5  7  1  0
  8  9  1  0
  8 10  1  0
  8 11  1  0
 12 16  1  0
 16 17  2  0
 17 19  1  0
 19 21  2  0
 21 23  1  0
 23 25  2  0
 25 16  1  0
 12 13  1  0
 12 14  1  0
 12 15  1  0
 17 18  1  0
 19 20  1  0
 21 22  1  0
 23 24  1  0
 25 26  1  0
M  CHG  1   8   1
M  END
>  <PDB_ID>  (3079) 
pdb5gkd

>  <RESIDUE_NAME>  (3079) 
LYS   PHE

>  <FRAG_NAME>  (3079) 
ETAM   MBZ

>  <FRAG_ATOM_NUM>  (3079) 
fragi: 11  fragj: 15

>  <atom.prop.CHAIN_ID>  (3079) 
A A A A A A A A A A A Z Z Z Z Z Z Z Z Z Z Z Z Z Z Z

>  <atom.prop.IS_HEAVY_ATOM>  (3079) 
1 0 0 0 1 0 0 1 0 0 0 1 0 0 0 1 1 0 1 0 1 0 1 0 1 0

>  <DIFUSE_FUNC_ATOM>  (3079) 
n/a

>  <FINAL_SINGLE_POINT_ENERGY>  (3079) 
0

>  <NONCOV_INTER_ENERGY_QM>  (3079) 
0

>  <FF_Energy>  (3079) 
-4.75

>  <QM_Energy>  (3079) 
-10.18

>  <source>  (3079) 
ETAM_MBZ

>  <Index>  (3079) 
33513

$$$$
ETAM-pdb5h2a-A-LYS-208:MBZ-pdb5h2a-A-PHE-205
     RDKit          3D

 26 25  0  0  0  0  0  0  0  0999 V2000
   -2.4835    0.2724   -3.5637 C   0  0  0  0  0  0  0  0  0  0  0  0
   -1.6669    0.5746   -3.0885 H   0  0  0  0  0  0  0  0  0  0  0  0
   -3.1753   -0.0295   -2.9199 H   0  0  0  0  0  0  0  0  0  0  0  0
   -2.8807    1.1046   -4.1449 H   0  0  0  0  0  0  0  0  0  0  0  0
   -2.1091   -0.9130   -4.4639 C   0  0  0  0  0  0  0  0  0  0  0  0
   -2.9083   -1.1918   -4.9766 H   0  0  0  0  0  0  0  0  0  0  0  0
   -1.3742   -0.6386   -5.0675 H   0  0  0  0  0  0  0  0  0  0  0  0
   -1.6476   -2.0508   -3.6050 N   0  0  0  0  0  4  0  0  0  0  0  0
   -2.2050   -2.8551   -3.8011 H   0  0  0  0  0  0  0  0  0  0  0  0
   -0.6896   -2.2445   -3.8073 H   0  0  0  0  0  0  0  0  0  0  0  0
   -1.7465   -1.7964   -2.6452 H   0  0  0  0  0  0  0  0  0  0  0  0
    0.0054    2.9078   -0.0635 C   0  0  0  0  0  0  0  0  0  0  0  0
    0.8661    3.2298    0.2770 H   0  0  0  0  0  0  0  0  0  0  0  0
   -0.7572    3.2376    0.4572 H   0  0  0  0  0  0  0  0  0  0  0  0
   -0.1065    3.2656   -1.0870 H   0  0  0  0  0  0  0  0  0  0  0  0
    0.0065    1.4027    0.0089 C   0  0  0  0  0  0  0  0  0  0  0  0
   -1.1961    0.7006   -0.0150 C   0  0  0  0  0  0  0  0  0  0  0  0
   -2.0584    1.1944   -0.0443 H   0  0  0  0  0  0  0  0  0  0  0  0
   -1.2077   -0.6939    0.0000 C   0  0  0  0  0  0  0  0  0  0  0  0
   -2.0861   -1.1824    0.0051 H   0  0  0  0  0  0  0  0  0  0  0  0
   -0.0061   -1.4026    0.0105 C   0  0  0  0  0  0  0  0  0  0  0  0
   -0.0133   -2.3966    0.0252 H   0  0  0  0  0  0  0  0  0  0  0  0
    1.2077   -0.7045   -0.0000 C   0  0  0  0  0  0  0  0  0  0  0  0
    2.0824   -1.1980   -0.0034 H   0  0  0  0  0  0  0  0  0  0  0  0
    1.1957    0.6976   -0.0043 C   0  0  0  0  0  0  0  0  0  0  0  0
    2.0685    1.1887   -0.0185 H   0  0  0  0  0  0  0  0  0  0  0  0
  1  5  1  0
  5  8  1  0
  1  2  1  0
  1  3  1  0
  1  4  1  0
  5  6  1  0
  5  7  1  0
  8  9  1  0
  8 10  1  0
  8 11  1  0
 12 16  1  0
 16 17  2  0
 17 19  1  0
 19 21  2  0
 21 23  1  0
 23 25  2  0
 25 16  1  0
 12 13  1  0
 12 14  1  0
 12 15  1  0
 17 18  1  0
 19 20  1  0
 21 22  1  0
 23 24  1  0
 25 26  1  0
M  CHG  1   8   1
M  END
>  <PDB_ID>  (3080) 
pdb5h2a

>  <RESIDUE_NAME>  (3080) 
LYS   PHE

>  <FRAG_NAME>  (3080) 
ETAM   MBZ

>  <FRAG_ATOM_NUM>  (3080) 
fragi: 11  fragj: 15

>  <atom.prop.CHAIN_ID>  (3080) 
A A A A A A A A A A A Z Z Z Z Z Z Z Z Z Z Z Z Z Z Z

>  <atom.prop.IS_HEAVY_ATOM>  (3080) 
1 0 0 0 1 0 0 1 0 0 0 1 0 0 0 1 1 0 1 0 1 0 1 0 1 0

>  <DIFUSE_FUNC_ATOM>  (3080) 
n/a

>  <FINAL_SINGLE_POINT_ENERGY>  (3080) 
0

>  <NONCOV_INTER_ENERGY_QM>  (3080) 
0

>  <FF_Energy>  (3080) 
-3.91

>  <QM_Energy>  (3080) 
-8.94

>  <source>  (3080) 
ETAM_MBZ

>  <Index>  (3080) 
33527

$$$$
ETAM-pdb6hd8-B-LYS-110:MBZ-pdb6hd8-B-PHE-63
     RDKit          3D

 26 25  0  0  0  0  0  0  0  0999 V2000
   -3.3431   -2.8682    2.6411 C   0  0  0  0  0  0  0  0  0  0  0  0
   -2.7439   -2.2123    3.2681 H   0  0  0  0  0  0  0  0  0  0  0  0
   -3.9352   -3.5383    3.2630 H   0  0  0  0  0  0  0  0  0  0  0  0
   -4.0135   -2.2475    2.0466 H   0  0  0  0  0  0  0  0  0  0  0  0
   -2.4083   -3.7113    1.7979 C   0  0  0  0  0  0  0  0  0  0  0  0
   -2.8783   -4.6777    1.6271 H   0  0  0  0  0  0  0  0  0  0  0  0
   -2.2368   -3.2185    0.8431 H   0  0  0  0  0  0  0  0  0  0  0  0
   -1.0809   -3.9647    2.4193 N   0  0  0  0  0  4  0  0  0  0  0  0
   -0.4868   -4.4729    1.7710 H   0  0  0  0  0  0  0  0  0  0  0  0
   -0.6341   -3.0841    2.6557 H   0  0  0  0  0  0  0  0  0  0  0  0
   -1.1905   -4.5249    3.2576 H   0  0  0  0  0  0  0  0  0  0  0  0
    0.0049    2.9269   -0.0337 C   0  0  0  0  0  0  0  0  0  0  0  0
    0.6377    3.2278   -0.8678 H   0  0  0  0  0  0  0  0  0  0  0  0
    0.4536    3.2562    0.9028 H   0  0  0  0  0  0  0  0  0  0  0  0
   -0.9614    3.4195   -0.1416 H   0  0  0  0  0  0  0  0  0  0  0  0
    0.0018    1.4104   -0.0103 C   0  0  0  0  0  0  0  0  0  0  0  0
   -1.1962    0.6880   -0.0141 C   0  0  0  0  0  0  0  0  0  0  0  0
   -2.1682    1.1785   -0.0131 H   0  0  0  0  0  0  0  0  0  0  0  0
   -1.1908   -0.7023   -0.0000 C   0  0  0  0  0  0  0  0  0  0  0  0
   -2.1393   -1.2336    0.0067 H   0  0  0  0  0  0  0  0  0  0  0  0
   -0.0021   -1.3840    0.0627 C   0  0  0  0  0  0  0  0  0  0  0  0
   -0.0077   -2.4724    0.0452 H   0  0  0  0  0  0  0  0  0  0  0  0
    1.1908   -0.7072   -0.0000 C   0  0  0  0  0  0  0  0  0  0  0  0
    2.1298   -1.2591    0.0233 H   0  0  0  0  0  0  0  0  0  0  0  0
    1.1965    0.6951   -0.0383 C   0  0  0  0  0  0  0  0  0  0  0  0
    2.1440    1.2329   -0.0211 H   0  0  0  0  0  0  0  0  0  0  0  0
  1  5  1  0
  5  8  1  0
  1  2  1  0
  1  3  1  0
  1  4  1  0
  5  6  1  0
  5  7  1  0
  8  9  1  0
  8 10  1  0
  8 11  1  0
 12 16  1  0
 16 17  2  0
 17 19  1  0
 19 21  2  0
 21 23  1  0
 23 25  2  0
 25 16  1  0
 12 13  1  0
 12 14  1  0
 12 15  1  0
 17 18  1  0
 19 20  1  0
 21 22  1  0
 23 24  1  0
 25 26  1  0
M  CHG  1   8   1
M  END
>  <PDB_ID>  (3081) 
pdb6hd8

>  <RESIDUE_NAME>  (3081) 
LYS   PHE

>  <FRAG_NAME>  (3081) 
ETAM   MBZ

>  <FRAG_ATOM_NUM>  (3081) 
fragi: 11  fragj: 15

>  <atom.prop.CHAIN_ID>  (3081) 
A A A A A A A A A A A Z Z Z Z Z Z Z Z Z Z Z Z Z Z Z

>  <atom.prop.IS_HEAVY_ATOM>  (3081) 
1 0 0 0 1 0 0 1 0 0 0 1 0 0 0 1 1 0 1 0 1 0 1 0 1 0

>  <DIFUSE_FUNC_ATOM>  (3081) 
n/a

>  <FINAL_SINGLE_POINT_ENERGY>  (3081) 
0

>  <NONCOV_INTER_ENERGY_QM>  (3081) 
0

>  <FF_Energy>  (3081) 
-0.66

>  <QM_Energy>  (3081) 
-6.37

>  <source>  (3081) 
ETAM_MBZ

>  <Index>  (3081) 
33544

$$$$
ETAM-pdb5gkd-D-LYS-82:MBZ-pdb5gkd-D-PHE-60
     RDKit          3D

 26 25  0  0  0  0  0  0  0  0999 V2000
   -3.4631    0.8208    3.4291 C   0  0  0  0  0  0  0  0  0  0  0  0
   -3.9198    0.5290    4.2584 H   0  0  0  0  0  0  0  0  0  0  0  0
   -3.8317    0.3515    2.6383 H   0  0  0  0  0  0  0  0  0  0  0  0
   -3.6306    1.8905    3.3031 H   0  0  0  0  0  0  0  0  0  0  0  0
   -1.9732    0.4963    3.5462 C   0  0  0  0  0  0  0  0  0  0  0  0
   -1.4890    0.9191    2.7758 H   0  0  0  0  0  0  0  0  0  0  0  0
   -1.6249    0.8850    4.4026 H   0  0  0  0  0  0  0  0  0  0  0  0
   -1.7166   -0.9768    3.5369 N   0  0  0  0  0  4  0  0  0  0  0  0
   -2.0971   -1.3710    2.7014 H   0  0  0  0  0  0  0  0  0  0  0  0
   -0.7319   -1.1388    3.5685 H   0  0  0  0  0  0  0  0  0  0  0  0
   -2.1520   -1.3911    4.3345 H   0  0  0  0  0  0  0  0  0  0  0  0
   -0.0010    2.8818    0.0006 C   0  0  0  0  0  0  0  0  0  0  0  0
    0.8856    3.1924    0.3152 H   0  0  0  0  0  0  0  0  0  0  0  0
   -0.7200    3.1866    0.6099 H   0  0  0  0  0  0  0  0  0  0  0  0
   -0.1816    3.3364   -0.9735 H   0  0  0  0  0  0  0  0  0  0  0  0
    0.0024    1.3846   -0.0077 C   0  0  0  0  0  0  0  0  0  0  0  0
   -1.1817    0.6806    0.0037 C   0  0  0  0  0  0  0  0  0  0  0  0
   -2.0525    1.1808    0.0138 H   0  0  0  0  0  0  0  0  0  0  0  0
   -1.1910   -0.6849    0.0000 C   0  0  0  0  0  0  0  0  0  0  0  0
   -2.0742   -1.1818   -0.0015 H   0  0  0  0  0  0  0  0  0  0  0  0
   -0.0089   -1.3759   -0.0006 C   0  0  0  0  0  0  0  0  0  0  0  0
   -0.0108   -2.3791   -0.0017 H   0  0  0  0  0  0  0  0  0  0  0  0
    1.1910   -0.6880    0.0000 C   0  0  0  0  0  0  0  0  0  0  0  0
    2.0693   -1.1951   -0.0015 H   0  0  0  0  0  0  0  0  0  0  0  0
    1.1882    0.6836    0.0045 C   0  0  0  0  0  0  0  0  0  0  0  0
    2.0588    1.1840    0.0157 H   0  0  0  0  0  0  0  0  0  0  0  0
  1  5  1  0
  5  8  1  0
  1  2  1  0
  1  3  1  0
  1  4  1  0
  5  6  1  0
  5  7  1  0
  8  9  1  0
  8 10  1  0
  8 11  1  0
 12 16  1  0
 16 17  2  0
 17 19  1  0
 19 21  2  0
 21 23  1  0
 23 25  2  0
 25 16  1  0
 12 13  1  0
 12 14  1  0
 12 15  1  0
 17 18  1  0
 19 20  1  0
 21 22  1  0
 23 24  1  0
 25 26  1  0
M  CHG  1   8   1
M  END
>  <PDB_ID>  (3082) 
pdb5gkd

>  <RESIDUE_NAME>  (3082) 
LYS   PHE

>  <FRAG_NAME>  (3082) 
ETAM   MBZ

>  <FRAG_ATOM_NUM>  (3082) 
fragi: 11  fragj: 15

>  <atom.prop.CHAIN_ID>  (3082) 
A A A A A A A A A A A Z Z Z Z Z Z Z Z Z Z Z Z Z Z Z

>  <atom.prop.IS_HEAVY_ATOM>  (3082) 
1 0 0 0 1 0 0 1 0 0 0 1 0 0 0 1 1 0 1 0 1 0 1 0 1 0

>  <DIFUSE_FUNC_ATOM>  (3082) 
n/a

>  <FINAL_SINGLE_POINT_ENERGY>  (3082) 
0

>  <NONCOV_INTER_ENERGY_QM>  (3082) 
0

>  <FF_Energy>  (3082) 
-5.27

>  <QM_Energy>  (3082) 
-10.3

>  <source>  (3082) 
ETAM_MBZ

>  <Index>  (3082) 
33548

$$$$
ETAM-pdb6h7h-A-LYS-151:MBZ-pdb6h7h-A-PHE-181
     RDKit          3D

 26 25  0  0  0  0  0  0  0  0999 V2000
   -0.1896   -2.8699    5.1683 C   0  0  0  0  0  0  0  0  0  0  0  0
    0.2389   -3.4418    4.4773 H   0  0  0  0  0  0  0  0  0  0  0  0
   -1.1770   -2.9788    5.1484 H   0  0  0  0  0  0  0  0  0  0  0  0
    0.1801   -3.1642    6.1506 H   0  0  0  0  0  0  0  0  0  0  0  0
    0.1412   -1.4080    4.8575 C   0  0  0  0  0  0  0  0  0  0  0  0
   -0.2057   -0.8330    5.6059 H   0  0  0  0  0  0  0  0  0  0  0  0
    1.1401   -1.3060    4.8114 H   0  0  0  0  0  0  0  0  0  0  0  0
   -0.4571   -0.9435    3.5667 N   0  0  0  0  0  4  0  0  0  0  0  0
   -1.3690   -1.3372    3.4679 H   0  0  0  0  0  0  0  0  0  0  0  0
   -0.5180    0.0529    3.5736 H   0  0  0  0  0  0  0  0  0  0  0  0
    0.1231   -1.2411    2.8105 H   0  0  0  0  0  0  0  0  0  0  0  0
    0.0047    2.8976   -0.0142 C   0  0  0  0  0  0  0  0  0  0  0  0
    0.8306    3.2064    0.4294 H   0  0  0  0  0  0  0  0  0  0  0  0
   -0.8023    3.2101    0.4599 H   0  0  0  0  0  0  0  0  0  0  0  0
   -0.0127    3.3195   -1.0191 H   0  0  0  0  0  0  0  0  0  0  0  0
    0.0011    1.3955    0.0013 C   0  0  0  0  0  0  0  0  0  0  0  0
   -1.1850    0.6875   -0.0022 C   0  0  0  0  0  0  0  0  0  0  0  0
   -2.0560    1.1760   -0.0074 H   0  0  0  0  0  0  0  0  0  0  0  0
   -1.1871   -0.6958   -0.0000 C   0  0  0  0  0  0  0  0  0  0  0  0
   -2.0724   -1.1871    0.0014 H   0  0  0  0  0  0  0  0  0  0  0  0
   -0.0048   -1.3837    0.0029 C   0  0  0  0  0  0  0  0  0  0  0  0
   -0.0056   -2.3876    0.0067 H   0  0  0  0  0  0  0  0  0  0  0  0
    1.1871   -0.6945    0.0000 C   0  0  0  0  0  0  0  0  0  0  0  0
    2.0717   -1.1942    0.0005 H   0  0  0  0  0  0  0  0  0  0  0  0
    1.1887    0.6910   -0.0020 C   0  0  0  0  0  0  0  0  0  0  0  0
    2.0602    1.1837   -0.0072 H   0  0  0  0  0  0  0  0  0  0  0  0
  1  5  1  0
  5  8  1  0
  1  2  1  0
  1  3  1  0
  1  4  1  0
  5  6  1  0
  5  7  1  0
  8  9  1  0
  8 10  1  0
  8 11  1  0
 12 16  1  0
 16 17  2  0
 17 19  1  0
 19 21  2  0
 21 23  1  0
 23 25  2  0
 25 16  1  0
 12 13  1  0
 12 14  1  0
 12 15  1  0
 17 18  1  0
 19 20  1  0
 21 22  1  0
 23 24  1  0
 25 26  1  0
M  CHG  1   8   1
M  END
>  <PDB_ID>  (3083) 
pdb6h7h

>  <RESIDUE_NAME>  (3083) 
LYS   PHE

>  <FRAG_NAME>  (3083) 
ETAM   MBZ

>  <FRAG_ATOM_NUM>  (3083) 
fragi: 11  fragj: 15

>  <atom.prop.CHAIN_ID>  (3083) 
A A A A A A A A A A A Z Z Z Z Z Z Z Z Z Z Z Z Z Z Z

>  <atom.prop.IS_HEAVY_ATOM>  (3083) 
1 0 0 0 1 0 0 1 0 0 0 1 0 0 0 1 1 0 1 0 1 0 1 0 1 0

>  <DIFUSE_FUNC_ATOM>  (3083) 
n/a

>  <FINAL_SINGLE_POINT_ENERGY>  (3083) 
0

>  <NONCOV_INTER_ENERGY_QM>  (3083) 
0

>  <FF_Energy>  (3083) 
-6.37

>  <QM_Energy>  (3083) 
-12.01

>  <source>  (3083) 
ETAM_MBZ

>  <Index>  (3083) 
33563

$$$$
ETAM-pdb5h5z-B-LYS-59:MBZ-pdb5h5z-A-PHE-110
     RDKit          3D

 26 25  0  0  0  0  0  0  0  0999 V2000
    0.2799   -1.5324    5.9451 C   0  0  0  0  0  0  0  0  0  0  0  0
    0.0071   -2.1623    6.6620 H   0  0  0  0  0  0  0  0  0  0  0  0
    0.1438   -0.5926    6.2332 H   0  0  0  0  0  0  0  0  0  0  0  0
    1.3359   -1.6862    5.7227 H   0  0  0  0  0  0  0  0  0  0  0  0
   -0.5916   -1.7921    4.7143 C   0  0  0  0  0  0  0  0  0  0  0  0
   -0.3291   -2.6833    4.3156 H   0  0  0  0  0  0  0  0  0  0  0  0
   -1.5563   -1.8619    5.0109 H   0  0  0  0  0  0  0  0  0  0  0  0
   -0.4848   -0.7388    3.6574 N   0  0  0  0  0  4  0  0  0  0  0  0
   -0.7436    0.1434    4.0466 H   0  0  0  0  0  0  0  0  0  0  0  0
    0.4561   -0.6993    3.3279 H   0  0  0  0  0  0  0  0  0  0  0  0
   -1.0975   -0.9680    2.9028 H   0  0  0  0  0  0  0  0  0  0  0  0
   -0.0034    2.9020   -0.0079 C   0  0  0  0  0  0  0  0  0  0  0  0
    0.8676    3.2140    0.3372 H   0  0  0  0  0  0  0  0  0  0  0  0
   -0.7504    3.2114    0.5596 H   0  0  0  0  0  0  0  0  0  0  0  0
   -0.1404    3.3347   -0.9990 H   0  0  0  0  0  0  0  0  0  0  0  0
   -0.0004    1.4010   -0.0019 C   0  0  0  0  0  0  0  0  0  0  0  0
   -1.1999    0.6896    0.0020 C   0  0  0  0  0  0  0  0  0  0  0  0
   -2.0652    1.1823    0.0044 H   0  0  0  0  0  0  0  0  0  0  0  0
   -1.2034   -0.6976   -0.0000 C   0  0  0  0  0  0  0  0  0  0  0  0
   -2.0774   -1.1949   -0.0017 H   0  0  0  0  0  0  0  0  0  0  0  0
    0.0007   -1.3906    0.0022 C   0  0  0  0  0  0  0  0  0  0  0  0
   -0.0024   -2.3907    0.0053 H   0  0  0  0  0  0  0  0  0  0  0  0
    1.2034   -0.6952    0.0000 C   0  0  0  0  0  0  0  0  0  0  0  0
    2.0830   -1.1958    0.0012 H   0  0  0  0  0  0  0  0  0  0  0  0
    1.1996    0.6927   -0.0023 C   0  0  0  0  0  0  0  0  0  0  0  0
    2.0654    1.1917   -0.0054 H   0  0  0  0  0  0  0  0  0  0  0  0
  1  5  1  0
  5  8  1  0
  1  2  1  0
  1  3  1  0
  1  4  1  0
  5  6  1  0
  5  7  1  0
  8  9  1  0
  8 10  1  0
  8 11  1  0
 12 16  1  0
 16 17  2  0
 17 19  1  0
 19 21  2  0
 21 23  1  0
 23 25  2  0
 25 16  1  0
 12 13  1  0
 12 14  1  0
 12 15  1  0
 17 18  1  0
 19 20  1  0
 21 22  1  0
 23 24  1  0
 25 26  1  0
M  CHG  1   8   1
M  END
>  <PDB_ID>  (3084) 
pdb5h5z

>  <RESIDUE_NAME>  (3084) 
LYS   PHE

>  <FRAG_NAME>  (3084) 
ETAM   MBZ

>  <FRAG_ATOM_NUM>  (3084) 
fragi: 11  fragj: 15

>  <atom.prop.CHAIN_ID>  (3084) 
A A A A A A A A A A A Z Z Z Z Z Z Z Z Z Z Z Z Z Z Z

>  <atom.prop.IS_HEAVY_ATOM>  (3084) 
1 0 0 0 1 0 0 1 0 0 0 1 0 0 0 1 1 0 1 0 1 0 1 0 1 0

>  <DIFUSE_FUNC_ATOM>  (3084) 
n/a

>  <FINAL_SINGLE_POINT_ENERGY>  (3084) 
0

>  <NONCOV_INTER_ENERGY_QM>  (3084) 
0

>  <FF_Energy>  (3084) 
-6.24

>  <QM_Energy>  (3084) 
-11.72

>  <source>  (3084) 
ETAM_MBZ

>  <Index>  (3084) 
33570

$$$$
ETAM-pdb5h5z-B-LYS-75:MBZ-pdb5h5z-A-PHE-275
     RDKit          3D

 26 25  0  0  0  0  0  0  0  0999 V2000
   -3.2888   -1.0115   -2.7725 C   0  0  0  0  0  0  0  0  0  0  0  0
   -2.7038   -1.6986   -2.3554 H   0  0  0  0  0  0  0  0  0  0  0  0
   -3.6717   -1.3520   -3.6244 H   0  0  0  0  0  0  0  0  0  0  0  0
   -4.1041   -0.7805   -2.0870 H   0  0  0  0  0  0  0  0  0  0  0  0
   -2.4508    0.2221   -3.0745 C   0  0  0  0  0  0  0  0  0  0  0  0
   -2.9360    0.7875   -3.7510 H   0  0  0  0  0  0  0  0  0  0  0  0
   -2.3455    0.7598   -2.2298 H   0  0  0  0  0  0  0  0  0  0  0  0
   -1.0977   -0.1169   -3.6053 N   0  0  0  0  0  4  0  0  0  0  0  0
   -0.4140    0.0548   -2.8982 H   0  0  0  0  0  0  0  0  0  0  0  0
   -1.0782   -1.0809   -3.8655 H   0  0  0  0  0  0  0  0  0  0  0  0
   -0.9057    0.4506   -4.4042 H   0  0  0  0  0  0  0  0  0  0  0  0
    0.0145    2.9060    0.0014 C   0  0  0  0  0  0  0  0  0  0  0  0
   -0.2068    3.2183   -0.9107 H   0  0  0  0  0  0  0  0  0  0  0  0
    0.9158    3.2058    0.2752 H   0  0  0  0  0  0  0  0  0  0  0  0
   -0.7036    3.3571    0.6862 H   0  0  0  0  0  0  0  0  0  0  0  0
    0.0011    1.4027   -0.0011 C   0  0  0  0  0  0  0  0  0  0  0  0
   -1.1991    0.6929   -0.0000 C   0  0  0  0  0  0  0  0  0  0  0  0
   -2.0644    1.1838   -0.0006 H   0  0  0  0  0  0  0  0  0  0  0  0
   -1.2009   -0.6965    0.0000 C   0  0  0  0  0  0  0  0  0  0  0  0
   -2.0784   -1.1917    0.0019 H   0  0  0  0  0  0  0  0  0  0  0  0
   -0.0014   -1.3918   -0.0009 C   0  0  0  0  0  0  0  0  0  0  0  0
   -0.0045   -2.3915   -0.0025 H   0  0  0  0  0  0  0  0  0  0  0  0
    1.2009   -0.6973   -0.0000 C   0  0  0  0  0  0  0  0  0  0  0  0
    2.0810   -1.1981    0.0008 H   0  0  0  0  0  0  0  0  0  0  0  0
    1.1993    0.6901    0.0020 C   0  0  0  0  0  0  0  0  0  0  0  0
    2.0668    1.1871    0.0048 H   0  0  0  0  0  0  0  0  0  0  0  0
  1  5  1  0
  5  8  1  0
  1  2  1  0
  1  3  1  0
  1  4  1  0
  5  6  1  0
  5  7  1  0
  8  9  1  0
  8 10  1  0
  8 11  1  0
 12 16  1  0
 16 17  2  0
 17 19  1  0
 19 21  2  0
 21 23  1  0
 23 25  2  0
 25 16  1  0
 12 13  1  0
 12 14  1  0
 12 15  1  0
 17 18  1  0
 19 20  1  0
 21 22  1  0
 23 24  1  0
 25 26  1  0
M  CHG  1   8   1
M  END
>  <PDB_ID>  (3085) 
pdb5h5z

>  <RESIDUE_NAME>  (3085) 
LYS   PHE

>  <FRAG_NAME>  (3085) 
ETAM   MBZ

>  <FRAG_ATOM_NUM>  (3085) 
fragi: 11  fragj: 15

>  <atom.prop.CHAIN_ID>  (3085) 
A A A A A A A A A A A Z Z Z Z Z Z Z Z Z Z Z Z Z Z Z

>  <atom.prop.IS_HEAVY_ATOM>  (3085) 
1 0 0 0 1 0 0 1 0 0 0 1 0 0 0 1 1 0 1 0 1 0 1 0 1 0

>  <DIFUSE_FUNC_ATOM>  (3085) 
n/a

>  <FINAL_SINGLE_POINT_ENERGY>  (3085) 
0

>  <NONCOV_INTER_ENERGY_QM>  (3085) 
0

>  <FF_Energy>  (3085) 
-5.76

>  <QM_Energy>  (3085) 
-11.73

>  <source>  (3085) 
ETAM_MBZ

>  <Index>  (3085) 
33571

$$$$
ETAM-pdb5h68-A-LYS-1107:MBZ-pdb5h68-A-PHE-1138
     RDKit          3D

 26 25  0  0  0  0  0  0  0  0999 V2000
    2.2106   -3.6660   -2.7588 C   0  0  0  0  0  0  0  0  0  0  0  0
    3.1129   -3.9552   -3.0654 H   0  0  0  0  0  0  0  0  0  0  0  0
    1.5044   -4.1760   -3.2406 H   0  0  0  0  0  0  0  0  0  0  0  0
    2.1217   -3.8656   -1.6909 H   0  0  0  0  0  0  0  0  0  0  0  0
    2.0421   -2.1892   -3.0698 C   0  0  0  0  0  0  0  0  0  0  0  0
    2.1669   -2.0485   -4.0545 H   0  0  0  0  0  0  0  0  0  0  0  0
    1.1142   -1.9071   -2.8140 H   0  0  0  0  0  0  0  0  0  0  0  0
    3.0273   -1.3653   -2.3284 N   0  0  0  0  0  4  0  0  0  0  0  0
    3.5761   -1.9548   -1.7344 H   0  0  0  0  0  0  0  0  0  0  0  0
    3.6275   -0.8962   -2.9777 H   0  0  0  0  0  0  0  0  0  0  0  0
    2.5452   -0.6875   -1.7725 H   0  0  0  0  0  0  0  0  0  0  0  0
    0.0055    2.8744   -0.0180 C   0  0  0  0  0  0  0  0  0  0  0  0
    0.8958    3.1910    0.2711 H   0  0  0  0  0  0  0  0  0  0  0  0
   -0.7061    3.1977    0.5872 H   0  0  0  0  0  0  0  0  0  0  0  0
   -0.1877    3.2914   -1.0063 H   0  0  0  0  0  0  0  0  0  0  0  0
    0.0029    1.3885    0.0037 C   0  0  0  0  0  0  0  0  0  0  0  0
   -1.1877    0.6875   -0.0024 C   0  0  0  0  0  0  0  0  0  0  0  0
   -2.0553    1.1792   -0.0102 H   0  0  0  0  0  0  0  0  0  0  0  0
   -1.1938   -0.6959   -0.0000 C   0  0  0  0  0  0  0  0  0  0  0  0
   -2.0749   -1.1877   -0.0004 H   0  0  0  0  0  0  0  0  0  0  0  0
   -0.0058   -1.3812    0.0048 C   0  0  0  0  0  0  0  0  0  0  0  0
   -0.0028   -2.3850    0.0111 H   0  0  0  0  0  0  0  0  0  0  0  0
    1.1938   -0.6878    0.0000 C   0  0  0  0  0  0  0  0  0  0  0  0
    2.0746   -1.1920    0.0024 H   0  0  0  0  0  0  0  0  0  0  0  0
    1.1905    0.6890   -0.0061 C   0  0  0  0  0  0  0  0  0  0  0  0
    2.0606    1.1886   -0.0183 H   0  0  0  0  0  0  0  0  0  0  0  0
  1  5  1  0
  5  8  1  0
  1  2  1  0
  1  3  1  0
  1  4  1  0
  5  6  1  0
  5  7  1  0
  8  9  1  0
  8 10  1  0
  8 11  1  0
 12 16  1  0
 16 17  2  0
 17 19  1  0
 19 21  2  0
 21 23  1  0
 23 25  2  0
 25 16  1  0
 12 13  1  0
 12 14  1  0
 12 15  1  0
 17 18  1  0
 19 20  1  0
 21 22  1  0
 23 24  1  0
 25 26  1  0
M  CHG  1   8   1
M  END
>  <PDB_ID>  (3086) 
pdb5h68

>  <RESIDUE_NAME>  (3086) 
LYS   PHE

>  <FRAG_NAME>  (3086) 
ETAM   MBZ

>  <FRAG_ATOM_NUM>  (3086) 
fragi: 11  fragj: 15

>  <atom.prop.CHAIN_ID>  (3086) 
A A A A A A A A A A A Z Z Z Z Z Z Z Z Z Z Z Z Z Z Z

>  <atom.prop.IS_HEAVY_ATOM>  (3086) 
1 0 0 0 1 0 0 1 0 0 0 1 0 0 0 1 1 0 1 0 1 0 1 0 1 0

>  <DIFUSE_FUNC_ATOM>  (3086) 
n/a

>  <FINAL_SINGLE_POINT_ENERGY>  (3086) 
0

>  <NONCOV_INTER_ENERGY_QM>  (3086) 
0

>  <FF_Energy>  (3086) 
-0.9

>  <QM_Energy>  (3086) 
-9.08

>  <source>  (3086) 
ETAM_MBZ

>  <Index>  (3086) 
33585

$$$$
ETAM-pdb6hit-A-LYS-17:MBZ-pdb6hit-A-PHE-14
     RDKit          3D

 26 25  0  0  0  0  0  0  0  0999 V2000
   -0.4870   -0.4401    4.4121 C   0  0  0  0  0  0  0  0  0  0  0  0
   -0.1217   -0.2374    3.5008 H   0  0  0  0  0  0  0  0  0  0  0  0
   -0.1952   -1.3599    4.6853 H   0  0  0  0  0  0  0  0  0  0  0  0
   -0.0806    0.2818    5.1206 H   0  0  0  0  0  0  0  0  0  0  0  0
   -1.9942   -0.4119    4.3453 C   0  0  0  0  0  0  0  0  0  0  0  0
   -2.3676   -0.6194    5.2514 H   0  0  0  0  0  0  0  0  0  0  0  0
   -2.2955    0.5015    4.0666 H   0  0  0  0  0  0  0  0  0  0  0  0
   -2.4999   -1.4097    3.3700 N   0  0  0  0  0  4  0  0  0  0  0  0
   -3.3426   -1.0706    2.9519 H   0  0  0  0  0  0  0  0  0  0  0  0
   -1.8114   -1.5596    2.6596 H   0  0  0  0  0  0  0  0  0  0  0  0
   -2.6859   -2.2725    3.8405 H   0  0  0  0  0  0  0  0  0  0  0  0
   -0.0024    2.8544    0.0759 C   0  0  0  0  0  0  0  0  0  0  0  0
   -0.8157    3.1996   -0.3641 H   0  0  0  0  0  0  0  0  0  0  0  0
    0.8173    3.2044   -0.3469 H   0  0  0  0  0  0  0  0  0  0  0  0
   -0.0140    3.2101    1.1062 H   0  0  0  0  0  0  0  0  0  0  0  0
    0.0031    1.3908   -0.0082 C   0  0  0  0  0  0  0  0  0  0  0  0
   -1.1901    0.6873    0.0084 C   0  0  0  0  0  0  0  0  0  0  0  0
   -2.0572    1.1790    0.0253 H   0  0  0  0  0  0  0  0  0  0  0  0
   -1.1953   -0.6978   -0.0000 C   0  0  0  0  0  0  0  0  0  0  0  0
   -2.0764   -1.1894    0.0001 H   0  0  0  0  0  0  0  0  0  0  0  0
   -0.0052   -1.3887   -0.0071 C   0  0  0  0  0  0  0  0  0  0  0  0
   -0.0033   -2.3890   -0.0176 H   0  0  0  0  0  0  0  0  0  0  0  0
    1.1953   -0.6912    0.0000 C   0  0  0  0  0  0  0  0  0  0  0  0
    2.0775   -1.1893    0.0012 H   0  0  0  0  0  0  0  0  0  0  0  0
    1.1922    0.6996    0.0070 C   0  0  0  0  0  0  0  0  0  0  0  0
    2.0609    1.1927    0.0223 H   0  0  0  0  0  0  0  0  0  0  0  0
  1  5  1  0
  5  8  1  0
  1  2  1  0
  1  3  1  0
  1  4  1  0
  5  6  1  0
  5  7  1  0
  8  9  1  0
  8 10  1  0
  8 11  1  0
 12 16  1  0
 16 17  2  0
 17 19  1  0
 19 21  2  0
 21 23  1  0
 23 25  2  0
 25 16  1  0
 12 13  1  0
 12 14  1  0
 12 15  1  0
 17 18  1  0
 19 20  1  0
 21 22  1  0
 23 24  1  0
 25 26  1  0
M  CHG  1   8   1
M  END
>  <PDB_ID>  (3087) 
pdb6hit

>  <RESIDUE_NAME>  (3087) 
LYS   PHE

>  <FRAG_NAME>  (3087) 
ETAM   MBZ

>  <FRAG_ATOM_NUM>  (3087) 
fragi: 11  fragj: 15

>  <atom.prop.CHAIN_ID>  (3087) 
A A A A A A A A A A A Z Z Z Z Z Z Z Z Z Z Z Z Z Z Z

>  <atom.prop.IS_HEAVY_ATOM>  (3087) 
1 0 0 0 1 0 0 1 0 0 0 1 0 0 0 1 1 0 1 0 1 0 1 0 1 0

>  <DIFUSE_FUNC_ATOM>  (3087) 
n/a

>  <FINAL_SINGLE_POINT_ENERGY>  (3087) 
0

>  <NONCOV_INTER_ENERGY_QM>  (3087) 
0

>  <FF_Energy>  (3087) 
-3.73

>  <QM_Energy>  (3087) 
-9.08

>  <source>  (3087) 
ETAM_MBZ

>  <Index>  (3087) 
33597

$$$$
ETAM-pdb5ha6-A-LYS-349:MBZ-pdb5ha6-A-PHE-346
     RDKit          3D

 26 25  0  0  0  0  0  0  0  0999 V2000
   -4.8671    1.3763   -0.3896 C   0  0  0  0  0  0  0  0  0  0  0  0
   -3.8952    1.4541   -0.1569 H   0  0  0  0  0  0  0  0  0  0  0  0
   -5.3639    1.0023    0.3955 H   0  0  0  0  0  0  0  0  0  0  0  0
   -5.2558    2.3704   -0.6103 H   0  0  0  0  0  0  0  0  0  0  0  0
   -5.0112    0.4199   -1.5505 C   0  0  0  0  0  0  0  0  0  0  0  0
   -5.9796    0.3315   -1.7860 H   0  0  0  0  0  0  0  0  0  0  0  0
   -4.5117    0.7827   -2.3385 H   0  0  0  0  0  0  0  0  0  0  0  0
   -4.4690   -0.9171   -1.2031 N   0  0  0  0  0  4  0  0  0  0  0  0
   -3.4692   -0.8809   -1.1947 H   0  0  0  0  0  0  0  0  0  0  0  0
   -4.8004   -1.1877   -0.2988 H   0  0  0  0  0  0  0  0  0  0  0  0
   -4.7721   -1.5867   -1.8822 H   0  0  0  0  0  0  0  0  0  0  0  0
    0.0023    2.9294   -0.0170 C   0  0  0  0  0  0  0  0  0  0  0  0
    0.7891    3.2235   -0.5026 H   0  0  0  0  0  0  0  0  0  0  0  0
    0.0466    3.2379    0.9020 H   0  0  0  0  0  0  0  0  0  0  0  0
   -0.8828    3.3547   -0.4901 H   0  0  0  0  0  0  0  0  0  0  0  0
    0.0028    1.4060   -0.0011 C   0  0  0  0  0  0  0  0  0  0  0  0
   -1.2020    0.6840   -0.0017 C   0  0  0  0  0  0  0  0  0  0  0  0
   -2.0110    1.1433   -0.0060 H   0  0  0  0  0  0  0  0  0  0  0  0
   -1.2036   -0.7050   -0.0000 C   0  0  0  0  0  0  0  0  0  0  0  0
   -2.0078   -1.1719    0.0016 H   0  0  0  0  0  0  0  0  0  0  0  0
    0.0029   -1.3930    0.0013 C   0  0  0  0  0  0  0  0  0  0  0  0
    0.0071   -2.3228    0.0063 H   0  0  0  0  0  0  0  0  0  0  0  0
    1.2036   -0.6913    0.0000 C   0  0  0  0  0  0  0  0  0  0  0  0
    2.0118   -1.1513    0.0042 H   0  0  0  0  0  0  0  0  0  0  0  0
    1.1963    0.6993    0.0015 C   0  0  0  0  0  0  0  0  0  0  0  0
    2.0029    1.1625   -0.0028 H   0  0  0  0  0  0  0  0  0  0  0  0
  1  5  1  0
  5  8  1  0
  1  2  1  0
  1  3  1  0
  1  4  1  0
  5  6  1  0
  5  7  1  0
  8  9  1  0
  8 10  1  0
  8 11  1  0
 12 16  1  0
 16 17  2  0
 17 19  1  0
 19 21  2  0
 21 23  1  0
 23 25  2  0
 25 16  1  0
 12 13  1  0
 12 14  1  0
 12 15  1  0
 17 18  1  0
 19 20  1  0
 21 22  1  0
 23 24  1  0
 25 26  1  0
M  CHG  1   8   1
M  END
>  <PDB_ID>  (3088) 
pdb5ha6

>  <RESIDUE_NAME>  (3088) 
LYS   PHE

>  <FRAG_NAME>  (3088) 
ETAM   MBZ

>  <FRAG_ATOM_NUM>  (3088) 
fragi: 11  fragj: 15

>  <atom.prop.CHAIN_ID>  (3088) 
A A A A A A A A A A A Z Z Z Z Z Z Z Z Z Z Z Z Z Z Z

>  <atom.prop.IS_HEAVY_ATOM>  (3088) 
1 0 0 0 1 0 0 1 0 0 0 1 0 0 0 1 1 0 1 0 1 0 1 0 1 0

>  <DIFUSE_FUNC_ATOM>  (3088) 
n/a

>  <FINAL_SINGLE_POINT_ENERGY>  (3088) 
0

>  <NONCOV_INTER_ENERGY_QM>  (3088) 
0

>  <FF_Energy>  (3088) 
1.67

>  <QM_Energy>  (3088) 
-4.23

>  <source>  (3088) 
ETAM_MBZ

>  <Index>  (3088) 
33656

$$$$
ETAM-pdb6hol-B-LYS-66:MBZ-pdb6hol-B-PHE-62
     RDKit          3D

 26 25  0  0  0  0  0  0  0  0999 V2000
   -0.8480   -1.2049    3.8737 C   0  0  0  0  0  0  0  0  0  0  0  0
   -0.9204   -0.6274    3.0706 H   0  0  0  0  0  0  0  0  0  0  0  0
    0.0975   -1.2941    4.1601 H   0  0  0  0  0  0  0  0  0  0  0  0
   -1.4180   -0.7499    4.6836 H   0  0  0  0  0  0  0  0  0  0  0  0
   -1.3879   -2.5884    3.5318 C   0  0  0  0  0  0  0  0  0  0  0  0
   -1.5332   -3.1022    4.3778 H   0  0  0  0  0  0  0  0  0  0  0  0
   -2.2590   -2.4906    3.0486 H   0  0  0  0  0  0  0  0  0  0  0  0
   -0.4316   -3.3560    2.6568 N   0  0  0  0  0  4  0  0  0  0  0  0
   -0.2843   -2.8451    1.8137 H   0  0  0  0  0  0  0  0  0  0  0  0
    0.4308   -3.4689    3.1432 H   0  0  0  0  0  0  0  0  0  0  0  0
   -0.8271   -4.2472    2.4510 H   0  0  0  0  0  0  0  0  0  0  0  0
    0.0108    2.9140   -0.0806 C   0  0  0  0  0  0  0  0  0  0  0  0
   -0.5597    3.1911   -0.8465 H   0  0  0  0  0  0  0  0  0  0  0  0
    0.9516    3.1990   -0.2287 H   0  0  0  0  0  0  0  0  0  0  0  0
   -0.3555    3.4267    0.8088 H   0  0  0  0  0  0  0  0  0  0  0  0
   -0.0035    1.3925   -0.0253 C   0  0  0  0  0  0  0  0  0  0  0  0
   -1.1836    0.6957   -0.0109 C   0  0  0  0  0  0  0  0  0  0  0  0
   -2.0567    1.1779   -0.0096 H   0  0  0  0  0  0  0  0  0  0  0  0
   -1.1844   -0.6940    0.0000 C   0  0  0  0  0  0  0  0  0  0  0  0
   -2.0631   -1.1871   -0.0058 H   0  0  0  0  0  0  0  0  0  0  0  0
    0.0104   -1.3798    0.0202 C   0  0  0  0  0  0  0  0  0  0  0  0
   -0.0007   -2.3857    0.0494 H   0  0  0  0  0  0  0  0  0  0  0  0
    1.1844   -0.6980   -0.0000 C   0  0  0  0  0  0  0  0  0  0  0  0
    2.0759   -1.1881   -0.0249 H   0  0  0  0  0  0  0  0  0  0  0  0
    1.1766    0.6836    0.0160 C   0  0  0  0  0  0  0  0  0  0  0  0
    2.0514    1.1798    0.0578 H   0  0  0  0  0  0  0  0  0  0  0  0
  1  5  1  0
  5  8  1  0
  1  2  1  0
  1  3  1  0
  1  4  1  0
  5  6  1  0
  5  7  1  0
  8  9  1  0
  8 10  1  0
  8 11  1  0
 12 16  1  0
 16 17  2  0
 17 19  1  0
 19 21  2  0
 21 23  1  0
 23 25  2  0
 25 16  1  0
 12 13  1  0
 12 14  1  0
 12 15  1  0
 17 18  1  0
 19 20  1  0
 21 22  1  0
 23 24  1  0
 25 26  1  0
M  CHG  1   8   1
M  END
>  <PDB_ID>  (3089) 
pdb6hol

>  <RESIDUE_NAME>  (3089) 
LYS   PHE

>  <FRAG_NAME>  (3089) 
ETAM   MBZ

>  <FRAG_ATOM_NUM>  (3089) 
fragi: 11  fragj: 15

>  <atom.prop.CHAIN_ID>  (3089) 
A A A A A A A A A A A Z Z Z Z Z Z Z Z Z Z Z Z Z Z Z

>  <atom.prop.IS_HEAVY_ATOM>  (3089) 
1 0 0 0 1 0 0 1 0 0 0 1 0 0 0 1 1 0 1 0 1 0 1 0 1 0

>  <DIFUSE_FUNC_ATOM>  (3089) 
n/a

>  <FINAL_SINGLE_POINT_ENERGY>  (3089) 
0

>  <NONCOV_INTER_ENERGY_QM>  (3089) 
0

>  <FF_Energy>  (3089) 
-2.44

>  <QM_Energy>  (3089) 
-9.59

>  <source>  (3089) 
ETAM_MBZ

>  <Index>  (3089) 
33660

$$$$
ETAM-pdb6hq9-A-LYS-74:MBZ-pdb6hq9-A-PHE-62
     RDKit          3D

 26 25  0  0  0  0  0  0  0  0999 V2000
   -1.4878    0.1359   -3.9125 C   0  0  0  0  0  0  0  0  0  0  0  0
   -1.9707   -0.7119   -3.7073 H   0  0  0  0  0  0  0  0  0  0  0  0
   -1.4658    0.2851   -4.8977 H   0  0  0  0  0  0  0  0  0  0  0  0
   -2.0192    0.9637   -3.4430 H   0  0  0  0  0  0  0  0  0  0  0  0
   -0.0595    0.0158   -3.4080 C   0  0  0  0  0  0  0  0  0  0  0  0
    0.4203    0.8784   -3.5782 H   0  0  0  0  0  0  0  0  0  0  0  0
   -0.0754   -0.1634   -2.4230 H   0  0  0  0  0  0  0  0  0  0  0  0
    0.6671   -1.0905   -4.0940 N   0  0  0  0  0  4  0  0  0  0  0  0
    0.3539   -1.9667   -3.7302 H   0  0  0  0  0  0  0  0  0  0  0  0
    0.4819   -1.0490   -5.0749 H   0  0  0  0  0  0  0  0  0  0  0  0
    1.6480   -0.9914   -3.9329 H   0  0  0  0  0  0  0  0  0  0  0  0
   -0.0008    2.9011   -0.0167 C   0  0  0  0  0  0  0  0  0  0  0  0
   -0.8230    3.2021   -0.4792 H   0  0  0  0  0  0  0  0  0  0  0  0
    0.8096    3.2027   -0.4978 H   0  0  0  0  0  0  0  0  0  0  0  0
    0.0104    3.3623    0.9709 H   0  0  0  0  0  0  0  0  0  0  0  0
   -0.0001    1.3983    0.0034 C   0  0  0  0  0  0  0  0  0  0  0  0
   -1.1921    0.6895   -0.0025 C   0  0  0  0  0  0  0  0  0  0  0  0
   -2.0609    1.1787   -0.0095 H   0  0  0  0  0  0  0  0  0  0  0  0
   -1.1954   -0.6975   -0.0000 C   0  0  0  0  0  0  0  0  0  0  0  0
   -2.0741   -1.1913    0.0010 H   0  0  0  0  0  0  0  0  0  0  0  0
    0.0003   -1.3882    0.0021 C   0  0  0  0  0  0  0  0  0  0  0  0
   -0.0016   -2.3891    0.0047 H   0  0  0  0  0  0  0  0  0  0  0  0
    1.1954   -0.6943    0.0000 C   0  0  0  0  0  0  0  0  0  0  0  0
    2.0796   -1.1923    0.0025 H   0  0  0  0  0  0  0  0  0  0  0  0
    1.1918    0.6923   -0.0030 C   0  0  0  0  0  0  0  0  0  0  0  0
    2.0613    1.1888   -0.0108 H   0  0  0  0  0  0  0  0  0  0  0  0
  1  5  1  0
  5  8  1  0
  1  2  1  0
  1  3  1  0
  1  4  1  0
  5  6  1  0
  5  7  1  0
  8  9  1  0
  8 10  1  0
  8 11  1  0
 12 16  1  0
 16 17  2  0
 17 19  1  0
 19 21  2  0
 21 23  1  0
 23 25  2  0
 25 16  1  0
 12 13  1  0
 12 14  1  0
 12 15  1  0
 17 18  1  0
 19 20  1  0
 21 22  1  0
 23 24  1  0
 25 26  1  0
M  CHG  1   8   1
M  END
>  <PDB_ID>  (3090) 
pdb6hq9

>  <RESIDUE_NAME>  (3090) 
LYS   PHE

>  <FRAG_NAME>  (3090) 
ETAM   MBZ

>  <FRAG_ATOM_NUM>  (3090) 
fragi: 11  fragj: 15

>  <atom.prop.CHAIN_ID>  (3090) 
A A A A A A A A A A A Z Z Z Z Z Z Z Z Z Z Z Z Z Z Z

>  <atom.prop.IS_HEAVY_ATOM>  (3090) 
1 0 0 0 1 0 0 1 0 0 0 1 0 0 0 1 1 0 1 0 1 0 1 0 1 0

>  <DIFUSE_FUNC_ATOM>  (3090) 
n/a

>  <FINAL_SINGLE_POINT_ENERGY>  (3090) 
0

>  <NONCOV_INTER_ENERGY_QM>  (3090) 
0

>  <FF_Energy>  (3090) 
-5.38

>  <QM_Energy>  (3090) 
-10.94

>  <source>  (3090) 
ETAM_MBZ

>  <Index>  (3090) 
33684

$$$$
ETAM-pdb6hqh-A-LYS-206:MBZ-pdb6hqh-A-PHE-202
     RDKit          3D

 26 25  0  0  0  0  0  0  0  0999 V2000
    1.9294   -2.8045    4.2736 C   0  0  0  0  0  0  0  0  0  0  0  0
    2.2351   -1.9938    3.7721 H   0  0  0  0  0  0  0  0  0  0  0  0
    2.5904   -3.0179    4.9935 H   0  0  0  0  0  0  0  0  0  0  0  0
    0.9644   -2.5904    4.7330 H   0  0  0  0  0  0  0  0  0  0  0  0
    1.8596   -3.9660    3.3204 C   0  0  0  0  0  0  0  0  0  0  0  0
    2.6435   -4.5717    3.4781 H   0  0  0  0  0  0  0  0  0  0  0  0
    1.0129   -4.4793    3.4832 H   0  0  0  0  0  0  0  0  0  0  0  0
    1.8811   -3.5039    1.9086 N   0  0  0  0  0  4  0  0  0  0  0  0
    1.3708   -2.6472    1.8310 H   0  0  0  0  0  0  0  0  0  0  0  0
    2.8269   -3.3569    1.6210 H   0  0  0  0  0  0  0  0  0  0  0  0
    1.4592   -4.1979    1.3248 H   0  0  0  0  0  0  0  0  0  0  0  0
   -0.0012    2.9270    0.0008 C   0  0  0  0  0  0  0  0  0  0  0  0
   -0.6998    3.2297   -0.6237 H   0  0  0  0  0  0  0  0  0  0  0  0
    0.8954    3.2311   -0.2731 H   0  0  0  0  0  0  0  0  0  0  0  0
   -0.2162    3.3612    0.9771 H   0  0  0  0  0  0  0  0  0  0  0  0
   -0.0002    1.4112   -0.0007 C   0  0  0  0  0  0  0  0  0  0  0  0
   -1.1960    0.6961   -0.0044 C   0  0  0  0  0  0  0  0  0  0  0  0
   -2.0648    1.1791   -0.0118 H   0  0  0  0  0  0  0  0  0  0  0  0
   -1.1964   -0.7055   -0.0000 C   0  0  0  0  0  0  0  0  0  0  0  0
   -2.0765   -1.1939   -0.0059 H   0  0  0  0  0  0  0  0  0  0  0  0
   -0.0008   -1.3950    0.0137 C   0  0  0  0  0  0  0  0  0  0  0  0
   -0.0046   -2.3979    0.0331 H   0  0  0  0  0  0  0  0  0  0  0  0
    1.1964   -0.7063   -0.0000 C   0  0  0  0  0  0  0  0  0  0  0  0
    2.0797   -1.1974   -0.0026 H   0  0  0  0  0  0  0  0  0  0  0  0
    1.1969    0.6996   -0.0086 C   0  0  0  0  0  0  0  0  0  0  0  0
    2.0663    1.1867   -0.0210 H   0  0  0  0  0  0  0  0  0  0  0  0
  1  5  1  0
  5  8  1  0
  1  2  1  0
  1  3  1  0
  1  4  1  0
  5  6  1  0
  5  7  1  0
  8  9  1  0
  8 10  1  0
  8 11  1  0
 12 16  1  0
 16 17  2  0
 17 19  1  0
 19 21  2  0
 21 23  1  0
 23 25  2  0
 25 16  1  0
 12 13  1  0
 12 14  1  0
 12 15  1  0
 17 18  1  0
 19 20  1  0
 21 22  1  0
 23 24  1  0
 25 26  1  0
M  CHG  1   8   1
M  END
>  <PDB_ID>  (3091) 
pdb6hqh

>  <RESIDUE_NAME>  (3091) 
LYS   PHE

>  <FRAG_NAME>  (3091) 
ETAM   MBZ

>  <FRAG_ATOM_NUM>  (3091) 
fragi: 11  fragj: 15

>  <atom.prop.CHAIN_ID>  (3091) 
A A A A A A A A A A A Z Z Z Z Z Z Z Z Z Z Z Z Z Z Z

>  <atom.prop.IS_HEAVY_ATOM>  (3091) 
1 0 0 0 1 0 0 1 0 0 0 1 0 0 0 1 1 0 1 0 1 0 1 0 1 0

>  <DIFUSE_FUNC_ATOM>  (3091) 
n/a

>  <FINAL_SINGLE_POINT_ENERGY>  (3091) 
0

>  <NONCOV_INTER_ENERGY_QM>  (3091) 
0

>  <FF_Energy>  (3091) 
-0.51

>  <QM_Energy>  (3091) 
-7.48

>  <source>  (3091) 
ETAM_MBZ

>  <Index>  (3091) 
33692

$$$$
ETAM-pdb5hdm-A-LYS-380:MBZ-pdb5hdm-A-PHE-406
     RDKit          3D

 26 25  0  0  0  0  0  0  0  0999 V2000
   -0.8206   -2.4679    3.3421 C   0  0  0  0  0  0  0  0  0  0  0  0
   -0.1032   -3.1208    3.5684 H   0  0  0  0  0  0  0  0  0  0  0  0
   -0.9141   -2.3878    2.3540 H   0  0  0  0  0  0  0  0  0  0  0  0
   -1.7632   -2.8256    3.7564 H   0  0  0  0  0  0  0  0  0  0  0  0
   -0.4383   -1.1102    3.9059 C   0  0  0  0  0  0  0  0  0  0  0  0
   -1.2298   -0.4926    3.8355 H   0  0  0  0  0  0  0  0  0  0  0  0
   -0.2020   -1.2146    4.8780 H   0  0  0  0  0  0  0  0  0  0  0  0
    0.7179   -0.5008    3.1883 N   0  0  0  0  0  4  0  0  0  0  0  0
    1.5543   -0.6663    3.7089 H   0  0  0  0  0  0  0  0  0  0  0  0
    0.7999   -0.9146    2.2826 H   0  0  0  0  0  0  0  0  0  0  0  0
    0.5682    0.4826    3.0966 H   0  0  0  0  0  0  0  0  0  0  0  0
   -0.0241    2.8906   -0.0505 C   0  0  0  0  0  0  0  0  0  0  0  0
    0.8797    3.2218    0.1370 H   0  0  0  0  0  0  0  0  0  0  0  0
   -0.6887    3.2171    0.5925 H   0  0  0  0  0  0  0  0  0  0  0  0
   -0.3124    3.2498   -1.0383 H   0  0  0  0  0  0  0  0  0  0  0  0
   -0.0012    1.3943    0.0132 C   0  0  0  0  0  0  0  0  0  0  0  0
   -1.1875    0.6802   -0.0099 C   0  0  0  0  0  0  0  0  0  0  0  0
   -2.0591    1.1704   -0.0357 H   0  0  0  0  0  0  0  0  0  0  0  0
   -1.1884   -0.6996    0.0000 C   0  0  0  0  0  0  0  0  0  0  0  0
   -2.0686   -1.1959    0.0054 H   0  0  0  0  0  0  0  0  0  0  0  0
    0.0008   -1.3831    0.0038 C   0  0  0  0  0  0  0  0  0  0  0  0
    0.0025   -2.3869    0.0090 H   0  0  0  0  0  0  0  0  0  0  0  0
    1.1884   -0.6884    0.0000 C   0  0  0  0  0  0  0  0  0  0  0  0
    2.0765   -1.1854    0.0037 H   0  0  0  0  0  0  0  0  0  0  0  0
    1.1879    0.6965   -0.0071 C   0  0  0  0  0  0  0  0  0  0  0  0
    2.0573    1.1911   -0.0286 H   0  0  0  0  0  0  0  0  0  0  0  0
  1  5  1  0
  5  8  1  0
  1  2  1  0
  1  3  1  0
  1  4  1  0
  5  6  1  0
  5  7  1  0
  8  9  1  0
  8 10  1  0
  8 11  1  0
 12 16  1  0
 16 17  2  0
 17 19  1  0
 19 21  2  0
 21 23  1  0
 23 25  2  0
 25 16  1  0
 12 13  1  0
 12 14  1  0
 12 15  1  0
 17 18  1  0
 19 20  1  0
 21 22  1  0
 23 24  1  0
 25 26  1  0
M  CHG  1   8   1
M  END
>  <PDB_ID>  (3092) 
pdb5hdm

>  <RESIDUE_NAME>  (3092) 
LYS   PHE

>  <FRAG_NAME>  (3092) 
ETAM   MBZ

>  <FRAG_ATOM_NUM>  (3092) 
fragi: 11  fragj: 15

>  <atom.prop.CHAIN_ID>  (3092) 
A A A A A A A A A A A Z Z Z Z Z Z Z Z Z Z Z Z Z Z Z

>  <atom.prop.IS_HEAVY_ATOM>  (3092) 
1 0 0 0 1 0 0 1 0 0 0 1 0 0 0 1 1 0 1 0 1 0 1 0 1 0

>  <DIFUSE_FUNC_ATOM>  (3092) 
n/a

>  <FINAL_SINGLE_POINT_ENERGY>  (3092) 
0

>  <NONCOV_INTER_ENERGY_QM>  (3092) 
0

>  <FF_Energy>  (3092) 
-8.53

>  <QM_Energy>  (3092) 
-16.03

>  <source>  (3092) 
ETAM_MBZ

>  <Index>  (3092) 
33697

$$$$
ETAM-pdb5hdm-B-LYS-380:MBZ-pdb5hdm-B-PHE-406
     RDKit          3D

 26 25  0  0  0  0  0  0  0  0999 V2000
   -1.0394   -2.3255    3.4355 C   0  0  0  0  0  0  0  0  0  0  0  0
   -0.1931   -2.8393    3.5103 H   0  0  0  0  0  0  0  0  0  0  0  0
   -1.3196   -2.2461    2.4864 H   0  0  0  0  0  0  0  0  0  0  0  0
   -1.8184   -2.8453    3.9932 H   0  0  0  0  0  0  0  0  0  0  0  0
   -0.8136   -0.9315    3.9933 C   0  0  0  0  0  0  0  0  0  0  0  0
   -1.7095   -0.4671    4.0805 H   0  0  0  0  0  0  0  0  0  0  0  0
   -0.4216   -1.0130    4.9233 H   0  0  0  0  0  0  0  0  0  0  0  0
    0.0867   -0.0914    3.1618 N   0  0  0  0  0  4  0  0  0  0  0  0
   -0.3991    0.2029    2.3384 H   0  0  0  0  0  0  0  0  0  0  0  0
    0.3724    0.7107    3.6859 H   0  0  0  0  0  0  0  0  0  0  0  0
    0.8923   -0.6239    2.9010 H   0  0  0  0  0  0  0  0  0  0  0  0
   -0.0272    2.8828   -0.0464 C   0  0  0  0  0  0  0  0  0  0  0  0
    0.8842    3.2155    0.1062 H   0  0  0  0  0  0  0  0  0  0  0  0
   -0.6639    3.2092    0.6269 H   0  0  0  0  0  0  0  0  0  0  0  0
   -0.3561    3.2460   -1.0201 H   0  0  0  0  0  0  0  0  0  0  0  0
   -0.0017    1.3939    0.0109 C   0  0  0  0  0  0  0  0  0  0  0  0
   -1.1880    0.6829   -0.0069 C   0  0  0  0  0  0  0  0  0  0  0  0
   -2.0593    1.1748   -0.0263 H   0  0  0  0  0  0  0  0  0  0  0  0
   -1.1919   -0.6957   -0.0000 C   0  0  0  0  0  0  0  0  0  0  0  0
   -2.0724   -1.1916    0.0024 H   0  0  0  0  0  0  0  0  0  0  0  0
   -0.0013   -1.3851    0.0060 C   0  0  0  0  0  0  0  0  0  0  0  0
   -0.0023   -2.3870    0.0139 H   0  0  0  0  0  0  0  0  0  0  0  0
    1.1919   -0.6911   -0.0000 C   0  0  0  0  0  0  0  0  0  0  0  0
    2.0769   -1.1901    0.0042 H   0  0  0  0  0  0  0  0  0  0  0  0
    1.1910    0.6951   -0.0100 C   0  0  0  0  0  0  0  0  0  0  0  0
    2.0588    1.1903   -0.0330 H   0  0  0  0  0  0  0  0  0  0  0  0
  1  5  1  0
  5  8  1  0
  1  2  1  0
  1  3  1  0
  1  4  1  0
  5  6  1  0
  5  7  1  0
  8  9  1  0
  8 10  1  0
  8 11  1  0
 12 16  1  0
 16 17  2  0
 17 19  1  0
 19 21  2  0
 21 23  1  0
 23 25  2  0
 25 16  1  0
 12 13  1  0
 12 14  1  0
 12 15  1  0
 17 18  1  0
 19 20  1  0
 21 22  1  0
 23 24  1  0
 25 26  1  0
M  CHG  1   8   1
M  END
>  <PDB_ID>  (3093) 
pdb5hdm

>  <RESIDUE_NAME>  (3093) 
LYS   PHE

>  <FRAG_NAME>  (3093) 
ETAM   MBZ

>  <FRAG_ATOM_NUM>  (3093) 
fragi: 11  fragj: 15

>  <atom.prop.CHAIN_ID>  (3093) 
A A A A A A A A A A A Z Z Z Z Z Z Z Z Z Z Z Z Z Z Z

>  <atom.prop.IS_HEAVY_ATOM>  (3093) 
1 0 0 0 1 0 0 1 0 0 0 1 0 0 0 1 1 0 1 0 1 0 1 0 1 0

>  <DIFUSE_FUNC_ATOM>  (3093) 
n/a

>  <FINAL_SINGLE_POINT_ENERGY>  (3093) 
0

>  <NONCOV_INTER_ENERGY_QM>  (3093) 
0

>  <FF_Energy>  (3093) 
-9.92

>  <QM_Energy>  (3093) 
-17.71

>  <source>  (3093) 
ETAM_MBZ

>  <Index>  (3093) 
33699

$$$$
ETAM-pdb5hcf-A-LYS-98:MBZ-pdb5hcf-A-PHE-55
     RDKit          3D

 26 25  0  0  0  0  0  0  0  0999 V2000
   -0.2615   -2.7167   -4.5622 C   0  0  0  0  0  0  0  0  0  0  0  0
    0.4877   -2.5576   -5.1916 H   0  0  0  0  0  0  0  0  0  0  0  0
   -1.0806   -2.2433   -4.8604 H   0  0  0  0  0  0  0  0  0  0  0  0
   -0.4671   -3.7864   -4.5238 H   0  0  0  0  0  0  0  0  0  0  0  0
    0.1331   -2.1928   -3.1913 C   0  0  0  0  0  0  0  0  0  0  0  0
   -0.3951   -2.6837   -2.4923 H   0  0  0  0  0  0  0  0  0  0  0  0
    1.1098   -2.3749   -3.0428 H   0  0  0  0  0  0  0  0  0  0  0  0
   -0.1176   -0.7365   -3.0619 N   0  0  0  0  0  4  0  0  0  0  0  0
    0.6023   -0.3222   -2.5039 H   0  0  0  0  0  0  0  0  0  0  0  0
   -0.1194   -0.3158   -3.9693 H   0  0  0  0  0  0  0  0  0  0  0  0
   -1.0043   -0.5878   -2.6245 H   0  0  0  0  0  0  0  0  0  0  0  0
    0.0006    2.8894   -0.0050 C   0  0  0  0  0  0  0  0  0  0  0  0
    0.8831    3.1981    0.3155 H   0  0  0  0  0  0  0  0  0  0  0  0
   -0.7273    3.1999    0.5876 H   0  0  0  0  0  0  0  0  0  0  0  0
   -0.1653    3.3257   -0.9901 H   0  0  0  0  0  0  0  0  0  0  0  0
   -0.0006    1.3912   -0.0018 C   0  0  0  0  0  0  0  0  0  0  0  0
   -1.1900    0.6873    0.0016 C   0  0  0  0  0  0  0  0  0  0  0  0
   -2.0580    1.1808    0.0037 H   0  0  0  0  0  0  0  0  0  0  0  0
   -1.1931   -0.6891   -0.0000 C   0  0  0  0  0  0  0  0  0  0  0  0
   -2.0725   -1.1872   -0.0000 H   0  0  0  0  0  0  0  0  0  0  0  0
   -0.0003   -1.3819    0.0010 C   0  0  0  0  0  0  0  0  0  0  0  0
   -0.0067   -2.3849    0.0023 H   0  0  0  0  0  0  0  0  0  0  0  0
    1.1931   -0.6941    0.0000 C   0  0  0  0  0  0  0  0  0  0  0  0
    2.0757   -1.1946    0.0014 H   0  0  0  0  0  0  0  0  0  0  0  0
    1.1909    0.6866   -0.0008 C   0  0  0  0  0  0  0  0  0  0  0  0
    2.0606    1.1848   -0.0011 H   0  0  0  0  0  0  0  0  0  0  0  0
  1  5  1  0
  5  8  1  0
  1  2  1  0
  1  3  1  0
  1  4  1  0
  5  6  1  0
  5  7  1  0
  8  9  1  0
  8 10  1  0
  8 11  1  0
 12 16  1  0
 16 17  2  0
 17 19  1  0
 19 21  2  0
 21 23  1  0
 23 25  2  0
 25 16  1  0
 12 13  1  0
 12 14  1  0
 12 15  1  0
 17 18  1  0
 19 20  1  0
 21 22  1  0
 23 24  1  0
 25 26  1  0
M  CHG  1   8   1
M  END
>  <PDB_ID>  (3094) 
pdb5hcf

>  <RESIDUE_NAME>  (3094) 
LYS   PHE

>  <FRAG_NAME>  (3094) 
ETAM   MBZ

>  <FRAG_ATOM_NUM>  (3094) 
fragi: 11  fragj: 15

>  <atom.prop.CHAIN_ID>  (3094) 
A A A A A A A A A A A Z Z Z Z Z Z Z Z Z Z Z Z Z Z Z

>  <atom.prop.IS_HEAVY_ATOM>  (3094) 
1 0 0 0 1 0 0 1 0 0 0 1 0 0 0 1 1 0 1 0 1 0 1 0 1 0

>  <DIFUSE_FUNC_ATOM>  (3094) 
n/a

>  <FINAL_SINGLE_POINT_ENERGY>  (3094) 
0

>  <NONCOV_INTER_ENERGY_QM>  (3094) 
0

>  <FF_Energy>  (3094) 
-7.91

>  <QM_Energy>  (3094) 
-16.69

>  <source>  (3094) 
ETAM_MBZ

>  <Index>  (3094) 
33713

$$$$
ETAM-pdb5hcf-B-LYS-98:MBZ-pdb5hcf-B-PHE-55
     RDKit          3D

 26 25  0  0  0  0  0  0  0  0999 V2000
   -0.3848   -2.6008   -4.7707 C   0  0  0  0  0  0  0  0  0  0  0  0
    0.3640   -2.4392   -5.4058 H   0  0  0  0  0  0  0  0  0  0  0  0
   -1.2008   -2.1168   -5.0696 H   0  0  0  0  0  0  0  0  0  0  0  0
   -0.5982   -3.6694   -4.7415 H   0  0  0  0  0  0  0  0  0  0  0  0
    0.0176   -2.0728   -3.4018 C   0  0  0  0  0  0  0  0  0  0  0  0
   -0.5185   -2.5466   -2.7011 H   0  0  0  0  0  0  0  0  0  0  0  0
    0.9904   -2.2591   -3.2545 H   0  0  0  0  0  0  0  0  0  0  0  0
   -0.2222   -0.6079   -3.2951 N   0  0  0  0  0  4  0  0  0  0  0  0
    0.6539   -0.1263   -3.3057 H   0  0  0  0  0  0  0  0  0  0  0  0
   -0.7798   -0.3061   -4.0681 H   0  0  0  0  0  0  0  0  0  0  0  0
   -0.7015   -0.4113   -2.4399 H   0  0  0  0  0  0  0  0  0  0  0  0
    0.0036    2.8872   -0.0007 C   0  0  0  0  0  0  0  0  0  0  0  0
    0.8909    3.1935    0.3128 H   0  0  0  0  0  0  0  0  0  0  0  0
   -0.7159    3.1964    0.6051 H   0  0  0  0  0  0  0  0  0  0  0  0
   -0.1738    3.3294   -0.9811 H   0  0  0  0  0  0  0  0  0  0  0  0
    0.0001    1.3925   -0.0043 C   0  0  0  0  0  0  0  0  0  0  0  0
   -1.1908    0.6878    0.0028 C   0  0  0  0  0  0  0  0  0  0  0  0
   -2.0593    1.1805    0.0087 H   0  0  0  0  0  0  0  0  0  0  0  0
   -1.1941   -0.6919   -0.0000 C   0  0  0  0  0  0  0  0  0  0  0  0
   -2.0725   -1.1893   -0.0028 H   0  0  0  0  0  0  0  0  0  0  0  0
    0.0006   -1.3838    0.0024 C   0  0  0  0  0  0  0  0  0  0  0  0
   -0.0043   -2.3857    0.0056 H   0  0  0  0  0  0  0  0  0  0  0  0
    1.1941   -0.6924    0.0000 C   0  0  0  0  0  0  0  0  0  0  0  0
    2.0774   -1.1924    0.0000 H   0  0  0  0  0  0  0  0  0  0  0  0
    1.1902    0.6878   -0.0009 C   0  0  0  0  0  0  0  0  0  0  0  0
    2.0601    1.1870    0.0003 H   0  0  0  0  0  0  0  0  0  0  0  0
  1  5  1  0
  5  8  1  0
  1  2  1  0
  1  3  1  0
  1  4  1  0
  5  6  1  0
  5  7  1  0
  8  9  1  0
  8 10  1  0
  8 11  1  0
 12 16  1  0
 16 17  2  0
 17 19  1  0
 19 21  2  0
 21 23  1  0
 23 25  2  0
 25 16  1  0
 12 13  1  0
 12 14  1  0
 12 15  1  0
 17 18  1  0
 19 20  1  0
 21 22  1  0
 23 24  1  0
 25 26  1  0
M  CHG  1   8   1
M  END
>  <PDB_ID>  (3095) 
pdb5hcf

>  <RESIDUE_NAME>  (3095) 
LYS   PHE

>  <FRAG_NAME>  (3095) 
ETAM   MBZ

>  <FRAG_ATOM_NUM>  (3095) 
fragi: 11  fragj: 15

>  <atom.prop.CHAIN_ID>  (3095) 
A A A A A A A A A A A Z Z Z Z Z Z Z Z Z Z Z Z Z Z Z

>  <atom.prop.IS_HEAVY_ATOM>  (3095) 
1 0 0 0 1 0 0 1 0 0 0 1 0 0 0 1 1 0 1 0 1 0 1 0 1 0

>  <DIFUSE_FUNC_ATOM>  (3095) 
n/a

>  <FINAL_SINGLE_POINT_ENERGY>  (3095) 
0

>  <NONCOV_INTER_ENERGY_QM>  (3095) 
0

>  <FF_Energy>  (3095) 
-8.47

>  <QM_Energy>  (3095) 
-16.13

>  <source>  (3095) 
ETAM_MBZ

>  <Index>  (3095) 
33714

$$$$
ETAM-pdb5hcf-D-LYS-98:MBZ-pdb5hcf-D-PHE-55
     RDKit          3D

 26 25  0  0  0  0  0  0  0  0999 V2000
   -0.3735   -2.8240   -4.7585 C   0  0  0  0  0  0  0  0  0  0  0  0
    0.3661   -2.7244   -5.4151 H   0  0  0  0  0  0  0  0  0  0  0  0
   -1.1836   -2.3404   -5.0725 H   0  0  0  0  0  0  0  0  0  0  0  0
   -0.6104   -3.8824   -4.6500 H   0  0  0  0  0  0  0  0  0  0  0  0
    0.0711   -2.2126   -3.4340 C   0  0  0  0  0  0  0  0  0  0  0  0
   -0.4642   -2.6256   -2.6938 H   0  0  0  0  0  0  0  0  0  0  0  0
    1.0409   -2.4241   -3.2911 H   0  0  0  0  0  0  0  0  0  0  0  0
   -0.1199   -0.7426   -3.4196 N   0  0  0  0  0  4  0  0  0  0  0  0
   -0.3998   -0.4505   -2.5041 H   0  0  0  0  0  0  0  0  0  0  0  0
    0.7396   -0.2913   -3.6640 H   0  0  0  0  0  0  0  0  0  0  0  0
   -0.8274   -0.4911   -4.0805 H   0  0  0  0  0  0  0  0  0  0  0  0
    0.0011    2.8980   -0.0039 C   0  0  0  0  0  0  0  0  0  0  0  0
    0.8808    3.2042    0.3269 H   0  0  0  0  0  0  0  0  0  0  0  0
   -0.7329    3.2049    0.5831 H   0  0  0  0  0  0  0  0  0  0  0  0
   -0.1549    3.3331   -0.9911 H   0  0  0  0  0  0  0  0  0  0  0  0
    0.0004    1.3953   -0.0007 C   0  0  0  0  0  0  0  0  0  0  0  0
   -1.1920    0.6888   -0.0001 C   0  0  0  0  0  0  0  0  0  0  0  0
   -2.0598    1.1818   -0.0008 H   0  0  0  0  0  0  0  0  0  0  0  0
   -1.1952   -0.6913   -0.0000 C   0  0  0  0  0  0  0  0  0  0  0  0
   -2.0742   -1.1882    0.0006 H   0  0  0  0  0  0  0  0  0  0  0  0
   -0.0014   -1.3845    0.0005 C   0  0  0  0  0  0  0  0  0  0  0  0
   -0.0066   -2.3866    0.0006 H   0  0  0  0  0  0  0  0  0  0  0  0
    1.1952   -0.6956   -0.0000 C   0  0  0  0  0  0  0  0  0  0  0  0
    2.0773   -1.1966    0.0010 H   0  0  0  0  0  0  0  0  0  0  0  0
    1.1929    0.6874    0.0003 C   0  0  0  0  0  0  0  0  0  0  0  0
    2.0627    1.1854    0.0003 H   0  0  0  0  0  0  0  0  0  0  0  0
  1  5  1  0
  5  8  1  0
  1  2  1  0
  1  3  1  0
  1  4  1  0
  5  6  1  0
  5  7  1  0
  8  9  1  0
  8 10  1  0
  8 11  1  0
 12 16  1  0
 16 17  2  0
 17 19  1  0
 19 21  2  0
 21 23  1  0
 23 25  2  0
 25 16  1  0
 12 13  1  0
 12 14  1  0
 12 15  1  0
 17 18  1  0
 19 20  1  0
 21 22  1  0
 23 24  1  0
 25 26  1  0
M  CHG  1   8   1
M  END
>  <PDB_ID>  (3096) 
pdb5hcf

>  <RESIDUE_NAME>  (3096) 
LYS   PHE

>  <FRAG_NAME>  (3096) 
ETAM   MBZ

>  <FRAG_ATOM_NUM>  (3096) 
fragi: 11  fragj: 15

>  <atom.prop.CHAIN_ID>  (3096) 
A A A A A A A A A A A Z Z Z Z Z Z Z Z Z Z Z Z Z Z Z

>  <atom.prop.IS_HEAVY_ATOM>  (3096) 
1 0 0 0 1 0 0 1 0 0 0 1 0 0 0 1 1 0 1 0 1 0 1 0 1 0

>  <DIFUSE_FUNC_ATOM>  (3096) 
n/a

>  <FINAL_SINGLE_POINT_ENERGY>  (3096) 
0

>  <NONCOV_INTER_ENERGY_QM>  (3096) 
0

>  <FF_Energy>  (3096) 
-8.09

>  <QM_Energy>  (3096) 
-15.19

>  <source>  (3096) 
ETAM_MBZ

>  <Index>  (3096) 
33715

$$$$
ETAM-pdb5hcf-E-LYS-98:MBZ-pdb5hcf-E-PHE-55
     RDKit          3D

 26 25  0  0  0  0  0  0  0  0999 V2000
   -0.1927   -2.5473   -4.8559 C   0  0  0  0  0  0  0  0  0  0  0  0
    0.5929   -2.4022   -5.4480 H   0  0  0  0  0  0  0  0  0  0  0  0
   -0.9838   -2.0548   -5.2018 H   0  0  0  0  0  0  0  0  0  0  0  0
   -0.4227   -3.6125   -4.8338 H   0  0  0  0  0  0  0  0  0  0  0  0
    0.1383   -2.0237   -3.4697 C   0  0  0  0  0  0  0  0  0  0  0  0
   -0.4467   -2.4861   -2.7998 H   0  0  0  0  0  0  0  0  0  0  0  0
    1.0978   -2.2331   -3.2632 H   0  0  0  0  0  0  0  0  0  0  0  0
   -0.0732   -0.5578   -3.3760 N   0  0  0  0  0  4  0  0  0  0  0  0
    0.7323   -0.1295   -2.9664 H   0  0  0  0  0  0  0  0  0  0  0  0
   -0.2205   -0.1828   -4.2921 H   0  0  0  0  0  0  0  0  0  0  0  0
   -0.8745   -0.3721   -2.8076 H   0  0  0  0  0  0  0  0  0  0  0  0
   -0.0021    2.9008    0.0032 C   0  0  0  0  0  0  0  0  0  0  0  0
    0.8751    3.2086    0.3399 H   0  0  0  0  0  0  0  0  0  0  0  0
   -0.7385    3.2053    0.5886 H   0  0  0  0  0  0  0  0  0  0  0  0
   -0.1547    3.3437   -0.9809 H   0  0  0  0  0  0  0  0  0  0  0  0
    0.0008    1.3980    0.0006 C   0  0  0  0  0  0  0  0  0  0  0  0
   -1.1918    0.6899   -0.0018 C   0  0  0  0  0  0  0  0  0  0  0  0
   -2.0600    1.1799   -0.0065 H   0  0  0  0  0  0  0  0  0  0  0  0
   -1.1948   -0.6974    0.0000 C   0  0  0  0  0  0  0  0  0  0  0  0
   -2.0735   -1.1913    0.0017 H   0  0  0  0  0  0  0  0  0  0  0  0
    0.0003   -1.3892    0.0009 C   0  0  0  0  0  0  0  0  0  0  0  0
   -0.0020   -2.3898    0.0017 H   0  0  0  0  0  0  0  0  0  0  0  0
    1.1948   -0.6943   -0.0000 C   0  0  0  0  0  0  0  0  0  0  0  0
    2.0792   -1.1920    0.0010 H   0  0  0  0  0  0  0  0  0  0  0  0
    1.1908    0.6929    0.0002 C   0  0  0  0  0  0  0  0  0  0  0  0
    2.0610    1.1883   -0.0003 H   0  0  0  0  0  0  0  0  0  0  0  0
  1  5  1  0
  5  8  1  0
  1  2  1  0
  1  3  1  0
  1  4  1  0
  5  6  1  0
  5  7  1  0
  8  9  1  0
  8 10  1  0
  8 11  1  0
 12 16  1  0
 16 17  2  0
 17 19  1  0
 19 21  2  0
 21 23  1  0
 23 25  2  0
 25 16  1  0
 12 13  1  0
 12 14  1  0
 12 15  1  0
 17 18  1  0
 19 20  1  0
 21 22  1  0
 23 24  1  0
 25 26  1  0
M  CHG  1   8   1
M  END
>  <PDB_ID>  (3097) 
pdb5hcf

>  <RESIDUE_NAME>  (3097) 
LYS   PHE

>  <FRAG_NAME>  (3097) 
ETAM   MBZ

>  <FRAG_ATOM_NUM>  (3097) 
fragi: 11  fragj: 15

>  <atom.prop.CHAIN_ID>  (3097) 
A A A A A A A A A A A Z Z Z Z Z Z Z Z Z Z Z Z Z Z Z

>  <atom.prop.IS_HEAVY_ATOM>  (3097) 
1 0 0 0 1 0 0 1 0 0 0 1 0 0 0 1 1 0 1 0 1 0 1 0 1 0

>  <DIFUSE_FUNC_ATOM>  (3097) 
n/a

>  <FINAL_SINGLE_POINT_ENERGY>  (3097) 
0

>  <NONCOV_INTER_ENERGY_QM>  (3097) 
0

>  <FF_Energy>  (3097) 
-8.05

>  <QM_Energy>  (3097) 
-15.0

>  <source>  (3097) 
ETAM_MBZ

>  <Index>  (3097) 
33716

$$$$
ETAM-pdb5hgx-A-LYS-667:MBZ-pdb5hgx-A-PHE-663
     RDKit          3D

 26 25  0  0  0  0  0  0  0  0999 V2000
    2.3235   -0.0296    4.9900 C   0  0  0  0  0  0  0  0  0  0  0  0
    2.5413    0.6365    4.3186 H   0  0  0  0  0  0  0  0  0  0  0  0
    2.8668   -0.8230    4.8607 H   0  0  0  0  0  0  0  0  0  0  0  0
    2.5204    0.3823    5.9798 H   0  0  0  0  0  0  0  0  0  0  0  0
    0.8487   -0.4248    4.8140 C   0  0  0  0  0  0  0  0  0  0  0  0
    0.6733   -1.2368    5.3132 H   0  0  0  0  0  0  0  0  0  0  0  0
    0.2842    0.2960    5.1368 H   0  0  0  0  0  0  0  0  0  0  0  0
    0.5109   -0.6761    3.3723 N   0  0  0  0  0  4  0  0  0  0  0  0
   -0.3474   -0.9023    3.2960 H   0  0  0  0  0  0  0  0  0  0  0  0
    0.6593    0.0586    2.8926 H   0  0  0  0  0  0  0  0  0  0  0  0
    1.0133   -1.3377    3.0531 H   0  0  0  0  0  0  0  0  0  0  0  0
    0.0318    2.9148   -0.0308 C   0  0  0  0  0  0  0  0  0  0  0  0
   -0.6409    3.2005   -0.6692 H   0  0  0  0  0  0  0  0  0  0  0  0
    0.9101    3.1773   -0.3467 H   0  0  0  0  0  0  0  0  0  0  0  0
   -0.1581    3.4186    0.9169 H   0  0  0  0  0  0  0  0  0  0  0  0
   -0.0004    1.4043    0.0157 C   0  0  0  0  0  0  0  0  0  0  0  0
   -1.1844    0.7001   -0.0095 C   0  0  0  0  0  0  0  0  0  0  0  0
   -1.9938    1.1583   -0.0104 H   0  0  0  0  0  0  0  0  0  0  0  0
   -1.1787   -0.6909    0.0000 C   0  0  0  0  0  0  0  0  0  0  0  0
   -1.9844   -1.1555   -0.0046 H   0  0  0  0  0  0  0  0  0  0  0  0
    0.0075   -1.3833   -0.0075 C   0  0  0  0  0  0  0  0  0  0  0  0
    0.0050   -2.3127    0.0044 H   0  0  0  0  0  0  0  0  0  0  0  0
    1.1787   -0.7060    0.0000 C   0  0  0  0  0  0  0  0  0  0  0  0
    1.9845   -1.1706    0.0042 H   0  0  0  0  0  0  0  0  0  0  0  0
    1.1773    0.6758    0.0013 C   0  0  0  0  0  0  0  0  0  0  0  0
    1.9889    1.1289   -0.0013 H   0  0  0  0  0  0  0  0  0  0  0  0
  1  5  1  0
  5  8  1  0
  1  2  1  0
  1  3  1  0
  1  4  1  0
  5  6  1  0
  5  7  1  0
  8  9  1  0
  8 10  1  0
  8 11  1  0
 12 16  1  0
 16 17  2  0
 17 19  1  0
 19 21  2  0
 21 23  1  0
 23 25  2  0
 25 16  1  0
 12 13  1  0
 12 14  1  0
 12 15  1  0
 17 18  1  0
 19 20  1  0
 21 22  1  0
 23 24  1  0
 25 26  1  0
M  CHG  1   8   1
M  END
>  <PDB_ID>  (3098) 
pdb5hgx

>  <RESIDUE_NAME>  (3098) 
LYS   PHE

>  <FRAG_NAME>  (3098) 
ETAM   MBZ

>  <FRAG_ATOM_NUM>  (3098) 
fragi: 11  fragj: 15

>  <atom.prop.CHAIN_ID>  (3098) 
A A A A A A A A A A A Z Z Z Z Z Z Z Z Z Z Z Z Z Z Z

>  <atom.prop.IS_HEAVY_ATOM>  (3098) 
1 0 0 0 1 0 0 1 0 0 0 1 0 0 0 1 1 0 1 0 1 0 1 0 1 0

>  <DIFUSE_FUNC_ATOM>  (3098) 
n/a

>  <FINAL_SINGLE_POINT_ENERGY>  (3098) 
0

>  <NONCOV_INTER_ENERGY_QM>  (3098) 
0

>  <FF_Energy>  (3098) 
-6.92

>  <QM_Energy>  (3098) 
-13.42

>  <source>  (3098) 
ETAM_MBZ

>  <Index>  (3098) 
33722

$$$$
ETAM-pdb6htj-A-LYS-110:MBZ-pdb6htj-A-PHE-11
     RDKit          3D

 26 25  0  0  0  0  0  0  0  0999 V2000
   -1.2341    0.1752    3.4986 C   0  0  0  0  0  0  0  0  0  0  0  0
   -1.0717   -0.5332    4.1839 H   0  0  0  0  0  0  0  0  0  0  0  0
   -1.6392   -0.2321    2.6821 H   0  0  0  0  0  0  0  0  0  0  0  0
   -1.9443    0.8917    3.9113 H   0  0  0  0  0  0  0  0  0  0  0  0
    0.0824    0.8155    3.1300 C   0  0  0  0  0  0  0  0  0  0  0  0
   -0.0787    1.5257    2.4453 H   0  0  0  0  0  0  0  0  0  0  0  0
    0.4892    1.2253    3.9456 H   0  0  0  0  0  0  0  0  0  0  0  0
    1.0128   -0.1973    2.5755 N   0  0  0  0  0  4  0  0  0  0  0  0
    0.7157   -0.4560    1.6548 H   0  0  0  0  0  0  0  0  0  0  0  0
    1.9361    0.1861    2.5309 H   0  0  0  0  0  0  0  0  0  0  0  0
    1.0157   -1.0064    3.1635 H   0  0  0  0  0  0  0  0  0  0  0  0
   -0.0036    2.8890   -0.0053 C   0  0  0  0  0  0  0  0  0  0  0  0
    0.9135    3.1988   -0.2106 H   0  0  0  0  0  0  0  0  0  0  0  0
   -0.2964    3.2012    0.8866 H   0  0  0  0  0  0  0  0  0  0  0  0
   -0.6758    3.3212   -0.7466 H   0  0  0  0  0  0  0  0  0  0  0  0
   -0.0005    1.3942    0.0021 C   0  0  0  0  0  0  0  0  0  0  0  0
   -1.1935    0.6912   -0.0045 C   0  0  0  0  0  0  0  0  0  0  0  0
   -2.0604    1.1833   -0.0139 H   0  0  0  0  0  0  0  0  0  0  0  0
   -1.1985   -0.6924   -0.0000 C   0  0  0  0  0  0  0  0  0  0  0  0
   -2.0754   -1.1881    0.0039 H   0  0  0  0  0  0  0  0  0  0  0  0
    0.0005   -1.3867    0.0011 C   0  0  0  0  0  0  0  0  0  0  0  0
   -0.0045   -2.3876    0.0022 H   0  0  0  0  0  0  0  0  0  0  0  0
    1.1985   -0.6944    0.0000 C   0  0  0  0  0  0  0  0  0  0  0  0
    2.0798   -1.1947   -0.0002 H   0  0  0  0  0  0  0  0  0  0  0  0
    1.1936    0.6881    0.0013 C   0  0  0  0  0  0  0  0  0  0  0  0
    2.0626    1.1877    0.0009 H   0  0  0  0  0  0  0  0  0  0  0  0
  1  5  1  0
  5  8  1  0
  1  2  1  0
  1  3  1  0
  1  4  1  0
  5  6  1  0
  5  7  1  0
  8  9  1  0
  8 10  1  0
  8 11  1  0
 12 16  1  0
 16 17  2  0
 17 19  1  0
 19 21  2  0
 21 23  1  0
 23 25  2  0
 25 16  1  0
 12 13  1  0
 12 14  1  0
 12 15  1  0
 17 18  1  0
 19 20  1  0
 21 22  1  0
 23 24  1  0
 25 26  1  0
M  CHG  1   8   1
M  END
>  <PDB_ID>  (3099) 
pdb6htj

>  <RESIDUE_NAME>  (3099) 
LYS   PHE

>  <FRAG_NAME>  (3099) 
ETAM   MBZ

>  <FRAG_ATOM_NUM>  (3099) 
fragi: 11  fragj: 15

>  <atom.prop.CHAIN_ID>  (3099) 
A A A A A A A A A A A Z Z Z Z Z Z Z Z Z Z Z Z Z Z Z

>  <atom.prop.IS_HEAVY_ATOM>  (3099) 
1 0 0 0 1 0 0 1 0 0 0 1 0 0 0 1 1 0 1 0 1 0 1 0 1 0

>  <DIFUSE_FUNC_ATOM>  (3099) 
n/a

>  <FINAL_SINGLE_POINT_ENERGY>  (3099) 
0

>  <NONCOV_INTER_ENERGY_QM>  (3099) 
0

>  <FF_Energy>  (3099) 
6.12

>  <QM_Energy>  (3099) 
-6.5

>  <source>  (3099) 
ETAM_MBZ

>  <Index>  (3099) 
33724

$$$$
ETAM-pdb6hxi-D-LYS-395:MBZ-pdb6hxi-D-PHE-558
     RDKit          3D

 26 25  0  0  0  0  0  0  0  0999 V2000
   -1.1295   -2.4012   -4.3517 C   0  0  0  0  0  0  0  0  0  0  0  0
   -0.2514   -1.9376   -4.3082 H   0  0  0  0  0  0  0  0  0  0  0  0
   -1.1994   -2.9393   -5.1842 H   0  0  0  0  0  0  0  0  0  0  0  0
   -1.2213   -3.0647   -3.4918 H   0  0  0  0  0  0  0  0  0  0  0  0
   -2.2279   -1.3665   -4.3476 C   0  0  0  0  0  0  0  0  0  0  0  0
   -2.1557   -0.8113   -5.1803 H   0  0  0  0  0  0  0  0  0  0  0  0
   -3.1158   -1.8332   -4.3444 H   0  0  0  0  0  0  0  0  0  0  0  0
   -2.1257   -0.4971   -3.1664 N   0  0  0  0  0  4  0  0  0  0  0  0
   -1.1665   -0.4142   -2.8869 H   0  0  0  0  0  0  0  0  0  0  0  0
   -2.4849    0.4136   -3.3816 H   0  0  0  0  0  0  0  0  0  0  0  0
   -2.6552   -0.8868   -2.4094 H   0  0  0  0  0  0  0  0  0  0  0  0
   -0.0012    2.9086    0.0780 C   0  0  0  0  0  0  0  0  0  0  0  0
    0.8698    3.1945    0.4861 H   0  0  0  0  0  0  0  0  0  0  0  0
   -0.7513    3.1834    0.6859 H   0  0  0  0  0  0  0  0  0  0  0  0
   -0.1199    3.4648   -0.8519 H   0  0  0  0  0  0  0  0  0  0  0  0
   -0.0006    1.4051   -0.0019 C   0  0  0  0  0  0  0  0  0  0  0  0
   -1.1911    0.6921    0.0154 C   0  0  0  0  0  0  0  0  0  0  0  0
   -2.0617    1.1749    0.0378 H   0  0  0  0  0  0  0  0  0  0  0  0
   -1.1897   -0.7036   -0.0000 C   0  0  0  0  0  0  0  0  0  0  0  0
   -2.0708   -1.1932   -0.0005 H   0  0  0  0  0  0  0  0  0  0  0  0
    0.0005   -1.3880   -0.0120 C   0  0  0  0  0  0  0  0  0  0  0  0
   -0.0023   -2.3935   -0.0299 H   0  0  0  0  0  0  0  0  0  0  0  0
    1.1897   -0.7009    0.0000 C   0  0  0  0  0  0  0  0  0  0  0  0
    2.0765   -1.1940    0.0121 H   0  0  0  0  0  0  0  0  0  0  0  0
    1.1912    0.6952   -0.0015 C   0  0  0  0  0  0  0  0  0  0  0  0
    2.0620    1.1844   -0.0036 H   0  0  0  0  0  0  0  0  0  0  0  0
  1  5  1  0
  5  8  1  0
  1  2  1  0
  1  3  1  0
  1  4  1  0
  5  6  1  0
  5  7  1  0
  8  9  1  0
  8 10  1  0
  8 11  1  0
 12 16  1  0
 16 17  2  0
 17 19  1  0
 19 21  2  0
 21 23  1  0
 23 25  2  0
 25 16  1  0
 12 13  1  0
 12 14  1  0
 12 15  1  0
 17 18  1  0
 19 20  1  0
 21 22  1  0
 23 24  1  0
 25 26  1  0
M  CHG  1   8   1
M  END
>  <PDB_ID>  (3100) 
pdb6hxi

>  <RESIDUE_NAME>  (3100) 
LYS   PHE

>  <FRAG_NAME>  (3100) 
ETAM   MBZ

>  <FRAG_ATOM_NUM>  (3100) 
fragi: 11  fragj: 15

>  <atom.prop.CHAIN_ID>  (3100) 
A A A A A A A A A A A Z Z Z Z Z Z Z Z Z Z Z Z Z Z Z

>  <atom.prop.IS_HEAVY_ATOM>  (3100) 
1 0 0 0 1 0 0 1 0 0 0 1 0 0 0 1 1 0 1 0 1 0 1 0 1 0

>  <DIFUSE_FUNC_ATOM>  (3100) 
n/a

>  <FINAL_SINGLE_POINT_ENERGY>  (3100) 
0

>  <NONCOV_INTER_ENERGY_QM>  (3100) 
0

>  <FF_Energy>  (3100) 
-5.04

>  <QM_Energy>  (3100) 
-10.79

>  <source>  (3100) 
ETAM_MBZ

>  <Index>  (3100) 
33759

$$$$
ETAM-pdb6hy7-A-LYS-187:MBZ-pdb6hy7-A-PHE-161
     RDKit          3D

 26 25  0  0  0  0  0  0  0  0999 V2000
    2.3534    1.0673    4.6486 C   0  0  0  0  0  0  0  0  0  0  0  0
    2.1481    1.6352    3.8601 H   0  0  0  0  0  0  0  0  0  0  0  0
    3.2118    0.5851    4.5181 H   0  0  0  0  0  0  0  0  0  0  0  0
    2.4320    1.7013    5.5318 H   0  0  0  0  0  0  0  0  0  0  0  0
    1.2445    0.0480    4.8144 C   0  0  0  0  0  0  0  0  0  0  0  0
    1.5157   -0.6162    5.4995 H   0  0  0  0  0  0  0  0  0  0  0  0
    0.4129    0.5160    5.0892 H   0  0  0  0  0  0  0  0  0  0  0  0
    1.0315   -0.6274    3.5223 N   0  0  0  0  0  4  0  0  0  0  0  0
    0.0502   -0.6909    3.3308 H   0  0  0  0  0  0  0  0  0  0  0  0
    1.4766   -0.1073    2.7898 H   0  0  0  0  0  0  0  0  0  0  0  0
    1.4210   -1.5504    3.5536 H   0  0  0  0  0  0  0  0  0  0  0  0
   -0.0017    2.9008    0.0101 C   0  0  0  0  0  0  0  0  0  0  0  0
   -0.7387    3.2109   -0.5743 H   0  0  0  0  0  0  0  0  0  0  0  0
    0.8761    3.2090   -0.3309 H   0  0  0  0  0  0  0  0  0  0  0  0
   -0.1501    3.3407    0.9963 H   0  0  0  0  0  0  0  0  0  0  0  0
   -0.0011    1.3958   -0.0027 C   0  0  0  0  0  0  0  0  0  0  0  0
   -1.1876    0.6869   -0.0006 C   0  0  0  0  0  0  0  0  0  0  0  0
   -2.0590    1.1744   -0.0005 H   0  0  0  0  0  0  0  0  0  0  0  0
   -1.1868   -0.6967   -0.0000 C   0  0  0  0  0  0  0  0  0  0  0  0
   -2.0685   -1.1910    0.0022 H   0  0  0  0  0  0  0  0  0  0  0  0
    0.0011   -1.3838   -0.0008 C   0  0  0  0  0  0  0  0  0  0  0  0
   -0.0016   -2.3873   -0.0032 H   0  0  0  0  0  0  0  0  0  0  0  0
    1.1868   -0.6931   -0.0000 C   0  0  0  0  0  0  0  0  0  0  0  0
    2.0749   -1.1909   -0.0008 H   0  0  0  0  0  0  0  0  0  0  0  0
    1.1877    0.6908    0.0041 C   0  0  0  0  0  0  0  0  0  0  0  0
    2.0585    1.1855    0.0108 H   0  0  0  0  0  0  0  0  0  0  0  0
  1  5  1  0
  5  8  1  0
  1  2  1  0
  1  3  1  0
  1  4  1  0
  5  6  1  0
  5  7  1  0
  8  9  1  0
  8 10  1  0
  8 11  1  0
 12 16  1  0
 16 17  2  0
 17 19  1  0
 19 21  2  0
 21 23  1  0
 23 25  2  0
 25 16  1  0
 12 13  1  0
 12 14  1  0
 12 15  1  0
 17 18  1  0
 19 20  1  0
 21 22  1  0
 23 24  1  0
 25 26  1  0
M  CHG  1   8   1
M  END
>  <PDB_ID>  (3101) 
pdb6hy7

>  <RESIDUE_NAME>  (3101) 
LYS   PHE

>  <FRAG_NAME>  (3101) 
ETAM   MBZ

>  <FRAG_ATOM_NUM>  (3101) 
fragi: 11  fragj: 15

>  <atom.prop.CHAIN_ID>  (3101) 
A A A A A A A A A A A Z Z Z Z Z Z Z Z Z Z Z Z Z Z Z

>  <atom.prop.IS_HEAVY_ATOM>  (3101) 
1 0 0 0 1 0 0 1 0 0 0 1 0 0 0 1 1 0 1 0 1 0 1 0 1 0

>  <DIFUSE_FUNC_ATOM>  (3101) 
n/a

>  <FINAL_SINGLE_POINT_ENERGY>  (3101) 
0

>  <NONCOV_INTER_ENERGY_QM>  (3101) 
0

>  <FF_Energy>  (3101) 
-6.47

>  <QM_Energy>  (3101) 
-12.11

>  <source>  (3101) 
ETAM_MBZ

>  <Index>  (3101) 
33774

$$$$
ETAM-pdb6hsq-C-LYS-145:MBZ-pdb6hsq-C-PHE-73
     RDKit          3D

 26 25  0  0  0  0  0  0  0  0999 V2000
    2.7974   -3.5387    1.4903 C   0  0  0  0  0  0  0  0  0  0  0  0
    2.2318   -2.7165    1.4300 H   0  0  0  0  0  0  0  0  0  0  0  0
    3.3970   -3.5938    0.6936 H   0  0  0  0  0  0  0  0  0  0  0  0
    3.4129   -3.4724    2.3874 H   0  0  0  0  0  0  0  0  0  0  0  0
    1.8917   -4.7516    1.5019 C   0  0  0  0  0  0  0  0  0  0  0  0
    2.4508   -5.5779    1.5598 H   0  0  0  0  0  0  0  0  0  0  0  0
    1.2857   -4.7015    2.2957 H   0  0  0  0  0  0  0  0  0  0  0  0
    1.0724   -4.7999    0.2640 N   0  0  0  0  0  4  0  0  0  0  0  0
    0.1211   -4.9976    0.5021 H   0  0  0  0  0  0  0  0  0  0  0  0
    1.1228   -3.9183   -0.2046 H   0  0  0  0  0  0  0  0  0  0  0  0
    1.4218   -5.5186   -0.3383 H   0  0  0  0  0  0  0  0  0  0  0  0
    0.0091    2.8970   -0.0690 C   0  0  0  0  0  0  0  0  0  0  0  0
    0.8870    3.2139    0.2670 H   0  0  0  0  0  0  0  0  0  0  0  0
   -0.7267    3.2141    0.5172 H   0  0  0  0  0  0  0  0  0  0  0  0
   -0.1438    3.3350   -1.0554 H   0  0  0  0  0  0  0  0  0  0  0  0
    0.0138    1.3979   -0.0417 C   0  0  0  0  0  0  0  0  0  0  0  0
   -1.1980    0.6960    0.0085 C   0  0  0  0  0  0  0  0  0  0  0  0
   -2.0513    1.1776    0.0481 H   0  0  0  0  0  0  0  0  0  0  0  0
   -1.1676   -0.6911   -0.0000 C   0  0  0  0  0  0  0  0  0  0  0  0
   -2.0662   -1.1869   -0.0300 H   0  0  0  0  0  0  0  0  0  0  0  0
   -0.0080   -1.3732    0.0318 C   0  0  0  0  0  0  0  0  0  0  0  0
   -0.0197   -2.3861    0.0796 H   0  0  0  0  0  0  0  0  0  0  0  0
    1.1676   -0.7110    0.0000 C   0  0  0  0  0  0  0  0  0  0  0  0
    2.0583   -1.2118   -0.0240 H   0  0  0  0  0  0  0  0  0  0  0  0
    1.1922    0.6815    0.0014 C   0  0  0  0  0  0  0  0  0  0  0  0
    2.0686    1.1567    0.0332 H   0  0  0  0  0  0  0  0  0  0  0  0
  1  5  1  0
  5  8  1  0
  1  2  1  0
  1  3  1  0
  1  4  1  0
  5  6  1  0
  5  7  1  0
  8  9  1  0
  8 10  1  0
  8 11  1  0
 12 16  1  0
 16 17  2  0
 17 19  1  0
 19 21  2  0
 21 23  1  0
 23 25  2  0
 25 16  1  0
 12 13  1  0
 12 14  1  0
 12 15  1  0
 17 18  1  0
 19 20  1  0
 21 22  1  0
 23 24  1  0
 25 26  1  0
M  CHG  1   8   1
M  END
>  <PDB_ID>  (3102) 
pdb6hsq

>  <RESIDUE_NAME>  (3102) 
LYS   PHE

>  <FRAG_NAME>  (3102) 
ETAM   MBZ

>  <FRAG_ATOM_NUM>  (3102) 
fragi: 11  fragj: 15

>  <atom.prop.CHAIN_ID>  (3102) 
A A A A A A A A A A A Z Z Z Z Z Z Z Z Z Z Z Z Z Z Z

>  <atom.prop.IS_HEAVY_ATOM>  (3102) 
1 0 0 0 1 0 0 1 0 0 0 1 0 0 0 1 1 0 1 0 1 0 1 0 1 0

>  <DIFUSE_FUNC_ATOM>  (3102) 
n/a

>  <FINAL_SINGLE_POINT_ENERGY>  (3102) 
0

>  <NONCOV_INTER_ENERGY_QM>  (3102) 
0

>  <FF_Energy>  (3102) 
1.98

>  <QM_Energy>  (3102) 
-3.54

>  <source>  (3102) 
ETAM_MBZ

>  <Index>  (3102) 
33776

$$$$
ETAM-pdb5hgx-A-LYS-317:MBZ-pdb5hgx-A-PHE-313
     RDKit          3D

 26 25  0  0  0  0  0  0  0  0999 V2000
   -0.5061   -0.8717    4.4966 C   0  0  0  0  0  0  0  0  0  0  0  0
   -0.1307    0.0025    4.6846 H   0  0  0  0  0  0  0  0  0  0  0  0
   -0.4078   -1.4523    5.2666 H   0  0  0  0  0  0  0  0  0  0  0  0
   -1.5644   -0.7646    4.2586 H   0  0  0  0  0  0  0  0  0  0  0  0
    0.2473   -1.4663    3.3654 C   0  0  0  0  0  0  0  0  0  0  0  0
   -0.0645   -2.3704    3.2050 H   0  0  0  0  0  0  0  0  0  0  0  0
    0.1324   -0.9188    2.5729 H   0  0  0  0  0  0  0  0  0  0  0  0
    1.6861   -1.5156    3.7005 N   0  0  0  0  0  4  0  0  0  0  0  0
    2.1438   -1.8723    3.0262 H   0  0  0  0  0  0  0  0  0  0  0  0
    1.9909   -0.6933    3.8550 H   0  0  0  0  0  0  0  0  0  0  0  0
    1.8116   -2.0117    4.4290 H   0  0  0  0  0  0  0  0  0  0  0  0
    0.0174    2.9085   -0.0261 C   0  0  0  0  0  0  0  0  0  0  0  0
   -0.0510    3.1775   -0.9554 H   0  0  0  0  0  0  0  0  0  0  0  0
    0.8678    3.2024    0.3356 H   0  0  0  0  0  0  0  0  0  0  0  0
   -0.7843    3.3890    0.5347 H   0  0  0  0  0  0  0  0  0  0  0  0
    0.0017    1.4046    0.0139 C   0  0  0  0  0  0  0  0  0  0  0  0
   -1.1896    0.6757   -0.0122 C   0  0  0  0  0  0  0  0  0  0  0  0
   -2.0023    1.1293   -0.0095 H   0  0  0  0  0  0  0  0  0  0  0  0
   -1.1875   -0.7048    0.0000 C   0  0  0  0  0  0  0  0  0  0  0  0
   -1.9903   -1.1736   -0.0005 H   0  0  0  0  0  0  0  0  0  0  0  0
   -0.0034   -1.3756    0.0051 C   0  0  0  0  0  0  0  0  0  0  0  0
   -0.0024   -2.3062    0.0095 H   0  0  0  0  0  0  0  0  0  0  0  0
    1.1875   -0.6966    0.0000 C   0  0  0  0  0  0  0  0  0  0  0  0
    1.9909   -1.1647    0.0050 H   0  0  0  0  0  0  0  0  0  0  0  0
    1.1913    0.6967   -0.0067 C   0  0  0  0  0  0  0  0  0  0  0  0
    2.0005    1.1545   -0.0037 H   0  0  0  0  0  0  0  0  0  0  0  0
  1  5  1  0
  5  8  1  0
  1  2  1  0
  1  3  1  0
  1  4  1  0
  5  6  1  0
  5  7  1  0
  8  9  1  0
  8 10  1  0
  8 11  1  0
 12 16  1  0
 16 17  2  0
 17 19  1  0
 19 21  2  0
 21 23  1  0
 23 25  2  0
 25 16  1  0
 12 13  1  0
 12 14  1  0
 12 15  1  0
 17 18  1  0
 19 20  1  0
 21 22  1  0
 23 24  1  0
 25 26  1  0
M  CHG  1   8   1
M  END
>  <PDB_ID>  (3103) 
pdb5hgx

>  <RESIDUE_NAME>  (3103) 
LYS   PHE

>  <FRAG_NAME>  (3103) 
ETAM   MBZ

>  <FRAG_ATOM_NUM>  (3103) 
fragi: 11  fragj: 15

>  <atom.prop.CHAIN_ID>  (3103) 
A A A A A A A A A A A Z Z Z Z Z Z Z Z Z Z Z Z Z Z Z

>  <atom.prop.IS_HEAVY_ATOM>  (3103) 
1 0 0 0 1 0 0 1 0 0 0 1 0 0 0 1 1 0 1 0 1 0 1 0 1 0

>  <DIFUSE_FUNC_ATOM>  (3103) 
n/a

>  <FINAL_SINGLE_POINT_ENERGY>  (3103) 
0

>  <NONCOV_INTER_ENERGY_QM>  (3103) 
0

>  <FF_Energy>  (3103) 
-3.87

>  <QM_Energy>  (3103) 
-9.11

>  <source>  (3103) 
ETAM_MBZ

>  <Index>  (3103) 
33777

$$$$
ETAM-pdb5hcf-C-LYS-98:MBZ-pdb5hcf-C-PHE-55
     RDKit          3D

 26 25  0  0  0  0  0  0  0  0999 V2000
    0.1980   -2.7089   -4.5515 C   0  0  0  0  0  0  0  0  0  0  0  0
    1.0043   -2.5753   -5.1202 H   0  0  0  0  0  0  0  0  0  0  0  0
   -0.5879   -2.2503   -4.9551 H   0  0  0  0  0  0  0  0  0  0  0  0
   -0.0119   -3.7764   -4.4851 H   0  0  0  0  0  0  0  0  0  0  0  0
    0.4625   -2.1050   -3.1836 C   0  0  0  0  0  0  0  0  0  0  0  0
   -0.1424   -2.5392   -2.5145 H   0  0  0  0  0  0  0  0  0  0  0  0
    1.4155   -2.2790   -2.9298 H   0  0  0  0  0  0  0  0  0  0  0  0
    0.2167   -0.6401   -3.1889 N   0  0  0  0  0  4  0  0  0  0  0  0
    0.8332   -0.2013   -3.8422 H   0  0  0  0  0  0  0  0  0  0  0  0
   -0.7314   -0.4625   -3.4529 H   0  0  0  0  0  0  0  0  0  0  0  0
    0.3825   -0.2718   -2.2741 H   0  0  0  0  0  0  0  0  0  0  0  0
   -0.0016    2.8964   -0.0096 C   0  0  0  0  0  0  0  0  0  0  0  0
    0.8509    3.2080    0.3819 H   0  0  0  0  0  0  0  0  0  0  0  0
   -0.7761    3.2103    0.5197 H   0  0  0  0  0  0  0  0  0  0  0  0
   -0.0852    3.3274   -1.0074 H   0  0  0  0  0  0  0  0  0  0  0  0
   -0.0021    1.3939    0.0091 C   0  0  0  0  0  0  0  0  0  0  0  0
   -1.1869    0.6906   -0.0097 C   0  0  0  0  0  0  0  0  0  0  0  0
   -2.0577    1.1800   -0.0313 H   0  0  0  0  0  0  0  0  0  0  0  0
   -1.1892   -0.6910    0.0000 C   0  0  0  0  0  0  0  0  0  0  0  0
   -2.0700   -1.1857    0.0081 H   0  0  0  0  0  0  0  0  0  0  0  0
    0.0011   -1.3818    0.0004 C   0  0  0  0  0  0  0  0  0  0  0  0
   -0.0056   -2.3852    0.0003 H   0  0  0  0  0  0  0  0  0  0  0  0
    1.1892   -0.6949    0.0000 C   0  0  0  0  0  0  0  0  0  0  0  0
    2.0749   -1.1952    0.0012 H   0  0  0  0  0  0  0  0  0  0  0  0
    1.1879    0.6832    0.0002 C   0  0  0  0  0  0  0  0  0  0  0  0
    2.0589    1.1821   -0.0074 H   0  0  0  0  0  0  0  0  0  0  0  0
  1  5  1  0
  5  8  1  0
  1  2  1  0
  1  3  1  0
  1  4  1  0
  5  6  1  0
  5  7  1  0
  8  9  1  0
  8 10  1  0
  8 11  1  0
 12 16  1  0
 16 17  2  0
 17 19  1  0
 19 21  2  0
 21 23  1  0
 23 25  2  0
 25 16  1  0
 12 13  1  0
 12 14  1  0
 12 15  1  0
 17 18  1  0
 19 20  1  0
 21 22  1  0
 23 24  1  0
 25 26  1  0
M  CHG  1   8   1
M  END
>  <PDB_ID>  (3104) 
pdb5hcf

>  <RESIDUE_NAME>  (3104) 
LYS   PHE

>  <FRAG_NAME>  (3104) 
ETAM   MBZ

>  <FRAG_ATOM_NUM>  (3104) 
fragi: 11  fragj: 15

>  <atom.prop.CHAIN_ID>  (3104) 
A A A A A A A A A A A Z Z Z Z Z Z Z Z Z Z Z Z Z Z Z

>  <atom.prop.IS_HEAVY_ATOM>  (3104) 
1 0 0 0 1 0 0 1 0 0 0 1 0 0 0 1 1 0 1 0 1 0 1 0 1 0

>  <DIFUSE_FUNC_ATOM>  (3104) 
n/a

>  <FINAL_SINGLE_POINT_ENERGY>  (3104) 
0

>  <NONCOV_INTER_ENERGY_QM>  (3104) 
0

>  <FF_Energy>  (3104) 
-8.59

>  <QM_Energy>  (3104) 
-16.52

>  <source>  (3104) 
ETAM_MBZ

>  <Index>  (3104) 
33833

$$$$
ETAM-pdb6i6k-A-LYS-44:MBZ-pdb6i6k-B-PHE-338
     RDKit          3D

 26 25  0  0  0  0  0  0  0  0999 V2000
   -1.3816    0.1746    3.7968 C   0  0  0  0  0  0  0  0  0  0  0  0
   -1.5837   -0.4600    3.0331 H   0  0  0  0  0  0  0  0  0  0  0  0
   -0.9980    1.0211    3.3939 H   0  0  0  0  0  0  0  0  0  0  0  0
   -2.3250    0.4292    4.2800 H   0  0  0  0  0  0  0  0  0  0  0  0
   -0.3531   -0.4491    4.6870 C   0  0  0  0  0  0  0  0  0  0  0  0
   -0.0267    0.2190    5.3410 H   0  0  0  0  0  0  0  0  0  0  0  0
   -0.7416   -1.2358    5.1484 H   0  0  0  0  0  0  0  0  0  0  0  0
    0.7812   -0.8936    3.8372 N   0  0  0  0  0  4  0  0  0  0  0  0
    1.4956   -0.1942    3.8433 H   0  0  0  0  0  0  0  0  0  0  0  0
    1.1497   -1.7511    4.1958 H   0  0  0  0  0  0  0  0  0  0  0  0
    0.4603   -1.0339    2.9004 H   0  0  0  0  0  0  0  0  0  0  0  0
   -0.0361    2.8931   -0.0544 C   0  0  0  0  0  0  0  0  0  0  0  0
    0.8637    3.2243    0.1810 H   0  0  0  0  0  0  0  0  0  0  0  0
   -0.7156    3.1980    0.5933 H   0  0  0  0  0  0  0  0  0  0  0  0
   -0.2984    3.2973   -1.0322 H   0  0  0  0  0  0  0  0  0  0  0  0
   -0.0023    1.3934   -0.0210 C   0  0  0  0  0  0  0  0  0  0  0  0
   -1.1929    0.6901   -0.0370 C   0  0  0  0  0  0  0  0  0  0  0  0
   -2.0607    1.1769   -0.0770 H   0  0  0  0  0  0  0  0  0  0  0  0
   -1.1941   -0.6970    0.0000 C   0  0  0  0  0  0  0  0  0  0  0  0
   -2.0752   -1.1889    0.0107 H   0  0  0  0  0  0  0  0  0  0  0  0
   -0.0056   -1.3788    0.0235 C   0  0  0  0  0  0  0  0  0  0  0  0
   -0.0053   -2.3857    0.0571 H   0  0  0  0  0  0  0  0  0  0  0  0
    1.1941   -0.6945    0.0000 C   0  0  0  0  0  0  0  0  0  0  0  0
    2.0722   -1.2008   -0.0408 H   0  0  0  0  0  0  0  0  0  0  0  0
    1.2008    0.6868    0.0345 C   0  0  0  0  0  0  0  0  0  0  0  0
    2.0603    1.1842    0.0982 H   0  0  0  0  0  0  0  0  0  0  0  0
  1  5  1  0
  5  8  1  0
  1  2  1  0
  1  3  1  0
  1  4  1  0
  5  6  1  0
  5  7  1  0
  8  9  1  0
  8 10  1  0
  8 11  1  0
 12 16  1  0
 16 17  2  0
 17 19  1  0
 19 21  2  0
 21 23  1  0
 23 25  2  0
 25 16  1  0
 12 13  1  0
 12 14  1  0
 12 15  1  0
 17 18  1  0
 19 20  1  0
 21 22  1  0
 23 24  1  0
 25 26  1  0
M  CHG  1   8   1
M  END
>  <PDB_ID>  (3105) 
pdb6i6k

>  <RESIDUE_NAME>  (3105) 
LYS   PHE

>  <FRAG_NAME>  (3105) 
ETAM   MBZ

>  <FRAG_ATOM_NUM>  (3105) 
fragi: 11  fragj: 15

>  <atom.prop.CHAIN_ID>  (3105) 
A A A A A A A A A A A Z Z Z Z Z Z Z Z Z Z Z Z Z Z Z

>  <atom.prop.IS_HEAVY_ATOM>  (3105) 
1 0 0 0 1 0 0 1 0 0 0 1 0 0 0 1 1 0 1 0 1 0 1 0 1 0

>  <DIFUSE_FUNC_ATOM>  (3105) 
n/a

>  <FINAL_SINGLE_POINT_ENERGY>  (3105) 
0

>  <NONCOV_INTER_ENERGY_QM>  (3105) 
0

>  <FF_Energy>  (3105) 
-6.52

>  <QM_Energy>  (3105) 
-11.73

>  <source>  (3105) 
ETAM_MBZ

>  <Index>  (3105) 
33851

$$$$
ETAM-pdb5hsv-D-LYS-76:MBZ-pdb5hsv-D-PHE-46
     RDKit          3D

 26 25  0  0  0  0  0  0  0  0999 V2000
   -0.9221   -0.9571   -4.4233 C   0  0  0  0  0  0  0  0  0  0  0  0
   -0.5027   -1.7983   -4.1345 H   0  0  0  0  0  0  0  0  0  0  0  0
   -0.8146   -0.7988   -5.3878 H   0  0  0  0  0  0  0  0  0  0  0  0
   -1.9852   -0.9921   -4.1854 H   0  0  0  0  0  0  0  0  0  0  0  0
   -0.2937    0.1935   -3.6622 C   0  0  0  0  0  0  0  0  0  0  0  0
   -0.6508    1.0618   -4.0294 H   0  0  0  0  0  0  0  0  0  0  0  0
   -0.5600    0.1288   -2.6925 H   0  0  0  0  0  0  0  0  0  0  0  0
    1.1903    0.2006   -3.7577 N   0  0  0  0  0  4  0  0  0  0  0  0
    1.5324    1.1156   -3.5459 H   0  0  0  0  0  0  0  0  0  0  0  0
    1.5683   -0.4568   -3.1060 H   0  0  0  0  0  0  0  0  0  0  0  0
    1.4652   -0.0521   -4.6855 H   0  0  0  0  0  0  0  0  0  0  0  0
   -0.0083    2.9094   -0.0059 C   0  0  0  0  0  0  0  0  0  0  0  0
   -0.7641    3.2115   -0.5736 H   0  0  0  0  0  0  0  0  0  0  0  0
    0.8572    3.2176   -0.3792 H   0  0  0  0  0  0  0  0  0  0  0  0
   -0.1274    3.3709    0.9744 H   0  0  0  0  0  0  0  0  0  0  0  0
   -0.0020    1.3958   -0.0085 C   0  0  0  0  0  0  0  0  0  0  0  0
   -1.1730    0.6844    0.0142 C   0  0  0  0  0  0  0  0  0  0  0  0
   -2.0526    1.1803    0.0408 H   0  0  0  0  0  0  0  0  0  0  0  0
   -1.1857   -0.6836   -0.0000 C   0  0  0  0  0  0  0  0  0  0  0  0
   -2.0774   -1.1732   -0.0141 H   0  0  0  0  0  0  0  0  0  0  0  0
   -0.0158   -1.3814    0.0065 C   0  0  0  0  0  0  0  0  0  0  0  0
   -0.0180   -2.3821    0.0155 H   0  0  0  0  0  0  0  0  0  0  0  0
    1.1857   -0.6936   -0.0000 C   0  0  0  0  0  0  0  0  0  0  0  0
    2.0636   -1.2049    0.0056 H   0  0  0  0  0  0  0  0  0  0  0  0
    1.1908    0.6784   -0.0122 C   0  0  0  0  0  0  0  0  0  0  0  0
    2.0602    1.1783   -0.0241 H   0  0  0  0  0  0  0  0  0  0  0  0
  1  5  1  0
  5  8  1  0
  1  2  1  0
  1  3  1  0
  1  4  1  0
  5  6  1  0
  5  7  1  0
  8  9  1  0
  8 10  1  0
  8 11  1  0
 12 16  1  0
 16 17  2  0
 17 19  1  0
 19 21  2  0
 21 23  1  0
 23 25  2  0
 25 16  1  0
 12 13  1  0
 12 14  1  0
 12 15  1  0
 17 18  1  0
 19 20  1  0
 21 22  1  0
 23 24  1  0
 25 26  1  0
M  CHG  1   8   1
M  END
>  <PDB_ID>  (3106) 
pdb5hsv

>  <RESIDUE_NAME>  (3106) 
LYS   PHE

>  <FRAG_NAME>  (3106) 
ETAM   MBZ

>  <FRAG_ATOM_NUM>  (3106) 
fragi: 11  fragj: 15

>  <atom.prop.CHAIN_ID>  (3106) 
A A A A A A A A A A A Z Z Z Z Z Z Z Z Z Z Z Z Z Z Z

>  <atom.prop.IS_HEAVY_ATOM>  (3106) 
1 0 0 0 1 0 0 1 0 0 0 1 0 0 0 1 1 0 1 0 1 0 1 0 1 0

>  <DIFUSE_FUNC_ATOM>  (3106) 
n/a

>  <FINAL_SINGLE_POINT_ENERGY>  (3106) 
0

>  <NONCOV_INTER_ENERGY_QM>  (3106) 
0

>  <FF_Energy>  (3106) 
-6.74

>  <QM_Energy>  (3106) 
-11.83

>  <source>  (3106) 
ETAM_MBZ

>  <Index>  (3106) 
33865

$$$$
ETAM-pdb6i2m-B-LYS-236:MBZ-pdb6i2m-B-PHE-224
     RDKit          3D

 26 25  0  0  0  0  0  0  0  0999 V2000
   -0.9119    0.0322    3.6680 C   0  0  0  0  0  0  0  0  0  0  0  0
   -0.9946    1.0250    3.6758 H   0  0  0  0  0  0  0  0  0  0  0  0
   -0.5498   -0.2749    2.7923 H   0  0  0  0  0  0  0  0  0  0  0  0
   -0.2232   -0.2675    4.4579 H   0  0  0  0  0  0  0  0  0  0  0  0
   -2.2762   -0.5731    3.8710 C   0  0  0  0  0  0  0  0  0  0  0  0
   -2.1876   -1.5715    3.9454 H   0  0  0  0  0  0  0  0  0  0  0  0
   -2.6702   -0.2222    4.7272 H   0  0  0  0  0  0  0  0  0  0  0  0
   -3.1952   -0.2515    2.7491 N   0  0  0  0  0  4  0  0  0  0  0  0
   -4.1420   -0.3708    3.0494 H   0  0  0  0  0  0  0  0  0  0  0  0
   -3.0526    0.6965    2.4636 H   0  0  0  0  0  0  0  0  0  0  0  0
   -3.0093   -0.8631    1.9797 H   0  0  0  0  0  0  0  0  0  0  0  0
    0.0040    2.9235    0.0167 C   0  0  0  0  0  0  0  0  0  0  0  0
    0.8504    3.2337   -0.4247 H   0  0  0  0  0  0  0  0  0  0  0  0
    0.0173    3.2052    0.9800 H   0  0  0  0  0  0  0  0  0  0  0  0
   -0.8246    3.4438   -0.4637 H   0  0  0  0  0  0  0  0  0  0  0  0
    0.0006    1.4090   -0.0162 C   0  0  0  0  0  0  0  0  0  0  0  0
   -1.1948    0.6943    0.0119 C   0  0  0  0  0  0  0  0  0  0  0  0
   -2.0631    1.1780    0.0391 H   0  0  0  0  0  0  0  0  0  0  0  0
   -1.1939   -0.7041    0.0000 C   0  0  0  0  0  0  0  0  0  0  0  0
   -2.0741   -1.1936   -0.0068 H   0  0  0  0  0  0  0  0  0  0  0  0
    0.0000   -1.3931   -0.0005 C   0  0  0  0  0  0  0  0  0  0  0  0
   -0.0032   -2.3965   -0.0017 H   0  0  0  0  0  0  0  0  0  0  0  0
    1.1939   -0.7028   -0.0000 C   0  0  0  0  0  0  0  0  0  0  0  0
    2.0788   -1.1958   -0.0016 H   0  0  0  0  0  0  0  0  0  0  0  0
    1.1942    0.6966    0.0048 C   0  0  0  0  0  0  0  0  0  0  0  0
    2.0649    1.1856    0.0225 H   0  0  0  0  0  0  0  0  0  0  0  0
  1  5  1  0
  5  8  1  0
  1  2  1  0
  1  3  1  0
  1  4  1  0
  5  6  1  0
  5  7  1  0
  8  9  1  0
  8 10  1  0
  8 11  1  0
 12 16  1  0
 16 17  2  0
 17 19  1  0
 19 21  2  0
 21 23  1  0
 23 25  2  0
 25 16  1  0
 12 13  1  0
 12 14  1  0
 12 15  1  0
 17 18  1  0
 19 20  1  0
 21 22  1  0
 23 24  1  0
 25 26  1  0
M  CHG  1   8   1
M  END
>  <PDB_ID>  (3107) 
pdb6i2m

>  <RESIDUE_NAME>  (3107) 
LYS   PHE

>  <FRAG_NAME>  (3107) 
ETAM   MBZ

>  <FRAG_ATOM_NUM>  (3107) 
fragi: 11  fragj: 15

>  <atom.prop.CHAIN_ID>  (3107) 
A A A A A A A A A A A Z Z Z Z Z Z Z Z Z Z Z Z Z Z Z

>  <atom.prop.IS_HEAVY_ATOM>  (3107) 
1 0 0 0 1 0 0 1 0 0 0 1 0 0 0 1 1 0 1 0 1 0 1 0 1 0

>  <DIFUSE_FUNC_ATOM>  (3107) 
n/a

>  <FINAL_SINGLE_POINT_ENERGY>  (3107) 
0

>  <NONCOV_INTER_ENERGY_QM>  (3107) 
0

>  <FF_Energy>  (3107) 
-3.42

>  <QM_Energy>  (3107) 
-9.58

>  <source>  (3107) 
ETAM_MBZ

>  <Index>  (3107) 
33870

$$$$
ETAM-pdb6ibb-C-LYS-205:MBZ-pdb6ibb-C-PHE-201
     RDKit          3D

 26 25  0  0  0  0  0  0  0  0999 V2000
    0.8367   -2.3447    3.5593 C   0  0  0  0  0  0  0  0  0  0  0  0
    1.1955   -2.2508    2.6267 H   0  0  0  0  0  0  0  0  0  0  0  0
    1.6011   -2.5081    4.1879 H   0  0  0  0  0  0  0  0  0  0  0  0
    0.3535   -1.4084    3.8383 H   0  0  0  0  0  0  0  0  0  0  0  0
   -0.0913   -3.5455    3.6027 C   0  0  0  0  0  0  0  0  0  0  0  0
    0.4632   -4.3865    3.5925 H   0  0  0  0  0  0  0  0  0  0  0  0
   -0.6150   -3.5230    4.4630 H   0  0  0  0  0  0  0  0  0  0  0  0
   -1.0444   -3.5790    2.4569 N   0  0  0  0  0  4  0  0  0  0  0  0
   -0.7988   -2.8654    1.8026 H   0  0  0  0  0  0  0  0  0  0  0  0
   -0.9957   -4.4726    2.0128 H   0  0  0  0  0  0  0  0  0  0  0  0
   -1.9717   -3.4206    2.7937 H   0  0  0  0  0  0  0  0  0  0  0  0
    0.0014    2.9173    0.0136 C   0  0  0  0  0  0  0  0  0  0  0  0
   -0.5267    3.2320   -0.7578 H   0  0  0  0  0  0  0  0  0  0  0  0
    0.9388    3.2227   -0.0370 H   0  0  0  0  0  0  0  0  0  0  0  0
   -0.4395    3.3425    0.9152 H   0  0  0  0  0  0  0  0  0  0  0  0
    0.0010    1.4087   -0.0057 C   0  0  0  0  0  0  0  0  0  0  0  0
   -1.1973    0.6944   -0.0058 C   0  0  0  0  0  0  0  0  0  0  0  0
   -2.0645    1.1770   -0.0112 H   0  0  0  0  0  0  0  0  0  0  0  0
   -1.1960   -0.7073   -0.0000 C   0  0  0  0  0  0  0  0  0  0  0  0
   -2.0749   -1.1958    0.0066 H   0  0  0  0  0  0  0  0  0  0  0  0
   -0.0005   -1.3933   -0.0015 C   0  0  0  0  0  0  0  0  0  0  0  0
   -0.0010   -2.3963   -0.0043 H   0  0  0  0  0  0  0  0  0  0  0  0
    1.1960   -0.7005    0.0000 C   0  0  0  0  0  0  0  0  0  0  0  0
    2.0800   -1.1952   -0.0069 H   0  0  0  0  0  0  0  0  0  0  0  0
    1.1968    0.6979    0.0130 C   0  0  0  0  0  0  0  0  0  0  0  0
    2.0653    1.1879    0.0352 H   0  0  0  0  0  0  0  0  0  0  0  0
  1  5  1  0
  5  8  1  0
  1  2  1  0
  1  3  1  0
  1  4  1  0
  5  6  1  0
  5  7  1  0
  8  9  1  0
  8 10  1  0
  8 11  1  0
 12 16  1  0
 16 17  2  0
 17 19  1  0
 19 21  2  0
 21 23  1  0
 23 25  2  0
 25 16  1  0
 12 13  1  0
 12 14  1  0
 12 15  1  0
 17 18  1  0
 19 20  1  0
 21 22  1  0
 23 24  1  0
 25 26  1  0
M  CHG  1   8   1
M  END
>  <PDB_ID>  (3108) 
pdb6ibb

>  <RESIDUE_NAME>  (3108) 
LYS   PHE

>  <FRAG_NAME>  (3108) 
ETAM   MBZ

>  <FRAG_ATOM_NUM>  (3108) 
fragi: 11  fragj: 15

>  <atom.prop.CHAIN_ID>  (3108) 
A A A A A A A A A A A Z Z Z Z Z Z Z Z Z Z Z Z Z Z Z

>  <atom.prop.IS_HEAVY_ATOM>  (3108) 
1 0 0 0 1 0 0 1 0 0 0 1 0 0 0 1 1 0 1 0 1 0 1 0 1 0

>  <DIFUSE_FUNC_ATOM>  (3108) 
n/a

>  <FINAL_SINGLE_POINT_ENERGY>  (3108) 
0

>  <NONCOV_INTER_ENERGY_QM>  (3108) 
0

>  <FF_Energy>  (3108) 
-1.9

>  <QM_Energy>  (3108) 
-8.59

>  <source>  (3108) 
ETAM_MBZ

>  <Index>  (3108) 
33906

$$$$
ETAM-pdb6ibu-B-LYS-238:MBZ-pdb6ibu-B-PHE-160
     RDKit          3D

 26 25  0  0  0  0  0  0  0  0999 V2000
   -0.4702    0.1886    3.7631 C   0  0  0  0  0  0  0  0  0  0  0  0
   -0.7070    0.8202    3.0170 H   0  0  0  0  0  0  0  0  0  0  0  0
   -0.6473    0.6463    4.6403 H   0  0  0  0  0  0  0  0  0  0  0  0
   -1.0946   -0.7018    3.6900 H   0  0  0  0  0  0  0  0  0  0  0  0
    1.0091   -0.1126    3.6771 C   0  0  0  0  0  0  0  0  0  0  0  0
    1.3063   -0.5457    4.5297 H   0  0  0  0  0  0  0  0  0  0  0  0
    1.1726   -0.7403    2.9142 H   0  0  0  0  0  0  0  0  0  0  0  0
    1.7943    1.1306    3.4614 N   0  0  0  0  0  4  0  0  0  0  0  0
    2.7032    1.0247    3.8656 H   0  0  0  0  0  0  0  0  0  0  0  0
    1.8825    1.3023    2.4797 H   0  0  0  0  0  0  0  0  0  0  0  0
    1.3247    1.9001    3.8934 H   0  0  0  0  0  0  0  0  0  0  0  0
   -0.0082    2.8761    0.0023 C   0  0  0  0  0  0  0  0  0  0  0  0
    0.8394    3.1958    0.3820 H   0  0  0  0  0  0  0  0  0  0  0  0
   -0.7883    3.1908    0.5107 H   0  0  0  0  0  0  0  0  0  0  0  0
   -0.0899    3.2622   -1.0137 H   0  0  0  0  0  0  0  0  0  0  0  0
   -0.0016    1.3878    0.0256 C   0  0  0  0  0  0  0  0  0  0  0  0
   -1.1956    0.6945   -0.0021 C   0  0  0  0  0  0  0  0  0  0  0  0
   -2.0598    1.1839   -0.0248 H   0  0  0  0  0  0  0  0  0  0  0  0
   -1.1938   -0.6891   -0.0000 C   0  0  0  0  0  0  0  0  0  0  0  0
   -2.0720   -1.1865    0.0128 H   0  0  0  0  0  0  0  0  0  0  0  0
    0.0012   -1.3800   -0.0136 C   0  0  0  0  0  0  0  0  0  0  0  0
   -0.0093   -2.3858   -0.0335 H   0  0  0  0  0  0  0  0  0  0  0  0
    1.1938   -0.6998   -0.0000 C   0  0  0  0  0  0  0  0  0  0  0  0
    2.0767   -1.1995    0.0189 H   0  0  0  0  0  0  0  0  0  0  0  0
    1.1960    0.6867   -0.0099 C   0  0  0  0  0  0  0  0  0  0  0  0
    2.0607    1.1819   -0.0435 H   0  0  0  0  0  0  0  0  0  0  0  0
  1  5  1  0
  5  8  1  0
  1  2  1  0
  1  3  1  0
  1  4  1  0
  5  6  1  0
  5  7  1  0
  8  9  1  0
  8 10  1  0
  8 11  1  0
 12 16  1  0
 16 17  2  0
 17 19  1  0
 19 21  2  0
 21 23  1  0
 23 25  2  0
 25 16  1  0
 12 13  1  0
 12 14  1  0
 12 15  1  0
 17 18  1  0
 19 20  1  0
 21 22  1  0
 23 24  1  0
 25 26  1  0
M  CHG  1   8   1
M  END
>  <PDB_ID>  (3109) 
pdb6ibu

>  <RESIDUE_NAME>  (3109) 
LYS   PHE

>  <FRAG_NAME>  (3109) 
ETAM   MBZ

>  <FRAG_ATOM_NUM>  (3109) 
fragi: 11  fragj: 15

>  <atom.prop.CHAIN_ID>  (3109) 
A A A A A A A A A A A Z Z Z Z Z Z Z Z Z Z Z Z Z Z Z

>  <atom.prop.IS_HEAVY_ATOM>  (3109) 
1 0 0 0 1 0 0 1 0 0 0 1 0 0 0 1 1 0 1 0 1 0 1 0 1 0

>  <DIFUSE_FUNC_ATOM>  (3109) 
n/a

>  <FINAL_SINGLE_POINT_ENERGY>  (3109) 
0

>  <NONCOV_INTER_ENERGY_QM>  (3109) 
0

>  <FF_Energy>  (3109) 
-6.68

>  <QM_Energy>  (3109) 
-12.28

>  <source>  (3109) 
ETAM_MBZ

>  <Index>  (3109) 
33920

$$$$
ETAM-pdb5hvo-A-LYS-50:MBZ-pdb5hvo-A-PHE-54
     RDKit          3D

 26 25  0  0  0  0  0  0  0  0999 V2000
    0.1955   -4.0692   -1.5997 C   0  0  0  0  0  0  0  0  0  0  0  0
   -0.5586   -3.4241   -1.4988 H   0  0  0  0  0  0  0  0  0  0  0  0
    0.9595   -3.7931   -1.0206 H   0  0  0  0  0  0  0  0  0  0  0  0
   -0.1447   -5.0547   -1.2816 H   0  0  0  0  0  0  0  0  0  0  0  0
    0.6573   -4.0537   -3.0527 C   0  0  0  0  0  0  0  0  0  0  0  0
    1.1575   -3.1953   -3.2252 H   0  0  0  0  0  0  0  0  0  0  0  0
    1.2930   -4.8229   -3.1995 H   0  0  0  0  0  0  0  0  0  0  0  0
   -0.4698   -4.1625   -4.0283 N   0  0  0  0  0  4  0  0  0  0  0  0
   -0.6611   -5.1267   -4.2030 H   0  0  0  0  0  0  0  0  0  0  0  0
   -1.2802   -3.7228   -3.6444 H   0  0  0  0  0  0  0  0  0  0  0  0
   -0.2118   -3.7093   -4.8804 H   0  0  0  0  0  0  0  0  0  0  0  0
    0.0114    2.8720    0.0110 C   0  0  0  0  0  0  0  0  0  0  0  0
    0.9359    3.1793    0.2078 H   0  0  0  0  0  0  0  0  0  0  0  0
   -0.6173    3.1887    0.7124 H   0  0  0  0  0  0  0  0  0  0  0  0
   -0.2910    3.3373   -0.9272 H   0  0  0  0  0  0  0  0  0  0  0  0
   -0.0011    1.3902   -0.0017 C   0  0  0  0  0  0  0  0  0  0  0  0
   -1.1921    0.6897   -0.0003 C   0  0  0  0  0  0  0  0  0  0  0  0
   -2.0600    1.1807   -0.0005 H   0  0  0  0  0  0  0  0  0  0  0  0
   -1.1949   -0.6933   -0.0000 C   0  0  0  0  0  0  0  0  0  0  0  0
   -2.0708   -1.1906    0.0026 H   0  0  0  0  0  0  0  0  0  0  0  0
    0.0038   -1.3830   -0.0009 C   0  0  0  0  0  0  0  0  0  0  0  0
   -0.0011   -2.3855   -0.0024 H   0  0  0  0  0  0  0  0  0  0  0  0
    1.1949   -0.6919   -0.0000 C   0  0  0  0  0  0  0  0  0  0  0  0
    2.0799   -1.1900    0.0001 H   0  0  0  0  0  0  0  0  0  0  0  0
    1.1893    0.6883    0.0029 C   0  0  0  0  0  0  0  0  0  0  0  0
    2.0586    1.1878    0.0075 H   0  0  0  0  0  0  0  0  0  0  0  0
  1  5  1  0
  5  8  1  0
  1  2  1  0
  1  3  1  0
  1  4  1  0
  5  6  1  0
  5  7  1  0
  8  9  1  0
  8 10  1  0
  8 11  1  0
 12 16  1  0
 16 17  2  0
 17 19  1  0
 19 21  2  0
 21 23  1  0
 23 25  2  0
 25 16  1  0
 12 13  1  0
 12 14  1  0
 12 15  1  0
 17 18  1  0
 19 20  1  0
 21 22  1  0
 23 24  1  0
 25 26  1  0
M  CHG  1   8   1
M  END
>  <PDB_ID>  (3110) 
pdb5hvo

>  <RESIDUE_NAME>  (3110) 
LYS   PHE

>  <FRAG_NAME>  (3110) 
ETAM   MBZ

>  <FRAG_ATOM_NUM>  (3110) 
fragi: 11  fragj: 15

>  <atom.prop.CHAIN_ID>  (3110) 
A A A A A A A A A A A Z Z Z Z Z Z Z Z Z Z Z Z Z Z Z

>  <atom.prop.IS_HEAVY_ATOM>  (3110) 
1 0 0 0 1 0 0 1 0 0 0 1 0 0 0 1 1 0 1 0 1 0 1 0 1 0

>  <DIFUSE_FUNC_ATOM>  (3110) 
n/a

>  <FINAL_SINGLE_POINT_ENERGY>  (3110) 
0

>  <NONCOV_INTER_ENERGY_QM>  (3110) 
0

>  <FF_Energy>  (3110) 
5.51

>  <QM_Energy>  (3110) 
-0.28

>  <source>  (3110) 
ETAM_MBZ

>  <Index>  (3110) 
33931

$$$$
ETAM-pdb5hvo-C-LYS-255:MBZ-pdb5hvo-C-PHE-366
     RDKit          3D

 26 25  0  0  0  0  0  0  0  0999 V2000
   -1.5973   -2.6694   -3.3185 C   0  0  0  0  0  0  0  0  0  0  0  0
   -1.7650   -2.9653   -4.2498 H   0  0  0  0  0  0  0  0  0  0  0  0
   -2.3388   -2.9445   -2.7203 H   0  0  0  0  0  0  0  0  0  0  0  0
   -0.6752   -3.1328   -2.9673 H   0  0  0  0  0  0  0  0  0  0  0  0
   -1.4947   -1.1434   -3.3013 C   0  0  0  0  0  0  0  0  0  0  0  0
   -1.1128   -0.8583   -2.4160 H   0  0  0  0  0  0  0  0  0  0  0  0
   -0.8635   -0.8565   -4.0294 H   0  0  0  0  0  0  0  0  0  0  0  0
   -2.8113   -0.4823   -3.5039 N   0  0  0  0  0  4  0  0  0  0  0  0
   -2.7508    0.4729   -3.2148 H   0  0  0  0  0  0  0  0  0  0  0  0
   -3.0590   -0.5243   -4.4716 H   0  0  0  0  0  0  0  0  0  0  0  0
   -3.5066   -0.9530   -2.9607 H   0  0  0  0  0  0  0  0  0  0  0  0
   -0.0071    2.9100    0.0174 C   0  0  0  0  0  0  0  0  0  0  0  0
   -0.7152    3.2216   -0.5950 H   0  0  0  0  0  0  0  0  0  0  0  0
    0.8853    3.2189   -0.2697 H   0  0  0  0  0  0  0  0  0  0  0  0
   -0.2071    3.3294    1.0033 H   0  0  0  0  0  0  0  0  0  0  0  0
   -0.0037    1.3974   -0.0096 C   0  0  0  0  0  0  0  0  0  0  0  0
   -1.1918    0.6884    0.0037 C   0  0  0  0  0  0  0  0  0  0  0  0
   -2.0623    1.1806    0.0146 H   0  0  0  0  0  0  0  0  0  0  0  0
   -1.1946   -0.6913    0.0000 C   0  0  0  0  0  0  0  0  0  0  0  0
   -2.0706   -1.1910   -0.0005 H   0  0  0  0  0  0  0  0  0  0  0  0
    0.0059   -1.3876   -0.0016 C   0  0  0  0  0  0  0  0  0  0  0  0
   -0.0037   -2.3880   -0.0041 H   0  0  0  0  0  0  0  0  0  0  0  0
    1.1946   -0.6959   -0.0000 C   0  0  0  0  0  0  0  0  0  0  0  0
    2.0814   -1.1920   -0.0029 H   0  0  0  0  0  0  0  0  0  0  0  0
    1.1896    0.6890    0.0076 C   0  0  0  0  0  0  0  0  0  0  0  0
    2.0582    1.1872    0.0252 H   0  0  0  0  0  0  0  0  0  0  0  0
  1  5  1  0
  5  8  1  0
  1  2  1  0
  1  3  1  0
  1  4  1  0
  5  6  1  0
  5  7  1  0
  8  9  1  0
  8 10  1  0
  8 11  1  0
 12 16  1  0
 16 17  2  0
 17 19  1  0
 19 21  2  0
 21 23  1  0
 23 25  2  0
 25 16  1  0
 12 13  1  0
 12 14  1  0
 12 15  1  0
 17 18  1  0
 19 20  1  0
 21 22  1  0
 23 24  1  0
 25 26  1  0
M  CHG  1   8   1
M  END
>  <PDB_ID>  (3111) 
pdb5hvo

>  <RESIDUE_NAME>  (3111) 
LYS   PHE

>  <FRAG_NAME>  (3111) 
ETAM   MBZ

>  <FRAG_ATOM_NUM>  (3111) 
fragi: 11  fragj: 15

>  <atom.prop.CHAIN_ID>  (3111) 
A A A A A A A A A A A Z Z Z Z Z Z Z Z Z Z Z Z Z Z Z

>  <atom.prop.IS_HEAVY_ATOM>  (3111) 
1 0 0 0 1 0 0 1 0 0 0 1 0 0 0 1 1 0 1 0 1 0 1 0 1 0

>  <DIFUSE_FUNC_ATOM>  (3111) 
n/a

>  <FINAL_SINGLE_POINT_ENERGY>  (3111) 
0

>  <NONCOV_INTER_ENERGY_QM>  (3111) 
0

>  <FF_Energy>  (3111) 
-2.26

>  <QM_Energy>  (3111) 
-7.82

>  <source>  (3111) 
ETAM_MBZ

>  <Index>  (3111) 
33937

$$$$
ETAM-pdb6ibu-B-LYS-99:MBZ-pdb6ibu-B-PHE-160
     RDKit          3D

 26 25  0  0  0  0  0  0  0  0999 V2000
    2.0790   -0.0594   -4.1466 C   0  0  0  0  0  0  0  0  0  0  0  0
    2.5344    0.5383   -4.8214 H   0  0  0  0  0  0  0  0  0  0  0  0
    2.0606    0.4275   -3.2625 H   0  0  0  0  0  0  0  0  0  0  0  0
    1.0534   -0.2343   -4.4716 H   0  0  0  0  0  0  0  0  0  0  0  0
    2.8970   -1.3097   -3.9866 C   0  0  0  0  0  0  0  0  0  0  0  0
    2.9239   -1.7993   -4.8577 H   0  0  0  0  0  0  0  0  0  0  0  0
    3.8274   -1.0628   -3.7150 H   0  0  0  0  0  0  0  0  0  0  0  0
    2.2998   -2.1773   -2.9552 N   0  0  0  0  0  4  0  0  0  0  0  0
    2.8635   -2.1569   -2.1275 H   0  0  0  0  0  0  0  0  0  0  0  0
    1.3783   -1.8541   -2.7337 H   0  0  0  0  0  0  0  0  0  0  0  0
    2.2460   -3.1188   -3.2942 H   0  0  0  0  0  0  0  0  0  0  0  0
   -0.0082    2.8761    0.0023 C   0  0  0  0  0  0  0  0  0  0  0  0
    0.8394    3.1958    0.3820 H   0  0  0  0  0  0  0  0  0  0  0  0
   -0.7883    3.1908    0.5107 H   0  0  0  0  0  0  0  0  0  0  0  0
   -0.0899    3.2622   -1.0137 H   0  0  0  0  0  0  0  0  0  0  0  0
   -0.0016    1.3878    0.0256 C   0  0  0  0  0  0  0  0  0  0  0  0
   -1.1956    0.6945   -0.0021 C   0  0  0  0  0  0  0  0  0  0  0  0
   -2.0598    1.1839   -0.0248 H   0  0  0  0  0  0  0  0  0  0  0  0
   -1.1938   -0.6891   -0.0000 C   0  0  0  0  0  0  0  0  0  0  0  0
   -2.0720   -1.1865    0.0128 H   0  0  0  0  0  0  0  0  0  0  0  0
    0.0012   -1.3800   -0.0136 C   0  0  0  0  0  0  0  0  0  0  0  0
   -0.0093   -2.3858   -0.0335 H   0  0  0  0  0  0  0  0  0  0  0  0
    1.1938   -0.6998   -0.0000 C   0  0  0  0  0  0  0  0  0  0  0  0
    2.0767   -1.1995    0.0189 H   0  0  0  0  0  0  0  0  0  0  0  0
    1.1960    0.6867   -0.0099 C   0  0  0  0  0  0  0  0  0  0  0  0
    2.0607    1.1819   -0.0435 H   0  0  0  0  0  0  0  0  0  0  0  0
  1  5  1  0
  5  8  1  0
  1  2  1  0
  1  3  1  0
  1  4  1  0
  5  6  1  0
  5  7  1  0
  8  9  1  0
  8 10  1  0
  8 11  1  0
 12 16  1  0
 16 17  2  0
 17 19  1  0
 19 21  2  0
 21 23  1  0
 23 25  2  0
 25 16  1  0
 12 13  1  0
 12 14  1  0
 12 15  1  0
 17 18  1  0
 19 20  1  0
 21 22  1  0
 23 24  1  0
 25 26  1  0
M  CHG  1   8   1
M  END
>  <PDB_ID>  (3112) 
pdb6ibu

>  <RESIDUE_NAME>  (3112) 
LYS   PHE

>  <FRAG_NAME>  (3112) 
ETAM   MBZ

>  <FRAG_ATOM_NUM>  (3112) 
fragi: 11  fragj: 15

>  <atom.prop.CHAIN_ID>  (3112) 
A A A A A A A A A A A Z Z Z Z Z Z Z Z Z Z Z Z Z Z Z

>  <atom.prop.IS_HEAVY_ATOM>  (3112) 
1 0 0 0 1 0 0 1 0 0 0 1 0 0 0 1 1 0 1 0 1 0 1 0 1 0

>  <DIFUSE_FUNC_ATOM>  (3112) 
n/a

>  <FINAL_SINGLE_POINT_ENERGY>  (3112) 
0

>  <NONCOV_INTER_ENERGY_QM>  (3112) 
0

>  <FF_Energy>  (3112) 
-2.95

>  <QM_Energy>  (3112) 
-8.65

>  <source>  (3112) 
ETAM_MBZ

>  <Index>  (3112) 
33963

$$$$
ETAM-pdb5hw4-C-LYS-73:MBZ-pdb5hw4-C-PHE-63
     RDKit          3D

 26 25  0  0  0  0  0  0  0  0999 V2000
   -2.1327   -3.8542   -2.5188 C   0  0  0  0  0  0  0  0  0  0  0  0
   -2.5427   -4.1292   -3.3804 H   0  0  0  0  0  0  0  0  0  0  0  0
   -2.6297   -3.0911   -2.1225 H   0  0  0  0  0  0  0  0  0  0  0  0
   -2.1672   -4.6964   -1.8276 H   0  0  0  0  0  0  0  0  0  0  0  0
   -0.6939   -3.4078   -2.7874 C   0  0  0  0  0  0  0  0  0  0  0  0
   -0.2665   -3.1503   -1.9129 H   0  0  0  0  0  0  0  0  0  0  0  0
   -0.1808   -4.1822   -3.1754 H   0  0  0  0  0  0  0  0  0  0  0  0
   -0.6032   -2.2442   -3.7335 N   0  0  0  0  0  4  0  0  0  0  0  0
   -1.4996   -2.0864   -4.1415 H   0  0  0  0  0  0  0  0  0  0  0  0
   -0.3138   -1.4356   -3.2270 H   0  0  0  0  0  0  0  0  0  0  0  0
    0.0629   -2.4560   -4.4457 H   0  0  0  0  0  0  0  0  0  0  0  0
    0.0154    2.9167    0.0048 C   0  0  0  0  0  0  0  0  0  0  0  0
    0.9002    3.2077    0.3380 H   0  0  0  0  0  0  0  0  0  0  0  0
   -0.7100    3.2188    0.6064 H   0  0  0  0  0  0  0  0  0  0  0  0
   -0.1439    3.3789   -0.9694 H   0  0  0  0  0  0  0  0  0  0  0  0
    0.0026    1.4044   -0.0127 C   0  0  0  0  0  0  0  0  0  0  0  0
   -1.1915    0.6943    0.0081 C   0  0  0  0  0  0  0  0  0  0  0  0
   -2.0601    1.1807    0.0278 H   0  0  0  0  0  0  0  0  0  0  0  0
   -1.1965   -0.7021   -0.0000 C   0  0  0  0  0  0  0  0  0  0  0  0
   -2.0767   -1.1896   -0.0105 H   0  0  0  0  0  0  0  0  0  0  0  0
   -0.0038   -1.3929    0.0078 C   0  0  0  0  0  0  0  0  0  0  0  0
   -0.0018   -2.3930    0.0185 H   0  0  0  0  0  0  0  0  0  0  0  0
    1.1965   -0.6957    0.0000 C   0  0  0  0  0  0  0  0  0  0  0  0
    2.0778   -1.1952   -0.0023 H   0  0  0  0  0  0  0  0  0  0  0  0
    1.1926    0.6921   -0.0032 C   0  0  0  0  0  0  0  0  0  0  0  0
    2.0645    1.1880    0.0010 H   0  0  0  0  0  0  0  0  0  0  0  0
  1  5  1  0
  5  8  1  0
  1  2  1  0
  1  3  1  0
  1  4  1  0
  5  6  1  0
  5  7  1  0
  8  9  1  0
  8 10  1  0
  8 11  1  0
 12 16  1  0
 16 17  2  0
 17 19  1  0
 19 21  2  0
 21 23  1  0
 23 25  2  0
 25 16  1  0
 12 13  1  0
 12 14  1  0
 12 15  1  0
 17 18  1  0
 19 20  1  0
 21 22  1  0
 23 24  1  0
 25 26  1  0
M  CHG  1   8   1
M  END
>  <PDB_ID>  (3113) 
pdb5hw4

>  <RESIDUE_NAME>  (3113) 
LYS   PHE

>  <FRAG_NAME>  (3113) 
ETAM   MBZ

>  <FRAG_ATOM_NUM>  (3113) 
fragi: 11  fragj: 15

>  <atom.prop.CHAIN_ID>  (3113) 
A A A A A A A A A A A Z Z Z Z Z Z Z Z Z Z Z Z Z Z Z

>  <atom.prop.IS_HEAVY_ATOM>  (3113) 
1 0 0 0 1 0 0 1 0 0 0 1 0 0 0 1 1 0 1 0 1 0 1 0 1 0

>  <DIFUSE_FUNC_ATOM>  (3113) 
n/a

>  <FINAL_SINGLE_POINT_ENERGY>  (3113) 
0

>  <NONCOV_INTER_ENERGY_QM>  (3113) 
0

>  <FF_Energy>  (3113) 
-3.21

>  <QM_Energy>  (3113) 
-8.46

>  <source>  (3113) 
ETAM_MBZ

>  <Index>  (3113) 
33979

$$$$
ETAM-pdb6ihk-A-LYS-500:MBZ-pdb6ihk-A-PHE-496
     RDKit          3D

 26 25  0  0  0  0  0  0  0  0999 V2000
    0.7837   -0.9588    4.6709 C   0  0  0  0  0  0  0  0  0  0  0  0
    1.7179   -1.1916    4.4160 H   0  0  0  0  0  0  0  0  0  0  0  0
    0.3728   -1.7036    5.1882 H   0  0  0  0  0  0  0  0  0  0  0  0
    0.8026   -0.0655    5.2952 H   0  0  0  0  0  0  0  0  0  0  0  0
   -0.0230   -0.7343    3.4148 C   0  0  0  0  0  0  0  0  0  0  0  0
    0.4962   -0.1459    2.7924 H   0  0  0  0  0  0  0  0  0  0  0  0
   -0.1905   -1.6163    2.9696 H   0  0  0  0  0  0  0  0  0  0  0  0
   -1.3208   -0.0906    3.7270 N   0  0  0  0  0  4  0  0  0  0  0  0
   -1.6979   -0.4875    4.5646 H   0  0  0  0  0  0  0  0  0  0  0  0
   -1.1844    0.8919    3.8565 H   0  0  0  0  0  0  0  0  0  0  0  0
   -1.9592   -0.2408    2.9709 H   0  0  0  0  0  0  0  0  0  0  0  0
    0.0118    2.9070   -0.0373 C   0  0  0  0  0  0  0  0  0  0  0  0
   -0.4953    3.1912   -0.8413 H   0  0  0  0  0  0  0  0  0  0  0  0
    0.9578    3.2016   -0.0957 H   0  0  0  0  0  0  0  0  0  0  0  0
   -0.4358    3.3956    0.8282 H   0  0  0  0  0  0  0  0  0  0  0  0
    0.0003    1.3979    0.0078 C   0  0  0  0  0  0  0  0  0  0  0  0
   -1.1898    0.6910   -0.0070 C   0  0  0  0  0  0  0  0  0  0  0  0
   -2.0593    1.1786   -0.0243 H   0  0  0  0  0  0  0  0  0  0  0  0
   -1.1921   -0.6981    0.0000 C   0  0  0  0  0  0  0  0  0  0  0  0
   -2.0713   -1.1909    0.0051 H   0  0  0  0  0  0  0  0  0  0  0  0
    0.0014   -1.3858    0.0013 C   0  0  0  0  0  0  0  0  0  0  0  0
    0.0001   -2.3883    0.0022 H   0  0  0  0  0  0  0  0  0  0  0  0
    1.1921   -0.6925    0.0000 C   0  0  0  0  0  0  0  0  0  0  0  0
    2.0776   -1.1917    0.0018 H   0  0  0  0  0  0  0  0  0  0  0  0
    1.1881    0.6876   -0.0020 C   0  0  0  0  0  0  0  0  0  0  0  0
    2.0602    1.1863   -0.0119 H   0  0  0  0  0  0  0  0  0  0  0  0
  1  5  1  0
  5  8  1  0
  1  2  1  0
  1  3  1  0
  1  4  1  0
  5  6  1  0
  5  7  1  0
  8  9  1  0
  8 10  1  0
  8 11  1  0
 12 16  1  0
 16 17  2  0
 17 19  1  0
 19 21  2  0
 21 23  1  0
 23 25  2  0
 25 16  1  0
 12 13  1  0
 12 14  1  0
 12 15  1  0
 17 18  1  0
 19 20  1  0
 21 22  1  0
 23 24  1  0
 25 26  1  0
M  CHG  1   8   1
M  END
>  <PDB_ID>  (3114) 
pdb6ihk

>  <RESIDUE_NAME>  (3114) 
LYS   PHE

>  <FRAG_NAME>  (3114) 
ETAM   MBZ

>  <FRAG_ATOM_NUM>  (3114) 
fragi: 11  fragj: 15

>  <atom.prop.CHAIN_ID>  (3114) 
A A A A A A A A A A A Z Z Z Z Z Z Z Z Z Z Z Z Z Z Z

>  <atom.prop.IS_HEAVY_ATOM>  (3114) 
1 0 0 0 1 0 0 1 0 0 0 1 0 0 0 1 1 0 1 0 1 0 1 0 1 0

>  <DIFUSE_FUNC_ATOM>  (3114) 
n/a

>  <FINAL_SINGLE_POINT_ENERGY>  (3114) 
0

>  <NONCOV_INTER_ENERGY_QM>  (3114) 
0

>  <FF_Energy>  (3114) 
-6.56

>  <QM_Energy>  (3114) 
-11.62

>  <source>  (3114) 
ETAM_MBZ

>  <Index>  (3114) 
34017

$$$$
ETAM-pdb6ihk-B-LYS-500:MBZ-pdb6ihk-B-PHE-496
     RDKit          3D

 26 25  0  0  0  0  0  0  0  0999 V2000
    1.9469   -0.5306    4.8700 C   0  0  0  0  0  0  0  0  0  0  0  0
    2.3985    0.0628    4.2218 H   0  0  0  0  0  0  0  0  0  0  0  0
    2.3877   -1.4128    4.9220 H   0  0  0  0  0  0  0  0  0  0  0  0
    1.9601   -0.0625    5.8543 H   0  0  0  0  0  0  0  0  0  0  0  0
    0.5142   -0.7282    4.4342 C   0  0  0  0  0  0  0  0  0  0  0  0
    0.1096   -1.4651    4.9742 H   0  0  0  0  0  0  0  0  0  0  0  0
    0.0068    0.1189    4.5922 H   0  0  0  0  0  0  0  0  0  0  0  0
    0.4672   -1.0750    3.0097 N   0  0  0  0  0  4  0  0  0  0  0  0
   -0.0813   -1.9046    2.8777 H   0  0  0  0  0  0  0  0  0  0  0  0
    0.0544   -0.3236    2.4877 H   0  0  0  0  0  0  0  0  0  0  0  0
    1.3950   -1.2394    2.6668 H   0  0  0  0  0  0  0  0  0  0  0  0
    0.0026    2.8933   -0.0033 C   0  0  0  0  0  0  0  0  0  0  0  0
   -0.6352    3.2007   -0.6963 H   0  0  0  0  0  0  0  0  0  0  0  0
    0.9223    3.2012   -0.2032 H   0  0  0  0  0  0  0  0  0  0  0  0
   -0.2976    3.3407    0.9442 H   0  0  0  0  0  0  0  0  0  0  0  0
    0.0011    1.4000    0.0038 C   0  0  0  0  0  0  0  0  0  0  0  0
   -1.1939    0.6940   -0.0003 C   0  0  0  0  0  0  0  0  0  0  0  0
   -2.0610    1.1824   -0.0046 H   0  0  0  0  0  0  0  0  0  0  0  0
   -1.1988   -0.6995    0.0000 C   0  0  0  0  0  0  0  0  0  0  0  0
   -2.0764   -1.1907    0.0032 H   0  0  0  0  0  0  0  0  0  0  0  0
    0.0007   -1.3937   -0.0030 C   0  0  0  0  0  0  0  0  0  0  0  0
   -0.0021   -2.3931   -0.0074 H   0  0  0  0  0  0  0  0  0  0  0  0
    1.1988   -0.6971   -0.0000 C   0  0  0  0  0  0  0  0  0  0  0  0
    2.0816   -1.1911    0.0037 H   0  0  0  0  0  0  0  0  0  0  0  0
    1.1920    0.6963   -0.0004 C   0  0  0  0  0  0  0  0  0  0  0  0
    2.0631    1.1901   -0.0045 H   0  0  0  0  0  0  0  0  0  0  0  0
  1  5  1  0
  5  8  1  0
  1  2  1  0
  1  3  1  0
  1  4  1  0
  5  6  1  0
  5  7  1  0
  8  9  1  0
  8 10  1  0
  8 11  1  0
 12 16  1  0
 16 17  2  0
 17 19  1  0
 19 21  2  0
 21 23  1  0
 23 25  2  0
 25 16  1  0
 12 13  1  0
 12 14  1  0
 12 15  1  0
 17 18  1  0
 19 20  1  0
 21 22  1  0
 23 24  1  0
 25 26  1  0
M  CHG  1   8   1
M  END
>  <PDB_ID>  (3115) 
pdb6ihk

>  <RESIDUE_NAME>  (3115) 
LYS   PHE

>  <FRAG_NAME>  (3115) 
ETAM   MBZ

>  <FRAG_ATOM_NUM>  (3115) 
fragi: 11  fragj: 15

>  <atom.prop.CHAIN_ID>  (3115) 
A A A A A A A A A A A Z Z Z Z Z Z Z Z Z Z Z Z Z Z Z

>  <atom.prop.IS_HEAVY_ATOM>  (3115) 
1 0 0 0 1 0 0 1 0 0 0 1 0 0 0 1 1 0 1 0 1 0 1 0 1 0

>  <DIFUSE_FUNC_ATOM>  (3115) 
n/a

>  <FINAL_SINGLE_POINT_ENERGY>  (3115) 
0

>  <NONCOV_INTER_ENERGY_QM>  (3115) 
0

>  <FF_Energy>  (3115) 
-6.96

>  <QM_Energy>  (3115) 
-14.97

>  <source>  (3115) 
ETAM_MBZ

>  <Index>  (3115) 
34018

$$$$
ETAM-pdb6ii0-C-LYS-3414:MBZ-pdb6ii0-C-PHE-3545
     RDKit          3D

 26 25  0  0  0  0  0  0  0  0999 V2000
    1.0293   -0.8210    4.4624 C   0  0  0  0  0  0  0  0  0  0  0  0
    1.9311   -0.6509    4.8559 H   0  0  0  0  0  0  0  0  0  0  0  0
    1.0935   -1.5344    3.7677 H   0  0  0  0  0  0  0  0  0  0  0  0
    0.3620   -1.1615    5.2541 H   0  0  0  0  0  0  0  0  0  0  0  0
    0.5420    0.4599    3.7965 C   0  0  0  0  0  0  0  0  0  0  0  0
    0.6852    1.2313    4.4331 H   0  0  0  0  0  0  0  0  0  0  0  0
    1.1032    0.6328    2.9736 H   0  0  0  0  0  0  0  0  0  0  0  0
   -0.8972    0.4213    3.3995 N   0  0  0  0  0  4  0  0  0  0  0  0
   -0.9623    0.2933    2.4116 H   0  0  0  0  0  0  0  0  0  0  0  0
   -1.3475   -0.3372    3.8686 H   0  0  0  0  0  0  0  0  0  0  0  0
   -1.3323    1.2826    3.6569 H   0  0  0  0  0  0  0  0  0  0  0  0
   -0.0438    2.9317   -0.0072 C   0  0  0  0  0  0  0  0  0  0  0  0
   -0.8733    3.2158    0.4558 H   0  0  0  0  0  0  0  0  0  0  0  0
   -0.0494    3.2245   -0.9543 H   0  0  0  0  0  0  0  0  0  0  0  0
    0.7936    3.4266    0.4848 H   0  0  0  0  0  0  0  0  0  0  0  0
   -0.0022    1.4108    0.0081 C   0  0  0  0  0  0  0  0  0  0  0  0
   -1.2000    0.6883   -0.0019 C   0  0  0  0  0  0  0  0  0  0  0  0
   -2.0682    1.1781   -0.0115 H   0  0  0  0  0  0  0  0  0  0  0  0
   -1.2009   -0.7017   -0.0000 C   0  0  0  0  0  0  0  0  0  0  0  0
   -2.0769   -1.1976    0.0006 H   0  0  0  0  0  0  0  0  0  0  0  0
    0.0008   -1.3946    0.0029 C   0  0  0  0  0  0  0  0  0  0  0  0
   -0.0004   -2.3939    0.0062 H   0  0  0  0  0  0  0  0  0  0  0  0
    1.2009   -0.6970    0.0000 C   0  0  0  0  0  0  0  0  0  0  0  0
    2.0836   -1.1963    0.0061 H   0  0  0  0  0  0  0  0  0  0  0  0
    1.2014    0.6942   -0.0091 C   0  0  0  0  0  0  0  0  0  0  0  0
    2.0669    1.1910   -0.0291 H   0  0  0  0  0  0  0  0  0  0  0  0
  1  5  1  0
  5  8  1  0
  1  2  1  0
  1  3  1  0
  1  4  1  0
  5  6  1  0
  5  7  1  0
  8  9  1  0
  8 10  1  0
  8 11  1  0
 12 16  1  0
 16 17  2  0
 17 19  1  0
 19 21  2  0
 21 23  1  0
 23 25  2  0
 25 16  1  0
 12 13  1  0
 12 14  1  0
 12 15  1  0
 17 18  1  0
 19 20  1  0
 21 22  1  0
 23 24  1  0
 25 26  1  0
M  CHG  1   8   1
M  END
>  <PDB_ID>  (3116) 
pdb6ii0

>  <RESIDUE_NAME>  (3116) 
LYS   PHE

>  <FRAG_NAME>  (3116) 
ETAM   MBZ

>  <FRAG_ATOM_NUM>  (3116) 
fragi: 11  fragj: 15

>  <atom.prop.CHAIN_ID>  (3116) 
A A A A A A A A A A A Z Z Z Z Z Z Z Z Z Z Z Z Z Z Z

>  <atom.prop.IS_HEAVY_ATOM>  (3116) 
1 0 0 0 1 0 0 1 0 0 0 1 0 0 0 1 1 0 1 0 1 0 1 0 1 0

>  <DIFUSE_FUNC_ATOM>  (3116) 
n/a

>  <FINAL_SINGLE_POINT_ENERGY>  (3116) 
0

>  <NONCOV_INTER_ENERGY_QM>  (3116) 
0

>  <FF_Energy>  (3116) 
-8.77

>  <QM_Energy>  (3116) 
-15.94

>  <source>  (3116) 
ETAM_MBZ

>  <Index>  (3116) 
34024

$$$$
ETAM-pdb5i2h-A-LYS-283:MBZ-pdb5i2h-A-PHE-257
     RDKit          3D

 26 25  0  0  0  0  0  0  0  0999 V2000
    1.7623   -1.9775   -4.1175 C   0  0  0  0  0  0  0  0  0  0  0  0
    2.1483   -2.4161   -4.9172 H   0  0  0  0  0  0  0  0  0  0  0  0
    1.3535   -2.6420   -3.5080 H   0  0  0  0  0  0  0  0  0  0  0  0
    2.5868   -1.5109   -3.5786 H   0  0  0  0  0  0  0  0  0  0  0  0
    0.7041   -0.9634   -4.5515 C   0  0  0  0  0  0  0  0  0  0  0  0
    1.1439   -0.2387   -5.0746 H   0  0  0  0  0  0  0  0  0  0  0  0
    0.0230   -1.4255   -5.1128 H   0  0  0  0  0  0  0  0  0  0  0  0
    0.0278   -0.3627   -3.3537 N   0  0  0  0  0  4  0  0  0  0  0  0
    0.4544    0.5144   -3.1449 H   0  0  0  0  0  0  0  0  0  0  0  0
   -0.9400   -0.2304   -3.5586 H   0  0  0  0  0  0  0  0  0  0  0  0
    0.1293   -0.9825   -2.5788 H   0  0  0  0  0  0  0  0  0  0  0  0
    0.0376    2.9419    0.0155 C   0  0  0  0  0  0  0  0  0  0  0  0
    0.9058    3.2163   -0.3769 H   0  0  0  0  0  0  0  0  0  0  0  0
   -0.0281    3.2275    0.9624 H   0  0  0  0  0  0  0  0  0  0  0  0
   -0.7608    3.4283   -0.5449 H   0  0  0  0  0  0  0  0  0  0  0  0
   -0.0038    1.4158   -0.0009 C   0  0  0  0  0  0  0  0  0  0  0  0
   -1.2172    0.7025    0.0057 C   0  0  0  0  0  0  0  0  0  0  0  0
   -2.0757    1.1970    0.0132 H   0  0  0  0  0  0  0  0  0  0  0  0
   -1.2197   -0.6911   -0.0000 C   0  0  0  0  0  0  0  0  0  0  0  0
   -2.0791   -1.1984   -0.0059 H   0  0  0  0  0  0  0  0  0  0  0  0
    0.0200   -1.4043    0.0041 C   0  0  0  0  0  0  0  0  0  0  0  0
   -0.0015   -2.3975    0.0093 H   0  0  0  0  0  0  0  0  0  0  0  0
    1.2197   -0.7075    0.0000 C   0  0  0  0  0  0  0  0  0  0  0  0
    2.1008   -1.1973    0.0051 H   0  0  0  0  0  0  0  0  0  0  0  0
    1.2010    0.6847   -0.0088 C   0  0  0  0  0  0  0  0  0  0  0  0
    2.0694    1.1903   -0.0220 H   0  0  0  0  0  0  0  0  0  0  0  0
  1  5  1  0
  5  8  1  0
  1  2  1  0
  1  3  1  0
  1  4  1  0
  5  6  1  0
  5  7  1  0
  8  9  1  0
  8 10  1  0
  8 11  1  0
 12 16  1  0
 16 17  2  0
 17 19  1  0
 19 21  2  0
 21 23  1  0
 23 25  2  0
 25 16  1  0
 12 13  1  0
 12 14  1  0
 12 15  1  0
 17 18  1  0
 19 20  1  0
 21 22  1  0
 23 24  1  0
 25 26  1  0
M  CHG  1   8   1
M  END
>  <PDB_ID>  (3117) 
pdb5i2h

>  <RESIDUE_NAME>  (3117) 
LYS   PHE

>  <FRAG_NAME>  (3117) 
ETAM   MBZ

>  <FRAG_ATOM_NUM>  (3117) 
fragi: 11  fragj: 15

>  <atom.prop.CHAIN_ID>  (3117) 
A A A A A A A A A A A Z Z Z Z Z Z Z Z Z Z Z Z Z Z Z

>  <atom.prop.IS_HEAVY_ATOM>  (3117) 
1 0 0 0 1 0 0 1 0 0 0 1 0 0 0 1 1 0 1 0 1 0 1 0 1 0

>  <DIFUSE_FUNC_ATOM>  (3117) 
n/a

>  <FINAL_SINGLE_POINT_ENERGY>  (3117) 
0

>  <NONCOV_INTER_ENERGY_QM>  (3117) 
0

>  <FF_Energy>  (3117) 
-8.43

>  <QM_Energy>  (3117) 
-15.68

>  <source>  (3117) 
ETAM_MBZ

>  <Index>  (3117) 
34027

$$$$
ETAM-pdb5i2h-B-LYS-283:MBZ-pdb5i2h-B-PHE-257
     RDKit          3D

 26 25  0  0  0  0  0  0  0  0999 V2000
    1.9751   -1.8373   -4.0977 C   0  0  0  0  0  0  0  0  0  0  0  0
    2.3505   -2.2400   -4.9280 H   0  0  0  0  0  0  0  0  0  0  0  0
    1.5731   -2.5461   -3.5249 H   0  0  0  0  0  0  0  0  0  0  0  0
    2.7856   -1.3611   -3.5459 H   0  0  0  0  0  0  0  0  0  0  0  0
    0.8761   -0.8481   -4.4898 C   0  0  0  0  0  0  0  0  0  0  0  0
    1.2993   -0.0568   -4.9456 H   0  0  0  0  0  0  0  0  0  0  0  0
    0.2541   -1.2957   -5.1431 H   0  0  0  0  0  0  0  0  0  0  0  0
    0.0745   -0.3590   -3.3146 N   0  0  0  0  0  4  0  0  0  0  0  0
    0.1968    0.6263   -3.2278 H   0  0  0  0  0  0  0  0  0  0  0  0
   -0.8878   -0.5714   -3.4680 H   0  0  0  0  0  0  0  0  0  0  0  0
    0.3974   -0.8172   -2.4904 H   0  0  0  0  0  0  0  0  0  0  0  0
    0.0062    2.9369    0.0643 C   0  0  0  0  0  0  0  0  0  0  0  0
    0.8567    3.2356   -0.3429 H   0  0  0  0  0  0  0  0  0  0  0  0
   -0.0496    3.2061    1.0146 H   0  0  0  0  0  0  0  0  0  0  0  0
   -0.8163    3.4083   -0.4736 H   0  0  0  0  0  0  0  0  0  0  0  0
   -0.0030    1.4093    0.0242 C   0  0  0  0  0  0  0  0  0  0  0  0
   -1.2063    0.6932    0.0040 C   0  0  0  0  0  0  0  0  0  0  0  0
   -2.0706    1.1905   -0.0092 H   0  0  0  0  0  0  0  0  0  0  0  0
   -1.2131   -0.6913   -0.0000 C   0  0  0  0  0  0  0  0  0  0  0  0
   -2.0800   -1.1952    0.0160 H   0  0  0  0  0  0  0  0  0  0  0  0
    0.0104   -1.4054   -0.0245 C   0  0  0  0  0  0  0  0  0  0  0  0
   -0.0021   -2.3935   -0.0591 H   0  0  0  0  0  0  0  0  0  0  0  0
    1.2131   -0.6993    0.0000 C   0  0  0  0  0  0  0  0  0  0  0  0
    2.0944   -1.1925    0.0216 H   0  0  0  0  0  0  0  0  0  0  0  0
    1.1988    0.6935   -0.0037 C   0  0  0  0  0  0  0  0  0  0  0  0
    2.0658    1.1958   -0.0276 H   0  0  0  0  0  0  0  0  0  0  0  0
  1  5  1  0
  5  8  1  0
  1  2  1  0
  1  3  1  0
  1  4  1  0
  5  6  1  0
  5  7  1  0
  8  9  1  0
  8 10  1  0
  8 11  1  0
 12 16  1  0
 16 17  2  0
 17 19  1  0
 19 21  2  0
 21 23  1  0
 23 25  2  0
 25 16  1  0
 12 13  1  0
 12 14  1  0
 12 15  1  0
 17 18  1  0
 19 20  1  0
 21 22  1  0
 23 24  1  0
 25 26  1  0
M  CHG  1   8   1
M  END
>  <PDB_ID>  (3118) 
pdb5i2h

>  <RESIDUE_NAME>  (3118) 
LYS   PHE

>  <FRAG_NAME>  (3118) 
ETAM   MBZ

>  <FRAG_ATOM_NUM>  (3118) 
fragi: 11  fragj: 15

>  <atom.prop.CHAIN_ID>  (3118) 
A A A A A A A A A A A Z Z Z Z Z Z Z Z Z Z Z Z Z Z Z

>  <atom.prop.IS_HEAVY_ATOM>  (3118) 
1 0 0 0 1 0 0 1 0 0 0 1 0 0 0 1 1 0 1 0 1 0 1 0 1 0

>  <DIFUSE_FUNC_ATOM>  (3118) 
n/a

>  <FINAL_SINGLE_POINT_ENERGY>  (3118) 
0

>  <NONCOV_INTER_ENERGY_QM>  (3118) 
0

>  <FF_Energy>  (3118) 
-8.58

>  <QM_Energy>  (3118) 
-15.99

>  <source>  (3118) 
ETAM_MBZ

>  <Index>  (3118) 
34028

$$$$
ETAM-pdb6iik-A-LYS-366:MBZ-pdb6iik-A-PHE-406
     RDKit          3D

 26 25  0  0  0  0  0  0  0  0999 V2000
    0.3243   -1.3044    3.6408 C   0  0  0  0  0  0  0  0  0  0  0  0
    0.6999   -1.4965    4.5477 H   0  0  0  0  0  0  0  0  0  0  0  0
    0.9493   -1.6497    2.9409 H   0  0  0  0  0  0  0  0  0  0  0  0
   -0.6241   -1.8329    3.5446 H   0  0  0  0  0  0  0  0  0  0  0  0
    0.2124    0.2271    3.4771 C   0  0  0  0  0  0  0  0  0  0  0  0
   -0.3536    0.4267    2.6728 H   0  0  0  0  0  0  0  0  0  0  0  0
   -0.2340    0.6093    4.2907 H   0  0  0  0  0  0  0  0  0  0  0  0
    1.5643    0.9205    3.2992 N   0  0  0  0  0  4  0  0  0  0  0  0
    1.4737    1.8609    3.6044 H   0  0  0  0  0  0  0  0  0  0  0  0
    2.2359    0.4374    3.8472 H   0  0  0  0  0  0  0  0  0  0  0  0
    1.8073    0.8855    2.3375 H   0  0  0  0  0  0  0  0  0  0  0  0
    0.0076    2.9113    0.0327 C   0  0  0  0  0  0  0  0  0  0  0  0
    0.9515    3.2138    0.0420 H   0  0  0  0  0  0  0  0  0  0  0  0
   -0.4626    3.1967    0.8576 H   0  0  0  0  0  0  0  0  0  0  0  0
   -0.4854    3.3941   -0.8111 H   0  0  0  0  0  0  0  0  0  0  0  0
    0.0009    1.4064   -0.0100 C   0  0  0  0  0  0  0  0  0  0  0  0
   -1.1963    0.6942    0.0115 C   0  0  0  0  0  0  0  0  0  0  0  0
   -2.0639    1.1823    0.0340 H   0  0  0  0  0  0  0  0  0  0  0  0
   -1.2051   -0.7045   -0.0000 C   0  0  0  0  0  0  0  0  0  0  0  0
   -2.0803   -1.1932    0.0003 H   0  0  0  0  0  0  0  0  0  0  0  0
   -0.0003   -1.4000   -0.0099 C   0  0  0  0  0  0  0  0  0  0  0  0
   -0.0010   -2.3974   -0.0247 H   0  0  0  0  0  0  0  0  0  0  0  0
    1.2051   -0.6985    0.0000 C   0  0  0  0  0  0  0  0  0  0  0  0
    2.0857   -1.1910    0.0031 H   0  0  0  0  0  0  0  0  0  0  0  0
    1.1958    0.7024    0.0084 C   0  0  0  0  0  0  0  0  0  0  0  0
    2.0655    1.1958    0.0271 H   0  0  0  0  0  0  0  0  0  0  0  0
  1  5  1  0
  5  8  1  0
  1  2  1  0
  1  3  1  0
  1  4  1  0
  5  6  1  0
  5  7  1  0
  8  9  1  0
  8 10  1  0
  8 11  1  0
 12 16  1  0
 16 17  2  0
 17 19  1  0
 19 21  2  0
 21 23  1  0
 23 25  2  0
 25 16  1  0
 12 13  1  0
 12 14  1  0
 12 15  1  0
 17 18  1  0
 19 20  1  0
 21 22  1  0
 23 24  1  0
 25 26  1  0
M  CHG  1   8   1
M  END
>  <PDB_ID>  (3119) 
pdb6iik

>  <RESIDUE_NAME>  (3119) 
LYS   PHE

>  <FRAG_NAME>  (3119) 
ETAM   MBZ

>  <FRAG_ATOM_NUM>  (3119) 
fragi: 11  fragj: 15

>  <atom.prop.CHAIN_ID>  (3119) 
A A A A A A A A A A A Z Z Z Z Z Z Z Z Z Z Z Z Z Z Z

>  <atom.prop.IS_HEAVY_ATOM>  (3119) 
1 0 0 0 1 0 0 1 0 0 0 1 0 0 0 1 1 0 1 0 1 0 1 0 1 0

>  <DIFUSE_FUNC_ATOM>  (3119) 
n/a

>  <FINAL_SINGLE_POINT_ENERGY>  (3119) 
0

>  <NONCOV_INTER_ENERGY_QM>  (3119) 
0

>  <FF_Energy>  (3119) 
-7.14

>  <QM_Energy>  (3119) 
-14.06

>  <source>  (3119) 
ETAM_MBZ

>  <Index>  (3119) 
34029

$$$$
ETAM-pdb6iik-B-LYS-366:MBZ-pdb6iik-B-PHE-406
     RDKit          3D

 26 25  0  0  0  0  0  0  0  0999 V2000
    0.1885   -1.3297    3.7541 C   0  0  0  0  0  0  0  0  0  0  0  0
    0.5682   -1.5518    4.6471 H   0  0  0  0  0  0  0  0  0  0  0  0
    0.8549   -1.5209    3.0402 H   0  0  0  0  0  0  0  0  0  0  0  0
   -0.6926   -1.9490    3.5859 H   0  0  0  0  0  0  0  0  0  0  0  0
   -0.1409    0.1633    3.7238 C   0  0  0  0  0  0  0  0  0  0  0  0
   -0.8744    0.3209    3.0609 H   0  0  0  0  0  0  0  0  0  0  0  0
   -0.4510    0.4469    4.6329 H   0  0  0  0  0  0  0  0  0  0  0  0
    1.0527    0.9943    3.3360 N   0  0  0  0  0  4  0  0  0  0  0  0
    1.4865    1.3425    4.1634 H   0  0  0  0  0  0  0  0  0  0  0  0
    1.6932    0.4232    2.8292 H   0  0  0  0  0  0  0  0  0  0  0  0
    0.7472    1.7527    2.7659 H   0  0  0  0  0  0  0  0  0  0  0  0
   -0.0069    2.8861    0.0117 C   0  0  0  0  0  0  0  0  0  0  0  0
    0.9325    3.2021   -0.0031 H   0  0  0  0  0  0  0  0  0  0  0  0
   -0.4694    3.1872    0.8348 H   0  0  0  0  0  0  0  0  0  0  0  0
   -0.5201    3.3356   -0.8384 H   0  0  0  0  0  0  0  0  0  0  0  0
   -0.0003    1.3967   -0.0045 C   0  0  0  0  0  0  0  0  0  0  0  0
   -1.1969    0.6832    0.0033 C   0  0  0  0  0  0  0  0  0  0  0  0
   -2.0641    1.1751    0.0095 H   0  0  0  0  0  0  0  0  0  0  0  0
   -1.2007   -0.7033    0.0000 C   0  0  0  0  0  0  0  0  0  0  0  0
   -2.0751   -1.1999   -0.0003 H   0  0  0  0  0  0  0  0  0  0  0  0
    0.0011   -1.3910   -0.0015 C   0  0  0  0  0  0  0  0  0  0  0  0
    0.0048   -2.3900   -0.0044 H   0  0  0  0  0  0  0  0  0  0  0  0
    1.2007   -0.6879    0.0000 C   0  0  0  0  0  0  0  0  0  0  0  0
    2.0839   -1.1852    0.0011 H   0  0  0  0  0  0  0  0  0  0  0  0
    1.1962    0.7023    0.0028 C   0  0  0  0  0  0  0  0  0  0  0  0
    2.0622    1.1987    0.0095 H   0  0  0  0  0  0  0  0  0  0  0  0
  1  5  1  0
  5  8  1  0
  1  2  1  0
  1  3  1  0
  1  4  1  0
  5  6  1  0
  5  7  1  0
  8  9  1  0
  8 10  1  0
  8 11  1  0
 12 16  1  0
 16 17  2  0
 17 19  1  0
 19 21  2  0
 21 23  1  0
 23 25  2  0
 25 16  1  0
 12 13  1  0
 12 14  1  0
 12 15  1  0
 17 18  1  0
 19 20  1  0
 21 22  1  0
 23 24  1  0
 25 26  1  0
M  CHG  1   8   1
M  END
>  <PDB_ID>  (3120) 
pdb6iik

>  <RESIDUE_NAME>  (3120) 
LYS   PHE

>  <FRAG_NAME>  (3120) 
ETAM   MBZ

>  <FRAG_ATOM_NUM>  (3120) 
fragi: 11  fragj: 15

>  <atom.prop.CHAIN_ID>  (3120) 
A A A A A A A A A A A Z Z Z Z Z Z Z Z Z Z Z Z Z Z Z

>  <atom.prop.IS_HEAVY_ATOM>  (3120) 
1 0 0 0 1 0 0 1 0 0 0 1 0 0 0 1 1 0 1 0 1 0 1 0 1 0

>  <DIFUSE_FUNC_ATOM>  (3120) 
n/a

>  <FINAL_SINGLE_POINT_ENERGY>  (3120) 
0

>  <NONCOV_INTER_ENERGY_QM>  (3120) 
0

>  <FF_Energy>  (3120) 
-7.99

>  <QM_Energy>  (3120) 
-13.4

>  <source>  (3120) 
ETAM_MBZ

>  <Index>  (3120) 
34030

$$$$
ETAM-pdb5i2m-B-LYS-1:MBZ-pdb5i2m-C-PHE-189
     RDKit          3D

 26 25  0  0  0  0  0  0  0  0999 V2000
    3.0517   -2.0690    2.2763 C   0  0  0  0  0  0  0  0  0  0  0  0
    2.5971   -2.1853    1.3952 H   0  0  0  0  0  0  0  0  0  0  0  0
    2.6120   -1.3328    2.7876 H   0  0  0  0  0  0  0  0  0  0  0  0
    2.9731   -2.9961    2.8440 H   0  0  0  0  0  0  0  0  0  0  0  0
    4.5131   -1.6493    2.0039 C   0  0  0  0  0  0  0  0  0  0  0  0
    4.9075   -1.2879    2.8810 H   0  0  0  0  0  0  0  0  0  0  0  0
    5.0531   -2.4978    1.7950 H   0  0  0  0  0  0  0  0  0  0  0  0
    4.7738   -0.6411    0.9147 N   0  0  0  0  0  4  0  0  0  0  0  0
    5.3410   -1.0639    0.2129 H   0  0  0  0  0  0  0  0  0  0  0  0
    3.9028   -0.3563    0.5242 H   0  0  0  0  0  0  0  0  0  0  0  0
    5.2453    0.1433    1.3088 H   0  0  0  0  0  0  0  0  0  0  0  0
   -0.0025    2.8945   -0.0201 C   0  0  0  0  0  0  0  0  0  0  0  0
   -0.7505    3.1935   -0.5960 H   0  0  0  0  0  0  0  0  0  0  0  0
    0.8677    3.2005   -0.3802 H   0  0  0  0  0  0  0  0  0  0  0  0
   -0.1354    3.3460    0.9631 H   0  0  0  0  0  0  0  0  0  0  0  0
    0.0022    1.3941   -0.0092 C   0  0  0  0  0  0  0  0  0  0  0  0
   -1.1942    0.6814   -0.0120 C   0  0  0  0  0  0  0  0  0  0  0  0
   -2.0610    1.1757   -0.0239 H   0  0  0  0  0  0  0  0  0  0  0  0
   -1.2011   -0.7035   -0.0000 C   0  0  0  0  0  0  0  0  0  0  0  0
   -2.0807   -1.1952    0.0001 H   0  0  0  0  0  0  0  0  0  0  0  0
   -0.0093   -1.3912    0.0131 C   0  0  0  0  0  0  0  0  0  0  0  0
    0.0071   -2.3860    0.0314 H   0  0  0  0  0  0  0  0  0  0  0  0
    1.2011   -0.6746   -0.0000 C   0  0  0  0  0  0  0  0  0  0  0  0
    2.0794   -1.1894   -0.0146 H   0  0  0  0  0  0  0  0  0  0  0  0
    1.2012    0.6938    0.0082 C   0  0  0  0  0  0  0  0  0  0  0  0
    2.0636    1.1994    0.0259 H   0  0  0  0  0  0  0  0  0  0  0  0
  1  5  1  0
  5  8  1  0
  1  2  1  0
  1  3  1  0
  1  4  1  0
  5  6  1  0
  5  7  1  0
  8  9  1  0
  8 10  1  0
  8 11  1  0
 12 16  1  0
 16 17  2  0
 17 19  1  0
 19 21  2  0
 21 23  1  0
 23 25  2  0
 25 16  1  0
 12 13  1  0
 12 14  1  0
 12 15  1  0
 17 18  1  0
 19 20  1  0
 21 22  1  0
 23 24  1  0
 25 26  1  0
M  CHG  1   8   1
M  END
>  <PDB_ID>  (3121) 
pdb5i2m

>  <RESIDUE_NAME>  (3121) 
LYS   PHE

>  <FRAG_NAME>  (3121) 
ETAM   MBZ

>  <FRAG_ATOM_NUM>  (3121) 
fragi: 11  fragj: 15

>  <atom.prop.CHAIN_ID>  (3121) 
A A A A A A A A A A A Z Z Z Z Z Z Z Z Z Z Z Z Z Z Z

>  <atom.prop.IS_HEAVY_ATOM>  (3121) 
1 0 0 0 1 0 0 1 0 0 0 1 0 0 0 1 1 0 1 0 1 0 1 0 1 0

>  <DIFUSE_FUNC_ATOM>  (3121) 
n/a

>  <FINAL_SINGLE_POINT_ENERGY>  (3121) 
0

>  <NONCOV_INTER_ENERGY_QM>  (3121) 
0

>  <FF_Energy>  (3121) 
4.89

>  <QM_Energy>  (3121) 
-1.73

>  <source>  (3121) 
ETAM_MBZ

>  <Index>  (3121) 
34037

$$$$
ETAM-pdb5i2m-C-LYS-1:MBZ-pdb5i2m-A-PHE-189
     RDKit          3D

 26 25  0  0  0  0  0  0  0  0999 V2000
    3.0689   -2.2538    2.3350 C   0  0  0  0  0  0  0  0  0  0  0  0
    2.4515   -2.8110    1.8005 H   0  0  0  0  0  0  0  0  0  0  0  0
    2.5875   -1.5257    2.8000 H   0  0  0  0  0  0  0  0  0  0  0  0
    3.5798   -2.8788    3.0674 H   0  0  0  0  0  0  0  0  0  0  0  0
    4.0873   -1.6096    1.3680 C   0  0  0  0  0  0  0  0  0  0  0  0
    4.3896   -2.3188    0.7113 H   0  0  0  0  0  0  0  0  0  0  0  0
    3.6082   -0.8905    0.8397 H   0  0  0  0  0  0  0  0  0  0  0  0
    5.2853   -1.0135    2.0308 N   0  0  0  0  0  4  0  0  0  0  0  0
    5.0355   -0.7074    2.9479 H   0  0  0  0  0  0  0  0  0  0  0  0
    6.0056   -1.7031    2.0899 H   0  0  0  0  0  0  0  0  0  0  0  0
    5.6063   -0.2360    1.4925 H   0  0  0  0  0  0  0  0  0  0  0  0
   -0.0034    2.9308   -0.0176 C   0  0  0  0  0  0  0  0  0  0  0  0
   -0.7527    3.2264   -0.5890 H   0  0  0  0  0  0  0  0  0  0  0  0
    0.8660    3.2316   -0.3761 H   0  0  0  0  0  0  0  0  0  0  0  0
   -0.1341    3.3757    0.9688 H   0  0  0  0  0  0  0  0  0  0  0  0
   -0.0001    1.4190   -0.0066 C   0  0  0  0  0  0  0  0  0  0  0  0
   -1.1978    0.6997   -0.0022 C   0  0  0  0  0  0  0  0  0  0  0  0
   -2.0670    1.1794   -0.0018 H   0  0  0  0  0  0  0  0  0  0  0  0
   -1.1989   -0.7105    0.0000 C   0  0  0  0  0  0  0  0  0  0  0  0
   -2.0769   -1.1972    0.0032 H   0  0  0  0  0  0  0  0  0  0  0  0
    0.0049   -1.4119   -0.0010 C   0  0  0  0  0  0  0  0  0  0  0  0
    0.0004   -2.4068   -0.0028 H   0  0  0  0  0  0  0  0  0  0  0  0
    1.1989   -0.7082    0.0000 C   0  0  0  0  0  0  0  0  0  0  0  0
    2.0880   -1.1889   -0.0045 H   0  0  0  0  0  0  0  0  0  0  0  0
    1.1930    0.7119    0.0099 C   0  0  0  0  0  0  0  0  0  0  0  0
    2.0649    1.1933    0.0283 H   0  0  0  0  0  0  0  0  0  0  0  0
  1  5  1  0
  5  8  1  0
  1  2  1  0
  1  3  1  0
  1  4  1  0
  5  6  1  0
  5  7  1  0
  8  9  1  0
  8 10  1  0
  8 11  1  0
 12 16  1  0
 16 17  2  0
 17 19  1  0
 19 21  2  0
 21 23  1  0
 23 25  2  0
 25 16  1  0
 12 13  1  0
 12 14  1  0
 12 15  1  0
 17 18  1  0
 19 20  1  0
 21 22  1  0
 23 24  1  0
 25 26  1  0
M  CHG  1   8   1
M  END
>  <PDB_ID>  (3122) 
pdb5i2m

>  <RESIDUE_NAME>  (3122) 
LYS   PHE

>  <FRAG_NAME>  (3122) 
ETAM   MBZ

>  <FRAG_ATOM_NUM>  (3122) 
fragi: 11  fragj: 15

>  <atom.prop.CHAIN_ID>  (3122) 
A A A A A A A A A A A Z Z Z Z Z Z Z Z Z Z Z Z Z Z Z

>  <atom.prop.IS_HEAVY_ATOM>  (3122) 
1 0 0 0 1 0 0 1 0 0 0 1 0 0 0 1 1 0 1 0 1 0 1 0 1 0

>  <DIFUSE_FUNC_ATOM>  (3122) 
n/a

>  <FINAL_SINGLE_POINT_ENERGY>  (3122) 
0

>  <NONCOV_INTER_ENERGY_QM>  (3122) 
0

>  <FF_Energy>  (3122) 
6.64

>  <QM_Energy>  (3122) 
-1.36

>  <source>  (3122) 
ETAM_MBZ

>  <Index>  (3122) 
34039

$$$$
ETAM-pdb5i4a-A-LYS-229:MBZ-pdb5i4a-A-PHE-116
     RDKit          3D

 26 25  0  0  0  0  0  0  0  0999 V2000
    1.7116   -3.7433   -3.1679 C   0  0  0  0  0  0  0  0  0  0  0  0
    0.8946   -4.0945   -3.6130 H   0  0  0  0  0  0  0  0  0  0  0  0
    1.5801   -3.6996   -2.1837 H   0  0  0  0  0  0  0  0  0  0  0  0
    2.5462   -4.4100   -3.3845 H   0  0  0  0  0  0  0  0  0  0  0  0
    1.9847   -2.3498   -3.6839 C   0  0  0  0  0  0  0  0  0  0  0  0
    2.6612   -1.9059   -3.0890 H   0  0  0  0  0  0  0  0  0  0  0  0
    2.3632   -2.4104   -4.6126 H   0  0  0  0  0  0  0  0  0  0  0  0
    0.7504   -1.5231   -3.7170 N   0  0  0  0  0  4  0  0  0  0  0  0
    0.9866   -0.5815   -3.9565 H   0  0  0  0  0  0  0  0  0  0  0  0
    0.1198   -1.8931   -4.3997 H   0  0  0  0  0  0  0  0  0  0  0  0
    0.3147   -1.5390   -2.8175 H   0  0  0  0  0  0  0  0  0  0  0  0
    0.0008    2.9023   -0.0139 C   0  0  0  0  0  0  0  0  0  0  0  0
   -0.7979    3.2036   -0.5150 H   0  0  0  0  0  0  0  0  0  0  0  0
    0.8346    3.2028   -0.4534 H   0  0  0  0  0  0  0  0  0  0  0  0
   -0.0360    3.3649    0.9724 H   0  0  0  0  0  0  0  0  0  0  0  0
   -0.0002    1.3960    0.0057 C   0  0  0  0  0  0  0  0  0  0  0  0
   -1.1928    0.6872   -0.0046 C   0  0  0  0  0  0  0  0  0  0  0  0
   -2.0604    1.1793   -0.0167 H   0  0  0  0  0  0  0  0  0  0  0  0
   -1.1952   -0.6950    0.0000 C   0  0  0  0  0  0  0  0  0  0  0  0
   -2.0724   -1.1917    0.0030 H   0  0  0  0  0  0  0  0  0  0  0  0
    0.0012   -1.3856    0.0019 C   0  0  0  0  0  0  0  0  0  0  0  0
   -0.0017   -2.3872    0.0036 H   0  0  0  0  0  0  0  0  0  0  0  0
    1.1952   -0.6928   -0.0000 C   0  0  0  0  0  0  0  0  0  0  0  0
    2.0787   -1.1919    0.0023 H   0  0  0  0  0  0  0  0  0  0  0  0
    1.1918    0.6902   -0.0030 C   0  0  0  0  0  0  0  0  0  0  0  0
    2.0608    1.1882   -0.0120 H   0  0  0  0  0  0  0  0  0  0  0  0
  1  5  1  0
  5  8  1  0
  1  2  1  0
  1  3  1  0
  1  4  1  0
  5  6  1  0
  5  7  1  0
  8  9  1  0
  8 10  1  0
  8 11  1  0
 12 16  1  0
 16 17  2  0
 17 19  1  0
 19 21  2  0
 21 23  1  0
 23 25  2  0
 25 16  1  0
 12 13  1  0
 12 14  1  0
 12 15  1  0
 17 18  1  0
 19 20  1  0
 21 22  1  0
 23 24  1  0
 25 26  1  0
M  CHG  1   8   1
M  END
>  <PDB_ID>  (3123) 
pdb5i4a

>  <RESIDUE_NAME>  (3123) 
LYS   PHE

>  <FRAG_NAME>  (3123) 
ETAM   MBZ

>  <FRAG_ATOM_NUM>  (3123) 
fragi: 11  fragj: 15

>  <atom.prop.CHAIN_ID>  (3123) 
A A A A A A A A A A A Z Z Z Z Z Z Z Z Z Z Z Z Z Z Z

>  <atom.prop.IS_HEAVY_ATOM>  (3123) 
1 0 0 0 1 0 0 1 0 0 0 1 0 0 0 1 1 0 1 0 1 0 1 0 1 0

>  <DIFUSE_FUNC_ATOM>  (3123) 
n/a

>  <FINAL_SINGLE_POINT_ENERGY>  (3123) 
0

>  <NONCOV_INTER_ENERGY_QM>  (3123) 
0

>  <FF_Energy>  (3123) 
-5.31

>  <QM_Energy>  (3123) 
-10.95

>  <source>  (3123) 
ETAM_MBZ

>  <Index>  (3123) 
34055

$$$$
ETAM-pdb6ik9-C-LYS-73:MBZ-pdb6ik9-C-PHE-130
     RDKit          3D

 26 25  0  0  0  0  0  0  0  0999 V2000
    1.7205   -2.9649    4.4168 C   0  0  0  0  0  0  0  0  0  0  0  0
    2.4613   -3.5982    4.2180 H   0  0  0  0  0  0  0  0  0  0  0  0
    0.8769   -3.4615    4.5889 H   0  0  0  0  0  0  0  0  0  0  0  0
    1.9789   -2.3876    5.3046 H   0  0  0  0  0  0  0  0  0  0  0  0
    1.5162   -2.0632    3.2151 C   0  0  0  0  0  0  0  0  0  0  0  0
    2.4015   -1.6729    2.9440 H   0  0  0  0  0  0  0  0  0  0  0  0
    1.1604   -2.6110    2.4512 H   0  0  0  0  0  0  0  0  0  0  0  0
    0.5632   -0.9533    3.5018 N   0  0  0  0  0  4  0  0  0  0  0  0
    0.7211   -0.2078    2.8566 H   0  0  0  0  0  0  0  0  0  0  0  0
   -0.3732   -1.2885    3.4044 H   0  0  0  0  0  0  0  0  0  0  0  0
    0.7080   -0.6264    4.4345 H   0  0  0  0  0  0  0  0  0  0  0  0
    0.0016    2.8975    0.0054 C   0  0  0  0  0  0  0  0  0  0  0  0
    0.8812    3.2006    0.3433 H   0  0  0  0  0  0  0  0  0  0  0  0
   -0.7323    3.2012    0.5961 H   0  0  0  0  0  0  0  0  0  0  0  0
   -0.1516    3.3521   -0.9734 H   0  0  0  0  0  0  0  0  0  0  0  0
   -0.0002    1.3939   -0.0059 C   0  0  0  0  0  0  0  0  0  0  0  0
   -1.1923    0.6882    0.0025 C   0  0  0  0  0  0  0  0  0  0  0  0
   -2.0598    1.1808    0.0095 H   0  0  0  0  0  0  0  0  0  0  0  0
   -1.1933   -0.6909    0.0000 C   0  0  0  0  0  0  0  0  0  0  0  0
   -2.0718   -1.1895   -0.0044 H   0  0  0  0  0  0  0  0  0  0  0  0
    0.0017   -1.3819    0.0053 C   0  0  0  0  0  0  0  0  0  0  0  0
   -0.0050   -2.3856    0.0129 H   0  0  0  0  0  0  0  0  0  0  0  0
    1.1933   -0.6943    0.0000 C   0  0  0  0  0  0  0  0  0  0  0  0
    2.0775   -1.1947   -0.0009 H   0  0  0  0  0  0  0  0  0  0  0  0
    1.1908    0.6851   -0.0020 C   0  0  0  0  0  0  0  0  0  0  0  0
    2.0612    1.1839   -0.0016 H   0  0  0  0  0  0  0  0  0  0  0  0
  1  5  1  0
  5  8  1  0
  1  2  1  0
  1  3  1  0
  1  4  1  0
  5  6  1  0
  5  7  1  0
  8  9  1  0
  8 10  1  0
  8 11  1  0
 12 16  1  0
 16 17  2  0
 17 19  1  0
 19 21  2  0
 21 23  1  0
 23 25  2  0
 25 16  1  0
 12 13  1  0
 12 14  1  0
 12 15  1  0
 17 18  1  0
 19 20  1  0
 21 22  1  0
 23 24  1  0
 25 26  1  0
M  CHG  1   8   1
M  END
>  <PDB_ID>  (3124) 
pdb6ik9

>  <RESIDUE_NAME>  (3124) 
LYS   PHE

>  <FRAG_NAME>  (3124) 
ETAM   MBZ

>  <FRAG_ATOM_NUM>  (3124) 
fragi: 11  fragj: 15

>  <atom.prop.CHAIN_ID>  (3124) 
A A A A A A A A A A A Z Z Z Z Z Z Z Z Z Z Z Z Z Z Z

>  <atom.prop.IS_HEAVY_ATOM>  (3124) 
1 0 0 0 1 0 0 1 0 0 0 1 0 0 0 1 1 0 1 0 1 0 1 0 1 0

>  <DIFUSE_FUNC_ATOM>  (3124) 
n/a

>  <FINAL_SINGLE_POINT_ENERGY>  (3124) 
0

>  <NONCOV_INTER_ENERGY_QM>  (3124) 
0

>  <FF_Energy>  (3124) 
-6.81

>  <QM_Energy>  (3124) 
-12.77

>  <source>  (3124) 
ETAM_MBZ

>  <Index>  (3124) 
34058

$$$$
ETAM-pdb6imw-B-GLU-24:MBZ-pdb6imw-B-PHE-51
     RDKit          3D

 26 25  0  0  0  0  0  0  0  0999 V2000
   -0.8346   -2.4393   -5.9147 C   0  0  0  0  0  0  0  0  0  0  0  0
   -0.4642   -2.9141   -6.6958 H   0  0  0  0  0  0  0  0  0  0  0  0
   -1.5847   -2.9347   -5.5091 H   0  0  0  0  0  0  0  0  0  0  0  0
   -1.2188   -1.4800   -6.2613 H   0  0  0  0  0  0  0  0  0  0  0  0
    0.2764   -2.3390   -4.8657 C   0  0  0  0  0  0  0  0  0  0  0  0
    0.6034   -3.2990   -4.8358 H   0  0  0  0  0  0  0  0  0  0  0  0
    1.0913   -1.6894   -5.1855 H   0  0  0  0  0  0  0  0  0  0  0  0
   -0.2787   -1.9783   -3.5408 N   0  0  0  0  0  4  0  0  0  0  0  0
   -1.1501   -1.5077   -3.6635 H   0  0  0  0  0  0  0  0  0  0  0  0
   -0.4197   -2.8077   -3.0034 H   0  0  0  0  0  0  0  0  0  0  0  0
    0.3615   -1.3775   -3.0657 H   0  0  0  0  0  0  0  0  0  0  0  0
   -0.0118    2.9044    0.0018 C   0  0  0  0  0  0  0  0  0  0  0  0
   -0.8101    3.2047   -0.4985 H   0  0  0  0  0  0  0  0  0  0  0  0
    0.8206    3.2167   -0.4298 H   0  0  0  0  0  0  0  0  0  0  0  0
   -0.0567    3.3456    0.9975 H   0  0  0  0  0  0  0  0  0  0  0  0
   -0.0006    1.3979   -0.0012 C   0  0  0  0  0  0  0  0  0  0  0  0
   -1.1896    0.6910    0.0000 C   0  0  0  0  0  0  0  0  0  0  0  0
   -2.0597    1.1798   -0.0004 H   0  0  0  0  0  0  0  0  0  0  0  0
   -1.1909   -0.6934    0.0000 C   0  0  0  0  0  0  0  0  0  0  0  0
   -2.0721   -1.1874   -0.0029 H   0  0  0  0  0  0  0  0  0  0  0  0
   -0.0013   -1.3857    0.0058 C   0  0  0  0  0  0  0  0  0  0  0  0
   -0.0074   -2.3880    0.0135 H   0  0  0  0  0  0  0  0  0  0  0  0
    1.1909   -0.6979   -0.0000 C   0  0  0  0  0  0  0  0  0  0  0  0
    2.0756   -1.1969    0.0008 H   0  0  0  0  0  0  0  0  0  0  0  0
    1.1915    0.6882   -0.0046 C   0  0  0  0  0  0  0  0  0  0  0  0
    2.0618    1.1833   -0.0115 H   0  0  0  0  0  0  0  0  0  0  0  0
  1  5  1  0
  5  8  1  0
  1  2  1  0
  1  3  1  0
  1  4  1  0
  5  6  1  0
  5  7  1  0
  8  9  1  0
  8 10  1  0
  8 11  1  0
 12 16  1  0
 16 17  2  0
 17 19  1  0
 19 21  2  0
 21 23  1  0
 23 25  2  0
 25 16  1  0
 12 13  1  0
 12 14  1  0
 12 15  1  0
 17 18  1  0
 19 20  1  0
 21 22  1  0
 23 24  1  0
 25 26  1  0
M  CHG  1   8   1
M  END
>  <PDB_ID>  (3125) 
pdb6imw

>  <RESIDUE_NAME>  (3125) 
GLU   PHE

>  <FRAG_NAME>  (3125) 
ETAM   MBZ

>  <FRAG_ATOM_NUM>  (3125) 
fragi: 11  fragj: 15

>  <atom.prop.CHAIN_ID>  (3125) 
A A A A A A A A A A A Z Z Z Z Z Z Z Z Z Z Z Z Z Z Z

>  <atom.prop.IS_HEAVY_ATOM>  (3125) 
1 0 0 0 1 0 0 1 0 0 0 1 0 0 0 1 1 0 1 0 1 0 1 0 1 0

>  <DIFUSE_FUNC_ATOM>  (3125) 
n/a

>  <FINAL_SINGLE_POINT_ENERGY>  (3125) 
0

>  <NONCOV_INTER_ENERGY_QM>  (3125) 
0

>  <FF_Energy>  (3125) 
-4.39

>  <QM_Energy>  (3125) 
-9.57

>  <source>  (3125) 
ETAM_MBZ

>  <Index>  (3125) 
34078

$$$$
ETAM-pdb5i7w-A-LYS-322:MBZ-pdb5i7w-A-PHE-318
     RDKit          3D

 26 25  0  0  0  0  0  0  0  0999 V2000
    1.9279   -1.7573    3.6842 C   0  0  0  0  0  0  0  0  0  0  0  0
    1.8455   -1.0458    3.0020 H   0  0  0  0  0  0  0  0  0  0  0  0
    2.8327   -2.1565    3.6812 H   0  0  0  0  0  0  0  0  0  0  0  0
    1.7155   -1.3421    4.6694 H   0  0  0  0  0  0  0  0  0  0  0  0
    0.9161   -2.8660    3.3427 C   0  0  0  0  0  0  0  0  0  0  0  0
    1.1092   -3.2022    2.4174 H   0  0  0  0  0  0  0  0  0  0  0  0
    1.0339   -3.6198    3.9943 H   0  0  0  0  0  0  0  0  0  0  0  0
   -0.5094   -2.3864    3.4010 N   0  0  0  0  0  4  0  0  0  0  0  0
   -0.6771   -1.7759    2.6312 H   0  0  0  0  0  0  0  0  0  0  0  0
   -1.1179   -3.1748    3.3499 H   0  0  0  0  0  0  0  0  0  0  0  0
   -0.6522   -1.9002    4.2595 H   0  0  0  0  0  0  0  0  0  0  0  0
   -0.0040    2.9151   -0.0075 C   0  0  0  0  0  0  0  0  0  0  0  0
   -0.7819    3.2113   -0.5415 H   0  0  0  0  0  0  0  0  0  0  0  0
    0.8459    3.2203   -0.4120 H   0  0  0  0  0  0  0  0  0  0  0  0
   -0.0845    3.3703    0.9797 H   0  0  0  0  0  0  0  0  0  0  0  0
    0.0026    1.4058    0.0052 C   0  0  0  0  0  0  0  0  0  0  0  0
   -1.1974    0.6929   -0.0035 C   0  0  0  0  0  0  0  0  0  0  0  0
   -2.0632    1.1822   -0.0132 H   0  0  0  0  0  0  0  0  0  0  0  0
   -1.2012   -0.7017    0.0000 C   0  0  0  0  0  0  0  0  0  0  0  0
   -2.0808   -1.1918    0.0033 H   0  0  0  0  0  0  0  0  0  0  0  0
   -0.0047   -1.3963    0.0009 C   0  0  0  0  0  0  0  0  0  0  0  0
   -0.0056   -2.3954    0.0014 H   0  0  0  0  0  0  0  0  0  0  0  0
    1.2012   -0.7003    0.0000 C   0  0  0  0  0  0  0  0  0  0  0  0
    2.0806   -1.1967    0.0021 H   0  0  0  0  0  0  0  0  0  0  0  0
    1.1995    0.6997   -0.0026 C   0  0  0  0  0  0  0  0  0  0  0  0
    2.0678    1.1904   -0.0104 H   0  0  0  0  0  0  0  0  0  0  0  0
  1  5  1  0
  5  8  1  0
  1  2  1  0
  1  3  1  0
  1  4  1  0
  5  6  1  0
  5  7  1  0
  8  9  1  0
  8 10  1  0
  8 11  1  0
 12 16  1  0
 16 17  2  0
 17 19  1  0
 19 21  2  0
 21 23  1  0
 23 25  2  0
 25 16  1  0
 12 13  1  0
 12 14  1  0
 12 15  1  0
 17 18  1  0
 19 20  1  0
 21 22  1  0
 23 24  1  0
 25 26  1  0
M  CHG  1   8   1
M  END
>  <PDB_ID>  (3126) 
pdb5i7w

>  <RESIDUE_NAME>  (3126) 
LYS   PHE

>  <FRAG_NAME>  (3126) 
ETAM   MBZ

>  <FRAG_ATOM_NUM>  (3126) 
fragi: 11  fragj: 15

>  <atom.prop.CHAIN_ID>  (3126) 
A A A A A A A A A A A Z Z Z Z Z Z Z Z Z Z Z Z Z Z Z

>  <atom.prop.IS_HEAVY_ATOM>  (3126) 
1 0 0 0 1 0 0 1 0 0 0 1 0 0 0 1 1 0 1 0 1 0 1 0 1 0

>  <DIFUSE_FUNC_ATOM>  (3126) 
n/a

>  <FINAL_SINGLE_POINT_ENERGY>  (3126) 
0

>  <NONCOV_INTER_ENERGY_QM>  (3126) 
0

>  <FF_Energy>  (3126) 
-4.78

>  <QM_Energy>  (3126) 
-11.46

>  <source>  (3126) 
ETAM_MBZ

>  <Index>  (3126) 
34091

$$$$
ETAM-pdb6io1-A-LYS-403:MBZ-pdb6io1-A-PHE-398
     RDKit          3D

 26 25  0  0  0  0  0  0  0  0999 V2000
    1.6021   -0.9137    4.2308 C   0  0  0  0  0  0  0  0  0  0  0  0
    1.8866   -0.3633    3.4518 H   0  0  0  0  0  0  0  0  0  0  0  0
    1.4480   -1.8554    3.9489 H   0  0  0  0  0  0  0  0  0  0  0  0
    2.3912   -0.8946    4.9824 H   0  0  0  0  0  0  0  0  0  0  0  0
    0.2989   -0.3510    4.7731 C   0  0  0  0  0  0  0  0  0  0  0  0
   -0.0622   -0.9774    5.4674 H   0  0  0  0  0  0  0  0  0  0  0  0
    0.4796    0.5393    5.1972 H   0  0  0  0  0  0  0  0  0  0  0  0
   -0.7152   -0.1804    3.6940 N   0  0  0  0  0  4  0  0  0  0  0  0
   -0.9260   -1.0717    3.2948 H   0  0  0  0  0  0  0  0  0  0  0  0
   -1.5455    0.2187    4.0806 H   0  0  0  0  0  0  0  0  0  0  0  0
   -0.3486    0.4247    2.9886 H   0  0  0  0  0  0  0  0  0  0  0  0
   -0.0014    2.8963    0.0011 C   0  0  0  0  0  0  0  0  0  0  0  0
   -0.7031    3.2035   -0.6238 H   0  0  0  0  0  0  0  0  0  0  0  0
    0.8936    3.2036   -0.2825 H   0  0  0  0  0  0  0  0  0  0  0  0
   -0.2099    3.3312    0.9786 H   0  0  0  0  0  0  0  0  0  0  0  0
   -0.0007    1.3946   -0.0013 C   0  0  0  0  0  0  0  0  0  0  0  0
   -1.1909    0.6886    0.0008 C   0  0  0  0  0  0  0  0  0  0  0  0
   -2.0602    1.1798    0.0017 H   0  0  0  0  0  0  0  0  0  0  0  0
   -1.1947   -0.6935   -0.0000 C   0  0  0  0  0  0  0  0  0  0  0  0
   -2.0731   -1.1894    0.0002 H   0  0  0  0  0  0  0  0  0  0  0  0
    0.0004   -1.3851    0.0005 C   0  0  0  0  0  0  0  0  0  0  0  0
   -0.0042   -2.3871    0.0006 H   0  0  0  0  0  0  0  0  0  0  0  0
    1.1947   -0.6937    0.0000 C   0  0  0  0  0  0  0  0  0  0  0  0
    2.0779   -1.1935    0.0009 H   0  0  0  0  0  0  0  0  0  0  0  0
    1.1912    0.6890   -0.0001 C   0  0  0  0  0  0  0  0  0  0  0  0
    2.0610    1.1869    0.0000 H   0  0  0  0  0  0  0  0  0  0  0  0
  1  5  1  0
  5  8  1  0
  1  2  1  0
  1  3  1  0
  1  4  1  0
  5  6  1  0
  5  7  1  0
  8  9  1  0
  8 10  1  0
  8 11  1  0
 12 16  1  0
 16 17  2  0
 17 19  1  0
 19 21  2  0
 21 23  1  0
 23 25  2  0
 25 16  1  0
 12 13  1  0
 12 14  1  0
 12 15  1  0
 17 18  1  0
 19 20  1  0
 21 22  1  0
 23 24  1  0
 25 26  1  0
M  CHG  1   8   1
M  END
>  <PDB_ID>  (3127) 
pdb6io1

>  <RESIDUE_NAME>  (3127) 
LYS   PHE

>  <FRAG_NAME>  (3127) 
ETAM   MBZ

>  <FRAG_ATOM_NUM>  (3127) 
fragi: 11  fragj: 15

>  <atom.prop.CHAIN_ID>  (3127) 
A A A A A A A A A A A Z Z Z Z Z Z Z Z Z Z Z Z Z Z Z

>  <atom.prop.IS_HEAVY_ATOM>  (3127) 
1 0 0 0 1 0 0 1 0 0 0 1 0 0 0 1 1 0 1 0 1 0 1 0 1 0

>  <DIFUSE_FUNC_ATOM>  (3127) 
n/a

>  <FINAL_SINGLE_POINT_ENERGY>  (3127) 
0

>  <NONCOV_INTER_ENERGY_QM>  (3127) 
0

>  <FF_Energy>  (3127) 
-7.02

>  <QM_Energy>  (3127) 
-12.13

>  <source>  (3127) 
ETAM_MBZ

>  <Index>  (3127) 
34096

$$$$
ETAM-pdb6io1-B-LYS-403:MBZ-pdb6io1-B-PHE-398
     RDKit          3D

 26 25  0  0  0  0  0  0  0  0999 V2000
    1.3088   -0.7742    4.3031 C   0  0  0  0  0  0  0  0  0  0  0  0
    1.6841   -0.2818    3.5237 H   0  0  0  0  0  0  0  0  0  0  0  0
    1.1130   -1.7169    4.0519 H   0  0  0  0  0  0  0  0  0  0  0  0
    2.0421   -0.7684    5.1096 H   0  0  0  0  0  0  0  0  0  0  0  0
    0.0114   -0.1040    4.7206 C   0  0  0  0  0  0  0  0  0  0  0  0
   -0.4465   -0.6750    5.4031 H   0  0  0  0  0  0  0  0  0  0  0  0
    0.2194    0.7884    5.1233 H   0  0  0  0  0  0  0  0  0  0  0  0
   -0.8973    0.0864    3.5537 N   0  0  0  0  0  4  0  0  0  0  0  0
   -0.4915   -0.3403    2.7469 H   0  0  0  0  0  0  0  0  0  0  0  0
   -1.7800   -0.3381    3.7505 H   0  0  0  0  0  0  0  0  0  0  0  0
   -1.0232    1.0641    3.3898 H   0  0  0  0  0  0  0  0  0  0  0  0
    0.0245    2.8938   -0.0257 C   0  0  0  0  0  0  0  0  0  0  0  0
   -0.7053    3.1981   -0.6296 H   0  0  0  0  0  0  0  0  0  0  0  0
    0.9093    3.1786   -0.3825 H   0  0  0  0  0  0  0  0  0  0  0  0
   -0.1170    3.3855    0.9367 H   0  0  0  0  0  0  0  0  0  0  0  0
    0.0000    1.3957    0.0120 C   0  0  0  0  0  0  0  0  0  0  0  0
   -1.1902    0.6946   -0.0061 C   0  0  0  0  0  0  0  0  0  0  0  0
   -2.0591    1.1847   -0.0252 H   0  0  0  0  0  0  0  0  0  0  0  0
   -1.1969   -0.6932   -0.0000 C   0  0  0  0  0  0  0  0  0  0  0  0
   -2.0758   -1.1862    0.0016 H   0  0  0  0  0  0  0  0  0  0  0  0
    0.0000   -1.3924    0.0055 C   0  0  0  0  0  0  0  0  0  0  0  0
   -0.0045   -2.3897    0.0131 H   0  0  0  0  0  0  0  0  0  0  0  0
    1.1969   -0.6947    0.0000 C   0  0  0  0  0  0  0  0  0  0  0  0
    2.0797   -1.1928    0.0050 H   0  0  0  0  0  0  0  0  0  0  0  0
    1.1901    0.6900   -0.0114 C   0  0  0  0  0  0  0  0  0  0  0  0
    2.0604    1.1879   -0.0379 H   0  0  0  0  0  0  0  0  0  0  0  0
  1  5  1  0
  5  8  1  0
  1  2  1  0
  1  3  1  0
  1  4  1  0
  5  6  1  0
  5  7  1  0
  8  9  1  0
  8 10  1  0
  8 11  1  0
 12 16  1  0
 16 17  2  0
 17 19  1  0
 19 21  2  0
 21 23  1  0
 23 25  2  0
 25 16  1  0
 12 13  1  0
 12 14  1  0
 12 15  1  0
 17 18  1  0
 19 20  1  0
 21 22  1  0
 23 24  1  0
 25 26  1  0
M  CHG  1   8   1
M  END
>  <PDB_ID>  (3128) 
pdb6io1

>  <RESIDUE_NAME>  (3128) 
LYS   PHE

>  <FRAG_NAME>  (3128) 
ETAM   MBZ

>  <FRAG_ATOM_NUM>  (3128) 
fragi: 11  fragj: 15

>  <atom.prop.CHAIN_ID>  (3128) 
A A A A A A A A A A A Z Z Z Z Z Z Z Z Z Z Z Z Z Z Z

>  <atom.prop.IS_HEAVY_ATOM>  (3128) 
1 0 0 0 1 0 0 1 0 0 0 1 0 0 0 1 1 0 1 0 1 0 1 0 1 0

>  <DIFUSE_FUNC_ATOM>  (3128) 
n/a

>  <FINAL_SINGLE_POINT_ENERGY>  (3128) 
0

>  <NONCOV_INTER_ENERGY_QM>  (3128) 
0

>  <FF_Energy>  (3128) 
-7.67

>  <QM_Energy>  (3128) 
-13.29

>  <source>  (3128) 
ETAM_MBZ

>  <Index>  (3128) 
34098

$$$$
ETAM-pdb6imw-A-LYS-215:MBZ-pdb6imw-A-PHE-273
     RDKit          3D

 26 25  0  0  0  0  0  0  0  0999 V2000
   -1.2443    2.2801    3.3409 C   0  0  0  0  0  0  0  0  0  0  0  0
   -1.8862    2.4659    4.0894 H   0  0  0  0  0  0  0  0  0  0  0  0
   -1.7145    2.4205    2.4659 H   0  0  0  0  0  0  0  0  0  0  0  0
   -0.4169    2.9864    3.4094 H   0  0  0  0  0  0  0  0  0  0  0  0
   -0.8057    0.8358    3.4278 C   0  0  0  0  0  0  0  0  0  0  0  0
   -0.3371    0.5853    2.5750 H   0  0  0  0  0  0  0  0  0  0  0  0
   -0.1607    0.7359    4.1911 H   0  0  0  0  0  0  0  0  0  0  0  0
   -1.9555   -0.0706    3.6380 N   0  0  0  0  0  4  0  0  0  0  0  0
   -1.6921   -1.0074    3.4042 H   0  0  0  0  0  0  0  0  0  0  0  0
   -2.2398   -0.0362    4.5975 H   0  0  0  0  0  0  0  0  0  0  0  0
   -2.7183    0.2134    3.0557 H   0  0  0  0  0  0  0  0  0  0  0  0
   -0.0014    2.9037    0.0041 C   0  0  0  0  0  0  0  0  0  0  0  0
    0.9373    3.2087    0.0218 H   0  0  0  0  0  0  0  0  0  0  0  0
   -0.4958    3.2036    0.8041 H   0  0  0  0  0  0  0  0  0  0  0  0
   -0.4813    3.3401   -0.8719 H   0  0  0  0  0  0  0  0  0  0  0  0
    0.0015    1.3978   -0.0004 C   0  0  0  0  0  0  0  0  0  0  0  0
   -1.1928    0.6936    0.0010 C   0  0  0  0  0  0  0  0  0  0  0  0
   -2.0589    1.1821    0.0016 H   0  0  0  0  0  0  0  0  0  0  0  0
   -1.1923   -0.6934    0.0000 C   0  0  0  0  0  0  0  0  0  0  0  0
   -2.0750   -1.1870    0.0025 H   0  0  0  0  0  0  0  0  0  0  0  0
   -0.0035   -1.3862   -0.0027 C   0  0  0  0  0  0  0  0  0  0  0  0
   -0.0089   -2.3888   -0.0070 H   0  0  0  0  0  0  0  0  0  0  0  0
    1.1923   -0.6993   -0.0000 C   0  0  0  0  0  0  0  0  0  0  0  0
    2.0746   -1.1999    0.0018 H   0  0  0  0  0  0  0  0  0  0  0  0
    1.1948    0.6876    0.0020 C   0  0  0  0  0  0  0  0  0  0  0  0
    2.0642    1.1810    0.0045 H   0  0  0  0  0  0  0  0  0  0  0  0
  1  5  1  0
  5  8  1  0
  1  2  1  0
  1  3  1  0
  1  4  1  0
  5  6  1  0
  5  7  1  0
  8  9  1  0
  8 10  1  0
  8 11  1  0
 12 16  1  0
 16 17  2  0
 17 19  1  0
 19 21  2  0
 21 23  1  0
 23 25  2  0
 25 16  1  0
 12 13  1  0
 12 14  1  0
 12 15  1  0
 17 18  1  0
 19 20  1  0
 21 22  1  0
 23 24  1  0
 25 26  1  0
M  CHG  1   8   1
M  END
>  <PDB_ID>  (3129) 
pdb6imw

>  <RESIDUE_NAME>  (3129) 
LYS   PHE

>  <FRAG_NAME>  (3129) 
ETAM   MBZ

>  <FRAG_ATOM_NUM>  (3129) 
fragi: 11  fragj: 15

>  <atom.prop.CHAIN_ID>  (3129) 
A A A A A A A A A A A Z Z Z Z Z Z Z Z Z Z Z Z Z Z Z

>  <atom.prop.IS_HEAVY_ATOM>  (3129) 
1 0 0 0 1 0 0 1 0 0 0 1 0 0 0 1 1 0 1 0 1 0 1 0 1 0

>  <DIFUSE_FUNC_ATOM>  (3129) 
n/a

>  <FINAL_SINGLE_POINT_ENERGY>  (3129) 
0

>  <NONCOV_INTER_ENERGY_QM>  (3129) 
0

>  <FF_Energy>  (3129) 
-5.11

>  <QM_Energy>  (3129) 
-10.58

>  <source>  (3129) 
ETAM_MBZ

>  <Index>  (3129) 
34112

$$$$
ETAM-pdb6imu-A-LYS-215:MBZ-pdb6imu-A-PHE-273
     RDKit          3D

 26 25  0  0  0  0  0  0  0  0999 V2000
   -1.1691    2.3401    3.4600 C   0  0  0  0  0  0  0  0  0  0  0  0
   -1.7729    2.4637    4.2490 H   0  0  0  0  0  0  0  0  0  0  0  0
   -1.6952    2.4601    2.6178 H   0  0  0  0  0  0  0  0  0  0  0  0
   -0.3852    3.0965    3.4959 H   0  0  0  0  0  0  0  0  0  0  0  0
   -0.6196    0.9296    3.4889 C   0  0  0  0  0  0  0  0  0  0  0  0
   -0.1549    0.7431    2.6160 H   0  0  0  0  0  0  0  0  0  0  0  0
    0.0563    0.8577    4.2311 H   0  0  0  0  0  0  0  0  0  0  0  0
   -1.6833   -0.0768    3.7001 N   0  0  0  0  0  4  0  0  0  0  0  0
   -1.5685   -0.5030    4.5985 H   0  0  0  0  0  0  0  0  0  0  0  0
   -2.5797    0.3667    3.6551 H   0  0  0  0  0  0  0  0  0  0  0  0
   -1.6261   -0.7801    2.9904 H   0  0  0  0  0  0  0  0  0  0  0  0
   -0.0066    2.9065   -0.0059 C   0  0  0  0  0  0  0  0  0  0  0  0
    0.9289    3.2143   -0.0843 H   0  0  0  0  0  0  0  0  0  0  0  0
   -0.4166    3.2105    0.8409 H   0  0  0  0  0  0  0  0  0  0  0  0
   -0.5735    3.3429   -0.8283 H   0  0  0  0  0  0  0  0  0  0  0  0
   -0.0005    1.4003   -0.0031 C   0  0  0  0  0  0  0  0  0  0  0  0
   -1.1940    0.6893    0.0005 C   0  0  0  0  0  0  0  0  0  0  0  0
   -2.0614    1.1765    0.0019 H   0  0  0  0  0  0  0  0  0  0  0  0
   -1.1915   -0.6981    0.0000 C   0  0  0  0  0  0  0  0  0  0  0  0
   -2.0714   -1.1931    0.0031 H   0  0  0  0  0  0  0  0  0  0  0  0
    0.0002   -1.3849   -0.0031 C   0  0  0  0  0  0  0  0  0  0  0  0
   -0.0028   -2.3890   -0.0080 H   0  0  0  0  0  0  0  0  0  0  0  0
    1.1915   -0.6969    0.0000 C   0  0  0  0  0  0  0  0  0  0  0  0
    2.0768   -1.1956   -0.0001 H   0  0  0  0  0  0  0  0  0  0  0  0
    1.1942    0.6903    0.0057 C   0  0  0  0  0  0  0  0  0  0  0  0
    2.0630    1.1846    0.0152 H   0  0  0  0  0  0  0  0  0  0  0  0
  1  5  1  0
  5  8  1  0
  1  2  1  0
  1  3  1  0
  1  4  1  0
  5  6  1  0
  5  7  1  0
  8  9  1  0
  8 10  1  0
  8 11  1  0
 12 16  1  0
 16 17  2  0
 17 19  1  0
 19 21  2  0
 21 23  1  0
 23 25  2  0
 25 16  1  0
 12 13  1  0
 12 14  1  0
 12 15  1  0
 17 18  1  0
 19 20  1  0
 21 22  1  0
 23 24  1  0
 25 26  1  0
M  CHG  1   8   1
M  END
>  <PDB_ID>  (3130) 
pdb6imu

>  <RESIDUE_NAME>  (3130) 
LYS   PHE

>  <FRAG_NAME>  (3130) 
ETAM   MBZ

>  <FRAG_ATOM_NUM>  (3130) 
fragi: 11  fragj: 15

>  <atom.prop.CHAIN_ID>  (3130) 
A A A A A A A A A A A Z Z Z Z Z Z Z Z Z Z Z Z Z Z Z

>  <atom.prop.IS_HEAVY_ATOM>  (3130) 
1 0 0 0 1 0 0 1 0 0 0 1 0 0 0 1 1 0 1 0 1 0 1 0 1 0

>  <DIFUSE_FUNC_ATOM>  (3130) 
n/a

>  <FINAL_SINGLE_POINT_ENERGY>  (3130) 
0

>  <NONCOV_INTER_ENERGY_QM>  (3130) 
0

>  <FF_Energy>  (3130) 
-5.96

>  <QM_Energy>  (3130) 
-11.55

>  <source>  (3130) 
ETAM_MBZ

>  <Index>  (3130) 
34115

$$$$
ETAM-pdb6ipt-A-LYS-77:MBZ-pdb6ipt-A-PHE-73
     RDKit          3D

 26 25  0  0  0  0  0  0  0  0999 V2000
   -0.0436   -0.8676    4.3814 C   0  0  0  0  0  0  0  0  0  0  0  0
    0.5481   -0.2176    4.8622 H   0  0  0  0  0  0  0  0  0  0  0  0
    0.0568   -1.7734    4.7970 H   0  0  0  0  0  0  0  0  0  0  0  0
   -1.0789   -0.5450    4.4908 H   0  0  0  0  0  0  0  0  0  0  0  0
    0.3990   -0.9469    2.9367 C   0  0  0  0  0  0  0  0  0  0  0  0
   -0.2293   -1.5399    2.4335 H   0  0  0  0  0  0  0  0  0  0  0  0
    0.3825   -0.0299    2.5379 H   0  0  0  0  0  0  0  0  0  0  0  0
    1.7745   -1.4970    2.8388 N   0  0  0  0  0  4  0  0  0  0  0  0
    1.7351   -2.4969    2.8471 H   0  0  0  0  0  0  0  0  0  0  0  0
    2.1983   -1.1861    1.9877 H   0  0  0  0  0  0  0  0  0  0  0  0
    2.3174   -1.1784    3.6165 H   0  0  0  0  0  0  0  0  0  0  0  0
    0.0352    2.9053   -0.1146 C   0  0  0  0  0  0  0  0  0  0  0  0
   -0.0669    3.1408   -1.0864 H   0  0  0  0  0  0  0  0  0  0  0  0
    0.9412    3.2102    0.1960 H   0  0  0  0  0  0  0  0  0  0  0  0
   -0.7113    3.4719    0.4419 H   0  0  0  0  0  0  0  0  0  0  0  0
   -0.0008    1.4041   -0.0056 C   0  0  0  0  0  0  0  0  0  0  0  0
   -1.1765    0.6843   -0.0197 C   0  0  0  0  0  0  0  0  0  0  0  0
   -2.0555    1.1708   -0.0464 H   0  0  0  0  0  0  0  0  0  0  0  0
   -1.1813   -0.6986    0.0000 C   0  0  0  0  0  0  0  0  0  0  0  0
   -2.0679   -1.1881   -0.0188 H   0  0  0  0  0  0  0  0  0  0  0  0
   -0.0035   -1.3878    0.0463 C   0  0  0  0  0  0  0  0  0  0  0  0
   -0.0028   -2.3861    0.1126 H   0  0  0  0  0  0  0  0  0  0  0  0
    1.1813   -0.6939   -0.0000 C   0  0  0  0  0  0  0  0  0  0  0  0
    2.0703   -1.1906   -0.0180 H   0  0  0  0  0  0  0  0  0  0  0  0
    1.1809    0.6919   -0.0210 C   0  0  0  0  0  0  0  0  0  0  0  0
    2.0564    1.1836   -0.0489 H   0  0  0  0  0  0  0  0  0  0  0  0
  1  5  1  0
  5  8  1  0
  1  2  1  0
  1  3  1  0
  1  4  1  0
  5  6  1  0
  5  7  1  0
  8  9  1  0
  8 10  1  0
  8 11  1  0
 12 16  1  0
 16 17  2  0
 17 19  1  0
 19 21  2  0
 21 23  1  0
 23 25  2  0
 25 16  1  0
 12 13  1  0
 12 14  1  0
 12 15  1  0
 17 18  1  0
 19 20  1  0
 21 22  1  0
 23 24  1  0
 25 26  1  0
M  CHG  1   8   1
M  END
>  <PDB_ID>  (3131) 
pdb6ipt

>  <RESIDUE_NAME>  (3131) 
LYS   PHE

>  <FRAG_NAME>  (3131) 
ETAM   MBZ

>  <FRAG_ATOM_NUM>  (3131) 
fragi: 11  fragj: 15

>  <atom.prop.CHAIN_ID>  (3131) 
A A A A A A A A A A A Z Z Z Z Z Z Z Z Z Z Z Z Z Z Z

>  <atom.prop.IS_HEAVY_ATOM>  (3131) 
1 0 0 0 1 0 0 1 0 0 0 1 0 0 0 1 1 0 1 0 1 0 1 0 1 0

>  <DIFUSE_FUNC_ATOM>  (3131) 
n/a

>  <FINAL_SINGLE_POINT_ENERGY>  (3131) 
0

>  <NONCOV_INTER_ENERGY_QM>  (3131) 
0

>  <FF_Energy>  (3131) 
0.77

>  <QM_Energy>  (3131) 
-9.55

>  <source>  (3131) 
ETAM_MBZ

>  <Index>  (3131) 
34119

$$$$
ETAM-pdb6ipt-B-LYS-77:MBZ-pdb6ipt-B-PHE-73
     RDKit          3D

 26 25  0  0  0  0  0  0  0  0999 V2000
   -0.3793   -0.9486    4.3470 C   0  0  0  0  0  0  0  0  0  0  0  0
    0.0712   -0.6333    5.1869 H   0  0  0  0  0  0  0  0  0  0  0  0
   -0.4181   -1.9516    4.3565 H   0  0  0  0  0  0  0  0  0  0  0  0
   -1.3971   -0.5589    4.3292 H   0  0  0  0  0  0  0  0  0  0  0  0
    0.4507   -0.5106    3.1615 C   0  0  0  0  0  0  0  0  0  0  0  0
    0.1712   -1.0387    2.3532 H   0  0  0  0  0  0  0  0  0  0  0  0
    0.2792    0.4637    2.9833 H   0  0  0  0  0  0  0  0  0  0  0  0
    1.8992   -0.7136    3.3987 N   0  0  0  0  0  4  0  0  0  0  0  0
    2.4242   -0.2379    2.6919 H   0  0  0  0  0  0  0  0  0  0  0  0
    2.1461   -0.3485    4.2972 H   0  0  0  0  0  0  0  0  0  0  0  0
    2.1097   -1.6912    3.3676 H   0  0  0  0  0  0  0  0  0  0  0  0
    0.0244    2.8984   -0.1043 C   0  0  0  0  0  0  0  0  0  0  0  0
    0.0726    3.1270   -1.0771 H   0  0  0  0  0  0  0  0  0  0  0  0
    0.8512    3.2248    0.3552 H   0  0  0  0  0  0  0  0  0  0  0  0
   -0.8264    3.4300    0.3221 H   0  0  0  0  0  0  0  0  0  0  0  0
   -0.0023    1.4044    0.0123 C   0  0  0  0  0  0  0  0  0  0  0  0
   -1.1869    0.6768   -0.0132 C   0  0  0  0  0  0  0  0  0  0  0  0
   -2.0617    1.1653   -0.0427 H   0  0  0  0  0  0  0  0  0  0  0  0
   -1.1857   -0.7041    0.0000 C   0  0  0  0  0  0  0  0  0  0  0  0
   -2.0658   -1.2010    0.0018 H   0  0  0  0  0  0  0  0  0  0  0  0
    0.0040   -1.3900    0.0127 C   0  0  0  0  0  0  0  0  0  0  0  0
    0.0073   -2.3903    0.0307 H   0  0  0  0  0  0  0  0  0  0  0  0
    1.1857   -0.6878    0.0000 C   0  0  0  0  0  0  0  0  0  0  0  0
    2.0791   -1.1814    0.0010 H   0  0  0  0  0  0  0  0  0  0  0  0
    1.1852    0.7008   -0.0118 C   0  0  0  0  0  0  0  0  0  0  0  0
    2.0568    1.1931   -0.0395 H   0  0  0  0  0  0  0  0  0  0  0  0
  1  5  1  0
  5  8  1  0
  1  2  1  0
  1  3  1  0
  1  4  1  0
  5  6  1  0
  5  7  1  0
  8  9  1  0
  8 10  1  0
  8 11  1  0
 12 16  1  0
 16 17  2  0
 17 19  1  0
 19 21  2  0
 21 23  1  0
 23 25  2  0
 25 16  1  0
 12 13  1  0
 12 14  1  0
 12 15  1  0
 17 18  1  0
 19 20  1  0
 21 22  1  0
 23 24  1  0
 25 26  1  0
M  CHG  1   8   1
M  END
>  <PDB_ID>  (3132) 
pdb6ipt

>  <RESIDUE_NAME>  (3132) 
LYS   PHE

>  <FRAG_NAME>  (3132) 
ETAM   MBZ

>  <FRAG_ATOM_NUM>  (3132) 
fragi: 11  fragj: 15

>  <atom.prop.CHAIN_ID>  (3132) 
A A A A A A A A A A A Z Z Z Z Z Z Z Z Z Z Z Z Z Z Z

>  <atom.prop.IS_HEAVY_ATOM>  (3132) 
1 0 0 0 1 0 0 1 0 0 0 1 0 0 0 1 1 0 1 0 1 0 1 0 1 0

>  <DIFUSE_FUNC_ATOM>  (3132) 
n/a

>  <FINAL_SINGLE_POINT_ENERGY>  (3132) 
0

>  <NONCOV_INTER_ENERGY_QM>  (3132) 
0

>  <FF_Energy>  (3132) 
-2.84

>  <QM_Energy>  (3132) 
-10.61

>  <source>  (3132) 
ETAM_MBZ

>  <Index>  (3132) 
34120

$$$$
ETAM-pdb5ibx-C-LYS-112:MBZ-pdb5ibx-C-PHE-69
     RDKit          3D

 26 25  0  0  0  0  0  0  0  0999 V2000
   -0.4990   -0.0233   -4.3291 C   0  0  0  0  0  0  0  0  0  0  0  0
   -1.3258    0.2841   -3.8328 H   0  0  0  0  0  0  0  0  0  0  0  0
   -0.8035   -0.5381   -5.1442 H   0  0  0  0  0  0  0  0  0  0  0  0
    0.0514    0.8569   -4.6615 H   0  0  0  0  0  0  0  0  0  0  0  0
    0.2763   -0.9567   -3.4361 C   0  0  0  0  0  0  0  0  0  0  0  0
    1.0423   -1.3330   -3.9297 H   0  0  0  0  0  0  0  0  0  0  0  0
    0.5651   -0.4796   -2.6221 H   0  0  0  0  0  0  0  0  0  0  0  0
   -0.6456   -2.0804   -3.0389 N   0  0  0  0  0  4  0  0  0  0  0  0
   -1.3365   -2.1969   -3.7482 H   0  0  0  0  0  0  0  0  0  0  0  0
   -0.1115   -2.9167   -2.9410 H   0  0  0  0  0  0  0  0  0  0  0  0
   -1.0807   -1.8496   -2.1730 H   0  0  0  0  0  0  0  0  0  0  0  0
    0.0036    2.9084   -0.0316 C   0  0  0  0  0  0  0  0  0  0  0  0
   -0.5926    3.2054   -0.7631 H   0  0  0  0  0  0  0  0  0  0  0  0
    0.9327    3.2138   -0.1795 H   0  0  0  0  0  0  0  0  0  0  0  0
   -0.3494    3.3820    0.8844 H   0  0  0  0  0  0  0  0  0  0  0  0
   -0.0004    1.4032    0.0007 C   0  0  0  0  0  0  0  0  0  0  0  0
   -1.1976    0.6915   -0.0187 C   0  0  0  0  0  0  0  0  0  0  0  0
   -2.0633    1.1852   -0.0477 H   0  0  0  0  0  0  0  0  0  0  0  0
   -1.1983   -0.6887    0.0000 C   0  0  0  0  0  0  0  0  0  0  0  0
   -2.0770   -1.1884    0.0099 H   0  0  0  0  0  0  0  0  0  0  0  0
   -0.0005   -1.3923    0.0067 C   0  0  0  0  0  0  0  0  0  0  0  0
   -0.0094   -2.3895    0.0156 H   0  0  0  0  0  0  0  0  0  0  0  0
    1.1983   -0.6985   -0.0000 C   0  0  0  0  0  0  0  0  0  0  0  0
    2.0793   -1.2012   -0.0117 H   0  0  0  0  0  0  0  0  0  0  0  0
    1.1985    0.6847    0.0113 C   0  0  0  0  0  0  0  0  0  0  0  0
    2.0662    1.1837    0.0259 H   0  0  0  0  0  0  0  0  0  0  0  0
  1  5  1  0
  5  8  1  0
  1  2  1  0
  1  3  1  0
  1  4  1  0
  5  6  1  0
  5  7  1  0
  8  9  1  0
  8 10  1  0
  8 11  1  0
 12 16  1  0
 16 17  2  0
 17 19  1  0
 19 21  2  0
 21 23  1  0
 23 25  2  0
 25 16  1  0
 12 13  1  0
 12 14  1  0
 12 15  1  0
 17 18  1  0
 19 20  1  0
 21 22  1  0
 23 24  1  0
 25 26  1  0
M  CHG  1   8   1
M  END
>  <PDB_ID>  (3133) 
pdb5ibx

>  <RESIDUE_NAME>  (3133) 
LYS   PHE

>  <FRAG_NAME>  (3133) 
ETAM   MBZ

>  <FRAG_ATOM_NUM>  (3133) 
fragi: 11  fragj: 15

>  <atom.prop.CHAIN_ID>  (3133) 
A A A A A A A A A A A Z Z Z Z Z Z Z Z Z Z Z Z Z Z Z

>  <atom.prop.IS_HEAVY_ATOM>  (3133) 
1 0 0 0 1 0 0 1 0 0 0 1 0 0 0 1 1 0 1 0 1 0 1 0 1 0

>  <DIFUSE_FUNC_ATOM>  (3133) 
n/a

>  <FINAL_SINGLE_POINT_ENERGY>  (3133) 
0

>  <NONCOV_INTER_ENERGY_QM>  (3133) 
0

>  <FF_Energy>  (3133) 
-5.32

>  <QM_Energy>  (3133) 
-13.78

>  <source>  (3133) 
ETAM_MBZ

>  <Index>  (3133) 
34129

$$$$
ETAM-pdb5id6-A-LYS-520:MBZ-pdb5id6-A-PHE-745
     RDKit          3D

 26 25  0  0  0  0  0  0  0  0999 V2000
   -1.6447    2.4460    3.8894 C   0  0  0  0  0  0  0  0  0  0  0  0
   -0.9134    2.5993    3.2194 H   0  0  0  0  0  0  0  0  0  0  0  0
   -1.5489    3.1133    4.6331 H   0  0  0  0  0  0  0  0  0  0  0  0
   -2.6079    2.5947    3.4013 H   0  0  0  0  0  0  0  0  0  0  0  0
   -1.4579    1.0442    4.4830 C   0  0  0  0  0  0  0  0  0  0  0  0
   -0.7674    1.0912    5.1961 H   0  0  0  0  0  0  0  0  0  0  0  0
   -2.3260    0.7414    4.8617 H   0  0  0  0  0  0  0  0  0  0  0  0
   -1.0197    0.1064    3.4229 N   0  0  0  0  0  4  0  0  0  0  0  0
   -1.8160   -0.3657    3.0428 H   0  0  0  0  0  0  0  0  0  0  0  0
   -0.5570    0.6158    2.6958 H   0  0  0  0  0  0  0  0  0  0  0  0
   -0.3888   -0.5665    3.8111 H   0  0  0  0  0  0  0  0  0  0  0  0
    0.0016    2.8877    0.0145 C   0  0  0  0  0  0  0  0  0  0  0  0
    0.7323    3.1927    0.6082 H   0  0  0  0  0  0  0  0  0  0  0  0
   -0.8794    3.1950    0.3444 H   0  0  0  0  0  0  0  0  0  0  0  0
    0.1623    3.3402   -0.9640 H   0  0  0  0  0  0  0  0  0  0  0  0
    0.0014    1.3905    0.0036 C   0  0  0  0  0  0  0  0  0  0  0  0
   -1.1920    0.6852    0.0001 C   0  0  0  0  0  0  0  0  0  0  0  0
   -2.0588    1.1790   -0.0039 H   0  0  0  0  0  0  0  0  0  0  0  0
   -1.1934   -0.6925    0.0000 C   0  0  0  0  0  0  0  0  0  0  0  0
   -2.0716   -1.1905    0.0086 H   0  0  0  0  0  0  0  0  0  0  0  0
   -0.0010   -1.3793   -0.0094 C   0  0  0  0  0  0  0  0  0  0  0  0
   -0.0026   -2.3836   -0.0233 H   0  0  0  0  0  0  0  0  0  0  0  0
    1.1934   -0.6900   -0.0000 C   0  0  0  0  0  0  0  0  0  0  0  0
    2.0759   -1.1933    0.0045 H   0  0  0  0  0  0  0  0  0  0  0  0
    1.1915    0.6861    0.0057 C   0  0  0  0  0  0  0  0  0  0  0  0
    2.0610    1.1859    0.0101 H   0  0  0  0  0  0  0  0  0  0  0  0
  1  5  1  0
  5  8  1  0
  1  2  1  0
  1  3  1  0
  1  4  1  0
  5  6  1  0
  5  7  1  0
  8  9  1  0
  8 10  1  0
  8 11  1  0
 12 16  1  0
 16 17  2  0
 17 19  1  0
 19 21  2  0
 21 23  1  0
 23 25  2  0
 25 16  1  0
 12 13  1  0
 12 14  1  0
 12 15  1  0
 17 18  1  0
 19 20  1  0
 21 22  1  0
 23 24  1  0
 25 26  1  0
M  CHG  1   8   1
M  END
>  <PDB_ID>  (3134) 
pdb5id6

>  <RESIDUE_NAME>  (3134) 
LYS   PHE

>  <FRAG_NAME>  (3134) 
ETAM   MBZ

>  <FRAG_ATOM_NUM>  (3134) 
fragi: 11  fragj: 15

>  <atom.prop.CHAIN_ID>  (3134) 
A A A A A A A A A A A Z Z Z Z Z Z Z Z Z Z Z Z Z Z Z

>  <atom.prop.IS_HEAVY_ATOM>  (3134) 
1 0 0 0 1 0 0 1 0 0 0 1 0 0 0 1 1 0 1 0 1 0 1 0 1 0

>  <DIFUSE_FUNC_ATOM>  (3134) 
n/a

>  <FINAL_SINGLE_POINT_ENERGY>  (3134) 
0

>  <NONCOV_INTER_ENERGY_QM>  (3134) 
0

>  <FF_Energy>  (3134) 
-7.9

>  <QM_Energy>  (3134) 
-13.48

>  <source>  (3134) 
ETAM_MBZ

>  <Index>  (3134) 
34150

$$$$
ETAM-pdb5id6-A-LYS-725:MBZ-pdb5id6-A-PHE-709
     RDKit          3D

 26 25  0  0  0  0  0  0  0  0999 V2000
   -2.8349   -3.7061   -3.7135 C   0  0  0  0  0  0  0  0  0  0  0  0
   -2.8585   -4.2523   -4.5538 H   0  0  0  0  0  0  0  0  0  0  0  0
   -3.7720   -3.5635   -3.3874 H   0  0  0  0  0  0  0  0  0  0  0  0
   -2.2937   -4.2725   -2.9556 H   0  0  0  0  0  0  0  0  0  0  0  0
   -2.2149   -2.3561   -4.0254 C   0  0  0  0  0  0  0  0  0  0  0  0
   -1.2694   -2.5009   -4.3531 H   0  0  0  0  0  0  0  0  0  0  0  0
   -2.7380   -1.9233   -4.7736 H   0  0  0  0  0  0  0  0  0  0  0  0
   -2.1898   -1.4411   -2.8592 N   0  0  0  0  0  4  0  0  0  0  0  0
   -2.0690   -0.4998   -3.1756 H   0  0  0  0  0  0  0  0  0  0  0  0
   -3.0522   -1.5149   -2.3571 H   0  0  0  0  0  0  0  0  0  0  0  0
   -1.4308   -1.6885   -2.2559 H   0  0  0  0  0  0  0  0  0  0  0  0
    0.0026    2.8859   -0.0023 C   0  0  0  0  0  0  0  0  0  0  0  0
    0.8963    3.1959    0.2828 H   0  0  0  0  0  0  0  0  0  0  0  0
   -0.7014    3.1955    0.6187 H   0  0  0  0  0  0  0  0  0  0  0  0
   -0.2028    3.3235   -0.9792 H   0  0  0  0  0  0  0  0  0  0  0  0
    0.0023    1.3906   -0.0024 C   0  0  0  0  0  0  0  0  0  0  0  0
   -1.1891    0.6851    0.0001 C   0  0  0  0  0  0  0  0  0  0  0  0
   -2.0563    1.1770    0.0009 H   0  0  0  0  0  0  0  0  0  0  0  0
   -1.1879   -0.6925   -0.0000 C   0  0  0  0  0  0  0  0  0  0  0  0
   -2.0696   -1.1894   -0.0010 H   0  0  0  0  0  0  0  0  0  0  0  0
   -0.0026   -1.3771    0.0030 C   0  0  0  0  0  0  0  0  0  0  0  0
   -0.0053   -2.3836    0.0074 H   0  0  0  0  0  0  0  0  0  0  0  0
    1.1879   -0.6930    0.0000 C   0  0  0  0  0  0  0  0  0  0  0  0
    2.0722   -1.1946    0.0000 H   0  0  0  0  0  0  0  0  0  0  0  0
    1.1894    0.6869   -0.0007 C   0  0  0  0  0  0  0  0  0  0  0  0
    2.0602    1.1823   -0.0006 H   0  0  0  0  0  0  0  0  0  0  0  0
  1  5  1  0
  5  8  1  0
  1  2  1  0
  1  3  1  0
  1  4  1  0
  5  6  1  0
  5  7  1  0
  8  9  1  0
  8 10  1  0
  8 11  1  0
 12 16  1  0
 16 17  2  0
 17 19  1  0
 19 21  2  0
 21 23  1  0
 23 25  2  0
 25 16  1  0
 12 13  1  0
 12 14  1  0
 12 15  1  0
 17 18  1  0
 19 20  1  0
 21 22  1  0
 23 24  1  0
 25 26  1  0
M  CHG  1   8   1
M  END
>  <PDB_ID>  (3135) 
pdb5id6

>  <RESIDUE_NAME>  (3135) 
LYS   PHE

>  <FRAG_NAME>  (3135) 
ETAM   MBZ

>  <FRAG_ATOM_NUM>  (3135) 
fragi: 11  fragj: 15

>  <atom.prop.CHAIN_ID>  (3135) 
A A A A A A A A A A A Z Z Z Z Z Z Z Z Z Z Z Z Z Z Z

>  <atom.prop.IS_HEAVY_ATOM>  (3135) 
1 0 0 0 1 0 0 1 0 0 0 1 0 0 0 1 1 0 1 0 1 0 1 0 1 0

>  <DIFUSE_FUNC_ATOM>  (3135) 
n/a

>  <FINAL_SINGLE_POINT_ENERGY>  (3135) 
0

>  <NONCOV_INTER_ENERGY_QM>  (3135) 
0

>  <FF_Energy>  (3135) 
-3.27

>  <QM_Energy>  (3135) 
-10.11

>  <source>  (3135) 
ETAM_MBZ

>  <Index>  (3135) 
34153

$$$$
ETAM-pdb6isj-A-LYS-43:MBZ-pdb6isj-A-PHE-53
     RDKit          3D

 26 25  0  0  0  0  0  0  0  0999 V2000
    2.5254   -1.6022    4.2845 C   0  0  0  0  0  0  0  0  0  0  0  0
    3.2026   -1.2494    4.9240 H   0  0  0  0  0  0  0  0  0  0  0  0
    1.7143   -1.9055    4.7744 H   0  0  0  0  0  0  0  0  0  0  0  0
    2.2528   -0.8211    3.5746 H   0  0  0  0  0  0  0  0  0  0  0  0
    3.1189   -2.7866    3.5643 C   0  0  0  0  0  0  0  0  0  0  0  0
    4.0406   -2.5532    3.2473 H   0  0  0  0  0  0  0  0  0  0  0  0
    3.1767   -3.5629    4.1959 H   0  0  0  0  0  0  0  0  0  0  0  0
    2.2865   -3.1736    2.3948 N   0  0  0  0  0  4  0  0  0  0  0  0
    1.5303   -3.7508    2.7015 H   0  0  0  0  0  0  0  0  0  0  0  0
    1.9231   -2.3507    1.9585 H   0  0  0  0  0  0  0  0  0  0  0  0
    2.8477   -3.6785    1.7397 H   0  0  0  0  0  0  0  0  0  0  0  0
   -0.0029    2.9087   -0.0553 C   0  0  0  0  0  0  0  0  0  0  0  0
   -0.7821    3.2013   -0.5972 H   0  0  0  0  0  0  0  0  0  0  0  0
    0.8469    3.2057   -0.4758 H   0  0  0  0  0  0  0  0  0  0  0  0
   -0.0767    3.3842    0.9228 H   0  0  0  0  0  0  0  0  0  0  0  0
   -0.0013    1.4050   -0.0251 C   0  0  0  0  0  0  0  0  0  0  0  0
   -1.1929    0.6929   -0.0151 C   0  0  0  0  0  0  0  0  0  0  0  0
   -2.0629    1.1789   -0.0203 H   0  0  0  0  0  0  0  0  0  0  0  0
   -1.1906   -0.6969   -0.0000 C   0  0  0  0  0  0  0  0  0  0  0  0
   -2.0732   -1.1911   -0.0134 H   0  0  0  0  0  0  0  0  0  0  0  0
    0.0011   -1.3968    0.0351 C   0  0  0  0  0  0  0  0  0  0  0  0
   -0.0045   -2.3917    0.0848 H   0  0  0  0  0  0  0  0  0  0  0  0
    1.1906   -0.6990    0.0000 C   0  0  0  0  0  0  0  0  0  0  0  0
    2.0780   -1.1943   -0.0283 H   0  0  0  0  0  0  0  0  0  0  0  0
    1.1931    0.6947    0.0050 C   0  0  0  0  0  0  0  0  0  0  0  0
    2.0615    1.1855    0.0298 H   0  0  0  0  0  0  0  0  0  0  0  0
  1  5  1  0
  5  8  1  0
  1  2  1  0
  1  3  1  0
  1  4  1  0
  5  6  1  0
  5  7  1  0
  8  9  1  0
  8 10  1  0
  8 11  1  0
 12 16  1  0
 16 17  2  0
 17 19  1  0
 19 21  2  0
 21 23  1  0
 23 25  2  0
 25 16  1  0
 12 13  1  0
 12 14  1  0
 12 15  1  0
 17 18  1  0
 19 20  1  0
 21 22  1  0
 23 24  1  0
 25 26  1  0
M  CHG  1   8   1
M  END
>  <PDB_ID>  (3136) 
pdb6isj

>  <RESIDUE_NAME>  (3136) 
LYS   PHE

>  <FRAG_NAME>  (3136) 
ETAM   MBZ

>  <FRAG_ATOM_NUM>  (3136) 
fragi: 11  fragj: 15

>  <atom.prop.CHAIN_ID>  (3136) 
A A A A A A A A A A A Z Z Z Z Z Z Z Z Z Z Z Z Z Z Z

>  <atom.prop.IS_HEAVY_ATOM>  (3136) 
1 0 0 0 1 0 0 1 0 0 0 1 0 0 0 1 1 0 1 0 1 0 1 0 1 0

>  <DIFUSE_FUNC_ATOM>  (3136) 
n/a

>  <FINAL_SINGLE_POINT_ENERGY>  (3136) 
0

>  <NONCOV_INTER_ENERGY_QM>  (3136) 
0

>  <FF_Energy>  (3136) 
-1.38

>  <QM_Energy>  (3136) 
-7.61

>  <source>  (3136) 
ETAM_MBZ

>  <Index>  (3136) 
34188

$$$$
ETAM-pdb6imw-B-LYS-215:MBZ-pdb6imw-B-PHE-273
     RDKit          3D

 26 25  0  0  0  0  0  0  0  0999 V2000
   -1.2699    2.2649    3.3488 C   0  0  0  0  0  0  0  0  0  0  0  0
   -1.9100    2.4448    4.0982 H   0  0  0  0  0  0  0  0  0  0  0  0
   -1.7376    2.4104    2.4744 H   0  0  0  0  0  0  0  0  0  0  0  0
   -0.4403    2.9680    3.4227 H   0  0  0  0  0  0  0  0  0  0  0  0
   -0.8310    0.8177    3.4259 C   0  0  0  0  0  0  0  0  0  0  0  0
   -0.3708    0.5703    2.5670 H   0  0  0  0  0  0  0  0  0  0  0  0
   -0.1767    0.7149    4.1823 H   0  0  0  0  0  0  0  0  0  0  0  0
   -1.9774   -0.0944    3.6457 N   0  0  0  0  0  4  0  0  0  0  0  0
   -1.6650   -1.0437    3.5960 H   0  0  0  0  0  0  0  0  0  0  0  0
   -2.3738    0.0779    4.5479 H   0  0  0  0  0  0  0  0  0  0  0  0
   -2.6715    0.0641    2.9420 H   0  0  0  0  0  0  0  0  0  0  0  0
   -0.0058    2.8971    0.0001 C   0  0  0  0  0  0  0  0  0  0  0  0
    0.9310    3.2062    0.0244 H   0  0  0  0  0  0  0  0  0  0  0  0
   -0.5106    3.1984    0.7915 H   0  0  0  0  0  0  0  0  0  0  0  0
   -0.4784    3.3268   -0.8832 H   0  0  0  0  0  0  0  0  0  0  0  0
    0.0004    1.3935   -0.0029 C   0  0  0  0  0  0  0  0  0  0  0  0
   -1.1926    0.6934   -0.0010 C   0  0  0  0  0  0  0  0  0  0  0  0
   -2.0589    1.1834   -0.0023 H   0  0  0  0  0  0  0  0  0  0  0  0
   -1.1920   -0.6901   -0.0000 C   0  0  0  0  0  0  0  0  0  0  0  0
   -2.0733   -1.1858    0.0005 H   0  0  0  0  0  0  0  0  0  0  0  0
   -0.0004   -1.3845    0.0019 C   0  0  0  0  0  0  0  0  0  0  0  0
   -0.0080   -2.3871    0.0046 H   0  0  0  0  0  0  0  0  0  0  0  0
    1.1920   -0.6971   -0.0000 C   0  0  0  0  0  0  0  0  0  0  0  0
    2.0758   -1.1983   -0.0017 H   0  0  0  0  0  0  0  0  0  0  0  0
    1.1926    0.6849    0.0020 C   0  0  0  0  0  0  0  0  0  0  0  0
    2.0621    1.1810    0.0064 H   0  0  0  0  0  0  0  0  0  0  0  0
  1  5  1  0
  5  8  1  0
  1  2  1  0
  1  3  1  0
  1  4  1  0
  5  6  1  0
  5  7  1  0
  8  9  1  0
  8 10  1  0
  8 11  1  0
 12 16  1  0
 16 17  2  0
 17 19  1  0
 19 21  2  0
 21 23  1  0
 23 25  2  0
 25 16  1  0
 12 13  1  0
 12 14  1  0
 12 15  1  0
 17 18  1  0
 19 20  1  0
 21 22  1  0
 23 24  1  0
 25 26  1  0
M  CHG  1   8   1
M  END
>  <PDB_ID>  (3137) 
pdb6imw

>  <RESIDUE_NAME>  (3137) 
LYS   PHE

>  <FRAG_NAME>  (3137) 
ETAM   MBZ

>  <FRAG_ATOM_NUM>  (3137) 
fragi: 11  fragj: 15

>  <atom.prop.CHAIN_ID>  (3137) 
A A A A A A A A A A A Z Z Z Z Z Z Z Z Z Z Z Z Z Z Z

>  <atom.prop.IS_HEAVY_ATOM>  (3137) 
1 0 0 0 1 0 0 1 0 0 0 1 0 0 0 1 1 0 1 0 1 0 1 0 1 0

>  <DIFUSE_FUNC_ATOM>  (3137) 
n/a

>  <FINAL_SINGLE_POINT_ENERGY>  (3137) 
0

>  <NONCOV_INTER_ENERGY_QM>  (3137) 
0

>  <FF_Energy>  (3137) 
-5.1

>  <QM_Energy>  (3137) 
-10.54

>  <source>  (3137) 
ETAM_MBZ

>  <Index>  (3137) 
34197

$$$$
ETAM-pdb6imu-B-LYS-215:MBZ-pdb6imu-B-PHE-273
     RDKit          3D

 26 25  0  0  0  0  0  0  0  0999 V2000
   -1.1469    2.3433    3.4753 C   0  0  0  0  0  0  0  0  0  0  0  0
   -1.7451    2.4599    4.2688 H   0  0  0  0  0  0  0  0  0  0  0  0
   -1.6797    2.4644    2.6372 H   0  0  0  0  0  0  0  0  0  0  0  0
   -0.3637    3.1007    3.5093 H   0  0  0  0  0  0  0  0  0  0  0  0
   -0.5929    0.9330    3.4931 C   0  0  0  0  0  0  0  0  0  0  0  0
   -0.1319    0.7543    2.6165 H   0  0  0  0  0  0  0  0  0  0  0  0
    0.0896    0.8609    4.2300 H   0  0  0  0  0  0  0  0  0  0  0  0
   -1.6483   -0.0801    3.7051 N   0  0  0  0  0  4  0  0  0  0  0  0
   -2.4448    0.3485    4.1333 H   0  0  0  0  0  0  0  0  0  0  0  0
   -1.9177   -0.4749    2.8249 H   0  0  0  0  0  0  0  0  0  0  0  0
   -1.3029   -0.8063    4.3013 H   0  0  0  0  0  0  0  0  0  0  0  0
   -0.0089    2.9057   -0.0095 C   0  0  0  0  0  0  0  0  0  0  0  0
    0.9243    3.2152   -0.0886 H   0  0  0  0  0  0  0  0  0  0  0  0
   -0.4252    3.2099    0.8314 H   0  0  0  0  0  0  0  0  0  0  0  0
   -0.5751    3.3324   -0.8373 H   0  0  0  0  0  0  0  0  0  0  0  0
   -0.0006    1.3981   -0.0052 C   0  0  0  0  0  0  0  0  0  0  0  0
   -1.1940    0.6890    0.0061 C   0  0  0  0  0  0  0  0  0  0  0  0
   -2.0621    1.1782    0.0172 H   0  0  0  0  0  0  0  0  0  0  0  0
   -1.1943   -0.6976    0.0000 C   0  0  0  0  0  0  0  0  0  0  0  0
   -2.0732   -1.1932   -0.0017 H   0  0  0  0  0  0  0  0  0  0  0  0
    0.0020   -1.3894   -0.0021 C   0  0  0  0  0  0  0  0  0  0  0  0
    0.0003   -2.3890   -0.0055 H   0  0  0  0  0  0  0  0  0  0  0  0
    1.1943   -0.6929    0.0000 C   0  0  0  0  0  0  0  0  0  0  0  0
    2.0797   -1.1913    0.0023 H   0  0  0  0  0  0  0  0  0  0  0  0
    1.1926    0.6928    0.0012 C   0  0  0  0  0  0  0  0  0  0  0  0
    2.0615    1.1890    0.0059 H   0  0  0  0  0  0  0  0  0  0  0  0
  1  5  1  0
  5  8  1  0
  1  2  1  0
  1  3  1  0
  1  4  1  0
  5  6  1  0
  5  7  1  0
  8  9  1  0
  8 10  1  0
  8 11  1  0
 12 16  1  0
 16 17  2  0
 17 19  1  0
 19 21  2  0
 21 23  1  0
 23 25  2  0
 25 16  1  0
 12 13  1  0
 12 14  1  0
 12 15  1  0
 17 18  1  0
 19 20  1  0
 21 22  1  0
 23 24  1  0
 25 26  1  0
M  CHG  1   8   1
M  END
>  <PDB_ID>  (3138) 
pdb6imu

>  <RESIDUE_NAME>  (3138) 
LYS   PHE

>  <FRAG_NAME>  (3138) 
ETAM   MBZ

>  <FRAG_ATOM_NUM>  (3138) 
fragi: 11  fragj: 15

>  <atom.prop.CHAIN_ID>  (3138) 
A A A A A A A A A A A Z Z Z Z Z Z Z Z Z Z Z Z Z Z Z

>  <atom.prop.IS_HEAVY_ATOM>  (3138) 
1 0 0 0 1 0 0 1 0 0 0 1 0 0 0 1 1 0 1 0 1 0 1 0 1 0

>  <DIFUSE_FUNC_ATOM>  (3138) 
n/a

>  <FINAL_SINGLE_POINT_ENERGY>  (3138) 
0

>  <NONCOV_INTER_ENERGY_QM>  (3138) 
0

>  <FF_Energy>  (3138) 
-6.02

>  <QM_Energy>  (3138) 
-11.9

>  <source>  (3138) 
ETAM_MBZ

>  <Index>  (3138) 
34199

$$$$
ETAM-pdb5iff-A-LYS-139:MBZ-pdb5iff-B-PHE-127
     RDKit          3D

 26 25  0  0  0  0  0  0  0  0999 V2000
    0.4592   -0.9336    4.3385 C   0  0  0  0  0  0  0  0  0  0  0  0
    0.8503   -1.6826    3.8127 H   0  0  0  0  0  0  0  0  0  0  0  0
    0.0224   -1.2823    5.1613 H   0  0  0  0  0  0  0  0  0  0  0  0
    1.2675   -0.2657    4.6360 H   0  0  0  0  0  0  0  0  0  0  0  0
   -0.5904   -0.2295    3.4853 C   0  0  0  0  0  0  0  0  0  0  0  0
   -0.7002    0.7107    3.8068 H   0  0  0  0  0  0  0  0  0  0  0  0
   -0.2894   -0.2227    2.5316 H   0  0  0  0  0  0  0  0  0  0  0  0
   -1.9329   -0.9255    3.5623 N   0  0  0  0  0  4  0  0  0  0  0  0
   -2.5538   -0.3626    4.0988 H   0  0  0  0  0  0  0  0  0  0  0  0
   -2.2848   -1.0424    2.6386 H   0  0  0  0  0  0  0  0  0  0  0  0
   -1.8080   -1.8114    3.9977 H   0  0  0  0  0  0  0  0  0  0  0  0
    0.0320    2.9170   -0.0417 C   0  0  0  0  0  0  0  0  0  0  0  0
   -0.5356    3.2144   -0.7958 H   0  0  0  0  0  0  0  0  0  0  0  0
    0.9705    3.2053   -0.1637 H   0  0  0  0  0  0  0  0  0  0  0  0
   -0.3450    3.3932    0.8635 H   0  0  0  0  0  0  0  0  0  0  0  0
    0.0088    1.4085   -0.0073 C   0  0  0  0  0  0  0  0  0  0  0  0
   -1.1950    0.7014   -0.0212 C   0  0  0  0  0  0  0  0  0  0  0  0
   -2.0575    1.1912   -0.0470 H   0  0  0  0  0  0  0  0  0  0  0  0
   -1.1987   -0.6937    0.0000 C   0  0  0  0  0  0  0  0  0  0  0  0
   -2.0805   -1.1841    0.0024 H   0  0  0  0  0  0  0  0  0  0  0  0
   -0.0026   -1.3991    0.0193 C   0  0  0  0  0  0  0  0  0  0  0  0
   -0.0123   -2.3953    0.0463 H   0  0  0  0  0  0  0  0  0  0  0  0
    1.1987   -0.7059    0.0000 C   0  0  0  0  0  0  0  0  0  0  0  0
    2.0782   -1.1990   -0.0193 H   0  0  0  0  0  0  0  0  0  0  0  0
    1.1888    0.6888    0.0092 C   0  0  0  0  0  0  0  0  0  0  0  0
    2.0685    1.1796    0.0273 H   0  0  0  0  0  0  0  0  0  0  0  0
  1  5  1  0
  5  8  1  0
  1  2  1  0
  1  3  1  0
  1  4  1  0
  5  6  1  0
  5  7  1  0
  8  9  1  0
  8 10  1  0
  8 11  1  0
 12 16  1  0
 16 17  2  0
 17 19  1  0
 19 21  2  0
 21 23  1  0
 23 25  2  0
 25 16  1  0
 12 13  1  0
 12 14  1  0
 12 15  1  0
 17 18  1  0
 19 20  1  0
 21 22  1  0
 23 24  1  0
 25 26  1  0
M  CHG  1   8   1
M  END
>  <PDB_ID>  (3139) 
pdb5iff

>  <RESIDUE_NAME>  (3139) 
LYS   PHE

>  <FRAG_NAME>  (3139) 
ETAM   MBZ

>  <FRAG_ATOM_NUM>  (3139) 
fragi: 11  fragj: 15

>  <atom.prop.CHAIN_ID>  (3139) 
A A A A A A A A A A A Z Z Z Z Z Z Z Z Z Z Z Z Z Z Z

>  <atom.prop.IS_HEAVY_ATOM>  (3139) 
1 0 0 0 1 0 0 1 0 0 0 1 0 0 0 1 1 0 1 0 1 0 1 0 1 0

>  <DIFUSE_FUNC_ATOM>  (3139) 
n/a

>  <FINAL_SINGLE_POINT_ENERGY>  (3139) 
0

>  <NONCOV_INTER_ENERGY_QM>  (3139) 
0

>  <FF_Energy>  (3139) 
-5.18

>  <QM_Energy>  (3139) 
-11.76

>  <source>  (3139) 
ETAM_MBZ

>  <Index>  (3139) 
34213

$$$$
ETAM-pdb5ihb-D-LYS-130:MBZ-pdb5ihb-D-PHE-117
     RDKit          3D

 26 25  0  0  0  0  0  0  0  0999 V2000
   -0.4728    0.9991   -4.6361 C   0  0  0  0  0  0  0  0  0  0  0  0
    0.4402    1.2706   -4.8233 H   0  0  0  0  0  0  0  0  0  0  0  0
   -0.7423    1.3193   -3.7608 H   0  0  0  0  0  0  0  0  0  0  0  0
   -1.1323    1.4283   -5.3904 H   0  0  0  0  0  0  0  0  0  0  0  0
   -0.5166   -0.5140   -4.6162 C   0  0  0  0  0  0  0  0  0  0  0  0
   -1.3800   -0.8070   -4.2854 H   0  0  0  0  0  0  0  0  0  0  0  0
   -0.3648   -0.8530   -5.5126 H   0  0  0  0  0  0  0  0  0  0  0  0
    0.5402   -1.0614   -3.7218 N   0  0  0  0  0  4  0  0  0  0  0  0
    0.5042   -1.9505   -3.7181 H   0  0  0  0  0  0  0  0  0  0  0  0
    1.3428   -0.8045   -4.0071 H   0  0  0  0  0  0  0  0  0  0  0  0
    0.4195   -0.7630   -2.8911 H   0  0  0  0  0  0  0  0  0  0  0  0
   -0.0013    2.9162   -0.0125 C   0  0  0  0  0  0  0  0  0  0  0  0
   -0.7746    3.2054   -0.5213 H   0  0  0  0  0  0  0  0  0  0  0  0
    0.8106    3.2070   -0.4584 H   0  0  0  0  0  0  0  0  0  0  0  0
   -0.0408    3.3776    0.9742 H   0  0  0  0  0  0  0  0  0  0  0  0
    0.0002    1.4016    0.0031 C   0  0  0  0  0  0  0  0  0  0  0  0
   -1.1877    0.6930   -0.0007 C   0  0  0  0  0  0  0  0  0  0  0  0
   -1.9958    1.1532   -0.0018 H   0  0  0  0  0  0  0  0  0  0  0  0
   -1.1898   -0.6970    0.0000 C   0  0  0  0  0  0  0  0  0  0  0  0
   -1.9968   -1.1596    0.0021 H   0  0  0  0  0  0  0  0  0  0  0  0
   -0.0021   -1.3884    0.0000 C   0  0  0  0  0  0  0  0  0  0  0  0
   -0.0032   -2.3186    0.0040 H   0  0  0  0  0  0  0  0  0  0  0  0
    1.1898   -0.6989   -0.0000 C   0  0  0  0  0  0  0  0  0  0  0  0
    1.9948   -1.1636    0.0007 H   0  0  0  0  0  0  0  0  0  0  0  0
    1.1897    0.6897   -0.0024 C   0  0  0  0  0  0  0  0  0  0  0  0
    1.9988    1.1488   -0.0039 H   0  0  0  0  0  0  0  0  0  0  0  0
  1  5  1  0
  5  8  1  0
  1  2  1  0
  1  3  1  0
  1  4  1  0
  5  6  1  0
  5  7  1  0
  8  9  1  0
  8 10  1  0
  8 11  1  0
 12 16  1  0
 16 17  2  0
 17 19  1  0
 19 21  2  0
 21 23  1  0
 23 25  2  0
 25 16  1  0
 12 13  1  0
 12 14  1  0
 12 15  1  0
 17 18  1  0
 19 20  1  0
 21 22  1  0
 23 24  1  0
 25 26  1  0
M  CHG  1   8   1
M  END
>  <PDB_ID>  (3140) 
pdb5ihb

>  <RESIDUE_NAME>  (3140) 
LYS   PHE

>  <FRAG_NAME>  (3140) 
ETAM   MBZ

>  <FRAG_ATOM_NUM>  (3140) 
fragi: 11  fragj: 15

>  <atom.prop.CHAIN_ID>  (3140) 
A A A A A A A A A A A Z Z Z Z Z Z Z Z Z Z Z Z Z Z Z

>  <atom.prop.IS_HEAVY_ATOM>  (3140) 
1 0 0 0 1 0 0 1 0 0 0 1 0 0 0 1 1 0 1 0 1 0 1 0 1 0

>  <DIFUSE_FUNC_ATOM>  (3140) 
n/a

>  <FINAL_SINGLE_POINT_ENERGY>  (3140) 
0

>  <NONCOV_INTER_ENERGY_QM>  (3140) 
0

>  <FF_Energy>  (3140) 
-6.07

>  <QM_Energy>  (3140) 
-11.58

>  <source>  (3140) 
ETAM_MBZ

>  <Index>  (3140) 
34215

$$$$
ETAM-pdb5ih3-C-LYS-310:MBZ-pdb5ih3-C-PHE-474
     RDKit          3D

 26 25  0  0  0  0  0  0  0  0999 V2000
    0.5996   -3.5304   -4.8874 C   0  0  0  0  0  0  0  0  0  0  0  0
   -0.3521   -3.3700   -4.9821 H   0  0  0  0  0  0  0  0  0  0  0  0
    0.7756   -3.9895   -4.0510 H   0  0  0  0  0  0  0  0  0  0  0  0
    0.9368   -4.1582   -5.7122 H   0  0  0  0  0  0  0  0  0  0  0  0
    1.2862   -2.2053   -4.8368 C   0  0  0  0  0  0  0  0  0  0  0  0
    2.2476   -2.3298   -4.8274 H   0  0  0  0  0  0  0  0  0  0  0  0
    1.0132   -1.6611   -5.5924 H   0  0  0  0  0  0  0  0  0  0  0  0
    0.8682   -1.5197   -3.5623 N   0  0  0  0  0  4  0  0  0  0  0  0
    1.2620   -0.7238   -3.5019 H   0  0  0  0  0  0  0  0  0  0  0  0
   -0.0155   -1.4073   -3.5532 H   0  0  0  0  0  0  0  0  0  0  0  0
    1.1041   -2.0134   -2.8602 H   0  0  0  0  0  0  0  0  0  0  0  0
   -0.0162    2.8902    0.0005 C   0  0  0  0  0  0  0  0  0  0  0  0
   -0.4004    3.1914   -0.8374 H   0  0  0  0  0  0  0  0  0  0  0  0
    0.9013    3.1967    0.0714 H   0  0  0  0  0  0  0  0  0  0  0  0
   -0.5932    3.3104    0.8243 H   0  0  0  0  0  0  0  0  0  0  0  0
   -0.0022    1.3924   -0.0130 C   0  0  0  0  0  0  0  0  0  0  0  0
   -1.1889    0.6832    0.0051 C   0  0  0  0  0  0  0  0  0  0  0  0
   -1.9980    1.1421    0.0001 H   0  0  0  0  0  0  0  0  0  0  0  0
   -1.1874   -0.7007   -0.0000 C   0  0  0  0  0  0  0  0  0  0  0  0
   -1.9909   -1.1687    0.0045 H   0  0  0  0  0  0  0  0  0  0  0  0
    0.0113   -1.3832    0.0043 C   0  0  0  0  0  0  0  0  0  0  0  0
    0.0184   -2.3135    0.0049 H   0  0  0  0  0  0  0  0  0  0  0  0
    1.1874   -0.6908   -0.0000 C   0  0  0  0  0  0  0  0  0  0  0  0
    1.9955   -1.1503    0.0023 H   0  0  0  0  0  0  0  0  0  0  0  0
    1.1798    0.6990    0.0036 C   0  0  0  0  0  0  0  0  0  0  0  0
    1.9860    1.1629   -0.0021 H   0  0  0  0  0  0  0  0  0  0  0  0
  1  5  1  0
  5  8  1  0
  1  2  1  0
  1  3  1  0
  1  4  1  0
  5  6  1  0
  5  7  1  0
  8  9  1  0
  8 10  1  0
  8 11  1  0
 12 16  1  0
 16 17  2  0
 17 19  1  0
 19 21  2  0
 21 23  1  0
 23 25  2  0
 25 16  1  0
 12 13  1  0
 12 14  1  0
 12 15  1  0
 17 18  1  0
 19 20  1  0
 21 22  1  0
 23 24  1  0
 25 26  1  0
M  CHG  1   8   1
M  END
>  <PDB_ID>  (3141) 
pdb5ih3

>  <RESIDUE_NAME>  (3141) 
LYS   PHE

>  <FRAG_NAME>  (3141) 
ETAM   MBZ

>  <FRAG_ATOM_NUM>  (3141) 
fragi: 11  fragj: 15

>  <atom.prop.CHAIN_ID>  (3141) 
A A A A A A A A A A A Z Z Z Z Z Z Z Z Z Z Z Z Z Z Z

>  <atom.prop.IS_HEAVY_ATOM>  (3141) 
1 0 0 0 1 0 0 1 0 0 0 1 0 0 0 1 1 0 1 0 1 0 1 0 1 0

>  <DIFUSE_FUNC_ATOM>  (3141) 
n/a

>  <FINAL_SINGLE_POINT_ENERGY>  (3141) 
0

>  <NONCOV_INTER_ENERGY_QM>  (3141) 
0

>  <FF_Energy>  (3141) 
-4.48

>  <QM_Energy>  (3141) 
-9.63

>  <source>  (3141) 
ETAM_MBZ

>  <Index>  (3141) 
34223

$$$$
ETAM-pdb6is6-A-LYS-98:MBZ-pdb6is6-A-PHE-9
     RDKit          3D

 26 25  0  0  0  0  0  0  0  0999 V2000
    3.5464   -3.6717    2.7998 C   0  0  0  0  0  0  0  0  0  0  0  0
    3.6262   -3.5302    3.7848 H   0  0  0  0  0  0  0  0  0  0  0  0
    4.1848   -4.3810    2.5073 H   0  0  0  0  0  0  0  0  0  0  0  0
    2.5307   -3.9944    2.5711 H   0  0  0  0  0  0  0  0  0  0  0  0
    3.9327   -2.3600    2.0949 C   0  0  0  0  0  0  0  0  0  0  0  0
    3.2037   -1.6806    2.2626 H   0  0  0  0  0  0  0  0  0  0  0  0
    4.7828   -2.0097    2.5151 H   0  0  0  0  0  0  0  0  0  0  0  0
    4.1409   -2.4962    0.6166 N   0  0  0  0  0  4  0  0  0  0  0  0
    4.5002   -1.6376    0.2573 H   0  0  0  0  0  0  0  0  0  0  0  0
    4.7905   -3.2336    0.4452 H   0  0  0  0  0  0  0  0  0  0  0  0
    3.2678   -2.7059    0.1818 H   0  0  0  0  0  0  0  0  0  0  0  0
   -0.0127    2.9176   -0.0190 C   0  0  0  0  0  0  0  0  0  0  0  0
    0.8442    3.2208   -0.3988 H   0  0  0  0  0  0  0  0  0  0  0  0
   -0.1355    3.2284    0.9079 H   0  0  0  0  0  0  0  0  0  0  0  0
   -0.8172    3.3347   -0.6247 H   0  0  0  0  0  0  0  0  0  0  0  0
    0.0004    1.4006    0.0006 C   0  0  0  0  0  0  0  0  0  0  0  0
   -1.1906    0.6852   -0.0023 C   0  0  0  0  0  0  0  0  0  0  0  0
   -2.0601    1.1789   -0.0075 H   0  0  0  0  0  0  0  0  0  0  0  0
   -1.1947   -0.6941    0.0000 C   0  0  0  0  0  0  0  0  0  0  0  0
   -2.0751   -1.1899    0.0008 H   0  0  0  0  0  0  0  0  0  0  0  0
   -0.0037   -1.3864    0.0033 C   0  0  0  0  0  0  0  0  0  0  0  0
   -0.0075   -2.3892    0.0080 H   0  0  0  0  0  0  0  0  0  0  0  0
    1.1947   -0.6979   -0.0000 C   0  0  0  0  0  0  0  0  0  0  0  0
    2.0762   -1.1965    0.0001 H   0  0  0  0  0  0  0  0  0  0  0  0
    1.1940    0.6926   -0.0017 C   0  0  0  0  0  0  0  0  0  0  0  0
    2.0636    1.1859   -0.0051 H   0  0  0  0  0  0  0  0  0  0  0  0
  1  5  1  0
  5  8  1  0
  1  2  1  0
  1  3  1  0
  1  4  1  0
  5  6  1  0
  5  7  1  0
  8  9  1  0
  8 10  1  0
  8 11  1  0
 12 16  1  0
 16 17  2  0
 17 19  1  0
 19 21  2  0
 21 23  1  0
 23 25  2  0
 25 16  1  0
 12 13  1  0
 12 14  1  0
 12 15  1  0
 17 18  1  0
 19 20  1  0
 21 22  1  0
 23 24  1  0
 25 26  1  0
M  CHG  1   8   1
M  END
>  <PDB_ID>  (3142) 
pdb6is6

>  <RESIDUE_NAME>  (3142) 
LYS   PHE

>  <FRAG_NAME>  (3142) 
ETAM   MBZ

>  <FRAG_ATOM_NUM>  (3142) 
fragi: 11  fragj: 15

>  <atom.prop.CHAIN_ID>  (3142) 
A A A A A A A A A A A Z Z Z Z Z Z Z Z Z Z Z Z Z Z Z

>  <atom.prop.IS_HEAVY_ATOM>  (3142) 
1 0 0 0 1 0 0 1 0 0 0 1 0 0 0 1 1 0 1 0 1 0 1 0 1 0

>  <DIFUSE_FUNC_ATOM>  (3142) 
n/a

>  <FINAL_SINGLE_POINT_ENERGY>  (3142) 
0

>  <NONCOV_INTER_ENERGY_QM>  (3142) 
0

>  <FF_Energy>  (3142) 
1.93

>  <QM_Energy>  (3142) 
-3.19

>  <source>  (3142) 
ETAM_MBZ

>  <Index>  (3142) 
34229

$$$$
ETAM-pdb5ii0-A-LYS-107:MBZ-pdb5ii0-A-PHE-94
     RDKit          3D

 26 25  0  0  0  0  0  0  0  0999 V2000
   -2.1393    0.6532   -3.7549 C   0  0  0  0  0  0  0  0  0  0  0  0
   -1.7363    1.1445   -4.5259 H   0  0  0  0  0  0  0  0  0  0  0  0
   -2.0571    1.2052   -2.9257 H   0  0  0  0  0  0  0  0  0  0  0  0
   -3.1970    0.4901   -3.9613 H   0  0  0  0  0  0  0  0  0  0  0  0
   -1.3553   -0.6487   -3.5487 C   0  0  0  0  0  0  0  0  0  0  0  0
   -1.7311   -1.1320   -2.7555 H   0  0  0  0  0  0  0  0  0  0  0  0
   -1.4605   -1.2230   -4.3630 H   0  0  0  0  0  0  0  0  0  0  0  0
    0.1166   -0.4021   -3.3143 N   0  0  0  0  0  4  0  0  0  0  0  0
    0.6105   -0.5792   -4.1611 H   0  0  0  0  0  0  0  0  0  0  0  0
    0.2417    0.5461   -3.0358 H   0  0  0  0  0  0  0  0  0  0  0  0
    0.4339   -1.0154   -2.5973 H   0  0  0  0  0  0  0  0  0  0  0  0
   -0.0182    2.8931   -0.0057 C   0  0  0  0  0  0  0  0  0  0  0  0
    0.9150    3.2127    0.0254 H   0  0  0  0  0  0  0  0  0  0  0  0
   -0.5348    3.2009    0.7772 H   0  0  0  0  0  0  0  0  0  0  0  0
   -0.4833    3.3172   -0.8956 H   0  0  0  0  0  0  0  0  0  0  0  0
   -0.0018    1.3958    0.0018 C   0  0  0  0  0  0  0  0  0  0  0  0
   -1.1926    0.6839   -0.0040 C   0  0  0  0  0  0  0  0  0  0  0  0
   -2.0623    1.1788   -0.0126 H   0  0  0  0  0  0  0  0  0  0  0  0
   -1.1984   -0.6952    0.0000 C   0  0  0  0  0  0  0  0  0  0  0  0
   -2.0752   -1.1920    0.0046 H   0  0  0  0  0  0  0  0  0  0  0  0
   -0.0014   -1.3870   -0.0000 C   0  0  0  0  0  0  0  0  0  0  0  0
   -0.0040   -2.3880   -0.0010 H   0  0  0  0  0  0  0  0  0  0  0  0
    1.1984   -0.6943   -0.0000 C   0  0  0  0  0  0  0  0  0  0  0  0
    2.0798   -1.1919   -0.0005 H   0  0  0  0  0  0  0  0  0  0  0  0
    1.1958    0.6967    0.0023 C   0  0  0  0  0  0  0  0  0  0  0  0
    2.0610    1.1923    0.0033 H   0  0  0  0  0  0  0  0  0  0  0  0
  1  5  1  0
  5  8  1  0
  1  2  1  0
  1  3  1  0
  1  4  1  0
  5  6  1  0
  5  7  1  0
  8  9  1  0
  8 10  1  0
  8 11  1  0
 12 16  1  0
 16 17  2  0
 17 19  1  0
 19 21  2  0
 21 23  1  0
 23 25  2  0
 25 16  1  0
 12 13  1  0
 12 14  1  0
 12 15  1  0
 17 18  1  0
 19 20  1  0
 21 22  1  0
 23 24  1  0
 25 26  1  0
M  CHG  1   8   1
M  END
>  <PDB_ID>  (3143) 
pdb5ii0

>  <RESIDUE_NAME>  (3143) 
LYS   PHE

>  <FRAG_NAME>  (3143) 
ETAM   MBZ

>  <FRAG_ATOM_NUM>  (3143) 
fragi: 11  fragj: 15

>  <atom.prop.CHAIN_ID>  (3143) 
A A A A A A A A A A A Z Z Z Z Z Z Z Z Z Z Z Z Z Z Z

>  <atom.prop.IS_HEAVY_ATOM>  (3143) 
1 0 0 0 1 0 0 1 0 0 0 1 0 0 0 1 1 0 1 0 1 0 1 0 1 0

>  <DIFUSE_FUNC_ATOM>  (3143) 
n/a

>  <FINAL_SINGLE_POINT_ENERGY>  (3143) 
0

>  <NONCOV_INTER_ENERGY_QM>  (3143) 
0

>  <FF_Energy>  (3143) 
-8.89

>  <QM_Energy>  (3143) 
-16.29

>  <source>  (3143) 
ETAM_MBZ

>  <Index>  (3143) 
34234

$$$$
ETAM-pdb5ii0-B-LYS-107:MBZ-pdb5ii0-B-PHE-94
     RDKit          3D

 26 25  0  0  0  0  0  0  0  0999 V2000
   -2.9372    0.1599   -3.6649 C   0  0  0  0  0  0  0  0  0  0  0  0
   -2.3016    0.4827   -4.3418 H   0  0  0  0  0  0  0  0  0  0  0  0
   -2.7668    0.5496   -2.7776 H   0  0  0  0  0  0  0  0  0  0  0  0
   -3.9564    0.3856   -3.9784 H   0  0  0  0  0  0  0  0  0  0  0  0
   -2.7870   -1.3617   -3.5558 C   0  0  0  0  0  0  0  0  0  0  0  0
   -3.4687   -1.7019   -2.8894 H   0  0  0  0  0  0  0  0  0  0  0  0
   -3.0088   -1.7690   -4.4546 H   0  0  0  0  0  0  0  0  0  0  0  0
   -1.4318   -1.8054   -3.1395 N   0  0  0  0  0  4  0  0  0  0  0  0
   -1.4824   -2.2232   -2.2326 H   0  0  0  0  0  0  0  0  0  0  0  0
   -1.0840   -2.4749   -3.7965 H   0  0  0  0  0  0  0  0  0  0  0  0
   -0.8174   -1.0169   -3.1107 H   0  0  0  0  0  0  0  0  0  0  0  0
   -0.0103    2.8855   -0.0005 C   0  0  0  0  0  0  0  0  0  0  0  0
    0.9250    3.2030    0.0148 H   0  0  0  0  0  0  0  0  0  0  0  0
   -0.5112    3.1955    0.7920 H   0  0  0  0  0  0  0  0  0  0  0  0
   -0.4897    3.3112   -0.8820 H   0  0  0  0  0  0  0  0  0  0  0  0
   -0.0012    1.3939    0.0031 C   0  0  0  0  0  0  0  0  0  0  0  0
   -1.1904    0.6928    0.0065 C   0  0  0  0  0  0  0  0  0  0  0  0
   -2.0597    1.1828    0.0122 H   0  0  0  0  0  0  0  0  0  0  0  0
   -1.1961   -0.6936   -0.0000 C   0  0  0  0  0  0  0  0  0  0  0  0
   -2.0775   -1.1844    0.0008 H   0  0  0  0  0  0  0  0  0  0  0  0
   -0.0061   -1.3859   -0.0057 C   0  0  0  0  0  0  0  0  0  0  0  0
   -0.0087   -2.3885   -0.0146 H   0  0  0  0  0  0  0  0  0  0  0  0
    1.1961   -0.6969   -0.0000 C   0  0  0  0  0  0  0  0  0  0  0  0
    2.0752   -1.1998    0.0081 H   0  0  0  0  0  0  0  0  0  0  0  0
    1.1977    0.6897   -0.0039 C   0  0  0  0  0  0  0  0  0  0  0  0
    2.0625    1.1859   -0.0128 H   0  0  0  0  0  0  0  0  0  0  0  0
  1  5  1  0
  5  8  1  0
  1  2  1  0
  1  3  1  0
  1  4  1  0
  5  6  1  0
  5  7  1  0
  8  9  1  0
  8 10  1  0
  8 11  1  0
 12 16  1  0
 16 17  2  0
 17 19  1  0
 19 21  2  0
 21 23  1  0
 23 25  2  0
 25 16  1  0
 12 13  1  0
 12 14  1  0
 12 15  1  0
 17 18  1  0
 19 20  1  0
 21 22  1  0
 23 24  1  0
 25 26  1  0
M  CHG  1   8   1
M  END
>  <PDB_ID>  (3144) 
pdb5ii0

>  <RESIDUE_NAME>  (3144) 
LYS   PHE

>  <FRAG_NAME>  (3144) 
ETAM   MBZ

>  <FRAG_ATOM_NUM>  (3144) 
fragi: 11  fragj: 15

>  <atom.prop.CHAIN_ID>  (3144) 
A A A A A A A A A A A Z Z Z Z Z Z Z Z Z Z Z Z Z Z Z

>  <atom.prop.IS_HEAVY_ATOM>  (3144) 
1 0 0 0 1 0 0 1 0 0 0 1 0 0 0 1 1 0 1 0 1 0 1 0 1 0

>  <DIFUSE_FUNC_ATOM>  (3144) 
n/a

>  <FINAL_SINGLE_POINT_ENERGY>  (3144) 
0

>  <NONCOV_INTER_ENERGY_QM>  (3144) 
0

>  <FF_Energy>  (3144) 
-4.76

>  <QM_Energy>  (3144) 
-11.05

>  <source>  (3144) 
ETAM_MBZ

>  <Index>  (3144) 
34235

$$$$
ETAM-pdb6iwd-A-LYS-1171:MBZ-pdb6iwd-A-PHE-910
     RDKit          3D

 26 25  0  0  0  0  0  0  0  0999 V2000
    4.9591    2.7614   -2.8236 C   0  0  0  0  0  0  0  0  0  0  0  0
    4.8693    3.3277   -3.6309 H   0  0  0  0  0  0  0  0  0  0  0  0
    5.5776    2.0052   -2.9857 H   0  0  0  0  0  0  0  0  0  0  0  0
    5.3516    3.3702   -2.0091 H   0  0  0  0  0  0  0  0  0  0  0  0
    3.5830    2.1979   -2.4674 C   0  0  0  0  0  0  0  0  0  0  0  0
    2.9637    2.9527   -2.2772 H   0  0  0  0  0  0  0  0  0  0  0  0
    3.2464    1.6582   -3.2322 H   0  0  0  0  0  0  0  0  0  0  0  0
    3.6828    1.3245   -1.2545 N   0  0  0  0  0  4  0  0  0  0  0  0
    2.7955    1.2960   -0.7987 H   0  0  0  0  0  0  0  0  0  0  0  0
    3.9494    0.4046   -1.5350 H   0  0  0  0  0  0  0  0  0  0  0  0
    4.3694    1.7016   -0.6358 H   0  0  0  0  0  0  0  0  0  0  0  0
   -0.0092    2.8940   -0.0248 C   0  0  0  0  0  0  0  0  0  0  0  0
   -0.8185    3.1897   -0.5402 H   0  0  0  0  0  0  0  0  0  0  0  0
    0.8138    3.2018   -0.5096 H   0  0  0  0  0  0  0  0  0  0  0  0
   -0.0308    3.4017    0.9394 H   0  0  0  0  0  0  0  0  0  0  0  0
    0.0020    1.3984   -0.0076 C   0  0  0  0  0  0  0  0  0  0  0  0
   -1.1988    0.6929   -0.0084 C   0  0  0  0  0  0  0  0  0  0  0  0
   -2.0635    1.1938   -0.0171 H   0  0  0  0  0  0  0  0  0  0  0  0
   -1.2193   -0.6927    0.0000 C   0  0  0  0  0  0  0  0  0  0  0  0
   -2.0875   -1.1858   -0.0105 H   0  0  0  0  0  0  0  0  0  0  0  0
   -0.0065   -1.3908    0.0253 C   0  0  0  0  0  0  0  0  0  0  0  0
   -0.0118   -2.3897    0.0609 H   0  0  0  0  0  0  0  0  0  0  0  0
    1.2193   -0.7001   -0.0000 C   0  0  0  0  0  0  0  0  0  0  0  0
    2.0856   -1.2006   -0.0096 H   0  0  0  0  0  0  0  0  0  0  0  0
    1.2033    0.6924   -0.0093 C   0  0  0  0  0  0  0  0  0  0  0  0
    2.0696    1.1950   -0.0188 H   0  0  0  0  0  0  0  0  0  0  0  0
  1  5  1  0
  5  8  1  0
  1  2  1  0
  1  3  1  0
  1  4  1  0
  5  6  1  0
  5  7  1  0
  8  9  1  0
  8 10  1  0
  8 11  1  0
 12 16  1  0
 16 17  2  0
 17 19  1  0
 19 21  2  0
 21 23  1  0
 23 25  2  0
 25 16  1  0
 12 13  1  0
 12 14  1  0
 12 15  1  0
 17 18  1  0
 19 20  1  0
 21 22  1  0
 23 24  1  0
 25 26  1  0
M  CHG  1   8   1
M  END
>  <PDB_ID>  (3145) 
pdb6iwd

>  <RESIDUE_NAME>  (3145) 
LYS   PHE

>  <FRAG_NAME>  (3145) 
ETAM   MBZ

>  <FRAG_ATOM_NUM>  (3145) 
fragi: 11  fragj: 15

>  <atom.prop.CHAIN_ID>  (3145) 
A A A A A A A A A A A Z Z Z Z Z Z Z Z Z Z Z Z Z Z Z

>  <atom.prop.IS_HEAVY_ATOM>  (3145) 
1 0 0 0 1 0 0 1 0 0 0 1 0 0 0 1 1 0 1 0 1 0 1 0 1 0

>  <DIFUSE_FUNC_ATOM>  (3145) 
n/a

>  <FINAL_SINGLE_POINT_ENERGY>  (3145) 
0

>  <NONCOV_INTER_ENERGY_QM>  (3145) 
0

>  <FF_Energy>  (3145) 
24.14

>  <QM_Energy>  (3145) 
10.18

>  <source>  (3145) 
ETAM_MBZ

>  <Index>  (3145) 
34253

$$$$
ETAM-pdb5il9-A-LYS-187:MBZ-pdb5il9-A-PHE-132
     RDKit          3D

 26 25  0  0  0  0  0  0  0  0999 V2000
    1.8970    0.2972    3.8140 C   0  0  0  0  0  0  0  0  0  0  0  0
    1.7433    0.9093    4.5805 H   0  0  0  0  0  0  0  0  0  0  0  0
    1.7218    0.7604    2.9538 H   0  0  0  0  0  0  0  0  0  0  0  0
    2.9358   -0.0325    3.8317 H   0  0  0  0  0  0  0  0  0  0  0  0
    0.9493   -0.8831    3.9339 C   0  0  0  0  0  0  0  0  0  0  0  0
    1.2135   -1.5842    3.2691 H   0  0  0  0  0  0  0  0  0  0  0  0
    1.0176   -1.2653    4.8580 H   0  0  0  0  0  0  0  0  0  0  0  0
   -0.4640   -0.4769    3.6777 N   0  0  0  0  0  4  0  0  0  0  0  0
   -0.7224    0.2406    4.3231 H   0  0  0  0  0  0  0  0  0  0  0  0
   -0.5442   -0.1331    2.7433 H   0  0  0  0  0  0  0  0  0  0  0  0
   -1.0613   -1.2686    3.7980 H   0  0  0  0  0  0  0  0  0  0  0  0
    0.0076    2.8994    0.0044 C   0  0  0  0  0  0  0  0  0  0  0  0
    0.8534    3.2004    0.4216 H   0  0  0  0  0  0  0  0  0  0  0  0
   -0.7758    3.2048    0.5268 H   0  0  0  0  0  0  0  0  0  0  0  0
   -0.0555    3.3507   -0.9859 H   0  0  0  0  0  0  0  0  0  0  0  0
    0.0027    1.3994   -0.0058 C   0  0  0  0  0  0  0  0  0  0  0  0
   -1.1918    0.6933    0.0062 C   0  0  0  0  0  0  0  0  0  0  0  0
   -2.0590    1.1798    0.0178 H   0  0  0  0  0  0  0  0  0  0  0  0
   -1.1941   -0.7005    0.0000 C   0  0  0  0  0  0  0  0  0  0  0  0
   -2.0755   -1.1896   -0.0041 H   0  0  0  0  0  0  0  0  0  0  0  0
   -0.0031   -1.3898    0.0014 C   0  0  0  0  0  0  0  0  0  0  0  0
   -0.0028   -2.3913    0.0024 H   0  0  0  0  0  0  0  0  0  0  0  0
    1.1941   -0.6955   -0.0000 C   0  0  0  0  0  0  0  0  0  0  0  0
    2.0774   -1.1940    0.0019 H   0  0  0  0  0  0  0  0  0  0  0  0
    1.1923    0.6930   -0.0017 C   0  0  0  0  0  0  0  0  0  0  0  0
    2.0636    1.1872   -0.0007 H   0  0  0  0  0  0  0  0  0  0  0  0
  1  5  1  0
  5  8  1  0
  1  2  1  0
  1  3  1  0
  1  4  1  0
  5  6  1  0
  5  7  1  0
  8  9  1  0
  8 10  1  0
  8 11  1  0
 12 16  1  0
 16 17  2  0
 17 19  1  0
 19 21  2  0
 21 23  1  0
 23 25  2  0
 25 16  1  0
 12 13  1  0
 12 14  1  0
 12 15  1  0
 17 18  1  0
 19 20  1  0
 21 22  1  0
 23 24  1  0
 25 26  1  0
M  CHG  1   8   1
M  END
>  <PDB_ID>  (3146) 
pdb5il9

>  <RESIDUE_NAME>  (3146) 
LYS   PHE

>  <FRAG_NAME>  (3146) 
ETAM   MBZ

>  <FRAG_ATOM_NUM>  (3146) 
fragi: 11  fragj: 15

>  <atom.prop.CHAIN_ID>  (3146) 
A A A A A A A A A A A Z Z Z Z Z Z Z Z Z Z Z Z Z Z Z

>  <atom.prop.IS_HEAVY_ATOM>  (3146) 
1 0 0 0 1 0 0 1 0 0 0 1 0 0 0 1 1 0 1 0 1 0 1 0 1 0

>  <DIFUSE_FUNC_ATOM>  (3146) 
n/a

>  <FINAL_SINGLE_POINT_ENERGY>  (3146) 
0

>  <NONCOV_INTER_ENERGY_QM>  (3146) 
0

>  <FF_Energy>  (3146) 
-7.9

>  <QM_Energy>  (3146) 
-13.83

>  <source>  (3146) 
ETAM_MBZ

>  <Index>  (3146) 
34297

$$$$
ETAM-pdb6iym-B-LYS-172:MBZ-pdb6iym-B-PHE-97
     RDKit          3D

 26 25  0  0  0  0  0  0  0  0999 V2000
    3.3336   -1.0654    2.3464 C   0  0  0  0  0  0  0  0  0  0  0  0
    2.9132   -0.1630    2.2222 H   0  0  0  0  0  0  0  0  0  0  0  0
    3.6302   -1.4129    1.4537 H   0  0  0  0  0  0  0  0  0  0  0  0
    4.1962   -0.9759    3.0067 H   0  0  0  0  0  0  0  0  0  0  0  0
    2.2767   -2.0063    2.8910 C   0  0  0  0  0  0  0  0  0  0  0  0
    2.2775   -1.9515    3.8962 H   0  0  0  0  0  0  0  0  0  0  0  0
    1.3737   -1.7110    2.5583 H   0  0  0  0  0  0  0  0  0  0  0  0
    2.5066   -3.4174    2.4821 N   0  0  0  0  0  4  0  0  0  0  0  0
    2.9945   -3.4350    1.6102 H   0  0  0  0  0  0  0  0  0  0  0  0
    3.0522   -3.8804    3.1801 H   0  0  0  0  0  0  0  0  0  0  0  0
    1.6274   -3.8823    2.3829 H   0  0  0  0  0  0  0  0  0  0  0  0
   -0.0049    2.8933   -0.0557 C   0  0  0  0  0  0  0  0  0  0  0  0
    0.8298    3.2193    0.3496 H   0  0  0  0  0  0  0  0  0  0  0  0
   -0.8018    3.2186    0.4203 H   0  0  0  0  0  0  0  0  0  0  0  0
   -0.0496    3.2694   -1.0778 H   0  0  0  0  0  0  0  0  0  0  0  0
   -0.0011    1.3923    0.0078 C   0  0  0  0  0  0  0  0  0  0  0  0
   -1.1955    0.6891    0.0019 C   0  0  0  0  0  0  0  0  0  0  0  0
   -2.0614    1.1773   -0.0018 H   0  0  0  0  0  0  0  0  0  0  0  0
   -1.1912   -0.6955    0.0000 C   0  0  0  0  0  0  0  0  0  0  0  0
   -2.0704   -1.1936   -0.0019 H   0  0  0  0  0  0  0  0  0  0  0  0
    0.0026   -1.3841    0.0026 C   0  0  0  0  0  0  0  0  0  0  0  0
   -0.0001   -2.3870    0.0058 H   0  0  0  0  0  0  0  0  0  0  0  0
    1.1912   -0.6919    0.0000 C   0  0  0  0  0  0  0  0  0  0  0  0
    2.0780   -1.1924    0.0090 H   0  0  0  0  0  0  0  0  0  0  0  0
    1.1941    0.6902   -0.0123 C   0  0  0  0  0  0  0  0  0  0  0  0
    2.0600    1.1863   -0.0363 H   0  0  0  0  0  0  0  0  0  0  0  0
  1  5  1  0
  5  8  1  0
  1  2  1  0
  1  3  1  0
  1  4  1  0
  5  6  1  0
  5  7  1  0
  8  9  1  0
  8 10  1  0
  8 11  1  0
 12 16  1  0
 16 17  2  0
 17 19  1  0
 19 21  2  0
 21 23  1  0
 23 25  2  0
 25 16  1  0
 12 13  1  0
 12 14  1  0
 12 15  1  0
 17 18  1  0
 19 20  1  0
 21 22  1  0
 23 24  1  0
 25 26  1  0
M  CHG  1   8   1
M  END
>  <PDB_ID>  (3147) 
pdb6iym

>  <RESIDUE_NAME>  (3147) 
LYS   PHE

>  <FRAG_NAME>  (3147) 
ETAM   MBZ

>  <FRAG_ATOM_NUM>  (3147) 
fragi: 11  fragj: 15

>  <atom.prop.CHAIN_ID>  (3147) 
A A A A A A A A A A A Z Z Z Z Z Z Z Z Z Z Z Z Z Z Z

>  <atom.prop.IS_HEAVY_ATOM>  (3147) 
1 0 0 0 1 0 0 1 0 0 0 1 0 0 0 1 1 0 1 0 1 0 1 0 1 0

>  <DIFUSE_FUNC_ATOM>  (3147) 
n/a

>  <FINAL_SINGLE_POINT_ENERGY>  (3147) 
0

>  <NONCOV_INTER_ENERGY_QM>  (3147) 
0

>  <FF_Energy>  (3147) 
0.09

>  <QM_Energy>  (3147) 
-5.42

>  <source>  (3147) 
ETAM_MBZ

>  <Index>  (3147) 
34305

$$$$
ETAM-pdb5ih3-B-LYS-310:MBZ-pdb5ih3-B-PHE-474
     RDKit          3D

 26 25  0  0  0  0  0  0  0  0999 V2000
    1.0644   -1.7110   -5.5185 C   0  0  0  0  0  0  0  0  0  0  0  0
    1.6736   -0.9729   -5.3575 H   0  0  0  0  0  0  0  0  0  0  0  0
    0.1913   -1.3804   -5.7805 H   0  0  0  0  0  0  0  0  0  0  0  0
    1.4653   -2.3483   -6.3066 H   0  0  0  0  0  0  0  0  0  0  0  0
    0.9143   -2.4903   -4.2416 C   0  0  0  0  0  0  0  0  0  0  0  0
    0.1144   -3.0374   -4.2915 H   0  0  0  0  0  0  0  0  0  0  0  0
    1.6963   -3.0498   -4.1132 H   0  0  0  0  0  0  0  0  0  0  0  0
    0.7890   -1.5920   -3.0698 N   0  0  0  0  0  4  0  0  0  0  0  0
    0.7007   -2.0716   -2.3257 H   0  0  0  0  0  0  0  0  0  0  0  0
    1.5133   -1.0805   -2.9999 H   0  0  0  0  0  0  0  0  0  0  0  0
    0.0742   -1.0693   -3.1632 H   0  0  0  0  0  0  0  0  0  0  0  0
   -0.0049    2.8894    0.0020 C   0  0  0  0  0  0  0  0  0  0  0  0
   -0.1416    3.1716   -0.9153 H   0  0  0  0  0  0  0  0  0  0  0  0
    0.8640    3.1900    0.3105 H   0  0  0  0  0  0  0  0  0  0  0  0
   -0.7740    3.3439    0.6265 H   0  0  0  0  0  0  0  0  0  0  0  0
   -0.0027    1.3940    0.0226 C   0  0  0  0  0  0  0  0  0  0  0  0
   -1.1871    0.6868   -0.0122 C   0  0  0  0  0  0  0  0  0  0  0  0
   -1.9956    1.1458   -0.0017 H   0  0  0  0  0  0  0  0  0  0  0  0
   -1.1880   -0.6881   -0.0000 C   0  0  0  0  0  0  0  0  0  0  0  0
   -1.9943   -1.1507   -0.0100 H   0  0  0  0  0  0  0  0  0  0  0  0
    0.0023   -1.3822   -0.0082 C   0  0  0  0  0  0  0  0  0  0  0  0
   -0.0007   -2.3120   -0.0078 H   0  0  0  0  0  0  0  0  0  0  0  0
    1.1880   -0.7001   -0.0000 C   0  0  0  0  0  0  0  0  0  0  0  0
    1.9928   -1.1668   -0.0014 H   0  0  0  0  0  0  0  0  0  0  0  0
    1.1875    0.6897   -0.0022 C   0  0  0  0  0  0  0  0  0  0  0  0
    1.9954    1.1501    0.0086 H   0  0  0  0  0  0  0  0  0  0  0  0
  1  5  1  0
  5  8  1  0
  1  2  1  0
  1  3  1  0
  1  4  1  0
  5  6  1  0
  5  7  1  0
  8  9  1  0
  8 10  1  0
  8 11  1  0
 12 16  1  0
 16 17  2  0
 17 19  1  0
 19 21  2  0
 21 23  1  0
 23 25  2  0
 25 16  1  0
 12 13  1  0
 12 14  1  0
 12 15  1  0
 17 18  1  0
 19 20  1  0
 21 22  1  0
 23 24  1  0
 25 26  1  0
M  CHG  1   8   1
M  END
>  <PDB_ID>  (3148) 
pdb5ih3

>  <RESIDUE_NAME>  (3148) 
LYS   PHE

>  <FRAG_NAME>  (3148) 
ETAM   MBZ

>  <FRAG_ATOM_NUM>  (3148) 
fragi: 11  fragj: 15

>  <atom.prop.CHAIN_ID>  (3148) 
A A A A A A A A A A A Z Z Z Z Z Z Z Z Z Z Z Z Z Z Z

>  <atom.prop.IS_HEAVY_ATOM>  (3148) 
1 0 0 0 1 0 0 1 0 0 0 1 0 0 0 1 1 0 1 0 1 0 1 0 1 0

>  <DIFUSE_FUNC_ATOM>  (3148) 
n/a

>  <FINAL_SINGLE_POINT_ENERGY>  (3148) 
0

>  <NONCOV_INTER_ENERGY_QM>  (3148) 
0

>  <FF_Energy>  (3148) 
-4.79

>  <QM_Energy>  (3148) 
-11.96

>  <source>  (3148) 
ETAM_MBZ

>  <Index>  (3148) 
34322

$$$$
ETAM-pdb6j0p-A-LYS-256:MBZ-pdb6j0p-A-PHE-210
     RDKit          3D

 26 25  0  0  0  0  0  0  0  0999 V2000
    0.3302    0.0614    3.6625 C   0  0  0  0  0  0  0  0  0  0  0  0
    0.2847    0.5669    4.5195 H   0  0  0  0  0  0  0  0  0  0  0  0
    0.5421    0.6790    2.9103 H   0  0  0  0  0  0  0  0  0  0  0  0
    1.1546   -0.6469    3.7458 H   0  0  0  0  0  0  0  0  0  0  0  0
   -0.9410   -0.6330    3.4105 C   0  0  0  0  0  0  0  0  0  0  0  0
   -0.9758   -0.9588    2.4710 H   0  0  0  0  0  0  0  0  0  0  0  0
   -1.0498   -1.3952    4.0421 H   0  0  0  0  0  0  0  0  0  0  0  0
   -2.0401    0.3288    3.6262 N   0  0  0  0  0  4  0  0  0  0  0  0
   -1.6621    1.2310    3.8388 H   0  0  0  0  0  0  0  0  0  0  0  0
   -2.6003    0.3926    2.7981 H   0  0  0  0  0  0  0  0  0  0  0  0
   -2.6118    0.0223    4.3895 H   0  0  0  0  0  0  0  0  0  0  0  0
    0.0148    2.8947   -0.0052 C   0  0  0  0  0  0  0  0  0  0  0  0
    0.8340    3.2067    0.4518 H   0  0  0  0  0  0  0  0  0  0  0  0
   -0.7988    3.2146    0.4570 H   0  0  0  0  0  0  0  0  0  0  0  0
    0.0140    3.3364   -1.0017 H   0  0  0  0  0  0  0  0  0  0  0  0
    0.0072    1.4037   -0.0038 C   0  0  0  0  0  0  0  0  0  0  0  0
   -1.1942    0.6957    0.0022 C   0  0  0  0  0  0  0  0  0  0  0  0
   -2.0590    1.1879    0.0068 H   0  0  0  0  0  0  0  0  0  0  0  0
   -1.2027   -0.6975    0.0000 C   0  0  0  0  0  0  0  0  0  0  0  0
   -2.0866   -1.1838    0.0061 H   0  0  0  0  0  0  0  0  0  0  0  0
   -0.0132   -1.3983   -0.0090 C   0  0  0  0  0  0  0  0  0  0  0  0
   -0.0127   -2.3950   -0.0221 H   0  0  0  0  0  0  0  0  0  0  0  0
    1.2027   -0.7006   -0.0000 C   0  0  0  0  0  0  0  0  0  0  0  0
    2.0767   -1.2016    0.0001 H   0  0  0  0  0  0  0  0  0  0  0  0
    1.2002    0.6970    0.0106 C   0  0  0  0  0  0  0  0  0  0  0  0
    2.0705    1.1873    0.0277 H   0  0  0  0  0  0  0  0  0  0  0  0
  1  5  1  0
  5  8  1  0
  1  2  1  0
  1  3  1  0
  1  4  1  0
  5  6  1  0
  5  7  1  0
  8  9  1  0
  8 10  1  0
  8 11  1  0
 12 16  1  0
 16 17  2  0
 17 19  1  0
 19 21  2  0
 21 23  1  0
 23 25  2  0
 25 16  1  0
 12 13  1  0
 12 14  1  0
 12 15  1  0
 17 18  1  0
 19 20  1  0
 21 22  1  0
 23 24  1  0
 25 26  1  0
M  CHG  1   8   1
M  END
>  <PDB_ID>  (3149) 
pdb6j0p

>  <RESIDUE_NAME>  (3149) 
LYS   PHE

>  <FRAG_NAME>  (3149) 
ETAM   MBZ

>  <FRAG_ATOM_NUM>  (3149) 
fragi: 11  fragj: 15

>  <atom.prop.CHAIN_ID>  (3149) 
A A A A A A A A A A A Z Z Z Z Z Z Z Z Z Z Z Z Z Z Z

>  <atom.prop.IS_HEAVY_ATOM>  (3149) 
1 0 0 0 1 0 0 1 0 0 0 1 0 0 0 1 1 0 1 0 1 0 1 0 1 0

>  <DIFUSE_FUNC_ATOM>  (3149) 
n/a

>  <FINAL_SINGLE_POINT_ENERGY>  (3149) 
0

>  <NONCOV_INTER_ENERGY_QM>  (3149) 
0

>  <FF_Energy>  (3149) 
-4.68

>  <QM_Energy>  (3149) 
-10.81

>  <source>  (3149) 
ETAM_MBZ

>  <Index>  (3149) 
34331

$$$$
ETAM-pdb6j4j-A-LYS-100:MBZ-pdb6j4j-H-PHE-67
     RDKit          3D

 26 25  0  0  0  0  0  0  0  0999 V2000
    1.1996   -5.8329   -1.8443 C   0  0  0  0  0  0  0  0  0  0  0  0
    1.9864   -5.8607   -2.4508 H   0  0  0  0  0  0  0  0  0  0  0  0
    0.8739   -6.7527   -1.6558 H   0  0  0  0  0  0  0  0  0  0  0  0
    1.4980   -5.3668   -0.9053 H   0  0  0  0  0  0  0  0  0  0  0  0
    0.0902   -5.0508   -2.5186 C   0  0  0  0  0  0  0  0  0  0  0  0
    0.0589   -5.3007   -3.4927 H   0  0  0  0  0  0  0  0  0  0  0  0
   -0.7897   -5.3013   -2.0985 H   0  0  0  0  0  0  0  0  0  0  0  0
    0.2800   -3.5765   -2.4022 N   0  0  0  0  0  4  0  0  0  0  0  0
    1.0750   -3.3900   -1.8269 H   0  0  0  0  0  0  0  0  0  0  0  0
    0.4252   -3.1900   -3.3119 H   0  0  0  0  0  0  0  0  0  0  0  0
   -0.5348   -3.1704   -1.9907 H   0  0  0  0  0  0  0  0  0  0  0  0
   -0.0089    2.9088    0.0224 C   0  0  0  0  0  0  0  0  0  0  0  0
   -0.6780    3.2154   -0.6327 H   0  0  0  0  0  0  0  0  0  0  0  0
    0.8980    3.2164   -0.2058 H   0  0  0  0  0  0  0  0  0  0  0  0
   -0.2726    3.3235    0.9953 H   0  0  0  0  0  0  0  0  0  0  0  0
   -0.0025    1.3964    0.0037 C   0  0  0  0  0  0  0  0  0  0  0  0
   -1.1912    0.6912    0.0000 C   0  0  0  0  0  0  0  0  0  0  0  0
   -2.0610    1.1812   -0.0041 H   0  0  0  0  0  0  0  0  0  0  0  0
   -1.1948   -0.6933    0.0000 C   0  0  0  0  0  0  0  0  0  0  0  0
   -2.0722   -1.1890    0.0068 H   0  0  0  0  0  0  0  0  0  0  0  0
    0.0027   -1.3861   -0.0076 C   0  0  0  0  0  0  0  0  0  0  0  0
   -0.0035   -2.3878   -0.0187 H   0  0  0  0  0  0  0  0  0  0  0  0
    1.1948   -0.6962    0.0000 C   0  0  0  0  0  0  0  0  0  0  0  0
    2.0793   -1.1941    0.0045 H   0  0  0  0  0  0  0  0  0  0  0  0
    1.1911    0.6880    0.0039 C   0  0  0  0  0  0  0  0  0  0  0  0
    2.0602    1.1866    0.0063 H   0  0  0  0  0  0  0  0  0  0  0  0
  1  5  1  0
  5  8  1  0
  1  2  1  0
  1  3  1  0
  1  4  1  0
  5  6  1  0
  5  7  1  0
  8  9  1  0
  8 10  1  0
  8 11  1  0
 12 16  1  0
 16 17  2  0
 17 19  1  0
 19 21  2  0
 21 23  1  0
 23 25  2  0
 25 16  1  0
 12 13  1  0
 12 14  1  0
 12 15  1  0
 17 18  1  0
 19 20  1  0
 21 22  1  0
 23 24  1  0
 25 26  1  0
M  CHG  1   8   1
M  END
>  <PDB_ID>  (3150) 
pdb6j4j

>  <RESIDUE_NAME>  (3150) 
LYS   PHE

>  <FRAG_NAME>  (3150) 
ETAM   MBZ

>  <FRAG_ATOM_NUM>  (3150) 
fragi: 11  fragj: 15

>  <atom.prop.CHAIN_ID>  (3150) 
A A A A A A A A A A A Z Z Z Z Z Z Z Z Z Z Z Z Z Z Z

>  <atom.prop.IS_HEAVY_ATOM>  (3150) 
1 0 0 0 1 0 0 1 0 0 0 1 0 0 0 1 1 0 1 0 1 0 1 0 1 0

>  <DIFUSE_FUNC_ATOM>  (3150) 
n/a

>  <FINAL_SINGLE_POINT_ENERGY>  (3150) 
0

>  <NONCOV_INTER_ENERGY_QM>  (3150) 
0

>  <FF_Energy>  (3150) 
-0.55

>  <QM_Energy>  (3150) 
-6.66

>  <source>  (3150) 
ETAM_MBZ

>  <Index>  (3150) 
34343

$$$$
ETAM-pdb5ipx-A-LYS-57:MBZ-pdb5ipx-A-PHE-12
     RDKit          3D

 26 25  0  0  0  0  0  0  0  0999 V2000
    0.1890   -4.5286    3.4990 C   0  0  0  0  0  0  0  0  0  0  0  0
    0.6043   -5.1553    4.1488 H   0  0  0  0  0  0  0  0  0  0  0  0
   -0.1190   -5.0173    2.6905 H   0  0  0  0  0  0  0  0  0  0  0  0
   -0.6659   -4.0434    3.9700 H   0  0  0  0  0  0  0  0  0  0  0  0
    1.2288   -3.5067    3.0793 C   0  0  0  0  0  0  0  0  0  0  0  0
    0.7665   -2.6468    2.8473 H   0  0  0  0  0  0  0  0  0  0  0  0
    1.8534   -3.3412    3.8479 H   0  0  0  0  0  0  0  0  0  0  0  0
    2.0151   -3.9693    1.9041 N   0  0  0  0  0  4  0  0  0  0  0  0
    2.1129   -4.9641    1.9409 H   0  0  0  0  0  0  0  0  0  0  0  0
    1.5398   -3.7112    1.0638 H   0  0  0  0  0  0  0  0  0  0  0  0
    2.9193   -3.5429    1.9211 H   0  0  0  0  0  0  0  0  0  0  0  0
    0.0013    2.8964    0.0035 C   0  0  0  0  0  0  0  0  0  0  0  0
    0.9269    3.2019    0.1692 H   0  0  0  0  0  0  0  0  0  0  0  0
   -0.6108    3.2017    0.7177 H   0  0  0  0  0  0  0  0  0  0  0  0
   -0.3334    3.3428   -0.9329 H   0  0  0  0  0  0  0  0  0  0  0  0
   -0.0004    1.3942   -0.0031 C   0  0  0  0  0  0  0  0  0  0  0  0
   -1.1917    0.6885    0.0014 C   0  0  0  0  0  0  0  0  0  0  0  0
   -2.0603    1.1799    0.0043 H   0  0  0  0  0  0  0  0  0  0  0  0
   -1.1948   -0.6936   -0.0000 C   0  0  0  0  0  0  0  0  0  0  0  0
   -2.0729   -1.1902   -0.0000 H   0  0  0  0  0  0  0  0  0  0  0  0
    0.0007   -1.3848    0.0012 C   0  0  0  0  0  0  0  0  0  0  0  0
   -0.0025   -2.3871    0.0022 H   0  0  0  0  0  0  0  0  0  0  0  0
    1.1948   -0.6926   -0.0000 C   0  0  0  0  0  0  0  0  0  0  0  0
    2.0785   -1.1930   -0.0002 H   0  0  0  0  0  0  0  0  0  0  0  0
    1.1914    0.6883    0.0006 C   0  0  0  0  0  0  0  0  0  0  0  0
    2.0606    1.1872    0.0027 H   0  0  0  0  0  0  0  0  0  0  0  0
  1  5  1  0
  5  8  1  0
  1  2  1  0
  1  3  1  0
  1  4  1  0
  5  6  1  0
  5  7  1  0
  8  9  1  0
  8 10  1  0
  8 11  1  0
 12 16  1  0
 16 17  2  0
 17 19  1  0
 19 21  2  0
 21 23  1  0
 23 25  2  0
 25 16  1  0
 12 13  1  0
 12 14  1  0
 12 15  1  0
 17 18  1  0
 19 20  1  0
 21 22  1  0
 23 24  1  0
 25 26  1  0
M  CHG  1   8   1
M  END
>  <PDB_ID>  (3151) 
pdb5ipx

>  <RESIDUE_NAME>  (3151) 
LYS   PHE

>  <FRAG_NAME>  (3151) 
ETAM   MBZ

>  <FRAG_ATOM_NUM>  (3151) 
fragi: 11  fragj: 15

>  <atom.prop.CHAIN_ID>  (3151) 
A A A A A A A A A A A Z Z Z Z Z Z Z Z Z Z Z Z Z Z Z

>  <atom.prop.IS_HEAVY_ATOM>  (3151) 
1 0 0 0 1 0 0 1 0 0 0 1 0 0 0 1 1 0 1 0 1 0 1 0 1 0

>  <DIFUSE_FUNC_ATOM>  (3151) 
n/a

>  <FINAL_SINGLE_POINT_ENERGY>  (3151) 
0

>  <NONCOV_INTER_ENERGY_QM>  (3151) 
0

>  <FF_Energy>  (3151) 
-0.48

>  <QM_Energy>  (3151) 
-5.61

>  <source>  (3151) 
ETAM_MBZ

>  <Index>  (3151) 
34350

$$$$
ETAM-pdb6j4j-B-LYS-85:MBZ-pdb6j4j-B-PHE-67
     RDKit          3D

 26 25  0  0  0  0  0  0  0  0999 V2000
   -1.1568   -0.5814   -4.2327 C   0  0  0  0  0  0  0  0  0  0  0  0
   -1.9606   -0.9315   -3.7735 H   0  0  0  0  0  0  0  0  0  0  0  0
   -0.9150   -1.1440   -5.0096 H   0  0  0  0  0  0  0  0  0  0  0  0
   -1.3392    0.4415   -4.5620 H   0  0  0  0  0  0  0  0  0  0  0  0
   -0.0130   -0.5754   -3.2671 C   0  0  0  0  0  0  0  0  0  0  0  0
    0.7360   -0.0106   -3.6374 H   0  0  0  0  0  0  0  0  0  0  0  0
   -0.3108   -0.1648   -2.3949 H   0  0  0  0  0  0  0  0  0  0  0  0
    0.5111   -1.9433   -2.9945 N   0  0  0  0  0  4  0  0  0  0  0  0
    1.0476   -1.9305   -2.1516 H   0  0  0  0  0  0  0  0  0  0  0  0
   -0.2551   -2.5768   -2.8947 H   0  0  0  0  0  0  0  0  0  0  0  0
    1.0900   -2.2335   -3.7559 H   0  0  0  0  0  0  0  0  0  0  0  0
   -0.0098    2.9111    0.0224 C   0  0  0  0  0  0  0  0  0  0  0  0
   -0.6957    3.2212   -0.6118 H   0  0  0  0  0  0  0  0  0  0  0  0
    0.8913    3.2217   -0.2250 H   0  0  0  0  0  0  0  0  0  0  0  0
   -0.2496    3.3161    1.0054 H   0  0  0  0  0  0  0  0  0  0  0  0
   -0.0028    1.4003   -0.0049 C   0  0  0  0  0  0  0  0  0  0  0  0
   -1.1900    0.6905    0.0011 C   0  0  0  0  0  0  0  0  0  0  0  0
   -2.0620    1.1780    0.0046 H   0  0  0  0  0  0  0  0  0  0  0  0
   -1.1948   -0.6990    0.0000 C   0  0  0  0  0  0  0  0  0  0  0  0
   -2.0728   -1.1917   -0.0029 H   0  0  0  0  0  0  0  0  0  0  0  0
    0.0016   -1.3887    0.0051 C   0  0  0  0  0  0  0  0  0  0  0  0
   -0.0030   -2.3920    0.0121 H   0  0  0  0  0  0  0  0  0  0  0  0
    1.1948   -0.6990   -0.0000 C   0  0  0  0  0  0  0  0  0  0  0  0
    2.0793   -1.1920   -0.0019 H   0  0  0  0  0  0  0  0  0  0  0  0
    1.1912    0.6958   -0.0012 C   0  0  0  0  0  0  0  0  0  0  0  0
    2.0600    1.1889   -0.0005 H   0  0  0  0  0  0  0  0  0  0  0  0
  1  5  1  0
  5  8  1  0
  1  2  1  0
  1  3  1  0
  1  4  1  0
  5  6  1  0
  5  7  1  0
  8  9  1  0
  8 10  1  0
  8 11  1  0
 12 16  1  0
 16 17  2  0
 17 19  1  0
 19 21  2  0
 21 23  1  0
 23 25  2  0
 25 16  1  0
 12 13  1  0
 12 14  1  0
 12 15  1  0
 17 18  1  0
 19 20  1  0
 21 22  1  0
 23 24  1  0
 25 26  1  0
M  CHG  1   8   1
M  END
>  <PDB_ID>  (3152) 
pdb6j4j

>  <RESIDUE_NAME>  (3152) 
LYS   PHE

>  <FRAG_NAME>  (3152) 
ETAM   MBZ

>  <FRAG_ATOM_NUM>  (3152) 
fragi: 11  fragj: 15

>  <atom.prop.CHAIN_ID>  (3152) 
A A A A A A A A A A A Z Z Z Z Z Z Z Z Z Z Z Z Z Z Z

>  <atom.prop.IS_HEAVY_ATOM>  (3152) 
1 0 0 0 1 0 0 1 0 0 0 1 0 0 0 1 1 0 1 0 1 0 1 0 1 0

>  <DIFUSE_FUNC_ATOM>  (3152) 
n/a

>  <FINAL_SINGLE_POINT_ENERGY>  (3152) 
0

>  <NONCOV_INTER_ENERGY_QM>  (3152) 
0

>  <FF_Energy>  (3152) 
-4.37

>  <QM_Energy>  (3152) 
-13.86

>  <source>  (3152) 
ETAM_MBZ

>  <Index>  (3152) 
34391

$$$$
ETAM-pdb6j9m-E-LYS-4:MBZ-pdb6j9m-E-PHE-8
     RDKit          3D

 26 25  0  0  0  0  0  0  0  0999 V2000
    4.6653   -1.6251   -0.9124 C   0  0  0  0  0  0  0  0  0  0  0  0
    5.5203   -1.6029   -0.3979 H   0  0  0  0  0  0  0  0  0  0  0  0
    3.9278   -1.2471   -0.3566 H   0  0  0  0  0  0  0  0  0  0  0  0
    4.7770   -1.0234   -1.8144 H   0  0  0  0  0  0  0  0  0  0  0  0
    4.3353   -3.0646   -1.2361 C   0  0  0  0  0  0  0  0  0  0  0  0
    3.9282   -3.1070   -2.1560 H   0  0  0  0  0  0  0  0  0  0  0  0
    5.1869   -3.6014   -1.2422 H   0  0  0  0  0  0  0  0  0  0  0  0
    3.3952   -3.6546   -0.2593 N   0  0  0  0  0  4  0  0  0  0  0  0
    3.0076   -2.9313    0.3146 H   0  0  0  0  0  0  0  0  0  0  0  0
    2.6557   -4.1240   -0.7447 H   0  0  0  0  0  0  0  0  0  0  0  0
    3.8803   -4.3114    0.3198 H   0  0  0  0  0  0  0  0  0  0  0  0
   -0.0062    2.9073    0.0125 C   0  0  0  0  0  0  0  0  0  0  0  0
    0.9212    3.2132    0.1684 H   0  0  0  0  0  0  0  0  0  0  0  0
   -0.6077    3.2014    0.7401 H   0  0  0  0  0  0  0  0  0  0  0  0
   -0.3567    3.3608   -0.9145 H   0  0  0  0  0  0  0  0  0  0  0  0
   -0.0003    1.3984   -0.0025 C   0  0  0  0  0  0  0  0  0  0  0  0
   -1.1943    0.6878    0.0006 C   0  0  0  0  0  0  0  0  0  0  0  0
   -2.0615    1.1796    0.0018 H   0  0  0  0  0  0  0  0  0  0  0  0
   -1.1968   -0.6955    0.0000 C   0  0  0  0  0  0  0  0  0  0  0  0
   -2.0737   -1.1930    0.0008 H   0  0  0  0  0  0  0  0  0  0  0  0
    0.0020   -1.3881   -0.0002 C   0  0  0  0  0  0  0  0  0  0  0  0
   -0.0014   -2.3888   -0.0013 H   0  0  0  0  0  0  0  0  0  0  0  0
    1.1968   -0.6936   -0.0000 C   0  0  0  0  0  0  0  0  0  0  0  0
    2.0809   -1.1924    0.0002 H   0  0  0  0  0  0  0  0  0  0  0  0
    1.1926    0.6912    0.0021 C   0  0  0  0  0  0  0  0  0  0  0  0
    2.0622    1.1890    0.0060 H   0  0  0  0  0  0  0  0  0  0  0  0
  1  5  1  0
  5  8  1  0
  1  2  1  0
  1  3  1  0
  1  4  1  0
  5  6  1  0
  5  7  1  0
  8  9  1  0
  8 10  1  0
  8 11  1  0
 12 16  1  0
 16 17  2  0
 17 19  1  0
 19 21  2  0
 21 23  1  0
 23 25  2  0
 25 16  1  0
 12 13  1  0
 12 14  1  0
 12 15  1  0
 17 18  1  0
 19 20  1  0
 21 22  1  0
 23 24  1  0
 25 26  1  0
M  CHG  1   8   1
M  END
>  <PDB_ID>  (3153) 
pdb6j9m

>  <RESIDUE_NAME>  (3153) 
LYS   PHE

>  <FRAG_NAME>  (3153) 
ETAM   MBZ

>  <FRAG_ATOM_NUM>  (3153) 
fragi: 11  fragj: 15

>  <atom.prop.CHAIN_ID>  (3153) 
A A A A A A A A A A A Z Z Z Z Z Z Z Z Z Z Z Z Z Z Z

>  <atom.prop.IS_HEAVY_ATOM>  (3153) 
1 0 0 0 1 0 0 1 0 0 0 1 0 0 0 1 1 0 1 0 1 0 1 0 1 0

>  <DIFUSE_FUNC_ATOM>  (3153) 
n/a

>  <FINAL_SINGLE_POINT_ENERGY>  (3153) 
0

>  <NONCOV_INTER_ENERGY_QM>  (3153) 
0

>  <FF_Energy>  (3153) 
2.92

>  <QM_Energy>  (3153) 
-2.61

>  <source>  (3153) 
ETAM_MBZ

>  <Index>  (3153) 
34405

$$$$
ETAM-pdb5isu-A-LYS-171:MBZ-pdb5isu-A-PHE-75
     RDKit          3D

 26 25  0  0  0  0  0  0  0  0999 V2000
   -0.3975    2.2372   -3.5614 C   0  0  0  0  0  0  0  0  0  0  0  0
    0.2199    2.8694   -3.1244 H   0  0  0  0  0  0  0  0  0  0  0  0
   -0.9119    1.7112   -2.9067 H   0  0  0  0  0  0  0  0  0  0  0  0
   -1.0814    2.7842   -4.2104 H   0  0  0  0  0  0  0  0  0  0  0  0
    0.4169    1.2804   -4.4144 C   0  0  0  0  0  0  0  0  0  0  0  0
   -0.2037    0.6334   -4.8585 H   0  0  0  0  0  0  0  0  0  0  0  0
    0.9059    1.8040   -5.1121 H   0  0  0  0  0  0  0  0  0  0  0  0
    1.3928    0.5352   -3.5850 N   0  0  0  0  0  4  0  0  0  0  0  0
    1.6979   -0.2806   -4.0784 H   0  0  0  0  0  0  0  0  0  0  0  0
    2.1818    1.1194   -3.3901 H   0  0  0  0  0  0  0  0  0  0  0  0
    0.9611    0.2612   -2.7248 H   0  0  0  0  0  0  0  0  0  0  0  0
    0.0036    2.8924   -0.0039 C   0  0  0  0  0  0  0  0  0  0  0  0
   -0.7838    3.1984   -0.5195 H   0  0  0  0  0  0  0  0  0  0  0  0
    0.8465    3.1945   -0.4252 H   0  0  0  0  0  0  0  0  0  0  0  0
   -0.0526    3.3336    0.9913 H   0  0  0  0  0  0  0  0  0  0  0  0
    0.0003    1.3927   -0.0009 C   0  0  0  0  0  0  0  0  0  0  0  0
   -1.1911    0.6978    0.0057 C   0  0  0  0  0  0  0  0  0  0  0  0
   -2.0583    1.1900    0.0132 H   0  0  0  0  0  0  0  0  0  0  0  0
   -1.2008   -0.6896    0.0000 C   0  0  0  0  0  0  0  0  0  0  0  0
   -2.0798   -1.1815   -0.0008 H   0  0  0  0  0  0  0  0  0  0  0  0
   -0.0036   -1.3913   -0.0031 C   0  0  0  0  0  0  0  0  0  0  0  0
   -0.0079   -2.3873   -0.0077 H   0  0  0  0  0  0  0  0  0  0  0  0
    1.2008   -0.6935    0.0000 C   0  0  0  0  0  0  0  0  0  0  0  0
    2.0787   -1.1979    0.0050 H   0  0  0  0  0  0  0  0  0  0  0  0
    1.1943    0.6839   -0.0017 C   0  0  0  0  0  0  0  0  0  0  0  0
    2.0629    1.1873   -0.0040 H   0  0  0  0  0  0  0  0  0  0  0  0
  1  5  1  0
  5  8  1  0
  1  2  1  0
  1  3  1  0
  1  4  1  0
  5  6  1  0
  5  7  1  0
  8  9  1  0
  8 10  1  0
  8 11  1  0
 12 16  1  0
 16 17  2  0
 17 19  1  0
 19 21  2  0
 21 23  1  0
 23 25  2  0
 25 16  1  0
 12 13  1  0
 12 14  1  0
 12 15  1  0
 17 18  1  0
 19 20  1  0
 21 22  1  0
 23 24  1  0
 25 26  1  0
M  CHG  1   8   1
M  END
>  <PDB_ID>  (3154) 
pdb5isu

>  <RESIDUE_NAME>  (3154) 
LYS   PHE

>  <FRAG_NAME>  (3154) 
ETAM   MBZ

>  <FRAG_ATOM_NUM>  (3154) 
fragi: 11  fragj: 15

>  <atom.prop.CHAIN_ID>  (3154) 
A A A A A A A A A A A Z Z Z Z Z Z Z Z Z Z Z Z Z Z Z

>  <atom.prop.IS_HEAVY_ATOM>  (3154) 
1 0 0 0 1 0 0 1 0 0 0 1 0 0 0 1 1 0 1 0 1 0 1 0 1 0

>  <DIFUSE_FUNC_ATOM>  (3154) 
n/a

>  <FINAL_SINGLE_POINT_ENERGY>  (3154) 
0

>  <NONCOV_INTER_ENERGY_QM>  (3154) 
0

>  <FF_Energy>  (3154) 
-7.19

>  <QM_Energy>  (3154) 
-12.56

>  <source>  (3154) 
ETAM_MBZ

>  <Index>  (3154) 
34406

$$$$
ETAM-pdb6j9s-A-LYS-232:MBZ-pdb6j9s-A-PHE-236
     RDKit          3D

 26 25  0  0  0  0  0  0  0  0999 V2000
   -1.8444   -3.2331   -3.8403 C   0  0  0  0  0  0  0  0  0  0  0  0
   -1.8593   -3.4395   -2.8609 H   0  0  0  0  0  0  0  0  0  0  0  0
   -1.2781   -3.9097   -4.3136 H   0  0  0  0  0  0  0  0  0  0  0  0
   -2.8633   -3.3439   -4.2111 H   0  0  0  0  0  0  0  0  0  0  0  0
   -1.2995   -1.8718   -4.0629 C   0  0  0  0  0  0  0  0  0  0  0  0
   -1.0997   -1.7396   -5.0406 H   0  0  0  0  0  0  0  0  0  0  0  0
   -1.9768   -1.1828   -3.7808 H   0  0  0  0  0  0  0  0  0  0  0  0
   -0.0503   -1.6544   -3.2895 N   0  0  0  0  0  4  0  0  0  0  0  0
    0.4348   -2.5234   -3.1893 H   0  0  0  0  0  0  0  0  0  0  0  0
    0.5317   -1.0018   -3.7741 H   0  0  0  0  0  0  0  0  0  0  0  0
   -0.2773   -1.2923   -2.3857 H   0  0  0  0  0  0  0  0  0  0  0  0
   -0.0393    2.9427   -0.0062 C   0  0  0  0  0  0  0  0  0  0  0  0
    0.7912    3.2556    0.4386 H   0  0  0  0  0  0  0  0  0  0  0  0
   -0.8400    3.2259    0.5083 H   0  0  0  0  0  0  0  0  0  0  0  0
   -0.0900    3.4295   -0.9801 H   0  0  0  0  0  0  0  0  0  0  0  0
   -0.0125    1.4154   -0.0194 C   0  0  0  0  0  0  0  0  0  0  0  0
   -1.1921    0.7040   -0.0038 C   0  0  0  0  0  0  0  0  0  0  0  0
   -2.0695    1.1837    0.0036 H   0  0  0  0  0  0  0  0  0  0  0  0
   -1.1976   -0.6957    0.0000 C   0  0  0  0  0  0  0  0  0  0  0  0
   -2.0707   -1.1909   -0.0106 H   0  0  0  0  0  0  0  0  0  0  0  0
    0.0204   -1.4175    0.0208 C   0  0  0  0  0  0  0  0  0  0  0  0
   -0.0033   -2.4050    0.0490 H   0  0  0  0  0  0  0  0  0  0  0  0
    1.1976   -0.7155    0.0000 C   0  0  0  0  0  0  0  0  0  0  0  0
    2.0948   -1.1839   -0.0160 H   0  0  0  0  0  0  0  0  0  0  0  0
    1.1843    0.7093    0.0024 C   0  0  0  0  0  0  0  0  0  0  0  0
    2.0549    1.1934    0.0195 H   0  0  0  0  0  0  0  0  0  0  0  0
  1  5  1  0
  5  8  1  0
  1  2  1  0
  1  3  1  0
  1  4  1  0
  5  6  1  0
  5  7  1  0
  8  9  1  0
  8 10  1  0
  8 11  1  0
 12 16  1  0
 16 17  2  0
 17 19  1  0
 19 21  2  0
 21 23  1  0
 23 25  2  0
 25 16  1  0
 12 13  1  0
 12 14  1  0
 12 15  1  0
 17 18  1  0
 19 20  1  0
 21 22  1  0
 23 24  1  0
 25 26  1  0
M  CHG  1   8   1
M  END
>  <PDB_ID>  (3155) 
pdb6j9s

>  <RESIDUE_NAME>  (3155) 
LYS   PHE

>  <FRAG_NAME>  (3155) 
ETAM   MBZ

>  <FRAG_ATOM_NUM>  (3155) 
fragi: 11  fragj: 15

>  <atom.prop.CHAIN_ID>  (3155) 
A A A A A A A A A A A Z Z Z Z Z Z Z Z Z Z Z Z Z Z Z

>  <atom.prop.IS_HEAVY_ATOM>  (3155) 
1 0 0 0 1 0 0 1 0 0 0 1 0 0 0 1 1 0 1 0 1 0 1 0 1 0

>  <DIFUSE_FUNC_ATOM>  (3155) 
n/a

>  <FINAL_SINGLE_POINT_ENERGY>  (3155) 
0

>  <NONCOV_INTER_ENERGY_QM>  (3155) 
0

>  <FF_Energy>  (3155) 
-6.6

>  <QM_Energy>  (3155) 
-14.11

>  <source>  (3155) 
ETAM_MBZ

>  <Index>  (3155) 
34423

$$$$
ETAM-pdb5iu0-J-LYS-119:MBZ-pdb5iu0-J-PHE-12
     RDKit          3D

 26 25  0  0  0  0  0  0  0  0999 V2000
   -1.0556   -1.5010   -3.7711 C   0  0  0  0  0  0  0  0  0  0  0  0
   -1.7426   -2.1336   -4.1086 H   0  0  0  0  0  0  0  0  0  0  0  0
   -0.7971   -1.7278   -2.8403 H   0  0  0  0  0  0  0  0  0  0  0  0
   -0.1754   -1.5482   -4.4123 H   0  0  0  0  0  0  0  0  0  0  0  0
   -1.6462   -0.1015   -3.7782 C   0  0  0  0  0  0  0  0  0  0  0  0
   -0.9658    0.5432   -3.3990 H   0  0  0  0  0  0  0  0  0  0  0  0
   -1.8268    0.1726   -4.7349 H   0  0  0  0  0  0  0  0  0  0  0  0
   -2.9155    0.0243   -2.9945 N   0  0  0  0  0  4  0  0  0  0  0  0
   -3.6460   -0.4577   -3.4754 H   0  0  0  0  0  0  0  0  0  0  0  0
   -2.7830   -0.3769   -2.0903 H   0  0  0  0  0  0  0  0  0  0  0  0
   -3.1501    0.9905   -2.9044 H   0  0  0  0  0  0  0  0  0  0  0  0
    0.0008    2.8925    0.0057 C   0  0  0  0  0  0  0  0  0  0  0  0
   -0.8017    3.2018   -0.4811 H   0  0  0  0  0  0  0  0  0  0  0  0
    0.8303    3.1997   -0.4351 H   0  0  0  0  0  0  0  0  0  0  0  0
   -0.0261    3.3296    1.0039 H   0  0  0  0  0  0  0  0  0  0  0  0
   -0.0014    1.3902    0.0025 C   0  0  0  0  0  0  0  0  0  0  0  0
   -1.1910    0.6859   -0.0008 C   0  0  0  0  0  0  0  0  0  0  0  0
   -2.0582    1.1822   -0.0047 H   0  0  0  0  0  0  0  0  0  0  0  0
   -1.1928   -0.6840   -0.0000 C   0  0  0  0  0  0  0  0  0  0  0  0
   -2.0706   -1.1876    0.0010 H   0  0  0  0  0  0  0  0  0  0  0  0
    0.0033   -1.3786    0.0008 C   0  0  0  0  0  0  0  0  0  0  0  0
   -0.0084   -2.3828    0.0016 H   0  0  0  0  0  0  0  0  0  0  0  0
    1.1928   -0.6954    0.0000 C   0  0  0  0  0  0  0  0  0  0  0  0
    2.0768   -1.1956    0.0022 H   0  0  0  0  0  0  0  0  0  0  0  0
    1.1891    0.6820   -0.0026 C   0  0  0  0  0  0  0  0  0  0  0  0
    2.0593    1.1824   -0.0087 H   0  0  0  0  0  0  0  0  0  0  0  0
  1  5  1  0
  5  8  1  0
  1  2  1  0
  1  3  1  0
  1  4  1  0
  5  6  1  0
  5  7  1  0
  8  9  1  0
  8 10  1  0
  8 11  1  0
 12 16  1  0
 16 17  2  0
 17 19  1  0
 19 21  2  0
 21 23  1  0
 23 25  2  0
 25 16  1  0
 12 13  1  0
 12 14  1  0
 12 15  1  0
 17 18  1  0
 19 20  1  0
 21 22  1  0
 23 24  1  0
 25 26  1  0
M  CHG  1   8   1
M  END
>  <PDB_ID>  (3156) 
pdb5iu0

>  <RESIDUE_NAME>  (3156) 
LYS   PHE

>  <FRAG_NAME>  (3156) 
ETAM   MBZ

>  <FRAG_ATOM_NUM>  (3156) 
fragi: 11  fragj: 15

>  <atom.prop.CHAIN_ID>  (3156) 
A A A A A A A A A A A Z Z Z Z Z Z Z Z Z Z Z Z Z Z Z

>  <atom.prop.IS_HEAVY_ATOM>  (3156) 
1 0 0 0 1 0 0 1 0 0 0 1 0 0 0 1 1 0 1 0 1 0 1 0 1 0

>  <DIFUSE_FUNC_ATOM>  (3156) 
n/a

>  <FINAL_SINGLE_POINT_ENERGY>  (3156) 
0

>  <NONCOV_INTER_ENERGY_QM>  (3156) 
0

>  <FF_Energy>  (3156) 
-4.27

>  <QM_Energy>  (3156) 
-10.2

>  <source>  (3156) 
ETAM_MBZ

>  <Index>  (3156) 
34427

$$$$
ETAM-pdb6jbi-A-LYS-53:MBZ-pdb6jbi-A-PHE-57
     RDKit          3D

 26 25  0  0  0  0  0  0  0  0999 V2000
    2.0600   -3.9822    0.7033 C   0  0  0  0  0  0  0  0  0  0  0  0
    1.4833   -3.4090    0.1252 H   0  0  0  0  0  0  0  0  0  0  0  0
    1.4912   -4.5666    1.2776 H   0  0  0  0  0  0  0  0  0  0  0  0
    2.6887   -4.6077    0.0694 H   0  0  0  0  0  0  0  0  0  0  0  0
    2.8875   -3.0857    1.5981 C   0  0  0  0  0  0  0  0  0  0  0  0
    3.5440   -3.6425    2.1066 H   0  0  0  0  0  0  0  0  0  0  0  0
    3.3800   -2.4219    1.0361 H   0  0  0  0  0  0  0  0  0  0  0  0
    2.0186   -2.3518    2.5668 N   0  0  0  0  0  4  0  0  0  0  0  0
    1.8922   -2.9113    3.3843 H   0  0  0  0  0  0  0  0  0  0  0  0
    2.4569   -1.4887    2.8133 H   0  0  0  0  0  0  0  0  0  0  0  0
    1.1330   -2.1702    2.1423 H   0  0  0  0  0  0  0  0  0  0  0  0
    0.0118    2.8792   -0.0029 C   0  0  0  0  0  0  0  0  0  0  0  0
    0.9372    3.1838    0.1797 H   0  0  0  0  0  0  0  0  0  0  0  0
   -0.6109    3.1952    0.7006 H   0  0  0  0  0  0  0  0  0  0  0  0
   -0.3018    3.3284   -0.9453 H   0  0  0  0  0  0  0  0  0  0  0  0
    0.0006    1.3882   -0.0040 C   0  0  0  0  0  0  0  0  0  0  0  0
   -1.1916    0.6853   -0.0006 C   0  0  0  0  0  0  0  0  0  0  0  0
   -2.0585    1.1778    0.0002 H   0  0  0  0  0  0  0  0  0  0  0  0
   -1.1929   -0.6945   -0.0000 C   0  0  0  0  0  0  0  0  0  0  0  0
   -2.0709   -1.1925    0.0004 H   0  0  0  0  0  0  0  0  0  0  0  0
    0.0003   -1.3794    0.0023 C   0  0  0  0  0  0  0  0  0  0  0  0
    0.0009   -2.3826    0.0052 H   0  0  0  0  0  0  0  0  0  0  0  0
    1.1929   -0.6852    0.0000 C   0  0  0  0  0  0  0  0  0  0  0  0
    2.0765   -1.1906   -0.0015 H   0  0  0  0  0  0  0  0  0  0  0  0
    1.1907    0.6857    0.0023 C   0  0  0  0  0  0  0  0  0  0  0  0
    2.0597    1.1885    0.0080 H   0  0  0  0  0  0  0  0  0  0  0  0
  1  5  1  0
  5  8  1  0
  1  2  1  0
  1  3  1  0
  1  4  1  0
  5  6  1  0
  5  7  1  0
  8  9  1  0
  8 10  1  0
  8 11  1  0
 12 16  1  0
 16 17  2  0
 17 19  1  0
 19 21  2  0
 21 23  1  0
 23 25  2  0
 25 16  1  0
 12 13  1  0
 12 14  1  0
 12 15  1  0
 17 18  1  0
 19 20  1  0
 21 22  1  0
 23 24  1  0
 25 26  1  0
M  CHG  1   8   1
M  END
>  <PDB_ID>  (3157) 
pdb6jbi

>  <RESIDUE_NAME>  (3157) 
LYS   PHE

>  <FRAG_NAME>  (3157) 
ETAM   MBZ

>  <FRAG_ATOM_NUM>  (3157) 
fragi: 11  fragj: 15

>  <atom.prop.CHAIN_ID>  (3157) 
A A A A A A A A A A A Z Z Z Z Z Z Z Z Z Z Z Z Z Z Z

>  <atom.prop.IS_HEAVY_ATOM>  (3157) 
1 0 0 0 1 0 0 1 0 0 0 1 0 0 0 1 1 0 1 0 1 0 1 0 1 0

>  <DIFUSE_FUNC_ATOM>  (3157) 
n/a

>  <FINAL_SINGLE_POINT_ENERGY>  (3157) 
0

>  <NONCOV_INTER_ENERGY_QM>  (3157) 
0

>  <FF_Energy>  (3157) 
3.33

>  <QM_Energy>  (3157) 
-7.91

>  <source>  (3157) 
ETAM_MBZ

>  <Index>  (3157) 
34432

$$$$
ETAM-pdb6jhv-B-LYS-28:MBZ-pdb6jhv-A-PHE-15
     RDKit          3D

 26 25  0  0  0  0  0  0  0  0999 V2000
   -1.8847   -2.6332    2.6745 C   0  0  0  0  0  0  0  0  0  0  0  0
   -1.0988   -3.2303    2.6200 H   0  0  0  0  0  0  0  0  0  0  0  0
   -2.1048   -2.2440    1.7939 H   0  0  0  0  0  0  0  0  0  0  0  0
   -2.7416   -3.1900    3.0539 H   0  0  0  0  0  0  0  0  0  0  0  0
   -1.5356   -1.4741    3.6323 C   0  0  0  0  0  0  0  0  0  0  0  0
   -2.1179   -0.6785    3.3931 H   0  0  0  0  0  0  0  0  0  0  0  0
   -1.7833   -1.7553    4.5744 H   0  0  0  0  0  0  0  0  0  0  0  0
   -0.0967   -1.0459    3.6163 N   0  0  0  0  0  4  0  0  0  0  0  0
    0.1405   -0.6696    4.5095 H   0  0  0  0  0  0  0  0  0  0  0  0
    0.4762   -1.8376    3.4185 H   0  0  0  0  0  0  0  0  0  0  0  0
    0.0282   -0.3513    2.9109 H   0  0  0  0  0  0  0  0  0  0  0  0
    0.0094    2.8989   -0.0086 C   0  0  0  0  0  0  0  0  0  0  0  0
   -0.6199    3.2025   -0.7103 H   0  0  0  0  0  0  0  0  0  0  0  0
    0.9319    3.2010   -0.2052 H   0  0  0  0  0  0  0  0  0  0  0  0
   -0.2968    3.3527    0.9340 H   0  0  0  0  0  0  0  0  0  0  0  0
    0.0039    1.3990    0.0018 C   0  0  0  0  0  0  0  0  0  0  0  0
   -1.1938    0.6939   -0.0063 C   0  0  0  0  0  0  0  0  0  0  0  0
   -2.0590    1.1867   -0.0185 H   0  0  0  0  0  0  0  0  0  0  0  0
   -1.2008   -0.6941   -0.0000 C   0  0  0  0  0  0  0  0  0  0  0  0
   -2.0800   -1.1855    0.0050 H   0  0  0  0  0  0  0  0  0  0  0  0
   -0.0053   -1.3925    0.0011 C   0  0  0  0  0  0  0  0  0  0  0  0
   -0.0088   -2.3906    0.0023 H   0  0  0  0  0  0  0  0  0  0  0  0
    1.2008   -0.6976    0.0000 C   0  0  0  0  0  0  0  0  0  0  0  0
    2.0794   -1.1972   -0.0021 H   0  0  0  0  0  0  0  0  0  0  0  0
    1.1952    0.6914    0.0034 C   0  0  0  0  0  0  0  0  0  0  0  0
    2.0661    1.1874    0.0061 H   0  0  0  0  0  0  0  0  0  0  0  0
  1  5  1  0
  5  8  1  0
  1  2  1  0
  1  3  1  0
  1  4  1  0
  5  6  1  0
  5  7  1  0
  8  9  1  0
  8 10  1  0
  8 11  1  0
 12 16  1  0
 16 17  2  0
 17 19  1  0
 19 21  2  0
 21 23  1  0
 23 25  2  0
 25 16  1  0
 12 13  1  0
 12 14  1  0
 12 15  1  0
 17 18  1  0
 19 20  1  0
 21 22  1  0
 23 24  1  0
 25 26  1  0
M  CHG  1   8   1
M  END
>  <PDB_ID>  (3158) 
pdb6jhv

>  <RESIDUE_NAME>  (3158) 
LYS   PHE

>  <FRAG_NAME>  (3158) 
ETAM   MBZ

>  <FRAG_ATOM_NUM>  (3158) 
fragi: 11  fragj: 15

>  <atom.prop.CHAIN_ID>  (3158) 
A A A A A A A A A A A Z Z Z Z Z Z Z Z Z Z Z Z Z Z Z

>  <atom.prop.IS_HEAVY_ATOM>  (3158) 
1 0 0 0 1 0 0 1 0 0 0 1 0 0 0 1 1 0 1 0 1 0 1 0 1 0

>  <DIFUSE_FUNC_ATOM>  (3158) 
n/a

>  <FINAL_SINGLE_POINT_ENERGY>  (3158) 
0

>  <NONCOV_INTER_ENERGY_QM>  (3158) 
0

>  <FF_Energy>  (3158) 
-5.58

>  <QM_Energy>  (3158) 
-11.72

>  <source>  (3158) 
ETAM_MBZ

>  <Index>  (3158) 
34465

$$$$
ETAM-pdb5ixp-A-LYS-299:MBZ-pdb5ixp-A-PHE-295
     RDKit          3D

 26 25  0  0  0  0  0  0  0  0999 V2000
    1.3568   -0.8845    4.3712 C   0  0  0  0  0  0  0  0  0  0  0  0
    1.6682   -0.1580    3.7725 H   0  0  0  0  0  0  0  0  0  0  0  0
    1.5874   -1.7736    3.9962 H   0  0  0  0  0  0  0  0  0  0  0  0
    1.8344   -0.7730    5.3446 H   0  0  0  0  0  0  0  0  0  0  0  0
   -0.1582   -0.7910    4.4986 C   0  0  0  0  0  0  0  0  0  0  0  0
   -0.4993   -1.6234    4.9327 H   0  0  0  0  0  0  0  0  0  0  0  0
   -0.3879   -0.0004    5.0644 H   0  0  0  0  0  0  0  0  0  0  0  0
   -0.7923   -0.6387    3.1604 N   0  0  0  0  0  4  0  0  0  0  0  0
   -1.7436   -0.9433    3.2073 H   0  0  0  0  0  0  0  0  0  0  0  0
   -0.7617    0.3221    2.8870 H   0  0  0  0  0  0  0  0  0  0  0  0
   -0.2958   -1.1928    2.4931 H   0  0  0  0  0  0  0  0  0  0  0  0
    0.0006    2.9187   -0.0037 C   0  0  0  0  0  0  0  0  0  0  0  0
   -0.8079    3.2199   -0.4850 H   0  0  0  0  0  0  0  0  0  0  0  0
    0.8243    3.2175   -0.4598 H   0  0  0  0  0  0  0  0  0  0  0  0
   -0.0137    3.3660    0.9902 H   0  0  0  0  0  0  0  0  0  0  0  0
   -0.0017    1.4051    0.0027 C   0  0  0  0  0  0  0  0  0  0  0  0
   -1.1975    0.6992    0.0008 C   0  0  0  0  0  0  0  0  0  0  0  0
   -2.0647    1.1873   -0.0014 H   0  0  0  0  0  0  0  0  0  0  0  0
   -1.1991   -0.6927   -0.0000 C   0  0  0  0  0  0  0  0  0  0  0  0
   -2.0766   -1.1872    0.0009 H   0  0  0  0  0  0  0  0  0  0  0  0
    0.0032   -1.3942    0.0007 C   0  0  0  0  0  0  0  0  0  0  0  0
   -0.0084   -2.3927    0.0012 H   0  0  0  0  0  0  0  0  0  0  0  0
    1.1991   -0.7039    0.0000 C   0  0  0  0  0  0  0  0  0  0  0  0
    2.0818   -1.2000    0.0039 H   0  0  0  0  0  0  0  0  0  0  0  0
    1.1960    0.6866   -0.0042 C   0  0  0  0  0  0  0  0  0  0  0  0
    2.0650    1.1826   -0.0130 H   0  0  0  0  0  0  0  0  0  0  0  0
  1  5  1  0
  5  8  1  0
  1  2  1  0
  1  3  1  0
  1  4  1  0
  5  6  1  0
  5  7  1  0
  8  9  1  0
  8 10  1  0
  8 11  1  0
 12 16  1  0
 16 17  2  0
 17 19  1  0
 19 21  2  0
 21 23  1  0
 23 25  2  0
 25 16  1  0
 12 13  1  0
 12 14  1  0
 12 15  1  0
 17 18  1  0
 19 20  1  0
 21 22  1  0
 23 24  1  0
 25 26  1  0
M  CHG  1   8   1
M  END
>  <PDB_ID>  (3159) 
pdb5ixp

>  <RESIDUE_NAME>  (3159) 
LYS   PHE

>  <FRAG_NAME>  (3159) 
ETAM   MBZ

>  <FRAG_ATOM_NUM>  (3159) 
fragi: 11  fragj: 15

>  <atom.prop.CHAIN_ID>  (3159) 
A A A A A A A A A A A Z Z Z Z Z Z Z Z Z Z Z Z Z Z Z

>  <atom.prop.IS_HEAVY_ATOM>  (3159) 
1 0 0 0 1 0 0 1 0 0 0 1 0 0 0 1 1 0 1 0 1 0 1 0 1 0

>  <DIFUSE_FUNC_ATOM>  (3159) 
n/a

>  <FINAL_SINGLE_POINT_ENERGY>  (3159) 
0

>  <NONCOV_INTER_ENERGY_QM>  (3159) 
0

>  <FF_Energy>  (3159) 
-7.83

>  <QM_Energy>  (3159) 
-15.36

>  <source>  (3159) 
ETAM_MBZ

>  <Index>  (3159) 
34485

$$$$
ETAM-pdb5izd-A-LYS-92:MBZ-pdb5izd-A-PHE-150
     RDKit          3D

 26 25  0  0  0  0  0  0  0  0999 V2000
   -4.2946   -0.5058   -4.5190 C   0  0  0  0  0  0  0  0  0  0  0  0
   -5.0439   -0.0103   -4.1278 H   0  0  0  0  0  0  0  0  0  0  0  0
   -4.1513   -1.3772   -4.0947 H   0  0  0  0  0  0  0  0  0  0  0  0
   -4.4881   -0.6571   -5.5809 H   0  0  0  0  0  0  0  0  0  0  0  0
   -3.0322    0.3219   -4.3908 C   0  0  0  0  0  0  0  0  0  0  0  0
   -2.3093   -0.1110   -4.9362 H   0  0  0  0  0  0  0  0  0  0  0  0
   -3.2117    1.2383   -4.7590 H   0  0  0  0  0  0  0  0  0  0  0  0
   -2.6159    0.4181   -2.9981 N   0  0  0  0  0  4  0  0  0  0  0  0
   -2.3608    1.3644   -2.7765 H   0  0  0  0  0  0  0  0  0  0  0  0
   -3.3650    0.1355   -2.3909 H   0  0  0  0  0  0  0  0  0  0  0  0
   -1.8233   -0.1770   -2.8305 H   0  0  0  0  0  0  0  0  0  0  0  0
   -0.0183    2.8947   -0.1464 C   0  0  0  0  0  0  0  0  0  0  0  0
    0.8322    3.2500    0.1891 H   0  0  0  0  0  0  0  0  0  0  0  0
   -0.7938    3.2449    0.3427 H   0  0  0  0  0  0  0  0  0  0  0  0
   -0.1185    3.1928   -1.1900 H   0  0  0  0  0  0  0  0  0  0  0  0
    0.0017    1.4012    0.0117 C   0  0  0  0  0  0  0  0  0  0  0  0
   -1.1984    0.6770   -0.0185 C   0  0  0  0  0  0  0  0  0  0  0  0
   -2.0654    1.1624   -0.0548 H   0  0  0  0  0  0  0  0  0  0  0  0
   -1.2003   -0.7235    0.0000 C   0  0  0  0  0  0  0  0  0  0  0  0
   -2.0711   -1.2153    0.0128 H   0  0  0  0  0  0  0  0  0  0  0  0
    0.0060   -1.3977    0.0023 C   0  0  0  0  0  0  0  0  0  0  0  0
    0.0265   -2.3945    0.0050 H   0  0  0  0  0  0  0  0  0  0  0  0
    1.2003   -0.6745    0.0000 C   0  0  0  0  0  0  0  0  0  0  0  0
    2.0897   -1.1670   -0.0032 H   0  0  0  0  0  0  0  0  0  0  0  0
    1.1906    0.7176    0.0045 C   0  0  0  0  0  0  0  0  0  0  0  0
    2.0592    1.2126    0.0018 H   0  0  0  0  0  0  0  0  0  0  0  0
  1  5  1  0
  5  8  1  0
  1  2  1  0
  1  3  1  0
  1  4  1  0
  5  6  1  0
  5  7  1  0
  8  9  1  0
  8 10  1  0
  8 11  1  0
 12 16  1  0
 16 17  2  0
 17 19  1  0
 19 21  2  0
 21 23  1  0
 23 25  2  0
 25 16  1  0
 12 13  1  0
 12 14  1  0
 12 15  1  0
 17 18  1  0
 19 20  1  0
 21 22  1  0
 23 24  1  0
 25 26  1  0
M  CHG  1   8   1
M  END
>  <PDB_ID>  (3160) 
pdb5izd

>  <RESIDUE_NAME>  (3160) 
LYS   PHE

>  <FRAG_NAME>  (3160) 
ETAM   MBZ

>  <FRAG_ATOM_NUM>  (3160) 
fragi: 11  fragj: 15

>  <atom.prop.CHAIN_ID>  (3160) 
A A A A A A A A A A A Z Z Z Z Z Z Z Z Z Z Z Z Z Z Z

>  <atom.prop.IS_HEAVY_ATOM>  (3160) 
1 0 0 0 1 0 0 1 0 0 0 1 0 0 0 1 1 0 1 0 1 0 1 0 1 0

>  <DIFUSE_FUNC_ATOM>  (3160) 
n/a

>  <FINAL_SINGLE_POINT_ENERGY>  (3160) 
0

>  <NONCOV_INTER_ENERGY_QM>  (3160) 
0

>  <FF_Energy>  (3160) 
-3.57

>  <QM_Energy>  (3160) 
-9.11

>  <source>  (3160) 
ETAM_MBZ

>  <Index>  (3160) 
34502

$$$$
ETAM-pdb6j9s-C-LYS-232:MBZ-pdb6j9s-C-PHE-236
     RDKit          3D

 26 25  0  0  0  0  0  0  0  0999 V2000
   -1.7305   -3.1966   -3.9293 C   0  0  0  0  0  0  0  0  0  0  0  0
   -1.7534   -3.3988   -2.9448 H   0  0  0  0  0  0  0  0  0  0  0  0
   -1.1208   -3.8571   -4.3794 H   0  0  0  0  0  0  0  0  0  0  0  0
   -2.7357   -3.3205   -4.3321 H   0  0  0  0  0  0  0  0  0  0  0  0
   -1.1826   -1.8172   -4.1293 C   0  0  0  0  0  0  0  0  0  0  0  0
   -0.9628   -1.6769   -5.1009 H   0  0  0  0  0  0  0  0  0  0  0  0
   -1.8708   -1.1360   -3.8569 H   0  0  0  0  0  0  0  0  0  0  0  0
    0.0629   -1.5804   -3.3223 N   0  0  0  0  0  4  0  0  0  0  0  0
    0.5665   -0.8167   -3.7194 H   0  0  0  0  0  0  0  0  0  0  0  0
   -0.1950   -1.3666   -2.3829 H   0  0  0  0  0  0  0  0  0  0  0  0
    0.6239   -2.4051   -3.3424 H   0  0  0  0  0  0  0  0  0  0  0  0
   -0.0826    2.9282    0.0651 C   0  0  0  0  0  0  0  0  0  0  0  0
    0.7357    3.2539    0.5272 H   0  0  0  0  0  0  0  0  0  0  0  0
   -0.8947    3.1780    0.5818 H   0  0  0  0  0  0  0  0  0  0  0  0
   -0.1385    3.4498   -0.8904 H   0  0  0  0  0  0  0  0  0  0  0  0
   -0.0142    1.4115    0.0038 C   0  0  0  0  0  0  0  0  0  0  0  0
   -1.2104    0.6593    0.0069 C   0  0  0  0  0  0  0  0  0  0  0  0
   -2.0848    1.1413    0.0128 H   0  0  0  0  0  0  0  0  0  0  0  0
   -1.2015   -0.7376    0.0000 C   0  0  0  0  0  0  0  0  0  0  0  0
   -2.0561   -1.2439   -0.0048 H   0  0  0  0  0  0  0  0  0  0  0  0
    0.0281   -1.3908    0.0026 C   0  0  0  0  0  0  0  0  0  0  0  0
    0.0466   -2.3966    0.0057 H   0  0  0  0  0  0  0  0  0  0  0  0
    1.2015   -0.6736    0.0000 C   0  0  0  0  0  0  0  0  0  0  0  0
    2.1025   -1.1544    0.0094 H   0  0  0  0  0  0  0  0  0  0  0  0
    1.1964    0.7313   -0.0133 C   0  0  0  0  0  0  0  0  0  0  0  0
    2.0534    1.2255   -0.0357 H   0  0  0  0  0  0  0  0  0  0  0  0
  1  5  1  0
  5  8  1  0
  1  2  1  0
  1  3  1  0
  1  4  1  0
  5  6  1  0
  5  7  1  0
  8  9  1  0
  8 10  1  0
  8 11  1  0
 12 16  1  0
 16 17  2  0
 17 19  1  0
 19 21  2  0
 21 23  1  0
 23 25  2  0
 25 16  1  0
 12 13  1  0
 12 14  1  0
 12 15  1  0
 17 18  1  0
 19 20  1  0
 21 22  1  0
 23 24  1  0
 25 26  1  0
M  CHG  1   8   1
M  END
>  <PDB_ID>  (3161) 
pdb6j9s

>  <RESIDUE_NAME>  (3161) 
LYS   PHE

>  <FRAG_NAME>  (3161) 
ETAM   MBZ

>  <FRAG_ATOM_NUM>  (3161) 
fragi: 11  fragj: 15

>  <atom.prop.CHAIN_ID>  (3161) 
A A A A A A A A A A A Z Z Z Z Z Z Z Z Z Z Z Z Z Z Z

>  <atom.prop.IS_HEAVY_ATOM>  (3161) 
1 0 0 0 1 0 0 1 0 0 0 1 0 0 0 1 1 0 1 0 1 0 1 0 1 0

>  <DIFUSE_FUNC_ATOM>  (3161) 
n/a

>  <FINAL_SINGLE_POINT_ENERGY>  (3161) 
0

>  <NONCOV_INTER_ENERGY_QM>  (3161) 
0

>  <FF_Energy>  (3161) 
-6.59

>  <QM_Energy>  (3161) 
-14.06

>  <source>  (3161) 
ETAM_MBZ

>  <Index>  (3161) 
34523

$$$$
ETAM-pdb5j1l-B-LYS-256:MBZ-pdb5j1l-B-PHE-280
     RDKit          3D

 26 25  0  0  0  0  0  0  0  0999 V2000
   -0.2777    0.2051    4.5487 C   0  0  0  0  0  0  0  0  0  0  0  0
   -0.9970    0.1214    5.2323 H   0  0  0  0  0  0  0  0  0  0  0  0
   -0.0515    1.1630    4.4015 H   0  0  0  0  0  0  0  0  0  0  0  0
    0.6099   -0.3198    4.9019 H   0  0  0  0  0  0  0  0  0  0  0  0
   -0.7868   -0.3768    3.2378 C   0  0  0  0  0  0  0  0  0  0  0  0
   -0.1852   -0.0894    2.4973 H   0  0  0  0  0  0  0  0  0  0  0  0
   -0.7947   -1.3709    3.3031 H   0  0  0  0  0  0  0  0  0  0  0  0
   -2.1743    0.1063    2.9566 N   0  0  0  0  0  4  0  0  0  0  0  0
   -2.6811    0.1658    3.8151 H   0  0  0  0  0  0  0  0  0  0  0  0
   -2.1275    1.0070    2.5287 H   0  0  0  0  0  0  0  0  0  0  0  0
   -2.6272   -0.5362    2.3413 H   0  0  0  0  0  0  0  0  0  0  0  0
    0.0059    2.8910    0.0094 C   0  0  0  0  0  0  0  0  0  0  0  0
    0.9442    3.1995   -0.0733 H   0  0  0  0  0  0  0  0  0  0  0  0
   -0.3943    3.1965    0.8637 H   0  0  0  0  0  0  0  0  0  0  0  0
   -0.5622    3.3483   -0.8007 H   0  0  0  0  0  0  0  0  0  0  0  0
    0.0004    1.3962   -0.0031 C   0  0  0  0  0  0  0  0  0  0  0  0
   -1.1918    0.6982    0.0030 C   0  0  0  0  0  0  0  0  0  0  0  0
   -2.0590    1.1885    0.0086 H   0  0  0  0  0  0  0  0  0  0  0  0
   -1.1961   -0.6882    0.0000 C   0  0  0  0  0  0  0  0  0  0  0  0
   -2.0772   -1.1820    0.0015 H   0  0  0  0  0  0  0  0  0  0  0  0
   -0.0014   -1.3900   -0.0027 C   0  0  0  0  0  0  0  0  0  0  0  0
   -0.0117   -2.3894   -0.0074 H   0  0  0  0  0  0  0  0  0  0  0  0
    1.1961   -0.7007    0.0000 C   0  0  0  0  0  0  0  0  0  0  0  0
    2.0779   -1.2001    0.0017 H   0  0  0  0  0  0  0  0  0  0  0  0
    1.1929    0.6846    0.0027 C   0  0  0  0  0  0  0  0  0  0  0  0
    2.0636    1.1815    0.0079 H   0  0  0  0  0  0  0  0  0  0  0  0
  1  5  1  0
  5  8  1  0
  1  2  1  0
  1  3  1  0
  1  4  1  0
  5  6  1  0
  5  7  1  0
  8  9  1  0
  8 10  1  0
  8 11  1  0
 12 16  1  0
 16 17  2  0
 17 19  1  0
 19 21  2  0
 21 23  1  0
 23 25  2  0
 25 16  1  0
 12 13  1  0
 12 14  1  0
 12 15  1  0
 17 18  1  0
 19 20  1  0
 21 22  1  0
 23 24  1  0
 25 26  1  0
M  CHG  1   8   1
M  END
>  <PDB_ID>  (3162) 
pdb5j1l

>  <RESIDUE_NAME>  (3162) 
LYS   PHE

>  <FRAG_NAME>  (3162) 
ETAM   MBZ

>  <FRAG_ATOM_NUM>  (3162) 
fragi: 11  fragj: 15

>  <atom.prop.CHAIN_ID>  (3162) 
A A A A A A A A A A A Z Z Z Z Z Z Z Z Z Z Z Z Z Z Z

>  <atom.prop.IS_HEAVY_ATOM>  (3162) 
1 0 0 0 1 0 0 1 0 0 0 1 0 0 0 1 1 0 1 0 1 0 1 0 1 0

>  <DIFUSE_FUNC_ATOM>  (3162) 
n/a

>  <FINAL_SINGLE_POINT_ENERGY>  (3162) 
0

>  <NONCOV_INTER_ENERGY_QM>  (3162) 
0

>  <FF_Energy>  (3162) 
-4.52

>  <QM_Energy>  (3162) 
-12.18

>  <source>  (3162) 
ETAM_MBZ

>  <Index>  (3162) 
34529

$$$$
ETAM-pdb6jpl-A-LYS-886:MBZ-pdb6jpl-A-PHE-817
     RDKit          3D

 26 25  0  0  0  0  0  0  0  0999 V2000
   -2.1812   -1.2354    4.4199 C   0  0  0  0  0  0  0  0  0  0  0  0
   -2.9189   -1.7974    4.7714 H   0  0  0  0  0  0  0  0  0  0  0  0
   -2.4948   -0.6740    3.6653 H   0  0  0  0  0  0  0  0  0  0  0  0
   -1.8201   -0.5864    5.2178 H   0  0  0  0  0  0  0  0  0  0  0  0
   -1.0707   -2.1530    3.9141 C   0  0  0  0  0  0  0  0  0  0  0  0
   -0.7585   -2.7320    4.6711 H   0  0  0  0  0  0  0  0  0  0  0  0
   -1.4395   -2.7394    3.1877 H   0  0  0  0  0  0  0  0  0  0  0  0
    0.0944   -1.3847    3.3749 N   0  0  0  0  0  4  0  0  0  0  0  0
    0.1251   -1.4887    2.3828 H   0  0  0  0  0  0  0  0  0  0  0  0
   -0.0125   -0.4205    3.6098 H   0  0  0  0  0  0  0  0  0  0  0  0
    0.9358   -1.7400    3.7782 H   0  0  0  0  0  0  0  0  0  0  0  0
   -0.0007    2.8625   -0.0082 C   0  0  0  0  0  0  0  0  0  0  0  0
    0.8557    3.1883    0.3634 H   0  0  0  0  0  0  0  0  0  0  0  0
   -0.7703    3.1883    0.5213 H   0  0  0  0  0  0  0  0  0  0  0  0
   -0.0981    3.2725   -1.0135 H   0  0  0  0  0  0  0  0  0  0  0  0
    0.0009    1.3938    0.0094 C   0  0  0  0  0  0  0  0  0  0  0  0
   -1.2032    0.6933   -0.0055 C   0  0  0  0  0  0  0  0  0  0  0  0
   -2.0646    1.1881   -0.0218 H   0  0  0  0  0  0  0  0  0  0  0  0
   -1.2128   -0.6975    0.0000 C   0  0  0  0  0  0  0  0  0  0  0  0
   -2.0811   -1.1943    0.0014 H   0  0  0  0  0  0  0  0  0  0  0  0
    0.0030   -1.3929    0.0055 C   0  0  0  0  0  0  0  0  0  0  0  0
    0.0027   -2.3893    0.0125 H   0  0  0  0  0  0  0  0  0  0  0  0
    1.2128   -0.6886    0.0000 C   0  0  0  0  0  0  0  0  0  0  0  0
    2.0888   -1.1902    0.0043 H   0  0  0  0  0  0  0  0  0  0  0  0
    1.1993    0.6919   -0.0095 C   0  0  0  0  0  0  0  0  0  0  0  0
    2.0649    1.1975   -0.0310 H   0  0  0  0  0  0  0  0  0  0  0  0
  1  5  1  0
  5  8  1  0
  1  2  1  0
  1  3  1  0
  1  4  1  0
  5  6  1  0
  5  7  1  0
  8  9  1  0
  8 10  1  0
  8 11  1  0
 12 16  1  0
 16 17  2  0
 17 19  1  0
 19 21  2  0
 21 23  1  0
 23 25  2  0
 25 16  1  0
 12 13  1  0
 12 14  1  0
 12 15  1  0
 17 18  1  0
 19 20  1  0
 21 22  1  0
 23 24  1  0
 25 26  1  0
M  CHG  1   8   1
M  END
>  <PDB_ID>  (3163) 
pdb6jpl

>  <RESIDUE_NAME>  (3163) 
LYS   PHE

>  <FRAG_NAME>  (3163) 
ETAM   MBZ

>  <FRAG_ATOM_NUM>  (3163) 
fragi: 11  fragj: 15

>  <atom.prop.CHAIN_ID>  (3163) 
A A A A A A A A A A A Z Z Z Z Z Z Z Z Z Z Z Z Z Z Z

>  <atom.prop.IS_HEAVY_ATOM>  (3163) 
1 0 0 0 1 0 0 1 0 0 0 1 0 0 0 1 1 0 1 0 1 0 1 0 1 0

>  <DIFUSE_FUNC_ATOM>  (3163) 
n/a

>  <FINAL_SINGLE_POINT_ENERGY>  (3163) 
0

>  <NONCOV_INTER_ENERGY_QM>  (3163) 
0

>  <FF_Energy>  (3163) 
-6.87

>  <QM_Energy>  (3163) 
-14.59

>  <source>  (3163) 
ETAM_MBZ

>  <Index>  (3163) 
34538

$$$$
ETAM-pdb5j1s-A-LYS-184:MBZ-pdb5j1s-A-PHE-252
     RDKit          3D

 26 25  0  0  0  0  0  0  0  0999 V2000
    0.9147   -1.3768    4.8948 C   0  0  0  0  0  0  0  0  0  0  0  0
    0.0450   -1.7281    5.2535 H   0  0  0  0  0  0  0  0  0  0  0  0
    1.1439   -0.5262    5.3756 H   0  0  0  0  0  0  0  0  0  0  0  0
    1.6944   -2.1107    5.0988 H   0  0  0  0  0  0  0  0  0  0  0  0
    0.7383   -1.0657    3.4195 C   0  0  0  0  0  0  0  0  0  0  0  0
    1.5341   -0.5682    3.0867 H   0  0  0  0  0  0  0  0  0  0  0  0
    0.6266   -1.9140    2.9104 H   0  0  0  0  0  0  0  0  0  0  0  0
   -0.4930   -0.2077    3.1998 N   0  0  0  0  0  4  0  0  0  0  0  0
   -1.2981   -0.7902    3.2448 H   0  0  0  0  0  0  0  0  0  0  0  0
   -0.5277    0.4857    3.9129 H   0  0  0  0  0  0  0  0  0  0  0  0
   -0.4257    0.2200    2.3038 H   0  0  0  0  0  0  0  0  0  0  0  0
   -0.0013    2.9303   -0.0024 C   0  0  0  0  0  0  0  0  0  0  0  0
   -0.8208    3.2289   -0.4641 H   0  0  0  0  0  0  0  0  0  0  0  0
    0.8121    3.2326   -0.4736 H   0  0  0  0  0  0  0  0  0  0  0  0
    0.0040    3.3748    0.9929 H   0  0  0  0  0  0  0  0  0  0  0  0
    0.0020    1.4155    0.0015 C   0  0  0  0  0  0  0  0  0  0  0  0
   -1.2031    0.7035    0.0047 C   0  0  0  0  0  0  0  0  0  0  0  0
   -2.0672    1.1930    0.0093 H   0  0  0  0  0  0  0  0  0  0  0  0
   -1.2139   -0.7005   -0.0000 C   0  0  0  0  0  0  0  0  0  0  0  0
   -2.0901   -1.1875   -0.0071 H   0  0  0  0  0  0  0  0  0  0  0  0
   -0.0058   -1.4125    0.0064 C   0  0  0  0  0  0  0  0  0  0  0  0
   -0.0083   -2.4021    0.0148 H   0  0  0  0  0  0  0  0  0  0  0  0
    1.2139   -0.7034   -0.0000 C   0  0  0  0  0  0  0  0  0  0  0  0
    2.0878   -1.2024    0.0057 H   0  0  0  0  0  0  0  0  0  0  0  0
    1.2068    0.6974   -0.0126 C   0  0  0  0  0  0  0  0  0  0  0  0
    2.0730    1.1925   -0.0330 H   0  0  0  0  0  0  0  0  0  0  0  0
  1  5  1  0
  5  8  1  0
  1  2  1  0
  1  3  1  0
  1  4  1  0
  5  6  1  0
  5  7  1  0
  8  9  1  0
  8 10  1  0
  8 11  1  0
 12 16  1  0
 16 17  2  0
 17 19  1  0
 19 21  2  0
 21 23  1  0
 23 25  2  0
 25 16  1  0
 12 13  1  0
 12 14  1  0
 12 15  1  0
 17 18  1  0
 19 20  1  0
 21 22  1  0
 23 24  1  0
 25 26  1  0
M  CHG  1   8   1
M  END
>  <PDB_ID>  (3164) 
pdb5j1s

>  <RESIDUE_NAME>  (3164) 
LYS   PHE

>  <FRAG_NAME>  (3164) 
ETAM   MBZ

>  <FRAG_ATOM_NUM>  (3164) 
fragi: 11  fragj: 15

>  <atom.prop.CHAIN_ID>  (3164) 
A A A A A A A A A A A Z Z Z Z Z Z Z Z Z Z Z Z Z Z Z

>  <atom.prop.IS_HEAVY_ATOM>  (3164) 
1 0 0 0 1 0 0 1 0 0 0 1 0 0 0 1 1 0 1 0 1 0 1 0 1 0

>  <DIFUSE_FUNC_ATOM>  (3164) 
n/a

>  <FINAL_SINGLE_POINT_ENERGY>  (3164) 
0

>  <NONCOV_INTER_ENERGY_QM>  (3164) 
0

>  <FF_Energy>  (3164) 
-9.31

>  <QM_Energy>  (3164) 
-17.15

>  <source>  (3164) 
ETAM_MBZ

>  <Index>  (3164) 
34565

$$$$
ETAM-pdb6j9s-D-LYS-232:MBZ-pdb6j9s-D-PHE-236
     RDKit          3D

 26 25  0  0  0  0  0  0  0  0999 V2000
   -1.8543   -3.0939   -3.9182 C   0  0  0  0  0  0  0  0  0  0  0  0
   -1.8957   -3.3068   -2.9324 H   0  0  0  0  0  0  0  0  0  0  0  0
   -1.2731   -3.7881   -4.3634 H   0  0  0  0  0  0  0  0  0  0  0  0
   -2.8621   -3.2123   -4.3160 H   0  0  0  0  0  0  0  0  0  0  0  0
   -1.2934   -1.7611   -4.1229 C   0  0  0  0  0  0  0  0  0  0  0  0
   -1.0716   -1.6166   -5.1016 H   0  0  0  0  0  0  0  0  0  0  0  0
   -1.9652   -1.0490   -3.8578 H   0  0  0  0  0  0  0  0  0  0  0  0
   -0.0451   -1.5303   -3.3314 N   0  0  0  0  0  4  0  0  0  0  0  0
    0.0750   -2.2804   -2.6834 H   0  0  0  0  0  0  0  0  0  0  0  0
    0.7351   -1.4927   -3.9538 H   0  0  0  0  0  0  0  0  0  0  0  0
   -0.1260   -0.6667   -2.8373 H   0  0  0  0  0  0  0  0  0  0  0  0
   -0.0317    2.9125    0.1017 C   0  0  0  0  0  0  0  0  0  0  0  0
    0.8028    3.2098    0.5622 H   0  0  0  0  0  0  0  0  0  0  0  0
   -0.8286    3.1921    0.6351 H   0  0  0  0  0  0  0  0  0  0  0  0
   -0.0799    3.4611   -0.8390 H   0  0  0  0  0  0  0  0  0  0  0  0
   -0.0191    1.4161    0.0141 C   0  0  0  0  0  0  0  0  0  0  0  0
   -1.1877    0.7141   -0.0521 C   0  0  0  0  0  0  0  0  0  0  0  0
   -2.0658    1.1893   -0.1405 H   0  0  0  0  0  0  0  0  0  0  0  0
   -1.2049   -0.6936    0.0000 C   0  0  0  0  0  0  0  0  0  0  0  0
   -2.0860   -1.1705    0.0346 H   0  0  0  0  0  0  0  0  0  0  0  0
   -0.0071   -1.4042    0.0051 C   0  0  0  0  0  0  0  0  0  0  0  0
   -0.0177   -2.3993    0.0122 H   0  0  0  0  0  0  0  0  0  0  0  0
    1.2049   -0.7112    0.0000 C   0  0  0  0  0  0  0  0  0  0  0  0
    2.0803   -1.2185   -0.0262 H   0  0  0  0  0  0  0  0  0  0  0  0
    1.2139    0.6787    0.0328 C   0  0  0  0  0  0  0  0  0  0  0  0
    2.0656    1.1821    0.0687 H   0  0  0  0  0  0  0  0  0  0  0  0
  1  5  1  0
  5  8  1  0
  1  2  1  0
  1  3  1  0
  1  4  1  0
  5  6  1  0
  5  7  1  0
  8  9  1  0
  8 10  1  0
  8 11  1  0
 12 16  1  0
 16 17  2  0
 17 19  1  0
 19 21  2  0
 21 23  1  0
 23 25  2  0
 25 16  1  0
 12 13  1  0
 12 14  1  0
 12 15  1  0
 17 18  1  0
 19 20  1  0
 21 22  1  0
 23 24  1  0
 25 26  1  0
M  CHG  1   8   1
M  END
>  <PDB_ID>  (3165) 
pdb6j9s

>  <RESIDUE_NAME>  (3165) 
LYS   PHE

>  <FRAG_NAME>  (3165) 
ETAM   MBZ

>  <FRAG_ATOM_NUM>  (3165) 
fragi: 11  fragj: 15

>  <atom.prop.CHAIN_ID>  (3165) 
A A A A A A A A A A A Z Z Z Z Z Z Z Z Z Z Z Z Z Z Z

>  <atom.prop.IS_HEAVY_ATOM>  (3165) 
1 0 0 0 1 0 0 1 0 0 0 1 0 0 0 1 1 0 1 0 1 0 1 0 1 0

>  <DIFUSE_FUNC_ATOM>  (3165) 
n/a

>  <FINAL_SINGLE_POINT_ENERGY>  (3165) 
0

>  <NONCOV_INTER_ENERGY_QM>  (3165) 
0

>  <FF_Energy>  (3165) 
-6.35

>  <QM_Energy>  (3165) 
-12.95

>  <source>  (3165) 
ETAM_MBZ

>  <Index>  (3165) 
34571

$$$$
ETAM-pdb6jvv-A-LYS-176:MBZ-pdb6jvv-A-PHE-105
     RDKit          3D

 26 25  0  0  0  0  0  0  0  0999 V2000
    1.8483   -3.3039    2.4000 C   0  0  0  0  0  0  0  0  0  0  0  0
    1.6862   -2.3168    2.4682 H   0  0  0  0  0  0  0  0  0  0  0  0
    1.9314   -3.5563    1.4332 H   0  0  0  0  0  0  0  0  0  0  0  0
    2.7810   -3.5447    2.9099 H   0  0  0  0  0  0  0  0  0  0  0  0
    0.6527   -4.0270    2.9839 C   0  0  0  0  0  0  0  0  0  0  0  0
    0.9713   -4.8497    3.4631 H   0  0  0  0  0  0  0  0  0  0  0  0
    0.1972   -3.4235    3.6439 H   0  0  0  0  0  0  0  0  0  0  0  0
   -0.3121   -4.4170    1.9315 N   0  0  0  0  0  4  0  0  0  0  0  0
    0.1530   -4.4521    1.0464 H   0  0  0  0  0  0  0  0  0  0  0  0
   -0.6927   -5.3184    2.1429 H   0  0  0  0  0  0  0  0  0  0  0  0
   -1.0532   -3.7460    1.8905 H   0  0  0  0  0  0  0  0  0  0  0  0
    0.0137    2.8855   -0.0753 C   0  0  0  0  0  0  0  0  0  0  0  0
    0.8820    3.1967    0.3024 H   0  0  0  0  0  0  0  0  0  0  0  0
   -0.7409    3.2265    0.4790 H   0  0  0  0  0  0  0  0  0  0  0  0
   -0.0863    3.3242   -1.0682 H   0  0  0  0  0  0  0  0  0  0  0  0
   -0.0084    1.3984   -0.0298 C   0  0  0  0  0  0  0  0  0  0  0  0
   -1.1944    0.6719    0.0287 C   0  0  0  0  0  0  0  0  0  0  0  0
   -2.0656    1.1540    0.0910 H   0  0  0  0  0  0  0  0  0  0  0  0
   -1.1887   -0.7178    0.0000 C   0  0  0  0  0  0  0  0  0  0  0  0
   -2.0603   -1.2162   -0.0392 H   0  0  0  0  0  0  0  0  0  0  0  0
    0.0127   -1.3897    0.0273 C   0  0  0  0  0  0  0  0  0  0  0  0
    0.0282   -2.3881    0.0657 H   0  0  0  0  0  0  0  0  0  0  0  0
    1.1887   -0.6718   -0.0000 C   0  0  0  0  0  0  0  0  0  0  0  0
    2.0872   -1.1681    0.0006 H   0  0  0  0  0  0  0  0  0  0  0  0
    1.1901    0.7090   -0.0262 C   0  0  0  0  0  0  0  0  0  0  0  0
    2.0520    1.2077   -0.0433 H   0  0  0  0  0  0  0  0  0  0  0  0
  1  5  1  0
  5  8  1  0
  1  2  1  0
  1  3  1  0
  1  4  1  0
  5  6  1  0
  5  7  1  0
  8  9  1  0
  8 10  1  0
  8 11  1  0
 12 16  1  0
 16 17  2  0
 17 19  1  0
 19 21  2  0
 21 23  1  0
 23 25  2  0
 25 16  1  0
 12 13  1  0
 12 14  1  0
 12 15  1  0
 17 18  1  0
 19 20  1  0
 21 22  1  0
 23 24  1  0
 25 26  1  0
M  CHG  1   8   1
M  END
>  <PDB_ID>  (3166) 
pdb6jvv

>  <RESIDUE_NAME>  (3166) 
LYS   PHE

>  <FRAG_NAME>  (3166) 
ETAM   MBZ

>  <FRAG_ATOM_NUM>  (3166) 
fragi: 11  fragj: 15

>  <atom.prop.CHAIN_ID>  (3166) 
A A A A A A A A A A A Z Z Z Z Z Z Z Z Z Z Z Z Z Z Z

>  <atom.prop.IS_HEAVY_ATOM>  (3166) 
1 0 0 0 1 0 0 1 0 0 0 1 0 0 0 1 1 0 1 0 1 0 1 0 1 0

>  <DIFUSE_FUNC_ATOM>  (3166) 
n/a

>  <FINAL_SINGLE_POINT_ENERGY>  (3166) 
0

>  <NONCOV_INTER_ENERGY_QM>  (3166) 
0

>  <FF_Energy>  (3166) 
-0.2

>  <QM_Energy>  (3166) 
-5.28

>  <source>  (3166) 
ETAM_MBZ

>  <Index>  (3166) 
34587

$$$$
ETAM-pdb5j63-C-LYS-239:MBZ-pdb5j63-C-PHE-232
     RDKit          3D

 26 25  0  0  0  0  0  0  0  0999 V2000
   -2.3922    2.2677   -3.7333 C   0  0  0  0  0  0  0  0  0  0  0  0
   -2.7963    1.7602   -4.4915 H   0  0  0  0  0  0  0  0  0  0  0  0
   -2.1597    3.1917   -4.0297 H   0  0  0  0  0  0  0  0  0  0  0  0
   -3.1216    2.3309   -2.9258 H   0  0  0  0  0  0  0  0  0  0  0  0
   -1.1354    1.5669   -3.2935 C   0  0  0  0  0  0  0  0  0  0  0  0
   -0.3883    1.8052   -3.9166 H   0  0  0  0  0  0  0  0  0  0  0  0
   -0.8979    1.8642   -2.3670 H   0  0  0  0  0  0  0  0  0  0  0  0
   -1.3245    0.0981   -3.2993 N   0  0  0  0  0  4  0  0  0  0  0  0
   -0.7411   -0.3181   -2.5999 H   0  0  0  0  0  0  0  0  0  0  0  0
   -2.2819   -0.1174   -3.1044 H   0  0  0  0  0  0  0  0  0  0  0  0
   -1.0786   -0.2682   -4.1979 H   0  0  0  0  0  0  0  0  0  0  0  0
   -0.0088    2.9048   -0.0150 C   0  0  0  0  0  0  0  0  0  0  0  0
   -0.8857    3.2003   -0.3690 H   0  0  0  0  0  0  0  0  0  0  0  0
    0.7313    3.2071   -0.6006 H   0  0  0  0  0  0  0  0  0  0  0  0
    0.1297    3.3652    0.9632 H   0  0  0  0  0  0  0  0  0  0  0  0
   -0.0004    1.4005    0.0016 C   0  0  0  0  0  0  0  0  0  0  0  0
   -1.1973    0.6843   -0.0018 C   0  0  0  0  0  0  0  0  0  0  0  0
   -2.0647    1.1752   -0.0071 H   0  0  0  0  0  0  0  0  0  0  0  0
   -1.1982   -0.7025    0.0000 C   0  0  0  0  0  0  0  0  0  0  0  0
   -2.0731   -1.1991   -0.0059 H   0  0  0  0  0  0  0  0  0  0  0  0
    0.0024   -1.3896    0.0114 C   0  0  0  0  0  0  0  0  0  0  0  0
    0.0047   -2.3897    0.0275 H   0  0  0  0  0  0  0  0  0  0  0  0
    1.1982   -0.6887    0.0000 C   0  0  0  0  0  0  0  0  0  0  0  0
    2.0830   -1.1880    0.0008 H   0  0  0  0  0  0  0  0  0  0  0  0
    1.1952    0.6961   -0.0112 C   0  0  0  0  0  0  0  0  0  0  0  0
    2.0624    1.1942   -0.0298 H   0  0  0  0  0  0  0  0  0  0  0  0
  1  5  1  0
  5  8  1  0
  1  2  1  0
  1  3  1  0
  1  4  1  0
  5  6  1  0
  5  7  1  0
  8  9  1  0
  8 10  1  0
  8 11  1  0
 12 16  1  0
 16 17  2  0
 17 19  1  0
 19 21  2  0
 21 23  1  0
 23 25  2  0
 25 16  1  0
 12 13  1  0
 12 14  1  0
 12 15  1  0
 17 18  1  0
 19 20  1  0
 21 22  1  0
 23 24  1  0
 25 26  1  0
M  CHG  1   8   1
M  END
>  <PDB_ID>  (3167) 
pdb5j63

>  <RESIDUE_NAME>  (3167) 
LYS   PHE

>  <FRAG_NAME>  (3167) 
ETAM   MBZ

>  <FRAG_ATOM_NUM>  (3167) 
fragi: 11  fragj: 15

>  <atom.prop.CHAIN_ID>  (3167) 
A A A A A A A A A A A Z Z Z Z Z Z Z Z Z Z Z Z Z Z Z

>  <atom.prop.IS_HEAVY_ATOM>  (3167) 
1 0 0 0 1 0 0 1 0 0 0 1 0 0 0 1 1 0 1 0 1 0 1 0 1 0

>  <DIFUSE_FUNC_ATOM>  (3167) 
n/a

>  <FINAL_SINGLE_POINT_ENERGY>  (3167) 
0

>  <NONCOV_INTER_ENERGY_QM>  (3167) 
0

>  <FF_Energy>  (3167) 
-6.52

>  <QM_Energy>  (3167) 
-13.72

>  <source>  (3167) 
ETAM_MBZ

>  <Index>  (3167) 
34591

$$$$
ETAM-pdb5iu0-I-LYS-119:MBZ-pdb5iu0-I-PHE-12
     RDKit          3D

 26 25  0  0  0  0  0  0  0  0999 V2000
   -1.2989   -1.7982   -3.8897 C   0  0  0  0  0  0  0  0  0  0  0  0
   -1.9437   -2.1932   -4.5396 H   0  0  0  0  0  0  0  0  0  0  0  0
   -1.3045   -2.3232   -3.0422 H   0  0  0  0  0  0  0  0  0  0  0  0
   -0.2983   -1.8312   -4.3207 H   0  0  0  0  0  0  0  0  0  0  0  0
   -1.7265   -0.3801   -3.5834 C   0  0  0  0  0  0  0  0  0  0  0  0
   -1.1196    0.0050   -2.8864 H   0  0  0  0  0  0  0  0  0  0  0  0
   -1.6635    0.1714   -4.4172 H   0  0  0  0  0  0  0  0  0  0  0  0
   -3.1331   -0.3361   -3.0781 N   0  0  0  0  0  4  0  0  0  0  0  0
   -3.7494   -0.1437   -3.8397 H   0  0  0  0  0  0  0  0  0  0  0  0
   -3.3634   -1.2184   -2.6716 H   0  0  0  0  0  0  0  0  0  0  0  0
   -3.2124    0.3831   -2.3894 H   0  0  0  0  0  0  0  0  0  0  0  0
   -0.0063    2.8805    0.0083 C   0  0  0  0  0  0  0  0  0  0  0  0
   -0.7816    3.1919   -0.5175 H   0  0  0  0  0  0  0  0  0  0  0  0
    0.8454    3.1997   -0.3769 H   0  0  0  0  0  0  0  0  0  0  0  0
   -0.0947    3.3064    1.0077 H   0  0  0  0  0  0  0  0  0  0  0  0
    0.0018    1.3876   -0.0019 C   0  0  0  0  0  0  0  0  0  0  0  0
   -1.1889    0.6798   -0.0024 C   0  0  0  0  0  0  0  0  0  0  0  0
   -2.0568    1.1760   -0.0060 H   0  0  0  0  0  0  0  0  0  0  0  0
   -1.1938   -0.6956   -0.0000 C   0  0  0  0  0  0  0  0  0  0  0  0
   -2.0733   -1.1916    0.0026 H   0  0  0  0  0  0  0  0  0  0  0  0
   -0.0043   -1.3784    0.0005 C   0  0  0  0  0  0  0  0  0  0  0  0
   -0.0001   -2.3819    0.0005 H   0  0  0  0  0  0  0  0  0  0  0  0
    1.1938   -0.6845    0.0000 C   0  0  0  0  0  0  0  0  0  0  0  0
    2.0750   -1.1898   -0.0022 H   0  0  0  0  0  0  0  0  0  0  0  0
    1.1914    0.6911    0.0039 C   0  0  0  0  0  0  0  0  0  0  0  0
    2.0598    1.1908    0.0103 H   0  0  0  0  0  0  0  0  0  0  0  0
  1  5  1  0
  5  8  1  0
  1  2  1  0
  1  3  1  0
  1  4  1  0
  5  6  1  0
  5  7  1  0
  8  9  1  0
  8 10  1  0
  8 11  1  0
 12 16  1  0
 16 17  2  0
 17 19  1  0
 19 21  2  0
 21 23  1  0
 23 25  2  0
 25 16  1  0
 12 13  1  0
 12 14  1  0
 12 15  1  0
 17 18  1  0
 19 20  1  0
 21 22  1  0
 23 24  1  0
 25 26  1  0
M  CHG  1   8   1
M  END
>  <PDB_ID>  (3168) 
pdb5iu0

>  <RESIDUE_NAME>  (3168) 
LYS   PHE

>  <FRAG_NAME>  (3168) 
ETAM   MBZ

>  <FRAG_ATOM_NUM>  (3168) 
fragi: 11  fragj: 15

>  <atom.prop.CHAIN_ID>  (3168) 
A A A A A A A A A A A Z Z Z Z Z Z Z Z Z Z Z Z Z Z Z

>  <atom.prop.IS_HEAVY_ATOM>  (3168) 
1 0 0 0 1 0 0 1 0 0 0 1 0 0 0 1 1 0 1 0 1 0 1 0 1 0

>  <DIFUSE_FUNC_ATOM>  (3168) 
n/a

>  <FINAL_SINGLE_POINT_ENERGY>  (3168) 
0

>  <NONCOV_INTER_ENERGY_QM>  (3168) 
0

>  <FF_Energy>  (3168) 
-3.76

>  <QM_Energy>  (3168) 
-8.89

>  <source>  (3168) 
ETAM_MBZ

>  <Index>  (3168) 
34596

$$$$
ETAM-pdb5j6q-A-LYS-467:MBZ-pdb5j6q-A-PHE-421
     RDKit          3D

 26 25  0  0  0  0  0  0  0  0999 V2000
   -2.1983   -1.3568    3.2574 C   0  0  0  0  0  0  0  0  0  0  0  0
   -2.0072   -1.2931    2.1957 H   0  0  0  0  0  0  0  0  0  0  0  0
   -2.2141   -0.3591    3.6707 H   0  0  0  0  0  0  0  0  0  0  0  0
   -3.1709   -1.8229    3.4152 H   0  0  0  0  0  0  0  0  0  0  0  0
   -1.0844   -2.1438    3.9113 C   0  0  0  0  0  0  0  0  0  0  0  0
   -0.6860   -1.5701    4.7351 H   0  0  0  0  0  0  0  0  0  0  0  0
   -1.4838   -3.0735    4.2894 H   0  0  0  0  0  0  0  0  0  0  0  0
    0.0175   -2.4385    2.9514 N   0  0  0  0  0  4  0  0  0  0  0  0
   -0.3487   -3.0799    2.2085 H   0  0  0  0  0  0  0  0  0  0  0  0
    0.3486   -1.5586    2.5107 H   0  0  0  0  0  0  0  0  0  0  0  0
    0.8024   -2.9039    3.4465 H   0  0  0  0  0  0  0  0  0  0  0  0
    0.0018    2.9045   -0.0081 C   0  0  0  0  0  0  0  0  0  0  0  0
   -0.8908    3.2507   -0.5079 H   0  0  0  0  0  0  0  0  0  0  0  0
    0.8642    3.2497   -0.5595 H   0  0  0  0  0  0  0  0  0  0  0  0
    0.0307    3.3324    0.9940 H   0  0  0  0  0  0  0  0  0  0  0  0
    0.0005    1.3970   -0.0007 C   0  0  0  0  0  0  0  0  0  0  0  0
   -1.1883    0.6894   -0.0006 C   0  0  0  0  0  0  0  0  0  0  0  0
   -2.0578    1.1830   -0.0044 H   0  0  0  0  0  0  0  0  0  0  0  0
   -1.1866   -0.6967   -0.0000 C   0  0  0  0  0  0  0  0  0  0  0  0
   -2.0525   -1.1971    0.0001 H   0  0  0  0  0  0  0  0  0  0  0  0
    0.0005   -1.3807   -0.0001 C   0  0  0  0  0  0  0  0  0  0  0  0
    0.0010   -2.3810   -0.0004 H   0  0  0  0  0  0  0  0  0  0  0  0
    1.1866   -0.6973   -0.0000 C   0  0  0  0  0  0  0  0  0  0  0  0
    2.0532   -1.1980   -0.0024 H   0  0  0  0  0  0  0  0  0  0  0  0
    1.1872    0.6883    0.0013 C   0  0  0  0  0  0  0  0  0  0  0  0
    2.0573    1.1809   -0.0028 H   0  0  0  0  0  0  0  0  0  0  0  0
  1  5  1  0
  5  8  1  0
  1  2  1  0
  1  3  1  0
  1  4  1  0
  5  6  1  0
  5  7  1  0
  8  9  1  0
  8 10  1  0
  8 11  1  0
 12 16  1  0
 16 17  2  0
 17 19  1  0
 19 21  2  0
 21 23  1  0
 23 25  2  0
 25 16  1  0
 12 13  1  0
 12 14  1  0
 12 15  1  0
 17 18  1  0
 19 20  1  0
 21 22  1  0
 23 24  1  0
 25 26  1  0
M  CHG  1   8   1
M  END
>  <PDB_ID>  (3169) 
pdb5j6q

>  <RESIDUE_NAME>  (3169) 
LYS   PHE

>  <FRAG_NAME>  (3169) 
ETAM   MBZ

>  <FRAG_ATOM_NUM>  (3169) 
fragi: 11  fragj: 15

>  <atom.prop.CHAIN_ID>  (3169) 
A A A A A A A A A A A Z Z Z Z Z Z Z Z Z Z Z Z Z Z Z

>  <atom.prop.IS_HEAVY_ATOM>  (3169) 
1 0 0 0 1 0 0 1 0 0 0 1 0 0 0 1 1 0 1 0 1 0 1 0 1 0

>  <DIFUSE_FUNC_ATOM>  (3169) 
n/a

>  <FINAL_SINGLE_POINT_ENERGY>  (3169) 
0

>  <NONCOV_INTER_ENERGY_QM>  (3169) 
0

>  <FF_Energy>  (3169) 
-2.95

>  <QM_Energy>  (3169) 
-10.17

>  <source>  (3169) 
ETAM_MBZ

>  <Index>  (3169) 
34603

$$$$
ETAM-pdb6k00-A-LYS-175:MBZ-pdb6k00-A-PHE-243
     RDKit          3D

 26 25  0  0  0  0  0  0  0  0999 V2000
    1.4106   -0.7049    4.3809 C   0  0  0  0  0  0  0  0  0  0  0  0
    1.7768   -0.9624    5.2674 H   0  0  0  0  0  0  0  0  0  0  0  0
    1.7567    0.1834    4.1031 H   0  0  0  0  0  0  0  0  0  0  0  0
    1.7163   -1.4485    3.6450 H   0  0  0  0  0  0  0  0  0  0  0  0
   -0.0995   -0.6309    4.4790 C   0  0  0  0  0  0  0  0  0  0  0  0
   -0.4527   -1.5201    4.7648 H   0  0  0  0  0  0  0  0  0  0  0  0
   -0.3504    0.0620    5.1532 H   0  0  0  0  0  0  0  0  0  0  0  0
   -0.6925   -0.2691    3.1624 N   0  0  0  0  0  4  0  0  0  0  0  0
   -0.9284   -1.1030    2.6649 H   0  0  0  0  0  0  0  0  0  0  0  0
   -1.5165    0.2777    3.3087 H   0  0  0  0  0  0  0  0  0  0  0  0
   -0.0288    0.2603    2.6339 H   0  0  0  0  0  0  0  0  0  0  0  0
    0.0050    2.9051   -0.0164 C   0  0  0  0  0  0  0  0  0  0  0  0
   -0.5501    3.2017   -0.7819 H   0  0  0  0  0  0  0  0  0  0  0  0
    0.9432    3.2048   -0.1216 H   0  0  0  0  0  0  0  0  0  0  0  0
   -0.3939    3.3709    0.8848 H   0  0  0  0  0  0  0  0  0  0  0  0
   -0.0008    1.3984    0.0043 C   0  0  0  0  0  0  0  0  0  0  0  0
   -1.1936    0.6907   -0.0020 C   0  0  0  0  0  0  0  0  0  0  0  0
   -2.0616    1.1786   -0.0090 H   0  0  0  0  0  0  0  0  0  0  0  0
   -1.1953   -0.6981   -0.0000 C   0  0  0  0  0  0  0  0  0  0  0  0
   -2.0731   -1.1918    0.0035 H   0  0  0  0  0  0  0  0  0  0  0  0
    0.0015   -1.3876   -0.0015 C   0  0  0  0  0  0  0  0  0  0  0  0
   -0.0006   -2.3901   -0.0045 H   0  0  0  0  0  0  0  0  0  0  0  0
    1.1953   -0.6943   -0.0000 C   0  0  0  0  0  0  0  0  0  0  0  0
    2.0795   -1.1932    0.0035 H   0  0  0  0  0  0  0  0  0  0  0  0
    1.1928    0.6909   -0.0009 C   0  0  0  0  0  0  0  0  0  0  0  0
    2.0614    1.1882   -0.0065 H   0  0  0  0  0  0  0  0  0  0  0  0
  1  5  1  0
  5  8  1  0
  1  2  1  0
  1  3  1  0
  1  4  1  0
  5  6  1  0
  5  7  1  0
  8  9  1  0
  8 10  1  0
  8 11  1  0
 12 16  1  0
 16 17  2  0
 17 19  1  0
 19 21  2  0
 21 23  1  0
 23 25  2  0
 25 16  1  0
 12 13  1  0
 12 14  1  0
 12 15  1  0
 17 18  1  0
 19 20  1  0
 21 22  1  0
 23 24  1  0
 25 26  1  0
M  CHG  1   8   1
M  END
>  <PDB_ID>  (3170) 
pdb6k00

>  <RESIDUE_NAME>  (3170) 
LYS   PHE

>  <FRAG_NAME>  (3170) 
ETAM   MBZ

>  <FRAG_ATOM_NUM>  (3170) 
fragi: 11  fragj: 15

>  <atom.prop.CHAIN_ID>  (3170) 
A A A A A A A A A A A Z Z Z Z Z Z Z Z Z Z Z Z Z Z Z

>  <atom.prop.IS_HEAVY_ATOM>  (3170) 
1 0 0 0 1 0 0 1 0 0 0 1 0 0 0 1 1 0 1 0 1 0 1 0 1 0

>  <DIFUSE_FUNC_ATOM>  (3170) 
n/a

>  <FINAL_SINGLE_POINT_ENERGY>  (3170) 
0

>  <NONCOV_INTER_ENERGY_QM>  (3170) 
0

>  <FF_Energy>  (3170) 
-8.52

>  <QM_Energy>  (3170) 
-15.76

>  <source>  (3170) 
ETAM_MBZ

>  <Index>  (3170) 
34615

$$$$
ETAM-pdb6k00-B-LYS-175:MBZ-pdb6k00-B-PHE-243
     RDKit          3D

 26 25  0  0  0  0  0  0  0  0999 V2000
    1.2111   -0.6354    4.4236 C   0  0  0  0  0  0  0  0  0  0  0  0
    1.4910   -0.8564    5.3500 H   0  0  0  0  0  0  0  0  0  0  0  0
    1.5545    0.2562    4.1562 H   0  0  0  0  0  0  0  0  0  0  0  0
    1.6118   -1.3880    3.7445 H   0  0  0  0  0  0  0  0  0  0  0  0
   -0.3076   -0.6078    4.3680 C   0  0  0  0  0  0  0  0  0  0  0  0
   -0.6555   -1.5326    4.5236 H   0  0  0  0  0  0  0  0  0  0  0  0
   -0.6493   -0.0005    5.0867 H   0  0  0  0  0  0  0  0  0  0  0  0
   -0.7875   -0.1198    3.0460 N   0  0  0  0  0  4  0  0  0  0  0  0
   -0.2210    0.6488    2.7506 H   0  0  0  0  0  0  0  0  0  0  0  0
   -0.7236   -0.8589    2.3769 H   0  0  0  0  0  0  0  0  0  0  0  0
   -1.7380    0.1772    3.1271 H   0  0  0  0  0  0  0  0  0  0  0  0
    0.0097    2.9135   -0.0210 C   0  0  0  0  0  0  0  0  0  0  0  0
   -0.4762    3.2036   -0.8355 H   0  0  0  0  0  0  0  0  0  0  0  0
    0.9559    3.2097   -0.0494 H   0  0  0  0  0  0  0  0  0  0  0  0
   -0.4635    3.3904    0.8373 H   0  0  0  0  0  0  0  0  0  0  0  0
   -0.0003    1.4045    0.0094 C   0  0  0  0  0  0  0  0  0  0  0  0
   -1.1935    0.6979   -0.0039 C   0  0  0  0  0  0  0  0  0  0  0  0
   -2.0618    1.1858   -0.0175 H   0  0  0  0  0  0  0  0  0  0  0  0
   -1.1968   -0.6946    0.0000 C   0  0  0  0  0  0  0  0  0  0  0  0
   -2.0754   -1.1880    0.0033 H   0  0  0  0  0  0  0  0  0  0  0  0
    0.0026   -1.3957    0.0009 C   0  0  0  0  0  0  0  0  0  0  0  0
   -0.0084   -2.3945    0.0012 H   0  0  0  0  0  0  0  0  0  0  0  0
    1.1968   -0.7048    0.0000 C   0  0  0  0  0  0  0  0  0  0  0  0
    2.0813   -1.1965    0.0050 H   0  0  0  0  0  0  0  0  0  0  0  0
    1.1913    0.6927   -0.0065 C   0  0  0  0  0  0  0  0  0  0  0  0
    2.0633    1.1848   -0.0239 H   0  0  0  0  0  0  0  0  0  0  0  0
  1  5  1  0
  5  8  1  0
  1  2  1  0
  1  3  1  0
  1  4  1  0
  5  6  1  0
  5  7  1  0
  8  9  1  0
  8 10  1  0
  8 11  1  0
 12 16  1  0
 16 17  2  0
 17 19  1  0
 19 21  2  0
 21 23  1  0
 23 25  2  0
 25 16  1  0
 12 13  1  0
 12 14  1  0
 12 15  1  0
 17 18  1  0
 19 20  1  0
 21 22  1  0
 23 24  1  0
 25 26  1  0
M  CHG  1   8   1
M  END
>  <PDB_ID>  (3171) 
pdb6k00

>  <RESIDUE_NAME>  (3171) 
LYS   PHE

>  <FRAG_NAME>  (3171) 
ETAM   MBZ

>  <FRAG_ATOM_NUM>  (3171) 
fragi: 11  fragj: 15

>  <atom.prop.CHAIN_ID>  (3171) 
A A A A A A A A A A A Z Z Z Z Z Z Z Z Z Z Z Z Z Z Z

>  <atom.prop.IS_HEAVY_ATOM>  (3171) 
1 0 0 0 1 0 0 1 0 0 0 1 0 0 0 1 1 0 1 0 1 0 1 0 1 0

>  <DIFUSE_FUNC_ATOM>  (3171) 
n/a

>  <FINAL_SINGLE_POINT_ENERGY>  (3171) 
0

>  <NONCOV_INTER_ENERGY_QM>  (3171) 
0

>  <FF_Energy>  (3171) 
-8.49

>  <QM_Energy>  (3171) 
-16.39

>  <source>  (3171) 
ETAM_MBZ

>  <Index>  (3171) 
34616

$$$$
ETAM-pdb6k0c-B-LYS-175:MBZ-pdb6k0c-B-PHE-243
     RDKit          3D

 26 25  0  0  0  0  0  0  0  0999 V2000
    1.3837   -0.6053    4.4906 C   0  0  0  0  0  0  0  0  0  0  0  0
    1.6601   -0.8653    5.4077 H   0  0  0  0  0  0  0  0  0  0  0  0
    1.7685    0.2760    4.2452 H   0  0  0  0  0  0  0  0  0  0  0  0
    1.7448   -1.3563    3.7879 H   0  0  0  0  0  0  0  0  0  0  0  0
   -0.1347   -0.5009    4.4514 C   0  0  0  0  0  0  0  0  0  0  0  0
   -0.5272   -1.3497    4.8011 H   0  0  0  0  0  0  0  0  0  0  0  0
   -0.4226    0.2642    5.0257 H   0  0  0  0  0  0  0  0  0  0  0  0
   -0.6128   -0.2755    3.0574 N   0  0  0  0  0  4  0  0  0  0  0  0
   -1.0016   -1.1238    2.7008 H   0  0  0  0  0  0  0  0  0  0  0  0
   -1.3107    0.4394    3.0591 H   0  0  0  0  0  0  0  0  0  0  0  0
    0.1564    0.0077    2.4860 H   0  0  0  0  0  0  0  0  0  0  0  0
    0.0111    2.9086   -0.0233 C   0  0  0  0  0  0  0  0  0  0  0  0
   -0.4662    3.2024   -0.8403 H   0  0  0  0  0  0  0  0  0  0  0  0
    0.9566    3.2059   -0.0392 H   0  0  0  0  0  0  0  0  0  0  0  0
   -0.4712    3.3815    0.8321 H   0  0  0  0  0  0  0  0  0  0  0  0
   -0.0022    1.4028    0.0050 C   0  0  0  0  0  0  0  0  0  0  0  0
   -1.1952    0.7010    0.0040 C   0  0  0  0  0  0  0  0  0  0  0  0
   -2.0623    1.1932    0.0048 H   0  0  0  0  0  0  0  0  0  0  0  0
   -1.2038   -0.6867    0.0000 C   0  0  0  0  0  0  0  0  0  0  0  0
   -2.0790   -1.1824    0.0007 H   0  0  0  0  0  0  0  0  0  0  0  0
    0.0036   -1.3970   -0.0037 C   0  0  0  0  0  0  0  0  0  0  0  0
   -0.0135   -2.3927   -0.0095 H   0  0  0  0  0  0  0  0  0  0  0  0
    1.2038   -0.7073   -0.0000 C   0  0  0  0  0  0  0  0  0  0  0  0
    2.0844   -1.2000    0.0078 H   0  0  0  0  0  0  0  0  0  0  0  0
    1.1938    0.6871   -0.0052 C   0  0  0  0  0  0  0  0  0  0  0  0
    2.0646    1.1838   -0.0174 H   0  0  0  0  0  0  0  0  0  0  0  0
  1  5  1  0
  5  8  1  0
  1  2  1  0
  1  3  1  0
  1  4  1  0
  5  6  1  0
  5  7  1  0
  8  9  1  0
  8 10  1  0
  8 11  1  0
 12 16  1  0
 16 17  2  0
 17 19  1  0
 19 21  2  0
 21 23  1  0
 23 25  2  0
 25 16  1  0
 12 13  1  0
 12 14  1  0
 12 15  1  0
 17 18  1  0
 19 20  1  0
 21 22  1  0
 23 24  1  0
 25 26  1  0
M  CHG  1   8   1
M  END
>  <PDB_ID>  (3172) 
pdb6k0c

>  <RESIDUE_NAME>  (3172) 
LYS   PHE

>  <FRAG_NAME>  (3172) 
ETAM   MBZ

>  <FRAG_ATOM_NUM>  (3172) 
fragi: 11  fragj: 15

>  <atom.prop.CHAIN_ID>  (3172) 
A A A A A A A A A A A Z Z Z Z Z Z Z Z Z Z Z Z Z Z Z

>  <atom.prop.IS_HEAVY_ATOM>  (3172) 
1 0 0 0 1 0 0 1 0 0 0 1 0 0 0 1 1 0 1 0 1 0 1 0 1 0

>  <DIFUSE_FUNC_ATOM>  (3172) 
n/a

>  <FINAL_SINGLE_POINT_ENERGY>  (3172) 
0

>  <NONCOV_INTER_ENERGY_QM>  (3172) 
0

>  <FF_Energy>  (3172) 
-8.53

>  <QM_Energy>  (3172) 
-16.41

>  <source>  (3172) 
ETAM_MBZ

>  <Index>  (3172) 
34619

$$$$
ETAM-pdb6jvv-B-LYS-176:MBZ-pdb6jvv-B-PHE-105
     RDKit          3D

 26 25  0  0  0  0  0  0  0  0999 V2000
    2.0199   -3.3047    2.4222 C   0  0  0  0  0  0  0  0  0  0  0  0
    1.6868   -2.4016    2.6912 H   0  0  0  0  0  0  0  0  0  0  0  0
    2.1367   -3.3375    1.4306 H   0  0  0  0  0  0  0  0  0  0  0  0
    2.9761   -3.4985    2.9083 H   0  0  0  0  0  0  0  0  0  0  0  0
    0.9681   -4.3319    2.8095 C   0  0  0  0  0  0  0  0  0  0  0  0
    1.3748   -5.2490    2.7453 H   0  0  0  0  0  0  0  0  0  0  0  0
    0.6947   -4.1697    3.7635 H   0  0  0  0  0  0  0  0  0  0  0  0
   -0.2221   -4.2598    1.9388 N   0  0  0  0  0  4  0  0  0  0  0  0
   -0.4051   -5.1612    1.5420 H   0  0  0  0  0  0  0  0  0  0  0  0
   -1.0157   -3.9680    2.4751 H   0  0  0  0  0  0  0  0  0  0  0  0
   -0.0614   -3.6005    1.2023 H   0  0  0  0  0  0  0  0  0  0  0  0
   -0.0213    2.8947    0.0241 C   0  0  0  0  0  0  0  0  0  0  0  0
    0.8326    3.2012    0.4236 H   0  0  0  0  0  0  0  0  0  0  0  0
   -0.7937    3.1934    0.5684 H   0  0  0  0  0  0  0  0  0  0  0  0
   -0.1112    3.3485   -0.9628 H   0  0  0  0  0  0  0  0  0  0  0  0
   -0.0151    1.3942    0.0130 C   0  0  0  0  0  0  0  0  0  0  0  0
   -1.1885    0.6648    0.0242 C   0  0  0  0  0  0  0  0  0  0  0  0
   -2.0700    1.1516    0.0494 H   0  0  0  0  0  0  0  0  0  0  0  0
   -1.1937   -0.7169    0.0000 C   0  0  0  0  0  0  0  0  0  0  0  0
   -2.0588   -1.2177    0.0138 H   0  0  0  0  0  0  0  0  0  0  0  0
    0.0157   -1.3846   -0.0414 C   0  0  0  0  0  0  0  0  0  0  0  0
    0.0301   -2.3839   -0.1017 H   0  0  0  0  0  0  0  0  0  0  0  0
    1.1937   -0.6700    0.0000 C   0  0  0  0  0  0  0  0  0  0  0  0
    2.0891   -1.1626    0.0301 H   0  0  0  0  0  0  0  0  0  0  0  0
    1.1878    0.7126    0.0041 C   0  0  0  0  0  0  0  0  0  0  0  0
    2.0473    1.2150   -0.0003 H   0  0  0  0  0  0  0  0  0  0  0  0
  1  5  1  0
  5  8  1  0
  1  2  1  0
  1  3  1  0
  1  4  1  0
  5  6  1  0
  5  7  1  0
  8  9  1  0
  8 10  1  0
  8 11  1  0
 12 16  1  0
 16 17  2  0
 17 19  1  0
 19 21  2  0
 21 23  1  0
 23 25  2  0
 25 16  1  0
 12 13  1  0
 12 14  1  0
 12 15  1  0
 17 18  1  0
 19 20  1  0
 21 22  1  0
 23 24  1  0
 25 26  1  0
M  CHG  1   8   1
M  END
>  <PDB_ID>  (3173) 
pdb6jvv

>  <RESIDUE_NAME>  (3173) 
LYS   PHE

>  <FRAG_NAME>  (3173) 
ETAM   MBZ

>  <FRAG_ATOM_NUM>  (3173) 
fragi: 11  fragj: 15

>  <atom.prop.CHAIN_ID>  (3173) 
A A A A A A A A A A A Z Z Z Z Z Z Z Z Z Z Z Z Z Z Z

>  <atom.prop.IS_HEAVY_ATOM>  (3173) 
1 0 0 0 1 0 0 1 0 0 0 1 0 0 0 1 1 0 1 0 1 0 1 0 1 0

>  <DIFUSE_FUNC_ATOM>  (3173) 
n/a

>  <FINAL_SINGLE_POINT_ENERGY>  (3173) 
0

>  <NONCOV_INTER_ENERGY_QM>  (3173) 
0

>  <FF_Energy>  (3173) 
-0.25

>  <QM_Energy>  (3173) 
-6.14

>  <source>  (3173) 
ETAM_MBZ

>  <Index>  (3173) 
34625

$$$$
ETAM-pdb6k5e-F-ASP-3:MBZ-pdb6k5e-F-PHE-56
     RDKit          3D

 26 25  0  0  0  0  0  0  0  0999 V2000
   -3.3661   -5.6471    2.2218 C   0  0  0  0  0  0  0  0  0  0  0  0
   -3.6631   -5.1091    3.0047 H   0  0  0  0  0  0  0  0  0  0  0  0
   -4.1482   -5.9076    1.6660 H   0  0  0  0  0  0  0  0  0  0  0  0
   -2.8728   -6.5501    2.5815 H   0  0  0  0  0  0  0  0  0  0  0  0
   -2.4528   -4.7637    1.3645 C   0  0  0  0  0  0  0  0  0  0  0  0
   -1.6783   -5.2939    0.9923 H   0  0  0  0  0  0  0  0  0  0  0  0
   -3.0239   -4.3848    0.5169 H   0  0  0  0  0  0  0  0  0  0  0  0
   -1.8736   -3.6747    2.1705 N   0  0  0  0  0  4  0  0  0  0  0  0
   -0.8831   -3.7933    2.2326 H   0  0  0  0  0  0  0  0  0  0  0  0
   -2.0757   -2.7954    1.7402 H   0  0  0  0  0  0  0  0  0  0  0  0
   -2.2669   -3.6916    3.0895 H   0  0  0  0  0  0  0  0  0  0  0  0
   -0.0068    2.9044   -0.0058 C   0  0  0  0  0  0  0  0  0  0  0  0
   -0.7679    3.2095   -0.5568 H   0  0  0  0  0  0  0  0  0  0  0  0
    0.8549    3.2143   -0.3776 H   0  0  0  0  0  0  0  0  0  0  0  0
   -0.1177    3.3441    0.9854 H   0  0  0  0  0  0  0  0  0  0  0  0
   -0.0029    1.4057   -0.0018 C   0  0  0  0  0  0  0  0  0  0  0  0
   -1.2019    0.6917   -0.0027 C   0  0  0  0  0  0  0  0  0  0  0  0
   -2.0686    1.1794   -0.0066 H   0  0  0  0  0  0  0  0  0  0  0  0
   -1.2062   -0.7047    0.0000 C   0  0  0  0  0  0  0  0  0  0  0  0
   -2.0768   -1.2001    0.0002 H   0  0  0  0  0  0  0  0  0  0  0  0
    0.0069   -1.4003    0.0041 C   0  0  0  0  0  0  0  0  0  0  0  0
    0.0042   -2.3962    0.0094 H   0  0  0  0  0  0  0  0  0  0  0  0
    1.2062   -0.6965    0.0000 C   0  0  0  0  0  0  0  0  0  0  0  0
    2.0903   -1.1870   -0.0023 H   0  0  0  0  0  0  0  0  0  0  0  0
    1.1980    0.7040    0.0004 C   0  0  0  0  0  0  0  0  0  0  0  0
    2.0638    1.1984    0.0011 H   0  0  0  0  0  0  0  0  0  0  0  0
  1  5  1  0
  5  8  1  0
  1  2  1  0
  1  3  1  0
  1  4  1  0
  5  6  1  0
  5  7  1  0
  8  9  1  0
  8 10  1  0
  8 11  1  0
 12 16  1  0
 16 17  2  0
 17 19  1  0
 19 21  2  0
 21 23  1  0
 23 25  2  0
 25 16  1  0
 12 13  1  0
 12 14  1  0
 12 15  1  0
 17 18  1  0
 19 20  1  0
 21 22  1  0
 23 24  1  0
 25 26  1  0
M  CHG  1   8   1
M  END
>  <PDB_ID>  (3174) 
pdb6k5e

>  <RESIDUE_NAME>  (3174) 
ASP   PHE

>  <FRAG_NAME>  (3174) 
ETAM   MBZ

>  <FRAG_ATOM_NUM>  (3174) 
fragi: 11  fragj: 15

>  <atom.prop.CHAIN_ID>  (3174) 
A A A A A A A A A A A Z Z Z Z Z Z Z Z Z Z Z Z Z Z Z

>  <atom.prop.IS_HEAVY_ATOM>  (3174) 
1 0 0 0 1 0 0 1 0 0 0 1 0 0 0 1 1 0 1 0 1 0 1 0 1 0

>  <DIFUSE_FUNC_ATOM>  (3174) 
n/a

>  <FINAL_SINGLE_POINT_ENERGY>  (3174) 
0

>  <NONCOV_INTER_ENERGY_QM>  (3174) 
0

>  <FF_Energy>  (3174) 
-0.54

>  <QM_Energy>  (3174) 
-6.14

>  <source>  (3174) 
ETAM_MBZ

>  <Index>  (3174) 
34634

$$$$
ETAM-pdb6k3h-A-LYS-142:MBZ-pdb6k3h-A-PHE-146
     RDKit          3D

 26 25  0  0  0  0  0  0  0  0999 V2000
    0.0950    3.2658    4.7710 C   0  0  0  0  0  0  0  0  0  0  0  0
    0.2873    2.7751    5.6080 H   0  0  0  0  0  0  0  0  0  0  0  0
   -0.2877    4.1589    4.9574 H   0  0  0  0  0  0  0  0  0  0  0  0
    1.0271    3.3937    4.2205 H   0  0  0  0  0  0  0  0  0  0  0  0
   -0.8897    2.4694    3.9464 C   0  0  0  0  0  0  0  0  0  0  0  0
   -1.5915    2.0993    4.5361 H   0  0  0  0  0  0  0  0  0  0  0  0
   -1.2780    3.0487    3.2453 H   0  0  0  0  0  0  0  0  0  0  0  0
   -0.1494    1.3444    3.2992 N   0  0  0  0  0  4  0  0  0  0  0  0
    0.5899    1.7157    2.7400 H   0  0  0  0  0  0  0  0  0  0  0  0
    0.2297    0.7501    4.0066 H   0  0  0  0  0  0  0  0  0  0  0  0
   -0.7795    0.8246    2.7240 H   0  0  0  0  0  0  0  0  0  0  0  0
    0.0067    2.9073   -0.0370 C   0  0  0  0  0  0  0  0  0  0  0  0
    0.8516    3.2218    0.3570 H   0  0  0  0  0  0  0  0  0  0  0  0
   -0.7778    3.2275    0.4633 H   0  0  0  0  0  0  0  0  0  0  0  0
   -0.0580    3.3064   -1.0493 H   0  0  0  0  0  0  0  0  0  0  0  0
    0.0037    1.4012    0.0013 C   0  0  0  0  0  0  0  0  0  0  0  0
   -1.1981    0.6887   -0.0022 C   0  0  0  0  0  0  0  0  0  0  0  0
   -2.0618    1.1814   -0.0078 H   0  0  0  0  0  0  0  0  0  0  0  0
   -1.1998   -0.6987    0.0000 C   0  0  0  0  0  0  0  0  0  0  0  0
   -2.0790   -1.1928    0.0019 H   0  0  0  0  0  0  0  0  0  0  0  0
   -0.0044   -1.3916    0.0019 C   0  0  0  0  0  0  0  0  0  0  0  0
   -0.0035   -2.3904    0.0040 H   0  0  0  0  0  0  0  0  0  0  0  0
    1.1998   -0.6931   -0.0000 C   0  0  0  0  0  0  0  0  0  0  0  0
    2.0795   -1.1959    0.0007 H   0  0  0  0  0  0  0  0  0  0  0  0
    1.1988    0.6934   -0.0009 C   0  0  0  0  0  0  0  0  0  0  0  0
    2.0667    1.1896   -0.0042 H   0  0  0  0  0  0  0  0  0  0  0  0
  1  5  1  0
  5  8  1  0
  1  2  1  0
  1  3  1  0
  1  4  1  0
  5  6  1  0
  5  7  1  0
  8  9  1  0
  8 10  1  0
  8 11  1  0
 12 16  1  0
 16 17  2  0
 17 19  1  0
 19 21  2  0
 21 23  1  0
 23 25  2  0
 25 16  1  0
 12 13  1  0
 12 14  1  0
 12 15  1  0
 17 18  1  0
 19 20  1  0
 21 22  1  0
 23 24  1  0
 25 26  1  0
M  CHG  1   8   1
M  END
>  <PDB_ID>  (3175) 
pdb6k3h

>  <RESIDUE_NAME>  (3175) 
LYS   PHE

>  <FRAG_NAME>  (3175) 
ETAM   MBZ

>  <FRAG_ATOM_NUM>  (3175) 
fragi: 11  fragj: 15

>  <atom.prop.CHAIN_ID>  (3175) 
A A A A A A A A A A A Z Z Z Z Z Z Z Z Z Z Z Z Z Z Z

>  <atom.prop.IS_HEAVY_ATOM>  (3175) 
1 0 0 0 1 0 0 1 0 0 0 1 0 0 0 1 1 0 1 0 1 0 1 0 1 0

>  <DIFUSE_FUNC_ATOM>  (3175) 
n/a

>  <FINAL_SINGLE_POINT_ENERGY>  (3175) 
0

>  <NONCOV_INTER_ENERGY_QM>  (3175) 
0

>  <FF_Energy>  (3175) 
-7.88

>  <QM_Energy>  (3175) 
-13.12

>  <source>  (3175) 
ETAM_MBZ

>  <Index>  (3175) 
34638

$$$$
ETAM-pdb6k3h-G-LYS-142:MBZ-pdb6k3h-G-PHE-146
     RDKit          3D

 26 25  0  0  0  0  0  0  0  0999 V2000
    1.9795    1.7805    3.3098 C   0  0  0  0  0  0  0  0  0  0  0  0
    1.3375    1.7429    2.5470 H   0  0  0  0  0  0  0  0  0  0  0  0
    2.9083    1.8989    2.9664 H   0  0  0  0  0  0  0  0  0  0  0  0
    1.7282    2.6422    3.9282 H   0  0  0  0  0  0  0  0  0  0  0  0
    1.9072    0.4566    4.0750 C   0  0  0  0  0  0  0  0  0  0  0  0
    2.5143    0.5119    4.8735 H   0  0  0  0  0  0  0  0  0  0  0  0
    0.9653    0.3208    4.3960 H   0  0  0  0  0  0  0  0  0  0  0  0
    2.3102   -0.7127    3.2345 N   0  0  0  0  0  4  0  0  0  0  0  0
    2.5317   -1.4826    3.8294 H   0  0  0  0  0  0  0  0  0  0  0  0
    1.5535   -0.9591    2.6305 H   0  0  0  0  0  0  0  0  0  0  0  0
    3.1098   -0.4652    2.6908 H   0  0  0  0  0  0  0  0  0  0  0  0
   -0.0031    2.9055   -0.0137 C   0  0  0  0  0  0  0  0  0  0  0  0
    0.8815    3.2152    0.2922 H   0  0  0  0  0  0  0  0  0  0  0  0
   -0.7255    3.2170    0.5806 H   0  0  0  0  0  0  0  0  0  0  0  0
   -0.1795    3.3376   -0.9988 H   0  0  0  0  0  0  0  0  0  0  0  0
   -0.0030    1.3977   -0.0041 C   0  0  0  0  0  0  0  0  0  0  0  0
   -1.1951    0.6884    0.0044 C   0  0  0  0  0  0  0  0  0  0  0  0
   -2.0637    1.1833    0.0127 H   0  0  0  0  0  0  0  0  0  0  0  0
   -1.1999   -0.6908    0.0000 C   0  0  0  0  0  0  0  0  0  0  0  0
   -2.0725   -1.1921   -0.0066 H   0  0  0  0  0  0  0  0  0  0  0  0
    0.0073   -1.3891    0.0057 C   0  0  0  0  0  0  0  0  0  0  0  0
   -0.0038   -2.3883    0.0138 H   0  0  0  0  0  0  0  0  0  0  0  0
    1.1999   -0.6975   -0.0000 C   0  0  0  0  0  0  0  0  0  0  0  0
    2.0845   -1.1911    0.0015 H   0  0  0  0  0  0  0  0  0  0  0  0
    1.1908    0.6913   -0.0061 C   0  0  0  0  0  0  0  0  0  0  0  0
    2.0598    1.1896   -0.0128 H   0  0  0  0  0  0  0  0  0  0  0  0
  1  5  1  0
  5  8  1  0
  1  2  1  0
  1  3  1  0
  1  4  1  0
  5  6  1  0
  5  7  1  0
  8  9  1  0
  8 10  1  0
  8 11  1  0
 12 16  1  0
 16 17  2  0
 17 19  1  0
 19 21  2  0
 21 23  1  0
 23 25  2  0
 25 16  1  0
 12 13  1  0
 12 14  1  0
 12 15  1  0
 17 18  1  0
 19 20  1  0
 21 22  1  0
 23 24  1  0
 25 26  1  0
M  CHG  1   8   1
M  END
>  <PDB_ID>  (3176) 
pdb6k3h

>  <RESIDUE_NAME>  (3176) 
LYS   PHE

>  <FRAG_NAME>  (3176) 
ETAM   MBZ

>  <FRAG_ATOM_NUM>  (3176) 
fragi: 11  fragj: 15

>  <atom.prop.CHAIN_ID>  (3176) 
A A A A A A A A A A A Z Z Z Z Z Z Z Z Z Z Z Z Z Z Z

>  <atom.prop.IS_HEAVY_ATOM>  (3176) 
1 0 0 0 1 0 0 1 0 0 0 1 0 0 0 1 1 0 1 0 1 0 1 0 1 0

>  <DIFUSE_FUNC_ATOM>  (3176) 
n/a

>  <FINAL_SINGLE_POINT_ENERGY>  (3176) 
0

>  <NONCOV_INTER_ENERGY_QM>  (3176) 
0

>  <FF_Energy>  (3176) 
-5.12

>  <QM_Energy>  (3176) 
-11.06

>  <source>  (3176) 
ETAM_MBZ

>  <Index>  (3176) 
34643

$$$$
ETAM-pdb6k3h-H-LYS-142:MBZ-pdb6k3h-H-PHE-146
     RDKit          3D

 26 25  0  0  0  0  0  0  0  0999 V2000
   -1.0092    1.8497   -4.1509 C   0  0  0  0  0  0  0  0  0  0  0  0
   -1.8554    1.9942   -3.6415 H   0  0  0  0  0  0  0  0  0  0  0  0
   -1.2071    1.3776   -5.0074 H   0  0  0  0  0  0  0  0  0  0  0  0
   -0.5771    2.8228   -4.3841 H   0  0  0  0  0  0  0  0  0  0  0  0
   -0.0797    0.9789   -3.3172 C   0  0  0  0  0  0  0  0  0  0  0  0
    0.0598    1.4269   -2.4146 H   0  0  0  0  0  0  0  0  0  0  0  0
   -0.5446    0.0926   -3.1342 H   0  0  0  0  0  0  0  0  0  0  0  0
    1.2490    0.7070   -3.9298 N   0  0  0  0  0  4  0  0  0  0  0  0
    1.5367    1.5013   -4.4640 H   0  0  0  0  0  0  0  0  0  0  0  0
    1.9173    0.5299   -3.2075 H   0  0  0  0  0  0  0  0  0  0  0  0
    1.1820   -0.0912   -4.5273 H   0  0  0  0  0  0  0  0  0  0  0  0
    0.0004    2.8906   -0.0288 C   0  0  0  0  0  0  0  0  0  0  0  0
   -0.8037    3.1894   -0.5211 H   0  0  0  0  0  0  0  0  0  0  0  0
    0.8283    3.1899   -0.4808 H   0  0  0  0  0  0  0  0  0  0  0  0
   -0.0242    3.3487    0.9599 H   0  0  0  0  0  0  0  0  0  0  0  0
   -0.0004    1.3913   -0.0035 C   0  0  0  0  0  0  0  0  0  0  0  0
   -1.1952    0.6873   -0.0044 C   0  0  0  0  0  0  0  0  0  0  0  0
   -2.0606    1.1789   -0.0090 H   0  0  0  0  0  0  0  0  0  0  0  0
   -1.1914   -0.6906    0.0000 C   0  0  0  0  0  0  0  0  0  0  0  0
   -2.0709   -1.1902   -0.0068 H   0  0  0  0  0  0  0  0  0  0  0  0
   -0.0008   -1.3726    0.0159 C   0  0  0  0  0  0  0  0  0  0  0  0
   -0.0074   -2.3822    0.0390 H   0  0  0  0  0  0  0  0  0  0  0  0
    1.1914   -0.6958   -0.0000 C   0  0  0  0  0  0  0  0  0  0  0  0
    2.0727   -1.2013   -0.0044 H   0  0  0  0  0  0  0  0  0  0  0  0
    1.1963    0.6804   -0.0080 C   0  0  0  0  0  0  0  0  0  0  0  0
    2.0626    1.1797   -0.0184 H   0  0  0  0  0  0  0  0  0  0  0  0
  1  5  1  0
  5  8  1  0
  1  2  1  0
  1  3  1  0
  1  4  1  0
  5  6  1  0
  5  7  1  0
  8  9  1  0
  8 10  1  0
  8 11  1  0
 12 16  1  0
 16 17  2  0
 17 19  1  0
 19 21  2  0
 21 23  1  0
 23 25  2  0
 25 16  1  0
 12 13  1  0
 12 14  1  0
 12 15  1  0
 17 18  1  0
 19 20  1  0
 21 22  1  0
 23 24  1  0
 25 26  1  0
M  CHG  1   8   1
M  END
>  <PDB_ID>  (3177) 
pdb6k3h

>  <RESIDUE_NAME>  (3177) 
LYS   PHE

>  <FRAG_NAME>  (3177) 
ETAM   MBZ

>  <FRAG_ATOM_NUM>  (3177) 
fragi: 11  fragj: 15

>  <atom.prop.CHAIN_ID>  (3177) 
A A A A A A A A A A A Z Z Z Z Z Z Z Z Z Z Z Z Z Z Z

>  <atom.prop.IS_HEAVY_ATOM>  (3177) 
1 0 0 0 1 0 0 1 0 0 0 1 0 0 0 1 1 0 1 0 1 0 1 0 1 0

>  <DIFUSE_FUNC_ATOM>  (3177) 
n/a

>  <FINAL_SINGLE_POINT_ENERGY>  (3177) 
0

>  <NONCOV_INTER_ENERGY_QM>  (3177) 
0

>  <FF_Energy>  (3177) 
-4.41

>  <QM_Energy>  (3177) 
-9.57

>  <source>  (3177) 
ETAM_MBZ

>  <Index>  (3177) 
34644

$$$$
ETAM-pdb5jcb-C-LYS-163:MBZ-pdb5jcb-E-PHE-93
     RDKit          3D

 26 25  0  0  0  0  0  0  0  0999 V2000
    1.6621    0.4836   -3.9871 C   0  0  0  0  0  0  0  0  0  0  0  0
    1.4387    0.6215   -4.9465 H   0  0  0  0  0  0  0  0  0  0  0  0
    1.5902   -0.4798   -3.7500 H   0  0  0  0  0  0  0  0  0  0  0  0
    2.6844    0.8176   -3.8099 H   0  0  0  0  0  0  0  0  0  0  0  0
    0.6638    1.2644   -3.1410 C   0  0  0  0  0  0  0  0  0  0  0  0
    0.8213    1.0587   -2.1759 H   0  0  0  0  0  0  0  0  0  0  0  0
    0.7926    2.2418   -3.3011 H   0  0  0  0  0  0  0  0  0  0  0  0
   -0.7516    0.8967   -3.4925 N   0  0  0  0  0  4  0  0  0  0  0  0
   -1.3741    1.4005   -2.8990 H   0  0  0  0  0  0  0  0  0  0  0  0
   -0.9210    1.1359   -4.4457 H   0  0  0  0  0  0  0  0  0  0  0  0
   -0.8742   -0.0836   -3.3600 H   0  0  0  0  0  0  0  0  0  0  0  0
    0.0107    2.9110   -0.0259 C   0  0  0  0  0  0  0  0  0  0  0  0
   -0.5994    3.1994   -0.7513 H   0  0  0  0  0  0  0  0  0  0  0  0
    0.9407    3.2008   -0.2065 H   0  0  0  0  0  0  0  0  0  0  0  0
   -0.3172    3.3827    0.9005 H   0  0  0  0  0  0  0  0  0  0  0  0
   -0.0002    1.4008    0.0087 C   0  0  0  0  0  0  0  0  0  0  0  0
   -1.1962    0.6976   -0.0063 C   0  0  0  0  0  0  0  0  0  0  0  0
   -2.0629    1.1842   -0.0229 H   0  0  0  0  0  0  0  0  0  0  0  0
   -1.2004   -0.6997   -0.0000 C   0  0  0  0  0  0  0  0  0  0  0  0
   -2.0761   -1.1905    0.0062 H   0  0  0  0  0  0  0  0  0  0  0  0
    0.0019   -1.3914    0.0000 C   0  0  0  0  0  0  0  0  0  0  0  0
   -0.0001   -2.3915   -0.0001 H   0  0  0  0  0  0  0  0  0  0  0  0
    1.2004   -0.6945    0.0000 C   0  0  0  0  0  0  0  0  0  0  0  0
    2.0821   -1.1948    0.0034 H   0  0  0  0  0  0  0  0  0  0  0  0
    1.1945    0.6872   -0.0024 C   0  0  0  0  0  0  0  0  0  0  0  0
    2.0635    1.1880   -0.0137 H   0  0  0  0  0  0  0  0  0  0  0  0
  1  5  1  0
  5  8  1  0
  1  2  1  0
  1  3  1  0
  1  4  1  0
  5  6  1  0
  5  7  1  0
  8  9  1  0
  8 10  1  0
  8 11  1  0
 12 16  1  0
 16 17  2  0
 17 19  1  0
 19 21  2  0
 21 23  1  0
 23 25  2  0
 25 16  1  0
 12 13  1  0
 12 14  1  0
 12 15  1  0
 17 18  1  0
 19 20  1  0
 21 22  1  0
 23 24  1  0
 25 26  1  0
M  CHG  1   8   1
M  END
>  <PDB_ID>  (3178) 
pdb5jcb

>  <RESIDUE_NAME>  (3178) 
LYS   PHE

>  <FRAG_NAME>  (3178) 
ETAM   MBZ

>  <FRAG_ATOM_NUM>  (3178) 
fragi: 11  fragj: 15

>  <atom.prop.CHAIN_ID>  (3178) 
A A A A A A A A A A A Z Z Z Z Z Z Z Z Z Z Z Z Z Z Z

>  <atom.prop.IS_HEAVY_ATOM>  (3178) 
1 0 0 0 1 0 0 1 0 0 0 1 0 0 0 1 1 0 1 0 1 0 1 0 1 0

>  <DIFUSE_FUNC_ATOM>  (3178) 
n/a

>  <FINAL_SINGLE_POINT_ENERGY>  (3178) 
0

>  <NONCOV_INTER_ENERGY_QM>  (3178) 
0

>  <FF_Energy>  (3178) 
0.05

>  <QM_Energy>  (3178) 
-10.19

>  <source>  (3178) 
ETAM_MBZ

>  <Index>  (3178) 
34700

$$$$
ETAM-pdb5j7e-E-LYS-82:MBZ-pdb5j7e-E-PHE-95
     RDKit          3D

 26 25  0  0  0  0  0  0  0  0999 V2000
   -4.4810   -1.8453    2.5944 C   0  0  0  0  0  0  0  0  0  0  0  0
   -5.4171   -2.1191    2.7915 H   0  0  0  0  0  0  0  0  0  0  0  0
   -4.3564   -0.8762    2.7837 H   0  0  0  0  0  0  0  0  0  0  0  0
   -3.8072   -2.4173    3.2323 H   0  0  0  0  0  0  0  0  0  0  0  0
   -4.2046   -2.0907    1.1152 C   0  0  0  0  0  0  0  0  0  0  0  0
   -3.2552   -1.8289    0.9152 H   0  0  0  0  0  0  0  0  0  0  0  0
   -4.3152   -3.0708    0.9222 H   0  0  0  0  0  0  0  0  0  0  0  0
   -5.1222   -1.3132    0.2305 N   0  0  0  0  0  4  0  0  0  0  0  0
   -5.2721   -1.8216   -0.6160 H   0  0  0  0  0  0  0  0  0  0  0  0
   -5.9928   -1.1753    0.7000 H   0  0  0  0  0  0  0  0  0  0  0  0
   -4.7072   -0.4284    0.0222 H   0  0  0  0  0  0  0  0  0  0  0  0
    0.0021    2.8980    0.0211 C   0  0  0  0  0  0  0  0  0  0  0  0
    0.9064    3.2027    0.2892 H   0  0  0  0  0  0  0  0  0  0  0  0
   -0.6815    3.2000    0.6720 H   0  0  0  0  0  0  0  0  0  0  0  0
   -0.2305    3.3597   -0.9385 H   0  0  0  0  0  0  0  0  0  0  0  0
   -0.0006    1.4013    0.0010 C   0  0  0  0  0  0  0  0  0  0  0  0
   -1.1985    0.6954   -0.0011 C   0  0  0  0  0  0  0  0  0  0  0  0
   -2.0643    1.1866   -0.0049 H   0  0  0  0  0  0  0  0  0  0  0  0
   -1.2053   -0.6973    0.0000 C   0  0  0  0  0  0  0  0  0  0  0  0
   -2.0808   -1.1904    0.0021 H   0  0  0  0  0  0  0  0  0  0  0  0
   -0.0009   -1.3947    0.0005 C   0  0  0  0  0  0  0  0  0  0  0  0
   -0.0049   -2.3927    0.0006 H   0  0  0  0  0  0  0  0  0  0  0  0
    1.2053   -0.6973   -0.0000 C   0  0  0  0  0  0  0  0  0  0  0  0
    2.0835   -1.1970    0.0016 H   0  0  0  0  0  0  0  0  0  0  0  0
    1.2000    0.6926   -0.0003 C   0  0  0  0  0  0  0  0  0  0  0  0
    2.0662    1.1919   -0.0026 H   0  0  0  0  0  0  0  0  0  0  0  0
  1  5  1  0
  5  8  1  0
  1  2  1  0
  1  3  1  0
  1  4  1  0
  5  6  1  0
  5  7  1  0
  8  9  1  0
  8 10  1  0
  8 11  1  0
 12 16  1  0
 16 17  2  0
 17 19  1  0
 19 21  2  0
 21 23  1  0
 23 25  2  0
 25 16  1  0
 12 13  1  0
 12 14  1  0
 12 15  1  0
 17 18  1  0
 19 20  1  0
 21 22  1  0
 23 24  1  0
 25 26  1  0
M  CHG  1   8   1
M  END
>  <PDB_ID>  (3179) 
pdb5j7e

>  <RESIDUE_NAME>  (3179) 
LYS   PHE

>  <FRAG_NAME>  (3179) 
ETAM   MBZ

>  <FRAG_ATOM_NUM>  (3179) 
fragi: 11  fragj: 15

>  <atom.prop.CHAIN_ID>  (3179) 
A A A A A A A A A A A Z Z Z Z Z Z Z Z Z Z Z Z Z Z Z

>  <atom.prop.IS_HEAVY_ATOM>  (3179) 
1 0 0 0 1 0 0 1 0 0 0 1 0 0 0 1 1 0 1 0 1 0 1 0 1 0

>  <DIFUSE_FUNC_ATOM>  (3179) 
n/a

>  <FINAL_SINGLE_POINT_ENERGY>  (3179) 
0

>  <NONCOV_INTER_ENERGY_QM>  (3179) 
0

>  <FF_Energy>  (3179) 
15.51

>  <QM_Energy>  (3179) 
-0.05

>  <source>  (3179) 
ETAM_MBZ

>  <Index>  (3179) 
34703

$$$$
ETAM-pdb5j7x-A-LYS-531:MBZ-pdb5j7x-A-PHE-538
     RDKit          3D

 26 25  0  0  0  0  0  0  0  0999 V2000
    1.8748    0.9348   -3.8826 C   0  0  0  0  0  0  0  0  0  0  0  0
    2.3532    0.7776   -4.7086 H   0  0  0  0  0  0  0  0  0  0  0  0
    2.3271    0.6339   -3.0818 H   0  0  0  0  0  0  0  0  0  0  0  0
    1.6574    1.9991   -3.7931 H   0  0  0  0  0  0  0  0  0  0  0  0
    0.5137    0.2741   -3.9624 C   0  0  0  0  0  0  0  0  0  0  0  0
   -0.1263    0.8273   -3.4038 H   0  0  0  0  0  0  0  0  0  0  0  0
    0.2015    0.3348   -4.9252 H   0  0  0  0  0  0  0  0  0  0  0  0
    0.5611   -1.0493   -3.5238 N   0  0  0  0  0  4  0  0  0  0  0  0
   -0.3081   -1.5416   -3.7105 H   0  0  0  0  0  0  0  0  0  0  0  0
    1.3027   -1.5727   -3.9813 H   0  0  0  0  0  0  0  0  0  0  0  0
    0.7286   -1.1105   -2.5236 H   0  0  0  0  0  0  0  0  0  0  0  0
    0.0033    2.9053    0.1779 C   0  0  0  0  0  0  0  0  0  0  0  0
   -0.6774    3.2907   -0.4097 H   0  0  0  0  0  0  0  0  0  0  0  0
    0.9029    3.2466   -0.0021 H   0  0  0  0  0  0  0  0  0  0  0  0
   -0.2531    3.1764    1.2020 H   0  0  0  0  0  0  0  0  0  0  0  0
    0.0097    1.4210   -0.0107 C   0  0  0  0  0  0  0  0  0  0  0  0
   -1.2144    0.6881    0.0206 C   0  0  0  0  0  0  0  0  0  0  0  0
   -2.0676    1.1786    0.0553 H   0  0  0  0  0  0  0  0  0  0  0  0
   -1.1965   -0.7024    0.0000 C   0  0  0  0  0  0  0  0  0  0  0  0
   -2.0662   -1.2111   -0.0074 H   0  0  0  0  0  0  0  0  0  0  0  0
    0.0182   -1.3915   -0.0082 C   0  0  0  0  0  0  0  0  0  0  0  0
   -0.0083   -2.4036   -0.0206 H   0  0  0  0  0  0  0  0  0  0  0  0
    1.1965   -0.7289   -0.0000 C   0  0  0  0  0  0  0  0  0  0  0  0
    2.0882   -1.1897    0.0089 H   0  0  0  0  0  0  0  0  0  0  0  0
    1.1865    0.7137   -0.0017 C   0  0  0  0  0  0  0  0  0  0  0  0
    2.0704    1.1803    0.0031 H   0  0  0  0  0  0  0  0  0  0  0  0
  1  5  1  0
  5  8  1  0
  1  2  1  0
  1  3  1  0
  1  4  1  0
  5  6  1  0
  5  7  1  0
  8  9  1  0
  8 10  1  0
  8 11  1  0
 12 16  1  0
 16 17  2  0
 17 19  1  0
 19 21  2  0
 21 23  1  0
 23 25  2  0
 25 16  1  0
 12 13  1  0
 12 14  1  0
 12 15  1  0
 17 18  1  0
 19 20  1  0
 21 22  1  0
 23 24  1  0
 25 26  1  0
M  CHG  1   8   1
M  END
>  <PDB_ID>  (3180) 
pdb5j7x

>  <RESIDUE_NAME>  (3180) 
LYS   PHE

>  <FRAG_NAME>  (3180) 
ETAM   MBZ

>  <FRAG_ATOM_NUM>  (3180) 
fragi: 11  fragj: 15

>  <atom.prop.CHAIN_ID>  (3180) 
A A A A A A A A A A A Z Z Z Z Z Z Z Z Z Z Z Z Z Z Z

>  <atom.prop.IS_HEAVY_ATOM>  (3180) 
1 0 0 0 1 0 0 1 0 0 0 1 0 0 0 1 1 0 1 0 1 0 1 0 1 0

>  <DIFUSE_FUNC_ATOM>  (3180) 
n/a

>  <FINAL_SINGLE_POINT_ENERGY>  (3180) 
0

>  <NONCOV_INTER_ENERGY_QM>  (3180) 
0

>  <FF_Energy>  (3180) 
-7.72

>  <QM_Energy>  (3180) 
-15.15

>  <source>  (3180) 
ETAM_MBZ

>  <Index>  (3180) 
34737

$$$$
ETAM-pdb5jh1-A-LYS-160:MBZ-pdb5jh1-A-PHE-156
     RDKit          3D

 26 25  0  0  0  0  0  0  0  0999 V2000
   -0.0406    0.4900    4.7787 C   0  0  0  0  0  0  0  0  0  0  0  0
   -0.2219   -0.1071    5.5706 H   0  0  0  0  0  0  0  0  0  0  0  0
   -0.6775    1.2704    4.8213 H   0  0  0  0  0  0  0  0  0  0  0  0
    0.9739    0.8770    4.8737 H   0  0  0  0  0  0  0  0  0  0  0  0
   -0.3336   -0.3043    3.4976 C   0  0  0  0  0  0  0  0  0  0  0  0
   -0.2788    0.3323    2.7057 H   0  0  0  0  0  0  0  0  0  0  0  0
    0.4050   -0.9927    3.3712 H   0  0  0  0  0  0  0  0  0  0  0  0
   -1.6596   -1.0097    3.4567 N   0  0  0  0  0  4  0  0  0  0  0  0
   -1.6036   -1.8377    4.0095 H   0  0  0  0  0  0  0  0  0  0  0  0
   -2.3613   -0.4032    3.8228 H   0  0  0  0  0  0  0  0  0  0  0  0
   -1.8731   -1.2451    2.5118 H   0  0  0  0  0  0  0  0  0  0  0  0
    0.0316    2.9030   -0.0188 C   0  0  0  0  0  0  0  0  0  0  0  0
   -0.0845    3.1969   -0.9577 H   0  0  0  0  0  0  0  0  0  0  0  0
    0.9131    3.1858    0.3342 H   0  0  0  0  0  0  0  0  0  0  0  0
   -0.7394    3.3869    0.5809 H   0  0  0  0  0  0  0  0  0  0  0  0
   -0.0086    1.3911   -0.0005 C   0  0  0  0  0  0  0  0  0  0  0  0
   -1.1741    0.7004   -0.0102 C   0  0  0  0  0  0  0  0  0  0  0  0
   -2.0550    1.1837   -0.0265 H   0  0  0  0  0  0  0  0  0  0  0  0
   -1.1865   -0.6878   -0.0000 C   0  0  0  0  0  0  0  0  0  0  0  0
   -2.0661   -1.1768    0.0018 H   0  0  0  0  0  0  0  0  0  0  0  0
    0.0090   -1.3867    0.0098 C   0  0  0  0  0  0  0  0  0  0  0  0
   -0.0093   -2.3896    0.0231 H   0  0  0  0  0  0  0  0  0  0  0  0
    1.1865   -0.7066   -0.0000 C   0  0  0  0  0  0  0  0  0  0  0  0
    2.0779   -1.1892   -0.0065 H   0  0  0  0  0  0  0  0  0  0  0  0
    1.1737    0.6896    0.0009 C   0  0  0  0  0  0  0  0  0  0  0  0
    2.0492    1.1812    0.0018 H   0  0  0  0  0  0  0  0  0  0  0  0
  1  5  1  0
  5  8  1  0
  1  2  1  0
  1  3  1  0
  1  4  1  0
  5  6  1  0
  5  7  1  0
  8  9  1  0
  8 10  1  0
  8 11  1  0
 12 16  1  0
 16 17  2  0
 17 19  1  0
 19 21  2  0
 21 23  1  0
 23 25  2  0
 25 16  1  0
 12 13  1  0
 12 14  1  0
 12 15  1  0
 17 18  1  0
 19 20  1  0
 21 22  1  0
 23 24  1  0
 25 26  1  0
M  CHG  1   8   1
M  END
>  <PDB_ID>  (3181) 
pdb5jh1

>  <RESIDUE_NAME>  (3181) 
LYS   PHE

>  <FRAG_NAME>  (3181) 
ETAM   MBZ

>  <FRAG_ATOM_NUM>  (3181) 
fragi: 11  fragj: 15

>  <atom.prop.CHAIN_ID>  (3181) 
A A A A A A A A A A A Z Z Z Z Z Z Z Z Z Z Z Z Z Z Z

>  <atom.prop.IS_HEAVY_ATOM>  (3181) 
1 0 0 0 1 0 0 1 0 0 0 1 0 0 0 1 1 0 1 0 1 0 1 0 1 0

>  <DIFUSE_FUNC_ATOM>  (3181) 
n/a

>  <FINAL_SINGLE_POINT_ENERGY>  (3181) 
0

>  <NONCOV_INTER_ENERGY_QM>  (3181) 
0

>  <FF_Energy>  (3181) 
-6.04

>  <QM_Energy>  (3181) 
-12.48

>  <source>  (3181) 
ETAM_MBZ

>  <Index>  (3181) 
34751

$$$$
ETAM-pdb5jis-A-LYS-322:MBZ-pdb5jis-A-PHE-318
     RDKit          3D

 26 25  0  0  0  0  0  0  0  0999 V2000
    0.4026   -2.7863    4.4930 C   0  0  0  0  0  0  0  0  0  0  0  0
    1.1773   -3.3331    4.8117 H   0  0  0  0  0  0  0  0  0  0  0  0
   -0.2374   -2.6427    5.2471 H   0  0  0  0  0  0  0  0  0  0  0  0
    0.7743   -1.8164    4.1624 H   0  0  0  0  0  0  0  0  0  0  0  0
   -0.3092   -3.5491    3.3910 C   0  0  0  0  0  0  0  0  0  0  0  0
    0.3229   -3.6775    2.6213 H   0  0  0  0  0  0  0  0  0  0  0  0
   -0.5806   -4.4507    3.7402 H   0  0  0  0  0  0  0  0  0  0  0  0
   -1.5218   -2.8284    2.9093 N   0  0  0  0  0  4  0  0  0  0  0  0
   -2.3254   -3.4082    3.0409 H   0  0  0  0  0  0  0  0  0  0  0  0
   -1.6309   -1.9811    3.4277 H   0  0  0  0  0  0  0  0  0  0  0  0
   -1.4162   -2.6164    1.9388 H   0  0  0  0  0  0  0  0  0  0  0  0
   -0.0029    2.9070    0.0013 C   0  0  0  0  0  0  0  0  0  0  0  0
   -0.7581    3.2118   -0.5596 H   0  0  0  0  0  0  0  0  0  0  0  0
    0.8628    3.2153   -0.3641 H   0  0  0  0  0  0  0  0  0  0  0  0
   -0.1229    3.3537    0.9883 H   0  0  0  0  0  0  0  0  0  0  0  0
    0.0001    1.4017    0.0025 C   0  0  0  0  0  0  0  0  0  0  0  0
   -1.1974    0.6929    0.0014 C   0  0  0  0  0  0  0  0  0  0  0  0
   -2.0636    1.1831    0.0002 H   0  0  0  0  0  0  0  0  0  0  0  0
   -1.2003   -0.6965    0.0000 C   0  0  0  0  0  0  0  0  0  0  0  0
   -2.0769   -1.1912    0.0015 H   0  0  0  0  0  0  0  0  0  0  0  0
    0.0006   -1.3923   -0.0012 C   0  0  0  0  0  0  0  0  0  0  0  0
   -0.0040   -2.3914   -0.0034 H   0  0  0  0  0  0  0  0  0  0  0  0
    1.2003   -0.6970    0.0000 C   0  0  0  0  0  0  0  0  0  0  0  0
    2.0818   -1.1962    0.0048 H   0  0  0  0  0  0  0  0  0  0  0  0
    1.1966    0.6912   -0.0027 C   0  0  0  0  0  0  0  0  0  0  0  0
    2.0649    1.1884   -0.0095 H   0  0  0  0  0  0  0  0  0  0  0  0
  1  5  1  0
  5  8  1  0
  1  2  1  0
  1  3  1  0
  1  4  1  0
  5  6  1  0
  5  7  1  0
  8  9  1  0
  8 10  1  0
  8 11  1  0
 12 16  1  0
 16 17  2  0
 17 19  1  0
 19 21  2  0
 21 23  1  0
 23 25  2  0
 25 16  1  0
 12 13  1  0
 12 14  1  0
 12 15  1  0
 17 18  1  0
 19 20  1  0
 21 22  1  0
 23 24  1  0
 25 26  1  0
M  CHG  1   8   1
M  END
>  <PDB_ID>  (3182) 
pdb5jis

>  <RESIDUE_NAME>  (3182) 
LYS   PHE

>  <FRAG_NAME>  (3182) 
ETAM   MBZ

>  <FRAG_ATOM_NUM>  (3182) 
fragi: 11  fragj: 15

>  <atom.prop.CHAIN_ID>  (3182) 
A A A A A A A A A A A Z Z Z Z Z Z Z Z Z Z Z Z Z Z Z

>  <atom.prop.IS_HEAVY_ATOM>  (3182) 
1 0 0 0 1 0 0 1 0 0 0 1 0 0 0 1 1 0 1 0 1 0 1 0 1 0

>  <DIFUSE_FUNC_ATOM>  (3182) 
n/a

>  <FINAL_SINGLE_POINT_ENERGY>  (3182) 
0

>  <NONCOV_INTER_ENERGY_QM>  (3182) 
0

>  <FF_Energy>  (3182) 
-2.61

>  <QM_Energy>  (3182) 
-8.96

>  <source>  (3182) 
ETAM_MBZ

>  <Index>  (3182) 
34779

$$$$
ETAM-pdb5jkf-B-LYS-331:MBZ-pdb5jkf-B-PHE-390
     RDKit          3D

 26 25  0  0  0  0  0  0  0  0999 V2000
   -0.9368   -2.0022    3.9760 C   0  0  0  0  0  0  0  0  0  0  0  0
   -1.9217   -2.1387    4.0538 H   0  0  0  0  0  0  0  0  0  0  0  0
   -0.5143   -2.0482    4.8784 H   0  0  0  0  0  0  0  0  0  0  0  0
   -0.5176   -2.7860    3.3449 H   0  0  0  0  0  0  0  0  0  0  0  0
   -0.6781   -0.6544    3.3878 C   0  0  0  0  0  0  0  0  0  0  0  0
    0.2336   -0.3307    3.6969 H   0  0  0  0  0  0  0  0  0  0  0  0
   -0.6360   -0.7399    2.3769 H   0  0  0  0  0  0  0  0  0  0  0  0
   -1.6881    0.3237    3.7503 N   0  0  0  0  0  4  0  0  0  0  0  0
   -2.3682    0.4139    3.0146 H   0  0  0  0  0  0  0  0  0  0  0  0
   -2.1619    0.0417    4.5912 H   0  0  0  0  0  0  0  0  0  0  0  0
   -1.2642    1.2219    3.9070 H   0  0  0  0  0  0  0  0  0  0  0  0
   -0.0030    2.8890   -0.0031 C   0  0  0  0  0  0  0  0  0  0  0  0
   -0.6127    3.1933   -0.7217 H   0  0  0  0  0  0  0  0  0  0  0  0
    0.9229    3.1999   -0.1672 H   0  0  0  0  0  0  0  0  0  0  0  0
   -0.3429    3.3337    0.9322 H   0  0  0  0  0  0  0  0  0  0  0  0
    0.0007    1.3987    0.0057 C   0  0  0  0  0  0  0  0  0  0  0  0
   -1.1999    0.6988    0.0007 C   0  0  0  0  0  0  0  0  0  0  0  0
   -2.0625    1.1918   -0.0032 H   0  0  0  0  0  0  0  0  0  0  0  0
   -1.2059   -0.6905    0.0000 C   0  0  0  0  0  0  0  0  0  0  0  0
   -2.0814   -1.1854    0.0063 H   0  0  0  0  0  0  0  0  0  0  0  0
   -0.0011   -1.3926   -0.0072 C   0  0  0  0  0  0  0  0  0  0  0  0
   -0.0112   -2.3911   -0.0181 H   0  0  0  0  0  0  0  0  0  0  0  0
    1.2059   -0.7021    0.0000 C   0  0  0  0  0  0  0  0  0  0  0  0
    2.0826   -1.2020    0.0066 H   0  0  0  0  0  0  0  0  0  0  0  0
    1.2003    0.6876    0.0007 C   0  0  0  0  0  0  0  0  0  0  0  0
    2.0672    1.1859   -0.0036 H   0  0  0  0  0  0  0  0  0  0  0  0
  1  5  1  0
  5  8  1  0
  1  2  1  0
  1  3  1  0
  1  4  1  0
  5  6  1  0
  5  7  1  0
  8  9  1  0
  8 10  1  0
  8 11  1  0
 12 16  1  0
 16 17  2  0
 17 19  1  0
 19 21  2  0
 21 23  1  0
 23 25  2  0
 25 16  1  0
 12 13  1  0
 12 14  1  0
 12 15  1  0
 17 18  1  0
 19 20  1  0
 21 22  1  0
 23 24  1  0
 25 26  1  0
M  CHG  1   8   1
M  END
>  <PDB_ID>  (3183) 
pdb5jkf

>  <RESIDUE_NAME>  (3183) 
LYS   PHE

>  <FRAG_NAME>  (3183) 
ETAM   MBZ

>  <FRAG_ATOM_NUM>  (3183) 
fragi: 11  fragj: 15

>  <atom.prop.CHAIN_ID>  (3183) 
A A A A A A A A A A A Z Z Z Z Z Z Z Z Z Z Z Z Z Z Z

>  <atom.prop.IS_HEAVY_ATOM>  (3183) 
1 0 0 0 1 0 0 1 0 0 0 1 0 0 0 1 1 0 1 0 1 0 1 0 1 0

>  <DIFUSE_FUNC_ATOM>  (3183) 
n/a

>  <FINAL_SINGLE_POINT_ENERGY>  (3183) 
0

>  <NONCOV_INTER_ENERGY_QM>  (3183) 
0

>  <FF_Energy>  (3183) 
-3.8

>  <QM_Energy>  (3183) 
-10.25

>  <source>  (3183) 
ETAM_MBZ

>  <Index>  (3183) 
34837

$$$$
ETAM-pdb5jgw-B-LYS-171:MBZ-pdb5jgw-B-PHE-123
     RDKit          3D

 26 25  0  0  0  0  0  0  0  0999 V2000
    0.5647   -3.0959   -4.9194 C   0  0  0  0  0  0  0  0  0  0  0  0
    1.4620   -3.4297   -4.6060 H   0  0  0  0  0  0  0  0  0  0  0  0
    0.6955   -2.2002   -5.3598 H   0  0  0  0  0  0  0  0  0  0  0  0
    0.1803   -3.7929   -5.6641 H   0  0  0  0  0  0  0  0  0  0  0  0
   -0.3309   -2.9113   -3.7082 C   0  0  0  0  0  0  0  0  0  0  0  0
   -0.1615   -2.0123   -3.3158 H   0  0  0  0  0  0  0  0  0  0  0  0
   -1.2815   -2.9867   -3.9942 H   0  0  0  0  0  0  0  0  0  0  0  0
   -0.0281   -3.9546   -2.7106 N   0  0  0  0  0  4  0  0  0  0  0  0
    0.8935   -4.3144   -2.8665 H   0  0  0  0  0  0  0  0  0  0  0  0
   -0.0791   -3.5661   -1.7883 H   0  0  0  0  0  0  0  0  0  0  0  0
   -0.6911   -4.7018   -2.7901 H   0  0  0  0  0  0  0  0  0  0  0  0
    0.0155    2.9042   -0.0662 C   0  0  0  0  0  0  0  0  0  0  0  0
    0.8858    3.2155    0.2819 H   0  0  0  0  0  0  0  0  0  0  0  0
   -0.7334    3.2359    0.4864 H   0  0  0  0  0  0  0  0  0  0  0  0
   -0.1065    3.3080   -1.0713 H   0  0  0  0  0  0  0  0  0  0  0  0
    0.0040    1.4003   -0.0108 C   0  0  0  0  0  0  0  0  0  0  0  0
   -1.1980    0.6951    0.0053 C   0  0  0  0  0  0  0  0  0  0  0  0
   -2.0607    1.1842    0.0197 H   0  0  0  0  0  0  0  0  0  0  0  0
   -1.1996   -0.6986    0.0000 C   0  0  0  0  0  0  0  0  0  0  0  0
   -2.0807   -1.1887   -0.0175 H   0  0  0  0  0  0  0  0  0  0  0  0
   -0.0083   -1.3888    0.0209 C   0  0  0  0  0  0  0  0  0  0  0  0
   -0.0083   -2.3905    0.0503 H   0  0  0  0  0  0  0  0  0  0  0  0
    1.1996   -0.6979    0.0000 C   0  0  0  0  0  0  0  0  0  0  0  0
    2.0762   -1.2034   -0.0030 H   0  0  0  0  0  0  0  0  0  0  0  0
    1.2024    0.6899   -0.0154 C   0  0  0  0  0  0  0  0  0  0  0  0
    2.0693    1.1854   -0.0306 H   0  0  0  0  0  0  0  0  0  0  0  0
  1  5  1  0
  5  8  1  0
  1  2  1  0
  1  3  1  0
  1  4  1  0
  5  6  1  0
  5  7  1  0
  8  9  1  0
  8 10  1  0
  8 11  1  0
 12 16  1  0
 16 17  2  0
 17 19  1  0
 19 21  2  0
 21 23  1  0
 23 25  2  0
 25 16  1  0
 12 13  1  0
 12 14  1  0
 12 15  1  0
 17 18  1  0
 19 20  1  0
 21 22  1  0
 23 24  1  0
 25 26  1  0
M  CHG  1   8   1
M  END
>  <PDB_ID>  (3184) 
pdb5jgw

>  <RESIDUE_NAME>  (3184) 
LYS   PHE

>  <FRAG_NAME>  (3184) 
ETAM   MBZ

>  <FRAG_ATOM_NUM>  (3184) 
fragi: 11  fragj: 15

>  <atom.prop.CHAIN_ID>  (3184) 
A A A A A A A A A A A Z Z Z Z Z Z Z Z Z Z Z Z Z Z Z

>  <atom.prop.IS_HEAVY_ATOM>  (3184) 
1 0 0 0 1 0 0 1 0 0 0 1 0 0 0 1 1 0 1 0 1 0 1 0 1 0

>  <DIFUSE_FUNC_ATOM>  (3184) 
n/a

>  <FINAL_SINGLE_POINT_ENERGY>  (3184) 
0

>  <NONCOV_INTER_ENERGY_QM>  (3184) 
0

>  <FF_Energy>  (3184) 
-1.34

>  <QM_Energy>  (3184) 
-6.85

>  <source>  (3184) 
ETAM_MBZ

>  <Index>  (3184) 
34839

$$$$
ETAM-pdb6kz8-A-LYS-259:MBZ-pdb6kz8-A-PHE-298
     RDKit          3D

 26 25  0  0  0  0  0  0  0  0999 V2000
    3.3307   -1.8695    3.5327 C   0  0  0  0  0  0  0  0  0  0  0  0
    3.9185   -1.7930    4.3366 H   0  0  0  0  0  0  0  0  0  0  0  0
    3.1683   -0.9639    3.1448 H   0  0  0  0  0  0  0  0  0  0  0  0
    3.8319   -2.4880    2.7881 H   0  0  0  0  0  0  0  0  0  0  0  0
    2.0295   -2.4683    3.9344 C   0  0  0  0  0  0  0  0  0  0  0  0
    2.1897   -3.2487    4.5295 H   0  0  0  0  0  0  0  0  0  0  0  0
    1.4767   -1.7852    4.3996 H   0  0  0  0  0  0  0  0  0  0  0  0
    1.3419   -2.9117    2.7196 N   0  0  0  0  0  4  0  0  0  0  0  0
    1.9348   -2.7774    1.9213 H   0  0  0  0  0  0  0  0  0  0  0  0
    1.1091   -3.8850    2.7927 H   0  0  0  0  0  0  0  0  0  0  0  0
    0.4978   -2.3840    2.5911 H   0  0  0  0  0  0  0  0  0  0  0  0
   -0.0031    2.8774    0.0035 C   0  0  0  0  0  0  0  0  0  0  0  0
   -0.8571    3.1899   -0.3931 H   0  0  0  0  0  0  0  0  0  0  0  0
    0.7696    3.1890   -0.5346 H   0  0  0  0  0  0  0  0  0  0  0  0
    0.0831    3.3240    0.9940 H   0  0  0  0  0  0  0  0  0  0  0  0
   -0.0034    1.3876    0.0032 C   0  0  0  0  0  0  0  0  0  0  0  0
   -1.1884    0.6894    0.0029 C   0  0  0  0  0  0  0  0  0  0  0  0
   -2.0575    1.1836    0.0037 H   0  0  0  0  0  0  0  0  0  0  0  0
   -1.1916   -0.6829    0.0000 C   0  0  0  0  0  0  0  0  0  0  0  0
   -2.0689   -1.1850   -0.0003 H   0  0  0  0  0  0  0  0  0  0  0  0
    0.0065   -1.3786   -0.0005 C   0  0  0  0  0  0  0  0  0  0  0  0
   -0.0066   -2.3809   -0.0016 H   0  0  0  0  0  0  0  0  0  0  0  0
    1.1916   -0.6939    0.0000 C   0  0  0  0  0  0  0  0  0  0  0  0
    2.0778   -1.1931    0.0060 H   0  0  0  0  0  0  0  0  0  0  0  0
    1.1853    0.6785   -0.0057 C   0  0  0  0  0  0  0  0  0  0  0  0
    2.0566    1.1821   -0.0173 H   0  0  0  0  0  0  0  0  0  0  0  0
  1  5  1  0
  5  8  1  0
  1  2  1  0
  1  3  1  0
  1  4  1  0
  5  6  1  0
  5  7  1  0
  8  9  1  0
  8 10  1  0
  8 11  1  0
 12 16  1  0
 16 17  2  0
 17 19  1  0
 19 21  2  0
 21 23  1  0
 23 25  2  0
 25 16  1  0
 12 13  1  0
 12 14  1  0
 12 15  1  0
 17 18  1  0
 19 20  1  0
 21 22  1  0
 23 24  1  0
 25 26  1  0
M  CHG  1   8   1
M  END
>  <PDB_ID>  (3185) 
pdb6kz8

>  <RESIDUE_NAME>  (3185) 
LYS   PHE

>  <FRAG_NAME>  (3185) 
ETAM   MBZ

>  <FRAG_ATOM_NUM>  (3185) 
fragi: 11  fragj: 15

>  <atom.prop.CHAIN_ID>  (3185) 
A A A A A A A A A A A Z Z Z Z Z Z Z Z Z Z Z Z Z Z Z

>  <atom.prop.IS_HEAVY_ATOM>  (3185) 
1 0 0 0 1 0 0 1 0 0 0 1 0 0 0 1 1 0 1 0 1 0 1 0 1 0

>  <DIFUSE_FUNC_ATOM>  (3185) 
n/a

>  <FINAL_SINGLE_POINT_ENERGY>  (3185) 
0

>  <NONCOV_INTER_ENERGY_QM>  (3185) 
0

>  <FF_Energy>  (3185) 
-2.55

>  <QM_Energy>  (3185) 
-8.92

>  <source>  (3185) 
ETAM_MBZ

>  <Index>  (3185) 
34849

$$$$
ETAM-pdb6mb4-A-LYS-188:MBZ-pdb6mb4-A-PHE-211
     RDKit          3D

 26 25  0  0  0  0  0  0  0  0999 V2000
   -1.4886   -1.7157    3.4228 C   0  0  0  0  0  0  0  0  0  0  0  0
   -1.6371   -2.6797    3.6193 H   0  0  0  0  0  0  0  0  0  0  0  0
   -1.3908   -1.5736    2.4431 H   0  0  0  0  0  0  0  0  0  0  0  0
   -2.3479   -1.1473    3.7783 H   0  0  0  0  0  0  0  0  0  0  0  0
   -0.2110   -1.2719    4.1072 C   0  0  0  0  0  0  0  0  0  0  0  0
   -0.1320   -0.2714    4.0378 H   0  0  0  0  0  0  0  0  0  0  0  0
   -0.2572   -1.5197    5.0816 H   0  0  0  0  0  0  0  0  0  0  0  0
    1.0037   -1.8965    3.5060 N   0  0  0  0  0  4  0  0  0  0  0  0
    1.1076   -1.5759    2.5659 H   0  0  0  0  0  0  0  0  0  0  0  0
    1.8064   -1.6367    4.0412 H   0  0  0  0  0  0  0  0  0  0  0  0
    0.9014   -2.8907    3.5139 H   0  0  0  0  0  0  0  0  0  0  0  0
    0.0022    2.8996   -0.0077 C   0  0  0  0  0  0  0  0  0  0  0  0
    0.9425    3.2045    0.0221 H   0  0  0  0  0  0  0  0  0  0  0  0
   -0.5016    3.2084    0.7851 H   0  0  0  0  0  0  0  0  0  0  0  0
   -0.4634    3.3375   -0.8907 H   0  0  0  0  0  0  0  0  0  0  0  0
    0.0009    1.3952   -0.0024 C   0  0  0  0  0  0  0  0  0  0  0  0
   -1.1913    0.6879   -0.0003 C   0  0  0  0  0  0  0  0  0  0  0  0
   -2.0594    1.1792   -0.0003 H   0  0  0  0  0  0  0  0  0  0  0  0
   -1.1937   -0.6950    0.0000 C   0  0  0  0  0  0  0  0  0  0  0  0
   -2.0731   -1.1899    0.0007 H   0  0  0  0  0  0  0  0  0  0  0  0
   -0.0021   -1.3840    0.0017 C   0  0  0  0  0  0  0  0  0  0  0  0
   -0.0040   -2.3875    0.0031 H   0  0  0  0  0  0  0  0  0  0  0  0
    1.1937   -0.6933   -0.0000 C   0  0  0  0  0  0  0  0  0  0  0  0
    2.0762   -1.1941   -0.0009 H   0  0  0  0  0  0  0  0  0  0  0  0
    1.1925    0.6894    0.0010 C   0  0  0  0  0  0  0  0  0  0  0  0
    2.0618    1.1861    0.0039 H   0  0  0  0  0  0  0  0  0  0  0  0
  1  5  1  0
  5  8  1  0
  1  2  1  0
  1  3  1  0
  1  4  1  0
  5  6  1  0
  5  7  1  0
  8  9  1  0
  8 10  1  0
  8 11  1  0
 12 16  1  0
 16 17  2  0
 17 19  1  0
 19 21  2  0
 21 23  1  0
 23 25  2  0
 25 16  1  0
 12 13  1  0
 12 14  1  0
 12 15  1  0
 17 18  1  0
 19 20  1  0
 21 22  1  0
 23 24  1  0
 25 26  1  0
M  CHG  1   8   1
M  END
>  <PDB_ID>  (3186) 
pdb6mb4

>  <RESIDUE_NAME>  (3186) 
LYS   PHE

>  <FRAG_NAME>  (3186) 
ETAM   MBZ

>  <FRAG_ATOM_NUM>  (3186) 
fragi: 11  fragj: 15

>  <atom.prop.CHAIN_ID>  (3186) 
A A A A A A A A A A A Z Z Z Z Z Z Z Z Z Z Z Z Z Z Z

>  <atom.prop.IS_HEAVY_ATOM>  (3186) 
1 0 0 0 1 0 0 1 0 0 0 1 0 0 0 1 1 0 1 0 1 0 1 0 1 0

>  <DIFUSE_FUNC_ATOM>  (3186) 
n/a

>  <FINAL_SINGLE_POINT_ENERGY>  (3186) 
0

>  <NONCOV_INTER_ENERGY_QM>  (3186) 
0

>  <FF_Energy>  (3186) 
-4.88

>  <QM_Energy>  (3186) 
-11.29

>  <source>  (3186) 
ETAM_MBZ

>  <Index>  (3186) 
34851

$$$$
ETAM-pdb6mb4-C-LYS-188:MBZ-pdb6mb4-C-PHE-211
     RDKit          3D

 26 25  0  0  0  0  0  0  0  0999 V2000
   -1.3176   -1.7724    3.4125 C   0  0  0  0  0  0  0  0  0  0  0  0
   -1.4483   -2.7205    3.6755 H   0  0  0  0  0  0  0  0  0  0  0  0
   -1.2943   -1.6814    2.4245 H   0  0  0  0  0  0  0  0  0  0  0  0
   -2.1470   -1.1817    3.8014 H   0  0  0  0  0  0  0  0  0  0  0  0
   -0.0022   -1.2849    3.9798 C   0  0  0  0  0  0  0  0  0  0  0  0
    0.0637   -0.2865    3.8447 H   0  0  0  0  0  0  0  0  0  0  0  0
    0.0150   -1.4665    4.9727 H   0  0  0  0  0  0  0  0  0  0  0  0
    1.1816   -1.9355    3.3513 N   0  0  0  0  0  4  0  0  0  0  0  0
    1.7060   -1.2512    2.8459 H   0  0  0  0  0  0  0  0  0  0  0  0
    1.7551   -2.3375    4.0639 H   0  0  0  0  0  0  0  0  0  0  0  0
    0.8724   -2.6511    2.7257 H   0  0  0  0  0  0  0  0  0  0  0  0
    0.0013    2.9064   -0.0128 C   0  0  0  0  0  0  0  0  0  0  0  0
    0.9401    3.2112    0.0025 H   0  0  0  0  0  0  0  0  0  0  0  0
   -0.4941    3.2163    0.7825 H   0  0  0  0  0  0  0  0  0  0  0  0
   -0.4766    3.3342   -0.8941 H   0  0  0  0  0  0  0  0  0  0  0  0
    0.0022    1.3992   -0.0003 C   0  0  0  0  0  0  0  0  0  0  0  0
   -1.1929    0.6927    0.0009 C   0  0  0  0  0  0  0  0  0  0  0  0
   -2.0601    1.1838    0.0015 H   0  0  0  0  0  0  0  0  0  0  0  0
   -1.1992   -0.6957   -0.0000 C   0  0  0  0  0  0  0  0  0  0  0  0
   -2.0790   -1.1875   -0.0003 H   0  0  0  0  0  0  0  0  0  0  0  0
   -0.0045   -1.3916    0.0016 C   0  0  0  0  0  0  0  0  0  0  0  0
   -0.0060   -2.3901    0.0037 H   0  0  0  0  0  0  0  0  0  0  0  0
    1.1992   -0.6950   -0.0000 C   0  0  0  0  0  0  0  0  0  0  0  0
    2.0786   -1.1960    0.0020 H   0  0  0  0  0  0  0  0  0  0  0  0
    1.1953    0.6904   -0.0022 C   0  0  0  0  0  0  0  0  0  0  0  0
    2.0649    1.1885   -0.0056 H   0  0  0  0  0  0  0  0  0  0  0  0
  1  5  1  0
  5  8  1  0
  1  2  1  0
  1  3  1  0
  1  4  1  0
  5  6  1  0
  5  7  1  0
  8  9  1  0
  8 10  1  0
  8 11  1  0
 12 16  1  0
 16 17  2  0
 17 19  1  0
 19 21  2  0
 21 23  1  0
 23 25  2  0
 25 16  1  0
 12 13  1  0
 12 14  1  0
 12 15  1  0
 17 18  1  0
 19 20  1  0
 21 22  1  0
 23 24  1  0
 25 26  1  0
M  CHG  1   8   1
M  END
>  <PDB_ID>  (3187) 
pdb6mb4

>  <RESIDUE_NAME>  (3187) 
LYS   PHE

>  <FRAG_NAME>  (3187) 
ETAM   MBZ

>  <FRAG_ATOM_NUM>  (3187) 
fragi: 11  fragj: 15

>  <atom.prop.CHAIN_ID>  (3187) 
A A A A A A A A A A A Z Z Z Z Z Z Z Z Z Z Z Z Z Z Z

>  <atom.prop.IS_HEAVY_ATOM>  (3187) 
1 0 0 0 1 0 0 1 0 0 0 1 0 0 0 1 1 0 1 0 1 0 1 0 1 0

>  <DIFUSE_FUNC_ATOM>  (3187) 
n/a

>  <FINAL_SINGLE_POINT_ENERGY>  (3187) 
0

>  <NONCOV_INTER_ENERGY_QM>  (3187) 
0

>  <FF_Energy>  (3187) 
-4.51

>  <QM_Energy>  (3187) 
-10.55

>  <source>  (3187) 
ETAM_MBZ

>  <Index>  (3187) 
34853

$$$$
ETAM-pdb5jmd-A-LYS-446:MBZ-pdb5jmd-A-PHE-567
     RDKit          3D

 26 25  0  0  0  0  0  0  0  0999 V2000
    5.5886    0.5016   -1.9426 C   0  0  0  0  0  0  0  0  0  0  0  0
    6.0000    1.0697   -1.2396 H   0  0  0  0  0  0  0  0  0  0  0  0
    4.7842    0.9425   -2.3224 H   0  0  0  0  0  0  0  0  0  0  0  0
    6.3158    0.3416   -2.7387 H   0  0  0  0  0  0  0  0  0  0  0  0
    5.1692   -0.8173   -1.3172 C   0  0  0  0  0  0  0  0  0  0  0  0
    4.6509   -1.3488   -1.9941 H   0  0  0  0  0  0  0  0  0  0  0  0
    5.9929   -1.3348   -1.0640 H   0  0  0  0  0  0  0  0  0  0  0  0
    4.3283   -0.6178   -0.1068 N   0  0  0  0  0  4  0  0  0  0  0  0
    4.7301    0.1003    0.4616 H   0  0  0  0  0  0  0  0  0  0  0  0
    3.4057   -0.3485   -0.3839 H   0  0  0  0  0  0  0  0  0  0  0  0
    4.2856   -1.4707    0.4124 H   0  0  0  0  0  0  0  0  0  0  0  0
    0.0048    2.8975   -0.0035 C   0  0  0  0  0  0  0  0  0  0  0  0
   -0.2151    3.2008   -0.9196 H   0  0  0  0  0  0  0  0  0  0  0  0
    0.9054    3.2032    0.2687 H   0  0  0  0  0  0  0  0  0  0  0  0
   -0.7180    3.3483    0.6766 H   0  0  0  0  0  0  0  0  0  0  0  0
    0.0003    1.3940    0.0042 C   0  0  0  0  0  0  0  0  0  0  0  0
   -1.1909    0.6865   -0.0023 C   0  0  0  0  0  0  0  0  0  0  0  0
   -2.0591    1.1792   -0.0095 H   0  0  0  0  0  0  0  0  0  0  0  0
   -1.1931   -0.6931    0.0000 C   0  0  0  0  0  0  0  0  0  0  0  0
   -2.0721   -1.1907    0.0037 H   0  0  0  0  0  0  0  0  0  0  0  0
   -0.0003   -1.3821   -0.0013 C   0  0  0  0  0  0  0  0  0  0  0  0
   -0.0036   -2.3857   -0.0034 H   0  0  0  0  0  0  0  0  0  0  0  0
    1.1931   -0.6935   -0.0000 C   0  0  0  0  0  0  0  0  0  0  0  0
    2.0767   -1.1938    0.0033 H   0  0  0  0  0  0  0  0  0  0  0  0
    1.1909    0.6882   -0.0006 C   0  0  0  0  0  0  0  0  0  0  0  0
    2.0612    1.1859   -0.0054 H   0  0  0  0  0  0  0  0  0  0  0  0
  1  5  1  0
  5  8  1  0
  1  2  1  0
  1  3  1  0
  1  4  1  0
  5  6  1  0
  5  7  1  0
  8  9  1  0
  8 10  1  0
  8 11  1  0
 12 16  1  0
 16 17  2  0
 17 19  1  0
 19 21  2  0
 21 23  1  0
 23 25  2  0
 25 16  1  0
 12 13  1  0
 12 14  1  0
 12 15  1  0
 17 18  1  0
 19 20  1  0
 21 22  1  0
 23 24  1  0
 25 26  1  0
M  CHG  1   8   1
M  END
>  <PDB_ID>  (3188) 
pdb5jmd

>  <RESIDUE_NAME>  (3188) 
LYS   PHE

>  <FRAG_NAME>  (3188) 
ETAM   MBZ

>  <FRAG_ATOM_NUM>  (3188) 
fragi: 11  fragj: 15

>  <atom.prop.CHAIN_ID>  (3188) 
A A A A A A A A A A A Z Z Z Z Z Z Z Z Z Z Z Z Z Z Z

>  <atom.prop.IS_HEAVY_ATOM>  (3188) 
1 0 0 0 1 0 0 1 0 0 0 1 0 0 0 1 1 0 1 0 1 0 1 0 1 0

>  <DIFUSE_FUNC_ATOM>  (3188) 
n/a

>  <FINAL_SINGLE_POINT_ENERGY>  (3188) 
0

>  <NONCOV_INTER_ENERGY_QM>  (3188) 
0

>  <FF_Energy>  (3188) 
4.81

>  <QM_Energy>  (3188) 
-2.41

>  <source>  (3188) 
ETAM_MBZ

>  <Index>  (3188) 
34866

$$$$
ETAM-pdb6mcp-A-LYS-37:MBZ-pdb6mcp-A-PHE-33
     RDKit          3D

 26 25  0  0  0  0  0  0  0  0999 V2000
    2.6150   -2.2858    3.1875 C   0  0  0  0  0  0  0  0  0  0  0  0
    2.1525   -1.7825    2.4648 H   0  0  0  0  0  0  0  0  0  0  0  0
    3.5671   -2.0047    3.2501 H   0  0  0  0  0  0  0  0  0  0  0  0
    2.1197   -2.0801    4.1365 H   0  0  0  0  0  0  0  0  0  0  0  0
    2.5694   -3.7667    2.8499 C   0  0  0  0  0  0  0  0  0  0  0  0
    3.2799   -3.9679    2.1642 H   0  0  0  0  0  0  0  0  0  0  0  0
    2.7759   -4.2980    3.6808 H   0  0  0  0  0  0  0  0  0  0  0  0
    1.2435   -4.2038    2.3145 N   0  0  0  0  0  4  0  0  0  0  0  0
    1.3620   -5.0481    1.7946 H   0  0  0  0  0  0  0  0  0  0  0  0
    0.6174   -4.3618    3.0766 H   0  0  0  0  0  0  0  0  0  0  0  0
    0.8778   -3.4899    1.7198 H   0  0  0  0  0  0  0  0  0  0  0  0
    0.0023    2.9113   -0.0197 C   0  0  0  0  0  0  0  0  0  0  0  0
   -0.7836    3.2077   -0.5428 H   0  0  0  0  0  0  0  0  0  0  0  0
    0.8460    3.2073   -0.4430 H   0  0  0  0  0  0  0  0  0  0  0  0
   -0.0578    3.3724    0.9662 H   0  0  0  0  0  0  0  0  0  0  0  0
    0.0001    1.4016    0.0009 C   0  0  0  0  0  0  0  0  0  0  0  0
   -1.1890    0.6926   -0.0003 C   0  0  0  0  0  0  0  0  0  0  0  0
   -2.0601    1.1790   -0.0025 H   0  0  0  0  0  0  0  0  0  0  0  0
   -1.1912   -0.6981    0.0000 C   0  0  0  0  0  0  0  0  0  0  0  0
   -2.0723   -1.1897    0.0010 H   0  0  0  0  0  0  0  0  0  0  0  0
    0.0007   -1.3889    0.0008 C   0  0  0  0  0  0  0  0  0  0  0  0
   -0.0032   -2.3908    0.0016 H   0  0  0  0  0  0  0  0  0  0  0  0
    1.1912   -0.6978   -0.0000 C   0  0  0  0  0  0  0  0  0  0  0  0
    2.0773   -1.1935    0.0018 H   0  0  0  0  0  0  0  0  0  0  0  0
    1.1882    0.6906   -0.0015 C   0  0  0  0  0  0  0  0  0  0  0  0
    2.0615    1.1843   -0.0055 H   0  0  0  0  0  0  0  0  0  0  0  0
  1  5  1  0
  5  8  1  0
  1  2  1  0
  1  3  1  0
  1  4  1  0
  5  6  1  0
  5  7  1  0
  8  9  1  0
  8 10  1  0
  8 11  1  0
 12 16  1  0
 16 17  2  0
 17 19  1  0
 19 21  2  0
 21 23  1  0
 23 25  2  0
 25 16  1  0
 12 13  1  0
 12 14  1  0
 12 15  1  0
 17 18  1  0
 19 20  1  0
 21 22  1  0
 23 24  1  0
 25 26  1  0
M  CHG  1   8   1
M  END
>  <PDB_ID>  (3189) 
pdb6mcp

>  <RESIDUE_NAME>  (3189) 
LYS   PHE

>  <FRAG_NAME>  (3189) 
ETAM   MBZ

>  <FRAG_ATOM_NUM>  (3189) 
fragi: 11  fragj: 15

>  <atom.prop.CHAIN_ID>  (3189) 
A A A A A A A A A A A Z Z Z Z Z Z Z Z Z Z Z Z Z Z Z

>  <atom.prop.IS_HEAVY_ATOM>  (3189) 
1 0 0 0 1 0 0 1 0 0 0 1 0 0 0 1 1 0 1 0 1 0 1 0 1 0

>  <DIFUSE_FUNC_ATOM>  (3189) 
n/a

>  <FINAL_SINGLE_POINT_ENERGY>  (3189) 
0

>  <NONCOV_INTER_ENERGY_QM>  (3189) 
0

>  <FF_Energy>  (3189) 
-0.85

>  <QM_Energy>  (3189) 
-5.99

>  <source>  (3189) 
ETAM_MBZ

>  <Index>  (3189) 
34873

$$$$
ETAM-pdb6mcp-A-LYS-196:MBZ-pdb6mcp-A-PHE-259
     RDKit          3D

 26 25  0  0  0  0  0  0  0  0999 V2000
    0.0263    0.1967   -3.3247 C   0  0  0  0  0  0  0  0  0  0  0  0
    0.3130    0.1362   -2.3764 H   0  0  0  0  0  0  0  0  0  0  0  0
   -0.3428   -0.6701   -3.6359 H   0  0  0  0  0  0  0  0  0  0  0  0
   -0.7447    0.9622   -3.4125 H   0  0  0  0  0  0  0  0  0  0  0  0
    1.2402    0.5409   -4.1771 C   0  0  0  0  0  0  0  0  0  0  0  0
    0.9579    0.5796   -5.1418 H   0  0  0  0  0  0  0  0  0  0  0  0
    1.5789    1.4494   -3.9082 H   0  0  0  0  0  0  0  0  0  0  0  0
    2.3416   -0.4516   -4.0311 N   0  0  0  0  0  4  0  0  0  0  0  0
    2.9698   -0.3650   -4.8030 H   0  0  0  0  0  0  0  0  0  0  0  0
    2.8328   -0.2783   -3.1786 H   0  0  0  0  0  0  0  0  0  0  0  0
    1.9557   -1.3734   -4.0146 H   0  0  0  0  0  0  0  0  0  0  0  0
    0.0038    2.8959    0.0019 C   0  0  0  0  0  0  0  0  0  0  0  0
   -0.7020    3.2067   -0.6197 H   0  0  0  0  0  0  0  0  0  0  0  0
    0.8983    3.2012   -0.2941 H   0  0  0  0  0  0  0  0  0  0  0  0
   -0.1926    3.3390    0.9783 H   0  0  0  0  0  0  0  0  0  0  0  0
   -0.0004    1.3960   -0.0016 C   0  0  0  0  0  0  0  0  0  0  0  0
   -1.1903    0.6923    0.0021 C   0  0  0  0  0  0  0  0  0  0  0  0
   -2.0593    1.1828    0.0047 H   0  0  0  0  0  0  0  0  0  0  0  0
   -1.1937   -0.6913   -0.0000 C   0  0  0  0  0  0  0  0  0  0  0  0
   -2.0743   -1.1861    0.0002 H   0  0  0  0  0  0  0  0  0  0  0  0
   -0.0003   -1.3871    0.0000 C   0  0  0  0  0  0  0  0  0  0  0  0
   -0.0076   -2.3889   -0.0005 H   0  0  0  0  0  0  0  0  0  0  0  0
    1.1937   -0.6986   -0.0000 C   0  0  0  0  0  0  0  0  0  0  0  0
    2.0768   -1.1967    0.0023 H   0  0  0  0  0  0  0  0  0  0  0  0
    1.1910    0.6887   -0.0004 C   0  0  0  0  0  0  0  0  0  0  0  0
    2.0618    1.1840   -0.0003 H   0  0  0  0  0  0  0  0  0  0  0  0
  1  5  1  0
  5  8  1  0
  1  2  1  0
  1  3  1  0
  1  4  1  0
  5  6  1  0
  5  7  1  0
  8  9  1  0
  8 10  1  0
  8 11  1  0
 12 16  1  0
 16 17  2  0
 17 19  1  0
 19 21  2  0
 21 23  1  0
 23 25  2  0
 25 16  1  0
 12 13  1  0
 12 14  1  0
 12 15  1  0
 17 18  1  0
 19 20  1  0
 21 22  1  0
 23 24  1  0
 25 26  1  0
M  CHG  1   8   1
M  END
>  <PDB_ID>  (3190) 
pdb6mcp

>  <RESIDUE_NAME>  (3190) 
LYS   PHE

>  <FRAG_NAME>  (3190) 
ETAM   MBZ

>  <FRAG_ATOM_NUM>  (3190) 
fragi: 11  fragj: 15

>  <atom.prop.CHAIN_ID>  (3190) 
A A A A A A A A A A A Z Z Z Z Z Z Z Z Z Z Z Z Z Z Z

>  <atom.prop.IS_HEAVY_ATOM>  (3190) 
1 0 0 0 1 0 0 1 0 0 0 1 0 0 0 1 1 0 1 0 1 0 1 0 1 0

>  <DIFUSE_FUNC_ATOM>  (3190) 
n/a

>  <FINAL_SINGLE_POINT_ENERGY>  (3190) 
0

>  <NONCOV_INTER_ENERGY_QM>  (3190) 
0

>  <FF_Energy>  (3190) 
-3.34

>  <QM_Energy>  (3190) 
-8.4

>  <source>  (3190) 
ETAM_MBZ

>  <Index>  (3190) 
34874

$$$$
ETAM-pdb5jgw-C-LYS-171:MBZ-pdb5jgw-C-PHE-123
     RDKit          3D

 26 25  0  0  0  0  0  0  0  0999 V2000
    0.6019   -3.0818   -4.9490 C   0  0  0  0  0  0  0  0  0  0  0  0
    1.4914   -3.4157   -4.6193 H   0  0  0  0  0  0  0  0  0  0  0  0
    0.7369   -2.1875   -5.3878 H   0  0  0  0  0  0  0  0  0  0  0  0
    0.2270   -3.7809   -5.6966 H   0  0  0  0  0  0  0  0  0  0  0  0
   -0.3181   -2.8936   -3.7466 C   0  0  0  0  0  0  0  0  0  0  0  0
   -0.1504   -1.9980   -3.3526 H   0  0  0  0  0  0  0  0  0  0  0  0
   -1.2610   -2.9700   -4.0490 H   0  0  0  0  0  0  0  0  0  0  0  0
   -0.0284   -3.9424   -2.7466 N   0  0  0  0  0  4  0  0  0  0  0  0
    0.7178   -4.5243   -3.0756 H   0  0  0  0  0  0  0  0  0  0  0  0
    0.2406   -3.5169   -1.8802 H   0  0  0  0  0  0  0  0  0  0  0  0
   -0.8454   -4.5032   -2.5998 H   0  0  0  0  0  0  0  0  0  0  0  0
    0.0083    2.9085   -0.0535 C   0  0  0  0  0  0  0  0  0  0  0  0
    0.8691    3.2259    0.3100 H   0  0  0  0  0  0  0  0  0  0  0  0
   -0.7548    3.2344    0.4809 H   0  0  0  0  0  0  0  0  0  0  0  0
   -0.0957    3.3150   -1.0594 H   0  0  0  0  0  0  0  0  0  0  0  0
    0.0054    1.4021   -0.0042 C   0  0  0  0  0  0  0  0  0  0  0  0
   -1.2017    0.6834   -0.0108 C   0  0  0  0  0  0  0  0  0  0  0  0
   -2.0632    1.1804   -0.0248 H   0  0  0  0  0  0  0  0  0  0  0  0
   -1.1982   -0.6947   -0.0000 C   0  0  0  0  0  0  0  0  0  0  0  0
   -2.0762   -1.1965    0.0037 H   0  0  0  0  0  0  0  0  0  0  0  0
   -0.0013   -1.3859    0.0071 C   0  0  0  0  0  0  0  0  0  0  0  0
   -0.0058   -2.3885    0.0165 H   0  0  0  0  0  0  0  0  0  0  0  0
    1.1982   -0.6975    0.0000 C   0  0  0  0  0  0  0  0  0  0  0  0
    2.0794   -1.1971   -0.0096 H   0  0  0  0  0  0  0  0  0  0  0  0
    1.1976    0.6925    0.0079 C   0  0  0  0  0  0  0  0  0  0  0  0
    2.0681    1.1854    0.0218 H   0  0  0  0  0  0  0  0  0  0  0  0
  1  5  1  0
  5  8  1  0
  1  2  1  0
  1  3  1  0
  1  4  1  0
  5  6  1  0
  5  7  1  0
  8  9  1  0
  8 10  1  0
  8 11  1  0
 12 16  1  0
 16 17  2  0
 17 19  1  0
 19 21  2  0
 21 23  1  0
 23 25  2  0
 25 16  1  0
 12 13  1  0
 12 14  1  0
 12 15  1  0
 17 18  1  0
 19 20  1  0
 21 22  1  0
 23 24  1  0
 25 26  1  0
M  CHG  1   8   1
M  END
>  <PDB_ID>  (3191) 
pdb5jgw

>  <RESIDUE_NAME>  (3191) 
LYS   PHE

>  <FRAG_NAME>  (3191) 
ETAM   MBZ

>  <FRAG_ATOM_NUM>  (3191) 
fragi: 11  fragj: 15

>  <atom.prop.CHAIN_ID>  (3191) 
A A A A A A A A A A A Z Z Z Z Z Z Z Z Z Z Z Z Z Z Z

>  <atom.prop.IS_HEAVY_ATOM>  (3191) 
1 0 0 0 1 0 0 1 0 0 0 1 0 0 0 1 1 0 1 0 1 0 1 0 1 0

>  <DIFUSE_FUNC_ATOM>  (3191) 
n/a

>  <FINAL_SINGLE_POINT_ENERGY>  (3191) 
0

>  <NONCOV_INTER_ENERGY_QM>  (3191) 
0

>  <FF_Energy>  (3191) 
-1.34

>  <QM_Energy>  (3191) 
-6.76

>  <source>  (3191) 
ETAM_MBZ

>  <Index>  (3191) 
34893

$$$$
ETAM-pdb5jp2-B-LYS-966:MBZ-pdb5jp2-B-PHE-947
     RDKit          3D

 26 25  0  0  0  0  0  0  0  0999 V2000
    0.3634    0.3484    5.2663 C   0  0  0  0  0  0  0  0  0  0  0  0
   -0.5107    0.5403    4.8420 H   0  0  0  0  0  0  0  0  0  0  0  0
    0.7589    1.1680    5.6556 H   0  0  0  0  0  0  0  0  0  0  0  0
    0.2306   -0.3986    6.0489 H   0  0  0  0  0  0  0  0  0  0  0  0
    1.3106   -0.1794    4.1965 C   0  0  0  0  0  0  0  0  0  0  0  0
    2.0722   -0.6509    4.6444 H   0  0  0  0  0  0  0  0  0  0  0  0
    0.8144   -0.8295    3.6183 H   0  0  0  0  0  0  0  0  0  0  0  0
    1.8400    0.9228    3.3557 N   0  0  0  0  0  4  0  0  0  0  0  0
    1.2924    1.7466    3.5018 H   0  0  0  0  0  0  0  0  0  0  0  0
    2.7909    1.1065    3.6060 H   0  0  0  0  0  0  0  0  0  0  0  0
    1.7939    0.6590    2.3919 H   0  0  0  0  0  0  0  0  0  0  0  0
   -0.0084    2.8613    0.0117 C   0  0  0  0  0  0  0  0  0  0  0  0
    0.7914    3.1717    0.5123 H   0  0  0  0  0  0  0  0  0  0  0  0
   -0.8406    3.1643    0.4617 H   0  0  0  0  0  0  0  0  0  0  0  0
    0.0203    3.3155   -0.9786 H   0  0  0  0  0  0  0  0  0  0  0  0
   -0.0011    1.3816   -0.0040 C   0  0  0  0  0  0  0  0  0  0  0  0
   -1.1836    0.6848   -0.0003 C   0  0  0  0  0  0  0  0  0  0  0  0
   -2.0540    1.1804    0.0012 H   0  0  0  0  0  0  0  0  0  0  0  0
   -1.1885   -0.6839    0.0000 C   0  0  0  0  0  0  0  0  0  0  0  0
   -2.0696   -1.1825    0.0005 H   0  0  0  0  0  0  0  0  0  0  0  0
   -0.0021   -1.3739    0.0015 C   0  0  0  0  0  0  0  0  0  0  0  0
   -0.0096   -2.3788    0.0030 H   0  0  0  0  0  0  0  0  0  0  0  0
    1.1885   -0.6911   -0.0000 C   0  0  0  0  0  0  0  0  0  0  0  0
    2.0717   -1.1947   -0.0019 H   0  0  0  0  0  0  0  0  0  0  0  0
    1.1869    0.6825    0.0028 C   0  0  0  0  0  0  0  0  0  0  0  0
    2.0562    1.1830    0.0095 H   0  0  0  0  0  0  0  0  0  0  0  0
  1  5  1  0
  5  8  1  0
  1  2  1  0
  1  3  1  0
  1  4  1  0
  5  6  1  0
  5  7  1  0
  8  9  1  0
  8 10  1  0
  8 11  1  0
 12 16  1  0
 16 17  2  0
 17 19  1  0
 19 21  2  0
 21 23  1  0
 23 25  2  0
 25 16  1  0
 12 13  1  0
 12 14  1  0
 12 15  1  0
 17 18  1  0
 19 20  1  0
 21 22  1  0
 23 24  1  0
 25 26  1  0
M  CHG  1   8   1
M  END
>  <PDB_ID>  (3192) 
pdb5jp2

>  <RESIDUE_NAME>  (3192) 
LYS   PHE

>  <FRAG_NAME>  (3192) 
ETAM   MBZ

>  <FRAG_ATOM_NUM>  (3192) 
fragi: 11  fragj: 15

>  <atom.prop.CHAIN_ID>  (3192) 
A A A A A A A A A A A Z Z Z Z Z Z Z Z Z Z Z Z Z Z Z

>  <atom.prop.IS_HEAVY_ATOM>  (3192) 
1 0 0 0 1 0 0 1 0 0 0 1 0 0 0 1 1 0 1 0 1 0 1 0 1 0

>  <DIFUSE_FUNC_ATOM>  (3192) 
n/a

>  <FINAL_SINGLE_POINT_ENERGY>  (3192) 
0

>  <NONCOV_INTER_ENERGY_QM>  (3192) 
0

>  <FF_Energy>  (3192) 
-5.85

>  <QM_Energy>  (3192) 
-11.68

>  <source>  (3192) 
ETAM_MBZ

>  <Index>  (3192) 
34931

$$$$
ETAM-pdb6mgd-B-LYS-197:MBZ-pdb6mgd-B-PHE-246
     RDKit          3D

 26 25  0  0  0  0  0  0  0  0999 V2000
   -2.6785   -2.4764   -4.7743 C   0  0  0  0  0  0  0  0  0  0  0  0
   -3.6626   -2.6158   -4.7132 H   0  0  0  0  0  0  0  0  0  0  0  0
   -2.1954   -3.2513   -4.3769 H   0  0  0  0  0  0  0  0  0  0  0  0
   -2.4007   -2.3897   -5.8247 H   0  0  0  0  0  0  0  0  0  0  0  0
   -2.3158   -1.2237   -3.9873 C   0  0  0  0  0  0  0  0  0  0  0  0
   -1.3169   -1.1375   -3.9573 H   0  0  0  0  0  0  0  0  0  0  0  0
   -2.6973   -0.4234   -4.4576 H   0  0  0  0  0  0  0  0  0  0  0  0
   -2.8454   -1.2714   -2.5950 N   0  0  0  0  0  4  0  0  0  0  0  0
   -3.8409   -1.1866   -2.6171 H   0  0  0  0  0  0  0  0  0  0  0  0
   -2.5918   -2.1413   -2.1746 H   0  0  0  0  0  0  0  0  0  0  0  0
   -2.4564   -0.5176   -2.0670 H   0  0  0  0  0  0  0  0  0  0  0  0
   -0.0008    2.8912   -0.0113 C   0  0  0  0  0  0  0  0  0  0  0  0
   -0.7990    3.1922   -0.5153 H   0  0  0  0  0  0  0  0  0  0  0  0
    0.8323    3.1938   -0.4544 H   0  0  0  0  0  0  0  0  0  0  0  0
   -0.0382    3.3519    0.9758 H   0  0  0  0  0  0  0  0  0  0  0  0
   -0.0001    1.3921    0.0063 C   0  0  0  0  0  0  0  0  0  0  0  0
   -1.1912    0.6882   -0.0026 C   0  0  0  0  0  0  0  0  0  0  0  0
   -2.0586    1.1814   -0.0116 H   0  0  0  0  0  0  0  0  0  0  0  0
   -1.1930   -0.6895    0.0000 C   0  0  0  0  0  0  0  0  0  0  0  0
   -2.0726   -1.1877    0.0065 H   0  0  0  0  0  0  0  0  0  0  0  0
   -0.0002   -1.3799   -0.0045 C   0  0  0  0  0  0  0  0  0  0  0  0
   -0.0066   -2.3844   -0.0117 H   0  0  0  0  0  0  0  0  0  0  0  0
    1.1930   -0.6950    0.0000 C   0  0  0  0  0  0  0  0  0  0  0  0
    2.0756   -1.1968    0.0044 H   0  0  0  0  0  0  0  0  0  0  0  0
    1.1914    0.6842    0.0009 C   0  0  0  0  0  0  0  0  0  0  0  0
    2.0609    1.1836   -0.0035 H   0  0  0  0  0  0  0  0  0  0  0  0
  1  5  1  0
  5  8  1  0
  1  2  1  0
  1  3  1  0
  1  4  1  0
  5  6  1  0
  5  7  1  0
  8  9  1  0
  8 10  1  0
  8 11  1  0
 12 16  1  0
 16 17  2  0
 17 19  1  0
 19 21  2  0
 21 23  1  0
 23 25  2  0
 25 16  1  0
 12 13  1  0
 12 14  1  0
 12 15  1  0
 17 18  1  0
 19 20  1  0
 21 22  1  0
 23 24  1  0
 25 26  1  0
M  CHG  1   8   1
M  END
>  <PDB_ID>  (3193) 
pdb6mgd

>  <RESIDUE_NAME>  (3193) 
LYS   PHE

>  <FRAG_NAME>  (3193) 
ETAM   MBZ

>  <FRAG_ATOM_NUM>  (3193) 
fragi: 11  fragj: 15

>  <atom.prop.CHAIN_ID>  (3193) 
A A A A A A A A A A A Z Z Z Z Z Z Z Z Z Z Z Z Z Z Z

>  <atom.prop.IS_HEAVY_ATOM>  (3193) 
1 0 0 0 1 0 0 1 0 0 0 1 0 0 0 1 1 0 1 0 1 0 1 0 1 0

>  <DIFUSE_FUNC_ATOM>  (3193) 
n/a

>  <FINAL_SINGLE_POINT_ENERGY>  (3193) 
0

>  <NONCOV_INTER_ENERGY_QM>  (3193) 
0

>  <FF_Energy>  (3193) 
-2.04

>  <QM_Energy>  (3193) 
-8.96

>  <source>  (3193) 
ETAM_MBZ

>  <Index>  (3193) 
34935

$$$$
ETAM-pdb6kz8-A-LYS-749:MBZ-pdb6kz8-A-PHE-753
     RDKit          3D

 26 25  0  0  0  0  0  0  0  0999 V2000
    1.7870   -2.1436   -3.9883 C   0  0  0  0  0  0  0  0  0  0  0  0
    1.8027   -1.7957   -4.9192 H   0  0  0  0  0  0  0  0  0  0  0  0
    2.1264   -3.0776   -3.9600 H   0  0  0  0  0  0  0  0  0  0  0  0
    2.4380   -1.5197   -3.3758 H   0  0  0  0  0  0  0  0  0  0  0  0
    0.3437   -2.1317   -3.4849 C   0  0  0  0  0  0  0  0  0  0  0  0
   -0.2070   -2.7433   -4.0561 H   0  0  0  0  0  0  0  0  0  0  0  0
    0.3240   -2.4604   -2.5386 H   0  0  0  0  0  0  0  0  0  0  0  0
   -0.2639   -0.7491   -3.5298 N   0  0  0  0  0  4  0  0  0  0  0  0
    0.2712   -0.1845   -4.1517 H   0  0  0  0  0  0  0  0  0  0  0  0
   -1.2033   -0.8228   -3.8531 H   0  0  0  0  0  0  0  0  0  0  0  0
   -0.2454   -0.3612   -2.6132 H   0  0  0  0  0  0  0  0  0  0  0  0
   -0.0147    2.9047   -0.0019 C   0  0  0  0  0  0  0  0  0  0  0  0
    0.8792    3.2150   -0.2866 H   0  0  0  0  0  0  0  0  0  0  0  0
   -0.2299    3.2109    0.9125 H   0  0  0  0  0  0  0  0  0  0  0  0
   -0.7505    3.3361   -0.6805 H   0  0  0  0  0  0  0  0  0  0  0  0
   -0.0034    1.3991    0.0032 C   0  0  0  0  0  0  0  0  0  0  0  0
   -1.1916    0.6853    0.0042 C   0  0  0  0  0  0  0  0  0  0  0  0
   -2.0631    1.1800    0.0065 H   0  0  0  0  0  0  0  0  0  0  0  0
   -1.1963   -0.6908   -0.0000 C   0  0  0  0  0  0  0  0  0  0  0  0
   -2.0724   -1.1906    0.0043 H   0  0  0  0  0  0  0  0  0  0  0  0
    0.0038   -1.3891   -0.0080 C   0  0  0  0  0  0  0  0  0  0  0  0
   -0.0071   -2.3890   -0.0196 H   0  0  0  0  0  0  0  0  0  0  0  0
    1.1963   -0.6998    0.0000 C   0  0  0  0  0  0  0  0  0  0  0  0
    2.0811   -1.1923    0.0073 H   0  0  0  0  0  0  0  0  0  0  0  0
    1.1912    0.6953    0.0006 C   0  0  0  0  0  0  0  0  0  0  0  0
    2.0598    1.1888   -0.0012 H   0  0  0  0  0  0  0  0  0  0  0  0
  1  5  1  0
  5  8  1  0
  1  2  1  0
  1  3  1  0
  1  4  1  0
  5  6  1  0
  5  7  1  0
  8  9  1  0
  8 10  1  0
  8 11  1  0
 12 16  1  0
 16 17  2  0
 17 19  1  0
 19 21  2  0
 21 23  1  0
 23 25  2  0
 25 16  1  0
 12 13  1  0
 12 14  1  0
 12 15  1  0
 17 18  1  0
 19 20  1  0
 21 22  1  0
 23 24  1  0
 25 26  1  0
M  CHG  1   8   1
M  END
>  <PDB_ID>  (3194) 
pdb6kz8

>  <RESIDUE_NAME>  (3194) 
LYS   PHE

>  <FRAG_NAME>  (3194) 
ETAM   MBZ

>  <FRAG_ATOM_NUM>  (3194) 
fragi: 11  fragj: 15

>  <atom.prop.CHAIN_ID>  (3194) 
A A A A A A A A A A A Z Z Z Z Z Z Z Z Z Z Z Z Z Z Z

>  <atom.prop.IS_HEAVY_ATOM>  (3194) 
1 0 0 0 1 0 0 1 0 0 0 1 0 0 0 1 1 0 1 0 1 0 1 0 1 0

>  <DIFUSE_FUNC_ATOM>  (3194) 
n/a

>  <FINAL_SINGLE_POINT_ENERGY>  (3194) 
0

>  <NONCOV_INTER_ENERGY_QM>  (3194) 
0

>  <FF_Energy>  (3194) 
-7.69

>  <QM_Energy>  (3194) 
-14.41

>  <source>  (3194) 
ETAM_MBZ

>  <Index>  (3194) 
34955

$$$$
ETAM-pdb5jri-A-LYS-210:MBZ-pdb5jri-A-PHE-184
     RDKit          3D

 26 25  0  0  0  0  0  0  0  0999 V2000
    0.5553   -2.3500    3.3821 C   0  0  0  0  0  0  0  0  0  0  0  0
    0.8522   -2.6558    4.2532 H   0  0  0  0  0  0  0  0  0  0  0  0
    1.2641   -2.4524    2.7286 H   0  0  0  0  0  0  0  0  0  0  0  0
   -0.3095   -2.9354    3.0702 H   0  0  0  0  0  0  0  0  0  0  0  0
    0.2107   -0.8726    3.4851 C   0  0  0  0  0  0  0  0  0  0  0  0
   -0.0641   -0.5471    2.6140 H   0  0  0  0  0  0  0  0  0  0  0  0
   -0.5065   -0.7558    4.1277 H   0  0  0  0  0  0  0  0  0  0  0  0
    1.3756   -0.0627    3.9379 N   0  0  0  0  0  4  0  0  0  0  0  0
    1.1470    0.7967    3.9893 H   0  0  0  0  0  0  0  0  0  0  0  0
    1.6450   -0.3390    4.7396 H   0  0  0  0  0  0  0  0  0  0  0  0
    2.0481   -0.1486    3.3607 H   0  0  0  0  0  0  0  0  0  0  0  0
   -0.0004    2.9137   -0.0150 C   0  0  0  0  0  0  0  0  0  0  0  0
    0.9096    3.2159    0.1267 H   0  0  0  0  0  0  0  0  0  0  0  0
   -0.5701    3.2244    0.7066 H   0  0  0  0  0  0  0  0  0  0  0  0
   -0.3673    3.3235   -0.9560 H   0  0  0  0  0  0  0  0  0  0  0  0
    0.0001    1.4017    0.0071 C   0  0  0  0  0  0  0  0  0  0  0  0
   -1.1925    0.6972   -0.0011 C   0  0  0  0  0  0  0  0  0  0  0  0
   -2.0003    1.1587   -0.0024 H   0  0  0  0  0  0  0  0  0  0  0  0
   -1.1939   -0.6985   -0.0000 C   0  0  0  0  0  0  0  0  0  0  0  0
   -1.9994   -1.1638    0.0012 H   0  0  0  0  0  0  0  0  0  0  0  0
    0.0032   -1.3902   -0.0027 C   0  0  0  0  0  0  0  0  0  0  0  0
    0.0049   -2.3207    0.0017 H   0  0  0  0  0  0  0  0  0  0  0  0
    1.1939   -0.6985    0.0000 C   0  0  0  0  0  0  0  0  0  0  0  0
    2.0001   -1.1617   -0.0016 H   0  0  0  0  0  0  0  0  0  0  0  0
    1.1892    0.6883   -0.0033 C   0  0  0  0  0  0  0  0  0  0  0  0
    1.9983    1.1480   -0.0045 H   0  0  0  0  0  0  0  0  0  0  0  0
  1  5  1  0
  5  8  1  0
  1  2  1  0
  1  3  1  0
  1  4  1  0
  5  6  1  0
  5  7  1  0
  8  9  1  0
  8 10  1  0
  8 11  1  0
 12 16  1  0
 16 17  2  0
 17 19  1  0
 19 21  2  0
 21 23  1  0
 23 25  2  0
 25 16  1  0
 12 13  1  0
 12 14  1  0
 12 15  1  0
 17 18  1  0
 19 20  1  0
 21 22  1  0
 23 24  1  0
 25 26  1  0
M  CHG  1   8   1
M  END
>  <PDB_ID>  (3195) 
pdb5jri

>  <RESIDUE_NAME>  (3195) 
LYS   PHE

>  <FRAG_NAME>  (3195) 
ETAM   MBZ

>  <FRAG_ATOM_NUM>  (3195) 
fragi: 11  fragj: 15

>  <atom.prop.CHAIN_ID>  (3195) 
A A A A A A A A A A A Z Z Z Z Z Z Z Z Z Z Z Z Z Z Z

>  <atom.prop.IS_HEAVY_ATOM>  (3195) 
1 0 0 0 1 0 0 1 0 0 0 1 0 0 0 1 1 0 1 0 1 0 1 0 1 0

>  <DIFUSE_FUNC_ATOM>  (3195) 
n/a

>  <FINAL_SINGLE_POINT_ENERGY>  (3195) 
0

>  <NONCOV_INTER_ENERGY_QM>  (3195) 
0

>  <FF_Energy>  (3195) 
-5.63

>  <QM_Energy>  (3195) 
-10.98

>  <source>  (3195) 
ETAM_MBZ

>  <Index>  (3195) 
34963

$$$$
ETAM-pdb5jri-B-LYS-210:MBZ-pdb5jri-B-PHE-184
     RDKit          3D

 26 25  0  0  0  0  0  0  0  0999 V2000
    0.5830   -2.2462    3.4344 C   0  0  0  0  0  0  0  0  0  0  0  0
    0.8954   -2.5300    4.3075 H   0  0  0  0  0  0  0  0  0  0  0  0
    1.2827   -2.3664    2.7724 H   0  0  0  0  0  0  0  0  0  0  0  0
   -0.2852   -2.8419    3.1523 H   0  0  0  0  0  0  0  0  0  0  0  0
    0.2464   -0.7715    3.5061 C   0  0  0  0  0  0  0  0  0  0  0  0
   -0.0276   -0.4610    2.6295 H   0  0  0  0  0  0  0  0  0  0  0  0
   -0.4671   -0.6353    4.1500 H   0  0  0  0  0  0  0  0  0  0  0  0
    1.4236    0.0250    3.9386 N   0  0  0  0  0  4  0  0  0  0  0  0
    1.2094    0.8881    3.9756 H   0  0  0  0  0  0  0  0  0  0  0  0
    1.6918   -0.2423    4.7443 H   0  0  0  0  0  0  0  0  0  0  0  0
    2.0912   -0.0822    3.3602 H   0  0  0  0  0  0  0  0  0  0  0  0
   -0.0086    2.8982   -0.0211 C   0  0  0  0  0  0  0  0  0  0  0  0
    0.9037    3.2066    0.0960 H   0  0  0  0  0  0  0  0  0  0  0  0
   -0.5616    3.2086    0.7123 H   0  0  0  0  0  0  0  0  0  0  0  0
   -0.4016    3.2967   -0.9564 H   0  0  0  0  0  0  0  0  0  0  0  0
    0.0006    1.3969    0.0050 C   0  0  0  0  0  0  0  0  0  0  0  0
   -1.1929    0.6894   -0.0001 C   0  0  0  0  0  0  0  0  0  0  0  0
   -2.0007    1.1501   -0.0042 H   0  0  0  0  0  0  0  0  0  0  0  0
   -1.1958   -0.6974    0.0000 C   0  0  0  0  0  0  0  0  0  0  0  0
   -2.0020   -1.1608    0.0014 H   0  0  0  0  0  0  0  0  0  0  0  0
    0.0006   -1.3874   -0.0034 C   0  0  0  0  0  0  0  0  0  0  0  0
    0.0016   -2.3174    0.0049 H   0  0  0  0  0  0  0  0  0  0  0  0
    1.1958   -0.6937   -0.0000 C   0  0  0  0  0  0  0  0  0  0  0  0
    2.0020   -1.1572    0.0011 H   0  0  0  0  0  0  0  0  0  0  0  0
    1.1917    0.6922   -0.0015 C   0  0  0  0  0  0  0  0  0  0  0  0
    1.9996    1.1543   -0.0049 H   0  0  0  0  0  0  0  0  0  0  0  0
  1  5  1  0
  5  8  1  0
  1  2  1  0
  1  3  1  0
  1  4  1  0
  5  6  1  0
  5  7  1  0
  8  9  1  0
  8 10  1  0
  8 11  1  0
 12 16  1  0
 16 17  2  0
 17 19  1  0
 19 21  2  0
 21 23  1  0
 23 25  2  0
 25 16  1  0
 12 13  1  0
 12 14  1  0
 12 15  1  0
 17 18  1  0
 19 20  1  0
 21 22  1  0
 23 24  1  0
 25 26  1  0
M  CHG  1   8   1
M  END
>  <PDB_ID>  (3196) 
pdb5jri

>  <RESIDUE_NAME>  (3196) 
LYS   PHE

>  <FRAG_NAME>  (3196) 
ETAM   MBZ

>  <FRAG_ATOM_NUM>  (3196) 
fragi: 11  fragj: 15

>  <atom.prop.CHAIN_ID>  (3196) 
A A A A A A A A A A A Z Z Z Z Z Z Z Z Z Z Z Z Z Z Z

>  <atom.prop.IS_HEAVY_ATOM>  (3196) 
1 0 0 0 1 0 0 1 0 0 0 1 0 0 0 1 1 0 1 0 1 0 1 0 1 0

>  <DIFUSE_FUNC_ATOM>  (3196) 
n/a

>  <FINAL_SINGLE_POINT_ENERGY>  (3196) 
0

>  <NONCOV_INTER_ENERGY_QM>  (3196) 
0

>  <FF_Energy>  (3196) 
-5.72

>  <QM_Energy>  (3196) 
-11.0

>  <source>  (3196) 
ETAM_MBZ

>  <Index>  (3196) 
34964

$$$$
ETAM-pdb6mgg-B-LYS-9:MBZ-pdb6mgg-B-PHE-99
     RDKit          3D

 26 25  0  0  0  0  0  0  0  0999 V2000
    4.1021   -1.7539   -2.6961 C   0  0  0  0  0  0  0  0  0  0  0  0
    3.3552   -2.1330   -2.1464 H   0  0  0  0  0  0  0  0  0  0  0  0
    4.6330   -1.1146   -2.1378 H   0  0  0  0  0  0  0  0  0  0  0  0
    4.7533   -2.5696   -3.0101 H   0  0  0  0  0  0  0  0  0  0  0  0
    3.5140   -1.0062   -3.8621 C   0  0  0  0  0  0  0  0  0  0  0  0
    4.2165   -0.4649   -4.2945 H   0  0  0  0  0  0  0  0  0  0  0  0
    3.1075   -1.6464   -4.4932 H   0  0  0  0  0  0  0  0  0  0  0  0
    2.4661   -0.1141   -3.3190 N   0  0  0  0  0  4  0  0  0  0  0  0
    1.8535   -0.6375   -2.7252 H   0  0  0  0  0  0  0  0  0  0  0  0
    2.8916    0.6208   -2.7891 H   0  0  0  0  0  0  0  0  0  0  0  0
    1.9389    0.2829   -4.0717 H   0  0  0  0  0  0  0  0  0  0  0  0
   -0.0337    2.9041    0.0597 C   0  0  0  0  0  0  0  0  0  0  0  0
   -0.8750    3.2121   -0.3345 H   0  0  0  0  0  0  0  0  0  0  0  0
    0.7564    3.2462   -0.4057 H   0  0  0  0  0  0  0  0  0  0  0  0
    0.0034    3.2627    1.0884 H   0  0  0  0  0  0  0  0  0  0  0  0
   -0.0041    1.3954   -0.0106 C   0  0  0  0  0  0  0  0  0  0  0  0
   -1.1939    0.6798    0.0366 C   0  0  0  0  0  0  0  0  0  0  0  0
   -2.0614    1.1689    0.0967 H   0  0  0  0  0  0  0  0  0  0  0  0
   -1.1928   -0.7006    0.0000 C   0  0  0  0  0  0  0  0  0  0  0  0
   -2.0701   -1.1977   -0.0191 H   0  0  0  0  0  0  0  0  0  0  0  0
   -0.0005   -1.3788   -0.0082 C   0  0  0  0  0  0  0  0  0  0  0  0
   -0.0005   -2.3869   -0.0204 H   0  0  0  0  0  0  0  0  0  0  0  0
    1.1928   -0.6944   -0.0000 C   0  0  0  0  0  0  0  0  0  0  0  0
    2.0772   -1.1924    0.0208 H   0  0  0  0  0  0  0  0  0  0  0  0
    1.1984    0.6985   -0.0178 C   0  0  0  0  0  0  0  0  0  0  0  0
    2.0608    1.1907   -0.0361 H   0  0  0  0  0  0  0  0  0  0  0  0
  1  5  1  0
  5  8  1  0
  1  2  1  0
  1  3  1  0
  1  4  1  0
  5  6  1  0
  5  7  1  0
  8  9  1  0
  8 10  1  0
  8 11  1  0
 12 16  1  0
 16 17  2  0
 17 19  1  0
 19 21  2  0
 21 23  1  0
 23 25  2  0
 25 16  1  0
 12 13  1  0
 12 14  1  0
 12 15  1  0
 17 18  1  0
 19 20  1  0
 21 22  1  0
 23 24  1  0
 25 26  1  0
M  CHG  1   8   1
M  END
>  <PDB_ID>  (3197) 
pdb6mgg

>  <RESIDUE_NAME>  (3197) 
LYS   PHE

>  <FRAG_NAME>  (3197) 
ETAM   MBZ

>  <FRAG_ATOM_NUM>  (3197) 
fragi: 11  fragj: 15

>  <atom.prop.CHAIN_ID>  (3197) 
A A A A A A A A A A A Z Z Z Z Z Z Z Z Z Z Z Z Z Z Z

>  <atom.prop.IS_HEAVY_ATOM>  (3197) 
1 0 0 0 1 0 0 1 0 0 0 1 0 0 0 1 1 0 1 0 1 0 1 0 1 0

>  <DIFUSE_FUNC_ATOM>  (3197) 
n/a

>  <FINAL_SINGLE_POINT_ENERGY>  (3197) 
0

>  <NONCOV_INTER_ENERGY_QM>  (3197) 
0

>  <FF_Energy>  (3197) 
-4.42

>  <QM_Energy>  (3197) 
-9.77

>  <source>  (3197) 
ETAM_MBZ

>  <Index>  (3197) 
34978

$$$$
ETAM-pdb5juf-A-LYS-4:MBZ-pdb5juf-A-PHE-112
     RDKit          3D

 26 25  0  0  0  0  0  0  0  0999 V2000
    2.9391   -2.2110    4.8741 C   0  0  0  0  0  0  0  0  0  0  0  0
    3.4682   -2.1572    4.0420 H   0  0  0  0  0  0  0  0  0  0  0  0
    2.4157   -3.0469    4.9192 H   0  0  0  0  0  0  0  0  0  0  0  0
    3.6112   -2.1604    5.7308 H   0  0  0  0  0  0  0  0  0  0  0  0
    1.9452   -1.0218    4.8879 C   0  0  0  0  0  0  0  0  0  0  0  0
    1.2709   -1.1791    5.6129 H   0  0  0  0  0  0  0  0  0  0  0  0
    2.4553   -0.1825    5.0920 H   0  0  0  0  0  0  0  0  0  0  0  0
    1.2165   -0.8442    3.5716 N   0  0  0  0  0  4  0  0  0  0  0  0
    1.0406    0.1256    3.4334 H   0  0  0  0  0  0  0  0  0  0  0  0
    1.7901   -1.1986    2.8402 H   0  0  0  0  0  0  0  0  0  0  0  0
    0.3595   -1.3478    3.6117 H   0  0  0  0  0  0  0  0  0  0  0  0
   -0.0038    2.9083    0.0251 C   0  0  0  0  0  0  0  0  0  0  0  0
   -0.7268    3.2251   -0.5618 H   0  0  0  0  0  0  0  0  0  0  0  0
    0.8795    3.2231   -0.2709 H   0  0  0  0  0  0  0  0  0  0  0  0
   -0.1834    3.3060    1.0239 H   0  0  0  0  0  0  0  0  0  0  0  0
   -0.0001    1.4043   -0.0077 C   0  0  0  0  0  0  0  0  0  0  0  0
   -1.1930    0.7047    0.0038 C   0  0  0  0  0  0  0  0  0  0  0  0
   -2.0607    1.1899    0.0135 H   0  0  0  0  0  0  0  0  0  0  0  0
   -1.1994   -0.6950   -0.0000 C   0  0  0  0  0  0  0  0  0  0  0  0
   -2.0788   -1.1825   -0.0018 H   0  0  0  0  0  0  0  0  0  0  0  0
   -0.0006   -1.3977    0.0011 C   0  0  0  0  0  0  0  0  0  0  0  0
   -0.0118   -2.3963    0.0025 H   0  0  0  0  0  0  0  0  0  0  0  0
    1.1994   -0.7085   -0.0000 C   0  0  0  0  0  0  0  0  0  0  0  0
    2.0805   -1.2007   -0.0015 H   0  0  0  0  0  0  0  0  0  0  0  0
    1.1937    0.6922    0.0028 C   0  0  0  0  0  0  0  0  0  0  0  0
    2.0646    1.1833    0.0120 H   0  0  0  0  0  0  0  0  0  0  0  0
  1  5  1  0
  5  8  1  0
  1  2  1  0
  1  3  1  0
  1  4  1  0
  5  6  1  0
  5  7  1  0
  8  9  1  0
  8 10  1  0
  8 11  1  0
 12 16  1  0
 16 17  2  0
 17 19  1  0
 19 21  2  0
 21 23  1  0
 23 25  2  0
 25 16  1  0
 12 13  1  0
 12 14  1  0
 12 15  1  0
 17 18  1  0
 19 20  1  0
 21 22  1  0
 23 24  1  0
 25 26  1  0
M  CHG  1   8   1
M  END
>  <PDB_ID>  (3198) 
pdb5juf

>  <RESIDUE_NAME>  (3198) 
LYS   PHE

>  <FRAG_NAME>  (3198) 
ETAM   MBZ

>  <FRAG_ATOM_NUM>  (3198) 
fragi: 11  fragj: 15

>  <atom.prop.CHAIN_ID>  (3198) 
A A A A A A A A A A A Z Z Z Z Z Z Z Z Z Z Z Z Z Z Z

>  <atom.prop.IS_HEAVY_ATOM>  (3198) 
1 0 0 0 1 0 0 1 0 0 0 1 0 0 0 1 1 0 1 0 1 0 1 0 1 0

>  <DIFUSE_FUNC_ATOM>  (3198) 
n/a

>  <FINAL_SINGLE_POINT_ENERGY>  (3198) 
0

>  <NONCOV_INTER_ENERGY_QM>  (3198) 
0

>  <FF_Energy>  (3198) 
-5.21

>  <QM_Energy>  (3198) 
-10.25

>  <source>  (3198) 
ETAM_MBZ

>  <Index>  (3198) 
34989

$$$$
ETAM-pdb6kz8-B-LYS-259:MBZ-pdb6kz8-B-PHE-298
     RDKit          3D

 26 25  0  0  0  0  0  0  0  0999 V2000
    2.8744   -2.2801    2.4860 C   0  0  0  0  0  0  0  0  0  0  0  0
    2.7411   -1.5601    1.8082 H   0  0  0  0  0  0  0  0  0  0  0  0
    2.5043   -3.1408    2.1430 H   0  0  0  0  0  0  0  0  0  0  0  0
    3.9434   -2.4027    2.6603 H   0  0  0  0  0  0  0  0  0  0  0  0
    2.1693   -1.9087    3.7412 C   0  0  0  0  0  0  0  0  0  0  0  0
    2.5335   -2.4317    4.5021 H   0  0  0  0  0  0  0  0  0  0  0  0
    2.2667   -0.9350    3.9092 H   0  0  0  0  0  0  0  0  0  0  0  0
    0.7309   -2.2302    3.5765 N   0  0  0  0  0  4  0  0  0  0  0  0
    0.5809   -2.6398    2.6764 H   0  0  0  0  0  0  0  0  0  0  0  0
    0.4487   -2.8755    4.2874 H   0  0  0  0  0  0  0  0  0  0  0  0
    0.1901   -1.3920    3.6548 H   0  0  0  0  0  0  0  0  0  0  0  0
    0.0034    2.9016    0.0002 C   0  0  0  0  0  0  0  0  0  0  0  0
   -0.8699    3.2058   -0.3511 H   0  0  0  0  0  0  0  0  0  0  0  0
    0.7470    3.2018   -0.5792 H   0  0  0  0  0  0  0  0  0  0  0  0
    0.1433    3.3524    0.9827 H   0  0  0  0  0  0  0  0  0  0  0  0
   -0.0001    1.3899    0.0047 C   0  0  0  0  0  0  0  0  0  0  0  0
   -1.1821    0.6909   -0.0027 C   0  0  0  0  0  0  0  0  0  0  0  0
   -2.0536    1.1810   -0.0114 H   0  0  0  0  0  0  0  0  0  0  0  0
   -1.1829   -0.6838    0.0000 C   0  0  0  0  0  0  0  0  0  0  0  0
   -2.0673   -1.1805    0.0005 H   0  0  0  0  0  0  0  0  0  0  0  0
    0.0006   -1.3772    0.0032 C   0  0  0  0  0  0  0  0  0  0  0  0
   -0.0097   -2.3814    0.0073 H   0  0  0  0  0  0  0  0  0  0  0  0
    1.1829   -0.6947   -0.0000 C   0  0  0  0  0  0  0  0  0  0  0  0
    2.0699   -1.1972    0.0025 H   0  0  0  0  0  0  0  0  0  0  0  0
    1.1816    0.6748   -0.0052 C   0  0  0  0  0  0  0  0  0  0  0  0
    2.0570    1.1747   -0.0168 H   0  0  0  0  0  0  0  0  0  0  0  0
  1  5  1  0
  5  8  1  0
  1  2  1  0
  1  3  1  0
  1  4  1  0
  5  6  1  0
  5  7  1  0
  8  9  1  0
  8 10  1  0
  8 11  1  0
 12 16  1  0
 16 17  2  0
 17 19  1  0
 19 21  2  0
 21 23  1  0
 23 25  2  0
 25 16  1  0
 12 13  1  0
 12 14  1  0
 12 15  1  0
 17 18  1  0
 19 20  1  0
 21 22  1  0
 23 24  1  0
 25 26  1  0
M  CHG  1   8   1
M  END
>  <PDB_ID>  (3199) 
pdb6kz8

>  <RESIDUE_NAME>  (3199) 
LYS   PHE

>  <FRAG_NAME>  (3199) 
ETAM   MBZ

>  <FRAG_ATOM_NUM>  (3199) 
fragi: 11  fragj: 15

>  <atom.prop.CHAIN_ID>  (3199) 
A A A A A A A A A A A Z Z Z Z Z Z Z Z Z Z Z Z Z Z Z

>  <atom.prop.IS_HEAVY_ATOM>  (3199) 
1 0 0 0 1 0 0 1 0 0 0 1 0 0 0 1 1 0 1 0 1 0 1 0 1 0

>  <DIFUSE_FUNC_ATOM>  (3199) 
n/a

>  <FINAL_SINGLE_POINT_ENERGY>  (3199) 
0

>  <NONCOV_INTER_ENERGY_QM>  (3199) 
0

>  <FF_Energy>  (3199) 
-2.25

>  <QM_Energy>  (3199) 
-7.57

>  <source>  (3199) 
ETAM_MBZ

>  <Index>  (3199) 
34999

$$$$
ETAM-pdb5jvo-B-LYS-86:MBZ-pdb5jvo-B-PHE-120
     RDKit          3D

 26 25  0  0  0  0  0  0  0  0999 V2000
    2.9052   -4.9230   -3.5417 C   0  0  0  0  0  0  0  0  0  0  0  0
    2.4855   -5.8229   -3.4650 H   0  0  0  0  0  0  0  0  0  0  0  0
    2.7382   -4.5454   -4.4486 H   0  0  0  0  0  0  0  0  0  0  0  0
    3.9816   -5.0381   -3.4143 H   0  0  0  0  0  0  0  0  0  0  0  0
    2.2331   -3.9913   -2.5048 C   0  0  0  0  0  0  0  0  0  0  0  0
    2.5104   -4.2795   -1.5895 H   0  0  0  0  0  0  0  0  0  0  0  0
    2.5876   -2.9773   -2.6893 H   0  0  0  0  0  0  0  0  0  0  0  0
    0.7441   -4.0131   -2.5661 N   0  0  0  0  0  4  0  0  0  0  0  0
    0.4437   -3.5387   -3.3895 H   0  0  0  0  0  0  0  0  0  0  0  0
    0.4319   -4.9600   -2.5891 H   0  0  0  0  0  0  0  0  0  0  0  0
    0.3769   -3.5564   -1.7604 H   0  0  0  0  0  0  0  0  0  0  0  0
   -0.0266    2.8819    0.1649 C   0  0  0  0  0  0  0  0  0  0  0  0
   -0.8129    3.2497   -0.2826 H   0  0  0  0  0  0  0  0  0  0  0  0
    0.8154    3.2574   -0.1589 H   0  0  0  0  0  0  0  0  0  0  0  0
   -0.1079    3.1343    1.2221 H   0  0  0  0  0  0  0  0  0  0  0  0
   -0.0056    1.4134   -0.0213 C   0  0  0  0  0  0  0  0  0  0  0  0
   -1.1807    0.7084    0.0342 C   0  0  0  0  0  0  0  0  0  0  0  0
   -2.0590    1.1969    0.1005 H   0  0  0  0  0  0  0  0  0  0  0  0
   -1.2148   -0.6959    0.0000 C   0  0  0  0  0  0  0  0  0  0  0  0
   -2.0896   -1.1732    0.0062 H   0  0  0  0  0  0  0  0  0  0  0  0
   -0.0048   -1.4184   -0.0415 C   0  0  0  0  0  0  0  0  0  0  0  0
   -0.0162   -2.4032   -0.0997 H   0  0  0  0  0  0  0  0  0  0  0  0
    1.2148   -0.7136    0.0000 C   0  0  0  0  0  0  0  0  0  0  0  0
    2.0886   -1.1962    0.0110 H   0  0  0  0  0  0  0  0  0  0  0  0
    1.1911    0.7060    0.0287 C   0  0  0  0  0  0  0  0  0  0  0  0
    2.0611    1.1960    0.0855 H   0  0  0  0  0  0  0  0  0  0  0  0
  1  5  1  0
  5  8  1  0
  1  2  1  0
  1  3  1  0
  1  4  1  0
  5  6  1  0
  5  7  1  0
  8  9  1  0
  8 10  1  0
  8 11  1  0
 12 16  1  0
 16 17  2  0
 17 19  1  0
 19 21  2  0
 21 23  1  0
 23 25  2  0
 25 16  1  0
 12 13  1  0
 12 14  1  0
 12 15  1  0
 17 18  1  0
 19 20  1  0
 21 22  1  0
 23 24  1  0
 25 26  1  0
M  CHG  1   8   1
M  END
>  <PDB_ID>  (3200) 
pdb5jvo

>  <RESIDUE_NAME>  (3200) 
LYS   PHE

>  <FRAG_NAME>  (3200) 
ETAM   MBZ

>  <FRAG_ATOM_NUM>  (3200) 
fragi: 11  fragj: 15

>  <atom.prop.CHAIN_ID>  (3200) 
A A A A A A A A A A A Z Z Z Z Z Z Z Z Z Z Z Z Z Z Z

>  <atom.prop.IS_HEAVY_ATOM>  (3200) 
1 0 0 0 1 0 0 1 0 0 0 1 0 0 0 1 1 0 1 0 1 0 1 0 1 0

>  <DIFUSE_FUNC_ATOM>  (3200) 
n/a

>  <FINAL_SINGLE_POINT_ENERGY>  (3200) 
0

>  <NONCOV_INTER_ENERGY_QM>  (3200) 
0

>  <FF_Energy>  (3200) 
-0.59

>  <QM_Energy>  (3200) 
-5.8

>  <source>  (3200) 
ETAM_MBZ

>  <Index>  (3200) 
35003

$$$$
ETAM-pdb5jvr-B-LYS-38:MBZ-pdb5jvr-B-PHE-34
     RDKit          3D

 26 25  0  0  0  0  0  0  0  0999 V2000
   -0.4281   -0.8669   -4.7825 C   0  0  0  0  0  0  0  0  0  0  0  0
   -1.1119   -0.1473   -4.8592 H   0  0  0  0  0  0  0  0  0  0  0  0
   -0.6060   -1.5833   -5.4508 H   0  0  0  0  0  0  0  0  0  0  0  0
    0.5557   -0.4400   -4.9774 H   0  0  0  0  0  0  0  0  0  0  0  0
   -0.5089   -1.4667   -3.3942 C   0  0  0  0  0  0  0  0  0  0  0  0
   -0.3913   -0.7364   -2.7141 H   0  0  0  0  0  0  0  0  0  0  0  0
   -1.4178   -1.8783   -3.2671 H   0  0  0  0  0  0  0  0  0  0  0  0
    0.5309   -2.5085   -3.1723 N   0  0  0  0  0  4  0  0  0  0  0  0
    1.4078   -2.0668   -2.9842 H   0  0  0  0  0  0  0  0  0  0  0  0
    0.2685   -3.0779   -2.3935 H   0  0  0  0  0  0  0  0  0  0  0  0
    0.6108   -3.0771   -3.9909 H   0  0  0  0  0  0  0  0  0  0  0  0
   -0.0079    2.8934    0.0101 C   0  0  0  0  0  0  0  0  0  0  0  0
    0.2661    3.1950    0.9132 H   0  0  0  0  0  0  0  0  0  0  0  0
   -0.9268    3.1983   -0.2017 H   0  0  0  0  0  0  0  0  0  0  0  0
    0.6679    3.3519   -0.7117 H   0  0  0  0  0  0  0  0  0  0  0  0
    0.0002    1.3936   -0.0025 C   0  0  0  0  0  0  0  0  0  0  0  0
   -1.1915    0.6864   -0.0006 C   0  0  0  0  0  0  0  0  0  0  0  0
   -2.0599    1.1789   -0.0011 H   0  0  0  0  0  0  0  0  0  0  0  0
   -1.1948   -0.6935   -0.0000 C   0  0  0  0  0  0  0  0  0  0  0  0
   -2.0734   -1.1903    0.0005 H   0  0  0  0  0  0  0  0  0  0  0  0
   -0.0003   -1.3842    0.0015 C   0  0  0  0  0  0  0  0  0  0  0  0
   -0.0036   -2.3858    0.0031 H   0  0  0  0  0  0  0  0  0  0  0  0
    1.1948   -0.6921    0.0000 C   0  0  0  0  0  0  0  0  0  0  0  0
    2.0781   -1.1922   -0.0008 H   0  0  0  0  0  0  0  0  0  0  0  0
    1.1916    0.6898    0.0015 C   0  0  0  0  0  0  0  0  0  0  0  0
    2.0608    1.1878    0.0043 H   0  0  0  0  0  0  0  0  0  0  0  0
  1  5  1  0
  5  8  1  0
  1  2  1  0
  1  3  1  0
  1  4  1  0
  5  6  1  0
  5  7  1  0
  8  9  1  0
  8 10  1  0
  8 11  1  0
 12 16  1  0
 16 17  2  0
 17 19  1  0
 19 21  2  0
 21 23  1  0
 23 25  2  0
 25 16  1  0
 12 13  1  0
 12 14  1  0
 12 15  1  0
 17 18  1  0
 19 20  1  0
 21 22  1  0
 23 24  1  0
 25 26  1  0
M  CHG  1   8   1
M  END
>  <PDB_ID>  (3201) 
pdb5jvr

>  <RESIDUE_NAME>  (3201) 
LYS   PHE

>  <FRAG_NAME>  (3201) 
ETAM   MBZ

>  <FRAG_ATOM_NUM>  (3201) 
fragi: 11  fragj: 15

>  <atom.prop.CHAIN_ID>  (3201) 
A A A A A A A A A A A Z Z Z Z Z Z Z Z Z Z Z Z Z Z Z

>  <atom.prop.IS_HEAVY_ATOM>  (3201) 
1 0 0 0 1 0 0 1 0 0 0 1 0 0 0 1 1 0 1 0 1 0 1 0 1 0

>  <DIFUSE_FUNC_ATOM>  (3201) 
n/a

>  <FINAL_SINGLE_POINT_ENERGY>  (3201) 
0

>  <NONCOV_INTER_ENERGY_QM>  (3201) 
0

>  <FF_Energy>  (3201) 
-4.15

>  <QM_Energy>  (3201) 
-10.46

>  <source>  (3201) 
ETAM_MBZ

>  <Index>  (3201) 
35009

$$$$
ETAM-pdb5jvr-F-LYS-38:MBZ-pdb5jvr-F-PHE-34
     RDKit          3D

 26 25  0  0  0  0  0  0  0  0999 V2000
    1.6793   -1.6305    4.3272 C   0  0  0  0  0  0  0  0  0  0  0  0
    2.3556   -0.9718    4.0178 H   0  0  0  0  0  0  0  0  0  0  0  0
    2.0807   -2.2643    4.9786 H   0  0  0  0  0  0  0  0  0  0  0  0
    0.8611   -1.0963    4.8103 H   0  0  0  0  0  0  0  0  0  0  0  0
    1.1825   -2.4174    3.1267 C   0  0  0  0  0  0  0  0  0  0  0  0
    0.4168   -3.0016    3.4150 H   0  0  0  0  0  0  0  0  0  0  0  0
    0.8499   -1.7735    2.4299 H   0  0  0  0  0  0  0  0  0  0  0  0
    2.2491   -3.2684    2.5346 N   0  0  0  0  0  4  0  0  0  0  0  0
    2.8633   -3.5827    3.2584 H   0  0  0  0  0  0  0  0  0  0  0  0
    1.8323   -4.0572    2.0837 H   0  0  0  0  0  0  0  0  0  0  0  0
    2.7660   -2.7351    1.8653 H   0  0  0  0  0  0  0  0  0  0  0  0
    0.0015    2.8964   -0.0053 C   0  0  0  0  0  0  0  0  0  0  0  0
   -0.5764    3.1987   -0.7503 H   0  0  0  0  0  0  0  0  0  0  0  0
    0.9345    3.2013   -0.1306 H   0  0  0  0  0  0  0  0  0  0  0  0
   -0.3756    3.3460    0.9132 H   0  0  0  0  0  0  0  0  0  0  0  0
    0.0001    1.3952    0.0041 C   0  0  0  0  0  0  0  0  0  0  0  0
   -1.1915    0.6886   -0.0027 C   0  0  0  0  0  0  0  0  0  0  0  0
   -2.0597    1.1813   -0.0109 H   0  0  0  0  0  0  0  0  0  0  0  0
   -1.1955   -0.6932    0.0000 C   0  0  0  0  0  0  0  0  0  0  0  0
   -2.0738   -1.1893    0.0040 H   0  0  0  0  0  0  0  0  0  0  0  0
   -0.0006   -1.3855   -0.0010 C   0  0  0  0  0  0  0  0  0  0  0  0
   -0.0047   -2.3865   -0.0028 H   0  0  0  0  0  0  0  0  0  0  0  0
    1.1955   -0.6937   -0.0000 C   0  0  0  0  0  0  0  0  0  0  0  0
    2.0777   -1.1938    0.0020 H   0  0  0  0  0  0  0  0  0  0  0  0
    1.1920    0.6886   -0.0004 C   0  0  0  0  0  0  0  0  0  0  0  0
    2.0621    1.1870   -0.0051 H   0  0  0  0  0  0  0  0  0  0  0  0
  1  5  1  0
  5  8  1  0
  1  2  1  0
  1  3  1  0
  1  4  1  0
  5  6  1  0
  5  7  1  0
  8  9  1  0
  8 10  1  0
  8 11  1  0
 12 16  1  0
 16 17  2  0
 17 19  1  0
 19 21  2  0
 21 23  1  0
 23 25  2  0
 25 16  1  0
 12 13  1  0
 12 14  1  0
 12 15  1  0
 17 18  1  0
 19 20  1  0
 21 22  1  0
 23 24  1  0
 25 26  1  0
M  CHG  1   8   1
M  END
>  <PDB_ID>  (3202) 
pdb5jvr

>  <RESIDUE_NAME>  (3202) 
LYS   PHE

>  <FRAG_NAME>  (3202) 
ETAM   MBZ

>  <FRAG_ATOM_NUM>  (3202) 
fragi: 11  fragj: 15

>  <atom.prop.CHAIN_ID>  (3202) 
A A A A A A A A A A A Z Z Z Z Z Z Z Z Z Z Z Z Z Z Z

>  <atom.prop.IS_HEAVY_ATOM>  (3202) 
1 0 0 0 1 0 0 1 0 0 0 1 0 0 0 1 1 0 1 0 1 0 1 0 1 0

>  <DIFUSE_FUNC_ATOM>  (3202) 
n/a

>  <FINAL_SINGLE_POINT_ENERGY>  (3202) 
0

>  <NONCOV_INTER_ENERGY_QM>  (3202) 
0

>  <FF_Energy>  (3202) 
-1.06

>  <QM_Energy>  (3202) 
-6.56

>  <source>  (3202) 
ETAM_MBZ

>  <Index>  (3202) 
35014

$$$$
ETAM-pdb5jvr-H-LYS-38:MBZ-pdb5jvr-H-PHE-34
     RDKit          3D

 26 25  0  0  0  0  0  0  0  0999 V2000
   -1.1524   -1.4505   -4.5801 C   0  0  0  0  0  0  0  0  0  0  0  0
   -1.8780   -0.7942   -4.4050 H   0  0  0  0  0  0  0  0  0  0  0  0
   -1.4583   -2.1429   -5.2250 H   0  0  0  0  0  0  0  0  0  0  0  0
   -0.2957   -0.9262   -5.0034 H   0  0  0  0  0  0  0  0  0  0  0  0
   -0.7883   -2.1314   -3.2728 C   0  0  0  0  0  0  0  0  0  0  0  0
    0.0005   -2.7337   -3.4269 H   0  0  0  0  0  0  0  0  0  0  0  0
   -0.5330   -1.4308   -2.6003 H   0  0  0  0  0  0  0  0  0  0  0  0
   -1.9173   -2.9380   -2.7309 N   0  0  0  0  0  4  0  0  0  0  0  0
   -2.4362   -2.3853   -2.0799 H   0  0  0  0  0  0  0  0  0  0  0  0
   -2.5133   -3.2190   -3.4823 H   0  0  0  0  0  0  0  0  0  0  0  0
   -1.5549   -3.7464   -2.2697 H   0  0  0  0  0  0  0  0  0  0  0  0
   -0.0018    2.8934    0.0017 C   0  0  0  0  0  0  0  0  0  0  0  0
    0.5289    3.2000    0.7787 H   0  0  0  0  0  0  0  0  0  0  0  0
   -0.9411    3.1994    0.0686 H   0  0  0  0  0  0  0  0  0  0  0  0
    0.4306    3.3391   -0.8941 H   0  0  0  0  0  0  0  0  0  0  0  0
    0.0000    1.3938   -0.0003 C   0  0  0  0  0  0  0  0  0  0  0  0
   -1.1921    0.6875   -0.0012 C   0  0  0  0  0  0  0  0  0  0  0  0
   -2.0596    1.1803   -0.0036 H   0  0  0  0  0  0  0  0  0  0  0  0
   -1.1950   -0.6938   -0.0000 C   0  0  0  0  0  0  0  0  0  0  0  0
   -2.0732   -1.1904    0.0017 H   0  0  0  0  0  0  0  0  0  0  0  0
    0.0006   -1.3840    0.0009 C   0  0  0  0  0  0  0  0  0  0  0  0
   -0.0025   -2.3864    0.0020 H   0  0  0  0  0  0  0  0  0  0  0  0
    1.1950   -0.6924   -0.0000 C   0  0  0  0  0  0  0  0  0  0  0  0
    2.0776   -1.1926    0.0007 H   0  0  0  0  0  0  0  0  0  0  0  0
    1.1914    0.6889    0.0006 C   0  0  0  0  0  0  0  0  0  0  0  0
    2.0610    1.1874    0.0007 H   0  0  0  0  0  0  0  0  0  0  0  0
  1  5  1  0
  5  8  1  0
  1  2  1  0
  1  3  1  0
  1  4  1  0
  5  6  1  0
  5  7  1  0
  8  9  1  0
  8 10  1  0
  8 11  1  0
 12 16  1  0
 16 17  2  0
 17 19  1  0
 19 21  2  0
 21 23  1  0
 23 25  2  0
 25 16  1  0
 12 13  1  0
 12 14  1  0
 12 15  1  0
 17 18  1  0
 19 20  1  0
 21 22  1  0
 23 24  1  0
 25 26  1  0
M  CHG  1   8   1
M  END
>  <PDB_ID>  (3203) 
pdb5jvr

>  <RESIDUE_NAME>  (3203) 
LYS   PHE

>  <FRAG_NAME>  (3203) 
ETAM   MBZ

>  <FRAG_ATOM_NUM>  (3203) 
fragi: 11  fragj: 15

>  <atom.prop.CHAIN_ID>  (3203) 
A A A A A A A A A A A Z Z Z Z Z Z Z Z Z Z Z Z Z Z Z

>  <atom.prop.IS_HEAVY_ATOM>  (3203) 
1 0 0 0 1 0 0 1 0 0 0 1 0 0 0 1 1 0 1 0 1 0 1 0 1 0

>  <DIFUSE_FUNC_ATOM>  (3203) 
n/a

>  <FINAL_SINGLE_POINT_ENERGY>  (3203) 
0

>  <NONCOV_INTER_ENERGY_QM>  (3203) 
0

>  <FF_Energy>  (3203) 
-2.07

>  <QM_Energy>  (3203) 
-8.03

>  <source>  (3203) 
ETAM_MBZ

>  <Index>  (3203) 
35016

$$$$
ETAM-pdb5jjt-B-LYS-120:MBZ-pdb5jjt-B-PHE-483
     RDKit          3D

 26 25  0  0  0  0  0  0  0  0999 V2000
    0.3666   -3.4542    2.8148 C   0  0  0  0  0  0  0  0  0  0  0  0
    1.1126   -3.9489    3.2350 H   0  0  0  0  0  0  0  0  0  0  0  0
    0.5512   -3.2657    1.8617 H   0  0  0  0  0  0  0  0  0  0  0  0
   -0.5458   -4.0452    2.8942 H   0  0  0  0  0  0  0  0  0  0  0  0
    0.1949   -2.1249    3.5466 C   0  0  0  0  0  0  0  0  0  0  0  0
   -0.5168   -1.5878    3.0756 H   0  0  0  0  0  0  0  0  0  0  0  0
   -0.1230   -2.3129    4.4847 H   0  0  0  0  0  0  0  0  0  0  0  0
    1.4492   -1.3278    3.6067 N   0  0  0  0  0  4  0  0  0  0  0  0
    1.6516   -0.9590    2.6998 H   0  0  0  0  0  0  0  0  0  0  0  0
    1.3344   -0.5761    4.2553 H   0  0  0  0  0  0  0  0  0  0  0  0
    2.2011   -1.9145    3.9051 H   0  0  0  0  0  0  0  0  0  0  0  0
    0.0022    2.9000    0.0091 C   0  0  0  0  0  0  0  0  0  0  0  0
   -0.7155    3.2096   -0.5950 H   0  0  0  0  0  0  0  0  0  0  0  0
    0.8898    3.2067   -0.2986 H   0  0  0  0  0  0  0  0  0  0  0  0
   -0.1786    3.3347    0.9922 H   0  0  0  0  0  0  0  0  0  0  0  0
    0.0004    1.3959    0.0022 C   0  0  0  0  0  0  0  0  0  0  0  0
   -1.1919    0.6892   -0.0014 C   0  0  0  0  0  0  0  0  0  0  0  0
   -2.0603    1.1805   -0.0060 H   0  0  0  0  0  0  0  0  0  0  0  0
   -1.1944   -0.6943   -0.0000 C   0  0  0  0  0  0  0  0  0  0  0  0
   -2.0732   -1.1896    0.0057 H   0  0  0  0  0  0  0  0  0  0  0  0
    0.0002   -1.3861   -0.0042 C   0  0  0  0  0  0  0  0  0  0  0  0
   -0.0039   -2.3877   -0.0107 H   0  0  0  0  0  0  0  0  0  0  0  0
    1.1944   -0.6937    0.0000 C   0  0  0  0  0  0  0  0  0  0  0  0
    2.0783   -1.1928    0.0021 H   0  0  0  0  0  0  0  0  0  0  0  0
    1.1913    0.6891    0.0034 C   0  0  0  0  0  0  0  0  0  0  0  0
    2.0612    1.1861    0.0062 H   0  0  0  0  0  0  0  0  0  0  0  0
  1  5  1  0
  5  8  1  0
  1  2  1  0
  1  3  1  0
  1  4  1  0
  5  6  1  0
  5  7  1  0
  8  9  1  0
  8 10  1  0
  8 11  1  0
 12 16  1  0
 16 17  2  0
 17 19  1  0
 19 21  2  0
 21 23  1  0
 23 25  2  0
 25 16  1  0
 12 13  1  0
 12 14  1  0
 12 15  1  0
 17 18  1  0
 19 20  1  0
 21 22  1  0
 23 24  1  0
 25 26  1  0
M  CHG  1   8   1
M  END
>  <PDB_ID>  (3204) 
pdb5jjt

>  <RESIDUE_NAME>  (3204) 
LYS   PHE

>  <FRAG_NAME>  (3204) 
ETAM   MBZ

>  <FRAG_ATOM_NUM>  (3204) 
fragi: 11  fragj: 15

>  <atom.prop.CHAIN_ID>  (3204) 
A A A A A A A A A A A Z Z Z Z Z Z Z Z Z Z Z Z Z Z Z

>  <atom.prop.IS_HEAVY_ATOM>  (3204) 
1 0 0 0 1 0 0 1 0 0 0 1 0 0 0 1 1 0 1 0 1 0 1 0 1 0

>  <DIFUSE_FUNC_ATOM>  (3204) 
n/a

>  <FINAL_SINGLE_POINT_ENERGY>  (3204) 
0

>  <NONCOV_INTER_ENERGY_QM>  (3204) 
0

>  <FF_Energy>  (3204) 
-4.83

>  <QM_Energy>  (3204) 
-10.91

>  <source>  (3204) 
ETAM_MBZ

>  <Index>  (3204) 
35017

$$$$
ETAM-pdb5ju6-C-LYS-634:MBZ-pdb5ju6-C-PHE-626
     RDKit          3D

 26 25  0  0  0  0  0  0  0  0999 V2000
   -0.4309    0.2121    3.4073 C   0  0  0  0  0  0  0  0  0  0  0  0
   -0.2279   -0.1741    2.5193 H   0  0  0  0  0  0  0  0  0  0  0  0
   -0.5523    1.1918    3.3540 H   0  0  0  0  0  0  0  0  0  0  0  0
   -1.3503   -0.2371    3.7829 H   0  0  0  0  0  0  0  0  0  0  0  0
    0.7455   -0.0820    4.3484 C   0  0  0  0  0  0  0  0  0  0  0  0
    0.6173    0.4581    5.1950 H   0  0  0  0  0  0  0  0  0  0  0  0
    0.7102   -1.0611    4.6038 H   0  0  0  0  0  0  0  0  0  0  0  0
    2.0765    0.2254    3.7677 N   0  0  0  0  0  4  0  0  0  0  0  0
    2.7716   -0.3421    4.2081 H   0  0  0  0  0  0  0  0  0  0  0  0
    2.0646    0.0351    2.7857 H   0  0  0  0  0  0  0  0  0  0  0  0
    2.2905    1.1908    3.9169 H   0  0  0  0  0  0  0  0  0  0  0  0
   -0.0220    2.8855   -0.0531 C   0  0  0  0  0  0  0  0  0  0  0  0
    0.8601    3.2235    0.2022 H   0  0  0  0  0  0  0  0  0  0  0  0
   -0.7409    3.2141    0.5240 H   0  0  0  0  0  0  0  0  0  0  0  0
   -0.2279    3.2293   -1.0668 H   0  0  0  0  0  0  0  0  0  0  0  0
    0.0012    1.3918    0.0207 C   0  0  0  0  0  0  0  0  0  0  0  0
   -1.1959    0.6886   -0.0013 C   0  0  0  0  0  0  0  0  0  0  0  0
   -2.0582    1.1880   -0.0190 H   0  0  0  0  0  0  0  0  0  0  0  0
   -1.1957   -0.6788    0.0000 C   0  0  0  0  0  0  0  0  0  0  0  0
   -2.0750   -1.1843   -0.0038 H   0  0  0  0  0  0  0  0  0  0  0  0
    0.0005   -1.3812    0.0084 C   0  0  0  0  0  0  0  0  0  0  0  0
   -0.0168   -2.3831    0.0200 H   0  0  0  0  0  0  0  0  0  0  0  0
    1.1957   -0.7021   -0.0000 C   0  0  0  0  0  0  0  0  0  0  0  0
    2.0760   -1.2018    0.0150 H   0  0  0  0  0  0  0  0  0  0  0  0
    1.1942    0.6816   -0.0278 C   0  0  0  0  0  0  0  0  0  0  0  0
    2.0612    1.1785   -0.0840 H   0  0  0  0  0  0  0  0  0  0  0  0
  1  5  1  0
  5  8  1  0
  1  2  1  0
  1  3  1  0
  1  4  1  0
  5  6  1  0
  5  7  1  0
  8  9  1  0
  8 10  1  0
  8 11  1  0
 12 16  1  0
 16 17  2  0
 17 19  1  0
 19 21  2  0
 21 23  1  0
 23 25  2  0
 25 16  1  0
 12 13  1  0
 12 14  1  0
 12 15  1  0
 17 18  1  0
 19 20  1  0
 21 22  1  0
 23 24  1  0
 25 26  1  0
M  CHG  1   8   1
M  END
>  <PDB_ID>  (3205) 
pdb5ju6

>  <RESIDUE_NAME>  (3205) 
LYS   PHE

>  <FRAG_NAME>  (3205) 
ETAM   MBZ

>  <FRAG_ATOM_NUM>  (3205) 
fragi: 11  fragj: 15

>  <atom.prop.CHAIN_ID>  (3205) 
A A A A A A A A A A A Z Z Z Z Z Z Z Z Z Z Z Z Z Z Z

>  <atom.prop.IS_HEAVY_ATOM>  (3205) 
1 0 0 0 1 0 0 1 0 0 0 1 0 0 0 1 1 0 1 0 1 0 1 0 1 0

>  <DIFUSE_FUNC_ATOM>  (3205) 
n/a

>  <FINAL_SINGLE_POINT_ENERGY>  (3205) 
0

>  <NONCOV_INTER_ENERGY_QM>  (3205) 
0

>  <FF_Energy>  (3205) 
-5.28

>  <QM_Energy>  (3205) 
-11.09

>  <source>  (3205) 
ETAM_MBZ

>  <Index>  (3205) 
35022

$$$$
ETAM-pdb5ju6-D-LYS-634:MBZ-pdb5ju6-D-PHE-626
     RDKit          3D

 26 25  0  0  0  0  0  0  0  0999 V2000
   -0.9449   -0.0429    3.9301 C   0  0  0  0  0  0  0  0  0  0  0  0
   -0.9851    0.7375    3.2926 H   0  0  0  0  0  0  0  0  0  0  0  0
   -1.0127    0.3155    4.8704 H   0  0  0  0  0  0  0  0  0  0  0  0
   -1.8060   -0.6843    3.7428 H   0  0  0  0  0  0  0  0  0  0  0  0
    0.4125   -0.7211    3.7730 C   0  0  0  0  0  0  0  0  0  0  0  0
    0.5820   -1.2922    4.5581 H   0  0  0  0  0  0  0  0  0  0  0  0
    0.4203   -1.2398    2.9342 H   0  0  0  0  0  0  0  0  0  0  0  0
    1.4538    0.3501    3.7044 N   0  0  0  0  0  4  0  0  0  0  0  0
    2.3193   -0.0108    4.0480 H   0  0  0  0  0  0  0  0  0  0  0  0
    1.5626    0.6412    2.7560 H   0  0  0  0  0  0  0  0  0  0  0  0
    1.1648    1.1242    4.2639 H   0  0  0  0  0  0  0  0  0  0  0  0
   -0.0199    2.8875   -0.0175 C   0  0  0  0  0  0  0  0  0  0  0  0
    0.8374    3.2081    0.3382 H   0  0  0  0  0  0  0  0  0  0  0  0
   -0.7863    3.1955    0.5144 H   0  0  0  0  0  0  0  0  0  0  0  0
   -0.1330    3.2675   -1.0327 H   0  0  0  0  0  0  0  0  0  0  0  0
   -0.0039    1.3868    0.0175 C   0  0  0  0  0  0  0  0  0  0  0  0
   -1.1772    0.6965   -0.0091 C   0  0  0  0  0  0  0  0  0  0  0  0
   -2.0522    1.1943   -0.0374 H   0  0  0  0  0  0  0  0  0  0  0  0
   -1.1948   -0.6726    0.0000 C   0  0  0  0  0  0  0  0  0  0  0  0
   -2.0790   -1.1662    0.0119 H   0  0  0  0  0  0  0  0  0  0  0  0
   -0.0066   -1.3866   -0.0056 C   0  0  0  0  0  0  0  0  0  0  0  0
   -0.0244   -2.3838   -0.0141 H   0  0  0  0  0  0  0  0  0  0  0  0
    1.1948   -0.7034   -0.0000 C   0  0  0  0  0  0  0  0  0  0  0  0
    2.0724   -1.2038    0.0077 H   0  0  0  0  0  0  0  0  0  0  0  0
    1.1877    0.6793   -0.0028 C   0  0  0  0  0  0  0  0  0  0  0  0
    2.0576    1.1790   -0.0207 H   0  0  0  0  0  0  0  0  0  0  0  0
  1  5  1  0
  5  8  1  0
  1  2  1  0
  1  3  1  0
  1  4  1  0
  5  6  1  0
  5  7  1  0
  8  9  1  0
  8 10  1  0
  8 11  1  0
 12 16  1  0
 16 17  2  0
 17 19  1  0
 19 21  2  0
 21 23  1  0
 23 25  2  0
 25 16  1  0
 12 13  1  0
 12 14  1  0
 12 15  1  0
 17 18  1  0
 19 20  1  0
 21 22  1  0
 23 24  1  0
 25 26  1  0
M  CHG  1   8   1
M  END
>  <PDB_ID>  (3206) 
pdb5ju6

>  <RESIDUE_NAME>  (3206) 
LYS   PHE

>  <FRAG_NAME>  (3206) 
ETAM   MBZ

>  <FRAG_ATOM_NUM>  (3206) 
fragi: 11  fragj: 15

>  <atom.prop.CHAIN_ID>  (3206) 
A A A A A A A A A A A Z Z Z Z Z Z Z Z Z Z Z Z Z Z Z

>  <atom.prop.IS_HEAVY_ATOM>  (3206) 
1 0 0 0 1 0 0 1 0 0 0 1 0 0 0 1 1 0 1 0 1 0 1 0 1 0

>  <DIFUSE_FUNC_ATOM>  (3206) 
n/a

>  <FINAL_SINGLE_POINT_ENERGY>  (3206) 
0

>  <NONCOV_INTER_ENERGY_QM>  (3206) 
0

>  <FF_Energy>  (3206) 
-7.03

>  <QM_Energy>  (3206) 
-12.6

>  <source>  (3206) 
ETAM_MBZ

>  <Index>  (3206) 
35024

$$$$
ETAM-pdb5jw6-A-LYS-218:MBZ-pdb5jw6-A-PHE-230
     RDKit          3D

 26 25  0  0  0  0  0  0  0  0999 V2000
    0.6851    0.5304    4.5114 C   0  0  0  0  0  0  0  0  0  0  0  0
    1.2082    1.3039    4.2049 H   0  0  0  0  0  0  0  0  0  0  0  0
    0.9860    0.1986    5.3861 H   0  0  0  0  0  0  0  0  0  0  0  0
   -0.3634    0.8194    4.5840 H   0  0  0  0  0  0  0  0  0  0  0  0
    0.8216   -0.5933    3.4863 C   0  0  0  0  0  0  0  0  0  0  0  0
    0.2457   -1.3738    3.7872 H   0  0  0  0  0  0  0  0  0  0  0  0
    0.4415   -0.2696    2.6019 H   0  0  0  0  0  0  0  0  0  0  0  0
    2.2117   -1.0722    3.2692 N   0  0  0  0  0  4  0  0  0  0  0  0
    2.8530   -0.3290    3.4614 H   0  0  0  0  0  0  0  0  0  0  0  0
    2.3976   -1.8412    3.8811 H   0  0  0  0  0  0  0  0  0  0  0  0
    2.3171   -1.3673    2.3200 H   0  0  0  0  0  0  0  0  0  0  0  0
   -0.0169    2.8537   -0.0938 C   0  0  0  0  0  0  0  0  0  0  0  0
    0.8819    3.2009    0.0996 H   0  0  0  0  0  0  0  0  0  0  0  0
   -0.6961    3.2099    0.5218 H   0  0  0  0  0  0  0  0  0  0  0  0
   -0.2822    3.1979   -1.0934 H   0  0  0  0  0  0  0  0  0  0  0  0
    0.0008    1.3808    0.0031 C   0  0  0  0  0  0  0  0  0  0  0  0
   -1.2024    0.6762   -0.0229 C   0  0  0  0  0  0  0  0  0  0  0  0
   -2.0611    1.1758   -0.0598 H   0  0  0  0  0  0  0  0  0  0  0  0
   -1.1989   -0.6925    0.0000 C   0  0  0  0  0  0  0  0  0  0  0  0
   -2.0726   -1.1998    0.0043 H   0  0  0  0  0  0  0  0  0  0  0  0
    0.0003   -1.3741    0.0196 C   0  0  0  0  0  0  0  0  0  0  0  0
    0.0015   -2.3786    0.0482 H   0  0  0  0  0  0  0  0  0  0  0  0
    1.1989   -0.6827    0.0000 C   0  0  0  0  0  0  0  0  0  0  0  0
    2.0795   -1.1902   -0.0128 H   0  0  0  0  0  0  0  0  0  0  0  0
    1.2012    0.6922    0.0003 C   0  0  0  0  0  0  0  0  0  0  0  0
    2.0617    1.1945   -0.0021 H   0  0  0  0  0  0  0  0  0  0  0  0
  1  5  1  0
  5  8  1  0
  1  2  1  0
  1  3  1  0
  1  4  1  0
  5  6  1  0
  5  7  1  0
  8  9  1  0
  8 10  1  0
  8 11  1  0
 12 16  1  0
 16 17  2  0
 17 19  1  0
 19 21  2  0
 21 23  1  0
 23 25  2  0
 25 16  1  0
 12 13  1  0
 12 14  1  0
 12 15  1  0
 17 18  1  0
 19 20  1  0
 21 22  1  0
 23 24  1  0
 25 26  1  0
M  CHG  1   8   1
M  END
>  <PDB_ID>  (3207) 
pdb5jw6

>  <RESIDUE_NAME>  (3207) 
LYS   PHE

>  <FRAG_NAME>  (3207) 
ETAM   MBZ

>  <FRAG_ATOM_NUM>  (3207) 
fragi: 11  fragj: 15

>  <atom.prop.CHAIN_ID>  (3207) 
A A A A A A A A A A A Z Z Z Z Z Z Z Z Z Z Z Z Z Z Z

>  <atom.prop.IS_HEAVY_ATOM>  (3207) 
1 0 0 0 1 0 0 1 0 0 0 1 0 0 0 1 1 0 1 0 1 0 1 0 1 0

>  <DIFUSE_FUNC_ATOM>  (3207) 
n/a

>  <FINAL_SINGLE_POINT_ENERGY>  (3207) 
0

>  <NONCOV_INTER_ENERGY_QM>  (3207) 
0

>  <FF_Energy>  (3207) 
-4.78

>  <QM_Energy>  (3207) 
-11.5

>  <source>  (3207) 
ETAM_MBZ

>  <Index>  (3207) 
35035

$$$$
ETAM-pdb6mn8-B-LYS-127:MBZ-pdb6mn8-B-PHE-290
     RDKit          3D

 26 25  0  0  0  0  0  0  0  0999 V2000
    1.8610   -2.8480    3.2331 C   0  0  0  0  0  0  0  0  0  0  0  0
    1.6001   -3.0140    2.2813 H   0  0  0  0  0  0  0  0  0  0  0  0
    1.4020   -2.0232    3.5638 H   0  0  0  0  0  0  0  0  0  0  0  0
    1.5357   -3.6951    3.8369 H   0  0  0  0  0  0  0  0  0  0  0  0
    3.3551   -2.6299    3.2963 C   0  0  0  0  0  0  0  0  0  0  0  0
    3.6221   -2.4586    4.2439 H   0  0  0  0  0  0  0  0  0  0  0  0
    3.8215   -3.4496    2.9621 H   0  0  0  0  0  0  0  0  0  0  0  0
    3.7506   -1.4691    2.4588 N   0  0  0  0  0  4  0  0  0  0  0  0
    4.3615   -1.7767    1.7293 H   0  0  0  0  0  0  0  0  0  0  0  0
    2.9348   -1.0538    2.0583 H   0  0  0  0  0  0  0  0  0  0  0  0
    4.2238   -0.7950    3.0274 H   0  0  0  0  0  0  0  0  0  0  0  0
    0.0125    2.9112    0.0505 C   0  0  0  0  0  0  0  0  0  0  0  0
   -0.8281    3.2407   -0.3382 H   0  0  0  0  0  0  0  0  0  0  0  0
    0.8023    3.2338   -0.4384 H   0  0  0  0  0  0  0  0  0  0  0  0
    0.0771    3.2932    1.0692 H   0  0  0  0  0  0  0  0  0  0  0  0
    0.0027    1.4101   -0.0048 C   0  0  0  0  0  0  0  0  0  0  0  0
   -1.1996    0.7044    0.0064 C   0  0  0  0  0  0  0  0  0  0  0  0
   -2.0635    1.1931    0.0178 H   0  0  0  0  0  0  0  0  0  0  0  0
   -1.2092   -0.6972    0.0000 C   0  0  0  0  0  0  0  0  0  0  0  0
   -2.0873   -1.1838    0.0022 H   0  0  0  0  0  0  0  0  0  0  0  0
   -0.0068   -1.4037   -0.0082 C   0  0  0  0  0  0  0  0  0  0  0  0
   -0.0119   -2.3985   -0.0203 H   0  0  0  0  0  0  0  0  0  0  0  0
    1.2092   -0.7059    0.0000 C   0  0  0  0  0  0  0  0  0  0  0  0
    2.0834   -1.2049    0.0031 H   0  0  0  0  0  0  0  0  0  0  0  0
    1.2038    0.6924    0.0066 C   0  0  0  0  0  0  0  0  0  0  0  0
    2.0720    1.1872    0.0181 H   0  0  0  0  0  0  0  0  0  0  0  0
  1  5  1  0
  5  8  1  0
  1  2  1  0
  1  3  1  0
  1  4  1  0
  5  6  1  0
  5  7  1  0
  8  9  1  0
  8 10  1  0
  8 11  1  0
 12 16  1  0
 16 17  2  0
 17 19  1  0
 19 21  2  0
 21 23  1  0
 23 25  2  0
 25 16  1  0
 12 13  1  0
 12 14  1  0
 12 15  1  0
 17 18  1  0
 19 20  1  0
 21 22  1  0
 23 24  1  0
 25 26  1  0
M  CHG  1   8   1
M  END
>  <PDB_ID>  (3208) 
pdb6mn8

>  <RESIDUE_NAME>  (3208) 
LYS   PHE

>  <FRAG_NAME>  (3208) 
ETAM   MBZ

>  <FRAG_ATOM_NUM>  (3208) 
fragi: 11  fragj: 15

>  <atom.prop.CHAIN_ID>  (3208) 
A A A A A A A A A A A Z Z Z Z Z Z Z Z Z Z Z Z Z Z Z

>  <atom.prop.IS_HEAVY_ATOM>  (3208) 
1 0 0 0 1 0 0 1 0 0 0 1 0 0 0 1 1 0 1 0 1 0 1 0 1 0

>  <DIFUSE_FUNC_ATOM>  (3208) 
n/a

>  <FINAL_SINGLE_POINT_ENERGY>  (3208) 
0

>  <NONCOV_INTER_ENERGY_QM>  (3208) 
0

>  <FF_Energy>  (3208) 
-1.47

>  <QM_Energy>  (3208) 
-6.86

>  <source>  (3208) 
ETAM_MBZ

>  <Index>  (3208) 
35036

$$$$
ETAM-pdb5jwa-A-LYS-104:MBZ-pdb5jwa-A-PHE-61
     RDKit          3D

 26 25  0  0  0  0  0  0  0  0999 V2000
    2.2565    0.9306   -3.6737 C   0  0  0  0  0  0  0  0  0  0  0  0
    1.6069    1.3982   -3.0842 H   0  0  0  0  0  0  0  0  0  0  0  0
    2.5771    1.5387   -4.3904 H   0  0  0  0  0  0  0  0  0  0  0  0
    3.1093    0.6119   -3.0742 H   0  0  0  0  0  0  0  0  0  0  0  0
    1.5322   -0.2608   -4.3406 C   0  0  0  0  0  0  0  0  0  0  0  0
    0.9922    0.0948   -5.1104 H   0  0  0  0  0  0  0  0  0  0  0  0
    2.2305   -0.8880   -4.7009 H   0  0  0  0  0  0  0  0  0  0  0  0
    0.6473   -0.9844   -3.4015 N   0  0  0  0  0  4  0  0  0  0  0  0
    0.1650   -0.3274   -2.8206 H   0  0  0  0  0  0  0  0  0  0  0  0
   -0.0197   -1.5238   -3.9168 H   0  0  0  0  0  0  0  0  0  0  0  0
    1.1944   -1.5955   -2.8268 H   0  0  0  0  0  0  0  0  0  0  0  0
    0.0144    2.9019    0.0107 C   0  0  0  0  0  0  0  0  0  0  0  0
    0.7719    3.2064   -0.5492 H   0  0  0  0  0  0  0  0  0  0  0  0
    0.1193    3.2042    0.9480 H   0  0  0  0  0  0  0  0  0  0  0  0
   -0.8927    3.3597   -0.3839 H   0  0  0  0  0  0  0  0  0  0  0  0
   -0.0004    1.4029    0.0014 C   0  0  0  0  0  0  0  0  0  0  0  0
   -1.1950    0.7050   -0.0037 C   0  0  0  0  0  0  0  0  0  0  0  0
   -2.0612    1.1896   -0.0109 H   0  0  0  0  0  0  0  0  0  0  0  0
   -1.1967   -0.6925   -0.0000 C   0  0  0  0  0  0  0  0  0  0  0  0
   -2.0768   -1.1825    0.0057 H   0  0  0  0  0  0  0  0  0  0  0  0
    0.0013   -1.3951   -0.0025 C   0  0  0  0  0  0  0  0  0  0  0  0
   -0.0109   -2.3945   -0.0065 H   0  0  0  0  0  0  0  0  0  0  0  0
    1.1967   -0.7068    0.0000 C   0  0  0  0  0  0  0  0  0  0  0  0
    2.0794   -1.2019   -0.0004 H   0  0  0  0  0  0  0  0  0  0  0  0
    1.1942    0.6865    0.0048 C   0  0  0  0  0  0  0  0  0  0  0  0
    2.0652    1.1803    0.0101 H   0  0  0  0  0  0  0  0  0  0  0  0
  1  5  1  0
  5  8  1  0
  1  2  1  0
  1  3  1  0
  1  4  1  0
  5  6  1  0
  5  7  1  0
  8  9  1  0
  8 10  1  0
  8 11  1  0
 12 16  1  0
 16 17  2  0
 17 19  1  0
 19 21  2  0
 21 23  1  0
 23 25  2  0
 25 16  1  0
 12 13  1  0
 12 14  1  0
 12 15  1  0
 17 18  1  0
 19 20  1  0
 21 22  1  0
 23 24  1  0
 25 26  1  0
M  CHG  1   8   1
M  END
>  <PDB_ID>  (3209) 
pdb5jwa

>  <RESIDUE_NAME>  (3209) 
LYS   PHE

>  <FRAG_NAME>  (3209) 
ETAM   MBZ

>  <FRAG_ATOM_NUM>  (3209) 
fragi: 11  fragj: 15

>  <atom.prop.CHAIN_ID>  (3209) 
A A A A A A A A A A A Z Z Z Z Z Z Z Z Z Z Z Z Z Z Z

>  <atom.prop.IS_HEAVY_ATOM>  (3209) 
1 0 0 0 1 0 0 1 0 0 0 1 0 0 0 1 1 0 1 0 1 0 1 0 1 0

>  <DIFUSE_FUNC_ATOM>  (3209) 
n/a

>  <FINAL_SINGLE_POINT_ENERGY>  (3209) 
0

>  <NONCOV_INTER_ENERGY_QM>  (3209) 
0

>  <FF_Energy>  (3209) 
-7.52

>  <QM_Energy>  (3209) 
-13.73

>  <source>  (3209) 
ETAM_MBZ

>  <Index>  (3209) 
35052

$$$$
ETAM-pdb6mp0-A-LYS-1058:MBZ-pdb6mp0-A-PHE-2008
     RDKit          3D

 26 25  0  0  0  0  0  0  0  0999 V2000
    1.0612   -4.8406   -0.0238 C   0  0  0  0  0  0  0  0  0  0  0  0
    0.4639   -4.0428   -0.0831 H   0  0  0  0  0  0  0  0  0  0  0  0
    2.0027   -4.5461    0.1295 H   0  0  0  0  0  0  0  0  0  0  0  0
    0.7473   -5.4350    0.8343 H   0  0  0  0  0  0  0  0  0  0  0  0
    1.0013   -5.5968   -1.3784 C   0  0  0  0  0  0  0  0  0  0  0  0
    1.2811   -6.5350   -1.2257 H   0  0  0  0  0  0  0  0  0  0  0  0
    0.0702   -5.5571   -1.7179 H   0  0  0  0  0  0  0  0  0  0  0  0
    1.9247   -4.9512   -2.3653 N   0  0  0  0  0  4  0  0  0  0  0  0
    2.1155   -4.0165   -2.0718 H   0  0  0  0  0  0  0  0  0  0  0  0
    2.7746   -5.4721   -2.4071 H   0  0  0  0  0  0  0  0  0  0  0  0
    1.4887   -4.9423   -3.2629 H   0  0  0  0  0  0  0  0  0  0  0  0
    0.0515    2.8929   -0.0220 C   0  0  0  0  0  0  0  0  0  0  0  0
    0.2469    3.1857   -0.9433 H   0  0  0  0  0  0  0  0  0  0  0  0
    0.7441    3.1960    0.6117 H   0  0  0  0  0  0  0  0  0  0  0  0
   -0.8880    3.3585    0.2756 H   0  0  0  0  0  0  0  0  0  0  0  0
    0.0066    1.3990    0.0019 C   0  0  0  0  0  0  0  0  0  0  0  0
   -1.1996    0.7498    0.0016 C   0  0  0  0  0  0  0  0  0  0  0  0
   -2.0512    1.2490    0.0013 H   0  0  0  0  0  0  0  0  0  0  0  0
   -1.2184   -0.6417    0.0000 C   0  0  0  0  0  0  0  0  0  0  0  0
   -2.1101   -1.1263   -0.0020 H   0  0  0  0  0  0  0  0  0  0  0  0
   -0.0257   -1.4040    0.0026 C   0  0  0  0  0  0  0  0  0  0  0  0
   -0.0736   -2.3918    0.0060 H   0  0  0  0  0  0  0  0  0  0  0  0
    1.2184   -0.7446   -0.0000 C   0  0  0  0  0  0  0  0  0  0  0  0
    2.0694   -1.2618    0.0043 H   0  0  0  0  0  0  0  0  0  0  0  0
    1.2188    0.6414   -0.0061 C   0  0  0  0  0  0  0  0  0  0  0  0
    2.0861    1.1448   -0.0175 H   0  0  0  0  0  0  0  0  0  0  0  0
  1  5  1  0
  5  8  1  0
  1  2  1  0
  1  3  1  0
  1  4  1  0
  5  6  1  0
  5  7  1  0
  8  9  1  0
  8 10  1  0
  8 11  1  0
 12 16  1  0
 16 17  2  0
 17 19  1  0
 19 21  2  0
 21 23  1  0
 23 25  2  0
 25 16  1  0
 12 13  1  0
 12 14  1  0
 12 15  1  0
 17 18  1  0
 19 20  1  0
 21 22  1  0
 23 24  1  0
 25 26  1  0
M  CHG  1   8   1
M  END
>  <PDB_ID>  (3210) 
pdb6mp0

>  <RESIDUE_NAME>  (3210) 
LYS   PHE

>  <FRAG_NAME>  (3210) 
ETAM   MBZ

>  <FRAG_ATOM_NUM>  (3210) 
fragi: 11  fragj: 15

>  <atom.prop.CHAIN_ID>  (3210) 
A A A A A A A A A A A Z Z Z Z Z Z Z Z Z Z Z Z Z Z Z

>  <atom.prop.IS_HEAVY_ATOM>  (3210) 
1 0 0 0 1 0 0 1 0 0 0 1 0 0 0 1 1 0 1 0 1 0 1 0 1 0

>  <DIFUSE_FUNC_ATOM>  (3210) 
n/a

>  <FINAL_SINGLE_POINT_ENERGY>  (3210) 
0

>  <NONCOV_INTER_ENERGY_QM>  (3210) 
0

>  <FF_Energy>  (3210) 
4.91

>  <QM_Energy>  (3210) 
-1.22

>  <source>  (3210) 
ETAM_MBZ

>  <Index>  (3210) 
35078

$$$$
ETAM-pdb6mq9-A-LYS-299:MBZ-pdb6mq9-A-PHE-48
     RDKit          3D

 26 25  0  0  0  0  0  0  0  0999 V2000
   -2.3024   -2.7238    3.6265 C   0  0  0  0  0  0  0  0  0  0  0  0
   -1.7553   -1.9887    4.0105 H   0  0  0  0  0  0  0  0  0  0  0  0
   -1.8792   -3.0785    2.7999 H   0  0  0  0  0  0  0  0  0  0  0  0
   -2.3776   -3.5280    4.3584 H   0  0  0  0  0  0  0  0  0  0  0  0
   -3.6743   -2.1731    3.2717 C   0  0  0  0  0  0  0  0  0  0  0  0
   -4.2211   -2.9041    2.8553 H   0  0  0  0  0  0  0  0  0  0  0  0
   -4.1297   -1.8658    4.1122 H   0  0  0  0  0  0  0  0  0  0  0  0
   -3.5845   -1.0295    2.3202 N   0  0  0  0  0  4  0  0  0  0  0  0
   -3.6907   -1.3681    1.3856 H   0  0  0  0  0  0  0  0  0  0  0  0
   -4.3090   -0.3724    2.5244 H   0  0  0  0  0  0  0  0  0  0  0  0
   -2.6936   -0.5870    2.4175 H   0  0  0  0  0  0  0  0  0  0  0  0
   -0.0029    2.8913    0.0027 C   0  0  0  0  0  0  0  0  0  0  0  0
    0.0971    3.2016   -0.9308 H   0  0  0  0  0  0  0  0  0  0  0  0
    0.7499    3.1978    0.5656 H   0  0  0  0  0  0  0  0  0  0  0  0
   -0.9183    3.3271    0.4029 H   0  0  0  0  0  0  0  0  0  0  0  0
   -0.0005    1.3925   -0.0021 C   0  0  0  0  0  0  0  0  0  0  0  0
   -1.1920    0.6867    0.0025 C   0  0  0  0  0  0  0  0  0  0  0  0
   -2.0603    1.1798    0.0063 H   0  0  0  0  0  0  0  0  0  0  0  0
   -1.1957   -0.6932    0.0000 C   0  0  0  0  0  0  0  0  0  0  0  0
   -2.0732   -1.1913    0.0002 H   0  0  0  0  0  0  0  0  0  0  0  0
   -0.0000   -1.3831   -0.0008 C   0  0  0  0  0  0  0  0  0  0  0  0
   -0.0025   -2.3855   -0.0024 H   0  0  0  0  0  0  0  0  0  0  0  0
    1.1957   -0.6914    0.0000 C   0  0  0  0  0  0  0  0  0  0  0  0
    2.0781   -1.1933    0.0020 H   0  0  0  0  0  0  0  0  0  0  0  0
    1.1925    0.6886    0.0004 C   0  0  0  0  0  0  0  0  0  0  0  0
    2.0611    1.1879    0.0015 H   0  0  0  0  0  0  0  0  0  0  0  0
  1  5  1  0
  5  8  1  0
  1  2  1  0
  1  3  1  0
  1  4  1  0
  5  6  1  0
  5  7  1  0
  8  9  1  0
  8 10  1  0
  8 11  1  0
 12 16  1  0
 16 17  2  0
 17 19  1  0
 19 21  2  0
 21 23  1  0
 23 25  2  0
 25 16  1  0
 12 13  1  0
 12 14  1  0
 12 15  1  0
 17 18  1  0
 19 20  1  0
 21 22  1  0
 23 24  1  0
 25 26  1  0
M  CHG  1   8   1
M  END
>  <PDB_ID>  (3211) 
pdb6mq9

>  <RESIDUE_NAME>  (3211) 
LYS   PHE

>  <FRAG_NAME>  (3211) 
ETAM   MBZ

>  <FRAG_ATOM_NUM>  (3211) 
fragi: 11  fragj: 15

>  <atom.prop.CHAIN_ID>  (3211) 
A A A A A A A A A A A Z Z Z Z Z Z Z Z Z Z Z Z Z Z Z

>  <atom.prop.IS_HEAVY_ATOM>  (3211) 
1 0 0 0 1 0 0 1 0 0 0 1 0 0 0 1 1 0 1 0 1 0 1 0 1 0

>  <DIFUSE_FUNC_ATOM>  (3211) 
n/a

>  <FINAL_SINGLE_POINT_ENERGY>  (3211) 
0

>  <NONCOV_INTER_ENERGY_QM>  (3211) 
0

>  <FF_Energy>  (3211) 
-1.17

>  <QM_Energy>  (3211) 
-6.89

>  <source>  (3211) 
ETAM_MBZ

>  <Index>  (3211) 
35094

$$$$
ETAM-pdb6mry-A-LYS-46:MBZ-pdb6mry-A-PHE-30
     RDKit          3D

 26 25  0  0  0  0  0  0  0  0999 V2000
    2.1182   -0.0565    3.7697 C   0  0  0  0  0  0  0  0  0  0  0  0
    2.3920   -0.7224    4.4556 H   0  0  0  0  0  0  0  0  0  0  0  0
    1.7769    0.7693    4.2069 H   0  0  0  0  0  0  0  0  0  0  0  0
    2.9908    0.2024    3.1699 H   0  0  0  0  0  0  0  0  0  0  0  0
    1.0043   -0.6571    2.9217 C   0  0  0  0  0  0  0  0  0  0  0  0
    0.9095   -0.1122    2.0735 H   0  0  0  0  0  0  0  0  0  0  0  0
    1.2701   -1.5958    2.6500 H   0  0  0  0  0  0  0  0  0  0  0  0
   -0.3349   -0.7181    3.6034 N   0  0  0  0  0  4  0  0  0  0  0  0
   -0.4194   -1.5927    4.0737 H   0  0  0  0  0  0  0  0  0  0  0  0
   -0.3983    0.0294    4.2596 H   0  0  0  0  0  0  0  0  0  0  0  0
   -1.0526   -0.6307    2.9168 H   0  0  0  0  0  0  0  0  0  0  0  0
   -0.0038    2.8769   -0.0237 C   0  0  0  0  0  0  0  0  0  0  0  0
   -0.6712    3.1820   -0.6914 H   0  0  0  0  0  0  0  0  0  0  0  0
    0.9057    3.1888   -0.2687 H   0  0  0  0  0  0  0  0  0  0  0  0
   -0.2617    3.3350    0.9312 H   0  0  0  0  0  0  0  0  0  0  0  0
   -0.0023    1.3946   -0.0031 C   0  0  0  0  0  0  0  0  0  0  0  0
   -1.1922    0.6923   -0.0057 C   0  0  0  0  0  0  0  0  0  0  0  0
   -2.0609    1.1772   -0.0125 H   0  0  0  0  0  0  0  0  0  0  0  0
   -1.1931   -0.7006   -0.0000 C   0  0  0  0  0  0  0  0  0  0  0  0
   -2.0703   -1.1936   -0.0045 H   0  0  0  0  0  0  0  0  0  0  0  0
    0.0053   -1.3883    0.0134 C   0  0  0  0  0  0  0  0  0  0  0  0
    0.0037   -2.3896    0.0319 H   0  0  0  0  0  0  0  0  0  0  0  0
    1.1931   -0.6923    0.0000 C   0  0  0  0  0  0  0  0  0  0  0  0
    2.0811   -1.1877   -0.0055 H   0  0  0  0  0  0  0  0  0  0  0  0
    1.1893    0.6944   -0.0046 C   0  0  0  0  0  0  0  0  0  0  0  0
    2.0583    1.1899   -0.0095 H   0  0  0  0  0  0  0  0  0  0  0  0
  1  5  1  0
  5  8  1  0
  1  2  1  0
  1  3  1  0
  1  4  1  0
  5  6  1  0
  5  7  1  0
  8  9  1  0
  8 10  1  0
  8 11  1  0
 12 16  1  0
 16 17  2  0
 17 19  1  0
 19 21  2  0
 21 23  1  0
 23 25  2  0
 25 16  1  0
 12 13  1  0
 12 14  1  0
 12 15  1  0
 17 18  1  0
 19 20  1  0
 21 22  1  0
 23 24  1  0
 25 26  1  0
M  CHG  1   8   1
M  END
>  <PDB_ID>  (3212) 
pdb6mry

>  <RESIDUE_NAME>  (3212) 
LYS   PHE

>  <FRAG_NAME>  (3212) 
ETAM   MBZ

>  <FRAG_ATOM_NUM>  (3212) 
fragi: 11  fragj: 15

>  <atom.prop.CHAIN_ID>  (3212) 
A A A A A A A A A A A Z Z Z Z Z Z Z Z Z Z Z Z Z Z Z

>  <atom.prop.IS_HEAVY_ATOM>  (3212) 
1 0 0 0 1 0 0 1 0 0 0 1 0 0 0 1 1 0 1 0 1 0 1 0 1 0

>  <DIFUSE_FUNC_ATOM>  (3212) 
n/a

>  <FINAL_SINGLE_POINT_ENERGY>  (3212) 
0

>  <NONCOV_INTER_ENERGY_QM>  (3212) 
0

>  <FF_Energy>  (3212) 
7.13

>  <QM_Energy>  (3212) 
-8.22

>  <source>  (3212) 
ETAM_MBZ

>  <Index>  (3212) 
35095

$$$$
ETAM-pdb6mtp-Q-LYS-684:MBZ-pdb6mtp-A-PHE-100
     RDKit          3D

 26 25  0  0  0  0  0  0  0  0999 V2000
    2.9074   -0.5464   -4.2055 C   0  0  0  0  0  0  0  0  0  0  0  0
    2.0102   -0.3616   -4.5873 H   0  0  0  0  0  0  0  0  0  0  0  0
    3.4723   -1.0382   -4.8569 H   0  0  0  0  0  0  0  0  0  0  0  0
    3.3905    0.3964   -3.9489 H   0  0  0  0  0  0  0  0  0  0  0  0
    2.7264   -1.4315   -2.9657 C   0  0  0  0  0  0  0  0  0  0  0  0
    3.6011   -1.8634   -2.7496 H   0  0  0  0  0  0  0  0  0  0  0  0
    2.4381   -0.8566   -2.2012 H   0  0  0  0  0  0  0  0  0  0  0  0
    1.6990   -2.4886   -3.2039 N   0  0  0  0  0  4  0  0  0  0  0  0
    1.3469   -2.8093   -2.3258 H   0  0  0  0  0  0  0  0  0  0  0  0
    0.9528   -2.1056   -3.7464 H   0  0  0  0  0  0  0  0  0  0  0  0
    2.1181   -3.2493   -3.6965 H   0  0  0  0  0  0  0  0  0  0  0  0
    0.0006    2.9017   -0.0051 C   0  0  0  0  0  0  0  0  0  0  0  0
   -0.7476    3.2010   -0.5827 H   0  0  0  0  0  0  0  0  0  0  0  0
    0.8719    3.2009   -0.3708 H   0  0  0  0  0  0  0  0  0  0  0  0
   -0.1277    3.3603    0.9754 H   0  0  0  0  0  0  0  0  0  0  0  0
   -0.0015    1.3953    0.0077 C   0  0  0  0  0  0  0  0  0  0  0  0
   -1.1920    0.6900   -0.0003 C   0  0  0  0  0  0  0  0  0  0  0  0
   -2.0606    1.1809   -0.0079 H   0  0  0  0  0  0  0  0  0  0  0  0
   -1.1946   -0.6922    0.0000 C   0  0  0  0  0  0  0  0  0  0  0  0
   -2.0728   -1.1894    0.0023 H   0  0  0  0  0  0  0  0  0  0  0  0
    0.0024   -1.3850   -0.0010 C   0  0  0  0  0  0  0  0  0  0  0  0
   -0.0039   -2.3869   -0.0029 H   0  0  0  0  0  0  0  0  0  0  0  0
    1.1946   -0.6940    0.0000 C   0  0  0  0  0  0  0  0  0  0  0  0
    2.0790   -1.1939    0.0065 H   0  0  0  0  0  0  0  0  0  0  0  0
    1.1911    0.6859   -0.0063 C   0  0  0  0  0  0  0  0  0  0  0  0
    2.0608    1.1857   -0.0221 H   0  0  0  0  0  0  0  0  0  0  0  0
  1  5  1  0
  5  8  1  0
  1  2  1  0
  1  3  1  0
  1  4  1  0
  5  6  1  0
  5  7  1  0
  8  9  1  0
  8 10  1  0
  8 11  1  0
 12 16  1  0
 16 17  2  0
 17 19  1  0
 19 21  2  0
 21 23  1  0
 23 25  2  0
 25 16  1  0
 12 13  1  0
 12 14  1  0
 12 15  1  0
 17 18  1  0
 19 20  1  0
 21 22  1  0
 23 24  1  0
 25 26  1  0
M  CHG  1   8   1
M  END
>  <PDB_ID>  (3213) 
pdb6mtp

>  <RESIDUE_NAME>  (3213) 
LYS   PHE

>  <FRAG_NAME>  (3213) 
ETAM   MBZ

>  <FRAG_ATOM_NUM>  (3213) 
fragi: 11  fragj: 15

>  <atom.prop.CHAIN_ID>  (3213) 
A A A A A A A A A A A Z Z Z Z Z Z Z Z Z Z Z Z Z Z Z

>  <atom.prop.IS_HEAVY_ATOM>  (3213) 
1 0 0 0 1 0 0 1 0 0 0 1 0 0 0 1 1 0 1 0 1 0 1 0 1 0

>  <DIFUSE_FUNC_ATOM>  (3213) 
n/a

>  <FINAL_SINGLE_POINT_ENERGY>  (3213) 
0

>  <NONCOV_INTER_ENERGY_QM>  (3213) 
0

>  <FF_Energy>  (3213) 
-2.04

>  <QM_Energy>  (3213) 
-7.8

>  <source>  (3213) 
ETAM_MBZ

>  <Index>  (3213) 
35137

$$$$
ETAM-pdb6kz8-B-LYS-749:MBZ-pdb6kz8-B-PHE-753
     RDKit          3D

 26 25  0  0  0  0  0  0  0  0999 V2000
    0.6004   -2.1451   -4.3996 C   0  0  0  0  0  0  0  0  0  0  0  0
    0.3471   -1.7996   -5.2953 H   0  0  0  0  0  0  0  0  0  0  0  0
    0.8875   -3.0935   -4.4568 H   0  0  0  0  0  0  0  0  0  0  0  0
    1.4256   -1.5479   -4.0116 H   0  0  0  0  0  0  0  0  0  0  0  0
   -0.6069   -2.0565   -3.4842 C   0  0  0  0  0  0  0  0  0  0  0  0
   -1.3306   -2.6453   -3.8360 H   0  0  0  0  0  0  0  0  0  0  0  0
   -0.3466   -2.3488   -2.5670 H   0  0  0  0  0  0  0  0  0  0  0  0
   -1.1141   -0.6465   -3.4204 N   0  0  0  0  0  4  0  0  0  0  0  0
   -1.0572   -0.3222   -2.4786 H   0  0  0  0  0  0  0  0  0  0  0  0
   -0.5530   -0.0718   -4.0121 H   0  0  0  0  0  0  0  0  0  0  0  0
   -2.0624   -0.6274   -3.7288 H   0  0  0  0  0  0  0  0  0  0  0  0
   -0.0073    2.8743    0.0019 C   0  0  0  0  0  0  0  0  0  0  0  0
    0.8055    3.1899   -0.4725 H   0  0  0  0  0  0  0  0  0  0  0  0
   -0.0060    3.1829    0.9455 H   0  0  0  0  0  0  0  0  0  0  0  0
   -0.8728    3.3166   -0.4915 H   0  0  0  0  0  0  0  0  0  0  0  0
   -0.0008    1.3868   -0.0007 C   0  0  0  0  0  0  0  0  0  0  0  0
   -1.1787    0.6800   -0.0050 C   0  0  0  0  0  0  0  0  0  0  0  0
   -2.0534    1.1740   -0.0135 H   0  0  0  0  0  0  0  0  0  0  0  0
   -1.1854   -0.6909   -0.0000 C   0  0  0  0  0  0  0  0  0  0  0  0
   -2.0712   -1.1836    0.0011 H   0  0  0  0  0  0  0  0  0  0  0  0
   -0.0084   -1.3761    0.0045 C   0  0  0  0  0  0  0  0  0  0  0  0
   -0.0076   -2.3811    0.0106 H   0  0  0  0  0  0  0  0  0  0  0  0
    1.1854   -0.6884    0.0000 C   0  0  0  0  0  0  0  0  0  0  0  0
    2.0686   -1.1931   -0.0027 H   0  0  0  0  0  0  0  0  0  0  0  0
    1.1879    0.6884    0.0011 C   0  0  0  0  0  0  0  0  0  0  0  0
    2.0568    1.1857    0.0025 H   0  0  0  0  0  0  0  0  0  0  0  0
  1  5  1  0
  5  8  1  0
  1  2  1  0
  1  3  1  0
  1  4  1  0
  5  6  1  0
  5  7  1  0
  8  9  1  0
  8 10  1  0
  8 11  1  0
 12 16  1  0
 16 17  2  0
 17 19  1  0
 19 21  2  0
 21 23  1  0
 23 25  2  0
 25 16  1  0
 12 13  1  0
 12 14  1  0
 12 15  1  0
 17 18  1  0
 19 20  1  0
 21 22  1  0
 23 24  1  0
 25 26  1  0
M  CHG  1   8   1
M  END
>  <PDB_ID>  (3214) 
pdb6kz8

>  <RESIDUE_NAME>  (3214) 
LYS   PHE

>  <FRAG_NAME>  (3214) 
ETAM   MBZ

>  <FRAG_ATOM_NUM>  (3214) 
fragi: 11  fragj: 15

>  <atom.prop.CHAIN_ID>  (3214) 
A A A A A A A A A A A Z Z Z Z Z Z Z Z Z Z Z Z Z Z Z

>  <atom.prop.IS_HEAVY_ATOM>  (3214) 
1 0 0 0 1 0 0 1 0 0 0 1 0 0 0 1 1 0 1 0 1 0 1 0 1 0

>  <DIFUSE_FUNC_ATOM>  (3214) 
n/a

>  <FINAL_SINGLE_POINT_ENERGY>  (3214) 
0

>  <NONCOV_INTER_ENERGY_QM>  (3214) 
0

>  <FF_Energy>  (3214) 
-7.22

>  <QM_Energy>  (3214) 
-14.32

>  <source>  (3214) 
ETAM_MBZ

>  <Index>  (3214) 
35149

$$$$
ETAM-pdb5k04-A-LYS-495:MBZ-pdb5k04-A-PHE-121
     RDKit          3D

 26 25  0  0  0  0  0  0  0  0999 V2000
    0.7529   -4.9565   -3.4958 C   0  0  0  0  0  0  0  0  0  0  0  0
    1.3881   -5.6210   -3.1021 H   0  0  0  0  0  0  0  0  0  0  0  0
    1.1629   -4.5408   -4.3069 H   0  0  0  0  0  0  0  0  0  0  0  0
   -0.1548   -5.4803   -3.7955 H   0  0  0  0  0  0  0  0  0  0  0  0
    0.4903   -3.8690   -2.4713 C   0  0  0  0  0  0  0  0  0  0  0  0
   -0.2220   -3.2574   -2.8184 H   0  0  0  0  0  0  0  0  0  0  0  0
    0.1768   -4.2897   -1.6189 H   0  0  0  0  0  0  0  0  0  0  0  0
    1.7243   -3.0734   -2.1961 N   0  0  0  0  0  4  0  0  0  0  0  0
    1.4764   -2.2426   -1.7001 H   0  0  0  0  0  0  0  0  0  0  0  0
    2.3519   -3.6203   -1.6451 H   0  0  0  0  0  0  0  0  0  0  0  0
    2.1591   -2.8307   -3.0621 H   0  0  0  0  0  0  0  0  0  0  0  0
    0.0126    2.9064    0.0014 C   0  0  0  0  0  0  0  0  0  0  0  0
    0.8957    3.2041   -0.3286 H   0  0  0  0  0  0  0  0  0  0  0  0
   -0.1458    3.2114    0.9288 H   0  0  0  0  0  0  0  0  0  0  0  0
   -0.7490    3.3617   -0.6316 H   0  0  0  0  0  0  0  0  0  0  0  0
   -0.0016    1.3988   -0.0021 C   0  0  0  0  0  0  0  0  0  0  0  0
   -1.1911    0.6981    0.0005 C   0  0  0  0  0  0  0  0  0  0  0  0
   -2.0598    1.1836    0.0016 H   0  0  0  0  0  0  0  0  0  0  0  0
   -1.1918   -0.6923    0.0000 C   0  0  0  0  0  0  0  0  0  0  0  0
   -2.0712   -1.1859   -0.0003 H   0  0  0  0  0  0  0  0  0  0  0  0
    0.0044   -1.3877    0.0015 C   0  0  0  0  0  0  0  0  0  0  0  0
   -0.0072   -2.3899    0.0033 H   0  0  0  0  0  0  0  0  0  0  0  0
    1.1918   -0.7016   -0.0000 C   0  0  0  0  0  0  0  0  0  0  0  0
    2.0788   -1.1970    0.0003 H   0  0  0  0  0  0  0  0  0  0  0  0
    1.1883    0.6847    0.0001 C   0  0  0  0  0  0  0  0  0  0  0  0
    2.0605    1.1802    0.0009 H   0  0  0  0  0  0  0  0  0  0  0  0
  1  5  1  0
  5  8  1  0
  1  2  1  0
  1  3  1  0
  1  4  1  0
  5  6  1  0
  5  7  1  0
  8  9  1  0
  8 10  1  0
  8 11  1  0
 12 16  1  0
 16 17  2  0
 17 19  1  0
 19 21  2  0
 21 23  1  0
 23 25  2  0
 25 16  1  0
 12 13  1  0
 12 14  1  0
 12 15  1  0
 17 18  1  0
 19 20  1  0
 21 22  1  0
 23 24  1  0
 25 26  1  0
M  CHG  1   8   1
M  END
>  <PDB_ID>  (3215) 
pdb5k04

>  <RESIDUE_NAME>  (3215) 
LYS   PHE

>  <FRAG_NAME>  (3215) 
ETAM   MBZ

>  <FRAG_ATOM_NUM>  (3215) 
fragi: 11  fragj: 15

>  <atom.prop.CHAIN_ID>  (3215) 
A A A A A A A A A A A Z Z Z Z Z Z Z Z Z Z Z Z Z Z Z

>  <atom.prop.IS_HEAVY_ATOM>  (3215) 
1 0 0 0 1 0 0 1 0 0 0 1 0 0 0 1 1 0 1 0 1 0 1 0 1 0

>  <DIFUSE_FUNC_ATOM>  (3215) 
n/a

>  <FINAL_SINGLE_POINT_ENERGY>  (3215) 
0

>  <NONCOV_INTER_ENERGY_QM>  (3215) 
0

>  <FF_Energy>  (3215) 
-1.31

>  <QM_Energy>  (3215) 
-9.54

>  <source>  (3215) 
ETAM_MBZ

>  <Index>  (3215) 
35152

$$$$
ETAM-pdb6mfg-A-LYS-147:MBZ-pdb6mfg-A-PHE-137
     RDKit          3D

 26 25  0  0  0  0  0  0  0  0999 V2000
   -1.0407   -0.6808   -4.1031 C   0  0  0  0  0  0  0  0  0  0  0  0
   -1.2865   -0.7415   -3.1421 H   0  0  0  0  0  0  0  0  0  0  0  0
   -1.2129   -1.5443   -4.5636 H   0  0  0  0  0  0  0  0  0  0  0  0
   -1.6419    0.0975   -4.5731 H   0  0  0  0  0  0  0  0  0  0  0  0
    0.4392   -0.3621   -4.2065 C   0  0  0  0  0  0  0  0  0  0  0  0
    0.7355   -0.4964   -5.1588 H   0  0  0  0  0  0  0  0  0  0  0  0
    0.5821    0.6041   -3.9626 H   0  0  0  0  0  0  0  0  0  0  0  0
    1.2633   -1.2158   -3.3153 N   0  0  0  0  0  4  0  0  0  0  0  0
    0.7083   -1.5256   -2.5427 H   0  0  0  0  0  0  0  0  0  0  0  0
    1.5959   -2.0094   -3.8265 H   0  0  0  0  0  0  0  0  0  0  0  0
    2.0424   -0.6887   -2.9750 H   0  0  0  0  0  0  0  0  0  0  0  0
   -0.0021    2.9012    0.0084 C   0  0  0  0  0  0  0  0  0  0  0  0
    0.8883    3.2047    0.3124 H   0  0  0  0  0  0  0  0  0  0  0  0
   -0.7134    3.2004    0.6274 H   0  0  0  0  0  0  0  0  0  0  0  0
   -0.1949    3.3494   -0.9663 H   0  0  0  0  0  0  0  0  0  0  0  0
    0.0000    1.3967   -0.0022 C   0  0  0  0  0  0  0  0  0  0  0  0
   -1.1912    0.6894    0.0023 C   0  0  0  0  0  0  0  0  0  0  0  0
   -2.0597    1.1801    0.0058 H   0  0  0  0  0  0  0  0  0  0  0  0
   -1.1951   -0.6949    0.0000 C   0  0  0  0  0  0  0  0  0  0  0  0
   -2.0740   -1.1899    0.0002 H   0  0  0  0  0  0  0  0  0  0  0  0
   -0.0003   -1.3866   -0.0012 C   0  0  0  0  0  0  0  0  0  0  0  0
   -0.0036   -2.3885   -0.0039 H   0  0  0  0  0  0  0  0  0  0  0  0
    1.1951   -0.6945    0.0000 C   0  0  0  0  0  0  0  0  0  0  0  0
    2.0778   -1.1936    0.0015 H   0  0  0  0  0  0  0  0  0  0  0  0
    1.1915    0.6899    0.0010 C   0  0  0  0  0  0  0  0  0  0  0  0
    2.0614    1.1867    0.0031 H   0  0  0  0  0  0  0  0  0  0  0  0
  1  5  1  0
  5  8  1  0
  1  2  1  0
  1  3  1  0
  1  4  1  0
  5  6  1  0
  5  7  1  0
  8  9  1  0
  8 10  1  0
  8 11  1  0
 12 16  1  0
 16 17  2  0
 17 19  1  0
 19 21  2  0
 21 23  1  0
 23 25  2  0
 25 16  1  0
 12 13  1  0
 12 14  1  0
 12 15  1  0
 17 18  1  0
 19 20  1  0
 21 22  1  0
 23 24  1  0
 25 26  1  0
M  CHG  1   8   1
M  END
>  <PDB_ID>  (3216) 
pdb6mfg

>  <RESIDUE_NAME>  (3216) 
LYS   PHE

>  <FRAG_NAME>  (3216) 
ETAM   MBZ

>  <FRAG_ATOM_NUM>  (3216) 
fragi: 11  fragj: 15

>  <atom.prop.CHAIN_ID>  (3216) 
A A A A A A A A A A A Z Z Z Z Z Z Z Z Z Z Z Z Z Z Z

>  <atom.prop.IS_HEAVY_ATOM>  (3216) 
1 0 0 0 1 0 0 1 0 0 0 1 0 0 0 1 1 0 1 0 1 0 1 0 1 0

>  <DIFUSE_FUNC_ATOM>  (3216) 
n/a

>  <FINAL_SINGLE_POINT_ENERGY>  (3216) 
0

>  <NONCOV_INTER_ENERGY_QM>  (3216) 
0

>  <FF_Energy>  (3216) 
-6.46

>  <QM_Energy>  (3216) 
-13.26

>  <source>  (3216) 
ETAM_MBZ

>  <Index>  (3216) 
35159

$$$$
ETAM-pdb6mso-B-LYS-268:MBZ-pdb6mso-B-PHE-277
     RDKit          3D

 26 25  0  0  0  0  0  0  0  0999 V2000
    2.6671   -0.3598    4.0568 C   0  0  0  0  0  0  0  0  0  0  0  0
    1.7837   -0.7181    4.3787 H   0  0  0  0  0  0  0  0  0  0  0  0
    2.5063    0.1994    3.2360 H   0  0  0  0  0  0  0  0  0  0  0  0
    3.0645    0.2935    4.8335 H   0  0  0  0  0  0  0  0  0  0  0  0
    3.5657   -1.5236    3.6895 C   0  0  0  0  0  0  0  0  0  0  0  0
    4.4206   -1.1695    3.3184 H   0  0  0  0  0  0  0  0  0  0  0  0
    3.7495   -2.0641    4.5077 H   0  0  0  0  0  0  0  0  0  0  0  0
    2.9018   -2.3720    2.6766 N   0  0  0  0  0  4  0  0  0  0  0  0
    2.2002   -2.9345    3.1164 H   0  0  0  0  0  0  0  0  0  0  0  0
    2.4739   -1.7929    1.9816 H   0  0  0  0  0  0  0  0  0  0  0  0
    3.5780   -2.9671    2.2408 H   0  0  0  0  0  0  0  0  0  0  0  0
   -0.0076    2.8965    0.0361 C   0  0  0  0  0  0  0  0  0  0  0  0
    0.8636    3.2008    0.3998 H   0  0  0  0  0  0  0  0  0  0  0  0
   -0.7542    3.1870    0.6209 H   0  0  0  0  0  0  0  0  0  0  0  0
   -0.1444    3.3735   -0.9343 H   0  0  0  0  0  0  0  0  0  0  0  0
   -0.0006    1.3990   -0.0018 C   0  0  0  0  0  0  0  0  0  0  0  0
   -1.1906    0.6916   -0.0038 C   0  0  0  0  0  0  0  0  0  0  0  0
   -2.0609    1.1822   -0.0095 H   0  0  0  0  0  0  0  0  0  0  0  0
   -1.2008   -0.6978   -0.0000 C   0  0  0  0  0  0  0  0  0  0  0  0
   -2.0807   -1.1867    0.0078 H   0  0  0  0  0  0  0  0  0  0  0  0
   -0.0075   -1.3910   -0.0047 C   0  0  0  0  0  0  0  0  0  0  0  0
   -0.0069   -2.3913   -0.0119 H   0  0  0  0  0  0  0  0  0  0  0  0
    1.2008   -0.6961    0.0000 C   0  0  0  0  0  0  0  0  0  0  0  0
    2.0779   -1.1975   -0.0023 H   0  0  0  0  0  0  0  0  0  0  0  0
    1.1987    0.6942    0.0103 C   0  0  0  0  0  0  0  0  0  0  0  0
    2.0641    1.1903    0.0257 H   0  0  0  0  0  0  0  0  0  0  0  0
  1  5  1  0
  5  8  1  0
  1  2  1  0
  1  3  1  0
  1  4  1  0
  5  6  1  0
  5  7  1  0
  8  9  1  0
  8 10  1  0
  8 11  1  0
 12 16  1  0
 16 17  2  0
 17 19  1  0
 19 21  2  0
 21 23  1  0
 23 25  2  0
 25 16  1  0
 12 13  1  0
 12 14  1  0
 12 15  1  0
 17 18  1  0
 19 20  1  0
 21 22  1  0
 23 24  1  0
 25 26  1  0
M  CHG  1   8   1
M  END
>  <PDB_ID>  (3217) 
pdb6mso

>  <RESIDUE_NAME>  (3217) 
LYS   PHE

>  <FRAG_NAME>  (3217) 
ETAM   MBZ

>  <FRAG_ATOM_NUM>  (3217) 
fragi: 11  fragj: 15

>  <atom.prop.CHAIN_ID>  (3217) 
A A A A A A A A A A A Z Z Z Z Z Z Z Z Z Z Z Z Z Z Z

>  <atom.prop.IS_HEAVY_ATOM>  (3217) 
1 0 0 0 1 0 0 1 0 0 0 1 0 0 0 1 1 0 1 0 1 0 1 0 1 0

>  <DIFUSE_FUNC_ATOM>  (3217) 
n/a

>  <FINAL_SINGLE_POINT_ENERGY>  (3217) 
0

>  <NONCOV_INTER_ENERGY_QM>  (3217) 
0

>  <FF_Energy>  (3217) 
-1.76

>  <QM_Energy>  (3217) 
-7.68

>  <source>  (3217) 
ETAM_MBZ

>  <Index>  (3217) 
35165

$$$$
ETAM-pdb5k1a-D-LYS-459:MBZ-pdb5k1a-D-PHE-562
     RDKit          3D

 26 25  0  0  0  0  0  0  0  0999 V2000
   -3.7978   -1.7370    2.7028 C   0  0  0  0  0  0  0  0  0  0  0  0
   -3.5840   -2.0709    3.6169 H   0  0  0  0  0  0  0  0  0  0  0  0
   -3.1203   -2.0656    2.0511 H   0  0  0  0  0  0  0  0  0  0  0  0
   -4.7787   -2.1127    2.4116 H   0  0  0  0  0  0  0  0  0  0  0  0
   -3.7660   -0.2277    2.7172 C   0  0  0  0  0  0  0  0  0  0  0  0
   -3.9810    0.1207    1.7970 H   0  0  0  0  0  0  0  0  0  0  0  0
   -4.4646    0.1159    3.3562 H   0  0  0  0  0  0  0  0  0  0  0  0
   -2.4264    0.3270    3.1348 N   0  0  0  0  0  4  0  0  0  0  0  0
   -1.7095   -0.1552    2.6382 H   0  0  0  0  0  0  0  0  0  0  0  0
   -2.3991    1.2994    2.9172 H   0  0  0  0  0  0  0  0  0  0  0  0
   -2.3144    0.1918    4.1156 H   0  0  0  0  0  0  0  0  0  0  0  0
    0.0060    2.8925   -0.0038 C   0  0  0  0  0  0  0  0  0  0  0  0
    0.9200    3.2013    0.2155 H   0  0  0  0  0  0  0  0  0  0  0  0
   -0.6494    3.2064    0.6672 H   0  0  0  0  0  0  0  0  0  0  0  0
   -0.2687    3.3312   -0.9631 H   0  0  0  0  0  0  0  0  0  0  0  0
    0.0017    1.3995   -0.0025 C   0  0  0  0  0  0  0  0  0  0  0  0
   -1.1849    0.6996    0.0023 C   0  0  0  0  0  0  0  0  0  0  0  0
   -2.0548    1.1890    0.0061 H   0  0  0  0  0  0  0  0  0  0  0  0
   -1.1888   -0.6848    0.0000 C   0  0  0  0  0  0  0  0  0  0  0  0
   -2.0787   -1.1728   -0.0003 H   0  0  0  0  0  0  0  0  0  0  0  0
   -0.0109   -1.3868   -0.0003 C   0  0  0  0  0  0  0  0  0  0  0  0
   -0.0262   -2.3913   -0.0013 H   0  0  0  0  0  0  0  0  0  0  0  0
    1.1888   -0.7135    0.0000 C   0  0  0  0  0  0  0  0  0  0  0  0
    2.0678   -1.2104    0.0021 H   0  0  0  0  0  0  0  0  0  0  0  0
    1.1941    0.6861    0.0005 C   0  0  0  0  0  0  0  0  0  0  0  0
    2.0655    1.1719    0.0023 H   0  0  0  0  0  0  0  0  0  0  0  0
  1  5  1  0
  5  8  1  0
  1  2  1  0
  1  3  1  0
  1  4  1  0
  5  6  1  0
  5  7  1  0
  8  9  1  0
  8 10  1  0
  8 11  1  0
 12 16  1  0
 16 17  2  0
 17 19  1  0
 19 21  2  0
 21 23  1  0
 23 25  2  0
 25 16  1  0
 12 13  1  0
 12 14  1  0
 12 15  1  0
 17 18  1  0
 19 20  1  0
 21 22  1  0
 23 24  1  0
 25 26  1  0
M  CHG  1   8   1
M  END
>  <PDB_ID>  (3218) 
pdb5k1a

>  <RESIDUE_NAME>  (3218) 
LYS   PHE

>  <FRAG_NAME>  (3218) 
ETAM   MBZ

>  <FRAG_ATOM_NUM>  (3218) 
fragi: 11  fragj: 15

>  <atom.prop.CHAIN_ID>  (3218) 
A A A A A A A A A A A Z Z Z Z Z Z Z Z Z Z Z Z Z Z Z

>  <atom.prop.IS_HEAVY_ATOM>  (3218) 
1 0 0 0 1 0 0 1 0 0 0 1 0 0 0 1 1 0 1 0 1 0 1 0 1 0

>  <DIFUSE_FUNC_ATOM>  (3218) 
n/a

>  <FINAL_SINGLE_POINT_ENERGY>  (3218) 
0

>  <NONCOV_INTER_ENERGY_QM>  (3218) 
0

>  <FF_Energy>  (3218) 
-4.92

>  <QM_Energy>  (3218) 
-10.71

>  <source>  (3218) 
ETAM_MBZ

>  <Index>  (3218) 
35172

$$$$
ETAM-pdb6mx1-B-VAL-306:MBZ-pdb6mx1-B-PHE-460
     RDKit          3D

 26 25  0  0  0  0  0  0  0  0999 V2000
    0.7167   -3.7005   -4.3961 C   0  0  0  0  0  0  0  0  0  0  0  0
    0.9227   -4.6762   -4.4652 H   0  0  0  0  0  0  0  0  0  0  0  0
   -0.2013   -3.5433   -4.9624 H   0  0  0  0  0  0  0  0  0  0  0  0
    1.5506   -3.1196   -4.7901 H   0  0  0  0  0  0  0  0  0  0  0  0
    0.5357   -3.3496   -2.9267 C   0  0  0  0  0  0  0  0  0  0  0  0
    0.0457   -2.4753   -2.8693 H   0  0  0  0  0  0  0  0  0  0  0  0
   -0.0576   -4.1027   -2.4080 H   0  0  0  0  0  0  0  0  0  0  0  0
    1.8403   -3.1831   -2.2766 N   0  0  0  0  0  4  0  0  0  0  0  0
    1.9951   -3.9312   -1.6304 H   0  0  0  0  0  0  0  0  0  0  0  0
    2.5653   -3.1900   -2.9660 H   0  0  0  0  0  0  0  0  0  0  0  0
    1.8638   -2.3127   -1.7830 H   0  0  0  0  0  0  0  0  0  0  0  0
    0.0122    2.9015   -0.0069 C   0  0  0  0  0  0  0  0  0  0  0  0
    0.8001    3.2022    0.5075 H   0  0  0  0  0  0  0  0  0  0  0  0
   -0.8293    3.2149    0.4048 H   0  0  0  0  0  0  0  0  0  0  0  0
    0.0782    3.3350   -1.0048 H   0  0  0  0  0  0  0  0  0  0  0  0
   -0.0001    1.3947    0.0006 C   0  0  0  0  0  0  0  0  0  0  0  0
   -1.1970    0.6928   -0.0045 C   0  0  0  0  0  0  0  0  0  0  0  0
   -2.0620    1.1802   -0.0126 H   0  0  0  0  0  0  0  0  0  0  0  0
   -1.1942   -0.6959    0.0000 C   0  0  0  0  0  0  0  0  0  0  0  0
   -2.0695   -1.1937    0.0006 H   0  0  0  0  0  0  0  0  0  0  0  0
    0.0071   -1.3841    0.0053 C   0  0  0  0  0  0  0  0  0  0  0  0
    0.0026   -2.3868    0.0123 H   0  0  0  0  0  0  0  0  0  0  0  0
    1.1942   -0.6911    0.0000 C   0  0  0  0  0  0  0  0  0  0  0  0
    2.0813   -1.1917   -0.0018 H   0  0  0  0  0  0  0  0  0  0  0  0
    1.1900    0.6837   -0.0014 C   0  0  0  0  0  0  0  0  0  0  0  0
    2.0610    1.1856   -0.0048 H   0  0  0  0  0  0  0  0  0  0  0  0
  1  5  1  0
  5  8  1  0
  1  2  1  0
  1  3  1  0
  1  4  1  0
  5  6  1  0
  5  7  1  0
  8  9  1  0
  8 10  1  0
  8 11  1  0
 12 16  1  0
 16 17  2  0
 17 19  1  0
 19 21  2  0
 21 23  1  0
 23 25  2  0
 25 16  1  0
 12 13  1  0
 12 14  1  0
 12 15  1  0
 17 18  1  0
 19 20  1  0
 21 22  1  0
 23 24  1  0
 25 26  1  0
M  CHG  1   8   1
M  END
>  <PDB_ID>  (3219) 
pdb6mx1

>  <RESIDUE_NAME>  (3219) 
VAL   PHE

>  <FRAG_NAME>  (3219) 
ETAM   MBZ

>  <FRAG_ATOM_NUM>  (3219) 
fragi: 11  fragj: 15

>  <atom.prop.CHAIN_ID>  (3219) 
A A A A A A A A A A A Z Z Z Z Z Z Z Z Z Z Z Z Z Z Z

>  <atom.prop.IS_HEAVY_ATOM>  (3219) 
1 0 0 0 1 0 0 1 0 0 0 1 0 0 0 1 1 0 1 0 1 0 1 0 1 0

>  <DIFUSE_FUNC_ATOM>  (3219) 
n/a

>  <FINAL_SINGLE_POINT_ENERGY>  (3219) 
0

>  <NONCOV_INTER_ENERGY_QM>  (3219) 
0

>  <FF_Energy>  (3219) 
-1.54

>  <QM_Energy>  (3219) 
-8.9

>  <source>  (3219) 
ETAM_MBZ

>  <Index>  (3219) 
35207

$$$$
ETAM-pdb6mya-D-LYS-171:MBZ-pdb6mya-D-PHE-116
     RDKit          3D

 26 25  0  0  0  0  0  0  0  0999 V2000
   -0.6177   -0.3231    4.6945 C   0  0  0  0  0  0  0  0  0  0  0  0
   -1.5138    0.0867    4.5806 H   0  0  0  0  0  0  0  0  0  0  0  0
   -0.2183   -0.0621    5.5638 H   0  0  0  0  0  0  0  0  0  0  0  0
   -0.7221   -1.4078    4.6667 H   0  0  0  0  0  0  0  0  0  0  0  0
    0.2852    0.1553    3.5777 C   0  0  0  0  0  0  0  0  0  0  0  0
    1.2224   -0.1936    3.7470 H   0  0  0  0  0  0  0  0  0  0  0  0
   -0.0330   -0.2543    2.7058 H   0  0  0  0  0  0  0  0  0  0  0  0
    0.3324    1.6214    3.4352 N   0  0  0  0  0  4  0  0  0  0  0  0
   -0.2807    1.9101    2.6974 H   0  0  0  0  0  0  0  0  0  0  0  0
    0.0432    2.0542    4.2912 H   0  0  0  0  0  0  0  0  0  0  0  0
    1.2676    1.9109    3.2193 H   0  0  0  0  0  0  0  0  0  0  0  0
   -0.0278    2.9277   -0.0084 C   0  0  0  0  0  0  0  0  0  0  0  0
    0.8579    3.2510    0.2820 H   0  0  0  0  0  0  0  0  0  0  0  0
   -0.7425    3.2228    0.6044 H   0  0  0  0  0  0  0  0  0  0  0  0
   -0.2331    3.3637   -0.9861 H   0  0  0  0  0  0  0  0  0  0  0  0
   -0.0010    1.4197   -0.0077 C   0  0  0  0  0  0  0  0  0  0  0  0
   -1.2054    0.6946   -0.0030 C   0  0  0  0  0  0  0  0  0  0  0  0
   -2.0729    1.1810   -0.0025 H   0  0  0  0  0  0  0  0  0  0  0  0
   -1.2155   -0.7149   -0.0000 C   0  0  0  0  0  0  0  0  0  0  0  0
   -2.0829   -1.2041    0.0012 H   0  0  0  0  0  0  0  0  0  0  0  0
    0.0059   -1.4159    0.0035 C   0  0  0  0  0  0  0  0  0  0  0  0
    0.0054   -2.4071    0.0078 H   0  0  0  0  0  0  0  0  0  0  0  0
    1.2155   -0.7028   -0.0000 C   0  0  0  0  0  0  0  0  0  0  0  0
    2.0965   -1.1841   -0.0059 H   0  0  0  0  0  0  0  0  0  0  0  0
    1.2004    0.7194    0.0072 C   0  0  0  0  0  0  0  0  0  0  0  0
    2.0680    1.2068    0.0221 H   0  0  0  0  0  0  0  0  0  0  0  0
  1  5  1  0
  5  8  1  0
  1  2  1  0
  1  3  1  0
  1  4  1  0
  5  6  1  0
  5  7  1  0
  8  9  1  0
  8 10  1  0
  8 11  1  0
 12 16  1  0
 16 17  2  0
 17 19  1  0
 19 21  2  0
 21 23  1  0
 23 25  2  0
 25 16  1  0
 12 13  1  0
 12 14  1  0
 12 15  1  0
 17 18  1  0
 19 20  1  0
 21 22  1  0
 23 24  1  0
 25 26  1  0
M  CHG  1   8   1
M  END
>  <PDB_ID>  (3220) 
pdb6mya

>  <RESIDUE_NAME>  (3220) 
LYS   PHE

>  <FRAG_NAME>  (3220) 
ETAM   MBZ

>  <FRAG_ATOM_NUM>  (3220) 
fragi: 11  fragj: 15

>  <atom.prop.CHAIN_ID>  (3220) 
A A A A A A A A A A A Z Z Z Z Z Z Z Z Z Z Z Z Z Z Z

>  <atom.prop.IS_HEAVY_ATOM>  (3220) 
1 0 0 0 1 0 0 1 0 0 0 1 0 0 0 1 1 0 1 0 1 0 1 0 1 0

>  <DIFUSE_FUNC_ATOM>  (3220) 
n/a

>  <FINAL_SINGLE_POINT_ENERGY>  (3220) 
0

>  <NONCOV_INTER_ENERGY_QM>  (3220) 
0

>  <FF_Energy>  (3220) 
-7.5

>  <QM_Energy>  (3220) 
-12.93

>  <source>  (3220) 
ETAM_MBZ

>  <Index>  (3220) 
35241

$$$$
ETAM-pdb5k5z-B-LYS-280:MBZ-pdb5k5z-B-PHE-295
     RDKit          3D

 26 25  0  0  0  0  0  0  0  0999 V2000
    5.2944   -1.2183   -1.8337 C   0  0  0  0  0  0  0  0  0  0  0  0
    6.1250   -0.8984   -2.2802 H   0  0  0  0  0  0  0  0  0  0  0  0
    5.3498   -2.1987   -1.6654 H   0  0  0  0  0  0  0  0  0  0  0  0
    5.1808   -0.6994   -0.8818 H   0  0  0  0  0  0  0  0  0  0  0  0
    4.1143   -0.9575   -2.7700 C   0  0  0  0  0  0  0  0  0  0  0  0
    3.6954   -0.0752   -2.5243 H   0  0  0  0  0  0  0  0  0  0  0  0
    4.4587   -0.8904   -3.7144 H   0  0  0  0  0  0  0  0  0  0  0  0
    3.0676   -2.0267   -2.7096 N   0  0  0  0  0  4  0  0  0  0  0  0
    2.3273   -1.7257   -2.1122 H   0  0  0  0  0  0  0  0  0  0  0  0
    2.7155   -2.1915   -3.6290 H   0  0  0  0  0  0  0  0  0  0  0  0
    3.4754   -2.8630   -2.3484 H   0  0  0  0  0  0  0  0  0  0  0  0
   -0.0062    2.8942    0.0089 C   0  0  0  0  0  0  0  0  0  0  0  0
   -0.7106    3.2038   -0.6098 H   0  0  0  0  0  0  0  0  0  0  0  0
    0.8871    3.2071   -0.2711 H   0  0  0  0  0  0  0  0  0  0  0  0
   -0.2146    3.3158    0.9922 H   0  0  0  0  0  0  0  0  0  0  0  0
   -0.0012    1.3946   -0.0044 C   0  0  0  0  0  0  0  0  0  0  0  0
   -1.1904    0.6885    0.0022 C   0  0  0  0  0  0  0  0  0  0  0  0
   -2.0602    1.1794    0.0079 H   0  0  0  0  0  0  0  0  0  0  0  0
   -1.1947   -0.6944    0.0000 C   0  0  0  0  0  0  0  0  0  0  0  0
   -2.0725   -1.1896    0.0008 H   0  0  0  0  0  0  0  0  0  0  0  0
    0.0006   -1.3851   -0.0014 C   0  0  0  0  0  0  0  0  0  0  0  0
   -0.0041   -2.3875   -0.0039 H   0  0  0  0  0  0  0  0  0  0  0  0
    1.1947   -0.6946   -0.0000 C   0  0  0  0  0  0  0  0  0  0  0  0
    2.0777   -1.1924    0.0001 H   0  0  0  0  0  0  0  0  0  0  0  0
    1.1910    0.6910    0.0036 C   0  0  0  0  0  0  0  0  0  0  0  0
    2.0604    1.1880    0.0112 H   0  0  0  0  0  0  0  0  0  0  0  0
  1  5  1  0
  5  8  1  0
  1  2  1  0
  1  3  1  0
  1  4  1  0
  5  6  1  0
  5  7  1  0
  8  9  1  0
  8 10  1  0
  8 11  1  0
 12 16  1  0
 16 17  2  0
 17 19  1  0
 19 21  2  0
 21 23  1  0
 23 25  2  0
 25 16  1  0
 12 13  1  0
 12 14  1  0
 12 15  1  0
 17 18  1  0
 19 20  1  0
 21 22  1  0
 23 24  1  0
 25 26  1  0
M  CHG  1   8   1
M  END
>  <PDB_ID>  (3221) 
pdb5k5z

>  <RESIDUE_NAME>  (3221) 
LYS   PHE

>  <FRAG_NAME>  (3221) 
ETAM   MBZ

>  <FRAG_ATOM_NUM>  (3221) 
fragi: 11  fragj: 15

>  <atom.prop.CHAIN_ID>  (3221) 
A A A A A A A A A A A Z Z Z Z Z Z Z Z Z Z Z Z Z Z Z

>  <atom.prop.IS_HEAVY_ATOM>  (3221) 
1 0 0 0 1 0 0 1 0 0 0 1 0 0 0 1 1 0 1 0 1 0 1 0 1 0

>  <DIFUSE_FUNC_ATOM>  (3221) 
n/a

>  <FINAL_SINGLE_POINT_ENERGY>  (3221) 
0

>  <NONCOV_INTER_ENERGY_QM>  (3221) 
0

>  <FF_Energy>  (3221) 
-1.93

>  <QM_Energy>  (3221) 
-7.99

>  <source>  (3221) 
ETAM_MBZ

>  <Index>  (3221) 
35243

$$$$
ETAM-pdb5k5z-A-LYS-94:MBZ-pdb5k5z-A-PHE-87
     RDKit          3D

 26 25  0  0  0  0  0  0  0  0999 V2000
    0.7303   -4.6515    0.8921 C   0  0  0  0  0  0  0  0  0  0  0  0
    0.9183   -5.6025    1.1411 H   0  0  0  0  0  0  0  0  0  0  0  0
   -0.1355   -4.6034    0.3929 H   0  0  0  0  0  0  0  0  0  0  0  0
    0.6437   -4.0612    1.8043 H   0  0  0  0  0  0  0  0  0  0  0  0
    1.8416   -4.1635   -0.0242 C   0  0  0  0  0  0  0  0  0  0  0  0
    1.8638   -3.1652   -0.0079 H   0  0  0  0  0  0  0  0  0  0  0  0
    2.7147   -4.5247    0.3001 H   0  0  0  0  0  0  0  0  0  0  0  0
    1.6125   -4.6249   -1.4267 N   0  0  0  0  0  4  0  0  0  0  0  0
    1.2917   -3.8562   -1.9777 H   0  0  0  0  0  0  0  0  0  0  0  0
    2.4697   -4.9742   -1.8015 H   0  0  0  0  0  0  0  0  0  0  0  0
    0.9242   -5.3491   -1.4262 H   0  0  0  0  0  0  0  0  0  0  0  0
    0.0038    2.9064   -0.0048 C   0  0  0  0  0  0  0  0  0  0  0  0
   -0.5699    3.2070   -0.7506 H   0  0  0  0  0  0  0  0  0  0  0  0
    0.9375    3.2074   -0.1206 H   0  0  0  0  0  0  0  0  0  0  0  0
   -0.3800    3.3496    0.9141 H   0  0  0  0  0  0  0  0  0  0  0  0
    0.0013    1.3970    0.0018 C   0  0  0  0  0  0  0  0  0  0  0  0
   -1.1902    0.6903   -0.0015 C   0  0  0  0  0  0  0  0  0  0  0  0
   -2.0587    1.1830   -0.0063 H   0  0  0  0  0  0  0  0  0  0  0  0
   -1.1955   -0.6927   -0.0000 C   0  0  0  0  0  0  0  0  0  0  0  0
   -2.0753   -1.1866    0.0028 H   0  0  0  0  0  0  0  0  0  0  0  0
   -0.0029   -1.3875   -0.0005 C   0  0  0  0  0  0  0  0  0  0  0  0
   -0.0072   -2.3878   -0.0021 H   0  0  0  0  0  0  0  0  0  0  0  0
    1.1955   -0.6954    0.0000 C   0  0  0  0  0  0  0  0  0  0  0  0
    2.0769   -1.1954    0.0018 H   0  0  0  0  0  0  0  0  0  0  0  0
    1.1918    0.6884    0.0002 C   0  0  0  0  0  0  0  0  0  0  0  0
    2.0626    1.1863   -0.0014 H   0  0  0  0  0  0  0  0  0  0  0  0
  1  5  1  0
  5  8  1  0
  1  2  1  0
  1  3  1  0
  1  4  1  0
  5  6  1  0
  5  7  1  0
  8  9  1  0
  8 10  1  0
  8 11  1  0
 12 16  1  0
 16 17  2  0
 17 19  1  0
 19 21  2  0
 21 23  1  0
 23 25  2  0
 25 16  1  0
 12 13  1  0
 12 14  1  0
 12 15  1  0
 17 18  1  0
 19 20  1  0
 21 22  1  0
 23 24  1  0
 25 26  1  0
M  CHG  1   8   1
M  END
>  <PDB_ID>  (3222) 
pdb5k5z

>  <RESIDUE_NAME>  (3222) 
LYS   PHE

>  <FRAG_NAME>  (3222) 
ETAM   MBZ

>  <FRAG_ATOM_NUM>  (3222) 
fragi: 11  fragj: 15

>  <atom.prop.CHAIN_ID>  (3222) 
A A A A A A A A A A A Z Z Z Z Z Z Z Z Z Z Z Z Z Z Z

>  <atom.prop.IS_HEAVY_ATOM>  (3222) 
1 0 0 0 1 0 0 1 0 0 0 1 0 0 0 1 1 0 1 0 1 0 1 0 1 0

>  <DIFUSE_FUNC_ATOM>  (3222) 
n/a

>  <FINAL_SINGLE_POINT_ENERGY>  (3222) 
0

>  <NONCOV_INTER_ENERGY_QM>  (3222) 
0

>  <FF_Energy>  (3222) 
4.9

>  <QM_Energy>  (3222) 
-3.37

>  <source>  (3222) 
ETAM_MBZ

>  <Index>  (3222) 
35259

$$$$
ETAM-pdb6n0b-A-LYS-298:MBZ-pdb6n0b-A-PHE-49
     RDKit          3D

 26 25  0  0  0  0  0  0  0  0999 V2000
    1.6902   -3.9450    2.7433 C   0  0  0  0  0  0  0  0  0  0  0  0
    0.9857   -4.1298    2.0578 H   0  0  0  0  0  0  0  0  0  0  0  0
    1.3123   -4.0918    3.6575 H   0  0  0  0  0  0  0  0  0  0  0  0
    2.5093   -4.6482    2.5923 H   0  0  0  0  0  0  0  0  0  0  0  0
    2.1409   -2.5325    2.6178 C   0  0  0  0  0  0  0  0  0  0  0  0
    2.9982   -2.3952    3.1189 H   0  0  0  0  0  0  0  0  0  0  0  0
    2.2850   -2.2974    1.6537 H   0  0  0  0  0  0  0  0  0  0  0  0
    1.1121   -1.5669    3.1827 N   0  0  0  0  0  4  0  0  0  0  0  0
    1.1679   -1.5911    4.1754 H   0  0  0  0  0  0  0  0  0  0  0  0
    1.3171   -0.6537    2.8457 H   0  0  0  0  0  0  0  0  0  0  0  0
    0.2098   -1.8541    2.8796 H   0  0  0  0  0  0  0  0  0  0  0  0
   -0.0164    2.8901    0.0138 C   0  0  0  0  0  0  0  0  0  0  0  0
   -0.8049    3.1948   -0.4993 H   0  0  0  0  0  0  0  0  0  0  0  0
    0.8247    3.2094   -0.3954 H   0  0  0  0  0  0  0  0  0  0  0  0
   -0.0830    3.3199    1.0133 H   0  0  0  0  0  0  0  0  0  0  0  0
   -0.0028    1.3938    0.0046 C   0  0  0  0  0  0  0  0  0  0  0  0
   -1.1874    0.6852    0.0060 C   0  0  0  0  0  0  0  0  0  0  0  0
   -2.0597    1.1742    0.0104 H   0  0  0  0  0  0  0  0  0  0  0  0
   -1.1874   -0.6953    0.0000 C   0  0  0  0  0  0  0  0  0  0  0  0
   -2.0698   -1.1904    0.0039 H   0  0  0  0  0  0  0  0  0  0  0  0
   -0.0008   -1.3847   -0.0090 C   0  0  0  0  0  0  0  0  0  0  0  0
   -0.0026   -2.3864   -0.0225 H   0  0  0  0  0  0  0  0  0  0  0  0
    1.1874   -0.6913    0.0000 C   0  0  0  0  0  0  0  0  0  0  0  0
    2.0748   -1.1914    0.0099 H   0  0  0  0  0  0  0  0  0  0  0  0
    1.1910    0.6923   -0.0016 C   0  0  0  0  0  0  0  0  0  0  0  0
    2.0585    1.1873   -0.0077 H   0  0  0  0  0  0  0  0  0  0  0  0
  1  5  1  0
  5  8  1  0
  1  2  1  0
  1  3  1  0
  1  4  1  0
  5  6  1  0
  5  7  1  0
  8  9  1  0
  8 10  1  0
  8 11  1  0
 12 16  1  0
 16 17  2  0
 17 19  1  0
 19 21  2  0
 21 23  1  0
 23 25  2  0
 25 16  1  0
 12 13  1  0
 12 14  1  0
 12 15  1  0
 17 18  1  0
 19 20  1  0
 21 22  1  0
 23 24  1  0
 25 26  1  0
M  CHG  1   8   1
M  END
>  <PDB_ID>  (3223) 
pdb6n0b

>  <RESIDUE_NAME>  (3223) 
LYS   PHE

>  <FRAG_NAME>  (3223) 
ETAM   MBZ

>  <FRAG_ATOM_NUM>  (3223) 
fragi: 11  fragj: 15

>  <atom.prop.CHAIN_ID>  (3223) 
A A A A A A A A A A A Z Z Z Z Z Z Z Z Z Z Z Z Z Z Z

>  <atom.prop.IS_HEAVY_ATOM>  (3223) 
1 0 0 0 1 0 0 1 0 0 0 1 0 0 0 1 1 0 1 0 1 0 1 0 1 0

>  <DIFUSE_FUNC_ATOM>  (3223) 
n/a

>  <FINAL_SINGLE_POINT_ENERGY>  (3223) 
0

>  <NONCOV_INTER_ENERGY_QM>  (3223) 
0

>  <FF_Energy>  (3223) 
-3.56

>  <QM_Energy>  (3223) 
-11.26

>  <source>  (3223) 
ETAM_MBZ

>  <Index>  (3223) 
35266

$$$$
ETAM-pdb6n0b-B-LYS-298:MBZ-pdb6n0b-B-PHE-49
     RDKit          3D

 26 25  0  0  0  0  0  0  0  0999 V2000
    0.5873   -3.9390    2.1938 C   0  0  0  0  0  0  0  0  0  0  0  0
    1.1209   -3.3815    1.5624 H   0  0  0  0  0  0  0  0  0  0  0  0
   -0.3063   -4.1413    1.8013 H   0  0  0  0  0  0  0  0  0  0  0  0
    1.1154   -4.8787    2.3557 H   0  0  0  0  0  0  0  0  0  0  0  0
    0.3958   -3.1749    3.4810 C   0  0  0  0  0  0  0  0  0  0  0  0
   -0.2587   -3.6638    4.0620 H   0  0  0  0  0  0  0  0  0  0  0  0
    1.2733   -3.1107    3.9627 H   0  0  0  0  0  0  0  0  0  0  0  0
   -0.1175   -1.7967    3.2273 N   0  0  0  0  0  4  0  0  0  0  0  0
   -1.0697   -1.8499    2.9303 H   0  0  0  0  0  0  0  0  0  0  0  0
   -0.0567   -1.2621    4.0696 H   0  0  0  0  0  0  0  0  0  0  0  0
    0.4344   -1.3651    2.5147 H   0  0  0  0  0  0  0  0  0  0  0  0
   -0.0017    2.8983    0.0042 C   0  0  0  0  0  0  0  0  0  0  0  0
   -0.7296    3.2047   -0.5904 H   0  0  0  0  0  0  0  0  0  0  0  0
    0.8803    3.2046   -0.3211 H   0  0  0  0  0  0  0  0  0  0  0  0
   -0.1664    3.3388    0.9875 H   0  0  0  0  0  0  0  0  0  0  0  0
   -0.0018    1.3975    0.0043 C   0  0  0  0  0  0  0  0  0  0  0  0
   -1.1899    0.6915    0.0021 C   0  0  0  0  0  0  0  0  0  0  0  0
   -2.0598    1.1800    0.0010 H   0  0  0  0  0  0  0  0  0  0  0  0
   -1.1918   -0.6932   -0.0000 C   0  0  0  0  0  0  0  0  0  0  0  0
   -2.0724   -1.1871    0.0059 H   0  0  0  0  0  0  0  0  0  0  0  0
   -0.0005   -1.3868   -0.0083 C   0  0  0  0  0  0  0  0  0  0  0  0
   -0.0053   -2.3881   -0.0212 H   0  0  0  0  0  0  0  0  0  0  0  0
    1.1918   -0.6959    0.0000 C   0  0  0  0  0  0  0  0  0  0  0  0
    2.0761   -1.1965    0.0061 H   0  0  0  0  0  0  0  0  0  0  0  0
    1.1921    0.6870    0.0019 C   0  0  0  0  0  0  0  0  0  0  0  0
    2.0608    1.1840    0.0007 H   0  0  0  0  0  0  0  0  0  0  0  0
  1  5  1  0
  5  8  1  0
  1  2  1  0
  1  3  1  0
  1  4  1  0
  5  6  1  0
  5  7  1  0
  8  9  1  0
  8 10  1  0
  8 11  1  0
 12 16  1  0
 16 17  2  0
 17 19  1  0
 19 21  2  0
 21 23  1  0
 23 25  2  0
 25 16  1  0
 12 13  1  0
 12 14  1  0
 12 15  1  0
 17 18  1  0
 19 20  1  0
 21 22  1  0
 23 24  1  0
 25 26  1  0
M  CHG  1   8   1
M  END
>  <PDB_ID>  (3224) 
pdb6n0b

>  <RESIDUE_NAME>  (3224) 
LYS   PHE

>  <FRAG_NAME>  (3224) 
ETAM   MBZ

>  <FRAG_ATOM_NUM>  (3224) 
fragi: 11  fragj: 15

>  <atom.prop.CHAIN_ID>  (3224) 
A A A A A A A A A A A Z Z Z Z Z Z Z Z Z Z Z Z Z Z Z

>  <atom.prop.IS_HEAVY_ATOM>  (3224) 
1 0 0 0 1 0 0 1 0 0 0 1 0 0 0 1 1 0 1 0 1 0 1 0 1 0

>  <DIFUSE_FUNC_ATOM>  (3224) 
n/a

>  <FINAL_SINGLE_POINT_ENERGY>  (3224) 
0

>  <NONCOV_INTER_ENERGY_QM>  (3224) 
0

>  <FF_Energy>  (3224) 
-5.37

>  <QM_Energy>  (3224) 
-12.28

>  <source>  (3224) 
ETAM_MBZ

>  <Index>  (3224) 
35275

$$$$
ETAM-pdb6n0b-D-LYS-298:MBZ-pdb6n0b-D-PHE-49
     RDKit          3D

 26 25  0  0  0  0  0  0  0  0999 V2000
    0.4256   -3.9495    3.6565 C   0  0  0  0  0  0  0  0  0  0  0  0
   -0.4805   -4.1453    3.2848 H   0  0  0  0  0  0  0  0  0  0  0  0
    0.3480   -3.7089    4.6227 H   0  0  0  0  0  0  0  0  0  0  0  0
    1.0465   -4.8403    3.5612 H   0  0  0  0  0  0  0  0  0  0  0  0
    1.0160   -2.7942    2.9148 C   0  0  0  0  0  0  0  0  0  0  0  0
    1.9350   -2.6109    3.2461 H   0  0  0  0  0  0  0  0  0  0  0  0
    1.0295   -2.9869    1.9398 H   0  0  0  0  0  0  0  0  0  0  0  0
    0.1688   -1.5782    3.1522 N   0  0  0  0  0  4  0  0  0  0  0  0
    0.5110   -0.8281    2.5900 H   0  0  0  0  0  0  0  0  0  0  0  0
   -0.7753   -1.7859    2.9035 H   0  0  0  0  0  0  0  0  0  0  0  0
    0.2195   -1.3301    4.1165 H   0  0  0  0  0  0  0  0  0  0  0  0
   -0.0079    2.8905    0.0163 C   0  0  0  0  0  0  0  0  0  0  0  0
   -0.7892    3.1980   -0.5060 H   0  0  0  0  0  0  0  0  0  0  0  0
    0.8394    3.2064   -0.3856 H   0  0  0  0  0  0  0  0  0  0  0  0
   -0.0843    3.3181    1.0160 H   0  0  0  0  0  0  0  0  0  0  0  0
    0.0010    1.3949    0.0036 C   0  0  0  0  0  0  0  0  0  0  0  0
   -1.1859    0.6881    0.0060 C   0  0  0  0  0  0  0  0  0  0  0  0
   -2.0568    1.1792    0.0112 H   0  0  0  0  0  0  0  0  0  0  0  0
   -1.1923   -0.6941    0.0000 C   0  0  0  0  0  0  0  0  0  0  0  0
   -2.0765   -1.1840    0.0059 H   0  0  0  0  0  0  0  0  0  0  0  0
   -0.0092   -1.3851   -0.0121 C   0  0  0  0  0  0  0  0  0  0  0  0
   -0.0085   -2.3864   -0.0300 H   0  0  0  0  0  0  0  0  0  0  0  0
    1.1923   -0.6926    0.0000 C   0  0  0  0  0  0  0  0  0  0  0  0
    2.0716   -1.1976    0.0089 H   0  0  0  0  0  0  0  0  0  0  0  0
    1.1941    0.6887    0.0025 C   0  0  0  0  0  0  0  0  0  0  0  0
    2.0619    1.1858    0.0030 H   0  0  0  0  0  0  0  0  0  0  0  0
  1  5  1  0
  5  8  1  0
  1  2  1  0
  1  3  1  0
  1  4  1  0
  5  6  1  0
  5  7  1  0
  8  9  1  0
  8 10  1  0
  8 11  1  0
 12 16  1  0
 16 17  2  0
 17 19  1  0
 19 21  2  0
 21 23  1  0
 23 25  2  0
 25 16  1  0
 12 13  1  0
 12 14  1  0
 12 15  1  0
 17 18  1  0
 19 20  1  0
 21 22  1  0
 23 24  1  0
 25 26  1  0
M  CHG  1   8   1
M  END
>  <PDB_ID>  (3225) 
pdb6n0b

>  <RESIDUE_NAME>  (3225) 
LYS   PHE

>  <FRAG_NAME>  (3225) 
ETAM   MBZ

>  <FRAG_ATOM_NUM>  (3225) 
fragi: 11  fragj: 15

>  <atom.prop.CHAIN_ID>  (3225) 
A A A A A A A A A A A Z Z Z Z Z Z Z Z Z Z Z Z Z Z Z

>  <atom.prop.IS_HEAVY_ATOM>  (3225) 
1 0 0 0 1 0 0 1 0 0 0 1 0 0 0 1 1 0 1 0 1 0 1 0 1 0

>  <DIFUSE_FUNC_ATOM>  (3225) 
n/a

>  <FINAL_SINGLE_POINT_ENERGY>  (3225) 
0

>  <NONCOV_INTER_ENERGY_QM>  (3225) 
0

>  <FF_Energy>  (3225) 
-5.92

>  <QM_Energy>  (3225) 
-13.47

>  <source>  (3225) 
ETAM_MBZ

>  <Index>  (3225) 
35276

$$$$
ETAM-pdb6n2f-A-LYS-375:MBZ-pdb6n2f-A-PHE-372
     RDKit          3D

 26 25  0  0  0  0  0  0  0  0999 V2000
   -1.1332   -0.1592   -4.2889 C   0  0  0  0  0  0  0  0  0  0  0  0
   -1.6052   -1.0451   -4.2028 H   0  0  0  0  0  0  0  0  0  0  0  0
   -0.7974   -0.0690   -5.2343 H   0  0  0  0  0  0  0  0  0  0  0  0
   -1.8546    0.6357   -4.1004 H   0  0  0  0  0  0  0  0  0  0  0  0
    0.0586   -0.1552   -3.3526 C   0  0  0  0  0  0  0  0  0  0  0  0
   -0.2381    0.1738   -2.4501 H   0  0  0  0  0  0  0  0  0  0  0  0
    0.3988   -1.0960   -3.2540 H   0  0  0  0  0  0  0  0  0  0  0  0
    1.1533    0.7096   -3.8524 N   0  0  0  0  0  4  0  0  0  0  0  0
    2.0237    0.2200   -3.7861 H   0  0  0  0  0  0  0  0  0  0  0  0
    0.9800    0.9507   -4.8081 H   0  0  0  0  0  0  0  0  0  0  0  0
    1.1984    1.5447   -3.3023 H   0  0  0  0  0  0  0  0  0  0  0  0
    0.0014    2.9094    0.0134 C   0  0  0  0  0  0  0  0  0  0  0  0
   -0.7431    3.2243   -0.5526 H   0  0  0  0  0  0  0  0  0  0  0  0
    0.8740    3.2202   -0.3281 H   0  0  0  0  0  0  0  0  0  0  0  0
   -0.1359    3.3306    1.0093 H   0  0  0  0  0  0  0  0  0  0  0  0
    0.0012    1.4062   -0.0082 C   0  0  0  0  0  0  0  0  0  0  0  0
   -1.1915    0.6943   -0.0039 C   0  0  0  0  0  0  0  0  0  0  0  0
   -2.0612    1.1783   -0.0051 H   0  0  0  0  0  0  0  0  0  0  0  0
   -1.1886   -0.6992   -0.0000 C   0  0  0  0  0  0  0  0  0  0  0  0
   -2.0730   -1.1896   -0.0071 H   0  0  0  0  0  0  0  0  0  0  0  0
   -0.0011   -1.3949    0.0148 C   0  0  0  0  0  0  0  0  0  0  0  0
   -0.0053   -2.3939    0.0354 H   0  0  0  0  0  0  0  0  0  0  0  0
    1.1886   -0.6995    0.0000 C   0  0  0  0  0  0  0  0  0  0  0  0
    2.0762   -1.1950   -0.0080 H   0  0  0  0  0  0  0  0  0  0  0  0
    1.1914    0.6931   -0.0027 C   0  0  0  0  0  0  0  0  0  0  0  0
    2.0635    1.1827   -0.0012 H   0  0  0  0  0  0  0  0  0  0  0  0
  1  5  1  0
  5  8  1  0
  1  2  1  0
  1  3  1  0
  1  4  1  0
  5  6  1  0
  5  7  1  0
  8  9  1  0
  8 10  1  0
  8 11  1  0
 12 16  1  0
 16 17  2  0
 17 19  1  0
 19 21  2  0
 21 23  1  0
 23 25  2  0
 25 16  1  0
 12 13  1  0
 12 14  1  0
 12 15  1  0
 17 18  1  0
 19 20  1  0
 21 22  1  0
 23 24  1  0
 25 26  1  0
M  CHG  1   8   1
M  END
>  <PDB_ID>  (3226) 
pdb6n2f

>  <RESIDUE_NAME>  (3226) 
LYS   PHE

>  <FRAG_NAME>  (3226) 
ETAM   MBZ

>  <FRAG_ATOM_NUM>  (3226) 
fragi: 11  fragj: 15

>  <atom.prop.CHAIN_ID>  (3226) 
A A A A A A A A A A A Z Z Z Z Z Z Z Z Z Z Z Z Z Z Z

>  <atom.prop.IS_HEAVY_ATOM>  (3226) 
1 0 0 0 1 0 0 1 0 0 0 1 0 0 0 1 1 0 1 0 1 0 1 0 1 0

>  <DIFUSE_FUNC_ATOM>  (3226) 
n/a

>  <FINAL_SINGLE_POINT_ENERGY>  (3226) 
0

>  <NONCOV_INTER_ENERGY_QM>  (3226) 
0

>  <FF_Energy>  (3226) 
-6.02

>  <QM_Energy>  (3226) 
-11.37

>  <source>  (3226) 
ETAM_MBZ

>  <Index>  (3226) 
35314

$$$$
ETAM-pdb6n2a-D-LYS-371:MBZ-pdb6n2a-D-PHE-368
     RDKit          3D

 26 25  0  0  0  0  0  0  0  0999 V2000
    1.1229   -0.3276    4.4692 C   0  0  0  0  0  0  0  0  0  0  0  0
    1.6359   -1.1941    4.4999 H   0  0  0  0  0  0  0  0  0  0  0  0
    0.9108   -0.0526    5.4148 H   0  0  0  0  0  0  0  0  0  0  0  0
    1.7633    0.4343    4.0248 H   0  0  0  0  0  0  0  0  0  0  0  0
   -0.1800   -0.5634    3.7313 C   0  0  0  0  0  0  0  0  0  0  0  0
    0.0270   -0.8364    2.7894 H   0  0  0  0  0  0  0  0  0  0  0  0
   -0.6780   -1.3060    4.1843 H   0  0  0  0  0  0  0  0  0  0  0  0
   -1.0071    0.6531    3.7232 N   0  0  0  0  0  4  0  0  0  0  0  0
   -1.9058    0.4559    4.1212 H   0  0  0  0  0  0  0  0  0  0  0  0
   -0.5605    1.3715    4.2611 H   0  0  0  0  0  0  0  0  0  0  0  0
   -1.1292    0.9749    2.7819 H   0  0  0  0  0  0  0  0  0  0  0  0
   -0.0041    2.8983   -0.0214 C   0  0  0  0  0  0  0  0  0  0  0  0
    0.8371    3.2213    0.3848 H   0  0  0  0  0  0  0  0  0  0  0  0
   -0.7927    3.2168    0.4810 H   0  0  0  0  0  0  0  0  0  0  0  0
   -0.0648    3.3155   -1.0266 H   0  0  0  0  0  0  0  0  0  0  0  0
    0.0019    1.3974    0.0152 C   0  0  0  0  0  0  0  0  0  0  0  0
   -1.1940    0.6887    0.0201 C   0  0  0  0  0  0  0  0  0  0  0  0
   -2.0598    1.1778    0.0368 H   0  0  0  0  0  0  0  0  0  0  0  0
   -1.1935   -0.6985    0.0000 C   0  0  0  0  0  0  0  0  0  0  0  0
   -2.0726   -1.1934   -0.0152 H   0  0  0  0  0  0  0  0  0  0  0  0
   -0.0004   -1.3831    0.0027 C   0  0  0  0  0  0  0  0  0  0  0  0
   -0.0028   -2.3884    0.0062 H   0  0  0  0  0  0  0  0  0  0  0  0
    1.1935   -0.6951   -0.0000 C   0  0  0  0  0  0  0  0  0  0  0  0
    2.0765   -1.1933    0.0277 H   0  0  0  0  0  0  0  0  0  0  0  0
    1.1925    0.6907   -0.0380 C   0  0  0  0  0  0  0  0  0  0  0  0
    2.0596    1.1849   -0.1052 H   0  0  0  0  0  0  0  0  0  0  0  0
  1  5  1  0
  5  8  1  0
  1  2  1  0
  1  3  1  0
  1  4  1  0
  5  6  1  0
  5  7  1  0
  8  9  1  0
  8 10  1  0
  8 11  1  0
 12 16  1  0
 16 17  2  0
 17 19  1  0
 19 21  2  0
 21 23  1  0
 23 25  2  0
 25 16  1  0
 12 13  1  0
 12 14  1  0
 12 15  1  0
 17 18  1  0
 19 20  1  0
 21 22  1  0
 23 24  1  0
 25 26  1  0
M  CHG  1   8   1
M  END
>  <PDB_ID>  (3227) 
pdb6n2a

>  <RESIDUE_NAME>  (3227) 
LYS   PHE

>  <FRAG_NAME>  (3227) 
ETAM   MBZ

>  <FRAG_ATOM_NUM>  (3227) 
fragi: 11  fragj: 15

>  <atom.prop.CHAIN_ID>  (3227) 
A A A A A A A A A A A Z Z Z Z Z Z Z Z Z Z Z Z Z Z Z

>  <atom.prop.IS_HEAVY_ATOM>  (3227) 
1 0 0 0 1 0 0 1 0 0 0 1 0 0 0 1 1 0 1 0 1 0 1 0 1 0

>  <DIFUSE_FUNC_ATOM>  (3227) 
n/a

>  <FINAL_SINGLE_POINT_ENERGY>  (3227) 
0

>  <NONCOV_INTER_ENERGY_QM>  (3227) 
0

>  <FF_Energy>  (3227) 
-7.16

>  <QM_Energy>  (3227) 
-12.69

>  <source>  (3227) 
ETAM_MBZ

>  <Index>  (3227) 
35316

$$$$
ETAM-pdb6n2f-B-LYS-375:MBZ-pdb6n2f-B-PHE-372
     RDKit          3D

 26 25  0  0  0  0  0  0  0  0999 V2000
   -1.4891   -0.9302   -4.3121 C   0  0  0  0  0  0  0  0  0  0  0  0
   -2.0465   -1.7675   -4.2493 H   0  0  0  0  0  0  0  0  0  0  0  0
   -1.2459   -0.7848   -5.2786 H   0  0  0  0  0  0  0  0  0  0  0  0
   -2.0985   -0.0889   -3.9820 H   0  0  0  0  0  0  0  0  0  0  0  0
   -0.2162   -1.1352   -3.5184 C   0  0  0  0  0  0  0  0  0  0  0  0
   -0.4544   -1.3577   -2.5722 H   0  0  0  0  0  0  0  0  0  0  0  0
    0.2979   -1.8958   -3.9172 H   0  0  0  0  0  0  0  0  0  0  0  0
    0.6198    0.0861   -3.5402 N   0  0  0  0  0  4  0  0  0  0  0  0
    0.0417    0.8861   -3.7098 H   0  0  0  0  0  0  0  0  0  0  0  0
    1.0821    0.1920   -2.6583 H   0  0  0  0  0  0  0  0  0  0  0  0
    1.3041    0.0114   -4.2665 H   0  0  0  0  0  0  0  0  0  0  0  0
    0.0015    2.9096   -0.0127 C   0  0  0  0  0  0  0  0  0  0  0  0
   -0.7566    3.2112   -0.5724 H   0  0  0  0  0  0  0  0  0  0  0  0
    0.8662    3.2110   -0.3870 H   0  0  0  0  0  0  0  0  0  0  0  0
   -0.1108    3.3605    0.9733 H   0  0  0  0  0  0  0  0  0  0  0  0
    0.0005    1.4012   -0.0046 C   0  0  0  0  0  0  0  0  0  0  0  0
   -1.1933    0.6867    0.0108 C   0  0  0  0  0  0  0  0  0  0  0  0
   -2.0610    1.1744    0.0288 H   0  0  0  0  0  0  0  0  0  0  0  0
   -1.1891   -0.6980   -0.0000 C   0  0  0  0  0  0  0  0  0  0  0  0
   -2.0693   -1.1951   -0.0016 H   0  0  0  0  0  0  0  0  0  0  0  0
    0.0034   -1.3865   -0.0067 C   0  0  0  0  0  0  0  0  0  0  0  0
   -0.0011   -2.3896   -0.0170 H   0  0  0  0  0  0  0  0  0  0  0  0
    1.1891   -0.6954    0.0000 C   0  0  0  0  0  0  0  0  0  0  0  0
    2.0780   -1.1910    0.0061 H   0  0  0  0  0  0  0  0  0  0  0  0
    1.1894    0.6921    0.0005 C   0  0  0  0  0  0  0  0  0  0  0  0
    2.0617    1.1851    0.0037 H   0  0  0  0  0  0  0  0  0  0  0  0
  1  5  1  0
  5  8  1  0
  1  2  1  0
  1  3  1  0
  1  4  1  0
  5  6  1  0
  5  7  1  0
  8  9  1  0
  8 10  1  0
  8 11  1  0
 12 16  1  0
 16 17  2  0
 17 19  1  0
 19 21  2  0
 21 23  1  0
 23 25  2  0
 25 16  1  0
 12 13  1  0
 12 14  1  0
 12 15  1  0
 17 18  1  0
 19 20  1  0
 21 22  1  0
 23 24  1  0
 25 26  1  0
M  CHG  1   8   1
M  END
>  <PDB_ID>  (3228) 
pdb6n2f

>  <RESIDUE_NAME>  (3228) 
LYS   PHE

>  <FRAG_NAME>  (3228) 
ETAM   MBZ

>  <FRAG_ATOM_NUM>  (3228) 
fragi: 11  fragj: 15

>  <atom.prop.CHAIN_ID>  (3228) 
A A A A A A A A A A A Z Z Z Z Z Z Z Z Z Z Z Z Z Z Z

>  <atom.prop.IS_HEAVY_ATOM>  (3228) 
1 0 0 0 1 0 0 1 0 0 0 1 0 0 0 1 1 0 1 0 1 0 1 0 1 0

>  <DIFUSE_FUNC_ATOM>  (3228) 
n/a

>  <FINAL_SINGLE_POINT_ENERGY>  (3228) 
0

>  <NONCOV_INTER_ENERGY_QM>  (3228) 
0

>  <FF_Energy>  (3228) 
-7.52

>  <QM_Energy>  (3228) 
-14.0

>  <source>  (3228) 
ETAM_MBZ

>  <Index>  (3228) 
35320

$$$$
ETAM-pdb6n08-A-LYS-259:MBZ-pdb6n08-A-PHE-174
     RDKit          3D

 26 25  0  0  0  0  0  0  0  0999 V2000
    1.9849    0.0182    4.2137 C   0  0  0  0  0  0  0  0  0  0  0  0
    2.1326   -0.5561    5.0285 H   0  0  0  0  0  0  0  0  0  0  0  0
    1.9264    0.9796    4.5105 H   0  0  0  0  0  0  0  0  0  0  0  0
    2.8460   -0.0894    3.5540 H   0  0  0  0  0  0  0  0  0  0  0  0
    0.6414   -0.3723    3.5919 C   0  0  0  0  0  0  0  0  0  0  0  0
   -0.0956    0.1058    4.0953 H   0  0  0  0  0  0  0  0  0  0  0  0
    0.6207   -0.0371    2.6357 H   0  0  0  0  0  0  0  0  0  0  0  0
    0.3629   -1.8374    3.5987 N   0  0  0  0  0  4  0  0  0  0  0  0
    0.4502   -2.1851    4.5311 H   0  0  0  0  0  0  0  0  0  0  0  0
   -0.5653   -1.9986    3.2646 H   0  0  0  0  0  0  0  0  0  0  0  0
    1.0193   -2.3010    3.0042 H   0  0  0  0  0  0  0  0  0  0  0  0
    0.0001    2.9282   -0.0231 C   0  0  0  0  0  0  0  0  0  0  0  0
    0.8684    3.2387    0.3198 H   0  0  0  0  0  0  0  0  0  0  0  0
   -0.7503    3.2398    0.5314 H   0  0  0  0  0  0  0  0  0  0  0  0
   -0.1299    3.3510   -1.0193 H   0  0  0  0  0  0  0  0  0  0  0  0
    0.0011    1.4125   -0.0047 C   0  0  0  0  0  0  0  0  0  0  0  0
   -1.1968    0.6959    0.0068 C   0  0  0  0  0  0  0  0  0  0  0  0
   -2.0656    1.1803    0.0189 H   0  0  0  0  0  0  0  0  0  0  0  0
   -1.2021   -0.7090    0.0000 C   0  0  0  0  0  0  0  0  0  0  0  0
   -2.0795   -1.1949   -0.0062 H   0  0  0  0  0  0  0  0  0  0  0  0
   -0.0007   -1.4033    0.0042 C   0  0  0  0  0  0  0  0  0  0  0  0
    0.0031   -2.3989    0.0094 H   0  0  0  0  0  0  0  0  0  0  0  0
    1.2021   -0.6965   -0.0000 C   0  0  0  0  0  0  0  0  0  0  0  0
    2.0847   -1.1917    0.0031 H   0  0  0  0  0  0  0  0  0  0  0  0
    1.1964    0.7003   -0.0062 C   0  0  0  0  0  0  0  0  0  0  0  0
    2.0668    1.1941   -0.0129 H   0  0  0  0  0  0  0  0  0  0  0  0
  1  5  1  0
  5  8  1  0
  1  2  1  0
  1  3  1  0
  1  4  1  0
  5  6  1  0
  5  7  1  0
  8  9  1  0
  8 10  1  0
  8 11  1  0
 12 16  1  0
 16 17  2  0
 17 19  1  0
 19 21  2  0
 21 23  1  0
 23 25  2  0
 25 16  1  0
 12 13  1  0
 12 14  1  0
 12 15  1  0
 17 18  1  0
 19 20  1  0
 21 22  1  0
 23 24  1  0
 25 26  1  0
M  CHG  1   8   1
M  END
>  <PDB_ID>  (3229) 
pdb6n08

>  <RESIDUE_NAME>  (3229) 
LYS   PHE

>  <FRAG_NAME>  (3229) 
ETAM   MBZ

>  <FRAG_ATOM_NUM>  (3229) 
fragi: 11  fragj: 15

>  <atom.prop.CHAIN_ID>  (3229) 
A A A A A A A A A A A Z Z Z Z Z Z Z Z Z Z Z Z Z Z Z

>  <atom.prop.IS_HEAVY_ATOM>  (3229) 
1 0 0 0 1 0 0 1 0 0 0 1 0 0 0 1 1 0 1 0 1 0 1 0 1 0

>  <DIFUSE_FUNC_ATOM>  (3229) 
n/a

>  <FINAL_SINGLE_POINT_ENERGY>  (3229) 
0

>  <NONCOV_INTER_ENERGY_QM>  (3229) 
0

>  <FF_Energy>  (3229) 
-5.51

>  <QM_Energy>  (3229) 
-11.61

>  <source>  (3229) 
ETAM_MBZ

>  <Index>  (3229) 
35323

$$$$
ETAM-pdb6n2f-A-LYS-37:MBZ-pdb6n2f-A-PHE-30
     RDKit          3D

 26 25  0  0  0  0  0  0  0  0999 V2000
   -0.6306    1.4729    3.6741 C   0  0  0  0  0  0  0  0  0  0  0  0
   -1.4489    0.9128    3.7860 H   0  0  0  0  0  0  0  0  0  0  0  0
   -0.3973    1.5401    2.7058 H   0  0  0  0  0  0  0  0  0  0  0  0
   -0.8314    2.4725    4.0596 H   0  0  0  0  0  0  0  0  0  0  0  0
    0.5160    0.8052    4.4024 C   0  0  0  0  0  0  0  0  0  0  0  0
    1.3083    1.4206    4.3969 H   0  0  0  0  0  0  0  0  0  0  0  0
    0.2440    0.6336    5.3525 H   0  0  0  0  0  0  0  0  0  0  0  0
    0.8863   -0.4753    3.7602 N   0  0  0  0  0  4  0  0  0  0  0  0
    0.4304   -1.2317    4.2307 H   0  0  0  0  0  0  0  0  0  0  0  0
    0.6038   -0.4638    2.7999 H   0  0  0  0  0  0  0  0  0  0  0  0
    1.8777   -0.6024    3.8123 H   0  0  0  0  0  0  0  0  0  0  0  0
    0.0131    2.9062    0.0156 C   0  0  0  0  0  0  0  0  0  0  0  0
    0.8934    3.1996    0.3726 H   0  0  0  0  0  0  0  0  0  0  0  0
   -0.7221    3.2094    0.6128 H   0  0  0  0  0  0  0  0  0  0  0  0
   -0.1279    3.3843   -0.9538 H   0  0  0  0  0  0  0  0  0  0  0  0
    0.0013    1.4001   -0.0021 C   0  0  0  0  0  0  0  0  0  0  0  0
   -1.1945    0.6992   -0.0068 C   0  0  0  0  0  0  0  0  0  0  0  0
   -2.0598    1.1880   -0.0160 H   0  0  0  0  0  0  0  0  0  0  0  0
   -1.1954   -0.6901   -0.0000 C   0  0  0  0  0  0  0  0  0  0  0  0
   -2.0773   -1.1830    0.0129 H   0  0  0  0  0  0  0  0  0  0  0  0
   -0.0024   -1.3881   -0.0092 C   0  0  0  0  0  0  0  0  0  0  0  0
   -0.0132   -2.3896   -0.0230 H   0  0  0  0  0  0  0  0  0  0  0  0
    1.1954   -0.7047    0.0000 C   0  0  0  0  0  0  0  0  0  0  0  0
    2.0765   -1.2042   -0.0045 H   0  0  0  0  0  0  0  0  0  0  0  0
    1.1956    0.6834    0.0180 C   0  0  0  0  0  0  0  0  0  0  0  0
    2.0658    1.1781    0.0450 H   0  0  0  0  0  0  0  0  0  0  0  0
  1  5  1  0
  5  8  1  0
  1  2  1  0
  1  3  1  0
  1  4  1  0
  5  6  1  0
  5  7  1  0
  8  9  1  0
  8 10  1  0
  8 11  1  0
 12 16  1  0
 16 17  2  0
 17 19  1  0
 19 21  2  0
 21 23  1  0
 23 25  2  0
 25 16  1  0
 12 13  1  0
 12 14  1  0
 12 15  1  0
 17 18  1  0
 19 20  1  0
 21 22  1  0
 23 24  1  0
 25 26  1  0
M  CHG  1   8   1
M  END
>  <PDB_ID>  (3230) 
pdb6n2f

>  <RESIDUE_NAME>  (3230) 
LYS   PHE

>  <FRAG_NAME>  (3230) 
ETAM   MBZ

>  <FRAG_ATOM_NUM>  (3230) 
fragi: 11  fragj: 15

>  <atom.prop.CHAIN_ID>  (3230) 
A A A A A A A A A A A Z Z Z Z Z Z Z Z Z Z Z Z Z Z Z

>  <atom.prop.IS_HEAVY_ATOM>  (3230) 
1 0 0 0 1 0 0 1 0 0 0 1 0 0 0 1 1 0 1 0 1 0 1 0 1 0

>  <DIFUSE_FUNC_ATOM>  (3230) 
n/a

>  <FINAL_SINGLE_POINT_ENERGY>  (3230) 
0

>  <NONCOV_INTER_ENERGY_QM>  (3230) 
0

>  <FF_Energy>  (3230) 
-7.19

>  <QM_Energy>  (3230) 
-12.75

>  <source>  (3230) 
ETAM_MBZ

>  <Index>  (3230) 
35326

$$$$
ETAM-pdb5k89-H-LYS-35:MBZ-pdb5k89-C-PHE-89
     RDKit          3D

 26 25  0  0  0  0  0  0  0  0999 V2000
    3.0466   -1.4604   -4.2088 C   0  0  0  0  0  0  0  0  0  0  0  0
    3.5899   -1.5440   -3.3700 H   0  0  0  0  0  0  0  0  0  0  0  0
    3.6411   -1.1598   -4.9573 H   0  0  0  0  0  0  0  0  0  0  0  0
    2.6359   -2.4388   -4.4584 H   0  0  0  0  0  0  0  0  0  0  0  0
    1.9788   -0.4102   -3.9890 C   0  0  0  0  0  0  0  0  0  0  0  0
    1.6093   -0.1307   -4.8698 H   0  0  0  0  0  0  0  0  0  0  0  0
    1.2569   -0.7924   -3.4199 H   0  0  0  0  0  0  0  0  0  0  0  0
    2.5729    0.7652   -3.3081 N   0  0  0  0  0  4  0  0  0  0  0  0
    2.5837    0.6090   -2.3200 H   0  0  0  0  0  0  0  0  0  0  0  0
    3.5087    0.9025   -3.6344 H   0  0  0  0  0  0  0  0  0  0  0  0
    2.0273    1.5794   -3.5100 H   0  0  0  0  0  0  0  0  0  0  0  0
   -0.0020    2.8824   -0.0029 C   0  0  0  0  0  0  0  0  0  0  0  0
    0.6528    3.1950    0.6663 H   0  0  0  0  0  0  0  0  0  0  0  0
   -0.9154    3.1912    0.2089 H   0  0  0  0  0  0  0  0  0  0  0  0
    0.2782    3.3045   -0.9680 H   0  0  0  0  0  0  0  0  0  0  0  0
   -0.0015    1.3853    0.0077 C   0  0  0  0  0  0  0  0  0  0  0  0
   -1.1951    0.6825   -0.0055 C   0  0  0  0  0  0  0  0  0  0  0  0
   -2.0604    1.1801   -0.0201 H   0  0  0  0  0  0  0  0  0  0  0  0
   -1.1984   -0.6894    0.0000 C   0  0  0  0  0  0  0  0  0  0  0  0
   -2.0734   -1.1922    0.0058 H   0  0  0  0  0  0  0  0  0  0  0  0
    0.0003   -1.3753   -0.0005 C   0  0  0  0  0  0  0  0  0  0  0  0
   -0.0014   -2.3794   -0.0013 H   0  0  0  0  0  0  0  0  0  0  0  0
    1.1984   -0.6850   -0.0000 C   0  0  0  0  0  0  0  0  0  0  0  0
    2.0783   -1.1944    0.0032 H   0  0  0  0  0  0  0  0  0  0  0  0
    1.1964    0.6819   -0.0017 C   0  0  0  0  0  0  0  0  0  0  0  0
    2.0604    1.1889   -0.0103 H   0  0  0  0  0  0  0  0  0  0  0  0
  1  5  1  0
  5  8  1  0
  1  2  1  0
  1  3  1  0
  1  4  1  0
  5  6  1  0
  5  7  1  0
  8  9  1  0
  8 10  1  0
  8 11  1  0
 12 16  1  0
 16 17  2  0
 17 19  1  0
 19 21  2  0
 21 23  1  0
 23 25  2  0
 25 16  1  0
 12 13  1  0
 12 14  1  0
 12 15  1  0
 17 18  1  0
 19 20  1  0
 21 22  1  0
 23 24  1  0
 25 26  1  0
M  CHG  1   8   1
M  END
>  <PDB_ID>  (3231) 
pdb5k89

>  <RESIDUE_NAME>  (3231) 
LYS   PHE

>  <FRAG_NAME>  (3231) 
ETAM   MBZ

>  <FRAG_ATOM_NUM>  (3231) 
fragi: 11  fragj: 15

>  <atom.prop.CHAIN_ID>  (3231) 
A A A A A A A A A A A Z Z Z Z Z Z Z Z Z Z Z Z Z Z Z

>  <atom.prop.IS_HEAVY_ATOM>  (3231) 
1 0 0 0 1 0 0 1 0 0 0 1 0 0 0 1 1 0 1 0 1 0 1 0 1 0

>  <DIFUSE_FUNC_ATOM>  (3231) 
n/a

>  <FINAL_SINGLE_POINT_ENERGY>  (3231) 
0

>  <NONCOV_INTER_ENERGY_QM>  (3231) 
0

>  <FF_Energy>  (3231) 
-4.08

>  <QM_Energy>  (3231) 
-9.28

>  <source>  (3231) 
ETAM_MBZ

>  <Index>  (3231) 
35334

$$$$
ETAM-pdb6n3p-L-ILE-3:MBZ-pdb6n3p-L-PHE-50
     RDKit          3D

 26 25  0  0  0  0  0  0  0  0999 V2000
    0.1684   -5.9764    3.4354 C   0  0  0  0  0  0  0  0  0  0  0  0
   -0.6555   -6.0916    2.8937 H   0  0  0  0  0  0  0  0  0  0  0  0
   -0.1218   -5.6753    4.4420 H   0  0  0  0  0  0  0  0  0  0  0  0
    0.7313   -6.9021    3.5552 H   0  0  0  0  0  0  0  0  0  0  0  0
    1.0153   -4.8656    2.7732 C   0  0  0  0  0  0  0  0  0  0  0  0
    1.8610   -4.6928    3.2618 H   0  0  0  0  0  0  0  0  0  0  0  0
    1.2945   -5.1084    1.7479 H   0  0  0  0  0  0  0  0  0  0  0  0
    0.2914   -3.6041    2.7367 N   0  0  0  0  0  4  0  0  0  0  0  0
    0.0614   -3.3119    3.6679 H   0  0  0  0  0  0  0  0  0  0  0  0
    0.8546   -2.8960    2.3050 H   0  0  0  0  0  0  0  0  0  0  0  0
   -0.5563   -3.7079    2.2114 H   0  0  0  0  0  0  0  0  0  0  0  0
   -0.0157    2.8930    0.0057 C   0  0  0  0  0  0  0  0  0  0  0  0
    0.5646    3.2094   -0.7292 H   0  0  0  0  0  0  0  0  0  0  0  0
    0.3174    3.1992    0.8850 H   0  0  0  0  0  0  0  0  0  0  0  0
   -1.0061    3.3233   -0.1429 H   0  0  0  0  0  0  0  0  0  0  0  0
   -0.0019    1.3934   -0.0021 C   0  0  0  0  0  0  0  0  0  0  0  0
   -1.1887    0.6810    0.0002 C   0  0  0  0  0  0  0  0  0  0  0  0
   -2.0601    1.1730    0.0004 H   0  0  0  0  0  0  0  0  0  0  0  0
   -1.1893   -0.6960   -0.0000 C   0  0  0  0  0  0  0  0  0  0  0  0
   -2.0683   -1.1943    0.0010 H   0  0  0  0  0  0  0  0  0  0  0  0
    0.0021   -1.3821    0.0005 C   0  0  0  0  0  0  0  0  0  0  0  0
    0.0010   -2.3852    0.0005 H   0  0  0  0  0  0  0  0  0  0  0  0
    1.1893   -0.6891    0.0000 C   0  0  0  0  0  0  0  0  0  0  0  0
    2.0774   -1.1876   -0.0002 H   0  0  0  0  0  0  0  0  0  0  0  0
    1.1885    0.6928    0.0014 C   0  0  0  0  0  0  0  0  0  0  0  0
    2.0578    1.1892    0.0046 H   0  0  0  0  0  0  0  0  0  0  0  0
  1  5  1  0
  5  8  1  0
  1  2  1  0
  1  3  1  0
  1  4  1  0
  5  6  1  0
  5  7  1  0
  8  9  1  0
  8 10  1  0
  8 11  1  0
 12 16  1  0
 16 17  2  0
 17 19  1  0
 19 21  2  0
 21 23  1  0
 23 25  2  0
 25 16  1  0
 12 13  1  0
 12 14  1  0
 12 15  1  0
 17 18  1  0
 19 20  1  0
 21 22  1  0
 23 24  1  0
 25 26  1  0
M  CHG  1   8   1
M  END
>  <PDB_ID>  (3232) 
pdb6n3p

>  <RESIDUE_NAME>  (3232) 
ILE   PHE

>  <FRAG_NAME>  (3232) 
ETAM   MBZ

>  <FRAG_ATOM_NUM>  (3232) 
fragi: 11  fragj: 15

>  <atom.prop.CHAIN_ID>  (3232) 
A A A A A A A A A A A Z Z Z Z Z Z Z Z Z Z Z Z Z Z Z

>  <atom.prop.IS_HEAVY_ATOM>  (3232) 
1 0 0 0 1 0 0 1 0 0 0 1 0 0 0 1 1 0 1 0 1 0 1 0 1 0

>  <DIFUSE_FUNC_ATOM>  (3232) 
n/a

>  <FINAL_SINGLE_POINT_ENERGY>  (3232) 
0

>  <NONCOV_INTER_ENERGY_QM>  (3232) 
0

>  <FF_Energy>  (3232) 
-1.38

>  <QM_Energy>  (3232) 
-6.97

>  <source>  (3232) 
ETAM_MBZ

>  <Index>  (3232) 
35342

$$$$
ETAM-pdb6n41-A-LYS-452:MBZ-pdb6n41-A-PHE-467
     RDKit          3D

 26 25  0  0  0  0  0  0  0  0999 V2000
    2.7787   -4.4126   -1.1946 C   0  0  0  0  0  0  0  0  0  0  0  0
    2.2119   -5.1731   -0.9105 H   0  0  0  0  0  0  0  0  0  0  0  0
    3.7395   -4.6438   -1.1470 H   0  0  0  0  0  0  0  0  0  0  0  0
    2.5279   -4.1499   -2.2222 H   0  0  0  0  0  0  0  0  0  0  0  0
    2.5163   -3.2320   -0.2493 C   0  0  0  0  0  0  0  0  0  0  0  0
    2.9287   -2.4008   -0.6528 H   0  0  0  0  0  0  0  0  0  0  0  0
    1.5174   -3.0813   -0.1951 H   0  0  0  0  0  0  0  0  0  0  0  0
    3.0553   -3.4190    1.1338 N   0  0  0  0  0  4  0  0  0  0  0  0
    2.8996   -4.3619    1.4211 H   0  0  0  0  0  0  0  0  0  0  0  0
    4.0345   -3.2233    1.1334 H   0  0  0  0  0  0  0  0  0  0  0  0
    2.5865   -2.7949    1.7554 H   0  0  0  0  0  0  0  0  0  0  0  0
   -0.0100    2.8924   -0.0248 C   0  0  0  0  0  0  0  0  0  0  0  0
   -0.8190    3.1908   -0.5384 H   0  0  0  0  0  0  0  0  0  0  0  0
    0.8134    3.2027   -0.5078 H   0  0  0  0  0  0  0  0  0  0  0  0
   -0.0323    3.4012    0.9388 H   0  0  0  0  0  0  0  0  0  0  0  0
    0.0019    1.3992   -0.0078 C   0  0  0  0  0  0  0  0  0  0  0  0
   -1.1984    0.6926   -0.0084 C   0  0  0  0  0  0  0  0  0  0  0  0
   -2.0634    1.1937   -0.0169 H   0  0  0  0  0  0  0  0  0  0  0  0
   -1.2197   -0.6930    0.0000 C   0  0  0  0  0  0  0  0  0  0  0  0
   -2.0881   -1.1864   -0.0108 H   0  0  0  0  0  0  0  0  0  0  0  0
   -0.0061   -1.3906    0.0256 C   0  0  0  0  0  0  0  0  0  0  0  0
   -0.0113   -2.3900    0.0611 H   0  0  0  0  0  0  0  0  0  0  0  0
    1.2197   -0.7009    0.0000 C   0  0  0  0  0  0  0  0  0  0  0  0
    2.0852   -1.2009   -0.0104 H   0  0  0  0  0  0  0  0  0  0  0  0
    1.2026    0.6927   -0.0094 C   0  0  0  0  0  0  0  0  0  0  0  0
    2.0688    1.1946   -0.0190 H   0  0  0  0  0  0  0  0  0  0  0  0
  1  5  1  0
  5  8  1  0
  1  2  1  0
  1  3  1  0
  1  4  1  0
  5  6  1  0
  5  7  1  0
  8  9  1  0
  8 10  1  0
  8 11  1  0
 12 16  1  0
 16 17  2  0
 17 19  1  0
 19 21  2  0
 21 23  1  0
 23 25  2  0
 25 16  1  0
 12 13  1  0
 12 14  1  0
 12 15  1  0
 17 18  1  0
 19 20  1  0
 21 22  1  0
 23 24  1  0
 25 26  1  0
M  CHG  1   8   1
M  END
>  <PDB_ID>  (3233) 
pdb6n41

>  <RESIDUE_NAME>  (3233) 
LYS   PHE

>  <FRAG_NAME>  (3233) 
ETAM   MBZ

>  <FRAG_ATOM_NUM>  (3233) 
fragi: 11  fragj: 15

>  <atom.prop.CHAIN_ID>  (3233) 
A A A A A A A A A A A Z Z Z Z Z Z Z Z Z Z Z Z Z Z Z

>  <atom.prop.IS_HEAVY_ATOM>  (3233) 
1 0 0 0 1 0 0 1 0 0 0 1 0 0 0 1 1 0 1 0 1 0 1 0 1 0

>  <DIFUSE_FUNC_ATOM>  (3233) 
n/a

>  <FINAL_SINGLE_POINT_ENERGY>  (3233) 
0

>  <NONCOV_INTER_ENERGY_QM>  (3233) 
0

>  <FF_Energy>  (3233) 
45.34

>  <QM_Energy>  (3233) 
5.67

>  <source>  (3233) 
ETAM_MBZ

>  <Index>  (3233) 
35346

$$$$
ETAM-pdb6n41-B-LYS-47:MBZ-pdb6n41-B-PHE-392
     RDKit          3D

 26 25  0  0  0  0  0  0  0  0999 V2000
    2.3046   -1.4580    3.6825 C   0  0  0  0  0  0  0  0  0  0  0  0
    1.8520   -2.3444    3.5821 H   0  0  0  0  0  0  0  0  0  0  0  0
    2.2610   -1.1688    4.6394 H   0  0  0  0  0  0  0  0  0  0  0  0
    3.3508   -1.5654    3.3961 H   0  0  0  0  0  0  0  0  0  0  0  0
    1.5727   -0.4416    2.8365 C   0  0  0  0  0  0  0  0  0  0  0  0
    2.0169    0.4491    2.9352 H   0  0  0  0  0  0  0  0  0  0  0  0
    1.6075   -0.7252    1.8780 H   0  0  0  0  0  0  0  0  0  0  0  0
    0.1541   -0.3294    3.2613 N   0  0  0  0  0  4  0  0  0  0  0  0
   -0.2907    0.4056    2.7488 H   0  0  0  0  0  0  0  0  0  0  0  0
   -0.3166   -1.1936    3.0820 H   0  0  0  0  0  0  0  0  0  0  0  0
    0.1143   -0.1245    4.2391 H   0  0  0  0  0  0  0  0  0  0  0  0
   -0.0005    2.9112   -0.0280 C   0  0  0  0  0  0  0  0  0  0  0  0
    0.8894    3.2228    0.2615 H   0  0  0  0  0  0  0  0  0  0  0  0
   -0.7138    3.2282    0.5748 H   0  0  0  0  0  0  0  0  0  0  0  0
   -0.1936    3.3185   -1.0204 H   0  0  0  0  0  0  0  0  0  0  0  0
    0.0007    1.4082    0.0038 C   0  0  0  0  0  0  0  0  0  0  0  0
   -1.1971    0.6915   -0.0061 C   0  0  0  0  0  0  0  0  0  0  0  0
   -2.0647    1.1817   -0.0186 H   0  0  0  0  0  0  0  0  0  0  0  0
   -1.1997   -0.6989    0.0000 C   0  0  0  0  0  0  0  0  0  0  0  0
   -2.0768   -1.1941    0.0001 H   0  0  0  0  0  0  0  0  0  0  0  0
    0.0012   -1.3967    0.0073 C   0  0  0  0  0  0  0  0  0  0  0  0
   -0.0067   -2.3962    0.0176 H   0  0  0  0  0  0  0  0  0  0  0  0
    1.1997   -0.7047   -0.0000 C   0  0  0  0  0  0  0  0  0  0  0  0
    2.0825   -1.1944   -0.0003 H   0  0  0  0  0  0  0  0  0  0  0  0
    1.1952    0.7006   -0.0051 C   0  0  0  0  0  0  0  0  0  0  0  0
    2.0661    1.1891   -0.0161 H   0  0  0  0  0  0  0  0  0  0  0  0
  1  5  1  0
  5  8  1  0
  1  2  1  0
  1  3  1  0
  1  4  1  0
  5  6  1  0
  5  7  1  0
  8  9  1  0
  8 10  1  0
  8 11  1  0
 12 16  1  0
 16 17  2  0
 17 19  1  0
 19 21  2  0
 21 23  1  0
 23 25  2  0
 25 16  1  0
 12 13  1  0
 12 14  1  0
 12 15  1  0
 17 18  1  0
 19 20  1  0
 21 22  1  0
 23 24  1  0
 25 26  1  0
M  CHG  1   8   1
M  END
>  <PDB_ID>  (3234) 
pdb6n41

>  <RESIDUE_NAME>  (3234) 
LYS   PHE

>  <FRAG_NAME>  (3234) 
ETAM   MBZ

>  <FRAG_ATOM_NUM>  (3234) 
fragi: 11  fragj: 15

>  <atom.prop.CHAIN_ID>  (3234) 
A A A A A A A A A A A Z Z Z Z Z Z Z Z Z Z Z Z Z Z Z

>  <atom.prop.IS_HEAVY_ATOM>  (3234) 
1 0 0 0 1 0 0 1 0 0 0 1 0 0 0 1 1 0 1 0 1 0 1 0 1 0

>  <DIFUSE_FUNC_ATOM>  (3234) 
n/a

>  <FINAL_SINGLE_POINT_ENERGY>  (3234) 
0

>  <NONCOV_INTER_ENERGY_QM>  (3234) 
0

>  <FF_Energy>  (3234) 
31.0

>  <QM_Energy>  (3234) 
-6.89

>  <source>  (3234) 
ETAM_MBZ

>  <Index>  (3234) 
35347

$$$$
ETAM-pdb5k9s-A-LYS-435:MBZ-pdb5k9s-C-PHE-18
     RDKit          3D

 26 25  0  0  0  0  0  0  0  0999 V2000
   -4.8085   -3.6262    0.6140 C   0  0  0  0  0  0  0  0  0  0  0  0
   -5.3619   -4.4199    0.6807 H   0  0  0  0  0  0  0  0  0  0  0  0
   -5.0105   -3.0141    1.3389 H   0  0  0  0  0  0  0  0  0  0  0  0
   -3.7574   -3.9100    0.6658 H   0  0  0  0  0  0  0  0  0  0  0  0
   -5.1346   -2.9270   -0.7097 C   0  0  0  0  0  0  0  0  0  0  0  0
   -5.0742   -3.5709   -1.4320 H   0  0  0  0  0  0  0  0  0  0  0  0
   -6.0321   -2.5616   -0.6633 H   0  0  0  0  0  0  0  0  0  0  0  0
   -4.1894   -1.8022   -1.0088 N   0  0  0  0  0  4  0  0  0  0  0  0
   -4.1935   -1.2152   -0.3400 H   0  0  0  0  0  0  0  0  0  0  0  0
   -3.3644   -2.1177   -1.1121 H   0  0  0  0  0  0  0  0  0  0  0  0
   -4.4360   -1.3891   -1.7579 H   0  0  0  0  0  0  0  0  0  0  0  0
   -0.0032    2.8969    0.0008 C   0  0  0  0  0  0  0  0  0  0  0  0
   -0.6535    3.1915   -0.6556 H   0  0  0  0  0  0  0  0  0  0  0  0
    0.8828    3.1936   -0.2577 H   0  0  0  0  0  0  0  0  0  0  0  0
   -0.2543    3.3386    0.9652 H   0  0  0  0  0  0  0  0  0  0  0  0
   -0.0010    1.3961    0.0025 C   0  0  0  0  0  0  0  0  0  0  0  0
   -1.1912    0.6935   -0.0017 C   0  0  0  0  0  0  0  0  0  0  0  0
   -1.9981    1.1557   -0.0002 H   0  0  0  0  0  0  0  0  0  0  0  0
   -1.1953   -0.6913    0.0000 C   0  0  0  0  0  0  0  0  0  0  0  0
   -2.0017   -1.1542   -0.0000 H   0  0  0  0  0  0  0  0  0  0  0  0
    0.0010   -1.3871    0.0005 C   0  0  0  0  0  0  0  0  0  0  0  0
   -0.0003   -2.3171   -0.0003 H   0  0  0  0  0  0  0  0  0  0  0  0
    1.1953   -0.6984   -0.0000 C   0  0  0  0  0  0  0  0  0  0  0  0
    2.0013   -1.1622   -0.0007 H   0  0  0  0  0  0  0  0  0  0  0  0
    1.1913    0.6871   -0.0013 C   0  0  0  0  0  0  0  0  0  0  0  0
    1.9992    1.1477    0.0007 H   0  0  0  0  0  0  0  0  0  0  0  0
  1  5  1  0
  5  8  1  0
  1  2  1  0
  1  3  1  0
  1  4  1  0
  5  6  1  0
  5  7  1  0
  8  9  1  0
  8 10  1  0
  8 11  1  0
 12 16  1  0
 16 17  2  0
 17 19  1  0
 19 21  2  0
 21 23  1  0
 23 25  2  0
 25 16  1  0
 12 13  1  0
 12 14  1  0
 12 15  1  0
 17 18  1  0
 19 20  1  0
 21 22  1  0
 23 24  1  0
 25 26  1  0
M  CHG  1   8   1
M  END
>  <PDB_ID>  (3235) 
pdb5k9s

>  <RESIDUE_NAME>  (3235) 
LYS   PHE

>  <FRAG_NAME>  (3235) 
ETAM   MBZ

>  <FRAG_ATOM_NUM>  (3235) 
fragi: 11  fragj: 15

>  <atom.prop.CHAIN_ID>  (3235) 
A A A A A A A A A A A Z Z Z Z Z Z Z Z Z Z Z Z Z Z Z

>  <atom.prop.IS_HEAVY_ATOM>  (3235) 
1 0 0 0 1 0 0 1 0 0 0 1 0 0 0 1 1 0 1 0 1 0 1 0 1 0

>  <DIFUSE_FUNC_ATOM>  (3235) 
n/a

>  <FINAL_SINGLE_POINT_ENERGY>  (3235) 
0

>  <NONCOV_INTER_ENERGY_QM>  (3235) 
0

>  <FF_Energy>  (3235) 
2.06

>  <QM_Energy>  (3235) 
-3.06

>  <source>  (3235) 
ETAM_MBZ

>  <Index>  (3235) 
35352

$$$$
ETAM-pdb6n6b-L-LYS-142:MBZ-pdb6n6b-L-PHE-10
     RDKit          3D

 26 25  0  0  0  0  0  0  0  0999 V2000
    0.6395   -0.3284    3.3774 C   0  0  0  0  0  0  0  0  0  0  0  0
    0.0090   -0.7334    2.6991 H   0  0  0  0  0  0  0  0  0  0  0  0
    0.9005    0.5902    3.0477 H   0  0  0  0  0  0  0  0  0  0  0  0
    0.1081   -0.2207    4.3229 H   0  0  0  0  0  0  0  0  0  0  0  0
    1.9191   -1.1980    3.4089 C   0  0  0  0  0  0  0  0  0  0  0  0
    2.5440   -0.8615    2.7068 H   0  0  0  0  0  0  0  0  0  0  0  0
    2.3412   -1.1021    4.3088 H   0  0  0  0  0  0  0  0  0  0  0  0
    1.6049   -2.6315    3.1539 N   0  0  0  0  0  4  0  0  0  0  0  0
    2.2443   -3.2064    3.6630 H   0  0  0  0  0  0  0  0  0  0  0  0
    0.6704   -2.8241    3.4522 H   0  0  0  0  0  0  0  0  0  0  0  0
    1.6910   -2.8204    2.1759 H   0  0  0  0  0  0  0  0  0  0  0  0
   -0.0060    2.9104   -0.0396 C   0  0  0  0  0  0  0  0  0  0  0  0
    0.7670    3.2387    0.4689 H   0  0  0  0  0  0  0  0  0  0  0  0
   -0.8595    3.2272    0.3277 H   0  0  0  0  0  0  0  0  0  0  0  0
    0.0796    3.3011   -1.0536 H   0  0  0  0  0  0  0  0  0  0  0  0
    0.0006    1.4031    0.0080 C   0  0  0  0  0  0  0  0  0  0  0  0
   -1.1846    0.6887   -0.0411 C   0  0  0  0  0  0  0  0  0  0  0  0
   -2.0571    1.1797   -0.1091 H   0  0  0  0  0  0  0  0  0  0  0  0
   -1.2081   -0.7069   -0.0000 C   0  0  0  0  0  0  0  0  0  0  0  0
   -2.0831   -1.1896    0.0377 H   0  0  0  0  0  0  0  0  0  0  0  0
   -0.0035   -1.4114   -0.0104 C   0  0  0  0  0  0  0  0  0  0  0  0
    0.0030   -2.3989   -0.0258 H   0  0  0  0  0  0  0  0  0  0  0  0
    1.2081   -0.6908    0.0000 C   0  0  0  0  0  0  0  0  0  0  0  0
    2.0880   -1.1756   -0.0220 H   0  0  0  0  0  0  0  0  0  0  0  0
    1.1875    0.7173    0.0435 C   0  0  0  0  0  0  0  0  0  0  0  0
    2.0577    1.2067    0.1000 H   0  0  0  0  0  0  0  0  0  0  0  0
  1  5  1  0
  5  8  1  0
  1  2  1  0
  1  3  1  0
  1  4  1  0
  5  6  1  0
  5  7  1  0
  8  9  1  0
  8 10  1  0
  8 11  1  0
 12 16  1  0
 16 17  2  0
 17 19  1  0
 19 21  2  0
 21 23  1  0
 23 25  2  0
 25 16  1  0
 12 13  1  0
 12 14  1  0
 12 15  1  0
 17 18  1  0
 19 20  1  0
 21 22  1  0
 23 24  1  0
 25 26  1  0
M  CHG  1   8   1
M  END
>  <PDB_ID>  (3236) 
pdb6n6b

>  <RESIDUE_NAME>  (3236) 
LYS   PHE

>  <FRAG_NAME>  (3236) 
ETAM   MBZ

>  <FRAG_ATOM_NUM>  (3236) 
fragi: 11  fragj: 15

>  <atom.prop.CHAIN_ID>  (3236) 
A A A A A A A A A A A Z Z Z Z Z Z Z Z Z Z Z Z Z Z Z

>  <atom.prop.IS_HEAVY_ATOM>  (3236) 
1 0 0 0 1 0 0 1 0 0 0 1 0 0 0 1 1 0 1 0 1 0 1 0 1 0

>  <DIFUSE_FUNC_ATOM>  (3236) 
n/a

>  <FINAL_SINGLE_POINT_ENERGY>  (3236) 
0

>  <NONCOV_INTER_ENERGY_QM>  (3236) 
0

>  <FF_Energy>  (3236) 
-3.68

>  <QM_Energy>  (3236) 
-10.07

>  <source>  (3236) 
ETAM_MBZ

>  <Index>  (3236) 
35375

$$$$
ETAM-pdb5kc8-A-LYS-38:MBZ-pdb5kc8-A-PHE-69
     RDKit          3D

 26 25  0  0  0  0  0  0  0  0999 V2000
   -0.7691   -2.5495    3.5576 C   0  0  0  0  0  0  0  0  0  0  0  0
   -0.1842   -3.2145    3.9984 H   0  0  0  0  0  0  0  0  0  0  0  0
   -0.6349   -2.5482    2.5772 H   0  0  0  0  0  0  0  0  0  0  0  0
   -1.8093   -2.7915    3.7752 H   0  0  0  0  0  0  0  0  0  0  0  0
   -0.4222   -1.1636    4.0968 C   0  0  0  0  0  0  0  0  0  0  0  0
   -1.1008   -0.5039    3.7485 H   0  0  0  0  0  0  0  0  0  0  0  0
   -0.4922   -1.1826    5.1030 H   0  0  0  0  0  0  0  0  0  0  0  0
    0.9416   -0.7109    3.7111 N   0  0  0  0  0  4  0  0  0  0  0  0
    0.8915    0.2183    3.3453 H   0  0  0  0  0  0  0  0  0  0  0  0
    1.5346   -0.7225    4.5161 H   0  0  0  0  0  0  0  0  0  0  0  0
    1.3106   -1.3258    3.0141 H   0  0  0  0  0  0  0  0  0  0  0  0
    0.0078    2.8959    0.0036 C   0  0  0  0  0  0  0  0  0  0  0  0
    0.8522    3.1951    0.4236 H   0  0  0  0  0  0  0  0  0  0  0  0
   -0.7781    3.2058    0.5204 H   0  0  0  0  0  0  0  0  0  0  0  0
   -0.0481    3.3460   -0.9875 H   0  0  0  0  0  0  0  0  0  0  0  0
   -0.0023    1.3942   -0.0035 C   0  0  0  0  0  0  0  0  0  0  0  0
   -1.1908    0.6888    0.0040 C   0  0  0  0  0  0  0  0  0  0  0  0
   -2.0607    1.1786    0.0109 H   0  0  0  0  0  0  0  0  0  0  0  0
   -1.1903   -0.6923    0.0000 C   0  0  0  0  0  0  0  0  0  0  0  0
   -2.0693   -1.1905   -0.0027 H   0  0  0  0  0  0  0  0  0  0  0  0
    0.0047   -1.3825    0.0012 C   0  0  0  0  0  0  0  0  0  0  0  0
   -0.0026   -2.3862    0.0029 H   0  0  0  0  0  0  0  0  0  0  0  0
    1.1903   -0.6951    0.0000 C   0  0  0  0  0  0  0  0  0  0  0  0
    2.0780   -1.1921    0.0015 H   0  0  0  0  0  0  0  0  0  0  0  0
    1.1883    0.6868   -0.0016 C   0  0  0  0  0  0  0  0  0  0  0  0
    2.0584    1.1842   -0.0018 H   0  0  0  0  0  0  0  0  0  0  0  0
  1  5  1  0
  5  8  1  0
  1  2  1  0
  1  3  1  0
  1  4  1  0
  5  6  1  0
  5  7  1  0
  8  9  1  0
  8 10  1  0
  8 11  1  0
 12 16  1  0
 16 17  2  0
 17 19  1  0
 19 21  2  0
 21 23  1  0
 23 25  2  0
 25 16  1  0
 12 13  1  0
 12 14  1  0
 12 15  1  0
 17 18  1  0
 19 20  1  0
 21 22  1  0
 23 24  1  0
 25 26  1  0
M  CHG  1   8   1
M  END
>  <PDB_ID>  (3237) 
pdb5kc8

>  <RESIDUE_NAME>  (3237) 
LYS   PHE

>  <FRAG_NAME>  (3237) 
ETAM   MBZ

>  <FRAG_ATOM_NUM>  (3237) 
fragi: 11  fragj: 15

>  <atom.prop.CHAIN_ID>  (3237) 
A A A A A A A A A A A Z Z Z Z Z Z Z Z Z Z Z Z Z Z Z

>  <atom.prop.IS_HEAVY_ATOM>  (3237) 
1 0 0 0 1 0 0 1 0 0 0 1 0 0 0 1 1 0 1 0 1 0 1 0 1 0

>  <DIFUSE_FUNC_ATOM>  (3237) 
n/a

>  <FINAL_SINGLE_POINT_ENERGY>  (3237) 
0

>  <NONCOV_INTER_ENERGY_QM>  (3237) 
0

>  <FF_Energy>  (3237) 
-6.38

>  <QM_Energy>  (3237) 
-11.38

>  <source>  (3237) 
ETAM_MBZ

>  <Index>  (3237) 
35385

$$$$
ETAM-pdb6myo-B-LYS-177:MBZ-pdb6myo-B-PHE-210
     RDKit          3D

 26 25  0  0  0  0  0  0  0  0999 V2000
   -0.7857    0.7240   -4.0324 C   0  0  0  0  0  0  0  0  0  0  0  0
   -1.2552    1.1461   -3.2638 H   0  0  0  0  0  0  0  0  0  0  0  0
   -1.4392    0.4613   -4.7342 H   0  0  0  0  0  0  0  0  0  0  0  0
   -0.0824    1.4422   -4.4538 H   0  0  0  0  0  0  0  0  0  0  0  0
   -0.0751   -0.5235   -3.5407 C   0  0  0  0  0  0  0  0  0  0  0  0
    0.5004   -0.8819   -4.2749 H   0  0  0  0  0  0  0  0  0  0  0  0
    0.4953   -0.2862   -2.7550 H   0  0  0  0  0  0  0  0  0  0  0  0
   -1.0575   -1.5640   -3.1357 N   0  0  0  0  0  4  0  0  0  0  0  0
   -1.1990   -2.2007   -3.8935 H   0  0  0  0  0  0  0  0  0  0  0  0
   -0.7071   -2.0613   -2.3423 H   0  0  0  0  0  0  0  0  0  0  0  0
   -1.9252   -1.1269   -2.9001 H   0  0  0  0  0  0  0  0  0  0  0  0
    0.0046    2.9035   -0.0269 C   0  0  0  0  0  0  0  0  0  0  0  0
   -0.8012    3.2049   -0.5123 H   0  0  0  0  0  0  0  0  0  0  0  0
    0.8314    3.2007   -0.4778 H   0  0  0  0  0  0  0  0  0  0  0  0
   -0.0152    3.3618    0.9620 H   0  0  0  0  0  0  0  0  0  0  0  0
    0.0006    1.3981   -0.0012 C   0  0  0  0  0  0  0  0  0  0  0  0
   -1.1954    0.6909   -0.0044 C   0  0  0  0  0  0  0  0  0  0  0  0
   -2.0613    1.1831   -0.0112 H   0  0  0  0  0  0  0  0  0  0  0  0
   -1.1987   -0.6939    0.0000 C   0  0  0  0  0  0  0  0  0  0  0  0
   -2.0759   -1.1908    0.0002 H   0  0  0  0  0  0  0  0  0  0  0  0
    0.0013   -1.3915    0.0058 C   0  0  0  0  0  0  0  0  0  0  0  0
   -0.0035   -2.3897    0.0139 H   0  0  0  0  0  0  0  0  0  0  0  0
    1.1987   -0.6939   -0.0000 C   0  0  0  0  0  0  0  0  0  0  0  0
    2.0817   -1.1937   -0.0027 H   0  0  0  0  0  0  0  0  0  0  0  0
    1.1935    0.6903   -0.0002 C   0  0  0  0  0  0  0  0  0  0  0  0
    2.0629    1.1895   -0.0004 H   0  0  0  0  0  0  0  0  0  0  0  0
  1  5  1  0
  5  8  1  0
  1  2  1  0
  1  3  1  0
  1  4  1  0
  5  6  1  0
  5  7  1  0
  8  9  1  0
  8 10  1  0
  8 11  1  0
 12 16  1  0
 16 17  2  0
 17 19  1  0
 19 21  2  0
 21 23  1  0
 23 25  2  0
 25 16  1  0
 12 13  1  0
 12 14  1  0
 12 15  1  0
 17 18  1  0
 19 20  1  0
 21 22  1  0
 23 24  1  0
 25 26  1  0
M  CHG  1   8   1
M  END
>  <PDB_ID>  (3238) 
pdb6myo

>  <RESIDUE_NAME>  (3238) 
LYS   PHE

>  <FRAG_NAME>  (3238) 
ETAM   MBZ

>  <FRAG_ATOM_NUM>  (3238) 
fragi: 11  fragj: 15

>  <atom.prop.CHAIN_ID>  (3238) 
A A A A A A A A A A A Z Z Z Z Z Z Z Z Z Z Z Z Z Z Z

>  <atom.prop.IS_HEAVY_ATOM>  (3238) 
1 0 0 0 1 0 0 1 0 0 0 1 0 0 0 1 1 0 1 0 1 0 1 0 1 0

>  <DIFUSE_FUNC_ATOM>  (3238) 
n/a

>  <FINAL_SINGLE_POINT_ENERGY>  (3238) 
0

>  <NONCOV_INTER_ENERGY_QM>  (3238) 
0

>  <FF_Energy>  (3238) 
-6.36

>  <QM_Energy>  (3238) 
-14.27

>  <source>  (3238) 
ETAM_MBZ

>  <Index>  (3238) 
35412

$$$$
ETAM-pdb5kdg-A-LYS-108:MBZ-pdb5kdg-A-PHE-104
     RDKit          3D

 26 25  0  0  0  0  0  0  0  0999 V2000
   -0.6720   -0.3236    3.5033 C   0  0  0  0  0  0  0  0  0  0  0  0
   -0.6164   -0.0712    2.5394 H   0  0  0  0  0  0  0  0  0  0  0  0
   -0.4268    0.4578    4.0721 H   0  0  0  0  0  0  0  0  0  0  0  0
   -1.6974   -0.6152    3.7305 H   0  0  0  0  0  0  0  0  0  0  0  0
    0.3098   -1.4451    3.7691 C   0  0  0  0  0  0  0  0  0  0  0  0
    0.0744   -1.8910    4.6255 H   0  0  0  0  0  0  0  0  0  0  0  0
    0.2754   -2.0973    3.0187 H   0  0  0  0  0  0  0  0  0  0  0  0
    1.6889   -0.8859    3.8699 N   0  0  0  0  0  4  0  0  0  0  0  0
    1.8015   -0.1617    3.1919 H   0  0  0  0  0  0  0  0  0  0  0  0
    1.8273   -0.5130    4.7864 H   0  0  0  0  0  0  0  0  0  0  0  0
    2.3532   -1.6131    3.6988 H   0  0  0  0  0  0  0  0  0  0  0  0
    0.0256    2.9224   -0.0173 C   0  0  0  0  0  0  0  0  0  0  0  0
    0.0695    3.2137   -0.9637 H   0  0  0  0  0  0  0  0  0  0  0  0
    0.8310    3.2160    0.4809 H   0  0  0  0  0  0  0  0  0  0  0  0
   -0.8401    3.4026    0.4388 H   0  0  0  0  0  0  0  0  0  0  0  0
   -0.0010    1.4064   -0.0013 C   0  0  0  0  0  0  0  0  0  0  0  0
   -1.1985    0.6925   -0.0054 C   0  0  0  0  0  0  0  0  0  0  0  0
   -2.0652    1.1820   -0.0133 H   0  0  0  0  0  0  0  0  0  0  0  0
   -1.2012   -0.6992   -0.0000 C   0  0  0  0  0  0  0  0  0  0  0  0
   -2.0768   -1.1933   -0.0002 H   0  0  0  0  0  0  0  0  0  0  0  0
    0.0009   -1.3922    0.0070 C   0  0  0  0  0  0  0  0  0  0  0  0
   -0.0030   -2.3931    0.0170 H   0  0  0  0  0  0  0  0  0  0  0  0
    1.2012   -0.6989   -0.0000 C   0  0  0  0  0  0  0  0  0  0  0  0
    2.0822   -1.1973   -0.0030 H   0  0  0  0  0  0  0  0  0  0  0  0
    1.1986    0.6913   -0.0002 C   0  0  0  0  0  0  0  0  0  0  0  0
    2.0663    1.1884   -0.0008 H   0  0  0  0  0  0  0  0  0  0  0  0
  1  5  1  0
  5  8  1  0
  1  2  1  0
  1  3  1  0
  1  4  1  0
  5  6  1  0
  5  7  1  0
  8  9  1  0
  8 10  1  0
  8 11  1  0
 12 16  1  0
 16 17  2  0
 17 19  1  0
 19 21  2  0
 21 23  1  0
 23 25  2  0
 25 16  1  0
 12 13  1  0
 12 14  1  0
 12 15  1  0
 17 18  1  0
 19 20  1  0
 21 22  1  0
 23 24  1  0
 25 26  1  0
M  CHG  1   8   1
M  END
>  <PDB_ID>  (3239) 
pdb5kdg

>  <RESIDUE_NAME>  (3239) 
LYS   PHE

>  <FRAG_NAME>  (3239) 
ETAM   MBZ

>  <FRAG_ATOM_NUM>  (3239) 
fragi: 11  fragj: 15

>  <atom.prop.CHAIN_ID>  (3239) 
A A A A A A A A A A A Z Z Z Z Z Z Z Z Z Z Z Z Z Z Z

>  <atom.prop.IS_HEAVY_ATOM>  (3239) 
1 0 0 0 1 0 0 1 0 0 0 1 0 0 0 1 1 0 1 0 1 0 1 0 1 0

>  <DIFUSE_FUNC_ATOM>  (3239) 
n/a

>  <FINAL_SINGLE_POINT_ENERGY>  (3239) 
0

>  <NONCOV_INTER_ENERGY_QM>  (3239) 
0

>  <FF_Energy>  (3239) 
-5.11

>  <QM_Energy>  (3239) 
-10.88

>  <source>  (3239) 
ETAM_MBZ

>  <Index>  (3239) 
35424

$$$$
ETAM-pdb6n2f-B-LYS-37:MBZ-pdb6n2f-B-PHE-30
     RDKit          3D

 26 25  0  0  0  0  0  0  0  0999 V2000
   -1.3782    1.1927    3.5126 C   0  0  0  0  0  0  0  0  0  0  0  0
   -1.7216    0.7295    4.3352 H   0  0  0  0  0  0  0  0  0  0  0  0
   -1.5716    0.6185    2.7125 H   0  0  0  0  0  0  0  0  0  0  0  0
   -1.9067    2.1393    3.3990 H   0  0  0  0  0  0  0  0  0  0  0  0
    0.1229    1.3509    3.6409 C   0  0  0  0  0  0  0  0  0  0  0  0
    0.4521    1.9559    2.9097 H   0  0  0  0  0  0  0  0  0  0  0  0
    0.3332    1.7755    4.5276 H   0  0  0  0  0  0  0  0  0  0  0  0
    0.8313    0.0453    3.5471 N   0  0  0  0  0  4  0  0  0  0  0  0
    0.1636   -0.6971    3.5855 H   0  0  0  0  0  0  0  0  0  0  0  0
    1.3328    0.0015    2.6829 H   0  0  0  0  0  0  0  0  0  0  0  0
    1.4712   -0.0403    4.3101 H   0  0  0  0  0  0  0  0  0  0  0  0
   -0.0060    2.9040   -0.0134 C   0  0  0  0  0  0  0  0  0  0  0  0
    0.8923    3.2156    0.2624 H   0  0  0  0  0  0  0  0  0  0  0  0
   -0.7022    3.2151    0.6178 H   0  0  0  0  0  0  0  0  0  0  0  0
   -0.2241    3.3368   -0.9898 H   0  0  0  0  0  0  0  0  0  0  0  0
   -0.0017    1.3987    0.0057 C   0  0  0  0  0  0  0  0  0  0  0  0
   -1.1942    0.6888    0.0134 C   0  0  0  0  0  0  0  0  0  0  0  0
   -2.0630    1.1768    0.0274 H   0  0  0  0  0  0  0  0  0  0  0  0
   -1.1955   -0.7004   -0.0000 C   0  0  0  0  0  0  0  0  0  0  0  0
   -2.0732   -1.1943   -0.0048 H   0  0  0  0  0  0  0  0  0  0  0  0
    0.0015   -1.3884   -0.0053 C   0  0  0  0  0  0  0  0  0  0  0  0
    0.0014   -2.3895   -0.0133 H   0  0  0  0  0  0  0  0  0  0  0  0
    1.1955   -0.6919    0.0000 C   0  0  0  0  0  0  0  0  0  0  0  0
    2.0798   -1.1913    0.0157 H   0  0  0  0  0  0  0  0  0  0  0  0
    1.1944    0.6932   -0.0138 C   0  0  0  0  0  0  0  0  0  0  0  0
    2.0613    1.1903   -0.0387 H   0  0  0  0  0  0  0  0  0  0  0  0
  1  5  1  0
  5  8  1  0
  1  2  1  0
  1  3  1  0
  1  4  1  0
  5  6  1  0
  5  7  1  0
  8  9  1  0
  8 10  1  0
  8 11  1  0
 12 16  1  0
 16 17  2  0
 17 19  1  0
 19 21  2  0
 21 23  1  0
 23 25  2  0
 25 16  1  0
 12 13  1  0
 12 14  1  0
 12 15  1  0
 17 18  1  0
 19 20  1  0
 21 22  1  0
 23 24  1  0
 25 26  1  0
M  CHG  1   8   1
M  END
>  <PDB_ID>  (3240) 
pdb6n2f

>  <RESIDUE_NAME>  (3240) 
LYS   PHE

>  <FRAG_NAME>  (3240) 
ETAM   MBZ

>  <FRAG_ATOM_NUM>  (3240) 
fragi: 11  fragj: 15

>  <atom.prop.CHAIN_ID>  (3240) 
A A A A A A A A A A A Z Z Z Z Z Z Z Z Z Z Z Z Z Z Z

>  <atom.prop.IS_HEAVY_ATOM>  (3240) 
1 0 0 0 1 0 0 1 0 0 0 1 0 0 0 1 1 0 1 0 1 0 1 0 1 0

>  <DIFUSE_FUNC_ATOM>  (3240) 
n/a

>  <FINAL_SINGLE_POINT_ENERGY>  (3240) 
0

>  <NONCOV_INTER_ENERGY_QM>  (3240) 
0

>  <FF_Energy>  (3240) 
-8.14

>  <QM_Energy>  (3240) 
-14.39

>  <source>  (3240) 
ETAM_MBZ

>  <Index>  (3240) 
35430

$$$$
ETAM-pdb6nbm-A-LYS-269:MBZ-pdb6nbm-A-PHE-260
     RDKit          3D

 26 25  0  0  0  0  0  0  0  0999 V2000
    0.1411    1.7586    3.6641 C   0  0  0  0  0  0  0  0  0  0  0  0
    0.4295    2.1454    2.7939 H   0  0  0  0  0  0  0  0  0  0  0  0
    0.7006    2.1193    4.4040 H   0  0  0  0  0  0  0  0  0  0  0  0
   -0.9008    2.0241    3.8430 H   0  0  0  0  0  0  0  0  0  0  0  0
    0.3295    0.2513    3.6080 C   0  0  0  0  0  0  0  0  0  0  0  0
    0.0388   -0.1445    4.4750 H   0  0  0  0  0  0  0  0  0  0  0  0
   -0.2203   -0.1172    2.8638 H   0  0  0  0  0  0  0  0  0  0  0  0
    1.7596   -0.0725    3.3720 N   0  0  0  0  0  4  0  0  0  0  0  0
    2.2377   -0.1283    4.2488 H   0  0  0  0  0  0  0  0  0  0  0  0
    1.8285   -0.9503    2.8987 H   0  0  0  0  0  0  0  0  0  0  0  0
    2.1748    0.6435    2.8097 H   0  0  0  0  0  0  0  0  0  0  0  0
    0.0001    2.9015   -0.0041 C   0  0  0  0  0  0  0  0  0  0  0  0
    0.8896    3.2109    0.2874 H   0  0  0  0  0  0  0  0  0  0  0  0
   -0.7128    3.2103    0.6037 H   0  0  0  0  0  0  0  0  0  0  0  0
   -0.1941    3.3295   -0.9875 H   0  0  0  0  0  0  0  0  0  0  0  0
    0.0020    1.3973    0.0016 C   0  0  0  0  0  0  0  0  0  0  0  0
   -1.1920    0.6917    0.0046 C   0  0  0  0  0  0  0  0  0  0  0  0
   -2.0601    1.1781    0.0086 H   0  0  0  0  0  0  0  0  0  0  0  0
   -1.1943   -0.7021   -0.0000 C   0  0  0  0  0  0  0  0  0  0  0  0
   -2.0748   -1.1916   -0.0021 H   0  0  0  0  0  0  0  0  0  0  0  0
   -0.0032   -1.3882    0.0007 C   0  0  0  0  0  0  0  0  0  0  0  0
   -0.0007   -2.3903    0.0011 H   0  0  0  0  0  0  0  0  0  0  0  0
    1.1943   -0.6927   -0.0000 C   0  0  0  0  0  0  0  0  0  0  0  0
    2.0770   -1.1930    0.0060 H   0  0  0  0  0  0  0  0  0  0  0  0
    1.1933    0.6940   -0.0069 C   0  0  0  0  0  0  0  0  0  0  0  0
    2.0631    1.1884   -0.0190 H   0  0  0  0  0  0  0  0  0  0  0  0
  1  5  1  0
  5  8  1  0
  1  2  1  0
  1  3  1  0
  1  4  1  0
  5  6  1  0
  5  7  1  0
  8  9  1  0
  8 10  1  0
  8 11  1  0
 12 16  1  0
 16 17  2  0
 17 19  1  0
 19 21  2  0
 21 23  1  0
 23 25  2  0
 25 16  1  0
 12 13  1  0
 12 14  1  0
 12 15  1  0
 17 18  1  0
 19 20  1  0
 21 22  1  0
 23 24  1  0
 25 26  1  0
M  CHG  1   8   1
M  END
>  <PDB_ID>  (3241) 
pdb6nbm

>  <RESIDUE_NAME>  (3241) 
LYS   PHE

>  <FRAG_NAME>  (3241) 
ETAM   MBZ

>  <FRAG_ATOM_NUM>  (3241) 
fragi: 11  fragj: 15

>  <atom.prop.CHAIN_ID>  (3241) 
A A A A A A A A A A A Z Z Z Z Z Z Z Z Z Z Z Z Z Z Z

>  <atom.prop.IS_HEAVY_ATOM>  (3241) 
1 0 0 0 1 0 0 1 0 0 0 1 0 0 0 1 1 0 1 0 1 0 1 0 1 0

>  <DIFUSE_FUNC_ATOM>  (3241) 
n/a

>  <FINAL_SINGLE_POINT_ENERGY>  (3241) 
0

>  <NONCOV_INTER_ENERGY_QM>  (3241) 
0

>  <FF_Energy>  (3241) 
-6.93

>  <QM_Energy>  (3241) 
-13.4

>  <source>  (3241) 
ETAM_MBZ

>  <Index>  (3241) 
35441

$$$$
ETAM-pdb5jvk-A-LYS-146:MBZ-pdb5jvk-A-PHE-425
     RDKit          3D

 26 25  0  0  0  0  0  0  0  0999 V2000
   -1.1268    0.6465    5.5535 C   0  0  0  0  0  0  0  0  0  0  0  0
   -0.9016    1.5962    5.3328 H   0  0  0  0  0  0  0  0  0  0  0  0
   -1.0216    0.5000    6.5383 H   0  0  0  0  0  0  0  0  0  0  0  0
   -2.1653    0.4602    5.2799 H   0  0  0  0  0  0  0  0  0  0  0  0
   -0.1474   -0.2625    4.8241 C   0  0  0  0  0  0  0  0  0  0  0  0
    0.7732   -0.1223    5.2090 H   0  0  0  0  0  0  0  0  0  0  0  0
   -0.4133   -1.2213    4.9841 H   0  0  0  0  0  0  0  0  0  0  0  0
   -0.1073   -0.0069    3.3597 N   0  0  0  0  0  4  0  0  0  0  0  0
    0.7170   -0.4194    2.9725 H   0  0  0  0  0  0  0  0  0  0  0  0
   -0.9149   -0.4089    2.9300 H   0  0  0  0  0  0  0  0  0  0  0  0
   -0.0968    0.9789    3.1948 H   0  0  0  0  0  0  0  0  0  0  0  0
    0.0006    2.9111   -0.0083 C   0  0  0  0  0  0  0  0  0  0  0  0
    0.7883    3.2214    0.4972 H   0  0  0  0  0  0  0  0  0  0  0  0
   -0.8422    3.2211    0.3999 H   0  0  0  0  0  0  0  0  0  0  0  0
    0.0598    3.3397   -1.0088 H   0  0  0  0  0  0  0  0  0  0  0  0
    0.0007    1.4047    0.0018 C   0  0  0  0  0  0  0  0  0  0  0  0
   -1.1981    0.6950   -0.0016 C   0  0  0  0  0  0  0  0  0  0  0  0
   -2.0637    1.1850   -0.0069 H   0  0  0  0  0  0  0  0  0  0  0  0
   -1.2008   -0.6965   -0.0000 C   0  0  0  0  0  0  0  0  0  0  0  0
   -2.0788   -1.1902    0.0025 H   0  0  0  0  0  0  0  0  0  0  0  0
   -0.0011   -1.3942   -0.0003 C   0  0  0  0  0  0  0  0  0  0  0  0
   -0.0065   -2.3931   -0.0015 H   0  0  0  0  0  0  0  0  0  0  0  0
    1.2008   -0.7006    0.0000 C   0  0  0  0  0  0  0  0  0  0  0  0
    2.0813   -1.1988    0.0016 H   0  0  0  0  0  0  0  0  0  0  0  0
    1.1985    0.6917    0.0001 C   0  0  0  0  0  0  0  0  0  0  0  0
    2.0662    1.1869   -0.0018 H   0  0  0  0  0  0  0  0  0  0  0  0
  1  5  1  0
  5  8  1  0
  1  2  1  0
  1  3  1  0
  1  4  1  0
  5  6  1  0
  5  7  1  0
  8  9  1  0
  8 10  1  0
  8 11  1  0
 12 16  1  0
 16 17  2  0
 17 19  1  0
 19 21  2  0
 21 23  1  0
 23 25  2  0
 25 16  1  0
 12 13  1  0
 12 14  1  0
 12 15  1  0
 17 18  1  0
 19 20  1  0
 21 22  1  0
 23 24  1  0
 25 26  1  0
M  CHG  1   8   1
M  END
>  <PDB_ID>  (3242) 
pdb5jvk

>  <RESIDUE_NAME>  (3242) 
LYS   PHE

>  <FRAG_NAME>  (3242) 
ETAM   MBZ

>  <FRAG_ATOM_NUM>  (3242) 
fragi: 11  fragj: 15

>  <atom.prop.CHAIN_ID>  (3242) 
A A A A A A A A A A A Z Z Z Z Z Z Z Z Z Z Z Z Z Z Z

>  <atom.prop.IS_HEAVY_ATOM>  (3242) 
1 0 0 0 1 0 0 1 0 0 0 1 0 0 0 1 1 0 1 0 1 0 1 0 1 0

>  <DIFUSE_FUNC_ATOM>  (3242) 
n/a

>  <FINAL_SINGLE_POINT_ENERGY>  (3242) 
0

>  <NONCOV_INTER_ENERGY_QM>  (3242) 
0

>  <FF_Energy>  (3242) 
-8.19

>  <QM_Energy>  (3242) 
-14.31

>  <source>  (3242) 
ETAM_MBZ

>  <Index>  (3242) 
35453

$$$$
ETAM-pdb5kn4-A-LYS-319:MBZ-pdb5kn4-A-PHE-323
     RDKit          3D

 26 25  0  0  0  0  0  0  0  0999 V2000
    4.5372   -3.2447   -1.3088 C   0  0  0  0  0  0  0  0  0  0  0  0
    4.9316   -3.7344   -2.0714 H   0  0  0  0  0  0  0  0  0  0  0  0
    5.1563   -3.2128   -0.5396 H   0  0  0  0  0  0  0  0  0  0  0  0
    4.3182   -2.2249   -1.6249 H   0  0  0  0  0  0  0  0  0  0  0  0
    3.2565   -3.9538   -0.8790 C   0  0  0  0  0  0  0  0  0  0  0  0
    2.5666   -3.8367   -1.5955 H   0  0  0  0  0  0  0  0  0  0  0  0
    3.4502   -4.9298   -0.7644 H   0  0  0  0  0  0  0  0  0  0  0  0
    2.7330   -3.4032    0.4020 N   0  0  0  0  0  4  0  0  0  0  0  0
    2.8146   -2.4067    0.3923 H   0  0  0  0  0  0  0  0  0  0  0  0
    1.7728   -3.6598    0.5046 H   0  0  0  0  0  0  0  0  0  0  0  0
    3.2629   -3.7750    1.1638 H   0  0  0  0  0  0  0  0  0  0  0  0
   -0.0087    2.9277   -0.0140 C   0  0  0  0  0  0  0  0  0  0  0  0
    0.8872    3.2399    0.2562 H   0  0  0  0  0  0  0  0  0  0  0  0
   -0.7075    3.2400    0.6080 H   0  0  0  0  0  0  0  0  0  0  0  0
   -0.2257    3.3443   -0.9975 H   0  0  0  0  0  0  0  0  0  0  0  0
   -0.0011    1.4089    0.0223 C   0  0  0  0  0  0  0  0  0  0  0  0
   -1.1937    0.6900   -0.0019 C   0  0  0  0  0  0  0  0  0  0  0  0
   -2.0640    1.1787   -0.0224 H   0  0  0  0  0  0  0  0  0  0  0  0
   -1.1982   -0.7014   -0.0000 C   0  0  0  0  0  0  0  0  0  0  0  0
   -2.0752   -1.1947    0.0063 H   0  0  0  0  0  0  0  0  0  0  0  0
    0.0032   -1.3984   -0.0045 C   0  0  0  0  0  0  0  0  0  0  0  0
    0.0001   -2.3950   -0.0109 H   0  0  0  0  0  0  0  0  0  0  0  0
    1.1982   -0.6974    0.0000 C   0  0  0  0  0  0  0  0  0  0  0  0
    2.0831   -1.1895    0.0165 H   0  0  0  0  0  0  0  0  0  0  0  0
    1.1917    0.6983   -0.0158 C   0  0  0  0  0  0  0  0  0  0  0  0
    2.0617    1.1922   -0.0561 H   0  0  0  0  0  0  0  0  0  0  0  0
  1  5  1  0
  5  8  1  0
  1  2  1  0
  1  3  1  0
  1  4  1  0
  5  6  1  0
  5  7  1  0
  8  9  1  0
  8 10  1  0
  8 11  1  0
 12 16  1  0
 16 17  2  0
 17 19  1  0
 19 21  2  0
 21 23  1  0
 23 25  2  0
 25 16  1  0
 12 13  1  0
 12 14  1  0
 12 15  1  0
 17 18  1  0
 19 20  1  0
 21 22  1  0
 23 24  1  0
 25 26  1  0
M  CHG  1   8   1
M  END
>  <PDB_ID>  (3243) 
pdb5kn4

>  <RESIDUE_NAME>  (3243) 
LYS   PHE

>  <FRAG_NAME>  (3243) 
ETAM   MBZ

>  <FRAG_ATOM_NUM>  (3243) 
fragi: 11  fragj: 15

>  <atom.prop.CHAIN_ID>  (3243) 
A A A A A A A A A A A Z Z Z Z Z Z Z Z Z Z Z Z Z Z Z

>  <atom.prop.IS_HEAVY_ATOM>  (3243) 
1 0 0 0 1 0 0 1 0 0 0 1 0 0 0 1 1 0 1 0 1 0 1 0 1 0

>  <DIFUSE_FUNC_ATOM>  (3243) 
n/a

>  <FINAL_SINGLE_POINT_ENERGY>  (3243) 
0

>  <NONCOV_INTER_ENERGY_QM>  (3243) 
0

>  <FF_Energy>  (3243) 
5.23

>  <QM_Energy>  (3243) 
-1.58

>  <source>  (3243) 
ETAM_MBZ

>  <Index>  (3243) 
35505

$$$$
ETAM-pdb5ko7-B-LYS-23:MBZ-pdb5ko7-B-PHE-15
     RDKit          3D

 26 25  0  0  0  0  0  0  0  0999 V2000
    2.5178   -0.7883    3.2488 C   0  0  0  0  0  0  0  0  0  0  0  0
    2.3878   -0.1554    2.5256 H   0  0  0  0  0  0  0  0  0  0  0  0
    2.8037   -1.6468    2.9005 H   0  0  0  0  0  0  0  0  0  0  0  0
    3.2725   -0.4052    3.9356 H   0  0  0  0  0  0  0  0  0  0  0  0
    1.1889   -0.9778    3.9673 C   0  0  0  0  0  0  0  0  0  0  0  0
    1.3033   -1.6339    4.6731 H   0  0  0  0  0  0  0  0  0  0  0  0
    0.9116   -0.1291    4.3464 H   0  0  0  0  0  0  0  0  0  0  0  0
    0.1022   -1.4548    3.0747 N   0  0  0  0  0  4  0  0  0  0  0  0
   -0.6516   -1.5507    3.5371 H   0  0  0  0  0  0  0  0  0  0  0  0
   -0.0327   -0.8678    2.4197 H   0  0  0  0  0  0  0  0  0  0  0  0
    0.3247   -2.2394    2.7173 H   0  0  0  0  0  0  0  0  0  0  0  0
    0.0047    2.8979   -0.0068 C   0  0  0  0  0  0  0  0  0  0  0  0
    0.8992    3.1900   -0.2421 H   0  0  0  0  0  0  0  0  0  0  0  0
   -0.2139    3.1991    0.8889 H   0  0  0  0  0  0  0  0  0  0  0  0
   -0.7049    3.3360   -0.7086 H   0  0  0  0  0  0  0  0  0  0  0  0
    0.0008    1.3946    0.0015 C   0  0  0  0  0  0  0  0  0  0  0  0
   -1.1910    0.6882   -0.0008 C   0  0  0  0  0  0  0  0  0  0  0  0
   -1.9985    1.1494   -0.0020 H   0  0  0  0  0  0  0  0  0  0  0  0
   -1.1938   -0.6944    0.0000 C   0  0  0  0  0  0  0  0  0  0  0  0
   -1.9997   -1.1582   -0.0005 H   0  0  0  0  0  0  0  0  0  0  0  0
   -0.0002   -1.3845   -0.0012 C   0  0  0  0  0  0  0  0  0  0  0  0
    0.0007   -2.3145    0.0015 H   0  0  0  0  0  0  0  0  0  0  0  0
    1.1938   -0.6930    0.0000 C   0  0  0  0  0  0  0  0  0  0  0  0
    1.9994   -1.1565    0.0009 H   0  0  0  0  0  0  0  0  0  0  0  0
    1.1904    0.6890    0.0005 C   0  0  0  0  0  0  0  0  0  0  0  0
    1.9986    1.1499   -0.0011 H   0  0  0  0  0  0  0  0  0  0  0  0
  1  5  1  0
  5  8  1  0
  1  2  1  0
  1  3  1  0
  1  4  1  0
  5  6  1  0
  5  7  1  0
  8  9  1  0
  8 10  1  0
  8 11  1  0
 12 16  1  0
 16 17  2  0
 17 19  1  0
 19 21  2  0
 21 23  1  0
 23 25  2  0
 25 16  1  0
 12 13  1  0
 12 14  1  0
 12 15  1  0
 17 18  1  0
 19 20  1  0
 21 22  1  0
 23 24  1  0
 25 26  1  0
M  CHG  1   8   1
M  END
>  <PDB_ID>  (3244) 
pdb5ko7

>  <RESIDUE_NAME>  (3244) 
LYS   PHE

>  <FRAG_NAME>  (3244) 
ETAM   MBZ

>  <FRAG_ATOM_NUM>  (3244) 
fragi: 11  fragj: 15

>  <atom.prop.CHAIN_ID>  (3244) 
A A A A A A A A A A A Z Z Z Z Z Z Z Z Z Z Z Z Z Z Z

>  <atom.prop.IS_HEAVY_ATOM>  (3244) 
1 0 0 0 1 0 0 1 0 0 0 1 0 0 0 1 1 0 1 0 1 0 1 0 1 0

>  <DIFUSE_FUNC_ATOM>  (3244) 
n/a

>  <FINAL_SINGLE_POINT_ENERGY>  (3244) 
0

>  <NONCOV_INTER_ENERGY_QM>  (3244) 
0

>  <FF_Energy>  (3244) 
-6.55

>  <QM_Energy>  (3244) 
-14.15

>  <source>  (3244) 
ETAM_MBZ

>  <Index>  (3244) 
35516

$$$$
ETAM-pdb6ncw-A-LYS-481:MBZ-pdb6ncw-D-PHE-522
     RDKit          3D

 26 25  0  0  0  0  0  0  0  0999 V2000
    0.0420    0.7350    3.5022 C   0  0  0  0  0  0  0  0  0  0  0  0
   -0.6404    1.2469    3.0160 H   0  0  0  0  0  0  0  0  0  0  0  0
    0.6343    0.2324    2.9008 H   0  0  0  0  0  0  0  0  0  0  0  0
    0.6398    1.4195    4.1039 H   0  0  0  0  0  0  0  0  0  0  0  0
   -0.6715   -0.2674    4.4311 C   0  0  0  0  0  0  0  0  0  0  0  0
    0.0302   -0.7567    4.9592 H   0  0  0  0  0  0  0  0  0  0  0  0
   -1.2457    0.2548    5.0718 H   0  0  0  0  0  0  0  0  0  0  0  0
   -1.5017   -1.2332    3.6891 N   0  0  0  0  0  4  0  0  0  0  0  0
   -1.5252   -0.9849    2.7187 H   0  0  0  0  0  0  0  0  0  0  0  0
   -1.1175   -2.1539    3.7840 H   0  0  0  0  0  0  0  0  0  0  0  0
   -2.4355   -1.2268    4.0526 H   0  0  0  0  0  0  0  0  0  0  0  0
   -0.0025    2.9107   -0.0410 C   0  0  0  0  0  0  0  0  0  0  0  0
    0.8507    3.2325    0.3252 H   0  0  0  0  0  0  0  0  0  0  0  0
   -0.7756    3.2400    0.4689 H   0  0  0  0  0  0  0  0  0  0  0  0
   -0.0906    3.3001   -1.0552 H   0  0  0  0  0  0  0  0  0  0  0  0
   -0.0047    1.4065    0.0119 C   0  0  0  0  0  0  0  0  0  0  0  0
   -1.1993    0.7023    0.0007 C   0  0  0  0  0  0  0  0  0  0  0  0
   -2.0664    1.1901   -0.0082 H   0  0  0  0  0  0  0  0  0  0  0  0
   -1.2023   -0.6913   -0.0000 C   0  0  0  0  0  0  0  0  0  0  0  0
   -2.0770   -1.1873    0.0065 H   0  0  0  0  0  0  0  0  0  0  0  0
    0.0057   -1.3967   -0.0080 C   0  0  0  0  0  0  0  0  0  0  0  0
   -0.0095   -2.3938   -0.0197 H   0  0  0  0  0  0  0  0  0  0  0  0
    1.2023   -0.7069    0.0000 C   0  0  0  0  0  0  0  0  0  0  0  0
    2.0848   -1.2015    0.0103 H   0  0  0  0  0  0  0  0  0  0  0  0
    1.1983    0.6860   -0.0046 C   0  0  0  0  0  0  0  0  0  0  0  0
    2.0653    1.1833   -0.0206 H   0  0  0  0  0  0  0  0  0  0  0  0
  1  5  1  0
  5  8  1  0
  1  2  1  0
  1  3  1  0
  1  4  1  0
  5  6  1  0
  5  7  1  0
  8  9  1  0
  8 10  1  0
  8 11  1  0
 12 16  1  0
 16 17  2  0
 17 19  1  0
 19 21  2  0
 21 23  1  0
 23 25  2  0
 25 16  1  0
 12 13  1  0
 12 14  1  0
 12 15  1  0
 17 18  1  0
 19 20  1  0
 21 22  1  0
 23 24  1  0
 25 26  1  0
M  CHG  1   8   1
M  END
>  <PDB_ID>  (3245) 
pdb6ncw

>  <RESIDUE_NAME>  (3245) 
LYS   PHE

>  <FRAG_NAME>  (3245) 
ETAM   MBZ

>  <FRAG_ATOM_NUM>  (3245) 
fragi: 11  fragj: 15

>  <atom.prop.CHAIN_ID>  (3245) 
A A A A A A A A A A A Z Z Z Z Z Z Z Z Z Z Z Z Z Z Z

>  <atom.prop.IS_HEAVY_ATOM>  (3245) 
1 0 0 0 1 0 0 1 0 0 0 1 0 0 0 1 1 0 1 0 1 0 1 0 1 0

>  <DIFUSE_FUNC_ATOM>  (3245) 
n/a

>  <FINAL_SINGLE_POINT_ENERGY>  (3245) 
0

>  <NONCOV_INTER_ENERGY_QM>  (3245) 
0

>  <FF_Energy>  (3245) 
-5.85

>  <QM_Energy>  (3245) 
-11.99

>  <source>  (3245) 
ETAM_MBZ

>  <Index>  (3245) 
35530

$$$$
ETAM-pdb6ncy-A-LYS-519:MBZ-pdb6ncy-A-PHE-471
     RDKit          3D

 26 25  0  0  0  0  0  0  0  0999 V2000
    0.0357    0.0595   -3.2456 C   0  0  0  0  0  0  0  0  0  0  0  0
    0.2511   -0.0952   -2.2802 H   0  0  0  0  0  0  0  0  0  0  0  0
   -0.0859    1.0403   -3.4034 H   0  0  0  0  0  0  0  0  0  0  0  0
    0.8641   -0.2997   -3.8562 H   0  0  0  0  0  0  0  0  0  0  0  0
   -1.2692   -0.6427   -3.5644 C   0  0  0  0  0  0  0  0  0  0  0  0
   -1.2286   -1.5856   -3.2136 H   0  0  0  0  0  0  0  0  0  0  0  0
   -2.0218   -0.1630   -3.0989 H   0  0  0  0  0  0  0  0  0  0  0  0
   -1.5528   -0.6829   -5.0284 N   0  0  0  0  0  4  0  0  0  0  0  0
   -2.3696   -0.1397   -5.2213 H   0  0  0  0  0  0  0  0  0  0  0  0
   -0.7729   -0.3053   -5.5261 H   0  0  0  0  0  0  0  0  0  0  0  0
   -1.7043   -1.6297   -5.3088 H   0  0  0  0  0  0  0  0  0  0  0  0
   -0.0090    2.9088   -0.0119 C   0  0  0  0  0  0  0  0  0  0  0  0
   -0.9099    3.2052   -0.3020 H   0  0  0  0  0  0  0  0  0  0  0  0
    0.6850    3.2114   -0.6515 H   0  0  0  0  0  0  0  0  0  0  0  0
    0.2009    3.3748    0.9508 H   0  0  0  0  0  0  0  0  0  0  0  0
    0.0007    1.4044    0.0061 C   0  0  0  0  0  0  0  0  0  0  0  0
   -1.2042    0.6844   -0.0034 C   0  0  0  0  0  0  0  0  0  0  0  0
   -2.0683    1.1816   -0.0138 H   0  0  0  0  0  0  0  0  0  0  0  0
   -1.2107   -0.7012   -0.0000 C   0  0  0  0  0  0  0  0  0  0  0  0
   -2.0797   -1.2014    0.0078 H   0  0  0  0  0  0  0  0  0  0  0  0
    0.0040   -1.3990   -0.0049 C   0  0  0  0  0  0  0  0  0  0  0  0
    0.0016   -2.3951   -0.0124 H   0  0  0  0  0  0  0  0  0  0  0  0
    1.2107   -0.6956   -0.0000 C   0  0  0  0  0  0  0  0  0  0  0  0
    2.0909   -1.1866    0.0040 H   0  0  0  0  0  0  0  0  0  0  0  0
    1.1996    0.7069    0.0023 C   0  0  0  0  0  0  0  0  0  0  0  0
    2.0658    1.2014   -0.0001 H   0  0  0  0  0  0  0  0  0  0  0  0
  1  5  1  0
  5  8  1  0
  1  2  1  0
  1  3  1  0
  1  4  1  0
  5  6  1  0
  5  7  1  0
  8  9  1  0
  8 10  1  0
  8 11  1  0
 12 16  1  0
 16 17  2  0
 17 19  1  0
 19 21  2  0
 21 23  1  0
 23 25  2  0
 25 16  1  0
 12 13  1  0
 12 14  1  0
 12 15  1  0
 17 18  1  0
 19 20  1  0
 21 22  1  0
 23 24  1  0
 25 26  1  0
M  CHG  1   8   1
M  END
>  <PDB_ID>  (3246) 
pdb6ncy

>  <RESIDUE_NAME>  (3246) 
LYS   PHE

>  <FRAG_NAME>  (3246) 
ETAM   MBZ

>  <FRAG_ATOM_NUM>  (3246) 
fragi: 11  fragj: 15

>  <atom.prop.CHAIN_ID>  (3246) 
A A A A A A A A A A A Z Z Z Z Z Z Z Z Z Z Z Z Z Z Z

>  <atom.prop.IS_HEAVY_ATOM>  (3246) 
1 0 0 0 1 0 0 1 0 0 0 1 0 0 0 1 1 0 1 0 1 0 1 0 1 0

>  <DIFUSE_FUNC_ATOM>  (3246) 
n/a

>  <FINAL_SINGLE_POINT_ENERGY>  (3246) 
0

>  <NONCOV_INTER_ENERGY_QM>  (3246) 
0

>  <FF_Energy>  (3246) 
-2.58

>  <QM_Energy>  (3246) 
-8.62

>  <source>  (3246) 
ETAM_MBZ

>  <Index>  (3246) 
35531

$$$$
ETAM-pdb6ncw-D-LYS-481:MBZ-pdb6ncw-A-PHE-522
     RDKit          3D

 26 25  0  0  0  0  0  0  0  0999 V2000
   -0.0581    0.5838    3.5306 C   0  0  0  0  0  0  0  0  0  0  0  0
   -0.7354    1.0463    2.9749 H   0  0  0  0  0  0  0  0  0  0  0  0
    0.6066    0.1162    2.9635 H   0  0  0  0  0  0  0  0  0  0  0  0
    0.4571    1.3208    4.1465 H   0  0  0  0  0  0  0  0  0  0  0  0
   -0.7674   -0.4503    4.3999 C   0  0  0  0  0  0  0  0  0  0  0  0
   -0.0913   -0.8762    5.0124 H   0  0  0  0  0  0  0  0  0  0  0  0
   -1.4567    0.0188    4.9642 H   0  0  0  0  0  0  0  0  0  0  0  0
   -1.4384   -1.5164    3.5987 N   0  0  0  0  0  4  0  0  0  0  0  0
   -2.2960   -1.1605    3.2303 H   0  0  0  0  0  0  0  0  0  0  0  0
   -0.8379   -1.7923    2.8490 H   0  0  0  0  0  0  0  0  0  0  0  0
   -1.6253   -2.3019    4.1865 H   0  0  0  0  0  0  0  0  0  0  0  0
   -0.0065    2.9055   -0.0557 C   0  0  0  0  0  0  0  0  0  0  0  0
    0.8396    3.2341    0.3222 H   0  0  0  0  0  0  0  0  0  0  0  0
   -0.7892    3.2344    0.4397 H   0  0  0  0  0  0  0  0  0  0  0  0
   -0.0803    3.2827   -1.0757 H   0  0  0  0  0  0  0  0  0  0  0  0
   -0.0026    1.4044    0.0105 C   0  0  0  0  0  0  0  0  0  0  0  0
   -1.1956    0.6986   -0.0001 C   0  0  0  0  0  0  0  0  0  0  0  0
   -2.0644    1.1883   -0.0092 H   0  0  0  0  0  0  0  0  0  0  0  0
   -1.2059   -0.6962    0.0000 C   0  0  0  0  0  0  0  0  0  0  0  0
   -2.0829   -1.1857    0.0065 H   0  0  0  0  0  0  0  0  0  0  0  0
   -0.0037   -1.3949   -0.0074 C   0  0  0  0  0  0  0  0  0  0  0  0
   -0.0115   -2.3958   -0.0189 H   0  0  0  0  0  0  0  0  0  0  0  0
    1.2059   -0.7078    0.0000 C   0  0  0  0  0  0  0  0  0  0  0  0
    2.0816   -1.2021    0.0091 H   0  0  0  0  0  0  0  0  0  0  0  0
    1.2019    0.6959   -0.0029 C   0  0  0  0  0  0  0  0  0  0  0  0
    2.0670    1.1885   -0.0154 H   0  0  0  0  0  0  0  0  0  0  0  0
  1  5  1  0
  5  8  1  0
  1  2  1  0
  1  3  1  0
  1  4  1  0
  5  6  1  0
  5  7  1  0
  8  9  1  0
  8 10  1  0
  8 11  1  0
 12 16  1  0
 16 17  2  0
 17 19  1  0
 19 21  2  0
 21 23  1  0
 23 25  2  0
 25 16  1  0
 12 13  1  0
 12 14  1  0
 12 15  1  0
 17 18  1  0
 19 20  1  0
 21 22  1  0
 23 24  1  0
 25 26  1  0
M  CHG  1   8   1
M  END
>  <PDB_ID>  (3247) 
pdb6ncw

>  <RESIDUE_NAME>  (3247) 
LYS   PHE

>  <FRAG_NAME>  (3247) 
ETAM   MBZ

>  <FRAG_ATOM_NUM>  (3247) 
fragi: 11  fragj: 15

>  <atom.prop.CHAIN_ID>  (3247) 
A A A A A A A A A A A Z Z Z Z Z Z Z Z Z Z Z Z Z Z Z

>  <atom.prop.IS_HEAVY_ATOM>  (3247) 
1 0 0 0 1 0 0 1 0 0 0 1 0 0 0 1 1 0 1 0 1 0 1 0 1 0

>  <DIFUSE_FUNC_ATOM>  (3247) 
n/a

>  <FINAL_SINGLE_POINT_ENERGY>  (3247) 
0

>  <NONCOV_INTER_ENERGY_QM>  (3247) 
0

>  <FF_Energy>  (3247) 
-5.58

>  <QM_Energy>  (3247) 
-11.42

>  <source>  (3247) 
ETAM_MBZ

>  <Index>  (3247) 
35545

$$$$
ETAM-pdb6nq4-A-LYS-217:MBZ-pdb6nq4-A-PHE-237
     RDKit          3D

 26 25  0  0  0  0  0  0  0  0999 V2000
    1.3679   -0.0473    4.4251 C   0  0  0  0  0  0  0  0  0  0  0  0
    0.9812   -0.0082    5.3410 H   0  0  0  0  0  0  0  0  0  0  0  0
    1.4053    0.8625    4.0262 H   0  0  0  0  0  0  0  0  0  0  0  0
    2.3640   -0.4892    4.4544 H   0  0  0  0  0  0  0  0  0  0  0  0
    0.4726   -0.8982    3.5722 C   0  0  0  0  0  0  0  0  0  0  0  0
    0.8947   -1.0192    2.6722 H   0  0  0  0  0  0  0  0  0  0  0  0
    0.3597   -1.7941    4.0051 H   0  0  0  0  0  0  0  0  0  0  0  0
   -0.8387   -0.2598    3.4172 N   0  0  0  0  0  4  0  0  0  0  0  0
   -1.4567   -0.8657    2.9095 H   0  0  0  0  0  0  0  0  0  0  0  0
   -1.2355   -0.0698    4.3183 H   0  0  0  0  0  0  0  0  0  0  0  0
   -0.7427    0.6031    2.9142 H   0  0  0  0  0  0  0  0  0  0  0  0
    0.0155    2.9064   -0.0336 C   0  0  0  0  0  0  0  0  0  0  0  0
   -0.3982    3.1936   -0.8863 H   0  0  0  0  0  0  0  0  0  0  0  0
    0.9587    3.2030    0.0226 H   0  0  0  0  0  0  0  0  0  0  0  0
   -0.5316    3.3852    0.7785 H   0  0  0  0  0  0  0  0  0  0  0  0
   -0.0002    1.3975    0.0044 C   0  0  0  0  0  0  0  0  0  0  0  0
   -1.1946    0.6927   -0.0084 C   0  0  0  0  0  0  0  0  0  0  0  0
   -2.0609    1.1840   -0.0250 H   0  0  0  0  0  0  0  0  0  0  0  0
   -1.1960   -0.6918   -0.0000 C   0  0  0  0  0  0  0  0  0  0  0  0
   -2.0722   -1.1893    0.0097 H   0  0  0  0  0  0  0  0  0  0  0  0
    0.0056   -1.3882   -0.0031 C   0  0  0  0  0  0  0  0  0  0  0  0
   -0.0049   -2.3887   -0.0081 H   0  0  0  0  0  0  0  0  0  0  0  0
    1.1960   -0.6985    0.0000 C   0  0  0  0  0  0  0  0  0  0  0  0
    2.0813   -1.1932   -0.0014 H   0  0  0  0  0  0  0  0  0  0  0  0
    1.1891    0.6882    0.0071 C   0  0  0  0  0  0  0  0  0  0  0  0
    2.0611    1.1851    0.0140 H   0  0  0  0  0  0  0  0  0  0  0  0
  1  5  1  0
  5  8  1  0
  1  2  1  0
  1  3  1  0
  1  4  1  0
  5  6  1  0
  5  7  1  0
  8  9  1  0
  8 10  1  0
  8 11  1  0
 12 16  1  0
 16 17  2  0
 17 19  1  0
 19 21  2  0
 21 23  1  0
 23 25  2  0
 25 16  1  0
 12 13  1  0
 12 14  1  0
 12 15  1  0
 17 18  1  0
 19 20  1  0
 21 22  1  0
 23 24  1  0
 25 26  1  0
M  CHG  1   8   1
M  END
>  <PDB_ID>  (3248) 
pdb6nq4

>  <RESIDUE_NAME>  (3248) 
LYS   PHE

>  <FRAG_NAME>  (3248) 
ETAM   MBZ

>  <FRAG_ATOM_NUM>  (3248) 
fragi: 11  fragj: 15

>  <atom.prop.CHAIN_ID>  (3248) 
A A A A A A A A A A A Z Z Z Z Z Z Z Z Z Z Z Z Z Z Z

>  <atom.prop.IS_HEAVY_ATOM>  (3248) 
1 0 0 0 1 0 0 1 0 0 0 1 0 0 0 1 1 0 1 0 1 0 1 0 1 0

>  <DIFUSE_FUNC_ATOM>  (3248) 
n/a

>  <FINAL_SINGLE_POINT_ENERGY>  (3248) 
0

>  <NONCOV_INTER_ENERGY_QM>  (3248) 
0

>  <FF_Energy>  (3248) 
-7.65

>  <QM_Energy>  (3248) 
-14.1

>  <source>  (3248) 
ETAM_MBZ

>  <Index>  (3248) 
35567

$$$$
ETAM-pdb5ktl-A-LYS-256:MBZ-pdb5ktl-A-PHE-15
     RDKit          3D

 26 25  0  0  0  0  0  0  0  0999 V2000
    5.8325    0.3775   -2.9572 C   0  0  0  0  0  0  0  0  0  0  0  0
    5.9596   -0.4996   -2.5417 H   0  0  0  0  0  0  0  0  0  0  0  0
    6.1096    1.1189   -2.3812 H   0  0  0  0  0  0  0  0  0  0  0  0
    6.4221    0.4127   -3.8732 H   0  0  0  0  0  0  0  0  0  0  0  0
    4.4286    0.5489   -3.3675 C   0  0  0  0  0  0  0  0  0  0  0  0
    4.3062    1.4405   -3.7948 H   0  0  0  0  0  0  0  0  0  0  0  0
    4.1705   -0.1723   -4.0056 H   0  0  0  0  0  0  0  0  0  0  0  0
    3.5985    0.4626   -2.1735 N   0  0  0  0  0  4  0  0  0  0  0  0
    2.8112   -0.1394   -2.3407 H   0  0  0  0  0  0  0  0  0  0  0  0
    4.1312    0.0915   -1.4067 H   0  0  0  0  0  0  0  0  0  0  0  0
    3.2588    1.3743   -1.9199 H   0  0  0  0  0  0  0  0  0  0  0  0
   -0.0293    2.9095    0.0219 C   0  0  0  0  0  0  0  0  0  0  0  0
    0.9097    3.2136    0.1378 H   0  0  0  0  0  0  0  0  0  0  0  0
   -0.5868    3.1965    0.7926 H   0  0  0  0  0  0  0  0  0  0  0  0
   -0.4269    3.3857   -0.8743 H   0  0  0  0  0  0  0  0  0  0  0  0
   -0.0223    1.3972   -0.0013 C   0  0  0  0  0  0  0  0  0  0  0  0
   -1.1870    0.6820   -0.0080 C   0  0  0  0  0  0  0  0  0  0  0  0
   -2.0721    1.1631   -0.0205 H   0  0  0  0  0  0  0  0  0  0  0  0
   -1.1973   -0.7093   -0.0000 C   0  0  0  0  0  0  0  0  0  0  0  0
   -2.0606   -1.2072    0.0149 H   0  0  0  0  0  0  0  0  0  0  0  0
    0.0232   -1.3909   -0.0109 C   0  0  0  0  0  0  0  0  0  0  0  0
    0.0252   -2.3889   -0.0271 H   0  0  0  0  0  0  0  0  0  0  0  0
    1.1973   -0.6787   -0.0000 C   0  0  0  0  0  0  0  0  0  0  0  0
    2.0939   -1.1691   -0.0056 H   0  0  0  0  0  0  0  0  0  0  0  0
    1.1861    0.6997    0.0202 C   0  0  0  0  0  0  0  0  0  0  0  0
    2.0447    1.2090    0.0496 H   0  0  0  0  0  0  0  0  0  0  0  0
  1  5  1  0
  5  8  1  0
  1  2  1  0
  1  3  1  0
  1  4  1  0
  5  6  1  0
  5  7  1  0
  8  9  1  0
  8 10  1  0
  8 11  1  0
 12 16  1  0
 16 17  2  0
 17 19  1  0
 19 21  2  0
 21 23  1  0
 23 25  2  0
 25 16  1  0
 12 13  1  0
 12 14  1  0
 12 15  1  0
 17 18  1  0
 19 20  1  0
 21 22  1  0
 23 24  1  0
 25 26  1  0
M  CHG  1   8   1
M  END
>  <PDB_ID>  (3249) 
pdb5ktl

>  <RESIDUE_NAME>  (3249) 
LYS   PHE

>  <FRAG_NAME>  (3249) 
ETAM   MBZ

>  <FRAG_ATOM_NUM>  (3249) 
fragi: 11  fragj: 15

>  <atom.prop.CHAIN_ID>  (3249) 
A A A A A A A A A A A Z Z Z Z Z Z Z Z Z Z Z Z Z Z Z

>  <atom.prop.IS_HEAVY_ATOM>  (3249) 
1 0 0 0 1 0 0 1 0 0 0 1 0 0 0 1 1 0 1 0 1 0 1 0 1 0

>  <DIFUSE_FUNC_ATOM>  (3249) 
n/a

>  <FINAL_SINGLE_POINT_ENERGY>  (3249) 
0

>  <NONCOV_INTER_ENERGY_QM>  (3249) 
0

>  <FF_Energy>  (3249) 
-1.15

>  <QM_Energy>  (3249) 
-7.07

>  <source>  (3249) 
ETAM_MBZ

>  <Index>  (3249) 
35576

$$$$
ETAM-pdb6nst-A-LYS-283:MBZ-pdb6nst-A-PHE-234
     RDKit          3D

 26 25  0  0  0  0  0  0  0  0999 V2000
    1.0382   -5.4264   -1.4254 C   0  0  0  0  0  0  0  0  0  0  0  0
    1.2446   -4.6831   -2.0540 H   0  0  0  0  0  0  0  0  0  0  0  0
    0.5791   -6.1668   -1.9064 H   0  0  0  0  0  0  0  0  0  0  0  0
    1.9714   -5.8028   -1.0065 H   0  0  0  0  0  0  0  0  0  0  0  0
    0.1109   -4.9026   -0.3422 C   0  0  0  0  0  0  0  0  0  0  0  0
   -0.0414   -5.6274    0.3352 H   0  0  0  0  0  0  0  0  0  0  0  0
    0.5483   -4.1210    0.1115 H   0  0  0  0  0  0  0  0  0  0  0  0
   -1.2035   -4.4706   -0.8970 N   0  0  0  0  0  4  0  0  0  0  0  0
   -1.1202   -4.3446   -1.8845 H   0  0  0  0  0  0  0  0  0  0  0  0
   -1.8893   -5.1717   -0.7051 H   0  0  0  0  0  0  0  0  0  0  0  0
   -1.4748   -3.6083   -0.4708 H   0  0  0  0  0  0  0  0  0  0  0  0
   -0.0014    2.8927   -0.0010 C   0  0  0  0  0  0  0  0  0  0  0  0
    0.8773    3.2008   -0.3327 H   0  0  0  0  0  0  0  0  0  0  0  0
   -0.1650    3.2014    0.9244 H   0  0  0  0  0  0  0  0  0  0  0  0
   -0.7698    3.3304   -0.6384 H   0  0  0  0  0  0  0  0  0  0  0  0
    0.0004    1.3933    0.0004 C   0  0  0  0  0  0  0  0  0  0  0  0
   -1.1900    0.6880   -0.0006 C   0  0  0  0  0  0  0  0  0  0  0  0
   -2.0589    1.1801   -0.0029 H   0  0  0  0  0  0  0  0  0  0  0  0
   -1.1946   -0.6933   -0.0000 C   0  0  0  0  0  0  0  0  0  0  0  0
   -2.0735   -1.1886    0.0023 H   0  0  0  0  0  0  0  0  0  0  0  0
   -0.0018   -1.3838   -0.0002 C   0  0  0  0  0  0  0  0  0  0  0  0
   -0.0043   -2.3866   -0.0013 H   0  0  0  0  0  0  0  0  0  0  0  0
    1.1946   -0.6931   -0.0000 C   0  0  0  0  0  0  0  0  0  0  0  0
    2.0767   -1.1936    0.0008 H   0  0  0  0  0  0  0  0  0  0  0  0
    1.1914    0.6888    0.0004 C   0  0  0  0  0  0  0  0  0  0  0  0
    2.0607    1.1862   -0.0005 H   0  0  0  0  0  0  0  0  0  0  0  0
  1  5  1  0
  5  8  1  0
  1  2  1  0
  1  3  1  0
  1  4  1  0
  5  6  1  0
  5  7  1  0
  8  9  1  0
  8 10  1  0
  8 11  1  0
 12 16  1  0
 16 17  2  0
 17 19  1  0
 19 21  2  0
 21 23  1  0
 23 25  2  0
 25 16  1  0
 12 13  1  0
 12 14  1  0
 12 15  1  0
 17 18  1  0
 19 20  1  0
 21 22  1  0
 23 24  1  0
 25 26  1  0
M  CHG  1   8   1
M  END
>  <PDB_ID>  (3250) 
pdb6nst

>  <RESIDUE_NAME>  (3250) 
LYS   PHE

>  <FRAG_NAME>  (3250) 
ETAM   MBZ

>  <FRAG_ATOM_NUM>  (3250) 
fragi: 11  fragj: 15

>  <atom.prop.CHAIN_ID>  (3250) 
A A A A A A A A A A A Z Z Z Z Z Z Z Z Z Z Z Z Z Z Z

>  <atom.prop.IS_HEAVY_ATOM>  (3250) 
1 0 0 0 1 0 0 1 0 0 0 1 0 0 0 1 1 0 1 0 1 0 1 0 1 0

>  <DIFUSE_FUNC_ATOM>  (3250) 
n/a

>  <FINAL_SINGLE_POINT_ENERGY>  (3250) 
0

>  <NONCOV_INTER_ENERGY_QM>  (3250) 
0

>  <FF_Energy>  (3250) 
5.41

>  <QM_Energy>  (3250) 
-3.22

>  <source>  (3250) 
ETAM_MBZ

>  <Index>  (3250) 
35597

$$$$
ETAM-pdb6nst-B-LYS-283:MBZ-pdb6nst-B-PHE-234
     RDKit          3D

 26 25  0  0  0  0  0  0  0  0999 V2000
    1.2238   -5.2956   -0.7672 C   0  0  0  0  0  0  0  0  0  0  0  0
    1.4184   -4.5109   -1.3460 H   0  0  0  0  0  0  0  0  0  0  0  0
    0.8051   -6.0235   -1.2976 H   0  0  0  0  0  0  0  0  0  0  0  0
    2.1587   -5.6607   -0.3422 H   0  0  0  0  0  0  0  0  0  0  0  0
    0.2503   -4.8666    0.3208 C   0  0  0  0  0  0  0  0  0  0  0  0
    0.0994   -5.6399    0.9453 H   0  0  0  0  0  0  0  0  0  0  0  0
    0.6569   -4.1086    0.8405 H   0  0  0  0  0  0  0  0  0  0  0  0
   -1.0613   -4.4264   -0.2358 N   0  0  0  0  0  4  0  0  0  0  0  0
   -1.1701   -3.4442   -0.0881 H   0  0  0  0  0  0  0  0  0  0  0  0
   -1.0872   -4.6233   -1.2148 H   0  0  0  0  0  0  0  0  0  0  0  0
   -1.7979   -4.9193    0.2262 H   0  0  0  0  0  0  0  0  0  0  0  0
   -0.0020    2.8951   -0.0019 C   0  0  0  0  0  0  0  0  0  0  0  0
    0.9191    3.2024   -0.1906 H   0  0  0  0  0  0  0  0  0  0  0  0
   -0.3096    3.2043    0.8859 H   0  0  0  0  0  0  0  0  0  0  0  0
   -0.6600    3.3323   -0.7528 H   0  0  0  0  0  0  0  0  0  0  0  0
   -0.0005    1.3951    0.0020 C   0  0  0  0  0  0  0  0  0  0  0  0
   -1.1928    0.6888   -0.0012 C   0  0  0  0  0  0  0  0  0  0  0  0
   -2.0606    1.1806   -0.0056 H   0  0  0  0  0  0  0  0  0  0  0  0
   -1.1956   -0.6937    0.0000 C   0  0  0  0  0  0  0  0  0  0  0  0
   -2.0730   -1.1907    0.0022 H   0  0  0  0  0  0  0  0  0  0  0  0
    0.0013   -1.3856    0.0002 C   0  0  0  0  0  0  0  0  0  0  0  0
   -0.0031   -2.3873    0.0002 H   0  0  0  0  0  0  0  0  0  0  0  0
    1.1956   -0.6944   -0.0000 C   0  0  0  0  0  0  0  0  0  0  0  0
    2.0793   -1.1930    0.0018 H   0  0  0  0  0  0  0  0  0  0  0  0
    1.1921    0.6897   -0.0010 C   0  0  0  0  0  0  0  0  0  0  0  0
    2.0611    1.1879   -0.0050 H   0  0  0  0  0  0  0  0  0  0  0  0
  1  5  1  0
  5  8  1  0
  1  2  1  0
  1  3  1  0
  1  4  1  0
  5  6  1  0
  5  7  1  0
  8  9  1  0
  8 10  1  0
  8 11  1  0
 12 16  1  0
 16 17  2  0
 17 19  1  0
 19 21  2  0
 21 23  1  0
 23 25  2  0
 25 16  1  0
 12 13  1  0
 12 14  1  0
 12 15  1  0
 17 18  1  0
 19 20  1  0
 21 22  1  0
 23 24  1  0
 25 26  1  0
M  CHG  1   8   1
M  END
>  <PDB_ID>  (3251) 
pdb6nst

>  <RESIDUE_NAME>  (3251) 
LYS   PHE

>  <FRAG_NAME>  (3251) 
ETAM   MBZ

>  <FRAG_ATOM_NUM>  (3251) 
fragi: 11  fragj: 15

>  <atom.prop.CHAIN_ID>  (3251) 
A A A A A A A A A A A Z Z Z Z Z Z Z Z Z Z Z Z Z Z Z

>  <atom.prop.IS_HEAVY_ATOM>  (3251) 
1 0 0 0 1 0 0 1 0 0 0 1 0 0 0 1 1 0 1 0 1 0 1 0 1 0

>  <DIFUSE_FUNC_ATOM>  (3251) 
n/a

>  <FINAL_SINGLE_POINT_ENERGY>  (3251) 
0

>  <NONCOV_INTER_ENERGY_QM>  (3251) 
0

>  <FF_Energy>  (3251) 
6.43

>  <QM_Energy>  (3251) 
-2.44

>  <source>  (3251) 
ETAM_MBZ

>  <Index>  (3251) 
35598

$$$$
ETAM-pdb6nst-D-LYS-283:MBZ-pdb6nst-D-PHE-234
     RDKit          3D

 26 25  0  0  0  0  0  0  0  0999 V2000
    1.3865   -5.4301   -0.2932 C   0  0  0  0  0  0  0  0  0  0  0  0
    1.7523   -4.7225   -0.8875 H   0  0  0  0  0  0  0  0  0  0  0  0
    1.1021   -6.2198   -0.8256 H   0  0  0  0  0  0  0  0  0  0  0  0
    2.1626   -5.7374    0.4076 H   0  0  0  0  0  0  0  0  0  0  0  0
    0.1714   -4.8730    0.4346 C   0  0  0  0  0  0  0  0  0  0  0  0
   -0.1577   -5.5589    1.0902 H   0  0  0  0  0  0  0  0  0  0  0  0
    0.4447   -4.0488    0.9410 H   0  0  0  0  0  0  0  0  0  0  0  0
   -0.9364   -4.5236   -0.5019 N   0  0  0  0  0  4  0  0  0  0  0  0
   -0.7490   -3.6338   -0.9165 H   0  0  0  0  0  0  0  0  0  0  0  0
   -0.9980   -5.2206   -1.2145 H   0  0  0  0  0  0  0  0  0  0  0  0
   -1.7966   -4.4840    0.0045 H   0  0  0  0  0  0  0  0  0  0  0  0
    0.0013    2.8946    0.0002 C   0  0  0  0  0  0  0  0  0  0  0  0
    0.9397    3.2011    0.0625 H   0  0  0  0  0  0  0  0  0  0  0  0
   -0.5296    3.2018    0.7763 H   0  0  0  0  0  0  0  0  0  0  0  0
   -0.4337    3.3363   -0.8962 H   0  0  0  0  0  0  0  0  0  0  0  0
   -0.0002    1.3941   -0.0012 C   0  0  0  0  0  0  0  0  0  0  0  0
   -1.1919    0.6895    0.0019 C   0  0  0  0  0  0  0  0  0  0  0  0
   -2.0598    1.1816    0.0046 H   0  0  0  0  0  0  0  0  0  0  0  0
   -1.1952   -0.6931   -0.0000 C   0  0  0  0  0  0  0  0  0  0  0  0
   -2.0735   -1.1895    0.0008 H   0  0  0  0  0  0  0  0  0  0  0  0
    0.0004   -1.3848   -0.0006 C   0  0  0  0  0  0  0  0  0  0  0  0
   -0.0043   -2.3872   -0.0021 H   0  0  0  0  0  0  0  0  0  0  0  0
    1.1952   -0.6940    0.0000 C   0  0  0  0  0  0  0  0  0  0  0  0
    2.0778   -1.1938    0.0017 H   0  0  0  0  0  0  0  0  0  0  0  0
    1.1917    0.6883   -0.0001 C   0  0  0  0  0  0  0  0  0  0  0  0
    2.0610    1.1866   -0.0005 H   0  0  0  0  0  0  0  0  0  0  0  0
  1  5  1  0
  5  8  1  0
  1  2  1  0
  1  3  1  0
  1  4  1  0
  5  6  1  0
  5  7  1  0
  8  9  1  0
  8 10  1  0
  8 11  1  0
 12 16  1  0
 16 17  2  0
 17 19  1  0
 19 21  2  0
 21 23  1  0
 23 25  2  0
 25 16  1  0
 12 13  1  0
 12 14  1  0
 12 15  1  0
 17 18  1  0
 19 20  1  0
 21 22  1  0
 23 24  1  0
 25 26  1  0
M  CHG  1   8   1
M  END
>  <PDB_ID>  (3252) 
pdb6nst

>  <RESIDUE_NAME>  (3252) 
LYS   PHE

>  <FRAG_NAME>  (3252) 
ETAM   MBZ

>  <FRAG_ATOM_NUM>  (3252) 
fragi: 11  fragj: 15

>  <atom.prop.CHAIN_ID>  (3252) 
A A A A A A A A A A A Z Z Z Z Z Z Z Z Z Z Z Z Z Z Z

>  <atom.prop.IS_HEAVY_ATOM>  (3252) 
1 0 0 0 1 0 0 1 0 0 0 1 0 0 0 1 1 0 1 0 1 0 1 0 1 0

>  <DIFUSE_FUNC_ATOM>  (3252) 
n/a

>  <FINAL_SINGLE_POINT_ENERGY>  (3252) 
0

>  <NONCOV_INTER_ENERGY_QM>  (3252) 
0

>  <FF_Energy>  (3252) 
5.24

>  <QM_Energy>  (3252) 
-3.18

>  <source>  (3252) 
ETAM_MBZ

>  <Index>  (3252) 
35601

$$$$
ETAM-pdb6nst-E-LYS-283:MBZ-pdb6nst-E-PHE-234
     RDKit          3D

 26 25  0  0  0  0  0  0  0  0999 V2000
    1.2561   -5.6728   -0.0507 C   0  0  0  0  0  0  0  0  0  0  0  0
    1.6769   -5.0383   -0.6899 H   0  0  0  0  0  0  0  0  0  0  0  0
    0.9256   -6.4791   -0.5296 H   0  0  0  0  0  0  0  0  0  0  0  0
    2.0023   -5.9792    0.6825 H   0  0  0  0  0  0  0  0  0  0  0  0
    0.0744   -4.9830    0.6129 C   0  0  0  0  0  0  0  0  0  0  0  0
   -0.2876   -5.5809    1.3355 H   0  0  0  0  0  0  0  0  0  0  0  0
    0.3914   -4.1272    1.0336 H   0  0  0  0  0  0  0  0  0  0  0  0
   -1.0166   -4.6743   -0.3551 N   0  0  0  0  0  4  0  0  0  0  0  0
   -0.7005   -4.8707   -1.2826 H   0  0  0  0  0  0  0  0  0  0  0  0
   -1.8139   -5.2385   -0.1448 H   0  0  0  0  0  0  0  0  0  0  0  0
   -1.2606   -3.7085   -0.2814 H   0  0  0  0  0  0  0  0  0  0  0  0
   -0.0018    2.8954   -0.0005 C   0  0  0  0  0  0  0  0  0  0  0  0
    0.9326    3.2027    0.0954 H   0  0  0  0  0  0  0  0  0  0  0  0
   -0.5617    3.2000    0.7549 H   0  0  0  0  0  0  0  0  0  0  0  0
   -0.4057    3.3337   -0.9131 H   0  0  0  0  0  0  0  0  0  0  0  0
    0.0002    1.3937   -0.0024 C   0  0  0  0  0  0  0  0  0  0  0  0
   -1.1913    0.6874    0.0017 C   0  0  0  0  0  0  0  0  0  0  0  0
   -2.0592    1.1799    0.0043 H   0  0  0  0  0  0  0  0  0  0  0  0
   -1.1946   -0.6931    0.0000 C   0  0  0  0  0  0  0  0  0  0  0  0
   -2.0733   -1.1892    0.0009 H   0  0  0  0  0  0  0  0  0  0  0  0
   -0.0008   -1.3840   -0.0007 C   0  0  0  0  0  0  0  0  0  0  0  0
   -0.0043   -2.3857   -0.0023 H   0  0  0  0  0  0  0  0  0  0  0  0
    1.1946   -0.6929    0.0000 C   0  0  0  0  0  0  0  0  0  0  0  0
    2.0770   -1.1933    0.0008 H   0  0  0  0  0  0  0  0  0  0  0  0
    1.1919    0.6889    0.0013 C   0  0  0  0  0  0  0  0  0  0  0  0
    2.0610    1.1867    0.0044 H   0  0  0  0  0  0  0  0  0  0  0  0
  1  5  1  0
  5  8  1  0
  1  2  1  0
  1  3  1  0
  1  4  1  0
  5  6  1  0
  5  7  1  0
  8  9  1  0
  8 10  1  0
  8 11  1  0
 12 16  1  0
 16 17  2  0
 17 19  1  0
 19 21  2  0
 21 23  1  0
 23 25  2  0
 25 16  1  0
 12 13  1  0
 12 14  1  0
 12 15  1  0
 17 18  1  0
 19 20  1  0
 21 22  1  0
 23 24  1  0
 25 26  1  0
M  CHG  1   8   1
M  END
>  <PDB_ID>  (3253) 
pdb6nst

>  <RESIDUE_NAME>  (3253) 
LYS   PHE

>  <FRAG_NAME>  (3253) 
ETAM   MBZ

>  <FRAG_ATOM_NUM>  (3253) 
fragi: 11  fragj: 15

>  <atom.prop.CHAIN_ID>  (3253) 
A A A A A A A A A A A Z Z Z Z Z Z Z Z Z Z Z Z Z Z Z

>  <atom.prop.IS_HEAVY_ATOM>  (3253) 
1 0 0 0 1 0 0 1 0 0 0 1 0 0 0 1 1 0 1 0 1 0 1 0 1 0

>  <DIFUSE_FUNC_ATOM>  (3253) 
n/a

>  <FINAL_SINGLE_POINT_ENERGY>  (3253) 
0

>  <NONCOV_INTER_ENERGY_QM>  (3253) 
0

>  <FF_Energy>  (3253) 
2.89

>  <QM_Energy>  (3253) 
-3.53

>  <source>  (3253) 
ETAM_MBZ

>  <Index>  (3253) 
35602

$$$$
ETAM-pdb6ncy-B-LYS-519:MBZ-pdb6ncy-B-PHE-471
     RDKit          3D

 26 25  0  0  0  0  0  0  0  0999 V2000
    0.0956   -0.0885   -3.1811 C   0  0  0  0  0  0  0  0  0  0  0  0
    0.2252   -0.6317   -2.3547 H   0  0  0  0  0  0  0  0  0  0  0  0
    0.0419    0.8786   -2.9486 H   0  0  0  0  0  0  0  0  0  0  0  0
    0.9436   -0.2480   -3.8470 H   0  0  0  0  0  0  0  0  0  0  0  0
   -1.2169   -0.5013   -3.8282 C   0  0  0  0  0  0  0  0  0  0  0  0
   -1.3888   -1.4654   -3.6297 H   0  0  0  0  0  0  0  0  0  0  0  0
   -1.9553    0.0555   -3.4510 H   0  0  0  0  0  0  0  0  0  0  0  0
   -1.1617   -0.3069   -5.3047 N   0  0  0  0  0  4  0  0  0  0  0  0
   -0.4193   -0.8578   -5.6834 H   0  0  0  0  0  0  0  0  0  0  0  0
   -2.0302   -0.5919   -5.7085 H   0  0  0  0  0  0  0  0  0  0  0  0
   -0.9993    0.6589   -5.5056 H   0  0  0  0  0  0  0  0  0  0  0  0
   -0.0070    2.8958   -0.0157 C   0  0  0  0  0  0  0  0  0  0  0  0
   -0.9065    3.1965   -0.3046 H   0  0  0  0  0  0  0  0  0  0  0  0
    0.6901    3.2022   -0.6509 H   0  0  0  0  0  0  0  0  0  0  0  0
    0.2018    3.3509    0.9525 H   0  0  0  0  0  0  0  0  0  0  0  0
    0.0014    1.4027   -0.0010 C   0  0  0  0  0  0  0  0  0  0  0  0
   -1.2045    0.6848   -0.0034 C   0  0  0  0  0  0  0  0  0  0  0  0
   -2.0685    1.1841   -0.0089 H   0  0  0  0  0  0  0  0  0  0  0  0
   -1.2184   -0.7035    0.0000 C   0  0  0  0  0  0  0  0  0  0  0  0
   -2.0869   -1.1994    0.0008 H   0  0  0  0  0  0  0  0  0  0  0  0
   -0.0024   -1.4033    0.0046 C   0  0  0  0  0  0  0  0  0  0  0  0
    0.0019   -2.3955    0.0109 H   0  0  0  0  0  0  0  0  0  0  0  0
    1.2184   -0.6903   -0.0000 C   0  0  0  0  0  0  0  0  0  0  0  0
    2.0916   -1.1867   -0.0017 H   0  0  0  0  0  0  0  0  0  0  0  0
    1.2054    0.7098   -0.0002 C   0  0  0  0  0  0  0  0  0  0  0  0
    2.0685    1.2077   -0.0003 H   0  0  0  0  0  0  0  0  0  0  0  0
  1  5  1  0
  5  8  1  0
  1  2  1  0
  1  3  1  0
  1  4  1  0
  5  6  1  0
  5  7  1  0
  8  9  1  0
  8 10  1  0
  8 11  1  0
 12 16  1  0
 16 17  2  0
 17 19  1  0
 19 21  2  0
 21 23  1  0
 23 25  2  0
 25 16  1  0
 12 13  1  0
 12 14  1  0
 12 15  1  0
 17 18  1  0
 19 20  1  0
 21 22  1  0
 23 24  1  0
 25 26  1  0
M  CHG  1   8   1
M  END
>  <PDB_ID>  (3254) 
pdb6ncy

>  <RESIDUE_NAME>  (3254) 
LYS   PHE

>  <FRAG_NAME>  (3254) 
ETAM   MBZ

>  <FRAG_ATOM_NUM>  (3254) 
fragi: 11  fragj: 15

>  <atom.prop.CHAIN_ID>  (3254) 
A A A A A A A A A A A Z Z Z Z Z Z Z Z Z Z Z Z Z Z Z

>  <atom.prop.IS_HEAVY_ATOM>  (3254) 
1 0 0 0 1 0 0 1 0 0 0 1 0 0 0 1 1 0 1 0 1 0 1 0 1 0

>  <DIFUSE_FUNC_ATOM>  (3254) 
n/a

>  <FINAL_SINGLE_POINT_ENERGY>  (3254) 
0

>  <NONCOV_INTER_ENERGY_QM>  (3254) 
0

>  <FF_Energy>  (3254) 
-2.31

>  <QM_Energy>  (3254) 
-7.6

>  <source>  (3254) 
ETAM_MBZ

>  <Index>  (3254) 
35627

$$$$
ETAM-pdb6nvx-B-LYS-199:MBZ-pdb6nvx-B-PHE-224
     RDKit          3D

 26 25  0  0  0  0  0  0  0  0999 V2000
   -0.8162    0.9155    4.0789 C   0  0  0  0  0  0  0  0  0  0  0  0
   -0.4017    1.4389    4.7824 H   0  0  0  0  0  0  0  0  0  0  0  0
   -1.3324    0.1899    4.4646 H   0  0  0  0  0  0  0  0  0  0  0  0
   -1.4731    1.5549    3.4892 H   0  0  0  0  0  0  0  0  0  0  0  0
    0.2825    0.3181    3.2109 C   0  0  0  0  0  0  0  0  0  0  0  0
   -0.0989   -0.3069    2.5737 H   0  0  0  0  0  0  0  0  0  0  0  0
    0.7557    1.0222    2.7419 H   0  0  0  0  0  0  0  0  0  0  0  0
    1.2441   -0.4134    4.0978 N   0  0  0  0  0  4  0  0  0  0  0  0
    1.8913   -0.7788    3.6084 H   0  0  0  0  0  0  0  0  0  0  0  0
    1.6066    0.1499    4.6838 H   0  0  0  0  0  0  0  0  0  0  0  0
    0.8192   -1.0578    4.5412 H   0  0  0  0  0  0  0  0  0  0  0  0
   -0.0249    2.9103   -0.0673 C   0  0  0  0  0  0  0  0  0  0  0  0
    0.7642    3.2557    0.3772 H   0  0  0  0  0  0  0  0  0  0  0  0
   -0.8240    3.2235    0.3845 H   0  0  0  0  0  0  0  0  0  0  0  0
   -0.0373    3.2565   -1.1008 H   0  0  0  0  0  0  0  0  0  0  0  0
    0.0065    1.3962    0.0125 C   0  0  0  0  0  0  0  0  0  0  0  0
   -1.1941    0.7000   -0.0227 C   0  0  0  0  0  0  0  0  0  0  0  0
   -1.9976    1.1666   -0.0624 H   0  0  0  0  0  0  0  0  0  0  0  0
   -1.2024   -0.6918   -0.0000 C   0  0  0  0  0  0  0  0  0  0  0  0
   -2.0108   -1.1499    0.0180 H   0  0  0  0  0  0  0  0  0  0  0  0
   -0.0096   -1.3938   -0.0034 C   0  0  0  0  0  0  0  0  0  0  0  0
   -0.0170   -2.3242   -0.0081 H   0  0  0  0  0  0  0  0  0  0  0  0
    1.2024   -0.7035   -0.0000 C   0  0  0  0  0  0  0  0  0  0  0  0
    2.0075   -1.1692   -0.0060 H   0  0  0  0  0  0  0  0  0  0  0  0
    1.1973    0.6930    0.0136 C   0  0  0  0  0  0  0  0  0  0  0  0
    2.0037    1.1559    0.0227 H   0  0  0  0  0  0  0  0  0  0  0  0
  1  5  1  0
  5  8  1  0
  1  2  1  0
  1  3  1  0
  1  4  1  0
  5  6  1  0
  5  7  1  0
  8  9  1  0
  8 10  1  0
  8 11  1  0
 12 16  1  0
 16 17  2  0
 17 19  1  0
 19 21  2  0
 21 23  1  0
 23 25  2  0
 25 16  1  0
 12 13  1  0
 12 14  1  0
 12 15  1  0
 17 18  1  0
 19 20  1  0
 21 22  1  0
 23 24  1  0
 25 26  1  0
M  CHG  1   8   1
M  END
>  <PDB_ID>  (3255) 
pdb6nvx

>  <RESIDUE_NAME>  (3255) 
LYS   PHE

>  <FRAG_NAME>  (3255) 
ETAM   MBZ

>  <FRAG_ATOM_NUM>  (3255) 
fragi: 11  fragj: 15

>  <atom.prop.CHAIN_ID>  (3255) 
A A A A A A A A A A A Z Z Z Z Z Z Z Z Z Z Z Z Z Z Z

>  <atom.prop.IS_HEAVY_ATOM>  (3255) 
1 0 0 0 1 0 0 1 0 0 0 1 0 0 0 1 1 0 1 0 1 0 1 0 1 0

>  <DIFUSE_FUNC_ATOM>  (3255) 
n/a

>  <FINAL_SINGLE_POINT_ENERGY>  (3255) 
0

>  <NONCOV_INTER_ENERGY_QM>  (3255) 
0

>  <FF_Energy>  (3255) 
-5.49

>  <QM_Energy>  (3255) 
-10.63

>  <source>  (3255) 
ETAM_MBZ

>  <Index>  (3255) 
35630

$$$$
ETAM-pdb5ktl-B-LYS-256:MBZ-pdb5ktl-B-PHE-15
     RDKit          3D

 26 25  0  0  0  0  0  0  0  0999 V2000
    5.8064    0.4622   -3.1400 C   0  0  0  0  0  0  0  0  0  0  0  0
    5.9042   -0.4508   -2.7725 H   0  0  0  0  0  0  0  0  0  0  0  0
    6.1329    1.1427   -2.5014 H   0  0  0  0  0  0  0  0  0  0  0  0
    6.3902    0.5340   -4.0577 H   0  0  0  0  0  0  0  0  0  0  0  0
    4.3574    0.7212   -3.4411 C   0  0  0  0  0  0  0  0  0  0  0  0
    4.2303    1.6880   -3.6396 H   0  0  0  0  0  0  0  0  0  0  0  0
    4.0795    0.1714   -4.2232 H   0  0  0  0  0  0  0  0  0  0  0  0
    3.5517    0.3485   -2.2675 N   0  0  0  0  0  4  0  0  0  0  0  0
    3.7977    0.9285   -1.4879 H   0  0  0  0  0  0  0  0  0  0  0  0
    2.5775    0.4690   -2.4716 H   0  0  0  0  0  0  0  0  0  0  0  0
    3.7202   -0.6107   -2.0301 H   0  0  0  0  0  0  0  0  0  0  0  0
   -0.0127    2.9018    0.0196 C   0  0  0  0  0  0  0  0  0  0  0  0
    0.9251    3.2110    0.0480 H   0  0  0  0  0  0  0  0  0  0  0  0
   -0.5172    3.2046    0.8139 H   0  0  0  0  0  0  0  0  0  0  0  0
   -0.4794    3.3527   -0.8561 H   0  0  0  0  0  0  0  0  0  0  0  0
   -0.0144    1.4026    0.0034 C   0  0  0  0  0  0  0  0  0  0  0  0
   -1.1879    0.6994    0.0086 C   0  0  0  0  0  0  0  0  0  0  0  0
   -2.0661    1.1822    0.0175 H   0  0  0  0  0  0  0  0  0  0  0  0
   -1.1924   -0.6892   -0.0000 C   0  0  0  0  0  0  0  0  0  0  0  0
   -2.0678   -1.1868    0.0061 H   0  0  0  0  0  0  0  0  0  0  0  0
    0.0150   -1.3989   -0.0147 C   0  0  0  0  0  0  0  0  0  0  0  0
   -0.0027   -2.3929   -0.0357 H   0  0  0  0  0  0  0  0  0  0  0  0
    1.1924   -0.7023   -0.0000 C   0  0  0  0  0  0  0  0  0  0  0  0
    2.0863   -1.1912    0.0102 H   0  0  0  0  0  0  0  0  0  0  0  0
    1.1873    0.6883    0.0027 C   0  0  0  0  0  0  0  0  0  0  0  0
    2.0541    1.1867    0.0029 H   0  0  0  0  0  0  0  0  0  0  0  0
  1  5  1  0
  5  8  1  0
  1  2  1  0
  1  3  1  0
  1  4  1  0
  5  6  1  0
  5  7  1  0
  8  9  1  0
  8 10  1  0
  8 11  1  0
 12 16  1  0
 16 17  2  0
 17 19  1  0
 19 21  2  0
 21 23  1  0
 23 25  2  0
 25 16  1  0
 12 13  1  0
 12 14  1  0
 12 15  1  0
 17 18  1  0
 19 20  1  0
 21 22  1  0
 23 24  1  0
 25 26  1  0
M  CHG  1   8   1
M  END
>  <PDB_ID>  (3256) 
pdb5ktl

>  <RESIDUE_NAME>  (3256) 
LYS   PHE

>  <FRAG_NAME>  (3256) 
ETAM   MBZ

>  <FRAG_ATOM_NUM>  (3256) 
fragi: 11  fragj: 15

>  <atom.prop.CHAIN_ID>  (3256) 
A A A A A A A A A A A Z Z Z Z Z Z Z Z Z Z Z Z Z Z Z

>  <atom.prop.IS_HEAVY_ATOM>  (3256) 
1 0 0 0 1 0 0 1 0 0 0 1 0 0 0 1 1 0 1 0 1 0 1 0 1 0

>  <DIFUSE_FUNC_ATOM>  (3256) 
n/a

>  <FINAL_SINGLE_POINT_ENERGY>  (3256) 
0

>  <NONCOV_INTER_ENERGY_QM>  (3256) 
0

>  <FF_Energy>  (3256) 
-1.27

>  <QM_Energy>  (3256) 
-7.13

>  <source>  (3256) 
ETAM_MBZ

>  <Index>  (3256) 
35635

$$$$
ETAM-pdb5kod-B-LYS-292:MBZ-pdb5kod-B-PHE-288
     RDKit          3D

 26 25  0  0  0  0  0  0  0  0999 V2000
    2.3093   -0.6141    4.8841 C   0  0  0  0  0  0  0  0  0  0  0  0
    2.9368    0.1537    4.8005 H   0  0  0  0  0  0  0  0  0  0  0  0
    2.7495   -1.3710    5.3554 H   0  0  0  0  0  0  0  0  0  0  0  0
    1.4348   -0.2987    5.4532 H   0  0  0  0  0  0  0  0  0  0  0  0
    1.9151   -1.0712    3.4991 C   0  0  0  0  0  0  0  0  0  0  0  0
    1.2032   -1.7612    3.5733 H   0  0  0  0  0  0  0  0  0  0  0  0
    1.5878   -0.2906    2.9782 H   0  0  0  0  0  0  0  0  0  0  0  0
    3.0973   -1.6509    2.8308 N   0  0  0  0  0  4  0  0  0  0  0  0
    3.1723   -1.2850    1.9016 H   0  0  0  0  0  0  0  0  0  0  0  0
    3.9247   -1.4176    3.3457 H   0  0  0  0  0  0  0  0  0  0  0  0
    3.0055   -2.6468    2.7870 H   0  0  0  0  0  0  0  0  0  0  0  0
    0.0091    2.8964   -0.0231 C   0  0  0  0  0  0  0  0  0  0  0  0
   -0.7248    3.1969   -0.6170 H   0  0  0  0  0  0  0  0  0  0  0  0
    0.8891    3.1909   -0.3716 H   0  0  0  0  0  0  0  0  0  0  0  0
   -0.1372    3.3697    0.9479 H   0  0  0  0  0  0  0  0  0  0  0  0
   -0.0006    1.3938    0.0065 C   0  0  0  0  0  0  0  0  0  0  0  0
   -1.1893    0.6962   -0.0052 C   0  0  0  0  0  0  0  0  0  0  0  0
   -2.0577    1.1869   -0.0184 H   0  0  0  0  0  0  0  0  0  0  0  0
   -1.1941   -0.6874   -0.0000 C   0  0  0  0  0  0  0  0  0  0  0  0
   -2.0753   -1.1810    0.0048 H   0  0  0  0  0  0  0  0  0  0  0  0
   -0.0022   -1.3832   -0.0000 C   0  0  0  0  0  0  0  0  0  0  0  0
   -0.0122   -2.3870   -0.0003 H   0  0  0  0  0  0  0  0  0  0  0  0
    1.1941   -0.7006    0.0000 C   0  0  0  0  0  0  0  0  0  0  0  0
    2.0744   -1.2021    0.0022 H   0  0  0  0  0  0  0  0  0  0  0  0
    1.1921    0.6812   -0.0012 C   0  0  0  0  0  0  0  0  0  0  0  0
    2.0618    1.1797   -0.0083 H   0  0  0  0  0  0  0  0  0  0  0  0
  1  5  1  0
  5  8  1  0
  1  2  1  0
  1  3  1  0
  1  4  1  0
  5  6  1  0
  5  7  1  0
  8  9  1  0
  8 10  1  0
  8 11  1  0
 12 16  1  0
 16 17  2  0
 17 19  1  0
 19 21  2  0
 21 23  1  0
 23 25  2  0
 25 16  1  0
 12 13  1  0
 12 14  1  0
 12 15  1  0
 17 18  1  0
 19 20  1  0
 21 22  1  0
 23 24  1  0
 25 26  1  0
M  CHG  1   8   1
M  END
>  <PDB_ID>  (3257) 
pdb5kod

>  <RESIDUE_NAME>  (3257) 
LYS   PHE

>  <FRAG_NAME>  (3257) 
ETAM   MBZ

>  <FRAG_ATOM_NUM>  (3257) 
fragi: 11  fragj: 15

>  <atom.prop.CHAIN_ID>  (3257) 
A A A A A A A A A A A Z Z Z Z Z Z Z Z Z Z Z Z Z Z Z

>  <atom.prop.IS_HEAVY_ATOM>  (3257) 
1 0 0 0 1 0 0 1 0 0 0 1 0 0 0 1 1 0 1 0 1 0 1 0 1 0

>  <DIFUSE_FUNC_ATOM>  (3257) 
n/a

>  <FINAL_SINGLE_POINT_ENERGY>  (3257) 
0

>  <NONCOV_INTER_ENERGY_QM>  (3257) 
0

>  <FF_Energy>  (3257) 
-2.46

>  <QM_Energy>  (3257) 
-7.69

>  <source>  (3257) 
ETAM_MBZ

>  <Index>  (3257) 
35649

$$$$
ETAM-pdb5l09-B-LYS-91:MBZ-pdb5l09-B-PHE-98
     RDKit          3D

 26 25  0  0  0  0  0  0  0  0999 V2000
    1.0319    1.5232    3.2923 C   0  0  0  0  0  0  0  0  0  0  0  0
    1.2852    2.4851    3.2532 H   0  0  0  0  0  0  0  0  0  0  0  0
    0.8347    1.1814    2.3793 H   0  0  0  0  0  0  0  0  0  0  0  0
    1.8732    0.9611    3.6975 H   0  0  0  0  0  0  0  0  0  0  0  0
   -0.1819    1.3659    4.1522 C   0  0  0  0  0  0  0  0  0  0  0  0
   -0.4062    0.3855    4.2384 H   0  0  0  0  0  0  0  0  0  0  0  0
    0.0138    1.7214    5.0765 H   0  0  0  0  0  0  0  0  0  0  0  0
   -1.3590    2.0804    3.6038 N   0  0  0  0  0  4  0  0  0  0  0  0
   -1.2730    3.0596    3.7912 H   0  0  0  0  0  0  0  0  0  0  0  0
   -1.4085    1.9338    2.6154 H   0  0  0  0  0  0  0  0  0  0  0  0
   -2.1928    1.7316    4.0345 H   0  0  0  0  0  0  0  0  0  0  0  0
    0.0048    2.9326   -0.0029 C   0  0  0  0  0  0  0  0  0  0  0  0
    0.7548    3.2342    0.5574 H   0  0  0  0  0  0  0  0  0  0  0  0
   -0.8642    3.2366    0.3420 H   0  0  0  0  0  0  0  0  0  0  0  0
    0.1375    3.3512   -1.0006 H   0  0  0  0  0  0  0  0  0  0  0  0
    0.0010    1.4128    0.0092 C   0  0  0  0  0  0  0  0  0  0  0  0
   -1.1957    0.7041   -0.0112 C   0  0  0  0  0  0  0  0  0  0  0  0
   -2.0640    1.1846   -0.0354 H   0  0  0  0  0  0  0  0  0  0  0  0
   -1.2001   -0.7054   -0.0000 C   0  0  0  0  0  0  0  0  0  0  0  0
   -2.0784   -1.1903    0.0091 H   0  0  0  0  0  0  0  0  0  0  0  0
    0.0023   -1.4063    0.0005 C   0  0  0  0  0  0  0  0  0  0  0  0
   -0.0036   -2.4022    0.0009 H   0  0  0  0  0  0  0  0  0  0  0  0
    1.2001   -0.7072    0.0000 C   0  0  0  0  0  0  0  0  0  0  0  0
    2.0850   -1.1929    0.0006 H   0  0  0  0  0  0  0  0  0  0  0  0
    1.1924    0.7021    0.0015 C   0  0  0  0  0  0  0  0  0  0  0  0
    2.0659    1.1888   -0.0035 H   0  0  0  0  0  0  0  0  0  0  0  0
  1  5  1  0
  5  8  1  0
  1  2  1  0
  1  3  1  0
  1  4  1  0
  5  6  1  0
  5  7  1  0
  8  9  1  0
  8 10  1  0
  8 11  1  0
 12 16  1  0
 16 17  2  0
 17 19  1  0
 19 21  2  0
 21 23  1  0
 23 25  2  0
 25 16  1  0
 12 13  1  0
 12 14  1  0
 12 15  1  0
 17 18  1  0
 19 20  1  0
 21 22  1  0
 23 24  1  0
 25 26  1  0
M  CHG  1   8   1
M  END
>  <PDB_ID>  (3258) 
pdb5l09

>  <RESIDUE_NAME>  (3258) 
LYS   PHE

>  <FRAG_NAME>  (3258) 
ETAM   MBZ

>  <FRAG_ATOM_NUM>  (3258) 
fragi: 11  fragj: 15

>  <atom.prop.CHAIN_ID>  (3258) 
A A A A A A A A A A A Z Z Z Z Z Z Z Z Z Z Z Z Z Z Z

>  <atom.prop.IS_HEAVY_ATOM>  (3258) 
1 0 0 0 1 0 0 1 0 0 0 1 0 0 0 1 1 0 1 0 1 0 1 0 1 0

>  <DIFUSE_FUNC_ATOM>  (3258) 
n/a

>  <FINAL_SINGLE_POINT_ENERGY>  (3258) 
0

>  <NONCOV_INTER_ENERGY_QM>  (3258) 
0

>  <FF_Energy>  (3258) 
-3.8

>  <QM_Energy>  (3258) 
-8.96

>  <source>  (3258) 
ETAM_MBZ

>  <Index>  (3258) 
35662

$$$$
ETAM-pdb5koi-A-LYS-82:MBZ-pdb5koi-A-PHE-60
     RDKit          3D

 26 25  0  0  0  0  0  0  0  0999 V2000
   -0.7576   -1.8619   -2.8055 C   0  0  0  0  0  0  0  0  0  0  0  0
   -0.4306   -1.7259   -1.8690 H   0  0  0  0  0  0  0  0  0  0  0  0
   -0.5084   -1.0662   -3.3608 H   0  0  0  0  0  0  0  0  0  0  0  0
   -0.2717   -2.7450   -3.2204 H   0  0  0  0  0  0  0  0  0  0  0  0
   -2.2624   -1.9823   -2.7807 C   0  0  0  0  0  0  0  0  0  0  0  0
   -2.5982   -2.1132   -3.7139 H   0  0  0  0  0  0  0  0  0  0  0  0
   -2.5204   -2.7725   -2.2231 H   0  0  0  0  0  0  0  0  0  0  0  0
   -2.8788   -0.7592   -2.2087 N   0  0  0  0  0  4  0  0  0  0  0  0
   -2.4724   -0.5671   -1.3147 H   0  0  0  0  0  0  0  0  0  0  0  0
   -2.7167    0.0147   -2.8207 H   0  0  0  0  0  0  0  0  0  0  0  0
   -3.8643   -0.9002   -2.1028 H   0  0  0  0  0  0  0  0  0  0  0  0
    0.0311    2.9054   -0.0106 C   0  0  0  0  0  0  0  0  0  0  0  0
    0.5519    3.1890   -0.8063 H   0  0  0  0  0  0  0  0  0  0  0  0
    0.4748    3.2085    0.8247 H   0  0  0  0  0  0  0  0  0  0  0  0
   -0.9475    3.3825   -0.0626 H   0  0  0  0  0  0  0  0  0  0  0  0
    0.0013    1.3978    0.0061 C   0  0  0  0  0  0  0  0  0  0  0  0
   -1.1916    0.6961   -0.0009 C   0  0  0  0  0  0  0  0  0  0  0  0
   -2.0593    1.1851   -0.0082 H   0  0  0  0  0  0  0  0  0  0  0  0
   -1.1947   -0.6930   -0.0000 C   0  0  0  0  0  0  0  0  0  0  0  0
   -2.0755   -1.1853    0.0031 H   0  0  0  0  0  0  0  0  0  0  0  0
   -0.0011   -1.3887   -0.0018 C   0  0  0  0  0  0  0  0  0  0  0  0
   -0.0072   -2.3895   -0.0046 H   0  0  0  0  0  0  0  0  0  0  0  0
    1.1947   -0.6974   -0.0000 C   0  0  0  0  0  0  0  0  0  0  0  0
    2.0767   -1.1971    0.0050 H   0  0  0  0  0  0  0  0  0  0  0  0
    1.1914    0.6853   -0.0034 C   0  0  0  0  0  0  0  0  0  0  0  0
    2.0633    1.1826   -0.0140 H   0  0  0  0  0  0  0  0  0  0  0  0
  1  5  1  0
  5  8  1  0
  1  2  1  0
  1  3  1  0
  1  4  1  0
  5  6  1  0
  5  7  1  0
  8  9  1  0
  8 10  1  0
  8 11  1  0
 12 16  1  0
 16 17  2  0
 17 19  1  0
 19 21  2  0
 21 23  1  0
 23 25  2  0
 25 16  1  0
 12 13  1  0
 12 14  1  0
 12 15  1  0
 17 18  1  0
 19 20  1  0
 21 22  1  0
 23 24  1  0
 25 26  1  0
M  CHG  1   8   1
M  END
>  <PDB_ID>  (3259) 
pdb5koi

>  <RESIDUE_NAME>  (3259) 
LYS   PHE

>  <FRAG_NAME>  (3259) 
ETAM   MBZ

>  <FRAG_ATOM_NUM>  (3259) 
fragi: 11  fragj: 15

>  <atom.prop.CHAIN_ID>  (3259) 
A A A A A A A A A A A Z Z Z Z Z Z Z Z Z Z Z Z Z Z Z

>  <atom.prop.IS_HEAVY_ATOM>  (3259) 
1 0 0 0 1 0 0 1 0 0 0 1 0 0 0 1 1 0 1 0 1 0 1 0 1 0

>  <DIFUSE_FUNC_ATOM>  (3259) 
n/a

>  <FINAL_SINGLE_POINT_ENERGY>  (3259) 
0

>  <NONCOV_INTER_ENERGY_QM>  (3259) 
0

>  <FF_Energy>  (3259) 
35.0

>  <QM_Energy>  (3259) 
3.18

>  <source>  (3259) 
ETAM_MBZ

>  <Index>  (3259) 
35689

$$$$
ETAM-pdb5l2r-B-LYS-69:MBZ-pdb5l2r-A-PHE-63
     RDKit          3D

 26 25  0  0  0  0  0  0  0  0999 V2000
    0.5383   -0.4426    4.0332 C   0  0  0  0  0  0  0  0  0  0  0  0
    0.5448   -0.7540    3.0857 H   0  0  0  0  0  0  0  0  0  0  0  0
    0.0667   -1.1086    4.6062 H   0  0  0  0  0  0  0  0  0  0  0  0
    1.5684   -0.3512    4.3778 H   0  0  0  0  0  0  0  0  0  0  0  0
   -0.2025    0.8751    4.1080 C   0  0  0  0  0  0  0  0  0  0  0  0
   -0.3126    1.1390    5.0640 H   0  0  0  0  0  0  0  0  0  0  0  0
    0.3157    1.5747    3.6213 H   0  0  0  0  0  0  0  0  0  0  0  0
   -1.5578    0.7510    3.4800 N   0  0  0  0  0  4  0  0  0  0  0  0
   -2.2192    1.2599    4.0274 H   0  0  0  0  0  0  0  0  0  0  0  0
   -1.5244    1.1237    2.5550 H   0  0  0  0  0  0  0  0  0  0  0  0
   -1.8153   -0.2128    3.4472 H   0  0  0  0  0  0  0  0  0  0  0  0
   -0.0133    2.8927   -0.0212 C   0  0  0  0  0  0  0  0  0  0  0  0
    0.9204    3.2077   -0.0176 H   0  0  0  0  0  0  0  0  0  0  0  0
   -0.5101    3.2061    0.7704 H   0  0  0  0  0  0  0  0  0  0  0  0
   -0.5011    3.3048   -0.9046 H   0  0  0  0  0  0  0  0  0  0  0  0
   -0.0022    1.3940   -0.0052 C   0  0  0  0  0  0  0  0  0  0  0  0
   -1.1934    0.6806    0.0056 C   0  0  0  0  0  0  0  0  0  0  0  0
   -2.0635    1.1739    0.0166 H   0  0  0  0  0  0  0  0  0  0  0  0
   -1.1996   -0.7009    0.0000 C   0  0  0  0  0  0  0  0  0  0  0  0
   -2.0733   -1.1985   -0.0045 H   0  0  0  0  0  0  0  0  0  0  0  0
    0.0013   -1.3853    0.0021 C   0  0  0  0  0  0  0  0  0  0  0  0
    0.0050   -2.3868    0.0042 H   0  0  0  0  0  0  0  0  0  0  0  0
    1.1996   -0.6860   -0.0000 C   0  0  0  0  0  0  0  0  0  0  0  0
    2.0821   -1.1856    0.0018 H   0  0  0  0  0  0  0  0  0  0  0  0
    1.1943    0.6976   -0.0025 C   0  0  0  0  0  0  0  0  0  0  0  0
    2.0598    1.1981   -0.0034 H   0  0  0  0  0  0  0  0  0  0  0  0
  1  5  1  0
  5  8  1  0
  1  2  1  0
  1  3  1  0
  1  4  1  0
  5  6  1  0
  5  7  1  0
  8  9  1  0
  8 10  1  0
  8 11  1  0
 12 16  1  0
 16 17  2  0
 17 19  1  0
 19 21  2  0
 21 23  1  0
 23 25  2  0
 25 16  1  0
 12 13  1  0
 12 14  1  0
 12 15  1  0
 17 18  1  0
 19 20  1  0
 21 22  1  0
 23 24  1  0
 25 26  1  0
M  CHG  1   8   1
M  END
>  <PDB_ID>  (3260) 
pdb5l2r

>  <RESIDUE_NAME>  (3260) 
LYS   PHE

>  <FRAG_NAME>  (3260) 
ETAM   MBZ

>  <FRAG_ATOM_NUM>  (3260) 
fragi: 11  fragj: 15

>  <atom.prop.CHAIN_ID>  (3260) 
A A A A A A A A A A A Z Z Z Z Z Z Z Z Z Z Z Z Z Z Z

>  <atom.prop.IS_HEAVY_ATOM>  (3260) 
1 0 0 0 1 0 0 1 0 0 0 1 0 0 0 1 1 0 1 0 1 0 1 0 1 0

>  <DIFUSE_FUNC_ATOM>  (3260) 
n/a

>  <FINAL_SINGLE_POINT_ENERGY>  (3260) 
0

>  <NONCOV_INTER_ENERGY_QM>  (3260) 
0

>  <FF_Energy>  (3260) 
-6.85

>  <QM_Energy>  (3260) 
-12.35

>  <source>  (3260) 
ETAM_MBZ

>  <Index>  (3260) 
35691

$$$$
ETAM-pdb5l39-C-LYS-84:MBZ-pdb5l39-C-PHE-9
     RDKit          3D

 26 25  0  0  0  0  0  0  0  0999 V2000
   -1.1354   -1.7816   -4.2371 C   0  0  0  0  0  0  0  0  0  0  0  0
   -0.9258   -2.7308   -4.4389 H   0  0  0  0  0  0  0  0  0  0  0  0
   -1.3526   -1.2859   -5.0697 H   0  0  0  0  0  0  0  0  0  0  0  0
   -1.9929   -1.7425   -3.5654 H   0  0  0  0  0  0  0  0  0  0  0  0
    0.0902   -1.1405   -3.5976 C   0  0  0  0  0  0  0  0  0  0  0  0
    0.3382   -1.6638   -2.7746 H   0  0  0  0  0  0  0  0  0  0  0  0
    0.8573   -1.1866   -4.2469 H   0  0  0  0  0  0  0  0  0  0  0  0
   -0.1384    0.2860   -3.2165 N   0  0  0  0  0  4  0  0  0  0  0  0
    0.7385    0.7152   -3.0081 H   0  0  0  0  0  0  0  0  0  0  0  0
   -0.5753    0.7638   -3.9773 H   0  0  0  0  0  0  0  0  0  0  0  0
   -0.7304    0.3207   -2.4124 H   0  0  0  0  0  0  0  0  0  0  0  0
   -0.0027    2.8884    0.0124 C   0  0  0  0  0  0  0  0  0  0  0  0
   -0.7228    3.2019   -0.5862 H   0  0  0  0  0  0  0  0  0  0  0  0
    0.8832    3.2020   -0.2907 H   0  0  0  0  0  0  0  0  0  0  0  0
   -0.1840    3.3107    1.0009 H   0  0  0  0  0  0  0  0  0  0  0  0
   -0.0002    1.3930   -0.0020 C   0  0  0  0  0  0  0  0  0  0  0  0
   -1.1922    0.6871    0.0004 C   0  0  0  0  0  0  0  0  0  0  0  0
   -2.0597    1.1806    0.0013 H   0  0  0  0  0  0  0  0  0  0  0  0
   -1.1956   -0.6921    0.0000 C   0  0  0  0  0  0  0  0  0  0  0  0
   -2.0739   -1.1889    0.0026 H   0  0  0  0  0  0  0  0  0  0  0  0
   -0.0009   -1.3837   -0.0017 C   0  0  0  0  0  0  0  0  0  0  0  0
   -0.0050   -2.3856   -0.0046 H   0  0  0  0  0  0  0  0  0  0  0  0
    1.1956   -0.6930   -0.0000 C   0  0  0  0  0  0  0  0  0  0  0  0
    2.0770   -1.1944    0.0005 H   0  0  0  0  0  0  0  0  0  0  0  0
    1.1934    0.6886    0.0034 C   0  0  0  0  0  0  0  0  0  0  0  0
    2.0613    1.1872    0.0092 H   0  0  0  0  0  0  0  0  0  0  0  0
  1  5  1  0
  5  8  1  0
  1  2  1  0
  1  3  1  0
  1  4  1  0
  5  6  1  0
  5  7  1  0
  8  9  1  0
  8 10  1  0
  8 11  1  0
 12 16  1  0
 16 17  2  0
 17 19  1  0
 19 21  2  0
 21 23  1  0
 23 25  2  0
 25 16  1  0
 12 13  1  0
 12 14  1  0
 12 15  1  0
 17 18  1  0
 19 20  1  0
 21 22  1  0
 23 24  1  0
 25 26  1  0
M  CHG  1   8   1
M  END
>  <PDB_ID>  (3261) 
pdb5l39

>  <RESIDUE_NAME>  (3261) 
LYS   PHE

>  <FRAG_NAME>  (3261) 
ETAM   MBZ

>  <FRAG_ATOM_NUM>  (3261) 
fragi: 11  fragj: 15

>  <atom.prop.CHAIN_ID>  (3261) 
A A A A A A A A A A A Z Z Z Z Z Z Z Z Z Z Z Z Z Z Z

>  <atom.prop.IS_HEAVY_ATOM>  (3261) 
1 0 0 0 1 0 0 1 0 0 0 1 0 0 0 1 1 0 1 0 1 0 1 0 1 0

>  <DIFUSE_FUNC_ATOM>  (3261) 
n/a

>  <FINAL_SINGLE_POINT_ENERGY>  (3261) 
0

>  <NONCOV_INTER_ENERGY_QM>  (3261) 
0

>  <FF_Energy>  (3261) 
-9.53

>  <QM_Energy>  (3261) 
-16.81

>  <source>  (3261) 
ETAM_MBZ

>  <Index>  (3261) 
35698

$$$$
ETAM-pdb5l39-D-LYS-84:MBZ-pdb5l39-D-PHE-9
     RDKit          3D

 26 25  0  0  0  0  0  0  0  0999 V2000
   -0.6337   -2.1663   -4.5288 C   0  0  0  0  0  0  0  0  0  0  0  0
   -0.8637   -3.1283   -4.6260 H   0  0  0  0  0  0  0  0  0  0  0  0
   -0.3242   -1.7920   -5.3948 H   0  0  0  0  0  0  0  0  0  0  0  0
   -1.5171   -1.6201   -4.1979 H   0  0  0  0  0  0  0  0  0  0  0  0
    0.4899   -2.0373   -3.5175 C   0  0  0  0  0  0  0  0  0  0  0  0
    0.1839   -2.4135   -2.6392 H   0  0  0  0  0  0  0  0  0  0  0  0
    1.2813   -2.5644   -3.8384 H   0  0  0  0  0  0  0  0  0  0  0  0
    0.8966   -0.6165   -3.3245 N   0  0  0  0  0  4  0  0  0  0  0  0
    0.7117   -0.3453   -2.3807 H   0  0  0  0  0  0  0  0  0  0  0  0
    1.8729   -0.5236   -3.5155 H   0  0  0  0  0  0  0  0  0  0  0  0
    0.3751   -0.0356   -3.9488 H   0  0  0  0  0  0  0  0  0  0  0  0
    0.0024    2.8980   -0.0087 C   0  0  0  0  0  0  0  0  0  0  0  0
   -0.6074    3.2013   -0.7241 H   0  0  0  0  0  0  0  0  0  0  0  0
    0.9281    3.2016   -0.1704 H   0  0  0  0  0  0  0  0  0  0  0  0
   -0.3355    3.3410    0.9281 H   0  0  0  0  0  0  0  0  0  0  0  0
    0.0000    1.3961   -0.0005 C   0  0  0  0  0  0  0  0  0  0  0  0
   -1.1924    0.6911   -0.0013 C   0  0  0  0  0  0  0  0  0  0  0  0
   -2.0600    1.1815   -0.0040 H   0  0  0  0  0  0  0  0  0  0  0  0
   -1.1958   -0.6936   -0.0000 C   0  0  0  0  0  0  0  0  0  0  0  0
   -2.0739   -1.1890    0.0008 H   0  0  0  0  0  0  0  0  0  0  0  0
    0.0002   -1.3867    0.0016 C   0  0  0  0  0  0  0  0  0  0  0  0
   -0.0050   -2.3889    0.0033 H   0  0  0  0  0  0  0  0  0  0  0  0
    1.1958   -0.6957    0.0000 C   0  0  0  0  0  0  0  0  0  0  0  0
    2.0781   -1.1946   -0.0000 H   0  0  0  0  0  0  0  0  0  0  0  0
    1.1921    0.6888    0.0002 C   0  0  0  0  0  0  0  0  0  0  0  0
    2.0618    1.1858    0.0003 H   0  0  0  0  0  0  0  0  0  0  0  0
  1  5  1  0
  5  8  1  0
  1  2  1  0
  1  3  1  0
  1  4  1  0
  5  6  1  0
  5  7  1  0
  8  9  1  0
  8 10  1  0
  8 11  1  0
 12 16  1  0
 16 17  2  0
 17 19  1  0
 19 21  2  0
 21 23  1  0
 23 25  2  0
 25 16  1  0
 12 13  1  0
 12 14  1  0
 12 15  1  0
 17 18  1  0
 19 20  1  0
 21 22  1  0
 23 24  1  0
 25 26  1  0
M  CHG  1   8   1
M  END
>  <PDB_ID>  (3262) 
pdb5l39

>  <RESIDUE_NAME>  (3262) 
LYS   PHE

>  <FRAG_NAME>  (3262) 
ETAM   MBZ

>  <FRAG_ATOM_NUM>  (3262) 
fragi: 11  fragj: 15

>  <atom.prop.CHAIN_ID>  (3262) 
A A A A A A A A A A A Z Z Z Z Z Z Z Z Z Z Z Z Z Z Z

>  <atom.prop.IS_HEAVY_ATOM>  (3262) 
1 0 0 0 1 0 0 1 0 0 0 1 0 0 0 1 1 0 1 0 1 0 1 0 1 0

>  <DIFUSE_FUNC_ATOM>  (3262) 
n/a

>  <FINAL_SINGLE_POINT_ENERGY>  (3262) 
0

>  <NONCOV_INTER_ENERGY_QM>  (3262) 
0

>  <FF_Energy>  (3262) 
-8.03

>  <QM_Energy>  (3262) 
-15.44

>  <source>  (3262) 
ETAM_MBZ

>  <Index>  (3262) 
35699

$$$$
ETAM-pdb5l3r-A-LYS-205:MBZ-pdb5l3r-A-PHE-171
     RDKit          3D

 26 25  0  0  0  0  0  0  0  0999 V2000
    2.9566   -0.6145   -3.7730 C   0  0  0  0  0  0  0  0  0  0  0  0
    3.2575   -0.3359   -2.8661 H   0  0  0  0  0  0  0  0  0  0  0  0
    3.4999   -0.1583   -4.4705 H   0  0  0  0  0  0  0  0  0  0  0  0
    3.0966   -1.6911   -3.8704 H   0  0  0  0  0  0  0  0  0  0  0  0
    1.4933   -0.2014   -3.9486 C   0  0  0  0  0  0  0  0  0  0  0  0
    1.4132    0.7827   -3.7761 H   0  0  0  0  0  0  0  0  0  0  0  0
    1.2152   -0.3923   -4.8918 H   0  0  0  0  0  0  0  0  0  0  0  0
    0.5906   -0.9388   -3.0128 N   0  0  0  0  0  4  0  0  0  0  0  0
   -0.2861   -0.4632   -2.9586 H   0  0  0  0  0  0  0  0  0  0  0  0
    0.4505   -1.8660   -3.3544 H   0  0  0  0  0  0  0  0  0  0  0  0
    1.0124   -0.9728   -2.1084 H   0  0  0  0  0  0  0  0  0  0  0  0
    0.0016    2.8840   -0.0014 C   0  0  0  0  0  0  0  0  0  0  0  0
   -0.7810    3.1992   -0.5184 H   0  0  0  0  0  0  0  0  0  0  0  0
    0.8481    3.1959   -0.4077 H   0  0  0  0  0  0  0  0  0  0  0  0
   -0.0654    3.3179    0.9963 H   0  0  0  0  0  0  0  0  0  0  0  0
   -0.0015    1.3991   -0.0023 C   0  0  0  0  0  0  0  0  0  0  0  0
   -1.2017    0.6974    0.0015 C   0  0  0  0  0  0  0  0  0  0  0  0
   -2.0655    1.1904    0.0040 H   0  0  0  0  0  0  0  0  0  0  0  0
   -1.2076   -0.6916    0.0000 C   0  0  0  0  0  0  0  0  0  0  0  0
   -2.0793   -1.1901   -0.0004 H   0  0  0  0  0  0  0  0  0  0  0  0
    0.0048   -1.3972    0.0012 C   0  0  0  0  0  0  0  0  0  0  0  0
   -0.0048   -2.3917    0.0021 H   0  0  0  0  0  0  0  0  0  0  0  0
    1.2076   -0.6983   -0.0000 C   0  0  0  0  0  0  0  0  0  0  0  0
    2.0882   -1.1952    0.0006 H   0  0  0  0  0  0  0  0  0  0  0  0
    1.1984    0.6906   -0.0004 C   0  0  0  0  0  0  0  0  0  0  0  0
    2.0654    1.1910   -0.0006 H   0  0  0  0  0  0  0  0  0  0  0  0
  1  5  1  0
  5  8  1  0
  1  2  1  0
  1  3  1  0
  1  4  1  0
  5  6  1  0
  5  7  1  0
  8  9  1  0
  8 10  1  0
  8 11  1  0
 12 16  1  0
 16 17  2  0
 17 19  1  0
 19 21  2  0
 21 23  1  0
 23 25  2  0
 25 16  1  0
 12 13  1  0
 12 14  1  0
 12 15  1  0
 17 18  1  0
 19 20  1  0
 21 22  1  0
 23 24  1  0
 25 26  1  0
M  CHG  1   8   1
M  END
>  <PDB_ID>  (3263) 
pdb5l3r

>  <RESIDUE_NAME>  (3263) 
LYS   PHE

>  <FRAG_NAME>  (3263) 
ETAM   MBZ

>  <FRAG_ATOM_NUM>  (3263) 
fragi: 11  fragj: 15

>  <atom.prop.CHAIN_ID>  (3263) 
A A A A A A A A A A A Z Z Z Z Z Z Z Z Z Z Z Z Z Z Z

>  <atom.prop.IS_HEAVY_ATOM>  (3263) 
1 0 0 0 1 0 0 1 0 0 0 1 0 0 0 1 1 0 1 0 1 0 1 0 1 0

>  <DIFUSE_FUNC_ATOM>  (3263) 
n/a

>  <FINAL_SINGLE_POINT_ENERGY>  (3263) 
0

>  <NONCOV_INTER_ENERGY_QM>  (3263) 
0

>  <FF_Energy>  (3263) 
-7.71

>  <QM_Energy>  (3263) 
-15.81

>  <source>  (3263) 
ETAM_MBZ

>  <Index>  (3263) 
35703

$$$$
ETAM-pdb6o6l-B-LYS-166:MBZ-pdb6o6l-B-PHE-424
     RDKit          3D

 26 25  0  0  0  0  0  0  0  0999 V2000
   -0.3401   -3.7872   -3.3073 C   0  0  0  0  0  0  0  0  0  0  0  0
   -0.0974   -3.9082   -2.3422 H   0  0  0  0  0  0  0  0  0  0  0  0
    0.0068   -2.9021   -3.6252 H   0  0  0  0  0  0  0  0  0  0  0  0
    0.1463   -4.5738   -3.8841 H   0  0  0  0  0  0  0  0  0  0  0  0
   -1.8275   -3.8098   -3.4465 C   0  0  0  0  0  0  0  0  0  0  0  0
   -2.0759   -3.5926   -4.3931 H   0  0  0  0  0  0  0  0  0  0  0  0
   -2.1685   -4.7245   -3.2205 H   0  0  0  0  0  0  0  0  0  0  0  0
   -2.4357   -2.8263   -2.5450 N   0  0  0  0  0  4  0  0  0  0  0  0
   -3.2621   -2.4423   -2.9648 H   0  0  0  0  0  0  0  0  0  0  0  0
   -2.6839   -3.2645   -1.6768 H   0  0  0  0  0  0  0  0  0  0  0  0
   -1.7878   -2.0825   -2.3617 H   0  0  0  0  0  0  0  0  0  0  0  0
    0.0032    2.9217   -0.0051 C   0  0  0  0  0  0  0  0  0  0  0  0
    0.8326    3.2222    0.4376 H   0  0  0  0  0  0  0  0  0  0  0  0
   -0.8000    3.2205    0.4854 H   0  0  0  0  0  0  0  0  0  0  0  0
   -0.0267    3.3621   -1.0017 H   0  0  0  0  0  0  0  0  0  0  0  0
    0.0050    1.3978    0.0010 C   0  0  0  0  0  0  0  0  0  0  0  0
   -1.1826    0.6805   -0.0098 C   0  0  0  0  0  0  0  0  0  0  0  0
   -2.0553    1.1643   -0.0260 H   0  0  0  0  0  0  0  0  0  0  0  0
   -1.1820   -0.7110   -0.0000 C   0  0  0  0  0  0  0  0  0  0  0  0
   -2.0694   -1.1962    0.0089 H   0  0  0  0  0  0  0  0  0  0  0  0
   -0.0086   -1.3795   -0.0003 C   0  0  0  0  0  0  0  0  0  0  0  0
    0.0078   -2.3867   -0.0006 H   0  0  0  0  0  0  0  0  0  0  0  0
    1.1820   -0.6811    0.0000 C   0  0  0  0  0  0  0  0  0  0  0  0
    2.0686   -1.1874   -0.0051 H   0  0  0  0  0  0  0  0  0  0  0  0
    1.1862    0.6933    0.0091 C   0  0  0  0  0  0  0  0  0  0  0  0
    2.0601    1.1874    0.0209 H   0  0  0  0  0  0  0  0  0  0  0  0
  1  5  1  0
  5  8  1  0
  1  2  1  0
  1  3  1  0
  1  4  1  0
  5  6  1  0
  5  7  1  0
  8  9  1  0
  8 10  1  0
  8 11  1  0
 12 16  1  0
 16 17  2  0
 17 19  1  0
 19 21  2  0
 21 23  1  0
 23 25  2  0
 25 16  1  0
 12 13  1  0
 12 14  1  0
 12 15  1  0
 17 18  1  0
 19 20  1  0
 21 22  1  0
 23 24  1  0
 25 26  1  0
M  CHG  1   8   1
M  END
>  <PDB_ID>  (3264) 
pdb6o6l

>  <RESIDUE_NAME>  (3264) 
LYS   PHE

>  <FRAG_NAME>  (3264) 
ETAM   MBZ

>  <FRAG_ATOM_NUM>  (3264) 
fragi: 11  fragj: 15

>  <atom.prop.CHAIN_ID>  (3264) 
A A A A A A A A A A A Z Z Z Z Z Z Z Z Z Z Z Z Z Z Z

>  <atom.prop.IS_HEAVY_ATOM>  (3264) 
1 0 0 0 1 0 0 1 0 0 0 1 0 0 0 1 1 0 1 0 1 0 1 0 1 0

>  <DIFUSE_FUNC_ATOM>  (3264) 
n/a

>  <FINAL_SINGLE_POINT_ENERGY>  (3264) 
0

>  <NONCOV_INTER_ENERGY_QM>  (3264) 
0

>  <FF_Energy>  (3264) 
-1.84

>  <QM_Energy>  (3264) 
-7.55

>  <source>  (3264) 
ETAM_MBZ

>  <Index>  (3264) 
35729

$$$$
ETAM-pdb6o6l-C-LYS-166:MBZ-pdb6o6l-C-PHE-424
     RDKit          3D

 26 25  0  0  0  0  0  0  0  0999 V2000
   -0.0666   -3.6954   -3.1191 C   0  0  0  0  0  0  0  0  0  0  0  0
    0.1963   -3.6837   -2.1642 H   0  0  0  0  0  0  0  0  0  0  0  0
    0.1523   -2.8371   -3.5606 H   0  0  0  0  0  0  0  0  0  0  0  0
    0.4921   -4.4882   -3.6164 H   0  0  0  0  0  0  0  0  0  0  0  0
   -1.5575   -3.9421   -3.2226 C   0  0  0  0  0  0  0  0  0  0  0  0
   -1.8415   -3.8189   -4.1879 H   0  0  0  0  0  0  0  0  0  0  0  0
   -1.7467   -4.9073   -2.9746 H   0  0  0  0  0  0  0  0  0  0  0  0
   -2.3748   -3.0544   -2.3615 N   0  0  0  0  0  4  0  0  0  0  0  0
   -3.2321   -3.5139   -2.1254 H   0  0  0  0  0  0  0  0  0  0  0  0
   -1.8697   -2.8427   -1.5244 H   0  0  0  0  0  0  0  0  0  0  0  0
   -2.5769   -2.2058   -2.8520 H   0  0  0  0  0  0  0  0  0  0  0  0
   -0.0110    2.9106   -0.0295 C   0  0  0  0  0  0  0  0  0  0  0  0
    0.8316    3.2236    0.3831 H   0  0  0  0  0  0  0  0  0  0  0  0
   -0.7974    3.2174    0.4859 H   0  0  0  0  0  0  0  0  0  0  0  0
   -0.0761    3.3374   -1.0304 H   0  0  0  0  0  0  0  0  0  0  0  0
   -0.0036    1.4013   -0.0046 C   0  0  0  0  0  0  0  0  0  0  0  0
   -1.1805    0.6894   -0.0025 C   0  0  0  0  0  0  0  0  0  0  0  0
   -2.0585    1.1714   -0.0043 H   0  0  0  0  0  0  0  0  0  0  0  0
   -1.1810   -0.7004    0.0000 C   0  0  0  0  0  0  0  0  0  0  0  0
   -2.0665   -1.1894    0.0003 H   0  0  0  0  0  0  0  0  0  0  0  0
    0.0025   -1.3927    0.0039 C   0  0  0  0  0  0  0  0  0  0  0  0
   -0.0018   -2.3940    0.0090 H   0  0  0  0  0  0  0  0  0  0  0  0
    1.1810   -0.6991   -0.0000 C   0  0  0  0  0  0  0  0  0  0  0  0
    2.0751   -1.1858   -0.0035 H   0  0  0  0  0  0  0  0  0  0  0  0
    1.1816    0.7015    0.0032 C   0  0  0  0  0  0  0  0  0  0  0  0
    2.0551    1.1867    0.0103 H   0  0  0  0  0  0  0  0  0  0  0  0
  1  5  1  0
  5  8  1  0
  1  2  1  0
  1  3  1  0
  1  4  1  0
  5  6  1  0
  5  7  1  0
  8  9  1  0
  8 10  1  0
  8 11  1  0
 12 16  1  0
 16 17  2  0
 17 19  1  0
 19 21  2  0
 21 23  1  0
 23 25  2  0
 25 16  1  0
 12 13  1  0
 12 14  1  0
 12 15  1  0
 17 18  1  0
 19 20  1  0
 21 22  1  0
 23 24  1  0
 25 26  1  0
M  CHG  1   8   1
M  END
>  <PDB_ID>  (3265) 
pdb6o6l

>  <RESIDUE_NAME>  (3265) 
LYS   PHE

>  <FRAG_NAME>  (3265) 
ETAM   MBZ

>  <FRAG_ATOM_NUM>  (3265) 
fragi: 11  fragj: 15

>  <atom.prop.CHAIN_ID>  (3265) 
A A A A A A A A A A A Z Z Z Z Z Z Z Z Z Z Z Z Z Z Z

>  <atom.prop.IS_HEAVY_ATOM>  (3265) 
1 0 0 0 1 0 0 1 0 0 0 1 0 0 0 1 1 0 1 0 1 0 1 0 1 0

>  <DIFUSE_FUNC_ATOM>  (3265) 
n/a

>  <FINAL_SINGLE_POINT_ENERGY>  (3265) 
0

>  <NONCOV_INTER_ENERGY_QM>  (3265) 
0

>  <FF_Energy>  (3265) 
-1.29

>  <QM_Energy>  (3265) 
-6.87

>  <source>  (3265) 
ETAM_MBZ

>  <Index>  (3265) 
35730

$$$$
ETAM-pdb5jvk-C-LYS-146:MBZ-pdb5jvk-C-PHE-425
     RDKit          3D

 26 25  0  0  0  0  0  0  0  0999 V2000
   -1.3336    0.5007    5.4660 C   0  0  0  0  0  0  0  0  0  0  0  0
   -1.0352    1.4359    5.2733 H   0  0  0  0  0  0  0  0  0  0  0  0
   -1.2366    0.3166    6.4454 H   0  0  0  0  0  0  0  0  0  0  0  0
   -2.3844    0.4045    5.1928 H   0  0  0  0  0  0  0  0  0  0  0  0
   -0.4316   -0.4596    4.7042 C   0  0  0  0  0  0  0  0  0  0  0  0
    0.5203   -0.3207    5.0083 H   0  0  0  0  0  0  0  0  0  0  0  0
   -0.6980   -1.4059    4.9328 H   0  0  0  0  0  0  0  0  0  0  0  0
   -0.5001   -0.2802    3.2266 N   0  0  0  0  0  4  0  0  0  0  0  0
   -1.2992    0.2735    2.9977 H   0  0  0  0  0  0  0  0  0  0  0  0
    0.3288    0.1803    2.9108 H   0  0  0  0  0  0  0  0  0  0  0  0
   -0.5744   -1.1754    2.7881 H   0  0  0  0  0  0  0  0  0  0  0  0
   -0.0006    2.9049    0.0001 C   0  0  0  0  0  0  0  0  0  0  0  0
    0.7596    3.2142    0.5478 H   0  0  0  0  0  0  0  0  0  0  0  0
   -0.8630    3.2143    0.3672 H   0  0  0  0  0  0  0  0  0  0  0  0
    0.1094    3.3405   -0.9931 H   0  0  0  0  0  0  0  0  0  0  0  0
   -0.0003    1.4026    0.0018 C   0  0  0  0  0  0  0  0  0  0  0  0
   -1.2000    0.6915   -0.0004 C   0  0  0  0  0  0  0  0  0  0  0  0
   -2.0652    1.1827   -0.0032 H   0  0  0  0  0  0  0  0  0  0  0  0
   -1.2024   -0.6965   -0.0000 C   0  0  0  0  0  0  0  0  0  0  0  0
   -2.0781   -1.1923    0.0016 H   0  0  0  0  0  0  0  0  0  0  0  0
   -0.0005   -1.3913    0.0005 C   0  0  0  0  0  0  0  0  0  0  0  0
   -0.0044   -2.3915    0.0010 H   0  0  0  0  0  0  0  0  0  0  0  0
    1.2024   -0.6968    0.0000 C   0  0  0  0  0  0  0  0  0  0  0  0
    2.0821   -1.1985    0.0025 H   0  0  0  0  0  0  0  0  0  0  0  0
    1.2007    0.6906   -0.0019 C   0  0  0  0  0  0  0  0  0  0  0  0
    2.0666    1.1894   -0.0068 H   0  0  0  0  0  0  0  0  0  0  0  0
  1  5  1  0
  5  8  1  0
  1  2  1  0
  1  3  1  0
  1  4  1  0
  5  6  1  0
  5  7  1  0
  8  9  1  0
  8 10  1  0
  8 11  1  0
 12 16  1  0
 16 17  2  0
 17 19  1  0
 19 21  2  0
 21 23  1  0
 23 25  2  0
 25 16  1  0
 12 13  1  0
 12 14  1  0
 12 15  1  0
 17 18  1  0
 19 20  1  0
 21 22  1  0
 23 24  1  0
 25 26  1  0
M  CHG  1   8   1
M  END
>  <PDB_ID>  (3266) 
pdb5jvk

>  <RESIDUE_NAME>  (3266) 
LYS   PHE

>  <FRAG_NAME>  (3266) 
ETAM   MBZ

>  <FRAG_ATOM_NUM>  (3266) 
fragi: 11  fragj: 15

>  <atom.prop.CHAIN_ID>  (3266) 
A A A A A A A A A A A Z Z Z Z Z Z Z Z Z Z Z Z Z Z Z

>  <atom.prop.IS_HEAVY_ATOM>  (3266) 
1 0 0 0 1 0 0 1 0 0 0 1 0 0 0 1 1 0 1 0 1 0 1 0 1 0

>  <DIFUSE_FUNC_ATOM>  (3266) 
n/a

>  <FINAL_SINGLE_POINT_ENERGY>  (3266) 
0

>  <NONCOV_INTER_ENERGY_QM>  (3266) 
0

>  <FF_Energy>  (3266) 
-8.09

>  <QM_Energy>  (3266) 
-14.83

>  <source>  (3266) 
ETAM_MBZ

>  <Index>  (3266) 
35737

$$$$
ETAM-pdb5l6h-A-LYS-973:MBZ-pdb5l6h-A-PHE-969
     RDKit          3D

 26 25  0  0  0  0  0  0  0  0999 V2000
    0.0385   -0.1334    3.7659 C   0  0  0  0  0  0  0  0  0  0  0  0
    0.1902   -0.0059    2.7792 H   0  0  0  0  0  0  0  0  0  0  0  0
    0.2876   -1.0785    4.0073 H   0  0  0  0  0  0  0  0  0  0  0  0
    0.7003    0.5451    4.3043 H   0  0  0  0  0  0  0  0  0  0  0  0
   -1.4870    0.0412    4.0403 C   0  0  0  0  0  0  0  0  0  0  0  0
   -1.7035   -0.4186    4.9222 H   0  0  0  0  0  0  0  0  0  0  0  0
   -1.6721    1.0336    4.1776 H   0  0  0  0  0  0  0  0  0  0  0  0
   -2.4459   -0.4833    2.9762 N   0  0  0  0  0  4  0  0  0  0  0  0
   -2.4363   -1.4768    3.0087 H   0  0  0  0  0  0  0  0  0  0  0  0
   -3.3552   -0.1362    3.1761 H   0  0  0  0  0  0  0  0  0  0  0  0
   -2.1367   -0.1595    2.0895 H   0  0  0  0  0  0  0  0  0  0  0  0
    0.0773    2.8919    0.0812 C   0  0  0  0  0  0  0  0  0  0  0  0
    0.5881    3.2125   -0.7122 H   0  0  0  0  0  0  0  0  0  0  0  0
    0.5714    3.1138    0.9184 H   0  0  0  0  0  0  0  0  0  0  0  0
   -0.8835    3.4062    0.1027 H   0  0  0  0  0  0  0  0  0  0  0  0
   -0.0006    1.3914   -0.0109 C   0  0  0  0  0  0  0  0  0  0  0  0
   -1.1684    0.7156    0.0315 C   0  0  0  0  0  0  0  0  0  0  0  0
   -2.0422    1.1902    0.0839 H   0  0  0  0  0  0  0  0  0  0  0  0
   -1.1684   -0.6778    0.0000 C   0  0  0  0  0  0  0  0  0  0  0  0
   -2.0621   -1.1617   -0.0099 H   0  0  0  0  0  0  0  0  0  0  0  0
    0.0049   -1.3820   -0.0155 C   0  0  0  0  0  0  0  0  0  0  0  0
   -0.0182   -2.3850   -0.0389 H   0  0  0  0  0  0  0  0  0  0  0  0
    1.1684   -0.7074    0.0000 C   0  0  0  0  0  0  0  0  0  0  0  0
    2.0641   -1.2017    0.0174 H   0  0  0  0  0  0  0  0  0  0  0  0
    1.1641    0.6602   -0.0051 C   0  0  0  0  0  0  0  0  0  0  0  0
    2.0518    1.1566   -0.0058 H   0  0  0  0  0  0  0  0  0  0  0  0
  1  5  1  0
  5  8  1  0
  1  2  1  0
  1  3  1  0
  1  4  1  0
  5  6  1  0
  5  7  1  0
  8  9  1  0
  8 10  1  0
  8 11  1  0
 12 16  1  0
 16 17  2  0
 17 19  1  0
 19 21  2  0
 21 23  1  0
 23 25  2  0
 25 16  1  0
 12 13  1  0
 12 14  1  0
 12 15  1  0
 17 18  1  0
 19 20  1  0
 21 22  1  0
 23 24  1  0
 25 26  1  0
M  CHG  1   8   1
M  END
>  <PDB_ID>  (3267) 
pdb5l6h

>  <RESIDUE_NAME>  (3267) 
LYS   PHE

>  <FRAG_NAME>  (3267) 
ETAM   MBZ

>  <FRAG_ATOM_NUM>  (3267) 
fragi: 11  fragj: 15

>  <atom.prop.CHAIN_ID>  (3267) 
A A A A A A A A A A A Z Z Z Z Z Z Z Z Z Z Z Z Z Z Z

>  <atom.prop.IS_HEAVY_ATOM>  (3267) 
1 0 0 0 1 0 0 1 0 0 0 1 0 0 0 1 1 0 1 0 1 0 1 0 1 0

>  <DIFUSE_FUNC_ATOM>  (3267) 
n/a

>  <FINAL_SINGLE_POINT_ENERGY>  (3267) 
0

>  <NONCOV_INTER_ENERGY_QM>  (3267) 
0

>  <FF_Energy>  (3267) 
-5.4

>  <QM_Energy>  (3267) 
-12.89

>  <source>  (3267) 
ETAM_MBZ

>  <Index>  (3267) 
35744

$$$$
ETAM-pdb5l8s-C-LYS-235:MBZ-pdb5l8s-C-PHE-191
     RDKit          3D

 26 25  0  0  0  0  0  0  0  0999 V2000
   -1.1559    0.3031    4.0182 C   0  0  0  0  0  0  0  0  0  0  0  0
   -1.4073   -0.2398    4.8080 H   0  0  0  0  0  0  0  0  0  0  0  0
   -1.9426    0.4821    3.4439 H   0  0  0  0  0  0  0  0  0  0  0  0
   -0.7319    1.2495    4.3537 H   0  0  0  0  0  0  0  0  0  0  0  0
   -0.1309   -0.4665    3.2076 C   0  0  0  0  0  0  0  0  0  0  0  0
   -0.6080   -1.1454    2.6402 H   0  0  0  0  0  0  0  0  0  0  0  0
    0.3526    0.1735    2.6015 H   0  0  0  0  0  0  0  0  0  0  0  0
    0.8557   -1.1599    4.0722 N   0  0  0  0  0  4  0  0  0  0  0  0
    0.4452   -1.9914    4.4466 H   0  0  0  0  0  0  0  0  0  0  0  0
    1.6625   -1.4002    3.5313 H   0  0  0  0  0  0  0  0  0  0  0  0
    1.1255   -0.5549    4.8219 H   0  0  0  0  0  0  0  0  0  0  0  0
   -0.0103    2.8823   -0.0110 C   0  0  0  0  0  0  0  0  0  0  0  0
    0.8581    3.2015    0.3377 H   0  0  0  0  0  0  0  0  0  0  0  0
   -0.7609    3.1941    0.5531 H   0  0  0  0  0  0  0  0  0  0  0  0
   -0.1446    3.3055   -1.0064 H   0  0  0  0  0  0  0  0  0  0  0  0
   -0.0018    1.3954    0.0016 C   0  0  0  0  0  0  0  0  0  0  0  0
   -1.1991    0.6849   -0.0007 C   0  0  0  0  0  0  0  0  0  0  0  0
   -2.0652    1.1783   -0.0040 H   0  0  0  0  0  0  0  0  0  0  0  0
   -1.2035   -0.7007   -0.0000 C   0  0  0  0  0  0  0  0  0  0  0  0
   -2.0749   -1.1993   -0.0006 H   0  0  0  0  0  0  0  0  0  0  0  0
    0.0042   -1.3898    0.0028 C   0  0  0  0  0  0  0  0  0  0  0  0
    0.0051   -2.3890    0.0066 H   0  0  0  0  0  0  0  0  0  0  0  0
    1.2035   -0.6878    0.0000 C   0  0  0  0  0  0  0  0  0  0  0  0
    2.0865   -1.1862    0.0022 H   0  0  0  0  0  0  0  0  0  0  0  0
    1.1967    0.6980   -0.0037 C   0  0  0  0  0  0  0  0  0  0  0  0
    2.0618    1.1987   -0.0109 H   0  0  0  0  0  0  0  0  0  0  0  0
  1  5  1  0
  5  8  1  0
  1  2  1  0
  1  3  1  0
  1  4  1  0
  5  6  1  0
  5  7  1  0
  8  9  1  0
  8 10  1  0
  8 11  1  0
 12 16  1  0
 16 17  2  0
 17 19  1  0
 19 21  2  0
 21 23  1  0
 23 25  2  0
 25 16  1  0
 12 13  1  0
 12 14  1  0
 12 15  1  0
 17 18  1  0
 19 20  1  0
 21 22  1  0
 23 24  1  0
 25 26  1  0
M  CHG  1   8   1
M  END
>  <PDB_ID>  (3268) 
pdb5l8s

>  <RESIDUE_NAME>  (3268) 
LYS   PHE

>  <FRAG_NAME>  (3268) 
ETAM   MBZ

>  <FRAG_ATOM_NUM>  (3268) 
fragi: 11  fragj: 15

>  <atom.prop.CHAIN_ID>  (3268) 
A A A A A A A A A A A Z Z Z Z Z Z Z Z Z Z Z Z Z Z Z

>  <atom.prop.IS_HEAVY_ATOM>  (3268) 
1 0 0 0 1 0 0 1 0 0 0 1 0 0 0 1 1 0 1 0 1 0 1 0 1 0

>  <DIFUSE_FUNC_ATOM>  (3268) 
n/a

>  <FINAL_SINGLE_POINT_ENERGY>  (3268) 
0

>  <NONCOV_INTER_ENERGY_QM>  (3268) 
0

>  <FF_Energy>  (3268) 
-5.23

>  <QM_Energy>  (3268) 
-10.29

>  <source>  (3268) 
ETAM_MBZ

>  <Index>  (3268) 
35788

$$$$
ETAM-pdb5l8s-D-LYS-235:MBZ-pdb5l8s-D-PHE-191
     RDKit          3D

 26 25  0  0  0  0  0  0  0  0999 V2000
    0.8685    0.3474   -4.5042 C   0  0  0  0  0  0  0  0  0  0  0  0
    0.3169    0.4024   -5.3359 H   0  0  0  0  0  0  0  0  0  0  0  0
    1.5468   -0.3797   -4.5992 H   0  0  0  0  0  0  0  0  0  0  0  0
    1.3844    1.2966   -4.3595 H   0  0  0  0  0  0  0  0  0  0  0  0
   -0.0428    0.0076   -3.3437 C   0  0  0  0  0  0  0  0  0  0  0  0
    0.5057   -0.1736   -2.5374 H   0  0  0  0  0  0  0  0  0  0  0  0
   -0.6649    0.7633   -3.1815 H   0  0  0  0  0  0  0  0  0  0  0  0
   -0.8295   -1.2113   -3.6867 N   0  0  0  0  0  4  0  0  0  0  0  0
   -0.3193   -2.0237   -3.4057 H   0  0  0  0  0  0  0  0  0  0  0  0
   -1.7071   -1.1837   -3.2086 H   0  0  0  0  0  0  0  0  0  0  0  0
   -0.9853   -1.2365   -4.6732 H   0  0  0  0  0  0  0  0  0  0  0  0
    0.0053    2.8888    0.0108 C   0  0  0  0  0  0  0  0  0  0  0  0
   -0.8431    3.2071   -0.3872 H   0  0  0  0  0  0  0  0  0  0  0  0
    0.7853    3.2005   -0.5123 H   0  0  0  0  0  0  0  0  0  0  0  0
    0.0831    3.3236    1.0073 H   0  0  0  0  0  0  0  0  0  0  0  0
   -0.0009    1.3957    0.0015 C   0  0  0  0  0  0  0  0  0  0  0  0
   -1.1949    0.6986   -0.0005 C   0  0  0  0  0  0  0  0  0  0  0  0
   -2.0607    1.1936   -0.0042 H   0  0  0  0  0  0  0  0  0  0  0  0
   -1.2029   -0.6838   -0.0000 C   0  0  0  0  0  0  0  0  0  0  0  0
   -2.0797   -1.1799    0.0036 H   0  0  0  0  0  0  0  0  0  0  0  0
   -0.0021   -1.3881   -0.0027 C   0  0  0  0  0  0  0  0  0  0  0  0
   -0.0174   -2.3885   -0.0070 H   0  0  0  0  0  0  0  0  0  0  0  0
    1.2029   -0.7053   -0.0000 C   0  0  0  0  0  0  0  0  0  0  0  0
    2.0790   -1.2055    0.0024 H   0  0  0  0  0  0  0  0  0  0  0  0
    1.1979    0.6829    0.0016 C   0  0  0  0  0  0  0  0  0  0  0  0
    2.0658    1.1820    0.0020 H   0  0  0  0  0  0  0  0  0  0  0  0
  1  5  1  0
  5  8  1  0
  1  2  1  0
  1  3  1  0
  1  4  1  0
  5  6  1  0
  5  7  1  0
  8  9  1  0
  8 10  1  0
  8 11  1  0
 12 16  1  0
 16 17  2  0
 17 19  1  0
 19 21  2  0
 21 23  1  0
 23 25  2  0
 25 16  1  0
 12 13  1  0
 12 14  1  0
 12 15  1  0
 17 18  1  0
 19 20  1  0
 21 22  1  0
 23 24  1  0
 25 26  1  0
M  CHG  1   8   1
M  END
>  <PDB_ID>  (3269) 
pdb5l8s

>  <RESIDUE_NAME>  (3269) 
LYS   PHE

>  <FRAG_NAME>  (3269) 
ETAM   MBZ

>  <FRAG_ATOM_NUM>  (3269) 
fragi: 11  fragj: 15

>  <atom.prop.CHAIN_ID>  (3269) 
A A A A A A A A A A A Z Z Z Z Z Z Z Z Z Z Z Z Z Z Z

>  <atom.prop.IS_HEAVY_ATOM>  (3269) 
1 0 0 0 1 0 0 1 0 0 0 1 0 0 0 1 1 0 1 0 1 0 1 0 1 0

>  <DIFUSE_FUNC_ATOM>  (3269) 
n/a

>  <FINAL_SINGLE_POINT_ENERGY>  (3269) 
0

>  <NONCOV_INTER_ENERGY_QM>  (3269) 
0

>  <FF_Energy>  (3269) 
-6.02

>  <QM_Energy>  (3269) 
-12.0

>  <source>  (3269) 
ETAM_MBZ

>  <Index>  (3269) 
35790

$$$$
ETAM-pdb5ld5-B-LYS-270:MBZ-pdb5ld5-B-PHE-183
     RDKit          3D

 26 25  0  0  0  0  0  0  0  0999 V2000
   -2.9651   -1.8785    3.9936 C   0  0  0  0  0  0  0  0  0  0  0  0
   -3.0453   -2.3815    3.1287 H   0  0  0  0  0  0  0  0  0  0  0  0
   -3.8764   -1.5696    4.2775 H   0  0  0  0  0  0  0  0  0  0  0  0
   -2.5744   -2.5550    4.7537 H   0  0  0  0  0  0  0  0  0  0  0  0
   -2.0916   -0.6604    3.7651 C   0  0  0  0  0  0  0  0  0  0  0  0
   -1.8833   -0.2362    4.6420 H   0  0  0  0  0  0  0  0  0  0  0  0
   -1.2492   -0.9397    3.3132 H   0  0  0  0  0  0  0  0  0  0  0  0
   -2.8035    0.3309    2.8997 N   0  0  0  0  0  4  0  0  0  0  0  0
   -2.3234    0.4089    2.0274 H   0  0  0  0  0  0  0  0  0  0  0  0
   -3.7386    0.0176    2.7440 H   0  0  0  0  0  0  0  0  0  0  0  0
   -2.8160    1.2177    3.3592 H   0  0  0  0  0  0  0  0  0  0  0  0
   -0.0083    2.8767   -0.0027 C   0  0  0  0  0  0  0  0  0  0  0  0
   -0.5806    3.1861   -0.7484 H   0  0  0  0  0  0  0  0  0  0  0  0
    0.9226    3.1969   -0.1102 H   0  0  0  0  0  0  0  0  0  0  0  0
   -0.4013    3.3148    0.9148 H   0  0  0  0  0  0  0  0  0  0  0  0
    0.0001    1.3922    0.0023 C   0  0  0  0  0  0  0  0  0  0  0  0
   -1.1936    0.6848   -0.0039 C   0  0  0  0  0  0  0  0  0  0  0  0
   -2.0605    1.1778   -0.0122 H   0  0  0  0  0  0  0  0  0  0  0  0
   -1.1972   -0.6971   -0.0000 C   0  0  0  0  0  0  0  0  0  0  0  0
   -2.0726   -1.1950    0.0042 H   0  0  0  0  0  0  0  0  0  0  0  0
    0.0017   -1.3854    0.0002 C   0  0  0  0  0  0  0  0  0  0  0  0
    0.0008   -2.3874   -0.0003 H   0  0  0  0  0  0  0  0  0  0  0  0
    1.1972   -0.6898    0.0000 C   0  0  0  0  0  0  0  0  0  0  0  0
    2.0808   -1.1881    0.0007 H   0  0  0  0  0  0  0  0  0  0  0  0
    1.1917    0.6953    0.0014 C   0  0  0  0  0  0  0  0  0  0  0  0
    2.0601    1.1930    0.0012 H   0  0  0  0  0  0  0  0  0  0  0  0
  1  5  1  0
  5  8  1  0
  1  2  1  0
  1  3  1  0
  1  4  1  0
  5  6  1  0
  5  7  1  0
  8  9  1  0
  8 10  1  0
  8 11  1  0
 12 16  1  0
 16 17  2  0
 17 19  1  0
 19 21  2  0
 21 23  1  0
 23 25  2  0
 25 16  1  0
 12 13  1  0
 12 14  1  0
 12 15  1  0
 17 18  1  0
 19 20  1  0
 21 22  1  0
 23 24  1  0
 25 26  1  0
M  CHG  1   8   1
M  END
>  <PDB_ID>  (3270) 
pdb5ld5

>  <RESIDUE_NAME>  (3270) 
LYS   PHE

>  <FRAG_NAME>  (3270) 
ETAM   MBZ

>  <FRAG_ATOM_NUM>  (3270) 
fragi: 11  fragj: 15

>  <atom.prop.CHAIN_ID>  (3270) 
A A A A A A A A A A A Z Z Z Z Z Z Z Z Z Z Z Z Z Z Z

>  <atom.prop.IS_HEAVY_ATOM>  (3270) 
1 0 0 0 1 0 0 1 0 0 0 1 0 0 0 1 1 0 1 0 1 0 1 0 1 0

>  <DIFUSE_FUNC_ATOM>  (3270) 
n/a

>  <FINAL_SINGLE_POINT_ENERGY>  (3270) 
0

>  <NONCOV_INTER_ENERGY_QM>  (3270) 
0

>  <FF_Energy>  (3270) 
-4.28

>  <QM_Energy>  (3270) 
-11.47

>  <source>  (3270) 
ETAM_MBZ

>  <Index>  (3270) 
35826

$$$$
ETAM-pdb6ona-B-LYS-47:MBZ-pdb6ona-B-PHE-392
     RDKit          3D

 26 25  0  0  0  0  0  0  0  0999 V2000
    2.3925   -0.9680    4.0282 C   0  0  0  0  0  0  0  0  0  0  0  0
    1.8779   -1.8251    4.0415 H   0  0  0  0  0  0  0  0  0  0  0  0
    2.5380   -0.6509    4.9653 H   0  0  0  0  0  0  0  0  0  0  0  0
    3.3626   -1.1501    3.5658 H   0  0  0  0  0  0  0  0  0  0  0  0
    1.5828    0.0721    3.2852 C   0  0  0  0  0  0  0  0  0  0  0  0
    2.0899    0.9335    3.2713 H   0  0  0  0  0  0  0  0  0  0  0  0
    1.4291   -0.2401    2.3472 H   0  0  0  0  0  0  0  0  0  0  0  0
    0.2719    0.2865    3.9497 N   0  0  0  0  0  4  0  0  0  0  0  0
   -0.4254    0.4728    3.2581 H   0  0  0  0  0  0  0  0  0  0  0  0
    0.0208   -0.5342    4.4639 H   0  0  0  0  0  0  0  0  0  0  0  0
    0.3383    1.0643    4.5744 H   0  0  0  0  0  0  0  0  0  0  0  0
   -0.0004    2.9296    0.0255 C   0  0  0  0  0  0  0  0  0  0  0  0
    0.8903    3.2260    0.3331 H   0  0  0  0  0  0  0  0  0  0  0  0
   -0.7130    3.2177    0.6473 H   0  0  0  0  0  0  0  0  0  0  0  0
   -0.1935    3.3799   -0.9482 H   0  0  0  0  0  0  0  0  0  0  0  0
    0.0041    1.4136    0.0067 C   0  0  0  0  0  0  0  0  0  0  0  0
   -1.1976    0.6959    0.0070 C   0  0  0  0  0  0  0  0  0  0  0  0
   -2.0636    1.1817    0.0113 H   0  0  0  0  0  0  0  0  0  0  0  0
   -1.2001   -0.7059    0.0000 C   0  0  0  0  0  0  0  0  0  0  0  0
   -2.0812   -1.1935   -0.0011 H   0  0  0  0  0  0  0  0  0  0  0  0
   -0.0036   -1.4032   -0.0037 C   0  0  0  0  0  0  0  0  0  0  0  0
   -0.0070   -2.4024   -0.0093 H   0  0  0  0  0  0  0  0  0  0  0  0
    1.2001   -0.7084   -0.0000 C   0  0  0  0  0  0  0  0  0  0  0  0
    2.0819   -1.1949    0.0111 H   0  0  0  0  0  0  0  0  0  0  0  0
    1.1970    0.7079   -0.0100 C   0  0  0  0  0  0  0  0  0  0  0  0
    2.0689    1.1897   -0.0302 H   0  0  0  0  0  0  0  0  0  0  0  0
  1  5  1  0
  5  8  1  0
  1  2  1  0
  1  3  1  0
  1  4  1  0
  5  6  1  0
  5  7  1  0
  8  9  1  0
  8 10  1  0
  8 11  1  0
 12 16  1  0
 16 17  2  0
 17 19  1  0
 19 21  2  0
 21 23  1  0
 23 25  2  0
 25 16  1  0
 12 13  1  0
 12 14  1  0
 12 15  1  0
 17 18  1  0
 19 20  1  0
 21 22  1  0
 23 24  1  0
 25 26  1  0
M  CHG  1   8   1
M  END
>  <PDB_ID>  (3271) 
pdb6ona

>  <RESIDUE_NAME>  (3271) 
LYS   PHE

>  <FRAG_NAME>  (3271) 
ETAM   MBZ

>  <FRAG_ATOM_NUM>  (3271) 
fragi: 11  fragj: 15

>  <atom.prop.CHAIN_ID>  (3271) 
A A A A A A A A A A A Z Z Z Z Z Z Z Z Z Z Z Z Z Z Z

>  <atom.prop.IS_HEAVY_ATOM>  (3271) 
1 0 0 0 1 0 0 1 0 0 0 1 0 0 0 1 1 0 1 0 1 0 1 0 1 0

>  <DIFUSE_FUNC_ATOM>  (3271) 
n/a

>  <FINAL_SINGLE_POINT_ENERGY>  (3271) 
0

>  <NONCOV_INTER_ENERGY_QM>  (3271) 
0

>  <FF_Energy>  (3271) 
-4.33

>  <QM_Energy>  (3271) 
-9.93

>  <source>  (3271) 
ETAM_MBZ

>  <Index>  (3271) 
35840

$$$$
ETAM-pdb5l7r-A-LYS-512:MBZ-pdb5l7r-A-PHE-509
     RDKit          3D

 26 25  0  0  0  0  0  0  0  0999 V2000
    1.3188    0.1808    3.9637 C   0  0  0  0  0  0  0  0  0  0  0  0
    1.2304    0.5431    3.0348 H   0  0  0  0  0  0  0  0  0  0  0  0
    2.2003   -0.2825    4.0568 H   0  0  0  0  0  0  0  0  0  0  0  0
    1.3081    1.0241    4.6542 H   0  0  0  0  0  0  0  0  0  0  0  0
    0.2154   -0.7894    4.2268 C   0  0  0  0  0  0  0  0  0  0  0  0
    0.3519   -1.2254    5.1172 H   0  0  0  0  0  0  0  0  0  0  0  0
   -0.6646   -0.3120    4.2245 H   0  0  0  0  0  0  0  0  0  0  0  0
    0.1853   -1.8505    3.1740 N   0  0  0  0  0  4  0  0  0  0  0  0
    0.8914   -1.6583    2.4937 H   0  0  0  0  0  0  0  0  0  0  0  0
    0.3576   -2.7384    3.5976 H   0  0  0  0  0  0  0  0  0  0  0  0
   -0.7121   -1.8535    2.7365 H   0  0  0  0  0  0  0  0  0  0  0  0
    0.0189    2.9027    0.0684 C   0  0  0  0  0  0  0  0  0  0  0  0
   -0.7392    3.2360   -0.4677 H   0  0  0  0  0  0  0  0  0  0  0  0
    0.8838    3.2087   -0.2943 H   0  0  0  0  0  0  0  0  0  0  0  0
   -0.0832    3.2836    1.0846 H   0  0  0  0  0  0  0  0  0  0  0  0
    0.0002    1.4011    0.0034 C   0  0  0  0  0  0  0  0  0  0  0  0
   -1.2021    0.6942    0.0177 C   0  0  0  0  0  0  0  0  0  0  0  0
   -2.0663    1.1758    0.0387 H   0  0  0  0  0  0  0  0  0  0  0  0
   -1.2005   -0.7124   -0.0000 C   0  0  0  0  0  0  0  0  0  0  0  0
   -2.0682   -1.2072    0.0271 H   0  0  0  0  0  0  0  0  0  0  0  0
    0.0154   -1.4015   -0.0537 C   0  0  0  0  0  0  0  0  0  0  0  0
    0.0199   -2.3911   -0.1295 H   0  0  0  0  0  0  0  0  0  0  0  0
    1.2005   -0.6841    0.0000 C   0  0  0  0  0  0  0  0  0  0  0  0
    2.0929   -1.1740    0.0176 H   0  0  0  0  0  0  0  0  0  0  0  0
    1.1866    0.7026    0.0327 C   0  0  0  0  0  0  0  0  0  0  0  0
    2.0577    1.2007    0.0771 H   0  0  0  0  0  0  0  0  0  0  0  0
  1  5  1  0
  5  8  1  0
  1  2  1  0
  1  3  1  0
  1  4  1  0
  5  6  1  0
  5  7  1  0
  8  9  1  0
  8 10  1  0
  8 11  1  0
 12 16  1  0
 16 17  2  0
 17 19  1  0
 19 21  2  0
 21 23  1  0
 23 25  2  0
 25 16  1  0
 12 13  1  0
 12 14  1  0
 12 15  1  0
 17 18  1  0
 19 20  1  0
 21 22  1  0
 23 24  1  0
 25 26  1  0
M  CHG  1   8   1
M  END
>  <PDB_ID>  (3272) 
pdb5l7r

>  <RESIDUE_NAME>  (3272) 
LYS   PHE

>  <FRAG_NAME>  (3272) 
ETAM   MBZ

>  <FRAG_ATOM_NUM>  (3272) 
fragi: 11  fragj: 15

>  <atom.prop.CHAIN_ID>  (3272) 
A A A A A A A A A A A Z Z Z Z Z Z Z Z Z Z Z Z Z Z Z

>  <atom.prop.IS_HEAVY_ATOM>  (3272) 
1 0 0 0 1 0 0 1 0 0 0 1 0 0 0 1 1 0 1 0 1 0 1 0 1 0

>  <DIFUSE_FUNC_ATOM>  (3272) 
n/a

>  <FINAL_SINGLE_POINT_ENERGY>  (3272) 
0

>  <NONCOV_INTER_ENERGY_QM>  (3272) 
0

>  <FF_Energy>  (3272) 
-6.36

>  <QM_Energy>  (3272) 
-13.44

>  <source>  (3272) 
ETAM_MBZ

>  <Index>  (3272) 
35844

$$$$
ETAM-pdb5lhc-A-LYS-124:MBZ-pdb5lhc-A-PHE-121
     RDKit          3D

 26 25  0  0  0  0  0  0  0  0999 V2000
   -2.5998    1.4214    4.0817 C   0  0  0  0  0  0  0  0  0  0  0  0
   -3.5612    1.7018    4.0912 H   0  0  0  0  0  0  0  0  0  0  0  0
   -2.1127    1.9331    3.3729 H   0  0  0  0  0  0  0  0  0  0  0  0
   -2.1598    1.6633    5.0492 H   0  0  0  0  0  0  0  0  0  0  0  0
   -2.5291   -0.0575    3.7467 C   0  0  0  0  0  0  0  0  0  0  0  0
   -2.9907   -0.5753    4.4566 H   0  0  0  0  0  0  0  0  0  0  0  0
   -2.9577   -0.2127    2.8650 H   0  0  0  0  0  0  0  0  0  0  0  0
   -1.1011   -0.4733    3.6810 N   0  0  0  0  0  4  0  0  0  0  0  0
   -1.0392   -1.4642    3.7943 H   0  0  0  0  0  0  0  0  0  0  0  0
   -0.7204   -0.2130    2.7945 H   0  0  0  0  0  0  0  0  0  0  0  0
   -0.5904   -0.0199    4.4106 H   0  0  0  0  0  0  0  0  0  0  0  0
   -0.0074    2.8731    0.0350 C   0  0  0  0  0  0  0  0  0  0  0  0
   -0.7412    3.1954   -0.5403 H   0  0  0  0  0  0  0  0  0  0  0  0
    0.8703    3.1962   -0.2801 H   0  0  0  0  0  0  0  0  0  0  0  0
   -0.1697    3.2588    1.0415 H   0  0  0  0  0  0  0  0  0  0  0  0
   -0.0007    1.3920   -0.0050 C   0  0  0  0  0  0  0  0  0  0  0  0
   -1.1978    0.6805    0.0116 C   0  0  0  0  0  0  0  0  0  0  0  0
   -2.0637    1.1687    0.0310 H   0  0  0  0  0  0  0  0  0  0  0  0
   -1.1959   -0.7075   -0.0000 C   0  0  0  0  0  0  0  0  0  0  0  0
   -2.0674   -1.2062    0.0015 H   0  0  0  0  0  0  0  0  0  0  0  0
    0.0083   -1.3853   -0.0120 C   0  0  0  0  0  0  0  0  0  0  0  0
    0.0171   -2.3866   -0.0298 H   0  0  0  0  0  0  0  0  0  0  0  0
    1.1959   -0.6782    0.0000 C   0  0  0  0  0  0  0  0  0  0  0  0
    2.0850   -1.1773    0.0061 H   0  0  0  0  0  0  0  0  0  0  0  0
    1.1901    0.6985    0.0054 C   0  0  0  0  0  0  0  0  0  0  0  0
    2.0573    1.2002    0.0162 H   0  0  0  0  0  0  0  0  0  0  0  0
  1  5  1  0
  5  8  1  0
  1  2  1  0
  1  3  1  0
  1  4  1  0
  5  6  1  0
  5  7  1  0
  8  9  1  0
  8 10  1  0
  8 11  1  0
 12 16  1  0
 16 17  2  0
 17 19  1  0
 19 21  2  0
 21 23  1  0
 23 25  2  0
 25 16  1  0
 12 13  1  0
 12 14  1  0
 12 15  1  0
 17 18  1  0
 19 20  1  0
 21 22  1  0
 23 24  1  0
 25 26  1  0
M  CHG  1   8   1
M  END
>  <PDB_ID>  (3273) 
pdb5lhc

>  <RESIDUE_NAME>  (3273) 
LYS   PHE

>  <FRAG_NAME>  (3273) 
ETAM   MBZ

>  <FRAG_ATOM_NUM>  (3273) 
fragi: 11  fragj: 15

>  <atom.prop.CHAIN_ID>  (3273) 
A A A A A A A A A A A Z Z Z Z Z Z Z Z Z Z Z Z Z Z Z

>  <atom.prop.IS_HEAVY_ATOM>  (3273) 
1 0 0 0 1 0 0 1 0 0 0 1 0 0 0 1 1 0 1 0 1 0 1 0 1 0

>  <DIFUSE_FUNC_ATOM>  (3273) 
n/a

>  <FINAL_SINGLE_POINT_ENERGY>  (3273) 
0

>  <NONCOV_INTER_ENERGY_QM>  (3273) 
0

>  <FF_Energy>  (3273) 
-6.69

>  <QM_Energy>  (3273) 
-12.31

>  <source>  (3273) 
ETAM_MBZ

>  <Index>  (3273) 
35855

$$$$
ETAM-pdb6or9-D-LYS-181:MBZ-pdb6or9-D-PHE-364
     RDKit          3D

 26 25  0  0  0  0  0  0  0  0999 V2000
   -0.0782   -1.3029    3.4321 C   0  0  0  0  0  0  0  0  0  0  0  0
    0.3918   -1.9351    4.0415 H   0  0  0  0  0  0  0  0  0  0  0  0
   -0.0322   -1.6308    2.4934 H   0  0  0  0  0  0  0  0  0  0  0  0
   -1.1233   -1.2306    3.7331 H   0  0  0  0  0  0  0  0  0  0  0  0
    0.6194    0.0466    3.5065 C   0  0  0  0  0  0  0  0  0  0  0  0
    0.1658    0.6811    2.8814 H   0  0  0  0  0  0  0  0  0  0  0  0
    0.5541    0.3945    4.4406 H   0  0  0  0  0  0  0  0  0  0  0  0
    2.0496   -0.0802    3.1273 N   0  0  0  0  0  4  0  0  0  0  0  0
    2.2238    0.4568    2.3017 H   0  0  0  0  0  0  0  0  0  0  0  0
    2.6232    0.2585    3.8728 H   0  0  0  0  0  0  0  0  0  0  0  0
    2.2639   -1.0412    2.9526 H   0  0  0  0  0  0  0  0  0  0  0  0
   -0.0006    2.8971   -0.0061 C   0  0  0  0  0  0  0  0  0  0  0  0
    0.8359    3.2103    0.4138 H   0  0  0  0  0  0  0  0  0  0  0  0
   -0.7946    3.2076    0.4902 H   0  0  0  0  0  0  0  0  0  0  0  0
   -0.0483    3.3231   -1.0083 H   0  0  0  0  0  0  0  0  0  0  0  0
    0.0022    1.3953    0.0077 C   0  0  0  0  0  0  0  0  0  0  0  0
   -1.1892    0.6915   -0.0044 C   0  0  0  0  0  0  0  0  0  0  0  0
   -2.0582    1.1812   -0.0177 H   0  0  0  0  0  0  0  0  0  0  0  0
   -1.1965   -0.6987    0.0000 C   0  0  0  0  0  0  0  0  0  0  0  0
   -2.0767   -1.1880    0.0079 H   0  0  0  0  0  0  0  0  0  0  0  0
   -0.0050   -1.3878   -0.0048 C   0  0  0  0  0  0  0  0  0  0  0  0
   -0.0010   -2.3885   -0.0121 H   0  0  0  0  0  0  0  0  0  0  0  0
    1.1965   -0.6889   -0.0000 C   0  0  0  0  0  0  0  0  0  0  0  0
    2.0770   -1.1935    0.0039 H   0  0  0  0  0  0  0  0  0  0  0  0
    1.1919    0.6884    0.0014 C   0  0  0  0  0  0  0  0  0  0  0  0
    2.0621    1.1888   -0.0031 H   0  0  0  0  0  0  0  0  0  0  0  0
  1  5  1  0
  5  8  1  0
  1  2  1  0
  1  3  1  0
  1  4  1  0
  5  6  1  0
  5  7  1  0
  8  9  1  0
  8 10  1  0
  8 11  1  0
 12 16  1  0
 16 17  2  0
 17 19  1  0
 19 21  2  0
 21 23  1  0
 23 25  2  0
 25 16  1  0
 12 13  1  0
 12 14  1  0
 12 15  1  0
 17 18  1  0
 19 20  1  0
 21 22  1  0
 23 24  1  0
 25 26  1  0
M  CHG  1   8   1
M  END
>  <PDB_ID>  (3274) 
pdb6or9

>  <RESIDUE_NAME>  (3274) 
LYS   PHE

>  <FRAG_NAME>  (3274) 
ETAM   MBZ

>  <FRAG_ATOM_NUM>  (3274) 
fragi: 11  fragj: 15

>  <atom.prop.CHAIN_ID>  (3274) 
A A A A A A A A A A A Z Z Z Z Z Z Z Z Z Z Z Z Z Z Z

>  <atom.prop.IS_HEAVY_ATOM>  (3274) 
1 0 0 0 1 0 0 1 0 0 0 1 0 0 0 1 1 0 1 0 1 0 1 0 1 0

>  <DIFUSE_FUNC_ATOM>  (3274) 
n/a

>  <FINAL_SINGLE_POINT_ENERGY>  (3274) 
0

>  <NONCOV_INTER_ENERGY_QM>  (3274) 
0

>  <FF_Energy>  (3274) 
-5.4

>  <QM_Energy>  (3274) 
-12.8

>  <source>  (3274) 
ETAM_MBZ

>  <Index>  (3274) 
35865

$$$$
ETAM-pdb5lgd-A-LYS-223:MBZ-pdb5lgd-A-PHE-215
     RDKit          3D

 26 25  0  0  0  0  0  0  0  0999 V2000
   -0.0606    0.8472    4.1729 C   0  0  0  0  0  0  0  0  0  0  0  0
    0.2445    0.5644    3.2559 H   0  0  0  0  0  0  0  0  0  0  0  0
   -0.0574    0.0374    4.7717 H   0  0  0  0  0  0  0  0  0  0  0  0
    0.6695    1.5561    4.5638 H   0  0  0  0  0  0  0  0  0  0  0  0
   -1.4797    1.3771    4.0745 C   0  0  0  0  0  0  0  0  0  0  0  0
   -1.8738    1.4232    4.9953 H   0  0  0  0  0  0  0  0  0  0  0  0
   -1.4551    2.3005    3.6845 H   0  0  0  0  0  0  0  0  0  0  0  0
   -2.3242    0.5071    3.2220 N   0  0  0  0  0  4  0  0  0  0  0  0
   -1.8851    0.3839    2.3307 H   0  0  0  0  0  0  0  0  0  0  0  0
   -2.4378   -0.3842    3.6628 H   0  0  0  0  0  0  0  0  0  0  0  0
   -3.2212    0.9320    3.0953 H   0  0  0  0  0  0  0  0  0  0  0  0
    0.0040    2.9244   -0.0326 C   0  0  0  0  0  0  0  0  0  0  0  0
    0.8814    3.2280    0.3127 H   0  0  0  0  0  0  0  0  0  0  0  0
   -0.7347    3.2337    0.5516 H   0  0  0  0  0  0  0  0  0  0  0  0
   -0.1399    3.3689   -1.0173 H   0  0  0  0  0  0  0  0  0  0  0  0
    0.0014    1.4083   -0.0138 C   0  0  0  0  0  0  0  0  0  0  0  0
   -1.1946    0.6949   -0.0058 C   0  0  0  0  0  0  0  0  0  0  0  0
   -2.0632    1.1793   -0.0056 H   0  0  0  0  0  0  0  0  0  0  0  0
   -1.1961   -0.7052    0.0000 C   0  0  0  0  0  0  0  0  0  0  0  0
   -2.0738   -1.1945    0.0014 H   0  0  0  0  0  0  0  0  0  0  0  0
    0.0015   -1.3920    0.0058 C   0  0  0  0  0  0  0  0  0  0  0  0
   -0.0022   -2.3970    0.0137 H   0  0  0  0  0  0  0  0  0  0  0  0
    1.1961   -0.7039   -0.0000 C   0  0  0  0  0  0  0  0  0  0  0  0
    2.0805   -1.1936   -0.0126 H   0  0  0  0  0  0  0  0  0  0  0  0
    1.1917    0.6979    0.0138 C   0  0  0  0  0  0  0  0  0  0  0  0
    2.0642    1.1865    0.0432 H   0  0  0  0  0  0  0  0  0  0  0  0
  1  5  1  0
  5  8  1  0
  1  2  1  0
  1  3  1  0
  1  4  1  0
  5  6  1  0
  5  7  1  0
  8  9  1  0
  8 10  1  0
  8 11  1  0
 12 16  1  0
 16 17  2  0
 17 19  1  0
 19 21  2  0
 21 23  1  0
 23 25  2  0
 25 16  1  0
 12 13  1  0
 12 14  1  0
 12 15  1  0
 17 18  1  0
 19 20  1  0
 21 22  1  0
 23 24  1  0
 25 26  1  0
M  CHG  1   8   1
M  END
>  <PDB_ID>  (3275) 
pdb5lgd

>  <RESIDUE_NAME>  (3275) 
LYS   PHE

>  <FRAG_NAME>  (3275) 
ETAM   MBZ

>  <FRAG_ATOM_NUM>  (3275) 
fragi: 11  fragj: 15

>  <atom.prop.CHAIN_ID>  (3275) 
A A A A A A A A A A A Z Z Z Z Z Z Z Z Z Z Z Z Z Z Z

>  <atom.prop.IS_HEAVY_ATOM>  (3275) 
1 0 0 0 1 0 0 1 0 0 0 1 0 0 0 1 1 0 1 0 1 0 1 0 1 0

>  <DIFUSE_FUNC_ATOM>  (3275) 
n/a

>  <FINAL_SINGLE_POINT_ENERGY>  (3275) 
0

>  <NONCOV_INTER_ENERGY_QM>  (3275) 
0

>  <FF_Energy>  (3275) 
-5.84

>  <QM_Energy>  (3275) 
-12.56

>  <source>  (3275) 
ETAM_MBZ

>  <Index>  (3275) 
35880

$$$$
ETAM-pdb6oq7-A-LYS-536:MBZ-pdb6oq7-A-PHE-532
     RDKit          3D

 26 25  0  0  0  0  0  0  0  0999 V2000
   -0.1164   -1.8859    3.0857 C   0  0  0  0  0  0  0  0  0  0  0  0
   -0.2642   -2.2738    2.1659 H   0  0  0  0  0  0  0  0  0  0  0  0
    0.1576   -0.9213    2.9791 H   0  0  0  0  0  0  0  0  0  0  0  0
   -1.0547   -1.9261    3.6390 H   0  0  0  0  0  0  0  0  0  0  0  0
    1.0248   -2.6346    3.7391 C   0  0  0  0  0  0  0  0  0  0  0  0
    1.2714   -2.1720    4.5943 H   0  0  0  0  0  0  0  0  0  0  0  0
    0.7250   -3.5684    3.9504 H   0  0  0  0  0  0  0  0  0  0  0  0
    2.2119   -2.6918    2.8544 N   0  0  0  0  0  4  0  0  0  0  0  0
    1.9842   -2.2993    1.9618 H   0  0  0  0  0  0  0  0  0  0  0  0
    2.9611   -2.1699    3.2646 H   0  0  0  0  0  0  0  0  0  0  0  0
    2.4955   -3.6445    2.7365 H   0  0  0  0  0  0  0  0  0  0  0  0
   -0.0024    2.9078   -0.0009 C   0  0  0  0  0  0  0  0  0  0  0  0
   -0.4212    3.2113   -0.8440 H   0  0  0  0  0  0  0  0  0  0  0  0
    0.9363    3.2132    0.0630 H   0  0  0  0  0  0  0  0  0  0  0  0
   -0.5557    3.3507    0.8272 H   0  0  0  0  0  0  0  0  0  0  0  0
   -0.0005    1.4020   -0.0009 C   0  0  0  0  0  0  0  0  0  0  0  0
   -1.1929    0.6877    0.0013 C   0  0  0  0  0  0  0  0  0  0  0  0
   -2.0618    1.1745    0.0024 H   0  0  0  0  0  0  0  0  0  0  0  0
   -1.1918   -0.7011    0.0000 C   0  0  0  0  0  0  0  0  0  0  0  0
   -2.0716   -1.1949    0.0067 H   0  0  0  0  0  0  0  0  0  0  0  0
    0.0004   -1.3883   -0.0081 C   0  0  0  0  0  0  0  0  0  0  0  0
    0.0007   -2.3899   -0.0205 H   0  0  0  0  0  0  0  0  0  0  0  0
    1.1918   -0.6934   -0.0000 C   0  0  0  0  0  0  0  0  0  0  0  0
    2.0778   -1.1925    0.0017 H   0  0  0  0  0  0  0  0  0  0  0  0
    1.1930    0.6930    0.0078 C   0  0  0  0  0  0  0  0  0  0  0  0
    2.0618    1.1878    0.0187 H   0  0  0  0  0  0  0  0  0  0  0  0
  1  5  1  0
  5  8  1  0
  1  2  1  0
  1  3  1  0
  1  4  1  0
  5  6  1  0
  5  7  1  0
  8  9  1  0
  8 10  1  0
  8 11  1  0
 12 16  1  0
 16 17  2  0
 17 19  1  0
 19 21  2  0
 21 23  1  0
 23 25  2  0
 25 16  1  0
 12 13  1  0
 12 14  1  0
 12 15  1  0
 17 18  1  0
 19 20  1  0
 21 22  1  0
 23 24  1  0
 25 26  1  0
M  CHG  1   8   1
M  END
>  <PDB_ID>  (3276) 
pdb6oq7

>  <RESIDUE_NAME>  (3276) 
LYS   PHE

>  <FRAG_NAME>  (3276) 
ETAM   MBZ

>  <FRAG_ATOM_NUM>  (3276) 
fragi: 11  fragj: 15

>  <atom.prop.CHAIN_ID>  (3276) 
A A A A A A A A A A A Z Z Z Z Z Z Z Z Z Z Z Z Z Z Z

>  <atom.prop.IS_HEAVY_ATOM>  (3276) 
1 0 0 0 1 0 0 1 0 0 0 1 0 0 0 1 1 0 1 0 1 0 1 0 1 0

>  <DIFUSE_FUNC_ATOM>  (3276) 
n/a

>  <FINAL_SINGLE_POINT_ENERGY>  (3276) 
0

>  <NONCOV_INTER_ENERGY_QM>  (3276) 
0

>  <FF_Energy>  (3276) 
0.21

>  <QM_Energy>  (3276) 
-6.58

>  <source>  (3276) 
ETAM_MBZ

>  <Index>  (3276) 
35884

$$$$
ETAM-pdb6ox6-A-LYS-334:MBZ-pdb6ox6-B-PHE-61
     RDKit          3D

 26 25  0  0  0  0  0  0  0  0999 V2000
    0.4932    2.4828    3.7871 C   0  0  0  0  0  0  0  0  0  0  0  0
   -0.0115    2.2751    2.9597 H   0  0  0  0  0  0  0  0  0  0  0  0
    0.7803    3.4316    3.7972 H   0  0  0  0  0  0  0  0  0  0  0  0
   -0.1499    2.2991    4.6478 H   0  0  0  0  0  0  0  0  0  0  0  0
    1.7401    1.5975    3.8304 C   0  0  0  0  0  0  0  0  0  0  0  0
    2.4811    2.0609    3.3431 H   0  0  0  0  0  0  0  0  0  0  0  0
    2.0053    1.4604    4.7851 H   0  0  0  0  0  0  0  0  0  0  0  0
    1.4884    0.2702    3.1951 N   0  0  0  0  0  4  0  0  0  0  0  0
    0.6778   -0.1439    3.6069 H   0  0  0  0  0  0  0  0  0  0  0  0
    1.3407    0.3964    2.2151 H   0  0  0  0  0  0  0  0  0  0  0  0
    2.2804   -0.3204    3.3423 H   0  0  0  0  0  0  0  0  0  0  0  0
    0.0055    2.9304    0.0237 C   0  0  0  0  0  0  0  0  0  0  0  0
    0.9441    3.2292   -0.0190 H   0  0  0  0  0  0  0  0  0  0  0  0
   -0.4320    3.2159    0.8595 H   0  0  0  0  0  0  0  0  0  0  0  0
   -0.5308    3.3850   -0.8093 H   0  0  0  0  0  0  0  0  0  0  0  0
    0.0029    1.4102   -0.0029 C   0  0  0  0  0  0  0  0  0  0  0  0
   -1.1996    0.7024    0.0106 C   0  0  0  0  0  0  0  0  0  0  0  0
   -2.0634    1.1933    0.0267 H   0  0  0  0  0  0  0  0  0  0  0  0
   -1.2068   -0.6940    0.0000 C   0  0  0  0  0  0  0  0  0  0  0  0
   -2.0821   -1.1871    0.0041 H   0  0  0  0  0  0  0  0  0  0  0  0
    0.0016   -1.4043   -0.0148 C   0  0  0  0  0  0  0  0  0  0  0  0
   -0.0138   -2.3999   -0.0360 H   0  0  0  0  0  0  0  0  0  0  0  0
    1.2068   -0.7132    0.0000 C   0  0  0  0  0  0  0  0  0  0  0  0
    2.0859   -1.1990    0.0077 H   0  0  0  0  0  0  0  0  0  0  0  0
    1.1951    0.6988    0.0070 C   0  0  0  0  0  0  0  0  0  0  0  0
    2.0688    1.1868    0.0189 H   0  0  0  0  0  0  0  0  0  0  0  0
  1  5  1  0
  5  8  1  0
  1  2  1  0
  1  3  1  0
  1  4  1  0
  5  6  1  0
  5  7  1  0
  8  9  1  0
  8 10  1  0
  8 11  1  0
 12 16  1  0
 16 17  2  0
 17 19  1  0
 19 21  2  0
 21 23  1  0
 23 25  2  0
 25 16  1  0
 12 13  1  0
 12 14  1  0
 12 15  1  0
 17 18  1  0
 19 20  1  0
 21 22  1  0
 23 24  1  0
 25 26  1  0
M  CHG  1   8   1
M  END
>  <PDB_ID>  (3277) 
pdb6ox6

>  <RESIDUE_NAME>  (3277) 
LYS   PHE

>  <FRAG_NAME>  (3277) 
ETAM   MBZ

>  <FRAG_ATOM_NUM>  (3277) 
fragi: 11  fragj: 15

>  <atom.prop.CHAIN_ID>  (3277) 
A A A A A A A A A A A Z Z Z Z Z Z Z Z Z Z Z Z Z Z Z

>  <atom.prop.IS_HEAVY_ATOM>  (3277) 
1 0 0 0 1 0 0 1 0 0 0 1 0 0 0 1 1 0 1 0 1 0 1 0 1 0

>  <DIFUSE_FUNC_ATOM>  (3277) 
n/a

>  <FINAL_SINGLE_POINT_ENERGY>  (3277) 
0

>  <NONCOV_INTER_ENERGY_QM>  (3277) 
0

>  <FF_Energy>  (3277) 
-7.78

>  <QM_Energy>  (3277) 
-15.18

>  <source>  (3277) 
ETAM_MBZ

>  <Index>  (3277) 
35893

$$$$
ETAM-pdb5lkb-B-LYS-364:MBZ-pdb5lkb-A-PHE-309
     RDKit          3D

 26 25  0  0  0  0  0  0  0  0999 V2000
    0.6254    0.8844    3.8170 C   0  0  0  0  0  0  0  0  0  0  0  0
    1.1206    1.1225    3.0170 H   0  0  0  0  0  0  0  0  0  0  0  0
    1.2207    0.8529    4.5817 H   0  0  0  0  0  0  0  0  0  0  0  0
   -0.1481    1.6318    3.9940 H   0  0  0  0  0  0  0  0  0  0  0  0
    0.0382   -0.5012    3.6155 C   0  0  0  0  0  0  0  0  0  0  0  0
   -0.4510   -0.7492    4.4160 H   0  0  0  0  0  0  0  0  0  0  0  0
   -0.5669   -0.4750    2.8579 H   0  0  0  0  0  0  0  0  0  0  0  0
    1.0756   -1.5969    3.3455 N   0  0  0  0  0  4  0  0  0  0  0  0
    0.6679   -2.3814    3.2372 H   0  0  0  0  0  0  0  0  0  0  0  0
    1.5351   -1.4065    2.6081 H   0  0  0  0  0  0  0  0  0  0  0  0
    1.6401   -1.6565    4.0308 H   0  0  0  0  0  0  0  0  0  0  0  0
    0.0183    2.9706   -0.0358 C   0  0  0  0  0  0  0  0  0  0  0  0
    0.3704    3.2370   -0.8994 H   0  0  0  0  0  0  0  0  0  0  0  0
    0.6302    3.2543    0.6615 H   0  0  0  0  0  0  0  0  0  0  0  0
   -0.9336    3.4790    0.1176 H   0  0  0  0  0  0  0  0  0  0  0  0
   -0.0200    1.4208   -0.0118 C   0  0  0  0  0  0  0  0  0  0  0  0
   -1.2052    0.6755    0.0440 C   0  0  0  0  0  0  0  0  0  0  0  0
   -2.0217    1.1202    0.0206 H   0  0  0  0  0  0  0  0  0  0  0  0
   -1.1882   -0.7399   -0.0000 C   0  0  0  0  0  0  0  0  0  0  0  0
   -1.9812   -1.2255    0.0298 H   0  0  0  0  0  0  0  0  0  0  0  0
    0.0315   -1.3848   -0.0166 C   0  0  0  0  0  0  0  0  0  0  0  0
    0.0635   -2.3149    0.0018 H   0  0  0  0  0  0  0  0  0  0  0  0
    1.1882   -0.6693    0.0000 C   0  0  0  0  0  0  0  0  0  0  0  0
    1.9994   -1.1236   -0.0232 H   0  0  0  0  0  0  0  0  0  0  0  0
    1.1936    0.6977   -0.0156 C   0  0  0  0  0  0  0  0  0  0  0  0
    2.0028    1.1552   -0.0368 H   0  0  0  0  0  0  0  0  0  0  0  0
  1  5  1  0
  5  8  1  0
  1  2  1  0
  1  3  1  0
  1  4  1  0
  5  6  1  0
  5  7  1  0
  8  9  1  0
  8 10  1  0
  8 11  1  0
 12 16  1  0
 16 17  2  0
 17 19  1  0
 19 21  2  0
 21 23  1  0
 23 25  2  0
 25 16  1  0
 12 13  1  0
 12 14  1  0
 12 15  1  0
 17 18  1  0
 19 20  1  0
 21 22  1  0
 23 24  1  0
 25 26  1  0
M  CHG  1   8   1
M  END
>  <PDB_ID>  (3278) 
pdb5lkb

>  <RESIDUE_NAME>  (3278) 
LYS   PHE

>  <FRAG_NAME>  (3278) 
ETAM   MBZ

>  <FRAG_ATOM_NUM>  (3278) 
fragi: 11  fragj: 15

>  <atom.prop.CHAIN_ID>  (3278) 
A A A A A A A A A A A Z Z Z Z Z Z Z Z Z Z Z Z Z Z Z

>  <atom.prop.IS_HEAVY_ATOM>  (3278) 
1 0 0 0 1 0 0 1 0 0 0 1 0 0 0 1 1 0 1 0 1 0 1 0 1 0

>  <DIFUSE_FUNC_ATOM>  (3278) 
n/a

>  <FINAL_SINGLE_POINT_ENERGY>  (3278) 
0

>  <NONCOV_INTER_ENERGY_QM>  (3278) 
0

>  <FF_Energy>  (3278) 
-6.25

>  <QM_Energy>  (3278) 
-13.05

>  <source>  (3278) 
ETAM_MBZ

>  <Index>  (3278) 
35909

$$$$
ETAM-pdb6p17-B-LYS-106:MBZ-pdb6p17-B-PHE-62
     RDKit          3D

 26 25  0  0  0  0  0  0  0  0999 V2000
    0.1678    2.0648    4.0532 C   0  0  0  0  0  0  0  0  0  0  0  0
    0.6285    2.1873    3.1807 H   0  0  0  0  0  0  0  0  0  0  0  0
    0.8189    2.1188    4.8018 H   0  0  0  0  0  0  0  0  0  0  0  0
   -0.5722    2.8562    4.1730 H   0  0  0  0  0  0  0  0  0  0  0  0
   -0.4820    0.6888    4.0720 C   0  0  0  0  0  0  0  0  0  0  0  0
   -0.8236    0.5019    4.9961 H   0  0  0  0  0  0  0  0  0  0  0  0
   -1.2543    0.6842    3.4323 H   0  0  0  0  0  0  0  0  0  0  0  0
    0.4793   -0.3878    3.6821 N   0  0  0  0  0  4  0  0  0  0  0  0
   -0.0199   -1.1271    3.2337 H   0  0  0  0  0  0  0  0  0  0  0  0
    1.1577   -0.0101    3.0541 H   0  0  0  0  0  0  0  0  0  0  0  0
    0.9329   -0.7349    4.5007 H   0  0  0  0  0  0  0  0  0  0  0  0
    0.0358    2.8934    0.0158 C   0  0  0  0  0  0  0  0  0  0  0  0
    0.8461    3.1874   -0.4782 H   0  0  0  0  0  0  0  0  0  0  0  0
    0.0782    3.1870    0.9633 H   0  0  0  0  0  0  0  0  0  0  0  0
   -0.8281    3.3735   -0.4439 H   0  0  0  0  0  0  0  0  0  0  0  0
    0.0031    1.3937   -0.0017 C   0  0  0  0  0  0  0  0  0  0  0  0
   -1.1883    0.6999    0.0035 C   0  0  0  0  0  0  0  0  0  0  0  0
   -2.0557    1.1882    0.0089 H   0  0  0  0  0  0  0  0  0  0  0  0
   -1.1934   -0.6915    0.0000 C   0  0  0  0  0  0  0  0  0  0  0  0
   -2.0782   -1.1780   -0.0001 H   0  0  0  0  0  0  0  0  0  0  0  0
   -0.0087   -1.3838   -0.0010 C   0  0  0  0  0  0  0  0  0  0  0  0
   -0.0111   -2.3869   -0.0030 H   0  0  0  0  0  0  0  0  0  0  0  0
    1.1934   -0.6960    0.0000 C   0  0  0  0  0  0  0  0  0  0  0  0
    2.0709   -1.2047    0.0026 H   0  0  0  0  0  0  0  0  0  0  0  0
    1.1940    0.6777   -0.0008 C   0  0  0  0  0  0  0  0  0  0  0  0
    2.0650    1.1786   -0.0014 H   0  0  0  0  0  0  0  0  0  0  0  0
  1  5  1  0
  5  8  1  0
  1  2  1  0
  1  3  1  0
  1  4  1  0
  5  6  1  0
  5  7  1  0
  8  9  1  0
  8 10  1  0
  8 11  1  0
 12 16  1  0
 16 17  2  0
 17 19  1  0
 19 21  2  0
 21 23  1  0
 23 25  2  0
 25 16  1  0
 12 13  1  0
 12 14  1  0
 12 15  1  0
 17 18  1  0
 19 20  1  0
 21 22  1  0
 23 24  1  0
 25 26  1  0
M  CHG  1   8   1
M  END
>  <PDB_ID>  (3279) 
pdb6p17

>  <RESIDUE_NAME>  (3279) 
LYS   PHE

>  <FRAG_NAME>  (3279) 
ETAM   MBZ

>  <FRAG_ATOM_NUM>  (3279) 
fragi: 11  fragj: 15

>  <atom.prop.CHAIN_ID>  (3279) 
A A A A A A A A A A A Z Z Z Z Z Z Z Z Z Z Z Z Z Z Z

>  <atom.prop.IS_HEAVY_ATOM>  (3279) 
1 0 0 0 1 0 0 1 0 0 0 1 0 0 0 1 1 0 1 0 1 0 1 0 1 0

>  <DIFUSE_FUNC_ATOM>  (3279) 
n/a

>  <FINAL_SINGLE_POINT_ENERGY>  (3279) 
0

>  <NONCOV_INTER_ENERGY_QM>  (3279) 
0

>  <FF_Energy>  (3279) 
-7.56

>  <QM_Energy>  (3279) 
-12.66

>  <source>  (3279) 
ETAM_MBZ

>  <Index>  (3279) 
35915

$$$$
ETAM-pdb5knl-A-LYS-326:MBZ-pdb5knl-A-PHE-322
     RDKit          3D

 26 25  0  0  0  0  0  0  0  0999 V2000
    0.9888   -1.0326    4.6387 C   0  0  0  0  0  0  0  0  0  0  0  0
    1.3484   -0.1354    4.5490 H   0  0  0  0  0  0  0  0  0  0  0  0
    1.4262   -1.4987    5.3677 H   0  0  0  0  0  0  0  0  0  0  0  0
   -0.0813   -0.9739    4.8378 H   0  0  0  0  0  0  0  0  0  0  0  0
    1.2659   -1.7884    3.3535 C   0  0  0  0  0  0  0  0  0  0  0  0
    0.9969   -2.7143    3.4663 H   0  0  0  0  0  0  0  0  0  0  0  0
    0.7636   -1.3815    2.6306 H   0  0  0  0  0  0  0  0  0  0  0  0
    2.7080   -1.7681    2.9824 N   0  0  0  0  0  4  0  0  0  0  0  0
    2.8341   -2.2201    2.2262 H   0  0  0  0  0  0  0  0  0  0  0  0
    2.9805   -0.9279    2.8665 H   0  0  0  0  0  0  0  0  0  0  0  0
    3.1944   -2.1427    3.6275 H   0  0  0  0  0  0  0  0  0  0  0  0
    0.0046    2.8943   -0.0056 C   0  0  0  0  0  0  0  0  0  0  0  0
   -0.2743    3.1860   -0.8877 H   0  0  0  0  0  0  0  0  0  0  0  0
    0.9137    3.1880    0.1654 H   0  0  0  0  0  0  0  0  0  0  0  0
   -0.6545    3.3437    0.7372 H   0  0  0  0  0  0  0  0  0  0  0  0
    0.0002    1.3936    0.0024 C   0  0  0  0  0  0  0  0  0  0  0  0
   -1.1910    0.6891   -0.0018 C   0  0  0  0  0  0  0  0  0  0  0  0
   -1.9978    1.1505   -0.0011 H   0  0  0  0  0  0  0  0  0  0  0  0
   -1.1945   -0.6922   -0.0000 C   0  0  0  0  0  0  0  0  0  0  0  0
   -2.0012   -1.1559    0.0000 H   0  0  0  0  0  0  0  0  0  0  0  0
    0.0004   -1.3841   -0.0000 C   0  0  0  0  0  0  0  0  0  0  0  0
   -0.0000   -2.3151    0.0018 H   0  0  0  0  0  0  0  0  0  0  0  0
    1.1945   -0.6937    0.0000 C   0  0  0  0  0  0  0  0  0  0  0  0
    2.0005   -1.1570    0.0007 H   0  0  0  0  0  0  0  0  0  0  0  0
    1.1904    0.6874   -0.0006 C   0  0  0  0  0  0  0  0  0  0  0  0
    1.9982    1.1488   -0.0009 H   0  0  0  0  0  0  0  0  0  0  0  0
  1  5  1  0
  5  8  1  0
  1  2  1  0
  1  3  1  0
  1  4  1  0
  5  6  1  0
  5  7  1  0
  8  9  1  0
  8 10  1  0
  8 11  1  0
 12 16  1  0
 16 17  2  0
 17 19  1  0
 19 21  2  0
 21 23  1  0
 23 25  2  0
 25 16  1  0
 12 13  1  0
 12 14  1  0
 12 15  1  0
 17 18  1  0
 19 20  1  0
 21 22  1  0
 23 24  1  0
 25 26  1  0
M  CHG  1   8   1
M  END
>  <PDB_ID>  (3280) 
pdb5knl

>  <RESIDUE_NAME>  (3280) 
LYS   PHE

>  <FRAG_NAME>  (3280) 
ETAM   MBZ

>  <FRAG_ATOM_NUM>  (3280) 
fragi: 11  fragj: 15

>  <atom.prop.CHAIN_ID>  (3280) 
A A A A A A A A A A A Z Z Z Z Z Z Z Z Z Z Z Z Z Z Z

>  <atom.prop.IS_HEAVY_ATOM>  (3280) 
1 0 0 0 1 0 0 1 0 0 0 1 0 0 0 1 1 0 1 0 1 0 1 0 1 0

>  <DIFUSE_FUNC_ATOM>  (3280) 
n/a

>  <FINAL_SINGLE_POINT_ENERGY>  (3280) 
0

>  <NONCOV_INTER_ENERGY_QM>  (3280) 
0

>  <FF_Energy>  (3280) 
-2.61

>  <QM_Energy>  (3280) 
-8.06

>  <source>  (3280) 
ETAM_MBZ

>  <Index>  (3280) 
35920

$$$$
ETAM-pdb5lkb-A-LYS-364:MBZ-pdb5lkb-B-PHE-309
     RDKit          3D

 26 25  0  0  0  0  0  0  0  0999 V2000
    0.5116    0.6765    3.7224 C   0  0  0  0  0  0  0  0  0  0  0  0
    0.9266    0.9591    2.8919 H   0  0  0  0  0  0  0  0  0  0  0  0
    1.1773    0.5995    4.4236 H   0  0  0  0  0  0  0  0  0  0  0  0
   -0.2433    1.4053    4.0172 H   0  0  0  0  0  0  0  0  0  0  0  0
   -0.1184   -0.6929    3.5037 C   0  0  0  0  0  0  0  0  0  0  0  0
   -0.6515   -0.9255    4.2800 H   0  0  0  0  0  0  0  0  0  0  0  0
   -0.6779   -0.6627    2.7118 H   0  0  0  0  0  0  0  0  0  0  0  0
    0.9679   -1.8240    3.2956 N   0  0  0  0  0  4  0  0  0  0  0  0
    0.5690   -2.6090    3.1709 H   0  0  0  0  0  0  0  0  0  0  0  0
    1.4686   -1.6370    2.5843 H   0  0  0  0  0  0  0  0  0  0  0  0
    1.4924   -1.8763    4.0126 H   0  0  0  0  0  0  0  0  0  0  0  0
    0.0207    2.9062   -0.0069 C   0  0  0  0  0  0  0  0  0  0  0  0
    0.3993    3.1801   -0.8575 H   0  0  0  0  0  0  0  0  0  0  0  0
    0.6116    3.1828    0.7112 H   0  0  0  0  0  0  0  0  0  0  0  0
   -0.9335    3.4172    0.1209 H   0  0  0  0  0  0  0  0  0  0  0  0
   -0.0162    1.4112    0.0001 C   0  0  0  0  0  0  0  0  0  0  0  0
   -1.1785    0.6818    0.0236 C   0  0  0  0  0  0  0  0  0  0  0  0
   -1.9930    1.1326    0.0190 H   0  0  0  0  0  0  0  0  0  0  0  0
   -1.1793   -0.7105   -0.0000 C   0  0  0  0  0  0  0  0  0  0  0  0
   -1.9860   -1.1729    0.0185 H   0  0  0  0  0  0  0  0  0  0  0  0
    0.0176   -1.4087   -0.0058 C   0  0  0  0  0  0  0  0  0  0  0  0
    0.0299   -2.3387   -0.0021 H   0  0  0  0  0  0  0  0  0  0  0  0
    1.1793   -0.6875   -0.0000 C   0  0  0  0  0  0  0  0  0  0  0  0
    1.9922   -1.1386   -0.0187 H   0  0  0  0  0  0  0  0  0  0  0  0
    1.1772    0.7138   -0.0179 C   0  0  0  0  0  0  0  0  0  0  0  0
    1.9831    1.1772   -0.0201 H   0  0  0  0  0  0  0  0  0  0  0  0
  1  5  1  0
  5  8  1  0
  1  2  1  0
  1  3  1  0
  1  4  1  0
  5  6  1  0
  5  7  1  0
  8  9  1  0
  8 10  1  0
  8 11  1  0
 12 16  1  0
 16 17  2  0
 17 19  1  0
 19 21  2  0
 21 23  1  0
 23 25  2  0
 25 16  1  0
 12 13  1  0
 12 14  1  0
 12 15  1  0
 17 18  1  0
 19 20  1  0
 21 22  1  0
 23 24  1  0
 25 26  1  0
M  CHG  1   8   1
M  END
>  <PDB_ID>  (3281) 
pdb5lkb

>  <RESIDUE_NAME>  (3281) 
LYS   PHE

>  <FRAG_NAME>  (3281) 
ETAM   MBZ

>  <FRAG_ATOM_NUM>  (3281) 
fragi: 11  fragj: 15

>  <atom.prop.CHAIN_ID>  (3281) 
A A A A A A A A A A A Z Z Z Z Z Z Z Z Z Z Z Z Z Z Z

>  <atom.prop.IS_HEAVY_ATOM>  (3281) 
1 0 0 0 1 0 0 1 0 0 0 1 0 0 0 1 1 0 1 0 1 0 1 0 1 0

>  <DIFUSE_FUNC_ATOM>  (3281) 
n/a

>  <FINAL_SINGLE_POINT_ENERGY>  (3281) 
0

>  <NONCOV_INTER_ENERGY_QM>  (3281) 
0

>  <FF_Energy>  (3281) 
-5.86

>  <QM_Energy>  (3281) 
-12.81

>  <source>  (3281) 
ETAM_MBZ

>  <Index>  (3281) 
35946

$$$$
ETAM-pdb5ltu-B-LYS-142:MBZ-pdb5ltu-B-PHE-84
     RDKit          3D

 26 25  0  0  0  0  0  0  0  0999 V2000
    2.5706   -3.0531    1.6466 C   0  0  0  0  0  0  0  0  0  0  0  0
    3.1550   -2.5327    2.2723 H   0  0  0  0  0  0  0  0  0  0  0  0
    2.3057   -2.4683    0.8790 H   0  0  0  0  0  0  0  0  0  0  0  0
    3.1368   -3.9016    1.2625 H   0  0  0  0  0  0  0  0  0  0  0  0
    1.3223   -3.4730    2.3891 C   0  0  0  0  0  0  0  0  0  0  0  0
    0.7304   -3.9893    1.7691 H   0  0  0  0  0  0  0  0  0  0  0  0
    1.5797   -4.0537    3.1624 H   0  0  0  0  0  0  0  0  0  0  0  0
    0.5865   -2.2866    2.8928 N   0  0  0  0  0  4  0  0  0  0  0  0
   -0.3929   -2.4085    2.7308 H   0  0  0  0  0  0  0  0  0  0  0  0
    0.7522   -2.1830    3.8736 H   0  0  0  0  0  0  0  0  0  0  0  0
    0.9040   -1.4679    2.4135 H   0  0  0  0  0  0  0  0  0  0  0  0
    0.0004    2.8940    0.0107 C   0  0  0  0  0  0  0  0  0  0  0  0
   -0.7049    3.2095   -0.6040 H   0  0  0  0  0  0  0  0  0  0  0  0
    0.8936    3.2045   -0.2723 H   0  0  0  0  0  0  0  0  0  0  0  0
   -0.2023    3.3149    0.9955 H   0  0  0  0  0  0  0  0  0  0  0  0
    0.0005    1.3918   -0.0093 C   0  0  0  0  0  0  0  0  0  0  0  0
   -1.1892    0.6850    0.0079 C   0  0  0  0  0  0  0  0  0  0  0  0
   -2.0584    1.1788    0.0240 H   0  0  0  0  0  0  0  0  0  0  0  0
   -1.1934   -0.6920    0.0000 C   0  0  0  0  0  0  0  0  0  0  0  0
   -2.0724   -1.1898   -0.0035 H   0  0  0  0  0  0  0  0  0  0  0  0
    0.0005   -1.3840   -0.0003 C   0  0  0  0  0  0  0  0  0  0  0  0
   -0.0031   -2.3854   -0.0012 H   0  0  0  0  0  0  0  0  0  0  0  0
    1.1934   -0.6900    0.0000 C   0  0  0  0  0  0  0  0  0  0  0  0
    2.0776   -1.1904    0.0000 H   0  0  0  0  0  0  0  0  0  0  0  0
    1.1883    0.6891    0.0017 C   0  0  0  0  0  0  0  0  0  0  0  0
    2.0591    1.1879    0.0104 H   0  0  0  0  0  0  0  0  0  0  0  0
  1  5  1  0
  5  8  1  0
  1  2  1  0
  1  3  1  0
  1  4  1  0
  5  6  1  0
  5  7  1  0
  8  9  1  0
  8 10  1  0
  8 11  1  0
 12 16  1  0
 16 17  2  0
 17 19  1  0
 19 21  2  0
 21 23  1  0
 23 25  2  0
 25 16  1  0
 12 13  1  0
 12 14  1  0
 12 15  1  0
 17 18  1  0
 19 20  1  0
 21 22  1  0
 23 24  1  0
 25 26  1  0
M  CHG  1   8   1
M  END
>  <PDB_ID>  (3282) 
pdb5ltu

>  <RESIDUE_NAME>  (3282) 
LYS   PHE

>  <FRAG_NAME>  (3282) 
ETAM   MBZ

>  <FRAG_ATOM_NUM>  (3282) 
fragi: 11  fragj: 15

>  <atom.prop.CHAIN_ID>  (3282) 
A A A A A A A A A A A Z Z Z Z Z Z Z Z Z Z Z Z Z Z Z

>  <atom.prop.IS_HEAVY_ATOM>  (3282) 
1 0 0 0 1 0 0 1 0 0 0 1 0 0 0 1 1 0 1 0 1 0 1 0 1 0

>  <DIFUSE_FUNC_ATOM>  (3282) 
n/a

>  <FINAL_SINGLE_POINT_ENERGY>  (3282) 
0

>  <NONCOV_INTER_ENERGY_QM>  (3282) 
0

>  <FF_Energy>  (3282) 
17.95

>  <QM_Energy>  (3282) 
-6.89

>  <source>  (3282) 
ETAM_MBZ

>  <Index>  (3282) 
35952

$$$$
ETAM-pdb6pc0-A-LYS-231:MBZ-pdb6pc0-A-PHE-215
     RDKit          3D

 26 25  0  0  0  0  0  0  0  0999 V2000
    0.6268   -4.6715    3.5262 C   0  0  0  0  0  0  0  0  0  0  0  0
    0.7340   -4.4246    4.4810 H   0  0  0  0  0  0  0  0  0  0  0  0
    1.4074   -4.3673    2.9946 H   0  0  0  0  0  0  0  0  0  0  0  0
    0.5444   -5.7556    3.4480 H   0  0  0  0  0  0  0  0  0  0  0  0
   -0.6245   -3.9859    2.9853 C   0  0  0  0  0  0  0  0  0  0  0  0
   -0.8267   -4.3548    2.0750 H   0  0  0  0  0  0  0  0  0  0  0  0
   -1.3945   -4.1886    3.5968 H   0  0  0  0  0  0  0  0  0  0  0  0
   -0.4522   -2.5096    2.8886 N   0  0  0  0  0  4  0  0  0  0  0  0
   -0.7355   -2.0858    3.7482 H   0  0  0  0  0  0  0  0  0  0  0  0
    0.5087   -2.2998    2.7123 H   0  0  0  0  0  0  0  0  0  0  0  0
   -1.0155   -2.1592    2.1408 H   0  0  0  0  0  0  0  0  0  0  0  0
   -0.0039    2.8964   -0.0057 C   0  0  0  0  0  0  0  0  0  0  0  0
    0.7443    3.2042   -0.5734 H   0  0  0  0  0  0  0  0  0  0  0  0
    0.0997    3.2084    0.9268 H   0  0  0  0  0  0  0  0  0  0  0  0
   -0.9220    3.3308   -0.4012 H   0  0  0  0  0  0  0  0  0  0  0  0
    0.0003    1.3968    0.0003 C   0  0  0  0  0  0  0  0  0  0  0  0
   -1.1943    0.6898    0.0001 C   0  0  0  0  0  0  0  0  0  0  0  0
   -2.0610    1.1831   -0.0014 H   0  0  0  0  0  0  0  0  0  0  0  0
   -1.1989   -0.6938   -0.0000 C   0  0  0  0  0  0  0  0  0  0  0  0
   -2.0756   -1.1910    0.0008 H   0  0  0  0  0  0  0  0  0  0  0  0
    0.0013   -1.3884    0.0005 C   0  0  0  0  0  0  0  0  0  0  0  0
   -0.0043   -2.3885    0.0001 H   0  0  0  0  0  0  0  0  0  0  0  0
    1.1989   -0.6954    0.0000 C   0  0  0  0  0  0  0  0  0  0  0  0
    2.0810   -1.1934    0.0023 H   0  0  0  0  0  0  0  0  0  0  0  0
    1.1927    0.6911   -0.0008 C   0  0  0  0  0  0  0  0  0  0  0  0
    2.0623    1.1893   -0.0031 H   0  0  0  0  0  0  0  0  0  0  0  0
  1  5  1  0
  5  8  1  0
  1  2  1  0
  1  3  1  0
  1  4  1  0
  5  6  1  0
  5  7  1  0
  8  9  1  0
  8 10  1  0
  8 11  1  0
 12 16  1  0
 16 17  2  0
 17 19  1  0
 19 21  2  0
 21 23  1  0
 23 25  2  0
 25 16  1  0
 12 13  1  0
 12 14  1  0
 12 15  1  0
 17 18  1  0
 19 20  1  0
 21 22  1  0
 23 24  1  0
 25 26  1  0
M  CHG  1   8   1
M  END
>  <PDB_ID>  (3283) 
pdb6pc0

>  <RESIDUE_NAME>  (3283) 
LYS   PHE

>  <FRAG_NAME>  (3283) 
ETAM   MBZ

>  <FRAG_ATOM_NUM>  (3283) 
fragi: 11  fragj: 15

>  <atom.prop.CHAIN_ID>  (3283) 
A A A A A A A A A A A Z Z Z Z Z Z Z Z Z Z Z Z Z Z Z

>  <atom.prop.IS_HEAVY_ATOM>  (3283) 
1 0 0 0 1 0 0 1 0 0 0 1 0 0 0 1 1 0 1 0 1 0 1 0 1 0

>  <DIFUSE_FUNC_ATOM>  (3283) 
n/a

>  <FINAL_SINGLE_POINT_ENERGY>  (3283) 
0

>  <NONCOV_INTER_ENERGY_QM>  (3283) 
0

>  <FF_Energy>  (3283) 
-3.54

>  <QM_Energy>  (3283) 
-10.86

>  <source>  (3283) 
ETAM_MBZ

>  <Index>  (3283) 
35956

$$$$
ETAM-pdb6oqq-B-LYS-22:MBZ-pdb6oqq-A-PHE-763
     RDKit          3D

 26 25  0  0  0  0  0  0  0  0999 V2000
    1.2096   -0.0277    4.3621 C   0  0  0  0  0  0  0  0  0  0  0  0
    1.8616    0.5813    3.9818 H   0  0  0  0  0  0  0  0  0  0  0  0
    1.2327   -0.8757    3.8916 H   0  0  0  0  0  0  0  0  0  0  0  0
    1.4321   -0.1896    5.4169 H   0  0  0  0  0  0  0  0  0  0  0  0
   -0.1732    0.5804    4.1967 C   0  0  0  0  0  0  0  0  0  0  0  0
   -0.7164    0.3530    4.9679 H   0  0  0  0  0  0  0  0  0  0  0  0
   -0.0923    1.5437    4.1198 H   0  0  0  0  0  0  0  0  0  0  0  0
   -0.8544    0.0739    2.9846 N   0  0  0  0  0  4  0  0  0  0  0  0
   -1.5346    0.6063    2.7724 H   0  0  0  0  0  0  0  0  0  0  0  0
   -0.2837    0.0496    2.3021 H   0  0  0  0  0  0  0  0  0  0  0  0
   -1.1658   -0.7480    3.1299 H   0  0  0  0  0  0  0  0  0  0  0  0
   -0.0098    2.8919   -0.0110 C   0  0  0  0  0  0  0  0  0  0  0  0
    0.9088    3.1967    0.0443 H   0  0  0  0  0  0  0  0  0  0  0  0
   -0.5071    3.1919    0.7668 H   0  0  0  0  0  0  0  0  0  0  0  0
   -0.4675    3.3128   -0.9062 H   0  0  0  0  0  0  0  0  0  0  0  0
   -0.0001    1.3938   -0.0009 C   0  0  0  0  0  0  0  0  0  0  0  0
   -1.1917    0.6856   -0.0011 C   0  0  0  0  0  0  0  0  0  0  0  0
   -1.9999    1.1466   -0.0032 H   0  0  0  0  0  0  0  0  0  0  0  0
   -1.1954   -0.6944   -0.0000 C   0  0  0  0  0  0  0  0  0  0  0  0
   -2.0014   -1.1575   -0.0014 H   0  0  0  0  0  0  0  0  0  0  0  0
   -0.0022   -1.3837    0.0032 C   0  0  0  0  0  0  0  0  0  0  0  0
   -0.0030   -2.3140    0.0075 H   0  0  0  0  0  0  0  0  0  0  0  0
    1.1954   -0.6916   -0.0000 C   0  0  0  0  0  0  0  0  0  0  0  0
    2.0015   -1.1562   -0.0013 H   0  0  0  0  0  0  0  0  0  0  0  0
    1.1940    0.6903   -0.0012 C   0  0  0  0  0  0  0  0  0  0  0  0
    2.0014    1.1516   -0.0020 H   0  0  0  0  0  0  0  0  0  0  0  0
  1  5  1  0
  5  8  1  0
  1  2  1  0
  1  3  1  0
  1  4  1  0
  5  6  1  0
  5  7  1  0
  8  9  1  0
  8 10  1  0
  8 11  1  0
 12 16  1  0
 16 17  2  0
 17 19  1  0
 19 21  2  0
 21 23  1  0
 23 25  2  0
 25 16  1  0
 12 13  1  0
 12 14  1  0
 12 15  1  0
 17 18  1  0
 19 20  1  0
 21 22  1  0
 23 24  1  0
 25 26  1  0
M  CHG  1   8   1
M  END
>  <PDB_ID>  (3284) 
pdb6oqq

>  <RESIDUE_NAME>  (3284) 
LYS   PHE

>  <FRAG_NAME>  (3284) 
ETAM   MBZ

>  <FRAG_ATOM_NUM>  (3284) 
fragi: 11  fragj: 15

>  <atom.prop.CHAIN_ID>  (3284) 
A A A A A A A A A A A Z Z Z Z Z Z Z Z Z Z Z Z Z Z Z

>  <atom.prop.IS_HEAVY_ATOM>  (3284) 
1 0 0 0 1 0 0 1 0 0 0 1 0 0 0 1 1 0 1 0 1 0 1 0 1 0

>  <DIFUSE_FUNC_ATOM>  (3284) 
n/a

>  <FINAL_SINGLE_POINT_ENERGY>  (3284) 
0

>  <NONCOV_INTER_ENERGY_QM>  (3284) 
0

>  <FF_Energy>  (3284) 
-7.98

>  <QM_Energy>  (3284) 
-16.26

>  <source>  (3284) 
ETAM_MBZ

>  <Index>  (3284) 
35971

$$$$
ETAM-pdb5lv9-A-LYS-75:MBZ-pdb5lv9-A-PHE-94
     RDKit          3D

 26 25  0  0  0  0  0  0  0  0999 V2000
    3.2944   -4.2010   -0.0921 C   0  0  0  0  0  0  0  0  0  0  0  0
    3.7507   -5.0394    0.2140 H   0  0  0  0  0  0  0  0  0  0  0  0
    2.9440   -3.7078    0.7073 H   0  0  0  0  0  0  0  0  0  0  0  0
    4.0284   -3.5712   -0.5946 H   0  0  0  0  0  0  0  0  0  0  0  0
    2.1254   -4.5805   -0.9780 C   0  0  0  0  0  0  0  0  0  0  0  0
    2.4093   -5.3078   -1.5953 H   0  0  0  0  0  0  0  0  0  0  0  0
    1.3719   -4.8889   -0.4063 H   0  0  0  0  0  0  0  0  0  0  0  0
    1.7079   -3.4027   -1.7568 N   0  0  0  0  0  4  0  0  0  0  0  0
    1.8632   -3.5683   -2.7331 H   0  0  0  0  0  0  0  0  0  0  0  0
    0.7333   -3.2239   -1.6052 H   0  0  0  0  0  0  0  0  0  0  0  0
    2.2373   -2.6016   -1.4713 H   0  0  0  0  0  0  0  0  0  0  0  0
   -0.0060    2.8970   -0.0028 C   0  0  0  0  0  0  0  0  0  0  0  0
    0.9321    3.2081   -0.0322 H   0  0  0  0  0  0  0  0  0  0  0  0
   -0.4606    3.2032    0.8198 H   0  0  0  0  0  0  0  0  0  0  0  0
   -0.5280    3.3357   -0.8532 H   0  0  0  0  0  0  0  0  0  0  0  0
   -0.0012    1.3966   -0.0026 C   0  0  0  0  0  0  0  0  0  0  0  0
   -1.1939    0.6865    0.0007 C   0  0  0  0  0  0  0  0  0  0  0  0
   -2.0623    1.1780    0.0024 H   0  0  0  0  0  0  0  0  0  0  0  0
   -1.1993   -0.6992   -0.0000 C   0  0  0  0  0  0  0  0  0  0  0  0
   -2.0757   -1.1941   -0.0020 H   0  0  0  0  0  0  0  0  0  0  0  0
   -0.0006   -1.3894    0.0035 C   0  0  0  0  0  0  0  0  0  0  0  0
    0.0005   -2.3889    0.0082 H   0  0  0  0  0  0  0  0  0  0  0  0
    1.1993   -0.6901    0.0000 C   0  0  0  0  0  0  0  0  0  0  0  0
    2.0811   -1.1908    0.0000 H   0  0  0  0  0  0  0  0  0  0  0  0
    1.1957    0.6957   -0.0015 C   0  0  0  0  0  0  0  0  0  0  0  0
    2.0617    1.1941   -0.0031 H   0  0  0  0  0  0  0  0  0  0  0  0
  1  5  1  0
  5  8  1  0
  1  2  1  0
  1  3  1  0
  1  4  1  0
  5  6  1  0
  5  7  1  0
  8  9  1  0
  8 10  1  0
  8 11  1  0
 12 16  1  0
 16 17  2  0
 17 19  1  0
 19 21  2  0
 21 23  1  0
 23 25  2  0
 25 16  1  0
 12 13  1  0
 12 14  1  0
 12 15  1  0
 17 18  1  0
 19 20  1  0
 21 22  1  0
 23 24  1  0
 25 26  1  0
M  CHG  1   8   1
M  END
>  <PDB_ID>  (3285) 
pdb5lv9

>  <RESIDUE_NAME>  (3285) 
LYS   PHE

>  <FRAG_NAME>  (3285) 
ETAM   MBZ

>  <FRAG_ATOM_NUM>  (3285) 
fragi: 11  fragj: 15

>  <atom.prop.CHAIN_ID>  (3285) 
A A A A A A A A A A A Z Z Z Z Z Z Z Z Z Z Z Z Z Z Z

>  <atom.prop.IS_HEAVY_ATOM>  (3285) 
1 0 0 0 1 0 0 1 0 0 0 1 0 0 0 1 1 0 1 0 1 0 1 0 1 0

>  <DIFUSE_FUNC_ATOM>  (3285) 
n/a

>  <FINAL_SINGLE_POINT_ENERGY>  (3285) 
0

>  <NONCOV_INTER_ENERGY_QM>  (3285) 
0

>  <FF_Energy>  (3285) 
0.53

>  <QM_Energy>  (3285) 
-7.16

>  <source>  (3285) 
ETAM_MBZ

>  <Index>  (3285) 
35972

$$$$
ETAM-pdb6p3h-A-LYS-349:MBZ-pdb6p3h-C-PHE-356
     RDKit          3D

 26 25  0  0  0  0  0  0  0  0999 V2000
   -1.7366   -0.4401   -3.8614 C   0  0  0  0  0  0  0  0  0  0  0  0
   -2.1148   -1.0698   -3.2141 H   0  0  0  0  0  0  0  0  0  0  0  0
   -1.8211   -0.7445   -4.7873 H   0  0  0  0  0  0  0  0  0  0  0  0
   -2.2319    0.5249   -3.7541 H   0  0  0  0  0  0  0  0  0  0  0  0
   -0.2000   -0.2890   -3.5429 C   0  0  0  0  0  0  0  0  0  0  0  0
    0.1875    0.3011   -4.2130 H   0  0  0  0  0  0  0  0  0  0  0  0
   -0.1147    0.0381   -2.6300 H   0  0  0  0  0  0  0  0  0  0  0  0
    0.3768   -1.6604   -3.6610 N   0  0  0  0  0  4  0  0  0  0  0  0
    0.7754   -1.7732   -4.5706 H   0  0  0  0  0  0  0  0  0  0  0  0
    1.0844   -1.7808   -2.9664 H   0  0  0  0  0  0  0  0  0  0  0  0
   -0.3471   -2.3351   -3.5243 H   0  0  0  0  0  0  0  0  0  0  0  0
    0.0520    2.8960    0.0172 C   0  0  0  0  0  0  0  0  0  0  0  0
   -0.7449    3.2406   -0.4414 H   0  0  0  0  0  0  0  0  0  0  0  0
    0.8867    3.2039   -0.3966 H   0  0  0  0  0  0  0  0  0  0  0  0
    0.0336    3.2889    1.0338 H   0  0  0  0  0  0  0  0  0  0  0  0
    0.0195    1.3931   -0.0286 C   0  0  0  0  0  0  0  0  0  0  0  0
   -1.2135    0.7260   -0.0013 C   0  0  0  0  0  0  0  0  0  0  0  0
   -2.0522    1.2208    0.0150 H   0  0  0  0  0  0  0  0  0  0  0  0
   -1.2085   -0.6719    0.0000 C   0  0  0  0  0  0  0  0  0  0  0  0
   -2.0946   -1.1619   -0.0052 H   0  0  0  0  0  0  0  0  0  0  0  0
   -0.0200   -1.3734    0.0093 C   0  0  0  0  0  0  0  0  0  0  0  0
   -0.0438   -2.3859    0.0231 H   0  0  0  0  0  0  0  0  0  0  0  0
    1.2085   -0.7255    0.0000 C   0  0  0  0  0  0  0  0  0  0  0  0
    2.0652   -1.2438   -0.0192 H   0  0  0  0  0  0  0  0  0  0  0  0
    1.2139    0.6518    0.0206 C   0  0  0  0  0  0  0  0  0  0  0  0
    2.0852    1.1497    0.0711 H   0  0  0  0  0  0  0  0  0  0  0  0
  1  5  1  0
  5  8  1  0
  1  2  1  0
  1  3  1  0
  1  4  1  0
  5  6  1  0
  5  7  1  0
  8  9  1  0
  8 10  1  0
  8 11  1  0
 12 16  1  0
 16 17  2  0
 17 19  1  0
 19 21  2  0
 21 23  1  0
 23 25  2  0
 25 16  1  0
 12 13  1  0
 12 14  1  0
 12 15  1  0
 17 18  1  0
 19 20  1  0
 21 22  1  0
 23 24  1  0
 25 26  1  0
M  CHG  1   8   1
M  END
>  <PDB_ID>  (3286) 
pdb6p3h

>  <RESIDUE_NAME>  (3286) 
LYS   PHE

>  <FRAG_NAME>  (3286) 
ETAM   MBZ

>  <FRAG_ATOM_NUM>  (3286) 
fragi: 11  fragj: 15

>  <atom.prop.CHAIN_ID>  (3286) 
A A A A A A A A A A A Z Z Z Z Z Z Z Z Z Z Z Z Z Z Z

>  <atom.prop.IS_HEAVY_ATOM>  (3286) 
1 0 0 0 1 0 0 1 0 0 0 1 0 0 0 1 1 0 1 0 1 0 1 0 1 0

>  <DIFUSE_FUNC_ATOM>  (3286) 
n/a

>  <FINAL_SINGLE_POINT_ENERGY>  (3286) 
0

>  <NONCOV_INTER_ENERGY_QM>  (3286) 
0

>  <FF_Energy>  (3286) 
-6.23

>  <QM_Energy>  (3286) 
-12.65

>  <source>  (3286) 
ETAM_MBZ

>  <Index>  (3286) 
35995

$$$$
ETAM-pdb6pnv-A-LYS-265:MBZ-pdb6pnv-A-PHE-243
     RDKit          3D

 26 25  0  0  0  0  0  0  0  0999 V2000
    1.4742    1.8899   -3.5999 C   0  0  0  0  0  0  0  0  0  0  0  0
    2.4464    1.8225   -3.3608 H   0  0  0  0  0  0  0  0  0  0  0  0
    0.9362    1.9780   -2.7584 H   0  0  0  0  0  0  0  0  0  0  0  0
    1.3229    2.7800   -4.2105 H   0  0  0  0  0  0  0  0  0  0  0  0
    1.0631    0.6169   -4.3020 C   0  0  0  0  0  0  0  0  0  0  0  0
    0.0865    0.6717   -4.5352 H   0  0  0  0  0  0  0  0  0  0  0  0
    1.5907    0.5270   -5.1530 H   0  0  0  0  0  0  0  0  0  0  0  0
    1.2952   -0.5769   -3.4573 N   0  0  0  0  0  4  0  0  0  0  0  0
    0.7561   -1.3444   -3.8066 H   0  0  0  0  0  0  0  0  0  0  0  0
    2.2664   -0.8178   -3.4763 H   0  0  0  0  0  0  0  0  0  0  0  0
    1.0207   -0.3796   -2.5154 H   0  0  0  0  0  0  0  0  0  0  0  0
    0.0019    2.9115   -0.0148 C   0  0  0  0  0  0  0  0  0  0  0  0
   -0.7922    3.2123   -0.5294 H   0  0  0  0  0  0  0  0  0  0  0  0
    0.8394    3.2110   -0.4568 H   0  0  0  0  0  0  0  0  0  0  0  0
   -0.0410    3.3819    0.9676 H   0  0  0  0  0  0  0  0  0  0  0  0
    0.0003    1.4023   -0.0029 C   0  0  0  0  0  0  0  0  0  0  0  0
   -1.1927    0.6924   -0.0003 C   0  0  0  0  0  0  0  0  0  0  0  0
   -2.0607    1.1809    0.0003 H   0  0  0  0  0  0  0  0  0  0  0  0
   -1.1933   -0.6962    0.0000 C   0  0  0  0  0  0  0  0  0  0  0  0
   -2.0743   -1.1893   -0.0031 H   0  0  0  0  0  0  0  0  0  0  0  0
   -0.0021   -1.3883    0.0064 C   0  0  0  0  0  0  0  0  0  0  0  0
   -0.0064   -2.3905    0.0154 H   0  0  0  0  0  0  0  0  0  0  0  0
    1.1933   -0.6992    0.0000 C   0  0  0  0  0  0  0  0  0  0  0  0
    2.0761   -1.1985   -0.0013 H   0  0  0  0  0  0  0  0  0  0  0  0
    1.1944    0.6889   -0.0032 C   0  0  0  0  0  0  0  0  0  0  0  0
    2.0642    1.1830   -0.0062 H   0  0  0  0  0  0  0  0  0  0  0  0
  1  5  1  0
  5  8  1  0
  1  2  1  0
  1  3  1  0
  1  4  1  0
  5  6  1  0
  5  7  1  0
  8  9  1  0
  8 10  1  0
  8 11  1  0
 12 16  1  0
 16 17  2  0
 17 19  1  0
 19 21  2  0
 21 23  1  0
 23 25  2  0
 25 16  1  0
 12 13  1  0
 12 14  1  0
 12 15  1  0
 17 18  1  0
 19 20  1  0
 21 22  1  0
 23 24  1  0
 25 26  1  0
M  CHG  1   8   1
M  END
>  <PDB_ID>  (3287) 
pdb6pnv

>  <RESIDUE_NAME>  (3287) 
LYS   PHE

>  <FRAG_NAME>  (3287) 
ETAM   MBZ

>  <FRAG_ATOM_NUM>  (3287) 
fragi: 11  fragj: 15

>  <atom.prop.CHAIN_ID>  (3287) 
A A A A A A A A A A A Z Z Z Z Z Z Z Z Z Z Z Z Z Z Z

>  <atom.prop.IS_HEAVY_ATOM>  (3287) 
1 0 0 0 1 0 0 1 0 0 0 1 0 0 0 1 1 0 1 0 1 0 1 0 1 0

>  <DIFUSE_FUNC_ATOM>  (3287) 
n/a

>  <FINAL_SINGLE_POINT_ENERGY>  (3287) 
0

>  <NONCOV_INTER_ENERGY_QM>  (3287) 
0

>  <FF_Energy>  (3287) 
-7.51

>  <QM_Energy>  (3287) 
-13.98

>  <source>  (3287) 
ETAM_MBZ

>  <Index>  (3287) 
36019

$$$$
ETAM-pdb6p3h-D-LYS-349:MBZ-pdb6p3h-B-PHE-356
     RDKit          3D

 26 25  0  0  0  0  0  0  0  0999 V2000
   -1.5812   -0.5503   -3.8256 C   0  0  0  0  0  0  0  0  0  0  0  0
   -1.9948   -1.2293   -3.2403 H   0  0  0  0  0  0  0  0  0  0  0  0
   -1.5746   -0.8401   -4.7695 H   0  0  0  0  0  0  0  0  0  0  0  0
   -2.1587    0.3710   -3.7493 H   0  0  0  0  0  0  0  0  0  0  0  0
   -0.1266   -0.3286   -3.3695 C   0  0  0  0  0  0  0  0  0  0  0  0
    0.2908    0.3589   -3.9348 H   0  0  0  0  0  0  0  0  0  0  0  0
   -0.1182   -0.0824   -2.4175 H   0  0  0  0  0  0  0  0  0  0  0  0
    0.6441   -1.6396   -3.5440 N   0  0  0  0  0  4  0  0  0  0  0  0
    0.5953   -2.1445   -2.6910 H   0  0  0  0  0  0  0  0  0  0  0  0
    0.2198   -2.1533   -4.2799 H   0  0  0  0  0  0  0  0  0  0  0  0
    1.5857   -1.4189   -3.7674 H   0  0  0  0  0  0  0  0  0  0  0  0
   -0.0104    2.9172    0.0309 C   0  0  0  0  0  0  0  0  0  0  0  0
   -0.7748    3.2405   -0.4922 H   0  0  0  0  0  0  0  0  0  0  0  0
    0.8485    3.2382   -0.3186 H   0  0  0  0  0  0  0  0  0  0  0  0
   -0.1173    3.3128    1.0409 H   0  0  0  0  0  0  0  0  0  0  0  0
   -0.0081    1.4081   -0.0110 C   0  0  0  0  0  0  0  0  0  0  0  0
   -1.2227    0.6902    0.0014 C   0  0  0  0  0  0  0  0  0  0  0  0
   -2.0824    1.1708    0.0098 H   0  0  0  0  0  0  0  0  0  0  0  0
   -1.2164   -0.7245    0.0000 C   0  0  0  0  0  0  0  0  0  0  0  0
   -2.0597   -1.2318    0.0173 H   0  0  0  0  0  0  0  0  0  0  0  0
    0.0423   -1.3977   -0.0248 C   0  0  0  0  0  0  0  0  0  0  0  0
    0.0319   -2.4028   -0.0616 H   0  0  0  0  0  0  0  0  0  0  0  0
    1.2164   -0.7003   -0.0000 C   0  0  0  0  0  0  0  0  0  0  0  0
    2.1135   -1.1609   -0.0033 H   0  0  0  0  0  0  0  0  0  0  0  0
    1.1885    0.7241    0.0343 C   0  0  0  0  0  0  0  0  0  0  0  0
    2.0549    1.2133    0.0914 H   0  0  0  0  0  0  0  0  0  0  0  0
  1  5  1  0
  5  8  1  0
  1  2  1  0
  1  3  1  0
  1  4  1  0
  5  6  1  0
  5  7  1  0
  8  9  1  0
  8 10  1  0
  8 11  1  0
 12 16  1  0
 16 17  2  0
 17 19  1  0
 19 21  2  0
 21 23  1  0
 23 25  2  0
 25 16  1  0
 12 13  1  0
 12 14  1  0
 12 15  1  0
 17 18  1  0
 19 20  1  0
 21 22  1  0
 23 24  1  0
 25 26  1  0
M  CHG  1   8   1
M  END
>  <PDB_ID>  (3288) 
pdb6p3h

>  <RESIDUE_NAME>  (3288) 
LYS   PHE

>  <FRAG_NAME>  (3288) 
ETAM   MBZ

>  <FRAG_ATOM_NUM>  (3288) 
fragi: 11  fragj: 15

>  <atom.prop.CHAIN_ID>  (3288) 
A A A A A A A A A A A Z Z Z Z Z Z Z Z Z Z Z Z Z Z Z

>  <atom.prop.IS_HEAVY_ATOM>  (3288) 
1 0 0 0 1 0 0 1 0 0 0 1 0 0 0 1 1 0 1 0 1 0 1 0 1 0

>  <DIFUSE_FUNC_ATOM>  (3288) 
n/a

>  <FINAL_SINGLE_POINT_ENERGY>  (3288) 
0

>  <NONCOV_INTER_ENERGY_QM>  (3288) 
0

>  <FF_Energy>  (3288) 
-5.59

>  <QM_Energy>  (3288) 
-13.51

>  <source>  (3288) 
ETAM_MBZ

>  <Index>  (3288) 
36050

$$$$
ETAM-pdb6pbz-B-LYS-240:MBZ-pdb6pbz-B-PHE-182
     RDKit          3D

 26 25  0  0  0  0  0  0  0  0999 V2000
    0.9047   -1.1183    5.8411 C   0  0  0  0  0  0  0  0  0  0  0  0
   -0.0833   -1.1134    5.9552 H   0  0  0  0  0  0  0  0  0  0  0  0
    1.3543   -0.8589    6.6891 H   0  0  0  0  0  0  0  0  0  0  0  0
    1.2280   -2.1189    5.5539 H   0  0  0  0  0  0  0  0  0  0  0  0
    1.2679   -0.0831    4.7711 C   0  0  0  0  0  0  0  0  0  0  0  0
    0.9427    0.8192    5.0729 H   0  0  0  0  0  0  0  0  0  0  0  0
    2.2692   -0.0490    4.6823 H   0  0  0  0  0  0  0  0  0  0  0  0
    0.6703   -0.3975    3.4357 N   0  0  0  0  0  4  0  0  0  0  0  0
   -0.3242   -0.4261    3.5210 H   0  0  0  0  0  0  0  0  0  0  0  0
    0.9335    0.3112    2.7843 H   0  0  0  0  0  0  0  0  0  0  0  0
    1.0092   -1.2835    3.1254 H   0  0  0  0  0  0  0  0  0  0  0  0
    0.0240    2.9227    0.0137 C   0  0  0  0  0  0  0  0  0  0  0  0
    0.8194    3.2157   -0.4980 H   0  0  0  0  0  0  0  0  0  0  0  0
    0.0832    3.2123    0.9594 H   0  0  0  0  0  0  0  0  0  0  0  0
   -0.8517    3.3985   -0.4279 H   0  0  0  0  0  0  0  0  0  0  0  0
   -0.0007    1.4045   -0.0027 C   0  0  0  0  0  0  0  0  0  0  0  0
   -1.1972    0.6992    0.0026 C   0  0  0  0  0  0  0  0  0  0  0  0
   -2.0631    1.1881    0.0065 H   0  0  0  0  0  0  0  0  0  0  0  0
   -1.2000   -0.6919    0.0000 C   0  0  0  0  0  0  0  0  0  0  0  0
   -2.0768   -1.1870   -0.0003 H   0  0  0  0  0  0  0  0  0  0  0  0
    0.0020   -1.3925    0.0001 C   0  0  0  0  0  0  0  0  0  0  0  0
   -0.0092   -2.3924   -0.0000 H   0  0  0  0  0  0  0  0  0  0  0  0
    1.2000   -0.7045    0.0000 C   0  0  0  0  0  0  0  0  0  0  0  0
    2.0814   -1.2017    0.0016 H   0  0  0  0  0  0  0  0  0  0  0  0
    1.1960    0.6852    0.0001 C   0  0  0  0  0  0  0  0  0  0  0  0
    2.0652    1.1824    0.0012 H   0  0  0  0  0  0  0  0  0  0  0  0
  1  5  1  0
  5  8  1  0
  1  2  1  0
  1  3  1  0
  1  4  1  0
  5  6  1  0
  5  7  1  0
  8  9  1  0
  8 10  1  0
  8 11  1  0
 12 16  1  0
 16 17  2  0
 17 19  1  0
 19 21  2  0
 21 23  1  0
 23 25  2  0
 25 16  1  0
 12 13  1  0
 12 14  1  0
 12 15  1  0
 17 18  1  0
 19 20  1  0
 21 22  1  0
 23 24  1  0
 25 26  1  0
M  CHG  1   8   1
M  END
>  <PDB_ID>  (3289) 
pdb6pbz

>  <RESIDUE_NAME>  (3289) 
LYS   PHE

>  <FRAG_NAME>  (3289) 
ETAM   MBZ

>  <FRAG_ATOM_NUM>  (3289) 
fragi: 11  fragj: 15

>  <atom.prop.CHAIN_ID>  (3289) 
A A A A A A A A A A A Z Z Z Z Z Z Z Z Z Z Z Z Z Z Z

>  <atom.prop.IS_HEAVY_ATOM>  (3289) 
1 0 0 0 1 0 0 1 0 0 0 1 0 0 0 1 1 0 1 0 1 0 1 0 1 0

>  <DIFUSE_FUNC_ATOM>  (3289) 
n/a

>  <FINAL_SINGLE_POINT_ENERGY>  (3289) 
0

>  <NONCOV_INTER_ENERGY_QM>  (3289) 
0

>  <FF_Energy>  (3289) 
-7.17

>  <QM_Energy>  (3289) 
-13.03

>  <source>  (3289) 
ETAM_MBZ

>  <Index>  (3289) 
36051

$$$$
ETAM-pdb6pun-E-LEU-76:MBZ-pdb6pun-A-PHE-552
     RDKit          3D

 26 25  0  0  0  0  0  0  0  0999 V2000
    4.8219   -1.2259   -2.4411 C   0  0  0  0  0  0  0  0  0  0  0  0
    5.5767   -1.2112   -1.7889 H   0  0  0  0  0  0  0  0  0  0  0  0
    5.1756   -1.2498   -3.3717 H   0  0  0  0  0  0  0  0  0  0  0  0
    4.2743   -0.2907   -2.3245 H   0  0  0  0  0  0  0  0  0  0  0  0
    4.0258   -2.5107   -2.2079 C   0  0  0  0  0  0  0  0  0  0  0  0
    3.1741   -2.4512   -2.7405 H   0  0  0  0  0  0  0  0  0  0  0  0
    4.5917   -3.3727   -2.5609 H   0  0  0  0  0  0  0  0  0  0  0  0
    3.6843   -2.6524   -0.7976 N   0  0  0  0  0  4  0  0  0  0  0  0
    3.1299   -1.8731   -0.4987 H   0  0  0  0  0  0  0  0  0  0  0  0
    3.1635   -3.4965   -0.6535 H   0  0  0  0  0  0  0  0  0  0  0  0
    4.5196   -2.6885   -0.2442 H   0  0  0  0  0  0  0  0  0  0  0  0
    0.0014    2.8957   -0.0017 C   0  0  0  0  0  0  0  0  0  0  0  0
   -0.7620    3.2029   -0.5510 H   0  0  0  0  0  0  0  0  0  0  0  0
    0.8622    3.2018   -0.3815 H   0  0  0  0  0  0  0  0  0  0  0  0
   -0.1016    3.3423    0.9873 H   0  0  0  0  0  0  0  0  0  0  0  0
   -0.0000    1.3950    0.0018 C   0  0  0  0  0  0  0  0  0  0  0  0
   -1.1909    0.6880   -0.0000 C   0  0  0  0  0  0  0  0  0  0  0  0
   -2.0595    1.1798   -0.0032 H   0  0  0  0  0  0  0  0  0  0  0  0
   -1.1946   -0.6937    0.0000 C   0  0  0  0  0  0  0  0  0  0  0  0
   -2.0740   -1.1893    0.0017 H   0  0  0  0  0  0  0  0  0  0  0  0
   -0.0006   -1.3854   -0.0005 C   0  0  0  0  0  0  0  0  0  0  0  0
   -0.0033   -2.3872   -0.0016 H   0  0  0  0  0  0  0  0  0  0  0  0
    1.1946   -0.6929   -0.0000 C   0  0  0  0  0  0  0  0  0  0  0  0
    2.0774   -1.1934    0.0033 H   0  0  0  0  0  0  0  0  0  0  0  0
    1.1915    0.6891   -0.0012 C   0  0  0  0  0  0  0  0  0  0  0  0
    2.0606    1.1876   -0.0051 H   0  0  0  0  0  0  0  0  0  0  0  0
  1  5  1  0
  5  8  1  0
  1  2  1  0
  1  3  1  0
  1  4  1  0
  5  6  1  0
  5  7  1  0
  8  9  1  0
  8 10  1  0
  8 11  1  0
 12 16  1  0
 16 17  2  0
 17 19  1  0
 19 21  2  0
 21 23  1  0
 23 25  2  0
 25 16  1  0
 12 13  1  0
 12 14  1  0
 12 15  1  0
 17 18  1  0
 19 20  1  0
 21 22  1  0
 23 24  1  0
 25 26  1  0
M  CHG  1   8   1
M  END
>  <PDB_ID>  (3290) 
pdb6pun

>  <RESIDUE_NAME>  (3290) 
LEU   PHE

>  <FRAG_NAME>  (3290) 
ETAM   MBZ

>  <FRAG_ATOM_NUM>  (3290) 
fragi: 11  fragj: 15

>  <atom.prop.CHAIN_ID>  (3290) 
A A A A A A A A A A A Z Z Z Z Z Z Z Z Z Z Z Z Z Z Z

>  <atom.prop.IS_HEAVY_ATOM>  (3290) 
1 0 0 0 1 0 0 1 0 0 0 1 0 0 0 1 1 0 1 0 1 0 1 0 1 0

>  <DIFUSE_FUNC_ATOM>  (3290) 
n/a

>  <FINAL_SINGLE_POINT_ENERGY>  (3290) 
0

>  <NONCOV_INTER_ENERGY_QM>  (3290) 
0

>  <FF_Energy>  (3290) 
5.37

>  <QM_Energy>  (3290) 
-0.17

>  <source>  (3290) 
ETAM_MBZ

>  <Index>  (3290) 
36060

$$$$
ETAM-pdb6pv5-A-LYS-56:MBZ-pdb6pv5-A-PHE-52
     RDKit          3D

 26 25  0  0  0  0  0  0  0  0999 V2000
    4.7852   -0.8656    2.2847 C   0  0  0  0  0  0  0  0  0  0  0  0
    5.6885   -0.9148    2.7184 H   0  0  0  0  0  0  0  0  0  0  0  0
    4.5381   -1.7754    1.9432 H   0  0  0  0  0  0  0  0  0  0  0  0
    4.0534   -0.5597    3.0323 H   0  0  0  0  0  0  0  0  0  0  0  0
    4.8675    0.0833    1.1077 C   0  0  0  0  0  0  0  0  0  0  0  0
    4.5076    0.9783    1.3840 H   0  0  0  0  0  0  0  0  0  0  0  0
    5.8297    0.1901    0.8404 H   0  0  0  0  0  0  0  0  0  0  0  0
    4.0925   -0.4177   -0.0520 N   0  0  0  0  0  4  0  0  0  0  0  0
    4.1023    0.2668   -0.7815 H   0  0  0  0  0  0  0  0  0  0  0  0
    4.5027   -1.2669   -0.3871 H   0  0  0  0  0  0  0  0  0  0  0  0
    3.1482   -0.5926    0.2272 H   0  0  0  0  0  0  0  0  0  0  0  0
   -0.0033    2.9080    0.0103 C   0  0  0  0  0  0  0  0  0  0  0  0
   -0.8208    3.2143   -0.4563 H   0  0  0  0  0  0  0  0  0  0  0  0
    0.8124    3.2180   -0.4574 H   0  0  0  0  0  0  0  0  0  0  0  0
   -0.0035    3.3487    1.0072 H   0  0  0  0  0  0  0  0  0  0  0  0
   -0.0003    1.4007   -0.0006 C   0  0  0  0  0  0  0  0  0  0  0  0
   -1.1914    0.6881    0.0057 C   0  0  0  0  0  0  0  0  0  0  0  0
   -2.0614    1.1762    0.0128 H   0  0  0  0  0  0  0  0  0  0  0  0
   -1.1912   -0.6982    0.0000 C   0  0  0  0  0  0  0  0  0  0  0  0
   -2.0722   -1.1920   -0.0009 H   0  0  0  0  0  0  0  0  0  0  0  0
   -0.0001   -1.3878   -0.0025 C   0  0  0  0  0  0  0  0  0  0  0  0
   -0.0018   -2.3899   -0.0065 H   0  0  0  0  0  0  0  0  0  0  0  0
    1.1912   -0.6948   -0.0000 C   0  0  0  0  0  0  0  0  0  0  0  0
    2.0774   -1.1933    0.0056 H   0  0  0  0  0  0  0  0  0  0  0  0
    1.1918    0.6920   -0.0026 C   0  0  0  0  0  0  0  0  0  0  0  0
    2.0619    1.1864   -0.0061 H   0  0  0  0  0  0  0  0  0  0  0  0
  1  5  1  0
  5  8  1  0
  1  2  1  0
  1  3  1  0
  1  4  1  0
  5  6  1  0
  5  7  1  0
  8  9  1  0
  8 10  1  0
  8 11  1  0
 12 16  1  0
 16 17  2  0
 17 19  1  0
 19 21  2  0
 21 23  1  0
 23 25  2  0
 25 16  1  0
 12 13  1  0
 12 14  1  0
 12 15  1  0
 17 18  1  0
 19 20  1  0
 21 22  1  0
 23 24  1  0
 25 26  1  0
M  CHG  1   8   1
M  END
>  <PDB_ID>  (3291) 
pdb6pv5

>  <RESIDUE_NAME>  (3291) 
LYS   PHE

>  <FRAG_NAME>  (3291) 
ETAM   MBZ

>  <FRAG_ATOM_NUM>  (3291) 
fragi: 11  fragj: 15

>  <atom.prop.CHAIN_ID>  (3291) 
A A A A A A A A A A A Z Z Z Z Z Z Z Z Z Z Z Z Z Z Z

>  <atom.prop.IS_HEAVY_ATOM>  (3291) 
1 0 0 0 1 0 0 1 0 0 0 1 0 0 0 1 1 0 1 0 1 0 1 0 1 0

>  <DIFUSE_FUNC_ATOM>  (3291) 
n/a

>  <FINAL_SINGLE_POINT_ENERGY>  (3291) 
0

>  <NONCOV_INTER_ENERGY_QM>  (3291) 
0

>  <FF_Energy>  (3291) 
12.98

>  <QM_Energy>  (3291) 
3.15

>  <source>  (3291) 
ETAM_MBZ

>  <Index>  (3291) 
36061

$$$$
ETAM-pdb6pwd-A-LYS-42:MBZ-pdb6pwd-A-PHE-58
     RDKit          3D

 26 25  0  0  0  0  0  0  0  0999 V2000
   -0.2385    0.2393   -3.8749 C   0  0  0  0  0  0  0  0  0  0  0  0
    0.3749    0.7696   -4.4073 H   0  0  0  0  0  0  0  0  0  0  0  0
    0.0039    0.2938   -2.9376 H   0  0  0  0  0  0  0  0  0  0  0  0
   -1.2522    0.6167   -4.0094 H   0  0  0  0  0  0  0  0  0  0  0  0
   -0.1219   -1.2041   -4.3126 C   0  0  0  0  0  0  0  0  0  0  0  0
   -0.3422   -1.2716   -5.2545 H   0  0  0  0  0  0  0  0  0  0  0  0
    0.7857   -1.5113   -4.1619 H   0  0  0  0  0  0  0  0  0  0  0  0
   -1.0476   -2.0927   -3.5521 N   0  0  0  0  0  4  0  0  0  0  0  0
   -0.8310   -2.9456   -3.6877 H   0  0  0  0  0  0  0  0  0  0  0  0
   -0.9927   -1.9157   -2.6817 H   0  0  0  0  0  0  0  0  0  0  0  0
   -1.8854   -1.9617   -3.8221 H   0  0  0  0  0  0  0  0  0  0  0  0
   -0.0031    2.8860   -0.0043 C   0  0  0  0  0  0  0  0  0  0  0  0
    0.8513    3.1847    0.3450 H   0  0  0  0  0  0  0  0  0  0  0  0
   -0.7210    3.1827    0.5771 H   0  0  0  0  0  0  0  0  0  0  0  0
   -0.1501    3.3211   -0.9928 H   0  0  0  0  0  0  0  0  0  0  0  0
   -0.0002    1.3917   -0.0002 C   0  0  0  0  0  0  0  0  0  0  0  0
   -1.1914    0.6876   -0.0003 C   0  0  0  0  0  0  0  0  0  0  0  0
   -1.9979    1.1488   -0.0010 H   0  0  0  0  0  0  0  0  0  0  0  0
   -1.1941   -0.6925   -0.0000 C   0  0  0  0  0  0  0  0  0  0  0  0
   -2.0004   -1.1556   -0.0005 H   0  0  0  0  0  0  0  0  0  0  0  0
    0.0004   -1.3822    0.0004 C   0  0  0  0  0  0  0  0  0  0  0  0
    0.0004   -2.3126    0.0006 H   0  0  0  0  0  0  0  0  0  0  0  0
    1.1941   -0.6921    0.0000 C   0  0  0  0  0  0  0  0  0  0  0  0
    2.0002   -1.1564    0.0011 H   0  0  0  0  0  0  0  0  0  0  0  0
    1.1912    0.6876    0.0001 C   0  0  0  0  0  0  0  0  0  0  0  0
    1.9982    1.1498   -0.0003 H   0  0  0  0  0  0  0  0  0  0  0  0
  1  5  1  0
  5  8  1  0
  1  2  1  0
  1  3  1  0
  1  4  1  0
  5  6  1  0
  5  7  1  0
  8  9  1  0
  8 10  1  0
  8 11  1  0
 12 16  1  0
 16 17  2  0
 17 19  1  0
 19 21  2  0
 21 23  1  0
 23 25  2  0
 25 16  1  0
 12 13  1  0
 12 14  1  0
 12 15  1  0
 17 18  1  0
 19 20  1  0
 21 22  1  0
 23 24  1  0
 25 26  1  0
M  CHG  1   8   1
M  END
>  <PDB_ID>  (3292) 
pdb6pwd

>  <RESIDUE_NAME>  (3292) 
LYS   PHE

>  <FRAG_NAME>  (3292) 
ETAM   MBZ

>  <FRAG_ATOM_NUM>  (3292) 
fragi: 11  fragj: 15

>  <atom.prop.CHAIN_ID>  (3292) 
A A A A A A A A A A A Z Z Z Z Z Z Z Z Z Z Z Z Z Z Z

>  <atom.prop.IS_HEAVY_ATOM>  (3292) 
1 0 0 0 1 0 0 1 0 0 0 1 0 0 0 1 1 0 1 0 1 0 1 0 1 0

>  <DIFUSE_FUNC_ATOM>  (3292) 
n/a

>  <FINAL_SINGLE_POINT_ENERGY>  (3292) 
0

>  <NONCOV_INTER_ENERGY_QM>  (3292) 
0

>  <FF_Energy>  (3292) 
-4.94

>  <QM_Energy>  (3292) 
-11.04

>  <source>  (3292) 
ETAM_MBZ

>  <Index>  (3292) 
36073

$$$$
ETAM-pdb6pyr-A-LYS-631:MBZ-pdb6pyr-A-PHE-146
     RDKit          3D

 26 25  0  0  0  0  0  0  0  0999 V2000
    1.4345   -0.2988   -4.0978 C   0  0  0  0  0  0  0  0  0  0  0  0
    2.2340   -0.3390   -3.5102 H   0  0  0  0  0  0  0  0  0  0  0  0
    1.3157    0.6166   -4.4646 H   0  0  0  0  0  0  0  0  0  0  0  0
    1.5655   -0.9982   -4.9234 H   0  0  0  0  0  0  0  0  0  0  0  0
    0.2073   -0.6522   -3.2702 C   0  0  0  0  0  0  0  0  0  0  0  0
    0.3257   -1.5823   -2.8945 H   0  0  0  0  0  0  0  0  0  0  0  0
    0.1439   -0.0105   -2.4917 H   0  0  0  0  0  0  0  0  0  0  0  0
   -1.0661   -0.6014   -4.0439 N   0  0  0  0  0  4  0  0  0  0  0  0
   -1.5208   -1.4897   -3.9902 H   0  0  0  0  0  0  0  0  0  0  0  0
   -1.6601    0.1035   -3.6572 H   0  0  0  0  0  0  0  0  0  0  0  0
   -0.8644   -0.3838   -4.9981 H   0  0  0  0  0  0  0  0  0  0  0  0
   -0.0108    2.9034    0.0166 C   0  0  0  0  0  0  0  0  0  0  0  0
   -0.7256    3.2129   -0.5897 H   0  0  0  0  0  0  0  0  0  0  0  0
    0.8777    3.2211   -0.2750 H   0  0  0  0  0  0  0  0  0  0  0  0
   -0.2064    3.3239    1.0030 H   0  0  0  0  0  0  0  0  0  0  0  0
    0.0003    1.4010   -0.0026 C   0  0  0  0  0  0  0  0  0  0  0  0
   -1.1999    0.6900    0.0034 C   0  0  0  0  0  0  0  0  0  0  0  0
   -2.0645    1.1840    0.0090 H   0  0  0  0  0  0  0  0  0  0  0  0
   -1.2047   -0.6972   -0.0000 C   0  0  0  0  0  0  0  0  0  0  0  0
   -2.0802   -1.1920    0.0007 H   0  0  0  0  0  0  0  0  0  0  0  0
   -0.0034   -1.3899   -0.0022 C   0  0  0  0  0  0  0  0  0  0  0  0
   -0.0046   -2.3910   -0.0055 H   0  0  0  0  0  0  0  0  0  0  0  0
    1.2047   -0.6955   -0.0000 C   0  0  0  0  0  0  0  0  0  0  0  0
    2.0824   -1.1988    0.0020 H   0  0  0  0  0  0  0  0  0  0  0  0
    1.2030    0.6917    0.0013 C   0  0  0  0  0  0  0  0  0  0  0  0
    2.0674    1.1906    0.0038 H   0  0  0  0  0  0  0  0  0  0  0  0
  1  5  1  0
  5  8  1  0
  1  2  1  0
  1  3  1  0
  1  4  1  0
  5  6  1  0
  5  7  1  0
  8  9  1  0
  8 10  1  0
  8 11  1  0
 12 16  1  0
 16 17  2  0
 17 19  1  0
 19 21  2  0
 21 23  1  0
 23 25  2  0
 25 16  1  0
 12 13  1  0
 12 14  1  0
 12 15  1  0
 17 18  1  0
 19 20  1  0
 21 22  1  0
 23 24  1  0
 25 26  1  0
M  CHG  1   8   1
M  END
>  <PDB_ID>  (3293) 
pdb6pyr

>  <RESIDUE_NAME>  (3293) 
LYS   PHE

>  <FRAG_NAME>  (3293) 
ETAM   MBZ

>  <FRAG_ATOM_NUM>  (3293) 
fragi: 11  fragj: 15

>  <atom.prop.CHAIN_ID>  (3293) 
A A A A A A A A A A A Z Z Z Z Z Z Z Z Z Z Z Z Z Z Z

>  <atom.prop.IS_HEAVY_ATOM>  (3293) 
1 0 0 0 1 0 0 1 0 0 0 1 0 0 0 1 1 0 1 0 1 0 1 0 1 0

>  <DIFUSE_FUNC_ATOM>  (3293) 
n/a

>  <FINAL_SINGLE_POINT_ENERGY>  (3293) 
0

>  <NONCOV_INTER_ENERGY_QM>  (3293) 
0

>  <FF_Energy>  (3293) 
-5.55

>  <QM_Energy>  (3293) 
-10.7

>  <source>  (3293) 
ETAM_MBZ

>  <Index>  (3293) 
36090

$$$$
ETAM-pdb6pzm-D-LYS-145:MBZ-pdb6pzm-D-PHE-244
     RDKit          3D

 26 25  0  0  0  0  0  0  0  0999 V2000
   -0.7356   -2.7019   -4.9278 C   0  0  0  0  0  0  0  0  0  0  0  0
   -0.5400   -3.6696   -5.0849 H   0  0  0  0  0  0  0  0  0  0  0  0
   -0.7155   -2.2116   -5.7989 H   0  0  0  0  0  0  0  0  0  0  0  0
   -1.7365   -2.6159   -4.5047 H   0  0  0  0  0  0  0  0  0  0  0  0
    0.3479   -2.1276   -4.0224 C   0  0  0  0  0  0  0  0  0  0  0  0
    0.5762   -2.8098   -3.3184 H   0  0  0  0  0  0  0  0  0  0  0  0
    1.1716   -1.9537   -4.5738 H   0  0  0  0  0  0  0  0  0  0  0  0
   -0.0713   -0.8632   -3.3592 N   0  0  0  0  0  4  0  0  0  0  0  0
    0.4411   -0.0985   -3.7483 H   0  0  0  0  0  0  0  0  0  0  0  0
   -1.0496   -0.7204   -3.5067 H   0  0  0  0  0  0  0  0  0  0  0  0
    0.1143   -0.9251   -2.3788 H   0  0  0  0  0  0  0  0  0  0  0  0
    0.0017    2.8995    0.0076 C   0  0  0  0  0  0  0  0  0  0  0  0
    0.6147    3.2000    0.7234 H   0  0  0  0  0  0  0  0  0  0  0  0
   -0.9245    3.2034    0.1789 H   0  0  0  0  0  0  0  0  0  0  0  0
    0.3348    3.3440   -0.9303 H   0  0  0  0  0  0  0  0  0  0  0  0
    0.0003    1.3960    0.0017 C   0  0  0  0  0  0  0  0  0  0  0  0
   -1.1936    0.6920    0.0006 C   0  0  0  0  0  0  0  0  0  0  0  0
   -2.0608    1.1826   -0.0011 H   0  0  0  0  0  0  0  0  0  0  0  0
   -1.1960   -0.6937    0.0000 C   0  0  0  0  0  0  0  0  0  0  0  0
   -2.0737   -1.1898    0.0006 H   0  0  0  0  0  0  0  0  0  0  0  0
    0.0013   -1.3876    0.0001 C   0  0  0  0  0  0  0  0  0  0  0  0
   -0.0039   -2.3884   -0.0007 H   0  0  0  0  0  0  0  0  0  0  0  0
    1.1960   -0.6955    0.0000 C   0  0  0  0  0  0  0  0  0  0  0  0
    2.0797   -1.1945    0.0034 H   0  0  0  0  0  0  0  0  0  0  0  0
    1.1920    0.6888   -0.0024 C   0  0  0  0  0  0  0  0  0  0  0  0
    2.0626    1.1860   -0.0076 H   0  0  0  0  0  0  0  0  0  0  0  0
  1  5  1  0
  5  8  1  0
  1  2  1  0
  1  3  1  0
  1  4  1  0
  5  6  1  0
  5  7  1  0
  8  9  1  0
  8 10  1  0
  8 11  1  0
 12 16  1  0
 16 17  2  0
 17 19  1  0
 19 21  2  0
 21 23  1  0
 23 25  2  0
 25 16  1  0
 12 13  1  0
 12 14  1  0
 12 15  1  0
 17 18  1  0
 19 20  1  0
 21 22  1  0
 23 24  1  0
 25 26  1  0
M  CHG  1   8   1
M  END
>  <PDB_ID>  (3294) 
pdb6pzm

>  <RESIDUE_NAME>  (3294) 
LYS   PHE

>  <FRAG_NAME>  (3294) 
ETAM   MBZ

>  <FRAG_ATOM_NUM>  (3294) 
fragi: 11  fragj: 15

>  <atom.prop.CHAIN_ID>  (3294) 
A A A A A A A A A A A Z Z Z Z Z Z Z Z Z Z Z Z Z Z Z

>  <atom.prop.IS_HEAVY_ATOM>  (3294) 
1 0 0 0 1 0 0 1 0 0 0 1 0 0 0 1 1 0 1 0 1 0 1 0 1 0

>  <DIFUSE_FUNC_ATOM>  (3294) 
n/a

>  <FINAL_SINGLE_POINT_ENERGY>  (3294) 
0

>  <NONCOV_INTER_ENERGY_QM>  (3294) 
0

>  <FF_Energy>  (3294) 
-7.97

>  <QM_Energy>  (3294) 
-15.55

>  <source>  (3294) 
ETAM_MBZ

>  <Index>  (3294) 
36106

$$$$
ETAM-pdb5m5u-B-LYS-246:MBZ-pdb5m5u-B-PHE-243
     RDKit          3D

 26 25  0  0  0  0  0  0  0  0999 V2000
    2.3674   -3.3233    4.1539 C   0  0  0  0  0  0  0  0  0  0  0  0
    2.4597   -4.1988    4.6410 H   0  0  0  0  0  0  0  0  0  0  0  0
    3.0089   -2.6628    4.5585 H   0  0  0  0  0  0  0  0  0  0  0  0
    2.6077   -3.4661    3.1004 H   0  0  0  0  0  0  0  0  0  0  0  0
    0.9345   -2.7969    4.4189 C   0  0  0  0  0  0  0  0  0  0  0  0
    0.3187   -3.5998    4.4966 H   0  0  0  0  0  0  0  0  0  0  0  0
    0.9360   -2.3341    5.3231 H   0  0  0  0  0  0  0  0  0  0  0  0
    0.4079   -1.8683    3.3902 N   0  0  0  0  0  4  0  0  0  0  0  0
    0.1676   -2.3834    2.5670 H   0  0  0  0  0  0  0  0  0  0  0  0
   -0.4066   -1.4058    3.7425 H   0  0  0  0  0  0  0  0  0  0  0  0
    1.1055   -1.1875    3.1654 H   0  0  0  0  0  0  0  0  0  0  0  0
   -0.0092    2.8757   -0.0602 C   0  0  0  0  0  0  0  0  0  0  0  0
   -0.7850    3.1472   -0.6238 H   0  0  0  0  0  0  0  0  0  0  0  0
    0.8426    3.1620   -0.4911 H   0  0  0  0  0  0  0  0  0  0  0  0
   -0.0919    3.3819    0.9016 H   0  0  0  0  0  0  0  0  0  0  0  0
   -0.0028    1.3914    0.0215 C   0  0  0  0  0  0  0  0  0  0  0  0
   -1.1923    0.6887   -0.0382 C   0  0  0  0  0  0  0  0  0  0  0  0
   -2.0572    1.1809   -0.1106 H   0  0  0  0  0  0  0  0  0  0  0  0
   -1.1990   -0.6915   -0.0000 C   0  0  0  0  0  0  0  0  0  0  0  0
   -2.0678   -1.1920    0.0363 H   0  0  0  0  0  0  0  0  0  0  0  0
    0.0114   -1.3823   -0.0105 C   0  0  0  0  0  0  0  0  0  0  0  0
   -0.0025   -2.3869   -0.0264 H   0  0  0  0  0  0  0  0  0  0  0  0
    1.1990   -0.7003   -0.0000 C   0  0  0  0  0  0  0  0  0  0  0  0
    2.0851   -1.1860   -0.0100 H   0  0  0  0  0  0  0  0  0  0  0  0
    1.1837    0.6941    0.0273 C   0  0  0  0  0  0  0  0  0  0  0  0
    2.0562    1.1891    0.0500 H   0  0  0  0  0  0  0  0  0  0  0  0
  1  5  1  0
  5  8  1  0
  1  2  1  0
  1  3  1  0
  1  4  1  0
  5  6  1  0
  5  7  1  0
  8  9  1  0
  8 10  1  0
  8 11  1  0
 12 16  1  0
 16 17  2  0
 17 19  1  0
 19 21  2  0
 21 23  1  0
 23 25  2  0
 25 16  1  0
 12 13  1  0
 12 14  1  0
 12 15  1  0
 17 18  1  0
 19 20  1  0
 21 22  1  0
 23 24  1  0
 25 26  1  0
M  CHG  1   8   1
M  END
>  <PDB_ID>  (3295) 
pdb5m5u

>  <RESIDUE_NAME>  (3295) 
LYS   PHE

>  <FRAG_NAME>  (3295) 
ETAM   MBZ

>  <FRAG_ATOM_NUM>  (3295) 
fragi: 11  fragj: 15

>  <atom.prop.CHAIN_ID>  (3295) 
A A A A A A A A A A A Z Z Z Z Z Z Z Z Z Z Z Z Z Z Z

>  <atom.prop.IS_HEAVY_ATOM>  (3295) 
1 0 0 0 1 0 0 1 0 0 0 1 0 0 0 1 1 0 1 0 1 0 1 0 1 0

>  <DIFUSE_FUNC_ATOM>  (3295) 
n/a

>  <FINAL_SINGLE_POINT_ENERGY>  (3295) 
0

>  <NONCOV_INTER_ENERGY_QM>  (3295) 
0

>  <FF_Energy>  (3295) 
-4.84

>  <QM_Energy>  (3295) 
-10.66

>  <source>  (3295) 
ETAM_MBZ

>  <Index>  (3295) 
36114

$$$$
ETAM-pdb5m97-B-LYS-38:MBZ-pdb5m97-B-PHE-34
     RDKit          3D

 26 25  0  0  0  0  0  0  0  0999 V2000
    0.6163   -0.7360    4.7248 C   0  0  0  0  0  0  0  0  0  0  0  0
    1.4365   -0.1466    4.6909 H   0  0  0  0  0  0  0  0  0  0  0  0
    0.7743   -1.4466    5.4249 H   0  0  0  0  0  0  0  0  0  0  0  0
   -0.2192   -0.1209    5.0592 H   0  0  0  0  0  0  0  0  0  0  0  0
    0.4237   -1.3891    3.3947 C   0  0  0  0  0  0  0  0  0  0  0  0
    0.2965   -0.6624    2.6956 H   0  0  0  0  0  0  0  0  0  0  0  0
    1.2779   -1.8841    3.1528 H   0  0  0  0  0  0  0  0  0  0  0  0
   -0.6850   -2.2851    3.3821 N   0  0  0  0  0  4  0  0  0  0  0  0
   -0.8117   -2.6934    2.4669 H   0  0  0  0  0  0  0  0  0  0  0  0
   -0.5503   -3.0382    4.0412 H   0  0  0  0  0  0  0  0  0  0  0  0
   -1.5404   -1.8074    3.6281 H   0  0  0  0  0  0  0  0  0  0  0  0
    0.0512    2.8789   -0.1663 C   0  0  0  0  0  0  0  0  0  0  0  0
   -0.4342    3.1214   -1.0126 H   0  0  0  0  0  0  0  0  0  0  0  0
    1.0196    3.1283   -0.2668 H   0  0  0  0  0  0  0  0  0  0  0  0
   -0.3694    3.4694    0.6478 H   0  0  0  0  0  0  0  0  0  0  0  0
   -0.0066    1.3688   -0.0381 C   0  0  0  0  0  0  0  0  0  0  0  0
   -1.1963    0.6753    0.0187 C   0  0  0  0  0  0  0  0  0  0  0  0
   -2.0625    1.1598    0.0721 H   0  0  0  0  0  0  0  0  0  0  0  0
   -1.2045   -0.7244    0.0000 C   0  0  0  0  0  0  0  0  0  0  0  0
   -2.0620   -1.2141   -0.0249 H   0  0  0  0  0  0  0  0  0  0  0  0
    0.0046   -1.3407    0.0189 C   0  0  0  0  0  0  0  0  0  0  0  0
    0.0190   -2.3800    0.0495 H   0  0  0  0  0  0  0  0  0  0  0  0
    1.2045   -0.6870    0.0000 C   0  0  0  0  0  0  0  0  0  0  0  0
    2.0783   -1.1813   -0.0122 H   0  0  0  0  0  0  0  0  0  0  0  0
    1.1982    0.7079    0.0005 C   0  0  0  0  0  0  0  0  0  0  0  0
    2.0526    1.2051    0.0272 H   0  0  0  0  0  0  0  0  0  0  0  0
  1  5  1  0
  5  8  1  0
  1  2  1  0
  1  3  1  0
  1  4  1  0
  5  6  1  0
  5  7  1  0
  8  9  1  0
  8 10  1  0
  8 11  1  0
 12 16  1  0
 16 17  2  0
 17 19  1  0
 19 21  2  0
 21 23  1  0
 23 25  2  0
 25 16  1  0
 12 13  1  0
 12 14  1  0
 12 15  1  0
 17 18  1  0
 19 20  1  0
 21 22  1  0
 23 24  1  0
 25 26  1  0
M  CHG  1   8   1
M  END
>  <PDB_ID>  (3296) 
pdb5m97

>  <RESIDUE_NAME>  (3296) 
LYS   PHE

>  <FRAG_NAME>  (3296) 
ETAM   MBZ

>  <FRAG_ATOM_NUM>  (3296) 
fragi: 11  fragj: 15

>  <atom.prop.CHAIN_ID>  (3296) 
A A A A A A A A A A A Z Z Z Z Z Z Z Z Z Z Z Z Z Z Z

>  <atom.prop.IS_HEAVY_ATOM>  (3296) 
1 0 0 0 1 0 0 1 0 0 0 1 0 0 0 1 1 0 1 0 1 0 1 0 1 0

>  <DIFUSE_FUNC_ATOM>  (3296) 
n/a

>  <FINAL_SINGLE_POINT_ENERGY>  (3296) 
0

>  <NONCOV_INTER_ENERGY_QM>  (3296) 
0

>  <FF_Energy>  (3296) 
-4.35

>  <QM_Energy>  (3296) 
-10.37

>  <source>  (3296) 
ETAM_MBZ

>  <Index>  (3296) 
36144

$$$$
ETAM-pdb6q8a-A-LYS-66:MBZ-pdb6q8a-A-PHE-71
     RDKit          3D

 26 25  0  0  0  0  0  0  0  0999 V2000
   -2.5088   -0.0241   -3.7225 C   0  0  0  0  0  0  0  0  0  0  0  0
   -2.2819   -0.0437   -2.7493 H   0  0  0  0  0  0  0  0  0  0  0  0
   -3.4996    0.0373   -3.8360 H   0  0  0  0  0  0  0  0  0  0  0  0
   -2.0515    0.8592   -4.1682 H   0  0  0  0  0  0  0  0  0  0  0  0
   -2.0259   -1.3134   -4.3602 C   0  0  0  0  0  0  0  0  0  0  0  0
   -2.7250   -2.0144   -4.2509 H   0  0  0  0  0  0  0  0  0  0  0  0
   -1.8512   -1.1549   -5.3287 H   0  0  0  0  0  0  0  0  0  0  0  0
   -0.7647   -1.7728   -3.7047 N   0  0  0  0  0  4  0  0  0  0  0  0
   -0.4833   -1.0979   -3.0237 H   0  0  0  0  0  0  0  0  0  0  0  0
   -0.9272   -2.6524   -3.2599 H   0  0  0  0  0  0  0  0  0  0  0  0
   -0.0510   -1.8715   -4.3969 H   0  0  0  0  0  0  0  0  0  0  0  0
    0.0010    2.9148    0.0031 C   0  0  0  0  0  0  0  0  0  0  0  0
   -0.7409    3.2215   -0.5712 H   0  0  0  0  0  0  0  0  0  0  0  0
    0.8753    3.2187   -0.3384 H   0  0  0  0  0  0  0  0  0  0  0  0
   -0.1404    3.3517    0.9916 H   0  0  0  0  0  0  0  0  0  0  0  0
   -0.0012    1.4027   -0.0011 C   0  0  0  0  0  0  0  0  0  0  0  0
   -1.1909    0.6949    0.0003 C   0  0  0  0  0  0  0  0  0  0  0  0
   -2.0615    1.1831   -0.0002 H   0  0  0  0  0  0  0  0  0  0  0  0
   -1.1979   -0.6965   -0.0000 C   0  0  0  0  0  0  0  0  0  0  0  0
   -2.0765   -1.1873    0.0014 H   0  0  0  0  0  0  0  0  0  0  0  0
    0.0002   -1.3968   -0.0001 C   0  0  0  0  0  0  0  0  0  0  0  0
   -0.0035   -2.3923   -0.0006 H   0  0  0  0  0  0  0  0  0  0  0  0
    1.1979   -0.6957    0.0000 C   0  0  0  0  0  0  0  0  0  0  0  0
    2.0808   -1.1934    0.0012 H   0  0  0  0  0  0  0  0  0  0  0  0
    1.1920    0.6913    0.0008 C   0  0  0  0  0  0  0  0  0  0  0  0
    2.0622    1.1888    0.0022 H   0  0  0  0  0  0  0  0  0  0  0  0
  1  5  1  0
  5  8  1  0
  1  2  1  0
  1  3  1  0
  1  4  1  0
  5  6  1  0
  5  7  1  0
  8  9  1  0
  8 10  1  0
  8 11  1  0
 12 16  1  0
 16 17  2  0
 17 19  1  0
 19 21  2  0
 21 23  1  0
 23 25  2  0
 25 16  1  0
 12 13  1  0
 12 14  1  0
 12 15  1  0
 17 18  1  0
 19 20  1  0
 21 22  1  0
 23 24  1  0
 25 26  1  0
M  CHG  1   8   1
M  END
>  <PDB_ID>  (3297) 
pdb6q8a

>  <RESIDUE_NAME>  (3297) 
LYS   PHE

>  <FRAG_NAME>  (3297) 
ETAM   MBZ

>  <FRAG_ATOM_NUM>  (3297) 
fragi: 11  fragj: 15

>  <atom.prop.CHAIN_ID>  (3297) 
A A A A A A A A A A A Z Z Z Z Z Z Z Z Z Z Z Z Z Z Z

>  <atom.prop.IS_HEAVY_ATOM>  (3297) 
1 0 0 0 1 0 0 1 0 0 0 1 0 0 0 1 1 0 1 0 1 0 1 0 1 0

>  <DIFUSE_FUNC_ATOM>  (3297) 
n/a

>  <FINAL_SINGLE_POINT_ENERGY>  (3297) 
0

>  <NONCOV_INTER_ENERGY_QM>  (3297) 
0

>  <FF_Energy>  (3297) 
-5.2

>  <QM_Energy>  (3297) 
-10.26

>  <source>  (3297) 
ETAM_MBZ

>  <Index>  (3297) 
36168

$$$$
ETAM-pdb6q8a-A-LYS-365:MBZ-pdb6q8a-A-PHE-355
     RDKit          3D

 26 25  0  0  0  0  0  0  0  0999 V2000
   -2.2516   -0.3141    3.6580 C   0  0  0  0  0  0  0  0  0  0  0  0
   -2.4051   -1.2623    3.4199 H   0  0  0  0  0  0  0  0  0  0  0  0
   -2.4425    0.2826    2.8927 H   0  0  0  0  0  0  0  0  0  0  0  0
   -2.9007   -0.0459    4.4915 H   0  0  0  0  0  0  0  0  0  0  0  0
   -0.7978   -0.1424    4.0572 C   0  0  0  0  0  0  0  0  0  0  0  0
   -0.6016    0.8388    4.1498 H   0  0  0  0  0  0  0  0  0  0  0  0
   -0.6532   -0.5839    4.9487 H   0  0  0  0  0  0  0  0  0  0  0  0
    0.1146   -0.7339    3.0621 N   0  0  0  0  0  4  0  0  0  0  0  0
    1.0333   -0.3500    3.1740 H   0  0  0  0  0  0  0  0  0  0  0  0
    0.1551   -1.7275    3.1882 H   0  0  0  0  0  0  0  0  0  0  0  0
   -0.2160   -0.5326    2.1373 H   0  0  0  0  0  0  0  0  0  0  0  0
   -0.0040    2.9037    0.0118 C   0  0  0  0  0  0  0  0  0  0  0  0
   -0.8763    3.2120   -0.3318 H   0  0  0  0  0  0  0  0  0  0  0  0
    0.7422    3.2200   -0.5523 H   0  0  0  0  0  0  0  0  0  0  0  0
    0.1298    3.3254    1.0080 H   0  0  0  0  0  0  0  0  0  0  0  0
    0.0007    1.3999   -0.0085 C   0  0  0  0  0  0  0  0  0  0  0  0
   -1.1904    0.6900    0.0025 C   0  0  0  0  0  0  0  0  0  0  0  0
   -2.0605    1.1787    0.0110 H   0  0  0  0  0  0  0  0  0  0  0  0
   -1.1939   -0.6983    0.0000 C   0  0  0  0  0  0  0  0  0  0  0  0
   -2.0751   -1.1895   -0.0014 H   0  0  0  0  0  0  0  0  0  0  0  0
   -0.0026   -1.3910    0.0013 C   0  0  0  0  0  0  0  0  0  0  0  0
   -0.0040   -2.3914    0.0022 H   0  0  0  0  0  0  0  0  0  0  0  0
    1.1939   -0.6957   -0.0000 C   0  0  0  0  0  0  0  0  0  0  0  0
    2.0773   -1.1932   -0.0033 H   0  0  0  0  0  0  0  0  0  0  0  0
    1.1922    0.6952    0.0046 C   0  0  0  0  0  0  0  0  0  0  0  0
    2.0621    1.1880    0.0172 H   0  0  0  0  0  0  0  0  0  0  0  0
  1  5  1  0
  5  8  1  0
  1  2  1  0
  1  3  1  0
  1  4  1  0
  5  6  1  0
  5  7  1  0
  8  9  1  0
  8 10  1  0
  8 11  1  0
 12 16  1  0
 16 17  2  0
 17 19  1  0
 19 21  2  0
 21 23  1  0
 23 25  2  0
 25 16  1  0
 12 13  1  0
 12 14  1  0
 12 15  1  0
 17 18  1  0
 19 20  1  0
 21 22  1  0
 23 24  1  0
 25 26  1  0
M  CHG  1   8   1
M  END
>  <PDB_ID>  (3298) 
pdb6q8a

>  <RESIDUE_NAME>  (3298) 
LYS   PHE

>  <FRAG_NAME>  (3298) 
ETAM   MBZ

>  <FRAG_ATOM_NUM>  (3298) 
fragi: 11  fragj: 15

>  <atom.prop.CHAIN_ID>  (3298) 
A A A A A A A A A A A Z Z Z Z Z Z Z Z Z Z Z Z Z Z Z

>  <atom.prop.IS_HEAVY_ATOM>  (3298) 
1 0 0 0 1 0 0 1 0 0 0 1 0 0 0 1 1 0 1 0 1 0 1 0 1 0

>  <DIFUSE_FUNC_ATOM>  (3298) 
n/a

>  <FINAL_SINGLE_POINT_ENERGY>  (3298) 
0

>  <NONCOV_INTER_ENERGY_QM>  (3298) 
0

>  <FF_Energy>  (3298) 
-9.37

>  <QM_Energy>  (3298) 
-17.37

>  <source>  (3298) 
ETAM_MBZ

>  <Index>  (3298) 
36169

$$$$
ETAM-pdb5mc7-A-LYS-70:MBZ-pdb5mc7-A-PHE-98
     RDKit          3D

 26 25  0  0  0  0  0  0  0  0999 V2000
    1.1492    1.4288    3.6685 C   0  0  0  0  0  0  0  0  0  0  0  0
    0.7584    1.9511    4.4514 H   0  0  0  0  0  0  0  0  0  0  0  0
    0.9740    1.9865    2.8334 H   0  0  0  0  0  0  0  0  0  0  0  0
    2.2283    1.3736    3.8117 H   0  0  0  0  0  0  0  0  0  0  0  0
    0.4076    0.1266    3.5412 C   0  0  0  0  0  0  0  0  0  0  0  0
    0.6055   -0.2697    2.6278 H   0  0  0  0  0  0  0  0  0  0  0  0
    0.7720   -0.5213    4.2326 H   0  0  0  0  0  0  0  0  0  0  0  0
   -1.0255    0.2695    3.7118 N   0  0  0  0  0  4  0  0  0  0  0  0
   -1.5022    0.0801    2.8460 H   0  0  0  0  0  0  0  0  0  0  0  0
   -1.3615   -0.3731    4.4093 H   0  0  0  0  0  0  0  0  0  0  0  0
   -1.2528    1.2058    4.0036 H   0  0  0  0  0  0  0  0  0  0  0  0
    0.1021    2.8666   -0.0166 C   0  0  0  0  0  0  0  0  0  0  0  0
    0.9743    3.1079    0.3752 H   0  0  0  0  0  0  0  0  0  0  0  0
   -0.6483    3.2129    0.5209 H   0  0  0  0  0  0  0  0  0  0  0  0
    0.0405    3.3056   -1.0123 H   0  0  0  0  0  0  0  0  0  0  0  0
    0.0043    1.3549   -0.0211 C   0  0  0  0  0  0  0  0  0  0  0  0
   -1.1139    0.7624    0.0200 C   0  0  0  0  0  0  0  0  0  0  0  0
   -2.0077    1.2180    0.0655 H   0  0  0  0  0  0  0  0  0  0  0  0
   -1.1617   -0.6755   -0.0000 C   0  0  0  0  0  0  0  0  0  0  0  0
   -2.0935   -1.0862   -0.0128 H   0  0  0  0  0  0  0  0  0  0  0  0
   -0.0638   -1.3688    0.0000 C   0  0  0  0  0  0  0  0  0  0  0  0
   -0.0680   -2.3864   -0.0006 H   0  0  0  0  0  0  0  0  0  0  0  0
    1.1617   -0.7274    0.0000 C   0  0  0  0  0  0  0  0  0  0  0  0
    2.0192   -1.2450    0.0008 H   0  0  0  0  0  0  0  0  0  0  0  0
    1.1734    0.6544    0.0010 C   0  0  0  0  0  0  0  0  0  0  0  0
    2.0527    1.1370    0.0176 H   0  0  0  0  0  0  0  0  0  0  0  0
  1  5  1  0
  5  8  1  0
  1  2  1  0
  1  3  1  0
  1  4  1  0
  5  6  1  0
  5  7  1  0
  8  9  1  0
  8 10  1  0
  8 11  1  0
 12 16  1  0
 16 17  2  0
 17 19  1  0
 19 21  2  0
 21 23  1  0
 23 25  2  0
 25 16  1  0
 12 13  1  0
 12 14  1  0
 12 15  1  0
 17 18  1  0
 19 20  1  0
 21 22  1  0
 23 24  1  0
 25 26  1  0
M  CHG  1   8   1
M  END
>  <PDB_ID>  (3299) 
pdb5mc7

>  <RESIDUE_NAME>  (3299) 
LYS   PHE

>  <FRAG_NAME>  (3299) 
ETAM   MBZ

>  <FRAG_ATOM_NUM>  (3299) 
fragi: 11  fragj: 15

>  <atom.prop.CHAIN_ID>  (3299) 
A A A A A A A A A A A Z Z Z Z Z Z Z Z Z Z Z Z Z Z Z

>  <atom.prop.IS_HEAVY_ATOM>  (3299) 
1 0 0 0 1 0 0 1 0 0 0 1 0 0 0 1 1 0 1 0 1 0 1 0 1 0

>  <DIFUSE_FUNC_ATOM>  (3299) 
n/a

>  <FINAL_SINGLE_POINT_ENERGY>  (3299) 
0

>  <NONCOV_INTER_ENERGY_QM>  (3299) 
0

>  <FF_Energy>  (3299) 
-7.19

>  <QM_Energy>  (3299) 
-12.79

>  <source>  (3299) 
ETAM_MBZ

>  <Index>  (3299) 
36173

$$$$
ETAM-pdb5mc9-A-LYS-2397:MBZ-pdb5mc9-A-PHE-2412
     RDKit          3D

 26 25  0  0  0  0  0  0  0  0999 V2000
    2.0327   -3.0173   -2.4566 C   0  0  0  0  0  0  0  0  0  0  0  0
    2.8215   -3.4273   -2.8454 H   0  0  0  0  0  0  0  0  0  0  0  0
    2.2911   -2.3599   -1.7919 H   0  0  0  0  0  0  0  0  0  0  0  0
    1.4591   -2.5266   -3.2429 H   0  0  0  0  0  0  0  0  0  0  0  0
    1.2248   -4.1049   -1.7616 C   0  0  0  0  0  0  0  0  0  0  0  0
    0.3531   -3.7493   -1.5285 H   0  0  0  0  0  0  0  0  0  0  0  0
    1.1250   -4.8580   -2.3648 H   0  0  0  0  0  0  0  0  0  0  0  0
    1.8709   -4.6004   -0.5091 N   0  0  0  0  0  4  0  0  0  0  0  0
    1.3668   -5.2319   -0.1368 H   0  0  0  0  0  0  0  0  0  0  0  0
    2.6723   -4.9401   -0.6943 H   0  0  0  0  0  0  0  0  0  0  0  0
    1.9672   -3.9300    0.0681 H   0  0  0  0  0  0  0  0  0  0  0  0
   -0.0025    2.8939    0.0051 C   0  0  0  0  0  0  0  0  0  0  0  0
    0.8149    3.1893    0.4343 H   0  0  0  0  0  0  0  0  0  0  0  0
   -0.7690    3.1846    0.5234 H   0  0  0  0  0  0  0  0  0  0  0  0
   -0.0593    3.3445   -0.9858 H   0  0  0  0  0  0  0  0  0  0  0  0
    0.0013    1.3931   -0.0030 C   0  0  0  0  0  0  0  0  0  0  0  0
   -1.1905    0.6845    0.0014 C   0  0  0  0  0  0  0  0  0  0  0  0
   -1.9982    1.1460    0.0014 H   0  0  0  0  0  0  0  0  0  0  0  0
   -1.1939   -0.6950    0.0000 C   0  0  0  0  0  0  0  0  0  0  0  0
   -2.0003   -1.1577   -0.0005 H   0  0  0  0  0  0  0  0  0  0  0  0
   -0.0020   -1.3835    0.0007 C   0  0  0  0  0  0  0  0  0  0  0  0
   -0.0017   -2.3139   -0.0010 H   0  0  0  0  0  0  0  0  0  0  0  0
    1.1939   -0.6904   -0.0000 C   0  0  0  0  0  0  0  0  0  0  0  0
    1.9997   -1.1542    0.0001 H   0  0  0  0  0  0  0  0  0  0  0  0
    1.1912    0.6912    0.0010 C   0  0  0  0  0  0  0  0  0  0  0  0
    1.9986    1.1530    0.0010 H   0  0  0  0  0  0  0  0  0  0  0  0
  1  5  1  0
  5  8  1  0
  1  2  1  0
  1  3  1  0
  1  4  1  0
  5  6  1  0
  5  7  1  0
  8  9  1  0
  8 10  1  0
  8 11  1  0
 12 16  1  0
 16 17  2  0
 17 19  1  0
 19 21  2  0
 21 23  1  0
 23 25  2  0
 25 16  1  0
 12 13  1  0
 12 14  1  0
 12 15  1  0
 17 18  1  0
 19 20  1  0
 21 22  1  0
 23 24  1  0
 25 26  1  0
M  CHG  1   8   1
M  END
>  <PDB_ID>  (3300) 
pdb5mc9

>  <RESIDUE_NAME>  (3300) 
LYS   PHE

>  <FRAG_NAME>  (3300) 
ETAM   MBZ

>  <FRAG_ATOM_NUM>  (3300) 
fragi: 11  fragj: 15

>  <atom.prop.CHAIN_ID>  (3300) 
A A A A A A A A A A A Z Z Z Z Z Z Z Z Z Z Z Z Z Z Z

>  <atom.prop.IS_HEAVY_ATOM>  (3300) 
1 0 0 0 1 0 0 1 0 0 0 1 0 0 0 1 1 0 1 0 1 0 1 0 1 0

>  <DIFUSE_FUNC_ATOM>  (3300) 
n/a

>  <FINAL_SINGLE_POINT_ENERGY>  (3300) 
0

>  <NONCOV_INTER_ENERGY_QM>  (3300) 
0

>  <FF_Energy>  (3300) 
1.18

>  <QM_Energy>  (3300) 
-4.01

>  <source>  (3300) 
ETAM_MBZ

>  <Index>  (3300) 
36176

$$$$
ETAM-pdb5mc9-A-LYS-2420:MBZ-pdb5mc9-A-PHE-2412
     RDKit          3D

 26 25  0  0  0  0  0  0  0  0999 V2000
   -3.3549    1.6927    3.8385 C   0  0  0  0  0  0  0  0  0  0  0  0
   -2.7754    1.8930    4.5907 H   0  0  0  0  0  0  0  0  0  0  0  0
   -4.2848    1.7223    4.1148 H   0  0  0  0  0  0  0  0  0  0  0  0
   -3.1898    2.4298    3.0527 H   0  0  0  0  0  0  0  0  0  0  0  0
   -3.0458    0.2825    3.3609 C   0  0  0  0  0  0  0  0  0  0  0  0
   -3.3519   -0.3541    4.0267 H   0  0  0  0  0  0  0  0  0  0  0  0
   -3.4972    0.1255    2.5171 H   0  0  0  0  0  0  0  0  0  0  0  0
   -1.5845    0.0680    3.1517 N   0  0  0  0  0  4  0  0  0  0  0  0
   -1.1455    0.1999    3.9151 H   0  0  0  0  0  0  0  0  0  0  0  0
   -1.4361   -0.7643    2.8736 H   0  0  0  0  0  0  0  0  0  0  0  0
   -1.2789    0.6365    2.5393 H   0  0  0  0  0  0  0  0  0  0  0  0
   -0.0025    2.8939    0.0051 C   0  0  0  0  0  0  0  0  0  0  0  0
    0.8149    3.1893    0.4343 H   0  0  0  0  0  0  0  0  0  0  0  0
   -0.7690    3.1846    0.5234 H   0  0  0  0  0  0  0  0  0  0  0  0
   -0.0593    3.3445   -0.9858 H   0  0  0  0  0  0  0  0  0  0  0  0
    0.0013    1.3931   -0.0030 C   0  0  0  0  0  0  0  0  0  0  0  0
   -1.1905    0.6845    0.0014 C   0  0  0  0  0  0  0  0  0  0  0  0
   -1.9982    1.1460    0.0014 H   0  0  0  0  0  0  0  0  0  0  0  0
   -1.1939   -0.6950    0.0000 C   0  0  0  0  0  0  0  0  0  0  0  0
   -2.0003   -1.1577   -0.0005 H   0  0  0  0  0  0  0  0  0  0  0  0
   -0.0020   -1.3835    0.0007 C   0  0  0  0  0  0  0  0  0  0  0  0
   -0.0017   -2.3139   -0.0010 H   0  0  0  0  0  0  0  0  0  0  0  0
    1.1939   -0.6904   -0.0000 C   0  0  0  0  0  0  0  0  0  0  0  0
    1.9997   -1.1542    0.0001 H   0  0  0  0  0  0  0  0  0  0  0  0
    1.1912    0.6912    0.0010 C   0  0  0  0  0  0  0  0  0  0  0  0
    1.9986    1.1530    0.0010 H   0  0  0  0  0  0  0  0  0  0  0  0
  1  5  1  0
  5  8  1  0
  1  2  1  0
  1  3  1  0
  1  4  1  0
  5  6  1  0
  5  7  1  0
  8  9  1  0
  8 10  1  0
  8 11  1  0
 12 16  1  0
 16 17  2  0
 17 19  1  0
 19 21  2  0
 21 23  1  0
 23 25  2  0
 25 16  1  0
 12 13  1  0
 12 14  1  0
 12 15  1  0
 17 18  1  0
 19 20  1  0
 21 22  1  0
 23 24  1  0
 25 26  1  0
M  CHG  1   8   1
M  END
>  <PDB_ID>  (3301) 
pdb5mc9

>  <RESIDUE_NAME>  (3301) 
LYS   PHE

>  <FRAG_NAME>  (3301) 
ETAM   MBZ

>  <FRAG_ATOM_NUM>  (3301) 
fragi: 11  fragj: 15

>  <atom.prop.CHAIN_ID>  (3301) 
A A A A A A A A A A A Z Z Z Z Z Z Z Z Z Z Z Z Z Z Z

>  <atom.prop.IS_HEAVY_ATOM>  (3301) 
1 0 0 0 1 0 0 1 0 0 0 1 0 0 0 1 1 0 1 0 1 0 1 0 1 0

>  <DIFUSE_FUNC_ATOM>  (3301) 
n/a

>  <FINAL_SINGLE_POINT_ENERGY>  (3301) 
0

>  <NONCOV_INTER_ENERGY_QM>  (3301) 
0

>  <FF_Energy>  (3301) 
-6.38

>  <QM_Energy>  (3301) 
-13.12

>  <source>  (3301) 
ETAM_MBZ

>  <Index>  (3301) 
36177

$$$$
ETAM-pdb6peu-A-LYS-76:MBZ-pdb6peu-A-PHE-19
     RDKit          3D

 26 25  0  0  0  0  0  0  0  0999 V2000
   -0.6808   -0.7792   -3.5625 C   0  0  0  0  0  0  0  0  0  0  0  0
   -0.1991   -0.1840   -4.1967 H   0  0  0  0  0  0  0  0  0  0  0  0
   -0.5413   -0.4762   -2.6268 H   0  0  0  0  0  0  0  0  0  0  0  0
   -1.7465   -0.7337   -3.7871 H   0  0  0  0  0  0  0  0  0  0  0  0
   -0.1522   -2.1850   -3.7084 C   0  0  0  0  0  0  0  0  0  0  0  0
   -0.6890   -2.8056   -3.1172 H   0  0  0  0  0  0  0  0  0  0  0  0
   -0.2748   -2.4895   -4.6649 H   0  0  0  0  0  0  0  0  0  0  0  0
    1.2990   -2.3220   -3.3483 N   0  0  0  0  0  4  0  0  0  0  0  0
    1.6195   -1.4629   -2.9553 H   0  0  0  0  0  0  0  0  0  0  0  0
    1.4007   -3.0589   -2.6832 H   0  0  0  0  0  0  0  0  0  0  0  0
    1.8201   -2.5335   -4.1725 H   0  0  0  0  0  0  0  0  0  0  0  0
   -0.0012    2.9203   -0.0041 C   0  0  0  0  0  0  0  0  0  0  0  0
   -0.5007    3.2169   -0.8034 H   0  0  0  0  0  0  0  0  0  0  0  0
    0.9393    3.2233   -0.0326 H   0  0  0  0  0  0  0  0  0  0  0  0
   -0.4704    3.3742    0.8687 H   0  0  0  0  0  0  0  0  0  0  0  0
   -0.0024    1.4095    0.0110 C   0  0  0  0  0  0  0  0  0  0  0  0
   -1.2086    0.6864   -0.0038 C   0  0  0  0  0  0  0  0  0  0  0  0
   -2.0725    1.1791   -0.0184 H   0  0  0  0  0  0  0  0  0  0  0  0
   -1.2100   -0.7038    0.0000 C   0  0  0  0  0  0  0  0  0  0  0  0
   -2.0792   -1.2039    0.0078 H   0  0  0  0  0  0  0  0  0  0  0  0
    0.0051   -1.3981   -0.0051 C   0  0  0  0  0  0  0  0  0  0  0  0
    0.0041   -2.3944   -0.0131 H   0  0  0  0  0  0  0  0  0  0  0  0
    1.2100   -0.6941    0.0000 C   0  0  0  0  0  0  0  0  0  0  0  0
    2.0902   -1.1917    0.0064 H   0  0  0  0  0  0  0  0  0  0  0  0
    1.2058    0.7000   -0.0020 C   0  0  0  0  0  0  0  0  0  0  0  0
    2.0682    1.1987   -0.0142 H   0  0  0  0  0  0  0  0  0  0  0  0
  1  5  1  0
  5  8  1  0
  1  2  1  0
  1  3  1  0
  1  4  1  0
  5  6  1  0
  5  7  1  0
  8  9  1  0
  8 10  1  0
  8 11  1  0
 12 16  1  0
 16 17  2  0
 17 19  1  0
 19 21  2  0
 21 23  1  0
 23 25  2  0
 25 16  1  0
 12 13  1  0
 12 14  1  0
 12 15  1  0
 17 18  1  0
 19 20  1  0
 21 22  1  0
 23 24  1  0
 25 26  1  0
M  CHG  1   8   1
M  END
>  <PDB_ID>  (3302) 
pdb6peu

>  <RESIDUE_NAME>  (3302) 
LYS   PHE

>  <FRAG_NAME>  (3302) 
ETAM   MBZ

>  <FRAG_ATOM_NUM>  (3302) 
fragi: 11  fragj: 15

>  <atom.prop.CHAIN_ID>  (3302) 
A A A A A A A A A A A Z Z Z Z Z Z Z Z Z Z Z Z Z Z Z

>  <atom.prop.IS_HEAVY_ATOM>  (3302) 
1 0 0 0 1 0 0 1 0 0 0 1 0 0 0 1 1 0 1 0 1 0 1 0 1 0

>  <DIFUSE_FUNC_ATOM>  (3302) 
n/a

>  <FINAL_SINGLE_POINT_ENERGY>  (3302) 
0

>  <NONCOV_INTER_ENERGY_QM>  (3302) 
0

>  <FF_Energy>  (3302) 
-4.26

>  <QM_Energy>  (3302) 
-10.56

>  <source>  (3302) 
ETAM_MBZ

>  <Index>  (3302) 
36187

$$$$
ETAM-pdb5mek-A-LYS-93:MBZ-pdb5mek-A-PHE-189
     RDKit          3D

 26 25  0  0  0  0  0  0  0  0999 V2000
    2.1915    1.3597   -3.6294 C   0  0  0  0  0  0  0  0  0  0  0  0
    2.2672    0.5278   -4.1678 H   0  0  0  0  0  0  0  0  0  0  0  0
    2.5805    1.2278   -2.7256 H   0  0  0  0  0  0  0  0  0  0  0  0
    2.7713    2.1341   -4.1317 H   0  0  0  0  0  0  0  0  0  0  0  0
    0.7141    1.7320   -3.4889 C   0  0  0  0  0  0  0  0  0  0  0  0
    0.6045    2.3884   -2.7482 H   0  0  0  0  0  0  0  0  0  0  0  0
    0.3866    2.1250   -4.3439 H   0  0  0  0  0  0  0  0  0  0  0  0
   -0.1544    0.5009   -3.1666 N   0  0  0  0  0  4  0  0  0  0  0  0
    0.0792    0.1927   -2.2536 H   0  0  0  0  0  0  0  0  0  0  0  0
   -1.1056    0.7767   -3.2153 H   0  0  0  0  0  0  0  0  0  0  0  0
    0.0465   -0.1993   -3.8384 H   0  0  0  0  0  0  0  0  0  0  0  0
    0.0152    2.8936   -0.0309 C   0  0  0  0  0  0  0  0  0  0  0  0
   -0.5117    3.1853   -0.8206 H   0  0  0  0  0  0  0  0  0  0  0  0
    0.9600    3.1893   -0.1136 H   0  0  0  0  0  0  0  0  0  0  0  0
   -0.4079    3.3817    0.8471 H   0  0  0  0  0  0  0  0  0  0  0  0
    0.0010    1.3922    0.0086 C   0  0  0  0  0  0  0  0  0  0  0  0
   -1.1870    0.6907   -0.0059 C   0  0  0  0  0  0  0  0  0  0  0  0
   -2.0555    1.1856   -0.0225 H   0  0  0  0  0  0  0  0  0  0  0  0
   -1.1920   -0.6849   -0.0000 C   0  0  0  0  0  0  0  0  0  0  0  0
   -2.0740   -1.1818    0.0028 H   0  0  0  0  0  0  0  0  0  0  0  0
   -0.0031   -1.3826    0.0045 C   0  0  0  0  0  0  0  0  0  0  0  0
   -0.0121   -2.3843    0.0109 H   0  0  0  0  0  0  0  0  0  0  0  0
    1.1920   -0.6971    0.0000 C   0  0  0  0  0  0  0  0  0  0  0  0
    2.0733   -1.1992    0.0035 H   0  0  0  0  0  0  0  0  0  0  0  0
    1.1891    0.6817   -0.0071 C   0  0  0  0  0  0  0  0  0  0  0  0
    2.0607    1.1801   -0.0248 H   0  0  0  0  0  0  0  0  0  0  0  0
  1  5  1  0
  5  8  1  0
  1  2  1  0
  1  3  1  0
  1  4  1  0
  5  6  1  0
  5  7  1  0
  8  9  1  0
  8 10  1  0
  8 11  1  0
 12 16  1  0
 16 17  2  0
 17 19  1  0
 19 21  2  0
 21 23  1  0
 23 25  2  0
 25 16  1  0
 12 13  1  0
 12 14  1  0
 12 15  1  0
 17 18  1  0
 19 20  1  0
 21 22  1  0
 23 24  1  0
 25 26  1  0
M  CHG  1   8   1
M  END
>  <PDB_ID>  (3303) 
pdb5mek

>  <RESIDUE_NAME>  (3303) 
LYS   PHE

>  <FRAG_NAME>  (3303) 
ETAM   MBZ

>  <FRAG_ATOM_NUM>  (3303) 
fragi: 11  fragj: 15

>  <atom.prop.CHAIN_ID>  (3303) 
A A A A A A A A A A A Z Z Z Z Z Z Z Z Z Z Z Z Z Z Z

>  <atom.prop.IS_HEAVY_ATOM>  (3303) 
1 0 0 0 1 0 0 1 0 0 0 1 0 0 0 1 1 0 1 0 1 0 1 0 1 0

>  <DIFUSE_FUNC_ATOM>  (3303) 
n/a

>  <FINAL_SINGLE_POINT_ENERGY>  (3303) 
0

>  <NONCOV_INTER_ENERGY_QM>  (3303) 
0

>  <FF_Energy>  (3303) 
-9.92

>  <QM_Energy>  (3303) 
-17.02

>  <source>  (3303) 
ETAM_MBZ

>  <Index>  (3303) 
36192

$$$$
ETAM-pdb5m6d-A-LYS-81:MBZ-pdb5m6d-A-PHE-91
     RDKit          3D

 26 25  0  0  0  0  0  0  0  0999 V2000
   -4.8555    1.8615   -0.7177 C   0  0  0  0  0  0  0  0  0  0  0  0
   -5.2256    2.7209   -0.4615 H   0  0  0  0  0  0  0  0  0  0  0  0
   -4.0718    1.6665   -0.1820 H   0  0  0  0  0  0  0  0  0  0  0  0
   -5.6042    1.0893   -0.5409 H   0  0  0  0  0  0  0  0  0  0  0  0
   -4.4123    1.9606   -2.1785 C   0  0  0  0  0  0  0  0  0  0  0  0
   -5.1571    1.7121   -2.7478 H   0  0  0  0  0  0  0  0  0  0  0  0
   -4.1490    2.8756   -2.3626 H   0  0  0  0  0  0  0  0  0  0  0  0
   -3.2624    1.0797   -2.5248 N   0  0  0  0  0  4  0  0  0  0  0  0
   -3.0504    1.1807   -3.3834 H   0  0  0  0  0  0  0  0  0  0  0  0
   -2.5567    1.2909   -2.0262 H   0  0  0  0  0  0  0  0  0  0  0  0
   -3.4763    0.2286   -2.3778 H   0  0  0  0  0  0  0  0  0  0  0  0
    0.0007    2.8959   -0.0011 C   0  0  0  0  0  0  0  0  0  0  0  0
   -0.7582    3.1917   -0.5265 H   0  0  0  0  0  0  0  0  0  0  0  0
    0.8247    3.1919   -0.4195 H   0  0  0  0  0  0  0  0  0  0  0  0
   -0.0667    3.3375    0.9931 H   0  0  0  0  0  0  0  0  0  0  0  0
    0.0004    1.3936    0.0000 C   0  0  0  0  0  0  0  0  0  0  0  0
   -1.1894    0.6888   -0.0001 C   0  0  0  0  0  0  0  0  0  0  0  0
   -1.9973    1.1508    0.0003 H   0  0  0  0  0  0  0  0  0  0  0  0
   -1.1944   -0.6917   -0.0000 C   0  0  0  0  0  0  0  0  0  0  0  0
   -2.0014   -1.1536    0.0005 H   0  0  0  0  0  0  0  0  0  0  0  0
   -0.0019   -1.3841    0.0001 C   0  0  0  0  0  0  0  0  0  0  0  0
   -0.0028   -2.3142    0.0004 H   0  0  0  0  0  0  0  0  0  0  0  0
    1.1944   -0.6939   -0.0000 C   0  0  0  0  0  0  0  0  0  0  0  0
    2.0000   -1.1581    0.0006 H   0  0  0  0  0  0  0  0  0  0  0  0
    1.1909    0.6873   -0.0001 C   0  0  0  0  0  0  0  0  0  0  0  0
    1.9997    1.1483   -0.0003 H   0  0  0  0  0  0  0  0  0  0  0  0
  1  5  1  0
  5  8  1  0
  1  2  1  0
  1  3  1  0
  1  4  1  0
  5  6  1  0
  5  7  1  0
  8  9  1  0
  8 10  1  0
  8 11  1  0
 12 16  1  0
 16 17  2  0
 17 19  1  0
 19 21  2  0
 21 23  1  0
 23 25  2  0
 25 16  1  0
 12 13  1  0
 12 14  1  0
 12 15  1  0
 17 18  1  0
 19 20  1  0
 21 22  1  0
 23 24  1  0
 25 26  1  0
M  CHG  1   8   1
M  END
>  <PDB_ID>  (3304) 
pdb5m6d

>  <RESIDUE_NAME>  (3304) 
LYS   PHE

>  <FRAG_NAME>  (3304) 
ETAM   MBZ

>  <FRAG_ATOM_NUM>  (3304) 
fragi: 11  fragj: 15

>  <atom.prop.CHAIN_ID>  (3304) 
A A A A A A A A A A A Z Z Z Z Z Z Z Z Z Z Z Z Z Z Z

>  <atom.prop.IS_HEAVY_ATOM>  (3304) 
1 0 0 0 1 0 0 1 0 0 0 1 0 0 0 1 1 0 1 0 1 0 1 0 1 0

>  <DIFUSE_FUNC_ATOM>  (3304) 
n/a

>  <FINAL_SINGLE_POINT_ENERGY>  (3304) 
0

>  <NONCOV_INTER_ENERGY_QM>  (3304) 
0

>  <FF_Energy>  (3304) 
-2.02

>  <QM_Energy>  (3304) 
-7.22

>  <source>  (3304) 
ETAM_MBZ

>  <Index>  (3304) 
36222

$$$$
ETAM-pdb6q63-A-LYS-744:MBZ-pdb6q63-A-PHE-709
     RDKit          3D

 26 25  0  0  0  0  0  0  0  0999 V2000
    0.4708    1.4159   -4.7267 C   0  0  0  0  0  0  0  0  0  0  0  0
    0.8647    2.3426   -4.7740 H   0  0  0  0  0  0  0  0  0  0  0  0
   -0.0709    1.2610   -5.5617 H   0  0  0  0  0  0  0  0  0  0  0  0
    1.2858    0.6927   -4.7007 H   0  0  0  0  0  0  0  0  0  0  0  0
   -0.4614    1.3518   -3.5333 C   0  0  0  0  0  0  0  0  0  0  0  0
    0.0875    1.3595   -2.6907 H   0  0  0  0  0  0  0  0  0  0  0  0
   -1.0510    2.1678   -3.5363 H   0  0  0  0  0  0  0  0  0  0  0  0
   -1.3094    0.1373   -3.5521 N   0  0  0  0  0  4  0  0  0  0  0  0
   -1.4691   -0.1450   -4.4984 H   0  0  0  0  0  0  0  0  0  0  0  0
   -0.8480   -0.6005   -3.0584 H   0  0  0  0  0  0  0  0  0  0  0  0
   -2.1865    0.3340   -3.1127 H   0  0  0  0  0  0  0  0  0  0  0  0
   -0.0029    2.9036   -0.0006 C   0  0  0  0  0  0  0  0  0  0  0  0
   -0.7495    3.2077   -0.5728 H   0  0  0  0  0  0  0  0  0  0  0  0
    0.8687    3.2104   -0.3524 H   0  0  0  0  0  0  0  0  0  0  0  0
   -0.1375    3.3436    0.9875 H   0  0  0  0  0  0  0  0  0  0  0  0
    0.0001    1.3983   -0.0024 C   0  0  0  0  0  0  0  0  0  0  0  0
   -1.1925    0.6897    0.0006 C   0  0  0  0  0  0  0  0  0  0  0  0
   -2.0609    1.1780    0.0024 H   0  0  0  0  0  0  0  0  0  0  0  0
   -1.1915   -0.6970    0.0000 C   0  0  0  0  0  0  0  0  0  0  0  0
   -2.0725   -1.1912    0.0016 H   0  0  0  0  0  0  0  0  0  0  0  0
   -0.0000   -1.3860   -0.0012 C   0  0  0  0  0  0  0  0  0  0  0  0
   -0.0029   -2.3894   -0.0036 H   0  0  0  0  0  0  0  0  0  0  0  0
    1.1915   -0.6962   -0.0000 C   0  0  0  0  0  0  0  0  0  0  0  0
    2.0775   -1.1946    0.0001 H   0  0  0  0  0  0  0  0  0  0  0  0
    1.1924    0.6911    0.0030 C   0  0  0  0  0  0  0  0  0  0  0  0
    2.0620    1.1846    0.0086 H   0  0  0  0  0  0  0  0  0  0  0  0
  1  5  1  0
  5  8  1  0
  1  2  1  0
  1  3  1  0
  1  4  1  0
  5  6  1  0
  5  7  1  0
  8  9  1  0
  8 10  1  0
  8 11  1  0
 12 16  1  0
 16 17  2  0
 17 19  1  0
 19 21  2  0
 21 23  1  0
 23 25  2  0
 25 16  1  0
 12 13  1  0
 12 14  1  0
 12 15  1  0
 17 18  1  0
 19 20  1  0
 21 22  1  0
 23 24  1  0
 25 26  1  0
M  CHG  1   8   1
M  END
>  <PDB_ID>  (3305) 
pdb6q63

>  <RESIDUE_NAME>  (3305) 
LYS   PHE

>  <FRAG_NAME>  (3305) 
ETAM   MBZ

>  <FRAG_ATOM_NUM>  (3305) 
fragi: 11  fragj: 15

>  <atom.prop.CHAIN_ID>  (3305) 
A A A A A A A A A A A Z Z Z Z Z Z Z Z Z Z Z Z Z Z Z

>  <atom.prop.IS_HEAVY_ATOM>  (3305) 
1 0 0 0 1 0 0 1 0 0 0 1 0 0 0 1 1 0 1 0 1 0 1 0 1 0

>  <DIFUSE_FUNC_ATOM>  (3305) 
n/a

>  <FINAL_SINGLE_POINT_ENERGY>  (3305) 
0

>  <NONCOV_INTER_ENERGY_QM>  (3305) 
0

>  <FF_Energy>  (3305) 
-6.81

>  <QM_Energy>  (3305) 
-12.04

>  <source>  (3305) 
ETAM_MBZ

>  <Index>  (3305) 
36262

$$$$
ETAM-pdb6qsz-G-LYS-1008:MBZ-pdb6qsz-G-PHE-1070
     RDKit          3D

 26 25  0  0  0  0  0  0  0  0999 V2000
    4.0281   -2.4075    0.2427 C   0  0  0  0  0  0  0  0  0  0  0  0
    3.1606   -2.3428    0.7651 H   0  0  0  0  0  0  0  0  0  0  0  0
    3.9599   -1.7585   -0.5340 H   0  0  0  0  0  0  0  0  0  0  0  0
    4.8378   -2.0735    0.8914 H   0  0  0  0  0  0  0  0  0  0  0  0
    4.1607   -3.7991   -0.3016 C   0  0  0  0  0  0  0  0  0  0  0  0
    4.8144   -3.8011   -1.0595 H   0  0  0  0  0  0  0  0  0  0  0  0
    4.4904   -4.4105    0.4197 H   0  0  0  0  0  0  0  0  0  0  0  0
    2.8484   -4.2986   -0.7951 N   0  0  0  0  0  4  0  0  0  0  0  0
    2.1149   -3.7347   -0.4166 H   0  0  0  0  0  0  0  0  0  0  0  0
    2.8289   -4.2476   -1.7932 H   0  0  0  0  0  0  0  0  0  0  0  0
    2.7243   -5.2468   -0.5053 H   0  0  0  0  0  0  0  0  0  0  0  0
    0.0002    2.8967    0.0571 C   0  0  0  0  0  0  0  0  0  0  0  0
    0.9188    3.1889    0.3531 H   0  0  0  0  0  0  0  0  0  0  0  0
   -0.6611    3.1703    0.7671 H   0  0  0  0  0  0  0  0  0  0  0  0
   -0.2436    3.4558   -0.8462 H   0  0  0  0  0  0  0  0  0  0  0  0
   -0.0009    1.4010   -0.0138 C   0  0  0  0  0  0  0  0  0  0  0  0
   -1.1916    0.6940    0.0054 C   0  0  0  0  0  0  0  0  0  0  0  0
   -2.0610    1.1773    0.0214 H   0  0  0  0  0  0  0  0  0  0  0  0
   -1.1912   -0.7018    0.0000 C   0  0  0  0  0  0  0  0  0  0  0  0
   -2.0713   -1.1929    0.0027 H   0  0  0  0  0  0  0  0  0  0  0  0
    0.0029   -1.3905   -0.0073 C   0  0  0  0  0  0  0  0  0  0  0  0
    0.0006   -2.3923   -0.0178 H   0  0  0  0  0  0  0  0  0  0  0  0
    1.1912   -0.6962    0.0000 C   0  0  0  0  0  0  0  0  0  0  0  0
    2.0792   -1.1909   -0.0041 H   0  0  0  0  0  0  0  0  0  0  0  0
    1.1896    0.6935    0.0157 C   0  0  0  0  0  0  0  0  0  0  0  0
    2.0596    1.1869    0.0479 H   0  0  0  0  0  0  0  0  0  0  0  0
  1  5  1  0
  5  8  1  0
  1  2  1  0
  1  3  1  0
  1  4  1  0
  5  6  1  0
  5  7  1  0
  8  9  1  0
  8 10  1  0
  8 11  1  0
 12 16  1  0
 16 17  2  0
 17 19  1  0
 19 21  2  0
 21 23  1  0
 23 25  2  0
 25 16  1  0
 12 13  1  0
 12 14  1  0
 12 15  1  0
 17 18  1  0
 19 20  1  0
 21 22  1  0
 23 24  1  0
 25 26  1  0
M  CHG  1   8   1
M  END
>  <PDB_ID>  (3306) 
pdb6qsz

>  <RESIDUE_NAME>  (3306) 
LYS   PHE

>  <FRAG_NAME>  (3306) 
ETAM   MBZ

>  <FRAG_ATOM_NUM>  (3306) 
fragi: 11  fragj: 15

>  <atom.prop.CHAIN_ID>  (3306) 
A A A A A A A A A A A Z Z Z Z Z Z Z Z Z Z Z Z Z Z Z

>  <atom.prop.IS_HEAVY_ATOM>  (3306) 
1 0 0 0 1 0 0 1 0 0 0 1 0 0 0 1 1 0 1 0 1 0 1 0 1 0

>  <DIFUSE_FUNC_ATOM>  (3306) 
n/a

>  <FINAL_SINGLE_POINT_ENERGY>  (3306) 
0

>  <NONCOV_INTER_ENERGY_QM>  (3306) 
0

>  <FF_Energy>  (3306) 
9.29

>  <QM_Energy>  (3306) 
0.16

>  <source>  (3306) 
ETAM_MBZ

>  <Index>  (3306) 
36271

$$$$
ETAM-pdb6qwq-A-LYS-179:MBZ-pdb6qwq-A-PHE-175
     RDKit          3D

 26 25  0  0  0  0  0  0  0  0999 V2000
   -0.0944   -0.7554    3.5229 C   0  0  0  0  0  0  0  0  0  0  0  0
   -0.0798   -1.4586    2.8550 H   0  0  0  0  0  0  0  0  0  0  0  0
   -0.3438    0.0873    3.1109 H   0  0  0  0  0  0  0  0  0  0  0  0
   -0.8185   -1.0071    4.2977 H   0  0  0  0  0  0  0  0  0  0  0  0
    1.2931   -0.6123    4.0903 C   0  0  0  0  0  0  0  0  0  0  0  0
    1.3718    0.2479    4.5319 H   0  0  0  0  0  0  0  0  0  0  0  0
    1.4554   -1.3271    4.7251 H   0  0  0  0  0  0  0  0  0  0  0  0
    2.3273   -0.6867    3.0313 N   0  0  0  0  0  4  0  0  0  0  0  0
    2.1954   -0.0430    2.4320 H   0  0  0  0  0  0  0  0  0  0  0  0
    2.2866   -1.4763    2.6216 H   0  0  0  0  0  0  0  0  0  0  0  0
    3.1364   -0.5880    3.3891 H   0  0  0  0  0  0  0  0  0  0  0  0
    0.0112    2.9080    0.0068 C   0  0  0  0  0  0  0  0  0  0  0  0
   -0.1700    3.2023   -0.8995 H   0  0  0  0  0  0  0  0  0  0  0  0
    0.8965    3.1966    0.2780 H   0  0  0  0  0  0  0  0  0  0  0  0
   -0.7221    3.3613    0.6737 H   0  0  0  0  0  0  0  0  0  0  0  0
    0.0020    1.3998    0.0075 C   0  0  0  0  0  0  0  0  0  0  0  0
   -1.1938    0.6895   -0.0030 C   0  0  0  0  0  0  0  0  0  0  0  0
   -2.0010    1.1506   -0.0116 H   0  0  0  0  0  0  0  0  0  0  0  0
   -1.1964   -0.6995   -0.0000 C   0  0  0  0  0  0  0  0  0  0  0  0
   -2.0024   -1.1635    0.0044 H   0  0  0  0  0  0  0  0  0  0  0  0
   -0.0014   -1.3884   -0.0035 C   0  0  0  0  0  0  0  0  0  0  0  0
   -0.0008   -2.3184   -0.0075 H   0  0  0  0  0  0  0  0  0  0  0  0
    1.1964   -0.6939    0.0000 C   0  0  0  0  0  0  0  0  0  0  0  0
    2.0026   -1.1571    0.0025 H   0  0  0  0  0  0  0  0  0  0  0  0
    1.1932    0.6925   -0.0011 C   0  0  0  0  0  0  0  0  0  0  0  0
    2.0008    1.1537   -0.0076 H   0  0  0  0  0  0  0  0  0  0  0  0
  1  5  1  0
  5  8  1  0
  1  2  1  0
  1  3  1  0
  1  4  1  0
  5  6  1  0
  5  7  1  0
  8  9  1  0
  8 10  1  0
  8 11  1  0
 12 16  1  0
 16 17  2  0
 17 19  1  0
 19 21  2  0
 21 23  1  0
 23 25  2  0
 25 16  1  0
 12 13  1  0
 12 14  1  0
 12 15  1  0
 17 18  1  0
 19 20  1  0
 21 22  1  0
 23 24  1  0
 25 26  1  0
M  CHG  1   8   1
M  END
>  <PDB_ID>  (3307) 
pdb6qwq

>  <RESIDUE_NAME>  (3307) 
LYS   PHE

>  <FRAG_NAME>  (3307) 
ETAM   MBZ

>  <FRAG_ATOM_NUM>  (3307) 
fragi: 11  fragj: 15

>  <atom.prop.CHAIN_ID>  (3307) 
A A A A A A A A A A A Z Z Z Z Z Z Z Z Z Z Z Z Z Z Z

>  <atom.prop.IS_HEAVY_ATOM>  (3307) 
1 0 0 0 1 0 0 1 0 0 0 1 0 0 0 1 1 0 1 0 1 0 1 0 1 0

>  <DIFUSE_FUNC_ATOM>  (3307) 
n/a

>  <FINAL_SINGLE_POINT_ENERGY>  (3307) 
0

>  <NONCOV_INTER_ENERGY_QM>  (3307) 
0

>  <FF_Energy>  (3307) 
-4.93

>  <QM_Energy>  (3307) 
-11.88

>  <source>  (3307) 
ETAM_MBZ

>  <Index>  (3307) 
36301

$$$$
ETAM-pdb6r1g-A-LYS-94:MBZ-pdb6r1g-A-PHE-122
     RDKit          3D

 26 25  0  0  0  0  0  0  0  0999 V2000
   -1.4950   -2.4143    5.5463 C   0  0  0  0  0  0  0  0  0  0  0  0
   -1.8132   -2.2954    6.4971 H   0  0  0  0  0  0  0  0  0  0  0  0
   -0.5836   -2.8471    5.5752 H   0  0  0  0  0  0  0  0  0  0  0  0
   -2.1804   -3.0949    5.0412 H   0  0  0  0  0  0  0  0  0  0  0  0
   -1.3612   -1.0487    4.9072 C   0  0  0  0  0  0  0  0  0  0  0  0
   -2.1348   -0.4837    5.1845 H   0  0  0  0  0  0  0  0  0  0  0  0
   -0.5095   -0.6294    5.2121 H   0  0  0  0  0  0  0  0  0  0  0  0
   -1.3486   -1.1872    3.4420 N   0  0  0  0  0  4  0  0  0  0  0  0
   -0.8350   -0.4299    3.0338 H   0  0  0  0  0  0  0  0  0  0  0  0
   -0.9146   -2.0536    3.1867 H   0  0  0  0  0  0  0  0  0  0  0  0
   -2.2875   -1.1742    3.0910 H   0  0  0  0  0  0  0  0  0  0  0  0
   -0.0115    2.8788   -0.0357 C   0  0  0  0  0  0  0  0  0  0  0  0
    0.8163    3.1960    0.4080 H   0  0  0  0  0  0  0  0  0  0  0  0
   -0.8155    3.1802    0.4587 H   0  0  0  0  0  0  0  0  0  0  0  0
   -0.0470    3.3122   -1.0352 H   0  0  0  0  0  0  0  0  0  0  0  0
    0.0029    1.3829   -0.0246 C   0  0  0  0  0  0  0  0  0  0  0  0
   -1.1980    0.6852   -0.0350 C   0  0  0  0  0  0  0  0  0  0  0  0
   -2.0584    1.1760   -0.0689 H   0  0  0  0  0  0  0  0  0  0  0  0
   -1.1915   -0.6956    0.0000 C   0  0  0  0  0  0  0  0  0  0  0  0
   -2.0717   -1.1943   -0.0043 H   0  0  0  0  0  0  0  0  0  0  0  0
   -0.0033   -1.3762    0.0422 C   0  0  0  0  0  0  0  0  0  0  0  0
   -0.0056   -2.3825    0.1037 H   0  0  0  0  0  0  0  0  0  0  0  0
    1.1915   -0.6947    0.0000 C   0  0  0  0  0  0  0  0  0  0  0  0
    2.0727   -1.1942   -0.0429 H   0  0  0  0  0  0  0  0  0  0  0  0
    1.1984    0.6984    0.0174 C   0  0  0  0  0  0  0  0  0  0  0  0
    2.0612    1.1876    0.0585 H   0  0  0  0  0  0  0  0  0  0  0  0
  1  5  1  0
  5  8  1  0
  1  2  1  0
  1  3  1  0
  1  4  1  0
  5  6  1  0
  5  7  1  0
  8  9  1  0
  8 10  1  0
  8 11  1  0
 12 16  1  0
 16 17  2  0
 17 19  1  0
 19 21  2  0
 21 23  1  0
 23 25  2  0
 25 16  1  0
 12 13  1  0
 12 14  1  0
 12 15  1  0
 17 18  1  0
 19 20  1  0
 21 22  1  0
 23 24  1  0
 25 26  1  0
M  CHG  1   8   1
M  END
>  <PDB_ID>  (3308) 
pdb6r1g

>  <RESIDUE_NAME>  (3308) 
LYS   PHE

>  <FRAG_NAME>  (3308) 
ETAM   MBZ

>  <FRAG_ATOM_NUM>  (3308) 
fragi: 11  fragj: 15

>  <atom.prop.CHAIN_ID>  (3308) 
A A A A A A A A A A A Z Z Z Z Z Z Z Z Z Z Z Z Z Z Z

>  <atom.prop.IS_HEAVY_ATOM>  (3308) 
1 0 0 0 1 0 0 1 0 0 0 1 0 0 0 1 1 0 1 0 1 0 1 0 1 0

>  <DIFUSE_FUNC_ATOM>  (3308) 
n/a

>  <FINAL_SINGLE_POINT_ENERGY>  (3308) 
0

>  <NONCOV_INTER_ENERGY_QM>  (3308) 
0

>  <FF_Energy>  (3308) 
-5.08

>  <QM_Energy>  (3308) 
-10.41

>  <source>  (3308) 
ETAM_MBZ

>  <Index>  (3308) 
36345

$$$$
ETAM-pdb5msc-A-LYS-466:MBZ-pdb5msc-A-PHE-490
     RDKit          3D

 26 25  0  0  0  0  0  0  0  0999 V2000
   -1.2827   -0.5582   -4.5051 C   0  0  0  0  0  0  0  0  0  0  0  0
   -1.3960   -1.4238   -4.0257 H   0  0  0  0  0  0  0  0  0  0  0  0
   -1.5936   -0.6426   -5.4470 H   0  0  0  0  0  0  0  0  0  0  0  0
   -1.8879    0.1979   -4.0048 H   0  0  0  0  0  0  0  0  0  0  0  0
    0.1943   -0.1929   -4.5101 C   0  0  0  0  0  0  0  0  0  0  0  0
    0.6627   -0.7507   -5.1980 H   0  0  0  0  0  0  0  0  0  0  0  0
    0.2872    0.7751   -4.7538 H   0  0  0  0  0  0  0  0  0  0  0  0
    0.8114   -0.4272   -3.1834 N   0  0  0  0  0  4  0  0  0  0  0  0
    1.8072   -0.3720   -3.2634 H   0  0  0  0  0  0  0  0  0  0  0  0
    0.4909    0.2665   -2.5380 H   0  0  0  0  0  0  0  0  0  0  0  0
    0.5547   -1.3355   -2.8498 H   0  0  0  0  0  0  0  0  0  0  0  0
   -0.0179    2.8850    0.0082 C   0  0  0  0  0  0  0  0  0  0  0  0
    0.8299    3.2020    0.4153 H   0  0  0  0  0  0  0  0  0  0  0  0
   -0.7984    3.1840    0.5432 H   0  0  0  0  0  0  0  0  0  0  0  0
   -0.1012    3.3346   -0.9813 H   0  0  0  0  0  0  0  0  0  0  0  0
   -0.0020    1.3950    0.0011 C   0  0  0  0  0  0  0  0  0  0  0  0
   -1.1984    0.6933    0.0014 C   0  0  0  0  0  0  0  0  0  0  0  0
   -2.0642    1.1881    0.0008 H   0  0  0  0  0  0  0  0  0  0  0  0
   -1.2081   -0.6924   -0.0000 C   0  0  0  0  0  0  0  0  0  0  0  0
   -2.0815   -1.1889   -0.0002 H   0  0  0  0  0  0  0  0  0  0  0  0
   -0.0008   -1.3920    0.0001 C   0  0  0  0  0  0  0  0  0  0  0  0
   -0.0048   -2.3888   -0.0005 H   0  0  0  0  0  0  0  0  0  0  0  0
    1.2081   -0.6943   -0.0000 C   0  0  0  0  0  0  0  0  0  0  0  0
    2.0842   -1.1964    0.0030 H   0  0  0  0  0  0  0  0  0  0  0  0
    1.2012    0.6904   -0.0026 C   0  0  0  0  0  0  0  0  0  0  0  0
    2.0646    1.1931   -0.0080 H   0  0  0  0  0  0  0  0  0  0  0  0
  1  5  1  0
  5  8  1  0
  1  2  1  0
  1  3  1  0
  1  4  1  0
  5  6  1  0
  5  7  1  0
  8  9  1  0
  8 10  1  0
  8 11  1  0
 12 16  1  0
 16 17  2  0
 17 19  1  0
 19 21  2  0
 21 23  1  0
 23 25  2  0
 25 16  1  0
 12 13  1  0
 12 14  1  0
 12 15  1  0
 17 18  1  0
 19 20  1  0
 21 22  1  0
 23 24  1  0
 25 26  1  0
M  CHG  1   8   1
M  END
>  <PDB_ID>  (3309) 
pdb5msc

>  <RESIDUE_NAME>  (3309) 
LYS   PHE

>  <FRAG_NAME>  (3309) 
ETAM   MBZ

>  <FRAG_ATOM_NUM>  (3309) 
fragi: 11  fragj: 15

>  <atom.prop.CHAIN_ID>  (3309) 
A A A A A A A A A A A Z Z Z Z Z Z Z Z Z Z Z Z Z Z Z

>  <atom.prop.IS_HEAVY_ATOM>  (3309) 
1 0 0 0 1 0 0 1 0 0 0 1 0 0 0 1 1 0 1 0 1 0 1 0 1 0

>  <DIFUSE_FUNC_ATOM>  (3309) 
n/a

>  <FINAL_SINGLE_POINT_ENERGY>  (3309) 
0

>  <NONCOV_INTER_ENERGY_QM>  (3309) 
0

>  <FF_Energy>  (3309) 
-8.22

>  <QM_Energy>  (3309) 
-15.5

>  <source>  (3309) 
ETAM_MBZ

>  <Index>  (3309) 
36356

$$$$
ETAM-pdb6qsz-K-LYS-1037:MBZ-pdb6qsz-K-PHE-993
     RDKit          3D

 26 25  0  0  0  0  0  0  0  0999 V2000
    0.4010   -0.4631    3.5430 C   0  0  0  0  0  0  0  0  0  0  0  0
   -0.2381    0.2778    3.7374 H   0  0  0  0  0  0  0  0  0  0  0  0
    0.6271   -0.4723    2.5724 H   0  0  0  0  0  0  0  0  0  0  0  0
    1.3091   -0.3252    4.1297 H   0  0  0  0  0  0  0  0  0  0  0  0
   -0.2555   -1.7647    3.8926 C   0  0  0  0  0  0  0  0  0  0  0  0
    0.3514   -2.5232    3.6378 H   0  0  0  0  0  0  0  0  0  0  0  0
   -0.4175   -1.8009    4.8832 H   0  0  0  0  0  0  0  0  0  0  0  0
   -1.5495   -1.9244    3.1865 N   0  0  0  0  0  4  0  0  0  0  0  0
   -1.6845   -2.8868    2.9487 H   0  0  0  0  0  0  0  0  0  0  0  0
   -2.2949   -1.6216    3.7820 H   0  0  0  0  0  0  0  0  0  0  0  0
   -1.5452   -1.3725    2.3514 H   0  0  0  0  0  0  0  0  0  0  0  0
   -0.0055    2.9114    0.0048 C   0  0  0  0  0  0  0  0  0  0  0  0
   -0.8597    3.2186   -0.3809 H   0  0  0  0  0  0  0  0  0  0  0  0
    0.7666    3.2235   -0.5234 H   0  0  0  0  0  0  0  0  0  0  0  0
    0.0809    3.3435    1.0018 H   0  0  0  0  0  0  0  0  0  0  0  0
   -0.0022    1.4033   -0.0052 C   0  0  0  0  0  0  0  0  0  0  0  0
   -1.1951    0.6932    0.0029 C   0  0  0  0  0  0  0  0  0  0  0  0
   -2.0638    1.1801    0.0092 H   0  0  0  0  0  0  0  0  0  0  0  0
   -1.1956   -0.6983    0.0000 C   0  0  0  0  0  0  0  0  0  0  0  0
   -2.0742   -1.1913    0.0039 H   0  0  0  0  0  0  0  0  0  0  0  0
    0.0005   -1.3871   -0.0064 C   0  0  0  0  0  0  0  0  0  0  0  0
   -0.0058   -2.3926   -0.0161 H   0  0  0  0  0  0  0  0  0  0  0  0
    1.1956   -0.7029   -0.0000 C   0  0  0  0  0  0  0  0  0  0  0  0
    2.0786   -1.1995   -0.0002 H   0  0  0  0  0  0  0  0  0  0  0  0
    1.1968    0.6918    0.0087 C   0  0  0  0  0  0  0  0  0  0  0  0
    2.0637    1.1842    0.0240 H   0  0  0  0  0  0  0  0  0  0  0  0
  1  5  1  0
  5  8  1  0
  1  2  1  0
  1  3  1  0
  1  4  1  0
  5  6  1  0
  5  7  1  0
  8  9  1  0
  8 10  1  0
  8 11  1  0
 12 16  1  0
 16 17  2  0
 17 19  1  0
 19 21  2  0
 21 23  1  0
 23 25  2  0
 25 16  1  0
 12 13  1  0
 12 14  1  0
 12 15  1  0
 17 18  1  0
 19 20  1  0
 21 22  1  0
 23 24  1  0
 25 26  1  0
M  CHG  1   8   1
M  END
>  <PDB_ID>  (3310) 
pdb6qsz

>  <RESIDUE_NAME>  (3310) 
LYS   PHE

>  <FRAG_NAME>  (3310) 
ETAM   MBZ

>  <FRAG_ATOM_NUM>  (3310) 
fragi: 11  fragj: 15

>  <atom.prop.CHAIN_ID>  (3310) 
A A A A A A A A A A A Z Z Z Z Z Z Z Z Z Z Z Z Z Z Z

>  <atom.prop.IS_HEAVY_ATOM>  (3310) 
1 0 0 0 1 0 0 1 0 0 0 1 0 0 0 1 1 0 1 0 1 0 1 0 1 0

>  <DIFUSE_FUNC_ATOM>  (3310) 
n/a

>  <FINAL_SINGLE_POINT_ENERGY>  (3310) 
0

>  <NONCOV_INTER_ENERGY_QM>  (3310) 
0

>  <FF_Energy>  (3310) 
-4.92

>  <QM_Energy>  (3310) 
-12.76

>  <source>  (3310) 
ETAM_MBZ

>  <Index>  (3310) 
36368

$$$$
ETAM-pdb5msx-B-LYS-438:MBZ-pdb5msx-B-PHE-420
     RDKit          3D

 26 25  0  0  0  0  0  0  0  0999 V2000
    3.9268    0.1109   -1.0560 C   0  0  0  0  0  0  0  0  0  0  0  0
    3.0727    0.5594   -1.3219 H   0  0  0  0  0  0  0  0  0  0  0  0
    3.7189   -0.6952   -0.5007 H   0  0  0  0  0  0  0  0  0  0  0  0
    4.4493   -0.2093   -1.9574 H   0  0  0  0  0  0  0  0  0  0  0  0
    4.7413    1.0751   -0.2226 C   0  0  0  0  0  0  0  0  0  0  0  0
    5.5949    0.6319    0.0502 H   0  0  0  0  0  0  0  0  0  0  0  0
    4.9490    1.8864   -0.7695 H   0  0  0  0  0  0  0  0  0  0  0  0
    3.9918    1.4827    0.9907 N   0  0  0  0  0  4  0  0  0  0  0  0
    3.0105    1.4811    0.7937 H   0  0  0  0  0  0  0  0  0  0  0  0
    4.1834    0.8400    1.7333 H   0  0  0  0  0  0  0  0  0  0  0  0
    4.2750    2.4019    1.2650 H   0  0  0  0  0  0  0  0  0  0  0  0
   -0.0097    2.8924   -0.0248 C   0  0  0  0  0  0  0  0  0  0  0  0
   -0.8195    3.1904   -0.5360 H   0  0  0  0  0  0  0  0  0  0  0  0
    0.8134    3.2039   -0.5064 H   0  0  0  0  0  0  0  0  0  0  0  0
   -0.0310    3.3994    0.9399 H   0  0  0  0  0  0  0  0  0  0  0  0
    0.0013    1.3993   -0.0079 C   0  0  0  0  0  0  0  0  0  0  0  0
   -1.1981    0.6925   -0.0086 C   0  0  0  0  0  0  0  0  0  0  0  0
   -2.0633    1.1941   -0.0171 H   0  0  0  0  0  0  0  0  0  0  0  0
   -1.2188   -0.6927   -0.0000 C   0  0  0  0  0  0  0  0  0  0  0  0
   -2.0883   -1.1855   -0.0109 H   0  0  0  0  0  0  0  0  0  0  0  0
   -0.0065   -1.3908    0.0258 C   0  0  0  0  0  0  0  0  0  0  0  0
   -0.0118   -2.3899    0.0617 H   0  0  0  0  0  0  0  0  0  0  0  0
    1.2188   -0.7004   -0.0000 C   0  0  0  0  0  0  0  0  0  0  0  0
    2.0847   -1.2007   -0.0089 H   0  0  0  0  0  0  0  0  0  0  0  0
    1.2033    0.6921   -0.0093 C   0  0  0  0  0  0  0  0  0  0  0  0
    2.0697    1.1950   -0.0182 H   0  0  0  0  0  0  0  0  0  0  0  0
  1  5  1  0
  5  8  1  0
  1  2  1  0
  1  3  1  0
  1  4  1  0
  5  6  1  0
  5  7  1  0
  8  9  1  0
  8 10  1  0
  8 11  1  0
 12 16  1  0
 16 17  2  0
 17 19  1  0
 19 21  2  0
 21 23  1  0
 23 25  2  0
 25 16  1  0
 12 13  1  0
 12 14  1  0
 12 15  1  0
 17 18  1  0
 19 20  1  0
 21 22  1  0
 23 24  1  0
 25 26  1  0
M  CHG  1   8   1
M  END
>  <PDB_ID>  (3311) 
pdb5msx

>  <RESIDUE_NAME>  (3311) 
LYS   PHE

>  <FRAG_NAME>  (3311) 
ETAM   MBZ

>  <FRAG_ATOM_NUM>  (3311) 
fragi: 11  fragj: 15

>  <atom.prop.CHAIN_ID>  (3311) 
A A A A A A A A A A A Z Z Z Z Z Z Z Z Z Z Z Z Z Z Z

>  <atom.prop.IS_HEAVY_ATOM>  (3311) 
1 0 0 0 1 0 0 1 0 0 0 1 0 0 0 1 1 0 1 0 1 0 1 0 1 0

>  <DIFUSE_FUNC_ATOM>  (3311) 
n/a

>  <FINAL_SINGLE_POINT_ENERGY>  (3311) 
0

>  <NONCOV_INTER_ENERGY_QM>  (3311) 
0

>  <FF_Energy>  (3311) 
26.88

>  <QM_Energy>  (3311) 
8.69

>  <source>  (3311) 
ETAM_MBZ

>  <Index>  (3311) 
36372

$$$$
ETAM-pdb5mpw-B-LYS-103:MBZ-pdb5mpw-B-PHE-96
     RDKit          3D

 26 25  0  0  0  0  0  0  0  0999 V2000
   -1.9936   -0.1198    3.8811 C   0  0  0  0  0  0  0  0  0  0  0  0
   -1.4375    0.0924    3.0777 H   0  0  0  0  0  0  0  0  0  0  0  0
   -1.5822   -0.8832    4.3791 H   0  0  0  0  0  0  0  0  0  0  0  0
   -2.0059    0.7533    4.5334 H   0  0  0  0  0  0  0  0  0  0  0  0
   -3.3833   -0.5391    3.4124 C   0  0  0  0  0  0  0  0  0  0  0  0
   -3.3639   -1.5144    3.1746 H   0  0  0  0  0  0  0  0  0  0  0  0
   -4.0342   -0.4028    4.1650 H   0  0  0  0  0  0  0  0  0  0  0  0
   -3.8365    0.2442    2.2273 N   0  0  0  0  0  4  0  0  0  0  0  0
   -3.3633   -0.0865    1.4116 H   0  0  0  0  0  0  0  0  0  0  0  0
   -4.8225    0.1296    2.1127 H   0  0  0  0  0  0  0  0  0  0  0  0
   -3.6243    1.2103    2.3694 H   0  0  0  0  0  0  0  0  0  0  0  0
    0.0160    2.9527    0.0321 C   0  0  0  0  0  0  0  0  0  0  0  0
    0.9613    3.2331    0.0988 H   0  0  0  0  0  0  0  0  0  0  0  0
   -0.5013    3.2351    0.8262 H   0  0  0  0  0  0  0  0  0  0  0  0
   -0.4178    3.4391   -0.8417 H   0  0  0  0  0  0  0  0  0  0  0  0
   -0.0038    1.4148   -0.0035 C   0  0  0  0  0  0  0  0  0  0  0  0
   -1.1909    0.7029    0.0110 C   0  0  0  0  0  0  0  0  0  0  0  0
   -2.0644    1.1856    0.0283 H   0  0  0  0  0  0  0  0  0  0  0  0
   -1.1995   -0.7002    0.0000 C   0  0  0  0  0  0  0  0  0  0  0  0
   -2.0758   -1.1890    0.0010 H   0  0  0  0  0  0  0  0  0  0  0  0
    0.0093   -1.4108   -0.0112 C   0  0  0  0  0  0  0  0  0  0  0  0
   -0.0039   -2.4030   -0.0272 H   0  0  0  0  0  0  0  0  0  0  0  0
    1.1995   -0.7098    0.0000 C   0  0  0  0  0  0  0  0  0  0  0  0
    2.0888   -1.1884    0.0075 H   0  0  0  0  0  0  0  0  0  0  0  0
    1.1855    0.7031    0.0037 C   0  0  0  0  0  0  0  0  0  0  0  0
    2.0610    1.1902    0.0107 H   0  0  0  0  0  0  0  0  0  0  0  0
  1  5  1  0
  5  8  1  0
  1  2  1  0
  1  3  1  0
  1  4  1  0
  5  6  1  0
  5  7  1  0
  8  9  1  0
  8 10  1  0
  8 11  1  0
 12 16  1  0
 16 17  2  0
 17 19  1  0
 19 21  2  0
 21 23  1  0
 23 25  2  0
 25 16  1  0
 12 13  1  0
 12 14  1  0
 12 15  1  0
 17 18  1  0
 19 20  1  0
 21 22  1  0
 23 24  1  0
 25 26  1  0
M  CHG  1   8   1
M  END
>  <PDB_ID>  (3312) 
pdb5mpw

>  <RESIDUE_NAME>  (3312) 
LYS   PHE

>  <FRAG_NAME>  (3312) 
ETAM   MBZ

>  <FRAG_ATOM_NUM>  (3312) 
fragi: 11  fragj: 15

>  <atom.prop.CHAIN_ID>  (3312) 
A A A A A A A A A A A Z Z Z Z Z Z Z Z Z Z Z Z Z Z Z

>  <atom.prop.IS_HEAVY_ATOM>  (3312) 
1 0 0 0 1 0 0 1 0 0 0 1 0 0 0 1 1 0 1 0 1 0 1 0 1 0

>  <DIFUSE_FUNC_ATOM>  (3312) 
n/a

>  <FINAL_SINGLE_POINT_ENERGY>  (3312) 
0

>  <NONCOV_INTER_ENERGY_QM>  (3312) 
0

>  <FF_Energy>  (3312) 
-1.79

>  <QM_Energy>  (3312) 
-7.53

>  <source>  (3312) 
ETAM_MBZ

>  <Index>  (3312) 
36382

$$$$
ETAM-pdb5med-B-LYS-494:MBZ-pdb5med-B-PHE-77
     RDKit          3D

 26 25  0  0  0  0  0  0  0  0999 V2000
    1.0759   -1.7569   -3.3714 C   0  0  0  0  0  0  0  0  0  0  0  0
    1.6597   -0.9390   -3.4515 H   0  0  0  0  0  0  0  0  0  0  0  0
    0.5350   -1.6751   -2.5251 H   0  0  0  0  0  0  0  0  0  0  0  0
    0.3927   -1.7799   -4.2205 H   0  0  0  0  0  0  0  0  0  0  0  0
    1.9587   -2.9688   -3.2618 C   0  0  0  0  0  0  0  0  0  0  0  0
    1.4439   -3.7245   -2.8736 H   0  0  0  0  0  0  0  0  0  0  0  0
    2.3088   -3.2110   -4.1596 H   0  0  0  0  0  0  0  0  0  0  0  0
    3.1154   -2.6582   -2.3596 N   0  0  0  0  0  4  0  0  0  0  0  0
    2.7728   -2.2287   -1.5267 H   0  0  0  0  0  0  0  0  0  0  0  0
    3.5896   -3.5061   -2.1339 H   0  0  0  0  0  0  0  0  0  0  0  0
    3.7382   -2.0368   -2.8305 H   0  0  0  0  0  0  0  0  0  0  0  0
   -0.0011    2.8953   -0.0105 C   0  0  0  0  0  0  0  0  0  0  0  0
    0.8599    3.2078    0.3595 H   0  0  0  0  0  0  0  0  0  0  0  0
   -0.7642    3.2100    0.5321 H   0  0  0  0  0  0  0  0  0  0  0  0
   -0.1068    3.3165   -1.0102 H   0  0  0  0  0  0  0  0  0  0  0  0
   -0.0009    1.3967    0.0089 C   0  0  0  0  0  0  0  0  0  0  0  0
   -1.1887    0.6861   -0.0006 C   0  0  0  0  0  0  0  0  0  0  0  0
   -2.0589    1.1761   -0.0093 H   0  0  0  0  0  0  0  0  0  0  0  0
   -1.1904   -0.6956   -0.0000 C   0  0  0  0  0  0  0  0  0  0  0  0
   -2.0703   -1.1918    0.0026 H   0  0  0  0  0  0  0  0  0  0  0  0
    0.0013   -1.3861   -0.0008 C   0  0  0  0  0  0  0  0  0  0  0  0
   -0.0009   -2.3869   -0.0023 H   0  0  0  0  0  0  0  0  0  0  0  0
    1.1904   -0.6916   -0.0000 C   0  0  0  0  0  0  0  0  0  0  0  0
    2.0773   -1.1904    0.0081 H   0  0  0  0  0  0  0  0  0  0  0  0
    1.1884    0.6906   -0.0075 C   0  0  0  0  0  0  0  0  0  0  0  0
    2.0591    1.1869   -0.0260 H   0  0  0  0  0  0  0  0  0  0  0  0
  1  5  1  0
  5  8  1  0
  1  2  1  0
  1  3  1  0
  1  4  1  0
  5  6  1  0
  5  7  1  0
  8  9  1  0
  8 10  1  0
  8 11  1  0
 12 16  1  0
 16 17  2  0
 17 19  1  0
 19 21  2  0
 21 23  1  0
 23 25  2  0
 25 16  1  0
 12 13  1  0
 12 14  1  0
 12 15  1  0
 17 18  1  0
 19 20  1  0
 21 22  1  0
 23 24  1  0
 25 26  1  0
M  CHG  1   8   1
M  END
>  <PDB_ID>  (3313) 
pdb5med

>  <RESIDUE_NAME>  (3313) 
LYS   PHE

>  <FRAG_NAME>  (3313) 
ETAM   MBZ

>  <FRAG_ATOM_NUM>  (3313) 
fragi: 11  fragj: 15

>  <atom.prop.CHAIN_ID>  (3313) 
A A A A A A A A A A A Z Z Z Z Z Z Z Z Z Z Z Z Z Z Z

>  <atom.prop.IS_HEAVY_ATOM>  (3313) 
1 0 0 0 1 0 0 1 0 0 0 1 0 0 0 1 1 0 1 0 1 0 1 0 1 0

>  <DIFUSE_FUNC_ATOM>  (3313) 
n/a

>  <FINAL_SINGLE_POINT_ENERGY>  (3313) 
0

>  <NONCOV_INTER_ENERGY_QM>  (3313) 
0

>  <FF_Energy>  (3313) 
-0.8

>  <QM_Energy>  (3313) 
-6.47

>  <source>  (3313) 
ETAM_MBZ

>  <Index>  (3313) 
36384

$$$$
ETAM-pdb6r7v-A-LYS-39:MBZ-pdb6r7v-A-PHE-188
     RDKit          3D

 26 25  0  0  0  0  0  0  0  0999 V2000
    1.3827   -5.2061    0.7964 C   0  0  0  0  0  0  0  0  0  0  0  0
    1.8284   -5.3398   -0.0937 H   0  0  0  0  0  0  0  0  0  0  0  0
    1.4753   -6.0476    1.3356 H   0  0  0  0  0  0  0  0  0  0  0  0
    1.8991   -4.4024    1.3210 H   0  0  0  0  0  0  0  0  0  0  0  0
   -0.0799   -4.9303    0.5722 C   0  0  0  0  0  0  0  0  0  0  0  0
   -0.5493   -4.8855    1.4580 H   0  0  0  0  0  0  0  0  0  0  0  0
   -0.1842   -4.0468    0.1059 H   0  0  0  0  0  0  0  0  0  0  0  0
   -0.7181   -5.9913   -0.2580 N   0  0  0  0  0  4  0  0  0  0  0  0
   -0.1450   -6.8096   -0.2451 H   0  0  0  0  0  0  0  0  0  0  0  0
   -1.6196   -6.2066    0.1165 H   0  0  0  0  0  0  0  0  0  0  0  0
   -0.8139   -5.6635   -1.1968 H   0  0  0  0  0  0  0  0  0  0  0  0
    0.0015    2.9318   -0.0196 C   0  0  0  0  0  0  0  0  0  0  0  0
    0.8409    3.2430    0.3970 H   0  0  0  0  0  0  0  0  0  0  0  0
   -0.7899    3.2451    0.4818 H   0  0  0  0  0  0  0  0  0  0  0  0
   -0.0503    3.3681   -1.0171 H   0  0  0  0  0  0  0  0  0  0  0  0
    0.0019    1.4079    0.0103 C   0  0  0  0  0  0  0  0  0  0  0  0
   -1.1901    0.6956   -0.0178 C   0  0  0  0  0  0  0  0  0  0  0  0
   -2.0595    1.1779   -0.0527 H   0  0  0  0  0  0  0  0  0  0  0  0
   -1.1911   -0.7039   -0.0000 C   0  0  0  0  0  0  0  0  0  0  0  0
   -2.0738   -1.1895    0.0352 H   0  0  0  0  0  0  0  0  0  0  0  0
   -0.0032   -1.3915   -0.0284 C   0  0  0  0  0  0  0  0  0  0  0  0
   -0.0064   -2.3954   -0.0709 H   0  0  0  0  0  0  0  0  0  0  0  0
    1.1911   -0.7058    0.0000 C   0  0  0  0  0  0  0  0  0  0  0  0
    2.0761   -1.1970   -0.0028 H   0  0  0  0  0  0  0  0  0  0  0  0
    1.1914    0.6976    0.0358 C   0  0  0  0  0  0  0  0  0  0  0  0
    2.0638    1.1822    0.0791 H   0  0  0  0  0  0  0  0  0  0  0  0
  1  5  1  0
  5  8  1  0
  1  2  1  0
  1  3  1  0
  1  4  1  0
  5  6  1  0
  5  7  1  0
  8  9  1  0
  8 10  1  0
  8 11  1  0
 12 16  1  0
 16 17  2  0
 17 19  1  0
 19 21  2  0
 21 23  1  0
 23 25  2  0
 25 16  1  0
 12 13  1  0
 12 14  1  0
 12 15  1  0
 17 18  1  0
 19 20  1  0
 21 22  1  0
 23 24  1  0
 25 26  1  0
M  CHG  1   8   1
M  END
>  <PDB_ID>  (3314) 
pdb6r7v

>  <RESIDUE_NAME>  (3314) 
LYS   PHE

>  <FRAG_NAME>  (3314) 
ETAM   MBZ

>  <FRAG_ATOM_NUM>  (3314) 
fragi: 11  fragj: 15

>  <atom.prop.CHAIN_ID>  (3314) 
A A A A A A A A A A A Z Z Z Z Z Z Z Z Z Z Z Z Z Z Z

>  <atom.prop.IS_HEAVY_ATOM>  (3314) 
1 0 0 0 1 0 0 1 0 0 0 1 0 0 0 1 1 0 1 0 1 0 1 0 1 0

>  <DIFUSE_FUNC_ATOM>  (3314) 
n/a

>  <FINAL_SINGLE_POINT_ENERGY>  (3314) 
0

>  <NONCOV_INTER_ENERGY_QM>  (3314) 
0

>  <FF_Energy>  (3314) 
10.15

>  <QM_Energy>  (3314) 
-0.33

>  <source>  (3314) 
ETAM_MBZ

>  <Index>  (3314) 
36396

$$$$
ETAM-pdb6rae-A-LYS-205:MBZ-pdb6rae-A-PHE-181
     RDKit          3D

 26 25  0  0  0  0  0  0  0  0999 V2000
   -2.6273   -2.2121   -3.0309 C   0  0  0  0  0  0  0  0  0  0  0  0
   -1.8480   -1.7351   -3.4276 H   0  0  0  0  0  0  0  0  0  0  0  0
   -2.7835   -1.8972   -2.0987 H   0  0  0  0  0  0  0  0  0  0  0  0
   -3.5150   -2.0183   -3.6329 H   0  0  0  0  0  0  0  0  0  0  0  0
   -2.3305   -3.6772   -3.0006 C   0  0  0  0  0  0  0  0  0  0  0  0
   -3.1214   -4.1689   -2.6482 H   0  0  0  0  0  0  0  0  0  0  0  0
   -2.1150   -3.9913   -3.9205 H   0  0  0  0  0  0  0  0  0  0  0  0
   -1.1766   -3.9073   -2.1206 N   0  0  0  0  0  4  0  0  0  0  0  0
   -1.1383   -4.8733   -1.8535 H   0  0  0  0  0  0  0  0  0  0  0  0
   -0.3297   -3.6658   -2.5994 H   0  0  0  0  0  0  0  0  0  0  0  0
   -1.2585   -3.3431   -1.2956 H   0  0  0  0  0  0  0  0  0  0  0  0
    0.0028    2.9106    0.0101 C   0  0  0  0  0  0  0  0  0  0  0  0
   -0.7747    3.2187   -0.5118 H   0  0  0  0  0  0  0  0  0  0  0  0
    0.8538    3.2167   -0.3838 H   0  0  0  0  0  0  0  0  0  0  0  0
   -0.0752    3.3362    1.0106 H   0  0  0  0  0  0  0  0  0  0  0  0
    0.0019    1.4000   -0.0021 C   0  0  0  0  0  0  0  0  0  0  0  0
   -1.1930    0.6928    0.0025 C   0  0  0  0  0  0  0  0  0  0  0  0
   -2.0606    1.1760    0.0065 H   0  0  0  0  0  0  0  0  0  0  0  0
   -1.1955   -0.7084    0.0000 C   0  0  0  0  0  0  0  0  0  0  0  0
   -2.0755   -1.1948   -0.0024 H   0  0  0  0  0  0  0  0  0  0  0  0
   -0.0025   -1.3921    0.0023 C   0  0  0  0  0  0  0  0  0  0  0  0
    0.0059   -2.3920    0.0052 H   0  0  0  0  0  0  0  0  0  0  0  0
    1.1955   -0.6883   -0.0000 C   0  0  0  0  0  0  0  0  0  0  0  0
    2.0799   -1.1892    0.0021 H   0  0  0  0  0  0  0  0  0  0  0  0
    1.1936    0.6961   -0.0027 C   0  0  0  0  0  0  0  0  0  0  0  0
    2.0630    1.1929   -0.0058 H   0  0  0  0  0  0  0  0  0  0  0  0
  1  5  1  0
  5  8  1  0
  1  2  1  0
  1  3  1  0
  1  4  1  0
  5  6  1  0
  5  7  1  0
  8  9  1  0
  8 10  1  0
  8 11  1  0
 12 16  1  0
 16 17  2  0
 17 19  1  0
 19 21  2  0
 21 23  1  0
 23 25  2  0
 25 16  1  0
 12 13  1  0
 12 14  1  0
 12 15  1  0
 17 18  1  0
 19 20  1  0
 21 22  1  0
 23 24  1  0
 25 26  1  0
M  CHG  1   8   1
M  END
>  <PDB_ID>  (3315) 
pdb6rae

>  <RESIDUE_NAME>  (3315) 
LYS   PHE

>  <FRAG_NAME>  (3315) 
ETAM   MBZ

>  <FRAG_ATOM_NUM>  (3315) 
fragi: 11  fragj: 15

>  <atom.prop.CHAIN_ID>  (3315) 
A A A A A A A A A A A Z Z Z Z Z Z Z Z Z Z Z Z Z Z Z

>  <atom.prop.IS_HEAVY_ATOM>  (3315) 
1 0 0 0 1 0 0 1 0 0 0 1 0 0 0 1 1 0 1 0 1 0 1 0 1 0

>  <DIFUSE_FUNC_ATOM>  (3315) 
n/a

>  <FINAL_SINGLE_POINT_ENERGY>  (3315) 
0

>  <NONCOV_INTER_ENERGY_QM>  (3315) 
0

>  <FF_Energy>  (3315) 
-0.64

>  <QM_Energy>  (3315) 
-6.19

>  <source>  (3315) 
ETAM_MBZ

>  <Index>  (3315) 
36404

$$$$
ETAM-pdb6qsz-O-LYS-1037:MBZ-pdb6qsz-O-PHE-993
     RDKit          3D

 26 25  0  0  0  0  0  0  0  0999 V2000
    0.4001   -0.4647    3.5256 C   0  0  0  0  0  0  0  0  0  0  0  0
   -0.2530    0.2406    3.7942 H   0  0  0  0  0  0  0  0  0  0  0  0
    0.6067   -0.3823    2.5531 H   0  0  0  0  0  0  0  0  0  0  0  0
    1.3179   -0.3426    4.1008 H   0  0  0  0  0  0  0  0  0  0  0  0
   -0.2099   -1.8059    3.7759 C   0  0  0  0  0  0  0  0  0  0  0  0
    0.4336   -2.5230    3.4977 H   0  0  0  0  0  0  0  0  0  0  0  0
   -0.4057   -1.9067    4.7548 H   0  0  0  0  0  0  0  0  0  0  0  0
   -1.4641   -1.9579    3.0126 N   0  0  0  0  0  4  0  0  0  0  0  0
   -1.7815   -2.9057    3.0705 H   0  0  0  0  0  0  0  0  0  0  0  0
   -2.1657   -1.3513    3.3918 H   0  0  0  0  0  0  0  0  0  0  0  0
   -1.3060   -1.7208    2.0526 H   0  0  0  0  0  0  0  0  0  0  0  0
   -0.0017    2.9122    0.0422 C   0  0  0  0  0  0  0  0  0  0  0  0
   -0.8439    3.2301   -0.3561 H   0  0  0  0  0  0  0  0  0  0  0  0
    0.7862    3.2345   -0.4505 H   0  0  0  0  0  0  0  0  0  0  0  0
    0.0563    3.3114    1.0549 H   0  0  0  0  0  0  0  0  0  0  0  0
   -0.0003    1.4066   -0.0005 C   0  0  0  0  0  0  0  0  0  0  0  0
   -1.1975    0.6919    0.0000 C   0  0  0  0  0  0  0  0  0  0  0  0
   -2.0654    1.1753   -0.0004 H   0  0  0  0  0  0  0  0  0  0  0  0
   -1.1944   -0.7058    0.0000 C   0  0  0  0  0  0  0  0  0  0  0  0
   -2.0723   -1.1972    0.0079 H   0  0  0  0  0  0  0  0  0  0  0  0
    0.0019   -1.3883   -0.0083 C   0  0  0  0  0  0  0  0  0  0  0  0
    0.0004   -2.3937   -0.0209 H   0  0  0  0  0  0  0  0  0  0  0  0
    1.1944   -0.6997   -0.0000 C   0  0  0  0  0  0  0  0  0  0  0  0
    2.0797   -1.1946    0.0009 H   0  0  0  0  0  0  0  0  0  0  0  0
    1.1959    0.6953    0.0089 C   0  0  0  0  0  0  0  0  0  0  0  0
    2.0645    1.1868    0.0217 H   0  0  0  0  0  0  0  0  0  0  0  0
  1  5  1  0
  5  8  1  0
  1  2  1  0
  1  3  1  0
  1  4  1  0
  5  6  1  0
  5  7  1  0
  8  9  1  0
  8 10  1  0
  8 11  1  0
 12 16  1  0
 16 17  2  0
 17 19  1  0
 19 21  2  0
 21 23  1  0
 23 25  2  0
 25 16  1  0
 12 13  1  0
 12 14  1  0
 12 15  1  0
 17 18  1  0
 19 20  1  0
 21 22  1  0
 23 24  1  0
 25 26  1  0
M  CHG  1   8   1
M  END
>  <PDB_ID>  (3316) 
pdb6qsz

>  <RESIDUE_NAME>  (3316) 
LYS   PHE

>  <FRAG_NAME>  (3316) 
ETAM   MBZ

>  <FRAG_ATOM_NUM>  (3316) 
fragi: 11  fragj: 15

>  <atom.prop.CHAIN_ID>  (3316) 
A A A A A A A A A A A Z Z Z Z Z Z Z Z Z Z Z Z Z Z Z

>  <atom.prop.IS_HEAVY_ATOM>  (3316) 
1 0 0 0 1 0 0 1 0 0 0 1 0 0 0 1 1 0 1 0 1 0 1 0 1 0

>  <DIFUSE_FUNC_ATOM>  (3316) 
n/a

>  <FINAL_SINGLE_POINT_ENERGY>  (3316) 
0

>  <NONCOV_INTER_ENERGY_QM>  (3316) 
0

>  <FF_Energy>  (3316) 
-4.94

>  <QM_Energy>  (3316) 
-13.57

>  <source>  (3316) 
ETAM_MBZ

>  <Index>  (3316) 
36405

$$$$
ETAM-pdb6rar-I-LYS-414:MBZ-pdb6rar-I-PHE-423
     RDKit          3D

 26 25  0  0  0  0  0  0  0  0999 V2000
   -1.9468    0.8611    3.9407 C   0  0  0  0  0  0  0  0  0  0  0  0
   -1.6430    0.9848    3.0285 H   0  0  0  0  0  0  0  0  0  0  0  0
   -1.3323    1.2894    4.5570 H   0  0  0  0  0  0  0  0  0  0  0  0
   -2.9355    1.3058    4.0534 H   0  0  0  0  0  0  0  0  0  0  0  0
   -1.9572   -0.6376    4.2416 C   0  0  0  0  0  0  0  0  0  0  0  0
   -1.1801   -0.8606    4.7777 H   0  0  0  0  0  0  0  0  0  0  0  0
   -2.7686   -0.8607    4.7247 H   0  0  0  0  0  0  0  0  0  0  0  0
   -1.9173   -1.4546    3.0030 N   0  0  0  0  0  4  0  0  0  0  0  0
   -2.6065   -1.2474    2.4796 H   0  0  0  0  0  0  0  0  0  0  0  0
   -1.1611   -1.2989    2.5609 H   0  0  0  0  0  0  0  0  0  0  0  0
   -1.9600   -2.3199    3.2081 H   0  0  0  0  0  0  0  0  0  0  0  0
   -0.0052    2.8832   -0.0060 C   0  0  0  0  0  0  0  0  0  0  0  0
    0.8122    3.1836    0.4199 H   0  0  0  0  0  0  0  0  0  0  0  0
   -0.7740    3.1777    0.5074 H   0  0  0  0  0  0  0  0  0  0  0  0
   -0.0619    3.3183   -1.0039 H   0  0  0  0  0  0  0  0  0  0  0  0
    0.0010    1.3886   -0.0007 C   0  0  0  0  0  0  0  0  0  0  0  0
   -1.1888    0.6841    0.0004 C   0  0  0  0  0  0  0  0  0  0  0  0
   -1.9967    1.1456    0.0005 H   0  0  0  0  0  0  0  0  0  0  0  0
   -1.1919   -0.6914    0.0000 C   0  0  0  0  0  0  0  0  0  0  0  0
   -1.9975   -1.1553    0.0013 H   0  0  0  0  0  0  0  0  0  0  0  0
   -0.0018   -1.3793    0.0011 C   0  0  0  0  0  0  0  0  0  0  0  0
   -0.0033   -2.3100    0.0024 H   0  0  0  0  0  0  0  0  0  0  0  0
    1.1919   -0.6910    0.0000 C   0  0  0  0  0  0  0  0  0  0  0  0
    1.9978   -1.1563   -0.0001 H   0  0  0  0  0  0  0  0  0  0  0  0
    1.1897    0.6890   -0.0009 C   0  0  0  0  0  0  0  0  0  0  0  0
    1.9968    1.1510   -0.0016 H   0  0  0  0  0  0  0  0  0  0  0  0
  1  5  1  0
  5  8  1  0
  1  2  1  0
  1  3  1  0
  1  4  1  0
  5  6  1  0
  5  7  1  0
  8  9  1  0
  8 10  1  0
  8 11  1  0
 12 16  1  0
 16 17  2  0
 17 19  1  0
 19 21  2  0
 21 23  1  0
 23 25  2  0
 25 16  1  0
 12 13  1  0
 12 14  1  0
 12 15  1  0
 17 18  1  0
 19 20  1  0
 21 22  1  0
 23 24  1  0
 25 26  1  0
M  CHG  1   8   1
M  END
>  <PDB_ID>  (3317) 
pdb6rar

>  <RESIDUE_NAME>  (3317) 
LYS   PHE

>  <FRAG_NAME>  (3317) 
ETAM   MBZ

>  <FRAG_ATOM_NUM>  (3317) 
fragi: 11  fragj: 15

>  <atom.prop.CHAIN_ID>  (3317) 
A A A A A A A A A A A Z Z Z Z Z Z Z Z Z Z Z Z Z Z Z

>  <atom.prop.IS_HEAVY_ATOM>  (3317) 
1 0 0 0 1 0 0 1 0 0 0 1 0 0 0 1 1 0 1 0 1 0 1 0 1 0

>  <DIFUSE_FUNC_ATOM>  (3317) 
n/a

>  <FINAL_SINGLE_POINT_ENERGY>  (3317) 
0

>  <NONCOV_INTER_ENERGY_QM>  (3317) 
0

>  <FF_Energy>  (3317) 
-4.51

>  <QM_Energy>  (3317) 
-11.26

>  <source>  (3317) 
ETAM_MBZ

>  <Index>  (3317) 
36408

$$$$
ETAM-pdb5mux-F-LYS-67:MBZ-pdb5mux-F-PHE-466
     RDKit          3D

 26 25  0  0  0  0  0  0  0  0999 V2000
    5.1770    0.9053   -0.4514 C   0  0  0  0  0  0  0  0  0  0  0  0
    4.4376    1.0397    0.1812 H   0  0  0  0  0  0  0  0  0  0  0  0
    5.3489    1.7002   -1.0013 H   0  0  0  0  0  0  0  0  0  0  0  0
    6.0801    0.6527    0.1041 H   0  0  0  0  0  0  0  0  0  0  0  0
    4.8398   -0.2579   -1.3621 C   0  0  0  0  0  0  0  0  0  0  0  0
    5.4884   -0.2729   -2.1245 H   0  0  0  0  0  0  0  0  0  0  0  0
    4.9199   -1.1108   -0.8440 H   0  0  0  0  0  0  0  0  0  0  0  0
    3.4633   -0.1322   -1.8912 N   0  0  0  0  0  4  0  0  0  0  0  0
    3.0075    0.6475   -1.4600 H   0  0  0  0  0  0  0  0  0  0  0  0
    3.4960    0.0097   -2.8815 H   0  0  0  0  0  0  0  0  0  0  0  0
    2.9499   -0.9680   -1.6926 H   0  0  0  0  0  0  0  0  0  0  0  0
   -0.0893    2.8962   -0.0030 C   0  0  0  0  0  0  0  0  0  0  0  0
   -0.8076    3.1663    0.6331 H   0  0  0  0  0  0  0  0  0  0  0  0
   -0.3224    3.1933   -0.9261 H   0  0  0  0  0  0  0  0  0  0  0  0
    0.8121    3.4362    0.2866 H   0  0  0  0  0  0  0  0  0  0  0  0
    0.0005    1.3941   -0.0014 C   0  0  0  0  0  0  0  0  0  0  0  0
   -1.1821    0.6504   -0.0535 C   0  0  0  0  0  0  0  0  0  0  0  0
   -2.0575    1.1374   -0.1331 H   0  0  0  0  0  0  0  0  0  0  0  0
   -1.1826   -0.7300   -0.0000 C   0  0  0  0  0  0  0  0  0  0  0  0
   -2.0611   -1.2244    0.0130 H   0  0  0  0  0  0  0  0  0  0  0  0
    0.0039   -1.3941    0.0351 C   0  0  0  0  0  0  0  0  0  0  0  0
    0.0401   -2.3864    0.0843 H   0  0  0  0  0  0  0  0  0  0  0  0
    1.1826   -0.6548   -0.0000 C   0  0  0  0  0  0  0  0  0  0  0  0
    2.0823   -1.1450   -0.0396 H   0  0  0  0  0  0  0  0  0  0  0  0
    1.1777    0.7344    0.0198 C   0  0  0  0  0  0  0  0  0  0  0  0
    2.0465    1.2236    0.0491 H   0  0  0  0  0  0  0  0  0  0  0  0
  1  5  1  0
  5  8  1  0
  1  2  1  0
  1  3  1  0
  1  4  1  0
  5  6  1  0
  5  7  1  0
  8  9  1  0
  8 10  1  0
  8 11  1  0
 12 16  1  0
 16 17  2  0
 17 19  1  0
 19 21  2  0
 21 23  1  0
 23 25  2  0
 25 16  1  0
 12 13  1  0
 12 14  1  0
 12 15  1  0
 17 18  1  0
 19 20  1  0
 21 22  1  0
 23 24  1  0
 25 26  1  0
M  CHG  1   8   1
M  END
>  <PDB_ID>  (3318) 
pdb5mux

>  <RESIDUE_NAME>  (3318) 
LYS   PHE

>  <FRAG_NAME>  (3318) 
ETAM   MBZ

>  <FRAG_ATOM_NUM>  (3318) 
fragi: 11  fragj: 15

>  <atom.prop.CHAIN_ID>  (3318) 
A A A A A A A A A A A Z Z Z Z Z Z Z Z Z Z Z Z Z Z Z

>  <atom.prop.IS_HEAVY_ATOM>  (3318) 
1 0 0 0 1 0 0 1 0 0 0 1 0 0 0 1 1 0 1 0 1 0 1 0 1 0

>  <DIFUSE_FUNC_ATOM>  (3318) 
n/a

>  <FINAL_SINGLE_POINT_ENERGY>  (3318) 
0

>  <NONCOV_INTER_ENERGY_QM>  (3318) 
0

>  <FF_Energy>  (3318) 
1.39

>  <QM_Energy>  (3318) 
-6.39

>  <source>  (3318) 
ETAM_MBZ

>  <Index>  (3318) 
36416

$$$$
ETAM-pdb6r62-A-LYS-220:MBZ-pdb6r62-A-PHE-216
     RDKit          3D

 26 25  0  0  0  0  0  0  0  0999 V2000
    1.6378   -1.7451    3.2707 C   0  0  0  0  0  0  0  0  0  0  0  0
    1.6556   -2.2482    2.4427 H   0  0  0  0  0  0  0  0  0  0  0  0
    1.9175   -2.3095    4.0096 H   0  0  0  0  0  0  0  0  0  0  0  0
    2.3217   -0.9002    3.1899 H   0  0  0  0  0  0  0  0  0  0  0  0
    0.2039   -1.3072    3.5274 C   0  0  0  0  0  0  0  0  0  0  0  0
    0.1486   -0.9151    4.4134 H   0  0  0  0  0  0  0  0  0  0  0  0
   -0.0478   -0.6500    2.8598 H   0  0  0  0  0  0  0  0  0  0  0  0
   -0.7791   -2.4281    3.4610 N   0  0  0  0  0  4  0  0  0  0  0  0
   -0.5789   -3.0446    4.0709 H   0  0  0  0  0  0  0  0  0  0  0  0
   -1.6006   -2.1227    3.6173 H   0  0  0  0  0  0  0  0  0  0  0  0
   -0.7591   -2.8032    2.6537 H   0  0  0  0  0  0  0  0  0  0  0  0
    0.0142    2.9078   -0.0193 C   0  0  0  0  0  0  0  0  0  0  0  0
   -0.7527    3.1977   -0.5379 H   0  0  0  0  0  0  0  0  0  0  0  0
    0.8320    3.1857   -0.4621 H   0  0  0  0  0  0  0  0  0  0  0  0
   -0.0291    3.3813    0.9616 H   0  0  0  0  0  0  0  0  0  0  0  0
    0.0010    1.3984    0.0120 C   0  0  0  0  0  0  0  0  0  0  0  0
   -1.1936    0.6942   -0.0028 C   0  0  0  0  0  0  0  0  0  0  0  0
   -2.0009    1.1554   -0.0025 H   0  0  0  0  0  0  0  0  0  0  0  0
   -1.1956   -0.6986   -0.0000 C   0  0  0  0  0  0  0  0  0  0  0  0
   -2.0010   -1.1638    0.0015 H   0  0  0  0  0  0  0  0  0  0  0  0
    0.0019   -1.3867   -0.0038 C   0  0  0  0  0  0  0  0  0  0  0  0
    0.0034   -2.3167    0.0020 H   0  0  0  0  0  0  0  0  0  0  0  0
    1.1956   -0.6970    0.0000 C   0  0  0  0  0  0  0  0  0  0  0  0
    2.0020   -1.1609   -0.0018 H   0  0  0  0  0  0  0  0  0  0  0  0
    1.1907    0.6897   -0.0055 C   0  0  0  0  0  0  0  0  0  0  0  0
    1.9991    1.1511   -0.0054 H   0  0  0  0  0  0  0  0  0  0  0  0
  1  5  1  0
  5  8  1  0
  1  2  1  0
  1  3  1  0
  1  4  1  0
  5  6  1  0
  5  7  1  0
  8  9  1  0
  8 10  1  0
  8 11  1  0
 12 16  1  0
 16 17  2  0
 17 19  1  0
 19 21  2  0
 21 23  1  0
 23 25  2  0
 25 16  1  0
 12 13  1  0
 12 14  1  0
 12 15  1  0
 17 18  1  0
 19 20  1  0
 21 22  1  0
 23 24  1  0
 25 26  1  0
M  CHG  1   8   1
M  END
>  <PDB_ID>  (3319) 
pdb6r62

>  <RESIDUE_NAME>  (3319) 
LYS   PHE

>  <FRAG_NAME>  (3319) 
ETAM   MBZ

>  <FRAG_ATOM_NUM>  (3319) 
fragi: 11  fragj: 15

>  <atom.prop.CHAIN_ID>  (3319) 
A A A A A A A A A A A Z Z Z Z Z Z Z Z Z Z Z Z Z Z Z

>  <atom.prop.IS_HEAVY_ATOM>  (3319) 
1 0 0 0 1 0 0 1 0 0 0 1 0 0 0 1 1 0 1 0 1 0 1 0 1 0

>  <DIFUSE_FUNC_ATOM>  (3319) 
n/a

>  <FINAL_SINGLE_POINT_ENERGY>  (3319) 
0

>  <NONCOV_INTER_ENERGY_QM>  (3319) 
0

>  <FF_Energy>  (3319) 
-4.4

>  <QM_Energy>  (3319) 
-10.21

>  <source>  (3319) 
ETAM_MBZ

>  <Index>  (3319) 
36420

$$$$
ETAM-pdb6qp7-B-LYS-576:MBZ-pdb6qp7-B-PHE-33
     RDKit          3D

 26 25  0  0  0  0  0  0  0  0999 V2000
    1.3706   -0.3666    5.3874 C   0  0  0  0  0  0  0  0  0  0  0  0
    1.2823    0.5517    5.0073 H   0  0  0  0  0  0  0  0  0  0  0  0
    2.2549   -0.7539    5.1363 H   0  0  0  0  0  0  0  0  0  0  0  0
    1.3094   -0.3047    6.4739 H   0  0  0  0  0  0  0  0  0  0  0  0
    0.2758   -1.2393    4.8061 C   0  0  0  0  0  0  0  0  0  0  0  0
    0.4334   -2.1873    5.0780 H   0  0  0  0  0  0  0  0  0  0  0  0
   -0.6074   -0.9319    5.1552 H   0  0  0  0  0  0  0  0  0  0  0  0
    0.2724   -1.1505    3.3199 N   0  0  0  0  0  4  0  0  0  0  0  0
    0.4799   -2.0488    2.9338 H   0  0  0  0  0  0  0  0  0  0  0  0
   -0.6292   -0.8518    3.0082 H   0  0  0  0  0  0  0  0  0  0  0  0
    0.9643   -0.4911    3.0261 H   0  0  0  0  0  0  0  0  0  0  0  0
    0.0014    2.9006   -0.0079 C   0  0  0  0  0  0  0  0  0  0  0  0
   -0.7887    3.2045   -0.5224 H   0  0  0  0  0  0  0  0  0  0  0  0
    0.8422    3.2043   -0.4356 H   0  0  0  0  0  0  0  0  0  0  0  0
   -0.0510    3.3633    0.9776 H   0  0  0  0  0  0  0  0  0  0  0  0
    0.0004    1.3991    0.0074 C   0  0  0  0  0  0  0  0  0  0  0  0
   -1.1931    0.6897   -0.0042 C   0  0  0  0  0  0  0  0  0  0  0  0
   -2.0607    1.1787   -0.0167 H   0  0  0  0  0  0  0  0  0  0  0  0
   -1.1948   -0.6980    0.0000 C   0  0  0  0  0  0  0  0  0  0  0  0
   -2.0741   -1.1918    0.0033 H   0  0  0  0  0  0  0  0  0  0  0  0
    0.0002   -1.3886    0.0009 C   0  0  0  0  0  0  0  0  0  0  0  0
   -0.0022   -2.3898    0.0017 H   0  0  0  0  0  0  0  0  0  0  0  0
    1.1948   -0.6956   -0.0000 C   0  0  0  0  0  0  0  0  0  0  0  0
    2.0789   -1.1928    0.0037 H   0  0  0  0  0  0  0  0  0  0  0  0
    1.1925    0.6933   -0.0041 C   0  0  0  0  0  0  0  0  0  0  0  0
    2.0623    1.1880   -0.0171 H   0  0  0  0  0  0  0  0  0  0  0  0
  1  5  1  0
  5  8  1  0
  1  2  1  0
  1  3  1  0
  1  4  1  0
  5  6  1  0
  5  7  1  0
  8  9  1  0
  8 10  1  0
  8 11  1  0
 12 16  1  0
 16 17  2  0
 17 19  1  0
 19 21  2  0
 21 23  1  0
 23 25  2  0
 25 16  1  0
 12 13  1  0
 12 14  1  0
 12 15  1  0
 17 18  1  0
 19 20  1  0
 21 22  1  0
 23 24  1  0
 25 26  1  0
M  CHG  1   8   1
M  END
>  <PDB_ID>  (3320) 
pdb6qp7

>  <RESIDUE_NAME>  (3320) 
LYS   PHE

>  <FRAG_NAME>  (3320) 
ETAM   MBZ

>  <FRAG_ATOM_NUM>  (3320) 
fragi: 11  fragj: 15

>  <atom.prop.CHAIN_ID>  (3320) 
A A A A A A A A A A A Z Z Z Z Z Z Z Z Z Z Z Z Z Z Z

>  <atom.prop.IS_HEAVY_ATOM>  (3320) 
1 0 0 0 1 0 0 1 0 0 0 1 0 0 0 1 1 0 1 0 1 0 1 0 1 0

>  <DIFUSE_FUNC_ATOM>  (3320) 
n/a

>  <FINAL_SINGLE_POINT_ENERGY>  (3320) 
0

>  <NONCOV_INTER_ENERGY_QM>  (3320) 
0

>  <FF_Energy>  (3320) 
-6.61

>  <QM_Energy>  (3320) 
-12.96

>  <source>  (3320) 
ETAM_MBZ

>  <Index>  (3320) 
36429

$$$$
ETAM-pdb5msc-A-LYS-442:MBZ-pdb5msc-A-PHE-490
     RDKit          3D

 26 25  0  0  0  0  0  0  0  0999 V2000
    0.6732   -0.7576    4.0425 C   0  0  0  0  0  0  0  0  0  0  0  0
    1.0442   -0.9811    4.9380 H   0  0  0  0  0  0  0  0  0  0  0  0
    0.7388   -1.5411    3.4338 H   0  0  0  0  0  0  0  0  0  0  0  0
   -0.3769   -0.4884    4.1562 H   0  0  0  0  0  0  0  0  0  0  0  0
    1.4923    0.3881    3.4489 C   0  0  0  0  0  0  0  0  0  0  0  0
    1.0471    0.6965    2.5971 H   0  0  0  0  0  0  0  0  0  0  0  0
    1.4867    1.1609    4.0996 H   0  0  0  0  0  0  0  0  0  0  0  0
    2.9125    0.0204    3.1468 N   0  0  0  0  0  4  0  0  0  0  0  0
    2.9451   -0.4722    2.2795 H   0  0  0  0  0  0  0  0  0  0  0  0
    3.4592    0.8534    3.0836 H   0  0  0  0  0  0  0  0  0  0  0  0
    3.2630   -0.5599    3.8793 H   0  0  0  0  0  0  0  0  0  0  0  0
   -0.0179    2.8850    0.0082 C   0  0  0  0  0  0  0  0  0  0  0  0
    0.8299    3.2020    0.4153 H   0  0  0  0  0  0  0  0  0  0  0  0
   -0.7984    3.1840    0.5432 H   0  0  0  0  0  0  0  0  0  0  0  0
   -0.1012    3.3346   -0.9813 H   0  0  0  0  0  0  0  0  0  0  0  0
   -0.0020    1.3950    0.0011 C   0  0  0  0  0  0  0  0  0  0  0  0
   -1.1984    0.6933    0.0014 C   0  0  0  0  0  0  0  0  0  0  0  0
   -2.0642    1.1881    0.0008 H   0  0  0  0  0  0  0  0  0  0  0  0
   -1.2081   -0.6924   -0.0000 C   0  0  0  0  0  0  0  0  0  0  0  0
   -2.0815   -1.1889   -0.0002 H   0  0  0  0  0  0  0  0  0  0  0  0
   -0.0008   -1.3920    0.0001 C   0  0  0  0  0  0  0  0  0  0  0  0
   -0.0048   -2.3888   -0.0005 H   0  0  0  0  0  0  0  0  0  0  0  0
    1.2081   -0.6943   -0.0000 C   0  0  0  0  0  0  0  0  0  0  0  0
    2.0842   -1.1964    0.0030 H   0  0  0  0  0  0  0  0  0  0  0  0
    1.2012    0.6904   -0.0026 C   0  0  0  0  0  0  0  0  0  0  0  0
    2.0646    1.1931   -0.0080 H   0  0  0  0  0  0  0  0  0  0  0  0
  1  5  1  0
  5  8  1  0
  1  2  1  0
  1  3  1  0
  1  4  1  0
  5  6  1  0
  5  7  1  0
  8  9  1  0
  8 10  1  0
  8 11  1  0
 12 16  1  0
 16 17  2  0
 17 19  1  0
 19 21  2  0
 21 23  1  0
 23 25  2  0
 25 16  1  0
 12 13  1  0
 12 14  1  0
 12 15  1  0
 17 18  1  0
 19 20  1  0
 21 22  1  0
 23 24  1  0
 25 26  1  0
M  CHG  1   8   1
M  END
>  <PDB_ID>  (3321) 
pdb5msc

>  <RESIDUE_NAME>  (3321) 
LYS   PHE

>  <FRAG_NAME>  (3321) 
ETAM   MBZ

>  <FRAG_ATOM_NUM>  (3321) 
fragi: 11  fragj: 15

>  <atom.prop.CHAIN_ID>  (3321) 
A A A A A A A A A A A Z Z Z Z Z Z Z Z Z Z Z Z Z Z Z

>  <atom.prop.IS_HEAVY_ATOM>  (3321) 
1 0 0 0 1 0 0 1 0 0 0 1 0 0 0 1 1 0 1 0 1 0 1 0 1 0

>  <DIFUSE_FUNC_ATOM>  (3321) 
n/a

>  <FINAL_SINGLE_POINT_ENERGY>  (3321) 
0

>  <NONCOV_INTER_ENERGY_QM>  (3321) 
0

>  <FF_Energy>  (3321) 
-4.01

>  <QM_Energy>  (3321) 
-9.86

>  <source>  (3321) 
ETAM_MBZ

>  <Index>  (3321) 
36432

$$$$
ETAM-pdb5my7-A-LYS-42:MBZ-pdb5my7-A-PHE-118
     RDKit          3D

 26 25  0  0  0  0  0  0  0  0999 V2000
    2.1425   -0.1859    4.3701 C   0  0  0  0  0  0  0  0  0  0  0  0
    1.9200   -0.2664    5.3409 H   0  0  0  0  0  0  0  0  0  0  0  0
    1.7508    0.6566    4.0044 H   0  0  0  0  0  0  0  0  0  0  0  0
    3.2266   -0.1393    4.2659 H   0  0  0  0  0  0  0  0  0  0  0  0
    1.5576   -1.3568    3.6349 C   0  0  0  0  0  0  0  0  0  0  0  0
    1.8773   -1.3594    2.6835 H   0  0  0  0  0  0  0  0  0  0  0  0
    1.8395   -2.2143    4.0742 H   0  0  0  0  0  0  0  0  0  0  0  0
    0.0318   -1.3223    3.6150 N   0  0  0  0  0  4  0  0  0  0  0  0
   -0.2906   -1.1931    4.5465 H   0  0  0  0  0  0  0  0  0  0  0  0
   -0.2568   -0.5669    3.0375 H   0  0  0  0  0  0  0  0  0  0  0  0
   -0.2961   -2.1858    3.2491 H   0  0  0  0  0  0  0  0  0  0  0  0
   -0.0519    2.9462    0.0498 C   0  0  0  0  0  0  0  0  0  0  0  0
   -0.8499    3.2373   -0.4421 H   0  0  0  0  0  0  0  0  0  0  0  0
    0.7807    3.2740   -0.3559 H   0  0  0  0  0  0  0  0  0  0  0  0
   -0.1144    3.3435    1.0629 H   0  0  0  0  0  0  0  0  0  0  0  0
   -0.0152    1.4132    0.0017 C   0  0  0  0  0  0  0  0  0  0  0  0
   -1.1973    0.6725   -0.0017 C   0  0  0  0  0  0  0  0  0  0  0  0
   -2.0751    1.1512   -0.0065 H   0  0  0  0  0  0  0  0  0  0  0  0
   -1.1812   -0.7130   -0.0000 C   0  0  0  0  0  0  0  0  0  0  0  0
   -2.0593   -1.2164   -0.0004 H   0  0  0  0  0  0  0  0  0  0  0  0
    0.0137   -1.3912    0.0038 C   0  0  0  0  0  0  0  0  0  0  0  0
    0.0190   -2.3929    0.0086 H   0  0  0  0  0  0  0  0  0  0  0  0
    1.1812   -0.6854    0.0000 C   0  0  0  0  0  0  0  0  0  0  0  0
    2.0832   -1.1816    0.0017 H   0  0  0  0  0  0  0  0  0  0  0  0
    1.1988    0.7040   -0.0039 C   0  0  0  0  0  0  0  0  0  0  0  0
    2.0561    1.1979   -0.0111 H   0  0  0  0  0  0  0  0  0  0  0  0
  1  5  1  0
  5  8  1  0
  1  2  1  0
  1  3  1  0
  1  4  1  0
  5  6  1  0
  5  7  1  0
  8  9  1  0
  8 10  1  0
  8 11  1  0
 12 16  1  0
 16 17  2  0
 17 19  1  0
 19 21  2  0
 21 23  1  0
 23 25  2  0
 25 16  1  0
 12 13  1  0
 12 14  1  0
 12 15  1  0
 17 18  1  0
 19 20  1  0
 21 22  1  0
 23 24  1  0
 25 26  1  0
M  CHG  1   8   1
M  END
>  <PDB_ID>  (3322) 
pdb5my7

>  <RESIDUE_NAME>  (3322) 
LYS   PHE

>  <FRAG_NAME>  (3322) 
ETAM   MBZ

>  <FRAG_ATOM_NUM>  (3322) 
fragi: 11  fragj: 15

>  <atom.prop.CHAIN_ID>  (3322) 
A A A A A A A A A A A Z Z Z Z Z Z Z Z Z Z Z Z Z Z Z

>  <atom.prop.IS_HEAVY_ATOM>  (3322) 
1 0 0 0 1 0 0 1 0 0 0 1 0 0 0 1 1 0 1 0 1 0 1 0 1 0

>  <DIFUSE_FUNC_ATOM>  (3322) 
n/a

>  <FINAL_SINGLE_POINT_ENERGY>  (3322) 
0

>  <NONCOV_INTER_ENERGY_QM>  (3322) 
0

>  <FF_Energy>  (3322) 
-6.23

>  <QM_Energy>  (3322) 
-11.77

>  <source>  (3322) 
ETAM_MBZ

>  <Index>  (3322) 
36434

$$$$
ETAM-pdb6rr0-C-LYS-1008:MBZ-pdb6rr0-C-PHE-1070
     RDKit          3D

 26 25  0  0  0  0  0  0  0  0999 V2000
   -0.6922   -4.1322   -1.5524 C   0  0  0  0  0  0  0  0  0  0  0  0
   -0.6412   -3.2683   -1.0212 H   0  0  0  0  0  0  0  0  0  0  0  0
   -0.5371   -3.8935   -2.5268 H   0  0  0  0  0  0  0  0  0  0  0  0
    0.1241   -4.7772   -1.2272 H   0  0  0  0  0  0  0  0  0  0  0  0
   -2.0740   -4.7027   -1.4113 C   0  0  0  0  0  0  0  0  0  0  0  0
   -2.2589   -5.3253   -2.1765 H   0  0  0  0  0  0  0  0  0  0  0  0
   -2.1379   -5.2188   -0.5526 H   0  0  0  0  0  0  0  0  0  0  0  0
   -3.1138   -3.6306   -1.4041 N   0  0  0  0  0  4  0  0  0  0  0  0
   -2.8317   -2.9031   -0.7808 H   0  0  0  0  0  0  0  0  0  0  0  0
   -3.2139   -3.2631   -2.3267 H   0  0  0  0  0  0  0  0  0  0  0  0
   -3.9824   -4.0173   -1.0994 H   0  0  0  0  0  0  0  0  0  0  0  0
   -0.0076    2.8939   -0.0166 C   0  0  0  0  0  0  0  0  0  0  0  0
    0.2261    3.2209    0.8988 H   0  0  0  0  0  0  0  0  0  0  0  0
   -0.9271    3.2021   -0.2566 H   0  0  0  0  0  0  0  0  0  0  0  0
    0.6815    3.3733   -0.7120 H   0  0  0  0  0  0  0  0  0  0  0  0
   -0.0019    1.4033    0.0014 C   0  0  0  0  0  0  0  0  0  0  0  0
   -1.1987    0.6911   -0.0064 C   0  0  0  0  0  0  0  0  0  0  0  0
   -2.0662    1.1763   -0.0178 H   0  0  0  0  0  0  0  0  0  0  0  0
   -1.1987   -0.7064    0.0000 C   0  0  0  0  0  0  0  0  0  0  0  0
   -2.0719   -1.1991   -0.0115 H   0  0  0  0  0  0  0  0  0  0  0  0
    0.0045   -1.3838    0.0239 C   0  0  0  0  0  0  0  0  0  0  0  0
    0.0025   -2.3916    0.0591 H   0  0  0  0  0  0  0  0  0  0  0  0
    1.1987   -0.6992   -0.0000 C   0  0  0  0  0  0  0  0  0  0  0  0
    2.0818   -1.1935   -0.0028 H   0  0  0  0  0  0  0  0  0  0  0  0
    1.1962    0.6949   -0.0189 C   0  0  0  0  0  0  0  0  0  0  0  0
    2.0631    1.1896   -0.0479 H   0  0  0  0  0  0  0  0  0  0  0  0
  1  5  1  0
  5  8  1  0
  1  2  1  0
  1  3  1  0
  1  4  1  0
  5  6  1  0
  5  7  1  0
  8  9  1  0
  8 10  1  0
  8 11  1  0
 12 16  1  0
 16 17  2  0
 17 19  1  0
 19 21  2  0
 21 23  1  0
 23 25  2  0
 25 16  1  0
 12 13  1  0
 12 14  1  0
 12 15  1  0
 17 18  1  0
 19 20  1  0
 21 22  1  0
 23 24  1  0
 25 26  1  0
M  CHG  1   8   1
M  END
>  <PDB_ID>  (3323) 
pdb6rr0

>  <RESIDUE_NAME>  (3323) 
LYS   PHE

>  <FRAG_NAME>  (3323) 
ETAM   MBZ

>  <FRAG_ATOM_NUM>  (3323) 
fragi: 11  fragj: 15

>  <atom.prop.CHAIN_ID>  (3323) 
A A A A A A A A A A A Z Z Z Z Z Z Z Z Z Z Z Z Z Z Z

>  <atom.prop.IS_HEAVY_ATOM>  (3323) 
1 0 0 0 1 0 0 1 0 0 0 1 0 0 0 1 1 0 1 0 1 0 1 0 1 0

>  <DIFUSE_FUNC_ATOM>  (3323) 
n/a

>  <FINAL_SINGLE_POINT_ENERGY>  (3323) 
0

>  <NONCOV_INTER_ENERGY_QM>  (3323) 
0

>  <FF_Energy>  (3323) 
28.36

>  <QM_Energy>  (3323) 
1.23

>  <source>  (3323) 
ETAM_MBZ

>  <Index>  (3323) 
36438

$$$$
ETAM-pdb6rr0-E-LYS-1008:MBZ-pdb6rr0-E-PHE-1070
     RDKit          3D

 26 25  0  0  0  0  0  0  0  0999 V2000
   -0.6585   -4.3139   -1.3110 C   0  0  0  0  0  0  0  0  0  0  0  0
   -0.7088   -3.4758   -0.7641 H   0  0  0  0  0  0  0  0  0  0  0  0
   -0.4934   -4.0730   -2.2693 H   0  0  0  0  0  0  0  0  0  0  0  0
    0.1830   -4.9078   -0.9543 H   0  0  0  0  0  0  0  0  0  0  0  0
   -1.9798   -5.0396   -1.2124 C   0  0  0  0  0  0  0  0  0  0  0  0
   -2.0122   -5.7628   -1.9125 H   0  0  0  0  0  0  0  0  0  0  0  0
   -2.0522   -5.4732   -0.3063 H   0  0  0  0  0  0  0  0  0  0  0  0
   -3.1461   -4.1304   -1.4050 N   0  0  0  0  0  4  0  0  0  0  0  0
   -2.8199   -3.2334   -1.7016 H   0  0  0  0  0  0  0  0  0  0  0  0
   -3.7527   -4.5147   -2.1001 H   0  0  0  0  0  0  0  0  0  0  0  0
   -3.6401   -4.0394   -0.5408 H   0  0  0  0  0  0  0  0  0  0  0  0
    0.0018    2.8838   -0.0137 C   0  0  0  0  0  0  0  0  0  0  0  0
    0.3255    3.1956    0.8693 H   0  0  0  0  0  0  0  0  0  0  0  0
   -0.9233    3.1959   -0.1823 H   0  0  0  0  0  0  0  0  0  0  0  0
    0.6440    3.3242   -0.7765 H   0  0  0  0  0  0  0  0  0  0  0  0
   -0.0003    1.3933   -0.0109 C   0  0  0  0  0  0  0  0  0  0  0  0
   -1.1957    0.6903   -0.0109 C   0  0  0  0  0  0  0  0  0  0  0  0
   -2.0610    1.1833   -0.0195 H   0  0  0  0  0  0  0  0  0  0  0  0
   -1.1966   -0.6895   -0.0000 C   0  0  0  0  0  0  0  0  0  0  0  0
   -2.0737   -1.1874   -0.0048 H   0  0  0  0  0  0  0  0  0  0  0  0
   -0.0020   -1.3733    0.0193 C   0  0  0  0  0  0  0  0  0  0  0  0
   -0.0120   -2.3835    0.0474 H   0  0  0  0  0  0  0  0  0  0  0  0
    1.1966   -0.7018    0.0000 C   0  0  0  0  0  0  0  0  0  0  0  0
    2.0740   -1.2052   -0.0146 H   0  0  0  0  0  0  0  0  0  0  0  0
    1.1980    0.6810    0.0025 C   0  0  0  0  0  0  0  0  0  0  0  0
    2.0644    1.1790    0.0128 H   0  0  0  0  0  0  0  0  0  0  0  0
  1  5  1  0
  5  8  1  0
  1  2  1  0
  1  3  1  0
  1  4  1  0
  5  6  1  0
  5  7  1  0
  8  9  1  0
  8 10  1  0
  8 11  1  0
 12 16  1  0
 16 17  2  0
 17 19  1  0
 19 21  2  0
 21 23  1  0
 23 25  2  0
 25 16  1  0
 12 13  1  0
 12 14  1  0
 12 15  1  0
 17 18  1  0
 19 20  1  0
 21 22  1  0
 23 24  1  0
 25 26  1  0
M  CHG  1   8   1
M  END
>  <PDB_ID>  (3324) 
pdb6rr0

>  <RESIDUE_NAME>  (3324) 
LYS   PHE

>  <FRAG_NAME>  (3324) 
ETAM   MBZ

>  <FRAG_ATOM_NUM>  (3324) 
fragi: 11  fragj: 15

>  <atom.prop.CHAIN_ID>  (3324) 
A A A A A A A A A A A Z Z Z Z Z Z Z Z Z Z Z Z Z Z Z

>  <atom.prop.IS_HEAVY_ATOM>  (3324) 
1 0 0 0 1 0 0 1 0 0 0 1 0 0 0 1 1 0 1 0 1 0 1 0 1 0

>  <DIFUSE_FUNC_ATOM>  (3324) 
n/a

>  <FINAL_SINGLE_POINT_ENERGY>  (3324) 
0

>  <NONCOV_INTER_ENERGY_QM>  (3324) 
0

>  <FF_Energy>  (3324) 
27.2

>  <QM_Energy>  (3324) 
1.46

>  <source>  (3324) 
ETAM_MBZ

>  <Index>  (3324) 
36440

$$$$
ETAM-pdb5mvv-A-LYS-284:MBZ-pdb5mvv-A-PHE-280
     RDKit          3D

 26 25  0  0  0  0  0  0  0  0999 V2000
   -0.3147   -2.0275    3.5397 C   0  0  0  0  0  0  0  0  0  0  0  0
   -0.1956   -2.6922    4.2570 H   0  0  0  0  0  0  0  0  0  0  0  0
   -0.5909   -2.4469    2.6919 H   0  0  0  0  0  0  0  0  0  0  0  0
   -1.0895   -1.3248    3.8459 H   0  0  0  0  0  0  0  0  0  0  0  0
    0.9695   -1.2788    3.3326 C   0  0  0  0  0  0  0  0  0  0  0  0
    0.8381   -0.5775    2.6457 H   0  0  0  0  0  0  0  0  0  0  0  0
    1.2650   -0.8814    4.1907 H   0  0  0  0  0  0  0  0  0  0  0  0
    1.9917   -2.2421    2.8612 N   0  0  0  0  0  4  0  0  0  0  0  0
    2.2116   -2.0553    1.9026 H   0  0  0  0  0  0  0  0  0  0  0  0
    2.8198   -2.1503    3.4162 H   0  0  0  0  0  0  0  0  0  0  0  0
    1.6377   -3.1746    2.9448 H   0  0  0  0  0  0  0  0  0  0  0  0
    0.0299    2.8758   -0.0151 C   0  0  0  0  0  0  0  0  0  0  0  0
   -0.3715    3.1733   -0.8746 H   0  0  0  0  0  0  0  0  0  0  0  0
    0.9758    3.1749    0.0476 H   0  0  0  0  0  0  0  0  0  0  0  0
   -0.5199    3.3664    0.7881 H   0  0  0  0  0  0  0  0  0  0  0  0
    0.0091    1.3794    0.0179 C   0  0  0  0  0  0  0  0  0  0  0  0
   -1.1866    0.6733   -0.0163 C   0  0  0  0  0  0  0  0  0  0  0  0
   -2.0473    1.1770   -0.0543 H   0  0  0  0  0  0  0  0  0  0  0  0
   -1.1768   -0.6763   -0.0000 C   0  0  0  0  0  0  0  0  0  0  0  0
   -2.0660   -1.1824    0.0538 H   0  0  0  0  0  0  0  0  0  0  0  0
   -0.0130   -1.3549   -0.0515 C   0  0  0  0  0  0  0  0  0  0  0  0
   -0.0183   -2.3650   -0.1290 H   0  0  0  0  0  0  0  0  0  0  0  0
    1.1768   -0.6887    0.0000 C   0  0  0  0  0  0  0  0  0  0  0  0
    2.0562   -1.2081    0.0029 H   0  0  0  0  0  0  0  0  0  0  0  0
    1.1905    0.6672    0.0499 C   0  0  0  0  0  0  0  0  0  0  0  0
    2.0613    1.1653    0.1099 H   0  0  0  0  0  0  0  0  0  0  0  0
  1  5  1  0
  5  8  1  0
  1  2  1  0
  1  3  1  0
  1  4  1  0
  5  6  1  0
  5  7  1  0
  8  9  1  0
  8 10  1  0
  8 11  1  0
 12 16  1  0
 16 17  2  0
 17 19  1  0
 19 21  2  0
 21 23  1  0
 23 25  2  0
 25 16  1  0
 12 13  1  0
 12 14  1  0
 12 15  1  0
 17 18  1  0
 19 20  1  0
 21 22  1  0
 23 24  1  0
 25 26  1  0
M  CHG  1   8   1
M  END
>  <PDB_ID>  (3325) 
pdb5mvv

>  <RESIDUE_NAME>  (3325) 
LYS   PHE

>  <FRAG_NAME>  (3325) 
ETAM   MBZ

>  <FRAG_ATOM_NUM>  (3325) 
fragi: 11  fragj: 15

>  <atom.prop.CHAIN_ID>  (3325) 
A A A A A A A A A A A Z Z Z Z Z Z Z Z Z Z Z Z Z Z Z

>  <atom.prop.IS_HEAVY_ATOM>  (3325) 
1 0 0 0 1 0 0 1 0 0 0 1 0 0 0 1 1 0 1 0 1 0 1 0 1 0

>  <DIFUSE_FUNC_ATOM>  (3325) 
n/a

>  <FINAL_SINGLE_POINT_ENERGY>  (3325) 
0

>  <NONCOV_INTER_ENERGY_QM>  (3325) 
0

>  <FF_Energy>  (3325) 
-3.38

>  <QM_Energy>  (3325) 
-10.85

>  <source>  (3325) 
ETAM_MBZ

>  <Index>  (3325) 
36448

$$$$
ETAM-pdb5mz5-C-LYS-487:MBZ-pdb5mz5-C-PHE-159
     RDKit          3D

 26 25  0  0  0  0  0  0  0  0999 V2000
   -1.9565   -1.4845   -3.8079 C   0  0  0  0  0  0  0  0  0  0  0  0
   -1.6887   -2.1276   -3.0712 H   0  0  0  0  0  0  0  0  0  0  0  0
   -1.7902   -1.9529   -4.6914 H   0  0  0  0  0  0  0  0  0  0  0  0
   -3.0228   -1.2773   -3.7185 H   0  0  0  0  0  0  0  0  0  0  0  0
   -1.0246   -0.2733   -3.7358 C   0  0  0  0  0  0  0  0  0  0  0  0
   -1.2490    0.3526   -4.4879 H   0  0  0  0  0  0  0  0  0  0  0  0
   -1.1776    0.2008   -2.8638 H   0  0  0  0  0  0  0  0  0  0  0  0
    0.4194   -0.6583   -3.8353 N   0  0  0  0  0  4  0  0  0  0  0  0
    0.5769   -1.4780   -3.2892 H   0  0  0  0  0  0  0  0  0  0  0  0
    0.6446   -0.8392   -4.7903 H   0  0  0  0  0  0  0  0  0  0  0  0
    0.9815    0.0906   -3.4910 H   0  0  0  0  0  0  0  0  0  0  0  0
    0.0027    2.9191    0.0628 C   0  0  0  0  0  0  0  0  0  0  0  0
   -0.7164    3.2417   -0.5310 H   0  0  0  0  0  0  0  0  0  0  0  0
    0.8896    3.2319   -0.2361 H   0  0  0  0  0  0  0  0  0  0  0  0
   -0.1768    3.3389    1.0525 H   0  0  0  0  0  0  0  0  0  0  0  0
    0.0007    1.4071    0.0244 C   0  0  0  0  0  0  0  0  0  0  0  0
   -1.1989    0.6946   -0.0079 C   0  0  0  0  0  0  0  0  0  0  0  0
   -2.0645    1.1789   -0.0379 H   0  0  0  0  0  0  0  0  0  0  0  0
   -1.1975   -0.7044    0.0000 C   0  0  0  0  0  0  0  0  0  0  0  0
   -2.0749   -1.1946    0.0324 H   0  0  0  0  0  0  0  0  0  0  0  0
   -0.0010   -1.3907   -0.0346 C   0  0  0  0  0  0  0  0  0  0  0  0
   -0.0013   -2.3928   -0.0853 H   0  0  0  0  0  0  0  0  0  0  0  0
    1.1975   -0.6991    0.0000 C   0  0  0  0  0  0  0  0  0  0  0  0
    2.0793   -1.1985    0.0140 H   0  0  0  0  0  0  0  0  0  0  0  0
    1.1991    0.6926    0.0181 C   0  0  0  0  0  0  0  0  0  0  0  0
    2.0671    1.1869    0.0258 H   0  0  0  0  0  0  0  0  0  0  0  0
  1  5  1  0
  5  8  1  0
  1  2  1  0
  1  3  1  0
  1  4  1  0
  5  6  1  0
  5  7  1  0
  8  9  1  0
  8 10  1  0
  8 11  1  0
 12 16  1  0
 16 17  2  0
 17 19  1  0
 19 21  2  0
 21 23  1  0
 23 25  2  0
 25 16  1  0
 12 13  1  0
 12 14  1  0
 12 15  1  0
 17 18  1  0
 19 20  1  0
 21 22  1  0
 23 24  1  0
 25 26  1  0
M  CHG  1   8   1
M  END
>  <PDB_ID>  (3326) 
pdb5mz5

>  <RESIDUE_NAME>  (3326) 
LYS   PHE

>  <FRAG_NAME>  (3326) 
ETAM   MBZ

>  <FRAG_ATOM_NUM>  (3326) 
fragi: 11  fragj: 15

>  <atom.prop.CHAIN_ID>  (3326) 
A A A A A A A A A A A Z Z Z Z Z Z Z Z Z Z Z Z Z Z Z

>  <atom.prop.IS_HEAVY_ATOM>  (3326) 
1 0 0 0 1 0 0 1 0 0 0 1 0 0 0 1 1 0 1 0 1 0 1 0 1 0

>  <DIFUSE_FUNC_ATOM>  (3326) 
n/a

>  <FINAL_SINGLE_POINT_ENERGY>  (3326) 
0

>  <NONCOV_INTER_ENERGY_QM>  (3326) 
0

>  <FF_Energy>  (3326) 
-6.69

>  <QM_Energy>  (3326) 
-11.78

>  <source>  (3326) 
ETAM_MBZ

>  <Index>  (3326) 
36466

$$$$
ETAM-pdb5l8s-C-LYS-363:MBZ-pdb5l8s-C-PHE-446
     RDKit          3D

 26 25  0  0  0  0  0  0  0  0999 V2000
   -2.0886   -1.0386    3.9564 C   0  0  0  0  0  0  0  0  0  0  0  0
   -2.2708   -1.6075    4.7509 H   0  0  0  0  0  0  0  0  0  0  0  0
   -2.7360   -1.2383    3.2299 H   0  0  0  0  0  0  0  0  0  0  0  0
   -2.1897    0.0085    4.2421 H   0  0  0  0  0  0  0  0  0  0  0  0
   -0.6861   -1.3407    3.4538 C   0  0  0  0  0  0  0  0  0  0  0  0
   -0.5043   -0.7824    2.6428 H   0  0  0  0  0  0  0  0  0  0  0  0
   -0.0262   -1.1057    4.1694 H   0  0  0  0  0  0  0  0  0  0  0  0
   -0.5366   -2.7784    3.1029 N   0  0  0  0  0  4  0  0  0  0  0  0
   -0.5625   -3.3285    3.9378 H   0  0  0  0  0  0  0  0  0  0  0  0
   -1.2842   -3.0521    2.4984 H   0  0  0  0  0  0  0  0  0  0  0  0
    0.3375   -2.9176    2.6382 H   0  0  0  0  0  0  0  0  0  0  0  0
   -0.0038    2.9007    0.0245 C   0  0  0  0  0  0  0  0  0  0  0  0
    0.9359    3.2107   -0.0108 H   0  0  0  0  0  0  0  0  0  0  0  0
   -0.4435    3.1892    0.8642 H   0  0  0  0  0  0  0  0  0  0  0  0
   -0.5383    3.3602   -0.8070 H   0  0  0  0  0  0  0  0  0  0  0  0
   -0.0005    1.4023   -0.0065 C   0  0  0  0  0  0  0  0  0  0  0  0
   -1.1910    0.6922    0.0089 C   0  0  0  0  0  0  0  0  0  0  0  0
   -2.0607    1.1797    0.0253 H   0  0  0  0  0  0  0  0  0  0  0  0
   -1.1956   -0.6993    0.0000 C   0  0  0  0  0  0  0  0  0  0  0  0
   -2.0744   -1.1905   -0.0041 H   0  0  0  0  0  0  0  0  0  0  0  0
    0.0013   -1.3951   -0.0015 C   0  0  0  0  0  0  0  0  0  0  0  0
   -0.0012   -2.3927   -0.0043 H   0  0  0  0  0  0  0  0  0  0  0  0
    1.1956   -0.6952   -0.0000 C   0  0  0  0  0  0  0  0  0  0  0  0
    2.0808   -1.1905    0.0031 H   0  0  0  0  0  0  0  0  0  0  0  0
    1.1902    0.6952   -0.0008 C   0  0  0  0  0  0  0  0  0  0  0  0
    2.0612    1.1897    0.0016 H   0  0  0  0  0  0  0  0  0  0  0  0
  1  5  1  0
  5  8  1  0
  1  2  1  0
  1  3  1  0
  1  4  1  0
  5  6  1  0
  5  7  1  0
  8  9  1  0
  8 10  1  0
  8 11  1  0
 12 16  1  0
 16 17  2  0
 17 19  1  0
 19 21  2  0
 21 23  1  0
 23 25  2  0
 25 16  1  0
 12 13  1  0
 12 14  1  0
 12 15  1  0
 17 18  1  0
 19 20  1  0
 21 22  1  0
 23 24  1  0
 25 26  1  0
M  CHG  1   8   1
M  END
>  <PDB_ID>  (3327) 
pdb5l8s

>  <RESIDUE_NAME>  (3327) 
LYS   PHE

>  <FRAG_NAME>  (3327) 
ETAM   MBZ

>  <FRAG_ATOM_NUM>  (3327) 
fragi: 11  fragj: 15

>  <atom.prop.CHAIN_ID>  (3327) 
A A A A A A A A A A A Z Z Z Z Z Z Z Z Z Z Z Z Z Z Z

>  <atom.prop.IS_HEAVY_ATOM>  (3327) 
1 0 0 0 1 0 0 1 0 0 0 1 0 0 0 1 1 0 1 0 1 0 1 0 1 0

>  <DIFUSE_FUNC_ATOM>  (3327) 
n/a

>  <FINAL_SINGLE_POINT_ENERGY>  (3327) 
0

>  <NONCOV_INTER_ENERGY_QM>  (3327) 
0

>  <FF_Energy>  (3327) 
-3.72

>  <QM_Energy>  (3327) 
-10.1

>  <source>  (3327) 
ETAM_MBZ

>  <Index>  (3327) 
36494

$$$$
ETAM-pdb6sdk-A-LYS-85:MBZ-pdb6sdk-A-PHE-81
     RDKit          3D

 26 25  0  0  0  0  0  0  0  0999 V2000
    0.2657   -1.9687    4.2304 C   0  0  0  0  0  0  0  0  0  0  0  0
    0.6980   -2.4222    4.9705 H   0  0  0  0  0  0  0  0  0  0  0  0
   -0.1729   -2.6141    3.6553 H   0  0  0  0  0  0  0  0  0  0  0  0
   -0.4720   -1.2648    4.6156 H   0  0  0  0  0  0  0  0  0  0  0  0
    1.3221   -1.2526    3.4282 C   0  0  0  0  0  0  0  0  0  0  0  0
    0.9223   -0.9111    2.6125 H   0  0  0  0  0  0  0  0  0  0  0  0
    1.6776   -0.5205    3.9555 H   0  0  0  0  0  0  0  0  0  0  0  0
    2.4549   -2.1408    3.0487 N   0  0  0  0  0  4  0  0  0  0  0  0
    3.0480   -1.6867    2.5651 H   0  0  0  0  0  0  0  0  0  0  0  0
    2.8550   -2.4526    3.7790 H   0  0  0  0  0  0  0  0  0  0  0  0
    2.1560   -2.8278    2.5677 H   0  0  0  0  0  0  0  0  0  0  0  0
   -0.0028    2.8514   -0.0411 C   0  0  0  0  0  0  0  0  0  0  0  0
   -0.5376    3.1183   -0.8052 H   0  0  0  0  0  0  0  0  0  0  0  0
    0.9137    3.1447   -0.1575 H   0  0  0  0  0  0  0  0  0  0  0  0
   -0.4096    3.3265    0.8516 H   0  0  0  0  0  0  0  0  0  0  0  0
    0.0029    1.3835    0.0077 C   0  0  0  0  0  0  0  0  0  0  0  0
   -1.2022    0.6742   -0.0079 C   0  0  0  0  0  0  0  0  0  0  0  0
   -2.0097    1.1346   -0.0248 H   0  0  0  0  0  0  0  0  0  0  0  0
   -1.1986   -0.6959    0.0000 C   0  0  0  0  0  0  0  0  0  0  0  0
   -2.0008   -1.1657   -0.0033 H   0  0  0  0  0  0  0  0  0  0  0  0
    0.0019   -1.3720    0.0122 C   0  0  0  0  0  0  0  0  0  0  0  0
    0.0071   -2.3019    0.0290 H   0  0  0  0  0  0  0  0  0  0  0  0
    1.1986   -0.6822   -0.0000 C   0  0  0  0  0  0  0  0  0  0  0  0
    2.0050   -1.1467    0.0007 H   0  0  0  0  0  0  0  0  0  0  0  0
    1.1974    0.6924   -0.0120 C   0  0  0  0  0  0  0  0  0  0  0  0
    2.0022    1.1581   -0.0335 H   0  0  0  0  0  0  0  0  0  0  0  0
  1  5  1  0
  5  8  1  0
  1  2  1  0
  1  3  1  0
  1  4  1  0
  5  6  1  0
  5  7  1  0
  8  9  1  0
  8 10  1  0
  8 11  1  0
 12 16  1  0
 16 17  2  0
 17 19  1  0
 19 21  2  0
 21 23  1  0
 23 25  2  0
 25 16  1  0
 12 13  1  0
 12 14  1  0
 12 15  1  0
 17 18  1  0
 19 20  1  0
 21 22  1  0
 23 24  1  0
 25 26  1  0
M  CHG  1   8   1
M  END
>  <PDB_ID>  (3328) 
pdb6sdk

>  <RESIDUE_NAME>  (3328) 
LYS   PHE

>  <FRAG_NAME>  (3328) 
ETAM   MBZ

>  <FRAG_ATOM_NUM>  (3328) 
fragi: 11  fragj: 15

>  <atom.prop.CHAIN_ID>  (3328) 
A A A A A A A A A A A Z Z Z Z Z Z Z Z Z Z Z Z Z Z Z

>  <atom.prop.IS_HEAVY_ATOM>  (3328) 
1 0 0 0 1 0 0 1 0 0 0 1 0 0 0 1 1 0 1 0 1 0 1 0 1 0

>  <DIFUSE_FUNC_ATOM>  (3328) 
n/a

>  <FINAL_SINGLE_POINT_ENERGY>  (3328) 
0

>  <NONCOV_INTER_ENERGY_QM>  (3328) 
0

>  <FF_Energy>  (3328) 
-2.76

>  <QM_Energy>  (3328) 
-8.29

>  <source>  (3328) 
ETAM_MBZ

>  <Index>  (3328) 
36547

$$$$
ETAM-pdb6sdk-B-LYS-85:MBZ-pdb6sdk-B-PHE-81
     RDKit          3D

 26 25  0  0  0  0  0  0  0  0999 V2000
    0.2927   -2.2736    3.6581 C   0  0  0  0  0  0  0  0  0  0  0  0
    0.4035   -3.0392    4.2437 H   0  0  0  0  0  0  0  0  0  0  0  0
   -0.1863   -2.5351    2.8568 H   0  0  0  0  0  0  0  0  0  0  0  0
   -0.2734   -1.5014    4.1790 H   0  0  0  0  0  0  0  0  0  0  0  0
    1.6653   -1.7915    3.2508 C   0  0  0  0  0  0  0  0  0  0  0  0
    1.5830   -1.1304    2.5449 H   0  0  0  0  0  0  0  0  0  0  0  0
    2.1160   -1.4030    4.0170 H   0  0  0  0  0  0  0  0  0  0  0  0
    2.4831   -2.9381    2.7417 N   0  0  0  0  0  4  0  0  0  0  0  0
    3.2916   -2.6534    2.5023 H   0  0  0  0  0  0  0  0  0  0  0  0
    2.5719   -3.5548    3.3784 H   0  0  0  0  0  0  0  0  0  0  0  0
    2.0848   -3.3065    2.0365 H   0  0  0  0  0  0  0  0  0  0  0  0
    0.0262    2.9025    0.0101 C   0  0  0  0  0  0  0  0  0  0  0  0
   -0.6729    3.2088   -0.5882 H   0  0  0  0  0  0  0  0  0  0  0  0
    0.8936    3.1852   -0.3201 H   0  0  0  0  0  0  0  0  0  0  0  0
   -0.1353    3.3479    0.9918 H   0  0  0  0  0  0  0  0  0  0  0  0
    0.0038    1.3995    0.0044 C   0  0  0  0  0  0  0  0  0  0  0  0
   -1.1938    0.7044   -0.0177 C   0  0  0  0  0  0  0  0  0  0  0  0
   -1.9984    1.1704   -0.0439 H   0  0  0  0  0  0  0  0  0  0  0  0
   -1.1985   -0.7015    0.0000 C   0  0  0  0  0  0  0  0  0  0  0  0
   -2.0060   -1.1638    0.0083 H   0  0  0  0  0  0  0  0  0  0  0  0
   -0.0063   -1.3950    0.0044 C   0  0  0  0  0  0  0  0  0  0  0  0
   -0.0075   -2.3248    0.0114 H   0  0  0  0  0  0  0  0  0  0  0  0
    1.1985   -0.6979   -0.0000 C   0  0  0  0  0  0  0  0  0  0  0  0
    2.0043   -1.1621   -0.0088 H   0  0  0  0  0  0  0  0  0  0  0  0
    1.1964    0.6904    0.0089 C   0  0  0  0  0  0  0  0  0  0  0  0
    2.0043    1.1512    0.0165 H   0  0  0  0  0  0  0  0  0  0  0  0
  1  5  1  0
  5  8  1  0
  1  2  1  0
  1  3  1  0
  1  4  1  0
  5  6  1  0
  5  7  1  0
  8  9  1  0
  8 10  1  0
  8 11  1  0
 12 16  1  0
 16 17  2  0
 17 19  1  0
 19 21  2  0
 21 23  1  0
 23 25  2  0
 25 16  1  0
 12 13  1  0
 12 14  1  0
 12 15  1  0
 17 18  1  0
 19 20  1  0
 21 22  1  0
 23 24  1  0
 25 26  1  0
M  CHG  1   8   1
M  END
>  <PDB_ID>  (3329) 
pdb6sdk

>  <RESIDUE_NAME>  (3329) 
LYS   PHE

>  <FRAG_NAME>  (3329) 
ETAM   MBZ

>  <FRAG_ATOM_NUM>  (3329) 
fragi: 11  fragj: 15

>  <atom.prop.CHAIN_ID>  (3329) 
A A A A A A A A A A A Z Z Z Z Z Z Z Z Z Z Z Z Z Z Z

>  <atom.prop.IS_HEAVY_ATOM>  (3329) 
1 0 0 0 1 0 0 1 0 0 0 1 0 0 0 1 1 0 1 0 1 0 1 0 1 0

>  <DIFUSE_FUNC_ATOM>  (3329) 
n/a

>  <FINAL_SINGLE_POINT_ENERGY>  (3329) 
0

>  <NONCOV_INTER_ENERGY_QM>  (3329) 
0

>  <FF_Energy>  (3329) 
-1.97

>  <QM_Energy>  (3329) 
-7.22

>  <source>  (3329) 
ETAM_MBZ

>  <Index>  (3329) 
36548

$$$$
ETAM-pdb6sdk-D-LYS-85:MBZ-pdb6sdk-D-PHE-81
     RDKit          3D

 26 25  0  0  0  0  0  0  0  0999 V2000
    0.0808   -2.2255    3.9246 C   0  0  0  0  0  0  0  0  0  0  0  0
    0.3842   -2.7712    4.6662 H   0  0  0  0  0  0  0  0  0  0  0  0
   -0.3777   -2.7776    3.2724 H   0  0  0  0  0  0  0  0  0  0  0  0
   -0.6075   -1.4670    4.2974 H   0  0  0  0  0  0  0  0  0  0  0  0
    1.3029   -1.6188    3.2544 C   0  0  0  0  0  0  0  0  0  0  0  0
    1.0104   -0.9891    2.5781 H   0  0  0  0  0  0  0  0  0  0  0  0
    1.8355   -1.1630    3.9250 H   0  0  0  0  0  0  0  0  0  0  0  0
    2.1748   -2.6377    2.5899 N   0  0  0  0  0  4  0  0  0  0  0  0
    1.7120   -3.0730    1.9668 H   0  0  0  0  0  0  0  0  0  0  0  0
    2.8705   -2.2382    2.2058 H   0  0  0  0  0  0  0  0  0  0  0  0
    2.4722   -3.2231    3.1909 H   0  0  0  0  0  0  0  0  0  0  0  0
   -0.0033    2.8868   -0.0280 C   0  0  0  0  0  0  0  0  0  0  0  0
   -0.5800    3.1645   -0.7567 H   0  0  0  0  0  0  0  0  0  0  0  0
    0.9063    3.1808   -0.1945 H   0  0  0  0  0  0  0  0  0  0  0  0
   -0.3576    3.3481    0.8939 H   0  0  0  0  0  0  0  0  0  0  0  0
    0.0004    1.3941    0.0021 C   0  0  0  0  0  0  0  0  0  0  0  0
   -1.1880    0.6929    0.0031 C   0  0  0  0  0  0  0  0  0  0  0  0
   -1.9942    1.1552    0.0063 H   0  0  0  0  0  0  0  0  0  0  0  0
   -1.1915   -0.6958    0.0000 C   0  0  0  0  0  0  0  0  0  0  0  0
   -1.9972   -1.1602   -0.0091 H   0  0  0  0  0  0  0  0  0  0  0  0
   -0.0030   -1.3832    0.0105 C   0  0  0  0  0  0  0  0  0  0  0  0
   -0.0037   -2.3134    0.0256 H   0  0  0  0  0  0  0  0  0  0  0  0
    1.1915   -0.6948   -0.0000 C   0  0  0  0  0  0  0  0  0  0  0  0
    1.9965   -1.1596    0.0044 H   0  0  0  0  0  0  0  0  0  0  0  0
    1.1906    0.6868   -0.0157 C   0  0  0  0  0  0  0  0  0  0  0  0
    1.9988    1.1472   -0.0388 H   0  0  0  0  0  0  0  0  0  0  0  0
  1  5  1  0
  5  8  1  0
  1  2  1  0
  1  3  1  0
  1  4  1  0
  5  6  1  0
  5  7  1  0
  8  9  1  0
  8 10  1  0
  8 11  1  0
 12 16  1  0
 16 17  2  0
 17 19  1  0
 19 21  2  0
 21 23  1  0
 23 25  2  0
 25 16  1  0
 12 13  1  0
 12 14  1  0
 12 15  1  0
 17 18  1  0
 19 20  1  0
 21 22  1  0
 23 24  1  0
 25 26  1  0
M  CHG  1   8   1
M  END
>  <PDB_ID>  (3330) 
pdb6sdk

>  <RESIDUE_NAME>  (3330) 
LYS   PHE

>  <FRAG_NAME>  (3330) 
ETAM   MBZ

>  <FRAG_ATOM_NUM>  (3330) 
fragi: 11  fragj: 15

>  <atom.prop.CHAIN_ID>  (3330) 
A A A A A A A A A A A Z Z Z Z Z Z Z Z Z Z Z Z Z Z Z

>  <atom.prop.IS_HEAVY_ATOM>  (3330) 
1 0 0 0 1 0 0 1 0 0 0 1 0 0 0 1 1 0 1 0 1 0 1 0 1 0

>  <DIFUSE_FUNC_ATOM>  (3330) 
n/a

>  <FINAL_SINGLE_POINT_ENERGY>  (3330) 
0

>  <NONCOV_INTER_ENERGY_QM>  (3330) 
0

>  <FF_Energy>  (3330) 
-1.92

>  <QM_Energy>  (3330) 
-8.47

>  <source>  (3330) 
ETAM_MBZ

>  <Index>  (3330) 
36550

$$$$
ETAM-pdb6rol-D-LYS-497:MBZ-pdb6rol-C-PHE-566
     RDKit          3D

 26 25  0  0  0  0  0  0  0  0999 V2000
    2.6307    1.9389    3.0798 C   0  0  0  0  0  0  0  0  0  0  0  0
    1.8039    1.4990    2.8259 H   0  0  0  0  0  0  0  0  0  0  0  0
    2.6619    2.8309    2.6990 H   0  0  0  0  0  0  0  0  0  0  0  0
    2.6941    2.0029    4.1661 H   0  0  0  0  0  0  0  0  0  0  0  0
    3.7815    1.1457    2.5362 C   0  0  0  0  0  0  0  0  0  0  0  0
    4.6152    1.4853    2.8978 H   0  0  0  0  0  0  0  0  0  0  0  0
    3.6758    0.2096    2.7701 H   0  0  0  0  0  0  0  0  0  0  0  0
    3.8132    1.2688    1.0762 N   0  0  0  0  0  4  0  0  0  0  0  0
    4.4316    0.7255    0.7369 H   0  0  0  0  0  0  0  0  0  0  0  0
    3.0205    1.0516    0.7352 H   0  0  0  0  0  0  0  0  0  0  0  0
    4.0066    2.1065    0.8453 H   0  0  0  0  0  0  0  0  0  0  0  0
    0.0219    2.9033    0.0136 C   0  0  0  0  0  0  0  0  0  0  0  0
    0.9473    3.1936    0.0216 H   0  0  0  0  0  0  0  0  0  0  0  0
   -0.4271    3.2042    0.8196 H   0  0  0  0  0  0  0  0  0  0  0  0
   -0.4768    3.3411   -0.8512 H   0  0  0  0  0  0  0  0  0  0  0  0
    0.0114    1.3941    0.0144 C   0  0  0  0  0  0  0  0  0  0  0  0
   -1.1764    0.7006    0.0024 C   0  0  0  0  0  0  0  0  0  0  0  0
   -1.9808    1.1672   -0.0050 H   0  0  0  0  0  0  0  0  0  0  0  0
   -1.1891   -0.6856   -0.0000 C   0  0  0  0  0  0  0  0  0  0  0  0
   -1.9990   -1.1425    0.0012 H   0  0  0  0  0  0  0  0  0  0  0  0
   -0.0015   -1.3866   -0.0053 C   0  0  0  0  0  0  0  0  0  0  0  0
   -0.0058   -2.3162   -0.0113 H   0  0  0  0  0  0  0  0  0  0  0  0
    1.1891   -0.6996    0.0000 C   0  0  0  0  0  0  0  0  0  0  0  0
    1.9981   -1.1585    0.0096 H   0  0  0  0  0  0  0  0  0  0  0  0
    1.1665    0.6771   -0.0114 C   0  0  0  0  0  0  0  0  0  0  0  0
    1.9754    1.1365   -0.0376 H   0  0  0  0  0  0  0  0  0  0  0  0
  1  5  1  0
  5  8  1  0
  1  2  1  0
  1  3  1  0
  1  4  1  0
  5  6  1  0
  5  7  1  0
  8  9  1  0
  8 10  1  0
  8 11  1  0
 12 16  1  0
 16 17  2  0
 17 19  1  0
 19 21  2  0
 21 23  1  0
 23 25  2  0
 25 16  1  0
 12 13  1  0
 12 14  1  0
 12 15  1  0
 17 18  1  0
 19 20  1  0
 21 22  1  0
 23 24  1  0
 25 26  1  0
M  CHG  1   8   1
M  END
>  <PDB_ID>  (3331) 
pdb6rol

>  <RESIDUE_NAME>  (3331) 
LYS   PHE

>  <FRAG_NAME>  (3331) 
ETAM   MBZ

>  <FRAG_ATOM_NUM>  (3331) 
fragi: 11  fragj: 15

>  <atom.prop.CHAIN_ID>  (3331) 
A A A A A A A A A A A Z Z Z Z Z Z Z Z Z Z Z Z Z Z Z

>  <atom.prop.IS_HEAVY_ATOM>  (3331) 
1 0 0 0 1 0 0 1 0 0 0 1 0 0 0 1 1 0 1 0 1 0 1 0 1 0

>  <DIFUSE_FUNC_ATOM>  (3331) 
n/a

>  <FINAL_SINGLE_POINT_ENERGY>  (3331) 
0

>  <NONCOV_INTER_ENERGY_QM>  (3331) 
0

>  <FF_Energy>  (3331) 
9.95

>  <QM_Energy>  (3331) 
0.86

>  <source>  (3331) 
ETAM_MBZ

>  <Index>  (3331) 
36571

$$$$
ETAM-pdb6sjv-A-LYS-1013:MBZ-pdb6sjv-A-PHE-1053
     RDKit          3D

 26 25  0  0  0  0  0  0  0  0999 V2000
    2.1443   -0.2955    3.6938 C   0  0  0  0  0  0  0  0  0  0  0  0
    1.9907    0.6127    3.3182 H   0  0  0  0  0  0  0  0  0  0  0  0
    2.3342   -0.9446    2.9641 H   0  0  0  0  0  0  0  0  0  0  0  0
    3.0030   -0.2578    4.3642 H   0  0  0  0  0  0  0  0  0  0  0  0
    0.8777   -0.7392    4.4206 C   0  0  0  0  0  0  0  0  0  0  0  0
    1.1070   -1.4817    5.0485 H   0  0  0  0  0  0  0  0  0  0  0  0
    0.5112    0.0341    4.9370 H   0  0  0  0  0  0  0  0  0  0  0  0
   -0.1615   -1.2186    3.4545 N   0  0  0  0  0  4  0  0  0  0  0  0
    0.2903   -1.5941    2.6478 H   0  0  0  0  0  0  0  0  0  0  0  0
   -0.7138   -1.9246    3.8924 H   0  0  0  0  0  0  0  0  0  0  0  0
   -0.7409   -0.4500    3.1902 H   0  0  0  0  0  0  0  0  0  0  0  0
   -0.0051    2.9055   -0.0024 C   0  0  0  0  0  0  0  0  0  0  0  0
   -0.6712    3.2100   -0.6639 H   0  0  0  0  0  0  0  0  0  0  0  0
    0.9031    3.2165   -0.2316 H   0  0  0  0  0  0  0  0  0  0  0  0
   -0.2716    3.3373    0.9623 H   0  0  0  0  0  0  0  0  0  0  0  0
    0.0018    1.4025   -0.0044 C   0  0  0  0  0  0  0  0  0  0  0  0
   -1.1913    0.6935   -0.0051 C   0  0  0  0  0  0  0  0  0  0  0  0
   -2.0597    1.1846   -0.0102 H   0  0  0  0  0  0  0  0  0  0  0  0
   -1.1992   -0.6949   -0.0000 C   0  0  0  0  0  0  0  0  0  0  0  0
   -2.0806   -1.1850    0.0005 H   0  0  0  0  0  0  0  0  0  0  0  0
   -0.0054   -1.3966    0.0057 C   0  0  0  0  0  0  0  0  0  0  0  0
   -0.0103   -2.3942    0.0136 H   0  0  0  0  0  0  0  0  0  0  0  0
    1.1992   -0.7023   -0.0000 C   0  0  0  0  0  0  0  0  0  0  0  0
    2.0794   -1.1966   -0.0058 H   0  0  0  0  0  0  0  0  0  0  0  0
    1.1949    0.6977    0.0038 C   0  0  0  0  0  0  0  0  0  0  0  0
    2.0651    1.1885    0.0117 H   0  0  0  0  0  0  0  0  0  0  0  0
  1  5  1  0
  5  8  1  0
  1  2  1  0
  1  3  1  0
  1  4  1  0
  5  6  1  0
  5  7  1  0
  8  9  1  0
  8 10  1  0
  8 11  1  0
 12 16  1  0
 16 17  2  0
 17 19  1  0
 19 21  2  0
 21 23  1  0
 23 25  2  0
 25 16  1  0
 12 13  1  0
 12 14  1  0
 12 15  1  0
 17 18  1  0
 19 20  1  0
 21 22  1  0
 23 24  1  0
 25 26  1  0
M  CHG  1   8   1
M  END
>  <PDB_ID>  (3332) 
pdb6sjv

>  <RESIDUE_NAME>  (3332) 
LYS   PHE

>  <FRAG_NAME>  (3332) 
ETAM   MBZ

>  <FRAG_ATOM_NUM>  (3332) 
fragi: 11  fragj: 15

>  <atom.prop.CHAIN_ID>  (3332) 
A A A A A A A A A A A Z Z Z Z Z Z Z Z Z Z Z Z Z Z Z

>  <atom.prop.IS_HEAVY_ATOM>  (3332) 
1 0 0 0 1 0 0 1 0 0 0 1 0 0 0 1 1 0 1 0 1 0 1 0 1 0

>  <DIFUSE_FUNC_ATOM>  (3332) 
n/a

>  <FINAL_SINGLE_POINT_ENERGY>  (3332) 
0

>  <NONCOV_INTER_ENERGY_QM>  (3332) 
0

>  <FF_Energy>  (3332) 
-7.05

>  <QM_Energy>  (3332) 
-13.41

>  <source>  (3332) 
ETAM_MBZ

>  <Index>  (3332) 
36575

$$$$
ETAM-pdb5n0q-B-LYS-55:MBZ-pdb5n0q-B-PHE-51
     RDKit          3D

 26 25  0  0  0  0  0  0  0  0999 V2000
    0.0836   -1.8562    5.0726 C   0  0  0  0  0  0  0  0  0  0  0  0
    0.7402   -2.5368    4.7586 H   0  0  0  0  0  0  0  0  0  0  0  0
   -0.1808   -2.0439    6.0151 H   0  0  0  0  0  0  0  0  0  0  0  0
    0.5289   -0.8635    5.0083 H   0  0  0  0  0  0  0  0  0  0  0  0
   -1.1750   -1.9772    4.1972 C   0  0  0  0  0  0  0  0  0  0  0  0
   -1.6912   -2.8201    4.5252 H   0  0  0  0  0  0  0  0  0  0  0  0
   -1.8052   -1.1929    4.4650 H   0  0  0  0  0  0  0  0  0  0  0  0
   -1.0412   -2.0215    2.7611 N   0  0  0  0  0  4  0  0  0  0  0  0
   -0.6669   -1.1533    2.4134 H   0  0  0  0  0  0  0  0  0  0  0  0
   -0.4216   -2.7661    2.4862 H   0  0  0  0  0  0  0  0  0  0  0  0
   -1.9362   -2.1772    2.3262 H   0  0  0  0  0  0  0  0  0  0  0  0
   -0.0105    2.8942   -0.0266 C   0  0  0  0  0  0  0  0  0  0  0  0
   -0.7238    3.1853   -0.6540 H   0  0  0  0  0  0  0  0  0  0  0  0
    0.8799    3.2026   -0.3425 H   0  0  0  0  0  0  0  0  0  0  0  0
   -0.2026    3.3702    0.9349 H   0  0  0  0  0  0  0  0  0  0  0  0
    0.0004    1.3944    0.0019 C   0  0  0  0  0  0  0  0  0  0  0  0
   -1.1926    0.6859    0.0030 C   0  0  0  0  0  0  0  0  0  0  0  0
   -2.0602    1.1803    0.0047 H   0  0  0  0  0  0  0  0  0  0  0  0
   -1.1977   -0.6940   -0.0000 C   0  0  0  0  0  0  0  0  0  0  0  0
   -2.0753   -1.1914   -0.0024 H   0  0  0  0  0  0  0  0  0  0  0  0
   -0.0007   -1.3871    0.0015 C   0  0  0  0  0  0  0  0  0  0  0  0
   -0.0029   -2.3874    0.0038 H   0  0  0  0  0  0  0  0  0  0  0  0
    1.1977   -0.6918    0.0000 C   0  0  0  0  0  0  0  0  0  0  0  0
    2.0795   -1.1919    0.0050 H   0  0  0  0  0  0  0  0  0  0  0  0
    1.1929    0.6926   -0.0064 C   0  0  0  0  0  0  0  0  0  0  0  0
    2.0616    1.1906   -0.0181 H   0  0  0  0  0  0  0  0  0  0  0  0
  1  5  1  0
  5  8  1  0
  1  2  1  0
  1  3  1  0
  1  4  1  0
  5  6  1  0
  5  7  1  0
  8  9  1  0
  8 10  1  0
  8 11  1  0
 12 16  1  0
 16 17  2  0
 17 19  1  0
 19 21  2  0
 21 23  1  0
 23 25  2  0
 25 16  1  0
 12 13  1  0
 12 14  1  0
 12 15  1  0
 17 18  1  0
 19 20  1  0
 21 22  1  0
 23 24  1  0
 25 26  1  0
M  CHG  1   8   1
M  END
>  <PDB_ID>  (3333) 
pdb5n0q

>  <RESIDUE_NAME>  (3333) 
LYS   PHE

>  <FRAG_NAME>  (3333) 
ETAM   MBZ

>  <FRAG_ATOM_NUM>  (3333) 
fragi: 11  fragj: 15

>  <atom.prop.CHAIN_ID>  (3333) 
A A A A A A A A A A A Z Z Z Z Z Z Z Z Z Z Z Z Z Z Z

>  <atom.prop.IS_HEAVY_ATOM>  (3333) 
1 0 0 0 1 0 0 1 0 0 0 1 0 0 0 1 1 0 1 0 1 0 1 0 1 0

>  <DIFUSE_FUNC_ATOM>  (3333) 
n/a

>  <FINAL_SINGLE_POINT_ENERGY>  (3333) 
0

>  <NONCOV_INTER_ENERGY_QM>  (3333) 
0

>  <FF_Energy>  (3333) 
-3.47

>  <QM_Energy>  (3333) 
-11.48

>  <source>  (3333) 
ETAM_MBZ

>  <Index>  (3333) 
36578

$$$$
ETAM-pdb6smv-A-LYS-89:MBZ-pdb6smv-A-PHE-86
     RDKit          3D

 26 25  0  0  0  0  0  0  0  0999 V2000
    4.0155    1.7486   -1.3445 C   0  0  0  0  0  0  0  0  0  0  0  0
    3.1566    1.3353   -1.0365 H   0  0  0  0  0  0  0  0  0  0  0  0
    4.7496    1.0709   -1.2834 H   0  0  0  0  0  0  0  0  0  0  0  0
    3.9038    2.0509   -2.3858 H   0  0  0  0  0  0  0  0  0  0  0  0
    4.3500    2.9070   -0.4345 C   0  0  0  0  0  0  0  0  0  0  0  0
    5.2099    3.3222   -0.7328 H   0  0  0  0  0  0  0  0  0  0  0  0
    3.6179    3.5871   -0.4851 H   0  0  0  0  0  0  0  0  0  0  0  0
    4.4915    2.4483    0.9706 N   0  0  0  0  0  4  0  0  0  0  0  0
    5.4341    2.5873    1.2736 H   0  0  0  0  0  0  0  0  0  0  0  0
    3.8720    2.9703    1.5566 H   0  0  0  0  0  0  0  0  0  0  0  0
    4.2643    1.4753    1.0284 H   0  0  0  0  0  0  0  0  0  0  0  0
    0.0011    2.8965   -0.0006 C   0  0  0  0  0  0  0  0  0  0  0  0
    0.5685    3.2039    0.7482 H   0  0  0  0  0  0  0  0  0  0  0  0
   -0.9323    3.2037    0.1062 H   0  0  0  0  0  0  0  0  0  0  0  0
    0.3936    3.3351   -0.9180 H   0  0  0  0  0  0  0  0  0  0  0  0
    0.0003    1.3946    0.0021 C   0  0  0  0  0  0  0  0  0  0  0  0
   -1.1918    0.6891   -0.0011 C   0  0  0  0  0  0  0  0  0  0  0  0
   -2.0596    1.1805   -0.0055 H   0  0  0  0  0  0  0  0  0  0  0  0
   -1.1950   -0.6932   -0.0000 C   0  0  0  0  0  0  0  0  0  0  0  0
   -2.0737   -1.1888    0.0031 H   0  0  0  0  0  0  0  0  0  0  0  0
   -0.0006   -1.3847   -0.0012 C   0  0  0  0  0  0  0  0  0  0  0  0
   -0.0041   -2.3869   -0.0037 H   0  0  0  0  0  0  0  0  0  0  0  0
    1.1950   -0.6939   -0.0000 C   0  0  0  0  0  0  0  0  0  0  0  0
    2.0770   -1.1946    0.0026 H   0  0  0  0  0  0  0  0  0  0  0  0
    1.1921    0.6880    0.0003 C   0  0  0  0  0  0  0  0  0  0  0  0
    2.0618    1.1867   -0.0015 H   0  0  0  0  0  0  0  0  0  0  0  0
  1  5  1  0
  5  8  1  0
  1  2  1  0
  1  3  1  0
  1  4  1  0
  5  6  1  0
  5  7  1  0
  8  9  1  0
  8 10  1  0
  8 11  1  0
 12 16  1  0
 16 17  2  0
 17 19  1  0
 19 21  2  0
 21 23  1  0
 23 25  2  0
 25 16  1  0
 12 13  1  0
 12 14  1  0
 12 15  1  0
 17 18  1  0
 19 20  1  0
 21 22  1  0
 23 24  1  0
 25 26  1  0
M  CHG  1   8   1
M  END
>  <PDB_ID>  (3334) 
pdb6smv

>  <RESIDUE_NAME>  (3334) 
LYS   PHE

>  <FRAG_NAME>  (3334) 
ETAM   MBZ

>  <FRAG_ATOM_NUM>  (3334) 
fragi: 11  fragj: 15

>  <atom.prop.CHAIN_ID>  (3334) 
A A A A A A A A A A A Z Z Z Z Z Z Z Z Z Z Z Z Z Z Z

>  <atom.prop.IS_HEAVY_ATOM>  (3334) 
1 0 0 0 1 0 0 1 0 0 0 1 0 0 0 1 1 0 1 0 1 0 1 0 1 0

>  <DIFUSE_FUNC_ATOM>  (3334) 
n/a

>  <FINAL_SINGLE_POINT_ENERGY>  (3334) 
0

>  <NONCOV_INTER_ENERGY_QM>  (3334) 
0

>  <FF_Energy>  (3334) 
30.37

>  <QM_Energy>  (3334) 
1.97

>  <source>  (3334) 
ETAM_MBZ

>  <Index>  (3334) 
36587

$$$$
ETAM-pdb5n57-A-LYS-30:MBZ-pdb5n57-A-PHE-26
     RDKit          3D

 26 25  0  0  0  0  0  0  0  0999 V2000
   -3.9977    0.6762   -1.9197 C   0  0  0  0  0  0  0  0  0  0  0  0
   -3.0709    0.9847   -1.9802 H   0  0  0  0  0  0  0  0  0  0  0  0
   -4.2315    0.3374   -1.0320 H   0  0  0  0  0  0  0  0  0  0  0  0
   -4.6848    1.4662   -2.2230 H   0  0  0  0  0  0  0  0  0  0  0  0
   -4.1741   -0.4783   -2.9225 C   0  0  0  0  0  0  0  0  0  0  0  0
   -4.9552   -1.0250   -2.6475 H   0  0  0  0  0  0  0  0  0  0  0  0
   -4.3141   -0.0976   -3.8283 H   0  0  0  0  0  0  0  0  0  0  0  0
   -2.9433   -1.3406   -2.9322 N   0  0  0  0  0  4  0  0  0  0  0  0
   -2.5420   -1.3229   -3.8448 H   0  0  0  0  0  0  0  0  0  0  0  0
   -2.2920   -0.9834   -2.2676 H   0  0  0  0  0  0  0  0  0  0  0  0
   -3.1993   -2.2732   -2.6908 H   0  0  0  0  0  0  0  0  0  0  0  0
   -0.0186    2.9055   -0.0315 C   0  0  0  0  0  0  0  0  0  0  0  0
    0.8781    3.2422    0.1897 H   0  0  0  0  0  0  0  0  0  0  0  0
   -0.7044    3.2317    0.5935 H   0  0  0  0  0  0  0  0  0  0  0  0
   -0.2727    3.2922   -1.0184 H   0  0  0  0  0  0  0  0  0  0  0  0
    0.0034    1.4152    0.0140 C   0  0  0  0  0  0  0  0  0  0  0  0
   -1.2069    0.6948   -0.0187 C   0  0  0  0  0  0  0  0  0  0  0  0
   -2.0672    1.1791   -0.0569 H   0  0  0  0  0  0  0  0  0  0  0  0
   -1.2022   -0.7088   -0.0000 C   0  0  0  0  0  0  0  0  0  0  0  0
   -2.0800   -1.1984    0.0251 H   0  0  0  0  0  0  0  0  0  0  0  0
   -0.0064   -1.3862   -0.0142 C   0  0  0  0  0  0  0  0  0  0  0  0
   -0.0016   -2.3940   -0.0359 H   0  0  0  0  0  0  0  0  0  0  0  0
    1.2022   -0.6978    0.0000 C   0  0  0  0  0  0  0  0  0  0  0  0
    2.0778   -1.2091   -0.0022 H   0  0  0  0  0  0  0  0  0  0  0  0
    1.2099    0.6829    0.0190 C   0  0  0  0  0  0  0  0  0  0  0  0
    2.0750    1.1829    0.0356 H   0  0  0  0  0  0  0  0  0  0  0  0
  1  5  1  0
  5  8  1  0
  1  2  1  0
  1  3  1  0
  1  4  1  0
  5  6  1  0
  5  7  1  0
  8  9  1  0
  8 10  1  0
  8 11  1  0
 12 16  1  0
 16 17  2  0
 17 19  1  0
 19 21  2  0
 21 23  1  0
 23 25  2  0
 25 16  1  0
 12 13  1  0
 12 14  1  0
 12 15  1  0
 17 18  1  0
 19 20  1  0
 21 22  1  0
 23 24  1  0
 25 26  1  0
M  CHG  1   8   1
M  END
>  <PDB_ID>  (3335) 
pdb5n57

>  <RESIDUE_NAME>  (3335) 
LYS   PHE

>  <FRAG_NAME>  (3335) 
ETAM   MBZ

>  <FRAG_ATOM_NUM>  (3335) 
fragi: 11  fragj: 15

>  <atom.prop.CHAIN_ID>  (3335) 
A A A A A A A A A A A Z Z Z Z Z Z Z Z Z Z Z Z Z Z Z

>  <atom.prop.IS_HEAVY_ATOM>  (3335) 
1 0 0 0 1 0 0 1 0 0 0 1 0 0 0 1 1 0 1 0 1 0 1 0 1 0

>  <DIFUSE_FUNC_ATOM>  (3335) 
n/a

>  <FINAL_SINGLE_POINT_ENERGY>  (3335) 
0

>  <NONCOV_INTER_ENERGY_QM>  (3335) 
0

>  <FF_Energy>  (3335) 
-2.24

>  <QM_Energy>  (3335) 
-8.67

>  <source>  (3335) 
ETAM_MBZ

>  <Index>  (3335) 
36588

$$$$
ETAM-pdb5n74-G-LYS-220:MBZ-pdb5n74-G-PHE-216
     RDKit          3D

 26 25  0  0  0  0  0  0  0  0999 V2000
    0.9024   -1.4737    4.6756 C   0  0  0  0  0  0  0  0  0  0  0  0
    1.7601   -0.9533    4.6703 H   0  0  0  0  0  0  0  0  0  0  0  0
    0.9980   -2.2545    5.2982 H   0  0  0  0  0  0  0  0  0  0  0  0
    0.1042   -0.8283    5.0422 H   0  0  0  0  0  0  0  0  0  0  0  0
    0.6540   -2.0052    3.2743 C   0  0  0  0  0  0  0  0  0  0  0  0
    0.4691   -1.2261    2.6605 H   0  0  0  0  0  0  0  0  0  0  0  0
    1.4907   -2.4657    2.9491 H   0  0  0  0  0  0  0  0  0  0  0  0
   -0.4814   -2.9565    3.2097 N   0  0  0  0  0  4  0  0  0  0  0  0
   -1.3217   -2.4592    2.9913 H   0  0  0  0  0  0  0  0  0  0  0  0
   -0.3048   -3.6403    2.5004 H   0  0  0  0  0  0  0  0  0  0  0  0
   -0.5848   -3.4141    4.0935 H   0  0  0  0  0  0  0  0  0  0  0  0
    0.0112    2.8744   -0.0288 C   0  0  0  0  0  0  0  0  0  0  0  0
   -0.5623    3.1679   -0.7881 H   0  0  0  0  0  0  0  0  0  0  0  0
    0.9497    3.1736   -0.1713 H   0  0  0  0  0  0  0  0  0  0  0  0
   -0.3582    3.3628    0.8730 H   0  0  0  0  0  0  0  0  0  0  0  0
   -0.0004    1.3847    0.0126 C   0  0  0  0  0  0  0  0  0  0  0  0
   -1.1835    0.6895   -0.0082 C   0  0  0  0  0  0  0  0  0  0  0  0
   -2.0532    1.1838   -0.0308 H   0  0  0  0  0  0  0  0  0  0  0  0
   -1.1909   -0.6845   -0.0000 C   0  0  0  0  0  0  0  0  0  0  0  0
   -2.0716   -1.1806    0.0067 H   0  0  0  0  0  0  0  0  0  0  0  0
   -0.0012   -1.3776    0.0009 C   0  0  0  0  0  0  0  0  0  0  0  0
   -0.0097   -2.3818    0.0013 H   0  0  0  0  0  0  0  0  0  0  0  0
    1.1909   -0.6932    0.0000 C   0  0  0  0  0  0  0  0  0  0  0  0
    2.0736   -1.1955    0.0044 H   0  0  0  0  0  0  0  0  0  0  0  0
    1.1852    0.6811   -0.0052 C   0  0  0  0  0  0  0  0  0  0  0  0
    2.0567    1.1816   -0.0226 H   0  0  0  0  0  0  0  0  0  0  0  0
  1  5  1  0
  5  8  1  0
  1  2  1  0
  1  3  1  0
  1  4  1  0
  5  6  1  0
  5  7  1  0
  8  9  1  0
  8 10  1  0
  8 11  1  0
 12 16  1  0
 16 17  2  0
 17 19  1  0
 19 21  2  0
 21 23  1  0
 23 25  2  0
 25 16  1  0
 12 13  1  0
 12 14  1  0
 12 15  1  0
 17 18  1  0
 19 20  1  0
 21 22  1  0
 23 24  1  0
 25 26  1  0
M  CHG  1   8   1
M  END
>  <PDB_ID>  (3336) 
pdb5n74

>  <RESIDUE_NAME>  (3336) 
LYS   PHE

>  <FRAG_NAME>  (3336) 
ETAM   MBZ

>  <FRAG_ATOM_NUM>  (3336) 
fragi: 11  fragj: 15

>  <atom.prop.CHAIN_ID>  (3336) 
A A A A A A A A A A A Z Z Z Z Z Z Z Z Z Z Z Z Z Z Z

>  <atom.prop.IS_HEAVY_ATOM>  (3336) 
1 0 0 0 1 0 0 1 0 0 0 1 0 0 0 1 1 0 1 0 1 0 1 0 1 0

>  <DIFUSE_FUNC_ATOM>  (3336) 
n/a

>  <FINAL_SINGLE_POINT_ENERGY>  (3336) 
0

>  <NONCOV_INTER_ENERGY_QM>  (3336) 
0

>  <FF_Energy>  (3336) 
-3.12

>  <QM_Energy>  (3336) 
-8.32

>  <source>  (3336) 
ETAM_MBZ

>  <Index>  (3336) 
36599

$$$$
ETAM-pdb6sen-A-LYS-297:MBZ-pdb6sen-L-PHE-201
     RDKit          3D

 26 25  0  0  0  0  0  0  0  0999 V2000
    0.2149   -0.4615    3.6776 C   0  0  0  0  0  0  0  0  0  0  0  0
    0.1955   -0.9547    2.8112 H   0  0  0  0  0  0  0  0  0  0  0  0
   -0.0425    0.4910    3.5335 H   0  0  0  0  0  0  0  0  0  0  0  0
   -0.4812   -0.9257    4.3762 H   0  0  0  0  0  0  0  0  0  0  0  0
    1.6187   -0.5000    4.2173 C   0  0  0  0  0  0  0  0  0  0  0  0
    1.6639    0.0371    5.0605 H   0  0  0  0  0  0  0  0  0  0  0  0
    1.8713   -1.4477    4.4166 H   0  0  0  0  0  0  0  0  0  0  0  0
    2.5738    0.0602    3.2312 N   0  0  0  0  0  4  0  0  0  0  0  0
    2.5540   -0.4909    2.3961 H   0  0  0  0  0  0  0  0  0  0  0  0
    2.3160    1.0022    3.0138 H   0  0  0  0  0  0  0  0  0  0  0  0
    3.4970    0.0486    3.6159 H   0  0  0  0  0  0  0  0  0  0  0  0
    0.0016    2.9180   -0.0606 C   0  0  0  0  0  0  0  0  0  0  0  0
   -0.8036    3.1972   -0.5815 H   0  0  0  0  0  0  0  0  0  0  0  0
    0.8290    3.1986   -0.5456 H   0  0  0  0  0  0  0  0  0  0  0  0
   -0.0197    3.4430    0.8943 H   0  0  0  0  0  0  0  0  0  0  0  0
    0.0011    1.4066    0.0005 C   0  0  0  0  0  0  0  0  0  0  0  0
   -1.1943    0.6972    0.0174 C   0  0  0  0  0  0  0  0  0  0  0  0
   -2.0622    1.1821    0.0409 H   0  0  0  0  0  0  0  0  0  0  0  0
   -1.1953   -0.6996    0.0000 C   0  0  0  0  0  0  0  0  0  0  0  0
   -2.0765   -1.1890    0.0008 H   0  0  0  0  0  0  0  0  0  0  0  0
   -0.0016   -1.3925   -0.0155 C   0  0  0  0  0  0  0  0  0  0  0  0
   -0.0068   -2.3947   -0.0386 H   0  0  0  0  0  0  0  0  0  0  0  0
    1.1953   -0.7046   -0.0000 C   0  0  0  0  0  0  0  0  0  0  0  0
    2.0777   -1.1992    0.0138 H   0  0  0  0  0  0  0  0  0  0  0  0
    1.1948    0.6928   -0.0023 C   0  0  0  0  0  0  0  0  0  0  0  0
    2.0656    1.1828   -0.0070 H   0  0  0  0  0  0  0  0  0  0  0  0
  1  5  1  0
  5  8  1  0
  1  2  1  0
  1  3  1  0
  1  4  1  0
  5  6  1  0
  5  7  1  0
  8  9  1  0
  8 10  1  0
  8 11  1  0
 12 16  1  0
 16 17  2  0
 17 19  1  0
 19 21  2  0
 21 23  1  0
 23 25  2  0
 25 16  1  0
 12 13  1  0
 12 14  1  0
 12 15  1  0
 17 18  1  0
 19 20  1  0
 21 22  1  0
 23 24  1  0
 25 26  1  0
M  CHG  1   8   1
M  END
>  <PDB_ID>  (3337) 
pdb6sen

>  <RESIDUE_NAME>  (3337) 
LYS   PHE

>  <FRAG_NAME>  (3337) 
ETAM   MBZ

>  <FRAG_ATOM_NUM>  (3337) 
fragi: 11  fragj: 15

>  <atom.prop.CHAIN_ID>  (3337) 
A A A A A A A A A A A Z Z Z Z Z Z Z Z Z Z Z Z Z Z Z

>  <atom.prop.IS_HEAVY_ATOM>  (3337) 
1 0 0 0 1 0 0 1 0 0 0 1 0 0 0 1 1 0 1 0 1 0 1 0 1 0

>  <DIFUSE_FUNC_ATOM>  (3337) 
n/a

>  <FINAL_SINGLE_POINT_ENERGY>  (3337) 
0

>  <NONCOV_INTER_ENERGY_QM>  (3337) 
0

>  <FF_Energy>  (3337) 
-4.99

>  <QM_Energy>  (3337) 
-10.92

>  <source>  (3337) 
ETAM_MBZ

>  <Index>  (3337) 
36630

$$$$
ETAM-pdb6sen-B-LYS-297:MBZ-pdb6sen-M-PHE-201
     RDKit          3D

 26 25  0  0  0  0  0  0  0  0999 V2000
   -0.3532   -0.5018   -3.6655 C   0  0  0  0  0  0  0  0  0  0  0  0
   -0.3198   -0.9768   -2.7939 H   0  0  0  0  0  0  0  0  0  0  0  0
   -0.1148    0.4549   -3.5521 H   0  0  0  0  0  0  0  0  0  0  0  0
    0.3360   -0.9721   -4.3669 H   0  0  0  0  0  0  0  0  0  0  0  0
   -1.7634   -0.5822   -4.1994 C   0  0  0  0  0  0  0  0  0  0  0  0
   -1.8046   -0.1261   -5.0874 H   0  0  0  0  0  0  0  0  0  0  0  0
   -2.0214   -1.5418   -4.3021 H   0  0  0  0  0  0  0  0  0  0  0  0
   -2.7014    0.0798   -3.2643 N   0  0  0  0  0  4  0  0  0  0  0  0
   -3.5703   -0.4169   -3.2539 H   0  0  0  0  0  0  0  0  0  0  0  0
   -2.3095    0.0831   -2.3435 H   0  0  0  0  0  0  0  0  0  0  0  0
   -2.8613    1.0219   -3.5608 H   0  0  0  0  0  0  0  0  0  0  0  0
   -0.0013    2.9175    0.0150 C   0  0  0  0  0  0  0  0  0  0  0  0
    0.7902    3.2061    0.5476 H   0  0  0  0  0  0  0  0  0  0  0  0
   -0.8413    3.2042    0.4692 H   0  0  0  0  0  0  0  0  0  0  0  0
    0.0450    3.4217   -0.9502 H   0  0  0  0  0  0  0  0  0  0  0  0
    0.0022    1.4087   -0.0296 C   0  0  0  0  0  0  0  0  0  0  0  0
   -1.1946    0.6941   -0.0305 C   0  0  0  0  0  0  0  0  0  0  0  0
   -2.0629    1.1807   -0.0546 H   0  0  0  0  0  0  0  0  0  0  0  0
   -1.1964   -0.7012    0.0000 C   0  0  0  0  0  0  0  0  0  0  0  0
   -2.0773   -1.1909    0.0029 H   0  0  0  0  0  0  0  0  0  0  0  0
   -0.0024   -1.3939    0.0274 C   0  0  0  0  0  0  0  0  0  0  0  0
   -0.0087   -2.3961    0.0671 H   0  0  0  0  0  0  0  0  0  0  0  0
    1.1964   -0.7081    0.0000 C   0  0  0  0  0  0  0  0  0  0  0  0
    2.0777   -1.1967   -0.0418 H   0  0  0  0  0  0  0  0  0  0  0  0
    1.1948    0.7004    0.0327 C   0  0  0  0  0  0  0  0  0  0  0  0
    2.0632    1.1843    0.1007 H   0  0  0  0  0  0  0  0  0  0  0  0
  1  5  1  0
  5  8  1  0
  1  2  1  0
  1  3  1  0
  1  4  1  0
  5  6  1  0
  5  7  1  0
  8  9  1  0
  8 10  1  0
  8 11  1  0
 12 16  1  0
 16 17  2  0
 17 19  1  0
 19 21  2  0
 21 23  1  0
 23 25  2  0
 25 16  1  0
 12 13  1  0
 12 14  1  0
 12 15  1  0
 17 18  1  0
 19 20  1  0
 21 22  1  0
 23 24  1  0
 25 26  1  0
M  CHG  1   8   1
M  END
>  <PDB_ID>  (3338) 
pdb6sen

>  <RESIDUE_NAME>  (3338) 
LYS   PHE

>  <FRAG_NAME>  (3338) 
ETAM   MBZ

>  <FRAG_ATOM_NUM>  (3338) 
fragi: 11  fragj: 15

>  <atom.prop.CHAIN_ID>  (3338) 
A A A A A A A A A A A Z Z Z Z Z Z Z Z Z Z Z Z Z Z Z

>  <atom.prop.IS_HEAVY_ATOM>  (3338) 
1 0 0 0 1 0 0 1 0 0 0 1 0 0 0 1 1 0 1 0 1 0 1 0 1 0

>  <DIFUSE_FUNC_ATOM>  (3338) 
n/a

>  <FINAL_SINGLE_POINT_ENERGY>  (3338) 
0

>  <NONCOV_INTER_ENERGY_QM>  (3338) 
0

>  <FF_Energy>  (3338) 
-4.95

>  <QM_Energy>  (3338) 
-11.49

>  <source>  (3338) 
ETAM_MBZ

>  <Index>  (3338) 
36637

$$$$
ETAM-pdb5nas-B-LYS-157:MBZ-pdb5nas-B-PHE-153
     RDKit          3D

 26 25  0  0  0  0  0  0  0  0999 V2000
   -1.0118   -1.7125   -3.7431 C   0  0  0  0  0  0  0  0  0  0  0  0
   -1.2818   -2.4650   -4.3477 H   0  0  0  0  0  0  0  0  0  0  0  0
   -0.5451   -2.0879   -2.9395 H   0  0  0  0  0  0  0  0  0  0  0  0
   -0.3144   -1.0703   -4.2810 H   0  0  0  0  0  0  0  0  0  0  0  0
   -2.2659   -0.9889   -3.2795 C   0  0  0  0  0  0  0  0  0  0  0  0
   -2.0040   -0.1964   -2.7321 H   0  0  0  0  0  0  0  0  0  0  0  0
   -2.7858   -0.6894   -4.0774 H   0  0  0  0  0  0  0  0  0  0  0  0
   -3.1270   -1.8916   -2.4478 N   0  0  0  0  0  4  0  0  0  0  0  0
   -3.1570   -2.7946   -2.8713 H   0  0  0  0  0  0  0  0  0  0  0  0
   -2.7388   -1.9589   -1.5307 H   0  0  0  0  0  0  0  0  0  0  0  0
   -4.0479   -1.5102   -2.3988 H   0  0  0  0  0  0  0  0  0  0  0  0
    0.0030    2.8927    0.0158 C   0  0  0  0  0  0  0  0  0  0  0  0
    0.5143    3.1913    0.8102 H   0  0  0  0  0  0  0  0  0  0  0  0
   -0.9374    3.2015    0.0626 H   0  0  0  0  0  0  0  0  0  0  0  0
    0.4594    3.3460   -0.8641 H   0  0  0  0  0  0  0  0  0  0  0  0
    0.0012    1.3971   -0.0016 C   0  0  0  0  0  0  0  0  0  0  0  0
   -1.1943    0.6887   -0.0011 C   0  0  0  0  0  0  0  0  0  0  0  0
   -2.0614    1.1804   -0.0033 H   0  0  0  0  0  0  0  0  0  0  0  0
   -1.1990   -0.6977   -0.0000 C   0  0  0  0  0  0  0  0  0  0  0  0
   -2.0764   -1.1921    0.0041 H   0  0  0  0  0  0  0  0  0  0  0  0
   -0.0008   -1.3901   -0.0019 C   0  0  0  0  0  0  0  0  0  0  0  0
   -0.0018   -2.3894   -0.0052 H   0  0  0  0  0  0  0  0  0  0  0  0
    1.1990   -0.6928   -0.0000 C   0  0  0  0  0  0  0  0  0  0  0  0
    2.0806   -1.1912   -0.0010 H   0  0  0  0  0  0  0  0  0  0  0  0
    1.1938    0.6947    0.0047 C   0  0  0  0  0  0  0  0  0  0  0  0
    2.0630    1.1916    0.0117 H   0  0  0  0  0  0  0  0  0  0  0  0
  1  5  1  0
  5  8  1  0
  1  2  1  0
  1  3  1  0
  1  4  1  0
  5  6  1  0
  5  7  1  0
  8  9  1  0
  8 10  1  0
  8 11  1  0
 12 16  1  0
 16 17  2  0
 17 19  1  0
 19 21  2  0
 21 23  1  0
 23 25  2  0
 25 16  1  0
 12 13  1  0
 12 14  1  0
 12 15  1  0
 17 18  1  0
 19 20  1  0
 21 22  1  0
 23 24  1  0
 25 26  1  0
M  CHG  1   8   1
M  END
>  <PDB_ID>  (3339) 
pdb5nas

>  <RESIDUE_NAME>  (3339) 
LYS   PHE

>  <FRAG_NAME>  (3339) 
ETAM   MBZ

>  <FRAG_ATOM_NUM>  (3339) 
fragi: 11  fragj: 15

>  <atom.prop.CHAIN_ID>  (3339) 
A A A A A A A A A A A Z Z Z Z Z Z Z Z Z Z Z Z Z Z Z

>  <atom.prop.IS_HEAVY_ATOM>  (3339) 
1 0 0 0 1 0 0 1 0 0 0 1 0 0 0 1 1 0 1 0 1 0 1 0 1 0

>  <DIFUSE_FUNC_ATOM>  (3339) 
n/a

>  <FINAL_SINGLE_POINT_ENERGY>  (3339) 
0

>  <NONCOV_INTER_ENERGY_QM>  (3339) 
0

>  <FF_Energy>  (3339) 
-1.74

>  <QM_Energy>  (3339) 
-8.25

>  <source>  (3339) 
ETAM_MBZ

>  <Index>  (3339) 
36646

$$$$
ETAM-pdb5nbc-A-LYS-44:MBZ-pdb5nbc-A-PHE-40
     RDKit          3D

 26 25  0  0  0  0  0  0  0  0999 V2000
   -0.4534   -2.6359    3.4754 C   0  0  0  0  0  0  0  0  0  0  0  0
    0.2132   -3.1782    2.9754 H   0  0  0  0  0  0  0  0  0  0  0  0
   -0.6221   -3.0310    4.3711 H   0  0  0  0  0  0  0  0  0  0  0  0
   -0.0669   -1.6243    3.5988 H   0  0  0  0  0  0  0  0  0  0  0  0
   -1.7542   -2.6291    2.6965 C   0  0  0  0  0  0  0  0  0  0  0  0
   -1.6960   -1.9310    1.9753 H   0  0  0  0  0  0  0  0  0  0  0  0
   -1.8780   -3.5279    2.2632 H   0  0  0  0  0  0  0  0  0  0  0  0
   -2.9130   -2.3409    3.5657 N   0  0  0  0  0  4  0  0  0  0  0  0
   -3.1832   -3.1725    4.0539 H   0  0  0  0  0  0  0  0  0  0  0  0
   -2.6680   -1.6325    4.2301 H   0  0  0  0  0  0  0  0  0  0  0  0
   -3.6810   -2.0207    3.0086 H   0  0  0  0  0  0  0  0  0  0  0  0
   -0.0115    2.8833    0.0097 C   0  0  0  0  0  0  0  0  0  0  0  0
   -0.6232    3.1907   -0.7023 H   0  0  0  0  0  0  0  0  0  0  0  0
    0.9109    3.1993   -0.1433 H   0  0  0  0  0  0  0  0  0  0  0  0
   -0.3576    3.3039    0.9539 H   0  0  0  0  0  0  0  0  0  0  0  0
    0.0015    1.3847   -0.0018 C   0  0  0  0  0  0  0  0  0  0  0  0
   -1.1893    0.6819    0.0052 C   0  0  0  0  0  0  0  0  0  0  0  0
   -2.0566    1.1779    0.0128 H   0  0  0  0  0  0  0  0  0  0  0  0
   -1.1942   -0.6935   -0.0000 C   0  0  0  0  0  0  0  0  0  0  0  0
   -2.0715   -1.1909   -0.0029 H   0  0  0  0  0  0  0  0  0  0  0  0
   -0.0022   -1.3754    0.0000 C   0  0  0  0  0  0  0  0  0  0  0  0
   -0.0021   -2.3824   -0.0005 H   0  0  0  0  0  0  0  0  0  0  0  0
    1.1942   -0.6888   -0.0000 C   0  0  0  0  0  0  0  0  0  0  0  0
    2.0754   -1.1902    0.0035 H   0  0  0  0  0  0  0  0  0  0  0  0
    1.1899    0.6910   -0.0035 C   0  0  0  0  0  0  0  0  0  0  0  0
    2.0594    1.1891   -0.0079 H   0  0  0  0  0  0  0  0  0  0  0  0
  1  5  1  0
  5  8  1  0
  1  2  1  0
  1  3  1  0
  1  4  1  0
  5  6  1  0
  5  7  1  0
  8  9  1  0
  8 10  1  0
  8 11  1  0
 12 16  1  0
 16 17  2  0
 17 19  1  0
 19 21  2  0
 21 23  1  0
 23 25  2  0
 25 16  1  0
 12 13  1  0
 12 14  1  0
 12 15  1  0
 17 18  1  0
 19 20  1  0
 21 22  1  0
 23 24  1  0
 25 26  1  0
M  CHG  1   8   1
M  END
>  <PDB_ID>  (3340) 
pdb5nbc

>  <RESIDUE_NAME>  (3340) 
LYS   PHE

>  <FRAG_NAME>  (3340) 
ETAM   MBZ

>  <FRAG_ATOM_NUM>  (3340) 
fragi: 11  fragj: 15

>  <atom.prop.CHAIN_ID>  (3340) 
A A A A A A A A A A A Z Z Z Z Z Z Z Z Z Z Z Z Z Z Z

>  <atom.prop.IS_HEAVY_ATOM>  (3340) 
1 0 0 0 1 0 0 1 0 0 0 1 0 0 0 1 1 0 1 0 1 0 1 0 1 0

>  <DIFUSE_FUNC_ATOM>  (3340) 
n/a

>  <FINAL_SINGLE_POINT_ENERGY>  (3340) 
0

>  <NONCOV_INTER_ENERGY_QM>  (3340) 
0

>  <FF_Energy>  (3340) 
0.37

>  <QM_Energy>  (3340) 
-5.21

>  <source>  (3340) 
ETAM_MBZ

>  <Index>  (3340) 
36650

$$$$
ETAM-pdb5nbc-B-LYS-44:MBZ-pdb5nbc-B-PHE-40
     RDKit          3D

 26 25  0  0  0  0  0  0  0  0999 V2000
    0.0735   -3.1408    3.0092 C   0  0  0  0  0  0  0  0  0  0  0  0
    0.3680   -2.4615    2.3631 H   0  0  0  0  0  0  0  0  0  0  0  0
    0.6022   -3.9673    2.9508 H   0  0  0  0  0  0  0  0  0  0  0  0
    0.1379   -2.7359    4.0191 H   0  0  0  0  0  0  0  0  0  0  0  0
   -1.4006   -3.4921    2.6965 C   0  0  0  0  0  0  0  0  0  0  0  0
   -1.7390   -4.0975    3.4837 H   0  0  0  0  0  0  0  0  0  0  0  0
   -1.9559   -2.6135    2.8391 H   0  0  0  0  0  0  0  0  0  0  0  0
   -1.7980   -4.1015    1.4261 N   0  0  0  0  0  4  0  0  0  0  0  0
   -2.5543   -3.5828    1.0177 H   0  0  0  0  0  0  0  0  0  0  0  0
   -1.0234   -4.1028    0.7887 H   0  0  0  0  0  0  0  0  0  0  0  0
   -2.0961   -5.0480    1.5772 H   0  0  0  0  0  0  0  0  0  0  0  0
   -0.0188    2.9020   -0.0017 C   0  0  0  0  0  0  0  0  0  0  0  0
   -0.6900    3.1949   -0.6639 H   0  0  0  0  0  0  0  0  0  0  0  0
    0.8868    3.2144   -0.2391 H   0  0  0  0  0  0  0  0  0  0  0  0
   -0.2837    3.3388    0.9611 H   0  0  0  0  0  0  0  0  0  0  0  0
   -0.0020    1.3951    0.0067 C   0  0  0  0  0  0  0  0  0  0  0  0
   -1.1953    0.6802    0.0016 C   0  0  0  0  0  0  0  0  0  0  0  0
   -2.0650    1.1676   -0.0017 H   0  0  0  0  0  0  0  0  0  0  0  0
   -1.1974   -0.7128   -0.0000 C   0  0  0  0  0  0  0  0  0  0  0  0
   -2.0680   -1.2081    0.0045 H   0  0  0  0  0  0  0  0  0  0  0  0
    0.0072   -1.3852   -0.0060 C   0  0  0  0  0  0  0  0  0  0  0  0
    0.0179   -2.3895   -0.0153 H   0  0  0  0  0  0  0  0  0  0  0  0
    1.1974   -0.6808    0.0000 C   0  0  0  0  0  0  0  0  0  0  0  0
    2.0854   -1.1762    0.0077 H   0  0  0  0  0  0  0  0  0  0  0  0
    1.1901    0.7036   -0.0024 C   0  0  0  0  0  0  0  0  0  0  0  0
    2.0570    1.2026   -0.0119 H   0  0  0  0  0  0  0  0  0  0  0  0
  1  5  1  0
  5  8  1  0
  1  2  1  0
  1  3  1  0
  1  4  1  0
  5  6  1  0
  5  7  1  0
  8  9  1  0
  8 10  1  0
  8 11  1  0
 12 16  1  0
 16 17  2  0
 17 19  1  0
 19 21  2  0
 21 23  1  0
 23 25  2  0
 25 16  1  0
 12 13  1  0
 12 14  1  0
 12 15  1  0
 17 18  1  0
 19 20  1  0
 21 22  1  0
 23 24  1  0
 25 26  1  0
M  CHG  1   8   1
M  END
>  <PDB_ID>  (3341) 
pdb5nbc

>  <RESIDUE_NAME>  (3341) 
LYS   PHE

>  <FRAG_NAME>  (3341) 
ETAM   MBZ

>  <FRAG_ATOM_NUM>  (3341) 
fragi: 11  fragj: 15

>  <atom.prop.CHAIN_ID>  (3341) 
A A A A A A A A A A A Z Z Z Z Z Z Z Z Z Z Z Z Z Z Z

>  <atom.prop.IS_HEAVY_ATOM>  (3341) 
1 0 0 0 1 0 0 1 0 0 0 1 0 0 0 1 1 0 1 0 1 0 1 0 1 0

>  <DIFUSE_FUNC_ATOM>  (3341) 
n/a

>  <FINAL_SINGLE_POINT_ENERGY>  (3341) 
0

>  <NONCOV_INTER_ENERGY_QM>  (3341) 
0

>  <FF_Energy>  (3341) 
0.2

>  <QM_Energy>  (3341) 
-5.47

>  <source>  (3341) 
ETAM_MBZ

>  <Index>  (3341) 
36651

$$$$
ETAM-pdb5nbc-C-LYS-44:MBZ-pdb5nbc-C-PHE-40
     RDKit          3D

 26 25  0  0  0  0  0  0  0  0999 V2000
    0.9365   -1.1159    3.3065 C   0  0  0  0  0  0  0  0  0  0  0  0
    0.9915   -0.9239    2.3368 H   0  0  0  0  0  0  0  0  0  0  0  0
    1.5576   -0.5409    3.8193 H   0  0  0  0  0  0  0  0  0  0  0  0
   -0.0821   -0.9302    3.6471 H   0  0  0  0  0  0  0  0  0  0  0  0
    1.2975   -2.5578    3.5415 C   0  0  0  0  0  0  0  0  0  0  0  0
    2.0583   -2.8111    2.9478 H   0  0  0  0  0  0  0  0  0  0  0  0
    1.5591   -2.6833    4.4966 H   0  0  0  0  0  0  0  0  0  0  0  0
    0.1320   -3.4332    3.2377 N   0  0  0  0  0  4  0  0  0  0  0  0
   -0.4168   -3.5530    4.0642 H   0  0  0  0  0  0  0  0  0  0  0  0
   -0.4243   -3.0079    2.5245 H   0  0  0  0  0  0  0  0  0  0  0  0
    0.4592   -4.3227    2.9215 H   0  0  0  0  0  0  0  0  0  0  0  0
    0.0050    2.8876    0.0011 C   0  0  0  0  0  0  0  0  0  0  0  0
   -0.4825    3.1935   -0.8033 H   0  0  0  0  0  0  0  0  0  0  0  0
    0.9461    3.1916   -0.0113 H   0  0  0  0  0  0  0  0  0  0  0  0
   -0.4786    3.3259    0.8741 H   0  0  0  0  0  0  0  0  0  0  0  0
    0.0030    1.3872    0.0015 C   0  0  0  0  0  0  0  0  0  0  0  0
   -1.1921    0.6843   -0.0043 C   0  0  0  0  0  0  0  0  0  0  0  0
   -2.0567    1.1797   -0.0131 H   0  0  0  0  0  0  0  0  0  0  0  0
   -1.1925   -0.6913   -0.0000 C   0  0  0  0  0  0  0  0  0  0  0  0
   -2.0714   -1.1913    0.0084 H   0  0  0  0  0  0  0  0  0  0  0  0
   -0.0006   -1.3768   -0.0054 C   0  0  0  0  0  0  0  0  0  0  0  0
   -0.0040   -2.3824   -0.0137 H   0  0  0  0  0  0  0  0  0  0  0  0
    1.1925   -0.6901   -0.0000 C   0  0  0  0  0  0  0  0  0  0  0  0
    2.0751   -1.1922   -0.0006 H   0  0  0  0  0  0  0  0  0  0  0  0
    1.1897    0.6867    0.0081 C   0  0  0  0  0  0  0  0  0  0  0  0
    2.0606    1.1852    0.0177 H   0  0  0  0  0  0  0  0  0  0  0  0
  1  5  1  0
  5  8  1  0
  1  2  1  0
  1  3  1  0
  1  4  1  0
  5  6  1  0
  5  7  1  0
  8  9  1  0
  8 10  1  0
  8 11  1  0
 12 16  1  0
 16 17  2  0
 17 19  1  0
 19 21  2  0
 21 23  1  0
 23 25  2  0
 25 16  1  0
 12 13  1  0
 12 14  1  0
 12 15  1  0
 17 18  1  0
 19 20  1  0
 21 22  1  0
 23 24  1  0
 25 26  1  0
M  CHG  1   8   1
M  END
>  <PDB_ID>  (3342) 
pdb5nbc

>  <RESIDUE_NAME>  (3342) 
LYS   PHE

>  <FRAG_NAME>  (3342) 
ETAM   MBZ

>  <FRAG_ATOM_NUM>  (3342) 
fragi: 11  fragj: 15

>  <atom.prop.CHAIN_ID>  (3342) 
A A A A A A A A A A A Z Z Z Z Z Z Z Z Z Z Z Z Z Z Z

>  <atom.prop.IS_HEAVY_ATOM>  (3342) 
1 0 0 0 1 0 0 1 0 0 0 1 0 0 0 1 1 0 1 0 1 0 1 0 1 0

>  <DIFUSE_FUNC_ATOM>  (3342) 
n/a

>  <FINAL_SINGLE_POINT_ENERGY>  (3342) 
0

>  <NONCOV_INTER_ENERGY_QM>  (3342) 
0

>  <FF_Energy>  (3342) 
-0.38

>  <QM_Energy>  (3342) 
-6.97

>  <source>  (3342) 
ETAM_MBZ

>  <Index>  (3342) 
36653

$$$$
ETAM-pdb5naf-A-LYS-301:MBZ-pdb5naf-A-PHE-280
     RDKit          3D

 26 25  0  0  0  0  0  0  0  0999 V2000
    2.8353    0.1858   -3.3689 C   0  0  0  0  0  0  0  0  0  0  0  0
    2.1751    0.9326   -3.2760 H   0  0  0  0  0  0  0  0  0  0  0  0
    2.3502   -0.6601   -3.5929 H   0  0  0  0  0  0  0  0  0  0  0  0
    3.5174    0.4233   -4.1853 H   0  0  0  0  0  0  0  0  0  0  0  0
    3.5488    0.0015   -2.0496 C   0  0  0  0  0  0  0  0  0  0  0  0
    4.5295    0.1405   -2.1850 H   0  0  0  0  0  0  0  0  0  0  0  0
    3.2056    0.6743   -1.3941 H   0  0  0  0  0  0  0  0  0  0  0  0
    3.3172   -1.3637   -1.5149 N   0  0  0  0  0  4  0  0  0  0  0  0
    2.6786   -1.8517   -2.1100 H   0  0  0  0  0  0  0  0  0  0  0  0
    4.1857   -1.8592   -1.4807 H   0  0  0  0  0  0  0  0  0  0  0  0
    2.9333   -1.3002   -0.5939 H   0  0  0  0  0  0  0  0  0  0  0  0
   -0.0076    2.8966   -0.0031 C   0  0  0  0  0  0  0  0  0  0  0  0
   -0.8480    3.1999    0.4232 H   0  0  0  0  0  0  0  0  0  0  0  0
    0.0449    3.1991   -0.9440 H   0  0  0  0  0  0  0  0  0  0  0  0
    0.8222    3.3509    0.5384 H   0  0  0  0  0  0  0  0  0  0  0  0
    0.0004    1.3924    0.0025 C   0  0  0  0  0  0  0  0  0  0  0  0
   -1.1845    0.6830   -0.0023 C   0  0  0  0  0  0  0  0  0  0  0  0
   -2.0559    1.1722   -0.0080 H   0  0  0  0  0  0  0  0  0  0  0  0
   -1.1813   -0.6927    0.0000 C   0  0  0  0  0  0  0  0  0  0  0  0
   -2.0662   -1.1900    0.0018 H   0  0  0  0  0  0  0  0  0  0  0  0
   -0.0015   -1.3763    0.0007 C   0  0  0  0  0  0  0  0  0  0  0  0
   -0.0038   -2.3833    0.0017 H   0  0  0  0  0  0  0  0  0  0  0  0
    1.1813   -0.6918    0.0000 C   0  0  0  0  0  0  0  0  0  0  0  0
    2.0699   -1.1931    0.0023 H   0  0  0  0  0  0  0  0  0  0  0  0
    1.1855    0.6854   -0.0009 C   0  0  0  0  0  0  0  0  0  0  0  0
    2.0582    1.1799   -0.0060 H   0  0  0  0  0  0  0  0  0  0  0  0
  1  5  1  0
  5  8  1  0
  1  2  1  0
  1  3  1  0
  1  4  1  0
  5  6  1  0
  5  7  1  0
  8  9  1  0
  8 10  1  0
  8 11  1  0
 12 16  1  0
 16 17  2  0
 17 19  1  0
 19 21  2  0
 21 23  1  0
 23 25  2  0
 25 16  1  0
 12 13  1  0
 12 14  1  0
 12 15  1  0
 17 18  1  0
 19 20  1  0
 21 22  1  0
 23 24  1  0
 25 26  1  0
M  CHG  1   8   1
M  END
>  <PDB_ID>  (3343) 
pdb5naf

>  <RESIDUE_NAME>  (3343) 
LYS   PHE

>  <FRAG_NAME>  (3343) 
ETAM   MBZ

>  <FRAG_ATOM_NUM>  (3343) 
fragi: 11  fragj: 15

>  <atom.prop.CHAIN_ID>  (3343) 
A A A A A A A A A A A Z Z Z Z Z Z Z Z Z Z Z Z Z Z Z

>  <atom.prop.IS_HEAVY_ATOM>  (3343) 
1 0 0 0 1 0 0 1 0 0 0 1 0 0 0 1 1 0 1 0 1 0 1 0 1 0

>  <DIFUSE_FUNC_ATOM>  (3343) 
n/a

>  <FINAL_SINGLE_POINT_ENERGY>  (3343) 
0

>  <NONCOV_INTER_ENERGY_QM>  (3343) 
0

>  <FF_Energy>  (3343) 
40.65

>  <QM_Energy>  (3343) 
15.07

>  <source>  (3343) 
ETAM_MBZ

>  <Index>  (3343) 
36675

$$$$
ETAM-pdb6ucz-B-LYS-241:MBZ-pdb6ucz-B-PHE-210
     RDKit          3D

 26 25  0  0  0  0  0  0  0  0999 V2000
    4.0324   -1.5806   -4.4302 C   0  0  0  0  0  0  0  0  0  0  0  0
    4.1328   -0.6455   -4.0998 H   0  0  0  0  0  0  0  0  0  0  0  0
    3.3333   -1.6197   -5.1391 H   0  0  0  0  0  0  0  0  0  0  0  0
    4.9824   -1.9131   -4.8487 H   0  0  0  0  0  0  0  0  0  0  0  0
    3.5711   -2.4565   -3.2537 C   0  0  0  0  0  0  0  0  0  0  0  0
    2.5692   -2.4628   -3.2343 H   0  0  0  0  0  0  0  0  0  0  0  0
    3.9004   -3.3918   -3.4029 H   0  0  0  0  0  0  0  0  0  0  0  0
    4.0866   -1.9569   -1.9419 N   0  0  0  0  0  4  0  0  0  0  0  0
    4.6220   -2.6767   -1.5038 H   0  0  0  0  0  0  0  0  0  0  0  0
    4.6623   -1.1561   -2.0989 H   0  0  0  0  0  0  0  0  0  0  0  0
    3.3147   -1.7084   -1.3594 H   0  0  0  0  0  0  0  0  0  0  0  0
   -0.0031    2.8958   -0.0108 C   0  0  0  0  0  0  0  0  0  0  0  0
    0.8287    3.2078    0.4170 H   0  0  0  0  0  0  0  0  0  0  0  0
   -0.8037    3.2059    0.4749 H   0  0  0  0  0  0  0  0  0  0  0  0
   -0.0395    3.3093   -1.0187 H   0  0  0  0  0  0  0  0  0  0  0  0
   -0.0005    1.3981    0.0048 C   0  0  0  0  0  0  0  0  0  0  0  0
   -1.1969    0.6870   -0.0052 C   0  0  0  0  0  0  0  0  0  0  0  0
   -2.0638    1.1768   -0.0180 H   0  0  0  0  0  0  0  0  0  0  0  0
   -1.2001   -0.7023    0.0000 C   0  0  0  0  0  0  0  0  0  0  0  0
   -2.0732   -1.1985    0.0025 H   0  0  0  0  0  0  0  0  0  0  0  0
    0.0043   -1.3898    0.0035 C   0  0  0  0  0  0  0  0  0  0  0  0
    0.0061   -2.3900    0.0075 H   0  0  0  0  0  0  0  0  0  0  0  0
    1.2001   -0.6885   -0.0000 C   0  0  0  0  0  0  0  0  0  0  0  0
    2.0838   -1.1864    0.0013 H   0  0  0  0  0  0  0  0  0  0  0  0
    1.1931    0.6956   -0.0031 C   0  0  0  0  0  0  0  0  0  0  0  0
    2.0613    1.1953   -0.0118 H   0  0  0  0  0  0  0  0  0  0  0  0
  1  5  1  0
  5  8  1  0
  1  2  1  0
  1  3  1  0
  1  4  1  0
  5  6  1  0
  5  7  1  0
  8  9  1  0
  8 10  1  0
  8 11  1  0
 12 16  1  0
 16 17  2  0
 17 19  1  0
 19 21  2  0
 21 23  1  0
 23 25  2  0
 25 16  1  0
 12 13  1  0
 12 14  1  0
 12 15  1  0
 17 18  1  0
 19 20  1  0
 21 22  1  0
 23 24  1  0
 25 26  1  0
M  CHG  1   8   1
M  END
>  <PDB_ID>  (3344) 
pdb6ucz

>  <RESIDUE_NAME>  (3344) 
LYS   PHE

>  <FRAG_NAME>  (3344) 
ETAM   MBZ

>  <FRAG_ATOM_NUM>  (3344) 
fragi: 11  fragj: 15

>  <atom.prop.CHAIN_ID>  (3344) 
A A A A A A A A A A A Z Z Z Z Z Z Z Z Z Z Z Z Z Z Z

>  <atom.prop.IS_HEAVY_ATOM>  (3344) 
1 0 0 0 1 0 0 1 0 0 0 1 0 0 0 1 1 0 1 0 1 0 1 0 1 0

>  <DIFUSE_FUNC_ATOM>  (3344) 
n/a

>  <FINAL_SINGLE_POINT_ENERGY>  (3344) 
0

>  <NONCOV_INTER_ENERGY_QM>  (3344) 
0

>  <FF_Energy>  (3344) 
0.32

>  <QM_Energy>  (3344) 
-4.8

>  <source>  (3344) 
ETAM_MBZ

>  <Index>  (3344) 
36693

$$$$
ETAM-pdb6uds-A-LYS-6:MBZ-pdb6uds-A-PHE-130
     RDKit          3D

 26 25  0  0  0  0  0  0  0  0999 V2000
    2.7289   -1.2490   -3.9475 C   0  0  0  0  0  0  0  0  0  0  0  0
    2.4443   -2.1655   -3.8097 H   0  0  0  0  0  0  0  0  0  0  0  0
    2.9587   -0.8419   -3.0979 H   0  0  0  0  0  0  0  0  0  0  0  0
    3.6065   -1.2419   -4.5940 H   0  0  0  0  0  0  0  0  0  0  0  0
    1.5574   -0.4751   -4.5370 C   0  0  0  0  0  0  0  0  0  0  0  0
    1.8426    0.4243   -4.7615 H   0  0  0  0  0  0  0  0  0  0  0  0
    1.2365   -0.9297   -5.3322 H   0  0  0  0  0  0  0  0  0  0  0  0
    0.4323   -0.3847   -3.5552 N   0  0  0  0  0  4  0  0  0  0  0  0
    0.1553   -1.2018   -3.3341 H   0  0  0  0  0  0  0  0  0  0  0  0
    0.7030    0.0368   -2.8198 H   0  0  0  0  0  0  0  0  0  0  0  0
   -0.2480    0.0648   -3.9123 H   0  0  0  0  0  0  0  0  0  0  0  0
    0.0011    2.9039    0.0116 C   0  0  0  0  0  0  0  0  0  0  0  0
   -0.7995    3.2068   -0.4438 H   0  0  0  0  0  0  0  0  0  0  0  0
    0.7892    3.2062   -0.4672 H   0  0  0  0  0  0  0  0  0  0  0  0
    0.0159    3.3261    1.0164 H   0  0  0  0  0  0  0  0  0  0  0  0
    0.0008    1.3982   -0.0038 C   0  0  0  0  0  0  0  0  0  0  0  0
   -1.1926    0.6918    0.0037 C   0  0  0  0  0  0  0  0  0  0  0  0
   -2.0001    1.1534    0.0101 H   0  0  0  0  0  0  0  0  0  0  0  0
   -1.1950   -0.6908   -0.0000 C   0  0  0  0  0  0  0  0  0  0  0  0
   -2.0020   -1.1537   -0.0022 H   0  0  0  0  0  0  0  0  0  0  0  0
   -0.0005   -1.3877    0.0010 C   0  0  0  0  0  0  0  0  0  0  0  0
   -0.0021   -2.3170    0.0020 H   0  0  0  0  0  0  0  0  0  0  0  0
    1.1950   -0.6982   -0.0000 C   0  0  0  0  0  0  0  0  0  0  0  0
    2.0007   -1.1628    0.0007 H   0  0  0  0  0  0  0  0  0  0  0  0
    1.1923    0.6866   -0.0009 C   0  0  0  0  0  0  0  0  0  0  0  0
    2.0010    1.1468    0.0003 H   0  0  0  0  0  0  0  0  0  0  0  0
  1  5  1  0
  5  8  1  0
  1  2  1  0
  1  3  1  0
  1  4  1  0
  5  6  1  0
  5  7  1  0
  8  9  1  0
  8 10  1  0
  8 11  1  0
 12 16  1  0
 16 17  2  0
 17 19  1  0
 19 21  2  0
 21 23  1  0
 23 25  2  0
 25 16  1  0
 12 13  1  0
 12 14  1  0
 12 15  1  0
 17 18  1  0
 19 20  1  0
 21 22  1  0
 23 24  1  0
 25 26  1  0
M  CHG  1   8   1
M  END
>  <PDB_ID>  (3345) 
pdb6uds

>  <RESIDUE_NAME>  (3345) 
LYS   PHE

>  <FRAG_NAME>  (3345) 
ETAM   MBZ

>  <FRAG_ATOM_NUM>  (3345) 
fragi: 11  fragj: 15

>  <atom.prop.CHAIN_ID>  (3345) 
A A A A A A A A A A A Z Z Z Z Z Z Z Z Z Z Z Z Z Z Z

>  <atom.prop.IS_HEAVY_ATOM>  (3345) 
1 0 0 0 1 0 0 1 0 0 0 1 0 0 0 1 1 0 1 0 1 0 1 0 1 0

>  <DIFUSE_FUNC_ATOM>  (3345) 
n/a

>  <FINAL_SINGLE_POINT_ENERGY>  (3345) 
0

>  <NONCOV_INTER_ENERGY_QM>  (3345) 
0

>  <FF_Energy>  (3345) 
-7.17

>  <QM_Energy>  (3345) 
-13.24

>  <source>  (3345) 
ETAM_MBZ

>  <Index>  (3345) 
36697

$$$$
ETAM-pdb6uds-B-LYS-6:MBZ-pdb6uds-B-PHE-130
     RDKit          3D

 26 25  0  0  0  0  0  0  0  0999 V2000
    2.4991   -0.5017   -3.8427 C   0  0  0  0  0  0  0  0  0  0  0  0
    2.4330   -0.9277   -2.9744 H   0  0  0  0  0  0  0  0  0  0  0  0
    2.5434    0.4622   -3.7366 H   0  0  0  0  0  0  0  0  0  0  0  0
    3.4304   -0.8288   -4.3049 H   0  0  0  0  0  0  0  0  0  0  0  0
    1.1080   -0.8198   -4.6245 C   0  0  0  0  0  0  0  0  0  0  0  0
    1.0771   -0.3706   -5.4833 H   0  0  0  0  0  0  0  0  0  0  0  0
    0.9851   -1.7750   -4.7447 H   0  0  0  0  0  0  0  0  0  0  0  0
    0.0262   -0.2550   -3.6858 N   0  0  0  0  0  4  0  0  0  0  0  0
   -0.7810   -0.3877   -4.0372 H   0  0  0  0  0  0  0  0  0  0  0  0
    0.0672   -0.6610   -2.8951 H   0  0  0  0  0  0  0  0  0  0  0  0
    0.1506    0.6182   -3.5690 H   0  0  0  0  0  0  0  0  0  0  0  0
   -0.0001    2.9076    0.0169 C   0  0  0  0  0  0  0  0  0  0  0  0
   -0.8089    3.2104   -0.4258 H   0  0  0  0  0  0  0  0  0  0  0  0
    0.7795    3.2104   -0.4744 H   0  0  0  0  0  0  0  0  0  0  0  0
    0.0301    3.3284    1.0219 H   0  0  0  0  0  0  0  0  0  0  0  0
   -0.0008    1.3977    0.0003 C   0  0  0  0  0  0  0  0  0  0  0  0
   -1.1922    0.6897    0.0038 C   0  0  0  0  0  0  0  0  0  0  0  0
   -2.0004    1.1504    0.0094 H   0  0  0  0  0  0  0  0  0  0  0  0
   -1.1929   -0.6963    0.0000 C   0  0  0  0  0  0  0  0  0  0  0  0
   -1.9984   -1.1613    0.0006 H   0  0  0  0  0  0  0  0  0  0  0  0
    0.0046   -1.3871   -0.0025 C   0  0  0  0  0  0  0  0  0  0  0  0
    0.0064   -2.3167   -0.0063 H   0  0  0  0  0  0  0  0  0  0  0  0
    1.1929   -0.6940    0.0000 C   0  0  0  0  0  0  0  0  0  0  0  0
    2.0008   -1.1562    0.0033 H   0  0  0  0  0  0  0  0  0  0  0  0
    1.1884    0.6901   -0.0017 C   0  0  0  0  0  0  0  0  0  0  0  0
    1.9964    1.1510   -0.0042 H   0  0  0  0  0  0  0  0  0  0  0  0
  1  5  1  0
  5  8  1  0
  1  2  1  0
  1  3  1  0
  1  4  1  0
  5  6  1  0
  5  7  1  0
  8  9  1  0
  8 10  1  0
  8 11  1  0
 12 16  1  0
 16 17  2  0
 17 19  1  0
 19 21  2  0
 21 23  1  0
 23 25  2  0
 25 16  1  0
 12 13  1  0
 12 14  1  0
 12 15  1  0
 17 18  1  0
 19 20  1  0
 21 22  1  0
 23 24  1  0
 25 26  1  0
M  CHG  1   8   1
M  END
>  <PDB_ID>  (3346) 
pdb6uds

>  <RESIDUE_NAME>  (3346) 
LYS   PHE

>  <FRAG_NAME>  (3346) 
ETAM   MBZ

>  <FRAG_ATOM_NUM>  (3346) 
fragi: 11  fragj: 15

>  <atom.prop.CHAIN_ID>  (3346) 
A A A A A A A A A A A Z Z Z Z Z Z Z Z Z Z Z Z Z Z Z

>  <atom.prop.IS_HEAVY_ATOM>  (3346) 
1 0 0 0 1 0 0 1 0 0 0 1 0 0 0 1 1 0 1 0 1 0 1 0 1 0

>  <DIFUSE_FUNC_ATOM>  (3346) 
n/a

>  <FINAL_SINGLE_POINT_ENERGY>  (3346) 
0

>  <NONCOV_INTER_ENERGY_QM>  (3346) 
0

>  <FF_Energy>  (3346) 
-7.12

>  <QM_Energy>  (3346) 
-12.57

>  <source>  (3346) 
ETAM_MBZ

>  <Index>  (3346) 
36698

$$$$
ETAM-pdb6ux3-D-LYS-3:MBZ-pdb6ux3-D-PHE-27
     RDKit          3D

 26 25  0  0  0  0  0  0  0  0999 V2000
   -1.6433   -1.6223   -3.3469 C   0  0  0  0  0  0  0  0  0  0  0  0
   -1.3987   -1.7217   -2.3896 H   0  0  0  0  0  0  0  0  0  0  0  0
   -2.2148   -2.3778   -3.6426 H   0  0  0  0  0  0  0  0  0  0  0  0
   -2.1968   -0.6918   -3.4731 H   0  0  0  0  0  0  0  0  0  0  0  0
   -0.3617   -1.6275   -4.1788 C   0  0  0  0  0  0  0  0  0  0  0  0
    0.1167   -2.5006   -4.0277 H   0  0  0  0  0  0  0  0  0  0  0  0
   -0.6092   -1.5671   -5.1527 H   0  0  0  0  0  0  0  0  0  0  0  0
    0.5550   -0.5026   -3.8381 N   0  0  0  0  0  4  0  0  0  0  0  0
    0.9354   -0.6513   -2.9264 H   0  0  0  0  0  0  0  0  0  0  0  0
    1.2948   -0.4648   -4.5084 H   0  0  0  0  0  0  0  0  0  0  0  0
    0.0443    0.3561   -3.8523 H   0  0  0  0  0  0  0  0  0  0  0  0
   -0.0034    2.8909   -0.0008 C   0  0  0  0  0  0  0  0  0  0  0  0
    0.8369    3.2000    0.4210 H   0  0  0  0  0  0  0  0  0  0  0  0
   -0.7939    3.1976    0.5090 H   0  0  0  0  0  0  0  0  0  0  0  0
   -0.0579    3.3354   -0.9945 H   0  0  0  0  0  0  0  0  0  0  0  0
   -0.0012    1.3926   -0.0020 C   0  0  0  0  0  0  0  0  0  0  0  0
   -1.1911    0.6882   -0.0001 C   0  0  0  0  0  0  0  0  0  0  0  0
   -2.0595    1.1810    0.0002 H   0  0  0  0  0  0  0  0  0  0  0  0
   -1.1940   -0.6913    0.0000 C   0  0  0  0  0  0  0  0  0  0  0  0
   -2.0726   -1.1889    0.0006 H   0  0  0  0  0  0  0  0  0  0  0  0
    0.0013   -1.3838    0.0011 C   0  0  0  0  0  0  0  0  0  0  0  0
   -0.0034   -2.3853    0.0020 H   0  0  0  0  0  0  0  0  0  0  0  0
    1.1940   -0.6929   -0.0000 C   0  0  0  0  0  0  0  0  0  0  0  0
    2.0778   -1.1933   -0.0002 H   0  0  0  0  0  0  0  0  0  0  0  0
    1.1910    0.6871    0.0010 C   0  0  0  0  0  0  0  0  0  0  0  0
    2.0597    1.1862    0.0028 H   0  0  0  0  0  0  0  0  0  0  0  0
  1  5  1  0
  5  8  1  0
  1  2  1  0
  1  3  1  0
  1  4  1  0
  5  6  1  0
  5  7  1  0
  8  9  1  0
  8 10  1  0
  8 11  1  0
 12 16  1  0
 16 17  2  0
 17 19  1  0
 19 21  2  0
 21 23  1  0
 23 25  2  0
 25 16  1  0
 12 13  1  0
 12 14  1  0
 12 15  1  0
 17 18  1  0
 19 20  1  0
 21 22  1  0
 23 24  1  0
 25 26  1  0
M  CHG  1   8   1
M  END
>  <PDB_ID>  (3347) 
pdb6ux3

>  <RESIDUE_NAME>  (3347) 
LYS   PHE

>  <FRAG_NAME>  (3347) 
ETAM   MBZ

>  <FRAG_ATOM_NUM>  (3347) 
fragi: 11  fragj: 15

>  <atom.prop.CHAIN_ID>  (3347) 
A A A A A A A A A A A Z Z Z Z Z Z Z Z Z Z Z Z Z Z Z

>  <atom.prop.IS_HEAVY_ATOM>  (3347) 
1 0 0 0 1 0 0 1 0 0 0 1 0 0 0 1 1 0 1 0 1 0 1 0 1 0

>  <DIFUSE_FUNC_ATOM>  (3347) 
n/a

>  <FINAL_SINGLE_POINT_ENERGY>  (3347) 
0

>  <NONCOV_INTER_ENERGY_QM>  (3347) 
0

>  <FF_Energy>  (3347) 
-6.16

>  <QM_Energy>  (3347) 
-11.26

>  <source>  (3347) 
ETAM_MBZ

>  <Index>  (3347) 
36731

$$$$
ETAM-pdb5nfo-B-LYS-179:MBZ-pdb5nfo-B-PHE-303
     RDKit          3D

 26 25  0  0  0  0  0  0  0  0999 V2000
    1.4316   -3.3777   -3.2593 C   0  0  0  0  0  0  0  0  0  0  0  0
    1.4463   -2.4792   -3.6837 H   0  0  0  0  0  0  0  0  0  0  0  0
    0.5081   -3.6163   -2.9813 H   0  0  0  0  0  0  0  0  0  0  0  0
    1.7854   -4.1143   -3.9807 H   0  0  0  0  0  0  0  0  0  0  0  0
    2.3176   -3.3468   -2.0252 C   0  0  0  0  0  0  0  0  0  0  0  0
    1.7678   -3.0658   -1.2364 H   0  0  0  0  0  0  0  0  0  0  0  0
    2.6817   -4.2650   -1.8621 H   0  0  0  0  0  0  0  0  0  0  0  0
    3.4499   -2.3949   -2.1955 N   0  0  0  0  0  4  0  0  0  0  0  0
    4.1360   -2.5675   -1.4897 H   0  0  0  0  0  0  0  0  0  0  0  0
    3.8584   -2.5241   -3.0989 H   0  0  0  0  0  0  0  0  0  0  0  0
    3.1113   -1.4587   -2.1117 H   0  0  0  0  0  0  0  0  0  0  0  0
   -0.0183    2.8793    0.0509 C   0  0  0  0  0  0  0  0  0  0  0  0
   -0.7522    3.2056   -0.5177 H   0  0  0  0  0  0  0  0  0  0  0  0
    0.8585    3.2140   -0.2445 H   0  0  0  0  0  0  0  0  0  0  0  0
   -0.1915    3.2483    1.0618 H   0  0  0  0  0  0  0  0  0  0  0  0
   -0.0004    1.3904   -0.0098 C   0  0  0  0  0  0  0  0  0  0  0  0
   -1.1946    0.6762    0.0063 C   0  0  0  0  0  0  0  0  0  0  0  0
   -2.0614    1.1756    0.0212 H   0  0  0  0  0  0  0  0  0  0  0  0
   -1.1969   -0.6922   -0.0000 C   0  0  0  0  0  0  0  0  0  0  0  0
   -2.0717   -1.1977    0.0008 H   0  0  0  0  0  0  0  0  0  0  0  0
    0.0029   -1.3812   -0.0057 C   0  0  0  0  0  0  0  0  0  0  0  0
    0.0004   -2.3829   -0.0143 H   0  0  0  0  0  0  0  0  0  0  0  0
    1.1969   -0.6868    0.0000 C   0  0  0  0  0  0  0  0  0  0  0  0
    2.0811   -1.1871   -0.0009 H   0  0  0  0  0  0  0  0  0  0  0  0
    1.1921    0.6937    0.0092 C   0  0  0  0  0  0  0  0  0  0  0  0
    2.0589    1.1933    0.0289 H   0  0  0  0  0  0  0  0  0  0  0  0
  1  5  1  0
  5  8  1  0
  1  2  1  0
  1  3  1  0
  1  4  1  0
  5  6  1  0
  5  7  1  0
  8  9  1  0
  8 10  1  0
  8 11  1  0
 12 16  1  0
 16 17  2  0
 17 19  1  0
 19 21  2  0
 21 23  1  0
 23 25  2  0
 25 16  1  0
 12 13  1  0
 12 14  1  0
 12 15  1  0
 17 18  1  0
 19 20  1  0
 21 22  1  0
 23 24  1  0
 25 26  1  0
M  CHG  1   8   1
M  END
>  <PDB_ID>  (3348) 
pdb5nfo

>  <RESIDUE_NAME>  (3348) 
LYS   PHE

>  <FRAG_NAME>  (3348) 
ETAM   MBZ

>  <FRAG_ATOM_NUM>  (3348) 
fragi: 11  fragj: 15

>  <atom.prop.CHAIN_ID>  (3348) 
A A A A A A A A A A A Z Z Z Z Z Z Z Z Z Z Z Z Z Z Z

>  <atom.prop.IS_HEAVY_ATOM>  (3348) 
1 0 0 0 1 0 0 1 0 0 0 1 0 0 0 1 1 0 1 0 1 0 1 0 1 0

>  <DIFUSE_FUNC_ATOM>  (3348) 
n/a

>  <FINAL_SINGLE_POINT_ENERGY>  (3348) 
0

>  <NONCOV_INTER_ENERGY_QM>  (3348) 
0

>  <FF_Energy>  (3348) 
-0.15

>  <QM_Energy>  (3348) 
-6.16

>  <source>  (3348) 
ETAM_MBZ

>  <Index>  (3348) 
36733

$$$$
ETAM-pdb6u7j-A-LYS-306:MBZ-pdb6u7j-A-PHE-553
     RDKit          3D

 26 25  0  0  0  0  0  0  0  0999 V2000
    0.4103    1.5015   -4.6473 C   0  0  0  0  0  0  0  0  0  0  0  0
   -0.5344    1.3761   -4.9308 H   0  0  0  0  0  0  0  0  0  0  0  0
    1.0067    1.5649   -5.4406 H   0  0  0  0  0  0  0  0  0  0  0  0
    0.4826    2.4305   -4.0817 H   0  0  0  0  0  0  0  0  0  0  0  0
    0.8348    0.2781   -3.8164 C   0  0  0  0  0  0  0  0  0  0  0  0
    0.2208    0.1964   -3.0261 H   0  0  0  0  0  0  0  0  0  0  0  0
    0.7402   -0.5457   -4.3833 H   0  0  0  0  0  0  0  0  0  0  0  0
    2.2601    0.3640   -3.3182 N   0  0  0  0  0  4  0  0  0  0  0  0
    2.5191   -0.5182   -2.9354 H   0  0  0  0  0  0  0  0  0  0  0  0
    2.8529    0.5940   -4.0845 H   0  0  0  0  0  0  0  0  0  0  0  0
    2.3118    1.0702   -2.6188 H   0  0  0  0  0  0  0  0  0  0  0  0
    0.0025    2.9073   -0.0033 C   0  0  0  0  0  0  0  0  0  0  0  0
   -0.6651    3.2076   -0.6672 H   0  0  0  0  0  0  0  0  0  0  0  0
    0.9124    3.2102   -0.2441 H   0  0  0  0  0  0  0  0  0  0  0  0
   -0.2556    3.3563    0.9558 H   0  0  0  0  0  0  0  0  0  0  0  0
    0.0020    1.4015    0.0082 C   0  0  0  0  0  0  0  0  0  0  0  0
   -1.1902    0.6923   -0.0099 C   0  0  0  0  0  0  0  0  0  0  0  0
   -2.0588    1.1831   -0.0316 H   0  0  0  0  0  0  0  0  0  0  0  0
   -1.1977   -0.6974   -0.0000 C   0  0  0  0  0  0  0  0  0  0  0  0
   -2.0776   -1.1879    0.0136 H   0  0  0  0  0  0  0  0  0  0  0  0
   -0.0033   -1.3930   -0.0067 C   0  0  0  0  0  0  0  0  0  0  0  0
   -0.0065   -2.3926   -0.0172 H   0  0  0  0  0  0  0  0  0  0  0  0
    1.1977   -0.6986   -0.0000 C   0  0  0  0  0  0  0  0  0  0  0  0
    2.0787   -1.1941    0.0003 H   0  0  0  0  0  0  0  0  0  0  0  0
    1.1916    0.6952    0.0084 C   0  0  0  0  0  0  0  0  0  0  0  0
    2.0639    1.1884    0.0136 H   0  0  0  0  0  0  0  0  0  0  0  0
  1  5  1  0
  5  8  1  0
  1  2  1  0
  1  3  1  0
  1  4  1  0
  5  6  1  0
  5  7  1  0
  8  9  1  0
  8 10  1  0
  8 11  1  0
 12 16  1  0
 16 17  2  0
 17 19  1  0
 19 21  2  0
 21 23  1  0
 23 25  2  0
 25 16  1  0
 12 13  1  0
 12 14  1  0
 12 15  1  0
 17 18  1  0
 19 20  1  0
 21 22  1  0
 23 24  1  0
 25 26  1  0
M  CHG  1   8   1
M  END
>  <PDB_ID>  (3349) 
pdb6u7j

>  <RESIDUE_NAME>  (3349) 
LYS   PHE

>  <FRAG_NAME>  (3349) 
ETAM   MBZ

>  <FRAG_ATOM_NUM>  (3349) 
fragi: 11  fragj: 15

>  <atom.prop.CHAIN_ID>  (3349) 
A A A A A A A A A A A Z Z Z Z Z Z Z Z Z Z Z Z Z Z Z

>  <atom.prop.IS_HEAVY_ATOM>  (3349) 
1 0 0 0 1 0 0 1 0 0 0 1 0 0 0 1 1 0 1 0 1 0 1 0 1 0

>  <DIFUSE_FUNC_ATOM>  (3349) 
n/a

>  <FINAL_SINGLE_POINT_ENERGY>  (3349) 
0

>  <NONCOV_INTER_ENERGY_QM>  (3349) 
0

>  <FF_Energy>  (3349) 
-5.53

>  <QM_Energy>  (3349) 
-10.96

>  <source>  (3349) 
ETAM_MBZ

>  <Index>  (3349) 
36756

$$$$
ETAM-pdb5nl8-A-LYS-89:MBZ-pdb5nl8-A-PHE-85
     RDKit          3D

 26 25  0  0  0  0  0  0  0  0999 V2000
   -0.2321    1.3771    3.7659 C   0  0  0  0  0  0  0  0  0  0  0  0
   -0.8295    1.5102    4.5478 H   0  0  0  0  0  0  0  0  0  0  0  0
   -0.6724    1.6875    2.9322 H   0  0  0  0  0  0  0  0  0  0  0  0
    0.6829    1.9496    3.9184 H   0  0  0  0  0  0  0  0  0  0  0  0
    0.0682   -0.1065    3.6320 C   0  0  0  0  0  0  0  0  0  0  0  0
    0.6838   -0.2438    2.8519 H   0  0  0  0  0  0  0  0  0  0  0  0
    0.5259   -0.4213    4.4670 H   0  0  0  0  0  0  0  0  0  0  0  0
   -1.1706   -0.8954    3.4246 N   0  0  0  0  0  4  0  0  0  0  0  0
   -1.9673   -0.2967    3.5162 H   0  0  0  0  0  0  0  0  0  0  0  0
   -1.1611   -1.2984    2.5089 H   0  0  0  0  0  0  0  0  0  0  0  0
   -1.2208   -1.6242    4.1088 H   0  0  0  0  0  0  0  0  0  0  0  0
    0.0102    2.9048    0.0011 C   0  0  0  0  0  0  0  0  0  0  0  0
    0.7953    3.2054   -0.5202 H   0  0  0  0  0  0  0  0  0  0  0  0
    0.0670    3.2085    0.9407 H   0  0  0  0  0  0  0  0  0  0  0  0
   -0.8766    3.3577   -0.4422 H   0  0  0  0  0  0  0  0  0  0  0  0
    0.0001    1.3981   -0.0003 C   0  0  0  0  0  0  0  0  0  0  0  0
   -1.1935    0.6956    0.0016 C   0  0  0  0  0  0  0  0  0  0  0  0
   -2.0610    1.1847    0.0024 H   0  0  0  0  0  0  0  0  0  0  0  0
   -1.1977   -0.6942    0.0000 C   0  0  0  0  0  0  0  0  0  0  0  0
   -2.0749   -1.1875    0.0013 H   0  0  0  0  0  0  0  0  0  0  0  0
    0.0013   -1.3897   -0.0013 C   0  0  0  0  0  0  0  0  0  0  0  0
   -0.0053   -2.3902   -0.0041 H   0  0  0  0  0  0  0  0  0  0  0  0
    1.1977   -0.6980   -0.0000 C   0  0  0  0  0  0  0  0  0  0  0  0
    2.0802   -1.1959    0.0024 H   0  0  0  0  0  0  0  0  0  0  0  0
    1.1921    0.6881    0.0000 C   0  0  0  0  0  0  0  0  0  0  0  0
    2.0626    1.1852   -0.0008 H   0  0  0  0  0  0  0  0  0  0  0  0
  1  5  1  0
  5  8  1  0
  1  2  1  0
  1  3  1  0
  1  4  1  0
  5  6  1  0
  5  7  1  0
  8  9  1  0
  8 10  1  0
  8 11  1  0
 12 16  1  0
 16 17  2  0
 17 19  1  0
 19 21  2  0
 21 23  1  0
 23 25  2  0
 25 16  1  0
 12 13  1  0
 12 14  1  0
 12 15  1  0
 17 18  1  0
 19 20  1  0
 21 22  1  0
 23 24  1  0
 25 26  1  0
M  CHG  1   8   1
M  END
>  <PDB_ID>  (3350) 
pdb5nl8

>  <RESIDUE_NAME>  (3350) 
LYS   PHE

>  <FRAG_NAME>  (3350) 
ETAM   MBZ

>  <FRAG_ATOM_NUM>  (3350) 
fragi: 11  fragj: 15

>  <atom.prop.CHAIN_ID>  (3350) 
A A A A A A A A A A A Z Z Z Z Z Z Z Z Z Z Z Z Z Z Z

>  <atom.prop.IS_HEAVY_ATOM>  (3350) 
1 0 0 0 1 0 0 1 0 0 0 1 0 0 0 1 1 0 1 0 1 0 1 0 1 0

>  <DIFUSE_FUNC_ATOM>  (3350) 
n/a

>  <FINAL_SINGLE_POINT_ENERGY>  (3350) 
0

>  <NONCOV_INTER_ENERGY_QM>  (3350) 
0

>  <FF_Energy>  (3350) 
-7.53

>  <QM_Energy>  (3350) 
-14.69

>  <source>  (3350) 
ETAM_MBZ

>  <Index>  (3350) 
36778

$$$$
ETAM-pdb5nqg-A-LYS-256:MBZ-pdb5nqg-A-PHE-370
     RDKit          3D

 26 25  0  0  0  0  0  0  0  0999 V2000
   -0.6165    0.7043   -3.9887 C   0  0  0  0  0  0  0  0  0  0  0  0
   -1.0994    1.1193   -3.2088 H   0  0  0  0  0  0  0  0  0  0  0  0
   -1.2927    0.4822   -4.7007 H   0  0  0  0  0  0  0  0  0  0  0  0
    0.0833    1.4365   -4.3914 H   0  0  0  0  0  0  0  0  0  0  0  0
    0.0379   -0.5702   -3.5292 C   0  0  0  0  0  0  0  0  0  0  0  0
    0.6274   -0.9257   -4.2569 H   0  0  0  0  0  0  0  0  0  0  0  0
    0.5926   -0.3882   -2.7148 H   0  0  0  0  0  0  0  0  0  0  0  0
   -0.9857   -1.6140   -3.1882 N   0  0  0  0  0  4  0  0  0  0  0  0
   -0.8993   -1.8512   -2.2233 H   0  0  0  0  0  0  0  0  0  0  0  0
   -1.8959   -1.2477   -3.3674 H   0  0  0  0  0  0  0  0  0  0  0  0
   -0.8273   -2.4213   -3.7522 H   0  0  0  0  0  0  0  0  0  0  0  0
   -0.0004    2.9143    0.0415 C   0  0  0  0  0  0  0  0  0  0  0  0
   -0.6962    3.2311   -0.5921 H   0  0  0  0  0  0  0  0  0  0  0  0
    0.8987    3.2228   -0.2442 H   0  0  0  0  0  0  0  0  0  0  0  0
   -0.2108    3.3569    1.0151 H   0  0  0  0  0  0  0  0  0  0  0  0
   -0.0017    1.4084    0.0155 C   0  0  0  0  0  0  0  0  0  0  0  0
   -1.1980    0.6948   -0.0071 C   0  0  0  0  0  0  0  0  0  0  0  0
   -2.0655    1.1767   -0.0291 H   0  0  0  0  0  0  0  0  0  0  0  0
   -1.1920   -0.7037    0.0000 C   0  0  0  0  0  0  0  0  0  0  0  0
   -2.0682   -1.1985    0.0169 H   0  0  0  0  0  0  0  0  0  0  0  0
    0.0092   -1.3927   -0.0143 C   0  0  0  0  0  0  0  0  0  0  0  0
    0.0004   -2.3965   -0.0359 H   0  0  0  0  0  0  0  0  0  0  0  0
    1.1920   -0.7048    0.0000 C   0  0  0  0  0  0  0  0  0  0  0  0
    2.0827   -1.1915    0.0079 H   0  0  0  0  0  0  0  0  0  0  0  0
    1.1905    0.6980    0.0059 C   0  0  0  0  0  0  0  0  0  0  0  0
    2.0624    1.1856    0.0023 H   0  0  0  0  0  0  0  0  0  0  0  0
  1  5  1  0
  5  8  1  0
  1  2  1  0
  1  3  1  0
  1  4  1  0
  5  6  1  0
  5  7  1  0
  8  9  1  0
  8 10  1  0
  8 11  1  0
 12 16  1  0
 16 17  2  0
 17 19  1  0
 19 21  2  0
 21 23  1  0
 23 25  2  0
 25 16  1  0
 12 13  1  0
 12 14  1  0
 12 15  1  0
 17 18  1  0
 19 20  1  0
 21 22  1  0
 23 24  1  0
 25 26  1  0
M  CHG  1   8   1
M  END
>  <PDB_ID>  (3351) 
pdb5nqg

>  <RESIDUE_NAME>  (3351) 
LYS   PHE

>  <FRAG_NAME>  (3351) 
ETAM   MBZ

>  <FRAG_ATOM_NUM>  (3351) 
fragi: 11  fragj: 15

>  <atom.prop.CHAIN_ID>  (3351) 
A A A A A A A A A A A Z Z Z Z Z Z Z Z Z Z Z Z Z Z Z

>  <atom.prop.IS_HEAVY_ATOM>  (3351) 
1 0 0 0 1 0 0 1 0 0 0 1 0 0 0 1 1 0 1 0 1 0 1 0 1 0

>  <DIFUSE_FUNC_ATOM>  (3351) 
n/a

>  <FINAL_SINGLE_POINT_ENERGY>  (3351) 
0

>  <NONCOV_INTER_ENERGY_QM>  (3351) 
0

>  <FF_Energy>  (3351) 
-6.5

>  <QM_Energy>  (3351) 
-14.67

>  <source>  (3351) 
ETAM_MBZ

>  <Index>  (3351) 
36855

$$$$
ETAM-pdb5nue-B-LYS-105:MBZ-pdb5nue-B-PHE-91
     RDKit          3D

 26 25  0  0  0  0  0  0  0  0999 V2000
   -0.2466    0.3194   -3.3656 C   0  0  0  0  0  0  0  0  0  0  0  0
   -0.0176    1.2174   -3.0207 H   0  0  0  0  0  0  0  0  0  0  0  0
   -0.3192   -0.3401   -2.6333 H   0  0  0  0  0  0  0  0  0  0  0  0
   -1.2011    0.3748   -3.8890 H   0  0  0  0  0  0  0  0  0  0  0  0
    0.8492   -0.1307   -4.3211 C   0  0  0  0  0  0  0  0  0  0  0  0
    0.6899   -1.0884   -4.5690 H   0  0  0  0  0  0  0  0  0  0  0  0
    0.8092    0.4326   -5.1490 H   0  0  0  0  0  0  0  0  0  0  0  0
    2.1990   -0.0019   -3.7064 N   0  0  0  0  0  4  0  0  0  0  0  0
    2.7940   -0.7227   -4.0605 H   0  0  0  0  0  0  0  0  0  0  0  0
    2.5834    0.8926   -3.9343 H   0  0  0  0  0  0  0  0  0  0  0  0
    2.1206   -0.0891   -2.7141 H   0  0  0  0  0  0  0  0  0  0  0  0
    0.0110    2.8992   -0.0289 C   0  0  0  0  0  0  0  0  0  0  0  0
   -0.6852    3.2011   -0.6711 H   0  0  0  0  0  0  0  0  0  0  0  0
    0.9121    3.1925   -0.3294 H   0  0  0  0  0  0  0  0  0  0  0  0
   -0.1929    3.3630    0.9362 H   0  0  0  0  0  0  0  0  0  0  0  0
   -0.0009    1.4043   -0.0089 C   0  0  0  0  0  0  0  0  0  0  0  0
   -1.1991    0.6852    0.0030 C   0  0  0  0  0  0  0  0  0  0  0  0
   -2.0650    1.1831    0.0125 H   0  0  0  0  0  0  0  0  0  0  0  0
   -1.2007   -0.6882    0.0000 C   0  0  0  0  0  0  0  0  0  0  0  0
   -2.0773   -1.1923   -0.0065 H   0  0  0  0  0  0  0  0  0  0  0  0
    0.0010   -1.3927    0.0076 C   0  0  0  0  0  0  0  0  0  0  0  0
   -0.0128   -2.3914    0.0185 H   0  0  0  0  0  0  0  0  0  0  0  0
    1.2007   -0.7046   -0.0000 C   0  0  0  0  0  0  0  0  0  0  0  0
    2.0827   -1.1979   -0.0027 H   0  0  0  0  0  0  0  0  0  0  0  0
    1.1990    0.6960   -0.0017 C   0  0  0  0  0  0  0  0  0  0  0  0
    2.0663    1.1872    0.0015 H   0  0  0  0  0  0  0  0  0  0  0  0
  1  5  1  0
  5  8  1  0
  1  2  1  0
  1  3  1  0
  1  4  1  0
  5  6  1  0
  5  7  1  0
  8  9  1  0
  8 10  1  0
  8 11  1  0
 12 16  1  0
 16 17  2  0
 17 19  1  0
 19 21  2  0
 21 23  1  0
 23 25  2  0
 25 16  1  0
 12 13  1  0
 12 14  1  0
 12 15  1  0
 17 18  1  0
 19 20  1  0
 21 22  1  0
 23 24  1  0
 25 26  1  0
M  CHG  1   8   1
M  END
>  <PDB_ID>  (3352) 
pdb5nue

>  <RESIDUE_NAME>  (3352) 
LYS   PHE

>  <FRAG_NAME>  (3352) 
ETAM   MBZ

>  <FRAG_ATOM_NUM>  (3352) 
fragi: 11  fragj: 15

>  <atom.prop.CHAIN_ID>  (3352) 
A A A A A A A A A A A Z Z Z Z Z Z Z Z Z Z Z Z Z Z Z

>  <atom.prop.IS_HEAVY_ATOM>  (3352) 
1 0 0 0 1 0 0 1 0 0 0 1 0 0 0 1 1 0 1 0 1 0 1 0 1 0

>  <DIFUSE_FUNC_ATOM>  (3352) 
n/a

>  <FINAL_SINGLE_POINT_ENERGY>  (3352) 
0

>  <NONCOV_INTER_ENERGY_QM>  (3352) 
0

>  <FF_Energy>  (3352) 
-5.19

>  <QM_Energy>  (3352) 
-11.11

>  <source>  (3352) 
ETAM_MBZ

>  <Index>  (3352) 
36860

$$$$
ETAM-pdb5nv9-A-LYS-70:MBZ-pdb5nv9-A-PHE-78
     RDKit          3D

 26 25  0  0  0  0  0  0  0  0999 V2000
    0.6077    0.1106   -3.6395 C   0  0  0  0  0  0  0  0  0  0  0  0
    1.5377    0.4468   -3.5399 H   0  0  0  0  0  0  0  0  0  0  0  0
    0.0768    0.3106   -2.8236 H   0  0  0  0  0  0  0  0  0  0  0  0
    0.1429    0.5987   -4.4961 H   0  0  0  0  0  0  0  0  0  0  0  0
    0.6596   -1.4031   -3.8215 C   0  0  0  0  0  0  0  0  0  0  0  0
    1.0539   -1.6094   -4.7126 H   0  0  0  0  0  0  0  0  0  0  0  0
    1.2208   -1.7970   -3.0988 H   0  0  0  0  0  0  0  0  0  0  0  0
   -0.7154   -1.9778   -3.7462 N   0  0  0  0  0  4  0  0  0  0  0  0
   -0.9919   -2.0458   -2.7888 H   0  0  0  0  0  0  0  0  0  0  0  0
   -1.3491   -1.3819   -4.2378 H   0  0  0  0  0  0  0  0  0  0  0  0
   -0.7161   -2.8865   -4.1623 H   0  0  0  0  0  0  0  0  0  0  0  0
    0.0187    2.9231   -0.0275 C   0  0  0  0  0  0  0  0  0  0  0  0
   -0.2132    3.1886   -0.9537 H   0  0  0  0  0  0  0  0  0  0  0  0
    0.9347    3.2215    0.2067 H   0  0  0  0  0  0  0  0  0  0  0  0
   -0.6829    3.4054    0.6531 H   0  0  0  0  0  0  0  0  0  0  0  0
    0.0035    1.4123    0.0294 C   0  0  0  0  0  0  0  0  0  0  0  0
   -1.2078    0.6830    0.0024 C   0  0  0  0  0  0  0  0  0  0  0  0
   -2.0694    1.1771   -0.0167 H   0  0  0  0  0  0  0  0  0  0  0  0
   -1.2082   -0.7074   -0.0000 C   0  0  0  0  0  0  0  0  0  0  0  0
   -2.0790   -1.2064    0.0032 H   0  0  0  0  0  0  0  0  0  0  0  0
    0.0028   -1.4006   -0.0045 C   0  0  0  0  0  0  0  0  0  0  0  0
    0.0031   -2.3983   -0.0111 H   0  0  0  0  0  0  0  0  0  0  0  0
    1.2082   -0.6977   -0.0000 C   0  0  0  0  0  0  0  0  0  0  0  0
    2.0888   -1.1873    0.0242 H   0  0  0  0  0  0  0  0  0  0  0  0
    1.2014    0.7103   -0.0274 C   0  0  0  0  0  0  0  0  0  0  0  0
    2.0663    1.1995   -0.0889 H   0  0  0  0  0  0  0  0  0  0  0  0
  1  5  1  0
  5  8  1  0
  1  2  1  0
  1  3  1  0
  1  4  1  0
  5  6  1  0
  5  7  1  0
  8  9  1  0
  8 10  1  0
  8 11  1  0
 12 16  1  0
 16 17  2  0
 17 19  1  0
 19 21  2  0
 21 23  1  0
 23 25  2  0
 25 16  1  0
 12 13  1  0
 12 14  1  0
 12 15  1  0
 17 18  1  0
 19 20  1  0
 21 22  1  0
 23 24  1  0
 25 26  1  0
M  CHG  1   8   1
M  END
>  <PDB_ID>  (3353) 
pdb5nv9

>  <RESIDUE_NAME>  (3353) 
LYS   PHE

>  <FRAG_NAME>  (3353) 
ETAM   MBZ

>  <FRAG_ATOM_NUM>  (3353) 
fragi: 11  fragj: 15

>  <atom.prop.CHAIN_ID>  (3353) 
A A A A A A A A A A A Z Z Z Z Z Z Z Z Z Z Z Z Z Z Z

>  <atom.prop.IS_HEAVY_ATOM>  (3353) 
1 0 0 0 1 0 0 1 0 0 0 1 0 0 0 1 1 0 1 0 1 0 1 0 1 0

>  <DIFUSE_FUNC_ATOM>  (3353) 
n/a

>  <FINAL_SINGLE_POINT_ENERGY>  (3353) 
0

>  <NONCOV_INTER_ENERGY_QM>  (3353) 
0

>  <FF_Energy>  (3353) 
-5.39

>  <QM_Energy>  (3353) 
-11.47

>  <source>  (3353) 
ETAM_MBZ

>  <Index>  (3353) 
36865

$$$$
ETAM-pdb5nv9-A-LYS-271:MBZ-pdb5nv9-A-PHE-93
     RDKit          3D

 26 25  0  0  0  0  0  0  0  0999 V2000
    0.5420   -2.5722   -4.6510 C   0  0  0  0  0  0  0  0  0  0  0  0
    0.3240   -2.7612   -5.6132 H   0  0  0  0  0  0  0  0  0  0  0  0
    1.4049   -2.0604   -4.6090 H   0  0  0  0  0  0  0  0  0  0  0  0
   -0.2475   -1.9414   -4.2424 H   0  0  0  0  0  0  0  0  0  0  0  0
    0.7066   -3.8713   -3.9210 C   0  0  0  0  0  0  0  0  0  0  0  0
   -0.1508   -4.4051   -3.9892 H   0  0  0  0  0  0  0  0  0  0  0  0
    1.4388   -4.4132   -4.3620 H   0  0  0  0  0  0  0  0  0  0  0  0
    1.0459   -3.6982   -2.4809 N   0  0  0  0  0  4  0  0  0  0  0  0
    2.0374   -3.7459   -2.3661 H   0  0  0  0  0  0  0  0  0  0  0  0
    0.7148   -2.8088   -2.1679 H   0  0  0  0  0  0  0  0  0  0  0  0
    0.6110   -4.4240   -1.9490 H   0  0  0  0  0  0  0  0  0  0  0  0
   -0.0103    2.8898   -0.0217 C   0  0  0  0  0  0  0  0  0  0  0  0
   -0.6473    3.1959   -0.7122 H   0  0  0  0  0  0  0  0  0  0  0  0
    0.9067    3.2072   -0.2105 H   0  0  0  0  0  0  0  0  0  0  0  0
   -0.3196    3.3306    0.9260 H   0  0  0  0  0  0  0  0  0  0  0  0
   -0.0012    1.3965   -0.0156 C   0  0  0  0  0  0  0  0  0  0  0  0
   -1.1978    0.6937   -0.0101 C   0  0  0  0  0  0  0  0  0  0  0  0
   -2.0646    1.1925   -0.0145 H   0  0  0  0  0  0  0  0  0  0  0  0
   -1.2166   -0.6926    0.0000 C   0  0  0  0  0  0  0  0  0  0  0  0
   -2.0870   -1.1869   -0.0055 H   0  0  0  0  0  0  0  0  0  0  0  0
   -0.0033   -1.3998    0.0200 C   0  0  0  0  0  0  0  0  0  0  0  0
   -0.0093   -2.3924    0.0479 H   0  0  0  0  0  0  0  0  0  0  0  0
    1.2166   -0.6987   -0.0000 C   0  0  0  0  0  0  0  0  0  0  0  0
    2.0883   -1.1945   -0.0168 H   0  0  0  0  0  0  0  0  0  0  0  0
    1.2023    0.7009    0.0057 C   0  0  0  0  0  0  0  0  0  0  0  0
    2.0659    1.2002    0.0245 H   0  0  0  0  0  0  0  0  0  0  0  0
  1  5  1  0
  5  8  1  0
  1  2  1  0
  1  3  1  0
  1  4  1  0
  5  6  1  0
  5  7  1  0
  8  9  1  0
  8 10  1  0
  8 11  1  0
 12 16  1  0
 16 17  2  0
 17 19  1  0
 19 21  2  0
 21 23  1  0
 23 25  2  0
 25 16  1  0
 12 13  1  0
 12 14  1  0
 12 15  1  0
 17 18  1  0
 19 20  1  0
 21 22  1  0
 23 24  1  0
 25 26  1  0
M  CHG  1   8   1
M  END
>  <PDB_ID>  (3354) 
pdb5nv9

>  <RESIDUE_NAME>  (3354) 
LYS   PHE

>  <FRAG_NAME>  (3354) 
ETAM   MBZ

>  <FRAG_ATOM_NUM>  (3354) 
fragi: 11  fragj: 15

>  <atom.prop.CHAIN_ID>  (3354) 
A A A A A A A A A A A Z Z Z Z Z Z Z Z Z Z Z Z Z Z Z

>  <atom.prop.IS_HEAVY_ATOM>  (3354) 
1 0 0 0 1 0 0 1 0 0 0 1 0 0 0 1 1 0 1 0 1 0 1 0 1 0

>  <DIFUSE_FUNC_ATOM>  (3354) 
n/a

>  <FINAL_SINGLE_POINT_ENERGY>  (3354) 
0

>  <NONCOV_INTER_ENERGY_QM>  (3354) 
0

>  <FF_Energy>  (3354) 
-1.51

>  <QM_Energy>  (3354) 
-7.7

>  <source>  (3354) 
ETAM_MBZ

>  <Index>  (3354) 
36867

$$$$
ETAM-pdb5nlt-D-LYS-141:MBZ-pdb5nlt-D-PHE-52
     RDKit          3D

 26 25  0  0  0  0  0  0  0  0999 V2000
    1.0919   -1.1690   -3.6546 C   0  0  0  0  0  0  0  0  0  0  0  0
    1.1696   -1.8831   -4.3463 H   0  0  0  0  0  0  0  0  0  0  0  0
    0.9723   -1.5793   -2.7538 H   0  0  0  0  0  0  0  0  0  0  0  0
    2.0022   -0.5695   -3.6570 H   0  0  0  0  0  0  0  0  0  0  0  0
   -0.1161   -0.3259   -3.9650 C   0  0  0  0  0  0  0  0  0  0  0  0
   -0.0476    0.5429   -3.4597 H   0  0  0  0  0  0  0  0  0  0  0  0
   -0.1252   -0.1174   -4.9507 H   0  0  0  0  0  0  0  0  0  0  0  0
   -1.3669   -1.0048   -3.5990 N   0  0  0  0  0  4  0  0  0  0  0  0
   -1.6070   -0.7892   -2.6501 H   0  0  0  0  0  0  0  0  0  0  0  0
   -2.1090   -0.7009   -4.2010 H   0  0  0  0  0  0  0  0  0  0  0  0
   -1.2559   -1.9969   -3.6917 H   0  0  0  0  0  0  0  0  0  0  0  0
   -0.0238    2.8701    0.0640 C   0  0  0  0  0  0  0  0  0  0  0  0
   -0.6878    3.2040   -0.5845 H   0  0  0  0  0  0  0  0  0  0  0  0
    0.8827    3.2002   -0.1419 H   0  0  0  0  0  0  0  0  0  0  0  0
   -0.3003    3.2474    1.0485 H   0  0  0  0  0  0  0  0  0  0  0  0
   -0.0096    1.3871    0.0013 C   0  0  0  0  0  0  0  0  0  0  0  0
   -1.2024    0.6670    0.0163 C   0  0  0  0  0  0  0  0  0  0  0  0
   -2.0704    1.1621    0.0377 H   0  0  0  0  0  0  0  0  0  0  0  0
   -1.1979   -0.7027   -0.0000 C   0  0  0  0  0  0  0  0  0  0  0  0
   -2.0558   -1.2191   -0.0032 H   0  0  0  0  0  0  0  0  0  0  0  0
    0.0267   -1.3734   -0.0098 C   0  0  0  0  0  0  0  0  0  0  0  0
    0.0257   -2.3801   -0.0253 H   0  0  0  0  0  0  0  0  0  0  0  0
    1.1979   -0.6759   -0.0000 C   0  0  0  0  0  0  0  0  0  0  0  0
    2.0932   -1.1670    0.0146 H   0  0  0  0  0  0  0  0  0  0  0  0
    1.1853    0.6978   -0.0077 C   0  0  0  0  0  0  0  0  0  0  0  0
    2.0495    1.2050   -0.0207 H   0  0  0  0  0  0  0  0  0  0  0  0
  1  5  1  0
  5  8  1  0
  1  2  1  0
  1  3  1  0
  1  4  1  0
  5  6  1  0
  5  7  1  0
  8  9  1  0
  8 10  1  0
  8 11  1  0
 12 16  1  0
 16 17  2  0
 17 19  1  0
 19 21  2  0
 21 23  1  0
 23 25  2  0
 25 16  1  0
 12 13  1  0
 12 14  1  0
 12 15  1  0
 17 18  1  0
 19 20  1  0
 21 22  1  0
 23 24  1  0
 25 26  1  0
M  CHG  1   8   1
M  END
>  <PDB_ID>  (3355) 
pdb5nlt

>  <RESIDUE_NAME>  (3355) 
LYS   PHE

>  <FRAG_NAME>  (3355) 
ETAM   MBZ

>  <FRAG_ATOM_NUM>  (3355) 
fragi: 11  fragj: 15

>  <atom.prop.CHAIN_ID>  (3355) 
A A A A A A A A A A A Z Z Z Z Z Z Z Z Z Z Z Z Z Z Z

>  <atom.prop.IS_HEAVY_ATOM>  (3355) 
1 0 0 0 1 0 0 1 0 0 0 1 0 0 0 1 1 0 1 0 1 0 1 0 1 0

>  <DIFUSE_FUNC_ATOM>  (3355) 
n/a

>  <FINAL_SINGLE_POINT_ENERGY>  (3355) 
0

>  <NONCOV_INTER_ENERGY_QM>  (3355) 
0

>  <FF_Energy>  (3355) 
-6.4

>  <QM_Energy>  (3355) 
-12.46

>  <source>  (3355) 
ETAM_MBZ

>  <Index>  (3355) 
36882

$$$$
ETAM-pdb5nxq-B-LYS-730:MBZ-pdb5nxq-B-PHE-781
     RDKit          3D

 26 25  0  0  0  0  0  0  0  0999 V2000
    4.4535    2.1754    2.7771 C   0  0  0  0  0  0  0  0  0  0  0  0
    4.1964    1.5030    3.4639 H   0  0  0  0  0  0  0  0  0  0  0  0
    3.6425    2.5585    2.3463 H   0  0  0  0  0  0  0  0  0  0  0  0
    5.0088    2.9787    3.2612 H   0  0  0  0  0  0  0  0  0  0  0  0
    5.2907    1.4917    1.7167 C   0  0  0  0  0  0  0  0  0  0  0  0
    5.5868    2.1751    1.0406 H   0  0  0  0  0  0  0  0  0  0  0  0
    6.1075    1.0938    2.1487 H   0  0  0  0  0  0  0  0  0  0  0  0
    4.5384    0.4132    1.0181 N   0  0  0  0  0  4  0  0  0  0  0  0
    4.8135    0.3863    0.0574 H   0  0  0  0  0  0  0  0  0  0  0  0
    4.7414   -0.4653    1.4500 H   0  0  0  0  0  0  0  0  0  0  0  0
    3.5582    0.5990    1.0810 H   0  0  0  0  0  0  0  0  0  0  0  0
    0.0004    2.8961   -0.0033 C   0  0  0  0  0  0  0  0  0  0  0  0
    0.8254    3.2014   -0.4541 H   0  0  0  0  0  0  0  0  0  0  0  0
   -0.0319    3.2045    0.9361 H   0  0  0  0  0  0  0  0  0  0  0  0
   -0.8485    3.3344   -0.5279 H   0  0  0  0  0  0  0  0  0  0  0  0
    0.0005    1.3949   -0.0001 C   0  0  0  0  0  0  0  0  0  0  0  0
   -1.1914    0.6894   -0.0012 C   0  0  0  0  0  0  0  0  0  0  0  0
   -2.0589    1.1813   -0.0038 H   0  0  0  0  0  0  0  0  0  0  0  0
   -1.1958   -0.6944    0.0000 C   0  0  0  0  0  0  0  0  0  0  0  0
   -2.0742   -1.1893    0.0013 H   0  0  0  0  0  0  0  0  0  0  0  0
   -0.0014   -1.3859    0.0015 C   0  0  0  0  0  0  0  0  0  0  0  0
   -0.0036   -2.3873    0.0026 H   0  0  0  0  0  0  0  0  0  0  0  0
    1.1958   -0.6933    0.0000 C   0  0  0  0  0  0  0  0  0  0  0  0
    2.0778   -1.1946    0.0005 H   0  0  0  0  0  0  0  0  0  0  0  0
    1.1922    0.6893   -0.0001 C   0  0  0  0  0  0  0  0  0  0  0  0
    2.0617    1.1878   -0.0012 H   0  0  0  0  0  0  0  0  0  0  0  0
  1  5  1  0
  5  8  1  0
  1  2  1  0
  1  3  1  0
  1  4  1  0
  5  6  1  0
  5  7  1  0
  8  9  1  0
  8 10  1  0
  8 11  1  0
 12 16  1  0
 16 17  2  0
 17 19  1  0
 19 21  2  0
 21 23  1  0
 23 25  2  0
 25 16  1  0
 12 13  1  0
 12 14  1  0
 12 15  1  0
 17 18  1  0
 19 20  1  0
 21 22  1  0
 23 24  1  0
 25 26  1  0
M  CHG  1   8   1
M  END
>  <PDB_ID>  (3356) 
pdb5nxq

>  <RESIDUE_NAME>  (3356) 
LYS   PHE

>  <FRAG_NAME>  (3356) 
ETAM   MBZ

>  <FRAG_ATOM_NUM>  (3356) 
fragi: 11  fragj: 15

>  <atom.prop.CHAIN_ID>  (3356) 
A A A A A A A A A A A Z Z Z Z Z Z Z Z Z Z Z Z Z Z Z

>  <atom.prop.IS_HEAVY_ATOM>  (3356) 
1 0 0 0 1 0 0 1 0 0 0 1 0 0 0 1 1 0 1 0 1 0 1 0 1 0

>  <DIFUSE_FUNC_ATOM>  (3356) 
n/a

>  <FINAL_SINGLE_POINT_ENERGY>  (3356) 
0

>  <NONCOV_INTER_ENERGY_QM>  (3356) 
0

>  <FF_Energy>  (3356) 
0.38

>  <QM_Energy>  (3356) 
-4.75

>  <source>  (3356) 
ETAM_MBZ

>  <Index>  (3356) 
36889

$$$$
ETAM-pdb5nz7-B-LYS-962:MBZ-pdb5nz7-B-PHE-957
     RDKit          3D

 26 25  0  0  0  0  0  0  0  0999 V2000
   -3.1204   -2.9065   -1.7047 C   0  0  0  0  0  0  0  0  0  0  0  0
   -4.0804   -3.1237   -1.8904 H   0  0  0  0  0  0  0  0  0  0  0  0
   -2.5571   -3.2036   -2.4765 H   0  0  0  0  0  0  0  0  0  0  0  0
   -3.0225   -1.8264   -1.5958 H   0  0  0  0  0  0  0  0  0  0  0  0
   -2.6849   -3.6574   -0.4688 C   0  0  0  0  0  0  0  0  0  0  0  0
   -1.7247   -3.4483   -0.2796 H   0  0  0  0  0  0  0  0  0  0  0  0
   -3.2459   -3.3688    0.3071 H   0  0  0  0  0  0  0  0  0  0  0  0
   -2.8358   -5.1213   -0.6631 N   0  0  0  0  0  4  0  0  0  0  0  0
   -3.5648   -5.2954   -1.3256 H   0  0  0  0  0  0  0  0  0  0  0  0
   -1.9766   -5.5031   -1.0038 H   0  0  0  0  0  0  0  0  0  0  0  0
   -3.0689   -5.5513    0.2097 H   0  0  0  0  0  0  0  0  0  0  0  0
   -0.0000    2.9000   -0.0132 C   0  0  0  0  0  0  0  0  0  0  0  0
    0.8467    3.2127    0.3938 H   0  0  0  0  0  0  0  0  0  0  0  0
   -0.7829    3.2109    0.5059 H   0  0  0  0  0  0  0  0  0  0  0  0
   -0.0689    3.3412   -1.0075 H   0  0  0  0  0  0  0  0  0  0  0  0
    0.0017    1.4001   -0.0060 C   0  0  0  0  0  0  0  0  0  0  0  0
   -1.1934    0.6930   -0.0037 C   0  0  0  0  0  0  0  0  0  0  0  0
   -2.0605    1.1859   -0.0058 H   0  0  0  0  0  0  0  0  0  0  0  0
   -1.2009   -0.6933    0.0000 C   0  0  0  0  0  0  0  0  0  0  0  0
   -2.0808   -1.1855   -0.0007 H   0  0  0  0  0  0  0  0  0  0  0  0
   -0.0055   -1.3926    0.0061 C   0  0  0  0  0  0  0  0  0  0  0  0
   -0.0091   -2.3902    0.0146 H   0  0  0  0  0  0  0  0  0  0  0  0
    1.2009   -0.6967    0.0000 C   0  0  0  0  0  0  0  0  0  0  0  0
    2.0794   -1.1991   -0.0056 H   0  0  0  0  0  0  0  0  0  0  0  0
    1.1971    0.6894    0.0036 C   0  0  0  0  0  0  0  0  0  0  0  0
    2.0661    1.1875    0.0128 H   0  0  0  0  0  0  0  0  0  0  0  0
  1  5  1  0
  5  8  1  0
  1  2  1  0
  1  3  1  0
  1  4  1  0
  5  6  1  0
  5  7  1  0
  8  9  1  0
  8 10  1  0
  8 11  1  0
 12 16  1  0
 16 17  2  0
 17 19  1  0
 19 21  2  0
 21 23  1  0
 23 25  2  0
 25 16  1  0
 12 13  1  0
 12 14  1  0
 12 15  1  0
 17 18  1  0
 19 20  1  0
 21 22  1  0
 23 24  1  0
 25 26  1  0
M  CHG  1   8   1
M  END
>  <PDB_ID>  (3357) 
pdb5nz7

>  <RESIDUE_NAME>  (3357) 
LYS   PHE

>  <FRAG_NAME>  (3357) 
ETAM   MBZ

>  <FRAG_ATOM_NUM>  (3357) 
fragi: 11  fragj: 15

>  <atom.prop.CHAIN_ID>  (3357) 
A A A A A A A A A A A Z Z Z Z Z Z Z Z Z Z Z Z Z Z Z

>  <atom.prop.IS_HEAVY_ATOM>  (3357) 
1 0 0 0 1 0 0 1 0 0 0 1 0 0 0 1 1 0 1 0 1 0 1 0 1 0

>  <DIFUSE_FUNC_ATOM>  (3357) 
n/a

>  <FINAL_SINGLE_POINT_ENERGY>  (3357) 
0

>  <NONCOV_INTER_ENERGY_QM>  (3357) 
0

>  <FF_Energy>  (3357) 
3.93

>  <QM_Energy>  (3357) 
-1.44

>  <source>  (3357) 
ETAM_MBZ

>  <Index>  (3357) 
36894

$$$$
ETAM-pdb5nz7-A-LYS-254:MBZ-pdb5nz7-A-PHE-257
     RDKit          3D

 26 25  0  0  0  0  0  0  0  0999 V2000
    0.6581   -2.2073   -2.9755 C   0  0  0  0  0  0  0  0  0  0  0  0
    0.0754   -2.1420   -2.1659 H   0  0  0  0  0  0  0  0  0  0  0  0
    0.1729   -2.6986   -3.6980 H   0  0  0  0  0  0  0  0  0  0  0  0
    0.8795   -1.1997   -3.3273 H   0  0  0  0  0  0  0  0  0  0  0  0
    1.9063   -2.9799   -2.6149 C   0  0  0  0  0  0  0  0  0  0  0  0
    2.6737   -2.3454   -2.5330 H   0  0  0  0  0  0  0  0  0  0  0  0
    1.7640   -3.4456   -1.7409 H   0  0  0  0  0  0  0  0  0  0  0  0
    2.2161   -3.9887   -3.6599 N   0  0  0  0  0  4  0  0  0  0  0  0
    1.9500   -3.6322   -4.5565 H   0  0  0  0  0  0  0  0  0  0  0  0
    3.1967   -4.1825   -3.6555 H   0  0  0  0  0  0  0  0  0  0  0  0
    1.7090   -4.8296   -3.4718 H   0  0  0  0  0  0  0  0  0  0  0  0
    0.0246    2.9120    0.0005 C   0  0  0  0  0  0  0  0  0  0  0  0
    0.0694    3.2141   -0.9397 H   0  0  0  0  0  0  0  0  0  0  0  0
    0.8178    3.2053    0.5115 H   0  0  0  0  0  0  0  0  0  0  0  0
   -0.8541    3.3682    0.4564 H   0  0  0  0  0  0  0  0  0  0  0  0
    0.0025    1.4032    0.0022 C   0  0  0  0  0  0  0  0  0  0  0  0
   -1.1951    0.6935   -0.0014 C   0  0  0  0  0  0  0  0  0  0  0  0
   -2.0615    1.1812   -0.0060 H   0  0  0  0  0  0  0  0  0  0  0  0
   -1.1968   -0.7009    0.0000 C   0  0  0  0  0  0  0  0  0  0  0  0
   -2.0733   -1.1945   -0.0003 H   0  0  0  0  0  0  0  0  0  0  0  0
    0.0047   -1.3953    0.0041 C   0  0  0  0  0  0  0  0  0  0  0  0
    0.0012   -2.3934    0.0095 H   0  0  0  0  0  0  0  0  0  0  0  0
    1.1968   -0.6957    0.0000 C   0  0  0  0  0  0  0  0  0  0  0  0
    2.0835   -1.1882    0.0022 H   0  0  0  0  0  0  0  0  0  0  0  0
    1.1878    0.6952   -0.0050 C   0  0  0  0  0  0  0  0  0  0  0  0
    2.0624    1.1892   -0.0145 H   0  0  0  0  0  0  0  0  0  0  0  0
  1  5  1  0
  5  8  1  0
  1  2  1  0
  1  3  1  0
  1  4  1  0
  5  6  1  0
  5  7  1  0
  8  9  1  0
  8 10  1  0
  8 11  1  0
 12 16  1  0
 16 17  2  0
 17 19  1  0
 19 21  2  0
 21 23  1  0
 23 25  2  0
 25 16  1  0
 12 13  1  0
 12 14  1  0
 12 15  1  0
 17 18  1  0
 19 20  1  0
 21 22  1  0
 23 24  1  0
 25 26  1  0
M  CHG  1   8   1
M  END
>  <PDB_ID>  (3358) 
pdb5nz7

>  <RESIDUE_NAME>  (3358) 
LYS   PHE

>  <FRAG_NAME>  (3358) 
ETAM   MBZ

>  <FRAG_ATOM_NUM>  (3358) 
fragi: 11  fragj: 15

>  <atom.prop.CHAIN_ID>  (3358) 
A A A A A A A A A A A Z Z Z Z Z Z Z Z Z Z Z Z Z Z Z

>  <atom.prop.IS_HEAVY_ATOM>  (3358) 
1 0 0 0 1 0 0 1 0 0 0 1 0 0 0 1 1 0 1 0 1 0 1 0 1 0

>  <DIFUSE_FUNC_ATOM>  (3358) 
n/a

>  <FINAL_SINGLE_POINT_ENERGY>  (3358) 
0

>  <NONCOV_INTER_ENERGY_QM>  (3358) 
0

>  <FF_Energy>  (3358) 
2.06

>  <QM_Energy>  (3358) 
-3.57

>  <source>  (3358) 
ETAM_MBZ

>  <Index>  (3358) 
36920

$$$$
ETAM-pdb5o4p-A-LYS-353:MBZ-pdb5o4p-A-PHE-378
     RDKit          3D

 26 25  0  0  0  0  0  0  0  0999 V2000
    1.9468   -0.5439    4.2705 C   0  0  0  0  0  0  0  0  0  0  0  0
    1.7512   -0.4777    5.2419 H   0  0  0  0  0  0  0  0  0  0  0  0
    2.1189    0.3552    3.8855 H   0  0  0  0  0  0  0  0  0  0  0  0
    2.8314   -1.1651    4.1297 H   0  0  0  0  0  0  0  0  0  0  0  0
    0.7436   -1.1490    3.5724 C   0  0  0  0  0  0  0  0  0  0  0  0
    1.0002   -1.3949    2.6352 H   0  0  0  0  0  0  0  0  0  0  0  0
    0.4646   -1.9781    4.0630 H   0  0  0  0  0  0  0  0  0  0  0  0
   -0.3979   -0.1971    3.5329 N   0  0  0  0  0  4  0  0  0  0  0  0
   -0.6204    0.0940    4.4632 H   0  0  0  0  0  0  0  0  0  0  0  0
   -0.1467    0.6003    2.9847 H   0  0  0  0  0  0  0  0  0  0  0  0
   -1.1916   -0.6473    3.1246 H   0  0  0  0  0  0  0  0  0  0  0  0
    0.0042    2.9011   -0.0075 C   0  0  0  0  0  0  0  0  0  0  0  0
   -0.7155    3.2067   -0.6126 H   0  0  0  0  0  0  0  0  0  0  0  0
    0.8916    3.2028   -0.3231 H   0  0  0  0  0  0  0  0  0  0  0  0
   -0.1707    3.3489    0.9707 H   0  0  0  0  0  0  0  0  0  0  0  0
   -0.0014    1.3993    0.0017 C   0  0  0  0  0  0  0  0  0  0  0  0
   -1.1970    0.6962    0.0014 C   0  0  0  0  0  0  0  0  0  0  0  0
   -2.0634    1.1842    0.0005 H   0  0  0  0  0  0  0  0  0  0  0  0
   -1.1983   -0.6952   -0.0000 C   0  0  0  0  0  0  0  0  0  0  0  0
   -2.0754   -1.1898    0.0051 H   0  0  0  0  0  0  0  0  0  0  0  0
    0.0024   -1.3893   -0.0064 C   0  0  0  0  0  0  0  0  0  0  0  0
   -0.0046   -2.3911   -0.0164 H   0  0  0  0  0  0  0  0  0  0  0  0
    1.1983   -0.6992   -0.0000 C   0  0  0  0  0  0  0  0  0  0  0  0
    2.0815   -1.1974    0.0042 H   0  0  0  0  0  0  0  0  0  0  0  0
    1.1960    0.6881    0.0033 C   0  0  0  0  0  0  0  0  0  0  0  0
    2.0634    1.1861    0.0058 H   0  0  0  0  0  0  0  0  0  0  0  0
  1  5  1  0
  5  8  1  0
  1  2  1  0
  1  3  1  0
  1  4  1  0
  5  6  1  0
  5  7  1  0
  8  9  1  0
  8 10  1  0
  8 11  1  0
 12 16  1  0
 16 17  2  0
 17 19  1  0
 19 21  2  0
 21 23  1  0
 23 25  2  0
 25 16  1  0
 12 13  1  0
 12 14  1  0
 12 15  1  0
 17 18  1  0
 19 20  1  0
 21 22  1  0
 23 24  1  0
 25 26  1  0
M  CHG  1   8   1
M  END
>  <PDB_ID>  (3359) 
pdb5o4p

>  <RESIDUE_NAME>  (3359) 
LYS   PHE

>  <FRAG_NAME>  (3359) 
ETAM   MBZ

>  <FRAG_ATOM_NUM>  (3359) 
fragi: 11  fragj: 15

>  <atom.prop.CHAIN_ID>  (3359) 
A A A A A A A A A A A Z Z Z Z Z Z Z Z Z Z Z Z Z Z Z

>  <atom.prop.IS_HEAVY_ATOM>  (3359) 
1 0 0 0 1 0 0 1 0 0 0 1 0 0 0 1 1 0 1 0 1 0 1 0 1 0

>  <DIFUSE_FUNC_ATOM>  (3359) 
n/a

>  <FINAL_SINGLE_POINT_ENERGY>  (3359) 
0

>  <NONCOV_INTER_ENERGY_QM>  (3359) 
0

>  <FF_Energy>  (3359) 
-7.68

>  <QM_Energy>  (3359) 
-13.62

>  <source>  (3359) 
ETAM_MBZ

>  <Index>  (3359) 
36929

$$$$
ETAM-pdb5o4p-B-LYS-353:MBZ-pdb5o4p-B-PHE-378
     RDKit          3D

 26 25  0  0  0  0  0  0  0  0999 V2000
    1.9060   -0.5424    4.3226 C   0  0  0  0  0  0  0  0  0  0  0  0
    1.7067   -0.5592    5.3027 H   0  0  0  0  0  0  0  0  0  0  0  0
    2.0239    0.4041    4.0222 H   0  0  0  0  0  0  0  0  0  0  0  0
    2.8331   -1.0870    4.1434 H   0  0  0  0  0  0  0  0  0  0  0  0
    0.7360   -1.1432    3.5800 C   0  0  0  0  0  0  0  0  0  0  0  0
    1.0165   -1.3633    2.6445 H   0  0  0  0  0  0  0  0  0  0  0  0
    0.4455   -1.9822    4.0433 H   0  0  0  0  0  0  0  0  0  0  0  0
   -0.4124   -0.1932    3.5325 N   0  0  0  0  0  4  0  0  0  0  0  0
   -0.5072    0.1642    2.6042 H   0  0  0  0  0  0  0  0  0  0  0  0
   -1.2487   -0.6731    3.7956 H   0  0  0  0  0  0  0  0  0  0  0  0
   -0.2442    0.5600    4.1670 H   0  0  0  0  0  0  0  0  0  0  0  0
   -0.0013    2.9046   -0.0111 C   0  0  0  0  0  0  0  0  0  0  0  0
   -0.7232    3.2074   -0.6141 H   0  0  0  0  0  0  0  0  0  0  0  0
    0.8846    3.2100   -0.3247 H   0  0  0  0  0  0  0  0  0  0  0  0
   -0.1781    3.3503    0.9678 H   0  0  0  0  0  0  0  0  0  0  0  0
   -0.0010    1.4019   -0.0002 C   0  0  0  0  0  0  0  0  0  0  0  0
   -1.1968    0.6955   -0.0052 C   0  0  0  0  0  0  0  0  0  0  0  0
   -2.0639    1.1831   -0.0136 H   0  0  0  0  0  0  0  0  0  0  0  0
   -1.1994   -0.6976   -0.0000 C   0  0  0  0  0  0  0  0  0  0  0  0
   -2.0765   -1.1911    0.0067 H   0  0  0  0  0  0  0  0  0  0  0  0
    0.0013   -1.3922   -0.0030 C   0  0  0  0  0  0  0  0  0  0  0  0
   -0.0029   -2.3918   -0.0078 H   0  0  0  0  0  0  0  0  0  0  0  0
    1.1994   -0.6969   -0.0000 C   0  0  0  0  0  0  0  0  0  0  0  0
    2.0816   -1.1961   -0.0020 H   0  0  0  0  0  0  0  0  0  0  0  0
    1.1965    0.6893    0.0084 C   0  0  0  0  0  0  0  0  0  0  0  0
    2.0648    1.1876    0.0199 H   0  0  0  0  0  0  0  0  0  0  0  0
  1  5  1  0
  5  8  1  0
  1  2  1  0
  1  3  1  0
  1  4  1  0
  5  6  1  0
  5  7  1  0
  8  9  1  0
  8 10  1  0
  8 11  1  0
 12 16  1  0
 16 17  2  0
 17 19  1  0
 19 21  2  0
 21 23  1  0
 23 25  2  0
 25 16  1  0
 12 13  1  0
 12 14  1  0
 12 15  1  0
 17 18  1  0
 19 20  1  0
 21 22  1  0
 23 24  1  0
 25 26  1  0
M  CHG  1   8   1
M  END
>  <PDB_ID>  (3360) 
pdb5o4p

>  <RESIDUE_NAME>  (3360) 
LYS   PHE

>  <FRAG_NAME>  (3360) 
ETAM   MBZ

>  <FRAG_ATOM_NUM>  (3360) 
fragi: 11  fragj: 15

>  <atom.prop.CHAIN_ID>  (3360) 
A A A A A A A A A A A Z Z Z Z Z Z Z Z Z Z Z Z Z Z Z

>  <atom.prop.IS_HEAVY_ATOM>  (3360) 
1 0 0 0 1 0 0 1 0 0 0 1 0 0 0 1 1 0 1 0 1 0 1 0 1 0

>  <DIFUSE_FUNC_ATOM>  (3360) 
n/a

>  <FINAL_SINGLE_POINT_ENERGY>  (3360) 
0

>  <NONCOV_INTER_ENERGY_QM>  (3360) 
0

>  <FF_Energy>  (3360) 
-8.14

>  <QM_Energy>  (3360) 
-14.81

>  <source>  (3360) 
ETAM_MBZ

>  <Index>  (3360) 
36931

$$$$
ETAM-pdb5o9v-A-LYS-417:MBZ-pdb5o9v-A-PHE-447
     RDKit          3D

 26 25  0  0  0  0  0  0  0  0999 V2000
   -1.3888    0.9607   -3.6145 C   0  0  0  0  0  0  0  0  0  0  0  0
   -1.0759    1.3335   -4.4810 H   0  0  0  0  0  0  0  0  0  0  0  0
   -1.0698    1.5199   -2.8582 H   0  0  0  0  0  0  0  0  0  0  0  0
   -2.4788    0.9462   -3.6096 H   0  0  0  0  0  0  0  0  0  0  0  0
   -0.8293   -0.4369   -3.4551 C   0  0  0  0  0  0  0  0  0  0  0  0
   -0.6043   -0.5909   -2.4877 H   0  0  0  0  0  0  0  0  0  0  0  0
   -1.5287   -1.1028   -3.7320 H   0  0  0  0  0  0  0  0  0  0  0  0
    0.3901   -0.6413   -4.2774 N   0  0  0  0  0  4  0  0  0  0  0  0
    1.1694   -0.1969   -3.8345 H   0  0  0  0  0  0  0  0  0  0  0  0
    0.5722   -1.6212   -4.3666 H   0  0  0  0  0  0  0  0  0  0  0  0
    0.2504   -0.2442   -5.1844 H   0  0  0  0  0  0  0  0  0  0  0  0
   -0.0032    2.8989    0.0087 C   0  0  0  0  0  0  0  0  0  0  0  0
    0.8404    3.2031    0.4264 H   0  0  0  0  0  0  0  0  0  0  0  0
   -0.7892    3.1999    0.5286 H   0  0  0  0  0  0  0  0  0  0  0  0
   -0.0662    3.3486   -0.9822 H   0  0  0  0  0  0  0  0  0  0  0  0
   -0.0008    1.3955   -0.0008 C   0  0  0  0  0  0  0  0  0  0  0  0
   -1.1912    0.6882   -0.0007 C   0  0  0  0  0  0  0  0  0  0  0  0
   -2.0605    1.1802   -0.0028 H   0  0  0  0  0  0  0  0  0  0  0  0
   -1.1952   -0.6945    0.0000 C   0  0  0  0  0  0  0  0  0  0  0  0
   -2.0738   -1.1900    0.0028 H   0  0  0  0  0  0  0  0  0  0  0  0
    0.0001   -1.3855   -0.0016 C   0  0  0  0  0  0  0  0  0  0  0  0
   -0.0029   -2.3872   -0.0044 H   0  0  0  0  0  0  0  0  0  0  0  0
    1.1952   -0.6934    0.0000 C   0  0  0  0  0  0  0  0  0  0  0  0
    2.0784   -1.1930    0.0005 H   0  0  0  0  0  0  0  0  0  0  0  0
    1.1919    0.6897    0.0031 C   0  0  0  0  0  0  0  0  0  0  0  0
    2.0605    1.1877    0.0078 H   0  0  0  0  0  0  0  0  0  0  0  0
  1  5  1  0
  5  8  1  0
  1  2  1  0
  1  3  1  0
  1  4  1  0
  5  6  1  0
  5  7  1  0
  8  9  1  0
  8 10  1  0
  8 11  1  0
 12 16  1  0
 16 17  2  0
 17 19  1  0
 19 21  2  0
 21 23  1  0
 23 25  2  0
 25 16  1  0
 12 13  1  0
 12 14  1  0
 12 15  1  0
 17 18  1  0
 19 20  1  0
 21 22  1  0
 23 24  1  0
 25 26  1  0
M  CHG  1   8   1
M  END
>  <PDB_ID>  (3361) 
pdb5o9v

>  <RESIDUE_NAME>  (3361) 
LYS   PHE

>  <FRAG_NAME>  (3361) 
ETAM   MBZ

>  <FRAG_ATOM_NUM>  (3361) 
fragi: 11  fragj: 15

>  <atom.prop.CHAIN_ID>  (3361) 
A A A A A A A A A A A Z Z Z Z Z Z Z Z Z Z Z Z Z Z Z

>  <atom.prop.IS_HEAVY_ATOM>  (3361) 
1 0 0 0 1 0 0 1 0 0 0 1 0 0 0 1 1 0 1 0 1 0 1 0 1 0

>  <DIFUSE_FUNC_ATOM>  (3361) 
n/a

>  <FINAL_SINGLE_POINT_ENERGY>  (3361) 
0

>  <NONCOV_INTER_ENERGY_QM>  (3361) 
0

>  <FF_Energy>  (3361) 
-5.13

>  <QM_Energy>  (3361) 
-10.36

>  <source>  (3361) 
ETAM_MBZ

>  <Index>  (3361) 
36986

$$$$
ETAM-pdb5nxq-A-LYS-648:MBZ-pdb5nxq-A-PHE-597
     RDKit          3D

 26 25  0  0  0  0  0  0  0  0999 V2000
   -2.8385   -1.2647    4.1841 C   0  0  0  0  0  0  0  0  0  0  0  0
   -3.1761   -1.2659    3.2496 H   0  0  0  0  0  0  0  0  0  0  0  0
   -3.0232   -0.3913    4.6199 H   0  0  0  0  0  0  0  0  0  0  0  0
   -3.3437   -2.0527    4.7424 H   0  0  0  0  0  0  0  0  0  0  0  0
   -1.3339   -1.4843    4.1572 C   0  0  0  0  0  0  0  0  0  0  0  0
   -0.9985   -1.5564    5.1053 H   0  0  0  0  0  0  0  0  0  0  0  0
   -1.1403   -2.3565    3.6899 H   0  0  0  0  0  0  0  0  0  0  0  0
   -0.5990   -0.3896    3.4641 N   0  0  0  0  0  4  0  0  0  0  0  0
   -0.2925    0.2813    4.1380 H   0  0  0  0  0  0  0  0  0  0  0  0
    0.1921   -0.7718    2.9882 H   0  0  0  0  0  0  0  0  0  0  0  0
   -1.2070    0.0513    2.8042 H   0  0  0  0  0  0  0  0  0  0  0  0
    0.0010    2.8986    0.0073 C   0  0  0  0  0  0  0  0  0  0  0  0
    0.8671    3.2002    0.3814 H   0  0  0  0  0  0  0  0  0  0  0  0
   -0.7544    3.2002    0.5733 H   0  0  0  0  0  0  0  0  0  0  0  0
   -0.1150    3.3570   -0.9747 H   0  0  0  0  0  0  0  0  0  0  0  0
   -0.0005    1.3959   -0.0074 C   0  0  0  0  0  0  0  0  0  0  0  0
   -1.1908    0.6879    0.0055 C   0  0  0  0  0  0  0  0  0  0  0  0
   -2.0600    1.1788    0.0175 H   0  0  0  0  0  0  0  0  0  0  0  0
   -1.1941   -0.6949    0.0000 C   0  0  0  0  0  0  0  0  0  0  0  0
   -2.0733   -1.1902   -0.0028 H   0  0  0  0  0  0  0  0  0  0  0  0
   -0.0001   -1.3859    0.0003 C   0  0  0  0  0  0  0  0  0  0  0  0
   -0.0025   -2.3877    0.0007 H   0  0  0  0  0  0  0  0  0  0  0  0
    1.1941   -0.6927   -0.0000 C   0  0  0  0  0  0  0  0  0  0  0  0
    2.0779   -1.1930    0.0003 H   0  0  0  0  0  0  0  0  0  0  0  0
    1.1914    0.6898    0.0015 C   0  0  0  0  0  0  0  0  0  0  0  0
    2.0611    1.1877    0.0081 H   0  0  0  0  0  0  0  0  0  0  0  0
  1  5  1  0
  5  8  1  0
  1  2  1  0
  1  3  1  0
  1  4  1  0
  5  6  1  0
  5  7  1  0
  8  9  1  0
  8 10  1  0
  8 11  1  0
 12 16  1  0
 16 17  2  0
 17 19  1  0
 19 21  2  0
 21 23  1  0
 23 25  2  0
 25 16  1  0
 12 13  1  0
 12 14  1  0
 12 15  1  0
 17 18  1  0
 19 20  1  0
 21 22  1  0
 23 24  1  0
 25 26  1  0
M  CHG  1   8   1
M  END
>  <PDB_ID>  (3362) 
pdb5nxq

>  <RESIDUE_NAME>  (3362) 
LYS   PHE

>  <FRAG_NAME>  (3362) 
ETAM   MBZ

>  <FRAG_ATOM_NUM>  (3362) 
fragi: 11  fragj: 15

>  <atom.prop.CHAIN_ID>  (3362) 
A A A A A A A A A A A Z Z Z Z Z Z Z Z Z Z Z Z Z Z Z

>  <atom.prop.IS_HEAVY_ATOM>  (3362) 
1 0 0 0 1 0 0 1 0 0 0 1 0 0 0 1 1 0 1 0 1 0 1 0 1 0

>  <DIFUSE_FUNC_ATOM>  (3362) 
n/a

>  <FINAL_SINGLE_POINT_ENERGY>  (3362) 
0

>  <NONCOV_INTER_ENERGY_QM>  (3362) 
0

>  <FF_Energy>  (3362) 
-7.6

>  <QM_Energy>  (3362) 
-13.91

>  <source>  (3362) 
ETAM_MBZ

>  <Index>  (3362) 
36995

$$$$
ETAM-pdb5od2-A-LYS-221:MBZ-pdb5od2-A-PHE-218
     RDKit          3D

 26 25  0  0  0  0  0  0  0  0999 V2000
   -4.5707    2.2287    0.4324 C   0  0  0  0  0  0  0  0  0  0  0  0
   -3.5834    2.1008    0.5067 H   0  0  0  0  0  0  0  0  0  0  0  0
   -4.9983    2.0882    1.3228 H   0  0  0  0  0  0  0  0  0  0  0  0
   -4.7659    3.2512    0.1088 H   0  0  0  0  0  0  0  0  0  0  0  0
   -5.1235    1.2054   -0.5399 C   0  0  0  0  0  0  0  0  0  0  0  0
   -6.1111    1.3278   -0.6157 H   0  0  0  0  0  0  0  0  0  0  0  0
   -4.6976    1.3398   -1.4327 H   0  0  0  0  0  0  0  0  0  0  0  0
   -4.8345   -0.1713   -0.0613 N   0  0  0  0  0  4  0  0  0  0  0  0
   -5.1860   -0.8340   -0.7216 H   0  0  0  0  0  0  0  0  0  0  0  0
   -3.8468   -0.2889    0.0367 H   0  0  0  0  0  0  0  0  0  0  0  0
   -5.2768   -0.3144    0.8244 H   0  0  0  0  0  0  0  0  0  0  0  0
    0.0074    2.9199   -0.0071 C   0  0  0  0  0  0  0  0  0  0  0  0
    0.9097    3.2190    0.2657 H   0  0  0  0  0  0  0  0  0  0  0  0
   -0.6825    3.2288    0.6300 H   0  0  0  0  0  0  0  0  0  0  0  0
   -0.2129    3.3575   -0.9808 H   0  0  0  0  0  0  0  0  0  0  0  0
    0.0003    1.4081    0.0024 C   0  0  0  0  0  0  0  0  0  0  0  0
   -1.1998    0.7116    0.0016 C   0  0  0  0  0  0  0  0  0  0  0  0
   -2.0639    1.1978    0.0003 H   0  0  0  0  0  0  0  0  0  0  0  0
   -1.2069   -0.6913    0.0000 C   0  0  0  0  0  0  0  0  0  0  0  0
   -2.0867   -1.1767   -0.0007 H   0  0  0  0  0  0  0  0  0  0  0  0
   -0.0082   -1.3945    0.0018 C   0  0  0  0  0  0  0  0  0  0  0  0
   -0.0207   -2.3962    0.0042 H   0  0  0  0  0  0  0  0  0  0  0  0
    1.2069   -0.7150   -0.0000 C   0  0  0  0  0  0  0  0  0  0  0  0
    2.0784   -1.2168    0.0043 H   0  0  0  0  0  0  0  0  0  0  0  0
    1.2077    0.6810   -0.0058 C   0  0  0  0  0  0  0  0  0  0  0  0
    2.0736    1.1768   -0.0170 H   0  0  0  0  0  0  0  0  0  0  0  0
  1  5  1  0
  5  8  1  0
  1  2  1  0
  1  3  1  0
  1  4  1  0
  5  6  1  0
  5  7  1  0
  8  9  1  0
  8 10  1  0
  8 11  1  0
 12 16  1  0
 16 17  2  0
 17 19  1  0
 19 21  2  0
 21 23  1  0
 23 25  2  0
 25 16  1  0
 12 13  1  0
 12 14  1  0
 12 15  1  0
 17 18  1  0
 19 20  1  0
 21 22  1  0
 23 24  1  0
 25 26  1  0
M  CHG  1   8   1
M  END
>  <PDB_ID>  (3363) 
pdb5od2

>  <RESIDUE_NAME>  (3363) 
LYS   PHE

>  <FRAG_NAME>  (3363) 
ETAM   MBZ

>  <FRAG_ATOM_NUM>  (3363) 
fragi: 11  fragj: 15

>  <atom.prop.CHAIN_ID>  (3363) 
A A A A A A A A A A A Z Z Z Z Z Z Z Z Z Z Z Z Z Z Z

>  <atom.prop.IS_HEAVY_ATOM>  (3363) 
1 0 0 0 1 0 0 1 0 0 0 1 0 0 0 1 1 0 1 0 1 0 1 0 1 0

>  <DIFUSE_FUNC_ATOM>  (3363) 
n/a

>  <FINAL_SINGLE_POINT_ENERGY>  (3363) 
0

>  <NONCOV_INTER_ENERGY_QM>  (3363) 
0

>  <FF_Energy>  (3363) 
3.13

>  <QM_Energy>  (3363) 
-2.83

>  <source>  (3363) 
ETAM_MBZ

>  <Index>  (3363) 
37010

$$$$
ETAM-pdb5nxq-B-LYS-648:MBZ-pdb5nxq-B-PHE-597
     RDKit          3D

 26 25  0  0  0  0  0  0  0  0999 V2000
   -2.5905   -0.8860    3.7850 C   0  0  0  0  0  0  0  0  0  0  0  0
   -2.8755   -0.8499    2.8266 H   0  0  0  0  0  0  0  0  0  0  0  0
   -2.7528    0.0033    4.2139 H   0  0  0  0  0  0  0  0  0  0  0  0
   -3.1847   -1.6407    4.3003 H   0  0  0  0  0  0  0  0  0  0  0  0
   -1.1034   -1.1793    3.8345 C   0  0  0  0  0  0  0  0  0  0  0  0
   -0.8180   -1.2623    4.7920 H   0  0  0  0  0  0  0  0  0  0  0  0
   -0.9248   -2.0476    3.3652 H   0  0  0  0  0  0  0  0  0  0  0  0
   -0.3093   -0.1016    3.1815 N   0  0  0  0  0  4  0  0  0  0  0  0
   -0.5719   -0.0337    2.2191 H   0  0  0  0  0  0  0  0  0  0  0  0
   -0.4901    0.7670    3.6406 H   0  0  0  0  0  0  0  0  0  0  0  0
    0.6634   -0.3197    3.2489 H   0  0  0  0  0  0  0  0  0  0  0  0
    0.0052    2.8989    0.0109 C   0  0  0  0  0  0  0  0  0  0  0  0
    0.8665    3.1971    0.4005 H   0  0  0  0  0  0  0  0  0  0  0  0
   -0.7575    3.2007    0.5691 H   0  0  0  0  0  0  0  0  0  0  0  0
   -0.0958    3.3635   -0.9699 H   0  0  0  0  0  0  0  0  0  0  0  0
    0.0007    1.3958   -0.0065 C   0  0  0  0  0  0  0  0  0  0  0  0
   -1.1921    0.6888    0.0028 C   0  0  0  0  0  0  0  0  0  0  0  0
   -2.0596    1.1804    0.0105 H   0  0  0  0  0  0  0  0  0  0  0  0
   -1.1955   -0.6942    0.0000 C   0  0  0  0  0  0  0  0  0  0  0  0
   -2.0745   -1.1896   -0.0014 H   0  0  0  0  0  0  0  0  0  0  0  0
   -0.0003   -1.3864    0.0011 C   0  0  0  0  0  0  0  0  0  0  0  0
   -0.0034   -2.3876    0.0024 H   0  0  0  0  0  0  0  0  0  0  0  0
    1.1955   -0.6938   -0.0000 C   0  0  0  0  0  0  0  0  0  0  0  0
    2.0780   -1.1933   -0.0007 H   0  0  0  0  0  0  0  0  0  0  0  0
    1.1917    0.6899    0.0026 C   0  0  0  0  0  0  0  0  0  0  0  0
    2.0615    1.1873    0.0109 H   0  0  0  0  0  0  0  0  0  0  0  0
  1  5  1  0
  5  8  1  0
  1  2  1  0
  1  3  1  0
  1  4  1  0
  5  6  1  0
  5  7  1  0
  8  9  1  0
  8 10  1  0
  8 11  1  0
 12 16  1  0
 16 17  2  0
 17 19  1  0
 19 21  2  0
 21 23  1  0
 23 25  2  0
 25 16  1  0
 12 13  1  0
 12 14  1  0
 12 15  1  0
 17 18  1  0
 19 20  1  0
 21 22  1  0
 23 24  1  0
 25 26  1  0
M  CHG  1   8   1
M  END
>  <PDB_ID>  (3364) 
pdb5nxq

>  <RESIDUE_NAME>  (3364) 
LYS   PHE

>  <FRAG_NAME>  (3364) 
ETAM   MBZ

>  <FRAG_ATOM_NUM>  (3364) 
fragi: 11  fragj: 15

>  <atom.prop.CHAIN_ID>  (3364) 
A A A A A A A A A A A Z Z Z Z Z Z Z Z Z Z Z Z Z Z Z

>  <atom.prop.IS_HEAVY_ATOM>  (3364) 
1 0 0 0 1 0 0 1 0 0 0 1 0 0 0 1 1 0 1 0 1 0 1 0 1 0

>  <DIFUSE_FUNC_ATOM>  (3364) 
n/a

>  <FINAL_SINGLE_POINT_ENERGY>  (3364) 
0

>  <NONCOV_INTER_ENERGY_QM>  (3364) 
0

>  <FF_Energy>  (3364) 
-9.91

>  <QM_Energy>  (3364) 
-17.86

>  <source>  (3364) 
ETAM_MBZ

>  <Index>  (3364) 
37076

$$$$
ETAM-pdb5ojg-A-LYS-129:MBZ-pdb5ojg-A-PHE-125
     RDKit          3D

 26 25  0  0  0  0  0  0  0  0999 V2000
   -0.3653   -1.9898    3.7797 C   0  0  0  0  0  0  0  0  0  0  0  0
   -0.1631   -2.4996    4.6002 H   0  0  0  0  0  0  0  0  0  0  0  0
   -0.5223   -2.5865    3.0098 H   0  0  0  0  0  0  0  0  0  0  0  0
   -1.2608   -1.3920    3.9499 H   0  0  0  0  0  0  0  0  0  0  0  0
    0.8151   -1.0800    3.4639 C   0  0  0  0  0  0  0  0  0  0  0  0
    0.5756   -0.5031    2.6864 H   0  0  0  0  0  0  0  0  0  0  0  0
    1.0049   -0.5127    4.2616 H   0  0  0  0  0  0  0  0  0  0  0  0
    2.0027   -1.8896    3.1355 N   0  0  0  0  0  4  0  0  0  0  0  0
    2.8256   -1.3202    3.1885 H   0  0  0  0  0  0  0  0  0  0  0  0
    2.0858   -2.6483    3.7847 H   0  0  0  0  0  0  0  0  0  0  0  0
    1.9156   -2.2580    2.2080 H   0  0  0  0  0  0  0  0  0  0  0  0
    0.0160    2.8859   -0.0394 C   0  0  0  0  0  0  0  0  0  0  0  0
   -0.3116    3.1720   -0.9321 H   0  0  0  0  0  0  0  0  0  0  0  0
    0.9531    3.1830    0.1016 H   0  0  0  0  0  0  0  0  0  0  0  0
   -0.6078    3.3598    0.7186 H   0  0  0  0  0  0  0  0  0  0  0  0
    0.0041    1.3821   -0.0081 C   0  0  0  0  0  0  0  0  0  0  0  0
   -1.1671    0.6722   -0.0328 C   0  0  0  0  0  0  0  0  0  0  0  0
   -2.0455    1.1653   -0.0773 H   0  0  0  0  0  0  0  0  0  0  0  0
   -1.1790   -0.6993    0.0000 C   0  0  0  0  0  0  0  0  0  0  0  0
   -2.0610   -1.1919    0.0052 H   0  0  0  0  0  0  0  0  0  0  0  0
    0.0022   -1.3785    0.0266 C   0  0  0  0  0  0  0  0  0  0  0  0
    0.0061   -2.3825    0.0658 H   0  0  0  0  0  0  0  0  0  0  0  0
    1.1790   -0.6838   -0.0000 C   0  0  0  0  0  0  0  0  0  0  0  0
    2.0718   -1.1656   -0.0290 H   0  0  0  0  0  0  0  0  0  0  0  0
    1.1608    0.7074    0.0142 C   0  0  0  0  0  0  0  0  0  0  0  0
    2.0453    1.1948    0.0412 H   0  0  0  0  0  0  0  0  0  0  0  0
  1  5  1  0
  5  8  1  0
  1  2  1  0
  1  3  1  0
  1  4  1  0
  5  6  1  0
  5  7  1  0
  8  9  1  0
  8 10  1  0
  8 11  1  0
 12 16  1  0
 16 17  2  0
 17 19  1  0
 19 21  2  0
 21 23  1  0
 23 25  2  0
 25 16  1  0
 12 13  1  0
 12 14  1  0
 12 15  1  0
 17 18  1  0
 19 20  1  0
 21 22  1  0
 23 24  1  0
 25 26  1  0
M  CHG  1   8   1
M  END
>  <PDB_ID>  (3365) 
pdb5ojg

>  <RESIDUE_NAME>  (3365) 
LYS   PHE

>  <FRAG_NAME>  (3365) 
ETAM   MBZ

>  <FRAG_ATOM_NUM>  (3365) 
fragi: 11  fragj: 15

>  <atom.prop.CHAIN_ID>  (3365) 
A A A A A A A A A A A Z Z Z Z Z Z Z Z Z Z Z Z Z Z Z

>  <atom.prop.IS_HEAVY_ATOM>  (3365) 
1 0 0 0 1 0 0 1 0 0 0 1 0 0 0 1 1 0 1 0 1 0 1 0 1 0

>  <DIFUSE_FUNC_ATOM>  (3365) 
n/a

>  <FINAL_SINGLE_POINT_ENERGY>  (3365) 
0

>  <NONCOV_INTER_ENERGY_QM>  (3365) 
0

>  <FF_Energy>  (3365) 
-4.16

>  <QM_Energy>  (3365) 
-10.82

>  <source>  (3365) 
ETAM_MBZ

>  <Index>  (3365) 
37082

$$$$
ETAM-pdb7odc-A-LYS-185:MBZ-pdb7odc-A-PHE-227
     RDKit          3D

 26 25  0  0  0  0  0  0  0  0999 V2000
   -0.7224   -2.2386   -3.9259 C   0  0  0  0  0  0  0  0  0  0  0  0
   -1.4518   -2.3708   -4.6231 H   0  0  0  0  0  0  0  0  0  0  0  0
   -1.0439   -2.6946   -3.0754 H   0  0  0  0  0  0  0  0  0  0  0  0
    0.1895   -2.7273   -4.2689 H   0  0  0  0  0  0  0  0  0  0  0  0
   -0.6155   -0.7525   -3.6424 C   0  0  0  0  0  0  0  0  0  0  0  0
   -0.3336   -0.6177   -2.7024 H   0  0  0  0  0  0  0  0  0  0  0  0
    0.0340   -0.3452   -4.2693 H   0  0  0  0  0  0  0  0  0  0  0  0
   -1.9553   -0.1310   -3.8484 N   0  0  0  0  0  4  0  0  0  0  0  0
   -2.2683    0.2713   -2.9892 H   0  0  0  0  0  0  0  0  0  0  0  0
   -1.8852    0.5798   -4.5470 H   0  0  0  0  0  0  0  0  0  0  0  0
   -2.6018   -0.8317   -4.1468 H   0  0  0  0  0  0  0  0  0  0  0  0
   -0.0455    2.8961    0.0569 C   0  0  0  0  0  0  0  0  0  0  0  0
    0.8860    3.2260    0.1143 H   0  0  0  0  0  0  0  0  0  0  0  0
   -0.5696    3.1645    0.8527 H   0  0  0  0  0  0  0  0  0  0  0  0
   -0.5058    3.3657   -0.8123 H   0  0  0  0  0  0  0  0  0  0  0  0
   -0.0094    1.3945    0.0040 C   0  0  0  0  0  0  0  0  0  0  0  0
   -1.1876    0.6722    0.0139 C   0  0  0  0  0  0  0  0  0  0  0  0
   -2.0661    1.1592    0.0306 H   0  0  0  0  0  0  0  0  0  0  0  0
   -1.1931   -0.7121    0.0000 C   0  0  0  0  0  0  0  0  0  0  0  0
   -2.0612   -1.2112   -0.0023 H   0  0  0  0  0  0  0  0  0  0  0  0
    0.0149   -1.3852   -0.0087 C   0  0  0  0  0  0  0  0  0  0  0  0
    0.0238   -2.3878   -0.0217 H   0  0  0  0  0  0  0  0  0  0  0  0
    1.1931   -0.6767   -0.0000 C   0  0  0  0  0  0  0  0  0  0  0  0
    2.0875   -1.1660    0.0149 H   0  0  0  0  0  0  0  0  0  0  0  0
    1.1821    0.7073   -0.0092 C   0  0  0  0  0  0  0  0  0  0  0  0
    2.0492    1.2074   -0.0261 H   0  0  0  0  0  0  0  0  0  0  0  0
  1  5  1  0
  5  8  1  0
  1  2  1  0
  1  3  1  0
  1  4  1  0
  5  6  1  0
  5  7  1  0
  8  9  1  0
  8 10  1  0
  8 11  1  0
 12 16  1  0
 16 17  2  0
 17 19  1  0
 19 21  2  0
 21 23  1  0
 23 25  2  0
 25 16  1  0
 12 13  1  0
 12 14  1  0
 12 15  1  0
 17 18  1  0
 19 20  1  0
 21 22  1  0
 23 24  1  0
 25 26  1  0
M  CHG  1   8   1
M  END
>  <PDB_ID>  (3366) 
pdb7odc

>  <RESIDUE_NAME>  (3366) 
LYS   PHE

>  <FRAG_NAME>  (3366) 
ETAM   MBZ

>  <FRAG_ATOM_NUM>  (3366) 
fragi: 11  fragj: 15

>  <atom.prop.CHAIN_ID>  (3366) 
A A A A A A A A A A A Z Z Z Z Z Z Z Z Z Z Z Z Z Z Z

>  <atom.prop.IS_HEAVY_ATOM>  (3366) 
1 0 0 0 1 0 0 1 0 0 0 1 0 0 0 1 1 0 1 0 1 0 1 0 1 0

>  <DIFUSE_FUNC_ATOM>  (3366) 
n/a

>  <FINAL_SINGLE_POINT_ENERGY>  (3366) 
0

>  <NONCOV_INTER_ENERGY_QM>  (3366) 
0

>  <FF_Energy>  (3366) 
-5.29

>  <QM_Energy>  (3366) 
-10.58

>  <source>  (3366) 
ETAM_MBZ

>  <Index>  (3366) 
37102

$$$$
ETAM-pdb5olk-C-LYS-160:MBZ-pdb5olk-C-PHE-147
     RDKit          3D

 26 25  0  0  0  0  0  0  0  0999 V2000
   -0.5982   -4.5887    2.2671 C   0  0  0  0  0  0  0  0  0  0  0  0
   -1.3125   -4.8681    2.9199 H   0  0  0  0  0  0  0  0  0  0  0  0
    0.0194   -5.3703    2.1184 H   0  0  0  0  0  0  0  0  0  0  0  0
   -1.0785   -4.3476    1.3188 H   0  0  0  0  0  0  0  0  0  0  0  0
    0.2014   -3.4515    2.8835 C   0  0  0  0  0  0  0  0  0  0  0  0
   -0.3279   -2.5997    2.8026 H   0  0  0  0  0  0  0  0  0  0  0  0
    0.3447   -3.6455    3.8601 H   0  0  0  0  0  0  0  0  0  0  0  0
    1.5291   -3.2621    2.2268 N   0  0  0  0  0  4  0  0  0  0  0  0
    2.1466   -3.9922    2.5163 H   0  0  0  0  0  0  0  0  0  0  0  0
    1.4136   -3.2924    1.2350 H   0  0  0  0  0  0  0  0  0  0  0  0
    1.9057   -2.3769    2.4945 H   0  0  0  0  0  0  0  0  0  0  0  0
    0.0040    2.9096   -0.0318 C   0  0  0  0  0  0  0  0  0  0  0  0
   -0.4418    3.1851   -0.8838 H   0  0  0  0  0  0  0  0  0  0  0  0
    0.9587    3.2103   -0.0444 H   0  0  0  0  0  0  0  0  0  0  0  0
   -0.4956    3.4280    0.7865 H   0  0  0  0  0  0  0  0  0  0  0  0
    0.0002    1.4041    0.0192 C   0  0  0  0  0  0  0  0  0  0  0  0
   -1.1970    0.6923   -0.0077 C   0  0  0  0  0  0  0  0  0  0  0  0
   -2.0633    1.1778   -0.0341 H   0  0  0  0  0  0  0  0  0  0  0  0
   -1.1950   -0.7019   -0.0000 C   0  0  0  0  0  0  0  0  0  0  0  0
   -2.0727   -1.1954    0.0186 H   0  0  0  0  0  0  0  0  0  0  0  0
    0.0013   -1.3851   -0.0165 C   0  0  0  0  0  0  0  0  0  0  0  0
   -0.0032   -2.3924   -0.0411 H   0  0  0  0  0  0  0  0  0  0  0  0
    1.1950   -0.7019    0.0000 C   0  0  0  0  0  0  0  0  0  0  0  0
    2.0788   -1.1974    0.0103 H   0  0  0  0  0  0  0  0  0  0  0  0
    1.1956    0.6925    0.0050 C   0  0  0  0  0  0  0  0  0  0  0  0
    2.0651    1.1843   -0.0028 H   0  0  0  0  0  0  0  0  0  0  0  0
  1  5  1  0
  5  8  1  0
  1  2  1  0
  1  3  1  0
  1  4  1  0
  5  6  1  0
  5  7  1  0
  8  9  1  0
  8 10  1  0
  8 11  1  0
 12 16  1  0
 16 17  2  0
 17 19  1  0
 19 21  2  0
 21 23  1  0
 23 25  2  0
 25 16  1  0
 12 13  1  0
 12 14  1  0
 12 15  1  0
 17 18  1  0
 19 20  1  0
 21 22  1  0
 23 24  1  0
 25 26  1  0
M  CHG  1   8   1
M  END
>  <PDB_ID>  (3367) 
pdb5olk

>  <RESIDUE_NAME>  (3367) 
LYS   PHE

>  <FRAG_NAME>  (3367) 
ETAM   MBZ

>  <FRAG_ATOM_NUM>  (3367) 
fragi: 11  fragj: 15

>  <atom.prop.CHAIN_ID>  (3367) 
A A A A A A A A A A A Z Z Z Z Z Z Z Z Z Z Z Z Z Z Z

>  <atom.prop.IS_HEAVY_ATOM>  (3367) 
1 0 0 0 1 0 0 1 0 0 0 1 0 0 0 1 1 0 1 0 1 0 1 0 1 0

>  <DIFUSE_FUNC_ATOM>  (3367) 
n/a

>  <FINAL_SINGLE_POINT_ENERGY>  (3367) 
0

>  <NONCOV_INTER_ENERGY_QM>  (3367) 
0

>  <FF_Energy>  (3367) 
-1.35

>  <QM_Energy>  (3367) 
-8.25

>  <source>  (3367) 
ETAM_MBZ

>  <Index>  (3367) 
37109

$$$$
ETAM-pdb5nj5-C-LYS-456:MBZ-pdb5nj5-C-PHE-273
     RDKit          3D

 26 25  0  0  0  0  0  0  0  0999 V2000
    2.0672   -3.9722   -3.0825 C   0  0  0  0  0  0  0  0  0  0  0  0
    2.8617   -3.8858   -2.4800 H   0  0  0  0  0  0  0  0  0  0  0  0
    2.3770   -4.1868   -4.0102 H   0  0  0  0  0  0  0  0  0  0  0  0
    1.4469   -4.7935   -2.7238 H   0  0  0  0  0  0  0  0  0  0  0  0
    1.3321   -2.6527   -3.1094 C   0  0  0  0  0  0  0  0  0  0  0  0
    0.6206   -2.6863   -3.8140 H   0  0  0  0  0  0  0  0  0  0  0  0
    0.9023   -2.4971   -2.2176 H   0  0  0  0  0  0  0  0  0  0  0  0
    2.2573   -1.5276   -3.4063 N   0  0  0  0  0  4  0  0  0  0  0  0
    2.3412   -1.4189   -4.3969 H   0  0  0  0  0  0  0  0  0  0  0  0
    1.8951   -0.6851   -3.0067 H   0  0  0  0  0  0  0  0  0  0  0  0
    3.1560   -1.7238   -3.0139 H   0  0  0  0  0  0  0  0  0  0  0  0
    0.0282    2.9166    0.0560 C   0  0  0  0  0  0  0  0  0  0  0  0
    0.9725    3.2121   -0.0223 H   0  0  0  0  0  0  0  0  0  0  0  0
   -0.3526    3.1864    0.9321 H   0  0  0  0  0  0  0  0  0  0  0  0
   -0.5426    3.4241   -0.7217 H   0  0  0  0  0  0  0  0  0  0  0  0
    0.0081    1.4068   -0.0130 C   0  0  0  0  0  0  0  0  0  0  0  0
   -1.2007    0.6951    0.0266 C   0  0  0  0  0  0  0  0  0  0  0  0
   -2.0600    1.1899    0.0723 H   0  0  0  0  0  0  0  0  0  0  0  0
   -1.2084   -0.6969    0.0000 C   0  0  0  0  0  0  0  0  0  0  0  0
   -2.0851   -1.1877   -0.0165 H   0  0  0  0  0  0  0  0  0  0  0  0
   -0.0074   -1.3961   -0.0017 C   0  0  0  0  0  0  0  0  0  0  0  0
   -0.0100   -2.3937   -0.0045 H   0  0  0  0  0  0  0  0  0  0  0  0
    1.2084   -0.7005    0.0000 C   0  0  0  0  0  0  0  0  0  0  0  0
    2.0814   -1.2010    0.0116 H   0  0  0  0  0  0  0  0  0  0  0  0
    1.2001    0.6916   -0.0119 C   0  0  0  0  0  0  0  0  0  0  0  0
    2.0722    1.1873   -0.0205 H   0  0  0  0  0  0  0  0  0  0  0  0
  1  5  1  0
  5  8  1  0
  1  2  1  0
  1  3  1  0
  1  4  1  0
  5  6  1  0
  5  7  1  0
  8  9  1  0
  8 10  1  0
  8 11  1  0
 12 16  1  0
 16 17  2  0
 17 19  1  0
 19 21  2  0
 21 23  1  0
 23 25  2  0
 25 16  1  0
 12 13  1  0
 12 14  1  0
 12 15  1  0
 17 18  1  0
 19 20  1  0
 21 22  1  0
 23 24  1  0
 25 26  1  0
M  CHG  1   8   1
M  END
>  <PDB_ID>  (3368) 
pdb5nj5

>  <RESIDUE_NAME>  (3368) 
LYS   PHE

>  <FRAG_NAME>  (3368) 
ETAM   MBZ

>  <FRAG_ATOM_NUM>  (3368) 
fragi: 11  fragj: 15

>  <atom.prop.CHAIN_ID>  (3368) 
A A A A A A A A A A A Z Z Z Z Z Z Z Z Z Z Z Z Z Z Z

>  <atom.prop.IS_HEAVY_ATOM>  (3368) 
1 0 0 0 1 0 0 1 0 0 0 1 0 0 0 1 1 0 1 0 1 0 1 0 1 0

>  <DIFUSE_FUNC_ATOM>  (3368) 
n/a

>  <FINAL_SINGLE_POINT_ENERGY>  (3368) 
0

>  <NONCOV_INTER_ENERGY_QM>  (3368) 
0

>  <FF_Energy>  (3368) 
-3.33

>  <QM_Energy>  (3368) 
-8.85

>  <source>  (3368) 
ETAM_MBZ

>  <Index>  (3368) 
37115

$$$$
ETAM-pdb5nxq-C-LYS-648:MBZ-pdb5nxq-C-PHE-597
     RDKit          3D

 26 25  0  0  0  0  0  0  0  0999 V2000
    3.3938   -1.4559   -4.3274 C   0  0  0  0  0  0  0  0  0  0  0  0
    3.7391   -1.5268   -3.3964 H   0  0  0  0  0  0  0  0  0  0  0  0
    3.6293   -0.5703   -4.7163 H   0  0  0  0  0  0  0  0  0  0  0  0
    3.8512   -2.2390   -4.9321 H   0  0  0  0  0  0  0  0  0  0  0  0
    1.8840   -1.5886   -4.2983 C   0  0  0  0  0  0  0  0  0  0  0  0
    1.5366   -1.5797   -5.2446 H   0  0  0  0  0  0  0  0  0  0  0  0
    1.6412   -2.4738   -3.8831 H   0  0  0  0  0  0  0  0  0  0  0  0
    1.2257   -0.4972   -3.5306 N   0  0  0  0  0  4  0  0  0  0  0  0
    1.6400    0.3784   -3.7771 H   0  0  0  0  0  0  0  0  0  0  0  0
    0.2502   -0.4798   -3.7492 H   0  0  0  0  0  0  0  0  0  0  0  0
    1.3463   -0.6602   -2.5516 H   0  0  0  0  0  0  0  0  0  0  0  0
   -0.0014    2.8960   -0.0034 C   0  0  0  0  0  0  0  0  0  0  0  0
   -0.8557    3.1998   -0.4024 H   0  0  0  0  0  0  0  0  0  0  0  0
    0.7714    3.2016   -0.5429 H   0  0  0  0  0  0  0  0  0  0  0  0
    0.0839    3.3460    0.9857 H   0  0  0  0  0  0  0  0  0  0  0  0
    0.0001    1.3946    0.0020 C   0  0  0  0  0  0  0  0  0  0  0  0
   -1.1919    0.6893   -0.0004 C   0  0  0  0  0  0  0  0  0  0  0  0
   -2.0601    1.1813   -0.0039 H   0  0  0  0  0  0  0  0  0  0  0  0
   -1.1944   -0.6925   -0.0000 C   0  0  0  0  0  0  0  0  0  0  0  0
   -2.0729   -1.1895    0.0030 H   0  0  0  0  0  0  0  0  0  0  0  0
    0.0007   -1.3847   -0.0016 C   0  0  0  0  0  0  0  0  0  0  0  0
   -0.0037   -2.3864   -0.0041 H   0  0  0  0  0  0  0  0  0  0  0  0
    1.1944   -0.6938   -0.0000 C   0  0  0  0  0  0  0  0  0  0  0  0
    2.0775   -1.1943    0.0026 H   0  0  0  0  0  0  0  0  0  0  0  0
    1.1911    0.6871   -0.0000 C   0  0  0  0  0  0  0  0  0  0  0  0
    2.0613    1.1861   -0.0019 H   0  0  0  0  0  0  0  0  0  0  0  0
  1  5  1  0
  5  8  1  0
  1  2  1  0
  1  3  1  0
  1  4  1  0
  5  6  1  0
  5  7  1  0
  8  9  1  0
  8 10  1  0
  8 11  1  0
 12 16  1  0
 16 17  2  0
 17 19  1  0
 19 21  2  0
 21 23  1  0
 23 25  2  0
 25 16  1  0
 12 13  1  0
 12 14  1  0
 12 15  1  0
 17 18  1  0
 19 20  1  0
 21 22  1  0
 23 24  1  0
 25 26  1  0
M  CHG  1   8   1
M  END
>  <PDB_ID>  (3369) 
pdb5nxq

>  <RESIDUE_NAME>  (3369) 
LYS   PHE

>  <FRAG_NAME>  (3369) 
ETAM   MBZ

>  <FRAG_ATOM_NUM>  (3369) 
fragi: 11  fragj: 15

>  <atom.prop.CHAIN_ID>  (3369) 
A A A A A A A A A A A Z Z Z Z Z Z Z Z Z Z Z Z Z Z Z

>  <atom.prop.IS_HEAVY_ATOM>  (3369) 
1 0 0 0 1 0 0 1 0 0 0 1 0 0 0 1 1 0 1 0 1 0 1 0 1 0

>  <DIFUSE_FUNC_ATOM>  (3369) 
n/a

>  <FINAL_SINGLE_POINT_ENERGY>  (3369) 
0

>  <NONCOV_INTER_ENERGY_QM>  (3369) 
0

>  <FF_Energy>  (3369) 
-6.35

>  <QM_Energy>  (3369) 
-12.51

>  <source>  (3369) 
ETAM_MBZ

>  <Index>  (3369) 
37119

$$$$
ETAM-pdb5oyl-A-LYS-76:MBZ-pdb5oyl-A-PHE-70
     RDKit          3D

 26 25  0  0  0  0  0  0  0  0999 V2000
   -5.2071   -1.2811   -0.1056 C   0  0  0  0  0  0  0  0  0  0  0  0
   -5.7398   -2.0919    0.1207 H   0  0  0  0  0  0  0  0  0  0  0  0
   -5.8124   -0.5344   -0.3670 H   0  0  0  0  0  0  0  0  0  0  0  0
   -4.6356   -0.9806    0.7726 H   0  0  0  0  0  0  0  0  0  0  0  0
   -4.3034   -1.6077   -1.2847 C   0  0  0  0  0  0  0  0  0  0  0  0
   -4.8746   -1.8000   -2.0891 H   0  0  0  0  0  0  0  0  0  0  0  0
   -3.7276   -0.8077   -1.4849 H   0  0  0  0  0  0  0  0  0  0  0  0
   -3.4264   -2.7832   -1.0183 N   0  0  0  0  0  4  0  0  0  0  0  0
   -3.9407   -3.6233   -1.1863 H   0  0  0  0  0  0  0  0  0  0  0  0
   -2.6331   -2.7479   -1.6246 H   0  0  0  0  0  0  0  0  0  0  0  0
   -3.1225   -2.7595   -0.0667 H   0  0  0  0  0  0  0  0  0  0  0  0
    0.0024    2.8920    0.0022 C   0  0  0  0  0  0  0  0  0  0  0  0
   -0.7742    3.2016   -0.5268 H   0  0  0  0  0  0  0  0  0  0  0  0
    0.8534    3.1995   -0.3975 H   0  0  0  0  0  0  0  0  0  0  0  0
   -0.0754    3.3294    0.9975 H   0  0  0  0  0  0  0  0  0  0  0  0
    0.0007    1.3947   -0.0010 C   0  0  0  0  0  0  0  0  0  0  0  0
   -1.1915    0.6912    0.0013 C   0  0  0  0  0  0  0  0  0  0  0  0
   -2.0584    1.1826    0.0030 H   0  0  0  0  0  0  0  0  0  0  0  0
   -1.1932   -0.6902    0.0000 C   0  0  0  0  0  0  0  0  0  0  0  0
   -2.0738   -1.1863    0.0011 H   0  0  0  0  0  0  0  0  0  0  0  0
   -0.0005   -1.3858   -0.0002 C   0  0  0  0  0  0  0  0  0  0  0  0
   -0.0080   -2.3870   -0.0005 H   0  0  0  0  0  0  0  0  0  0  0  0
    1.1932   -0.6970    0.0000 C   0  0  0  0  0  0  0  0  0  0  0  0
    2.0768   -1.1965    0.0011 H   0  0  0  0  0  0  0  0  0  0  0  0
    1.1914    0.6870   -0.0001 C   0  0  0  0  0  0  0  0  0  0  0  0
    2.0618    1.1838   -0.0000 H   0  0  0  0  0  0  0  0  0  0  0  0
  1  5  1  0
  5  8  1  0
  1  2  1  0
  1  3  1  0
  1  4  1  0
  5  6  1  0
  5  7  1  0
  8  9  1  0
  8 10  1  0
  8 11  1  0
 12 16  1  0
 16 17  2  0
 17 19  1  0
 19 21  2  0
 21 23  1  0
 23 25  2  0
 25 16  1  0
 12 13  1  0
 12 14  1  0
 12 15  1  0
 17 18  1  0
 19 20  1  0
 21 22  1  0
 23 24  1  0
 25 26  1  0
M  CHG  1   8   1
M  END
>  <PDB_ID>  (3370) 
pdb5oyl

>  <RESIDUE_NAME>  (3370) 
LYS   PHE

>  <FRAG_NAME>  (3370) 
ETAM   MBZ

>  <FRAG_ATOM_NUM>  (3370) 
fragi: 11  fragj: 15

>  <atom.prop.CHAIN_ID>  (3370) 
A A A A A A A A A A A Z Z Z Z Z Z Z Z Z Z Z Z Z Z Z

>  <atom.prop.IS_HEAVY_ATOM>  (3370) 
1 0 0 0 1 0 0 1 0 0 0 1 0 0 0 1 1 0 1 0 1 0 1 0 1 0

>  <DIFUSE_FUNC_ATOM>  (3370) 
n/a

>  <FINAL_SINGLE_POINT_ENERGY>  (3370) 
0

>  <NONCOV_INTER_ENERGY_QM>  (3370) 
0

>  <FF_Energy>  (3370) 
4.3

>  <QM_Energy>  (3370) 
-3.76

>  <source>  (3370) 
ETAM_MBZ

>  <Index>  (3370) 
37178

$$$$
ETAM-pdb5oyh-H-LYS-479:MBZ-pdb5oyh-H-PHE-534
     RDKit          3D

 26 25  0  0  0  0  0  0  0  0999 V2000
   -2.1416   -3.2563    2.7884 C   0  0  0  0  0  0  0  0  0  0  0  0
   -2.0048   -4.1499    3.2211 H   0  0  0  0  0  0  0  0  0  0  0  0
   -1.2771   -2.9538    2.3797 H   0  0  0  0  0  0  0  0  0  0  0  0
   -2.8580   -3.3915    1.9781 H   0  0  0  0  0  0  0  0  0  0  0  0
   -2.5733   -2.2531    3.8406 C   0  0  0  0  0  0  0  0  0  0  0  0
   -3.3862   -2.6103    4.3069 H   0  0  0  0  0  0  0  0  0  0  0  0
   -1.8325   -2.1529    4.5090 H   0  0  0  0  0  0  0  0  0  0  0  0
   -2.8720   -0.9663    3.2303 N   0  0  0  0  0  4  0  0  0  0  0  0
   -3.8643   -0.8058    3.2251 H   0  0  0  0  0  0  0  0  0  0  0  0
   -2.4285   -0.2259    3.7454 H   0  0  0  0  0  0  0  0  0  0  0  0
   -2.5373   -0.9443    2.2829 H   0  0  0  0  0  0  0  0  0  0  0  0
   -0.0180    2.8994    0.0106 C   0  0  0  0  0  0  0  0  0  0  0  0
   -0.7535    3.2090   -0.5763 H   0  0  0  0  0  0  0  0  0  0  0  0
    0.8591    3.2201   -0.3207 H   0  0  0  0  0  0  0  0  0  0  0  0
   -0.1768    3.3442    0.9930 H   0  0  0  0  0  0  0  0  0  0  0  0
   -0.0073    1.4103    0.0082 C   0  0  0  0  0  0  0  0  0  0  0  0
   -1.2033    0.6926   -0.0076 C   0  0  0  0  0  0  0  0  0  0  0  0
   -2.0728    1.1752   -0.0257 H   0  0  0  0  0  0  0  0  0  0  0  0
   -1.2072   -0.7132   -0.0000 C   0  0  0  0  0  0  0  0  0  0  0  0
   -2.0732   -1.2060    0.0173 H   0  0  0  0  0  0  0  0  0  0  0  0
    0.0120   -1.3992   -0.0146 C   0  0  0  0  0  0  0  0  0  0  0  0
    0.0134   -2.3980   -0.0361 H   0  0  0  0  0  0  0  0  0  0  0  0
    1.2072   -0.6943    0.0000 C   0  0  0  0  0  0  0  0  0  0  0  0
    2.0933   -1.1848    0.0020 H   0  0  0  0  0  0  0  0  0  0  0  0
    1.1986    0.7038    0.0140 C   0  0  0  0  0  0  0  0  0  0  0  0
    2.0622    1.2016    0.0273 H   0  0  0  0  0  0  0  0  0  0  0  0
  1  5  1  0
  5  8  1  0
  1  2  1  0
  1  3  1  0
  1  4  1  0
  5  6  1  0
  5  7  1  0
  8  9  1  0
  8 10  1  0
  8 11  1  0
 12 16  1  0
 16 17  2  0
 17 19  1  0
 19 21  2  0
 21 23  1  0
 23 25  2  0
 25 16  1  0
 12 13  1  0
 12 14  1  0
 12 15  1  0
 17 18  1  0
 19 20  1  0
 21 22  1  0
 23 24  1  0
 25 26  1  0
M  CHG  1   8   1
M  END
>  <PDB_ID>  (3371) 
pdb5oyh

>  <RESIDUE_NAME>  (3371) 
LYS   PHE

>  <FRAG_NAME>  (3371) 
ETAM   MBZ

>  <FRAG_ATOM_NUM>  (3371) 
fragi: 11  fragj: 15

>  <atom.prop.CHAIN_ID>  (3371) 
A A A A A A A A A A A Z Z Z Z Z Z Z Z Z Z Z Z Z Z Z

>  <atom.prop.IS_HEAVY_ATOM>  (3371) 
1 0 0 0 1 0 0 1 0 0 0 1 0 0 0 1 1 0 1 0 1 0 1 0 1 0

>  <DIFUSE_FUNC_ATOM>  (3371) 
n/a

>  <FINAL_SINGLE_POINT_ENERGY>  (3371) 
0

>  <NONCOV_INTER_ENERGY_QM>  (3371) 
0

>  <FF_Energy>  (3371) 
-3.28

>  <QM_Energy>  (3371) 
-8.91

>  <source>  (3371) 
ETAM_MBZ

>  <Index>  (3371) 
37193

$$$$
ETAM-pdb5svd-A-LYS-194:MBZ-pdb5svd-A-PHE-273
     RDKit          3D

 26 25  0  0  0  0  0  0  0  0999 V2000
   -0.6823   -0.3886   -4.4570 C   0  0  0  0  0  0  0  0  0  0  0  0
   -0.2220    0.4717   -4.6501 H   0  0  0  0  0  0  0  0  0  0  0  0
   -1.0615   -0.7733   -5.2914 H   0  0  0  0  0  0  0  0  0  0  0  0
    0.0408   -1.0899   -4.0407 H   0  0  0  0  0  0  0  0  0  0  0  0
   -1.8270   -0.1177   -3.4845 C   0  0  0  0  0  0  0  0  0  0  0  0
   -1.4338    0.1296   -2.5863 H   0  0  0  0  0  0  0  0  0  0  0  0
   -2.3508    0.6799   -3.8191 H   0  0  0  0  0  0  0  0  0  0  0  0
   -2.7474   -1.2683   -3.3131 N   0  0  0  0  0  4  0  0  0  0  0  0
   -3.0741   -1.2967   -2.3677 H   0  0  0  0  0  0  0  0  0  0  0  0
   -3.5269   -1.1672   -3.9312 H   0  0  0  0  0  0  0  0  0  0  0  0
   -2.2625   -2.1177   -3.5240 H   0  0  0  0  0  0  0  0  0  0  0  0
   -0.0148    2.8620   -0.0291 C   0  0  0  0  0  0  0  0  0  0  0  0
    0.9147    3.1883    0.0421 H   0  0  0  0  0  0  0  0  0  0  0  0
   -0.5727    3.1900    0.7167 H   0  0  0  0  0  0  0  0  0  0  0  0
   -0.4347    3.2540   -0.9555 H   0  0  0  0  0  0  0  0  0  0  0  0
    0.0008    1.3827    0.0090 C   0  0  0  0  0  0  0  0  0  0  0  0
   -1.1890    0.6817   -0.0080 C   0  0  0  0  0  0  0  0  0  0  0  0
   -2.0555    1.1794   -0.0278 H   0  0  0  0  0  0  0  0  0  0  0  0
   -1.1929   -0.6873    0.0000 C   0  0  0  0  0  0  0  0  0  0  0  0
   -2.0727   -1.1870    0.0067 H   0  0  0  0  0  0  0  0  0  0  0  0
   -0.0038   -1.3747    0.0014 C   0  0  0  0  0  0  0  0  0  0  0  0
   -0.0059   -2.3794    0.0032 H   0  0  0  0  0  0  0  0  0  0  0  0
    1.1929   -0.6871    0.0000 C   0  0  0  0  0  0  0  0  0  0  0  0
    2.0738   -1.1942    0.0019 H   0  0  0  0  0  0  0  0  0  0  0  0
    1.1921    0.6846   -0.0024 C   0  0  0  0  0  0  0  0  0  0  0  0
    2.0591    1.1864   -0.0131 H   0  0  0  0  0  0  0  0  0  0  0  0
  1  5  1  0
  5  8  1  0
  1  2  1  0
  1  3  1  0
  1  4  1  0
  5  6  1  0
  5  7  1  0
  8  9  1  0
  8 10  1  0
  8 11  1  0
 12 16  1  0
 16 17  2  0
 17 19  1  0
 19 21  2  0
 21 23  1  0
 23 25  2  0
 25 16  1  0
 12 13  1  0
 12 14  1  0
 12 15  1  0
 17 18  1  0
 19 20  1  0
 21 22  1  0
 23 24  1  0
 25 26  1  0
M  CHG  1   8   1
M  END
>  <PDB_ID>  (3372) 
pdb5svd

>  <RESIDUE_NAME>  (3372) 
LYS   PHE

>  <FRAG_NAME>  (3372) 
ETAM   MBZ

>  <FRAG_ATOM_NUM>  (3372) 
fragi: 11  fragj: 15

>  <atom.prop.CHAIN_ID>  (3372) 
A A A A A A A A A A A Z Z Z Z Z Z Z Z Z Z Z Z Z Z Z

>  <atom.prop.IS_HEAVY_ATOM>  (3372) 
1 0 0 0 1 0 0 1 0 0 0 1 0 0 0 1 1 0 1 0 1 0 1 0 1 0

>  <DIFUSE_FUNC_ATOM>  (3372) 
n/a

>  <FINAL_SINGLE_POINT_ENERGY>  (3372) 
0

>  <NONCOV_INTER_ENERGY_QM>  (3372) 
0

>  <FF_Energy>  (3372) 
-3.1

>  <QM_Energy>  (3372) 
-8.25

>  <source>  (3372) 
ETAM_MBZ

>  <Index>  (3372) 
37228

$$$$
ETAM-pdb5sxo-A-LYS-70:MBZ-pdb5sxo-A-PHE-133
     RDKit          3D

 26 25  0  0  0  0  0  0  0  0999 V2000
    1.1126   -0.8095    4.2006 C   0  0  0  0  0  0  0  0  0  0  0  0
    1.6182   -1.5671    3.8672 H   0  0  0  0  0  0  0  0  0  0  0  0
    0.9521   -0.9066    5.1524 H   0  0  0  0  0  0  0  0  0  0  0  0
    1.6803    0.1043    4.0250 H   0  0  0  0  0  0  0  0  0  0  0  0
   -0.2277   -0.7868    3.4953 C   0  0  0  0  0  0  0  0  0  0  0  0
   -0.8351   -0.2049    3.9786 H   0  0  0  0  0  0  0  0  0  0  0  0
   -0.1071   -0.4688    2.5867 H   0  0  0  0  0  0  0  0  0  0  0  0
   -0.8293   -2.1524    3.4386 N   0  0  0  0  0  4  0  0  0  0  0  0
   -1.6153   -2.1224    3.0217 H   0  0  0  0  0  0  0  0  0  0  0  0
   -0.2888   -2.7054    2.9968 H   0  0  0  0  0  0  0  0  0  0  0  0
   -0.9517   -2.4653    4.2632 H   0  0  0  0  0  0  0  0  0  0  0  0
   -0.0013    2.8993   -0.0033 C   0  0  0  0  0  0  0  0  0  0  0  0
    0.9051    3.1963    0.1689 H   0  0  0  0  0  0  0  0  0  0  0  0
   -0.5872    3.1974    0.7099 H   0  0  0  0  0  0  0  0  0  0  0  0
   -0.3420    3.3329   -0.9435 H   0  0  0  0  0  0  0  0  0  0  0  0
   -0.0004    1.3961    0.0007 C   0  0  0  0  0  0  0  0  0  0  0  0
   -1.1918    0.6897    0.0007 C   0  0  0  0  0  0  0  0  0  0  0  0
   -1.9995    1.1509    0.0007 H   0  0  0  0  0  0  0  0  0  0  0  0
   -1.1950   -0.6952    0.0000 C   0  0  0  0  0  0  0  0  0  0  0  0
   -2.0010   -1.1590    0.0013 H   0  0  0  0  0  0  0  0  0  0  0  0
    0.0015   -1.3867   -0.0001 C   0  0  0  0  0  0  0  0  0  0  0  0
    0.0020   -2.3166    0.0005 H   0  0  0  0  0  0  0  0  0  0  0  0
    1.1950   -0.6931    0.0000 C   0  0  0  0  0  0  0  0  0  0  0  0
    2.0020   -1.1558   -0.0007 H   0  0  0  0  0  0  0  0  0  0  0  0
    1.1907    0.6892   -0.0013 C   0  0  0  0  0  0  0  0  0  0  0  0
    1.9979    1.1514   -0.0016 H   0  0  0  0  0  0  0  0  0  0  0  0
  1  5  1  0
  5  8  1  0
  1  2  1  0
  1  3  1  0
  1  4  1  0
  5  6  1  0
  5  7  1  0
  8  9  1  0
  8 10  1  0
  8 11  1  0
 12 16  1  0
 16 17  2  0
 17 19  1  0
 19 21  2  0
 21 23  1  0
 23 25  2  0
 25 16  1  0
 12 13  1  0
 12 14  1  0
 12 15  1  0
 17 18  1  0
 19 20  1  0
 21 22  1  0
 23 24  1  0
 25 26  1  0
M  CHG  1   8   1
M  END
>  <PDB_ID>  (3373) 
pdb5sxo

>  <RESIDUE_NAME>  (3373) 
LYS   PHE

>  <FRAG_NAME>  (3373) 
ETAM   MBZ

>  <FRAG_ATOM_NUM>  (3373) 
fragi: 11  fragj: 15

>  <atom.prop.CHAIN_ID>  (3373) 
A A A A A A A A A A A Z Z Z Z Z Z Z Z Z Z Z Z Z Z Z

>  <atom.prop.IS_HEAVY_ATOM>  (3373) 
1 0 0 0 1 0 0 1 0 0 0 1 0 0 0 1 1 0 1 0 1 0 1 0 1 0

>  <DIFUSE_FUNC_ATOM>  (3373) 
n/a

>  <FINAL_SINGLE_POINT_ENERGY>  (3373) 
0

>  <NONCOV_INTER_ENERGY_QM>  (3373) 
0

>  <FF_Energy>  (3373) 
-4.72

>  <QM_Energy>  (3373) 
-11.01

>  <source>  (3373) 
ETAM_MBZ

>  <Index>  (3373) 
37230

$$$$
ETAM-pdb5suj-B-LYS-149:MBZ-pdb5suj-B-PHE-195
     RDKit          3D

 26 25  0  0  0  0  0  0  0  0999 V2000
   -0.9858   -0.2704    4.3072 C   0  0  0  0  0  0  0  0  0  0  0  0
   -0.9604    0.6475    4.6977 H   0  0  0  0  0  0  0  0  0  0  0  0
   -0.9394   -0.9508    5.0343 H   0  0  0  0  0  0  0  0  0  0  0  0
   -1.9199   -0.3972    3.7600 H   0  0  0  0  0  0  0  0  0  0  0  0
    0.2137   -0.4459    3.4055 C   0  0  0  0  0  0  0  0  0  0  0  0
    0.3918   -1.4237    3.2761 H   0  0  0  0  0  0  0  0  0  0  0  0
    0.0242   -0.0268    2.5149 H   0  0  0  0  0  0  0  0  0  0  0  0
    1.4385    0.1939    3.9887 N   0  0  0  0  0  4  0  0  0  0  0  0
    1.9007    0.7210    3.2783 H   0  0  0  0  0  0  0  0  0  0  0  0
    1.1669    0.7962    4.7355 H   0  0  0  0  0  0  0  0  0  0  0  0
    2.0468   -0.5185    4.3316 H   0  0  0  0  0  0  0  0  0  0  0  0
   -0.0084    2.8983   -0.0153 C   0  0  0  0  0  0  0  0  0  0  0  0
   -0.8448    3.1947   -0.4587 H   0  0  0  0  0  0  0  0  0  0  0  0
    0.7871    3.2039   -0.5240 H   0  0  0  0  0  0  0  0  0  0  0  0
    0.0283    3.3655    0.9689 H   0  0  0  0  0  0  0  0  0  0  0  0
    0.0012    1.3976    0.0047 C   0  0  0  0  0  0  0  0  0  0  0  0
   -1.1882    0.6876   -0.0058 C   0  0  0  0  0  0  0  0  0  0  0  0
   -2.0592    1.1772   -0.0190 H   0  0  0  0  0  0  0  0  0  0  0  0
   -1.1959   -0.7015   -0.0000 C   0  0  0  0  0  0  0  0  0  0  0  0
   -2.0803   -1.1875    0.0052 H   0  0  0  0  0  0  0  0  0  0  0  0
   -0.0124   -1.3907    0.0009 C   0  0  0  0  0  0  0  0  0  0  0  0
   -0.0024   -2.3887    0.0021 H   0  0  0  0  0  0  0  0  0  0  0  0
    1.1959   -0.6858   -0.0000 C   0  0  0  0  0  0  0  0  0  0  0  0
    2.0743   -1.1954    0.0007 H   0  0  0  0  0  0  0  0  0  0  0  0
    1.1994    0.6929    0.0002 C   0  0  0  0  0  0  0  0  0  0  0  0
    2.0640    1.1924   -0.0041 H   0  0  0  0  0  0  0  0  0  0  0  0
  1  5  1  0
  5  8  1  0
  1  2  1  0
  1  3  1  0
  1  4  1  0
  5  6  1  0
  5  7  1  0
  8  9  1  0
  8 10  1  0
  8 11  1  0
 12 16  1  0
 16 17  2  0
 17 19  1  0
 19 21  2  0
 21 23  1  0
 23 25  2  0
 25 16  1  0
 12 13  1  0
 12 14  1  0
 12 15  1  0
 17 18  1  0
 19 20  1  0
 21 22  1  0
 23 24  1  0
 25 26  1  0
M  CHG  1   8   1
M  END
>  <PDB_ID>  (3374) 
pdb5suj

>  <RESIDUE_NAME>  (3374) 
LYS   PHE

>  <FRAG_NAME>  (3374) 
ETAM   MBZ

>  <FRAG_ATOM_NUM>  (3374) 
fragi: 11  fragj: 15

>  <atom.prop.CHAIN_ID>  (3374) 
A A A A A A A A A A A Z Z Z Z Z Z Z Z Z Z Z Z Z Z Z

>  <atom.prop.IS_HEAVY_ATOM>  (3374) 
1 0 0 0 1 0 0 1 0 0 0 1 0 0 0 1 1 0 1 0 1 0 1 0 1 0

>  <DIFUSE_FUNC_ATOM>  (3374) 
n/a

>  <FINAL_SINGLE_POINT_ENERGY>  (3374) 
0

>  <NONCOV_INTER_ENERGY_QM>  (3374) 
0

>  <FF_Energy>  (3374) 
-5.83

>  <QM_Energy>  (3374) 
-10.87

>  <source>  (3374) 
ETAM_MBZ

>  <Index>  (3374) 
37231

$$$$
ETAM-pdb5t1e-A-LYS-274:MBZ-pdb5t1e-A-PHE-265
     RDKit          3D

 26 25  0  0  0  0  0  0  0  0999 V2000
   -4.2891   -0.4204   -3.6478 C   0  0  0  0  0  0  0  0  0  0  0  0
   -4.8583   -1.0802   -4.1243 H   0  0  0  0  0  0  0  0  0  0  0  0
   -3.5966   -0.0525   -4.2577 H   0  0  0  0  0  0  0  0  0  0  0  0
   -4.9148    0.3936   -3.2818 H   0  0  0  0  0  0  0  0  0  0  0  0
   -3.5972   -1.1205   -2.4982 C   0  0  0  0  0  0  0  0  0  0  0  0
   -3.2309   -0.4365   -1.8708 H   0  0  0  0  0  0  0  0  0  0  0  0
   -4.2563   -1.6975   -2.0215 H   0  0  0  0  0  0  0  0  0  0  0  0
   -2.4863   -1.9633   -3.0088 N   0  0  0  0  0  4  0  0  0  0  0  0
   -1.6706   -1.3985   -3.1370 H   0  0  0  0  0  0  0  0  0  0  0  0
   -2.2886   -2.6895   -2.3501 H   0  0  0  0  0  0  0  0  0  0  0  0
   -2.7512   -2.3697   -3.8839 H   0  0  0  0  0  0  0  0  0  0  0  0
    0.0009    2.8900   -0.0083 C   0  0  0  0  0  0  0  0  0  0  0  0
   -0.7516    3.1955   -0.5751 H   0  0  0  0  0  0  0  0  0  0  0  0
    0.8697    3.1940   -0.3735 H   0  0  0  0  0  0  0  0  0  0  0  0
   -0.1209    3.3413    0.9765 H   0  0  0  0  0  0  0  0  0  0  0  0
   -0.0018    1.3915    0.0020 C   0  0  0  0  0  0  0  0  0  0  0  0
   -1.1873    0.6916   -0.0009 C   0  0  0  0  0  0  0  0  0  0  0  0
   -2.0575    1.1820   -0.0051 H   0  0  0  0  0  0  0  0  0  0  0  0
   -1.1929   -0.6901   -0.0000 C   0  0  0  0  0  0  0  0  0  0  0  0
   -2.0734   -1.1844   -0.0017 H   0  0  0  0  0  0  0  0  0  0  0  0
   -0.0014   -1.3846    0.0049 C   0  0  0  0  0  0  0  0  0  0  0  0
   -0.0061   -2.3856    0.0113 H   0  0  0  0  0  0  0  0  0  0  0  0
    1.1929   -0.6933    0.0000 C   0  0  0  0  0  0  0  0  0  0  0  0
    2.0758   -1.1954    0.0020 H   0  0  0  0  0  0  0  0  0  0  0  0
    1.1905    0.6849   -0.0060 C   0  0  0  0  0  0  0  0  0  0  0  0
    2.0589    1.1847   -0.0166 H   0  0  0  0  0  0  0  0  0  0  0  0
  1  5  1  0
  5  8  1  0
  1  2  1  0
  1  3  1  0
  1  4  1  0
  5  6  1  0
  5  7  1  0
  8  9  1  0
  8 10  1  0
  8 11  1  0
 12 16  1  0
 16 17  2  0
 17 19  1  0
 19 21  2  0
 21 23  1  0
 23 25  2  0
 25 16  1  0
 12 13  1  0
 12 14  1  0
 12 15  1  0
 17 18  1  0
 19 20  1  0
 21 22  1  0
 23 24  1  0
 25 26  1  0
M  CHG  1   8   1
M  END
>  <PDB_ID>  (3375) 
pdb5t1e

>  <RESIDUE_NAME>  (3375) 
LYS   PHE

>  <FRAG_NAME>  (3375) 
ETAM   MBZ

>  <FRAG_ATOM_NUM>  (3375) 
fragi: 11  fragj: 15

>  <atom.prop.CHAIN_ID>  (3375) 
A A A A A A A A A A A Z Z Z Z Z Z Z Z Z Z Z Z Z Z Z

>  <atom.prop.IS_HEAVY_ATOM>  (3375) 
1 0 0 0 1 0 0 1 0 0 0 1 0 0 0 1 1 0 1 0 1 0 1 0 1 0

>  <DIFUSE_FUNC_ATOM>  (3375) 
n/a

>  <FINAL_SINGLE_POINT_ENERGY>  (3375) 
0

>  <NONCOV_INTER_ENERGY_QM>  (3375) 
0

>  <FF_Energy>  (3375) 
-2.33

>  <QM_Energy>  (3375) 
-7.58

>  <source>  (3375) 
ETAM_MBZ

>  <Index>  (3375) 
37244

$$$$
ETAM-pdb5t88-B-LYS-613:MBZ-pdb5t88-B-PHE-30
     RDKit          3D

 26 25  0  0  0  0  0  0  0  0999 V2000
    0.3398   -1.2213    3.8700 C   0  0  0  0  0  0  0  0  0  0  0  0
    0.6233   -0.7053    4.6405 H   0  0  0  0  0  0  0  0  0  0  0  0
    0.6822   -0.8262    3.0528 H   0  0  0  0  0  0  0  0  0  0  0  0
    0.7074   -2.2433    3.9615 H   0  0  0  0  0  0  0  0  0  0  0  0
   -1.1907   -1.2066    3.8118 C   0  0  0  0  0  0  0  0  0  0  0  0
   -1.4795   -1.6651    3.0071 H   0  0  0  0  0  0  0  0  0  0  0  0
   -1.5395   -1.6610    4.5944 H   0  0  0  0  0  0  0  0  0  0  0  0
   -1.7665    0.1751    3.7862 N   0  0  0  0  0  4  0  0  0  0  0  0
   -2.6548    0.1326    3.7519 H   0  0  0  0  0  0  0  0  0  0  0  0
   -1.5261    0.6190    4.5189 H   0  0  0  0  0  0  0  0  0  0  0  0
   -1.4701    0.6145    3.0709 H   0  0  0  0  0  0  0  0  0  0  0  0
    0.0124    2.9204   -0.0216 C   0  0  0  0  0  0  0  0  0  0  0  0
   -0.5895    3.2078   -0.7260 H   0  0  0  0  0  0  0  0  0  0  0  0
    0.9154    3.2072   -0.2257 H   0  0  0  0  0  0  0  0  0  0  0  0
   -0.2987    3.3850    0.9140 H   0  0  0  0  0  0  0  0  0  0  0  0
    0.0038    1.4115    0.0023 C   0  0  0  0  0  0  0  0  0  0  0  0
   -1.1893    0.6999   -0.0092 C   0  0  0  0  0  0  0  0  0  0  0  0
   -1.9968    1.1604   -0.0097 H   0  0  0  0  0  0  0  0  0  0  0  0
   -1.1973   -0.7067   -0.0000 C   0  0  0  0  0  0  0  0  0  0  0  0
   -2.0051   -1.1666    0.0021 H   0  0  0  0  0  0  0  0  0  0  0  0
   -0.0081   -1.4017    0.0107 C   0  0  0  0  0  0  0  0  0  0  0  0
   -0.0100   -2.3316    0.0126 H   0  0  0  0  0  0  0  0  0  0  0  0
    1.1973   -0.7063    0.0000 C   0  0  0  0  0  0  0  0  0  0  0  0
    2.0029   -1.1706    0.0073 H   0  0  0  0  0  0  0  0  0  0  0  0
    1.1935    0.7034   -0.0038 C   0  0  0  0  0  0  0  0  0  0  0  0
    2.0011    1.1640   -0.0037 H   0  0  0  0  0  0  0  0  0  0  0  0
  1  5  1  0
  5  8  1  0
  1  2  1  0
  1  3  1  0
  1  4  1  0
  5  6  1  0
  5  7  1  0
  8  9  1  0
  8 10  1  0
  8 11  1  0
 12 16  1  0
 16 17  2  0
 17 19  1  0
 19 21  2  0
 21 23  1  0
 23 25  2  0
 25 16  1  0
 12 13  1  0
 12 14  1  0
 12 15  1  0
 17 18  1  0
 19 20  1  0
 21 22  1  0
 23 24  1  0
 25 26  1  0
M  CHG  1   8   1
M  END
>  <PDB_ID>  (3376) 
pdb5t88

>  <RESIDUE_NAME>  (3376) 
LYS   PHE

>  <FRAG_NAME>  (3376) 
ETAM   MBZ

>  <FRAG_ATOM_NUM>  (3376) 
fragi: 11  fragj: 15

>  <atom.prop.CHAIN_ID>  (3376) 
A A A A A A A A A A A Z Z Z Z Z Z Z Z Z Z Z Z Z Z Z

>  <atom.prop.IS_HEAVY_ATOM>  (3376) 
1 0 0 0 1 0 0 1 0 0 0 1 0 0 0 1 1 0 1 0 1 0 1 0 1 0

>  <DIFUSE_FUNC_ATOM>  (3376) 
n/a

>  <FINAL_SINGLE_POINT_ENERGY>  (3376) 
0

>  <NONCOV_INTER_ENERGY_QM>  (3376) 
0

>  <FF_Energy>  (3376) 
-5.66

>  <QM_Energy>  (3376) 
-10.82

>  <source>  (3376) 
ETAM_MBZ

>  <Index>  (3376) 
37283

$$$$
ETAM-pdb5t7o-A-LYS-447:MBZ-pdb5t7o-A-PHE-489
     RDKit          3D

 26 25  0  0  0  0  0  0  0  0999 V2000
   -0.8290   -1.1445   -3.7611 C   0  0  0  0  0  0  0  0  0  0  0  0
   -1.5649   -1.0901   -3.0601 H   0  0  0  0  0  0  0  0  0  0  0  0
   -0.2963   -1.9879   -3.5621 H   0  0  0  0  0  0  0  0  0  0  0  0
   -1.2957   -1.2556   -4.7399 H   0  0  0  0  0  0  0  0  0  0  0  0
    0.1269    0.0740   -3.5267 C   0  0  0  0  0  0  0  0  0  0  0  0
    0.4031    0.0729   -2.5639 H   0  0  0  0  0  0  0  0  0  0  0  0
    0.9391   -0.0507   -4.1008 H   0  0  0  0  0  0  0  0  0  0  0  0
   -0.5109    1.4125   -3.8566 N   0  0  0  0  0  4  0  0  0  0  0  0
   -1.4687    1.3811   -3.5909 H   0  0  0  0  0  0  0  0  0  0  0  0
   -0.0345    2.1238   -3.3503 H   0  0  0  0  0  0  0  0  0  0  0  0
   -0.4274    1.5694   -4.8352 H   0  0  0  0  0  0  0  0  0  0  0  0
   -0.0018    2.9440    0.0153 C   0  0  0  0  0  0  0  0  0  0  0  0
   -0.6910    3.2440   -0.6081 H   0  0  0  0  0  0  0  0  0  0  0  0
    0.8972    3.2374   -0.2286 H   0  0  0  0  0  0  0  0  0  0  0  0
   -0.2392    3.3103    1.0141 H   0  0  0  0  0  0  0  0  0  0  0  0
   -0.0011    1.4203   -0.0112 C   0  0  0  0  0  0  0  0  0  0  0  0
   -1.2139    0.7220    0.0079 C   0  0  0  0  0  0  0  0  0  0  0  0
   -2.0733    1.2105    0.0265 H   0  0  0  0  0  0  0  0  0  0  0  0
   -1.2328   -0.6955    0.0000 C   0  0  0  0  0  0  0  0  0  0  0  0
   -2.1047   -1.1760   -0.0368 H   0  0  0  0  0  0  0  0  0  0  0  0
   -0.0155   -1.4135    0.0464 C   0  0  0  0  0  0  0  0  0  0  0  0
   -0.0319   -2.4072    0.1118 H   0  0  0  0  0  0  0  0  0  0  0  0
    1.2328   -0.7325   -0.0000 C   0  0  0  0  0  0  0  0  0  0  0  0
    2.0893   -1.2281   -0.0009 H   0  0  0  0  0  0  0  0  0  0  0  0
    1.2305    0.6992   -0.0431 C   0  0  0  0  0  0  0  0  0  0  0  0
    2.0835    1.1864   -0.0961 H   0  0  0  0  0  0  0  0  0  0  0  0
  1  5  1  0
  5  8  1  0
  1  2  1  0
  1  3  1  0
  1  4  1  0
  5  6  1  0
  5  7  1  0
  8  9  1  0
  8 10  1  0
  8 11  1  0
 12 16  1  0
 16 17  2  0
 17 19  1  0
 19 21  2  0
 21 23  1  0
 23 25  2  0
 25 16  1  0
 12 13  1  0
 12 14  1  0
 12 15  1  0
 17 18  1  0
 19 20  1  0
 21 22  1  0
 23 24  1  0
 25 26  1  0
M  CHG  1   8   1
M  END
>  <PDB_ID>  (3377) 
pdb5t7o

>  <RESIDUE_NAME>  (3377) 
LYS   PHE

>  <FRAG_NAME>  (3377) 
ETAM   MBZ

>  <FRAG_ATOM_NUM>  (3377) 
fragi: 11  fragj: 15

>  <atom.prop.CHAIN_ID>  (3377) 
A A A A A A A A A A A Z Z Z Z Z Z Z Z Z Z Z Z Z Z Z

>  <atom.prop.IS_HEAVY_ATOM>  (3377) 
1 0 0 0 1 0 0 1 0 0 0 1 0 0 0 1 1 0 1 0 1 0 1 0 1 0

>  <DIFUSE_FUNC_ATOM>  (3377) 
n/a

>  <FINAL_SINGLE_POINT_ENERGY>  (3377) 
0

>  <NONCOV_INTER_ENERGY_QM>  (3377) 
0

>  <FF_Energy>  (3377) 
-6.56

>  <QM_Energy>  (3377) 
-11.72

>  <source>  (3377) 
ETAM_MBZ

>  <Index>  (3377) 
37287

$$$$
ETAM-pdb5t7o-B-LYS-447:MBZ-pdb5t7o-B-PHE-489
     RDKit          3D

 26 25  0  0  0  0  0  0  0  0999 V2000
   -0.8804   -1.0678   -3.7060 C   0  0  0  0  0  0  0  0  0  0  0  0
   -1.5934   -0.9817   -2.9799 H   0  0  0  0  0  0  0  0  0  0  0  0
   -0.3740   -1.9320   -3.5075 H   0  0  0  0  0  0  0  0  0  0  0  0
   -1.3544   -1.1308   -4.6856 H   0  0  0  0  0  0  0  0  0  0  0  0
    0.1404    0.1030   -3.4577 C   0  0  0  0  0  0  0  0  0  0  0  0
    0.3495    0.1331   -2.4954 H   0  0  0  0  0  0  0  0  0  0  0  0
    0.9424   -0.0645   -4.0040 H   0  0  0  0  0  0  0  0  0  0  0  0
   -0.4873    1.4279   -3.8777 N   0  0  0  0  0  4  0  0  0  0  0  0
   -1.4553    1.4008   -3.6538 H   0  0  0  0  0  0  0  0  0  0  0  0
   -0.0345    2.1607   -3.3818 H   0  0  0  0  0  0  0  0  0  0  0  0
   -0.3592    1.5391   -4.8571 H   0  0  0  0  0  0  0  0  0  0  0  0
    0.0360    2.9299    0.1176 C   0  0  0  0  0  0  0  0  0  0  0  0
   -0.6735    3.2630   -0.4703 H   0  0  0  0  0  0  0  0  0  0  0  0
    0.9286    3.2304   -0.1533 H   0  0  0  0  0  0  0  0  0  0  0  0
   -0.1586    3.2602    1.1380 H   0  0  0  0  0  0  0  0  0  0  0  0
    0.0239    1.4132    0.0199 C   0  0  0  0  0  0  0  0  0  0  0  0
   -1.1973    0.7098   -0.0068 C   0  0  0  0  0  0  0  0  0  0  0  0
   -2.0514    1.2028   -0.0316 H   0  0  0  0  0  0  0  0  0  0  0  0
   -1.2080   -0.6984   -0.0000 C   0  0  0  0  0  0  0  0  0  0  0  0
   -2.0952   -1.1746   -0.0088 H   0  0  0  0  0  0  0  0  0  0  0  0
   -0.0230   -1.3996    0.0202 C   0  0  0  0  0  0  0  0  0  0  0  0
   -0.0337   -2.4044    0.0489 H   0  0  0  0  0  0  0  0  0  0  0  0
    1.2080   -0.7302    0.0000 C   0  0  0  0  0  0  0  0  0  0  0  0
    2.0720   -1.2130    0.0092 H   0  0  0  0  0  0  0  0  0  0  0  0
    1.1964    0.7052   -0.0333 C   0  0  0  0  0  0  0  0  0  0  0  0
    2.0786    1.1734   -0.0976 H   0  0  0  0  0  0  0  0  0  0  0  0
  1  5  1  0
  5  8  1  0
  1  2  1  0
  1  3  1  0
  1  4  1  0
  5  6  1  0
  5  7  1  0
  8  9  1  0
  8 10  1  0
  8 11  1  0
 12 16  1  0
 16 17  2  0
 17 19  1  0
 19 21  2  0
 21 23  1  0
 23 25  2  0
 25 16  1  0
 12 13  1  0
 12 14  1  0
 12 15  1  0
 17 18  1  0
 19 20  1  0
 21 22  1  0
 23 24  1  0
 25 26  1  0
M  CHG  1   8   1
M  END
>  <PDB_ID>  (3378) 
pdb5t7o

>  <RESIDUE_NAME>  (3378) 
LYS   PHE

>  <FRAG_NAME>  (3378) 
ETAM   MBZ

>  <FRAG_ATOM_NUM>  (3378) 
fragi: 11  fragj: 15

>  <atom.prop.CHAIN_ID>  (3378) 
A A A A A A A A A A A Z Z Z Z Z Z Z Z Z Z Z Z Z Z Z

>  <atom.prop.IS_HEAVY_ATOM>  (3378) 
1 0 0 0 1 0 0 1 0 0 0 1 0 0 0 1 1 0 1 0 1 0 1 0 1 0

>  <DIFUSE_FUNC_ATOM>  (3378) 
n/a

>  <FINAL_SINGLE_POINT_ENERGY>  (3378) 
0

>  <NONCOV_INTER_ENERGY_QM>  (3378) 
0

>  <FF_Energy>  (3378) 
-6.24

>  <QM_Energy>  (3378) 
-11.59

>  <source>  (3378) 
ETAM_MBZ

>  <Index>  (3378) 
37288

$$$$
ETAM-pdb5t99-A-LYS-115:MBZ-pdb5t99-A-PHE-55
     RDKit          3D

 26 25  0  0  0  0  0  0  0  0999 V2000
    1.3332   -1.0970    3.7377 C   0  0  0  0  0  0  0  0  0  0  0  0
    1.6443   -0.4215    4.3967 H   0  0  0  0  0  0  0  0  0  0  0  0
    1.6868   -0.8918    2.8325 H   0  0  0  0  0  0  0  0  0  0  0  0
    1.6880   -2.0812    4.0439 H   0  0  0  0  0  0  0  0  0  0  0  0
   -0.1918   -1.0506    3.6819 C   0  0  0  0  0  0  0  0  0  0  0  0
   -0.5107   -1.7229    2.9979 H   0  0  0  0  0  0  0  0  0  0  0  0
   -0.5567   -1.3319    4.5815 H   0  0  0  0  0  0  0  0  0  0  0  0
   -0.7394    0.2923    3.3344 N   0  0  0  0  0  4  0  0  0  0  0  0
   -1.2918    0.2186    2.5054 H   0  0  0  0  0  0  0  0  0  0  0  0
   -1.3059    0.6232    4.0876 H   0  0  0  0  0  0  0  0  0  0  0  0
    0.0163    0.9265    3.1787 H   0  0  0  0  0  0  0  0  0  0  0  0
   -0.0019    2.9186   -0.0202 C   0  0  0  0  0  0  0  0  0  0  0  0
   -0.4361    3.2081   -0.8603 H   0  0  0  0  0  0  0  0  0  0  0  0
    0.9376    3.2249    0.0230 H   0  0  0  0  0  0  0  0  0  0  0  0
   -0.5401    3.3804    0.8075 H   0  0  0  0  0  0  0  0  0  0  0  0
    0.0007    1.4057    0.0050 C   0  0  0  0  0  0  0  0  0  0  0  0
   -1.2010    0.6887   -0.0039 C   0  0  0  0  0  0  0  0  0  0  0  0
   -2.0658    1.1794   -0.0142 H   0  0  0  0  0  0  0  0  0  0  0  0
   -1.2026   -0.7016    0.0000 C   0  0  0  0  0  0  0  0  0  0  0  0
   -2.0778   -1.1979    0.0023 H   0  0  0  0  0  0  0  0  0  0  0  0
    0.0011   -1.3959    0.0029 C   0  0  0  0  0  0  0  0  0  0  0  0
    0.0012   -2.3935    0.0060 H   0  0  0  0  0  0  0  0  0  0  0  0
    1.2026   -0.6943    0.0000 C   0  0  0  0  0  0  0  0  0  0  0  0
    2.0846   -1.1926    0.0022 H   0  0  0  0  0  0  0  0  0  0  0  0
    1.1991    0.6974   -0.0041 C   0  0  0  0  0  0  0  0  0  0  0  0
    2.0661    1.1938   -0.0146 H   0  0  0  0  0  0  0  0  0  0  0  0
  1  5  1  0
  5  8  1  0
  1  2  1  0
  1  3  1  0
  1  4  1  0
  5  6  1  0
  5  7  1  0
  8  9  1  0
  8 10  1  0
  8 11  1  0
 12 16  1  0
 16 17  2  0
 17 19  1  0
 19 21  2  0
 21 23  1  0
 23 25  2  0
 25 16  1  0
 12 13  1  0
 12 14  1  0
 12 15  1  0
 17 18  1  0
 19 20  1  0
 21 22  1  0
 23 24  1  0
 25 26  1  0
M  CHG  1   8   1
M  END
>  <PDB_ID>  (3379) 
pdb5t99

>  <RESIDUE_NAME>  (3379) 
LYS   PHE

>  <FRAG_NAME>  (3379) 
ETAM   MBZ

>  <FRAG_ATOM_NUM>  (3379) 
fragi: 11  fragj: 15

>  <atom.prop.CHAIN_ID>  (3379) 
A A A A A A A A A A A Z Z Z Z Z Z Z Z Z Z Z Z Z Z Z

>  <atom.prop.IS_HEAVY_ATOM>  (3379) 
1 0 0 0 1 0 0 1 0 0 0 1 0 0 0 1 1 0 1 0 1 0 1 0 1 0

>  <DIFUSE_FUNC_ATOM>  (3379) 
n/a

>  <FINAL_SINGLE_POINT_ENERGY>  (3379) 
0

>  <NONCOV_INTER_ENERGY_QM>  (3379) 
0

>  <FF_Energy>  (3379) 
-8.76

>  <QM_Energy>  (3379) 
-15.99

>  <source>  (3379) 
ETAM_MBZ

>  <Index>  (3379) 
37305

$$$$
ETAM-pdb5ta0-A-LYS-218:MBZ-pdb5ta0-A-PHE-165
     RDKit          3D

 26 25  0  0  0  0  0  0  0  0999 V2000
    0.8796   -0.5608   -3.9685 C   0  0  0  0  0  0  0  0  0  0  0  0
    0.7762   -0.5042   -4.9611 H   0  0  0  0  0  0  0  0  0  0  0  0
    1.0253   -1.5133   -3.7015 H   0  0  0  0  0  0  0  0  0  0  0  0
    1.7595    0.0152   -3.6821 H   0  0  0  0  0  0  0  0  0  0  0  0
   -0.3772   -0.0547   -3.3143 C   0  0  0  0  0  0  0  0  0  0  0  0
   -0.2001    0.1265   -2.3432 H   0  0  0  0  0  0  0  0  0  0  0  0
   -0.6647    0.7986   -3.7562 H   0  0  0  0  0  0  0  0  0  0  0  0
   -1.4949   -1.0484   -3.4195 N   0  0  0  0  0  4  0  0  0  0  0  0
   -1.6218   -1.4908   -2.5346 H   0  0  0  0  0  0  0  0  0  0  0  0
   -2.3313   -0.5725   -3.6834 H   0  0  0  0  0  0  0  0  0  0  0  0
   -1.2614   -1.7303   -4.1094 H   0  0  0  0  0  0  0  0  0  0  0  0
   -0.0217    2.8758   -0.0018 C   0  0  0  0  0  0  0  0  0  0  0  0
   -0.6105    3.1701   -0.7435 H   0  0  0  0  0  0  0  0  0  0  0  0
    0.9088    3.1892   -0.1436 H   0  0  0  0  0  0  0  0  0  0  0  0
   -0.3915    3.3220    0.9214 H   0  0  0  0  0  0  0  0  0  0  0  0
   -0.0100    1.3877    0.0150 C   0  0  0  0  0  0  0  0  0  0  0  0
   -1.1999    0.6866    0.0071 C   0  0  0  0  0  0  0  0  0  0  0  0
   -2.0668    1.1815    0.0054 H   0  0  0  0  0  0  0  0  0  0  0  0
   -1.1978   -0.6836   -0.0000 C   0  0  0  0  0  0  0  0  0  0  0  0
   -2.0680   -1.1921    0.0092 H   0  0  0  0  0  0  0  0  0  0  0  0
    0.0087   -1.3713   -0.0181 C   0  0  0  0  0  0  0  0  0  0  0  0
   -0.0066   -2.3802   -0.0458 H   0  0  0  0  0  0  0  0  0  0  0  0
    1.1978   -0.6975   -0.0000 C   0  0  0  0  0  0  0  0  0  0  0  0
    2.0806   -1.2015    0.0180 H   0  0  0  0  0  0  0  0  0  0  0  0
    1.2012    0.6781   -0.0040 C   0  0  0  0  0  0  0  0  0  0  0  0
    2.0594    1.1839   -0.0211 H   0  0  0  0  0  0  0  0  0  0  0  0
  1  5  1  0
  5  8  1  0
  1  2  1  0
  1  3  1  0
  1  4  1  0
  5  6  1  0
  5  7  1  0
  8  9  1  0
  8 10  1  0
  8 11  1  0
 12 16  1  0
 16 17  2  0
 17 19  1  0
 19 21  2  0
 21 23  1  0
 23 25  2  0
 25 16  1  0
 12 13  1  0
 12 14  1  0
 12 15  1  0
 17 18  1  0
 19 20  1  0
 21 22  1  0
 23 24  1  0
 25 26  1  0
M  CHG  1   8   1
M  END
>  <PDB_ID>  (3380) 
pdb5ta0

>  <RESIDUE_NAME>  (3380) 
LYS   PHE

>  <FRAG_NAME>  (3380) 
ETAM   MBZ

>  <FRAG_ATOM_NUM>  (3380) 
fragi: 11  fragj: 15

>  <atom.prop.CHAIN_ID>  (3380) 
A A A A A A A A A A A Z Z Z Z Z Z Z Z Z Z Z Z Z Z Z

>  <atom.prop.IS_HEAVY_ATOM>  (3380) 
1 0 0 0 1 0 0 1 0 0 0 1 0 0 0 1 1 0 1 0 1 0 1 0 1 0

>  <DIFUSE_FUNC_ATOM>  (3380) 
n/a

>  <FINAL_SINGLE_POINT_ENERGY>  (3380) 
0

>  <NONCOV_INTER_ENERGY_QM>  (3380) 
0

>  <FF_Energy>  (3380) 
-4.99

>  <QM_Energy>  (3380) 
-13.2

>  <source>  (3380) 
ETAM_MBZ

>  <Index>  (3380) 
37316

$$$$
ETAM-pdb5thq-C-LYS-213:MBZ-pdb5thq-C-PHE-209
     RDKit          3D

 26 25  0  0  0  0  0  0  0  0999 V2000
    1.7343   -1.2766    4.5586 C   0  0  0  0  0  0  0  0  0  0  0  0
    1.8105   -0.6810    3.7587 H   0  0  0  0  0  0  0  0  0  0  0  0
    2.6294   -1.3636    4.9955 H   0  0  0  0  0  0  0  0  0  0  0  0
    1.0470   -0.8148    5.2675 H   0  0  0  0  0  0  0  0  0  0  0  0
    1.2723   -2.6377    4.1137 C   0  0  0  0  0  0  0  0  0  0  0  0
    1.9251   -3.0111    3.4600 H   0  0  0  0  0  0  0  0  0  0  0  0
    1.2029   -3.2390    4.9057 H   0  0  0  0  0  0  0  0  0  0  0  0
   -0.0563   -2.5253    3.4678 N   0  0  0  0  0  4  0  0  0  0  0  0
   -0.0499   -3.0227    2.5992 H   0  0  0  0  0  0  0  0  0  0  0  0
   -0.7544   -2.9155    4.0685 H   0  0  0  0  0  0  0  0  0  0  0  0
   -0.2647   -1.5616    3.2971 H   0  0  0  0  0  0  0  0  0  0  0  0
    0.0153    2.8960   -0.0073 C   0  0  0  0  0  0  0  0  0  0  0  0
   -0.6665    3.2084   -0.6544 H   0  0  0  0  0  0  0  0  0  0  0  0
    0.9214    3.1956   -0.2731 H   0  0  0  0  0  0  0  0  0  0  0  0
   -0.2127    3.3494    0.9573 H   0  0  0  0  0  0  0  0  0  0  0  0
    0.0015    1.4001    0.0003 C   0  0  0  0  0  0  0  0  0  0  0  0
   -1.1938    0.6967    0.0028 C   0  0  0  0  0  0  0  0  0  0  0  0
   -2.0605    1.1864    0.0055 H   0  0  0  0  0  0  0  0  0  0  0  0
   -1.1989   -0.6949    0.0000 C   0  0  0  0  0  0  0  0  0  0  0  0
   -2.0783   -1.1865   -0.0011 H   0  0  0  0  0  0  0  0  0  0  0  0
   -0.0019   -1.3926    0.0006 C   0  0  0  0  0  0  0  0  0  0  0  0
   -0.0075   -2.3919    0.0008 H   0  0  0  0  0  0  0  0  0  0  0  0
    1.1989   -0.6990   -0.0000 C   0  0  0  0  0  0  0  0  0  0  0  0
    2.0796   -1.1976    0.0039 H   0  0  0  0  0  0  0  0  0  0  0  0
    1.1942    0.6896   -0.0037 C   0  0  0  0  0  0  0  0  0  0  0  0
    2.0644    1.1859   -0.0106 H   0  0  0  0  0  0  0  0  0  0  0  0
  1  5  1  0
  5  8  1  0
  1  2  1  0
  1  3  1  0
  1  4  1  0
  5  6  1  0
  5  7  1  0
  8  9  1  0
  8 10  1  0
  8 11  1  0
 12 16  1  0
 16 17  2  0
 17 19  1  0
 19 21  2  0
 21 23  1  0
 23 25  2  0
 25 16  1  0
 12 13  1  0
 12 14  1  0
 12 15  1  0
 17 18  1  0
 19 20  1  0
 21 22  1  0
 23 24  1  0
 25 26  1  0
M  CHG  1   8   1
M  END
>  <PDB_ID>  (3381) 
pdb5thq

>  <RESIDUE_NAME>  (3381) 
LYS   PHE

>  <FRAG_NAME>  (3381) 
ETAM   MBZ

>  <FRAG_ATOM_NUM>  (3381) 
fragi: 11  fragj: 15

>  <atom.prop.CHAIN_ID>  (3381) 
A A A A A A A A A A A Z Z Z Z Z Z Z Z Z Z Z Z Z Z Z

>  <atom.prop.IS_HEAVY_ATOM>  (3381) 
1 0 0 0 1 0 0 1 0 0 0 1 0 0 0 1 1 0 1 0 1 0 1 0 1 0

>  <DIFUSE_FUNC_ATOM>  (3381) 
n/a

>  <FINAL_SINGLE_POINT_ENERGY>  (3381) 
0

>  <NONCOV_INTER_ENERGY_QM>  (3381) 
0

>  <FF_Energy>  (3381) 
-3.75

>  <QM_Energy>  (3381) 
-8.97

>  <source>  (3381) 
ETAM_MBZ

>  <Index>  (3381) 
37388

$$$$
ETAM-pdb5thq-F-LYS-213:MBZ-pdb5thq-F-PHE-209
     RDKit          3D

 26 25  0  0  0  0  0  0  0  0999 V2000
    1.4860   -1.4941    4.5075 C   0  0  0  0  0  0  0  0  0  0  0  0
    2.0390   -0.8270    4.0160 H   0  0  0  0  0  0  0  0  0  0  0  0
    2.0736   -2.1457    4.9789 H   0  0  0  0  0  0  0  0  0  0  0  0
    0.8700   -0.9739    5.2410 H   0  0  0  0  0  0  0  0  0  0  0  0
    0.6404   -2.2612    3.4889 C   0  0  0  0  0  0  0  0  0  0  0  0
    1.2628   -2.6774    2.8026 H   0  0  0  0  0  0  0  0  0  0  0  0
    0.1757   -3.0274    3.9685 H   0  0  0  0  0  0  0  0  0  0  0  0
   -0.3874   -1.4452    2.7745 N   0  0  0  0  0  4  0  0  0  0  0  0
   -0.9146   -0.9223    3.4431 H   0  0  0  0  0  0  0  0  0  0  0  0
    0.0694   -0.8212    2.1428 H   0  0  0  0  0  0  0  0  0  0  0  0
   -0.9957   -2.0539    2.2668 H   0  0  0  0  0  0  0  0  0  0  0  0
   -0.0005    2.8666    0.0049 C   0  0  0  0  0  0  0  0  0  0  0  0
   -0.6965    3.1846   -0.6216 H   0  0  0  0  0  0  0  0  0  0  0  0
    0.8966    3.1824   -0.2656 H   0  0  0  0  0  0  0  0  0  0  0  0
   -0.2189    3.2861    0.9870 H   0  0  0  0  0  0  0  0  0  0  0  0
   -0.0001    1.3874   -0.0059 C   0  0  0  0  0  0  0  0  0  0  0  0
   -1.1900    0.6898    0.0079 C   0  0  0  0  0  0  0  0  0  0  0  0
   -2.0580    1.1833    0.0232 H   0  0  0  0  0  0  0  0  0  0  0  0
   -1.1973   -0.6912    0.0000 C   0  0  0  0  0  0  0  0  0  0  0  0
   -2.0748   -1.1865   -0.0012 H   0  0  0  0  0  0  0  0  0  0  0  0
   -0.0014   -1.3835   -0.0048 C   0  0  0  0  0  0  0  0  0  0  0  0
   -0.0047   -2.3845   -0.0122 H   0  0  0  0  0  0  0  0  0  0  0  0
    1.1973   -0.6906   -0.0000 C   0  0  0  0  0  0  0  0  0  0  0  0
    2.0775   -1.1927    0.0026 H   0  0  0  0  0  0  0  0  0  0  0  0
    1.1915    0.6880    0.0028 C   0  0  0  0  0  0  0  0  0  0  0  0
    2.0594    1.1889    0.0106 H   0  0  0  0  0  0  0  0  0  0  0  0
  1  5  1  0
  5  8  1  0
  1  2  1  0
  1  3  1  0
  1  4  1  0
  5  6  1  0
  5  7  1  0
  8  9  1  0
  8 10  1  0
  8 11  1  0
 12 16  1  0
 16 17  2  0
 17 19  1  0
 19 21  2  0
 21 23  1  0
 23 25  2  0
 25 16  1  0
 12 13  1  0
 12 14  1  0
 12 15  1  0
 17 18  1  0
 19 20  1  0
 21 22  1  0
 23 24  1  0
 25 26  1  0
M  CHG  1   8   1
M  END
>  <PDB_ID>  (3382) 
pdb5thq

>  <RESIDUE_NAME>  (3382) 
LYS   PHE

>  <FRAG_NAME>  (3382) 
ETAM   MBZ

>  <FRAG_ATOM_NUM>  (3382) 
fragi: 11  fragj: 15

>  <atom.prop.CHAIN_ID>  (3382) 
A A A A A A A A A A A Z Z Z Z Z Z Z Z Z Z Z Z Z Z Z

>  <atom.prop.IS_HEAVY_ATOM>  (3382) 
1 0 0 0 1 0 0 1 0 0 0 1 0 0 0 1 1 0 1 0 1 0 1 0 1 0

>  <DIFUSE_FUNC_ATOM>  (3382) 
n/a

>  <FINAL_SINGLE_POINT_ENERGY>  (3382) 
0

>  <NONCOV_INTER_ENERGY_QM>  (3382) 
0

>  <FF_Energy>  (3382) 
-3.83

>  <QM_Energy>  (3382) 
-12.93

>  <source>  (3382) 
ETAM_MBZ

>  <Index>  (3382) 
37392

$$$$
ETAM-pdb5ti9-C-LYS-225:MBZ-pdb5ti9-C-PHE-220
     RDKit          3D

 26 25  0  0  0  0  0  0  0  0999 V2000
    0.4244   -1.2605   -4.5094 C   0  0  0  0  0  0  0  0  0  0  0  0
   -0.0842   -1.1384   -3.6666 H   0  0  0  0  0  0  0  0  0  0  0  0
    0.9537   -2.0984   -4.4838 H   0  0  0  0  0  0  0  0  0  0  0  0
   -0.2730   -1.3004   -5.3461 H   0  0  0  0  0  0  0  0  0  0  0  0
    1.3825   -0.0904   -4.6694 C   0  0  0  0  0  0  0  0  0  0  0  0
    1.9450   -0.2428   -5.4871 H   0  0  0  0  0  0  0  0  0  0  0  0
    0.8484    0.7504   -4.7981 H   0  0  0  0  0  0  0  0  0  0  0  0
    2.2649    0.0654   -3.4890 N   0  0  0  0  0  4  0  0  0  0  0  0
    3.1774   -0.2859   -3.7040 H   0  0  0  0  0  0  0  0  0  0  0  0
    2.3307    1.0334   -3.2456 H   0  0  0  0  0  0  0  0  0  0  0  0
    1.8851   -0.4463   -2.7170 H   0  0  0  0  0  0  0  0  0  0  0  0
   -0.0027    2.9061   -0.0208 C   0  0  0  0  0  0  0  0  0  0  0  0
    0.7000    3.2250    0.5924 H   0  0  0  0  0  0  0  0  0  0  0  0
   -0.8976    3.2167    0.2539 H   0  0  0  0  0  0  0  0  0  0  0  0
    0.2042    3.3185   -1.0084 H   0  0  0  0  0  0  0  0  0  0  0  0
   -0.0005    1.4016    0.0080 C   0  0  0  0  0  0  0  0  0  0  0  0
   -1.2004    0.6892   -0.0014 C   0  0  0  0  0  0  0  0  0  0  0  0
   -2.0648    1.1825   -0.0102 H   0  0  0  0  0  0  0  0  0  0  0  0
   -1.2039   -0.6964   -0.0000 C   0  0  0  0  0  0  0  0  0  0  0  0
   -2.0772   -1.1951    0.0025 H   0  0  0  0  0  0  0  0  0  0  0  0
    0.0018   -1.3918    0.0000 C   0  0  0  0  0  0  0  0  0  0  0  0
   -0.0032   -2.3915   -0.0000 H   0  0  0  0  0  0  0  0  0  0  0  0
    1.2039   -0.6974   -0.0000 C   0  0  0  0  0  0  0  0  0  0  0  0
    2.0838   -1.1946    0.0059 H   0  0  0  0  0  0  0  0  0  0  0  0
    1.1991    0.6948   -0.0066 C   0  0  0  0  0  0  0  0  0  0  0  0
    2.0654    1.1917   -0.0230 H   0  0  0  0  0  0  0  0  0  0  0  0
  1  5  1  0
  5  8  1  0
  1  2  1  0
  1  3  1  0
  1  4  1  0
  5  6  1  0
  5  7  1  0
  8  9  1  0
  8 10  1  0
  8 11  1  0
 12 16  1  0
 16 17  2  0
 17 19  1  0
 19 21  2  0
 21 23  1  0
 23 25  2  0
 25 16  1  0
 12 13  1  0
 12 14  1  0
 12 15  1  0
 17 18  1  0
 19 20  1  0
 21 22  1  0
 23 24  1  0
 25 26  1  0
M  CHG  1   8   1
M  END
>  <PDB_ID>  (3383) 
pdb5ti9

>  <RESIDUE_NAME>  (3383) 
LYS   PHE

>  <FRAG_NAME>  (3383) 
ETAM   MBZ

>  <FRAG_ATOM_NUM>  (3383) 
fragi: 11  fragj: 15

>  <atom.prop.CHAIN_ID>  (3383) 
A A A A A A A A A A A Z Z Z Z Z Z Z Z Z Z Z Z Z Z Z

>  <atom.prop.IS_HEAVY_ATOM>  (3383) 
1 0 0 0 1 0 0 1 0 0 0 1 0 0 0 1 1 0 1 0 1 0 1 0 1 0

>  <DIFUSE_FUNC_ATOM>  (3383) 
n/a

>  <FINAL_SINGLE_POINT_ENERGY>  (3383) 
0

>  <NONCOV_INTER_ENERGY_QM>  (3383) 
0

>  <FF_Energy>  (3383) 
-4.77

>  <QM_Energy>  (3383) 
-10.17

>  <source>  (3383) 
ETAM_MBZ

>  <Index>  (3383) 
37406

$$$$
ETAM-pdb5ti9-E-LYS-360:MBZ-pdb5ti9-E-PHE-366
     RDKit          3D

 26 25  0  0  0  0  0  0  0  0999 V2000
   -1.3046   -0.8506   -3.9921 C   0  0  0  0  0  0  0  0  0  0  0  0
   -1.3506    0.0325   -4.4402 H   0  0  0  0  0  0  0  0  0  0  0  0
   -1.4266   -0.7594   -3.0128 H   0  0  0  0  0  0  0  0  0  0  0  0
   -2.1008   -1.4825   -4.3856 H   0  0  0  0  0  0  0  0  0  0  0  0
    0.0515   -1.4689   -4.2627 C   0  0  0  0  0  0  0  0  0  0  0  0
    0.1437   -2.3054   -3.7159 H   0  0  0  0  0  0  0  0  0  0  0  0
    0.1133   -1.7091   -5.2350 H   0  0  0  0  0  0  0  0  0  0  0  0
    1.1566   -0.5376   -3.9200 N   0  0  0  0  0  4  0  0  0  0  0  0
    1.9767   -0.7908   -4.4341 H   0  0  0  0  0  0  0  0  0  0  0  0
    0.8900    0.3964   -4.1558 H   0  0  0  0  0  0  0  0  0  0  0  0
    1.3466   -0.5925   -2.9397 H   0  0  0  0  0  0  0  0  0  0  0  0
    0.0020    2.8991   -0.0171 C   0  0  0  0  0  0  0  0  0  0  0  0
   -0.7222    3.2090   -0.6202 H   0  0  0  0  0  0  0  0  0  0  0  0
    0.8865    3.2098   -0.3413 H   0  0  0  0  0  0  0  0  0  0  0  0
   -0.1664    3.3636    0.9545 H   0  0  0  0  0  0  0  0  0  0  0  0
   -0.0010    1.4136    0.0038 C   0  0  0  0  0  0  0  0  0  0  0  0
   -1.2016    0.7076   -0.0055 C   0  0  0  0  0  0  0  0  0  0  0  0
   -2.0691    1.1861   -0.0175 H   0  0  0  0  0  0  0  0  0  0  0  0
   -1.2133   -0.7166   -0.0000 C   0  0  0  0  0  0  0  0  0  0  0  0
   -2.0884   -1.1929    0.0006 H   0  0  0  0  0  0  0  0  0  0  0  0
   -0.0057   -1.4097    0.0056 C   0  0  0  0  0  0  0  0  0  0  0  0
    0.0042   -2.4044    0.0128 H   0  0  0  0  0  0  0  0  0  0  0  0
    1.2133   -0.6968    0.0000 C   0  0  0  0  0  0  0  0  0  0  0  0
    2.0887   -1.1969    0.0004 H   0  0  0  0  0  0  0  0  0  0  0  0
    1.2082    0.7020   -0.0039 C   0  0  0  0  0  0  0  0  0  0  0  0
    2.0709    1.2000   -0.0134 H   0  0  0  0  0  0  0  0  0  0  0  0
  1  5  1  0
  5  8  1  0
  1  2  1  0
  1  3  1  0
  1  4  1  0
  5  6  1  0
  5  7  1  0
  8  9  1  0
  8 10  1  0
  8 11  1  0
 12 16  1  0
 16 17  2  0
 17 19  1  0
 19 21  2  0
 21 23  1  0
 23 25  2  0
 25 16  1  0
 12 13  1  0
 12 14  1  0
 12 15  1  0
 17 18  1  0
 19 20  1  0
 21 22  1  0
 23 24  1  0
 25 26  1  0
M  CHG  1   8   1
M  END
>  <PDB_ID>  (3384) 
pdb5ti9

>  <RESIDUE_NAME>  (3384) 
LYS   PHE

>  <FRAG_NAME>  (3384) 
ETAM   MBZ

>  <FRAG_ATOM_NUM>  (3384) 
fragi: 11  fragj: 15

>  <atom.prop.CHAIN_ID>  (3384) 
A A A A A A A A A A A Z Z Z Z Z Z Z Z Z Z Z Z Z Z Z

>  <atom.prop.IS_HEAVY_ATOM>  (3384) 
1 0 0 0 1 0 0 1 0 0 0 1 0 0 0 1 1 0 1 0 1 0 1 0 1 0

>  <DIFUSE_FUNC_ATOM>  (3384) 
n/a

>  <FINAL_SINGLE_POINT_ENERGY>  (3384) 
0

>  <NONCOV_INTER_ENERGY_QM>  (3384) 
0

>  <FF_Energy>  (3384) 
-5.96

>  <QM_Energy>  (3384) 
-11.39

>  <source>  (3384) 
ETAM_MBZ

>  <Index>  (3384) 
37412

$$$$
ETAM-pdb5tih-A-LYS-246:MBZ-pdb5tih-A-PHE-277
     RDKit          3D

 26 25  0  0  0  0  0  0  0  0999 V2000
    0.3139   -0.7415   -5.1796 C   0  0  0  0  0  0  0  0  0  0  0  0
    0.7054   -1.6185   -4.9209 H   0  0  0  0  0  0  0  0  0  0  0  0
    1.0338   -0.0735   -5.3372 H   0  0  0  0  0  0  0  0  0  0  0  0
   -0.2651   -0.8655   -6.0948 H   0  0  0  0  0  0  0  0  0  0  0  0
   -0.5641   -0.2528   -4.0607 C   0  0  0  0  0  0  0  0  0  0  0  0
   -1.0845    0.5393   -4.3724 H   0  0  0  0  0  0  0  0  0  0  0  0
   -1.1887   -0.9817   -3.7885 H   0  0  0  0  0  0  0  0  0  0  0  0
    0.2725    0.1320   -2.9074 N   0  0  0  0  0  4  0  0  0  0  0  0
    1.0056    0.7434   -3.2113 H   0  0  0  0  0  0  0  0  0  0  0  0
   -0.2897    0.6035   -2.2249 H   0  0  0  0  0  0  0  0  0  0  0  0
    0.6751   -0.6868   -2.4941 H   0  0  0  0  0  0  0  0  0  0  0  0
    0.0044    2.8941    0.0030 C   0  0  0  0  0  0  0  0  0  0  0  0
   -0.7397    3.2044   -0.5700 H   0  0  0  0  0  0  0  0  0  0  0  0
    0.8781    3.1993   -0.3448 H   0  0  0  0  0  0  0  0  0  0  0  0
   -0.1322    3.3305    0.9924 H   0  0  0  0  0  0  0  0  0  0  0  0
    0.0006    1.3944   -0.0003 C   0  0  0  0  0  0  0  0  0  0  0  0
   -1.1915    0.6899   -0.0011 C   0  0  0  0  0  0  0  0  0  0  0  0
   -2.0593    1.1817   -0.0042 H   0  0  0  0  0  0  0  0  0  0  0  0
   -1.1950   -0.6931   -0.0000 C   0  0  0  0  0  0  0  0  0  0  0  0
   -2.0744   -1.1884    0.0018 H   0  0  0  0  0  0  0  0  0  0  0  0
   -0.0013   -1.3856   -0.0003 C   0  0  0  0  0  0  0  0  0  0  0  0
   -0.0047   -2.3872   -0.0007 H   0  0  0  0  0  0  0  0  0  0  0  0
    1.1950   -0.6938    0.0000 C   0  0  0  0  0  0  0  0  0  0  0  0
    2.0773   -1.1950    0.0003 H   0  0  0  0  0  0  0  0  0  0  0  0
    1.1921    0.6881    0.0017 C   0  0  0  0  0  0  0  0  0  0  0  0
    2.0619    1.1860    0.0038 H   0  0  0  0  0  0  0  0  0  0  0  0
  1  5  1  0
  5  8  1  0
  1  2  1  0
  1  3  1  0
  1  4  1  0
  5  6  1  0
  5  7  1  0
  8  9  1  0
  8 10  1  0
  8 11  1  0
 12 16  1  0
 16 17  2  0
 17 19  1  0
 19 21  2  0
 21 23  1  0
 23 25  2  0
 25 16  1  0
 12 13  1  0
 12 14  1  0
 12 15  1  0
 17 18  1  0
 19 20  1  0
 21 22  1  0
 23 24  1  0
 25 26  1  0
M  CHG  1   8   1
M  END
>  <PDB_ID>  (3385) 
pdb5tih

>  <RESIDUE_NAME>  (3385) 
LYS   PHE

>  <FRAG_NAME>  (3385) 
ETAM   MBZ

>  <FRAG_ATOM_NUM>  (3385) 
fragi: 11  fragj: 15

>  <atom.prop.CHAIN_ID>  (3385) 
A A A A A A A A A A A Z Z Z Z Z Z Z Z Z Z Z Z Z Z Z

>  <atom.prop.IS_HEAVY_ATOM>  (3385) 
1 0 0 0 1 0 0 1 0 0 0 1 0 0 0 1 1 0 1 0 1 0 1 0 1 0

>  <DIFUSE_FUNC_ATOM>  (3385) 
n/a

>  <FINAL_SINGLE_POINT_ENERGY>  (3385) 
0

>  <NONCOV_INTER_ENERGY_QM>  (3385) 
0

>  <FF_Energy>  (3385) 
-9.11

>  <QM_Energy>  (3385) 
-17.88

>  <source>  (3385) 
ETAM_MBZ

>  <Index>  (3385) 
37421

$$$$
ETAM-pdb5tj8-A-LYS-688:MBZ-pdb5tj8-A-PHE-672
     RDKit          3D

 26 25  0  0  0  0  0  0  0  0999 V2000
    4.1484    1.9615   -2.6379 C   0  0  0  0  0  0  0  0  0  0  0  0
    4.7470    1.6283   -3.3629 H   0  0  0  0  0  0  0  0  0  0  0  0
    4.4498    1.6041   -1.7568 H   0  0  0  0  0  0  0  0  0  0  0  0
    4.1957    3.0502   -2.6133 H   0  0  0  0  0  0  0  0  0  0  0  0
    2.7454    1.4723   -2.9050 C   0  0  0  0  0  0  0  0  0  0  0  0
    2.1123    1.9159   -2.2645 H   0  0  0  0  0  0  0  0  0  0  0  0
    2.4815    1.7177   -3.8422 H   0  0  0  0  0  0  0  0  0  0  0  0
    2.6331   -0.0107   -2.7450 N   0  0  0  0  0  4  0  0  0  0  0  0
    1.8675   -0.3420   -3.2925 H   0  0  0  0  0  0  0  0  0  0  0  0
    3.4798   -0.4389   -3.0547 H   0  0  0  0  0  0  0  0  0  0  0  0
    2.4779   -0.2257   -1.7823 H   0  0  0  0  0  0  0  0  0  0  0  0
   -0.0050    2.8738    0.0103 C   0  0  0  0  0  0  0  0  0  0  0  0
   -0.4933    3.1889   -0.7894 H   0  0  0  0  0  0  0  0  0  0  0  0
    0.9334    3.1852    0.0063 H   0  0  0  0  0  0  0  0  0  0  0  0
   -0.4943    3.2926    0.8896 H   0  0  0  0  0  0  0  0  0  0  0  0
   -0.0011    1.3827   -0.0037 C   0  0  0  0  0  0  0  0  0  0  0  0
   -1.1809    0.6873    0.0006 C   0  0  0  0  0  0  0  0  0  0  0  0
   -2.0528    1.1809    0.0033 H   0  0  0  0  0  0  0  0  0  0  0  0
   -1.1867   -0.6849   -0.0000 C   0  0  0  0  0  0  0  0  0  0  0  0
   -2.0681   -1.1817   -0.0004 H   0  0  0  0  0  0  0  0  0  0  0  0
    0.0003   -1.3761    0.0012 C   0  0  0  0  0  0  0  0  0  0  0  0
   -0.0073   -2.3803    0.0022 H   0  0  0  0  0  0  0  0  0  0  0  0
    1.1867   -0.6910   -0.0000 C   0  0  0  0  0  0  0  0  0  0  0  0
    2.0723   -1.1911   -0.0006 H   0  0  0  0  0  0  0  0  0  0  0  0
    1.1817    0.6819    0.0019 C   0  0  0  0  0  0  0  0  0  0  0  0
    2.0543    1.1826    0.0062 H   0  0  0  0  0  0  0  0  0  0  0  0
  1  5  1  0
  5  8  1  0
  1  2  1  0
  1  3  1  0
  1  4  1  0
  5  6  1  0
  5  7  1  0
  8  9  1  0
  8 10  1  0
  8 11  1  0
 12 16  1  0
 16 17  2  0
 17 19  1  0
 19 21  2  0
 21 23  1  0
 23 25  2  0
 25 16  1  0
 12 13  1  0
 12 14  1  0
 12 15  1  0
 17 18  1  0
 19 20  1  0
 21 22  1  0
 23 24  1  0
 25 26  1  0
M  CHG  1   8   1
M  END
>  <PDB_ID>  (3386) 
pdb5tj8

>  <RESIDUE_NAME>  (3386) 
LYS   PHE

>  <FRAG_NAME>  (3386) 
ETAM   MBZ

>  <FRAG_ATOM_NUM>  (3386) 
fragi: 11  fragj: 15

>  <atom.prop.CHAIN_ID>  (3386) 
A A A A A A A A A A A Z Z Z Z Z Z Z Z Z Z Z Z Z Z Z

>  <atom.prop.IS_HEAVY_ATOM>  (3386) 
1 0 0 0 1 0 0 1 0 0 0 1 0 0 0 1 1 0 1 0 1 0 1 0 1 0

>  <DIFUSE_FUNC_ATOM>  (3386) 
n/a

>  <FINAL_SINGLE_POINT_ENERGY>  (3386) 
0

>  <NONCOV_INTER_ENERGY_QM>  (3386) 
0

>  <FF_Energy>  (3386) 
-3.7

>  <QM_Energy>  (3386) 
-10.77

>  <source>  (3386) 
ETAM_MBZ

>  <Index>  (3386) 
37424

$$$$
ETAM-pdb5tp1-D-LYS-125:MBZ-pdb5tp1-D-PHE-121
     RDKit          3D

 26 25  0  0  0  0  0  0  0  0999 V2000
    3.6520   -1.7616    3.7883 C   0  0  0  0  0  0  0  0  0  0  0  0
    4.0010   -0.9663    3.3052 H   0  0  0  0  0  0  0  0  0  0  0  0
    4.3946   -2.3783    4.0245 H   0  0  0  0  0  0  0  0  0  0  0  0
    3.1608   -1.4315    4.7036 H   0  0  0  0  0  0  0  0  0  0  0  0
    2.6836   -2.4957    2.8777 C   0  0  0  0  0  0  0  0  0  0  0  0
    2.2471   -3.2372    3.3955 H   0  0  0  0  0  0  0  0  0  0  0  0
    1.9744   -1.8550    2.5712 H   0  0  0  0  0  0  0  0  0  0  0  0
    3.3689   -3.0701    1.6869 N   0  0  0  0  0  4  0  0  0  0  0  0
    2.9485   -2.7075    0.8558 H   0  0  0  0  0  0  0  0  0  0  0  0
    4.3359   -2.8204    1.7093 H   0  0  0  0  0  0  0  0  0  0  0  0
    3.2790   -4.0658    1.7011 H   0  0  0  0  0  0  0  0  0  0  0  0
   -0.0024    2.9006    0.0082 C   0  0  0  0  0  0  0  0  0  0  0  0
   -0.7274    3.2061   -0.5879 H   0  0  0  0  0  0  0  0  0  0  0  0
    0.8810    3.2076   -0.3087 H   0  0  0  0  0  0  0  0  0  0  0  0
   -0.1742    3.3318    0.9945 H   0  0  0  0  0  0  0  0  0  0  0  0
    0.0002    1.3955    0.0017 C   0  0  0  0  0  0  0  0  0  0  0  0
   -1.1919    0.6860   -0.0019 C   0  0  0  0  0  0  0  0  0  0  0  0
   -2.0606    1.1790   -0.0070 H   0  0  0  0  0  0  0  0  0  0  0  0
   -1.1943   -0.6936   -0.0000 C   0  0  0  0  0  0  0  0  0  0  0  0
   -2.0732   -1.1905    0.0021 H   0  0  0  0  0  0  0  0  0  0  0  0
   -0.0008   -1.3836    0.0000 C   0  0  0  0  0  0  0  0  0  0  0  0
   -0.0040   -2.3863   -0.0009 H   0  0  0  0  0  0  0  0  0  0  0  0
    1.1943   -0.6930    0.0000 C   0  0  0  0  0  0  0  0  0  0  0  0
    2.0777   -1.1944    0.0014 H   0  0  0  0  0  0  0  0  0  0  0  0
    1.1926    0.6886    0.0002 C   0  0  0  0  0  0  0  0  0  0  0  0
    2.0615    1.1871   -0.0014 H   0  0  0  0  0  0  0  0  0  0  0  0
  1  5  1  0
  5  8  1  0
  1  2  1  0
  1  3  1  0
  1  4  1  0
  5  6  1  0
  5  7  1  0
  8  9  1  0
  8 10  1  0
  8 11  1  0
 12 16  1  0
 16 17  2  0
 17 19  1  0
 19 21  2  0
 21 23  1  0
 23 25  2  0
 25 16  1  0
 12 13  1  0
 12 14  1  0
 12 15  1  0
 17 18  1  0
 19 20  1  0
 21 22  1  0
 23 24  1  0
 25 26  1  0
M  CHG  1   8   1
M  END
>  <PDB_ID>  (3387) 
pdb5tp1

>  <RESIDUE_NAME>  (3387) 
LYS   PHE

>  <FRAG_NAME>  (3387) 
ETAM   MBZ

>  <FRAG_ATOM_NUM>  (3387) 
fragi: 11  fragj: 15

>  <atom.prop.CHAIN_ID>  (3387) 
A A A A A A A A A A A Z Z Z Z Z Z Z Z Z Z Z Z Z Z Z

>  <atom.prop.IS_HEAVY_ATOM>  (3387) 
1 0 0 0 1 0 0 1 0 0 0 1 0 0 0 1 1 0 1 0 1 0 1 0 1 0

>  <DIFUSE_FUNC_ATOM>  (3387) 
n/a

>  <FINAL_SINGLE_POINT_ENERGY>  (3387) 
0

>  <NONCOV_INTER_ENERGY_QM>  (3387) 
0

>  <FF_Energy>  (3387) 
0.06

>  <QM_Energy>  (3387) 
-5.21

>  <source>  (3387) 
ETAM_MBZ

>  <Index>  (3387) 
37438

$$$$
ETAM-pdb5thq-D-LYS-11:MBZ-pdb5thq-D-PHE-85
     RDKit          3D

 26 25  0  0  0  0  0  0  0  0999 V2000
   -0.0818    1.4323    3.8656 C   0  0  0  0  0  0  0  0  0  0  0  0
   -0.1940    1.5400    4.8429 H   0  0  0  0  0  0  0  0  0  0  0  0
    0.2792    2.2562    3.4541 H   0  0  0  0  0  0  0  0  0  0  0  0
    0.6281    0.6236    3.6918 H   0  0  0  0  0  0  0  0  0  0  0  0
   -1.3832    1.0876    3.2436 C   0  0  0  0  0  0  0  0  0  0  0  0
   -1.9666    1.9287    3.1975 H   0  0  0  0  0  0  0  0  0  0  0  0
   -1.2268    0.8062    2.2712 H   0  0  0  0  0  0  0  0  0  0  0  0
   -2.1421    0.0277    3.9213 N   0  0  0  0  0  4  0  0  0  0  0  0
   -1.8883   -0.8668    3.5453 H   0  0  0  0  0  0  0  0  0  0  0  0
   -1.9411    0.0392    4.9032 H   0  0  0  0  0  0  0  0  0  0  0  0
   -3.1252    0.1731    3.7865 H   0  0  0  0  0  0  0  0  0  0  0  0
   -0.0009    2.9150    0.0263 C   0  0  0  0  0  0  0  0  0  0  0  0
    0.3787    3.2304   -0.8313 H   0  0  0  0  0  0  0  0  0  0  0  0
    0.5509    3.2103    0.7920 H   0  0  0  0  0  0  0  0  0  0  0  0
   -0.9875    3.3650    0.1369 H   0  0  0  0  0  0  0  0  0  0  0  0
   -0.0036    1.4055    0.0081 C   0  0  0  0  0  0  0  0  0  0  0  0
   -1.2022    0.6858   -0.0018 C   0  0  0  0  0  0  0  0  0  0  0  0
   -2.0693    1.1781   -0.0111 H   0  0  0  0  0  0  0  0  0  0  0  0
   -1.2044   -0.7002   -0.0000 C   0  0  0  0  0  0  0  0  0  0  0  0
   -2.0768   -1.1995    0.0109 H   0  0  0  0  0  0  0  0  0  0  0  0
    0.0036   -1.3927   -0.0110 C   0  0  0  0  0  0  0  0  0  0  0  0
    0.0030   -2.3911   -0.0273 H   0  0  0  0  0  0  0  0  0  0  0  0
    1.2044   -0.6908   -0.0000 C   0  0  0  0  0  0  0  0  0  0  0  0
    2.0864   -1.1929    0.0060 H   0  0  0  0  0  0  0  0  0  0  0  0
    1.2021    0.6923    0.0047 C   0  0  0  0  0  0  0  0  0  0  0  0
    2.0658    1.1949    0.0046 H   0  0  0  0  0  0  0  0  0  0  0  0
  1  5  1  0
  5  8  1  0
  1  2  1  0
  1  3  1  0
  1  4  1  0
  5  6  1  0
  5  7  1  0
  8  9  1  0
  8 10  1  0
  8 11  1  0
 12 16  1  0
 16 17  2  0
 17 19  1  0
 19 21  2  0
 21 23  1  0
 23 25  2  0
 25 16  1  0
 12 13  1  0
 12 14  1  0
 12 15  1  0
 17 18  1  0
 19 20  1  0
 21 22  1  0
 23 24  1  0
 25 26  1  0
M  CHG  1   8   1
M  END
>  <PDB_ID>  (3388) 
pdb5thq

>  <RESIDUE_NAME>  (3388) 
LYS   PHE

>  <FRAG_NAME>  (3388) 
ETAM   MBZ

>  <FRAG_ATOM_NUM>  (3388) 
fragi: 11  fragj: 15

>  <atom.prop.CHAIN_ID>  (3388) 
A A A A A A A A A A A Z Z Z Z Z Z Z Z Z Z Z Z Z Z Z

>  <atom.prop.IS_HEAVY_ATOM>  (3388) 
1 0 0 0 1 0 0 1 0 0 0 1 0 0 0 1 1 0 1 0 1 0 1 0 1 0

>  <DIFUSE_FUNC_ATOM>  (3388) 
n/a

>  <FINAL_SINGLE_POINT_ENERGY>  (3388) 
0

>  <NONCOV_INTER_ENERGY_QM>  (3388) 
0

>  <FF_Energy>  (3388) 
-0.99

>  <QM_Energy>  (3388) 
-8.14

>  <source>  (3388) 
ETAM_MBZ

>  <Index>  (3388) 
37445

$$$$
ETAM-pdb5ts5-B-LYS-312:MBZ-pdb5ts5-B-PHE-454
     RDKit          3D

 26 25  0  0  0  0  0  0  0  0999 V2000
    1.4526   -1.2935    3.9274 C   0  0  0  0  0  0  0  0  0  0  0  0
    2.3716   -1.2060    4.2888 H   0  0  0  0  0  0  0  0  0  0  0  0
    1.4105   -2.0017    3.2349 H   0  0  0  0  0  0  0  0  0  0  0  0
    0.7718   -1.5458    4.7404 H   0  0  0  0  0  0  0  0  0  0  0  0
    1.0497    0.0212    3.3015 C   0  0  0  0  0  0  0  0  0  0  0  0
    1.3529    0.0339    2.3400 H   0  0  0  0  0  0  0  0  0  0  0  0
    0.0435    0.0964    3.3127 H   0  0  0  0  0  0  0  0  0  0  0  0
    1.6296    1.1936    4.0069 N   0  0  0  0  0  4  0  0  0  0  0  0
    2.3372    0.8838    4.6420 H   0  0  0  0  0  0  0  0  0  0  0  0
    2.0324    1.8181    3.3377 H   0  0  0  0  0  0  0  0  0  0  0  0
    0.9091    1.6667    4.5137 H   0  0  0  0  0  0  0  0  0  0  0  0
   -0.0047    2.9016   -0.0054 C   0  0  0  0  0  0  0  0  0  0  0  0
    0.7069    3.2107    0.6049 H   0  0  0  0  0  0  0  0  0  0  0  0
   -0.8957    3.2062    0.2939 H   0  0  0  0  0  0  0  0  0  0  0  0
    0.1838    3.3404   -0.9852 H   0  0  0  0  0  0  0  0  0  0  0  0
   -0.0001    1.3966   -0.0035 C   0  0  0  0  0  0  0  0  0  0  0  0
   -1.1911    0.6895   -0.0024 C   0  0  0  0  0  0  0  0  0  0  0  0
   -2.0603    1.1808   -0.0046 H   0  0  0  0  0  0  0  0  0  0  0  0
   -1.1946   -0.6938    0.0000 C   0  0  0  0  0  0  0  0  0  0  0  0
   -2.0734   -1.1895    0.0003 H   0  0  0  0  0  0  0  0  0  0  0  0
   -0.0003   -1.3861    0.0037 C   0  0  0  0  0  0  0  0  0  0  0  0
   -0.0047   -2.3877    0.0085 H   0  0  0  0  0  0  0  0  0  0  0  0
    1.1946   -0.6954    0.0000 C   0  0  0  0  0  0  0  0  0  0  0  0
    2.0779   -1.1949   -0.0028 H   0  0  0  0  0  0  0  0  0  0  0  0
    1.1915    0.6891    0.0022 C   0  0  0  0  0  0  0  0  0  0  0  0
    2.0616    1.1864    0.0067 H   0  0  0  0  0  0  0  0  0  0  0  0
  1  5  1  0
  5  8  1  0
  1  2  1  0
  1  3  1  0
  1  4  1  0
  5  6  1  0
  5  7  1  0
  8  9  1  0
  8 10  1  0
  8 11  1  0
 12 16  1  0
 16 17  2  0
 17 19  1  0
 19 21  2  0
 21 23  1  0
 23 25  2  0
 25 16  1  0
 12 13  1  0
 12 14  1  0
 12 15  1  0
 17 18  1  0
 19 20  1  0
 21 22  1  0
 23 24  1  0
 25 26  1  0
M  CHG  1   8   1
M  END
>  <PDB_ID>  (3389) 
pdb5ts5

>  <RESIDUE_NAME>  (3389) 
LYS   PHE

>  <FRAG_NAME>  (3389) 
ETAM   MBZ

>  <FRAG_ATOM_NUM>  (3389) 
fragi: 11  fragj: 15

>  <atom.prop.CHAIN_ID>  (3389) 
A A A A A A A A A A A Z Z Z Z Z Z Z Z Z Z Z Z Z Z Z

>  <atom.prop.IS_HEAVY_ATOM>  (3389) 
1 0 0 0 1 0 0 1 0 0 0 1 0 0 0 1 1 0 1 0 1 0 1 0 1 0

>  <DIFUSE_FUNC_ATOM>  (3389) 
n/a

>  <FINAL_SINGLE_POINT_ENERGY>  (3389) 
0

>  <NONCOV_INTER_ENERGY_QM>  (3389) 
0

>  <FF_Energy>  (3389) 
-2.81

>  <QM_Energy>  (3389) 
-8.0

>  <source>  (3389) 
ETAM_MBZ

>  <Index>  (3389) 
37468

$$$$
ETAM-pdb5ts5-C-LYS-222:MBZ-pdb5ts5-C-PHE-438
     RDKit          3D

 26 25  0  0  0  0  0  0  0  0999 V2000
   -1.1694   -4.3432    3.2579 C   0  0  0  0  0  0  0  0  0  0  0  0
   -0.5930   -4.1781    2.4655 H   0  0  0  0  0  0  0  0  0  0  0  0
   -1.8720   -5.0131    3.0442 H   0  0  0  0  0  0  0  0  0  0  0  0
   -0.5523   -4.7241    4.0716 H   0  0  0  0  0  0  0  0  0  0  0  0
   -1.8455   -3.0383    3.6461 C   0  0  0  0  0  0  0  0  0  0  0  0
   -2.4271   -3.1947    4.4383 H   0  0  0  0  0  0  0  0  0  0  0  0
   -1.1488   -2.3600    3.8602 H   0  0  0  0  0  0  0  0  0  0  0  0
   -2.6822   -2.5416    2.5133 N   0  0  0  0  0  4  0  0  0  0  0  0
   -2.8992   -3.3041    1.9062 H   0  0  0  0  0  0  0  0  0  0  0  0
   -3.5256   -2.1481    2.8752 H   0  0  0  0  0  0  0  0  0  0  0  0
   -2.1738   -1.8447    2.0094 H   0  0  0  0  0  0  0  0  0  0  0  0
   -0.0045    2.9002    0.0100 C   0  0  0  0  0  0  0  0  0  0  0  0
    0.9029    3.2060    0.2588 H   0  0  0  0  0  0  0  0  0  0  0  0
   -0.6771    3.1982    0.6712 H   0  0  0  0  0  0  0  0  0  0  0  0
   -0.2574    3.3521   -0.9492 H   0  0  0  0  0  0  0  0  0  0  0  0
   -0.0002    1.3965   -0.0035 C   0  0  0  0  0  0  0  0  0  0  0  0
   -1.1921    0.6888    0.0022 C   0  0  0  0  0  0  0  0  0  0  0  0
   -2.0605    1.1801    0.0074 H   0  0  0  0  0  0  0  0  0  0  0  0
   -1.1945   -0.6947    0.0000 C   0  0  0  0  0  0  0  0  0  0  0  0
   -2.0727   -1.1909    0.0003 H   0  0  0  0  0  0  0  0  0  0  0  0
    0.0007   -1.3865   -0.0013 C   0  0  0  0  0  0  0  0  0  0  0  0
   -0.0031   -2.3882   -0.0034 H   0  0  0  0  0  0  0  0  0  0  0  0
    1.1945   -0.6944   -0.0000 C   0  0  0  0  0  0  0  0  0  0  0  0
    2.0786   -1.1931    0.0010 H   0  0  0  0  0  0  0  0  0  0  0  0
    1.1916    0.6903    0.0026 C   0  0  0  0  0  0  0  0  0  0  0  0
    2.0611    1.1873    0.0079 H   0  0  0  0  0  0  0  0  0  0  0  0
  1  5  1  0
  5  8  1  0
  1  2  1  0
  1  3  1  0
  1  4  1  0
  5  6  1  0
  5  7  1  0
  8  9  1  0
  8 10  1  0
  8 11  1  0
 12 16  1  0
 16 17  2  0
 17 19  1  0
 19 21  2  0
 21 23  1  0
 23 25  2  0
 25 16  1  0
 12 13  1  0
 12 14  1  0
 12 15  1  0
 17 18  1  0
 19 20  1  0
 21 22  1  0
 23 24  1  0
 25 26  1  0
M  CHG  1   8   1
M  END
>  <PDB_ID>  (3390) 
pdb5ts5

>  <RESIDUE_NAME>  (3390) 
LYS   PHE

>  <FRAG_NAME>  (3390) 
ETAM   MBZ

>  <FRAG_ATOM_NUM>  (3390) 
fragi: 11  fragj: 15

>  <atom.prop.CHAIN_ID>  (3390) 
A A A A A A A A A A A Z Z Z Z Z Z Z Z Z Z Z Z Z Z Z

>  <atom.prop.IS_HEAVY_ATOM>  (3390) 
1 0 0 0 1 0 0 1 0 0 0 1 0 0 0 1 1 0 1 0 1 0 1 0 1 0

>  <DIFUSE_FUNC_ATOM>  (3390) 
n/a

>  <FINAL_SINGLE_POINT_ENERGY>  (3390) 
0

>  <NONCOV_INTER_ENERGY_QM>  (3390) 
0

>  <FF_Energy>  (3390) 
-1.64

>  <QM_Energy>  (3390) 
-8.18

>  <source>  (3390) 
ETAM_MBZ

>  <Index>  (3390) 
37470

$$$$
ETAM-pdb5ts5-C-LYS-312:MBZ-pdb5ts5-C-PHE-454
     RDKit          3D

 26 25  0  0  0  0  0  0  0  0999 V2000
    1.2831   -1.4913    4.0303 C   0  0  0  0  0  0  0  0  0  0  0  0
    2.2310   -1.4713    4.3249 H   0  0  0  0  0  0  0  0  0  0  0  0
    1.1318   -2.2345    3.3890 H   0  0  0  0  0  0  0  0  0  0  0  0
    0.6433   -1.6363    4.9008 H   0  0  0  0  0  0  0  0  0  0  0  0
    0.9595   -0.1837    3.3446 C   0  0  0  0  0  0  0  0  0  0  0  0
    1.1992   -0.2557    2.3688 H   0  0  0  0  0  0  0  0  0  0  0  0
   -0.0306   -0.0113    3.4150 H   0  0  0  0  0  0  0  0  0  0  0  0
    1.6936    0.9642    3.9396 N   0  0  0  0  0  4  0  0  0  0  0  0
    1.2456    1.2400    4.7904 H   0  0  0  0  0  0  0  0  0  0  0  0
    2.6365    0.6926    4.1305 H   0  0  0  0  0  0  0  0  0  0  0  0
    1.6903    1.7304    3.2968 H   0  0  0  0  0  0  0  0  0  0  0  0
    0.0073    2.9007   -0.0093 C   0  0  0  0  0  0  0  0  0  0  0  0
    0.7394    3.2075    0.5776 H   0  0  0  0  0  0  0  0  0  0  0  0
   -0.8724    3.2139    0.3129 H   0  0  0  0  0  0  0  0  0  0  0  0
    0.1710    3.3310   -0.9973 H   0  0  0  0  0  0  0  0  0  0  0  0
    0.0003    1.3963    0.0001 C   0  0  0  0  0  0  0  0  0  0  0  0
   -1.1929    0.6918   -0.0037 C   0  0  0  0  0  0  0  0  0  0  0  0
   -2.0599    1.1823   -0.0102 H   0  0  0  0  0  0  0  0  0  0  0  0
   -1.1958   -0.6934   -0.0000 C   0  0  0  0  0  0  0  0  0  0  0  0
   -2.0735   -1.1886    0.0014 H   0  0  0  0  0  0  0  0  0  0  0  0
    0.0007   -1.3856    0.0037 C   0  0  0  0  0  0  0  0  0  0  0  0
   -0.0045   -2.3875    0.0083 H   0  0  0  0  0  0  0  0  0  0  0  0
    1.1958   -0.6947   -0.0000 C   0  0  0  0  0  0  0  0  0  0  0  0
    2.0785   -1.1958   -0.0011 H   0  0  0  0  0  0  0  0  0  0  0  0
    1.1919    0.6855   -0.0000 C   0  0  0  0  0  0  0  0  0  0  0  0
    2.0624    1.1852   -0.0005 H   0  0  0  0  0  0  0  0  0  0  0  0
  1  5  1  0
  5  8  1  0
  1  2  1  0
  1  3  1  0
  1  4  1  0
  5  6  1  0
  5  7  1  0
  8  9  1  0
  8 10  1  0
  8 11  1  0
 12 16  1  0
 16 17  2  0
 17 19  1  0
 19 21  2  0
 21 23  1  0
 23 25  2  0
 25 16  1  0
 12 13  1  0
 12 14  1  0
 12 15  1  0
 17 18  1  0
 19 20  1  0
 21 22  1  0
 23 24  1  0
 25 26  1  0
M  CHG  1   8   1
M  END
>  <PDB_ID>  (3391) 
pdb5ts5

>  <RESIDUE_NAME>  (3391) 
LYS   PHE

>  <FRAG_NAME>  (3391) 
ETAM   MBZ

>  <FRAG_ATOM_NUM>  (3391) 
fragi: 11  fragj: 15

>  <atom.prop.CHAIN_ID>  (3391) 
A A A A A A A A A A A Z Z Z Z Z Z Z Z Z Z Z Z Z Z Z

>  <atom.prop.IS_HEAVY_ATOM>  (3391) 
1 0 0 0 1 0 0 1 0 0 0 1 0 0 0 1 1 0 1 0 1 0 1 0 1 0

>  <DIFUSE_FUNC_ATOM>  (3391) 
n/a

>  <FINAL_SINGLE_POINT_ENERGY>  (3391) 
0

>  <NONCOV_INTER_ENERGY_QM>  (3391) 
0

>  <FF_Energy>  (3391) 
-3.27

>  <QM_Energy>  (3391) 
-8.59

>  <source>  (3391) 
ETAM_MBZ

>  <Index>  (3391) 
37472

$$$$
ETAM-pdb5ts5-D-LYS-312:MBZ-pdb5ts5-D-PHE-454
     RDKit          3D

 26 25  0  0  0  0  0  0  0  0999 V2000
    1.3992   -1.4849    4.0259 C   0  0  0  0  0  0  0  0  0  0  0  0
    2.3269   -1.3995    4.3715 H   0  0  0  0  0  0  0  0  0  0  0  0
    1.3350   -2.2379    3.3806 H   0  0  0  0  0  0  0  0  0  0  0  0
    0.7255   -1.6733    4.8618 H   0  0  0  0  0  0  0  0  0  0  0  0
    1.0257   -0.2050    3.3159 C   0  0  0  0  0  0  0  0  0  0  0  0
    1.3151   -0.2669    2.3528 H   0  0  0  0  0  0  0  0  0  0  0  0
    0.0239   -0.0967    3.3374 H   0  0  0  0  0  0  0  0  0  0  0  0
    1.6541    0.9919    3.9329 N   0  0  0  0  0  4  0  0  0  0  0  0
    2.1423    0.7210    4.7623 H   0  0  0  0  0  0  0  0  0  0  0  0
    2.2970    1.4016    3.2857 H   0  0  0  0  0  0  0  0  0  0  0  0
    0.9446    1.6575    4.1660 H   0  0  0  0  0  0  0  0  0  0  0  0
   -0.0047    2.8958   -0.0130 C   0  0  0  0  0  0  0  0  0  0  0  0
    0.7217    3.2124    0.5772 H   0  0  0  0  0  0  0  0  0  0  0  0
   -0.8886    3.2042    0.3033 H   0  0  0  0  0  0  0  0  0  0  0  0
    0.1613    3.3268   -1.0003 H   0  0  0  0  0  0  0  0  0  0  0  0
    0.0004    1.3952   -0.0008 C   0  0  0  0  0  0  0  0  0  0  0  0
   -1.1909    0.6880   -0.0045 C   0  0  0  0  0  0  0  0  0  0  0  0
   -2.0597    1.1808   -0.0115 H   0  0  0  0  0  0  0  0  0  0  0  0
   -1.1950   -0.6931   -0.0000 C   0  0  0  0  0  0  0  0  0  0  0  0
   -2.0743   -1.1885    0.0012 H   0  0  0  0  0  0  0  0  0  0  0  0
   -0.0015   -1.3853    0.0045 C   0  0  0  0  0  0  0  0  0  0  0  0
   -0.0053   -2.3868    0.0107 H   0  0  0  0  0  0  0  0  0  0  0  0
    1.1950   -0.6942    0.0000 C   0  0  0  0  0  0  0  0  0  0  0  0
    2.0771   -1.1943   -0.0019 H   0  0  0  0  0  0  0  0  0  0  0  0
    1.1919    0.6894    0.0008 C   0  0  0  0  0  0  0  0  0  0  0  0
    2.0612    1.1863    0.0018 H   0  0  0  0  0  0  0  0  0  0  0  0
  1  5  1  0
  5  8  1  0
  1  2  1  0
  1  3  1  0
  1  4  1  0
  5  6  1  0
  5  7  1  0
  8  9  1  0
  8 10  1  0
  8 11  1  0
 12 16  1  0
 16 17  2  0
 17 19  1  0
 19 21  2  0
 21 23  1  0
 23 25  2  0
 25 16  1  0
 12 13  1  0
 12 14  1  0
 12 15  1  0
 17 18  1  0
 19 20  1  0
 21 22  1  0
 23 24  1  0
 25 26  1  0
M  CHG  1   8   1
M  END
>  <PDB_ID>  (3392) 
pdb5ts5

>  <RESIDUE_NAME>  (3392) 
LYS   PHE

>  <FRAG_NAME>  (3392) 
ETAM   MBZ

>  <FRAG_ATOM_NUM>  (3392) 
fragi: 11  fragj: 15

>  <atom.prop.CHAIN_ID>  (3392) 
A A A A A A A A A A A Z Z Z Z Z Z Z Z Z Z Z Z Z Z Z

>  <atom.prop.IS_HEAVY_ATOM>  (3392) 
1 0 0 0 1 0 0 1 0 0 0 1 0 0 0 1 1 0 1 0 1 0 1 0 1 0

>  <DIFUSE_FUNC_ATOM>  (3392) 
n/a

>  <FINAL_SINGLE_POINT_ENERGY>  (3392) 
0

>  <NONCOV_INTER_ENERGY_QM>  (3392) 
0

>  <FF_Energy>  (3392) 
-3.01

>  <QM_Energy>  (3392) 
-8.31

>  <source>  (3392) 
ETAM_MBZ

>  <Index>  (3392) 
37477

$$$$
ETAM-pdb5tsh-F-LYS-290:MBZ-pdb5tsh-F-PHE-360
     RDKit          3D

 26 25  0  0  0  0  0  0  0  0999 V2000
   -2.4811   -0.9851   -4.5643 C   0  0  0  0  0  0  0  0  0  0  0  0
   -3.0758   -0.5014   -5.2046 H   0  0  0  0  0  0  0  0  0  0  0  0
   -2.9157   -1.0230   -3.6653 H   0  0  0  0  0  0  0  0  0  0  0  0
   -2.3342   -2.0032   -4.9249 H   0  0  0  0  0  0  0  0  0  0  0  0
   -1.1781   -0.2221   -4.4420 C   0  0  0  0  0  0  0  0  0  0  0  0
   -0.4247   -0.8140   -4.7247 H   0  0  0  0  0  0  0  0  0  0  0  0
   -1.2123    0.5813   -5.0349 H   0  0  0  0  0  0  0  0  0  0  0  0
   -0.9605    0.2133   -3.0394 N   0  0  0  0  0  4  0  0  0  0  0  0
   -1.7921    0.0538   -2.5078 H   0  0  0  0  0  0  0  0  0  0  0  0
   -0.2049   -0.3091   -2.6420 H   0  0  0  0  0  0  0  0  0  0  0  0
   -0.7355    1.1875   -3.0238 H   0  0  0  0  0  0  0  0  0  0  0  0
   -0.0032    2.8898   -0.0022 C   0  0  0  0  0  0  0  0  0  0  0  0
    0.8113    3.2010    0.4645 H   0  0  0  0  0  0  0  0  0  0  0  0
   -0.8226    3.1974    0.4595 H   0  0  0  0  0  0  0  0  0  0  0  0
   -0.0011    3.3287   -0.9999 H   0  0  0  0  0  0  0  0  0  0  0  0
    0.0000    1.3917   -0.0003 C   0  0  0  0  0  0  0  0  0  0  0  0
   -1.1898    0.6882   -0.0003 C   0  0  0  0  0  0  0  0  0  0  0  0
   -2.0584    1.1825   -0.0021 H   0  0  0  0  0  0  0  0  0  0  0  0
   -1.1947   -0.6893    0.0000 C   0  0  0  0  0  0  0  0  0  0  0  0
   -2.0748   -1.1861    0.0007 H   0  0  0  0  0  0  0  0  0  0  0  0
   -0.0021   -1.3839    0.0005 C   0  0  0  0  0  0  0  0  0  0  0  0
   -0.0074   -2.3851    0.0006 H   0  0  0  0  0  0  0  0  0  0  0  0
    1.1947   -0.6941   -0.0000 C   0  0  0  0  0  0  0  0  0  0  0  0
    2.0764   -1.1950    0.0014 H   0  0  0  0  0  0  0  0  0  0  0  0
    1.1918    0.6874    0.0001 C   0  0  0  0  0  0  0  0  0  0  0  0
    2.0613    1.1853   -0.0005 H   0  0  0  0  0  0  0  0  0  0  0  0
  1  5  1  0
  5  8  1  0
  1  2  1  0
  1  3  1  0
  1  4  1  0
  5  6  1  0
  5  7  1  0
  8  9  1  0
  8 10  1  0
  8 11  1  0
 12 16  1  0
 16 17  2  0
 17 19  1  0
 19 21  2  0
 21 23  1  0
 23 25  2  0
 25 16  1  0
 12 13  1  0
 12 14  1  0
 12 15  1  0
 17 18  1  0
 19 20  1  0
 21 22  1  0
 23 24  1  0
 25 26  1  0
M  CHG  1   8   1
M  END
>  <PDB_ID>  (3393) 
pdb5tsh

>  <RESIDUE_NAME>  (3393) 
LYS   PHE

>  <FRAG_NAME>  (3393) 
ETAM   MBZ

>  <FRAG_ATOM_NUM>  (3393) 
fragi: 11  fragj: 15

>  <atom.prop.CHAIN_ID>  (3393) 
A A A A A A A A A A A Z Z Z Z Z Z Z Z Z Z Z Z Z Z Z

>  <atom.prop.IS_HEAVY_ATOM>  (3393) 
1 0 0 0 1 0 0 1 0 0 0 1 0 0 0 1 1 0 1 0 1 0 1 0 1 0

>  <DIFUSE_FUNC_ATOM>  (3393) 
n/a

>  <FINAL_SINGLE_POINT_ENERGY>  (3393) 
0

>  <NONCOV_INTER_ENERGY_QM>  (3393) 
0

>  <FF_Energy>  (3393) 
-7.55

>  <QM_Energy>  (3393) 
-14.55

>  <source>  (3393) 
ETAM_MBZ

>  <Index>  (3393) 
37483

$$$$
ETAM-pdb5tv1-A-LYS-227:MBZ-pdb5tv1-A-PHE-191
     RDKit          3D

 26 25  0  0  0  0  0  0  0  0999 V2000
    3.5682   -3.0431   -2.8663 C   0  0  0  0  0  0  0  0  0  0  0  0
    3.9722   -3.3971   -2.0297 H   0  0  0  0  0  0  0  0  0  0  0  0
    3.7713   -3.6450   -3.6314 H   0  0  0  0  0  0  0  0  0  0  0  0
    2.4874   -2.9812   -2.7395 H   0  0  0  0  0  0  0  0  0  0  0  0
    4.1639   -1.6784   -3.1523 C   0  0  0  0  0  0  0  0  0  0  0  0
    5.1623   -1.7241   -3.0206 H   0  0  0  0  0  0  0  0  0  0  0  0
    3.9849   -1.4392   -4.1152 H   0  0  0  0  0  0  0  0  0  0  0  0
    3.6066   -0.6150   -2.2762 N   0  0  0  0  0  4  0  0  0  0  0  0
    4.1194   -0.5881   -1.4182 H   0  0  0  0  0  0  0  0  0  0  0  0
    3.6814    0.2689   -2.7380 H   0  0  0  0  0  0  0  0  0  0  0  0
    2.6454   -0.8121   -2.0845 H   0  0  0  0  0  0  0  0  0  0  0  0
   -0.0018    2.8594   -0.0006 C   0  0  0  0  0  0  0  0  0  0  0  0
   -0.7968    3.1679   -0.5098 H   0  0  0  0  0  0  0  0  0  0  0  0
    0.8349    3.1690   -0.4387 H   0  0  0  0  0  0  0  0  0  0  0  0
   -0.0454    3.2931    0.9984 H   0  0  0  0  0  0  0  0  0  0  0  0
   -0.0013    1.3828    0.0003 C   0  0  0  0  0  0  0  0  0  0  0  0
   -1.1984    0.6841   -0.0050 C   0  0  0  0  0  0  0  0  0  0  0  0
   -2.0620    1.1831   -0.0138 H   0  0  0  0  0  0  0  0  0  0  0  0
   -1.2064   -0.6922   -0.0000 C   0  0  0  0  0  0  0  0  0  0  0  0
   -2.0747   -1.1947    0.0066 H   0  0  0  0  0  0  0  0  0  0  0  0
    0.0036   -1.3777   -0.0023 C   0  0  0  0  0  0  0  0  0  0  0  0
    0.0031   -2.3809   -0.0062 H   0  0  0  0  0  0  0  0  0  0  0  0
    1.2064   -0.6829    0.0000 C   0  0  0  0  0  0  0  0  0  0  0  0
    2.0839   -1.1891   -0.0024 H   0  0  0  0  0  0  0  0  0  0  0  0
    1.1962    0.6859    0.0070 C   0  0  0  0  0  0  0  0  0  0  0  0
    2.0600    1.1963    0.0161 H   0  0  0  0  0  0  0  0  0  0  0  0
  1  5  1  0
  5  8  1  0
  1  2  1  0
  1  3  1  0
  1  4  1  0
  5  6  1  0
  5  7  1  0
  8  9  1  0
  8 10  1  0
  8 11  1  0
 12 16  1  0
 16 17  2  0
 17 19  1  0
 19 21  2  0
 21 23  1  0
 23 25  2  0
 25 16  1  0
 12 13  1  0
 12 14  1  0
 12 15  1  0
 17 18  1  0
 19 20  1  0
 21 22  1  0
 23 24  1  0
 25 26  1  0
M  CHG  1   8   1
M  END
>  <PDB_ID>  (3394) 
pdb5tv1

>  <RESIDUE_NAME>  (3394) 
LYS   PHE

>  <FRAG_NAME>  (3394) 
ETAM   MBZ

>  <FRAG_ATOM_NUM>  (3394) 
fragi: 11  fragj: 15

>  <atom.prop.CHAIN_ID>  (3394) 
A A A A A A A A A A A Z Z Z Z Z Z Z Z Z Z Z Z Z Z Z

>  <atom.prop.IS_HEAVY_ATOM>  (3394) 
1 0 0 0 1 0 0 1 0 0 0 1 0 0 0 1 1 0 1 0 1 0 1 0 1 0

>  <DIFUSE_FUNC_ATOM>  (3394) 
n/a

>  <FINAL_SINGLE_POINT_ENERGY>  (3394) 
0

>  <NONCOV_INTER_ENERGY_QM>  (3394) 
0

>  <FF_Energy>  (3394) 
-1.43

>  <QM_Energy>  (3394) 
-7.52

>  <source>  (3394) 
ETAM_MBZ

>  <Index>  (3394) 
37497

$$$$
ETAM-pdb5tuc-A-LYS-520:MBZ-pdb5tuc-A-PHE-525
     RDKit          3D

 26 25  0  0  0  0  0  0  0  0999 V2000
   -5.1150    0.4249    3.8880 C   0  0  0  0  0  0  0  0  0  0  0  0
   -5.9331    0.1212    3.4024 H   0  0  0  0  0  0  0  0  0  0  0  0
   -5.1185    1.4209    3.9633 H   0  0  0  0  0  0  0  0  0  0  0  0
   -5.1034   -0.0137    4.8858 H   0  0  0  0  0  0  0  0  0  0  0  0
   -3.9006    0.0133    3.0785 C   0  0  0  0  0  0  0  0  0  0  0  0
   -3.0711    0.1686    3.6286 H   0  0  0  0  0  0  0  0  0  0  0  0
   -3.9619   -0.9708    2.8712 H   0  0  0  0  0  0  0  0  0  0  0  0
   -3.7792    0.7697    1.7971 N   0  0  0  0  0  4  0  0  0  0  0  0
   -3.4362    1.6879    1.9883 H   0  0  0  0  0  0  0  0  0  0  0  0
   -3.1442    0.2918    1.1919 H   0  0  0  0  0  0  0  0  0  0  0  0
   -4.6771    0.8294    1.3634 H   0  0  0  0  0  0  0  0  0  0  0  0
    0.0069    2.8915    0.0088 C   0  0  0  0  0  0  0  0  0  0  0  0
   -0.8048    3.2063   -0.4582 H   0  0  0  0  0  0  0  0  0  0  0  0
    0.8286    3.2013   -0.4448 H   0  0  0  0  0  0  0  0  0  0  0  0
   -0.0003    3.3182    1.0117 H   0  0  0  0  0  0  0  0  0  0  0  0
    0.0024    1.3946   -0.0014 C   0  0  0  0  0  0  0  0  0  0  0  0
   -1.1918    0.6863    0.0014 C   0  0  0  0  0  0  0  0  0  0  0  0
   -2.0583    1.1808    0.0035 H   0  0  0  0  0  0  0  0  0  0  0  0
   -1.1949   -0.6921   -0.0000 C   0  0  0  0  0  0  0  0  0  0  0  0
   -2.0746   -1.1896    0.0008 H   0  0  0  0  0  0  0  0  0  0  0  0
   -0.0026   -1.3848   -0.0011 C   0  0  0  0  0  0  0  0  0  0  0  0
   -0.0064   -2.3869   -0.0031 H   0  0  0  0  0  0  0  0  0  0  0  0
    1.1949   -0.6947   -0.0000 C   0  0  0  0  0  0  0  0  0  0  0  0
    2.0769   -1.1946    0.0011 H   0  0  0  0  0  0  0  0  0  0  0  0
    1.1920    0.6907    0.0011 C   0  0  0  0  0  0  0  0  0  0  0  0
    2.0625    1.1861    0.0028 H   0  0  0  0  0  0  0  0  0  0  0  0
  1  5  1  0
  5  8  1  0
  1  2  1  0
  1  3  1  0
  1  4  1  0
  5  6  1  0
  5  7  1  0
  8  9  1  0
  8 10  1  0
  8 11  1  0
 12 16  1  0
 16 17  2  0
 17 19  1  0
 19 21  2  0
 21 23  1  0
 23 25  2  0
 25 16  1  0
 12 13  1  0
 12 14  1  0
 12 15  1  0
 17 18  1  0
 19 20  1  0
 21 22  1  0
 23 24  1  0
 25 26  1  0
M  CHG  1   8   1
M  END
>  <PDB_ID>  (3395) 
pdb5tuc

>  <RESIDUE_NAME>  (3395) 
LYS   PHE

>  <FRAG_NAME>  (3395) 
ETAM   MBZ

>  <FRAG_ATOM_NUM>  (3395) 
fragi: 11  fragj: 15

>  <atom.prop.CHAIN_ID>  (3395) 
A A A A A A A A A A A Z Z Z Z Z Z Z Z Z Z Z Z Z Z Z

>  <atom.prop.IS_HEAVY_ATOM>  (3395) 
1 0 0 0 1 0 0 1 0 0 0 1 0 0 0 1 1 0 1 0 1 0 1 0 1 0

>  <DIFUSE_FUNC_ATOM>  (3395) 
n/a

>  <FINAL_SINGLE_POINT_ENERGY>  (3395) 
0

>  <NONCOV_INTER_ENERGY_QM>  (3395) 
0

>  <FF_Energy>  (3395) 
0.53

>  <QM_Energy>  (3395) 
-5.7

>  <source>  (3395) 
ETAM_MBZ

>  <Index>  (3395) 
37510

$$$$
ETAM-pdb5tta-A-LYS-96:MBZ-pdb5tta-A-PHE-241
     RDKit          3D

 26 25  0  0  0  0  0  0  0  0999 V2000
   -0.2579    1.3890    4.0773 C   0  0  0  0  0  0  0  0  0  0  0  0
   -0.0802    1.9324    3.2639 H   0  0  0  0  0  0  0  0  0  0  0  0
    0.2430    1.7533    4.8544 H   0  0  0  0  0  0  0  0  0  0  0  0
   -1.3249    1.4233    4.2974 H   0  0  0  0  0  0  0  0  0  0  0  0
    0.2200   -0.0394    3.8201 C   0  0  0  0  0  0  0  0  0  0  0  0
   -0.0043   -0.6049    4.6214 H   0  0  0  0  0  0  0  0  0  0  0  0
   -0.2720   -0.4073    3.0228 H   0  0  0  0  0  0  0  0  0  0  0  0
    1.6925   -0.1205    3.5632 N   0  0  0  0  0  4  0  0  0  0  0  0
    2.1787    0.3570    4.2920 H   0  0  0  0  0  0  0  0  0  0  0  0
    1.9694   -1.0795    3.5438 H   0  0  0  0  0  0  0  0  0  0  0  0
    1.8954    0.3077    2.6843 H   0  0  0  0  0  0  0  0  0  0  0  0
   -0.0028    2.9115   -0.0013 C   0  0  0  0  0  0  0  0  0  0  0  0
    0.8876    3.2172    0.3019 H   0  0  0  0  0  0  0  0  0  0  0  0
   -0.7163    3.2131    0.6116 H   0  0  0  0  0  0  0  0  0  0  0  0
   -0.1928    3.3584   -0.9770 H   0  0  0  0  0  0  0  0  0  0  0  0
   -0.0007    1.4049   -0.0086 C   0  0  0  0  0  0  0  0  0  0  0  0
   -1.1945    0.6864    0.0028 C   0  0  0  0  0  0  0  0  0  0  0  0
   -2.0639    1.1756    0.0117 H   0  0  0  0  0  0  0  0  0  0  0  0
   -1.1977   -0.7034    0.0000 C   0  0  0  0  0  0  0  0  0  0  0  0
   -2.0715   -1.1993   -0.0045 H   0  0  0  0  0  0  0  0  0  0  0  0
    0.0063   -1.3944    0.0056 C   0  0  0  0  0  0  0  0  0  0  0  0
    0.0049   -2.3930    0.0128 H   0  0  0  0  0  0  0  0  0  0  0  0
    1.1977   -0.6939   -0.0000 C   0  0  0  0  0  0  0  0  0  0  0  0
    2.0848   -1.1838   -0.0026 H   0  0  0  0  0  0  0  0  0  0  0  0
    1.1889    0.7003    0.0001 C   0  0  0  0  0  0  0  0  0  0  0  0
    2.0609    1.1939    0.0053 H   0  0  0  0  0  0  0  0  0  0  0  0
  1  5  1  0
  5  8  1  0
  1  2  1  0
  1  3  1  0
  1  4  1  0
  5  6  1  0
  5  7  1  0
  8  9  1  0
  8 10  1  0
  8 11  1  0
 12 16  1  0
 16 17  2  0
 17 19  1  0
 19 21  2  0
 21 23  1  0
 23 25  2  0
 25 16  1  0
 12 13  1  0
 12 14  1  0
 12 15  1  0
 17 18  1  0
 19 20  1  0
 21 22  1  0
 23 24  1  0
 25 26  1  0
M  CHG  1   8   1
M  END
>  <PDB_ID>  (3396) 
pdb5tta

>  <RESIDUE_NAME>  (3396) 
LYS   PHE

>  <FRAG_NAME>  (3396) 
ETAM   MBZ

>  <FRAG_ATOM_NUM>  (3396) 
fragi: 11  fragj: 15

>  <atom.prop.CHAIN_ID>  (3396) 
A A A A A A A A A A A Z Z Z Z Z Z Z Z Z Z Z Z Z Z Z

>  <atom.prop.IS_HEAVY_ATOM>  (3396) 
1 0 0 0 1 0 0 1 0 0 0 1 0 0 0 1 1 0 1 0 1 0 1 0 1 0

>  <DIFUSE_FUNC_ATOM>  (3396) 
n/a

>  <FINAL_SINGLE_POINT_ENERGY>  (3396) 
0

>  <NONCOV_INTER_ENERGY_QM>  (3396) 
0

>  <FF_Energy>  (3396) 
-6.77

>  <QM_Energy>  (3396) 
-12.74

>  <source>  (3396) 
ETAM_MBZ

>  <Index>  (3396) 
37519

$$$$
ETAM-pdb5ttj-A-LYS-326:MBZ-pdb5ttj-A-PHE-450
     RDKit          3D

 26 25  0  0  0  0  0  0  0  0999 V2000
   -0.4292   -1.2933    3.6143 C   0  0  0  0  0  0  0  0  0  0  0  0
    0.2899   -1.9582    3.7579 H   0  0  0  0  0  0  0  0  0  0  0  0
   -1.0259   -1.5640    2.8730 H   0  0  0  0  0  0  0  0  0  0  0  0
   -1.0123   -1.1867    4.5291 H   0  0  0  0  0  0  0  0  0  0  0  0
    0.2200    0.0419    3.2440 C   0  0  0  0  0  0  0  0  0  0  0  0
    0.5006    0.0025    2.2704 H   0  0  0  0  0  0  0  0  0  0  0  0
   -0.4784    0.7720    3.3259 H   0  0  0  0  0  0  0  0  0  0  0  0
    1.4025    0.4068    4.0747 N   0  0  0  0  0  4  0  0  0  0  0  0
    2.1489   -0.2290    3.8841 H   0  0  0  0  0  0  0  0  0  0  0  0
    1.6893    1.3379    3.8508 H   0  0  0  0  0  0  0  0  0  0  0  0
    1.1555    0.3560    5.0415 H   0  0  0  0  0  0  0  0  0  0  0  0
   -0.0101    2.8863   -0.0355 C   0  0  0  0  0  0  0  0  0  0  0  0
    0.7122    3.2128    0.5517 H   0  0  0  0  0  0  0  0  0  0  0  0
   -0.8954    3.1974    0.2673 H   0  0  0  0  0  0  0  0  0  0  0  0
    0.1615    3.2948   -1.0314 H   0  0  0  0  0  0  0  0  0  0  0  0
   -0.0012    1.3912   -0.0038 C   0  0  0  0  0  0  0  0  0  0  0  0
   -1.1907    0.6811   -0.0053 C   0  0  0  0  0  0  0  0  0  0  0  0
   -2.0598    1.1740   -0.0115 H   0  0  0  0  0  0  0  0  0  0  0  0
   -1.1926   -0.6964   -0.0000 C   0  0  0  0  0  0  0  0  0  0  0  0
   -2.0712   -1.1944   -0.0005 H   0  0  0  0  0  0  0  0  0  0  0  0
   -0.0004   -1.3814    0.0075 C   0  0  0  0  0  0  0  0  0  0  0  0
    0.0009   -2.3841    0.0179 H   0  0  0  0  0  0  0  0  0  0  0  0
    1.1926   -0.6864    0.0000 C   0  0  0  0  0  0  0  0  0  0  0  0
    2.0772   -1.1888   -0.0049 H   0  0  0  0  0  0  0  0  0  0  0  0
    1.1923    0.6919    0.0017 C   0  0  0  0  0  0  0  0  0  0  0  0
    2.0586    1.1907    0.0056 H   0  0  0  0  0  0  0  0  0  0  0  0
  1  5  1  0
  5  8  1  0
  1  2  1  0
  1  3  1  0
  1  4  1  0
  5  6  1  0
  5  7  1  0
  8  9  1  0
  8 10  1  0
  8 11  1  0
 12 16  1  0
 16 17  2  0
 17 19  1  0
 19 21  2  0
 21 23  1  0
 23 25  2  0
 25 16  1  0
 12 13  1  0
 12 14  1  0
 12 15  1  0
 17 18  1  0
 19 20  1  0
 21 22  1  0
 23 24  1  0
 25 26  1  0
M  CHG  1   8   1
M  END
>  <PDB_ID>  (3397) 
pdb5ttj

>  <RESIDUE_NAME>  (3397) 
LYS   PHE

>  <FRAG_NAME>  (3397) 
ETAM   MBZ

>  <FRAG_ATOM_NUM>  (3397) 
fragi: 11  fragj: 15

>  <atom.prop.CHAIN_ID>  (3397) 
A A A A A A A A A A A Z Z Z Z Z Z Z Z Z Z Z Z Z Z Z

>  <atom.prop.IS_HEAVY_ATOM>  (3397) 
1 0 0 0 1 0 0 1 0 0 0 1 0 0 0 1 1 0 1 0 1 0 1 0 1 0

>  <DIFUSE_FUNC_ATOM>  (3397) 
n/a

>  <FINAL_SINGLE_POINT_ENERGY>  (3397) 
0

>  <NONCOV_INTER_ENERGY_QM>  (3397) 
0

>  <FF_Energy>  (3397) 
-3.33

>  <QM_Energy>  (3397) 
-10.01

>  <source>  (3397) 
ETAM_MBZ

>  <Index>  (3397) 
37530

$$$$
ETAM-pdb5txi-B-LYS-249:MBZ-pdb5txi-B-PHE-243
     RDKit          3D

 26 25  0  0  0  0  0  0  0  0999 V2000
   -1.7295    0.4525    3.9705 C   0  0  0  0  0  0  0  0  0  0  0  0
   -1.6132    0.6307    4.9380 H   0  0  0  0  0  0  0  0  0  0  0  0
   -2.4009   -0.2587    3.8175 H   0  0  0  0  0  0  0  0  0  0  0  0
   -2.0671    1.3670    3.4828 H   0  0  0  0  0  0  0  0  0  0  0  0
   -0.3886   -0.0118    3.3953 C   0  0  0  0  0  0  0  0  0  0  0  0
   -0.4682   -0.0968    2.4117 H   0  0  0  0  0  0  0  0  0  0  0  0
    0.3140    0.6428    3.6386 H   0  0  0  0  0  0  0  0  0  0  0  0
   -0.0271   -1.3590    3.9769 N   0  0  0  0  0  4  0  0  0  0  0  0
    0.5002   -1.2171    4.8090 H   0  0  0  0  0  0  0  0  0  0  0  0
   -0.8662   -1.8549    4.1814 H   0  0  0  0  0  0  0  0  0  0  0  0
    0.5144   -1.8614    3.3091 H   0  0  0  0  0  0  0  0  0  0  0  0
   -0.0274    2.9382    0.0245 C   0  0  0  0  0  0  0  0  0  0  0  0
    0.9013    3.2473    0.0112 H   0  0  0  0  0  0  0  0  0  0  0  0
   -0.5134    3.2196    0.8257 H   0  0  0  0  0  0  0  0  0  0  0  0
   -0.5399    3.3350   -0.8519 H   0  0  0  0  0  0  0  0  0  0  0  0
    0.0012    1.4092    0.0225 C   0  0  0  0  0  0  0  0  0  0  0  0
   -1.1941    0.6960    0.0035 C   0  0  0  0  0  0  0  0  0  0  0  0
   -2.0645    1.1741   -0.0090 H   0  0  0  0  0  0  0  0  0  0  0  0
   -1.2002   -0.7192    0.0000 C   0  0  0  0  0  0  0  0  0  0  0  0
   -2.0742   -1.2015    0.0110 H   0  0  0  0  0  0  0  0  0  0  0  0
    0.0054   -1.4059   -0.0166 C   0  0  0  0  0  0  0  0  0  0  0  0
    0.0095   -2.4043   -0.0413 H   0  0  0  0  0  0  0  0  0  0  0  0
    1.2002   -0.6996    0.0000 C   0  0  0  0  0  0  0  0  0  0  0  0
    2.0884   -1.1773    0.0201 H   0  0  0  0  0  0  0  0  0  0  0  0
    1.1874    0.7195   -0.0094 C   0  0  0  0  0  0  0  0  0  0  0  0
    2.0606    1.2018   -0.0400 H   0  0  0  0  0  0  0  0  0  0  0  0
  1  5  1  0
  5  8  1  0
  1  2  1  0
  1  3  1  0
  1  4  1  0
  5  6  1  0
  5  7  1  0
  8  9  1  0
  8 10  1  0
  8 11  1  0
 12 16  1  0
 16 17  2  0
 17 19  1  0
 19 21  2  0
 21 23  1  0
 23 25  2  0
 25 16  1  0
 12 13  1  0
 12 14  1  0
 12 15  1  0
 17 18  1  0
 19 20  1  0
 21 22  1  0
 23 24  1  0
 25 26  1  0
M  CHG  1   8   1
M  END
>  <PDB_ID>  (3398) 
pdb5txi

>  <RESIDUE_NAME>  (3398) 
LYS   PHE

>  <FRAG_NAME>  (3398) 
ETAM   MBZ

>  <FRAG_ATOM_NUM>  (3398) 
fragi: 11  fragj: 15

>  <atom.prop.CHAIN_ID>  (3398) 
A A A A A A A A A A A Z Z Z Z Z Z Z Z Z Z Z Z Z Z Z

>  <atom.prop.IS_HEAVY_ATOM>  (3398) 
1 0 0 0 1 0 0 1 0 0 0 1 0 0 0 1 1 0 1 0 1 0 1 0 1 0

>  <DIFUSE_FUNC_ATOM>  (3398) 
n/a

>  <FINAL_SINGLE_POINT_ENERGY>  (3398) 
0

>  <NONCOV_INTER_ENERGY_QM>  (3398) 
0

>  <FF_Energy>  (3398) 
-5.17

>  <QM_Energy>  (3398) 
-11.32

>  <source>  (3398) 
ETAM_MBZ

>  <Index>  (3398) 
37542

$$$$
ETAM-pdb5tz1-B-LYS-90:MBZ-pdb5tz1-B-PHE-233
     RDKit          3D

 26 25  0  0  0  0  0  0  0  0999 V2000
   -0.3646   -2.3445    2.8568 C   0  0  0  0  0  0  0  0  0  0  0  0
    0.4793   -1.9083    2.5582 H   0  0  0  0  0  0  0  0  0  0  0  0
   -0.7072   -2.9540    2.1478 H   0  0  0  0  0  0  0  0  0  0  0  0
   -0.1610   -2.9265    3.7556 H   0  0  0  0  0  0  0  0  0  0  0  0
   -1.4041   -1.2668    3.1122 C   0  0  0  0  0  0  0  0  0  0  0  0
   -1.7030   -0.8868    2.2319 H   0  0  0  0  0  0  0  0  0  0  0  0
   -2.1968   -1.6803    3.5696 H   0  0  0  0  0  0  0  0  0  0  0  0
   -0.8708   -0.1659    3.9622 N   0  0  0  0  0  4  0  0  0  0  0  0
    0.0922   -0.3406    4.1633 H   0  0  0  0  0  0  0  0  0  0  0  0
   -0.9599    0.7015    3.4744 H   0  0  0  0  0  0  0  0  0  0  0  0
   -1.3898   -0.1248    4.8156 H   0  0  0  0  0  0  0  0  0  0  0  0
    0.0651    2.8937   -0.1399 C   0  0  0  0  0  0  0  0  0  0  0  0
   -0.3033    3.0802   -1.0465 H   0  0  0  0  0  0  0  0  0  0  0  0
    1.0207    3.1721   -0.0944 H   0  0  0  0  0  0  0  0  0  0  0  0
   -0.4872    3.5105    0.5691 H   0  0  0  0  0  0  0  0  0  0  0  0
    0.0044    1.4031    0.0883 C   0  0  0  0  0  0  0  0  0  0  0  0
   -1.1845    0.6963   -0.0671 C   0  0  0  0  0  0  0  0  0  0  0  0
   -2.0340    1.1870   -0.2288 H   0  0  0  0  0  0  0  0  0  0  0  0
   -1.1927   -0.6863    0.0000 C   0  0  0  0  0  0  0  0  0  0  0  0
   -2.0770   -1.1765    0.0282 H   0  0  0  0  0  0  0  0  0  0  0  0
   -0.0040   -1.3898    0.0300 C   0  0  0  0  0  0  0  0  0  0  0  0
   -0.0147   -2.3871    0.0721 H   0  0  0  0  0  0  0  0  0  0  0  0
    1.1927   -0.7018   -0.0000 C   0  0  0  0  0  0  0  0  0  0  0  0
    2.0739   -1.2004    0.0171 H   0  0  0  0  0  0  0  0  0  0  0  0
    1.1840    0.6785   -0.0511 C   0  0  0  0  0  0  0  0  0  0  0  0
    2.0480    1.1751   -0.1932 H   0  0  0  0  0  0  0  0  0  0  0  0
  1  5  1  0
  5  8  1  0
  1  2  1  0
  1  3  1  0
  1  4  1  0
  5  6  1  0
  5  7  1  0
  8  9  1  0
  8 10  1  0
  8 11  1  0
 12 16  1  0
 16 17  2  0
 17 19  1  0
 19 21  2  0
 21 23  1  0
 23 25  2  0
 25 16  1  0
 12 13  1  0
 12 14  1  0
 12 15  1  0
 17 18  1  0
 19 20  1  0
 21 22  1  0
 23 24  1  0
 25 26  1  0
M  CHG  1   8   1
M  END
>  <PDB_ID>  (3399) 
pdb5tz1

>  <RESIDUE_NAME>  (3399) 
LYS   PHE

>  <FRAG_NAME>  (3399) 
ETAM   MBZ

>  <FRAG_ATOM_NUM>  (3399) 
fragi: 11  fragj: 15

>  <atom.prop.CHAIN_ID>  (3399) 
A A A A A A A A A A A Z Z Z Z Z Z Z Z Z Z Z Z Z Z Z

>  <atom.prop.IS_HEAVY_ATOM>  (3399) 
1 0 0 0 1 0 0 1 0 0 0 1 0 0 0 1 1 0 1 0 1 0 1 0 1 0

>  <DIFUSE_FUNC_ATOM>  (3399) 
n/a

>  <FINAL_SINGLE_POINT_ENERGY>  (3399) 
0

>  <NONCOV_INTER_ENERGY_QM>  (3399) 
0

>  <FF_Energy>  (3399) 
0.28

>  <QM_Energy>  (3399) 
-7.78

>  <source>  (3399) 
ETAM_MBZ

>  <Index>  (3399) 
37553

$$$$
ETAM-pdb5tz1-B-LYS-143:MBZ-pdb5tz1-B-PHE-449
     RDKit          3D

 26 25  0  0  0  0  0  0  0  0999 V2000
   -1.3926    0.1590    4.0708 C   0  0  0  0  0  0  0  0  0  0  0  0
   -1.8445   -0.4363    4.7291 H   0  0  0  0  0  0  0  0  0  0  0  0
   -2.0066    0.3621    3.3136 H   0  0  0  0  0  0  0  0  0  0  0  0
   -1.1233    1.0916    4.5666 H   0  0  0  0  0  0  0  0  0  0  0  0
   -0.1712   -0.5629    3.5234 C   0  0  0  0  0  0  0  0  0  0  0  0
    0.1617   -0.0714    2.7137 H   0  0  0  0  0  0  0  0  0  0  0  0
    0.5481   -0.5609    4.2226 H   0  0  0  0  0  0  0  0  0  0  0  0
   -0.4824   -1.9696    3.1467 N   0  0  0  0  0  4  0  0  0  0  0  0
    0.1969   -2.2950    2.4896 H   0  0  0  0  0  0  0  0  0  0  0  0
   -0.4596   -2.5440    3.9643 H   0  0  0  0  0  0  0  0  0  0  0  0
   -1.3927   -2.0091    2.7353 H   0  0  0  0  0  0  0  0  0  0  0  0
   -0.0067    2.8841    0.0323 C   0  0  0  0  0  0  0  0  0  0  0  0
    0.8301    3.1804    0.4695 H   0  0  0  0  0  0  0  0  0  0  0  0
   -0.8008    3.1714    0.5484 H   0  0  0  0  0  0  0  0  0  0  0  0
   -0.0570    3.3615   -0.9463 H   0  0  0  0  0  0  0  0  0  0  0  0
   -0.0002    1.3875   -0.0212 C   0  0  0  0  0  0  0  0  0  0  0  0
   -1.1913    0.6878    0.0048 C   0  0  0  0  0  0  0  0  0  0  0  0
   -2.0581    1.1812    0.0256 H   0  0  0  0  0  0  0  0  0  0  0  0
   -1.1956   -0.6913   -0.0000 C   0  0  0  0  0  0  0  0  0  0  0  0
   -2.0732   -1.1886   -0.0091 H   0  0  0  0  0  0  0  0  0  0  0  0
    0.0001   -1.3813    0.0092 C   0  0  0  0  0  0  0  0  0  0  0  0
   -0.0042   -2.3837    0.0220 H   0  0  0  0  0  0  0  0  0  0  0  0
    1.1956   -0.6915    0.0000 C   0  0  0  0  0  0  0  0  0  0  0  0
    2.0777   -1.1919   -0.0105 H   0  0  0  0  0  0  0  0  0  0  0  0
    1.1913    0.6889    0.0072 C   0  0  0  0  0  0  0  0  0  0  0  0
    2.0591    1.1880    0.0326 H   0  0  0  0  0  0  0  0  0  0  0  0
  1  5  1  0
  5  8  1  0
  1  2  1  0
  1  3  1  0
  1  4  1  0
  5  6  1  0
  5  7  1  0
  8  9  1  0
  8 10  1  0
  8 11  1  0
 12 16  1  0
 16 17  2  0
 17 19  1  0
 19 21  2  0
 21 23  1  0
 23 25  2  0
 25 16  1  0
 12 13  1  0
 12 14  1  0
 12 15  1  0
 17 18  1  0
 19 20  1  0
 21 22  1  0
 23 24  1  0
 25 26  1  0
M  CHG  1   8   1
M  END
>  <PDB_ID>  (3400) 
pdb5tz1

>  <RESIDUE_NAME>  (3400) 
LYS   PHE

>  <FRAG_NAME>  (3400) 
ETAM   MBZ

>  <FRAG_ATOM_NUM>  (3400) 
fragi: 11  fragj: 15

>  <atom.prop.CHAIN_ID>  (3400) 
A A A A A A A A A A A Z Z Z Z Z Z Z Z Z Z Z Z Z Z Z

>  <atom.prop.IS_HEAVY_ATOM>  (3400) 
1 0 0 0 1 0 0 1 0 0 0 1 0 0 0 1 1 0 1 0 1 0 1 0 1 0

>  <DIFUSE_FUNC_ATOM>  (3400) 
n/a

>  <FINAL_SINGLE_POINT_ENERGY>  (3400) 
0

>  <NONCOV_INTER_ENERGY_QM>  (3400) 
0

>  <FF_Energy>  (3400) 
-5.79

>  <QM_Energy>  (3400) 
-13.48

>  <source>  (3400) 
ETAM_MBZ

>  <Index>  (3400) 
37554

$$$$
ETAM-pdb5ttj-B-LYS-326:MBZ-pdb5ttj-B-PHE-450
     RDKit          3D

 26 25  0  0  0  0  0  0  0  0999 V2000
   -0.2483   -0.9748    3.8921 C   0  0  0  0  0  0  0  0  0  0  0  0
    0.3663   -1.7647    3.9492 H   0  0  0  0  0  0  0  0  0  0  0  0
   -0.9573   -1.1583    3.2081 H   0  0  0  0  0  0  0  0  0  0  0  0
   -0.7257   -0.8341    4.8618 H   0  0  0  0  0  0  0  0  0  0  0  0
    0.5663    0.2351    3.4265 C   0  0  0  0  0  0  0  0  0  0  0  0
    0.7232    0.1511    2.4293 H   0  0  0  0  0  0  0  0  0  0  0  0
    0.0140    1.0711    3.5774 H   0  0  0  0  0  0  0  0  0  0  0  0
    1.8812    0.3925    4.1134 N   0  0  0  0  0  4  0  0  0  0  0  0
    2.5815   -0.1039    3.6027 H   0  0  0  0  0  0  0  0  0  0  0  0
    2.1187    1.3622    4.1535 H   0  0  0  0  0  0  0  0  0  0  0  0
    1.8161    0.0239    5.0398 H   0  0  0  0  0  0  0  0  0  0  0  0
    0.0028    2.8917   -0.0231 C   0  0  0  0  0  0  0  0  0  0  0  0
    0.7615    3.2098    0.5208 H   0  0  0  0  0  0  0  0  0  0  0  0
   -0.8603    3.2083    0.3318 H   0  0  0  0  0  0  0  0  0  0  0  0
    0.1192    3.2966   -1.0284 H   0  0  0  0  0  0  0  0  0  0  0  0
    0.0002    1.3936    0.0082 C   0  0  0  0  0  0  0  0  0  0  0  0
   -1.1932    0.6867   -0.0032 C   0  0  0  0  0  0  0  0  0  0  0  0
   -2.0611    1.1764   -0.0150 H   0  0  0  0  0  0  0  0  0  0  0  0
   -1.1960   -0.7004    0.0000 C   0  0  0  0  0  0  0  0  0  0  0  0
   -2.0730   -1.1952    0.0025 H   0  0  0  0  0  0  0  0  0  0  0  0
    0.0005   -1.3834    0.0011 C   0  0  0  0  0  0  0  0  0  0  0  0
    0.0037   -2.3862    0.0025 H   0  0  0  0  0  0  0  0  0  0  0  0
    1.1960   -0.6870   -0.0000 C   0  0  0  0  0  0  0  0  0  0  0  0
    2.0791   -1.1890    0.0052 H   0  0  0  0  0  0  0  0  0  0  0  0
    1.1924    0.6905   -0.0062 C   0  0  0  0  0  0  0  0  0  0  0  0
    2.0610    1.1913   -0.0224 H   0  0  0  0  0  0  0  0  0  0  0  0
  1  5  1  0
  5  8  1  0
  1  2  1  0
  1  3  1  0
  1  4  1  0
  5  6  1  0
  5  7  1  0
  8  9  1  0
  8 10  1  0
  8 11  1  0
 12 16  1  0
 16 17  2  0
 17 19  1  0
 19 21  2  0
 21 23  1  0
 23 25  2  0
 25 16  1  0
 12 13  1  0
 12 14  1  0
 12 15  1  0
 17 18  1  0
 19 20  1  0
 21 22  1  0
 23 24  1  0
 25 26  1  0
M  CHG  1   8   1
M  END
>  <PDB_ID>  (3401) 
pdb5ttj

>  <RESIDUE_NAME>  (3401) 
LYS   PHE

>  <FRAG_NAME>  (3401) 
ETAM   MBZ

>  <FRAG_ATOM_NUM>  (3401) 
fragi: 11  fragj: 15

>  <atom.prop.CHAIN_ID>  (3401) 
A A A A A A A A A A A Z Z Z Z Z Z Z Z Z Z Z Z Z Z Z

>  <atom.prop.IS_HEAVY_ATOM>  (3401) 
1 0 0 0 1 0 0 1 0 0 0 1 0 0 0 1 1 0 1 0 1 0 1 0 1 0

>  <DIFUSE_FUNC_ATOM>  (3401) 
n/a

>  <FINAL_SINGLE_POINT_ENERGY>  (3401) 
0

>  <NONCOV_INTER_ENERGY_QM>  (3401) 
0

>  <FF_Energy>  (3401) 
-4.47

>  <QM_Energy>  (3401) 
-9.48

>  <source>  (3401) 
ETAM_MBZ

>  <Index>  (3401) 
37559

$$$$
ETAM-pdb5u1o-A-LYS-55:MBZ-pdb5u1o-A-PHE-349
     RDKit          3D

 26 25  0  0  0  0  0  0  0  0999 V2000
   -0.5463   -0.3835    3.7867 C   0  0  0  0  0  0  0  0  0  0  0  0
   -0.9552    0.5167    3.9418 H   0  0  0  0  0  0  0  0  0  0  0  0
    0.1878   -0.3024    3.1113 H   0  0  0  0  0  0  0  0  0  0  0  0
   -0.1228   -0.7426    4.7247 H   0  0  0  0  0  0  0  0  0  0  0  0
   -1.6218   -1.3075    3.2179 C   0  0  0  0  0  0  0  0  0  0  0  0
   -2.3168   -1.4767    3.9410 H   0  0  0  0  0  0  0  0  0  0  0  0
   -2.0991   -0.8207    2.4628 H   0  0  0  0  0  0  0  0  0  0  0  0
   -1.1308   -2.6225    2.7065 N   0  0  0  0  0  4  0  0  0  0  0  0
   -0.7409   -3.1443    3.4637 H   0  0  0  0  0  0  0  0  0  0  0  0
   -1.8959   -3.1263    2.3081 H   0  0  0  0  0  0  0  0  0  0  0  0
   -0.4326   -2.4646    2.0111 H   0  0  0  0  0  0  0  0  0  0  0  0
   -0.0196    2.9183    0.0130 C   0  0  0  0  0  0  0  0  0  0  0  0
    0.8524    3.2305    0.3538 H   0  0  0  0  0  0  0  0  0  0  0  0
   -0.7631    3.2080    0.5927 H   0  0  0  0  0  0  0  0  0  0  0  0
   -0.1721    3.3582   -0.9727 H   0  0  0  0  0  0  0  0  0  0  0  0
    0.0002    1.4080    0.0020 C   0  0  0  0  0  0  0  0  0  0  0  0
   -1.1973    0.6880    0.0011 C   0  0  0  0  0  0  0  0  0  0  0  0
   -2.0658    1.1748   -0.0005 H   0  0  0  0  0  0  0  0  0  0  0  0
   -1.1987   -0.7070    0.0000 C   0  0  0  0  0  0  0  0  0  0  0  0
   -2.0760   -1.1994   -0.0000 H   0  0  0  0  0  0  0  0  0  0  0  0
    0.0004   -1.3996    0.0008 C   0  0  0  0  0  0  0  0  0  0  0  0
    0.0042   -2.3959    0.0013 H   0  0  0  0  0  0  0  0  0  0  0  0
    1.1987   -0.6934    0.0000 C   0  0  0  0  0  0  0  0  0  0  0  0
    2.0841   -1.1879    0.0042 H   0  0  0  0  0  0  0  0  0  0  0  0
    1.1966    0.7039   -0.0038 C   0  0  0  0  0  0  0  0  0  0  0  0
    2.0642    1.1953   -0.0111 H   0  0  0  0  0  0  0  0  0  0  0  0
  1  5  1  0
  5  8  1  0
  1  2  1  0
  1  3  1  0
  1  4  1  0
  5  6  1  0
  5  7  1  0
  8  9  1  0
  8 10  1  0
  8 11  1  0
 12 16  1  0
 16 17  2  0
 17 19  1  0
 19 21  2  0
 21 23  1  0
 23 25  2  0
 25 16  1  0
 12 13  1  0
 12 14  1  0
 12 15  1  0
 17 18  1  0
 19 20  1  0
 21 22  1  0
 23 24  1  0
 25 26  1  0
M  CHG  1   8   1
M  END
>  <PDB_ID>  (3402) 
pdb5u1o

>  <RESIDUE_NAME>  (3402) 
LYS   PHE

>  <FRAG_NAME>  (3402) 
ETAM   MBZ

>  <FRAG_ATOM_NUM>  (3402) 
fragi: 11  fragj: 15

>  <atom.prop.CHAIN_ID>  (3402) 
A A A A A A A A A A A Z Z Z Z Z Z Z Z Z Z Z Z Z Z Z

>  <atom.prop.IS_HEAVY_ATOM>  (3402) 
1 0 0 0 1 0 0 1 0 0 0 1 0 0 0 1 1 0 1 0 1 0 1 0 1 0

>  <DIFUSE_FUNC_ATOM>  (3402) 
n/a

>  <FINAL_SINGLE_POINT_ENERGY>  (3402) 
0

>  <NONCOV_INTER_ENERGY_QM>  (3402) 
0

>  <FF_Energy>  (3402) 
-3.26

>  <QM_Energy>  (3402) 
-11.77

>  <source>  (3402) 
ETAM_MBZ

>  <Index>  (3402) 
37565

$$$$
ETAM-pdb5u1o-B-LYS-33:MBZ-pdb5u1o-B-PHE-9
     RDKit          3D

 26 25  0  0  0  0  0  0  0  0999 V2000
    3.5846    0.5691    4.0933 C   0  0  0  0  0  0  0  0  0  0  0  0
    4.3999    0.4018    4.6542 H   0  0  0  0  0  0  0  0  0  0  0  0
    3.1090    1.3798    4.4435 H   0  0  0  0  0  0  0  0  0  0  0  0
    3.9053    0.7711    3.0713 H   0  0  0  0  0  0  0  0  0  0  0  0
    2.6549   -0.6288    4.2201 C   0  0  0  0  0  0  0  0  0  0  0  0
    3.0428   -1.3980    3.7030 H   0  0  0  0  0  0  0  0  0  0  0  0
    2.5924   -0.8914    5.1885 H   0  0  0  0  0  0  0  0  0  0  0  0
    1.2859   -0.3366    3.7061 N   0  0  0  0  0  4  0  0  0  0  0  0
    1.0933    0.6375    3.8159 H   0  0  0  0  0  0  0  0  0  0  0  0
    1.2368   -0.5820    2.7389 H   0  0  0  0  0  0  0  0  0  0  0  0
    0.6185   -0.8713    4.2222 H   0  0  0  0  0  0  0  0  0  0  0  0
    0.0104    2.8950    0.0056 C   0  0  0  0  0  0  0  0  0  0  0  0
   -0.7771    3.2125   -0.5004 H   0  0  0  0  0  0  0  0  0  0  0  0
    0.8536    3.2017   -0.4107 H   0  0  0  0  0  0  0  0  0  0  0  0
   -0.0411    3.3320    1.0029 H   0  0  0  0  0  0  0  0  0  0  0  0
    0.0006    1.3967   -0.0018 C   0  0  0  0  0  0  0  0  0  0  0  0
   -1.1955    0.6905   -0.0023 C   0  0  0  0  0  0  0  0  0  0  0  0
   -2.0611    1.1808   -0.0060 H   0  0  0  0  0  0  0  0  0  0  0  0
   -1.1971   -0.6967   -0.0000 C   0  0  0  0  0  0  0  0  0  0  0  0
   -2.0758   -1.1909   -0.0008 H   0  0  0  0  0  0  0  0  0  0  0  0
   -0.0021   -1.3875    0.0044 C   0  0  0  0  0  0  0  0  0  0  0  0
   -0.0024   -2.3880    0.0109 H   0  0  0  0  0  0  0  0  0  0  0  0
    1.1971   -0.6913   -0.0000 C   0  0  0  0  0  0  0  0  0  0  0  0
    2.0790   -1.1961   -0.0017 H   0  0  0  0  0  0  0  0  0  0  0  0
    1.1971    0.6883   -0.0003 C   0  0  0  0  0  0  0  0  0  0  0  0
    2.0635    1.1876    0.0001 H   0  0  0  0  0  0  0  0  0  0  0  0
  1  5  1  0
  5  8  1  0
  1  2  1  0
  1  3  1  0
  1  4  1  0
  5  6  1  0
  5  7  1  0
  8  9  1  0
  8 10  1  0
  8 11  1  0
 12 16  1  0
 16 17  2  0
 17 19  1  0
 19 21  2  0
 21 23  1  0
 23 25  2  0
 25 16  1  0
 12 13  1  0
 12 14  1  0
 12 15  1  0
 17 18  1  0
 19 20  1  0
 21 22  1  0
 23 24  1  0
 25 26  1  0
M  CHG  1   8   1
M  END
>  <PDB_ID>  (3403) 
pdb5u1o

>  <RESIDUE_NAME>  (3403) 
LYS   PHE

>  <FRAG_NAME>  (3403) 
ETAM   MBZ

>  <FRAG_ATOM_NUM>  (3403) 
fragi: 11  fragj: 15

>  <atom.prop.CHAIN_ID>  (3403) 
A A A A A A A A A A A Z Z Z Z Z Z Z Z Z Z Z Z Z Z Z

>  <atom.prop.IS_HEAVY_ATOM>  (3403) 
1 0 0 0 1 0 0 1 0 0 0 1 0 0 0 1 1 0 1 0 1 0 1 0 1 0

>  <DIFUSE_FUNC_ATOM>  (3403) 
n/a

>  <FINAL_SINGLE_POINT_ENERGY>  (3403) 
0

>  <NONCOV_INTER_ENERGY_QM>  (3403) 
0

>  <FF_Energy>  (3403) 
-5.93

>  <QM_Energy>  (3403) 
-11.4

>  <source>  (3403) 
ETAM_MBZ

>  <Index>  (3403) 
37567

$$$$
ETAM-pdb5u1o-B-LYS-55:MBZ-pdb5u1o-B-PHE-349
     RDKit          3D

 26 25  0  0  0  0  0  0  0  0999 V2000
   -0.8506   -0.3578    3.8287 C   0  0  0  0  0  0  0  0  0  0  0  0
   -1.2949    0.5285    3.9571 H   0  0  0  0  0  0  0  0  0  0  0  0
   -0.0826   -0.2596    3.1972 H   0  0  0  0  0  0  0  0  0  0  0  0
   -0.4631   -0.6892    4.7922 H   0  0  0  0  0  0  0  0  0  0  0  0
   -1.8492   -1.3265    3.2379 C   0  0  0  0  0  0  0  0  0  0  0  0
   -2.5561   -1.5308    3.9340 H   0  0  0  0  0  0  0  0  0  0  0  0
   -2.3131   -0.8801    2.4565 H   0  0  0  0  0  0  0  0  0  0  0  0
   -1.2396   -2.5907    2.7813 N   0  0  0  0  0  4  0  0  0  0  0  0
   -1.1818   -2.5958    1.7810 H   0  0  0  0  0  0  0  0  0  0  0  0
   -0.3190   -2.6799    3.1658 H   0  0  0  0  0  0  0  0  0  0  0  0
   -1.8001   -3.3644    3.0838 H   0  0  0  0  0  0  0  0  0  0  0  0
   -0.0158    2.8927   -0.0347 C   0  0  0  0  0  0  0  0  0  0  0  0
    0.8377    3.2218    0.3270 H   0  0  0  0  0  0  0  0  0  0  0  0
   -0.7870    3.2074    0.4884 H   0  0  0  0  0  0  0  0  0  0  0  0
   -0.1201    3.2822   -1.0474 H   0  0  0  0  0  0  0  0  0  0  0  0
    0.0010    1.3968    0.0055 C   0  0  0  0  0  0  0  0  0  0  0  0
   -1.1932    0.6857   -0.0024 C   0  0  0  0  0  0  0  0  0  0  0  0
   -2.0607    1.1778   -0.0106 H   0  0  0  0  0  0  0  0  0  0  0  0
   -1.1948   -0.6971    0.0000 C   0  0  0  0  0  0  0  0  0  0  0  0
   -2.0717   -1.1953   -0.0034 H   0  0  0  0  0  0  0  0  0  0  0  0
    0.0040   -1.3904    0.0085 C   0  0  0  0  0  0  0  0  0  0  0  0
    0.0007   -2.3895    0.0197 H   0  0  0  0  0  0  0  0  0  0  0  0
    1.1948   -0.6935   -0.0000 C   0  0  0  0  0  0  0  0  0  0  0  0
    2.0817   -1.1859    0.0041 H   0  0  0  0  0  0  0  0  0  0  0  0
    1.1881    0.6984   -0.0116 C   0  0  0  0  0  0  0  0  0  0  0  0
    2.0599    1.1912   -0.0334 H   0  0  0  0  0  0  0  0  0  0  0  0
  1  5  1  0
  5  8  1  0
  1  2  1  0
  1  3  1  0
  1  4  1  0
  5  6  1  0
  5  7  1  0
  8  9  1  0
  8 10  1  0
  8 11  1  0
 12 16  1  0
 16 17  2  0
 17 19  1  0
 19 21  2  0
 21 23  1  0
 23 25  2  0
 25 16  1  0
 12 13  1  0
 12 14  1  0
 12 15  1  0
 17 18  1  0
 19 20  1  0
 21 22  1  0
 23 24  1  0
 25 26  1  0
M  CHG  1   8   1
M  END
>  <PDB_ID>  (3404) 
pdb5u1o

>  <RESIDUE_NAME>  (3404) 
LYS   PHE

>  <FRAG_NAME>  (3404) 
ETAM   MBZ

>  <FRAG_ATOM_NUM>  (3404) 
fragi: 11  fragj: 15

>  <atom.prop.CHAIN_ID>  (3404) 
A A A A A A A A A A A Z Z Z Z Z Z Z Z Z Z Z Z Z Z Z

>  <atom.prop.IS_HEAVY_ATOM>  (3404) 
1 0 0 0 1 0 0 1 0 0 0 1 0 0 0 1 1 0 1 0 1 0 1 0 1 0

>  <DIFUSE_FUNC_ATOM>  (3404) 
n/a

>  <FINAL_SINGLE_POINT_ENERGY>  (3404) 
0

>  <NONCOV_INTER_ENERGY_QM>  (3404) 
0

>  <FF_Energy>  (3404) 
-3.42

>  <QM_Energy>  (3404) 
-11.25

>  <source>  (3404) 
ETAM_MBZ

>  <Index>  (3404) 
37568

$$$$
ETAM-pdb5u1o-C-LYS-33:MBZ-pdb5u1o-C-PHE-9
     RDKit          3D

 26 25  0  0  0  0  0  0  0  0999 V2000
    2.6512    0.6635    4.3781 C   0  0  0  0  0  0  0  0  0  0  0  0
    3.3120    0.7513    5.1301 H   0  0  0  0  0  0  0  0  0  0  0  0
    2.0428    1.4626    4.3887 H   0  0  0  0  0  0  0  0  0  0  0  0
    3.1981    0.6557    3.4353 H   0  0  0  0  0  0  0  0  0  0  0  0
    1.8125   -0.5838    4.6171 C   0  0  0  0  0  0  0  0  0  0  0  0
    2.3894   -1.3943    4.4637 H   0  0  0  0  0  0  0  0  0  0  0  0
    1.5077   -0.5879    5.5769 H   0  0  0  0  0  0  0  0  0  0  0  0
    0.6321   -0.6470    3.7279 N   0  0  0  0  0  4  0  0  0  0  0  0
    0.0345    0.1358    3.9062 H   0  0  0  0  0  0  0  0  0  0  0  0
    0.9295   -0.6248    2.7722 H   0  0  0  0  0  0  0  0  0  0  0  0
    0.1276   -1.4947    3.8988 H   0  0  0  0  0  0  0  0  0  0  0  0
    0.0207    2.9134    0.0019 C   0  0  0  0  0  0  0  0  0  0  0  0
   -0.7467    3.2312   -0.5332 H   0  0  0  0  0  0  0  0  0  0  0  0
    0.8798    3.2097   -0.3863 H   0  0  0  0  0  0  0  0  0  0  0  0
   -0.0629    3.3567    0.9942 H   0  0  0  0  0  0  0  0  0  0  0  0
    0.0008    1.4081    0.0009 C   0  0  0  0  0  0  0  0  0  0  0  0
   -1.2004    0.7033   -0.0029 C   0  0  0  0  0  0  0  0  0  0  0  0
   -2.0641    1.1914   -0.0093 H   0  0  0  0  0  0  0  0  0  0  0  0
   -1.2002   -0.6908    0.0000 C   0  0  0  0  0  0  0  0  0  0  0  0
   -2.0788   -1.1853    0.0036 H   0  0  0  0  0  0  0  0  0  0  0  0
    0.0020   -1.3962    0.0006 C   0  0  0  0  0  0  0  0  0  0  0  0
   -0.0129   -2.3946    0.0010 H   0  0  0  0  0  0  0  0  0  0  0  0
    1.2002   -0.7092    0.0000 C   0  0  0  0  0  0  0  0  0  0  0  0
    2.0819   -1.2047    0.0001 H   0  0  0  0  0  0  0  0  0  0  0  0
    1.1976    0.6848    0.0014 C   0  0  0  0  0  0  0  0  0  0  0  0
    2.0686    1.1794    0.0019 H   0  0  0  0  0  0  0  0  0  0  0  0
  1  5  1  0
  5  8  1  0
  1  2  1  0
  1  3  1  0
  1  4  1  0
  5  6  1  0
  5  7  1  0
  8  9  1  0
  8 10  1  0
  8 11  1  0
 12 16  1  0
 16 17  2  0
 17 19  1  0
 19 21  2  0
 21 23  1  0
 23 25  2  0
 25 16  1  0
 12 13  1  0
 12 14  1  0
 12 15  1  0
 17 18  1  0
 19 20  1  0
 21 22  1  0
 23 24  1  0
 25 26  1  0
M  CHG  1   8   1
M  END
>  <PDB_ID>  (3405) 
pdb5u1o

>  <RESIDUE_NAME>  (3405) 
LYS   PHE

>  <FRAG_NAME>  (3405) 
ETAM   MBZ

>  <FRAG_ATOM_NUM>  (3405) 
fragi: 11  fragj: 15

>  <atom.prop.CHAIN_ID>  (3405) 
A A A A A A A A A A A Z Z Z Z Z Z Z Z Z Z Z Z Z Z Z

>  <atom.prop.IS_HEAVY_ATOM>  (3405) 
1 0 0 0 1 0 0 1 0 0 0 1 0 0 0 1 1 0 1 0 1 0 1 0 1 0

>  <DIFUSE_FUNC_ATOM>  (3405) 
n/a

>  <FINAL_SINGLE_POINT_ENERGY>  (3405) 
0

>  <NONCOV_INTER_ENERGY_QM>  (3405) 
0

>  <FF_Energy>  (3405) 
-6.49

>  <QM_Energy>  (3405) 
-12.16

>  <source>  (3405) 
ETAM_MBZ

>  <Index>  (3405) 
37571

$$$$
ETAM-pdb5u1o-C-LYS-55:MBZ-pdb5u1o-C-PHE-349
     RDKit          3D

 26 25  0  0  0  0  0  0  0  0999 V2000
   -0.5624   -0.2425    3.7739 C   0  0  0  0  0  0  0  0  0  0  0  0
   -0.8667    0.6995    3.8527 H   0  0  0  0  0  0  0  0  0  0  0  0
    0.1886   -0.3140    3.1277 H   0  0  0  0  0  0  0  0  0  0  0  0
   -0.2162   -0.5798    4.7508 H   0  0  0  0  0  0  0  0  0  0  0  0
   -1.7197   -1.0909    3.2755 C   0  0  0  0  0  0  0  0  0  0  0  0
   -2.4334   -1.1136    3.9832 H   0  0  0  0  0  0  0  0  0  0  0  0
   -2.1027   -0.6638    2.4491 H   0  0  0  0  0  0  0  0  0  0  0  0
   -1.3004   -2.4773    2.9591 N   0  0  0  0  0  4  0  0  0  0  0  0
   -0.7619   -2.4798    2.1156 H   0  0  0  0  0  0  0  0  0  0  0  0
   -0.7456   -2.8383    3.7097 H   0  0  0  0  0  0  0  0  0  0  0  0
   -2.1104   -3.0516    2.8377 H   0  0  0  0  0  0  0  0  0  0  0  0
   -0.0157    2.8811   -0.0261 C   0  0  0  0  0  0  0  0  0  0  0  0
    0.8235    3.2125    0.3717 H   0  0  0  0  0  0  0  0  0  0  0  0
   -0.8058    3.1952    0.4741 H   0  0  0  0  0  0  0  0  0  0  0  0
   -0.0835    3.2766   -1.0395 H   0  0  0  0  0  0  0  0  0  0  0  0
    0.0022    1.3968    0.0072 C   0  0  0  0  0  0  0  0  0  0  0  0
   -1.1927    0.6853   -0.0032 C   0  0  0  0  0  0  0  0  0  0  0  0
   -2.0609    1.1783   -0.0139 H   0  0  0  0  0  0  0  0  0  0  0  0
   -1.1998   -0.7004   -0.0000 C   0  0  0  0  0  0  0  0  0  0  0  0
   -2.0790   -1.1930    0.0006 H   0  0  0  0  0  0  0  0  0  0  0  0
   -0.0051   -1.3927    0.0045 C   0  0  0  0  0  0  0  0  0  0  0  0
   -0.0017   -2.3913    0.0100 H   0  0  0  0  0  0  0  0  0  0  0  0
    1.1998   -0.6919    0.0000 C   0  0  0  0  0  0  0  0  0  0  0  0
    2.0800   -1.1891    0.0041 H   0  0  0  0  0  0  0  0  0  0  0  0
    1.1955    0.7029   -0.0085 C   0  0  0  0  0  0  0  0  0  0  0  0
    2.0629    1.1954   -0.0269 H   0  0  0  0  0  0  0  0  0  0  0  0
  1  5  1  0
  5  8  1  0
  1  2  1  0
  1  3  1  0
  1  4  1  0
  5  6  1  0
  5  7  1  0
  8  9  1  0
  8 10  1  0
  8 11  1  0
 12 16  1  0
 16 17  2  0
 17 19  1  0
 19 21  2  0
 21 23  1  0
 23 25  2  0
 25 16  1  0
 12 13  1  0
 12 14  1  0
 12 15  1  0
 17 18  1  0
 19 20  1  0
 21 22  1  0
 23 24  1  0
 25 26  1  0
M  CHG  1   8   1
M  END
>  <PDB_ID>  (3406) 
pdb5u1o

>  <RESIDUE_NAME>  (3406) 
LYS   PHE

>  <FRAG_NAME>  (3406) 
ETAM   MBZ

>  <FRAG_ATOM_NUM>  (3406) 
fragi: 11  fragj: 15

>  <atom.prop.CHAIN_ID>  (3406) 
A A A A A A A A A A A Z Z Z Z Z Z Z Z Z Z Z Z Z Z Z

>  <atom.prop.IS_HEAVY_ATOM>  (3406) 
1 0 0 0 1 0 0 1 0 0 0 1 0 0 0 1 1 0 1 0 1 0 1 0 1 0

>  <DIFUSE_FUNC_ATOM>  (3406) 
n/a

>  <FINAL_SINGLE_POINT_ENERGY>  (3406) 
0

>  <NONCOV_INTER_ENERGY_QM>  (3406) 
0

>  <FF_Energy>  (3406) 
-3.9

>  <QM_Energy>  (3406) 
-11.92

>  <source>  (3406) 
ETAM_MBZ

>  <Index>  (3406) 
37572

$$$$
ETAM-pdb5u1o-D-LYS-55:MBZ-pdb5u1o-D-PHE-349
     RDKit          3D

 26 25  0  0  0  0  0  0  0  0999 V2000
   -0.9364   -0.2242    3.8121 C   0  0  0  0  0  0  0  0  0  0  0  0
   -1.4726    0.5914    4.0060 H   0  0  0  0  0  0  0  0  0  0  0  0
   -0.2288   -0.0222    3.1436 H   0  0  0  0  0  0  0  0  0  0  0  0
   -0.4630   -0.5595    4.7349 H   0  0  0  0  0  0  0  0  0  0  0  0
   -1.8560   -1.2874    3.2408 C   0  0  0  0  0  0  0  0  0  0  0  0
   -2.5378   -1.5358    3.9341 H   0  0  0  0  0  0  0  0  0  0  0  0
   -2.3307   -0.9128    2.4395 H   0  0  0  0  0  0  0  0  0  0  0  0
   -1.1052   -2.5060    2.8361 N   0  0  0  0  0  4  0  0  0  0  0  0
   -0.1950   -2.4874    3.2499 H   0  0  0  0  0  0  0  0  0  0  0  0
   -1.5976   -3.3183    3.1482 H   0  0  0  0  0  0  0  0  0  0  0  0
   -1.0201   -2.5275    1.8404 H   0  0  0  0  0  0  0  0  0  0  0  0
   -0.0234    2.8887   -0.0547 C   0  0  0  0  0  0  0  0  0  0  0  0
    0.8371    3.2286    0.2756 H   0  0  0  0  0  0  0  0  0  0  0  0
   -0.7834    3.2105    0.4776 H   0  0  0  0  0  0  0  0  0  0  0  0
   -0.1544    3.2550   -1.0729 H   0  0  0  0  0  0  0  0  0  0  0  0
    0.0007    1.3960    0.0075 C   0  0  0  0  0  0  0  0  0  0  0  0
   -1.1950    0.6829   -0.0077 C   0  0  0  0  0  0  0  0  0  0  0  0
   -2.0625    1.1751   -0.0254 H   0  0  0  0  0  0  0  0  0  0  0  0
   -1.1984   -0.7018   -0.0000 C   0  0  0  0  0  0  0  0  0  0  0  0
   -2.0760   -1.1972    0.0010 H   0  0  0  0  0  0  0  0  0  0  0  0
   -0.0027   -1.3880    0.0087 C   0  0  0  0  0  0  0  0  0  0  0  0
    0.0023   -2.3888    0.0210 H   0  0  0  0  0  0  0  0  0  0  0  0
    1.1984   -0.6881    0.0000 C   0  0  0  0  0  0  0  0  0  0  0  0
    2.0801   -1.1889    0.0014 H   0  0  0  0  0  0  0  0  0  0  0  0
    1.1970    0.6990   -0.0086 C   0  0  0  0  0  0  0  0  0  0  0  0
    2.0622    1.1958   -0.0273 H   0  0  0  0  0  0  0  0  0  0  0  0
  1  5  1  0
  5  8  1  0
  1  2  1  0
  1  3  1  0
  1  4  1  0
  5  6  1  0
  5  7  1  0
  8  9  1  0
  8 10  1  0
  8 11  1  0
 12 16  1  0
 16 17  2  0
 17 19  1  0
 19 21  2  0
 21 23  1  0
 23 25  2  0
 25 16  1  0
 12 13  1  0
 12 14  1  0
 12 15  1  0
 17 18  1  0
 19 20  1  0
 21 22  1  0
 23 24  1  0
 25 26  1  0
M  CHG  1   8   1
M  END
>  <PDB_ID>  (3407) 
pdb5u1o

>  <RESIDUE_NAME>  (3407) 
LYS   PHE

>  <FRAG_NAME>  (3407) 
ETAM   MBZ

>  <FRAG_ATOM_NUM>  (3407) 
fragi: 11  fragj: 15

>  <atom.prop.CHAIN_ID>  (3407) 
A A A A A A A A A A A Z Z Z Z Z Z Z Z Z Z Z Z Z Z Z

>  <atom.prop.IS_HEAVY_ATOM>  (3407) 
1 0 0 0 1 0 0 1 0 0 0 1 0 0 0 1 1 0 1 0 1 0 1 0 1 0

>  <DIFUSE_FUNC_ATOM>  (3407) 
n/a

>  <FINAL_SINGLE_POINT_ENERGY>  (3407) 
0

>  <NONCOV_INTER_ENERGY_QM>  (3407) 
0

>  <FF_Energy>  (3407) 
-3.7

>  <QM_Energy>  (3407) 
-11.77

>  <source>  (3407) 
ETAM_MBZ

>  <Index>  (3407) 
37574

$$$$
ETAM-pdb5udf-A-LYS-199:MBZ-pdb5udf-A-PHE-160
     RDKit          3D

 26 25  0  0  0  0  0  0  0  0999 V2000
   -1.4251   -0.4991    4.4799 C   0  0  0  0  0  0  0  0  0  0  0  0
   -1.1897    0.0050    5.3024 H   0  0  0  0  0  0  0  0  0  0  0  0
   -1.6813   -1.4318    4.7014 H   0  0  0  0  0  0  0  0  0  0  0  0
   -2.2607   -0.0050    3.9842 H   0  0  0  0  0  0  0  0  0  0  0  0
   -0.2131   -0.5338    3.5715 C   0  0  0  0  0  0  0  0  0  0  0  0
    0.3801   -1.2937    3.8484 H   0  0  0  0  0  0  0  0  0  0  0  0
   -0.5176   -0.6871    2.6277 H   0  0  0  0  0  0  0  0  0  0  0  0
    0.5512    0.7336    3.6399 N   0  0  0  0  0  4  0  0  0  0  0  0
    1.4460    0.5635    4.0547 H   0  0  0  0  0  0  0  0  0  0  0  0
    0.6772    1.0984    2.7168 H   0  0  0  0  0  0  0  0  0  0  0  0
    0.0489    1.3984    4.1940 H   0  0  0  0  0  0  0  0  0  0  0  0
   -0.0067    2.8999   -0.0132 C   0  0  0  0  0  0  0  0  0  0  0  0
    0.8676    3.2122    0.3144 H   0  0  0  0  0  0  0  0  0  0  0  0
   -0.7473    3.2088    0.5566 H   0  0  0  0  0  0  0  0  0  0  0  0
   -0.1574    3.3133   -1.0105 H   0  0  0  0  0  0  0  0  0  0  0  0
   -0.0011    1.3963    0.0007 C   0  0  0  0  0  0  0  0  0  0  0  0
   -1.1975    0.6885    0.0066 C   0  0  0  0  0  0  0  0  0  0  0  0
   -2.0632    1.1831    0.0149 H   0  0  0  0  0  0  0  0  0  0  0  0
   -1.1993   -0.6907    0.0000 C   0  0  0  0  0  0  0  0  0  0  0  0
   -2.0739   -1.1920   -0.0039 H   0  0  0  0  0  0  0  0  0  0  0  0
    0.0044   -1.3869    0.0012 C   0  0  0  0  0  0  0  0  0  0  0  0
   -0.0049   -2.3881    0.0021 H   0  0  0  0  0  0  0  0  0  0  0  0
    1.1993   -0.6976    0.0000 C   0  0  0  0  0  0  0  0  0  0  0  0
    2.0827   -1.1943    0.0065 H   0  0  0  0  0  0  0  0  0  0  0  0
    1.1943    0.6904   -0.0085 C   0  0  0  0  0  0  0  0  0  0  0  0
    2.0623    1.1881   -0.0221 H   0  0  0  0  0  0  0  0  0  0  0  0
  1  5  1  0
  5  8  1  0
  1  2  1  0
  1  3  1  0
  1  4  1  0
  5  6  1  0
  5  7  1  0
  8  9  1  0
  8 10  1  0
  8 11  1  0
 12 16  1  0
 16 17  2  0
 17 19  1  0
 19 21  2  0
 21 23  1  0
 23 25  2  0
 25 16  1  0
 12 13  1  0
 12 14  1  0
 12 15  1  0
 17 18  1  0
 19 20  1  0
 21 22  1  0
 23 24  1  0
 25 26  1  0
M  CHG  1   8   1
M  END
>  <PDB_ID>  (3408) 
pdb5udf

>  <RESIDUE_NAME>  (3408) 
LYS   PHE

>  <FRAG_NAME>  (3408) 
ETAM   MBZ

>  <FRAG_ATOM_NUM>  (3408) 
fragi: 11  fragj: 15

>  <atom.prop.CHAIN_ID>  (3408) 
A A A A A A A A A A A Z Z Z Z Z Z Z Z Z Z Z Z Z Z Z

>  <atom.prop.IS_HEAVY_ATOM>  (3408) 
1 0 0 0 1 0 0 1 0 0 0 1 0 0 0 1 1 0 1 0 1 0 1 0 1 0

>  <DIFUSE_FUNC_ATOM>  (3408) 
n/a

>  <FINAL_SINGLE_POINT_ENERGY>  (3408) 
0

>  <NONCOV_INTER_ENERGY_QM>  (3408) 
0

>  <FF_Energy>  (3408) 
-7.68

>  <QM_Energy>  (3408) 
-13.52

>  <source>  (3408) 
ETAM_MBZ

>  <Index>  (3408) 
37655

$$$$
ETAM-pdb5udf-C-LYS-71:MBZ-pdb5udf-D-PHE-246
     RDKit          3D

 26 25  0  0  0  0  0  0  0  0999 V2000
    1.6573   -1.0860    3.4076 C   0  0  0  0  0  0  0  0  0  0  0  0
    2.1887   -0.4975    2.8088 H   0  0  0  0  0  0  0  0  0  0  0  0
    2.0539   -1.1073    4.3179 H   0  0  0  0  0  0  0  0  0  0  0  0
    0.6411   -0.6970    3.4736 H   0  0  0  0  0  0  0  0  0  0  0  0
    1.6702   -2.4977    2.8385 C   0  0  0  0  0  0  0  0  0  0  0  0
    1.1974   -3.1089    3.4772 H   0  0  0  0  0  0  0  0  0  0  0  0
    1.1815   -2.4993    1.9629 H   0  0  0  0  0  0  0  0  0  0  0  0
    3.0571   -2.9889    2.6254 N   0  0  0  0  0  4  0  0  0  0  0  0
    3.5529   -2.9697    3.4931 H   0  0  0  0  0  0  0  0  0  0  0  0
    3.0279   -3.9254    2.2778 H   0  0  0  0  0  0  0  0  0  0  0  0
    3.5198   -2.4005    1.9623 H   0  0  0  0  0  0  0  0  0  0  0  0
   -0.0103    2.8725   -0.0364 C   0  0  0  0  0  0  0  0  0  0  0  0
    0.8575    3.2012    0.2991 H   0  0  0  0  0  0  0  0  0  0  0  0
   -0.7620    3.1987    0.5135 H   0  0  0  0  0  0  0  0  0  0  0  0
   -0.1446    3.2646   -1.0445 H   0  0  0  0  0  0  0  0  0  0  0  0
   -0.0014    1.3874    0.0081 C   0  0  0  0  0  0  0  0  0  0  0  0
   -1.1925    0.6841   -0.0081 C   0  0  0  0  0  0  0  0  0  0  0  0
   -2.0597    1.1808   -0.0274 H   0  0  0  0  0  0  0  0  0  0  0  0
   -1.1967   -0.6895    0.0000 C   0  0  0  0  0  0  0  0  0  0  0  0
   -2.0717   -1.1907    0.0052 H   0  0  0  0  0  0  0  0  0  0  0  0
    0.0022   -1.3801    0.0034 C   0  0  0  0  0  0  0  0  0  0  0  0
   -0.0018   -2.3820    0.0079 H   0  0  0  0  0  0  0  0  0  0  0  0
    1.1967   -0.6882   -0.0000 C   0  0  0  0  0  0  0  0  0  0  0  0
    2.0787   -1.1913    0.0012 H   0  0  0  0  0  0  0  0  0  0  0  0
    1.1917    0.6862   -0.0035 C   0  0  0  0  0  0  0  0  0  0  0  0
    2.0587    1.1891   -0.0157 H   0  0  0  0  0  0  0  0  0  0  0  0
  1  5  1  0
  5  8  1  0
  1  2  1  0
  1  3  1  0
  1  4  1  0
  5  6  1  0
  5  7  1  0
  8  9  1  0
  8 10  1  0
  8 11  1  0
 12 16  1  0
 16 17  2  0
 17 19  1  0
 19 21  2  0
 21 23  1  0
 23 25  2  0
 25 16  1  0
 12 13  1  0
 12 14  1  0
 12 15  1  0
 17 18  1  0
 19 20  1  0
 21 22  1  0
 23 24  1  0
 25 26  1  0
M  CHG  1   8   1
M  END
>  <PDB_ID>  (3409) 
pdb5udf

>  <RESIDUE_NAME>  (3409) 
LYS   PHE

>  <FRAG_NAME>  (3409) 
ETAM   MBZ

>  <FRAG_ATOM_NUM>  (3409) 
fragi: 11  fragj: 15

>  <atom.prop.CHAIN_ID>  (3409) 
A A A A A A A A A A A Z Z Z Z Z Z Z Z Z Z Z Z Z Z Z

>  <atom.prop.IS_HEAVY_ATOM>  (3409) 
1 0 0 0 1 0 0 1 0 0 0 1 0 0 0 1 1 0 1 0 1 0 1 0 1 0

>  <DIFUSE_FUNC_ATOM>  (3409) 
n/a

>  <FINAL_SINGLE_POINT_ENERGY>  (3409) 
0

>  <NONCOV_INTER_ENERGY_QM>  (3409) 
0

>  <FF_Energy>  (3409) 
-0.6

>  <QM_Energy>  (3409) 
-6.06

>  <source>  (3409) 
ETAM_MBZ

>  <Index>  (3409) 
37658

$$$$
ETAM-pdb5udf-C-LYS-199:MBZ-pdb5udf-C-PHE-160
     RDKit          3D

 26 25  0  0  0  0  0  0  0  0999 V2000
   -1.4520   -0.3906    4.4666 C   0  0  0  0  0  0  0  0  0  0  0  0
   -1.2781    0.0961    5.3214 H   0  0  0  0  0  0  0  0  0  0  0  0
   -1.7020   -1.3372    4.6629 H   0  0  0  0  0  0  0  0  0  0  0  0
   -2.2855    0.0918    3.9560 H   0  0  0  0  0  0  0  0  0  0  0  0
   -0.1757   -0.3877    3.6379 C   0  0  0  0  0  0  0  0  0  0  0  0
    0.3961   -1.1643    3.9236 H   0  0  0  0  0  0  0  0  0  0  0  0
   -0.4189   -0.5099    2.6695 H   0  0  0  0  0  0  0  0  0  0  0  0
    0.5925    0.8703    3.7943 N   0  0  0  0  0  4  0  0  0  0  0  0
    1.4715    0.6731    4.2294 H   0  0  0  0  0  0  0  0  0  0  0  0
    0.7500    1.2799    2.8954 H   0  0  0  0  0  0  0  0  0  0  0  0
    0.0754    1.5093    4.3647 H   0  0  0  0  0  0  0  0  0  0  0  0
   -0.0083    2.9006   -0.0316 C   0  0  0  0  0  0  0  0  0  0  0  0
    0.8441    3.2213    0.3413 H   0  0  0  0  0  0  0  0  0  0  0  0
   -0.7825    3.2182    0.4864 H   0  0  0  0  0  0  0  0  0  0  0  0
   -0.0992    3.2933   -1.0444 H   0  0  0  0  0  0  0  0  0  0  0  0
   -0.0023    1.4013    0.0078 C   0  0  0  0  0  0  0  0  0  0  0  0
   -1.2016    0.6925   -0.0077 C   0  0  0  0  0  0  0  0  0  0  0  0
   -2.0663    1.1860   -0.0257 H   0  0  0  0  0  0  0  0  0  0  0  0
   -1.2045   -0.6914   -0.0000 C   0  0  0  0  0  0  0  0  0  0  0  0
   -2.0773   -1.1924    0.0027 H   0  0  0  0  0  0  0  0  0  0  0  0
    0.0047   -1.3941    0.0054 C   0  0  0  0  0  0  0  0  0  0  0  0
   -0.0057   -2.3911    0.0131 H   0  0  0  0  0  0  0  0  0  0  0  0
    1.2045   -0.6991   -0.0000 C   0  0  0  0  0  0  0  0  0  0  0  0
    2.0857   -1.1966    0.0016 H   0  0  0  0  0  0  0  0  0  0  0  0
    1.1992    0.6908   -0.0055 C   0  0  0  0  0  0  0  0  0  0  0  0
    2.0655    1.1902   -0.0197 H   0  0  0  0  0  0  0  0  0  0  0  0
  1  5  1  0
  5  8  1  0
  1  2  1  0
  1  3  1  0
  1  4  1  0
  5  6  1  0
  5  7  1  0
  8  9  1  0
  8 10  1  0
  8 11  1  0
 12 16  1  0
 16 17  2  0
 17 19  1  0
 19 21  2  0
 21 23  1  0
 23 25  2  0
 25 16  1  0
 12 13  1  0
 12 14  1  0
 12 15  1  0
 17 18  1  0
 19 20  1  0
 21 22  1  0
 23 24  1  0
 25 26  1  0
M  CHG  1   8   1
M  END
>  <PDB_ID>  (3410) 
pdb5udf

>  <RESIDUE_NAME>  (3410) 
LYS   PHE

>  <FRAG_NAME>  (3410) 
ETAM   MBZ

>  <FRAG_ATOM_NUM>  (3410) 
fragi: 11  fragj: 15

>  <atom.prop.CHAIN_ID>  (3410) 
A A A A A A A A A A A Z Z Z Z Z Z Z Z Z Z Z Z Z Z Z

>  <atom.prop.IS_HEAVY_ATOM>  (3410) 
1 0 0 0 1 0 0 1 0 0 0 1 0 0 0 1 1 0 1 0 1 0 1 0 1 0

>  <DIFUSE_FUNC_ATOM>  (3410) 
n/a

>  <FINAL_SINGLE_POINT_ENERGY>  (3410) 
0

>  <NONCOV_INTER_ENERGY_QM>  (3410) 
0

>  <FF_Energy>  (3410) 
-7.22

>  <QM_Energy>  (3410) 
-12.49

>  <source>  (3410) 
ETAM_MBZ

>  <Index>  (3410) 
37659

$$$$
ETAM-pdb5u0l-A-LYS-94:MBZ-pdb5u0l-A-PHE-151
     RDKit          3D

 26 25  0  0  0  0  0  0  0  0999 V2000
   -2.3141   -0.4138    4.9016 C   0  0  0  0  0  0  0  0  0  0  0  0
   -2.8554   -0.2344    4.0770 H   0  0  0  0  0  0  0  0  0  0  0  0
   -2.2942    0.4132    5.4676 H   0  0  0  0  0  0  0  0  0  0  0  0
   -2.7958   -1.2116    5.4669 H   0  0  0  0  0  0  0  0  0  0  0  0
   -0.8881   -0.7429    4.4791 C   0  0  0  0  0  0  0  0  0  0  0  0
   -0.3155   -0.8044    5.2904 H   0  0  0  0  0  0  0  0  0  0  0  0
   -0.8858   -1.6103    3.9912 H   0  0  0  0  0  0  0  0  0  0  0  0
   -0.3634    0.3274    3.5847 N   0  0  0  0  0  4  0  0  0  0  0  0
    0.1157   -0.0909    2.8148 H   0  0  0  0  0  0  0  0  0  0  0  0
   -1.1258    0.8786    3.2464 H   0  0  0  0  0  0  0  0  0  0  0  0
    0.2686    0.9071    4.0979 H   0  0  0  0  0  0  0  0  0  0  0  0
    0.0059    2.8861    0.0115 C   0  0  0  0  0  0  0  0  0  0  0  0
   -0.3614    3.2022   -0.8499 H   0  0  0  0  0  0  0  0  0  0  0  0
    0.9375    3.1900    0.1383 H   0  0  0  0  0  0  0  0  0  0  0  0
   -0.5971    3.3191    0.8096 H   0  0  0  0  0  0  0  0  0  0  0  0
   -0.0013    1.3916    0.0025 C   0  0  0  0  0  0  0  0  0  0  0  0
   -1.1914    0.6866   -0.0013 C   0  0  0  0  0  0  0  0  0  0  0  0
   -2.0599    1.1782   -0.0060 H   0  0  0  0  0  0  0  0  0  0  0  0
   -1.1912   -0.6925   -0.0000 C   0  0  0  0  0  0  0  0  0  0  0  0
   -2.0671   -1.1926    0.0044 H   0  0  0  0  0  0  0  0  0  0  0  0
    0.0060   -1.3795   -0.0026 C   0  0  0  0  0  0  0  0  0  0  0  0
   -0.0006   -2.3850   -0.0072 H   0  0  0  0  0  0  0  0  0  0  0  0
    1.1912   -0.6931    0.0000 C   0  0  0  0  0  0  0  0  0  0  0  0
    2.0779   -1.1906    0.0025 H   0  0  0  0  0  0  0  0  0  0  0  0
    1.1867    0.6869    0.0014 C   0  0  0  0  0  0  0  0  0  0  0  0
    2.0577    1.1850    0.0012 H   0  0  0  0  0  0  0  0  0  0  0  0
  1  5  1  0
  5  8  1  0
  1  2  1  0
  1  3  1  0
  1  4  1  0
  5  6  1  0
  5  7  1  0
  8  9  1  0
  8 10  1  0
  8 11  1  0
 12 16  1  0
 16 17  2  0
 17 19  1  0
 19 21  2  0
 21 23  1  0
 23 25  2  0
 25 16  1  0
 12 13  1  0
 12 14  1  0
 12 15  1  0
 17 18  1  0
 19 20  1  0
 21 22  1  0
 23 24  1  0
 25 26  1  0
M  CHG  1   8   1
M  END
>  <PDB_ID>  (3411) 
pdb5u0l

>  <RESIDUE_NAME>  (3411) 
LYS   PHE

>  <FRAG_NAME>  (3411) 
ETAM   MBZ

>  <FRAG_ATOM_NUM>  (3411) 
fragi: 11  fragj: 15

>  <atom.prop.CHAIN_ID>  (3411) 
A A A A A A A A A A A Z Z Z Z Z Z Z Z Z Z Z Z Z Z Z

>  <atom.prop.IS_HEAVY_ATOM>  (3411) 
1 0 0 0 1 0 0 1 0 0 0 1 0 0 0 1 1 0 1 0 1 0 1 0 1 0

>  <DIFUSE_FUNC_ATOM>  (3411) 
n/a

>  <FINAL_SINGLE_POINT_ENERGY>  (3411) 
0

>  <NONCOV_INTER_ENERGY_QM>  (3411) 
0

>  <FF_Energy>  (3411) 
-7.66

>  <QM_Energy>  (3411) 
-13.15

>  <source>  (3411) 
ETAM_MBZ

>  <Index>  (3411) 
37664

$$$$
ETAM-pdb5udz-A-LYS-88:MBZ-pdb5udz-A-PHE-163
     RDKit          3D

 26 25  0  0  0  0  0  0  0  0999 V2000
    0.9889   -1.9549    5.4676 C   0  0  0  0  0  0  0  0  0  0  0  0
    0.9227   -2.7730    4.9032 H   0  0  0  0  0  0  0  0  0  0  0  0
    0.1389   -1.8117    5.9661 H   0  0  0  0  0  0  0  0  0  0  0  0
    1.7979   -2.0908    6.1854 H   0  0  0  0  0  0  0  0  0  0  0  0
    1.2295   -0.7572    4.5629 C   0  0  0  0  0  0  0  0  0  0  0  0
    1.3163    0.0656    5.1326 H   0  0  0  0  0  0  0  0  0  0  0  0
    2.0911   -0.8964    4.0644 H   0  0  0  0  0  0  0  0  0  0  0  0
    0.1269   -0.5681    3.5930 N   0  0  0  0  0  4  0  0  0  0  0  0
    0.0794   -1.3583    2.9804 H   0  0  0  0  0  0  0  0  0  0  0  0
   -0.7400   -0.4770    4.0843 H   0  0  0  0  0  0  0  0  0  0  0  0
    0.2917    0.2594    3.0551 H   0  0  0  0  0  0  0  0  0  0  0  0
   -0.0017    2.9139   -0.0058 C   0  0  0  0  0  0  0  0  0  0  0  0
   -0.7092    3.2138   -0.6288 H   0  0  0  0  0  0  0  0  0  0  0  0
    0.8913    3.2179   -0.3040 H   0  0  0  0  0  0  0  0  0  0  0  0
   -0.2000    3.3647    0.9666 H   0  0  0  0  0  0  0  0  0  0  0  0
    0.0001    1.4078    0.0037 C   0  0  0  0  0  0  0  0  0  0  0  0
   -1.1901    0.6993   -0.0068 C   0  0  0  0  0  0  0  0  0  0  0  0
   -2.0608    1.1783   -0.0209 H   0  0  0  0  0  0  0  0  0  0  0  0
   -1.1863   -0.7024    0.0000 C   0  0  0  0  0  0  0  0  0  0  0  0
   -2.0706   -1.1892    0.0065 H   0  0  0  0  0  0  0  0  0  0  0  0
    0.0016   -1.3939   -0.0009 C   0  0  0  0  0  0  0  0  0  0  0  0
   -0.0048   -2.3969   -0.0032 H   0  0  0  0  0  0  0  0  0  0  0  0
    1.1863   -0.7054   -0.0000 C   0  0  0  0  0  0  0  0  0  0  0  0
    2.0758   -1.1954   -0.0005 H   0  0  0  0  0  0  0  0  0  0  0  0
    1.1884    0.6947    0.0041 C   0  0  0  0  0  0  0  0  0  0  0  0
    2.0618    1.1805    0.0070 H   0  0  0  0  0  0  0  0  0  0  0  0
  1  5  1  0
  5  8  1  0
  1  2  1  0
  1  3  1  0
  1  4  1  0
  5  6  1  0
  5  7  1  0
  8  9  1  0
  8 10  1  0
  8 11  1  0
 12 16  1  0
 16 17  2  0
 17 19  1  0
 19 21  2  0
 21 23  1  0
 23 25  2  0
 25 16  1  0
 12 13  1  0
 12 14  1  0
 12 15  1  0
 17 18  1  0
 19 20  1  0
 21 22  1  0
 23 24  1  0
 25 26  1  0
M  CHG  1   8   1
M  END
>  <PDB_ID>  (3412) 
pdb5udz

>  <RESIDUE_NAME>  (3412) 
LYS   PHE

>  <FRAG_NAME>  (3412) 
ETAM   MBZ

>  <FRAG_ATOM_NUM>  (3412) 
fragi: 11  fragj: 15

>  <atom.prop.CHAIN_ID>  (3412) 
A A A A A A A A A A A Z Z Z Z Z Z Z Z Z Z Z Z Z Z Z

>  <atom.prop.IS_HEAVY_ATOM>  (3412) 
1 0 0 0 1 0 0 1 0 0 0 1 0 0 0 1 1 0 1 0 1 0 1 0 1 0

>  <DIFUSE_FUNC_ATOM>  (3412) 
n/a

>  <FINAL_SINGLE_POINT_ENERGY>  (3412) 
0

>  <NONCOV_INTER_ENERGY_QM>  (3412) 
0

>  <FF_Energy>  (3412) 
-7.07

>  <QM_Energy>  (3412) 
-12.85

>  <source>  (3412) 
ETAM_MBZ

>  <Index>  (3412) 
37666

$$$$
ETAM-pdb5udz-B-LYS-88:MBZ-pdb5udz-B-PHE-163
     RDKit          3D

 26 25  0  0  0  0  0  0  0  0999 V2000
    0.8610   -2.1977    5.5198 C   0  0  0  0  0  0  0  0  0  0  0  0
    0.8090   -3.0320    4.9783 H   0  0  0  0  0  0  0  0  0  0  0  0
   -0.0188   -2.0092    5.9463 H   0  0  0  0  0  0  0  0  0  0  0  0
    1.6065   -2.3360    6.3028 H   0  0  0  0  0  0  0  0  0  0  0  0
    1.2298   -1.0561    4.6287 C   0  0  0  0  0  0  0  0  0  0  0  0
    1.3486   -0.2256    5.1770 H   0  0  0  0  0  0  0  0  0  0  0  0
    2.0880   -1.2611    4.1539 H   0  0  0  0  0  0  0  0  0  0  0  0
    0.1673   -0.8125    3.6133 N   0  0  0  0  0  4  0  0  0  0  0  0
   -0.7281   -0.9864    4.0230 H   0  0  0  0  0  0  0  0  0  0  0  0
    0.2159    0.1367    3.3039 H   0  0  0  0  0  0  0  0  0  0  0  0
    0.3053   -1.4255    2.8366 H   0  0  0  0  0  0  0  0  0  0  0  0
    0.0011    2.9092    0.0122 C   0  0  0  0  0  0  0  0  0  0  0  0
   -0.6217    3.2162   -0.6902 H   0  0  0  0  0  0  0  0  0  0  0  0
    0.9253    3.2093   -0.1644 H   0  0  0  0  0  0  0  0  0  0  0  0
   -0.3194    3.3392    0.9611 H   0  0  0  0  0  0  0  0  0  0  0  0
   -0.0028    1.4005    0.0048 C   0  0  0  0  0  0  0  0  0  0  0  0
   -1.1925    0.6931    0.0088 C   0  0  0  0  0  0  0  0  0  0  0  0
   -2.0628    1.1740    0.0168 H   0  0  0  0  0  0  0  0  0  0  0  0
   -1.1873   -0.7028    0.0000 C   0  0  0  0  0  0  0  0  0  0  0  0
   -2.0632   -1.1975    0.0010 H   0  0  0  0  0  0  0  0  0  0  0  0
    0.0125   -1.3860   -0.0078 C   0  0  0  0  0  0  0  0  0  0  0  0
    0.0052   -2.3915   -0.0196 H   0  0  0  0  0  0  0  0  0  0  0  0
    1.1873   -0.6985    0.0000 C   0  0  0  0  0  0  0  0  0  0  0  0
    2.0813   -1.1857    0.0117 H   0  0  0  0  0  0  0  0  0  0  0  0
    1.1828    0.6938   -0.0058 C   0  0  0  0  0  0  0  0  0  0  0  0
    2.0565    1.1852   -0.0184 H   0  0  0  0  0  0  0  0  0  0  0  0
  1  5  1  0
  5  8  1  0
  1  2  1  0
  1  3  1  0
  1  4  1  0
  5  6  1  0
  5  7  1  0
  8  9  1  0
  8 10  1  0
  8 11  1  0
 12 16  1  0
 16 17  2  0
 17 19  1  0
 19 21  2  0
 21 23  1  0
 23 25  2  0
 25 16  1  0
 12 13  1  0
 12 14  1  0
 12 15  1  0
 17 18  1  0
 19 20  1  0
 21 22  1  0
 23 24  1  0
 25 26  1  0
M  CHG  1   8   1
M  END
>  <PDB_ID>  (3413) 
pdb5udz

>  <RESIDUE_NAME>  (3413) 
LYS   PHE

>  <FRAG_NAME>  (3413) 
ETAM   MBZ

>  <FRAG_ATOM_NUM>  (3413) 
fragi: 11  fragj: 15

>  <atom.prop.CHAIN_ID>  (3413) 
A A A A A A A A A A A Z Z Z Z Z Z Z Z Z Z Z Z Z Z Z

>  <atom.prop.IS_HEAVY_ATOM>  (3413) 
1 0 0 0 1 0 0 1 0 0 0 1 0 0 0 1 1 0 1 0 1 0 1 0 1 0

>  <DIFUSE_FUNC_ATOM>  (3413) 
n/a

>  <FINAL_SINGLE_POINT_ENERGY>  (3413) 
0

>  <NONCOV_INTER_ENERGY_QM>  (3413) 
0

>  <FF_Energy>  (3413) 
-6.56

>  <QM_Energy>  (3413) 
-12.2

>  <source>  (3413) 
ETAM_MBZ

>  <Index>  (3413) 
37667

$$$$
ETAM-pdb5ud6-A-LYS-267:MBZ-pdb5ud6-A-PHE-22
     RDKit          3D

 26 25  0  0  0  0  0  0  0  0999 V2000
    5.3469    0.5888   -3.5020 C   0  0  0  0  0  0  0  0  0  0  0  0
    5.5801   -0.1240   -2.8585 H   0  0  0  0  0  0  0  0  0  0  0  0
    5.5937    1.4816   -3.1568 H   0  0  0  0  0  0  0  0  0  0  0  0
    5.8769    0.4098   -4.4374 H   0  0  0  0  0  0  0  0  0  0  0  0
    3.8419    0.5574   -3.7397 C   0  0  0  0  0  0  0  0  0  0  0  0
    3.5770    1.3910   -4.2385 H   0  0  0  0  0  0  0  0  0  0  0  0
    3.6224   -0.2391   -4.3166 H   0  0  0  0  0  0  0  0  0  0  0  0
    3.0623    0.4754   -2.4770 N   0  0  0  0  0  4  0  0  0  0  0  0
    3.2949   -0.3704   -1.9968 H   0  0  0  0  0  0  0  0  0  0  0  0
    3.2834    1.2597   -1.8979 H   0  0  0  0  0  0  0  0  0  0  0  0
    2.0847    0.4816   -2.6887 H   0  0  0  0  0  0  0  0  0  0  0  0
    0.0022    2.8938   -0.0300 C   0  0  0  0  0  0  0  0  0  0  0  0
    0.9516    3.1896   -0.0604 H   0  0  0  0  0  0  0  0  0  0  0  0
   -0.4276    3.1994    0.8136 H   0  0  0  0  0  0  0  0  0  0  0  0
   -0.5226    3.3619   -0.8628 H   0  0  0  0  0  0  0  0  0  0  0  0
   -0.0102    1.3907   -0.0320 C   0  0  0  0  0  0  0  0  0  0  0  0
   -1.1703    0.7200    0.0139 C   0  0  0  0  0  0  0  0  0  0  0  0
   -2.0501    1.1901    0.0577 H   0  0  0  0  0  0  0  0  0  0  0  0
   -1.1773   -0.6854    0.0000 C   0  0  0  0  0  0  0  0  0  0  0  0
   -2.0607   -1.1692   -0.0154 H   0  0  0  0  0  0  0  0  0  0  0  0
    0.0178   -1.3971    0.0089 C   0  0  0  0  0  0  0  0  0  0  0  0
   -0.0098   -2.3946    0.0218 H   0  0  0  0  0  0  0  0  0  0  0  0
    1.1773   -0.7137   -0.0000 C   0  0  0  0  0  0  0  0  0  0  0  0
    2.0784   -1.1867   -0.0120 H   0  0  0  0  0  0  0  0  0  0  0  0
    1.1627    0.6854    0.0092 C   0  0  0  0  0  0  0  0  0  0  0  0
    2.0434    1.1734    0.0468 H   0  0  0  0  0  0  0  0  0  0  0  0
  1  5  1  0
  5  8  1  0
  1  2  1  0
  1  3  1  0
  1  4  1  0
  5  6  1  0
  5  7  1  0
  8  9  1  0
  8 10  1  0
  8 11  1  0
 12 16  1  0
 16 17  2  0
 17 19  1  0
 19 21  2  0
 21 23  1  0
 23 25  2  0
 25 16  1  0
 12 13  1  0
 12 14  1  0
 12 15  1  0
 17 18  1  0
 19 20  1  0
 21 22  1  0
 23 24  1  0
 25 26  1  0
M  CHG  1   8   1
M  END
>  <PDB_ID>  (3414) 
pdb5ud6

>  <RESIDUE_NAME>  (3414) 
LYS   PHE

>  <FRAG_NAME>  (3414) 
ETAM   MBZ

>  <FRAG_ATOM_NUM>  (3414) 
fragi: 11  fragj: 15

>  <atom.prop.CHAIN_ID>  (3414) 
A A A A A A A A A A A Z Z Z Z Z Z Z Z Z Z Z Z Z Z Z

>  <atom.prop.IS_HEAVY_ATOM>  (3414) 
1 0 0 0 1 0 0 1 0 0 0 1 0 0 0 1 1 0 1 0 1 0 1 0 1 0

>  <DIFUSE_FUNC_ATOM>  (3414) 
n/a

>  <FINAL_SINGLE_POINT_ENERGY>  (3414) 
0

>  <NONCOV_INTER_ENERGY_QM>  (3414) 
0

>  <FF_Energy>  (3414) 
-2.01

>  <QM_Energy>  (3414) 
-8.25

>  <source>  (3414) 
ETAM_MBZ

>  <Index>  (3414) 
37669

$$$$
ETAM-pdb5ud6-B-LYS-267:MBZ-pdb5ud6-B-PHE-22
     RDKit          3D

 26 25  0  0  0  0  0  0  0  0999 V2000
    5.3337    0.6500   -3.5033 C   0  0  0  0  0  0  0  0  0  0  0  0
    5.5760   -0.0484   -2.8342 H   0  0  0  0  0  0  0  0  0  0  0  0
    5.5961    1.5504   -3.1672 H   0  0  0  0  0  0  0  0  0  0  0  0
    5.8837    0.4513   -4.4232 H   0  0  0  0  0  0  0  0  0  0  0  0
    3.8525    0.6206   -3.7313 C   0  0  0  0  0  0  0  0  0  0  0  0
    3.5765    1.4588   -4.2292 H   0  0  0  0  0  0  0  0  0  0  0  0
    3.6226   -0.1706   -4.3207 H   0  0  0  0  0  0  0  0  0  0  0  0
    3.0681    0.5276   -2.4796 N   0  0  0  0  0  4  0  0  0  0  0  0
    3.6494    0.7687   -1.7010 H   0  0  0  0  0  0  0  0  0  0  0  0
    2.2922    1.1585   -2.5226 H   0  0  0  0  0  0  0  0  0  0  0  0
    2.7293   -0.4075   -2.3640 H   0  0  0  0  0  0  0  0  0  0  0  0
    0.0115    2.8864    0.0168 C   0  0  0  0  0  0  0  0  0  0  0  0
    0.9581    3.1875   -0.0125 H   0  0  0  0  0  0  0  0  0  0  0  0
   -0.4217    3.1820    0.8606 H   0  0  0  0  0  0  0  0  0  0  0  0
   -0.5142    3.3613   -0.8116 H   0  0  0  0  0  0  0  0  0  0  0  0
   -0.0009    1.3914   -0.0105 C   0  0  0  0  0  0  0  0  0  0  0  0
   -1.1874    0.6912    0.0098 C   0  0  0  0  0  0  0  0  0  0  0  0
   -2.0566    1.1857    0.0300 H   0  0  0  0  0  0  0  0  0  0  0  0
   -1.1920   -0.6830    0.0000 C   0  0  0  0  0  0  0  0  0  0  0  0
   -2.0699   -1.1828    0.0042 H   0  0  0  0  0  0  0  0  0  0  0  0
    0.0052   -1.3818   -0.0133 C   0  0  0  0  0  0  0  0  0  0  0  0
   -0.0108   -2.3837   -0.0333 H   0  0  0  0  0  0  0  0  0  0  0  0
    1.1920   -0.7000   -0.0000 C   0  0  0  0  0  0  0  0  0  0  0  0
    2.0777   -1.1944    0.0008 H   0  0  0  0  0  0  0  0  0  0  0  0
    1.1830    0.6821    0.0141 C   0  0  0  0  0  0  0  0  0  0  0  0
    2.0576    1.1803    0.0416 H   0  0  0  0  0  0  0  0  0  0  0  0
  1  5  1  0
  5  8  1  0
  1  2  1  0
  1  3  1  0
  1  4  1  0
  5  6  1  0
  5  7  1  0
  8  9  1  0
  8 10  1  0
  8 11  1  0
 12 16  1  0
 16 17  2  0
 17 19  1  0
 19 21  2  0
 21 23  1  0
 23 25  2  0
 25 16  1  0
 12 13  1  0
 12 14  1  0
 12 15  1  0
 17 18  1  0
 19 20  1  0
 21 22  1  0
 23 24  1  0
 25 26  1  0
M  CHG  1   8   1
M  END
>  <PDB_ID>  (3415) 
pdb5ud6

>  <RESIDUE_NAME>  (3415) 
LYS   PHE

>  <FRAG_NAME>  (3415) 
ETAM   MBZ

>  <FRAG_ATOM_NUM>  (3415) 
fragi: 11  fragj: 15

>  <atom.prop.CHAIN_ID>  (3415) 
A A A A A A A A A A A Z Z Z Z Z Z Z Z Z Z Z Z Z Z Z

>  <atom.prop.IS_HEAVY_ATOM>  (3415) 
1 0 0 0 1 0 0 1 0 0 0 1 0 0 0 1 1 0 1 0 1 0 1 0 1 0

>  <DIFUSE_FUNC_ATOM>  (3415) 
n/a

>  <FINAL_SINGLE_POINT_ENERGY>  (3415) 
0

>  <NONCOV_INTER_ENERGY_QM>  (3415) 
0

>  <FF_Energy>  (3415) 
-2.08

>  <QM_Energy>  (3415) 
-8.38

>  <source>  (3415) 
ETAM_MBZ

>  <Index>  (3415) 
37681

$$$$
ETAM-pdb5ud6-C-LYS-267:MBZ-pdb5ud6-C-PHE-22
     RDKit          3D

 26 25  0  0  0  0  0  0  0  0999 V2000
    5.2918    0.6069   -3.5647 C   0  0  0  0  0  0  0  0  0  0  0  0
    5.5152   -0.1186   -2.9275 H   0  0  0  0  0  0  0  0  0  0  0  0
    5.5494    1.4914   -3.1985 H   0  0  0  0  0  0  0  0  0  0  0  0
    5.8322    0.4379   -4.4961 H   0  0  0  0  0  0  0  0  0  0  0  0
    3.7858    0.5996   -3.8020 C   0  0  0  0  0  0  0  0  0  0  0  0
    3.5292    1.4444   -4.2768 H   0  0  0  0  0  0  0  0  0  0  0  0
    3.5529   -0.1848   -4.3806 H   0  0  0  0  0  0  0  0  0  0  0  0
    3.0297    0.5059   -2.5225 N   0  0  0  0  0  4  0  0  0  0  0  0
    2.3073   -0.1782   -2.6150 H   0  0  0  0  0  0  0  0  0  0  0  0
    3.6527    0.2389   -1.7881 H   0  0  0  0  0  0  0  0  0  0  0  0
    2.6247    1.3947   -2.3117 H   0  0  0  0  0  0  0  0  0  0  0  0
    0.0360    2.8865    0.0216 C   0  0  0  0  0  0  0  0  0  0  0  0
    0.9839    3.1778   -0.0246 H   0  0  0  0  0  0  0  0  0  0  0  0
   -0.3799    3.1826    0.8728 H   0  0  0  0  0  0  0  0  0  0  0  0
   -0.4995    3.3711   -0.7948 H   0  0  0  0  0  0  0  0  0  0  0  0
    0.0068    1.3913   -0.0144 C   0  0  0  0  0  0  0  0  0  0  0  0
   -1.1766    0.7055    0.0181 C   0  0  0  0  0  0  0  0  0  0  0  0
   -2.0454    1.1969    0.0539 H   0  0  0  0  0  0  0  0  0  0  0  0
   -1.1872   -0.6775   -0.0000 C   0  0  0  0  0  0  0  0  0  0  0  0
   -2.0815   -1.1603   -0.0029 H   0  0  0  0  0  0  0  0  0  0  0  0
   -0.0186   -1.3808   -0.0114 C   0  0  0  0  0  0  0  0  0  0  0  0
   -0.0314   -2.3847   -0.0287 H   0  0  0  0  0  0  0  0  0  0  0  0
    1.1872   -0.7092    0.0000 C   0  0  0  0  0  0  0  0  0  0  0  0
    2.0610   -1.2161    0.0039 H   0  0  0  0  0  0  0  0  0  0  0  0
    1.1883    0.6706    0.0077 C   0  0  0  0  0  0  0  0  0  0  0  0
    2.0651    1.1646    0.0294 H   0  0  0  0  0  0  0  0  0  0  0  0
  1  5  1  0
  5  8  1  0
  1  2  1  0
  1  3  1  0
  1  4  1  0
  5  6  1  0
  5  7  1  0
  8  9  1  0
  8 10  1  0
  8 11  1  0
 12 16  1  0
 16 17  2  0
 17 19  1  0
 19 21  2  0
 21 23  1  0
 23 25  2  0
 25 16  1  0
 12 13  1  0
 12 14  1  0
 12 15  1  0
 17 18  1  0
 19 20  1  0
 21 22  1  0
 23 24  1  0
 25 26  1  0
M  CHG  1   8   1
M  END
>  <PDB_ID>  (3416) 
pdb5ud6

>  <RESIDUE_NAME>  (3416) 
LYS   PHE

>  <FRAG_NAME>  (3416) 
ETAM   MBZ

>  <FRAG_ATOM_NUM>  (3416) 
fragi: 11  fragj: 15

>  <atom.prop.CHAIN_ID>  (3416) 
A A A A A A A A A A A Z Z Z Z Z Z Z Z Z Z Z Z Z Z Z

>  <atom.prop.IS_HEAVY_ATOM>  (3416) 
1 0 0 0 1 0 0 1 0 0 0 1 0 0 0 1 1 0 1 0 1 0 1 0 1 0

>  <DIFUSE_FUNC_ATOM>  (3416) 
n/a

>  <FINAL_SINGLE_POINT_ENERGY>  (3416) 
0

>  <NONCOV_INTER_ENERGY_QM>  (3416) 
0

>  <FF_Energy>  (3416) 
-2.26

>  <QM_Energy>  (3416) 
-8.4

>  <source>  (3416) 
ETAM_MBZ

>  <Index>  (3416) 
37702

$$$$
ETAM-pdb5ujd-A-LYS-141:MBZ-pdb5ujd-A-PHE-120
     RDKit          3D

 26 25  0  0  0  0  0  0  0  0999 V2000
    0.7920   -1.2502    4.0606 C   0  0  0  0  0  0  0  0  0  0  0  0
    0.9916   -0.3051    4.1528 H   0  0  0  0  0  0  0  0  0  0  0  0
    0.6797   -1.6525    4.9368 H   0  0  0  0  0  0  0  0  0  0  0  0
   -0.1334   -1.3639    3.4959 H   0  0  0  0  0  0  0  0  0  0  0  0
    1.9869   -1.9225    3.3817 C   0  0  0  0  0  0  0  0  0  0  0  0
    2.3199   -2.6296    3.9554 H   0  0  0  0  0  0  0  0  0  0  0  0
    1.6995   -2.2929    2.5316 H   0  0  0  0  0  0  0  0  0  0  0  0
    3.1125   -0.9758    3.1151 N   0  0  0  0  0  4  0  0  0  0  0  0
    3.7847   -1.4067    2.7200 H   0  0  0  0  0  0  0  0  0  0  0  0
    2.8379   -0.3187    2.5820 H   0  0  0  0  0  0  0  0  0  0  0  0
    3.4035   -0.6262    3.8802 H   0  0  0  0  0  0  0  0  0  0  0  0
    0.0195    2.8682   -0.0055 C   0  0  0  0  0  0  0  0  0  0  0  0
   -0.0821    3.1662    0.9118 H   0  0  0  0  0  0  0  0  0  0  0  0
   -0.7337    3.1729   -0.5362 H   0  0  0  0  0  0  0  0  0  0  0  0
    0.9347    3.2955   -0.4153 H   0  0  0  0  0  0  0  0  0  0  0  0
    0.0012    1.3836   -0.0047 C   0  0  0  0  0  0  0  0  0  0  0  0
   -1.1918    0.6937    0.0028 C   0  0  0  0  0  0  0  0  0  0  0  0
   -1.9969    1.1590    0.0010 H   0  0  0  0  0  0  0  0  0  0  0  0
   -1.1937   -0.6791    0.0000 C   0  0  0  0  0  0  0  0  0  0  0  0
   -2.0005   -1.1425    0.0060 H   0  0  0  0  0  0  0  0  0  0  0  0
    0.0015   -1.3753    0.0055 C   0  0  0  0  0  0  0  0  0  0  0  0
   -0.0022   -2.3050    0.0055 H   0  0  0  0  0  0  0  0  0  0  0  0
    1.1937   -0.6934   -0.0000 C   0  0  0  0  0  0  0  0  0  0  0  0
    1.9994   -1.1577   -0.0001 H   0  0  0  0  0  0  0  0  0  0  0  0
    1.1891    0.6705   -0.0036 C   0  0  0  0  0  0  0  0  0  0  0  0
    1.9974    1.1300   -0.0054 H   0  0  0  0  0  0  0  0  0  0  0  0
  1  5  1  0
  5  8  1  0
  1  2  1  0
  1  3  1  0
  1  4  1  0
  5  6  1  0
  5  7  1  0
  8  9  1  0
  8 10  1  0
  8 11  1  0
 12 16  1  0
 16 17  2  0
 17 19  1  0
 19 21  2  0
 21 23  1  0
 23 25  2  0
 25 16  1  0
 12 13  1  0
 12 14  1  0
 12 15  1  0
 17 18  1  0
 19 20  1  0
 21 22  1  0
 23 24  1  0
 25 26  1  0
M  CHG  1   8   1
M  END
>  <PDB_ID>  (3417) 
pdb5ujd

>  <RESIDUE_NAME>  (3417) 
LYS   PHE

>  <FRAG_NAME>  (3417) 
ETAM   MBZ

>  <FRAG_ATOM_NUM>  (3417) 
fragi: 11  fragj: 15

>  <atom.prop.CHAIN_ID>  (3417) 
A A A A A A A A A A A Z Z Z Z Z Z Z Z Z Z Z Z Z Z Z

>  <atom.prop.IS_HEAVY_ATOM>  (3417) 
1 0 0 0 1 0 0 1 0 0 0 1 0 0 0 1 1 0 1 0 1 0 1 0 1 0

>  <DIFUSE_FUNC_ATOM>  (3417) 
n/a

>  <FINAL_SINGLE_POINT_ENERGY>  (3417) 
0

>  <NONCOV_INTER_ENERGY_QM>  (3417) 
0

>  <FF_Energy>  (3417) 
-3.26

>  <QM_Energy>  (3417) 
-8.29

>  <source>  (3417) 
ETAM_MBZ

>  <Index>  (3417) 
37706

$$$$
ETAM-pdb5ud6-D-LYS-267:MBZ-pdb5ud6-D-PHE-22
     RDKit          3D

 26 25  0  0  0  0  0  0  0  0999 V2000
    5.2920    0.7640   -3.5267 C   0  0  0  0  0  0  0  0  0  0  0  0
    5.5628    0.0631   -2.8742 H   0  0  0  0  0  0  0  0  0  0  0  0
    5.5200    1.6672   -3.1767 H   0  0  0  0  0  0  0  0  0  0  0  0
    5.8467    0.6039   -4.4512 H   0  0  0  0  0  0  0  0  0  0  0  0
    3.8232    0.6795   -3.7654 C   0  0  0  0  0  0  0  0  0  0  0  0
    3.5099    1.5020   -4.2499 H   0  0  0  0  0  0  0  0  0  0  0  0
    3.6166   -0.1249   -4.3314 H   0  0  0  0  0  0  0  0  0  0  0  0
    3.0657    0.5653   -2.4835 N   0  0  0  0  0  4  0  0  0  0  0  0
    2.6076    1.4326   -2.2931 H   0  0  0  0  0  0  0  0  0  0  0  0
    2.3870   -0.1633   -2.5660 H   0  0  0  0  0  0  0  0  0  0  0  0
    3.7012    0.3508   -1.7432 H   0  0  0  0  0  0  0  0  0  0  0  0
   -0.0069    2.8935    0.0168 C   0  0  0  0  0  0  0  0  0  0  0  0
    0.9363    3.1949   -0.0208 H   0  0  0  0  0  0  0  0  0  0  0  0
   -0.4374    3.1827    0.8614 H   0  0  0  0  0  0  0  0  0  0  0  0
   -0.5428    3.3579   -0.8111 H   0  0  0  0  0  0  0  0  0  0  0  0
   -0.0103    1.3891   -0.0090 C   0  0  0  0  0  0  0  0  0  0  0  0
   -1.1905    0.6854    0.0180 C   0  0  0  0  0  0  0  0  0  0  0  0
   -2.0623    1.1775    0.0498 H   0  0  0  0  0  0  0  0  0  0  0  0
   -1.1928   -0.6862    0.0000 C   0  0  0  0  0  0  0  0  0  0  0  0
   -2.0621   -1.1951   -0.0003 H   0  0  0  0  0  0  0  0  0  0  0  0
    0.0203   -1.3848   -0.0162 C   0  0  0  0  0  0  0  0  0  0  0  0
    0.0098   -2.3804   -0.0395 H   0  0  0  0  0  0  0  0  0  0  0  0
    1.1928   -0.6825   -0.0000 C   0  0  0  0  0  0  0  0  0  0  0  0
    2.0874   -1.1799    0.0079 H   0  0  0  0  0  0  0  0  0  0  0  0
    1.1804    0.6790    0.0072 C   0  0  0  0  0  0  0  0  0  0  0  0
    2.0499    1.1907    0.0240 H   0  0  0  0  0  0  0  0  0  0  0  0
  1  5  1  0
  5  8  1  0
  1  2  1  0
  1  3  1  0
  1  4  1  0
  5  6  1  0
  5  7  1  0
  8  9  1  0
  8 10  1  0
  8 11  1  0
 12 16  1  0
 16 17  2  0
 17 19  1  0
 19 21  2  0
 21 23  1  0
 23 25  2  0
 25 16  1  0
 12 13  1  0
 12 14  1  0
 12 15  1  0
 17 18  1  0
 19 20  1  0
 21 22  1  0
 23 24  1  0
 25 26  1  0
M  CHG  1   8   1
M  END
>  <PDB_ID>  (3418) 
pdb5ud6

>  <RESIDUE_NAME>  (3418) 
LYS   PHE

>  <FRAG_NAME>  (3418) 
ETAM   MBZ

>  <FRAG_ATOM_NUM>  (3418) 
fragi: 11  fragj: 15

>  <atom.prop.CHAIN_ID>  (3418) 
A A A A A A A A A A A Z Z Z Z Z Z Z Z Z Z Z Z Z Z Z

>  <atom.prop.IS_HEAVY_ATOM>  (3418) 
1 0 0 0 1 0 0 1 0 0 0 1 0 0 0 1 1 0 1 0 1 0 1 0 1 0

>  <DIFUSE_FUNC_ATOM>  (3418) 
n/a

>  <FINAL_SINGLE_POINT_ENERGY>  (3418) 
0

>  <NONCOV_INTER_ENERGY_QM>  (3418) 
0

>  <FF_Energy>  (3418) 
-2.03

>  <QM_Energy>  (3418) 
-8.2

>  <source>  (3418) 
ETAM_MBZ

>  <Index>  (3418) 
37714

$$$$
ETAM-pdb5um7-A-LYS-25:MBZ-pdb5um7-A-PHE-30
     RDKit          3D

 26 25  0  0  0  0  0  0  0  0999 V2000
    6.0717    1.4100   -1.5247 C   0  0  0  0  0  0  0  0  0  0  0  0
    6.8274    1.2207   -0.9095 H   0  0  0  0  0  0  0  0  0  0  0  0
    6.3700    1.9721   -2.2864 H   0  0  0  0  0  0  0  0  0  0  0  0
    5.6861    0.4665   -1.9110 H   0  0  0  0  0  0  0  0  0  0  0  0
    4.9971    2.1527   -0.7626 C   0  0  0  0  0  0  0  0  0  0  0  0
    5.4141    2.9180   -0.2714 H   0  0  0  0  0  0  0  0  0  0  0  0
    4.3201    2.5041   -1.4108 H   0  0  0  0  0  0  0  0  0  0  0  0
    4.3269    1.2554    0.2065 N   0  0  0  0  0  4  0  0  0  0  0  0
    3.5382    0.8196   -0.2296 H   0  0  0  0  0  0  0  0  0  0  0  0
    4.9693    0.5513    0.5109 H   0  0  0  0  0  0  0  0  0  0  0  0
    4.0182    1.7861    0.9968 H   0  0  0  0  0  0  0  0  0  0  0  0
    0.0023    2.8888   -0.0020 C   0  0  0  0  0  0  0  0  0  0  0  0
   -0.8289    3.1989   -0.4405 H   0  0  0  0  0  0  0  0  0  0  0  0
    0.8032    3.1961   -0.4946 H   0  0  0  0  0  0  0  0  0  0  0  0
    0.0361    3.3337    0.9925 H   0  0  0  0  0  0  0  0  0  0  0  0
    0.0005    1.3900   -0.0001 C   0  0  0  0  0  0  0  0  0  0  0  0
   -1.1897    0.6866   -0.0028 C   0  0  0  0  0  0  0  0  0  0  0  0
   -2.0573    1.1806   -0.0084 H   0  0  0  0  0  0  0  0  0  0  0  0
   -1.1905   -0.6883   -0.0000 C   0  0  0  0  0  0  0  0  0  0  0  0
   -2.0702   -1.1876    0.0003 H   0  0  0  0  0  0  0  0  0  0  0  0
    0.0005   -1.3800    0.0043 C   0  0  0  0  0  0  0  0  0  0  0  0
   -0.0057   -2.3831    0.0102 H   0  0  0  0  0  0  0  0  0  0  0  0
    1.1905   -0.6918   -0.0000 C   0  0  0  0  0  0  0  0  0  0  0  0
    2.0753   -1.1944   -0.0008 H   0  0  0  0  0  0  0  0  0  0  0  0
    1.1888    0.6834   -0.0014 C   0  0  0  0  0  0  0  0  0  0  0  0
    2.0595    1.1828   -0.0047 H   0  0  0  0  0  0  0  0  0  0  0  0
  1  5  1  0
  5  8  1  0
  1  2  1  0
  1  3  1  0
  1  4  1  0
  5  6  1  0
  5  7  1  0
  8  9  1  0
  8 10  1  0
  8 11  1  0
 12 16  1  0
 16 17  2  0
 17 19  1  0
 19 21  2  0
 21 23  1  0
 23 25  2  0
 25 16  1  0
 12 13  1  0
 12 14  1  0
 12 15  1  0
 17 18  1  0
 19 20  1  0
 21 22  1  0
 23 24  1  0
 25 26  1  0
M  CHG  1   8   1
M  END
>  <PDB_ID>  (3419) 
pdb5um7

>  <RESIDUE_NAME>  (3419) 
LYS   PHE

>  <FRAG_NAME>  (3419) 
ETAM   MBZ

>  <FRAG_ATOM_NUM>  (3419) 
fragi: 11  fragj: 15

>  <atom.prop.CHAIN_ID>  (3419) 
A A A A A A A A A A A Z Z Z Z Z Z Z Z Z Z Z Z Z Z Z

>  <atom.prop.IS_HEAVY_ATOM>  (3419) 
1 0 0 0 1 0 0 1 0 0 0 1 0 0 0 1 1 0 1 0 1 0 1 0 1 0

>  <DIFUSE_FUNC_ATOM>  (3419) 
n/a

>  <FINAL_SINGLE_POINT_ENERGY>  (3419) 
0

>  <NONCOV_INTER_ENERGY_QM>  (3419) 
0

>  <FF_Energy>  (3419) 
5.31

>  <QM_Energy>  (3419) 
-0.94

>  <source>  (3419) 
ETAM_MBZ

>  <Index>  (3419) 
37717

$$$$
ETAM-pdb5upb-B-LYS-123:MBZ-pdb5upb-A-PHE-7
     RDKit          3D

 26 25  0  0  0  0  0  0  0  0999 V2000
    1.0868   -1.7200   -3.4840 C   0  0  0  0  0  0  0  0  0  0  0  0
    1.5608   -1.9836   -2.6796 H   0  0  0  0  0  0  0  0  0  0  0  0
    1.5627   -2.0285   -4.2707 H   0  0  0  0  0  0  0  0  0  0  0  0
    0.0891   -2.1589   -3.4727 H   0  0  0  0  0  0  0  0  0  0  0  0
    1.0256   -0.2279   -3.5263 C   0  0  0  0  0  0  0  0  0  0  0  0
    0.6679    0.0546   -4.3825 H   0  0  0  0  0  0  0  0  0  0  0  0
    0.4637    0.0914   -2.8040 H   0  0  0  0  0  0  0  0  0  0  0  0
    2.3926    0.3750   -3.3641 N   0  0  0  0  0  4  0  0  0  0  0  0
    2.3388    1.2632   -3.3915 H   0  0  0  0  0  0  0  0  0  0  0  0
    2.7413    0.1309   -2.5826 H   0  0  0  0  0  0  0  0  0  0  0  0
    2.9270    0.0974   -4.0183 H   0  0  0  0  0  0  0  0  0  0  0  0
    0.0138    2.9216   -0.0136 C   0  0  0  0  0  0  0  0  0  0  0  0
    0.8479    3.2057   -0.4196 H   0  0  0  0  0  0  0  0  0  0  0  0
   -0.0199    3.2224    0.9075 H   0  0  0  0  0  0  0  0  0  0  0  0
   -0.8114    3.3791   -0.5592 H   0  0  0  0  0  0  0  0  0  0  0  0
    0.0001    1.4012   -0.0027 C   0  0  0  0  0  0  0  0  0  0  0  0
   -1.1880    0.6945    0.0035 C   0  0  0  0  0  0  0  0  0  0  0  0
   -1.9934    1.1586   -0.0017 H   0  0  0  0  0  0  0  0  0  0  0  0
   -1.2010   -0.6932   -0.0000 C   0  0  0  0  0  0  0  0  0  0  0  0
   -2.0110   -1.1508    0.0052 H   0  0  0  0  0  0  0  0  0  0  0  0
   -0.0096   -1.3965    0.0020 C   0  0  0  0  0  0  0  0  0  0  0  0
   -0.0138   -2.3269    0.0053 H   0  0  0  0  0  0  0  0  0  0  0  0
    1.2010   -0.7003    0.0000 C   0  0  0  0  0  0  0  0  0  0  0  0
    2.0068   -1.1648   -0.0002 H   0  0  0  0  0  0  0  0  0  0  0  0
    1.1975    0.6943   -0.0028 C   0  0  0  0  0  0  0  0  0  0  0  0
    2.0053    1.1567   -0.0069 H   0  0  0  0  0  0  0  0  0  0  0  0
  1  5  1  0
  5  8  1  0
  1  2  1  0
  1  3  1  0
  1  4  1  0
  5  6  1  0
  5  7  1  0
  8  9  1  0
  8 10  1  0
  8 11  1  0
 12 16  1  0
 16 17  2  0
 17 19  1  0
 19 21  2  0
 21 23  1  0
 23 25  2  0
 25 16  1  0
 12 13  1  0
 12 14  1  0
 12 15  1  0
 17 18  1  0
 19 20  1  0
 21 22  1  0
 23 24  1  0
 25 26  1  0
M  CHG  1   8   1
M  END
>  <PDB_ID>  (3420) 
pdb5upb

>  <RESIDUE_NAME>  (3420) 
LYS   PHE

>  <FRAG_NAME>  (3420) 
ETAM   MBZ

>  <FRAG_ATOM_NUM>  (3420) 
fragi: 11  fragj: 15

>  <atom.prop.CHAIN_ID>  (3420) 
A A A A A A A A A A A Z Z Z Z Z Z Z Z Z Z Z Z Z Z Z

>  <atom.prop.IS_HEAVY_ATOM>  (3420) 
1 0 0 0 1 0 0 1 0 0 0 1 0 0 0 1 1 0 1 0 1 0 1 0 1 0

>  <DIFUSE_FUNC_ATOM>  (3420) 
n/a

>  <FINAL_SINGLE_POINT_ENERGY>  (3420) 
0

>  <NONCOV_INTER_ENERGY_QM>  (3420) 
0

>  <FF_Energy>  (3420) 
-5.25

>  <QM_Energy>  (3420) 
-11.07

>  <source>  (3420) 
ETAM_MBZ

>  <Index>  (3420) 
37735

$$$$
ETAM-pdb5upb-A-LYS-123:MBZ-pdb5upb-B-PHE-7
     RDKit          3D

 26 25  0  0  0  0  0  0  0  0999 V2000
    1.0070   -1.6467   -3.5848 C   0  0  0  0  0  0  0  0  0  0  0  0
    1.4969   -1.9826   -2.8178 H   0  0  0  0  0  0  0  0  0  0  0  0
    1.4428   -1.9207   -4.4071 H   0  0  0  0  0  0  0  0  0  0  0  0
   -0.0080   -2.0436   -3.5654 H   0  0  0  0  0  0  0  0  0  0  0  0
    1.0133   -0.1754   -3.5282 C   0  0  0  0  0  0  0  0  0  0  0  0
    0.6377    0.1795   -4.3485 H   0  0  0  0  0  0  0  0  0  0  0  0
    0.4944    0.1190   -2.7631 H   0  0  0  0  0  0  0  0  0  0  0  0
    2.4275    0.3568   -3.3790 N   0  0  0  0  0  4  0  0  0  0  0  0
    2.4153    1.2453   -3.3461 H   0  0  0  0  0  0  0  0  0  0  0  0
    2.7919    0.0438   -2.6300 H   0  0  0  0  0  0  0  0  0  0  0  0
    2.9231    0.0993   -4.0718 H   0  0  0  0  0  0  0  0  0  0  0  0
    0.0333    2.9201    0.0282 C   0  0  0  0  0  0  0  0  0  0  0  0
    0.8714    3.2037   -0.3681 H   0  0  0  0  0  0  0  0  0  0  0  0
    0.0019    3.1976    0.9569 H   0  0  0  0  0  0  0  0  0  0  0  0
   -0.7855    3.4014   -0.5068 H   0  0  0  0  0  0  0  0  0  0  0  0
    0.0032    1.4112    0.0018 C   0  0  0  0  0  0  0  0  0  0  0  0
   -1.1971    0.7108    0.0097 C   0  0  0  0  0  0  0  0  0  0  0  0
   -2.0027    1.1753    0.0130 H   0  0  0  0  0  0  0  0  0  0  0  0
   -1.2023   -0.6959    0.0000 C   0  0  0  0  0  0  0  0  0  0  0  0
   -2.0114   -1.1545   -0.0021 H   0  0  0  0  0  0  0  0  0  0  0  0
   -0.0096   -1.4081   -0.0115 C   0  0  0  0  0  0  0  0  0  0  0  0
   -0.0153   -2.3383   -0.0157 H   0  0  0  0  0  0  0  0  0  0  0  0
    1.2023   -0.7050   -0.0000 C   0  0  0  0  0  0  0  0  0  0  0  0
    2.0080   -1.1688   -0.0107 H   0  0  0  0  0  0  0  0  0  0  0  0
    1.2035    0.6870    0.0000 C   0  0  0  0  0  0  0  0  0  0  0  0
    2.0135    1.1442    0.0050 H   0  0  0  0  0  0  0  0  0  0  0  0
  1  5  1  0
  5  8  1  0
  1  2  1  0
  1  3  1  0
  1  4  1  0
  5  6  1  0
  5  7  1  0
  8  9  1  0
  8 10  1  0
  8 11  1  0
 12 16  1  0
 16 17  2  0
 17 19  1  0
 19 21  2  0
 21 23  1  0
 23 25  2  0
 25 16  1  0
 12 13  1  0
 12 14  1  0
 12 15  1  0
 17 18  1  0
 19 20  1  0
 21 22  1  0
 23 24  1  0
 25 26  1  0
M  CHG  1   8   1
M  END
>  <PDB_ID>  (3421) 
pdb5upb

>  <RESIDUE_NAME>  (3421) 
LYS   PHE

>  <FRAG_NAME>  (3421) 
ETAM   MBZ

>  <FRAG_ATOM_NUM>  (3421) 
fragi: 11  fragj: 15

>  <atom.prop.CHAIN_ID>  (3421) 
A A A A A A A A A A A Z Z Z Z Z Z Z Z Z Z Z Z Z Z Z

>  <atom.prop.IS_HEAVY_ATOM>  (3421) 
1 0 0 0 1 0 0 1 0 0 0 1 0 0 0 1 1 0 1 0 1 0 1 0 1 0

>  <DIFUSE_FUNC_ATOM>  (3421) 
n/a

>  <FINAL_SINGLE_POINT_ENERGY>  (3421) 
0

>  <NONCOV_INTER_ENERGY_QM>  (3421) 
0

>  <FF_Energy>  (3421) 
-5.21

>  <QM_Energy>  (3421) 
-11.07

>  <source>  (3421) 
ETAM_MBZ

>  <Index>  (3421) 
37742

$$$$
ETAM-pdb5uro-A-LYS-18:MBZ-pdb5uro-A-PHE-103
     RDKit          3D

 26 25  0  0  0  0  0  0  0  0999 V2000
    2.1407   -2.4896   -4.1723 C   0  0  0  0  0  0  0  0  0  0  0  0
    2.6788   -2.2594   -3.3704 H   0  0  0  0  0  0  0  0  0  0  0  0
    2.4340   -1.9571   -4.9566 H   0  0  0  0  0  0  0  0  0  0  0  0
    2.2853   -3.5468   -4.3953 H   0  0  0  0  0  0  0  0  0  0  0  0
    0.6708   -2.1664   -3.8849 C   0  0  0  0  0  0  0  0  0  0  0  0
    0.1138   -2.4737   -4.6580 H   0  0  0  0  0  0  0  0  0  0  0  0
    0.3857   -2.6558   -3.0593 H   0  0  0  0  0  0  0  0  0  0  0  0
    0.4410   -0.6886   -3.6770 N   0  0  0  0  0  4  0  0  0  0  0  0
   -0.3282   -0.4013   -4.2409 H   0  0  0  0  0  0  0  0  0  0  0  0
    0.2400   -0.5273   -2.7149 H   0  0  0  0  0  0  0  0  0  0  0  0
    1.2638   -0.1956   -3.9436 H   0  0  0  0  0  0  0  0  0  0  0  0
   -0.0027    2.8981   -0.0078 C   0  0  0  0  0  0  0  0  0  0  0  0
    0.8661    3.2063    0.3477 H   0  0  0  0  0  0  0  0  0  0  0  0
   -0.7528    3.2055    0.5568 H   0  0  0  0  0  0  0  0  0  0  0  0
   -0.1310    3.3360   -0.9977 H   0  0  0  0  0  0  0  0  0  0  0  0
   -0.0022    1.3956   -0.0061 C   0  0  0  0  0  0  0  0  0  0  0  0
   -1.1939    0.6888    0.0022 C   0  0  0  0  0  0  0  0  0  0  0  0
   -2.0618    1.1808    0.0090 H   0  0  0  0  0  0  0  0  0  0  0  0
   -1.1955   -0.6917   -0.0000 C   0  0  0  0  0  0  0  0  0  0  0  0
   -2.0715   -1.1916   -0.0023 H   0  0  0  0  0  0  0  0  0  0  0  0
    0.0053   -1.3870    0.0026 C   0  0  0  0  0  0  0  0  0  0  0  0
   -0.0058   -2.3890    0.0059 H   0  0  0  0  0  0  0  0  0  0  0  0
    1.1955   -0.7005    0.0000 C   0  0  0  0  0  0  0  0  0  0  0  0
    2.0812   -1.1913   -0.0016 H   0  0  0  0  0  0  0  0  0  0  0  0
    1.1908    0.6948    0.0012 C   0  0  0  0  0  0  0  0  0  0  0  0
    2.0601    1.1877    0.0060 H   0  0  0  0  0  0  0  0  0  0  0  0
  1  5  1  0
  5  8  1  0
  1  2  1  0
  1  3  1  0
  1  4  1  0
  5  6  1  0
  5  7  1  0
  8  9  1  0
  8 10  1  0
  8 11  1  0
 12 16  1  0
 16 17  2  0
 17 19  1  0
 19 21  2  0
 21 23  1  0
 23 25  2  0
 25 16  1  0
 12 13  1  0
 12 14  1  0
 12 15  1  0
 17 18  1  0
 19 20  1  0
 21 22  1  0
 23 24  1  0
 25 26  1  0
M  CHG  1   8   1
M  END
>  <PDB_ID>  (3422) 
pdb5uro

>  <RESIDUE_NAME>  (3422) 
LYS   PHE

>  <FRAG_NAME>  (3422) 
ETAM   MBZ

>  <FRAG_ATOM_NUM>  (3422) 
fragi: 11  fragj: 15

>  <atom.prop.CHAIN_ID>  (3422) 
A A A A A A A A A A A Z Z Z Z Z Z Z Z Z Z Z Z Z Z Z

>  <atom.prop.IS_HEAVY_ATOM>  (3422) 
1 0 0 0 1 0 0 1 0 0 0 1 0 0 0 1 1 0 1 0 1 0 1 0 1 0

>  <DIFUSE_FUNC_ATOM>  (3422) 
n/a

>  <FINAL_SINGLE_POINT_ENERGY>  (3422) 
0

>  <NONCOV_INTER_ENERGY_QM>  (3422) 
0

>  <FF_Energy>  (3422) 
-7.11

>  <QM_Energy>  (3422) 
-13.17

>  <source>  (3422) 
ETAM_MBZ

>  <Index>  (3422) 
37746

$$$$
ETAM-pdb5us1-I-LYS-18:MBZ-pdb5us1-I-PHE-38
     RDKit          3D

 26 25  0  0  0  0  0  0  0  0999 V2000
    2.3764   -5.6955    1.6206 C   0  0  0  0  0  0  0  0  0  0  0  0
    2.2940   -6.2193    2.4629 H   0  0  0  0  0  0  0  0  0  0  0  0
    3.0370   -6.1236    1.0124 H   0  0  0  0  0  0  0  0  0  0  0  0
    1.4057   -5.6712    1.1255 H   0  0  0  0  0  0  0  0  0  0  0  0
    2.8669   -4.2984    1.9635 C   0  0  0  0  0  0  0  0  0  0  0  0
    2.1677   -3.8334    2.5129 H   0  0  0  0  0  0  0  0  0  0  0  0
    3.7082   -4.3722    2.5058 H   0  0  0  0  0  0  0  0  0  0  0  0
    3.1436   -3.4919    0.7412 N   0  0  0  0  0  4  0  0  0  0  0  0
    4.0710   -3.1238    0.7910 H   0  0  0  0  0  0  0  0  0  0  0  0
    3.0562   -4.0743   -0.0659 H   0  0  0  0  0  0  0  0  0  0  0  0
    2.4867   -2.7409    0.6848 H   0  0  0  0  0  0  0  0  0  0  0  0
    0.0017    2.9031    0.0038 C   0  0  0  0  0  0  0  0  0  0  0  0
   -0.3679    3.2096   -0.8600 H   0  0  0  0  0  0  0  0  0  0  0  0
    0.9339    3.2066    0.1262 H   0  0  0  0  0  0  0  0  0  0  0  0
   -0.6006    3.3391    0.8008 H   0  0  0  0  0  0  0  0  0  0  0  0
    0.0011    1.3972   -0.0009 C   0  0  0  0  0  0  0  0  0  0  0  0
   -1.1919    0.6889   -0.0009 C   0  0  0  0  0  0  0  0  0  0  0  0
   -2.0601    1.1796   -0.0026 H   0  0  0  0  0  0  0  0  0  0  0  0
   -1.1959   -0.6977   -0.0000 C   0  0  0  0  0  0  0  0  0  0  0  0
   -2.0749   -1.1912    0.0025 H   0  0  0  0  0  0  0  0  0  0  0  0
   -0.0011   -1.3878   -0.0002 C   0  0  0  0  0  0  0  0  0  0  0  0
   -0.0010   -2.3884   -0.0007 H   0  0  0  0  0  0  0  0  0  0  0  0
    1.1959   -0.6913    0.0000 C   0  0  0  0  0  0  0  0  0  0  0  0
    2.0786   -1.1919    0.0007 H   0  0  0  0  0  0  0  0  0  0  0  0
    1.1919    0.6907    0.0020 C   0  0  0  0  0  0  0  0  0  0  0  0
    2.0623    1.1895    0.0044 H   0  0  0  0  0  0  0  0  0  0  0  0
  1  5  1  0
  5  8  1  0
  1  2  1  0
  1  3  1  0
  1  4  1  0
  5  6  1  0
  5  7  1  0
  8  9  1  0
  8 10  1  0
  8 11  1  0
 12 16  1  0
 16 17  2  0
 17 19  1  0
 19 21  2  0
 21 23  1  0
 23 25  2  0
 25 16  1  0
 12 13  1  0
 12 14  1  0
 12 15  1  0
 17 18  1  0
 19 20  1  0
 21 22  1  0
 23 24  1  0
 25 26  1  0
M  CHG  1   8   1
M  END
>  <PDB_ID>  (3423) 
pdb5us1

>  <RESIDUE_NAME>  (3423) 
LYS   PHE

>  <FRAG_NAME>  (3423) 
ETAM   MBZ

>  <FRAG_ATOM_NUM>  (3423) 
fragi: 11  fragj: 15

>  <atom.prop.CHAIN_ID>  (3423) 
A A A A A A A A A A A Z Z Z Z Z Z Z Z Z Z Z Z Z Z Z

>  <atom.prop.IS_HEAVY_ATOM>  (3423) 
1 0 0 0 1 0 0 1 0 0 0 1 0 0 0 1 1 0 1 0 1 0 1 0 1 0

>  <DIFUSE_FUNC_ATOM>  (3423) 
n/a

>  <FINAL_SINGLE_POINT_ENERGY>  (3423) 
0

>  <NONCOV_INTER_ENERGY_QM>  (3423) 
0

>  <FF_Energy>  (3423) 
1.63

>  <QM_Energy>  (3423) 
-4.1

>  <source>  (3423) 
ETAM_MBZ

>  <Index>  (3423) 
37763

$$$$
ETAM-pdb5uwc-G-LYS-102:MBZ-pdb5uwc-G-PHE-191
     RDKit          3D

 26 25  0  0  0  0  0  0  0  0999 V2000
   -1.0967   -1.8577   -2.9224 C   0  0  0  0  0  0  0  0  0  0  0  0
   -0.3959   -1.2300   -2.5712 H   0  0  0  0  0  0  0  0  0  0  0  0
   -1.7033   -2.1225   -2.1679 H   0  0  0  0  0  0  0  0  0  0  0  0
   -1.6833   -1.3410   -3.6821 H   0  0  0  0  0  0  0  0  0  0  0  0
   -0.4006   -3.1099   -3.4375 C   0  0  0  0  0  0  0  0  0  0  0  0
   -1.0773   -3.7009   -3.8761 H   0  0  0  0  0  0  0  0  0  0  0  0
    0.2931   -2.8453   -4.1079 H   0  0  0  0  0  0  0  0  0  0  0  0
    0.2564   -3.8599   -2.3248 N   0  0  0  0  0  4  0  0  0  0  0  0
   -0.0429   -3.4798   -1.4511 H   0  0  0  0  0  0  0  0  0  0  0  0
   -0.0020   -4.8232   -2.3805 H   0  0  0  0  0  0  0  0  0  0  0  0
    1.2473   -3.7716   -2.4091 H   0  0  0  0  0  0  0  0  0  0  0  0
   -0.0023    2.8876    0.0046 C   0  0  0  0  0  0  0  0  0  0  0  0
   -0.7000    3.2017   -0.6221 H   0  0  0  0  0  0  0  0  0  0  0  0
    0.8948    3.2011   -0.2687 H   0  0  0  0  0  0  0  0  0  0  0  0
   -0.2179    3.3280    0.9781 H   0  0  0  0  0  0  0  0  0  0  0  0
   -0.0020    1.3937    0.0020 C   0  0  0  0  0  0  0  0  0  0  0  0
   -1.1946    0.7018   -0.0060 C   0  0  0  0  0  0  0  0  0  0  0  0
   -2.0597    1.1971   -0.0178 H   0  0  0  0  0  0  0  0  0  0  0  0
   -1.2021   -0.6780   -0.0000 C   0  0  0  0  0  0  0  0  0  0  0  0
   -2.0798   -1.1764    0.0038 H   0  0  0  0  0  0  0  0  0  0  0  0
   -0.0006   -1.3897    0.0032 C   0  0  0  0  0  0  0  0  0  0  0  0
   -0.0194   -2.3878    0.0074 H   0  0  0  0  0  0  0  0  0  0  0  0
    1.2021   -0.7060    0.0000 C   0  0  0  0  0  0  0  0  0  0  0  0
    2.0799   -1.2069   -0.0017 H   0  0  0  0  0  0  0  0  0  0  0  0
    1.1972    0.6783    0.0008 C   0  0  0  0  0  0  0  0  0  0  0  0
    2.0646    1.1796   -0.0004 H   0  0  0  0  0  0  0  0  0  0  0  0
  1  5  1  0
  5  8  1  0
  1  2  1  0
  1  3  1  0
  1  4  1  0
  5  6  1  0
  5  7  1  0
  8  9  1  0
  8 10  1  0
  8 11  1  0
 12 16  1  0
 16 17  2  0
 17 19  1  0
 19 21  2  0
 21 23  1  0
 23 25  2  0
 25 16  1  0
 12 13  1  0
 12 14  1  0
 12 15  1  0
 17 18  1  0
 19 20  1  0
 21 22  1  0
 23 24  1  0
 25 26  1  0
M  CHG  1   8   1
M  END
>  <PDB_ID>  (3424) 
pdb5uwc

>  <RESIDUE_NAME>  (3424) 
LYS   PHE

>  <FRAG_NAME>  (3424) 
ETAM   MBZ

>  <FRAG_ATOM_NUM>  (3424) 
fragi: 11  fragj: 15

>  <atom.prop.CHAIN_ID>  (3424) 
A A A A A A A A A A A Z Z Z Z Z Z Z Z Z Z Z Z Z Z Z

>  <atom.prop.IS_HEAVY_ATOM>  (3424) 
1 0 0 0 1 0 0 1 0 0 0 1 0 0 0 1 1 0 1 0 1 0 1 0 1 0

>  <DIFUSE_FUNC_ATOM>  (3424) 
n/a

>  <FINAL_SINGLE_POINT_ENERGY>  (3424) 
0

>  <NONCOV_INTER_ENERGY_QM>  (3424) 
0

>  <FF_Energy>  (3424) 
1.19

>  <QM_Energy>  (3424) 
-4.92

>  <source>  (3424) 
ETAM_MBZ

>  <Index>  (3424) 
37778

$$$$
ETAM-pdb5upb-D-LYS-123:MBZ-pdb5upb-C-PHE-7
     RDKit          3D

 26 25  0  0  0  0  0  0  0  0999 V2000
    1.1654   -1.5280   -3.4499 C   0  0  0  0  0  0  0  0  0  0  0  0
    1.6301   -1.8083   -2.6463 H   0  0  0  0  0  0  0  0  0  0  0  0
    1.6445   -1.8305   -4.2376 H   0  0  0  0  0  0  0  0  0  0  0  0
    0.1618   -1.9532   -3.4532 H   0  0  0  0  0  0  0  0  0  0  0  0
    1.1238   -0.0123   -3.4710 C   0  0  0  0  0  0  0  0  0  0  0  0
    0.7698    0.2869   -4.3232 H   0  0  0  0  0  0  0  0  0  0  0  0
    0.5636    0.3026   -2.7452 H   0  0  0  0  0  0  0  0  0  0  0  0
    2.4784    0.5724   -3.3002 N   0  0  0  0  0  4  0  0  0  0  0  0
    2.4304    1.4603   -3.3153 H   0  0  0  0  0  0  0  0  0  0  0  0
    2.8234    0.3144   -2.5214 H   0  0  0  0  0  0  0  0  0  0  0  0
    3.0119    0.3001   -3.9583 H   0  0  0  0  0  0  0  0  0  0  0  0
    0.0147    2.9266   -0.0005 C   0  0  0  0  0  0  0  0  0  0  0  0
    0.8176    3.2146   -0.4629 H   0  0  0  0  0  0  0  0  0  0  0  0
    0.0430    3.2233    0.9224 H   0  0  0  0  0  0  0  0  0  0  0  0
   -0.8494    3.3804   -0.4859 H   0  0  0  0  0  0  0  0  0  0  0  0
    0.0020    1.3974    0.0015 C   0  0  0  0  0  0  0  0  0  0  0  0
   -1.1963    0.6943    0.0008 C   0  0  0  0  0  0  0  0  0  0  0  0
   -1.9997    1.1607   -0.0004 H   0  0  0  0  0  0  0  0  0  0  0  0
   -1.2101   -0.6942   -0.0000 C   0  0  0  0  0  0  0  0  0  0  0  0
   -2.0186   -1.1535   -0.0022 H   0  0  0  0  0  0  0  0  0  0  0  0
   -0.0002   -1.3987   -0.0061 C   0  0  0  0  0  0  0  0  0  0  0  0
    0.0008   -2.3288   -0.0030 H   0  0  0  0  0  0  0  0  0  0  0  0
    1.2101   -0.6880    0.0000 C   0  0  0  0  0  0  0  0  0  0  0  0
    2.0203   -1.1454   -0.0006 H   0  0  0  0  0  0  0  0  0  0  0  0
    1.1945    0.6893    0.0037 C   0  0  0  0  0  0  0  0  0  0  0  0
    2.0003    1.1537    0.0015 H   0  0  0  0  0  0  0  0  0  0  0  0
  1  5  1  0
  5  8  1  0
  1  2  1  0
  1  3  1  0
  1  4  1  0
  5  6  1  0
  5  7  1  0
  8  9  1  0
  8 10  1  0
  8 11  1  0
 12 16  1  0
 16 17  2  0
 17 19  1  0
 19 21  2  0
 21 23  1  0
 23 25  2  0
 25 16  1  0
 12 13  1  0
 12 14  1  0
 12 15  1  0
 17 18  1  0
 19 20  1  0
 21 22  1  0
 23 24  1  0
 25 26  1  0
M  CHG  1   8   1
M  END
>  <PDB_ID>  (3425) 
pdb5upb

>  <RESIDUE_NAME>  (3425) 
LYS   PHE

>  <FRAG_NAME>  (3425) 
ETAM   MBZ

>  <FRAG_ATOM_NUM>  (3425) 
fragi: 11  fragj: 15

>  <atom.prop.CHAIN_ID>  (3425) 
A A A A A A A A A A A Z Z Z Z Z Z Z Z Z Z Z Z Z Z Z

>  <atom.prop.IS_HEAVY_ATOM>  (3425) 
1 0 0 0 1 0 0 1 0 0 0 1 0 0 0 1 1 0 1 0 1 0 1 0 1 0

>  <DIFUSE_FUNC_ATOM>  (3425) 
n/a

>  <FINAL_SINGLE_POINT_ENERGY>  (3425) 
0

>  <NONCOV_INTER_ENERGY_QM>  (3425) 
0

>  <FF_Energy>  (3425) 
-4.97

>  <QM_Energy>  (3425) 
-10.67

>  <source>  (3425) 
ETAM_MBZ

>  <Index>  (3425) 
37785

$$$$
ETAM-pdb5uzp-B-LYS-76:MBZ-pdb5uzp-A-PHE-460
     RDKit          3D

 26 25  0  0  0  0  0  0  0  0999 V2000
    0.3157   -1.2735   -4.5234 C   0  0  0  0  0  0  0  0  0  0  0  0
    0.8632   -1.9874   -4.0880 H   0  0  0  0  0  0  0  0  0  0  0  0
    0.8266   -0.4151   -4.5260 H   0  0  0  0  0  0  0  0  0  0  0  0
    0.1086   -1.5658   -5.5528 H   0  0  0  0  0  0  0  0  0  0  0  0
   -0.9524   -1.0754   -3.7081 C   0  0  0  0  0  0  0  0  0  0  0  0
   -0.7084   -0.6590   -2.8319 H   0  0  0  0  0  0  0  0  0  0  0  0
   -1.5630   -0.4609   -4.2090 H   0  0  0  0  0  0  0  0  0  0  0  0
   -1.6243   -2.3627   -3.4771 N   0  0  0  0  0  4  0  0  0  0  0  0
   -1.1215   -2.8910   -2.7888 H   0  0  0  0  0  0  0  0  0  0  0  0
   -2.5593   -2.2055   -3.1505 H   0  0  0  0  0  0  0  0  0  0  0  0
   -1.6592   -2.8867   -4.3315 H   0  0  0  0  0  0  0  0  0  0  0  0
   -0.0241    2.8889    0.0103 C   0  0  0  0  0  0  0  0  0  0  0  0
   -0.7932    3.1903   -0.5360 H   0  0  0  0  0  0  0  0  0  0  0  0
    0.8318    3.2054   -0.3751 H   0  0  0  0  0  0  0  0  0  0  0  0
   -0.1265    3.3273    1.0031 H   0  0  0  0  0  0  0  0  0  0  0  0
   -0.0100    1.3944    0.0079 C   0  0  0  0  0  0  0  0  0  0  0  0
   -1.1972    0.6962    0.0070 C   0  0  0  0  0  0  0  0  0  0  0  0
   -2.0664    1.1872    0.0105 H   0  0  0  0  0  0  0  0  0  0  0  0
   -1.2045   -0.6880   -0.0000 C   0  0  0  0  0  0  0  0  0  0  0  0
   -2.0712   -1.1900    0.0014 H   0  0  0  0  0  0  0  0  0  0  0  0
    0.0135   -1.3842   -0.0067 C   0  0  0  0  0  0  0  0  0  0  0  0
   -0.0035   -2.3870   -0.0172 H   0  0  0  0  0  0  0  0  0  0  0  0
    1.2045   -0.7014    0.0000 C   0  0  0  0  0  0  0  0  0  0  0  0
    2.0873   -1.1953    0.0119 H   0  0  0  0  0  0  0  0  0  0  0  0
    1.1938    0.6831   -0.0082 C   0  0  0  0  0  0  0  0  0  0  0  0
    2.0586    1.1880   -0.0264 H   0  0  0  0  0  0  0  0  0  0  0  0
  1  5  1  0
  5  8  1  0
  1  2  1  0
  1  3  1  0
  1  4  1  0
  5  6  1  0
  5  7  1  0
  8  9  1  0
  8 10  1  0
  8 11  1  0
 12 16  1  0
 16 17  2  0
 17 19  1  0
 19 21  2  0
 21 23  1  0
 23 25  2  0
 25 16  1  0
 12 13  1  0
 12 14  1  0
 12 15  1  0
 17 18  1  0
 19 20  1  0
 21 22  1  0
 23 24  1  0
 25 26  1  0
M  CHG  1   8   1
M  END
>  <PDB_ID>  (3426) 
pdb5uzp

>  <RESIDUE_NAME>  (3426) 
LYS   PHE

>  <FRAG_NAME>  (3426) 
ETAM   MBZ

>  <FRAG_ATOM_NUM>  (3426) 
fragi: 11  fragj: 15

>  <atom.prop.CHAIN_ID>  (3426) 
A A A A A A A A A A A Z Z Z Z Z Z Z Z Z Z Z Z Z Z Z

>  <atom.prop.IS_HEAVY_ATOM>  (3426) 
1 0 0 0 1 0 0 1 0 0 0 1 0 0 0 1 1 0 1 0 1 0 1 0 1 0

>  <DIFUSE_FUNC_ATOM>  (3426) 
n/a

>  <FINAL_SINGLE_POINT_ENERGY>  (3426) 
0

>  <NONCOV_INTER_ENERGY_QM>  (3426) 
0

>  <FF_Energy>  (3426) 
-3.8

>  <QM_Energy>  (3426) 
-8.87

>  <source>  (3426) 
ETAM_MBZ

>  <Index>  (3426) 
37831

$$$$
ETAM-pdb5uww-C-LYS-112:MBZ-pdb5uww-C-PHE-108
     RDKit          3D

 26 25  0  0  0  0  0  0  0  0999 V2000
    0.3444   -0.4577    5.3214 C   0  0  0  0  0  0  0  0  0  0  0  0
    0.1091   -1.3759    5.5262 H   0  0  0  0  0  0  0  0  0  0  0  0
   -0.3708   -0.0277    4.8276 H   0  0  0  0  0  0  0  0  0  0  0  0
    0.5211    0.0862    6.2494 H   0  0  0  0  0  0  0  0  0  0  0  0
    1.5899   -0.4660    4.4481 C   0  0  0  0  0  0  0  0  0  0  0  0
    1.8935    0.4460    4.3197 H   0  0  0  0  0  0  0  0  0  0  0  0
    2.2804   -0.9879    4.8867 H   0  0  0  0  0  0  0  0  0  0  0  0
    1.3406   -1.0624    3.1087 N   0  0  0  0  0  4  0  0  0  0  0  0
    2.0891   -1.0506    2.6268 H   0  0  0  0  0  0  0  0  0  0  0  0
    1.0666   -1.9047    3.1971 H   0  0  0  0  0  0  0  0  0  0  0  0
    0.7133   -0.5981    2.6810 H   0  0  0  0  0  0  0  0  0  0  0  0
   -0.0029    2.8973   -0.0023 C   0  0  0  0  0  0  0  0  0  0  0  0
   -0.6939    3.1912   -0.6156 H   0  0  0  0  0  0  0  0  0  0  0  0
    0.8655    3.1950   -0.3166 H   0  0  0  0  0  0  0  0  0  0  0  0
   -0.1916    3.3385    0.9764 H   0  0  0  0  0  0  0  0  0  0  0  0
   -0.0004    1.3958    0.0001 C   0  0  0  0  0  0  0  0  0  0  0  0
   -1.1915    0.6884   -0.0010 C   0  0  0  0  0  0  0  0  0  0  0  0
   -1.9987    1.1500   -0.0009 H   0  0  0  0  0  0  0  0  0  0  0  0
   -1.1945   -0.6945   -0.0000 C   0  0  0  0  0  0  0  0  0  0  0  0
   -2.0001   -1.1588    0.0005 H   0  0  0  0  0  0  0  0  0  0  0  0
    0.0010   -1.3864    0.0017 C   0  0  0  0  0  0  0  0  0  0  0  0
    0.0013   -2.3166    0.0014 H   0  0  0  0  0  0  0  0  0  0  0  0
    1.1945   -0.6932    0.0000 C   0  0  0  0  0  0  0  0  0  0  0  0
    2.0018   -1.1568    0.0001 H   0  0  0  0  0  0  0  0  0  0  0  0
    1.1909    0.6900   -0.0008 C   0  0  0  0  0  0  0  0  0  0  0  0
    1.9984    1.1516    0.0002 H   0  0  0  0  0  0  0  0  0  0  0  0
  1  5  1  0
  5  8  1  0
  1  2  1  0
  1  3  1  0
  1  4  1  0
  5  6  1  0
  5  7  1  0
  8  9  1  0
  8 10  1  0
  8 11  1  0
 12 16  1  0
 16 17  2  0
 17 19  1  0
 19 21  2  0
 21 23  1  0
 23 25  2  0
 25 16  1  0
 12 13  1  0
 12 14  1  0
 12 15  1  0
 17 18  1  0
 19 20  1  0
 21 22  1  0
 23 24  1  0
 25 26  1  0
M  CHG  1   8   1
M  END
>  <PDB_ID>  (3427) 
pdb5uww

>  <RESIDUE_NAME>  (3427) 
LYS   PHE

>  <FRAG_NAME>  (3427) 
ETAM   MBZ

>  <FRAG_ATOM_NUM>  (3427) 
fragi: 11  fragj: 15

>  <atom.prop.CHAIN_ID>  (3427) 
A A A A A A A A A A A Z Z Z Z Z Z Z Z Z Z Z Z Z Z Z

>  <atom.prop.IS_HEAVY_ATOM>  (3427) 
1 0 0 0 1 0 0 1 0 0 0 1 0 0 0 1 1 0 1 0 1 0 1 0 1 0

>  <DIFUSE_FUNC_ATOM>  (3427) 
n/a

>  <FINAL_SINGLE_POINT_ENERGY>  (3427) 
0

>  <NONCOV_INTER_ENERGY_QM>  (3427) 
0

>  <FF_Energy>  (3427) 
-5.5

>  <QM_Energy>  (3427) 
-12.7

>  <source>  (3427) 
ETAM_MBZ

>  <Index>  (3427) 
37838

$$$$
ETAM-pdb5v13-A-LYS-157:MBZ-pdb5v13-A-PHE-94
     RDKit          3D

 26 25  0  0  0  0  0  0  0  0999 V2000
   -4.9052   -1.8977   -3.7070 C   0  0  0  0  0  0  0  0  0  0  0  0
   -4.6293   -1.7718   -4.6537 H   0  0  0  0  0  0  0  0  0  0  0  0
   -5.4916   -1.1514   -3.4130 H   0  0  0  0  0  0  0  0  0  0  0  0
   -5.4613   -2.8317   -3.6271 H   0  0  0  0  0  0  0  0  0  0  0  0
   -3.6443   -1.8983   -2.8298 C   0  0  0  0  0  0  0  0  0  0  0  0
   -3.9242   -1.9137   -1.8635 H   0  0  0  0  0  0  0  0  0  0  0  0
   -3.1189   -2.7348   -3.0222 H   0  0  0  0  0  0  0  0  0  0  0  0
   -2.7594   -0.7036   -3.0607 N   0  0  0  0  0  4  0  0  0  0  0  0
   -2.8910   -0.3789   -3.9945 H   0  0  0  0  0  0  0  0  0  0  0  0
   -3.0072    0.0120   -2.4127 H   0  0  0  0  0  0  0  0  0  0  0  0
   -1.8096   -0.9738   -2.9238 H   0  0  0  0  0  0  0  0  0  0  0  0
    0.0124    2.9218   -0.0106 C   0  0  0  0  0  0  0  0  0  0  0  0
    0.9541    3.2176    0.0140 H   0  0  0  0  0  0  0  0  0  0  0  0
   -0.4855    3.2265    0.7863 H   0  0  0  0  0  0  0  0  0  0  0  0
   -0.4558    3.3679   -0.8880 H   0  0  0  0  0  0  0  0  0  0  0  0
    0.0049    1.4028   -0.0080 C   0  0  0  0  0  0  0  0  0  0  0  0
   -1.1917    0.6970    0.0125 C   0  0  0  0  0  0  0  0  0  0  0  0
   -2.0584    1.1868    0.0355 H   0  0  0  0  0  0  0  0  0  0  0  0
   -1.1998   -0.6964   -0.0000 C   0  0  0  0  0  0  0  0  0  0  0  0
   -2.0809   -1.1839   -0.0128 H   0  0  0  0  0  0  0  0  0  0  0  0
   -0.0062   -1.3964    0.0063 C   0  0  0  0  0  0  0  0  0  0  0  0
   -0.0080   -2.3931    0.0152 H   0  0  0  0  0  0  0  0  0  0  0  0
    1.1998   -0.6977    0.0000 C   0  0  0  0  0  0  0  0  0  0  0  0
    2.0782   -1.1979    0.0048 H   0  0  0  0  0  0  0  0  0  0  0  0
    1.1931    0.6908   -0.0109 C   0  0  0  0  0  0  0  0  0  0  0  0
    2.0658    1.1865   -0.0222 H   0  0  0  0  0  0  0  0  0  0  0  0
  1  5  1  0
  5  8  1  0
  1  2  1  0
  1  3  1  0
  1  4  1  0
  5  6  1  0
  5  7  1  0
  8  9  1  0
  8 10  1  0
  8 11  1  0
 12 16  1  0
 16 17  2  0
 17 19  1  0
 19 21  2  0
 21 23  1  0
 23 25  2  0
 25 16  1  0
 12 13  1  0
 12 14  1  0
 12 15  1  0
 17 18  1  0
 19 20  1  0
 21 22  1  0
 23 24  1  0
 25 26  1  0
M  CHG  1   8   1
M  END
>  <PDB_ID>  (3428) 
pdb5v13

>  <RESIDUE_NAME>  (3428) 
LYS   PHE

>  <FRAG_NAME>  (3428) 
ETAM   MBZ

>  <FRAG_ATOM_NUM>  (3428) 
fragi: 11  fragj: 15

>  <atom.prop.CHAIN_ID>  (3428) 
A A A A A A A A A A A Z Z Z Z Z Z Z Z Z Z Z Z Z Z Z

>  <atom.prop.IS_HEAVY_ATOM>  (3428) 
1 0 0 0 1 0 0 1 0 0 0 1 0 0 0 1 1 0 1 0 1 0 1 0 1 0

>  <DIFUSE_FUNC_ATOM>  (3428) 
n/a

>  <FINAL_SINGLE_POINT_ENERGY>  (3428) 
0

>  <NONCOV_INTER_ENERGY_QM>  (3428) 
0

>  <FF_Energy>  (3428) 
-3.3

>  <QM_Energy>  (3428) 
-8.86

>  <source>  (3428) 
ETAM_MBZ

>  <Index>  (3428) 
37840

$$$$
ETAM-pdb5v13-B-LYS-157:MBZ-pdb5v13-B-PHE-94
     RDKit          3D

 26 25  0  0  0  0  0  0  0  0999 V2000
   -4.6521   -1.8719   -3.5100 C   0  0  0  0  0  0  0  0  0  0  0  0
   -4.5360   -1.6469   -4.4727 H   0  0  0  0  0  0  0  0  0  0  0  0
   -5.2163   -1.1857   -3.0615 H   0  0  0  0  0  0  0  0  0  0  0  0
   -5.1509   -2.8382   -3.4352 H   0  0  0  0  0  0  0  0  0  0  0  0
   -3.2730   -1.8779   -2.8434 C   0  0  0  0  0  0  0  0  0  0  0  0
   -3.3896   -2.0300   -1.8574 H   0  0  0  0  0  0  0  0  0  0  0  0
   -2.7321   -2.6352   -3.2229 H   0  0  0  0  0  0  0  0  0  0  0  0
   -2.5160   -0.5904   -3.0494 N   0  0  0  0  0  4  0  0  0  0  0  0
   -2.4945   -0.0880   -2.1889 H   0  0  0  0  0  0  0  0  0  0  0  0
   -1.5884   -0.8055   -3.3430 H   0  0  0  0  0  0  0  0  0  0  0  0
   -2.9803   -0.0520   -3.7479 H   0  0  0  0  0  0  0  0  0  0  0  0
    0.0065    2.8973    0.0144 C   0  0  0  0  0  0  0  0  0  0  0  0
    0.9448    3.2002    0.0819 H   0  0  0  0  0  0  0  0  0  0  0  0
   -0.5255    3.1980    0.7916 H   0  0  0  0  0  0  0  0  0  0  0  0
   -0.4252    3.3512   -0.8776 H   0  0  0  0  0  0  0  0  0  0  0  0
    0.0022    1.3916   -0.0003 C   0  0  0  0  0  0  0  0  0  0  0  0
   -1.1886    0.6920    0.0153 C   0  0  0  0  0  0  0  0  0  0  0  0
   -2.0551    1.1915    0.0368 H   0  0  0  0  0  0  0  0  0  0  0  0
   -1.1962   -0.6785    0.0000 C   0  0  0  0  0  0  0  0  0  0  0  0
   -2.0782   -1.1770   -0.0020 H   0  0  0  0  0  0  0  0  0  0  0  0
   -0.0057   -1.3830   -0.0113 C   0  0  0  0  0  0  0  0  0  0  0  0
   -0.0193   -2.3838   -0.0278 H   0  0  0  0  0  0  0  0  0  0  0  0
    1.1962   -0.7011   -0.0000 C   0  0  0  0  0  0  0  0  0  0  0  0
    2.0730   -1.2043    0.0118 H   0  0  0  0  0  0  0  0  0  0  0  0
    1.1921    0.6791   -0.0036 C   0  0  0  0  0  0  0  0  0  0  0  0
    2.0634    1.1780   -0.0096 H   0  0  0  0  0  0  0  0  0  0  0  0
  1  5  1  0
  5  8  1  0
  1  2  1  0
  1  3  1  0
  1  4  1  0
  5  6  1  0
  5  7  1  0
  8  9  1  0
  8 10  1  0
  8 11  1  0
 12 16  1  0
 16 17  2  0
 17 19  1  0
 19 21  2  0
 21 23  1  0
 23 25  2  0
 25 16  1  0
 12 13  1  0
 12 14  1  0
 12 15  1  0
 17 18  1  0
 19 20  1  0
 21 22  1  0
 23 24  1  0
 25 26  1  0
M  CHG  1   8   1
M  END
>  <PDB_ID>  (3429) 
pdb5v13

>  <RESIDUE_NAME>  (3429) 
LYS   PHE

>  <FRAG_NAME>  (3429) 
ETAM   MBZ

>  <FRAG_ATOM_NUM>  (3429) 
fragi: 11  fragj: 15

>  <atom.prop.CHAIN_ID>  (3429) 
A A A A A A A A A A A Z Z Z Z Z Z Z Z Z Z Z Z Z Z Z

>  <atom.prop.IS_HEAVY_ATOM>  (3429) 
1 0 0 0 1 0 0 1 0 0 0 1 0 0 0 1 1 0 1 0 1 0 1 0 1 0

>  <DIFUSE_FUNC_ATOM>  (3429) 
n/a

>  <FINAL_SINGLE_POINT_ENERGY>  (3429) 
0

>  <NONCOV_INTER_ENERGY_QM>  (3429) 
0

>  <FF_Energy>  (3429) 
-3.89

>  <QM_Energy>  (3429) 
-10.16

>  <source>  (3429) 
ETAM_MBZ

>  <Index>  (3429) 
37841

$$$$
ETAM-pdb5v36-A-LYS-51:MBZ-pdb5v36-A-PHE-344
     RDKit          3D

 26 25  0  0  0  0  0  0  0  0999 V2000
   -0.6220   -0.9175    3.6948 C   0  0  0  0  0  0  0  0  0  0  0  0
   -0.9872    0.0075    3.7509 H   0  0  0  0  0  0  0  0  0  0  0  0
    0.1460   -0.9455    3.0613 H   0  0  0  0  0  0  0  0  0  0  0  0
   -0.2814   -1.2263    4.6831 H   0  0  0  0  0  0  0  0  0  0  0  0
   -1.7129   -1.8349    3.1696 C   0  0  0  0  0  0  0  0  0  0  0  0
   -2.4642   -1.8666    3.8451 H   0  0  0  0  0  0  0  0  0  0  0  0
   -2.0852   -1.4423    2.3156 H   0  0  0  0  0  0  0  0  0  0  0  0
   -1.2451   -3.2215    2.9010 N   0  0  0  0  0  4  0  0  0  0  0  0
   -2.0052   -3.8583    3.0289 H   0  0  0  0  0  0  0  0  0  0  0  0
   -0.9116   -3.2831    1.9609 H   0  0  0  0  0  0  0  0  0  0  0  0
   -0.5062   -3.4509    3.5337 H   0  0  0  0  0  0  0  0  0  0  0  0
   -0.0260    2.8843   -0.0331 C   0  0  0  0  0  0  0  0  0  0  0  0
    0.8349    3.2191    0.3118 H   0  0  0  0  0  0  0  0  0  0  0  0
   -0.7860    3.2029    0.5073 H   0  0  0  0  0  0  0  0  0  0  0  0
   -0.1529    3.2680   -1.0454 H   0  0  0  0  0  0  0  0  0  0  0  0
   -0.0055    1.3973    0.0156 C   0  0  0  0  0  0  0  0  0  0  0  0
   -1.1896    0.6900    0.0043 C   0  0  0  0  0  0  0  0  0  0  0  0
   -2.0631    1.1790   -0.0026 H   0  0  0  0  0  0  0  0  0  0  0  0
   -1.1965   -0.6960    0.0000 C   0  0  0  0  0  0  0  0  0  0  0  0
   -2.0734   -1.1901    0.0013 H   0  0  0  0  0  0  0  0  0  0  0  0
    0.0022   -1.3886   -0.0044 C   0  0  0  0  0  0  0  0  0  0  0  0
   -0.0030   -2.3899   -0.0109 H   0  0  0  0  0  0  0  0  0  0  0  0
    1.1965   -0.6970    0.0000 C   0  0  0  0  0  0  0  0  0  0  0  0
    2.0802   -1.1927    0.0160 H   0  0  0  0  0  0  0  0  0  0  0  0
    1.1929    0.6942   -0.0155 C   0  0  0  0  0  0  0  0  0  0  0  0
    2.0583    1.1900   -0.0503 H   0  0  0  0  0  0  0  0  0  0  0  0
  1  5  1  0
  5  8  1  0
  1  2  1  0
  1  3  1  0
  1  4  1  0
  5  6  1  0
  5  7  1  0
  8  9  1  0
  8 10  1  0
  8 11  1  0
 12 16  1  0
 16 17  2  0
 17 19  1  0
 19 21  2  0
 21 23  1  0
 23 25  2  0
 25 16  1  0
 12 13  1  0
 12 14  1  0
 12 15  1  0
 17 18  1  0
 19 20  1  0
 21 22  1  0
 23 24  1  0
 25 26  1  0
M  CHG  1   8   1
M  END
>  <PDB_ID>  (3430) 
pdb5v36

>  <RESIDUE_NAME>  (3430) 
LYS   PHE

>  <FRAG_NAME>  (3430) 
ETAM   MBZ

>  <FRAG_ATOM_NUM>  (3430) 
fragi: 11  fragj: 15

>  <atom.prop.CHAIN_ID>  (3430) 
A A A A A A A A A A A Z Z Z Z Z Z Z Z Z Z Z Z Z Z Z

>  <atom.prop.IS_HEAVY_ATOM>  (3430) 
1 0 0 0 1 0 0 1 0 0 0 1 0 0 0 1 1 0 1 0 1 0 1 0 1 0

>  <DIFUSE_FUNC_ATOM>  (3430) 
n/a

>  <FINAL_SINGLE_POINT_ENERGY>  (3430) 
0

>  <NONCOV_INTER_ENERGY_QM>  (3430) 
0

>  <FF_Energy>  (3430) 
-2.43

>  <QM_Energy>  (3430) 
-8.93

>  <source>  (3430) 
ETAM_MBZ

>  <Index>  (3430) 
37853

$$$$
ETAM-pdb5v36-B-LYS-51:MBZ-pdb5v36-B-PHE-344
     RDKit          3D

 26 25  0  0  0  0  0  0  0  0999 V2000
   -0.6268   -0.9631    3.7175 C   0  0  0  0  0  0  0  0  0  0  0  0
   -0.9148   -0.0088    3.7646 H   0  0  0  0  0  0  0  0  0  0  0  0
    0.1284   -1.0577    3.0725 H   0  0  0  0  0  0  0  0  0  0  0  0
   -0.2952   -1.2837    4.7052 H   0  0  0  0  0  0  0  0  0  0  0  0
   -1.7976   -1.7928    3.2109 C   0  0  0  0  0  0  0  0  0  0  0  0
   -2.5482   -1.7455    3.8894 H   0  0  0  0  0  0  0  0  0  0  0  0
   -2.1404   -1.3824    2.3504 H   0  0  0  0  0  0  0  0  0  0  0  0
   -1.4664   -3.2287    2.9599 N   0  0  0  0  0  4  0  0  0  0  0  0
   -0.6472   -3.4716    3.4765 H   0  0  0  0  0  0  0  0  0  0  0  0
   -2.2325   -3.7979    3.2533 H   0  0  0  0  0  0  0  0  0  0  0  0
   -1.3012   -3.3617    1.9837 H   0  0  0  0  0  0  0  0  0  0  0  0
   -0.0100    2.8892   -0.0453 C   0  0  0  0  0  0  0  0  0  0  0  0
    0.8454    3.2182    0.3110 H   0  0  0  0  0  0  0  0  0  0  0  0
   -0.7795    3.2091    0.4766 H   0  0  0  0  0  0  0  0  0  0  0  0
   -0.1159    3.2644   -1.0633 H   0  0  0  0  0  0  0  0  0  0  0  0
    0.0037    1.3943    0.0090 C   0  0  0  0  0  0  0  0  0  0  0  0
   -1.1961    0.6775    0.0036 C   0  0  0  0  0  0  0  0  0  0  0  0
   -2.0612    1.1696    0.0008 H   0  0  0  0  0  0  0  0  0  0  0  0
   -1.1940   -0.7059   -0.0000 C   0  0  0  0  0  0  0  0  0  0  0  0
   -2.0686   -1.2047    0.0002 H   0  0  0  0  0  0  0  0  0  0  0  0
    0.0041   -1.3820   -0.0023 C   0  0  0  0  0  0  0  0  0  0  0  0
    0.0116   -2.3866   -0.0061 H   0  0  0  0  0  0  0  0  0  0  0  0
    1.1940   -0.6831    0.0000 C   0  0  0  0  0  0  0  0  0  0  0  0
    2.0809   -1.1801    0.0110 H   0  0  0  0  0  0  0  0  0  0  0  0
    1.1883    0.6992   -0.0104 C   0  0  0  0  0  0  0  0  0  0  0  0
    2.0595    1.1955   -0.0325 H   0  0  0  0  0  0  0  0  0  0  0  0
  1  5  1  0
  5  8  1  0
  1  2  1  0
  1  3  1  0
  1  4  1  0
  5  6  1  0
  5  7  1  0
  8  9  1  0
  8 10  1  0
  8 11  1  0
 12 16  1  0
 16 17  2  0
 17 19  1  0
 19 21  2  0
 21 23  1  0
 23 25  2  0
 25 16  1  0
 12 13  1  0
 12 14  1  0
 12 15  1  0
 17 18  1  0
 19 20  1  0
 21 22  1  0
 23 24  1  0
 25 26  1  0
M  CHG  1   8   1
M  END
>  <PDB_ID>  (3431) 
pdb5v36

>  <RESIDUE_NAME>  (3431) 
LYS   PHE

>  <FRAG_NAME>  (3431) 
ETAM   MBZ

>  <FRAG_ATOM_NUM>  (3431) 
fragi: 11  fragj: 15

>  <atom.prop.CHAIN_ID>  (3431) 
A A A A A A A A A A A Z Z Z Z Z Z Z Z Z Z Z Z Z Z Z

>  <atom.prop.IS_HEAVY_ATOM>  (3431) 
1 0 0 0 1 0 0 1 0 0 0 1 0 0 0 1 1 0 1 0 1 0 1 0 1 0

>  <DIFUSE_FUNC_ATOM>  (3431) 
n/a

>  <FINAL_SINGLE_POINT_ENERGY>  (3431) 
0

>  <NONCOV_INTER_ENERGY_QM>  (3431) 
0

>  <FF_Energy>  (3431) 
-2.5

>  <QM_Energy>  (3431) 
-8.34

>  <source>  (3431) 
ETAM_MBZ

>  <Index>  (3431) 
37855

$$$$
ETAM-pdb5v1q-A-LYS-135:MBZ-pdb5v1q-A-PHE-379
     RDKit          3D

 26 25  0  0  0  0  0  0  0  0999 V2000
    0.2972   -0.0045    3.3893 C   0  0  0  0  0  0  0  0  0  0  0  0
    1.0455    0.0268    2.7244 H   0  0  0  0  0  0  0  0  0  0  0  0
   -0.5210   -0.3767    2.9479 H   0  0  0  0  0  0  0  0  0  0  0  0
    0.5845   -0.6629    4.2091 H   0  0  0  0  0  0  0  0  0  0  0  0
   -0.0000    1.4036    3.8480 C   0  0  0  0  0  0  0  0  0  0  0  0
   -0.3472    1.3764    4.7861 H   0  0  0  0  0  0  0  0  0  0  0  0
    0.8419    1.9433    3.8221 H   0  0  0  0  0  0  0  0  0  0  0  0
   -1.0139    2.0404    2.9706 N   0  0  0  0  0  4  0  0  0  0  0  0
   -0.5548    2.6104    2.2883 H   0  0  0  0  0  0  0  0  0  0  0  0
   -1.5475    1.3323    2.5084 H   0  0  0  0  0  0  0  0  0  0  0  0
   -1.6230    2.6099    3.5236 H   0  0  0  0  0  0  0  0  0  0  0  0
   -0.0011    2.8958    0.0021 C   0  0  0  0  0  0  0  0  0  0  0  0
    0.9152    3.2038   -0.2069 H   0  0  0  0  0  0  0  0  0  0  0  0
   -0.2883    3.2032    0.8970 H   0  0  0  0  0  0  0  0  0  0  0  0
   -0.6753    3.3361   -0.7326 H   0  0  0  0  0  0  0  0  0  0  0  0
    0.0000    1.3944    0.0020 C   0  0  0  0  0  0  0  0  0  0  0  0
   -1.1909    0.6891   -0.0016 C   0  0  0  0  0  0  0  0  0  0  0  0
   -2.0594    1.1818   -0.0071 H   0  0  0  0  0  0  0  0  0  0  0  0
   -1.1958   -0.6922   -0.0000 C   0  0  0  0  0  0  0  0  0  0  0  0
   -2.0749   -1.1879    0.0033 H   0  0  0  0  0  0  0  0  0  0  0  0
   -0.0019   -1.3849   -0.0010 C   0  0  0  0  0  0  0  0  0  0  0  0
   -0.0059   -2.3866   -0.0033 H   0  0  0  0  0  0  0  0  0  0  0  0
    1.1958   -0.6942    0.0000 C   0  0  0  0  0  0  0  0  0  0  0  0
    2.0770   -1.1958    0.0018 H   0  0  0  0  0  0  0  0  0  0  0  0
    1.1928    0.6879    0.0006 C   0  0  0  0  0  0  0  0  0  0  0  0
    2.0621    1.1864   -0.0011 H   0  0  0  0  0  0  0  0  0  0  0  0
  1  5  1  0
  5  8  1  0
  1  2  1  0
  1  3  1  0
  1  4  1  0
  5  6  1  0
  5  7  1  0
  8  9  1  0
  8 10  1  0
  8 11  1  0
 12 16  1  0
 16 17  2  0
 17 19  1  0
 19 21  2  0
 21 23  1  0
 23 25  2  0
 25 16  1  0
 12 13  1  0
 12 14  1  0
 12 15  1  0
 17 18  1  0
 19 20  1  0
 21 22  1  0
 23 24  1  0
 25 26  1  0
M  CHG  1   8   1
M  END
>  <PDB_ID>  (3432) 
pdb5v1q

>  <RESIDUE_NAME>  (3432) 
LYS   PHE

>  <FRAG_NAME>  (3432) 
ETAM   MBZ

>  <FRAG_ATOM_NUM>  (3432) 
fragi: 11  fragj: 15

>  <atom.prop.CHAIN_ID>  (3432) 
A A A A A A A A A A A Z Z Z Z Z Z Z Z Z Z Z Z Z Z Z

>  <atom.prop.IS_HEAVY_ATOM>  (3432) 
1 0 0 0 1 0 0 1 0 0 0 1 0 0 0 1 1 0 1 0 1 0 1 0 1 0

>  <DIFUSE_FUNC_ATOM>  (3432) 
n/a

>  <FINAL_SINGLE_POINT_ENERGY>  (3432) 
0

>  <NONCOV_INTER_ENERGY_QM>  (3432) 
0

>  <FF_Energy>  (3432) 
-4.64

>  <QM_Energy>  (3432) 
-9.78

>  <source>  (3432) 
ETAM_MBZ

>  <Index>  (3432) 
37862

$$$$
ETAM-pdb5v50-F-LYS-96:MBZ-pdb5v50-F-PHE-37
     RDKit          3D

 26 25  0  0  0  0  0  0  0  0999 V2000
   -3.3419   -0.2144    4.0989 C   0  0  0  0  0  0  0  0  0  0  0  0
   -3.0157    0.2459    4.9105 H   0  0  0  0  0  0  0  0  0  0  0  0
   -2.5946   -0.4961    3.5172 H   0  0  0  0  0  0  0  0  0  0  0  0
   -3.9073   -1.0967    4.3985 H   0  0  0  0  0  0  0  0  0  0  0  0
   -4.2357    0.7443    3.3179 C   0  0  0  0  0  0  0  0  0  0  0  0
   -4.7816    0.2229    2.6796 H   0  0  0  0  0  0  0  0  0  0  0  0
   -4.8047    1.2416    3.9559 H   0  0  0  0  0  0  0  0  0  0  0  0
   -3.3633    1.6795    2.5876 N   0  0  0  0  0  4  0  0  0  0  0  0
   -2.6772    2.0603    3.2104 H   0  0  0  0  0  0  0  0  0  0  0  0
   -2.8986    1.1983    1.8413 H   0  0  0  0  0  0  0  0  0  0  0  0
   -3.9110    2.4266    2.2060 H   0  0  0  0  0  0  0  0  0  0  0  0
    0.0009    2.8856    0.0208 C   0  0  0  0  0  0  0  0  0  0  0  0
   -0.7829    3.1997   -0.5030 H   0  0  0  0  0  0  0  0  0  0  0  0
    0.8471    3.1976   -0.3979 H   0  0  0  0  0  0  0  0  0  0  0  0
   -0.0631    3.3276    1.0151 H   0  0  0  0  0  0  0  0  0  0  0  0
   -0.0006    1.4055    0.0160 C   0  0  0  0  0  0  0  0  0  0  0  0
   -1.1971    0.7094   -0.0121 C   0  0  0  0  0  0  0  0  0  0  0  0
   -2.0611    1.1969   -0.0424 H   0  0  0  0  0  0  0  0  0  0  0  0
   -1.2021   -0.6867   -0.0000 C   0  0  0  0  0  0  0  0  0  0  0  0
   -2.0827   -1.1787    0.0211 H   0  0  0  0  0  0  0  0  0  0  0  0
    0.0002   -1.4076   -0.0156 C   0  0  0  0  0  0  0  0  0  0  0  0
   -0.0223   -2.4002   -0.0384 H   0  0  0  0  0  0  0  0  0  0  0  0
    1.2021   -0.7204   -0.0000 C   0  0  0  0  0  0  0  0  0  0  0  0
    2.0838   -1.2040    0.0054 H   0  0  0  0  0  0  0  0  0  0  0  0
    1.1974    0.6998    0.0116 C   0  0  0  0  0  0  0  0  0  0  0  0
    2.0673    1.1827    0.0160 H   0  0  0  0  0  0  0  0  0  0  0  0
  1  5  1  0
  5  8  1  0
  1  2  1  0
  1  3  1  0
  1  4  1  0
  5  6  1  0
  5  7  1  0
  8  9  1  0
  8 10  1  0
  8 11  1  0
 12 16  1  0
 16 17  2  0
 17 19  1  0
 19 21  2  0
 21 23  1  0
 23 25  2  0
 25 16  1  0
 12 13  1  0
 12 14  1  0
 12 15  1  0
 17 18  1  0
 19 20  1  0
 21 22  1  0
 23 24  1  0
 25 26  1  0
M  CHG  1   8   1
M  END
>  <PDB_ID>  (3433) 
pdb5v50

>  <RESIDUE_NAME>  (3433) 
LYS   PHE

>  <FRAG_NAME>  (3433) 
ETAM   MBZ

>  <FRAG_ATOM_NUM>  (3433) 
fragi: 11  fragj: 15

>  <atom.prop.CHAIN_ID>  (3433) 
A A A A A A A A A A A Z Z Z Z Z Z Z Z Z Z Z Z Z Z Z

>  <atom.prop.IS_HEAVY_ATOM>  (3433) 
1 0 0 0 1 0 0 1 0 0 0 1 0 0 0 1 1 0 1 0 1 0 1 0 1 0

>  <DIFUSE_FUNC_ATOM>  (3433) 
n/a

>  <FINAL_SINGLE_POINT_ENERGY>  (3433) 
0

>  <NONCOV_INTER_ENERGY_QM>  (3433) 
0

>  <FF_Energy>  (3433) 
-2.08

>  <QM_Energy>  (3433) 
-7.17

>  <source>  (3433) 
ETAM_MBZ

>  <Index>  (3433) 
37869

$$$$
ETAM-pdb5v6b-B-LYS-263:MBZ-pdb5v6b-B-PHE-260
     RDKit          3D

 26 25  0  0  0  0  0  0  0  0999 V2000
   -2.8553    1.4080    5.2303 C   0  0  0  0  0  0  0  0  0  0  0  0
   -3.4713    0.7168    5.5839 H   0  0  0  0  0  0  0  0  0  0  0  0
   -3.3520    2.1074    4.7359 H   0  0  0  0  0  0  0  0  0  0  0  0
   -2.3226    1.8686    6.0624 H   0  0  0  0  0  0  0  0  0  0  0  0
   -1.8762    0.7380    4.2688 C   0  0  0  0  0  0  0  0  0  0  0  0
   -1.2476    1.4306    3.9165 H   0  0  0  0  0  0  0  0  0  0  0  0
   -1.3602    0.0430    4.7682 H   0  0  0  0  0  0  0  0  0  0  0  0
   -2.5954    0.1014    3.1371 N   0  0  0  0  0  4  0  0  0  0  0  0
   -1.9442   -0.4035    2.5695 H   0  0  0  0  0  0  0  0  0  0  0  0
   -3.2864   -0.5288    3.4929 H   0  0  0  0  0  0  0  0  0  0  0  0
   -3.0407    0.8070    2.5852 H   0  0  0  0  0  0  0  0  0  0  0  0
    0.0004    2.9019   -0.0137 C   0  0  0  0  0  0  0  0  0  0  0  0
   -0.8183    3.2026   -0.4842 H   0  0  0  0  0  0  0  0  0  0  0  0
    0.8139    3.2026   -0.4930 H   0  0  0  0  0  0  0  0  0  0  0  0
    0.0058    3.3700    0.9706 H   0  0  0  0  0  0  0  0  0  0  0  0
    0.0008    1.3979    0.0075 C   0  0  0  0  0  0  0  0  0  0  0  0
   -1.1943    0.6882   -0.0018 C   0  0  0  0  0  0  0  0  0  0  0  0
   -2.0615    1.1792   -0.0111 H   0  0  0  0  0  0  0  0  0  0  0  0
   -1.1984   -0.6989   -0.0000 C   0  0  0  0  0  0  0  0  0  0  0  0
   -2.0753   -1.1938    0.0023 H   0  0  0  0  0  0  0  0  0  0  0  0
   -0.0004   -1.3874   -0.0002 C   0  0  0  0  0  0  0  0  0  0  0  0
    0.0010   -2.3888   -0.0014 H   0  0  0  0  0  0  0  0  0  0  0  0
    1.1984   -0.6905    0.0000 C   0  0  0  0  0  0  0  0  0  0  0  0
    2.0799   -1.1926    0.0061 H   0  0  0  0  0  0  0  0  0  0  0  0
    1.1938    0.6907   -0.0055 C   0  0  0  0  0  0  0  0  0  0  0  0
    2.0621    1.1905   -0.0200 H   0  0  0  0  0  0  0  0  0  0  0  0
  1  5  1  0
  5  8  1  0
  1  2  1  0
  1  3  1  0
  1  4  1  0
  5  6  1  0
  5  7  1  0
  8  9  1  0
  8 10  1  0
  8 11  1  0
 12 16  1  0
 16 17  2  0
 17 19  1  0
 19 21  2  0
 21 23  1  0
 23 25  2  0
 25 16  1  0
 12 13  1  0
 12 14  1  0
 12 15  1  0
 17 18  1  0
 19 20  1  0
 21 22  1  0
 23 24  1  0
 25 26  1  0
M  CHG  1   8   1
M  END
>  <PDB_ID>  (3434) 
pdb5v6b

>  <RESIDUE_NAME>  (3434) 
LYS   PHE

>  <FRAG_NAME>  (3434) 
ETAM   MBZ

>  <FRAG_ATOM_NUM>  (3434) 
fragi: 11  fragj: 15

>  <atom.prop.CHAIN_ID>  (3434) 
A A A A A A A A A A A Z Z Z Z Z Z Z Z Z Z Z Z Z Z Z

>  <atom.prop.IS_HEAVY_ATOM>  (3434) 
1 0 0 0 1 0 0 1 0 0 0 1 0 0 0 1 1 0 1 0 1 0 1 0 1 0

>  <DIFUSE_FUNC_ATOM>  (3434) 
n/a

>  <FINAL_SINGLE_POINT_ENERGY>  (3434) 
0

>  <NONCOV_INTER_ENERGY_QM>  (3434) 
0

>  <FF_Energy>  (3434) 
-4.34

>  <QM_Energy>  (3434) 
-10.07

>  <source>  (3434) 
ETAM_MBZ

>  <Index>  (3434) 
37871

$$$$
ETAM-pdb5v5t-D-LYS-166:MBZ-pdb5v5t-D-PHE-163
     RDKit          3D

 26 25  0  0  0  0  0  0  0  0999 V2000
   -4.7789    0.9648    0.8311 C   0  0  0  0  0  0  0  0  0  0  0  0
   -3.7809    0.9616    0.7932 H   0  0  0  0  0  0  0  0  0  0  0  0
   -5.0787    0.9102    1.7820 H   0  0  0  0  0  0  0  0  0  0  0  0
   -5.1352    1.9054    0.4111 H   0  0  0  0  0  0  0  0  0  0  0  0
   -5.3011   -0.2463    0.0835 C   0  0  0  0  0  0  0  0  0  0  0  0
   -6.3107   -0.3211    0.2475 H   0  0  0  0  0  0  0  0  0  0  0  0
   -5.2008   -0.0767   -0.9237 H   0  0  0  0  0  0  0  0  0  0  0  0
   -4.6740   -1.5629    0.4039 N   0  0  0  0  0  4  0  0  0  0  0  0
   -3.8940   -1.4168    1.0097 H   0  0  0  0  0  0  0  0  0  0  0  0
   -5.3471   -2.1473    0.8552 H   0  0  0  0  0  0  0  0  0  0  0  0
   -4.3661   -1.9960   -0.4420 H   0  0  0  0  0  0  0  0  0  0  0  0
   -0.0068    2.8965    0.0044 C   0  0  0  0  0  0  0  0  0  0  0  0
    0.7817    3.2065   -0.5024 H   0  0  0  0  0  0  0  0  0  0  0  0
    0.0215    3.2002    0.9431 H   0  0  0  0  0  0  0  0  0  0  0  0
   -0.8937    3.3275   -0.4601 H   0  0  0  0  0  0  0  0  0  0  0  0
    0.0015    1.3910    0.0025 C   0  0  0  0  0  0  0  0  0  0  0  0
   -1.1839    0.6797   -0.0076 C   0  0  0  0  0  0  0  0  0  0  0  0
   -2.0565    1.1694   -0.0218 H   0  0  0  0  0  0  0  0  0  0  0  0
   -1.1874   -0.7024    0.0000 C   0  0  0  0  0  0  0  0  0  0  0  0
   -2.0715   -1.1931    0.0045 H   0  0  0  0  0  0  0  0  0  0  0  0
   -0.0071   -1.3802    0.0029 C   0  0  0  0  0  0  0  0  0  0  0  0
    0.0051   -2.3840    0.0067 H   0  0  0  0  0  0  0  0  0  0  0  0
    1.1874   -0.6799   -0.0000 C   0  0  0  0  0  0  0  0  0  0  0  0
    2.0716   -1.1881   -0.0021 H   0  0  0  0  0  0  0  0  0  0  0  0
    1.1895    0.6917    0.0022 C   0  0  0  0  0  0  0  0  0  0  0  0
    2.0582    1.1914    0.0030 H   0  0  0  0  0  0  0  0  0  0  0  0
  1  5  1  0
  5  8  1  0
  1  2  1  0
  1  3  1  0
  1  4  1  0
  5  6  1  0
  5  7  1  0
  8  9  1  0
  8 10  1  0
  8 11  1  0
 12 16  1  0
 16 17  2  0
 17 19  1  0
 19 21  2  0
 21 23  1  0
 23 25  2  0
 25 16  1  0
 12 13  1  0
 12 14  1  0
 12 15  1  0
 17 18  1  0
 19 20  1  0
 21 22  1  0
 23 24  1  0
 25 26  1  0
M  CHG  1   8   1
M  END
>  <PDB_ID>  (3435) 
pdb5v5t

>  <RESIDUE_NAME>  (3435) 
LYS   PHE

>  <FRAG_NAME>  (3435) 
ETAM   MBZ

>  <FRAG_ATOM_NUM>  (3435) 
fragi: 11  fragj: 15

>  <atom.prop.CHAIN_ID>  (3435) 
A A A A A A A A A A A Z Z Z Z Z Z Z Z Z Z Z Z Z Z Z

>  <atom.prop.IS_HEAVY_ATOM>  (3435) 
1 0 0 0 1 0 0 1 0 0 0 1 0 0 0 1 1 0 1 0 1 0 1 0 1 0

>  <DIFUSE_FUNC_ATOM>  (3435) 
n/a

>  <FINAL_SINGLE_POINT_ENERGY>  (3435) 
0

>  <NONCOV_INTER_ENERGY_QM>  (3435) 
0

>  <FF_Energy>  (3435) 
2.52

>  <QM_Energy>  (3435) 
-2.81

>  <source>  (3435) 
ETAM_MBZ

>  <Index>  (3435) 
37878

$$$$
ETAM-pdb5v7p-A-LYS-192:MBZ-pdb5v7p-A-PHE-258
     RDKit          3D

 26 25  0  0  0  0  0  0  0  0999 V2000
   -3.0922   -1.6836   -4.9923 C   0  0  0  0  0  0  0  0  0  0  0  0
   -2.9065   -0.9050   -5.5849 H   0  0  0  0  0  0  0  0  0  0  0  0
   -3.8541   -2.2143   -5.3542 H   0  0  0  0  0  0  0  0  0  0  0  0
   -2.2062   -2.3174   -4.9536 H   0  0  0  0  0  0  0  0  0  0  0  0
   -3.4730   -1.1653   -3.6173 C   0  0  0  0  0  0  0  0  0  0  0  0
   -4.4146   -0.8230   -3.6475 H   0  0  0  0  0  0  0  0  0  0  0  0
   -3.4211   -1.9197   -2.9586 H   0  0  0  0  0  0  0  0  0  0  0  0
   -2.5684   -0.0704   -3.1781 N   0  0  0  0  0  4  0  0  0  0  0  0
   -2.7667    0.7560   -3.7048 H   0  0  0  0  0  0  0  0  0  0  0  0
   -2.7138    0.1111   -2.2052 H   0  0  0  0  0  0  0  0  0  0  0  0
   -1.6186   -0.3436   -3.3289 H   0  0  0  0  0  0  0  0  0  0  0  0
    0.0009    2.8984   -0.0031 C   0  0  0  0  0  0  0  0  0  0  0  0
    0.9237    3.2064    0.1620 H   0  0  0  0  0  0  0  0  0  0  0  0
   -0.6170    3.2071    0.7018 H   0  0  0  0  0  0  0  0  0  0  0  0
   -0.3295    3.3316   -0.9472 H   0  0  0  0  0  0  0  0  0  0  0  0
    0.0012    1.3953    0.0006 C   0  0  0  0  0  0  0  0  0  0  0  0
   -1.1903    0.6880   -0.0000 C   0  0  0  0  0  0  0  0  0  0  0  0
   -2.0587    1.1793   -0.0015 H   0  0  0  0  0  0  0  0  0  0  0  0
   -1.1936   -0.6944    0.0000 C   0  0  0  0  0  0  0  0  0  0  0  0
   -2.0732   -1.1890    0.0013 H   0  0  0  0  0  0  0  0  0  0  0  0
   -0.0015   -1.3844    0.0007 C   0  0  0  0  0  0  0  0  0  0  0  0
   -0.0040   -2.3868    0.0013 H   0  0  0  0  0  0  0  0  0  0  0  0
    1.1936   -0.6929    0.0000 C   0  0  0  0  0  0  0  0  0  0  0  0
    2.0770   -1.1935    0.0018 H   0  0  0  0  0  0  0  0  0  0  0  0
    1.1906    0.6884   -0.0013 C   0  0  0  0  0  0  0  0  0  0  0  0
    2.0614    1.1861   -0.0042 H   0  0  0  0  0  0  0  0  0  0  0  0
  1  5  1  0
  5  8  1  0
  1  2  1  0
  1  3  1  0
  1  4  1  0
  5  6  1  0
  5  7  1  0
  8  9  1  0
  8 10  1  0
  8 11  1  0
 12 16  1  0
 16 17  2  0
 17 19  1  0
 19 21  2  0
 21 23  1  0
 23 25  2  0
 25 16  1  0
 12 13  1  0
 12 14  1  0
 12 15  1  0
 17 18  1  0
 19 20  1  0
 21 22  1  0
 23 24  1  0
 25 26  1  0
M  CHG  1   8   1
M  END
>  <PDB_ID>  (3436) 
pdb5v7p

>  <RESIDUE_NAME>  (3436) 
LYS   PHE

>  <FRAG_NAME>  (3436) 
ETAM   MBZ

>  <FRAG_ATOM_NUM>  (3436) 
fragi: 11  fragj: 15

>  <atom.prop.CHAIN_ID>  (3436) 
A A A A A A A A A A A Z Z Z Z Z Z Z Z Z Z Z Z Z Z Z

>  <atom.prop.IS_HEAVY_ATOM>  (3436) 
1 0 0 0 1 0 0 1 0 0 0 1 0 0 0 1 1 0 1 0 1 0 1 0 1 0

>  <DIFUSE_FUNC_ATOM>  (3436) 
n/a

>  <FINAL_SINGLE_POINT_ENERGY>  (3436) 
0

>  <NONCOV_INTER_ENERGY_QM>  (3436) 
0

>  <FF_Energy>  (3436) 
-3.82

>  <QM_Energy>  (3436) 
-9.26

>  <source>  (3436) 
ETAM_MBZ

>  <Index>  (3436) 
37882

$$$$
ETAM-pdb5v7i-A-LYS-181:MBZ-pdb5v7i-C-PHE-317
     RDKit          3D

 26 25  0  0  0  0  0  0  0  0999 V2000
   -0.9141   -2.3989    4.3090 C   0  0  0  0  0  0  0  0  0  0  0  0
   -0.4196   -2.2687    5.1579 H   0  0  0  0  0  0  0  0  0  0  0  0
   -0.3241   -2.7829    3.6107 H   0  0  0  0  0  0  0  0  0  0  0  0
   -1.7466   -3.0804    4.4842 H   0  0  0  0  0  0  0  0  0  0  0  0
   -1.4196   -1.0480    3.8293 C   0  0  0  0  0  0  0  0  0  0  0  0
   -2.0338   -1.1893    3.0488 H   0  0  0  0  0  0  0  0  0  0  0  0
   -1.9313   -0.6092    4.5721 H   0  0  0  0  0  0  0  0  0  0  0  0
   -0.3001   -0.1587    3.4165 N   0  0  0  0  0  4  0  0  0  0  0  0
   -0.1023   -0.3030    2.4473 H   0  0  0  0  0  0  0  0  0  0  0  0
   -0.5613    0.7943    3.5662 H   0  0  0  0  0  0  0  0  0  0  0  0
    0.5117   -0.3731    3.9597 H   0  0  0  0  0  0  0  0  0  0  0  0
    0.0113    2.9032    0.0007 C   0  0  0  0  0  0  0  0  0  0  0  0
    0.8592    3.2037    0.4082 H   0  0  0  0  0  0  0  0  0  0  0  0
   -0.7705    3.2164    0.5175 H   0  0  0  0  0  0  0  0  0  0  0  0
   -0.0524    3.3411   -0.9954 H   0  0  0  0  0  0  0  0  0  0  0  0
    0.0005    1.3994    0.0020 C   0  0  0  0  0  0  0  0  0  0  0  0
   -1.1988    0.6955   -0.0016 C   0  0  0  0  0  0  0  0  0  0  0  0
   -2.0629    1.1878   -0.0071 H   0  0  0  0  0  0  0  0  0  0  0  0
   -1.2024   -0.6917   -0.0000 C   0  0  0  0  0  0  0  0  0  0  0  0
   -2.0786   -1.1879    0.0054 H   0  0  0  0  0  0  0  0  0  0  0  0
   -0.0010   -1.3886   -0.0038 C   0  0  0  0  0  0  0  0  0  0  0  0
   -0.0087   -2.3901   -0.0099 H   0  0  0  0  0  0  0  0  0  0  0  0
    1.2024   -0.6993    0.0000 C   0  0  0  0  0  0  0  0  0  0  0  0
    2.0801   -1.2020    0.0017 H   0  0  0  0  0  0  0  0  0  0  0  0
    1.1992    0.6846    0.0035 C   0  0  0  0  0  0  0  0  0  0  0  0
    2.0668    1.1845    0.0061 H   0  0  0  0  0  0  0  0  0  0  0  0
  1  5  1  0
  5  8  1  0
  1  2  1  0
  1  3  1  0
  1  4  1  0
  5  6  1  0
  5  7  1  0
  8  9  1  0
  8 10  1  0
  8 11  1  0
 12 16  1  0
 16 17  2  0
 17 19  1  0
 19 21  2  0
 21 23  1  0
 23 25  2  0
 25 16  1  0
 12 13  1  0
 12 14  1  0
 12 15  1  0
 17 18  1  0
 19 20  1  0
 21 22  1  0
 23 24  1  0
 25 26  1  0
M  CHG  1   8   1
M  END
>  <PDB_ID>  (3437) 
pdb5v7i

>  <RESIDUE_NAME>  (3437) 
LYS   PHE

>  <FRAG_NAME>  (3437) 
ETAM   MBZ

>  <FRAG_ATOM_NUM>  (3437) 
fragi: 11  fragj: 15

>  <atom.prop.CHAIN_ID>  (3437) 
A A A A A A A A A A A Z Z Z Z Z Z Z Z Z Z Z Z Z Z Z

>  <atom.prop.IS_HEAVY_ATOM>  (3437) 
1 0 0 0 1 0 0 1 0 0 0 1 0 0 0 1 1 0 1 0 1 0 1 0 1 0

>  <DIFUSE_FUNC_ATOM>  (3437) 
n/a

>  <FINAL_SINGLE_POINT_ENERGY>  (3437) 
0

>  <NONCOV_INTER_ENERGY_QM>  (3437) 
0

>  <FF_Energy>  (3437) 
-9.01

>  <QM_Energy>  (3437) 
-16.12

>  <source>  (3437) 
ETAM_MBZ

>  <Index>  (3437) 
37886

$$$$
ETAM-pdb5v96-C-LYS-152:MBZ-pdb5v96-C-PHE-148
     RDKit          3D

 26 25  0  0  0  0  0  0  0  0999 V2000
   -3.2852   -1.6398   -3.2111 C   0  0  0  0  0  0  0  0  0  0  0  0
   -3.6839   -0.9357   -2.6208 H   0  0  0  0  0  0  0  0  0  0  0  0
   -3.9865   -2.3176   -3.4359 H   0  0  0  0  0  0  0  0  0  0  0  0
   -2.9410   -1.1702   -4.1326 H   0  0  0  0  0  0  0  0  0  0  0  0
   -2.1722   -2.3289   -2.4553 C   0  0  0  0  0  0  0  0  0  0  0  0
   -1.7713   -3.0380   -3.0365 H   0  0  0  0  0  0  0  0  0  0  0  0
   -1.4689   -1.6568   -2.2208 H   0  0  0  0  0  0  0  0  0  0  0  0
   -2.6871   -2.9509   -1.2099 N   0  0  0  0  0  4  0  0  0  0  0  0
   -3.0822   -2.2440   -0.6225 H   0  0  0  0  0  0  0  0  0  0  0  0
   -3.3902   -3.6250   -1.4396 H   0  0  0  0  0  0  0  0  0  0  0  0
   -1.9366   -3.4041   -0.7275 H   0  0  0  0  0  0  0  0  0  0  0  0
   -0.0011    2.8948    0.0046 C   0  0  0  0  0  0  0  0  0  0  0  0
    0.8208    3.2025    0.4609 H   0  0  0  0  0  0  0  0  0  0  0  0
   -0.8121    3.2034    0.4810 H   0  0  0  0  0  0  0  0  0  0  0  0
   -0.0132    3.3374   -0.9914 H   0  0  0  0  0  0  0  0  0  0  0  0
   -0.0018    1.3959    0.0041 C   0  0  0  0  0  0  0  0  0  0  0  0
   -1.1941    0.6915    0.0003 C   0  0  0  0  0  0  0  0  0  0  0  0
   -2.0618    1.1823   -0.0036 H   0  0  0  0  0  0  0  0  0  0  0  0
   -1.1985   -0.6954   -0.0000 C   0  0  0  0  0  0  0  0  0  0  0  0
   -2.0749   -1.1910    0.0059 H   0  0  0  0  0  0  0  0  0  0  0  0
    0.0020   -1.3880   -0.0068 C   0  0  0  0  0  0  0  0  0  0  0  0
   -0.0025   -2.3887   -0.0167 H   0  0  0  0  0  0  0  0  0  0  0  0
    1.1985   -0.6949    0.0000 C   0  0  0  0  0  0  0  0  0  0  0  0
    2.0810   -1.1927    0.0049 H   0  0  0  0  0  0  0  0  0  0  0  0
    1.1939    0.6910    0.0025 C   0  0  0  0  0  0  0  0  0  0  0  0
    2.0614    1.1892    0.0022 H   0  0  0  0  0  0  0  0  0  0  0  0
  1  5  1  0
  5  8  1  0
  1  2  1  0
  1  3  1  0
  1  4  1  0
  5  6  1  0
  5  7  1  0
  8  9  1  0
  8 10  1  0
  8 11  1  0
 12 16  1  0
 16 17  2  0
 17 19  1  0
 19 21  2  0
 21 23  1  0
 23 25  2  0
 25 16  1  0
 12 13  1  0
 12 14  1  0
 12 15  1  0
 17 18  1  0
 19 20  1  0
 21 22  1  0
 23 24  1  0
 25 26  1  0
M  CHG  1   8   1
M  END
>  <PDB_ID>  (3438) 
pdb5v96

>  <RESIDUE_NAME>  (3438) 
LYS   PHE

>  <FRAG_NAME>  (3438) 
ETAM   MBZ

>  <FRAG_ATOM_NUM>  (3438) 
fragi: 11  fragj: 15

>  <atom.prop.CHAIN_ID>  (3438) 
A A A A A A A A A A A Z Z Z Z Z Z Z Z Z Z Z Z Z Z Z

>  <atom.prop.IS_HEAVY_ATOM>  (3438) 
1 0 0 0 1 0 0 1 0 0 0 1 0 0 0 1 1 0 1 0 1 0 1 0 1 0

>  <DIFUSE_FUNC_ATOM>  (3438) 
n/a

>  <FINAL_SINGLE_POINT_ENERGY>  (3438) 
0

>  <NONCOV_INTER_ENERGY_QM>  (3438) 
0

>  <FF_Energy>  (3438) 
10.06

>  <QM_Energy>  (3438) 
-1.64

>  <source>  (3438) 
ETAM_MBZ

>  <Index>  (3438) 
37901

$$$$
ETAM-pdb5vak-A-LYS-437:MBZ-pdb5vak-A-PHE-76
     RDKit          3D

 26 25  0  0  0  0  0  0  0  0999 V2000
   -2.0729   -3.5774   -2.9363 C   0  0  0  0  0  0  0  0  0  0  0  0
   -2.6184   -3.7961   -3.7487 H   0  0  0  0  0  0  0  0  0  0  0  0
   -2.0289   -4.3843   -2.3438 H   0  0  0  0  0  0  0  0  0  0  0  0
   -1.0606   -3.3349   -3.2597 H   0  0  0  0  0  0  0  0  0  0  0  0
   -2.7456   -2.4538   -2.1837 C   0  0  0  0  0  0  0  0  0  0  0  0
   -3.7170   -2.6948   -2.0275 H   0  0  0  0  0  0  0  0  0  0  0  0
   -2.3090   -2.3552   -1.2740 H   0  0  0  0  0  0  0  0  0  0  0  0
   -2.6892   -1.1319   -2.8844 N   0  0  0  0  0  4  0  0  0  0  0  0
   -2.9307   -0.4098   -2.2395 H   0  0  0  0  0  0  0  0  0  0  0  0
   -1.7635   -0.9827   -3.2278 H   0  0  0  0  0  0  0  0  0  0  0  0
   -3.3355   -1.1364   -3.6449 H   0  0  0  0  0  0  0  0  0  0  0  0
    0.0045    2.8697    0.0279 C   0  0  0  0  0  0  0  0  0  0  0  0
   -0.9046    3.1793    0.2586 H   0  0  0  0  0  0  0  0  0  0  0  0
    0.2820    3.1933   -0.8640 H   0  0  0  0  0  0  0  0  0  0  0  0
    0.6960    3.2805    0.7637 H   0  0  0  0  0  0  0  0  0  0  0  0
    0.0003    1.3853    0.0053 C   0  0  0  0  0  0  0  0  0  0  0  0
   -1.1888    0.6838   -0.0034 C   0  0  0  0  0  0  0  0  0  0  0  0
   -2.0549    1.1821   -0.0136 H   0  0  0  0  0  0  0  0  0  0  0  0
   -1.1872   -0.6782   -0.0000 C   0  0  0  0  0  0  0  0  0  0  0  0
   -2.0693   -1.1828    0.0126 H   0  0  0  0  0  0  0  0  0  0  0  0
   -0.0012   -1.3709   -0.0115 C   0  0  0  0  0  0  0  0  0  0  0  0
   -0.0135   -2.3770   -0.0283 H   0  0  0  0  0  0  0  0  0  0  0  0
    1.1872   -0.6943    0.0000 C   0  0  0  0  0  0  0  0  0  0  0  0
    2.0704   -1.2014    0.0033 H   0  0  0  0  0  0  0  0  0  0  0  0
    1.1897    0.6742    0.0095 C   0  0  0  0  0  0  0  0  0  0  0  0
    2.0597    1.1759    0.0189 H   0  0  0  0  0  0  0  0  0  0  0  0
  1  5  1  0
  5  8  1  0
  1  2  1  0
  1  3  1  0
  1  4  1  0
  5  6  1  0
  5  7  1  0
  8  9  1  0
  8 10  1  0
  8 11  1  0
 12 16  1  0
 16 17  2  0
 17 19  1  0
 19 21  2  0
 21 23  1  0
 23 25  2  0
 25 16  1  0
 12 13  1  0
 12 14  1  0
 12 15  1  0
 17 18  1  0
 19 20  1  0
 21 22  1  0
 23 24  1  0
 25 26  1  0
M  CHG  1   8   1
M  END
>  <PDB_ID>  (3439) 
pdb5vak

>  <RESIDUE_NAME>  (3439) 
LYS   PHE

>  <FRAG_NAME>  (3439) 
ETAM   MBZ

>  <FRAG_ATOM_NUM>  (3439) 
fragi: 11  fragj: 15

>  <atom.prop.CHAIN_ID>  (3439) 
A A A A A A A A A A A Z Z Z Z Z Z Z Z Z Z Z Z Z Z Z

>  <atom.prop.IS_HEAVY_ATOM>  (3439) 
1 0 0 0 1 0 0 1 0 0 0 1 0 0 0 1 1 0 1 0 1 0 1 0 1 0

>  <DIFUSE_FUNC_ATOM>  (3439) 
n/a

>  <FINAL_SINGLE_POINT_ENERGY>  (3439) 
0

>  <NONCOV_INTER_ENERGY_QM>  (3439) 
0

>  <FF_Energy>  (3439) 
4.61

>  <QM_Energy>  (3439) 
-6.17

>  <source>  (3439) 
ETAM_MBZ

>  <Index>  (3439) 
37903

$$$$
ETAM-pdb5vc2-A-LYS-326:MBZ-pdb5vc2-A-PHE-352
     RDKit          3D

 26 25  0  0  0  0  0  0  0  0999 V2000
    1.2387   -2.0740    3.8038 C   0  0  0  0  0  0  0  0  0  0  0  0
    0.8916   -1.2196    3.4535 H   0  0  0  0  0  0  0  0  0  0  0  0
    2.2194   -2.1350    3.7122 H   0  0  0  0  0  0  0  0  0  0  0  0
    0.9699   -2.1647    4.8562 H   0  0  0  0  0  0  0  0  0  0  0  0
    0.6061   -3.2174    3.0069 C   0  0  0  0  0  0  0  0  0  0  0  0
    0.2479   -3.9030    3.6596 H   0  0  0  0  0  0  0  0  0  0  0  0
   -0.1827   -2.8501    2.4888 H   0  0  0  0  0  0  0  0  0  0  0  0
    1.5389   -3.8902    2.0582 N   0  0  0  0  0  4  0  0  0  0  0  0
    1.5544   -3.3852    1.1964 H   0  0  0  0  0  0  0  0  0  0  0  0
    2.4562   -3.9074    2.4533 H   0  0  0  0  0  0  0  0  0  0  0  0
    1.2264   -4.8254    1.8944 H   0  0  0  0  0  0  0  0  0  0  0  0
    0.0015    2.9090    0.0013 C   0  0  0  0  0  0  0  0  0  0  0  0
   -0.6482    3.2152   -0.6784 H   0  0  0  0  0  0  0  0  0  0  0  0
    0.9175    3.2157   -0.2130 H   0  0  0  0  0  0  0  0  0  0  0  0
   -0.2814    3.3556    0.9545 H   0  0  0  0  0  0  0  0  0  0  0  0
    0.0009    1.4032    0.0016 C   0  0  0  0  0  0  0  0  0  0  0  0
   -1.1934    0.6933   -0.0030 C   0  0  0  0  0  0  0  0  0  0  0  0
   -2.0614    1.1818   -0.0094 H   0  0  0  0  0  0  0  0  0  0  0  0
   -1.1971   -0.6988   -0.0000 C   0  0  0  0  0  0  0  0  0  0  0  0
   -2.0768   -1.1902    0.0022 H   0  0  0  0  0  0  0  0  0  0  0  0
   -0.0019   -1.3930    0.0022 C   0  0  0  0  0  0  0  0  0  0  0  0
   -0.0043   -2.3930    0.0051 H   0  0  0  0  0  0  0  0  0  0  0  0
    1.1971   -0.6981   -0.0000 C   0  0  0  0  0  0  0  0  0  0  0  0
    2.0792   -1.1954    0.0006 H   0  0  0  0  0  0  0  0  0  0  0  0
    1.1944    0.6934   -0.0008 C   0  0  0  0  0  0  0  0  0  0  0  0
    2.0648    1.1877   -0.0040 H   0  0  0  0  0  0  0  0  0  0  0  0
  1  5  1  0
  5  8  1  0
  1  2  1  0
  1  3  1  0
  1  4  1  0
  5  6  1  0
  5  7  1  0
  8  9  1  0
  8 10  1  0
  8 11  1  0
 12 16  1  0
 16 17  2  0
 17 19  1  0
 19 21  2  0
 21 23  1  0
 23 25  2  0
 25 16  1  0
 12 13  1  0
 12 14  1  0
 12 15  1  0
 17 18  1  0
 19 20  1  0
 21 22  1  0
 23 24  1  0
 25 26  1  0
M  CHG  1   8   1
M  END
>  <PDB_ID>  (3440) 
pdb5vc2

>  <RESIDUE_NAME>  (3440) 
LYS   PHE

>  <FRAG_NAME>  (3440) 
ETAM   MBZ

>  <FRAG_ATOM_NUM>  (3440) 
fragi: 11  fragj: 15

>  <atom.prop.CHAIN_ID>  (3440) 
A A A A A A A A A A A Z Z Z Z Z Z Z Z Z Z Z Z Z Z Z

>  <atom.prop.IS_HEAVY_ATOM>  (3440) 
1 0 0 0 1 0 0 1 0 0 0 1 0 0 0 1 1 0 1 0 1 0 1 0 1 0

>  <DIFUSE_FUNC_ATOM>  (3440) 
n/a

>  <FINAL_SINGLE_POINT_ENERGY>  (3440) 
0

>  <NONCOV_INTER_ENERGY_QM>  (3440) 
0

>  <FF_Energy>  (3440) 
-1.14

>  <QM_Energy>  (3440) 
-7.26

>  <source>  (3440) 
ETAM_MBZ

>  <Index>  (3440) 
37916

$$$$
ETAM-pdb5vaw-B-LYS-251:MBZ-pdb5vaw-B-PHE-169
     RDKit          3D

 26 25  0  0  0  0  0  0  0  0999 V2000
   -3.3230   -4.7569    2.8608 C   0  0  0  0  0  0  0  0  0  0  0  0
   -2.6327   -5.2615    2.3558 H   0  0  0  0  0  0  0  0  0  0  0  0
   -4.0372   -4.4340    2.2515 H   0  0  0  0  0  0  0  0  0  0  0  0
   -3.7635   -5.4110    3.6133 H   0  0  0  0  0  0  0  0  0  0  0  0
   -2.6630   -3.5540    3.5127 C   0  0  0  0  0  0  0  0  0  0  0  0
   -3.3587   -3.0293    4.0067 H   0  0  0  0  0  0  0  0  0  0  0  0
   -1.9701   -3.8745    4.1614 H   0  0  0  0  0  0  0  0  0  0  0  0
   -2.0188   -2.6821    2.4981 N   0  0  0  0  0  4  0  0  0  0  0  0
   -2.2692   -2.9952    1.5818 H   0  0  0  0  0  0  0  0  0  0  0  0
   -2.3275   -1.7395    2.6246 H   0  0  0  0  0  0  0  0  0  0  0  0
   -1.0250   -2.7250    2.6042 H   0  0  0  0  0  0  0  0  0  0  0  0
    0.0031    2.8983   -0.0037 C   0  0  0  0  0  0  0  0  0  0  0  0
   -0.8844    3.2058   -0.3137 H   0  0  0  0  0  0  0  0  0  0  0  0
    0.7208    3.2020   -0.6131 H   0  0  0  0  0  0  0  0  0  0  0  0
    0.1869    3.3426    0.9745 H   0  0  0  0  0  0  0  0  0  0  0  0
    0.0004    1.3958   -0.0004 C   0  0  0  0  0  0  0  0  0  0  0  0
   -1.1932    0.6896    0.0008 C   0  0  0  0  0  0  0  0  0  0  0  0
   -2.0608    1.1813    0.0009 H   0  0  0  0  0  0  0  0  0  0  0  0
   -1.1969   -0.6942   -0.0000 C   0  0  0  0  0  0  0  0  0  0  0  0
   -2.0746   -1.1901    0.0001 H   0  0  0  0  0  0  0  0  0  0  0  0
   -0.0005   -1.3863    0.0010 C   0  0  0  0  0  0  0  0  0  0  0  0
   -0.0033   -2.3875    0.0019 H   0  0  0  0  0  0  0  0  0  0  0  0
    1.1969   -0.6931    0.0000 C   0  0  0  0  0  0  0  0  0  0  0  0
    2.0783   -1.1941    0.0017 H   0  0  0  0  0  0  0  0  0  0  0  0
    1.1932    0.6881   -0.0014 C   0  0  0  0  0  0  0  0  0  0  0  0
    2.0622    1.1877   -0.0039 H   0  0  0  0  0  0  0  0  0  0  0  0
  1  5  1  0
  5  8  1  0
  1  2  1  0
  1  3  1  0
  1  4  1  0
  5  6  1  0
  5  7  1  0
  8  9  1  0
  8 10  1  0
  8 11  1  0
 12 16  1  0
 16 17  2  0
 17 19  1  0
 19 21  2  0
 21 23  1  0
 23 25  2  0
 25 16  1  0
 12 13  1  0
 12 14  1  0
 12 15  1  0
 17 18  1  0
 19 20  1  0
 21 22  1  0
 23 24  1  0
 25 26  1  0
M  CHG  1   8   1
M  END
>  <PDB_ID>  (3441) 
pdb5vaw

>  <RESIDUE_NAME>  (3441) 
LYS   PHE

>  <FRAG_NAME>  (3441) 
ETAM   MBZ

>  <FRAG_ATOM_NUM>  (3441) 
fragi: 11  fragj: 15

>  <atom.prop.CHAIN_ID>  (3441) 
A A A A A A A A A A A Z Z Z Z Z Z Z Z Z Z Z Z Z Z Z

>  <atom.prop.IS_HEAVY_ATOM>  (3441) 
1 0 0 0 1 0 0 1 0 0 0 1 0 0 0 1 1 0 1 0 1 0 1 0 1 0

>  <DIFUSE_FUNC_ATOM>  (3441) 
n/a

>  <FINAL_SINGLE_POINT_ENERGY>  (3441) 
0

>  <NONCOV_INTER_ENERGY_QM>  (3441) 
0

>  <FF_Energy>  (3441) 
-1.39

>  <QM_Energy>  (3441) 
-7.67

>  <source>  (3441) 
ETAM_MBZ

>  <Index>  (3441) 
37922

$$$$
ETAM-pdb5ve3-B-LYS-306:MBZ-pdb5ve3-B-PHE-332
     RDKit          3D

 26 25  0  0  0  0  0  0  0  0999 V2000
    2.7905    0.1072    3.2669 C   0  0  0  0  0  0  0  0  0  0  0  0
    3.5114    0.7687    3.4338 H   0  0  0  0  0  0  0  0  0  0  0  0
    2.6475   -0.0182    2.2927 H   0  0  0  0  0  0  0  0  0  0  0  0
    3.0844   -0.8473    3.7034 H   0  0  0  0  0  0  0  0  0  0  0  0
    1.4894    0.6379    3.8859 C   0  0  0  0  0  0  0  0  0  0  0  0
    1.6621    0.8522    4.8571 H   0  0  0  0  0  0  0  0  0  0  0  0
    1.2404    1.4976    3.4189 H   0  0  0  0  0  0  0  0  0  0  0  0
    0.3429   -0.3173    3.7927 N   0  0  0  0  0  4  0  0  0  0  0  0
   -0.3891   -0.0121    4.4002 H   0  0  0  0  0  0  0  0  0  0  0  0
    0.0122   -0.3414    2.8510 H   0  0  0  0  0  0  0  0  0  0  0  0
    0.6511   -1.2270    4.0656 H   0  0  0  0  0  0  0  0  0  0  0  0
    0.0142    2.8897    0.0019 C   0  0  0  0  0  0  0  0  0  0  0  0
   -0.6915    3.2072   -0.6133 H   0  0  0  0  0  0  0  0  0  0  0  0
    0.9092    3.1882   -0.2933 H   0  0  0  0  0  0  0  0  0  0  0  0
   -0.1769    3.3265    0.9821 H   0  0  0  0  0  0  0  0  0  0  0  0
   -0.0028    1.3955    0.0007 C   0  0  0  0  0  0  0  0  0  0  0  0
   -1.1939    0.7063    0.0019 C   0  0  0  0  0  0  0  0  0  0  0  0
   -2.0599    1.1938    0.0028 H   0  0  0  0  0  0  0  0  0  0  0  0
   -1.1975   -0.6844   -0.0000 C   0  0  0  0  0  0  0  0  0  0  0  0
   -2.0732   -1.1798   -0.0020 H   0  0  0  0  0  0  0  0  0  0  0  0
    0.0073   -1.3864    0.0032 C   0  0  0  0  0  0  0  0  0  0  0  0
   -0.0123   -2.3884    0.0069 H   0  0  0  0  0  0  0  0  0  0  0  0
    1.1975   -0.7070    0.0000 C   0  0  0  0  0  0  0  0  0  0  0  0
    2.0803   -1.2023    0.0032 H   0  0  0  0  0  0  0  0  0  0  0  0
    1.1894    0.6760   -0.0058 C   0  0  0  0  0  0  0  0  0  0  0  0
    2.0618    1.1759   -0.0160 H   0  0  0  0  0  0  0  0  0  0  0  0
  1  5  1  0
  5  8  1  0
  1  2  1  0
  1  3  1  0
  1  4  1  0
  5  6  1  0
  5  7  1  0
  8  9  1  0
  8 10  1  0
  8 11  1  0
 12 16  1  0
 16 17  2  0
 17 19  1  0
 19 21  2  0
 21 23  1  0
 23 25  2  0
 25 16  1  0
 12 13  1  0
 12 14  1  0
 12 15  1  0
 17 18  1  0
 19 20  1  0
 21 22  1  0
 23 24  1  0
 25 26  1  0
M  CHG  1   8   1
M  END
>  <PDB_ID>  (3442) 
pdb5ve3

>  <RESIDUE_NAME>  (3442) 
LYS   PHE

>  <FRAG_NAME>  (3442) 
ETAM   MBZ

>  <FRAG_ATOM_NUM>  (3442) 
fragi: 11  fragj: 15

>  <atom.prop.CHAIN_ID>  (3442) 
A A A A A A A A A A A Z Z Z Z Z Z Z Z Z Z Z Z Z Z Z

>  <atom.prop.IS_HEAVY_ATOM>  (3442) 
1 0 0 0 1 0 0 1 0 0 0 1 0 0 0 1 1 0 1 0 1 0 1 0 1 0

>  <DIFUSE_FUNC_ATOM>  (3442) 
n/a

>  <FINAL_SINGLE_POINT_ENERGY>  (3442) 
0

>  <NONCOV_INTER_ENERGY_QM>  (3442) 
0

>  <FF_Energy>  (3442) 
-7.34

>  <QM_Energy>  (3442) 
-12.6

>  <source>  (3442) 
ETAM_MBZ

>  <Index>  (3442) 
37931

$$$$
ETAM-pdb5vdn-B-LYS-61:MBZ-pdb5vdn-B-PHE-354
     RDKit          3D

 26 25  0  0  0  0  0  0  0  0999 V2000
   -1.0568   -0.8800    3.7068 C   0  0  0  0  0  0  0  0  0  0  0  0
   -1.4772    0.0163    3.7378 H   0  0  0  0  0  0  0  0  0  0  0  0
   -0.2237   -0.8655    3.1729 H   0  0  0  0  0  0  0  0  0  0  0  0
   -0.8298   -1.2067    4.7216 H   0  0  0  0  0  0  0  0  0  0  0  0
   -2.0381   -1.8487    3.0392 C   0  0  0  0  0  0  0  0  0  0  0  0
   -2.8660   -1.9220    3.6243 H   0  0  0  0  0  0  0  0  0  0  0  0
   -2.3383   -1.4444    2.1548 H   0  0  0  0  0  0  0  0  0  0  0  0
   -1.5087   -3.2270    2.7817 N   0  0  0  0  0  4  0  0  0  0  0  0
   -1.4886   -3.3911    1.7976 H   0  0  0  0  0  0  0  0  0  0  0  0
   -0.5857   -3.2972    3.1551 H   0  0  0  0  0  0  0  0  0  0  0  0
   -2.1057   -3.8934    3.2240 H   0  0  0  0  0  0  0  0  0  0  0  0
   -0.0193    2.8764   -0.0316 C   0  0  0  0  0  0  0  0  0  0  0  0
    0.8223    3.2152    0.3516 H   0  0  0  0  0  0  0  0  0  0  0  0
   -0.8057    3.1917    0.4718 H   0  0  0  0  0  0  0  0  0  0  0  0
   -0.1000    3.2681   -1.0455 H   0  0  0  0  0  0  0  0  0  0  0  0
    0.0058    1.3905    0.0094 C   0  0  0  0  0  0  0  0  0  0  0  0
   -1.1955    0.6778   -0.0036 C   0  0  0  0  0  0  0  0  0  0  0  0
   -2.0587    1.1740   -0.0167 H   0  0  0  0  0  0  0  0  0  0  0  0
   -1.1958   -0.7015    0.0000 C   0  0  0  0  0  0  0  0  0  0  0  0
   -2.0729   -1.1990    0.0039 H   0  0  0  0  0  0  0  0  0  0  0  0
   -0.0038   -1.3789   -0.0006 C   0  0  0  0  0  0  0  0  0  0  0  0
    0.0011   -2.3867   -0.0021 H   0  0  0  0  0  0  0  0  0  0  0  0
    1.1958   -0.6898    0.0000 C   0  0  0  0  0  0  0  0  0  0  0  0
    2.0767   -1.1871    0.0056 H   0  0  0  0  0  0  0  0  0  0  0  0
    1.1936    0.7020   -0.0053 C   0  0  0  0  0  0  0  0  0  0  0  0
    2.0626    1.1935   -0.0207 H   0  0  0  0  0  0  0  0  0  0  0  0
  1  5  1  0
  5  8  1  0
  1  2  1  0
  1  3  1  0
  1  4  1  0
  5  6  1  0
  5  7  1  0
  8  9  1  0
  8 10  1  0
  8 11  1  0
 12 16  1  0
 16 17  2  0
 17 19  1  0
 19 21  2  0
 21 23  1  0
 23 25  2  0
 25 16  1  0
 12 13  1  0
 12 14  1  0
 12 15  1  0
 17 18  1  0
 19 20  1  0
 21 22  1  0
 23 24  1  0
 25 26  1  0
M  CHG  1   8   1
M  END
>  <PDB_ID>  (3443) 
pdb5vdn

>  <RESIDUE_NAME>  (3443) 
LYS   PHE

>  <FRAG_NAME>  (3443) 
ETAM   MBZ

>  <FRAG_ATOM_NUM>  (3443) 
fragi: 11  fragj: 15

>  <atom.prop.CHAIN_ID>  (3443) 
A A A A A A A A A A A Z Z Z Z Z Z Z Z Z Z Z Z Z Z Z

>  <atom.prop.IS_HEAVY_ATOM>  (3443) 
1 0 0 0 1 0 0 1 0 0 0 1 0 0 0 1 1 0 1 0 1 0 1 0 1 0

>  <DIFUSE_FUNC_ATOM>  (3443) 
n/a

>  <FINAL_SINGLE_POINT_ENERGY>  (3443) 
0

>  <NONCOV_INTER_ENERGY_QM>  (3443) 
0

>  <FF_Energy>  (3443) 
-1.73

>  <QM_Energy>  (3443) 
-7.93

>  <source>  (3443) 
ETAM_MBZ

>  <Index>  (3443) 
37933

$$$$
ETAM-pdb5ve2-F-LYS-3:MBZ-pdb5ve2-A-PHE-245
     RDKit          3D

 26 25  0  0  0  0  0  0  0  0999 V2000
   -1.6482    1.0567    3.9863 C   0  0  0  0  0  0  0  0  0  0  0  0
   -1.8867    1.7564    3.3091 H   0  0  0  0  0  0  0  0  0  0  0  0
   -1.5720    1.4866    4.8888 H   0  0  0  0  0  0  0  0  0  0  0  0
   -2.4567    0.3265    4.0224 H   0  0  0  0  0  0  0  0  0  0  0  0
   -0.3251    0.4490    3.6189 C   0  0  0  0  0  0  0  0  0  0  0  0
   -0.0813   -0.2496    4.2946 H   0  0  0  0  0  0  0  0  0  0  0  0
   -0.3955    0.0196    2.7161 H   0  0  0  0  0  0  0  0  0  0  0  0
    0.7388    1.4812    3.5830 N   0  0  0  0  0  4  0  0  0  0  0  0
    0.3389    2.3799    3.7623 H   0  0  0  0  0  0  0  0  0  0  0  0
    1.4263    1.2771    4.2806 H   0  0  0  0  0  0  0  0  0  0  0  0
    1.1714    1.4836    2.6804 H   0  0  0  0  0  0  0  0  0  0  0  0
   -0.0037    2.8962   -0.0116 C   0  0  0  0  0  0  0  0  0  0  0  0
    0.9249    3.2106    0.1031 H   0  0  0  0  0  0  0  0  0  0  0  0
   -0.5878    3.2133    0.7174 H   0  0  0  0  0  0  0  0  0  0  0  0
   -0.3811    3.3185   -0.9429 H   0  0  0  0  0  0  0  0  0  0  0  0
    0.0003    1.3998    0.0052 C   0  0  0  0  0  0  0  0  0  0  0  0
   -1.2034    0.6853    0.0066 C   0  0  0  0  0  0  0  0  0  0  0  0
   -2.0663    1.1773    0.0116 H   0  0  0  0  0  0  0  0  0  0  0  0
   -1.2002   -0.7003    0.0000 C   0  0  0  0  0  0  0  0  0  0  0  0
   -2.0737   -1.2020   -0.0013 H   0  0  0  0  0  0  0  0  0  0  0  0
    0.0052   -1.3894   -0.0028 C   0  0  0  0  0  0  0  0  0  0  0  0
    0.0041   -2.3897   -0.0074 H   0  0  0  0  0  0  0  0  0  0  0  0
    1.2002   -0.6919   -0.0000 C   0  0  0  0  0  0  0  0  0  0  0  0
    2.0852   -1.1892    0.0104 H   0  0  0  0  0  0  0  0  0  0  0  0
    1.1979    0.6965   -0.0089 C   0  0  0  0  0  0  0  0  0  0  0  0
    2.0639    1.1930   -0.0266 H   0  0  0  0  0  0  0  0  0  0  0  0
  1  5  1  0
  5  8  1  0
  1  2  1  0
  1  3  1  0
  1  4  1  0
  5  6  1  0
  5  7  1  0
  8  9  1  0
  8 10  1  0
  8 11  1  0
 12 16  1  0
 16 17  2  0
 17 19  1  0
 19 21  2  0
 21 23  1  0
 23 25  2  0
 25 16  1  0
 12 13  1  0
 12 14  1  0
 12 15  1  0
 17 18  1  0
 19 20  1  0
 21 22  1  0
 23 24  1  0
 25 26  1  0
M  CHG  1   8   1
M  END
>  <PDB_ID>  (3444) 
pdb5ve2

>  <RESIDUE_NAME>  (3444) 
LYS   PHE

>  <FRAG_NAME>  (3444) 
ETAM   MBZ

>  <FRAG_ATOM_NUM>  (3444) 
fragi: 11  fragj: 15

>  <atom.prop.CHAIN_ID>  (3444) 
A A A A A A A A A A A Z Z Z Z Z Z Z Z Z Z Z Z Z Z Z

>  <atom.prop.IS_HEAVY_ATOM>  (3444) 
1 0 0 0 1 0 0 1 0 0 0 1 0 0 0 1 1 0 1 0 1 0 1 0 1 0

>  <DIFUSE_FUNC_ATOM>  (3444) 
n/a

>  <FINAL_SINGLE_POINT_ENERGY>  (3444) 
0

>  <NONCOV_INTER_ENERGY_QM>  (3444) 
0

>  <FF_Energy>  (3444) 
-7.42

>  <QM_Energy>  (3444) 
-12.89

>  <source>  (3444) 
ETAM_MBZ

>  <Index>  (3444) 
37948

$$$$
ETAM-pdb5ve2-G-LYS-3:MBZ-pdb5ve2-J-PHE-245
     RDKit          3D

 26 25  0  0  0  0  0  0  0  0999 V2000
   -1.6808    1.0231    3.5682 C   0  0  0  0  0  0  0  0  0  0  0  0
   -2.0237    1.4471    2.7195 H   0  0  0  0  0  0  0  0  0  0  0  0
   -1.4979    1.7572    4.2347 H   0  0  0  0  0  0  0  0  0  0  0  0
   -2.4630    0.3794    3.9705 H   0  0  0  0  0  0  0  0  0  0  0  0
   -0.4089    0.3078    3.2741 C   0  0  0  0  0  0  0  0  0  0  0  0
   -0.0534   -0.1121    4.1163 H   0  0  0  0  0  0  0  0  0  0  0  0
   -0.5775   -0.4225    2.6020 H   0  0  0  0  0  0  0  0  0  0  0  0
    0.6220    1.2277    2.7285 N   0  0  0  0  0  4  0  0  0  0  0  0
    1.1935    1.5680    3.4750 H   0  0  0  0  0  0  0  0  0  0  0  0
    1.1922    0.7360    2.0696 H   0  0  0  0  0  0  0  0  0  0  0  0
    0.1746    1.9973    2.2737 H   0  0  0  0  0  0  0  0  0  0  0  0
   -0.0046    2.8995   -0.0316 C   0  0  0  0  0  0  0  0  0  0  0  0
    0.9196    3.2156    0.0954 H   0  0  0  0  0  0  0  0  0  0  0  0
   -0.6045    3.2206    0.6807 H   0  0  0  0  0  0  0  0  0  0  0  0
   -0.3663    3.3052   -0.9765 H   0  0  0  0  0  0  0  0  0  0  0  0
    0.0024    1.3990   -0.0004 C   0  0  0  0  0  0  0  0  0  0  0  0
   -1.2017    0.6874   -0.0027 C   0  0  0  0  0  0  0  0  0  0  0  0
   -2.0642    1.1814   -0.0074 H   0  0  0  0  0  0  0  0  0  0  0  0
   -1.2039   -0.6985   -0.0000 C   0  0  0  0  0  0  0  0  0  0  0  0
   -2.0779   -1.1967    0.0020 H   0  0  0  0  0  0  0  0  0  0  0  0
    0.0003   -1.3900    0.0008 C   0  0  0  0  0  0  0  0  0  0  0  0
    0.0012   -2.3893    0.0016 H   0  0  0  0  0  0  0  0  0  0  0  0
    1.2039   -0.6897    0.0000 C   0  0  0  0  0  0  0  0  0  0  0  0
    2.0838   -1.1929   -0.0006 H   0  0  0  0  0  0  0  0  0  0  0  0
    1.1990    0.6919    0.0023 C   0  0  0  0  0  0  0  0  0  0  0  0
    2.0661    1.1928    0.0053 H   0  0  0  0  0  0  0  0  0  0  0  0
  1  5  1  0
  5  8  1  0
  1  2  1  0
  1  3  1  0
  1  4  1  0
  5  6  1  0
  5  7  1  0
  8  9  1  0
  8 10  1  0
  8 11  1  0
 12 16  1  0
 16 17  2  0
 17 19  1  0
 19 21  2  0
 21 23  1  0
 23 25  2  0
 25 16  1  0
 12 13  1  0
 12 14  1  0
 12 15  1  0
 17 18  1  0
 19 20  1  0
 21 22  1  0
 23 24  1  0
 25 26  1  0
M  CHG  1   8   1
M  END
>  <PDB_ID>  (3445) 
pdb5ve2

>  <RESIDUE_NAME>  (3445) 
LYS   PHE

>  <FRAG_NAME>  (3445) 
ETAM   MBZ

>  <FRAG_ATOM_NUM>  (3445) 
fragi: 11  fragj: 15

>  <atom.prop.CHAIN_ID>  (3445) 
A A A A A A A A A A A Z Z Z Z Z Z Z Z Z Z Z Z Z Z Z

>  <atom.prop.IS_HEAVY_ATOM>  (3445) 
1 0 0 0 1 0 0 1 0 0 0 1 0 0 0 1 1 0 1 0 1 0 1 0 1 0

>  <DIFUSE_FUNC_ATOM>  (3445) 
n/a

>  <FINAL_SINGLE_POINT_ENERGY>  (3445) 
0

>  <NONCOV_INTER_ENERGY_QM>  (3445) 
0

>  <FF_Energy>  (3445) 
-3.24

>  <QM_Energy>  (3445) 
-12.64

>  <source>  (3445) 
ETAM_MBZ

>  <Index>  (3445) 
37949

$$$$
ETAM-pdb5vha-A-LYS-575:MBZ-pdb5vha-A-PHE-729
     RDKit          3D

 26 25  0  0  0  0  0  0  0  0999 V2000
    0.8412   -2.8886    4.1143 C   0  0  0  0  0  0  0  0  0  0  0  0
   -0.0704   -2.8421    4.5241 H   0  0  0  0  0  0  0  0  0  0  0  0
    1.4723   -2.3176    4.6417 H   0  0  0  0  0  0  0  0  0  0  0  0
    1.1882   -3.9210    4.1566 H   0  0  0  0  0  0  0  0  0  0  0  0
    0.7680   -2.3560    2.7029 C   0  0  0  0  0  0  0  0  0  0  0  0
    1.6782   -2.3977    2.2891 H   0  0  0  0  0  0  0  0  0  0  0  0
    0.1362   -2.9209    2.1716 H   0  0  0  0  0  0  0  0  0  0  0  0
    0.2920   -0.9512    2.6966 N   0  0  0  0  0  4  0  0  0  0  0  0
    1.0555   -0.3387    2.9039 H   0  0  0  0  0  0  0  0  0  0  0  0
   -0.0780   -0.7281    1.7946 H   0  0  0  0  0  0  0  0  0  0  0  0
   -0.4232   -0.8377    3.3873 H   0  0  0  0  0  0  0  0  0  0  0  0
    0.0113    2.9001    0.0012 C   0  0  0  0  0  0  0  0  0  0  0  0
    0.4762    3.2004    0.8199 H   0  0  0  0  0  0  0  0  0  0  0  0
   -0.9256    3.2144   -0.0173 H   0  0  0  0  0  0  0  0  0  0  0  0
    0.5254    3.3391   -0.8538 H   0  0  0  0  0  0  0  0  0  0  0  0
   -0.0002    1.3966   -0.0030 C   0  0  0  0  0  0  0  0  0  0  0  0
   -1.1929    0.6907    0.0021 C   0  0  0  0  0  0  0  0  0  0  0  0
   -2.0606    1.1811    0.0063 H   0  0  0  0  0  0  0  0  0  0  0  0
   -1.1954   -0.6940    0.0000 C   0  0  0  0  0  0  0  0  0  0  0  0
   -2.0735   -1.1891    0.0001 H   0  0  0  0  0  0  0  0  0  0  0  0
    0.0006   -1.3864   -0.0002 C   0  0  0  0  0  0  0  0  0  0  0  0
   -0.0039   -2.3878   -0.0012 H   0  0  0  0  0  0  0  0  0  0  0  0
    1.1954   -0.6944   -0.0000 C   0  0  0  0  0  0  0  0  0  0  0  0
    2.0784   -1.1945    0.0010 H   0  0  0  0  0  0  0  0  0  0  0  0
    1.1925    0.6876    0.0011 C   0  0  0  0  0  0  0  0  0  0  0  0
    2.0623    1.1860    0.0041 H   0  0  0  0  0  0  0  0  0  0  0  0
  1  5  1  0
  5  8  1  0
  1  2  1  0
  1  3  1  0
  1  4  1  0
  5  6  1  0
  5  7  1  0
  8  9  1  0
  8 10  1  0
  8 11  1  0
 12 16  1  0
 16 17  2  0
 17 19  1  0
 19 21  2  0
 21 23  1  0
 23 25  2  0
 25 16  1  0
 12 13  1  0
 12 14  1  0
 12 15  1  0
 17 18  1  0
 19 20  1  0
 21 22  1  0
 23 24  1  0
 25 26  1  0
M  CHG  1   8   1
M  END
>  <PDB_ID>  (3446) 
pdb5vha

>  <RESIDUE_NAME>  (3446) 
LYS   PHE

>  <FRAG_NAME>  (3446) 
ETAM   MBZ

>  <FRAG_ATOM_NUM>  (3446) 
fragi: 11  fragj: 15

>  <atom.prop.CHAIN_ID>  (3446) 
A A A A A A A A A A A Z Z Z Z Z Z Z Z Z Z Z Z Z Z Z

>  <atom.prop.IS_HEAVY_ATOM>  (3446) 
1 0 0 0 1 0 0 1 0 0 0 1 0 0 0 1 1 0 1 0 1 0 1 0 1 0

>  <DIFUSE_FUNC_ATOM>  (3446) 
n/a

>  <FINAL_SINGLE_POINT_ENERGY>  (3446) 
0

>  <NONCOV_INTER_ENERGY_QM>  (3446) 
0

>  <FF_Energy>  (3446) 
-0.24

>  <QM_Energy>  (3446) 
-12.41

>  <source>  (3446) 
ETAM_MBZ

>  <Index>  (3446) 
37969

$$$$
ETAM-pdb5viu-A-LYS-44:MBZ-pdb5viu-A-PHE-36
     RDKit          3D

 26 25  0  0  0  0  0  0  0  0999 V2000
   -1.1441    0.9545    4.1734 C   0  0  0  0  0  0  0  0  0  0  0  0
   -0.7450    1.3479    5.0069 H   0  0  0  0  0  0  0  0  0  0  0  0
   -1.6732    0.1385    4.4229 H   0  0  0  0  0  0  0  0  0  0  0  0
   -1.8287    1.6875    3.7467 H   0  0  0  0  0  0  0  0  0  0  0  0
   -0.0345    0.5521    3.2409 C   0  0  0  0  0  0  0  0  0  0  0  0
   -0.4265    0.2030    2.3865 H   0  0  0  0  0  0  0  0  0  0  0  0
    0.5354    1.3518    3.0344 H   0  0  0  0  0  0  0  0  0  0  0  0
    0.8284   -0.5105    3.8428 N   0  0  0  0  0  4  0  0  0  0  0  0
    1.7822   -0.3291    3.6102 H   0  0  0  0  0  0  0  0  0  0  0  0
    0.7154   -0.5017    4.8345 H   0  0  0  0  0  0  0  0  0  0  0  0
    0.5555   -1.3992    3.4791 H   0  0  0  0  0  0  0  0  0  0  0  0
   -0.0076    2.8900   -0.0137 C   0  0  0  0  0  0  0  0  0  0  0  0
    0.9247    3.2060    0.0457 H   0  0  0  0  0  0  0  0  0  0  0  0
   -0.5487    3.1968    0.7514 H   0  0  0  0  0  0  0  0  0  0  0  0
   -0.4439    3.3108   -0.9196 H   0  0  0  0  0  0  0  0  0  0  0  0
    0.0032    1.3930   -0.0102 C   0  0  0  0  0  0  0  0  0  0  0  0
   -1.1945    0.6877    0.0080 C   0  0  0  0  0  0  0  0  0  0  0  0
   -2.0579    1.1846    0.0259 H   0  0  0  0  0  0  0  0  0  0  0  0
   -1.1988   -0.6892   -0.0000 C   0  0  0  0  0  0  0  0  0  0  0  0
   -2.0804   -1.1857   -0.0090 H   0  0  0  0  0  0  0  0  0  0  0  0
   -0.0090   -1.3846    0.0058 C   0  0  0  0  0  0  0  0  0  0  0  0
   -0.0134   -2.3867    0.0143 H   0  0  0  0  0  0  0  0  0  0  0  0
    1.1988   -0.6972   -0.0000 C   0  0  0  0  0  0  0  0  0  0  0  0
    2.0745   -1.2019   -0.0002 H   0  0  0  0  0  0  0  0  0  0  0  0
    1.2003    0.6903   -0.0037 C   0  0  0  0  0  0  0  0  0  0  0  0
    2.0657    1.1860   -0.0025 H   0  0  0  0  0  0  0  0  0  0  0  0
  1  5  1  0
  5  8  1  0
  1  2  1  0
  1  3  1  0
  1  4  1  0
  5  6  1  0
  5  7  1  0
  8  9  1  0
  8 10  1  0
  8 11  1  0
 12 16  1  0
 16 17  2  0
 17 19  1  0
 19 21  2  0
 21 23  1  0
 23 25  2  0
 25 16  1  0
 12 13  1  0
 12 14  1  0
 12 15  1  0
 17 18  1  0
 19 20  1  0
 21 22  1  0
 23 24  1  0
 25 26  1  0
M  CHG  1   8   1
M  END
>  <PDB_ID>  (3447) 
pdb5viu

>  <RESIDUE_NAME>  (3447) 
LYS   PHE

>  <FRAG_NAME>  (3447) 
ETAM   MBZ

>  <FRAG_ATOM_NUM>  (3447) 
fragi: 11  fragj: 15

>  <atom.prop.CHAIN_ID>  (3447) 
A A A A A A A A A A A Z Z Z Z Z Z Z Z Z Z Z Z Z Z Z

>  <atom.prop.IS_HEAVY_ATOM>  (3447) 
1 0 0 0 1 0 0 1 0 0 0 1 0 0 0 1 1 0 1 0 1 0 1 0 1 0

>  <DIFUSE_FUNC_ATOM>  (3447) 
n/a

>  <FINAL_SINGLE_POINT_ENERGY>  (3447) 
0

>  <NONCOV_INTER_ENERGY_QM>  (3447) 
0

>  <FF_Energy>  (3447) 
-5.46

>  <QM_Energy>  (3447) 
-11.5

>  <source>  (3447) 
ETAM_MBZ

>  <Index>  (3447) 
37977

$$$$
ETAM-pdb5v7i-C-LYS-461:MBZ-pdb5v7i-C-PHE-471
     RDKit          3D

 26 25  0  0  0  0  0  0  0  0999 V2000
   -1.7129   -4.5715    3.7137 C   0  0  0  0  0  0  0  0  0  0  0  0
   -2.2892   -5.1263    4.3177 H   0  0  0  0  0  0  0  0  0  0  0  0
   -2.1677   -3.6939    3.5428 H   0  0  0  0  0  0  0  0  0  0  0  0
   -0.7664   -4.3794    4.2191 H   0  0  0  0  0  0  0  0  0  0  0  0
   -1.5586   -5.3023    2.3871 C   0  0  0  0  0  0  0  0  0  0  0  0
   -0.9309   -6.0796    2.5160 H   0  0  0  0  0  0  0  0  0  0  0  0
   -2.4571   -5.6643    2.1099 H   0  0  0  0  0  0  0  0  0  0  0  0
   -1.0322   -4.4257    1.3055 N   0  0  0  0  0  4  0  0  0  0  0  0
   -0.0591   -4.2586    1.4587 H   0  0  0  0  0  0  0  0  0  0  0  0
   -1.1595   -4.8760    0.4222 H   0  0  0  0  0  0  0  0  0  0  0  0
   -1.5262   -3.5573    1.3127 H   0  0  0  0  0  0  0  0  0  0  0  0
    0.0143    2.9045    0.0086 C   0  0  0  0  0  0  0  0  0  0  0  0
    0.8077    3.2022    0.5186 H   0  0  0  0  0  0  0  0  0  0  0  0
   -0.8231    3.2168    0.4322 H   0  0  0  0  0  0  0  0  0  0  0  0
    0.0701    3.3573   -0.9813 H   0  0  0  0  0  0  0  0  0  0  0  0
    0.0013    1.4007   -0.0021 C   0  0  0  0  0  0  0  0  0  0  0  0
   -1.1993    0.6922    0.0020 C   0  0  0  0  0  0  0  0  0  0  0  0
   -2.0632    1.1842    0.0048 H   0  0  0  0  0  0  0  0  0  0  0  0
   -1.2022   -0.6960   -0.0000 C   0  0  0  0  0  0  0  0  0  0  0  0
   -2.0779   -1.1920    0.0013 H   0  0  0  0  0  0  0  0  0  0  0  0
    0.0006   -1.3904   -0.0017 C   0  0  0  0  0  0  0  0  0  0  0  0
   -0.0035   -2.3909   -0.0046 H   0  0  0  0  0  0  0  0  0  0  0  0
    1.2022   -0.6964    0.0000 C   0  0  0  0  0  0  0  0  0  0  0  0
    2.0821   -1.1964    0.0014 H   0  0  0  0  0  0  0  0  0  0  0  0
    1.1974    0.6900    0.0018 C   0  0  0  0  0  0  0  0  0  0  0  0
    2.0661    1.1888    0.0057 H   0  0  0  0  0  0  0  0  0  0  0  0
  1  5  1  0
  5  8  1  0
  1  2  1  0
  1  3  1  0
  1  4  1  0
  5  6  1  0
  5  7  1  0
  8  9  1  0
  8 10  1  0
  8 11  1  0
 12 16  1  0
 16 17  2  0
 17 19  1  0
 19 21  2  0
 21 23  1  0
 23 25  2  0
 25 16  1  0
 12 13  1  0
 12 14  1  0
 12 15  1  0
 17 18  1  0
 19 20  1  0
 21 22  1  0
 23 24  1  0
 25 26  1  0
M  CHG  1   8   1
M  END
>  <PDB_ID>  (3448) 
pdb5v7i

>  <RESIDUE_NAME>  (3448) 
LYS   PHE

>  <FRAG_NAME>  (3448) 
ETAM   MBZ

>  <FRAG_ATOM_NUM>  (3448) 
fragi: 11  fragj: 15

>  <atom.prop.CHAIN_ID>  (3448) 
A A A A A A A A A A A Z Z Z Z Z Z Z Z Z Z Z Z Z Z Z

>  <atom.prop.IS_HEAVY_ATOM>  (3448) 
1 0 0 0 1 0 0 1 0 0 0 1 0 0 0 1 1 0 1 0 1 0 1 0 1 0

>  <DIFUSE_FUNC_ATOM>  (3448) 
n/a

>  <FINAL_SINGLE_POINT_ENERGY>  (3448) 
0

>  <NONCOV_INTER_ENERGY_QM>  (3448) 
0

>  <FF_Energy>  (3448) 
1.2

>  <QM_Energy>  (3448) 
-4.39

>  <source>  (3448) 
ETAM_MBZ

>  <Index>  (3448) 
37980

$$$$
ETAM-pdb5vjv-A-LYS-288:MBZ-pdb5vjv-A-PHE-285
     RDKit          3D

 26 25  0  0  0  0  0  0  0  0999 V2000
    2.6492    2.6896    2.9531 C   0  0  0  0  0  0  0  0  0  0  0  0
    2.8386    2.4725    2.0045 H   0  0  0  0  0  0  0  0  0  0  0  0
    3.4841    2.7022    3.4875 H   0  0  0  0  0  0  0  0  0  0  0  0
    2.1747    3.6694    3.0072 H   0  0  0  0  0  0  0  0  0  0  0  0
    1.7288    1.6180    3.5200 C   0  0  0  0  0  0  0  0  0  0  0  0
    1.5526    1.8209    4.4876 H   0  0  0  0  0  0  0  0  0  0  0  0
    0.8567    1.6434    3.0223 H   0  0  0  0  0  0  0  0  0  0  0  0
    2.3191    0.2587    3.4043 N   0  0  0  0  0  4  0  0  0  0  0  0
    2.1990   -0.0773    2.4709 H   0  0  0  0  0  0  0  0  0  0  0  0
    3.2944    0.3004    3.6216 H   0  0  0  0  0  0  0  0  0  0  0  0
    1.8604   -0.3587    4.0427 H   0  0  0  0  0  0  0  0  0  0  0  0
    0.0014    2.9152    0.0006 C   0  0  0  0  0  0  0  0  0  0  0  0
    0.8636    3.2204    0.3722 H   0  0  0  0  0  0  0  0  0  0  0  0
   -0.7589    3.2216    0.5522 H   0  0  0  0  0  0  0  0  0  0  0  0
   -0.1077    3.3596   -0.9887 H   0  0  0  0  0  0  0  0  0  0  0  0
    0.0000    1.4078   -0.0013 C   0  0  0  0  0  0  0  0  0  0  0  0
   -1.2009    0.6937    0.0038 C   0  0  0  0  0  0  0  0  0  0  0  0
   -2.0662    1.1837    0.0088 H   0  0  0  0  0  0  0  0  0  0  0  0
   -1.2042   -0.6995    0.0000 C   0  0  0  0  0  0  0  0  0  0  0  0
   -2.0804   -1.1935   -0.0011 H   0  0  0  0  0  0  0  0  0  0  0  0
   -0.0010   -1.3968   -0.0011 C   0  0  0  0  0  0  0  0  0  0  0  0
   -0.0041   -2.3951   -0.0034 H   0  0  0  0  0  0  0  0  0  0  0  0
    1.2042   -0.7000   -0.0000 C   0  0  0  0  0  0  0  0  0  0  0  0
    2.0835   -1.1982    0.0031 H   0  0  0  0  0  0  0  0  0  0  0  0
    1.2019    0.6949   -0.0014 C   0  0  0  0  0  0  0  0  0  0  0  0
    2.0678    1.1907   -0.0038 H   0  0  0  0  0  0  0  0  0  0  0  0
  1  5  1  0
  5  8  1  0
  1  2  1  0
  1  3  1  0
  1  4  1  0
  5  6  1  0
  5  7  1  0
  8  9  1  0
  8 10  1  0
  8 11  1  0
 12 16  1  0
 16 17  2  0
 17 19  1  0
 19 21  2  0
 21 23  1  0
 23 25  2  0
 25 16  1  0
 12 13  1  0
 12 14  1  0
 12 15  1  0
 17 18  1  0
 19 20  1  0
 21 22  1  0
 23 24  1  0
 25 26  1  0
M  CHG  1   8   1
M  END
>  <PDB_ID>  (3449) 
pdb5vjv

>  <RESIDUE_NAME>  (3449) 
LYS   PHE

>  <FRAG_NAME>  (3449) 
ETAM   MBZ

>  <FRAG_ATOM_NUM>  (3449) 
fragi: 11  fragj: 15

>  <atom.prop.CHAIN_ID>  (3449) 
A A A A A A A A A A A Z Z Z Z Z Z Z Z Z Z Z Z Z Z Z

>  <atom.prop.IS_HEAVY_ATOM>  (3449) 
1 0 0 0 1 0 0 1 0 0 0 1 0 0 0 1 1 0 1 0 1 0 1 0 1 0

>  <DIFUSE_FUNC_ATOM>  (3449) 
n/a

>  <FINAL_SINGLE_POINT_ENERGY>  (3449) 
0

>  <NONCOV_INTER_ENERGY_QM>  (3449) 
0

>  <FF_Energy>  (3449) 
-5.61

>  <QM_Energy>  (3449) 
-11.49

>  <source>  (3449) 
ETAM_MBZ

>  <Index>  (3449) 
37984

$$$$
ETAM-pdb5vki-B-LYS-154:MBZ-pdb5vki-B-PHE-143
     RDKit          3D

 26 25  0  0  0  0  0  0  0  0999 V2000
    0.6884    2.0778   -3.7353 C   0  0  0  0  0  0  0  0  0  0  0  0
    1.1838    2.1157   -2.8697 H   0  0  0  0  0  0  0  0  0  0  0  0
   -0.2937    2.0310   -3.5615 H   0  0  0  0  0  0  0  0  0  0  0  0
    0.9007    2.9869   -4.2978 H   0  0  0  0  0  0  0  0  0  0  0  0
    1.1095    0.8218   -4.4808 C   0  0  0  0  0  0  0  0  0  0  0  0
    0.6511    0.8033   -5.3749 H   0  0  0  0  0  0  0  0  0  0  0  0
    2.1032    0.8485   -4.6315 H   0  0  0  0  0  0  0  0  0  0  0  0
    0.7660   -0.4269   -3.7339 N   0  0  0  0  0  4  0  0  0  0  0  0
    0.5587   -0.1952   -2.7848 H   0  0  0  0  0  0  0  0  0  0  0  0
   -0.0302   -0.8546   -4.1587 H   0  0  0  0  0  0  0  0  0  0  0  0
    1.5430   -1.0531   -3.7665 H   0  0  0  0  0  0  0  0  0  0  0  0
   -0.0156    2.8808   -0.0426 C   0  0  0  0  0  0  0  0  0  0  0  0
   -0.8076    3.1739   -0.5646 H   0  0  0  0  0  0  0  0  0  0  0  0
    0.8230    3.1898   -0.4753 H   0  0  0  0  0  0  0  0  0  0  0  0
   -0.0739    3.3485    0.9402 H   0  0  0  0  0  0  0  0  0  0  0  0
   -0.0029    1.3985   -0.0058 C   0  0  0  0  0  0  0  0  0  0  0  0
   -1.1945    0.6974   -0.0229 C   0  0  0  0  0  0  0  0  0  0  0  0
   -2.0620    1.1861   -0.0537 H   0  0  0  0  0  0  0  0  0  0  0  0
   -1.2003   -0.6931   -0.0000 C   0  0  0  0  0  0  0  0  0  0  0  0
   -2.0769   -1.1866   -0.0110 H   0  0  0  0  0  0  0  0  0  0  0  0
    0.0017   -1.3930    0.0398 C   0  0  0  0  0  0  0  0  0  0  0  0
   -0.0081   -2.3897    0.0958 H   0  0  0  0  0  0  0  0  0  0  0  0
    1.2003   -0.7026    0.0000 C   0  0  0  0  0  0  0  0  0  0  0  0
    2.0814   -1.1977   -0.0195 H   0  0  0  0  0  0  0  0  0  0  0  0
    1.1957    0.6927   -0.0111 C   0  0  0  0  0  0  0  0  0  0  0  0
    2.0627    1.1873   -0.0233 H   0  0  0  0  0  0  0  0  0  0  0  0
  1  5  1  0
  5  8  1  0
  1  2  1  0
  1  3  1  0
  1  4  1  0
  5  6  1  0
  5  7  1  0
  8  9  1  0
  8 10  1  0
  8 11  1  0
 12 16  1  0
 16 17  2  0
 17 19  1  0
 19 21  2  0
 21 23  1  0
 23 25  2  0
 25 16  1  0
 12 13  1  0
 12 14  1  0
 12 15  1  0
 17 18  1  0
 19 20  1  0
 21 22  1  0
 23 24  1  0
 25 26  1  0
M  CHG  1   8   1
M  END
>  <PDB_ID>  (3450) 
pdb5vki

>  <RESIDUE_NAME>  (3450) 
LYS   PHE

>  <FRAG_NAME>  (3450) 
ETAM   MBZ

>  <FRAG_ATOM_NUM>  (3450) 
fragi: 11  fragj: 15

>  <atom.prop.CHAIN_ID>  (3450) 
A A A A A A A A A A A Z Z Z Z Z Z Z Z Z Z Z Z Z Z Z

>  <atom.prop.IS_HEAVY_ATOM>  (3450) 
1 0 0 0 1 0 0 1 0 0 0 1 0 0 0 1 1 0 1 0 1 0 1 0 1 0

>  <DIFUSE_FUNC_ATOM>  (3450) 
n/a

>  <FINAL_SINGLE_POINT_ENERGY>  (3450) 
0

>  <NONCOV_INTER_ENERGY_QM>  (3450) 
0

>  <FF_Energy>  (3450) 
-7.46

>  <QM_Energy>  (3450) 
-12.82

>  <source>  (3450) 
ETAM_MBZ

>  <Index>  (3450) 
37992

$$$$
ETAM-pdb5voh-A-LYS-132:MBZ-pdb5voh-A-PHE-242
     RDKit          3D

 26 25  0  0  0  0  0  0  0  0999 V2000
   -3.0489   -3.1701    0.6571 C   0  0  0  0  0  0  0  0  0  0  0  0
   -2.8441   -2.4328    0.0268 H   0  0  0  0  0  0  0  0  0  0  0  0
   -3.7719   -3.7480    0.3028 H   0  0  0  0  0  0  0  0  0  0  0  0
   -2.1518   -3.7718    0.8020 H   0  0  0  0  0  0  0  0  0  0  0  0
   -3.5116   -2.5676    1.9762 C   0  0  0  0  0  0  0  0  0  0  0  0
   -4.3053   -1.9796    1.8035 H   0  0  0  0  0  0  0  0  0  0  0  0
   -3.7847   -3.3093    2.5942 H   0  0  0  0  0  0  0  0  0  0  0  0
   -2.4382   -1.7620    2.6241 N   0  0  0  0  0  4  0  0  0  0  0  0
   -1.5800   -2.2738    2.5988 H   0  0  0  0  0  0  0  0  0  0  0  0
   -2.3293   -0.8992    2.1318 H   0  0  0  0  0  0  0  0  0  0  0  0
   -2.6912   -1.5770    3.5732 H   0  0  0  0  0  0  0  0  0  0  0  0
   -0.0021    2.8937   -0.0071 C   0  0  0  0  0  0  0  0  0  0  0  0
    0.8124    3.2055    0.4568 H   0  0  0  0  0  0  0  0  0  0  0  0
   -0.8208    3.2036    0.4515 H   0  0  0  0  0  0  0  0  0  0  0  0
    0.0008    3.3248   -1.0082 H   0  0  0  0  0  0  0  0  0  0  0  0
    0.0001    1.3941    0.0006 C   0  0  0  0  0  0  0  0  0  0  0  0
   -1.1901    0.6871   -0.0012 C   0  0  0  0  0  0  0  0  0  0  0  0
   -2.0589    1.1792   -0.0052 H   0  0  0  0  0  0  0  0  0  0  0  0
   -1.1930   -0.6930   -0.0000 C   0  0  0  0  0  0  0  0  0  0  0  0
   -2.0724   -1.1894    0.0016 H   0  0  0  0  0  0  0  0  0  0  0  0
    0.0002   -1.3852    0.0017 C   0  0  0  0  0  0  0  0  0  0  0  0
   -0.0033   -2.3867    0.0038 H   0  0  0  0  0  0  0  0  0  0  0  0
    1.1930   -0.6920    0.0000 C   0  0  0  0  0  0  0  0  0  0  0  0
    2.0771   -1.1923    0.0008 H   0  0  0  0  0  0  0  0  0  0  0  0
    1.1897    0.6889   -0.0010 C   0  0  0  0  0  0  0  0  0  0  0  0
    2.0601    1.1863   -0.0036 H   0  0  0  0  0  0  0  0  0  0  0  0
  1  5  1  0
  5  8  1  0
  1  2  1  0
  1  3  1  0
  1  4  1  0
  5  6  1  0
  5  7  1  0
  8  9  1  0
  8 10  1  0
  8 11  1  0
 12 16  1  0
 16 17  2  0
 17 19  1  0
 19 21  2  0
 21 23  1  0
 23 25  2  0
 25 16  1  0
 12 13  1  0
 12 14  1  0
 12 15  1  0
 17 18  1  0
 19 20  1  0
 21 22  1  0
 23 24  1  0
 25 26  1  0
M  CHG  1   8   1
M  END
>  <PDB_ID>  (3451) 
pdb5voh

>  <RESIDUE_NAME>  (3451) 
LYS   PHE

>  <FRAG_NAME>  (3451) 
ETAM   MBZ

>  <FRAG_ATOM_NUM>  (3451) 
fragi: 11  fragj: 15

>  <atom.prop.CHAIN_ID>  (3451) 
A A A A A A A A A A A Z Z Z Z Z Z Z Z Z Z Z Z Z Z Z

>  <atom.prop.IS_HEAVY_ATOM>  (3451) 
1 0 0 0 1 0 0 1 0 0 0 1 0 0 0 1 1 0 1 0 1 0 1 0 1 0

>  <DIFUSE_FUNC_ATOM>  (3451) 
n/a

>  <FINAL_SINGLE_POINT_ENERGY>  (3451) 
0

>  <NONCOV_INTER_ENERGY_QM>  (3451) 
0

>  <FF_Energy>  (3451) 
43.36

>  <QM_Energy>  (3451) 
-2.91

>  <source>  (3451) 
ETAM_MBZ

>  <Index>  (3451) 
38031

$$$$
ETAM-pdb5vmt-G-LYS-116:MBZ-pdb5vmt-G-PHE-330
     RDKit          3D

 26 25  0  0  0  0  0  0  0  0999 V2000
    0.9939   -1.7117    3.0289 C   0  0  0  0  0  0  0  0  0  0  0  0
    0.9866   -1.2722    2.1294 H   0  0  0  0  0  0  0  0  0  0  0  0
    0.0678   -2.0192    3.2546 H   0  0  0  0  0  0  0  0  0  0  0  0
    1.6521   -2.5796    2.9890 H   0  0  0  0  0  0  0  0  0  0  0  0
    1.4304   -0.6964    4.0595 C   0  0  0  0  0  0  0  0  0  0  0  0
    1.4356   -1.1257    4.9625 H   0  0  0  0  0  0  0  0  0  0  0  0
    2.3533   -0.3791    3.8380 H   0  0  0  0  0  0  0  0  0  0  0  0
    0.5059    0.4656    4.0766 N   0  0  0  0  0  4  0  0  0  0  0  0
    1.0063    1.2928    3.8180 H   0  0  0  0  0  0  0  0  0  0  0  0
   -0.2386    0.3091    3.4285 H   0  0  0  0  0  0  0  0  0  0  0  0
    0.1301    0.5781    4.9965 H   0  0  0  0  0  0  0  0  0  0  0  0
    0.0103    2.8990   -0.0060 C   0  0  0  0  0  0  0  0  0  0  0  0
   -0.1814    3.2110   -0.9264 H   0  0  0  0  0  0  0  0  0  0  0  0
    0.9055    3.1990    0.2924 H   0  0  0  0  0  0  0  0  0  0  0  0
   -0.7286    3.3479    0.6577 H   0  0  0  0  0  0  0  0  0  0  0  0
   -0.0002    1.3990   -0.0106 C   0  0  0  0  0  0  0  0  0  0  0  0
   -1.1950    0.6896    0.0054 C   0  0  0  0  0  0  0  0  0  0  0  0
   -2.0620    1.1785    0.0201 H   0  0  0  0  0  0  0  0  0  0  0  0
   -1.1966   -0.7002   -0.0000 C   0  0  0  0  0  0  0  0  0  0  0  0
   -2.0726   -1.1949   -0.0035 H   0  0  0  0  0  0  0  0  0  0  0  0
    0.0033   -1.3907    0.0012 C   0  0  0  0  0  0  0  0  0  0  0  0
    0.0031   -2.3903    0.0023 H   0  0  0  0  0  0  0  0  0  0  0  0
    1.1966   -0.6914    0.0000 C   0  0  0  0  0  0  0  0  0  0  0  0
    2.0820   -1.1889   -0.0019 H   0  0  0  0  0  0  0  0  0  0  0  0
    1.1919    0.6936    0.0039 C   0  0  0  0  0  0  0  0  0  0  0  0
    2.0619    1.1913    0.0164 H   0  0  0  0  0  0  0  0  0  0  0  0
  1  5  1  0
  5  8  1  0
  1  2  1  0
  1  3  1  0
  1  4  1  0
  5  6  1  0
  5  7  1  0
  8  9  1  0
  8 10  1  0
  8 11  1  0
 12 16  1  0
 16 17  2  0
 17 19  1  0
 19 21  2  0
 21 23  1  0
 23 25  2  0
 25 16  1  0
 12 13  1  0
 12 14  1  0
 12 15  1  0
 17 18  1  0
 19 20  1  0
 21 22  1  0
 23 24  1  0
 25 26  1  0
M  CHG  1   8   1
M  END
>  <PDB_ID>  (3452) 
pdb5vmt

>  <RESIDUE_NAME>  (3452) 
LYS   PHE

>  <FRAG_NAME>  (3452) 
ETAM   MBZ

>  <FRAG_ATOM_NUM>  (3452) 
fragi: 11  fragj: 15

>  <atom.prop.CHAIN_ID>  (3452) 
A A A A A A A A A A A Z Z Z Z Z Z Z Z Z Z Z Z Z Z Z

>  <atom.prop.IS_HEAVY_ATOM>  (3452) 
1 0 0 0 1 0 0 1 0 0 0 1 0 0 0 1 1 0 1 0 1 0 1 0 1 0

>  <DIFUSE_FUNC_ATOM>  (3452) 
n/a

>  <FINAL_SINGLE_POINT_ENERGY>  (3452) 
0

>  <NONCOV_INTER_ENERGY_QM>  (3452) 
0

>  <FF_Energy>  (3452) 
1.29

>  <QM_Energy>  (3452) 
-6.61

>  <source>  (3452) 
ETAM_MBZ

>  <Index>  (3452) 
38033

$$$$
ETAM-pdb5uun-A-LYS-267:MBZ-pdb5uun-A-PHE-293
     RDKit          3D

 26 25  0  0  0  0  0  0  0  0999 V2000
    1.2884   -1.3885   -3.6493 C   0  0  0  0  0  0  0  0  0  0  0  0
    1.1504   -1.9117   -4.4536 H   0  0  0  0  0  0  0  0  0  0  0  0
    1.4595   -1.9723   -2.8922 H   0  0  0  0  0  0  0  0  0  0  0  0
    2.1391   -0.7222   -3.7921 H   0  0  0  0  0  0  0  0  0  0  0  0
    0.0206   -0.5993   -3.3673 C   0  0  0  0  0  0  0  0  0  0  0  0
    0.0848   -0.1939   -2.4891 H   0  0  0  0  0  0  0  0  0  0  0  0
   -0.0877    0.0842   -4.0457 H   0  0  0  0  0  0  0  0  0  0  0  0
   -1.1794   -1.4699   -3.3894 N   0  0  0  0  0  4  0  0  0  0  0  0
   -1.1055   -2.1062   -2.7712 H   0  0  0  0  0  0  0  0  0  0  0  0
   -1.9080   -0.9884   -3.2228 H   0  0  0  0  0  0  0  0  0  0  0  0
   -1.2625   -1.8528   -4.1896 H   0  0  0  0  0  0  0  0  0  0  0  0
    0.0051    2.8995   -0.0047 C   0  0  0  0  0  0  0  0  0  0  0  0
    0.8842    3.1937    0.2808 H   0  0  0  0  0  0  0  0  0  0  0  0
   -0.6626    3.1941    0.6330 H   0  0  0  0  0  0  0  0  0  0  0  0
   -0.2152    3.3470   -0.9739 H   0  0  0  0  0  0  0  0  0  0  0  0
    0.0038    1.3966   -0.0100 C   0  0  0  0  0  0  0  0  0  0  0  0
   -1.1906    0.6943    0.0012 C   0  0  0  0  0  0  0  0  0  0  0  0
   -1.9967    1.1585   -0.0019 H   0  0  0  0  0  0  0  0  0  0  0  0
   -1.1972   -0.6902    0.0000 C   0  0  0  0  0  0  0  0  0  0  0  0
   -2.0053   -1.1503    0.0047 H   0  0  0  0  0  0  0  0  0  0  0  0
   -0.0081   -1.3881    0.0089 C   0  0  0  0  0  0  0  0  0  0  0  0
   -0.0124   -2.3175    0.0076 H   0  0  0  0  0  0  0  0  0  0  0  0
    1.1972   -0.6983   -0.0000 C   0  0  0  0  0  0  0  0  0  0  0  0
    2.0025   -1.1643    0.0033 H   0  0  0  0  0  0  0  0  0  0  0  0
    1.1949    0.6858   -0.0001 C   0  0  0  0  0  0  0  0  0  0  0  0
    2.0028    1.1460   -0.0039 H   0  0  0  0  0  0  0  0  0  0  0  0
  1  5  1  0
  5  8  1  0
  1  2  1  0
  1  3  1  0
  1  4  1  0
  5  6  1  0
  5  7  1  0
  8  9  1  0
  8 10  1  0
  8 11  1  0
 12 16  1  0
 16 17  2  0
 17 19  1  0
 19 21  2  0
 21 23  1  0
 23 25  2  0
 25 16  1  0
 12 13  1  0
 12 14  1  0
 12 15  1  0
 17 18  1  0
 19 20  1  0
 21 22  1  0
 23 24  1  0
 25 26  1  0
M  CHG  1   8   1
M  END
>  <PDB_ID>  (3453) 
pdb5uun

>  <RESIDUE_NAME>  (3453) 
LYS   PHE

>  <FRAG_NAME>  (3453) 
ETAM   MBZ

>  <FRAG_ATOM_NUM>  (3453) 
fragi: 11  fragj: 15

>  <atom.prop.CHAIN_ID>  (3453) 
A A A A A A A A A A A Z Z Z Z Z Z Z Z Z Z Z Z Z Z Z

>  <atom.prop.IS_HEAVY_ATOM>  (3453) 
1 0 0 0 1 0 0 1 0 0 0 1 0 0 0 1 1 0 1 0 1 0 1 0 1 0

>  <DIFUSE_FUNC_ATOM>  (3453) 
n/a

>  <FINAL_SINGLE_POINT_ENERGY>  (3453) 
0

>  <NONCOV_INTER_ENERGY_QM>  (3453) 
0

>  <FF_Energy>  (3453) 
-5.43

>  <QM_Energy>  (3453) 
-13.11

>  <source>  (3453) 
ETAM_MBZ

>  <Index>  (3453) 
38056

$$$$
ETAM-pdb5vt2-A-ASP-5:MBZ-pdb5vt2-A-PHE-52
     RDKit          3D

 26 25  0  0  0  0  0  0  0  0999 V2000
   -4.9042   -2.0751    4.1648 C   0  0  0  0  0  0  0  0  0  0  0  0
   -4.4739   -2.0463    5.0565 H   0  0  0  0  0  0  0  0  0  0  0  0
   -5.2469   -1.1820    3.9077 H   0  0  0  0  0  0  0  0  0  0  0  0
   -5.7390   -2.7750    4.2008 H   0  0  0  0  0  0  0  0  0  0  0  0
   -3.8352   -2.4866    3.1361 C   0  0  0  0  0  0  0  0  0  0  0  0
   -3.6328   -3.4608    3.3394 H   0  0  0  0  0  0  0  0  0  0  0  0
   -4.2163   -2.4517    2.1155 H   0  0  0  0  0  0  0  0  0  0  0  0
   -2.5587   -1.7304    3.3661 N   0  0  0  0  0  4  0  0  0  0  0  0
   -2.7632   -0.9018    3.8774 H   0  0  0  0  0  0  0  0  0  0  0  0
   -1.9327   -2.3053    3.8838 H   0  0  0  0  0  0  0  0  0  0  0  0
   -2.1597   -1.4976    2.4851 H   0  0  0  0  0  0  0  0  0  0  0  0
   -0.0039    2.9046    0.0191 C   0  0  0  0  0  0  0  0  0  0  0  0
   -0.7803    3.2245   -0.4988 H   0  0  0  0  0  0  0  0  0  0  0  0
    0.8466    3.2240   -0.3655 H   0  0  0  0  0  0  0  0  0  0  0  0
   -0.0864    3.3134    1.0262 H   0  0  0  0  0  0  0  0  0  0  0  0
   -0.0016    1.4103   -0.0109 C   0  0  0  0  0  0  0  0  0  0  0  0
   -1.2133    0.6916   -0.0011 C   0  0  0  0  0  0  0  0  0  0  0  0
   -2.0746    1.1810    0.0040 H   0  0  0  0  0  0  0  0  0  0  0  0
   -1.2155   -0.7097    0.0000 C   0  0  0  0  0  0  0  0  0  0  0  0
   -2.0817   -1.2063   -0.0009 H   0  0  0  0  0  0  0  0  0  0  0  0
    0.0044   -1.4005    0.0047 C   0  0  0  0  0  0  0  0  0  0  0  0
    0.0085   -2.3965    0.0112 H   0  0  0  0  0  0  0  0  0  0  0  0
    1.2155   -0.6913   -0.0000 C   0  0  0  0  0  0  0  0  0  0  0  0
    2.0939   -1.1930   -0.0078 H   0  0  0  0  0  0  0  0  0  0  0  0
    1.2106    0.6996    0.0073 C   0  0  0  0  0  0  0  0  0  0  0  0
    2.0702    1.2022    0.0245 H   0  0  0  0  0  0  0  0  0  0  0  0
  1  5  1  0
  5  8  1  0
  1  2  1  0
  1  3  1  0
  1  4  1  0
  5  6  1  0
  5  7  1  0
  8  9  1  0
  8 10  1  0
  8 11  1  0
 12 16  1  0
 16 17  2  0
 17 19  1  0
 19 21  2  0
 21 23  1  0
 23 25  2  0
 25 16  1  0
 12 13  1  0
 12 14  1  0
 12 15  1  0
 17 18  1  0
 19 20  1  0
 21 22  1  0
 23 24  1  0
 25 26  1  0
M  CHG  1   8   1
M  END
>  <PDB_ID>  (3454) 
pdb5vt2

>  <RESIDUE_NAME>  (3454) 
ASP   PHE

>  <FRAG_NAME>  (3454) 
ETAM   MBZ

>  <FRAG_ATOM_NUM>  (3454) 
fragi: 11  fragj: 15

>  <atom.prop.CHAIN_ID>  (3454) 
A A A A A A A A A A A Z Z Z Z Z Z Z Z Z Z Z Z Z Z Z

>  <atom.prop.IS_HEAVY_ATOM>  (3454) 
1 0 0 0 1 0 0 1 0 0 0 1 0 0 0 1 1 0 1 0 1 0 1 0 1 0

>  <DIFUSE_FUNC_ATOM>  (3454) 
n/a

>  <FINAL_SINGLE_POINT_ENERGY>  (3454) 
0

>  <NONCOV_INTER_ENERGY_QM>  (3454) 
0

>  <FF_Energy>  (3454) 
-2.49

>  <QM_Energy>  (3454) 
-7.86

>  <source>  (3454) 
ETAM_MBZ

>  <Index>  (3454) 
38062

$$$$
ETAM-pdb5vxt-A-LYS-242:MBZ-pdb5vxt-A-PHE-234
     RDKit          3D

 26 25  0  0  0  0  0  0  0  0999 V2000
    1.0199    1.1192   -4.7580 C   0  0  0  0  0  0  0  0  0  0  0  0
    0.4351    1.3810   -5.5131 H   0  0  0  0  0  0  0  0  0  0  0  0
    1.4504    0.2433   -4.9277 H   0  0  0  0  0  0  0  0  0  0  0  0
    1.7946    1.8759   -4.6345 H   0  0  0  0  0  0  0  0  0  0  0  0
    0.1746    1.0122   -3.4994 C   0  0  0  0  0  0  0  0  0  0  0  0
    0.7392    0.6568   -2.7539 H   0  0  0  0  0  0  0  0  0  0  0  0
   -0.1664    1.9204   -3.2550 H   0  0  0  0  0  0  0  0  0  0  0  0
   -0.9930    0.0941   -3.7053 N   0  0  0  0  0  4  0  0  0  0  0  0
   -1.3091   -0.2355   -2.8180 H   0  0  0  0  0  0  0  0  0  0  0  0
   -1.7255    0.5954   -4.1618 H   0  0  0  0  0  0  0  0  0  0  0  0
   -0.7064   -0.6766   -4.2703 H   0  0  0  0  0  0  0  0  0  0  0  0
   -0.0588    2.9087   -0.0263 C   0  0  0  0  0  0  0  0  0  0  0  0
   -0.8862    3.1946    0.4466 H   0  0  0  0  0  0  0  0  0  0  0  0
   -0.0904    3.1940   -0.9795 H   0  0  0  0  0  0  0  0  0  0  0  0
    0.7828    3.4177    0.4436 H   0  0  0  0  0  0  0  0  0  0  0  0
   -0.0064    1.4032    0.0028 C   0  0  0  0  0  0  0  0  0  0  0  0
   -1.1906    0.6860   -0.0021 C   0  0  0  0  0  0  0  0  0  0  0  0
   -2.0662    1.1678   -0.0081 H   0  0  0  0  0  0  0  0  0  0  0  0
   -1.1938   -0.7121    0.0000 C   0  0  0  0  0  0  0  0  0  0  0  0
   -2.0710   -1.2009    0.0048 H   0  0  0  0  0  0  0  0  0  0  0  0
    0.0022   -1.3902   -0.0026 C   0  0  0  0  0  0  0  0  0  0  0  0
    0.0063   -2.3962   -0.0067 H   0  0  0  0  0  0  0  0  0  0  0  0
    1.1938   -0.6965   -0.0000 C   0  0  0  0  0  0  0  0  0  0  0  0
    2.0811   -1.1855    0.0022 H   0  0  0  0  0  0  0  0  0  0  0  0
    1.1949    0.7096    0.0019 C   0  0  0  0  0  0  0  0  0  0  0  0
    2.0585    1.1976    0.0021 H   0  0  0  0  0  0  0  0  0  0  0  0
  1  5  1  0
  5  8  1  0
  1  2  1  0
  1  3  1  0
  1  4  1  0
  5  6  1  0
  5  7  1  0
  8  9  1  0
  8 10  1  0
  8 11  1  0
 12 16  1  0
 16 17  2  0
 17 19  1  0
 19 21  2  0
 21 23  1  0
 23 25  2  0
 25 16  1  0
 12 13  1  0
 12 14  1  0
 12 15  1  0
 17 18  1  0
 19 20  1  0
 21 22  1  0
 23 24  1  0
 25 26  1  0
M  CHG  1   8   1
M  END
>  <PDB_ID>  (3455) 
pdb5vxt

>  <RESIDUE_NAME>  (3455) 
LYS   PHE

>  <FRAG_NAME>  (3455) 
ETAM   MBZ

>  <FRAG_ATOM_NUM>  (3455) 
fragi: 11  fragj: 15

>  <atom.prop.CHAIN_ID>  (3455) 
A A A A A A A A A A A Z Z Z Z Z Z Z Z Z Z Z Z Z Z Z

>  <atom.prop.IS_HEAVY_ATOM>  (3455) 
1 0 0 0 1 0 0 1 0 0 0 1 0 0 0 1 1 0 1 0 1 0 1 0 1 0

>  <DIFUSE_FUNC_ATOM>  (3455) 
n/a

>  <FINAL_SINGLE_POINT_ENERGY>  (3455) 
0

>  <NONCOV_INTER_ENERGY_QM>  (3455) 
0

>  <FF_Energy>  (3455) 
-7.26

>  <QM_Energy>  (3455) 
-12.48

>  <source>  (3455) 
ETAM_MBZ

>  <Index>  (3455) 
38093

$$$$
ETAM-pdb5vyd-B-LYS-37:MBZ-pdb5vyd-B-PHE-32
     RDKit          3D

 26 25  0  0  0  0  0  0  0  0999 V2000
   -3.1470   -3.0668    3.4036 C   0  0  0  0  0  0  0  0  0  0  0  0
   -2.1687   -3.0775    3.2393 H   0  0  0  0  0  0  0  0  0  0  0  0
   -3.6339   -3.5233    2.6699 H   0  0  0  0  0  0  0  0  0  0  0  0
   -3.3563   -3.5770    4.3438 H   0  0  0  0  0  0  0  0  0  0  0  0
   -3.6114   -1.6199    3.4651 C   0  0  0  0  0  0  0  0  0  0  0  0
   -4.5933   -1.6025    3.6766 H   0  0  0  0  0  0  0  0  0  0  0  0
   -3.1163   -1.1501    4.2035 H   0  0  0  0  0  0  0  0  0  0  0  0
   -3.3752   -0.8980    2.1843 N   0  0  0  0  0  4  0  0  0  0  0  0
   -2.3921   -0.8311    2.0183 H   0  0  0  0  0  0  0  0  0  0  0  0
   -3.8078   -1.4007    1.4367 H   0  0  0  0  0  0  0  0  0  0  0  0
   -3.7676    0.0191    2.2437 H   0  0  0  0  0  0  0  0  0  0  0  0
   -0.0006    2.9018   -0.0042 C   0  0  0  0  0  0  0  0  0  0  0  0
   -0.7606    3.2037   -0.5605 H   0  0  0  0  0  0  0  0  0  0  0  0
    0.8625    3.2052   -0.3817 H   0  0  0  0  0  0  0  0  0  0  0  0
   -0.1101    3.3505    0.9831 H   0  0  0  0  0  0  0  0  0  0  0  0
   -0.0004    1.3964    0.0023 C   0  0  0  0  0  0  0  0  0  0  0  0
   -1.1915    0.6897   -0.0018 C   0  0  0  0  0  0  0  0  0  0  0  0
   -2.0595    1.1805   -0.0076 H   0  0  0  0  0  0  0  0  0  0  0  0
   -1.1938   -0.6936   -0.0000 C   0  0  0  0  0  0  0  0  0  0  0  0
   -2.0731   -1.1897    0.0022 H   0  0  0  0  0  0  0  0  0  0  0  0
    0.0003   -1.3855    0.0006 C   0  0  0  0  0  0  0  0  0  0  0  0
   -0.0048   -2.3870    0.0011 H   0  0  0  0  0  0  0  0  0  0  0  0
    1.1938   -0.6953    0.0000 C   0  0  0  0  0  0  0  0  0  0  0  0
    2.0777   -1.1947    0.0015 H   0  0  0  0  0  0  0  0  0  0  0  0
    1.1916    0.6883   -0.0011 C   0  0  0  0  0  0  0  0  0  0  0  0
    2.0611    1.1854   -0.0055 H   0  0  0  0  0  0  0  0  0  0  0  0
  1  5  1  0
  5  8  1  0
  1  2  1  0
  1  3  1  0
  1  4  1  0
  5  6  1  0
  5  7  1  0
  8  9  1  0
  8 10  1  0
  8 11  1  0
 12 16  1  0
 16 17  2  0
 17 19  1  0
 19 21  2  0
 21 23  1  0
 23 25  2  0
 25 16  1  0
 12 13  1  0
 12 14  1  0
 12 15  1  0
 17 18  1  0
 19 20  1  0
 21 22  1  0
 23 24  1  0
 25 26  1  0
M  CHG  1   8   1
M  END
>  <PDB_ID>  (3456) 
pdb5vyd

>  <RESIDUE_NAME>  (3456) 
LYS   PHE

>  <FRAG_NAME>  (3456) 
ETAM   MBZ

>  <FRAG_ATOM_NUM>  (3456) 
fragi: 11  fragj: 15

>  <atom.prop.CHAIN_ID>  (3456) 
A A A A A A A A A A A Z Z Z Z Z Z Z Z Z Z Z Z Z Z Z

>  <atom.prop.IS_HEAVY_ATOM>  (3456) 
1 0 0 0 1 0 0 1 0 0 0 1 0 0 0 1 1 0 1 0 1 0 1 0 1 0

>  <DIFUSE_FUNC_ATOM>  (3456) 
n/a

>  <FINAL_SINGLE_POINT_ENERGY>  (3456) 
0

>  <NONCOV_INTER_ENERGY_QM>  (3456) 
0

>  <FF_Energy>  (3456) 
-0.48

>  <QM_Energy>  (3456) 
-7.54

>  <source>  (3456) 
ETAM_MBZ

>  <Index>  (3456) 
38106

$$$$
ETAM-pdb5vx8-B-LYS-154:MBZ-pdb5vx8-B-PHE-143
     RDKit          3D

 26 25  0  0  0  0  0  0  0  0999 V2000
    0.2557    2.0535    3.8361 C   0  0  0  0  0  0  0  0  0  0  0  0
   -0.0903    2.0170    2.9052 H   0  0  0  0  0  0  0  0  0  0  0  0
    1.2484    2.0964    3.8384 H   0  0  0  0  0  0  0  0  0  0  0  0
   -0.1390    2.9435    4.3260 H   0  0  0  0  0  0  0  0  0  0  0  0
   -0.1743    0.7778    4.5610 C   0  0  0  0  0  0  0  0  0  0  0  0
    0.3614    0.6894    5.4030 H   0  0  0  0  0  0  0  0  0  0  0  0
   -1.1456    0.8530    4.7980 H   0  0  0  0  0  0  0  0  0  0  0  0
    0.0319   -0.4383    3.7182 N   0  0  0  0  0  4  0  0  0  0  0  0
    0.1487   -0.1619    2.7654 H   0  0  0  0  0  0  0  0  0  0  0  0
    0.8479   -0.9207    4.0310 H   0  0  0  0  0  0  0  0  0  0  0  0
   -0.7649   -1.0349    3.8009 H   0  0  0  0  0  0  0  0  0  0  0  0
    0.0012    2.8844   -0.0041 C   0  0  0  0  0  0  0  0  0  0  0  0
    0.8116    3.1949    0.4719 H   0  0  0  0  0  0  0  0  0  0  0  0
   -0.8210    3.1963    0.4482 H   0  0  0  0  0  0  0  0  0  0  0  0
    0.0154    3.3236   -1.0016 H   0  0  0  0  0  0  0  0  0  0  0  0
   -0.0003    1.3888   -0.0010 C   0  0  0  0  0  0  0  0  0  0  0  0
   -1.1914    0.6831    0.0014 C   0  0  0  0  0  0  0  0  0  0  0  0
   -2.0585    1.1779    0.0023 H   0  0  0  0  0  0  0  0  0  0  0  0
   -1.1941   -0.6920    0.0000 C   0  0  0  0  0  0  0  0  0  0  0  0
   -2.0710   -1.1920   -0.0003 H   0  0  0  0  0  0  0  0  0  0  0  0
    0.0006   -1.3789    0.0006 C   0  0  0  0  0  0  0  0  0  0  0  0
   -0.0014   -2.3822    0.0013 H   0  0  0  0  0  0  0  0  0  0  0  0
    1.1941   -0.6879    0.0000 C   0  0  0  0  0  0  0  0  0  0  0  0
    2.0771   -1.1906    0.0016 H   0  0  0  0  0  0  0  0  0  0  0  0
    1.1911    0.6870   -0.0009 C   0  0  0  0  0  0  0  0  0  0  0  0
    2.0591    1.1881   -0.0027 H   0  0  0  0  0  0  0  0  0  0  0  0
  1  5  1  0
  5  8  1  0
  1  2  1  0
  1  3  1  0
  1  4  1  0
  5  6  1  0
  5  7  1  0
  8  9  1  0
  8 10  1  0
  8 11  1  0
 12 16  1  0
 16 17  2  0
 17 19  1  0
 19 21  2  0
 21 23  1  0
 23 25  2  0
 25 16  1  0
 12 13  1  0
 12 14  1  0
 12 15  1  0
 17 18  1  0
 19 20  1  0
 21 22  1  0
 23 24  1  0
 25 26  1  0
M  CHG  1   8   1
M  END
>  <PDB_ID>  (3457) 
pdb5vx8

>  <RESIDUE_NAME>  (3457) 
LYS   PHE

>  <FRAG_NAME>  (3457) 
ETAM   MBZ

>  <FRAG_ATOM_NUM>  (3457) 
fragi: 11  fragj: 15

>  <atom.prop.CHAIN_ID>  (3457) 
A A A A A A A A A A A Z Z Z Z Z Z Z Z Z Z Z Z Z Z Z

>  <atom.prop.IS_HEAVY_ATOM>  (3457) 
1 0 0 0 1 0 0 1 0 0 0 1 0 0 0 1 1 0 1 0 1 0 1 0 1 0

>  <DIFUSE_FUNC_ATOM>  (3457) 
n/a

>  <FINAL_SINGLE_POINT_ENERGY>  (3457) 
0

>  <NONCOV_INTER_ENERGY_QM>  (3457) 
0

>  <FF_Energy>  (3457) 
-7.94

>  <QM_Energy>  (3457) 
-13.35

>  <source>  (3457) 
ETAM_MBZ

>  <Index>  (3457) 
38113

$$$$
ETAM-pdb5w2l-A-LYS-738:MBZ-pdb5w2l-A-PHE-808
     RDKit          3D

 26 25  0  0  0  0  0  0  0  0999 V2000
   -1.9689   -0.8045    3.6554 C   0  0  0  0  0  0  0  0  0  0  0  0
   -1.8719   -0.0610    3.0015 H   0  0  0  0  0  0  0  0  0  0  0  0
   -2.1600   -0.4429    4.5624 H   0  0  0  0  0  0  0  0  0  0  0  0
   -2.8056   -1.4314    3.3470 H   0  0  0  0  0  0  0  0  0  0  0  0
   -0.6698   -1.5863    3.7045 C   0  0  0  0  0  0  0  0  0  0  0  0
   -0.6959   -2.2149    4.4892 H   0  0  0  0  0  0  0  0  0  0  0  0
   -0.5841   -2.1321    2.8628 H   0  0  0  0  0  0  0  0  0  0  0  0
    0.5211   -0.7007    3.8308 N   0  0  0  0  0  4  0  0  0  0  0  0
    1.3520   -1.2534    3.7730 H   0  0  0  0  0  0  0  0  0  0  0  0
    0.5137   -0.0286    3.0912 H   0  0  0  0  0  0  0  0  0  0  0  0
    0.4913   -0.2307    4.7118 H   0  0  0  0  0  0  0  0  0  0  0  0
   -0.0056    2.9068    0.0429 C   0  0  0  0  0  0  0  0  0  0  0  0
   -0.7464    3.2282   -0.5231 H   0  0  0  0  0  0  0  0  0  0  0  0
    0.8687    3.2242   -0.2844 H   0  0  0  0  0  0  0  0  0  0  0  0
   -0.1537    3.2958    1.0503 H   0  0  0  0  0  0  0  0  0  0  0  0
   -0.0013    1.4051   -0.0085 C   0  0  0  0  0  0  0  0  0  0  0  0
   -1.1995    0.6900    0.0198 C   0  0  0  0  0  0  0  0  0  0  0  0
   -2.0657    1.1799    0.0538 H   0  0  0  0  0  0  0  0  0  0  0  0
   -1.2028   -0.7019   -0.0000 C   0  0  0  0  0  0  0  0  0  0  0  0
   -2.0800   -1.1943   -0.0056 H   0  0  0  0  0  0  0  0  0  0  0  0
   -0.0031   -1.3943   -0.0102 C   0  0  0  0  0  0  0  0  0  0  0  0
   -0.0014   -2.3926   -0.0251 H   0  0  0  0  0  0  0  0  0  0  0  0
    1.2028   -0.6938    0.0000 C   0  0  0  0  0  0  0  0  0  0  0  0
    2.0827   -1.1964    0.0097 H   0  0  0  0  0  0  0  0  0  0  0  0
    1.2039    0.6949   -0.0010 C   0  0  0  0  0  0  0  0  0  0  0  0
    2.0674    1.1930    0.0034 H   0  0  0  0  0  0  0  0  0  0  0  0
  1  5  1  0
  5  8  1  0
  1  2  1  0
  1  3  1  0
  1  4  1  0
  5  6  1  0
  5  7  1  0
  8  9  1  0
  8 10  1  0
  8 11  1  0
 12 16  1  0
 16 17  2  0
 17 19  1  0
 19 21  2  0
 21 23  1  0
 23 25  2  0
 25 16  1  0
 12 13  1  0
 12 14  1  0
 12 15  1  0
 17 18  1  0
 19 20  1  0
 21 22  1  0
 23 24  1  0
 25 26  1  0
M  CHG  1   8   1
M  END
>  <PDB_ID>  (3458) 
pdb5w2l

>  <RESIDUE_NAME>  (3458) 
LYS   PHE

>  <FRAG_NAME>  (3458) 
ETAM   MBZ

>  <FRAG_ATOM_NUM>  (3458) 
fragi: 11  fragj: 15

>  <atom.prop.CHAIN_ID>  (3458) 
A A A A A A A A A A A Z Z Z Z Z Z Z Z Z Z Z Z Z Z Z

>  <atom.prop.IS_HEAVY_ATOM>  (3458) 
1 0 0 0 1 0 0 1 0 0 0 1 0 0 0 1 1 0 1 0 1 0 1 0 1 0

>  <DIFUSE_FUNC_ATOM>  (3458) 
n/a

>  <FINAL_SINGLE_POINT_ENERGY>  (3458) 
0

>  <NONCOV_INTER_ENERGY_QM>  (3458) 
0

>  <FF_Energy>  (3458) 
-6.77

>  <QM_Energy>  (3458) 
-11.92

>  <source>  (3458) 
ETAM_MBZ

>  <Index>  (3458) 
38138

$$$$
ETAM-pdb5w3t-D-LYS-268:MBZ-pdb5w3t-D-PHE-242
     RDKit          3D

 26 25  0  0  0  0  0  0  0  0999 V2000
    4.5781   -1.1743    2.3097 C   0  0  0  0  0  0  0  0  0  0  0  0
    3.6873   -1.6308    2.3434 H   0  0  0  0  0  0  0  0  0  0  0  0
    4.6880   -0.5993    3.1209 H   0  0  0  0  0  0  0  0  0  0  0  0
    5.3594   -1.9343    2.3113 H   0  0  0  0  0  0  0  0  0  0  0  0
    4.6252   -0.2950    1.0813 C   0  0  0  0  0  0  0  0  0  0  0  0
    5.5112    0.1679    1.0429 H   0  0  0  0  0  0  0  0  0  0  0  0
    4.5111   -0.8629    0.2653 H   0  0  0  0  0  0  0  0  0  0  0  0
    3.5444    0.7221    1.1228 N   0  0  0  0  0  4  0  0  0  0  0  0
    3.3013    0.9116    2.0738 H   0  0  0  0  0  0  0  0  0  0  0  0
    3.8616    1.5636    0.6860 H   0  0  0  0  0  0  0  0  0  0  0  0
    2.7421    0.3758    0.6358 H   0  0  0  0  0  0  0  0  0  0  0  0
   -0.0053    2.8984    0.0115 C   0  0  0  0  0  0  0  0  0  0  0  0
   -0.7856    3.2054   -0.5100 H   0  0  0  0  0  0  0  0  0  0  0  0
    0.8422    3.2109   -0.3875 H   0  0  0  0  0  0  0  0  0  0  0  0
   -0.0820    3.3257    1.0113 H   0  0  0  0  0  0  0  0  0  0  0  0
    0.0004    1.3946   -0.0023 C   0  0  0  0  0  0  0  0  0  0  0  0
   -1.1924    0.6861    0.0045 C   0  0  0  0  0  0  0  0  0  0  0  0
   -2.0599    1.1796    0.0111 H   0  0  0  0  0  0  0  0  0  0  0  0
   -1.1963   -0.6945   -0.0000 C   0  0  0  0  0  0  0  0  0  0  0  0
   -2.0740   -1.1914    0.0002 H   0  0  0  0  0  0  0  0  0  0  0  0
   -0.0011   -1.3846   -0.0026 C   0  0  0  0  0  0  0  0  0  0  0  0
   -0.0028   -2.3864   -0.0069 H   0  0  0  0  0  0  0  0  0  0  0  0
    1.1963   -0.6913   -0.0000 C   0  0  0  0  0  0  0  0  0  0  0  0
    2.0785   -1.1929    0.0033 H   0  0  0  0  0  0  0  0  0  0  0  0
    1.1931    0.6898    0.0004 C   0  0  0  0  0  0  0  0  0  0  0  0
    2.0622    1.1891    0.0019 H   0  0  0  0  0  0  0  0  0  0  0  0
  1  5  1  0
  5  8  1  0
  1  2  1  0
  1  3  1  0
  1  4  1  0
  5  6  1  0
  5  7  1  0
  8  9  1  0
  8 10  1  0
  8 11  1  0
 12 16  1  0
 16 17  2  0
 17 19  1  0
 19 21  2  0
 21 23  1  0
 23 25  2  0
 25 16  1  0
 12 13  1  0
 12 14  1  0
 12 15  1  0
 17 18  1  0
 19 20  1  0
 21 22  1  0
 23 24  1  0
 25 26  1  0
M  CHG  1   8   1
M  END
>  <PDB_ID>  (3459) 
pdb5w3t

>  <RESIDUE_NAME>  (3459) 
LYS   PHE

>  <FRAG_NAME>  (3459) 
ETAM   MBZ

>  <FRAG_ATOM_NUM>  (3459) 
fragi: 11  fragj: 15

>  <atom.prop.CHAIN_ID>  (3459) 
A A A A A A A A A A A Z Z Z Z Z Z Z Z Z Z Z Z Z Z Z

>  <atom.prop.IS_HEAVY_ATOM>  (3459) 
1 0 0 0 1 0 0 1 0 0 0 1 0 0 0 1 1 0 1 0 1 0 1 0 1 0

>  <DIFUSE_FUNC_ATOM>  (3459) 
n/a

>  <FINAL_SINGLE_POINT_ENERGY>  (3459) 
0

>  <NONCOV_INTER_ENERGY_QM>  (3459) 
0

>  <FF_Energy>  (3459) 
47.61

>  <QM_Energy>  (3459) 
14.14

>  <source>  (3459) 
ETAM_MBZ

>  <Index>  (3459) 
38153

$$$$
ETAM-pdb5voh-C-LYS-132:MBZ-pdb5voh-C-PHE-242
     RDKit          3D

 26 25  0  0  0  0  0  0  0  0999 V2000
   -0.0828   -2.9361    3.2064 C   0  0  0  0  0  0  0  0  0  0  0  0
    0.3407   -3.4139    2.4463 H   0  0  0  0  0  0  0  0  0  0  0  0
   -0.6017   -2.1533    2.8852 H   0  0  0  0  0  0  0  0  0  0  0  0
   -0.7550   -3.6200    3.7246 H   0  0  0  0  0  0  0  0  0  0  0  0
    1.0166   -2.4383    4.1396 C   0  0  0  0  0  0  0  0  0  0  0  0
    0.5908   -2.0709    4.9738 H   0  0  0  0  0  0  0  0  0  0  0  0
    1.6011   -3.2166    4.3963 H   0  0  0  0  0  0  0  0  0  0  0  0
    1.8641   -1.3780    3.5173 N   0  0  0  0  0  4  0  0  0  0  0  0
    2.8242   -1.5629    3.7207 H   0  0  0  0  0  0  0  0  0  0  0  0
    1.7227   -1.3819    2.5284 H   0  0  0  0  0  0  0  0  0  0  0  0
    1.6057   -0.4888    3.8916 H   0  0  0  0  0  0  0  0  0  0  0  0
    0.0119    2.8968    0.0029 C   0  0  0  0  0  0  0  0  0  0  0  0
    0.5456    3.2029   -0.7716 H   0  0  0  0  0  0  0  0  0  0  0  0
    0.4116    3.2006    0.8559 H   0  0  0  0  0  0  0  0  0  0  0  0
   -0.9756    3.3511   -0.0776 H   0  0  0  0  0  0  0  0  0  0  0  0
    0.0007    1.3948   -0.0004 C   0  0  0  0  0  0  0  0  0  0  0  0
   -1.1911    0.6918    0.0004 C   0  0  0  0  0  0  0  0  0  0  0  0
   -2.0587    1.1835   -0.0002 H   0  0  0  0  0  0  0  0  0  0  0  0
   -1.1945   -0.6916   -0.0000 C   0  0  0  0  0  0  0  0  0  0  0  0
   -2.0740   -1.1861    0.0004 H   0  0  0  0  0  0  0  0  0  0  0  0
   -0.0011   -1.3848    0.0006 C   0  0  0  0  0  0  0  0  0  0  0  0
   -0.0067   -2.3875    0.0013 H   0  0  0  0  0  0  0  0  0  0  0  0
    1.1945   -0.6958    0.0000 C   0  0  0  0  0  0  0  0  0  0  0  0
    2.0769   -1.1965    0.0022 H   0  0  0  0  0  0  0  0  0  0  0  0
    1.1915    0.6856   -0.0007 C   0  0  0  0  0  0  0  0  0  0  0  0
    2.0617    1.1835   -0.0023 H   0  0  0  0  0  0  0  0  0  0  0  0
  1  5  1  0
  5  8  1  0
  1  2  1  0
  1  3  1  0
  1  4  1  0
  5  6  1  0
  5  7  1  0
  8  9  1  0
  8 10  1  0
  8 11  1  0
 12 16  1  0
 16 17  2  0
 17 19  1  0
 19 21  2  0
 21 23  1  0
 23 25  2  0
 25 16  1  0
 12 13  1  0
 12 14  1  0
 12 15  1  0
 17 18  1  0
 19 20  1  0
 21 22  1  0
 23 24  1  0
 25 26  1  0
M  CHG  1   8   1
M  END
>  <PDB_ID>  (3460) 
pdb5voh

>  <RESIDUE_NAME>  (3460) 
LYS   PHE

>  <FRAG_NAME>  (3460) 
ETAM   MBZ

>  <FRAG_ATOM_NUM>  (3460) 
fragi: 11  fragj: 15

>  <atom.prop.CHAIN_ID>  (3460) 
A A A A A A A A A A A Z Z Z Z Z Z Z Z Z Z Z Z Z Z Z

>  <atom.prop.IS_HEAVY_ATOM>  (3460) 
1 0 0 0 1 0 0 1 0 0 0 1 0 0 0 1 1 0 1 0 1 0 1 0 1 0

>  <DIFUSE_FUNC_ATOM>  (3460) 
n/a

>  <FINAL_SINGLE_POINT_ENERGY>  (3460) 
0

>  <NONCOV_INTER_ENERGY_QM>  (3460) 
0

>  <FF_Energy>  (3460) 
-4.59

>  <QM_Energy>  (3460) 
-10.07

>  <source>  (3460) 
ETAM_MBZ

>  <Index>  (3460) 
38158

$$$$
ETAM-pdb5w7d-A-LYS-166:MBZ-pdb5w7d-A-PHE-77
     RDKit          3D

 26 25  0  0  0  0  0  0  0  0999 V2000
    1.3530   -0.5129    3.4377 C   0  0  0  0  0  0  0  0  0  0  0  0
    1.0117    0.1480    2.8157 H   0  0  0  0  0  0  0  0  0  0  0  0
    1.8471   -1.1978    2.9620 H   0  0  0  0  0  0  0  0  0  0  0  0
    2.0156   -0.0236    4.1516 H   0  0  0  0  0  0  0  0  0  0  0  0
    0.1641   -1.1755    4.1298 C   0  0  0  0  0  0  0  0  0  0  0  0
    0.3205   -1.1868    5.0871 H   0  0  0  0  0  0  0  0  0  0  0  0
   -0.6397   -0.6695    3.9301 H   0  0  0  0  0  0  0  0  0  0  0  0
   -0.0530   -2.5868    3.6794 N   0  0  0  0  0  4  0  0  0  0  0  0
   -0.7521   -2.9369    4.1040 H   0  0  0  0  0  0  0  0  0  0  0  0
   -0.2060   -2.6061    2.8035 H   0  0  0  0  0  0  0  0  0  0  0  0
    0.6689   -3.0765    3.8580 H   0  0  0  0  0  0  0  0  0  0  0  0
   -0.0079    2.9281   -0.0087 C   0  0  0  0  0  0  0  0  0  0  0  0
    0.8559    3.2292    0.3140 H   0  0  0  0  0  0  0  0  0  0  0  0
   -0.7067    3.2254    0.5944 H   0  0  0  0  0  0  0  0  0  0  0  0
   -0.1857    3.3585   -0.9941 H   0  0  0  0  0  0  0  0  0  0  0  0
   -0.0026    1.4041   -0.0023 C   0  0  0  0  0  0  0  0  0  0  0  0
   -1.1925    0.6948   -0.0014 C   0  0  0  0  0  0  0  0  0  0  0  0
   -2.0007    1.1564   -0.0037 H   0  0  0  0  0  0  0  0  0  0  0  0
   -1.1971   -0.6999    0.0000 C   0  0  0  0  0  0  0  0  0  0  0  0
   -2.0038   -1.1635    0.0016 H   0  0  0  0  0  0  0  0  0  0  0  0
    0.0011   -1.3929    0.0028 C   0  0  0  0  0  0  0  0  0  0  0  0
    0.0010   -2.3233    0.0048 H   0  0  0  0  0  0  0  0  0  0  0  0
    1.1971   -0.7022   -0.0000 C   0  0  0  0  0  0  0  0  0  0  0  0
    2.0023   -1.1666    0.0028 H   0  0  0  0  0  0  0  0  0  0  0  0
    1.1940    0.6961    0.0009 C   0  0  0  0  0  0  0  0  0  0  0  0
    2.0020    1.1570   -0.0021 H   0  0  0  0  0  0  0  0  0  0  0  0
  1  5  1  0
  5  8  1  0
  1  2  1  0
  1  3  1  0
  1  4  1  0
  5  6  1  0
  5  7  1  0
  8  9  1  0
  8 10  1  0
  8 11  1  0
 12 16  1  0
 16 17  2  0
 17 19  1  0
 19 21  2  0
 21 23  1  0
 23 25  2  0
 25 16  1  0
 12 13  1  0
 12 14  1  0
 12 15  1  0
 17 18  1  0
 19 20  1  0
 21 22  1  0
 23 24  1  0
 25 26  1  0
M  CHG  1   8   1
M  END
>  <PDB_ID>  (3461) 
pdb5w7d

>  <RESIDUE_NAME>  (3461) 
LYS   PHE

>  <FRAG_NAME>  (3461) 
ETAM   MBZ

>  <FRAG_ATOM_NUM>  (3461) 
fragi: 11  fragj: 15

>  <atom.prop.CHAIN_ID>  (3461) 
A A A A A A A A A A A Z Z Z Z Z Z Z Z Z Z Z Z Z Z Z

>  <atom.prop.IS_HEAVY_ATOM>  (3461) 
1 0 0 0 1 0 0 1 0 0 0 1 0 0 0 1 1 0 1 0 1 0 1 0 1 0

>  <DIFUSE_FUNC_ATOM>  (3461) 
n/a

>  <FINAL_SINGLE_POINT_ENERGY>  (3461) 
0

>  <NONCOV_INTER_ENERGY_QM>  (3461) 
0

>  <FF_Energy>  (3461) 
-4.06

>  <QM_Energy>  (3461) 
-9.1

>  <source>  (3461) 
ETAM_MBZ

>  <Index>  (3461) 
38167

$$$$
ETAM-pdb5w6h-C-LYS-761:MBZ-pdb5w6h-C-PHE-712
     RDKit          3D

 26 25  0  0  0  0  0  0  0  0999 V2000
    1.2175   -0.3251    3.6569 C   0  0  0  0  0  0  0  0  0  0  0  0
    1.5830    0.6013    3.6684 H   0  0  0  0  0  0  0  0  0  0  0  0
    1.6307   -0.8491    2.9181 H   0  0  0  0  0  0  0  0  0  0  0  0
    1.4509   -0.8077    4.6060 H   0  0  0  0  0  0  0  0  0  0  0  0
   -0.2825   -0.2504    3.4165 C   0  0  0  0  0  0  0  0  0  0  0  0
   -0.7199    0.1669    4.2188 H   0  0  0  0  0  0  0  0  0  0  0  0
   -0.4545    0.3328    2.6165 H   0  0  0  0  0  0  0  0  0  0  0  0
   -0.8805   -1.5935    3.1789 N   0  0  0  0  0  4  0  0  0  0  0  0
   -1.4375   -1.5654    2.3500 H   0  0  0  0  0  0  0  0  0  0  0  0
   -0.1497   -2.2664    3.0693 H   0  0  0  0  0  0  0  0  0  0  0  0
   -1.4523   -1.8442    3.9592 H   0  0  0  0  0  0  0  0  0  0  0  0
    0.0020    2.9053   -0.0153 C   0  0  0  0  0  0  0  0  0  0  0  0
   -0.6550    3.2026   -0.6925 H   0  0  0  0  0  0  0  0  0  0  0  0
    0.9157    3.2060   -0.2477 H   0  0  0  0  0  0  0  0  0  0  0  0
   -0.2677    3.3639    0.9361 H   0  0  0  0  0  0  0  0  0  0  0  0
    0.0003    1.3987    0.0018 C   0  0  0  0  0  0  0  0  0  0  0  0
   -1.1930    0.6904   -0.0015 C   0  0  0  0  0  0  0  0  0  0  0  0
   -2.0611    1.1817   -0.0056 H   0  0  0  0  0  0  0  0  0  0  0  0
   -1.1972   -0.6959   -0.0000 C   0  0  0  0  0  0  0  0  0  0  0  0
   -2.0756   -1.1900    0.0005 H   0  0  0  0  0  0  0  0  0  0  0  0
   -0.0002   -1.3900    0.0023 C   0  0  0  0  0  0  0  0  0  0  0  0
   -0.0030   -2.3903    0.0049 H   0  0  0  0  0  0  0  0  0  0  0  0
    1.1972   -0.6949    0.0000 C   0  0  0  0  0  0  0  0  0  0  0  0
    2.0793   -1.1935    0.0020 H   0  0  0  0  0  0  0  0  0  0  0  0
    1.1929    0.6916   -0.0026 C   0  0  0  0  0  0  0  0  0  0  0  0
    2.0626    1.1886   -0.0090 H   0  0  0  0  0  0  0  0  0  0  0  0
  1  5  1  0
  5  8  1  0
  1  2  1  0
  1  3  1  0
  1  4  1  0
  5  6  1  0
  5  7  1  0
  8  9  1  0
  8 10  1  0
  8 11  1  0
 12 16  1  0
 16 17  2  0
 17 19  1  0
 19 21  2  0
 21 23  1  0
 23 25  2  0
 25 16  1  0
 12 13  1  0
 12 14  1  0
 12 15  1  0
 17 18  1  0
 19 20  1  0
 21 22  1  0
 23 24  1  0
 25 26  1  0
M  CHG  1   8   1
M  END
>  <PDB_ID>  (3462) 
pdb5w6h

>  <RESIDUE_NAME>  (3462) 
LYS   PHE

>  <FRAG_NAME>  (3462) 
ETAM   MBZ

>  <FRAG_ATOM_NUM>  (3462) 
fragi: 11  fragj: 15

>  <atom.prop.CHAIN_ID>  (3462) 
A A A A A A A A A A A Z Z Z Z Z Z Z Z Z Z Z Z Z Z Z

>  <atom.prop.IS_HEAVY_ATOM>  (3462) 
1 0 0 0 1 0 0 1 0 0 0 1 0 0 0 1 1 0 1 0 1 0 1 0 1 0

>  <DIFUSE_FUNC_ATOM>  (3462) 
n/a

>  <FINAL_SINGLE_POINT_ENERGY>  (3462) 
0

>  <NONCOV_INTER_ENERGY_QM>  (3462) 
0

>  <FF_Energy>  (3462) 
-6.3

>  <QM_Energy>  (3462) 
-14.56

>  <source>  (3462) 
ETAM_MBZ

>  <Index>  (3462) 
38169

$$$$
ETAM-pdb5wb4-B-LYS-75:MBZ-pdb5wb4-B-PHE-72
     RDKit          3D

 26 25  0  0  0  0  0  0  0  0999 V2000
   -2.3257    1.1733    3.6344 C   0  0  0  0  0  0  0  0  0  0  0  0
   -1.6122    0.7357    3.0885 H   0  0  0  0  0  0  0  0  0  0  0  0
   -2.8502    0.4763    4.1218 H   0  0  0  0  0  0  0  0  0  0  0  0
   -1.8530    1.8303    4.3644 H   0  0  0  0  0  0  0  0  0  0  0  0
   -3.2588    1.9200    2.7058 C   0  0  0  0  0  0  0  0  0  0  0  0
   -3.9767    2.3581    3.2451 H   0  0  0  0  0  0  0  0  0  0  0  0
   -2.7402    2.6175    2.2110 H   0  0  0  0  0  0  0  0  0  0  0  0
   -3.8783    0.9882    1.7298 N   0  0  0  0  0  4  0  0  0  0  0  0
   -3.6287    0.0479    1.9614 H   0  0  0  0  0  0  0  0  0  0  0  0
   -4.8732    1.0859    1.7600 H   0  0  0  0  0  0  0  0  0  0  0  0
   -3.5509    1.2025    0.8094 H   0  0  0  0  0  0  0  0  0  0  0  0
   -0.0024    2.9166   -0.0108 C   0  0  0  0  0  0  0  0  0  0  0  0
   -0.7933    3.2187   -0.5243 H   0  0  0  0  0  0  0  0  0  0  0  0
    0.8368    3.2202   -0.4398 H   0  0  0  0  0  0  0  0  0  0  0  0
   -0.0541    3.3782    0.9753 H   0  0  0  0  0  0  0  0  0  0  0  0
   -0.0007    1.4067   -0.0010 C   0  0  0  0  0  0  0  0  0  0  0  0
   -1.1944    0.6938   -0.0042 C   0  0  0  0  0  0  0  0  0  0  0  0
   -2.0639    1.1753   -0.0109 H   0  0  0  0  0  0  0  0  0  0  0  0
   -1.1931   -0.7064   -0.0000 C   0  0  0  0  0  0  0  0  0  0  0  0
   -2.0710   -1.1965   -0.0028 H   0  0  0  0  0  0  0  0  0  0  0  0
    0.0034   -1.3918    0.0095 C   0  0  0  0  0  0  0  0  0  0  0  0
    0.0008   -2.3955    0.0227 H   0  0  0  0  0  0  0  0  0  0  0  0
    1.1931   -0.7013   -0.0000 C   0  0  0  0  0  0  0  0  0  0  0  0
    2.0805   -1.1913   -0.0031 H   0  0  0  0  0  0  0  0  0  0  0  0
    1.1917    0.6989   -0.0042 C   0  0  0  0  0  0  0  0  0  0  0  0
    2.0624    1.1877   -0.0109 H   0  0  0  0  0  0  0  0  0  0  0  0
  1  5  1  0
  5  8  1  0
  1  2  1  0
  1  3  1  0
  1  4  1  0
  5  6  1  0
  5  7  1  0
  8  9  1  0
  8 10  1  0
  8 11  1  0
 12 16  1  0
 16 17  2  0
 17 19  1  0
 19 21  2  0
 21 23  1  0
 23 25  2  0
 25 16  1  0
 12 13  1  0
 12 14  1  0
 12 15  1  0
 17 18  1  0
 19 20  1  0
 21 22  1  0
 23 24  1  0
 25 26  1  0
M  CHG  1   8   1
M  END
>  <PDB_ID>  (3463) 
pdb5wb4

>  <RESIDUE_NAME>  (3463) 
LYS   PHE

>  <FRAG_NAME>  (3463) 
ETAM   MBZ

>  <FRAG_ATOM_NUM>  (3463) 
fragi: 11  fragj: 15

>  <atom.prop.CHAIN_ID>  (3463) 
A A A A A A A A A A A Z Z Z Z Z Z Z Z Z Z Z Z Z Z Z

>  <atom.prop.IS_HEAVY_ATOM>  (3463) 
1 0 0 0 1 0 0 1 0 0 0 1 0 0 0 1 1 0 1 0 1 0 1 0 1 0

>  <DIFUSE_FUNC_ATOM>  (3463) 
n/a

>  <FINAL_SINGLE_POINT_ENERGY>  (3463) 
0

>  <NONCOV_INTER_ENERGY_QM>  (3463) 
0

>  <FF_Energy>  (3463) 
0.02

>  <QM_Energy>  (3463) 
-5.73

>  <source>  (3463) 
ETAM_MBZ

>  <Index>  (3463) 
38186

$$$$
ETAM-pdb5wbf-B-LYS-288:MBZ-pdb5wbf-B-PHE-259
     RDKit          3D

 26 25  0  0  0  0  0  0  0  0999 V2000
    0.6335   -1.4744   -3.8268 C   0  0  0  0  0  0  0  0  0  0  0  0
    0.6094   -1.7078   -4.8026 H   0  0  0  0  0  0  0  0  0  0  0  0
    0.6932   -2.3221   -3.2919 H   0  0  0  0  0  0  0  0  0  0  0  0
    1.4957   -0.8411   -3.6179 H   0  0  0  0  0  0  0  0  0  0  0  0
   -0.6722   -0.7951   -3.4782 C   0  0  0  0  0  0  0  0  0  0  0  0
   -0.6226   -0.4561   -2.5318 H   0  0  0  0  0  0  0  0  0  0  0  0
   -0.8062   -0.0076   -4.0909 H   0  0  0  0  0  0  0  0  0  0  0  0
   -1.8346   -1.7114   -3.6052 N   0  0  0  0  0  4  0  0  0  0  0  0
   -2.2815   -1.5618   -4.4872 H   0  0  0  0  0  0  0  0  0  0  0  0
   -1.5198   -2.6590   -3.5468 H   0  0  0  0  0  0  0  0  0  0  0  0
   -2.4846   -1.5296   -2.8666 H   0  0  0  0  0  0  0  0  0  0  0  0
    0.0043    2.8807    0.0221 C   0  0  0  0  0  0  0  0  0  0  0  0
    0.9238    3.1940    0.2076 H   0  0  0  0  0  0  0  0  0  0  0  0
   -0.6299    3.1974    0.7120 H   0  0  0  0  0  0  0  0  0  0  0  0
   -0.3042    3.3119   -0.9303 H   0  0  0  0  0  0  0  0  0  0  0  0
    0.0024    1.3950    0.0262 C   0  0  0  0  0  0  0  0  0  0  0  0
   -1.2134    0.6883    0.0135 C   0  0  0  0  0  0  0  0  0  0  0  0
   -2.0690    1.1814    0.0129 H   0  0  0  0  0  0  0  0  0  0  0  0
   -1.2090   -0.7025    0.0000 C   0  0  0  0  0  0  0  0  0  0  0  0
   -2.0792   -1.2023    0.0200 H   0  0  0  0  0  0  0  0  0  0  0  0
   -0.0012   -1.3824   -0.0390 C   0  0  0  0  0  0  0  0  0  0  0  0
    0.0015   -2.3858   -0.0962 H   0  0  0  0  0  0  0  0  0  0  0  0
    1.2090   -0.6906    0.0000 C   0  0  0  0  0  0  0  0  0  0  0  0
    2.0832   -1.1991    0.0301 H   0  0  0  0  0  0  0  0  0  0  0  0
    1.2122    0.6923   -0.0007 C   0  0  0  0  0  0  0  0  0  0  0  0
    2.0708    1.1935   -0.0211 H   0  0  0  0  0  0  0  0  0  0  0  0
  1  5  1  0
  5  8  1  0
  1  2  1  0
  1  3  1  0
  1  4  1  0
  5  6  1  0
  5  7  1  0
  8  9  1  0
  8 10  1  0
  8 11  1  0
 12 16  1  0
 16 17  2  0
 17 19  1  0
 19 21  2  0
 21 23  1  0
 23 25  2  0
 25 16  1  0
 12 13  1  0
 12 14  1  0
 12 15  1  0
 17 18  1  0
 19 20  1  0
 21 22  1  0
 23 24  1  0
 25 26  1  0
M  CHG  1   8   1
M  END
>  <PDB_ID>  (3464) 
pdb5wbf

>  <RESIDUE_NAME>  (3464) 
LYS   PHE

>  <FRAG_NAME>  (3464) 
ETAM   MBZ

>  <FRAG_ATOM_NUM>  (3464) 
fragi: 11  fragj: 15

>  <atom.prop.CHAIN_ID>  (3464) 
A A A A A A A A A A A Z Z Z Z Z Z Z Z Z Z Z Z Z Z Z

>  <atom.prop.IS_HEAVY_ATOM>  (3464) 
1 0 0 0 1 0 0 1 0 0 0 1 0 0 0 1 1 0 1 0 1 0 1 0 1 0

>  <DIFUSE_FUNC_ATOM>  (3464) 
n/a

>  <FINAL_SINGLE_POINT_ENERGY>  (3464) 
0

>  <NONCOV_INTER_ENERGY_QM>  (3464) 
0

>  <FF_Energy>  (3464) 
-4.05

>  <QM_Energy>  (3464) 
-9.96

>  <source>  (3464) 
ETAM_MBZ

>  <Index>  (3464) 
38197

$$$$
ETAM-pdb5wb4-G-LYS-75:MBZ-pdb5wb4-G-PHE-72
     RDKit          3D

 26 25  0  0  0  0  0  0  0  0999 V2000
   -2.4160    1.2199    3.7615 C   0  0  0  0  0  0  0  0  0  0  0  0
   -1.7284    0.8069    3.1640 H   0  0  0  0  0  0  0  0  0  0  0  0
   -2.9297    0.4998    4.2279 H   0  0  0  0  0  0  0  0  0  0  0  0
   -1.9087    1.8286    4.5101 H   0  0  0  0  0  0  0  0  0  0  0  0
   -3.3743    2.0254    2.9127 C   0  0  0  0  0  0  0  0  0  0  0  0
   -4.0677    2.4391    3.5031 H   0  0  0  0  0  0  0  0  0  0  0  0
   -2.8671    2.7457    2.4396 H   0  0  0  0  0  0  0  0  0  0  0  0
   -4.0405    1.1577    1.9088 N   0  0  0  0  0  4  0  0  0  0  0  0
   -4.7230    1.6902    1.4079 H   0  0  0  0  0  0  0  0  0  0  0  0
   -3.3583    0.8031    1.2700 H   0  0  0  0  0  0  0  0  0  0  0  0
   -4.4906    0.3945    2.3744 H   0  0  0  0  0  0  0  0  0  0  0  0
   -0.0022    2.9206    0.0512 C   0  0  0  0  0  0  0  0  0  0  0  0
   -0.7986    3.2398   -0.4386 H   0  0  0  0  0  0  0  0  0  0  0  0
    0.8329    3.2401   -0.3700 H   0  0  0  0  0  0  0  0  0  0  0  0
   -0.0448    3.3396    1.0566 H   0  0  0  0  0  0  0  0  0  0  0  0
    0.0001    1.4106    0.0071 C   0  0  0  0  0  0  0  0  0  0  0  0
   -1.1964    0.6933   -0.0145 C   0  0  0  0  0  0  0  0  0  0  0  0
   -2.0652    1.1744   -0.0418 H   0  0  0  0  0  0  0  0  0  0  0  0
   -1.1950   -0.7098   -0.0000 C   0  0  0  0  0  0  0  0  0  0  0  0
   -2.0733   -1.1986    0.0129 H   0  0  0  0  0  0  0  0  0  0  0  0
    0.0020   -1.3942   -0.0020 C   0  0  0  0  0  0  0  0  0  0  0  0
    0.0027   -2.3977   -0.0052 H   0  0  0  0  0  0  0  0  0  0  0  0
    1.1950   -0.7006    0.0000 C   0  0  0  0  0  0  0  0  0  0  0  0
    2.0811   -1.1918   -0.0035 H   0  0  0  0  0  0  0  0  0  0  0  0
    1.1942    0.7007    0.0095 C   0  0  0  0  0  0  0  0  0  0  0  0
    2.0647    1.1898    0.0171 H   0  0  0  0  0  0  0  0  0  0  0  0
  1  5  1  0
  5  8  1  0
  1  2  1  0
  1  3  1  0
  1  4  1  0
  5  6  1  0
  5  7  1  0
  8  9  1  0
  8 10  1  0
  8 11  1  0
 12 16  1  0
 16 17  2  0
 17 19  1  0
 19 21  2  0
 21 23  1  0
 23 25  2  0
 25 16  1  0
 12 13  1  0
 12 14  1  0
 12 15  1  0
 17 18  1  0
 19 20  1  0
 21 22  1  0
 23 24  1  0
 25 26  1  0
M  CHG  1   8   1
M  END
>  <PDB_ID>  (3465) 
pdb5wb4

>  <RESIDUE_NAME>  (3465) 
LYS   PHE

>  <FRAG_NAME>  (3465) 
ETAM   MBZ

>  <FRAG_ATOM_NUM>  (3465) 
fragi: 11  fragj: 15

>  <atom.prop.CHAIN_ID>  (3465) 
A A A A A A A A A A A Z Z Z Z Z Z Z Z Z Z Z Z Z Z Z

>  <atom.prop.IS_HEAVY_ATOM>  (3465) 
1 0 0 0 1 0 0 1 0 0 0 1 0 0 0 1 1 0 1 0 1 0 1 0 1 0

>  <DIFUSE_FUNC_ATOM>  (3465) 
n/a

>  <FINAL_SINGLE_POINT_ENERGY>  (3465) 
0

>  <NONCOV_INTER_ENERGY_QM>  (3465) 
0

>  <FF_Energy>  (3465) 
-1.34

>  <QM_Energy>  (3465) 
-6.76

>  <source>  (3465) 
ETAM_MBZ

>  <Index>  (3465) 
38198

$$$$
ETAM-pdb5wgg-A-LYS-48:MBZ-pdb5wgg-A-PHE-40
     RDKit          3D

 26 25  0  0  0  0  0  0  0  0999 V2000
   -1.0527    0.1386    4.0242 C   0  0  0  0  0  0  0  0  0  0  0  0
   -1.6756   -0.3068    3.3912 H   0  0  0  0  0  0  0  0  0  0  0  0
   -0.8913    1.0803    3.7511 H   0  0  0  0  0  0  0  0  0  0  0  0
   -1.4983    0.1313    5.0190 H   0  0  0  0  0  0  0  0  0  0  0  0
    0.2599   -0.6033    4.0214 C   0  0  0  0  0  0  0  0  0  0  0  0
    0.9470   -0.0585    3.5334 H   0  0  0  0  0  0  0  0  0  0  0  0
    0.5656   -0.7379    4.9676 H   0  0  0  0  0  0  0  0  0  0  0  0
    0.1343   -1.9294    3.3597 N   0  0  0  0  0  4  0  0  0  0  0  0
   -0.2138   -1.8055    2.4304 H   0  0  0  0  0  0  0  0  0  0  0  0
    1.0310   -2.3698    3.3256 H   0  0  0  0  0  0  0  0  0  0  0  0
   -0.4991   -2.5011    3.8798 H   0  0  0  0  0  0  0  0  0  0  0  0
   -0.0076    2.8982    0.0337 C   0  0  0  0  0  0  0  0  0  0  0  0
    0.8464    3.1984    0.4339 H   0  0  0  0  0  0  0  0  0  0  0  0
   -0.7805    3.1874    0.5800 H   0  0  0  0  0  0  0  0  0  0  0  0
   -0.0991    3.3676   -0.9459 H   0  0  0  0  0  0  0  0  0  0  0  0
   -0.0012    1.3965   -0.0055 C   0  0  0  0  0  0  0  0  0  0  0  0
   -1.1903    0.6913    0.0035 C   0  0  0  0  0  0  0  0  0  0  0  0
   -2.0598    1.1839    0.0118 H   0  0  0  0  0  0  0  0  0  0  0  0
   -1.1988   -0.6922   -0.0000 C   0  0  0  0  0  0  0  0  0  0  0  0
   -2.0792   -1.1846    0.0031 H   0  0  0  0  0  0  0  0  0  0  0  0
   -0.0066   -1.3873   -0.0060 C   0  0  0  0  0  0  0  0  0  0  0  0
   -0.0105   -2.3886   -0.0156 H   0  0  0  0  0  0  0  0  0  0  0  0
    1.1988   -0.6971    0.0000 C   0  0  0  0  0  0  0  0  0  0  0  0
    2.0763   -1.2006    0.0002 H   0  0  0  0  0  0  0  0  0  0  0  0
    1.1980    0.6888    0.0081 C   0  0  0  0  0  0  0  0  0  0  0  0
    2.0637    1.1871    0.0232 H   0  0  0  0  0  0  0  0  0  0  0  0
  1  5  1  0
  5  8  1  0
  1  2  1  0
  1  3  1  0
  1  4  1  0
  5  6  1  0
  5  7  1  0
  8  9  1  0
  8 10  1  0
  8 11  1  0
 12 16  1  0
 16 17  2  0
 17 19  1  0
 19 21  2  0
 21 23  1  0
 23 25  2  0
 25 16  1  0
 12 13  1  0
 12 14  1  0
 12 15  1  0
 17 18  1  0
 19 20  1  0
 21 22  1  0
 23 24  1  0
 25 26  1  0
M  CHG  1   8   1
M  END
>  <PDB_ID>  (3466) 
pdb5wgg

>  <RESIDUE_NAME>  (3466) 
LYS   PHE

>  <FRAG_NAME>  (3466) 
ETAM   MBZ

>  <FRAG_ATOM_NUM>  (3466) 
fragi: 11  fragj: 15

>  <atom.prop.CHAIN_ID>  (3466) 
A A A A A A A A A A A Z Z Z Z Z Z Z Z Z Z Z Z Z Z Z

>  <atom.prop.IS_HEAVY_ATOM>  (3466) 
1 0 0 0 1 0 0 1 0 0 0 1 0 0 0 1 1 0 1 0 1 0 1 0 1 0

>  <DIFUSE_FUNC_ATOM>  (3466) 
n/a

>  <FINAL_SINGLE_POINT_ENERGY>  (3466) 
0

>  <NONCOV_INTER_ENERGY_QM>  (3466) 
0

>  <FF_Energy>  (3466) 
-6.32

>  <QM_Energy>  (3466) 
-13.47

>  <source>  (3466) 
ETAM_MBZ

>  <Index>  (3466) 
38233

$$$$
ETAM-pdb5wh8-A-LYS-203:MBZ-pdb5wh8-A-PHE-200
     RDKit          3D

 26 25  0  0  0  0  0  0  0  0999 V2000
   -1.3920   -0.2579    5.8923 C   0  0  0  0  0  0  0  0  0  0  0  0
   -2.1838   -0.7497    6.1614 H   0  0  0  0  0  0  0  0  0  0  0  0
   -1.6264    0.6580    5.6765 H   0  0  0  0  0  0  0  0  0  0  0  0
   -0.6765   -0.2585    6.7145 H   0  0  0  0  0  0  0  0  0  0  0  0
   -0.8306   -0.9123    4.6380 C   0  0  0  0  0  0  0  0  0  0  0  0
    0.0712   -0.5902    4.4824 H   0  0  0  0  0  0  0  0  0  0  0  0
   -0.8299   -1.8759    4.7504 H   0  0  0  0  0  0  0  0  0  0  0  0
   -1.6584   -0.5809    3.4427 N   0  0  0  0  0  4  0  0  0  0  0  0
   -1.3173   -0.9704    2.7183 H   0  0  0  0  0  0  0  0  0  0  0  0
   -2.4924   -0.8696    3.5607 H   0  0  0  0  0  0  0  0  0  0  0  0
   -1.6724    0.2998    3.3174 H   0  0  0  0  0  0  0  0  0  0  0  0
   -0.0035    2.9107    0.0096 C   0  0  0  0  0  0  0  0  0  0  0  0
   -0.6379    3.2116   -0.6607 H   0  0  0  0  0  0  0  0  0  0  0  0
    0.8881    3.2114   -0.2227 H   0  0  0  0  0  0  0  0  0  0  0  0
   -0.2806    3.3387    0.9729 H   0  0  0  0  0  0  0  0  0  0  0  0
   -0.0011    1.4019   -0.0002 C   0  0  0  0  0  0  0  0  0  0  0  0
   -1.1944    0.6937    0.0014 C   0  0  0  0  0  0  0  0  0  0  0  0
   -2.0030    1.1545    0.0032 H   0  0  0  0  0  0  0  0  0  0  0  0
   -1.1982   -0.6967    0.0000 C   0  0  0  0  0  0  0  0  0  0  0  0
   -2.0046   -1.1590   -0.0003 H   0  0  0  0  0  0  0  0  0  0  0  0
    0.0013   -1.3922   -0.0001 C   0  0  0  0  0  0  0  0  0  0  0  0
    0.0004   -2.3229   -0.0031 H   0  0  0  0  0  0  0  0  0  0  0  0
    1.1982   -0.6986   -0.0000 C   0  0  0  0  0  0  0  0  0  0  0  0
    2.0045   -1.1618   -0.0013 H   0  0  0  0  0  0  0  0  0  0  0  0
    1.1942    0.6919   -0.0011 C   0  0  0  0  0  0  0  0  0  0  0  0
    2.0016    1.1540    0.0012 H   0  0  0  0  0  0  0  0  0  0  0  0
  1  5  1  0
  5  8  1  0
  1  2  1  0
  1  3  1  0
  1  4  1  0
  5  6  1  0
  5  7  1  0
  8  9  1  0
  8 10  1  0
  8 11  1  0
 12 16  1  0
 16 17  2  0
 17 19  1  0
 19 21  2  0
 21 23  1  0
 23 25  2  0
 25 16  1  0
 12 13  1  0
 12 14  1  0
 12 15  1  0
 17 18  1  0
 19 20  1  0
 21 22  1  0
 23 24  1  0
 25 26  1  0
M  CHG  1   8   1
M  END
>  <PDB_ID>  (3467) 
pdb5wh8

>  <RESIDUE_NAME>  (3467) 
LYS   PHE

>  <FRAG_NAME>  (3467) 
ETAM   MBZ

>  <FRAG_ATOM_NUM>  (3467) 
fragi: 11  fragj: 15

>  <atom.prop.CHAIN_ID>  (3467) 
A A A A A A A A A A A Z Z Z Z Z Z Z Z Z Z Z Z Z Z Z

>  <atom.prop.IS_HEAVY_ATOM>  (3467) 
1 0 0 0 1 0 0 1 0 0 0 1 0 0 0 1 1 0 1 0 1 0 1 0 1 0

>  <DIFUSE_FUNC_ATOM>  (3467) 
n/a

>  <FINAL_SINGLE_POINT_ENERGY>  (3467) 
0

>  <NONCOV_INTER_ENERGY_QM>  (3467) 
0

>  <FF_Energy>  (3467) 
-5.18

>  <QM_Energy>  (3467) 
-11.18

>  <source>  (3467) 
ETAM_MBZ

>  <Index>  (3467) 
38239

$$$$
ETAM-pdb5whu-I-LYS-48:MBZ-pdb5whu-I-PHE-75
     RDKit          3D

 26 25  0  0  0  0  0  0  0  0999 V2000
   -1.4281   -2.9013   -3.6123 C   0  0  0  0  0  0  0  0  0  0  0  0
   -0.7757   -2.5455   -4.2791 H   0  0  0  0  0  0  0  0  0  0  0  0
   -2.2320   -3.2591   -4.0833 H   0  0  0  0  0  0  0  0  0  0  0  0
   -0.9549   -3.7153   -3.0632 H   0  0  0  0  0  0  0  0  0  0  0  0
   -1.8669   -1.7570   -2.7039 C   0  0  0  0  0  0  0  0  0  0  0  0
   -2.5294   -2.1083   -2.0352 H   0  0  0  0  0  0  0  0  0  0  0  0
   -1.0649   -1.4084   -2.2096 H   0  0  0  0  0  0  0  0  0  0  0  0
   -2.4957   -0.6308   -3.4666 N   0  0  0  0  0  4  0  0  0  0  0  0
   -1.8373   -0.2758   -4.1276 H   0  0  0  0  0  0  0  0  0  0  0  0
   -3.3043   -0.9702   -3.9434 H   0  0  0  0  0  0  0  0  0  0  0  0
   -2.7568    0.0903   -2.8278 H   0  0  0  0  0  0  0  0  0  0  0  0
    0.0037    2.8934    0.0284 C   0  0  0  0  0  0  0  0  0  0  0  0
    0.9228    3.1952    0.2482 H   0  0  0  0  0  0  0  0  0  0  0  0
   -0.6401    3.1884    0.7234 H   0  0  0  0  0  0  0  0  0  0  0  0
   -0.2840    3.3676   -0.9099 H   0  0  0  0  0  0  0  0  0  0  0  0
    0.0007    1.3958   -0.0050 C   0  0  0  0  0  0  0  0  0  0  0  0
   -1.1974    0.6905    0.0048 C   0  0  0  0  0  0  0  0  0  0  0  0
   -2.0627    1.1824    0.0138 H   0  0  0  0  0  0  0  0  0  0  0  0
   -1.2009   -0.6977   -0.0000 C   0  0  0  0  0  0  0  0  0  0  0  0
   -2.0762   -1.1925   -0.0010 H   0  0  0  0  0  0  0  0  0  0  0  0
   -0.0002   -1.3889   -0.0016 C   0  0  0  0  0  0  0  0  0  0  0  0
    0.0010   -2.3881   -0.0050 H   0  0  0  0  0  0  0  0  0  0  0  0
    1.2009   -0.6893   -0.0000 C   0  0  0  0  0  0  0  0  0  0  0  0
    2.0818   -1.1931    0.0013 H   0  0  0  0  0  0  0  0  0  0  0  0
    1.1968    0.6896    0.0018 C   0  0  0  0  0  0  0  0  0  0  0  0
    2.0639    1.1912    0.0075 H   0  0  0  0  0  0  0  0  0  0  0  0
  1  5  1  0
  5  8  1  0
  1  2  1  0
  1  3  1  0
  1  4  1  0
  5  6  1  0
  5  7  1  0
  8  9  1  0
  8 10  1  0
  8 11  1  0
 12 16  1  0
 16 17  2  0
 17 19  1  0
 19 21  2  0
 21 23  1  0
 23 25  2  0
 25 16  1  0
 12 13  1  0
 12 14  1  0
 12 15  1  0
 17 18  1  0
 19 20  1  0
 21 22  1  0
 23 24  1  0
 25 26  1  0
M  CHG  1   8   1
M  END
>  <PDB_ID>  (3468) 
pdb5whu

>  <RESIDUE_NAME>  (3468) 
LYS   PHE

>  <FRAG_NAME>  (3468) 
ETAM   MBZ

>  <FRAG_ATOM_NUM>  (3468) 
fragi: 11  fragj: 15

>  <atom.prop.CHAIN_ID>  (3468) 
A A A A A A A A A A A Z Z Z Z Z Z Z Z Z Z Z Z Z Z Z

>  <atom.prop.IS_HEAVY_ATOM>  (3468) 
1 0 0 0 1 0 0 1 0 0 0 1 0 0 0 1 1 0 1 0 1 0 1 0 1 0

>  <DIFUSE_FUNC_ATOM>  (3468) 
n/a

>  <FINAL_SINGLE_POINT_ENERGY>  (3468) 
0

>  <NONCOV_INTER_ENERGY_QM>  (3468) 
0

>  <FF_Energy>  (3468) 
1.84

>  <QM_Energy>  (3468) 
-5.33

>  <source>  (3468) 
ETAM_MBZ

>  <Index>  (3468) 
38265

$$$$
ETAM-pdb5wq3-C-LYS-161:MBZ-pdb5wq3-C-PHE-61
     RDKit          3D

 26 25  0  0  0  0  0  0  0  0999 V2000
   -2.3643   -0.8595    3.6799 C   0  0  0  0  0  0  0  0  0  0  0  0
   -2.1294   -1.7328    3.2748 H   0  0  0  0  0  0  0  0  0  0  0  0
   -2.6810   -0.2222    2.9906 H   0  0  0  0  0  0  0  0  0  0  0  0
   -3.1575   -1.0120    4.4119 H   0  0  0  0  0  0  0  0  0  0  0  0
   -1.1265   -0.2816    4.3466 C   0  0  0  0  0  0  0  0  0  0  0  0
   -1.3978    0.4984    4.9122 H   0  0  0  0  0  0  0  0  0  0  0  0
   -0.7140   -0.9839    4.9294 H   0  0  0  0  0  0  0  0  0  0  0  0
   -0.1352    0.1635    3.3374 N   0  0  0  0  0  4  0  0  0  0  0  0
    0.3552   -0.6309    2.9773 H   0  0  0  0  0  0  0  0  0  0  0  0
   -0.6068    0.6305    2.5884 H   0  0  0  0  0  0  0  0  0  0  0  0
    0.5161    0.7922    3.7630 H   0  0  0  0  0  0  0  0  0  0  0  0
    0.0726    2.9182   -0.0086 C   0  0  0  0  0  0  0  0  0  0  0  0
    0.6664    3.2047   -0.7482 H   0  0  0  0  0  0  0  0  0  0  0  0
    0.4269    3.2147    0.8677 H   0  0  0  0  0  0  0  0  0  0  0  0
   -0.8847    3.4188   -0.1536 H   0  0  0  0  0  0  0  0  0  0  0  0
    0.0192    1.4023   -0.0071 C   0  0  0  0  0  0  0  0  0  0  0  0
   -1.2036    0.6858    0.0074 C   0  0  0  0  0  0  0  0  0  0  0  0
   -2.0550    1.2016    0.0222 H   0  0  0  0  0  0  0  0  0  0  0  0
   -1.2107   -0.6747    0.0000 C   0  0  0  0  0  0  0  0  0  0  0  0
   -2.0955   -1.1782   -0.0084 H   0  0  0  0  0  0  0  0  0  0  0  0
   -0.0200   -1.3996    0.0058 C   0  0  0  0  0  0  0  0  0  0  0  0
   -0.0278   -2.3871    0.0136 H   0  0  0  0  0  0  0  0  0  0  0  0
    1.2107   -0.6983   -0.0000 C   0  0  0  0  0  0  0  0  0  0  0  0
    2.0753   -1.2098    0.0020 H   0  0  0  0  0  0  0  0  0  0  0  0
    1.2044    0.6844   -0.0060 C   0  0  0  0  0  0  0  0  0  0  0  0
    2.0795    1.1816   -0.0107 H   0  0  0  0  0  0  0  0  0  0  0  0
  1  5  1  0
  5  8  1  0
  1  2  1  0
  1  3  1  0
  1  4  1  0
  5  6  1  0
  5  7  1  0
  8  9  1  0
  8 10  1  0
  8 11  1  0
 12 16  1  0
 16 17  2  0
 17 19  1  0
 19 21  2  0
 21 23  1  0
 23 25  2  0
 25 16  1  0
 12 13  1  0
 12 14  1  0
 12 15  1  0
 17 18  1  0
 19 20  1  0
 21 22  1  0
 23 24  1  0
 25 26  1  0
M  CHG  1   8   1
M  END
>  <PDB_ID>  (3469) 
pdb5wq3

>  <RESIDUE_NAME>  (3469) 
LYS   PHE

>  <FRAG_NAME>  (3469) 
ETAM   MBZ

>  <FRAG_ATOM_NUM>  (3469) 
fragi: 11  fragj: 15

>  <atom.prop.CHAIN_ID>  (3469) 
A A A A A A A A A A A Z Z Z Z Z Z Z Z Z Z Z Z Z Z Z

>  <atom.prop.IS_HEAVY_ATOM>  (3469) 
1 0 0 0 1 0 0 1 0 0 0 1 0 0 0 1 1 0 1 0 1 0 1 0 1 0

>  <DIFUSE_FUNC_ATOM>  (3469) 
n/a

>  <FINAL_SINGLE_POINT_ENERGY>  (3469) 
0

>  <NONCOV_INTER_ENERGY_QM>  (3469) 
0

>  <FF_Energy>  (3469) 
-9.12

>  <QM_Energy>  (3469) 
-15.93

>  <source>  (3469) 
ETAM_MBZ

>  <Index>  (3469) 
38308

$$$$
ETAM-pdb5wnl-A-LYS-51:MBZ-pdb5wnl-A-PHE-33
     RDKit          3D

 26 25  0  0  0  0  0  0  0  0999 V2000
    2.0439    3.3087   -3.1945 C   0  0  0  0  0  0  0  0  0  0  0  0
    1.3528    3.0554   -2.5253 H   0  0  0  0  0  0  0  0  0  0  0  0
    1.8607    2.8677   -4.0665 H   0  0  0  0  0  0  0  0  0  0  0  0
    2.0158    4.3893   -3.3348 H   0  0  0  0  0  0  0  0  0  0  0  0
    3.4037    2.8434   -2.6896 C   0  0  0  0  0  0  0  0  0  0  0  0
    4.0636    2.8926   -3.4473 H   0  0  0  0  0  0  0  0  0  0  0  0
    3.7071    3.4654   -1.9606 H   0  0  0  0  0  0  0  0  0  0  0  0
    3.3623    1.4565   -2.1646 N   0  0  0  0  0  4  0  0  0  0  0  0
    3.3415    1.4788   -1.1652 H   0  0  0  0  0  0  0  0  0  0  0  0
    2.5423    0.9950   -2.5050 H   0  0  0  0  0  0  0  0  0  0  0  0
    4.1749    0.9589   -2.4704 H   0  0  0  0  0  0  0  0  0  0  0  0
   -0.0092    2.8943   -0.0257 C   0  0  0  0  0  0  0  0  0  0  0  0
   -0.8214    3.1916   -0.5281 H   0  0  0  0  0  0  0  0  0  0  0  0
    0.8114    3.2039   -0.5084 H   0  0  0  0  0  0  0  0  0  0  0  0
   -0.0247    3.3924    0.9437 H   0  0  0  0  0  0  0  0  0  0  0  0
    0.0016    1.3993   -0.0072 C   0  0  0  0  0  0  0  0  0  0  0  0
   -1.1986    0.6921   -0.0085 C   0  0  0  0  0  0  0  0  0  0  0  0
   -2.0640    1.1932   -0.0176 H   0  0  0  0  0  0  0  0  0  0  0  0
   -1.2197   -0.6928    0.0000 C   0  0  0  0  0  0  0  0  0  0  0  0
   -2.0880   -1.1860   -0.0103 H   0  0  0  0  0  0  0  0  0  0  0  0
   -0.0063   -1.3905    0.0255 C   0  0  0  0  0  0  0  0  0  0  0  0
   -0.0109   -2.3901    0.0621 H   0  0  0  0  0  0  0  0  0  0  0  0
    1.2197   -0.7004    0.0000 C   0  0  0  0  0  0  0  0  0  0  0  0
    2.0851   -1.2002   -0.0093 H   0  0  0  0  0  0  0  0  0  0  0  0
    1.2034    0.6924   -0.0097 C   0  0  0  0  0  0  0  0  0  0  0  0
    2.0687    1.1950   -0.0187 H   0  0  0  0  0  0  0  0  0  0  0  0
  1  5  1  0
  5  8  1  0
  1  2  1  0
  1  3  1  0
  1  4  1  0
  5  6  1  0
  5  7  1  0
  8  9  1  0
  8 10  1  0
  8 11  1  0
 12 16  1  0
 16 17  2  0
 17 19  1  0
 19 21  2  0
 21 23  1  0
 23 25  2  0
 25 16  1  0
 12 13  1  0
 12 14  1  0
 12 15  1  0
 17 18  1  0
 19 20  1  0
 21 22  1  0
 23 24  1  0
 25 26  1  0
M  CHG  1   8   1
M  END
>  <PDB_ID>  (3470) 
pdb5wnl

>  <RESIDUE_NAME>  (3470) 
LYS   PHE

>  <FRAG_NAME>  (3470) 
ETAM   MBZ

>  <FRAG_ATOM_NUM>  (3470) 
fragi: 11  fragj: 15

>  <atom.prop.CHAIN_ID>  (3470) 
A A A A A A A A A A A Z Z Z Z Z Z Z Z Z Z Z Z Z Z Z

>  <atom.prop.IS_HEAVY_ATOM>  (3470) 
1 0 0 0 1 0 0 1 0 0 0 1 0 0 0 1 1 0 1 0 1 0 1 0 1 0

>  <DIFUSE_FUNC_ATOM>  (3470) 
n/a

>  <FINAL_SINGLE_POINT_ENERGY>  (3470) 
0

>  <NONCOV_INTER_ENERGY_QM>  (3470) 
0

>  <FF_Energy>  (3470) 
-0.08

>  <QM_Energy>  (3470) 
-5.16

>  <source>  (3470) 
ETAM_MBZ

>  <Index>  (3470) 
38311

$$$$
ETAM-pdb5wq3-C-LYS-156:MBZ-pdb5wq3-C-PHE-152
     RDKit          3D

 26 25  0  0  0  0  0  0  0  0999 V2000
    3.5280    0.2857    2.9699 C   0  0  0  0  0  0  0  0  0  0  0  0
    3.1209    0.9428    2.3331 H   0  0  0  0  0  0  0  0  0  0  0  0
    4.4039    0.6427    3.2978 H   0  0  0  0  0  0  0  0  0  0  0  0
    2.8609    0.1886    3.8264 H   0  0  0  0  0  0  0  0  0  0  0  0
    3.7823   -1.0263    2.2232 C   0  0  0  0  0  0  0  0  0  0  0  0
    3.9116   -1.7620    2.8944 H   0  0  0  0  0  0  0  0  0  0  0  0
    2.9780   -1.2416    1.6603 H   0  0  0  0  0  0  0  0  0  0  0  0
    4.9956   -0.9651    1.3310 N   0  0  0  0  0  4  0  0  0  0  0  0
    5.8004   -0.7946    1.8934 H   0  0  0  0  0  0  0  0  0  0  0  0
    5.0888   -1.8353    0.8537 H   0  0  0  0  0  0  0  0  0  0  0  0
    4.8749   -0.2259    0.6734 H   0  0  0  0  0  0  0  0  0  0  0  0
    0.0006    2.8779   -0.0080 C   0  0  0  0  0  0  0  0  0  0  0  0
   -0.6144    3.1891   -0.7288 H   0  0  0  0  0  0  0  0  0  0  0  0
    0.9287    3.1914   -0.1951 H   0  0  0  0  0  0  0  0  0  0  0  0
   -0.3196    3.3570    0.9172 H   0  0  0  0  0  0  0  0  0  0  0  0
   -0.0057    1.4062    0.0152 C   0  0  0  0  0  0  0  0  0  0  0  0
   -1.2032    0.7032   -0.0266 C   0  0  0  0  0  0  0  0  0  0  0  0
   -2.0675    1.1900   -0.0772 H   0  0  0  0  0  0  0  0  0  0  0  0
   -1.2086   -0.6938   -0.0000 C   0  0  0  0  0  0  0  0  0  0  0  0
   -2.0814   -1.1877    0.0161 H   0  0  0  0  0  0  0  0  0  0  0  0
    0.0039   -1.3975    0.0062 C   0  0  0  0  0  0  0  0  0  0  0  0
   -0.0098   -2.3961    0.0143 H   0  0  0  0  0  0  0  0  0  0  0  0
    1.2086   -0.7084   -0.0000 C   0  0  0  0  0  0  0  0  0  0  0  0
    2.0871   -1.2033   -0.0068 H   0  0  0  0  0  0  0  0  0  0  0  0
    1.2050    0.6903    0.0052 C   0  0  0  0  0  0  0  0  0  0  0  0
    2.0670    1.1876    0.0009 H   0  0  0  0  0  0  0  0  0  0  0  0
  1  5  1  0
  5  8  1  0
  1  2  1  0
  1  3  1  0
  1  4  1  0
  5  6  1  0
  5  7  1  0
  8  9  1  0
  8 10  1  0
  8 11  1  0
 12 16  1  0
 16 17  2  0
 17 19  1  0
 19 21  2  0
 21 23  1  0
 23 25  2  0
 25 16  1  0
 12 13  1  0
 12 14  1  0
 12 15  1  0
 17 18  1  0
 19 20  1  0
 21 22  1  0
 23 24  1  0
 25 26  1  0
M  CHG  1   8   1
M  END
>  <PDB_ID>  (3471) 
pdb5wq3

>  <RESIDUE_NAME>  (3471) 
LYS   PHE

>  <FRAG_NAME>  (3471) 
ETAM   MBZ

>  <FRAG_ATOM_NUM>  (3471) 
fragi: 11  fragj: 15

>  <atom.prop.CHAIN_ID>  (3471) 
A A A A A A A A A A A Z Z Z Z Z Z Z Z Z Z Z Z Z Z Z

>  <atom.prop.IS_HEAVY_ATOM>  (3471) 
1 0 0 0 1 0 0 1 0 0 0 1 0 0 0 1 1 0 1 0 1 0 1 0 1 0

>  <DIFUSE_FUNC_ATOM>  (3471) 
n/a

>  <FINAL_SINGLE_POINT_ENERGY>  (3471) 
0

>  <NONCOV_INTER_ENERGY_QM>  (3471) 
0

>  <FF_Energy>  (3471) 
2.42

>  <QM_Energy>  (3471) 
-3.17

>  <source>  (3471) 
ETAM_MBZ

>  <Index>  (3471) 
38315

$$$$
ETAM-pdb5wql-D-LYS-374:MBZ-pdb5wql-D-PHE-437
     RDKit          3D

 26 25  0  0  0  0  0  0  0  0999 V2000
   -0.4320   -1.0346   -4.1705 C   0  0  0  0  0  0  0  0  0  0  0  0
   -0.7929   -0.2416   -4.6607 H   0  0  0  0  0  0  0  0  0  0  0  0
   -0.0153   -1.6682   -4.8210 H   0  0  0  0  0  0  0  0  0  0  0  0
    0.3293   -0.6982   -3.4666 H   0  0  0  0  0  0  0  0  0  0  0  0
   -1.5544   -1.7257   -3.4705 C   0  0  0  0  0  0  0  0  0  0  0  0
   -2.0174   -2.3400   -4.1059 H   0  0  0  0  0  0  0  0  0  0  0  0
   -1.1967   -2.2453   -2.6973 H   0  0  0  0  0  0  0  0  0  0  0  0
   -2.5128   -0.7193   -2.9793 N   0  0  0  0  0  4  0  0  0  0  0  0
   -2.9437   -0.2547   -3.7554 H   0  0  0  0  0  0  0  0  0  0  0  0
   -3.2214   -1.1659   -2.4286 H   0  0  0  0  0  0  0  0  0  0  0  0
   -2.0354   -0.0432   -2.4153 H   0  0  0  0  0  0  0  0  0  0  0  0
   -0.0044    2.8414   -0.0150 C   0  0  0  0  0  0  0  0  0  0  0  0
   -0.5936    3.1456   -0.7573 H   0  0  0  0  0  0  0  0  0  0  0  0
    0.9279    3.1558   -0.1630 H   0  0  0  0  0  0  0  0  0  0  0  0
   -0.3688    3.2862    0.9110 H   0  0  0  0  0  0  0  0  0  0  0  0
   -0.0009    1.3738    0.0011 C   0  0  0  0  0  0  0  0  0  0  0  0
   -1.1739    0.6860   -0.0097 C   0  0  0  0  0  0  0  0  0  0  0  0
   -2.0480    1.1768   -0.0266 H   0  0  0  0  0  0  0  0  0  0  0  0
   -1.1819   -0.6871   -0.0000 C   0  0  0  0  0  0  0  0  0  0  0  0
   -2.0667   -1.1799    0.0038 H   0  0  0  0  0  0  0  0  0  0  0  0
   -0.0023   -1.3744    0.0058 C   0  0  0  0  0  0  0  0  0  0  0  0
   -0.0039   -2.3787    0.0133 H   0  0  0  0  0  0  0  0  0  0  0  0
    1.1819   -0.6849    0.0000 C   0  0  0  0  0  0  0  0  0  0  0  0
    2.0691   -1.1859   -0.0047 H   0  0  0  0  0  0  0  0  0  0  0  0
    1.1771    0.6866    0.0029 C   0  0  0  0  0  0  0  0  0  0  0  0
    2.0498    1.1852    0.0061 H   0  0  0  0  0  0  0  0  0  0  0  0
  1  5  1  0
  5  8  1  0
  1  2  1  0
  1  3  1  0
  1  4  1  0
  5  6  1  0
  5  7  1  0
  8  9  1  0
  8 10  1  0
  8 11  1  0
 12 16  1  0
 16 17  2  0
 17 19  1  0
 19 21  2  0
 21 23  1  0
 23 25  2  0
 25 16  1  0
 12 13  1  0
 12 14  1  0
 12 15  1  0
 17 18  1  0
 19 20  1  0
 21 22  1  0
 23 24  1  0
 25 26  1  0
M  CHG  1   8   1
M  END
>  <PDB_ID>  (3472) 
pdb5wql

>  <RESIDUE_NAME>  (3472) 
LYS   PHE

>  <FRAG_NAME>  (3472) 
ETAM   MBZ

>  <FRAG_ATOM_NUM>  (3472) 
fragi: 11  fragj: 15

>  <atom.prop.CHAIN_ID>  (3472) 
A A A A A A A A A A A Z Z Z Z Z Z Z Z Z Z Z Z Z Z Z

>  <atom.prop.IS_HEAVY_ATOM>  (3472) 
1 0 0 0 1 0 0 1 0 0 0 1 0 0 0 1 1 0 1 0 1 0 1 0 1 0

>  <DIFUSE_FUNC_ATOM>  (3472) 
n/a

>  <FINAL_SINGLE_POINT_ENERGY>  (3472) 
0

>  <NONCOV_INTER_ENERGY_QM>  (3472) 
0

>  <FF_Energy>  (3472) 
-4.69

>  <QM_Energy>  (3472) 
-11.53

>  <source>  (3472) 
ETAM_MBZ

>  <Index>  (3472) 
38324

$$$$
ETAM-pdb5wri-A-LYS-165:MBZ-pdb5wri-D-PHE-1008
     RDKit          3D

 26 25  0  0  0  0  0  0  0  0999 V2000
   -4.6624    0.1392    1.0430 C   0  0  0  0  0  0  0  0  0  0  0  0
   -3.9954    0.3487    0.3310 H   0  0  0  0  0  0  0  0  0  0  0  0
   -4.8745    0.9662    1.5597 H   0  0  0  0  0  0  0  0  0  0  0  0
   -5.5764   -0.2149    0.5662 H   0  0  0  0  0  0  0  0  0  0  0  0
   -4.0489   -0.8875    1.9979 C   0  0  0  0  0  0  0  0  0  0  0  0
   -4.7807   -1.2651    2.5757 H   0  0  0  0  0  0  0  0  0  0  0  0
   -3.6543   -1.6359    1.4532 H   0  0  0  0  0  0  0  0  0  0  0  0
   -2.9907   -0.3030    2.8666 N   0  0  0  0  0  4  0  0  0  0  0  0
   -3.3319   -0.2325    3.8033 H   0  0  0  0  0  0  0  0  0  0  0  0
   -2.1837   -0.8920    2.8473 H   0  0  0  0  0  0  0  0  0  0  0  0
   -2.7495    0.6062    2.5294 H   0  0  0  0  0  0  0  0  0  0  0  0
    0.0054    2.9148   -0.0176 C   0  0  0  0  0  0  0  0  0  0  0  0
   -0.3661    3.2074   -0.8888 H   0  0  0  0  0  0  0  0  0  0  0  0
    0.9435    3.2171    0.0866 H   0  0  0  0  0  0  0  0  0  0  0  0
   -0.5845    3.3836    0.7700 H   0  0  0  0  0  0  0  0  0  0  0  0
   -0.0001    1.4078    0.0056 C   0  0  0  0  0  0  0  0  0  0  0  0
   -1.1957    0.6988   -0.0153 C   0  0  0  0  0  0  0  0  0  0  0  0
   -2.0638    1.1839   -0.0427 H   0  0  0  0  0  0  0  0  0  0  0  0
   -1.2030   -0.7031   -0.0000 C   0  0  0  0  0  0  0  0  0  0  0  0
   -2.0807   -1.1898    0.0100 H   0  0  0  0  0  0  0  0  0  0  0  0
   -0.0022   -1.4001    0.0029 C   0  0  0  0  0  0  0  0  0  0  0  0
   -0.0023   -2.3971    0.0067 H   0  0  0  0  0  0  0  0  0  0  0  0
    1.2030   -0.6991   -0.0000 C   0  0  0  0  0  0  0  0  0  0  0  0
    2.0832   -1.1961   -0.0055 H   0  0  0  0  0  0  0  0  0  0  0  0
    1.1979    0.6956    0.0068 C   0  0  0  0  0  0  0  0  0  0  0  0
    2.0663    1.1911    0.0120 H   0  0  0  0  0  0  0  0  0  0  0  0
  1  5  1  0
  5  8  1  0
  1  2  1  0
  1  3  1  0
  1  4  1  0
  5  6  1  0
  5  7  1  0
  8  9  1  0
  8 10  1  0
  8 11  1  0
 12 16  1  0
 16 17  2  0
 17 19  1  0
 19 21  2  0
 21 23  1  0
 23 25  2  0
 25 16  1  0
 12 13  1  0
 12 14  1  0
 12 15  1  0
 17 18  1  0
 19 20  1  0
 21 22  1  0
 23 24  1  0
 25 26  1  0
M  CHG  1   8   1
M  END
>  <PDB_ID>  (3473) 
pdb5wri

>  <RESIDUE_NAME>  (3473) 
LYS   PHE

>  <FRAG_NAME>  (3473) 
ETAM   MBZ

>  <FRAG_ATOM_NUM>  (3473) 
fragi: 11  fragj: 15

>  <atom.prop.CHAIN_ID>  (3473) 
A A A A A A A A A A A Z Z Z Z Z Z Z Z Z Z Z Z Z Z Z

>  <atom.prop.IS_HEAVY_ATOM>  (3473) 
1 0 0 0 1 0 0 1 0 0 0 1 0 0 0 1 1 0 1 0 1 0 1 0 1 0

>  <DIFUSE_FUNC_ATOM>  (3473) 
n/a

>  <FINAL_SINGLE_POINT_ENERGY>  (3473) 
0

>  <NONCOV_INTER_ENERGY_QM>  (3473) 
0

>  <FF_Energy>  (3473) 
-2.48

>  <QM_Energy>  (3473) 
-8.89

>  <source>  (3473) 
ETAM_MBZ

>  <Index>  (3473) 
38327

$$$$
ETAM-pdb5wtl-B-LYS-218:MBZ-pdb5wtl-D-PHE-362
     RDKit          3D

 26 25  0  0  0  0  0  0  0  0999 V2000
   -1.0586   -0.8041   -3.5594 C   0  0  0  0  0  0  0  0  0  0  0  0
   -1.0372   -0.5193   -2.6069 H   0  0  0  0  0  0  0  0  0  0  0  0
   -1.8296   -0.3876   -4.0288 H   0  0  0  0  0  0  0  0  0  0  0  0
   -0.1353   -0.4859   -4.0436 H   0  0  0  0  0  0  0  0  0  0  0  0
   -1.2200   -2.3168   -3.6103 C   0  0  0  0  0  0  0  0  0  0  0  0
   -2.0861   -2.5658   -3.1655 H   0  0  0  0  0  0  0  0  0  0  0  0
   -1.2578   -2.6075   -4.5717 H   0  0  0  0  0  0  0  0  0  0  0  0
   -0.1001   -3.0270   -2.9307 N   0  0  0  0  0  4  0  0  0  0  0  0
   -0.2188   -4.0131   -3.0402 H   0  0  0  0  0  0  0  0  0  0  0  0
    0.7669   -2.7462   -3.3408 H   0  0  0  0  0  0  0  0  0  0  0  0
   -0.1022   -2.7948   -1.9591 H   0  0  0  0  0  0  0  0  0  0  0  0
    0.0031    2.9025   -0.0032 C   0  0  0  0  0  0  0  0  0  0  0  0
   -0.6709    3.2075   -0.6590 H   0  0  0  0  0  0  0  0  0  0  0  0
    0.9109    3.2059   -0.2502 H   0  0  0  0  0  0  0  0  0  0  0  0
   -0.2452    3.3470    0.9606 H   0  0  0  0  0  0  0  0  0  0  0  0
    0.0006    1.3972    0.0007 C   0  0  0  0  0  0  0  0  0  0  0  0
   -1.1934    0.6918   -0.0009 C   0  0  0  0  0  0  0  0  0  0  0  0
   -2.0602    1.1838   -0.0044 H   0  0  0  0  0  0  0  0  0  0  0  0
   -1.1974   -0.6928   -0.0000 C   0  0  0  0  0  0  0  0  0  0  0  0
   -2.0756   -1.1879    0.0018 H   0  0  0  0  0  0  0  0  0  0  0  0
   -0.0010   -1.3883    0.0007 C   0  0  0  0  0  0  0  0  0  0  0  0
   -0.0066   -2.3888    0.0018 H   0  0  0  0  0  0  0  0  0  0  0  0
    1.1974   -0.6968    0.0000 C   0  0  0  0  0  0  0  0  0  0  0  0
    2.0786   -1.1960    0.0008 H   0  0  0  0  0  0  0  0  0  0  0  0
    1.1937    0.6889   -0.0006 C   0  0  0  0  0  0  0  0  0  0  0  0
    2.0632    1.1869   -0.0026 H   0  0  0  0  0  0  0  0  0  0  0  0
  1  5  1  0
  5  8  1  0
  1  2  1  0
  1  3  1  0
  1  4  1  0
  5  6  1  0
  5  7  1  0
  8  9  1  0
  8 10  1  0
  8 11  1  0
 12 16  1  0
 16 17  2  0
 17 19  1  0
 19 21  2  0
 21 23  1  0
 23 25  2  0
 25 16  1  0
 12 13  1  0
 12 14  1  0
 12 15  1  0
 17 18  1  0
 19 20  1  0
 21 22  1  0
 23 24  1  0
 25 26  1  0
M  CHG  1   8   1
M  END
>  <PDB_ID>  (3474) 
pdb5wtl

>  <RESIDUE_NAME>  (3474) 
LYS   PHE

>  <FRAG_NAME>  (3474) 
ETAM   MBZ

>  <FRAG_ATOM_NUM>  (3474) 
fragi: 11  fragj: 15

>  <atom.prop.CHAIN_ID>  (3474) 
A A A A A A A A A A A Z Z Z Z Z Z Z Z Z Z Z Z Z Z Z

>  <atom.prop.IS_HEAVY_ATOM>  (3474) 
1 0 0 0 1 0 0 1 0 0 0 1 0 0 0 1 1 0 1 0 1 0 1 0 1 0

>  <DIFUSE_FUNC_ATOM>  (3474) 
n/a

>  <FINAL_SINGLE_POINT_ENERGY>  (3474) 
0

>  <NONCOV_INTER_ENERGY_QM>  (3474) 
0

>  <FF_Energy>  (3474) 
-3.09

>  <QM_Energy>  (3474) 
-10.45

>  <source>  (3474) 
ETAM_MBZ

>  <Index>  (3474) 
38344

$$$$
ETAM-pdb5wql-B-LYS-195:MBZ-pdb5wql-B-PHE-190
     RDKit          3D

 26 25  0  0  0  0  0  0  0  0999 V2000
   -1.8088   -2.2279    2.9557 C   0  0  0  0  0  0  0  0  0  0  0  0
   -2.0260   -2.9777    3.5821 H   0  0  0  0  0  0  0  0  0  0  0  0
   -1.6004   -2.6011    2.0515 H   0  0  0  0  0  0  0  0  0  0  0  0
   -2.6733   -1.5685    2.8780 H   0  0  0  0  0  0  0  0  0  0  0  0
   -0.6027   -1.5041    3.4687 C   0  0  0  0  0  0  0  0  0  0  0  0
   -0.5083   -0.6346    2.9846 H   0  0  0  0  0  0  0  0  0  0  0  0
   -0.7126   -1.3293    4.4476 H   0  0  0  0  0  0  0  0  0  0  0  0
    0.5989   -2.3191    3.2494 N   0  0  0  0  0  4  0  0  0  0  0  0
    1.4072   -1.7285    3.1986 H   0  0  0  0  0  0  0  0  0  0  0  0
    0.7146   -2.9676    4.0059 H   0  0  0  0  0  0  0  0  0  0  0  0
    0.5135   -2.8302    2.3908 H   0  0  0  0  0  0  0  0  0  0  0  0
    0.0095    2.8873    0.0062 C   0  0  0  0  0  0  0  0  0  0  0  0
   -0.3999    3.1974   -0.8416 H   0  0  0  0  0  0  0  0  0  0  0  0
    0.9521    3.1869    0.0740 H   0  0  0  0  0  0  0  0  0  0  0  0
   -0.5432    3.3414    0.8286 H   0  0  0  0  0  0  0  0  0  0  0  0
   -0.0002    1.3833    0.0025 C   0  0  0  0  0  0  0  0  0  0  0  0
   -1.1695    0.6761    0.0070 C   0  0  0  0  0  0  0  0  0  0  0  0
   -2.0484    1.1661    0.0145 H   0  0  0  0  0  0  0  0  0  0  0  0
   -1.1685   -0.6896   -0.0000 C   0  0  0  0  0  0  0  0  0  0  0  0
   -2.0572   -1.1862    0.0030 H   0  0  0  0  0  0  0  0  0  0  0  0
    0.0021   -1.3711   -0.0092 C   0  0  0  0  0  0  0  0  0  0  0  0
    0.0036   -2.3758   -0.0234 H   0  0  0  0  0  0  0  0  0  0  0  0
    1.1685   -0.6792    0.0000 C   0  0  0  0  0  0  0  0  0  0  0  0
    2.0648   -1.1810    0.0092 H   0  0  0  0  0  0  0  0  0  0  0  0
    1.1676    0.6806   -0.0003 C   0  0  0  0  0  0  0  0  0  0  0  0
    2.0472    1.1799   -0.0041 H   0  0  0  0  0  0  0  0  0  0  0  0
  1  5  1  0
  5  8  1  0
  1  2  1  0
  1  3  1  0
  1  4  1  0
  5  6  1  0
  5  7  1  0
  8  9  1  0
  8 10  1  0
  8 11  1  0
 12 16  1  0
 16 17  2  0
 17 19  1  0
 19 21  2  0
 21 23  1  0
 23 25  2  0
 25 16  1  0
 12 13  1  0
 12 14  1  0
 12 15  1  0
 17 18  1  0
 19 20  1  0
 21 22  1  0
 23 24  1  0
 25 26  1  0
M  CHG  1   8   1
M  END
>  <PDB_ID>  (3475) 
pdb5wql

>  <RESIDUE_NAME>  (3475) 
LYS   PHE

>  <FRAG_NAME>  (3475) 
ETAM   MBZ

>  <FRAG_ATOM_NUM>  (3475) 
fragi: 11  fragj: 15

>  <atom.prop.CHAIN_ID>  (3475) 
A A A A A A A A A A A Z Z Z Z Z Z Z Z Z Z Z Z Z Z Z

>  <atom.prop.IS_HEAVY_ATOM>  (3475) 
1 0 0 0 1 0 0 1 0 0 0 1 0 0 0 1 1 0 1 0 1 0 1 0 1 0

>  <DIFUSE_FUNC_ATOM>  (3475) 
n/a

>  <FINAL_SINGLE_POINT_ENERGY>  (3475) 
0

>  <NONCOV_INTER_ENERGY_QM>  (3475) 
0

>  <FF_Energy>  (3475) 
-4.46

>  <QM_Energy>  (3475) 
-10.76

>  <source>  (3475) 
ETAM_MBZ

>  <Index>  (3475) 
38369

$$$$
ETAM-pdb5wlg-I-LYS-156:MBZ-pdb5wlg-I-PHE-108
     RDKit          3D

 26 25  0  0  0  0  0  0  0  0999 V2000
   -3.7382   -0.7816    4.0630 C   0  0  0  0  0  0  0  0  0  0  0  0
   -4.1268   -0.1974    4.7673 H   0  0  0  0  0  0  0  0  0  0  0  0
   -2.8837   -1.1822    4.3742 H   0  0  0  0  0  0  0  0  0  0  0  0
   -4.4430   -1.5849    3.8484 H   0  0  0  0  0  0  0  0  0  0  0  0
   -3.4732    0.0447    2.8311 C   0  0  0  0  0  0  0  0  0  0  0  0
   -3.1715   -0.5606    2.0872 H   0  0  0  0  0  0  0  0  0  0  0  0
   -4.3256    0.4986    2.5484 H   0  0  0  0  0  0  0  0  0  0  0  0
   -2.4339    1.0728    3.0715 N   0  0  0  0  0  4  0  0  0  0  0  0
   -1.7804    0.7360    3.7502 H   0  0  0  0  0  0  0  0  0  0  0  0
   -1.9527    1.2697    2.2163 H   0  0  0  0  0  0  0  0  0  0  0  0
   -2.8635    1.9107    3.4114 H   0  0  0  0  0  0  0  0  0  0  0  0
   -0.0028    2.9094   -0.0404 C   0  0  0  0  0  0  0  0  0  0  0  0
    0.9140    3.2212    0.1034 H   0  0  0  0  0  0  0  0  0  0  0  0
   -0.6286    3.2355    0.6390 H   0  0  0  0  0  0  0  0  0  0  0  0
   -0.3355    3.2817   -1.0092 H   0  0  0  0  0  0  0  0  0  0  0  0
   -0.0004    1.4053    0.0056 C   0  0  0  0  0  0  0  0  0  0  0  0
   -1.1935    0.6919   -0.0057 C   0  0  0  0  0  0  0  0  0  0  0  0
   -2.0631    1.1760   -0.0191 H   0  0  0  0  0  0  0  0  0  0  0  0
   -1.1919   -0.7041   -0.0000 C   0  0  0  0  0  0  0  0  0  0  0  0
   -2.0726   -1.1952   -0.0036 H   0  0  0  0  0  0  0  0  0  0  0  0
    0.0013   -1.3909    0.0125 C   0  0  0  0  0  0  0  0  0  0  0  0
   -0.0002   -2.3945    0.0303 H   0  0  0  0  0  0  0  0  0  0  0  0
    1.1919   -0.6993    0.0000 C   0  0  0  0  0  0  0  0  0  0  0  0
    2.0793   -1.1932    0.0011 H   0  0  0  0  0  0  0  0  0  0  0  0
    1.1927    0.6970   -0.0123 C   0  0  0  0  0  0  0  0  0  0  0  0
    2.0625    1.1866   -0.0350 H   0  0  0  0  0  0  0  0  0  0  0  0
  1  5  1  0
  5  8  1  0
  1  2  1  0
  1  3  1  0
  1  4  1  0
  5  6  1  0
  5  7  1  0
  8  9  1  0
  8 10  1  0
  8 11  1  0
 12 16  1  0
 16 17  2  0
 17 19  1  0
 19 21  2  0
 21 23  1  0
 23 25  2  0
 25 16  1  0
 12 13  1  0
 12 14  1  0
 12 15  1  0
 17 18  1  0
 19 20  1  0
 21 22  1  0
 23 24  1  0
 25 26  1  0
M  CHG  1   8   1
M  END
>  <PDB_ID>  (3476) 
pdb5wlg

>  <RESIDUE_NAME>  (3476) 
LYS   PHE

>  <FRAG_NAME>  (3476) 
ETAM   MBZ

>  <FRAG_ATOM_NUM>  (3476) 
fragi: 11  fragj: 15

>  <atom.prop.CHAIN_ID>  (3476) 
A A A A A A A A A A A Z Z Z Z Z Z Z Z Z Z Z Z Z Z Z

>  <atom.prop.IS_HEAVY_ATOM>  (3476) 
1 0 0 0 1 0 0 1 0 0 0 1 0 0 0 1 1 0 1 0 1 0 1 0 1 0

>  <DIFUSE_FUNC_ATOM>  (3476) 
n/a

>  <FINAL_SINGLE_POINT_ENERGY>  (3476) 
0

>  <NONCOV_INTER_ENERGY_QM>  (3476) 
0

>  <FF_Energy>  (3476) 
-4.4

>  <QM_Energy>  (3476) 
-10.53

>  <source>  (3476) 
ETAM_MBZ

>  <Index>  (3476) 
38377

$$$$
ETAM-pdb5wql-C-LYS-636:MBZ-pdb5wql-C-PHE-631
     RDKit          3D

 26 25  0  0  0  0  0  0  0  0999 V2000
   -2.8201    1.9613    2.6393 C   0  0  0  0  0  0  0  0  0  0  0  0
   -3.6923    2.4407    2.5434 H   0  0  0  0  0  0  0  0  0  0  0  0
   -2.5375    1.5999    1.7513 H   0  0  0  0  0  0  0  0  0  0  0  0
   -2.0642    2.6563    3.0048 H   0  0  0  0  0  0  0  0  0  0  0  0
   -2.9951    0.8291    3.5856 C   0  0  0  0  0  0  0  0  0  0  0  0
   -2.9634    1.1815    4.5416 H   0  0  0  0  0  0  0  0  0  0  0  0
   -3.9222    0.4244    3.4587 H   0  0  0  0  0  0  0  0  0  0  0  0
   -1.9909   -0.2394    3.4433 N   0  0  0  0  0  4  0  0  0  0  0  0
   -1.0794    0.1638    3.3385 H   0  0  0  0  0  0  0  0  0  0  0  0
   -1.9997   -0.8238    4.2569 H   0  0  0  0  0  0  0  0  0  0  0  0
   -2.1995   -0.7960    2.6362 H   0  0  0  0  0  0  0  0  0  0  0  0
   -0.0118    2.8455   -0.0049 C   0  0  0  0  0  0  0  0  0  0  0  0
    0.7459    3.1593   -0.5613 H   0  0  0  0  0  0  0  0  0  0  0  0
    0.0778    3.1651    0.9286 H   0  0  0  0  0  0  0  0  0  0  0  0
   -0.9291    3.2651   -0.4179 H   0  0  0  0  0  0  0  0  0  0  0  0
   -0.0016    1.3692    0.0054 C   0  0  0  0  0  0  0  0  0  0  0  0
   -1.1728    0.6698   -0.0013 C   0  0  0  0  0  0  0  0  0  0  0  0
   -2.0477    1.1645   -0.0088 H   0  0  0  0  0  0  0  0  0  0  0  0
   -1.1690   -0.6854   -0.0000 C   0  0  0  0  0  0  0  0  0  0  0  0
   -2.0492   -1.1930    0.0020 H   0  0  0  0  0  0  0  0  0  0  0  0
    0.0130   -1.3588    0.0002 C   0  0  0  0  0  0  0  0  0  0  0  0
    0.0105   -2.3683    0.0004 H   0  0  0  0  0  0  0  0  0  0  0  0
    1.1690   -0.6730    0.0000 C   0  0  0  0  0  0  0  0  0  0  0  0
    2.0689   -1.1714    0.0045 H   0  0  0  0  0  0  0  0  0  0  0  0
    1.1613    0.6781   -0.0042 C   0  0  0  0  0  0  0  0  0  0  0  0
    2.0410    1.1822   -0.0156 H   0  0  0  0  0  0  0  0  0  0  0  0
  1  5  1  0
  5  8  1  0
  1  2  1  0
  1  3  1  0
  1  4  1  0
  5  6  1  0
  5  7  1  0
  8  9  1  0
  8 10  1  0
  8 11  1  0
 12 16  1  0
 16 17  2  0
 17 19  1  0
 19 21  2  0
 21 23  1  0
 23 25  2  0
 25 16  1  0
 12 13  1  0
 12 14  1  0
 12 15  1  0
 17 18  1  0
 19 20  1  0
 21 22  1  0
 23 24  1  0
 25 26  1  0
M  CHG  1   8   1
M  END
>  <PDB_ID>  (3477) 
pdb5wql

>  <RESIDUE_NAME>  (3477) 
LYS   PHE

>  <FRAG_NAME>  (3477) 
ETAM   MBZ

>  <FRAG_ATOM_NUM>  (3477) 
fragi: 11  fragj: 15

>  <atom.prop.CHAIN_ID>  (3477) 
A A A A A A A A A A A Z Z Z Z Z Z Z Z Z Z Z Z Z Z Z

>  <atom.prop.IS_HEAVY_ATOM>  (3477) 
1 0 0 0 1 0 0 1 0 0 0 1 0 0 0 1 1 0 1 0 1 0 1 0 1 0

>  <DIFUSE_FUNC_ATOM>  (3477) 
n/a

>  <FINAL_SINGLE_POINT_ENERGY>  (3477) 
0

>  <NONCOV_INTER_ENERGY_QM>  (3477) 
0

>  <FF_Energy>  (3477) 
-2.24

>  <QM_Energy>  (3477) 
-8.31

>  <source>  (3477) 
ETAM_MBZ

>  <Index>  (3477) 
38395

$$$$
ETAM-pdb5x1u-A-LYS-310:MBZ-pdb5x1u-B-PHE-251
     RDKit          3D

 26 25  0  0  0  0  0  0  0  0999 V2000
    0.2988   -1.2039    3.4512 C   0  0  0  0  0  0  0  0  0  0  0  0
    0.8940   -0.4062    3.4212 H   0  0  0  0  0  0  0  0  0  0  0  0
   -0.0541   -1.4048    2.5430 H   0  0  0  0  0  0  0  0  0  0  0  0
    0.8791   -2.0589    3.7980 H   0  0  0  0  0  0  0  0  0  0  0  0
   -0.8695   -0.9064    4.3730 C   0  0  0  0  0  0  0  0  0  0  0  0
   -1.3179   -1.7631    4.6223 H   0  0  0  0  0  0  0  0  0  0  0  0
   -0.5322   -0.4519    5.1954 H   0  0  0  0  0  0  0  0  0  0  0  0
   -1.8635   -0.0150    3.6968 N   0  0  0  0  0  4  0  0  0  0  0  0
   -1.3764    0.7025    3.2017 H   0  0  0  0  0  0  0  0  0  0  0  0
   -2.4075   -0.5565    3.0586 H   0  0  0  0  0  0  0  0  0  0  0  0
   -2.4582    0.3942    4.3857 H   0  0  0  0  0  0  0  0  0  0  0  0
    0.0101    2.9121   -0.0249 C   0  0  0  0  0  0  0  0  0  0  0  0
   -0.4720    3.1995   -0.8423 H   0  0  0  0  0  0  0  0  0  0  0  0
    0.9559    3.2085   -0.0510 H   0  0  0  0  0  0  0  0  0  0  0  0
   -0.4652    3.3974    0.8275 H   0  0  0  0  0  0  0  0  0  0  0  0
   -0.0007    1.4011    0.0126 C   0  0  0  0  0  0  0  0  0  0  0  0
   -1.1883    0.7009    0.0055 C   0  0  0  0  0  0  0  0  0  0  0  0
   -2.0591    1.1870    0.0025 H   0  0  0  0  0  0  0  0  0  0  0  0
   -1.1956   -0.6938   -0.0000 C   0  0  0  0  0  0  0  0  0  0  0  0
   -2.0782   -1.1803    0.0034 H   0  0  0  0  0  0  0  0  0  0  0  0
   -0.0039   -1.3925   -0.0085 C   0  0  0  0  0  0  0  0  0  0  0  0
   -0.0119   -2.3931   -0.0209 H   0  0  0  0  0  0  0  0  0  0  0  0
    1.1956   -0.7047    0.0000 C   0  0  0  0  0  0  0  0  0  0  0  0
    2.0763   -1.2009    0.0142 H   0  0  0  0  0  0  0  0  0  0  0  0
    1.1929    0.6890   -0.0096 C   0  0  0  0  0  0  0  0  0  0  0  0
    2.0632    1.1817   -0.0334 H   0  0  0  0  0  0  0  0  0  0  0  0
  1  5  1  0
  5  8  1  0
  1  2  1  0
  1  3  1  0
  1  4  1  0
  5  6  1  0
  5  7  1  0
  8  9  1  0
  8 10  1  0
  8 11  1  0
 12 16  1  0
 16 17  2  0
 17 19  1  0
 19 21  2  0
 21 23  1  0
 23 25  2  0
 25 16  1  0
 12 13  1  0
 12 14  1  0
 12 15  1  0
 17 18  1  0
 19 20  1  0
 21 22  1  0
 23 24  1  0
 25 26  1  0
M  CHG  1   8   1
M  END
>  <PDB_ID>  (3478) 
pdb5x1u

>  <RESIDUE_NAME>  (3478) 
LYS   PHE

>  <FRAG_NAME>  (3478) 
ETAM   MBZ

>  <FRAG_ATOM_NUM>  (3478) 
fragi: 11  fragj: 15

>  <atom.prop.CHAIN_ID>  (3478) 
A A A A A A A A A A A Z Z Z Z Z Z Z Z Z Z Z Z Z Z Z

>  <atom.prop.IS_HEAVY_ATOM>  (3478) 
1 0 0 0 1 0 0 1 0 0 0 1 0 0 0 1 1 0 1 0 1 0 1 0 1 0

>  <DIFUSE_FUNC_ATOM>  (3478) 
n/a

>  <FINAL_SINGLE_POINT_ENERGY>  (3478) 
0

>  <NONCOV_INTER_ENERGY_QM>  (3478) 
0

>  <FF_Energy>  (3478) 
-4.93

>  <QM_Energy>  (3478) 
-10.02

>  <source>  (3478) 
ETAM_MBZ

>  <Index>  (3478) 
38400

$$$$
ETAM-pdb5x1u-B-LYS-310:MBZ-pdb5x1u-A-PHE-251
     RDKit          3D

 26 25  0  0  0  0  0  0  0  0999 V2000
    0.1192   -1.0618    3.4520 C   0  0  0  0  0  0  0  0  0  0  0  0
    0.7093   -0.2804    3.5861 H   0  0  0  0  0  0  0  0  0  0  0  0
   -0.1207   -1.1748    2.5006 H   0  0  0  0  0  0  0  0  0  0  0  0
    0.6271   -1.9596    3.8043 H   0  0  0  0  0  0  0  0  0  0  0  0
   -1.1599   -0.8452    4.2511 C   0  0  0  0  0  0  0  0  0  0  0  0
   -1.6284   -1.7390    4.3584 H   0  0  0  0  0  0  0  0  0  0  0  0
   -0.9090   -0.5276    5.1824 H   0  0  0  0  0  0  0  0  0  0  0  0
   -2.1077    0.1281    3.6476 N   0  0  0  0  0  4  0  0  0  0  0  0
   -1.7207    0.4867    2.7985 H   0  0  0  0  0  0  0  0  0  0  0  0
   -2.9753   -0.3295    3.4519 H   0  0  0  0  0  0  0  0  0  0  0  0
   -2.2636    0.8800    4.2874 H   0  0  0  0  0  0  0  0  0  0  0  0
    0.0236    2.9103   -0.0327 C   0  0  0  0  0  0  0  0  0  0  0  0
   -0.3971    3.1921   -0.8870 H   0  0  0  0  0  0  0  0  0  0  0  0
    0.9718    3.2042    0.0036 H   0  0  0  0  0  0  0  0  0  0  0  0
   -0.5090    3.4044    0.7799 H   0  0  0  0  0  0  0  0  0  0  0  0
    0.0061    1.4008    0.0141 C   0  0  0  0  0  0  0  0  0  0  0  0
   -1.1886    0.6970   -0.0010 C   0  0  0  0  0  0  0  0  0  0  0  0
   -2.0557    1.1870   -0.0138 H   0  0  0  0  0  0  0  0  0  0  0  0
   -1.1931   -0.6923   -0.0000 C   0  0  0  0  0  0  0  0  0  0  0  0
   -2.0796   -1.1807    0.0091 H   0  0  0  0  0  0  0  0  0  0  0  0
   -0.0092   -1.3916   -0.0099 C   0  0  0  0  0  0  0  0  0  0  0  0
   -0.0138   -2.3914   -0.0249 H   0  0  0  0  0  0  0  0  0  0  0  0
    1.1931   -0.7011    0.0000 C   0  0  0  0  0  0  0  0  0  0  0  0
    2.0723   -1.2018    0.0108 H   0  0  0  0  0  0  0  0  0  0  0  0
    1.1917    0.6872   -0.0032 C   0  0  0  0  0  0  0  0  0  0  0  0
    2.0661    1.1794   -0.0193 H   0  0  0  0  0  0  0  0  0  0  0  0
  1  5  1  0
  5  8  1  0
  1  2  1  0
  1  3  1  0
  1  4  1  0
  5  6  1  0
  5  7  1  0
  8  9  1  0
  8 10  1  0
  8 11  1  0
 12 16  1  0
 16 17  2  0
 17 19  1  0
 19 21  2  0
 21 23  1  0
 23 25  2  0
 25 16  1  0
 12 13  1  0
 12 14  1  0
 12 15  1  0
 17 18  1  0
 19 20  1  0
 21 22  1  0
 23 24  1  0
 25 26  1  0
M  CHG  1   8   1
M  END
>  <PDB_ID>  (3479) 
pdb5x1u

>  <RESIDUE_NAME>  (3479) 
LYS   PHE

>  <FRAG_NAME>  (3479) 
ETAM   MBZ

>  <FRAG_ATOM_NUM>  (3479) 
fragi: 11  fragj: 15

>  <atom.prop.CHAIN_ID>  (3479) 
A A A A A A A A A A A Z Z Z Z Z Z Z Z Z Z Z Z Z Z Z

>  <atom.prop.IS_HEAVY_ATOM>  (3479) 
1 0 0 0 1 0 0 1 0 0 0 1 0 0 0 1 1 0 1 0 1 0 1 0 1 0

>  <DIFUSE_FUNC_ATOM>  (3479) 
n/a

>  <FINAL_SINGLE_POINT_ENERGY>  (3479) 
0

>  <NONCOV_INTER_ENERGY_QM>  (3479) 
0

>  <FF_Energy>  (3479) 
-4.68

>  <QM_Energy>  (3479) 
-10.64

>  <source>  (3479) 
ETAM_MBZ

>  <Index>  (3479) 
38402

$$$$
ETAM-pdb5x4i-A-LYS-99:MBZ-pdb5x4i-A-PHE-79
     RDKit          3D

 26 25  0  0  0  0  0  0  0  0999 V2000
   -3.6320   -2.1328   -1.8231 C   0  0  0  0  0  0  0  0  0  0  0  0
   -3.0669   -1.9013   -2.6036 H   0  0  0  0  0  0  0  0  0  0  0  0
   -3.2446   -1.7712   -0.9861 H   0  0  0  0  0  0  0  0  0  0  0  0
   -4.6285   -1.7155   -1.9674 H   0  0  0  0  0  0  0  0  0  0  0  0
   -3.7061   -3.6425   -1.7088 C   0  0  0  0  0  0  0  0  0  0  0  0
   -4.1113   -4.0153   -2.5496 H   0  0  0  0  0  0  0  0  0  0  0  0
   -2.7759   -4.0101   -1.6111 H   0  0  0  0  0  0  0  0  0  0  0  0
   -4.5251   -4.0773   -0.5418 N   0  0  0  0  0  4  0  0  0  0  0  0
   -4.1892   -3.6269    0.2843 H   0  0  0  0  0  0  0  0  0  0  0  0
   -5.4799   -3.8265   -0.6965 H   0  0  0  0  0  0  0  0  0  0  0  0
   -4.4512   -5.0682   -0.4367 H   0  0  0  0  0  0  0  0  0  0  0  0
    0.0048    2.8924   -0.0030 C   0  0  0  0  0  0  0  0  0  0  0  0
   -0.6152    3.1985   -0.7110 H   0  0  0  0  0  0  0  0  0  0  0  0
    0.9295    3.1978   -0.1802 H   0  0  0  0  0  0  0  0  0  0  0  0
   -0.3174    3.3410    0.9368 H   0  0  0  0  0  0  0  0  0  0  0  0
    0.0009    1.3926    0.0042 C   0  0  0  0  0  0  0  0  0  0  0  0
   -1.1906    0.6883   -0.0044 C   0  0  0  0  0  0  0  0  0  0  0  0
   -2.0583    1.1809   -0.0152 H   0  0  0  0  0  0  0  0  0  0  0  0
   -1.1924   -0.6911    0.0000 C   0  0  0  0  0  0  0  0  0  0  0  0
   -2.0722   -1.1883    0.0043 H   0  0  0  0  0  0  0  0  0  0  0  0
   -0.0001   -1.3836   -0.0003 C   0  0  0  0  0  0  0  0  0  0  0  0
   -0.0050   -2.3856   -0.0016 H   0  0  0  0  0  0  0  0  0  0  0  0
    1.1924   -0.6936    0.0000 C   0  0  0  0  0  0  0  0  0  0  0  0
    2.0763   -1.1938    0.0016 H   0  0  0  0  0  0  0  0  0  0  0  0
    1.1898    0.6875    0.0005 C   0  0  0  0  0  0  0  0  0  0  0  0
    2.0606    1.1845   -0.0032 H   0  0  0  0  0  0  0  0  0  0  0  0
  1  5  1  0
  5  8  1  0
  1  2  1  0
  1  3  1  0
  1  4  1  0
  5  6  1  0
  5  7  1  0
  8  9  1  0
  8 10  1  0
  8 11  1  0
 12 16  1  0
 16 17  2  0
 17 19  1  0
 19 21  2  0
 21 23  1  0
 23 25  2  0
 25 16  1  0
 12 13  1  0
 12 14  1  0
 12 15  1  0
 17 18  1  0
 19 20  1  0
 21 22  1  0
 23 24  1  0
 25 26  1  0
M  CHG  1   8   1
M  END
>  <PDB_ID>  (3480) 
pdb5x4i

>  <RESIDUE_NAME>  (3480) 
LYS   PHE

>  <FRAG_NAME>  (3480) 
ETAM   MBZ

>  <FRAG_ATOM_NUM>  (3480) 
fragi: 11  fragj: 15

>  <atom.prop.CHAIN_ID>  (3480) 
A A A A A A A A A A A Z Z Z Z Z Z Z Z Z Z Z Z Z Z Z

>  <atom.prop.IS_HEAVY_ATOM>  (3480) 
1 0 0 0 1 0 0 1 0 0 0 1 0 0 0 1 1 0 1 0 1 0 1 0 1 0

>  <DIFUSE_FUNC_ATOM>  (3480) 
n/a

>  <FINAL_SINGLE_POINT_ENERGY>  (3480) 
0

>  <NONCOV_INTER_ENERGY_QM>  (3480) 
0

>  <FF_Energy>  (3480) 
11.17

>  <QM_Energy>  (3480) 
0.77

>  <source>  (3480) 
ETAM_MBZ

>  <Index>  (3480) 
38417

$$$$
ETAM-pdb5x2g-A-LYS-310:MBZ-pdb5x2g-A-PHE-321
     RDKit          3D

 26 25  0  0  0  0  0  0  0  0999 V2000
    1.9576   -4.3974   -4.1674 C   0  0  0  0  0  0  0  0  0  0  0  0
    1.5192   -5.2627   -4.3779 H   0  0  0  0  0  0  0  0  0  0  0  0
    2.8337   -4.5468   -3.7245 H   0  0  0  0  0  0  0  0  0  0  0  0
    2.1170   -3.8465   -5.0943 H   0  0  0  0  0  0  0  0  0  0  0  0
    1.0591   -3.6184   -3.2132 C   0  0  0  0  0  0  0  0  0  0  0  0
    1.3159   -2.6489   -3.2463 H   0  0  0  0  0  0  0  0  0  0  0  0
    0.1067   -3.7129   -3.5153 H   0  0  0  0  0  0  0  0  0  0  0  0
    1.1793   -4.1094   -1.8118 N   0  0  0  0  0  4  0  0  0  0  0  0
    1.4974   -5.0566   -1.8196 H   0  0  0  0  0  0  0  0  0  0  0  0
    1.8343   -3.5398   -1.3173 H   0  0  0  0  0  0  0  0  0  0  0  0
    0.2867   -4.0583   -1.3655 H   0  0  0  0  0  0  0  0  0  0  0  0
   -0.0006    2.9116   -0.0055 C   0  0  0  0  0  0  0  0  0  0  0  0
   -0.8192    3.2113   -0.4717 H   0  0  0  0  0  0  0  0  0  0  0  0
    0.8134    3.2127   -0.4794 H   0  0  0  0  0  0  0  0  0  0  0  0
    0.0038    3.3668    0.9849 H   0  0  0  0  0  0  0  0  0  0  0  0
    0.0001    1.4000    0.0054 C   0  0  0  0  0  0  0  0  0  0  0  0
   -1.1913    0.6866   -0.0058 C   0  0  0  0  0  0  0  0  0  0  0  0
   -2.0606    1.1762   -0.0191 H   0  0  0  0  0  0  0  0  0  0  0  0
   -1.1927   -0.6986    0.0000 C   0  0  0  0  0  0  0  0  0  0  0  0
   -2.0715   -1.1935    0.0048 H   0  0  0  0  0  0  0  0  0  0  0  0
    0.0012   -1.3882    0.0013 C   0  0  0  0  0  0  0  0  0  0  0  0
    0.0001   -2.3895    0.0024 H   0  0  0  0  0  0  0  0  0  0  0  0
    1.1927   -0.6931    0.0000 C   0  0  0  0  0  0  0  0  0  0  0  0
    2.0792   -1.1903    0.0011 H   0  0  0  0  0  0  0  0  0  0  0  0
    1.1900    0.6934   -0.0008 C   0  0  0  0  0  0  0  0  0  0  0  0
    2.0609    1.1888   -0.0067 H   0  0  0  0  0  0  0  0  0  0  0  0
  1  5  1  0
  5  8  1  0
  1  2  1  0
  1  3  1  0
  1  4  1  0
  5  6  1  0
  5  7  1  0
  8  9  1  0
  8 10  1  0
  8 11  1  0
 12 16  1  0
 16 17  2  0
 17 19  1  0
 19 21  2  0
 21 23  1  0
 23 25  2  0
 25 16  1  0
 12 13  1  0
 12 14  1  0
 12 15  1  0
 17 18  1  0
 19 20  1  0
 21 22  1  0
 23 24  1  0
 25 26  1  0
M  CHG  1   8   1
M  END
>  <PDB_ID>  (3481) 
pdb5x2g

>  <RESIDUE_NAME>  (3481) 
LYS   PHE

>  <FRAG_NAME>  (3481) 
ETAM   MBZ

>  <FRAG_ATOM_NUM>  (3481) 
fragi: 11  fragj: 15

>  <atom.prop.CHAIN_ID>  (3481) 
A A A A A A A A A A A Z Z Z Z Z Z Z Z Z Z Z Z Z Z Z

>  <atom.prop.IS_HEAVY_ATOM>  (3481) 
1 0 0 0 1 0 0 1 0 0 0 1 0 0 0 1 1 0 1 0 1 0 1 0 1 0

>  <DIFUSE_FUNC_ATOM>  (3481) 
n/a

>  <FINAL_SINGLE_POINT_ENERGY>  (3481) 
0

>  <NONCOV_INTER_ENERGY_QM>  (3481) 
0

>  <FF_Energy>  (3481) 
0.19

>  <QM_Energy>  (3481) 
-5.31

>  <source>  (3481) 
ETAM_MBZ

>  <Index>  (3481) 
38428

$$$$
ETAM-pdb5wze-F-LYS-427:MBZ-pdb5wze-F-PHE-301
     RDKit          3D

 26 25  0  0  0  0  0  0  0  0999 V2000
    4.1727   -5.7929    0.5821 C   0  0  0  0  0  0  0  0  0  0  0  0
    4.1970   -5.6529   -0.4058 H   0  0  0  0  0  0  0  0  0  0  0  0
    3.3659   -6.3235    0.8306 H   0  0  0  0  0  0  0  0  0  0  0  0
    5.0634   -6.3458    0.8805 H   0  0  0  0  0  0  0  0  0  0  0  0
    4.0895   -4.4386    1.2609 C   0  0  0  0  0  0  0  0  0  0  0  0
    4.1424   -4.5725    2.2545 H   0  0  0  0  0  0  0  0  0  0  0  0
    4.8729   -3.8819    0.9681 H   0  0  0  0  0  0  0  0  0  0  0  0
    2.8380   -3.7431    0.9226 N   0  0  0  0  0  4  0  0  0  0  0  0
    2.1955   -4.3852    0.4995 H   0  0  0  0  0  0  0  0  0  0  0  0
    2.4240   -3.3646    1.7538 H   0  0  0  0  0  0  0  0  0  0  0  0
    3.0262   -2.9963    0.2806 H   0  0  0  0  0  0  0  0  0  0  0  0
    0.0055    2.8746   -0.0074 C   0  0  0  0  0  0  0  0  0  0  0  0
    0.9375    3.1799   -0.1403 H   0  0  0  0  0  0  0  0  0  0  0  0
   -0.3532    3.1902    0.8594 H   0  0  0  0  0  0  0  0  0  0  0  0
   -0.6039    3.3111   -0.7987 H   0  0  0  0  0  0  0  0  0  0  0  0
    0.0013    1.3814    0.0020 C   0  0  0  0  0  0  0  0  0  0  0  0
   -1.1806    0.6810    0.0011 C   0  0  0  0  0  0  0  0  0  0  0  0
   -2.0512    1.1781   -0.0004 H   0  0  0  0  0  0  0  0  0  0  0  0
   -1.1848   -0.6844   -0.0000 C   0  0  0  0  0  0  0  0  0  0  0  0
   -2.0675   -1.1839    0.0018 H   0  0  0  0  0  0  0  0  0  0  0  0
   -0.0024   -1.3714   -0.0014 C   0  0  0  0  0  0  0  0  0  0  0  0
   -0.0074   -2.3777   -0.0037 H   0  0  0  0  0  0  0  0  0  0  0  0
    1.1848   -0.6882    0.0000 C   0  0  0  0  0  0  0  0  0  0  0  0
    2.0694   -1.1918    0.0035 H   0  0  0  0  0  0  0  0  0  0  0  0
    1.1817    0.6816   -0.0016 C   0  0  0  0  0  0  0  0  0  0  0  0
    2.0548    1.1816   -0.0063 H   0  0  0  0  0  0  0  0  0  0  0  0
  1  5  1  0
  5  8  1  0
  1  2  1  0
  1  3  1  0
  1  4  1  0
  5  6  1  0
  5  7  1  0
  8  9  1  0
  8 10  1  0
  8 11  1  0
 12 16  1  0
 16 17  2  0
 17 19  1  0
 19 21  2  0
 21 23  1  0
 23 25  2  0
 25 16  1  0
 12 13  1  0
 12 14  1  0
 12 15  1  0
 17 18  1  0
 19 20  1  0
 21 22  1  0
 23 24  1  0
 25 26  1  0
M  CHG  1   8   1
M  END
>  <PDB_ID>  (3482) 
pdb5wze

>  <RESIDUE_NAME>  (3482) 
LYS   PHE

>  <FRAG_NAME>  (3482) 
ETAM   MBZ

>  <FRAG_ATOM_NUM>  (3482) 
fragi: 11  fragj: 15

>  <atom.prop.CHAIN_ID>  (3482) 
A A A A A A A A A A A Z Z Z Z Z Z Z Z Z Z Z Z Z Z Z

>  <atom.prop.IS_HEAVY_ATOM>  (3482) 
1 0 0 0 1 0 0 1 0 0 0 1 0 0 0 1 1 0 1 0 1 0 1 0 1 0

>  <DIFUSE_FUNC_ATOM>  (3482) 
n/a

>  <FINAL_SINGLE_POINT_ENERGY>  (3482) 
0

>  <NONCOV_INTER_ENERGY_QM>  (3482) 
0

>  <FF_Energy>  (3482) 
1.27

>  <QM_Energy>  (3482) 
-3.78

>  <source>  (3482) 
ETAM_MBZ

>  <Index>  (3482) 
38456

$$$$
ETAM-pdb5wsk-E-LYS-137:MBZ-pdb5wsk-E-PHE-164
     RDKit          3D

 26 25  0  0  0  0  0  0  0  0999 V2000
   -0.9766    0.9581   -3.5183 C   0  0  0  0  0  0  0  0  0  0  0  0
   -1.0244    1.4474   -2.6822 H   0  0  0  0  0  0  0  0  0  0  0  0
   -1.2326    1.5314   -4.2575 H   0  0  0  0  0  0  0  0  0  0  0  0
    0.0444    0.6085   -3.6716 H   0  0  0  0  0  0  0  0  0  0  0  0
   -1.9569   -0.1935   -3.4507 C   0  0  0  0  0  0  0  0  0  0  0  0
   -2.0515   -0.5923   -4.3296 H   0  0  0  0  0  0  0  0  0  0  0  0
   -1.6437   -0.8496   -2.8090 H   0  0  0  0  0  0  0  0  0  0  0  0
   -3.2808    0.3009   -3.0122 N   0  0  0  0  0  4  0  0  0  0  0  0
   -3.8589   -0.3744   -2.9719 H   0  0  0  0  0  0  0  0  0  0  0  0
   -3.2148    0.6731   -2.2071 H   0  0  0  0  0  0  0  0  0  0  0  0
   -3.5848    0.9074   -3.5879 H   0  0  0  0  0  0  0  0  0  0  0  0
    0.0089    2.9148    0.0055 C   0  0  0  0  0  0  0  0  0  0  0  0
   -0.7032    3.2151   -0.5804 H   0  0  0  0  0  0  0  0  0  0  0  0
    0.8658    3.2104   -0.3405 H   0  0  0  0  0  0  0  0  0  0  0  0
   -0.1404    3.3510    0.9932 H   0  0  0  0  0  0  0  0  0  0  0  0
    0.0047    1.4013   -0.0010 C   0  0  0  0  0  0  0  0  0  0  0  0
   -1.1860    0.6972   -0.0022 C   0  0  0  0  0  0  0  0  0  0  0  0
   -1.9930    1.1600   -0.0015 H   0  0  0  0  0  0  0  0  0  0  0  0
   -1.1907   -0.6912    0.0000 C   0  0  0  0  0  0  0  0  0  0  0  0
   -1.9991   -1.1507   -0.0025 H   0  0  0  0  0  0  0  0  0  0  0  0
   -0.0124   -1.3880   -0.0000 C   0  0  0  0  0  0  0  0  0  0  0  0
   -0.0203   -2.3178   -0.0016 H   0  0  0  0  0  0  0  0  0  0  0  0
    1.1907   -0.7035    0.0000 C   0  0  0  0  0  0  0  0  0  0  0  0
    1.9940   -1.1722    0.0017 H   0  0  0  0  0  0  0  0  0  0  0  0
    1.1937    0.6842    0.0033 C   0  0  0  0  0  0  0  0  0  0  0  0
    2.0040    1.1404    0.0044 H   0  0  0  0  0  0  0  0  0  0  0  0
  1  5  1  0
  5  8  1  0
  1  2  1  0
  1  3  1  0
  1  4  1  0
  5  6  1  0
  5  7  1  0
  8  9  1  0
  8 10  1  0
  8 11  1  0
 12 16  1  0
 16 17  2  0
 17 19  1  0
 19 21  2  0
 21 23  1  0
 23 25  2  0
 25 16  1  0
 12 13  1  0
 12 14  1  0
 12 15  1  0
 17 18  1  0
 19 20  1  0
 21 22  1  0
 23 24  1  0
 25 26  1  0
M  CHG  1   8   1
M  END
>  <PDB_ID>  (3483) 
pdb5wsk

>  <RESIDUE_NAME>  (3483) 
LYS   PHE

>  <FRAG_NAME>  (3483) 
ETAM   MBZ

>  <FRAG_ATOM_NUM>  (3483) 
fragi: 11  fragj: 15

>  <atom.prop.CHAIN_ID>  (3483) 
A A A A A A A A A A A Z Z Z Z Z Z Z Z Z Z Z Z Z Z Z

>  <atom.prop.IS_HEAVY_ATOM>  (3483) 
1 0 0 0 1 0 0 1 0 0 0 1 0 0 0 1 1 0 1 0 1 0 1 0 1 0

>  <DIFUSE_FUNC_ATOM>  (3483) 
n/a

>  <FINAL_SINGLE_POINT_ENERGY>  (3483) 
0

>  <NONCOV_INTER_ENERGY_QM>  (3483) 
0

>  <FF_Energy>  (3483) 
-3.64

>  <QM_Energy>  (3483) 
-8.72

>  <source>  (3483) 
ETAM_MBZ

>  <Index>  (3483) 
38458

$$$$
ETAM-pdb5x2g-A-LYS-168:MBZ-pdb5x2g-A-PHE-106
     RDKit          3D

 26 25  0  0  0  0  0  0  0  0999 V2000
   -2.3573   -1.7698   -4.1734 C   0  0  0  0  0  0  0  0  0  0  0  0
   -3.1913   -1.4729   -3.7238 H   0  0  0  0  0  0  0  0  0  0  0  0
   -2.5527   -2.4696   -4.8498 H   0  0  0  0  0  0  0  0  0  0  0  0
   -1.8946   -0.9148   -4.6664 H   0  0  0  0  0  0  0  0  0  0  0  0
   -1.4263   -2.3576   -3.1254 C   0  0  0  0  0  0  0  0  0  0  0  0
   -0.6486   -2.7930   -3.5893 H   0  0  0  0  0  0  0  0  0  0  0  0
   -1.0805   -1.6146   -2.5442 H   0  0  0  0  0  0  0  0  0  0  0  0
   -2.1123   -3.3643   -2.2731 N   0  0  0  0  0  4  0  0  0  0  0  0
   -1.5616   -4.1978   -2.2339 H   0  0  0  0  0  0  0  0  0  0  0  0
   -2.2272   -2.9964   -1.3507 H   0  0  0  0  0  0  0  0  0  0  0  0
   -3.0090   -3.5748   -2.6634 H   0  0  0  0  0  0  0  0  0  0  0  0
    0.0003    2.8990    0.0021 C   0  0  0  0  0  0  0  0  0  0  0  0
   -0.5747    3.2064   -0.7408 H   0  0  0  0  0  0  0  0  0  0  0  0
    0.9331    3.2049   -0.1120 H   0  0  0  0  0  0  0  0  0  0  0  0
   -0.3839    3.3355    0.9241 H   0  0  0  0  0  0  0  0  0  0  0  0
    0.0001    1.3957   -0.0001 C   0  0  0  0  0  0  0  0  0  0  0  0
   -1.1923    0.6894   -0.0004 C   0  0  0  0  0  0  0  0  0  0  0  0
   -2.0602    1.1812   -0.0016 H   0  0  0  0  0  0  0  0  0  0  0  0
   -1.1961   -0.6941   -0.0000 C   0  0  0  0  0  0  0  0  0  0  0  0
   -2.0743   -1.1900    0.0018 H   0  0  0  0  0  0  0  0  0  0  0  0
    0.0000   -1.3866    0.0004 C   0  0  0  0  0  0  0  0  0  0  0  0
   -0.0036   -2.3877   -0.0000 H   0  0  0  0  0  0  0  0  0  0  0  0
    1.1961   -0.6940   -0.0000 C   0  0  0  0  0  0  0  0  0  0  0  0
    2.0788   -1.1940    0.0012 H   0  0  0  0  0  0  0  0  0  0  0  0
    1.1922    0.6896    0.0001 C   0  0  0  0  0  0  0  0  0  0  0  0
    2.0620    1.1878   -0.0005 H   0  0  0  0  0  0  0  0  0  0  0  0
  1  5  1  0
  5  8  1  0
  1  2  1  0
  1  3  1  0
  1  4  1  0
  5  6  1  0
  5  7  1  0
  8  9  1  0
  8 10  1  0
  8 11  1  0
 12 16  1  0
 16 17  2  0
 17 19  1  0
 19 21  2  0
 21 23  1  0
 23 25  2  0
 25 16  1  0
 12 13  1  0
 12 14  1  0
 12 15  1  0
 17 18  1  0
 19 20  1  0
 21 22  1  0
 23 24  1  0
 25 26  1  0
M  CHG  1   8   1
M  END
>  <PDB_ID>  (3484) 
pdb5x2g

>  <RESIDUE_NAME>  (3484) 
LYS   PHE

>  <FRAG_NAME>  (3484) 
ETAM   MBZ

>  <FRAG_ATOM_NUM>  (3484) 
fragi: 11  fragj: 15

>  <atom.prop.CHAIN_ID>  (3484) 
A A A A A A A A A A A Z Z Z Z Z Z Z Z Z Z Z Z Z Z Z

>  <atom.prop.IS_HEAVY_ATOM>  (3484) 
1 0 0 0 1 0 0 1 0 0 0 1 0 0 0 1 1 0 1 0 1 0 1 0 1 0

>  <DIFUSE_FUNC_ATOM>  (3484) 
n/a

>  <FINAL_SINGLE_POINT_ENERGY>  (3484) 
0

>  <NONCOV_INTER_ENERGY_QM>  (3484) 
0

>  <FF_Energy>  (3484) 
-1.15

>  <QM_Energy>  (3484) 
-7.07

>  <source>  (3484) 
ETAM_MBZ

>  <Index>  (3484) 
38475

$$$$
ETAM-pdb5xb6-H-MET-1:MBZ-pdb5xb6-H-PHE-28
     RDKit          3D

 26 25  0  0  0  0  0  0  0  0999 V2000
    5.6259    1.5994   -3.0082 C   0  0  0  0  0  0  0  0  0  0  0  0
    5.6359    1.7711   -3.9996 H   0  0  0  0  0  0  0  0  0  0  0  0
    6.4927    1.9316   -2.6185 H   0  0  0  0  0  0  0  0  0  0  0  0
    5.5701    0.5227   -2.8479 H   0  0  0  0  0  0  0  0  0  0  0  0
    4.4670    2.3732   -2.3795 C   0  0  0  0  0  0  0  0  0  0  0  0
    4.8190    2.8603   -1.5732 H   0  0  0  0  0  0  0  0  0  0  0  0
    4.0647    3.1165   -3.0677 H   0  0  0  0  0  0  0  0  0  0  0  0
    3.4252    1.4533   -1.9420 N   0  0  0  0  0  4  0  0  0  0  0  0
    3.8156    0.7512   -1.3428 H   0  0  0  0  0  0  0  0  0  0  0  0
    2.7164    1.9516   -1.4385 H   0  0  0  0  0  0  0  0  0  0  0  0
    3.0061    1.0060   -2.7355 H   0  0  0  0  0  0  0  0  0  0  0  0
   -0.0025    2.9062    0.0088 C   0  0  0  0  0  0  0  0  0  0  0  0
   -0.5648    3.2160   -0.7391 H   0  0  0  0  0  0  0  0  0  0  0  0
    0.9296    3.2137   -0.0800 H   0  0  0  0  0  0  0  0  0  0  0  0
   -0.4078    3.3253    0.9298 H   0  0  0  0  0  0  0  0  0  0  0  0
    0.0010    1.3996   -0.0042 C   0  0  0  0  0  0  0  0  0  0  0  0
   -1.1934    0.6944    0.0004 C   0  0  0  0  0  0  0  0  0  0  0  0
   -2.0610    1.1841    0.0029 H   0  0  0  0  0  0  0  0  0  0  0  0
   -1.1989   -0.6964    0.0000 C   0  0  0  0  0  0  0  0  0  0  0  0
   -2.0770   -1.1878   -0.0008 H   0  0  0  0  0  0  0  0  0  0  0  0
   -0.0019   -1.3895    0.0032 C   0  0  0  0  0  0  0  0  0  0  0  0
   -0.0065   -2.3910    0.0079 H   0  0  0  0  0  0  0  0  0  0  0  0
    1.1989   -0.6987   -0.0000 C   0  0  0  0  0  0  0  0  0  0  0  0
    2.0791   -1.1973   -0.0008 H   0  0  0  0  0  0  0  0  0  0  0  0
    1.1944    0.6905    0.0006 C   0  0  0  0  0  0  0  0  0  0  0  0
    2.0645    1.1863    0.0034 H   0  0  0  0  0  0  0  0  0  0  0  0
  1  5  1  0
  5  8  1  0
  1  2  1  0
  1  3  1  0
  1  4  1  0
  5  6  1  0
  5  7  1  0
  8  9  1  0
  8 10  1  0
  8 11  1  0
 12 16  1  0
 16 17  2  0
 17 19  1  0
 19 21  2  0
 21 23  1  0
 23 25  2  0
 25 16  1  0
 12 13  1  0
 12 14  1  0
 12 15  1  0
 17 18  1  0
 19 20  1  0
 21 22  1  0
 23 24  1  0
 25 26  1  0
M  CHG  1   8   1
M  END
>  <PDB_ID>  (3485) 
pdb5xb6

>  <RESIDUE_NAME>  (3485) 
MET   PHE

>  <FRAG_NAME>  (3485) 
ETAM   MBZ

>  <FRAG_ATOM_NUM>  (3485) 
fragi: 11  fragj: 15

>  <atom.prop.CHAIN_ID>  (3485) 
A A A A A A A A A A A Z Z Z Z Z Z Z Z Z Z Z Z Z Z Z

>  <atom.prop.IS_HEAVY_ATOM>  (3485) 
1 0 0 0 1 0 0 1 0 0 0 1 0 0 0 1 1 0 1 0 1 0 1 0 1 0

>  <DIFUSE_FUNC_ATOM>  (3485) 
n/a

>  <FINAL_SINGLE_POINT_ENERGY>  (3485) 
0

>  <NONCOV_INTER_ENERGY_QM>  (3485) 
0

>  <FF_Energy>  (3485) 
1.81

>  <QM_Energy>  (3485) 
-3.97

>  <source>  (3485) 
ETAM_MBZ

>  <Index>  (3485) 
38485

$$$$
ETAM-pdb5xdr-A-LYS-614:MBZ-pdb5xdr-A-PHE-600
     RDKit          3D

 26 25  0  0  0  0  0  0  0  0999 V2000
    0.1261    0.5971    3.8732 C   0  0  0  0  0  0  0  0  0  0  0  0
    0.0733    1.3996    3.2968 H   0  0  0  0  0  0  0  0  0  0  0  0
    0.2299    0.8449    4.8254 H   0  0  0  0  0  0  0  0  0  0  0  0
   -0.7860    0.0122    3.7541 H   0  0  0  0  0  0  0  0  0  0  0  0
    1.3475   -0.2236    3.4503 C   0  0  0  0  0  0  0  0  0  0  0  0
    1.5520   -0.8879    4.1643 H   0  0  0  0  0  0  0  0  0  0  0  0
    1.1398   -0.6946    2.5970 H   0  0  0  0  0  0  0  0  0  0  0  0
    2.5360    0.6631    3.2469 N   0  0  0  0  0  4  0  0  0  0  0  0
    2.3108    1.5870    3.5494 H   0  0  0  0  0  0  0  0  0  0  0  0
    3.3031    0.3107    3.7798 H   0  0  0  0  0  0  0  0  0  0  0  0
    2.7742    0.6732    2.2779 H   0  0  0  0  0  0  0  0  0  0  0  0
    0.0107    2.9273   -0.0125 C   0  0  0  0  0  0  0  0  0  0  0  0
    0.9299    3.2164    0.1970 H   0  0  0  0  0  0  0  0  0  0  0  0
   -0.6333    3.2361    0.6684 H   0  0  0  0  0  0  0  0  0  0  0  0
   -0.2738    3.3535   -0.9745 H   0  0  0  0  0  0  0  0  0  0  0  0
   -0.0040    1.4086    0.0031 C   0  0  0  0  0  0  0  0  0  0  0  0
   -1.1959    0.7272    0.0069 C   0  0  0  0  0  0  0  0  0  0  0  0
   -2.0606    1.2092    0.0129 H   0  0  0  0  0  0  0  0  0  0  0  0
   -1.1967   -0.6728   -0.0000 C   0  0  0  0  0  0  0  0  0  0  0  0
   -2.0853   -1.1608    0.0005 H   0  0  0  0  0  0  0  0  0  0  0  0
   -0.0056   -1.3984   -0.0058 C   0  0  0  0  0  0  0  0  0  0  0  0
   -0.0387   -2.3962   -0.0149 H   0  0  0  0  0  0  0  0  0  0  0  0
    1.1967   -0.7308   -0.0000 C   0  0  0  0  0  0  0  0  0  0  0  0
    2.0734   -1.2321    0.0088 H   0  0  0  0  0  0  0  0  0  0  0  0
    1.2054    0.6662   -0.0042 C   0  0  0  0  0  0  0  0  0  0  0  0
    2.0717    1.1587   -0.0131 H   0  0  0  0  0  0  0  0  0  0  0  0
  1  5  1  0
  5  8  1  0
  1  2  1  0
  1  3  1  0
  1  4  1  0
  5  6  1  0
  5  7  1  0
  8  9  1  0
  8 10  1  0
  8 11  1  0
 12 16  1  0
 16 17  2  0
 17 19  1  0
 19 21  2  0
 21 23  1  0
 23 25  2  0
 25 16  1  0
 12 13  1  0
 12 14  1  0
 12 15  1  0
 17 18  1  0
 19 20  1  0
 21 22  1  0
 23 24  1  0
 25 26  1  0
M  CHG  1   8   1
M  END
>  <PDB_ID>  (3486) 
pdb5xdr

>  <RESIDUE_NAME>  (3486) 
LYS   PHE

>  <FRAG_NAME>  (3486) 
ETAM   MBZ

>  <FRAG_ATOM_NUM>  (3486) 
fragi: 11  fragj: 15

>  <atom.prop.CHAIN_ID>  (3486) 
A A A A A A A A A A A Z Z Z Z Z Z Z Z Z Z Z Z Z Z Z

>  <atom.prop.IS_HEAVY_ATOM>  (3486) 
1 0 0 0 1 0 0 1 0 0 0 1 0 0 0 1 1 0 1 0 1 0 1 0 1 0

>  <DIFUSE_FUNC_ATOM>  (3486) 
n/a

>  <FINAL_SINGLE_POINT_ENERGY>  (3486) 
0

>  <NONCOV_INTER_ENERGY_QM>  (3486) 
0

>  <FF_Energy>  (3486) 
-4.78

>  <QM_Energy>  (3486) 
-10.95

>  <source>  (3486) 
ETAM_MBZ

>  <Index>  (3486) 
38491

$$$$
ETAM-pdb5xd6-B-LYS-214:MBZ-pdb5xd6-B-PHE-208
     RDKit          3D

 26 25  0  0  0  0  0  0  0  0999 V2000
    1.7495   -1.1691    3.4443 C   0  0  0  0  0  0  0  0  0  0  0  0
    1.5536   -1.8582    2.7554 H   0  0  0  0  0  0  0  0  0  0  0  0
    1.8208   -1.5870    4.3428 H   0  0  0  0  0  0  0  0  0  0  0  0
    2.6940   -0.6819    3.2020 H   0  0  0  0  0  0  0  0  0  0  0  0
    0.6061   -0.1681    3.4656 C   0  0  0  0  0  0  0  0  0  0  0  0
    0.9296    0.6872    3.8608 H   0  0  0  0  0  0  0  0  0  0  0  0
    0.2897   -0.0141    2.5328 H   0  0  0  0  0  0  0  0  0  0  0  0
   -0.5203   -0.6934    4.2857 N   0  0  0  0  0  4  0  0  0  0  0  0
   -1.3062   -0.0810    4.2000 H   0  0  0  0  0  0  0  0  0  0  0  0
   -0.7694   -1.6053    3.9612 H   0  0  0  0  0  0  0  0  0  0  0  0
   -0.2378   -0.7441    5.2428 H   0  0  0  0  0  0  0  0  0  0  0  0
    0.0216    2.9180   -0.0147 C   0  0  0  0  0  0  0  0  0  0  0  0
    0.6069    3.2237    0.7165 H   0  0  0  0  0  0  0  0  0  0  0  0
   -0.9048    3.2340    0.0997 H   0  0  0  0  0  0  0  0  0  0  0  0
    0.4046    3.3329   -0.9471 H   0  0  0  0  0  0  0  0  0  0  0  0
    0.0030    1.4060    0.0064 C   0  0  0  0  0  0  0  0  0  0  0  0
   -1.1941    0.7075   -0.0040 C   0  0  0  0  0  0  0  0  0  0  0  0
   -2.0600    1.1923   -0.0157 H   0  0  0  0  0  0  0  0  0  0  0  0
   -1.1977   -0.6935    0.0000 C   0  0  0  0  0  0  0  0  0  0  0  0
   -2.0770   -1.1832    0.0081 H   0  0  0  0  0  0  0  0  0  0  0  0
    0.0035   -1.3979   -0.0055 C   0  0  0  0  0  0  0  0  0  0  0  0
   -0.0094   -2.3958   -0.0140 H   0  0  0  0  0  0  0  0  0  0  0  0
    1.1977   -0.7077    0.0000 C   0  0  0  0  0  0  0  0  0  0  0  0
    2.0815   -1.1992    0.0037 H   0  0  0  0  0  0  0  0  0  0  0  0
    1.1875    0.6856    0.0031 C   0  0  0  0  0  0  0  0  0  0  0  0
    2.0644    1.1792    0.0022 H   0  0  0  0  0  0  0  0  0  0  0  0
  1  5  1  0
  5  8  1  0
  1  2  1  0
  1  3  1  0
  1  4  1  0
  5  6  1  0
  5  7  1  0
  8  9  1  0
  8 10  1  0
  8 11  1  0
 12 16  1  0
 16 17  2  0
 17 19  1  0
 19 21  2  0
 21 23  1  0
 23 25  2  0
 25 16  1  0
 12 13  1  0
 12 14  1  0
 12 15  1  0
 17 18  1  0
 19 20  1  0
 21 22  1  0
 23 24  1  0
 25 26  1  0
M  CHG  1   8   1
M  END
>  <PDB_ID>  (3487) 
pdb5xd6

>  <RESIDUE_NAME>  (3487) 
LYS   PHE

>  <FRAG_NAME>  (3487) 
ETAM   MBZ

>  <FRAG_ATOM_NUM>  (3487) 
fragi: 11  fragj: 15

>  <atom.prop.CHAIN_ID>  (3487) 
A A A A A A A A A A A Z Z Z Z Z Z Z Z Z Z Z Z Z Z Z

>  <atom.prop.IS_HEAVY_ATOM>  (3487) 
1 0 0 0 1 0 0 1 0 0 0 1 0 0 0 1 1 0 1 0 1 0 1 0 1 0

>  <DIFUSE_FUNC_ATOM>  (3487) 
n/a

>  <FINAL_SINGLE_POINT_ENERGY>  (3487) 
0

>  <NONCOV_INTER_ENERGY_QM>  (3487) 
0

>  <FF_Energy>  (3487) 
-5.58

>  <QM_Energy>  (3487) 
-10.66

>  <source>  (3487) 
ETAM_MBZ

>  <Index>  (3487) 
38517

$$$$
ETAM-pdb5xft-A-LYS-10:MBZ-pdb5xft-A-PHE-45
     RDKit          3D

 26 25  0  0  0  0  0  0  0  0999 V2000
    2.0074   -1.2260   -3.5072 C   0  0  0  0  0  0  0  0  0  0  0  0
    2.1449   -1.6100   -2.6013 H   0  0  0  0  0  0  0  0  0  0  0  0
    2.3190   -1.8582   -4.2059 H   0  0  0  0  0  0  0  0  0  0  0  0
    0.9441   -1.0348   -3.6514 H   0  0  0  0  0  0  0  0  0  0  0  0
    2.8145    0.0577   -3.6188 C   0  0  0  0  0  0  0  0  0  0  0  0
    3.5189   -0.0628   -4.3350 H   0  0  0  0  0  0  0  0  0  0  0  0
    2.1992    0.8036   -3.9184 H   0  0  0  0  0  0  0  0  0  0  0  0
    3.4800    0.4611   -2.3500 N   0  0  0  0  0  4  0  0  0  0  0  0
    3.3074   -0.2320   -1.6500 H   0  0  0  0  0  0  0  0  0  0  0  0
    4.4640    0.5443   -2.5034 H   0  0  0  0  0  0  0  0  0  0  0  0
    3.1125    1.3403   -2.0482 H   0  0  0  0  0  0  0  0  0  0  0  0
    0.0079    2.8964   -0.0061 C   0  0  0  0  0  0  0  0  0  0  0  0
    0.4707    3.1990   -0.8268 H   0  0  0  0  0  0  0  0  0  0  0  0
    0.4813    3.2034    0.8066 H   0  0  0  0  0  0  0  0  0  0  0  0
   -0.9860    3.3440   -0.0006 H   0  0  0  0  0  0  0  0  0  0  0  0
    0.0001    1.3966   -0.0019 C   0  0  0  0  0  0  0  0  0  0  0  0
   -1.1952    0.6950    0.0020 C   0  0  0  0  0  0  0  0  0  0  0  0
   -2.0607    1.1881    0.0049 H   0  0  0  0  0  0  0  0  0  0  0  0
   -1.1999   -0.6881   -0.0000 C   0  0  0  0  0  0  0  0  0  0  0  0
   -2.0771   -1.1855    0.0002 H   0  0  0  0  0  0  0  0  0  0  0  0
    0.0007   -1.3875    0.0003 C   0  0  0  0  0  0  0  0  0  0  0  0
   -0.0105   -2.3881    0.0001 H   0  0  0  0  0  0  0  0  0  0  0  0
    1.1999   -0.7006    0.0000 C   0  0  0  0  0  0  0  0  0  0  0  0
    2.0796   -1.2003    0.0018 H   0  0  0  0  0  0  0  0  0  0  0  0
    1.1944    0.6847   -0.0004 C   0  0  0  0  0  0  0  0  0  0  0  0
    2.0639    1.1836   -0.0003 H   0  0  0  0  0  0  0  0  0  0  0  0
  1  5  1  0
  5  8  1  0
  1  2  1  0
  1  3  1  0
  1  4  1  0
  5  6  1  0
  5  7  1  0
  8  9  1  0
  8 10  1  0
  8 11  1  0
 12 16  1  0
 16 17  2  0
 17 19  1  0
 19 21  2  0
 21 23  1  0
 23 25  2  0
 25 16  1  0
 12 13  1  0
 12 14  1  0
 12 15  1  0
 17 18  1  0
 19 20  1  0
 21 22  1  0
 23 24  1  0
 25 26  1  0
M  CHG  1   8   1
M  END
>  <PDB_ID>  (3488) 
pdb5xft

>  <RESIDUE_NAME>  (3488) 
LYS   PHE

>  <FRAG_NAME>  (3488) 
ETAM   MBZ

>  <FRAG_ATOM_NUM>  (3488) 
fragi: 11  fragj: 15

>  <atom.prop.CHAIN_ID>  (3488) 
A A A A A A A A A A A Z Z Z Z Z Z Z Z Z Z Z Z Z Z Z

>  <atom.prop.IS_HEAVY_ATOM>  (3488) 
1 0 0 0 1 0 0 1 0 0 0 1 0 0 0 1 1 0 1 0 1 0 1 0 1 0

>  <DIFUSE_FUNC_ATOM>  (3488) 
n/a

>  <FINAL_SINGLE_POINT_ENERGY>  (3488) 
0

>  <NONCOV_INTER_ENERGY_QM>  (3488) 
0

>  <FF_Energy>  (3488) 
-2.1

>  <QM_Energy>  (3488) 
-7.72

>  <source>  (3488) 
ETAM_MBZ

>  <Index>  (3488) 
38521

$$$$
ETAM-pdb5xea-A-LYS-343:MBZ-pdb5xea-A-PHE-361
     RDKit          3D

 26 25  0  0  0  0  0  0  0  0999 V2000
    0.2138    1.8305    4.4965 C   0  0  0  0  0  0  0  0  0  0  0  0
    0.1733    1.2631    5.3097 H   0  0  0  0  0  0  0  0  0  0  0  0
    0.4573    2.7634    4.7311 H   0  0  0  0  0  0  0  0  0  0  0  0
    0.9692    1.4267    3.8226 H   0  0  0  0  0  0  0  0  0  0  0  0
   -1.1686    1.8401    3.8429 C   0  0  0  0  0  0  0  0  0  0  0  0
   -1.8318    2.2391    4.4747 H   0  0  0  0  0  0  0  0  0  0  0  0
   -1.1364    2.3829    3.0052 H   0  0  0  0  0  0  0  0  0  0  0  0
   -1.6429    0.4291    3.4799 N   0  0  0  0  0  4  0  0  0  0  0  0
   -1.6898    0.3633    2.4906 H   0  0  0  0  0  0  0  0  0  0  0  0
   -0.9881   -0.2215    3.8448 H   0  0  0  0  0  0  0  0  0  0  0  0
   -2.5387    0.2897    3.8836 H   0  0  0  0  0  0  0  0  0  0  0  0
   -0.0021    2.9001   -0.0226 C   0  0  0  0  0  0  0  0  0  0  0  0
    0.7070    3.2170    0.5839 H   0  0  0  0  0  0  0  0  0  0  0  0
   -0.8938    3.2079    0.2618 H   0  0  0  0  0  0  0  0  0  0  0  0
    0.1955    3.3084   -1.0136 H   0  0  0  0  0  0  0  0  0  0  0  0
    0.0003    1.3961    0.0037 C   0  0  0  0  0  0  0  0  0  0  0  0
   -1.1932    0.6898   -0.0115 C   0  0  0  0  0  0  0  0  0  0  0  0
   -2.0598    1.1837   -0.0324 H   0  0  0  0  0  0  0  0  0  0  0  0
   -1.1979   -0.6910   -0.0000 C   0  0  0  0  0  0  0  0  0  0  0  0
   -2.0788   -1.1853    0.0034 H   0  0  0  0  0  0  0  0  0  0  0  0
   -0.0063   -1.3855    0.0090 C   0  0  0  0  0  0  0  0  0  0  0  0
   -0.0110   -2.3878    0.0213 H   0  0  0  0  0  0  0  0  0  0  0  0
    1.1979   -0.6979    0.0000 C   0  0  0  0  0  0  0  0  0  0  0  0
    2.0755   -1.2019   -0.0041 H   0  0  0  0  0  0  0  0  0  0  0  0
    1.1992    0.6884   -0.0012 C   0  0  0  0  0  0  0  0  0  0  0  0
    2.0652    1.1852   -0.0065 H   0  0  0  0  0  0  0  0  0  0  0  0
  1  5  1  0
  5  8  1  0
  1  2  1  0
  1  3  1  0
  1  4  1  0
  5  6  1  0
  5  7  1  0
  8  9  1  0
  8 10  1  0
  8 11  1  0
 12 16  1  0
 16 17  2  0
 17 19  1  0
 19 21  2  0
 21 23  1  0
 23 25  2  0
 25 16  1  0
 12 13  1  0
 12 14  1  0
 12 15  1  0
 17 18  1  0
 19 20  1  0
 21 22  1  0
 23 24  1  0
 25 26  1  0
M  CHG  1   8   1
M  END
>  <PDB_ID>  (3489) 
pdb5xea

>  <RESIDUE_NAME>  (3489) 
LYS   PHE

>  <FRAG_NAME>  (3489) 
ETAM   MBZ

>  <FRAG_ATOM_NUM>  (3489) 
fragi: 11  fragj: 15

>  <atom.prop.CHAIN_ID>  (3489) 
A A A A A A A A A A A Z Z Z Z Z Z Z Z Z Z Z Z Z Z Z

>  <atom.prop.IS_HEAVY_ATOM>  (3489) 
1 0 0 0 1 0 0 1 0 0 0 1 0 0 0 1 1 0 1 0 1 0 1 0 1 0

>  <DIFUSE_FUNC_ATOM>  (3489) 
n/a

>  <FINAL_SINGLE_POINT_ENERGY>  (3489) 
0

>  <NONCOV_INTER_ENERGY_QM>  (3489) 
0

>  <FF_Energy>  (3489) 
-6.76

>  <QM_Energy>  (3489) 
-12.69

>  <source>  (3489) 
ETAM_MBZ

>  <Index>  (3489) 
38526

$$$$
ETAM-pdb5xjg-A-LYS-77:MBZ-pdb5xjg-C-PHE-43
     RDKit          3D

 26 25  0  0  0  0  0  0  0  0999 V2000
   -3.1238   -1.8302   -5.1000 C   0  0  0  0  0  0  0  0  0  0  0  0
   -2.4252   -1.7385   -5.8007 H   0  0  0  0  0  0  0  0  0  0  0  0
   -3.7554   -1.0642   -5.1344 H   0  0  0  0  0  0  0  0  0  0  0  0
   -3.6756   -2.7550   -5.2687 H   0  0  0  0  0  0  0  0  0  0  0  0
   -2.4471   -1.8382   -3.7394 C   0  0  0  0  0  0  0  0  0  0  0  0
   -3.1295   -1.6136   -3.0369 H   0  0  0  0  0  0  0  0  0  0  0  0
   -2.0924   -2.7621   -3.5586 H   0  0  0  0  0  0  0  0  0  0  0  0
   -1.3314   -0.8635   -3.6665 N   0  0  0  0  0  4  0  0  0  0  0  0
   -0.5970   -1.1495   -4.2824 H   0  0  0  0  0  0  0  0  0  0  0  0
   -1.6597    0.0415   -3.9377 H   0  0  0  0  0  0  0  0  0  0  0  0
   -0.9827   -0.8239   -2.7296 H   0  0  0  0  0  0  0  0  0  0  0  0
   -0.0107    2.8986   -0.0040 C   0  0  0  0  0  0  0  0  0  0  0  0
    0.8400    3.2098    0.3930 H   0  0  0  0  0  0  0  0  0  0  0  0
   -0.7872    3.2000    0.5289 H   0  0  0  0  0  0  0  0  0  0  0  0
   -0.0963    3.3409   -0.9965 H   0  0  0  0  0  0  0  0  0  0  0  0
   -0.0023    1.3956   -0.0055 C   0  0  0  0  0  0  0  0  0  0  0  0
   -1.1904    0.6881    0.0033 C   0  0  0  0  0  0  0  0  0  0  0  0
   -2.0604    1.1789    0.0108 H   0  0  0  0  0  0  0  0  0  0  0  0
   -1.1939   -0.6942   -0.0000 C   0  0  0  0  0  0  0  0  0  0  0  0
   -2.0725   -1.1896   -0.0010 H   0  0  0  0  0  0  0  0  0  0  0  0
    0.0005   -1.3850    0.0005 C   0  0  0  0  0  0  0  0  0  0  0  0
   -0.0037   -2.3873    0.0006 H   0  0  0  0  0  0  0  0  0  0  0  0
    1.1939   -0.6938   -0.0000 C   0  0  0  0  0  0  0  0  0  0  0  0
    2.0773   -1.1941    0.0001 H   0  0  0  0  0  0  0  0  0  0  0  0
    1.1922    0.6893    0.0018 C   0  0  0  0  0  0  0  0  0  0  0  0
    2.0603    1.1872    0.0081 H   0  0  0  0  0  0  0  0  0  0  0  0
  1  5  1  0
  5  8  1  0
  1  2  1  0
  1  3  1  0
  1  4  1  0
  5  6  1  0
  5  7  1  0
  8  9  1  0
  8 10  1  0
  8 11  1  0
 12 16  1  0
 16 17  2  0
 17 19  1  0
 19 21  2  0
 21 23  1  0
 23 25  2  0
 25 16  1  0
 12 13  1  0
 12 14  1  0
 12 15  1  0
 17 18  1  0
 19 20  1  0
 21 22  1  0
 23 24  1  0
 25 26  1  0
M  CHG  1   8   1
M  END
>  <PDB_ID>  (3490) 
pdb5xjg

>  <RESIDUE_NAME>  (3490) 
LYS   PHE

>  <FRAG_NAME>  (3490) 
ETAM   MBZ

>  <FRAG_ATOM_NUM>  (3490) 
fragi: 11  fragj: 15

>  <atom.prop.CHAIN_ID>  (3490) 
A A A A A A A A A A A Z Z Z Z Z Z Z Z Z Z Z Z Z Z Z

>  <atom.prop.IS_HEAVY_ATOM>  (3490) 
1 0 0 0 1 0 0 1 0 0 0 1 0 0 0 1 1 0 1 0 1 0 1 0 1 0

>  <DIFUSE_FUNC_ATOM>  (3490) 
n/a

>  <FINAL_SINGLE_POINT_ENERGY>  (3490) 
0

>  <NONCOV_INTER_ENERGY_QM>  (3490) 
0

>  <FF_Energy>  (3490) 
-5.59

>  <QM_Energy>  (3490) 
-11.41

>  <source>  (3490) 
ETAM_MBZ

>  <Index>  (3490) 
38560

$$$$
ETAM-pdb5xm6-A-LYS-119:MBZ-pdb5xm6-A-PHE-96
     RDKit          3D

 26 25  0  0  0  0  0  0  0  0999 V2000
   -0.7948   -2.1030   -3.8981 C   0  0  0  0  0  0  0  0  0  0  0  0
   -0.7422   -2.5085   -4.8127 H   0  0  0  0  0  0  0  0  0  0  0  0
   -0.3033   -1.2311   -3.8942 H   0  0  0  0  0  0  0  0  0  0  0  0
   -1.8434   -1.9011   -3.6793 H   0  0  0  0  0  0  0  0  0  0  0  0
   -0.0997   -3.0586   -2.9004 C   0  0  0  0  0  0  0  0  0  0  0  0
   -0.3675   -2.7956   -1.9660 H   0  0  0  0  0  0  0  0  0  0  0  0
   -0.4297   -3.9951   -3.0706 H   0  0  0  0  0  0  0  0  0  0  0  0
    1.4139   -3.0531   -2.9921 N   0  0  0  0  0  4  0  0  0  0  0  0
    1.7826   -3.5147   -2.1912 H   0  0  0  0  0  0  0  0  0  0  0  0
    1.6838   -3.5323   -3.8213 H   0  0  0  0  0  0  0  0  0  0  0  0
    1.7265   -2.1088   -3.0207 H   0  0  0  0  0  0  0  0  0  0  0  0
    0.0044    2.9024    0.0084 C   0  0  0  0  0  0  0  0  0  0  0  0
    0.9336    3.2012    0.1696 H   0  0  0  0  0  0  0  0  0  0  0  0
   -0.5995    3.2014    0.7335 H   0  0  0  0  0  0  0  0  0  0  0  0
   -0.3380    3.3531   -0.9232 H   0  0  0  0  0  0  0  0  0  0  0  0
   -0.0002    1.3969   -0.0035 C   0  0  0  0  0  0  0  0  0  0  0  0
   -1.1959    0.6974    0.0029 C   0  0  0  0  0  0  0  0  0  0  0  0
   -2.0619    1.1876    0.0082 H   0  0  0  0  0  0  0  0  0  0  0  0
   -1.2012   -0.6941   -0.0000 C   0  0  0  0  0  0  0  0  0  0  0  0
   -2.0784   -1.1865   -0.0034 H   0  0  0  0  0  0  0  0  0  0  0  0
   -0.0006   -1.3893    0.0037 C   0  0  0  0  0  0  0  0  0  0  0  0
   -0.0042   -2.3883    0.0083 H   0  0  0  0  0  0  0  0  0  0  0  0
    1.2012   -0.6941    0.0000 C   0  0  0  0  0  0  0  0  0  0  0  0
    2.0806   -1.1980    0.0008 H   0  0  0  0  0  0  0  0  0  0  0  0
    1.1966    0.6833   -0.0031 C   0  0  0  0  0  0  0  0  0  0  0  0
    2.0645    1.1866   -0.0057 H   0  0  0  0  0  0  0  0  0  0  0  0
  1  5  1  0
  5  8  1  0
  1  2  1  0
  1  3  1  0
  1  4  1  0
  5  6  1  0
  5  7  1  0
  8  9  1  0
  8 10  1  0
  8 11  1  0
 12 16  1  0
 16 17  2  0
 17 19  1  0
 19 21  2  0
 21 23  1  0
 23 25  2  0
 25 16  1  0
 12 13  1  0
 12 14  1  0
 12 15  1  0
 17 18  1  0
 19 20  1  0
 21 22  1  0
 23 24  1  0
 25 26  1  0
M  CHG  1   8   1
M  END
>  <PDB_ID>  (3491) 
pdb5xm6

>  <RESIDUE_NAME>  (3491) 
LYS   PHE

>  <FRAG_NAME>  (3491) 
ETAM   MBZ

>  <FRAG_ATOM_NUM>  (3491) 
fragi: 11  fragj: 15

>  <atom.prop.CHAIN_ID>  (3491) 
A A A A A A A A A A A Z Z Z Z Z Z Z Z Z Z Z Z Z Z Z

>  <atom.prop.IS_HEAVY_ATOM>  (3491) 
1 0 0 0 1 0 0 1 0 0 0 1 0 0 0 1 1 0 1 0 1 0 1 0 1 0

>  <DIFUSE_FUNC_ATOM>  (3491) 
n/a

>  <FINAL_SINGLE_POINT_ENERGY>  (3491) 
0

>  <NONCOV_INTER_ENERGY_QM>  (3491) 
0

>  <FF_Energy>  (3491) 
-0.7

>  <QM_Energy>  (3491) 
-6.92

>  <source>  (3491) 
ETAM_MBZ

>  <Index>  (3491) 
38574

$$$$
ETAM-pdb5xpc-D-LYS-129:MBZ-pdb5xpc-D-PHE-125
     RDKit          3D

 26 25  0  0  0  0  0  0  0  0999 V2000
    0.8966   -1.2568    3.9059 C   0  0  0  0  0  0  0  0  0  0  0  0
    0.3469   -0.9696    4.6876 H   0  0  0  0  0  0  0  0  0  0  0  0
    0.8980   -0.5405    3.2114 H   0  0  0  0  0  0  0  0  0  0  0  0
    1.9203   -1.4294    4.2381 H   0  0  0  0  0  0  0  0  0  0  0  0
    0.2625   -2.5086    3.3058 C   0  0  0  0  0  0  0  0  0  0  0  0
    0.5158   -2.5693    2.3398 H   0  0  0  0  0  0  0  0  0  0  0  0
    0.6099   -3.3131    3.7901 H   0  0  0  0  0  0  0  0  0  0  0  0
   -1.2307   -2.4779    3.4185 N   0  0  0  0  0  4  0  0  0  0  0  0
   -1.5654   -1.5973    3.0893 H   0  0  0  0  0  0  0  0  0  0  0  0
   -1.6156   -3.2143    2.8654 H   0  0  0  0  0  0  0  0  0  0  0  0
   -1.4890   -2.6025    4.3746 H   0  0  0  0  0  0  0  0  0  0  0  0
    0.0014    2.8940    0.0108 C   0  0  0  0  0  0  0  0  0  0  0  0
   -0.7906    3.2032   -0.4913 H   0  0  0  0  0  0  0  0  0  0  0  0
    0.8408    3.2025   -0.4078 H   0  0  0  0  0  0  0  0  0  0  0  0
   -0.0493    3.3232    1.0115 H   0  0  0  0  0  0  0  0  0  0  0  0
    0.0007    1.3923    0.0036 C   0  0  0  0  0  0  0  0  0  0  0  0
   -1.1891    0.6883   -0.0014 C   0  0  0  0  0  0  0  0  0  0  0  0
   -2.0583    1.1767   -0.0071 H   0  0  0  0  0  0  0  0  0  0  0  0
   -1.1900   -0.6969   -0.0000 C   0  0  0  0  0  0  0  0  0  0  0  0
   -2.0712   -1.1901    0.0054 H   0  0  0  0  0  0  0  0  0  0  0  0
   -0.0023   -1.3795   -0.0047 C   0  0  0  0  0  0  0  0  0  0  0  0
   -0.0009   -2.3852   -0.0123 H   0  0  0  0  0  0  0  0  0  0  0  0
    1.1900   -0.6893   -0.0000 C   0  0  0  0  0  0  0  0  0  0  0  0
    2.0739   -1.1936    0.0034 H   0  0  0  0  0  0  0  0  0  0  0  0
    1.1906    0.6852    0.0025 C   0  0  0  0  0  0  0  0  0  0  0  0
    2.0603    1.1846    0.0032 H   0  0  0  0  0  0  0  0  0  0  0  0
  1  5  1  0
  5  8  1  0
  1  2  1  0
  1  3  1  0
  1  4  1  0
  5  6  1  0
  5  7  1  0
  8  9  1  0
  8 10  1  0
  8 11  1  0
 12 16  1  0
 16 17  2  0
 17 19  1  0
 19 21  2  0
 21 23  1  0
 23 25  2  0
 25 16  1  0
 12 13  1  0
 12 14  1  0
 12 15  1  0
 17 18  1  0
 19 20  1  0
 21 22  1  0
 23 24  1  0
 25 26  1  0
M  CHG  1   8   1
M  END
>  <PDB_ID>  (3492) 
pdb5xpc

>  <RESIDUE_NAME>  (3492) 
LYS   PHE

>  <FRAG_NAME>  (3492) 
ETAM   MBZ

>  <FRAG_ATOM_NUM>  (3492) 
fragi: 11  fragj: 15

>  <atom.prop.CHAIN_ID>  (3492) 
A A A A A A A A A A A Z Z Z Z Z Z Z Z Z Z Z Z Z Z Z

>  <atom.prop.IS_HEAVY_ATOM>  (3492) 
1 0 0 0 1 0 0 1 0 0 0 1 0 0 0 1 1 0 1 0 1 0 1 0 1 0

>  <DIFUSE_FUNC_ATOM>  (3492) 
n/a

>  <FINAL_SINGLE_POINT_ENERGY>  (3492) 
0

>  <NONCOV_INTER_ENERGY_QM>  (3492) 
0

>  <FF_Energy>  (3492) 
-3.77

>  <QM_Energy>  (3492) 
-9.27

>  <source>  (3492) 
ETAM_MBZ

>  <Index>  (3492) 
38603

$$$$
ETAM-pdb5xm6-C-LYS-119:MBZ-pdb5xm6-C-PHE-96
     RDKit          3D

 26 25  0  0  0  0  0  0  0  0999 V2000
    0.2499   -1.2319   -4.7317 C   0  0  0  0  0  0  0  0  0  0  0  0
    0.7371   -1.9372   -5.2377 H   0  0  0  0  0  0  0  0  0  0  0  0
    0.4085   -0.3396   -5.1442 H   0  0  0  0  0  0  0  0  0  0  0  0
   -0.8176   -1.4504   -4.7577 H   0  0  0  0  0  0  0  0  0  0  0  0
    0.7831   -1.2062   -3.3061 C   0  0  0  0  0  0  0  0  0  0  0  0
    0.0585   -0.8766   -2.6908 H   0  0  0  0  0  0  0  0  0  0  0  0
    1.0321   -2.1419   -3.0313 H   0  0  0  0  0  0  0  0  0  0  0  0
    1.9897   -0.3206   -3.1470 N   0  0  0  0  0  4  0  0  0  0  0  0
    2.5655   -0.6873   -2.4208 H   0  0  0  0  0  0  0  0  0  0  0  0
    2.4939   -0.3037   -4.0071 H   0  0  0  0  0  0  0  0  0  0  0  0
    1.6868    0.5996   -2.9107 H   0  0  0  0  0  0  0  0  0  0  0  0
   -0.0057    2.9188    0.0118 C   0  0  0  0  0  0  0  0  0  0  0  0
    0.9275    3.2218    0.1232 H   0  0  0  0  0  0  0  0  0  0  0  0
   -0.5751    3.2111    0.7640 H   0  0  0  0  0  0  0  0  0  0  0  0
   -0.3982    3.3655   -0.9017 H   0  0  0  0  0  0  0  0  0  0  0  0
   -0.0001    1.4028   -0.0007 C   0  0  0  0  0  0  0  0  0  0  0  0
   -1.1979    0.6864    0.0001 C   0  0  0  0  0  0  0  0  0  0  0  0
   -2.0654    1.1768   -0.0010 H   0  0  0  0  0  0  0  0  0  0  0  0
   -1.2007   -0.7037    0.0000 C   0  0  0  0  0  0  0  0  0  0  0  0
   -2.0758   -1.1984    0.0002 H   0  0  0  0  0  0  0  0  0  0  0  0
    0.0005   -1.3912    0.0009 C   0  0  0  0  0  0  0  0  0  0  0  0
    0.0053   -2.3905    0.0015 H   0  0  0  0  0  0  0  0  0  0  0  0
    1.2007   -0.6881    0.0000 C   0  0  0  0  0  0  0  0  0  0  0  0
    2.0833   -1.1904    0.0006 H   0  0  0  0  0  0  0  0  0  0  0  0
    1.1975    0.6938   -0.0003 C   0  0  0  0  0  0  0  0  0  0  0  0
    2.0645    1.1944   -0.0013 H   0  0  0  0  0  0  0  0  0  0  0  0
  1  5  1  0
  5  8  1  0
  1  2  1  0
  1  3  1  0
  1  4  1  0
  5  6  1  0
  5  7  1  0
  8  9  1  0
  8 10  1  0
  8 11  1  0
 12 16  1  0
 16 17  2  0
 17 19  1  0
 19 21  2  0
 21 23  1  0
 23 25  2  0
 25 16  1  0
 12 13  1  0
 12 14  1  0
 12 15  1  0
 17 18  1  0
 19 20  1  0
 21 22  1  0
 23 24  1  0
 25 26  1  0
M  CHG  1   8   1
M  END
>  <PDB_ID>  (3493) 
pdb5xm6

>  <RESIDUE_NAME>  (3493) 
LYS   PHE

>  <FRAG_NAME>  (3493) 
ETAM   MBZ

>  <FRAG_ATOM_NUM>  (3493) 
fragi: 11  fragj: 15

>  <atom.prop.CHAIN_ID>  (3493) 
A A A A A A A A A A A Z Z Z Z Z Z Z Z Z Z Z Z Z Z Z

>  <atom.prop.IS_HEAVY_ATOM>  (3493) 
1 0 0 0 1 0 0 1 0 0 0 1 0 0 0 1 1 0 1 0 1 0 1 0 1 0

>  <DIFUSE_FUNC_ATOM>  (3493) 
n/a

>  <FINAL_SINGLE_POINT_ENERGY>  (3493) 
0

>  <NONCOV_INTER_ENERGY_QM>  (3493) 
0

>  <FF_Energy>  (3493) 
-5.31

>  <QM_Energy>  (3493) 
-11.89

>  <source>  (3493) 
ETAM_MBZ

>  <Index>  (3493) 
38622

$$$$
ETAM-pdb5xu6-B-LYS-277:MBZ-pdb5xu6-B-PHE-201
     RDKit          3D

 26 25  0  0  0  0  0  0  0  0999 V2000
    3.6346    2.4072   -0.1744 C   0  0  0  0  0  0  0  0  0  0  0  0
    4.3098    3.0344   -0.5650 H   0  0  0  0  0  0  0  0  0  0  0  0
    2.7282    2.6299   -0.5352 H   0  0  0  0  0  0  0  0  0  0  0  0
    3.8895    1.3898   -0.4709 H   0  0  0  0  0  0  0  0  0  0  0  0
    3.6158    2.5891    1.3254 C   0  0  0  0  0  0  0  0  0  0  0  0
    2.9401    1.9687    1.7233 H   0  0  0  0  0  0  0  0  0  0  0  0
    4.5211    2.3737    1.6941 H   0  0  0  0  0  0  0  0  0  0  0  0
    3.2645    3.9871    1.6811 N   0  0  0  0  0  4  0  0  0  0  0  0
    2.3091    4.1618    1.4439 H   0  0  0  0  0  0  0  0  0  0  0  0
    3.3951    4.1230    2.6639 H   0  0  0  0  0  0  0  0  0  0  0  0
    3.8548    4.6176    1.1759 H   0  0  0  0  0  0  0  0  0  0  0  0
    0.0032    2.9011   -0.0131 C   0  0  0  0  0  0  0  0  0  0  0  0
   -0.7728    3.2012   -0.5483 H   0  0  0  0  0  0  0  0  0  0  0  0
    0.8545    3.2012   -0.4196 H   0  0  0  0  0  0  0  0  0  0  0  0
   -0.0749    3.3572    0.9738 H   0  0  0  0  0  0  0  0  0  0  0  0
    0.0016    1.3970    0.0029 C   0  0  0  0  0  0  0  0  0  0  0  0
   -1.1926    0.6899   -0.0017 C   0  0  0  0  0  0  0  0  0  0  0  0
   -2.0598    1.1820   -0.0081 H   0  0  0  0  0  0  0  0  0  0  0  0
   -1.1968   -0.6942    0.0000 C   0  0  0  0  0  0  0  0  0  0  0  0
   -2.0762   -1.1882    0.0030 H   0  0  0  0  0  0  0  0  0  0  0  0
   -0.0029   -1.3875   -0.0001 C   0  0  0  0  0  0  0  0  0  0  0  0
   -0.0055   -2.3882   -0.0005 H   0  0  0  0  0  0  0  0  0  0  0  0
    1.1968   -0.6948    0.0000 C   0  0  0  0  0  0  0  0  0  0  0  0
    2.0772   -1.1955    0.0021 H   0  0  0  0  0  0  0  0  0  0  0  0
    1.1939    0.6897   -0.0012 C   0  0  0  0  0  0  0  0  0  0  0  0
    2.0636    1.1874   -0.0056 H   0  0  0  0  0  0  0  0  0  0  0  0
  1  5  1  0
  5  8  1  0
  1  2  1  0
  1  3  1  0
  1  4  1  0
  5  6  1  0
  5  7  1  0
  8  9  1  0
  8 10  1  0
  8 11  1  0
 12 16  1  0
 16 17  2  0
 17 19  1  0
 19 21  2  0
 21 23  1  0
 23 25  2  0
 25 16  1  0
 12 13  1  0
 12 14  1  0
 12 15  1  0
 17 18  1  0
 19 20  1  0
 21 22  1  0
 23 24  1  0
 25 26  1  0
M  CHG  1   8   1
M  END
>  <PDB_ID>  (3494) 
pdb5xu6

>  <RESIDUE_NAME>  (3494) 
LYS   PHE

>  <FRAG_NAME>  (3494) 
ETAM   MBZ

>  <FRAG_ATOM_NUM>  (3494) 
fragi: 11  fragj: 15

>  <atom.prop.CHAIN_ID>  (3494) 
A A A A A A A A A A A Z Z Z Z Z Z Z Z Z Z Z Z Z Z Z

>  <atom.prop.IS_HEAVY_ATOM>  (3494) 
1 0 0 0 1 0 0 1 0 0 0 1 0 0 0 1 1 0 1 0 1 0 1 0 1 0

>  <DIFUSE_FUNC_ATOM>  (3494) 
n/a

>  <FINAL_SINGLE_POINT_ENERGY>  (3494) 
0

>  <NONCOV_INTER_ENERGY_QM>  (3494) 
0

>  <FF_Energy>  (3494) 
39.01

>  <QM_Energy>  (3494) 
4.28

>  <source>  (3494) 
ETAM_MBZ

>  <Index>  (3494) 
38629

$$$$
ETAM-pdb5xu6-D-LYS-403:MBZ-pdb5xu6-D-PHE-186
     RDKit          3D

 26 25  0  0  0  0  0  0  0  0999 V2000
   -0.6048   -4.1013   -3.0387 C   0  0  0  0  0  0  0  0  0  0  0  0
   -0.5802   -4.0323   -2.0502 H   0  0  0  0  0  0  0  0  0  0  0  0
   -0.4298   -5.0304   -3.3351 H   0  0  0  0  0  0  0  0  0  0  0  0
   -1.5923   -3.7998   -3.3878 H   0  0  0  0  0  0  0  0  0  0  0  0
    0.4795   -3.1928   -3.6176 C   0  0  0  0  0  0  0  0  0  0  0  0
    0.6338   -3.4476   -4.5790 H   0  0  0  0  0  0  0  0  0  0  0  0
    0.1503   -2.2414   -3.5916 H   0  0  0  0  0  0  0  0  0  0  0  0
    1.7686   -3.2837   -2.8751 N   0  0  0  0  0  4  0  0  0  0  0  0
    2.4072   -2.6069   -3.2382 H   0  0  0  0  0  0  0  0  0  0  0  0
    1.6054   -3.1050   -1.9056 H   0  0  0  0  0  0  0  0  0  0  0  0
    2.1501   -4.1999   -2.9873 H   0  0  0  0  0  0  0  0  0  0  0  0
   -0.0025    2.9065    0.0046 C   0  0  0  0  0  0  0  0  0  0  0  0
   -0.7593    3.2120   -0.5505 H   0  0  0  0  0  0  0  0  0  0  0  0
    0.8630    3.2130   -0.3602 H   0  0  0  0  0  0  0  0  0  0  0  0
   -0.1195    3.3418    0.9970 H   0  0  0  0  0  0  0  0  0  0  0  0
   -0.0008    1.3988    0.0007 C   0  0  0  0  0  0  0  0  0  0  0  0
   -1.1930    0.6905    0.0002 C   0  0  0  0  0  0  0  0  0  0  0  0
   -2.0610    1.1803   -0.0014 H   0  0  0  0  0  0  0  0  0  0  0  0
   -1.1958   -0.6962   -0.0000 C   0  0  0  0  0  0  0  0  0  0  0  0
   -2.0734   -1.1907    0.0020 H   0  0  0  0  0  0  0  0  0  0  0  0
    0.0018   -1.3888   -0.0008 C   0  0  0  0  0  0  0  0  0  0  0  0
   -0.0030   -2.3900   -0.0030 H   0  0  0  0  0  0  0  0  0  0  0  0
    1.1958   -0.6957   -0.0000 C   0  0  0  0  0  0  0  0  0  0  0  0
    2.0800   -1.1923    0.0020 H   0  0  0  0  0  0  0  0  0  0  0  0
    1.1920    0.6914   -0.0001 C   0  0  0  0  0  0  0  0  0  0  0  0
    2.0618    1.1883   -0.0017 H   0  0  0  0  0  0  0  0  0  0  0  0
  1  5  1  0
  5  8  1  0
  1  2  1  0
  1  3  1  0
  1  4  1  0
  5  6  1  0
  5  7  1  0
  8  9  1  0
  8 10  1  0
  8 11  1  0
 12 16  1  0
 16 17  2  0
 17 19  1  0
 19 21  2  0
 21 23  1  0
 23 25  2  0
 25 16  1  0
 12 13  1  0
 12 14  1  0
 12 15  1  0
 17 18  1  0
 19 20  1  0
 21 22  1  0
 23 24  1  0
 25 26  1  0
M  CHG  1   8   1
M  END
>  <PDB_ID>  (3495) 
pdb5xu6

>  <RESIDUE_NAME>  (3495) 
LYS   PHE

>  <FRAG_NAME>  (3495) 
ETAM   MBZ

>  <FRAG_ATOM_NUM>  (3495) 
fragi: 11  fragj: 15

>  <atom.prop.CHAIN_ID>  (3495) 
A A A A A A A A A A A Z Z Z Z Z Z Z Z Z Z Z Z Z Z Z

>  <atom.prop.IS_HEAVY_ATOM>  (3495) 
1 0 0 0 1 0 0 1 0 0 0 1 0 0 0 1 1 0 1 0 1 0 1 0 1 0

>  <DIFUSE_FUNC_ATOM>  (3495) 
n/a

>  <FINAL_SINGLE_POINT_ENERGY>  (3495) 
0

>  <NONCOV_INTER_ENERGY_QM>  (3495) 
0

>  <FF_Energy>  (3495) 
-1.92

>  <QM_Energy>  (3495) 
-6.98

>  <source>  (3495) 
ETAM_MBZ

>  <Index>  (3495) 
38634

$$$$
ETAM-pdb5xyb-B-LYS-137:MBZ-pdb5xyb-B-PHE-133
     RDKit          3D

 26 25  0  0  0  0  0  0  0  0999 V2000
   -1.9009   -2.2591   -3.1494 C   0  0  0  0  0  0  0  0  0  0  0  0
   -1.1842   -2.4614   -3.8047 H   0  0  0  0  0  0  0  0  0  0  0  0
   -1.6065   -1.5603   -2.5101 H   0  0  0  0  0  0  0  0  0  0  0  0
   -2.7725   -1.8914   -3.6907 H   0  0  0  0  0  0  0  0  0  0  0  0
   -2.2268   -3.5301   -2.3705 C   0  0  0  0  0  0  0  0  0  0  0  0
   -3.1185   -3.4065   -1.9094 H   0  0  0  0  0  0  0  0  0  0  0  0
   -2.3246   -4.2946   -3.0255 H   0  0  0  0  0  0  0  0  0  0  0  0
   -1.2009   -3.8929   -1.3527 N   0  0  0  0  0  4  0  0  0  0  0  0
   -1.1445   -4.8884   -1.2805 H   0  0  0  0  0  0  0  0  0  0  0  0
   -0.3141   -3.5256   -1.6320 H   0  0  0  0  0  0  0  0  0  0  0  0
   -1.4607   -3.5067   -0.4682 H   0  0  0  0  0  0  0  0  0  0  0  0
    0.0113    2.9003   -0.0146 C   0  0  0  0  0  0  0  0  0  0  0  0
    0.8451    3.2054    0.4183 H   0  0  0  0  0  0  0  0  0  0  0  0
   -0.7872    3.2186    0.4733 H   0  0  0  0  0  0  0  0  0  0  0  0
   -0.0196    3.3282   -1.0167 H   0  0  0  0  0  0  0  0  0  0  0  0
    0.0003    1.3987    0.0008 C   0  0  0  0  0  0  0  0  0  0  0  0
   -1.2004    0.6931   -0.0008 C   0  0  0  0  0  0  0  0  0  0  0  0
   -2.0635    1.1838   -0.0038 H   0  0  0  0  0  0  0  0  0  0  0  0
   -1.2017   -0.6961   -0.0000 C   0  0  0  0  0  0  0  0  0  0  0  0
   -2.0755   -1.1936    0.0003 H   0  0  0  0  0  0  0  0  0  0  0  0
    0.0045   -1.3890    0.0019 C   0  0  0  0  0  0  0  0  0  0  0  0
   -0.0003   -2.3898    0.0044 H   0  0  0  0  0  0  0  0  0  0  0  0
    1.2017   -0.6944    0.0000 C   0  0  0  0  0  0  0  0  0  0  0  0
    2.0837   -1.1938    0.0015 H   0  0  0  0  0  0  0  0  0  0  0  0
    1.1956    0.6877   -0.0019 C   0  0  0  0  0  0  0  0  0  0  0  0
    2.0648    1.1884   -0.0058 H   0  0  0  0  0  0  0  0  0  0  0  0
  1  5  1  0
  5  8  1  0
  1  2  1  0
  1  3  1  0
  1  4  1  0
  5  6  1  0
  5  7  1  0
  8  9  1  0
  8 10  1  0
  8 11  1  0
 12 16  1  0
 16 17  2  0
 17 19  1  0
 19 21  2  0
 21 23  1  0
 23 25  2  0
 25 16  1  0
 12 13  1  0
 12 14  1  0
 12 15  1  0
 17 18  1  0
 19 20  1  0
 21 22  1  0
 23 24  1  0
 25 26  1  0
M  CHG  1   8   1
M  END
>  <PDB_ID>  (3496) 
pdb5xyb

>  <RESIDUE_NAME>  (3496) 
LYS   PHE

>  <FRAG_NAME>  (3496) 
ETAM   MBZ

>  <FRAG_ATOM_NUM>  (3496) 
fragi: 11  fragj: 15

>  <atom.prop.CHAIN_ID>  (3496) 
A A A A A A A A A A A Z Z Z Z Z Z Z Z Z Z Z Z Z Z Z

>  <atom.prop.IS_HEAVY_ATOM>  (3496) 
1 0 0 0 1 0 0 1 0 0 0 1 0 0 0 1 1 0 1 0 1 0 1 0 1 0

>  <DIFUSE_FUNC_ATOM>  (3496) 
n/a

>  <FINAL_SINGLE_POINT_ENERGY>  (3496) 
0

>  <NONCOV_INTER_ENERGY_QM>  (3496) 
0

>  <FF_Energy>  (3496) 
3.31

>  <QM_Energy>  (3496) 
-4.68

>  <source>  (3496) 
ETAM_MBZ

>  <Index>  (3496) 
38657

$$$$
ETAM-pdb5y0s-A-LYS-301:MBZ-pdb5y0s-A-PHE-307
     RDKit          3D

 26 25  0  0  0  0  0  0  0  0999 V2000
    0.0878   -0.3630   -3.3803 C   0  0  0  0  0  0  0  0  0  0  0  0
   -0.2842    0.4115   -3.8767 H   0  0  0  0  0  0  0  0  0  0  0  0
   -0.1226   -0.2967   -2.4134 H   0  0  0  0  0  0  0  0  0  0  0  0
   -0.3531   -1.2782   -3.7755 H   0  0  0  0  0  0  0  0  0  0  0  0
    1.6000   -0.3701   -3.5500 C   0  0  0  0  0  0  0  0  0  0  0  0
    1.9614    0.5309   -3.2954 H   0  0  0  0  0  0  0  0  0  0  0  0
    1.9938   -1.0623   -2.9391 H   0  0  0  0  0  0  0  0  0  0  0  0
    2.0058   -0.6767   -4.9579 N   0  0  0  0  0  4  0  0  0  0  0  0
    2.9137   -1.0910   -4.9539 H   0  0  0  0  0  0  0  0  0  0  0  0
    1.3469   -1.3107   -5.3583 H   0  0  0  0  0  0  0  0  0  0  0  0
    2.0231    0.1706   -5.4850 H   0  0  0  0  0  0  0  0  0  0  0  0
   -0.0176    2.9021   -0.0279 C   0  0  0  0  0  0  0  0  0  0  0  0
    0.9095    3.2211    0.0801 H   0  0  0  0  0  0  0  0  0  0  0  0
   -0.6017    3.2192    0.7003 H   0  0  0  0  0  0  0  0  0  0  0  0
   -0.4020    3.3084   -0.9635 H   0  0  0  0  0  0  0  0  0  0  0  0
   -0.0043    1.4039    0.0008 C   0  0  0  0  0  0  0  0  0  0  0  0
   -1.1951    0.6924   -0.0003 C   0  0  0  0  0  0  0  0  0  0  0  0
   -2.0648    1.1781   -0.0029 H   0  0  0  0  0  0  0  0  0  0  0  0
   -1.1961   -0.6996   -0.0000 C   0  0  0  0  0  0  0  0  0  0  0  0
   -2.0717   -1.1953    0.0018 H   0  0  0  0  0  0  0  0  0  0  0  0
    0.0077   -1.3962   -0.0002 C   0  0  0  0  0  0  0  0  0  0  0  0
    0.0005   -2.3945   -0.0011 H   0  0  0  0  0  0  0  0  0  0  0  0
    1.1961   -0.6991    0.0000 C   0  0  0  0  0  0  0  0  0  0  0  0
    2.0851   -1.1887    0.0023 H   0  0  0  0  0  0  0  0  0  0  0  0
    1.1917    0.6986   -0.0004 C   0  0  0  0  0  0  0  0  0  0  0  0
    2.0604    1.1919   -0.0022 H   0  0  0  0  0  0  0  0  0  0  0  0
  1  5  1  0
  5  8  1  0
  1  2  1  0
  1  3  1  0
  1  4  1  0
  5  6  1  0
  5  7  1  0
  8  9  1  0
  8 10  1  0
  8 11  1  0
 12 16  1  0
 16 17  2  0
 17 19  1  0
 19 21  2  0
 21 23  1  0
 23 25  2  0
 25 16  1  0
 12 13  1  0
 12 14  1  0
 12 15  1  0
 17 18  1  0
 19 20  1  0
 21 22  1  0
 23 24  1  0
 25 26  1  0
M  CHG  1   8   1
M  END
>  <PDB_ID>  (3497) 
pdb5y0s

>  <RESIDUE_NAME>  (3497) 
LYS   PHE

>  <FRAG_NAME>  (3497) 
ETAM   MBZ

>  <FRAG_ATOM_NUM>  (3497) 
fragi: 11  fragj: 15

>  <atom.prop.CHAIN_ID>  (3497) 
A A A A A A A A A A A Z Z Z Z Z Z Z Z Z Z Z Z Z Z Z

>  <atom.prop.IS_HEAVY_ATOM>  (3497) 
1 0 0 0 1 0 0 1 0 0 0 1 0 0 0 1 1 0 1 0 1 0 1 0 1 0

>  <DIFUSE_FUNC_ATOM>  (3497) 
n/a

>  <FINAL_SINGLE_POINT_ENERGY>  (3497) 
0

>  <NONCOV_INTER_ENERGY_QM>  (3497) 
0

>  <FF_Energy>  (3497) 
-3.42

>  <QM_Energy>  (3497) 
-8.53

>  <source>  (3497) 
ETAM_MBZ

>  <Index>  (3497) 
38687

$$$$
ETAM-pdb5y0s-B-LYS-264:MBZ-pdb5y0s-B-PHE-260
     RDKit          3D

 26 25  0  0  0  0  0  0  0  0999 V2000
   -1.8241   -1.8887   -4.6367 C   0  0  0  0  0  0  0  0  0  0  0  0
   -2.4525   -2.5646   -5.0281 H   0  0  0  0  0  0  0  0  0  0  0  0
   -1.2988   -1.4636   -5.3775 H   0  0  0  0  0  0  0  0  0  0  0  0
   -2.4097   -1.1170   -4.1372 H   0  0  0  0  0  0  0  0  0  0  0  0
   -0.8548   -2.6116   -3.7115 C   0  0  0  0  0  0  0  0  0  0  0  0
   -1.3611   -2.9284   -2.9009 H   0  0  0  0  0  0  0  0  0  0  0  0
   -0.4922   -3.4180   -4.1926 H   0  0  0  0  0  0  0  0  0  0  0  0
    0.2656   -1.7490   -3.2859 N   0  0  0  0  0  4  0  0  0  0  0  0
    0.3330   -1.7518   -2.2868 H   0  0  0  0  0  0  0  0  0  0  0  0
    1.1227   -2.0919   -3.6749 H   0  0  0  0  0  0  0  0  0  0  0  0
    0.1099   -0.8126   -3.6042 H   0  0  0  0  0  0  0  0  0  0  0  0
    0.0018    2.9164    0.0351 C   0  0  0  0  0  0  0  0  0  0  0  0
    0.8260    3.2068    0.5017 H   0  0  0  0  0  0  0  0  0  0  0  0
   -0.8065    3.2069    0.5286 H   0  0  0  0  0  0  0  0  0  0  0  0
   -0.0139    3.4023   -0.9405 H   0  0  0  0  0  0  0  0  0  0  0  0
    0.0006    1.4041   -0.0077 C   0  0  0  0  0  0  0  0  0  0  0  0
   -1.1954    0.6955    0.0064 C   0  0  0  0  0  0  0  0  0  0  0  0
   -2.0621    1.1873    0.0197 H   0  0  0  0  0  0  0  0  0  0  0  0
   -1.2015   -0.6929    0.0000 C   0  0  0  0  0  0  0  0  0  0  0  0
   -2.0811   -1.1854   -0.0017 H   0  0  0  0  0  0  0  0  0  0  0  0
   -0.0040   -1.3958   -0.0016 C   0  0  0  0  0  0  0  0  0  0  0  0
   -0.0115   -2.3933   -0.0040 H   0  0  0  0  0  0  0  0  0  0  0  0
    1.2015   -0.7026   -0.0000 C   0  0  0  0  0  0  0  0  0  0  0  0
    2.0799   -1.2011    0.0001 H   0  0  0  0  0  0  0  0  0  0  0  0
    1.1988    0.6917    0.0029 C   0  0  0  0  0  0  0  0  0  0  0  0
    2.0671    1.1860    0.0122 H   0  0  0  0  0  0  0  0  0  0  0  0
  1  5  1  0
  5  8  1  0
  1  2  1  0
  1  3  1  0
  1  4  1  0
  5  6  1  0
  5  7  1  0
  8  9  1  0
  8 10  1  0
  8 11  1  0
 12 16  1  0
 16 17  2  0
 17 19  1  0
 19 21  2  0
 21 23  1  0
 23 25  2  0
 25 16  1  0
 12 13  1  0
 12 14  1  0
 12 15  1  0
 17 18  1  0
 19 20  1  0
 21 22  1  0
 23 24  1  0
 25 26  1  0
M  CHG  1   8   1
M  END
>  <PDB_ID>  (3498) 
pdb5y0s

>  <RESIDUE_NAME>  (3498) 
LYS   PHE

>  <FRAG_NAME>  (3498) 
ETAM   MBZ

>  <FRAG_ATOM_NUM>  (3498) 
fragi: 11  fragj: 15

>  <atom.prop.CHAIN_ID>  (3498) 
A A A A A A A A A A A Z Z Z Z Z Z Z Z Z Z Z Z Z Z Z

>  <atom.prop.IS_HEAVY_ATOM>  (3498) 
1 0 0 0 1 0 0 1 0 0 0 1 0 0 0 1 1 0 1 0 1 0 1 0 1 0

>  <DIFUSE_FUNC_ATOM>  (3498) 
n/a

>  <FINAL_SINGLE_POINT_ENERGY>  (3498) 
0

>  <NONCOV_INTER_ENERGY_QM>  (3498) 
0

>  <FF_Energy>  (3498) 
-5.99

>  <QM_Energy>  (3498) 
-13.76

>  <source>  (3498) 
ETAM_MBZ

>  <Index>  (3498) 
38689

$$$$
ETAM-pdb5y6t-A-LYS-233:MBZ-pdb5y6t-A-PHE-19
     RDKit          3D

 26 25  0  0  0  0  0  0  0  0999 V2000
   -0.9830    1.1883   -3.4419 C   0  0  0  0  0  0  0  0  0  0  0  0
   -0.6677    1.6503   -4.2608 H   0  0  0  0  0  0  0  0  0  0  0  0
   -0.8829    1.7714   -2.6469 H   0  0  0  0  0  0  0  0  0  0  0  0
   -2.0403    0.9543   -3.5663 H   0  0  0  0  0  0  0  0  0  0  0  0
   -0.2008   -0.0663   -3.2428 C   0  0  0  0  0  0  0  0  0  0  0  0
   -0.3235   -0.3987   -2.3018 H   0  0  0  0  0  0  0  0  0  0  0  0
   -0.5260   -0.7759   -3.8770 H   0  0  0  0  0  0  0  0  0  0  0  0
    1.2651    0.1454   -3.4825 N   0  0  0  0  0  4  0  0  0  0  0  0
    1.7588   -0.6862   -3.2363 H   0  0  0  0  0  0  0  0  0  0  0  0
    1.4103    0.3537   -4.4471 H   0  0  0  0  0  0  0  0  0  0  0  0
    1.5806    0.9064   -2.9199 H   0  0  0  0  0  0  0  0  0  0  0  0
    0.0041    2.9108   -0.0179 C   0  0  0  0  0  0  0  0  0  0  0  0
   -0.8266    3.2079   -0.4642 H   0  0  0  0  0  0  0  0  0  0  0  0
    0.8062    3.2084   -0.5127 H   0  0  0  0  0  0  0  0  0  0  0  0
    0.0341    3.3528    0.9780 H   0  0  0  0  0  0  0  0  0  0  0  0
    0.0046    1.4041   -0.0065 C   0  0  0  0  0  0  0  0  0  0  0  0
   -1.2072    0.6882    0.0091 C   0  0  0  0  0  0  0  0  0  0  0  0
   -2.0654    1.1919    0.0260 H   0  0  0  0  0  0  0  0  0  0  0  0
   -1.2141   -0.6882    0.0000 C   0  0  0  0  0  0  0  0  0  0  0  0
   -2.0851   -1.1923   -0.0054 H   0  0  0  0  0  0  0  0  0  0  0  0
   -0.0005   -1.4006   -0.0007 C   0  0  0  0  0  0  0  0  0  0  0  0
   -0.0092   -2.3911   -0.0025 H   0  0  0  0  0  0  0  0  0  0  0  0
    1.2141   -0.6970   -0.0000 C   0  0  0  0  0  0  0  0  0  0  0  0
    2.0884   -1.1972    0.0040 H   0  0  0  0  0  0  0  0  0  0  0  0
    1.2031    0.6934   -0.0020 C   0  0  0  0  0  0  0  0  0  0  0  0
    2.0715    1.1933   -0.0007 H   0  0  0  0  0  0  0  0  0  0  0  0
  1  5  1  0
  5  8  1  0
  1  2  1  0
  1  3  1  0
  1  4  1  0
  5  6  1  0
  5  7  1  0
  8  9  1  0
  8 10  1  0
  8 11  1  0
 12 16  1  0
 16 17  2  0
 17 19  1  0
 19 21  2  0
 21 23  1  0
 23 25  2  0
 25 16  1  0
 12 13  1  0
 12 14  1  0
 12 15  1  0
 17 18  1  0
 19 20  1  0
 21 22  1  0
 23 24  1  0
 25 26  1  0
M  CHG  1   8   1
M  END
>  <PDB_ID>  (3499) 
pdb5y6t

>  <RESIDUE_NAME>  (3499) 
LYS   PHE

>  <FRAG_NAME>  (3499) 
ETAM   MBZ

>  <FRAG_ATOM_NUM>  (3499) 
fragi: 11  fragj: 15

>  <atom.prop.CHAIN_ID>  (3499) 
A A A A A A A A A A A Z Z Z Z Z Z Z Z Z Z Z Z Z Z Z

>  <atom.prop.IS_HEAVY_ATOM>  (3499) 
1 0 0 0 1 0 0 1 0 0 0 1 0 0 0 1 1 0 1 0 1 0 1 0 1 0

>  <DIFUSE_FUNC_ATOM>  (3499) 
n/a

>  <FINAL_SINGLE_POINT_ENERGY>  (3499) 
0

>  <NONCOV_INTER_ENERGY_QM>  (3499) 
0

>  <FF_Energy>  (3499) 
-4.96

>  <QM_Energy>  (3499) 
-13.59

>  <source>  (3499) 
ETAM_MBZ

>  <Index>  (3499) 
38736

$$$$
ETAM-pdb5xxq-B-LYS-376:MBZ-pdb5xxq-B-PHE-321
     RDKit          3D

 26 25  0  0  0  0  0  0  0  0999 V2000
    4.1511    0.2124    3.6681 C   0  0  0  0  0  0  0  0  0  0  0  0
    4.4324   -0.5762    3.1612 H   0  0  0  0  0  0  0  0  0  0  0  0
    3.9498    0.0151    4.6054 H   0  0  0  0  0  0  0  0  0  0  0  0
    4.9225    0.9804    3.6103 H   0  0  0  0  0  0  0  0  0  0  0  0
    2.8772    0.7774    3.0118 C   0  0  0  0  0  0  0  0  0  0  0  0
    2.6152    1.6252    3.5115 H   0  0  0  0  0  0  0  0  0  0  0  0
    3.1118    1.0614    2.0625 H   0  0  0  0  0  0  0  0  0  0  0  0
    1.7121   -0.1441    2.9704 N   0  0  0  0  0  4  0  0  0  0  0  0
    1.8236   -0.7870    2.2128 H   0  0  0  0  0  0  0  0  0  0  0  0
    1.6563   -0.6490    3.8319 H   0  0  0  0  0  0  0  0  0  0  0  0
    0.8735    0.3848    2.8387 H   0  0  0  0  0  0  0  0  0  0  0  0
   -0.0072    2.9019   -0.0306 C   0  0  0  0  0  0  0  0  0  0  0  0
    0.8800    3.2231    0.2404 H   0  0  0  0  0  0  0  0  0  0  0  0
   -0.7227    3.2285    0.5574 H   0  0  0  0  0  0  0  0  0  0  0  0
   -0.2046    3.2790   -1.0340 H   0  0  0  0  0  0  0  0  0  0  0  0
   -0.0028    1.4065    0.0152 C   0  0  0  0  0  0  0  0  0  0  0  0
   -1.1944    0.7030   -0.0189 C   0  0  0  0  0  0  0  0  0  0  0  0
   -2.0639    1.1726   -0.0577 H   0  0  0  0  0  0  0  0  0  0  0  0
   -1.1901   -0.7164    0.0000 C   0  0  0  0  0  0  0  0  0  0  0  0
   -2.0680   -1.1998    0.0142 H   0  0  0  0  0  0  0  0  0  0  0  0
    0.0108   -1.4025    0.0009 C   0  0  0  0  0  0  0  0  0  0  0  0
    0.0136   -2.4014    0.0023 H   0  0  0  0  0  0  0  0  0  0  0  0
    1.1901   -0.6962   -0.0000 C   0  0  0  0  0  0  0  0  0  0  0  0
    2.0858   -1.1805   -0.0015 H   0  0  0  0  0  0  0  0  0  0  0  0
    1.1864    0.7057    0.0028 C   0  0  0  0  0  0  0  0  0  0  0  0
    2.0580    1.1939   -0.0049 H   0  0  0  0  0  0  0  0  0  0  0  0
  1  5  1  0
  5  8  1  0
  1  2  1  0
  1  3  1  0
  1  4  1  0
  5  6  1  0
  5  7  1  0
  8  9  1  0
  8 10  1  0
  8 11  1  0
 12 16  1  0
 16 17  2  0
 17 19  1  0
 19 21  2  0
 21 23  1  0
 23 25  2  0
 25 16  1  0
 12 13  1  0
 12 14  1  0
 12 15  1  0
 17 18  1  0
 19 20  1  0
 21 22  1  0
 23 24  1  0
 25 26  1  0
M  CHG  1   8   1
M  END
>  <PDB_ID>  (3500) 
pdb5xxq

>  <RESIDUE_NAME>  (3500) 
LYS   PHE

>  <FRAG_NAME>  (3500) 
ETAM   MBZ

>  <FRAG_ATOM_NUM>  (3500) 
fragi: 11  fragj: 15

>  <atom.prop.CHAIN_ID>  (3500) 
A A A A A A A A A A A Z Z Z Z Z Z Z Z Z Z Z Z Z Z Z

>  <atom.prop.IS_HEAVY_ATOM>  (3500) 
1 0 0 0 1 0 0 1 0 0 0 1 0 0 0 1 1 0 1 0 1 0 1 0 1 0

>  <DIFUSE_FUNC_ATOM>  (3500) 
n/a

>  <FINAL_SINGLE_POINT_ENERGY>  (3500) 
0

>  <NONCOV_INTER_ENERGY_QM>  (3500) 
0

>  <FF_Energy>  (3500) 
-5.6

>  <QM_Energy>  (3500) 
-13.09

>  <source>  (3500) 
ETAM_MBZ

>  <Index>  (3500) 
38738

$$$$
ETAM-pdb5y9w-C-LYS-41:MBZ-pdb5y9w-C-PHE-38
     RDKit          3D

 26 25  0  0  0  0  0  0  0  0999 V2000
   -3.6565    0.8041    3.5156 C   0  0  0  0  0  0  0  0  0  0  0  0
   -4.6043    0.7627    3.2128 H   0  0  0  0  0  0  0  0  0  0  0  0
   -3.1983    1.5885    3.1076 H   0  0  0  0  0  0  0  0  0  0  0  0
   -3.6412    0.9148    4.5999 H   0  0  0  0  0  0  0  0  0  0  0  0
   -2.9448   -0.4664    3.0589 C   0  0  0  0  0  0  0  0  0  0  0  0
   -3.2565   -1.2347    3.6274 H   0  0  0  0  0  0  0  0  0  0  0  0
   -3.1948   -0.6525    2.1037 H   0  0  0  0  0  0  0  0  0  0  0  0
   -1.4573   -0.3561    3.1609 N   0  0  0  0  0  4  0  0  0  0  0  0
   -1.1920    0.6021    3.0686 H   0  0  0  0  0  0  0  0  0  0  0  0
   -1.1622   -0.7041    4.0488 H   0  0  0  0  0  0  0  0  0  0  0  0
   -1.0374   -0.8934    2.4319 H   0  0  0  0  0  0  0  0  0  0  0  0
   -0.0006    2.9013   -0.0098 C   0  0  0  0  0  0  0  0  0  0  0  0
   -0.4877    3.1973   -0.8177 H   0  0  0  0  0  0  0  0  0  0  0  0
    0.9404    3.2038   -0.0271 H   0  0  0  0  0  0  0  0  0  0  0  0
   -0.4821    3.3554    0.8562 H   0  0  0  0  0  0  0  0  0  0  0  0
   -0.0029    1.3941    0.0060 C   0  0  0  0  0  0  0  0  0  0  0  0
   -1.1917    0.6886   -0.0009 C   0  0  0  0  0  0  0  0  0  0  0  0
   -2.0619    1.1790   -0.0083 H   0  0  0  0  0  0  0  0  0  0  0  0
   -1.1986   -0.6967    0.0000 C   0  0  0  0  0  0  0  0  0  0  0  0
   -2.0741   -1.1913   -0.0003 H   0  0  0  0  0  0  0  0  0  0  0  0
    0.0019   -1.3865    0.0029 C   0  0  0  0  0  0  0  0  0  0  0  0
    0.0017   -2.3865    0.0066 H   0  0  0  0  0  0  0  0  0  0  0  0
    1.1986   -0.6879   -0.0000 C   0  0  0  0  0  0  0  0  0  0  0  0
    2.0814   -1.1907    0.0056 H   0  0  0  0  0  0  0  0  0  0  0  0
    1.1926    0.6883   -0.0080 C   0  0  0  0  0  0  0  0  0  0  0  0
    2.0591    1.1922   -0.0250 H   0  0  0  0  0  0  0  0  0  0  0  0
  1  5  1  0
  5  8  1  0
  1  2  1  0
  1  3  1  0
  1  4  1  0
  5  6  1  0
  5  7  1  0
  8  9  1  0
  8 10  1  0
  8 11  1  0
 12 16  1  0
 16 17  2  0
 17 19  1  0
 19 21  2  0
 21 23  1  0
 23 25  2  0
 25 16  1  0
 12 13  1  0
 12 14  1  0
 12 15  1  0
 17 18  1  0
 19 20  1  0
 21 22  1  0
 23 24  1  0
 25 26  1  0
M  CHG  1   8   1
M  END
>  <PDB_ID>  (3501) 
pdb5y9w

>  <RESIDUE_NAME>  (3501) 
LYS   PHE

>  <FRAG_NAME>  (3501) 
ETAM   MBZ

>  <FRAG_ATOM_NUM>  (3501) 
fragi: 11  fragj: 15

>  <atom.prop.CHAIN_ID>  (3501) 
A A A A A A A A A A A Z Z Z Z Z Z Z Z Z Z Z Z Z Z Z

>  <atom.prop.IS_HEAVY_ATOM>  (3501) 
1 0 0 0 1 0 0 1 0 0 0 1 0 0 0 1 1 0 1 0 1 0 1 0 1 0

>  <DIFUSE_FUNC_ATOM>  (3501) 
n/a

>  <FINAL_SINGLE_POINT_ENERGY>  (3501) 
0

>  <NONCOV_INTER_ENERGY_QM>  (3501) 
0

>  <FF_Energy>  (3501) 
-6.81

>  <QM_Energy>  (3501) 
-14.34

>  <source>  (3501) 
ETAM_MBZ

>  <Index>  (3501) 
38748

$$$$
ETAM-pdb5xzt-I-LYS-96:MBZ-pdb5xzt-I-PHE-60
     RDKit          3D

 26 25  0  0  0  0  0  0  0  0999 V2000
   -0.0778   -0.7527   -3.4932 C   0  0  0  0  0  0  0  0  0  0  0  0
    0.1237    0.2210   -3.6288 H   0  0  0  0  0  0  0  0  0  0  0  0
   -0.0037   -0.9667   -2.5160 H   0  0  0  0  0  0  0  0  0  0  0  0
   -1.1004   -0.9461   -3.8172 H   0  0  0  0  0  0  0  0  0  0  0  0
    0.9551   -1.5668   -4.2440 C   0  0  0  0  0  0  0  0  0  0  0  0
    0.7957   -2.5327   -4.0749 H   0  0  0  0  0  0  0  0  0  0  0  0
    0.8865   -1.3668   -5.2145 H   0  0  0  0  0  0  0  0  0  0  0  0
    2.3106   -1.1986   -3.7594 N   0  0  0  0  0  4  0  0  0  0  0  0
    2.6661   -0.4428   -4.3087 H   0  0  0  0  0  0  0  0  0  0  0  0
    2.2567   -0.9182   -2.8011 H   0  0  0  0  0  0  0  0  0  0  0  0
    2.9195   -1.9870   -3.8426 H   0  0  0  0  0  0  0  0  0  0  0  0
   -0.0043    2.9168    0.0040 C   0  0  0  0  0  0  0  0  0  0  0  0
    0.8392    3.2172    0.4224 H   0  0  0  0  0  0  0  0  0  0  0  0
   -0.7904    3.2118    0.5261 H   0  0  0  0  0  0  0  0  0  0  0  0
   -0.0687    3.3716   -0.9845 H   0  0  0  0  0  0  0  0  0  0  0  0
   -0.0002    1.4043   -0.0103 C   0  0  0  0  0  0  0  0  0  0  0  0
   -1.1906    0.6963    0.0006 C   0  0  0  0  0  0  0  0  0  0  0  0
   -2.0611    1.1845    0.0075 H   0  0  0  0  0  0  0  0  0  0  0  0
   -1.1976   -0.6960   -0.0000 C   0  0  0  0  0  0  0  0  0  0  0  0
   -2.0796   -1.1839   -0.0056 H   0  0  0  0  0  0  0  0  0  0  0  0
   -0.0059   -1.3922    0.0089 C   0  0  0  0  0  0  0  0  0  0  0  0
   -0.0097   -2.3925    0.0206 H   0  0  0  0  0  0  0  0  0  0  0  0
    1.1976   -0.7011   -0.0000 C   0  0  0  0  0  0  0  0  0  0  0  0
    2.0768   -1.2021   -0.0057 H   0  0  0  0  0  0  0  0  0  0  0  0
    1.1966    0.6887    0.0008 C   0  0  0  0  0  0  0  0  0  0  0  0
    2.0659    1.1846    0.0088 H   0  0  0  0  0  0  0  0  0  0  0  0
  1  5  1  0
  5  8  1  0
  1  2  1  0
  1  3  1  0
  1  4  1  0
  5  6  1  0
  5  7  1  0
  8  9  1  0
  8 10  1  0
  8 11  1  0
 12 16  1  0
 16 17  2  0
 17 19  1  0
 19 21  2  0
 21 23  1  0
 23 25  2  0
 25 16  1  0
 12 13  1  0
 12 14  1  0
 12 15  1  0
 17 18  1  0
 19 20  1  0
 21 22  1  0
 23 24  1  0
 25 26  1  0
M  CHG  1   8   1
M  END
>  <PDB_ID>  (3502) 
pdb5xzt

>  <RESIDUE_NAME>  (3502) 
LYS   PHE

>  <FRAG_NAME>  (3502) 
ETAM   MBZ

>  <FRAG_ATOM_NUM>  (3502) 
fragi: 11  fragj: 15

>  <atom.prop.CHAIN_ID>  (3502) 
A A A A A A A A A A A Z Z Z Z Z Z Z Z Z Z Z Z Z Z Z

>  <atom.prop.IS_HEAVY_ATOM>  (3502) 
1 0 0 0 1 0 0 1 0 0 0 1 0 0 0 1 1 0 1 0 1 0 1 0 1 0

>  <DIFUSE_FUNC_ATOM>  (3502) 
n/a

>  <FINAL_SINGLE_POINT_ENERGY>  (3502) 
0

>  <NONCOV_INTER_ENERGY_QM>  (3502) 
0

>  <FF_Energy>  (3502) 
-3.63

>  <QM_Energy>  (3502) 
-9.16

>  <source>  (3502) 
ETAM_MBZ

>  <Index>  (3502) 
38753

$$$$
ETAM-pdb5y92-A-LYS-399:MBZ-pdb5y92-A-PHE-304
     RDKit          3D

 26 25  0  0  0  0  0  0  0  0999 V2000
    0.0355    0.2202    3.4895 C   0  0  0  0  0  0  0  0  0  0  0  0
   -0.4098   -0.2855    4.2210 H   0  0  0  0  0  0  0  0  0  0  0  0
   -0.1589   -0.1990    2.6090 H   0  0  0  0  0  0  0  0  0  0  0  0
   -0.3712    1.2315    3.4811 H   0  0  0  0  0  0  0  0  0  0  0  0
    1.5493    0.1979    3.7237 C   0  0  0  0  0  0  0  0  0  0  0  0
    2.0102    0.6119    2.9384 H   0  0  0  0  0  0  0  0  0  0  0  0
    1.7632    0.7210    4.5488 H   0  0  0  0  0  0  0  0  0  0  0  0
    2.0870   -1.2212    3.9027 N   0  0  0  0  0  4  0  0  0  0  0  0
    1.5525   -1.6705    4.6087 H   0  0  0  0  0  0  0  0  0  0  0  0
    1.9965   -1.7002    3.0370 H   0  0  0  0  0  0  0  0  0  0  0  0
    3.0413   -1.1608    4.1716 H   0  0  0  0  0  0  0  0  0  0  0  0
    0.0123    2.8948    0.0596 C   0  0  0  0  0  0  0  0  0  0  0  0
    0.8873    3.1862    0.4254 H   0  0  0  0  0  0  0  0  0  0  0  0
   -0.7308    3.1885    0.6473 H   0  0  0  0  0  0  0  0  0  0  0  0
   -0.1198    3.3792   -0.9078 H   0  0  0  0  0  0  0  0  0  0  0  0
    0.0026    1.4037    0.0055 C   0  0  0  0  0  0  0  0  0  0  0  0
   -1.1954    0.7030    0.0079 C   0  0  0  0  0  0  0  0  0  0  0  0
   -2.0608    1.1860    0.0137 H   0  0  0  0  0  0  0  0  0  0  0  0
   -1.1976   -0.7006   -0.0000 C   0  0  0  0  0  0  0  0  0  0  0  0
   -2.0788   -1.1857    0.0080 H   0  0  0  0  0  0  0  0  0  0  0  0
   -0.0047   -1.3915   -0.0166 C   0  0  0  0  0  0  0  0  0  0  0  0
   -0.0119   -2.3960   -0.0414 H   0  0  0  0  0  0  0  0  0  0  0  0
    1.1976   -0.7099    0.0000 C   0  0  0  0  0  0  0  0  0  0  0  0
    2.0773   -1.2024    0.0113 H   0  0  0  0  0  0  0  0  0  0  0  0
    1.1975    0.6954    0.0033 C   0  0  0  0  0  0  0  0  0  0  0  0
    2.0676    1.1819    0.0029 H   0  0  0  0  0  0  0  0  0  0  0  0
  1  5  1  0
  5  8  1  0
  1  2  1  0
  1  3  1  0
  1  4  1  0
  5  6  1  0
  5  7  1  0
  8  9  1  0
  8 10  1  0
  8 11  1  0
 12 16  1  0
 16 17  2  0
 17 19  1  0
 19 21  2  0
 21 23  1  0
 23 25  2  0
 25 16  1  0
 12 13  1  0
 12 14  1  0
 12 15  1  0
 17 18  1  0
 19 20  1  0
 21 22  1  0
 23 24  1  0
 25 26  1  0
M  CHG  1   8   1
M  END
>  <PDB_ID>  (3503) 
pdb5y92

>  <RESIDUE_NAME>  (3503) 
LYS   PHE

>  <FRAG_NAME>  (3503) 
ETAM   MBZ

>  <FRAG_ATOM_NUM>  (3503) 
fragi: 11  fragj: 15

>  <atom.prop.CHAIN_ID>  (3503) 
A A A A A A A A A A A Z Z Z Z Z Z Z Z Z Z Z Z Z Z Z

>  <atom.prop.IS_HEAVY_ATOM>  (3503) 
1 0 0 0 1 0 0 1 0 0 0 1 0 0 0 1 1 0 1 0 1 0 1 0 1 0

>  <DIFUSE_FUNC_ATOM>  (3503) 
n/a

>  <FINAL_SINGLE_POINT_ENERGY>  (3503) 
0

>  <NONCOV_INTER_ENERGY_QM>  (3503) 
0

>  <FF_Energy>  (3503) 
-4.82

>  <QM_Energy>  (3503) 
-9.99

>  <source>  (3503) 
ETAM_MBZ

>  <Index>  (3503) 
38757

$$$$
ETAM-pdb5ybj-A-LYS-1109:MBZ-pdb5ybj-A-PHE-1113
     RDKit          3D

 26 25  0  0  0  0  0  0  0  0999 V2000
   -3.4547   -3.2390    1.2073 C   0  0  0  0  0  0  0  0  0  0  0  0
   -4.0207   -3.8747    0.6767 H   0  0  0  0  0  0  0  0  0  0  0  0
   -3.4580   -2.3435    0.7541 H   0  0  0  0  0  0  0  0  0  0  0  0
   -3.9054   -3.1240    2.1930 H   0  0  0  0  0  0  0  0  0  0  0  0
   -2.0509   -3.7575    1.2612 C   0  0  0  0  0  0  0  0  0  0  0  0
   -1.4804   -3.1231    1.7884 H   0  0  0  0  0  0  0  0  0  0  0  0
   -2.0422   -4.6538    1.7106 H   0  0  0  0  0  0  0  0  0  0  0  0
   -1.4837   -3.8969   -0.1030 N   0  0  0  0  0  4  0  0  0  0  0  0
   -2.0738   -4.4900   -0.6506 H   0  0  0  0  0  0  0  0  0  0  0  0
   -1.4256   -2.9948   -0.5337 H   0  0  0  0  0  0  0  0  0  0  0  0
   -0.5690   -4.2971   -0.0450 H   0  0  0  0  0  0  0  0  0  0  0  0
   -0.0082    2.8929   -0.0254 C   0  0  0  0  0  0  0  0  0  0  0  0
   -0.8231    3.1953   -0.5135 H   0  0  0  0  0  0  0  0  0  0  0  0
    0.8095    3.2064   -0.5022 H   0  0  0  0  0  0  0  0  0  0  0  0
   -0.0176    3.3812    0.9491 H   0  0  0  0  0  0  0  0  0  0  0  0
    0.0021    1.3997   -0.0080 C   0  0  0  0  0  0  0  0  0  0  0  0
   -1.1984    0.6921   -0.0084 C   0  0  0  0  0  0  0  0  0  0  0  0
   -2.0635    1.1940   -0.0173 H   0  0  0  0  0  0  0  0  0  0  0  0
   -1.2192   -0.6929    0.0000 C   0  0  0  0  0  0  0  0  0  0  0  0
   -2.0881   -1.1862   -0.0101 H   0  0  0  0  0  0  0  0  0  0  0  0
   -0.0070   -1.3907    0.0259 C   0  0  0  0  0  0  0  0  0  0  0  0
   -0.0120   -2.3894    0.0620 H   0  0  0  0  0  0  0  0  0  0  0  0
    1.2192   -0.7009    0.0000 C   0  0  0  0  0  0  0  0  0  0  0  0
    2.0847   -1.2017   -0.0096 H   0  0  0  0  0  0  0  0  0  0  0  0
    1.2033    0.6927   -0.0095 C   0  0  0  0  0  0  0  0  0  0  0  0
    2.0691    1.1943   -0.0186 H   0  0  0  0  0  0  0  0  0  0  0  0
  1  5  1  0
  5  8  1  0
  1  2  1  0
  1  3  1  0
  1  4  1  0
  5  6  1  0
  5  7  1  0
  8  9  1  0
  8 10  1  0
  8 11  1  0
 12 16  1  0
 16 17  2  0
 17 19  1  0
 19 21  2  0
 21 23  1  0
 23 25  2  0
 25 16  1  0
 12 13  1  0
 12 14  1  0
 12 15  1  0
 17 18  1  0
 19 20  1  0
 21 22  1  0
 23 24  1  0
 25 26  1  0
M  CHG  1   8   1
M  END
>  <PDB_ID>  (3504) 
pdb5ybj

>  <RESIDUE_NAME>  (3504) 
LYS   PHE

>  <FRAG_NAME>  (3504) 
ETAM   MBZ

>  <FRAG_ATOM_NUM>  (3504) 
fragi: 11  fragj: 15

>  <atom.prop.CHAIN_ID>  (3504) 
A A A A A A A A A A A Z Z Z Z Z Z Z Z Z Z Z Z Z Z Z

>  <atom.prop.IS_HEAVY_ATOM>  (3504) 
1 0 0 0 1 0 0 1 0 0 0 1 0 0 0 1 1 0 1 0 1 0 1 0 1 0

>  <DIFUSE_FUNC_ATOM>  (3504) 
n/a

>  <FINAL_SINGLE_POINT_ENERGY>  (3504) 
0

>  <NONCOV_INTER_ENERGY_QM>  (3504) 
0

>  <FF_Energy>  (3504) 
15.51

>  <QM_Energy>  (3504) 
-0.93

>  <source>  (3504) 
ETAM_MBZ

>  <Index>  (3504) 
38758

$$$$
ETAM-pdb5yf0-A-LYS-157:MBZ-pdb5yf0-A-PHE-153
     RDKit          3D

 26 25  0  0  0  0  0  0  0  0999 V2000
    2.8570   -1.2406    3.1626 C   0  0  0  0  0  0  0  0  0  0  0  0
    2.3318   -0.6060    2.5990 H   0  0  0  0  0  0  0  0  0  0  0  0
    3.7954   -0.9132    3.2565 H   0  0  0  0  0  0  0  0  0  0  0  0
    2.4012   -1.2910    4.1514 H   0  0  0  0  0  0  0  0  0  0  0  0
    2.8926   -2.6008    2.4487 C   0  0  0  0  0  0  0  0  0  0  0  0
    3.4679   -2.5115    1.6195 H   0  0  0  0  0  0  0  0  0  0  0  0
    3.3451   -3.2713    3.0597 H   0  0  0  0  0  0  0  0  0  0  0  0
    1.5508   -3.1345    2.0527 N   0  0  0  0  0  4  0  0  0  0  0  0
    1.6722   -3.8419    1.3591 H   0  0  0  0  0  0  0  0  0  0  0  0
    1.1021   -3.5213    2.8565 H   0  0  0  0  0  0  0  0  0  0  0  0
    0.9987   -2.3898    1.6833 H   0  0  0  0  0  0  0  0  0  0  0  0
    0.0021    2.8872    0.0003 C   0  0  0  0  0  0  0  0  0  0  0  0
   -0.7552    3.1972   -0.5580 H   0  0  0  0  0  0  0  0  0  0  0  0
    0.8669    3.1967   -0.3697 H   0  0  0  0  0  0  0  0  0  0  0  0
   -0.1122    3.3308    0.9894 H   0  0  0  0  0  0  0  0  0  0  0  0
    0.0010    1.3956    0.0025 C   0  0  0  0  0  0  0  0  0  0  0  0
   -1.1945    0.6917   -0.0011 C   0  0  0  0  0  0  0  0  0  0  0  0
   -2.0605    1.1842   -0.0058 H   0  0  0  0  0  0  0  0  0  0  0  0
   -1.1993   -0.6942   -0.0000 C   0  0  0  0  0  0  0  0  0  0  0  0
   -2.0770   -1.1885    0.0034 H   0  0  0  0  0  0  0  0  0  0  0  0
   -0.0021   -1.3881   -0.0014 C   0  0  0  0  0  0  0  0  0  0  0  0
   -0.0046   -2.3884   -0.0037 H   0  0  0  0  0  0  0  0  0  0  0  0
    1.1993   -0.6937   -0.0000 C   0  0  0  0  0  0  0  0  0  0  0  0
    2.0794   -1.1964    0.0029 H   0  0  0  0  0  0  0  0  0  0  0  0
    1.1957    0.6888   -0.0001 C   0  0  0  0  0  0  0  0  0  0  0  0
    2.0633    1.1878   -0.0025 H   0  0  0  0  0  0  0  0  0  0  0  0
  1  5  1  0
  5  8  1  0
  1  2  1  0
  1  3  1  0
  1  4  1  0
  5  6  1  0
  5  7  1  0
  8  9  1  0
  8 10  1  0
  8 11  1  0
 12 16  1  0
 16 17  2  0
 17 19  1  0
 19 21  2  0
 21 23  1  0
 23 25  2  0
 25 16  1  0
 12 13  1  0
 12 14  1  0
 12 15  1  0
 17 18  1  0
 19 20  1  0
 21 22  1  0
 23 24  1  0
 25 26  1  0
M  CHG  1   8   1
M  END
>  <PDB_ID>  (3505) 
pdb5yf0

>  <RESIDUE_NAME>  (3505) 
LYS   PHE

>  <FRAG_NAME>  (3505) 
ETAM   MBZ

>  <FRAG_ATOM_NUM>  (3505) 
fragi: 11  fragj: 15

>  <atom.prop.CHAIN_ID>  (3505) 
A A A A A A A A A A A Z Z Z Z Z Z Z Z Z Z Z Z Z Z Z

>  <atom.prop.IS_HEAVY_ATOM>  (3505) 
1 0 0 0 1 0 0 1 0 0 0 1 0 0 0 1 1 0 1 0 1 0 1 0 1 0

>  <DIFUSE_FUNC_ATOM>  (3505) 
n/a

>  <FINAL_SINGLE_POINT_ENERGY>  (3505) 
0

>  <NONCOV_INTER_ENERGY_QM>  (3505) 
0

>  <FF_Energy>  (3505) 
-0.89

>  <QM_Energy>  (3505) 
-9.61

>  <source>  (3505) 
ETAM_MBZ

>  <Index>  (3505) 
38794

$$$$
ETAM-pdb5yf0-B-LYS-157:MBZ-pdb5yf0-B-PHE-153
     RDKit          3D

 26 25  0  0  0  0  0  0  0  0999 V2000
    2.7460   -0.3155    4.4093 C   0  0  0  0  0  0  0  0  0  0  0  0
    3.1443    0.5510    4.1307 H   0  0  0  0  0  0  0  0  0  0  0  0
    3.3958   -0.8401    4.9482 H   0  0  0  0  0  0  0  0  0  0  0  0
    1.8540   -0.1250    5.0062 H   0  0  0  0  0  0  0  0  0  0  0  0
    2.3997   -1.1081    3.1666 C   0  0  0  0  0  0  0  0  0  0  0  0
    2.2209   -2.0632    3.4263 H   0  0  0  0  0  0  0  0  0  0  0  0
    1.5629   -0.7276    2.7575 H   0  0  0  0  0  0  0  0  0  0  0  0
    3.4914   -1.0774    2.1554 N   0  0  0  0  0  4  0  0  0  0  0  0
    4.2778   -1.5884    2.5012 H   0  0  0  0  0  0  0  0  0  0  0  0
    3.1677   -1.4938    1.3062 H   0  0  0  0  0  0  0  0  0  0  0  0
    3.7570   -0.1292    1.9837 H   0  0  0  0  0  0  0  0  0  0  0  0
    0.0020    2.9045   -0.0174 C   0  0  0  0  0  0  0  0  0  0  0  0
   -0.5058    3.1998   -0.8159 H   0  0  0  0  0  0  0  0  0  0  0  0
    0.9444    3.2081   -0.0639 H   0  0  0  0  0  0  0  0  0  0  0  0
   -0.4540    3.3685    0.8572 H   0  0  0  0  0  0  0  0  0  0  0  0
   -0.0004    1.4011    0.0044 C   0  0  0  0  0  0  0  0  0  0  0  0
   -1.1958    0.6924   -0.0083 C   0  0  0  0  0  0  0  0  0  0  0  0
   -2.0630    1.1817   -0.0246 H   0  0  0  0  0  0  0  0  0  0  0  0
   -1.1997   -0.6978   -0.0000 C   0  0  0  0  0  0  0  0  0  0  0  0
   -2.0769   -1.1922    0.0036 H   0  0  0  0  0  0  0  0  0  0  0  0
    0.0010   -1.3930    0.0054 C   0  0  0  0  0  0  0  0  0  0  0  0
   -0.0025   -2.3916    0.0120 H   0  0  0  0  0  0  0  0  0  0  0  0
    1.1997   -0.6962    0.0000 C   0  0  0  0  0  0  0  0  0  0  0  0
    2.0820   -1.1940   -0.0019 H   0  0  0  0  0  0  0  0  0  0  0  0
    1.1952    0.6935   -0.0014 C   0  0  0  0  0  0  0  0  0  0  0  0
    2.0637    1.1900   -0.0071 H   0  0  0  0  0  0  0  0  0  0  0  0
  1  5  1  0
  5  8  1  0
  1  2  1  0
  1  3  1  0
  1  4  1  0
  5  6  1  0
  5  7  1  0
  8  9  1  0
  8 10  1  0
  8 11  1  0
 12 16  1  0
 16 17  2  0
 17 19  1  0
 19 21  2  0
 21 23  1  0
 23 25  2  0
 25 16  1  0
 12 13  1  0
 12 14  1  0
 12 15  1  0
 17 18  1  0
 19 20  1  0
 21 22  1  0
 23 24  1  0
 25 26  1  0
M  CHG  1   8   1
M  END
>  <PDB_ID>  (3506) 
pdb5yf0

>  <RESIDUE_NAME>  (3506) 
LYS   PHE

>  <FRAG_NAME>  (3506) 
ETAM   MBZ

>  <FRAG_ATOM_NUM>  (3506) 
fragi: 11  fragj: 15

>  <atom.prop.CHAIN_ID>  (3506) 
A A A A A A A A A A A Z Z Z Z Z Z Z Z Z Z Z Z Z Z Z

>  <atom.prop.IS_HEAVY_ATOM>  (3506) 
1 0 0 0 1 0 0 1 0 0 0 1 0 0 0 1 1 0 1 0 1 0 1 0 1 0

>  <DIFUSE_FUNC_ATOM>  (3506) 
n/a

>  <FINAL_SINGLE_POINT_ENERGY>  (3506) 
0

>  <NONCOV_INTER_ENERGY_QM>  (3506) 
0

>  <FF_Energy>  (3506) 
-0.08

>  <QM_Energy>  (3506) 
-6.53

>  <source>  (3506) 
ETAM_MBZ

>  <Index>  (3506) 
38797

$$$$
ETAM-pdb5yei-I-LYS-25:MBZ-pdb5yei-I-PHE-29
     RDKit          3D

 26 25  0  0  0  0  0  0  0  0999 V2000
   -5.4183   -1.8390   -0.8439 C   0  0  0  0  0  0  0  0  0  0  0  0
   -5.8941   -1.7544    0.0314 H   0  0  0  0  0  0  0  0  0  0  0  0
   -5.8899   -2.5096   -1.4164 H   0  0  0  0  0  0  0  0  0  0  0  0
   -5.4225   -0.8723   -1.3473 H   0  0  0  0  0  0  0  0  0  0  0  0
   -4.0126   -2.3426   -0.5768 C   0  0  0  0  0  0  0  0  0  0  0  0
   -3.5548   -2.5067   -1.4490 H   0  0  0  0  0  0  0  0  0  0  0  0
   -3.5115   -1.6504   -0.0599 H   0  0  0  0  0  0  0  0  0  0  0  0
   -4.0544   -3.6034    0.2028 N   0  0  0  0  0  4  0  0  0  0  0  0
   -4.7371   -4.2182   -0.1933 H   0  0  0  0  0  0  0  0  0  0  0  0
   -3.1556   -4.0425    0.1766 H   0  0  0  0  0  0  0  0  0  0  0  0
   -4.2978   -3.4014    1.1522 H   0  0  0  0  0  0  0  0  0  0  0  0
   -0.0001    2.8048   -0.0090 C   0  0  0  0  0  0  0  0  0  0  0  0
   -0.7888    3.1232   -0.5300 H   0  0  0  0  0  0  0  0  0  0  0  0
    0.8417    3.1240   -0.4371 H   0  0  0  0  0  0  0  0  0  0  0  0
   -0.0568    3.2423    0.9878 H   0  0  0  0  0  0  0  0  0  0  0  0
    0.0004    1.3564   -0.0028 C   0  0  0  0  0  0  0  0  0  0  0  0
   -1.1656    0.6733   -0.0055 C   0  0  0  0  0  0  0  0  0  0  0  0
   -2.0410    1.1725   -0.0128 H   0  0  0  0  0  0  0  0  0  0  0  0
   -1.1731   -0.6780   -0.0000 C   0  0  0  0  0  0  0  0  0  0  0  0
   -2.0573   -1.1797    0.0079 H   0  0  0  0  0  0  0  0  0  0  0  0
    0.0012   -1.3554   -0.0025 C   0  0  0  0  0  0  0  0  0  0  0  0
   -0.0030   -2.3665   -0.0068 H   0  0  0  0  0  0  0  0  0  0  0  0
    1.1731   -0.6772    0.0000 C   0  0  0  0  0  0  0  0  0  0  0  0
    2.0635   -1.1780   -0.0047 H   0  0  0  0  0  0  0  0  0  0  0  0
    1.1641    0.6809    0.0108 C   0  0  0  0  0  0  0  0  0  0  0  0
    2.0411    1.1829    0.0282 H   0  0  0  0  0  0  0  0  0  0  0  0
  1  5  1  0
  5  8  1  0
  1  2  1  0
  1  3  1  0
  1  4  1  0
  5  6  1  0
  5  7  1  0
  8  9  1  0
  8 10  1  0
  8 11  1  0
 12 16  1  0
 16 17  2  0
 17 19  1  0
 19 21  2  0
 21 23  1  0
 23 25  2  0
 25 16  1  0
 12 13  1  0
 12 14  1  0
 12 15  1  0
 17 18  1  0
 19 20  1  0
 21 22  1  0
 23 24  1  0
 25 26  1  0
M  CHG  1   8   1
M  END
>  <PDB_ID>  (3507) 
pdb5yei

>  <RESIDUE_NAME>  (3507) 
LYS   PHE

>  <FRAG_NAME>  (3507) 
ETAM   MBZ

>  <FRAG_ATOM_NUM>  (3507) 
fragi: 11  fragj: 15

>  <atom.prop.CHAIN_ID>  (3507) 
A A A A A A A A A A A Z Z Z Z Z Z Z Z Z Z Z Z Z Z Z

>  <atom.prop.IS_HEAVY_ATOM>  (3507) 
1 0 0 0 1 0 0 1 0 0 0 1 0 0 0 1 1 0 1 0 1 0 1 0 1 0

>  <DIFUSE_FUNC_ATOM>  (3507) 
n/a

>  <FINAL_SINGLE_POINT_ENERGY>  (3507) 
0

>  <NONCOV_INTER_ENERGY_QM>  (3507) 
0

>  <FF_Energy>  (3507) 
31.15

>  <QM_Energy>  (3507) 
2.34

>  <source>  (3507) 
ETAM_MBZ

>  <Index>  (3507) 
38808

$$$$
ETAM-pdb5yhx-A-LYS-22:MBZ-pdb5yhx-A-PHE-18
     RDKit          3D

 26 25  0  0  0  0  0  0  0  0999 V2000
    3.6277   -0.6020    3.4833 C   0  0  0  0  0  0  0  0  0  0  0  0
    3.8889    0.0355    2.7746 H   0  0  0  0  0  0  0  0  0  0  0  0
    3.6977   -1.5375    3.1731 H   0  0  0  0  0  0  0  0  0  0  0  0
    4.2758   -0.4609    4.3482 H   0  0  0  0  0  0  0  0  0  0  0  0
    2.1813   -0.3273    3.8733 C   0  0  0  0  0  0  0  0  0  0  0  0
    2.0358   -0.6456    4.8142 H   0  0  0  0  0  0  0  0  0  0  0  0
    2.0214    0.6630    3.8373 H   0  0  0  0  0  0  0  0  0  0  0  0
    1.2347   -1.0125    2.9690 N   0  0  0  0  0  4  0  0  0  0  0  0
    0.4559   -1.3584    3.4958 H   0  0  0  0  0  0  0  0  0  0  0  0
    0.9050   -0.3695    2.2760 H   0  0  0  0  0  0  0  0  0  0  0  0
    1.6953   -1.7781    2.5170 H   0  0  0  0  0  0  0  0  0  0  0  0
    0.0052    2.9048    0.0117 C   0  0  0  0  0  0  0  0  0  0  0  0
   -0.8529    3.2184   -0.3632 H   0  0  0  0  0  0  0  0  0  0  0  0
    0.7717    3.2133   -0.5292 H   0  0  0  0  0  0  0  0  0  0  0  0
    0.1082    3.3302    1.0099 H   0  0  0  0  0  0  0  0  0  0  0  0
   -0.0002    1.4016   -0.0033 C   0  0  0  0  0  0  0  0  0  0  0  0
   -1.1960    0.6976    0.0059 C   0  0  0  0  0  0  0  0  0  0  0  0
   -2.0628    1.1841    0.0156 H   0  0  0  0  0  0  0  0  0  0  0  0
   -1.2015   -0.6998   -0.0000 C   0  0  0  0  0  0  0  0  0  0  0  0
   -2.0765   -1.1906    0.0000 H   0  0  0  0  0  0  0  0  0  0  0  0
    0.0027   -1.3941   -0.0037 C   0  0  0  0  0  0  0  0  0  0  0  0
   -0.0005   -2.3929   -0.0093 H   0  0  0  0  0  0  0  0  0  0  0  0
    1.2015   -0.6967   -0.0000 C   0  0  0  0  0  0  0  0  0  0  0  0
    2.0840   -1.1936    0.0035 H   0  0  0  0  0  0  0  0  0  0  0  0
    1.1935    0.6913    0.0011 C   0  0  0  0  0  0  0  0  0  0  0  0
    2.0638    1.1898    0.0041 H   0  0  0  0  0  0  0  0  0  0  0  0
  1  5  1  0
  5  8  1  0
  1  2  1  0
  1  3  1  0
  1  4  1  0
  5  6  1  0
  5  7  1  0
  8  9  1  0
  8 10  1  0
  8 11  1  0
 12 16  1  0
 16 17  2  0
 17 19  1  0
 19 21  2  0
 21 23  1  0
 23 25  2  0
 25 16  1  0
 12 13  1  0
 12 14  1  0
 12 15  1  0
 17 18  1  0
 19 20  1  0
 21 22  1  0
 23 24  1  0
 25 26  1  0
M  CHG  1   8   1
M  END
>  <PDB_ID>  (3508) 
pdb5yhx

>  <RESIDUE_NAME>  (3508) 
LYS   PHE

>  <FRAG_NAME>  (3508) 
ETAM   MBZ

>  <FRAG_ATOM_NUM>  (3508) 
fragi: 11  fragj: 15

>  <atom.prop.CHAIN_ID>  (3508) 
A A A A A A A A A A A Z Z Z Z Z Z Z Z Z Z Z Z Z Z Z

>  <atom.prop.IS_HEAVY_ATOM>  (3508) 
1 0 0 0 1 0 0 1 0 0 0 1 0 0 0 1 1 0 1 0 1 0 1 0 1 0

>  <DIFUSE_FUNC_ATOM>  (3508) 
n/a

>  <FINAL_SINGLE_POINT_ENERGY>  (3508) 
0

>  <NONCOV_INTER_ENERGY_QM>  (3508) 
0

>  <FF_Energy>  (3508) 
-6.27

>  <QM_Energy>  (3508) 
-13.92

>  <source>  (3508) 
ETAM_MBZ

>  <Index>  (3508) 
38824

$$$$
ETAM-pdb5yhx-B-LYS-22:MBZ-pdb5yhx-B-PHE-18
     RDKit          3D

 26 25  0  0  0  0  0  0  0  0999 V2000
    3.9500   -0.6049    3.5772 C   0  0  0  0  0  0  0  0  0  0  0  0
    4.0278    0.0632    2.8397 H   0  0  0  0  0  0  0  0  0  0  0  0
    4.3154   -1.4843    3.2757 H   0  0  0  0  0  0  0  0  0  0  0  0
    4.5329   -0.2555    4.4293 H   0  0  0  0  0  0  0  0  0  0  0  0
    2.4849   -0.7812    3.9189 C   0  0  0  0  0  0  0  0  0  0  0  0
    2.4056   -1.3082    4.7627 H   0  0  0  0  0  0  0  0  0  0  0  0
    2.0650    0.1160    4.0403 H   0  0  0  0  0  0  0  0  0  0  0  0
    1.7802   -1.5059    2.8227 N   0  0  0  0  0  4  0  0  0  0  0  0
    2.2715   -1.3651    1.9639 H   0  0  0  0  0  0  0  0  0  0  0  0
    1.7518   -2.4816    3.0372 H   0  0  0  0  0  0  0  0  0  0  0  0
    0.8491   -1.1528    2.7385 H   0  0  0  0  0  0  0  0  0  0  0  0
    0.0042    2.8981    0.0060 C   0  0  0  0  0  0  0  0  0  0  0  0
   -0.8663    3.2083   -0.3421 H   0  0  0  0  0  0  0  0  0  0  0  0
    0.7518    3.2051   -0.5622 H   0  0  0  0  0  0  0  0  0  0  0  0
    0.1403    3.3234    1.0003 H   0  0  0  0  0  0  0  0  0  0  0  0
   -0.0002    1.3979   -0.0037 C   0  0  0  0  0  0  0  0  0  0  0  0
   -1.1986    0.6950    0.0055 C   0  0  0  0  0  0  0  0  0  0  0  0
   -2.0620    1.1883    0.0147 H   0  0  0  0  0  0  0  0  0  0  0  0
   -1.2015   -0.6886    0.0000 C   0  0  0  0  0  0  0  0  0  0  0  0
   -2.0771   -1.1880    0.0003 H   0  0  0  0  0  0  0  0  0  0  0  0
    0.0020   -1.3893   -0.0039 C   0  0  0  0  0  0  0  0  0  0  0  0
   -0.0084   -2.3885   -0.0104 H   0  0  0  0  0  0  0  0  0  0  0  0
    1.2015   -0.6985   -0.0000 C   0  0  0  0  0  0  0  0  0  0  0  0
    2.0819   -1.1995    0.0030 H   0  0  0  0  0  0  0  0  0  0  0  0
    1.1968    0.6836    0.0020 C   0  0  0  0  0  0  0  0  0  0  0  0
    2.0648    1.1843    0.0072 H   0  0  0  0  0  0  0  0  0  0  0  0
  1  5  1  0
  5  8  1  0
  1  2  1  0
  1  3  1  0
  1  4  1  0
  5  6  1  0
  5  7  1  0
  8  9  1  0
  8 10  1  0
  8 11  1  0
 12 16  1  0
 16 17  2  0
 17 19  1  0
 19 21  2  0
 21 23  1  0
 23 25  2  0
 25 16  1  0
 12 13  1  0
 12 14  1  0
 12 15  1  0
 17 18  1  0
 19 20  1  0
 21 22  1  0
 23 24  1  0
 25 26  1  0
M  CHG  1   8   1
M  END
>  <PDB_ID>  (3509) 
pdb5yhx

>  <RESIDUE_NAME>  (3509) 
LYS   PHE

>  <FRAG_NAME>  (3509) 
ETAM   MBZ

>  <FRAG_ATOM_NUM>  (3509) 
fragi: 11  fragj: 15

>  <atom.prop.CHAIN_ID>  (3509) 
A A A A A A A A A A A Z Z Z Z Z Z Z Z Z Z Z Z Z Z Z

>  <atom.prop.IS_HEAVY_ATOM>  (3509) 
1 0 0 0 1 0 0 1 0 0 0 1 0 0 0 1 1 0 1 0 1 0 1 0 1 0

>  <DIFUSE_FUNC_ATOM>  (3509) 
n/a

>  <FINAL_SINGLE_POINT_ENERGY>  (3509) 
0

>  <NONCOV_INTER_ENERGY_QM>  (3509) 
0

>  <FF_Energy>  (3509) 
-3.43

>  <QM_Energy>  (3509) 
-10.45

>  <source>  (3509) 
ETAM_MBZ

>  <Index>  (3509) 
38825

$$$$
ETAM-pdb5yhx-H-LYS-22:MBZ-pdb5yhx-H-PHE-18
     RDKit          3D

 26 25  0  0  0  0  0  0  0  0999 V2000
    3.7992   -0.9268    3.8855 C   0  0  0  0  0  0  0  0  0  0  0  0
    3.9554   -0.5104    2.9958 H   0  0  0  0  0  0  0  0  0  0  0  0
    4.0576   -1.8877    3.8680 H   0  0  0  0  0  0  0  0  0  0  0  0
    4.4034   -0.4091    4.6304 H   0  0  0  0  0  0  0  0  0  0  0  0
    2.3053   -0.8360    4.2043 C   0  0  0  0  0  0  0  0  0  0  0  0
    2.1703   -1.0202    5.1762 H   0  0  0  0  0  0  0  0  0  0  0  0
    1.9832    0.0842    3.9881 H   0  0  0  0  0  0  0  0  0  0  0  0
    1.5221   -1.8306    3.4022 N   0  0  0  0  0  4  0  0  0  0  0  0
    2.1494   -2.5034    3.0139 H   0  0  0  0  0  0  0  0  0  0  0  0
    0.8641   -2.2851    3.9985 H   0  0  0  0  0  0  0  0  0  0  0  0
    1.0413   -1.3530    2.6694 H   0  0  0  0  0  0  0  0  0  0  0  0
   -0.0015    2.8820    0.0055 C   0  0  0  0  0  0  0  0  0  0  0  0
   -0.8868    3.1939   -0.3112 H   0  0  0  0  0  0  0  0  0  0  0  0
    0.7216    3.1971   -0.5942 H   0  0  0  0  0  0  0  0  0  0  0  0
    0.1710    3.3167    0.9900 H   0  0  0  0  0  0  0  0  0  0  0  0
    0.0007    1.3956   -0.0006 C   0  0  0  0  0  0  0  0  0  0  0  0
   -1.1909    0.6927    0.0038 C   0  0  0  0  0  0  0  0  0  0  0  0
   -2.0597    1.1825    0.0089 H   0  0  0  0  0  0  0  0  0  0  0  0
   -1.1959   -0.6953    0.0000 C   0  0  0  0  0  0  0  0  0  0  0  0
   -2.0760   -1.1873    0.0011 H   0  0  0  0  0  0  0  0  0  0  0  0
   -0.0031   -1.3873   -0.0035 C   0  0  0  0  0  0  0  0  0  0  0  0
   -0.0049   -2.3884   -0.0087 H   0  0  0  0  0  0  0  0  0  0  0  0
    1.1959   -0.6946   -0.0000 C   0  0  0  0  0  0  0  0  0  0  0  0
    2.0776   -1.1957    0.0039 H   0  0  0  0  0  0  0  0  0  0  0  0
    1.1933    0.6890    0.0002 C   0  0  0  0  0  0  0  0  0  0  0  0
    2.0626    1.1863   -0.0002 H   0  0  0  0  0  0  0  0  0  0  0  0
  1  5  1  0
  5  8  1  0
  1  2  1  0
  1  3  1  0
  1  4  1  0
  5  6  1  0
  5  7  1  0
  8  9  1  0
  8 10  1  0
  8 11  1  0
 12 16  1  0
 16 17  2  0
 17 19  1  0
 19 21  2  0
 21 23  1  0
 23 25  2  0
 25 16  1  0
 12 13  1  0
 12 14  1  0
 12 15  1  0
 17 18  1  0
 19 20  1  0
 21 22  1  0
 23 24  1  0
 25 26  1  0
M  CHG  1   8   1
M  END
>  <PDB_ID>  (3510) 
pdb5yhx

>  <RESIDUE_NAME>  (3510) 
LYS   PHE

>  <FRAG_NAME>  (3510) 
ETAM   MBZ

>  <FRAG_ATOM_NUM>  (3510) 
fragi: 11  fragj: 15

>  <atom.prop.CHAIN_ID>  (3510) 
A A A A A A A A A A A Z Z Z Z Z Z Z Z Z Z Z Z Z Z Z

>  <atom.prop.IS_HEAVY_ATOM>  (3510) 
1 0 0 0 1 0 0 1 0 0 0 1 0 0 0 1 1 0 1 0 1 0 1 0 1 0

>  <DIFUSE_FUNC_ATOM>  (3510) 
n/a

>  <FINAL_SINGLE_POINT_ENERGY>  (3510) 
0

>  <NONCOV_INTER_ENERGY_QM>  (3510) 
0

>  <FF_Energy>  (3510) 
-4.52

>  <QM_Energy>  (3510) 
-10.58

>  <source>  (3510) 
ETAM_MBZ

>  <Index>  (3510) 
38828

$$$$
ETAM-pdb5yi6-C-LYS-103:MBZ-pdb5yi6-C-PHE-112
     RDKit          3D

 26 25  0  0  0  0  0  0  0  0999 V2000
   -2.4009    0.3347   -3.3204 C   0  0  0  0  0  0  0  0  0  0  0  0
   -2.0332    1.2198   -3.0786 H   0  0  0  0  0  0  0  0  0  0  0  0
   -2.7121   -0.1570   -2.5218 H   0  0  0  0  0  0  0  0  0  0  0  0
   -3.2332    0.4663   -4.0118 H   0  0  0  0  0  0  0  0  0  0  0  0
   -1.2868   -0.4842   -3.9841 C   0  0  0  0  0  0  0  0  0  0  0  0
   -1.6340   -1.4161   -4.1537 H   0  0  0  0  0  0  0  0  0  0  0  0
   -1.0701   -0.0643   -4.8758 H   0  0  0  0  0  0  0  0  0  0  0  0
   -0.0480   -0.5630   -3.1655 N   0  0  0  0  0  4  0  0  0  0  0  0
    0.4101    0.3257   -3.1703 H   0  0  0  0  0  0  0  0  0  0  0  0
   -0.2857   -0.8112   -2.2263 H   0  0  0  0  0  0  0  0  0  0  0  0
    0.5615   -1.2559   -3.5506 H   0  0  0  0  0  0  0  0  0  0  0  0
    0.0084    2.8958   -0.0126 C   0  0  0  0  0  0  0  0  0  0  0  0
    0.8482    3.2076    0.4077 H   0  0  0  0  0  0  0  0  0  0  0  0
   -0.7831    3.2140    0.4881 H   0  0  0  0  0  0  0  0  0  0  0  0
   -0.0394    3.3329   -1.0100 H   0  0  0  0  0  0  0  0  0  0  0  0
    0.0028    1.4021   -0.0043 C   0  0  0  0  0  0  0  0  0  0  0  0
   -1.1947    0.6941   -0.0038 C   0  0  0  0  0  0  0  0  0  0  0  0
   -2.0610    1.1837   -0.0074 H   0  0  0  0  0  0  0  0  0  0  0  0
   -1.2011   -0.7009    0.0000 C   0  0  0  0  0  0  0  0  0  0  0  0
   -2.0807   -1.1899   -0.0025 H   0  0  0  0  0  0  0  0  0  0  0  0
   -0.0054   -1.3932    0.0092 C   0  0  0  0  0  0  0  0  0  0  0  0
   -0.0036   -2.3927    0.0216 H   0  0  0  0  0  0  0  0  0  0  0  0
    1.2011   -0.6946   -0.0000 C   0  0  0  0  0  0  0  0  0  0  0  0
    2.0801   -1.1960   -0.0045 H   0  0  0  0  0  0  0  0  0  0  0  0
    1.1972    0.6925   -0.0011 C   0  0  0  0  0  0  0  0  0  0  0  0
    2.0666    1.1897   -0.0006 H   0  0  0  0  0  0  0  0  0  0  0  0
  1  5  1  0
  5  8  1  0
  1  2  1  0
  1  3  1  0
  1  4  1  0
  5  6  1  0
  5  7  1  0
  8  9  1  0
  8 10  1  0
  8 11  1  0
 12 16  1  0
 16 17  2  0
 17 19  1  0
 19 21  2  0
 21 23  1  0
 23 25  2  0
 25 16  1  0
 12 13  1  0
 12 14  1  0
 12 15  1  0
 17 18  1  0
 19 20  1  0
 21 22  1  0
 23 24  1  0
 25 26  1  0
M  CHG  1   8   1
M  END
>  <PDB_ID>  (3511) 
pdb5yi6

>  <RESIDUE_NAME>  (3511) 
LYS   PHE

>  <FRAG_NAME>  (3511) 
ETAM   MBZ

>  <FRAG_ATOM_NUM>  (3511) 
fragi: 11  fragj: 15

>  <atom.prop.CHAIN_ID>  (3511) 
A A A A A A A A A A A Z Z Z Z Z Z Z Z Z Z Z Z Z Z Z

>  <atom.prop.IS_HEAVY_ATOM>  (3511) 
1 0 0 0 1 0 0 1 0 0 0 1 0 0 0 1 1 0 1 0 1 0 1 0 1 0

>  <DIFUSE_FUNC_ATOM>  (3511) 
n/a

>  <FINAL_SINGLE_POINT_ENERGY>  (3511) 
0

>  <NONCOV_INTER_ENERGY_QM>  (3511) 
0

>  <FF_Energy>  (3511) 
-9.52

>  <QM_Energy>  (3511) 
-17.48

>  <source>  (3511) 
ETAM_MBZ

>  <Index>  (3511) 
38832

$$$$
ETAM-pdb5ym6-A-LYS-50:MBZ-pdb5ym6-A-PHE-19
     RDKit          3D

 26 25  0  0  0  0  0  0  0  0999 V2000
    1.0974   -2.3522    2.8870 C   0  0  0  0  0  0  0  0  0  0  0  0
    1.6071   -2.0067    2.0962 H   0  0  0  0  0  0  0  0  0  0  0  0
    1.6553   -3.0323    3.3677 H   0  0  0  0  0  0  0  0  0  0  0  0
    0.8977   -1.5213    3.5637 H   0  0  0  0  0  0  0  0  0  0  0  0
   -0.1622   -3.0202    2.3948 C   0  0  0  0  0  0  0  0  0  0  0  0
   -0.6760   -3.3730    3.1788 H   0  0  0  0  0  0  0  0  0  0  0  0
   -0.7237   -2.3495    1.9078 H   0  0  0  0  0  0  0  0  0  0  0  0
    0.1587   -4.1431    1.4779 N   0  0  0  0  0  4  0  0  0  0  0  0
    0.7255   -4.8132    1.9571 H   0  0  0  0  0  0  0  0  0  0  0  0
   -0.6892   -4.5799    1.1764 H   0  0  0  0  0  0  0  0  0  0  0  0
    0.6544   -3.7931    0.6841 H   0  0  0  0  0  0  0  0  0  0  0  0
    0.0075    2.9191    0.0152 C   0  0  0  0  0  0  0  0  0  0  0  0
   -0.7592    3.2307   -0.5203 H   0  0  0  0  0  0  0  0  0  0  0  0
    0.8660    3.2218   -0.3620 H   0  0  0  0  0  0  0  0  0  0  0  0
   -0.0874    3.3451    1.0141 H   0  0  0  0  0  0  0  0  0  0  0  0
    0.0005    1.4051    0.0004 C   0  0  0  0  0  0  0  0  0  0  0  0
   -1.1954    0.6952   -0.0021 C   0  0  0  0  0  0  0  0  0  0  0  0
   -2.0632    1.1794   -0.0067 H   0  0  0  0  0  0  0  0  0  0  0  0
   -1.1968   -0.7044   -0.0000 C   0  0  0  0  0  0  0  0  0  0  0  0
   -2.0746   -1.1938    0.0047 H   0  0  0  0  0  0  0  0  0  0  0  0
    0.0014   -1.3928   -0.0025 C   0  0  0  0  0  0  0  0  0  0  0  0
    0.0012   -2.3941   -0.0060 H   0  0  0  0  0  0  0  0  0  0  0  0
    1.1968   -0.6965    0.0000 C   0  0  0  0  0  0  0  0  0  0  0  0
    2.0809   -1.1930    0.0000 H   0  0  0  0  0  0  0  0  0  0  0  0
    1.1935    0.6935    0.0042 C   0  0  0  0  0  0  0  0  0  0  0  0
    2.0644    1.1881    0.0093 H   0  0  0  0  0  0  0  0  0  0  0  0
  1  5  1  0
  5  8  1  0
  1  2  1  0
  1  3  1  0
  1  4  1  0
  5  6  1  0
  5  7  1  0
  8  9  1  0
  8 10  1  0
  8 11  1  0
 12 16  1  0
 16 17  2  0
 17 19  1  0
 19 21  2  0
 21 23  1  0
 23 25  2  0
 25 16  1  0
 12 13  1  0
 12 14  1  0
 12 15  1  0
 17 18  1  0
 19 20  1  0
 21 22  1  0
 23 24  1  0
 25 26  1  0
M  CHG  1   8   1
M  END
>  <PDB_ID>  (3512) 
pdb5ym6

>  <RESIDUE_NAME>  (3512) 
LYS   PHE

>  <FRAG_NAME>  (3512) 
ETAM   MBZ

>  <FRAG_ATOM_NUM>  (3512) 
fragi: 11  fragj: 15

>  <atom.prop.CHAIN_ID>  (3512) 
A A A A A A A A A A A Z Z Z Z Z Z Z Z Z Z Z Z Z Z Z

>  <atom.prop.IS_HEAVY_ATOM>  (3512) 
1 0 0 0 1 0 0 1 0 0 0 1 0 0 0 1 1 0 1 0 1 0 1 0 1 0

>  <DIFUSE_FUNC_ATOM>  (3512) 
n/a

>  <FINAL_SINGLE_POINT_ENERGY>  (3512) 
0

>  <NONCOV_INTER_ENERGY_QM>  (3512) 
0

>  <FF_Energy>  (3512) 
13.94

>  <QM_Energy>  (3512) 
-0.54

>  <source>  (3512) 
ETAM_MBZ

>  <Index>  (3512) 
38873

$$$$
ETAM-pdb5ylw-A-LYS-244:MBZ-pdb5ylw-A-PHE-199
     RDKit          3D

 26 25  0  0  0  0  0  0  0  0999 V2000
   -1.3252   -1.1735   -3.8132 C   0  0  0  0  0  0  0  0  0  0  0  0
   -1.3537   -0.3906   -4.4288 H   0  0  0  0  0  0  0  0  0  0  0  0
   -1.7783   -0.9491   -2.9548 H   0  0  0  0  0  0  0  0  0  0  0  0
   -1.8497   -2.0068   -4.2806 H   0  0  0  0  0  0  0  0  0  0  0  0
    0.1274   -1.5087   -3.5221 C   0  0  0  0  0  0  0  0  0  0  0  0
    0.1772   -2.0257   -2.6626 H   0  0  0  0  0  0  0  0  0  0  0  0
    0.4852   -2.0841   -4.2645 H   0  0  0  0  0  0  0  0  0  0  0  0
    0.9719   -0.2867   -3.4042 N   0  0  0  0  0  4  0  0  0  0  0  0
    1.2487   -0.1670   -2.4518 H   0  0  0  0  0  0  0  0  0  0  0  0
    1.7830   -0.3884   -3.9788 H   0  0  0  0  0  0  0  0  0  0  0  0
    0.4468    0.5088   -3.7039 H   0  0  0  0  0  0  0  0  0  0  0  0
    0.0070    2.9076    0.0094 C   0  0  0  0  0  0  0  0  0  0  0  0
    0.9502    3.2082    0.0076 H   0  0  0  0  0  0  0  0  0  0  0  0
   -0.4619    3.2062    0.8279 H   0  0  0  0  0  0  0  0  0  0  0  0
   -0.4907    3.3645   -0.8460 H   0  0  0  0  0  0  0  0  0  0  0  0
   -0.0003    1.4034   -0.0069 C   0  0  0  0  0  0  0  0  0  0  0  0
   -1.1972    0.6948   -0.0016 C   0  0  0  0  0  0  0  0  0  0  0  0
   -2.0635    1.1835   -0.0008 H   0  0  0  0  0  0  0  0  0  0  0  0
   -1.1999   -0.6985   -0.0000 C   0  0  0  0  0  0  0  0  0  0  0  0
   -2.0775   -1.1909    0.0033 H   0  0  0  0  0  0  0  0  0  0  0  0
    0.0001   -1.3935   -0.0006 C   0  0  0  0  0  0  0  0  0  0  0  0
   -0.0033   -2.3933   -0.0017 H   0  0  0  0  0  0  0  0  0  0  0  0
    1.1999   -0.6986   -0.0000 C   0  0  0  0  0  0  0  0  0  0  0  0
    2.0813   -1.1966   -0.0046 H   0  0  0  0  0  0  0  0  0  0  0  0
    1.1973    0.6923    0.0092 C   0  0  0  0  0  0  0  0  0  0  0  0
    2.0655    1.1879    0.0271 H   0  0  0  0  0  0  0  0  0  0  0  0
  1  5  1  0
  5  8  1  0
  1  2  1  0
  1  3  1  0
  1  4  1  0
  5  6  1  0
  5  7  1  0
  8  9  1  0
  8 10  1  0
  8 11  1  0
 12 16  1  0
 16 17  2  0
 17 19  1  0
 19 21  2  0
 21 23  1  0
 23 25  2  0
 25 16  1  0
 12 13  1  0
 12 14  1  0
 12 15  1  0
 17 18  1  0
 19 20  1  0
 21 22  1  0
 23 24  1  0
 25 26  1  0
M  CHG  1   8   1
M  END
>  <PDB_ID>  (3513) 
pdb5ylw

>  <RESIDUE_NAME>  (3513) 
LYS   PHE

>  <FRAG_NAME>  (3513) 
ETAM   MBZ

>  <FRAG_ATOM_NUM>  (3513) 
fragi: 11  fragj: 15

>  <atom.prop.CHAIN_ID>  (3513) 
A A A A A A A A A A A Z Z Z Z Z Z Z Z Z Z Z Z Z Z Z

>  <atom.prop.IS_HEAVY_ATOM>  (3513) 
1 0 0 0 1 0 0 1 0 0 0 1 0 0 0 1 1 0 1 0 1 0 1 0 1 0

>  <DIFUSE_FUNC_ATOM>  (3513) 
n/a

>  <FINAL_SINGLE_POINT_ENERGY>  (3513) 
0

>  <NONCOV_INTER_ENERGY_QM>  (3513) 
0

>  <FF_Energy>  (3513) 
-8.0

>  <QM_Energy>  (3513) 
-15.66

>  <source>  (3513) 
ETAM_MBZ

>  <Index>  (3513) 
38888

$$$$
ETAM-pdb5yp1-D-LYS-510:MBZ-pdb5yp1-D-PHE-514
     RDKit          3D

 26 25  0  0  0  0  0  0  0  0999 V2000
    0.8311   -0.4540    3.4803 C   0  0  0  0  0  0  0  0  0  0  0  0
    0.2653    0.0774    2.8561 H   0  0  0  0  0  0  0  0  0  0  0  0
    1.5429   -0.9318    2.9743 H   0  0  0  0  0  0  0  0  0  0  0  0
    1.3006    0.2252    4.1918 H   0  0  0  0  0  0  0  0  0  0  0  0
   -0.0514   -1.4925    4.1704 C   0  0  0  0  0  0  0  0  0  0  0  0
    0.4521   -2.3498    4.2403 H   0  0  0  0  0  0  0  0  0  0  0  0
   -0.2882   -1.1621    5.0805 H   0  0  0  0  0  0  0  0  0  0  0  0
   -1.3032   -1.7191    3.3875 N   0  0  0  0  0  4  0  0  0  0  0  0
   -1.0885   -2.2518    2.5704 H   0  0  0  0  0  0  0  0  0  0  0  0
   -1.9585   -2.2184    3.9527 H   0  0  0  0  0  0  0  0  0  0  0  0
   -1.6897   -0.8367    3.1228 H   0  0  0  0  0  0  0  0  0  0  0  0
    0.0136    2.9282   -0.0052 C   0  0  0  0  0  0  0  0  0  0  0  0
    0.8657    3.2201    0.4005 H   0  0  0  0  0  0  0  0  0  0  0  0
   -0.7620    3.2346    0.5245 H   0  0  0  0  0  0  0  0  0  0  0  0
   -0.0586    3.3760   -0.9963 H   0  0  0  0  0  0  0  0  0  0  0  0
    0.0008    1.4099   -0.0070 C   0  0  0  0  0  0  0  0  0  0  0  0
   -1.2015    0.6979    0.0033 C   0  0  0  0  0  0  0  0  0  0  0  0
   -2.0652    1.1889    0.0115 H   0  0  0  0  0  0  0  0  0  0  0  0
   -1.2024   -0.6933   -0.0000 C   0  0  0  0  0  0  0  0  0  0  0  0
   -2.0788   -1.1891   -0.0082 H   0  0  0  0  0  0  0  0  0  0  0  0
    0.0013   -1.3957    0.0094 C   0  0  0  0  0  0  0  0  0  0  0  0
   -0.0097   -2.3944    0.0226 H   0  0  0  0  0  0  0  0  0  0  0  0
    1.2024   -0.7052    0.0000 C   0  0  0  0  0  0  0  0  0  0  0  0
    2.0830   -1.2029   -0.0015 H   0  0  0  0  0  0  0  0  0  0  0  0
    1.1993    0.6863   -0.0057 C   0  0  0  0  0  0  0  0  0  0  0  0
    2.0688    1.1825   -0.0102 H   0  0  0  0  0  0  0  0  0  0  0  0
  1  5  1  0
  5  8  1  0
  1  2  1  0
  1  3  1  0
  1  4  1  0
  5  6  1  0
  5  7  1  0
  8  9  1  0
  8 10  1  0
  8 11  1  0
 12 16  1  0
 16 17  2  0
 17 19  1  0
 19 21  2  0
 21 23  1  0
 23 25  2  0
 25 16  1  0
 12 13  1  0
 12 14  1  0
 12 15  1  0
 17 18  1  0
 19 20  1  0
 21 22  1  0
 23 24  1  0
 25 26  1  0
M  CHG  1   8   1
M  END
>  <PDB_ID>  (3514) 
pdb5yp1

>  <RESIDUE_NAME>  (3514) 
LYS   PHE

>  <FRAG_NAME>  (3514) 
ETAM   MBZ

>  <FRAG_ATOM_NUM>  (3514) 
fragi: 11  fragj: 15

>  <atom.prop.CHAIN_ID>  (3514) 
A A A A A A A A A A A Z Z Z Z Z Z Z Z Z Z Z Z Z Z Z

>  <atom.prop.IS_HEAVY_ATOM>  (3514) 
1 0 0 0 1 0 0 1 0 0 0 1 0 0 0 1 1 0 1 0 1 0 1 0 1 0

>  <DIFUSE_FUNC_ATOM>  (3514) 
n/a

>  <FINAL_SINGLE_POINT_ENERGY>  (3514) 
0

>  <NONCOV_INTER_ENERGY_QM>  (3514) 
0

>  <FF_Energy>  (3514) 
-5.4

>  <QM_Energy>  (3514) 
-11.73

>  <source>  (3514) 
ETAM_MBZ

>  <Index>  (3514) 
38913

$$$$
ETAM-pdb5yqg-C-LYS-162:MBZ-pdb5yqg-C-PHE-158
     RDKit          3D

 26 25  0  0  0  0  0  0  0  0999 V2000
    1.4731   -0.5074    4.1441 C   0  0  0  0  0  0  0  0  0  0  0  0
    1.8665    0.4013    4.2693 H   0  0  0  0  0  0  0  0  0  0  0  0
    1.7884   -1.1168    4.8682 H   0  0  0  0  0  0  0  0  0  0  0  0
    0.3863   -0.4346    4.1858 H   0  0  0  0  0  0  0  0  0  0  0  0
    1.9578   -1.0599    2.8084 C   0  0  0  0  0  0  0  0  0  0  0  0
    1.5743   -1.9706    2.6776 H   0  0  0  0  0  0  0  0  0  0  0  0
    1.6522   -0.4545    2.0777 H   0  0  0  0  0  0  0  0  0  0  0  0
    3.4423   -1.1430    2.7921 N   0  0  0  0  0  4  0  0  0  0  0  0
    3.8251   -0.3465    3.2618 H   0  0  0  0  0  0  0  0  0  0  0  0
    3.7336   -1.9775    3.2584 H   0  0  0  0  0  0  0  0  0  0  0  0
    3.7637   -1.1593    1.8457 H   0  0  0  0  0  0  0  0  0  0  0  0
   -0.0133    2.9127    0.0044 C   0  0  0  0  0  0  0  0  0  0  0  0
   -0.1878    3.2106   -0.9199 H   0  0  0  0  0  0  0  0  0  0  0  0
    0.8669    3.2196    0.3278 H   0  0  0  0  0  0  0  0  0  0  0  0
   -0.7799    3.3415    0.6499 H   0  0  0  0  0  0  0  0  0  0  0  0
   -0.0013    1.3982    0.0053 C   0  0  0  0  0  0  0  0  0  0  0  0
   -1.1908    0.6833    0.0007 C   0  0  0  0  0  0  0  0  0  0  0  0
   -2.0619    1.1741   -0.0034 H   0  0  0  0  0  0  0  0  0  0  0  0
   -1.1955   -0.7013    0.0000 C   0  0  0  0  0  0  0  0  0  0  0  0
   -2.0706   -1.1969   -0.0002 H   0  0  0  0  0  0  0  0  0  0  0  0
    0.0044   -1.3910    0.0016 C   0  0  0  0  0  0  0  0  0  0  0  0
    0.0051   -2.3903    0.0037 H   0  0  0  0  0  0  0  0  0  0  0  0
    1.1955   -0.6902   -0.0000 C   0  0  0  0  0  0  0  0  0  0  0  0
    2.0826   -1.1827    0.0063 H   0  0  0  0  0  0  0  0  0  0  0  0
    1.1877    0.7010   -0.0076 C   0  0  0  0  0  0  0  0  0  0  0  0
    2.0576    1.1952   -0.0237 H   0  0  0  0  0  0  0  0  0  0  0  0
  1  5  1  0
  5  8  1  0
  1  2  1  0
  1  3  1  0
  1  4  1  0
  5  6  1  0
  5  7  1  0
  8  9  1  0
  8 10  1  0
  8 11  1  0
 12 16  1  0
 16 17  2  0
 17 19  1  0
 19 21  2  0
 21 23  1  0
 23 25  2  0
 25 16  1  0
 12 13  1  0
 12 14  1  0
 12 15  1  0
 17 18  1  0
 19 20  1  0
 21 22  1  0
 23 24  1  0
 25 26  1  0
M  CHG  1   8   1
M  END
>  <PDB_ID>  (3515) 
pdb5yqg

>  <RESIDUE_NAME>  (3515) 
LYS   PHE

>  <FRAG_NAME>  (3515) 
ETAM   MBZ

>  <FRAG_ATOM_NUM>  (3515) 
fragi: 11  fragj: 15

>  <atom.prop.CHAIN_ID>  (3515) 
A A A A A A A A A A A Z Z Z Z Z Z Z Z Z Z Z Z Z Z Z

>  <atom.prop.IS_HEAVY_ATOM>  (3515) 
1 0 0 0 1 0 0 1 0 0 0 1 0 0 0 1 1 0 1 0 1 0 1 0 1 0

>  <DIFUSE_FUNC_ATOM>  (3515) 
n/a

>  <FINAL_SINGLE_POINT_ENERGY>  (3515) 
0

>  <NONCOV_INTER_ENERGY_QM>  (3515) 
0

>  <FF_Energy>  (3515) 
9.25

>  <QM_Energy>  (3515) 
-3.14

>  <source>  (3515) 
ETAM_MBZ

>  <Index>  (3515) 
38952

$$$$
ETAM-pdb5yym-C-LYS-74:MBZ-pdb5yym-C-PHE-86
     RDKit          3D

 26 25  0  0  0  0  0  0  0  0999 V2000
   -1.7113    0.3447   -4.2086 C   0  0  0  0  0  0  0  0  0  0  0  0
   -2.0456   -0.5865   -4.3104 H   0  0  0  0  0  0  0  0  0  0  0  0
   -1.5273    0.7455   -5.0996 H   0  0  0  0  0  0  0  0  0  0  0  0
   -2.4739    0.9391   -3.7053 H   0  0  0  0  0  0  0  0  0  0  0  0
   -0.4134    0.3103   -3.4141 C   0  0  0  0  0  0  0  0  0  0  0  0
   -0.0532    1.2439   -3.3401 H   0  0  0  0  0  0  0  0  0  0  0  0
   -0.6060   -0.0361   -2.4911 H   0  0  0  0  0  0  0  0  0  0  0  0
    0.6116   -0.5592   -4.0573 N   0  0  0  0  0  4  0  0  0  0  0  0
    0.8468   -0.1858   -4.9538 H   0  0  0  0  0  0  0  0  0  0  0  0
    1.4280   -0.5889   -3.4819 H   0  0  0  0  0  0  0  0  0  0  0  0
    0.2424   -1.4821   -4.1644 H   0  0  0  0  0  0  0  0  0  0  0  0
   -0.0013    2.9058   -0.0039 C   0  0  0  0  0  0  0  0  0  0  0  0
   -0.6964    3.2072   -0.6384 H   0  0  0  0  0  0  0  0  0  0  0  0
    0.8973    3.2103   -0.2820 H   0  0  0  0  0  0  0  0  0  0  0  0
   -0.2186    3.3522    0.9664 H   0  0  0  0  0  0  0  0  0  0  0  0
   -0.0000    1.3983    0.0024 C   0  0  0  0  0  0  0  0  0  0  0  0
   -1.1925    0.6888   -0.0044 C   0  0  0  0  0  0  0  0  0  0  0  0
   -2.0612    1.1799   -0.0138 H   0  0  0  0  0  0  0  0  0  0  0  0
   -1.1959   -0.6957   -0.0000 C   0  0  0  0  0  0  0  0  0  0  0  0
   -2.0744   -1.1910    0.0031 H   0  0  0  0  0  0  0  0  0  0  0  0
   -0.0002   -1.3881    0.0023 C   0  0  0  0  0  0  0  0  0  0  0  0
   -0.0035   -2.3888    0.0053 H   0  0  0  0  0  0  0  0  0  0  0  0
    1.1959   -0.6951   -0.0000 C   0  0  0  0  0  0  0  0  0  0  0  0
    2.0792   -1.1940    0.0002 H   0  0  0  0  0  0  0  0  0  0  0  0
    1.1928    0.6917   -0.0003 C   0  0  0  0  0  0  0  0  0  0  0  0
    2.0621    1.1879   -0.0028 H   0  0  0  0  0  0  0  0  0  0  0  0
  1  5  1  0
  5  8  1  0
  1  2  1  0
  1  3  1  0
  1  4  1  0
  5  6  1  0
  5  7  1  0
  8  9  1  0
  8 10  1  0
  8 11  1  0
 12 16  1  0
 16 17  2  0
 17 19  1  0
 19 21  2  0
 21 23  1  0
 23 25  2  0
 25 16  1  0
 12 13  1  0
 12 14  1  0
 12 15  1  0
 17 18  1  0
 19 20  1  0
 21 22  1  0
 23 24  1  0
 25 26  1  0
M  CHG  1   8   1
M  END
>  <PDB_ID>  (3516) 
pdb5yym

>  <RESIDUE_NAME>  (3516) 
LYS   PHE

>  <FRAG_NAME>  (3516) 
ETAM   MBZ

>  <FRAG_ATOM_NUM>  (3516) 
fragi: 11  fragj: 15

>  <atom.prop.CHAIN_ID>  (3516) 
A A A A A A A A A A A Z Z Z Z Z Z Z Z Z Z Z Z Z Z Z

>  <atom.prop.IS_HEAVY_ATOM>  (3516) 
1 0 0 0 1 0 0 1 0 0 0 1 0 0 0 1 1 0 1 0 1 0 1 0 1 0

>  <DIFUSE_FUNC_ATOM>  (3516) 
n/a

>  <FINAL_SINGLE_POINT_ENERGY>  (3516) 
0

>  <NONCOV_INTER_ENERGY_QM>  (3516) 
0

>  <FF_Energy>  (3516) 
-5.79

>  <QM_Energy>  (3516) 
-10.88

>  <source>  (3516) 
ETAM_MBZ

>  <Index>  (3516) 
38969

$$$$
ETAM-pdb5yyz-A-LYS-43:MBZ-pdb5yyz-A-PHE-76
     RDKit          3D

 26 25  0  0  0  0  0  0  0  0999 V2000
   -1.5285    0.4888   -3.8128 C   0  0  0  0  0  0  0  0  0  0  0  0
   -1.6074    0.2219   -4.7654 H   0  0  0  0  0  0  0  0  0  0  0  0
   -1.6641    1.4664   -3.7090 H   0  0  0  0  0  0  0  0  0  0  0  0
   -2.2953   -0.0332   -3.2403 H   0  0  0  0  0  0  0  0  0  0  0  0
   -0.1268    0.1346   -3.3202 C   0  0  0  0  0  0  0  0  0  0  0  0
   -0.0527    0.3842   -2.3464 H   0  0  0  0  0  0  0  0  0  0  0  0
    0.0023   -0.8623   -3.3997 H   0  0  0  0  0  0  0  0  0  0  0  0
    0.9599    0.8265   -4.0822 N   0  0  0  0  0  4  0  0  0  0  0  0
    1.6711    0.1645   -4.3109 H   0  0  0  0  0  0  0  0  0  0  0  0
    0.5777    1.2153   -4.9185 H   0  0  0  0  0  0  0  0  0  0  0  0
    1.3437    1.5541   -3.5167 H   0  0  0  0  0  0  0  0  0  0  0  0
    0.0090    2.9007   -0.0201 C   0  0  0  0  0  0  0  0  0  0  0  0
   -0.6263    3.1970   -0.7241 H   0  0  0  0  0  0  0  0  0  0  0  0
    0.9321    3.1980   -0.2368 H   0  0  0  0  0  0  0  0  0  0  0  0
   -0.2826    3.3841    0.9122 H   0  0  0  0  0  0  0  0  0  0  0  0
   -0.0005    1.4008    0.0132 C   0  0  0  0  0  0  0  0  0  0  0  0
   -1.1933    0.6966   -0.0074 C   0  0  0  0  0  0  0  0  0  0  0  0
   -2.0612    1.1836   -0.0293 H   0  0  0  0  0  0  0  0  0  0  0  0
   -1.1971   -0.6958    0.0000 C   0  0  0  0  0  0  0  0  0  0  0  0
   -2.0762   -1.1875    0.0098 H   0  0  0  0  0  0  0  0  0  0  0  0
   -0.0004   -1.3915   -0.0047 C   0  0  0  0  0  0  0  0  0  0  0  0
   -0.0065   -2.3922   -0.0118 H   0  0  0  0  0  0  0  0  0  0  0  0
    1.1971   -0.7000   -0.0000 C   0  0  0  0  0  0  0  0  0  0  0  0
    2.0795   -1.1972    0.0059 H   0  0  0  0  0  0  0  0  0  0  0  0
    1.1941    0.6899   -0.0010 C   0  0  0  0  0  0  0  0  0  0  0  0
    2.0632    1.1850   -0.0130 H   0  0  0  0  0  0  0  0  0  0  0  0
  1  5  1  0
  5  8  1  0
  1  2  1  0
  1  3  1  0
  1  4  1  0
  5  6  1  0
  5  7  1  0
  8  9  1  0
  8 10  1  0
  8 11  1  0
 12 16  1  0
 16 17  2  0
 17 19  1  0
 19 21  2  0
 21 23  1  0
 23 25  2  0
 25 16  1  0
 12 13  1  0
 12 14  1  0
 12 15  1  0
 17 18  1  0
 19 20  1  0
 21 22  1  0
 23 24  1  0
 25 26  1  0
M  CHG  1   8   1
M  END
>  <PDB_ID>  (3517) 
pdb5yyz

>  <RESIDUE_NAME>  (3517) 
LYS   PHE

>  <FRAG_NAME>  (3517) 
ETAM   MBZ

>  <FRAG_ATOM_NUM>  (3517) 
fragi: 11  fragj: 15

>  <atom.prop.CHAIN_ID>  (3517) 
A A A A A A A A A A A Z Z Z Z Z Z Z Z Z Z Z Z Z Z Z

>  <atom.prop.IS_HEAVY_ATOM>  (3517) 
1 0 0 0 1 0 0 1 0 0 0 1 0 0 0 1 1 0 1 0 1 0 1 0 1 0

>  <DIFUSE_FUNC_ATOM>  (3517) 
n/a

>  <FINAL_SINGLE_POINT_ENERGY>  (3517) 
0

>  <NONCOV_INTER_ENERGY_QM>  (3517) 
0

>  <FF_Energy>  (3517) 
-5.0

>  <QM_Energy>  (3517) 
-10.54

>  <source>  (3517) 
ETAM_MBZ

>  <Index>  (3517) 
38971

$$$$
ETAM-pdb5yzh-A-LYS-400:MBZ-pdb5yzh-A-PHE-371
     RDKit          3D

 26 25  0  0  0  0  0  0  0  0999 V2000
   -0.9673    0.7716    4.3458 C   0  0  0  0  0  0  0  0  0  0  0  0
   -0.6596    0.5517    5.2655 H   0  0  0  0  0  0  0  0  0  0  0  0
   -1.9241    0.5258    4.2327 H   0  0  0  0  0  0  0  0  0  0  0  0
   -0.8559    1.8437    4.1833 H   0  0  0  0  0  0  0  0  0  0  0  0
   -0.1401   -0.0252    3.3531 C   0  0  0  0  0  0  0  0  0  0  0  0
   -0.4174    0.2262    2.4213 H   0  0  0  0  0  0  0  0  0  0  0  0
    0.8291    0.2090    3.4741 H   0  0  0  0  0  0  0  0  0  0  0  0
   -0.3133   -1.4921    3.5337 N   0  0  0  0  0  4  0  0  0  0  0  0
   -1.2294   -1.7570    3.2354 H   0  0  0  0  0  0  0  0  0  0  0  0
    0.3693   -1.9766    2.9874 H   0  0  0  0  0  0  0  0  0  0  0  0
   -0.1958   -1.7238    4.4989 H   0  0  0  0  0  0  0  0  0  0  0  0
    0.0006    2.9000    0.0114 C   0  0  0  0  0  0  0  0  0  0  0  0
    0.8297    3.2032    0.4564 H   0  0  0  0  0  0  0  0  0  0  0  0
   -0.8024    3.2017    0.5041 H   0  0  0  0  0  0  0  0  0  0  0  0
   -0.0291    3.3480   -0.9818 H   0  0  0  0  0  0  0  0  0  0  0  0
    0.0018    1.3976   -0.0006 C   0  0  0  0  0  0  0  0  0  0  0  0
   -1.1919    0.6909    0.0020 C   0  0  0  0  0  0  0  0  0  0  0  0
   -2.0602    1.1800    0.0043 H   0  0  0  0  0  0  0  0  0  0  0  0
   -1.1961   -0.6989    0.0000 C   0  0  0  0  0  0  0  0  0  0  0  0
   -2.0761   -1.1896    0.0018 H   0  0  0  0  0  0  0  0  0  0  0  0
   -0.0042   -1.3871   -0.0028 C   0  0  0  0  0  0  0  0  0  0  0  0
   -0.0031   -2.3893   -0.0075 H   0  0  0  0  0  0  0  0  0  0  0  0
    1.1961   -0.6931   -0.0000 C   0  0  0  0  0  0  0  0  0  0  0  0
    2.0771   -1.1951    0.0020 H   0  0  0  0  0  0  0  0  0  0  0  0
    1.1944    0.6907    0.0014 C   0  0  0  0  0  0  0  0  0  0  0  0
    2.0635    1.1876    0.0036 H   0  0  0  0  0  0  0  0  0  0  0  0
  1  5  1  0
  5  8  1  0
  1  2  1  0
  1  3  1  0
  1  4  1  0
  5  6  1  0
  5  7  1  0
  8  9  1  0
  8 10  1  0
  8 11  1  0
 12 16  1  0
 16 17  2  0
 17 19  1  0
 19 21  2  0
 21 23  1  0
 23 25  2  0
 25 16  1  0
 12 13  1  0
 12 14  1  0
 12 15  1  0
 17 18  1  0
 19 20  1  0
 21 22  1  0
 23 24  1  0
 25 26  1  0
M  CHG  1   8   1
M  END
>  <PDB_ID>  (3518) 
pdb5yzh

>  <RESIDUE_NAME>  (3518) 
LYS   PHE

>  <FRAG_NAME>  (3518) 
ETAM   MBZ

>  <FRAG_ATOM_NUM>  (3518) 
fragi: 11  fragj: 15

>  <atom.prop.CHAIN_ID>  (3518) 
A A A A A A A A A A A Z Z Z Z Z Z Z Z Z Z Z Z Z Z Z

>  <atom.prop.IS_HEAVY_ATOM>  (3518) 
1 0 0 0 1 0 0 1 0 0 0 1 0 0 0 1 1 0 1 0 1 0 1 0 1 0

>  <DIFUSE_FUNC_ATOM>  (3518) 
n/a

>  <FINAL_SINGLE_POINT_ENERGY>  (3518) 
0

>  <NONCOV_INTER_ENERGY_QM>  (3518) 
0

>  <FF_Energy>  (3518) 
-5.6

>  <QM_Energy>  (3518) 
-12.7

>  <source>  (3518) 
ETAM_MBZ

>  <Index>  (3518) 
38973

$$$$
ETAM-pdb5yxt-A-LYS-296:MBZ-pdb5yxt-A-PHE-292
     RDKit          3D

 26 25  0  0  0  0  0  0  0  0999 V2000
    2.2954   -1.4062    3.9621 C   0  0  0  0  0  0  0  0  0  0  0  0
    2.6739   -0.6972    3.3817 H   0  0  0  0  0  0  0  0  0  0  0  0
    2.8590   -2.2207    3.9394 H   0  0  0  0  0  0  0  0  0  0  0  0
    2.2338   -1.0380    4.9862 H   0  0  0  0  0  0  0  0  0  0  0  0
    0.9102   -1.7643    3.4437 C   0  0  0  0  0  0  0  0  0  0  0  0
    0.9704   -1.9623    2.4623 H   0  0  0  0  0  0  0  0  0  0  0  0
    0.5856   -2.5858    3.9211 H   0  0  0  0  0  0  0  0  0  0  0  0
   -0.0719   -0.6575    3.6578 N   0  0  0  0  0  4  0  0  0  0  0  0
    0.1698   -0.1611    4.4896 H   0  0  0  0  0  0  0  0  0  0  0  0
   -0.0442   -0.0382    2.8746 H   0  0  0  0  0  0  0  0  0  0  0  0
   -0.9873   -1.0449    3.7493 H   0  0  0  0  0  0  0  0  0  0  0  0
   -0.0041    2.8914    0.0296 C   0  0  0  0  0  0  0  0  0  0  0  0
   -0.7210    3.2103   -0.5696 H   0  0  0  0  0  0  0  0  0  0  0  0
    0.8832    3.2093   -0.2639 H   0  0  0  0  0  0  0  0  0  0  0  0
   -0.1928    3.2948    1.0245 H   0  0  0  0  0  0  0  0  0  0  0  0
    0.0013    1.3953   -0.0059 C   0  0  0  0  0  0  0  0  0  0  0  0
   -1.1910    0.6959    0.0079 C   0  0  0  0  0  0  0  0  0  0  0  0
   -2.0578    1.1849    0.0220 H   0  0  0  0  0  0  0  0  0  0  0  0
   -1.1945   -0.6925    0.0000 C   0  0  0  0  0  0  0  0  0  0  0  0
   -2.0755   -1.1843   -0.0011 H   0  0  0  0  0  0  0  0  0  0  0  0
   -0.0026   -1.3858   -0.0037 C   0  0  0  0  0  0  0  0  0  0  0  0
   -0.0095   -2.3894   -0.0095 H   0  0  0  0  0  0  0  0  0  0  0  0
    1.1945   -0.6999   -0.0000 C   0  0  0  0  0  0  0  0  0  0  0  0
    2.0760   -1.1990    0.0035 H   0  0  0  0  0  0  0  0  0  0  0  0
    1.1923    0.6870    0.0017 C   0  0  0  0  0  0  0  0  0  0  0  0
    2.0627    1.1822    0.0074 H   0  0  0  0  0  0  0  0  0  0  0  0
  1  5  1  0
  5  8  1  0
  1  2  1  0
  1  3  1  0
  1  4  1  0
  5  6  1  0
  5  7  1  0
  8  9  1  0
  8 10  1  0
  8 11  1  0
 12 16  1  0
 16 17  2  0
 17 19  1  0
 19 21  2  0
 21 23  1  0
 23 25  2  0
 25 16  1  0
 12 13  1  0
 12 14  1  0
 12 15  1  0
 17 18  1  0
 19 20  1  0
 21 22  1  0
 23 24  1  0
 25 26  1  0
M  CHG  1   8   1
M  END
>  <PDB_ID>  (3519) 
pdb5yxt

>  <RESIDUE_NAME>  (3519) 
LYS   PHE

>  <FRAG_NAME>  (3519) 
ETAM   MBZ

>  <FRAG_ATOM_NUM>  (3519) 
fragi: 11  fragj: 15

>  <atom.prop.CHAIN_ID>  (3519) 
A A A A A A A A A A A Z Z Z Z Z Z Z Z Z Z Z Z Z Z Z

>  <atom.prop.IS_HEAVY_ATOM>  (3519) 
1 0 0 0 1 0 0 1 0 0 0 1 0 0 0 1 1 0 1 0 1 0 1 0 1 0

>  <DIFUSE_FUNC_ATOM>  (3519) 
n/a

>  <FINAL_SINGLE_POINT_ENERGY>  (3519) 
0

>  <NONCOV_INTER_ENERGY_QM>  (3519) 
0

>  <FF_Energy>  (3519) 
-6.97

>  <QM_Energy>  (3519) 
-12.8

>  <source>  (3519) 
ETAM_MBZ

>  <Index>  (3519) 
38977

$$$$
ETAM-pdb5yy3-A-LYS-638:MBZ-pdb5yy3-A-PHE-437
     RDKit          3D

 26 25  0  0  0  0  0  0  0  0999 V2000
    0.0070    2.3067   -4.1193 C   0  0  0  0  0  0  0  0  0  0  0  0
   -0.1286    2.2636   -5.1086 H   0  0  0  0  0  0  0  0  0  0  0  0
    0.9793    2.4236   -3.9195 H   0  0  0  0  0  0  0  0  0  0  0  0
   -0.5359    3.1679   -3.7296 H   0  0  0  0  0  0  0  0  0  0  0  0
   -0.4570    0.9896   -3.5103 C   0  0  0  0  0  0  0  0  0  0  0  0
   -0.6628    1.1278   -2.5488 H   0  0  0  0  0  0  0  0  0  0  0  0
   -1.2616    0.6690   -3.9967 H   0  0  0  0  0  0  0  0  0  0  0  0
    0.6321   -0.0421   -3.6338 N   0  0  0  0  0  4  0  0  0  0  0  0
    1.3023    0.1077   -2.9118 H   0  0  0  0  0  0  0  0  0  0  0  0
    0.2292   -0.9497   -3.5424 H   0  0  0  0  0  0  0  0  0  0  0  0
    1.0651    0.0505   -4.5268 H   0  0  0  0  0  0  0  0  0  0  0  0
    0.0044    2.9158   -0.0223 C   0  0  0  0  0  0  0  0  0  0  0  0
   -0.7569    3.2108   -0.5815 H   0  0  0  0  0  0  0  0  0  0  0  0
    0.8672    3.2116   -0.4072 H   0  0  0  0  0  0  0  0  0  0  0  0
   -0.1008    3.3825    0.9571 H   0  0  0  0  0  0  0  0  0  0  0  0
    0.0021    1.4050    0.0023 C   0  0  0  0  0  0  0  0  0  0  0  0
   -1.1926    0.6954   -0.0089 C   0  0  0  0  0  0  0  0  0  0  0  0
   -2.0606    1.1804   -0.0250 H   0  0  0  0  0  0  0  0  0  0  0  0
   -1.1964   -0.7041    0.0000 C   0  0  0  0  0  0  0  0  0  0  0  0
   -2.0774   -1.1903    0.0013 H   0  0  0  0  0  0  0  0  0  0  0  0
   -0.0045   -1.3951    0.0091 C   0  0  0  0  0  0  0  0  0  0  0  0
   -0.0019   -2.3951    0.0218 H   0  0  0  0  0  0  0  0  0  0  0  0
    1.1964   -0.6963   -0.0000 C   0  0  0  0  0  0  0  0  0  0  0  0
    2.0787   -1.1950   -0.0031 H   0  0  0  0  0  0  0  0  0  0  0  0
    1.1951    0.6951   -0.0025 C   0  0  0  0  0  0  0  0  0  0  0  0
    2.0651    1.1888   -0.0089 H   0  0  0  0  0  0  0  0  0  0  0  0
  1  5  1  0
  5  8  1  0
  1  2  1  0
  1  3  1  0
  1  4  1  0
  5  6  1  0
  5  7  1  0
  8  9  1  0
  8 10  1  0
  8 11  1  0
 12 16  1  0
 16 17  2  0
 17 19  1  0
 19 21  2  0
 21 23  1  0
 23 25  2  0
 25 16  1  0
 12 13  1  0
 12 14  1  0
 12 15  1  0
 17 18  1  0
 19 20  1  0
 21 22  1  0
 23 24  1  0
 25 26  1  0
M  CHG  1   8   1
M  END
>  <PDB_ID>  (3520) 
pdb5yy3

>  <RESIDUE_NAME>  (3520) 
LYS   PHE

>  <FRAG_NAME>  (3520) 
ETAM   MBZ

>  <FRAG_ATOM_NUM>  (3520) 
fragi: 11  fragj: 15

>  <atom.prop.CHAIN_ID>  (3520) 
A A A A A A A A A A A Z Z Z Z Z Z Z Z Z Z Z Z Z Z Z

>  <atom.prop.IS_HEAVY_ATOM>  (3520) 
1 0 0 0 1 0 0 1 0 0 0 1 0 0 0 1 1 0 1 0 1 0 1 0 1 0

>  <DIFUSE_FUNC_ATOM>  (3520) 
n/a

>  <FINAL_SINGLE_POINT_ENERGY>  (3520) 
0

>  <NONCOV_INTER_ENERGY_QM>  (3520) 
0

>  <FF_Energy>  (3520) 
-7.16

>  <QM_Energy>  (3520) 
-13.09

>  <source>  (3520) 
ETAM_MBZ

>  <Index>  (3520) 
38978

$$$$
ETAM-pdb5z1n-A-LYS-189:MBZ-pdb5z1n-A-PHE-259
     RDKit          3D

 26 25  0  0  0  0  0  0  0  0999 V2000
   -4.1141   -1.8055   -1.3453 C   0  0  0  0  0  0  0  0  0  0  0  0
   -4.9626   -2.1336   -1.7470 H   0  0  0  0  0  0  0  0  0  0  0  0
   -3.9162   -2.2948   -0.5034 H   0  0  0  0  0  0  0  0  0  0  0  0
   -3.3015   -1.9756   -2.0516 H   0  0  0  0  0  0  0  0  0  0  0  0
   -4.2809   -0.3174   -1.0114 C   0  0  0  0  0  0  0  0  0  0  0  0
   -3.4860   -0.0201   -0.4683 H   0  0  0  0  0  0  0  0  0  0  0  0
   -4.2883    0.2050   -1.8724 H   0  0  0  0  0  0  0  0  0  0  0  0
   -5.5317   -0.0222   -0.2492 N   0  0  0  0  0  4  0  0  0  0  0  0
   -6.3152   -0.3883   -0.7484 H   0  0  0  0  0  0  0  0  0  0  0  0
   -5.4764   -0.4495    0.6517 H   0  0  0  0  0  0  0  0  0  0  0  0
   -5.6291    0.9665   -0.1470 H   0  0  0  0  0  0  0  0  0  0  0  0
    0.0340    2.8924    0.0060 C   0  0  0  0  0  0  0  0  0  0  0  0
    0.3934    3.1930   -0.8683 H   0  0  0  0  0  0  0  0  0  0  0  0
    0.6218    3.1878    0.7484 H   0  0  0  0  0  0  0  0  0  0  0  0
   -0.9379    3.3659    0.1450 H   0  0  0  0  0  0  0  0  0  0  0  0
    0.0024    1.3933    0.0058 C   0  0  0  0  0  0  0  0  0  0  0  0
   -1.1878    0.6984   -0.0045 C   0  0  0  0  0  0  0  0  0  0  0  0
   -2.0544    1.1869   -0.0165 H   0  0  0  0  0  0  0  0  0  0  0  0
   -1.1876   -0.6871   -0.0000 C   0  0  0  0  0  0  0  0  0  0  0  0
   -2.0714   -1.1802    0.0080 H   0  0  0  0  0  0  0  0  0  0  0  0
    0.0001   -1.3838   -0.0043 C   0  0  0  0  0  0  0  0  0  0  0  0
   -0.0109   -2.3865   -0.0116 H   0  0  0  0  0  0  0  0  0  0  0  0
    1.1876   -0.6999   -0.0000 C   0  0  0  0  0  0  0  0  0  0  0  0
    2.0734   -1.1992    0.0023 H   0  0  0  0  0  0  0  0  0  0  0  0
    1.1853    0.6791    0.0031 C   0  0  0  0  0  0  0  0  0  0  0  0
    2.0607    1.1753    0.0027 H   0  0  0  0  0  0  0  0  0  0  0  0
  1  5  1  0
  5  8  1  0
  1  2  1  0
  1  3  1  0
  1  4  1  0
  5  6  1  0
  5  7  1  0
  8  9  1  0
  8 10  1  0
  8 11  1  0
 12 16  1  0
 16 17  2  0
 17 19  1  0
 19 21  2  0
 21 23  1  0
 23 25  2  0
 25 16  1  0
 12 13  1  0
 12 14  1  0
 12 15  1  0
 17 18  1  0
 19 20  1  0
 21 22  1  0
 23 24  1  0
 25 26  1  0
M  CHG  1   8   1
M  END
>  <PDB_ID>  (3521) 
pdb5z1n

>  <RESIDUE_NAME>  (3521) 
LYS   PHE

>  <FRAG_NAME>  (3521) 
ETAM   MBZ

>  <FRAG_ATOM_NUM>  (3521) 
fragi: 11  fragj: 15

>  <atom.prop.CHAIN_ID>  (3521) 
A A A A A A A A A A A Z Z Z Z Z Z Z Z Z Z Z Z Z Z Z

>  <atom.prop.IS_HEAVY_ATOM>  (3521) 
1 0 0 0 1 0 0 1 0 0 0 1 0 0 0 1 1 0 1 0 1 0 1 0 1 0

>  <DIFUSE_FUNC_ATOM>  (3521) 
n/a

>  <FINAL_SINGLE_POINT_ENERGY>  (3521) 
0

>  <NONCOV_INTER_ENERGY_QM>  (3521) 
0

>  <FF_Energy>  (3521) 
8.22

>  <QM_Energy>  (3521) 
-1.0

>  <source>  (3521) 
ETAM_MBZ

>  <Index>  (3521) 
38981

$$$$
ETAM-pdb5z5m-A-LYS-65:MBZ-pdb5z5m-A-PHE-155
     RDKit          3D

 26 25  0  0  0  0  0  0  0  0999 V2000
    0.7547   -2.7491   -5.0217 C   0  0  0  0  0  0  0  0  0  0  0  0
    1.4383   -3.1714   -5.6059 H   0  0  0  0  0  0  0  0  0  0  0  0
   -0.0290   -2.4567   -5.5579 H   0  0  0  0  0  0  0  0  0  0  0  0
    0.4258   -3.4755   -4.2787 H   0  0  0  0  0  0  0  0  0  0  0  0
    1.3715   -1.5281   -4.3595 C   0  0  0  0  0  0  0  0  0  0  0  0
    2.0801   -1.8285   -3.7170 H   0  0  0  0  0  0  0  0  0  0  0  0
    1.7943   -0.9528   -5.0647 H   0  0  0  0  0  0  0  0  0  0  0  0
    0.3531   -0.7269   -3.6226 N   0  0  0  0  0  4  0  0  0  0  0  0
   -0.4803   -1.2685   -3.5177 H   0  0  0  0  0  0  0  0  0  0  0  0
    0.7118   -0.4843   -2.7219 H   0  0  0  0  0  0  0  0  0  0  0  0
    0.1510    0.1047   -4.1385 H   0  0  0  0  0  0  0  0  0  0  0  0
   -0.0020    2.9007   -0.0097 C   0  0  0  0  0  0  0  0  0  0  0  0
   -0.6903    3.2011   -0.6533 H   0  0  0  0  0  0  0  0  0  0  0  0
    0.8996    3.2044   -0.2808 H   0  0  0  0  0  0  0  0  0  0  0  0
   -0.2296    3.3516    0.9562 H   0  0  0  0  0  0  0  0  0  0  0  0
   -0.0013    1.3959    0.0028 C   0  0  0  0  0  0  0  0  0  0  0  0
   -1.1912    0.6892   -0.0045 C   0  0  0  0  0  0  0  0  0  0  0  0
   -2.0602    1.1802   -0.0145 H   0  0  0  0  0  0  0  0  0  0  0  0
   -1.1952   -0.6944   -0.0000 C   0  0  0  0  0  0  0  0  0  0  0  0
   -2.0725   -1.1902    0.0037 H   0  0  0  0  0  0  0  0  0  0  0  0
    0.0016   -1.3868    0.0008 C   0  0  0  0  0  0  0  0  0  0  0  0
   -0.0027   -2.3874    0.0014 H   0  0  0  0  0  0  0  0  0  0  0  0
    1.1952   -0.6939    0.0000 C   0  0  0  0  0  0  0  0  0  0  0  0
    2.0794   -1.1916    0.0000 H   0  0  0  0  0  0  0  0  0  0  0  0
    1.1909    0.6900    0.0009 C   0  0  0  0  0  0  0  0  0  0  0  0
    2.0599    1.1878   -0.0008 H   0  0  0  0  0  0  0  0  0  0  0  0
  1  5  1  0
  5  8  1  0
  1  2  1  0
  1  3  1  0
  1  4  1  0
  5  6  1  0
  5  7  1  0
  8  9  1  0
  8 10  1  0
  8 11  1  0
 12 16  1  0
 16 17  2  0
 17 19  1  0
 19 21  2  0
 21 23  1  0
 23 25  2  0
 25 16  1  0
 12 13  1  0
 12 14  1  0
 12 15  1  0
 17 18  1  0
 19 20  1  0
 21 22  1  0
 23 24  1  0
 25 26  1  0
M  CHG  1   8   1
M  END
>  <PDB_ID>  (3522) 
pdb5z5m

>  <RESIDUE_NAME>  (3522) 
LYS   PHE

>  <FRAG_NAME>  (3522) 
ETAM   MBZ

>  <FRAG_ATOM_NUM>  (3522) 
fragi: 11  fragj: 15

>  <atom.prop.CHAIN_ID>  (3522) 
A A A A A A A A A A A Z Z Z Z Z Z Z Z Z Z Z Z Z Z Z

>  <atom.prop.IS_HEAVY_ATOM>  (3522) 
1 0 0 0 1 0 0 1 0 0 0 1 0 0 0 1 1 0 1 0 1 0 1 0 1 0

>  <DIFUSE_FUNC_ATOM>  (3522) 
n/a

>  <FINAL_SINGLE_POINT_ENERGY>  (3522) 
0

>  <NONCOV_INTER_ENERGY_QM>  (3522) 
0

>  <FF_Energy>  (3522) 
-6.9

>  <QM_Energy>  (3522) 
-12.89

>  <source>  (3522) 
ETAM_MBZ

>  <Index>  (3522) 
39013

$$$$
ETAM-pdb5z67-A-LYS-82:MBZ-pdb5z67-A-PHE-79
     RDKit          3D

 26 25  0  0  0  0  0  0  0  0999 V2000
   -0.3908    0.2657   -4.6514 C   0  0  0  0  0  0  0  0  0  0  0  0
   -1.0228    1.0252   -4.5899 H   0  0  0  0  0  0  0  0  0  0  0  0
   -0.5845   -0.2968   -5.4429 H   0  0  0  0  0  0  0  0  0  0  0  0
    0.6224    0.6582   -4.7378 H   0  0  0  0  0  0  0  0  0  0  0  0
   -0.5526   -0.6045   -3.3860 C   0  0  0  0  0  0  0  0  0  0  0  0
   -0.0217   -1.4512   -3.5112 H   0  0  0  0  0  0  0  0  0  0  0  0
   -0.1671   -0.1026   -2.6030 H   0  0  0  0  0  0  0  0  0  0  0  0
   -1.9824   -0.9648   -3.0795 N   0  0  0  0  0  4  0  0  0  0  0  0
   -2.2114   -0.6302   -2.1697 H   0  0  0  0  0  0  0  0  0  0  0  0
   -2.5747   -0.5397   -3.7594 H   0  0  0  0  0  0  0  0  0  0  0  0
   -2.0799   -1.9565   -3.1133 H   0  0  0  0  0  0  0  0  0  0  0  0
    0.0191    2.9108   -0.0146 C   0  0  0  0  0  0  0  0  0  0  0  0
   -0.7790    3.2183   -0.5146 H   0  0  0  0  0  0  0  0  0  0  0  0
    0.8526    3.2060   -0.4615 H   0  0  0  0  0  0  0  0  0  0  0  0
   -0.0094    3.3743    0.9715 H   0  0  0  0  0  0  0  0  0  0  0  0
    0.0071    1.4109    0.0050 C   0  0  0  0  0  0  0  0  0  0  0  0
   -1.1891    0.7105   -0.0083 C   0  0  0  0  0  0  0  0  0  0  0  0
   -2.0557    1.1878   -0.0248 H   0  0  0  0  0  0  0  0  0  0  0  0
   -1.1905   -0.7028   -0.0000 C   0  0  0  0  0  0  0  0  0  0  0  0
   -2.0822   -1.1777    0.0088 H   0  0  0  0  0  0  0  0  0  0  0  0
   -0.0133   -1.3996   -0.0022 C   0  0  0  0  0  0  0  0  0  0  0  0
   -0.0167   -2.4011   -0.0057 H   0  0  0  0  0  0  0  0  0  0  0  0
    1.1905   -0.7128    0.0000 C   0  0  0  0  0  0  0  0  0  0  0  0
    2.0708   -1.2081   -0.0003 H   0  0  0  0  0  0  0  0  0  0  0  0
    1.1953    0.6938    0.0055 C   0  0  0  0  0  0  0  0  0  0  0  0
    2.0705    1.1751    0.0090 H   0  0  0  0  0  0  0  0  0  0  0  0
  1  5  1  0
  5  8  1  0
  1  2  1  0
  1  3  1  0
  1  4  1  0
  5  6  1  0
  5  7  1  0
  8  9  1  0
  8 10  1  0
  8 11  1  0
 12 16  1  0
 16 17  2  0
 17 19  1  0
 19 21  2  0
 21 23  1  0
 23 25  2  0
 25 16  1  0
 12 13  1  0
 12 14  1  0
 12 15  1  0
 17 18  1  0
 19 20  1  0
 21 22  1  0
 23 24  1  0
 25 26  1  0
M  CHG  1   8   1
M  END
>  <PDB_ID>  (3523) 
pdb5z67

>  <RESIDUE_NAME>  (3523) 
LYS   PHE

>  <FRAG_NAME>  (3523) 
ETAM   MBZ

>  <FRAG_ATOM_NUM>  (3523) 
fragi: 11  fragj: 15

>  <atom.prop.CHAIN_ID>  (3523) 
A A A A A A A A A A A Z Z Z Z Z Z Z Z Z Z Z Z Z Z Z

>  <atom.prop.IS_HEAVY_ATOM>  (3523) 
1 0 0 0 1 0 0 1 0 0 0 1 0 0 0 1 1 0 1 0 1 0 1 0 1 0

>  <DIFUSE_FUNC_ATOM>  (3523) 
n/a

>  <FINAL_SINGLE_POINT_ENERGY>  (3523) 
0

>  <NONCOV_INTER_ENERGY_QM>  (3523) 
0

>  <FF_Energy>  (3523) 
-5.29

>  <QM_Energy>  (3523) 
-13.24

>  <source>  (3523) 
ETAM_MBZ

>  <Index>  (3523) 
39018

$$$$
ETAM-pdb5z5m-D-LYS-173:MBZ-pdb5z5m-D-PHE-21
     RDKit          3D

 26 25  0  0  0  0  0  0  0  0999 V2000
    1.2531   -1.5296    4.7022 C   0  0  0  0  0  0  0  0  0  0  0  0
    0.7166   -1.3180    5.5120 H   0  0  0  0  0  0  0  0  0  0  0  0
    2.2168   -1.3528    4.8686 H   0  0  0  0  0  0  0  0  0  0  0  0
    1.1237   -2.5844    4.4594 H   0  0  0  0  0  0  0  0  0  0  0  0
    0.7852   -0.6413    3.5634 C   0  0  0  0  0  0  0  0  0  0  0  0
    1.1131    0.2977    3.7273 H   0  0  0  0  0  0  0  0  0  0  0  0
    1.1948   -0.9708    2.7035 H   0  0  0  0  0  0  0  0  0  0  0  0
   -0.6939   -0.6219    3.4200 N   0  0  0  0  0  4  0  0  0  0  0  0
   -0.9790   -1.3634    2.8129 H   0  0  0  0  0  0  0  0  0  0  0  0
   -1.1169   -0.7435    4.3177 H   0  0  0  0  0  0  0  0  0  0  0  0
   -0.9791    0.2544    3.0326 H   0  0  0  0  0  0  0  0  0  0  0  0
   -0.0005    2.9018   -0.0158 C   0  0  0  0  0  0  0  0  0  0  0  0
   -0.7339    3.2007   -0.6102 H   0  0  0  0  0  0  0  0  0  0  0  0
    0.8789    3.2043   -0.3550 H   0  0  0  0  0  0  0  0  0  0  0  0
   -0.1560    3.3619    0.9601 H   0  0  0  0  0  0  0  0  0  0  0  0
    0.0001    1.3979    0.0029 C   0  0  0  0  0  0  0  0  0  0  0  0
   -1.1932    0.6897   -0.0034 C   0  0  0  0  0  0  0  0  0  0  0  0
   -2.0606    1.1803   -0.0115 H   0  0  0  0  0  0  0  0  0  0  0  0
   -1.1950   -0.6958    0.0000 C   0  0  0  0  0  0  0  0  0  0  0  0
   -2.0735   -1.1914    0.0020 H   0  0  0  0  0  0  0  0  0  0  0  0
    0.0014   -1.3882    0.0021 C   0  0  0  0  0  0  0  0  0  0  0  0
   -0.0024   -2.3893    0.0043 H   0  0  0  0  0  0  0  0  0  0  0  0
    1.1950   -0.6944   -0.0000 C   0  0  0  0  0  0  0  0  0  0  0  0
    2.0795   -1.1931    0.0014 H   0  0  0  0  0  0  0  0  0  0  0  0
    1.1917    0.6908   -0.0015 C   0  0  0  0  0  0  0  0  0  0  0  0
    2.0616    1.1870   -0.0067 H   0  0  0  0  0  0  0  0  0  0  0  0
  1  5  1  0
  5  8  1  0
  1  2  1  0
  1  3  1  0
  1  4  1  0
  5  6  1  0
  5  7  1  0
  8  9  1  0
  8 10  1  0
  8 11  1  0
 12 16  1  0
 16 17  2  0
 17 19  1  0
 19 21  2  0
 21 23  1  0
 23 25  2  0
 25 16  1  0
 12 13  1  0
 12 14  1  0
 12 15  1  0
 17 18  1  0
 19 20  1  0
 21 22  1  0
 23 24  1  0
 25 26  1  0
M  CHG  1   8   1
M  END
>  <PDB_ID>  (3524) 
pdb5z5m

>  <RESIDUE_NAME>  (3524) 
LYS   PHE

>  <FRAG_NAME>  (3524) 
ETAM   MBZ

>  <FRAG_ATOM_NUM>  (3524) 
fragi: 11  fragj: 15

>  <atom.prop.CHAIN_ID>  (3524) 
A A A A A A A A A A A Z Z Z Z Z Z Z Z Z Z Z Z Z Z Z

>  <atom.prop.IS_HEAVY_ATOM>  (3524) 
1 0 0 0 1 0 0 1 0 0 0 1 0 0 0 1 1 0 1 0 1 0 1 0 1 0

>  <DIFUSE_FUNC_ATOM>  (3524) 
n/a

>  <FINAL_SINGLE_POINT_ENERGY>  (3524) 
0

>  <NONCOV_INTER_ENERGY_QM>  (3524) 
0

>  <FF_Energy>  (3524) 
-7.4

>  <QM_Energy>  (3524) 
-13.71

>  <source>  (3524) 
ETAM_MBZ

>  <Index>  (3524) 
39021

$$$$
ETAM-pdb5z72-B-LYS-188:MBZ-pdb5z72-B-PHE-194
     RDKit          3D

 26 25  0  0  0  0  0  0  0  0999 V2000
   -0.2756    0.0408   -3.7982 C   0  0  0  0  0  0  0  0  0  0  0  0
   -0.1721   -0.0561   -2.8391 H   0  0  0  0  0  0  0  0  0  0  0  0
   -0.9623   -0.5615   -4.1239 H   0  0  0  0  0  0  0  0  0  0  0  0
   -0.5622    1.0674   -4.0263 H   0  0  0  0  0  0  0  0  0  0  0  0
    1.0018   -0.3226   -4.4412 C   0  0  0  0  0  0  0  0  0  0  0  0
    0.8851   -1.1237   -4.9751 H   0  0  0  0  0  0  0  0  0  0  0  0
    1.3168    0.4138   -4.9875 H   0  0  0  0  0  0  0  0  0  0  0  0
    1.9936   -0.5932   -3.3950 N   0  0  0  0  0  4  0  0  0  0  0  0
    2.1083    0.1310   -2.8906 H   0  0  0  0  0  0  0  0  0  0  0  0
    1.7172   -1.2638   -2.8794 H   0  0  0  0  0  0  0  0  0  0  0  0
    2.7727   -0.8141   -3.7652 H   0  0  0  0  0  0  0  0  0  0  0  0
    0.0050    2.8990    0.0018 C   0  0  0  0  0  0  0  0  0  0  0  0
   -0.7208    3.1980   -0.5679 H   0  0  0  0  0  0  0  0  0  0  0  0
    0.8524    3.1868   -0.3711 H   0  0  0  0  0  0  0  0  0  0  0  0
   -0.1150    3.3537    0.9851 H   0  0  0  0  0  0  0  0  0  0  0  0
   -0.0055    1.3923    0.0030 C   0  0  0  0  0  0  0  0  0  0  0  0
   -1.1846    0.7017   -0.0072 C   0  0  0  0  0  0  0  0  0  0  0  0
   -1.9906    1.1653   -0.0067 H   0  0  0  0  0  0  0  0  0  0  0  0
   -1.1885   -0.6846    0.0000 C   0  0  0  0  0  0  0  0  0  0  0  0
   -1.9967   -1.1454   -0.0083 H   0  0  0  0  0  0  0  0  0  0  0  0
    0.0069   -1.3886   -0.0033 C   0  0  0  0  0  0  0  0  0  0  0  0
    0.0046   -2.3186   -0.0025 H   0  0  0  0  0  0  0  0  0  0  0  0
    1.1885   -0.6990   -0.0000 C   0  0  0  0  0  0  0  0  0  0  0  0
    1.9961   -1.1617    0.0052 H   0  0  0  0  0  0  0  0  0  0  0  0
    1.1832    0.6782    0.0076 C   0  0  0  0  0  0  0  0  0  0  0  0
    1.9923    1.1378    0.0085 H   0  0  0  0  0  0  0  0  0  0  0  0
  1  5  1  0
  5  8  1  0
  1  2  1  0
  1  3  1  0
  1  4  1  0
  5  6  1  0
  5  7  1  0
  8  9  1  0
  8 10  1  0
  8 11  1  0
 12 16  1  0
 16 17  2  0
 17 19  1  0
 19 21  2  0
 21 23  1  0
 23 25  2  0
 25 16  1  0
 12 13  1  0
 12 14  1  0
 12 15  1  0
 17 18  1  0
 19 20  1  0
 21 22  1  0
 23 24  1  0
 25 26  1  0
M  CHG  1   8   1
M  END
>  <PDB_ID>  (3525) 
pdb5z72

>  <RESIDUE_NAME>  (3525) 
LYS   PHE

>  <FRAG_NAME>  (3525) 
ETAM   MBZ

>  <FRAG_ATOM_NUM>  (3525) 
fragi: 11  fragj: 15

>  <atom.prop.CHAIN_ID>  (3525) 
A A A A A A A A A A A Z Z Z Z Z Z Z Z Z Z Z Z Z Z Z

>  <atom.prop.IS_HEAVY_ATOM>  (3525) 
1 0 0 0 1 0 0 1 0 0 0 1 0 0 0 1 1 0 1 0 1 0 1 0 1 0

>  <DIFUSE_FUNC_ATOM>  (3525) 
n/a

>  <FINAL_SINGLE_POINT_ENERGY>  (3525) 
0

>  <NONCOV_INTER_ENERGY_QM>  (3525) 
0

>  <FF_Energy>  (3525) 
-5.61

>  <QM_Energy>  (3525) 
-11.73

>  <source>  (3525) 
ETAM_MBZ

>  <Index>  (3525) 
39025

$$$$
ETAM-pdb5z72-D-LYS-188:MBZ-pdb5z72-D-PHE-194
     RDKit          3D

 26 25  0  0  0  0  0  0  0  0999 V2000
   -0.1086    0.2734   -3.7135 C   0  0  0  0  0  0  0  0  0  0  0  0
   -0.2698    0.0466   -2.7848 H   0  0  0  0  0  0  0  0  0  0  0  0
   -0.6124   -0.3193   -4.2945 H   0  0  0  0  0  0  0  0  0  0  0  0
   -0.4245    1.3015   -3.8910 H   0  0  0  0  0  0  0  0  0  0  0  0
    1.3226    0.0778   -3.9912 C   0  0  0  0  0  0  0  0  0  0  0  0
    1.5056    0.1320   -4.9423 H   0  0  0  0  0  0  0  0  0  0  0  0
    1.8667    0.6929   -3.4746 H   0  0  0  0  0  0  0  0  0  0  0  0
    1.5267   -1.3031   -3.5133 N   0  0  0  0  0  4  0  0  0  0  0  0
    1.0033   -1.8620   -3.9674 H   0  0  0  0  0  0  0  0  0  0  0  0
    2.3756   -1.5437   -3.6315 H   0  0  0  0  0  0  0  0  0  0  0  0
    1.3271   -1.3577   -2.6482 H   0  0  0  0  0  0  0  0  0  0  0  0
    0.0060    2.9053    0.0696 C   0  0  0  0  0  0  0  0  0  0  0  0
   -0.6849    3.2318   -0.5276 H   0  0  0  0  0  0  0  0  0  0  0  0
    0.8753    3.2141   -0.2304 H   0  0  0  0  0  0  0  0  0  0  0  0
   -0.1806    3.2937    1.0708 H   0  0  0  0  0  0  0  0  0  0  0  0
    0.0010    1.3977    0.0039 C   0  0  0  0  0  0  0  0  0  0  0  0
   -1.1823    0.6922    0.0016 C   0  0  0  0  0  0  0  0  0  0  0  0
   -1.9897    1.1522    0.0124 H   0  0  0  0  0  0  0  0  0  0  0  0
   -1.1862   -0.6851    0.0000 C   0  0  0  0  0  0  0  0  0  0  0  0
   -1.9957   -1.1427   -0.0230 H   0  0  0  0  0  0  0  0  0  0  0  0
   -0.0127   -1.3841   -0.0256 C   0  0  0  0  0  0  0  0  0  0  0  0
   -0.0226   -2.3138   -0.0355 H   0  0  0  0  0  0  0  0  0  0  0  0
    1.1862   -0.7058   -0.0000 C   0  0  0  0  0  0  0  0  0  0  0  0
    1.9881   -1.1772   -0.0068 H   0  0  0  0  0  0  0  0  0  0  0  0
    1.1940    0.6852    0.0201 C   0  0  0  0  0  0  0  0  0  0  0  0
    2.0046    1.1416    0.0303 H   0  0  0  0  0  0  0  0  0  0  0  0
  1  5  1  0
  5  8  1  0
  1  2  1  0
  1  3  1  0
  1  4  1  0
  5  6  1  0
  5  7  1  0
  8  9  1  0
  8 10  1  0
  8 11  1  0
 12 16  1  0
 16 17  2  0
 17 19  1  0
 19 21  2  0
 21 23  1  0
 23 25  2  0
 25 16  1  0
 12 13  1  0
 12 14  1  0
 12 15  1  0
 17 18  1  0
 19 20  1  0
 21 22  1  0
 23 24  1  0
 25 26  1  0
M  CHG  1   8   1
M  END
>  <PDB_ID>  (3526) 
pdb5z72

>  <RESIDUE_NAME>  (3526) 
LYS   PHE

>  <FRAG_NAME>  (3526) 
ETAM   MBZ

>  <FRAG_ATOM_NUM>  (3526) 
fragi: 11  fragj: 15

>  <atom.prop.CHAIN_ID>  (3526) 
A A A A A A A A A A A Z Z Z Z Z Z Z Z Z Z Z Z Z Z Z

>  <atom.prop.IS_HEAVY_ATOM>  (3526) 
1 0 0 0 1 0 0 1 0 0 0 1 0 0 0 1 1 0 1 0 1 0 1 0 1 0

>  <DIFUSE_FUNC_ATOM>  (3526) 
n/a

>  <FINAL_SINGLE_POINT_ENERGY>  (3526) 
0

>  <NONCOV_INTER_ENERGY_QM>  (3526) 
0

>  <FF_Energy>  (3526) 
-5.91

>  <QM_Energy>  (3526) 
-12.65

>  <source>  (3526) 
ETAM_MBZ

>  <Index>  (3526) 
39027

$$$$
ETAM-pdb5z7w-B-LYS-151:MBZ-pdb5z7w-B-PHE-179
     RDKit          3D

 26 25  0  0  0  0  0  0  0  0999 V2000
   -0.1526   -0.3194   -3.4110 C   0  0  0  0  0  0  0  0  0  0  0  0
   -0.7282    0.4919   -3.3974 H   0  0  0  0  0  0  0  0  0  0  0  0
    0.1215   -0.5647   -2.4868 H   0  0  0  0  0  0  0  0  0  0  0  0
   -0.7170   -1.1451   -3.8443 H   0  0  0  0  0  0  0  0  0  0  0  0
    1.0995   -0.0114   -4.2219 C   0  0  0  0  0  0  0  0  0  0  0  0
    1.6980   -0.8174   -4.2142 H   0  0  0  0  0  0  0  0  0  0  0  0
    0.8329    0.1834   -5.1701 H   0  0  0  0  0  0  0  0  0  0  0  0
    1.8498    1.1579   -3.6767 N   0  0  0  0  0  4  0  0  0  0  0  0
    1.2252    1.9309   -3.5732 H   0  0  0  0  0  0  0  0  0  0  0  0
    2.2356    0.9164   -2.7877 H   0  0  0  0  0  0  0  0  0  0  0  0
    2.5850    1.4011   -4.3081 H   0  0  0  0  0  0  0  0  0  0  0  0
   -0.0045    2.9008    0.0096 C   0  0  0  0  0  0  0  0  0  0  0  0
   -0.4256    3.2122   -0.8267 H   0  0  0  0  0  0  0  0  0  0  0  0
    0.9307    3.2074    0.0828 H   0  0  0  0  0  0  0  0  0  0  0  0
   -0.5619    3.3274    0.8434 H   0  0  0  0  0  0  0  0  0  0  0  0
   -0.0016    1.3946   -0.0025 C   0  0  0  0  0  0  0  0  0  0  0  0
   -1.1928    0.6878   -0.0005 C   0  0  0  0  0  0  0  0  0  0  0  0
   -2.0611    1.1785   -0.0000 H   0  0  0  0  0  0  0  0  0  0  0  0
   -1.1940   -0.6942    0.0000 C   0  0  0  0  0  0  0  0  0  0  0  0
   -2.0709   -1.1922    0.0006 H   0  0  0  0  0  0  0  0  0  0  0  0
    0.0031   -1.3830    0.0013 C   0  0  0  0  0  0  0  0  0  0  0  0
   -0.0022   -2.3862    0.0028 H   0  0  0  0  0  0  0  0  0  0  0  0
    1.1940   -0.6941   -0.0000 C   0  0  0  0  0  0  0  0  0  0  0  0
    2.0788   -1.1927   -0.0010 H   0  0  0  0  0  0  0  0  0  0  0  0
    1.1912    0.6890    0.0018 C   0  0  0  0  0  0  0  0  0  0  0  0
    2.0602    1.1869    0.0049 H   0  0  0  0  0  0  0  0  0  0  0  0
  1  5  1  0
  5  8  1  0
  1  2  1  0
  1  3  1  0
  1  4  1  0
  5  6  1  0
  5  7  1  0
  8  9  1  0
  8 10  1  0
  8 11  1  0
 12 16  1  0
 16 17  2  0
 17 19  1  0
 19 21  2  0
 21 23  1  0
 23 25  2  0
 25 16  1  0
 12 13  1  0
 12 14  1  0
 12 15  1  0
 17 18  1  0
 19 20  1  0
 21 22  1  0
 23 24  1  0
 25 26  1  0
M  CHG  1   8   1
M  END
>  <PDB_ID>  (3527) 
pdb5z7w

>  <RESIDUE_NAME>  (3527) 
LYS   PHE

>  <FRAG_NAME>  (3527) 
ETAM   MBZ

>  <FRAG_ATOM_NUM>  (3527) 
fragi: 11  fragj: 15

>  <atom.prop.CHAIN_ID>  (3527) 
A A A A A A A A A A A Z Z Z Z Z Z Z Z Z Z Z Z Z Z Z

>  <atom.prop.IS_HEAVY_ATOM>  (3527) 
1 0 0 0 1 0 0 1 0 0 0 1 0 0 0 1 1 0 1 0 1 0 1 0 1 0

>  <DIFUSE_FUNC_ATOM>  (3527) 
n/a

>  <FINAL_SINGLE_POINT_ENERGY>  (3527) 
0

>  <NONCOV_INTER_ENERGY_QM>  (3527) 
0

>  <FF_Energy>  (3527) 
-4.93

>  <QM_Energy>  (3527) 
-10.07

>  <source>  (3527) 
ETAM_MBZ

>  <Index>  (3527) 
39033

$$$$
ETAM-pdb5yxt-D-LYS-296:MBZ-pdb5yxt-D-PHE-292
     RDKit          3D

 26 25  0  0  0  0  0  0  0  0999 V2000
    2.4617   -1.3411    3.9052 C   0  0  0  0  0  0  0  0  0  0  0  0
    2.7057   -0.6341    3.2509 H   0  0  0  0  0  0  0  0  0  0  0  0
    3.1834   -2.0212    3.9685 H   0  0  0  0  0  0  0  0  0  0  0  0
    2.3137   -0.8846    4.8839 H   0  0  0  0  0  0  0  0  0  0  0  0
    1.1967   -2.0178    3.4400 C   0  0  0  0  0  0  0  0  0  0  0  0
    1.3223   -2.3293    2.4876 H   0  0  0  0  0  0  0  0  0  0  0  0
    1.0304   -2.8334    4.0125 H   0  0  0  0  0  0  0  0  0  0  0  0
    0.0140   -1.1316    3.5068 N   0  0  0  0  0  4  0  0  0  0  0  0
    0.0812   -0.5413    4.3122 H   0  0  0  0  0  0  0  0  0  0  0  0
   -0.0278   -0.5646    2.6832 H   0  0  0  0  0  0  0  0  0  0  0  0
   -0.8178   -1.6855    3.5702 H   0  0  0  0  0  0  0  0  0  0  0  0
   -0.0079    2.9090    0.0137 C   0  0  0  0  0  0  0  0  0  0  0  0
   -0.7206    3.2156   -0.5939 H   0  0  0  0  0  0  0  0  0  0  0  0
    0.8815    3.2186   -0.2772 H   0  0  0  0  0  0  0  0  0  0  0  0
   -0.2038    3.3268    1.0012 H   0  0  0  0  0  0  0  0  0  0  0  0
   -0.0016    1.3983   -0.0047 C   0  0  0  0  0  0  0  0  0  0  0  0
   -1.1925    0.6960    0.0036 C   0  0  0  0  0  0  0  0  0  0  0  0
   -2.0606    1.1837    0.0107 H   0  0  0  0  0  0  0  0  0  0  0  0
   -1.1960   -0.6946   -0.0000 C   0  0  0  0  0  0  0  0  0  0  0  0
   -2.0737   -1.1885    0.0011 H   0  0  0  0  0  0  0  0  0  0  0  0
    0.0030   -1.3876   -0.0029 C   0  0  0  0  0  0  0  0  0  0  0  0
   -0.0058   -2.3909   -0.0075 H   0  0  0  0  0  0  0  0  0  0  0  0
    1.1960   -0.7009   -0.0000 C   0  0  0  0  0  0  0  0  0  0  0  0
    2.0796   -1.1961    0.0004 H   0  0  0  0  0  0  0  0  0  0  0  0
    1.1912    0.6889    0.0040 C   0  0  0  0  0  0  0  0  0  0  0  0
    2.0616    1.1848    0.0131 H   0  0  0  0  0  0  0  0  0  0  0  0
  1  5  1  0
  5  8  1  0
  1  2  1  0
  1  3  1  0
  1  4  1  0
  5  6  1  0
  5  7  1  0
  8  9  1  0
  8 10  1  0
  8 11  1  0
 12 16  1  0
 16 17  2  0
 17 19  1  0
 19 21  2  0
 21 23  1  0
 23 25  2  0
 25 16  1  0
 12 13  1  0
 12 14  1  0
 12 15  1  0
 17 18  1  0
 19 20  1  0
 21 22  1  0
 23 24  1  0
 25 26  1  0
M  CHG  1   8   1
M  END
>  <PDB_ID>  (3528) 
pdb5yxt

>  <RESIDUE_NAME>  (3528) 
LYS   PHE

>  <FRAG_NAME>  (3528) 
ETAM   MBZ

>  <FRAG_ATOM_NUM>  (3528) 
fragi: 11  fragj: 15

>  <atom.prop.CHAIN_ID>  (3528) 
A A A A A A A A A A A Z Z Z Z Z Z Z Z Z Z Z Z Z Z Z

>  <atom.prop.IS_HEAVY_ATOM>  (3528) 
1 0 0 0 1 0 0 1 0 0 0 1 0 0 0 1 1 0 1 0 1 0 1 0 1 0

>  <DIFUSE_FUNC_ATOM>  (3528) 
n/a

>  <FINAL_SINGLE_POINT_ENERGY>  (3528) 
0

>  <NONCOV_INTER_ENERGY_QM>  (3528) 
0

>  <FF_Energy>  (3528) 
-7.25

>  <QM_Energy>  (3528) 
-13.86

>  <source>  (3528) 
ETAM_MBZ

>  <Index>  (3528) 
39062

$$$$
ETAM-pdb5zbi-A-LYS-48:MBZ-pdb5zbi-A-PHE-309
     RDKit          3D

 26 25  0  0  0  0  0  0  0  0999 V2000
   -0.5741   -0.6432    5.5948 C   0  0  0  0  0  0  0  0  0  0  0  0
   -1.2842   -1.3209    5.5490 H   0  0  0  0  0  0  0  0  0  0  0  0
   -0.9108    0.2639    5.4215 H   0  0  0  0  0  0  0  0  0  0  0  0
   -0.1061   -0.6749    6.5787 H   0  0  0  0  0  0  0  0  0  0  0  0
    0.4836   -0.9756    4.5598 C   0  0  0  0  0  0  0  0  0  0  0  0
    1.2591   -0.3495    4.6796 H   0  0  0  0  0  0  0  0  0  0  0  0
    0.8005   -1.9158    4.7132 H   0  0  0  0  0  0  0  0  0  0  0  0
   -0.0460   -0.8510    3.1935 N   0  0  0  0  0  4  0  0  0  0  0  0
    0.3117   -0.0183    2.7640 H   0  0  0  0  0  0  0  0  0  0  0  0
    0.2298   -1.6451    2.6478 H   0  0  0  0  0  0  0  0  0  0  0  0
   -1.0472   -0.8027    3.2201 H   0  0  0  0  0  0  0  0  0  0  0  0
   -0.0024    2.9147    0.0141 C   0  0  0  0  0  0  0  0  0  0  0  0
   -0.6845    3.2246   -0.6291 H   0  0  0  0  0  0  0  0  0  0  0  0
    0.9012    3.2232   -0.2361 H   0  0  0  0  0  0  0  0  0  0  0  0
   -0.2415    3.3557    0.9819 H   0  0  0  0  0  0  0  0  0  0  0  0
   -0.0020    1.4035    0.0066 C   0  0  0  0  0  0  0  0  0  0  0  0
   -1.1914    0.6937   -0.0084 C   0  0  0  0  0  0  0  0  0  0  0  0
   -2.0622    1.1766   -0.0266 H   0  0  0  0  0  0  0  0  0  0  0  0
   -1.1915   -0.7027   -0.0000 C   0  0  0  0  0  0  0  0  0  0  0  0
   -2.0706   -1.1928    0.0160 H   0  0  0  0  0  0  0  0  0  0  0  0
    0.0028   -1.3889   -0.0117 C   0  0  0  0  0  0  0  0  0  0  0  0
    0.0004   -2.3930   -0.0290 H   0  0  0  0  0  0  0  0  0  0  0  0
    1.1915   -0.6984    0.0000 C   0  0  0  0  0  0  0  0  0  0  0  0
    2.0788   -1.1931    0.0004 H   0  0  0  0  0  0  0  0  0  0  0  0
    1.1906    0.6928    0.0135 C   0  0  0  0  0  0  0  0  0  0  0  0
    2.0612    1.1861    0.0275 H   0  0  0  0  0  0  0  0  0  0  0  0
  1  5  1  0
  5  8  1  0
  1  2  1  0
  1  3  1  0
  1  4  1  0
  5  6  1  0
  5  7  1  0
  8  9  1  0
  8 10  1  0
  8 11  1  0
 12 16  1  0
 16 17  2  0
 17 19  1  0
 19 21  2  0
 21 23  1  0
 23 25  2  0
 25 16  1  0
 12 13  1  0
 12 14  1  0
 12 15  1  0
 17 18  1  0
 19 20  1  0
 21 22  1  0
 23 24  1  0
 25 26  1  0
M  CHG  1   8   1
M  END
>  <PDB_ID>  (3529) 
pdb5zbi

>  <RESIDUE_NAME>  (3529) 
LYS   PHE

>  <FRAG_NAME>  (3529) 
ETAM   MBZ

>  <FRAG_ATOM_NUM>  (3529) 
fragi: 11  fragj: 15

>  <atom.prop.CHAIN_ID>  (3529) 
A A A A A A A A A A A Z Z Z Z Z Z Z Z Z Z Z Z Z Z Z

>  <atom.prop.IS_HEAVY_ATOM>  (3529) 
1 0 0 0 1 0 0 1 0 0 0 1 0 0 0 1 1 0 1 0 1 0 1 0 1 0

>  <DIFUSE_FUNC_ATOM>  (3529) 
n/a

>  <FINAL_SINGLE_POINT_ENERGY>  (3529) 
0

>  <NONCOV_INTER_ENERGY_QM>  (3529) 
0

>  <FF_Energy>  (3529) 
-7.69

>  <QM_Energy>  (3529) 
-14.85

>  <source>  (3529) 
ETAM_MBZ

>  <Index>  (3529) 
39071

$$$$
ETAM-pdb5zbi-B-LYS-48:MBZ-pdb5zbi-B-PHE-309
     RDKit          3D

 26 25  0  0  0  0  0  0  0  0999 V2000
   -0.5304   -0.6470    5.5976 C   0  0  0  0  0  0  0  0  0  0  0  0
   -1.2456   -1.3256    5.5584 H   0  0  0  0  0  0  0  0  0  0  0  0
   -0.8758    0.2599    5.4238 H   0  0  0  0  0  0  0  0  0  0  0  0
   -0.0611   -0.6736    6.5810 H   0  0  0  0  0  0  0  0  0  0  0  0
    0.5120   -0.9774    4.5598 C   0  0  0  0  0  0  0  0  0  0  0  0
    1.2891   -0.3503    4.6644 H   0  0  0  0  0  0  0  0  0  0  0  0
    0.8352   -1.9172    4.7059 H   0  0  0  0  0  0  0  0  0  0  0  0
   -0.0308   -0.8564    3.1909 N   0  0  0  0  0  4  0  0  0  0  0  0
    0.7165   -0.9090    2.5262 H   0  0  0  0  0  0  0  0  0  0  0  0
   -0.6801   -1.5990    3.0190 H   0  0  0  0  0  0  0  0  0  0  0  0
   -0.5003    0.0228    3.0906 H   0  0  0  0  0  0  0  0  0  0  0  0
   -0.0041    2.9219    0.0299 C   0  0  0  0  0  0  0  0  0  0  0  0
   -0.6914    3.2329   -0.6106 H   0  0  0  0  0  0  0  0  0  0  0  0
    0.8983    3.2306   -0.2354 H   0  0  0  0  0  0  0  0  0  0  0  0
   -0.2330    3.3615    1.0008 H   0  0  0  0  0  0  0  0  0  0  0  0
   -0.0013    1.4077    0.0085 C   0  0  0  0  0  0  0  0  0  0  0  0
   -1.1937    0.6932   -0.0005 C   0  0  0  0  0  0  0  0  0  0  0  0
   -2.0637    1.1773   -0.0086 H   0  0  0  0  0  0  0  0  0  0  0  0
   -1.1936   -0.7024   -0.0000 C   0  0  0  0  0  0  0  0  0  0  0  0
   -2.0739   -1.1933    0.0131 H   0  0  0  0  0  0  0  0  0  0  0  0
   -0.0000   -1.3927   -0.0148 C   0  0  0  0  0  0  0  0  0  0  0  0
   -0.0042   -2.3947   -0.0368 H   0  0  0  0  0  0  0  0  0  0  0  0
    1.1936   -0.7027    0.0000 C   0  0  0  0  0  0  0  0  0  0  0  0
    2.0793   -1.1960    0.0078 H   0  0  0  0  0  0  0  0  0  0  0  0
    1.1950    0.6971    0.0069 C   0  0  0  0  0  0  0  0  0  0  0  0
    2.0643    1.1866    0.0102 H   0  0  0  0  0  0  0  0  0  0  0  0
  1  5  1  0
  5  8  1  0
  1  2  1  0
  1  3  1  0
  1  4  1  0
  5  6  1  0
  5  7  1  0
  8  9  1  0
  8 10  1  0
  8 11  1  0
 12 16  1  0
 16 17  2  0
 17 19  1  0
 19 21  2  0
 21 23  1  0
 23 25  2  0
 25 16  1  0
 12 13  1  0
 12 14  1  0
 12 15  1  0
 17 18  1  0
 19 20  1  0
 21 22  1  0
 23 24  1  0
 25 26  1  0
M  CHG  1   8   1
M  END
>  <PDB_ID>  (3530) 
pdb5zbi

>  <RESIDUE_NAME>  (3530) 
LYS   PHE

>  <FRAG_NAME>  (3530) 
ETAM   MBZ

>  <FRAG_ATOM_NUM>  (3530) 
fragi: 11  fragj: 15

>  <atom.prop.CHAIN_ID>  (3530) 
A A A A A A A A A A A Z Z Z Z Z Z Z Z Z Z Z Z Z Z Z

>  <atom.prop.IS_HEAVY_ATOM>  (3530) 
1 0 0 0 1 0 0 1 0 0 0 1 0 0 0 1 1 0 1 0 1 0 1 0 1 0

>  <DIFUSE_FUNC_ATOM>  (3530) 
n/a

>  <FINAL_SINGLE_POINT_ENERGY>  (3530) 
0

>  <NONCOV_INTER_ENERGY_QM>  (3530) 
0

>  <FF_Energy>  (3530) 
-7.73

>  <QM_Energy>  (3530) 
-15.06

>  <source>  (3530) 
ETAM_MBZ

>  <Index>  (3530) 
39073

$$$$
ETAM-pdb5zcr-B-LYS-184:MBZ-pdb5zcr-B-PHE-165
     RDKit          3D

 26 25  0  0  0  0  0  0  0  0999 V2000
   -0.0058   -2.5781   -3.5917 C   0  0  0  0  0  0  0  0  0  0  0  0
   -0.0996   -3.4608   -4.0463 H   0  0  0  0  0  0  0  0  0  0  0  0
    0.0009   -2.7039   -2.6025 H   0  0  0  0  0  0  0  0  0  0  0  0
    0.9437   -2.1344   -3.8911 H   0  0  0  0  0  0  0  0  0  0  0  0
   -1.1729   -1.7054   -3.9673 C   0  0  0  0  0  0  0  0  0  0  0  0
   -1.0585   -1.3902   -4.9169 H   0  0  0  0  0  0  0  0  0  0  0  0
   -2.0218   -2.2467   -3.9151 H   0  0  0  0  0  0  0  0  0  0  0  0
   -1.3009   -0.5224   -3.0791 N   0  0  0  0  0  4  0  0  0  0  0  0
   -0.6776    0.1962   -3.3890 H   0  0  0  0  0  0  0  0  0  0  0  0
   -2.2412   -0.1842   -3.1086 H   0  0  0  0  0  0  0  0  0  0  0  0
   -1.0690   -0.7827   -2.1413 H   0  0  0  0  0  0  0  0  0  0  0  0
   -0.0046    2.9100   -0.0071 C   0  0  0  0  0  0  0  0  0  0  0  0
   -0.2657    3.2042   -0.9139 H   0  0  0  0  0  0  0  0  0  0  0  0
    0.9073    3.2162    0.2222 H   0  0  0  0  0  0  0  0  0  0  0  0
   -0.6976    3.3598    0.7039 H   0  0  0  0  0  0  0  0  0  0  0  0
   -0.0010    1.3976    0.0048 C   0  0  0  0  0  0  0  0  0  0  0  0
   -1.1895    0.6858   -0.0059 C   0  0  0  0  0  0  0  0  0  0  0  0
   -2.0596    1.1782   -0.0191 H   0  0  0  0  0  0  0  0  0  0  0  0
   -1.1922   -0.6921    0.0000 C   0  0  0  0  0  0  0  0  0  0  0  0
   -2.0731   -1.1890    0.0051 H   0  0  0  0  0  0  0  0  0  0  0  0
   -0.0014   -1.3869    0.0002 C   0  0  0  0  0  0  0  0  0  0  0  0
   -0.0071   -2.3875    0.0003 H   0  0  0  0  0  0  0  0  0  0  0  0
    1.1922   -0.6963   -0.0000 C   0  0  0  0  0  0  0  0  0  0  0  0
    2.0767   -1.1945    0.0011 H   0  0  0  0  0  0  0  0  0  0  0  0
    1.1919    0.6919    0.0009 C   0  0  0  0  0  0  0  0  0  0  0  0
    2.0611    1.1868   -0.0017 H   0  0  0  0  0  0  0  0  0  0  0  0
  1  5  1  0
  5  8  1  0
  1  2  1  0
  1  3  1  0
  1  4  1  0
  5  6  1  0
  5  7  1  0
  8  9  1  0
  8 10  1  0
  8 11  1  0
 12 16  1  0
 16 17  2  0
 17 19  1  0
 19 21  2  0
 21 23  1  0
 23 25  2  0
 25 16  1  0
 12 13  1  0
 12 14  1  0
 12 15  1  0
 17 18  1  0
 19 20  1  0
 21 22  1  0
 23 24  1  0
 25 26  1  0
M  CHG  1   8   1
M  END
>  <PDB_ID>  (3531) 
pdb5zcr

>  <RESIDUE_NAME>  (3531) 
LYS   PHE

>  <FRAG_NAME>  (3531) 
ETAM   MBZ

>  <FRAG_ATOM_NUM>  (3531) 
fragi: 11  fragj: 15

>  <atom.prop.CHAIN_ID>  (3531) 
A A A A A A A A A A A Z Z Z Z Z Z Z Z Z Z Z Z Z Z Z

>  <atom.prop.IS_HEAVY_ATOM>  (3531) 
1 0 0 0 1 0 0 1 0 0 0 1 0 0 0 1 1 0 1 0 1 0 1 0 1 0

>  <DIFUSE_FUNC_ATOM>  (3531) 
n/a

>  <FINAL_SINGLE_POINT_ENERGY>  (3531) 
0

>  <NONCOV_INTER_ENERGY_QM>  (3531) 
0

>  <FF_Energy>  (3531) 
-7.38

>  <QM_Energy>  (3531) 
-14.67

>  <source>  (3531) 
ETAM_MBZ

>  <Index>  (3531) 
39102

$$$$
ETAM-pdb5zjb-B-LYS-197:MBZ-pdb5zjb-B-PHE-170
     RDKit          3D

 26 25  0  0  0  0  0  0  0  0999 V2000
   -0.5812   -1.7805    3.4173 C   0  0  0  0  0  0  0  0  0  0  0  0
   -0.4955   -2.6302    3.9352 H   0  0  0  0  0  0  0  0  0  0  0  0
   -0.1635   -1.8937    2.5164 H   0  0  0  0  0  0  0  0  0  0  0  0
   -1.6413   -1.5662    3.2812 H   0  0  0  0  0  0  0  0  0  0  0  0
    0.1698   -0.6765    4.1667 C   0  0  0  0  0  0  0  0  0  0  0  0
   -0.3352   -0.4623    5.0122 H   0  0  0  0  0  0  0  0  0  0  0  0
    1.0797   -1.0257    4.4249 H   0  0  0  0  0  0  0  0  0  0  0  0
    0.3350    0.5706    3.3665 N   0  0  0  0  0  4  0  0  0  0  0  0
    0.2148    0.3599    2.3969 H   0  0  0  0  0  0  0  0  0  0  0  0
   -0.3502    1.2390    3.6520 H   0  0  0  0  0  0  0  0  0  0  0  0
    1.2502    0.9416    3.5184 H   0  0  0  0  0  0  0  0  0  0  0  0
   -0.0038    2.9011    0.0086 C   0  0  0  0  0  0  0  0  0  0  0  0
    0.9050    3.2080    0.2541 H   0  0  0  0  0  0  0  0  0  0  0  0
   -0.6737    3.1989    0.6731 H   0  0  0  0  0  0  0  0  0  0  0  0
   -0.2610    3.3554   -0.9483 H   0  0  0  0  0  0  0  0  0  0  0  0
    0.0018    1.3939   -0.0025 C   0  0  0  0  0  0  0  0  0  0  0  0
   -1.1877    0.6836    0.0040 C   0  0  0  0  0  0  0  0  0  0  0  0
   -2.0586    1.1743    0.0104 H   0  0  0  0  0  0  0  0  0  0  0  0
   -1.1926   -0.7018   -0.0000 C   0  0  0  0  0  0  0  0  0  0  0  0
   -2.0731   -1.1925    0.0025 H   0  0  0  0  0  0  0  0  0  0  0  0
   -0.0049   -1.3826   -0.0056 C   0  0  0  0  0  0  0  0  0  0  0  0
    0.0013   -2.3871   -0.0142 H   0  0  0  0  0  0  0  0  0  0  0  0
    1.1926   -0.6876    0.0000 C   0  0  0  0  0  0  0  0  0  0  0  0
    2.0742   -1.1894    0.0025 H   0  0  0  0  0  0  0  0  0  0  0  0
    1.1908    0.6945    0.0041 C   0  0  0  0  0  0  0  0  0  0  0  0
    2.0604    1.1906    0.0118 H   0  0  0  0  0  0  0  0  0  0  0  0
  1  5  1  0
  5  8  1  0
  1  2  1  0
  1  3  1  0
  1  4  1  0
  5  6  1  0
  5  7  1  0
  8  9  1  0
  8 10  1  0
  8 11  1  0
 12 16  1  0
 16 17  2  0
 17 19  1  0
 19 21  2  0
 21 23  1  0
 23 25  2  0
 25 16  1  0
 12 13  1  0
 12 14  1  0
 12 15  1  0
 17 18  1  0
 19 20  1  0
 21 22  1  0
 23 24  1  0
 25 26  1  0
M  CHG  1   8   1
M  END
>  <PDB_ID>  (3532) 
pdb5zjb

>  <RESIDUE_NAME>  (3532) 
LYS   PHE

>  <FRAG_NAME>  (3532) 
ETAM   MBZ

>  <FRAG_ATOM_NUM>  (3532) 
fragi: 11  fragj: 15

>  <atom.prop.CHAIN_ID>  (3532) 
A A A A A A A A A A A Z Z Z Z Z Z Z Z Z Z Z Z Z Z Z

>  <atom.prop.IS_HEAVY_ATOM>  (3532) 
1 0 0 0 1 0 0 1 0 0 0 1 0 0 0 1 1 0 1 0 1 0 1 0 1 0

>  <DIFUSE_FUNC_ATOM>  (3532) 
n/a

>  <FINAL_SINGLE_POINT_ENERGY>  (3532) 
0

>  <NONCOV_INTER_ENERGY_QM>  (3532) 
0

>  <FF_Energy>  (3532) 
-8.86

>  <QM_Energy>  (3532) 
-14.98

>  <source>  (3532) 
ETAM_MBZ

>  <Index>  (3532) 
39162

$$$$
ETAM-pdb5zjm-B-LYS-221:MBZ-pdb5zjm-B-PHE-217
     RDKit          3D

 26 25  0  0  0  0  0  0  0  0999 V2000
    0.7993   -1.6969    3.7486 C   0  0  0  0  0  0  0  0  0  0  0  0
    1.4799   -1.1297    3.2837 H   0  0  0  0  0  0  0  0  0  0  0  0
    1.2644   -2.3782    4.3142 H   0  0  0  0  0  0  0  0  0  0  0  0
    0.2001   -1.0576    4.3969 H   0  0  0  0  0  0  0  0  0  0  0  0
   -0.0308   -2.4111    2.7105 C   0  0  0  0  0  0  0  0  0  0  0  0
   -0.7115   -2.9831    3.1693 H   0  0  0  0  0  0  0  0  0  0  0  0
   -0.4967   -1.7347    2.1381 H   0  0  0  0  0  0  0  0  0  0  0  0
    0.8258   -3.2672    1.8517 N   0  0  0  0  0  4  0  0  0  0  0  0
    0.6411   -4.2298    2.0513 H   0  0  0  0  0  0  0  0  0  0  0  0
    0.6261   -3.0818    0.8893 H   0  0  0  0  0  0  0  0  0  0  0  0
    1.7884   -3.0671    2.0374 H   0  0  0  0  0  0  0  0  0  0  0  0
   -0.0004    2.8854    0.0044 C   0  0  0  0  0  0  0  0  0  0  0  0
   -0.5860    3.1989   -0.7292 H   0  0  0  0  0  0  0  0  0  0  0  0
    0.9301    3.1961   -0.1222 H   0  0  0  0  0  0  0  0  0  0  0  0
   -0.3715    3.3202    0.9325 H   0  0  0  0  0  0  0  0  0  0  0  0
   -0.0004    1.3923   -0.0016 C   0  0  0  0  0  0  0  0  0  0  0  0
   -1.1918    0.6892   -0.0003 C   0  0  0  0  0  0  0  0  0  0  0  0
   -2.0595    1.1807   -0.0008 H   0  0  0  0  0  0  0  0  0  0  0  0
   -1.1944   -0.6923   -0.0000 C   0  0  0  0  0  0  0  0  0  0  0  0
   -2.0723   -1.1893    0.0007 H   0  0  0  0  0  0  0  0  0  0  0  0
    0.0016   -1.3845    0.0012 C   0  0  0  0  0  0  0  0  0  0  0  0
   -0.0037   -2.3865    0.0023 H   0  0  0  0  0  0  0  0  0  0  0  0
    1.1944   -0.6927    0.0000 C   0  0  0  0  0  0  0  0  0  0  0  0
    2.0784   -1.1925    0.0001 H   0  0  0  0  0  0  0  0  0  0  0  0
    1.1906    0.6880    0.0008 C   0  0  0  0  0  0  0  0  0  0  0  0
    2.0602    1.1867    0.0027 H   0  0  0  0  0  0  0  0  0  0  0  0
  1  5  1  0
  5  8  1  0
  1  2  1  0
  1  3  1  0
  1  4  1  0
  5  6  1  0
  5  7  1  0
  8  9  1  0
  8 10  1  0
  8 11  1  0
 12 16  1  0
 16 17  2  0
 17 19  1  0
 19 21  2  0
 21 23  1  0
 23 25  2  0
 25 16  1  0
 12 13  1  0
 12 14  1  0
 12 15  1  0
 17 18  1  0
 19 20  1  0
 21 22  1  0
 23 24  1  0
 25 26  1  0
M  CHG  1   8   1
M  END
>  <PDB_ID>  (3533) 
pdb5zjm

>  <RESIDUE_NAME>  (3533) 
LYS   PHE

>  <FRAG_NAME>  (3533) 
ETAM   MBZ

>  <FRAG_ATOM_NUM>  (3533) 
fragi: 11  fragj: 15

>  <atom.prop.CHAIN_ID>  (3533) 
A A A A A A A A A A A Z Z Z Z Z Z Z Z Z Z Z Z Z Z Z

>  <atom.prop.IS_HEAVY_ATOM>  (3533) 
1 0 0 0 1 0 0 1 0 0 0 1 0 0 0 1 1 0 1 0 1 0 1 0 1 0

>  <DIFUSE_FUNC_ATOM>  (3533) 
n/a

>  <FINAL_SINGLE_POINT_ENERGY>  (3533) 
0

>  <NONCOV_INTER_ENERGY_QM>  (3533) 
0

>  <FF_Energy>  (3533) 
18.44

>  <QM_Energy>  (3533) 
1.77

>  <source>  (3533) 
ETAM_MBZ

>  <Index>  (3533) 
39170

$$$$
ETAM-pdb5zjm-C-LYS-221:MBZ-pdb5zjm-C-PHE-217
     RDKit          3D

 26 25  0  0  0  0  0  0  0  0999 V2000
    1.0812   -1.3957    3.8685 C   0  0  0  0  0  0  0  0  0  0  0  0
    1.7697   -0.8099    3.4401 H   0  0  0  0  0  0  0  0  0  0  0  0
    1.5340   -2.1186    4.3897 H   0  0  0  0  0  0  0  0  0  0  0  0
    0.4853   -0.7916    4.5527 H   0  0  0  0  0  0  0  0  0  0  0  0
    0.2439   -2.0344    2.7813 C   0  0  0  0  0  0  0  0  0  0  0  0
   -0.4435   -2.6245    3.2020 H   0  0  0  0  0  0  0  0  0  0  0  0
   -0.2092   -1.3178    2.2531 H   0  0  0  0  0  0  0  0  0  0  0  0
    1.0962   -2.8450    1.8748 N   0  0  0  0  0  4  0  0  0  0  0  0
    2.0040   -2.4315    1.8124 H   0  0  0  0  0  0  0  0  0  0  0  0
    1.1777   -3.7741    2.2363 H   0  0  0  0  0  0  0  0  0  0  0  0
    0.6800   -2.8770    0.9658 H   0  0  0  0  0  0  0  0  0  0  0  0
   -0.0008    2.8905    0.0044 C   0  0  0  0  0  0  0  0  0  0  0  0
   -0.5678    3.2015   -0.7448 H   0  0  0  0  0  0  0  0  0  0  0  0
    0.9331    3.1996   -0.1022 H   0  0  0  0  0  0  0  0  0  0  0  0
   -0.3933    3.3278    0.9224 H   0  0  0  0  0  0  0  0  0  0  0  0
   -0.0008    1.3949    0.0011 C   0  0  0  0  0  0  0  0  0  0  0  0
   -1.1914    0.6914   -0.0005 C   0  0  0  0  0  0  0  0  0  0  0  0
   -2.0598    1.1820   -0.0029 H   0  0  0  0  0  0  0  0  0  0  0  0
   -1.1950   -0.6938   -0.0000 C   0  0  0  0  0  0  0  0  0  0  0  0
   -2.0732   -1.1890    0.0020 H   0  0  0  0  0  0  0  0  0  0  0  0
    0.0014   -1.3874   -0.0001 C   0  0  0  0  0  0  0  0  0  0  0  0
   -0.0034   -2.3881   -0.0013 H   0  0  0  0  0  0  0  0  0  0  0  0
    1.1950   -0.6946   -0.0000 C   0  0  0  0  0  0  0  0  0  0  0  0
    2.0792   -1.1929    0.0024 H   0  0  0  0  0  0  0  0  0  0  0  0
    1.1908    0.6894   -0.0005 C   0  0  0  0  0  0  0  0  0  0  0  0
    2.0605    1.1873   -0.0028 H   0  0  0  0  0  0  0  0  0  0  0  0
  1  5  1  0
  5  8  1  0
  1  2  1  0
  1  3  1  0
  1  4  1  0
  5  6  1  0
  5  7  1  0
  8  9  1  0
  8 10  1  0
  8 11  1  0
 12 16  1  0
 16 17  2  0
 17 19  1  0
 19 21  2  0
 21 23  1  0
 23 25  2  0
 25 16  1  0
 12 13  1  0
 12 14  1  0
 12 15  1  0
 17 18  1  0
 19 20  1  0
 21 22  1  0
 23 24  1  0
 25 26  1  0
M  CHG  1   8   1
M  END
>  <PDB_ID>  (3534) 
pdb5zjm

>  <RESIDUE_NAME>  (3534) 
LYS   PHE

>  <FRAG_NAME>  (3534) 
ETAM   MBZ

>  <FRAG_ATOM_NUM>  (3534) 
fragi: 11  fragj: 15

>  <atom.prop.CHAIN_ID>  (3534) 
A A A A A A A A A A A Z Z Z Z Z Z Z Z Z Z Z Z Z Z Z

>  <atom.prop.IS_HEAVY_ATOM>  (3534) 
1 0 0 0 1 0 0 1 0 0 0 1 0 0 0 1 1 0 1 0 1 0 1 0 1 0

>  <DIFUSE_FUNC_ATOM>  (3534) 
n/a

>  <FINAL_SINGLE_POINT_ENERGY>  (3534) 
0

>  <NONCOV_INTER_ENERGY_QM>  (3534) 
0

>  <FF_Energy>  (3534) 
24.21

>  <QM_Energy>  (3534) 
4.09

>  <source>  (3534) 
ETAM_MBZ

>  <Index>  (3534) 
39172

$$$$
ETAM-pdb5zkx-B-LYS-328:MBZ-pdb5zkx-B-PHE-346
     RDKit          3D

 26 25  0  0  0  0  0  0  0  0999 V2000
   -0.3609    0.6191    4.4629 C   0  0  0  0  0  0  0  0  0  0  0  0
   -0.4638    0.1027    5.3052 H   0  0  0  0  0  0  0  0  0  0  0  0
   -0.1718    1.5743    4.6590 H   0  0  0  0  0  0  0  0  0  0  0  0
    0.4672    0.2028    3.8893 H   0  0  0  0  0  0  0  0  0  0  0  0
   -1.6613    0.5334    3.6812 C   0  0  0  0  0  0  0  0  0  0  0  0
   -2.3815    1.0060    4.1955 H   0  0  0  0  0  0  0  0  0  0  0  0
   -1.5404    0.9918    2.7968 H   0  0  0  0  0  0  0  0  0  0  0  0
   -2.0727   -0.8765    3.4479 N   0  0  0  0  0  4  0  0  0  0  0  0
   -3.0680   -0.9225    3.3654 H   0  0  0  0  0  0  0  0  0  0  0  0
   -1.6515   -1.2101    2.6053 H   0  0  0  0  0  0  0  0  0  0  0  0
   -1.7747   -1.4411    4.2170 H   0  0  0  0  0  0  0  0  0  0  0  0
   -0.0003    2.8923    0.0007 C   0  0  0  0  0  0  0  0  0  0  0  0
    0.6292    3.1982    0.7006 H   0  0  0  0  0  0  0  0  0  0  0  0
   -0.9229    3.1983    0.1898 H   0  0  0  0  0  0  0  0  0  0  0  0
    0.3112    3.3362   -0.9447 H   0  0  0  0  0  0  0  0  0  0  0  0
    0.0001    1.3922   -0.0017 C   0  0  0  0  0  0  0  0  0  0  0  0
   -1.1922    0.6892   -0.0000 C   0  0  0  0  0  0  0  0  0  0  0  0
   -2.0588    1.1832   -0.0005 H   0  0  0  0  0  0  0  0  0  0  0  0
   -1.1964   -0.6899   -0.0000 C   0  0  0  0  0  0  0  0  0  0  0  0
   -2.0741   -1.1874    0.0012 H   0  0  0  0  0  0  0  0  0  0  0  0
    0.0001   -1.3838    0.0006 C   0  0  0  0  0  0  0  0  0  0  0  0
   -0.0055   -2.3856    0.0014 H   0  0  0  0  0  0  0  0  0  0  0  0
    1.1964   -0.6939   -0.0000 C   0  0  0  0  0  0  0  0  0  0  0  0
    2.0787   -1.1948    0.0003 H   0  0  0  0  0  0  0  0  0  0  0  0
    1.1920    0.6862    0.0011 C   0  0  0  0  0  0  0  0  0  0  0  0
    2.0610    1.1863    0.0027 H   0  0  0  0  0  0  0  0  0  0  0  0
  1  5  1  0
  5  8  1  0
  1  2  1  0
  1  3  1  0
  1  4  1  0
  5  6  1  0
  5  7  1  0
  8  9  1  0
  8 10  1  0
  8 11  1  0
 12 16  1  0
 16 17  2  0
 17 19  1  0
 19 21  2  0
 21 23  1  0
 23 25  2  0
 25 16  1  0
 12 13  1  0
 12 14  1  0
 12 15  1  0
 17 18  1  0
 19 20  1  0
 21 22  1  0
 23 24  1  0
 25 26  1  0
M  CHG  1   8   1
M  END
>  <PDB_ID>  (3535) 
pdb5zkx

>  <RESIDUE_NAME>  (3535) 
LYS   PHE

>  <FRAG_NAME>  (3535) 
ETAM   MBZ

>  <FRAG_ATOM_NUM>  (3535) 
fragi: 11  fragj: 15

>  <atom.prop.CHAIN_ID>  (3535) 
A A A A A A A A A A A Z Z Z Z Z Z Z Z Z Z Z Z Z Z Z

>  <atom.prop.IS_HEAVY_ATOM>  (3535) 
1 0 0 0 1 0 0 1 0 0 0 1 0 0 0 1 1 0 1 0 1 0 1 0 1 0

>  <DIFUSE_FUNC_ATOM>  (3535) 
n/a

>  <FINAL_SINGLE_POINT_ENERGY>  (3535) 
0

>  <NONCOV_INTER_ENERGY_QM>  (3535) 
0

>  <FF_Energy>  (3535) 
-5.37

>  <QM_Energy>  (3535) 
-11.36

>  <source>  (3535) 
ETAM_MBZ

>  <Index>  (3535) 
39193

$$$$
ETAM-pdb5zkx-C-LYS-328:MBZ-pdb5zkx-C-PHE-346
     RDKit          3D

 26 25  0  0  0  0  0  0  0  0999 V2000
   -0.2279    0.7620    4.6857 C   0  0  0  0  0  0  0  0  0  0  0  0
   -0.4035    0.0421    5.3523 H   0  0  0  0  0  0  0  0  0  0  0  0
    0.0491    1.5988    5.1501 H   0  0  0  0  0  0  0  0  0  0  0  0
    0.5795    0.4411    4.0275 H   0  0  0  0  0  0  0  0  0  0  0  0
   -1.5078    1.0341    3.9161 C   0  0  0  0  0  0  0  0  0  0  0  0
   -2.2037    1.3833    4.5544 H   0  0  0  0  0  0  0  0  0  0  0  0
   -1.3278    1.7429    3.2239 H   0  0  0  0  0  0  0  0  0  0  0  0
   -2.0330   -0.1822    3.2423 N   0  0  0  0  0  4  0  0  0  0  0  0
   -3.0275   -0.2142    3.3423 H   0  0  0  0  0  0  0  0  0  0  0  0
   -1.7953   -0.1535    2.2708 H   0  0  0  0  0  0  0  0  0  0  0  0
   -1.6283   -0.9958    3.6610 H   0  0  0  0  0  0  0  0  0  0  0  0
   -0.0018    2.8909   -0.0011 C   0  0  0  0  0  0  0  0  0  0  0  0
    0.6608    3.1999    0.6640 H   0  0  0  0  0  0  0  0  0  0  0  0
   -0.9128    3.1981    0.2293 H   0  0  0  0  0  0  0  0  0  0  0  0
    0.2638    3.3282   -0.9636 H   0  0  0  0  0  0  0  0  0  0  0  0
   -0.0005    1.3912    0.0012 C   0  0  0  0  0  0  0  0  0  0  0  0
   -1.1913    0.6858   -0.0003 C   0  0  0  0  0  0  0  0  0  0  0  0
   -2.0593    1.1805   -0.0026 H   0  0  0  0  0  0  0  0  0  0  0  0
   -1.1942   -0.6909   -0.0000 C   0  0  0  0  0  0  0  0  0  0  0  0
   -2.0719   -1.1895    0.0027 H   0  0  0  0  0  0  0  0  0  0  0  0
    0.0009   -1.3809   -0.0010 C   0  0  0  0  0  0  0  0  0  0  0  0
   -0.0037   -2.3839   -0.0028 H   0  0  0  0  0  0  0  0  0  0  0  0
    1.1942   -0.6914    0.0000 C   0  0  0  0  0  0  0  0  0  0  0  0
    2.0775   -1.1932    0.0020 H   0  0  0  0  0  0  0  0  0  0  0  0
    1.1908    0.6862    0.0000 C   0  0  0  0  0  0  0  0  0  0  0  0
    2.0604    1.1866   -0.0017 H   0  0  0  0  0  0  0  0  0  0  0  0
  1  5  1  0
  5  8  1  0
  1  2  1  0
  1  3  1  0
  1  4  1  0
  5  6  1  0
  5  7  1  0
  8  9  1  0
  8 10  1  0
  8 11  1  0
 12 16  1  0
 16 17  2  0
 17 19  1  0
 19 21  2  0
 21 23  1  0
 23 25  2  0
 25 16  1  0
 12 13  1  0
 12 14  1  0
 12 15  1  0
 17 18  1  0
 19 20  1  0
 21 22  1  0
 23 24  1  0
 25 26  1  0
M  CHG  1   8   1
M  END
>  <PDB_ID>  (3536) 
pdb5zkx

>  <RESIDUE_NAME>  (3536) 
LYS   PHE

>  <FRAG_NAME>  (3536) 
ETAM   MBZ

>  <FRAG_ATOM_NUM>  (3536) 
fragi: 11  fragj: 15

>  <atom.prop.CHAIN_ID>  (3536) 
A A A A A A A A A A A Z Z Z Z Z Z Z Z Z Z Z Z Z Z Z

>  <atom.prop.IS_HEAVY_ATOM>  (3536) 
1 0 0 0 1 0 0 1 0 0 0 1 0 0 0 1 1 0 1 0 1 0 1 0 1 0

>  <DIFUSE_FUNC_ATOM>  (3536) 
n/a

>  <FINAL_SINGLE_POINT_ENERGY>  (3536) 
0

>  <NONCOV_INTER_ENERGY_QM>  (3536) 
0

>  <FF_Energy>  (3536) 
-6.27

>  <QM_Energy>  (3536) 
-13.28

>  <source>  (3536) 
ETAM_MBZ

>  <Index>  (3536) 
39197

$$$$
ETAM-pdb5zcr-B-LYS-462:MBZ-pdb5zcr-B-PHE-415
     RDKit          3D

 26 25  0  0  0  0  0  0  0  0999 V2000
    0.1740   -4.2803   -2.4982 C   0  0  0  0  0  0  0  0  0  0  0  0
   -0.4022   -4.0421   -1.7240 H   0  0  0  0  0  0  0  0  0  0  0  0
    0.4269   -5.2409   -2.4614 H   0  0  0  0  0  0  0  0  0  0  0  0
   -0.3897   -4.1056   -3.4146 H   0  0  0  0  0  0  0  0  0  0  0  0
    1.4328   -3.4385   -2.4517 C   0  0  0  0  0  0  0  0  0  0  0  0
    2.0045   -3.6606   -3.2536 H   0  0  0  0  0  0  0  0  0  0  0  0
    1.1772   -2.4636   -2.5141 H   0  0  0  0  0  0  0  0  0  0  0  0
    2.2323   -3.6494   -1.2152 N   0  0  0  0  0  4  0  0  0  0  0  0
    1.8171   -3.1414   -0.4608 H   0  0  0  0  0  0  0  0  0  0  0  0
    2.2495   -4.6238   -0.9929 H   0  0  0  0  0  0  0  0  0  0  0  0
    3.1660   -3.3242   -1.3638 H   0  0  0  0  0  0  0  0  0  0  0  0
   -0.0048    2.9155   -0.0039 C   0  0  0  0  0  0  0  0  0  0  0  0
    0.9280    3.2251    0.0620 H   0  0  0  0  0  0  0  0  0  0  0  0
   -0.5514    3.2256    0.7544 H   0  0  0  0  0  0  0  0  0  0  0  0
   -0.4329    3.3264   -0.9182 H   0  0  0  0  0  0  0  0  0  0  0  0
    0.0028    1.4102    0.0127 C   0  0  0  0  0  0  0  0  0  0  0  0
   -1.1992    0.7027   -0.0040 C   0  0  0  0  0  0  0  0  0  0  0  0
   -2.0638    1.1897   -0.0202 H   0  0  0  0  0  0  0  0  0  0  0  0
   -1.2057   -0.6998   -0.0000 C   0  0  0  0  0  0  0  0  0  0  0  0
   -2.0860   -1.1863    0.0000 H   0  0  0  0  0  0  0  0  0  0  0  0
   -0.0071   -1.4016    0.0052 C   0  0  0  0  0  0  0  0  0  0  0  0
   -0.0122   -2.3990    0.0120 H   0  0  0  0  0  0  0  0  0  0  0  0
    1.2057   -0.7075    0.0000 C   0  0  0  0  0  0  0  0  0  0  0  0
    2.0818   -1.2040    0.0079 H   0  0  0  0  0  0  0  0  0  0  0  0
    1.2035    0.6960   -0.0138 C   0  0  0  0  0  0  0  0  0  0  0  0
    2.0708    1.1867   -0.0433 H   0  0  0  0  0  0  0  0  0  0  0  0
  1  5  1  0
  5  8  1  0
  1  2  1  0
  1  3  1  0
  1  4  1  0
  5  6  1  0
  5  7  1  0
  8  9  1  0
  8 10  1  0
  8 11  1  0
 12 16  1  0
 16 17  2  0
 17 19  1  0
 19 21  2  0
 21 23  1  0
 23 25  2  0
 25 16  1  0
 12 13  1  0
 12 14  1  0
 12 15  1  0
 17 18  1  0
 19 20  1  0
 21 22  1  0
 23 24  1  0
 25 26  1  0
M  CHG  1   8   1
M  END
>  <PDB_ID>  (3537) 
pdb5zcr

>  <RESIDUE_NAME>  (3537) 
LYS   PHE

>  <FRAG_NAME>  (3537) 
ETAM   MBZ

>  <FRAG_ATOM_NUM>  (3537) 
fragi: 11  fragj: 15

>  <atom.prop.CHAIN_ID>  (3537) 
A A A A A A A A A A A Z Z Z Z Z Z Z Z Z Z Z Z Z Z Z

>  <atom.prop.IS_HEAVY_ATOM>  (3537) 
1 0 0 0 1 0 0 1 0 0 0 1 0 0 0 1 1 0 1 0 1 0 1 0 1 0

>  <DIFUSE_FUNC_ATOM>  (3537) 
n/a

>  <FINAL_SINGLE_POINT_ENERGY>  (3537) 
0

>  <NONCOV_INTER_ENERGY_QM>  (3537) 
0

>  <FF_Energy>  (3537) 
0.63

>  <QM_Energy>  (3537) 
-6.47

>  <source>  (3537) 
ETAM_MBZ

>  <Index>  (3537) 
39203

$$$$
ETAM-pdb5zn8-A-LYS-3:MBZ-pdb5zn8-A-PHE-41
     RDKit          3D

 26 25  0  0  0  0  0  0  0  0999 V2000
    2.3971   -3.8836    3.5235 C   0  0  0  0  0  0  0  0  0  0  0  0
    1.7675   -3.8589    2.7857 H   0  0  0  0  0  0  0  0  0  0  0  0
    2.1932   -4.6292    4.1088 H   0  0  0  0  0  0  0  0  0  0  0  0
    3.4042   -4.0086    3.1259 H   0  0  0  0  0  0  0  0  0  0  0  0
    2.2371   -2.6080    4.3186 C   0  0  0  0  0  0  0  0  0  0  0  0
    1.7244   -2.7853    5.1225 H   0  0  0  0  0  0  0  0  0  0  0  0
    3.1104   -2.2495    4.5407 H   0  0  0  0  0  0  0  0  0  0  0  0
    1.5078   -1.6126    3.4995 N   0  0  0  0  0  4  0  0  0  0  0  0
    0.7041   -1.9270    3.2816 H   0  0  0  0  0  0  0  0  0  0  0  0
    1.4080   -0.8558    3.9579 H   0  0  0  0  0  0  0  0  0  0  0  0
    1.9628   -1.4398    2.7539 H   0  0  0  0  0  0  0  0  0  0  0  0
    0.0133    2.9011    0.0056 C   0  0  0  0  0  0  0  0  0  0  0  0
   -0.5866    3.2011   -0.6957 H   0  0  0  0  0  0  0  0  0  0  0  0
    0.9180    3.1858   -0.1932 H   0  0  0  0  0  0  0  0  0  0  0  0
   -0.2974    3.3536    0.9473 H   0  0  0  0  0  0  0  0  0  0  0  0
   -0.0045    1.3980    0.0121 C   0  0  0  0  0  0  0  0  0  0  0  0
   -1.1928    0.7040   -0.0031 C   0  0  0  0  0  0  0  0  0  0  0  0
   -2.0003    1.1663    0.0026 H   0  0  0  0  0  0  0  0  0  0  0  0
   -1.1882   -0.6908    0.0000 C   0  0  0  0  0  0  0  0  0  0  0  0
   -1.9924   -1.1575   -0.0042 H   0  0  0  0  0  0  0  0  0  0  0  0
    0.0044   -1.3786   -0.0064 C   0  0  0  0  0  0  0  0  0  0  0  0
    0.0011   -2.3079   -0.0062 H   0  0  0  0  0  0  0  0  0  0  0  0
    1.1882   -0.7062    0.0000 C   0  0  0  0  0  0  0  0  0  0  0  0
    1.9915   -1.1758   -0.0032 H   0  0  0  0  0  0  0  0  0  0  0  0
    1.1930    0.6736   -0.0025 C   0  0  0  0  0  0  0  0  0  0  0  0
    2.0032    1.1287    0.0041 H   0  0  0  0  0  0  0  0  0  0  0  0
  1  5  1  0
  5  8  1  0
  1  2  1  0
  1  3  1  0
  1  4  1  0
  5  6  1  0
  5  7  1  0
  8  9  1  0
  8 10  1  0
  8 11  1  0
 12 16  1  0
 16 17  2  0
 17 19  1  0
 19 21  2  0
 21 23  1  0
 23 25  2  0
 25 16  1  0
 12 13  1  0
 12 14  1  0
 12 15  1  0
 17 18  1  0
 19 20  1  0
 21 22  1  0
 23 24  1  0
 25 26  1  0
M  CHG  1   8   1
M  END
>  <PDB_ID>  (3538) 
pdb5zn8

>  <RESIDUE_NAME>  (3538) 
LYS   PHE

>  <FRAG_NAME>  (3538) 
ETAM   MBZ

>  <FRAG_ATOM_NUM>  (3538) 
fragi: 11  fragj: 15

>  <atom.prop.CHAIN_ID>  (3538) 
A A A A A A A A A A A Z Z Z Z Z Z Z Z Z Z Z Z Z Z Z

>  <atom.prop.IS_HEAVY_ATOM>  (3538) 
1 0 0 0 1 0 0 1 0 0 0 1 0 0 0 1 1 0 1 0 1 0 1 0 1 0

>  <DIFUSE_FUNC_ATOM>  (3538) 
n/a

>  <FINAL_SINGLE_POINT_ENERGY>  (3538) 
0

>  <NONCOV_INTER_ENERGY_QM>  (3538) 
0

>  <FF_Energy>  (3538) 
-3.83

>  <QM_Energy>  (3538) 
-8.98

>  <source>  (3538) 
ETAM_MBZ

>  <Index>  (3538) 
39205

$$$$
ETAM-pdb5zig-B-LYS-55:MBZ-pdb5zig-B-PHE-89
     RDKit          3D

 26 25  0  0  0  0  0  0  0  0999 V2000
   -0.3825   -2.6337    3.0532 C   0  0  0  0  0  0  0  0  0  0  0  0
   -0.1353   -2.4746    2.1032 H   0  0  0  0  0  0  0  0  0  0  0  0
   -0.8389   -1.8351    3.4320 H   0  0  0  0  0  0  0  0  0  0  0  0
   -1.0570   -3.4883    3.1062 H   0  0  0  0  0  0  0  0  0  0  0  0
    0.8770   -2.8932    3.8451 C   0  0  0  0  0  0  0  0  0  0  0  0
    0.6701   -2.8168    4.8269 H   0  0  0  0  0  0  0  0  0  0  0  0
    1.1961   -3.8300    3.6601 H   0  0  0  0  0  0  0  0  0  0  0  0
    1.9634   -1.9368    3.5041 N   0  0  0  0  0  4  0  0  0  0  0  0
    2.1798   -1.3807    4.3058 H   0  0  0  0  0  0  0  0  0  0  0  0
    2.7761   -2.4446    3.2198 H   0  0  0  0  0  0  0  0  0  0  0  0
    1.6614   -1.3435    2.7577 H   0  0  0  0  0  0  0  0  0  0  0  0
    0.0025    2.9484   -0.0207 C   0  0  0  0  0  0  0  0  0  0  0  0
    0.7411    3.2513    0.5563 H   0  0  0  0  0  0  0  0  0  0  0  0
   -0.8746    3.2474    0.3158 H   0  0  0  0  0  0  0  0  0  0  0  0
    0.1486    3.3841   -1.0091 H   0  0  0  0  0  0  0  0  0  0  0  0
    0.0041    1.4157   -0.0060 C   0  0  0  0  0  0  0  0  0  0  0  0
   -1.1822    0.7086   -0.0056 C   0  0  0  0  0  0  0  0  0  0  0  0
   -2.0538    1.2119   -0.0105 H   0  0  0  0  0  0  0  0  0  0  0  0
   -1.2038   -0.6643   -0.0000 C   0  0  0  0  0  0  0  0  0  0  0  0
   -2.1009   -1.1483    0.0028 H   0  0  0  0  0  0  0  0  0  0  0  0
   -0.0323   -1.4021    0.0037 C   0  0  0  0  0  0  0  0  0  0  0  0
   -0.0654   -2.3989    0.0082 H   0  0  0  0  0  0  0  0  0  0  0  0
    1.2038   -0.7455   -0.0000 C   0  0  0  0  0  0  0  0  0  0  0  0
    2.0628   -1.2397   -0.0064 H   0  0  0  0  0  0  0  0  0  0  0  0
    1.2104    0.6878    0.0079 C   0  0  0  0  0  0  0  0  0  0  0  0
    2.0797    1.1623    0.0222 H   0  0  0  0  0  0  0  0  0  0  0  0
  1  5  1  0
  5  8  1  0
  1  2  1  0
  1  3  1  0
  1  4  1  0
  5  6  1  0
  5  7  1  0
  8  9  1  0
  8 10  1  0
  8 11  1  0
 12 16  1  0
 16 17  2  0
 17 19  1  0
 19 21  2  0
 21 23  1  0
 23 25  2  0
 25 16  1  0
 12 13  1  0
 12 14  1  0
 12 15  1  0
 17 18  1  0
 19 20  1  0
 21 22  1  0
 23 24  1  0
 25 26  1  0
M  CHG  1   8   1
M  END
>  <PDB_ID>  (3539) 
pdb5zig

>  <RESIDUE_NAME>  (3539) 
LYS   PHE

>  <FRAG_NAME>  (3539) 
ETAM   MBZ

>  <FRAG_ATOM_NUM>  (3539) 
fragi: 11  fragj: 15

>  <atom.prop.CHAIN_ID>  (3539) 
A A A A A A A A A A A Z Z Z Z Z Z Z Z Z Z Z Z Z Z Z

>  <atom.prop.IS_HEAVY_ATOM>  (3539) 
1 0 0 0 1 0 0 1 0 0 0 1 0 0 0 1 1 0 1 0 1 0 1 0 1 0

>  <DIFUSE_FUNC_ATOM>  (3539) 
n/a

>  <FINAL_SINGLE_POINT_ENERGY>  (3539) 
0

>  <NONCOV_INTER_ENERGY_QM>  (3539) 
0

>  <FF_Energy>  (3539) 
-1.36

>  <QM_Energy>  (3539) 
-7.72

>  <source>  (3539) 
ETAM_MBZ

>  <Index>  (3539) 
39211

$$$$
ETAM-pdb5zq3-A-LYS-532:MBZ-pdb5zq3-A-PHE-455
     RDKit          3D

 26 25  0  0  0  0  0  0  0  0999 V2000
   -1.3134    1.5754    4.0556 C   0  0  0  0  0  0  0  0  0  0  0  0
   -0.9182    2.4691    3.8728 H   0  0  0  0  0  0  0  0  0  0  0  0
   -1.3122    1.3887    5.0324 H   0  0  0  0  0  0  0  0  0  0  0  0
   -2.3435    1.5700    3.6995 H   0  0  0  0  0  0  0  0  0  0  0  0
   -0.4714    0.5169    3.3556 C   0  0  0  0  0  0  0  0  0  0  0  0
   -0.8492   -0.3925    3.5692 H   0  0  0  0  0  0  0  0  0  0  0  0
   -0.5330    0.6586    2.3605 H   0  0  0  0  0  0  0  0  0  0  0  0
    0.9650    0.5537    3.7633 N   0  0  0  0  0  4  0  0  0  0  0  0
    1.5136    0.8970    3.0028 H   0  0  0  0  0  0  0  0  0  0  0  0
    1.0674    1.1568    4.5529 H   0  0  0  0  0  0  0  0  0  0  0  0
    1.2625   -0.3688    4.0043 H   0  0  0  0  0  0  0  0  0  0  0  0
    0.0017    2.9092    0.0046 C   0  0  0  0  0  0  0  0  0  0  0  0
    0.9073    3.2109    0.2601 H   0  0  0  0  0  0  0  0  0  0  0  0
   -0.6765    3.2101    0.6571 H   0  0  0  0  0  0  0  0  0  0  0  0
   -0.2400    3.3568   -0.9594 H   0  0  0  0  0  0  0  0  0  0  0  0
   -0.0001    1.3994   -0.0028 C   0  0  0  0  0  0  0  0  0  0  0  0
   -1.1922    0.6891    0.0036 C   0  0  0  0  0  0  0  0  0  0  0  0
   -2.0611    1.1804    0.0100 H   0  0  0  0  0  0  0  0  0  0  0  0
   -1.1957   -0.6956   -0.0000 C   0  0  0  0  0  0  0  0  0  0  0  0
   -2.0739   -1.1906   -0.0009 H   0  0  0  0  0  0  0  0  0  0  0  0
    0.0001   -1.3883   -0.0000 C   0  0  0  0  0  0  0  0  0  0  0  0
   -0.0044   -2.3898   -0.0004 H   0  0  0  0  0  0  0  0  0  0  0  0
    1.1957   -0.6965    0.0000 C   0  0  0  0  0  0  0  0  0  0  0  0
    2.0795   -1.1939    0.0016 H   0  0  0  0  0  0  0  0  0  0  0  0
    1.1922    0.6919   -0.0008 C   0  0  0  0  0  0  0  0  0  0  0  0
    2.0623    1.1880   -0.0008 H   0  0  0  0  0  0  0  0  0  0  0  0
  1  5  1  0
  5  8  1  0
  1  2  1  0
  1  3  1  0
  1  4  1  0
  5  6  1  0
  5  7  1  0
  8  9  1  0
  8 10  1  0
  8 11  1  0
 12 16  1  0
 16 17  2  0
 17 19  1  0
 19 21  2  0
 21 23  1  0
 23 25  2  0
 25 16  1  0
 12 13  1  0
 12 14  1  0
 12 15  1  0
 17 18  1  0
 19 20  1  0
 21 22  1  0
 23 24  1  0
 25 26  1  0
M  CHG  1   8   1
M  END
>  <PDB_ID>  (3540) 
pdb5zq3

>  <RESIDUE_NAME>  (3540) 
LYS   PHE

>  <FRAG_NAME>  (3540) 
ETAM   MBZ

>  <FRAG_ATOM_NUM>  (3540) 
fragi: 11  fragj: 15

>  <atom.prop.CHAIN_ID>  (3540) 
A A A A A A A A A A A Z Z Z Z Z Z Z Z Z Z Z Z Z Z Z

>  <atom.prop.IS_HEAVY_ATOM>  (3540) 
1 0 0 0 1 0 0 1 0 0 0 1 0 0 0 1 1 0 1 0 1 0 1 0 1 0

>  <DIFUSE_FUNC_ATOM>  (3540) 
n/a

>  <FINAL_SINGLE_POINT_ENERGY>  (3540) 
0

>  <NONCOV_INTER_ENERGY_QM>  (3540) 
0

>  <FF_Energy>  (3540) 
-5.01

>  <QM_Energy>  (3540) 
-11.57

>  <source>  (3540) 
ETAM_MBZ

>  <Index>  (3540) 
39223

$$$$
ETAM-pdb5zi9-B-LYS-160:MBZ-pdb5zi9-B-PHE-156
     RDKit          3D

 26 25  0  0  0  0  0  0  0  0999 V2000
    3.8674   -0.1403    3.2583 C   0  0  0  0  0  0  0  0  0  0  0  0
    3.6852    0.6512    2.6672 H   0  0  0  0  0  0  0  0  0  0  0  0
    4.7745   -0.0283    3.6765 H   0  0  0  0  0  0  0  0  0  0  0  0
    3.1135   -0.1795    4.0445 H   0  0  0  0  0  0  0  0  0  0  0  0
    3.9016   -1.3874    2.3815 C   0  0  0  0  0  0  0  0  0  0  0  0
    3.8870   -1.0929    1.4002 H   0  0  0  0  0  0  0  0  0  0  0  0
    4.8045   -1.8523    2.5161 H   0  0  0  0  0  0  0  0  0  0  0  0
    2.8159   -2.3904    2.5920 N   0  0  0  0  0  4  0  0  0  0  0  0
    2.3985   -2.2405    3.4870 H   0  0  0  0  0  0  0  0  0  0  0  0
    2.1269   -2.2841    1.8767 H   0  0  0  0  0  0  0  0  0  0  0  0
    3.2044   -3.3093    2.5516 H   0  0  0  0  0  0  0  0  0  0  0  0
   -0.0180    2.9179   -0.0164 C   0  0  0  0  0  0  0  0  0  0  0  0
   -0.6465    3.2102   -0.7239 H   0  0  0  0  0  0  0  0  0  0  0  0
    0.9011    3.2342   -0.2060 H   0  0  0  0  0  0  0  0  0  0  0  0
   -0.3387    3.3736    0.9203 H   0  0  0  0  0  0  0  0  0  0  0  0
   -0.0020    1.4243    0.0064 C   0  0  0  0  0  0  0  0  0  0  0  0
   -1.2208    0.6761   -0.0006 C   0  0  0  0  0  0  0  0  0  0  0  0
   -2.0823    1.1644   -0.0077 H   0  0  0  0  0  0  0  0  0  0  0  0
   -1.2147   -0.7275    0.0000 C   0  0  0  0  0  0  0  0  0  0  0  0
   -2.0780   -1.2270    0.0012 H   0  0  0  0  0  0  0  0  0  0  0  0
    0.0076   -1.4044    0.0003 C   0  0  0  0  0  0  0  0  0  0  0  0
    0.0195   -2.4038   -0.0001 H   0  0  0  0  0  0  0  0  0  0  0  0
    1.2147   -0.6911   -0.0000 C   0  0  0  0  0  0  0  0  0  0  0  0
    2.0984   -1.1826    0.0055 H   0  0  0  0  0  0  0  0  0  0  0  0
    1.2151    0.7225   -0.0061 C   0  0  0  0  0  0  0  0  0  0  0  0
    2.0724    1.2127   -0.0202 H   0  0  0  0  0  0  0  0  0  0  0  0
  1  5  1  0
  5  8  1  0
  1  2  1  0
  1  3  1  0
  1  4  1  0
  5  6  1  0
  5  7  1  0
  8  9  1  0
  8 10  1  0
  8 11  1  0
 12 16  1  0
 16 17  2  0
 17 19  1  0
 19 21  2  0
 21 23  1  0
 23 25  2  0
 25 16  1  0
 12 13  1  0
 12 14  1  0
 12 15  1  0
 17 18  1  0
 19 20  1  0
 21 22  1  0
 23 24  1  0
 25 26  1  0
M  CHG  1   8   1
M  END
>  <PDB_ID>  (3541) 
pdb5zi9

>  <RESIDUE_NAME>  (3541) 
LYS   PHE

>  <FRAG_NAME>  (3541) 
ETAM   MBZ

>  <FRAG_ATOM_NUM>  (3541) 
fragi: 11  fragj: 15

>  <atom.prop.CHAIN_ID>  (3541) 
A A A A A A A A A A A Z Z Z Z Z Z Z Z Z Z Z Z Z Z Z

>  <atom.prop.IS_HEAVY_ATOM>  (3541) 
1 0 0 0 1 0 0 1 0 0 0 1 0 0 0 1 1 0 1 0 1 0 1 0 1 0

>  <DIFUSE_FUNC_ATOM>  (3541) 
n/a

>  <FINAL_SINGLE_POINT_ENERGY>  (3541) 
0

>  <NONCOV_INTER_ENERGY_QM>  (3541) 
0

>  <FF_Energy>  (3541) 
-1.57

>  <QM_Energy>  (3541) 
-8.07

>  <source>  (3541) 
ETAM_MBZ

>  <Index>  (3541) 
39253

$$$$
ETAM-pdb5zuq-A-LYS-490:MBZ-pdb5zuq-A-PHE-426
     RDKit          3D

 26 25  0  0  0  0  0  0  0  0999 V2000
    0.8973    1.7015    5.5477 C   0  0  0  0  0  0  0  0  0  0  0  0
    0.2872    2.3321    5.0740 H   0  0  0  0  0  0  0  0  0  0  0  0
    1.8427    2.0034    5.4493 H   0  0  0  0  0  0  0  0  0  0  0  0
    0.6393    1.6945    6.6067 H   0  0  0  0  0  0  0  0  0  0  0  0
    0.7590    0.3272    4.9179 C   0  0  0  0  0  0  0  0  0  0  0  0
    1.5059   -0.2572    5.2438 H   0  0  0  0  0  0  0  0  0  0  0  0
   -0.1159   -0.0749    5.2007 H   0  0  0  0  0  0  0  0  0  0  0  0
    0.8061    0.3968    3.4322 N   0  0  0  0  0  4  0  0  0  0  0  0
    0.1730   -0.2751    3.0484 H   0  0  0  0  0  0  0  0  0  0  0  0
    0.5420    1.3135    3.1345 H   0  0  0  0  0  0  0  0  0  0  0  0
    1.7347    0.1975    3.1199 H   0  0  0  0  0  0  0  0  0  0  0  0
   -0.0030    2.8911   -0.0060 C   0  0  0  0  0  0  0  0  0  0  0  0
    0.8691    3.1997    0.3476 H   0  0  0  0  0  0  0  0  0  0  0  0
   -0.7494    3.1972    0.5678 H   0  0  0  0  0  0  0  0  0  0  0  0
   -0.1383    3.3310   -0.9941 H   0  0  0  0  0  0  0  0  0  0  0  0
   -0.0007    1.3925   -0.0038 C   0  0  0  0  0  0  0  0  0  0  0  0
   -1.1892    0.6888    0.0084 C   0  0  0  0  0  0  0  0  0  0  0  0
   -2.0585    1.1804    0.0222 H   0  0  0  0  0  0  0  0  0  0  0  0
   -1.1954   -0.6931    0.0000 C   0  0  0  0  0  0  0  0  0  0  0  0
   -2.0736   -1.1880   -0.0028 H   0  0  0  0  0  0  0  0  0  0  0  0
    0.0003   -1.3874   -0.0021 C   0  0  0  0  0  0  0  0  0  0  0  0
   -0.0023   -2.3872   -0.0057 H   0  0  0  0  0  0  0  0  0  0  0  0
    1.1954   -0.6912   -0.0000 C   0  0  0  0  0  0  0  0  0  0  0  0
    2.0790   -1.1907    0.0043 H   0  0  0  0  0  0  0  0  0  0  0  0
    1.1896    0.6905   -0.0026 C   0  0  0  0  0  0  0  0  0  0  0  0
    2.0593    1.1897   -0.0048 H   0  0  0  0  0  0  0  0  0  0  0  0
  1  5  1  0
  5  8  1  0
  1  2  1  0
  1  3  1  0
  1  4  1  0
  5  6  1  0
  5  7  1  0
  8  9  1  0
  8 10  1  0
  8 11  1  0
 12 16  1  0
 16 17  2  0
 17 19  1  0
 19 21  2  0
 21 23  1  0
 23 25  2  0
 25 16  1  0
 12 13  1  0
 12 14  1  0
 12 15  1  0
 17 18  1  0
 19 20  1  0
 21 22  1  0
 23 24  1  0
 25 26  1  0
M  CHG  1   8   1
M  END
>  <PDB_ID>  (3542) 
pdb5zuq

>  <RESIDUE_NAME>  (3542) 
LYS   PHE

>  <FRAG_NAME>  (3542) 
ETAM   MBZ

>  <FRAG_ATOM_NUM>  (3542) 
fragi: 11  fragj: 15

>  <atom.prop.CHAIN_ID>  (3542) 
A A A A A A A A A A A Z Z Z Z Z Z Z Z Z Z Z Z Z Z Z

>  <atom.prop.IS_HEAVY_ATOM>  (3542) 
1 0 0 0 1 0 0 1 0 0 0 1 0 0 0 1 1 0 1 0 1 0 1 0 1 0

>  <DIFUSE_FUNC_ATOM>  (3542) 
n/a

>  <FINAL_SINGLE_POINT_ENERGY>  (3542) 
0

>  <NONCOV_INTER_ENERGY_QM>  (3542) 
0

>  <FF_Energy>  (3542) 
-7.3

>  <QM_Energy>  (3542) 
-12.39

>  <source>  (3542) 
ETAM_MBZ

>  <Index>  (3542) 
39264

$$$$
ETAM-pdb5zy9-D-LYS-396:MBZ-pdb5zy9-D-PHE-39
     RDKit          3D

 26 25  0  0  0  0  0  0  0  0999 V2000
   -1.5194   -1.1523   -3.9736 C   0  0  0  0  0  0  0  0  0  0  0  0
   -1.9488   -1.7946   -3.3350 H   0  0  0  0  0  0  0  0  0  0  0  0
   -0.5577   -1.4074   -4.0987 H   0  0  0  0  0  0  0  0  0  0  0  0
   -2.0318   -1.2096   -4.9340 H   0  0  0  0  0  0  0  0  0  0  0  0
   -1.5742    0.2280   -3.3735 C   0  0  0  0  0  0  0  0  0  0  0  0
   -1.0519    0.2238   -2.4968 H   0  0  0  0  0  0  0  0  0  0  0  0
   -1.0846    0.8736   -3.9936 H   0  0  0  0  0  0  0  0  0  0  0  0
   -2.9304    0.7433   -3.1205 N   0  0  0  0  0  4  0  0  0  0  0  0
   -2.9649    1.1791   -2.2188 H   0  0  0  0  0  0  0  0  0  0  0  0
   -3.1738    1.4181   -3.8211 H   0  0  0  0  0  0  0  0  0  0  0  0
   -3.5904   -0.0106   -3.1471 H   0  0  0  0  0  0  0  0  0  0  0  0
    0.0323    2.8545   -0.0229 C   0  0  0  0  0  0  0  0  0  0  0  0
   -0.2414    3.1524   -0.9357 H   0  0  0  0  0  0  0  0  0  0  0  0
    0.9685    3.1466    0.1613 H   0  0  0  0  0  0  0  0  0  0  0  0
   -0.6185    3.3504    0.6973 H   0  0  0  0  0  0  0  0  0  0  0  0
    0.0007    1.3663    0.0046 C   0  0  0  0  0  0  0  0  0  0  0  0
   -1.1581    0.6823   -0.0197 C   0  0  0  0  0  0  0  0  0  0  0  0
   -2.0370    1.1807   -0.0543 H   0  0  0  0  0  0  0  0  0  0  0  0
   -1.1682   -0.6667    0.0000 C   0  0  0  0  0  0  0  0  0  0  0  0
   -2.0617   -1.1631    0.0082 H   0  0  0  0  0  0  0  0  0  0  0  0
   -0.0069   -1.3581    0.0102 C   0  0  0  0  0  0  0  0  0  0  0  0
   -0.0215   -2.3680    0.0252 H   0  0  0  0  0  0  0  0  0  0  0  0
    1.1682   -0.6907    0.0000 C   0  0  0  0  0  0  0  0  0  0  0  0
    2.0549   -1.1949   -0.0097 H   0  0  0  0  0  0  0  0  0  0  0  0
    1.1644    0.6669    0.0049 C   0  0  0  0  0  0  0  0  0  0  0  0
    2.0455    1.1667    0.0081 H   0  0  0  0  0  0  0  0  0  0  0  0
  1  5  1  0
  5  8  1  0
  1  2  1  0
  1  3  1  0
  1  4  1  0
  5  6  1  0
  5  7  1  0
  8  9  1  0
  8 10  1  0
  8 11  1  0
 12 16  1  0
 16 17  2  0
 17 19  1  0
 19 21  2  0
 21 23  1  0
 23 25  2  0
 25 16  1  0
 12 13  1  0
 12 14  1  0
 12 15  1  0
 17 18  1  0
 19 20  1  0
 21 22  1  0
 23 24  1  0
 25 26  1  0
M  CHG  1   8   1
M  END
>  <PDB_ID>  (3543) 
pdb5zy9

>  <RESIDUE_NAME>  (3543) 
LYS   PHE

>  <FRAG_NAME>  (3543) 
ETAM   MBZ

>  <FRAG_ATOM_NUM>  (3543) 
fragi: 11  fragj: 15

>  <atom.prop.CHAIN_ID>  (3543) 
A A A A A A A A A A A Z Z Z Z Z Z Z Z Z Z Z Z Z Z Z

>  <atom.prop.IS_HEAVY_ATOM>  (3543) 
1 0 0 0 1 0 0 1 0 0 0 1 0 0 0 1 1 0 1 0 1 0 1 0 1 0

>  <DIFUSE_FUNC_ATOM>  (3543) 
n/a

>  <FINAL_SINGLE_POINT_ENERGY>  (3543) 
0

>  <NONCOV_INTER_ENERGY_QM>  (3543) 
0

>  <FF_Energy>  (3543) 
-2.92

>  <QM_Energy>  (3543) 
-8.37

>  <source>  (3543) 
ETAM_MBZ

>  <Index>  (3543) 
39290

$$$$
ETAM-pdb5zv9-B-LYS-492:MBZ-pdb5zv9-B-PHE-426
     RDKit          3D

 26 25  0  0  0  0  0  0  0  0999 V2000
    0.0028    0.8920   -5.5683 C   0  0  0  0  0  0  0  0  0  0  0  0
    0.6513    1.4863   -5.1089 H   0  0  0  0  0  0  0  0  0  0  0  0
   -0.9143    1.2677   -5.5183 H   0  0  0  0  0  0  0  0  0  0  0  0
    0.2908    0.7943   -6.6151 H   0  0  0  0  0  0  0  0  0  0  0  0
    0.0119   -0.4607   -4.8800 C   0  0  0  0  0  0  0  0  0  0  0  0
   -0.7893   -0.9838   -5.1778 H   0  0  0  0  0  0  0  0  0  0  0  0
    0.8430   -0.9556   -5.1424 H   0  0  0  0  0  0  0  0  0  0  0  0
   -0.0217   -0.3167   -3.3978 N   0  0  0  0  0  4  0  0  0  0  0  0
   -0.2546    0.6262   -3.1625 H   0  0  0  0  0  0  0  0  0  0  0  0
   -0.7092   -0.9362   -3.0205 H   0  0  0  0  0  0  0  0  0  0  0  0
    0.8765   -0.5437   -3.0226 H   0  0  0  0  0  0  0  0  0  0  0  0
   -0.0023    2.9077    0.0005 C   0  0  0  0  0  0  0  0  0  0  0  0
   -0.8153    3.2100   -0.4748 H   0  0  0  0  0  0  0  0  0  0  0  0
    0.8171    3.2125   -0.4610 H   0  0  0  0  0  0  0  0  0  0  0  0
   -0.0111    3.3518    0.9959 H   0  0  0  0  0  0  0  0  0  0  0  0
    0.0004    1.4017    0.0032 C   0  0  0  0  0  0  0  0  0  0  0  0
   -1.1990    0.6942   -0.0013 C   0  0  0  0  0  0  0  0  0  0  0  0
   -2.0634    1.1844   -0.0069 H   0  0  0  0  0  0  0  0  0  0  0  0
   -1.2017   -0.6959    0.0000 C   0  0  0  0  0  0  0  0  0  0  0  0
   -2.0781   -1.1909    0.0036 H   0  0  0  0  0  0  0  0  0  0  0  0
   -0.0004   -1.3911   -0.0023 C   0  0  0  0  0  0  0  0  0  0  0  0
   -0.0049   -2.3917   -0.0063 H   0  0  0  0  0  0  0  0  0  0  0  0
    1.2017   -0.6979    0.0000 C   0  0  0  0  0  0  0  0  0  0  0  0
    2.0813   -1.1989    0.0025 H   0  0  0  0  0  0  0  0  0  0  0  0
    1.1990    0.6891    0.0004 C   0  0  0  0  0  0  0  0  0  0  0  0
    2.0663    1.1876   -0.0026 H   0  0  0  0  0  0  0  0  0  0  0  0
  1  5  1  0
  5  8  1  0
  1  2  1  0
  1  3  1  0
  1  4  1  0
  5  6  1  0
  5  7  1  0
  8  9  1  0
  8 10  1  0
  8 11  1  0
 12 16  1  0
 16 17  2  0
 17 19  1  0
 19 21  2  0
 21 23  1  0
 23 25  2  0
 25 16  1  0
 12 13  1  0
 12 14  1  0
 12 15  1  0
 17 18  1  0
 19 20  1  0
 21 22  1  0
 23 24  1  0
 25 26  1  0
M  CHG  1   8   1
M  END
>  <PDB_ID>  (3544) 
pdb5zv9

>  <RESIDUE_NAME>  (3544) 
LYS   PHE

>  <FRAG_NAME>  (3544) 
ETAM   MBZ

>  <FRAG_ATOM_NUM>  (3544) 
fragi: 11  fragj: 15

>  <atom.prop.CHAIN_ID>  (3544) 
A A A A A A A A A A A Z Z Z Z Z Z Z Z Z Z Z Z Z Z Z

>  <atom.prop.IS_HEAVY_ATOM>  (3544) 
1 0 0 0 1 0 0 1 0 0 0 1 0 0 0 1 1 0 1 0 1 0 1 0 1 0

>  <DIFUSE_FUNC_ATOM>  (3544) 
n/a

>  <FINAL_SINGLE_POINT_ENERGY>  (3544) 
0

>  <NONCOV_INTER_ENERGY_QM>  (3544) 
0

>  <FF_Energy>  (3544) 
-7.77

>  <QM_Energy>  (3544) 
-13.77

>  <source>  (3544) 
ETAM_MBZ

>  <Index>  (3544) 
39304

$$$$
ETAM-pdb5zsg-A-LYS-108:MBZ-pdb5zsg-B-PHE-664
     RDKit          3D

 26 25  0  0  0  0  0  0  0  0999 V2000
   -0.9792    0.0499   -4.3189 C   0  0  0  0  0  0  0  0  0  0  0  0
   -1.7242   -0.6014   -4.4258 H   0  0  0  0  0  0  0  0  0  0  0  0
   -0.5597    0.2400   -5.2009 H   0  0  0  0  0  0  0  0  0  0  0  0
   -1.3834    0.9788   -3.9167 H   0  0  0  0  0  0  0  0  0  0  0  0
    0.0677   -0.5523   -3.4001 C   0  0  0  0  0  0  0  0  0  0  0  0
    0.9043   -0.0089   -3.4548 H   0  0  0  0  0  0  0  0  0  0  0  0
   -0.2748   -0.5433   -2.4616 H   0  0  0  0  0  0  0  0  0  0  0  0
    0.3772   -1.9639   -3.7916 N   0  0  0  0  0  4  0  0  0  0  0  0
   -0.2829   -2.2654   -4.4776 H   0  0  0  0  0  0  0  0  0  0  0  0
    1.3000   -2.0036   -4.1702 H   0  0  0  0  0  0  0  0  0  0  0  0
    0.3168   -2.5479   -2.9842 H   0  0  0  0  0  0  0  0  0  0  0  0
    0.0052    2.9039    0.0269 C   0  0  0  0  0  0  0  0  0  0  0  0
   -0.8648    3.2229   -0.3099 H   0  0  0  0  0  0  0  0  0  0  0  0
    0.7536    3.2233   -0.5300 H   0  0  0  0  0  0  0  0  0  0  0  0
    0.1416    3.3086    1.0298 H   0  0  0  0  0  0  0  0  0  0  0  0
    0.0005    1.4053   -0.0083 C   0  0  0  0  0  0  0  0  0  0  0  0
   -1.1920    0.7011   -0.0092 C   0  0  0  0  0  0  0  0  0  0  0  0
   -2.0617    1.1836   -0.0180 H   0  0  0  0  0  0  0  0  0  0  0  0
   -1.1980   -0.7039    0.0000 C   0  0  0  0  0  0  0  0  0  0  0  0
   -2.0796   -1.1864    0.0010 H   0  0  0  0  0  0  0  0  0  0  0  0
   -0.0055   -1.3951    0.0089 C   0  0  0  0  0  0  0  0  0  0  0  0
   -0.0048   -2.3959    0.0208 H   0  0  0  0  0  0  0  0  0  0  0  0
    1.1980   -0.7005    0.0000 C   0  0  0  0  0  0  0  0  0  0  0  0
    2.0783   -1.1992   -0.0117 H   0  0  0  0  0  0  0  0  0  0  0  0
    1.1970    0.6930    0.0085 C   0  0  0  0  0  0  0  0  0  0  0  0
    2.0657    1.1863    0.0267 H   0  0  0  0  0  0  0  0  0  0  0  0
  1  5  1  0
  5  8  1  0
  1  2  1  0
  1  3  1  0
  1  4  1  0
  5  6  1  0
  5  7  1  0
  8  9  1  0
  8 10  1  0
  8 11  1  0
 12 16  1  0
 16 17  2  0
 17 19  1  0
 19 21  2  0
 21 23  1  0
 23 25  2  0
 25 16  1  0
 12 13  1  0
 12 14  1  0
 12 15  1  0
 17 18  1  0
 19 20  1  0
 21 22  1  0
 23 24  1  0
 25 26  1  0
M  CHG  1   8   1
M  END
>  <PDB_ID>  (3545) 
pdb5zsg

>  <RESIDUE_NAME>  (3545) 
LYS   PHE

>  <FRAG_NAME>  (3545) 
ETAM   MBZ

>  <FRAG_ATOM_NUM>  (3545) 
fragi: 11  fragj: 15

>  <atom.prop.CHAIN_ID>  (3545) 
A A A A A A A A A A A Z Z Z Z Z Z Z Z Z Z Z Z Z Z Z

>  <atom.prop.IS_HEAVY_ATOM>  (3545) 
1 0 0 0 1 0 0 1 0 0 0 1 0 0 0 1 1 0 1 0 1 0 1 0 1 0

>  <DIFUSE_FUNC_ATOM>  (3545) 
n/a

>  <FINAL_SINGLE_POINT_ENERGY>  (3545) 
0

>  <NONCOV_INTER_ENERGY_QM>  (3545) 
0

>  <FF_Energy>  (3545) 
-4.67

>  <QM_Energy>  (3545) 
-10.73

>  <source>  (3545) 
ETAM_MBZ

>  <Index>  (3545) 
39315

$$$$
